# Generated by pormake.
# Topology ctn, (3,4)-cn, num edge types: 1
# Building blocks:
#     Node 0, Type 0, BuildingBlock: QEWDON_clean_linker_0, # of connection points: 3
#     Node 1, Type 0, BuildingBlock: QEWDON_clean_linker_0, # of connection points: 3
#     Node 2, Type 0, BuildingBlock: QEWDON_clean_linker_0, # of connection points: 3
#     Node 3, Type 0, BuildingBlock: QEWDON_clean_linker_0, # of connection points: 3
#     Node 4, Type 0, BuildingBlock: QEWDON_clean_linker_0, # of connection points: 3
#     Node 5, Type 0, BuildingBlock: QEWDON_clean_linker_0, # of connection points: 3
#     Node 6, Type 0, BuildingBlock: QEWDON_clean_linker_0, # of connection points: 3
#     Node 7, Type 0, BuildingBlock: QEWDON_clean_linker_0, # of connection points: 3
#     Node 8, Type 0, BuildingBlock: QEWDON_clean_linker_0, # of connection points: 3
#     Node 9, Type 0, BuildingBlock: QEWDON_clean_linker_0, # of connection points: 3
#     Node 10, Type 0, BuildingBlock: QEWDON_clean_linker_0, # of connection points: 3
#     Node 11, Type 0, BuildingBlock: QEWDON_clean_linker_0, # of connection points: 3
#     Node 12, Type 0, BuildingBlock: QEWDON_clean_linker_0, # of connection points: 3
#     Node 13, Type 0, BuildingBlock: QEWDON_clean_linker_0, # of connection points: 3
#     Node 14, Type 0, BuildingBlock: QEWDON_clean_linker_0, # of connection points: 3
#     Node 15, Type 0, BuildingBlock: QEWDON_clean_linker_0, # of connection points: 3
#     Node 16, Type 1, BuildingBlock: TATPOV_clean_sbu_0, # of connection points: 4
#     Node 17, Type 1, BuildingBlock: TATPOV_clean_sbu_0, # of connection points: 4
#     Node 18, Type 1, BuildingBlock: TATPOV_clean_sbu_0, # of connection points: 4
#     Node 19, Type 1, BuildingBlock: TATPOV_clean_sbu_0, # of connection points: 4
#     Node 20, Type 1, BuildingBlock: TATPOV_clean_sbu_0, # of connection points: 4
#     Node 21, Type 1, BuildingBlock: TATPOV_clean_sbu_0, # of connection points: 4
#     Node 22, Type 1, BuildingBlock: TATPOV_clean_sbu_0, # of connection points: 4
#     Node 23, Type 1, BuildingBlock: TATPOV_clean_sbu_0, # of connection points: 4
#     Node 24, Type 1, BuildingBlock: TATPOV_clean_sbu_0, # of connection points: 4
#     Node 25, Type 1, BuildingBlock: TATPOV_clean_sbu_0, # of connection points: 4
#     Node 26, Type 1, BuildingBlock: TATPOV_clean_sbu_0, # of connection points: 4
#     Node 27, Type 1, BuildingBlock: TATPOV_clean_sbu_0, # of connection points: 4
#     Edge 28, Type (0, 1), BuildingBlock: OJICUG_clean_linker_0, # of connection points: 2
#     Edge 29, Type (0, 1), BuildingBlock: OJICUG_clean_linker_0, # of connection points: 2
#     Edge 30, Type (0, 1), BuildingBlock: OJICUG_clean_linker_0, # of connection points: 2
#     Edge 31, Type (0, 1), BuildingBlock: OJICUG_clean_linker_0, # of connection points: 2
#     Edge 32, Type (0, 1), BuildingBlock: OJICUG_clean_linker_0, # of connection points: 2
#     Edge 33, Type (0, 1), BuildingBlock: OJICUG_clean_linker_0, # of connection points: 2
#     Edge 34, Type (0, 1), BuildingBlock: OJICUG_clean_linker_0, # of connection points: 2
#     Edge 35, Type (0, 1), BuildingBlock: OJICUG_clean_linker_0, # of connection points: 2
#     Edge 36, Type (0, 1), BuildingBlock: OJICUG_clean_linker_0, # of connection points: 2
#     Edge 37, Type (0, 1), BuildingBlock: OJICUG_clean_linker_0, # of connection points: 2
#     Edge 38, Type (0, 1), BuildingBlock: OJICUG_clean_linker_0, # of connection points: 2
#     Edge 39, Type (0, 1), BuildingBlock: OJICUG_clean_linker_0, # of connection points: 2
#     Edge 40, Type (0, 1), BuildingBlock: OJICUG_clean_linker_0, # of connection points: 2
#     Edge 41, Type (0, 1), BuildingBlock: OJICUG_clean_linker_0, # of connection points: 2
#     Edge 42, Type (0, 1), BuildingBlock: OJICUG_clean_linker_0, # of connection points: 2
#     Edge 43, Type (0, 1), BuildingBlock: OJICUG_clean_linker_0, # of connection points: 2
#     Edge 44, Type (0, 1), BuildingBlock: OJICUG_clean_linker_0, # of connection points: 2
#     Edge 45, Type (0, 1), BuildingBlock: OJICUG_clean_linker_0, # of connection points: 2
#     Edge 46, Type (0, 1), BuildingBlock: OJICUG_clean_linker_0, # of connection points: 2
#     Edge 47, Type (0, 1), BuildingBlock: OJICUG_clean_linker_0, # of connection points: 2
#     Edge 48, Type (0, 1), BuildingBlock: OJICUG_clean_linker_0, # of connection points: 2
#     Edge 49, Type (0, 1), BuildingBlock: OJICUG_clean_linker_0, # of connection points: 2
#     Edge 50, Type (0, 1), BuildingBlock: OJICUG_clean_linker_0, # of connection points: 2
#     Edge 51, Type (0, 1), BuildingBlock: OJICUG_clean_linker_0, # of connection points: 2
#     Edge 52, Type (0, 1), BuildingBlock: OJICUG_clean_linker_0, # of connection points: 2
#     Edge 53, Type (0, 1), BuildingBlock: OJICUG_clean_linker_0, # of connection points: 2
#     Edge 54, Type (0, 1), BuildingBlock: OJICUG_clean_linker_0, # of connection points: 2
#     Edge 55, Type (0, 1), BuildingBlock: OJICUG_clean_linker_0, # of connection points: 2
#     Edge 56, Type (0, 1), BuildingBlock: OJICUG_clean_linker_0, # of connection points: 2
#     Edge 57, Type (0, 1), BuildingBlock: OJICUG_clean_linker_0, # of connection points: 2
#     Edge 58, Type (0, 1), BuildingBlock: OJICUG_clean_linker_0, # of connection points: 2
#     Edge 59, Type (0, 1), BuildingBlock: OJICUG_clean_linker_0, # of connection points: 2
#     Edge 60, Type (0, 1), BuildingBlock: OJICUG_clean_linker_0, # of connection points: 2
#     Edge 61, Type (0, 1), BuildingBlock: OJICUG_clean_linker_0, # of connection points: 2
#     Edge 62, Type (0, 1), BuildingBlock: OJICUG_clean_linker_0, # of connection points: 2
#     Edge 63, Type (0, 1), BuildingBlock: OJICUG_clean_linker_0, # of connection points: 2
#     Edge 64, Type (0, 1), BuildingBlock: OJICUG_clean_linker_0, # of connection points: 2
#     Edge 65, Type (0, 1), BuildingBlock: OJICUG_clean_linker_0, # of connection points: 2
#     Edge 66, Type (0, 1), BuildingBlock: OJICUG_clean_linker_0, # of connection points: 2
#     Edge 67, Type (0, 1), BuildingBlock: OJICUG_clean_linker_0, # of connection points: 2
#     Edge 68, Type (0, 1), BuildingBlock: OJICUG_clean_linker_0, # of connection points: 2
#     Edge 69, Type (0, 1), BuildingBlock: OJICUG_clean_linker_0, # of connection points: 2
#     Edge 70, Type (0, 1), BuildingBlock: OJICUG_clean_linker_0, # of connection points: 2
#     Edge 71, Type (0, 1), BuildingBlock: OJICUG_clean_linker_0, # of connection points: 2
#     Edge 72, Type (0, 1), BuildingBlock: OJICUG_clean_linker_0, # of connection points: 2
#     Edge 73, Type (0, 1), BuildingBlock: OJICUG_clean_linker_0, # of connection points: 2
#     Edge 74, Type (0, 1), BuildingBlock: OJICUG_clean_linker_0, # of connection points: 2
#     Edge 75, Type (0, 1), BuildingBlock: OJICUG_clean_linker_0, # of connection points: 2
# Relax obj value: 0.121
# Max RMSD: 0.276
# Mean RMSD: 0.150
data_MOF--net-ctn--node1-TATPOV_clean_sbu_0--node2-QEWDON_clean_linker_0--edge1-OJICUG_clean_linker_0
_symmetry_space_group_name_H-M    P1
_symmetry_Int_Tables_number       1
_symmetry_cell_setting            triclinic
loop_
_symmetry_equiv_pos_as_xyz
'x, y, z'
_cell_length_a     37.77438
_cell_length_b     40.034884
_cell_length_c     42.664501
_cell_angle_alpha  99.923239
_cell_angle_beta   93.426385
_cell_angle_gamma 97.054961
loop_
_atom_site_label
_atom_site_type_symbol
_atom_site_fract_x
_atom_site_fract_y
_atom_site_fract_z
_atom_type_partial_charge
H0 H 0.12076 0.01534 0.03077 0.0
C1 C 0.10354 0.01113 0.04955 0.0
C2 C 0.10662 0.98343 0.0654 0.0
C3 C 0.08088 0.03539 0.05979 0.0
H4 H 0.08844 0.95901 0.10399 0.0
C5 C 0.08563 0.97987 0.09129 0.0
C6 C 0.06221 0.00375 0.10167 0.0
C7 C 0.06015 0.03137 0.08548 0.0
C8 C 0.08407 0.06824 0.04804 0.0
H9 H 0.04295 0.05044 0.09318 0.0
C10 C 0.06969 0.071 0.01741 0.0
C11 C 0.07406 0.10292 0.00733 0.0
C12 C 0.10257 0.09739 0.06818 0.0
H13 H 0.11383 0.09572 0.09174 0.0
C14 C 0.10711 0.12881 0.05804 0.0
H15 H 0.05518 0.0487 1.00175 0.0
C16 C 0.09302 0.13158 0.02781 0.0
H17 H 0.09659 0.1563 0.02046 0.0
H18 H 0.12156 0.1511 0.0737 0.0
H19 H 0.34511 0.75383 0.23529 0.0
C20 C 0.32773 0.73263 0.24121 0.0
C21 C 0.34221 0.70785 0.25624 0.0
C22 C 0.29054 0.73086 0.23478 0.0
H23 H 0.32898 0.66162 0.27543 0.0
C24 C 0.3187 0.68061 0.26347 0.0
C25 C 0.2817 0.67789 0.25595 0.0
C26 C 0.26794 0.70314 0.24181 0.0
C27 C 0.27431 0.75831 0.22207 0.0
H28 H 0.23926 0.70153 0.23667 0.0
C29 C 0.28615 0.7703 0.19482 0.0
C30 C 0.2676 0.79343 0.18083 0.0
C31 C 0.24493 0.77105 0.23635 0.0
H32 H 0.23563 0.76273 0.25764 0.0
C33 C 0.22681 0.79413 0.22305 0.0
H34 H 0.30924 0.76092 0.18431 0.0
C35 C 0.23756 0.80481 0.19531 0.0
H36 H 0.22164 0.82149 0.18499 0.0
H37 H 0.20381 0.80326 0.23395 0.0
H38 H 0.98976 0.41637 0.0814 0.0
C39 C 0.9854 0.43954 0.07266 0.0
C40 C 0.99948 0.47175 0.09052 0.0
C41 C 0.96583 0.43663 0.04339 0.0
H42 H 1.0058 0.52646 0.09104 0.0
C43 C 0.99486 0.50141 0.07771 0.0
C44 C 0.97602 0.49852 0.04753 0.0
C45 C 0.96106 0.46591 0.03092 0.0
C46 C 0.95216 0.40257 0.025 0.0
H47 H 0.94584 0.46318 0.00804 0.0
C48 C 0.97609 0.38249 0.00973 0.0
C49 C 0.96369 0.35016 0.9913 0.0
C50 C 0.91561 0.3901 0.02261 0.0
H51 H 0.89688 0.40545 0.03439 0.0
C52 C 0.90316 0.35753 0.0051 0.0
H53 H 1.00433 0.3924 0.01181 0.0
C54 C 0.92698 0.33765 0.98942 0.0
H55 H 0.9165 0.31301 0.97503 0.0
H56 H 0.87492 0.34789 1.00326 0.0
H57 H 0.81992 0.78926 0.25761 0.0
C58 C 0.82859 0.77814 0.23487 0.0
C59 C 0.84828 0.79894 0.21654 0.0
C60 C 0.82048 0.74267 0.2244 0.0
H61 H 0.87388 0.79862 0.17229 0.0
C62 C 0.85818 0.78351 0.18659 0.0
C63 C 0.84918 0.74811 0.17549 0.0
C64 C 0.83046 0.72808 0.19462 0.0
C65 C 0.80183 0.72025 0.24431 0.0
H66 H 0.8229 0.70087 0.18602 0.0
C67 C 0.76996 0.72795 0.25751 0.0
C68 C 0.75035 0.70485 0.2737 0.0
C69 C 0.81497 0.68986 0.24862 0.0
H70 H 0.83965 0.68347 0.23893 0.0
C71 C 0.79627 0.6673 0.26525 0.0
H72 H 0.76015 0.75159 0.25444 0.0
C73 C 0.76403 0.67446 0.27742 0.0
H74 H 0.74951 0.65573 0.28909 0.0
H75 H 0.80647 0.64382 0.26821 0.0
H76 H 0.18938 0.99365 0.47208 0.0
C77 C 0.16594 0.99686 0.4575 0.0
C78 C 0.16783 0.02335 0.43977 0.0
C79 C 0.13471 0.97346 0.45549 0.0
H80 H 0.13943 0.04688 0.406 0.0
C81 C 0.13797 0.02641 0.41972 0.0
C82 C 0.10604 1.00369 0.41793 0.0
C83 C 0.10461 0.97731 0.43614 0.0
C84 C 0.13577 0.94266 0.47025 0.0
H85 H 0.08074 0.95877 0.43408 0.0
C86 C 0.1141 0.93604 0.49491 0.0
C87 C 0.11763 0.90742 0.50967 0.0
C88 C 0.1602 0.92017 0.45999 0.0
H89 H 0.17702 0.92479 0.44106 0.0
C90 C 0.16311 0.89153 0.47388 0.0
H91 H 0.09557 0.95361 0.50318 0.0
C92 C 0.14211 0.88517 0.4985 0.0
H93 H 0.14482 0.86249 0.5086 0.0
H94 H 0.18183 0.87421 0.4656 0.0
H95 H 0.30233 0.66352 0.75008 0.0
C96 C 0.3005 0.67999 0.77276 0.0
C97 C 0.31603 0.67204 0.80079 0.0
C98 C 0.28216 0.70869 0.77366 0.0
H99 H 0.32506 0.68759 0.85185 0.0
C100 C 0.3129 0.69339 0.83013 0.0
C101 C 0.29508 0.7226 0.83169 0.0
C102 C 0.27924 0.72965 0.80324 0.0
C103 C 0.26838 0.71782 0.74326 0.0
H104 H 0.26639 0.75248 0.80385 0.0
C105 C 0.23385 0.7274 0.73944 0.0
C106 C 0.22124 0.73552 0.71019 0.0
C107 C 0.29021 0.71683 0.71765 0.0
H108 H 0.31703 0.71008 0.72001 0.0
C109 C 0.27791 0.72482 0.68879 0.0
H110 H 0.21687 0.72839 0.75908 0.0
C111 C 0.24372 0.73395 0.68497 0.0
H112 H 0.23471 0.73934 0.66201 0.0
H113 H 0.29494 0.7238 0.66921 0.0
H114 H 0.93976 0.65237 0.47758 0.0
C115 C 0.92794 0.62805 0.4828 0.0
C116 C 0.92168 0.62515 0.51433 0.0
C117 C 0.9204 0.59958 0.45815 0.0
H118 H 0.90201 0.59112 0.5455 0.0
C119 C 0.90718 0.59343 0.52119 0.0
C120 C 0.89806 0.56504 0.49632 0.0
C121 C 0.90519 0.56817 0.46494 0.0
C122 C 0.92969 0.60274 0.4256 0.0
H123 H 0.89893 0.54616 0.44581 0.0
C124 C 0.95408 0.58271 0.41066 0.0
C125 C 0.96579 0.58795 0.381 0.0
C126 C 0.91628 0.6275 0.41035 0.0
H127 H 0.89758 0.64327 0.4216 0.0
C128 C 0.92706 0.63217 0.38051 0.0
H129 H 0.96515 0.56421 0.42284 0.0
C130 C 0.9518 0.61269 0.36595 0.0
H131 H 0.95996 0.61692 0.34288 0.0
H132 H 0.91652 0.6512 0.36879 0.0
H133 H 0.87151 0.86225 0.80279 0.0
C134 C 0.87773 0.84392 0.8175 0.0
C135 C 0.90454 0.82294 0.8097 0.0
C136 C 0.85894 0.84189 0.84469 0.0
H137 H 0.93263 0.78365 0.82493 0.0
C138 C 0.91138 0.79921 0.82953 0.0
C139 C 0.89131 0.79545 0.85574 0.0
C140 C 0.86548 0.81728 0.8633 0.0
C141 C 0.83393 0.86673 0.855 0.0
H142 H 0.84974 0.81477 0.8834 0.0
C143 C 0.8069 0.87357 0.83362 0.0
C144 C 0.78439 0.89807 0.84405 0.0
C145 C 0.83778 0.8844 0.88676 0.0
H146 H 0.85849 0.87982 0.90358 0.0
C147 C 0.8155 0.90867 0.897 0.0
H148 H 0.80348 0.86005 0.80911 0.0
C149 C 0.78906 0.91561 0.87578 0.0
H150 H 0.77199 0.93456 0.88421 0.0
H151 H 0.81884 0.92226 0.92145 0.0
H152 H 0.36808 0.37142 0.30668 0.0
C153 C 0.37313 0.35309 0.32177 0.0
C154 C 0.3955 0.32808 0.31245 0.0
C155 C 0.35764 0.35528 0.35097 0.0
H156 H 0.41645 0.28399 0.32503 0.0
C157 C 0.40009 0.30378 0.33224 0.0
C158 C 0.38365 0.3047 0.36118 0.0
C159 C 0.36344 0.33147 0.37066 0.0
C160 C 0.33671 0.38351 0.36176 0.0
H161 H 0.35188 0.33396 0.39343 0.0
C162 C 0.30776 0.39 0.34228 0.0
C163 C 0.28873 0.41744 0.35271 0.0
C164 C 0.34614 0.40448 0.39178 0.0
H165 H 0.36837 0.40007 0.40709 0.0
C166 C 0.32741 0.43171 0.40209 0.0
H167 H 0.30016 0.37387 0.31915 0.0
C168 C 0.29899 0.43827 0.38269 0.0
H169 H 0.28466 0.45941 0.39132 0.0
H170 H 0.33499 0.44783 0.4252 0.0
H171 H 0.49216 0.92265 0.57868 0.0
C172 C 0.48765 0.94603 0.57037 0.0
C173 C 0.5011 0.97803 0.58895 0.0
C174 C 0.46836 0.94358 0.54105 0.0
H175 H 0.50669 0.03294 0.59075 0.0
C176 C 0.49621 0.00804 0.57684 0.0
C177 C 0.47757 0.00564 0.54661 0.0
C178 C 0.46323 0.97318 0.52927 0.0
C179 C 0.45502 0.90971 0.52208 0.0
H180 H 0.44813 0.97081 0.50638 0.0
C181 C 0.47931 0.88962 0.50742 0.0
C182 C 0.46722 0.85737 0.48872 0.0
C183 C 0.4184 0.89735 0.51871 0.0
H184 H 0.39939 0.9127 0.53003 0.0
C185 C 0.40624 0.86488 0.5009 0.0
H186 H 0.5076 0.89944 0.5102 0.0
C187 C 0.43044 0.84496 0.48588 0.0
H188 H 0.42022 0.82038 0.47126 0.0
H189 H 0.37795 0.85531 0.49833 0.0
H190 H 0.32233 0.28421 0.76365 0.0
C191 C 0.32958 0.27295 0.74038 0.0
C192 C 0.349 0.29334 0.72156 0.0
C193 C 0.31983 0.2377 0.72963 0.0
H194 H 0.37241 0.29261 0.67629 0.0
C195 C 0.35694 0.2778 0.69097 0.0
C196 C 0.34617 0.24268 0.6796 0.0
C197 C 0.32786 0.22296 0.69921 0.0
C198 C 0.30122 0.21566 0.7498 0.0
H199 H 0.31896 0.19597 0.6905 0.0
C200 C 0.26936 0.22362 0.76284 0.0
C201 C 0.24941 0.20061 0.77889 0.0
C202 C 0.31409 0.1852 0.75418 0.0
H203 H 0.33869 0.17861 0.74446 0.0
C204 C 0.29516 0.1628 0.77083 0.0
H205 H 0.25977 0.24732 0.75963 0.0
C206 C 0.26288 0.17017 0.78281 0.0
H207 H 0.24811 0.15151 0.79439 0.0
H208 H 0.30515 0.13925 0.77386 0.0
H209 H 0.84634 0.24759 0.73207 0.0
C210 C 0.82974 0.22371 0.73274 0.0
C211 C 0.84402 0.19739 0.74564 0.0
C212 C 0.7934 0.21981 0.72167 0.0
H213 H 0.8309 0.1467 0.75694 0.0
C214 C 0.82129 0.16688 0.74622 0.0
C215 C 0.78558 0.16237 0.73368 0.0
C216 C 0.77184 0.18877 0.72152 0.0
C217 C 0.77642 0.24847 0.71239 0.0
H218 H 0.74382 0.18552 0.71281 0.0
C219 C 0.78737 0.26365 0.68658 0.0
C220 C 0.76745 0.28739 0.67502 0.0
C221 C 0.74666 0.25848 0.72788 0.0
H222 H 0.73786 0.24717 0.7479 0.0
C223 C 0.72745 0.28248 0.71729 0.0
H224 H 0.81069 0.25609 0.67515 0.0
C225 C 0.7373 0.29641 0.69083 0.0
H226 H 0.72048 0.31357 0.6824 0.0
H227 H 0.70421 0.28963 0.72912 0.0
H228 H 0.61432 0.51747 0.53084 0.0
C229 C 0.59626 0.514 0.5492 0.0
C230 C 0.5974 0.48613 0.56521 0.0
C231 C 0.57453 0.53929 0.55869 0.0
H232 H 0.57612 0.46239 0.60335 0.0
C233 C 0.57548 0.48362 0.59073 0.0
C234 C 0.55269 0.50841 0.59999 0.0
C235 C 0.55264 0.53618 0.58376 0.0
C236 C 0.58023 0.57214 0.54705 0.0
H237 H 0.53682 0.55641 0.59167 0.0
C238 C 0.56628 0.57588 0.51658 0.0
C239 C 0.57388 0.60744 0.5062 0.0
C240 C 0.60129 0.60002 0.56686 0.0
H241 H 0.61228 0.59755 0.59028 0.0
C242 C 0.60887 0.63109 0.55652 0.0
H243 H 0.54991 0.55453 0.50115 0.0
C244 C 0.59541 0.63478 0.52637 0.0
H245 H 0.60146 0.65922 0.51884 0.0
H246 H 0.6253 0.65239 0.57192 0.0
H247 H 0.69274 0.4956 0.98297 0.0
C248 C 0.66904 0.49774 0.96818 0.0
C249 C 0.67014 0.52333 0.94945 0.0
C250 C 0.63842 0.4736 0.96664 0.0
H251 H 0.64093 0.54471 0.91459 0.0
C252 C 0.64002 0.52495 0.92911 0.0
C253 C 0.60872 0.50152 0.9277 0.0
C254 C 0.60807 0.47598 0.94684 0.0
C255 C 0.64059 0.44343 0.98224 0.0
H256 H 0.58473 0.45686 0.94504 0.0
C257 C 0.61742 0.43543 0.00546 0.0
C258 C 0.62164 0.40733 0.02083 0.0
C259 C 0.66728 0.42276 0.97401 0.0
H260 H 0.68523 0.42831 0.95612 0.0
C261 C 0.67099 0.39465 0.98848 0.0
H262 H 0.59709 0.45158 0.01216 0.0
C263 C 0.64845 0.38695 0.01166 0.0
H264 H 0.6518 0.36463 0.02213 0.0
H265 H 0.69146 0.37873 0.98172 0.0
H266 H 0.80247 0.17463 0.24708 0.0
C267 C 0.79898 0.18971 0.27007 0.0
C268 C 0.81208 0.17997 0.29816 0.0
C269 C 0.78124 0.21876 0.27122 0.0
H270 H 0.81792 0.19322 0.34956 0.0
C271 C 0.80735 0.20015 0.32775 0.0
C272 C 0.79024 0.22984 0.32949 0.0
C273 C 0.77652 0.23844 0.30094 0.0
C274 C 0.77133 0.23031 0.24107 0.0
H275 H 0.76428 0.26163 0.30163 0.0
C276 C 0.73577 0.23456 0.23228 0.0
C277 C 0.72697 0.24374 0.20253 0.0
C278 C 0.79804 0.23631 0.22042 0.0
H279 H 0.82555 0.23341 0.2268 0.0
C280 C 0.78964 0.24631 0.19149 0.0
H281 H 0.71497 0.22948 0.24792 0.0
C282 C 0.75444 0.24991 0.18252 0.0
H283 H 0.74871 0.25769 0.15987 0.0
H284 H 0.81049 0.25109 0.17585 0.0
H285 H 0.44749 0.14817 0.98244 0.0
C286 C 0.43681 0.12322 0.98705 0.0
C287 C 0.42744 0.11992 0.01775 0.0
C288 C 0.43386 0.09455 0.96259 0.0
H289 H 0.40645 0.08496 0.04756 0.0
C290 C 0.41402 0.08759 0.0239 0.0
C291 C 0.41048 0.05866 0.99941 0.0
C292 C 0.42103 0.06223 0.96899 0.0
C293 C 0.44452 0.09872 0.93053 0.0
H294 H 0.41825 0.03999 0.95004 0.0
C295 C 0.46826 0.07818 0.91514 0.0
C296 C 0.48042 0.08392 0.88575 0.0
C297 C 0.43226 0.12447 0.91586 0.0
H298 H 0.41379 0.14047 0.9272 0.0
C299 C 0.44369 0.12979 0.88642 0.0
H300 H 0.47836 0.0587 0.92662 0.0
C301 C 0.46776 0.10981 0.87148 0.0
H302 H 0.47629 0.11443 0.84864 0.0
H303 H 0.43403 0.14962 0.87523 0.0
Zn304 Zn 0.34429 0.85166 0.01244 0.0
Zn305 Zn 0.27833 0.87084 0.00574 0.0
O306 O 0.2814 0.85021 0.04706 0.0
O307 O 0.33422 0.83282 0.05228 0.0
O308 O 0.22989 0.88975 0.00842 0.0
O309 O 0.36731 0.90029 0.01431 0.0
O310 O 0.31353 0.91512 0.00742 0.0
C311 C 0.30385 0.83634 0.06234 0.0
C312 C 0.30306 0.81776 0.95291 0.0
O313 O 0.27809 0.83488 0.96288 0.0
O314 O 0.33242 0.82112 0.96985 0.0
C315 C 0.22552 0.90686 0.03577 0.0
O316 O 0.25135 0.9106 0.05864 0.0
C317 C 0.34747 0.92296 0.01105 0.0
Zn318 Zn 0.08692 0.45082 0.27407 0.0
Zn319 Zn 0.12599 0.51071 0.26862 0.0
O320 O 0.09179 0.52697 0.30111 0.0
O321 O 0.06088 0.4788 0.30804 0.0
O322 O 0.15762 0.55286 0.26372 0.0
O323 O 0.13278 0.43154 0.28641 0.0
O324 O 0.16217 0.48158 0.28339 0.0
C325 C 0.06724 0.51123 0.31441 0.0
C326 C 0.07679 0.47097 0.21187 0.0
O327 O 0.10016 0.49608 0.2243 0.0
O328 O 0.06725 0.44773 0.22767 0.0
C329 C 0.18323 0.56687 0.28423 0.0
O330 O 0.18812 0.55449 0.31051 0.0
C331 C 0.16203 0.45152 0.28938 0.0
Zn332 Zn 0.88068 0.61179 0.92936 0.0
Zn333 Zn 0.8723 0.65314 0.98459 0.0
O334 O 0.90985 0.62342 0.99711 0.0
O335 O 0.91761 0.58955 0.95248 0.0
O336 O 0.86838 0.68476 0.02627 0.0
O337 O 0.89428 0.65298 0.90878 0.0
O338 O 0.88485 0.68625 0.95335 0.0
C339 C 0.92464 0.59911 0.98234 0.0
C340 C 0.80895 0.6022 0.95068 0.0
O341 O 0.8224 0.62507 0.9744 0.0
O342 O 0.82788 0.59272 0.92808 0.0
C343 C 0.8695 0.67218 0.05165 0.0
O344 O 0.87183 0.63941 0.04949 0.0
C345 C 0.89281 0.68264 0.92441 0.0
Zn346 Zn 0.90554 1.00155 0.31811 0.0
Zn347 Zn 0.9417 0.01155 0.26879 0.0
O348 O 0.90997 0.05226 0.27519 0.0
O349 O 0.87887 0.0412 0.31509 0.0
O350 O 0.9703 0.01742 0.22971 0.0
O351 O 0.95027 0.00771 0.34706 0.0
O352 O 0.98158 0.0135 0.30598 0.0
C353 C 0.88629 0.05982 0.29461 0.0
C354 C 0.89314 0.9429 0.26928 0.0
O355 O 0.91313 0.96238 0.2549 0.0
O356 O 0.88547 0.95373 0.29734 0.0
C357 C 0.98121 0.99173 0.21277 0.0
O358 O 0.97418 0.9615 0.22075 0.0
C359 C 0.98028 0.01159 0.33555 0.0
Zn360 Zn 0.37982 0.11949 0.42974 0.0
Zn361 Zn 0.3664 0.1562 0.48592 0.0
O362 O 0.40597 0.12838 0.49788 0.0
O363 O 0.41664 0.09697 0.45284 0.0
O364 O 0.36044 0.18497 0.52839 0.0
O365 O 0.39389 0.16346 0.41278 0.0
O366 O 0.37601 0.19169 0.4567 0.0
C367 C 0.42249 0.10554 0.48291 0.0
C368 C 0.3066 0.10475 0.44831 0.0
O369 O 0.31838 0.12603 0.47363 0.0
O370 O 0.32676 0.0985 0.42584 0.0
C371 C 0.361 0.17056 0.55269 0.0
O372 O 0.36352 0.13769 0.54873 0.0
C373 C 0.38738 0.19124 0.42912 0.0
Zn374 Zn 0.41036 0.49499 0.82276 0.0
Zn375 Zn 0.44743 0.50478 0.77424 0.0
O376 O 0.41558 0.54545 0.77914 0.0
O377 O 0.38413 0.5346 0.81891 0.0
O378 O 0.47798 0.50924 0.73615 0.0
O379 O 0.45377 0.50108 0.85309 0.0
O380 O 0.48607 0.50719 0.81269 0.0
C381 C 0.39167 0.55304 0.79831 0.0
C382 C 0.39861 0.43632 0.77412 0.0
O383 O 0.41914 0.4556 0.75994 0.0
O384 O 0.39044 0.44731 0.80197 0.0
C385 C 0.46444 0.50762 0.70772 0.0
O386 O 0.42947 0.50492 0.70256 0.0
C387 C 0.48409 0.50523 0.8422 0.0
Zn388 Zn 0.83664 0.35946 0.51068 0.0
Zn389 Zn 0.76921 0.37462 0.5044 0.0
O390 O 0.77454 0.35338 0.54539 0.0
O391 O 0.82834 0.3377 0.54897 0.0
O392 O 0.71991 0.39188 0.50817 0.0
O393 O 0.85712 0.40931 0.51575 0.0
O394 O 0.80235 0.41992 0.50482 0.0
C395 C 0.79805 0.33972 0.55965 0.0
C396 C 0.79575 0.3244 0.45084 0.0
O397 O 0.76946 0.33909 0.46156 0.0
O398 O 0.8258 0.33017 0.46705 0.0
C399 C 0.71449 0.40724 0.53597 0.0
O400 O 0.73971 0.41012 0.55922 0.0
C401 C 0.83582 0.43016 0.51052 0.0
Zn402 Zn 0.58877 0.94435 0.76805 0.0
Zn403 Zn 0.63131 1.00318 0.76499 0.0
O404 O 0.59951 0.01931 0.79964 0.0
O405 O 0.56577 0.97185 0.80458 0.0
O406 O 0.66651 0.04426 0.76348 0.0
O407 O 0.6328 0.92093 0.77735 0.0
O408 O 0.66501 0.97012 0.77608 0.0
C409 C 0.57457 0.00396 0.81281 0.0
C410 C 0.57848 0.9701 0.70831 0.0
O411 O 0.60345 0.99354 0.72123 0.0
O412 O 0.56828 0.94588 0.72277 0.0
C413 C 0.6831 0.04525 0.73856 0.0
O414 O 0.67573 0.02001 0.71404 0.0
C415 C 0.66307 0.93928 0.78025 0.0
Zn416 Zn 0.05353 0.26304 0.83431 0.0
Zn417 Zn 0.04403 0.20476 0.85642 0.0
O418 O 0.09352 0.20765 0.83755 0.0
O419 O 0.09885 0.25332 0.81503 0.0
O420 O 0.04568 0.16423 0.87935 0.0
O421 O 0.05362 0.29135 0.87795 0.0
O422 O 0.03676 0.24269 0.89346 0.0
C423 C 0.11113 0.22713 0.82152 0.0
C424 C 0.98771 0.21819 0.80837 0.0
O425 O 0.99943 0.19638 0.8236 0.0
O426 O 1.00569 0.24735 0.80975 0.0
C427 C 0.02412 0.1571 0.89982 0.0
O428 O 0.99628 0.17367 0.90359 0.0
C429 C 0.04212 0.27527 0.89916 0.0
Zn430 Zn 0.55683 0.76908 0.33296 0.0
Zn431 Zn 0.547 0.71108 0.35536 0.0
O432 O 0.59598 0.71303 0.33537 0.0
O433 O 0.60158 0.75888 0.31309 0.0
O434 O 0.54843 0.67073 0.37857 0.0
O435 O 0.55765 0.79781 0.37654 0.0
O436 O 0.54088 0.74936 0.39243 0.0
C437 C 0.6135 0.73234 0.31913 0.0
C438 C 0.49014 0.72507 0.3081 0.0
O439 O 0.50162 0.7033 0.32352 0.0
O440 O 0.50876 0.75379 0.30879 0.0
C441 C 0.52639 0.66311 0.39852 0.0
O442 O 0.49812 0.67914 0.40171 0.0
C443 C 0.54645 0.78193 0.39798 0.0
Zn444 Zn 0.96842 0.8256 0.62522 0.0
Zn445 Zn 0.02654 0.7991 0.64496 0.0
O446 O 0.04408 0.83593 0.61854 0.0
O447 O 0.99756 0.85814 0.60195 0.0
O448 O 0.07363 0.78599 0.66095 0.0
O449 O 0.95684 0.83912 0.67136 0.0
O450 O 1.00059 0.81172 0.68555 0.0
C451 C 0.03085 0.85647 0.60277 0.0
C452 C 0.96901 0.75183 0.6011 0.0
O453 O 0.99953 0.75602 0.61675 0.0
O454 O 0.95129 0.77685 0.60133 0.0
C455 C 0.07802 0.76606 0.68068 0.0
O456 O 0.04994 0.75126 0.69219 0.0
C457 C 0.97416 0.82771 0.69261 0.0
Zn458 Zn 0.46412 0.32113 0.12728 0.0
Zn459 Zn 0.52134 0.29577 0.15106 0.0
O460 O 0.54162 0.33237 0.12526 0.0
O461 O 0.4957 0.35316 0.1054 0.0
O462 O 0.56634 0.28205 0.17107 0.0
O463 O 0.44924 0.33549 0.17216 0.0
O464 O 0.49235 0.30915 0.18953 0.0
C465 C 0.52911 0.35226 0.10828 0.0
C466 C 0.46607 0.24761 0.10486 0.0
O467 O 0.49563 0.25248 0.12209 0.0
O468 O 0.44815 0.27223 0.10349 0.0
C469 C 0.58613 0.26428 0.1539 0.0
O470 O 0.57641 0.25427 0.12329 0.0
C471 C 0.46536 0.32491 0.19464 0.0
C472 C 0.32731 0.75459 0.88318 0.0
C473 C 0.29584 0.74704 0.86264 0.0
H474 H 0.3541 0.78218 0.92688 0.0
C475 C 0.2661 0.76353 0.87178 0.0
H476 H 0.35109 0.74328 0.87675 0.0
C477 C 0.26787 0.7866 0.90101 0.0
C478 C 0.29947 0.79371 0.92159 0.0
H479 H 0.24136 0.75831 0.85654 0.0
H480 H 0.24459 0.79872 0.9075 0.0
C481 C 0.32907 0.77735 0.91205 0.0
C482 C 0.02187 0.58524 0.35278 0.0
C483 C 0.99325 0.5684 0.3661 0.0
H484 H 0.06804 0.58057 0.32664 0.0
C485 C 0.9908 0.53284 0.36458 0.0
H486 H 0.02481 0.61273 0.35413 0.0
C487 C 0.01566 0.51431 0.34885 0.0
C488 C 0.04361 0.53104 0.33455 0.0
H489 H 0.96899 0.5192 0.37463 0.0
H490 H 0.01238 0.48679 0.34717 0.0
C491 C 0.04683 0.56681 0.33729 0.0
C492 C 0.90077 0.7349 0.8584 0.0
C493 C 0.89596 0.76764 0.87427 0.0
H494 H 0.90396 0.68268 0.8617 0.0
C495 C 0.89325 0.77281 0.90749 0.0
H496 H 0.90256 0.72979 0.83282 0.0
C497 C 0.89367 0.74556 0.92411 0.0
C498 C 0.89697 0.71253 0.90793 0.0
H499 H 0.89018 0.79782 0.92062 0.0
H500 H 0.89044 0.75023 0.94948 0.0
C501 C 0.90137 0.70775 0.87501 0.0
C502 C 0.04008 0.0041 0.40797 0.0
C503 C 0.07431 0.00716 0.39684 0.0
H504 H 0.98407 1.00361 0.39776 0.0
C505 C 0.07778 0.01316 0.3655 0.0
H506 H 0.03651 0.99997 0.43209 0.0
C507 C 0.04749 0.01523 0.34554 0.0
C508 C 0.01316 0.01165 0.35663 0.0
H509 H 0.10383 0.01543 0.35616 0.0
H510 H 0.05093 0.01917 0.32136 0.0
C511 C 0.00999 0.00644 0.38823 0.0
C512 C 0.36399 0.19316 0.64252 0.0
C513 C 0.35346 0.22602 0.6472 0.0
H514 H 0.37435 0.14995 0.60915 0.0
C515 C 0.34739 0.24145 0.62052 0.0
H516 H 0.3696 0.18085 0.66263 0.0
C517 C 0.35042 0.22376 0.5897 0.0
C518 C 0.35942 0.1903 0.58508 0.0
H519 H 0.33902 0.26665 0.62337 0.0
H520 H 0.34482 0.23594 0.56951 0.0
C521 C 0.36674 0.17545 0.61184 0.0
C522 C 0.54429 0.5009 0.65697 0.0
C523 C 0.53001 0.50668 0.62743 0.0
H524 H 0.53521 0.4973 0.70563 0.0
C525 C 0.49411 0.51264 0.62468 0.0
H526 H 0.57193 0.49658 0.66001 0.0
C527 C 0.47306 0.51286 0.65066 0.0
C528 C 0.48739 0.50764 0.68037 0.0
H529 H 0.48221 0.51707 0.60228 0.0
H530 H 0.44552 0.51746 0.64747 0.0
C531 C 0.52332 0.50164 0.6832 0.0
C532 C 0.79292 0.28221 0.62115 0.0
C533 C 0.77661 0.30143 0.64574 0.0
H534 H 0.8129 0.2796 0.5749 0.0
C535 C 0.76778 0.33369 0.64143 0.0
H536 H 0.79945 0.25699 0.62286 0.0
C537 C 0.77391 0.34573 0.61311 0.0
C538 C 0.79031 0.32649 0.58896 0.0
H539 H 0.75625 0.34994 0.65993 0.0
H540 H 0.76661 0.37049 0.61041 0.0
C541 C 0.80025 0.2949 0.59335 0.0
C542 C 0.55282 0.99958 0.63078 0.0
C543 C 0.52 0.97877 0.62074 0.0
H544 H 0.5975 0.01286 0.6662 0.0
C545 C 0.50648 0.95587 0.64011 0.0
H546 H 0.56406 0.01728 0.61628 0.0
C547 C 0.52585 0.9527 0.66804 0.0
C548 C 0.55906 0.9728 0.67779 0.0
H549 H 0.48092 0.93993 0.63343 0.0
H550 H 0.51452 0.93462 0.68213 0.0
C551 C 0.57214 0.99669 0.65912 0.0
C552 C 0.89776 0.23501 0.77598 0.0
C553 C 0.88166 0.20238 0.76043 0.0
H554 H 0.94358 0.26528 0.80285 0.0
C555 C 0.9013 0.17452 0.76056 0.0
H556 H 0.88351 0.25701 0.77744 0.0
C557 C 0.93568 0.17917 0.77639 0.0
C558 C 0.9515 0.21191 0.79156 0.0
H559 H 0.89026 0.14904 0.74839 0.0
H560 H 0.95003 0.15734 0.77633 0.0
C561 C 0.93227 0.23973 0.79094 0.0
C562 C 0.48975 0.80237 0.46659 0.0
C563 C 0.49245 0.83814 0.47005 0.0
H564 H 0.50576 0.75634 0.4416 0.0
C565 C 0.51766 0.85539 0.45342 0.0
H566 H 0.47104 0.78847 0.47959 0.0
C567 C 0.53773 0.83711 0.4319 0.0
C568 C 0.53295 0.80117 0.42649 0.0
H569 H 0.5203 0.88295 0.45546 0.0
H570 H 0.55533 0.85109 0.41805 0.0
C571 C 0.50996 0.78403 0.4451 0.0
C572 C 0.2019 0.19644 0.81779 0.0
C573 C 0.21393 0.2075 0.79016 0.0
H574 H 0.15968 0.19344 0.84908 0.0
C575 C 0.19131 0.22452 0.77285 0.0
H576 H 0.21868 0.18376 0.83211 0.0
C577 C 0.15802 0.23085 0.78315 0.0
C578 C 0.14606 0.21959 0.81055 0.0
H579 H 0.19897 0.23261 0.75099 0.0
H580 H 0.14136 0.24417 0.76934 0.0
C581 C 0.16814 0.20207 0.82766 0.0
C582 C 0.58284 0.61994 0.45173 0.0
C583 C 0.55936 0.61328 0.47487 0.0
H584 H 0.59065 0.64007 0.40896 0.0
C585 C 0.52359 0.61886 0.47046 0.0
H586 H 0.61067 0.61621 0.45489 0.0
C587 C 0.51214 0.63313 0.44442 0.0
C588 C 0.53623 0.64184 0.42224 0.0
H589 H 0.50517 0.61439 0.48828 0.0
H590 H 0.48491 0.63892 0.44261 0.0
C591 C 0.57133 0.63374 0.42551 0.0
C592 C 0.92991 0.85586 0.76831 0.0
C593 C 0.92485 0.82527 0.78075 0.0
H594 H 0.94899 0.88052 0.73042 0.0
C595 C 0.93869 0.79649 0.76462 0.0
H596 H 0.92083 0.879 0.78018 0.0
C597 C 0.95662 0.79817 0.73711 0.0
C598 C 0.96008 0.82819 0.72419 0.0
H599 H 0.93477 0.77209 0.77241 0.0
H600 H 0.96614 0.77532 0.72496 0.0
C601 C 0.94663 0.85705 0.74 0.0
C602 C 0.05917 0.90217 0.53538 0.0
C603 C 0.09604 0.89986 0.53641 0.0
H604 H 0.00959 0.89054 0.55571 0.0
C605 C 0.11178 0.88721 0.56195 0.0
H606 H 0.04618 0.91172 0.51605 0.0
C607 C 0.09086 0.87482 0.58448 0.0
C608 C 0.05364 0.87502 0.58229 0.0
H609 H 0.14026 0.88585 0.56397 0.0
H610 H 0.10376 0.86394 0.60296 0.0
C611 C 0.0382 0.88992 0.55811 0.0
C612 C 0.17913 0.77092 0.68763 0.0
C613 C 0.18465 0.74506 0.70521 0.0
H614 H 0.14152 0.7977 0.66613 0.0
C615 C 0.15477 0.72725 0.71612 0.0
H616 H 0.20155 0.78564 0.67938 0.0
C617 C 0.12012 0.73438 0.70867 0.0
C618 C 0.11465 0.75943 0.69011 0.0
H619 H 0.15801 0.70701 0.7295 0.0
H620 H 0.09762 0.71973 0.71687 0.0
C621 C 0.14464 0.77792 0.6801 0.0
C622 C 0.91435 0.6851 0.53716 0.0
C623 C 0.93052 0.65583 0.53954 0.0
H624 H 0.91351 0.73819 0.55497 0.0
C625 C 0.95792 0.6575 0.56368 0.0
H626 H 0.89326 0.68433 0.51857 0.0
C627 C 0.97009 0.68855 0.58428 0.0
C628 C 0.95466 0.71822 0.58125 0.0
H629 H 0.97095 0.63522 0.56566 0.0
H630 H 0.99202 0.68947 0.6021 0.0
C631 C 0.92605 0.71589 0.55797 0.0
C632 C 0.86697 0.84771 0.26257 0.0
C633 C 0.85966 0.83623 0.22946 0.0
H634 H 0.88248 0.89001 0.30074 0.0
C635 C 0.86389 0.86063 0.20921 0.0
H636 H 0.86548 0.82998 0.27908 0.0
C637 C 0.87513 0.89537 0.22183 0.0
C638 C 0.88142 0.90653 0.25496 0.0
H639 H 0.85819 0.85308 0.18363 0.0
H640 H 0.87827 0.91353 0.20576 0.0
C641 C 0.87712 0.88232 0.27511 0.0
C642 C 0.85583 0.14163 0.27364 0.0
C643 C 0.83117 0.14912 0.29661 0.0
H644 H 0.89275 0.10787 0.25488 0.0
C645 C 0.82478 0.12678 0.31827 0.0
H646 H 0.86171 0.15845 0.25674 0.0
C647 C 0.84251 0.09799 0.3172 0.0
C648 C 0.86738 0.09049 0.29448 0.0
H649 H 0.80567 0.13132 0.33595 0.0
H650 H 0.83663 0.08157 0.33445 0.0
C651 C 0.87378 0.1127 0.27263 0.0
C652 C 0.36022 0.01907 0.01421 0.0
C653 C 0.39524 0.02461 0.00504 0.0
H654 H 0.31728 0.98228 0.02284 0.0
C655 C 0.41482 0.99692 0.9991 0.0
H656 H 0.34458 0.04009 0.01866 0.0
C657 C 0.39955 0.96412 1.00195 0.0
C658 C 0.36407 0.95821 0.0101 0.0
H659 H 0.44185 1.00066 0.99194 0.0
H660 H 0.41522 0.9432 0.99686 0.0
C661 C 0.3446 0.98604 0.01639 0.0
C662 C 0.2286 0.39931 0.32192 0.0
C663 C 0.25794 0.42466 0.3329 0.0
H664 H 0.17494 0.38787 0.2997 0.0
C665 C 0.25649 0.45796 0.32718 0.0
H666 H 0.22903 0.37346 0.3262 0.0
C667 C 0.2259 0.46615 0.31182 0.0
C668 C 0.19572 0.44133 0.30222 0.0
H669 H 0.27885 0.47791 0.33523 0.0
H670 H 0.22552 0.49234 0.30854 0.0
C671 C 0.19763 0.40762 0.30691 0.0
C672 C 0.21845 0.06366 0.47129 0.0
C673 C 0.20175 0.04676 0.44152 0.0
H674 H 0.26438 0.0957 0.49671 0.0
C675 C 0.21887 0.05046 0.41376 0.0
H676 H 0.2057 0.06121 0.49302 0.0
C677 C 0.25277 0.0697 0.41586 0.0
C678 C 0.26983 0.08612 0.44572 0.0
H679 H 0.20661 0.03745 0.39056 0.0
H680 H 0.26577 0.07142 0.39413 0.0
C681 C 0.25197 0.08343 0.47335 0.0
C682 C 0.7446 0.11069 0.70656 0.0
C683 C 0.76154 0.13091 0.73487 0.0
H684 H 0.70664 0.06722 0.68557 0.0
C685 C 0.75335 0.12242 0.76438 0.0
H686 H 0.75055 0.11707 0.68359 0.0
C687 C 0.72775 0.0945 0.7656 0.0
C688 C 0.71052 0.07434 0.73728 0.0
H689 H 0.76598 0.13799 0.78645 0.0
H690 H 0.72143 0.0887 0.78868 0.0
C691 C 0.71957 0.08234 0.70774 0.0
C692 C 0.47609 0.03608 0.50011 0.0
C693 C 0.47146 0.03624 0.53262 0.0
H694 H 0.4647 0.05806 0.45899 0.0
C695 C 0.456 0.06311 0.54984 0.0
H696 H 0.48846 0.01598 0.48633 0.0
C697 C 0.44246 0.08749 0.53414 0.0
C698 C 0.44408 0.08533 0.50092 0.0
H699 H 0.45204 0.06386 0.57488 0.0
H700 H 0.42864 0.1066 0.54766 0.0
C701 C 0.4625 0.06026 0.48444 0.0
C702 C 0.64556 0.45282 0.58157 0.0
C703 C 0.62425 0.46202 0.55716 0.0
H704 H 0.69038 0.42847 0.594 0.0
C705 C 0.63111 0.45051 0.52521 0.0
H706 H 0.64143 0.46145 0.6064 0.0
C707 C 0.65936 0.43138 0.51799 0.0
C708 C 0.68169 0.42368 0.54257 0.0
H709 H 0.61504 0.4569 0.50577 0.0
H710 H 0.66452 0.42378 0.49326 0.0
C711 C 0.67392 0.43408 0.57439 0.0
C712 C 0.82081 0.26017 0.38227 0.0
C713 C 0.7901 0.25348 0.36079 0.0
H714 H 0.84651 0.28714 0.42669 0.0
C715 C 0.76045 0.27047 0.36916 0.0
H716 H 0.84448 0.24837 0.37652 0.0
C717 C 0.76164 0.29337 0.39842 0.0
C718 C 0.79262 0.29997 0.41976 0.0
H719 H 0.73629 0.2659 0.35318 0.0
H720 H 0.73849 0.30601 0.4042 0.0
C721 C 0.82204 0.28289 0.41114 0.0
C722 C 0.50169 0.02752 0.86656 0.0
C723 C 0.50658 0.06335 0.86998 0.0
H724 H 0.51947 0.98047 0.84586 0.0
C725 C 0.53596 0.0795 0.85708 0.0
H726 H 0.47923 0.01442 0.87627 0.0
C727 C 0.55911 0.06019 0.83992 0.0
C728 C 0.55324 0.02424 0.83503 0.0
H729 H 0.54073 0.10714 0.85986 0.0
H730 H 0.58087 0.0735 0.82953 0.0
C731 C 0.52472 0.00811 0.84913 0.0
C732 C 0.35857 0.26806 0.39959 0.0
C733 C 0.38648 0.27725 0.38087 0.0
H734 H 0.3377 0.23451 0.43015 0.0
C735 C 0.4161 0.25882 0.38017 0.0
H736 H 0.33475 0.28057 0.40038 0.0
C737 C 0.4168 0.23115 0.39624 0.0
C738 C 0.3887 0.22216 0.4145 0.0
H739 H 0.43878 0.26539 0.36706 0.0
H740 H 0.43931 0.21677 0.39438 0.0
C741 C 0.36001 0.24132 0.41661 0.0
C742 C 0.58114 0.50885 0.87428 0.0
C743 C 0.57711 0.50325 0.90569 0.0
H744 H 0.5551 0.51384 0.82946 0.0
C745 C 0.54254 0.49931 0.91602 0.0
H746 H 0.60745 0.51169 0.86548 0.0
C747 C 0.51273 0.50068 0.89553 0.0
C748 C 0.51654 0.5058 0.86396 0.0
H749 H 0.53851 0.49541 0.94013 0.0
H750 H 0.48653 0.49734 0.90448 0.0
C751 C 0.55117 0.51 0.8536 0.0
C752 C 0.85256 0.74505 0.11632 0.0
C753 C 0.85888 0.73126 0.14397 0.0
H754 H 0.85085 0.73709 0.06516 0.0
C755 C 0.87149 0.69935 0.14101 0.0
H756 H 0.8427 0.76952 0.11787 0.0
C757 C 0.87562 0.68069 0.11104 0.0
C758 C 0.86764 0.6936 0.08326 0.0
H759 H 0.87732 0.68836 0.16192 0.0
H760 H 0.88453 0.65581 0.10968 0.0
C761 C 0.85699 0.72639 0.08618 0.0
C762 C 0.02708 0.96863 0.13633 0.0
C763 C 0.04122 1.00083 0.13018 0.0
H764 H 0.99731 0.94057 0.16679 0.0
C765 C 0.03514 0.03023 0.15162 0.0
H766 H 0.03056 0.94539 0.1203 0.0
C767 C 0.01542 0.02747 0.17817 0.0
C768 C 1.00157 0.99523 0.1843 0.0
H769 H 0.04611 0.05553 0.14829 0.0
H770 H 0.01147 0.05061 0.19414 0.0
C771 C 0.00772 0.96588 0.16301 0.0
C772 C 0.2711 0.83687 0.14419 0.0
C773 C 0.27831 0.80486 0.15071 0.0
H774 H 0.27249 0.87126 0.11078 0.0
C775 C 0.29465 0.7836 0.12762 0.0
H776 H 0.25973 0.85468 0.1615 0.0
C777 C 0.30343 0.79403 0.09907 0.0
C778 C 0.29495 0.82538 0.09245 0.0
H779 H 0.30009 0.75853 0.13111 0.0
H780 H 0.31601 0.7772 0.08177 0.0
C781 C 0.27865 0.84665 0.11516 0.0
C782 C 1.00619 0.45069 0.14225 0.0
C783 C 0.01887 0.47328 0.12226 0.0
H784 H 0.0148 0.43162 0.18543 0.0
C785 C 0.05106 0.49524 0.13201 0.0
H786 H 0.9811 0.43391 0.13586 0.0
C787 C 0.07034 0.49414 0.16086 0.0
C788 C 0.05793 0.4709 0.18038 0.0
H789 H 0.06172 0.51269 0.11706 0.0
H790 H 0.09503 0.51139 0.1678 0.0
C791 C 0.02559 0.44929 0.17071 0.0
C792 C 0.39892 0.68279 0.26865 0.0
C793 C 0.38124 0.7116 0.26666 0.0
H794 H 0.44706 0.66422 0.28376 0.0
C795 C 0.40067 0.74432 0.2769 0.0
H796 H 0.38529 0.6571 0.26038 0.0
C797 C 0.43623 0.7482 0.28917 0.0
C798 C 0.45337 0.71955 0.29235 0.0
H799 H 0.38817 0.7672 0.27667 0.0
H800 H 0.44988 0.77393 0.29741 0.0
C801 C 0.43445 0.68674 0.28181 0.0
C802 C 0.98583 0.2952 0.96826 0.0
C803 C 0.98845 0.33099 0.97194 0.0
H804 H 1.00172 0.24931 0.94282 0.0
C805 C 0.01323 0.34838 0.95502 0.0
H806 H 0.96745 0.28119 0.98145 0.0
C807 C 0.03308 0.33025 0.93319 0.0
C808 C 0.02848 0.29432 0.92769 0.0
H809 H 0.01579 0.37594 0.95716 0.0
H810 H 0.05043 0.34437 0.91926 0.0
C811 C 1.00578 0.27701 0.9464 0.0
C812 C 0.7037 0.70069 0.3134 0.0
C813 C 0.7151 0.7117 0.28553 0.0
H814 H 0.66232 0.69804 0.34558 0.0
C815 C 0.69215 0.72879 0.26864 0.0
H816 H 0.72074 0.68795 0.3274 0.0
C817 C 0.6592 0.73535 0.27963 0.0
C818 C 0.64792 0.72426 0.30732 0.0
H819 H 0.6993 0.73683 0.24663 0.0
H820 H 0.64231 0.7488 0.26616 0.0
C821 C 0.67026 0.70655 0.32396 0.0
C822 C 0.02308 0.11467 0.97282 0.0
C823 C 0.05853 0.10784 0.97605 0.0
H824 H 0.98413 0.13535 0.94588 0.0
C825 C 0.08104 0.11298 0.95183 0.0
H826 H 1.00547 0.11145 0.99153 0.0
C827 C 0.06893 0.12655 0.92564 0.0
C828 C 0.03423 0.13588 0.92349 0.0
H829 H 0.10868 0.1084 0.95414 0.0
H830 H 0.08758 0.1318 0.90822 0.0
C831 C 0.01102 0.12858 0.94679 0.0
C832 C 0.42409 0.35799 0.27058 0.0
C833 C 0.41425 0.32754 0.28233 0.0
H834 H 0.44743 0.38096 0.23331 0.0
C835 C 0.42278 0.29664 0.26506 0.0
H836 H 0.41907 0.38252 0.28332 0.0
C837 C 0.44084 0.29629 0.23738 0.0
C838 C 0.44966 0.32652 0.22554 0.0
H839 H 0.41496 0.2724 0.27232 0.0
H840 H 0.4467 0.27207 0.2245 0.0
C841 C 0.44091 0.35734 0.24214 0.0
C842 C 0.61264 0.3858 0.07223 0.0
C843 C 0.59825 0.39826 0.04597 0.0
H844 H 0.60235 0.36169 0.11245 0.0
C845 C 0.56114 0.39914 0.04274 0.0
H846 H 0.64121 0.38553 0.07601 0.0
C847 C 0.53883 0.38589 0.06406 0.0
C848 C 0.55309 0.37131 0.08901 0.0
H849 H 0.54909 0.40844 0.02282 0.0
H850 H 0.5102 0.3856 0.06001 0.0
C851 C 0.59037 0.37231 0.09333 0.0
C852 C 0.67644 0.23277 0.15967 0.0
C853 C 0.68943 0.24639 0.19147 0.0
H854 H 0.63394 0.22752 0.12307 0.0
C855 C 0.66707 0.26406 0.21162 0.0
H856 H 0.69272 0.21847 0.14367 0.0
C857 C 0.6331 0.26927 0.19975 0.0
C858 C 0.62077 0.25674 0.16755 0.0
H859 H 0.67635 0.27494 0.2362 0.0
H860 H 0.61688 0.28381 0.2156 0.0
C861 C 0.64262 0.23787 0.14788 0.0
C862 C 0.4166 0.17931 0.03914 0.0
C863 C 0.43311 0.15063 0.04312 0.0
H864 H 0.41373 0.23229 0.05579 0.0
C865 C 0.45864 0.15315 0.06898 0.0
H866 H 0.397 0.1779 0.01919 0.0
C867 C 0.46885 0.1845 0.08967 0.0
C868 C 0.45327 0.21363 0.08501 0.0
H869 H 0.47197 0.13137 0.0722 0.0
H870 H 0.48952 0.1861 0.1088 0.0
C871 C 0.42632 0.21042 0.06005 0.0
C872 C 0.37124 0.34138 0.76735 0.0
C873 C 0.36201 0.33031 0.73442 0.0
H874 H 0.38939 0.38324 0.80536 0.0
C875 C 0.3658 0.35483 0.71425 0.0
H876 H 0.37009 0.32347 0.7837 0.0
C877 C 0.37836 0.38932 0.72679 0.0
C878 C 0.38644 0.4001 0.75979 0.0
H879 H 0.35862 0.3476 0.68883 0.0
H880 H 0.38093 0.40764 0.71082 0.0
C881 C 0.38273 0.37577 0.77985 0.0
C882 C 0.3591 0.6333 0.77569 0.0
C883 C 0.33556 0.64154 0.79947 0.0
H884 H 0.39557 0.59919 0.75656 0.0
C885 C 0.33069 0.6203 0.82224 0.0
H886 H 0.36371 0.64929 0.75788 0.0
C887 C 0.34879 0.5918 0.82144 0.0
C888 C 0.37257 0.58354 0.79791 0.0
H889 H 0.31246 0.62545 0.84059 0.0
H890 H 0.34407 0.57624 0.83957 0.0
C891 C 0.37751 0.60469 0.77498 0.0
C892 C 0.84688 0.51783 0.48757 0.0
C893 C 0.88078 0.53198 0.50262 0.0
H894 H 0.80566 0.47472 0.47887 0.0
C895 C 0.8989 0.51341 0.52189 0.0
H896 H 0.83248 0.53182 0.4726 0.0
C897 C 0.88395 0.48051 0.52498 0.0
C898 C 0.85029 0.46596 0.5094 0.0
H899 H 0.92515 0.52386 0.53357 0.0
H900 H 0.89893 0.46627 0.53925 0.0
C901 C 0.83155 0.48527 0.49124 0.0
C902 C 0.75726 0.93934 0.81585 0.0
C903 C 0.75586 0.90612 0.82243 0.0
H904 H 0.72944 0.97559 0.79675 0.0
C905 C 0.72503 0.88248 0.81203 0.0
H906 H 0.78076 0.95799 0.8238 0.0
C907 C 0.69517 0.89263 0.79692 0.0
C908 C 0.69589 0.9265 0.79174 0.0
H909 H 0.72335 0.85679 0.81717 0.0
H910 H 0.67113 0.87437 0.79045 0.0
C911 C 0.72776 0.94935 0.80042 0.0
C912 C 0.72189 0.56451 0.97845 0.0
C913 C 0.70385 0.54659 0.94955 0.0
H914 H 0.76904 0.59683 1.00142 0.0
C915 C 0.71951 0.54901 0.92086 0.0
H916 H 0.71028 0.56306 1.00087 0.0
C917 C 0.75332 0.56779 0.92118 0.0
C918 C 0.77183 0.58507 0.95015 0.0
H919 H 0.70625 0.53522 0.8983 0.0
H920 H 0.76523 0.56833 0.89877 0.0
C921 C 0.7554 0.58389 0.97873 0.0
C922 C 0.22868 0.63277 0.24096 0.0
C923 C 0.25698 0.64909 0.26332 0.0
H924 H 0.18318 0.59429 0.23008 0.0
C925 C 0.26086 0.63825 0.29282 0.0
H926 H 0.22529 0.64025 0.21786 0.0
C927 C 0.23676 0.61166 0.29982 0.0
C928 C 0.20835 0.59551 0.27745 0.0
H929 H 0.28216 0.65066 0.31069 0.0
H930 H 0.24037 0.60385 0.32275 0.0
C931 C 0.2046 0.60635 0.24796 0.0
C932 C 0.97478 0.52762 1.00014 0.0
C933 C 0.97061 0.52883 0.03285 0.0
H934 H 0.96405 0.54913 0.95861 0.0
C935 C 0.95673 0.55687 0.04988 0.0
H936 H 0.98604 0.50664 0.9865 0.0
C937 C 0.94426 0.58151 0.03387 0.0
C938 C 0.9454 0.57844 1.00053 0.0
H939 H 0.95321 0.55849 0.07508 0.0
H940 H 0.93161 0.60161 0.04728 0.0
C941 C 0.96226 0.55206 0.98416 0.0
C942 C 0.1411 0.94883 0.02522 0.0
C943 C 0.13471 0.96076 0.0572 0.0
H944 H 0.17435 0.92195 0.99315 0.0
C945 C 0.15717 0.9529 0.08158 0.0
H946 H 0.12422 0.95431 0.00583 0.0
C947 C 0.18586 0.9347 0.07434 0.0
C948 C 0.19287 0.92349 0.04247 0.0
H949 H 0.15349 0.96199 0.10644 0.0
H950 H 0.203 0.92994 0.09391 0.0
C951 C 0.16971 0.93016 0.01793 0.0
loop_
_geom_bond_atom_site_label_1
_geom_bond_atom_site_label_2
_geom_bond_distance
_geom_bond_site_symmetry_2
_ccdc_geom_bond_type
H0 C1 0.949 . S
C1 H0 0.949 . S
C1 C2 1.368 1_545 S
C1 C3 1.391 . S
C2 C1 1.368 1_565 S
C2 C5 1.399 . S
C3 C1 1.391 . S
C3 C7 1.387 . S
C3 C8 1.491 . S
H4 C5 0.950 . S
C5 C2 1.399 . S
C5 H4 0.950 . S
C5 C6 1.378 1_565 S
C6 C5 1.378 1_545 S
C6 C7 1.409 . S
C7 C3 1.387 . S
C7 C6 1.409 . S
C7 H9 0.951 . S
C8 C3 1.491 . S
C8 C10 1.402 . S
C8 C12 1.404 . S
H9 C7 0.951 . S
C10 C8 1.402 . S
C10 C11 1.377 1_554 S
C10 H15 0.941 1_554 S
C11 C10 1.377 1_556 S
C11 C16 1.399 1_556 S
C12 C8 1.404 . S
C12 H13 0.950 . S
C12 C14 1.375 . S
H13 C12 0.950 . S
C14 C12 1.375 . S
C14 C16 1.382 . S
C14 H18 0.950 . S
H15 C10 0.941 1_556 S
C16 C11 1.399 1_554 S
C16 C14 1.382 . S
C16 H17 0.952 1_554 S
H17 C16 0.952 1_556 S
H18 C14 0.950 . S
H19 C20 0.949 . S
C20 H19 0.949 . S
C20 C21 1.395 . S
C20 C22 1.391 . S
C21 C20 1.395 . S
C21 C24 1.390 . S
C22 C20 1.391 . S
C22 C26 1.387 . S
C22 C27 1.491 . S
H23 C24 0.950 . S
C24 C21 1.390 . S
C24 H23 0.950 . S
C24 C25 1.378 . S
C25 C24 1.378 . S
C25 C26 1.409 . S
C26 C22 1.387 . S
C26 C25 1.409 . S
C26 H28 0.951 . S
C27 C22 1.491 . S
C27 C29 1.382 . S
C27 C31 1.404 . S
H28 C26 0.951 . S
C29 C27 1.382 . S
C29 C30 1.390 . S
C29 H34 0.949 . S
C30 C29 1.390 . S
C30 C35 1.399 . S
C31 C27 1.404 . S
C31 H32 0.950 . S
C31 C33 1.375 . S
H32 C31 0.950 . S
C33 C31 1.375 . S
C33 C35 1.382 . S
C33 H37 0.950 . S
H34 C29 0.949 . S
C35 C30 1.399 . S
C35 C33 1.382 . S
C35 H36 0.952 . S
H36 C35 0.952 . S
H37 C33 0.950 . S
H38 C39 0.949 1_455 S
C39 H38 0.949 1_655 S
C39 C40 1.395 . S
C39 C41 1.391 . S
C40 C39 1.395 . S
C40 C43 1.390 . S
C41 C39 1.391 . S
C41 C45 1.387 . S
C41 C46 1.491 1_554 S
H42 C43 0.950 . S
C43 C40 1.390 . S
C43 H42 0.950 . S
C43 C44 1.378 . S
C44 C43 1.378 . S
C44 C45 1.409 . S
C45 C41 1.387 . S
C45 C44 1.409 . S
C45 H47 0.951 . S
C46 C41 1.491 1_556 S
C46 C48 1.382 . S
C46 C50 1.404 . S
H47 C45 0.951 . S
C48 C46 1.382 . S
C48 C49 1.390 . S
C48 H53 0.949 1_556 S
C49 C48 1.390 . S
C49 C54 1.399 . S
C50 C46 1.404 . S
C50 H51 0.950 . S
C50 C52 1.375 . S
H51 C50 0.950 . S
C52 C50 1.375 . S
C52 C54 1.382 . S
C52 H56 0.950 . S
H53 C48 0.949 1_554 S
C54 C49 1.399 . S
C54 C52 1.382 . S
C54 H55 0.952 . S
H55 C54 0.952 . S
H56 C52 0.950 . S
H57 C58 0.949 . S
C58 H57 0.949 . S
C58 C59 1.395 . S
C58 C60 1.391 . S
C59 C58 1.395 . S
C59 C62 1.390 . S
C60 C58 1.391 . S
C60 C64 1.387 . S
C60 C65 1.491 . S
H61 C62 0.950 . S
C62 C59 1.390 . S
C62 H61 0.950 . S
C62 C63 1.378 . S
C63 C62 1.378 . S
C63 C64 1.409 . S
C64 C60 1.387 . S
C64 C63 1.409 . S
C64 H66 0.951 . S
C65 C60 1.491 . S
C65 C67 1.382 . S
C65 C69 1.404 . S
H66 C64 0.951 . S
C67 C65 1.382 . S
C67 C68 1.390 . S
C67 H72 0.949 . S
C68 C67 1.390 . S
C68 C73 1.399 . S
C69 C65 1.404 . S
C69 H70 0.950 . S
C69 C71 1.375 . S
H70 C69 0.950 . S
C71 C69 1.375 . S
C71 C73 1.382 . S
C71 H75 0.950 . S
H72 C67 0.949 . S
C73 C68 1.399 . S
C73 C71 1.382 . S
C73 H74 0.952 . S
H74 C73 0.952 . S
H75 C71 0.950 . S
H76 C77 0.949 . S
C77 H76 0.949 . S
C77 C78 1.395 . S
C77 C79 1.391 . S
C78 C77 1.395 . S
C78 C81 1.390 1_565 S
C79 C77 1.391 . S
C79 C83 1.387 . S
C79 C84 1.491 . S
H80 C81 0.950 . S
C81 C78 1.390 1_545 S
C81 H80 0.950 . S
C81 C82 1.378 1_545 S
C82 C81 1.378 1_565 S
C82 C83 1.409 . S
C83 C79 1.387 . S
C83 C82 1.409 . S
C83 H85 0.951 . S
C84 C79 1.491 . S
C84 C86 1.382 . S
C84 C88 1.404 . S
H85 C83 0.951 . S
C86 C84 1.382 . S
C86 C87 1.390 . S
C86 H91 0.949 . S
C87 C86 1.390 . S
C87 C92 1.399 . S
C88 C84 1.404 . S
C88 H89 0.950 . S
C88 C90 1.375 . S
H89 C88 0.950 . S
C90 C88 1.375 . S
C90 C92 1.382 . S
C90 H94 0.950 . S
H91 C86 0.949 . S
C92 C87 1.399 . S
C92 C90 1.382 . S
C92 H93 0.952 . S
H93 C92 0.952 . S
H94 C90 0.950 . S
H95 C96 0.949 . S
C96 H95 0.949 . S
C96 C97 1.395 . S
C96 C98 1.391 . S
C97 C96 1.395 . S
C97 C100 1.390 . S
C98 C96 1.391 . S
C98 C102 1.387 . S
C98 C103 1.491 . S
H99 C100 0.950 . S
C100 C97 1.390 . S
C100 H99 0.950 . S
C100 C101 1.378 . S
C101 C100 1.378 . S
C101 C102 1.409 . S
C102 C98 1.387 . S
C102 C101 1.409 . S
C102 H104 0.951 . S
C103 C98 1.491 . S
C103 C105 1.382 . S
C103 C107 1.404 . S
H104 C102 0.951 . S
C105 C103 1.382 . S
C105 C106 1.390 . S
C105 H110 0.949 . S
C106 C105 1.390 . S
C106 C111 1.399 . S
C107 C103 1.404 . S
C107 H108 0.950 . S
C107 C109 1.375 . S
H108 C107 0.950 . S
C109 C107 1.375 . S
C109 C111 1.382 . S
C109 H113 0.950 . S
H110 C105 0.949 . S
C111 C106 1.399 . S
C111 C109 1.382 . S
C111 H112 0.952 . S
H112 C111 0.952 . S
H113 C109 0.950 . S
H114 C115 0.949 . S
C115 H114 0.949 . S
C115 C116 1.395 . S
C115 C117 1.391 . S
C116 C115 1.395 . S
C116 C119 1.390 . S
C117 C115 1.391 . S
C117 C121 1.387 . S
C117 C122 1.491 . S
H118 C119 0.950 . S
C119 C116 1.390 . S
C119 H118 0.950 . S
C119 C120 1.378 . S
C120 C119 1.378 . S
C120 C121 1.409 . S
C121 C117 1.387 . S
C121 C120 1.409 . S
C121 H123 0.951 . S
C122 C117 1.491 . S
C122 C124 1.382 1_655 S
C122 C126 1.404 . S
H123 C121 0.951 . S
C124 C122 1.382 1_455 S
C124 C125 1.390 . S
C124 H129 0.949 . S
C125 C124 1.390 . S
C125 C130 1.399 1_455 S
C126 C122 1.404 . S
C126 H127 0.950 . S
C126 C128 1.375 . S
H127 C126 0.950 . S
C128 C126 1.375 . S
C128 C130 1.382 . S
C128 H132 0.950 . S
H129 C124 0.949 . S
C130 C125 1.399 1_655 S
C130 C128 1.382 . S
C130 H131 0.952 . S
H131 C130 0.952 . S
H132 C128 0.950 . S
H133 C134 0.949 . S
C134 H133 0.949 . S
C134 C135 1.395 . S
C134 C136 1.391 . S
C135 C134 1.395 . S
C135 C138 1.390 . S
C136 C134 1.391 . S
C136 C140 1.387 . S
C136 C141 1.491 . S
H137 C138 0.950 . S
C138 C135 1.390 . S
C138 H137 0.950 . S
C138 C139 1.378 . S
C139 C138 1.378 . S
C139 C140 1.409 . S
C140 C136 1.387 . S
C140 C139 1.409 . S
C140 H142 0.951 . S
C141 C136 1.491 . S
C141 C143 1.382 . S
C141 C145 1.404 . S
H142 C140 0.951 . S
C143 C141 1.382 . S
C143 C144 1.390 . S
C143 H148 0.949 . S
C144 C143 1.390 . S
C144 C149 1.399 . S
C145 C141 1.404 . S
C145 H146 0.950 . S
C145 C147 1.375 . S
H146 C145 0.950 . S
C147 C145 1.375 . S
C147 C149 1.382 . S
C147 H151 0.950 . S
H148 C143 0.949 . S
C149 C144 1.399 . S
C149 C147 1.382 . S
C149 H150 0.952 . S
H150 C149 0.952 . S
H151 C147 0.950 . S
H152 C153 0.949 . S
C153 H152 0.949 . S
C153 C154 1.395 . S
C153 C155 1.391 . S
C154 C153 1.395 . S
C154 C157 1.390 . S
C155 C153 1.391 . S
C155 C159 1.387 . S
C155 C160 1.491 . S
H156 C157 0.950 . S
C157 C154 1.390 . S
C157 H156 0.950 . S
C157 C158 1.378 . S
C158 C157 1.378 . S
C158 C159 1.409 . S
C159 C155 1.387 . S
C159 C158 1.409 . S
C159 H161 0.951 . S
C160 C155 1.491 . S
C160 C162 1.382 . S
C160 C164 1.404 . S
H161 C159 0.951 . S
C162 C160 1.382 . S
C162 C163 1.390 . S
C162 H167 0.949 . S
C163 C162 1.390 . S
C163 C168 1.399 . S
C164 C160 1.404 . S
C164 H165 0.950 . S
C164 C166 1.375 . S
H165 C164 0.950 . S
C166 C164 1.375 . S
C166 C168 1.382 . S
C166 H170 0.950 . S
H167 C162 0.949 . S
C168 C163 1.399 . S
C168 C166 1.382 . S
C168 H169 0.952 . S
H169 C168 0.952 . S
H170 C166 0.950 . S
H171 C172 0.949 . S
C172 H171 0.949 . S
C172 C173 1.395 . S
C172 C174 1.391 . S
C173 C172 1.395 . S
C173 C176 1.390 1_565 S
C174 C172 1.391 . S
C174 C178 1.387 . S
C174 C179 1.491 . S
H175 C176 0.950 . S
C176 C173 1.390 1_545 S
C176 H175 0.950 . S
C176 C177 1.378 . S
C177 C176 1.378 . S
C177 C178 1.409 1_545 S
C178 C174 1.387 . S
C178 C177 1.409 1_565 S
C178 H180 0.951 . S
C179 C174 1.491 . S
C179 C181 1.382 . S
C179 C183 1.404 . S
H180 C178 0.951 . S
C181 C179 1.382 . S
C181 C182 1.390 . S
C181 H186 0.949 . S
C182 C181 1.390 . S
C182 C187 1.399 . S
C183 C179 1.404 . S
C183 H184 0.950 . S
C183 C185 1.375 . S
H184 C183 0.950 . S
C185 C183 1.375 . S
C185 C187 1.382 . S
C185 H189 0.950 . S
H186 C181 0.949 . S
C187 C182 1.399 . S
C187 C185 1.382 . S
C187 H188 0.952 . S
H188 C187 0.952 . S
H189 C185 0.950 . S
H190 C191 0.949 . S
C191 H190 0.949 . S
C191 C192 1.395 . S
C191 C193 1.391 . S
C192 C191 1.395 . S
C192 C195 1.390 . S
C193 C191 1.391 . S
C193 C197 1.387 . S
C193 C198 1.491 . S
H194 C195 0.950 . S
C195 C192 1.390 . S
C195 H194 0.950 . S
C195 C196 1.378 . S
C196 C195 1.378 . S
C196 C197 1.409 . S
C197 C193 1.387 . S
C197 C196 1.409 . S
C197 H199 0.951 . S
C198 C193 1.491 . S
C198 C200 1.382 . S
C198 C202 1.404 . S
H199 C197 0.951 . S
C200 C198 1.382 . S
C200 C201 1.390 . S
C200 H205 0.949 . S
C201 C200 1.390 . S
C201 C206 1.399 . S
C202 C198 1.404 . S
C202 H203 0.950 . S
C202 C204 1.375 . S
H203 C202 0.950 . S
C204 C202 1.375 . S
C204 C206 1.382 . S
C204 H208 0.950 . S
H205 C200 0.949 . S
C206 C201 1.399 . S
C206 C204 1.382 . S
C206 H207 0.952 . S
H207 C206 0.952 . S
H208 C204 0.950 . S
H209 C210 0.949 . S
C210 H209 0.949 . S
C210 C211 1.395 . S
C210 C212 1.391 . S
C211 C210 1.395 . S
C211 C214 1.390 . S
C212 C210 1.391 . S
C212 C216 1.387 . S
C212 C217 1.491 . S
H213 C214 0.950 . S
C214 C211 1.390 . S
C214 H213 0.950 . S
C214 C215 1.378 . S
C215 C214 1.378 . S
C215 C216 1.409 . S
C216 C212 1.387 . S
C216 C215 1.409 . S
C216 H218 0.951 . S
C217 C212 1.491 . S
C217 C219 1.382 . S
C217 C221 1.404 . S
H218 C216 0.951 . S
C219 C217 1.382 . S
C219 C220 1.390 . S
C219 H224 0.949 . S
C220 C219 1.390 . S
C220 C225 1.399 . S
C221 C217 1.404 . S
C221 H222 0.950 . S
C221 C223 1.375 . S
H222 C221 0.950 . S
C223 C221 1.375 . S
C223 C225 1.382 . S
C223 H227 0.950 . S
H224 C219 0.949 . S
C225 C220 1.399 . S
C225 C223 1.382 . S
C225 H226 0.952 . S
H226 C225 0.952 . S
H227 C223 0.950 . S
H228 C229 0.949 . S
C229 H228 0.949 . S
C229 C230 1.395 . S
C229 C231 1.391 . S
C230 C229 1.395 . S
C230 C233 1.390 . S
C231 C229 1.391 . S
C231 C235 1.387 . S
C231 C236 1.491 . S
H232 C233 0.950 . S
C233 C230 1.390 . S
C233 H232 0.950 . S
C233 C234 1.378 . S
C234 C233 1.378 . S
C234 C235 1.409 . S
C235 C231 1.387 . S
C235 C234 1.409 . S
C235 H237 0.951 . S
C236 C231 1.491 . S
C236 C238 1.382 . S
C236 C240 1.404 . S
H237 C235 0.951 . S
C238 C236 1.382 . S
C238 C239 1.390 . S
C238 H243 0.949 . S
C239 C238 1.390 . S
C239 C244 1.399 . S
C240 C236 1.404 . S
C240 H241 0.950 . S
C240 C242 1.375 . S
H241 C240 0.950 . S
C242 C240 1.375 . S
C242 C244 1.382 . S
C242 H246 0.950 . S
H243 C238 0.949 . S
C244 C239 1.399 . S
C244 C242 1.382 . S
C244 H245 0.952 . S
H245 C244 0.952 . S
H246 C242 0.950 . S
H247 C248 0.949 1_554 S
C248 H247 0.949 1_556 S
C248 C249 1.395 . S
C248 C250 1.391 . S
C249 C248 1.395 . S
C249 C252 1.390 . S
C250 C248 1.391 . S
C250 C254 1.387 . S
C250 C255 1.491 . S
H251 C252 0.950 . S
C252 C249 1.390 . S
C252 H251 0.950 . S
C252 C253 1.378 . S
C253 C252 1.378 . S
C253 C254 1.409 . S
C254 C250 1.387 . S
C254 C253 1.409 . S
C254 H256 0.951 . S
C255 C250 1.491 . S
C255 C257 1.382 1_556 S
C255 C259 1.404 . S
H256 C254 0.951 . S
C257 C255 1.382 1_554 S
C257 C258 1.390 . S
C257 H262 0.949 . S
C258 C257 1.390 . S
C258 C263 1.399 . S
C259 C255 1.404 . S
C259 H260 0.950 . S
C259 C261 1.375 . S
H260 C259 0.950 . S
C261 C259 1.375 . S
C261 C263 1.382 1_556 S
C261 H265 0.950 . S
H262 C257 0.949 . S
C263 C258 1.399 . S
C263 C261 1.382 1_554 S
C263 H264 0.952 . S
H264 C263 0.952 . S
H265 C261 0.950 . S
H266 C267 0.949 . S
C267 H266 0.949 . S
C267 C268 1.395 . S
C267 C269 1.391 . S
C268 C267 1.395 . S
C268 C271 1.390 . S
C269 C267 1.391 . S
C269 C273 1.387 . S
C269 C274 1.491 . S
H270 C271 0.950 . S
C271 C268 1.390 . S
C271 H270 0.950 . S
C271 C272 1.378 . S
C272 C271 1.378 . S
C272 C273 1.409 . S
C273 C269 1.387 . S
C273 C272 1.409 . S
C273 H275 0.951 . S
C274 C269 1.491 . S
C274 C276 1.382 . S
C274 C278 1.404 . S
H275 C273 0.951 . S
C276 C274 1.382 . S
C276 C277 1.390 . S
C276 H281 0.949 . S
C277 C276 1.390 . S
C277 C282 1.399 . S
C278 C274 1.404 . S
C278 H279 0.950 . S
C278 C280 1.375 . S
H279 C278 0.950 . S
C280 C278 1.375 . S
C280 C282 1.382 . S
C280 H284 0.950 . S
H281 C276 0.949 . S
C282 C277 1.399 . S
C282 C280 1.382 . S
C282 H283 0.952 . S
H283 C282 0.952 . S
H284 C280 0.950 . S
H285 C286 0.949 . S
C286 H285 0.949 . S
C286 C287 1.395 . S
C286 C288 1.391 . S
C287 C286 1.395 . S
C287 C290 1.390 . S
C288 C286 1.391 . S
C288 C292 1.387 . S
C288 C293 1.491 . S
H289 C290 0.950 1_554 S
C290 C287 1.390 . S
C290 H289 0.950 1_556 S
C290 C291 1.378 . S
C291 C290 1.378 . S
C291 C292 1.409 . S
C292 C288 1.387 . S
C292 C291 1.409 . S
C292 H294 0.951 . S
C293 C288 1.491 . S
C293 C295 1.382 . S
C293 C297 1.404 . S
H294 C292 0.951 . S
C295 C293 1.382 . S
C295 C296 1.390 . S
C295 H300 0.949 . S
C296 C295 1.390 . S
C296 C301 1.399 . S
C297 C293 1.404 . S
C297 H298 0.950 . S
C297 C299 1.375 . S
H298 C297 0.950 . S
C299 C297 1.375 . S
C299 C301 1.382 . S
C299 H303 0.950 . S
H300 C295 0.949 . S
C301 C296 1.399 . S
C301 C299 1.382 . S
C301 H302 0.952 . S
H302 C301 0.952 . S
H303 C299 0.950 . S
Zn304 O307 2.031 . S
Zn304 O309 2.049 . S
Zn304 O314 2.067 1_554 S
Zn305 O306 1.962 . S
Zn305 O308 1.986 . S
Zn305 O310 1.996 . S
Zn305 O313 1.943 . S
O306 Zn305 1.962 . S
O306 C311 1.254 . S
O307 Zn304 2.031 . S
O307 C311 1.269 . S
O308 Zn305 1.986 . S
O308 C315 1.262 . S
O309 Zn304 2.049 . S
O309 C317 1.260 . S
O310 Zn305 1.996 . S
O310 C317 1.257 . S
C311 O306 1.254 . S
C311 O307 1.269 . S
C312 O313 1.249 1_556 S
C312 O314 1.270 . S
O313 Zn305 1.943 . S
O313 C312 1.249 1_554 S
O314 Zn304 2.067 1_556 S
O314 C312 1.270 . S
C315 O308 1.262 . S
C315 O316 1.232 . S
O316 C315 1.232 . S
C317 O309 1.260 . S
C317 O310 1.257 . S
Zn318 O321 2.031 . S
Zn318 O323 2.049 . S
Zn318 O328 2.067 . S
Zn319 O320 1.962 . S
Zn319 O322 1.986 . S
Zn319 O324 1.996 . S
Zn319 O327 1.943 . S
O320 Zn319 1.962 . S
O320 C325 1.254 . S
O321 Zn318 2.031 . S
O321 C325 1.269 . S
O322 Zn319 1.986 . S
O322 C329 1.262 . S
O323 Zn318 2.049 . S
O323 C331 1.260 . S
O324 Zn319 1.996 . S
O324 C331 1.257 . S
C325 O320 1.254 . S
C325 O321 1.269 . S
C326 O327 1.249 . S
C326 O328 1.270 . S
O327 Zn319 1.943 . S
O327 C326 1.249 . S
O328 Zn318 2.067 . S
O328 C326 1.270 . S
C329 O322 1.262 . S
C329 O330 1.232 . S
O330 C329 1.232 . S
C331 O323 1.260 . S
C331 O324 1.257 . S
Zn332 O335 2.031 . S
Zn332 O337 2.049 . S
Zn332 O342 2.067 . S
Zn333 O334 1.962 . S
Zn333 O336 1.986 . S
Zn333 O338 1.996 1_554 S
Zn333 O341 1.943 . S
O334 Zn333 1.962 . S
O334 C339 1.254 . S
O335 Zn332 2.031 . S
O335 C339 1.269 1_556 S
O336 Zn333 1.986 . S
O336 C343 1.262 . S
O337 Zn332 2.049 . S
O337 C345 1.260 . S
O338 Zn333 1.996 1_556 S
O338 C345 1.257 . S
C339 O334 1.254 . S
C339 O335 1.269 1_554 S
C340 O341 1.249 1_556 S
C340 O342 1.270 . S
O341 Zn333 1.943 . S
O341 C340 1.249 1_554 S
O342 Zn332 2.067 . S
O342 C340 1.270 . S
C343 O336 1.262 . S
C343 O344 1.232 . S
O344 C343 1.232 . S
C345 O337 1.260 . S
C345 O338 1.257 . S
Zn346 O349 2.031 . S
Zn346 O351 2.049 . S
Zn346 O356 2.067 1_545 S
Zn347 O348 1.962 . S
Zn347 O350 1.986 1_655 S
Zn347 O352 1.996 . S
Zn347 O355 1.943 1_545 S
O348 Zn347 1.962 . S
O348 C353 1.254 . S
O349 Zn346 2.031 . S
O349 C353 1.269 . S
O350 Zn347 1.986 1_455 S
O350 C357 1.262 . S
O351 Zn346 2.049 . S
O351 C359 1.260 1_655 S
O352 Zn347 1.996 . S
O352 C359 1.257 1_655 S
C353 O348 1.254 . S
C353 O349 1.269 . S
C354 O355 1.249 . S
C354 O356 1.270 . S
O355 Zn347 1.943 1_565 S
O355 C354 1.249 . S
O356 Zn346 2.067 1_565 S
O356 C354 1.270 . S
C357 O350 1.262 . S
C357 O358 1.232 1_455 S
O358 C357 1.232 1_655 S
C359 O351 1.260 1_455 S
C359 O352 1.257 1_455 S
Zn360 O363 2.031 . S
Zn360 O365 2.049 . S
Zn360 O370 2.067 . S
Zn361 O362 1.962 . S
Zn361 O364 1.986 . S
Zn361 O366 1.996 . S
Zn361 O369 1.943 . S
O362 Zn361 1.962 . S
O362 C367 1.254 . S
O363 Zn360 2.031 . S
O363 C367 1.269 . S
O364 Zn361 1.986 . S
O364 C371 1.262 . S
O365 Zn360 2.049 . S
O365 C373 1.260 . S
O366 Zn361 1.996 . S
O366 C373 1.257 . S
C367 O362 1.254 . S
C367 O363 1.269 . S
C368 O369 1.249 . S
C368 O370 1.270 . S
O369 Zn361 1.943 . S
O369 C368 1.249 . S
O370 Zn360 2.067 . S
O370 C368 1.270 . S
C371 O364 1.262 . S
C371 O372 1.232 . S
O372 C371 1.232 . S
C373 O365 1.260 . S
C373 O366 1.257 . S
Zn374 O377 2.031 . S
Zn374 O379 2.049 . S
Zn374 O384 2.067 . S
Zn375 O376 1.962 . S
Zn375 O378 1.986 . S
Zn375 O380 1.996 . S
Zn375 O383 1.943 . S
O376 Zn375 1.962 . S
O376 C381 1.254 . S
O377 Zn374 2.031 . S
O377 C381 1.269 . S
O378 Zn375 1.986 . S
O378 C385 1.262 . S
O379 Zn374 2.049 . S
O379 C387 1.260 . S
O380 Zn375 1.996 . S
O380 C387 1.257 . S
C381 O376 1.254 . S
C381 O377 1.269 . S
C382 O383 1.249 . S
C382 O384 1.270 . S
O383 Zn375 1.943 . S
O383 C382 1.249 . S
O384 Zn374 2.067 . S
O384 C382 1.270 . S
C385 O378 1.262 . S
C385 O386 1.232 . S
O386 C385 1.232 . S
C387 O379 1.260 . S
C387 O380 1.257 . S
Zn388 O391 2.031 . S
Zn388 O393 2.049 . S
Zn388 O398 2.067 . S
Zn389 O390 1.962 . S
Zn389 O392 1.986 . S
Zn389 O394 1.996 . S
Zn389 O397 1.943 . S
O390 Zn389 1.962 . S
O390 C395 1.254 . S
O391 Zn388 2.031 . S
O391 C395 1.269 . S
O392 Zn389 1.986 . S
O392 C399 1.262 . S
O393 Zn388 2.049 . S
O393 C401 1.260 . S
O394 Zn389 1.996 . S
O394 C401 1.257 . S
C395 O390 1.254 . S
C395 O391 1.269 . S
C396 O397 1.249 . S
C396 O398 1.270 . S
O397 Zn389 1.943 . S
O397 C396 1.249 . S
O398 Zn388 2.067 . S
O398 C396 1.270 . S
C399 O392 1.262 . S
C399 O400 1.232 . S
O400 C399 1.232 . S
C401 O393 1.260 . S
C401 O394 1.257 . S
Zn402 O405 2.031 1_565 S
Zn402 O407 2.049 . S
Zn402 O412 2.067 . S
Zn403 O404 1.962 . S
Zn403 O406 1.986 . S
Zn403 O408 1.996 1_545 S
Zn403 O411 1.943 . S
O404 Zn403 1.962 . S
O404 C409 1.254 . S
O405 Zn402 2.031 1_545 S
O405 C409 1.269 . S
O406 Zn403 1.986 . S
O406 C413 1.262 . S
O407 Zn402 2.049 . S
O407 C415 1.260 . S
O408 Zn403 1.996 1_565 S
O408 C415 1.257 . S
C409 O404 1.254 . S
C409 O405 1.269 . S
C410 O411 1.249 1_565 S
C410 O412 1.270 . S
O411 Zn403 1.943 . S
O411 C410 1.249 1_545 S
O412 Zn402 2.067 . S
O412 C410 1.270 . S
C413 O406 1.262 . S
C413 O414 1.232 . S
O414 C413 1.232 . S
C415 O407 1.260 . S
C415 O408 1.257 . S
Zn416 O419 2.031 . S
Zn416 O421 2.049 1_455 S
Zn416 O426 2.067 1_455 S
Zn417 O418 1.962 . S
Zn417 O420 1.986 . S
Zn417 O422 1.996 . S
Zn417 O425 1.943 1_455 S
O418 Zn417 1.962 . S
O418 C423 1.254 . S
O419 Zn416 2.031 . S
O419 C423 1.269 . S
O420 Zn417 1.986 . S
O420 C427 1.262 . S
O421 Zn416 2.049 1_655 S
O421 C429 1.260 1_655 S
O422 Zn417 1.996 . S
O422 C429 1.257 . S
C423 O418 1.254 . S
C423 O419 1.269 . S
C424 O425 1.249 . S
C424 O426 1.270 . S
O425 Zn417 1.943 1_655 S
O425 C424 1.249 . S
O426 Zn416 2.067 1_655 S
O426 C424 1.270 . S
C427 O420 1.262 . S
C427 O428 1.232 . S
O428 C427 1.232 . S
C429 O421 1.260 1_455 S
C429 O422 1.257 . S
Zn430 O433 2.031 . S
Zn430 O435 2.049 . S
Zn430 O440 2.067 . S
Zn431 O432 1.962 . S
Zn431 O434 1.986 . S
Zn431 O436 1.996 . S
Zn431 O439 1.943 . S
O432 Zn431 1.962 . S
O432 C437 1.254 . S
O433 Zn430 2.031 . S
O433 C437 1.269 . S
O434 Zn431 1.986 . S
O434 C441 1.262 . S
O435 Zn430 2.049 . S
O435 C443 1.260 . S
O436 Zn431 1.996 . S
O436 C443 1.257 . S
C437 O432 1.254 . S
C437 O433 1.269 . S
C438 O439 1.249 . S
C438 O440 1.270 . S
O439 Zn431 1.943 . S
O439 C438 1.249 . S
O440 Zn430 2.067 . S
O440 C438 1.270 . S
C441 O434 1.262 . S
C441 O442 1.232 . S
O442 C441 1.232 . S
C443 O435 1.260 . S
C443 O436 1.257 . S
Zn444 O447 2.031 1_655 S
Zn444 O449 2.049 . S
Zn444 O454 2.067 . S
Zn445 O446 1.962 . S
Zn445 O448 1.986 . S
Zn445 O450 1.996 1_455 S
Zn445 O453 1.943 . S
O446 Zn445 1.962 . S
O446 C451 1.254 . S
O447 Zn444 2.031 1_455 S
O447 C451 1.269 . S
O448 Zn445 1.986 . S
O448 C455 1.262 . S
O449 Zn444 2.049 . S
O449 C457 1.260 . S
O450 Zn445 1.996 1_655 S
O450 C457 1.257 . S
C451 O446 1.254 . S
C451 O447 1.269 . S
C452 O453 1.249 1_655 S
C452 O454 1.270 . S
O453 Zn445 1.943 . S
O453 C452 1.249 1_455 S
O454 Zn444 2.067 . S
O454 C452 1.270 . S
C455 O448 1.262 . S
C455 O456 1.232 . S
O456 C455 1.232 . S
C457 O449 1.260 . S
C457 O450 1.257 . S
Zn458 O461 2.031 . S
Zn458 O463 2.049 . S
Zn458 O468 2.067 . S
Zn459 O460 1.962 . S
Zn459 O462 1.986 . S
Zn459 O464 1.996 . S
Zn459 O467 1.943 . S
O460 Zn459 1.962 . S
O460 C465 1.254 . S
O461 Zn458 2.031 . S
O461 C465 1.269 . S
O462 Zn459 1.986 . S
O462 C469 1.262 . S
O463 Zn458 2.049 . S
O463 C471 1.260 . S
O464 Zn459 1.996 . S
O464 C471 1.257 . S
C465 O460 1.254 . S
C465 O461 1.269 . S
C466 O467 1.249 . S
C466 O468 1.270 . S
O467 Zn459 1.943 . S
O467 C466 1.249 . S
O468 Zn458 2.067 . S
O468 C466 1.270 . S
C469 O462 1.262 . S
C469 O470 1.232 . S
O470 C469 1.232 . S
C471 O463 1.260 . S
C471 O464 1.257 . S
C472 C473 1.387 . S
C472 H476 0.950 . S
C472 C481 1.390 . S
C473 C472 1.387 . S
C473 C475 1.387 . S
H474 C481 0.950 . S
C475 C473 1.387 . S
C475 C477 1.390 . S
C475 H479 0.950 . S
H476 C472 0.950 . S
C477 C475 1.390 . S
C477 C478 1.387 . S
C477 H480 0.950 . S
C478 C477 1.387 . S
C478 C481 1.387 . S
H479 C475 0.950 . S
H480 C477 0.950 . S
C481 C472 1.390 . S
C481 H474 0.950 . S
C481 C478 1.387 . S
C482 C483 1.387 . S
C482 H486 0.950 . S
C482 C491 1.390 . S
C483 C482 1.387 . S
C483 C485 1.387 . S
H484 C491 0.950 . S
C485 C483 1.387 . S
C485 C487 1.390 . S
C485 H489 0.950 . S
H486 C482 0.950 . S
C487 C485 1.390 . S
C487 C488 1.387 . S
C487 H490 0.950 . S
C488 C487 1.387 . S
C488 C491 1.387 . S
H489 C485 0.950 . S
H490 C487 0.950 . S
C491 C482 1.390 . S
C491 H484 0.950 . S
C491 C488 1.387 . S
C492 C493 1.387 . S
C492 H496 0.950 . S
C492 C501 1.390 . S
C493 C492 1.387 . S
C493 C495 1.387 . S
H494 C501 0.950 . S
C495 C493 1.387 . S
C495 C497 1.390 . S
C495 H499 0.950 . S
H496 C492 0.950 . S
C497 C495 1.390 . S
C497 C498 1.387 . S
C497 H500 0.950 . S
C498 C497 1.387 . S
C498 C501 1.387 . S
H499 C495 0.950 . S
H500 C497 0.950 . S
C501 C492 1.390 . S
C501 H494 0.950 . S
C501 C498 1.387 . S
C502 C503 1.387 1_545 S
C502 H506 0.950 . S
C502 C511 1.390 . S
C503 C502 1.387 1_565 S
C503 C505 1.387 . S
H504 C511 0.950 . S
C505 C503 1.387 . S
C505 C507 1.390 . S
C505 H509 0.950 . S
H506 C502 0.950 . S
C507 C505 1.390 . S
C507 C508 1.387 1_565 S
C507 H510 0.950 . S
C508 C507 1.387 1_545 S
C508 C511 1.387 . S
H509 C505 0.950 . S
H510 C507 0.950 . S
C511 C502 1.390 . S
C511 H504 0.950 . S
C511 C508 1.387 . S
C512 C513 1.387 . S
C512 H516 0.950 . S
C512 C521 1.390 . S
C513 C512 1.387 . S
C513 C515 1.387 . S
H514 C521 0.950 . S
C515 C513 1.387 . S
C515 C517 1.390 . S
C515 H519 0.950 . S
H516 C512 0.950 . S
C517 C515 1.390 . S
C517 C518 1.387 . S
C517 H520 0.950 . S
C518 C517 1.387 . S
C518 C521 1.387 . S
H519 C515 0.950 . S
H520 C517 0.950 . S
C521 C512 1.390 . S
C521 H514 0.950 . S
C521 C518 1.387 . S
C522 C523 1.387 . S
C522 H526 0.950 . S
C522 C531 1.390 . S
C523 C522 1.387 . S
C523 C525 1.387 . S
H524 C531 0.950 . S
C525 C523 1.387 . S
C525 C527 1.390 . S
C525 H529 0.950 . S
H526 C522 0.950 . S
C527 C525 1.390 . S
C527 C528 1.387 . S
C527 H530 0.950 . S
C528 C527 1.387 . S
C528 C531 1.387 . S
H529 C525 0.950 . S
H530 C527 0.950 . S
C531 C522 1.390 . S
C531 H524 0.950 . S
C531 C528 1.387 . S
C532 C533 1.387 . S
C532 H536 0.950 . S
C532 C541 1.390 . S
C533 C532 1.387 . S
C533 C535 1.387 . S
H534 C541 0.950 . S
C535 C533 1.387 . S
C535 C537 1.390 . S
C535 H539 0.950 . S
H536 C532 0.950 . S
C537 C535 1.390 . S
C537 C538 1.387 . S
C537 H540 0.950 . S
C538 C537 1.387 . S
C538 C541 1.387 . S
H539 C535 0.950 . S
H540 C537 0.950 . S
C541 C532 1.390 . S
C541 H534 0.950 . S
C541 C538 1.387 . S
C542 C543 1.387 1_545 S
C542 H546 0.950 . S
C542 C551 1.390 . S
C543 C542 1.387 1_565 S
C543 C545 1.387 . S
H544 C551 0.950 . S
C545 C543 1.387 . S
C545 C547 1.390 . S
C545 H549 0.950 . S
H546 C542 0.950 . S
C547 C545 1.390 . S
C547 C548 1.387 . S
C547 H550 0.950 . S
C548 C547 1.387 . S
C548 C551 1.387 1_565 S
H549 C545 0.950 . S
H550 C547 0.950 . S
C551 C542 1.390 . S
C551 H544 0.950 . S
C551 C548 1.387 1_545 S
C552 C553 1.387 . S
C552 H556 0.950 . S
C552 C561 1.390 . S
C553 C552 1.387 . S
C553 C555 1.387 . S
H554 C561 0.950 . S
C555 C553 1.387 . S
C555 C557 1.390 . S
C555 H559 0.950 . S
H556 C552 0.950 . S
C557 C555 1.390 . S
C557 C558 1.387 . S
C557 H560 0.950 . S
C558 C557 1.387 . S
C558 C561 1.387 . S
H559 C555 0.950 . S
H560 C557 0.950 . S
C561 C552 1.390 . S
C561 H554 0.950 . S
C561 C558 1.387 . S
C562 C563 1.387 . S
C562 H566 0.950 . S
C562 C571 1.390 . S
C563 C562 1.387 . S
C563 C565 1.387 . S
H564 C571 0.950 . S
C565 C563 1.387 . S
C565 C567 1.390 . S
C565 H569 0.950 . S
H566 C562 0.950 . S
C567 C565 1.390 . S
C567 C568 1.387 . S
C567 H570 0.950 . S
C568 C567 1.387 . S
C568 C571 1.387 . S
H569 C565 0.950 . S
H570 C567 0.950 . S
C571 C562 1.390 . S
C571 H564 0.950 . S
C571 C568 1.387 . S
C572 C573 1.387 . S
C572 H576 0.950 . S
C572 C581 1.390 . S
C573 C572 1.387 . S
C573 C575 1.387 . S
H574 C581 0.950 . S
C575 C573 1.387 . S
C575 C577 1.390 . S
C575 H579 0.950 . S
H576 C572 0.950 . S
C577 C575 1.390 . S
C577 C578 1.387 . S
C577 H580 0.950 . S
C578 C577 1.387 . S
C578 C581 1.387 . S
H579 C575 0.950 . S
H580 C577 0.950 . S
C581 C572 1.390 . S
C581 H574 0.950 . S
C581 C578 1.387 . S
C582 C583 1.387 . S
C582 H586 0.950 . S
C582 C591 1.390 . S
C583 C582 1.387 . S
C583 C585 1.387 . S
H584 C591 0.950 . S
C585 C583 1.387 . S
C585 C587 1.390 . S
C585 H589 0.950 . S
H586 C582 0.950 . S
C587 C585 1.390 . S
C587 C588 1.387 . S
C587 H590 0.950 . S
C588 C587 1.387 . S
C588 C591 1.387 . S
H589 C585 0.950 . S
H590 C587 0.950 . S
C591 C582 1.390 . S
C591 H584 0.950 . S
C591 C588 1.387 . S
C592 C593 1.387 . S
C592 H596 0.950 . S
C592 C601 1.390 . S
C593 C592 1.387 . S
C593 C595 1.387 . S
H594 C601 0.950 . S
C595 C593 1.387 . S
C595 C597 1.390 . S
C595 H599 0.950 . S
H596 C592 0.950 . S
C597 C595 1.390 . S
C597 C598 1.387 . S
C597 H600 0.950 . S
C598 C597 1.387 . S
C598 C601 1.387 . S
H599 C595 0.950 . S
H600 C597 0.950 . S
C601 C592 1.390 . S
C601 H594 0.950 . S
C601 C598 1.387 . S
C602 C603 1.387 . S
C602 H606 0.950 . S
C602 C611 1.390 . S
C603 C602 1.387 . S
C603 C605 1.387 . S
H604 C611 0.950 . S
C605 C603 1.387 . S
C605 C607 1.390 . S
C605 H609 0.950 . S
H606 C602 0.950 . S
C607 C605 1.390 . S
C607 C608 1.387 . S
C607 H610 0.950 . S
C608 C607 1.387 . S
C608 C611 1.387 . S
H609 C605 0.950 . S
H610 C607 0.950 . S
C611 C602 1.390 . S
C611 H604 0.950 . S
C611 C608 1.387 . S
C612 C613 1.387 . S
C612 H616 0.950 . S
C612 C621 1.390 . S
C613 C612 1.387 . S
C613 C615 1.387 . S
H614 C621 0.950 . S
C615 C613 1.387 . S
C615 C617 1.390 . S
C615 H619 0.950 . S
H616 C612 0.950 . S
C617 C615 1.390 . S
C617 C618 1.387 . S
C617 H620 0.950 . S
C618 C617 1.387 . S
C618 C621 1.387 . S
H619 C615 0.950 . S
H620 C617 0.950 . S
C621 C612 1.390 . S
C621 H614 0.950 . S
C621 C618 1.387 . S
C622 C623 1.387 . S
C622 H626 0.950 . S
C622 C631 1.390 . S
C623 C622 1.387 . S
C623 C625 1.387 . S
H624 C631 0.950 . S
C625 C623 1.387 . S
C625 C627 1.390 1_655 S
C625 H629 0.950 1_655 S
H626 C622 0.950 . S
C627 C625 1.390 1_455 S
C627 C628 1.387 1_455 S
C627 H630 0.950 . S
C628 C627 1.387 1_655 S
C628 C631 1.387 . S
H629 C625 0.950 1_455 S
H630 C627 0.950 . S
C631 C622 1.390 . S
C631 H624 0.950 . S
C631 C628 1.387 . S
C632 C633 1.387 . S
C632 H636 0.950 . S
C632 C641 1.390 . S
C633 C632 1.387 . S
C633 C635 1.387 . S
H634 C641 0.950 . S
C635 C633 1.387 . S
C635 C637 1.390 . S
C635 H639 0.950 . S
H636 C632 0.950 . S
C637 C635 1.390 . S
C637 C638 1.387 . S
C637 H640 0.950 . S
C638 C637 1.387 . S
C638 C641 1.387 . S
H639 C635 0.950 . S
H640 C637 0.950 . S
C641 C632 1.390 . S
C641 H634 0.950 . S
C641 C638 1.387 . S
C642 C643 1.387 . S
C642 H646 0.950 . S
C642 C651 1.390 . S
C643 C642 1.387 . S
C643 C645 1.387 . S
H644 C651 0.950 . S
C645 C643 1.387 . S
C645 C647 1.390 . S
C645 H649 0.950 . S
H646 C642 0.950 . S
C647 C645 1.390 . S
C647 C648 1.387 . S
C647 H650 0.950 . S
C648 C647 1.387 . S
C648 C651 1.387 . S
H649 C645 0.950 . S
H650 C647 0.950 . S
C651 C642 1.390 . S
C651 H644 0.950 . S
C651 C648 1.387 . S
C652 C653 1.374 1_554 S
C652 H656 0.948 . S
C652 C661 1.385 1_545 S
C653 C652 1.374 1_556 S
C653 C655 1.387 1_545 S
H654 C661 0.946 1_545 S
C655 C653 1.387 1_565 S
C655 C657 1.390 . S
C655 H659 0.950 . S
H656 C652 0.948 . S
C657 C655 1.390 . S
C657 C658 1.387 1_556 S
C657 H660 0.950 . S
C658 C657 1.387 1_554 S
C658 C661 1.411 . S
H659 C655 0.950 . S
H660 C657 0.950 . S
C661 C652 1.385 1_565 S
C661 H654 0.946 1_565 S
C661 C658 1.411 . S
C662 C663 1.387 . S
C662 H666 0.950 . S
C662 C671 1.390 . S
C663 C662 1.387 . S
C663 C665 1.387 . S
H664 C671 0.950 . S
C665 C663 1.387 . S
C665 C667 1.390 . S
C665 H669 0.950 . S
H666 C662 0.950 . S
C667 C665 1.390 . S
C667 C668 1.387 . S
C667 H670 0.950 . S
C668 C667 1.387 . S
C668 C671 1.387 . S
H669 C665 0.950 . S
H670 C667 0.950 . S
C671 C662 1.390 . S
C671 H664 0.950 . S
C671 C668 1.387 . S
C672 C673 1.387 . S
C672 H676 0.950 . S
C672 C681 1.390 . S
C673 C672 1.387 . S
C673 C675 1.387 . S
H674 C681 0.950 . S
C675 C673 1.387 . S
C675 C677 1.390 . S
C675 H679 0.950 . S
H676 C672 0.950 . S
C677 C675 1.390 . S
C677 C678 1.387 . S
C677 H680 0.950 . S
C678 C677 1.387 . S
C678 C681 1.387 . S
H679 C675 0.950 . S
H680 C677 0.950 . S
C681 C672 1.390 . S
C681 H674 0.950 . S
C681 C678 1.387 . S
C682 C683 1.387 . S
C682 H686 0.950 . S
C682 C691 1.390 . S
C683 C682 1.387 . S
C683 C685 1.387 . S
H684 C691 0.950 . S
C685 C683 1.387 . S
C685 C687 1.390 . S
C685 H689 0.950 . S
H686 C682 0.950 . S
C687 C685 1.390 . S
C687 C688 1.387 . S
C687 H690 0.950 . S
C688 C687 1.387 . S
C688 C691 1.387 . S
H689 C685 0.950 . S
H690 C687 0.950 . S
C691 C682 1.390 . S
C691 H684 0.950 . S
C691 C688 1.387 . S
C692 C693 1.387 . S
C692 H696 0.950 . S
C692 C701 1.390 . S
C693 C692 1.387 . S
C693 C695 1.387 . S
H694 C701 0.950 . S
C695 C693 1.387 . S
C695 C697 1.390 . S
C695 H699 0.950 . S
H696 C692 0.950 . S
C697 C695 1.390 . S
C697 C698 1.387 . S
C697 H700 0.950 . S
C698 C697 1.387 . S
C698 C701 1.387 . S
H699 C695 0.950 . S
H700 C697 0.950 . S
C701 C692 1.390 . S
C701 H694 0.950 . S
C701 C698 1.387 . S
C702 C703 1.387 . S
C702 H706 0.950 . S
C702 C711 1.390 . S
C703 C702 1.387 . S
C703 C705 1.387 . S
H704 C711 0.950 . S
C705 C703 1.387 . S
C705 C707 1.390 . S
C705 H709 0.950 . S
H706 C702 0.950 . S
C707 C705 1.390 . S
C707 C708 1.387 . S
C707 H710 0.950 . S
C708 C707 1.387 . S
C708 C711 1.387 . S
H709 C705 0.950 . S
H710 C707 0.950 . S
C711 C702 1.390 . S
C711 H704 0.950 . S
C711 C708 1.387 . S
C712 C713 1.387 . S
C712 H716 0.950 . S
C712 C721 1.390 . S
C713 C712 1.387 . S
C713 C715 1.387 . S
H714 C721 0.950 . S
C715 C713 1.387 . S
C715 C717 1.390 . S
C715 H719 0.950 . S
H716 C712 0.950 . S
C717 C715 1.390 . S
C717 C718 1.387 . S
C717 H720 0.950 . S
C718 C717 1.387 . S
C718 C721 1.387 . S
H719 C715 0.950 . S
H720 C717 0.950 . S
C721 C712 1.390 . S
C721 H714 0.950 . S
C721 C718 1.387 . S
C722 C723 1.387 . S
C722 H726 0.950 . S
C722 C731 1.390 . S
C723 C722 1.387 . S
C723 C725 1.387 . S
H724 C731 0.950 1_565 S
C725 C723 1.387 . S
C725 C727 1.390 . S
C725 H729 0.950 . S
H726 C722 0.950 . S
C727 C725 1.390 . S
C727 C728 1.387 . S
C727 H730 0.950 . S
C728 C727 1.387 . S
C728 C731 1.387 . S
H729 C725 0.950 . S
H730 C727 0.950 . S
C731 C722 1.390 . S
C731 H724 0.950 1_545 S
C731 C728 1.387 . S
C732 C733 1.387 . S
C732 H736 0.950 . S
C732 C741 1.390 . S
C733 C732 1.387 . S
C733 C735 1.387 . S
H734 C741 0.950 . S
C735 C733 1.387 . S
C735 C737 1.390 . S
C735 H739 0.950 . S
H736 C732 0.950 . S
C737 C735 1.390 . S
C737 C738 1.387 . S
C737 H740 0.950 . S
C738 C737 1.387 . S
C738 C741 1.387 . S
H739 C735 0.950 . S
H740 C737 0.950 . S
C741 C732 1.390 . S
C741 H734 0.950 . S
C741 C738 1.387 . S
C742 C743 1.387 . S
C742 H746 0.950 . S
C742 C751 1.390 . S
C743 C742 1.387 . S
C743 C745 1.387 . S
H744 C751 0.950 . S
C745 C743 1.387 . S
C745 C747 1.390 . S
C745 H749 0.950 . S
H746 C742 0.950 . S
C747 C745 1.390 . S
C747 C748 1.387 . S
C747 H750 0.950 . S
C748 C747 1.387 . S
C748 C751 1.387 . S
H749 C745 0.950 . S
H750 C747 0.950 . S
C751 C742 1.390 . S
C751 H744 0.950 . S
C751 C748 1.387 . S
C752 C753 1.387 . S
C752 H756 0.950 . S
C752 C761 1.390 . S
C753 C752 1.387 . S
C753 C755 1.387 . S
H754 C761 0.950 . S
C755 C753 1.387 . S
C755 C757 1.390 . S
C755 H759 0.950 . S
H756 C752 0.950 . S
C757 C755 1.390 . S
C757 C758 1.387 . S
C757 H760 0.950 . S
C758 C757 1.387 . S
C758 C761 1.387 . S
H759 C755 0.950 . S
H760 C757 0.950 . S
C761 C752 1.390 . S
C761 H754 0.950 . S
C761 C758 1.387 . S
C762 C763 1.387 1_565 S
C762 H766 0.950 . S
C762 C771 1.390 . S
C763 C762 1.387 1_545 S
C763 C765 1.387 . S
H764 C771 0.950 . S
C765 C763 1.387 . S
C765 C767 1.390 . S
C765 H769 0.950 . S
H766 C762 0.950 . S
C767 C765 1.390 . S
C767 C768 1.387 . S
C767 H770 0.950 . S
C768 C767 1.387 . S
C768 C771 1.387 1_545 S
H769 C765 0.950 . S
H770 C767 0.950 . S
C771 C762 1.390 . S
C771 H764 0.950 . S
C771 C768 1.387 1_565 S
C772 C773 1.387 . S
C772 H776 0.950 . S
C772 C781 1.390 . S
C773 C772 1.387 . S
C773 C775 1.387 . S
H774 C781 0.950 . S
C775 C773 1.387 . S
C775 C777 1.390 . S
C775 H779 0.950 . S
H776 C772 0.950 . S
C777 C775 1.390 . S
C777 C778 1.387 . S
C777 H780 0.950 . S
C778 C777 1.387 . S
C778 C781 1.387 . S
H779 C775 0.950 . S
H780 C777 0.950 . S
C781 C772 1.390 . S
C781 H774 0.950 . S
C781 C778 1.387 . S
C782 C783 1.387 . S
C782 H786 0.950 . S
C782 C791 1.390 . S
C783 C782 1.387 . S
C783 C785 1.387 . S
H784 C791 0.950 . S
C785 C783 1.387 . S
C785 C787 1.390 . S
C785 H789 0.950 . S
H786 C782 0.950 . S
C787 C785 1.390 . S
C787 C788 1.387 . S
C787 H790 0.950 . S
C788 C787 1.387 . S
C788 C791 1.387 . S
H789 C785 0.950 . S
H790 C787 0.950 . S
C791 C782 1.390 . S
C791 H784 0.950 . S
C791 C788 1.387 . S
C792 C793 1.387 . S
C792 H796 0.950 . S
C792 C801 1.390 . S
C793 C792 1.387 . S
C793 C795 1.387 . S
H794 C801 0.950 . S
C795 C793 1.387 . S
C795 C797 1.390 . S
C795 H799 0.950 . S
H796 C792 0.950 . S
C797 C795 1.390 . S
C797 C798 1.387 . S
C797 H800 0.950 . S
C798 C797 1.387 . S
C798 C801 1.387 . S
H799 C795 0.950 . S
H800 C797 0.950 . S
C801 C792 1.390 . S
C801 H794 0.950 . S
C801 C798 1.387 . S
C802 C803 1.387 . S
C802 H806 0.950 . S
C802 C811 1.390 . S
C803 C802 1.387 . S
C803 C805 1.387 1_655 S
H804 C811 0.950 . S
C805 C803 1.387 1_455 S
C805 C807 1.390 . S
C805 H809 0.950 . S
H806 C802 0.950 . S
C807 C805 1.390 . S
C807 C808 1.387 1_455 S
C807 H810 0.950 . S
C808 C807 1.387 1_655 S
C808 C811 1.387 . S
H809 C805 0.950 . S
H810 C807 0.950 . S
C811 C802 1.390 . S
C811 H804 0.950 . S
C811 C808 1.387 . S
C812 C813 1.387 . S
C812 H816 0.950 . S
C812 C821 1.390 . S
C813 C812 1.387 . S
C813 C815 1.387 . S
H814 C821 0.950 . S
C815 C813 1.387 . S
C815 C817 1.390 . S
C815 H819 0.950 . S
H816 C812 0.950 . S
C817 C815 1.390 . S
C817 C818 1.387 . S
C817 H820 0.950 . S
C818 C817 1.387 . S
C818 C821 1.387 . S
H819 C815 0.950 . S
H820 C817 0.950 . S
C821 C812 1.390 . S
C821 H814 0.950 . S
C821 C818 1.387 . S
C822 C823 1.387 . S
C822 H826 0.950 1_455 S
C822 C831 1.390 1_455 S
C823 C822 1.387 . S
C823 C825 1.387 . S
H824 C831 0.952 . S
C825 C823 1.387 . S
C825 C827 1.390 . S
C825 H829 0.950 . S
H826 C822 0.950 1_655 S
C827 C825 1.390 . S
C827 C828 1.387 . S
C827 H830 0.950 . S
C828 C827 1.387 . S
C828 C831 1.386 1_455 S
H829 C825 0.950 . S
H830 C827 0.950 . S
C831 C822 1.390 1_655 S
C831 H824 0.952 . S
C831 C828 1.386 1_655 S
C832 C833 1.387 . S
C832 H836 0.950 . S
C832 C841 1.390 . S
C833 C832 1.387 . S
C833 C835 1.387 . S
H834 C841 0.950 . S
C835 C833 1.387 . S
C835 C837 1.390 . S
C835 H839 0.950 . S
H836 C832 0.950 . S
C837 C835 1.390 . S
C837 C838 1.387 . S
C837 H840 0.950 . S
C838 C837 1.387 . S
C838 C841 1.387 . S
H839 C835 0.950 . S
H840 C837 0.950 . S
C841 C832 1.390 . S
C841 H834 0.950 . S
C841 C838 1.387 . S
C842 C843 1.387 . S
C842 H846 0.950 . S
C842 C851 1.390 . S
C843 C842 1.387 . S
C843 C845 1.387 . S
H844 C851 0.950 . S
C845 C843 1.387 . S
C845 C847 1.390 . S
C845 H849 0.950 . S
H846 C842 0.950 . S
C847 C845 1.390 . S
C847 C848 1.387 . S
C847 H850 0.950 . S
C848 C847 1.387 . S
C848 C851 1.387 . S
H849 C845 0.950 . S
H850 C847 0.950 . S
C851 C842 1.390 . S
C851 H844 0.950 . S
C851 C848 1.387 . S
C852 C853 1.387 . S
C852 H856 0.950 . S
C852 C861 1.390 . S
C853 C852 1.387 . S
C853 C855 1.387 . S
H854 C861 0.950 . S
C855 C853 1.387 . S
C855 C857 1.390 . S
C855 H859 0.950 . S
H856 C852 0.950 . S
C857 C855 1.390 . S
C857 C858 1.387 . S
C857 H860 0.950 . S
C858 C857 1.387 . S
C858 C861 1.387 . S
H859 C855 0.950 . S
H860 C857 0.950 . S
C861 C852 1.390 . S
C861 H854 0.950 . S
C861 C858 1.387 . S
C862 C863 1.387 . S
C862 H866 0.950 . S
C862 C871 1.390 . S
C863 C862 1.387 . S
C863 C865 1.387 . S
H864 C871 0.950 . S
C865 C863 1.387 . S
C865 C867 1.390 . S
C865 H869 0.950 . S
H866 C862 0.950 . S
C867 C865 1.390 . S
C867 C868 1.387 . S
C867 H870 0.950 . S
C868 C867 1.387 . S
C868 C871 1.387 . S
H869 C865 0.950 . S
H870 C867 0.950 . S
C871 C862 1.390 . S
C871 H864 0.950 . S
C871 C868 1.387 . S
C872 C873 1.387 . S
C872 H876 0.950 . S
C872 C881 1.390 . S
C873 C872 1.387 . S
C873 C875 1.387 . S
H874 C881 0.950 . S
C875 C873 1.387 . S
C875 C877 1.390 . S
C875 H879 0.950 . S
H876 C872 0.950 . S
C877 C875 1.390 . S
C877 C878 1.387 . S
C877 H880 0.950 . S
C878 C877 1.387 . S
C878 C881 1.387 . S
H879 C875 0.950 . S
H880 C877 0.950 . S
C881 C872 1.390 . S
C881 H874 0.950 . S
C881 C878 1.387 . S
C882 C883 1.387 . S
C882 H886 0.950 . S
C882 C891 1.390 . S
C883 C882 1.387 . S
C883 C885 1.387 . S
H884 C891 0.950 . S
C885 C883 1.387 . S
C885 C887 1.390 . S
C885 H889 0.950 . S
H886 C882 0.950 . S
C887 C885 1.390 . S
C887 C888 1.387 . S
C887 H890 0.950 . S
C888 C887 1.387 . S
C888 C891 1.387 . S
H889 C885 0.950 . S
H890 C887 0.950 . S
C891 C882 1.390 . S
C891 H884 0.950 . S
C891 C888 1.387 . S
C892 C893 1.387 . S
C892 H896 0.950 . S
C892 C901 1.390 . S
C893 C892 1.387 . S
C893 C895 1.387 . S
H894 C901 0.950 . S
C895 C893 1.387 . S
C895 C897 1.390 . S
C895 H899 0.950 . S
H896 C892 0.950 . S
C897 C895 1.390 . S
C897 C898 1.387 . S
C897 H900 0.950 . S
C898 C897 1.387 . S
C898 C901 1.387 . S
H899 C895 0.950 . S
H900 C897 0.950 . S
C901 C892 1.390 . S
C901 H894 0.950 . S
C901 C898 1.387 . S
C902 C903 1.387 . S
C902 H906 0.950 . S
C902 C911 1.390 . S
C903 C902 1.387 . S
C903 C905 1.387 . S
H904 C911 0.950 . S
C905 C903 1.387 . S
C905 C907 1.390 . S
C905 H909 0.950 . S
H906 C902 0.950 . S
C907 C905 1.390 . S
C907 C908 1.387 . S
C907 H910 0.950 . S
C908 C907 1.387 . S
C908 C911 1.387 . S
H909 C905 0.950 . S
H910 C907 0.950 . S
C911 C902 1.390 . S
C911 H904 0.950 . S
C911 C908 1.387 . S
C912 C913 1.387 1_554 S
C912 H916 0.950 . S
C912 C921 1.390 . S
C913 C912 1.387 1_556 S
C913 C915 1.387 . S
H914 C921 0.950 . S
C915 C913 1.387 . S
C915 C917 1.390 . S
C915 H919 0.950 . S
H916 C912 0.950 . S
C917 C915 1.390 . S
C917 C918 1.387 . S
C917 H920 0.950 . S
C918 C917 1.387 . S
C918 C921 1.387 1_556 S
H919 C915 0.950 . S
H920 C917 0.950 . S
C921 C912 1.390 . S
C921 H914 0.950 . S
C921 C918 1.387 1_554 S
C922 C923 1.387 . S
C922 H926 0.950 . S
C922 C931 1.390 . S
C923 C922 1.387 . S
C923 C925 1.387 . S
H924 C931 0.950 . S
C925 C923 1.387 . S
C925 C927 1.390 . S
C925 H929 0.950 . S
H926 C922 0.950 . S
C927 C925 1.390 . S
C927 C928 1.387 . S
C927 H930 0.950 . S
C928 C927 1.387 . S
C928 C931 1.387 . S
H929 C925 0.950 . S
H930 C927 0.950 . S
C931 C922 1.390 . S
C931 H924 0.950 . S
C931 C928 1.387 . S
C932 C933 1.387 . S
C932 H936 0.950 . S
C932 C941 1.399 . S
C933 C932 1.387 . S
C933 C935 1.387 . S
H934 C941 0.934 1_556 S
C935 C933 1.387 . S
C935 C937 1.390 . S
C935 H939 0.950 . S
H936 C932 0.950 . S
C937 C935 1.390 . S
C937 C938 1.387 . S
C937 H940 0.950 . S
C938 C937 1.387 . S
C938 C941 1.395 . S
H939 C935 0.950 . S
H940 C937 0.950 . S
C941 C932 1.399 . S
C941 H934 0.934 1_554 S
C941 C938 1.395 . S
C942 C943 1.387 . S
C942 H946 0.950 . S
C942 C951 1.390 . S
C943 C942 1.387 . S
C943 C945 1.387 . S
H944 C951 0.950 . S
C945 C943 1.387 . S
C945 C947 1.390 . S
C945 H949 0.950 . S
H946 C942 0.950 . S
C947 C945 1.390 . S
C947 C948 1.387 . S
C947 H950 0.950 . S
C948 C947 1.387 . S
C948 C951 1.387 . S
H949 C945 0.950 . S
H950 C947 0.950 . S
C951 C942 1.390 . S
C951 H944 0.950 . S
C951 C948 1.387 . S
C478 C312 1.871 . S
C473 C101 1.902 . S
C488 C325 1.256 . S
C483 C125 1.184 . S
C493 C139 2.031 . S
C498 C345 1.870 . S
C508 C359 1.526 . S
C503 C82 1.650 . S
C518 C371 1.629 . S
C513 C196 1.648 . S
C528 C385 1.776 . S
C523 C234 1.778 . S
C533 C220 0.947 . S
C538 C395 1.027 . S
C548 C410 1.704 . S
C543 C173 1.716 . S
C553 C211 1.190 . S
C558 C424 1.132 . S
C568 C443 1.082 . S
C563 C182 1.051 . S
C573 C201 1.308 . S
C578 C423 1.452 . S
C588 C441 1.367 . S
C583 C239 1.284 . S
C593 C135 1.791 . S
C598 C457 1.716 . S
C603 C87 1.680 . S
C608 C451 1.830 . S
C613 C106 1.207 . S
C618 C455 1.384 . S
C623 C116 1.320 . S
C628 C452 1.327 . S
C633 C59 1.821 . S
C638 C354 1.807 . S
C643 C268 2.042 . S
C648 C353 2.028 . S
C658 C317 1.345 . S
C653 C291 1.337 . S
C668 C331 1.463 . S
C663 C163 1.456 . S
C673 C78 1.929 1_545 S
C678 C368 1.950 . S
C688 C413 1.315 . S
C683 C215 1.309 . S
C698 C367 1.630 . S
C693 C177 1.636 . S
C708 C399 1.736 . S
C703 C230 1.721 . S
C718 C396 1.872 . S
C713 C272 1.902 . S
C723 C296 1.188 . S
C728 C409 1.255 . S
C733 C158 2.030 . S
C738 C373 1.868 . S
C748 C387 1.522 . S
C743 C253 1.650 . S
C753 C63 1.648 . S
C758 C343 1.630 . S
C768 C357 1.777 . S
C763 C6 1.777 . S
C778 C311 1.026 . S
C773 C30 0.943 . S
C788 C326 1.704 . S
C783 C40 1.716 1_455 S
C793 C21 1.187 . S
C798 C438 1.132 . S
C803 C49 1.052 . S
C808 C429 1.081 1_655 S
C813 C68 1.308 . S
C818 C437 1.452 . S
C823 C11 1.287 . S
C828 C427 1.367 . S
C838 C471 1.716 . S
C833 C154 1.791 . S
C848 C465 1.830 . S
C843 C258 1.677 . S
C858 C469 1.384 . S
C853 C277 1.202 . S
C863 C287 1.321 1_554 S
C868 C466 1.328 . S
C873 C192 1.821 . S
C878 C382 1.807 . S
C888 C381 2.028 . S
C883 C97 2.042 . S
C898 C401 1.344 . S
C893 C120 1.339 . S
C908 C415 1.459 . S
C903 C144 1.454 . S
C913 C249 1.929 . S
C918 C340 1.950 . S
C928 C329 1.315 . S
C923 C25 1.308 . S
C933 C44 1.636 . S
C938 C339 1.631 . S
C948 C315 1.737 . S
C943 C2 1.739 . S
