# Generated by pormake.
# Topology anh, (6,3)-cn, num edge types: 1
# Building blocks:
#     Node 0, Type 0, BuildingBlock: MIFKUJ_clean_sbu_0, # of connection points: 6
#     Node 1, Type 0, BuildingBlock: MIFKUJ_clean_sbu_0, # of connection points: 6
#     Node 2, Type 0, BuildingBlock: MIFKUJ_clean_sbu_0, # of connection points: 6
#     Node 3, Type 1, BuildingBlock: CUQRIR_clean_linker_1, # of connection points: 3
#     Node 4, Type 1, BuildingBlock: CUQRIR_clean_linker_1, # of connection points: 3
#     Node 5, Type 1, BuildingBlock: CUQRIR_clean_linker_1, # of connection points: 3
#     Node 6, Type 1, BuildingBlock: CUQRIR_clean_linker_1, # of connection points: 3
#     Node 7, Type 1, BuildingBlock: CUQRIR_clean_linker_1, # of connection points: 3
#     Node 8, Type 1, BuildingBlock: CUQRIR_clean_linker_1, # of connection points: 3
#     Edge 9, Type (0, 1), BuildingBlock: XUDNAN_clean_linker_2, # of connection points: 2
#     Edge 10, Type (0, 1), BuildingBlock: XUDNAN_clean_linker_2, # of connection points: 2
#     Edge 11, Type (0, 1), BuildingBlock: XUDNAN_clean_linker_2, # of connection points: 2
#     Edge 12, Type (0, 1), BuildingBlock: XUDNAN_clean_linker_2, # of connection points: 2
#     Edge 13, Type (0, 1), BuildingBlock: XUDNAN_clean_linker_2, # of connection points: 2
#     Edge 14, Type (0, 1), BuildingBlock: XUDNAN_clean_linker_2, # of connection points: 2
#     Edge 15, Type (0, 1), BuildingBlock: XUDNAN_clean_linker_2, # of connection points: 2
#     Edge 16, Type (0, 1), BuildingBlock: XUDNAN_clean_linker_2, # of connection points: 2
#     Edge 17, Type (0, 1), BuildingBlock: XUDNAN_clean_linker_2, # of connection points: 2
#     Edge 18, Type (0, 1), BuildingBlock: XUDNAN_clean_linker_2, # of connection points: 2
#     Edge 19, Type (0, 1), BuildingBlock: XUDNAN_clean_linker_2, # of connection points: 2
#     Edge 20, Type (0, 1), BuildingBlock: XUDNAN_clean_linker_2, # of connection points: 2
#     Edge 21, Type (0, 1), BuildingBlock: XUDNAN_clean_linker_2, # of connection points: 2
#     Edge 22, Type (0, 1), BuildingBlock: XUDNAN_clean_linker_2, # of connection points: 2
#     Edge 23, Type (0, 1), BuildingBlock: XUDNAN_clean_linker_2, # of connection points: 2
#     Edge 24, Type (0, 1), BuildingBlock: XUDNAN_clean_linker_2, # of connection points: 2
#     Edge 25, Type (0, 1), BuildingBlock: XUDNAN_clean_linker_2, # of connection points: 2
#     Edge 26, Type (0, 1), BuildingBlock: XUDNAN_clean_linker_2, # of connection points: 2
# Relax obj value: 0.118
# Max RMSD: 0.215
# Mean RMSD: 0.153
data_MOF--net-anh--node1-MIFKUJ_clean_sbu_0--node2-CUQRIR_clean_linker_1--edge1-XUDNAN_clean_linker_2
_symmetry_space_group_name_H-M    P1
_symmetry_Int_Tables_number       1
_symmetry_cell_setting            triclinic
loop_
_symmetry_equiv_pos_as_xyz
'x, y, z'
_cell_length_a     29.42522
_cell_length_b     29.709028
_cell_length_c     43.899685
_cell_angle_alpha  89.320994
_cell_angle_beta   90.742484
_cell_angle_gamma 120.38852
loop_
_atom_site_label
_atom_site_type_symbol
_atom_site_fract_x
_atom_site_fract_y
_atom_site_fract_z
_atom_type_partial_charge
Zn0 Zn 0.04856 0.53594 0.16183 0.0
Zn1 Zn 0.89892 0.44076 0.15866 0.0
C2 C 0.09027 0.46555 0.16417 0.0
O3 O 0.0627 0.44788 0.18925 0.0
C4 C 0.80769 0.44823 0.14245 0.0
O5 O 0.79236 0.40183 0.13128 0.0
O6 O 0.10859 0.6083 0.16709 0.0
O7 O 0.99706 0.53693 0.13235 0.0
O8 O 0.94226 0.4559 0.12019 0.0
C9 C 0.14427 0.62743 0.14702 0.0
O10 O 0.13892 0.60092 0.12222 0.0
O11 O 0.0849 0.49785 0.14746 0.0
C12 C 0.86569 0.33305 0.16987 0.0
O13 O 0.91472 0.35244 0.17907 0.0
O14 O 0.85062 0.36359 0.15969 0.0
O15 O 0.93337 0.45723 0.20096 0.0
O16 O 0.01993 0.51136 0.2032 0.0
O17 O 0.85308 0.47373 0.15484 0.0
C18 C 0.97931 0.50095 0.11278 0.0
C19 C 0.97622 0.48184 0.21609 0.0
Zn20 Zn 0.63334 0.11398 0.49815 0.0
Zn21 Zn 0.589 0.97256 0.50314 0.0
C22 C 0.73636 0.20284 0.50736 0.0
O23 O 0.7092 0.21383 0.52634 0.0
C24 C 0.4811 0.89561 0.50962 0.0
O25 O 0.50337 0.88109 0.53059 0.0
O26 O 0.60393 0.16067 0.49262 0.0
O27 O 0.60013 0.06533 0.46383 0.0
O28 O 0.63106 0.01216 0.46583 0.0
C29 C 0.62227 0.19645 0.47249 0.0
O30 O 0.66294 0.20476 0.4562 0.0
O31 O 0.71287 0.15956 0.49324 0.0
C32 C 0.61477 0.89336 0.52609 0.0
O33 O 0.63519 0.92065 0.551 0.0
O34 O 0.59823 0.91085 0.50488 0.0
O35 O 0.60207 0.00396 0.54556 0.0
O36 O 0.6138 0.08378 0.54003 0.0
O37 O 0.50964 0.93756 0.49458 0.0
C38 C 0.62431 0.04556 0.45139 0.0
C39 C 0.60583 0.04514 0.55658 0.0
Zn40 Zn 0.5988 0.53556 0.83356 0.0
Zn41 Zn 0.51932 0.62069 0.83747 0.0
C42 C 0.58979 0.44439 0.86022 0.0
O43 O 0.63527 0.48004 0.87163 0.0
C44 C 0.50243 0.69562 0.80748 0.0
O45 O 0.46718 0.65283 0.79367 0.0
O46 O 0.6752 0.55854 0.82979 0.0
O47 O 0.57636 0.54745 0.79302 0.0
O48 O 0.53751 0.59446 0.7991 0.0
C49 C 0.70904 0.59059 0.81111 0.0
O50 O 0.69723 0.61865 0.79291 0.0
O51 O 0.56338 0.45866 0.8437 0.0
C52 C 0.4231 0.59682 0.86335 0.0
O53 O 0.45606 0.64074 0.87703 0.0
O54 O 0.44117 0.57737 0.84474 0.0
O55 O 0.55423 0.62334 0.87821 0.0
O56 O 0.58601 0.57401 0.86533 0.0
O57 O 0.53233 0.69259 0.82755 0.0
C58 C 0.55452 0.57171 0.7821 0.0
C59 C 0.57767 0.5988 0.88557 0.0
C60 C 0.51016 0.97204 0.19291 0.0
N61 N 0.5472 0.00653 0.21231 0.0
N62 N 0.46592 0.93873 0.20823 0.0
C63 C 0.51881 0.96727 0.15969 0.0
C64 C 0.47741 0.95437 0.23751 0.0
N65 N 0.527 0.99517 0.24011 0.0
C66 C 0.43973 0.92939 0.26354 0.0
H67 H 0.50064 0.98579 0.14602 0.0
H68 H 0.49947 0.92564 0.15302 0.0
H69 H 0.56136 0.98686 0.15425 0.0
H70 H 0.44414 0.8972 0.27333 0.0
H71 H 0.39845 0.91267 0.25539 0.0
H72 H 0.44797 0.95823 0.28173 0.0
C73 C 0.56798 0.51394 0.51621 0.0
N74 N 0.56495 0.54343 0.53843 0.0
N75 N 0.56534 0.47076 0.52828 0.0
C76 C 0.5734 0.52692 0.48274 0.0
C77 C 0.56089 0.47488 0.55859 0.0
N78 N 0.56112 0.51948 0.56484 0.0
C79 C 0.55477 0.43468 0.58192 0.0
H80 H 0.53357 0.50868 0.4722 0.0
H81 H 0.59574 0.51117 0.47126 0.0
H82 H 0.59357 0.56973 0.47896 0.0
H83 H 0.59378 0.44698 0.59245 0.0
H84 H 0.53999 0.39585 0.57152 0.0
H85 H 0.5276 0.43155 0.6002 0.0
C86 C 0.04378 0.54156 0.84769 0.0
N87 N 0.06646 0.53482 0.87301 0.0
N88 N -4e-05 0.54283 0.85508 0.0
C89 C 0.06533 0.54847 0.81608 0.0
C90 C 0.99694 0.53683 0.88573 0.0
N91 N 0.03725 0.53172 0.8966 0.0
C92 C 0.9566 0.53954 0.90521 0.0
H93 H 0.10053 0.58805 0.81401 0.0
H94 H 0.03575 0.54398 0.79861 0.0
H95 H 0.07803 0.51975 0.81186 0.0
H96 H 0.92136 0.49993 0.90697 0.0
H97 H 0.9442 0.56593 0.89485 0.0
H98 H 0.97196 0.55323 0.92853 0.0
C99 C 0.09661 0.5617 0.47624 0.0
N100 N 0.06177 0.52483 0.45679 0.0
N101 N 0.12988 0.60616 0.46088 0.0
C102 C 0.09822 0.55411 0.51005 0.0
C103 C 0.11426 0.59478 0.43142 0.0
N104 N 0.07319 0.54535 0.42893 0.0
C105 C 0.13985 0.6315 0.4049 0.0
H106 H 0.06692 0.55869 0.52084 0.0
H107 H 0.13667 0.58314 0.52013 0.0
H108 H 0.09022 0.51409 0.51518 0.0
H109 H 0.16957 0.62371 0.39484 0.0
H110 H 0.16029 0.67291 0.41181 0.0
H111 H 0.11021 0.62524 0.38705 0.0
C112 C 0.5643 0.07588 0.82246 0.0
N113 N 0.56484 0.0514 0.79673 0.0
N114 N 0.57821 0.126 0.81633 0.0
C115 C 0.54459 0.04924 0.85273 0.0
C116 C 0.58668 0.13082 0.78595 0.0
N117 N 0.57816 0.08547 0.77392 0.0
C118 C 0.59826 0.17862 0.76768 0.0
H119 H 0.50561 0.01338 0.84967 0.0
H120 H 0.54138 0.0752 0.86943 0.0
H121 H 0.57216 0.03723 0.86195 0.0
H122 H 0.62556 0.21446 0.78046 0.0
H123 H 0.56102 0.17877 0.7637 0.0
H124 H 0.61589 0.17923 0.74538 0.0
C125 C 0.47328 0.49944 0.14215 0.0
N126 N 0.51396 0.51221 0.12314 0.0
N127 N 0.43317 0.50037 0.12707 0.0
C128 C 0.47337 0.48722 0.17544 0.0
C129 C 0.45107 0.51388 0.09818 0.0
N130 N 0.5003 0.52152 0.09588 0.0
C131 C 0.41836 0.51399 0.07149 0.0
H132 H 0.45871 0.44489 0.17818 0.0
H133 H 0.44735 0.49701 0.18832 0.0
H134 H 0.51392 0.50897 0.18501 0.0
H135 H 0.42394 0.55364 0.0687 0.0
H136 H 0.37588 0.48596 0.07517 0.0
H137 H 0.43052 0.50365 0.0501 0.0
H138 H 0.18183 0.53147 0.1348 0.0
H139 H 0.10265 0.38484 0.18458 0.0
H140 H 0.18322 0.37836 0.18177 0.0
H141 H 0.25887 0.50018 0.08482 0.0
H142 H 0.31563 0.56496 0.08676 0.0
H143 H 0.25056 0.55547 0.09104 0.0
H144 H 0.279 0.6036 0.14257 0.0
H145 H 0.34385 0.61228 0.13909 0.0
H146 H 0.30486 0.58024 0.17228 0.0
H147 H 0.27319 0.38834 0.17298 0.0
H148 H 0.36447 0.41389 0.15873 0.0
H149 H 0.38599 0.55756 0.11929 0.0
C150 C 0.18095 0.49736 0.14453 0.0
C151 C 0.13567 0.45808 0.15943 0.0
C152 C 0.13676 0.41499 0.17274 0.0
C153 C 0.18236 0.41113 0.17135 0.0
C154 C 0.22671 0.45113 0.15701 0.0
C155 C 0.22631 0.49346 0.14389 0.0
C156 C 0.27961 0.53235 0.13098 0.0
C157 C 0.27593 0.53858 0.09635 0.0
C158 C 0.30321 0.58522 0.14722 0.0
C159 C 0.31005 0.50509 0.13859 0.0
C160 C 0.27891 0.45819 0.15348 0.0
C161 C 0.29805 0.42523 0.1616 0.0
C162 C 0.34997 0.44017 0.15371 0.0
C163 C 0.38214 0.48777 0.13816 0.0
C164 C 0.36207 0.52094 0.13114 0.0
H165 H 0.79017 0.30498 0.52552 0.0
H166 H 0.80603 0.19298 0.47084 0.0
H167 H 0.89438 0.26276 0.45466 0.0
H168 H 0.8478 0.4085 0.4729 0.0
H169 H 0.88034 0.45882 0.5011 0.0
H170 H 0.8208 0.39929 0.51062 0.0
H171 H 0.86873 0.38407 0.55601 0.0
H172 H 0.92851 0.44368 0.54668 0.0
H173 H 0.92859 0.38314 0.5494 0.0
H174 H 0.97865 0.34628 0.44178 0.0
H175 H 0.05178 0.43687 0.43324 0.0
H176 H 0.98002 0.49413 0.49549 0.0
C177 C 0.81252 0.29477 0.51059 0.0
C178 C 0.79122 0.24327 0.49964 0.0
C179 C 0.82157 0.232 0.47968 0.0
C180 C 0.87182 0.2714 0.47038 0.0
C181 C 0.89123 0.3219 0.48123 0.0
C182 C 0.86253 0.33362 0.50097 0.0
C183 C 0.8909 0.39147 0.50799 0.0
C184 C 0.858 0.41594 0.49752 0.0
C185 C 0.90502 0.40114 0.54205 0.0
C186 C 0.9398 0.41072 0.4888 0.0
C187 C 0.93943 0.36993 0.47369 0.0
C188 C 0.97951 0.37836 0.45372 0.0
C189 C 0.02072 0.42975 0.44894 0.0
C190 C 0.02149 0.47201 0.46393 0.0
C191 C 0.98074 0.46224 0.48429 0.0
H192 H 0.57142 0.79199 0.83134 0.0
H193 H 0.43854 0.71251 0.7691 0.0
H194 H 0.4404 0.79536 0.75934 0.0
H195 H 0.53216 0.87703 0.86376 0.0
H196 H 0.59828 0.9319 0.8666 0.0
H197 H 0.587 0.86642 0.86846 0.0
H198 H 0.65122 0.88709 0.8236 0.0
H199 H 0.66282 0.95267 0.82163 0.0
H200 H 0.64037 0.91198 0.78829 0.0
H201 H 0.45484 0.8863 0.75755 0.0
H202 H 0.48299 0.97976 0.76296 0.0
H203 H 0.60813 0.00052 0.82454 0.0
C204 C 0.54285 0.79201 0.81554 0.0
C205 C 0.50491 0.74576 0.80094 0.0
C206 C 0.46812 0.74747 0.7805 0.0
C207 C 0.46877 0.79433 0.77483 0.0
C208 C 0.50655 0.83915 0.78969 0.0
C209 C 0.54304 0.83846 0.80954 0.0
C210 C 0.57943 0.89207 0.82261 0.0
C211 C 0.57386 0.89181 0.85742 0.0
C212 C 0.63686 0.91213 0.81347 0.0
C213 C 0.55767 0.92298 0.80703 0.0
C214 C 0.5155 0.89171 0.78821 0.0
C215 C 0.48817 0.91129 0.77195 0.0
C216 C 0.50454 0.96431 0.77496 0.0
C217 C 0.54807 0.99701 0.79378 0.0
C218 C 0.57476 0.97602 0.81003 0.0
H219 H 0.7026 0.3951 0.12848 0.0
H220 H 0.83 0.54789 0.15525 0.0
H221 H 0.76794 0.58116 0.15453 0.0
H222 H 0.6361 0.44001 0.07795 0.0
H223 H 0.5714 0.3884 0.08858 0.0
H224 H 0.62643 0.37775 0.09048 0.0
H225 H 0.60621 0.35103 0.14737 0.0
H226 H 0.55143 0.36208 0.14566 0.0
H227 H 0.60284 0.39535 0.17371 0.0
H228 H 0.69155 0.59829 0.14826 0.0
H229 H 0.60659 0.59593 0.13947 0.0
H230 H 0.52933 0.43059 0.12159 0.0
C231 C 0.71765 0.43565 0.1341 0.0
C232 C 0.77126 0.46898 0.14178 0.0
C233 C 0.7891 0.52165 0.14925 0.0
C234 C 0.75416 0.54088 0.14889 0.0
C235 C 0.70145 0.5068 0.1413 0.0
C236 C 0.6833 0.45521 0.13421 0.0
C237 C 0.62482 0.42625 0.12724 0.0
C238 C 0.61408 0.40698 0.0941 0.0
C239 C 0.59455 0.38101 0.14985 0.0
C240 C 0.6126 0.46937 0.1318 0.0
C241 C 0.6574 0.51586 0.13939 0.0
C242 C 0.6562 0.56195 0.1427 0.0
C243 C 0.60811 0.56039 0.13777 0.0
C244 C 0.56216 0.51305 0.13018 0.0
C245 C 0.56423 0.46695 0.12777 0.0
H246 H 0.4271 0.7897 0.51229 0.0
H247 H 0.40824 0.92188 0.48995 0.0
H248 H 0.31308 0.86136 0.47959 0.0
H249 H 0.34308 0.70817 0.45272 0.0
H250 H 0.31803 0.64886 0.47477 0.0
H251 H 0.38299 0.70294 0.48249 0.0
H252 H 0.35758 0.70189 0.53888 0.0
H253 H 0.29222 0.64821 0.53124 0.0
H254 H 0.30091 0.70736 0.54773 0.0
H255 H 0.21934 0.78542 0.47251 0.0
H256 H 0.1384 0.70079 0.46161 0.0
H257 H 0.221 0.61894 0.48452 0.0
C258 C 0.4028 0.80595 0.50549 0.0
C259 C 0.42466 0.86047 0.50233 0.0
C260 C 0.39207 0.88024 0.49261 0.0
C261 C 0.33803 0.84617 0.48689 0.0
C262 C 0.3176 0.79252 0.49052 0.0
C263 C 0.34931 0.77255 0.49905 0.0
C264 C 0.31892 0.71338 0.49901 0.0
C265 C 0.34214 0.6921 0.47587 0.0
C266 C 0.31732 0.69144 0.53113 0.0
C267 C 0.26498 0.70292 0.48905 0.0
C268 C 0.26473 0.74905 0.48485 0.0
C269 C 0.21929 0.74921 0.47562 0.0
C270 C 0.17356 0.70118 0.46961 0.0
C271 C 0.17389 0.65385 0.47223 0.0
C272 C 0.21987 0.65473 0.48265 0.0
H273 H 0.65481 0.40531 0.86912 0.0
H274 H 0.49087 0.35869 0.85428 0.0
H275 H 0.46792 0.26634 0.85179 0.0
H276 H 0.65856 0.32702 0.81531 0.0
H277 H 0.70269 0.31096 0.83504 0.0
H278 H 0.70463 0.3709 0.8433 0.0
H279 H 0.68936 0.34677 0.90024 0.0
H280 H 0.68772 0.28644 0.89266 0.0
H281 H 0.63341 0.28548 0.91181 0.0
H282 H 0.46479 0.18176 0.8438 0.0
H283 H 0.4829 0.11363 0.82587 0.0
H284 H 0.64912 0.21589 0.84306 0.0
C285 C 0.61378 0.37547 0.86647 0.0
C286 C 0.57437 0.38886 0.86243 0.0
C287 C 0.52147 0.34904 0.85775 0.0
C288 C 0.50811 0.29654 0.85651 0.0
C289 C 0.54818 0.2847 0.85985 0.0
C290 C 0.60004 0.32316 0.8646 0.0
C291 C 0.63679 0.30153 0.86274 0.0
C292 C 0.67803 0.3292 0.83757 0.0
C293 C 0.66337 0.30527 0.89371 0.0
C294 C 0.59786 0.24538 0.8547 0.0
C295 C 0.54673 0.23605 0.85413 0.0
C296 C 0.50444 0.18827 0.84483 0.0
C297 C 0.51488 0.14978 0.83486 0.0
C298 C 0.5671 0.15964 0.83389 0.0
C299 C 0.60884 0.20735 0.84465 0.0
H300 H 0.6574 0.84348 0.55889 0.0
H301 H 0.53988 0.81882 0.48983 0.0
H302 H 0.51247 0.7261 0.48767 0.0
H303 H 0.69537 0.75744 0.52569 0.0
H304 H 0.70451 0.73306 0.56166 0.0
H305 H 0.714 0.79781 0.55914 0.0
H306 H 0.64585 0.77469 0.60211 0.0
H307 H 0.63587 0.70969 0.60455 0.0
H308 H 0.58054 0.71887 0.59785 0.0
H309 H 0.49616 0.63689 0.49288 0.0
H310 H 0.49718 0.5553 0.50256 0.0
H311 H 0.62786 0.63641 0.56559 0.0
C312 C 0.62596 0.81844 0.54337 0.0
C313 C 0.60097 0.8384 0.52449 0.0
C314 C 0.56007 0.80459 0.50431 0.0
C315 C 0.54383 0.7517 0.50304 0.0
C316 C 0.56911 0.73321 0.52187 0.0
C317 C 0.6096 0.76533 0.54146 0.0
C318 C 0.63131 0.73522 0.55819 0.0
C319 C 0.68976 0.75719 0.55071 0.0
C320 C 0.62288 0.7346 0.59272 0.0
C321 C 0.59694 0.68156 0.54463 0.0
C322 C 0.56086 0.68132 0.52408 0.0
C323 C 0.52446 0.63651 0.50871 0.0
C324 C 0.52546 0.59064 0.51415 0.0
C325 C 0.56308 0.59036 0.53433 0.0
C326 C 0.59886 0.63612 0.55003 0.0
H327 H 0.72554 0.51088 0.82423 0.0
H328 H 0.80471 0.67046 0.79089 0.0
H329 H 0.88918 0.67061 0.78997 0.0
H330 H 0.81914 0.52183 0.87437 0.0
H331 H 0.81059 0.45835 0.86725 0.0
H332 H 0.75685 0.4696 0.86056 0.0
H333 H 0.74972 0.43928 0.80401 0.0
H334 H 0.80285 0.42698 0.81181 0.0
H335 H 0.80768 0.46923 0.78066 0.0
H336 H 0.96639 0.65686 0.80088 0.0
H337 H 0.028 0.63098 0.82302 0.0
H338 H 0.89649 0.47982 0.84683 0.0
C339 C 0.76051 0.54572 0.81633 0.0
C340 C 0.759 0.59091 0.80797 0.0
C341 C 0.80529 0.63549 0.79743 0.0
C342 C 0.85323 0.63576 0.7967 0.0
C343 C 0.85351 0.59067 0.8058 0.0
C344 C 0.80802 0.54627 0.81501 0.0
C345 C 0.81873 0.5041 0.8259 0.0
C346 C 0.80027 0.48756 0.85897 0.0
C347 C 0.79324 0.4571 0.80432 0.0
C348 C 0.87797 0.53285 0.82355 0.0
C349 C 0.89746 0.58231 0.8112 0.0
C350 C 0.95151 0.61779 0.80978 0.0
C351 C 0.98619 0.60287 0.82223 0.0
C352 C 0.96643 0.55328 0.83601 0.0
C353 C 0.91201 0.51742 0.83569 0.0
H354 H 0.1962 0.73061 0.13054 0.0
H355 H 0.20923 0.61429 0.18431 0.0
H356 H 0.29787 0.68146 0.20196 0.0
H357 H 0.33711 0.80892 0.10948 0.0
H358 H 0.33878 0.87015 0.11276 0.0
H359 H 0.27855 0.8122 0.10171 0.0
H360 H 0.22975 0.82556 0.14628 0.0
H361 H 0.2897 0.8835 0.1574 0.0
H362 H 0.25502 0.8314 0.18457 0.0
H363 H 0.38064 0.75984 0.21611 0.0
H364 H 0.45389 0.8482 0.22827 0.0
H365 H 0.38813 0.91599 0.16691 0.0
C366 C 0.21833 0.71965 0.14574 0.0
C367 C 0.19684 0.66792 0.15623 0.0
C368 C 0.22577 0.65416 0.17628 0.0
C369 C 0.27598 0.69181 0.18621 0.0
C370 C 0.29626 0.74281 0.17581 0.0
C371 C 0.26855 0.75703 0.1561 0.0
C372 C 0.29838 0.81538 0.15019 0.0
C373 C 0.31414 0.82736 0.11653 0.0
C374 C 0.2663 0.84041 0.16022 0.0
C375 C 0.34619 0.83174 0.17048 0.0
C376 C 0.34438 0.78894 0.18453 0.0
C377 C 0.38279 0.79368 0.20516 0.0
C378 C 0.42388 0.84369 0.21202 0.0
C379 C 0.42573 0.88804 0.19862 0.0
C380 C 0.38713 0.8822 0.17719 0.0
H381 H 0.67807 0.30161 0.46609 0.0
H382 H 0.51979 0.16977 0.47549 0.0
H383 H 0.4855 0.22982 0.48076 0.0
H384 H 0.67025 0.36902 0.52342 0.0
H385 H 0.70849 0.43369 0.50746 0.0
H386 H 0.71925 0.38257 0.49494 0.0
H387 H 0.70138 0.39793 0.43902 0.0
H388 H 0.69135 0.45002 0.4512 0.0
H389 H 0.64113 0.3968 0.42923 0.0
H390 H 0.47083 0.30095 0.49506 0.0
H391 H 0.47714 0.37945 0.5185 0.0
H392 H 0.64503 0.46533 0.50301 0.0
C393 C 0.63597 0.28573 0.46784 0.0
C394 C 0.60121 0.23154 0.46997 0.0
C395 C 0.54666 0.21145 0.47358 0.0
C396 C 0.52691 0.2452 0.47637 0.0
C397 C 0.56242 0.29873 0.47568 0.0
C398 C 0.61587 0.31903 0.47137 0.0
C399 C 0.64665 0.37725 0.47697 0.0
C400 C 0.68858 0.3914 0.5022 0.0
C401 C 0.67158 0.40727 0.44733 0.0
C402 C 0.60263 0.38575 0.48712 0.0
C403 C 0.55417 0.34029 0.48521 0.0
C404 C 0.50826 0.33708 0.49597 0.0
C405 C 0.51209 0.38135 0.50936 0.0
C406 C 0.56142 0.42747 0.51217 0.0
C407 C 0.607 0.43019 0.5005 0.0
H408 H 0.3727 0.64526 0.88513 0.0
H409 H 0.34415 0.4978 0.84896 0.0
H410 H 0.248 0.46277 0.852 0.0
H411 H 0.2591 0.59303 0.93647 0.0
H412 H 0.24709 0.64565 0.92805 0.0
H413 H 0.31317 0.6567 0.9266 0.0
H414 H 0.32198 0.69043 0.87099 0.0
H415 H 0.25611 0.67959 0.87229 0.0
H416 H 0.27389 0.64967 0.84286 0.0
H417 H 0.15505 0.44611 0.85596 0.0
H418 H 0.07327 0.45099 0.85835 0.0
H419 H 0.16403 0.61068 0.88881 0.0
C420 C 0.34628 0.6052 0.87846 0.0
C421 C 0.36577 0.57399 0.86711 0.0
C422 C 0.32993 0.52223 0.85787 0.0
C423 C 0.27534 0.50199 0.85962 0.0
C424 C 0.25744 0.53417 0.8705 0.0
C425 C 0.29192 0.58474 0.87966 0.0
C426 C 0.26304 0.61293 0.88791 0.0
C427 C 0.27109 0.62795 0.92177 0.0
C428 C 0.27975 0.66097 0.86727 0.0
C429 C 0.20692 0.57066 0.88147 0.0
C430 C 0.20431 0.52519 0.87192 0.0
C431 C 0.15663 0.48132 0.86371 0.0
C432 C 0.1106 0.4843 0.8651 0.0
C433 C 0.11295 0.53081 0.8743 0.0
C434 C 0.16149 0.57435 0.88262 0.0
H435 H 0.76332 0.28123 0.15046 0.0
H436 H 0.87959 0.25916 0.1997 0.0
H437 H 0.81101 0.1685 0.21189 0.0
H438 H 0.66218 0.21627 0.20135 0.0
H439 H 0.61018 0.18716 0.17325 0.0
H440 H 0.66952 0.24746 0.1648 0.0
H441 H 0.68369 0.20621 0.11677 0.0
H442 H 0.62402 0.14573 0.12495 0.0
H443 H 0.68517 0.14645 0.12038 0.0
H444 H 0.72792 0.08423 0.22368 0.0
H445 H 0.63665 0.01191 0.23283 0.0
H446 H 0.57576 0.08968 0.17607 0.0
C447 C 0.77471 0.25706 0.16327 0.0
C448 C 0.82677 0.27718 0.17413 0.0
C449 C 0.83996 0.24442 0.19102 0.0
C450 C 0.80131 0.1929 0.19803 0.0
C451 C 0.74999 0.17476 0.18765 0.0
C452 C 0.73679 0.20571 0.17036 0.0
C453 C 0.67827 0.17839 0.16375 0.0
C454 C 0.65362 0.20915 0.17657 0.0
C455 C 0.66715 0.16861 0.12942 0.0
C456 C 0.66025 0.12793 0.181 0.0
C457 C 0.70222 0.12625 0.19435 0.0
C458 C 0.69488 0.08477 0.21296 0.0
C459 C 0.64323 0.04419 0.21817 0.0
C460 C 0.60005 0.04589 0.20502 0.0
C461 C 0.60865 0.08773 0.18591 0.0
H462 H 0.94839 0.43431 0.06382 0.0
H463 H 0.06019 0.59296 0.09121 0.0
H464 H 0.09841 0.61225 0.03991 0.0
H465 H 0.03299 0.41724 0.00863 0.0
H466 H 0.97947 0.38286 0.98195 0.0
H467 H 0.96648 0.3781 0.02224 0.0
H468 H 0.89981 0.4098 0.01326 0.0
H469 H 0.91216 0.41393 0.97304 0.0
H470 H 0.92078 0.47034 0.99311 0.0
H471 H 0.11831 0.61794 0.98486 0.0
H472 H 0.11155 0.61193 0.92872 0.0
H473 H 0.9857 0.45155 0.93557 0.0
C474 C 0.98171 0.47273 0.05921 0.0
C475 C 0.00252 0.51159 0.08194 0.0
C476 C 0.04484 0.56196 0.0746 0.0
C477 C 0.0668 0.57336 0.04545 0.0
C478 C 0.04557 0.53422 0.02362 0.0
C479 C 0.0035 0.48509 0.02998 0.0
C480 C 0.98363 0.45232 0.0014 0.0
C481 C 0.99111 0.40481 0.0037 0.0
C482 C 0.92569 0.43565 0.99482 0.0
C483 C 0.02012 0.49121 0.97791 0.0
C484 C 0.05635 0.53783 0.99135 0.0
C485 C 0.09115 0.58123 0.97412 0.0
C486 C 0.08764 0.5774 0.94231 0.0
C487 C 0.04974 0.53068 0.92818 0.0
C488 C 0.01636 0.48682 0.94615 0.0
H489 H 0.59852 0.96837 0.40989 0.0
H490 H 0.66052 0.13448 0.41849 0.0
H491 H 0.65338 0.14213 0.36277 0.0
H492 H 0.65485 0.97114 0.33254 0.0
H493 H 0.59555 0.91245 0.32127 0.0
H494 H 0.61633 0.9221 0.36064 0.0
H495 H 0.52513 0.9078 0.376 0.0
H496 H 0.50443 0.89908 0.33675 0.0
H497 H 0.50212 0.94835 0.3591 0.0
H498 H 0.62528 0.1292 0.3079 0.0
H499 H 0.5806 0.09612 0.25791 0.0
H500 H 0.53824 0.93926 0.28497 0.0
C501 C 0.61284 0.0066 0.39979 0.0
C502 C 0.63085 0.05106 0.41819 0.0
C503 C 0.64707 0.1002 0.40453 0.0
C504 C 0.64326 0.10488 0.37295 0.0
C505 C 0.62307 0.05994 0.35543 0.0
C506 C 0.6086 0.01176 0.36831 0.0
C507 C 0.5817 0.96858 0.34516 0.0
C508 C 0.61407 0.94202 0.33957 0.0
C509 C 0.52502 0.92864 0.35485 0.0
C510 C 0.582 -0.00024 0.31763 0.0
C511 C 0.6064 0.05244 0.32382 0.0
C512 C 0.60705 0.08816 0.30258 0.0
C513 C 0.58162 0.06926 0.27441 0.0
C514 C 0.55592 0.01536 0.26806 0.0
C515 C 0.55729 0.9806 0.28963 0.0
H516 H 0.61725 0.56302 0.74075 0.0
H517 H 0.48327 0.58571 0.74782 0.0
H518 H 0.4742 0.58215 0.69145 0.0
H519 H 0.67081 0.64015 0.67036 0.0
H520 H 0.69194 0.59677 0.65667 0.0
H521 H 0.69004 0.60606 0.69703 0.0
H522 H 0.62983 0.50611 0.70435 0.0
H523 H 0.6312 0.49656 0.66408 0.0
H524 H 0.56899 0.47209 0.68301 0.0
H525 H 0.47473 0.56596 0.63434 0.0
H526 H 0.48692 0.54204 0.58229 0.0
H527 H 0.62299 0.53484 0.61377 0.0
C528 C 0.58623 0.56777 0.7305 0.0
C529 C 0.55062 0.57417 0.74859 0.0
C530 C 0.51097 0.5808 0.7343 0.0
C531 C 0.50559 0.57884 0.70235 0.0
C532 C 0.54086 0.57131 0.68522 0.0
C533 C 0.58085 0.56664 0.6989 0.0
C534 C 0.61259 0.55695 0.67586 0.0
C535 C 0.66973 0.60272 0.67493 0.0
C536 C 0.61048 0.50483 0.68221 0.0
C537 C 0.583 0.55467 0.64706 0.0
C538 C 0.542 0.56349 0.65272 0.0
C539 C 0.50728 0.55994 0.62965 0.0
C540 C 0.51444 0.54648 0.60024 0.0
C541 C 0.55592 0.53686 0.59434 0.0
C542 C 0.59097 0.54193 0.61792 0.0
H543 H 0.64826 0.02842 0.60923 0.0
H544 H 0.52991 0.06263 0.57516 0.0
H545 H 0.50413 0.06694 0.62772 0.0
H546 H 0.57536 0.95237 0.67793 0.0
H547 H 0.63361 0.98029 0.70167 0.0
H548 H 0.63867 0.97258 0.66139 0.0
H549 H 0.70727 0.07117 0.6565 0.0
H550 H 0.70244 0.0791 0.6967 0.0
H551 H 0.69075 0.11836 0.66967 0.0
H552 H 0.49433 0.07325 0.68244 0.0
H553 H 0.50522 0.0875 0.73799 0.0
H554 H 0.63249 0.05428 0.73863 0.0
C555 C 0.61634 0.03582 0.61306 0.0
C556 C 0.59064 0.04488 0.58837 0.0
C557 C 0.54988 0.05564 0.59393 0.0
C558 C 0.53477 0.0578 0.62364 0.0
C559 C 0.56118 0.0496 0.64759 0.0
C560 C 0.60134 0.03918 0.64285 0.0
C561 C 0.62634 0.0371 0.67296 0.0
C562 C 0.61798 0.98231 0.67883 0.0
C563 C 0.68518 0.07893 0.67401 0.0
C564 C 0.59478 0.04929 0.69507 0.0
C565 C 0.55678 0.05529 0.67979 0.0
C566 C 0.52376 0.06849 0.69472 0.0
C567 C 0.53034 0.0768 0.7261 0.0
C568 C 0.56996 0.07255 0.74211 0.0
C569 C 0.60195 0.0576 0.72662 0.0
H570 H 0.56892 0.6501 0.93468 0.0
H571 H 0.60762 0.53257 0.90991 0.0
H572 H 0.60729 0.50987 0.96404 0.0
H573 H 0.64438 0.68647 0.01043 0.0
H574 H 0.59429 0.6952 0.02791 0.0
H575 H 0.60873 0.70991 0.98801 0.0
H576 H 0.5103 0.64699 0.97478 0.0
H577 H 0.49574 0.63179 0.01444 0.0
H578 H 0.47903 0.58008 0.98765 0.0
H579 H 0.58148 0.48562 0.01808 0.0
H580 H 0.53966 0.46737 0.06851 0.0
H581 H 0.52597 0.6052 0.06044 0.0
C582 C 0.57925 0.62094 0.94073 0.0
C583 C 0.58833 0.59315 0.91802 0.0
C584 C 0.60091 0.55468 0.92685 0.0
C585 C 0.60088 0.54152 0.95761 0.0
C586 C 0.58941 0.56802 0.97935 0.0
C587 C 0.58 0.60779 0.97139 0.0
C588 C 0.5634 0.62647 0.99875 0.0
C589 C 0.6052 0.68287 0.00675 0.0
C590 C 0.5089 0.62096 0.99358 0.0
C591 C 0.56143 0.58862 0.02281 0.0
C592 C 0.57725 0.55564 0.01129 0.0
C593 C 0.57135 0.51265 0.02785 0.0
C594 C 0.54804 0.50277 0.05665 0.0
C595 C 0.53163 0.53609 0.06873 0.0
C596 C 0.5397 0.58017 0.05188 0.0
H597 H 0.05926 0.5004 0.25264 0.0
H598 H 0.89346 0.45233 0.25538 0.0
H599 H 0.89731 0.45287 0.31184 0.0
H600 H 0.0595 0.42576 0.32098 0.0
H601 H 0.12436 0.47667 0.33228 0.0
H602 H 0.10644 0.46632 0.29249 0.0
H603 H 0.13143 0.56316 0.28681 0.0
H604 H 0.14924 0.57373 0.32649 0.0
H605 H 0.10109 0.58859 0.31132 0.0
H606 H 0.92341 0.47116 0.36788 0.0
H607 H 0.96885 0.503 0.41774 0.0
H608 H 0.11521 0.53296 0.37778 0.0
C609 C 0.02347 0.48917 0.26507 0.0
C610 C 0.9761 0.4766 0.24966 0.0
C611 C 0.93012 0.46193 0.26676 0.0
C612 C 0.93197 0.46209 0.2988 0.0
C613 C 0.97978 0.47593 0.31327 0.0
C614 C 0.02448 0.48846 0.29685 0.0
C615 C 0.07179 0.50488 0.31747 0.0
C616 C 0.09168 0.46608 0.3157 0.0
C617 C 0.11595 0.5609 0.31007 0.0
C618 C 0.04744 0.50189 0.34804 0.0
C619 C 0.99423 0.48472 0.34533 0.0
C620 C 0.96475 0.48355 0.37031 0.0
C621 C 0.99067 0.50151 0.39849 0.0
C622 C 0.0453 0.52031 0.40131 0.0
C623 C 0.07342 0.51883 0.37602 0.0
loop_
_geom_bond_atom_site_label_1
_geom_bond_atom_site_label_2
_geom_bond_distance
_geom_bond_site_symmetry_2
_ccdc_geom_bond_type
Zn0 O6 1.969 . S
Zn0 O7 1.965 . S
Zn0 O11 2.024 . S
Zn0 O16 1.969 . S
Zn1 O8 1.969 . S
Zn1 O14 1.969 . S
Zn1 O15 1.965 . S
Zn1 O17 2.024 . S
C2 O3 1.229 . S
C2 O11 1.058 . S
O3 C2 1.229 . S
C4 O5 1.229 . S
C4 O17 1.058 . S
O5 C4 1.229 . S
O6 Zn0 1.969 . S
O6 C9 1.267 . S
O7 Zn0 1.965 . S
O7 C18 1.260 1_455 S
O8 Zn1 1.969 . S
O8 C18 1.258 . S
C9 O6 1.267 . S
C9 O10 1.228 . S
O10 C9 1.228 . S
O11 Zn0 2.024 . S
O11 C2 1.058 . S
C12 O13 1.228 . S
C12 O14 1.267 . S
O13 C12 1.228 . S
O14 Zn1 1.969 . S
O14 C12 1.267 . S
O15 Zn1 1.965 . S
O15 C19 1.260 1_655 S
O16 Zn0 1.969 . S
O16 C19 1.258 . S
O17 Zn1 2.024 . S
O17 C4 1.058 . S
C18 O7 1.260 1_655 S
C18 O8 1.258 . S
C19 O15 1.260 1_455 S
C19 O16 1.258 . S
Zn20 O26 1.969 . S
Zn20 O27 1.965 . S
Zn20 O31 2.024 . S
Zn20 O36 1.969 . S
Zn21 O28 1.969 . S
Zn21 O34 1.969 . S
Zn21 O35 1.965 1_565 S
Zn21 O37 2.024 . S
C22 O23 1.229 . S
C22 O31 1.058 . S
O23 C22 1.229 . S
C24 O25 1.229 . S
C24 O37 1.058 . S
O25 C24 1.229 . S
O26 Zn20 1.969 . S
O26 C29 1.267 . S
O27 Zn20 1.965 . S
O27 C38 1.260 . S
O28 Zn21 1.969 . S
O28 C38 1.258 1_565 S
C29 O26 1.267 . S
C29 O30 1.228 . S
O30 C29 1.228 . S
O31 Zn20 2.024 . S
O31 C22 1.058 . S
C32 O33 1.228 . S
C32 O34 1.267 . S
O33 C32 1.228 . S
O34 Zn21 1.969 . S
O34 C32 1.267 . S
O35 Zn21 1.965 1_545 S
O35 C39 1.260 . S
O36 Zn20 1.969 . S
O36 C39 1.258 . S
O37 Zn21 2.024 . S
O37 C24 1.058 . S
C38 O27 1.260 . S
C38 O28 1.258 1_545 S
C39 O35 1.260 . S
C39 O36 1.258 . S
Zn40 O46 1.969 . S
Zn40 O47 1.965 . S
Zn40 O51 2.024 . S
Zn40 O56 1.969 . S
Zn41 O48 1.969 . S
Zn41 O54 1.969 . S
Zn41 O55 1.965 . S
Zn41 O57 2.024 . S
C42 O43 1.229 . S
C42 O51 1.058 . S
O43 C42 1.229 . S
C44 O45 1.229 . S
C44 O57 1.058 . S
O45 C44 1.229 . S
O46 Zn40 1.969 . S
O46 C49 1.267 . S
O47 Zn40 1.965 . S
O47 C58 1.260 . S
O48 Zn41 1.969 . S
O48 C58 1.258 . S
C49 O46 1.267 . S
C49 O50 1.228 . S
O50 C49 1.228 . S
O51 Zn40 2.024 . S
O51 C42 1.058 . S
C52 O53 1.228 . S
C52 O54 1.267 . S
O53 C52 1.228 . S
O54 Zn41 1.969 . S
O54 C52 1.267 . S
O55 Zn41 1.965 . S
O55 C59 1.260 . S
O56 Zn40 1.969 . S
O56 C59 1.258 . S
O57 Zn41 2.024 . S
O57 C44 1.058 . S
C58 O47 1.260 . S
C58 O48 1.258 . S
C59 O55 1.260 . S
C59 O56 1.258 . S
C60 N61 1.317 . S
C60 N62 1.348 1_545 S
C60 C63 1.485 . S
N61 C60 1.317 . S
N61 N65 1.370 . S
N62 C60 1.348 1_565 S
N62 C64 1.346 . S
C63 C60 1.485 . S
C63 H67 0.960 . S
C63 H68 0.961 1_545 S
C63 H69 0.960 . S
C64 N62 1.346 . S
C64 N65 1.307 1_565 S
C64 C66 1.486 . S
N65 N61 1.370 . S
N65 C64 1.307 1_545 S
C66 C64 1.486 . S
C66 H70 0.960 . S
C66 H71 0.960 . S
C66 H72 0.959 . S
H67 C63 0.960 . S
H68 C63 0.961 1_565 S
H69 C63 0.960 . S
H70 C66 0.960 . S
H71 C66 0.960 . S
H72 C66 0.959 . S
C73 N74 1.317 . S
C73 N75 1.348 . S
C73 C76 1.485 . S
N74 C73 1.317 . S
N74 N78 1.370 . S
N75 C73 1.348 . S
N75 C77 1.346 . S
C76 C73 1.485 . S
C76 H80 0.960 . S
C76 H81 0.961 . S
C76 H82 0.960 . S
C77 N75 1.346 . S
C77 N78 1.307 . S
C77 C79 1.486 . S
N78 N74 1.370 . S
N78 C77 1.307 . S
C79 C77 1.486 . S
C79 H83 0.960 . S
C79 H84 0.960 . S
C79 H85 0.959 . S
H80 C76 0.960 . S
H81 C76 0.961 . S
H82 C76 0.960 . S
H83 C79 0.960 . S
H84 C79 0.960 . S
H85 C79 0.959 . S
C86 N87 1.317 . S
C86 N88 1.348 . S
C86 C89 1.485 . S
N87 C86 1.317 . S
N87 N91 1.370 . S
N88 C86 1.348 . S
N88 C90 1.346 . S
C89 C86 1.485 . S
C89 H93 0.960 . S
C89 H94 0.961 . S
C89 H95 0.960 . S
C90 N88 1.346 . S
C90 N91 1.307 . S
C90 C92 1.486 1_455 S
N91 N87 1.370 . S
N91 C90 1.307 . S
C92 C90 1.486 1_655 S
C92 H96 0.960 . S
C92 H97 0.960 . S
C92 H98 0.959 . S
H93 C89 0.960 . S
H94 C89 0.961 . S
H95 C89 0.960 . S
H96 C92 0.960 . S
H97 C92 0.960 . S
H98 C92 0.959 . S
C99 N100 1.317 . S
C99 N101 1.348 . S
C99 C102 1.485 . S
N100 C99 1.317 . S
N100 N104 1.370 . S
N101 C99 1.348 . S
N101 C103 1.346 . S
C102 C99 1.485 . S
C102 H106 0.960 . S
C102 H107 0.961 . S
C102 H108 0.960 . S
C103 N101 1.346 . S
C103 N104 1.307 . S
C103 C105 1.486 . S
N104 N100 1.370 . S
N104 C103 1.307 . S
C105 C103 1.486 . S
C105 H109 0.960 . S
C105 H110 0.960 . S
C105 H111 0.959 . S
H106 C102 0.960 . S
H107 C102 0.961 . S
H108 C102 0.960 . S
H109 C105 0.960 . S
H110 C105 0.960 . S
H111 C105 0.959 . S
C112 N113 1.317 . S
C112 N114 1.348 . S
C112 C115 1.485 . S
N113 C112 1.317 . S
N113 N117 1.370 . S
N114 C112 1.348 . S
N114 C116 1.346 . S
C115 C112 1.485 . S
C115 H119 0.960 . S
C115 H120 0.961 . S
C115 H121 0.960 . S
C116 N114 1.346 . S
C116 N117 1.307 . S
C116 C118 1.486 . S
N117 N113 1.370 . S
N117 C116 1.307 . S
C118 C116 1.486 . S
C118 H122 0.960 . S
C118 H123 0.960 . S
C118 H124 0.959 . S
H119 C115 0.960 . S
H120 C115 0.961 . S
H121 C115 0.960 . S
H122 C118 0.960 . S
H123 C118 0.960 . S
H124 C118 0.959 . S
C125 N126 1.317 . S
C125 N127 1.348 . S
C125 C128 1.485 . S
N126 C125 1.317 . S
N126 N130 1.370 . S
N127 C125 1.348 . S
N127 C129 1.346 . S
C128 C125 1.485 . S
C128 H132 0.960 . S
C128 H133 0.961 . S
C128 H134 0.960 . S
C129 N127 1.346 . S
C129 N130 1.307 . S
C129 C131 1.486 . S
N130 N126 1.370 . S
N130 C129 1.307 . S
C131 C129 1.486 . S
C131 H135 0.960 . S
C131 H136 0.960 . S
C131 H137 0.959 . S
H132 C128 0.960 . S
H133 C128 0.961 . S
H134 C128 0.960 . S
H135 C131 0.960 . S
H136 C131 0.960 . S
H137 C131 0.959 . S
H138 C150 0.930 . S
H139 C152 0.930 . S
H140 C153 0.930 . S
H141 C157 0.959 . S
H142 C157 0.959 . S
H143 C157 0.961 . S
H144 C158 0.960 . S
H145 C158 0.961 . S
H146 C158 0.959 . S
H147 C161 0.929 . S
H148 C162 0.931 . S
H149 C164 0.930 . S
C150 H138 0.930 . S
C150 C151 1.399 . S
C150 C155 1.399 . S
C151 C150 1.399 . S
C151 C152 1.376 . S
C152 H139 0.930 . S
C152 C151 1.376 . S
C152 C153 1.388 . S
C153 H140 0.930 . S
C153 C152 1.388 . S
C153 C154 1.390 . S
C154 C153 1.390 . S
C154 C155 1.394 . S
C154 C160 1.465 . S
C155 C150 1.399 . S
C155 C154 1.394 . S
C155 C156 1.516 . S
C156 C155 1.516 . S
C156 C157 1.502 . S
C156 C158 1.561 . S
C156 C159 1.526 . S
C157 H141 0.959 . S
C157 H142 0.959 . S
C157 H143 0.961 . S
C157 C156 1.502 . S
C158 H144 0.960 . S
C158 H145 0.961 . S
C158 H146 0.959 . S
C158 C156 1.561 . S
C159 C156 1.526 . S
C159 C160 1.396 . S
C159 C164 1.390 . S
C160 C154 1.465 . S
C160 C159 1.396 . S
C160 C161 1.399 . S
C161 H147 0.929 . S
C161 C160 1.399 . S
C161 C162 1.385 . S
C162 H148 0.931 . S
C162 C161 1.385 . S
C162 C163 1.389 . S
C163 C162 1.389 . S
C163 C164 1.387 . S
C164 H149 0.930 . S
C164 C159 1.390 . S
C164 C163 1.387 . S
H165 C177 0.930 . S
H166 C179 0.930 . S
H167 C180 0.930 . S
H168 C184 0.959 . S
H169 C184 0.959 . S
H170 C184 0.961 . S
H171 C185 0.960 . S
H172 C185 0.961 . S
H173 C185 0.959 . S
H174 C188 0.929 . S
H175 C189 0.931 1_455 S
H176 C191 0.930 . S
C177 H165 0.930 . S
C177 C178 1.399 . S
C177 C182 1.399 . S
C178 C177 1.399 . S
C178 C179 1.376 . S
C179 H166 0.930 . S
C179 C178 1.376 . S
C179 C180 1.388 . S
C180 H167 0.930 . S
C180 C179 1.388 . S
C180 C181 1.390 . S
C181 C180 1.390 . S
C181 C182 1.394 . S
C181 C187 1.465 . S
C182 C177 1.399 . S
C182 C181 1.394 . S
C182 C183 1.516 . S
C183 C182 1.516 . S
C183 C184 1.502 . S
C183 C185 1.561 . S
C183 C186 1.526 . S
C184 H168 0.959 . S
C184 H169 0.959 . S
C184 H170 0.961 . S
C184 C183 1.502 . S
C185 H171 0.960 . S
C185 H172 0.961 . S
C185 H173 0.959 . S
C185 C183 1.561 . S
C186 C183 1.526 . S
C186 C187 1.396 . S
C186 C191 1.390 . S
C187 C181 1.465 . S
C187 C186 1.396 . S
C187 C188 1.399 . S
C188 H174 0.929 . S
C188 C187 1.399 . S
C188 C189 1.385 . S
C189 H175 0.931 1_655 S
C189 C188 1.385 . S
C189 C190 1.389 . S
C190 C189 1.389 . S
C190 C191 1.387 . S
C191 H176 0.930 . S
C191 C186 1.390 . S
C191 C190 1.387 . S
H192 C204 0.930 . S
H193 C206 0.930 . S
H194 C207 0.930 . S
H195 C211 0.959 . S
H196 C211 0.959 . S
H197 C211 0.961 . S
H198 C212 0.960 . S
H199 C212 0.961 . S
H200 C212 0.959 . S
H201 C215 0.929 . S
H202 C216 0.931 . S
H203 C218 0.930 . S
C204 H192 0.930 . S
C204 C205 1.399 . S
C204 C209 1.399 . S
C205 C204 1.399 . S
C205 C206 1.376 . S
C206 H193 0.930 . S
C206 C205 1.376 . S
C206 C207 1.388 . S
C207 H194 0.930 . S
C207 C206 1.388 . S
C207 C208 1.390 . S
C208 C207 1.390 . S
C208 C209 1.394 . S
C208 C214 1.465 . S
C209 C204 1.399 . S
C209 C208 1.394 . S
C209 C210 1.516 . S
C210 C209 1.516 . S
C210 C211 1.502 . S
C210 C212 1.561 . S
C210 C213 1.526 . S
C211 H195 0.959 . S
C211 H196 0.959 . S
C211 H197 0.961 . S
C211 C210 1.502 . S
C212 H198 0.960 . S
C212 H199 0.961 . S
C212 H200 0.959 . S
C212 C210 1.561 . S
C213 C210 1.526 . S
C213 C214 1.396 . S
C213 C218 1.390 . S
C214 C208 1.465 . S
C214 C213 1.396 . S
C214 C215 1.399 . S
C215 H201 0.929 . S
C215 C214 1.399 . S
C215 C216 1.385 . S
C216 H202 0.931 . S
C216 C215 1.385 . S
C216 C217 1.389 . S
C217 C216 1.389 . S
C217 C218 1.387 . S
C218 H203 0.930 . S
C218 C213 1.390 . S
C218 C217 1.387 . S
H219 C231 0.930 . S
H220 C233 0.930 . S
H221 C234 0.930 . S
H222 C238 0.959 . S
H223 C238 0.959 . S
H224 C238 0.961 . S
H225 C239 0.960 . S
H226 C239 0.961 . S
H227 C239 0.959 . S
H228 C242 0.929 . S
H229 C243 0.931 . S
H230 C245 0.930 . S
C231 H219 0.930 . S
C231 C232 1.399 . S
C231 C236 1.399 . S
C232 C231 1.399 . S
C232 C233 1.376 . S
C233 H220 0.930 . S
C233 C232 1.376 . S
C233 C234 1.388 . S
C234 H221 0.930 . S
C234 C233 1.388 . S
C234 C235 1.390 . S
C235 C234 1.390 . S
C235 C236 1.394 . S
C235 C241 1.465 . S
C236 C231 1.399 . S
C236 C235 1.394 . S
C236 C237 1.516 . S
C237 C236 1.516 . S
C237 C238 1.502 . S
C237 C239 1.561 . S
C237 C240 1.526 . S
C238 H222 0.959 . S
C238 H223 0.959 . S
C238 H224 0.961 . S
C238 C237 1.502 . S
C239 H225 0.960 . S
C239 H226 0.961 . S
C239 H227 0.959 . S
C239 C237 1.561 . S
C240 C237 1.526 . S
C240 C241 1.396 . S
C240 C245 1.390 . S
C241 C235 1.465 . S
C241 C240 1.396 . S
C241 C242 1.399 . S
C242 H228 0.929 . S
C242 C241 1.399 . S
C242 C243 1.385 . S
C243 H229 0.931 . S
C243 C242 1.385 . S
C243 C244 1.389 . S
C244 C243 1.389 . S
C244 C245 1.387 . S
C245 H230 0.930 . S
C245 C240 1.390 . S
C245 C244 1.387 . S
H246 C258 0.930 . S
H247 C260 0.930 . S
H248 C261 0.930 . S
H249 C265 0.959 . S
H250 C265 0.959 . S
H251 C265 0.961 . S
H252 C266 0.960 . S
H253 C266 0.961 . S
H254 C266 0.959 . S
H255 C269 0.929 . S
H256 C270 0.931 . S
H257 C272 0.930 . S
C258 H246 0.930 . S
C258 C259 1.399 . S
C258 C263 1.399 . S
C259 C258 1.399 . S
C259 C260 1.376 . S
C260 H247 0.930 . S
C260 C259 1.376 . S
C260 C261 1.388 . S
C261 H248 0.930 . S
C261 C260 1.388 . S
C261 C262 1.390 . S
C262 C261 1.390 . S
C262 C263 1.394 . S
C262 C268 1.465 . S
C263 C258 1.399 . S
C263 C262 1.394 . S
C263 C264 1.516 . S
C264 C263 1.516 . S
C264 C265 1.502 . S
C264 C266 1.561 . S
C264 C267 1.526 . S
C265 H249 0.959 . S
C265 H250 0.959 . S
C265 H251 0.961 . S
C265 C264 1.502 . S
C266 H252 0.960 . S
C266 H253 0.961 . S
C266 H254 0.959 . S
C266 C264 1.561 . S
C267 C264 1.526 . S
C267 C268 1.396 . S
C267 C272 1.390 . S
C268 C262 1.465 . S
C268 C267 1.396 . S
C268 C269 1.399 . S
C269 H255 0.929 . S
C269 C268 1.399 . S
C269 C270 1.385 . S
C270 H256 0.931 . S
C270 C269 1.385 . S
C270 C271 1.389 . S
C271 C270 1.389 . S
C271 C272 1.387 . S
C272 H257 0.930 . S
C272 C267 1.390 . S
C272 C271 1.387 . S
H273 C285 0.930 . S
H274 C287 0.930 . S
H275 C288 0.930 . S
H276 C292 0.959 . S
H277 C292 0.959 . S
H278 C292 0.961 . S
H279 C293 0.960 . S
H280 C293 0.961 . S
H281 C293 0.959 . S
H282 C296 0.929 . S
H283 C297 0.931 . S
H284 C299 0.930 . S
C285 H273 0.930 . S
C285 C286 1.399 . S
C285 C290 1.399 . S
C286 C285 1.399 . S
C286 C287 1.376 . S
C287 H274 0.930 . S
C287 C286 1.376 . S
C287 C288 1.388 . S
C288 H275 0.930 . S
C288 C287 1.388 . S
C288 C289 1.390 . S
C289 C288 1.390 . S
C289 C290 1.394 . S
C289 C295 1.465 . S
C290 C285 1.399 . S
C290 C289 1.394 . S
C290 C291 1.516 . S
C291 C290 1.516 . S
C291 C292 1.502 . S
C291 C293 1.561 . S
C291 C294 1.526 . S
C292 H276 0.959 . S
C292 H277 0.959 . S
C292 H278 0.961 . S
C292 C291 1.502 . S
C293 H279 0.960 . S
C293 H280 0.961 . S
C293 H281 0.959 . S
C293 C291 1.561 . S
C294 C291 1.526 . S
C294 C295 1.396 . S
C294 C299 1.390 . S
C295 C289 1.465 . S
C295 C294 1.396 . S
C295 C296 1.399 . S
C296 H282 0.929 . S
C296 C295 1.399 . S
C296 C297 1.385 . S
C297 H283 0.931 . S
C297 C296 1.385 . S
C297 C298 1.389 . S
C298 C297 1.389 . S
C298 C299 1.387 . S
C299 H284 0.930 . S
C299 C294 1.390 . S
C299 C298 1.387 . S
H300 C312 0.930 . S
H301 C314 0.930 . S
H302 C315 0.930 . S
H303 C319 0.959 . S
H304 C319 0.959 . S
H305 C319 0.961 . S
H306 C320 0.960 . S
H307 C320 0.961 . S
H308 C320 0.959 . S
H309 C323 0.929 . S
H310 C324 0.931 . S
H311 C326 0.930 . S
C312 H300 0.930 . S
C312 C313 1.399 . S
C312 C317 1.399 . S
C313 C312 1.399 . S
C313 C314 1.376 . S
C314 H301 0.930 . S
C314 C313 1.376 . S
C314 C315 1.388 . S
C315 H302 0.930 . S
C315 C314 1.388 . S
C315 C316 1.390 . S
C316 C315 1.390 . S
C316 C317 1.394 . S
C316 C322 1.465 . S
C317 C312 1.399 . S
C317 C316 1.394 . S
C317 C318 1.516 . S
C318 C317 1.516 . S
C318 C319 1.502 . S
C318 C320 1.561 . S
C318 C321 1.526 . S
C319 H303 0.959 . S
C319 H304 0.959 . S
C319 H305 0.961 . S
C319 C318 1.502 . S
C320 H306 0.960 . S
C320 H307 0.961 . S
C320 H308 0.959 . S
C320 C318 1.561 . S
C321 C318 1.526 . S
C321 C322 1.396 . S
C321 C326 1.390 . S
C322 C316 1.465 . S
C322 C321 1.396 . S
C322 C323 1.399 . S
C323 H309 0.929 . S
C323 C322 1.399 . S
C323 C324 1.385 . S
C324 H310 0.931 . S
C324 C323 1.385 . S
C324 C325 1.389 . S
C325 C324 1.389 . S
C325 C326 1.387 . S
C326 H311 0.930 . S
C326 C321 1.390 . S
C326 C325 1.387 . S
H327 C339 0.930 . S
H328 C341 0.930 . S
H329 C342 0.930 . S
H330 C346 0.959 . S
H331 C346 0.959 . S
H332 C346 0.961 . S
H333 C347 0.960 . S
H334 C347 0.961 . S
H335 C347 0.959 . S
H336 C350 0.929 . S
H337 C351 0.931 1_455 S
H338 C353 0.930 . S
C339 H327 0.930 . S
C339 C340 1.399 . S
C339 C344 1.399 . S
C340 C339 1.399 . S
C340 C341 1.376 . S
C341 H328 0.930 . S
C341 C340 1.376 . S
C341 C342 1.388 . S
C342 H329 0.930 . S
C342 C341 1.388 . S
C342 C343 1.390 . S
C343 C342 1.390 . S
C343 C344 1.394 . S
C343 C349 1.465 . S
C344 C339 1.399 . S
C344 C343 1.394 . S
C344 C345 1.516 . S
C345 C344 1.516 . S
C345 C346 1.502 . S
C345 C347 1.561 . S
C345 C348 1.526 . S
C346 H330 0.959 . S
C346 H331 0.959 . S
C346 H332 0.961 . S
C346 C345 1.502 . S
C347 H333 0.960 . S
C347 H334 0.961 . S
C347 H335 0.959 . S
C347 C345 1.561 . S
C348 C345 1.526 . S
C348 C349 1.396 . S
C348 C353 1.390 . S
C349 C343 1.465 . S
C349 C348 1.396 . S
C349 C350 1.399 . S
C350 H336 0.929 . S
C350 C349 1.399 . S
C350 C351 1.385 . S
C351 H337 0.931 1_655 S
C351 C350 1.385 . S
C351 C352 1.389 . S
C352 C351 1.389 . S
C352 C353 1.387 . S
C353 H338 0.930 . S
C353 C348 1.390 . S
C353 C352 1.387 . S
H354 C366 0.930 . S
H355 C368 0.930 . S
H356 C369 0.930 . S
H357 C373 0.959 . S
H358 C373 0.959 . S
H359 C373 0.961 . S
H360 C374 0.960 . S
H361 C374 0.961 . S
H362 C374 0.959 . S
H363 C377 0.929 . S
H364 C378 0.931 . S
H365 C380 0.930 . S
C366 H354 0.930 . S
C366 C367 1.399 . S
C366 C371 1.399 . S
C367 C366 1.399 . S
C367 C368 1.376 . S
C368 H355 0.930 . S
C368 C367 1.376 . S
C368 C369 1.388 . S
C369 H356 0.930 . S
C369 C368 1.388 . S
C369 C370 1.390 . S
C370 C369 1.390 . S
C370 C371 1.394 . S
C370 C376 1.465 . S
C371 C366 1.399 . S
C371 C370 1.394 . S
C371 C372 1.516 . S
C372 C371 1.516 . S
C372 C373 1.502 . S
C372 C374 1.561 . S
C372 C375 1.526 . S
C373 H357 0.959 . S
C373 H358 0.959 . S
C373 H359 0.961 . S
C373 C372 1.502 . S
C374 H360 0.960 . S
C374 H361 0.961 . S
C374 H362 0.959 . S
C374 C372 1.561 . S
C375 C372 1.526 . S
C375 C376 1.396 . S
C375 C380 1.390 . S
C376 C370 1.465 . S
C376 C375 1.396 . S
C376 C377 1.399 . S
C377 H363 0.929 . S
C377 C376 1.399 . S
C377 C378 1.385 . S
C378 H364 0.931 . S
C378 C377 1.385 . S
C378 C379 1.389 . S
C379 C378 1.389 . S
C379 C380 1.387 . S
C380 H365 0.930 . S
C380 C375 1.390 . S
C380 C379 1.387 . S
H381 C393 0.930 . S
H382 C395 0.930 . S
H383 C396 0.930 . S
H384 C400 0.959 . S
H385 C400 0.959 . S
H386 C400 0.961 . S
H387 C401 0.960 . S
H388 C401 0.961 . S
H389 C401 0.959 . S
H390 C404 0.929 . S
H391 C405 0.931 . S
H392 C407 0.930 . S
C393 H381 0.930 . S
C393 C394 1.399 . S
C393 C398 1.399 . S
C394 C393 1.399 . S
C394 C395 1.376 . S
C395 H382 0.930 . S
C395 C394 1.376 . S
C395 C396 1.388 . S
C396 H383 0.930 . S
C396 C395 1.388 . S
C396 C397 1.390 . S
C397 C396 1.390 . S
C397 C398 1.394 . S
C397 C403 1.465 . S
C398 C393 1.399 . S
C398 C397 1.394 . S
C398 C399 1.516 . S
C399 C398 1.516 . S
C399 C400 1.502 . S
C399 C401 1.561 . S
C399 C402 1.526 . S
C400 H384 0.959 . S
C400 H385 0.959 . S
C400 H386 0.961 . S
C400 C399 1.502 . S
C401 H387 0.960 . S
C401 H388 0.961 . S
C401 H389 0.959 . S
C401 C399 1.561 . S
C402 C399 1.526 . S
C402 C403 1.396 . S
C402 C407 1.390 . S
C403 C397 1.465 . S
C403 C402 1.396 . S
C403 C404 1.399 . S
C404 H390 0.929 . S
C404 C403 1.399 . S
C404 C405 1.385 . S
C405 H391 0.931 . S
C405 C404 1.385 . S
C405 C406 1.389 . S
C406 C405 1.389 . S
C406 C407 1.387 . S
C407 H392 0.930 . S
C407 C402 1.390 . S
C407 C406 1.387 . S
H408 C420 0.930 . S
H409 C422 0.930 . S
H410 C423 0.930 . S
H411 C427 0.959 . S
H412 C427 0.959 . S
H413 C427 0.961 . S
H414 C428 0.960 . S
H415 C428 0.961 . S
H416 C428 0.959 . S
H417 C431 0.929 . S
H418 C432 0.931 . S
H419 C434 0.930 . S
C420 H408 0.930 . S
C420 C421 1.399 . S
C420 C425 1.399 . S
C421 C420 1.399 . S
C421 C422 1.376 . S
C422 H409 0.930 . S
C422 C421 1.376 . S
C422 C423 1.388 . S
C423 H410 0.930 . S
C423 C422 1.388 . S
C423 C424 1.390 . S
C424 C423 1.390 . S
C424 C425 1.394 . S
C424 C430 1.465 . S
C425 C420 1.399 . S
C425 C424 1.394 . S
C425 C426 1.516 . S
C426 C425 1.516 . S
C426 C427 1.502 . S
C426 C428 1.561 . S
C426 C429 1.526 . S
C427 H411 0.959 . S
C427 H412 0.959 . S
C427 H413 0.961 . S
C427 C426 1.502 . S
C428 H414 0.960 . S
C428 H415 0.961 . S
C428 H416 0.959 . S
C428 C426 1.561 . S
C429 C426 1.526 . S
C429 C430 1.396 . S
C429 C434 1.390 . S
C430 C424 1.465 . S
C430 C429 1.396 . S
C430 C431 1.399 . S
C431 H417 0.929 . S
C431 C430 1.399 . S
C431 C432 1.385 . S
C432 H418 0.931 . S
C432 C431 1.385 . S
C432 C433 1.389 . S
C433 C432 1.389 . S
C433 C434 1.387 . S
C434 H419 0.930 . S
C434 C429 1.390 . S
C434 C433 1.387 . S
H435 C447 0.930 . S
H436 C449 0.930 . S
H437 C450 0.930 . S
H438 C454 0.959 . S
H439 C454 0.959 . S
H440 C454 0.961 . S
H441 C455 0.960 . S
H442 C455 0.961 . S
H443 C455 0.959 . S
H444 C458 0.929 . S
H445 C459 0.931 . S
H446 C461 0.930 . S
C447 H435 0.930 . S
C447 C448 1.399 . S
C447 C452 1.399 . S
C448 C447 1.399 . S
C448 C449 1.376 . S
C449 H436 0.930 . S
C449 C448 1.376 . S
C449 C450 1.388 . S
C450 H437 0.930 . S
C450 C449 1.388 . S
C450 C451 1.390 . S
C451 C450 1.390 . S
C451 C452 1.394 . S
C451 C457 1.465 . S
C452 C447 1.399 . S
C452 C451 1.394 . S
C452 C453 1.516 . S
C453 C452 1.516 . S
C453 C454 1.502 . S
C453 C455 1.561 . S
C453 C456 1.526 . S
C454 H438 0.959 . S
C454 H439 0.959 . S
C454 H440 0.961 . S
C454 C453 1.502 . S
C455 H441 0.960 . S
C455 H442 0.961 . S
C455 H443 0.959 . S
C455 C453 1.561 . S
C456 C453 1.526 . S
C456 C457 1.396 . S
C456 C461 1.390 . S
C457 C451 1.465 . S
C457 C456 1.396 . S
C457 C458 1.399 . S
C458 H444 0.929 . S
C458 C457 1.399 . S
C458 C459 1.385 . S
C459 H445 0.931 . S
C459 C458 1.385 . S
C459 C460 1.389 . S
C460 C459 1.389 . S
C460 C461 1.387 . S
C461 H446 0.930 . S
C461 C456 1.390 . S
C461 C460 1.387 . S
H462 C474 0.930 1_655 S
H463 C476 0.930 . S
H464 C477 0.930 . S
H465 C481 0.959 . S
H466 C481 0.959 1_556 S
H467 C481 0.961 . S
H468 C482 0.960 1_554 S
H469 C482 0.961 . S
H470 C482 0.959 . S
H471 C485 0.929 . S
H472 C486 0.931 . S
H473 C488 0.930 . S
C474 H462 0.930 1_455 S
C474 C475 1.399 . S
C474 C479 1.399 . S
C475 C474 1.399 . S
C475 C476 1.376 . S
C476 H463 0.930 . S
C476 C475 1.376 . S
C476 C477 1.388 . S
C477 H464 0.930 . S
C477 C476 1.388 . S
C477 C478 1.390 . S
C478 C477 1.390 . S
C478 C479 1.394 . S
C478 C484 1.465 1_554 S
C479 C474 1.399 . S
C479 C478 1.394 . S
C479 C480 1.516 . S
C480 C479 1.516 . S
C480 C481 1.502 . S
C480 C482 1.561 1_454 S
C480 C483 1.526 1_554 S
C481 H465 0.959 . S
C481 H466 0.959 1_554 S
C481 H467 0.961 . S
C481 C480 1.502 . S
C482 H468 0.960 1_556 S
C482 H469 0.961 . S
C482 H470 0.959 . S
C482 C480 1.561 1_656 S
C483 C480 1.526 1_556 S
C483 C484 1.396 . S
C483 C488 1.390 . S
C484 C478 1.465 1_556 S
C484 C483 1.396 . S
C484 C485 1.399 . S
C485 H471 0.929 . S
C485 C484 1.399 . S
C485 C486 1.385 . S
C486 H472 0.931 . S
C486 C485 1.385 . S
C486 C487 1.389 . S
C487 C486 1.389 . S
C487 C488 1.387 . S
C488 H473 0.930 . S
C488 C483 1.390 . S
C488 C487 1.387 . S
H489 C501 0.930 . S
H490 C503 0.930 . S
H491 C504 0.930 . S
H492 C508 0.959 . S
H493 C508 0.959 . S
H494 C508 0.961 . S
H495 C509 0.960 . S
H496 C509 0.961 . S
H497 C509 0.959 . S
H498 C512 0.929 . S
H499 C513 0.931 . S
H500 C515 0.930 . S
C501 H489 0.930 . S
C501 C502 1.399 1_565 S
C501 C506 1.399 1_565 S
C502 C501 1.399 1_545 S
C502 C503 1.376 . S
C503 H490 0.930 . S
C503 C502 1.376 . S
C503 C504 1.388 . S
C504 H491 0.930 . S
C504 C503 1.388 . S
C504 C505 1.390 . S
C505 C504 1.390 . S
C505 C506 1.394 . S
C505 C511 1.465 . S
C506 C501 1.399 1_545 S
C506 C505 1.394 . S
C506 C507 1.516 1_545 S
C507 C506 1.516 1_565 S
C507 C508 1.502 . S
C507 C509 1.561 . S
C507 C510 1.526 1_565 S
C508 H492 0.959 . S
C508 H493 0.959 . S
C508 H494 0.961 . S
C508 C507 1.502 . S
C509 H495 0.960 . S
C509 H496 0.961 . S
C509 H497 0.959 . S
C509 C507 1.561 . S
C510 C507 1.526 1_545 S
C510 C511 1.396 . S
C510 C515 1.390 1_545 S
C511 C505 1.465 . S
C511 C510 1.396 . S
C511 C512 1.399 . S
C512 H498 0.929 . S
C512 C511 1.399 . S
C512 C513 1.385 . S
C513 H499 0.931 . S
C513 C512 1.385 . S
C513 C514 1.389 . S
C514 C513 1.389 . S
C514 C515 1.387 1_545 S
C515 H500 0.930 . S
C515 C510 1.390 1_565 S
C515 C514 1.387 1_565 S
H516 C528 0.930 . S
H517 C530 0.930 . S
H518 C531 0.930 . S
H519 C535 0.959 . S
H520 C535 0.959 . S
H521 C535 0.961 . S
H522 C536 0.960 . S
H523 C536 0.961 . S
H524 C536 0.959 . S
H525 C539 0.929 . S
H526 C540 0.931 . S
H527 C542 0.930 . S
C528 H516 0.930 . S
C528 C529 1.399 . S
C528 C533 1.399 . S
C529 C528 1.399 . S
C529 C530 1.376 . S
C530 H517 0.930 . S
C530 C529 1.376 . S
C530 C531 1.388 . S
C531 H518 0.930 . S
C531 C530 1.388 . S
C531 C532 1.390 . S
C532 C531 1.390 . S
C532 C533 1.394 . S
C532 C538 1.465 . S
C533 C528 1.399 . S
C533 C532 1.394 . S
C533 C534 1.516 . S
C534 C533 1.516 . S
C534 C535 1.502 . S
C534 C536 1.561 . S
C534 C537 1.526 . S
C535 H519 0.959 . S
C535 H520 0.959 . S
C535 H521 0.961 . S
C535 C534 1.502 . S
C536 H522 0.960 . S
C536 H523 0.961 . S
C536 H524 0.959 . S
C536 C534 1.561 . S
C537 C534 1.526 . S
C537 C538 1.396 . S
C537 C542 1.390 . S
C538 C532 1.465 . S
C538 C537 1.396 . S
C538 C539 1.399 . S
C539 H525 0.929 . S
C539 C538 1.399 . S
C539 C540 1.385 . S
C540 H526 0.931 . S
C540 C539 1.385 . S
C540 C541 1.389 . S
C541 C540 1.389 . S
C541 C542 1.387 . S
C542 H527 0.930 . S
C542 C537 1.390 . S
C542 C541 1.387 . S
H543 C555 0.930 1_565 S
H544 C557 0.930 . S
H545 C558 0.930 . S
H546 C562 0.959 . S
H547 C562 0.959 . S
H548 C562 0.961 . S
H549 C563 0.960 1_565 S
H550 C563 0.961 1_565 S
H551 C563 0.959 . S
H552 C566 0.929 . S
H553 C567 0.931 . S
H554 C569 0.930 1_565 S
C555 H543 0.930 1_545 S
C555 C556 1.399 . S
C555 C560 1.399 . S
C556 C555 1.399 . S
C556 C557 1.376 . S
C557 H544 0.930 . S
C557 C556 1.376 . S
C557 C558 1.388 . S
C558 H545 0.930 . S
C558 C557 1.388 . S
C558 C559 1.390 . S
C559 C558 1.390 . S
C559 C560 1.394 . S
C559 C565 1.465 . S
C560 C555 1.399 . S
C560 C559 1.394 . S
C560 C561 1.516 1_545 S
C561 C560 1.516 1_565 S
C561 C562 1.502 . S
C561 C563 1.561 1_565 S
C561 C564 1.526 1_565 S
C562 H546 0.959 . S
C562 H547 0.959 . S
C562 H548 0.961 . S
C562 C561 1.502 . S
C563 H549 0.960 1_545 S
C563 H550 0.961 1_545 S
C563 H551 0.959 . S
C563 C561 1.561 1_545 S
C564 C561 1.526 1_545 S
C564 C565 1.396 . S
C564 C569 1.390 . S
C565 C559 1.465 . S
C565 C564 1.396 . S
C565 C566 1.399 . S
C566 H552 0.929 . S
C566 C565 1.399 . S
C566 C567 1.385 . S
C567 H553 0.931 . S
C567 C566 1.385 . S
C567 C568 1.389 . S
C568 C567 1.389 . S
C568 C569 1.387 . S
C569 H554 0.930 1_545 S
C569 C564 1.390 . S
C569 C568 1.387 . S
H570 C582 0.930 . S
H571 C584 0.930 . S
H572 C585 0.930 . S
H573 C589 0.959 . S
H574 C589 0.959 1_554 S
H575 C589 0.961 . S
H576 C590 0.960 . S
H577 C590 0.961 1_554 S
H578 C590 0.959 . S
H579 C593 0.929 . S
H580 C594 0.931 . S
H581 C596 0.930 . S
C582 H570 0.930 . S
C582 C583 1.399 . S
C582 C587 1.399 . S
C583 C582 1.399 . S
C583 C584 1.376 . S
C584 H571 0.930 . S
C584 C583 1.376 . S
C584 C585 1.388 . S
C585 H572 0.930 . S
C585 C584 1.388 . S
C585 C586 1.390 . S
C586 C585 1.390 . S
C586 C587 1.394 . S
C586 C592 1.465 1_556 S
C587 C582 1.399 . S
C587 C586 1.394 . S
C587 C588 1.516 . S
C588 C587 1.516 . S
C588 C589 1.502 . S
C588 C590 1.561 . S
C588 C591 1.526 1_556 S
C589 H573 0.959 . S
C589 H574 0.959 1_556 S
C589 H575 0.961 . S
C589 C588 1.502 . S
C590 H576 0.960 . S
C590 H577 0.961 1_556 S
C590 H578 0.959 . S
C590 C588 1.561 . S
C591 C588 1.526 1_554 S
C591 C592 1.396 . S
C591 C596 1.390 . S
C592 C586 1.465 1_554 S
C592 C591 1.396 . S
C592 C593 1.399 . S
C593 H579 0.929 . S
C593 C592 1.399 . S
C593 C594 1.385 . S
C594 H580 0.931 . S
C594 C593 1.385 . S
C594 C595 1.389 . S
C595 C594 1.389 . S
C595 C596 1.387 . S
C596 H581 0.930 . S
C596 C591 1.390 . S
C596 C595 1.387 . S
H597 C609 0.930 . S
H598 C611 0.930 . S
H599 C612 0.930 . S
H600 C616 0.959 . S
H601 C616 0.959 . S
H602 C616 0.961 . S
H603 C617 0.960 . S
H604 C617 0.961 . S
H605 C617 0.959 . S
H606 C620 0.929 . S
H607 C621 0.931 . S
H608 C623 0.930 . S
C609 H597 0.930 . S
C609 C610 1.399 1_455 S
C609 C614 1.399 . S
C610 C609 1.399 1_655 S
C610 C611 1.376 . S
C611 H598 0.930 . S
C611 C610 1.376 . S
C611 C612 1.388 . S
C612 H599 0.930 . S
C612 C611 1.388 . S
C612 C613 1.390 . S
C613 C612 1.390 . S
C613 C614 1.394 1_655 S
C613 C619 1.465 . S
C614 C609 1.399 . S
C614 C613 1.394 1_455 S
C614 C615 1.516 . S
C615 C614 1.516 . S
C615 C616 1.502 . S
C615 C617 1.561 . S
C615 C618 1.526 . S
C616 H600 0.959 . S
C616 H601 0.959 . S
C616 H602 0.961 . S
C616 C615 1.502 . S
C617 H603 0.960 . S
C617 H604 0.961 . S
C617 H605 0.959 . S
C617 C615 1.561 . S
C618 C615 1.526 . S
C618 C619 1.396 1_455 S
C618 C623 1.390 . S
C619 C613 1.465 . S
C619 C618 1.396 1_655 S
C619 C620 1.399 . S
C620 H606 0.929 . S
C620 C619 1.399 . S
C620 C621 1.385 . S
C621 H607 0.931 . S
C621 C620 1.385 . S
C621 C622 1.389 1_655 S
C622 C621 1.389 1_455 S
C622 C623 1.387 . S
C623 H608 0.930 . S
C623 C618 1.390 . S
C623 C622 1.387 . S
C151 C2 1.137 . S
C163 N127 1.246 . S
C178 C22 1.328 . S
C190 N100 1.393 1_655 S
C205 C44 1.313 . S
C217 N113 1.401 1_565 S
C232 C4 1.776 . S
C244 N126 1.844 . S
C271 N101 1.625 . S
C259 C24 1.593 . S
C298 N114 1.612 . S
C286 C42 1.572 . S
C313 C32 1.182 . S
C325 N74 1.247 . S
C340 C49 1.031 . S
C352 N88 1.029 1_655 S
C367 C9 1.321 . S
C379 N62 1.312 . S
C406 N75 1.294 . S
C394 C29 1.302 . S
C433 N87 1.522 . S
C421 C52 1.513 . S
C448 C12 1.174 . S
C460 N61 1.224 . S
C487 N91 1.469 . S
C475 C18 1.495 1_455 S
C502 C38 1.515 . S
C514 N65 1.549 . S
C529 C58 1.487 . S
C541 N78 1.513 . S
C568 N117 1.571 . S
C556 C39 1.551 . S
C595 N130 1.499 . S
C583 C59 1.498 . S
C610 C19 1.555 1_655 S
C622 N104 1.567 . S
