# Generated by pormake.
# Topology eea, (3,6)-cn, num edge types: 1
# Building blocks:
#     Node 0, Type 0, BuildingBlock: BETDAH_clean_linker_0, # of connection points: 3
#     Node 1, Type 0, BuildingBlock: BETDAH_clean_linker_0, # of connection points: 3
#     Node 2, Type 0, BuildingBlock: BETDAH_clean_linker_0, # of connection points: 3
#     Node 3, Type 0, BuildingBlock: BETDAH_clean_linker_0, # of connection points: 3
#     Node 4, Type 0, BuildingBlock: BETDAH_clean_linker_0, # of connection points: 3
#     Node 5, Type 0, BuildingBlock: BETDAH_clean_linker_0, # of connection points: 3
#     Node 6, Type 0, BuildingBlock: BETDAH_clean_linker_0, # of connection points: 3
#     Node 7, Type 0, BuildingBlock: BETDAH_clean_linker_0, # of connection points: 3
#     Node 8, Type 0, BuildingBlock: BETDAH_clean_linker_0, # of connection points: 3
#     Node 9, Type 0, BuildingBlock: BETDAH_clean_linker_0, # of connection points: 3
#     Node 10, Type 0, BuildingBlock: BETDAH_clean_linker_0, # of connection points: 3
#     Node 11, Type 0, BuildingBlock: BETDAH_clean_linker_0, # of connection points: 3
#     Node 12, Type 0, BuildingBlock: BETDAH_clean_linker_0, # of connection points: 3
#     Node 13, Type 0, BuildingBlock: BETDAH_clean_linker_0, # of connection points: 3
#     Node 14, Type 0, BuildingBlock: BETDAH_clean_linker_0, # of connection points: 3
#     Node 15, Type 0, BuildingBlock: BETDAH_clean_linker_0, # of connection points: 3
#     Node 16, Type 0, BuildingBlock: BETDAH_clean_linker_0, # of connection points: 3
#     Node 17, Type 0, BuildingBlock: BETDAH_clean_linker_0, # of connection points: 3
#     Node 18, Type 1, BuildingBlock: NUHQIS_clean_sbu_0, # of connection points: 6
#     Node 19, Type 1, BuildingBlock: NUHQIS_clean_sbu_0, # of connection points: 6
#     Node 20, Type 1, BuildingBlock: NUHQIS_clean_sbu_0, # of connection points: 6
#     Node 21, Type 1, BuildingBlock: NUHQIS_clean_sbu_0, # of connection points: 6
#     Node 22, Type 1, BuildingBlock: NUHQIS_clean_sbu_0, # of connection points: 6
#     Node 23, Type 1, BuildingBlock: NUHQIS_clean_sbu_0, # of connection points: 6
#     Node 24, Type 1, BuildingBlock: NUHQIS_clean_sbu_0, # of connection points: 6
#     Node 25, Type 1, BuildingBlock: NUHQIS_clean_sbu_0, # of connection points: 6
#     Node 26, Type 1, BuildingBlock: NUHQIS_clean_sbu_0, # of connection points: 6
#     Edge 27, Type (0, 1), BuildingBlock: XUDNAN_clean_linker_2, # of connection points: 2
#     Edge 28, Type (0, 1), BuildingBlock: XUDNAN_clean_linker_2, # of connection points: 2
#     Edge 29, Type (0, 1), BuildingBlock: XUDNAN_clean_linker_2, # of connection points: 2
#     Edge 30, Type (0, 1), BuildingBlock: XUDNAN_clean_linker_2, # of connection points: 2
#     Edge 31, Type (0, 1), BuildingBlock: XUDNAN_clean_linker_2, # of connection points: 2
#     Edge 32, Type (0, 1), BuildingBlock: XUDNAN_clean_linker_2, # of connection points: 2
#     Edge 33, Type (0, 1), BuildingBlock: XUDNAN_clean_linker_2, # of connection points: 2
#     Edge 34, Type (0, 1), BuildingBlock: XUDNAN_clean_linker_2, # of connection points: 2
#     Edge 35, Type (0, 1), BuildingBlock: XUDNAN_clean_linker_2, # of connection points: 2
#     Edge 36, Type (0, 1), BuildingBlock: XUDNAN_clean_linker_2, # of connection points: 2
#     Edge 37, Type (0, 1), BuildingBlock: XUDNAN_clean_linker_2, # of connection points: 2
#     Edge 38, Type (0, 1), BuildingBlock: XUDNAN_clean_linker_2, # of connection points: 2
#     Edge 39, Type (0, 1), BuildingBlock: XUDNAN_clean_linker_2, # of connection points: 2
#     Edge 40, Type (0, 1), BuildingBlock: XUDNAN_clean_linker_2, # of connection points: 2
#     Edge 41, Type (0, 1), BuildingBlock: XUDNAN_clean_linker_2, # of connection points: 2
#     Edge 42, Type (0, 1), BuildingBlock: XUDNAN_clean_linker_2, # of connection points: 2
#     Edge 43, Type (0, 1), BuildingBlock: XUDNAN_clean_linker_2, # of connection points: 2
#     Edge 44, Type (0, 1), BuildingBlock: XUDNAN_clean_linker_2, # of connection points: 2
#     Edge 45, Type (0, 1), BuildingBlock: XUDNAN_clean_linker_2, # of connection points: 2
#     Edge 46, Type (0, 1), BuildingBlock: XUDNAN_clean_linker_2, # of connection points: 2
#     Edge 47, Type (0, 1), BuildingBlock: XUDNAN_clean_linker_2, # of connection points: 2
#     Edge 48, Type (0, 1), BuildingBlock: XUDNAN_clean_linker_2, # of connection points: 2
#     Edge 49, Type (0, 1), BuildingBlock: XUDNAN_clean_linker_2, # of connection points: 2
#     Edge 50, Type (0, 1), BuildingBlock: XUDNAN_clean_linker_2, # of connection points: 2
#     Edge 51, Type (0, 1), BuildingBlock: XUDNAN_clean_linker_2, # of connection points: 2
#     Edge 52, Type (0, 1), BuildingBlock: XUDNAN_clean_linker_2, # of connection points: 2
#     Edge 53, Type (0, 1), BuildingBlock: XUDNAN_clean_linker_2, # of connection points: 2
#     Edge 54, Type (0, 1), BuildingBlock: XUDNAN_clean_linker_2, # of connection points: 2
#     Edge 55, Type (0, 1), BuildingBlock: XUDNAN_clean_linker_2, # of connection points: 2
#     Edge 56, Type (0, 1), BuildingBlock: XUDNAN_clean_linker_2, # of connection points: 2
#     Edge 57, Type (0, 1), BuildingBlock: XUDNAN_clean_linker_2, # of connection points: 2
#     Edge 58, Type (0, 1), BuildingBlock: XUDNAN_clean_linker_2, # of connection points: 2
#     Edge 59, Type (0, 1), BuildingBlock: XUDNAN_clean_linker_2, # of connection points: 2
#     Edge 60, Type (0, 1), BuildingBlock: XUDNAN_clean_linker_2, # of connection points: 2
#     Edge 61, Type (0, 1), BuildingBlock: XUDNAN_clean_linker_2, # of connection points: 2
#     Edge 62, Type (0, 1), BuildingBlock: XUDNAN_clean_linker_2, # of connection points: 2
#     Edge 63, Type (0, 1), BuildingBlock: XUDNAN_clean_linker_2, # of connection points: 2
#     Edge 64, Type (0, 1), BuildingBlock: XUDNAN_clean_linker_2, # of connection points: 2
#     Edge 65, Type (0, 1), BuildingBlock: XUDNAN_clean_linker_2, # of connection points: 2
#     Edge 66, Type (0, 1), BuildingBlock: XUDNAN_clean_linker_2, # of connection points: 2
#     Edge 67, Type (0, 1), BuildingBlock: XUDNAN_clean_linker_2, # of connection points: 2
#     Edge 68, Type (0, 1), BuildingBlock: XUDNAN_clean_linker_2, # of connection points: 2
#     Edge 69, Type (0, 1), BuildingBlock: XUDNAN_clean_linker_2, # of connection points: 2
#     Edge 70, Type (0, 1), BuildingBlock: XUDNAN_clean_linker_2, # of connection points: 2
#     Edge 71, Type (0, 1), BuildingBlock: XUDNAN_clean_linker_2, # of connection points: 2
#     Edge 72, Type (0, 1), BuildingBlock: XUDNAN_clean_linker_2, # of connection points: 2
#     Edge 73, Type (0, 1), BuildingBlock: XUDNAN_clean_linker_2, # of connection points: 2
#     Edge 74, Type (0, 1), BuildingBlock: XUDNAN_clean_linker_2, # of connection points: 2
#     Edge 75, Type (0, 1), BuildingBlock: XUDNAN_clean_linker_2, # of connection points: 2
#     Edge 76, Type (0, 1), BuildingBlock: XUDNAN_clean_linker_2, # of connection points: 2
#     Edge 77, Type (0, 1), BuildingBlock: XUDNAN_clean_linker_2, # of connection points: 2
#     Edge 78, Type (0, 1), BuildingBlock: XUDNAN_clean_linker_2, # of connection points: 2
#     Edge 79, Type (0, 1), BuildingBlock: XUDNAN_clean_linker_2, # of connection points: 2
#     Edge 80, Type (0, 1), BuildingBlock: XUDNAN_clean_linker_2, # of connection points: 2
# Relax obj value: 0.057
# Max RMSD: 0.205
# Mean RMSD: 0.145
data_MOF--net-eea--node1-NUHQIS_clean_sbu_0--node2-BETDAH_clean_linker_0--edge1-XUDNAN_clean_linker_2
_symmetry_space_group_name_H-M    P1
_symmetry_Int_Tables_number       1
_symmetry_cell_setting            triclinic
loop_
_symmetry_equiv_pos_as_xyz
'x, y, z'
_cell_length_a     54.51621
_cell_length_b     55.311141
_cell_length_c     68.267663
_cell_angle_alpha  93.284317
_cell_angle_beta   93.424676
_cell_angle_gamma 119.76886
loop_
_atom_site_label
_atom_site_type_symbol
_atom_site_fract_x
_atom_site_fract_y
_atom_site_fract_z
_atom_type_partial_charge
H0 H 0.2396 0.06831 0.43426 0.0
H1 H 0.28058 0.15818 0.43833 0.0
H2 H 0.24641 0.11033 0.38194 0.0
C3 C 0.24629 0.08744 0.4273 0.0
C4 C 0.24129 0.08602 0.40672 0.0
C5 C 0.26034 0.11326 0.43894 0.0
C6 C 0.26959 0.13795 0.4297 0.0
C7 C 0.2641 0.13684 0.4093 0.0
C8 C 0.24976 0.11091 0.39781 0.0
N9 N 0.2746 0.16215 0.40046 0.0
C10 C 0.25664 0.16903 0.3901 0.0
H11 H 0.93827 0.188 0.42932 0.0
H12 H 0.88085 0.1032 0.44135 0.0
H13 H 0.93603 0.11869 0.39569 0.0
C14 C 0.92933 0.16563 0.42609 0.0
C15 C 0.93903 0.15563 0.41073 0.0
C16 C 0.90841 0.14693 0.43739 0.0
C17 C 0.89707 0.1179 0.43293 0.0
C18 C 0.90714 0.10787 0.41785 0.0
C19 C 0.92814 0.12674 0.40705 0.0
N20 N 0.89754 0.07901 0.41352 0.0
C21 C 0.87072 0.05749 0.41639 0.0
H22 H 0.82307 0.75147 0.44407 0.0
H23 H 0.90879 0.77847 0.4675 0.0
H24 H 0.89325 0.80498 0.41246 0.0
C25 C 0.84571 0.76267 0.44279 0.0
C26 C 0.85577 0.77791 0.42644 0.0
C27 C 0.86448 0.76248 0.45774 0.0
C28 C 0.89382 0.77824 0.4562 0.0
C29 C 0.90425 0.79309 0.43981 0.0
C30 C 0.8852 0.79303 0.42492 0.0
N31 N 0.93409 0.80938 0.43944 0.0
C32 C 0.94844 0.80859 0.42345 0.0
H33 H 0.06472 0.22851 0.59126 0.0
H34 H 0.14659 0.23757 0.60916 0.0
H35 H 0.07872 0.19919 0.64559 0.0
C36 C 0.07851 0.2253 0.60155 0.0
C37 C 0.06787 0.21175 0.61855 0.0
C38 C 0.10713 0.23502 0.59806 0.0
C39 C 0.12471 0.23049 0.61167 0.0
C40 C 0.11432 0.21757 0.62879 0.0
C41 C 0.08626 0.20867 0.63212 0.0
N42 N 0.1315 0.21412 0.64358 0.0
C43 C 0.1564 0.2137 0.64101 0.0
H44 H 0.7688 0.83755 0.60783 0.0
H45 H 0.73793 0.89536 0.61432 0.0
H46 H 0.76482 0.87018 0.66571 0.0
C47 C 0.76325 0.8502 0.61723 0.0
C48 C 0.76859 0.85221 0.63784 0.0
C49 C 0.75226 0.86583 0.60867 0.0
C50 C 0.74645 0.88332 0.62085 0.0
C51 C 0.75081 0.88468 0.64142 0.0
C52 C 0.76135 0.8688 0.64978 0.0
N53 N 0.74526 0.90225 0.65405 0.0
C54 C 0.74918 0.92779 0.64898 0.0
H55 H 0.18467 0.93862 0.59897 0.0
H56 H 0.11356 0.85566 0.60062 0.0
H57 H 0.15755 0.90666 0.65462 0.0
C58 C 0.17006 0.92246 0.60742 0.0
C59 C 0.174 0.9264 0.62817 0.0
C60 C 0.14824 0.89718 0.59731 0.0
C61 C 0.13 0.87545 0.60819 0.0
C62 C 0.13368 0.87911 0.62891 0.0
C63 C 0.15544 0.90438 0.63866 0.0
N64 N 0.11802 0.85684 0.64044 0.0
C65 C 0.08854 0.84102 0.63907 0.0
H66 H 0.92551 0.42495 0.77976 0.0
H67 H 0.90932 0.49019 0.764 0.0
H68 H 0.88138 0.41743 0.72325 0.0
C69 C 0.91621 0.43291 0.76933 0.0
C70 C 0.90286 0.41745 0.75101 0.0
C71 C 0.91807 0.45882 0.77438 0.0
C72 C 0.90783 0.47018 0.76031 0.0
C73 C 0.89513 0.45529 0.74167 0.0
C74 C 0.89235 0.42899 0.73734 0.0
N75 N 0.88451 0.46572 0.72687 0.0
C76 C 0.8846 0.49086 0.72913 0.0
H77 H 0.62059 0.52685 0.78733 0.0
H78 H 0.55917 0.44093 0.76812 0.0
H79 H 0.62799 0.48653 0.73378 0.0
C80 C 0.61283 0.50881 0.77662 0.0
C81 C 0.6273 0.51059 0.75979 0.0
C82 C 0.58876 0.48352 0.7801 0.0
C83 C 0.57804 0.4603 0.76586 0.0
C84 C 0.5921 0.46172 0.74904 0.0
C85 C 0.61687 0.48647 0.7464 0.0
N86 N 0.5825 0.43842 0.73472 0.0
C87 C 0.5552 0.41536 0.73253 0.0
H88 H 0.52368 0.12645 0.79248 0.0
H89 H 0.58195 0.09545 0.79551 0.0
H90 H 0.56691 0.1248 0.74184 0.0
C91 C 0.53848 0.12188 0.78552 0.0
C92 C 0.54312 0.1268 0.76568 0.0
C93 C 0.55227 0.1105 0.7964 0.0
C94 C 0.5712 0.10434 0.78735 0.0
C95 C 0.57718 0.11025 0.768 0.0
C96 C 0.56319 0.12153 0.75713 0.0
N97 N 0.59587 0.10266 0.75961 0.0
C98 C 0.61546 0.11794 0.74671 0.0
H99 H 0.74156 0.58525 0.93154 0.0
H100 H 0.80184 0.56347 0.91068 0.0
H101 H 0.75409 0.52241 0.95777 0.0
C102 C 0.75218 0.57314 0.93241 0.0
C103 C 0.74516 0.55349 0.94648 0.0
C104 C 0.77264 0.57702 0.91932 0.0
C105 C 0.78601 0.56093 0.9205 0.0
C106 C 0.77984 0.54187 0.93456 0.0
C107 C 0.75955 0.53819 0.94755 0.0
N108 N 0.79222 0.52461 0.93393 0.0
C109 C 0.80763 0.52224 0.94994 0.0
H110 H 0.44951 0.16757 0.95292 0.0
H111 H 0.40739 0.21594 0.95328 0.0
H112 H 0.43182 0.1955 1.00775 0.0
C113 C 0.44066 0.17835 0.96098 0.0
C114 C 0.44251 0.17979 0.98172 0.0
C115 C 0.42715 0.19038 0.95042 0.0
C116 C 0.41787 0.20644 0.96099 0.0
C117 C 0.42028 0.20868 0.98168 0.0
C118 C 0.43159 0.19464 0.99185 0.0
N119 N 0.4102 0.22392 0.99258 0.0
C120 C 0.41826 0.25135 0.98952 0.0
H121 H 0.83407 0.24551 0.92188 0.0
H122 H 0.76701 0.16814 0.93912 0.0
H123 H 0.8175 0.23733 0.98264 0.0
C124 C 0.8214 0.23335 0.93304 0.0
C125 C 0.82782 0.24544 0.95273 0.0
C126 C 0.79982 0.20533 0.92782 0.0
C127 C 0.78355 0.18979 0.94262 0.0
C128 C 0.7898 0.20153 0.96231 0.0
C129 C 0.812 0.22908 0.96725 0.0
N130 N 0.77748 0.18465 0.97776 0.0
C131 C 0.74875 0.17155 0.98049 0.0
H132 H 0.61056 0.75839 0.10964 0.0
H133 H 0.60023 0.82629 0.09103 0.0
H134 H 0.58756 0.75989 0.04858 0.0
C135 C 0.60549 0.76839 0.09816 0.0
C136 C 0.59813 0.75557 0.0787 0.0
C137 C 0.6066 0.79409 0.10284 0.0
C138 C 0.59978 0.80668 0.0877 0.0
C139 C 0.59297 0.79427 0.06814 0.0
C140 C 0.59251 0.76906 0.06377 0.0
N141 N 0.58726 0.8069 0.05235 0.0
C142 C 0.57622 0.82465 0.05435 0.0
H143 H 0.27715 0.85647 0.10412 0.0
H144 H 0.20807 0.77133 0.10167 0.0
H145 H 0.26853 0.7948 0.0588 0.0
C146 C 0.26591 0.83507 0.09729 0.0
C147 C 0.27564 0.82813 0.08051 0.0
C148 C 0.24141 0.81476 0.10502 0.0
C149 C 0.22707 0.78704 0.09596 0.0
C150 C 0.23697 0.77988 0.07926 0.0
C151 C 0.26111 0.80046 0.07171 0.0
N152 N 0.22327 0.7524 0.06944 0.0
C153 C 0.19732 0.7303 0.07333 0.0
H154 H 0.18854 0.45241 0.11358 0.0
H155 H 0.24999 0.42566 0.10747 0.0
H156 H 0.21653 0.44646 0.05678 0.0
C157 C 0.20173 0.44799 0.10446 0.0
C158 C 0.2007 0.45121 0.08419 0.0
C159 C 0.21929 0.43865 0.11302 0.0
C160 C 0.23659 0.43315 0.10113 0.0
C161 C 0.23589 0.4365 0.08087 0.0
C162 C 0.21765 0.445 0.07254 0.0
N163 N 0.25094 0.42863 0.06815 0.0
C164 C 0.2803 0.44018 0.07025 0.0
H165 H 0.40061 0.9038 0.26588 0.0
H166 H 0.46135 0.87721 0.27846 0.0
H167 H 0.39184 0.85298 0.31358 0.0
C168 C 0.40796 0.89252 0.27466 0.0
C169 C 0.3927 0.87843 0.29031 0.0
C170 C 0.43302 0.89262 0.27041 0.0
C171 C 0.44251 0.87787 0.2818 0.0
C172 C 0.42741 0.86334 0.29718 0.0
C173 C 0.40266 0.86363 0.30126 0.0
N174 N 0.43641 0.8481 0.3088 0.0
C175 C 0.4642 0.8532 0.31126 0.0
H176 H 0.10734 0.4967 0.27819 0.0
H177 H 0.08325 0.5593 0.28828 0.0
H178 H 0.10732 0.52816 0.33747 0.0
C179 C 0.1035 0.51001 0.28831 0.0
C180 C 0.10907 0.51056 0.30879 0.0
C181 C 0.09416 0.52756 0.28078 0.0
C182 C 0.09057 0.54582 0.29393 0.0
C183 C 0.09535 0.54595 0.31438 0.0
C184 C 0.10397 0.52799 0.32164 0.0
N185 N 0.09175 0.56394 0.32805 0.0
C186 C 0.09633 0.59007 0.32397 0.0
H187 H 0.49863 0.57709 0.25404 0.0
H188 H 0.41822 0.51072 0.26791 0.0
H189 H 0.46598 0.58452 0.30856 0.0
C190 C 0.48265 0.56842 0.26428 0.0
C191 C 0.48577 0.58423 0.28207 0.0
C192 C 0.45857 0.54184 0.25911 0.0
C193 C 0.437 0.53103 0.27188 0.0
C194 C 0.4398 0.54676 0.28968 0.0
C195 C 0.46403 0.57307 0.29459 0.0
N196 N 0.41856 0.53747 0.30294 0.0
C197 C 0.39758 0.5099 0.30399 0.0
Tb198 Tb 0.50569 0.00134 1.01337 0.0
Eu199 Eu 0.52135 0.01948 0.06175 0.0
C200 C 0.52112 0.96621 0.04056 0.0
C201 C 0.45913 0.97331 0.04297 0.0
C202 C 0.50192 0.00668 0.95933 0.0
C203 C 0.52669 0.02073 0.9299 0.0
C204 C 0.52014 0.00523 0.94623 0.0
C205 C 0.4903 0.02394 0.95574 0.0
C206 C 0.4967 0.03929 0.93937 0.0
C207 C 0.51495 0.03787 0.92622 0.0
C208 C 0.4949 0.98992 0.97643 0.0
O209 O 0.51024 0.04246 0.01732 0.0
O210 O 0.50217 0.0444 0.04994 0.0
O211 O 0.5571 0.05322 0.04733 0.0
O212 O 0.55191 0.02682 0.01856 0.0
C213 C 0.50338 0.05301 0.03228 0.0
O214 O 0.51016 0.03036 0.08966 0.0
O215 O 0.54904 0.02878 0.08905 0.0
O216 O 0.53512 0.98815 0.05364 0.0
O217 O 0.50392 0.96548 0.02596 0.0
O218 O 0.46533 0.98427 0.02612 0.0
O219 O 0.47874 0.98011 0.05766 0.0
C220 C 0.56679 0.04947 0.03093 0.0
O221 O 0.51586 0.98961 0.98647 0.0
O222 O 0.47792 0.99236 0.98798 0.0
C223 C 0.52521 0.01685 0.11802 0.0
C224 C 0.51204 0.99024 0.15317 0.0
C225 C 0.53408 0.0182 0.15346 0.0
C226 C 0.54057 0.03131 0.13607 0.0
C227 C 0.50323 0.98892 0.11753 0.0
C228 C 0.49666 0.97574 0.13497 0.0
C229 C 0.53168 0.03162 0.10007 0.0
H230 H 0.54114 0.01942 0.92025 0.0
H231 H 0.52937 0.9921 0.94862 0.0
H232 H 0.47607 0.02553 0.96547 0.0
H233 H 0.4869 0.05188 0.93686 0.0
H234 H 0.54607 0.03018 0.16721 0.0
H235 H 0.55744 0.05294 0.13677 0.0
H236 H 0.49106 0.97739 0.1037 0.0
H237 H 0.47975 0.95415 0.13416 0.0
Tb238 Tb 0.01289 0.50205 1.00583 0.0
Eu239 Eu 0.98922 0.47899 0.04837 0.0
C240 C 0.03538 0.54259 0.04521 0.0
C241 C 0.04798 0.48591 0.03517 0.0
C242 C 0.01841 0.51668 0.95266 0.0
C243 C 0.0265 0.52841 0.91905 0.0
C244 C 0.03699 0.53038 0.9386 0.0
C245 C 0.9891 0.50066 0.94694 0.0
C246 C 0.97855 0.49862 0.92732 0.0
C247 C 0.99715 0.51269 0.91318 0.0
C248 C 0.03001 0.52059 0.97332 0.0
O249 O 0.99151 0.45644 1.00116 0.0
O250 O 0.96058 0.44392 0.02509 0.0
O251 O 0.96344 0.49736 0.03573 0.0
O252 O 0.96869 0.49132 1.00309 0.0
C253 C 0.96852 0.43793 1.00857 0.0
O254 O 0.97916 0.44898 0.07032 0.0
O255 O 0.97288 0.48438 0.07564 0.0
O256 O 0.02791 0.52139 0.05573 0.0
O257 O 0.02583 0.53886 0.02652 0.0
O258 O 0.04883 0.50352 0.02271 0.0
O259 O 0.02502 0.47043 0.04379 0.0
C260 C 0.95547 0.49602 0.01694 0.0
O261 O 0.02068 0.5319 0.9859 0.0
O262 O 0.03141 0.49971 0.98011 0.0
C263 C 0.99003 0.47099 0.10278 0.0
C264 C 0.02037 0.48847 0.14062 0.0
C265 C 0.9912 0.46842 0.1382 0.0
C266 C 0.97613 0.45984 0.11941 0.0
C267 C 0.01928 0.49031 0.10504 0.0
C268 C 0.0343 0.49901 0.12379 0.0
C269 C 0.97392 0.46375 0.08322 0.0
H270 H 0.04144 0.53909 0.90849 0.0
H271 H 0.05967 0.54285 0.94279 0.0
H272 H 0.97442 0.49008 0.95768 0.0
H273 H 0.95582 0.48651 0.9233 0.0
H274 H 0.97982 0.4601 0.15089 0.0
H275 H 0.95353 0.44496 0.11792 0.0
H276 H 0.03039 0.49908 0.09233 0.0
H277 H 0.05681 0.51418 0.12513 0.0
Tb278 Tb 0.53207 0.50266 0.04396 0.0
Eu279 Eu 0.51335 0.51407 1.00016 0.0
C280 C 0.50119 0.45434 1.00965 0.0
C281 C 0.57326 0.51544 1.01063 0.0
C282 C 0.52871 0.49277 0.09707 0.0
C283 C 0.53116 0.5106 0.13095 0.0
C284 C 0.54442 0.51069 0.11404 0.0
C285 C 0.49946 0.47429 0.09743 0.0
C286 C 0.48621 0.47393 0.11446 0.0
C287 C 0.50182 0.49229 0.13142 0.0
C288 C 0.54288 0.49517 0.07889 0.0
O289 O 0.5571 0.5472 0.04064 0.0
O290 O 0.5245 0.55165 0.0211 0.0
O291 O 0.47377 0.49626 0.01646 0.0
O292 O 0.49631 0.50885 0.04788 0.0
C293 C 0.54654 0.56246 0.03437 0.0
O294 O 0.52186 0.54148 0.97663 0.0
O295 O 0.48467 0.50001 0.97303 0.0
O296 O 0.51167 0.47284 0.99693 0.0
O297 O 0.50124 0.46209 0.02822 0.0
O298 O 0.56378 0.5021 0.02631 0.0
O299 O 0.55936 0.52521 1.00045 0.0
C300 C 0.47336 0.50003 0.03565 0.0
O301 O 0.52965 0.475 0.0647 0.0
O302 O 0.5539 0.51955 0.07218 0.0
C303 C 0.50981 0.5161 0.94542 0.0
C304 C 0.52505 0.50294 0.90923 0.0
C305 C 0.50838 0.51586 0.90975 0.0
C306 C 0.50075 0.52231 0.92773 0.0
C307 C 0.52694 0.50379 0.945 0.0
C308 C 0.53448 0.49727 0.9271 0.0
C309 C 0.50132 0.522 0.96435 0.0
H310 H 0.54388 0.52552 0.14346 0.0
H311 H 0.56692 0.52534 0.11404 0.0
H312 H 0.48669 0.46037 0.0845 0.0
H313 H 0.4637 0.45929 0.11427 0.0
H314 H 0.50067 0.52033 0.89623 0.0
H315 H 0.48755 0.53186 0.92781 0.0
H316 H 0.53431 0.49902 0.95855 0.0
H317 H 0.54773 0.48779 0.92724 0.0
Tb318 Tb 0.15953 0.3198 0.32775 0.0
Eu319 Eu 0.17565 0.33576 0.37667 0.0
C320 C 0.17507 0.28327 0.35448 0.0
C321 C 0.11294 0.29021 0.35676 0.0
C322 C 0.16001 0.32879 0.27371 0.0
C323 C 0.1847 0.34062 0.24404 0.0
C324 C 0.17591 0.32442 0.25995 0.0
C325 C 0.15293 0.34973 0.27118 0.0
C326 C 0.16155 0.36583 0.25516 0.0
C327 C 0.1776 0.36154 0.24136 0.0
C328 C 0.15129 0.31135 0.29047 0.0
O329 O 0.14587 0.34934 0.33631 0.0
O330 O 0.1771 0.37301 0.3638 0.0
O331 O 0.21683 0.35272 0.36265 0.0
O332 O 0.20036 0.35821 0.33248 0.0
C333 C 0.15967 0.37165 0.34906 0.0
O334 O 0.17016 0.35374 0.40435 0.0
O335 O 0.19852 0.33683 0.40442 0.0
O336 O 0.16832 0.29232 0.37031 0.0
O337 O 0.17771 0.29488 0.33787 0.0
O338 O 0.12313 0.28727 0.34033 0.0
O339 O 0.12817 0.31079 0.37064 0.0
C340 C 0.22139 0.36348 0.34565 0.0
O341 O 0.17157 0.31051 0.30094 0.0
O342 O 0.13354 0.31322 0.3016 0.0
C343 C 0.17722 0.33647 0.43407 0.0
C344 C 0.16373 0.31738 0.47177 0.0
C345 C 0.17577 0.34597 0.46909 0.0
C346 C 0.18242 0.35535 0.4505 0.0
C347 C 0.16422 0.30772 0.4364 0.0
C348 C 0.15743 0.29824 0.45511 0.0
C349 C 0.18671 0.34779 0.41507 0.0
H350 H 0.1974 0.33694 0.23399 0.0
H351 H 0.18172 0.30848 0.26157 0.0
H352 H 0.14071 0.35368 0.28152 0.0
H353 H 0.15527 0.38141 0.2535 0.0
H354 H 0.18043 0.36125 0.48147 0.0
H355 H 0.19223 0.37757 0.44904 0.0
H356 H 0.15985 0.29272 0.42389 0.0
H357 H 0.14824 0.2761 0.45665 0.0
Tb358 Tb 0.68538 0.83616 0.33556 0.0
Eu359 Eu 0.65714 0.81181 0.37622 0.0
C360 C 0.7094 0.87321 0.3764 0.0
C361 C 0.71076 0.80903 0.36274 0.0
C362 C 0.69533 0.85152 0.2831 0.0
C363 C 0.70461 0.86423 0.24982 0.0
C364 C 0.71437 0.86627 0.26956 0.0
C365 C 0.66633 0.83446 0.2767 0.0
C366 C 0.65651 0.83236 0.2569 0.0
C367 C 0.67555 0.84739 0.24326 0.0
C368 C 0.70601 0.85479 0.30389 0.0
O369 O 0.65886 0.79087 0.32914 0.0
O370 O 0.62619 0.78121 0.35157 0.0
O371 O 0.64027 0.83898 0.36541 0.0
O372 O 0.64324 0.83194 0.33254 0.0
C373 C 0.63411 0.77425 0.33542 0.0
O374 O 0.64522 0.78107 0.39774 0.0
O375 O 0.6374 0.81554 0.40221 0.0
O376 O 0.69897 0.85059 0.38565 0.0
O377 O 0.70177 0.87215 0.3576 0.0
O378 O 0.71714 0.83084 0.35296 0.0
O379 O 0.6857 0.79468 0.36908 0.0
C380 C 0.63252 0.83925 0.34691 0.0
O381 O 0.6975 0.86732 0.31615 0.0
O382 O 0.70497 0.83283 0.31075 0.0
C383 C 0.65348 0.80261 0.42999 0.0
C384 C 0.68227 0.82125 0.46819 0.0
C385 C 0.6529 0.80198 0.46548 0.0
C386 C 0.63856 0.79284 0.44648 0.0
C387 C 0.68292 0.82104 0.43263 0.0
C388 C 0.69718 0.83036 0.45155 0.0
C389 C 0.63845 0.79513 0.4101 0.0
H390 H 0.7199 0.87567 0.23965 0.0
H391 H 0.73683 0.87949 0.27429 0.0
H392 H 0.65133 0.823 0.28704 0.0
H393 H 0.63399 0.81938 0.25235 0.0
H394 H 0.64088 0.79478 0.47807 0.0
H395 H 0.61581 0.77866 0.44467 0.0
H396 H 0.69481 0.82866 0.42005 0.0
H397 H 0.71986 0.84492 0.45319 0.0
Tb398 Tb 0.17037 0.83813 0.36574 0.0
Eu399 Eu 0.14925 0.84086 0.31985 0.0
C400 C 0.14987 0.78743 0.33318 0.0
C401 C 0.21314 0.85607 0.33348 0.0
C402 C 0.17798 0.84463 0.42069 0.0
C403 C 0.18471 0.84929 0.45654 0.0
C404 C 0.19068 0.84184 0.43822 0.0
C405 C 0.15917 0.85499 0.42169 0.0
C406 C 0.15312 0.86238 0.44 0.0
C407 C 0.16583 0.85966 0.4577 0.0
C408 C 0.18368 0.83578 0.40151 0.0
O409 O 0.18403 0.882 0.3625 0.0
O410 O 0.15105 0.87698 0.3377 0.0
O411 O 0.10975 0.81956 0.33576 0.0
O412 O 0.1307 0.83832 0.36719 0.0
C413 C 0.17033 0.89204 0.35241 0.0
O414 O 0.15185 0.86478 0.29499 0.0
O415 O 0.12294 0.81995 0.29209 0.0
O416 O 0.15675 0.8046 0.31945 0.0
O417 O 0.1482 0.79541 0.35132 0.0
O418 O 0.20404 0.84082 0.34838 0.0
O419 O 0.19712 0.86348 0.32333 0.0
C420 C 0.10803 0.82567 0.35435 0.0
O421 O 0.16159 0.81583 0.39069 0.0
O422 O 0.19992 0.85561 0.39105 0.0
C423 C 0.14434 0.84047 0.26384 0.0
C424 C 0.16512 0.83947 0.22713 0.0
C425 C 0.14427 0.84716 0.22904 0.0
C426 C 0.134 0.84766 0.24724 0.0
C427 C 0.1648 0.83233 0.26203 0.0
C428 C 0.17505 0.83174 0.24379 0.0
C429 C 0.13446 0.84266 0.28306 0.0
H430 H 0.19522 0.84729 0.46981 0.0
H431 H 0.20521 0.83384 0.43775 0.0
H432 H 0.14903 0.85716 0.40831 0.0
H433 H 0.1382 0.86992 0.44026 0.0
H434 H 0.1359 0.85285 0.21644 0.0
H435 H 0.1182 0.85398 0.24839 0.0
H436 H 0.17313 0.82687 0.27479 0.0
H437 H 0.19128 0.82598 0.24285 0.0
Tb438 Tb 0.83569 0.67476 0.67643 0.0
Eu439 Eu 0.86477 0.70981 0.72052 0.0
C440 C 0.85825 0.6504 0.70894 0.0
C441 C 0.79934 0.66134 0.71243 0.0
C442 C 0.81716 0.66002 0.62205 0.0
C443 C 0.81161 0.64925 0.58653 0.0
C444 C 0.80994 0.64072 0.60552 0.0
C445 C 0.82625 0.68811 0.61938 0.0
C446 C 0.82787 0.69669 0.60033 0.0
C447 C 0.82051 0.67733 0.58364 0.0
C448 C 0.81611 0.65067 0.64191 0.0
O449 O 0.82482 0.70783 0.67925 0.0
O450 O 0.86068 0.74004 0.70217 0.0
O451 O 0.90116 0.72176 0.70156 0.0
O452 O 0.87507 0.71173 0.67151 0.0
C453 C 0.84022 0.73343 0.68814 0.0
O454 O 0.86552 0.73593 0.74604 0.0
O455 O 0.89432 0.71961 0.74674 0.0
O456 O 0.85481 0.66585 0.72243 0.0
O457 O 0.85714 0.65445 0.69019 0.0
O458 O 0.80474 0.65084 0.69658 0.0
O459 O 0.81727 0.68663 0.7208 0.0
C460 C 0.89958 0.72379 0.68243 0.0
O461 O 0.84028 0.65554 0.65058 0.0
O462 O 0.80177 0.65667 0.65396 0.0
C463 C 0.87175 0.71843 0.77534 0.0
C464 C 0.84846 0.69375 0.80982 0.0
C465 C 0.87027 0.72199 0.81087 0.0
C466 C 0.88174 0.73422 0.79377 0.0
C467 C 0.85024 0.69026 0.77422 0.0
C468 C 0.83864 0.67809 0.79122 0.0
C469 C 0.88274 0.73116 0.75709 0.0
H470 H 0.80631 0.63385 0.57409 0.0
H471 H 0.8032 0.61902 0.60731 0.0
H472 H 0.83212 0.70339 0.63201 0.0
H473 H 0.83456 0.7184 0.59869 0.0
H474 H 0.87869 0.73463 0.82493 0.0
H475 H 0.89833 0.756 0.79493 0.0
H476 H 0.84219 0.67771 0.76011 0.0
H477 H 0.8216 0.65649 0.78968 0.0
Tb478 Tb 0.36643 0.17621 0.66979 0.0
Eu479 Eu 0.34575 0.17124 0.71453 0.0
C480 C 0.39163 0.22853 0.70091 0.0
C481 C 0.40077 0.16769 0.70475 0.0
C482 C 0.36568 0.16816 0.61594 0.0
C483 C 0.36511 0.15889 0.58075 0.0
C484 C 0.38018 0.16978 0.59939 0.0
C485 C 0.33596 0.15502 0.6138 0.0
C486 C 0.32091 0.14443 0.59519 0.0
C487 C 0.33531 0.14644 0.57839 0.0
C488 C 0.38151 0.1807 0.63534 0.0
O489 O 0.34018 0.13126 0.67126 0.0
O490 O 0.31478 0.13012 0.69737 0.0
O491 O 0.32039 0.18578 0.69605 0.0
O492 O 0.32312 0.16784 0.66567 0.0
C493 C 0.31908 0.11787 0.68201 0.0
O494 O 0.32629 0.14651 0.73872 0.0
O495 O 0.34086 0.19095 0.74155 0.0
O496 O 0.38643 0.21234 0.71518 0.0
O497 O 0.37939 0.21814 0.68295 0.0
O498 O 0.40203 0.18109 0.68922 0.0
O499 O 0.37842 0.15743 0.71473 0.0
C500 C 0.31155 0.17837 0.67714 0.0
O501 O 0.37523 0.19786 0.6446 0.0
O502 O 0.38298 0.16344 0.64692 0.0
C503 C 0.34269 0.16991 0.77077 0.0
C504 C 0.36485 0.17056 0.80935 0.0
C505 C 0.33802 0.14855 0.80145 0.0
C506 C 0.32705 0.1483 0.7824 0.0
C507 C 0.36941 0.19221 0.77867 0.0
C508 C 0.38032 0.19261 0.79789 0.0
C509 C 0.33074 0.16808 0.75041 0.0
H510 H 0.37684 0.16029 0.5682 0.0
H511 H 0.40313 0.17966 0.60086 0.0
H512 H 0.32444 0.15341 0.62649 0.0
H513 H 0.29806 0.13534 0.59395 0.0
H514 H 0.32546 0.13148 0.81004 0.0
H515 H 0.30637 0.13098 0.77664 0.0
H516 H 0.38197 0.20911 0.76996 0.0
H517 H 0.40111 0.20975 0.8036 0.0
Tb518 Tb 0.84523 0.16973 0.69926 0.0
Eu519 Eu 0.83795 0.1906 0.6557 0.0
C520 C 0.81729 0.12724 0.66147 0.0
C521 C 0.891 0.18338 0.66894 0.0
C522 C 0.83932 0.15641 0.7526 0.0
C523 C 0.80811 0.13483 0.77815 0.0
C524 C 0.81624 0.13319 0.75931 0.0
C525 C 0.85391 0.18152 0.76515 0.0
C526 C 0.84582 0.18314 0.7841 0.0
C527 C 0.82303 0.15968 0.79094 0.0
C528 C 0.84821 0.15352 0.73284 0.0
O529 O 0.86992 0.21508 0.70283 0.0
O530 O 0.84723 0.22596 0.6784 0.0
O531 O 0.79594 0.17404 0.66856 0.0
O532 O 0.81157 0.17973 0.70142 0.0
C533 C 0.86324 0.23253 0.69518 0.0
O534 O 0.85336 0.2215 0.63436 0.0
O535 O 0.81344 0.18266 0.62723 0.0
O536 O 0.83117 0.14707 0.65013 0.0
O537 O 0.8146 0.13328 0.67977 0.0
O538 O 0.87614 0.16642 0.68187 0.0
O539 O 0.88296 0.19948 0.66064 0.0
C540 C 0.79186 0.17525 0.68731 0.0
O541 O 0.82784 0.13887 0.71885 0.0
O542 O 0.86882 0.17566 0.72652 0.0
C543 C 0.8408 0.20247 0.60102 0.0
C544 C 0.85539 0.19628 0.56281 0.0
C545 C 0.83447 0.20363 0.56566 0.0
C546 C 0.82729 0.20671 0.58459 0.0
C547 C 0.86155 0.19493 0.59835 0.0
C548 C 0.86882 0.1919 0.5794 0.0
C549 C 0.83268 0.20558 0.62076 0.0
H550 H 0.79015 0.11649 0.78274 0.0
H551 H 0.80457 0.11355 0.75002 0.0
H552 H 0.87184 0.19982 0.76049 0.0
H553 H 0.85798 0.20253 0.79358 0.0
H554 H 0.82334 0.20667 0.55323 0.0
H555 H 0.81107 0.21232 0.58638 0.0
H556 H 0.87214 0.19147 0.6109 0.0
H557 H 0.88521 0.18651 0.57777 0.0
H558 H 0.32872 0.86598 0.09877 0.0
H559 H 0.278 0.83898 0.04208 0.0
H560 H 0.31898 0.8743 0.02662 0.0
H561 H 0.36926 0.94028 0.09241 0.0
H562 H 0.40185 0.94491 0.10448 0.0
H563 H 0.36816 0.91841 0.11132 0.0
H564 H 0.38235 0.88073 0.10408 0.0
H565 H 0.41603 0.90713 0.09721 0.0
H566 H 0.39309 0.8768 0.08018 0.0
H567 H 0.3652 0.91195 0.01724 0.0
H568 H 0.41452 0.94833 1.01412 0.0
H569 H 0.43613 0.95025 0.07672 0.0
C570 C 0.32626 0.86777 0.08315 0.0
C571 C 0.30025 0.84985 0.07157 0.0
C572 C 0.29784 0.85244 0.05113 0.0
C573 C 0.32092 0.87249 0.04226 0.0
C574 C 0.34633 0.8897 0.05402 0.0
C575 C 0.34924 0.8875 0.07399 0.0
C576 C 0.37929 0.90784 0.08305 0.0
C577 C 0.37965 0.92912 0.09874 0.0
C578 C 0.39352 0.89218 0.09163 0.0
C579 C 0.39278 0.92171 0.06502 0.0
C580 C 0.3733 0.91107 0.04849 0.0
C581 C 0.38067 0.92048 0.03008 0.0
C582 C 0.40877 0.9412 0.02848 0.0
C583 C 0.42928 0.95219 0.04515 0.0
C584 C 0.42102 0.94229 0.06367 0.0
H585 H 0.14542 0.43501 0.09099 0.0
H586 H 0.21295 0.48864 0.05661 0.0
H587 H 0.18133 0.50321 0.04048 0.0
H588 H 0.08823 0.41207 0.05309 0.0
H589 H 0.0635 0.41226 0.06939 0.0
H590 H 0.09154 0.40637 0.07861 0.0
H591 H 0.10883 0.44779 0.10567 0.0
H592 H 0.08076 0.45374 0.09658 0.0
H593 H 0.11716 0.48178 0.09866 0.0
H594 H 0.14237 0.51163 0.02777 0.0
H595 H 0.09882 0.51358 0.01946 0.0
H596 H 0.05637 0.45477 0.06221 0.0
C597 C 0.15368 0.45008 0.08025 0.0
C598 C 0.18172 0.46061 0.07505 0.0
C599 C 0.19149 0.47998 0.06067 0.0
C600 C 0.17373 0.48851 0.0515 0.0
C601 C 0.1462 0.47755 0.05684 0.0
C602 C 0.1362 0.45882 0.07091 0.0
C603 C 0.10557 0.44997 0.07375 0.0
C604 C 0.08606 0.41829 0.06838 0.0
C605 C 0.10294 0.45886 0.09492 0.0
C606 C 0.0999 0.46657 0.05901 0.0
C607 C 0.12365 0.48238 0.04946 0.0
C608 C 0.12364 0.49937 0.03518 0.0
C609 C 0.09873 0.50031 0.03054 0.0
C610 C 0.07404 0.48432 0.04012 0.0
C611 C 0.07479 0.46722 0.05455 0.0
H612 H 0.55717 0.71103 0.05401 0.0
H613 H 0.63416 0.73768 0.09268 0.0
H614 H 0.62981 0.69139 0.08512 0.0
H615 H 0.51968 0.64072 0.06607 0.0
H616 H 0.50338 0.62615 0.04132 0.0
H617 H 0.51284 0.66149 0.04957 0.0
H618 H 0.54309 0.67953 0.02022 0.0
H619 H 0.53369 0.64422 1.01185 0.0
H620 H 0.57054 0.67103 0.01663 0.0
H621 H 0.61647 0.64185 0.07376 0.0
H622 H 0.59523 0.59282 0.05948 0.0
H623 H 0.52758 0.59918 0.02765 0.0
C624 C 0.57334 0.70729 0.06071 0.0
C625 C 0.59602 0.728 0.07394 0.0
C626 C 0.61642 0.72204 0.08268 0.0
C627 C 0.61423 0.69588 0.07838 0.0
C628 C 0.59156 0.67596 0.06529 0.0
C629 C 0.57151 0.68138 0.05656 0.0
C630 C 0.54899 0.65629 0.04322 0.0
C631 C 0.51948 0.64553 0.05049 0.0
C632 C 0.5491 0.66319 0.02171 0.0
C633 C 0.55943 0.63582 0.04586 0.0
C634 C 0.58402 0.64756 0.05864 0.0
C635 C 0.59729 0.63248 0.06366 0.0
C636 C 0.58504 0.60462 0.05548 0.0
C637 C 0.55978 0.59215 0.04238 0.0
C638 C 0.54699 0.60812 0.0375 0.0
H639 H 0.83181 0.2857 0.98076 0.0
H640 H 0.8797 0.27075 0.93781 0.0
H641 H 0.92009 0.3183 0.94701 0.0
H642 H 0.85803 0.35842 0.97456 0.0
H643 H 0.85989 0.36851 1.00043 0.0
H644 H 0.83415 0.33354 0.99 0.0
H645 H 0.85374 0.31315 1.0158 0.0
H646 H 0.87954 0.34806 0.02631 0.0
H647 H 0.89102 0.32409 0.01801 0.0
H648 H 0.95542 0.36751 0.96072 0.0
H649 H 0.98378 0.41452 0.97874 0.0
H650 H 0.9142 0.397 1.01409 0.0
C651 C 0.85081 0.29231 0.97333 0.0
C652 C 0.85225 0.27439 0.95833 0.0
C653 C 0.87759 0.28414 0.94895 0.0
C654 C 0.90083 0.31111 0.9542 0.0
C655 C 0.89864 0.32814 0.96899 0.0
C656 C 0.87435 0.31912 0.97851 0.0
C657 C 0.87778 0.34145 0.9942 0.0
C658 C 0.85618 0.35104 0.98951 0.0
C659 C 0.87538 0.33106 1.0148 0.0
C660 C 0.90781 0.3644 0.99202 0.0
C661 C 0.91936 0.35631 0.97731 0.0
C662 C 0.94664 0.37405 0.97232 0.0
C663 C 0.96258 0.40076 0.98264 0.0
C664 C 0.95133 0.4095 0.99792 0.0
C665 C 0.92354 0.39093 1.00263 0.0
H666 H 0.69425 0.55223 0.9375 0.0
H667 H 0.74403 0.54269 0.98534 0.0
H668 H 0.70545 0.53141 1.00655 0.0
H669 H 0.66507 0.58559 0.96834 0.0
H670 H 0.63099 0.56846 0.95388 0.0
H671 H 0.66248 0.57564 0.94235 0.0
H672 H 0.63924 0.52314 0.9297 0.0
H673 H 0.60777 0.51582 0.9413 0.0
H674 H 0.62619 0.4972 0.94705 0.0
H675 H 0.66084 0.51968 0.02239 0.0
H676 H 0.61457 0.51104 0.03228 0.0
H677 H 0.59448 0.53035 0.97482 0.0
C678 C 0.69731 0.54818 0.95252 0.0
C679 C 0.72232 0.54822 0.95962 0.0
C680 C 0.72501 0.54233 0.97934 0.0
C681 C 0.70323 0.53603 0.99158 0.0
C682 C 0.67883 0.53588 0.98403 0.0
C683 C 0.67582 0.54203 0.96501 0.0
C684 C 0.64745 0.54059 0.96059 0.0
C685 C 0.65177 0.56928 0.95603 0.0
C686 C 0.62909 0.51783 0.94366 0.0
C687 C 0.635 0.53261 0.98008 0.0
C688 C 0.65338 0.52983 0.99334 0.0
C689 C 0.64634 0.52196 1.01216 0.0
C690 C 0.61993 0.517 0.01762 0.0
C691 C 0.60085 0.52011 1.00441 0.0
C692 C 0.60863 0.52802 0.98536 0.0
H693 H 0.441 0.13044 0.96968 0.0
H694 H 0.47224 0.19542 0.0188 0.0
H695 H 0.49007 0.16955 0.03748 0.0
H696 H 0.42022 0.07213 0.9968 0.0
H697 H 0.43269 0.05477 0.98042 0.0
H698 H 0.42152 0.07792 0.97106 0.0
H699 H 0.47032 0.10707 0.95764 0.0
H700 H 0.48156 0.08388 0.96686 0.0
H701 H 0.5024 0.12097 0.97415 0.0
H702 H 0.50245 0.13503 0.05152 0.0
H703 H 0.51285 0.09723 0.0582 0.0
H704 H 0.47833 0.05843 0.99853 0.0
C705 C 0.45205 0.13972 0.98419 0.0
C706 C 0.45481 0.16502 0.99271 0.0
C707 C 0.46903 0.17577 1.012 0.0
C708 C 0.4795 0.16134 0.02272 0.0
C709 C 0.47617 0.13644 1.01387 0.0
C710 C 0.46325 0.12602 0.9949 0.0
C711 C 0.4631 0.0993 0.98847 0.0
C712 C 0.43256 0.07458 0.98393 0.0
C713 C 0.48038 0.10304 0.97074 0.0
C714 C 0.47772 0.09618 1.00688 0.0
C715 C 0.4848 0.11759 0.02148 0.0
C716 C 0.49733 0.11836 0.04012 0.0
C717 C 0.50304 0.09681 0.04381 0.0
C718 C 0.49665 0.07521 0.02881 0.0
C719 C 0.48384 0.07498 1.01017 0.0
H720 H 0.70394 0.11862 0.97069 0.0
H721 H 0.73237 0.19586 1.00773 0.0
H722 H 0.68831 0.17326 0.02436 0.0
H723 H 0.62738 0.0971 0.96567 0.0
H724 H 0.61609 0.06054 0.96636 0.0
H725 H 0.64883 0.08342 0.95641 0.0
H726 H 0.67589 0.06862 0.98094 0.0
H727 H 0.64332 0.04598 0.99111 0.0
H728 H 0.6734 0.07271 1.00701 0.0
H729 H 0.64336 0.14131 0.03883 0.0
H730 H 0.59842 0.10327 0.0484 0.0
H731 H 0.59805 0.04663 1.00146 0.0
C732 C 0.70042 0.13084 0.98198 0.0
C733 C 0.72115 0.15902 0.98785 0.0
C734 C 0.71639 0.17434 1.00292 0.0
C735 C 0.69154 0.16165 1.01248 0.0
C736 C 0.67163 0.13364 1.00669 0.0
C737 C 0.67554 0.11848 0.9916 0.0
C738 C 0.65107 0.08847 0.98864 0.0
C739 C 0.63488 0.08201 0.96805 0.0
C740 C 0.66156 0.06773 0.99214 0.0
C741 C 0.63316 0.08902 1.00467 0.0
C742 C 0.64545 0.11527 1.01491 0.0
C743 C 0.63339 0.12073 0.03079 0.0
C744 C 0.60791 0.0989 0.0362 0.0
C745 C 0.5946 0.0719 0.02572 0.0
C746 C 0.60756 0.06702 1.00975 0.0
H747 H 0.84799 0.51069 0.94056 0.0
H748 H 0.81008 0.52643 0.99009 0.0
H749 H 0.84359 0.52081 1.01319 0.0
H750 H 0.85981 0.45808 0.96079 0.0
H751 H 0.8931 0.46968 0.95047 0.0
H752 H 0.86603 0.47473 0.93823 0.0
H753 H 0.90182 0.52792 0.93937 0.0
H754 H 0.92894 0.52293 0.95159 0.0
H755 H 0.92007 0.54759 0.96272 0.0
H756 H 0.88214 0.5137 0.03065 0.0
H757 H 0.92192 0.50612 0.04092 0.0
H758 H 0.93387 0.49507 0.97942 0.0
C759 C 0.84678 0.51288 0.9563 0.0
C760 C 0.82665 0.51891 0.96372 0.0
C761 C 0.82549 0.52175 0.98428 0.0
C762 C 0.84439 0.51859 0.99743 0.0
C763 C 0.86416 0.51261 0.98965 0.0
C764 C 0.86542 0.5098 0.96952 0.0
C765 C 0.88862 0.50355 0.96481 0.0
C766 C 0.87613 0.4748 0.95287 0.0
C767 C 0.9112 0.52689 0.95399 0.0
C768 C 0.90037 0.50335 0.9854 0.0
C769 C 0.88604 0.50856 0.99957 0.0
C770 C 0.89343 0.50956 0.01965 0.0
C771 C 0.91607 0.50521 0.02535 0.0
C772 C 0.93108 0.49994 1.01102 0.0
C773 C 0.92289 0.49896 0.99081 0.0
H774 H 0.42871 0.29013 0.01943 0.0
H775 H 0.43181 0.27817 0.95656 0.0
H776 H 0.45253 0.32926 0.95463 0.0
H777 H 0.41066 0.34538 0.01825 0.0
H778 H 0.43246 0.36418 0.04088 0.0
H779 H 0.41674 0.32671 0.03697 0.0
H780 H 0.46656 0.3319 0.04338 0.0
H781 H 0.48242 0.36936 0.04721 0.0
H782 H 0.49446 0.35394 0.02892 0.0
H783 H 0.4745 0.38159 0.96002 0.0
H784 H 0.49552 0.43145 0.97188 0.0
H785 H 0.47808 0.40921 0.03153 0.0
C786 C 0.43348 0.29837 1.00526 0.0
C787 C 0.42862 0.28063 0.98807 0.0
C788 C 0.43531 0.29174 0.96978 0.0
C789 C 0.44706 0.32061 0.9686 0.0
C790 C 0.45188 0.33778 0.98587 0.0
C791 C 0.44521 0.32707 1.00385 0.0
C792 C 0.45315 0.35007 0.02028 0.0
C793 C 0.42667 0.34636 0.02964 0.0
C794 C 0.47548 0.35139 0.03586 0.0
C795 C 0.46559 0.37546 1.00879 0.0
C796 C 0.46459 0.3679 0.98897 0.0
C797 C 0.47526 0.38774 0.97548 0.0
C798 C 0.48722 0.41604 0.9824 0.0
C799 C 0.48844 0.4243 1.00266 0.0
C800 C 0.47741 0.40362 1.01596 0.0
H801 H 0.15703 0.70083 0.04337 0.0
H802 H 0.17922 0.7022 0.10553 0.0
H803 H 0.13666 0.65519 0.106 0.0
H804 H 0.07847 0.66186 0.04433 0.0
H805 H 0.07298 0.64265 0.0207 0.0
H806 H 0.10285 0.67763 0.02609 0.0
H807 H 0.13693 0.65938 0.01772 0.0
H808 H 0.10725 0.6244 1.01245 0.0
H809 H 0.1361 0.63136 0.03047 0.0
H810 H 0.09479 0.60603 0.09852 0.0
H811 H 0.05679 0.55923 0.0841 0.0
H812 H 0.06213 0.59052 0.02669 0.0
C813 C 0.15236 0.69146 0.05717 0.0
C814 C 0.17083 0.70494 0.0745 0.0
C815 C 0.16485 0.69209 0.09222 0.0
C816 C 0.14081 0.66548 0.09258 0.0
C817 C 0.12313 0.65231 0.07509 0.0
C818 C 0.12852 0.665 0.05774 0.0
C819 C 0.10759 0.6457 0.04065 0.0
C820 C 0.08939 0.65768 0.03246 0.0
C821 C 0.12289 0.63987 0.02437 0.0
C822 C 0.09004 0.61984 0.05091 0.0
C823 C 0.09913 0.6241 0.0708 0.0
C824 C 0.08723 0.60261 0.08303 0.0
C825 C 0.06569 0.57606 0.07468 0.0
C826 C 0.0563 0.57119 0.05427 0.0
C827 C 0.06848 0.59358 0.04238 0.0
H828 H 0.30611 0.44233 0.03734 0.0
H829 H 0.32202 0.46288 0.10069 0.0
H830 H 0.37359 0.48156 0.09856 0.0
H831 H 0.3573 0.41998 0.03239 0.0
H832 H 0.36765 0.4345 1.0093 0.0
H833 H 0.33234 0.42335 1.01587 0.0
H834 H 0.33973 0.47265 1.01136 0.0
H835 H 0.37509 0.48396 1.00481 0.0
H836 H 0.3697 0.50298 0.02481 0.0
H837 H 0.42301 0.49704 0.08942 0.0
H838 H 0.46687 0.50832 0.07443 0.0
H839 H 0.4191 0.4779 0.01656 0.0
C840 C 0.32058 0.45086 0.05072 0.0
C841 C 0.31042 0.45131 0.06921 0.0
C842 C 0.32964 0.46247 0.08645 0.0
C843 C 0.35886 0.4731 0.08533 0.0
C844 C 0.36833 0.47237 0.06685 0.0
C845 C 0.34977 0.46154 0.04984 0.0
C846 C 0.36537 0.46293 0.03186 0.0
C847 C 0.35505 0.43344 0.02176 0.0
C848 C 0.36229 0.48175 0.01736 0.0
C849 C 0.39565 0.47614 0.04138 0.0
C850 C 0.39683 0.48142 0.06157 0.0
C851 C 0.42231 0.49311 0.07363 0.0
C852 C 0.4472 0.49947 0.0649 0.0
C853 C 0.44665 0.49418 0.04421 0.0
C854 C 0.4204 0.48243 0.03235 0.0
H855 H 0.59781 0.87938 0.06799 0.0
H856 H 0.52351 0.80624 0.03793 0.0
H857 H 0.50008 0.83422 0.03285 0.0
H858 H 0.55878 0.90984 0.09239 0.0
H859 H 0.58543 0.94525 0.08932 0.0
H860 H 0.59542 0.91897 0.09207 0.0
H861 H 0.61867 0.93003 0.0593 0.0
H862 H 0.60861 0.95617 0.05638 0.0
H863 H 0.5978 0.9281 0.03714 0.0
H864 H 0.48674 0.87051 0.02824 0.0
H865 H 0.48279 0.91273 0.02582 0.0
H866 H 0.56508 0.96285 0.05977 0.0
C867 C 0.5764 0.86931 0.06072 0.0
C868 C 0.56214 0.84078 0.05344 0.0
C869 C 0.53444 0.8281 0.0437 0.0
C870 C 0.52105 0.8438 0.04076 0.0
C871 C 0.5357 0.87206 0.04779 0.0
C872 C 0.56263 0.88472 0.05775 0.0
C873 C 0.574 0.91572 0.06305 0.0
C874 C 0.57867 0.92286 0.08555 0.0
C875 C 0.60139 0.93355 0.05338 0.0
C876 C 0.54955 0.91858 0.05407 0.0
C877 C 0.5277 0.89309 0.04539 0.0
C878 C 0.50352 0.89054 0.0352 0.0
C879 C 0.50156 0.91468 0.03381 0.0
C880 C 0.52359 0.94104 0.04266 0.0
C881 C 0.54777 0.94292 0.05308 0.0
H882 H 0.9885 0.20456 0.42348 0.0
H883 H 0.93919 0.15022 0.37068 0.0
H884 H 0.97739 0.17998 0.35071 0.0
H885 H 0.01921 0.27058 0.40026 0.0
H886 H 0.05297 0.28497 0.41486 0.0
H887 H 0.02085 0.26044 0.42472 0.0
H888 H 0.04237 0.22874 0.43125 0.0
H889 H 0.07443 0.25306 0.4213 0.0
H890 H 0.05511 0.21691 0.41117 0.0
H891 H 0.02249 0.21358 0.33689 0.0
H892 H 0.07054 0.24971 0.33013 0.0
H893 H 0.08962 0.28256 0.39186 0.0
C894 C 0.98548 0.19928 0.40766 0.0
C895 C 0.96091 0.17505 0.39863 0.0
C896 C 0.958 0.16854 0.37793 0.0
C897 C 0.97949 0.18538 0.36645 0.0
C898 C 1.00371 0.20878 0.37587 0.0
C899 C 0.00673 0.21587 0.39598 0.0
C900 C 0.03536 0.24147 0.40258 0.0
C901 C 0.03188 0.26581 0.4111 0.0
C902 C 0.05284 0.23462 0.41745 0.0
C903 C 0.04808 0.24736 0.38309 0.0
C904 C 0.02951 0.22833 0.36785 0.0
C905 C 0.03711 0.22882 0.34866 0.0
C906 C 0.06447 0.24934 0.34498 0.0
C907 C 0.08379 0.26909 0.36041 0.0
C908 C 0.07526 0.26805 0.37965 0.0
H909 H 0.8535 0.82317 0.41366 0.0
H910 H 0.81013 0.73251 0.40637 0.0
H911 H 0.7707 0.73129 0.38575 0.0
H912 H 0.79382 0.82855 0.41974 0.0
H913 H 0.80372 0.85882 0.40647 0.0
H914 H 0.83077 0.85316 0.41796 0.0
H915 H 0.85144 0.85522 0.38451 0.0
H916 H 0.82453 0.86112 0.37292 0.0
H917 H 0.82859 0.83239 0.36334 0.0
H918 H 0.73321 0.73914 0.37059 0.0
H919 H 0.70049 0.7558 0.3602 0.0
H920 H 0.76761 0.84168 0.3759 0.0
C921 C 0.83614 0.80318 0.40709 0.0
C922 C 0.83492 0.77791 0.41139 0.0
C923 C 0.81148 0.75206 0.40312 0.0
C924 C 0.78903 0.75118 0.39138 0.0
C925 C 0.79034 0.77636 0.38792 0.0
C926 C 0.81338 0.80194 0.39533 0.0
C927 C 0.80816 0.8257 0.39079 0.0
C928 C 0.80918 0.84254 0.40988 0.0
C929 C 0.82945 0.84473 0.37707 0.0
C930 C 0.77828 0.8094 0.38028 0.0
C931 C 0.76856 0.78096 0.37871 0.0
C932 C 0.74078 0.76137 0.3713 0.0
C933 C 0.72232 0.771 0.3655 0.0
C934 C 0.73171 0.79997 0.36693 0.0
C935 C 0.7602 0.81945 0.37411 0.0
H936 H 0.25272 0.04372 0.41138 0.0
H937 H 0.20022 0.06601 0.37514 0.0
H938 H 0.17685 0.01894 0.35665 0.0
H939 H 0.26181 0.00152 0.37353 0.0
H940 H 0.25986 0.97635 0.38993 0.0
H941 H 0.27325 0.01219 0.39944 0.0
H942 H 0.23572 0.99569 0.42465 0.0
H943 H 0.22215 0.95981 0.41516 0.0
H944 H 0.19863 0.97389 0.41593 0.0
H945 H 0.15805 0.96863 0.34314 0.0
H946 H 0.14603 0.91967 0.33506 0.0
H947 H 0.21033 0.93062 0.38106 0.0
C948 C 0.23622 0.03873 0.39961 0.0
C949 C 0.22814 0.05848 0.39477 0.0
C950 C 0.20688 0.05127 0.37899 0.0
C951 C 0.19341 0.02457 0.3685 0.0
C952 C 0.20154 0.00544 0.37397 0.0
C953 C 0.22253 0.01227 0.38912 0.0
C954 C 0.22703 0.98788 0.39244 0.0
C955 C 0.25728 0.99491 0.3886 0.0
C956 C 0.22048 0.97879 0.41328 0.0
C957 C 0.20514 0.9661 0.37685 0.0
C958 C 0.19069 0.97661 0.36631 0.0
C959 C 0.1693 0.96022 0.35125 0.0
C960 C 0.16261 0.93241 0.34681 0.0
C961 C 0.17725 0.92126 0.35741 0.0
C962 C 0.19874 0.93844 0.37265 0.0
H963 H 0.48994 0.63083 0.3028 0.0
H964 H 0.54071 0.60129 0.27421 0.0
H965 H 0.58334 0.64746 0.28311 0.0
H966 H 0.52753 0.70208 0.29104 0.0
H967 H 0.52517 0.71648 0.31474 0.0
H968 H 0.49803 0.68173 0.30487 0.0
H969 H 0.50639 0.66182 0.33644 0.0
H970 H 0.53344 0.6965 0.34645 0.0
H971 H 0.54165 0.66872 0.34426 0.0
H972 H 0.62059 0.6968 0.29511 0.0
H973 H 0.65051 0.74461 0.31171 0.0
H974 H 0.57638 0.74055 0.3351 0.0
C975 C 0.50997 0.63381 0.29851 0.0
C976 C 0.51165 0.61223 0.28755 0.0
C977 C 0.53848 0.61751 0.28211 0.0
C978 C 0.56295 0.64367 0.28723 0.0
C979 C 0.56044 0.66431 0.29804 0.0
C980 C 0.53471 0.6596 0.30381 0.0
C981 C 0.53806 0.68485 0.31625 0.0
C982 C 0.5212 0.697 0.30611 0.0
C983 C 0.52938 0.67753 0.33708 0.0
C984 C 0.56975 0.70445 0.31664 0.0
C985 C 0.58217 0.69232 0.30579 0.0
C986 C 0.61113 0.70648 0.3037 0.0
C987 C 0.62792 0.73366 0.31313 0.0
C988 C 0.61576 0.74621 0.32475 0.0
C989 C 0.58627 0.73138 0.32644 0.0
H990 H 0.3447 0.83847 0.3061 0.0
H991 H 0.38271 0.92246 0.28751 0.0
H992 H 0.34132 0.92553 0.29653 0.0
H993 H 0.27213 0.81642 0.29095 0.0
H994 H 0.25865 0.79785 0.3122 0.0
H995 H 0.29078 0.80156 0.30351 0.0
H996 H 0.31766 0.82405 0.33809 0.0
H997 H 0.28561 0.82044 0.34689 0.0
H998 H 0.31743 0.8543 0.34918 0.0
H999 H 0.29514 0.91923 0.30664 0.0
H1000 H 0.24843 0.90476 0.31866 0.0
H1001 H 0.24219 0.827 0.33395 0.0
C1002 C 0.34465 0.8577 0.30407 0.0
C1003 C 0.36721 0.88007 0.29575 0.0
C1004 C 0.36563 0.90459 0.29323 0.0
C1005 C 0.34224 0.90672 0.29854 0.0
C1006 C 0.3206 0.88437 0.30672 0.0
C1007 C 0.32168 0.86043 0.30966 0.0
C1008 C 0.29585 0.83972 0.31918 0.0
C1009 C 0.27832 0.81227 0.30565 0.0
C1010 C 0.30467 0.83432 0.33955 0.0
C1011 C 0.28 0.85573 0.32101 0.0
C1012 C 0.2946 0.88135 0.31356 0.0
C1013 C 0.28369 0.89937 0.31271 0.0
C1014 C 0.25713 0.89095 0.31955 0.0
C1015 C 0.24187 0.86495 0.32746 0.0
C1016 C 0.25365 0.84724 0.32835 0.0
H1017 H 0.09513 0.45633 0.29679 0.0
H1018 H 0.15079 0.52738 0.33926 0.0
H1019 H 0.16957 0.49963 0.35422 0.0
H1020 H 0.07835 0.40333 0.3291 0.0
H1021 H 0.07889 0.37857 0.31103 0.0
H1022 H 0.07004 0.40412 0.30326 0.0
H1023 H 0.11024 0.42158 0.28012 0.0
H1024 H 0.11913 0.39597 0.28774 0.0
H1025 H 0.14598 0.4325 0.2901 0.0
H1026 H 0.18142 0.46393 0.36527 0.0
H1027 H 0.18677 0.42297 0.37079 0.0
H1028 H 0.12445 0.37561 0.32061 0.0
C1029 C 0.1115 0.46616 0.30908 0.0
C1030 C 0.1212 0.49395 0.31699 0.0
C1031 C 0.14253 0.50593 0.3332 0.0
C1032 C 0.15351 0.49042 0.34173 0.0
C1033 C 0.14318 0.46298 0.33379 0.0
C1034 C 0.12284 0.45099 0.31773 0.0
C1035 C 0.11534 0.42103 0.31214 0.0
C1036 C 0.08378 0.40056 0.314 0.0
C1037 C 0.12315 0.41758 0.29129 0.0
C1038 C 0.13439 0.41804 0.32771 0.0
C1039 C 0.15029 0.44247 0.34004 0.0
C1040 C 0.16917 0.44467 0.35567 0.0
C1041 C 0.172 0.42127 0.35872 0.0
C1042 C 0.15604 0.39604 0.34618 0.0
C1043 C 0.13699 0.39455 0.3305 0.0
H1044 H 0.34167 0.48377 0.29095 0.0
H1045 H 0.40393 0.47825 0.32995 0.0
H1046 H 0.36534 0.43789 0.34393 0.0
H1047 H 0.29251 0.47059 0.32464 0.0
H1048 H 0.26123 0.44986 0.30756 0.0
H1049 H 0.29357 0.47578 0.2988 0.0
H1050 H 0.29247 0.4381 0.2738 0.0
H1051 H 0.25983 0.4121 0.2823 0.0
H1052 H 0.28991 0.40682 0.28246 0.0
H1053 H 0.31992 0.4022 0.35637 0.0
H1054 H 0.27096 0.37093 0.36443 0.0
H1055 H 0.23833 0.39914 0.31672 0.0
C1056 C 0.34705 0.47335 0.30195 0.0
C1057 C 0.37553 0.48349 0.30922 0.0
C1058 C 0.38209 0.47021 0.32403 0.0
C1059 C 0.36035 0.44742 0.33208 0.0
C1060 C 0.33228 0.43824 0.32502 0.0
C1061 C 0.32557 0.45049 0.31006 0.0
C1062 C 0.29371 0.43767 0.3059 0.0
C1063 C 0.28475 0.4598 0.30944 0.0
C1064 C 0.28338 0.42278 0.28487 0.0
C1065 C 0.28361 0.41688 0.3212 0.0
C1066 C 0.30614 0.41748 0.33206 0.0
C1067 C 0.30207 0.40122 0.34775 0.0
C1068 C 0.27422 0.38367 0.35231 0.0
C1069 C 0.25081 0.38246 0.34116 0.0
C1070 C 0.25573 0.39932 0.3254 0.0
H1071 H 0.4903 0.82669 0.29515 0.0
H1072 H 0.50102 0.89027 0.34044 0.0
H1073 H 0.54733 0.89602 0.35301 0.0
H1074 H 0.51844 0.79419 0.32437 0.0
H1075 H 0.53644 0.78724 0.30545 0.0
H1076 H 0.50545 0.78983 0.29876 0.0
H1077 H 0.53398 0.82857 0.27632 0.0
H1078 H 0.56507 0.82599 0.28288 0.0
H1079 H 0.56663 0.85928 0.28651 0.0
H1080 H 0.58921 0.89113 0.36293 0.0
H1081 H 0.62613 0.87812 0.36848 0.0
H1082 H 0.59039 0.81922 0.31591 0.0
C1083 C 0.50282 0.84222 0.30742 0.0
C1084 C 0.4925 0.85832 0.31681 0.0
C1085 C 0.50891 0.87805 0.33303 0.0
C1086 C 0.53516 0.8814 0.34025 0.0
C1087 C 0.54471 0.86496 0.33094 0.0
C1088 C 0.52927 0.84597 0.31474 0.0
C1089 C 0.54394 0.83012 0.30808 0.0
C1090 C 0.52493 0.79848 0.30924 0.0
C1091 C 0.55294 0.83637 0.2872 0.0
C1092 C 0.56961 0.84268 0.32336 0.0
C1093 C 0.56955 0.86272 0.33639 0.0
C1094 C 0.58979 0.87585 0.35263 0.0
C1095 C 0.6106 0.86824 0.35571 0.0
C1096 C 0.61128 0.84793 0.34252 0.0
C1097 C 0.5907 0.83525 0.32598 0.0
H1098 H 0.10019 0.62895 0.35151 0.0
H1099 H 0.10863 0.61426 0.28992 0.0
H1100 H 0.12324 0.66366 0.28535 0.0
H1101 H 0.0724 0.67591 0.34501 0.0
H1102 H 0.09157 0.6979 0.36744 0.0
H1103 H 0.081 0.66133 0.36549 0.0
H1104 H 0.13332 0.67448 0.37448 0.0
H1105 H 0.14406 0.71108 0.37633 0.0
H1106 H 0.16043 0.69782 0.36002 0.0
H1107 H 0.13803 0.71481 0.28795 0.0
H1108 H 0.15087 0.76377 0.29706 0.0
H1109 H 0.13285 0.74488 0.35722 0.0
C1110 C 0.10486 0.6362 0.33705 0.0
C1111 C 0.10318 0.61817 0.32097 0.0
C1112 C 0.10967 0.62803 0.30229 0.0
C1113 C 0.11801 0.65595 0.29961 0.0
C1114 C 0.11971 0.67347 0.31582 0.0
C1115 C 0.11322 0.66396 0.33416 0.0
C1116 C 0.11715 0.6871 0.34922 0.0
C1117 C 0.08884 0.68014 0.35726 0.0
C1118 C 0.14011 0.69296 0.366 0.0
C1119 C 0.12696 0.71116 0.33653 0.0
C1120 C 0.12831 0.70288 0.31733 0.0
C1121 C 0.13697 0.72151 0.30293 0.0
C1122 C 0.14426 0.74931 0.30828 0.0
C1123 C 0.14284 0.75822 0.32787 0.0
C1124 C 0.13416 0.7388 0.34213 0.0
H1125 H 0.83094 0.03296 0.38561 0.0
H1126 H 0.85113 0.02485 0.44629 0.0
H1127 H 0.80837 0.97747 0.44373 0.0
H1128 H 0.75165 0.99228 0.38512 0.0
H1129 H 0.74737 0.97694 0.36025 0.0
H1130 H 0.7767 0.01158 0.36803 0.0
H1131 H 0.81178 0.99582 0.35718 0.0
H1132 H 0.78269 0.96112 0.34961 0.0
H1133 H 0.81117 0.9661 0.36723 0.0
H1134 H 0.76707 0.929 0.43302 0.0
H1135 H 0.72989 0.88393 0.41556 0.0
H1136 H 0.73724 0.92411 0.36167 0.0
C1137 C 0.82568 0.02149 0.39851 0.0
C1138 C 0.84367 0.03237 0.41624 0.0
C1139 C 0.83704 0.01677 0.43272 0.0
C1140 C 0.81291 0.98992 0.43136 0.0
C1141 C 0.79583 0.97929 0.41342 0.0
C1142 C 0.80177 0.99474 0.39735 0.0
C1143 C 0.78162 0.97777 0.37928 0.0
C1144 C 0.76324 0.99039 0.37279 0.0
C1145 C 0.79779 0.97505 0.36234 0.0
C1146 C 0.76404 0.95004 0.38747 0.0
C1147 C 0.77229 0.95138 0.40723 0.0
C1148 C 0.76015 0.92784 0.41763 0.0
C1149 C 0.73912 0.90229 0.40755 0.0
C1150 C 0.73056 0.90046 0.38723 0.0
C1151 C 0.74309 0.9248 0.37722 0.0
H1152 H 1.00428 0.82801 0.4314 0.0
H1153 H 0.93539 0.78938 0.38446 0.0
H1154 H 0.9687 0.789 0.36123 0.0
H1155 H 0.05896 0.87272 0.4019 0.0
H1156 H 0.08621 0.86861 0.41493 0.0
H1157 H 0.0569 0.86587 0.42744 0.0
H1158 H 0.04531 0.81677 0.43677 0.0
H1159 H 0.07456 0.81945 0.42421 0.0
H1160 H 0.03931 0.79005 0.4176 0.0
H1161 H 0.01026 0.79292 0.34336 0.0
H1162 H 0.05597 0.80122 0.33228 0.0
H1163 H 0.09712 0.83713 0.39142 0.0
C1164 C 0.99633 0.81959 0.41618 0.0
C1165 C 0.9675 0.80882 0.40953 0.0
C1166 C 0.95756 0.79781 0.38966 0.0
C1167 C 0.97629 0.79749 0.37645 0.0
C1168 C 1.00477 0.80823 0.38346 0.0
C1169 C 0.01471 0.81911 0.40289 0.0
C1170 C 0.04615 0.82934 0.40683 0.0
C1171 C 0.06304 0.86102 0.41314 0.0
C1172 C 0.05164 0.81291 0.42226 0.0
C1173 C 0.05245 0.82256 0.38661 0.0
C1174 C 0.02838 0.81038 0.3733 0.0
C1175 C 0.0292 0.80245 0.35368 0.0
C1176 C 0.05529 0.80722 0.34752 0.0
C1177 C 0.08025 0.81983 0.36093 0.0
C1178 C 0.07855 0.82743 0.38074 0.0
H1179 H 0.23398 0.19621 0.40863 0.0
H1180 H 0.24263 0.16603 0.35099 0.0
H1181 H 0.2179 0.1885 0.33523 0.0
H1182 H 0.16362 0.18993 0.39608 0.0
H1183 H 0.17315 0.2216 0.41135 0.0
H1184 H 0.18831 0.20033 0.41787 0.0
H1185 H 0.23887 0.2433 0.4184 0.0
H1186 H 0.22387 0.26462 0.41181 0.0
H1187 H 0.24881 0.26211 0.39685 0.0
H1188 H 0.19703 0.21841 0.32606 0.0
H1189 H 0.18107 0.25294 0.32391 0.0
H1190 H 0.18566 0.26316 0.3878 0.0
C1191 C 0.22997 0.19384 0.3927 0.0
C1192 C 0.23969 0.1793 0.38088 0.0
C1193 C 0.23488 0.17693 0.36014 0.0
C1194 C 0.22089 0.18958 0.35114 0.0
C1195 C 0.21187 0.20428 0.36319 0.0
C1196 C 0.21605 0.2063 0.38354 0.0
C1197 C 0.2062 0.22492 0.39313 0.0
C1198 C 0.18134 0.20819 0.40533 0.0
C1199 C 0.23091 0.25023 0.40578 0.0
C1200 C 0.19655 0.23372 0.37502 0.0
C1201 C 0.19977 0.22142 0.3579 0.0
C1202 C 0.19402 0.22784 0.33936 0.0
C1203 C 0.18506 0.24755 0.3383 0.0
C1204 C 0.18196 0.26065 0.35568 0.0
C1205 C 0.18738 0.25322 0.37423 0.0
H1206 H 0.6477 0.5296 0.72415 0.0
H1207 H 0.66783 0.55194 0.78757 0.0
H1208 H 0.71132 0.59473 0.78183 0.0
H1209 H 0.71871 0.54903 0.71545 0.0
H1210 H 0.71658 0.56119 0.69181 0.0
H1211 H 0.68502 0.53408 0.70067 0.0
H1212 H 0.66065 0.56376 0.69647 0.0
H1213 H 0.69222 0.59105 0.68769 0.0
H1214 H 0.67758 0.59893 0.70847 0.0
H1215 H 0.75313 0.63507 0.76933 0.0
H1216 H 0.7927 0.66703 0.75136 0.0
H1217 H 0.74903 0.61504 0.69655 0.0
C1218 C 0.66116 0.54316 0.73697 0.0
C1219 C 0.65364 0.53708 0.75638 0.0
C1220 C 0.67216 0.55613 0.77251 0.0
C1221 C 0.69722 0.58054 0.76942 0.0
C1222 C 0.70394 0.58552 0.75015 0.0
C1223 C 0.68668 0.56715 0.73422 0.0
C1224 C 0.69997 0.57614 0.71512 0.0
C1225 C 0.70539 0.55378 0.70518 0.0
C1226 C 0.6815 0.58287 0.70112 0.0
C1227 C 0.72755 0.60236 0.72284 0.0
C1228 C 0.72908 0.6077 0.74304 0.0
C1229 C 0.75223 0.631 0.75353 0.0
C1230 C 0.77462 0.64906 0.74316 0.0
C1231 C 0.77411 0.6434 0.72257 0.0
C1232 C 0.75011 0.6198 0.7123 0.0
H1233 H 0.48676 0.11075 0.7671 0.0
H1234 H 0.56058 0.16425 0.73751 0.0
H1235 H 0.53205 0.18 0.7184 0.0
H1236 H 0.43431 0.09044 0.72601 0.0
H1237 H 0.40824 0.09127 0.74065 0.0
H1238 H 0.43427 0.08368 0.75153 0.0
H1239 H 0.45017 0.1245 0.77889 0.0
H1240 H 0.42417 0.1322 0.7681 0.0
H1241 H 0.46103 0.15916 0.77207 0.0
H1242 H 0.49531 0.19008 0.70268 0.0
H1243 H 0.45367 0.19416 0.6918 0.0
H1244 H 0.40452 0.13548 0.73283 0.0
C1245 C 0.49715 0.12604 0.75679 0.0
C1246 C 0.52608 0.13632 0.75392 0.0
C1247 C 0.53844 0.1558 0.73987 0.0
C1248 C 0.52244 0.16501 0.72902 0.0
C1249 C 0.4941 0.15461 0.73242 0.0
C1250 C 0.4816 0.1356 0.746 0.0
C1251 C 0.45089 0.12786 0.74707 0.0
C1252 C 0.43075 0.09645 0.74094 0.0
C1253 C 0.44631 0.13645 0.76776 0.0
C1254 C 0.448 0.14553 0.73197 0.0
C1255 C 0.47313 0.16071 0.72362 0.0
C1256 C 0.47556 0.17832 0.70915 0.0
C1257 C 0.45172 0.18045 0.70305 0.0
C1258 C 0.42575 0.16518 0.71146 0.0
C1259 C 0.42404 0.14755 0.72616 0.0
H1260 H 0.90114 0.39135 0.71461 0.0
H1261 H 0.8952 0.37822 0.77681 0.0
H1262 H 0.88867 0.33136 0.76928 0.0
H1263 H 0.84426 0.32281 0.69786 0.0
H1264 H 0.85989 0.31963 0.67603 0.0
H1265 H 0.86769 0.35362 0.68647 0.0
H1266 H 0.92155 0.37058 0.68886 0.0
H1267 H 0.9139 0.33657 0.67849 0.0
H1268 H 0.93495 0.35144 0.70194 0.0
H1269 H 0.88208 0.28569 0.75521 0.0
H1270 H 0.87081 0.2423 0.73508 0.0
H1271 H 0.87492 0.28267 0.68172 0.0
C1272 C 0.89832 0.37874 0.72673 0.0
C1273 C 0.89922 0.38905 0.74641 0.0
C1274 C 0.89565 0.37153 0.76169 0.0
C1275 C 0.89165 0.34465 0.75756 0.0
C1276 C 0.89071 0.33525 0.73804 0.0
C1277 C 0.89352 0.35156 0.72284 0.0
C1278 C 0.88937 0.33557 0.70299 0.0
C1279 C 0.86377 0.33274 0.69008 0.0
C1280 C 0.91657 0.34937 0.69245 0.0
C1281 C 0.88354 0.30762 0.70944 0.0
C1282 C 0.88502 0.30813 0.72976 0.0
C1283 C 0.8808 0.28499 0.73929 0.0
C1284 C 0.87453 0.26051 0.72774 0.0
C1285 C 0.872 0.25924 0.70688 0.0
C1286 C 0.87664 0.28312 0.69764 0.0
H1287 H 0.19858 0.9805 0.61691 0.0
H1288 H 0.20441 0.93304 0.66385 0.0
H1289 H 0.24136 0.97665 0.6825 0.0
H1290 H 0.27522 0.02863 0.61984 0.0
H1291 H 0.27131 0.05804 0.61414 0.0
H1292 H 0.24437 0.02306 0.60456 0.0
H1293 H 0.20628 0.03058 0.62028 0.0
H1294 H 0.23311 0.0655 0.63 0.0
H1295 H 0.21094 0.04104 0.64636 0.0
H1296 H 0.2754 0.02561 0.69729 0.0
H1297 H 0.30838 0.0765 0.70538 0.0
H1298 H 0.28554 0.09177 0.64739 0.0
C1299 C 0.2078 0.97902 0.63095 0.0
C1300 C 0.19775 0.95298 0.63894 0.0
C1301 C 0.21062 0.95252 0.65754 0.0
C1302 C 0.23199 0.97726 0.66824 0.0
C1303 C 0.24099 0.0024 0.66003 0.0
C1304 C 0.22974 0.00346 0.64165 0.0
C1305 C 0.24394 0.03325 0.63598 0.0
C1306 C 0.25964 0.03589 0.61754 0.0
C1307 C 0.22227 0.04317 0.63298 0.0
C1308 C 0.26462 0.04874 0.65418 0.0
C1309 C 0.26227 0.03054 0.66798 0.0
C1310 C 0.27781 0.04002 0.68649 0.0
C1311 C 0.29637 0.06886 0.69098 0.0
C1312 C 0.29964 0.08771 0.67688 0.0
C1313 C 0.28371 0.07755 0.65823 0.0
H1314 H 0.03628 0.23854 0.61813 0.0
H1315 H 0.03207 0.16031 0.62964 0.0
H1316 H 0.98619 0.1444 0.64317 0.0
H1317 H 0.00858 0.24773 0.66086 0.0
H1318 H 0.98755 0.26113 0.64969 0.0
H1319 H 0.01881 0.26575 0.63899 0.0
H1320 H 0.98905 0.24144 0.60548 0.0
H1321 H 0.95773 0.23716 0.61599 0.0
H1322 H 0.95801 0.20715 0.60452 0.0
H1323 H 0.94395 0.13908 0.65907 0.0
H1324 H 0.90436 0.14212 0.67245 0.0
H1325 H 0.9339 0.22262 0.64951 0.0
C1326 C 0.02524 0.21776 0.62295 0.0
C1327 C 0.03787 0.20073 0.62292 0.0
C1328 C 0.02294 0.17381 0.62968 0.0
C1329 C 0.99685 0.16456 0.6374 0.0
C1330 C 0.98556 0.18226 0.63804 0.0
C1331 C 0.99888 0.20803 0.63062 0.0
C1332 C 0.9823 0.22313 0.63365 0.0
C1333 C 1.0004 0.25109 0.64657 0.0
C1334 C 0.97111 0.22747 0.61372 0.0
C1335 C 0.95815 0.20215 0.64437 0.0
C1336 C 0.96053 0.17877 0.64677 0.0
C1337 C 0.9416 0.15711 0.65703 0.0
C1338 C 0.9193 0.15913 0.66473 0.0
C1339 C 0.91592 0.18254 0.66203 0.0
C1340 C 0.93575 0.20433 0.65172 0.0
H1341 H 0.75867 0.79848 0.62946 0.0
H1342 H 0.81262 0.87596 0.66681 0.0
H1343 H 0.83732 0.85421 0.68299 0.0
H1344 H 0.75083 0.75237 0.6661 0.0
H1345 H 0.75205 0.72646 0.64957 0.0
H1346 H 0.73908 0.74828 0.64025 0.0
H1347 H 0.7762 0.76445 0.6148 0.0
H1348 H 0.78928 0.74265 0.62404 0.0
H1349 H 0.81331 0.77953 0.62323 0.0
H1350 H 0.85547 0.82437 0.69566 0.0
H1351 H 0.86598 0.78772 0.70444 0.0
H1352 H 0.8006 0.7291 0.65897 0.0
C1353 C 0.77585 0.81089 0.64092 0.0
C1354 C 0.78357 0.83883 0.64701 0.0
C1355 C 0.80603 0.85437 0.66215 0.0
C1356 C 0.82033 0.84228 0.67133 0.0
C1357 C 0.81202 0.81465 0.66517 0.0
C1358 C 0.79038 0.79909 0.65032 0.0
C1359 C 0.78532 0.76955 0.64693 0.0
C1360 C 0.75502 0.74789 0.65096 0.0
C1361 C 0.7914 0.76371 0.62601 0.0
C1362 C 0.80731 0.77096 0.66237 0.0
C1363 C 0.82255 0.79724 0.6726 0.0
C1364 C 0.84376 0.8037 0.68772 0.0
C1365 C 0.84955 0.78268 0.6926 0.0
C1366 C 0.8341 0.75546 0.68244 0.0
C1367 C 0.81278 0.74966 0.66705 0.0
H1368 H 0.06615 0.82232 0.67289 0.0
H1369 H 0.0441 0.82117 0.6107 0.0
H1370 H 0.99302 0.79111 0.61519 0.0
H1371 H 0.01385 0.75096 0.67792 0.0
H1372 H 0.00656 0.7585 0.70223 0.0
H1373 H 0.04108 0.78013 0.69412 0.0
H1374 H 0.03652 0.82411 0.70157 0.0
H1375 H 1.002 0.80261 0.70973 0.0
H1376 H 1.00614 0.82499 0.69051 0.0
H1377 H 0.94479 0.76097 0.62656 0.0
H1378 H 0.90249 0.73296 0.64351 0.0
H1379 H 0.95576 0.75357 0.69879 0.0
C1380 C 0.05044 0.81573 0.66027 0.0
C1381 C 0.0587 0.8239 0.64145 0.0
C1382 C 0.03792 0.81503 0.6252 0.0
C1383 C 0.00898 0.79801 0.62765 0.0
C1384 C 1.00141 0.79018 0.64645 0.0
C1385 C 0.02153 0.79877 0.66249 0.0
C1386 C 0.00781 0.7873 0.68107 0.0
C1387 C 0.01793 0.76808 0.68932 0.0
C1388 C 0.01345 0.81118 0.69664 0.0
C1389 C 0.97676 0.77081 0.673 0.0
C1390 C 0.9736 0.7728 0.653 0.0
C1391 C 0.94703 0.75932 0.64221 0.0
C1392 C 0.92306 0.7434 0.65205 0.0
C1393 C 0.92562 0.74097 0.67258 0.0
C1394 C 0.95297 0.75496 0.68314 0.0
H1395 H 0.19275 0.22381 0.67302 0.0
H1396 H 0.17402 0.1942 0.61086 0.0
H1397 H 0.21269 0.18275 0.61324 0.0
H1398 H 0.27033 0.2544 0.67521 0.0
H1399 H 0.27284 0.24377 0.69937 0.0
H1400 H 0.24519 0.25137 0.69229 0.0
H1401 H 0.20738 0.20222 0.70059 0.0
H1402 H 0.23486 0.19435 0.70748 0.0
H1403 H 0.20633 0.1716 0.6889 0.0
H1404 H 0.25118 0.17197 0.62301 0.0
H1405 H 0.28828 0.16443 0.63871 0.0
H1406 H 0.28229 0.2012 0.69491 0.0
C1407 C 0.1973 0.21546 0.65986 0.0
C1408 C 0.18094 0.21018 0.64167 0.0
C1409 C 0.18678 0.19869 0.62481 0.0
C1410 C 0.20856 0.19207 0.62608 0.0
C1411 C 0.22414 0.1971 0.64434 0.0
C1412 C 0.21895 0.20875 0.6609 0.0
C1413 C 0.23811 0.21119 0.67888 0.0
C1414 C 0.25779 0.24202 0.68691 0.0
C1415 C 0.22062 0.1938 0.6949 0.0
C1416 C 0.25468 0.19876 0.66992 0.0
C1417 C 0.24629 0.19082 0.64998 0.0
C1418 C 0.25806 0.17832 0.63858 0.0
C1419 C 0.27915 0.17406 0.6477 0.0
C1420 C 0.2884 0.18227 0.6681 0.0
C1421 C 0.27581 0.19471 0.67931 0.0
H1422 H 0.74605 0.96514 0.67398 0.0
H1423 H 0.76866 0.95302 0.616 0.0
H1424 H 0.78527 0.00283 0.61127 0.0
H1425 H 0.72272 0.01552 0.66219 0.0
H1426 H 0.73754 0.03557 0.68589 0.0
H1427 H 0.72464 0.99847 0.68348 0.0
H1428 H 0.77365 0.00773 0.69866 0.0
H1429 H 0.78671 0.04478 0.70101 0.0
H1430 H 0.8052 0.03088 0.68757 0.0
H1431 H 0.80337 0.05522 0.61452 0.0
H1432 H 0.82112 0.10516 0.62529 0.0
H1433 H 0.78616 0.08183 0.68119 0.0
C1434 C 0.75388 0.97293 0.66013 0.0
C1435 C 0.75585 0.9556 0.6452 0.0
C1436 C 0.76675 0.96624 0.62742 0.0
C1437 C 0.7762 0.9944 0.62466 0.0
C1438 C 0.77442 0.0113 0.63984 0.0
C1439 C 0.76335 0.00087 0.65718 0.0
C1440 C 0.76549 0.02359 0.67176 0.0
C1441 C 0.73583 0.01795 0.67607 0.0
C1442 C 0.78386 0.02694 0.69087 0.0
C1443 C 0.78007 0.0486 0.66015 0.0
C1444 C 0.78488 0.04119 0.64171 0.0
C1445 C 0.79938 0.06119 0.62883 0.0
C1446 C 0.8094 0.0895 0.63507 0.0
C1447 C 0.80498 0.09744 0.65405 0.0
C1448 C 0.78979 0.07655 0.66654 0.0
H1449 H 0.53285 0.36587 0.74861 0.0
H1450 H 0.51541 0.41093 0.7052 0.0
H1451 H 0.46922 0.36845 0.69404 0.0
H1452 H 0.50539 0.3025 0.71903 0.0
H1453 H 0.49007 0.28014 0.73829 0.0
H1454 H 0.52025 0.31471 0.74432 0.0
H1455 H 0.49233 0.32659 0.76882 0.0
H1456 H 0.46207 0.29193 0.76293 0.0
H1457 H 0.45826 0.32219 0.76035 0.0
H1458 H 0.42806 0.32029 0.6852 0.0
H1459 H 0.393 0.26975 0.68017 0.0
H1460 H 0.43591 0.25574 0.73008 0.0
C1461 C 0.51888 0.36679 0.73708 0.0
C1462 C 0.52719 0.39144 0.72779 0.0
C1463 C 0.50899 0.39211 0.71252 0.0
C1464 C 0.48282 0.36815 0.70612 0.0
C1465 C 0.47526 0.34387 0.7153 0.0
C1466 C 0.49258 0.34304 0.73059 0.0
C1467 C 0.48005 0.31385 0.73718 0.0
C1468 C 0.50014 0.30212 0.73454 0.0
C1469 C 0.47274 0.31364 0.75859 0.0
C1470 C 0.45342 0.29828 0.72285 0.0
C1471 C 0.45106 0.31605 0.71041 0.0
C1472 C 0.42939 0.30625 0.69505 0.0
C1473 C 0.40966 0.27751 0.69226 0.0
C1474 C 0.41162 0.25893 0.70485 0.0
C1475 C 0.4336 0.26956 0.72048 0.0
H1476 H 0.67013 0.13675 0.7589 0.0
H1477 H 0.61341 0.12715 0.70812 0.0
H1478 H 0.65371 0.14446 0.6874 0.0
H1479 H 0.73369 0.20011 0.7461 0.0
H1480 H 0.75739 0.18844 0.7552 0.0
H1481 H 0.7248 0.17829 0.76614 0.0
H1482 H 0.71041 0.1261 0.75927 0.0
H1483 H 0.74284 0.13613 0.74823 0.0
H1484 H 0.70914 0.11217 0.73445 0.0
H1485 H 0.69958 0.15878 0.67189 0.0
H1486 H 0.74695 0.16954 0.66286 0.0
H1487 H 0.77336 0.1697 0.72417 0.0
C1488 C 0.66646 0.13901 0.74351 0.0
C1489 C 0.63904 0.13116 0.73501 0.0
C1490 C 0.63454 0.13355 0.71481 0.0
C1491 C 0.65725 0.14329 0.703 0.0
C1492 C 0.68415 0.1505 0.71174 0.0
C1493 C 0.68885 0.14864 0.73159 0.0
C1494 C 0.71924 0.15597 0.7372 0.0
C1495 C 0.73469 0.18227 0.75203 0.0
C1496 C 0.72046 0.13111 0.74525 0.0
C1497 C 0.73082 0.1617 0.71734 0.0
C1498 C 0.71037 0.15863 0.70285 0.0
C1499 C 0.71584 0.16156 0.68317 0.0
C1500 C 0.74281 0.16762 0.67818 0.0
C1501 C 0.76401 0.17063 0.69279 0.0
C1502 C 0.75783 0.16787 0.71264 0.0
H1503 H 0.8808 0.51782 0.69842 0.0
H1504 H 0.88421 0.51989 0.7621 0.0
H1505 H 0.87893 0.56196 0.76377 0.0
H1506 H 0.91983 0.59355 0.69623 0.0
H1507 H 0.89826 0.59209 0.67463 0.0
H1508 H 0.90352 0.56298 0.67856 0.0
H1509 H 0.849 0.52979 0.67584 0.0
H1510 H 0.84358 0.55881 0.67199 0.0
H1511 H 0.82807 0.53757 0.69176 0.0
H1512 H 0.87152 0.6021 0.75839 0.0
H1513 H 0.86329 0.63889 0.74678 0.0
H1514 H 0.86463 0.61122 0.68615 0.0
C1515 C 0.88072 0.52744 0.71268 0.0
C1516 C 0.88306 0.51609 0.73018 0.0
C1517 C 0.88262 0.52867 0.74862 0.0
C1518 C 0.8796 0.55244 0.74967 0.0
C1519 C 0.87711 0.56315 0.73211 0.0
C1520 C 0.87774 0.55117 0.71396 0.0
C1521 C 0.874 0.56649 0.69734 0.0
C1522 C 0.90048 0.57956 0.68603 0.0
C1523 C 0.84706 0.547 0.68342 0.0
C1524 C 0.87086 0.58879 0.70897 0.0
C1525 C 0.8728 0.58644 0.72899 0.0
C1526 C 0.87011 0.60425 0.74277 0.0
C1527 C 0.86537 0.62509 0.73596 0.0
C1528 C 0.86333 0.62805 0.7155 0.0
C1529 C 0.86616 0.60959 0.70186 0.0
H1530 H 0.41329 0.89794 0.23345 0.0
H1531 H 0.49093 0.92418 0.27131 0.0
H1532 H 0.51915 0.95034 0.24515 0.0
H1533 H 0.43924 0.88984 0.18757 0.0
H1534 H 0.42084 0.90361 0.1734 0.0
H1535 H 0.40644 0.88622 0.1949 0.0
H1536 H 0.40562 0.92995 0.20973 0.0
H1537 H 0.41988 0.94741 0.18823 0.0
H1538 H 0.43783 0.96354 0.2124 0.0
H1539 H 0.53917 0.97396 0.21515 0.0
H1540 H 0.54969 0.99457 0.18351 0.0
H1541 H 0.45931 0.95475 0.16522 0.0
C1542 C 0.43622 0.90932 0.23631 0.0
C1543 C 0.44982 0.9087 0.25448 0.0
C1544 C 0.47993 0.92377 0.25745 0.0
C1545 C 0.49619 0.93886 0.2427 0.0
C1546 C 0.48214 0.93888 0.22499 0.0
C1547 C 0.45284 0.92462 0.22172 0.0
C1548 C 0.44313 0.92852 0.20143 0.0
C1549 C 0.42643 0.90037 0.18857 0.0
C1550 C 0.42558 0.94324 0.20305 0.0
C1551 C 0.47155 0.94727 0.19387 0.0
C1552 C 0.49374 0.95289 0.2077 0.0
C1553 C 0.52197 0.96982 0.20423 0.0
C1554 C 0.52772 0.98157 0.18623 0.0
C1555 C 0.50538 0.9765 0.17185 0.0
C1556 C 0.47691 0.95887 0.17577 0.0
H1557 H 0.06196 0.48172 0.25393 0.0
H1558 H 0.1125 0.57236 0.25912 0.0
H1559 H 0.10071 0.57197 0.22353 0.0
H1560 H 0.07889 0.46912 0.20466 0.0
H1561 H 0.04347 0.44051 0.19715 0.0
H1562 H 0.05742 0.44782 0.22274 0.0
H1563 H 0.01418 0.45183 0.23226 0.0
H1564 H 1.00017 0.44467 0.20672 0.0
H1565 H 1.00623 0.47605 0.22081 0.0
H1566 H 0.08239 0.5619 0.18775 0.0
H1567 H 0.05755 0.54303 0.15432 0.0
H1568 H 0.01799 0.45884 0.1723 0.0
C1569 C 0.07088 0.50142 0.24747 0.0
C1570 C 0.08826 0.52708 0.25921 0.0
C1571 C 0.09909 0.5525 0.25037 0.0
C1572 C 0.0926 0.55247 0.23017 0.0
C1573 C 0.07514 0.52685 0.21905 0.0
C1574 C 0.06437 0.50178 0.22736 0.0
C1575 C 0.04497 0.47728 0.21229 0.0
C1576 C 0.05691 0.45752 0.20902 0.0
C1577 C 0.01459 0.46154 0.21839 0.0
C1578 C 0.04634 0.49252 0.19426 0.0
C1579 C 0.06409 0.52107 0.19845 0.0
C1580 C 0.06858 0.53957 0.18426 0.0
C1581 C 0.05447 0.52863 0.16528 0.0
C1582 C 0.03592 0.49945 0.16065 0.0
C1583 C 0.03192 0.48124 0.1754 0.0
H1584 H 0.49841 0.53149 0.24477 0.0
H1585 H 0.41402 0.51852 0.23005 0.0
H1586 H 0.41376 0.49987 0.19609 0.0
H1587 H 0.5254 0.55642 0.20137 0.0
H1588 H 0.54649 0.53971 0.19972 0.0
H1589 H 0.53836 0.54811 0.22341 0.0
H1590 H 0.51621 0.4963 0.2307 0.0
H1591 H 0.52459 0.48775 0.20708 0.0
H1592 H 0.48858 0.46914 0.21345 0.0
H1593 H 0.42601 0.48933 0.16256 0.0
H1594 H 0.44808 0.48489 0.1331 0.0
H1595 H 0.52356 0.50242 0.17044 0.0
C1596 C 0.47961 0.52408 0.2345 0.0
C1597 C 0.45618 0.52632 0.23997 0.0
C1598 C 0.43201 0.51661 0.22618 0.0
C1599 C 0.43176 0.50612 0.20687 0.0
C1600 C 0.45566 0.50509 0.20174 0.0
C1601 C 0.47894 0.51338 0.2153 0.0
C1602 C 0.50263 0.51181 0.20591 0.0
C1603 C 0.52981 0.54073 0.20771 0.0
C1604 C 0.50833 0.48994 0.21481 0.0
C1605 C 0.48953 0.50235 0.18476 0.0
C1606 C 0.46239 0.49842 0.18263 0.0
C1607 C 0.44699 0.4917 0.16415 0.0
C1608 C 0.45971 0.48908 0.14747 0.0
C1609 C 0.48761 0.4931 0.1493 0.0
C1610 C 0.50234 0.49938 0.16835 0.0
H1611 H 0.90934 0.43545 0.80942 0.0
H1612 H 0.9549 0.51504 0.7849 0.0
H1613 H 0.97772 0.53825 0.81828 0.0
H1614 H 0.89847 0.46234 0.85625 0.0
H1615 H 0.90384 0.43818 0.86998 0.0
H1616 H 0.88933 0.4285 0.84449 0.0
H1617 H 0.92939 0.41828 0.83652 0.0
H1618 H 0.94401 0.42791 0.86194 0.0
H1619 H 0.96595 0.4452 0.84278 0.0
H1620 H 0.99815 0.55193 0.85405 0.0
H1621 H 0.01408 0.55522 0.88924 0.0
H1622 H 0.95583 0.46625 0.88993 0.0
C1623 C 0.92406 0.4578 0.81104 0.0
C1624 C 0.93042 0.47343 0.7945 0.0
C1625 C 0.94949 0.50269 0.79735 0.0
C1626 C 0.96262 0.51601 0.81624 0.0
C1627 C 0.95628 0.49981 0.83213 0.0
C1628 C 0.93732 0.47136 0.82971 0.0
C1629 C 0.93505 0.45839 0.84894 0.0
C1630 C 0.90488 0.44613 0.85529 0.0
C1631 C 0.94416 0.43614 0.84745 0.0
C1632 C 0.95616 0.4839 0.86256 0.0
C1633 C 0.96804 0.50763 0.85263 0.0
C1634 C 0.98886 0.53351 0.86198 0.0
C1635 C 0.99789 0.53513 0.88194 0.0
C1636 C 0.98623 0.51099 0.89235 0.0
C1637 C 0.96486 0.48515 0.88249 0.0
H1638 H 0.5793 0.5217 0.80153 0.0
H1639 H 0.5702 0.43916 0.80224 0.0
H1640 H 0.55117 0.43462 0.83446 0.0
H1641 H 0.60306 0.54309 0.85271 0.0
H1642 H 0.5844 0.56211 0.85583 0.0
H1643 H 0.59572 0.55838 0.83215 0.0
H1644 H 0.54402 0.53663 0.81603 0.0
H1645 H 0.53254 0.5403 0.83967 0.0
H1646 H 0.516 0.5065 0.82559 0.0
H1647 H 0.53532 0.43958 0.86717 0.0
H1648 H 0.5228 0.45357 0.89827 0.0
H1649 H 0.54289 0.53328 0.87712 0.0
C1650 C 0.57325 0.50265 0.80843 0.0
C1651 C 0.57603 0.48067 0.79917 0.0
C1652 C 0.56773 0.45605 0.80874 0.0
C1653 C 0.55706 0.45333 0.82715 0.0
C1654 C 0.5548 0.4754 0.8359 0.0
C1655 C 0.56257 0.49957 0.82688 0.0
C1656 C 0.55866 0.52041 0.83981 0.0
C1657 C 0.58716 0.54761 0.84546 0.0
C1658 C 0.53648 0.5263 0.82967 0.0
C1659 C 0.54776 0.50425 0.85755 0.0
C1660 C 0.54568 0.47832 0.85493 0.0
C1661 C 0.53679 0.45981 0.86939 0.0
C1662 C 0.5299 0.46802 0.88706 0.0
C1663 C 0.53194 0.49454 0.89017 0.0
C1664 C 0.54083 0.51277 0.8751 0.0
H1665 H 0.54217 0.0632 0.81355 0.0
H1666 H 0.54973 0.14457 0.82602 0.0
H1667 H 0.54121 0.13507 0.86068 0.0
H1668 H 0.48625 0.02617 0.84421 0.0
H1669 H 0.4999 0.00414 0.85202 0.0
H1670 H 0.50656 0.01748 0.82829 0.0
H1671 H 0.56071 0.03923 0.83745 0.0
H1672 H 0.55422 0.02604 0.86125 0.0
H1673 H 0.57743 0.06288 0.85959 0.0
H1674 H 0.53293 0.11694 0.89418 0.0
H1675 H 0.52384 0.09103 0.92365 0.0
H1676 H 0.52051 0.02104 0.88883 0.0
C1677 C 0.54221 0.0791 0.8236 0.0
C1678 C 0.54669 0.10467 0.81713 0.0
C1679 C 0.54611 0.12475 0.83065 0.0
C1680 C 0.54145 0.1196 0.85037 0.0
C1681 C 0.53727 0.09422 0.85628 0.0
C1682 C 0.53746 0.07425 0.84327 0.0
C1683 C 0.53209 0.04856 0.85326 0.0
C1684 C 0.50456 0.02256 0.84389 0.0
C1685 C 0.55764 0.04392 0.85286 0.0
C1686 C 0.52898 0.05723 0.87398 0.0
C1687 C 0.5321 0.08365 0.87544 0.0
C1688 C 0.53026 0.09615 0.89317 0.0
C1689 C 0.52492 0.08118 0.90981 0.0
C1690 C 0.52134 0.0539 0.90861 0.0
C1691 C 0.52349 0.04194 0.89038 0.0
H1692 H 0.08405 0.2239 0.5589 0.0
H1693 H 0.15812 0.28299 0.59842 0.0
H1694 H 0.18013 0.3095 0.57053 0.0
H1695 H 0.12205 0.22344 0.51753 0.0
H1696 H 0.09584 0.22152 0.49913 0.0
H1697 H 0.08525 0.20702 0.52218 0.0
H1698 H 0.06232 0.23768 0.5284 0.0
H1699 H 0.07273 0.25217 0.50532 0.0
H1700 H 0.08338 0.27506 0.52787 0.0
H1701 H 0.19464 0.32961 0.53882 0.0
H1702 H 0.20076 0.3427 0.50486 0.0
H1703 H 0.11766 0.27134 0.48485 0.0
C1704 C 0.1048 0.24253 0.56168 0.0
C1705 C 0.11944 0.25118 0.58091 0.0
C1706 C 0.14665 0.27562 0.58384 0.0
C1707 C 0.15931 0.29094 0.56809 0.0
C1708 C 0.14457 0.28169 0.54934 0.0
C1709 C 0.11791 0.25812 0.54599 0.0
C1710 C 0.107 0.25282 0.52422 0.0
C1711 C 0.10226 0.22452 0.51524 0.0
C1712 C 0.07974 0.25454 0.52129 0.0
C1713 C 0.1317 0.2771 0.51596 0.0
C1714 C 0.15306 0.29344 0.53081 0.0
C1715 C 0.178 0.31707 0.52708 0.0
C1716 C 0.18121 0.32441 0.50771 0.0
C1717 C 0.15963 0.30828 0.49212 0.0
C1718 C 0.13461 0.28408 0.49637 0.0
H1719 H 0.72144 0.81902 0.5826 0.0
H1720 H 0.77114 0.9096 0.58619 0.0
H1721 H 0.7604 0.90777 0.55024 0.0
H1722 H 0.7396 0.80468 0.53408 0.0
H1723 H 0.70435 0.77575 0.52663 0.0
H1724 H 0.71789 0.78408 0.55232 0.0
H1725 H 0.67425 0.78813 0.5607 0.0
H1726 H 0.66066 0.77999 0.53506 0.0
H1727 H 0.66631 0.81175 0.54834 0.0
H1728 H 0.74306 0.89632 0.51441 0.0
H1729 H 0.71887 0.87612 0.48094 0.0
H1730 H 0.67898 0.79293 0.50065 0.0
C1731 C 0.73042 0.83837 0.57569 0.0
C1732 C 0.74726 0.86445 0.58701 0.0
C1733 C 0.7582 0.88945 0.57767 0.0
C1734 C 0.75229 0.8886 0.55731 0.0
C1735 C 0.73528 0.86259 0.54657 0.0
C1736 C 0.72442 0.83792 0.55541 0.0
C1737 C 0.70536 0.81288 0.54067 0.0
C1738 C 0.71754 0.79319 0.53829 0.0
C1739 C 0.67484 0.79728 0.54655 0.0
C1740 C 0.70696 0.82737 0.52223 0.0
C1741 C 0.7246 0.85601 0.52594 0.0
C1742 C 0.72932 0.87391 0.51129 0.0
C1743 C 0.71558 0.86225 0.49233 0.0
C1744 C 0.69715 0.83299 0.48823 0.0
C1745 C 0.69284 0.81538 0.50341 0.0
H1746 H 0.1468 0.85467 0.57334 0.0
H1747 H 0.14552 0.93229 0.57197 0.0
H1748 H 0.14694 0.9296 0.53581 0.0
H1749 H 0.19624 0.86924 0.53865 0.0
H1750 H 0.18011 0.83391 0.52709 0.0
H1751 H 0.17578 0.84009 0.55249 0.0
H1752 H 0.12107 0.81134 0.54472 0.0
H1753 H 0.12523 0.80484 0.5193 0.0
H1754 H 0.10415 0.82052 0.52537 0.0
H1755 H 0.15188 0.92031 0.50028 0.0
H1756 H 0.16017 0.90525 0.46784 0.0
H1757 H 0.15859 0.83361 0.49201 0.0
C1758 C 0.14609 0.87067 0.56532 0.0
C1759 C 0.14576 0.89356 0.57539 0.0
C1760 C 0.14566 0.91455 0.56449 0.0
C1761 C 0.14642 0.91317 0.54397 0.0
C1762 C 0.14737 0.89068 0.53451 0.0
C1763 C 0.14713 0.86974 0.54479 0.0
C1764 C 0.15015 0.84886 0.53122 0.0
C1765 C 0.17718 0.84799 0.53776 0.0
C1766 C 0.12356 0.81966 0.53008 0.0
C1767 C 0.15258 0.86158 0.51181 0.0
C1768 C 0.15066 0.88554 0.51401 0.0
C1769 C 0.1531 0.90139 0.49832 0.0
C1770 C 0.15768 0.89257 0.4799 0.0
C1771 C 0.15993 0.86815 0.47724 0.0
C1772 C 0.15718 0.85247 0.4935 0.0
H1773 H 0.59455 0.76981 0.1378 0.0
H1774 H 0.64107 0.85022 0.11439 0.0
H1775 H 0.66032 0.8731 0.14815 0.0
H1776 H 0.57934 0.79499 0.18388 0.0
H1777 H 0.58485 0.77124 0.19802 0.0
H1778 H 0.57189 0.76164 0.17224 0.0
H1779 H 0.61358 0.75322 0.16586 0.0
H1780 H 0.62666 0.76282 0.19156 0.0
H1781 H 0.64956 0.78092 0.17305 0.0
H1782 H 0.67778 0.88673 0.18408 0.0
H1783 H 0.69214 0.8901 0.21955 0.0
H1784 H 0.63619 0.80049 0.21935 0.0
C1785 C 0.60865 0.79226 0.13972 0.0
C1786 C 0.61615 0.80818 0.12334 0.0
C1787 C 0.6345 0.83757 0.12664 0.0
C1788 C 0.6457 0.85077 0.14579 0.0
C1789 C 0.63837 0.83434 0.16151 0.0
C1790 C 0.6202 0.80573 0.1587 0.0
C1791 C 0.61722 0.79261 0.17794 0.0
C1792 C 0.58649 0.77934 0.18334 0.0
C1793 C 0.62737 0.77113 0.17704 0.0
C1794 C 0.63706 0.81823 0.19195 0.0
C1795 C 0.64881 0.84213 0.18221 0.0
C1796 C 0.6686 0.86819 0.19188 0.0
C1797 C 0.67678 0.86984 0.212 0.0
C1798 C 0.66536 0.84555 0.22224 0.0
C1799 C 0.64498 0.8195 0.21204 0.0
H1800 H 0.22126 0.78658 0.1377 0.0
H1801 H 0.2364 0.86136 0.11072 0.0
H1802 H 0.21891 0.87576 0.13905 0.0
H1803 H 0.15634 0.7734 0.15786 0.0
H1804 H 0.1641 0.76153 0.1802 0.0
H1805 H 0.17786 0.75703 0.15779 0.0
H1806 H 0.22891 0.78369 0.17559 0.0
H1807 H 0.21533 0.78837 0.19804 0.0
H1808 H 0.24237 0.81836 0.18774 0.0
H1809 H 0.19984 0.88215 0.17005 0.0
H1810 H 0.18046 0.88025 0.20201 0.0
H1811 H 0.17698 0.8011 0.20899 0.0
C1812 C 0.22069 0.80587 0.1377 0.0
C1813 C 0.23036 0.82293 0.12204 0.0
C1814 C 0.22953 0.84818 0.12269 0.0
C1815 C 0.21949 0.85646 0.13866 0.0
C1816 C 0.21031 0.83929 0.1539 0.0
C1817 C 0.21079 0.81453 0.15359 0.0
C1818 C 0.19981 0.80006 0.17196 0.0
C1819 C 0.17293 0.7713 0.16663 0.0
C1820 C 0.22299 0.79748 0.18404 0.0
C1821 C 0.19309 0.82057 0.1826 0.0
C1822 C 0.19927 0.84301 0.17188 0.0
C1823 C 0.19481 0.86464 0.17856 0.0
C1824 C 0.18364 0.86328 0.19669 0.0
C1825 C 0.17704 0.84047 0.20797 0.0
C1826 C 0.18199 0.81891 0.20079 0.0
H1827 H 0.20871 0.39042 0.12907 0.0
H1828 H 0.22612 0.47496 0.14449 0.0
H1829 H 0.21959 0.46521 0.17931 0.0
H1830 H 0.15337 0.35799 0.1596 0.0
H1831 H 0.16218 0.33201 0.16642 0.0
H1832 H 0.17101 0.3464 0.14317 0.0
H1833 H 0.22378 0.36135 0.15228 0.0
H1834 H 0.21508 0.34685 0.17554 0.0
H1835 H 0.24215 0.38291 0.17502 0.0
H1836 H 0.20908 0.44553 0.2122 0.0
H1837 H 0.19486 0.41746 0.24053 0.0
H1838 H 0.1816 0.34477 0.20328 0.0
C1839 C 0.21179 0.40703 0.1399 0.0
C1840 C 0.21827 0.43357 0.13418 0.0
C1841 C 0.22132 0.45456 0.14863 0.0
C1842 C 0.21768 0.44921 0.16842 0.0
C1843 C 0.21078 0.42267 0.17353 0.0
C1844 C 0.20785 0.40191 0.15969 0.0
C1845 C 0.19858 0.37467 0.16881 0.0
C1846 C 0.16956 0.3514 0.15891 0.0
C1847 C 0.22126 0.36594 0.16786 0.0
C1848 C 0.19653 0.38328 0.18988 0.0
C1849 C 0.20388 0.41111 0.19233 0.0
C1850 C 0.20326 0.42371 0.21043 0.0
C1851 C 0.19487 0.40746 0.22643 0.0
C1852 C 0.18691 0.37874 0.22427 0.0
C1853 C 0.1879 0.36669 0.20565 0.0
H1854 H 0.78412 0.57154 0.88109 0.0
H1855 H 0.77961 0.62999 0.9239 0.0
H1856 H 0.79658 0.66568 0.90015 0.0
H1857 H 0.84868 0.62077 0.86398 0.0
H1858 H 0.83864 0.6055 0.83872 0.0
H1859 H 0.82371 0.58389 0.85838 0.0
H1860 H 0.77295 0.56783 0.84245 0.0
H1861 H 0.78773 0.58935 0.8227 0.0
H1862 H 0.76326 0.59371 0.83706 0.0
H1863 H 0.81678 0.69598 0.87206 0.0
H1864 H 0.83729 0.71771 0.84209 0.0
H1865 H 0.83097 0.6399 0.81875 0.0
C1866 C 0.78664 0.59181 0.88555 0.0
C1867 C 0.78051 0.59787 0.90448 0.0
C1868 C 0.78374 0.62461 0.90945 0.0
C1869 C 0.79357 0.64511 0.89608 0.0
C1870 C 0.80005 0.63859 0.87776 0.0
C1871 C 0.79658 0.61251 0.87248 0.0
C1872 C 0.80606 0.61101 0.85224 0.0
C1873 C 0.83074 0.60494 0.85341 0.0
C1874 C 0.781 0.58918 0.83776 0.0
C1875 C 0.81578 0.64045 0.84702 0.0
C1876 C 0.812 0.65602 0.86184 0.0
C1877 C 0.8198 0.68393 0.86038 0.0
C1878 C 0.8317 0.69618 0.84333 0.0
C1879 C 0.83589 0.68064 0.82795 0.0
C1880 C 0.82773 0.65236 0.82999 0.0
H1881 H 0.42667 0.22472 0.92239 0.0
H1882 H 0.41118 0.14069 0.92892 0.0
H1883 H 0.39761 0.12827 0.89332 0.0
H1884 H 0.36693 0.20361 0.88777 0.0
H1885 H 0.38422 0.23298 0.87349 0.0
H1886 H 0.39569 0.23656 0.8993 0.0
H1887 H 0.44702 0.25291 0.89096 0.0
H1888 H 0.4357 0.24935 0.86508 0.0
H1889 H 0.45338 0.23118 0.87372 0.0
H1890 H 0.38244 0.12337 0.85773 0.0
H1891 H 0.36614 0.12639 0.82395 0.0
H1892 H 0.38978 0.21286 0.83986 0.0
C1893 C 0.42062 0.20377 0.91634 0.0
C1894 C 0.42053 0.18389 0.92858 0.0
C1895 C 0.41233 0.15665 0.91993 0.0
C1896 C 0.40434 0.14926 0.89967 0.0
C1897 C 0.4045 0.16923 0.88812 0.0
C1898 C 0.41241 0.19592 0.89606 0.0
C1899 C 0.40913 0.2128 0.88039 0.0
C1900 C 0.38771 0.22202 0.88555 0.0
C1901 C 0.43803 0.23805 0.87736 0.0
C1902 C 0.39763 0.19119 0.86255 0.0
C1903 C 0.39536 0.16628 0.86738 0.0
C1904 C 0.38427 0.14279 0.85371 0.0
C1905 C 0.37493 0.14467 0.83461 0.0
C1906 C 0.37666 0.16982 0.82932 0.0
C1907 C 0.38855 0.19349 0.84344 0.0
H1908 H 0.8057 0.22831 0.8921 0.0
H1909 H 0.78849 0.15176 0.91743 0.0
H1910 H 0.78923 0.13097 0.88481 0.0
H1911 H 0.76609 0.19569 0.8434 0.0
H1912 H 0.79226 0.22306 0.83058 0.0
H1913 H 0.78683 0.23081 0.85542 0.0
H1914 H 0.84032 0.25094 0.86619 0.0
H1915 H 0.84588 0.24307 0.84145 0.0
H1916 H 0.85608 0.22942 0.86178 0.0
H1917 H 0.79621 0.11981 0.85026 0.0
H1918 H 0.80783 0.1187 0.81603 0.0
H1919 H 0.82188 0.20278 0.81289 0.0
C1920 C 0.80183 0.20707 0.89083 0.0
C1921 C 0.7968 0.19171 0.90752 0.0
C1922 C 0.79169 0.16388 0.90496 0.0
C1923 C 0.79233 0.1519 0.88646 0.0
C1924 C 0.79814 0.16792 0.87053 0.0
C1925 C 0.80265 0.19485 0.87247 0.0
C1926 C 0.81016 0.20814 0.85324 0.0
C1927 C 0.78748 0.21481 0.84518 0.0
C1928 C 0.83987 0.23444 0.85583 0.0
C1929 C 0.80973 0.18466 0.84032 0.0
C1930 C 0.80249 0.16158 0.85056 0.0
C1931 C 0.80151 0.13761 0.842 0.0
C1932 C 0.80804 0.13715 0.82247 0.0
C1933 C 0.81554 0.16053 0.81158 0.0
C1934 C 0.81633 0.18458 0.82075 0.0
H1935 H 0.3084 0.15094 0.46291 0.0
H1936 H 0.22493 0.07784 0.4641 0.0
H1937 H 0.23533 0.07778 0.49974 0.0
H1938 H 0.3462 0.13263 0.49724 0.0
H1939 H 0.36862 0.16775 0.50889 0.0
H1940 H 0.35471 0.16217 0.48342 0.0
H1941 H 0.33233 0.19307 0.491 0.0
H1942 H 0.34645 0.19901 0.51645 0.0
H1943 H 0.30892 0.18494 0.51022 0.0
H1944 H 0.25554 0.08463 0.53496 0.0
H1945 H 0.28289 0.09976 0.56776 0.0
H1946 H 0.35153 0.17044 0.54384 0.0
C1947 C 0.29209 0.13515 0.47067 0.0
C1948 C 0.26592 0.11425 0.46062 0.0
C1949 C 0.24537 0.09375 0.47137 0.0
C1950 C 0.25099 0.09362 0.49164 0.0
C1951 C 0.27713 0.11431 0.501 0.0
C1952 C 0.29721 0.13489 0.49093 0.0
C1953 C 0.3235 0.15492 0.5045 0.0
C1954 C 0.3498 0.15431 0.49813 0.0
C1955 C 0.32806 0.18475 0.50561 0.0
C1956 C 0.31516 0.14223 0.52375 0.0
C1957 C 0.28841 0.11876 0.52141 0.0
C1958 C 0.27639 0.10318 0.53704 0.0
C1959 C 0.29205 0.11204 0.55564 0.0
C1960 C 0.31935 0.13641 0.55847 0.0
C1961 C 0.33093 0.15154 0.5422 0.0
H1962 H 0.89776 0.1279 0.47406 0.0
H1963 H 0.8981 0.19079 0.43863 0.0
H1964 H 0.885 0.21039 0.46686 0.0
H1965 H 0.83692 0.11644 0.49974 0.0
H1966 H 0.85136 0.11159 0.52265 0.0
H1967 H 0.86056 0.10245 0.49957 0.0
H1968 H 0.91396 0.13496 0.51143 0.0
H1969 H 0.90492 0.14438 0.53447 0.0
H1970 H 0.92689 0.17126 0.51945 0.0
H1971 H 0.87291 0.22381 0.49915 0.0
H1972 H 0.86136 0.22931 0.53291 0.0
H1973 H 0.86706 0.15655 0.54693 0.0
C1974 C 0.89469 0.14555 0.47211 0.0
C1975 C 0.89907 0.15784 0.45409 0.0
C1976 C 0.89528 0.18123 0.45234 0.0
C1977 C 0.88769 0.19244 0.46827 0.0
C1978 C 0.88383 0.17997 0.48584 0.0
C1979 C 0.88703 0.15694 0.48783 0.0
C1980 C 0.88173 0.14755 0.50835 0.0
C1981 C 0.85612 0.11774 0.50752 0.0
C1982 C 0.90847 0.14968 0.51905 0.0
C1983 C 0.87521 0.16901 0.51762 0.0
C1984 C 0.87654 0.18751 0.50439 0.0
C1985 C 0.87158 0.2093 0.50959 0.0
C1986 C 0.86488 0.21216 0.52879 0.0
C1987 C 0.8631 0.19328 0.5426 0.0
C1988 C 0.86848 0.1715 0.53684 0.0
H1989 H 0.88648 0.77592 0.497 0.0
H1990 H 0.81728 0.71041 0.45701 0.0
H1991 H 0.79803 0.68255 0.48488 0.0
H1992 H 0.8966 0.7292 0.527 0.0
H1993 H 0.90479 0.75129 0.54969 0.0
H1994 H 0.91279 0.76658 0.52666 0.0
H1995 H 0.88317 0.79047 0.53354 0.0
H1996 H 0.87494 0.77512 0.55653 0.0
H1997 H 0.84666 0.7694 0.53842 0.0
H1998 H 0.78605 0.66165 0.51694 0.0
H1999 H 0.78301 0.64842 0.55094 0.0
H2000 H 0.86116 0.72621 0.57012 0.0
C2001 C 0.8674 0.75563 0.49403 0.0
C2002 C 0.8533 0.74558 0.47472 0.0
C2003 C 0.82821 0.71896 0.47165 0.0
C2004 C 0.81716 0.70284 0.48739 0.0
C2005 C 0.83149 0.71344 0.50618 0.0
C2006 C 0.85613 0.73914 0.50958 0.0
C2007 C 0.86761 0.74538 0.5312 0.0
C2008 C 0.8972 0.74828 0.53378 0.0
C2009 C 0.86811 0.77165 0.54047 0.0
C2010 C 0.84553 0.71918 0.53938 0.0
C2011 C 0.82486 0.7011 0.52468 0.0
C2012 C 0.80222 0.67556 0.52856 0.0
C2013 C 0.80079 0.66816 0.54793 0.0
C2014 C 0.82194 0.68611 0.56327 0.0
C2015 C 0.84449 0.71208 0.55884 0.0
loop_
_geom_bond_atom_site_label_1
_geom_bond_atom_site_label_2
_geom_bond_distance
_geom_bond_site_symmetry_2
_ccdc_geom_bond_type
H0 C3 0.929 . S
H1 C6 0.929 . S
H2 C8 0.930 . S
C3 H0 0.929 . S
C3 C4 1.398 . S
C3 C5 1.396 . S
C4 C3 1.398 . S
C4 C8 1.407 . S
C5 C3 1.396 . S
C5 C6 1.394 . S
C6 H1 0.929 . S
C6 C5 1.394 . S
C6 C7 1.382 . S
C7 C6 1.382 . S
C7 C8 1.392 . S
C7 N9 1.420 . S
C8 H2 0.930 . S
C8 C4 1.407 . S
C8 C7 1.392 . S
N9 C7 1.420 . S
N9 C10 1.244 . S
C10 N9 1.244 . S
H11 C14 0.929 . S
H12 C17 0.929 . S
H13 C19 0.930 . S
C14 H11 0.929 . S
C14 C15 1.398 . S
C14 C16 1.396 . S
C15 C14 1.398 . S
C15 C19 1.407 . S
C16 C14 1.396 . S
C16 C17 1.394 . S
C17 H12 0.929 . S
C17 C16 1.394 . S
C17 C18 1.382 . S
C18 C17 1.382 . S
C18 C19 1.392 . S
C18 N20 1.420 . S
C19 H13 0.930 . S
C19 C15 1.407 . S
C19 C18 1.392 . S
N20 C18 1.420 . S
N20 C21 1.244 . S
C21 N20 1.244 . S
H22 C25 0.929 . S
H23 C28 0.929 . S
H24 C30 0.930 . S
C25 H22 0.929 . S
C25 C26 1.398 . S
C25 C27 1.396 . S
C26 C25 1.398 . S
C26 C30 1.407 . S
C27 C25 1.396 . S
C27 C28 1.394 . S
C28 H23 0.929 . S
C28 C27 1.394 . S
C28 C29 1.382 . S
C29 C28 1.382 . S
C29 C30 1.392 . S
C29 N31 1.420 . S
C30 H24 0.930 . S
C30 C26 1.407 . S
C30 C29 1.392 . S
N31 C29 1.420 . S
N31 C32 1.244 . S
C32 N31 1.244 . S
H33 C36 0.929 . S
H34 C39 0.929 . S
H35 C41 0.930 . S
C36 H33 0.929 . S
C36 C37 1.398 . S
C36 C38 1.396 . S
C37 C36 1.398 . S
C37 C41 1.407 . S
C38 C36 1.396 . S
C38 C39 1.394 . S
C39 H34 0.929 . S
C39 C38 1.394 . S
C39 C40 1.382 . S
C40 C39 1.382 . S
C40 C41 1.392 . S
C40 N42 1.420 . S
C41 H35 0.930 . S
C41 C37 1.407 . S
C41 C40 1.392 . S
N42 C40 1.420 . S
N42 C43 1.244 . S
C43 N42 1.244 . S
H44 C47 0.929 . S
H45 C50 0.929 . S
H46 C52 0.930 . S
C47 H44 0.929 . S
C47 C48 1.398 . S
C47 C49 1.396 . S
C48 C47 1.398 . S
C48 C52 1.407 . S
C49 C47 1.396 . S
C49 C50 1.394 . S
C50 H45 0.929 . S
C50 C49 1.394 . S
C50 C51 1.382 . S
C51 C50 1.382 . S
C51 C52 1.392 . S
C51 N53 1.420 . S
C52 H46 0.930 . S
C52 C48 1.407 . S
C52 C51 1.392 . S
N53 C51 1.420 . S
N53 C54 1.244 . S
C54 N53 1.244 . S
H55 C58 0.929 . S
H56 C61 0.929 . S
H57 C63 0.930 . S
C58 H55 0.929 . S
C58 C59 1.398 . S
C58 C60 1.396 . S
C59 C58 1.398 . S
C59 C63 1.407 . S
C60 C58 1.396 . S
C60 C61 1.394 . S
C61 H56 0.929 . S
C61 C60 1.394 . S
C61 C62 1.382 . S
C62 C61 1.382 . S
C62 C63 1.392 . S
C62 N64 1.420 . S
C63 H57 0.930 . S
C63 C59 1.407 . S
C63 C62 1.392 . S
N64 C62 1.420 . S
N64 C65 1.244 . S
C65 N64 1.244 . S
H66 C69 0.929 . S
H67 C72 0.929 . S
H68 C74 0.930 . S
C69 H66 0.929 . S
C69 C70 1.398 . S
C69 C71 1.396 . S
C70 C69 1.398 . S
C70 C74 1.407 . S
C71 C69 1.396 . S
C71 C72 1.394 . S
C72 H67 0.929 . S
C72 C71 1.394 . S
C72 C73 1.382 . S
C73 C72 1.382 . S
C73 C74 1.392 . S
C73 N75 1.420 . S
C74 H68 0.930 . S
C74 C70 1.407 . S
C74 C73 1.392 . S
N75 C73 1.420 . S
N75 C76 1.244 . S
C76 N75 1.244 . S
H77 C80 0.929 . S
H78 C83 0.929 . S
H79 C85 0.930 . S
C80 H77 0.929 . S
C80 C81 1.398 . S
C80 C82 1.396 . S
C81 C80 1.398 . S
C81 C85 1.407 . S
C82 C80 1.396 . S
C82 C83 1.394 . S
C83 H78 0.929 . S
C83 C82 1.394 . S
C83 C84 1.382 . S
C84 C83 1.382 . S
C84 C85 1.392 . S
C84 N86 1.420 . S
C85 H79 0.930 . S
C85 C81 1.407 . S
C85 C84 1.392 . S
N86 C84 1.420 . S
N86 C87 1.244 . S
C87 N86 1.244 . S
H88 C91 0.929 . S
H89 C94 0.929 . S
H90 C96 0.930 . S
C91 H88 0.929 . S
C91 C92 1.398 . S
C91 C93 1.396 . S
C92 C91 1.398 . S
C92 C96 1.407 . S
C93 C91 1.396 . S
C93 C94 1.394 . S
C94 H89 0.929 . S
C94 C93 1.394 . S
C94 C95 1.382 . S
C95 C94 1.382 . S
C95 C96 1.392 . S
C95 N97 1.420 . S
C96 H90 0.930 . S
C96 C92 1.407 . S
C96 C95 1.392 . S
N97 C95 1.420 . S
N97 C98 1.244 . S
C98 N97 1.244 . S
H99 C102 0.929 . S
H100 C105 0.929 . S
H101 C107 0.930 . S
C102 H99 0.929 . S
C102 C103 1.398 . S
C102 C104 1.396 . S
C103 C102 1.398 . S
C103 C107 1.407 . S
C104 C102 1.396 . S
C104 C105 1.394 . S
C105 H100 0.929 . S
C105 C104 1.394 . S
C105 C106 1.382 . S
C106 C105 1.382 . S
C106 C107 1.392 . S
C106 N108 1.420 . S
C107 H101 0.930 . S
C107 C103 1.407 . S
C107 C106 1.392 . S
N108 C106 1.420 . S
N108 C109 1.244 . S
C109 N108 1.244 . S
H110 C113 0.929 . S
H111 C116 0.929 . S
H112 C118 0.930 . S
C113 H110 0.929 . S
C113 C114 1.398 . S
C113 C115 1.396 . S
C114 C113 1.398 . S
C114 C118 1.407 . S
C115 C113 1.396 . S
C115 C116 1.394 . S
C116 H111 0.929 . S
C116 C115 1.394 . S
C116 C117 1.382 . S
C117 C116 1.382 . S
C117 C118 1.392 . S
C117 N119 1.420 . S
C118 H112 0.930 . S
C118 C114 1.407 . S
C118 C117 1.392 . S
N119 C117 1.420 . S
N119 C120 1.244 . S
C120 N119 1.244 . S
H121 C124 0.929 . S
H122 C127 0.929 . S
H123 C129 0.930 . S
C124 H121 0.929 . S
C124 C125 1.398 . S
C124 C126 1.396 . S
C125 C124 1.398 . S
C125 C129 1.407 . S
C126 C124 1.396 . S
C126 C127 1.394 . S
C127 H122 0.929 . S
C127 C126 1.394 . S
C127 C128 1.382 . S
C128 C127 1.382 . S
C128 C129 1.392 . S
C128 N130 1.420 . S
C129 H123 0.930 . S
C129 C125 1.407 . S
C129 C128 1.392 . S
N130 C128 1.420 . S
N130 C131 1.244 . S
C131 N130 1.244 . S
H132 C135 0.929 . S
H133 C138 0.929 . S
H134 C140 0.930 . S
C135 H132 0.929 . S
C135 C136 1.398 . S
C135 C137 1.396 . S
C136 C135 1.398 . S
C136 C140 1.407 . S
C137 C135 1.396 . S
C137 C138 1.394 . S
C138 H133 0.929 . S
C138 C137 1.394 . S
C138 C139 1.382 . S
C139 C138 1.382 . S
C139 C140 1.392 . S
C139 N141 1.420 . S
C140 H134 0.930 . S
C140 C136 1.407 . S
C140 C139 1.392 . S
N141 C139 1.420 . S
N141 C142 1.244 . S
C142 N141 1.244 . S
H143 C146 0.929 . S
H144 C149 0.929 . S
H145 C151 0.930 . S
C146 H143 0.929 . S
C146 C147 1.398 . S
C146 C148 1.396 . S
C147 C146 1.398 . S
C147 C151 1.407 . S
C148 C146 1.396 . S
C148 C149 1.394 . S
C149 H144 0.929 . S
C149 C148 1.394 . S
C149 C150 1.382 . S
C150 C149 1.382 . S
C150 C151 1.392 . S
C150 N152 1.420 . S
C151 H145 0.930 . S
C151 C147 1.407 . S
C151 C150 1.392 . S
N152 C150 1.420 . S
N152 C153 1.244 . S
C153 N152 1.244 . S
H154 C157 0.929 . S
H155 C160 0.929 . S
H156 C162 0.930 . S
C157 H154 0.929 . S
C157 C158 1.398 . S
C157 C159 1.396 . S
C158 C157 1.398 . S
C158 C162 1.407 . S
C159 C157 1.396 . S
C159 C160 1.394 . S
C160 H155 0.929 . S
C160 C159 1.394 . S
C160 C161 1.382 . S
C161 C160 1.382 . S
C161 C162 1.392 . S
C161 N163 1.420 . S
C162 H156 0.930 . S
C162 C158 1.407 . S
C162 C161 1.392 . S
N163 C161 1.420 . S
N163 C164 1.244 . S
C164 N163 1.244 . S
H165 C168 0.929 . S
H166 C171 0.929 . S
H167 C173 0.930 . S
C168 H165 0.929 . S
C168 C169 1.398 . S
C168 C170 1.396 . S
C169 C168 1.398 . S
C169 C173 1.407 . S
C170 C168 1.396 . S
C170 C171 1.394 . S
C171 H166 0.929 . S
C171 C170 1.394 . S
C171 C172 1.382 . S
C172 C171 1.382 . S
C172 C173 1.392 . S
C172 N174 1.420 . S
C173 H167 0.930 . S
C173 C169 1.407 . S
C173 C172 1.392 . S
N174 C172 1.420 . S
N174 C175 1.244 . S
C175 N174 1.244 . S
H176 C179 0.929 . S
H177 C182 0.929 . S
H178 C184 0.930 . S
C179 H176 0.929 . S
C179 C180 1.398 . S
C179 C181 1.396 . S
C180 C179 1.398 . S
C180 C184 1.407 . S
C181 C179 1.396 . S
C181 C182 1.394 . S
C182 H177 0.929 . S
C182 C181 1.394 . S
C182 C183 1.382 . S
C183 C182 1.382 . S
C183 C184 1.392 . S
C183 N185 1.420 . S
C184 H178 0.930 . S
C184 C180 1.407 . S
C184 C183 1.392 . S
N185 C183 1.420 . S
N185 C186 1.244 . S
C186 N185 1.244 . S
H187 C190 0.929 . S
H188 C193 0.929 . S
H189 C195 0.930 . S
C190 H187 0.929 . S
C190 C191 1.398 . S
C190 C192 1.396 . S
C191 C190 1.398 . S
C191 C195 1.407 . S
C192 C190 1.396 . S
C192 C193 1.394 . S
C193 H188 0.929 . S
C193 C192 1.394 . S
C193 C194 1.382 . S
C194 C193 1.382 . S
C194 C195 1.392 . S
C194 N196 1.420 . S
C195 H189 0.930 . S
C195 C191 1.407 . S
C195 C194 1.392 . S
N196 C194 1.420 . S
N196 C197 1.244 . S
C197 N196 1.244 . S
Tb198 C208 2.825 1_565 S
Tb198 O209 2.347 1_565 S
Tb198 O212 2.366 1_565 S
Tb198 O217 2.418 . S
Tb198 O218 2.384 . S
Tb198 O221 2.479 . S
Tb198 O222 2.471 1_565 S
Eu199 O210 2.418 . S
Eu199 O211 2.384 . S
Eu199 O214 2.479 . S
Eu199 O215 2.471 1_545 S
Eu199 O216 2.347 1_545 S
Eu199 O219 2.366 1_545 S
Eu199 C229 2.825 . S
C200 O216 1.259 . S
C200 O217 1.265 1_554 S
C201 O218 1.255 1_554 S
C201 O219 1.265 . S
C202 C204 1.380 1_545 S
C202 C205 1.374 . S
C202 C208 1.507 . S
C203 C204 1.384 1_545 S
C203 C207 1.387 . S
C203 H230 0.930 1_545 S
C204 C202 1.380 1_565 S
C204 C203 1.384 1_565 S
C204 H231 0.931 . S
C205 C202 1.374 . S
C205 C206 1.390 . S
C205 H232 0.930 . S
C206 C205 1.390 . S
C206 C207 1.391 . S
C206 H233 0.930 . S
C207 C203 1.387 . S
C207 C206 1.391 . S
C208 Tb198 2.825 1_545 S
C208 C202 1.507 . S
C208 O221 1.238 1_545 S
C208 O222 1.247 . S
O209 Tb198 2.347 1_545 S
O209 C213 1.259 1_556 S
O210 Eu199 2.418 . S
O210 C213 1.265 . S
O211 Eu199 2.384 . S
O211 C220 1.255 1_554 S
O212 Tb198 2.366 1_545 S
O212 C220 1.265 . S
C213 O209 1.259 1_554 S
C213 O210 1.265 . S
O214 Eu199 2.479 . S
O214 C229 1.238 . S
O215 Eu199 2.471 1_565 S
O215 C229 1.247 1_565 S
O216 Eu199 2.347 1_565 S
O216 C200 1.259 . S
O217 Tb198 2.418 . S
O217 C200 1.265 1_556 S
O218 Tb198 2.384 . S
O218 C201 1.255 1_556 S
O219 Eu199 2.366 1_565 S
O219 C201 1.265 . S
C220 O211 1.255 1_556 S
C220 O212 1.265 . S
O221 Tb198 2.479 . S
O221 C208 1.238 1_565 S
O222 Tb198 2.471 1_545 S
O222 C208 1.247 . S
C223 C226 1.380 1_565 S
C223 C227 1.374 . S
C223 C229 1.507 1_565 S
C224 C225 1.387 1_565 S
C224 C228 1.391 . S
C225 C224 1.387 1_545 S
C225 C226 1.384 . S
C225 H234 0.930 . S
C226 C223 1.380 1_545 S
C226 C225 1.384 . S
C226 H235 0.931 . S
C227 C223 1.374 . S
C227 C228 1.390 . S
C227 H236 0.930 . S
C228 C224 1.391 . S
C228 C227 1.390 . S
C228 H237 0.930 . S
C229 Eu199 2.825 . S
C229 O214 1.238 . S
C229 O215 1.247 1_545 S
C229 C223 1.507 1_545 S
H230 C203 0.930 1_565 S
H231 C204 0.931 . S
H232 C205 0.930 . S
H233 C206 0.930 . S
H234 C225 0.930 . S
H235 C226 0.931 . S
H236 C227 0.930 . S
H237 C228 0.930 . S
Tb238 C248 2.819 1_455 S
Tb238 O249 2.347 1_455 S
Tb238 O252 2.366 1_455 S
Tb238 O257 2.418 . S
Tb238 O258 2.384 1_556 S
Tb238 O261 2.479 . S
Tb238 O262 2.471 1_455 S
Eu239 O250 2.418 . S
Eu239 O251 2.384 . S
Eu239 O254 2.479 . S
Eu239 O255 2.471 1_655 S
Eu239 O256 2.347 1_655 S
Eu239 O259 2.366 1_655 S
Eu239 C269 2.825 1_655 S
C240 O256 1.259 . S
C240 O257 1.265 1_554 S
C241 O258 1.255 . S
C241 O259 1.265 . S
C242 C244 1.380 1_655 S
C242 C245 1.374 . S
C242 C248 1.515 . S
C243 C244 1.384 1_655 S
C243 C247 1.387 . S
C243 H270 0.930 1_655 S
C244 C242 1.380 1_455 S
C244 C243 1.384 1_455 S
C244 H271 0.931 . S
C245 C242 1.374 . S
C245 C246 1.390 . S
C245 H272 0.930 . S
C246 C245 1.390 . S
C246 C247 1.391 . S
C246 H273 0.930 . S
C247 C243 1.387 . S
C247 C246 1.391 . S
C248 Tb238 2.819 1_655 S
C248 C242 1.515 . S
C248 O261 1.227 1_655 S
C248 O262 1.250 . S
O249 Tb238 2.347 1_655 S
O249 C253 1.259 1_556 S
O250 Eu239 2.418 . S
O250 C253 1.265 . S
O251 Eu239 2.384 . S
O251 C260 1.255 1_554 S
O252 Tb238 2.366 1_655 S
O252 C260 1.265 . S
C253 O249 1.259 1_554 S
C253 O250 1.265 . S
O254 Eu239 2.479 . S
O254 C269 1.238 1_655 S
O255 Eu239 2.471 1_455 S
O255 C269 1.247 . S
O256 Eu239 2.347 1_455 S
O256 C240 1.259 . S
O257 Tb238 2.418 . S
O257 C240 1.265 1_556 S
O258 Tb238 2.384 1_554 S
O258 C241 1.255 . S
O259 Eu239 2.366 1_455 S
O259 C241 1.265 . S
C260 O251 1.255 1_556 S
C260 O252 1.265 . S
O261 Tb238 2.479 . S
O261 C248 1.227 1_455 S
O262 Tb238 2.471 1_655 S
O262 C248 1.250 . S
C263 C266 1.369 1_455 S
C263 C267 1.374 . S
C263 C269 1.507 . S
C264 C265 1.387 . S
C264 C268 1.391 . S
C265 C264 1.387 . S
C265 C266 1.372 1_455 S
C265 H274 0.930 1_455 S
C266 C263 1.369 1_655 S
C266 C265 1.372 1_655 S
C266 H275 0.956 . S
C267 C263 1.374 . S
C267 C268 1.390 . S
C267 H276 0.930 . S
C268 C264 1.391 . S
C268 C267 1.390 . S
C268 H277 0.930 . S
C269 Eu239 2.825 1_455 S
C269 O254 1.238 1_455 S
C269 O255 1.247 . S
C269 C263 1.507 . S
H270 C243 0.930 1_455 S
H271 C244 0.931 . S
H272 C245 0.930 . S
H273 C246 0.930 . S
H274 C265 0.930 1_655 S
H275 C266 0.956 . S
H276 C267 0.930 . S
H277 C268 0.930 . S
Tb278 C288 2.825 . S
Tb278 O289 2.347 . S
Tb278 O292 2.366 . S
Tb278 O297 2.418 . S
Tb278 O298 2.384 . S
Tb278 O301 2.479 . S
Tb278 O302 2.471 . S
Eu279 O290 2.418 . S
Eu279 O291 2.384 1_556 S
Eu279 O294 2.479 . S
Eu279 O295 2.471 . S
Eu279 O296 2.347 . S
Eu279 O299 2.366 . S
Eu279 C309 2.825 . S
C280 O296 1.258 1_554 S
C280 O297 1.265 . S
C281 O298 1.255 1_556 S
C281 O299 1.265 . S
C282 C284 1.380 . S
C282 C285 1.374 . S
C282 C288 1.507 . S
C283 C284 1.384 . S
C283 C287 1.387 . S
C283 H310 0.930 . S
C284 C282 1.380 . S
C284 C283 1.384 . S
C284 H311 0.931 . S
C285 C282 1.374 . S
C285 C286 1.390 . S
C285 H312 0.930 . S
C286 C285 1.390 . S
C286 C287 1.391 . S
C286 H313 0.930 . S
C287 C283 1.387 . S
C287 C286 1.391 . S
C288 Tb278 2.825 . S
C288 C282 1.507 . S
C288 O301 1.238 . S
C288 O302 1.247 . S
O289 Tb278 2.347 . S
O289 C293 1.259 . S
O290 Eu279 2.418 . S
O290 C293 1.265 1_556 S
O291 Eu279 2.384 1_554 S
O291 C300 1.255 . S
O292 Tb278 2.366 . S
O292 C300 1.265 . S
C293 O289 1.259 . S
C293 O290 1.265 1_554 S
O294 Eu279 2.479 . S
O294 C309 1.238 . S
O295 Eu279 2.471 . S
O295 C309 1.247 . S
O296 Eu279 2.347 . S
O296 C280 1.258 1_556 S
O297 Tb278 2.418 . S
O297 C280 1.265 . S
O298 Tb278 2.384 . S
O298 C281 1.255 1_554 S
O299 Eu279 2.366 . S
O299 C281 1.265 . S
C300 O291 1.255 . S
C300 O292 1.265 . S
O301 Tb278 2.479 . S
O301 C288 1.238 . S
O302 Tb278 2.471 . S
O302 C288 1.247 . S
C303 C306 1.380 . S
C303 C307 1.374 . S
C303 C309 1.507 . S
C304 C305 1.387 . S
C304 C308 1.391 . S
C305 C304 1.387 . S
C305 C306 1.384 . S
C305 H314 0.930 . S
C306 C303 1.380 . S
C306 C305 1.384 . S
C306 H315 0.931 . S
C307 C303 1.374 . S
C307 C308 1.390 . S
C307 H316 0.930 . S
C308 C304 1.391 . S
C308 C307 1.390 . S
C308 H317 0.930 . S
C309 Eu279 2.825 . S
C309 O294 1.238 . S
C309 O295 1.247 . S
C309 C303 1.507 . S
H310 C283 0.930 . S
H311 C284 0.931 . S
H312 C285 0.930 . S
H313 C286 0.930 . S
H314 C305 0.930 . S
H315 C306 0.931 . S
H316 C307 0.930 . S
H317 C308 0.930 . S
Tb318 C328 2.825 . S
Tb318 O329 2.347 . S
Tb318 O332 2.366 . S
Tb318 O337 2.418 . S
Tb318 O338 2.384 . S
Tb318 O341 2.479 . S
Tb318 O342 2.471 . S
Eu319 O330 2.418 . S
Eu319 O331 2.384 . S
Eu319 O334 2.479 . S
Eu319 O335 2.471 . S
Eu319 O336 2.347 . S
Eu319 O339 2.366 . S
Eu319 C349 2.825 . S
C320 O336 1.259 . S
C320 O337 1.265 . S
C321 O338 1.255 . S
C321 O339 1.265 . S
C322 C324 1.380 . S
C322 C325 1.374 . S
C322 C328 1.507 . S
C323 C324 1.384 . S
C323 C327 1.387 . S
C323 H350 0.930 . S
C324 C322 1.380 . S
C324 C323 1.384 . S
C324 H351 0.931 . S
C325 C322 1.374 . S
C325 C326 1.390 . S
C325 H352 0.930 . S
C326 C325 1.390 . S
C326 C327 1.391 . S
C326 H353 0.930 . S
C327 C323 1.387 . S
C327 C326 1.391 . S
C328 Tb318 2.825 . S
C328 C322 1.507 . S
C328 O341 1.238 . S
C328 O342 1.247 . S
O329 Tb318 2.347 . S
O329 C333 1.259 . S
O330 Eu319 2.418 . S
O330 C333 1.265 . S
O331 Eu319 2.384 . S
O331 C340 1.255 . S
O332 Tb318 2.366 . S
O332 C340 1.265 . S
C333 O329 1.259 . S
C333 O330 1.265 . S
O334 Eu319 2.479 . S
O334 C349 1.238 . S
O335 Eu319 2.471 . S
O335 C349 1.247 . S
O336 Eu319 2.347 . S
O336 C320 1.259 . S
O337 Tb318 2.418 . S
O337 C320 1.265 . S
O338 Tb318 2.384 . S
O338 C321 1.255 . S
O339 Eu319 2.366 . S
O339 C321 1.265 . S
C340 O331 1.255 . S
C340 O332 1.265 . S
O341 Tb318 2.479 . S
O341 C328 1.238 . S
O342 Tb318 2.471 . S
O342 C328 1.247 . S
C343 C346 1.380 . S
C343 C347 1.374 . S
C343 C349 1.507 . S
C344 C345 1.387 . S
C344 C348 1.391 . S
C345 C344 1.387 . S
C345 C346 1.384 . S
C345 H354 0.930 . S
C346 C343 1.380 . S
C346 C345 1.384 . S
C346 H355 0.931 . S
C347 C343 1.374 . S
C347 C348 1.390 . S
C347 H356 0.930 . S
C348 C344 1.391 . S
C348 C347 1.390 . S
C348 H357 0.930 . S
C349 Eu319 2.825 . S
C349 O334 1.238 . S
C349 O335 1.247 . S
C349 C343 1.507 . S
H350 C323 0.930 . S
H351 C324 0.931 . S
H352 C325 0.930 . S
H353 C326 0.930 . S
H354 C345 0.930 . S
H355 C346 0.931 . S
H356 C347 0.930 . S
H357 C348 0.930 . S
Tb358 C368 2.825 . S
Tb358 O369 2.347 . S
Tb358 O372 2.366 . S
Tb358 O377 2.418 . S
Tb358 O378 2.384 . S
Tb358 O381 2.479 . S
Tb358 O382 2.471 . S
Eu359 O370 2.418 . S
Eu359 O371 2.384 . S
Eu359 O374 2.479 . S
Eu359 O375 2.471 . S
Eu359 O376 2.347 . S
Eu359 O379 2.366 . S
Eu359 C389 2.825 . S
C360 O376 1.259 . S
C360 O377 1.265 . S
C361 O378 1.255 . S
C361 O379 1.265 . S
C362 C364 1.380 . S
C362 C365 1.374 . S
C362 C368 1.507 . S
C363 C364 1.384 . S
C363 C367 1.387 . S
C363 H390 0.930 . S
C364 C362 1.380 . S
C364 C363 1.384 . S
C364 H391 0.931 . S
C365 C362 1.374 . S
C365 C366 1.390 . S
C365 H392 0.930 . S
C366 C365 1.390 . S
C366 C367 1.391 . S
C366 H393 0.930 . S
C367 C363 1.387 . S
C367 C366 1.391 . S
C368 Tb358 2.825 . S
C368 C362 1.507 . S
C368 O381 1.238 . S
C368 O382 1.247 . S
O369 Tb358 2.347 . S
O369 C373 1.259 . S
O370 Eu359 2.418 . S
O370 C373 1.265 . S
O371 Eu359 2.384 . S
O371 C380 1.255 . S
O372 Tb358 2.366 . S
O372 C380 1.265 . S
C373 O369 1.259 . S
C373 O370 1.265 . S
O374 Eu359 2.479 . S
O374 C389 1.238 . S
O375 Eu359 2.471 . S
O375 C389 1.247 . S
O376 Eu359 2.347 . S
O376 C360 1.259 . S
O377 Tb358 2.418 . S
O377 C360 1.265 . S
O378 Tb358 2.384 . S
O378 C361 1.255 . S
O379 Eu359 2.366 . S
O379 C361 1.265 . S
C380 O371 1.255 . S
C380 O372 1.265 . S
O381 Tb358 2.479 . S
O381 C368 1.238 . S
O382 Tb358 2.471 . S
O382 C368 1.247 . S
C383 C386 1.380 . S
C383 C387 1.374 . S
C383 C389 1.507 . S
C384 C385 1.387 . S
C384 C388 1.391 . S
C385 C384 1.387 . S
C385 C386 1.384 . S
C385 H394 0.930 . S
C386 C383 1.380 . S
C386 C385 1.384 . S
C386 H395 0.931 . S
C387 C383 1.374 . S
C387 C388 1.390 . S
C387 H396 0.930 . S
C388 C384 1.391 . S
C388 C387 1.390 . S
C388 H397 0.930 . S
C389 Eu359 2.825 . S
C389 O374 1.238 . S
C389 O375 1.247 . S
C389 C383 1.507 . S
H390 C363 0.930 . S
H391 C364 0.931 . S
H392 C365 0.930 . S
H393 C366 0.930 . S
H394 C385 0.930 . S
H395 C386 0.931 . S
H396 C387 0.930 . S
H397 C388 0.930 . S
Tb398 C408 2.825 . S
Tb398 O409 2.347 . S
Tb398 O412 2.366 . S
Tb398 O417 2.418 . S
Tb398 O418 2.384 . S
Tb398 O421 2.479 . S
Tb398 O422 2.471 . S
Eu399 O410 2.418 . S
Eu399 O411 2.384 . S
Eu399 O414 2.479 . S
Eu399 O415 2.471 . S
Eu399 O416 2.347 . S
Eu399 O419 2.366 . S
Eu399 C429 2.825 . S
C400 O416 1.259 . S
C400 O417 1.265 . S
C401 O418 1.255 . S
C401 O419 1.265 . S
C402 C404 1.380 . S
C402 C405 1.374 . S
C402 C408 1.507 . S
C403 C404 1.384 . S
C403 C407 1.387 . S
C403 H430 0.930 . S
C404 C402 1.380 . S
C404 C403 1.384 . S
C404 H431 0.931 . S
C405 C402 1.374 . S
C405 C406 1.390 . S
C405 H432 0.930 . S
C406 C405 1.390 . S
C406 C407 1.391 . S
C406 H433 0.930 . S
C407 C403 1.387 . S
C407 C406 1.391 . S
C408 Tb398 2.825 . S
C408 C402 1.507 . S
C408 O421 1.238 . S
C408 O422 1.247 . S
O409 Tb398 2.347 . S
O409 C413 1.259 . S
O410 Eu399 2.418 . S
O410 C413 1.265 . S
O411 Eu399 2.384 . S
O411 C420 1.255 . S
O412 Tb398 2.366 . S
O412 C420 1.265 . S
C413 O409 1.259 . S
C413 O410 1.265 . S
O414 Eu399 2.479 . S
O414 C429 1.238 . S
O415 Eu399 2.471 . S
O415 C429 1.247 . S
O416 Eu399 2.347 . S
O416 C400 1.259 . S
O417 Tb398 2.418 . S
O417 C400 1.265 . S
O418 Tb398 2.384 . S
O418 C401 1.255 . S
O419 Eu399 2.366 . S
O419 C401 1.265 . S
C420 O411 1.255 . S
C420 O412 1.265 . S
O421 Tb398 2.479 . S
O421 C408 1.238 . S
O422 Tb398 2.471 . S
O422 C408 1.247 . S
C423 C426 1.380 . S
C423 C427 1.374 . S
C423 C429 1.507 . S
C424 C425 1.387 . S
C424 C428 1.391 . S
C425 C424 1.387 . S
C425 C426 1.384 . S
C425 H434 0.930 . S
C426 C423 1.380 . S
C426 C425 1.384 . S
C426 H435 0.931 . S
C427 C423 1.374 . S
C427 C428 1.390 . S
C427 H436 0.930 . S
C428 C424 1.391 . S
C428 C427 1.390 . S
C428 H437 0.930 . S
C429 Eu399 2.825 . S
C429 O414 1.238 . S
C429 O415 1.247 . S
C429 C423 1.507 . S
H430 C403 0.930 . S
H431 C404 0.931 . S
H432 C405 0.930 . S
H433 C406 0.930 . S
H434 C425 0.930 . S
H435 C426 0.931 . S
H436 C427 0.930 . S
H437 C428 0.930 . S
Tb438 C448 2.825 . S
Tb438 O449 2.347 . S
Tb438 O452 2.366 . S
Tb438 O457 2.418 . S
Tb438 O458 2.384 . S
Tb438 O461 2.479 . S
Tb438 O462 2.471 . S
Eu439 O450 2.418 . S
Eu439 O451 2.384 . S
Eu439 O454 2.479 . S
Eu439 O455 2.471 . S
Eu439 O456 2.347 . S
Eu439 O459 2.366 . S
Eu439 C469 2.825 . S
C440 O456 1.259 . S
C440 O457 1.265 . S
C441 O458 1.255 . S
C441 O459 1.265 . S
C442 C444 1.380 . S
C442 C445 1.374 . S
C442 C448 1.507 . S
C443 C444 1.384 . S
C443 C447 1.387 . S
C443 H470 0.930 . S
C444 C442 1.380 . S
C444 C443 1.384 . S
C444 H471 0.931 . S
C445 C442 1.374 . S
C445 C446 1.390 . S
C445 H472 0.930 . S
C446 C445 1.390 . S
C446 C447 1.391 . S
C446 H473 0.930 . S
C447 C443 1.387 . S
C447 C446 1.391 . S
C448 Tb438 2.825 . S
C448 C442 1.507 . S
C448 O461 1.238 . S
C448 O462 1.247 . S
O449 Tb438 2.347 . S
O449 C453 1.259 . S
O450 Eu439 2.418 . S
O450 C453 1.265 . S
O451 Eu439 2.384 . S
O451 C460 1.255 . S
O452 Tb438 2.366 . S
O452 C460 1.265 . S
C453 O449 1.259 . S
C453 O450 1.265 . S
O454 Eu439 2.479 . S
O454 C469 1.238 . S
O455 Eu439 2.471 . S
O455 C469 1.247 . S
O456 Eu439 2.347 . S
O456 C440 1.259 . S
O457 Tb438 2.418 . S
O457 C440 1.265 . S
O458 Tb438 2.384 . S
O458 C441 1.255 . S
O459 Eu439 2.366 . S
O459 C441 1.265 . S
C460 O451 1.255 . S
C460 O452 1.265 . S
O461 Tb438 2.479 . S
O461 C448 1.238 . S
O462 Tb438 2.471 . S
O462 C448 1.247 . S
C463 C466 1.380 . S
C463 C467 1.374 . S
C463 C469 1.507 . S
C464 C465 1.387 . S
C464 C468 1.391 . S
C465 C464 1.387 . S
C465 C466 1.384 . S
C465 H474 0.930 . S
C466 C463 1.380 . S
C466 C465 1.384 . S
C466 H475 0.931 . S
C467 C463 1.374 . S
C467 C468 1.390 . S
C467 H476 0.930 . S
C468 C464 1.391 . S
C468 C467 1.390 . S
C468 H477 0.930 . S
C469 Eu439 2.825 . S
C469 O454 1.238 . S
C469 O455 1.247 . S
C469 C463 1.507 . S
H470 C443 0.930 . S
H471 C444 0.931 . S
H472 C445 0.930 . S
H473 C446 0.930 . S
H474 C465 0.930 . S
H475 C466 0.931 . S
H476 C467 0.930 . S
H477 C468 0.930 . S
Tb478 C488 2.825 . S
Tb478 O489 2.347 . S
Tb478 O492 2.366 . S
Tb478 O497 2.418 . S
Tb478 O498 2.384 . S
Tb478 O501 2.479 . S
Tb478 O502 2.471 . S
Eu479 O490 2.418 . S
Eu479 O491 2.384 . S
Eu479 O494 2.479 . S
Eu479 O495 2.471 . S
Eu479 O496 2.347 . S
Eu479 O499 2.366 . S
Eu479 C509 2.825 . S
C480 O496 1.259 . S
C480 O497 1.265 . S
C481 O498 1.255 . S
C481 O499 1.265 . S
C482 C484 1.380 . S
C482 C485 1.374 . S
C482 C488 1.507 . S
C483 C484 1.384 . S
C483 C487 1.387 . S
C483 H510 0.930 . S
C484 C482 1.380 . S
C484 C483 1.384 . S
C484 H511 0.931 . S
C485 C482 1.374 . S
C485 C486 1.390 . S
C485 H512 0.930 . S
C486 C485 1.390 . S
C486 C487 1.391 . S
C486 H513 0.930 . S
C487 C483 1.387 . S
C487 C486 1.391 . S
C488 Tb478 2.825 . S
C488 C482 1.507 . S
C488 O501 1.238 . S
C488 O502 1.247 . S
O489 Tb478 2.347 . S
O489 C493 1.259 . S
O490 Eu479 2.418 . S
O490 C493 1.265 . S
O491 Eu479 2.384 . S
O491 C500 1.255 . S
O492 Tb478 2.366 . S
O492 C500 1.265 . S
C493 O489 1.259 . S
C493 O490 1.265 . S
O494 Eu479 2.479 . S
O494 C509 1.238 . S
O495 Eu479 2.471 . S
O495 C509 1.247 . S
O496 Eu479 2.347 . S
O496 C480 1.259 . S
O497 Tb478 2.418 . S
O497 C480 1.265 . S
O498 Tb478 2.384 . S
O498 C481 1.255 . S
O499 Eu479 2.366 . S
O499 C481 1.265 . S
C500 O491 1.255 . S
C500 O492 1.265 . S
O501 Tb478 2.479 . S
O501 C488 1.238 . S
O502 Tb478 2.471 . S
O502 C488 1.247 . S
C503 C506 1.380 . S
C503 C507 1.374 . S
C503 C509 1.507 . S
C504 C505 1.387 . S
C504 C508 1.391 . S
C505 C504 1.387 . S
C505 C506 1.384 . S
C505 H514 0.930 . S
C506 C503 1.380 . S
C506 C505 1.384 . S
C506 H515 0.931 . S
C507 C503 1.374 . S
C507 C508 1.390 . S
C507 H516 0.930 . S
C508 C504 1.391 . S
C508 C507 1.390 . S
C508 H517 0.930 . S
C509 Eu479 2.825 . S
C509 O494 1.238 . S
C509 O495 1.247 . S
C509 C503 1.507 . S
H510 C483 0.930 . S
H511 C484 0.931 . S
H512 C485 0.930 . S
H513 C486 0.930 . S
H514 C505 0.930 . S
H515 C506 0.931 . S
H516 C507 0.930 . S
H517 C508 0.930 . S
Tb518 C528 2.825 . S
Tb518 O529 2.347 . S
Tb518 O532 2.366 . S
Tb518 O537 2.418 . S
Tb518 O538 2.384 . S
Tb518 O541 2.479 . S
Tb518 O542 2.471 . S
Eu519 O530 2.418 . S
Eu519 O531 2.384 . S
Eu519 O534 2.479 . S
Eu519 O535 2.471 . S
Eu519 O536 2.347 . S
Eu519 O539 2.366 . S
Eu519 C549 2.825 . S
C520 O536 1.259 . S
C520 O537 1.265 . S
C521 O538 1.255 . S
C521 O539 1.265 . S
C522 C524 1.380 . S
C522 C525 1.374 . S
C522 C528 1.507 . S
C523 C524 1.384 . S
C523 C527 1.387 . S
C523 H550 0.930 . S
C524 C522 1.380 . S
C524 C523 1.384 . S
C524 H551 0.931 . S
C525 C522 1.374 . S
C525 C526 1.390 . S
C525 H552 0.930 . S
C526 C525 1.390 . S
C526 C527 1.391 . S
C526 H553 0.930 . S
C527 C523 1.387 . S
C527 C526 1.391 . S
C528 Tb518 2.825 . S
C528 C522 1.507 . S
C528 O541 1.238 . S
C528 O542 1.247 . S
O529 Tb518 2.347 . S
O529 C533 1.259 . S
O530 Eu519 2.418 . S
O530 C533 1.265 . S
O531 Eu519 2.384 . S
O531 C540 1.255 . S
O532 Tb518 2.366 . S
O532 C540 1.265 . S
C533 O529 1.259 . S
C533 O530 1.265 . S
O534 Eu519 2.479 . S
O534 C549 1.238 . S
O535 Eu519 2.471 . S
O535 C549 1.247 . S
O536 Eu519 2.347 . S
O536 C520 1.259 . S
O537 Tb518 2.418 . S
O537 C520 1.265 . S
O538 Tb518 2.384 . S
O538 C521 1.255 . S
O539 Eu519 2.366 . S
O539 C521 1.265 . S
C540 O531 1.255 . S
C540 O532 1.265 . S
O541 Tb518 2.479 . S
O541 C528 1.238 . S
O542 Tb518 2.471 . S
O542 C528 1.247 . S
C543 C546 1.380 . S
C543 C547 1.374 . S
C543 C549 1.507 . S
C544 C545 1.387 . S
C544 C548 1.391 . S
C545 C544 1.387 . S
C545 C546 1.384 . S
C545 H554 0.930 . S
C546 C543 1.380 . S
C546 C545 1.384 . S
C546 H555 0.931 . S
C547 C543 1.374 . S
C547 C548 1.390 . S
C547 H556 0.930 . S
C548 C544 1.391 . S
C548 C547 1.390 . S
C548 H557 0.930 . S
C549 Eu519 2.825 . S
C549 O534 1.238 . S
C549 O535 1.247 . S
C549 C543 1.507 . S
H550 C523 0.930 . S
H551 C524 0.931 . S
H552 C525 0.930 . S
H553 C526 0.930 . S
H554 C545 0.930 . S
H555 C546 0.931 . S
H556 C547 0.930 . S
H557 C548 0.930 . S
H558 C570 0.930 . S
H559 C572 0.930 . S
H560 C573 0.930 . S
H561 C577 0.959 . S
H562 C577 0.959 . S
H563 C577 0.961 . S
H564 C578 0.960 . S
H565 C578 0.961 . S
H566 C578 0.959 . S
H567 C581 0.929 . S
H568 C582 0.931 . S
H569 C584 0.930 . S
C570 H558 0.930 . S
C570 C571 1.399 . S
C570 C575 1.399 . S
C571 C570 1.399 . S
C571 C572 1.376 . S
C572 H559 0.930 . S
C572 C571 1.376 . S
C572 C573 1.388 . S
C573 H560 0.930 . S
C573 C572 1.388 . S
C573 C574 1.390 . S
C574 C573 1.390 . S
C574 C575 1.394 . S
C574 C580 1.465 . S
C575 C570 1.399 . S
C575 C574 1.394 . S
C575 C576 1.516 . S
C576 C575 1.516 . S
C576 C577 1.502 . S
C576 C578 1.561 . S
C576 C579 1.526 . S
C577 H561 0.959 . S
C577 H562 0.959 . S
C577 H563 0.961 . S
C577 C576 1.502 . S
C578 H564 0.960 . S
C578 H565 0.961 . S
C578 H566 0.959 . S
C578 C576 1.561 . S
C579 C576 1.526 . S
C579 C580 1.396 . S
C579 C584 1.390 . S
C580 C574 1.465 . S
C580 C579 1.396 . S
C580 C581 1.399 . S
C581 H567 0.929 . S
C581 C580 1.399 . S
C581 C582 1.385 . S
C582 H568 0.931 . S
C582 C581 1.385 . S
C582 C583 1.389 . S
C583 C582 1.389 . S
C583 C584 1.387 . S
C584 H569 0.930 . S
C584 C579 1.390 . S
C584 C583 1.387 . S
H585 C597 0.930 . S
H586 C599 0.930 . S
H587 C600 0.930 . S
H588 C604 0.959 . S
H589 C604 0.959 . S
H590 C604 0.961 . S
H591 C605 0.960 . S
H592 C605 0.961 . S
H593 C605 0.959 . S
H594 C608 0.929 . S
H595 C609 0.931 . S
H596 C611 0.930 . S
C597 H585 0.930 . S
C597 C598 1.399 . S
C597 C602 1.399 . S
C598 C597 1.399 . S
C598 C599 1.376 . S
C599 H586 0.930 . S
C599 C598 1.376 . S
C599 C600 1.388 . S
C600 H587 0.930 . S
C600 C599 1.388 . S
C600 C601 1.390 . S
C601 C600 1.390 . S
C601 C602 1.394 . S
C601 C607 1.465 . S
C602 C597 1.399 . S
C602 C601 1.394 . S
C602 C603 1.516 . S
C603 C602 1.516 . S
C603 C604 1.502 . S
C603 C605 1.561 . S
C603 C606 1.526 . S
C604 H588 0.959 . S
C604 H589 0.959 . S
C604 H590 0.961 . S
C604 C603 1.502 . S
C605 H591 0.960 . S
C605 H592 0.961 . S
C605 H593 0.959 . S
C605 C603 1.561 . S
C606 C603 1.526 . S
C606 C607 1.396 . S
C606 C611 1.390 . S
C607 C601 1.465 . S
C607 C606 1.396 . S
C607 C608 1.399 . S
C608 H594 0.929 . S
C608 C607 1.399 . S
C608 C609 1.385 . S
C609 H595 0.931 . S
C609 C608 1.385 . S
C609 C610 1.389 . S
C610 C609 1.389 . S
C610 C611 1.387 . S
C611 H596 0.930 . S
C611 C606 1.390 . S
C611 C610 1.387 . S
H612 C624 0.930 . S
H613 C626 0.930 . S
H614 C627 0.930 . S
H615 C631 0.954 1_554 S
H616 C631 0.959 . S
H617 C631 0.961 . S
H618 C632 0.960 . S
H619 C632 0.961 . S
H620 C632 0.959 . S
H621 C635 0.929 . S
H622 C636 0.931 . S
H623 C638 0.930 1_556 S
C624 H612 0.930 . S
C624 C625 1.399 . S
C624 C629 1.399 . S
C625 C624 1.399 . S
C625 C626 1.376 . S
C626 H613 0.930 . S
C626 C625 1.376 . S
C626 C627 1.388 . S
C627 H614 0.930 . S
C627 C626 1.388 . S
C627 C628 1.390 . S
C628 C627 1.390 . S
C628 C629 1.394 . S
C628 C634 1.465 . S
C629 C624 1.399 . S
C629 C628 1.394 . S
C629 C630 1.516 . S
C630 C629 1.516 . S
C630 C631 1.502 1_554 S
C630 C632 1.561 1_554 S
C630 C633 1.526 . S
C631 H615 0.954 1_556 S
C631 H616 0.959 . S
C631 H617 0.961 . S
C631 C630 1.502 1_556 S
C632 H618 0.960 . S
C632 H619 0.961 . S
C632 H620 0.959 . S
C632 C630 1.561 1_556 S
C633 C630 1.526 . S
C633 C634 1.396 . S
C633 C638 1.390 . S
C634 C628 1.465 . S
C634 C633 1.396 . S
C634 C635 1.399 . S
C635 H621 0.929 . S
C635 C634 1.399 . S
C635 C636 1.385 . S
C636 H622 0.931 . S
C636 C635 1.385 . S
C636 C637 1.389 . S
C637 C636 1.389 . S
C637 C638 1.387 . S
C638 H623 0.930 1_554 S
C638 C633 1.390 . S
C638 C637 1.387 . S
H639 C651 0.930 . S
H640 C653 0.930 . S
H641 C654 0.930 . S
H642 C658 0.959 . S
H643 C658 0.959 . S
H644 C658 0.961 . S
H645 C659 0.960 . S
H646 C659 0.961 . S
H647 C659 0.959 . S
H648 C662 0.929 . S
H649 C663 0.931 . S
H650 C665 0.930 . S
C651 H639 0.930 . S
C651 C652 1.399 . S
C651 C656 1.399 . S
C652 C651 1.399 . S
C652 C653 1.376 . S
C653 H640 0.930 . S
C653 C652 1.376 . S
C653 C654 1.388 . S
C654 H641 0.930 . S
C654 C653 1.388 . S
C654 C655 1.390 . S
C655 C654 1.390 . S
C655 C656 1.394 . S
C655 C661 1.465 . S
C656 C651 1.399 . S
C656 C655 1.394 . S
C656 C657 1.516 1_556 S
C657 C656 1.516 1_554 S
C657 C658 1.502 . S
C657 C659 1.561 . S
C657 C660 1.526 1_554 S
C658 H642 0.959 . S
C658 H643 0.959 . S
C658 H644 0.961 . S
C658 C657 1.502 . S
C659 H645 0.960 . S
C659 H646 0.961 . S
C659 H647 0.959 . S
C659 C657 1.561 . S
C660 C657 1.526 1_556 S
C660 C661 1.396 . S
C660 C665 1.390 1_556 S
C661 C655 1.465 . S
C661 C660 1.396 . S
C661 C662 1.399 . S
C662 H648 0.929 . S
C662 C661 1.399 . S
C662 C663 1.385 . S
C663 H649 0.931 . S
C663 C662 1.385 . S
C663 C664 1.389 . S
C664 C663 1.389 . S
C664 C665 1.387 1_556 S
C665 H650 0.930 . S
C665 C660 1.390 1_554 S
C665 C664 1.387 1_554 S
H666 C678 0.930 . S
H667 C680 0.930 . S
H668 C681 0.930 . S
H669 C685 0.959 . S
H670 C685 0.959 . S
H671 C685 0.961 . S
H672 C686 0.960 . S
H673 C686 0.961 . S
H674 C686 0.959 . S
H675 C689 0.929 . S
H676 C690 0.931 . S
H677 C692 0.930 . S
C678 H666 0.930 . S
C678 C679 1.399 . S
C678 C683 1.399 . S
C679 C678 1.399 . S
C679 C680 1.376 . S
C680 H667 0.930 . S
C680 C679 1.376 . S
C680 C681 1.388 . S
C681 H668 0.930 . S
C681 C680 1.388 . S
C681 C682 1.390 . S
C682 C681 1.390 . S
C682 C683 1.394 . S
C682 C688 1.465 . S
C683 C678 1.399 . S
C683 C682 1.394 . S
C683 C684 1.516 . S
C684 C683 1.516 . S
C684 C685 1.502 . S
C684 C686 1.561 . S
C684 C687 1.526 . S
C685 H669 0.959 . S
C685 H670 0.959 . S
C685 H671 0.961 . S
C685 C684 1.502 . S
C686 H672 0.960 . S
C686 H673 0.961 . S
C686 H674 0.959 . S
C686 C684 1.561 . S
C687 C684 1.526 . S
C687 C688 1.396 . S
C687 C692 1.390 . S
C688 C682 1.465 . S
C688 C687 1.396 . S
C688 C689 1.399 . S
C689 H675 0.929 . S
C689 C688 1.399 . S
C689 C690 1.385 . S
C690 H676 0.931 . S
C690 C689 1.385 . S
C690 C691 1.389 . S
C691 C690 1.389 . S
C691 C692 1.387 . S
C692 H677 0.930 . S
C692 C687 1.390 . S
C692 C691 1.387 . S
H693 C705 0.930 . S
H694 C707 0.930 1_554 S
H695 C708 0.930 . S
H696 C712 0.959 . S
H697 C712 0.959 . S
H698 C712 0.961 . S
H699 C713 0.960 . S
H700 C713 0.961 . S
H701 C713 0.959 . S
H702 C716 0.929 . S
H703 C717 0.931 . S
H704 C719 0.930 . S
C705 H693 0.930 . S
C705 C706 1.399 . S
C705 C710 1.399 . S
C706 C705 1.399 . S
C706 C707 1.376 . S
C707 H694 0.930 1_556 S
C707 C706 1.376 . S
C707 C708 1.388 1_556 S
C708 H695 0.930 . S
C708 C707 1.388 1_554 S
C708 C709 1.390 1_554 S
C709 C708 1.390 1_556 S
C709 C710 1.394 . S
C709 C715 1.474 . S
C710 C705 1.399 . S
C710 C709 1.394 . S
C710 C711 1.516 . S
C711 C710 1.516 . S
C711 C712 1.502 . S
C711 C713 1.561 . S
C711 C714 1.526 . S
C712 H696 0.959 . S
C712 H697 0.959 . S
C712 H698 0.961 . S
C712 C711 1.502 . S
C713 H699 0.960 . S
C713 H700 0.961 . S
C713 H701 0.959 . S
C713 C711 1.561 . S
C714 C711 1.526 . S
C714 C715 1.425 . S
C714 C719 1.390 . S
C715 C709 1.474 . S
C715 C714 1.425 . S
C715 C716 1.368 1_556 S
C716 H702 0.929 . S
C716 C715 1.368 1_554 S
C716 C717 1.385 . S
C717 H703 0.931 . S
C717 C716 1.385 . S
C717 C718 1.399 . S
C718 C717 1.399 . S
C718 C719 1.376 1_554 S
C719 H704 0.930 . S
C719 C714 1.390 . S
C719 C718 1.376 1_556 S
H720 C732 0.930 . S
H721 C734 0.930 . S
H722 C735 0.930 1_554 S
H723 C739 0.959 . S
H724 C739 0.959 . S
H725 C739 0.961 . S
H726 C740 0.960 . S
H727 C740 0.961 . S
H728 C740 0.959 . S
H729 C743 0.929 . S
H730 C744 0.931 . S
H731 C746 0.930 . S
C732 H720 0.930 . S
C732 C733 1.399 . S
C732 C737 1.399 . S
C733 C732 1.399 . S
C733 C734 1.376 . S
C734 H721 0.930 . S
C734 C733 1.376 . S
C734 C735 1.388 . S
C735 H722 0.930 1_556 S
C735 C734 1.388 . S
C735 C736 1.390 . S
C736 C735 1.390 . S
C736 C737 1.394 . S
C736 C742 1.465 . S
C737 C732 1.399 . S
C737 C736 1.394 . S
C737 C738 1.516 . S
C738 C737 1.516 . S
C738 C739 1.502 . S
C738 C740 1.561 . S
C738 C741 1.526 . S
C739 H723 0.959 . S
C739 H724 0.959 . S
C739 H725 0.961 . S
C739 C738 1.502 . S
C740 H726 0.960 . S
C740 H727 0.961 . S
C740 H728 0.959 . S
C740 C738 1.561 . S
C741 C738 1.526 . S
C741 C742 1.396 . S
C741 C746 1.390 . S
C742 C736 1.465 . S
C742 C741 1.396 . S
C742 C743 1.399 1_556 S
C743 H729 0.929 . S
C743 C742 1.399 1_554 S
C743 C744 1.385 . S
C744 H730 0.931 . S
C744 C743 1.385 . S
C744 C745 1.389 1_554 S
C745 C744 1.389 1_556 S
C745 C746 1.387 . S
C746 H731 0.930 . S
C746 C741 1.390 . S
C746 C745 1.387 . S
H747 C759 0.930 . S
H748 C761 0.930 . S
H749 C762 0.930 . S
H750 C766 0.959 . S
H751 C766 0.959 . S
H752 C766 0.961 . S
H753 C767 0.960 . S
H754 C767 0.961 . S
H755 C767 0.959 . S
H756 C770 0.929 1_554 S
H757 C771 0.931 1_554 S
H758 C773 0.930 . S
C759 H747 0.930 . S
C759 C760 1.399 . S
C759 C764 1.399 . S
C760 C759 1.399 . S
C760 C761 1.376 . S
C761 H748 0.930 . S
C761 C760 1.376 . S
C761 C762 1.388 . S
C762 H749 0.930 . S
C762 C761 1.388 . S
C762 C763 1.390 . S
C763 C762 1.390 . S
C763 C764 1.394 . S
C763 C769 1.465 . S
C764 C759 1.399 . S
C764 C763 1.394 . S
C764 C765 1.516 . S
C765 C764 1.516 . S
C765 C766 1.502 . S
C765 C767 1.561 . S
C765 C768 1.526 . S
C766 H750 0.959 . S
C766 H751 0.959 . S
C766 H752 0.961 . S
C766 C765 1.502 . S
C767 H753 0.960 . S
C767 H754 0.961 . S
C767 H755 0.959 . S
C767 C765 1.561 . S
C768 C765 1.526 . S
C768 C769 1.396 . S
C768 C773 1.390 . S
C769 C763 1.465 . S
C769 C768 1.396 . S
C769 C770 1.399 . S
C770 H756 0.929 1_556 S
C770 C769 1.399 . S
C770 C771 1.385 . S
C771 H757 0.931 1_556 S
C771 C770 1.385 . S
C771 C772 1.389 . S
C772 C771 1.389 . S
C772 C773 1.387 . S
C773 H758 0.930 . S
C773 C768 1.390 . S
C773 C772 1.387 . S
H774 C786 0.928 1_554 S
H775 C788 0.930 . S
H776 C789 0.930 . S
H777 C793 0.959 1_556 S
H778 C793 0.959 . S
H779 C793 0.961 . S
H780 C794 0.960 . S
H781 C794 0.961 . S
H782 C794 0.959 . S
H783 C797 0.929 . S
H784 C798 0.931 . S
H785 C800 0.930 . S
C786 H774 0.928 1_556 S
C786 C787 1.400 . S
C786 C791 1.399 1_556 S
C787 C786 1.400 . S
C787 C788 1.376 . S
C788 H775 0.930 . S
C788 C787 1.376 . S
C788 C789 1.388 . S
C789 H776 0.930 . S
C789 C788 1.388 . S
C789 C790 1.390 . S
C790 C789 1.390 . S
C790 C791 1.392 1_556 S
C790 C796 1.465 . S
C791 C786 1.399 1_554 S
C791 C790 1.392 1_554 S
C791 C792 1.517 . S
C792 C791 1.517 . S
C792 C793 1.502 . S
C792 C794 1.561 . S
C792 C795 1.526 . S
C793 H777 0.959 1_554 S
C793 H778 0.959 . S
C793 H779 0.961 . S
C793 C792 1.502 . S
C794 H780 0.960 . S
C794 H781 0.961 . S
C794 H782 0.959 . S
C794 C792 1.561 . S
C795 C792 1.526 . S
C795 C796 1.396 1_554 S
C795 C800 1.390 . S
C796 C790 1.465 . S
C796 C795 1.396 1_556 S
C796 C797 1.399 . S
C797 H783 0.929 . S
C797 C796 1.399 . S
C797 C798 1.385 . S
C798 H784 0.931 . S
C798 C797 1.385 . S
C798 C799 1.416 . S
C799 C798 1.416 . S
C799 C800 1.365 1_556 S
C800 H785 0.930 . S
C800 C795 1.390 . S
C800 C799 1.365 1_554 S
H801 C813 0.930 . S
H802 C815 0.930 . S
H803 C816 0.930 . S
H804 C820 0.958 1_554 S
H805 C820 0.960 . S
H806 C820 0.961 . S
H807 C821 0.960 . S
H808 C821 0.961 . S
H809 C821 0.959 . S
H810 C824 0.929 . S
H811 C825 0.931 . S
H812 C827 0.930 1_556 S
C813 H801 0.930 . S
C813 C814 1.399 . S
C813 C818 1.399 . S
C814 C813 1.399 . S
C814 C815 1.376 . S
C815 H802 0.930 . S
C815 C814 1.376 . S
C815 C816 1.388 . S
C816 H803 0.930 . S
C816 C815 1.388 . S
C816 C817 1.390 . S
C817 C816 1.390 . S
C817 C818 1.394 . S
C817 C823 1.465 . S
C818 C813 1.399 . S
C818 C817 1.394 . S
C818 C819 1.516 . S
C819 C818 1.516 . S
C819 C820 1.502 1_554 S
C819 C821 1.561 1_554 S
C819 C822 1.526 . S
C820 H804 0.958 1_556 S
C820 H805 0.960 . S
C820 H806 0.961 . S
C820 C819 1.502 1_556 S
C821 H807 0.960 . S
C821 H808 0.961 . S
C821 H809 0.959 . S
C821 C819 1.561 1_556 S
C822 C819 1.526 . S
C822 C823 1.396 . S
C822 C827 1.390 . S
C823 C817 1.465 . S
C823 C822 1.396 . S
C823 C824 1.399 . S
C824 H810 0.929 . S
C824 C823 1.399 . S
C824 C825 1.385 . S
C825 H811 0.931 . S
C825 C824 1.385 . S
C825 C826 1.389 . S
C826 C825 1.389 . S
C826 C827 1.387 . S
C827 H812 0.930 1_554 S
C827 C822 1.390 . S
C827 C826 1.387 . S
H828 C840 0.930 . S
H829 C842 0.930 . S
H830 C843 0.930 . S
H831 C847 0.959 . S
H832 C847 0.959 . S
H833 C847 0.961 . S
H834 C848 0.960 . S
H835 C848 0.961 1_556 S
H836 C848 0.959 . S
H837 C851 0.929 . S
H838 C852 0.931 . S
H839 C854 0.930 . S
C840 H828 0.930 . S
C840 C841 1.399 . S
C840 C845 1.399 . S
C841 C840 1.399 . S
C841 C842 1.376 . S
C842 H829 0.930 . S
C842 C841 1.376 . S
C842 C843 1.388 . S
C843 H830 0.930 . S
C843 C842 1.388 . S
C843 C844 1.390 . S
C844 C843 1.390 . S
C844 C845 1.394 . S
C844 C850 1.465 . S
C845 C840 1.399 . S
C845 C844 1.394 . S
C845 C846 1.516 . S
C846 C845 1.516 . S
C846 C847 1.502 . S
C846 C848 1.561 . S
C846 C849 1.526 . S
C847 H831 0.959 . S
C847 H832 0.959 . S
C847 H833 0.961 . S
C847 C846 1.502 . S
C848 H834 0.960 . S
C848 H835 0.961 1_554 S
C848 H836 0.959 . S
C848 C846 1.561 . S
C849 C846 1.526 . S
C849 C850 1.396 . S
C849 C854 1.390 . S
C850 C844 1.465 . S
C850 C849 1.396 . S
C850 C851 1.399 . S
C851 H837 0.929 . S
C851 C850 1.399 . S
C851 C852 1.385 . S
C852 H838 0.931 . S
C852 C851 1.385 . S
C852 C853 1.389 . S
C853 C852 1.389 . S
C853 C854 1.387 . S
C854 H839 0.930 . S
C854 C849 1.390 . S
C854 C853 1.387 . S
H855 C867 0.930 . S
H856 C869 0.944 . S
H857 C870 0.884 1_556 S
H858 C874 0.959 . S
H859 C874 0.959 . S
H860 C874 0.961 . S
H861 C875 0.960 . S
H862 C875 0.961 . S
H863 C875 0.959 . S
H864 C878 0.929 . S
H865 C879 0.931 . S
H866 C881 0.930 . S
C867 H855 0.930 . S
C867 C868 1.399 . S
C867 C872 1.399 . S
C868 C867 1.399 . S
C868 C869 1.376 . S
C869 H856 0.944 . S
C869 C868 1.376 . S
C869 C870 1.408 . S
C870 H857 0.884 1_554 S
C870 C869 1.408 . S
C870 C871 1.419 . S
C871 C870 1.419 . S
C871 C872 1.394 . S
C871 C877 1.465 . S
C872 C867 1.399 . S
C872 C871 1.394 . S
C872 C873 1.516 . S
C873 C872 1.516 . S
C873 C874 1.502 . S
C873 C875 1.561 . S
C873 C876 1.526 . S
C874 H858 0.959 . S
C874 H859 0.959 . S
C874 H860 0.961 . S
C874 C873 1.502 . S
C875 H861 0.960 . S
C875 H862 0.961 . S
C875 H863 0.959 . S
C875 C873 1.561 . S
C876 C873 1.526 . S
C876 C877 1.396 . S
C876 C881 1.390 . S
C877 C871 1.465 . S
C877 C876 1.396 . S
C877 C878 1.399 1_554 S
C878 H864 0.929 . S
C878 C877 1.399 1_556 S
C878 C879 1.385 . S
C879 H865 0.931 . S
C879 C878 1.385 . S
C879 C880 1.389 1_556 S
C880 C879 1.389 1_554 S
C880 C881 1.387 . S
C881 H866 0.930 . S
C881 C876 1.390 . S
C881 C880 1.387 . S
H882 C894 0.930 . S
H883 C896 0.930 . S
H884 C897 0.930 . S
H885 C901 0.959 1_655 S
H886 C901 0.959 . S
H887 C901 0.961 1_655 S
H888 C902 0.960 . S
H889 C902 0.961 . S
H890 C902 0.959 . S
H891 C905 0.944 . S
H892 C906 0.931 . S
H893 C908 0.930 . S
C894 H882 0.930 . S
C894 C895 1.399 . S
C894 C899 1.399 . S
C895 C894 1.399 . S
C895 C896 1.376 . S
C896 H883 0.930 . S
C896 C895 1.376 . S
C896 C897 1.388 . S
C897 H884 0.930 . S
C897 C896 1.388 . S
C897 C898 1.390 . S
C898 C897 1.390 . S
C898 C899 1.394 . S
C898 C904 1.465 1_655 S
C899 C894 1.399 . S
C899 C898 1.394 . S
C899 C900 1.516 1_655 S
C900 C899 1.516 1_455 S
C900 C901 1.502 . S
C900 C902 1.561 . S
C900 C903 1.526 . S
C901 H885 0.959 1_455 S
C901 H886 0.959 . S
C901 H887 0.961 1_455 S
C901 C900 1.502 . S
C902 H888 0.960 . S
C902 H889 0.961 . S
C902 H890 0.959 . S
C902 C900 1.561 . S
C903 C900 1.526 . S
C903 C904 1.396 . S
C903 C908 1.390 . S
C904 C898 1.465 1_455 S
C904 C903 1.396 . S
C904 C905 1.399 . S
C905 H891 0.944 . S
C905 C904 1.399 . S
C905 C906 1.385 . S
C906 H892 0.931 . S
C906 C905 1.385 . S
C906 C907 1.389 . S
C907 C906 1.389 . S
C907 C908 1.387 . S
C908 H893 0.930 . S
C908 C903 1.390 . S
C908 C907 1.387 . S
H909 C921 0.930 . S
H910 C923 0.930 . S
H911 C924 0.930 . S
H912 C928 0.959 . S
H913 C928 0.959 . S
H914 C928 0.961 . S
H915 C929 0.960 . S
H916 C929 0.961 . S
H917 C929 0.959 . S
H918 C932 0.929 . S
H919 C933 0.931 . S
H920 C935 0.930 . S
C921 H909 0.930 . S
C921 C922 1.399 . S
C921 C926 1.399 . S
C922 C921 1.399 . S
C922 C923 1.376 . S
C923 H910 0.930 . S
C923 C922 1.376 . S
C923 C924 1.388 . S
C924 H911 0.930 . S
C924 C923 1.388 . S
C924 C925 1.390 . S
C925 C924 1.390 . S
C925 C926 1.394 . S
C925 C931 1.465 . S
C926 C921 1.399 . S
C926 C925 1.394 . S
C926 C927 1.516 . S
C927 C926 1.516 . S
C927 C928 1.502 . S
C927 C929 1.561 . S
C927 C930 1.526 . S
C928 H912 0.959 . S
C928 H913 0.959 . S
C928 H914 0.961 . S
C928 C927 1.502 . S
C929 H915 0.960 . S
C929 H916 0.961 . S
C929 H917 0.959 . S
C929 C927 1.561 . S
C930 C927 1.526 . S
C930 C931 1.396 . S
C930 C935 1.390 . S
C931 C925 1.465 . S
C931 C930 1.396 . S
C931 C932 1.399 . S
C932 H918 0.929 . S
C932 C931 1.399 . S
C932 C933 1.385 . S
C933 H919 0.931 . S
C933 C932 1.385 . S
C933 C934 1.389 . S
C934 C933 1.389 . S
C934 C935 1.387 . S
C935 H920 0.930 . S
C935 C930 1.390 . S
C935 C934 1.387 . S
H936 C948 0.930 . S
H937 C950 0.930 . S
H938 C951 0.930 . S
H939 C955 0.959 . S
H940 C955 0.959 . S
H941 C955 0.961 . S
H942 C956 0.960 . S
H943 C956 0.961 . S
H944 C956 0.959 . S
H945 C959 0.929 . S
H946 C960 0.931 . S
H947 C962 0.930 . S
C948 H936 0.930 . S
C948 C949 1.399 . S
C948 C953 1.399 . S
C949 C948 1.399 . S
C949 C950 1.376 . S
C950 H937 0.930 . S
C950 C949 1.376 . S
C950 C951 1.388 . S
C951 H938 0.930 . S
C951 C950 1.388 . S
C951 C952 1.390 . S
C952 C951 1.390 . S
C952 C953 1.394 . S
C952 C958 1.465 . S
C953 C948 1.399 . S
C953 C952 1.394 . S
C953 C954 1.516 . S
C954 C953 1.516 . S
C954 C955 1.502 . S
C954 C956 1.561 . S
C954 C957 1.515 1_545 S
C955 H939 0.959 . S
C955 H940 0.959 . S
C955 H941 0.961 . S
C955 C954 1.502 . S
C956 H942 0.960 . S
C956 H943 0.961 . S
C956 H944 0.959 . S
C956 C954 1.561 . S
C957 C954 1.515 1_565 S
C957 C958 1.386 1_565 S
C957 C962 1.408 . S
C958 C952 1.465 . S
C958 C957 1.386 1_545 S
C958 C959 1.399 1_545 S
C959 H945 0.929 . S
C959 C958 1.399 1_565 S
C959 C960 1.385 . S
C960 H946 0.931 . S
C960 C959 1.385 . S
C960 C961 1.389 . S
C961 C960 1.389 . S
C961 C962 1.387 . S
C962 H947 0.930 . S
C962 C957 1.408 . S
C962 C961 1.387 . S
H963 C975 0.930 . S
H964 C977 0.930 . S
H965 C978 0.930 . S
H966 C982 0.959 . S
H967 C982 0.959 . S
H968 C982 0.961 . S
H969 C983 0.960 . S
H970 C983 0.961 . S
H971 C983 0.959 . S
H972 C986 0.929 . S
H973 C987 0.931 . S
H974 C989 0.930 . S
C975 H963 0.930 . S
C975 C976 1.399 . S
C975 C980 1.399 . S
C976 C975 1.399 . S
C976 C977 1.376 . S
C977 H964 0.930 . S
C977 C976 1.376 . S
C977 C978 1.388 . S
C978 H965 0.930 . S
C978 C977 1.388 . S
C978 C979 1.390 . S
C979 C978 1.390 . S
C979 C980 1.394 . S
C979 C985 1.465 . S
C980 C975 1.399 . S
C980 C979 1.394 . S
C980 C981 1.516 . S
C981 C980 1.516 . S
C981 C982 1.502 . S
C981 C983 1.561 . S
C981 C984 1.526 . S
C982 H966 0.959 . S
C982 H967 0.959 . S
C982 H968 0.961 . S
C982 C981 1.502 . S
C983 H969 0.960 . S
C983 H970 0.961 . S
C983 H971 0.959 . S
C983 C981 1.561 . S
C984 C981 1.526 . S
C984 C985 1.396 . S
C984 C989 1.390 . S
C985 C979 1.465 . S
C985 C984 1.396 . S
C985 C986 1.399 . S
C986 H972 0.929 . S
C986 C985 1.399 . S
C986 C987 1.385 . S
C987 H973 0.931 . S
C987 C986 1.385 . S
C987 C988 1.389 . S
C988 C987 1.389 . S
C988 C989 1.387 . S
C989 H974 0.930 . S
C989 C984 1.390 . S
C989 C988 1.387 . S
H990 C1002 0.930 . S
H991 C1004 0.930 . S
H992 C1005 0.930 . S
H993 C1009 0.959 . S
H994 C1009 0.959 . S
H995 C1009 0.961 . S
H996 C1010 0.960 . S
H997 C1010 0.961 . S
H998 C1010 0.959 . S
H999 C1013 0.929 . S
H1000 C1014 0.931 . S
H1001 C1016 0.930 . S
C1002 H990 0.930 . S
C1002 C1003 1.399 . S
C1002 C1007 1.399 . S
C1003 C1002 1.399 . S
C1003 C1004 1.376 . S
C1004 H991 0.930 . S
C1004 C1003 1.376 . S
C1004 C1005 1.388 . S
C1005 H992 0.930 . S
C1005 C1004 1.388 . S
C1005 C1006 1.390 . S
C1006 C1005 1.390 . S
C1006 C1007 1.394 . S
C1006 C1012 1.465 . S
C1007 C1002 1.399 . S
C1007 C1006 1.394 . S
C1007 C1008 1.516 . S
C1008 C1007 1.516 . S
C1008 C1009 1.502 . S
C1008 C1010 1.561 . S
C1008 C1011 1.526 . S
C1009 H993 0.959 . S
C1009 H994 0.959 . S
C1009 H995 0.961 . S
C1009 C1008 1.502 . S
C1010 H996 0.960 . S
C1010 H997 0.961 . S
C1010 H998 0.959 . S
C1010 C1008 1.561 . S
C1011 C1008 1.526 . S
C1011 C1012 1.396 . S
C1011 C1016 1.390 . S
C1012 C1006 1.465 . S
C1012 C1011 1.396 . S
C1012 C1013 1.399 . S
C1013 H999 0.929 . S
C1013 C1012 1.399 . S
C1013 C1014 1.385 . S
C1014 H1000 0.931 . S
C1014 C1013 1.385 . S
C1014 C1015 1.389 . S
C1015 C1014 1.389 . S
C1015 C1016 1.387 . S
C1016 H1001 0.930 . S
C1016 C1011 1.390 . S
C1016 C1015 1.387 . S
H1017 C1029 0.930 . S
H1018 C1031 0.930 . S
H1019 C1032 0.930 . S
H1020 C1036 0.959 . S
H1021 C1036 0.959 . S
H1022 C1036 0.961 . S
H1023 C1037 0.960 . S
H1024 C1037 0.961 . S
H1025 C1037 0.959 . S
H1026 C1040 0.929 . S
H1027 C1041 0.931 . S
H1028 C1043 0.930 . S
C1029 H1017 0.930 . S
C1029 C1030 1.399 . S
C1029 C1034 1.399 . S
C1030 C1029 1.399 . S
C1030 C1031 1.376 . S
C1031 H1018 0.930 . S
C1031 C1030 1.376 . S
C1031 C1032 1.388 . S
C1032 H1019 0.930 . S
C1032 C1031 1.388 . S
C1032 C1033 1.390 . S
C1033 C1032 1.390 . S
C1033 C1034 1.394 . S
C1033 C1039 1.465 . S
C1034 C1029 1.399 . S
C1034 C1033 1.394 . S
C1034 C1035 1.516 . S
C1035 C1034 1.516 . S
C1035 C1036 1.502 . S
C1035 C1037 1.561 . S
C1035 C1038 1.526 . S
C1036 H1020 0.959 . S
C1036 H1021 0.959 . S
C1036 H1022 0.961 . S
C1036 C1035 1.502 . S
C1037 H1023 0.960 . S
C1037 H1024 0.961 . S
C1037 H1025 0.959 . S
C1037 C1035 1.561 . S
C1038 C1035 1.526 . S
C1038 C1039 1.396 . S
C1038 C1043 1.390 . S
C1039 C1033 1.465 . S
C1039 C1038 1.396 . S
C1039 C1040 1.399 . S
C1040 H1026 0.929 . S
C1040 C1039 1.399 . S
C1040 C1041 1.385 . S
C1041 H1027 0.931 . S
C1041 C1040 1.385 . S
C1041 C1042 1.389 . S
C1042 C1041 1.389 . S
C1042 C1043 1.387 . S
C1043 H1028 0.930 . S
C1043 C1038 1.390 . S
C1043 C1042 1.387 . S
H1044 C1056 0.930 . S
H1045 C1058 0.930 . S
H1046 C1059 0.930 . S
H1047 C1063 0.959 . S
H1048 C1063 0.959 . S
H1049 C1063 0.961 . S
H1050 C1064 0.960 . S
H1051 C1064 0.961 . S
H1052 C1064 0.959 . S
H1053 C1067 0.929 . S
H1054 C1068 0.931 . S
H1055 C1070 0.930 . S
C1056 H1044 0.930 . S
C1056 C1057 1.399 . S
C1056 C1061 1.399 . S
C1057 C1056 1.399 . S
C1057 C1058 1.376 . S
C1058 H1045 0.930 . S
C1058 C1057 1.376 . S
C1058 C1059 1.388 . S
C1059 H1046 0.930 . S
C1059 C1058 1.388 . S
C1059 C1060 1.390 . S
C1060 C1059 1.390 . S
C1060 C1061 1.394 . S
C1060 C1066 1.465 . S
C1061 C1056 1.399 . S
C1061 C1060 1.394 . S
C1061 C1062 1.516 . S
C1062 C1061 1.516 . S
C1062 C1063 1.502 . S
C1062 C1064 1.561 . S
C1062 C1065 1.526 . S
C1063 H1047 0.959 . S
C1063 H1048 0.959 . S
C1063 H1049 0.961 . S
C1063 C1062 1.502 . S
C1064 H1050 0.960 . S
C1064 H1051 0.961 . S
C1064 H1052 0.959 . S
C1064 C1062 1.561 . S
C1065 C1062 1.526 . S
C1065 C1066 1.396 . S
C1065 C1070 1.390 . S
C1066 C1060 1.465 . S
C1066 C1065 1.396 . S
C1066 C1067 1.399 . S
C1067 H1053 0.929 . S
C1067 C1066 1.399 . S
C1067 C1068 1.385 . S
C1068 H1054 0.931 . S
C1068 C1067 1.385 . S
C1068 C1069 1.389 . S
C1069 C1068 1.389 . S
C1069 C1070 1.387 . S
C1070 H1055 0.930 . S
C1070 C1065 1.390 . S
C1070 C1069 1.387 . S
H1071 C1083 0.930 . S
H1072 C1085 0.930 . S
H1073 C1086 0.930 . S
H1074 C1090 0.959 . S
H1075 C1090 0.959 . S
H1076 C1090 0.961 . S
H1077 C1091 0.960 . S
H1078 C1091 0.961 . S
H1079 C1091 0.959 . S
H1080 C1094 0.929 . S
H1081 C1095 0.931 . S
H1082 C1097 0.930 . S
C1083 H1071 0.930 . S
C1083 C1084 1.399 . S
C1083 C1088 1.399 . S
C1084 C1083 1.399 . S
C1084 C1085 1.376 . S
C1085 H1072 0.930 . S
C1085 C1084 1.376 . S
C1085 C1086 1.388 . S
C1086 H1073 0.930 . S
C1086 C1085 1.388 . S
C1086 C1087 1.390 . S
C1087 C1086 1.390 . S
C1087 C1088 1.394 . S
C1087 C1093 1.465 . S
C1088 C1083 1.399 . S
C1088 C1087 1.394 . S
C1088 C1089 1.516 . S
C1089 C1088 1.516 . S
C1089 C1090 1.502 . S
C1089 C1091 1.561 . S
C1089 C1092 1.526 . S
C1090 H1074 0.959 . S
C1090 H1075 0.959 . S
C1090 H1076 0.961 . S
C1090 C1089 1.502 . S
C1091 H1077 0.960 . S
C1091 H1078 0.961 . S
C1091 H1079 0.959 . S
C1091 C1089 1.561 . S
C1092 C1089 1.526 . S
C1092 C1093 1.396 . S
C1092 C1097 1.390 . S
C1093 C1087 1.465 . S
C1093 C1092 1.396 . S
C1093 C1094 1.399 . S
C1094 H1080 0.929 . S
C1094 C1093 1.399 . S
C1094 C1095 1.385 . S
C1095 H1081 0.931 . S
C1095 C1094 1.385 . S
C1095 C1096 1.389 . S
C1096 C1095 1.389 . S
C1096 C1097 1.387 . S
C1097 H1082 0.930 . S
C1097 C1092 1.390 . S
C1097 C1096 1.387 . S
H1098 C1110 0.930 . S
H1099 C1112 0.930 . S
H1100 C1113 0.930 . S
H1101 C1117 0.959 . S
H1102 C1117 0.959 . S
H1103 C1117 0.961 . S
H1104 C1118 0.960 . S
H1105 C1118 0.961 . S
H1106 C1118 0.959 . S
H1107 C1121 0.929 . S
H1108 C1122 0.931 . S
H1109 C1124 0.930 . S
C1110 H1098 0.930 . S
C1110 C1111 1.399 . S
C1110 C1115 1.399 . S
C1111 C1110 1.399 . S
C1111 C1112 1.376 . S
C1112 H1099 0.930 . S
C1112 C1111 1.376 . S
C1112 C1113 1.388 . S
C1113 H1100 0.930 . S
C1113 C1112 1.388 . S
C1113 C1114 1.390 . S
C1114 C1113 1.390 . S
C1114 C1115 1.394 . S
C1114 C1120 1.465 . S
C1115 C1110 1.399 . S
C1115 C1114 1.394 . S
C1115 C1116 1.516 . S
C1116 C1115 1.516 . S
C1116 C1117 1.502 . S
C1116 C1118 1.561 . S
C1116 C1119 1.526 . S
C1117 H1101 0.959 . S
C1117 H1102 0.959 . S
C1117 H1103 0.961 . S
C1117 C1116 1.502 . S
C1118 H1104 0.960 . S
C1118 H1105 0.961 . S
C1118 H1106 0.959 . S
C1118 C1116 1.561 . S
C1119 C1116 1.526 . S
C1119 C1120 1.396 . S
C1119 C1124 1.390 . S
C1120 C1114 1.465 . S
C1120 C1119 1.396 . S
C1120 C1121 1.399 . S
C1121 H1107 0.929 . S
C1121 C1120 1.399 . S
C1121 C1122 1.385 . S
C1122 H1108 0.931 . S
C1122 C1121 1.385 . S
C1122 C1123 1.389 . S
C1123 C1122 1.389 . S
C1123 C1124 1.387 . S
C1124 H1109 0.930 . S
C1124 C1119 1.390 . S
C1124 C1123 1.387 . S
H1125 C1137 0.930 . S
H1126 C1139 0.930 . S
H1127 C1140 0.930 . S
H1128 C1144 0.959 . S
H1129 C1144 0.959 . S
H1130 C1144 0.961 . S
H1131 C1145 0.960 . S
H1132 C1145 0.961 . S
H1133 C1145 0.959 . S
H1134 C1148 0.929 . S
H1135 C1149 0.931 . S
H1136 C1151 0.930 . S
C1137 H1125 0.930 . S
C1137 C1138 1.399 . S
C1137 C1142 1.399 1_545 S
C1138 C1137 1.399 . S
C1138 C1139 1.376 . S
C1139 H1126 0.930 . S
C1139 C1138 1.376 . S
C1139 C1140 1.388 1_545 S
C1140 H1127 0.930 . S
C1140 C1139 1.388 1_565 S
C1140 C1141 1.390 . S
C1141 C1140 1.390 . S
C1141 C1142 1.394 . S
C1141 C1147 1.465 . S
C1142 C1137 1.399 1_565 S
C1142 C1141 1.394 . S
C1142 C1143 1.516 . S
C1143 C1142 1.516 . S
C1143 C1144 1.502 . S
C1143 C1145 1.561 . S
C1143 C1146 1.526 . S
C1144 H1128 0.959 . S
C1144 H1129 0.959 . S
C1144 H1130 0.961 . S
C1144 C1143 1.502 . S
C1145 H1131 0.960 . S
C1145 H1132 0.961 . S
C1145 H1133 0.959 . S
C1145 C1143 1.561 . S
C1146 C1143 1.526 . S
C1146 C1147 1.396 . S
C1146 C1151 1.390 . S
C1147 C1141 1.465 . S
C1147 C1146 1.396 . S
C1147 C1148 1.399 . S
C1148 H1134 0.929 . S
C1148 C1147 1.399 . S
C1148 C1149 1.385 . S
C1149 H1135 0.931 . S
C1149 C1148 1.385 . S
C1149 C1150 1.389 . S
C1150 C1149 1.389 . S
C1150 C1151 1.387 . S
C1151 H1136 0.930 . S
C1151 C1146 1.390 . S
C1151 C1150 1.387 . S
H1152 C1164 0.930 . S
H1153 C1166 0.930 . S
H1154 C1167 0.930 . S
H1155 C1171 0.959 . S
H1156 C1171 0.959 . S
H1157 C1171 0.961 . S
H1158 C1172 0.960 . S
H1159 C1172 0.961 . S
H1160 C1172 0.959 . S
H1161 C1175 0.929 . S
H1162 C1176 0.931 . S
H1163 C1178 0.930 . S
C1164 H1152 0.930 . S
C1164 C1165 1.399 1_455 S
C1164 C1169 1.399 . S
C1165 C1164 1.399 1_655 S
C1165 C1166 1.376 . S
C1166 H1153 0.930 . S
C1166 C1165 1.376 . S
C1166 C1167 1.388 1_655 S
C1167 H1154 0.930 . S
C1167 C1166 1.388 1_455 S
C1167 C1168 1.390 . S
C1168 C1167 1.390 . S
C1168 C1169 1.394 . S
C1168 C1174 1.465 . S
C1169 C1164 1.399 . S
C1169 C1168 1.394 . S
C1169 C1170 1.516 . S
C1170 C1169 1.516 . S
C1170 C1171 1.502 . S
C1170 C1172 1.561 . S
C1170 C1173 1.526 . S
C1171 H1155 0.959 . S
C1171 H1156 0.959 . S
C1171 H1157 0.961 . S
C1171 C1170 1.502 . S
C1172 H1158 0.960 . S
C1172 H1159 0.961 . S
C1172 H1160 0.959 . S
C1172 C1170 1.561 . S
C1173 C1170 1.526 . S
C1173 C1174 1.396 . S
C1173 C1178 1.390 . S
C1174 C1168 1.465 . S
C1174 C1173 1.396 . S
C1174 C1175 1.399 . S
C1175 H1161 0.929 . S
C1175 C1174 1.399 . S
C1175 C1176 1.385 . S
C1176 H1162 0.931 . S
C1176 C1175 1.385 . S
C1176 C1177 1.389 . S
C1177 C1176 1.389 . S
C1177 C1178 1.387 . S
C1178 H1163 0.930 . S
C1178 C1173 1.390 . S
C1178 C1177 1.387 . S
H1179 C1191 0.930 . S
H1180 C1193 0.930 . S
H1181 C1194 0.930 . S
H1182 C1198 0.959 . S
H1183 C1198 0.959 . S
H1184 C1198 0.961 . S
H1185 C1199 0.960 . S
H1186 C1199 0.961 . S
H1187 C1199 0.959 . S
H1188 C1202 0.929 . S
H1189 C1203 0.931 . S
H1190 C1205 0.930 . S
C1191 H1179 0.930 . S
C1191 C1192 1.399 . S
C1191 C1196 1.399 . S
C1192 C1191 1.399 . S
C1192 C1193 1.376 . S
C1193 H1180 0.930 . S
C1193 C1192 1.376 . S
C1193 C1194 1.388 . S
C1194 H1181 0.930 . S
C1194 C1193 1.388 . S
C1194 C1195 1.390 . S
C1195 C1194 1.390 . S
C1195 C1196 1.394 . S
C1195 C1201 1.465 . S
C1196 C1191 1.399 . S
C1196 C1195 1.394 . S
C1196 C1197 1.516 . S
C1197 C1196 1.516 . S
C1197 C1198 1.502 . S
C1197 C1199 1.561 . S
C1197 C1200 1.526 . S
C1198 H1182 0.959 . S
C1198 H1183 0.959 . S
C1198 H1184 0.961 . S
C1198 C1197 1.502 . S
C1199 H1185 0.960 . S
C1199 H1186 0.961 . S
C1199 H1187 0.959 . S
C1199 C1197 1.561 . S
C1200 C1197 1.526 . S
C1200 C1201 1.396 . S
C1200 C1205 1.390 . S
C1201 C1195 1.465 . S
C1201 C1200 1.396 . S
C1201 C1202 1.399 . S
C1202 H1188 0.929 . S
C1202 C1201 1.399 . S
C1202 C1203 1.385 . S
C1203 H1189 0.931 . S
C1203 C1202 1.385 . S
C1203 C1204 1.389 . S
C1204 C1203 1.389 . S
C1204 C1205 1.387 . S
C1205 H1190 0.930 . S
C1205 C1200 1.390 . S
C1205 C1204 1.387 . S
H1206 C1218 0.930 . S
H1207 C1220 0.930 . S
H1208 C1221 0.930 . S
H1209 C1225 0.959 . S
H1210 C1225 0.959 . S
H1211 C1225 0.961 . S
H1212 C1226 0.960 . S
H1213 C1226 0.961 . S
H1214 C1226 0.959 . S
H1215 C1229 0.929 . S
H1216 C1230 0.931 . S
H1217 C1232 0.930 . S
C1218 H1206 0.930 . S
C1218 C1219 1.399 . S
C1218 C1223 1.399 . S
C1219 C1218 1.399 . S
C1219 C1220 1.376 . S
C1220 H1207 0.930 . S
C1220 C1219 1.376 . S
C1220 C1221 1.388 . S
C1221 H1208 0.930 . S
C1221 C1220 1.388 . S
C1221 C1222 1.390 . S
C1222 C1221 1.390 . S
C1222 C1223 1.394 . S
C1222 C1228 1.465 . S
C1223 C1218 1.399 . S
C1223 C1222 1.394 . S
C1223 C1224 1.516 . S
C1224 C1223 1.516 . S
C1224 C1225 1.502 . S
C1224 C1226 1.561 . S
C1224 C1227 1.526 . S
C1225 H1209 0.959 . S
C1225 H1210 0.959 . S
C1225 H1211 0.961 . S
C1225 C1224 1.502 . S
C1226 H1212 0.960 . S
C1226 H1213 0.961 . S
C1226 H1214 0.959 . S
C1226 C1224 1.561 . S
C1227 C1224 1.526 . S
C1227 C1228 1.396 . S
C1227 C1232 1.390 . S
C1228 C1222 1.465 . S
C1228 C1227 1.396 . S
C1228 C1229 1.399 . S
C1229 H1215 0.929 . S
C1229 C1228 1.399 . S
C1229 C1230 1.385 . S
C1230 H1216 0.931 . S
C1230 C1229 1.385 . S
C1230 C1231 1.389 . S
C1231 C1230 1.389 . S
C1231 C1232 1.387 . S
C1232 H1217 0.930 . S
C1232 C1227 1.390 . S
C1232 C1231 1.387 . S
H1233 C1245 0.930 . S
H1234 C1247 0.930 . S
H1235 C1248 0.930 . S
H1236 C1252 0.959 . S
H1237 C1252 0.959 . S
H1238 C1252 0.961 . S
H1239 C1253 0.960 . S
H1240 C1253 0.961 . S
H1241 C1253 0.959 . S
H1242 C1256 0.929 . S
H1243 C1257 0.931 . S
H1244 C1259 0.930 . S
C1245 H1233 0.930 . S
C1245 C1246 1.399 . S
C1245 C1250 1.399 . S
C1246 C1245 1.399 . S
C1246 C1247 1.376 . S
C1247 H1234 0.930 . S
C1247 C1246 1.376 . S
C1247 C1248 1.388 . S
C1248 H1235 0.930 . S
C1248 C1247 1.388 . S
C1248 C1249 1.390 . S
C1249 C1248 1.390 . S
C1249 C1250 1.394 . S
C1249 C1255 1.465 . S
C1250 C1245 1.399 . S
C1250 C1249 1.394 . S
C1250 C1251 1.516 . S
C1251 C1250 1.516 . S
C1251 C1252 1.502 . S
C1251 C1253 1.561 . S
C1251 C1254 1.526 . S
C1252 H1236 0.959 . S
C1252 H1237 0.959 . S
C1252 H1238 0.961 . S
C1252 C1251 1.502 . S
C1253 H1239 0.960 . S
C1253 H1240 0.961 . S
C1253 H1241 0.959 . S
C1253 C1251 1.561 . S
C1254 C1251 1.526 . S
C1254 C1255 1.396 . S
C1254 C1259 1.390 . S
C1255 C1249 1.465 . S
C1255 C1254 1.396 . S
C1255 C1256 1.399 . S
C1256 H1242 0.929 . S
C1256 C1255 1.399 . S
C1256 C1257 1.385 . S
C1257 H1243 0.931 . S
C1257 C1256 1.385 . S
C1257 C1258 1.389 . S
C1258 C1257 1.389 . S
C1258 C1259 1.387 . S
C1259 H1244 0.930 . S
C1259 C1254 1.390 . S
C1259 C1258 1.387 . S
H1260 C1272 0.930 . S
H1261 C1274 0.930 . S
H1262 C1275 0.930 . S
H1263 C1279 0.959 . S
H1264 C1279 0.959 . S
H1265 C1279 0.961 . S
H1266 C1280 0.960 . S
H1267 C1280 0.961 . S
H1268 C1280 0.959 . S
H1269 C1283 0.929 . S
H1270 C1284 0.931 . S
H1271 C1286 0.930 . S
C1272 H1260 0.930 . S
C1272 C1273 1.399 . S
C1272 C1277 1.399 . S
C1273 C1272 1.399 . S
C1273 C1274 1.376 . S
C1274 H1261 0.930 . S
C1274 C1273 1.376 . S
C1274 C1275 1.388 . S
C1275 H1262 0.930 . S
C1275 C1274 1.388 . S
C1275 C1276 1.390 . S
C1276 C1275 1.390 . S
C1276 C1277 1.394 . S
C1276 C1282 1.465 . S
C1277 C1272 1.399 . S
C1277 C1276 1.394 . S
C1277 C1278 1.516 . S
C1278 C1277 1.516 . S
C1278 C1279 1.502 . S
C1278 C1280 1.561 . S
C1278 C1281 1.526 . S
C1279 H1263 0.959 . S
C1279 H1264 0.959 . S
C1279 H1265 0.961 . S
C1279 C1278 1.502 . S
C1280 H1266 0.960 . S
C1280 H1267 0.961 . S
C1280 H1268 0.959 . S
C1280 C1278 1.561 . S
C1281 C1278 1.526 . S
C1281 C1282 1.396 . S
C1281 C1286 1.390 . S
C1282 C1276 1.465 . S
C1282 C1281 1.396 . S
C1282 C1283 1.399 . S
C1283 H1269 0.929 . S
C1283 C1282 1.399 . S
C1283 C1284 1.385 . S
C1284 H1270 0.931 . S
C1284 C1283 1.385 . S
C1284 C1285 1.389 . S
C1285 C1284 1.389 . S
C1285 C1286 1.387 . S
C1286 H1271 0.930 . S
C1286 C1281 1.390 . S
C1286 C1285 1.387 . S
H1287 C1299 0.930 . S
H1288 C1301 0.930 . S
H1289 C1302 0.930 . S
H1290 C1306 0.959 . S
H1291 C1306 0.959 1_545 S
H1292 C1306 0.961 . S
H1293 C1307 0.960 1_565 S
H1294 C1307 0.961 . S
H1295 C1307 0.959 . S
H1296 C1310 0.929 . S
H1297 C1311 0.931 . S
H1298 C1313 0.930 . S
C1299 H1287 0.930 . S
C1299 C1300 1.399 . S
C1299 C1304 1.399 . S
C1300 C1299 1.399 . S
C1300 C1301 1.376 . S
C1301 H1288 0.930 . S
C1301 C1300 1.376 . S
C1301 C1302 1.388 . S
C1302 H1289 0.930 . S
C1302 C1301 1.388 . S
C1302 C1303 1.390 . S
C1303 C1302 1.390 . S
C1303 C1304 1.394 . S
C1303 C1309 1.465 1_565 S
C1304 C1299 1.399 . S
C1304 C1303 1.394 . S
C1304 C1305 1.516 . S
C1305 C1304 1.516 . S
C1305 C1306 1.502 . S
C1305 C1307 1.561 1_565 S
C1305 C1308 1.526 1_565 S
C1306 H1290 0.959 . S
C1306 H1291 0.959 1_565 S
C1306 H1292 0.961 . S
C1306 C1305 1.502 . S
C1307 H1293 0.960 1_545 S
C1307 H1294 0.961 . S
C1307 H1295 0.959 . S
C1307 C1305 1.561 1_545 S
C1308 C1305 1.526 1_545 S
C1308 C1309 1.396 . S
C1308 C1313 1.390 . S
C1309 C1303 1.465 1_545 S
C1309 C1308 1.396 . S
C1309 C1310 1.399 . S
C1310 H1296 0.929 . S
C1310 C1309 1.399 . S
C1310 C1311 1.385 . S
C1311 H1297 0.931 . S
C1311 C1310 1.385 . S
C1311 C1312 1.389 . S
C1312 C1311 1.389 . S
C1312 C1313 1.387 . S
C1313 H1298 0.930 . S
C1313 C1308 1.390 . S
C1313 C1312 1.387 . S
H1314 C1326 0.930 . S
H1315 C1328 0.930 . S
H1316 C1329 0.931 . S
H1317 C1333 0.959 . S
H1318 C1333 0.959 . S
H1319 C1333 0.961 . S
H1320 C1334 0.960 . S
H1321 C1334 0.961 . S
H1322 C1334 0.959 1_655 S
H1323 C1337 0.929 . S
H1324 C1338 0.931 . S
H1325 C1340 0.930 . S
C1326 H1314 0.930 . S
C1326 C1327 1.399 . S
C1326 C1331 1.399 . S
C1327 C1326 1.399 . S
C1327 C1328 1.376 . S
C1328 H1315 0.930 . S
C1328 C1327 1.376 . S
C1328 C1329 1.388 . S
C1329 H1316 0.931 . S
C1329 C1328 1.388 . S
C1329 C1330 1.390 . S
C1330 C1329 1.390 . S
C1330 C1331 1.394 . S
C1330 C1336 1.465 1_455 S
C1331 C1326 1.399 . S
C1331 C1330 1.394 . S
C1331 C1332 1.516 . S
C1332 C1331 1.516 . S
C1332 C1333 1.502 . S
C1332 C1334 1.561 . S
C1332 C1335 1.526 1_455 S
C1333 H1317 0.959 . S
C1333 H1318 0.959 . S
C1333 H1319 0.961 . S
C1333 C1332 1.502 . S
C1334 H1320 0.960 . S
C1334 H1321 0.961 . S
C1334 H1322 0.959 1_455 S
C1334 C1332 1.561 . S
C1335 C1332 1.526 1_655 S
C1335 C1336 1.396 . S
C1335 C1340 1.390 . S
C1336 C1330 1.465 1_655 S
C1336 C1335 1.396 . S
C1336 C1337 1.399 . S
C1337 H1323 0.929 . S
C1337 C1336 1.399 . S
C1337 C1338 1.385 . S
C1338 H1324 0.931 . S
C1338 C1337 1.385 . S
C1338 C1339 1.389 . S
C1339 C1338 1.389 . S
C1339 C1340 1.387 . S
C1340 H1325 0.930 . S
C1340 C1335 1.390 . S
C1340 C1339 1.387 . S
H1341 C1353 0.930 . S
H1342 C1355 0.930 . S
H1343 C1356 0.930 . S
H1344 C1360 0.959 . S
H1345 C1360 0.959 . S
H1346 C1360 0.961 . S
H1347 C1361 0.960 . S
H1348 C1361 0.961 . S
H1349 C1361 0.959 . S
H1350 C1364 0.929 . S
H1351 C1365 0.931 . S
H1352 C1367 0.930 . S
C1353 H1341 0.930 . S
C1353 C1354 1.399 . S
C1353 C1358 1.399 . S
C1354 C1353 1.399 . S
C1354 C1355 1.376 . S
C1355 H1342 0.930 . S
C1355 C1354 1.376 . S
C1355 C1356 1.388 . S
C1356 H1343 0.930 . S
C1356 C1355 1.388 . S
C1356 C1357 1.390 . S
C1357 C1356 1.390 . S
C1357 C1358 1.394 . S
C1357 C1363 1.465 . S
C1358 C1353 1.399 . S
C1358 C1357 1.394 . S
C1358 C1359 1.516 . S
C1359 C1358 1.516 . S
C1359 C1360 1.502 . S
C1359 C1361 1.561 . S
C1359 C1362 1.526 . S
C1360 H1344 0.959 . S
C1360 H1345 0.959 . S
C1360 H1346 0.961 . S
C1360 C1359 1.502 . S
C1361 H1347 0.960 . S
C1361 H1348 0.961 . S
C1361 H1349 0.959 . S
C1361 C1359 1.561 . S
C1362 C1359 1.526 . S
C1362 C1363 1.396 . S
C1362 C1367 1.390 . S
C1363 C1357 1.465 . S
C1363 C1362 1.396 . S
C1363 C1364 1.399 . S
C1364 H1350 0.929 . S
C1364 C1363 1.399 . S
C1364 C1365 1.385 . S
C1365 H1351 0.931 . S
C1365 C1364 1.385 . S
C1365 C1366 1.389 . S
C1366 C1365 1.389 . S
C1366 C1367 1.387 . S
C1367 H1352 0.930 . S
C1367 C1362 1.390 . S
C1367 C1366 1.387 . S
H1368 C1380 0.930 . S
H1369 C1382 0.930 . S
H1370 C1383 0.930 . S
H1371 C1387 0.959 . S
H1372 C1387 0.959 . S
H1373 C1387 0.961 . S
H1374 C1388 0.960 . S
H1375 C1388 0.961 . S
H1376 C1388 0.959 . S
H1377 C1391 0.929 . S
H1378 C1392 0.931 . S
H1379 C1394 0.930 . S
C1380 H1368 0.930 . S
C1380 C1381 1.399 . S
C1380 C1385 1.399 1_455 S
C1381 C1380 1.399 . S
C1381 C1382 1.376 . S
C1382 H1369 0.930 . S
C1382 C1381 1.376 . S
C1382 C1383 1.388 1_455 S
C1383 H1370 0.930 . S
C1383 C1382 1.388 1_655 S
C1383 C1384 1.390 . S
C1384 C1383 1.390 . S
C1384 C1385 1.394 . S
C1384 C1390 1.465 . S
C1385 C1380 1.399 1_655 S
C1385 C1384 1.394 . S
C1385 C1386 1.516 . S
C1386 C1385 1.516 . S
C1386 C1387 1.502 . S
C1386 C1388 1.561 . S
C1386 C1389 1.526 . S
C1387 H1371 0.959 . S
C1387 H1372 0.959 . S
C1387 H1373 0.961 . S
C1387 C1386 1.502 . S
C1388 H1374 0.960 . S
C1388 H1375 0.961 . S
C1388 H1376 0.959 . S
C1388 C1386 1.561 . S
C1389 C1386 1.526 . S
C1389 C1390 1.396 . S
C1389 C1394 1.390 . S
C1390 C1384 1.465 . S
C1390 C1389 1.396 . S
C1390 C1391 1.399 . S
C1391 H1377 0.929 . S
C1391 C1390 1.399 . S
C1391 C1392 1.385 . S
C1392 H1378 0.931 . S
C1392 C1391 1.385 . S
C1392 C1393 1.389 . S
C1393 C1392 1.389 . S
C1393 C1394 1.387 . S
C1394 H1379 0.930 . S
C1394 C1389 1.390 . S
C1394 C1393 1.387 . S
H1395 C1407 0.930 . S
H1396 C1409 0.930 . S
H1397 C1410 0.930 . S
H1398 C1414 0.959 . S
H1399 C1414 0.959 . S
H1400 C1414 0.961 . S
H1401 C1415 0.960 . S
H1402 C1415 0.961 . S
H1403 C1415 0.959 . S
H1404 C1418 0.929 . S
H1405 C1419 0.931 . S
H1406 C1421 0.930 . S
C1407 H1395 0.930 . S
C1407 C1408 1.399 . S
C1407 C1412 1.399 . S
C1408 C1407 1.399 . S
C1408 C1409 1.376 . S
C1409 H1396 0.930 . S
C1409 C1408 1.376 . S
C1409 C1410 1.388 . S
C1410 H1397 0.930 . S
C1410 C1409 1.388 . S
C1410 C1411 1.390 . S
C1411 C1410 1.390 . S
C1411 C1412 1.394 . S
C1411 C1417 1.465 . S
C1412 C1407 1.399 . S
C1412 C1411 1.394 . S
C1412 C1413 1.516 . S
C1413 C1412 1.516 . S
C1413 C1414 1.502 . S
C1413 C1415 1.561 . S
C1413 C1416 1.526 . S
C1414 H1398 0.959 . S
C1414 H1399 0.959 . S
C1414 H1400 0.961 . S
C1414 C1413 1.502 . S
C1415 H1401 0.960 . S
C1415 H1402 0.961 . S
C1415 H1403 0.959 . S
C1415 C1413 1.561 . S
C1416 C1413 1.526 . S
C1416 C1417 1.396 . S
C1416 C1421 1.390 . S
C1417 C1411 1.465 . S
C1417 C1416 1.396 . S
C1417 C1418 1.399 . S
C1418 H1404 0.929 . S
C1418 C1417 1.399 . S
C1418 C1419 1.385 . S
C1419 H1405 0.931 . S
C1419 C1418 1.385 . S
C1419 C1420 1.389 . S
C1420 C1419 1.389 . S
C1420 C1421 1.387 . S
C1421 H1406 0.930 . S
C1421 C1416 1.390 . S
C1421 C1420 1.387 . S
H1422 C1434 0.930 . S
H1423 C1436 0.930 . S
H1424 C1437 0.930 . S
H1425 C1441 0.959 . S
H1426 C1441 0.959 . S
H1427 C1441 0.961 . S
H1428 C1442 0.960 . S
H1429 C1442 0.961 . S
H1430 C1442 0.959 . S
H1431 C1445 0.929 . S
H1432 C1446 0.931 . S
H1433 C1448 0.930 . S
C1434 H1422 0.930 . S
C1434 C1435 1.399 . S
C1434 C1439 1.399 1_565 S
C1435 C1434 1.399 . S
C1435 C1436 1.376 . S
C1436 H1423 0.930 . S
C1436 C1435 1.376 . S
C1436 C1437 1.388 1_565 S
C1437 H1424 0.930 . S
C1437 C1436 1.388 1_545 S
C1437 C1438 1.390 . S
C1438 C1437 1.390 . S
C1438 C1439 1.394 . S
C1438 C1444 1.465 . S
C1439 C1434 1.399 1_545 S
C1439 C1438 1.394 . S
C1439 C1440 1.516 . S
C1440 C1439 1.516 . S
C1440 C1441 1.502 . S
C1440 C1442 1.561 . S
C1440 C1443 1.526 . S
C1441 H1425 0.959 . S
C1441 H1426 0.959 . S
C1441 H1427 0.961 . S
C1441 C1440 1.502 . S
C1442 H1428 0.960 . S
C1442 H1429 0.961 . S
C1442 H1430 0.959 . S
C1442 C1440 1.561 . S
C1443 C1440 1.526 . S
C1443 C1444 1.396 . S
C1443 C1448 1.390 . S
C1444 C1438 1.465 . S
C1444 C1443 1.396 . S
C1444 C1445 1.399 . S
C1445 H1431 0.929 . S
C1445 C1444 1.399 . S
C1445 C1446 1.385 . S
C1446 H1432 0.931 . S
C1446 C1445 1.385 . S
C1446 C1447 1.389 . S
C1447 C1446 1.389 . S
C1447 C1448 1.387 . S
C1448 H1433 0.930 . S
C1448 C1443 1.390 . S
C1448 C1447 1.387 . S
H1449 C1461 0.930 . S
H1450 C1463 0.930 . S
H1451 C1464 0.930 . S
H1452 C1468 0.959 . S
H1453 C1468 0.959 . S
H1454 C1468 0.961 . S
H1455 C1469 0.960 . S
H1456 C1469 0.961 . S
H1457 C1469 0.959 . S
H1458 C1472 0.929 . S
H1459 C1473 0.931 . S
H1460 C1475 0.930 . S
C1461 H1449 0.930 . S
C1461 C1462 1.399 . S
C1461 C1466 1.399 . S
C1462 C1461 1.399 . S
C1462 C1463 1.376 . S
C1463 H1450 0.930 . S
C1463 C1462 1.376 . S
C1463 C1464 1.388 . S
C1464 H1451 0.930 . S
C1464 C1463 1.388 . S
C1464 C1465 1.390 . S
C1465 C1464 1.390 . S
C1465 C1466 1.394 . S
C1465 C1471 1.465 . S
C1466 C1461 1.399 . S
C1466 C1465 1.394 . S
C1466 C1467 1.516 . S
C1467 C1466 1.516 . S
C1467 C1468 1.502 . S
C1467 C1469 1.561 . S
C1467 C1470 1.526 . S
C1468 H1452 0.959 . S
C1468 H1453 0.959 . S
C1468 H1454 0.961 . S
C1468 C1467 1.502 . S
C1469 H1455 0.960 . S
C1469 H1456 0.961 . S
C1469 H1457 0.959 . S
C1469 C1467 1.561 . S
C1470 C1467 1.526 . S
C1470 C1471 1.396 . S
C1470 C1475 1.390 . S
C1471 C1465 1.465 . S
C1471 C1470 1.396 . S
C1471 C1472 1.399 . S
C1472 H1458 0.929 . S
C1472 C1471 1.399 . S
C1472 C1473 1.385 . S
C1473 H1459 0.931 . S
C1473 C1472 1.385 . S
C1473 C1474 1.389 . S
C1474 C1473 1.389 . S
C1474 C1475 1.387 . S
C1475 H1460 0.930 . S
C1475 C1470 1.390 . S
C1475 C1474 1.387 . S
H1476 C1488 0.930 . S
H1477 C1490 0.930 . S
H1478 C1491 0.930 . S
H1479 C1495 0.959 . S
H1480 C1495 0.959 . S
H1481 C1495 0.961 . S
H1482 C1496 0.960 . S
H1483 C1496 0.961 . S
H1484 C1496 0.959 . S
H1485 C1499 0.929 . S
H1486 C1500 0.931 . S
H1487 C1502 0.930 . S
C1488 H1476 0.930 . S
C1488 C1489 1.399 . S
C1488 C1493 1.399 . S
C1489 C1488 1.399 . S
C1489 C1490 1.376 . S
C1490 H1477 0.930 . S
C1490 C1489 1.376 . S
C1490 C1491 1.388 . S
C1491 H1478 0.930 . S
C1491 C1490 1.388 . S
C1491 C1492 1.390 . S
C1492 C1491 1.390 . S
C1492 C1493 1.394 . S
C1492 C1498 1.465 . S
C1493 C1488 1.399 . S
C1493 C1492 1.394 . S
C1493 C1494 1.516 . S
C1494 C1493 1.516 . S
C1494 C1495 1.502 . S
C1494 C1496 1.561 . S
C1494 C1497 1.526 . S
C1495 H1479 0.959 . S
C1495 H1480 0.959 . S
C1495 H1481 0.961 . S
C1495 C1494 1.502 . S
C1496 H1482 0.960 . S
C1496 H1483 0.961 . S
C1496 H1484 0.959 . S
C1496 C1494 1.561 . S
C1497 C1494 1.526 . S
C1497 C1498 1.396 . S
C1497 C1502 1.390 . S
C1498 C1492 1.465 . S
C1498 C1497 1.396 . S
C1498 C1499 1.399 . S
C1499 H1485 0.929 . S
C1499 C1498 1.399 . S
C1499 C1500 1.385 . S
C1500 H1486 0.931 . S
C1500 C1499 1.385 . S
C1500 C1501 1.389 . S
C1501 C1500 1.389 . S
C1501 C1502 1.387 . S
C1502 H1487 0.930 . S
C1502 C1497 1.390 . S
C1502 C1501 1.387 . S
H1503 C1515 0.930 . S
H1504 C1517 0.930 . S
H1505 C1518 0.930 . S
H1506 C1522 0.959 . S
H1507 C1522 0.959 . S
H1508 C1522 0.961 . S
H1509 C1523 0.960 . S
H1510 C1523 0.961 . S
H1511 C1523 0.959 . S
H1512 C1526 0.929 . S
H1513 C1527 0.931 . S
H1514 C1529 0.930 . S
C1515 H1503 0.930 . S
C1515 C1516 1.399 . S
C1515 C1520 1.399 . S
C1516 C1515 1.399 . S
C1516 C1517 1.376 . S
C1517 H1504 0.930 . S
C1517 C1516 1.376 . S
C1517 C1518 1.388 . S
C1518 H1505 0.930 . S
C1518 C1517 1.388 . S
C1518 C1519 1.390 . S
C1519 C1518 1.390 . S
C1519 C1520 1.394 . S
C1519 C1525 1.465 . S
C1520 C1515 1.399 . S
C1520 C1519 1.394 . S
C1520 C1521 1.516 . S
C1521 C1520 1.516 . S
C1521 C1522 1.502 . S
C1521 C1523 1.561 . S
C1521 C1524 1.526 . S
C1522 H1506 0.959 . S
C1522 H1507 0.959 . S
C1522 H1508 0.961 . S
C1522 C1521 1.502 . S
C1523 H1509 0.960 . S
C1523 H1510 0.961 . S
C1523 H1511 0.959 . S
C1523 C1521 1.561 . S
C1524 C1521 1.526 . S
C1524 C1525 1.396 . S
C1524 C1529 1.390 . S
C1525 C1519 1.465 . S
C1525 C1524 1.396 . S
C1525 C1526 1.399 . S
C1526 H1512 0.929 . S
C1526 C1525 1.399 . S
C1526 C1527 1.385 . S
C1527 H1513 0.931 . S
C1527 C1526 1.385 . S
C1527 C1528 1.389 . S
C1528 C1527 1.389 . S
C1528 C1529 1.387 . S
C1529 H1514 0.930 . S
C1529 C1524 1.390 . S
C1529 C1528 1.387 . S
H1530 C1542 0.930 . S
H1531 C1544 0.930 . S
H1532 C1545 0.930 . S
H1533 C1549 0.959 . S
H1534 C1549 0.959 . S
H1535 C1549 0.961 . S
H1536 C1550 0.960 . S
H1537 C1550 0.961 . S
H1538 C1550 0.959 . S
H1539 C1553 0.929 1_545 S
H1540 C1554 0.931 1_545 S
H1541 C1556 0.930 . S
C1542 H1530 0.930 . S
C1542 C1543 1.399 . S
C1542 C1547 1.399 . S
C1543 C1542 1.399 . S
C1543 C1544 1.376 . S
C1544 H1531 0.930 . S
C1544 C1543 1.376 . S
C1544 C1545 1.388 . S
C1545 H1532 0.930 . S
C1545 C1544 1.388 . S
C1545 C1546 1.390 . S
C1546 C1545 1.390 . S
C1546 C1547 1.394 . S
C1546 C1552 1.465 . S
C1547 C1542 1.399 . S
C1547 C1546 1.394 . S
C1547 C1548 1.516 . S
C1548 C1547 1.516 . S
C1548 C1549 1.502 . S
C1548 C1550 1.561 . S
C1548 C1551 1.526 . S
C1549 H1533 0.959 . S
C1549 H1534 0.959 . S
C1549 H1535 0.961 . S
C1549 C1548 1.502 . S
C1550 H1536 0.960 . S
C1550 H1537 0.961 . S
C1550 H1538 0.959 . S
C1550 C1548 1.561 . S
C1551 C1548 1.526 . S
C1551 C1552 1.396 . S
C1551 C1556 1.390 . S
C1552 C1546 1.465 . S
C1552 C1551 1.396 . S
C1552 C1553 1.399 . S
C1553 H1539 0.929 1_565 S
C1553 C1552 1.399 . S
C1553 C1554 1.385 . S
C1554 H1540 0.931 1_565 S
C1554 C1553 1.385 . S
C1554 C1555 1.389 . S
C1555 C1554 1.389 . S
C1555 C1556 1.387 . S
C1556 H1541 0.930 . S
C1556 C1551 1.390 . S
C1556 C1555 1.387 . S
H1557 C1569 0.930 . S
H1558 C1571 0.930 . S
H1559 C1572 0.930 . S
H1560 C1576 0.959 . S
H1561 C1576 0.959 . S
H1562 C1576 0.961 . S
H1563 C1577 0.960 . S
H1564 C1577 0.961 . S
H1565 C1577 0.959 1_655 S
H1566 C1580 0.929 . S
H1567 C1581 0.931 . S
H1568 C1583 0.930 . S
C1569 H1557 0.930 . S
C1569 C1570 1.399 . S
C1569 C1574 1.399 . S
C1570 C1569 1.399 . S
C1570 C1571 1.376 . S
C1571 H1558 0.930 . S
C1571 C1570 1.376 . S
C1571 C1572 1.388 . S
C1572 H1559 0.930 . S
C1572 C1571 1.388 . S
C1572 C1573 1.390 . S
C1573 C1572 1.390 . S
C1573 C1574 1.394 . S
C1573 C1579 1.465 . S
C1574 C1569 1.399 . S
C1574 C1573 1.394 . S
C1574 C1575 1.516 . S
C1575 C1574 1.516 . S
C1575 C1576 1.502 . S
C1575 C1577 1.561 . S
C1575 C1578 1.526 . S
C1576 H1560 0.959 . S
C1576 H1561 0.959 . S
C1576 H1562 0.961 . S
C1576 C1575 1.502 . S
C1577 H1563 0.960 . S
C1577 H1564 0.961 . S
C1577 H1565 0.959 1_455 S
C1577 C1575 1.561 . S
C1578 C1575 1.526 . S
C1578 C1579 1.396 . S
C1578 C1583 1.390 . S
C1579 C1573 1.465 . S
C1579 C1578 1.396 . S
C1579 C1580 1.399 . S
C1580 H1566 0.929 . S
C1580 C1579 1.399 . S
C1580 C1581 1.385 . S
C1581 H1567 0.931 . S
C1581 C1580 1.385 . S
C1581 C1582 1.389 . S
C1582 C1581 1.389 . S
C1582 C1583 1.387 . S
C1583 H1568 0.930 . S
C1583 C1578 1.390 . S
C1583 C1582 1.387 . S
H1584 C1596 0.930 . S
H1585 C1598 0.930 . S
H1586 C1599 0.930 . S
H1587 C1603 0.959 . S
H1588 C1603 0.959 . S
H1589 C1603 0.961 . S
H1590 C1604 0.960 . S
H1591 C1604 0.961 . S
H1592 C1604 0.959 . S
H1593 C1607 0.929 . S
H1594 C1608 0.931 . S
H1595 C1610 0.930 . S
C1596 H1584 0.930 . S
C1596 C1597 1.399 . S
C1596 C1601 1.399 . S
C1597 C1596 1.399 . S
C1597 C1598 1.376 . S
C1598 H1585 0.930 . S
C1598 C1597 1.376 . S
C1598 C1599 1.388 . S
C1599 H1586 0.930 . S
C1599 C1598 1.388 . S
C1599 C1600 1.390 . S
C1600 C1599 1.390 . S
C1600 C1601 1.394 . S
C1600 C1606 1.465 . S
C1601 C1596 1.399 . S
C1601 C1600 1.394 . S
C1601 C1602 1.516 . S
C1602 C1601 1.516 . S
C1602 C1603 1.502 . S
C1602 C1604 1.561 . S
C1602 C1605 1.526 . S
C1603 H1587 0.959 . S
C1603 H1588 0.959 . S
C1603 H1589 0.961 . S
C1603 C1602 1.502 . S
C1604 H1590 0.960 . S
C1604 H1591 0.961 . S
C1604 H1592 0.959 . S
C1604 C1602 1.561 . S
C1605 C1602 1.526 . S
C1605 C1606 1.396 . S
C1605 C1610 1.390 . S
C1606 C1600 1.465 . S
C1606 C1605 1.396 . S
C1606 C1607 1.399 . S
C1607 H1593 0.929 . S
C1607 C1606 1.399 . S
C1607 C1608 1.385 . S
C1608 H1594 0.931 . S
C1608 C1607 1.385 . S
C1608 C1609 1.389 . S
C1609 C1608 1.389 . S
C1609 C1610 1.387 . S
C1610 H1595 0.930 . S
C1610 C1605 1.390 . S
C1610 C1609 1.387 . S
H1611 C1623 0.930 . S
H1612 C1625 0.930 . S
H1613 C1626 0.930 1_455 S
H1614 C1630 0.959 . S
H1615 C1630 0.959 . S
H1616 C1630 0.961 . S
H1617 C1631 0.960 . S
H1618 C1631 0.961 . S
H1619 C1631 0.959 . S
H1620 C1634 0.929 1_455 S
H1621 C1635 0.944 . S
H1622 C1637 0.930 . S
C1623 H1611 0.930 . S
C1623 C1624 1.399 . S
C1623 C1628 1.399 . S
C1624 C1623 1.399 . S
C1624 C1625 1.376 . S
C1625 H1612 0.930 . S
C1625 C1624 1.376 . S
C1625 C1626 1.388 . S
C1626 H1613 0.930 1_655 S
C1626 C1625 1.388 . S
C1626 C1627 1.390 . S
C1627 C1626 1.390 . S
C1627 C1628 1.394 . S
C1627 C1633 1.465 . S
C1628 C1623 1.399 . S
C1628 C1627 1.394 . S
C1628 C1629 1.516 . S
C1629 C1628 1.516 . S
C1629 C1630 1.502 . S
C1629 C1631 1.561 . S
C1629 C1632 1.526 . S
C1630 H1614 0.959 . S
C1630 H1615 0.959 . S
C1630 H1616 0.961 . S
C1630 C1629 1.502 . S
C1631 H1617 0.960 . S
C1631 H1618 0.961 . S
C1631 H1619 0.959 . S
C1631 C1629 1.561 . S
C1632 C1629 1.526 . S
C1632 C1633 1.396 . S
C1632 C1637 1.390 . S
C1633 C1627 1.465 . S
C1633 C1632 1.396 . S
C1633 C1634 1.399 . S
C1634 H1620 0.929 1_655 S
C1634 C1633 1.399 . S
C1634 C1635 1.385 . S
C1635 H1621 0.944 . S
C1635 C1634 1.385 . S
C1635 C1636 1.389 . S
C1636 C1635 1.389 . S
C1636 C1637 1.387 . S
C1637 H1622 0.930 . S
C1637 C1632 1.390 . S
C1637 C1636 1.387 . S
H1638 C1650 0.930 . S
H1639 C1652 0.930 . S
H1640 C1653 0.930 . S
H1641 C1657 0.959 . S
H1642 C1657 0.959 . S
H1643 C1657 0.961 . S
H1644 C1658 0.960 . S
H1645 C1658 0.961 . S
H1646 C1658 0.959 . S
H1647 C1661 0.929 . S
H1648 C1662 0.931 . S
H1649 C1664 0.930 . S
C1650 H1638 0.930 . S
C1650 C1651 1.399 . S
C1650 C1655 1.399 . S
C1651 C1650 1.399 . S
C1651 C1652 1.376 . S
C1652 H1639 0.930 . S
C1652 C1651 1.376 . S
C1652 C1653 1.388 . S
C1653 H1640 0.930 . S
C1653 C1652 1.388 . S
C1653 C1654 1.390 . S
C1654 C1653 1.390 . S
C1654 C1655 1.394 . S
C1654 C1660 1.465 . S
C1655 C1650 1.399 . S
C1655 C1654 1.394 . S
C1655 C1656 1.516 . S
C1656 C1655 1.516 . S
C1656 C1657 1.502 . S
C1656 C1658 1.561 . S
C1656 C1659 1.526 . S
C1657 H1641 0.959 . S
C1657 H1642 0.959 . S
C1657 H1643 0.961 . S
C1657 C1656 1.502 . S
C1658 H1644 0.960 . S
C1658 H1645 0.961 . S
C1658 H1646 0.959 . S
C1658 C1656 1.561 . S
C1659 C1656 1.526 . S
C1659 C1660 1.396 . S
C1659 C1664 1.390 . S
C1660 C1654 1.465 . S
C1660 C1659 1.396 . S
C1660 C1661 1.399 . S
C1661 H1647 0.929 . S
C1661 C1660 1.399 . S
C1661 C1662 1.385 . S
C1662 H1648 0.931 . S
C1662 C1661 1.385 . S
C1662 C1663 1.389 . S
C1663 C1662 1.389 . S
C1663 C1664 1.387 . S
C1664 H1649 0.930 . S
C1664 C1659 1.390 . S
C1664 C1663 1.387 . S
H1665 C1677 0.930 . S
H1666 C1679 0.930 . S
H1667 C1680 0.930 . S
H1668 C1684 0.959 . S
H1669 C1684 0.959 1_565 S
H1670 C1684 0.961 . S
H1671 C1685 0.960 . S
H1672 C1685 0.961 1_565 S
H1673 C1685 0.959 . S
H1674 C1688 0.929 . S
H1675 C1689 0.931 . S
H1676 C1691 0.930 . S
C1677 H1665 0.930 . S
C1677 C1678 1.399 . S
C1677 C1682 1.399 . S
C1678 C1677 1.399 . S
C1678 C1679 1.376 . S
C1679 H1666 0.930 . S
C1679 C1678 1.376 . S
C1679 C1680 1.388 . S
C1680 H1667 0.930 . S
C1680 C1679 1.388 . S
C1680 C1681 1.390 . S
C1681 C1680 1.390 . S
C1681 C1682 1.394 . S
C1681 C1687 1.465 . S
C1682 C1677 1.399 . S
C1682 C1681 1.394 . S
C1682 C1683 1.516 . S
C1683 C1682 1.516 . S
C1683 C1684 1.502 . S
C1683 C1685 1.561 . S
C1683 C1686 1.526 . S
C1684 H1668 0.959 . S
C1684 H1669 0.959 1_545 S
C1684 H1670 0.961 . S
C1684 C1683 1.502 . S
C1685 H1671 0.960 . S
C1685 H1672 0.961 1_545 S
C1685 H1673 0.959 . S
C1685 C1683 1.561 . S
C1686 C1683 1.526 . S
C1686 C1687 1.396 . S
C1686 C1691 1.390 . S
C1687 C1681 1.465 . S
C1687 C1686 1.396 . S
C1687 C1688 1.399 . S
C1688 H1674 0.929 . S
C1688 C1687 1.399 . S
C1688 C1689 1.385 . S
C1689 H1675 0.931 . S
C1689 C1688 1.385 . S
C1689 C1690 1.389 . S
C1690 C1689 1.389 . S
C1690 C1691 1.387 . S
C1691 H1676 0.930 . S
C1691 C1686 1.390 . S
C1691 C1690 1.387 . S
H1692 C1704 0.930 . S
H1693 C1706 0.930 . S
H1694 C1707 0.930 . S
H1695 C1711 0.959 . S
H1696 C1711 0.959 . S
H1697 C1711 0.961 . S
H1698 C1712 0.960 . S
H1699 C1712 0.961 . S
H1700 C1712 0.959 . S
H1701 C1715 0.929 . S
H1702 C1716 0.931 . S
H1703 C1718 0.930 . S
C1704 H1692 0.930 . S
C1704 C1705 1.399 . S
C1704 C1709 1.399 . S
C1705 C1704 1.399 . S
C1705 C1706 1.376 . S
C1706 H1693 0.930 . S
C1706 C1705 1.376 . S
C1706 C1707 1.388 . S
C1707 H1694 0.930 . S
C1707 C1706 1.388 . S
C1707 C1708 1.390 . S
C1708 C1707 1.390 . S
C1708 C1709 1.394 . S
C1708 C1714 1.465 . S
C1709 C1704 1.399 . S
C1709 C1708 1.394 . S
C1709 C1710 1.516 . S
C1710 C1709 1.516 . S
C1710 C1711 1.502 . S
C1710 C1712 1.561 . S
C1710 C1713 1.526 . S
C1711 H1695 0.959 . S
C1711 H1696 0.959 . S
C1711 H1697 0.961 . S
C1711 C1710 1.502 . S
C1712 H1698 0.960 . S
C1712 H1699 0.961 . S
C1712 H1700 0.959 . S
C1712 C1710 1.561 . S
C1713 C1710 1.526 . S
C1713 C1714 1.396 . S
C1713 C1718 1.390 . S
C1714 C1708 1.465 . S
C1714 C1713 1.396 . S
C1714 C1715 1.399 . S
C1715 H1701 0.929 . S
C1715 C1714 1.399 . S
C1715 C1716 1.385 . S
C1716 H1702 0.931 . S
C1716 C1715 1.385 . S
C1716 C1717 1.389 . S
C1717 C1716 1.389 . S
C1717 C1718 1.387 . S
C1718 H1703 0.930 . S
C1718 C1713 1.390 . S
C1718 C1717 1.387 . S
H1719 C1731 0.930 . S
H1720 C1733 0.930 . S
H1721 C1734 0.930 . S
H1722 C1738 0.959 . S
H1723 C1738 0.959 . S
H1724 C1738 0.961 . S
H1725 C1739 0.960 . S
H1726 C1739 0.961 . S
H1727 C1739 0.959 . S
H1728 C1742 0.929 . S
H1729 C1743 0.931 . S
H1730 C1745 0.930 . S
C1731 H1719 0.930 . S
C1731 C1732 1.399 . S
C1731 C1736 1.399 . S
C1732 C1731 1.399 . S
C1732 C1733 1.376 . S
C1733 H1720 0.930 . S
C1733 C1732 1.376 . S
C1733 C1734 1.388 . S
C1734 H1721 0.930 . S
C1734 C1733 1.388 . S
C1734 C1735 1.390 . S
C1735 C1734 1.390 . S
C1735 C1736 1.394 . S
C1735 C1741 1.465 . S
C1736 C1731 1.399 . S
C1736 C1735 1.394 . S
C1736 C1737 1.516 . S
C1737 C1736 1.516 . S
C1737 C1738 1.502 . S
C1737 C1739 1.561 . S
C1737 C1740 1.526 . S
C1738 H1722 0.959 . S
C1738 H1723 0.959 . S
C1738 H1724 0.961 . S
C1738 C1737 1.502 . S
C1739 H1725 0.960 . S
C1739 H1726 0.961 . S
C1739 H1727 0.959 . S
C1739 C1737 1.561 . S
C1740 C1737 1.526 . S
C1740 C1741 1.396 . S
C1740 C1745 1.390 . S
C1741 C1735 1.465 . S
C1741 C1740 1.396 . S
C1741 C1742 1.399 . S
C1742 H1728 0.929 . S
C1742 C1741 1.399 . S
C1742 C1743 1.385 . S
C1743 H1729 0.931 . S
C1743 C1742 1.385 . S
C1743 C1744 1.389 . S
C1744 C1743 1.389 . S
C1744 C1745 1.387 . S
C1745 H1730 0.930 . S
C1745 C1740 1.390 . S
C1745 C1744 1.387 . S
H1746 C1758 0.930 . S
H1747 C1760 0.930 . S
H1748 C1761 0.930 . S
H1749 C1765 0.959 . S
H1750 C1765 0.959 . S
H1751 C1765 0.961 . S
H1752 C1766 0.960 . S
H1753 C1766 0.961 . S
H1754 C1766 0.959 . S
H1755 C1769 0.929 . S
H1756 C1770 0.931 . S
H1757 C1772 0.930 . S
C1758 H1746 0.930 . S
C1758 C1759 1.399 . S
C1758 C1763 1.399 . S
C1759 C1758 1.399 . S
C1759 C1760 1.376 . S
C1760 H1747 0.930 . S
C1760 C1759 1.376 . S
C1760 C1761 1.388 . S
C1761 H1748 0.930 . S
C1761 C1760 1.388 . S
C1761 C1762 1.390 . S
C1762 C1761 1.390 . S
C1762 C1763 1.394 . S
C1762 C1768 1.465 . S
C1763 C1758 1.399 . S
C1763 C1762 1.394 . S
C1763 C1764 1.516 . S
C1764 C1763 1.516 . S
C1764 C1765 1.502 . S
C1764 C1766 1.561 . S
C1764 C1767 1.526 . S
C1765 H1749 0.959 . S
C1765 H1750 0.959 . S
C1765 H1751 0.961 . S
C1765 C1764 1.502 . S
C1766 H1752 0.960 . S
C1766 H1753 0.961 . S
C1766 H1754 0.959 . S
C1766 C1764 1.561 . S
C1767 C1764 1.526 . S
C1767 C1768 1.396 . S
C1767 C1772 1.390 . S
C1768 C1762 1.465 . S
C1768 C1767 1.396 . S
C1768 C1769 1.399 . S
C1769 H1755 0.929 . S
C1769 C1768 1.399 . S
C1769 C1770 1.385 . S
C1770 H1756 0.931 . S
C1770 C1769 1.385 . S
C1770 C1771 1.389 . S
C1771 C1770 1.389 . S
C1771 C1772 1.387 . S
C1772 H1757 0.930 . S
C1772 C1767 1.390 . S
C1772 C1771 1.387 . S
H1773 C1785 0.930 . S
H1774 C1787 0.930 . S
H1775 C1788 0.930 . S
H1776 C1792 0.959 . S
H1777 C1792 0.959 . S
H1778 C1792 0.961 . S
H1779 C1793 0.960 . S
H1780 C1793 0.961 . S
H1781 C1793 0.959 . S
H1782 C1796 0.929 . S
H1783 C1797 0.931 . S
H1784 C1799 0.930 . S
C1785 H1773 0.930 . S
C1785 C1786 1.399 . S
C1785 C1790 1.399 . S
C1786 C1785 1.399 . S
C1786 C1787 1.376 . S
C1787 H1774 0.930 . S
C1787 C1786 1.376 . S
C1787 C1788 1.388 . S
C1788 H1775 0.930 . S
C1788 C1787 1.388 . S
C1788 C1789 1.390 . S
C1789 C1788 1.390 . S
C1789 C1790 1.394 . S
C1789 C1795 1.465 . S
C1790 C1785 1.399 . S
C1790 C1789 1.394 . S
C1790 C1791 1.516 . S
C1791 C1790 1.516 . S
C1791 C1792 1.502 . S
C1791 C1793 1.561 . S
C1791 C1794 1.526 . S
C1792 H1776 0.959 . S
C1792 H1777 0.959 . S
C1792 H1778 0.961 . S
C1792 C1791 1.502 . S
C1793 H1779 0.960 . S
C1793 H1780 0.961 . S
C1793 H1781 0.959 . S
C1793 C1791 1.561 . S
C1794 C1791 1.526 . S
C1794 C1795 1.396 . S
C1794 C1799 1.390 . S
C1795 C1789 1.465 . S
C1795 C1794 1.396 . S
C1795 C1796 1.399 . S
C1796 H1782 0.929 . S
C1796 C1795 1.399 . S
C1796 C1797 1.385 . S
C1797 H1783 0.931 . S
C1797 C1796 1.385 . S
C1797 C1798 1.389 . S
C1798 C1797 1.389 . S
C1798 C1799 1.387 . S
C1799 H1784 0.930 . S
C1799 C1794 1.390 . S
C1799 C1798 1.387 . S
H1800 C1812 0.930 . S
H1801 C1814 0.930 . S
H1802 C1815 0.930 . S
H1803 C1819 0.959 . S
H1804 C1819 0.959 . S
H1805 C1819 0.961 . S
H1806 C1820 0.960 . S
H1807 C1820 0.961 . S
H1808 C1820 0.959 . S
H1809 C1823 0.929 . S
H1810 C1824 0.931 . S
H1811 C1826 0.930 . S
C1812 H1800 0.930 . S
C1812 C1813 1.399 . S
C1812 C1817 1.399 . S
C1813 C1812 1.399 . S
C1813 C1814 1.376 . S
C1814 H1801 0.930 . S
C1814 C1813 1.376 . S
C1814 C1815 1.388 . S
C1815 H1802 0.930 . S
C1815 C1814 1.388 . S
C1815 C1816 1.390 . S
C1816 C1815 1.390 . S
C1816 C1817 1.394 . S
C1816 C1822 1.465 . S
C1817 C1812 1.399 . S
C1817 C1816 1.394 . S
C1817 C1818 1.516 . S
C1818 C1817 1.516 . S
C1818 C1819 1.502 . S
C1818 C1820 1.561 . S
C1818 C1821 1.526 . S
C1819 H1803 0.959 . S
C1819 H1804 0.959 . S
C1819 H1805 0.961 . S
C1819 C1818 1.502 . S
C1820 H1806 0.960 . S
C1820 H1807 0.961 . S
C1820 H1808 0.959 . S
C1820 C1818 1.561 . S
C1821 C1818 1.526 . S
C1821 C1822 1.396 . S
C1821 C1826 1.390 . S
C1822 C1816 1.465 . S
C1822 C1821 1.396 . S
C1822 C1823 1.399 . S
C1823 H1809 0.929 . S
C1823 C1822 1.399 . S
C1823 C1824 1.385 . S
C1824 H1810 0.931 . S
C1824 C1823 1.385 . S
C1824 C1825 1.389 . S
C1825 C1824 1.389 . S
C1825 C1826 1.387 . S
C1826 H1811 0.930 . S
C1826 C1821 1.390 . S
C1826 C1825 1.387 . S
H1827 C1839 0.930 . S
H1828 C1841 0.930 . S
H1829 C1842 0.930 . S
H1830 C1846 0.959 . S
H1831 C1846 0.959 . S
H1832 C1846 0.961 . S
H1833 C1847 0.960 . S
H1834 C1847 0.961 . S
H1835 C1847 0.959 . S
H1836 C1850 0.929 . S
H1837 C1851 0.931 . S
H1838 C1853 0.930 . S
C1839 H1827 0.930 . S
C1839 C1840 1.399 . S
C1839 C1844 1.399 . S
C1840 C1839 1.399 . S
C1840 C1841 1.376 . S
C1841 H1828 0.930 . S
C1841 C1840 1.376 . S
C1841 C1842 1.388 . S
C1842 H1829 0.930 . S
C1842 C1841 1.388 . S
C1842 C1843 1.390 . S
C1843 C1842 1.390 . S
C1843 C1844 1.394 . S
C1843 C1849 1.465 . S
C1844 C1839 1.399 . S
C1844 C1843 1.394 . S
C1844 C1845 1.516 . S
C1845 C1844 1.516 . S
C1845 C1846 1.502 . S
C1845 C1847 1.561 . S
C1845 C1848 1.526 . S
C1846 H1830 0.959 . S
C1846 H1831 0.959 . S
C1846 H1832 0.961 . S
C1846 C1845 1.502 . S
C1847 H1833 0.960 . S
C1847 H1834 0.961 . S
C1847 H1835 0.959 . S
C1847 C1845 1.561 . S
C1848 C1845 1.526 . S
C1848 C1849 1.396 . S
C1848 C1853 1.390 . S
C1849 C1843 1.465 . S
C1849 C1848 1.396 . S
C1849 C1850 1.399 . S
C1850 H1836 0.929 . S
C1850 C1849 1.399 . S
C1850 C1851 1.385 . S
C1851 H1837 0.931 . S
C1851 C1850 1.385 . S
C1851 C1852 1.389 . S
C1852 C1851 1.389 . S
C1852 C1853 1.387 . S
C1853 H1838 0.930 . S
C1853 C1848 1.390 . S
C1853 C1852 1.387 . S
H1854 C1866 0.930 . S
H1855 C1868 0.930 . S
H1856 C1869 0.930 . S
H1857 C1873 0.959 . S
H1858 C1873 0.959 . S
H1859 C1873 0.961 . S
H1860 C1874 0.960 . S
H1861 C1874 0.961 . S
H1862 C1874 0.959 . S
H1863 C1877 0.929 . S
H1864 C1878 0.931 . S
H1865 C1880 0.930 . S
C1866 H1854 0.930 . S
C1866 C1867 1.399 . S
C1866 C1871 1.399 . S
C1867 C1866 1.399 . S
C1867 C1868 1.376 . S
C1868 H1855 0.930 . S
C1868 C1867 1.376 . S
C1868 C1869 1.388 . S
C1869 H1856 0.930 . S
C1869 C1868 1.388 . S
C1869 C1870 1.390 . S
C1870 C1869 1.390 . S
C1870 C1871 1.394 . S
C1870 C1876 1.465 . S
C1871 C1866 1.399 . S
C1871 C1870 1.394 . S
C1871 C1872 1.516 . S
C1872 C1871 1.516 . S
C1872 C1873 1.502 . S
C1872 C1874 1.561 . S
C1872 C1875 1.526 . S
C1873 H1857 0.959 . S
C1873 H1858 0.959 . S
C1873 H1859 0.961 . S
C1873 C1872 1.502 . S
C1874 H1860 0.960 . S
C1874 H1861 0.961 . S
C1874 H1862 0.959 . S
C1874 C1872 1.561 . S
C1875 C1872 1.526 . S
C1875 C1876 1.396 . S
C1875 C1880 1.390 . S
C1876 C1870 1.465 . S
C1876 C1875 1.396 . S
C1876 C1877 1.399 . S
C1877 H1863 0.929 . S
C1877 C1876 1.399 . S
C1877 C1878 1.385 . S
C1878 H1864 0.931 . S
C1878 C1877 1.385 . S
C1878 C1879 1.389 . S
C1879 C1878 1.389 . S
C1879 C1880 1.387 . S
C1880 H1865 0.930 . S
C1880 C1875 1.390 . S
C1880 C1879 1.387 . S
H1881 C1893 0.930 . S
H1882 C1895 0.930 . S
H1883 C1896 0.930 . S
H1884 C1900 0.959 . S
H1885 C1900 0.959 . S
H1886 C1900 0.961 . S
H1887 C1901 0.960 . S
H1888 C1901 0.961 . S
H1889 C1901 0.959 . S
H1890 C1904 0.929 . S
H1891 C1905 0.931 . S
H1892 C1907 0.930 . S
C1893 H1881 0.930 . S
C1893 C1894 1.399 . S
C1893 C1898 1.399 . S
C1894 C1893 1.399 . S
C1894 C1895 1.376 . S
C1895 H1882 0.930 . S
C1895 C1894 1.376 . S
C1895 C1896 1.388 . S
C1896 H1883 0.930 . S
C1896 C1895 1.388 . S
C1896 C1897 1.390 . S
C1897 C1896 1.390 . S
C1897 C1898 1.394 . S
C1897 C1903 1.465 . S
C1898 C1893 1.399 . S
C1898 C1897 1.394 . S
C1898 C1899 1.516 . S
C1899 C1898 1.516 . S
C1899 C1900 1.502 . S
C1899 C1901 1.561 . S
C1899 C1902 1.526 . S
C1900 H1884 0.959 . S
C1900 H1885 0.959 . S
C1900 H1886 0.961 . S
C1900 C1899 1.502 . S
C1901 H1887 0.960 . S
C1901 H1888 0.961 . S
C1901 H1889 0.959 . S
C1901 C1899 1.561 . S
C1902 C1899 1.526 . S
C1902 C1903 1.396 . S
C1902 C1907 1.390 . S
C1903 C1897 1.465 . S
C1903 C1902 1.396 . S
C1903 C1904 1.399 . S
C1904 H1890 0.929 . S
C1904 C1903 1.399 . S
C1904 C1905 1.385 . S
C1905 H1891 0.931 . S
C1905 C1904 1.385 . S
C1905 C1906 1.389 . S
C1906 C1905 1.389 . S
C1906 C1907 1.387 . S
C1907 H1892 0.930 . S
C1907 C1902 1.390 . S
C1907 C1906 1.387 . S
H1908 C1920 0.930 . S
H1909 C1922 0.930 . S
H1910 C1923 0.930 . S
H1911 C1927 0.959 . S
H1912 C1927 0.959 . S
H1913 C1927 0.961 . S
H1914 C1928 0.960 . S
H1915 C1928 0.961 . S
H1916 C1928 0.959 . S
H1917 C1931 0.929 . S
H1918 C1932 0.931 . S
H1919 C1934 0.930 . S
C1920 H1908 0.930 . S
C1920 C1921 1.399 . S
C1920 C1925 1.399 . S
C1921 C1920 1.399 . S
C1921 C1922 1.376 . S
C1922 H1909 0.930 . S
C1922 C1921 1.376 . S
C1922 C1923 1.388 . S
C1923 H1910 0.930 . S
C1923 C1922 1.388 . S
C1923 C1924 1.390 . S
C1924 C1923 1.390 . S
C1924 C1925 1.394 . S
C1924 C1930 1.465 . S
C1925 C1920 1.399 . S
C1925 C1924 1.394 . S
C1925 C1926 1.516 . S
C1926 C1925 1.516 . S
C1926 C1927 1.502 . S
C1926 C1928 1.561 . S
C1926 C1929 1.526 . S
C1927 H1911 0.959 . S
C1927 H1912 0.959 . S
C1927 H1913 0.961 . S
C1927 C1926 1.502 . S
C1928 H1914 0.960 . S
C1928 H1915 0.961 . S
C1928 H1916 0.959 . S
C1928 C1926 1.561 . S
C1929 C1926 1.526 . S
C1929 C1930 1.396 . S
C1929 C1934 1.390 . S
C1930 C1924 1.465 . S
C1930 C1929 1.396 . S
C1930 C1931 1.399 . S
C1931 H1917 0.929 . S
C1931 C1930 1.399 . S
C1931 C1932 1.385 . S
C1932 H1918 0.931 . S
C1932 C1931 1.385 . S
C1932 C1933 1.389 . S
C1933 C1932 1.389 . S
C1933 C1934 1.387 . S
C1934 H1919 0.930 . S
C1934 C1929 1.390 . S
C1934 C1933 1.387 . S
H1935 C1947 0.930 . S
H1936 C1949 0.930 . S
H1937 C1950 0.930 . S
H1938 C1954 0.959 . S
H1939 C1954 0.959 . S
H1940 C1954 0.961 . S
H1941 C1955 0.960 . S
H1942 C1955 0.961 . S
H1943 C1955 0.959 . S
H1944 C1958 0.929 . S
H1945 C1959 0.931 . S
H1946 C1961 0.930 . S
C1947 H1935 0.930 . S
C1947 C1948 1.399 . S
C1947 C1952 1.399 . S
C1948 C1947 1.399 . S
C1948 C1949 1.376 . S
C1949 H1936 0.930 . S
C1949 C1948 1.376 . S
C1949 C1950 1.388 . S
C1950 H1937 0.930 . S
C1950 C1949 1.388 . S
C1950 C1951 1.390 . S
C1951 C1950 1.390 . S
C1951 C1952 1.394 . S
C1951 C1957 1.465 . S
C1952 C1947 1.399 . S
C1952 C1951 1.394 . S
C1952 C1953 1.516 . S
C1953 C1952 1.516 . S
C1953 C1954 1.502 . S
C1953 C1955 1.561 . S
C1953 C1956 1.526 . S
C1954 H1938 0.959 . S
C1954 H1939 0.959 . S
C1954 H1940 0.961 . S
C1954 C1953 1.502 . S
C1955 H1941 0.960 . S
C1955 H1942 0.961 . S
C1955 H1943 0.959 . S
C1955 C1953 1.561 . S
C1956 C1953 1.526 . S
C1956 C1957 1.396 . S
C1956 C1961 1.390 . S
C1957 C1951 1.465 . S
C1957 C1956 1.396 . S
C1957 C1958 1.399 . S
C1958 H1944 0.929 . S
C1958 C1957 1.399 . S
C1958 C1959 1.385 . S
C1959 H1945 0.931 . S
C1959 C1958 1.385 . S
C1959 C1960 1.389 . S
C1960 C1959 1.389 . S
C1960 C1961 1.387 . S
C1961 H1946 0.930 . S
C1961 C1956 1.390 . S
C1961 C1960 1.387 . S
H1962 C1974 0.930 . S
H1963 C1976 0.930 . S
H1964 C1977 0.930 . S
H1965 C1981 0.959 . S
H1966 C1981 0.959 . S
H1967 C1981 0.961 . S
H1968 C1982 0.960 . S
H1969 C1982 0.961 . S
H1970 C1982 0.959 . S
H1971 C1985 0.929 . S
H1972 C1986 0.931 . S
H1973 C1988 0.930 . S
C1974 H1962 0.930 . S
C1974 C1975 1.399 . S
C1974 C1979 1.399 . S
C1975 C1974 1.399 . S
C1975 C1976 1.376 . S
C1976 H1963 0.930 . S
C1976 C1975 1.376 . S
C1976 C1977 1.388 . S
C1977 H1964 0.930 . S
C1977 C1976 1.388 . S
C1977 C1978 1.390 . S
C1978 C1977 1.390 . S
C1978 C1979 1.394 . S
C1978 C1984 1.465 . S
C1979 C1974 1.399 . S
C1979 C1978 1.394 . S
C1979 C1980 1.516 . S
C1980 C1979 1.516 . S
C1980 C1981 1.502 . S
C1980 C1982 1.561 . S
C1980 C1983 1.526 . S
C1981 H1965 0.959 . S
C1981 H1966 0.959 . S
C1981 H1967 0.961 . S
C1981 C1980 1.502 . S
C1982 H1968 0.960 . S
C1982 H1969 0.961 . S
C1982 H1970 0.959 . S
C1982 C1980 1.561 . S
C1983 C1980 1.526 . S
C1983 C1984 1.396 . S
C1983 C1988 1.390 . S
C1984 C1978 1.465 . S
C1984 C1983 1.396 . S
C1984 C1985 1.399 . S
C1985 H1971 0.929 . S
C1985 C1984 1.399 . S
C1985 C1986 1.385 . S
C1986 H1972 0.931 . S
C1986 C1985 1.385 . S
C1986 C1987 1.389 . S
C1987 C1986 1.389 . S
C1987 C1988 1.387 . S
C1988 H1973 0.930 . S
C1988 C1983 1.390 . S
C1988 C1987 1.387 . S
H1989 C2001 0.930 . S
H1990 C2003 0.930 . S
H1991 C2004 0.930 . S
H1992 C2008 0.959 . S
H1993 C2008 0.959 . S
H1994 C2008 0.961 . S
H1995 C2009 0.960 . S
H1996 C2009 0.961 . S
H1997 C2009 0.959 . S
H1998 C2012 0.929 . S
H1999 C2013 0.931 . S
H2000 C2015 0.930 . S
C2001 H1989 0.930 . S
C2001 C2002 1.399 . S
C2001 C2006 1.399 . S
C2002 C2001 1.399 . S
C2002 C2003 1.376 . S
C2003 H1990 0.930 . S
C2003 C2002 1.376 . S
C2003 C2004 1.388 . S
C2004 H1991 0.930 . S
C2004 C2003 1.388 . S
C2004 C2005 1.390 . S
C2005 C2004 1.390 . S
C2005 C2006 1.394 . S
C2005 C2011 1.465 . S
C2006 C2001 1.399 . S
C2006 C2005 1.394 . S
C2006 C2007 1.516 . S
C2007 C2006 1.516 . S
C2007 C2008 1.502 . S
C2007 C2009 1.561 . S
C2007 C2010 1.526 . S
C2008 H1992 0.959 . S
C2008 H1993 0.959 . S
C2008 H1994 0.961 . S
C2008 C2007 1.502 . S
C2009 H1995 0.960 . S
C2009 H1996 0.961 . S
C2009 H1997 0.959 . S
C2009 C2007 1.561 . S
C2010 C2007 1.526 . S
C2010 C2011 1.396 . S
C2010 C2015 1.390 . S
C2011 C2005 1.465 . S
C2011 C2010 1.396 . S
C2011 C2012 1.399 . S
C2012 H1998 0.929 . S
C2012 C2011 1.399 . S
C2012 C2013 1.385 . S
C2013 H1999 0.931 . S
C2013 C2012 1.385 . S
C2013 C2014 1.389 . S
C2014 C2013 1.389 . S
C2014 C2015 1.387 . S
C2015 H2000 0.930 . S
C2015 C2010 1.390 . S
C2015 C2014 1.387 . S
C571 C147 1.677 . S
C583 C201 1.670 . S
C598 C158 1.781 . S
C610 C241 1.787 . S
C625 C136 1.577 . S
C637 C293 1.610 . S
C652 C125 1.460 . S
C664 C253 1.483 1_556 S
C691 C281 1.504 . S
C679 C103 1.501 . S
C706 C114 1.359 . S
C718 C213 1.328 . S
C745 C220 1.650 . S
C733 C131 1.672 . S
C772 C260 1.657 . S
C760 C109 1.673 . S
C787 C120 1.625 . S
C799 C280 1.679 1_556 S
C814 C153 1.470 . S
C826 C240 1.527 . S
C841 C164 1.432 . S
C853 C300 1.468 . S
C880 C200 1.445 . S
C868 C142 1.475 . S
C907 C321 1.668 . S
C895 C15 1.669 . S
C922 C26 1.792 . S
C934 C361 1.792 . S
C949 C4 1.593 . S
C961 C413 1.555 . S
C976 C191 1.491 . S
C988 C373 1.453 . S
C1003 C169 1.501 . S
C1015 C401 1.503 . S
C1030 C180 1.328 . S
C1042 C333 1.355 . S
C1057 C197 1.642 . S
C1069 C340 1.656 . S
C1084 C175 1.668 . S
C1096 C380 1.659 . S
C1123 C400 1.696 . S
C1111 C186 1.616 . S
C1138 C21 1.464 . S
C1150 C360 1.534 . S
C1177 C420 1.441 . S
C1165 C32 1.466 . S
C1192 C10 1.468 . S
C1204 C320 1.450 . S
C1231 C441 1.676 . S
C1219 C81 1.658 . S
C1246 C92 1.786 . S
C1258 C481 1.781 . S
C1285 C533 1.606 . S
C1273 C70 1.570 . S
C1312 C493 1.424 . S
C1300 C59 1.485 . S
C1339 C521 1.492 . S
C1327 C37 1.496 . S
C1354 C48 1.359 . S
C1366 C453 1.324 . S
C1381 C65 1.624 . S
C1393 C460 1.670 . S
C1408 C43 1.643 . S
C1420 C500 1.686 . S
C1447 C520 1.696 . S
C1435 C54 1.616 . S
C1462 C87 1.529 . S
C1474 C480 1.478 . S
C1489 C98 1.462 . S
C1501 C540 1.455 . S
C1516 C76 1.415 . S
C1528 C440 1.488 . S
C1543 C170 1.477 . S
C1555 C224 1.460 . S
C1582 C264 1.879 . S
C1570 C181 1.954 . S
C1597 C192 1.538 . S
C1609 C287 1.580 . S
C1624 C71 1.787 . S
C1636 C247 1.756 . S
C1651 C82 1.689 . S
C1663 C304 1.634 . S
C1690 C207 1.312 . S
C1678 C93 1.308 . S
C1705 C38 1.498 . S
C1717 C344 1.433 . S
C1732 C49 1.955 . S
C1744 C384 1.876 . S
C1759 C60 1.533 . S
C1771 C407 1.579 . S
C1786 C137 1.788 . S
C1798 C367 1.757 . S
C1825 C424 1.676 . S
C1813 C148 1.655 . S
C1840 C159 1.298 . S
C1852 C327 1.310 . S
C1867 C104 1.465 . S
C1879 C464 1.496 . S
C1894 C115 1.926 . S
C1906 C504 1.906 . S
C1933 C527 1.562 . S
C1921 C126 1.534 . S
C1948 C5 1.755 . S
C1960 C487 1.787 . S
C1975 C16 1.657 . S
C1987 C544 1.671 . S
C2002 C27 1.280 . S
C2014 C447 1.298 . S
