# Generated by pormake.
# Topology rtl, (3,6)-cn, num edge types: 1
# Building blocks:
#     Node 0, Type 0, BuildingBlock: QEWDON_clean_linker_0, # of connection points: 3
#     Node 1, Type 0, BuildingBlock: QEWDON_clean_linker_0, # of connection points: 3
#     Node 2, Type 0, BuildingBlock: QEWDON_clean_linker_0, # of connection points: 3
#     Node 3, Type 0, BuildingBlock: QEWDON_clean_linker_0, # of connection points: 3
#     Node 4, Type 1, BuildingBlock: VOLQOD_clean_sbu_1, # of connection points: 6
#     Node 5, Type 1, BuildingBlock: VOLQOD_clean_sbu_1, # of connection points: 6
#     Edge 6, Type (0, 1), BuildingBlock: UVAHIK_clean_linker_0, # of connection points: 2
#     Edge 7, Type (0, 1), BuildingBlock: UVAHIK_clean_linker_0, # of connection points: 2
#     Edge 8, Type (0, 1), BuildingBlock: UVAHIK_clean_linker_0, # of connection points: 2
#     Edge 9, Type (0, 1), BuildingBlock: UVAHIK_clean_linker_0, # of connection points: 2
#     Edge 10, Type (0, 1), BuildingBlock: UVAHIK_clean_linker_0, # of connection points: 2
#     Edge 11, Type (0, 1), BuildingBlock: UVAHIK_clean_linker_0, # of connection points: 2
#     Edge 12, Type (0, 1), BuildingBlock: UVAHIK_clean_linker_0, # of connection points: 2
#     Edge 13, Type (0, 1), BuildingBlock: UVAHIK_clean_linker_0, # of connection points: 2
#     Edge 14, Type (0, 1), BuildingBlock: UVAHIK_clean_linker_0, # of connection points: 2
#     Edge 15, Type (0, 1), BuildingBlock: UVAHIK_clean_linker_0, # of connection points: 2
#     Edge 16, Type (0, 1), BuildingBlock: UVAHIK_clean_linker_0, # of connection points: 2
#     Edge 17, Type (0, 1), BuildingBlock: UVAHIK_clean_linker_0, # of connection points: 2
# Relax obj value: 0.048
# Max RMSD: 0.148
# Mean RMSD: 0.140
data_MOF--net-rtl--node1-VOLQOD_clean_sbu_1--node2-QEWDON_clean_linker_0--edge1-UVAHIK_clean_linker_0
_symmetry_space_group_name_H-M    P1
_symmetry_Int_Tables_number       1
_symmetry_cell_setting            triclinic
loop_
_symmetry_equiv_pos_as_xyz
'x, y, z'
_cell_length_a     50.49438
_cell_length_b     51.111882
_cell_length_c     27.545852
_cell_angle_alpha  91.493685
_cell_angle_beta   91.925743
_cell_angle_gamma 90.018873
loop_
_atom_site_label
_atom_site_type_symbol
_atom_site_fract_x
_atom_site_fract_y
_atom_site_fract_z
_atom_type_partial_charge
H0 H 0.23129 0.83468 0.07808 0.0
C1 C 0.22037 0.83779 0.04417 0.0
C2 C 0.19352 0.84508 0.04451 0.0
C3 C 0.23344 0.83561 6e-05 0.0
H4 H 0.15972 0.85682 0.00059 0.0
C5 C 0.17997 0.8498 0.00024 0.0
C6 C 0.19281 0.84775 0.95592 0.0
C7 C 0.21963 0.84053 0.95619 0.0
C8 C 0.26223 0.83103 -0.00041 0.0
H9 H 0.22999 0.83918 0.92238 0.0
C10 C 0.27283 0.8059 0.00624 0.0
C11 C 0.30011 0.8015 0.00084 0.0
C12 C 0.27907 0.85183 0.9891 0.0
H13 H 0.27114 0.87128 0.98369 0.0
C14 C 0.30619 0.84764 0.98499 0.0
H15 H 0.25979 0.78971 0.01346 0.0
C16 C 0.31666 0.82261 0.99043 0.0
H17 H 0.33774 0.81968 0.98643 0.0
H18 H 0.31908 0.86377 0.97687 0.0
H19 H 0.72506 0.69413 0.48643 0.0
C20 C 0.71293 0.68995 0.51702 0.0
C21 C 0.68693 0.68073 0.50888 0.0
C22 C 0.7236 0.69257 0.56467 0.0
H23 H 0.6521 0.66593 0.54148 0.0
C24 C 0.67165 0.67429 0.5484 0.0
C25 C 0.68217 0.67637 0.59613 0.0
C26 C 0.7081 0.68587 0.60393 0.0
C27 C 0.75158 0.70027 0.57392 0.0
H28 H 0.71647 0.68772 0.64062 0.0
C29 C 0.76126 0.72431 0.55808 0.0
C30 C 0.78738 0.73222 0.57065 0.0
C31 C 0.76845 0.68384 0.60088 0.0
H32 H 0.76141 0.6652 0.6132 0.0
C33 C 0.79453 0.6913 0.6122 0.0
H34 H 0.74818 0.73726 0.53799 0.0
C35 C 0.80393 0.71538 0.5975 0.0
H36 H 0.8242 0.72085 0.60706 0.0
H37 H 0.80742 0.67848 0.63288 0.0
H38 H 0.77326 0.20017 0.06571 0.0
C39 C 0.78684 0.1959 0.0369 0.0
C40 C 0.813 0.1884 0.04854 0.0
C41 C 0.77787 0.19645 0.98804 0.0
H42 H 0.85007 0.17515 0.02041 0.0
C43 C 0.83013 0.18171 0.01122 0.0
C44 C 0.82123 0.18138 0.9625 0.0
C45 C 0.79521 0.18925 0.95108 0.0
C46 C 0.74977 0.20196 0.9753 0.0
H47 H 0.78799 0.1886 0.91354 0.0
C48 C 0.73781 0.22558 0.99014 0.0
C49 C 0.71158 0.23126 0.9748 0.0
C50 C 0.73504 0.18372 0.94648 0.0
H51 H 0.74381 0.16534 0.93498 0.0
C52 C 0.70887 0.189 0.93231 0.0
H53 H 0.74922 0.2399 0.01173 0.0
C54 C 0.69722 0.21265 0.94609 0.0
H55 H 0.67691 0.21639 0.93436 0.0
H56 H 0.69765 0.1748 0.91022 0.0
H57 H 0.32029 0.27967 0.59225 0.0
C58 C 0.32041 0.29247 0.56148 0.0
C59 C 0.32549 0.3193 0.56887 0.0
C60 C 0.31643 0.28203 0.51421 0.0
H61 H 0.33232 0.35586 0.53465 0.0
C62 C 0.32681 0.3355 0.52869 0.0
C63 C 0.32364 0.32518 0.48109 0.0
C64 C 0.31794 0.29838 0.47428 0.0
C65 C 0.31388 0.25358 0.5058 0.0
H66 H 0.31553 0.28996 0.43786 0.0
C67 C 0.28895 0.24134 0.50496 0.0
C68 C 0.28665 0.21445 0.4932 0.0
C69 C 0.33655 0.23882 0.49583 0.0
H70 H 0.35587 0.24806 0.49614 0.0
C71 C 0.33439 0.21209 0.48483 0.0
H72 H 0.2714 0.25285 0.512 0.0
C73 C 0.3096 0.19996 0.48323 0.0
H74 H 0.30836 0.1792 0.47448 0.0
H75 H 0.35195 0.20079 0.47713 0.0
O76 O 0.93751 0.98047 0.49152 0.0
Zn77 Zn 0.95851 0.01421 0.49478 0.0
O78 O 0.9966 0.0082 0.49171 0.0
Zn79 Zn 0.01445 0.02474 0.54904 0.0
Zn80 Zn 0.00292 0.97059 0.49127 0.0
Zn81 Zn 0.01013 0.0228 0.43203 0.0
O82 O 0.04183 0.05077 0.52935 0.0
O83 O 0.03925 0.04899 0.44868 0.0
O84 O 0.94957 0.03369 0.55616 0.0
O85 O 0.9885 0.04379 0.59151 0.0
O86 O 0.03328 0.99772 0.58991 0.0
O87 O 0.02465 0.96026 0.54989 0.0
O88 O 0.02342 0.95925 0.43358 0.0
O89 O 0.94607 0.0369 0.44038 0.0
O90 O 0.02672 0.9947 0.38937 0.0
O91 O 0.98103 0.04179 0.39447 0.0
C92 C 0.9445 0.95652 0.48967 0.0
C93 C 0.0496 0.05817 0.48838 0.0
C94 C 0.03554 0.97294 0.58559 0.0
C95 C 0.96329 0.04495 0.59022 0.0
C96 C 0.03123 0.97048 0.39595 0.0
C97 C 0.95678 0.0462 0.40336 0.0
O98 O 0.96886 0.9501 0.48946 0.0
O99 O 0.55427 0.47866 0.04622 0.0
Zn100 Zn 0.53436 0.51283 0.04261 0.0
O101 O 0.49602 0.5078 0.04273 0.0
Zn102 Zn 0.48014 0.52135 0.98245 0.0
Zn103 Zn 0.48879 0.47043 0.04592 0.0
Zn104 Zn 0.48117 0.52605 0.09956 0.0
O105 O 0.45446 0.5503 -0.00252 0.0
O106 O 0.45529 0.55407 0.07805 0.0
O107 O 0.54531 0.53059 0.98246 0.0
O108 O 0.50774 0.53699 0.94043 0.0
O109 O 0.46062 0.49291 0.94322 0.0
O110 O 0.4665 0.45784 0.98829 0.0
O111 O 0.4681 0.46262 0.10433 0.0
O112 O 0.54644 0.53604 0.09872 0.0
O113 O 0.46127 0.50101 0.1413 0.0
O114 O 0.51034 0.54404 0.14069 0.0
C115 C 0.54679 0.45493 0.04831 0.0
C116 C 0.44669 0.56133 0.03649 0.0
C117 C 0.45683 0.4687 0.95062 0.0
C118 C 0.53281 0.53924 0.94536 0.0
C119 C 0.45812 0.47626 0.1384 0.0
C120 C 0.53513 0.54675 0.13474 0.0
O121 O 0.52229 0.44901 0.04851 0.0
C122 C 0.24291 0.20395 0.52873 0.0
C123 C 0.26043 0.20138 0.4904 0.0
C124 C 0.21895 0.19013 0.52719 0.0
C125 C 0.18652 0.13246 0.46509 0.0
H126 H 0.12314 0.16063 0.52247 0.0
C127 C 0.08527 0.08054 0.44367 0.0
C128 C 0.07183 0.07706 0.48693 0.0
C129 C 0.10728 0.09711 0.44299 0.0
C130 C 0.14074 0.15251 0.50649 0.0
H131 H 0.26619 0.18349 0.41943 0.0
H132 H 0.22411 0.16012 0.41578 0.0
H133 H 0.16329 0.18733 0.52255 0.0
H134 H 0.07048 0.08896 0.56302 0.0
H135 H 0.10875 0.11815 0.56153 0.0
H136 H 0.16378 0.09783 0.44842 0.0
C137 C 0.22913 0.17197 0.44792 0.0
C138 C 0.1638 0.16774 0.50668 0.0
C139 C 0.25319 0.18548 0.44982 0.0
C140 C 0.08044 0.09112 0.52914 0.0
C141 C 0.10225 0.10795 0.52827 0.0
C142 C 0.16341 0.11742 0.46437 0.0
C143 C 0.21186 0.17372 0.48694 0.0
C144 C 0.18704 0.15787 0.4861 0.0
C145 C 0.11611 0.11081 0.48536 0.0
C146 C 0.14033 0.12724 0.48519 0.0
H147 H 0.24814 0.21599 0.56058 0.0
H148 H 0.20637 0.19175 0.55819 0.0
H149 H 0.20412 0.1239 0.44991 0.0
H150 H 0.07919 0.07002 0.41052 0.0
H151 H 0.11747 0.09914 0.40931 0.0
C152 C 0.3081 0.75967 0.04486 0.0
C153 C 0.31144 0.77487 0.0038 0.0
C154 C 0.32084 0.73543 0.04883 0.0
C155 C 0.37743 0.69854 -0.00243 0.0
H156 H 0.34691 0.63963 0.06188 0.0
C157 C 0.42372 0.59605 0.98843 0.0
C158 C 0.42831 0.58388 0.03314 0.0
C159 C 0.40792 0.6184 0.98551 0.0
C160 C 0.35567 0.65601 0.04406 0.0
H161 H 0.32926 0.7762 0.93354 0.0
H162 H 0.35058 0.73366 0.93932 0.0
H163 H 0.32167 0.6803 0.0546 0.0
H164 H 0.41904 0.58516 0.10952 0.0
H165 H 0.39103 0.62415 0.10409 0.0
H166 H 0.41114 0.67407 0.98614 0.0
C167 C 0.33911 0.74069 0.9695 0.0
C168 C 0.3413 0.67935 0.04002 0.0
C169 C 0.32675 0.765 0.96594 0.0
C170 C 0.41599 0.59412 0.07458 0.0
C171 C 0.39986 0.61634 0.07147 0.0
C172 C 0.39157 0.67519 0.00104 0.0
C173 C 0.33687 0.72582 0.01146 0.0
C174 C 0.35196 0.70089 0.01647 0.0
C175 C 0.39607 0.62894 0.02706 0.0
C176 C 0.38083 0.65366 0.02413 0.0
H177 H 0.29641 0.76696 0.07458 0.0
H178 H 0.3188 0.72467 0.08184 0.0
H179 H 0.38669 0.71486 0.98043 0.0
H180 H 0.43285 0.58872 0.95577 0.0
H181 H 0.4051 0.62759 0.95071 0.0
C182 C 0.79455 0.76712 0.50975 0.0
C183 C 0.7974 0.75828 0.55751 0.0
C184 C 0.80599 0.79086 0.49708 0.0
C185 C 0.84995 0.83032 0.47749 0.0
H186 H 0.8499 0.89114 0.56474 0.0
C187 C 0.93123 0.90932 0.48143 0.0
C188 C 0.92407 0.93565 0.48915 0.0
C189 C 0.91238 0.88943 0.48347 0.0
C190 C 0.84983 0.87448 0.53959 0.0
H191 H 0.81319 0.76784 0.62993 0.0
H192 H 0.83307 0.80912 0.60798 0.0
H193 H 0.82177 0.85369 0.58067 0.0
H194 H 0.89121 0.96171 0.5039 0.0
H195 H 0.85828 0.92684 0.50774 0.0
H196 H 0.8785 0.85087 0.43706 0.0
C197 C 0.82209 0.79782 0.58023 0.0
C198 C 0.83389 0.85296 0.54896 0.0
C199 C 0.81095 0.77405 0.59271 0.0
C200 C 0.89743 0.94164 0.49789 0.0
C201 C 0.87858 0.92168 0.50028 0.0
C202 C 0.86603 0.85179 0.46829 0.0
C203 C 0.82011 0.80632 0.53216 0.0
C204 C 0.83422 0.83042 0.51862 0.0
C205 C 0.88591 0.89533 0.49354 0.0
C206 C 0.86657 0.87388 0.49983 0.0
H207 H 0.78423 0.75529 0.48192 0.0
H208 H 0.80402 0.79701 0.45981 0.0
H209 H 0.85076 0.81318 0.45361 0.0
H210 H 0.95154 0.90398 0.47447 0.0
H211 H 0.91874 0.86931 0.47872 0.0
C212 C 0.68561 0.27074 0.9507 0.0
C213 C 0.69924 0.25681 0.98704 0.0
C214 C 0.67265 0.29409 0.96206 0.0
C215 C 0.65793 0.34962 0.99193 0.0
H216 H 0.61091 0.34954 0.10039 0.0
C217 C 0.59371 0.43926 0.04152 0.0
C218 C 0.56687 0.43374 0.04893 0.0
C219 C 0.61234 0.41906 0.03929 0.0
C220 C 0.62401 0.34986 0.07006 0.0
H221 H 0.71044 0.25663 0.06363 0.0
H222 H 0.68749 0.29762 0.08374 0.0
H223 H 0.63972 0.31193 0.08558 0.0
H224 H 0.53879 0.40265 0.06132 0.0
H225 H 0.57127 0.3675 0.05735 0.0
H226 H 0.64168 0.38715 0.97545 0.0
C227 C 0.68687 0.29034 0.04644 0.0
C228 C 0.64068 0.32846 0.06188 0.0
C229 C 0.70013 0.26703 0.03492 0.0
C230 C 0.55926 0.40762 0.05542 0.0
C231 C 0.57792 0.38747 0.05351 0.0
C232 C 0.64142 0.37108 0.00031 0.0
C233 C 0.67285 0.304 0.01012 0.0
C234 C 0.65742 0.32789 0.02213 0.0
C235 C 0.6046 0.39292 0.04479 0.0
C236 C 0.6239 0.37123 0.03891 0.0
H237 H 0.68483 0.26345 0.91339 0.0
H238 H 0.66181 0.304 0.93336 0.0
H239 H 0.6708 0.34983 0.96126 0.0
H240 H 0.60029 0.45915 0.0365 0.0
H241 H 0.63281 0.42389 0.03298 0.0
C242 C 0.15333 0.84358 0.0952 0.0
C243 C 0.17995 0.85087 0.09054 0.0
C244 C 0.13869 0.8536 0.13351 0.0
C245 C 0.11277 0.87184 0.22604 0.0
H246 H 0.12411 0.94591 0.25306 0.0
C247 C 0.05487 0.92945 0.37117 0.0
C248 C 0.04729 0.95529 0.36106 0.0
C249 C 0.07151 0.91554 0.34037 0.0
C250 C 0.12053 0.92527 0.24565 0.0
H251 H 0.21262 0.87291 0.12436 0.0
H252 H 0.18726 0.8898 0.19225 0.0
H253 H 0.15315 0.92244 0.19835 0.0
H254 H 0.05082 0.98649 0.30977 0.0
H255 H 0.07941 0.96197 0.25535 0.0
H256 H 0.07946 0.87495 0.27179 0.0
C257 C 0.17752 0.87682 0.16554 0.0
C258 C 0.13749 0.91168 0.21491 0.0
C259 C 0.19218 0.86684 0.12705 0.0
C260 C 0.05633 0.96667 0.31876 0.0
C261 C 0.07291 0.95268 0.28777 0.0
C262 C 0.09573 0.88546 0.25664 0.0
C263 C 0.15036 0.87106 0.16825 0.0
C264 C 0.1337 0.88484 0.20438 0.0
C265 C 0.08092 0.92703 0.29848 0.0
C266 C 0.09927 0.9124 0.2665 0.0
H267 H 0.14346 0.83109 0.06784 0.0
H268 H 0.11782 0.8488 0.13423 0.0
H269 H 0.1094 0.85113 0.21906 0.0
H270 H 0.04842 0.92005 0.40353 0.0
H271 H 0.07752 0.89597 0.3501 0.0
C272 C 0.67974 0.65096 0.67257 0.0
C273 C 0.66698 0.66604 0.63682 0.0
C274 C 0.66514 0.63866 0.70757 0.0
C275 C 0.59925 0.63684 0.76341 0.0
H276 H 0.62006 0.56571 0.79216 0.0
C277 C 0.53442 0.56709 0.87174 0.0
C278 C 0.54774 0.55306 0.90839 0.0
C279 C 0.54868 0.58122 0.83852 0.0
C280 C 0.61414 0.58562 0.7848 0.0
H281 H 0.62894 0.68106 0.61142 0.0
H282 H 0.60336 0.65896 0.67166 0.0
H283 H 0.64567 0.59073 0.73614 0.0
H284 H 0.58651 0.54255 0.9383 0.0
H285 H 0.61126 0.56706 0.88027 0.0
H286 H 0.56744 0.63143 0.81175 0.0
C287 C 0.62471 0.65685 0.67294 0.0
C288 C 0.62887 0.60003 0.75286 0.0
C289 C 0.63935 0.66931 0.63807 0.0
C290 C 0.5756 0.55313 0.91055 0.0
C291 C 0.58982 0.56708 0.87717 0.0
C292 C 0.5844 0.62234 0.79519 0.0
C293 C 0.63739 0.64095 0.7075 0.0
C294 C 0.62171 0.62586 0.74194 0.0
C295 C 0.57652 0.58141 0.84102 0.0
C296 C 0.59178 0.59662 0.80635 0.0
H297 H 0.70094 0.64777 0.67246 0.0
H298 H 0.67559 0.62696 0.73424 0.0
H299 H 0.59335 0.65677 0.75621 0.0
H300 H 0.51297 0.56748 0.8691 0.0
H301 H 0.53792 0.59189 0.8107 0.0
C302 C 0.81049 0.16205 0.12261 0.0
C303 C 0.82182 0.18302 0.09889 0.0
C304 C 0.82337 0.15147 0.16326 0.0
C305 C 0.89169 0.1465 0.21534 0.0
H306 H 0.85679 0.10565 0.31096 0.0
C307 C 0.94819 0.06812 0.32388 0.0
C308 C 0.94088 0.06356 0.37163 0.0
C309 C 0.93316 0.08485 0.2945 0.0
C310 C 0.867 0.11725 0.2851 0.0
H311 H 0.85407 0.21089 0.10084 0.0
H312 H 0.87584 0.19359 0.17371 0.0
H313 H 0.83062 0.13374 0.25837 0.0
H314 H 0.91242 0.07344 0.42646 0.0
H315 H 0.88692 0.10329 0.37619 0.0
H316 H 0.92814 0.13077 0.24314 0.0
C317 C 0.85761 0.18451 0.16004 0.0
C318 C 0.85186 0.13315 0.25435 0.0
C319 C 0.84497 0.19474 0.11881 0.0
C320 C 0.91839 0.07627 0.38955 0.0
C321 C 0.90366 0.09334 0.36056 0.0
C322 C 0.90685 0.13096 0.2466 0.0
C323 C 0.8477 0.1619 0.18135 0.0
C324 C 0.86393 0.1476 0.21834 0.0
C325 C 0.91074 0.09781 0.31253 0.0
C326 C 0.89469 0.11567 0.28126 0.0
H327 H 0.79287 0.15243 0.10731 0.0
H328 H 0.81515 0.13395 0.17812 0.0
H329 H 0.90181 0.15693 0.18772 0.0
H330 H 0.96534 0.05851 0.30898 0.0
H331 H 0.93898 0.08731 0.25743 0.0
C332 C 0.31987 0.35257 0.63566 0.0
C333 C 0.33286 0.33031 0.61755 0.0
C334 C 0.32984 0.36589 0.67729 0.0
C335 C 0.38097 0.36238 0.77882 0.0
H336 H 0.37742 0.43796 0.77225 0.0
C337 C 0.42894 0.42934 0.92924 0.0
C338 C 0.44063 0.45279 0.91517 0.0
C339 C 0.41363 0.4142 0.89599 0.0
C340 C 0.37889 0.41689 0.7745 0.0
H341 H 0.36584 0.30394 0.62905 0.0
H342 H 0.3839 0.32756 0.70063 0.0
H343 H 0.35459 0.41116 0.71029 0.0
H344 H 0.44565 0.47865 0.85506 0.0
H345 H 0.41994 0.45176 0.79642 0.0
H346 H 0.40675 0.36817 0.84123 0.0
C347 C 0.36558 0.33446 0.68395 0.0
C348 C 0.36529 0.40142 0.73934 0.0
C349 C 0.35529 0.32088 0.64284 0.0
C350 C 0.43674 0.46076 0.86708 0.0
C351 C 0.42179 0.44539 0.83355 0.0
C352 C 0.39493 0.37787 0.81356 0.0
C353 C 0.35339 0.35757 0.701 0.0
C354 C 0.36628 0.37393 0.74074 0.0
C355 C 0.40998 0.42189 0.84755 0.0
C356 C 0.39427 0.40536 0.81165 0.0
H357 H 0.30249 0.36013 0.61665 0.0
H358 H 0.31946 0.38315 0.69 0.0
H359 H 0.38194 0.34131 0.78164 0.0
H360 H 0.43134 0.4228 0.96623 0.0
H361 H 0.40446 0.39657 0.90851 0.0
C362 C 0.68609 0.65222 0.43452 0.0
C363 C 0.67634 0.6742 0.45955 0.0
C364 C 0.67221 0.64181 0.39374 0.0
C365 C 0.64307 0.62522 0.30052 0.0
H366 H 0.56663 0.62803 0.30838 0.0
C367 C 0.57489 0.57461 0.15447 0.0
C368 C 0.55121 0.56331 0.1693 0.0
C369 C 0.59021 0.59041 0.18657 0.0
C370 C 0.58794 0.62674 0.30581 0.0
H371 H 0.6456 0.7036 0.46062 0.0
H372 H 0.62212 0.68657 0.38749 0.0
H373 H 0.59408 0.6517 0.36841 0.0
H374 H 0.5251 0.55952 0.22951 0.0
H375 H 0.55242 0.58603 0.28643 0.0
H376 H 0.63694 0.59872 0.24002 0.0
C377 C 0.63989 0.67664 0.4001 0.0
C378 C 0.60379 0.64085 0.33981 0.0
C379 C 0.6535 0.6867 0.44149 0.0
C380 C 0.54319 0.56809 0.21699 0.0
C381 C 0.5588 0.5835 0.24948 0.0
C382 C 0.62723 0.61072 0.26705 0.0
C383 C 0.64844 0.65342 0.37679 0.0
C384 C 0.63161 0.64014 0.33794 0.0
C385 C 0.58254 0.59492 0.2347 0.0
C386 C 0.59942 0.6111 0.26942 0.0
H387 H 0.70342 0.64202 0.44852 0.0
H388 H 0.67934 0.62376 0.37746 0.0
H389 H 0.66436 0.62443 0.29727 0.0
H390 H 0.58143 0.57157 0.1177 0.0
H391 H 0.60795 0.59927 0.17333 0.0
C392 C 0.85081 0.14568 0.93293 0.0
C393 C 0.83798 0.16962 0.92453 0.0
C394 C 0.86528 0.13343 0.89666 0.0
C395 C 0.89992 0.14386 0.78424 0.0
H396 H 0.88607 0.06986 0.76049 0.0
C397 C 0.96364 0.07674 0.66132 0.0
C398 C 0.94952 0.05994 0.62851 0.0
C399 C 0.95038 0.09117 0.69683 0.0
C400 C 0.89007 0.09054 0.76657 0.0
H401 H 0.83065 0.19976 0.87188 0.0
H402 H 0.85622 0.17822 0.80802 0.0
H403 H 0.86237 0.09361 0.82346 0.0
H404 H 0.91038 0.04513 0.60739 0.0
H405 H 0.88741 0.07007 0.66959 0.0
H406 H 0.92771 0.14065 0.72716 0.0
C407 C 0.85504 0.16909 0.84293 0.0
C408 C 0.87667 0.10407 0.80283 0.0
C409 C 0.84031 0.1813 0.87924 0.0
C410 C 0.92189 0.05785 0.63208 0.0
C411 C 0.90871 0.07206 0.66782 0.0
C412 C 0.91358 0.13021 0.74819 0.0
C413 C 0.86733 0.14485 0.85115 0.0
C414 C 0.88146 0.13084 0.81208 0.0
C415 C 0.9228 0.08884 0.70054 0.0
C416 C 0.9087 0.10343 0.73897 0.0
H417 H 0.84907 0.13601 0.96721 0.0
H418 H 0.87474 0.11488 0.90412 0.0
H419 H 0.90406 0.16447 0.79083 0.0
H420 H 0.98492 0.07887 0.65942 0.0
H421 H 0.96173 0.10383 0.72189 0.0
C422 C 0.34473 0.33157 0.40109 0.0
C423 C 0.32967 0.34175 0.43922 0.0
C424 C 0.35376 0.34788 0.36529 0.0
C425 C 0.37332 0.41552 0.34921 0.0
H426 H 0.37705 0.39377 0.21373 0.0
C427 C 0.42623 0.47715 0.20677 0.0
C428 C 0.44161 0.46289 0.17369 0.0
C429 C 0.40952 0.46415 0.23781 0.0
C430 C 0.37632 0.40006 0.25152 0.0
H431 H 0.31097 0.37687 0.46778 0.0
H432 H 0.32723 0.40547 0.40552 0.0
H433 H 0.35187 0.3676 0.26883 0.0
H434 H 0.45201 0.42374 0.14834 0.0
H435 H 0.42349 0.40128 0.20279 0.0
H436 H 0.39855 0.44748 0.33234 0.0
C437 C 0.33215 0.38485 0.40377 0.0
C438 C 0.3618 0.38512 0.28297 0.0
C439 C 0.32289 0.36847 0.43939 0.0
C440 C 0.4403 0.43541 0.17303 0.0
C441 C 0.42373 0.42248 0.20402 0.0
C442 C 0.38799 0.43042 0.31777 0.0
C443 C 0.34812 0.37479 0.36693 0.0
C444 C 0.3606 0.39239 0.33234 0.0
C445 C 0.4079 0.43666 0.2364 0.0
C446 C 0.39016 0.42251 0.2688 0.0
H447 H 0.35079 0.31125 0.40016 0.0
H448 H 0.3663 0.33961 0.33769 0.0
H449 H 0.37297 0.42146 0.38722 0.0
H450 H 0.42671 0.49834 0.20808 0.0
H451 H 0.3975 0.47564 0.26222 0.0
C452 C 0.15172 0.84946 0.90221 0.0
C453 C 0.17865 0.85568 0.91047 0.0
C454 C 0.13735 0.86 0.86321 0.0
C455 C 0.13857 0.91668 0.7831 0.0
H456 H 0.08028 0.88013 0.71598 0.0
C457 C 0.06124 0.97109 0.665 0.0
C458 C 0.0518 0.95856 0.62181 0.0
C459 C 0.07713 0.95758 0.69845 0.0
C460 C 0.09666 0.89056 0.73396 0.0
H461 H 0.21189 0.87688 0.88263 0.0
H462 H 0.18709 0.89441 0.8135 0.0
H463 H 0.10845 0.85694 0.77393 0.0
H464 H 0.05175 0.922 0.57988 0.0
H465 H 0.07987 0.8987 0.63759 0.0
H466 H 0.12721 0.95011 0.74233 0.0
C467 C 0.17689 0.88192 0.83797 0.0
C468 C 0.11265 0.87733 0.76764 0.0
C469 C 0.19123 0.87152 0.87722 0.0
C470 C 0.05853 0.93221 0.61294 0.0
C471 C 0.07457 0.91878 0.64618 0.0
C472 C 0.12271 0.92985 0.7492 0.0
C473 C 0.14961 0.87685 0.83123 0.0
C474 C 0.13366 0.89029 0.79296 0.0
C475 C 0.08413 0.9313 0.68932 0.0
C476 C 0.1014 0.91704 0.72453 0.0
H477 H 0.14152 0.83701 0.92677 0.0
H478 H 0.11635 0.85577 0.85942 0.0
H479 H 0.15432 0.92743 0.80238 0.0
H480 H 0.05631 0.99132 0.67309 0.0
H481 H 0.08374 0.9677 0.73171 0.0
loop_
_geom_bond_atom_site_label_1
_geom_bond_atom_site_label_2
_geom_bond_distance
_geom_bond_site_symmetry_2
_ccdc_geom_bond_type
H0 C1 0.949 . S
C1 H0 0.949 . S
C1 C2 1.395 . S
C1 C3 1.391 . S
C2 C1 1.395 . S
C2 C5 1.390 . S
C3 C1 1.391 . S
C3 C7 1.387 1_554 S
C3 C8 1.491 1_554 S
H4 C5 0.950 . S
C5 C2 1.390 . S
C5 H4 0.950 . S
C5 C6 1.378 1_554 S
C6 C5 1.378 1_556 S
C6 C7 1.409 . S
C7 C3 1.387 1_556 S
C7 C6 1.409 . S
C7 H9 0.951 . S
C8 C3 1.491 1_556 S
C8 C10 1.380 1_556 S
C8 C12 1.406 . S
H9 C7 0.951 . S
C10 C8 1.380 1_554 S
C10 C11 1.390 . S
C10 H15 0.949 . S
C11 C10 1.390 . S
C11 C16 1.399 1_554 S
C12 C8 1.406 . S
C12 H13 0.950 . S
C12 C14 1.375 . S
H13 C12 0.950 . S
C14 C12 1.375 . S
C14 C16 1.382 . S
C14 H18 0.950 . S
H15 C10 0.949 . S
C16 C11 1.399 1_556 S
C16 C14 1.382 . S
C16 H17 0.952 . S
H17 C16 0.952 . S
H18 C14 0.950 . S
H19 C20 0.949 . S
C20 H19 0.949 . S
C20 C21 1.395 . S
C20 C22 1.391 . S
C21 C20 1.395 . S
C21 C24 1.390 . S
C22 C20 1.391 . S
C22 C26 1.387 . S
C22 C27 1.491 . S
H23 C24 0.950 . S
C24 C21 1.390 . S
C24 H23 0.950 . S
C24 C25 1.378 . S
C25 C24 1.378 . S
C25 C26 1.409 . S
C26 C22 1.387 . S
C26 C25 1.409 . S
C26 H28 0.951 . S
C27 C22 1.491 . S
C27 C29 1.382 . S
C27 C31 1.404 . S
H28 C26 0.951 . S
C29 C27 1.382 . S
C29 C30 1.390 . S
C29 H34 0.949 . S
C30 C29 1.390 . S
C30 C35 1.399 . S
C31 C27 1.404 . S
C31 H32 0.950 . S
C31 C33 1.375 . S
H32 C31 0.950 . S
C33 C31 1.375 . S
C33 C35 1.382 . S
C33 H37 0.950 . S
H34 C29 0.949 . S
C35 C30 1.399 . S
C35 C33 1.382 . S
C35 H36 0.952 . S
H36 C35 0.952 . S
H37 C33 0.950 . S
H38 C39 0.949 . S
C39 H38 0.949 . S
C39 C40 1.395 . S
C39 C41 1.391 . S
C40 C39 1.395 . S
C40 C43 1.390 . S
C41 C39 1.391 . S
C41 C45 1.387 1_554 S
C41 C46 1.491 1_554 S
H42 C43 0.950 . S
C43 C40 1.390 . S
C43 H42 0.950 . S
C43 C44 1.378 1_554 S
C44 C43 1.378 1_556 S
C44 C45 1.409 . S
C45 C41 1.387 1_556 S
C45 C44 1.409 . S
C45 H47 0.951 . S
C46 C41 1.491 1_556 S
C46 C48 1.382 1_556 S
C46 C50 1.404 . S
H47 C45 0.951 . S
C48 C46 1.382 1_554 S
C48 C49 1.390 . S
C48 H53 0.949 . S
C49 C48 1.390 . S
C49 C54 1.399 1_554 S
C50 C46 1.404 . S
C50 H51 0.950 . S
C50 C52 1.375 . S
H51 C50 0.950 . S
C52 C50 1.375 . S
C52 C54 1.382 . S
C52 H56 0.950 . S
H53 C48 0.949 . S
C54 C49 1.399 1_556 S
C54 C52 1.382 . S
C54 H55 0.952 . S
H55 C54 0.952 . S
H56 C52 0.950 . S
H57 C58 0.949 . S
C58 H57 0.949 . S
C58 C59 1.395 . S
C58 C60 1.391 . S
C59 C58 1.395 . S
C59 C62 1.390 . S
C60 C58 1.391 . S
C60 C64 1.387 . S
C60 C65 1.491 . S
H61 C62 0.950 . S
C62 C59 1.390 . S
C62 H61 0.950 . S
C62 C63 1.378 . S
C63 C62 1.378 . S
C63 C64 1.409 . S
C64 C60 1.387 . S
C64 C63 1.409 . S
C64 H66 0.951 . S
C65 C60 1.491 . S
C65 C67 1.382 . S
C65 C69 1.404 . S
H66 C64 0.951 . S
C67 C65 1.382 . S
C67 C68 1.390 . S
C67 H72 0.949 . S
C68 C67 1.390 . S
C68 C73 1.399 . S
C69 C65 1.404 . S
C69 H70 0.950 . S
C69 C71 1.375 . S
H70 C69 0.950 . S
C71 C69 1.375 . S
C71 C73 1.382 . S
C71 H75 0.950 . S
H72 C67 0.949 . S
C73 C68 1.399 . S
C73 C71 1.382 . S
C73 H74 0.952 . S
H74 C73 0.952 . S
H75 C71 0.950 . S
O76 Zn77 1.953 1_565 S
O76 C92 1.225 . S
Zn77 O76 1.953 1_545 S
Zn77 O78 1.949 1_655 S
Zn77 O84 1.919 . S
Zn77 O89 1.924 . S
O78 Zn77 1.949 1_455 S
O78 Zn79 1.923 . S
O78 Zn80 1.950 1_545 S
O78 Zn81 1.945 . S
Zn79 O78 1.923 . S
Zn79 O82 1.933 . S
Zn79 O85 1.941 1_455 S
Zn79 O86 1.965 1_545 S
Zn80 O78 1.950 1_565 S
Zn80 O87 1.938 . S
Zn80 O88 1.906 . S
Zn80 O98 1.953 1_455 S
Zn81 O78 1.945 . S
Zn81 O83 1.932 . S
Zn81 O90 1.994 . S
Zn81 O91 1.910 1_455 S
O82 Zn79 1.933 . S
O82 C93 1.226 . S
O83 Zn81 1.932 . S
O83 C93 1.307 . S
O84 Zn77 1.919 . S
O84 C95 1.253 . S
O85 Zn79 1.941 1_655 S
O85 C95 1.283 . S
O86 Zn79 1.965 1_565 S
O86 C94 1.303 . S
O87 Zn80 1.938 . S
O87 C94 1.247 . S
O88 Zn80 1.906 . S
O88 C96 1.304 . S
O89 Zn77 1.924 . S
O89 C97 1.311 . S
O90 Zn81 1.994 . S
O90 C96 1.247 1_545 S
O91 Zn81 1.910 1_655 S
O91 C97 1.231 . S
C92 O76 1.225 . S
C92 O98 1.298 . S
C93 O82 1.226 . S
C93 O83 1.307 . S
C94 O86 1.303 . S
C94 O87 1.247 . S
C95 O84 1.253 . S
C95 O85 1.283 . S
C96 O88 1.304 . S
C96 O90 1.247 1_565 S
C97 O89 1.311 . S
C97 O91 1.231 . S
O98 Zn80 1.953 1_655 S
O98 C92 1.298 . S
O99 Zn100 1.953 . S
O99 C115 1.225 . S
Zn100 O99 1.953 . S
Zn100 O101 1.949 . S
Zn100 O107 1.919 1_554 S
Zn100 O112 1.924 . S
O101 Zn100 1.949 . S
O101 Zn102 1.923 1_554 S
O101 Zn103 1.950 . S
O101 Zn104 1.945 . S
Zn102 O101 1.923 1_556 S
Zn102 O105 1.933 . S
Zn102 O108 1.941 . S
Zn102 O109 1.965 . S
Zn103 O101 1.950 . S
Zn103 O110 1.938 1_554 S
Zn103 O111 1.906 . S
Zn103 O121 1.953 . S
Zn104 O101 1.945 . S
Zn104 O106 1.932 . S
Zn104 O113 1.977 . S
Zn104 O114 1.910 . S
O105 Zn102 1.933 . S
O105 C116 1.226 1_556 S
O106 Zn104 1.932 . S
O106 C116 1.307 . S
O107 Zn100 1.919 1_556 S
O107 C118 1.253 . S
O108 Zn102 1.941 . S
O108 C118 1.283 . S
O109 Zn102 1.965 . S
O109 C117 1.303 . S
O110 Zn103 1.938 1_556 S
O110 C117 1.247 . S
O111 Zn103 1.906 . S
O111 C119 1.304 . S
O112 Zn100 1.924 . S
O112 C120 1.311 . S
O113 Zn104 1.977 . S
O113 C119 1.272 . S
O114 Zn104 1.910 . S
O114 C120 1.231 . S
C115 O99 1.225 . S
C115 O121 1.298 . S
C116 O105 1.226 1_554 S
C116 O106 1.307 . S
C117 O109 1.303 . S
C117 O110 1.247 . S
C118 O107 1.253 . S
C118 O108 1.283 . S
C119 O111 1.304 . S
C119 O113 1.272 . S
C120 O112 1.311 . S
C120 O114 1.231 . S
O121 Zn103 1.953 . S
O121 C115 1.298 . S
C122 C123 1.349 . S
C122 C124 1.327 . S
C122 H147 0.950 . S
C123 C122 1.349 . S
C123 C139 1.349 . S
C124 C122 1.327 . S
C124 C143 1.429 . S
C124 H148 0.950 . S
C125 C142 1.574 . S
C125 C144 1.368 . S
C125 H149 0.949 . S
H126 C130 0.949 . S
C127 C128 1.349 . S
C127 C129 1.327 . S
C127 H150 0.950 . S
C128 C127 1.349 . S
C128 C140 1.349 . S
C129 C127 1.327 . S
C129 C145 1.429 . S
C129 H151 0.950 . S
C130 H126 0.949 . S
C130 C138 1.574 . S
C130 C146 1.368 . S
H131 C139 0.950 . S
H132 C137 0.950 . S
H133 C138 0.949 . S
H134 C140 0.950 . S
H135 C141 0.950 . S
H136 C142 0.949 . S
C137 H132 0.950 . S
C137 C139 1.327 . S
C137 C143 1.429 . S
C138 C130 1.574 . S
C138 H133 0.949 . S
C138 C144 1.368 . S
C139 C123 1.349 . S
C139 H131 0.950 . S
C139 C137 1.327 . S
C140 C128 1.349 . S
C140 H134 0.950 . S
C140 C141 1.327 . S
C141 H135 0.950 . S
C141 C140 1.327 . S
C141 C145 1.429 . S
C142 C125 1.574 . S
C142 H136 0.949 . S
C142 C146 1.368 . S
C143 C124 1.429 . S
C143 C137 1.429 . S
C143 C144 1.523 . S
C144 C125 1.368 . S
C144 C138 1.368 . S
C144 C143 1.523 . S
C145 C129 1.429 . S
C145 C141 1.429 . S
C145 C146 1.523 . S
C146 C130 1.368 . S
C146 C142 1.368 . S
C146 C145 1.523 . S
H147 C122 0.950 . S
H148 C124 0.950 . S
H149 C125 0.949 . S
H150 C127 0.950 . S
H151 C129 0.950 . S
C152 C153 1.349 . S
C152 C154 1.327 . S
C152 H177 0.950 . S
C153 C152 1.349 . S
C153 C169 1.349 . S
C154 C152 1.327 . S
C154 C173 1.429 . S
C154 H178 0.950 . S
C155 C172 1.574 . S
C155 C174 1.362 1_556 S
C155 H179 0.955 . S
H156 C160 0.949 . S
C157 C158 1.349 . S
C157 C159 1.327 . S
C157 H180 0.950 1_554 S
C158 C157 1.349 . S
C158 C170 1.349 . S
C159 C157 1.327 . S
C159 C175 1.441 . S
C159 H181 0.937 1_554 S
C160 H156 0.949 . S
C160 C168 1.574 . S
C160 C176 1.368 . S
H161 C169 0.950 1_556 S
H162 C167 0.950 1_556 S
H163 C168 0.949 . S
H164 C170 0.950 . S
H165 C171 0.950 . S
H166 C172 0.959 . S
C167 H162 0.950 1_554 S
C167 C169 1.327 . S
C167 C173 1.429 . S
C168 C160 1.574 . S
C168 H163 0.949 . S
C168 C174 1.368 . S
C169 C153 1.349 . S
C169 H161 0.950 1_554 S
C169 C167 1.327 . S
C170 C158 1.349 . S
C170 H164 0.950 . S
C170 C171 1.327 . S
C171 H165 0.950 . S
C171 C170 1.327 . S
C171 C175 1.429 . S
C172 C155 1.574 . S
C172 H166 0.959 . S
C172 C176 1.357 1_556 S
C173 C154 1.429 . S
C173 C167 1.429 . S
C173 C174 1.523 . S
C174 C155 1.362 1_554 S
C174 C168 1.368 . S
C174 C173 1.523 . S
C175 C159 1.441 . S
C175 C171 1.429 . S
C175 C176 1.523 . S
C176 C160 1.368 . S
C176 C172 1.357 1_554 S
C176 C175 1.523 . S
H177 C152 0.950 . S
H178 C154 0.950 . S
H179 C155 0.955 . S
H180 C157 0.950 1_556 S
H181 C159 0.937 1_556 S
C182 C183 1.349 . S
C182 C184 1.327 . S
C182 H207 0.950 . S
C183 C182 1.349 . S
C183 C199 1.349 . S
C184 C182 1.327 . S
C184 C203 1.429 . S
C184 H208 0.950 . S
C185 C202 1.574 . S
C185 C204 1.368 . S
C185 H209 0.949 . S
H186 C190 0.949 . S
C187 C188 1.349 . S
C187 C189 1.327 . S
C187 H210 0.950 . S
C188 C187 1.349 . S
C188 C200 1.349 . S
C189 C187 1.327 . S
C189 C205 1.429 . S
C189 H211 0.950 . S
C190 H186 0.949 . S
C190 C198 1.574 . S
C190 C206 1.368 . S
H191 C199 0.950 . S
H192 C197 0.950 . S
H193 C198 0.949 . S
H194 C200 0.950 . S
H195 C201 0.950 . S
H196 C202 0.949 . S
C197 H192 0.950 . S
C197 C199 1.327 . S
C197 C203 1.429 . S
C198 C190 1.574 . S
C198 H193 0.949 . S
C198 C204 1.368 . S
C199 C183 1.349 . S
C199 H191 0.950 . S
C199 C197 1.327 . S
C200 C188 1.349 . S
C200 H194 0.950 . S
C200 C201 1.327 . S
C201 H195 0.950 . S
C201 C200 1.327 . S
C201 C205 1.429 . S
C202 C185 1.574 . S
C202 H196 0.949 . S
C202 C206 1.368 . S
C203 C184 1.429 . S
C203 C197 1.429 . S
C203 C204 1.523 . S
C204 C185 1.368 . S
C204 C198 1.368 . S
C204 C203 1.523 . S
C205 C189 1.429 . S
C205 C201 1.429 . S
C205 C206 1.523 . S
C206 C190 1.368 . S
C206 C202 1.368 . S
C206 C205 1.523 . S
H207 C182 0.950 . S
H208 C184 0.950 . S
H209 C185 0.949 . S
H210 C187 0.950 . S
H211 C189 0.950 . S
C212 C213 1.349 1_556 S
C212 C214 1.327 . S
C212 H237 0.950 . S
C213 C212 1.349 1_554 S
C213 C229 1.349 . S
C214 C212 1.327 . S
C214 C233 1.429 1_556 S
C214 H238 0.950 . S
C215 C232 1.574 . S
C215 C234 1.368 . S
C215 H239 0.949 . S
H216 C220 0.949 . S
C217 C218 1.349 . S
C217 C219 1.327 . S
C217 H240 0.950 . S
C218 C217 1.349 . S
C218 C230 1.336 1_554 S
C219 C217 1.327 . S
C219 C235 1.429 . S
C219 H241 0.950 . S
C220 H216 0.949 . S
C220 C228 1.574 . S
C220 C236 1.368 1_556 S
H221 C229 0.950 . S
H222 C227 0.950 . S
H223 C228 0.949 . S
H224 C230 0.963 . S
H225 C231 0.950 . S
H226 C232 0.949 . S
C227 H222 0.950 . S
C227 C229 1.327 . S
C227 C233 1.429 . S
C228 C220 1.574 . S
C228 H223 0.949 . S
C228 C234 1.368 1_556 S
C229 C213 1.349 . S
C229 H221 0.950 . S
C229 C227 1.327 . S
C230 C218 1.336 1_556 S
C230 H224 0.963 . S
C230 C231 1.328 . S
C231 H225 0.950 . S
C231 C230 1.328 . S
C231 C235 1.429 1_556 S
C232 C215 1.574 . S
C232 H226 0.949 . S
C232 C236 1.368 . S
C233 C214 1.429 1_554 S
C233 C227 1.429 . S
C233 C234 1.523 . S
C234 C215 1.368 . S
C234 C228 1.368 1_554 S
C234 C233 1.523 . S
C235 C219 1.429 . S
C235 C231 1.429 1_554 S
C235 C236 1.523 . S
C236 C220 1.368 1_554 S
C236 C232 1.368 . S
C236 C235 1.523 . S
H237 C212 0.950 . S
H238 C214 0.950 . S
H239 C215 0.949 . S
H240 C217 0.950 . S
H241 C219 0.950 . S
C242 C243 1.349 . S
C242 C244 1.327 . S
C242 H267 0.950 . S
C243 C242 1.349 . S
C243 C259 1.349 . S
C244 C242 1.327 . S
C244 C263 1.429 . S
C244 H268 0.950 . S
C245 C262 1.574 . S
C245 C264 1.368 . S
C245 H269 0.949 . S
H246 C250 0.949 . S
C247 C248 1.349 . S
C247 C249 1.327 . S
C247 H270 0.950 . S
C248 C247 1.349 . S
C248 C260 1.349 . S
C249 C247 1.327 . S
C249 C265 1.429 . S
C249 H271 0.950 . S
C250 H246 0.949 . S
C250 C258 1.574 . S
C250 C266 1.368 . S
H251 C259 0.950 . S
H252 C257 0.950 . S
H253 C258 0.949 . S
H254 C260 0.950 . S
H255 C261 0.950 . S
H256 C262 0.949 . S
C257 H252 0.950 . S
C257 C259 1.327 . S
C257 C263 1.429 . S
C258 C250 1.574 . S
C258 H253 0.949 . S
C258 C264 1.368 . S
C259 C243 1.349 . S
C259 H251 0.950 . S
C259 C257 1.327 . S
C260 C248 1.349 . S
C260 H254 0.950 . S
C260 C261 1.327 . S
C261 H255 0.950 . S
C261 C260 1.327 . S
C261 C265 1.429 . S
C262 C245 1.574 . S
C262 H256 0.949 . S
C262 C266 1.368 . S
C263 C244 1.429 . S
C263 C257 1.429 . S
C263 C264 1.523 . S
C264 C245 1.368 . S
C264 C258 1.368 . S
C264 C263 1.523 . S
C265 C249 1.429 . S
C265 C261 1.429 . S
C265 C266 1.523 . S
C266 C250 1.368 . S
C266 C262 1.368 . S
C266 C265 1.523 . S
H267 C242 0.950 . S
H268 C244 0.950 . S
H269 C245 0.949 . S
H270 C247 0.950 . S
H271 C249 0.950 . S
C272 C273 1.349 . S
C272 C274 1.327 . S
C272 H297 0.950 . S
C273 C272 1.349 . S
C273 C289 1.349 . S
C274 C272 1.327 . S
C274 C293 1.429 . S
C274 H298 0.950 . S
C275 C292 1.574 . S
C275 C294 1.368 . S
C275 H299 0.949 . S
H276 C280 0.949 . S
C277 C278 1.349 . S
C277 C279 1.327 . S
C277 H300 0.950 . S
C278 C277 1.349 . S
C278 C290 1.349 . S
C279 C277 1.327 . S
C279 C295 1.429 . S
C279 H301 0.950 . S
C280 H276 0.949 . S
C280 C288 1.574 . S
C280 C296 1.368 . S
H281 C289 0.950 . S
H282 C287 0.950 . S
H283 C288 0.949 . S
H284 C290 0.950 . S
H285 C291 0.950 . S
H286 C292 0.949 . S
C287 H282 0.950 . S
C287 C289 1.327 . S
C287 C293 1.429 . S
C288 C280 1.574 . S
C288 H283 0.949 . S
C288 C294 1.368 . S
C289 C273 1.349 . S
C289 H281 0.950 . S
C289 C287 1.327 . S
C290 C278 1.349 . S
C290 H284 0.950 . S
C290 C291 1.327 . S
C291 H285 0.950 . S
C291 C290 1.327 . S
C291 C295 1.429 . S
C292 C275 1.574 . S
C292 H286 0.949 . S
C292 C296 1.368 . S
C293 C274 1.429 . S
C293 C287 1.429 . S
C293 C294 1.523 . S
C294 C275 1.368 . S
C294 C288 1.368 . S
C294 C293 1.523 . S
C295 C279 1.429 . S
C295 C291 1.429 . S
C295 C296 1.523 . S
C296 C280 1.368 . S
C296 C292 1.368 . S
C296 C295 1.523 . S
H297 C272 0.950 . S
H298 C274 0.950 . S
H299 C275 0.949 . S
H300 C277 0.950 . S
H301 C279 0.950 . S
C302 C303 1.349 . S
C302 C304 1.327 . S
C302 H327 0.950 . S
C303 C302 1.349 . S
C303 C319 1.349 . S
C304 C302 1.327 . S
C304 C323 1.429 . S
C304 H328 0.950 . S
C305 C322 1.574 . S
C305 C324 1.368 . S
C305 H329 0.949 . S
H306 C310 0.949 . S
C307 C308 1.349 . S
C307 C309 1.327 . S
C307 H330 0.950 . S
C308 C307 1.349 . S
C308 C320 1.349 . S
C309 C307 1.327 . S
C309 C325 1.429 . S
C309 H331 0.950 . S
C310 H306 0.949 . S
C310 C318 1.574 . S
C310 C326 1.368 . S
H311 C319 0.950 . S
H312 C317 0.950 . S
H313 C318 0.949 . S
H314 C320 0.950 . S
H315 C321 0.950 . S
H316 C322 0.949 . S
C317 H312 0.950 . S
C317 C319 1.327 . S
C317 C323 1.429 . S
C318 C310 1.574 . S
C318 H313 0.949 . S
C318 C324 1.368 . S
C319 C303 1.349 . S
C319 H311 0.950 . S
C319 C317 1.327 . S
C320 C308 1.349 . S
C320 H314 0.950 . S
C320 C321 1.327 . S
C321 H315 0.950 . S
C321 C320 1.327 . S
C321 C325 1.429 . S
C322 C305 1.574 . S
C322 H316 0.949 . S
C322 C326 1.368 . S
C323 C304 1.429 . S
C323 C317 1.429 . S
C323 C324 1.523 . S
C324 C305 1.368 . S
C324 C318 1.368 . S
C324 C323 1.523 . S
C325 C309 1.429 . S
C325 C321 1.429 . S
C325 C326 1.523 . S
C326 C310 1.368 . S
C326 C322 1.368 . S
C326 C325 1.523 . S
H327 C302 0.950 . S
H328 C304 0.950 . S
H329 C305 0.949 . S
H330 C307 0.950 . S
H331 C309 0.950 . S
C332 C333 1.349 . S
C332 C334 1.327 . S
C332 H357 0.950 . S
C333 C332 1.349 . S
C333 C349 1.349 . S
C334 C332 1.327 . S
C334 C353 1.429 . S
C334 H358 0.950 . S
C335 C352 1.574 . S
C335 C354 1.368 . S
C335 H359 0.949 . S
H336 C340 0.949 . S
C337 C338 1.349 . S
C337 C339 1.327 . S
C337 H360 0.950 . S
C338 C337 1.349 . S
C338 C350 1.349 . S
C339 C337 1.327 . S
C339 C355 1.429 . S
C339 H361 0.950 . S
C340 H336 0.949 . S
C340 C348 1.574 . S
C340 C356 1.368 . S
H341 C349 0.950 . S
H342 C347 0.950 . S
H343 C348 0.949 . S
H344 C350 0.950 . S
H345 C351 0.950 . S
H346 C352 0.949 . S
C347 H342 0.950 . S
C347 C349 1.327 . S
C347 C353 1.429 . S
C348 C340 1.574 . S
C348 H343 0.949 . S
C348 C354 1.368 . S
C349 C333 1.349 . S
C349 H341 0.950 . S
C349 C347 1.327 . S
C350 C338 1.349 . S
C350 H344 0.950 . S
C350 C351 1.327 . S
C351 H345 0.950 . S
C351 C350 1.327 . S
C351 C355 1.429 . S
C352 C335 1.574 . S
C352 H346 0.949 . S
C352 C356 1.368 . S
C353 C334 1.429 . S
C353 C347 1.429 . S
C353 C354 1.523 . S
C354 C335 1.368 . S
C354 C348 1.368 . S
C354 C353 1.523 . S
C355 C339 1.429 . S
C355 C351 1.429 . S
C355 C356 1.523 . S
C356 C340 1.368 . S
C356 C352 1.368 . S
C356 C355 1.523 . S
H357 C332 0.950 . S
H358 C334 0.950 . S
H359 C335 0.949 . S
H360 C337 0.950 . S
H361 C339 0.950 . S
C362 C363 1.349 . S
C362 C364 1.327 . S
C362 H387 0.950 . S
C363 C362 1.349 . S
C363 C379 1.349 . S
C364 C362 1.327 . S
C364 C383 1.429 . S
C364 H388 0.950 . S
C365 C382 1.574 . S
C365 C384 1.368 . S
C365 H389 0.949 . S
H366 C370 0.949 . S
C367 C368 1.349 . S
C367 C369 1.327 . S
C367 H390 0.950 . S
C368 C367 1.349 . S
C368 C380 1.349 . S
C369 C367 1.327 . S
C369 C385 1.429 . S
C369 H391 0.950 . S
C370 H366 0.949 . S
C370 C378 1.574 . S
C370 C386 1.368 . S
H371 C379 0.950 . S
H372 C377 0.950 . S
H373 C378 0.949 . S
H374 C380 0.950 . S
H375 C381 0.950 . S
H376 C382 0.949 . S
C377 H372 0.950 . S
C377 C379 1.327 . S
C377 C383 1.429 . S
C378 C370 1.574 . S
C378 H373 0.949 . S
C378 C384 1.368 . S
C379 C363 1.349 . S
C379 H371 0.950 . S
C379 C377 1.327 . S
C380 C368 1.349 . S
C380 H374 0.950 . S
C380 C381 1.327 . S
C381 H375 0.950 . S
C381 C380 1.327 . S
C381 C385 1.429 . S
C382 C365 1.574 . S
C382 H376 0.949 . S
C382 C386 1.368 . S
C383 C364 1.429 . S
C383 C377 1.429 . S
C383 C384 1.523 . S
C384 C365 1.368 . S
C384 C378 1.368 . S
C384 C383 1.523 . S
C385 C369 1.429 . S
C385 C381 1.429 . S
C385 C386 1.523 . S
C386 C370 1.368 . S
C386 C382 1.368 . S
C386 C385 1.523 . S
H387 C362 0.950 . S
H388 C364 0.950 . S
H389 C365 0.949 . S
H390 C367 0.950 . S
H391 C369 0.950 . S
C392 C393 1.349 . S
C392 C394 1.327 . S
C392 H417 0.950 . S
C393 C392 1.349 . S
C393 C409 1.349 . S
C394 C392 1.327 . S
C394 C413 1.429 . S
C394 H418 0.950 . S
C395 C412 1.574 . S
C395 C414 1.368 . S
C395 H419 0.949 . S
H396 C400 0.949 . S
C397 C398 1.349 . S
C397 C399 1.327 . S
C397 H420 0.950 . S
C398 C397 1.349 . S
C398 C410 1.349 . S
C399 C397 1.327 . S
C399 C415 1.429 . S
C399 H421 0.950 . S
C400 H396 0.949 . S
C400 C408 1.574 . S
C400 C416 1.368 . S
H401 C409 0.950 . S
H402 C407 0.950 . S
H403 C408 0.949 . S
H404 C410 0.950 . S
H405 C411 0.950 . S
H406 C412 0.949 . S
C407 H402 0.950 . S
C407 C409 1.327 . S
C407 C413 1.429 . S
C408 C400 1.574 . S
C408 H403 0.949 . S
C408 C414 1.368 . S
C409 C393 1.349 . S
C409 H401 0.950 . S
C409 C407 1.327 . S
C410 C398 1.349 . S
C410 H404 0.950 . S
C410 C411 1.327 . S
C411 H405 0.950 . S
C411 C410 1.327 . S
C411 C415 1.429 . S
C412 C395 1.574 . S
C412 H406 0.949 . S
C412 C416 1.368 . S
C413 C394 1.429 . S
C413 C407 1.429 . S
C413 C414 1.523 . S
C414 C395 1.368 . S
C414 C408 1.368 . S
C414 C413 1.523 . S
C415 C399 1.429 . S
C415 C411 1.429 . S
C415 C416 1.523 . S
C416 C400 1.368 . S
C416 C412 1.368 . S
C416 C415 1.523 . S
H417 C392 0.950 . S
H418 C394 0.950 . S
H419 C395 0.949 . S
H420 C397 0.950 . S
H421 C399 0.950 . S
C422 C423 1.349 . S
C422 C424 1.327 . S
C422 H447 0.950 . S
C423 C422 1.349 . S
C423 C439 1.349 . S
C424 C422 1.327 . S
C424 C443 1.429 . S
C424 H448 0.950 . S
C425 C442 1.574 . S
C425 C444 1.368 . S
C425 H449 0.949 . S
H426 C430 0.949 . S
C427 C428 1.349 . S
C427 C429 1.327 . S
C427 H450 0.950 . S
C428 C427 1.349 . S
C428 C440 1.349 . S
C429 C427 1.327 . S
C429 C445 1.429 . S
C429 H451 0.950 . S
C430 H426 0.949 . S
C430 C438 1.574 . S
C430 C446 1.368 . S
H431 C439 0.950 . S
H432 C437 0.950 . S
H433 C438 0.949 . S
H434 C440 0.950 . S
H435 C441 0.950 . S
H436 C442 0.949 . S
C437 H432 0.950 . S
C437 C439 1.327 . S
C437 C443 1.429 . S
C438 C430 1.574 . S
C438 H433 0.949 . S
C438 C444 1.368 . S
C439 C423 1.349 . S
C439 H431 0.950 . S
C439 C437 1.327 . S
C440 C428 1.349 . S
C440 H434 0.950 . S
C440 C441 1.327 . S
C441 H435 0.950 . S
C441 C440 1.327 . S
C441 C445 1.429 . S
C442 C425 1.574 . S
C442 H436 0.949 . S
C442 C446 1.368 . S
C443 C424 1.429 . S
C443 C437 1.429 . S
C443 C444 1.523 . S
C444 C425 1.368 . S
C444 C438 1.368 . S
C444 C443 1.523 . S
C445 C429 1.429 . S
C445 C441 1.429 . S
C445 C446 1.523 . S
C446 C430 1.368 . S
C446 C442 1.368 . S
C446 C445 1.523 . S
H447 C422 0.950 . S
H448 C424 0.950 . S
H449 C425 0.949 . S
H450 C427 0.950 . S
H451 C429 0.950 . S
C452 C453 1.349 . S
C452 C454 1.327 . S
C452 H477 0.950 . S
C453 C452 1.349 . S
C453 C469 1.349 . S
C454 C452 1.327 . S
C454 C473 1.429 . S
C454 H478 0.950 . S
C455 C472 1.574 . S
C455 C474 1.368 . S
C455 H479 0.949 . S
H456 C460 0.949 . S
C457 C458 1.349 . S
C457 C459 1.327 . S
C457 H480 0.950 . S
C458 C457 1.349 . S
C458 C470 1.349 . S
C459 C457 1.327 . S
C459 C475 1.429 . S
C459 H481 0.950 . S
C460 H456 0.949 . S
C460 C468 1.574 . S
C460 C476 1.368 . S
H461 C469 0.950 . S
H462 C467 0.950 . S
H463 C468 0.949 . S
H464 C470 0.950 . S
H465 C471 0.950 . S
H466 C472 0.949 . S
C467 H462 0.950 . S
C467 C469 1.327 . S
C467 C473 1.429 . S
C468 C460 1.574 . S
C468 H463 0.949 . S
C468 C474 1.368 . S
C469 C453 1.349 . S
C469 H461 0.950 . S
C469 C467 1.327 . S
C470 C458 1.349 . S
C470 H464 0.950 . S
C470 C471 1.327 . S
C471 H465 0.950 . S
C471 C470 1.327 . S
C471 C475 1.429 . S
C472 C455 1.574 . S
C472 H466 0.949 . S
C472 C476 1.368 . S
C473 C454 1.429 . S
C473 C467 1.429 . S
C473 C474 1.523 . S
C474 C455 1.368 . S
C474 C468 1.368 . S
C474 C473 1.523 . S
C475 C459 1.429 . S
C475 C471 1.429 . S
C475 C476 1.523 . S
C476 C460 1.368 . S
C476 C472 1.368 . S
C476 C475 1.523 . S
H477 C452 0.950 . S
H478 C454 0.950 . S
H479 C455 0.949 . S
H480 C457 0.950 . S
H481 C459 0.950 . S
C128 C93 1.538 . S
C123 C68 1.412 . S
C153 C11 1.414 . S
C158 C116 1.541 . S
C183 C30 1.459 . S
C188 C92 1.579 . S
C213 C49 1.449 . S
C218 C115 1.577 . S
C248 C96 1.523 . S
C243 C2 1.518 . S
C278 C118 1.548 . S
C273 C25 1.597 . S
C303 C40 1.537 . S
C308 C97 1.520 . S
C333 C59 1.550 . S
C338 C117 1.528 . S
C368 C120 1.404 . S
C363 C21 1.418 . S
C398 C95 1.436 . S
C393 C44 1.486 . S
C428 C119 1.412 . S
C423 C63 1.445 . S
C453 C6 1.468 . S
C458 C94 1.418 . S
