# Generated by pormake.
# Topology pyr, (3,6)-cn, num edge types: 1
# Building blocks:
#     Node 0, Type 0, BuildingBlock: MIDCAF_clean_linker_0, # of connection points: 3
#     Node 1, Type 0, BuildingBlock: MIDCAF_clean_linker_0, # of connection points: 3
#     Node 2, Type 0, BuildingBlock: MIDCAF_clean_linker_0, # of connection points: 3
#     Node 3, Type 0, BuildingBlock: MIDCAF_clean_linker_0, # of connection points: 3
#     Node 4, Type 0, BuildingBlock: MIDCAF_clean_linker_0, # of connection points: 3
#     Node 5, Type 0, BuildingBlock: MIDCAF_clean_linker_0, # of connection points: 3
#     Node 6, Type 0, BuildingBlock: MIDCAF_clean_linker_0, # of connection points: 3
#     Node 7, Type 0, BuildingBlock: MIDCAF_clean_linker_0, # of connection points: 3
#     Node 8, Type 1, BuildingBlock: BETGAK_clean_sbu_0, # of connection points: 6
#     Node 9, Type 1, BuildingBlock: BETGAK_clean_sbu_0, # of connection points: 6
#     Node 10, Type 1, BuildingBlock: BETGAK_clean_sbu_0, # of connection points: 6
#     Node 11, Type 1, BuildingBlock: BETGAK_clean_sbu_0, # of connection points: 6
#     Edge 12, Type (0, 1), BuildingBlock: UVAHIK_clean_linker_0, # of connection points: 2
#     Edge 13, Type (0, 1), BuildingBlock: UVAHIK_clean_linker_0, # of connection points: 2
#     Edge 14, Type (0, 1), BuildingBlock: UVAHIK_clean_linker_0, # of connection points: 2
#     Edge 15, Type (0, 1), BuildingBlock: UVAHIK_clean_linker_0, # of connection points: 2
#     Edge 16, Type (0, 1), BuildingBlock: UVAHIK_clean_linker_0, # of connection points: 2
#     Edge 17, Type (0, 1), BuildingBlock: UVAHIK_clean_linker_0, # of connection points: 2
#     Edge 18, Type (0, 1), BuildingBlock: UVAHIK_clean_linker_0, # of connection points: 2
#     Edge 19, Type (0, 1), BuildingBlock: UVAHIK_clean_linker_0, # of connection points: 2
#     Edge 20, Type (0, 1), BuildingBlock: UVAHIK_clean_linker_0, # of connection points: 2
#     Edge 21, Type (0, 1), BuildingBlock: UVAHIK_clean_linker_0, # of connection points: 2
#     Edge 22, Type (0, 1), BuildingBlock: UVAHIK_clean_linker_0, # of connection points: 2
#     Edge 23, Type (0, 1), BuildingBlock: UVAHIK_clean_linker_0, # of connection points: 2
#     Edge 24, Type (0, 1), BuildingBlock: UVAHIK_clean_linker_0, # of connection points: 2
#     Edge 25, Type (0, 1), BuildingBlock: UVAHIK_clean_linker_0, # of connection points: 2
#     Edge 26, Type (0, 1), BuildingBlock: UVAHIK_clean_linker_0, # of connection points: 2
#     Edge 27, Type (0, 1), BuildingBlock: UVAHIK_clean_linker_0, # of connection points: 2
#     Edge 28, Type (0, 1), BuildingBlock: UVAHIK_clean_linker_0, # of connection points: 2
#     Edge 29, Type (0, 1), BuildingBlock: UVAHIK_clean_linker_0, # of connection points: 2
#     Edge 30, Type (0, 1), BuildingBlock: UVAHIK_clean_linker_0, # of connection points: 2
#     Edge 31, Type (0, 1), BuildingBlock: UVAHIK_clean_linker_0, # of connection points: 2
#     Edge 32, Type (0, 1), BuildingBlock: UVAHIK_clean_linker_0, # of connection points: 2
#     Edge 33, Type (0, 1), BuildingBlock: UVAHIK_clean_linker_0, # of connection points: 2
#     Edge 34, Type (0, 1), BuildingBlock: UVAHIK_clean_linker_0, # of connection points: 2
#     Edge 35, Type (0, 1), BuildingBlock: UVAHIK_clean_linker_0, # of connection points: 2
# Relax obj value: 0.074
# Max RMSD: 0.116
# Mean RMSD: 0.054
data_MOF--net-pyr--node1-BETGAK_clean_sbu_0--node2-MIDCAF_clean_linker_0--edge1-UVAHIK_clean_linker_0
_symmetry_space_group_name_H-M    P1
_symmetry_Int_Tables_number       1
_symmetry_cell_setting            triclinic
loop_
_symmetry_equiv_pos_as_xyz
'x, y, z'
_cell_length_a     57.997199
_cell_length_b     59.704497
_cell_length_c     54.316544
_cell_angle_alpha  90.519376
_cell_angle_beta   88.737805
_cell_angle_gamma 99.486838
loop_
_atom_site_label
_atom_site_type_symbol
_atom_site_fract_x
_atom_site_fract_y
_atom_site_fract_z
_atom_type_partial_charge
C0 C 0.25993 0.26668 0.30647 0.0
C1 C 0.26689 0.24862 0.31926 0.0
C2 C 0.28808 0.24155 0.31229 0.0
C3 C 0.30103 0.25109 0.29186 0.0
H4 H 0.35114 0.2376 0.24083 0.0
H5 H 0.37308 0.21099 0.22086 0.0
H6 H 0.35761 0.23594 0.14966 0.0
H7 H 0.33613 0.26313 0.16972 0.0
H8 H 0.29573 0.29858 0.16908 0.0
H9 H 0.27337 0.32422 0.14899 0.0
H10 H 0.27182 0.3625 0.21682 0.0
H11 H 0.29307 0.33622 0.23702 0.0
H12 H 0.26642 0.28949 0.27614 0.0
H13 H 0.24363 0.27248 0.31109 0.0
H14 H 0.29428 0.22806 0.3221 0.0
H15 H 0.3167 0.24452 0.28634 0.0
N16 N 0.31904 0.26279 0.2427 0.0
N17 N 0.31957 0.28453 0.20681 0.0
N18 N 0.29759 0.29264 0.2416 0.0
C19 C 0.32686 0.26733 0.21921 0.0
C20 C 0.3052 0.29747 0.21814 0.0
C21 C 0.30433 0.27529 0.25401 0.0
C22 C 0.34171 0.25243 0.20688 0.0
C23 C 0.3525 0.23755 0.2209 0.0
C24 C 0.36498 0.22216 0.20944 0.0
C25 C 0.36687 0.22108 0.18363 0.0
C26 C 0.35667 0.23641 0.16958 0.0
C27 C 0.34429 0.25198 0.18109 0.0
C28 C 0.29581 0.31524 0.20468 0.0
C29 C 0.29094 0.31274 0.1795 0.0
C30 C 0.27817 0.3275 0.168 0.0
C31 C 0.27034 0.34522 0.1814 0.0
C32 C 0.27688 0.34864 0.20611 0.0
C33 C 0.28923 0.3337 0.21767 0.0
C34 C 0.29319 0.26808 0.27809 0.0
C35 C 0.27299 0.27638 0.28623 0.0
C36 C 0.25932 0.92255 0.61109 0.0
C37 C 0.24161 0.91406 0.59463 0.0
C38 C 0.24356 0.89439 0.58087 0.0
C39 C 0.26304 0.88369 0.58316 0.0
H40 H 0.29175 0.83044 0.55659 0.0
H41 H 0.29565 0.79728 0.53126 0.0
H42 H 0.36537 0.79848 0.55818 0.0
H43 H 0.3617 0.83166 0.58327 0.0
H44 H 0.37088 0.85598 0.63875 0.0
H45 H 0.39657 0.8676 0.6733 0.0
H46 H 0.36824 0.92993 0.68021 0.0
H47 H 0.3428 0.91854 0.64581 0.0
H48 H 0.29226 0.919 0.62607 0.0
H49 H 0.25843 0.93782 0.62173 0.0
H50 H 0.23001 0.88726 0.5683 0.0
H51 H 0.264 0.86863 0.57216 0.0
N52 N 0.30469 0.86355 0.58645 0.0
N53 N 0.34003 0.86071 0.6054 0.0
N54 N 0.31835 0.88871 0.61819 0.0
C55 C 0.32374 0.85321 0.58827 0.0
C56 C 0.33745 0.87851 0.62038 0.0
C57 C 0.30187 0.88132 0.60133 0.0
C58 C 0.32639 0.83368 0.5721 0.0
C59 C 0.30801 0.82378 0.55697 0.0
C60 C 0.31018 0.80475 0.54248 0.0
C61 C 0.33083 0.79538 0.54265 0.0
C62 C 0.34936 0.80556 0.55734 0.0
C63 C 0.34717 0.82447 0.57193 0.0
C64 C 0.35464 0.88625 0.63966 0.0
C65 C 0.37039 0.87231 0.64742 0.0
C66 C 0.38502 0.87889 0.66725 0.0
C67 C 0.38439 0.89965 0.67943 0.0
C68 C 0.36933 0.91395 0.671 0.0
C69 C 0.35458 0.90731 0.65141 0.0
C70 C 0.28098 0.89238 0.59931 0.0
C71 C 0.27879 0.91182 0.61343 0.0
C72 C 0.64749 0.27928 0.8924 0.0
C73 C 0.62307 0.27205 0.89225 0.0
C74 C 0.60929 0.28666 0.88154 0.0
C75 C 0.61955 0.30763 0.87142 0.0
H76 H 0.61924 0.35009 0.80532 0.0
H77 H 0.60236 0.36819 0.77146 0.0
H78 H 0.6493 0.43071 0.78554 0.0
H79 H 0.66617 0.41274 0.81936 0.0
H80 H 0.71184 0.41055 0.85187 0.0
H81 H 0.74811 0.42923 0.87013 0.0
H82 H 0.74565 0.3733 0.9205 0.0
H83 H 0.7098 0.3544 0.90196 0.0
H84 H 0.67645 0.30536 0.88352 0.0
H85 H 0.65899 0.26856 0.89972 0.0
H86 H 0.59045 0.28221 0.88132 0.0
H87 H 0.60835 0.31842 0.86357 0.0
N88 N 0.64475 0.34796 0.84436 0.0
N89 N 0.67522 0.37924 0.84584 0.0
N90 N 0.6752 0.34838 0.87227 0.0
C91 C 0.6549 0.36875 0.83573 0.0
C92 C 0.68551 0.36921 0.86414 0.0
C93 C 0.65483 0.33764 0.86262 0.0
C94 C 0.64415 0.37986 0.81524 0.0
C95 C 0.62596 0.36772 0.8013 0.0
C96 C 0.61635 0.37808 0.78172 0.0
C97 C 0.62443 0.40096 0.77567 0.0
C98 C 0.64244 0.41315 0.78976 0.0
C99 C 0.65223 0.40274 0.80914 0.0
C100 C 0.70773 0.38085 0.8753 0.0
C101 C 0.71901 0.40218 0.86682 0.0
C102 C 0.73982 0.413 0.87743 0.0
C103 C 0.74999 0.40285 0.89685 0.0
C104 C 0.73866 0.38155 0.90534 0.0
C105 C 0.7179 0.37073 0.89474 0.0
C106 C 0.64385 0.31492 0.8722 0.0
C107 C 0.65764 0.30045 0.88283 0.0
C108 C 0.77982 0.65991 0.41543 0.0
C109 C 0.76237 0.64618 0.40184 0.0
C110 C 0.76698 0.64268 0.37659 0.0
C111 C 0.78821 0.65265 0.36537 0.0
H112 H 0.83574 0.64427 0.30713 0.0
H113 H 0.85202 0.62644 0.27189 0.0
H114 H 0.91734 0.67237 0.27951 0.0
H115 H 0.90072 0.69075 0.31433 0.0
H116 H 0.89755 0.7381 0.348 0.0
H117 H 0.91629 0.77409 0.36594 0.0
H118 H 0.86698 0.76467 0.42715 0.0
H119 H 0.84851 0.72882 0.40958 0.0
H120 H 0.81361 0.68077 0.41522 0.0
H121 H 0.7775 0.66264 0.43498 0.0
H122 H 0.75404 0.6326 0.36524 0.0
H123 H 0.79102 0.64973 0.34591 0.0
N124 N 0.83637 0.66926 0.34648 0.0
N125 N 0.86826 0.69927 0.34587 0.0
N126 N 0.83914 0.69773 0.37681 0.0
C127 C 0.85687 0.67956 0.33583 0.0
C128 C 0.85943 0.70855 0.36634 0.0
C129 C 0.82745 0.67818 0.36704 0.0
C130 C 0.86685 0.66902 0.31378 0.0
C131 C 0.85358 0.65067 0.30132 0.0
C132 C 0.86303 0.64027 0.28109 0.0
C133 C 0.88617 0.64772 0.27271 0.0
C134 C 0.89939 0.66623 0.28506 0.0
C135 C 0.88986 0.67676 0.30521 0.0
C136 C 0.87145 0.73037 0.37725 0.0
C137 C 0.89075 0.74364 0.36534 0.0
C138 C 0.90143 0.7644 0.37556 0.0
C139 C 0.89322 0.77236 0.39807 0.0
C140 C 0.87404 0.75901 0.41 0.0
C141 C 0.86331 0.73841 0.39975 0.0
C142 C 0.80525 0.66678 0.37894 0.0
C143 C 0.80077 0.67024 0.4041 0.0
C144 C 0.64389 0.82924 0.85684 0.0
C145 C 0.64274 0.82992 0.88268 0.0
C146 C 0.65432 0.81525 0.89608 0.0
C147 C 0.66732 0.80061 0.88387 0.0
H148 H 0.71002 0.7521 0.8949 0.0
H149 H 0.73299 0.72791 0.91649 0.0
H150 H 0.75587 0.70299 0.84677 0.0
H151 H 0.73296 0.72701 0.82517 0.0
H152 H 0.73774 0.7623 0.77936 0.0
H153 H 0.76362 0.7808 0.7469 0.0
H154 H 0.73369 0.84189 0.7569 0.0
H155 H 0.70768 0.82353 0.78923 0.0
H156 H 0.6581 0.81519 0.82471 0.0
H157 H 0.63528 0.84047 0.84603 0.0
H158 H 0.65355 0.81531 0.91602 0.0
H159 H 0.6765 0.78991 0.89473 0.0
N160 N 0.69335 0.77008 0.85664 0.0
N161 N 0.71695 0.76513 0.82205 0.0
N162 N 0.69334 0.79333 0.82204 0.0
C163 C 0.70907 0.75878 0.84508 0.0
C164 C 0.70923 0.78239 0.8104 0.0
C165 C 0.68514 0.78718 0.84503 0.0
C166 C 0.71985 0.74167 0.8583 0.0
C167 C 0.71957 0.74113 0.88418 0.0
C168 C 0.73283 0.7274 0.89655 0.0
C169 C 0.74635 0.71372 0.8833 0.0
C170 C 0.74552 0.71325 0.85749 0.0
C171 C 0.73249 0.72714 0.84512 0.0
C172 C 0.72093 0.79156 0.78725 0.0
C173 C 0.73624 0.77949 0.77425 0.0
C174 C 0.75098 0.79001 0.75555 0.0
C175 C 0.75081 0.81283 0.74969 0.0
C176 C 0.73428 0.82432 0.7613 0.0
C177 C 0.71935 0.81375 0.77977 0.0
C178 C 0.66926 0.80061 0.85801 0.0
C179 C 0.65709 0.81484 0.84465 0.0
C180 C 0.68264 0.16788 0.37081 0.0
C181 C 0.66583 0.18066 0.36319 0.0
C182 C 0.6589 0.19691 0.37938 0.0
C183 C 0.66878 0.20045 0.40265 0.0
H184 H 0.67952 0.24697 0.46079 0.0
H185 H 0.66832 0.27592 0.48825 0.0
H186 H 0.69573 0.2445 0.55002 0.0
H187 H 0.70719 0.21535 0.52245 0.0
H188 H 0.75525 0.19162 0.50018 0.0
H189 H 0.78652 0.17045 0.50978 0.0
H190 H 0.76316 0.12186 0.45255 0.0
H191 H 0.73194 0.14287 0.44287 0.0
H192 H 0.70537 0.16115 0.39916 0.0
H193 H 0.68806 0.15496 0.35891 0.0
H194 H 0.64609 0.20712 0.37394 0.0
H195 H 0.66318 0.21322 0.41462 0.0
N196 N 0.69062 0.20764 0.45028 0.0
N197 N 0.7169 0.19847 0.47934 0.0
N198 N 0.71267 0.17891 0.44169 0.0
C199 C 0.7007 0.21117 0.47266 0.0
C200 C 0.72297 0.18231 0.46389 0.0
C201 C 0.69649 0.19148 0.43471 0.0
C202 C 0.69423 0.22885 0.48943 0.0
C203 C 0.68324 0.24619 0.48019 0.0
C204 C 0.67699 0.26289 0.49588 0.0
C205 C 0.68136 0.26249 0.52118 0.0
C206 C 0.69223 0.24514 0.53055 0.0
C207 C 0.69882 0.22856 0.51476 0.0
C208 C 0.74115 0.16897 0.47071 0.0
C209 C 0.75666 0.17633 0.48977 0.0
C210 C 0.77464 0.16432 0.49517 0.0
C211 C 0.77722 0.14459 0.48186 0.0
C212 C 0.76142 0.13694 0.4632 0.0
C213 C 0.74364 0.14907 0.45759 0.0
C214 C 0.68572 0.18773 0.41021 0.0
C215 C 0.69246 0.17136 0.394 0.0
C216 C 0.27931 0.64285 0.17971 0.0
C217 C 0.26495 0.65545 0.16683 0.0
C218 C 0.27187 0.6792 0.16562 0.0
C219 C 0.29258 0.68988 0.17644 0.0
H220 H 0.33892 0.75234 0.18063 0.0
H221 H 0.35664 0.7889 0.16406 0.0
H222 H 0.42506 0.77462 0.18196 0.0
H223 H 0.40693 0.7386 0.20003 0.0
H224 H 0.40362 0.70057 0.24851 0.0
H225 H 0.42048 0.68219 0.28206 0.0
H226 H 0.35696 0.6332 0.28874 0.0
H227 H 0.34054 0.65101 0.25475 0.0
H228 H 0.31046 0.64327 0.20042 0.0
H229 H 0.27502 0.62454 0.18081 0.0
H230 H 0.26121 0.68972 0.15649 0.0
H231 H 0.29727 0.70815 0.17495 0.0
N232 N 0.3396 0.70944 0.19213 0.0
N233 N 0.37049 0.70923 0.21938 0.0
N234 N 0.33951 0.6784 0.21832 0.0
C235 C 0.36029 0.71982 0.20139 0.0
C236 C 0.36008 0.68857 0.22816 0.0
C237 C 0.32917 0.68867 0.20027 0.0
C238 C 0.37146 0.74245 0.1917 0.0
C239 C 0.35776 0.75705 0.18113 0.0
C240 C 0.36806 0.77808 0.17134 0.0
C241 C 0.39252 0.78505 0.17123 0.0
C242 C 0.4062 0.77035 0.18193 0.0
C243 C 0.3958 0.74949 0.19223 0.0
C244 C 0.37066 0.67733 0.24868 0.0
C245 C 0.39325 0.68583 0.25707 0.0
C246 C 0.4029 0.67532 0.27653 0.0
C247 C 0.39021 0.65606 0.28837 0.0
C248 C 0.36759 0.64766 0.27996 0.0
C249 C 0.35804 0.65804 0.26042 0.0
C250 C 0.30687 0.67725 0.18924 0.0
C251 C 0.29983 0.6536 0.19091 0.0
C252 C 0.14343 0.29771 0.65903 0.0
C253 C 0.12377 0.28464 0.67043 0.0
C254 C 0.11469 0.29306 0.69227 0.0
C255 C 0.12492 0.31408 0.70227 0.0
H256 H 0.11524 0.36412 0.75509 0.0
H257 H 0.09724 0.38229 0.78916 0.0
H258 H 0.1552 0.4379 0.78771 0.0
H259 H 0.17295 0.42006 0.75336 0.0
H260 H 0.21379 0.42181 0.71199 0.0
H261 H 0.24985 0.44051 0.69175 0.0
H262 H 0.2465 0.38454 0.64034 0.0
H263 H 0.21051 0.36612 0.66009 0.0
H264 H 0.16884 0.32797 0.6596 0.0
H265 H 0.15115 0.29169 0.64242 0.0
H266 H 0.09946 0.28355 0.70147 0.0
H267 H 0.11739 0.32003 0.71902 0.0
N268 N 0.14612 0.35925 0.72075 0.0
N269 N 0.17685 0.39037 0.71922 0.0
N270 N 0.1761 0.36046 0.69085 0.0
C271 C 0.15649 0.37973 0.72992 0.0
C272 C 0.1868 0.38083 0.69966 0.0
C273 C 0.15584 0.34948 0.70117 0.0
C274 C 0.14561 0.39056 0.75123 0.0
C275 C 0.12421 0.38022 0.76199 0.0
C276 C 0.1139 0.39061 0.78173 0.0
C277 C 0.12465 0.41168 0.79132 0.0
C278 C 0.14614 0.4219 0.78067 0.0
C279 C 0.15644 0.41153 0.76096 0.0
C280 C 0.20902 0.39241 0.68773 0.0
C281 C 0.22072 0.41348 0.69636 0.0
C282 C 0.24151 0.42418 0.68481 0.0
C283 C 0.25112 0.41415 0.66426 0.0
C284 C 0.23948 0.39304 0.65579 0.0
C285 C 0.2188 0.38235 0.66731 0.0
C286 C 0.14461 0.32713 0.69079 0.0
C287 C 0.1537 0.31856 0.66905 0.0
La288 La 0.01627 0.03861 0.51029 0.0
La289 La 0.00331 1.01714 0.55943 0.0
C290 C 0.0212 0.05523 0.46782 0.0
C291 C 0.04048 0.07139 0.45665 0.0
C292 C 0.06384 0.06898 0.46048 0.0
C293 C 0.08212 0.08472 0.45079 0.0
C294 C 0.07752 0.10333 0.43721 0.0
C295 C 0.05416 0.10585 0.43348 0.0
C296 C 0.03577 0.08994 0.44308 0.0
C297 C 0.05076 1.02491 0.53338 0.0
C298 C 0.02875 0.06894 0.55647 0.0
C299 C 0.99999 1.00057 0.60199 0.0
C300 C 0.98407 0.9817 0.61368 0.0
C301 C 0.97177 0.98594 0.63524 0.0
C302 C 0.95481 0.96906 0.64538 0.0
C303 C 0.94996 0.94742 0.63431 0.0
C304 C 0.96283 0.94303 0.61305 0.0
C305 C 0.97962 0.96004 0.60273 0.0
C306 C 0.96881 0.03097 0.53642 0.0
C307 C 0.99008 0.98711 0.51329 0.0
O308 O 0.02617 0.03528 0.47332 0.0
O309 O 0.00917 0.06339 0.48546 0.0
O310 O 0.05334 0.04243 0.51919 0.0
O311 O 0.03001 1.01492 0.53268 0.0
O312 O 0.02403 0.06906 0.53279 0.0
O313 O 0.02475 0.0499 0.56943 0.0
O314 O 0.99021 1.01785 0.59566 0.0
O315 O 0.01459 0.99529 0.58497 0.0
O316 O 0.96625 1.01328 0.55045 0.0
O317 O 0.98961 0.04092 0.53712 0.0
O318 O 0.99529 0.98677 0.53685 0.0
O319 O 0.99371 1.00633 0.50057 0.0
H320 H 0.06806 0.05504 0.47117 0.0
H321 H 0.09993 0.08253 0.45432 0.0
H322 H 0.05012 0.12 0.42298 0.0
H323 H 0.01789 0.0922 0.44007 0.0
H324 H 0.97478 1.00259 0.64384 0.0
H325 H 0.94499 0.97326 0.66147 0.0
H326 H 0.95984 0.9265 0.60423 0.0
H327 H 0.98877 0.95633 0.58597 0.0
La328 La 0.52957 0.03611 0.04393 0.0
La329 La 0.48559 1.02059 1.01824 0.0
C330 C 0.56469 0.06007 0.06289 0.0
C331 C 0.56967 0.07341 0.08549 0.0
C332 C 0.55534 0.06907 0.10662 0.0
C333 C 0.56101 0.08135 0.1283 0.0
C334 C 0.58101 0.09825 0.12909 0.0
C335 C 0.59484 0.10296 0.10755 0.0
C336 C 0.58923 0.09059 0.08598 0.0
C337 C 0.50576 0.99745 0.06102 0.0
C338 C 0.48276 0.05364 0.06175 0.0
C339 C 0.45125 0.9973 0.99727 0.0
C340 C 0.44863 0.98704 0.97269 0.0
C341 C 0.46702 0.99127 0.95528 0.0
C342 C 0.46433 0.98215 0.93158 0.0
C343 C 0.44314 0.96871 0.92487 0.0
C344 C 0.42487 0.96423 0.94255 0.0
C345 C 0.42763 0.97333 0.96631 0.0
C346 C 0.50976 0.05911 1.00105 0.0
C347 C 0.53218 1.00224 1.00112 0.0
O348 O 0.55928 0.03809 0.06562 0.0
O349 O 0.5511 0.06787 0.04738 0.0
O350 O 0.5283 1.00272 0.06057 0.0
O351 O 0.49718 1.01441 0.05411 0.0
O352 O 0.50589 0.05719 0.06101 0.0
O353 O 0.47059 0.03693 0.04909 0.0
O354 O 0.45523 1.01948 0.99771 0.0
O355 O 0.46514 0.98871 1.01182 0.0
O356 O 0.48722 0.05412 1.0017 0.0
O357 O 0.51804 0.042 1.00795 0.0
O358 O 0.50908 0.99916 1.00158 0.0
O359 O 0.54454 1.01873 1.01387 0.0
H360 H 0.54002 0.05594 0.10646 0.0
H361 H 0.5501 0.07715 0.14458 0.0
H362 H 0.61008 0.11617 0.10737 0.0
H363 H 0.60031 0.09429 0.06971 0.0
H364 H 0.48334 1.00195 0.95991 0.0
H365 H 0.4786 0.98616 0.91832 0.0
H366 H 0.40844 0.95373 0.93799 0.0
H367 H 0.41331 0.96986 0.97961 0.0
La368 La 0.51062 0.50977 0.51621 0.0
La369 La 0.50277 0.5474 0.54877 0.0
C370 C 0.52928 0.47926 0.49573 0.0
C371 C 0.53922 0.46056 0.50695 0.0
C372 C 0.52485 0.43988 0.51288 0.0
C373 C 0.53367 0.42329 0.52604 0.0
C374 C 0.55705 0.427 0.53349 0.0
C375 C 0.57154 0.44743 0.52707 0.0
C376 C 0.56276 0.46398 0.51386 0.0
C377 C 0.46853 0.50462 0.537 0.0
C378 C 0.52683 0.51064 0.57297 0.0
C379 C 0.48316 0.57656 0.57071 0.0
C380 C 0.46443 0.58853 0.56276 0.0
C381 C 0.46671 0.61205 0.56623 0.0
C382 C 0.4505 0.62406 0.55619 0.0
C383 C 0.43171 0.61272 0.54252 0.0
C384 C 0.42908 0.58905 0.53967 0.0
C385 C 0.44537 0.57706 0.5496 0.0
C386 C 0.54498 0.55268 0.52816 0.0
C387 C 0.48711 0.54636 0.49217 0.0
O388 O 0.50661 0.4782 0.49805 0.0
O389 O 0.54047 0.49977 0.50003 0.0
O390 O 0.47284 0.49812 0.51478 0.0
O391 O 0.48757 0.51254 0.54701 0.0
O392 O 0.52736 0.50181 0.55051 0.0
O393 O 0.51646 0.52841 0.5775 0.0
O394 O 0.50293 0.58158 0.55838 0.0
O395 O 0.47729 0.55468 0.57421 0.0
O396 O 0.54043 0.55934 0.55029 0.0
O397 O 0.52599 0.54465 0.51803 0.0
O398 O 0.48311 0.55251 0.51522 0.0
O399 O 0.50081 0.53117 0.48742 0.0
H400 H 0.50663 0.43669 0.50782 0.0
H401 H 0.5221 0.40768 0.53071 0.0
H402 H 0.58978 0.45054 0.53204 0.0
H403 H 0.57435 0.47964 0.50947 0.0
H404 H 0.48135 0.62119 0.57619 0.0
H405 H 0.45272 0.64226 0.55903 0.0
H406 H 0.41487 0.57991 0.52909 0.0
H407 H 0.44338 0.55891 0.54637 0.0
La408 La 0.00987 0.50534 0.04281 0.0
La409 La 1.00273 0.55347 1.02466 0.0
C410 C 0.02602 0.4694 0.05021 0.0
C411 C 0.04761 0.46326 0.05989 0.0
C412 C 0.05923 0.4752 0.07964 0.0
C413 C 0.0795 0.46874 0.08875 0.0
C414 C 0.08859 0.45036 0.07813 0.0
C415 C 0.07712 0.43877 0.05806 0.0
C416 C 0.0568 0.44516 0.04906 0.0
C417 C 0.98575 0.52873 0.07232 0.0
C418 C 0.04991 0.54909 0.05137 0.0
C419 C 0.98679 0.59011 1.02494 0.0
C420 C 0.96985 0.60038 1.01104 0.0
C421 C 0.96289 0.59246 0.98752 0.0
C422 C 0.94534 0.60138 0.97552 0.0
C423 C 0.93433 0.6182 0.98698 0.0
C424 C 0.94159 0.62609 1.01052 0.0
C425 C 0.95921 0.61729 1.02238 0.0
C426 C 0.02019 0.52997 0.98876 0.0
C427 C 0.96497 0.50907 1.01259 0.0
O428 O 0.01233 0.47795 0.06594 0.0
O429 O 0.02826 0.48022 1.02923 0.0
O430 O 0.98182 0.50673 0.07029 0.0
O431 O 0.00333 0.53651 0.05905 0.0
O432 O 0.04316 0.5267 0.05267 0.0
O433 O 0.03652 0.56291 0.04223 0.0
O434 O 0.0063 0.58743 1.01338 0.0
O435 O 0.97772 0.57232 0.03796 0.0
O436 O 0.01636 0.55068 0.98634 0.0
O437 O 0.01413 0.52441 1.01047 0.0
O438 O 0.96964 0.53156 1.01517 0.0
O439 O 0.97953 0.49554 1.01979 0.0
H440 H 0.05255 0.48939 0.08813 0.0
H441 H 0.08811 0.47813 0.10407 0.0
H442 H 0.08354 0.4244 0.04967 0.0
H443 H 0.0481 0.43581 0.03375 0.0
H444 H 0.97079 0.57919 0.97863 0.0
H445 H 0.94036 0.59506 0.95733 0.0
H446 H 0.93323 0.63864 1.02016 0.0
H447 H 0.96415 0.62334 0.0407 0.0
C448 C 0.24815 0.21187 0.33845 0.0
C449 C 0.25083 0.23571 0.33784 0.0
C450 C 0.23092 0.19934 0.3534 0.0
C451 C 0.17322 0.20213 0.37952 0.0
H452 H 0.18237 0.14789 0.41417 0.0
C453 C 0.09733 0.14345 0.42976 0.0
C454 C 0.09722 0.12 0.42722 0.0
C455 C 0.11662 0.15902 0.42151 0.0
C456 C 0.17948 0.1629 0.40443 0.0
H457 H 0.23827 0.26507 0.35372 0.0
H458 H 0.2078 0.24304 0.3795 0.0
H459 H 0.21602 0.17275 0.39625 0.0
H460 H 0.11678 0.09445 0.41326 0.0
H461 H 0.15015 0.12148 0.39852 0.0
H462 H 0.13662 0.19191 0.38691 0.0
C463 C 0.21902 0.23415 0.36819 0.0
C464 C 0.19877 0.17718 0.39429 0.0
C465 C 0.23644 0.24673 0.35339 0.0
C466 C 0.11654 0.11243 0.41584 0.0
C467 C 0.13571 0.12793 0.40751 0.0
C468 C 0.15388 0.18777 0.38955 0.0
C469 C 0.21582 0.21031 0.36797 0.0
C470 C 0.1958 0.19671 0.38134 0.0
C471 C 0.13611 0.15141 0.41046 0.0
C472 C 0.15675 0.16774 0.40168 0.0
H473 H 0.25854 0.20271 0.32644 0.0
H474 H 0.22868 0.18097 0.35259 0.0
H475 H 0.17037 0.21694 0.36938 0.0
H476 H 0.08277 0.14975 0.4387 0.0
H477 H 0.11644 0.17698 0.42423 0.0
C478 C 0.39749 0.88979 0.72097 0.0
C479 C 0.39783 0.90576 0.70208 0.0
C480 C 0.40683 0.89644 0.7439 0.0
C481 C 0.41688 0.94731 0.78278 0.0
H482 H 0.44618 0.90937 0.82587 0.0
C483 C 0.41886 0.96158 0.88719 0.0
C484 C 0.4398 0.9603 0.8992 0.0
C485 C 0.41606 0.95484 0.86264 0.0
C486 C 0.43822 0.92025 0.81396 0.0
H487 H 0.40985 0.94076 0.69166 0.0
H488 H 0.4264 0.95236 0.73162 0.0
H489 H 0.43938 0.89802 0.78292 0.0
H490 H 0.47401 0.95038 0.89506 0.0
H491 H 0.46919 0.93879 0.85196 0.0
H492 H 0.41564 0.96951 0.81369 0.0
C493 C 0.41842 0.93482 0.72892 0.0
C494 C 0.43417 0.91367 0.78945 0.0
C495 C 0.40901 0.92818 0.70604 0.0
C496 C 0.45775 0.95176 0.88622 0.0
C497 C 0.45493 0.94494 0.86163 0.0
C498 C 0.42088 0.95385 0.80722 0.0
C499 C 0.41675 0.9192 0.74835 0.0
C500 C 0.42319 0.92701 0.77367 0.0
C501 C 0.43414 0.94666 0.84951 0.0
C502 C 0.43125 0.94023 0.82319 0.0
H503 H 0.3888 0.87244 0.71853 0.0
H504 H 0.40506 0.88403 0.75853 0.0
H505 H 0.40811 0.95784 0.77124 0.0
H506 H 0.40479 0.9683 0.8966 0.0
H507 H 0.3997 0.95605 0.85391 0.0
C508 C 0.60937 0.40059 0.73222 0.0
C509 C 0.61424 0.41207 0.75474 0.0
C510 C 0.60023 0.41116 0.7125 0.0
C511 C 0.5917 0.46849 0.68979 0.0
H512 H 0.54882 0.43277 0.6452 0.0
C513 C 0.53953 0.50964 0.61713 0.0
C514 C 0.53741 0.49961 0.59357 0.0
C515 C 0.54921 0.49907 0.63649 0.0
C516 C 0.56094 0.44301 0.65733 0.0
H517 H 0.61264 0.44365 0.77416 0.0
H518 H 0.59627 0.46185 0.74022 0.0
H519 H 0.56454 0.41427 0.67936 0.0
H520 H 0.54394 0.47036 0.57209 0.0
H521 H 0.5606 0.45196 0.60579 0.0
H522 H 0.58766 0.49729 0.66792 0.0
C523 C 0.60012 0.44487 0.7374 0.0
C524 C 0.57007 0.43235 0.67698 0.0
C525 C 0.60947 0.43437 0.75701 0.0
C526 C 0.54525 0.47868 0.58994 0.0
C527 C 0.55471 0.46801 0.60935 0.0
C528 C 0.58238 0.47917 0.67027 0.0
C529 C 0.59543 0.43351 0.71472 0.0
C530 C 0.58563 0.4449 0.69359 0.0
C531 C 0.55684 0.47804 0.63294 0.0
C532 C 0.56687 0.4666 0.65373 0.0
H533 H 0.61309 0.38352 0.72964 0.0
H534 H 0.59734 0.40186 0.69535 0.0
H535 H 0.60396 0.47881 0.70169 0.0
H536 H 0.5337 0.52571 0.62069 0.0
H537 H 0.55033 0.50722 0.65441 0.0
C538 C 0.89027 0.61247 0.24771 0.0
C539 C 0.89643 0.63609 0.25142 0.0
C540 C 0.89962 0.60157 0.22778 0.0
C541 C 0.94937 0.60755 0.18288 0.0
H542 H 0.9091 0.56109 0.14651 0.0
C543 C 0.98292 0.56511 0.09527 0.0
C544 C 0.9747 0.54189 0.09135 0.0
C545 C 0.97306 0.57718 0.11395 0.0
C546 C 0.92075 0.57379 0.1566 0.0
H547 H 0.9174 0.66659 0.23643 0.0
H548 H 0.93396 0.64751 0.20203 0.0
H549 H 0.89291 0.58068 0.18065 0.0
H550 H 0.94973 0.51312 0.10411 0.0
H551 H 0.93292 0.53384 0.13694 0.0
H552 H 0.97732 0.60042 0.1592 0.0
C553 C 0.92194 0.63742 0.21472 0.0
C554 C 0.9114 0.5851 0.17622 0.0
C555 C 0.91244 0.64837 0.23458 0.0
C556 C 0.95636 0.53103 0.10651 0.0
C557 C 0.9466 0.54303 0.12529 0.0
C558 C 0.95879 0.59612 0.16336 0.0
C559 C 0.91559 0.61386 0.21097 0.0
C560 C 0.92557 0.6021 0.18972 0.0
C561 C 0.95482 0.5663 0.12941 0.0
C562 C 0.94465 0.57897 0.14993 0.0
H563 H 0.87845 0.60222 0.26045 0.0
H564 H 0.89461 0.58337 0.22578 0.0
H565 H 0.96091 0.62034 0.193 0.0
H566 H 0.99716 0.57396 0.08403 0.0
H567 H 0.97972 0.59509 0.11617 0.0
C568 C 0.3761 0.18146 0.18116 0.0
C569 C 0.37884 0.20356 0.17153 0.0
C570 C 0.38728 0.16492 0.16996 0.0
C571 C 0.43613 0.15781 0.12712 0.0
H572 H 0.40374 0.09567 0.12344 0.0
C573 C 0.44627 0.06848 0.07434 0.0
C574 C 0.47042 0.06899 0.07671 0.0
C575 C 0.43499 0.08432 0.08684 0.0
C576 C 0.41299 0.11297 0.12415 0.0
H577 H 0.39559 0.22551 0.14246 0.0
H578 H 0.41457 0.19644 0.12247 0.0
H579 H 0.38409 0.12478 0.14219 0.0
H580 H 0.50155 0.086 0.09481 0.0
H581 H 0.4818 0.11324 0.11701 0.0
H582 H 0.46475 0.14616 0.10836 0.0
C583 C 0.40406 0.19203 0.13898 0.0
C584 C 0.40181 0.12962 0.13518 0.0
C585 C 0.39294 0.20863 0.15027 0.0
C586 C 0.48293 0.08524 0.09243 0.0
C587 C 0.47164 0.10098 0.10503 0.0
C588 C 0.44727 0.14118 0.11599 0.0
C589 C 0.40139 0.16996 0.14872 0.0
C590 C 0.41325 0.15226 0.13682 0.0
C591 C 0.44759 0.10094 0.1021 0.0
C592 C 0.43584 0.11854 0.11437 0.0
H593 H 0.36509 0.17682 0.19728 0.0
H594 H 0.38503 0.14821 0.17814 0.0
H595 H 0.44557 0.17501 0.12831 0.0
H596 H 0.43614 0.05628 0.06228 0.0
H597 H 0.41652 0.08393 0.08392 0.0
C598 C 0.21061 0.93523 0.61128 0.0
C599 C 0.22161 0.92616 0.59108 0.0
C600 C 0.19223 0.94723 0.60767 0.0
C601 C 0.14517 0.96027 0.59465 0.0
H602 H 0.15024 1.0014 0.53921 0.0
C603 C 0.06636 0.99371 0.55418 0.0
C604 C 0.06999 1.01582 0.54469 0.0
C605 C 0.08511 0.98446 0.56309 0.0
C606 C 0.14865 0.99025 0.55499 0.0
H607 H 0.22202 0.92259 0.5513 0.0
H608 H 0.18969 0.94303 0.54506 0.0
H609 H 0.18274 0.98206 0.54837 0.0
H610 H 0.09555 0.04605 0.53807 0.0
H611 H 0.12833 0.03002 0.55396 0.0
H612 H 0.11103 0.9686 0.60127 0.0
C613 C 0.19543 0.94113 0.56366 0.0
C614 C 0.16716 0.97893 0.56003 0.0
C615 C 0.21375 0.92916 0.56726 0.0
C616 C 0.09241 0.02886 0.5451 0.0
C617 C 0.11114 1.01967 0.5541 0.0
C618 C 0.1266 0.97164 0.58961 0.0
C619 C 0.18459 0.95045 0.58378 0.0
C620 C 0.16548 0.96354 0.57964 0.0
C621 C 0.10778 0.9972 0.56271 0.0
C622 C 0.12805 0.98653 0.56952 0.0
H623 H 0.21617 0.933 0.62988 0.0
H624 H 0.18426 0.95431 0.62351 0.0
H625 H 0.14335 0.94844 0.60984 0.0
H626 H 0.04922 0.98329 0.55392 0.0
H627 H 0.08199 0.96702 0.56931 0.0
C628 C 0.77676 0.43801 0.91183 0.0
C629 C 0.77228 0.41431 0.90822 0.0
C630 C 0.79749 0.44863 0.92273 0.0
C631 C 0.85794 0.43949 0.93715 0.0
H632 H 0.85647 0.48954 0.9828 0.0
C633 C 0.93746 0.47499 0.99694 0.0
C634 C 0.94273 0.49863 1.00069 0.0
C635 C 0.91677 0.46513 0.9855 0.0
C636 C 0.8573 0.47576 0.96988 0.0
H637 H 0.78669 0.38337 0.91307 0.0
H638 H 0.82238 0.4017 0.93247 0.0
H639 H 0.82055 0.47172 0.96322 0.0
H640 H 0.93 0.53038 0.99516 0.0
H641 H 0.89404 0.51321 0.97513 0.0
H642 H 0.89465 0.44345 0.94388 0.0
C643 C 0.80997 0.41219 0.92665 0.0
C644 C 0.83663 0.46551 0.9586 0.0
C645 C 0.78926 0.40159 0.91576 0.0
C646 C 0.92659 0.51212 0.99271 0.0
C647 C 0.90584 0.50223 0.9813 0.0
C648 C 0.87859 0.44971 0.94845 0.0
C649 C 0.81444 0.43588 0.93034 0.0
C650 C 0.83659 0.44714 0.94211 0.0
C651 C 0.90064 0.47859 0.97744 0.0
C652 C 0.87859 0.46795 0.96507 0.0
H653 H 0.76408 0.44841 0.90654 0.0
H654 H 0.80032 0.46691 0.92498 0.0
H655 H 0.85882 0.42572 0.92424 0.0
H656 H 0.94935 0.46398 1.00284 0.0
H657 H 0.91329 0.44686 0.98323 0.0
C658 C 0.72997 0.64691 0.43379 0.0
C659 C 0.73953 0.63585 0.41396 0.0
C660 C 0.70894 0.63725 0.44544 0.0
C661 C 0.66648 0.58246 0.45126 0.0
H662 H 0.62738 0.62215 0.48172 0.0
C663 C 0.57118 0.55331 0.49043 0.0
C664 C 0.56742 0.56046 0.51472 0.0
C665 C 0.59213 0.56153 0.47762 0.0
C666 C 0.63816 0.61085 0.47335 0.0
H667 H 0.73373 0.60553 0.39103 0.0
H668 H 0.69653 0.58951 0.41015 0.0
H669 H 0.66308 0.63852 0.45969 0.0
H670 H 0.58274 0.58182 0.54459 0.0
H671 H 0.61887 0.59666 0.52197 0.0
H672 H 0.64068 0.55483 0.46433 0.0
C673 C 0.70569 0.6054 0.41732 0.0
C674 C 0.65884 0.62021 0.46083 0.0
C675 C 0.72701 0.61488 0.40596 0.0
C676 C 0.58508 0.57594 0.52591 0.0
C677 C 0.60574 0.58452 0.51295 0.0
C678 C 0.64549 0.57312 0.46336 0.0
C679 C 0.6963 0.61637 0.43736 0.0
C680 C 0.67359 0.60621 0.44984 0.0
C681 C 0.6095 0.57747 0.48864 0.0
C682 C 0.63127 0.58722 0.4748 0.0
H683 H 0.73859 0.66326 0.44038 0.0
H684 H 0.70279 0.6462 0.46102 0.0
H685 H 0.67733 0.57096 0.44351 0.0
H686 H 0.55785 0.54155 0.48123 0.0
H687 H 0.59451 0.55589 0.45886 0.0
C688 C 0.25546 0.3649 0.14545 0.0
C689 C 0.2538 0.35879 0.17047 0.0
C690 C 0.23879 0.37631 0.13513 0.0
C691 C 0.17806 0.38645 0.14621 0.0
H692 H 0.19409 0.43348 0.09708 0.0
C693 C 0.11113 0.44035 0.1141 0.0
C694 C 0.10937 0.44264 0.08852 0.0
C695 C 0.12977 0.43148 0.12386 0.0
C696 C 0.18938 0.42027 0.11069 0.0
H697 H 0.23316 0.36011 0.20418 0.0
H698 H 0.20499 0.38073 0.18656 0.0
H699 H 0.22492 0.41545 0.11456 0.0
H700 H 0.12624 0.4383 0.05318 0.0
H701 H 0.15888 0.42276 0.0703 0.0
H702 H 0.14262 0.39138 0.14252 0.0
C703 C 0.21886 0.37634 0.17473 0.0
C704 C 0.20701 0.4099 0.12065 0.0
C705 C 0.23534 0.36482 0.18497 0.0
C706 C 0.12704 0.43652 0.07296 0.0
C707 C 0.14581 0.42782 0.08275 0.0
C708 C 0.16054 0.39692 0.13642 0.0
C709 C 0.22011 0.38192 0.14961 0.0
C710 C 0.20155 0.39291 0.13862 0.0
C711 C 0.14715 0.42486 0.10828 0.0
C712 C 0.166 0.41398 0.11863 0.0
H713 H 0.26955 0.36074 0.13379 0.0
H714 H 0.24022 0.38022 0.11567 0.0
H715 H 0.17311 0.37306 0.15955 0.0
H716 H 0.0977 0.44475 0.12654 0.0
H717 H 0.13049 0.42961 0.14364 0.0
C718 C 0.59103 0.23733 0.89443 0.0
C719 C 0.61214 0.24955 0.90329 0.0
C720 C 0.58083 0.2165 0.90485 0.0
C721 C 0.58418 0.17911 0.96012 0.0
H722 H 0.54482 0.13483 0.92023 0.0
C723 C 0.54747 0.0854 0.9903 0.0
C724 C 0.52296 0.07999 0.98939 0.0
C725 C 0.55935 0.10567 0.97984 0.0
C726 C 0.5558 0.14704 0.93159 0.0
H727 H 0.63867 0.24876 0.93079 0.0
H728 H 0.62202 0.21214 0.94748 0.0
H729 H 0.56375 0.17037 0.90184 0.0
H730 H 0.49184 0.09135 0.97619 0.0
H731 H 0.5126 0.12602 0.95716 0.0
H732 H 0.57668 0.15501 0.98959 0.0
C733 C 0.61278 0.21891 0.93294 0.0
C734 C 0.56654 0.16765 0.92113 0.0
C735 C 0.62272 0.23997 0.92288 0.0
C736 C 0.51071 0.09499 0.97729 0.0
C737 C 0.52259 0.11486 0.96632 0.0
C738 C 0.57386 0.15824 0.97039 0.0
C739 C 0.59158 0.20678 0.92422 0.0
C740 C 0.58071 0.18426 0.93526 0.0
C741 C 0.54702 0.12056 0.96762 0.0
C742 C 0.55933 0.14208 0.95632 0.0
H743 H 0.58232 0.24365 0.87919 0.0
H744 H 0.56431 0.20821 0.89772 0.0
H745 H 0.59446 0.19136 0.97198 0.0
H746 H 0.55744 0.07409 0.9992 0.0
H747 H 0.57821 0.10957 0.98099 0.0
C748 C 0.90762 0.79663 0.43473 0.0
C749 C 0.9044 0.7945 0.40915 0.0
C750 C 0.91736 0.81745 0.44531 0.0
C751 C 0.9278 0.87962 0.43404 0.0
H752 H 0.97111 0.88101 0.48759 0.0
C753 C 0.97612 0.96444 0.4754 0.0
C754 C 0.97987 0.96541 0.50092 0.0
C755 C 0.96713 0.94383 0.46378 0.0
C756 C 0.9588 0.88099 0.47288 0.0
H757 H 0.90906 0.81291 0.3747 0.0
H758 H 0.92627 0.84918 0.39311 0.0
H759 H 0.95548 0.84494 0.46819 0.0
H760 H 0.97661 0.94526 0.53425 0.0
H761 H 0.96064 0.90964 0.5142 0.0
H762 H 0.93095 0.91566 0.43888 0.0
C763 C 0.92107 0.83471 0.40504 0.0
C764 C 0.94985 0.86021 0.46168 0.0
C765 C 0.91142 0.81381 0.39442 0.0
C766 C 0.97413 0.94523 0.51454 0.0
C767 C 0.96509 0.92467 0.50296 0.0
C768 C 0.9367 0.90042 0.44531 0.0
C769 C 0.92413 0.83685 0.43066 0.0
C770 C 0.93413 0.85918 0.44216 0.0
C771 C 0.96157 0.92359 0.47736 0.0
C772 C 0.95227 0.90143 0.46499 0.0
H773 H 0.90268 0.78212 0.44667 0.0
H774 H 0.91921 0.81842 0.4651 0.0
H775 H 0.91551 0.87951 0.4193 0.0
H776 H 0.9804 0.97957 0.46426 0.0
H777 H 0.96497 0.94373 0.44403 0.0
C778 C 0.35364 0.77163 0.51667 0.0
C779 C 0.33269 0.77414 0.52902 0.0
C780 C 0.35714 0.75041 0.50791 0.0
C781 C 0.34012 0.69206 0.52673 0.0
H782 H 0.38421 0.68194 0.47478 0.0
C783 C 0.39087 0.61821 0.53309 0.0
C784 C 0.41511 0.6257 0.53115 0.0
C785 C 0.37528 0.63177 0.52455 0.0
C786 C 0.37168 0.6844 0.48923 0.0
H787 H 0.29818 0.75685 0.53997 0.0
H788 H 0.30422 0.71972 0.52441 0.0
H789 H 0.36526 0.71554 0.47362 0.0
H790 H 0.44207 0.65223 0.51699 0.0
H791 H 0.41502 0.6761 0.5027 0.0
H792 H 0.34762 0.66186 0.54325 0.0
C793 C 0.31804 0.73414 0.52178 0.0
C794 C 0.36084 0.7036 0.48856 0.0
C795 C 0.31453 0.75542 0.53055 0.0
C796 C 0.42346 0.64626 0.51916 0.0
C797 C 0.40793 0.65975 0.5106 0.0
C798 C 0.35094 0.67289 0.5274 0.0
C799 C 0.33974 0.73123 0.51133 0.0
C800 C 0.34588 0.70822 0.50799 0.0
C801 C 0.38367 0.65298 0.51384 0.0
C802 C 0.36775 0.6695 0.50935 0.0
H803 H 0.36778 0.78588 0.51487 0.0
H804 H 0.37414 0.74879 0.50012 0.0
H805 H 0.32884 0.69515 0.54212 0.0
H806 H 0.38396 0.60239 0.54219 0.0
H807 H 0.35668 0.62603 0.52714 0.0
C808 C 0.78305 0.84545 0.74363 0.0
C809 C 0.76988 0.82544 0.7343 0.0
C810 C 0.80273 0.85631 0.73076 0.0
C811 C 0.83031 0.86777 0.67193 0.0
H812 H 0.88863 0.87531 0.70707 0.0
C813 C 0.91623 0.9155 0.62867 0.0
C814 C 0.93093 0.92994 0.64444 0.0
C815 C 0.89742 0.90012 0.63818 0.0
C816 C 0.87249 0.8736 0.69705 0.0
H817 H 0.76647 0.80141 0.70395 0.0
H818 H 0.80081 0.82107 0.68084 0.0
H819 H 0.85321 0.85424 0.726 0.0
H820 H 0.93777 0.93878 0.68274 0.0
H821 H 0.90446 0.91301 0.69916 0.0
H822 H 0.84908 0.8882 0.64355 0.0
C823 C 0.79587 0.82804 0.69828 0.0
C824 C 0.85229 0.86138 0.70785 0.0
C825 C 0.77635 0.81685 0.71144 0.0
C826 C 0.92663 0.92823 0.66998 0.0
C827 C 0.90767 0.91311 0.67945 0.0
C828 C 0.85046 0.8804 0.66126 0.0
C829 C 0.80942 0.84758 0.70815 0.0
C830 C 0.83101 0.85866 0.69553 0.0
C831 C 0.89268 0.89896 0.66369 0.0
C832 C 0.87174 0.88381 0.67389 0.0
H833 H 0.77864 0.85224 0.76136 0.0
H834 H 0.81291 0.87144 0.73861 0.0
H835 H 0.81399 0.86594 0.6622 0.0
H836 H 0.91882 0.91647 0.60888 0.0
H837 H 0.88649 0.88927 0.62549 0.0
C838 C 0.6699 0.17359 0.31793 0.0
C839 C 0.65558 0.17681 0.33843 0.0
C840 C 0.66022 0.16854 0.29487 0.0
C841 C 0.60526 0.14334 0.26612 0.0
H842 H 0.63821 0.1661 0.20619 0.0
C843 C 0.57118 0.11681 0.16891 0.0
C844 C 0.58801 0.11033 0.15247 0.0
C845 C 0.57792 0.12754 0.19122 0.0
C846 C 0.62884 0.15958 0.22278 0.0
H847 H 0.61993 0.17778 0.35069 0.0
H848 H 0.60299 0.16925 0.31018 0.0
H849 H 0.65265 0.18082 0.24599 0.0
H850 H 0.6251 0.10984 0.14682 0.0
H851 H 0.63679 0.12875 0.18545 0.0
H852 H 0.58168 0.12182 0.24284 0.0
C853 C 0.6217 0.17041 0.31208 0.0
C854 C 0.63711 0.16798 0.24556 0.0
C855 C 0.63142 0.1755 0.33521 0.0
C856 C 0.61171 0.11502 0.15877 0.0
C857 C 0.61843 0.12584 0.18094 0.0
C858 C 0.59694 0.135 0.2433 0.0
C859 C 0.63598 0.16663 0.29172 0.0
C860 C 0.62571 0.1596 0.2675 0.0
C861 C 0.60163 0.13213 0.19745 0.0
C862 C 0.60894 0.14269 0.22144 0.0
H863 H 0.68862 0.17479 0.31977 0.0
H864 H 0.6717 0.16547 0.27965 0.0
H865 H 0.59622 0.13634 0.28268 0.0
H866 H 0.55281 0.1137 0.16449 0.0
H867 H 0.56461 0.13236 0.20354 0.0
C868 C 0.41523 0.65756 0.32641 0.0
C869 C 0.40038 0.64479 0.30935 0.0
C870 C 0.42449 0.64701 0.34608 0.0
C871 C 0.43477 0.59004 0.36797 0.0
H872 H 0.44462 0.62138 0.43057 0.0
C873 C 0.48344 0.55369 0.44683 0.0
C874 C 0.47665 0.55727 0.4714 0.0
C875 C 0.47411 0.56436 0.42733 0.0
C876 C 0.44179 0.61219 0.41335 0.0
H877 H 0.38412 0.61049 0.2999 0.0
H878 H 0.39937 0.59238 0.33442 0.0
H879 H 0.42813 0.63954 0.39676 0.0
H880 H 0.4544 0.57489 0.49447 0.0
H881 H 0.43768 0.59293 0.46063 0.0
H882 H 0.44761 0.56236 0.38477 0.0
C883 C 0.40428 0.61058 0.33243 0.0
C884 C 0.4326 0.62282 0.39369 0.0
C885 C 0.39516 0.62109 0.31269 0.0
C886 C 0.46013 0.57174 0.47586 0.0
C887 C 0.45064 0.58227 0.45633 0.0
C888 C 0.4438 0.57935 0.38765 0.0
C889 C 0.41914 0.62332 0.34949 0.0
C890 C 0.42897 0.61196 0.37062 0.0
C891 C 0.45752 0.57883 0.43169 0.0
C892 C 0.44755 0.59024 0.41069 0.0
H893 H 0.41953 0.67584 0.32482 0.0
H894 H 0.43607 0.65751 0.35849 0.0
H895 H 0.43262 0.5811 0.35053 0.0
H896 H 0.49625 0.54284 0.44261 0.0
H897 H 0.4803 0.5615 0.4088 0.0
C898 C 0.11458 0.44681 0.81259 0.0
C899 C 0.11345 0.42307 0.8121 0.0
C900 C 0.10413 0.45754 0.83191 0.0
C901 C 0.08118 0.44917 0.89653 0.0
H902 H 0.05127 0.50079 0.88176 0.0
C903 C 0.02816 0.49288 0.97027 0.0
C904 C 0.03082 0.51669 0.96958 0.0
C905 C 0.0379 0.48077 0.95147 0.0
C906 C 0.05975 0.48656 0.88633 0.0
H907 H 0.10042 0.39213 0.83213 0.0
H908 H 0.08184 0.41075 0.8655 0.0
H909 H 0.06865 0.48117 0.84853 0.0
H910 H 0.04551 0.54643 0.94848 0.0
H911 H 0.06257 0.52555 0.91599 0.0
H912 H 0.07218 0.45464 0.93442 0.0
C913 C 0.09105 0.42115 0.851 0.0
C914 C 0.06979 0.47526 0.86719 0.0
C915 C 0.10151 0.4104 0.83163 0.0
C916 C 0.0432 0.52808 0.94961 0.0
C917 C 0.05288 0.51606 0.93086 0.0
C918 C 0.07109 0.46048 0.91573 0.0
C919 C 0.09215 0.4449 0.85142 0.0
C920 C 0.08085 0.4565 0.87196 0.0
C921 C 0.05033 0.4922 0.9314 0.0
C922 C 0.0604 0.47949 0.91094 0.0
H923 H 0.12333 0.4572 0.79783 0.0
H924 H 0.10567 0.47585 0.83164 0.0
H925 H 0.08973 0.43498 0.90107 0.0
H926 H 0.01795 0.48357 0.98486 0.0
H927 H 0.03519 0.46241 0.95236 0.0
C928 C 0.64151 0.86031 0.91453 0.0
C929 C 0.63053 0.84679 0.89546 0.0
C930 C 0.63082 0.87737 0.92542 0.0
C931 C 0.57409 0.89568 0.93597 0.0
H932 H 0.61102 0.9555 0.94438 0.0
C933 C 0.53173 0.97144 0.96951 0.0
C934 C 0.54419 0.98645 0.98647 0.0
C935 C 0.54248 0.95515 0.9572 0.0
C936 C 0.60051 0.93884 0.94245 0.0
H937 H 0.59951 0.84007 0.8733 0.0
H938 H 0.58068 0.86978 0.89252 0.0
H939 H 0.62912 0.92494 0.9263 0.0
H940 H 0.57783 0.99642 1.00348 0.0
H941 H 0.59643 0.96768 0.9825 0.0
H942 H 0.54561 0.90929 0.95258 0.0
C943 C 0.59759 0.86721 0.89897 0.0
C944 C 0.61089 0.92136 0.93206 0.0
C945 C 0.60841 0.85032 0.88788 0.0
C946 C 0.5678 0.9852 0.9904 0.0
C947 C 0.57849 0.96874 0.97828 0.0
C948 C 0.56375 0.91309 0.94659 0.0
C949 C 0.60882 0.88108 0.91764 0.0
C950 C 0.59779 0.8996 0.92873 0.0
C951 C 0.56588 0.95331 0.96176 0.0
C952 C 0.57682 0.93492 0.94997 0.0
H953 H 0.65867 0.85812 0.92058 0.0
H954 H 0.63977 0.88767 0.93994 0.0
H955 H 0.56364 0.87901 0.93386 0.0
H956 H 0.51356 0.97206 0.96591 0.0
H957 H 0.53237 0.9439 0.94421 0.0
C958 C 0.81959 0.14409 0.48874 0.0
C959 C 0.79667 0.13226 0.48691 0.0
C960 C 0.83812 0.13236 0.49252 0.0
C961 C 0.85185 0.07971 0.51739 0.0
H962 H 0.90837 0.09314 0.47702 0.0
C963 C 0.95319 0.06358 0.51866 0.0
C964 C 0.9494 0.04103 0.52683 0.0
C965 C 0.93437 0.07384 0.51179 0.0
C966 C 0.89281 0.08935 0.48861 0.0
H967 H 0.77498 0.09903 0.48801 0.0
H968 H 0.80741 0.07848 0.49489 0.0
H969 H 0.87581 0.11332 0.4699 0.0
H970 H 0.92341 1.01105 0.53308 0.0
H971 H 0.89053 0.02871 0.52039 0.0
H972 H 0.8689 0.05627 0.53662 0.0
C973 C 0.81102 0.09681 0.4933 0.0
C974 C 0.87418 0.10087 0.48449 0.0
C975 C 0.79253 0.10852 0.48924 0.0
C976 C 0.92669 0.02856 0.52706 0.0
C977 C 0.90789 0.03873 0.51996 0.0
C978 C 0.87053 0.06835 0.52168 0.0
C979 C 0.83398 0.10861 0.49481 0.0
C980 C 0.85358 0.09619 0.4989 0.0
C981 C 0.91145 0.06164 0.51274 0.0
C982 C 0.89126 0.07307 0.50739 0.0
H983 H 0.82325 0.16239 0.4868 0.0
H984 H 0.85566 0.14185 0.49385 0.0
H985 H 0.83623 0.07599 0.52893 0.0
H986 H 0.97058 0.07355 0.51838 0.0
H987 H 0.93774 0.09157 0.50661 0.0
C988 C 0.23517 0.65275 0.1329 0.0
C989 C 0.24302 0.64395 0.15461 0.0
C990 C 0.21464 0.64222 0.12161 0.0
C991 C 0.16042 0.59915 0.13312 0.0
H992 H 0.15501 0.60279 0.06231 0.0
C993 C 0.08395 0.54696 0.07888 0.0
C994 C 0.07277 0.55923 0.0621 0.0
C995 C 0.10485 0.55689 0.08991 0.0
C996 C 0.15621 0.60171 0.08212 0.0
H997 H 0.23471 0.61677 0.18127 0.0
H998 H 0.19996 0.59783 0.16098 0.0
H999 H 0.19106 0.62024 0.0818 0.0
H1000 H 0.0753 0.59152 0.04342 0.0
H1001 H 0.11205 0.6086 0.06221 0.0
H1002 H 0.12569 0.57995 0.13311 0.0
C1003 C 0.2093 0.61332 0.15294 0.0
C1004 C 0.17689 0.61188 0.09342 0.0
C1005 C 0.22966 0.62405 0.16445 0.0
C1006 C 0.08334 0.58155 0.05628 0.0
C1007 C 0.10448 0.59134 0.06697 0.0
C1008 C 0.13991 0.58866 0.12175 0.0
C1009 C 0.20134 0.62225 0.13136 0.0
C1010 C 0.17934 0.61093 0.11917 0.0
C1011 C 0.11538 0.57922 0.08411 0.0
C1012 C 0.13747 0.58993 0.09612 0.0
H1013 H 0.24499 0.66776 0.12432 0.0
H1014 H 0.20913 0.65 0.10532 0.0
H1015 H 0.16119 0.59831 0.15297 0.0
H1016 H 0.07633 0.52978 0.0839 0.0
H1017 H 0.11289 0.54703 0.10289 0.0
C1018 C 0.29209 0.43683 0.66503 0.0
C1019 C 0.27313 0.42548 0.65157 0.0
C1020 C 0.313 0.44656 0.65303 0.0
C1021 C 0.34648 0.44316 0.59426 0.0
H1022 H 0.38191 0.50062 0.61546 0.0
C1023 C 0.42604 0.48768 0.53748 0.0
C1024 C 0.44582 0.49795 0.5503 0.0
C1025 C 0.40489 0.47998 0.55002 0.0
C1026 C 0.37237 0.48444 0.60944 0.0
H1027 H 0.26122 0.41643 0.61467 0.0
H1028 H 0.29743 0.4333 0.59388 0.0
H1029 H 0.34541 0.48511 0.637 0.0
H1030 H 0.4588 0.5086 0.58635 0.0
H1031 H 0.42194 0.49503 0.60836 0.0
H1032 H 0.37338 0.44235 0.56683 0.0
C1033 C 0.2964 0.43427 0.61379 0.0
C1034 C 0.3514 0.47552 0.62182 0.0
C1035 C 0.27555 0.42457 0.62575 0.0
C1036 C 0.44383 0.50083 0.57593 0.0
C1037 C 0.42265 0.4931 0.58853 0.0
C1038 C 0.3674 0.45205 0.58193 0.0
C1039 C 0.31554 0.44522 0.62723 0.0
C1040 C 0.33808 0.45478 0.61433 0.0
C1041 C 0.40294 0.48227 0.57578 0.0
C1042 C 0.38064 0.47287 0.58922 0.0
H1043 H 0.29101 0.4377 0.68494 0.0
H1044 H 0.32739 0.45464 0.66407 0.0
H1045 H 0.33704 0.42693 0.58824 0.0
H1046 H 0.42695 0.48536 0.5177 0.0
H1047 H 0.39004 0.47217 0.53946 0.0
C1048 C 0.77772 0.71282 0.91395 0.0
C1049 C 0.76287 0.70151 0.89609 0.0
C1050 C 0.79497 0.70232 0.92432 0.0
C1051 C 0.82931 0.6561 0.91224 0.0
H1052 H 0.84788 0.66844 0.97981 0.0
C1053 C 0.89799 0.6125 0.96156 0.0
C1054 C 0.91484 0.62705 0.97497 0.0
C1055 C 0.87892 0.62061 0.95161 0.0
C1056 C 0.84294 0.66495 0.96087 0.0
H1057 H 0.75381 0.67003 0.87576 0.0
H1058 H 0.78354 0.65135 0.89437 0.0
H1059 H 0.81448 0.68346 0.9642 0.0
H1060 H 0.92528 0.66183 0.98745 0.0
H1061 H 0.89175 0.67575 0.9706 0.0
H1062 H 0.85773 0.63729 0.90919 0.0
C1063 C 0.78228 0.66858 0.89991 0.0
C1064 C 0.82384 0.67359 0.95187 0.0
C1065 C 0.76516 0.6792 0.88935 0.0
C1066 C 0.91239 0.65 0.97773 0.0
C1067 C 0.89322 0.65802 0.96804 0.0
C1068 C 0.84827 0.64722 0.92136 0.0
C1069 C 0.79765 0.68014 0.91726 0.0
C1070 C 0.81696 0.66956 0.92733 0.0
C1071 C 0.87618 0.64337 0.9551 0.0
C1072 C 0.85546 0.65184 0.94565 0.0
H1073 H 0.77665 0.73018 0.91919 0.0
H1074 H 0.80671 0.71194 0.93725 0.0
H1075 H 0.82478 0.65291 0.89315 0.0
H1076 H 0.89911 0.59466 0.95934 0.0
H1077 H 0.86594 0.60893 0.94182 0.0
C1078 C 0.39301 0.81685 0.14024 0.0
C1079 C 0.40356 0.80739 0.15993 0.0
C1080 C 0.40304 0.83777 0.12994 0.0
C1081 C 0.4493 0.88905 0.14133 0.0
H1082 H 0.43946 0.90102 0.07263 0.0
C1083 C 0.50494 0.96207 0.08564 0.0
C1084 C 0.49271 0.97648 0.07261 0.0
C1085 C 0.49315 0.94216 0.09663 0.0
C1086 C 0.4422 0.89799 0.0919 0.0
H1087 H 0.43346 0.81331 0.18393 0.0
H1088 H 0.45159 0.84859 0.16504 0.0
H1089 H 0.42165 0.86482 0.09056 0.0
H1090 H 0.45839 0.98121 0.06095 0.0
H1091 H 0.4378 0.94575 0.07935 0.0
H1092 H 0.47089 0.92193 0.14203 0.0
C1093 C 0.43502 0.84028 0.158 0.0
C1094 C 0.43187 0.8772 0.10234 0.0
C1095 C 0.42475 0.81957 0.16864 0.0
C1096 C 0.46833 0.97041 0.07071 0.0
C1097 C 0.45656 0.95013 0.08124 0.0
C1098 C 0.46003 0.90959 0.13071 0.0
C1099 C 0.4243 0.84989 0.13854 0.0
C1100 C 0.43522 0.87229 0.12729 0.0
C1101 C 0.46885 0.93584 0.09445 0.0
C1102 C 0.45663 0.91432 0.10588 0.0
H1103 H 0.377 0.80806 0.13245 0.0
H1104 H 0.39383 0.84447 0.11532 0.0
H1105 H 0.45199 0.8865 0.16068 0.0
H1106 H 0.52372 0.96622 0.08748 0.0
H1107 H 0.50314 0.93147 0.10652 0.0
C1108 C 0.11067 0.25991 0.63376 0.0
C1109 C 0.11296 0.26238 0.65943 0.0
C1110 C 0.10142 0.23893 0.62323 0.0
C1111 C 0.06661 0.18204 0.63781 0.0
H1112 H 0.09345 0.16505 0.57578 0.0
C1113 C 0.04197 0.09192 0.59438 0.0
C1114 C 0.03879 0.09073 0.56875 0.0
C1115 C 0.05106 0.11256 0.60586 0.0
C1116 C 0.08557 0.16958 0.59298 0.0
H1117 H 0.1071 0.24445 0.6941 0.0
H1118 H 0.09116 0.2078 0.67577 0.0
H1119 H 0.10889 0.20127 0.59497 0.0
H1120 H 0.04289 0.11053 0.53517 0.0
H1121 H 0.05865 0.14632 0.55511 0.0
H1122 H 0.04339 0.15017 0.6358 0.0
C1123 C 0.09621 0.22222 0.66374 0.0
C1124 C 0.09441 0.19045 0.60402 0.0
C1125 C 0.10538 0.24328 0.6743 0.0
C1126 C 0.04509 0.11071 0.55493 0.0
C1127 C 0.05429 0.13128 0.56637 0.0
C1128 C 0.05782 0.16109 0.6268 0.0
C1129 C 0.09425 0.21968 0.63801 0.0
C1130 C 0.08499 0.19711 0.62653 0.0
C1131 C 0.05737 0.13254 0.59201 0.0
C1132 C 0.06708 0.15462 0.60414 0.0
H1133 H 0.11588 0.2743 0.62173 0.0
H1134 H 0.09973 0.23789 0.60343 0.0
H1135 H 0.05864 0.1866 0.65494 0.0
H1136 H 0.03734 0.07692 0.60566 0.0
H1137 H 0.05341 0.11279 0.62559 0.0
C1138 C 0.65952 0.27351 0.55847 0.0
C1139 C 0.67368 0.27987 0.53755 0.0
C1140 C 0.64867 0.28958 0.57113 0.0
C1141 C 0.61233 0.32082 0.57441 0.0
H1142 H 0.63723 0.38518 0.57413 0.0
C1143 C 0.56182 0.38652 0.53895 0.0
C1144 C 0.56674 0.40922 0.54682 0.0
C1145 C 0.57335 0.37021 0.54914 0.0
C1146 C 0.62992 0.36729 0.57504 0.0
H1147 H 0.68946 0.30814 0.51484 0.0
H1148 H 0.67047 0.33605 0.53655 0.0
H1149 H 0.66388 0.35774 0.57306 0.0
H1150 H 0.58605 0.43231 0.573 0.0
H1151 H 0.60631 0.40372 0.59086 0.0
H1152 H 0.57836 0.33039 0.57541 0.0
C1153 C 0.66769 0.31882 0.54342 0.0
C1154 C 0.64525 0.35156 0.57417 0.0
C1155 C 0.67838 0.30279 0.53075 0.0
C1156 C 0.58228 0.415 0.56624 0.0
C1157 C 0.59381 0.39863 0.57651 0.0
C1158 C 0.597 0.33656 0.57546 0.0
C1159 C 0.65199 0.31225 0.56315 0.0
C1160 C 0.63659 0.32821 0.57225 0.0
C1161 C 0.59003 0.37621 0.5675 0.0
C1162 C 0.60564 0.35995 0.57419 0.0
H1163 H 0.65566 0.25589 0.56406 0.0
H1164 H 0.63681 0.28406 0.58639 0.0
H1165 H 0.60503 0.30296 0.57304 0.0
H1166 H 0.55008 0.38158 0.52389 0.0
H1167 H 0.57027 0.35322 0.54141 0.0
loop_
_geom_bond_atom_site_label_1
_geom_bond_atom_site_label_2
_geom_bond_distance
_geom_bond_site_symmetry_2
_ccdc_geom_bond_type
C0 C1 1.384 . S
C0 H13 0.947 . S
C0 C35 1.382 . S
C1 C0 1.384 . S
C1 C2 1.378 . S
C2 C1 1.378 . S
C2 C3 1.378 . S
C2 H14 0.952 . S
C3 C2 1.378 . S
C3 H15 0.950 . S
C3 C34 1.383 . S
H4 C23 0.947 . S
H5 C24 0.946 . S
H6 C26 0.953 . S
H7 C27 0.945 . S
H8 C29 0.952 . S
H9 C30 0.949 . S
H10 C32 0.950 . S
H11 C33 0.948 . S
H12 C35 0.951 . S
H13 C0 0.947 . S
H14 C2 0.952 . S
H15 C3 0.950 . S
N16 C19 1.382 . S
N16 C21 1.363 . S
N17 C19 1.371 . S
N17 C20 1.372 . S
N18 C20 1.361 . S
N18 C21 1.377 . S
C19 N16 1.382 . S
C19 N17 1.371 . S
C19 C22 1.480 . S
C20 N17 1.372 . S
C20 N18 1.361 . S
C20 C28 1.457 . S
C21 N16 1.363 . S
C21 N18 1.377 . S
C21 C34 1.479 . S
C22 C19 1.480 . S
C22 C23 1.383 . S
C22 C27 1.385 . S
C23 H4 0.947 . S
C23 C22 1.383 . S
C23 C24 1.388 . S
C24 H5 0.946 . S
C24 C23 1.388 . S
C24 C25 1.384 . S
C25 C24 1.384 . S
C25 C26 1.377 . S
C26 H6 0.953 . S
C26 C25 1.377 . S
C26 C27 1.369 . S
C27 H7 0.945 . S
C27 C22 1.385 . S
C27 C26 1.369 . S
C28 C20 1.457 . S
C28 C29 1.372 . S
C28 C33 1.364 . S
C29 H8 0.952 . S
C29 C28 1.372 . S
C29 C30 1.389 . S
C30 H9 0.949 . S
C30 C29 1.389 . S
C30 C31 1.387 . S
C31 C30 1.387 . S
C31 C32 1.372 . S
C32 H10 0.950 . S
C32 C31 1.372 . S
C32 C33 1.379 . S
C33 H11 0.948 . S
C33 C28 1.364 . S
C33 C32 1.379 . S
C34 C3 1.383 . S
C34 C21 1.479 . S
C34 C35 1.398 . S
C35 C0 1.382 . S
C35 H12 0.951 . S
C35 C34 1.398 . S
C36 C37 1.384 . S
C36 H49 0.947 . S
C36 C71 1.382 . S
C37 C36 1.384 . S
C37 C38 1.378 . S
C38 C37 1.378 . S
C38 C39 1.378 . S
C38 H50 0.952 . S
C39 C38 1.378 . S
C39 H51 0.950 . S
C39 C70 1.383 . S
H40 C59 0.947 . S
H41 C60 0.946 . S
H42 C62 0.953 . S
H43 C63 0.945 . S
H44 C65 0.952 . S
H45 C66 0.949 . S
H46 C68 0.950 . S
H47 C69 0.948 . S
H48 C71 0.951 . S
H49 C36 0.947 . S
H50 C38 0.952 . S
H51 C39 0.950 . S
N52 C55 1.382 . S
N52 C57 1.363 . S
N53 C55 1.371 . S
N53 C56 1.372 . S
N54 C56 1.361 . S
N54 C57 1.377 . S
C55 N52 1.382 . S
C55 N53 1.371 . S
C55 C58 1.480 . S
C56 N53 1.372 . S
C56 N54 1.361 . S
C56 C64 1.457 . S
C57 N52 1.363 . S
C57 N54 1.377 . S
C57 C70 1.479 . S
C58 C55 1.480 . S
C58 C59 1.383 . S
C58 C63 1.385 . S
C59 H40 0.947 . S
C59 C58 1.383 . S
C59 C60 1.388 . S
C60 H41 0.946 . S
C60 C59 1.388 . S
C60 C61 1.384 . S
C61 C60 1.384 . S
C61 C62 1.377 . S
C62 H42 0.953 . S
C62 C61 1.377 . S
C62 C63 1.369 . S
C63 H43 0.945 . S
C63 C58 1.385 . S
C63 C62 1.369 . S
C64 C56 1.457 . S
C64 C65 1.372 . S
C64 C69 1.364 . S
C65 H44 0.952 . S
C65 C64 1.372 . S
C65 C66 1.389 . S
C66 H45 0.949 . S
C66 C65 1.389 . S
C66 C67 1.387 . S
C67 C66 1.387 . S
C67 C68 1.372 . S
C68 H46 0.950 . S
C68 C67 1.372 . S
C68 C69 1.379 . S
C69 H47 0.948 . S
C69 C64 1.364 . S
C69 C68 1.379 . S
C70 C39 1.383 . S
C70 C57 1.479 . S
C70 C71 1.398 . S
C71 C36 1.382 . S
C71 H48 0.951 . S
C71 C70 1.398 . S
C72 C73 1.384 . S
C72 H85 0.947 . S
C72 C107 1.382 . S
C73 C72 1.384 . S
C73 C74 1.378 . S
C74 C73 1.378 . S
C74 C75 1.378 . S
C74 H86 0.952 . S
C75 C74 1.378 . S
C75 H87 0.950 . S
C75 C106 1.383 . S
H76 C95 0.947 . S
H77 C96 0.946 . S
H78 C98 0.953 . S
H79 C99 0.945 . S
H80 C101 0.952 . S
H81 C102 0.949 . S
H82 C104 0.950 . S
H83 C105 0.948 . S
H84 C107 0.951 . S
H85 C72 0.947 . S
H86 C74 0.952 . S
H87 C75 0.950 . S
N88 C91 1.382 . S
N88 C93 1.363 . S
N89 C91 1.371 . S
N89 C92 1.372 . S
N90 C92 1.361 . S
N90 C93 1.377 . S
C91 N88 1.382 . S
C91 N89 1.371 . S
C91 C94 1.480 . S
C92 N89 1.372 . S
C92 N90 1.361 . S
C92 C100 1.457 . S
C93 N88 1.363 . S
C93 N90 1.377 . S
C93 C106 1.479 . S
C94 C91 1.480 . S
C94 C95 1.383 . S
C94 C99 1.385 . S
C95 H76 0.947 . S
C95 C94 1.383 . S
C95 C96 1.388 . S
C96 H77 0.946 . S
C96 C95 1.388 . S
C96 C97 1.384 . S
C97 C96 1.384 . S
C97 C98 1.377 . S
C98 H78 0.953 . S
C98 C97 1.377 . S
C98 C99 1.369 . S
C99 H79 0.945 . S
C99 C94 1.385 . S
C99 C98 1.369 . S
C100 C92 1.457 . S
C100 C101 1.372 . S
C100 C105 1.364 . S
C101 H80 0.952 . S
C101 C100 1.372 . S
C101 C102 1.389 . S
C102 H81 0.949 . S
C102 C101 1.389 . S
C102 C103 1.387 . S
C103 C102 1.387 . S
C103 C104 1.372 . S
C104 H82 0.950 . S
C104 C103 1.372 . S
C104 C105 1.379 . S
C105 H83 0.948 . S
C105 C100 1.364 . S
C105 C104 1.379 . S
C106 C75 1.383 . S
C106 C93 1.479 . S
C106 C107 1.398 . S
C107 C72 1.382 . S
C107 H84 0.951 . S
C107 C106 1.398 . S
C108 C109 1.384 . S
C108 H121 0.947 . S
C108 C143 1.382 . S
C109 C108 1.384 . S
C109 C110 1.378 . S
C110 C109 1.378 . S
C110 C111 1.378 . S
C110 H122 0.952 . S
C111 C110 1.378 . S
C111 H123 0.950 . S
C111 C142 1.383 . S
H112 C131 0.947 . S
H113 C132 0.946 . S
H114 C134 0.953 . S
H115 C135 0.945 . S
H116 C137 0.952 . S
H117 C138 0.949 . S
H118 C140 0.950 . S
H119 C141 0.948 . S
H120 C143 0.951 . S
H121 C108 0.947 . S
H122 C110 0.952 . S
H123 C111 0.950 . S
N124 C127 1.382 . S
N124 C129 1.363 . S
N125 C127 1.371 . S
N125 C128 1.372 . S
N126 C128 1.361 . S
N126 C129 1.377 . S
C127 N124 1.382 . S
C127 N125 1.371 . S
C127 C130 1.480 . S
C128 N125 1.372 . S
C128 N126 1.361 . S
C128 C136 1.457 . S
C129 N124 1.363 . S
C129 N126 1.377 . S
C129 C142 1.479 . S
C130 C127 1.480 . S
C130 C131 1.383 . S
C130 C135 1.385 . S
C131 H112 0.947 . S
C131 C130 1.383 . S
C131 C132 1.388 . S
C132 H113 0.946 . S
C132 C131 1.388 . S
C132 C133 1.384 . S
C133 C132 1.384 . S
C133 C134 1.377 . S
C134 H114 0.953 . S
C134 C133 1.377 . S
C134 C135 1.369 . S
C135 H115 0.945 . S
C135 C130 1.385 . S
C135 C134 1.369 . S
C136 C128 1.457 . S
C136 C137 1.372 . S
C136 C141 1.364 . S
C137 H116 0.952 . S
C137 C136 1.372 . S
C137 C138 1.389 . S
C138 H117 0.949 . S
C138 C137 1.389 . S
C138 C139 1.387 . S
C139 C138 1.387 . S
C139 C140 1.372 . S
C140 H118 0.950 . S
C140 C139 1.372 . S
C140 C141 1.379 . S
C141 H119 0.948 . S
C141 C136 1.364 . S
C141 C140 1.379 . S
C142 C111 1.383 . S
C142 C129 1.479 . S
C142 C143 1.398 . S
C143 C108 1.382 . S
C143 H120 0.951 . S
C143 C142 1.398 . S
C144 C145 1.384 . S
C144 H157 0.947 . S
C144 C179 1.382 . S
C145 C144 1.384 . S
C145 C146 1.378 . S
C146 C145 1.378 . S
C146 C147 1.378 . S
C146 H158 0.952 . S
C147 C146 1.378 . S
C147 H159 0.950 . S
C147 C178 1.383 . S
H148 C167 0.947 . S
H149 C168 0.946 . S
H150 C170 0.953 . S
H151 C171 0.945 . S
H152 C173 0.952 . S
H153 C174 0.949 . S
H154 C176 0.950 . S
H155 C177 0.948 . S
H156 C179 0.951 . S
H157 C144 0.947 . S
H158 C146 0.952 . S
H159 C147 0.950 . S
N160 C163 1.382 . S
N160 C165 1.363 . S
N161 C163 1.371 . S
N161 C164 1.372 . S
N162 C164 1.361 . S
N162 C165 1.377 . S
C163 N160 1.382 . S
C163 N161 1.371 . S
C163 C166 1.480 . S
C164 N161 1.372 . S
C164 N162 1.361 . S
C164 C172 1.457 . S
C165 N160 1.363 . S
C165 N162 1.377 . S
C165 C178 1.479 . S
C166 C163 1.480 . S
C166 C167 1.383 . S
C166 C171 1.385 . S
C167 H148 0.947 . S
C167 C166 1.383 . S
C167 C168 1.388 . S
C168 H149 0.946 . S
C168 C167 1.388 . S
C168 C169 1.384 . S
C169 C168 1.384 . S
C169 C170 1.377 . S
C170 H150 0.953 . S
C170 C169 1.377 . S
C170 C171 1.369 . S
C171 H151 0.945 . S
C171 C166 1.385 . S
C171 C170 1.369 . S
C172 C164 1.457 . S
C172 C173 1.372 . S
C172 C177 1.364 . S
C173 H152 0.952 . S
C173 C172 1.372 . S
C173 C174 1.389 . S
C174 H153 0.949 . S
C174 C173 1.389 . S
C174 C175 1.387 . S
C175 C174 1.387 . S
C175 C176 1.372 . S
C176 H154 0.950 . S
C176 C175 1.372 . S
C176 C177 1.379 . S
C177 H155 0.948 . S
C177 C172 1.364 . S
C177 C176 1.379 . S
C178 C147 1.383 . S
C178 C165 1.479 . S
C178 C179 1.398 . S
C179 C144 1.382 . S
C179 H156 0.951 . S
C179 C178 1.398 . S
C180 C181 1.384 . S
C180 H193 0.947 . S
C180 C215 1.382 . S
C181 C180 1.384 . S
C181 C182 1.378 . S
C182 C181 1.378 . S
C182 C183 1.378 . S
C182 H194 0.952 . S
C183 C182 1.378 . S
C183 H195 0.950 . S
C183 C214 1.383 . S
H184 C203 0.947 . S
H185 C204 0.946 . S
H186 C206 0.953 . S
H187 C207 0.945 . S
H188 C209 0.952 . S
H189 C210 0.949 . S
H190 C212 0.950 . S
H191 C213 0.948 . S
H192 C215 0.951 . S
H193 C180 0.947 . S
H194 C182 0.952 . S
H195 C183 0.950 . S
N196 C199 1.382 . S
N196 C201 1.363 . S
N197 C199 1.371 . S
N197 C200 1.372 . S
N198 C200 1.361 . S
N198 C201 1.377 . S
C199 N196 1.382 . S
C199 N197 1.371 . S
C199 C202 1.480 . S
C200 N197 1.372 . S
C200 N198 1.361 . S
C200 C208 1.457 . S
C201 N196 1.363 . S
C201 N198 1.377 . S
C201 C214 1.479 . S
C202 C199 1.480 . S
C202 C203 1.383 . S
C202 C207 1.385 . S
C203 H184 0.947 . S
C203 C202 1.383 . S
C203 C204 1.388 . S
C204 H185 0.946 . S
C204 C203 1.388 . S
C204 C205 1.384 . S
C205 C204 1.384 . S
C205 C206 1.377 . S
C206 H186 0.953 . S
C206 C205 1.377 . S
C206 C207 1.369 . S
C207 H187 0.945 . S
C207 C202 1.385 . S
C207 C206 1.369 . S
C208 C200 1.457 . S
C208 C209 1.372 . S
C208 C213 1.364 . S
C209 H188 0.952 . S
C209 C208 1.372 . S
C209 C210 1.389 . S
C210 H189 0.949 . S
C210 C209 1.389 . S
C210 C211 1.387 . S
C211 C210 1.387 . S
C211 C212 1.372 . S
C212 H190 0.950 . S
C212 C211 1.372 . S
C212 C213 1.379 . S
C213 H191 0.948 . S
C213 C208 1.364 . S
C213 C212 1.379 . S
C214 C183 1.383 . S
C214 C201 1.479 . S
C214 C215 1.398 . S
C215 C180 1.382 . S
C215 H192 0.951 . S
C215 C214 1.398 . S
C216 C217 1.384 . S
C216 H229 0.947 . S
C216 C251 1.382 . S
C217 C216 1.384 . S
C217 C218 1.378 . S
C218 C217 1.378 . S
C218 C219 1.378 . S
C218 H230 0.952 . S
C219 C218 1.378 . S
C219 H231 0.950 . S
C219 C250 1.383 . S
H220 C239 0.947 . S
H221 C240 0.946 . S
H222 C242 0.953 . S
H223 C243 0.945 . S
H224 C245 0.952 . S
H225 C246 0.949 . S
H226 C248 0.950 . S
H227 C249 0.948 . S
H228 C251 0.951 . S
H229 C216 0.947 . S
H230 C218 0.952 . S
H231 C219 0.950 . S
N232 C235 1.382 . S
N232 C237 1.363 . S
N233 C235 1.371 . S
N233 C236 1.372 . S
N234 C236 1.361 . S
N234 C237 1.377 . S
C235 N232 1.382 . S
C235 N233 1.371 . S
C235 C238 1.480 . S
C236 N233 1.372 . S
C236 N234 1.361 . S
C236 C244 1.457 . S
C237 N232 1.363 . S
C237 N234 1.377 . S
C237 C250 1.479 . S
C238 C235 1.480 . S
C238 C239 1.383 . S
C238 C243 1.385 . S
C239 H220 0.947 . S
C239 C238 1.383 . S
C239 C240 1.388 . S
C240 H221 0.946 . S
C240 C239 1.388 . S
C240 C241 1.384 . S
C241 C240 1.384 . S
C241 C242 1.377 . S
C242 H222 0.953 . S
C242 C241 1.377 . S
C242 C243 1.369 . S
C243 H223 0.945 . S
C243 C238 1.385 . S
C243 C242 1.369 . S
C244 C236 1.457 . S
C244 C245 1.372 . S
C244 C249 1.364 . S
C245 H224 0.952 . S
C245 C244 1.372 . S
C245 C246 1.389 . S
C246 H225 0.949 . S
C246 C245 1.389 . S
C246 C247 1.387 . S
C247 C246 1.387 . S
C247 C248 1.372 . S
C248 H226 0.950 . S
C248 C247 1.372 . S
C248 C249 1.379 . S
C249 H227 0.948 . S
C249 C244 1.364 . S
C249 C248 1.379 . S
C250 C219 1.383 . S
C250 C237 1.479 . S
C250 C251 1.398 . S
C251 C216 1.382 . S
C251 H228 0.951 . S
C251 C250 1.398 . S
C252 C253 1.384 . S
C252 H265 0.947 . S
C252 C287 1.382 . S
C253 C252 1.384 . S
C253 C254 1.378 . S
C254 C253 1.378 . S
C254 C255 1.378 . S
C254 H266 0.952 . S
C255 C254 1.378 . S
C255 H267 0.950 . S
C255 C286 1.383 . S
H256 C275 0.947 . S
H257 C276 0.946 . S
H258 C278 0.953 . S
H259 C279 0.945 . S
H260 C281 0.952 . S
H261 C282 0.949 . S
H262 C284 0.950 . S
H263 C285 0.948 . S
H264 C287 0.951 . S
H265 C252 0.947 . S
H266 C254 0.952 . S
H267 C255 0.950 . S
N268 C271 1.382 . S
N268 C273 1.363 . S
N269 C271 1.371 . S
N269 C272 1.372 . S
N270 C272 1.361 . S
N270 C273 1.377 . S
C271 N268 1.382 . S
C271 N269 1.371 . S
C271 C274 1.480 . S
C272 N269 1.372 . S
C272 N270 1.361 . S
C272 C280 1.457 . S
C273 N268 1.363 . S
C273 N270 1.377 . S
C273 C286 1.479 . S
C274 C271 1.480 . S
C274 C275 1.383 . S
C274 C279 1.385 . S
C275 H256 0.947 . S
C275 C274 1.383 . S
C275 C276 1.388 . S
C276 H257 0.946 . S
C276 C275 1.388 . S
C276 C277 1.384 . S
C277 C276 1.384 . S
C277 C278 1.377 . S
C278 H258 0.953 . S
C278 C277 1.377 . S
C278 C279 1.369 . S
C279 H259 0.945 . S
C279 C274 1.385 . S
C279 C278 1.369 . S
C280 C272 1.457 . S
C280 C281 1.372 . S
C280 C285 1.364 . S
C281 H260 0.952 . S
C281 C280 1.372 . S
C281 C282 1.389 . S
C282 H261 0.949 . S
C282 C281 1.389 . S
C282 C283 1.387 . S
C283 C282 1.387 . S
C283 C284 1.372 . S
C284 H262 0.950 . S
C284 C283 1.372 . S
C284 C285 1.379 . S
C285 H263 0.948 . S
C285 C280 1.364 . S
C285 C284 1.379 . S
C286 C255 1.383 . S
C286 C273 1.479 . S
C286 C287 1.398 . S
C287 C252 1.382 . S
C287 H264 0.951 . S
C287 C286 1.398 . S
La288 C290 2.928 . S
La288 O308 2.521 . S
La288 O309 2.628 . S
La288 O310 2.554 1_545 S
La288 O311 2.757 1_545 S
La288 O312 2.470 . S
La288 O317 2.482 1_455 S
La288 O319 2.503 1_445 S
La289 C299 2.928 . S
La289 O311 2.482 1_655 S
La289 O313 2.503 1_665 S
La289 O314 2.521 . S
La289 O315 2.628 . S
La289 O316 2.554 1_565 S
La289 O317 2.757 1_565 S
La289 O318 2.470 . S
C290 La288 2.928 . S
C290 C291 1.503 . S
C290 O308 1.261 . S
C290 O309 1.243 . S
C291 C290 1.503 . S
C291 C292 1.394 . S
C291 C296 1.373 . S
C292 C291 1.394 . S
C292 C293 1.380 . S
C292 H320 0.930 . S
C293 C292 1.380 . S
C293 C294 1.376 . S
C293 H321 0.930 . S
C294 C293 1.376 . S
C294 C295 1.370 . S
C295 C294 1.370 . S
C295 C296 1.396 . S
C295 H322 0.929 . S
C296 C291 1.373 . S
C296 C295 1.396 . S
C296 H323 0.929 . S
C297 O310 1.240 . S
C297 O311 1.289 . S
C298 O312 1.258 . S
C298 O313 1.256 . S
C299 La289 2.928 . S
C299 C300 1.503 . S
C299 O314 1.261 . S
C299 O315 1.243 . S
C300 C299 1.503 . S
C300 C301 1.394 . S
C300 C305 1.373 . S
C301 C300 1.394 . S
C301 C302 1.380 . S
C301 H324 0.930 . S
C302 C301 1.380 . S
C302 C303 1.376 . S
C302 H325 0.930 . S
C303 C302 1.376 . S
C303 C304 1.370 . S
C304 C303 1.370 . S
C304 C305 1.396 . S
C304 H326 0.929 . S
C305 C300 1.373 . S
C305 C304 1.396 . S
C305 H327 0.929 . S
C306 O316 1.240 . S
C306 O317 1.289 . S
C307 O318 1.258 . S
C307 O319 1.256 . S
O308 La288 2.521 . S
O308 C290 1.261 . S
O309 La288 2.628 . S
O309 C290 1.243 . S
O310 La288 2.554 1_565 S
O310 C297 1.240 . S
O311 La288 2.757 1_565 S
O311 La289 2.482 1_455 S
O311 C297 1.289 . S
O312 La288 2.470 . S
O312 C298 1.258 . S
O313 La289 2.503 1_445 S
O313 C298 1.256 . S
O314 La289 2.521 . S
O314 C299 1.261 . S
O315 La289 2.628 . S
O315 C299 1.243 . S
O316 La289 2.554 1_545 S
O316 C306 1.240 . S
O317 La288 2.482 1_655 S
O317 La289 2.757 1_545 S
O317 C306 1.289 . S
O318 La289 2.470 . S
O318 C307 1.258 . S
O319 La288 2.503 1_665 S
O319 C307 1.256 . S
H320 C292 0.930 . S
H321 C293 0.930 . S
H322 C295 0.929 . S
H323 C296 0.929 . S
H324 C301 0.930 . S
H325 C302 0.930 . S
H326 C304 0.929 . S
H327 C305 0.929 . S
La328 C330 2.926 1_565 S
La328 O348 2.521 1_565 S
La328 O349 2.624 1_565 S
La328 O350 2.557 . S
La328 O351 2.758 . S
La328 O352 2.468 1_565 S
La328 O357 2.479 1_564 S
La328 O359 2.505 1_554 S
La329 C339 2.928 1_545 S
La329 O351 2.482 1_546 S
La329 O353 2.503 1_556 S
La329 O354 2.521 1_545 S
La329 O355 2.628 1_545 S
La329 O356 2.554 . S
La329 O357 2.757 . S
La329 O358 2.470 1_545 S
C330 La328 2.926 1_545 S
C330 C331 1.503 . S
C330 O348 1.261 . S
C330 O349 1.243 . S
C331 C330 1.503 . S
C331 C332 1.394 . S
C331 C336 1.373 . S
C332 C331 1.394 . S
C332 C333 1.380 . S
C332 H360 0.930 . S
C333 C332 1.380 . S
C333 C334 1.376 . S
C333 H361 0.930 . S
C334 C333 1.376 . S
C334 C335 1.370 . S
C335 C334 1.370 . S
C335 C336 1.396 . S
C335 H362 0.929 . S
C336 C331 1.373 . S
C336 C335 1.396 . S
C336 H363 0.929 . S
C337 O350 1.240 . S
C337 O351 1.289 . S
C338 O352 1.258 . S
C338 O353 1.256 . S
C339 La329 2.928 1_565 S
C339 C340 1.503 . S
C339 O354 1.261 . S
C339 O355 1.243 . S
C340 C339 1.503 . S
C340 C341 1.394 . S
C340 C345 1.373 . S
C341 C340 1.394 . S
C341 C342 1.380 . S
C341 H364 0.930 . S
C342 C341 1.380 . S
C342 C343 1.376 . S
C342 H365 0.930 . S
C343 C342 1.376 . S
C343 C344 1.370 . S
C344 C343 1.370 . S
C344 C345 1.396 . S
C344 H366 0.929 . S
C345 C340 1.373 . S
C345 C344 1.396 . S
C345 H367 0.929 . S
C346 O356 1.240 . S
C346 O357 1.289 . S
C347 O358 1.258 . S
C347 O359 1.256 . S
O348 La328 2.521 1_545 S
O348 C330 1.261 . S
O349 La328 2.624 1_545 S
O349 C330 1.243 . S
O350 La328 2.557 . S
O350 C337 1.240 . S
O351 La328 2.758 . S
O351 La329 2.482 1_564 S
O351 C337 1.289 . S
O352 La328 2.468 1_545 S
O352 C338 1.258 . S
O353 La329 2.503 1_554 S
O353 C338 1.256 . S
O354 La329 2.521 1_565 S
O354 C339 1.261 . S
O355 La329 2.628 1_565 S
O355 C339 1.243 . S
O356 La329 2.554 . S
O356 C346 1.240 . S
O357 La328 2.479 1_546 S
O357 La329 2.757 . S
O357 C346 1.289 . S
O358 La329 2.470 1_565 S
O358 C347 1.258 . S
O359 La328 2.505 1_556 S
O359 C347 1.256 . S
H360 C332 0.930 . S
H361 C333 0.930 . S
H362 C335 0.929 . S
H363 C336 0.929 . S
H364 C341 0.930 . S
H365 C342 0.930 . S
H366 C344 0.929 . S
H367 C345 0.929 . S
La368 C370 2.928 . S
La368 O388 2.521 . S
La368 O389 2.628 . S
La368 O390 2.554 . S
La368 O391 2.757 . S
La368 O392 2.470 . S
La368 O397 2.482 . S
La368 O399 2.503 . S
La369 C379 2.928 . S
La369 O391 2.482 . S
La369 O393 2.503 . S
La369 O394 2.521 . S
La369 O395 2.628 . S
La369 O396 2.554 . S
La369 O397 2.757 . S
La369 O398 2.470 . S
C370 La368 2.928 . S
C370 C371 1.503 . S
C370 O388 1.261 . S
C370 O389 1.243 . S
C371 C370 1.503 . S
C371 C372 1.394 . S
C371 C376 1.373 . S
C372 C371 1.394 . S
C372 C373 1.380 . S
C372 H400 0.930 . S
C373 C372 1.380 . S
C373 C374 1.376 . S
C373 H401 0.930 . S
C374 C373 1.376 . S
C374 C375 1.370 . S
C375 C374 1.370 . S
C375 C376 1.396 . S
C375 H402 0.929 . S
C376 C371 1.373 . S
C376 C375 1.396 . S
C376 H403 0.929 . S
C377 O390 1.240 . S
C377 O391 1.289 . S
C378 O392 1.258 . S
C378 O393 1.256 . S
C379 La369 2.928 . S
C379 C380 1.503 . S
C379 O394 1.261 . S
C379 O395 1.243 . S
C380 C379 1.503 . S
C380 C381 1.394 . S
C380 C385 1.373 . S
C381 C380 1.394 . S
C381 C382 1.380 . S
C381 H404 0.930 . S
C382 C381 1.380 . S
C382 C383 1.376 . S
C382 H405 0.930 . S
C383 C382 1.376 . S
C383 C384 1.370 . S
C384 C383 1.370 . S
C384 C385 1.396 . S
C384 H406 0.929 . S
C385 C380 1.373 . S
C385 C384 1.396 . S
C385 H407 0.929 . S
C386 O396 1.240 . S
C386 O397 1.289 . S
C387 O398 1.258 . S
C387 O399 1.256 . S
O388 La368 2.521 . S
O388 C370 1.261 . S
O389 La368 2.628 . S
O389 C370 1.243 . S
O390 La368 2.554 . S
O390 C377 1.240 . S
O391 La368 2.757 . S
O391 La369 2.482 . S
O391 C377 1.289 . S
O392 La368 2.470 . S
O392 C378 1.258 . S
O393 La369 2.503 . S
O393 C378 1.256 . S
O394 La369 2.521 . S
O394 C379 1.261 . S
O395 La369 2.628 . S
O395 C379 1.243 . S
O396 La369 2.554 . S
O396 C386 1.240 . S
O397 La368 2.482 . S
O397 La369 2.757 . S
O397 C386 1.289 . S
O398 La369 2.470 . S
O398 C387 1.258 . S
O399 La368 2.503 . S
O399 C387 1.256 . S
H400 C372 0.930 . S
H401 C373 0.930 . S
H402 C375 0.929 . S
H403 C376 0.929 . S
H404 C381 0.930 . S
H405 C382 0.930 . S
H406 C384 0.929 . S
H407 C385 0.929 . S
La408 C410 2.928 . S
La408 O428 2.521 . S
La408 O429 2.628 . S
La408 O430 2.554 1_455 S
La408 O431 2.757 1_455 S
La408 O432 2.470 . S
La408 O437 2.482 1_554 S
La408 O439 2.503 1_454 S
La409 C419 2.928 1_455 S
La409 O431 2.482 1_456 S
La409 O433 2.503 1_556 S
La409 O434 2.521 1_455 S
La409 O435 2.628 1_455 S
La409 O436 2.554 . S
La409 O437 2.757 . S
La409 O438 2.470 1_455 S
C410 La408 2.928 . S
C410 C411 1.503 . S
C410 O428 1.261 . S
C410 O429 1.243 . S
C411 C410 1.503 . S
C411 C412 1.394 . S
C411 C416 1.373 . S
C412 C411 1.394 . S
C412 C413 1.380 . S
C412 H440 0.930 . S
C413 C412 1.380 . S
C413 C414 1.376 . S
C413 H441 0.930 . S
C414 C413 1.376 . S
C414 C415 1.370 . S
C415 C414 1.370 . S
C415 C416 1.396 . S
C415 H442 0.929 . S
C416 C411 1.373 . S
C416 C415 1.396 . S
C416 H443 0.929 . S
C417 O430 1.240 . S
C417 O431 1.289 . S
C418 O432 1.258 . S
C418 O433 1.256 . S
C419 La409 2.928 1_655 S
C419 C420 1.503 . S
C419 O434 1.261 . S
C419 O435 1.243 . S
C420 C419 1.503 . S
C420 C421 1.394 . S
C420 C425 1.373 . S
C421 C420 1.394 . S
C421 C422 1.380 . S
C421 H444 0.930 . S
C422 C421 1.380 . S
C422 C423 1.376 . S
C422 H445 0.930 . S
C423 C422 1.376 . S
C423 C424 1.370 . S
C424 C423 1.370 . S
C424 C425 1.396 . S
C424 H446 0.929 . S
C425 C420 1.373 . S
C425 C424 1.396 . S
C425 H447 0.929 . S
C426 O436 1.240 . S
C426 O437 1.289 . S
C427 O438 1.258 . S
C427 O439 1.256 . S
O428 La408 2.521 . S
O428 C410 1.261 . S
O429 La408 2.628 . S
O429 C410 1.243 . S
O430 La408 2.554 1_655 S
O430 C417 1.240 . S
O431 La408 2.757 1_655 S
O431 La409 2.482 1_654 S
O431 C417 1.289 . S
O432 La408 2.470 . S
O432 C418 1.258 . S
O433 La409 2.503 1_554 S
O433 C418 1.256 . S
O434 La409 2.521 1_655 S
O434 C419 1.261 . S
O435 La409 2.628 1_655 S
O435 C419 1.243 . S
O436 La409 2.554 . S
O436 C426 1.240 . S
O437 La408 2.482 1_556 S
O437 La409 2.757 . S
O437 C426 1.289 . S
O438 La409 2.470 1_655 S
O438 C427 1.258 . S
O439 La408 2.503 1_656 S
O439 C427 1.256 . S
H440 C412 0.930 . S
H441 C413 0.930 . S
H442 C415 0.929 . S
H443 C416 0.929 . S
H444 C421 0.930 . S
H445 C422 0.930 . S
H446 C424 0.929 . S
H447 C425 0.929 . S
C448 C449 1.349 . S
C448 C450 1.327 . S
C448 H473 0.950 . S
C449 C448 1.349 . S
C449 C465 1.349 . S
C450 C448 1.327 . S
C450 C469 1.429 . S
C450 H474 0.950 . S
C451 C468 1.574 . S
C451 C470 1.368 . S
C451 H475 0.949 . S
H452 C456 0.949 . S
C453 C454 1.349 . S
C453 C455 1.327 . S
C453 H476 0.950 . S
C454 C453 1.349 . S
C454 C466 1.349 . S
C455 C453 1.327 . S
C455 C471 1.429 . S
C455 H477 0.950 . S
C456 H452 0.949 . S
C456 C464 1.574 . S
C456 C472 1.368 . S
H457 C465 0.950 . S
H458 C463 0.950 . S
H459 C464 0.949 . S
H460 C466 0.950 . S
H461 C467 0.950 . S
H462 C468 0.949 . S
C463 H458 0.950 . S
C463 C465 1.327 . S
C463 C469 1.429 . S
C464 C456 1.574 . S
C464 H459 0.949 . S
C464 C470 1.368 . S
C465 C449 1.349 . S
C465 H457 0.950 . S
C465 C463 1.327 . S
C466 C454 1.349 . S
C466 H460 0.950 . S
C466 C467 1.327 . S
C467 H461 0.950 . S
C467 C466 1.327 . S
C467 C471 1.429 . S
C468 C451 1.574 . S
C468 H462 0.949 . S
C468 C472 1.368 . S
C469 C450 1.429 . S
C469 C463 1.429 . S
C469 C470 1.523 . S
C470 C451 1.368 . S
C470 C464 1.368 . S
C470 C469 1.523 . S
C471 C455 1.429 . S
C471 C467 1.429 . S
C471 C472 1.523 . S
C472 C456 1.368 . S
C472 C468 1.368 . S
C472 C471 1.523 . S
H473 C448 0.950 . S
H474 C450 0.950 . S
H475 C451 0.949 . S
H476 C453 0.950 . S
H477 C455 0.950 . S
C478 C479 1.349 . S
C478 C480 1.327 . S
C478 H503 0.950 . S
C479 C478 1.349 . S
C479 C495 1.349 . S
C480 C478 1.327 . S
C480 C499 1.429 . S
C480 H504 0.950 . S
C481 C498 1.574 . S
C481 C500 1.368 . S
C481 H505 0.949 . S
H482 C486 0.949 . S
C483 C484 1.349 . S
C483 C485 1.327 . S
C483 H506 0.950 . S
C484 C483 1.349 . S
C484 C496 1.349 . S
C485 C483 1.327 . S
C485 C501 1.429 . S
C485 H507 0.950 . S
C486 H482 0.949 . S
C486 C494 1.574 . S
C486 C502 1.368 . S
H487 C495 0.950 . S
H488 C493 0.950 . S
H489 C494 0.949 . S
H490 C496 0.950 . S
H491 C497 0.950 . S
H492 C498 0.949 . S
C493 H488 0.950 . S
C493 C495 1.327 . S
C493 C499 1.429 . S
C494 C486 1.574 . S
C494 H489 0.949 . S
C494 C500 1.368 . S
C495 C479 1.349 . S
C495 H487 0.950 . S
C495 C493 1.327 . S
C496 C484 1.349 . S
C496 H490 0.950 . S
C496 C497 1.327 . S
C497 H491 0.950 . S
C497 C496 1.327 . S
C497 C501 1.429 . S
C498 C481 1.574 . S
C498 H492 0.949 . S
C498 C502 1.368 . S
C499 C480 1.429 . S
C499 C493 1.429 . S
C499 C500 1.523 . S
C500 C481 1.368 . S
C500 C494 1.368 . S
C500 C499 1.523 . S
C501 C485 1.429 . S
C501 C497 1.429 . S
C501 C502 1.523 . S
C502 C486 1.368 . S
C502 C498 1.368 . S
C502 C501 1.523 . S
H503 C478 0.950 . S
H504 C480 0.950 . S
H505 C481 0.949 . S
H506 C483 0.950 . S
H507 C485 0.950 . S
C508 C509 1.349 . S
C508 C510 1.327 . S
C508 H533 0.950 . S
C509 C508 1.349 . S
C509 C525 1.349 . S
C510 C508 1.327 . S
C510 C529 1.429 . S
C510 H534 0.950 . S
C511 C528 1.574 . S
C511 C530 1.368 . S
C511 H535 0.949 . S
H512 C516 0.949 . S
C513 C514 1.349 . S
C513 C515 1.327 . S
C513 H536 0.950 . S
C514 C513 1.349 . S
C514 C526 1.349 . S
C515 C513 1.327 . S
C515 C531 1.429 . S
C515 H537 0.950 . S
C516 H512 0.949 . S
C516 C524 1.574 . S
C516 C532 1.368 . S
H517 C525 0.950 . S
H518 C523 0.950 . S
H519 C524 0.949 . S
H520 C526 0.950 . S
H521 C527 0.950 . S
H522 C528 0.949 . S
C523 H518 0.950 . S
C523 C525 1.327 . S
C523 C529 1.429 . S
C524 C516 1.574 . S
C524 H519 0.949 . S
C524 C530 1.368 . S
C525 C509 1.349 . S
C525 H517 0.950 . S
C525 C523 1.327 . S
C526 C514 1.349 . S
C526 H520 0.950 . S
C526 C527 1.327 . S
C527 H521 0.950 . S
C527 C526 1.327 . S
C527 C531 1.429 . S
C528 C511 1.574 . S
C528 H522 0.949 . S
C528 C532 1.368 . S
C529 C510 1.429 . S
C529 C523 1.429 . S
C529 C530 1.523 . S
C530 C511 1.368 . S
C530 C524 1.368 . S
C530 C529 1.523 . S
C531 C515 1.429 . S
C531 C527 1.429 . S
C531 C532 1.523 . S
C532 C516 1.368 . S
C532 C528 1.368 . S
C532 C531 1.523 . S
H533 C508 0.950 . S
H534 C510 0.950 . S
H535 C511 0.949 . S
H536 C513 0.950 . S
H537 C515 0.950 . S
C538 C539 1.349 . S
C538 C540 1.327 . S
C538 H563 0.950 . S
C539 C538 1.349 . S
C539 C555 1.349 . S
C540 C538 1.327 . S
C540 C559 1.429 . S
C540 H564 0.950 . S
C541 C558 1.574 . S
C541 C560 1.368 . S
C541 H565 0.949 . S
H542 C546 0.949 . S
C543 C544 1.349 . S
C543 C545 1.327 . S
C543 H566 0.950 . S
C544 C543 1.349 . S
C544 C556 1.349 . S
C545 C543 1.327 . S
C545 C561 1.429 . S
C545 H567 0.950 . S
C546 H542 0.949 . S
C546 C554 1.574 . S
C546 C562 1.368 . S
H547 C555 0.950 . S
H548 C553 0.950 . S
H549 C554 0.949 . S
H550 C556 0.950 . S
H551 C557 0.950 . S
H552 C558 0.949 . S
C553 H548 0.950 . S
C553 C555 1.327 . S
C553 C559 1.429 . S
C554 C546 1.574 . S
C554 H549 0.949 . S
C554 C560 1.368 . S
C555 C539 1.349 . S
C555 H547 0.950 . S
C555 C553 1.327 . S
C556 C544 1.349 . S
C556 H550 0.950 . S
C556 C557 1.327 . S
C557 H551 0.950 . S
C557 C556 1.327 . S
C557 C561 1.429 . S
C558 C541 1.574 . S
C558 H552 0.949 . S
C558 C562 1.368 . S
C559 C540 1.429 . S
C559 C553 1.429 . S
C559 C560 1.523 . S
C560 C541 1.368 . S
C560 C554 1.368 . S
C560 C559 1.523 . S
C561 C545 1.429 . S
C561 C557 1.429 . S
C561 C562 1.523 . S
C562 C546 1.368 . S
C562 C558 1.368 . S
C562 C561 1.523 . S
H563 C538 0.950 . S
H564 C540 0.950 . S
H565 C541 0.949 . S
H566 C543 0.950 . S
H567 C545 0.950 . S
C568 C569 1.349 . S
C568 C570 1.327 . S
C568 H593 0.950 . S
C569 C568 1.349 . S
C569 C585 1.349 . S
C570 C568 1.327 . S
C570 C589 1.429 . S
C570 H594 0.950 . S
C571 C588 1.574 . S
C571 C590 1.368 . S
C571 H595 0.949 . S
H572 C576 0.949 . S
C573 C574 1.349 . S
C573 C575 1.327 . S
C573 H596 0.950 . S
C574 C573 1.349 . S
C574 C586 1.349 . S
C575 C573 1.327 . S
C575 C591 1.429 . S
C575 H597 0.950 . S
C576 H572 0.949 . S
C576 C584 1.574 . S
C576 C592 1.368 . S
H577 C585 0.950 . S
H578 C583 0.950 . S
H579 C584 0.949 . S
H580 C586 0.950 . S
H581 C587 0.950 . S
H582 C588 0.949 . S
C583 H578 0.950 . S
C583 C585 1.327 . S
C583 C589 1.429 . S
C584 C576 1.574 . S
C584 H579 0.949 . S
C584 C590 1.368 . S
C585 C569 1.349 . S
C585 H577 0.950 . S
C585 C583 1.327 . S
C586 C574 1.349 . S
C586 H580 0.950 . S
C586 C587 1.327 . S
C587 H581 0.950 . S
C587 C586 1.327 . S
C587 C591 1.429 . S
C588 C571 1.574 . S
C588 H582 0.949 . S
C588 C592 1.368 . S
C589 C570 1.429 . S
C589 C583 1.429 . S
C589 C590 1.523 . S
C590 C571 1.368 . S
C590 C584 1.368 . S
C590 C589 1.523 . S
C591 C575 1.429 . S
C591 C587 1.429 . S
C591 C592 1.523 . S
C592 C576 1.368 . S
C592 C588 1.368 . S
C592 C591 1.523 . S
H593 C568 0.950 . S
H594 C570 0.950 . S
H595 C571 0.949 . S
H596 C573 0.950 . S
H597 C575 0.950 . S
C598 C599 1.349 . S
C598 C600 1.327 . S
C598 H623 0.950 . S
C599 C598 1.349 . S
C599 C615 1.349 . S
C600 C598 1.327 . S
C600 C619 1.429 . S
C600 H624 0.950 . S
C601 C618 1.574 . S
C601 C620 1.368 . S
C601 H625 0.949 . S
H602 C606 0.949 . S
C603 C604 1.349 . S
C603 C605 1.327 . S
C603 H626 0.950 . S
C604 C603 1.349 . S
C604 C616 1.349 . S
C605 C603 1.327 . S
C605 C621 1.429 . S
C605 H627 0.950 . S
C606 H602 0.949 . S
C606 C614 1.574 . S
C606 C622 1.368 . S
H607 C615 0.950 . S
H608 C613 0.950 . S
H609 C614 0.949 . S
H610 C616 0.950 . S
H611 C617 0.950 . S
H612 C618 0.949 . S
C613 H608 0.950 . S
C613 C615 1.327 . S
C613 C619 1.429 . S
C614 C606 1.574 . S
C614 H609 0.949 . S
C614 C620 1.368 . S
C615 C599 1.349 . S
C615 H607 0.950 . S
C615 C613 1.327 . S
C616 C604 1.349 . S
C616 H610 0.950 . S
C616 C617 1.327 . S
C617 H611 0.950 . S
C617 C616 1.327 . S
C617 C621 1.429 . S
C618 C601 1.574 . S
C618 H612 0.949 . S
C618 C622 1.368 . S
C619 C600 1.429 . S
C619 C613 1.429 . S
C619 C620 1.523 . S
C620 C601 1.368 . S
C620 C614 1.368 . S
C620 C619 1.523 . S
C621 C605 1.429 . S
C621 C617 1.429 . S
C621 C622 1.523 . S
C622 C606 1.368 . S
C622 C618 1.368 . S
C622 C621 1.523 . S
H623 C598 0.950 . S
H624 C600 0.950 . S
H625 C601 0.949 . S
H626 C603 0.950 . S
H627 C605 0.950 . S
C628 C629 1.349 . S
C628 C630 1.327 . S
C628 H653 0.950 . S
C629 C628 1.349 . S
C629 C645 1.349 . S
C630 C628 1.327 . S
C630 C649 1.429 . S
C630 H654 0.950 . S
C631 C648 1.574 . S
C631 C650 1.368 . S
C631 H655 0.949 . S
H632 C636 0.949 . S
C633 C634 1.349 . S
C633 C635 1.327 . S
C633 H656 0.950 . S
C634 C633 1.349 . S
C634 C646 1.349 . S
C635 C633 1.327 . S
C635 C651 1.429 . S
C635 H657 0.950 . S
C636 H632 0.949 . S
C636 C644 1.574 . S
C636 C652 1.368 . S
H637 C645 0.950 . S
H638 C643 0.950 . S
H639 C644 0.949 . S
H640 C646 0.950 . S
H641 C647 0.950 . S
H642 C648 0.949 . S
C643 H638 0.950 . S
C643 C645 1.327 . S
C643 C649 1.429 . S
C644 C636 1.574 . S
C644 H639 0.949 . S
C644 C650 1.368 . S
C645 C629 1.349 . S
C645 H637 0.950 . S
C645 C643 1.327 . S
C646 C634 1.349 . S
C646 H640 0.950 . S
C646 C647 1.327 . S
C647 H641 0.950 . S
C647 C646 1.327 . S
C647 C651 1.429 . S
C648 C631 1.574 . S
C648 H642 0.949 . S
C648 C652 1.368 . S
C649 C630 1.429 . S
C649 C643 1.429 . S
C649 C650 1.523 . S
C650 C631 1.368 . S
C650 C644 1.368 . S
C650 C649 1.523 . S
C651 C635 1.429 . S
C651 C647 1.429 . S
C651 C652 1.523 . S
C652 C636 1.368 . S
C652 C648 1.368 . S
C652 C651 1.523 . S
H653 C628 0.950 . S
H654 C630 0.950 . S
H655 C631 0.949 . S
H656 C633 0.950 . S
H657 C635 0.950 . S
C658 C659 1.349 . S
C658 C660 1.327 . S
C658 H683 0.950 . S
C659 C658 1.349 . S
C659 C675 1.349 . S
C660 C658 1.327 . S
C660 C679 1.429 . S
C660 H684 0.950 . S
C661 C678 1.574 . S
C661 C680 1.368 . S
C661 H685 0.949 . S
H662 C666 0.949 . S
C663 C664 1.349 . S
C663 C665 1.327 . S
C663 H686 0.950 . S
C664 C663 1.349 . S
C664 C676 1.349 . S
C665 C663 1.327 . S
C665 C681 1.429 . S
C665 H687 0.950 . S
C666 H662 0.949 . S
C666 C674 1.574 . S
C666 C682 1.368 . S
H667 C675 0.950 . S
H668 C673 0.950 . S
H669 C674 0.949 . S
H670 C676 0.950 . S
H671 C677 0.950 . S
H672 C678 0.949 . S
C673 H668 0.950 . S
C673 C675 1.327 . S
C673 C679 1.429 . S
C674 C666 1.574 . S
C674 H669 0.949 . S
C674 C680 1.368 . S
C675 C659 1.349 . S
C675 H667 0.950 . S
C675 C673 1.327 . S
C676 C664 1.349 . S
C676 H670 0.950 . S
C676 C677 1.327 . S
C677 H671 0.950 . S
C677 C676 1.327 . S
C677 C681 1.429 . S
C678 C661 1.574 . S
C678 H672 0.949 . S
C678 C682 1.368 . S
C679 C660 1.429 . S
C679 C673 1.429 . S
C679 C680 1.523 . S
C680 C661 1.368 . S
C680 C674 1.368 . S
C680 C679 1.523 . S
C681 C665 1.429 . S
C681 C677 1.429 . S
C681 C682 1.523 . S
C682 C666 1.368 . S
C682 C678 1.368 . S
C682 C681 1.523 . S
H683 C658 0.950 . S
H684 C660 0.950 . S
H685 C661 0.949 . S
H686 C663 0.950 . S
H687 C665 0.950 . S
C688 C689 1.349 . S
C688 C690 1.327 . S
C688 H713 0.950 . S
C689 C688 1.349 . S
C689 C705 1.349 . S
C690 C688 1.327 . S
C690 C709 1.429 . S
C690 H714 0.950 . S
C691 C708 1.574 . S
C691 C710 1.368 . S
C691 H715 0.949 . S
H692 C696 0.949 . S
C693 C694 1.349 . S
C693 C695 1.327 . S
C693 H716 0.950 . S
C694 C693 1.349 . S
C694 C706 1.349 . S
C695 C693 1.327 . S
C695 C711 1.429 . S
C695 H717 0.950 . S
C696 H692 0.949 . S
C696 C704 1.574 . S
C696 C712 1.368 . S
H697 C705 0.950 . S
H698 C703 0.950 . S
H699 C704 0.949 . S
H700 C706 0.950 . S
H701 C707 0.950 . S
H702 C708 0.949 . S
C703 H698 0.950 . S
C703 C705 1.327 . S
C703 C709 1.429 . S
C704 C696 1.574 . S
C704 H699 0.949 . S
C704 C710 1.368 . S
C705 C689 1.349 . S
C705 H697 0.950 . S
C705 C703 1.327 . S
C706 C694 1.349 . S
C706 H700 0.950 . S
C706 C707 1.327 . S
C707 H701 0.950 . S
C707 C706 1.327 . S
C707 C711 1.429 . S
C708 C691 1.574 . S
C708 H702 0.949 . S
C708 C712 1.368 . S
C709 C690 1.429 . S
C709 C703 1.429 . S
C709 C710 1.523 . S
C710 C691 1.368 . S
C710 C704 1.368 . S
C710 C709 1.523 . S
C711 C695 1.429 . S
C711 C707 1.429 . S
C711 C712 1.523 . S
C712 C696 1.368 . S
C712 C708 1.368 . S
C712 C711 1.523 . S
H713 C688 0.950 . S
H714 C690 0.950 . S
H715 C691 0.949 . S
H716 C693 0.950 . S
H717 C695 0.950 . S
C718 C719 1.349 . S
C718 C720 1.327 . S
C718 H743 0.950 . S
C719 C718 1.349 . S
C719 C735 1.349 . S
C720 C718 1.327 . S
C720 C739 1.429 . S
C720 H744 0.950 . S
C721 C738 1.574 . S
C721 C740 1.368 . S
C721 H745 0.949 . S
H722 C726 0.949 . S
C723 C724 1.349 . S
C723 C725 1.327 . S
C723 H746 0.950 . S
C724 C723 1.349 . S
C724 C736 1.349 . S
C725 C723 1.327 . S
C725 C741 1.429 . S
C725 H747 0.950 . S
C726 H722 0.949 . S
C726 C734 1.574 . S
C726 C742 1.368 . S
H727 C735 0.950 . S
H728 C733 0.950 . S
H729 C734 0.949 . S
H730 C736 0.950 . S
H731 C737 0.950 . S
H732 C738 0.949 . S
C733 H728 0.950 . S
C733 C735 1.327 . S
C733 C739 1.429 . S
C734 C726 1.574 . S
C734 H729 0.949 . S
C734 C740 1.368 . S
C735 C719 1.349 . S
C735 H727 0.950 . S
C735 C733 1.327 . S
C736 C724 1.349 . S
C736 H730 0.950 . S
C736 C737 1.327 . S
C737 H731 0.950 . S
C737 C736 1.327 . S
C737 C741 1.429 . S
C738 C721 1.574 . S
C738 H732 0.949 . S
C738 C742 1.368 . S
C739 C720 1.429 . S
C739 C733 1.429 . S
C739 C740 1.523 . S
C740 C721 1.368 . S
C740 C734 1.368 . S
C740 C739 1.523 . S
C741 C725 1.429 . S
C741 C737 1.429 . S
C741 C742 1.523 . S
C742 C726 1.368 . S
C742 C738 1.368 . S
C742 C741 1.523 . S
H743 C718 0.950 . S
H744 C720 0.950 . S
H745 C721 0.949 . S
H746 C723 0.950 . S
H747 C725 0.950 . S
C748 C749 1.349 . S
C748 C750 1.327 . S
C748 H773 0.950 . S
C749 C748 1.349 . S
C749 C765 1.349 . S
C750 C748 1.327 . S
C750 C769 1.429 . S
C750 H774 0.950 . S
C751 C768 1.574 . S
C751 C770 1.368 . S
C751 H775 0.949 . S
H752 C756 0.949 . S
C753 C754 1.349 . S
C753 C755 1.327 . S
C753 H776 0.950 . S
C754 C753 1.349 . S
C754 C766 1.349 . S
C755 C753 1.327 . S
C755 C771 1.429 . S
C755 H777 0.950 . S
C756 H752 0.949 . S
C756 C764 1.574 . S
C756 C772 1.368 . S
H757 C765 0.950 . S
H758 C763 0.950 . S
H759 C764 0.949 . S
H760 C766 0.950 . S
H761 C767 0.950 . S
H762 C768 0.949 . S
C763 H758 0.950 . S
C763 C765 1.327 . S
C763 C769 1.429 . S
C764 C756 1.574 . S
C764 H759 0.949 . S
C764 C770 1.368 . S
C765 C749 1.349 . S
C765 H757 0.950 . S
C765 C763 1.327 . S
C766 C754 1.349 . S
C766 H760 0.950 . S
C766 C767 1.327 . S
C767 H761 0.950 . S
C767 C766 1.327 . S
C767 C771 1.429 . S
C768 C751 1.574 . S
C768 H762 0.949 . S
C768 C772 1.368 . S
C769 C750 1.429 . S
C769 C763 1.429 . S
C769 C770 1.523 . S
C770 C751 1.368 . S
C770 C764 1.368 . S
C770 C769 1.523 . S
C771 C755 1.429 . S
C771 C767 1.429 . S
C771 C772 1.523 . S
C772 C756 1.368 . S
C772 C768 1.368 . S
C772 C771 1.523 . S
H773 C748 0.950 . S
H774 C750 0.950 . S
H775 C751 0.949 . S
H776 C753 0.950 . S
H777 C755 0.950 . S
C778 C779 1.349 . S
C778 C780 1.327 . S
C778 H803 0.950 . S
C779 C778 1.349 . S
C779 C795 1.349 . S
C780 C778 1.327 . S
C780 C799 1.429 . S
C780 H804 0.950 . S
C781 C798 1.574 . S
C781 C800 1.368 . S
C781 H805 0.949 . S
H782 C786 0.949 . S
C783 C784 1.349 . S
C783 C785 1.327 . S
C783 H806 0.950 . S
C784 C783 1.349 . S
C784 C796 1.349 . S
C785 C783 1.327 . S
C785 C801 1.429 . S
C785 H807 0.950 . S
C786 H782 0.949 . S
C786 C794 1.574 . S
C786 C802 1.368 . S
H787 C795 0.950 . S
H788 C793 0.950 . S
H789 C794 0.949 . S
H790 C796 0.950 . S
H791 C797 0.950 . S
H792 C798 0.949 . S
C793 H788 0.950 . S
C793 C795 1.327 . S
C793 C799 1.429 . S
C794 C786 1.574 . S
C794 H789 0.949 . S
C794 C800 1.368 . S
C795 C779 1.349 . S
C795 H787 0.950 . S
C795 C793 1.327 . S
C796 C784 1.349 . S
C796 H790 0.950 . S
C796 C797 1.327 . S
C797 H791 0.950 . S
C797 C796 1.327 . S
C797 C801 1.429 . S
C798 C781 1.574 . S
C798 H792 0.949 . S
C798 C802 1.368 . S
C799 C780 1.429 . S
C799 C793 1.429 . S
C799 C800 1.523 . S
C800 C781 1.368 . S
C800 C794 1.368 . S
C800 C799 1.523 . S
C801 C785 1.429 . S
C801 C797 1.429 . S
C801 C802 1.523 . S
C802 C786 1.368 . S
C802 C798 1.368 . S
C802 C801 1.523 . S
H803 C778 0.950 . S
H804 C780 0.950 . S
H805 C781 0.949 . S
H806 C783 0.950 . S
H807 C785 0.950 . S
C808 C809 1.349 . S
C808 C810 1.327 . S
C808 H833 0.950 . S
C809 C808 1.349 . S
C809 C825 1.349 . S
C810 C808 1.327 . S
C810 C829 1.429 . S
C810 H834 0.950 . S
C811 C828 1.574 . S
C811 C830 1.368 . S
C811 H835 0.949 . S
H812 C816 0.949 . S
C813 C814 1.349 . S
C813 C815 1.327 . S
C813 H836 0.950 . S
C814 C813 1.349 . S
C814 C826 1.349 . S
C815 C813 1.327 . S
C815 C831 1.429 . S
C815 H837 0.950 . S
C816 H812 0.949 . S
C816 C824 1.574 . S
C816 C832 1.368 . S
H817 C825 0.950 . S
H818 C823 0.950 . S
H819 C824 0.949 . S
H820 C826 0.950 . S
H821 C827 0.950 . S
H822 C828 0.949 . S
C823 H818 0.950 . S
C823 C825 1.327 . S
C823 C829 1.429 . S
C824 C816 1.574 . S
C824 H819 0.949 . S
C824 C830 1.368 . S
C825 C809 1.349 . S
C825 H817 0.950 . S
C825 C823 1.327 . S
C826 C814 1.349 . S
C826 H820 0.950 . S
C826 C827 1.327 . S
C827 H821 0.950 . S
C827 C826 1.327 . S
C827 C831 1.429 . S
C828 C811 1.574 . S
C828 H822 0.949 . S
C828 C832 1.368 . S
C829 C810 1.429 . S
C829 C823 1.429 . S
C829 C830 1.523 . S
C830 C811 1.368 . S
C830 C824 1.368 . S
C830 C829 1.523 . S
C831 C815 1.429 . S
C831 C827 1.429 . S
C831 C832 1.523 . S
C832 C816 1.368 . S
C832 C828 1.368 . S
C832 C831 1.523 . S
H833 C808 0.950 . S
H834 C810 0.950 . S
H835 C811 0.949 . S
H836 C813 0.950 . S
H837 C815 0.950 . S
C838 C839 1.349 . S
C838 C840 1.327 . S
C838 H863 0.950 . S
C839 C838 1.349 . S
C839 C855 1.349 . S
C840 C838 1.327 . S
C840 C859 1.429 . S
C840 H864 0.950 . S
C841 C858 1.574 . S
C841 C860 1.368 . S
C841 H865 0.949 . S
H842 C846 0.949 . S
C843 C844 1.349 . S
C843 C845 1.327 . S
C843 H866 0.950 . S
C844 C843 1.349 . S
C844 C856 1.349 . S
C845 C843 1.327 . S
C845 C861 1.429 . S
C845 H867 0.950 . S
C846 H842 0.949 . S
C846 C854 1.574 . S
C846 C862 1.368 . S
H847 C855 0.950 . S
H848 C853 0.950 . S
H849 C854 0.949 . S
H850 C856 0.950 . S
H851 C857 0.950 . S
H852 C858 0.949 . S
C853 H848 0.950 . S
C853 C855 1.327 . S
C853 C859 1.429 . S
C854 C846 1.574 . S
C854 H849 0.949 . S
C854 C860 1.368 . S
C855 C839 1.349 . S
C855 H847 0.950 . S
C855 C853 1.327 . S
C856 C844 1.349 . S
C856 H850 0.950 . S
C856 C857 1.327 . S
C857 H851 0.950 . S
C857 C856 1.327 . S
C857 C861 1.429 . S
C858 C841 1.574 . S
C858 H852 0.949 . S
C858 C862 1.368 . S
C859 C840 1.429 . S
C859 C853 1.429 . S
C859 C860 1.523 . S
C860 C841 1.368 . S
C860 C854 1.368 . S
C860 C859 1.523 . S
C861 C845 1.429 . S
C861 C857 1.429 . S
C861 C862 1.523 . S
C862 C846 1.368 . S
C862 C858 1.368 . S
C862 C861 1.523 . S
H863 C838 0.950 . S
H864 C840 0.950 . S
H865 C841 0.949 . S
H866 C843 0.950 . S
H867 C845 0.950 . S
C868 C869 1.349 . S
C868 C870 1.327 . S
C868 H893 0.950 . S
C869 C868 1.349 . S
C869 C885 1.349 . S
C870 C868 1.327 . S
C870 C889 1.429 . S
C870 H894 0.950 . S
C871 C888 1.574 . S
C871 C890 1.368 . S
C871 H895 0.949 . S
H872 C876 0.949 . S
C873 C874 1.349 . S
C873 C875 1.327 . S
C873 H896 0.950 . S
C874 C873 1.349 . S
C874 C886 1.349 . S
C875 C873 1.327 . S
C875 C891 1.429 . S
C875 H897 0.950 . S
C876 H872 0.949 . S
C876 C884 1.574 . S
C876 C892 1.368 . S
H877 C885 0.950 . S
H878 C883 0.950 . S
H879 C884 0.949 . S
H880 C886 0.950 . S
H881 C887 0.950 . S
H882 C888 0.949 . S
C883 H878 0.950 . S
C883 C885 1.327 . S
C883 C889 1.429 . S
C884 C876 1.574 . S
C884 H879 0.949 . S
C884 C890 1.368 . S
C885 C869 1.349 . S
C885 H877 0.950 . S
C885 C883 1.327 . S
C886 C874 1.349 . S
C886 H880 0.950 . S
C886 C887 1.327 . S
C887 H881 0.950 . S
C887 C886 1.327 . S
C887 C891 1.429 . S
C888 C871 1.574 . S
C888 H882 0.949 . S
C888 C892 1.368 . S
C889 C870 1.429 . S
C889 C883 1.429 . S
C889 C890 1.523 . S
C890 C871 1.368 . S
C890 C884 1.368 . S
C890 C889 1.523 . S
C891 C875 1.429 . S
C891 C887 1.429 . S
C891 C892 1.523 . S
C892 C876 1.368 . S
C892 C888 1.368 . S
C892 C891 1.523 . S
H893 C868 0.950 . S
H894 C870 0.950 . S
H895 C871 0.949 . S
H896 C873 0.950 . S
H897 C875 0.950 . S
C898 C899 1.349 . S
C898 C900 1.327 . S
C898 H923 0.950 . S
C899 C898 1.349 . S
C899 C915 1.349 . S
C900 C898 1.327 . S
C900 C919 1.429 . S
C900 H924 0.950 . S
C901 C918 1.574 . S
C901 C920 1.368 . S
C901 H925 0.949 . S
H902 C906 0.949 . S
C903 C904 1.349 . S
C903 C905 1.327 . S
C903 H926 0.950 . S
C904 C903 1.349 . S
C904 C916 1.349 . S
C905 C903 1.327 . S
C905 C921 1.429 . S
C905 H927 0.950 . S
C906 H902 0.949 . S
C906 C914 1.574 . S
C906 C922 1.368 . S
H907 C915 0.950 . S
H908 C913 0.950 . S
H909 C914 0.949 . S
H910 C916 0.950 . S
H911 C917 0.950 . S
H912 C918 0.949 . S
C913 H908 0.950 . S
C913 C915 1.327 . S
C913 C919 1.429 . S
C914 C906 1.574 . S
C914 H909 0.949 . S
C914 C920 1.368 . S
C915 C899 1.349 . S
C915 H907 0.950 . S
C915 C913 1.327 . S
C916 C904 1.349 . S
C916 H910 0.950 . S
C916 C917 1.327 . S
C917 H911 0.950 . S
C917 C916 1.327 . S
C917 C921 1.429 . S
C918 C901 1.574 . S
C918 H912 0.949 . S
C918 C922 1.368 . S
C919 C900 1.429 . S
C919 C913 1.429 . S
C919 C920 1.523 . S
C920 C901 1.368 . S
C920 C914 1.368 . S
C920 C919 1.523 . S
C921 C905 1.429 . S
C921 C917 1.429 . S
C921 C922 1.523 . S
C922 C906 1.368 . S
C922 C918 1.368 . S
C922 C921 1.523 . S
H923 C898 0.950 . S
H924 C900 0.950 . S
H925 C901 0.949 . S
H926 C903 0.950 . S
H927 C905 0.950 . S
C928 C929 1.349 . S
C928 C930 1.327 . S
C928 H953 0.950 . S
C929 C928 1.349 . S
C929 C945 1.349 . S
C930 C928 1.327 . S
C930 C949 1.429 . S
C930 H954 0.950 . S
C931 C948 1.574 . S
C931 C950 1.368 . S
C931 H955 0.949 . S
H932 C936 0.949 . S
C933 C934 1.349 . S
C933 C935 1.327 . S
C933 H956 0.950 . S
C934 C933 1.349 . S
C934 C946 1.349 . S
C935 C933 1.327 . S
C935 C951 1.429 . S
C935 H957 0.950 . S
C936 H932 0.949 . S
C936 C944 1.574 . S
C936 C952 1.368 . S
H937 C945 0.950 . S
H938 C943 0.950 . S
H939 C944 0.949 . S
H940 C946 0.950 . S
H941 C947 0.950 . S
H942 C948 0.949 . S
C943 H938 0.950 . S
C943 C945 1.327 . S
C943 C949 1.429 . S
C944 C936 1.574 . S
C944 H939 0.949 . S
C944 C950 1.368 . S
C945 C929 1.349 . S
C945 H937 0.950 . S
C945 C943 1.327 . S
C946 C934 1.349 . S
C946 H940 0.950 . S
C946 C947 1.327 . S
C947 H941 0.950 . S
C947 C946 1.327 . S
C947 C951 1.429 . S
C948 C931 1.574 . S
C948 H942 0.949 . S
C948 C952 1.368 . S
C949 C930 1.429 . S
C949 C943 1.429 . S
C949 C950 1.523 . S
C950 C931 1.368 . S
C950 C944 1.368 . S
C950 C949 1.523 . S
C951 C935 1.429 . S
C951 C947 1.429 . S
C951 C952 1.523 . S
C952 C936 1.368 . S
C952 C948 1.368 . S
C952 C951 1.523 . S
H953 C928 0.950 . S
H954 C930 0.950 . S
H955 C931 0.949 . S
H956 C933 0.950 . S
H957 C935 0.950 . S
C958 C959 1.349 . S
C958 C960 1.327 . S
C958 H983 0.950 . S
C959 C958 1.349 . S
C959 C975 1.349 . S
C960 C958 1.327 . S
C960 C979 1.429 . S
C960 H984 0.950 . S
C961 C978 1.574 . S
C961 C980 1.368 . S
C961 H985 0.949 . S
H962 C966 0.949 . S
C963 C964 1.349 . S
C963 C965 1.327 . S
C963 H986 0.950 . S
C964 C963 1.349 . S
C964 C976 1.349 . S
C965 C963 1.327 . S
C965 C981 1.429 . S
C965 H987 0.950 . S
C966 H962 0.949 . S
C966 C974 1.574 . S
C966 C982 1.368 . S
H967 C975 0.950 . S
H968 C973 0.950 . S
H969 C974 0.949 . S
H970 C976 0.950 . S
H971 C977 0.950 . S
H972 C978 0.949 . S
C973 H968 0.950 . S
C973 C975 1.327 . S
C973 C979 1.429 . S
C974 C966 1.574 . S
C974 H969 0.949 . S
C974 C980 1.368 . S
C975 C959 1.349 . S
C975 H967 0.950 . S
C975 C973 1.327 . S
C976 C964 1.349 . S
C976 H970 0.950 . S
C976 C977 1.327 . S
C977 H971 0.950 . S
C977 C976 1.327 . S
C977 C981 1.429 . S
C978 C961 1.574 . S
C978 H972 0.949 . S
C978 C982 1.368 . S
C979 C960 1.429 . S
C979 C973 1.429 . S
C979 C980 1.523 . S
C980 C961 1.368 . S
C980 C974 1.368 . S
C980 C979 1.523 . S
C981 C965 1.429 . S
C981 C977 1.429 . S
C981 C982 1.523 . S
C982 C966 1.368 . S
C982 C978 1.368 . S
C982 C981 1.523 . S
H983 C958 0.950 . S
H984 C960 0.950 . S
H985 C961 0.949 . S
H986 C963 0.950 . S
H987 C965 0.950 . S
C988 C989 1.349 . S
C988 C990 1.327 . S
C988 H1013 0.950 . S
C989 C988 1.349 . S
C989 C1005 1.349 . S
C990 C988 1.327 . S
C990 C1009 1.429 . S
C990 H1014 0.950 . S
C991 C1008 1.574 . S
C991 C1010 1.368 . S
C991 H1015 0.949 . S
H992 C996 0.949 . S
C993 C994 1.349 . S
C993 C995 1.327 . S
C993 H1016 0.950 . S
C994 C993 1.349 . S
C994 C1006 1.349 . S
C995 C993 1.327 . S
C995 C1011 1.429 . S
C995 H1017 0.950 . S
C996 H992 0.949 . S
C996 C1004 1.574 . S
C996 C1012 1.368 . S
H997 C1005 0.950 . S
H998 C1003 0.950 . S
H999 C1004 0.949 . S
H1000 C1006 0.950 . S
H1001 C1007 0.950 . S
H1002 C1008 0.949 . S
C1003 H998 0.950 . S
C1003 C1005 1.327 . S
C1003 C1009 1.429 . S
C1004 C996 1.574 . S
C1004 H999 0.949 . S
C1004 C1010 1.368 . S
C1005 C989 1.349 . S
C1005 H997 0.950 . S
C1005 C1003 1.327 . S
C1006 C994 1.349 . S
C1006 H1000 0.950 . S
C1006 C1007 1.327 . S
C1007 H1001 0.950 . S
C1007 C1006 1.327 . S
C1007 C1011 1.429 . S
C1008 C991 1.574 . S
C1008 H1002 0.949 . S
C1008 C1012 1.368 . S
C1009 C990 1.429 . S
C1009 C1003 1.429 . S
C1009 C1010 1.523 . S
C1010 C991 1.368 . S
C1010 C1004 1.368 . S
C1010 C1009 1.523 . S
C1011 C995 1.429 . S
C1011 C1007 1.429 . S
C1011 C1012 1.523 . S
C1012 C996 1.368 . S
C1012 C1008 1.368 . S
C1012 C1011 1.523 . S
H1013 C988 0.950 . S
H1014 C990 0.950 . S
H1015 C991 0.949 . S
H1016 C993 0.950 . S
H1017 C995 0.950 . S
C1018 C1019 1.349 . S
C1018 C1020 1.327 . S
C1018 H1043 0.950 . S
C1019 C1018 1.349 . S
C1019 C1035 1.349 . S
C1020 C1018 1.327 . S
C1020 C1039 1.429 . S
C1020 H1044 0.950 . S
C1021 C1038 1.574 . S
C1021 C1040 1.368 . S
C1021 H1045 0.949 . S
H1022 C1026 0.949 . S
C1023 C1024 1.349 . S
C1023 C1025 1.327 . S
C1023 H1046 0.950 . S
C1024 C1023 1.349 . S
C1024 C1036 1.349 . S
C1025 C1023 1.327 . S
C1025 C1041 1.429 . S
C1025 H1047 0.950 . S
C1026 H1022 0.949 . S
C1026 C1034 1.574 . S
C1026 C1042 1.368 . S
H1027 C1035 0.950 . S
H1028 C1033 0.950 . S
H1029 C1034 0.949 . S
H1030 C1036 0.950 . S
H1031 C1037 0.950 . S
H1032 C1038 0.949 . S
C1033 H1028 0.950 . S
C1033 C1035 1.327 . S
C1033 C1039 1.429 . S
C1034 C1026 1.574 . S
C1034 H1029 0.949 . S
C1034 C1040 1.368 . S
C1035 C1019 1.349 . S
C1035 H1027 0.950 . S
C1035 C1033 1.327 . S
C1036 C1024 1.349 . S
C1036 H1030 0.950 . S
C1036 C1037 1.327 . S
C1037 H1031 0.950 . S
C1037 C1036 1.327 . S
C1037 C1041 1.429 . S
C1038 C1021 1.574 . S
C1038 H1032 0.949 . S
C1038 C1042 1.368 . S
C1039 C1020 1.429 . S
C1039 C1033 1.429 . S
C1039 C1040 1.523 . S
C1040 C1021 1.368 . S
C1040 C1034 1.368 . S
C1040 C1039 1.523 . S
C1041 C1025 1.429 . S
C1041 C1037 1.429 . S
C1041 C1042 1.523 . S
C1042 C1026 1.368 . S
C1042 C1038 1.368 . S
C1042 C1041 1.523 . S
H1043 C1018 0.950 . S
H1044 C1020 0.950 . S
H1045 C1021 0.949 . S
H1046 C1023 0.950 . S
H1047 C1025 0.950 . S
C1048 C1049 1.349 . S
C1048 C1050 1.327 . S
C1048 H1073 0.950 . S
C1049 C1048 1.349 . S
C1049 C1065 1.349 . S
C1050 C1048 1.327 . S
C1050 C1069 1.429 . S
C1050 H1074 0.950 . S
C1051 C1068 1.574 . S
C1051 C1070 1.368 . S
C1051 H1075 0.949 . S
H1052 C1056 0.949 . S
C1053 C1054 1.349 . S
C1053 C1055 1.327 . S
C1053 H1076 0.950 . S
C1054 C1053 1.349 . S
C1054 C1066 1.349 . S
C1055 C1053 1.327 . S
C1055 C1071 1.429 . S
C1055 H1077 0.950 . S
C1056 H1052 0.949 . S
C1056 C1064 1.574 . S
C1056 C1072 1.368 . S
H1057 C1065 0.950 . S
H1058 C1063 0.950 . S
H1059 C1064 0.949 . S
H1060 C1066 0.950 . S
H1061 C1067 0.950 . S
H1062 C1068 0.949 . S
C1063 H1058 0.950 . S
C1063 C1065 1.327 . S
C1063 C1069 1.429 . S
C1064 C1056 1.574 . S
C1064 H1059 0.949 . S
C1064 C1070 1.368 . S
C1065 C1049 1.349 . S
C1065 H1057 0.950 . S
C1065 C1063 1.327 . S
C1066 C1054 1.349 . S
C1066 H1060 0.950 . S
C1066 C1067 1.327 . S
C1067 H1061 0.950 . S
C1067 C1066 1.327 . S
C1067 C1071 1.429 . S
C1068 C1051 1.574 . S
C1068 H1062 0.949 . S
C1068 C1072 1.368 . S
C1069 C1050 1.429 . S
C1069 C1063 1.429 . S
C1069 C1070 1.523 . S
C1070 C1051 1.368 . S
C1070 C1064 1.368 . S
C1070 C1069 1.523 . S
C1071 C1055 1.429 . S
C1071 C1067 1.429 . S
C1071 C1072 1.523 . S
C1072 C1056 1.368 . S
C1072 C1068 1.368 . S
C1072 C1071 1.523 . S
H1073 C1048 0.950 . S
H1074 C1050 0.950 . S
H1075 C1051 0.949 . S
H1076 C1053 0.950 . S
H1077 C1055 0.950 . S
C1078 C1079 1.349 . S
C1078 C1080 1.327 . S
C1078 H1103 0.950 . S
C1079 C1078 1.349 . S
C1079 C1095 1.349 . S
C1080 C1078 1.327 . S
C1080 C1099 1.429 . S
C1080 H1104 0.950 . S
C1081 C1098 1.574 . S
C1081 C1100 1.368 . S
C1081 H1105 0.949 . S
H1082 C1086 0.949 . S
C1083 C1084 1.349 . S
C1083 C1085 1.327 . S
C1083 H1106 0.950 . S
C1084 C1083 1.349 . S
C1084 C1096 1.349 . S
C1085 C1083 1.327 . S
C1085 C1101 1.429 . S
C1085 H1107 0.950 . S
C1086 H1082 0.949 . S
C1086 C1094 1.574 . S
C1086 C1102 1.368 . S
H1087 C1095 0.950 . S
H1088 C1093 0.950 . S
H1089 C1094 0.949 . S
H1090 C1096 0.950 . S
H1091 C1097 0.950 . S
H1092 C1098 0.949 . S
C1093 H1088 0.950 . S
C1093 C1095 1.327 . S
C1093 C1099 1.429 . S
C1094 C1086 1.574 . S
C1094 H1089 0.949 . S
C1094 C1100 1.368 . S
C1095 C1079 1.349 . S
C1095 H1087 0.950 . S
C1095 C1093 1.327 . S
C1096 C1084 1.349 . S
C1096 H1090 0.950 . S
C1096 C1097 1.327 . S
C1097 H1091 0.950 . S
C1097 C1096 1.327 . S
C1097 C1101 1.429 . S
C1098 C1081 1.574 . S
C1098 H1092 0.949 . S
C1098 C1102 1.368 . S
C1099 C1080 1.429 . S
C1099 C1093 1.429 . S
C1099 C1100 1.523 . S
C1100 C1081 1.368 . S
C1100 C1094 1.368 . S
C1100 C1099 1.523 . S
C1101 C1085 1.429 . S
C1101 C1097 1.429 . S
C1101 C1102 1.523 . S
C1102 C1086 1.368 . S
C1102 C1098 1.368 . S
C1102 C1101 1.523 . S
H1103 C1078 0.950 . S
H1104 C1080 0.950 . S
H1105 C1081 0.949 . S
H1106 C1083 0.950 . S
H1107 C1085 0.950 . S
C1108 C1109 1.349 . S
C1108 C1110 1.327 . S
C1108 H1133 0.950 . S
C1109 C1108 1.349 . S
C1109 C1125 1.349 . S
C1110 C1108 1.327 . S
C1110 C1129 1.429 . S
C1110 H1134 0.950 . S
C1111 C1128 1.574 . S
C1111 C1130 1.368 . S
C1111 H1135 0.949 . S
H1112 C1116 0.949 . S
C1113 C1114 1.349 . S
C1113 C1115 1.327 . S
C1113 H1136 0.950 . S
C1114 C1113 1.349 . S
C1114 C1126 1.349 . S
C1115 C1113 1.327 . S
C1115 C1131 1.429 . S
C1115 H1137 0.950 . S
C1116 H1112 0.949 . S
C1116 C1124 1.574 . S
C1116 C1132 1.368 . S
H1117 C1125 0.950 . S
H1118 C1123 0.950 . S
H1119 C1124 0.949 . S
H1120 C1126 0.950 . S
H1121 C1127 0.950 . S
H1122 C1128 0.949 . S
C1123 H1118 0.950 . S
C1123 C1125 1.327 . S
C1123 C1129 1.429 . S
C1124 C1116 1.574 . S
C1124 H1119 0.949 . S
C1124 C1130 1.368 . S
C1125 C1109 1.349 . S
C1125 H1117 0.950 . S
C1125 C1123 1.327 . S
C1126 C1114 1.349 . S
C1126 H1120 0.950 . S
C1126 C1127 1.327 . S
C1127 H1121 0.950 . S
C1127 C1126 1.327 . S
C1127 C1131 1.429 . S
C1128 C1111 1.574 . S
C1128 H1122 0.949 . S
C1128 C1132 1.368 . S
C1129 C1110 1.429 . S
C1129 C1123 1.429 . S
C1129 C1130 1.523 . S
C1130 C1111 1.368 . S
C1130 C1124 1.368 . S
C1130 C1129 1.523 . S
C1131 C1115 1.429 . S
C1131 C1127 1.429 . S
C1131 C1132 1.523 . S
C1132 C1116 1.368 . S
C1132 C1128 1.368 . S
C1132 C1131 1.523 . S
H1133 C1108 0.950 . S
H1134 C1110 0.950 . S
H1135 C1111 0.949 . S
H1136 C1113 0.950 . S
H1137 C1115 0.950 . S
C1138 C1139 1.349 . S
C1138 C1140 1.327 . S
C1138 H1163 0.950 . S
C1139 C1138 1.349 . S
C1139 C1155 1.349 . S
C1140 C1138 1.327 . S
C1140 C1159 1.429 . S
C1140 H1164 0.950 . S
C1141 C1158 1.574 . S
C1141 C1160 1.368 . S
C1141 H1165 0.949 . S
H1142 C1146 0.949 . S
C1143 C1144 1.349 . S
C1143 C1145 1.327 . S
C1143 H1166 0.950 . S
C1144 C1143 1.349 . S
C1144 C1156 1.349 . S
C1145 C1143 1.327 . S
C1145 C1161 1.429 . S
C1145 H1167 0.950 . S
C1146 H1142 0.949 . S
C1146 C1154 1.574 . S
C1146 C1162 1.368 . S
H1147 C1155 0.950 . S
H1148 C1153 0.950 . S
H1149 C1154 0.949 . S
H1150 C1156 0.950 . S
H1151 C1157 0.950 . S
H1152 C1158 0.949 . S
C1153 H1148 0.950 . S
C1153 C1155 1.327 . S
C1153 C1159 1.429 . S
C1154 C1146 1.574 . S
C1154 H1149 0.949 . S
C1154 C1160 1.368 . S
C1155 C1139 1.349 . S
C1155 H1147 0.950 . S
C1155 C1153 1.327 . S
C1156 C1144 1.349 . S
C1156 H1150 0.950 . S
C1156 C1157 1.327 . S
C1157 H1151 0.950 . S
C1157 C1156 1.327 . S
C1157 C1161 1.429 . S
C1158 C1141 1.574 . S
C1158 H1152 0.949 . S
C1158 C1162 1.368 . S
C1159 C1140 1.429 . S
C1159 C1153 1.429 . S
C1159 C1160 1.523 . S
C1160 C1141 1.368 . S
C1160 C1154 1.368 . S
C1160 C1159 1.523 . S
C1161 C1145 1.429 . S
C1161 C1157 1.429 . S
C1161 C1162 1.523 . S
C1162 C1146 1.368 . S
C1162 C1158 1.368 . S
C1162 C1161 1.523 . S
H1163 C1138 0.950 . S
H1164 C1140 0.950 . S
H1165 C1141 0.949 . S
H1166 C1143 0.950 . S
H1167 C1145 0.950 . S
C449 C1 1.206 . S
C454 C294 1.221 . S
C479 C67 0.915 . S
C484 C343 0.914 . S
C514 C378 2.441 . S
C509 C97 2.484 . S
C539 C133 2.365 . S
C544 C417 2.300 . S
C574 C338 2.464 . S
C569 C25 2.420 . S
C604 C297 0.867 . S
C599 C37 0.889 . S
C634 C427 1.862 . S
C629 C103 1.914 . S
C664 C386 1.531 . S
C659 C109 1.566 . S
C689 C31 1.700 . S
C694 C414 1.733 . S
C724 C346 2.305 . S
C719 C73 2.389 . S
C749 C139 2.366 . S
C754 C307 2.348 . S
C779 C61 0.714 . S
C784 C383 0.711 . S
C814 C303 1.223 . S
C809 C175 1.172 . S
C839 C181 0.893 . S
C844 C334 0.896 . S
C869 C247 2.510 . S
C874 C387 2.464 . S
C899 C277 2.351 . S
C904 C426 2.286 . S
C929 C145 2.341 . S
C934 C347 2.452 . S
C964 C306 0.871 . S
C959 C211 0.890 . S
C994 C418 1.849 . S
C989 C217 1.893 . S
C1024 C377 1.551 . S
C1019 C283 1.585 . S
C1049 C169 1.639 . S
C1054 C423 1.726 . S
C1084 C337 2.313 . S
C1079 C241 2.393 . S
C1114 C298 2.332 . S
C1109 C253 2.352 . S
C1139 C205 0.722 . S
C1144 C374 0.721 . S
