# Generated by pormake.
# Topology dag, (6,3)-cn, num edge types: 1
# Building blocks:
#     Node 0, Type 0, BuildingBlock: MIDCAF_clean_sbu_0, # of connection points: 6
#     Node 1, Type 0, BuildingBlock: MIDCAF_clean_sbu_0, # of connection points: 6
#     Node 2, Type 0, BuildingBlock: MIDCAF_clean_sbu_0, # of connection points: 6
#     Node 3, Type 0, BuildingBlock: MIDCAF_clean_sbu_0, # of connection points: 6
#     Node 4, Type 1, BuildingBlock: PAMTOO_clean_linker_0, # of connection points: 3
#     Node 5, Type 1, BuildingBlock: PAMTOO_clean_linker_0, # of connection points: 3
#     Node 6, Type 1, BuildingBlock: PAMTOO_clean_linker_0, # of connection points: 3
#     Node 7, Type 1, BuildingBlock: PAMTOO_clean_linker_0, # of connection points: 3
#     Node 8, Type 1, BuildingBlock: PAMTOO_clean_linker_0, # of connection points: 3
#     Node 9, Type 1, BuildingBlock: PAMTOO_clean_linker_0, # of connection points: 3
#     Node 10, Type 1, BuildingBlock: PAMTOO_clean_linker_0, # of connection points: 3
#     Node 11, Type 1, BuildingBlock: PAMTOO_clean_linker_0, # of connection points: 3
#     Edge 12, Type (0, 1), BuildingBlock: XUDNAN_clean_linker_2, # of connection points: 2
#     Edge 13, Type (0, 1), BuildingBlock: XUDNAN_clean_linker_2, # of connection points: 2
#     Edge 14, Type (0, 1), BuildingBlock: XUDNAN_clean_linker_2, # of connection points: 2
#     Edge 15, Type (0, 1), BuildingBlock: XUDNAN_clean_linker_2, # of connection points: 2
#     Edge 16, Type (0, 1), BuildingBlock: XUDNAN_clean_linker_2, # of connection points: 2
#     Edge 17, Type (0, 1), BuildingBlock: XUDNAN_clean_linker_2, # of connection points: 2
#     Edge 18, Type (0, 1), BuildingBlock: XUDNAN_clean_linker_2, # of connection points: 2
#     Edge 19, Type (0, 1), BuildingBlock: XUDNAN_clean_linker_2, # of connection points: 2
#     Edge 20, Type (0, 1), BuildingBlock: XUDNAN_clean_linker_2, # of connection points: 2
#     Edge 21, Type (0, 1), BuildingBlock: XUDNAN_clean_linker_2, # of connection points: 2
#     Edge 22, Type (0, 1), BuildingBlock: XUDNAN_clean_linker_2, # of connection points: 2
#     Edge 23, Type (0, 1), BuildingBlock: XUDNAN_clean_linker_2, # of connection points: 2
#     Edge 24, Type (0, 1), BuildingBlock: XUDNAN_clean_linker_2, # of connection points: 2
#     Edge 25, Type (0, 1), BuildingBlock: XUDNAN_clean_linker_2, # of connection points: 2
#     Edge 26, Type (0, 1), BuildingBlock: XUDNAN_clean_linker_2, # of connection points: 2
#     Edge 27, Type (0, 1), BuildingBlock: XUDNAN_clean_linker_2, # of connection points: 2
#     Edge 28, Type (0, 1), BuildingBlock: XUDNAN_clean_linker_2, # of connection points: 2
#     Edge 29, Type (0, 1), BuildingBlock: XUDNAN_clean_linker_2, # of connection points: 2
#     Edge 30, Type (0, 1), BuildingBlock: XUDNAN_clean_linker_2, # of connection points: 2
#     Edge 31, Type (0, 1), BuildingBlock: XUDNAN_clean_linker_2, # of connection points: 2
#     Edge 32, Type (0, 1), BuildingBlock: XUDNAN_clean_linker_2, # of connection points: 2
#     Edge 33, Type (0, 1), BuildingBlock: XUDNAN_clean_linker_2, # of connection points: 2
#     Edge 34, Type (0, 1), BuildingBlock: XUDNAN_clean_linker_2, # of connection points: 2
#     Edge 35, Type (0, 1), BuildingBlock: XUDNAN_clean_linker_2, # of connection points: 2
# Relax obj value: 0.135
# Max RMSD: 0.140
# Mean RMSD: 0.110
data_MOF--net-dag--node1-MIDCAF_clean_sbu_0--node2-PAMTOO_clean_linker_0--edge1-XUDNAN_clean_linker_2
_symmetry_space_group_name_H-M    P1
_symmetry_Int_Tables_number       1
_symmetry_cell_setting            triclinic
loop_
_symmetry_equiv_pos_as_xyz
'x, y, z'
_cell_length_a     40.025204
_cell_length_b     41.395487
_cell_length_c     31.880987
_cell_angle_alpha  89.733157
_cell_angle_beta   92.913982
_cell_angle_gamma 90.195637
loop_
_atom_site_label
_atom_site_type_symbol
_atom_site_fract_x
_atom_site_fract_y
_atom_site_fract_z
_atom_type_partial_charge
Zn0 Zn 0.14632 0.81367 0.06419 0.0
Zn1 Zn 0.18173 0.82535 0.9025 0.0
Zn2 Zn 0.16496 0.81926 0.98635 0.0
C3 C 0.19456 0.88424 0.94485 0.0
C4 C 0.11332 0.81124 0.90446 0.0
O5 O 0.19422 0.77972 0.0172 0.0
O6 O 0.16989 0.77258 0.07742 0.0
C7 C 0.178 0.87351 0.0578 0.0
O8 O 0.18297 0.86838 0.97579 0.0
O9 O 0.19785 0.87099 0.90968 0.0
O10 O 0.13546 0.81686 0.87853 0.0
O11 O 0.12039 0.81165 0.94435 0.0
O12 O 0.1664 0.85485 0.08497 0.0
O13 O 0.17839 0.86468 0.01915 0.0
O14 O 0.10991 0.811 0.98561 0.0
O15 O 0.09755 0.81368 0.05236 0.0
C16 C 0.08821 0.81131 0.01412 0.0
O17 O 0.20352 0.78289 0.97499 0.0
O18 O 0.2138 0.78914 0.90758 0.0
C19 C 0.1915 0.76428 0.05209 0.0
C20 C 0.21914 0.77482 0.94232 0.0
Zn21 Zn 0.63781 0.65972 0.39684 0.0
Zn22 Zn 0.69488 0.67373 0.59501 0.0
Zn23 Zn 0.66017 0.66367 0.46935 0.0
C24 C 0.69552 0.61054 0.5447 0.0
C25 C 0.62522 0.68241 0.54159 0.0
O26 O 0.68797 0.6986 0.4292 0.0
O27 O 0.6568 0.69795 0.3701 0.0
C28 C 0.67796 0.60334 0.42198 0.0
O29 O 0.68201 0.62202 0.50958 0.0
O30 O 0.70208 0.62727 0.5779 0.0
O31 O 0.65585 0.67837 0.55182 0.0
O32 O 0.61695 0.67785 0.50293 0.0
O33 O 0.66355 0.61859 0.3917 0.0
O34 O 0.67817 0.6151 0.45921 0.0
O35 O 0.60388 0.66507 0.4658 0.0
O36 O 0.58866 0.65702 0.39912 0.0
C37 C 0.58086 0.66079 0.43655 0.0
O38 O 0.69464 0.70523 0.47223 0.0
O39 O 0.69076 0.68539 0.53383 0.0
C40 C 0.68169 0.70897 0.39135 0.0
C41 C 0.70416 0.70601 0.51082 0.0
Zn42 Zn 0.83071 0.1629 0.96166 0.0
Zn43 Zn 0.83307 0.14425 0.12799 0.0
Zn44 Zn 0.83053 0.15604 0.04599 0.0
C45 C 0.8979 0.1565 0.10784 0.0
C46 C 0.80073 0.09185 0.09045 0.0
O47 O 0.79486 0.19505 0.02783 0.0
O48 O 0.79272 0.1933 0.95823 0.0
C49 C 0.89451 0.17841 0.99498 0.0
O50 O 0.88213 0.16375 0.07281 0.0
O51 O 0.88246 0.14402 0.13747 0.0
O52 O 0.80763 0.10274 0.12681 0.0
O53 O 0.80951 0.1077 0.05786 0.0
O54 O 0.87721 0.18052 0.96086 0.0
O55 O 0.88137 0.16863 0.02883 0.0
O56 O 0.82007 0.10877 0.01636 0.0
O57 O 0.82391 0.11634 0.94797 0.0
C58 C 0.82018 0.09754 0.97871 0.0
O59 O 0.7963 0.19121 0.07189 0.0
O60 O 0.80867 0.18464 0.13988 0.0
C61 C 0.7827 0.2049 0.99189 0.0
C62 C 0.79315 0.19961 0.1103 0.0
Zn63 Zn 0.32221 0.34642 0.65164 0.0
Zn64 Zn 0.34275 0.32813 0.46903 0.0
Zn65 Zn 0.33086 0.33317 0.54032 0.0
C66 C 0.40397 0.33444 0.50747 0.0
C67 C 0.29997 0.38151 0.4744 0.0
O68 O 0.29302 0.29512 0.55161 0.0
O69 O 0.30553 0.32375 0.60422 0.0
C70 C 0.38735 0.32226 0.62187 0.0
O71 O 0.38566 0.32822 0.53854 0.0
O72 O 0.39044 0.33935 0.47144 0.0
O73 O 0.30958 0.36072 0.44884 0.0
O74 O 0.30931 0.37871 0.51352 0.0
O75 O 0.3695 0.32989 0.65235 0.0
O76 O 0.37619 0.32369 0.58292 0.0
O77 O 0.31838 0.38379 0.55746 0.0
O78 O 0.31993 0.39102 0.62788 0.0
C79 C 0.31798 0.40207 0.59047 0.0
O80 O 0.30169 0.29157 0.5109 0.0
O81 O 0.33101 0.28296 0.45541 0.0
C82 C 0.28848 0.30086 0.5898 0.0
C83 C 0.30792 0.27436 0.47853 0.0
H84 H 0.13811 0.09981 0.11706 0.0
H85 H 0.14436 0.16608 0.2206 0.0
H86 H 0.21996 0.09373 0.20945 0.0
H87 H 0.20057 0.09984 0.29374 0.0
C88 C 0.18914 0.1243 0.29244 0.0
O89 O 0.1981 0.14008 0.25638 0.0
H90 H 0.16145 0.12139 0.29226 0.0
C91 C 0.15201 0.10981 0.14412 0.0
C92 C 0.18155 0.09482 0.15939 0.0
C93 C 0.1388 0.13588 0.16562 0.0
C94 C 0.15532 0.14707 0.20256 0.0
C95 C 0.18461 0.13189 0.21824 0.0
C96 C 0.1981 0.10622 0.19621 0.0
H97 H 0.42498 0.62583 0.63897 0.0
H98 H 0.34058 0.61995 0.71827 0.0
H99 H 0.4218 0.68407 0.74925 0.0
H100 H 0.40027 0.63963 0.8175 0.0
C101 C 0.3728 0.64073 0.81011 0.0
O102 O 0.36619 0.65893 0.77427 0.0
H103 H 0.36343 0.61562 0.80514 0.0
C104 C 0.41109 0.6339 0.66514 0.0
C105 C 0.42562 0.65793 0.69119 0.0
C106 C 0.3804 0.61925 0.67409 0.0
C107 C 0.36456 0.62958 0.71023 0.0
C108 C 0.38008 0.65194 0.73775 0.0
C109 C 0.41031 0.66641 0.72803 0.0
H110 H 0.83829 0.87211 0.01723 0.0
H111 H 0.78391 0.84768 0.12605 0.0
H112 H 0.86126 0.78509 0.08683 0.0
H113 H 0.81084 0.74745 0.13912 0.0
C114 C 0.79747 0.76975 0.14778 0.0
O115 O 0.81856 0.79588 0.14442 0.0
H116 H 0.77506 0.77229 0.1258 0.0
C117 C 0.83206 0.85483 0.04129 0.0
C118 C 0.85141 0.82681 0.04715 0.0
C119 C 0.80736 0.86241 0.06936 0.0
C120 C 0.80173 0.84137 0.10297 0.0
C121 C 0.82082 0.81333 0.1088 0.0
C122 C 0.84525 0.80581 0.08059 0.0
H123 H 0.62033 0.39156 0.64085 0.0
H124 H 0.62355 0.34109 0.75944 0.0
H125 H 0.69373 0.41729 0.73869 0.0
H126 H 0.72496 0.37322 0.79838 0.0
C127 C 0.70325 0.35649 0.79992 0.0
O128 O 0.6743 0.37401 0.79231 0.0
H129 H 0.7059 0.33758 0.77555 0.0
C130 C 0.63195 0.38752 0.67191 0.0
C131 C 0.65892 0.40701 0.68624 0.0
C132 C 0.61905 0.36369 0.69811 0.0
C133 C 0.63358 0.3591 0.7387 0.0
C134 C 0.66065 0.37823 0.75304 0.0
C135 C 0.67321 0.40217 0.72692 0.0
H136 H 0.64296 0.38964 0.44325 0.0
H137 H 0.62684 0.29402 0.393 0.0
H138 H 0.69937 0.35604 0.34076 0.0
H139 H 0.63917 0.3318 0.2891 0.0
C140 C 0.64621 0.30605 0.29454 0.0
O141 O 0.66585 0.30251 0.33131 0.0
H142 H 0.62289 0.29171 0.29742 0.0
C143 C 0.65005 0.37023 0.42292 0.0
C144 C 0.67469 0.37603 0.39368 0.0
C145 C 0.63238 0.34076 0.42346 0.0
C146 C 0.63995 0.31693 0.39402 0.0
C147 C 0.66319 0.32308 0.36369 0.0
C148 C 0.6813 0.35196 0.36442 0.0
H149 H 0.13544 0.1185 0.97227 0.0
H150 H 0.12547 0.19448 0.87955 0.0
H151 H 0.1986 0.12086 0.86675 0.0
H152 H 0.2235 0.18416 0.85015 0.0
C153 C 0.20056 0.19578 0.83596 0.0
O154 O 0.17419 0.17427 0.83547 0.0
H155 H 0.19442 0.21705 0.85534 0.0
C156 C 0.14329 0.12995 0.94376 0.0
C157 C 0.16902 0.11594 0.9216 0.0
C158 C 0.12677 0.15795 0.92866 0.0
C159 C 0.13799 0.17322 0.89244 0.0
C160 C 0.16435 0.16011 0.87102 0.0
C161 C 0.17946 0.13143 0.88518 0.0
H162 H 0.32763 0.58242 0.42329 0.0
H163 H 0.35933 0.64719 0.32645 0.0
H164 H 0.26604 0.59784 0.31031 0.0
H165 H 0.30778 0.59742 0.23985 0.0
C166 C 0.31792 0.62248 0.24151 0.0
O167 O 0.3072 0.63785 0.27674 0.0
H168 H 0.34572 0.62108 0.24326 0.0
C169 C 0.32303 0.59474 0.3936 0.0
C170 C 0.29412 0.58683 0.3685 0.0
C171 C 0.34704 0.61674 0.37936 0.0
C172 C 0.34094 0.63149 0.33978 0.0
C173 C 0.31175 0.62477 0.31547 0.0
C174 C 0.28816 0.60314 0.33013 0.0
H175 H 0.88162 0.87601 0.88762 0.0
H176 H 0.86541 0.82487 0.77134 0.0
H177 H 0.79063 0.89016 0.8116 0.0
H178 H 0.75848 0.83989 0.75865 0.0
C179 C 0.78202 0.82874 0.74872 0.0
O180 O 0.80742 0.85129 0.75193 0.0
H181 H 0.78772 0.80781 0.77 0.0
C182 C 0.86547 0.87007 0.86042 0.0
C183 C 0.83438 0.88549 0.85417 0.0
C184 C 0.87697 0.84828 0.83085 0.0
C185 C 0.85665 0.84113 0.79493 0.0
C186 C 0.82569 0.85643 0.7881 0.0
C187 C 0.81455 0.87842 0.81761 0.0
H188 H 0.14915 0.90983 0.11589 0.0
H189 H 0.229 0.91122 0.02917 0.0
H190 H 0.24122 0.96843 0.04768 0.0
H191 H 0.11875 0.9877 0.09623 0.0
H192 H 0.10983 0.99541 0.15003 0.0
H193 H 0.1093 0.95466 0.13072 0.0
H194 H 0.15264 0.93851 0.19057 0.0
H195 H 0.15337 0.97946 0.20949 0.0
H196 H 0.19174 0.96018 0.19634 0.0
H197 H 0.2416 0.0271 0.07356 0.0
H198 H 0.23048 0.08083 0.10483 0.0
H199 H 0.15148 0.03849 0.17506 0.0
C200 C 0.16958 0.92199 0.10126 0.0
C201 C 0.18775 0.90653 0.07048 0.0
C202 C 0.21418 0.92317 0.05188 0.0
C203 C 0.22155 0.95541 0.06268 0.0
C204 C 0.20262 0.97021 0.09273 0.0
C205 C 0.1773 0.95384 0.11185 0.0
C206 C 0.1596 0.97512 0.14191 0.0
C207 C 0.12218 0.9784 0.1289 0.0
C208 C 0.16466 0.96257 0.18726 0.0
C209 C 0.17817 0.0064 0.13592 0.0
C210 C 0.20317 0.00324 0.10782 0.0
C211 C 0.22251 0.02966 0.09616 0.0
C212 C 0.21607 0.05996 0.11386 0.0
C213 C 0.19041 0.06326 0.14235 0.0
C214 C 0.17147 0.03621 0.15358 0.0
H215 H 0.55896 0.69558 0.5268 0.0
H216 H 0.63478 0.68098 0.62713 0.0
H217 H 0.59131 0.68351 0.67926 0.0
H218 H 0.50292 0.74958 0.58925 0.0
H219 H 0.46593 0.73191 0.56404 0.0
H220 H 0.50361 0.73581 0.53573 0.0
H221 H 0.50162 0.67532 0.52019 0.0
H222 H 0.46448 0.6702 0.54857 0.0
H223 H 0.50101 0.64626 0.56251 0.0
H224 H 0.53916 0.67799 0.71873 0.0
H225 H 0.48276 0.6638 0.74155 0.0
H226 H 0.44121 0.68292 0.61577 0.0
C227 C 0.56651 0.69379 0.55982 0.0
C228 C 0.60013 0.68803 0.573 0.0
C229 C 0.60911 0.68553 0.61641 0.0
C230 C 0.58463 0.68712 0.64626 0.0
C231 C 0.55146 0.69186 0.63217 0.0
C232 C 0.54245 0.69561 0.58995 0.0
C233 C 0.50485 0.69689 0.58251 0.0
C234 C 0.49368 0.73056 0.56699 0.0
C235 C 0.49225 0.67051 0.55172 0.0
C236 C 0.49412 0.69054 0.62655 0.0
C237 C 0.52127 0.68876 0.65505 0.0
C238 C 0.51765 0.6801 0.69694 0.0
C239 C 0.48559 0.67213 0.70966 0.0
C240 C 0.45786 0.67241 0.68034 0.0
C241 C 0.4621 0.68276 0.63876 0.0
H242 H 0.80955 0.04157 0.14454 0.0
H243 H 0.75999 0.06841 0.02559 0.0
H244 H 0.74782 0.01077 0.01076 0.0
H245 H 0.8509 0.97805 0.11118 0.0
H246 H 0.84684 0.95248 0.15658 0.0
H247 H 0.84495 -0.00445 0.16196 0.0
H248 H 0.78692 0.99095 0.19414 0.0
H249 H 0.78881 0.9476 0.18961 0.0
H250 H 0.75358 0.96935 0.16624 0.0
H251 H 0.75527 0.95055 1.00145 0.0
H252 H 0.77246 0.89297 0.00422 0.0
H253 H 0.81266 0.90612 0.13163 0.0
C254 C 0.79494 0.03543 0.11616 0.0
C255 C 0.78631 0.05915 0.08575 0.0
C256 C 0.7673 0.05034 0.04892 0.0
C257 C 0.76009 0.01771 0.04041 0.0
C258 C 0.77134 0.99452 0.06967 0.0
C259 C 0.78737 0.00313 0.10748 0.0
C260 C 0.7996 0.97384 0.13209 0.0
C261 C 0.83782 0.97508 0.14092 0.0
C262 C 0.78111 0.97022 0.17294 0.0
C263 C 0.78971 0.94748 0.10131 0.0
C264 C 0.7734 0.95972 0.0654 0.0
C265 C 0.76656 0.94044 0.03014 0.0
C266 C 0.7765 0.9079 0.03184 0.0
C267 C 0.79276 0.8951 0.06866 0.0
C268 C 0.79891 0.91507 0.10384 0.0
H269 H 0.42441 0.34242 0.69041 0.0
H270 H 0.43094 0.28595 0.57696 0.0
H271 H 0.49268 0.28452 0.58819 0.0
H272 H 0.48992 0.39149 0.67841 0.0
H273 H 0.50476 0.39257 0.73272 0.0
H274 H 0.46141 0.38448 0.71954 0.0
H275 H 0.46485 0.33071 0.76151 0.0
H276 H 0.50824 0.33885 0.77557 0.0
H277 H 0.49635 0.30144 0.75015 0.0
H278 H 0.5535 0.30147 0.60326 0.0
H279 H 0.60774 0.32549 0.62865 0.0
H280 H 0.56029 0.36541 0.73577 0.0
C281 C 0.43864 0.32889 0.66849 0.0
C282 C 0.42308 0.31526 0.63199 0.0
C283 C 0.44257 0.2975 0.6044 0.0
C284 C 0.47758 0.2963 0.61079 0.0
C285 C 0.49235 0.31218 0.64556 0.0
C286 C 0.4733 0.3271 0.67475 0.0
C287 C 0.49486 0.34377 0.70843 0.0
C288 C 0.48728 0.38022 0.7098 0.0
C289 C 0.49084 0.32772 0.75146 0.0
C290 C 0.52908 0.33749 0.6925 0.0
C291 C 0.5273 0.31932 0.65611 0.0
C292 C 0.55538 0.31446 0.63267 0.0
C293 C 0.58595 0.32828 0.6471 0.0
C294 C 0.58809 0.34635 0.68473 0.0
C295 C 0.55942 0.35059 0.70781 0.0
H296 H 0.69251 0.55212 0.47546 0.0
H297 H 0.69469 0.58201 0.34539 0.0
H298 H 0.70685 0.52638 0.32503 0.0
H299 H 0.75989 0.48197 0.46545 0.0
H300 H 0.73748 0.4605 0.50463 0.0
H301 H 0.74034 0.50399 0.5057 0.0
H302 H 0.67316 0.50361 0.50471 0.0
H303 H 0.67419 0.46038 0.50206 0.0
H304 H 0.65085 0.48331 0.46224 0.0
H305 H 0.70346 0.46719 0.31667 0.0
H306 H 0.68823 0.40985 0.32202 0.0
H307 H 0.69395 0.41691 0.45799 0.0
C308 C 0.69736 0.54727 0.44324 0.0
C309 C 0.69262 0.5715 0.41236 0.0
C310 C 0.69796 0.56388 0.36985 0.0
C311 C 0.70521 0.53231 0.35788 0.0
C312 C 0.70803 0.50859 0.38885 0.0
C313 C 0.7052 0.51578 0.43086 0.0
C314 C 0.70526 0.48519 0.4571 0.0
C315 C 0.73762 0.48271 0.48493 0.0
C316 C 0.67401 0.48294 0.48304 0.0
C317 C 0.70467 0.45991 0.42308 0.0
C318 C 0.70737 0.47381 0.38394 0.0
C319 C 0.70264 0.45585 0.34725 0.0
C320 C 0.69402 0.42313 0.35066 0.0
C321 C 0.69007 0.40867 0.39053 0.0
C322 C 0.69685 0.42716 0.42708 0.0
H323 H 0.94201 0.1325 1.0012 0.0
H324 H 0.92741 0.23535 0.98424 0.0
H325 H 0.9883 0.24257 0.97572 0.0
H326 H 0.02873 0.13371 0.05232 0.0
H327 H 0.03957 0.09857 0.02312 0.0
H328 H 0.99697 0.10438 0.03742 0.0
H329 H 0.97865 0.09832 0.95796 0.0
H330 H 0.02152 0.09444 0.94459 0.0
H331 H 0.99576 0.12566 0.92037 0.0
H332 H 0.04963 0.23747 0.96236 0.0
H333 H 0.10498 0.22042 0.93965 0.0
H334 H 0.07727 0.12018 0.95934 0.0
C335 C 0.95199 0.1566 0.99697 0.0
C336 C 0.93066 0.18354 0.99433 0.0
C337 C 0.94384 0.21463 0.98702 0.0
C338 C 0.97827 0.21889 0.98237 0.0
C339 C -0.0012 0.19168 0.98445 0.0
C340 C 0.98606 0.16109 0.99127 0.0
C341 C 0.01217 0.13534 0.98588 0.0
C342 C 0.01978 0.11691 0.02716 0.0
C343 C 0.00138 0.1121 0.95007 0.0
C344 C 0.04149 0.15611 0.97444 0.0
C345 C 0.03357 0.18856 0.97453 0.0
C346 C 0.0562 0.21214 0.96256 0.0
C347 C 0.08749 0.2022 0.94941 0.0
C348 C 0.09566 0.16894 0.9478 0.0
C349 C 0.07238 0.14582 0.96123 0.0
H350 H 0.28232 0.43955 0.51195 0.0
H351 H 0.27146 0.38558 0.39577 0.0
H352 H 0.25008 0.43351 0.35909 0.0
H353 H 0.20559 0.49984 0.47549 0.0
H354 H 0.22673 0.5323 0.50353 0.0
H355 H 0.22828 0.49179 0.52465 0.0
H356 H 0.29084 0.49578 0.52943 0.0
H357 H 0.29184 0.53513 0.50655 0.0
H358 H 0.31461 0.50277 0.48323 0.0
H359 H 0.24953 0.48721 0.33051 0.0
H360 H 0.26845 0.54155 0.31366 0.0
H361 H 0.27604 0.56503 0.44631 0.0
C362 C 0.27435 0.43769 0.47925 0.0
C363 C 0.27974 0.40897 0.45673 0.0
C364 C 0.26843 0.40735 0.41387 0.0
C365 C 0.25566 0.43448 0.39263 0.0
C366 C 0.25318 0.46315 0.41469 0.0
C367 C 0.26097 0.46485 0.45746 0.0
C368 C 0.26025 0.49983 0.47182 0.0
C369 C 0.22831 0.50632 0.49524 0.0
C370 C 0.29143 0.50894 0.49919 0.0
C371 C 0.25865 0.51715 0.42972 0.0
C372 C 0.25182 0.49556 0.39745 0.0
C373 C 0.25361 0.5046 0.35549 0.0
C374 C 0.26447 0.53582 0.34619 0.0
C375 C 0.27386 0.55778 0.3787 0.0
C376 C 0.26911 0.54875 0.42086 0.0
H377 H 0.07059 0.8608 0.89521 0.0
H378 H 0.0781 0.75734 0.87948 0.0
H379 H 0.01791 0.75497 0.85581 0.0
H380 H 0.98981 0.86276 0.9341 0.0
H381 H 0.97783 0.89943 0.90688 0.0
H382 H 0.02122 0.89194 0.92128 0.0
H383 H 0.03535 0.89929 0.843 0.0
H384 H 0.99183 0.90626 0.82875 0.0
H385 H 0.01412 0.87468 0.8034 0.0
H386 H 0.95577 0.76465 0.83695 0.0
H387 H 0.898 0.78538 0.82376 0.0
H388 H 0.93353 0.88259 0.85022 0.0
C389 C 0.05947 0.83774 0.88643 0.0
C390 C 0.07836 0.80922 0.8891 0.0
C391 C 0.06355 0.77936 0.87743 0.0
C392 C 0.02957 0.77786 0.864 0.0
C393 C 0.01132 0.80656 0.86197 0.0
C394 C 0.02594 0.83595 0.8725 0.0
C395 C 0.00122 0.86332 0.86791 0.0
C396 C 0.99732 0.8804 0.91005 0.0
C397 C 0.01123 0.88729 0.83372 0.0
C398 C 0.97004 0.84474 0.8544 0.0
C399 C 0.97622 0.81207 0.85078 0.0
C400 C 0.95073 0.79021 0.83944 0.0
C401 C 0.9181 0.80214 0.83192 0.0
C402 C 0.91141 0.83548 0.83627 0.0
C403 C 0.93787 0.85691 0.84715 0.0
H404 H 0.79534 0.06723 0.90805 0.0
H405 H 0.84332 0.04895 0.03077 0.0
H406 H 0.84281 0.99033 0.01622 0.0
H407 H 0.74463 0.99197 0.89909 0.0
H408 H 0.75228 0.98764 0.84416 0.0
H409 H 0.75072 0.02731 0.86708 0.0
H410 H 0.80981 0.04022 0.84141 0.0
H411 H 0.81132 0.00087 0.81808 0.0
H412 H 0.84399 0.0134 0.85559 0.0
H413 H 0.84063 0.93429 0.98621 0.0
H414 H 0.84491 0.88689 0.94024 0.0
H415 H 0.80348 0.94317 0.83484 0.0
C416 C 0.80501 0.05079 0.93221 0.0
C417 C 0.81817 0.06242 0.97115 0.0
C418 C 0.83197 0.04037 1.00132 0.0
C419 C 0.83181 0.00706 0.99331 0.0
C420 C 0.81822 -0.00369 0.95471 0.0
C421 C 0.8055 0.0176 0.92444 0.0
C422 C 0.79668 0.00055 0.88348 0.0
C423 C 0.75882 0.00195 0.87284 0.0
C424 C 0.81665 0.01458 0.84755 0.0
C425 C 0.8076 0.96654 0.89486 0.0
C426 C 0.81895 0.96437 0.93645 0.0
C427 C 0.83179 0.93572 0.9536 0.0
C428 C 0.83432 0.90899 0.92712 0.0
C429 C 0.82493 0.91132 0.88367 0.0
C430 C 0.81037 0.94026 0.8679 0.0
H431 H 0.4426 0.3017 0.4568 0.0
H432 H 0.4475 0.36607 0.56351 0.0
H433 H 0.50955 0.36814 0.56078 0.0
H434 H 0.52309 0.25876 0.4783 0.0
H435 H 0.53125 0.25803 0.42322 0.0
H436 H 0.48878 0.25674 0.4395 0.0
H437 H 0.47431 0.30695 0.3931 0.0
H438 H 0.5165 0.30828 0.37662 0.0
H439 H 0.4988 0.34331 0.40036 0.0
H440 H 0.57105 0.36648 0.54075 0.0
H441 H 0.62333 0.36607 0.50275 0.0
H442 H 0.57411 0.30728 0.40523 0.0
C443 C 0.45688 0.31549 0.48036 0.0
C444 C 0.44069 0.33302 0.51103 0.0
C445 C 0.45979 0.35182 0.54045 0.0
C446 C 0.49492 0.35309 0.53904 0.0
C447 C 0.51016 0.33564 0.5078 0.0
C448 C 0.49151 0.31732 0.47893 0.0
C449 C 0.51256 0.30436 0.44491 0.0
C450 C 0.51401 0.26727 0.44661 0.0
C451 C 0.49979 0.31647 0.40121 0.0
C452 C 0.54594 0.31911 0.45804 0.0
C453 C 0.54451 0.33631 0.49496 0.0
C454 C 0.57231 0.35304 0.51183 0.0
C455 C 0.60185 0.3529 0.48972 0.0
C456 C 0.60317 0.33678 0.45054 0.0
C457 C 0.57479 0.3192 0.43537 0.0
H458 H 0.15022 0.92884 0.96798 0.0
H459 H 0.25121 0.91761 0.92783 0.0
H460 H 0.25874 0.97713 0.92864 0.0
H461 H 0.13121 0.99181 0.90013 0.0
H462 H 0.10434 0.01301 0.93431 0.0
H463 H 0.10936 0.97004 0.93956 0.0
H464 H 0.12961 0.97619 0.01865 0.0
H465 H 0.12195 0.01893 0.01261 0.0
H466 H 0.16231 0.00497 0.03193 0.0
H467 H 0.25319 0.03759 0.92758 0.0
H468 H 0.23366 0.09375 0.91759 0.0
H469 H 0.13431 0.06433 0.95162 0.0
C470 C 0.1742 0.93904 0.96061 0.0
C471 C 0.20046 0.91906 0.94875 0.0
C472 C 0.23109 0.93285 0.93756 0.0
C473 C 0.23559 0.96648 0.93823 0.0
C474 C 0.20896 0.98574 0.94947 0.0
C475 C 0.17873 0.97249 0.96008 0.0
C476 C 0.15243 -0.00177 0.96444 0.0
C477 C 0.1226 0.99295 0.93271 0.0
C478 C 0.14089 -0.00038 0.0096 0.0
C479 C 0.17235 0.02799 0.95384 0.0
C480 C 0.20509 0.02044 0.94628 0.0
C481 C 0.22767 0.04382 0.93372 0.0
C482 C 0.21627 0.0756 0.92782 0.0
C483 C 0.18241 0.08358 0.93376 0.0
C484 C 0.16052 0.05941 0.94777 0.0
H485 H 0.52652 0.69597 0.40959 0.0
H486 H 0.55712 0.61204 0.48315 0.0
H487 H 0.49803 0.59433 0.48479 0.0
H488 H 0.44441 0.70739 0.4642 0.0
H489 H 0.42354 0.72121 0.41599 0.0
H490 H 0.46742 0.72961 0.42634 0.0
H491 H 0.48067 0.70268 0.35593 0.0
H492 H 0.43709 0.69386 0.3454 0.0
H493 H 0.4673 0.66165 0.346 0.0
H494 H 0.43844 0.58037 0.46473 0.0
H495 H 0.38224 0.57376 0.43187 0.0
H496 H 0.38775 0.67103 0.3803 0.0
C497 C 0.52044 0.67464 0.42751 0.0
C498 C 0.54594 0.65548 0.44672 0.0
C499 C 0.53761 0.62723 0.469 0.0
C500 C 0.50421 0.61694 0.46984 0.0
C501 C 0.47953 0.63585 0.44944 0.0
C502 C 0.48713 0.66464 0.42982 0.0
C503 C 0.45622 0.67958 0.40846 0.0
C504 C 0.44737 0.71133 0.43004 0.0
C505 C 0.46061 0.68471 0.36117 0.0
C506 C 0.43061 0.65353 0.41634 0.0
C507 C 0.44445 0.62868 0.4404 0.0
C508 C 0.4269 0.6002 0.44721 0.0
C509 C 0.39462 0.5968 0.42844 0.0
C510 C 0.37977 0.62196 0.40345 0.0
C511 C 0.39799 0.65105 0.39871 0.0
H512 H 0.29493 0.44709 0.64282 0.0
H513 H 0.35287 0.43564 0.53269 0.0
H514 H 0.37019 0.4931 0.53768 0.0
H515 H 0.26947 0.53226 0.6275 0.0
H516 H 0.27581 0.54089 0.68271 0.0
H517 H 0.26315 0.50099 0.66586 0.0
H518 H 0.3144 0.47639 0.70751 0.0
H519 H 0.32704 0.51605 0.72472 0.0
H520 H 0.35575 0.49108 0.69768 0.0
H521 H 0.37969 0.55272 0.55487 0.0
H522 H 0.39243 0.6038 0.59083 0.0
H523 H 0.33668 0.57054 0.69683 0.0
C524 C 0.31005 0.45705 0.61864 0.0
C525 C 0.32154 0.43735 0.58644 0.0
C526 C 0.34279 0.45071 0.55666 0.0
C527 C 0.35302 0.48318 0.55955 0.0
C528 C 0.34124 0.50193 0.59193 0.0
C529 C 0.32064 0.4891 0.6213 0.0
C530 C 0.31578 0.51237 0.65682 0.0
C531 C 0.27886 0.52221 0.65829 0.0
C532 C 0.32905 0.49813 0.69915 0.0
C533 C 0.33707 0.5403 0.64309 0.0
C534 C 0.35041 0.5344 0.60482 0.0
C535 C 0.37012 0.55719 0.58546 0.0
C536 C 0.37765 0.58611 0.60674 0.0
C537 C 0.36698 0.59144 0.6481 0.0
C538 C 0.34553 0.56823 0.66558 0.0
H539 H 0.04478 0.85413 0.04277 0.0
H540 H 0.0506 0.77012 0.96333 0.0
H541 H 0.98856 0.76932 0.95355 0.0
H542 H 0.97858 0.82689 0.09718 0.0
H543 H 0.95945 0.86581 0.10331 0.0
H544 H 0.00375 0.86311 0.09742 0.0
H545 H -0.00055 0.90163 0.03186 0.0
H546 H 0.95558 0.90537 0.04111 0.0
H547 H 0.96835 0.89318 0.99042 0.0
H548 H 0.92573 0.77254 0.96372 0.0
H549 H 0.8689 0.78114 0.98982 0.0
H550 H 0.90556 0.86421 0.06019 0.0
C551 C 0.03294 0.8361 0.0224 0.0
C552 C 0.05213 0.81252 0.00307 0.0
C553 C 0.0361 0.78887 0.97732 0.0
C554 C 0.00097 0.78817 0.97194 0.0
C555 C 0.98259 0.81141 0.99246 0.0
C556 C -0.00179 0.83521 0.01675 0.0
C557 C 0.97333 0.85549 0.039 0.0
C558 C 0.97913 0.85262 0.08704 0.0
C559 C 0.97429 0.89099 0.02469 0.0
C560 C 0.94116 0.83921 0.02401 0.0
C561 C 0.94678 0.81381 0.9972 0.0
C562 C 0.92096 0.79292 0.98368 0.0
C563 C 0.88887 0.7979 0.99854 0.0
C564 C 0.88306 0.82381 0.02593 0.0
C565 C 0.90934 0.84496 0.03802 0.0
H566 H 0.64295 0.57186 0.55721 0.0
H567 H 0.75097 0.57321 0.55567 0.0
H568 H 0.75314 0.51877 0.5884 0.0
H569 H 0.64321 0.53836 0.6584 0.0
H570 H 0.60525 0.51527 0.64985 0.0
H571 H 0.61139 0.55173 0.62021 0.0
H572 H 0.60331 0.52039 0.54884 0.0
H573 H 0.59395 0.48569 0.58055 0.0
H574 H 0.62574 0.48308 0.54312 0.0
H575 H 0.74369 0.46627 0.62565 0.0
H576 H 0.72339 0.42013 0.6672 0.0
H577 H 0.62155 0.45429 0.64692 0.0
C578 C 0.66685 0.5598 0.56171 0.0
C579 C 0.69675 0.57565 0.55196 0.0
C580 C 0.72786 0.56057 0.56125 0.0
C581 C 0.72927 0.52995 0.58029 0.0
C582 C 0.69934 0.515 0.58999 0.0
C583 C 0.66867 0.52952 0.58132 0.0
C584 C 0.6406 0.51041 0.59994 0.0
C585 C 0.62416 0.53012 0.63412 0.0
C586 C 0.61442 0.49929 0.56603 0.0
C587 C 0.66012 0.48221 0.61888 0.0
C588 C 0.69397 0.48541 0.61309 0.0
C589 C 0.71721 0.46331 0.63002 0.0
C590 C 0.70553 0.43731 0.65361 0.0
C591 C 0.67096 0.43359 0.65973 0.0
C592 C 0.64804 0.45624 0.64189 0.0
H593 H 0.94175 0.11716 0.15058 0.0
H594 H 0.93597 0.20592 0.07813 0.0
H595 H -0.00224 0.21144 0.08538 0.0
H596 H 0.00811 0.14369 0.22417 0.0
H597 H 0.02718 0.10433 0.22782 0.0
H598 H 0.98275 0.10789 0.21686 0.0
H599 H 0.9873 0.07402 0.14896 0.0
H600 H 0.03158 0.07008 0.16052 0.0
H601 H 0.01647 0.08632 0.11068 0.0
H602 H 0.06086 0.20593 0.0999 0.0
H603 H 0.11929 0.1899 0.12076 0.0
H604 H 0.08201 0.10555 0.18437 0.0
C605 C 0.9535 0.13787 0.13647 0.0
C606 C 0.93441 0.16081 0.11303 0.0
C607 C 0.95049 0.18763 0.09511 0.0
C608 C 0.98542 0.19112 0.09953 0.0
C609 C 0.00363 0.16778 0.12252 0.0
C610 C 0.98812 0.14172 0.14073 0.0
C611 C 0.01308 0.11974 0.16354 0.0
C612 C 0.00744 0.11888 0.2109 0.0
C613 C 0.01202 0.08554 0.14477 0.0
C614 C 0.0452 0.13705 0.1546 0.0
C615 C 0.03941 0.16489 0.13123 0.0
C616 C 0.06564 0.1844 0.11861 0.0
C617 C 0.09859 0.17521 0.13045 0.0
C618 C 0.10463 0.14673 0.15418 0.0
C619 C 0.0777 0.12754 0.16637 0.0
H620 H 0.17874 0.71046 0.09765 0.0
H621 H 0.25838 0.76359 0.04157 0.0
H622 H 0.30013 0.72693 0.07589 0.0
H623 H 0.21712 0.70408 0.19419 0.0
H624 H 0.2023 0.66419 0.20669 0.0
H625 H 0.17842 0.68913 0.17003 0.0
H626 H 0.18012 0.64454 0.11343 0.0
H627 H 0.20364 0.61911 0.15019 0.0
H628 H 0.21982 0.62827 0.09974 0.0
H629 H 0.33307 0.69144 0.12665 0.0
H630 H 0.35456 0.65812 0.18679 0.0
H631 H 0.25335 0.62889 0.21125 0.0
C632 C 0.2049 0.71346 0.09132 0.0
C633 C 0.21546 0.73892 0.06554 0.0
C634 C 0.24986 0.74304 0.05914 0.0
C635 C 0.2737 0.72262 0.07911 0.0
C636 C 0.26256 0.69827 0.10543 0.0
C637 C 0.22888 0.69337 0.11118 0.0
C638 C 0.22351 0.66819 0.14476 0.0
C639 C 0.20422 0.68226 0.18104 0.0
C640 C 0.20573 0.63825 0.12589 0.0
C641 C 0.25938 0.66079 0.15849 0.0
C642 C 0.28158 0.67801 0.13507 0.0
C643 C 0.31598 0.67723 0.14448 0.0
C644 C 0.32795 0.65839 0.17871 0.0
C645 C 0.30552 0.64072 0.20302 0.0
C646 C 0.27092 0.64175 0.19248 0.0
H647 H 0.74976 0.69637 0.57418 0.0
H648 H 0.70606 0.77103 0.49359 0.0
H649 H 0.72984 0.81282 0.54216 0.0
H650 H 0.72763 0.72743 0.66391 0.0
H651 H 0.76424 0.71637 0.69598 0.0
H652 H 0.75254 0.69325 0.65005 0.0
H653 H 0.81071 0.70297 0.62022 0.0
H654 H 0.82315 0.72555 0.66669 0.0
H655 H 0.82643 0.74362 0.6155 0.0
H656 H 0.74732 0.84486 0.60733 0.0
H657 H 0.76034 0.8643 0.67986 0.0
H658 H 0.79166 0.76797 0.71747 0.0
C659 C 0.74653 0.72161 0.56585 0.0
C660 C 0.72641 0.73069 0.53023 0.0
C661 C 0.72204 0.76376 0.52039 0.0
C662 C 0.73528 0.78756 0.54799 0.0
C663 C 0.75318 0.77767 0.58462 0.0
C664 C 0.75943 0.74538 0.593 0.0
C665 C 0.77522 0.74038 0.63667 0.0
C666 C 0.75361 0.71806 0.66318 0.0
C667 C 0.81101 0.72737 0.63463 0.0
C668 C 0.77528 0.77466 0.65263 0.0
C669 C 0.76302 0.796 0.62206 0.0
C670 C 0.75775 0.82849 0.63107 0.0
C671 C 0.76502 0.8393 0.67227 0.0
C672 C 0.7771 0.81762 0.70393 0.0
C673 C 0.78283 0.7851 0.69367 0.0
H674 H 0.80094 0.24126 0.17491 0.0
H675 H 0.73129 0.21246 0.07345 0.0
H676 H 0.68656 0.24374 0.10544 0.0
H677 H 0.75049 0.22995 0.25296 0.0
H678 H 0.76365 0.26392 0.28496 0.0
H679 H 0.79193 0.24666 0.24938 0.0
H680 H 0.79927 0.30212 0.21301 0.0
H681 H 0.77162 0.31994 0.24929 0.0
H682 H 0.76289 0.32415 0.19351 0.0
H683 H 0.64751 0.26771 0.15658 0.0
H684 H 0.61866 0.28708 0.2186 0.0
H685 H 0.71463 0.30104 0.2855 0.0
C686 C 0.7766 0.24274 0.15853 0.0
C687 C 0.76944 0.2248 0.12167 0.0
C688 C 0.73732 0.22666 0.10127 0.0
C689 C 0.71177 0.24419 0.11941 0.0
C690 C 0.71917 0.26009 0.15733 0.0
C691 C 0.75111 0.26022 0.17604 0.0
C692 C 0.75204 0.27606 0.21875 0.0
C693 C 0.76529 0.25274 0.25352 0.0
C694 C 0.77267 0.30744 0.21861 0.0
C695 C 0.71531 0.28301 0.22246 0.0
C696 C 0.69674 0.27406 0.18658 0.0
C697 C 0.6619 0.27542 0.18443 0.0
C698 C 0.64573 0.28612 0.21984 0.0
C699 C 0.66435 0.29486 0.25701 0.0
C700 C 0.69963 0.29412 0.25775 0.0
H701 H 0.26705 0.31715 0.66571 0.0
H702 H 0.26661 0.23822 0.57676 0.0
H703 H 0.23959 0.2029 0.62849 0.0
H704 H 0.28902 0.27231 0.75476 0.0
H705 H 0.26326 0.29456 0.78922 0.0
H706 H 0.27889 0.31398 0.74359 0.0
H707 H 0.21843 0.32898 0.71779 0.0
H708 H 0.20255 0.30975 0.76356 0.0
H709 H 0.18713 0.29769 0.71186 0.0
H710 H 0.21863 0.17506 0.69398 0.0
H711 H 0.20276 0.15812 0.765 0.0
H712 H 0.2166 0.25636 0.80897 0.0
C713 C 0.26084 0.29255 0.65679 0.0
C714 C 0.26892 0.28028 0.6174 0.0
C715 C 0.26037 0.24805 0.60678 0.0
C716 C 0.24513 0.22788 0.63598 0.0
C717 C 0.23833 0.24061 0.67516 0.0
C718 C 0.24559 0.27238 0.68525 0.0
C719 C 0.23751 0.2801 0.72987 0.0
C720 C 0.26905 0.29085 0.75587 0.0
C721 C 0.20974 0.30564 0.7308 0.0
C722 C 0.22528 0.24749 0.74398 0.0
C723 C 0.22573 0.22498 0.71206 0.0
C724 C 0.21746 0.19268 0.71883 0.0
C725 C 0.20847 0.18328 0.75915 0.0
C726 C 0.20752 0.20619 0.79196 0.0
C727 C 0.21617 0.23859 0.78412 0.0
H728 H 0.6674 0.74738 0.32387 0.0
H729 H 0.74943 0.71509 0.40745 0.0
H730 H 0.78972 0.73522 0.357 0.0
H731 H 0.69678 0.71992 0.23612 0.0
H732 H 0.68314 0.75234 0.20147 0.0
H733 H 0.66122 0.74422 0.24811 0.0
H734 H 0.67067 0.80305 0.2734 0.0
H735 H 0.69194 0.8118 0.22611 0.0
H736 H 0.71242 0.81964 0.27672 0.0
H737 H 0.81971 0.74702 0.29078 0.0
H738 H 0.83692 0.75437 0.21769 0.0
H739 H 0.735 0.77855 0.17781 0.0
C740 C 0.69389 0.74591 0.33245 0.0
C741 C 0.70537 0.7298 0.36953 0.0
C742 C 0.74014 0.7278 0.37948 0.0
C743 C 0.76318 0.73901 0.35084 0.0
C744 C 0.75092 0.75267 0.31298 0.0
C745 C 0.71701 0.75691 0.30429 0.0
C746 C 0.70976 0.76839 0.2596 0.0
C747 C 0.68637 0.7448 0.23491 0.0
C748 C 0.69536 0.80277 0.25893 0.0
C749 C 0.74462 0.76803 0.24356 0.0
C750 C 0.76816 0.75945 0.2749 0.0
C751 C 0.8016 0.75455 0.26635 0.0
C752 C 0.81112 0.75851 0.22482 0.0
C753 C 0.78723 0.76696 0.19241 0.0
C754 C 0.75375 0.77229 0.20214 0.0
H755 H 0.79932 0.26707 0.9838 0.0
H756 H 0.71499 0.20182 0.98421 0.0
H757 H 0.67948 0.24272 0.94726 0.0
H758 H 0.74837 0.34815 0.98236 0.0
H759 H 0.77744 0.36532 0.94701 0.0
H760 H 0.79193 0.33712 0.98719 0.0
H761 H 0.81717 0.30181 0.9301 0.0
H762 H 0.80216 0.3291 0.88976 0.0
H763 H 0.79038 0.28706 0.88712 0.0
H764 H 0.65914 0.28175 0.89286 0.0
H765 H 0.65479 0.31684 0.82982 0.0
H766 H 0.75272 0.35669 0.86245 0.0
C767 C 0.77275 0.26258 0.97877 0.0
C768 C 0.75938 0.23202 0.98793 0.0
C769 C 0.72515 0.22566 0.9787 0.0
C770 C 0.70492 0.24874 0.95749 0.0
C771 C 0.71946 0.27794 0.9458 0.0
C772 C 0.75254 0.28523 0.95698 0.0
C773 C 0.76419 0.31493 0.93382 0.0
C774 C 0.77086 0.34305 0.96442 0.0
C775 C 0.79526 0.30775 0.90872 0.0
C776 C 0.73367 0.32142 0.9051 0.0
C777 C 0.70773 0.30054 0.91339 0.0
C778 C 0.67875 0.29904 0.88715 0.0
C779 C 0.67649 0.31893 0.85135 0.0
C780 C 0.7031 0.3399 0.84201 0.0
C781 C 0.73164 0.34157 0.86972 0.0
H782 H 0.32378 0.22643 0.42535 0.0
H783 H 0.24381 0.26065 0.50037 0.0
H784 H 0.20531 0.22068 0.46624 0.0
H785 H 0.27825 0.21998 0.33367 0.0
H786 H 0.29787 0.18398 0.31517 0.0
H787 H 0.32064 0.21033 0.35103 0.0
H788 H 0.33148 0.16287 0.40319 0.0
H789 H 0.30921 0.13609 0.36709 0.0
H790 H 0.29671 0.13936 0.42043 0.0
H791 H 0.17364 0.18396 0.41494 0.0
H792 H 0.15259 0.15069 0.35478 0.0
H793 H 0.25372 0.14047 0.3144 0.0
C794 C 0.29843 0.22485 0.43559 0.0
C795 C 0.28675 0.24655 0.46552 0.0
C796 C 0.25336 0.24398 0.47784 0.0
C797 C 0.23131 0.22142 0.45851 0.0
C798 C 0.2433 0.2014 0.42755 0.0
C799 C 0.2763 0.20252 0.4168 0.0
C800 C 0.28246 0.18067 0.38011 0.0
C801 C 0.29556 0.1999 0.34282 0.0
C802 C 0.30638 0.15311 0.39352 0.0
C803 C 0.24743 0.16819 0.37048 0.0
C804 C 0.2252 0.18008 0.39841 0.0
C805 C 0.19095 0.17394 0.39351 0.0
C806 C 0.1792 0.15522 0.35921 0.0
C807 C 0.20168 0.14306 0.33029 0.0
C808 C 0.23618 0.1493 0.33642 0.0
H809 H 0.21419 0.71651 0.90567 0.0
H810 H 0.28209 0.77921 0.97701 0.0
H811 H 0.32928 0.74344 0.96215 0.0
H812 H 0.26189 0.63672 0.92656 0.0
H813 H 0.25213 0.62405 0.8733 0.0
H814 H 0.22284 0.64847 0.90027 0.0
H815 H 0.2228 0.6902 0.83949 0.0
H816 H 0.25242 0.66643 0.81277 0.0
H817 H 0.26184 0.70802 0.82523 0.0
H818 H 0.36968 0.70954 0.92593 0.0
H819 H 0.39997 0.67876 0.87355 0.0
H820 H 0.30626 0.63839 0.82395 0.0
C821 C 0.23876 0.72143 0.92012 0.0
C822 C 0.24454 0.74948 0.94419 0.0
C823 C 0.27713 0.75678 0.96044 0.0
C824 C 0.30405 0.73672 0.95183 0.0
C825 C 0.29783 0.70972 0.92656 0.0
C826 C 0.26584 0.70179 0.91134 0.0
C827 C 0.26642 0.67495 0.87929 0.0
C828 C 0.24984 0.64422 0.89586 0.0
C829 C 0.24992 0.68557 0.83671 0.0
C830 C 0.30374 0.67052 0.87672 0.0
C831 C 0.32145 0.69024 0.90491 0.0
C832 C 0.35617 0.69318 0.90477 0.0
C833 C 0.37316 0.67576 0.87489 0.0
C834 C 0.35536 0.65572 0.84566 0.0
C835 C 0.32035 0.6528 0.84699 0.0
loop_
_geom_bond_atom_site_label_1
_geom_bond_atom_site_label_2
_geom_bond_distance
_geom_bond_site_symmetry_2
_ccdc_geom_bond_type
Zn0 O6 1.920 . S
Zn0 O12 1.898 . S
Zn0 O15 1.905 . S
Zn1 O9 1.905 . S
Zn1 O10 1.898 . S
Zn1 O18 1.920 . S
Zn2 O5 2.082 . S
Zn2 O8 2.112 1_554 S
Zn2 O11 2.117 1_554 S
Zn2 O13 2.123 . S
Zn2 O14 2.116 . S
Zn2 O17 2.078 1_554 S
C3 O8 1.166 . S
C3 O9 1.182 . S
C4 O10 1.167 . S
C4 O11 1.299 . S
O5 Zn2 2.082 . S
O5 C19 1.305 . S
O6 Zn0 1.920 . S
O6 C19 1.234 . S
C7 O12 1.167 . S
C7 O13 1.299 . S
O8 Zn2 2.112 1_556 S
O8 C3 1.166 . S
O9 Zn1 1.905 . S
O9 C3 1.182 . S
O10 Zn1 1.898 . S
O10 C4 1.167 . S
O11 Zn2 2.117 1_556 S
O11 C4 1.299 . S
O12 Zn0 1.898 . S
O12 C7 1.167 . S
O13 Zn2 2.123 . S
O13 C7 1.299 . S
O14 Zn2 2.116 . S
O14 C16 1.166 . S
O15 Zn0 1.905 . S
O15 C16 1.182 . S
C16 O14 1.166 . S
C16 O15 1.182 . S
O17 Zn2 2.078 1_556 S
O17 C20 1.305 . S
O18 Zn1 1.920 . S
O18 C20 1.234 . S
C19 O5 1.305 . S
C19 O6 1.234 . S
C20 O17 1.305 . S
C20 O18 1.234 . S
Zn21 O27 1.920 . S
Zn21 O33 1.898 . S
Zn21 O36 1.905 . S
Zn22 O30 1.905 . S
Zn22 O31 1.898 . S
Zn22 O39 1.920 . S
Zn23 O26 2.080 . S
Zn23 O29 2.114 . S
Zn23 O32 2.120 . S
Zn23 O34 2.120 . S
Zn23 O35 2.114 . S
Zn23 O38 2.080 . S
C24 O29 1.166 . S
C24 O30 1.182 . S
C25 O31 1.167 . S
C25 O32 1.299 . S
O26 Zn23 2.080 . S
O26 C40 1.305 . S
O27 Zn21 1.920 . S
O27 C40 1.234 . S
C28 O33 1.167 . S
C28 O34 1.299 . S
O29 Zn23 2.114 . S
O29 C24 1.166 . S
O30 Zn22 1.905 . S
O30 C24 1.182 . S
O31 Zn22 1.898 . S
O31 C25 1.167 . S
O32 Zn23 2.120 . S
O32 C25 1.299 . S
O33 Zn21 1.898 . S
O33 C28 1.167 . S
O34 Zn23 2.120 . S
O34 C28 1.299 . S
O35 Zn23 2.114 . S
O35 C37 1.166 . S
O36 Zn21 1.905 . S
O36 C37 1.182 . S
C37 O35 1.166 . S
C37 O36 1.182 . S
O38 Zn23 2.080 . S
O38 C41 1.305 . S
O39 Zn22 1.920 . S
O39 C41 1.234 . S
C40 O26 1.305 . S
C40 O27 1.234 . S
C41 O38 1.305 . S
C41 O39 1.234 . S
Zn42 O48 1.920 . S
Zn42 O54 1.898 . S
Zn42 O57 1.905 . S
Zn43 O51 1.905 . S
Zn43 O52 1.898 . S
Zn43 O60 1.920 . S
Zn44 O47 2.080 1_554 S
Zn44 O50 2.114 . S
Zn44 O53 2.120 . S
Zn44 O55 2.120 . S
Zn44 O56 2.114 1_554 S
Zn44 O59 2.080 . S
C45 O50 1.166 . S
C45 O51 1.182 . S
C46 O52 1.167 . S
C46 O53 1.299 . S
O47 Zn44 2.080 1_556 S
O47 C61 1.305 . S
O48 Zn42 1.920 . S
O48 C61 1.234 . S
C49 O54 1.167 . S
C49 O55 1.299 1_556 S
O50 Zn44 2.114 . S
O50 C45 1.166 . S
O51 Zn43 1.905 . S
O51 C45 1.182 . S
O52 Zn43 1.898 . S
O52 C46 1.167 . S
O53 Zn44 2.120 . S
O53 C46 1.299 . S
O54 Zn42 1.898 . S
O54 C49 1.167 . S
O55 Zn44 2.120 . S
O55 C49 1.299 1_554 S
O56 Zn44 2.114 1_556 S
O56 C58 1.166 . S
O57 Zn42 1.905 . S
O57 C58 1.182 . S
C58 O56 1.166 . S
C58 O57 1.182 . S
O59 Zn44 2.080 . S
O59 C62 1.305 . S
O60 Zn43 1.920 . S
O60 C62 1.234 . S
C61 O47 1.305 . S
C61 O48 1.234 . S
C62 O59 1.305 . S
C62 O60 1.234 . S
Zn63 O69 1.920 . S
Zn63 O75 1.898 . S
Zn63 O78 1.905 . S
Zn64 O72 1.905 . S
Zn64 O73 1.898 . S
Zn64 O81 1.920 . S
Zn65 O68 2.080 . S
Zn65 O71 2.114 . S
Zn65 O74 2.120 . S
Zn65 O76 2.120 . S
Zn65 O77 2.114 . S
Zn65 O80 2.080 . S
C66 O71 1.166 . S
C66 O72 1.182 . S
C67 O73 1.167 . S
C67 O74 1.299 . S
O68 Zn65 2.080 . S
O68 C82 1.305 . S
O69 Zn63 1.920 . S
O69 C82 1.234 . S
C70 O75 1.167 . S
C70 O76 1.299 . S
O71 Zn65 2.114 . S
O71 C66 1.166 . S
O72 Zn64 1.905 . S
O72 C66 1.182 . S
O73 Zn64 1.898 . S
O73 C67 1.167 . S
O74 Zn65 2.120 . S
O74 C67 1.299 . S
O75 Zn63 1.898 . S
O75 C70 1.167 . S
O76 Zn65 2.120 . S
O76 C70 1.299 . S
O77 Zn65 2.114 . S
O77 C79 1.166 . S
O78 Zn63 1.905 . S
O78 C79 1.182 . S
C79 O77 1.166 . S
C79 O78 1.182 . S
O80 Zn65 2.080 . S
O80 C83 1.305 . S
O81 Zn64 1.920 . S
O81 C83 1.234 . S
C82 O68 1.305 . S
C82 O69 1.234 . S
C83 O80 1.305 . S
C83 O81 1.234 . S
H84 C91 0.929 . S
H85 C94 0.930 . S
H86 C96 0.929 . S
H87 C88 0.969 . S
C88 H87 0.969 . S
C88 O89 1.550 . S
C88 H90 0.973 . S
O89 C88 1.550 . S
O89 C95 1.412 . S
H90 C88 0.973 . S
C91 H84 0.929 . S
C91 C92 1.400 . S
C91 C93 1.364 . S
C92 C91 1.400 . S
C92 C96 1.377 . S
C93 C91 1.364 . S
C93 C94 1.374 . S
C94 H85 0.930 . S
C94 C93 1.374 . S
C94 C95 1.383 . S
C95 O89 1.412 . S
C95 C94 1.383 . S
C95 C96 1.394 . S
C96 H86 0.929 . S
C96 C92 1.377 . S
C96 C95 1.394 . S
H97 C104 0.929 . S
H98 C107 0.930 . S
H99 C109 0.929 . S
H100 C101 0.969 . S
C101 H100 0.969 . S
C101 O102 1.550 . S
C101 H103 0.973 . S
O102 C101 1.550 . S
O102 C108 1.412 . S
H103 C101 0.973 . S
C104 H97 0.929 . S
C104 C105 1.400 . S
C104 C106 1.364 . S
C105 C104 1.400 . S
C105 C109 1.377 . S
C106 C104 1.364 . S
C106 C107 1.374 . S
C107 H98 0.930 . S
C107 C106 1.374 . S
C107 C108 1.383 . S
C108 O102 1.412 . S
C108 C107 1.383 . S
C108 C109 1.394 . S
C109 H99 0.929 . S
C109 C105 1.377 . S
C109 C108 1.394 . S
H110 C117 0.929 . S
H111 C120 0.930 . S
H112 C122 0.929 . S
H113 C114 0.969 . S
C114 H113 0.969 . S
C114 O115 1.550 . S
C114 H116 0.973 . S
O115 C114 1.550 . S
O115 C121 1.412 . S
H116 C114 0.973 . S
C117 H110 0.929 . S
C117 C118 1.400 . S
C117 C119 1.364 . S
C118 C117 1.400 . S
C118 C122 1.377 . S
C119 C117 1.364 . S
C119 C120 1.374 . S
C120 H111 0.930 . S
C120 C119 1.374 . S
C120 C121 1.383 . S
C121 O115 1.412 . S
C121 C120 1.383 . S
C121 C122 1.394 . S
C122 H112 0.929 . S
C122 C118 1.377 . S
C122 C121 1.394 . S
H123 C130 0.929 . S
H124 C133 0.930 . S
H125 C135 0.929 . S
H126 C127 0.969 . S
C127 H126 0.969 . S
C127 O128 1.550 . S
C127 H129 0.973 . S
O128 C127 1.550 . S
O128 C134 1.412 . S
H129 C127 0.973 . S
C130 H123 0.929 . S
C130 C131 1.400 . S
C130 C132 1.364 . S
C131 C130 1.400 . S
C131 C135 1.377 . S
C132 C130 1.364 . S
C132 C133 1.374 . S
C133 H124 0.930 . S
C133 C132 1.374 . S
C133 C134 1.383 . S
C134 O128 1.412 . S
C134 C133 1.383 . S
C134 C135 1.394 . S
C135 H125 0.929 . S
C135 C131 1.377 . S
C135 C134 1.394 . S
H136 C143 0.929 . S
H137 C146 0.930 . S
H138 C148 0.929 . S
H139 C140 0.969 . S
C140 H139 0.969 . S
C140 O141 1.550 . S
C140 H142 0.973 . S
O141 C140 1.550 . S
O141 C147 1.412 . S
H142 C140 0.973 . S
C143 H136 0.929 . S
C143 C144 1.400 . S
C143 C145 1.364 . S
C144 C143 1.400 . S
C144 C148 1.377 . S
C145 C143 1.364 . S
C145 C146 1.374 . S
C146 H137 0.930 . S
C146 C145 1.374 . S
C146 C147 1.383 . S
C147 O141 1.412 . S
C147 C146 1.383 . S
C147 C148 1.394 . S
C148 H138 0.929 . S
C148 C144 1.377 . S
C148 C147 1.394 . S
H149 C156 0.929 . S
H150 C159 0.930 . S
H151 C161 0.929 . S
H152 C153 0.969 . S
C153 H152 0.969 . S
C153 O154 1.550 . S
C153 H155 0.973 . S
O154 C153 1.550 . S
O154 C160 1.412 . S
H155 C153 0.973 . S
C156 H149 0.929 . S
C156 C157 1.400 . S
C156 C158 1.364 . S
C157 C156 1.400 . S
C157 C161 1.377 . S
C158 C156 1.364 . S
C158 C159 1.374 . S
C159 H150 0.930 . S
C159 C158 1.374 . S
C159 C160 1.383 . S
C160 O154 1.412 . S
C160 C159 1.383 . S
C160 C161 1.394 . S
C161 H151 0.929 . S
C161 C157 1.377 . S
C161 C160 1.394 . S
H162 C169 0.929 . S
H163 C172 0.930 . S
H164 C174 0.929 . S
H165 C166 0.969 . S
C166 H165 0.969 . S
C166 O167 1.550 . S
C166 H168 0.973 . S
O167 C166 1.550 . S
O167 C173 1.412 . S
H168 C166 0.973 . S
C169 H162 0.929 . S
C169 C170 1.400 . S
C169 C171 1.364 . S
C170 C169 1.400 . S
C170 C174 1.377 . S
C171 C169 1.364 . S
C171 C172 1.374 . S
C172 H163 0.930 . S
C172 C171 1.374 . S
C172 C173 1.383 . S
C173 O167 1.412 . S
C173 C172 1.383 . S
C173 C174 1.394 . S
C174 H164 0.929 . S
C174 C170 1.377 . S
C174 C173 1.394 . S
H175 C182 0.929 . S
H176 C185 0.930 . S
H177 C187 0.929 . S
H178 C179 0.969 . S
C179 H178 0.969 . S
C179 O180 1.550 . S
C179 H181 0.973 . S
O180 C179 1.550 . S
O180 C186 1.412 . S
H181 C179 0.973 . S
C182 H175 0.929 . S
C182 C183 1.400 . S
C182 C184 1.364 . S
C183 C182 1.400 . S
C183 C187 1.377 . S
C184 C182 1.364 . S
C184 C185 1.374 . S
C185 H176 0.930 . S
C185 C184 1.374 . S
C185 C186 1.383 . S
C186 O180 1.412 . S
C186 C185 1.383 . S
C186 C187 1.394 . S
C187 H177 0.929 . S
C187 C183 1.377 . S
C187 C186 1.394 . S
H188 C200 0.930 . S
H189 C202 0.930 . S
H190 C203 0.930 . S
H191 C207 0.959 . S
H192 C207 0.959 . S
H193 C207 0.961 . S
H194 C208 0.960 . S
H195 C208 0.961 . S
H196 C208 0.959 . S
H197 C211 0.929 . S
H198 C212 0.931 . S
H199 C214 0.930 1_565 S
C200 H188 0.930 . S
C200 C201 1.399 . S
C200 C205 1.399 . S
C201 C200 1.399 . S
C201 C202 1.376 . S
C202 H189 0.930 . S
C202 C201 1.376 . S
C202 C203 1.388 . S
C203 H190 0.930 . S
C203 C202 1.388 . S
C203 C204 1.390 . S
C204 C203 1.390 . S
C204 C205 1.394 . S
C204 C210 1.465 . S
C205 C200 1.399 . S
C205 C204 1.394 . S
C205 C206 1.516 . S
C206 C205 1.516 . S
C206 C207 1.502 . S
C206 C208 1.561 . S
C206 C209 1.526 . S
C207 H191 0.959 . S
C207 H192 0.959 . S
C207 H193 0.961 . S
C207 C206 1.502 . S
C208 H194 0.960 . S
C208 H195 0.961 . S
C208 H196 0.959 . S
C208 C206 1.561 . S
C209 C206 1.526 . S
C209 C210 1.396 . S
C209 C214 1.390 1_565 S
C210 C204 1.465 . S
C210 C209 1.396 . S
C210 C211 1.399 1_565 S
C211 H197 0.929 . S
C211 C210 1.399 1_545 S
C211 C212 1.385 . S
C212 H198 0.931 . S
C212 C211 1.385 . S
C212 C213 1.389 . S
C213 C212 1.389 . S
C213 C214 1.387 . S
C214 H199 0.930 1_545 S
C214 C209 1.390 1_545 S
C214 C213 1.387 . S
H215 C227 0.930 . S
H216 C229 0.930 . S
H217 C230 0.930 . S
H218 C234 0.959 . S
H219 C234 0.959 . S
H220 C234 0.961 . S
H221 C235 0.960 . S
H222 C235 0.961 . S
H223 C235 0.959 . S
H224 C238 0.929 . S
H225 C239 0.931 . S
H226 C241 0.930 . S
C227 H215 0.930 . S
C227 C228 1.399 . S
C227 C232 1.399 . S
C228 C227 1.399 . S
C228 C229 1.376 . S
C229 H216 0.930 . S
C229 C228 1.376 . S
C229 C230 1.388 . S
C230 H217 0.930 . S
C230 C229 1.388 . S
C230 C231 1.390 . S
C231 C230 1.390 . S
C231 C232 1.394 . S
C231 C237 1.465 . S
C232 C227 1.399 . S
C232 C231 1.394 . S
C232 C233 1.516 . S
C233 C232 1.516 . S
C233 C234 1.502 . S
C233 C235 1.561 . S
C233 C236 1.526 . S
C234 H218 0.959 . S
C234 H219 0.959 . S
C234 H220 0.961 . S
C234 C233 1.502 . S
C235 H221 0.960 . S
C235 H222 0.961 . S
C235 H223 0.959 . S
C235 C233 1.561 . S
C236 C233 1.526 . S
C236 C237 1.396 . S
C236 C241 1.390 . S
C237 C231 1.465 . S
C237 C236 1.396 . S
C237 C238 1.399 . S
C238 H224 0.929 . S
C238 C237 1.399 . S
C238 C239 1.385 . S
C239 H225 0.931 . S
C239 C238 1.385 . S
C239 C240 1.389 . S
C240 C239 1.389 . S
C240 C241 1.387 . S
C241 H226 0.930 . S
C241 C236 1.390 . S
C241 C240 1.387 . S
H242 C254 0.930 . S
H243 C256 0.930 . S
H244 C257 0.930 . S
H245 C261 0.959 . S
H246 C261 0.959 . S
H247 C261 0.961 . S
H248 C262 0.960 1_545 S
H249 C262 0.961 . S
H250 C262 0.959 . S
H251 C265 0.929 . S
H252 C266 0.931 . S
H253 C268 0.930 . S
C254 H242 0.930 . S
C254 C255 1.399 . S
C254 C259 1.399 . S
C255 C254 1.399 . S
C255 C256 1.376 . S
C256 H243 0.930 . S
C256 C255 1.376 . S
C256 C257 1.388 . S
C257 H244 0.930 . S
C257 C256 1.388 . S
C257 C258 1.390 . S
C258 C257 1.390 . S
C258 C259 1.394 . S
C258 C264 1.465 1_545 S
C259 C254 1.399 . S
C259 C258 1.394 . S
C259 C260 1.516 1_545 S
C260 C259 1.516 1_565 S
C260 C261 1.502 . S
C260 C262 1.561 . S
C260 C263 1.526 . S
C261 H245 0.959 . S
C261 H246 0.959 . S
C261 H247 0.961 . S
C261 C260 1.502 . S
C262 H248 0.960 1_565 S
C262 H249 0.961 . S
C262 H250 0.959 . S
C262 C260 1.561 . S
C263 C260 1.526 . S
C263 C264 1.396 . S
C263 C268 1.390 . S
C264 C258 1.465 1_565 S
C264 C263 1.396 . S
C264 C265 1.399 . S
C265 H251 0.929 . S
C265 C264 1.399 . S
C265 C266 1.385 . S
C266 H252 0.931 . S
C266 C265 1.385 . S
C266 C267 1.389 . S
C267 C266 1.389 . S
C267 C268 1.387 . S
C268 H253 0.930 . S
C268 C263 1.390 . S
C268 C267 1.387 . S
H269 C281 0.930 . S
H270 C283 0.930 . S
H271 C284 0.930 . S
H272 C288 0.959 . S
H273 C288 0.959 . S
H274 C288 0.961 . S
H275 C289 0.960 . S
H276 C289 0.961 . S
H277 C289 0.959 . S
H278 C292 0.929 . S
H279 C293 0.931 . S
H280 C295 0.930 . S
C281 H269 0.930 . S
C281 C282 1.399 . S
C281 C286 1.399 . S
C282 C281 1.399 . S
C282 C283 1.376 . S
C283 H270 0.930 . S
C283 C282 1.376 . S
C283 C284 1.388 . S
C284 H271 0.930 . S
C284 C283 1.388 . S
C284 C285 1.390 . S
C285 C284 1.390 . S
C285 C286 1.394 . S
C285 C291 1.465 . S
C286 C281 1.399 . S
C286 C285 1.394 . S
C286 C287 1.516 . S
C287 C286 1.516 . S
C287 C288 1.502 . S
C287 C289 1.561 . S
C287 C290 1.526 . S
C288 H272 0.959 . S
C288 H273 0.959 . S
C288 H274 0.961 . S
C288 C287 1.502 . S
C289 H275 0.960 . S
C289 H276 0.961 . S
C289 H277 0.959 . S
C289 C287 1.561 . S
C290 C287 1.526 . S
C290 C291 1.396 . S
C290 C295 1.390 . S
C291 C285 1.465 . S
C291 C290 1.396 . S
C291 C292 1.399 . S
C292 H278 0.929 . S
C292 C291 1.399 . S
C292 C293 1.385 . S
C293 H279 0.931 . S
C293 C292 1.385 . S
C293 C294 1.389 . S
C294 C293 1.389 . S
C294 C295 1.387 . S
C295 H280 0.930 . S
C295 C290 1.390 . S
C295 C294 1.387 . S
H296 C308 0.930 . S
H297 C310 0.930 . S
H298 C311 0.930 . S
H299 C315 0.959 . S
H300 C315 0.959 . S
H301 C315 0.961 . S
H302 C316 0.960 . S
H303 C316 0.961 . S
H304 C316 0.959 . S
H305 C319 0.929 . S
H306 C320 0.931 . S
H307 C322 0.930 . S
C308 H296 0.930 . S
C308 C309 1.399 . S
C308 C313 1.399 . S
C309 C308 1.399 . S
C309 C310 1.376 . S
C310 H297 0.930 . S
C310 C309 1.376 . S
C310 C311 1.388 . S
C311 H298 0.930 . S
C311 C310 1.388 . S
C311 C312 1.390 . S
C312 C311 1.390 . S
C312 C313 1.394 . S
C312 C318 1.465 . S
C313 C308 1.399 . S
C313 C312 1.394 . S
C313 C314 1.516 . S
C314 C313 1.516 . S
C314 C315 1.502 . S
C314 C316 1.561 . S
C314 C317 1.526 . S
C315 H299 0.959 . S
C315 H300 0.959 . S
C315 H301 0.961 . S
C315 C314 1.502 . S
C316 H302 0.960 . S
C316 H303 0.961 . S
C316 H304 0.959 . S
C316 C314 1.561 . S
C317 C314 1.526 . S
C317 C318 1.396 . S
C317 C322 1.390 . S
C318 C312 1.465 . S
C318 C317 1.396 . S
C318 C319 1.399 . S
C319 H305 0.929 . S
C319 C318 1.399 . S
C319 C320 1.385 . S
C320 H306 0.931 . S
C320 C319 1.385 . S
C320 C321 1.389 . S
C321 C320 1.389 . S
C321 C322 1.387 . S
C322 H307 0.930 . S
C322 C317 1.390 . S
C322 C321 1.387 . S
H323 C335 0.930 . S
H324 C337 0.930 . S
H325 C338 0.930 . S
H326 C342 0.959 . S
H327 C342 0.959 . S
H328 C342 0.961 . S
H329 C343 0.960 1_655 S
H330 C343 0.961 . S
H331 C343 0.959 1_655 S
H332 C346 0.929 . S
H333 C347 0.931 . S
H334 C349 0.930 . S
C335 H323 0.930 . S
C335 C336 1.399 . S
C335 C340 1.399 . S
C336 C335 1.399 . S
C336 C337 1.376 . S
C337 H324 0.930 . S
C337 C336 1.376 . S
C337 C338 1.388 . S
C338 H325 0.930 . S
C338 C337 1.388 . S
C338 C339 1.390 . S
C339 C338 1.390 . S
C339 C340 1.394 . S
C339 C345 1.465 1_655 S
C340 C335 1.399 . S
C340 C339 1.394 . S
C340 C341 1.516 1_655 S
C341 C340 1.516 1_455 S
C341 C342 1.502 . S
C341 C343 1.561 . S
C341 C344 1.526 . S
C342 H326 0.959 . S
C342 H327 0.959 . S
C342 H328 0.961 . S
C342 C341 1.502 . S
C343 H329 0.960 1_455 S
C343 H330 0.961 . S
C343 H331 0.959 1_455 S
C343 C341 1.561 . S
C344 C341 1.526 . S
C344 C345 1.396 . S
C344 C349 1.390 . S
C345 C339 1.465 1_455 S
C345 C344 1.396 . S
C345 C346 1.399 . S
C346 H332 0.929 . S
C346 C345 1.399 . S
C346 C347 1.385 . S
C347 H333 0.931 . S
C347 C346 1.385 . S
C347 C348 1.389 . S
C348 C347 1.389 . S
C348 C349 1.387 . S
C349 H334 0.930 . S
C349 C344 1.390 . S
C349 C348 1.387 . S
H350 C362 0.930 . S
H351 C364 0.930 . S
H352 C365 0.930 . S
H353 C369 0.959 . S
H354 C369 0.959 . S
H355 C369 0.961 . S
H356 C370 0.960 . S
H357 C370 0.961 . S
H358 C370 0.959 . S
H359 C373 0.929 . S
H360 C374 0.931 . S
H361 C376 0.930 . S
C362 H350 0.930 . S
C362 C363 1.399 . S
C362 C367 1.399 . S
C363 C362 1.399 . S
C363 C364 1.376 . S
C364 H351 0.930 . S
C364 C363 1.376 . S
C364 C365 1.388 . S
C365 H352 0.930 . S
C365 C364 1.388 . S
C365 C366 1.390 . S
C366 C365 1.390 . S
C366 C367 1.394 . S
C366 C372 1.465 . S
C367 C362 1.399 . S
C367 C366 1.394 . S
C367 C368 1.516 . S
C368 C367 1.516 . S
C368 C369 1.502 . S
C368 C370 1.561 . S
C368 C371 1.526 . S
C369 H353 0.959 . S
C369 H354 0.959 . S
C369 H355 0.961 . S
C369 C368 1.502 . S
C370 H356 0.960 . S
C370 H357 0.961 . S
C370 H358 0.959 . S
C370 C368 1.561 . S
C371 C368 1.526 . S
C371 C372 1.396 . S
C371 C376 1.390 . S
C372 C366 1.465 . S
C372 C371 1.396 . S
C372 C373 1.399 . S
C373 H359 0.929 . S
C373 C372 1.399 . S
C373 C374 1.385 . S
C374 H360 0.931 . S
C374 C373 1.385 . S
C374 C375 1.389 . S
C375 C374 1.389 . S
C375 C376 1.387 . S
C376 H361 0.930 . S
C376 C371 1.390 . S
C376 C375 1.387 . S
H377 C389 0.930 . S
H378 C391 0.930 . S
H379 C392 0.930 . S
H380 C396 0.959 . S
H381 C396 0.959 . S
H382 C396 0.961 . S
H383 C397 0.960 . S
H384 C397 0.961 1_655 S
H385 C397 0.959 . S
H386 C400 0.929 . S
H387 C401 0.931 . S
H388 C403 0.930 . S
C389 H377 0.930 . S
C389 C390 1.399 . S
C389 C394 1.399 . S
C390 C389 1.399 . S
C390 C391 1.376 . S
C391 H378 0.930 . S
C391 C390 1.376 . S
C391 C392 1.388 . S
C392 H379 0.930 . S
C392 C391 1.388 . S
C392 C393 1.390 . S
C393 C392 1.390 . S
C393 C394 1.394 . S
C393 C399 1.465 1_455 S
C394 C389 1.399 . S
C394 C393 1.394 . S
C394 C395 1.516 1_455 S
C395 C394 1.516 1_655 S
C395 C396 1.502 . S
C395 C397 1.561 1_655 S
C395 C398 1.526 . S
C396 H380 0.959 . S
C396 H381 0.959 . S
C396 H382 0.961 . S
C396 C395 1.502 . S
C397 H383 0.960 . S
C397 H384 0.961 1_455 S
C397 H385 0.959 . S
C397 C395 1.561 1_455 S
C398 C395 1.526 . S
C398 C399 1.396 . S
C398 C403 1.390 . S
C399 C393 1.465 1_655 S
C399 C398 1.396 . S
C399 C400 1.399 . S
C400 H386 0.929 . S
C400 C399 1.399 . S
C400 C401 1.385 . S
C401 H387 0.931 . S
C401 C400 1.385 . S
C401 C402 1.389 . S
C402 C401 1.389 . S
C402 C403 1.387 . S
C403 H388 0.930 . S
C403 C398 1.390 . S
C403 C402 1.387 . S
H404 C416 0.930 . S
H405 C418 0.950 . S
H406 C419 0.930 . S
H407 C423 0.959 . S
H408 C423 0.959 . S
H409 C423 0.961 . S
H410 C424 0.960 . S
H411 C424 0.961 . S
H412 C424 0.959 . S
H413 C427 0.929 . S
H414 C428 0.931 . S
H415 C430 0.930 . S
C416 H404 0.930 . S
C416 C417 1.399 . S
C416 C421 1.399 . S
C417 C416 1.399 . S
C417 C418 1.376 . S
C418 H405 0.950 . S
C418 C417 1.376 . S
C418 C419 1.388 1_545 S
C419 H406 0.930 . S
C419 C418 1.388 1_565 S
C419 C420 1.390 . S
C420 C419 1.390 . S
C420 C421 1.394 1_565 S
C420 C426 1.465 . S
C421 C416 1.399 . S
C421 C420 1.394 1_545 S
C421 C422 1.524 . S
C422 C421 1.524 . S
C422 C423 1.514 . S
C422 C424 1.574 . S
C422 C425 1.492 1_545 S
C423 H407 0.959 . S
C423 H408 0.959 . S
C423 H409 0.961 . S
C423 C422 1.514 . S
C424 H410 0.960 . S
C424 H411 0.961 . S
C424 H412 0.959 . S
C424 C422 1.574 . S
C425 C422 1.492 1_565 S
C425 C426 1.396 . S
C425 C430 1.390 . S
C426 C420 1.465 . S
C426 C425 1.396 . S
C426 C427 1.399 . S
C427 H413 0.929 . S
C427 C426 1.399 . S
C427 C428 1.385 . S
C428 H414 0.931 . S
C428 C427 1.385 . S
C428 C429 1.389 . S
C429 C428 1.389 . S
C429 C430 1.387 . S
C430 H415 0.930 . S
C430 C425 1.390 . S
C430 C429 1.387 . S
H431 C443 0.930 . S
H432 C445 0.930 . S
H433 C446 0.930 . S
H434 C450 0.959 . S
H435 C450 0.959 . S
H436 C450 0.961 . S
H437 C451 0.960 . S
H438 C451 0.961 . S
H439 C451 0.959 . S
H440 C454 0.929 . S
H441 C455 0.931 . S
H442 C457 0.930 . S
C443 H431 0.930 . S
C443 C444 1.399 . S
C443 C448 1.399 . S
C444 C443 1.399 . S
C444 C445 1.376 . S
C445 H432 0.930 . S
C445 C444 1.376 . S
C445 C446 1.388 . S
C446 H433 0.930 . S
C446 C445 1.388 . S
C446 C447 1.390 . S
C447 C446 1.390 . S
C447 C448 1.394 . S
C447 C453 1.465 . S
C448 C443 1.399 . S
C448 C447 1.394 . S
C448 C449 1.516 . S
C449 C448 1.516 . S
C449 C450 1.502 . S
C449 C451 1.561 . S
C449 C452 1.526 . S
C450 H434 0.959 . S
C450 H435 0.959 . S
C450 H436 0.961 . S
C450 C449 1.502 . S
C451 H437 0.960 . S
C451 H438 0.961 . S
C451 H439 0.959 . S
C451 C449 1.561 . S
C452 C449 1.526 . S
C452 C453 1.396 . S
C452 C457 1.390 . S
C453 C447 1.465 . S
C453 C452 1.396 . S
C453 C454 1.399 . S
C454 H440 0.929 . S
C454 C453 1.399 . S
C454 C455 1.385 . S
C455 H441 0.931 . S
C455 C454 1.385 . S
C455 C456 1.389 . S
C456 C455 1.389 . S
C456 C457 1.387 . S
C457 H442 0.930 . S
C457 C452 1.390 . S
C457 C456 1.387 . S
H458 C470 0.930 . S
H459 C472 0.930 . S
H460 C473 0.930 . S
H461 C477 0.959 . S
H462 C477 0.959 . S
H463 C477 0.961 . S
H464 C478 0.960 1_554 S
H465 C478 0.961 1_554 S
H466 C478 0.959 . S
H467 C481 0.929 . S
H468 C482 0.931 . S
H469 C484 0.930 . S
C470 H458 0.930 . S
C470 C471 1.399 . S
C470 C475 1.399 1_565 S
C471 C470 1.399 . S
C471 C472 1.376 . S
C472 H459 0.930 . S
C472 C471 1.376 . S
C472 C473 1.388 . S
C473 H460 0.930 . S
C473 C472 1.388 . S
C473 C474 1.390 1_565 S
C474 C473 1.390 1_545 S
C474 C475 1.394 . S
C474 C480 1.465 . S
C475 C470 1.399 1_545 S
C475 C474 1.394 . S
C475 C476 1.516 . S
C476 C475 1.516 . S
C476 C477 1.502 . S
C476 C478 1.561 . S
C476 C479 1.526 . S
C477 H461 0.959 . S
C477 H462 0.959 . S
C477 H463 0.961 . S
C477 C476 1.502 . S
C478 H464 0.960 1_556 S
C478 H465 0.961 1_556 S
C478 H466 0.959 . S
C478 C476 1.561 . S
C479 C476 1.526 . S
C479 C480 1.396 . S
C479 C484 1.390 . S
C480 C474 1.465 . S
C480 C479 1.396 . S
C480 C481 1.399 . S
C481 H467 0.929 . S
C481 C480 1.399 . S
C481 C482 1.385 . S
C482 H468 0.931 . S
C482 C481 1.385 . S
C482 C483 1.389 . S
C483 C482 1.389 . S
C483 C484 1.387 . S
C484 H469 0.930 . S
C484 C479 1.390 . S
C484 C483 1.387 . S
H485 C497 0.930 . S
H486 C499 0.930 . S
H487 C500 0.930 . S
H488 C504 0.959 . S
H489 C504 0.959 . S
H490 C504 0.961 . S
H491 C505 0.960 . S
H492 C505 0.961 . S
H493 C505 0.959 . S
H494 C508 0.929 . S
H495 C509 0.931 . S
H496 C511 0.930 . S
C497 H485 0.930 . S
C497 C498 1.399 . S
C497 C502 1.399 . S
C498 C497 1.399 . S
C498 C499 1.376 . S
C499 H486 0.930 . S
C499 C498 1.376 . S
C499 C500 1.388 . S
C500 H487 0.930 . S
C500 C499 1.388 . S
C500 C501 1.390 . S
C501 C500 1.390 . S
C501 C502 1.394 . S
C501 C507 1.465 . S
C502 C497 1.399 . S
C502 C501 1.394 . S
C502 C503 1.516 . S
C503 C502 1.516 . S
C503 C504 1.502 . S
C503 C505 1.561 . S
C503 C506 1.526 . S
C504 H488 0.959 . S
C504 H489 0.959 . S
C504 H490 0.961 . S
C504 C503 1.502 . S
C505 H491 0.960 . S
C505 H492 0.961 . S
C505 H493 0.959 . S
C505 C503 1.561 . S
C506 C503 1.526 . S
C506 C507 1.396 . S
C506 C511 1.390 . S
C507 C501 1.465 . S
C507 C506 1.396 . S
C507 C508 1.399 . S
C508 H494 0.929 . S
C508 C507 1.399 . S
C508 C509 1.385 . S
C509 H495 0.931 . S
C509 C508 1.385 . S
C509 C510 1.389 . S
C510 C509 1.389 . S
C510 C511 1.387 . S
C511 H496 0.930 . S
C511 C506 1.390 . S
C511 C510 1.387 . S
H512 C524 0.930 . S
H513 C526 0.930 . S
H514 C527 0.930 . S
H515 C531 0.959 . S
H516 C531 0.959 . S
H517 C531 0.961 . S
H518 C532 0.960 . S
H519 C532 0.961 . S
H520 C532 0.959 . S
H521 C535 0.929 . S
H522 C536 0.931 . S
H523 C538 0.930 . S
C524 H512 0.930 . S
C524 C525 1.399 . S
C524 C529 1.399 . S
C525 C524 1.399 . S
C525 C526 1.376 . S
C526 H513 0.930 . S
C526 C525 1.376 . S
C526 C527 1.388 . S
C527 H514 0.930 . S
C527 C526 1.388 . S
C527 C528 1.390 . S
C528 C527 1.390 . S
C528 C529 1.394 . S
C528 C534 1.465 . S
C529 C524 1.399 . S
C529 C528 1.394 . S
C529 C530 1.516 . S
C530 C529 1.516 . S
C530 C531 1.502 . S
C530 C532 1.561 . S
C530 C533 1.526 . S
C531 H515 0.959 . S
C531 H516 0.959 . S
C531 H517 0.961 . S
C531 C530 1.502 . S
C532 H518 0.960 . S
C532 H519 0.961 . S
C532 H520 0.959 . S
C532 C530 1.561 . S
C533 C530 1.526 . S
C533 C534 1.396 . S
C533 C538 1.390 . S
C534 C528 1.465 . S
C534 C533 1.396 . S
C534 C535 1.399 . S
C535 H521 0.929 . S
C535 C534 1.399 . S
C535 C536 1.385 . S
C536 H522 0.931 . S
C536 C535 1.385 . S
C536 C537 1.389 . S
C537 C536 1.389 . S
C537 C538 1.387 . S
C538 H523 0.930 . S
C538 C533 1.390 . S
C538 C537 1.387 . S
H539 C551 0.930 . S
H540 C553 0.930 . S
H541 C554 0.930 . S
H542 C558 0.959 . S
H543 C558 0.959 . S
H544 C558 0.961 . S
H545 C559 0.960 . S
H546 C559 0.961 . S
H547 C559 0.959 . S
H548 C562 0.929 . S
H549 C563 0.931 . S
H550 C565 0.930 . S
C551 H539 0.930 . S
C551 C552 1.399 . S
C551 C556 1.399 1_455 S
C552 C551 1.399 . S
C552 C553 1.376 . S
C553 H540 0.930 . S
C553 C552 1.376 . S
C553 C554 1.388 1_455 S
C554 H541 0.930 . S
C554 C553 1.388 1_655 S
C554 C555 1.390 . S
C555 C554 1.390 . S
C555 C556 1.394 . S
C555 C561 1.465 . S
C556 C551 1.399 1_655 S
C556 C555 1.394 . S
C556 C557 1.516 . S
C557 C556 1.516 . S
C557 C558 1.502 . S
C557 C559 1.561 . S
C557 C560 1.526 . S
C558 H542 0.959 . S
C558 H543 0.959 . S
C558 H544 0.961 . S
C558 C557 1.502 . S
C559 H545 0.960 . S
C559 H546 0.961 . S
C559 H547 0.959 . S
C559 C557 1.561 . S
C560 C557 1.526 . S
C560 C561 1.396 . S
C560 C565 1.390 . S
C561 C555 1.465 . S
C561 C560 1.396 . S
C561 C562 1.399 . S
C562 H548 0.929 . S
C562 C561 1.399 . S
C562 C563 1.385 . S
C563 H549 0.931 . S
C563 C562 1.385 . S
C563 C564 1.389 . S
C564 C563 1.389 . S
C564 C565 1.387 . S
C565 H550 0.930 . S
C565 C560 1.390 . S
C565 C564 1.387 . S
H566 C578 0.930 . S
H567 C580 0.930 . S
H568 C581 0.930 . S
H569 C585 0.959 . S
H570 C585 0.959 . S
H571 C585 0.961 . S
H572 C586 0.960 . S
H573 C586 0.961 . S
H574 C586 0.959 . S
H575 C589 0.929 . S
H576 C590 0.931 . S
H577 C592 0.930 . S
C578 H566 0.930 . S
C578 C579 1.399 . S
C578 C583 1.399 . S
C579 C578 1.399 . S
C579 C580 1.376 . S
C580 H567 0.930 . S
C580 C579 1.376 . S
C580 C581 1.388 . S
C581 H568 0.930 . S
C581 C580 1.388 . S
C581 C582 1.390 . S
C582 C581 1.390 . S
C582 C583 1.394 . S
C582 C588 1.465 . S
C583 C578 1.399 . S
C583 C582 1.394 . S
C583 C584 1.516 . S
C584 C583 1.516 . S
C584 C585 1.502 . S
C584 C586 1.561 . S
C584 C587 1.526 . S
C585 H569 0.959 . S
C585 H570 0.959 . S
C585 H571 0.961 . S
C585 C584 1.502 . S
C586 H572 0.960 . S
C586 H573 0.961 . S
C586 H574 0.959 . S
C586 C584 1.561 . S
C587 C584 1.526 . S
C587 C588 1.396 . S
C587 C592 1.390 . S
C588 C582 1.465 . S
C588 C587 1.396 . S
C588 C589 1.399 . S
C589 H575 0.929 . S
C589 C588 1.399 . S
C589 C590 1.385 . S
C590 H576 0.931 . S
C590 C589 1.385 . S
C590 C591 1.389 . S
C591 C590 1.389 . S
C591 C592 1.387 . S
C592 H577 0.930 . S
C592 C587 1.390 . S
C592 C591 1.387 . S
H593 C605 0.930 . S
H594 C607 0.930 . S
H595 C608 0.930 . S
H596 C612 0.959 . S
H597 C612 0.959 . S
H598 C612 0.961 . S
H599 C613 0.960 . S
H600 C613 0.961 . S
H601 C613 0.959 . S
H602 C616 0.929 . S
H603 C617 0.931 . S
H604 C619 0.930 . S
C605 H593 0.930 . S
C605 C606 1.399 . S
C605 C610 1.399 1_655 S
C606 C605 1.399 . S
C606 C607 1.376 . S
C607 H594 0.930 . S
C607 C606 1.376 . S
C607 C608 1.388 1_655 S
C608 H595 0.930 . S
C608 C607 1.388 1_455 S
C608 C609 1.390 . S
C609 C608 1.390 . S
C609 C610 1.394 . S
C609 C615 1.465 . S
C610 C605 1.399 1_455 S
C610 C609 1.394 . S
C610 C611 1.516 . S
C611 C610 1.516 . S
C611 C612 1.502 . S
C611 C613 1.561 . S
C611 C614 1.526 . S
C612 H596 0.959 . S
C612 H597 0.959 . S
C612 H598 0.961 . S
C612 C611 1.502 . S
C613 H599 0.960 . S
C613 H600 0.961 . S
C613 H601 0.959 . S
C613 C611 1.561 . S
C614 C611 1.526 . S
C614 C615 1.396 . S
C614 C619 1.390 . S
C615 C609 1.465 . S
C615 C614 1.396 . S
C615 C616 1.399 . S
C616 H602 0.929 . S
C616 C615 1.399 . S
C616 C617 1.385 . S
C617 H603 0.931 . S
C617 C616 1.385 . S
C617 C618 1.389 . S
C618 C617 1.389 . S
C618 C619 1.387 . S
C619 H604 0.930 . S
C619 C614 1.390 . S
C619 C618 1.387 . S
H620 C632 0.930 . S
H621 C634 0.930 . S
H622 C635 0.930 . S
H623 C639 0.959 . S
H624 C639 0.959 . S
H625 C639 0.961 . S
H626 C640 0.960 . S
H627 C640 0.961 . S
H628 C640 0.959 . S
H629 C643 0.929 . S
H630 C644 0.931 . S
H631 C646 0.930 . S
C632 H620 0.930 . S
C632 C633 1.399 . S
C632 C637 1.399 . S
C633 C632 1.399 . S
C633 C634 1.376 . S
C634 H621 0.930 . S
C634 C633 1.376 . S
C634 C635 1.388 . S
C635 H622 0.930 . S
C635 C634 1.388 . S
C635 C636 1.390 . S
C636 C635 1.390 . S
C636 C637 1.394 . S
C636 C642 1.465 . S
C637 C632 1.399 . S
C637 C636 1.394 . S
C637 C638 1.516 . S
C638 C637 1.516 . S
C638 C639 1.502 . S
C638 C640 1.561 . S
C638 C641 1.526 . S
C639 H623 0.959 . S
C639 H624 0.959 . S
C639 H625 0.961 . S
C639 C638 1.502 . S
C640 H626 0.960 . S
C640 H627 0.961 . S
C640 H628 0.959 . S
C640 C638 1.561 . S
C641 C638 1.526 . S
C641 C642 1.396 . S
C641 C646 1.390 . S
C642 C636 1.465 . S
C642 C641 1.396 . S
C642 C643 1.399 . S
C643 H629 0.929 . S
C643 C642 1.399 . S
C643 C644 1.385 . S
C644 H630 0.931 . S
C644 C643 1.385 . S
C644 C645 1.389 . S
C645 C644 1.389 . S
C645 C646 1.387 . S
C646 H631 0.930 . S
C646 C641 1.390 . S
C646 C645 1.387 . S
H647 C659 0.930 . S
H648 C661 0.930 . S
H649 C662 0.930 . S
H650 C666 0.959 . S
H651 C666 0.959 . S
H652 C666 0.961 . S
H653 C667 0.960 . S
H654 C667 0.961 . S
H655 C667 0.959 . S
H656 C670 0.929 . S
H657 C671 0.931 . S
H658 C673 0.930 . S
C659 H647 0.930 . S
C659 C660 1.399 . S
C659 C664 1.399 . S
C660 C659 1.399 . S
C660 C661 1.376 . S
C661 H648 0.930 . S
C661 C660 1.376 . S
C661 C662 1.388 . S
C662 H649 0.930 . S
C662 C661 1.388 . S
C662 C663 1.390 . S
C663 C662 1.390 . S
C663 C664 1.394 . S
C663 C669 1.465 . S
C664 C659 1.399 . S
C664 C663 1.394 . S
C664 C665 1.516 . S
C665 C664 1.516 . S
C665 C666 1.502 . S
C665 C667 1.561 . S
C665 C668 1.526 . S
C666 H650 0.959 . S
C666 H651 0.959 . S
C666 H652 0.961 . S
C666 C665 1.502 . S
C667 H653 0.960 . S
C667 H654 0.961 . S
C667 H655 0.959 . S
C667 C665 1.561 . S
C668 C665 1.526 . S
C668 C669 1.396 . S
C668 C673 1.390 . S
C669 C663 1.465 . S
C669 C668 1.396 . S
C669 C670 1.399 . S
C670 H656 0.929 . S
C670 C669 1.399 . S
C670 C671 1.385 . S
C671 H657 0.931 . S
C671 C670 1.385 . S
C671 C672 1.389 . S
C672 C671 1.389 . S
C672 C673 1.387 . S
C673 H658 0.930 . S
C673 C668 1.390 . S
C673 C672 1.387 . S
H674 C686 0.930 . S
H675 C688 0.930 . S
H676 C689 0.930 . S
H677 C693 0.959 . S
H678 C693 0.959 . S
H679 C693 0.961 . S
H680 C694 0.960 . S
H681 C694 0.961 . S
H682 C694 0.959 . S
H683 C697 0.929 . S
H684 C698 0.931 . S
H685 C700 0.930 . S
C686 H674 0.930 . S
C686 C687 1.399 . S
C686 C691 1.399 . S
C687 C686 1.399 . S
C687 C688 1.376 . S
C688 H675 0.930 . S
C688 C687 1.376 . S
C688 C689 1.388 . S
C689 H676 0.930 . S
C689 C688 1.388 . S
C689 C690 1.390 . S
C690 C689 1.390 . S
C690 C691 1.394 . S
C690 C696 1.465 . S
C691 C686 1.399 . S
C691 C690 1.394 . S
C691 C692 1.516 . S
C692 C691 1.516 . S
C692 C693 1.502 . S
C692 C694 1.561 . S
C692 C695 1.526 . S
C693 H677 0.959 . S
C693 H678 0.959 . S
C693 H679 0.961 . S
C693 C692 1.502 . S
C694 H680 0.960 . S
C694 H681 0.961 . S
C694 H682 0.959 . S
C694 C692 1.561 . S
C695 C692 1.526 . S
C695 C696 1.396 . S
C695 C700 1.390 . S
C696 C690 1.465 . S
C696 C695 1.396 . S
C696 C697 1.399 . S
C697 H683 0.929 . S
C697 C696 1.399 . S
C697 C698 1.385 . S
C698 H684 0.931 . S
C698 C697 1.385 . S
C698 C699 1.389 . S
C699 C698 1.389 . S
C699 C700 1.387 . S
C700 H685 0.930 . S
C700 C695 1.390 . S
C700 C699 1.387 . S
H701 C713 0.930 . S
H702 C715 0.930 . S
H703 C716 0.930 . S
H704 C720 0.959 . S
H705 C720 0.959 . S
H706 C720 0.961 . S
H707 C721 0.960 . S
H708 C721 0.961 . S
H709 C721 0.959 . S
H710 C724 0.929 . S
H711 C725 0.931 . S
H712 C727 0.930 . S
C713 H701 0.930 . S
C713 C714 1.399 . S
C713 C718 1.399 . S
C714 C713 1.399 . S
C714 C715 1.376 . S
C715 H702 0.930 . S
C715 C714 1.376 . S
C715 C716 1.388 . S
C716 H703 0.930 . S
C716 C715 1.388 . S
C716 C717 1.390 . S
C717 C716 1.390 . S
C717 C718 1.394 . S
C717 C723 1.465 . S
C718 C713 1.399 . S
C718 C717 1.394 . S
C718 C719 1.516 . S
C719 C718 1.516 . S
C719 C720 1.502 . S
C719 C721 1.561 . S
C719 C722 1.526 . S
C720 H704 0.959 . S
C720 H705 0.959 . S
C720 H706 0.961 . S
C720 C719 1.502 . S
C721 H707 0.960 . S
C721 H708 0.961 . S
C721 H709 0.959 . S
C721 C719 1.561 . S
C722 C719 1.526 . S
C722 C723 1.396 . S
C722 C727 1.390 . S
C723 C717 1.465 . S
C723 C722 1.396 . S
C723 C724 1.399 . S
C724 H710 0.929 . S
C724 C723 1.399 . S
C724 C725 1.385 . S
C725 H711 0.931 . S
C725 C724 1.385 . S
C725 C726 1.389 . S
C726 C725 1.389 . S
C726 C727 1.387 . S
C727 H712 0.930 . S
C727 C722 1.390 . S
C727 C726 1.387 . S
H728 C740 0.930 . S
H729 C742 0.930 . S
H730 C743 0.930 . S
H731 C747 0.959 . S
H732 C747 0.959 . S
H733 C747 0.961 . S
H734 C748 0.960 . S
H735 C748 0.961 . S
H736 C748 0.959 . S
H737 C751 0.929 . S
H738 C752 0.931 . S
H739 C754 0.930 . S
C740 H728 0.930 . S
C740 C741 1.399 . S
C740 C745 1.399 . S
C741 C740 1.399 . S
C741 C742 1.376 . S
C742 H729 0.930 . S
C742 C741 1.376 . S
C742 C743 1.388 . S
C743 H730 0.930 . S
C743 C742 1.388 . S
C743 C744 1.390 . S
C744 C743 1.390 . S
C744 C745 1.394 . S
C744 C750 1.465 . S
C745 C740 1.399 . S
C745 C744 1.394 . S
C745 C746 1.516 . S
C746 C745 1.516 . S
C746 C747 1.502 . S
C746 C748 1.561 . S
C746 C749 1.526 . S
C747 H731 0.959 . S
C747 H732 0.959 . S
C747 H733 0.961 . S
C747 C746 1.502 . S
C748 H734 0.960 . S
C748 H735 0.961 . S
C748 H736 0.959 . S
C748 C746 1.561 . S
C749 C746 1.526 . S
C749 C750 1.396 . S
C749 C754 1.390 . S
C750 C744 1.465 . S
C750 C749 1.396 . S
C750 C751 1.399 . S
C751 H737 0.929 . S
C751 C750 1.399 . S
C751 C752 1.385 . S
C752 H738 0.931 . S
C752 C751 1.385 . S
C752 C753 1.389 . S
C753 C752 1.389 . S
C753 C754 1.387 . S
C754 H739 0.930 . S
C754 C749 1.390 . S
C754 C753 1.387 . S
H755 C767 0.930 . S
H756 C769 0.930 . S
H757 C770 0.930 . S
H758 C774 0.959 . S
H759 C774 0.959 . S
H760 C774 0.941 1_554 S
H761 C775 0.960 . S
H762 C775 0.961 . S
H763 C775 0.959 . S
H764 C778 0.929 . S
H765 C779 0.931 . S
H766 C781 0.930 . S
C767 H755 0.930 . S
C767 C768 1.399 . S
C767 C772 1.399 . S
C768 C767 1.399 . S
C768 C769 1.376 . S
C769 H756 0.930 . S
C769 C768 1.376 . S
C769 C770 1.388 . S
C770 H757 0.930 . S
C770 C769 1.388 . S
C770 C771 1.390 . S
C771 C770 1.390 . S
C771 C772 1.394 . S
C771 C777 1.465 . S
C772 C767 1.399 . S
C772 C771 1.394 . S
C772 C773 1.516 . S
C773 C772 1.516 . S
C773 C774 1.502 . S
C773 C775 1.561 . S
C773 C776 1.526 . S
C774 H758 0.959 . S
C774 H759 0.959 . S
C774 H760 0.941 1_556 S
C774 C773 1.502 . S
C775 H761 0.960 . S
C775 H762 0.961 . S
C775 H763 0.959 . S
C775 C773 1.561 . S
C776 C773 1.526 . S
C776 C777 1.396 . S
C776 C781 1.390 . S
C777 C771 1.465 . S
C777 C776 1.396 . S
C777 C778 1.399 . S
C778 H764 0.929 . S
C778 C777 1.399 . S
C778 C779 1.385 . S
C779 H765 0.931 . S
C779 C778 1.385 . S
C779 C780 1.389 . S
C780 C779 1.389 . S
C780 C781 1.387 . S
C781 H766 0.930 . S
C781 C776 1.390 . S
C781 C780 1.387 . S
H782 C794 0.930 . S
H783 C796 0.930 . S
H784 C797 0.930 . S
H785 C801 0.959 . S
H786 C801 0.959 . S
H787 C801 0.961 . S
H788 C802 0.960 . S
H789 C802 0.961 . S
H790 C802 0.959 . S
H791 C805 0.929 . S
H792 C806 0.931 . S
H793 C808 0.930 . S
C794 H782 0.930 . S
C794 C795 1.399 . S
C794 C799 1.399 . S
C795 C794 1.399 . S
C795 C796 1.376 . S
C796 H783 0.930 . S
C796 C795 1.376 . S
C796 C797 1.388 . S
C797 H784 0.930 . S
C797 C796 1.388 . S
C797 C798 1.390 . S
C798 C797 1.390 . S
C798 C799 1.394 . S
C798 C804 1.465 . S
C799 C794 1.399 . S
C799 C798 1.394 . S
C799 C800 1.516 . S
C800 C799 1.516 . S
C800 C801 1.502 . S
C800 C802 1.561 . S
C800 C803 1.526 . S
C801 H785 0.959 . S
C801 H786 0.959 . S
C801 H787 0.961 . S
C801 C800 1.502 . S
C802 H788 0.960 . S
C802 H789 0.961 . S
C802 H790 0.959 . S
C802 C800 1.561 . S
C803 C800 1.526 . S
C803 C804 1.396 . S
C803 C808 1.390 . S
C804 C798 1.465 . S
C804 C803 1.396 . S
C804 C805 1.399 . S
C805 H791 0.929 . S
C805 C804 1.399 . S
C805 C806 1.385 . S
C806 H792 0.931 . S
C806 C805 1.385 . S
C806 C807 1.389 . S
C807 C806 1.389 . S
C807 C808 1.387 . S
C808 H793 0.930 . S
C808 C803 1.390 . S
C808 C807 1.387 . S
H809 C821 0.930 . S
H810 C823 0.930 . S
H811 C824 0.930 . S
H812 C828 0.959 . S
H813 C828 0.959 . S
H814 C828 0.961 . S
H815 C829 0.960 . S
H816 C829 0.961 . S
H817 C829 0.959 . S
H818 C832 0.929 . S
H819 C833 0.931 . S
H820 C835 0.930 . S
C821 H809 0.930 . S
C821 C822 1.399 . S
C821 C826 1.399 . S
C822 C821 1.399 . S
C822 C823 1.376 . S
C823 H810 0.930 . S
C823 C822 1.376 . S
C823 C824 1.388 . S
C824 H811 0.930 . S
C824 C823 1.388 . S
C824 C825 1.390 . S
C825 C824 1.390 . S
C825 C826 1.394 . S
C825 C831 1.465 . S
C826 C821 1.399 . S
C826 C825 1.394 . S
C826 C827 1.516 . S
C827 C826 1.516 . S
C827 C828 1.502 . S
C827 C829 1.561 . S
C827 C830 1.526 . S
C828 H812 0.959 . S
C828 H813 0.959 . S
C828 H814 0.961 . S
C828 C827 1.502 . S
C829 H815 0.960 . S
C829 H816 0.961 . S
C829 H817 0.959 . S
C829 C827 1.561 . S
C830 C827 1.526 . S
C830 C831 1.396 . S
C830 C835 1.390 . S
C831 C825 1.465 . S
C831 C830 1.396 . S
C831 C832 1.399 . S
C832 H818 0.929 . S
C832 C831 1.399 . S
C832 C833 1.385 . S
C833 H819 0.931 . S
C833 C832 1.385 . S
C833 C834 1.389 . S
C834 C833 1.389 . S
C834 C835 1.387 . S
C835 H820 0.930 . S
C835 C830 1.390 . S
C835 C834 1.387 . S
C201 C7 0.945 . S
C213 C92 0.871 . S
C228 C25 0.612 . S
C240 C105 0.692 . S
C255 C46 0.887 . S
C267 C119 0.945 . S
C294 C132 0.807 . S
C282 C70 0.745 . S
C321 C144 0.707 . S
C309 C28 0.673 . S
C336 C49 0.845 . S
C348 C158 0.954 . S
C363 C67 0.717 . S
C375 C170 0.854 . S
C390 C4 0.746 . S
C402 C184 0.807 . S
C417 C58 1.552 . S
C429 C183 1.580 . S
C456 C145 1.732 . S
C444 C66 1.740 . S
C483 C157 1.685 . S
C471 C3 1.551 . S
C498 C37 1.622 . S
C510 C171 1.729 . S
C537 C106 1.779 . S
C525 C79 1.765 . S
C552 C16 1.581 . S
C564 C118 1.629 . S
C591 C131 1.649 . S
C579 C24 1.543 . S
C618 C93 1.762 . S
C606 C45 1.688 . S
C645 C166 1.324 . S
C633 C19 1.238 . S
C672 C179 1.287 . S
C660 C41 1.250 . S
C687 C62 1.228 . S
C699 C140 1.271 . S
C726 C153 1.443 . S
C714 C82 1.346 . S
C753 C114 1.375 . S
C741 C40 1.271 . S
C768 C61 1.159 . S
C780 C127 1.244 . S
C807 C88 1.368 . S
C795 C83 1.263 . S
C834 C101 1.334 . S
C822 C20 1.142 . S
