# Generated by pormake.
# Topology zzz, (3,6)-cn, num edge types: 1
# Building blocks:
#     Node 0, Type 0, BuildingBlock: MIDCAF_clean_linker_0, # of connection points: 3
#     Node 1, Type 0, BuildingBlock: MIDCAF_clean_linker_0, # of connection points: 3
#     Node 2, Type 0, BuildingBlock: MIDCAF_clean_linker_0, # of connection points: 3
#     Node 3, Type 0, BuildingBlock: MIDCAF_clean_linker_0, # of connection points: 3
#     Node 4, Type 0, BuildingBlock: MIDCAF_clean_linker_0, # of connection points: 3
#     Node 5, Type 0, BuildingBlock: MIDCAF_clean_linker_0, # of connection points: 3
#     Node 6, Type 0, BuildingBlock: MIDCAF_clean_linker_0, # of connection points: 3
#     Node 7, Type 0, BuildingBlock: MIDCAF_clean_linker_0, # of connection points: 3
#     Node 8, Type 1, BuildingBlock: JUFBIX_clean_sbu_0, # of connection points: 6
#     Node 9, Type 1, BuildingBlock: JUFBIX_clean_sbu_0, # of connection points: 6
#     Node 10, Type 1, BuildingBlock: JUFBIX_clean_sbu_0, # of connection points: 6
#     Node 11, Type 1, BuildingBlock: JUFBIX_clean_sbu_0, # of connection points: 6
#     Edge 12, Type (0, 1), BuildingBlock: ZUJKAS_clean_linker_0, # of connection points: 2
#     Edge 13, Type (0, 1), BuildingBlock: ZUJKAS_clean_linker_0, # of connection points: 2
#     Edge 14, Type (0, 1), BuildingBlock: ZUJKAS_clean_linker_0, # of connection points: 2
#     Edge 15, Type (0, 1), BuildingBlock: ZUJKAS_clean_linker_0, # of connection points: 2
#     Edge 16, Type (0, 1), BuildingBlock: ZUJKAS_clean_linker_0, # of connection points: 2
#     Edge 17, Type (0, 1), BuildingBlock: ZUJKAS_clean_linker_0, # of connection points: 2
#     Edge 18, Type (0, 1), BuildingBlock: ZUJKAS_clean_linker_0, # of connection points: 2
#     Edge 19, Type (0, 1), BuildingBlock: ZUJKAS_clean_linker_0, # of connection points: 2
#     Edge 20, Type (0, 1), BuildingBlock: ZUJKAS_clean_linker_0, # of connection points: 2
#     Edge 21, Type (0, 1), BuildingBlock: ZUJKAS_clean_linker_0, # of connection points: 2
#     Edge 22, Type (0, 1), BuildingBlock: ZUJKAS_clean_linker_0, # of connection points: 2
#     Edge 23, Type (0, 1), BuildingBlock: ZUJKAS_clean_linker_0, # of connection points: 2
#     Edge 24, Type (0, 1), BuildingBlock: ZUJKAS_clean_linker_0, # of connection points: 2
#     Edge 25, Type (0, 1), BuildingBlock: ZUJKAS_clean_linker_0, # of connection points: 2
#     Edge 26, Type (0, 1), BuildingBlock: ZUJKAS_clean_linker_0, # of connection points: 2
#     Edge 27, Type (0, 1), BuildingBlock: ZUJKAS_clean_linker_0, # of connection points: 2
#     Edge 28, Type (0, 1), BuildingBlock: ZUJKAS_clean_linker_0, # of connection points: 2
#     Edge 29, Type (0, 1), BuildingBlock: ZUJKAS_clean_linker_0, # of connection points: 2
#     Edge 30, Type (0, 1), BuildingBlock: ZUJKAS_clean_linker_0, # of connection points: 2
#     Edge 31, Type (0, 1), BuildingBlock: ZUJKAS_clean_linker_0, # of connection points: 2
#     Edge 32, Type (0, 1), BuildingBlock: ZUJKAS_clean_linker_0, # of connection points: 2
#     Edge 33, Type (0, 1), BuildingBlock: ZUJKAS_clean_linker_0, # of connection points: 2
#     Edge 34, Type (0, 1), BuildingBlock: ZUJKAS_clean_linker_0, # of connection points: 2
#     Edge 35, Type (0, 1), BuildingBlock: ZUJKAS_clean_linker_0, # of connection points: 2
# Relax obj value: 0.299
# Max RMSD: 0.222
# Mean RMSD: 0.190
data_MOF--net-zzz--node1-JUFBIX_clean_sbu_0--node2-MIDCAF_clean_linker_0--edge1-ZUJKAS_clean_linker_0
_symmetry_space_group_name_H-M    P1
_symmetry_Int_Tables_number       1
_symmetry_cell_setting            triclinic
loop_
_symmetry_equiv_pos_as_xyz
'x, y, z'
_cell_length_a     70.633836
_cell_length_b     72.818927
_cell_length_c     28.079398
_cell_angle_alpha  83.878202
_cell_angle_beta   90.241121
_cell_angle_gamma 86.810635
loop_
_atom_site_label
_atom_site_type_symbol
_atom_site_fract_x
_atom_site_fract_y
_atom_site_fract_z
_atom_type_partial_charge
C0 C 0.80352 0.5872 0.40364 0.0
C1 C 0.79914 0.57372 0.44097 0.0
C2 C 0.78314 0.56333 0.43576 0.0
C3 C 0.77274 0.56536 0.39261 0.0
H4 H 0.71778 0.55993 0.29307 0.0
H5 H 0.68603 0.55732 0.25879 0.0
H6 H 0.70329 0.58719 0.12637 0.0
H7 H 0.73468 0.58959 0.16011 0.0
H8 H 0.77717 0.55614 0.14103 0.0
H9 H 0.80243 0.54507 0.09065 0.0
H10 H 0.84417 0.5642 0.184 0.0
H11 H 0.81904 0.57478 0.23502 0.0
H12 H 0.79798 0.59856 0.33123 0.0
H13 H 0.81582 0.59532 0.40601 0.0
H14 H 0.77929 0.55295 0.46405 0.0
H15 H 0.76139 0.55627 0.38813 0.0
N16 N 0.75339 0.57595 0.29201 0.0
N17 N 0.7625 0.57143 0.21327 0.0
N18 N 0.78563 0.57329 0.27178 0.0
C19 C 0.74862 0.57412 0.24562 0.0
C20 C 0.78102 0.57085 0.22618 0.0
C21 C 0.77205 0.57585 0.30477 0.0
C22 C 0.72867 0.57486 0.22911 0.0
C23 C 0.71456 0.56624 0.25705 0.0
C24 C 0.69649 0.56466 0.23735 0.0
C25 C 0.69218 0.57206 0.18989 0.0
C26 C 0.70606 0.58153 0.16315 0.0
C27 C 0.7241 0.58279 0.1824 0.0
C28 C 0.79609 0.56618 0.19234 0.0
C29 C 0.79173 0.55817 0.15053 0.0
C30 C 0.80621 0.55184 0.12158 0.0
C31 C 0.82533 0.55351 0.13368 0.0
C32 C 0.82962 0.56226 0.17434 0.0
C33 C 0.81518 0.56846 0.20341 0.0
C34 C 0.77835 0.57766 0.35405 0.0
C35 C 0.79332 0.58906 0.36064 0.0
C36 C 0.97834 0.79556 0.38841 0.0
C37 C 0.99123 0.79488 0.42696 0.0
C38 C 0.00725 0.78242 0.42799 0.0
C39 C 0.01106 0.77204 0.3895 0.0
H40 H 0.98978 0.71994 0.27085 0.0
H41 H 0.98793 0.69115 0.23307 0.0
H42 H 0.03579 0.70601 0.1447 0.0
H43 H 0.03777 0.73424 0.18237 0.0
H44 H 0.03829 0.77751 0.14377 0.0
H45 H 0.04779 0.80321 0.08754 0.0
H46 H 0.02884 0.84176 0.18632 0.0
H47 H 0.01921 0.8163 0.24234 0.0
H48 H 0.97299 0.7874 0.31862 0.0
H49 H 0.96599 0.80513 0.38612 0.0
H50 H 0.01738 0.78146 0.45734 0.0
H51 H 0.02426 0.76372 0.38938 0.0
N52 N 0.00642 0.75158 0.28994 0.0
N53 N 0.02094 0.76207 0.2175 0.0
N54 N 0.01334 0.78284 0.27316 0.0
C55 C 0.01383 0.74804 0.24671 0.0
C56 C 0.02073 0.77948 0.23036 0.0
C57 C 0.00629 0.7691 0.3031 0.0
C58 C 0.01384 0.72944 0.22949 0.0
C59 C 1.0001 0.71682 0.24402 0.0
C60 C 0.99895 0.70043 0.22209 0.0
C61 C 0.0117 0.69626 0.18575 0.0
C62 C 0.02588 0.70858 0.17289 0.0
C63 C 0.02691 0.72491 0.19434 0.0
C64 C 0.02779 0.79482 0.19745 0.0
C65 C 0.03625 0.79145 0.15368 0.0
C66 C 0.04182 0.80614 0.12156 0.0
C67 C 0.03891 0.82446 0.13246 0.0
C68 C 0.031 0.82778 0.17674 0.0
C69 C 0.02555 0.81314 0.20891 0.0
C70 C 0.99894 0.77395 0.34937 0.0
C71 C 0.98226 0.78532 0.34981 0.0
C72 C 0.70885 0.97187 0.33925 0.0
C73 C 0.71459 0.96521 0.38619 0.0
C74 C 0.73203 0.95481 0.39311 0.0
C75 C 0.74293 0.95041 0.35365 0.0
H76 H 0.7964 0.96625 0.24276 0.0
H77 H 0.82766 0.97171 0.20815 0.0
H78 H 0.82044 0.92864 0.11617 0.0
H79 H 0.78964 0.92307 0.15088 0.0
H80 H 0.74211 0.9444 0.09365 0.0
H81 H 0.71591 0.94717 0.03607 0.0
H82 H 0.67868 0.92504 0.14698 0.0
H83 H 0.7047 0.92297 0.20481 0.0
H84 H 0.7142 0.97203 0.26453 0.0
H85 H 0.69543 0.97963 0.3322 0.0
H86 H 0.73693 0.94959 0.42885 0.0
H87 H 0.75579 0.94162 0.35958 0.0
N88 N 0.76372 0.94878 0.25512 0.0
N89 N 0.75794 0.93749 0.18107 0.0
N90 N 0.73281 0.94285 0.23231 0.0
C91 C 0.77035 0.943 0.2132 0.0
C92 C 0.7392 0.93721 0.19068 0.0
C93 C 0.74482 0.9486 0.26465 0.0
C94 C 0.79048 0.94434 0.19927 0.0
C95 C 0.80174 0.95768 0.21599 0.0
C96 C 0.81955 0.96091 0.19586 0.0
C97 C 0.8265 0.95071 0.15913 0.0
C98 C 0.81566 0.93665 0.14464 0.0
C99 C 0.79789 0.93354 0.16436 0.0
C100 C 0.72529 0.93382 0.15381 0.0
C101 C 0.72847 0.9396 0.10532 0.0
C102 C 0.71344 0.94117 0.07231 0.0
C103 C 0.69509 0.93677 0.08727 0.0
C104 C 0.69251 0.92906 0.13469 0.0
C105 C 0.70743 0.92776 0.16773 0.0
C106 C 0.73638 0.95618 0.3069 0.0
C107 C 0.71957 0.96739 0.30027 0.0
C108 C 0.45657 0.67409 0.13925 0.0
C109 C 0.45287 0.67836 0.09003 0.0
C110 C 0.45408 0.69673 0.06948 0.0
C111 C 0.45953 0.7104 0.09733 0.0
H112 H 0.45606 0.76745 0.11193 0.0
H113 H 0.4574 0.79851 0.07174 0.0
H114 H 0.50202 0.8096 0.16852 0.0
H115 H 0.50087 0.77814 0.20886 0.0
H116 H 0.48383 0.73876 0.33236 0.0
H117 H 0.494 0.72169 0.40945 0.0
H118 H 0.52305 0.67998 0.33375 0.0
H119 H 0.51293 0.69687 0.25788 0.0
H120 H 0.46534 0.68374 0.20452 0.0
H121 H 0.45598 0.66004 0.15605 0.0
H122 H 0.45117 0.70043 0.03167 0.0
H123 H 0.46079 0.72432 0.0802 0.0
N124 N 0.47103 0.73796 0.15843 0.0
N125 N 0.48731 0.74469 0.22731 0.0
N126 N 0.48043 0.71412 0.21739 0.0
C127 C 0.47873 0.75054 0.18423 0.0
C128 C 0.48816 0.72636 0.24381 0.0
C129 C 0.47174 0.71975 0.17491 0.0
C130 C 0.47844 0.77021 0.16356 0.0
C131 C 0.46609 0.77649 0.12508 0.0
C132 C 0.46675 0.7944 0.10214 0.0
C133 C 0.47982 0.80656 0.11684 0.0
C134 C 0.49189 0.8005 0.15608 0.0
C135 C 0.49113 0.78253 0.17942 0.0
C136 C 0.49762 0.71908 0.2894 0.0
C137 C 0.49291 0.72626 0.33253 0.0
C138 C 0.49857 0.7164 0.3765 0.0
C139 C 0.50928 0.69943 0.37776 0.0
C140 C 0.51504 0.69308 0.33428 0.0
C141 C 0.50917 0.70272 0.29071 0.0
C142 C 0.46405 0.70591 0.14615 0.0
C143 C 0.46212 0.68768 0.16695 0.0
C144 C 0.19559 0.43545 0.11879 0.0
C145 C 0.19893 0.44825 0.07904 0.0
C146 C 0.2143 0.45969 0.08098 0.0
C147 C 0.22502 0.45943 0.12327 0.0
H148 H 0.28258 0.44297 0.24008 0.0
H149 H 0.31434 0.44574 0.27402 0.0
H150 H 0.29134 0.48753 0.35926 0.0
H151 H 0.26011 0.48487 0.3256 0.0
H152 H 0.21916 0.47741 0.36953 0.0
H153 H 0.19321 0.48627 0.42071 0.0
H154 H 0.15402 0.46003 0.33464 0.0
H155 H 0.17979 0.45155 0.2828 0.0
H156 H 0.20214 0.42643 0.19231 0.0
H157 H 0.18381 0.42654 0.1188 0.0
H158 H 0.21735 0.46956 0.05074 0.0
H159 H 0.23577 0.46939 0.12509 0.0
N160 N 0.2448 0.45505 0.2227 0.0
N161 N 0.23515 0.46296 0.29841 0.0
N162 N 0.21275 0.45437 0.245 0.0
C163 C 0.24919 0.4604 0.26641 0.0
C164 C 0.21693 0.45994 0.28806 0.0
C165 C 0.22644 0.45194 0.21218 0.0
C166 C 0.26886 0.46363 0.28036 0.0
C167 C 0.28449 0.453 0.26528 0.0
C168 C 0.3026 0.45448 0.28499 0.0
C169 C 0.30537 0.46686 0.31935 0.0
C170 C 0.28982 0.47804 0.33247 0.0
C171 C 0.27184 0.47641 0.31339 0.0
C172 C 0.20156 0.4639 0.32177 0.0
C173 C 0.20504 0.4734 0.36169 0.0
C174 C 0.19017 0.47844 0.39115 0.0
C175 C 0.17152 0.47402 0.38145 0.0
C176 C 0.16815 0.46401 0.34246 0.0
C177 C 0.18298 0.45904 0.31291 0.0
C178 C 0.22033 0.44791 0.16429 0.0
C179 C 0.20609 0.43537 0.16101 0.0
C180 C 0.98504 0.21474 0.14096 0.0
C181 C 0.00146 0.21768 0.11367 0.0
C182 C 0.01359 0.23122 0.12611 0.0
C183 C 0.00986 0.24079 0.16631 0.0
H184 H 0.99258 0.2997 0.25709 0.0
H185 H 0.99871 0.32803 0.29377 0.0
H186 H 0.02559 0.2949 0.41472 0.0
H187 H 0.01929 0.2669 0.37851 0.0
H188 H 0.98566 0.23551 0.41934 0.0
H189 H 0.9735 0.21274 0.47938 0.0
H190 H 0.94276 0.18928 0.3691 0.0
H191 H 0.95563 0.21159 0.30879 0.0
H192 H 0.9689 0.22098 0.20169 0.0
H193 H 0.97545 0.20431 0.13337 0.0
H194 H 0.02623 0.23406 0.10558 0.0
H195 H 0.0199 0.25045 0.17634 0.0
N196 N 0.99935 0.25949 0.25435 0.0
N197 N 0.98891 0.25306 0.33369 0.0
N198 N 0.9824 0.23309 0.27684 0.0
C199 C 0.99788 0.26417 0.30012 0.0
C200 C 0.98098 0.2376 0.32223 0.0
C201 C 0.9916 0.24374 0.24273 0.0
C202 C 0.00555 0.28117 0.31494 0.0
C203 C 1.00035 0.29861 0.29071 0.0
C204 C 0.00367 0.31476 0.31195 0.0
C205 C 0.01256 0.3137 0.35728 0.0
C206 C 0.0189 0.29625 0.37965 0.0
C207 C 0.01527 0.2802 0.35893 0.0
C208 C 0.97182 0.2252 0.35924 0.0
C209 C 0.97612 0.22563 0.40797 0.0
C210 C 0.96902 0.21262 0.4425 0.0
C211 C 0.95723 0.19903 0.42915 0.0
C212 C 0.95213 0.19927 0.3806 0.0
C213 C 0.95946 0.21211 0.34601 0.0
C214 C 0.99399 0.23693 0.19495 0.0
C215 C 0.98135 0.22424 0.18074 0.0
C216 C 0.2717 0.0485 0.15564 0.0
C217 C 0.28275 0.06187 0.13092 0.0
C218 C 0.28107 0.08013 0.14294 0.0
C219 C 0.26993 0.08455 0.18149 0.0
H220 H 0.20507 0.04989 0.29653 0.0
H221 H 0.17556 0.04338 0.33928 0.0
H222 H 0.18279 0.09003 0.41951 0.0
H223 H 0.21237 0.09592 0.37844 0.0
H224 H 0.25869 0.08292 0.43025 0.0
H225 H 0.28405 0.07971 0.49009 0.0
H226 H 0.32561 0.07899 0.37774 0.0
H227 H 0.30044 0.08264 0.31797 0.0
H228 H 0.25297 0.04223 0.2146 0.0
H229 H 0.27267 0.03433 0.147 0.0
H230 H 0.28953 0.0907 0.12504 0.0
H231 H 0.27012 0.09836 0.19249 0.0
N232 N 0.23539 0.07221 0.27101 0.0
N233 N 0.2441 0.07947 0.34754 0.0
N234 N 0.26688 0.07854 0.28786 0.0
C235 C 0.23055 0.07526 0.31663 0.0
C236 C 0.26233 0.08097 0.33361 0.0
C237 C 0.25361 0.07429 0.25644 0.0
C238 C 0.21108 0.07325 0.33466 0.0
C239 C 0.20008 0.0589 0.32269 0.0
C240 C 0.1832 0.05519 0.34722 0.0
C241 C 0.177 0.06593 0.38369 0.0
C242 C 0.18741 0.08109 0.39284 0.0
C243 C 0.2043 0.08459 0.36898 0.0
C244 C 0.27748 0.08268 0.36925 0.0
C245 C 0.27323 0.08248 0.41819 0.0
C246 C 0.28777 0.08053 0.45257 0.0
C247 C 0.30682 0.07878 0.43872 0.0
C248 C 0.31109 0.08039 0.38968 0.0
C249 C 0.29659 0.08236 0.35533 0.0
C250 C 0.25994 0.07093 0.20817 0.0
C251 C 0.26027 0.05304 0.19386 0.0
C252 C 0.55273 0.34103 0.37424 0.0
C253 C 0.55098 0.33975 0.42431 0.0
C254 C 0.54549 0.32305 0.44881 0.0
C255 C 0.54099 0.3083 0.42361 0.0
H256 H 0.52395 0.25609 0.44107 0.0
H257 H 0.51971 0.22612 0.48469 0.0
H258 H 0.509 0.20341 0.35186 0.0
H259 H 0.51359 0.23363 0.30747 0.0
H260 H 0.48801 0.29303 0.23378 0.0
H261 H 0.48058 0.31172 0.15766 0.0
H262 H 0.54033 0.31122 0.12449 0.0
H263 H 0.54757 0.29341 0.20158 0.0
H264 H 0.54915 0.32803 0.31035 0.0
H265 H 0.55729 0.35356 0.35436 0.0
H266 H 0.5438 0.32164 0.48731 0.0
H267 H 0.53614 0.2959 0.4435 0.0
N268 N 0.53064 0.27866 0.3687 0.0
N269 N 0.51899 0.26959 0.29667 0.0
N270 N 0.53095 0.29901 0.29862 0.0
C271 C 0.52298 0.26562 0.34441 0.0
C272 C 0.52312 0.28632 0.2738 0.0
C273 C 0.53468 0.29535 0.34611 0.0
C274 C 0.51919 0.24735 0.37054 0.0
C275 C 0.52063 0.2448 0.42085 0.0
C276 C 0.51804 0.22758 0.44608 0.0
C277 C 0.51395 0.21235 0.42186 0.0
C278 C 0.51228 0.21485 0.37157 0.0
C279 C 0.51479 0.2322 0.34617 0.0
C280 C 0.51832 0.29174 0.22309 0.0
C281 C 0.49941 0.29638 0.20922 0.0
C282 C 0.49521 0.30715 0.16566 0.0
C283 C 0.50989 0.31337 0.13526 0.0
C284 C 0.52869 0.30715 0.14752 0.0
C285 C 0.53286 0.29669 0.19128 0.0
C286 C 0.54175 0.30997 0.37332 0.0
C287 C 0.54812 0.32634 0.34903 0.0
Co288 Co 0.00697 0.01642 0.7949 0.0
C289 C 0.97452 0.99802 0.82597 0.0
Co290 Co 0.99461 0.99947 0.74245 0.0
C291 C 0.01672 0.04873 0.84189 0.0
C292 C 0.02087 0.0232 0.88704 0.0
N293 N 0.01609 0.03016 0.84185 0.0
N294 N 0.02139 0.05354 0.88549 0.0
C295 C 0.02411 0.03746 0.91379 0.0
H296 H 0.01271 0.05859 0.81143 0.0
H297 H 0.02104 0.00871 0.90049 0.0
C298 C 0.02703 0.01789 0.7114 0.0
N299 N 0.98549 0.98566 0.69544 0.0
C300 C 0.98545 0.96706 0.69481 0.0
C301 C 0.97986 0.99266 0.65087 0.0
N302 N 0.9803 0.96229 0.65149 0.0
C303 C 0.97664 0.97843 0.62401 0.0
C304 C 0.98014 0.03595 0.73456 0.0
O305 O 0.0265 0.02412 0.7521 0.0
O306 O 0.01461 0.00692 0.70091 0.0
O307 O 0.97937 0.02068 0.71675 0.0
O308 O 0.99118 0.037 0.76982 0.0
O309 O 0.97469 0.99222 0.78474 0.0
H310 H 0.97902 0.00719 0.63777 0.0
H311 H 0.99012 0.95719 0.72465 0.0
O312 O 0.98731 0.00851 0.83694 0.0
O313 O 0.02272 0.99553 0.81942 0.0
O314 O 0.00993 0.97867 0.76904 0.0
C315 C 0.02148 0.98002 0.80313 0.0
H316 H 0.02763 0.03613 0.95161 0.0
H317 H 0.97241 0.97989 0.58664 0.0
Co318 Co 0.49413 0.01545 0.79509 0.0
C319 C 0.49338 0.97707 0.81088 0.0
Co320 Co 0.50649 1.00091 0.73626 0.0
C321 C 0.4641 0.02475 0.858 0.0
C322 C 0.48824 0.04045 0.86815 0.0
N323 N 0.48198 0.02723 0.84283 0.0
N324 N 0.45881 0.03598 0.89138 0.0
C325 C 0.47403 0.04582 0.89816 0.0
H326 H 0.45507 0.0149 0.84454 0.0
H327 H 0.50206 0.04608 0.86429 0.0
C328 C 0.50713 0.03932 0.72052 0.0
N329 N 0.51869 0.98911 0.6885 0.0
C330 C 0.53691 0.99088 0.67522 0.0
C331 C 0.51214 0.97666 0.66112 0.0
N332 N 0.54209 0.97996 0.64113 0.0
C333 C 0.52649 0.97106 0.63175 0.0
C334 C 0.46879 0.0098 0.72146 0.0
O335 O 0.49938 0.03873 0.76146 0.0
O336 O 0.51172 0.02424 0.70333 0.0
O337 O 0.48298 0.00194 0.70267 0.0
O338 O 0.47086 0.01622 0.7613 0.0
O339 O 0.50113 0.97755 0.76992 0.0
H340 H 0.49797 0.97172 0.66301 0.0
H341 H 0.54628 1.00005 0.69033 0.0
O342 O 0.48895 0.99219 0.82797 0.0
O343 O 0.51768 0.0145 0.82864 0.0
O344 O 0.52969 1.00009 0.77016 0.0
C345 C 0.53184 0.0066 0.80982 0.0
H346 H 0.47464 0.05655 0.92189 0.0
H347 H 0.5257 0.96084 0.60661 0.0
Co348 Co 0.51499 0.50901 0.77839 0.0
C349 C 0.49495 0.47811 0.8131 0.0
Co350 Co 0.48653 0.5076 0.74581 0.0
C351 C 0.5453 0.52044 0.83762 0.0
C352 C 0.55211 0.4947 0.80965 0.0
N353 N 0.53866 0.50865 0.80821 0.0
N354 N 0.5622 0.51422 0.85779 0.0
C355 C 0.56655 0.49809 0.83987 0.0
H356 H 0.53745 0.53284 0.84605 0.0
H357 H 0.55114 0.4824 0.79153 0.0
C358 C 0.50676 0.53846 0.71104 0.0
N359 N 0.46284 0.50791 0.7162 0.0
C360 C 0.456 0.49596 0.68754 0.0
C361 C 0.44924 0.52171 0.71552 0.0
N362 N 0.43872 0.5018 0.66903 0.0
C363 C 0.43445 0.51797 0.68686 0.0
C364 C 0.48636 0.52688 0.82593 0.0
O365 O 0.51965 0.53148 0.74041 0.0
O366 O 0.49149 0.53013 0.7079 0.0
O367 O 0.47592 0.52132 0.79409 0.0
O368 O 0.50406 0.52275 0.82604 0.0
O369 O 0.48192 0.485 0.78398 0.0
H370 H 0.45031 0.53411 0.73318 0.0
H371 H 0.46371 0.4834 0.67966 0.0
O372 O 0.51009 0.4866 0.81605 0.0
O373 O 0.5256 0.49521 0.73004 0.0
O374 O 0.4974 0.49391 0.69823 0.0
C375 C 0.51508 0.48967 0.69828 0.0
H376 H 0.57908 0.48912 0.84874 0.0
H377 H 0.42193 0.52696 0.67802 0.0
Co378 Co 0.00088 0.52232 0.77035 0.0
C379 C 0.02787 0.49556 0.80964 0.0
Co380 Co 0.99507 0.49374 0.75612 0.0
C381 C 0.00614 0.55167 0.83018 0.0
C382 C 0.00621 0.56156 0.75566 0.0
N383 N 0.00508 0.54601 0.78594 0.0
N384 N 0.00773 0.57014 0.82879 0.0
C385 C 0.00789 0.57637 0.78182 0.0
H386 H 0.00552 0.54241 0.86287 0.0
H387 H 0.00528 0.56219 0.71706 0.0
C388 C 0.96809 0.52047 0.71666 0.0
N389 N 0.99042 0.47014 0.73989 0.0
C390 C 0.00052 0.45982 0.71049 0.0
C391 C 0.97451 0.46104 0.74899 0.0
N392 N 0.99143 0.44481 0.70027 0.0
C393 C 0.9751 0.44552 0.72492 0.0
C394 C 0.9782 0.50324 0.83817 0.0
O395 O 0.9786 0.53167 0.73462 0.0
O396 O 0.9729 0.50329 0.72181 0.0
O397 O 0.98044 0.48988 0.81274 0.0
O398 O 0.986 0.51826 0.82569 0.0
O399 O 0.01754 0.48441 0.79082 0.0
H400 H 0.9627 0.46591 0.76956 0.0
H401 H 0.01402 0.4636 0.69554 0.0
O402 O 0.02287 0.51273 0.80558 0.0
O403 O 0.01594 0.52605 0.71459 0.0
O404 O 0.0095 0.49807 0.69999 0.0
C405 C 0.01775 0.51291 0.68833 0.0
H406 H 0.00841 0.59071 0.76728 0.0
H407 H 0.9638 0.43614 0.72353 0.0
H408 H 0.17377 0.06724 0.48023 0.0
H409 H 0.14692 0.05942 0.53115 0.0
H410 H 0.11631 0.04437 0.40936 0.0
H411 H 0.14306 0.05271 0.35733 0.0
H412 H 0.10719 0.075 0.51673 0.0
H413 H 0.11615 0.99854 0.51607 0.0
H414 H 0.13524 0.01357 0.50113 0.0
H415 H 0.11621 0.01254 0.45921 0.0
C416 C 0.16126 0.06254 0.46388 0.0
C417 C 0.16054 0.06081 0.41441 0.0
C418 C 0.14598 0.05795 0.49323 0.0
C419 C 0.12971 0.05128 0.47404 0.0
C420 C 0.12886 0.04936 0.42486 0.0
H421 H 0.02928 0.01014 0.61854 0.0
H422 H 0.05343 0.019 0.55986 0.0
C423 C 0.14417 0.05408 0.39525 0.0
C424 C 0.11366 0.04653 0.50593 0.0
H425 H 0.091 0.01002 0.56111 0.0
C426 C 0.10355 0.06081 0.52634 0.0
C427 C 0.10899 0.02802 0.51819 0.0
C428 C 0.11973 0.01219 0.49787 0.0
C429 C 0.08883 0.05708 0.55878 0.0
C430 C 0.08446 0.0385 0.57213 0.0
C431 C 0.09441 0.02424 0.55105 0.0
C432 C 0.06967 0.03352 0.60793 0.0
C433 C 0.07791 0.0731 0.57782 0.0
C434 C 0.07083 0.03858 0.65473 0.0
C435 C 0.05694 0.03364 0.68839 0.0
C436 C 0.04177 0.02332 0.67605 0.0
C437 C 0.04078 0.01809 0.6293 0.0
C438 C 0.05458 0.02314 0.59565 0.0
H439 H 0.07909 0.08614 0.55383 0.0
H440 H 0.06267 0.07036 0.58214 0.0
H441 H 0.08382 0.07525 0.61336 0.0
H442 H 0.0826 0.04619 0.66541 0.0
H443 H 0.0582 0.03776 0.72417 0.0
H444 H 0.49552 0.2045 0.50654 0.0
H445 H 0.49497 0.17474 0.55569 0.0
H446 H 0.52696 0.14857 0.44855 0.0
H447 H 0.5281 0.17845 0.39972 0.0
H448 H 0.48102 0.14131 0.53674 0.0
H449 H 0.55878 0.13399 0.57026 0.0
H450 H 0.54688 0.15548 0.54546 0.0
H451 H 0.55196 0.13729 0.50811 0.0
C452 C 0.50253 0.19243 0.49347 0.0
C453 C 0.51205 0.19391 0.4494 0.0
C454 C 0.5021 0.17541 0.52152 0.0
C455 C 0.51124 0.1595 0.50625 0.0
C456 C 0.52016 0.16075 0.46149 0.0
H457 H 0.52436 0.0453 0.63361 0.0
H458 H 0.5255 0.0745 0.5821 0.0
C459 C 0.52059 0.1778 0.43335 0.0
C460 C 0.51147 0.14169 0.53751 0.0
H461 H 0.54097 0.10866 0.59964 0.0
C462 C 0.49412 0.13419 0.55057 0.0
C463 C 0.52859 0.13244 0.5556 0.0
C464 C 0.54762 0.14025 0.54458 0.0
C465 C 0.49343 0.11756 0.58074 0.0
C466 C 0.51053 0.10835 0.59894 0.0
C467 C 0.52789 0.11578 0.58567 0.0
C468 C 0.51066 0.0909 0.63151 0.0
C469 C 0.47441 0.10981 0.59224 0.0
C470 C 0.50239 0.09054 0.67696 0.0
C471 C 0.50177 0.07387 0.70664 0.0
C472 C 0.50944 0.05726 0.69138 0.0
C473 C 0.51827 0.05781 0.64644 0.0
C474 C 0.51893 0.07449 0.6169 0.0
H475 H 0.46316 0.1161 0.56686 0.0
H476 H 0.4751 0.09457 0.59134 0.0
H477 H 0.47025 0.11274 0.62886 0.0
H478 H 0.49623 0.10312 0.68927 0.0
H479 H 0.49491 0.07396 0.74104 0.0
H480 H 0.32923 0.43763 0.35571 0.0
H481 H 0.35659 0.43862 0.40925 0.0
H482 H 0.35001 0.49819 0.39565 0.0
H483 H 0.32318 0.49734 0.34099 0.0
H484 H 0.38764 0.48543 0.39836 0.0
H485 H 0.34719 0.44966 0.54698 0.0
H486 H 0.35085 0.43731 0.4954 0.0
H487 H 0.33625 0.45845 0.49036 0.0
C488 C 0.33394 0.45095 0.36312 0.0
C489 C 0.32387 0.46741 0.34461 0.0
C490 C 0.34943 0.45149 0.39419 0.0
C491 C 0.35505 0.46846 0.40739 0.0
C492 C 0.34584 0.48492 0.38633 0.0
H493 H 0.40068 0.50537 0.65611 0.0
H494 H 0.38234 0.4947 0.59169 0.0
C495 C 0.33043 0.48441 0.35528 0.0
C496 C 0.36951 0.46931 0.44559 0.0
H497 H 0.37695 0.45972 0.56624 0.0
C498 C 0.38548 0.47959 0.43497 0.0
C499 C 0.36652 0.46184 0.49346 0.0
C500 C 0.34923 0.45131 0.50757 0.0
C501 C 0.3982 0.48313 0.4711 0.0
C502 C 0.39502 0.47593 0.51906 0.0
C503 C 0.37942 0.4651 0.5294 0.0
C504 C 0.40639 0.48118 0.55962 0.0
C505 C 0.41434 0.49539 0.45802 0.0
C506 C 0.42598 0.47675 0.56379 0.0
C507 C 0.43658 0.483 0.60058 0.0
C508 C 0.42774 0.49374 0.63389 0.0
C509 C 0.408 0.49745 0.63061 0.0
C510 C 0.39746 0.49124 0.59395 0.0
H511 H 0.41272 0.5026 0.42119 0.0
H512 H 0.41537 0.50594 0.48357 0.0
H513 H 0.42787 0.48683 0.45985 0.0
H514 H 0.43312 0.46872 0.5382 0.0
H515 H 0.45175 0.47993 0.60193 0.0
H516 H 0.98437 0.34007 0.3685 0.0
H517 H 0.98416 0.36423 0.42259 0.0
H518 H 0.04247 0.34875 0.46152 0.0
H519 H 0.04259 0.32426 0.4081 0.0
H520 H 0.02191 0.35077 0.53891 0.0
H521 H 0.0051 0.41432 0.41696 0.0
H522 H 0.98793 0.39741 0.41164 0.0
H523 H 0.01218 0.39255 0.39519 0.0
C524 C 0.99731 0.34214 0.38756 0.0
C525 C 0.01351 0.33028 0.38387 0.0
C526 C 0.99719 0.35601 0.41852 0.0
C527 C 0.01337 0.35854 0.44586 0.0
C528 C 0.0298 0.34713 0.44084 0.0
H529 H 0.0156 0.45016 0.62505 0.0
H530 H 0.02297 0.42912 0.5647 0.0
C531 C 0.02987 0.33314 0.41025 0.0
C532 C 0.01262 0.37187 0.48271 0.0
H533 H 0.9998 0.41654 0.50078 0.0
C534 C 0.01729 0.3652 0.53038 0.0
C535 C 0.00687 0.3908 0.47176 0.0
C536 C 0.00294 0.39924 0.42101 0.0
C537 C 0.01574 0.37671 0.56745 0.0
C538 C 0.00884 0.39534 0.55695 0.0
C539 C 0.00484 0.40221 0.50906 0.0
C540 C 0.00515 0.40776 0.59519 0.0
C541 C 0.02165 0.36877 0.61749 0.0
C542 C 0.99267 0.40282 0.6326 0.0
C543 C 0.98862 0.41472 0.66763 0.0
C544 C 0.99671 0.43202 0.66581 0.0
C545 C 0.00929 0.4369 0.62832 0.0
C546 C 0.01341 0.42492 0.59338 0.0
H547 H 0.03216 0.35686 0.61691 0.0
H548 H 0.0279 0.37934 0.63756 0.0
H549 H 0.00904 0.3637 0.6371 0.0
H550 H 0.98577 0.38986 0.63432 0.0
H551 H 0.979 0.41036 0.69598 0.0
H552 H 0.8545 0.92721 0.12864 0.0
H553 H 0.88073 0.93522 0.07524 0.0
H554 H 0.86454 0.99316 0.07623 0.0
H555 H 0.83792 0.98524 0.12848 0.0
H556 H 0.86908 0.98268 0.98483 0.0
H557 H 0.93126 0.95741 0.09958 0.0
H558 H 0.91401 0.94045 0.09506 0.0
H559 H 0.9078 0.96092 0.12346 0.0
C560 C 0.85663 0.94167 0.11788 0.0
C561 C 0.84408 0.95558 0.13281 0.0
C562 C 0.87174 0.94623 0.08767 0.0
C563 C 0.87469 0.9648 0.07204 0.0
C564 C 0.86256 0.97874 0.08804 0.0
H565 H 0.9706 0.00848 0.91603 0.0
H566 H 0.94621 1.00022 0.97449 0.0
C567 C 0.84745 0.97419 0.11828 0.0
C568 C 0.88958 0.96961 0.03643 0.0
H569 H 0.93725 0.96561 0.0169 0.0
C570 C 0.884 0.97901 0.99189 0.0
C571 C 0.90904 0.96491 0.04582 0.0
C572 C 0.91596 0.95552 0.09372 0.0
C573 C 0.89732 0.98369 0.95628 0.0
C574 C 0.91673 0.97856 0.96519 0.0
C575 C 0.92234 0.96934 0.00994 0.0
C576 C 0.93152 0.98328 0.92926 0.0
C577 C 0.89055 0.9944 0.90979 0.0
C578 C 0.93148 0.97634 0.88445 0.0
C579 C 0.94542 0.98108 0.8507 0.0
C580 C 0.9597 0.99277 0.86132 0.0
C581 C 0.95979 0.99949 0.90651 0.0
C582 C 0.94588 0.99476 0.9401 0.0
H583 H 0.87614 1.00106 0.91304 0.0
H584 H 0.90043 0.00526 0.89774 0.0
H585 H 0.88996 0.98481 0.88172 0.0
H586 H 0.92073 0.96718 0.87567 0.0
H587 H 0.94502 0.97557 0.81639 0.0
H588 H 0.51199 0.8239 0.08854 0.0
H589 H 0.51418 0.85312 0.03747 0.0
H590 H 0.45317 0.86019 0.03156 0.0
H591 H 0.45086 0.83102 0.08256 0.0
H592 H 0.4694 0.8652 0.94235 0.0
H593 H 0.5047 0.90621 0.06901 0.0
H594 H 0.51694 0.88443 0.06165 0.0
H595 H 0.49384 0.88484 0.08832 0.0
C596 C 0.49905 0.83186 0.07717 0.0
C597 C 0.48125 0.82513 0.08966 0.0
C598 C 0.50032 0.84856 0.0479 0.0
C599 C 0.48384 0.85893 0.03098 0.0
C600 C 0.46607 0.85241 0.04413 0.0
H601 H 0.47557 0.97177 0.89691 0.0
H602 H 0.47287 0.9428 0.94818 0.0
C603 C 0.46478 0.83572 0.07323 0.0
C604 C 0.48502 0.87617 0.99792 0.0
H605 H 0.50201 0.9194 0.98808 0.0
C606 C 0.4765 0.87708 0.95236 0.0
C607 C 0.49414 0.8917 0.01118 0.0
C608 C 0.50278 0.89189 0.06034 0.0
C609 C 0.47695 0.89304 0.91959 0.0
C610 C 0.48645 0.90841 0.93244 0.0
C611 C 0.49486 0.90755 0.97812 0.0
C612 C 0.48739 0.92575 0.89967 0.0
C613 C 0.4669 0.89345 0.87193 0.0
C614 C 0.49638 0.92581 0.85511 0.0
C615 C 0.49787 0.9424 0.82545 0.0
C616 C 0.49054 0.95924 0.84005 0.0
C617 C 0.48137 0.95906 0.88447 0.0
C618 C 0.47985 0.94251 0.91395 0.0
H619 H 0.45641 0.88261 0.87244 0.0
H620 H 0.45947 0.90715 0.86168 0.0
H621 H 0.47748 0.89089 0.84394 0.0
H622 H 0.50261 0.9131 0.84371 0.0
H623 H 0.50516 0.94207 0.79166 0.0
H624 H 0.66888 0.59683 0.13381 0.0
H625 H 0.64229 0.58995 0.08362 0.0
H626 H 0.64883 0.53244 0.13975 0.0
H627 H 0.67515 0.53931 0.19052 0.0
H628 H 0.6453 0.56826 0.01333 0.0
H629 H 0.59216 0.54028 0.14129 0.0
H630 H 0.61186 0.55272 0.15975 0.0
H631 H 0.61501 0.52851 0.15187 0.0
C632 C 0.66434 0.58279 0.13619 0.0
C633 C 0.67408 0.5686 0.16614 0.0
C634 C 0.64916 0.57888 0.1075 0.0
C635 C 0.6434 0.56071 0.10814 0.0
C636 C 0.65264 0.54665 0.13945 0.0
H637 H 0.58467 0.49571 0.92745 0.0
H638 H 0.6029 0.50888 0.98819 0.0
C639 C 0.66773 0.55058 0.16846 0.0
C640 C 0.62925 0.5561 0.07249 0.0
H641 H 0.58918 0.53273 0.06013 0.0
C642 C 0.63284 0.56079 0.02363 0.0
C643 C 0.61298 0.54633 0.08584 0.0
C644 C 0.60766 0.54184 0.13757 0.0
C645 C 0.62113 0.55527 0.98785 0.0
C646 C 0.60531 0.5449 0.00124 0.0
C647 C 0.60137 0.54066 0.05001 0.0
C648 C 0.59354 0.53721 0.96514 0.0
C649 C 0.62621 0.55985 0.93595 0.0
C650 C 0.58206 0.54879 0.93226 0.0
C651 C 0.57163 0.54129 0.8972 0.0
C652 C 0.57259 0.52208 0.89433 0.0
C653 C 0.58389 0.51057 0.92794 0.0
C654 C 0.59418 0.51805 0.96302 0.0
H655 H 0.64049 0.56546 0.93181 0.0
H656 H 0.62584 0.54736 0.91653 0.0
H657 H 0.61565 0.57037 0.91874 0.0
H658 H 0.58125 0.56363 0.9336 0.0
H659 H 0.56309 0.55051 0.87184 0.0
H660 H 0.97912 0.68291 0.15247 0.0
H661 H 0.97646 0.65858 0.09929 0.0
H662 H 0.03728 0.649 0.10239 0.0
H663 H 0.03997 0.67275 0.15674 0.0
H664 H 0.99073 0.6592 0.01021 0.0
H665 H 0.02061 0.59664 0.1199 0.0
H666 H 0.01358 0.61767 0.14548 0.0
H667 H 0.0363 0.61525 0.11727 0.0
C668 C 0.99188 0.67526 0.14296 0.0
C669 C 0.00977 0.67984 0.15886 0.0
C670 C 0.99035 0.66144 0.11222 0.0
C671 C 0.00665 0.6518 0.09707 0.0
C672 C 0.02445 0.65594 0.11418 0.0
H673 H 0.02329 0.60321 0.83201 0.0
H674 H 0.02209 0.62251 0.89813 0.0
C675 C 0.02599 0.66971 0.14489 0.0
C676 C 0.00527 0.63863 0.06025 0.0
H677 H 0.01917 0.59502 0.03491 0.0
C678 C 0.99677 0.6451 0.01586 0.0
C679 C 0.01293 0.62014 0.06762 0.0
C680 C 0.02119 0.61195 0.11533 0.0
C681 C 0.99631 0.63386 0.97822 0.0
C682 C 0.00494 0.61573 0.98469 0.0
C683 C 0.01281 0.609 0.02964 0.0
C684 C 0.00614 0.60368 0.94505 0.0
C685 C 0.98648 0.64151 0.93192 0.0
C686 C 0.99818 0.58634 0.9499 0.0
C687 C 0.99894 0.5752 0.91214 0.0
C688 C 0.00774 0.58115 0.86873 0.0
C689 C 0.01609 0.59834 0.8645 0.0
C690 C 0.01539 0.60942 0.90229 0.0
H691 H 0.97597 0.653 0.9374 0.0
H692 H 0.99717 0.64703 0.90618 0.0
H693 H 0.97909 0.6306 0.91567 0.0
H694 H 0.99105 0.58156 0.98262 0.0
H695 H 0.9922 0.56215 0.91659 0.0
H696 H 0.95472 0.16251 0.41639 0.0
H697 H 0.94987 0.13685 0.47717 0.0
H698 H 0.94365 0.17472 0.58475 0.0
H699 H 0.94775 0.20077 0.52366 0.0
H700 H 0.97373 0.14557 0.59931 0.0
H701 H 0.90417 0.11833 0.56032 0.0
H702 H 0.91872 0.12355 0.50881 0.0
H703 H 0.90986 0.14193 0.54197 0.0
C704 C 0.95163 0.16556 0.45254 0.0
C705 C 0.95171 0.18378 0.46504 0.0
C706 C 0.94888 0.15082 0.4873 0.0
C707 C 0.94622 0.15394 0.53525 0.0
C708 C 0.94555 0.17209 0.54776 0.0
H709 H 0.97172 0.06812 0.7736 0.0
H710 H 0.95957 0.0976 0.73155 0.0
C711 C 0.94809 0.18692 0.51288 0.0
C712 C 0.94697 0.13804 0.57266 0.0
H713 H 0.92602 0.09786 0.60857 0.0
C714 C 0.96313 0.13529 0.60221 0.0
C715 C 0.9332 0.12465 0.57567 0.0
C716 C 0.91541 0.12727 0.5453 0.0
C717 C 0.96649 0.11893 0.63283 0.0
C718 C 0.95293 0.10523 0.6351 0.0
C719 C 0.93634 0.10838 0.60694 0.0
C720 C 0.95667 0.08693 0.66298 0.0
C721 C 0.98513 0.11602 0.65996 0.0
C722 C 0.95773 0.0709 0.6392 0.0
C723 C 0.96422 0.05396 0.6634 0.0
C724 C 0.96995 0.05285 0.71163 0.0
C725 C 0.96765 0.06864 0.73621 0.0
C726 C 0.96082 0.08551 0.7122 0.0
H727 H 0.99568 0.12584 0.64539 0.0
H728 H 0.98274 0.11825 0.69799 0.0
H729 H 0.9913 0.10171 0.65874 0.0
H730 H 0.95448 0.07167 0.60127 0.0
H731 H 0.96581 0.04201 0.64355 0.0
H732 H 0.30554 0.05343 0.51735 0.0
H733 H 0.33165 0.04152 0.57118 0.0
H734 H 0.369 0.07869 0.49375 0.0
H735 H 0.34276 0.09121 0.44074 0.0
H736 H 0.36453 0.02389 0.5425 0.0
H737 H 0.38056 0.08538 0.6331 0.0
H738 H 0.35871 0.08393 0.60046 0.0
H739 H 0.38007 0.08963 0.56893 0.0
C740 C 0.31915 0.05949 0.51261 0.0
C741 C 0.32206 0.07332 0.47483 0.0
C742 C 0.3341 0.05252 0.54312 0.0
C743 C 0.3522 0.0593 0.53659 0.0
C744 C 0.35506 0.07347 0.49983 0.0
H745 H 0.46114 0.00661 0.62708 0.0
H746 H 0.43184 0.0171 0.58298 0.0
C747 C 0.3401 0.08048 0.46932 0.0
C748 C 0.36835 0.05065 0.56612 0.0
H749 H 0.4035 0.05997 0.64201 0.0
C750 C 0.37299 0.03172 0.56457 0.0
C751 C 0.37921 0.06089 0.59511 0.0
C752 C 0.37431 0.08104 0.59997 0.0
C753 C 0.38849 0.02281 0.59063 0.0
C754 C 0.39975 0.03321 0.61825 0.0
C755 C 0.39489 0.05206 0.62048 0.0
C756 C 0.41669 0.02492 0.64528 0.0
C757 C 0.39252 0.00233 0.58878 0.0
C758 C 0.4178 0.02574 0.69484 0.0
C759 C 0.4345 0.01992 0.71994 0.0
C760 C 0.45043 0.01318 0.6959 0.0
C761 C 0.44905 0.0116 0.64659 0.0
C762 C 0.43231 0.01755 0.62139 0.0
H763 H 0.37985 0.99557 0.57698 0.0
H764 H 0.40401 1.0002 0.56276 0.0
H765 H 0.39727 0.99541 0.62432 0.0
H766 H 0.40589 0.03137 0.7139 0.0
H767 H 0.4351 0.02125 0.75798 0.0
H768 H 0.53902 0.37555 0.39588 0.0
H769 H 0.53957 0.40204 0.44189 0.0
H770 H 0.56788 0.36785 0.55863 0.0
H771 H 0.56765 0.34116 0.51238 0.0
H772 H 0.53518 0.38658 0.58517 0.0
H773 H 0.58092 0.43494 0.48016 0.0
H774 H 0.56305 0.4263 0.44419 0.0
H775 H 0.58124 0.41058 0.47277 0.0
C776 C 0.5459 0.37373 0.43073 0.0
C777 C 0.55331 0.35621 0.45041 0.0
C778 C 0.54621 0.38893 0.457 0.0
C779 C 0.55401 0.38697 0.50338 0.0
C780 C 0.56191 0.36965 0.52272 0.0
H781 H 0.55178 0.47583 0.69217 0.0
H782 H 0.56341 0.45128 0.64454 0.0
C783 C 0.56165 0.35441 0.49639 0.0
C784 C 0.55182 0.40246 0.53337 0.0
H785 H 0.55948 0.4483 0.53532 0.0
C786 C 0.54077 0.39998 0.57471 0.0
C787 C 0.5592 0.41991 0.51976 0.0
C788 C 0.57193 0.42308 0.47704 0.0
C789 C 0.53612 0.41472 0.60151 0.0
C790 C 0.54258 0.43239 0.58632 0.0
C791 C 0.55439 0.43473 0.5464 0.0
C792 C 0.53632 0.44866 0.61054 0.0
C793 C 0.52397 0.41144 0.64534 0.0
C794 C 0.51743 0.4556 0.60582 0.0
C795 C 0.51076 0.4696 0.63269 0.0
C796 C 0.52289 0.47687 0.66489 0.0
C797 C 0.54208 0.4705 0.66775 0.0
C798 C 0.54876 0.45649 0.64064 0.0
H799 H 0.5234 0.39647 0.65774 0.0
H800 H 0.5294 0.41864 0.67509 0.0
H801 H 0.50929 0.4171 0.63669 0.0
H802 H 0.50769 0.44975 0.58241 0.0
H803 H 0.49592 0.47424 0.62945 0.0
H804 H 0.17067 0.47422 0.47899 0.0
H805 H 0.14405 0.484 0.52758 0.0
H806 H 0.10953 0.49693 0.40009 0.0
H807 H 0.13626 0.48792 0.35106 0.0
H808 H 0.10567 0.52376 0.46353 0.0
H809 H 0.098 0.45321 0.55545 0.0
H810 H 0.12124 0.46164 0.56085 0.0
H811 H 0.11243 0.4575 0.503 0.0
C812 C 0.15749 0.47934 0.46124 0.0
C813 C 0.15553 0.48012 0.41119 0.0
C814 C 0.14225 0.48476 0.48908 0.0
C815 C 0.12477 0.4909 0.46742 0.0
C816 C 0.12289 0.49212 0.41747 0.0
H817 H 0.0183 0.49155 0.61475 0.0
H818 H 0.04339 0.48846 0.55626 0.0
C819 C 0.13812 0.48678 0.38959 0.0
C820 C 0.10827 0.49567 0.49682 0.0
H821 H 0.07913 0.47752 0.58384 0.0
C822 C 0.0998 0.51368 0.48981 0.0
C823 C 0.10054 0.48238 0.5305 0.0
C824 C 0.10838 0.46255 0.5377 0.0
C825 C 0.08385 0.51881 0.51607 0.0
C826 C 0.07644 0.50563 0.55064 0.0
C827 C 0.08488 0.48762 0.55737 0.0
C828 C 0.05987 0.50996 0.58037 0.0
C829 C 0.07487 0.53812 0.50594 0.0
C830 C 0.06051 0.52351 0.61228 0.0
C831 C 0.04602 0.52548 0.64547 0.0
C832 C 0.0309 0.51367 0.64765 0.0
C833 C 0.02983 0.50079 0.61402 0.0
C834 C 0.04416 0.49899 0.58063 0.0
H835 H 0.07886 0.5447 0.47012 0.0
H836 H 0.05917 0.53807 0.50775 0.0
H837 H 0.07983 0.54677 0.53322 0.0
H838 H 0.07267 0.53188 0.6133 0.0
H839 H 0.04727 0.5354 0.67128 0.0
H840 H 0.07076 0.82906 0.07769 0.0
H841 H 0.07714 0.8555 0.01906 0.0
H842 H 0.02239 0.88113 0.04748 0.0
H843 H 0.01612 0.85511 0.10612 0.0
H844 H 0.05882 0.86922 0.93715 0.0
H845 H 0.05641 0.92273 0.06194 0.0
H846 H 0.05818 0.89835 0.08255 0.0
H847 H 0.03539 0.91004 0.06782 0.0
C848 C 0.06016 0.84041 0.07142 0.0
C849 C 0.04306 0.8402 0.0969 0.0
C850 C 0.06384 0.85549 0.03812 0.0
C851 C 0.05045 0.8705 0.02989 0.0
C852 C 0.03321 0.87002 0.05449 0.0
H853 H 0.01346 0.94413 0.79855 0.0
H854 H 0.0263 0.91721 0.84952 0.0
C855 C 0.02961 0.85511 0.08789 0.0
C856 C 0.05381 0.88644 0.99421 0.0
H857 H 0.04819 0.93343 0.97902 0.0
C858 C 0.05695 0.8833 0.94634 0.0
C859 C 0.05202 0.9048 0.00633 0.0
C860 C 0.05055 0.90916 0.05759 0.0
C861 C 0.05662 0.89806 0.90975 0.0
C862 C 0.05246 0.9163 0.92134 0.0
C863 C 0.05104 0.91946 0.96971 0.0
C864 C 0.04728 0.93196 0.88447 0.0
C865 C 0.06034 0.89384 0.85909 0.0
C866 C 0.05466 0.94936 0.88701 0.0
C867 C 0.04689 0.96495 0.85877 0.0
C868 C 0.03177 0.96336 0.82708 0.0
C869 C 0.02522 0.94578 0.82234 0.0
C870 C 0.03272 0.93028 0.85122 0.0
H871 H 0.07078 0.88187 0.85861 0.0
H872 H 0.04698 0.89 0.84281 0.0
H873 H 0.06578 0.90588 0.83673 0.0
H874 H 0.06584 0.95104 0.91245 0.0
H875 H 0.05227 0.97833 0.86302 0.0
H876 H 0.66139 0.95258 0.11314 0.0
H877 H 0.63487 0.96485 0.06158 0.0
H878 H 0.66472 0.948 0.93839 0.0
H879 H 0.69126 0.93497 0.99023 0.0
H880 H 0.63694 0.99303 0.98566 0.0
H881 H 0.6116 0.92829 0.92489 0.0
H882 H 0.62714 0.92823 0.97612 0.0
H883 H 0.63641 0.9318 0.91661 0.0
C884 C 0.66217 0.95097 0.07529 0.0
C885 C 0.67839 0.94258 0.05588 0.0
C886 C 0.64707 0.9582 0.04581 0.0
C887 C 0.64782 0.95723 0.99633 0.0
C888 C 0.66381 0.94866 0.97666 0.0
H889 H 0.56525 0.99453 0.77309 0.0
H890 H 0.59457 0.98454 0.81671 0.0
C891 C 0.67899 0.94135 0.00624 0.0
C892 C 0.63208 0.96593 0.96552 0.0
H893 H 0.59633 0.95641 0.89166 0.0
C894 C 0.62806 0.98506 0.96498 0.0
C895 C 0.62062 0.95545 0.93863 0.0
C896 C 0.62399 0.93478 0.93919 0.0
C897 C 0.61278 0.99402 0.93821 0.0
C898 C 0.60112 0.98349 0.91198 0.0
C899 C 0.60534 0.96442 0.91189 0.0
C900 C 0.58421 0.99181 0.88498 0.0
C901 C 0.60934 0.01467 0.93789 0.0
C902 C 0.5688 0.99958 0.90885 0.0
C903 C 0.55197 0.00541 0.88395 0.0
C904 C 0.55029 0.00333 0.83497 0.0
C905 C 0.56605 0.99624 0.81089 0.0
C906 C 0.58283 0.9905 0.83571 0.0
H907 H 0.62222 0.02128 0.94897 0.0
H908 H 0.60478 0.02116 0.90179 0.0
H909 H 0.5979 0.01754 0.96348 0.0
H910 H 0.5695 1.00042 0.94709 0.0
H911 H 0.54003 0.0107 0.90348 0.0
H912 H 0.46867 0.67302 0.00391 0.0
H913 H 0.46697 0.64596 0.96022 0.0
H914 H 0.4282 0.62226 0.0648 0.0
H915 H 0.42995 0.64937 0.10904 0.0
H916 H 0.45767 0.59861 0.05142 0.0
H917 H 0.42811 0.6271 0.87485 0.0
H918 H 0.44784 0.63969 0.89096 0.0
H919 H 0.42667 0.63989 0.92652 0.0
C920 C 0.45934 0.66232 0.01687 0.0
C921 C 0.44945 0.66332 0.05991 0.0
C922 C 0.45834 0.64685 0.99178 0.0
C923 C 0.44726 0.63219 0.0089 0.0
C924 C 0.43678 0.63346 0.05088 0.0
H925 H 0.44932 0.53933 0.83354 0.0
H926 H 0.43681 0.56286 0.88292 0.0
C927 C 0.43783 0.64891 0.07614 0.0
C928 C 0.4484 0.61479 0.98583 0.0
H929 H 0.44705 0.59822 0.87684 0.0
C930 C 0.45498 0.59844 0.01341 0.0
C931 C 0.44461 0.61446 0.93645 0.0
C932 C 0.43622 0.6312 0.90564 0.0
C933 C 0.45901 0.58207 0.99232 0.0
C934 C 0.45677 0.58219 0.94223 0.0
C935 C 0.44903 0.5982 0.91518 0.0
C936 C 0.46377 0.56645 0.91657 0.0
C937 C 0.46594 0.56491 0.02381 0.0
C938 C 0.48304 0.56056 0.91946 0.0
C939 C 0.49021 0.54708 0.89154 0.0
C940 C 0.47829 0.53939 0.85971 0.0
C941 C 0.45888 0.54495 0.85778 0.0
C942 C 0.4517 0.55842 0.88589 0.0
H943 H 0.46067 0.56516 0.06098 0.0
H944 H 0.46136 0.55218 0.00962 0.0
H945 H 0.48167 0.56426 0.02545 0.0
H946 H 0.49271 0.56689 0.942 0.0
H947 H 0.50525 0.5432 0.89369 0.0
H948 H 0.85836 0.535 0.16643 0.0
H949 H 0.88452 0.52345 0.11928 0.0
H950 H 0.85315 0.54173 0.98913 0.0
H951 H 0.82724 0.55413 0.03593 0.0
H952 H 0.8865 0.49755 0.05396 0.0
H953 H 0.90278 0.56719 0.96881 0.0
H954 H 0.88708 0.56394 0.01914 0.0
H955 H 0.87877 0.56134 0.95973 0.0
C956 C 0.8571 0.53678 0.12774 0.0
C957 C 0.84082 0.54576 0.10491 0.0
C958 C 0.87197 0.52997 0.10091 0.0
C959 C 0.87087 0.53197 0.05077 0.0
C960 C 0.8544 0.54034 0.02782 0.0
H961 H 0.9471 0.48268 0.85146 0.0
H962 H 0.92136 0.48747 0.90783 0.0
C963 C 0.83954 0.54727 0.05463 0.0
C964 C 0.88723 0.52582 0.02263 0.0
H965 H 0.91955 0.54159 0.94058 0.0
C966 C 0.89378 0.50714 0.02918 0.0
C967 C 0.89683 0.53846 0.99095 0.0
C968 C 0.89116 0.55888 0.98447 0.0
C969 C 0.90966 0.50073 0.00449 0.0
C970 C 0.91895 0.5133 0.97194 0.0
C971 C 0.91238 0.53197 0.96556 0.0
C972 C 0.93562 0.50771 0.94397 0.0
C973 C 0.91656 0.48069 0.0142 0.0
C974 C 0.95228 0.51722 0.9462 0.0
C975 C 0.96679 0.51473 0.91367 0.0
C976 C 0.96497 0.50256 0.87857 0.0
C977 C 0.94892 0.49199 0.87854 0.0
C978 C 0.93423 0.4947 0.91079 0.0
H979 H 0.91137 0.4743 0.04907 0.0
H980 H 0.91115 0.4729 0.98562 0.0
H981 H 0.93229 0.4792 0.01429 0.0
H982 H 0.95365 0.52728 0.9716 0.0
H983 H 0.97905 0.523 0.91456 0.0
H984 H 0.03671 0.20345 0.09007 0.0
H985 H 0.04399 0.1795 0.03727 0.0
H986 H 0.98458 0.17863 0.00192 0.0
H987 H 0.97742 0.20353 0.05124 0.0
H988 H 0.03474 0.14632 0.0502 0.0
H989 H 0.00486 0.17339 0.87381 0.0
H990 H 0.00768 0.18811 0.92082 0.0
H991 H 0.98682 0.17501 0.91795 0.0
C992 C 0.02526 0.19871 0.06962 0.0
C993 C 0.00642 0.2054 0.07551 0.0
C994 C 0.02944 0.18482 0.03971 0.0
C995 C 0.01489 0.1772 0.0151 0.0
C996 C 0.99619 0.18445 0.01933 0.0
H997 H 0.00937 0.06366 0.97041 0.0
H998 H 0.00952 0.09427 0.99792 0.0
C999 C 0.99206 0.19853 0.04849 0.0
C1000 C 0.01882 0.16032 0.98998 0.0
H1001 H 0.00705 0.13976 0.89074 0.0
C1002 C 0.02896 0.14508 0.01491 0.0
C1003 C 0.01171 0.15857 0.94345 0.0
C1004 C 0.00237 0.17476 0.91236 0.0
C1005 C 0.03127 0.12802 0.99597 0.0
C1006 C 0.02254 0.12578 0.95159 0.0
C1007 C 0.01337 0.14127 0.92528 0.0
C1008 C 0.02194 0.10729 0.93341 0.0
C1009 C 0.04306 0.11258 0.02401 0.0
C1010 C 0.02791 0.10448 0.88684 0.0
C1011 C 0.02746 0.08691 0.87061 0.0
C1012 C 0.02119 0.07185 0.90081 0.0
C1013 C 0.01477 0.07485 0.9468 0.0
C1014 C 0.01493 0.09237 0.96265 0.0
H1015 H 0.05407 0.11814 0.04601 0.0
H1016 H 0.03377 0.1044 0.04888 0.0
H1017 H 0.05017 0.10321 1.00007 0.0
H1018 H 0.03316 0.1158 0.86332 0.0
H1019 H 0.03242 0.08499 0.83496 0.0
H1020 H 0.2917 0.07974 0.0437 0.0
H1021 H 0.3199 0.07379 0.99598 0.0
H1022 H 0.33686 0.02686 0.09699 0.0
H1023 H 0.30859 0.03253 0.14415 0.0
H1024 H 0.35545 0.07573 0.02504 0.0
H1025 H 0.34698 0.00546 0.9732 0.0
H1026 H 0.3277 0.01891 0.99694 0.0
H1027 H 0.34502 0.00614 0.03663 0.0
C1028 C 0.30124 0.06791 0.05508 0.0
C1029 C 0.29786 0.05654 0.09753 0.0
C1030 C 0.31736 0.06454 0.02785 0.0
C1031 C 0.33046 0.04976 0.04257 0.0
C1032 C 0.32677 0.03804 0.08412 0.0
H1033 H 0.45082 0.04596 0.97968 0.0
H1034 H 0.41944 0.04937 0.01552 0.0
C1035 C 0.31057 0.0413 0.1111 0.0
C1036 C 0.34877 0.04769 0.01719 0.0
H1037 H 0.3783 0.01659 0.96671 0.0
C1038 C 0.36034 0.06284 0.01186 0.0
C1039 C 0.35514 0.03094 0.99956 0.0
C1040 C 0.34297 0.01451 0.0014 0.0
C1041 C 0.37823 0.06161 0.99042 0.0
C1042 C 0.38499 0.04459 0.97497 0.0
C1043 C 0.37324 0.02956 0.97918 0.0
C1044 C 0.40412 0.04216 0.95382 0.0
C1045 C 0.38955 0.07866 0.98396 0.0
C1046 C 0.40603 0.0364 0.90787 0.0
C1047 C 0.42395 0.03426 0.88758 0.0
C1048 C 0.44037 0.03783 0.91283 0.0
C1049 C 0.43844 0.04339 0.95907 0.0
C1050 C 0.4205 0.04539 0.97952 0.0
H1051 H 0.38031 0.0915 0.9843 0.0
H1052 H 0.39992 0.0782 0.01391 0.0
H1053 H 0.39747 0.07943 0.9498 0.0
H1054 H 0.39361 0.0338 0.88739 0.0
H1055 H 0.4249 0.03017 0.85169 0.0
H1056 H 0.53107 0.34278 0.10701 0.0
H1057 H 0.52424 0.36772 0.04358 0.0
H1058 H 0.47262 0.34307 0.00837 0.0
H1059 H 0.47956 0.31753 0.07159 0.0
H1060 H 0.51754 0.36527 0.94193 0.0
H1061 H 0.45633 0.39759 0.03352 0.0
H1062 H 0.47341 0.38142 0.06565 0.0
H1063 H 0.45632 0.37328 0.02667 0.0
C1064 C 0.51844 0.34232 0.08528 0.0
C1065 C 0.50597 0.32795 0.09433 0.0
C1066 C 0.51449 0.35674 0.04921 0.0
C1067 C 0.49787 0.35732 0.02153 0.0
C1068 C 0.48542 0.34298 0.02977 0.0
H1069 H 0.46539 0.45484 0.81509 0.0
H1070 H 0.46392 0.42421 0.86089 0.0
C1071 C 0.48942 0.32841 0.06591 0.0
C1072 C 0.49384 0.37323 0.98465 0.0
H1073 H 0.4673 0.41401 0.96341 0.0
C1074 C 0.50635 0.37579 0.94615 0.0
C1075 C 0.47918 0.38687 0.99013 0.0
C1076 C 0.46553 0.38483 0.03126 0.0
C1077 C 0.5051 0.39198 0.91411 0.0
C1078 C 0.49119 0.40614 0.9213 0.0
C1079 C 0.47799 0.40315 0.95814 0.0
C1080 C 0.49153 0.42475 0.89418 0.0
C1081 C 0.51899 0.39399 0.87347 0.0
C1082 C 0.5073 0.43533 0.8987 0.0
C1083 C 0.50816 0.45272 0.87294 0.0
C1084 C 0.4932 0.46003 0.84211 0.0
C1085 C 0.47716 0.4496 0.83844 0.0
C1086 C 0.4763 0.43211 0.8645 0.0
H1087 H 0.5246 0.38029 0.86407 0.0
H1088 H 0.51234 0.40188 0.84107 0.0
H1089 H 0.53118 0.4016 0.88451 0.0
H1090 H 0.51903 0.43008 0.92217 0.0
H1091 H 0.52069 0.46036 0.87694 0.0
H1092 H 0.18403 0.48131 0.03604 0.0
H1093 H 0.15651 0.48661 0.98246 0.0
H1094 H 0.15344 0.42777 0.97957 0.0
H1095 H 0.18101 0.42232 0.03356 0.0
H1096 H 0.14749 0.47719 0.89228 0.0
H1097 H 0.10166 0.44277 0.03132 0.0
H1098 H 0.12547 0.44869 0.04413 0.0
H1099 H 0.12157 0.42867 0.01387 0.0
C1100 C 0.17784 0.46948 0.02307 0.0
C1101 C 0.18467 0.45137 0.03937 0.0
C1102 C 0.162 0.47254 0.99266 0.0
C1103 C 0.15263 0.45758 0.97793 0.0
C1104 C 0.16014 0.43951 0.99151 0.0
H1105 H 0.04321 0.4599 0.82601 0.0
H1106 H 0.07389 0.44951 0.86387 0.0
C1107 C 0.17595 0.43643 0.02214 0.0
C1108 C 0.13448 0.46102 0.9506 0.0
H1109 H 0.08697 0.45449 0.95808 0.0
C1110 C 0.13428 0.47213 0.90653 0.0
C1111 C 0.11721 0.45444 0.96928 0.0
C1112 C 0.11635 0.44311 0.01741 0.0
C1113 C 0.1173 0.47697 0.88086 0.0
C1114 C 0.10001 0.47074 0.90008 0.0
C1115 C 0.10025 0.45922 0.94344 0.0
C1116 C 0.08144 0.47691 0.87712 0.0
C1117 C 0.11797 0.48875 0.8334 0.0
C1118 C 0.07537 0.49568 0.87299 0.0
C1119 C 0.05787 0.50164 0.85173 0.0
C1120 C 0.04601 0.48893 0.83419 0.0
C1121 C 0.052 0.47005 0.83907 0.0
C1122 C 0.06952 0.46409 0.8606 0.0
H1123 H 0.13236 0.48811 0.81764 0.0
H1124 H 0.10767 0.48436 0.80745 0.0
H1125 H 0.11419 0.50338 0.83882 0.0
H1126 H 0.08416 0.50576 0.88643 0.0
H1127 H 0.05371 0.51626 0.84876 0.0
H1128 H 0.95907 0.8066 0.47265 0.0
H1129 H 0.95543 0.83257 0.52138 0.0
H1130 H 0.01512 0.84133 0.50726 0.0
H1131 H 0.01889 0.81528 0.45952 0.0
H1132 H 0.00316 0.84658 0.59624 0.0
H1133 H 0.95415 0.88537 0.46127 0.0
H1134 H 0.94601 0.86351 0.48609 0.0
H1135 H 0.96706 0.86422 0.45023 0.0
C1136 C 0.97144 0.81395 0.4804 0.0
C1137 C 0.98925 0.80888 0.46201 0.0
C1138 C 0.96933 0.82886 0.50805 0.0
C1139 C 0.98492 0.83922 0.51713 0.0
C1140 C 0.00286 0.83362 0.50072 0.0
H1141 H 0.98826 0.95318 0.56252 0.0
H1142 H 0.98863 0.92261 0.53479 0.0
C1143 C 0.00501 0.81863 0.47354 0.0
C1144 C 0.98256 0.85645 0.54139 0.0
H1145 H 0.96059 0.89973 0.53027 0.0
C1146 C 0.99376 0.85817 0.58201 0.0
C1147 C 0.97047 0.87169 0.52249 0.0
C1148 C 0.95886 0.87125 0.47739 0.0
C1149 C 0.99346 0.87476 0.60368 0.0
C1150 C 0.9813 0.88995 0.58488 0.0
C1151 C 0.96982 0.88807 0.5449 0.0
C1152 C 0.9813 0.90842 0.60333 0.0
C1153 C 0.00678 0.8761 0.64518 0.0
C1154 C 0.97704 0.91077 0.65129 0.0
C1155 C 0.97691 0.92839 0.66742 0.0
C1156 C 0.98072 0.94402 0.63569 0.0
C1157 C 0.98492 0.94156 0.58777 0.0
C1158 C 0.98522 0.92402 0.57187 0.0
H1159 H 0.01825 0.86495 0.64775 0.0
H1160 H 0.01335 0.88968 0.64188 0.0
H1161 H 0.9987 0.87477 0.67905 0.0
H1162 H 0.97357 0.89905 0.67609 0.0
H1163 H 0.97345 0.92985 0.70439 0.0
H1164 H 0.69188 0.99587 0.40044 0.0
H1165 H 0.6651 0.99742 0.4543 0.0
H1166 H 0.68034 0.942 0.51813 0.0
H1167 H 0.70652 0.9399 0.4619 0.0
H1168 H 0.64472 0.94449 0.49487 0.0
H1169 H 0.65765 0.00495 0.59044 0.0
H1170 H 0.65828 0.0113 0.52711 0.0
H1171 H 0.67573 0.9945 0.55515 0.0
C1172 C 0.68971 0.98406 0.4263 0.0
C1173 C 0.70127 0.96767 0.42635 0.0
C1174 C 0.67448 0.98507 0.45766 0.0
C1175 C 0.67072 0.9699 0.49078 0.0
C1176 C 0.68295 0.95392 0.49299 0.0
H1177 H 0.57565 0.98099 0.68708 0.0
H1178 H 0.60735 0.97708 0.6536 0.0
C1179 C 0.69807 0.9528 0.46111 0.0
C1180 C 0.65292 0.97006 0.51904 0.0
H1181 H 0.62498 0.99666 0.58682 0.0
C1182 C 0.64057 0.95577 0.51562 0.0
C1183 C 0.64749 0.98459 0.54677 0.0
C1184 C 0.66061 0.99957 0.5555 0.0
C1185 C 0.62272 0.95596 0.5375 0.0
C1186 C 0.61672 0.97121 0.56212 0.0
C1187 C 0.62937 0.98512 0.56721 0.0
C1188 C 0.59738 0.9731 0.58259 0.0
C1189 C 0.61062 0.93968 0.53426 0.0
C1190 C 0.58114 0.97234 0.55387 0.0
C1191 C 0.56299 0.97432 0.57318 0.0
C1192 C 0.56073 0.9776 0.62126 0.0
C1193 C 0.57697 0.97866 0.64977 0.0
C1194 C 0.59509 0.97637 0.63069 0.0
H1195 H 0.61946 0.92693 0.52934 0.0
H1196 H 0.60193 0.93698 0.56685 0.0
H1197 H 0.60098 0.94261 0.50275 0.0
H1198 H 0.58246 0.97044 0.51629 0.0
H1199 H 0.55072 0.97372 0.55029 0.0
H1200 H 0.48411 0.69139 0.44972 0.0
H1201 H 0.48738 0.66635 0.51498 0.0
H1202 H 0.54487 0.65382 0.47266 0.0
H1203 H 0.54173 0.67894 0.40741 0.0
H1204 H 0.52236 0.62398 0.47532 0.0
H1205 H 0.51536 0.65682 0.64409 0.0
H1206 H 0.497 0.66439 0.60084 0.0
H1207 H 0.52115 0.66956 0.58775 0.0
C1208 C 0.49768 0.68376 0.45533 0.0
C1209 C 0.51263 0.68711 0.42318 0.0
C1210 C 0.49952 0.66941 0.49269 0.0
C1211 C 0.5164 0.65824 0.49885 0.0
C1212 C 0.53172 0.66226 0.46857 0.0
H1213 H 0.53545 0.56223 0.7151 0.0
H1214 H 0.53913 0.59153 0.66492 0.0
C1215 C 0.52989 0.67659 0.43126 0.0
C1216 C 0.51721 0.64104 0.53258 0.0
H1217 H 0.51105 0.62421 0.64951 0.0
C1218 C 0.52012 0.62406 0.51349 0.0
C1219 C 0.51437 0.64114 0.5824 0.0
C1220 C 0.51197 0.65896 0.60515 0.0
C1221 C 0.51961 0.60719 0.54256 0.0
C1222 C 0.51594 0.60727 0.59197 0.0
C1223 C 0.51371 0.62421 0.6115 0.0
C1224 C 0.51359 0.58984 0.62325 0.0
C1225 C 0.5228 0.58935 0.52014 0.0
C1226 C 0.49793 0.57934 0.61666 0.0
C1227 C 0.49575 0.56269 0.64521 0.0
C1228 C 0.50924 0.55615 0.68093 0.0
C1229 C 0.52487 0.5668 0.68773 0.0
C1230 C 0.52696 0.58357 0.65926 0.0
H1231 H 0.52963 0.59158 0.48457 0.0
H1232 H 0.5318 0.57915 0.54374 0.0
H1233 H 0.50894 0.58331 0.51515 0.0
H1234 H 0.48736 0.58404 0.58933 0.0
H1235 H 0.4835 0.5549 0.63909 0.0
H1236 H 0.81857 0.5972 0.49134 0.0
H1237 H 0.84611 0.58895 0.54423 0.0
H1238 H 0.83863 0.53113 0.53446 0.0
H1239 H 0.81149 0.5392 0.48064 0.0
H1240 H 0.85284 0.56497 0.63298 0.0
H1241 H 0.89199 0.54042 0.4785 0.0
H1242 H 0.87003 0.5544 0.47145 0.0
H1243 H 0.86978 0.53006 0.49059 0.0
C1244 C 0.82263 0.58271 0.50099 0.0
C1245 C 0.81292 0.56888 0.48127 0.0
C1246 C 0.83832 0.57803 0.53134 0.0
C1247 C 0.84462 0.55946 0.54241 0.0
C1248 C 0.83416 0.54557 0.52571 0.0
H1249 H 0.94281 0.49972 0.67586 0.0
H1250 H 0.91285 0.51015 0.63565 0.0
C1251 C 0.81848 0.55022 0.49538 0.0
C1252 C 0.8629 0.55462 0.56816 0.0
H1253 H 0.90729 0.53498 0.55416 0.0
C1254 C 0.86479 0.55847 0.61581 0.0
C1255 C 0.87851 0.54631 0.54543 0.0
C1256 C 0.87762 0.54268 0.49355 0.0
C1257 C 0.88173 0.55366 0.64188 0.0
C1258 C 0.89723 0.54507 0.61931 0.0
C1259 C 0.89538 0.5415 0.57144 0.0
C1260 C 0.91531 0.53903 0.64496 0.0
C1261 C 0.88272 0.55729 0.6937 0.0
C1262 C 0.92681 0.55185 0.66315 0.0
C1263 C 0.94405 0.54592 0.68624 0.0
C1264 C 0.95012 0.52707 0.6913 0.0
C1265 C 0.93861 0.51433 0.67263 0.0
C1266 C 0.92144 0.52026 0.64964 0.0
H1267 H 0.86841 0.56002 0.70858 0.0
H1268 H 0.88994 0.54537 0.71587 0.0
H1269 H 0.89102 0.56962 0.69667 0.0
H1270 H 0.92255 0.56645 0.65906 0.0
H1271 H 0.9526 0.55608 0.70011 0.0
loop_
_geom_bond_atom_site_label_1
_geom_bond_atom_site_label_2
_geom_bond_distance
_geom_bond_site_symmetry_2
_ccdc_geom_bond_type
C0 C1 1.384 . S
C0 H13 0.947 . S
C0 C35 1.382 . S
C1 C0 1.384 . S
C1 C2 1.378 . S
C2 C1 1.378 . S
C2 C3 1.378 . S
C2 H14 0.952 . S
C3 C2 1.378 . S
C3 H15 0.950 . S
C3 C34 1.383 . S
H4 C23 0.947 . S
H5 C24 0.946 . S
H6 C26 0.953 . S
H7 C27 0.945 . S
H8 C29 0.952 . S
H9 C30 0.949 . S
H10 C32 0.950 . S
H11 C33 0.948 . S
H12 C35 0.951 . S
H13 C0 0.947 . S
H14 C2 0.952 . S
H15 C3 0.950 . S
N16 C19 1.382 . S
N16 C21 1.363 . S
N17 C19 1.371 . S
N17 C20 1.372 . S
N18 C20 1.361 . S
N18 C21 1.377 . S
C19 N16 1.382 . S
C19 N17 1.371 . S
C19 C22 1.480 . S
C20 N17 1.372 . S
C20 N18 1.361 . S
C20 C28 1.457 . S
C21 N16 1.363 . S
C21 N18 1.377 . S
C21 C34 1.479 . S
C22 C19 1.480 . S
C22 C23 1.383 . S
C22 C27 1.385 . S
C23 H4 0.947 . S
C23 C22 1.383 . S
C23 C24 1.388 . S
C24 H5 0.946 . S
C24 C23 1.388 . S
C24 C25 1.384 . S
C25 C24 1.384 . S
C25 C26 1.377 . S
C26 H6 0.953 . S
C26 C25 1.377 . S
C26 C27 1.369 . S
C27 H7 0.945 . S
C27 C22 1.385 . S
C27 C26 1.369 . S
C28 C20 1.457 . S
C28 C29 1.372 . S
C28 C33 1.364 . S
C29 H8 0.952 . S
C29 C28 1.372 . S
C29 C30 1.389 1_554 S
C30 H9 0.949 . S
C30 C29 1.389 1_556 S
C30 C31 1.387 . S
C31 C30 1.387 . S
C31 C32 1.372 1_556 S
C32 H10 0.950 . S
C32 C31 1.372 1_554 S
C32 C33 1.379 . S
C33 H11 0.948 . S
C33 C28 1.364 . S
C33 C32 1.379 . S
C34 C3 1.383 . S
C34 C21 1.479 . S
C34 C35 1.398 . S
C35 C0 1.382 . S
C35 H12 0.951 . S
C35 C34 1.398 . S
C36 C37 1.384 1_655 S
C36 H49 0.947 . S
C36 C71 1.382 1_655 S
C37 C36 1.384 1_455 S
C37 C38 1.378 . S
C38 C37 1.378 . S
C38 C39 1.378 . S
C38 H50 0.952 . S
C39 C38 1.378 . S
C39 H51 0.950 . S
C39 C70 1.383 . S
H40 C59 0.947 . S
H41 C60 0.953 . S
H42 C62 0.953 . S
H43 C63 0.945 . S
H44 C65 0.948 1_655 S
H45 C66 0.957 . S
H46 C68 0.950 . S
H47 C69 0.948 . S
H48 C71 0.951 1_655 S
H49 C36 0.947 . S
H50 C38 0.952 . S
H51 C39 0.950 . S
N52 C55 1.382 . S
N52 C57 1.363 . S
N53 C55 1.371 . S
N53 C56 1.372 . S
N54 C56 1.361 . S
N54 C57 1.377 . S
C55 N52 1.382 . S
C55 N53 1.371 . S
C55 C58 1.480 . S
C56 N53 1.372 . S
C56 N54 1.361 . S
C56 C64 1.457 . S
C57 N52 1.363 . S
C57 N54 1.377 . S
C57 C70 1.479 . S
C58 C55 1.480 . S
C58 C59 1.383 . S
C58 C63 1.385 . S
C59 H40 0.947 . S
C59 C58 1.383 . S
C59 C60 1.384 1_455 S
C60 H41 0.953 . S
C60 C59 1.384 1_655 S
C60 C61 1.382 1_655 S
C61 C60 1.382 1_455 S
C61 C62 1.377 . S
C62 H42 0.953 . S
C62 C61 1.377 . S
C62 C63 1.369 . S
C63 H43 0.945 . S
C63 C58 1.385 . S
C63 C62 1.369 . S
C64 C56 1.457 . S
C64 C65 1.376 . S
C64 C69 1.364 . S
C65 H44 0.948 1_455 S
C65 C64 1.376 . S
C65 C66 1.389 1_454 S
C66 H45 0.957 . S
C66 C65 1.389 1_656 S
C66 C67 1.381 1_655 S
C67 C66 1.381 1_455 S
C67 C68 1.372 1_556 S
C68 H46 0.950 . S
C68 C67 1.372 1_554 S
C68 C69 1.379 . S
C69 H47 0.948 . S
C69 C64 1.364 . S
C69 C68 1.379 . S
C70 C39 1.383 . S
C70 C57 1.479 . S
C70 C71 1.398 . S
C71 C36 1.382 1_455 S
C71 H48 0.951 1_455 S
C71 C70 1.398 . S
C72 C73 1.384 . S
C72 H85 0.947 . S
C72 C107 1.382 . S
C73 C72 1.384 . S
C73 C74 1.378 . S
C74 C73 1.378 . S
C74 C75 1.378 . S
C74 H86 0.952 . S
C75 C74 1.378 . S
C75 H87 0.950 . S
C75 C106 1.383 . S
H76 C95 0.947 . S
H77 C96 0.946 . S
H78 C98 0.953 1_556 S
H79 C99 0.945 . S
H80 C101 0.952 . S
H81 C102 0.949 . S
H82 C104 0.950 . S
H83 C105 0.948 . S
H84 C107 0.951 . S
H85 C72 0.947 . S
H86 C74 0.952 . S
H87 C75 0.950 . S
N88 C91 1.382 . S
N88 C93 1.363 . S
N89 C91 1.371 . S
N89 C92 1.372 . S
N90 C92 1.361 . S
N90 C93 1.377 . S
C91 N88 1.382 . S
C91 N89 1.371 . S
C91 C94 1.480 . S
C92 N89 1.372 . S
C92 N90 1.361 . S
C92 C100 1.457 . S
C93 N88 1.363 . S
C93 N90 1.377 . S
C93 C106 1.479 . S
C94 C91 1.480 . S
C94 C95 1.383 . S
C94 C99 1.385 . S
C95 H76 0.947 . S
C95 C94 1.383 . S
C95 C96 1.388 . S
C96 H77 0.946 . S
C96 C95 1.388 . S
C96 C97 1.384 . S
C97 C96 1.384 . S
C97 C98 1.377 . S
C98 H78 0.953 1_554 S
C98 C97 1.377 . S
C98 C99 1.369 . S
C99 H79 0.945 . S
C99 C94 1.385 . S
C99 C98 1.369 . S
C100 C92 1.457 . S
C100 C101 1.372 1_554 S
C100 C105 1.364 . S
C101 H80 0.952 . S
C101 C100 1.372 1_556 S
C101 C102 1.389 . S
C102 H81 0.949 . S
C102 C101 1.389 . S
C102 C103 1.387 . S
C103 C102 1.387 . S
C103 C104 1.372 1_556 S
C104 H82 0.950 . S
C104 C103 1.372 1_554 S
C104 C105 1.379 . S
C105 H83 0.948 . S
C105 C100 1.364 . S
C105 C104 1.379 . S
C106 C75 1.383 . S
C106 C93 1.479 . S
C106 C107 1.398 . S
C107 C72 1.382 . S
C107 H84 0.951 . S
C107 C106 1.398 . S
C108 C109 1.384 1_554 S
C108 H121 0.947 . S
C108 C143 1.382 . S
C109 C108 1.384 1_556 S
C109 C110 1.378 . S
C110 C109 1.378 . S
C110 C111 1.378 1_556 S
C110 H122 0.952 . S
C111 C110 1.378 1_554 S
C111 H123 0.949 1_554 S
C111 C142 1.383 . S
H112 C131 0.947 . S
H113 C132 0.946 . S
H114 C134 0.953 . S
H115 C135 0.945 . S
H116 C137 0.952 . S
H117 C138 0.949 . S
H118 C140 0.950 . S
H119 C141 0.948 . S
H120 C143 0.951 . S
H121 C108 0.947 . S
H122 C110 0.952 . S
H123 C111 0.949 1_556 S
N124 C127 1.382 . S
N124 C129 1.363 . S
N125 C127 1.371 . S
N125 C128 1.372 . S
N126 C128 1.361 . S
N126 C129 1.377 . S
C127 N124 1.382 . S
C127 N125 1.371 . S
C127 C130 1.480 . S
C128 N125 1.372 . S
C128 N126 1.361 . S
C128 C136 1.457 . S
C129 N124 1.363 . S
C129 N126 1.377 . S
C129 C142 1.479 . S
C130 C127 1.480 . S
C130 C131 1.383 . S
C130 C135 1.385 . S
C131 H112 0.947 . S
C131 C130 1.383 . S
C131 C132 1.388 . S
C132 H113 0.946 . S
C132 C131 1.388 . S
C132 C133 1.384 . S
C133 C132 1.384 . S
C133 C134 1.377 . S
C134 H114 0.953 . S
C134 C133 1.377 . S
C134 C135 1.369 . S
C135 H115 0.945 . S
C135 C130 1.385 . S
C135 C134 1.369 . S
C136 C128 1.457 . S
C136 C137 1.372 . S
C136 C141 1.364 . S
C137 H116 0.952 . S
C137 C136 1.372 . S
C137 C138 1.389 . S
C138 H117 0.949 . S
C138 C137 1.389 . S
C138 C139 1.387 . S
C139 C138 1.387 . S
C139 C140 1.372 . S
C140 H118 0.950 . S
C140 C139 1.372 . S
C140 C141 1.379 . S
C141 H119 0.948 . S
C141 C136 1.364 . S
C141 C140 1.379 . S
C142 C111 1.383 . S
C142 C129 1.479 . S
C142 C143 1.398 . S
C143 C108 1.382 . S
C143 H120 0.951 . S
C143 C142 1.398 . S
C144 C145 1.384 . S
C144 H157 0.947 . S
C144 C179 1.382 . S
C145 C144 1.384 . S
C145 C146 1.378 . S
C146 C145 1.378 . S
C146 C147 1.378 . S
C146 H158 0.952 . S
C147 C146 1.378 . S
C147 H159 0.950 . S
C147 C178 1.383 . S
H148 C167 0.947 . S
H149 C168 0.946 . S
H150 C170 0.953 . S
H151 C171 0.945 . S
H152 C173 0.952 . S
H153 C174 0.949 . S
H154 C176 0.950 . S
H155 C177 0.948 . S
H156 C179 0.951 . S
H157 C144 0.947 . S
H158 C146 0.952 . S
H159 C147 0.950 . S
N160 C163 1.382 . S
N160 C165 1.363 . S
N161 C163 1.371 . S
N161 C164 1.372 . S
N162 C164 1.361 . S
N162 C165 1.377 . S
C163 N160 1.382 . S
C163 N161 1.371 . S
C163 C166 1.480 . S
C164 N161 1.372 . S
C164 N162 1.361 . S
C164 C172 1.457 . S
C165 N160 1.363 . S
C165 N162 1.377 . S
C165 C178 1.479 . S
C166 C163 1.480 . S
C166 C167 1.383 . S
C166 C171 1.385 . S
C167 H148 0.947 . S
C167 C166 1.383 . S
C167 C168 1.388 . S
C168 H149 0.946 . S
C168 C167 1.388 . S
C168 C169 1.384 . S
C169 C168 1.384 . S
C169 C170 1.377 . S
C170 H150 0.953 . S
C170 C169 1.377 . S
C170 C171 1.369 . S
C171 H151 0.945 . S
C171 C166 1.385 . S
C171 C170 1.369 . S
C172 C164 1.457 . S
C172 C173 1.372 . S
C172 C177 1.364 . S
C173 H152 0.952 . S
C173 C172 1.372 . S
C173 C174 1.389 . S
C174 H153 0.949 . S
C174 C173 1.389 . S
C174 C175 1.387 . S
C175 C174 1.387 . S
C175 C176 1.372 . S
C176 H154 0.950 . S
C176 C175 1.372 . S
C176 C177 1.379 . S
C177 H155 0.948 . S
C177 C172 1.364 . S
C177 C176 1.379 . S
C178 C147 1.383 . S
C178 C165 1.479 . S
C178 C179 1.398 . S
C179 C144 1.382 . S
C179 H156 0.951 . S
C179 C178 1.398 . S
C180 C181 1.383 . S
C180 H193 0.948 1_455 S
C180 C215 1.382 . S
C181 C180 1.383 . S
C181 C182 1.378 . S
C182 C181 1.378 . S
C182 C183 1.378 . S
C182 H194 0.952 . S
C183 C182 1.378 . S
C183 H195 0.950 . S
C183 C214 1.383 . S
H184 C203 0.947 . S
H185 C204 0.948 . S
H186 C206 0.953 . S
H187 C207 0.945 . S
H188 C209 0.949 1_655 S
H189 C210 0.953 . S
H190 C212 0.950 . S
H191 C213 0.948 . S
H192 C215 0.950 1_655 S
H193 C180 0.948 1_655 S
H194 C182 0.952 . S
H195 C183 0.950 . S
N196 C199 1.382 . S
N196 C201 1.363 . S
N197 C199 1.371 . S
N197 C200 1.372 . S
N198 C200 1.361 . S
N198 C201 1.377 . S
C199 N196 1.382 . S
C199 N197 1.371 . S
C199 C202 1.480 . S
C200 N197 1.372 . S
C200 N198 1.361 . S
C200 C208 1.457 . S
C201 N196 1.363 . S
C201 N198 1.377 . S
C201 C214 1.479 . S
C202 C199 1.480 . S
C202 C203 1.383 . S
C202 C207 1.385 . S
C203 H184 0.947 . S
C203 C202 1.383 . S
C203 C204 1.388 1_455 S
C204 H185 0.948 . S
C204 C203 1.388 1_655 S
C204 C205 1.382 1_655 S
C205 C204 1.382 1_455 S
C205 C206 1.377 . S
C206 H186 0.953 . S
C206 C205 1.377 . S
C206 C207 1.369 . S
C207 H187 0.945 . S
C207 C202 1.385 . S
C207 C206 1.369 . S
C208 C200 1.457 . S
C208 C209 1.379 . S
C208 C213 1.364 . S
C209 H188 0.949 1_455 S
C209 C208 1.379 . S
C209 C210 1.384 1_455 S
C210 H189 0.953 . S
C210 C209 1.384 1_655 S
C210 C211 1.385 1_655 S
C211 C210 1.385 1_455 S
C211 C212 1.372 . S
C212 H190 0.950 . S
C212 C211 1.372 . S
C212 C213 1.379 . S
C213 H191 0.948 . S
C213 C208 1.364 . S
C213 C212 1.379 . S
C214 C183 1.383 . S
C214 C201 1.479 . S
C214 C215 1.400 . S
C215 C180 1.382 . S
C215 H192 0.950 1_455 S
C215 C214 1.400 . S
C216 C217 1.384 . S
C216 H229 0.947 . S
C216 C251 1.382 . S
C217 C216 1.384 . S
C217 C218 1.378 . S
C218 C217 1.378 . S
C218 C219 1.378 . S
C218 H230 0.952 . S
C219 C218 1.378 . S
C219 H231 0.950 . S
C219 C250 1.383 . S
H220 C239 0.947 . S
H221 C240 0.946 . S
H222 C242 0.953 . S
H223 C243 0.945 . S
H224 C245 0.952 . S
H225 C246 0.949 . S
H226 C248 0.950 . S
H227 C249 0.948 . S
H228 C251 0.951 . S
H229 C216 0.947 . S
H230 C218 0.952 . S
H231 C219 0.950 . S
N232 C235 1.382 . S
N232 C237 1.363 . S
N233 C235 1.371 . S
N233 C236 1.372 . S
N234 C236 1.361 . S
N234 C237 1.377 . S
C235 N232 1.382 . S
C235 N233 1.371 . S
C235 C238 1.480 . S
C236 N233 1.372 . S
C236 N234 1.361 . S
C236 C244 1.457 . S
C237 N232 1.363 . S
C237 N234 1.377 . S
C237 C250 1.479 . S
C238 C235 1.480 . S
C238 C239 1.383 . S
C238 C243 1.385 . S
C239 H220 0.947 . S
C239 C238 1.383 . S
C239 C240 1.388 . S
C240 H221 0.946 . S
C240 C239 1.388 . S
C240 C241 1.384 . S
C241 C240 1.384 . S
C241 C242 1.377 . S
C242 H222 0.953 . S
C242 C241 1.377 . S
C242 C243 1.369 . S
C243 H223 0.945 . S
C243 C238 1.385 . S
C243 C242 1.369 . S
C244 C236 1.457 . S
C244 C245 1.372 . S
C244 C249 1.364 . S
C245 H224 0.952 . S
C245 C244 1.372 . S
C245 C246 1.389 . S
C246 H225 0.949 . S
C246 C245 1.389 . S
C246 C247 1.387 . S
C247 C246 1.387 . S
C247 C248 1.372 . S
C248 H226 0.950 . S
C248 C247 1.372 . S
C248 C249 1.379 . S
C249 H227 0.948 . S
C249 C244 1.364 . S
C249 C248 1.379 . S
C250 C219 1.383 . S
C250 C237 1.479 . S
C250 C251 1.398 . S
C251 C216 1.382 . S
C251 H228 0.951 . S
C251 C250 1.398 . S
C252 C253 1.384 . S
C252 H265 0.947 . S
C252 C287 1.382 . S
C253 C252 1.384 . S
C253 C254 1.378 . S
C254 C253 1.378 . S
C254 C255 1.378 . S
C254 H266 0.952 . S
C255 C254 1.378 . S
C255 H267 0.950 . S
C255 C286 1.383 . S
H256 C275 0.947 . S
H257 C276 0.946 . S
H258 C278 0.953 . S
H259 C279 0.945 . S
H260 C281 0.952 . S
H261 C282 0.949 . S
H262 C284 0.950 . S
H263 C285 0.948 . S
H264 C287 0.951 . S
H265 C252 0.947 . S
H266 C254 0.952 . S
H267 C255 0.950 . S
N268 C271 1.382 . S
N268 C273 1.363 . S
N269 C271 1.371 . S
N269 C272 1.372 . S
N270 C272 1.361 . S
N270 C273 1.377 . S
C271 N268 1.382 . S
C271 N269 1.371 . S
C271 C274 1.480 . S
C272 N269 1.372 . S
C272 N270 1.361 . S
C272 C280 1.457 . S
C273 N268 1.363 . S
C273 N270 1.377 . S
C273 C286 1.479 . S
C274 C271 1.480 . S
C274 C275 1.383 . S
C274 C279 1.385 . S
C275 H256 0.947 . S
C275 C274 1.383 . S
C275 C276 1.388 . S
C276 H257 0.946 . S
C276 C275 1.388 . S
C276 C277 1.384 . S
C277 C276 1.384 . S
C277 C278 1.377 . S
C278 H258 0.953 . S
C278 C277 1.377 . S
C278 C279 1.369 . S
C279 H259 0.945 . S
C279 C274 1.385 . S
C279 C278 1.369 . S
C280 C272 1.457 . S
C280 C281 1.372 . S
C280 C285 1.364 . S
C281 H260 0.952 . S
C281 C280 1.372 . S
C281 C282 1.389 . S
C282 H261 0.949 . S
C282 C281 1.389 . S
C282 C283 1.387 . S
C283 C282 1.387 . S
C283 C284 1.372 . S
C284 H262 0.950 . S
C284 C283 1.372 . S
C284 C285 1.379 . S
C285 H263 0.948 . S
C285 C280 1.364 . S
C285 C284 1.379 . S
C286 C255 1.383 . S
C286 C273 1.479 . S
C286 C287 1.398 . S
C287 C252 1.382 . S
C287 H264 0.951 . S
C287 C286 1.398 . S
Co288 N293 2.057 . S
Co288 O305 2.021 . S
Co288 O308 2.062 1_455 S
Co288 O312 2.117 1_455 S
Co288 O313 2.020 1_545 S
C289 O309 1.259 1_545 S
C289 O312 1.258 . S
Co290 N299 2.057 . S
Co290 O306 2.117 1_665 S
Co290 O307 2.020 1_565 S
Co290 O309 2.021 . S
Co290 O314 2.062 1_655 S
C291 N293 1.316 . S
C291 N294 1.347 . S
C291 H296 0.931 . S
C292 N293 1.375 1_655 S
C292 C295 1.350 . S
C292 H297 0.930 . S
N293 Co288 2.057 . S
N293 C291 1.316 . S
N293 C292 1.375 1_455 S
N294 C291 1.347 . S
N294 C295 1.373 1_455 S
C295 C292 1.350 . S
C295 N294 1.373 1_655 S
C295 H316 0.931 . S
H296 C291 0.931 . S
H297 C292 0.930 . S
C298 O305 1.259 . S
C298 O306 1.258 . S
N299 Co290 2.057 . S
N299 C300 1.316 . S
N299 C301 1.375 1_655 S
C300 N299 1.316 . S
C300 N302 1.347 . S
C300 H311 0.931 . S
C301 N299 1.375 1_455 S
C301 C303 1.350 . S
C301 H310 0.930 . S
N302 C300 1.347 . S
N302 C303 1.373 1_655 S
C303 C301 1.350 . S
C303 N302 1.373 1_455 S
C303 H317 0.931 . S
C304 O307 1.256 . S
C304 O308 1.255 . S
O305 Co288 2.021 . S
O305 C298 1.259 . S
O306 Co290 2.117 1_445 S
O306 C298 1.258 . S
O307 Co290 2.020 1_545 S
O307 C304 1.256 . S
O308 Co288 2.062 1_655 S
O308 C304 1.255 . S
O309 C289 1.259 1_565 S
O309 Co290 2.021 . S
H310 C301 0.930 . S
H311 C300 0.931 . S
O312 Co288 2.117 1_655 S
O312 C289 1.258 . S
O313 Co288 2.020 1_565 S
O313 C315 1.256 . S
O314 Co290 2.062 1_455 S
O314 C315 1.255 . S
C315 O313 1.256 . S
C315 O314 1.255 . S
H316 C295 0.931 . S
H317 C303 0.931 . S
Co318 N323 2.057 . S
Co318 O335 2.021 . S
Co318 O338 2.062 . S
Co318 O342 2.117 1_545 S
Co318 O343 2.020 . S
C319 O339 1.259 . S
C319 O342 1.258 . S
Co320 N329 2.054 1_545 S
Co320 O336 2.138 . S
Co320 O337 2.022 . S
Co320 O339 2.002 1_545 S
Co320 O344 2.062 1_545 S
C321 N323 1.316 . S
C321 N324 1.347 . S
C321 H326 0.931 . S
C322 N323 1.375 . S
C322 C325 1.350 . S
C322 H327 0.930 1_545 S
N323 Co318 2.057 . S
N323 C321 1.316 . S
N323 C322 1.375 . S
N324 C321 1.347 . S
N324 C325 1.373 . S
C325 C322 1.350 . S
C325 N324 1.373 . S
C325 H346 0.931 . S
H326 C321 0.931 . S
H327 C322 0.930 1_565 S
C328 O335 1.259 . S
C328 O336 1.258 . S
N329 Co320 2.054 1_565 S
N329 C330 1.316 . S
N329 C331 1.375 1_565 S
C330 N329 1.316 . S
C330 N332 1.347 . S
C330 H341 0.931 . S
C331 N329 1.375 1_545 S
C331 C333 1.350 . S
C331 H340 0.930 . S
N332 C330 1.347 . S
N332 C333 1.373 1_565 S
C333 C331 1.350 . S
C333 N332 1.373 1_545 S
C333 H347 0.931 . S
C334 O337 1.256 . S
C334 O338 1.255 . S
O335 Co318 2.021 . S
O335 C328 1.259 . S
O336 Co320 2.138 . S
O336 C328 1.258 . S
O337 Co320 2.022 . S
O337 C334 1.256 . S
O338 Co318 2.062 . S
O338 C334 1.255 . S
O339 C319 1.259 . S
O339 Co320 2.002 1_565 S
H340 C331 0.930 . S
H341 C330 0.931 . S
O342 Co318 2.117 1_565 S
O342 C319 1.258 . S
O343 Co318 2.020 . S
O343 C345 1.256 . S
O344 Co320 2.062 1_565 S
O344 C345 1.255 1_565 S
C345 O343 1.256 . S
C345 O344 1.255 1_545 S
H346 C325 0.931 . S
H347 C333 0.931 . S
Co348 N353 2.057 . S
Co348 O365 2.021 . S
Co348 O368 2.062 . S
Co348 O372 2.117 . S
Co348 O373 2.020 . S
C349 O369 1.259 . S
C349 O372 1.258 . S
Co350 N359 2.057 . S
Co350 O366 2.117 . S
Co350 O367 2.020 . S
Co350 O369 2.021 . S
Co350 O374 2.062 . S
C351 N353 1.316 . S
C351 N354 1.347 . S
C351 H356 0.931 . S
C352 N353 1.375 . S
C352 C355 1.350 . S
C352 H357 0.930 . S
N353 Co348 2.057 . S
N353 C351 1.316 . S
N353 C352 1.375 . S
N354 C351 1.347 . S
N354 C355 1.373 . S
C355 C352 1.350 . S
C355 N354 1.373 . S
C355 H376 0.931 . S
H356 C351 0.931 . S
H357 C352 0.930 . S
C358 O365 1.259 . S
C358 O366 1.258 . S
N359 Co350 2.057 . S
N359 C360 1.316 . S
N359 C361 1.375 . S
C360 N359 1.316 . S
C360 N362 1.347 . S
C360 H371 0.931 . S
C361 N359 1.375 . S
C361 C363 1.350 . S
C361 H370 0.930 . S
N362 C360 1.347 . S
N362 C363 1.373 . S
C363 C361 1.350 . S
C363 N362 1.373 . S
C363 H377 0.931 . S
C364 O367 1.256 . S
C364 O368 1.255 . S
O365 Co348 2.021 . S
O365 C358 1.259 . S
O366 Co350 2.117 . S
O366 C358 1.258 . S
O367 Co350 2.020 . S
O367 C364 1.256 . S
O368 Co348 2.062 . S
O368 C364 1.255 . S
O369 C349 1.259 . S
O369 Co350 2.021 . S
H370 C361 0.930 . S
H371 C360 0.931 . S
O372 Co348 2.117 . S
O372 C349 1.258 . S
O373 Co348 2.020 . S
O373 C375 1.256 . S
O374 Co350 2.062 . S
O374 C375 1.255 . S
C375 O373 1.256 . S
C375 O374 1.255 . S
H376 C355 0.931 . S
H377 C363 0.931 . S
Co378 N383 2.057 . S
Co378 O395 2.021 1_455 S
Co378 O398 2.062 1_455 S
Co378 O402 2.117 . S
Co378 O403 2.020 . S
C379 O399 1.259 . S
C379 O402 1.258 . S
Co380 N389 2.057 . S
Co380 O396 2.117 . S
Co380 O397 2.020 . S
Co380 O399 2.021 1_655 S
Co380 O404 2.062 1_655 S
C381 N383 1.316 . S
C381 N384 1.347 . S
C381 H386 0.931 1_455 S
C382 N383 1.375 . S
C382 C385 1.350 . S
C382 H387 0.930 . S
N383 Co378 2.057 . S
N383 C381 1.316 . S
N383 C382 1.375 . S
N384 C381 1.347 . S
N384 C385 1.373 . S
C385 C382 1.350 . S
C385 N384 1.373 . S
C385 H406 0.931 . S
H386 C381 0.931 1_655 S
H387 C382 0.930 . S
C388 O395 1.259 . S
C388 O396 1.258 . S
N389 Co380 2.057 . S
N389 C390 1.316 . S
N389 C391 1.375 . S
C390 N389 1.316 . S
C390 N392 1.347 . S
C390 H401 0.931 1_655 S
C391 N389 1.375 . S
C391 C393 1.350 . S
C391 H400 0.930 . S
N392 C390 1.347 . S
N392 C393 1.373 . S
C393 C391 1.350 . S
C393 N392 1.373 . S
C393 H407 0.931 . S
C394 O397 1.256 . S
C394 O398 1.255 . S
O395 Co378 2.021 1_655 S
O395 C388 1.259 . S
O396 Co380 2.117 . S
O396 C388 1.258 . S
O397 Co380 2.020 . S
O397 C394 1.256 . S
O398 Co378 2.062 1_655 S
O398 C394 1.255 . S
O399 C379 1.259 . S
O399 Co380 2.021 1_455 S
H400 C391 0.930 . S
H401 C390 0.931 1_455 S
O402 Co378 2.117 . S
O402 C379 1.258 . S
O403 Co378 2.020 . S
O403 C405 1.256 . S
O404 Co380 2.062 1_455 S
O404 C405 1.255 . S
C405 O403 1.256 . S
C405 O404 1.255 . S
H406 C385 0.931 . S
H407 C393 0.931 . S
H408 C416 0.929 . S
H409 C418 0.930 . S
H410 C420 0.930 . S
H411 C423 0.929 . S
H412 C426 0.930 . S
H413 C428 0.960 . S
H414 C428 0.960 . S
H415 C428 0.960 . S
C416 H408 0.929 . S
C416 C417 1.377 . S
C416 C418 1.384 . S
C417 C416 1.377 . S
C417 C423 1.390 . S
C418 H409 0.930 . S
C418 C416 1.384 . S
C418 C419 1.372 . S
C419 C418 1.372 . S
C419 C420 1.400 . S
C419 C424 1.490 . S
C420 H410 0.930 . S
C420 C419 1.400 . S
C420 C423 1.386 . S
H421 C437 0.930 . S
H422 C438 0.931 . S
C423 H411 0.929 . S
C423 C417 1.390 . S
C423 C420 1.386 . S
C424 C419 1.490 . S
C424 C426 1.395 . S
C424 C427 1.403 . S
H425 C431 0.930 . S
C426 H412 0.930 . S
C426 C424 1.395 . S
C426 C429 1.403 . S
C427 C424 1.403 . S
C427 C428 1.524 . S
C427 C431 1.400 . S
C428 H413 0.960 . S
C428 H414 0.960 . S
C428 H415 0.960 . S
C428 C427 1.524 . S
C429 C426 1.403 . S
C429 C430 1.392 . S
C429 C433 1.495 . S
C430 C429 1.392 . S
C430 C431 1.385 . S
C430 C432 1.478 . S
C431 H425 0.930 . S
C431 C427 1.400 . S
C431 C430 1.385 . S
C432 C430 1.478 . S
C432 C434 1.381 . S
C432 C438 1.383 . S
C433 C429 1.495 . S
C433 H439 0.959 . S
C433 H440 0.961 . S
C433 H441 0.960 . S
C434 C432 1.381 . S
C434 C435 1.394 . S
C434 H442 0.930 . S
C435 C434 1.394 . S
C435 C436 1.383 . S
C435 H443 0.929 . S
C436 C435 1.383 . S
C436 C437 1.377 . S
C437 H421 0.930 . S
C437 C436 1.377 . S
C437 C438 1.379 . S
C438 H422 0.931 . S
C438 C432 1.383 . S
C438 C437 1.379 . S
H439 C433 0.959 . S
H440 C433 0.961 . S
H441 C433 0.960 . S
H442 C434 0.930 . S
H443 C435 0.929 . S
H444 C452 0.929 . S
H445 C454 0.930 . S
H446 C456 0.930 . S
H447 C459 0.929 . S
H448 C462 0.930 . S
H449 C464 0.960 . S
H450 C464 0.960 . S
H451 C464 0.960 . S
C452 H444 0.929 . S
C452 C453 1.377 . S
C452 C454 1.384 . S
C453 C452 1.377 . S
C453 C459 1.390 . S
C454 H445 0.930 . S
C454 C452 1.384 . S
C454 C455 1.372 . S
C455 C454 1.372 . S
C455 C456 1.400 . S
C455 C460 1.490 . S
C456 H446 0.930 . S
C456 C455 1.400 . S
C456 C459 1.386 . S
H457 C473 0.930 . S
H458 C474 0.931 . S
C459 H447 0.929 . S
C459 C453 1.390 . S
C459 C456 1.386 . S
C460 C455 1.490 . S
C460 C462 1.395 . S
C460 C463 1.403 . S
H461 C467 0.930 . S
C462 H448 0.930 . S
C462 C460 1.395 . S
C462 C465 1.403 . S
C463 C460 1.403 . S
C463 C464 1.524 . S
C463 C467 1.400 . S
C464 H449 0.960 . S
C464 H450 0.960 . S
C464 H451 0.960 . S
C464 C463 1.524 . S
C465 C462 1.403 . S
C465 C466 1.392 . S
C465 C469 1.495 . S
C466 C465 1.392 . S
C466 C467 1.385 . S
C466 C468 1.478 . S
C467 H461 0.930 . S
C467 C463 1.400 . S
C467 C466 1.385 . S
C468 C466 1.478 . S
C468 C470 1.381 . S
C468 C474 1.383 . S
C469 C465 1.495 . S
C469 H475 0.959 . S
C469 H476 0.961 . S
C469 H477 0.960 . S
C470 C468 1.381 . S
C470 C471 1.394 . S
C470 H478 0.930 . S
C471 C470 1.394 . S
C471 C472 1.383 . S
C471 H479 0.929 . S
C472 C471 1.383 . S
C472 C473 1.377 . S
C473 H457 0.930 . S
C473 C472 1.377 . S
C473 C474 1.379 . S
C474 H458 0.931 . S
C474 C468 1.383 . S
C474 C473 1.379 . S
H475 C469 0.959 . S
H476 C469 0.961 . S
H477 C469 0.960 . S
H478 C470 0.930 . S
H479 C471 0.929 . S
H480 C488 0.929 . S
H481 C490 0.930 . S
H482 C492 0.930 . S
H483 C495 0.929 . S
H484 C498 0.930 . S
H485 C500 0.960 . S
H486 C500 0.960 . S
H487 C500 0.960 . S
C488 H480 0.929 . S
C488 C489 1.377 . S
C488 C490 1.384 . S
C489 C488 1.377 . S
C489 C495 1.390 . S
C490 H481 0.930 . S
C490 C488 1.384 . S
C490 C491 1.372 . S
C491 C490 1.372 . S
C491 C492 1.400 . S
C491 C496 1.490 . S
C492 H482 0.930 . S
C492 C491 1.400 . S
C492 C495 1.386 . S
H493 C509 0.930 . S
H494 C510 0.931 . S
C495 H483 0.929 . S
C495 C489 1.390 . S
C495 C492 1.386 . S
C496 C491 1.490 . S
C496 C498 1.395 . S
C496 C499 1.403 . S
H497 C503 0.930 . S
C498 H484 0.930 . S
C498 C496 1.395 . S
C498 C501 1.403 . S
C499 C496 1.403 . S
C499 C500 1.524 . S
C499 C503 1.400 . S
C500 H485 0.960 . S
C500 H486 0.960 . S
C500 H487 0.960 . S
C500 C499 1.524 . S
C501 C498 1.403 . S
C501 C502 1.392 . S
C501 C505 1.495 . S
C502 C501 1.392 . S
C502 C503 1.385 . S
C502 C504 1.478 . S
C503 H497 0.930 . S
C503 C499 1.400 . S
C503 C502 1.385 . S
C504 C502 1.478 . S
C504 C506 1.381 . S
C504 C510 1.383 . S
C505 C501 1.495 . S
C505 H511 0.959 . S
C505 H512 0.961 . S
C505 H513 0.960 . S
C506 C504 1.381 . S
C506 C507 1.394 . S
C506 H514 0.930 . S
C507 C506 1.394 . S
C507 C508 1.383 . S
C507 H515 0.929 . S
C508 C507 1.383 . S
C508 C509 1.377 . S
C509 H493 0.930 . S
C509 C508 1.377 . S
C509 C510 1.379 . S
C510 H494 0.931 . S
C510 C504 1.383 . S
C510 C509 1.379 . S
H511 C505 0.959 . S
H512 C505 0.961 . S
H513 C505 0.960 . S
H514 C506 0.930 . S
H515 C507 0.929 . S
H516 C524 0.929 . S
H517 C526 0.930 . S
H518 C528 0.930 . S
H519 C531 0.929 . S
H520 C534 0.930 . S
H521 C536 0.960 1_455 S
H522 C536 0.963 . S
H523 C536 0.958 1_455 S
C524 H516 0.929 . S
C524 C525 1.411 . S
C524 C526 1.384 . S
C525 C524 1.411 . S
C525 C531 1.358 1_655 S
C526 H517 0.930 . S
C526 C524 1.384 . S
C526 C527 1.372 . S
C527 C526 1.372 . S
C527 C528 1.400 1_655 S
C527 C532 1.490 . S
C528 H518 0.930 . S
C528 C527 1.400 1_455 S
C528 C531 1.386 . S
H529 C545 0.930 . S
H530 C546 0.931 . S
C531 H519 0.929 . S
C531 C525 1.358 1_455 S
C531 C528 1.386 . S
C532 C527 1.490 . S
C532 C534 1.395 . S
C532 C535 1.403 . S
H533 C539 0.930 . S
C534 H520 0.930 . S
C534 C532 1.395 . S
C534 C537 1.403 . S
C535 C532 1.403 . S
C535 C536 1.524 . S
C535 C539 1.400 . S
C536 H521 0.960 1_655 S
C536 H522 0.963 . S
C536 H523 0.958 1_655 S
C536 C535 1.524 . S
C537 C534 1.403 . S
C537 C538 1.392 . S
C537 C541 1.495 . S
C538 C537 1.392 . S
C538 C539 1.385 . S
C538 C540 1.478 . S
C539 H533 0.930 . S
C539 C535 1.400 . S
C539 C538 1.385 . S
C540 C538 1.478 . S
C540 C542 1.381 . S
C540 C546 1.383 1_655 S
C541 C537 1.495 . S
C541 H547 0.959 . S
C541 H548 0.961 . S
C541 H549 0.960 . S
C542 C540 1.381 . S
C542 C543 1.394 . S
C542 H550 0.930 . S
C543 C542 1.394 . S
C543 C544 1.383 . S
C543 H551 0.929 . S
C544 C543 1.383 . S
C544 C545 1.377 1_655 S
C545 H529 0.930 . S
C545 C544 1.377 1_455 S
C545 C546 1.379 . S
C546 H530 0.931 . S
C546 C540 1.383 1_455 S
C546 C545 1.379 . S
H547 C541 0.959 . S
H548 C541 0.961 . S
H549 C541 0.960 . S
H550 C542 0.930 . S
H551 C543 0.929 . S
H552 C560 0.929 . S
H553 C562 0.930 . S
H554 C564 0.930 . S
H555 C567 0.929 . S
H556 C570 0.930 . S
H557 C572 0.960 . S
H558 C572 0.960 . S
H559 C572 0.960 . S
C560 H552 0.929 . S
C560 C561 1.377 . S
C560 C562 1.384 1_554 S
C561 C560 1.377 . S
C561 C567 1.390 . S
C562 H553 0.930 . S
C562 C560 1.384 1_556 S
C562 C563 1.372 . S
C563 C562 1.372 . S
C563 C564 1.400 1_556 S
C563 C568 1.490 . S
C564 H554 0.930 . S
C564 C563 1.400 1_554 S
C564 C567 1.386 . S
H565 C581 0.930 . S
H566 C582 0.944 . S
C567 H555 0.929 . S
C567 C561 1.390 . S
C567 C564 1.386 . S
C568 C563 1.490 . S
C568 C570 1.395 . S
C568 C571 1.403 . S
H569 C575 0.930 . S
C570 H556 0.930 . S
C570 C568 1.395 . S
C570 C573 1.403 . S
C571 C568 1.403 . S
C571 C572 1.524 1_556 S
C571 C575 1.400 . S
C572 H557 0.960 . S
C572 H558 0.960 . S
C572 H559 0.960 . S
C572 C571 1.524 1_554 S
C573 C570 1.403 . S
C573 C574 1.392 . S
C573 C577 1.495 . S
C574 C573 1.392 . S
C574 C575 1.385 . S
C574 C576 1.478 . S
C575 H569 0.930 . S
C575 C571 1.400 . S
C575 C574 1.385 . S
C576 C574 1.478 . S
C576 C578 1.381 . S
C576 C582 1.363 1_565 S
C577 C573 1.495 . S
C577 H583 0.959 . S
C577 H584 0.961 . S
C577 H585 0.960 . S
C578 C576 1.381 . S
C578 C579 1.394 . S
C578 H586 0.930 . S
C579 C578 1.394 . S
C579 C580 1.383 . S
C579 H587 0.929 . S
C580 C579 1.383 . S
C580 C581 1.377 1_565 S
C581 H565 0.930 . S
C581 C580 1.377 1_545 S
C581 C582 1.387 . S
C582 H566 0.944 . S
C582 C576 1.363 1_545 S
C582 C581 1.387 . S
H583 C577 0.959 . S
H584 C577 0.961 . S
H585 C577 0.960 . S
H586 C578 0.930 . S
H587 C579 0.929 . S
H588 C596 0.929 . S
H589 C598 0.930 . S
H590 C600 0.930 . S
H591 C603 0.929 . S
H592 C606 0.930 . S
H593 C608 0.960 . S
H594 C608 0.960 . S
H595 C608 0.960 . S
C596 H588 0.929 . S
C596 C597 1.377 . S
C596 C598 1.384 1_554 S
C597 C596 1.377 . S
C597 C603 1.390 . S
C598 H589 0.930 . S
C598 C596 1.384 1_556 S
C598 C599 1.372 . S
C599 C598 1.372 . S
C599 C600 1.400 1_556 S
C599 C604 1.490 . S
C600 H590 0.930 . S
C600 C599 1.400 1_554 S
C600 C603 1.386 . S
H601 C617 0.930 . S
H602 C618 0.931 . S
C603 H591 0.929 . S
C603 C597 1.390 . S
C603 C600 1.386 . S
C604 C599 1.490 . S
C604 C606 1.395 . S
C604 C607 1.403 . S
H605 C611 0.930 . S
C606 H592 0.930 . S
C606 C604 1.395 . S
C606 C609 1.403 . S
C607 C604 1.403 . S
C607 C608 1.524 1_556 S
C607 C611 1.400 . S
C608 H593 0.960 . S
C608 H594 0.960 . S
C608 H595 0.960 . S
C608 C607 1.524 1_554 S
C609 C606 1.403 . S
C609 C610 1.392 . S
C609 C613 1.495 . S
C610 C609 1.392 . S
C610 C611 1.385 . S
C610 C612 1.478 . S
C611 H605 0.930 . S
C611 C607 1.400 . S
C611 C610 1.385 . S
C612 C610 1.478 . S
C612 C614 1.381 . S
C612 C618 1.383 . S
C613 C609 1.495 . S
C613 H619 0.959 . S
C613 H620 0.961 . S
C613 H621 0.960 . S
C614 C612 1.381 . S
C614 C615 1.394 . S
C614 H622 0.930 . S
C615 C614 1.394 . S
C615 C616 1.383 . S
C615 H623 0.929 . S
C616 C615 1.383 . S
C616 C617 1.377 . S
C617 H601 0.930 . S
C617 C616 1.377 . S
C617 C618 1.379 . S
C618 H602 0.931 . S
C618 C612 1.383 . S
C618 C617 1.379 . S
H619 C613 0.959 . S
H620 C613 0.961 . S
H621 C613 0.960 . S
H622 C614 0.930 . S
H623 C615 0.929 . S
H624 C632 0.929 1_556 S
H625 C634 0.930 . S
H626 C636 0.930 . S
H627 C639 0.929 . S
H628 C642 0.930 . S
H629 C644 0.960 . S
H630 C644 0.960 . S
H631 C644 0.960 . S
C632 H624 0.929 1_554 S
C632 C633 1.377 . S
C632 C634 1.384 1_554 S
C633 C632 1.377 . S
C633 C639 1.390 . S
C634 H625 0.930 . S
C634 C632 1.384 1_556 S
C634 C635 1.369 1_556 S
C635 C634 1.369 1_554 S
C635 C636 1.407 . S
C635 C640 1.485 1_554 S
C636 H626 0.930 . S
C636 C635 1.407 . S
C636 C639 1.386 . S
H637 C653 0.930 . S
H638 C654 0.931 . S
C639 H627 0.929 . S
C639 C633 1.390 . S
C639 C636 1.386 . S
C640 C635 1.485 1_556 S
C640 C642 1.395 . S
C640 C643 1.403 . S
H641 C647 0.930 . S
C642 H628 0.930 . S
C642 C640 1.395 . S
C642 C645 1.403 . S
C643 C640 1.403 . S
C643 C644 1.524 1_556 S
C643 C647 1.400 . S
C644 H629 0.960 . S
C644 H630 0.960 . S
C644 H631 0.960 . S
C644 C643 1.524 1_554 S
C645 C642 1.403 . S
C645 C646 1.392 . S
C645 C649 1.495 . S
C646 C645 1.392 . S
C646 C647 1.385 . S
C646 C648 1.478 . S
C647 H641 0.930 . S
C647 C643 1.400 . S
C647 C646 1.385 . S
C648 C646 1.478 . S
C648 C650 1.381 . S
C648 C654 1.383 . S
C649 C645 1.495 . S
C649 H655 0.959 . S
C649 H656 0.961 . S
C649 H657 0.960 . S
C650 C648 1.381 . S
C650 C651 1.394 . S
C650 H658 0.930 . S
C651 C650 1.394 . S
C651 C652 1.383 . S
C651 H659 0.929 . S
C652 C651 1.383 . S
C652 C653 1.377 . S
C653 H637 0.930 . S
C653 C652 1.377 . S
C653 C654 1.379 . S
C654 H638 0.931 . S
C654 C648 1.383 . S
C654 C653 1.379 . S
H655 C649 0.959 . S
H656 C649 0.961 . S
H657 C649 0.960 . S
H658 C650 0.930 . S
H659 C651 0.929 . S
H660 C668 0.929 . S
H661 C670 0.953 . S
H662 C672 0.930 . S
H663 C675 0.929 . S
H664 C678 0.930 . S
H665 C680 0.960 . S
H666 C680 0.960 . S
H667 C680 0.960 . S
C668 H660 0.929 . S
C668 C669 1.377 1_655 S
C668 C670 1.366 1_554 S
C669 C668 1.377 1_455 S
C669 C675 1.390 . S
C670 H661 0.953 . S
C670 C668 1.366 1_556 S
C670 C671 1.367 1_656 S
C671 C670 1.367 1_454 S
C671 C672 1.400 . S
C671 C676 1.490 1_554 S
C672 H662 0.930 . S
C672 C671 1.400 . S
C672 C675 1.386 . S
H673 C689 0.930 . S
H674 C690 0.931 . S
C675 H663 0.929 . S
C675 C669 1.390 . S
C675 C672 1.386 . S
C676 C671 1.490 1_556 S
C676 C678 1.395 . S
C676 C679 1.403 1_455 S
H677 C683 0.930 . S
C678 H664 0.930 . S
C678 C676 1.395 . S
C678 C681 1.403 . S
C679 C676 1.403 1_655 S
C679 C680 1.524 1_556 S
C679 C683 1.400 . S
C680 H665 0.960 . S
C680 H666 0.960 . S
C680 H667 0.960 . S
C680 C679 1.524 1_554 S
C681 C678 1.403 . S
C681 C682 1.392 . S
C681 C685 1.495 . S
C682 C681 1.392 . S
C682 C683 1.385 1_455 S
C682 C684 1.478 . S
C683 H677 0.930 . S
C683 C679 1.400 . S
C683 C682 1.385 1_655 S
C684 C682 1.478 . S
C684 C686 1.381 . S
C684 C690 1.383 . S
C685 C681 1.495 . S
C685 H691 0.959 . S
C685 H692 0.961 . S
C685 H693 0.960 . S
C686 C684 1.381 . S
C686 C687 1.394 . S
C686 H694 0.930 1_455 S
C687 C686 1.394 . S
C687 C688 1.383 . S
C687 H695 0.929 1_455 S
C688 C687 1.383 . S
C688 C689 1.377 . S
C689 H673 0.930 . S
C689 C688 1.377 . S
C689 C690 1.379 . S
C690 H674 0.931 . S
C690 C684 1.383 . S
C690 C689 1.379 . S
H691 C685 0.959 . S
H692 C685 0.961 . S
H693 C685 0.960 . S
H694 C686 0.930 1_655 S
H695 C687 0.929 1_655 S
H696 C704 0.929 . S
H697 C706 0.930 . S
H698 C708 0.930 . S
H699 C711 0.929 . S
H700 C714 0.930 . S
H701 C716 0.960 . S
H702 C716 0.960 . S
H703 C716 0.960 . S
C704 H696 0.929 . S
C704 C705 1.377 . S
C704 C706 1.384 . S
C705 C704 1.377 . S
C705 C711 1.390 1_455 S
C706 H697 0.930 . S
C706 C704 1.384 . S
C706 C707 1.343 1_455 S
C707 C706 1.343 1_655 S
C707 C708 1.425 . S
C707 C712 1.494 . S
C708 H698 0.930 . S
C708 C707 1.425 . S
C708 C711 1.386 . S
H709 C725 0.930 . S
H710 C726 0.931 . S
C711 H699 0.929 . S
C711 C705 1.390 1_655 S
C711 C708 1.386 . S
C712 C707 1.494 . S
C712 C714 1.395 1_655 S
C712 C715 1.403 . S
H713 C719 0.930 . S
C714 H700 0.930 . S
C714 C712 1.395 1_455 S
C714 C717 1.403 . S
C715 C712 1.403 . S
C715 C716 1.524 . S
C715 C719 1.400 . S
C716 H701 0.960 . S
C716 H702 0.960 . S
C716 H703 0.960 . S
C716 C715 1.524 . S
C717 C714 1.403 . S
C717 C718 1.392 1_455 S
C717 C721 1.495 . S
C718 C717 1.392 1_655 S
C718 C719 1.385 . S
C718 C720 1.478 . S
C719 H713 0.930 . S
C719 C715 1.400 . S
C719 C718 1.385 . S
C720 C718 1.478 . S
C720 C722 1.381 1_655 S
C720 C726 1.383 . S
C721 C717 1.495 . S
C721 H727 0.959 . S
C721 H728 0.961 1_455 S
C721 H729 0.960 . S
C722 C720 1.381 1_455 S
C722 C723 1.394 . S
C722 H730 0.930 . S
C723 C722 1.394 . S
C723 C724 1.383 1_455 S
C723 H731 0.929 . S
C724 C723 1.383 1_655 S
C724 C725 1.377 . S
C725 H709 0.930 . S
C725 C724 1.377 . S
C725 C726 1.379 . S
C726 H710 0.931 . S
C726 C720 1.383 . S
C726 C725 1.379 . S
H727 C721 0.959 . S
H728 C721 0.961 1_655 S
H729 C721 0.960 . S
H730 C722 0.930 . S
H731 C723 0.929 . S
H732 C740 0.929 . S
H733 C742 0.930 . S
H734 C744 0.930 . S
H735 C747 0.929 . S
H736 C750 0.930 . S
H737 C752 0.960 . S
H738 C752 0.960 . S
H739 C752 0.960 . S
C740 H732 0.929 . S
C740 C741 1.377 . S
C740 C742 1.384 . S
C741 C740 1.377 . S
C741 C747 1.390 . S
C742 H733 0.930 . S
C742 C740 1.384 . S
C742 C743 1.372 . S
C743 C742 1.372 . S
C743 C744 1.400 . S
C743 C748 1.490 . S
C744 H734 0.930 . S
C744 C743 1.400 . S
C744 C747 1.386 . S
H745 C761 0.930 . S
H746 C762 0.931 . S
C747 H735 0.929 . S
C747 C741 1.390 . S
C747 C744 1.386 . S
C748 C743 1.490 . S
C748 C750 1.395 . S
C748 C751 1.403 . S
H749 C755 0.930 . S
C750 H736 0.930 . S
C750 C748 1.395 . S
C750 C753 1.403 . S
C751 C748 1.403 . S
C751 C752 1.524 . S
C751 C755 1.400 . S
C752 H737 0.960 . S
C752 H738 0.960 . S
C752 H739 0.960 . S
C752 C751 1.524 . S
C753 C750 1.403 . S
C753 C754 1.392 . S
C753 C757 1.495 . S
C754 C753 1.392 . S
C754 C755 1.385 . S
C754 C756 1.478 . S
C755 H749 0.930 . S
C755 C751 1.400 . S
C755 C754 1.385 . S
C756 C754 1.478 . S
C756 C758 1.381 . S
C756 C762 1.383 . S
C757 C753 1.495 . S
C757 H763 0.959 . S
C757 H764 0.961 . S
C757 H765 0.960 . S
C758 C756 1.381 . S
C758 C759 1.386 1_545 S
C758 H766 0.930 . S
C759 C758 1.386 1_565 S
C759 C760 1.370 1_565 S
C759 H767 0.951 . S
C760 C759 1.370 1_545 S
C760 C761 1.377 . S
C761 H745 0.930 . S
C761 C760 1.377 . S
C761 C762 1.379 . S
C762 H746 0.931 . S
C762 C756 1.383 . S
C762 C761 1.379 . S
H763 C757 0.959 . S
H764 C757 0.961 . S
H765 C757 0.960 . S
H766 C758 0.930 . S
H767 C759 0.951 . S
H768 C776 0.929 . S
H769 C778 0.930 . S
H770 C780 0.930 . S
H771 C783 0.929 . S
H772 C786 0.930 . S
H773 C788 0.960 . S
H774 C788 0.960 . S
H775 C788 0.960 . S
C776 H768 0.929 . S
C776 C777 1.377 . S
C776 C778 1.384 . S
C777 C776 1.377 . S
C777 C783 1.390 . S
C778 H769 0.930 . S
C778 C776 1.384 . S
C778 C779 1.372 . S
C779 C778 1.372 . S
C779 C780 1.400 . S
C779 C784 1.490 . S
C780 H770 0.930 . S
C780 C779 1.400 . S
C780 C783 1.386 . S
H781 C797 0.930 . S
H782 C798 0.931 . S
C783 H771 0.929 . S
C783 C777 1.390 . S
C783 C780 1.386 . S
C784 C779 1.490 . S
C784 C786 1.395 . S
C784 C787 1.403 . S
H785 C791 0.930 . S
C786 H772 0.930 . S
C786 C784 1.395 . S
C786 C789 1.403 . S
C787 C784 1.403 . S
C787 C788 1.524 . S
C787 C791 1.400 . S
C788 H773 0.960 . S
C788 H774 0.960 . S
C788 H775 0.960 . S
C788 C787 1.524 . S
C789 C786 1.403 . S
C789 C790 1.392 . S
C789 C793 1.495 . S
C790 C789 1.392 . S
C790 C791 1.385 . S
C790 C792 1.478 . S
C791 H785 0.930 . S
C791 C787 1.400 . S
C791 C790 1.385 . S
C792 C790 1.478 . S
C792 C794 1.381 . S
C792 C798 1.383 . S
C793 C789 1.495 . S
C793 H799 0.959 . S
C793 H800 0.961 . S
C793 H801 0.960 . S
C794 C792 1.381 . S
C794 C795 1.394 . S
C794 H802 0.930 . S
C795 C794 1.394 . S
C795 C796 1.383 . S
C795 H803 0.929 . S
C796 C795 1.383 . S
C796 C797 1.377 . S
C797 H781 0.930 . S
C797 C796 1.377 . S
C797 C798 1.379 . S
C798 H782 0.931 . S
C798 C792 1.383 . S
C798 C797 1.379 . S
H799 C793 0.959 . S
H800 C793 0.961 . S
H801 C793 0.960 . S
H802 C794 0.930 . S
H803 C795 0.929 . S
H804 C812 0.929 . S
H805 C814 0.930 . S
H806 C816 0.930 . S
H807 C819 0.929 . S
H808 C822 0.930 . S
H809 C824 0.960 . S
H810 C824 0.960 . S
H811 C824 0.960 . S
C812 H804 0.929 . S
C812 C813 1.377 . S
C812 C814 1.384 . S
C813 C812 1.377 . S
C813 C819 1.390 . S
C814 H805 0.930 . S
C814 C812 1.384 . S
C814 C815 1.372 . S
C815 C814 1.372 . S
C815 C816 1.400 . S
C815 C820 1.490 . S
C816 H806 0.930 . S
C816 C815 1.400 . S
C816 C819 1.386 . S
H817 C833 0.930 . S
H818 C834 0.931 . S
C819 H807 0.929 . S
C819 C813 1.390 . S
C819 C816 1.386 . S
C820 C815 1.490 . S
C820 C822 1.395 . S
C820 C823 1.403 . S
H821 C827 0.930 . S
C822 H808 0.930 . S
C822 C820 1.395 . S
C822 C825 1.403 . S
C823 C820 1.403 . S
C823 C824 1.524 . S
C823 C827 1.400 . S
C824 H809 0.960 . S
C824 H810 0.960 . S
C824 H811 0.960 . S
C824 C823 1.524 . S
C825 C822 1.403 . S
C825 C826 1.392 . S
C825 C829 1.495 . S
C826 C825 1.392 . S
C826 C827 1.385 . S
C826 C828 1.478 . S
C827 H821 0.930 . S
C827 C823 1.400 . S
C827 C826 1.385 . S
C828 C826 1.478 . S
C828 C830 1.381 . S
C828 C834 1.383 . S
C829 C825 1.495 . S
C829 H835 0.959 . S
C829 H836 0.961 . S
C829 H837 0.960 . S
C830 C828 1.381 . S
C830 C831 1.394 . S
C830 H838 0.930 . S
C831 C830 1.394 . S
C831 C832 1.383 . S
C831 H839 0.929 . S
C832 C831 1.383 . S
C832 C833 1.377 . S
C833 H817 0.930 . S
C833 C832 1.377 . S
C833 C834 1.379 . S
C834 H818 0.931 . S
C834 C828 1.383 . S
C834 C833 1.379 . S
H835 C829 0.959 . S
H836 C829 0.961 . S
H837 C829 0.960 . S
H838 C830 0.930 . S
H839 C831 0.929 . S
H840 C848 0.929 . S
H841 C850 0.930 . S
H842 C852 0.930 . S
H843 C855 0.929 . S
H844 C858 0.930 . S
H845 C860 0.960 . S
H846 C860 0.960 . S
H847 C860 0.960 . S
C848 H840 0.929 . S
C848 C849 1.377 1_454 S
C848 C850 1.384 1_554 S
C849 C848 1.377 1_656 S
C849 C855 1.390 . S
C850 H841 0.930 . S
C850 C848 1.384 1_556 S
C850 C851 1.372 . S
C851 C850 1.372 . S
C851 C852 1.400 1_455 S
C851 C856 1.490 . S
C852 H842 0.930 . S
C852 C851 1.400 1_655 S
C852 C855 1.386 . S
H853 C869 0.930 1_655 S
H854 C870 0.931 1_655 S
C855 H843 0.929 . S
C855 C849 1.390 . S
C855 C852 1.386 . S
C856 C851 1.490 . S
C856 C858 1.395 . S
C856 C859 1.403 1_455 S
H857 C863 0.930 . S
C858 H844 0.930 . S
C858 C856 1.395 . S
C858 C861 1.403 . S
C859 C856 1.403 1_655 S
C859 C860 1.524 . S
C859 C863 1.400 . S
C860 H845 0.960 . S
C860 H846 0.960 . S
C860 H847 0.960 . S
C860 C859 1.524 . S
C861 C858 1.403 . S
C861 C862 1.392 . S
C861 C865 1.495 . S
C862 C861 1.392 . S
C862 C863 1.385 1_455 S
C862 C864 1.478 . S
C863 H857 0.930 . S
C863 C859 1.400 . S
C863 C862 1.385 1_655 S
C864 C862 1.478 . S
C864 C866 1.381 . S
C864 C870 1.383 . S
C865 C861 1.495 . S
C865 H871 0.959 . S
C865 H872 0.961 . S
C865 H873 0.960 . S
C866 C864 1.381 . S
C866 C867 1.394 . S
C866 H874 0.930 . S
C867 C866 1.394 . S
C867 C868 1.383 . S
C867 H875 0.929 . S
C868 C867 1.383 . S
C868 C869 1.377 . S
C869 H853 0.930 1_455 S
C869 C868 1.377 . S
C869 C870 1.379 . S
C870 H854 0.931 1_455 S
C870 C864 1.383 . S
C870 C869 1.379 . S
H871 C865 0.959 . S
H872 C865 0.961 . S
H873 C865 0.960 . S
H874 C866 0.930 . S
H875 C867 0.929 . S
H876 C884 0.929 1_554 S
H877 C886 0.930 . S
H878 C888 0.930 . S
H879 C891 0.929 . S
H880 C894 0.930 . S
H881 C896 0.960 . S
H882 C896 0.960 . S
H883 C896 0.960 . S
C884 H876 0.929 1_556 S
C884 C885 1.377 . S
C884 C886 1.384 . S
C885 C884 1.377 . S
C885 C891 1.390 . S
C886 H877 0.930 . S
C886 C884 1.384 . S
C886 C887 1.372 . S
C887 C886 1.372 . S
C887 C888 1.400 . S
C887 C892 1.490 . S
C888 H878 0.930 . S
C888 C887 1.400 . S
C888 C891 1.386 . S
H889 C905 0.930 . S
H890 C906 0.931 . S
C891 H879 0.929 . S
C891 C885 1.390 . S
C891 C888 1.386 . S
C892 C887 1.490 . S
C892 C894 1.395 . S
C892 C895 1.403 . S
H893 C899 0.930 . S
C894 H880 0.930 . S
C894 C892 1.395 . S
C894 C897 1.403 . S
C895 C892 1.403 . S
C895 C896 1.524 . S
C895 C899 1.400 . S
C896 H881 0.960 . S
C896 H882 0.960 . S
C896 H883 0.960 . S
C896 C895 1.524 . S
C897 C894 1.403 . S
C897 C898 1.392 . S
C897 C901 1.495 1_565 S
C898 C897 1.392 . S
C898 C899 1.385 . S
C898 C900 1.478 . S
C899 H893 0.930 . S
C899 C895 1.400 . S
C899 C898 1.385 . S
C900 C898 1.478 . S
C900 C902 1.391 . S
C900 C906 1.383 . S
C901 C897 1.495 1_545 S
C901 H907 0.959 . S
C901 H908 0.961 . S
C901 H909 0.960 . S
C902 C900 1.391 . S
C902 C903 1.388 1_565 S
C902 H910 0.925 1_565 S
C903 C902 1.388 1_545 S
C903 C904 1.383 . S
C903 H911 0.929 . S
C904 C903 1.383 . S
C904 C905 1.377 1_545 S
C905 H889 0.930 . S
C905 C904 1.377 1_565 S
C905 C906 1.379 . S
C906 H890 0.931 . S
C906 C900 1.383 . S
C906 C905 1.379 . S
H907 C901 0.959 . S
H908 C901 0.961 . S
H909 C901 0.960 . S
H910 C902 0.925 1_545 S
H911 C903 0.929 . S
H912 C920 0.929 . S
H913 C922 0.930 . S
H914 C924 0.930 . S
H915 C927 0.929 . S
H916 C930 0.930 . S
H917 C932 0.960 . S
H918 C932 0.960 . S
H919 C932 0.960 . S
C920 H912 0.929 . S
C920 C921 1.377 . S
C920 C922 1.384 . S
C921 C920 1.377 . S
C921 C927 1.390 . S
C922 H913 0.930 . S
C922 C920 1.384 . S
C922 C923 1.372 . S
C923 C922 1.372 . S
C923 C924 1.400 . S
C923 C928 1.490 . S
C924 H914 0.930 . S
C924 C923 1.400 . S
C924 C927 1.386 . S
H925 C941 0.930 . S
H926 C942 0.931 . S
C927 H915 0.929 . S
C927 C921 1.390 . S
C927 C924 1.386 . S
C928 C923 1.490 . S
C928 C930 1.395 . S
C928 C931 1.403 . S
H929 C935 0.930 . S
C930 H916 0.930 . S
C930 C928 1.395 . S
C930 C933 1.403 . S
C931 C928 1.403 . S
C931 C932 1.524 . S
C931 C935 1.400 . S
C932 H917 0.960 . S
C932 H918 0.960 . S
C932 H919 0.960 . S
C932 C931 1.524 . S
C933 C930 1.403 . S
C933 C934 1.392 . S
C933 C937 1.495 . S
C934 C933 1.392 . S
C934 C935 1.385 . S
C934 C936 1.478 . S
C935 H929 0.930 . S
C935 C931 1.400 . S
C935 C934 1.385 . S
C936 C934 1.478 . S
C936 C938 1.381 . S
C936 C942 1.383 . S
C937 C933 1.495 . S
C937 H943 0.959 . S
C937 H944 0.961 . S
C937 H945 0.960 . S
C938 C936 1.381 . S
C938 C939 1.394 . S
C938 H946 0.930 . S
C939 C938 1.394 . S
C939 C940 1.383 . S
C939 H947 0.929 . S
C940 C939 1.383 . S
C940 C941 1.377 . S
C941 H925 0.930 . S
C941 C940 1.377 . S
C941 C942 1.379 . S
C942 H926 0.931 . S
C942 C936 1.383 . S
C942 C941 1.379 . S
H943 C937 0.959 . S
H944 C937 0.961 . S
H945 C937 0.960 . S
H946 C938 0.930 . S
H947 C939 0.929 . S
H948 C956 0.929 . S
H949 C958 0.930 1_554 S
H950 C960 0.930 . S
H951 C963 0.929 . S
H952 C966 0.930 . S
H953 C968 0.960 . S
H954 C968 0.960 . S
H955 C968 0.960 . S
C956 H948 0.929 . S
C956 C957 1.377 1_554 S
C956 C958 1.384 1_554 S
C957 C956 1.377 1_556 S
C957 C963 1.390 . S
C958 H949 0.930 1_556 S
C958 C956 1.384 1_556 S
C958 C959 1.372 . S
C959 C958 1.372 . S
C959 C960 1.400 . S
C959 C964 1.490 . S
C960 H950 0.930 . S
C960 C959 1.400 . S
C960 C963 1.386 . S
H961 C977 0.930 . S
H962 C978 0.931 . S
C963 H951 0.929 . S
C963 C957 1.390 . S
C963 C960 1.386 . S
C964 C959 1.490 . S
C964 C966 1.395 . S
C964 C967 1.403 . S
H965 C971 0.930 . S
C966 H952 0.930 . S
C966 C964 1.395 . S
C966 C969 1.403 . S
C967 C964 1.403 . S
C967 C968 1.524 . S
C967 C971 1.400 . S
C968 H953 0.960 . S
C968 H954 0.960 . S
C968 H955 0.960 . S
C968 C967 1.524 . S
C969 C966 1.403 . S
C969 C970 1.392 . S
C969 C973 1.495 . S
C970 C969 1.392 . S
C970 C971 1.385 . S
C970 C972 1.478 . S
C971 H965 0.930 . S
C971 C967 1.400 . S
C971 C970 1.385 . S
C972 C970 1.478 . S
C972 C974 1.381 . S
C972 C978 1.383 . S
C973 C969 1.495 . S
C973 H979 0.959 . S
C973 H980 0.961 . S
C973 H981 0.960 . S
C974 C972 1.381 . S
C974 C975 1.394 . S
C974 H982 0.930 . S
C975 C974 1.394 . S
C975 C976 1.383 . S
C975 H983 0.929 . S
C976 C975 1.383 . S
C976 C977 1.377 . S
C977 H961 0.930 . S
C977 C976 1.377 . S
C977 C978 1.379 . S
C978 H962 0.931 . S
C978 C972 1.383 . S
C978 C977 1.379 . S
H979 C973 0.959 . S
H980 C973 0.961 . S
H981 C973 0.960 . S
H982 C974 0.930 . S
H983 C975 0.929 . S
H984 C992 0.929 . S
H985 C994 0.930 . S
H986 C996 0.930 . S
H987 C999 0.929 . S
H988 C1002 0.930 . S
H989 C1004 0.960 1_556 S
H990 C1004 0.960 . S
H991 C1004 0.960 . S
C992 H984 0.929 . S
C992 C993 1.431 . S
C992 C994 1.384 . S
C993 C992 1.431 . S
C993 C999 1.338 1_455 S
C994 H985 0.930 . S
C994 C992 1.384 . S
C994 C995 1.372 . S
C995 C994 1.372 . S
C995 C996 1.400 1_455 S
C995 C1000 1.490 . S
C996 H986 0.930 . S
C996 C995 1.400 1_655 S
C996 C999 1.386 . S
H997 C1013 0.930 . S
H998 C1014 0.931 1_554 S
C999 H987 0.929 . S
C999 C993 1.338 1_655 S
C999 C996 1.386 . S
C1000 C995 1.490 . S
C1000 C1002 1.395 . S
C1000 C1003 1.403 1_455 S
H1001 C1007 0.930 1_556 S
C1002 H988 0.930 . S
C1002 C1000 1.395 . S
C1002 C1005 1.403 . S
C1003 C1000 1.403 1_655 S
C1003 C1004 1.524 . S
C1003 C1007 1.400 . S
C1004 H989 0.960 1_554 S
C1004 H990 0.960 . S
C1004 H991 0.960 . S
C1004 C1003 1.524 . S
C1005 C1002 1.403 . S
C1005 C1006 1.392 . S
C1005 C1009 1.495 . S
C1006 C1005 1.392 . S
C1006 C1007 1.385 1_455 S
C1006 C1008 1.482 . S
C1007 H1001 0.930 1_554 S
C1007 C1003 1.400 . S
C1007 C1006 1.385 1_655 S
C1008 C1006 1.482 . S
C1008 C1010 1.377 1_554 S
C1008 C1014 1.381 1_454 S
C1009 C1005 1.495 . S
C1009 H1015 0.959 . S
C1009 H1016 0.961 . S
C1009 H1017 0.960 . S
C1010 C1008 1.377 1_556 S
C1010 C1011 1.394 . S
C1010 H1018 0.930 . S
C1011 C1010 1.394 . S
C1011 C1012 1.383 . S
C1011 H1019 0.929 . S
C1012 C1011 1.383 . S
C1012 C1013 1.377 1_455 S
C1013 H997 0.930 . S
C1013 C1012 1.377 1_655 S
C1013 C1014 1.379 . S
C1014 H998 0.931 1_556 S
C1014 C1008 1.381 1_656 S
C1014 C1013 1.379 . S
H1015 C1009 0.959 . S
H1016 C1009 0.961 . S
H1017 C1009 0.960 . S
H1018 C1010 0.930 . S
H1019 C1011 0.929 . S
H1020 C1028 0.929 . S
H1021 C1030 0.930 . S
H1022 C1032 0.930 . S
H1023 C1035 0.929 . S
H1024 C1038 0.930 . S
H1025 C1040 0.960 . S
H1026 C1040 0.960 . S
H1027 C1040 0.960 . S
C1028 H1020 0.929 . S
C1028 C1029 1.377 . S
C1028 C1030 1.384 . S
C1029 C1028 1.377 . S
C1029 C1035 1.390 . S
C1030 H1021 0.930 . S
C1030 C1028 1.384 . S
C1030 C1031 1.372 . S
C1031 C1030 1.372 . S
C1031 C1032 1.400 . S
C1031 C1036 1.490 . S
C1032 H1022 0.930 . S
C1032 C1031 1.400 . S
C1032 C1035 1.386 . S
H1033 C1049 0.930 . S
H1034 C1050 0.931 . S
C1035 H1023 0.929 . S
C1035 C1029 1.390 . S
C1035 C1032 1.386 . S
C1036 C1031 1.490 . S
C1036 C1038 1.395 . S
C1036 C1039 1.403 . S
H1037 C1043 0.930 . S
C1038 H1024 0.930 . S
C1038 C1036 1.395 . S
C1038 C1041 1.403 . S
C1039 C1036 1.403 . S
C1039 C1040 1.524 . S
C1039 C1043 1.400 . S
C1040 H1025 0.960 . S
C1040 H1026 0.960 . S
C1040 H1027 0.960 . S
C1040 C1039 1.524 . S
C1041 C1038 1.403 . S
C1041 C1042 1.392 . S
C1041 C1045 1.495 1_554 S
C1042 C1041 1.392 . S
C1042 C1043 1.385 . S
C1042 C1044 1.478 1_554 S
C1043 H1037 0.930 . S
C1043 C1039 1.400 . S
C1043 C1042 1.385 . S
C1044 C1042 1.478 1_556 S
C1044 C1046 1.381 . S
C1044 C1050 1.383 1_556 S
C1045 C1041 1.495 1_556 S
C1045 H1051 0.959 . S
C1045 H1052 0.961 . S
C1045 H1053 0.960 . S
C1046 C1044 1.381 . S
C1046 C1047 1.394 . S
C1046 H1054 0.930 . S
C1047 C1046 1.394 . S
C1047 C1048 1.383 . S
C1047 H1055 0.929 . S
C1048 C1047 1.383 . S
C1048 C1049 1.377 . S
C1049 H1033 0.930 . S
C1049 C1048 1.377 . S
C1049 C1050 1.379 1_556 S
C1050 H1034 0.931 . S
C1050 C1044 1.383 1_554 S
C1050 C1049 1.379 1_554 S
H1051 C1045 0.959 . S
H1052 C1045 0.961 . S
H1053 C1045 0.960 . S
H1054 C1046 0.930 . S
H1055 C1047 0.929 . S
H1056 C1064 0.929 . S
H1057 C1066 0.930 . S
H1058 C1068 0.930 . S
H1059 C1071 0.929 . S
H1060 C1074 0.930 . S
H1061 C1076 0.960 . S
H1062 C1076 0.960 . S
H1063 C1076 0.960 . S
C1064 H1056 0.929 . S
C1064 C1065 1.377 . S
C1064 C1066 1.384 . S
C1065 C1064 1.377 . S
C1065 C1071 1.390 . S
C1066 H1057 0.930 . S
C1066 C1064 1.384 . S
C1066 C1067 1.372 . S
C1067 C1066 1.372 . S
C1067 C1068 1.400 . S
C1067 C1072 1.490 . S
C1068 H1058 0.930 . S
C1068 C1067 1.400 . S
C1068 C1071 1.386 . S
H1069 C1085 0.930 . S
H1070 C1086 0.931 . S
C1071 H1059 0.929 . S
C1071 C1065 1.390 . S
C1071 C1068 1.386 . S
C1072 C1067 1.490 . S
C1072 C1074 1.395 . S
C1072 C1075 1.403 . S
H1073 C1079 0.925 1_556 S
C1074 H1060 0.930 . S
C1074 C1072 1.395 . S
C1074 C1077 1.403 . S
C1075 C1072 1.403 . S
C1075 C1076 1.524 . S
C1075 C1079 1.406 . S
C1076 H1061 0.960 . S
C1076 H1062 0.960 . S
C1076 H1063 0.960 . S
C1076 C1075 1.524 . S
C1077 C1074 1.403 . S
C1077 C1078 1.392 1_554 S
C1077 C1081 1.495 . S
C1078 C1077 1.392 1_556 S
C1078 C1079 1.383 1_556 S
C1078 C1080 1.478 . S
C1079 H1073 0.925 1_554 S
C1079 C1075 1.406 . S
C1079 C1078 1.383 1_554 S
C1080 C1078 1.478 . S
C1080 C1082 1.381 . S
C1080 C1086 1.383 . S
C1081 C1077 1.495 . S
C1081 H1087 0.959 . S
C1081 H1088 0.961 1_554 S
C1081 H1089 0.960 . S
C1082 C1080 1.381 . S
C1082 C1083 1.394 . S
C1082 H1090 0.930 . S
C1083 C1082 1.394 . S
C1083 C1084 1.383 . S
C1083 H1091 0.929 . S
C1084 C1083 1.383 . S
C1084 C1085 1.377 . S
C1085 H1069 0.930 . S
C1085 C1084 1.377 . S
C1085 C1086 1.379 . S
C1086 H1070 0.931 . S
C1086 C1080 1.383 . S
C1086 C1085 1.379 . S
H1087 C1081 0.959 . S
H1088 C1081 0.961 1_556 S
H1089 C1081 0.960 . S
H1090 C1082 0.930 . S
H1091 C1083 0.929 . S
H1092 C1100 0.929 . S
H1093 C1102 0.930 . S
H1094 C1104 0.930 . S
H1095 C1107 0.929 . S
H1096 C1110 0.930 1_556 S
H1097 C1112 0.960 . S
H1098 C1112 0.960 . S
H1099 C1112 0.960 . S
C1100 H1092 0.929 . S
C1100 C1101 1.377 . S
C1100 C1102 1.384 . S
C1101 C1100 1.377 . S
C1101 C1107 1.390 . S
C1102 H1093 0.930 . S
C1102 C1100 1.384 . S
C1102 C1103 1.372 . S
C1103 C1102 1.372 . S
C1103 C1104 1.400 . S
C1103 C1108 1.490 . S
C1104 H1094 0.930 . S
C1104 C1103 1.400 . S
C1104 C1107 1.386 . S
H1105 C1121 0.930 . S
H1106 C1122 0.931 . S
C1107 H1095 0.929 . S
C1107 C1101 1.390 . S
C1107 C1104 1.386 . S
C1108 C1103 1.490 . S
C1108 C1110 1.395 . S
C1108 C1111 1.403 . S
H1109 C1115 0.930 . S
C1110 H1096 0.930 1_554 S
C1110 C1108 1.395 . S
C1110 C1113 1.403 1_554 S
C1111 C1108 1.403 . S
C1111 C1112 1.524 . S
C1111 C1115 1.400 . S
C1112 H1097 0.960 . S
C1112 H1098 0.960 . S
C1112 H1099 0.960 . S
C1112 C1111 1.524 . S
C1113 C1110 1.403 1_556 S
C1113 C1114 1.392 . S
C1113 C1117 1.495 . S
C1114 C1113 1.392 . S
C1114 C1115 1.385 1_556 S
C1114 C1116 1.478 . S
C1115 H1109 0.930 . S
C1115 C1111 1.400 . S
C1115 C1114 1.385 1_554 S
C1116 C1114 1.478 . S
C1116 C1118 1.381 . S
C1116 C1122 1.383 . S
C1117 C1113 1.495 . S
C1117 H1123 0.959 . S
C1117 H1124 0.961 . S
C1117 H1125 0.960 . S
C1118 C1116 1.381 . S
C1118 C1119 1.394 . S
C1118 H1126 0.930 . S
C1119 C1118 1.394 . S
C1119 C1120 1.383 . S
C1119 H1127 0.929 . S
C1120 C1119 1.383 . S
C1120 C1121 1.377 . S
C1121 H1105 0.930 . S
C1121 C1120 1.377 . S
C1121 C1122 1.379 . S
C1122 H1106 0.931 . S
C1122 C1116 1.383 . S
C1122 C1121 1.379 . S
H1123 C1117 0.959 . S
H1124 C1117 0.961 . S
H1125 C1117 0.960 . S
H1126 C1118 0.930 . S
H1127 C1119 0.929 . S
H1128 C1136 0.929 . S
H1129 C1138 0.930 . S
H1130 C1140 0.930 . S
H1131 C1143 0.929 . S
H1132 C1146 0.930 . S
H1133 C1148 0.960 . S
H1134 C1148 0.960 1_655 S
H1135 C1148 0.960 . S
C1136 H1128 0.929 . S
C1136 C1137 1.377 . S
C1136 C1138 1.384 . S
C1137 C1136 1.377 . S
C1137 C1143 1.390 1_655 S
C1138 H1129 0.930 . S
C1138 C1136 1.384 . S
C1138 C1139 1.372 . S
C1139 C1138 1.372 . S
C1139 C1140 1.400 1_655 S
C1139 C1144 1.490 . S
C1140 H1130 0.930 . S
C1140 C1139 1.400 1_455 S
C1140 C1143 1.386 . S
H1141 C1157 0.930 . S
H1142 C1158 0.931 . S
C1143 H1131 0.929 . S
C1143 C1137 1.390 1_455 S
C1143 C1140 1.386 . S
C1144 C1139 1.490 . S
C1144 C1146 1.395 . S
C1144 C1147 1.407 . S
H1145 C1151 0.930 1_455 S
C1146 H1132 0.930 . S
C1146 C1144 1.395 . S
C1146 C1149 1.403 . S
C1147 C1144 1.407 . S
C1147 C1148 1.520 1_655 S
C1147 C1151 1.400 . S
C1148 H1133 0.960 . S
C1148 H1134 0.960 1_455 S
C1148 H1135 0.960 . S
C1148 C1147 1.520 1_455 S
C1149 C1146 1.403 . S
C1149 C1150 1.392 . S
C1149 C1153 1.495 . S
C1150 C1149 1.392 . S
C1150 C1151 1.385 . S
C1150 C1152 1.478 . S
C1151 H1145 0.930 1_655 S
C1151 C1147 1.400 . S
C1151 C1150 1.385 . S
C1152 C1150 1.478 . S
C1152 C1154 1.381 . S
C1152 C1158 1.383 1_655 S
C1153 C1149 1.495 . S
C1153 H1159 0.959 . S
C1153 H1160 0.961 . S
C1153 H1161 0.960 . S
C1154 C1152 1.381 . S
C1154 C1155 1.394 . S
C1154 H1162 0.930 . S
C1155 C1154 1.394 . S
C1155 C1156 1.383 . S
C1155 H1163 0.929 . S
C1156 C1155 1.383 . S
C1156 C1157 1.377 1_655 S
C1157 H1141 0.930 . S
C1157 C1156 1.377 1_455 S
C1157 C1158 1.379 . S
C1158 H1142 0.931 . S
C1158 C1152 1.383 1_455 S
C1158 C1157 1.379 . S
H1159 C1153 0.959 . S
H1160 C1153 0.961 . S
H1161 C1153 0.960 . S
H1162 C1154 0.930 . S
H1163 C1155 0.929 . S
H1164 C1172 0.929 . S
H1165 C1174 0.930 . S
H1166 C1176 0.930 . S
H1167 C1179 0.929 . S
H1168 C1182 0.930 . S
H1169 C1184 0.960 . S
H1170 C1184 0.960 . S
H1171 C1184 0.960 . S
C1172 H1164 0.929 . S
C1172 C1173 1.377 . S
C1172 C1174 1.384 . S
C1173 C1172 1.377 . S
C1173 C1179 1.390 . S
C1174 H1165 0.930 . S
C1174 C1172 1.384 . S
C1174 C1175 1.372 . S
C1175 C1174 1.372 . S
C1175 C1176 1.400 . S
C1175 C1180 1.490 . S
C1176 H1166 0.930 . S
C1176 C1175 1.400 . S
C1176 C1179 1.386 . S
H1177 C1193 0.930 . S
H1178 C1194 0.931 . S
C1179 H1167 0.929 . S
C1179 C1173 1.390 . S
C1179 C1176 1.386 . S
C1180 C1175 1.490 . S
C1180 C1182 1.395 . S
C1180 C1183 1.403 . S
H1181 C1187 0.930 . S
C1182 H1168 0.930 . S
C1182 C1180 1.395 . S
C1182 C1185 1.403 . S
C1183 C1180 1.403 . S
C1183 C1184 1.524 . S
C1183 C1187 1.400 . S
C1184 H1169 0.960 . S
C1184 H1170 0.960 . S
C1184 H1171 0.960 . S
C1184 C1183 1.524 . S
C1185 C1182 1.403 . S
C1185 C1186 1.392 . S
C1185 C1189 1.495 . S
C1186 C1185 1.392 . S
C1186 C1187 1.385 . S
C1186 C1188 1.478 . S
C1187 H1181 0.930 . S
C1187 C1183 1.400 . S
C1187 C1186 1.385 . S
C1188 C1186 1.478 . S
C1188 C1190 1.381 . S
C1188 C1194 1.383 . S
C1189 C1185 1.495 . S
C1189 H1195 0.959 . S
C1189 H1196 0.961 . S
C1189 H1197 0.960 . S
C1190 C1188 1.381 . S
C1190 C1191 1.394 . S
C1190 H1198 0.930 . S
C1191 C1190 1.394 . S
C1191 C1192 1.383 . S
C1191 H1199 0.929 . S
C1192 C1191 1.383 . S
C1192 C1193 1.377 . S
C1193 H1177 0.930 . S
C1193 C1192 1.377 . S
C1193 C1194 1.379 . S
C1194 H1178 0.931 . S
C1194 C1188 1.383 . S
C1194 C1193 1.379 . S
H1195 C1189 0.959 . S
H1196 C1189 0.961 . S
H1197 C1189 0.960 . S
H1198 C1190 0.930 . S
H1199 C1191 0.929 . S
H1200 C1208 0.929 . S
H1201 C1210 0.930 . S
H1202 C1212 0.930 . S
H1203 C1215 0.929 . S
H1204 C1218 0.930 . S
H1205 C1220 0.960 . S
H1206 C1220 0.960 . S
H1207 C1220 0.960 . S
C1208 H1200 0.929 . S
C1208 C1209 1.377 . S
C1208 C1210 1.384 . S
C1209 C1208 1.377 . S
C1209 C1215 1.390 . S
C1210 H1201 0.930 . S
C1210 C1208 1.384 . S
C1210 C1211 1.372 . S
C1211 C1210 1.372 . S
C1211 C1212 1.400 . S
C1211 C1216 1.490 . S
C1212 H1202 0.930 . S
C1212 C1211 1.400 . S
C1212 C1215 1.386 . S
H1213 C1229 0.930 . S
H1214 C1230 0.931 . S
C1215 H1203 0.929 . S
C1215 C1209 1.390 . S
C1215 C1212 1.386 . S
C1216 C1211 1.490 . S
C1216 C1218 1.395 . S
C1216 C1219 1.403 . S
H1217 C1223 0.930 . S
C1218 H1204 0.930 . S
C1218 C1216 1.395 . S
C1218 C1221 1.403 . S
C1219 C1216 1.403 . S
C1219 C1220 1.524 . S
C1219 C1223 1.400 . S
C1220 H1205 0.960 . S
C1220 H1206 0.960 . S
C1220 H1207 0.960 . S
C1220 C1219 1.524 . S
C1221 C1218 1.403 . S
C1221 C1222 1.392 . S
C1221 C1225 1.495 . S
C1222 C1221 1.392 . S
C1222 C1223 1.385 . S
C1222 C1224 1.478 . S
C1223 H1217 0.930 . S
C1223 C1219 1.400 . S
C1223 C1222 1.385 . S
C1224 C1222 1.478 . S
C1224 C1226 1.381 . S
C1224 C1230 1.383 . S
C1225 C1221 1.495 . S
C1225 H1231 0.959 . S
C1225 H1232 0.961 . S
C1225 H1233 0.960 . S
C1226 C1224 1.381 . S
C1226 C1227 1.394 . S
C1226 H1234 0.930 . S
C1227 C1226 1.394 . S
C1227 C1228 1.383 . S
C1227 H1235 0.929 . S
C1228 C1227 1.383 . S
C1228 C1229 1.377 . S
C1229 H1213 0.930 . S
C1229 C1228 1.377 . S
C1229 C1230 1.379 . S
C1230 H1214 0.931 . S
C1230 C1224 1.383 . S
C1230 C1229 1.379 . S
H1231 C1225 0.959 . S
H1232 C1225 0.961 . S
H1233 C1225 0.960 . S
H1234 C1226 0.930 . S
H1235 C1227 0.929 . S
H1236 C1244 0.929 . S
H1237 C1246 0.930 . S
H1238 C1248 0.930 . S
H1239 C1251 0.929 . S
H1240 C1254 0.930 . S
H1241 C1256 0.960 . S
H1242 C1256 0.960 . S
H1243 C1256 0.960 . S
C1244 H1236 0.929 . S
C1244 C1245 1.377 . S
C1244 C1246 1.384 . S
C1245 C1244 1.377 . S
C1245 C1251 1.390 . S
C1246 H1237 0.930 . S
C1246 C1244 1.384 . S
C1246 C1247 1.372 . S
C1247 C1246 1.372 . S
C1247 C1248 1.400 . S
C1247 C1252 1.490 . S
C1248 H1238 0.930 . S
C1248 C1247 1.400 . S
C1248 C1251 1.386 . S
H1249 C1265 0.930 . S
H1250 C1266 0.931 . S
C1251 H1239 0.929 . S
C1251 C1245 1.390 . S
C1251 C1248 1.386 . S
C1252 C1247 1.490 . S
C1252 C1254 1.395 . S
C1252 C1255 1.403 . S
H1253 C1259 0.930 . S
C1254 H1240 0.930 . S
C1254 C1252 1.395 . S
C1254 C1257 1.403 . S
C1255 C1252 1.403 . S
C1255 C1256 1.524 . S
C1255 C1259 1.400 . S
C1256 H1241 0.960 . S
C1256 H1242 0.960 . S
C1256 H1243 0.960 . S
C1256 C1255 1.524 . S
C1257 C1254 1.403 . S
C1257 C1258 1.392 . S
C1257 C1261 1.495 . S
C1258 C1257 1.392 . S
C1258 C1259 1.385 . S
C1258 C1260 1.478 . S
C1259 H1253 0.930 . S
C1259 C1255 1.400 . S
C1259 C1258 1.385 . S
C1260 C1258 1.478 . S
C1260 C1262 1.381 . S
C1260 C1266 1.383 . S
C1261 C1257 1.495 . S
C1261 H1267 0.959 . S
C1261 H1268 0.961 . S
C1261 H1269 0.960 . S
C1262 C1260 1.381 . S
C1262 C1263 1.394 . S
C1262 H1270 0.930 . S
C1263 C1262 1.394 . S
C1263 C1264 1.383 . S
C1263 H1271 0.929 . S
C1264 C1263 1.383 . S
C1264 C1265 1.377 . S
C1265 H1249 0.930 . S
C1265 C1264 1.377 . S
C1265 C1266 1.379 . S
C1266 H1250 0.931 . S
C1266 C1260 1.383 . S
C1266 C1265 1.379 . S
H1267 C1261 0.959 . S
H1268 C1261 0.961 . S
H1269 C1261 0.960 . S
H1270 C1262 0.930 . S
H1271 C1263 0.929 . S
C417 C241 1.759 . S
C436 C298 1.772 . S
C472 C328 1.669 . S
C453 C277 1.669 . S
C508 N362 1.667 . S
C489 C169 1.697 . S
C544 N392 1.295 . S
C525 C205 1.290 1_655 S
C580 C289 1.787 1_565 S
C561 C97 1.727 . S
C597 C133 1.657 . S
C616 C319 1.682 . S
C633 C25 1.654 . S
C652 N354 1.699 . S
C669 C61 1.283 . S
C688 N384 1.278 . S
C724 C304 0.714 . S
C705 C211 0.762 . S
C760 C334 0.377 . S
C741 C247 0.431 . S
C796 C375 0.173 . S
C777 C253 0.206 . S
C813 C175 0.415 . S
C832 C405 0.440 . S
C849 C67 0.791 1_655 S
C868 C315 0.752 . S
C904 C345 0.407 . S
C885 C103 0.548 . S
C940 C364 0.253 . S
C921 C109 0.275 . S
C957 C31 0.565 . S
C976 C394 0.476 . S
C993 C181 1.617 . S
C1012 N294 1.638 . S
C1029 C217 1.760 . S
C1048 N324 1.787 . S
C1084 C349 1.804 . S
C1065 C283 1.726 . S
C1120 C379 2.089 . S
C1101 C145 2.028 . S
C1137 C37 1.611 1_655 S
C1156 N302 1.647 . S
C1192 N332 1.781 . S
C1173 C73 1.736 . S
C1228 C358 1.808 . S
C1209 C139 1.717 . S
C1245 C1 1.997 . S
C1264 C388 2.094 . S
