# Generated by pormake.
# Topology apo, (3,6)-cn, num edge types: 1
# Building blocks:
#     Node 0, Type 0, BuildingBlock: MIDCAF_clean_linker_0, # of connection points: 3
#     Node 1, Type 0, BuildingBlock: MIDCAF_clean_linker_0, # of connection points: 3
#     Node 2, Type 0, BuildingBlock: MIDCAF_clean_linker_0, # of connection points: 3
#     Node 3, Type 0, BuildingBlock: MIDCAF_clean_linker_0, # of connection points: 3
#     Node 4, Type 0, BuildingBlock: MIDCAF_clean_linker_0, # of connection points: 3
#     Node 5, Type 0, BuildingBlock: MIDCAF_clean_linker_0, # of connection points: 3
#     Node 6, Type 0, BuildingBlock: MIDCAF_clean_linker_0, # of connection points: 3
#     Node 7, Type 0, BuildingBlock: MIDCAF_clean_linker_0, # of connection points: 3
#     Node 8, Type 1, BuildingBlock: KUMBUR_clean_sbu_1, # of connection points: 6
#     Node 9, Type 1, BuildingBlock: KUMBUR_clean_sbu_1, # of connection points: 6
#     Node 10, Type 1, BuildingBlock: KUMBUR_clean_sbu_1, # of connection points: 6
#     Node 11, Type 1, BuildingBlock: KUMBUR_clean_sbu_1, # of connection points: 6
#     Edge 12, Type (0, 1), BuildingBlock: OJICUG_clean_linker_0, # of connection points: 2
#     Edge 13, Type (0, 1), BuildingBlock: OJICUG_clean_linker_0, # of connection points: 2
#     Edge 14, Type (0, 1), BuildingBlock: OJICUG_clean_linker_0, # of connection points: 2
#     Edge 15, Type (0, 1), BuildingBlock: OJICUG_clean_linker_0, # of connection points: 2
#     Edge 16, Type (0, 1), BuildingBlock: OJICUG_clean_linker_0, # of connection points: 2
#     Edge 17, Type (0, 1), BuildingBlock: OJICUG_clean_linker_0, # of connection points: 2
#     Edge 18, Type (0, 1), BuildingBlock: OJICUG_clean_linker_0, # of connection points: 2
#     Edge 19, Type (0, 1), BuildingBlock: OJICUG_clean_linker_0, # of connection points: 2
#     Edge 20, Type (0, 1), BuildingBlock: OJICUG_clean_linker_0, # of connection points: 2
#     Edge 21, Type (0, 1), BuildingBlock: OJICUG_clean_linker_0, # of connection points: 2
#     Edge 22, Type (0, 1), BuildingBlock: OJICUG_clean_linker_0, # of connection points: 2
#     Edge 23, Type (0, 1), BuildingBlock: OJICUG_clean_linker_0, # of connection points: 2
#     Edge 24, Type (0, 1), BuildingBlock: OJICUG_clean_linker_0, # of connection points: 2
#     Edge 25, Type (0, 1), BuildingBlock: OJICUG_clean_linker_0, # of connection points: 2
#     Edge 26, Type (0, 1), BuildingBlock: OJICUG_clean_linker_0, # of connection points: 2
#     Edge 27, Type (0, 1), BuildingBlock: OJICUG_clean_linker_0, # of connection points: 2
#     Edge 28, Type (0, 1), BuildingBlock: OJICUG_clean_linker_0, # of connection points: 2
#     Edge 29, Type (0, 1), BuildingBlock: OJICUG_clean_linker_0, # of connection points: 2
#     Edge 30, Type (0, 1), BuildingBlock: OJICUG_clean_linker_0, # of connection points: 2
#     Edge 31, Type (0, 1), BuildingBlock: OJICUG_clean_linker_0, # of connection points: 2
#     Edge 32, Type (0, 1), BuildingBlock: OJICUG_clean_linker_0, # of connection points: 2
#     Edge 33, Type (0, 1), BuildingBlock: OJICUG_clean_linker_0, # of connection points: 2
#     Edge 34, Type (0, 1), BuildingBlock: OJICUG_clean_linker_0, # of connection points: 2
#     Edge 35, Type (0, 1), BuildingBlock: OJICUG_clean_linker_0, # of connection points: 2
# Relax obj value: 0.008
# Max RMSD: 0.110
# Mean RMSD: 0.085
data_MOF--net-apo--node1-KUMBUR_clean_sbu_1--node2-MIDCAF_clean_linker_0--edge1-OJICUG_clean_linker_0
_symmetry_space_group_name_H-M    P1
_symmetry_Int_Tables_number       1
_symmetry_cell_setting            triclinic
loop_
_symmetry_equiv_pos_as_xyz
'x, y, z'
_cell_length_a     22.577375
_cell_length_b     40.677943
_cell_length_c     50.96494
_cell_angle_alpha  89.999752
_cell_angle_beta   90.163098
_cell_angle_gamma 91.768976
loop_
_atom_site_label
_atom_site_type_symbol
_atom_site_fract_x
_atom_site_fract_y
_atom_site_fract_z
_atom_type_partial_charge
C0 C 0.36507 0.39063 0.50601 0.0
C1 C 0.32646 0.37369 0.52328 0.0
C2 C 0.2831 0.35186 0.51263 0.0
C3 C 0.27652 0.34853 0.48533 0.0
H4 H 0.24173 0.27949 0.41332 0.0
H5 H 0.18921 0.23691 0.38716 0.0
H6 H 0.13995 0.31063 0.3309 0.0
H7 H 0.19171 0.35271 0.35666 0.0
H8 H 0.27999 0.41183 0.34864 0.0
H9 H 0.31417 0.45888 0.32294 0.0
H10 H 0.42267 0.4929 0.38805 0.0
H11 H 0.38722 0.4461 0.41417 0.0
H12 H 0.38786 0.40177 0.46629 0.0
H13 H 0.39995 0.40699 0.51345 0.0
H14 H 0.25243 0.33852 0.52532 0.0
H15 H 0.24117 0.33259 0.47775 0.0
N16 N 0.26866 0.34323 0.42729 0.0
N17 N 0.27688 0.37187 0.38738 0.0
N18 N 0.3219 0.39383 0.42507 0.0
C19 C 0.2564 0.34533 0.40112 0.0
C20 C 0.30969 0.39617 0.39907 0.0
C21 C 0.30153 0.36761 0.43939 0.0
C22 C 0.22104 0.31946 0.38706 0.0
C23 C 0.21908 0.28655 0.39552 0.0
C24 C 0.1895 0.26218 0.38046 0.0
C25 C 0.1605 0.27046 0.35698 0.0
C26 C 0.16137 0.30348 0.34899 0.0
C27 C 0.1914 0.32759 0.36374 0.0
C28 C 0.33093 0.42503 0.38353 0.0
C29 C 0.31118 0.42926 0.35757 0.0
C30 C 0.33104 0.45622 0.34272 0.0
C31 C 0.37144 0.47961 0.35335 0.0
C32 C 0.39102 0.47554 0.37935 0.0
C33 C 0.37091 0.44859 0.39429 0.0
C34 C 0.31293 0.36711 0.46815 0.0
C35 C 0.35824 0.38751 0.47887 0.0
C36 C 0.19903 0.08138 1.01038 0.0
C37 C 0.21169 0.11025 0.02473 0.0
C38 C 0.22438 0.1396 1.01099 0.0
C39 C 0.22599 0.13984 0.9835 0.0
H40 H 0.26913 0.19984 0.91477 0.0
H41 H 0.31761 0.24395 0.88889 0.0
H42 H 0.34944 0.17481 0.82666 0.0
H43 H 0.30157 0.13118 0.85203 0.0
H44 H 0.24129 0.06414 0.85091 0.0
H45 H 0.20681 0.01739 0.82494 0.0
H46 H 0.08975 0.98657 0.88788 0.0
H47 H 0.12613 0.03299 0.9144 0.0
H48 H 0.19058 0.05881 0.97266 0.0
H49 H 0.18836 0.05848 0.0204 0.0
H50 H 0.23457 0.16221 0.02152 0.0
H51 H 0.23693 0.16275 0.97356 0.0
N52 N 0.24456 0.13626 0.92684 0.0
N53 N 0.23257 0.10756 0.88722 0.0
N54 N 0.19955 0.08329 0.92634 0.0
C55 C 0.25164 0.13487 0.90035 0.0
C56 C 0.20631 0.08179 0.8999 0.0
C57 C 0.21873 0.11039 0.94002 0.0
C58 C 0.28146 0.16198 0.88551 0.0
C59 C 0.28666 0.19413 0.8956 0.0
C60 C 0.31398 0.21937 0.88076 0.0
C61 C 0.33742 0.21269 0.85584 0.0
C62 C 0.3323 0.18059 0.8459 0.0
C63 C 0.3045 0.15563 0.86045 0.0
C64 C 0.1862 0.05244 0.88472 0.0
C65 C 0.20824 0.04741 0.8593 0.0
C66 C 0.18817 0.02063 0.84429 0.0
C67 C 0.14496 -0.00166 0.85414 0.0
C68 C 0.12351 0.00305 0.87975 0.0
C69 C 0.14416 0.02974 0.89493 0.0
C70 C 0.21423 0.11081 0.96913 0.0
C71 C 0.19997 0.08168 0.98296 0.0
C72 C 0.86362 0.11032 0.52283 0.0
C73 C 0.86608 0.14292 0.51363 0.0
C74 C 0.85381 0.16851 0.53106 0.0
C75 C 0.83855 0.16171 0.55706 0.0
H76 H 0.70056 0.18703 0.6126 0.0
H77 H 0.64313 0.22655 0.63691 0.0
H78 H 0.71129 0.18829 0.70982 0.0
H79 H 0.76603 0.14789 0.68557 0.0
H80 H 0.77505 0.06514 0.6781 0.0
H81 H 0.80644 0.01788 0.7029 0.0
H82 H 0.93569 -0.00261 0.64317 0.0
H83 H 0.90289 0.04442 0.61779 0.0
H84 H 0.84763 0.07817 0.55563 0.0
H85 H 0.87305 0.09015 0.50977 0.0
H86 H 0.85485 0.19383 0.52442 0.0
H87 H 0.82888 0.18208 0.56987 0.0
N88 N 0.78699 0.14487 0.60723 0.0
N89 N 0.78759 0.11164 0.64467 0.0
N90 N 0.83452 0.09426 0.60629 0.0
C91 C 0.77134 0.13963 0.63259 0.0
C92 C 0.81893 0.08878 0.63177 0.0
C93 C 0.81863 0.1224 0.59393 0.0
C94 C 0.73758 0.16424 0.64716 0.0
C95 C 0.70314 0.1871 0.63382 0.0
C96 C 0.67044 0.20987 0.64779 0.0
C97 C 0.67225 0.21063 0.6754 0.0
C98 C 0.70752 0.188 0.68864 0.0
C99 C 0.73934 0.16492 0.6747 0.0
C100 C 0.83668 0.05877 0.64595 0.0
C101 C 0.8101 0.05058 0.67012 0.0
C102 C 0.82838 0.02351 0.6845 0.0
C103 C 0.87406 0.00396 0.67525 0.0
C104 C 0.89997 0.01172 0.65081 0.0
C105 C 0.88132 0.03876 0.63627 0.0
C106 C 0.83608 0.12915 0.56639 0.0
C107 C 0.84935 0.10351 0.54907 0.0
C108 C 0.65617 0.3928 0.02298 0.0
C109 C 0.67702 0.36641 1.0082 0.0
C110 C 0.70176 0.33978 0.02145 0.0
C111 C 0.70694 0.33994 0.04882 0.0
H112 H 0.80164 0.2966 0.11358 0.0
H113 H 0.85205 0.25518 0.13934 0.0
H114 H 0.76176 0.28729 0.20907 0.0
H115 H 0.71353 0.32922 0.18364 0.0
H116 H 0.72856 0.41475 0.18101 0.0
H117 H 0.7018 0.46225 0.20669 0.0
H118 H 0.58347 0.49181 0.14476 0.0
H119 H 0.61219 0.44482 0.11854 0.0
H120 H 0.64527 0.41394 0.06095 0.0
H121 H 0.63609 0.41347 0.01341 0.0
H122 H 0.71885 0.31923 1.01064 0.0
H123 H 0.72724 0.31928 0.05831 0.0
N124 N 0.7199 0.34227 0.1055 0.0
N125 N 0.71176 0.37075 0.14522 0.0
N126 N 0.67956 0.39486 0.10626 0.0
C127 C 0.72764 0.34358 0.13196 0.0
C128 C 0.68797 0.39649 0.13262 0.0
C129 C 0.69546 0.36784 0.09251 0.0
C130 C 0.75411 0.31634 0.14661 0.0
C131 C 0.79233 0.29456 0.13436 0.0
C132 C 0.82105 0.27079 0.14914 0.0
C133 C 0.81145 0.26811 0.17638 0.0
C134 C 0.77144 0.28918 0.18832 0.0
C135 C 0.74344 0.31311 0.17366 0.0
C136 C 0.67226 0.42594 0.14775 0.0
C137 C 0.69688 0.4314 0.17281 0.0
C138 C 0.68131 0.45858 0.18764 0.0
C139 C 0.6402 0.48079 0.17792 0.0
C140 C 0.61596 0.47548 0.15272 0.0
C141 C 0.63214 0.44845 0.13772 0.0
C142 C 0.68745 0.36675 0.06357 0.0
C143 C 0.6613 0.39297 0.05031 0.0
C144 C 0.7137 0.57663 0.51519 0.0
C145 C 0.72693 0.6051 0.50043 0.0
C146 C 0.74029 0.63468 0.51374 0.0
C147 C 0.74065 0.63576 0.54119 0.0
H148 H 0.83593 0.67922 0.60894 0.0
H149 H 0.88485 0.72314 0.63471 0.0
H150 H 0.76585 0.70231 0.69912 0.0
H151 H 0.71753 0.65823 0.6737 0.0
H152 H 0.65364 0.58588 0.67524 0.0
H153 H 0.61481 0.54012 0.70123 0.0
H154 H 0.64955 0.4736 0.63727 0.0
H155 H 0.6857 0.51985 0.6108 0.0
H156 H 0.70274 0.55535 0.55331 0.0
H157 H 0.70266 0.55354 0.50551 0.0
H158 H 0.75116 0.65697 0.50292 0.0
H159 H 0.75111 0.65899 0.55077 0.0
N160 N 0.74877 0.63531 0.59818 0.0
N161 N 0.72091 0.61139 0.63833 0.0
N162 N 0.70142 0.58307 0.59906 0.0
C163 C 0.74638 0.63682 0.62482 0.0
C164 C 0.6986 0.58439 0.62567 0.0
C165 C 0.7259 0.60858 0.58513 0.0
C166 C 0.773 0.66519 0.63931 0.0
C167 C 0.81986 0.68425 0.62849 0.0
C168 C 0.84807 0.70921 0.64326 0.0
C169 C 0.8291 0.716 0.66888 0.0
C170 C 0.78109 0.69768 0.67936 0.0
C171 C 0.75366 0.67236 0.66483 0.0
C172 C 0.67292 0.5565 0.64097 0.0
C173 C 0.65273 0.5615 0.66667 0.0
C174 C 0.63083 0.53513 0.68167 0.0
C175 C 0.62947 0.50293 0.67155 0.0
C176 C 0.64904 0.49803 0.64567 0.0
C177 C 0.67009 0.52455 0.63048 0.0
C178 C 0.72701 0.60733 0.55599 0.0
C179 C 0.71346 0.57776 0.54262 0.0
C180 C 0.79288 0.90672 0.01479 0.0
C181 C 0.77901 0.87878 0.99949 0.0
C182 C 0.76367 0.84909 1.01229 0.0
C183 C 0.76188 0.84748 0.03976 0.0
H184 H 0.65882 0.80633 0.10957 0.0
H185 H 0.60898 0.76342 0.13612 0.0
H186 H 0.73987 0.77839 0.19716 0.0
H187 H 0.78883 0.82154 0.17108 0.0
H188 H 0.84987 0.89607 0.17429 0.0
H189 H 0.88823 0.94188 0.2005 0.0
H190 H 0.84841 0.00884 0.13737 0.0
H191 H 0.81304 0.96258 0.11066 0.0
H192 H 0.80287 0.92715 0.05321 0.0
H193 H 0.80554 0.92987 1.00557 0.0
H194 H 0.75229 0.82718 1.00105 0.0
H195 H 0.74992 0.82422 0.04895 0.0
N196 N 0.75259 0.84711 0.09709 0.0
N197 N 0.7802 0.87085 0.13747 0.0
N198 N 0.80055 0.89921 0.09839 0.0
C199 C 0.75463 0.84554 0.12378 0.0
C200 C 0.80288 0.89783 0.12499 0.0
C201 C 0.7761 0.87384 0.08423 0.0
C202 C 0.72765 0.81732 0.13826 0.0
C203 C 0.67726 0.80016 0.12852 0.0
C204 C 0.64854 0.77582 0.14375 0.0
C205 C 0.67062 0.76772 0.16867 0.0
C206 C 0.72213 0.78407 0.17797 0.0
C207 C 0.74999 0.80882 0.16306 0.0
C208 C 0.82829 0.92571 0.14042 0.0
C209 C 0.84963 0.92057 0.16596 0.0
C210 C 0.87123 0.94696 0.18109 0.0
C211 C 0.87099 0.97931 0.17128 0.0
C212 C 0.85023 0.98433 0.14554 0.0
C213 C 0.82961 0.9578 0.13022 0.0
C214 C 0.77604 0.87545 0.05506 0.0
C215 C 0.79161 0.90507 0.04217 0.0
C216 C 0.14883 0.89089 0.49986 0.0
C217 C 0.17194 0.86547 0.51508 0.0
C218 C 0.2003 0.83968 0.50231 0.0
C219 C 0.20742 0.83999 0.47503 0.0
H220 H 0.23915 0.78106 0.4023 0.0
H221 H 0.28535 0.73861 0.37623 0.0
H222 H 0.36475 0.81383 0.32635 0.0
H223 H 0.31592 0.85574 0.35148 0.0
H224 H 0.23733 0.91949 0.34417 0.0
H225 H 0.20534 0.96612 0.31852 0.0
H226 H 0.07863 0.98885 0.37881 0.0
H227 H 0.11214 0.9429 0.40491 0.0
H228 H 0.13838 0.91159 0.46171 0.0
H229 H 0.12591 0.91084 0.50905 0.0
H230 H 0.21906 0.81987 0.51349 0.0
H231 H 0.23095 0.8202 0.46595 0.0
N232 N 0.22796 0.84417 0.41877 0.0
N233 N 0.22576 0.87453 0.37967 0.0
N234 N 0.18198 0.89518 0.41755 0.0
C235 C 0.24184 0.84733 0.39292 0.0
C236 C 0.19556 0.89844 0.39173 0.0
C237 C 0.19829 0.86823 0.43129 0.0
C238 C 0.27371 0.82162 0.37883 0.0
C239 C 0.26675 0.78838 0.38582 0.0
C240 C 0.29341 0.7641 0.37087 0.0
C241 C 0.32856 0.77265 0.34894 0.0
C242 C 0.33674 0.80611 0.34256 0.0
C243 C 0.3092 0.83023 0.35716 0.0
C244 C 0.17721 0.92744 0.3766 0.0
C245 C 0.20276 0.9345 0.35202 0.0
C246 C 0.18418 0.96114 0.3372 0.0
C247 C 0.13927 0.9812 0.34651 0.0
C248 C 0.11402 0.97425 0.3712 0.0
C249 C 0.13303 0.94779 0.38614 0.0
C250 C 0.18626 0.86611 0.45991 0.0
C251 C 0.15585 0.8912 0.47264 0.0
C252 C 0.36187 0.60932 1.00401 0.0
C253 C 0.36156 0.64185 0.01331 0.0
C254 C 0.34718 0.66712 0.99587 0.0
C255 C 0.33245 0.66002 0.9698 0.0
H256 H 0.26241 0.70214 0.9023 0.0
H257 H 0.21118 0.74255 0.87625 0.0
H258 H 0.13939 0.66479 0.82653 0.0
H259 H 0.19321 0.62467 0.85182 0.0
H260 H 0.25993 0.55589 0.85319 0.0
H261 H 0.29342 0.50894 0.82849 0.0
H262 H 0.43848 0.49847 0.88312 0.0
H263 H 0.40343 0.54481 0.90845 0.0
H264 H 0.3482 0.5769 0.97123 0.0
H265 H 0.37307 0.58938 0.01703 0.0
H266 H 0.346 0.69238 1.00255 0.0
H267 H 0.32094 0.68012 0.95701 0.0
N268 N 0.28331 0.64235 0.91915 0.0
N269 N 0.27933 0.6069 0.88298 0.0
N270 N 0.32891 0.59128 0.92134 0.0
C271 C 0.26529 0.63582 0.89421 0.0
C272 C 0.31138 0.58459 0.89626 0.0
C273 C 0.31464 0.62013 0.93296 0.0
C274 C 0.23197 0.66023 0.8791 0.0
C275 C 0.23555 0.69369 0.88584 0.0
C276 C 0.20583 0.71687 0.87094 0.0
C277 C 0.1709 0.70706 0.8492 0.0
C278 C 0.16674 0.67343 0.84275 0.0
C279 C 0.19729 0.65035 0.85739 0.0
C280 C 0.32921 0.55423 0.88273 0.0
C281 C 0.29874 0.54343 0.86008 0.0
C282 C 0.31825 0.5166 0.84577 0.0
C283 C 0.36919 0.50008 0.85354 0.0
C284 C 0.39874 0.51033 0.87665 0.0
C285 C 0.37875 0.537 0.89117 0.0
C286 C 0.33247 0.62749 0.96043 0.0
C287 C 0.34796 0.60223 0.97777 0.0
Tb288 Tb 0.06091 0.13449 0.23539 0.0
C289 C 0.80168 0.10994 0.26968 0.0
N290 N 0.83621 0.13776 0.27207 0.0
C291 C 0.75641 0.16973 0.25564 0.0
C292 C 0.744 0.11074 0.25907 0.0
C293 C 0.81271 0.16769 0.26695 0.0
C294 C 0.72232 0.14105 0.25118 0.0
C295 C 0.78615 0.05225 0.28048 0.0
C296 C 0.8223 0.08109 0.2801 0.0
C297 C 0.72987 0.05244 0.26867 0.0
C298 C 0.70891 0.08161 0.25789 0.0
Tb299 Tb 0.92875 0.1307 0.2896 0.0
N300 N 0.87719 0.08176 0.29103 0.0
C301 C 0.80706 0.02449 0.29342 0.0
C302 C 0.89652 0.05549 0.30502 0.0
C303 C 0.86212 0.0263 0.3061 0.0
H304 H 0.8366 0.1902 0.27199 0.0
H305 H 0.87804 0.00525 0.31668 0.0
H306 H 0.16722 0.09534 0.26561 0.0
H307 H 0.05178 0.25866 0.19708 0.0
H308 H 0.9389 0.05703 0.31494 0.0
H309 H 0.78052 0.00187 0.29426 0.0
H310 H 0.01902 0.20087 0.2014 0.0
H311 H 0.73884 0.19348 0.25094 0.0
H312 H 0.7016 0.03043 0.26844 0.0
H313 H 0.66468 0.08168 0.24958 0.0
H314 H 0.26569 0.1089 0.28464 0.0
H315 H 0.67827 0.14274 0.24289 0.0
H316 H 0.14481 0.27849 0.21834 0.0
N317 N 0.15229 0.14436 0.25329 0.0
C318 C 0.17519 0.17545 0.25084 0.0
C319 C 0.24046 0.12791 0.27537 0.0
C320 C 0.2311 0.18435 0.26142 0.0
C321 C 0.18447 0.12036 0.26476 0.0
C322 C 0.26371 0.16011 0.27389 0.0
N323 N 0.08814 0.1885 0.22788 0.0
C324 C 0.05747 0.20938 0.21225 0.0
C325 C 0.16335 0.23107 0.23525 0.0
C326 C 0.14148 0.19843 0.23811 0.0
C327 C 0.12961 0.25318 0.22101 0.0
C328 C 0.07692 0.24213 0.20911 0.0
H329 H 0.30697 0.16591 0.28223 0.0
H330 H 0.29521 0.22444 0.26733 0.0
H331 H 0.23598 0.26536 0.24431 0.0
O332 O 0.08873 0.14063 0.19635 0.0
O333 O 0.07593 0.1535 0.27552 0.0
O334 O 0.98639 0.17472 0.28642 0.0
O335 O 0.09958 0.09457 0.21618 0.0
O336 O 0.97517 0.15531 0.22502 0.0
O337 O 0.93562 0.17429 0.26387 0.0
O338 O 0.95168 0.12637 0.32948 0.0
O339 O 0.93649 0.08921 0.26205 0.0
O340 O 0.97209 0.1156 0.22574 0.0
O341 O 0.86899 0.14668 0.31813 0.0
O342 O 0.0129 0.10801 0.2989 0.0
O343 O 0.05665 0.09029 0.2602 0.0
C344 C 0.04441 0.17484 0.28834 0.0
C345 C 0.16473 0.10771 0.18058 0.0
C346 C 0.21676 0.10588 0.1386 0.0
C347 C 0.26959 0.09973 0.15218 0.0
C348 C 0.21788 0.10172 0.19379 0.0
C349 C 0.27006 0.09784 0.17958 0.0
C350 C 0.16453 0.11 0.15306 0.0
C351 C 0.94067 0.17507 0.2381 0.0
C352 C 0.1083 0.11109 0.19457 0.0
C353 C 0.25245 0.21702 0.25921 0.0
C354 C 0.21863 0.24034 0.24617 0.0
C355 C 0.94643 0.08989 0.2367 0.0
C356 C 0.91095 0.16476 0.3582 0.0
C357 C 0.90951 0.17838 0.40491 0.0
C358 C 0.92135 0.2116 0.39835 0.0
C359 C 0.92264 0.19788 0.35208 0.0
C360 C 0.90506 0.15508 0.3845 0.0
C361 C 0.9282 0.22115 0.37214 0.0
C362 C 0.04569 0.08758 0.2856 0.0
C363 C 0.90366 0.13979 0.33758 0.0
H364 H 0.31061 0.09666 0.14161 0.0
H365 H 0.21907 0.09981 0.21494 0.0
H366 H 0.311 0.0932 0.18984 0.0
H367 H 0.12325 0.11426 0.14285 0.0
H368 H 0.92414 0.2304 0.41337 0.0
H369 H 0.92684 0.20569 0.33185 0.0
H370 H 0.89705 0.12927 0.38895 0.0
H371 H 0.93704 0.24676 0.36734 0.0
Tb372 Tb 0.43378 0.35142 0.73783 0.0
C373 C 0.69757 0.36955 0.76217 0.0
N374 N 0.66187 0.34223 0.76474 0.0
C375 C 0.73461 0.31026 0.74285 0.0
C376 C 0.75211 0.3686 0.74883 0.0
C377 C 0.68176 0.31238 0.75692 0.0
C378 C 0.76944 0.33864 0.73832 0.0
C379 C 0.71985 0.42591 0.77525 0.0
C380 C 0.68185 0.3978 0.77508 0.0
C381 C 0.7728 0.4257 0.76086 0.0
C382 C 0.78881 0.39712 0.74758 0.0
Tb383 Tb 0.5754 0.34914 0.78745 0.0
N384 N 0.63026 0.39705 0.78867 0.0
C385 C 0.7042 0.45291 0.79052 0.0
C386 C 0.61608 0.42259 0.80464 0.0
C387 C 0.65246 0.45106 0.80556 0.0
H388 H 0.65789 0.28993 0.76201 0.0
H389 H 0.64068 0.4715 0.81788 0.0
H390 H 0.33234 0.38881 0.77178 0.0
H391 H 0.4303 0.23165 0.69073 0.0
H392 H 0.57645 0.421 0.81646 0.0
H393 H 0.73234 0.47495 0.7913 0.0
H394 H 0.46449 0.28897 0.69702 0.0
H395 H 0.74915 0.28662 0.73609 0.0
H396 H 0.80239 0.44718 0.76047 0.0
H397 H 0.83066 0.39695 0.73724 0.0
H398 H 0.23676 0.37422 0.79317 0.0
H399 H 0.81097 0.33683 0.72789 0.0
H400 H 0.34338 0.20961 0.71523 0.0
N401 N 0.34529 0.34036 0.75777 0.0
C402 C 0.32195 0.30944 0.75484 0.0
C403 C 0.26053 0.3557 0.78262 0.0
C404 C 0.26789 0.29992 0.76674 0.0
C405 C 0.31465 0.36388 0.7706 0.0
C406 C 0.23736 0.32348 0.78095 0.0
N407 N 0.40339 0.29844 0.72779 0.0
C408 C 0.42912 0.2793 0.70922 0.0
C409 C 0.32978 0.25526 0.73588 0.0
C410 C 0.35274 0.28752 0.73978 0.0
C411 C 0.35951 0.23459 0.71878 0.0
C412 C 0.40873 0.24689 0.705 0.0
H413 H 0.19556 0.31718 0.79037 0.0
H414 H 0.20478 0.25947 0.773 0.0
H415 H 0.25891 0.22033 0.74588 0.0
O416 O 0.39128 0.34974 0.70069 0.0
O417 O 0.42268 0.33274 0.77818 0.0
O418 O 0.51082 0.30811 0.78555 0.0
O419 O 0.3992 0.39533 0.72305 0.0
O420 O 0.51528 0.3285 0.7241 0.0
O421 O 0.55681 0.30666 0.76152 0.0
O422 O 0.56719 0.35182 0.82869 0.0
O423 O 0.56513 0.39189 0.76134 0.0
O424 O 0.52204 0.36785 0.72538 0.0
O425 O 0.63689 0.32508 0.81106 0.0
O426 O 0.49734 0.37469 0.80141 0.0
O427 O 0.44587 0.39356 0.76471 0.0
C428 C 0.45391 0.31034 0.78988 0.0
C429 C 0.34899 0.39839 0.68077 0.0
C430 C 0.32295 0.40583 0.63449 0.0
C431 C 0.29097 0.43363 0.64154 0.0
C432 C 0.31735 0.42642 0.68714 0.0
C433 C 0.28818 0.44374 0.66764 0.0
C434 C 0.35122 0.3879 0.6544 0.0
C435 C 0.54792 0.30661 0.73596 0.0
C436 C 0.38047 0.38086 0.7017 0.0
C437 C 0.24601 0.26742 0.76382 0.0
C438 C 0.27695 0.24512 0.74844 0.0
C439 C 0.55184 0.39234 0.73624 0.0
C440 C 0.65971 0.35302 0.8505 0.0
C441 C 0.69084 0.36914 0.89475 0.0
C442 C 0.74204 0.38453 0.88414 0.0
C443 C 0.71169 0.36814 0.84047 0.0
C444 C 0.64962 0.35344 0.8777 0.0
C445 C 0.75227 0.38397 0.8572 0.0
C446 C 0.46175 0.39541 0.78974 0.0
C447 C 0.61617 0.33665 0.83279 0.0
H448 H 0.26785 0.44759 0.62683 0.0
H449 H 0.31491 0.43488 0.70726 0.0
H450 H 0.26353 0.46522 0.67276 0.0
H451 H 0.37648 0.36661 0.64929 0.0
H452 H 0.77493 0.39641 0.89676 0.0
H453 H 0.72137 0.36753 0.81973 0.0
H454 H 0.60966 0.34174 0.88554 0.0
H455 H 0.79213 0.39557 0.84926 0.0
Tb456 Tb 0.07194 0.85059 0.73651 0.0
C457 C 0.81215 0.82158 0.77601 0.0
N458 N 0.84352 0.85028 0.77268 0.0
C459 C 0.7597 0.87417 0.75186 0.0
C460 C 0.75349 0.81775 0.7667 0.0
C461 C 0.8179 0.87671 0.76128 0.0
C462 C 0.72742 0.84451 0.75445 0.0
C463 C 0.80912 0.76531 0.79157 0.0
C464 C 0.83979 0.79574 0.78819 0.0
C465 C 0.75089 0.76118 0.78205 0.0
C466 C 0.72309 0.78736 0.76969 0.0
Tb467 Tb 0.93704 0.85216 0.78965 0.0
N468 N 0.89624 0.80067 0.79714 0.0
C469 C 0.8375 0.74013 0.80483 0.0
C470 C 0.92238 0.77682 0.81163 0.0
C471 C 0.89408 0.74608 0.81519 0.0
H472 H 0.84145 0.90009 0.76 0.0
H473 H 0.91551 0.72718 0.82639 0.0
H474 H 0.16478 0.79577 0.76147 0.0
H475 H 0.11599 0.97547 0.70554 0.0
H476 H 0.964 0.78145 0.82138 0.0
H477 H 0.8155 0.71638 0.80783 0.0
H478 H 0.06038 0.9221 0.70724 0.0
H479 H 0.73963 0.89518 0.7428 0.0
H480 H 0.72674 0.73793 0.78439 0.0
H481 H 0.67808 0.78387 0.76256 0.0
H482 H 0.25847 0.79684 0.78612 0.0
H483 H 0.68239 0.8426 0.74707 0.0
H484 H 0.20945 0.98311 0.73068 0.0
N485 N 0.16148 0.84779 0.75789 0.0
C486 C 0.19386 0.87649 0.75952 0.0
C487 C 0.24019 0.81959 0.77927 0.0
C488 C 0.24941 0.87817 0.77224 0.0
C489 C 0.18586 0.81917 0.76599 0.0
C490 C 0.2716 0.84935 0.78289 0.0
N491 N 0.12031 0.90062 0.73396 0.0
C492 C 0.10064 0.92548 0.71851 0.0
C493 C 0.20656 0.93352 0.7462 0.0
C494 C 0.17318 0.90373 0.74663 0.0
C495 C 0.18506 0.95978 0.73159 0.0
C496 C 0.13225 0.95558 0.71739 0.0
H497 H 0.31413 0.84954 0.7928 0.0
H498 H 0.32453 0.91003 0.78278 0.0
H499 H 0.28681 0.95859 0.76002 0.0
O500 O 0.06183 0.85396 0.69537 0.0
O501 O 0.06335 0.89225 0.76354 0.0
O502 O 0.02822 0.86606 0.79978 0.0
O503 O 0.13227 0.8269 0.71222 0.0
O504 O 0.98915 0.87335 0.72489 0.0
O505 O 0.9485 0.89467 0.76305 0.0
O506 O 0.90879 0.84779 0.82877 0.0
O507 O 0.91894 0.83087 0.75063 0.0
O508 O 0.00809 0.80912 0.73928 0.0
O509 O 0.90776 0.8945 0.80903 0.0
O510 O 0.01711 0.8256 0.80052 0.0
O511 O 0.06147 0.80713 0.7623 0.0
C512 C 0.05698 0.8908 0.78901 0.0
C513 C 0.15326 0.85533 0.6729 0.0
C514 C 0.18381 0.87077 0.6285 0.0
C515 C 0.23417 0.88725 0.63903 0.0
C516 C 0.20446 0.87148 0.68285 0.0
C517 C 0.24433 0.88751 0.66601 0.0
C518 C 0.14329 0.85486 0.64565 0.0
C519 C 0.95807 0.89538 0.73739 0.0
C520 C 0.1105 0.83878 0.69075 0.0
C521 C 0.28198 0.90819 0.77291 0.0
C522 C 0.26061 0.93582 0.75988 0.0
C523 C 0.95026 0.81031 0.73686 0.0
C524 C 0.83946 0.88517 0.84424 0.0
C525 C 0.78538 0.88833 0.88571 0.0
C526 C 0.73531 0.89843 0.87173 0.0
C527 C 0.78908 0.89543 0.83074 0.0
C528 C 0.83726 0.88153 0.87169 0.0
C529 C 0.73724 0.90184 0.84445 0.0
C530 C 0.05086 0.805 0.78776 0.0
C531 C 0.8953 0.87848 0.83057 0.0
H532 H 0.26647 0.89934 0.62633 0.0
H533 H 0.21413 0.87147 0.7036 0.0
H534 H 0.2836 0.89991 0.67389 0.0
H535 H 0.104 0.84231 0.63786 0.0
H536 H 0.6945 0.90349 0.88186 0.0
H537 H 0.78975 0.89874 0.80973 0.0
H538 H 0.8765 0.87409 0.88218 0.0
H539 H 0.69844 0.90966 0.83391 0.0
Tb540 Tb 0.43636 0.62872 0.23678 0.0
C541 C 0.6846 0.67378 0.27778 0.0
N542 N 0.6605 0.64311 0.27421 0.0
C543 C 0.74909 0.62642 0.25277 0.0
C544 C 0.74149 0.68233 0.2682 0.0
C545 C 0.69225 0.6192 0.26246 0.0
C546 C 0.77369 0.65819 0.25548 0.0
C547 C 0.6746 0.72884 0.29485 0.0
C548 C 0.65142 0.69665 0.29079 0.0
C549 C 0.73077 0.73781 0.28486 0.0
C550 C 0.76419 0.71458 0.27159 0.0
Tb551 Tb 0.56825 0.63363 0.29119 0.0
N552 N 0.59738 0.68696 0.30026 0.0
C553 C 0.64127 0.75077 0.30938 0.0
C554 C 0.56702 0.70756 0.31616 0.0
C555 C 0.58767 0.7399 0.32042 0.0
H556 H 0.67431 0.5944 0.26082 0.0
H557 H 0.56279 0.75622 0.33269 0.0
H558 H 0.33737 0.68335 0.25682 0.0
H559 H 0.40267 0.50108 0.2111 0.0
H560 H 0.52801 0.69901 0.32643 0.0
H561 H 0.65747 0.77573 0.31295 0.0
H562 H 0.45444 0.55572 0.21077 0.0
H563 H 0.77399 0.60744 0.24334 0.0
H564 H 0.74916 0.76248 0.28765 0.0
H565 H 0.80768 0.72173 0.26423 0.0
H566 H 0.24227 0.6819 0.28025 0.0
H567 H 0.81764 0.66373 0.24788 0.0
H568 H 0.30914 0.4931 0.23593 0.0
N569 N 0.3451 0.63129 0.25635 0.0
C570 C 0.31508 0.60201 0.25919 0.0
C571 C 0.26283 0.65915 0.27495 0.0
C572 C 0.25906 0.59997 0.27134 0.0
C573 C 0.3178 0.65987 0.26232 0.0
C574 C 0.23387 0.62901 0.28 0.0
N575 N 0.39192 0.57761 0.23591 0.0
C576 C 0.41381 0.55223 0.2217 0.0
C577 C 0.30761 0.54378 0.24889 0.0
C578 C 0.33863 0.57432 0.24807 0.0
C579 C 0.33167 0.51701 0.23582 0.0
C580 C 0.38451 0.5214 0.2218 0.0
H581 H 0.19089 0.62854 0.28943 0.0
H582 H 0.1862 0.56717 0.2829 0.0
H583 H 0.22888 0.51791 0.26328 0.0
O584 O 0.45396 0.62499 0.19632 0.0
O585 O 0.44991 0.58801 0.26434 0.0
O586 O 0.4793 0.61539 0.30117 0.0
O587 O 0.37144 0.64318 0.20986 0.0
O588 O 0.52223 0.60886 0.22659 0.0
O589 O 0.56522 0.59032 0.26526 0.0
O590 O 0.59744 0.63834 0.33025 0.0
O591 O 0.58351 0.65425 0.25172 0.0
O592 O 0.49297 0.67343 0.23893 0.0
O593 O 0.60368 0.59232 0.30981 0.0
O594 O 0.48302 0.65539 0.30086 0.0
O595 O 0.44032 0.6729 0.26198 0.0
C596 C 0.45387 0.58981 0.28993 0.0
C597 C 0.40642 0.66279 0.16907 0.0
C598 C 0.40155 0.67698 0.1225 0.0
C599 C 0.40718 0.71049 0.12941 0.0
C600 C 0.41167 0.69624 0.17551 0.0
C601 C 0.41251 0.71994 0.1557 0.0
C602 C 0.40189 0.65327 0.14266 0.0
C603 C 0.55585 0.58855 0.23965 0.0
C604 C 0.40391 0.63737 0.18952 0.0
C605 C 0.22901 0.56928 0.2734 0.0
C606 C 0.25322 0.54124 0.26216 0.0
C607 C 0.55126 0.6746 0.23808 0.0
C608 C 0.67132 0.60314 0.34507 0.0
C609 C 0.72537 0.59969 0.38659 0.0
C610 C 0.77661 0.59186 0.37258 0.0
C611 C 0.72288 0.59529 0.33144 0.0
C612 C 0.67293 0.60546 0.37258 0.0
C613 C 0.77529 0.58981 0.34519 0.0
C614 C 0.44844 0.67509 0.28762 0.0
C615 C 0.61463 0.60825 0.33155 0.0
H616 H 0.40614 0.72952 0.11458 0.0
H617 H 0.41437 0.70395 0.19582 0.0
H618 H 0.41639 0.74576 0.16076 0.0
H619 H 0.39854 0.62731 0.13791 0.0
H620 H 0.81781 0.58756 0.38278 0.0
H621 H 0.72263 0.5931 0.31032 0.0
H622 H 0.6328 0.61104 0.38312 0.0
H623 H 0.81499 0.58379 0.33459 0.0
C624 C 0.11247 0.00624 0.30305 0.0
C625 C 0.11832 0.00907 0.33049 0.0
H626 H 0.08519 0.02902 0.26722 0.0
C627 C 0.1028 0.03856 0.34264 0.0
H628 H 0.12337 0.98373 0.29307 0.0
C629 C 0.08022 0.06417 0.3279 0.0
C630 C 0.07323 0.06108 0.3006 0.0
H631 H 0.10803 0.04191 0.36361 0.0
H632 H 0.06809 0.08641 0.33798 0.0
C633 C 0.09044 0.03211 0.28822 0.0
C634 C 0.38916 0.47439 0.80961 0.0
C635 C 0.39213 0.47291 0.83719 0.0
H636 H 0.40846 0.4512 0.77305 0.0
C637 C 0.41782 0.44548 0.84893 0.0
H638 H 0.37077 0.49539 0.79981 0.0
C639 C 0.44033 0.42037 0.83352 0.0
C640 C 0.43724 0.4219 0.80598 0.0
H641 H 0.42008 0.44319 0.87008 0.0
H642 H 0.45978 0.39963 0.84327 0.0
C643 C 0.41113 0.44911 0.79421 0.0
C644 C 0.62034 0.47444 0.7153 0.0
C645 C 0.60882 0.47462 0.68814 0.0
H646 H 0.60942 0.44925 0.75172 0.0
C647 C 0.57756 0.44753 0.67706 0.0
H648 H 0.64492 0.49454 0.7246 0.0
C649 C 0.55915 0.42085 0.69266 0.0
C650 C 0.571 0.42072 0.71977 0.0
H651 H 0.5667 0.44698 0.65636 0.0
H652 H 0.53542 0.40037 0.68342 0.0
C653 C 0.60096 0.44806 0.7309 0.0
C654 C 0.9203 0.03543 0.17705 0.0
C655 C 0.89109 0.00764 0.18803 0.0
H656 H 0.96023 0.08312 0.18364 0.0
C657 C 0.88096 0.00718 0.21527 0.0
H658 H 0.93007 0.03652 0.15628 0.0
C659 C 0.89975 0.03358 0.23103 0.0
C660 C 0.92772 0.06156 0.22001 0.0
H661 H 0.85788 0.98657 0.22453 0.0
H662 H 0.8923 0.03193 0.25186 0.0
C663 C 0.93807 0.06212 0.19282 0.0
C664 C 0.91073 0.94638 0.67921 0.0
C665 C 0.89484 0.9759 0.69125 0.0
H666 H 0.94255 0.89782 0.68431 0.0
C667 C 0.8989 0.97841 0.71877 0.0
H668 H 0.9073 0.94334 0.65815 0.0
C669 C 0.9184 0.95211 0.73384 0.0
C670 C 0.93475 0.92278 0.72173 0.0
H671 H 0.888 0.00096 0.7287 0.0
H672 H 0.92173 0.95503 0.75492 0.0
C673 C 0.93057 0.92018 0.69426 0.0
C674 C 0.61103 0.53952 0.18242 0.0
C675 C 0.62202 0.50906 0.19416 0.0
H676 H 0.58197 0.58857 0.18769 0.0
C677 C 0.61439 0.50565 0.22146 0.0
H678 H 0.61771 0.54328 0.16159 0.0
C679 C 0.59502 0.53191 0.23654 0.0
C680 C 0.58218 0.56188 0.22454 0.0
H681 H 0.62166 0.48241 0.23113 0.0
H682 H 0.58801 0.52834 0.25738 0.0
C683 C 0.59099 0.56556 0.19741 0.0
C684 C 0.40611 0.50369 0.31046 0.0
C685 C 0.3932 0.50795 0.33721 0.0
H686 H 0.43645 0.526 0.27478 0.0
C687 C 0.40107 0.53946 0.34831 0.0
H688 H 0.40176 0.47967 0.30137 0.0
C689 C 0.42102 0.56605 0.33297 0.0
C690 C 0.43321 0.56173 0.30621 0.0
H691 H 0.3909 0.54371 0.36876 0.0
H692 H 0.42616 0.59009 0.34201 0.0
C693 C 0.42592 0.53026 0.29516 0.0
C694 C 0.11345 0.9751 0.81038 0.0
C695 C 0.12203 0.97064 0.83751 0.0
H696 H 0.08574 0.95355 0.77392 0.0
C697 C 0.10865 0.93958 0.84849 0.0
H698 H 0.12203 -0.00117 0.80129 0.0
C699 C 0.08732 0.91367 0.83274 0.0
C700 C 0.07939 0.91818 0.80564 0.0
H701 H 0.11544 0.93511 0.86921 0.0
H702 H 0.07771 0.88998 0.84175 0.0
C703 C 0.09254 0.94915 0.79464 0.0
C704 C 0.18537 0.13364 0.06877 0.0
C705 C 0.21306 0.10942 0.05391 0.0
H706 H 0.16458 0.15144 0.10719 0.0
C707 C 0.24225 0.08422 0.06712 0.0
H708 H 0.16223 0.15324 0.05915 0.0
C709 C 0.24389 0.08329 0.09454 0.0
C710 C 0.2158 0.10732 0.10943 0.0
H711 H 0.26442 0.06535 0.05621 0.0
H712 H 0.26647 0.06344 0.10412 0.0
C713 C 0.18636 0.13247 0.09624 0.0
C714 C 0.33816 0.41356 0.56063 0.0
C715 C 0.32876 0.38097 0.55201 0.0
H716 H 0.3448 0.44668 0.59312 0.0
C717 C 0.31986 0.35611 0.57096 0.0
H718 H 0.34437 0.43347 0.54671 0.0
C719 C 0.31962 0.36384 0.59783 0.0
C720 C 0.3276 0.39662 0.60626 0.0
H721 H 0.31295 0.33071 0.56503 0.0
H722 H 0.31156 0.34432 0.61195 0.0
C723 C 0.3377 0.42124 0.58732 0.0
C724 C 0.69154 0.39677 0.96577 0.0
C725 C 0.67583 0.36749 0.97903 0.0
H726 H 0.70764 0.42034 0.92884 0.0
C727 C 0.66144 0.33916 0.96421 0.0
H728 H 0.7034 0.41896 0.97655 0.0
C729 C 0.66425 0.33992 0.93677 0.0
C730 C 0.6819 0.36896 0.92362 0.0
H731 H 0.64852 0.31632 0.97383 0.0
H732 H 0.65455 0.31749 0.92592 0.0
C733 C 0.69455 0.39749 0.93842 0.0
C734 C 0.84898 0.13409 0.46551 0.0
C735 C 0.87988 0.15049 0.4858 0.0
H736 H 0.83238 0.13068 0.4243 0.0
C737 C 0.92194 0.17533 0.4794 0.0
H738 H 0.81576 0.11512 0.46993 0.0
C739 C 0.93244 0.18391 0.45322 0.0
C740 C 0.90044 0.16818 0.4328 0.0
H741 H 0.94678 0.18815 0.49471 0.0
H742 H 0.96576 0.20288 0.44904 0.0
C743 C 0.85877 0.143 0.43933 0.0
C744 C 0.75603 0.90784 0.95734 0.0
C745 C 0.78027 0.88084 0.97031 0.0
H746 H 0.73886 0.93139 0.92065 0.0
C747 C 0.8062 0.85619 0.95522 0.0
H748 H 0.73534 0.92712 0.96836 0.0
C749 C 0.80819 0.85863 0.9278 0.0
C750 C 0.78372 0.8856 0.91486 0.0
H751 H 0.82572 0.83523 0.96463 0.0
H752 H 0.82833 0.83922 0.91671 0.0
C753 C 0.75756 0.91013 0.92998 0.0
C754 C 0.75368 0.57801 0.45796 0.0
C755 C 0.72682 0.60388 0.47126 0.0
H756 H 0.77437 0.55646 0.42087 0.0
C757 C 0.69972 0.62849 0.4565 0.0
H758 H 0.77529 0.55882 0.46877 0.0
C759 C 0.69916 0.62712 0.42906 0.0
C760 C 0.72624 0.60131 0.41576 0.0
H761 H 0.67821 0.64858 0.46619 0.0
H762 H 0.67799 0.64646 0.41823 0.0
C763 C 0.75365 0.57683 0.43053 0.0
C764 C 0.34673 0.63135 0.06139 0.0
C765 C 0.37456 0.64956 0.04126 0.0
H766 H 0.33187 0.62618 0.1026 0.0
C767 C 0.41295 0.67608 0.04798 0.0
H768 H 0.31635 0.61102 0.05677 0.0
C769 C 0.4227 0.68453 0.07427 0.0
C770 C 0.39368 0.6669 0.0945 0.0
H771 H 0.43555 0.69031 0.03285 0.0
H772 H 0.45308 0.7049 0.07869 0.0
C773 C 0.35586 0.64003 0.08769 0.0
C774 C 0.18279 0.89693 0.55718 0.0
C775 C 0.16992 0.86704 0.54422 0.0
H776 H 0.1964 0.92158 0.59388 0.0
C777 C 0.15789 0.83867 0.55932 0.0
H778 H 0.19285 0.91917 0.54618 0.0
C779 C 0.16017 0.84006 0.58676 0.0
C780 C 0.17505 0.86977 0.59962 0.0
H781 H 0.14729 0.81534 0.54991 0.0
H782 H 0.15233 0.81766 0.59788 0.0
C783 C 0.18538 0.89826 0.58453 0.0
C784 C 0.07378 0.25084 0.32975 0.0
C785 C 0.13003 0.24504 0.34038 0.0
H786 H 1.0033 0.23351 0.30472 0.0
C787 C 0.15795 0.21572 0.33387 0.0
H788 H 0.05101 0.27312 0.33449 0.0
C789 C 0.13042 0.19291 0.31681 0.0
C790 C 0.07428 0.19888 0.30613 0.0
H791 H 0.20159 0.21076 0.34151 0.0
H792 H 0.15292 0.17053 0.31214 0.0
C793 C 0.04627 0.22804 0.31284 0.0
C794 C 0.42289 0.23244 0.82845 0.0
C795 C 0.36805 0.23867 0.84009 0.0
H796 H 0.49285 0.25016 0.80355 0.0
C797 C 0.34197 0.26909 0.8356 0.0
H798 H 0.4442 0.20929 0.83175 0.0
C799 C 0.3698 0.29255 0.81929 0.0
C800 C 0.42431 0.28605 0.80739 0.0
H801 H 0.29952 0.27442 0.84421 0.0
H802 H 0.3488 0.31578 0.81609 0.0
C803 C 0.45083 0.2559 0.81239 0.0
C804 C 0.6128 0.22651 0.71486 0.0
C805 C 0.63795 0.23498 0.69043 0.0
H806 H 0.56472 0.24271 0.74844 0.0
C807 C 0.63096 0.26705 0.68076 0.0
H808 H 0.61595 0.20189 0.72269 0.0
C809 C 0.60025 0.2901 0.69529 0.0
C810 C 0.57692 0.28173 0.71995 0.0
H811 H 0.65041 0.27468 0.66226 0.0
H812 H 0.59634 0.31479 0.68761 0.0
C813 C 0.58304 0.24974 0.72956 0.0
C814 C 0.85518 0.21259 0.18253 0.0
C815 C 0.84377 0.24398 0.19246 0.0
H816 H 0.89464 0.16618 0.18935 0.0
C817 C 0.86385 0.25227 0.21789 0.0
H818 H 0.8396 0.20517 0.16324 0.0
C819 C 0.89451 0.2297 0.23299 0.0
C820 C 0.90618 0.19856 0.22286 0.0
H821 H 0.85689 0.27645 0.226 0.0
H822 H 0.91015 0.23683 0.25235 0.0
C823 C 0.88636 0.19019 0.19752 0.0
C824 C 0.82854 0.76518 0.69845 0.0
C825 C 0.86043 0.74129 0.68512 0.0
H826 H 0.83211 0.80661 0.72414 0.0
C827 C 0.92222 0.7409 0.68818 0.0
H828 H 0.78092 0.76625 0.69616 0.0
C829 C 0.9514 0.7634 0.70489 0.0
C830 C 0.91944 0.78703 0.71862 0.0
H831 H 0.94779 0.72261 0.6782 0.0
H832 H 0.99896 0.76201 0.70719 0.0
C833 C 0.85785 0.78809 0.71472 0.0
C834 C 0.67042 0.71735 0.19693 0.0
C835 C 0.63932 0.74304 0.18545 0.0
H836 H 0.66648 0.67485 0.22154 0.0
C837 C 0.57883 0.74588 0.19106 0.0
H838 H 0.71702 0.71449 0.19278 0.0
C839 C 0.55032 0.72385 0.20833 0.0
C840 C 0.58138 0.69809 0.21986 0.0
H841 H 0.55401 0.76571 0.18268 0.0
H842 H 0.50421 0.72735 0.21294 0.0
C843 C 0.64157 0.69487 0.21365 0.0
C844 C 0.37819 0.71844 0.34473 0.0
C845 C 0.35704 0.74699 0.33286 0.0
H846 H 0.42223 0.67318 0.33967 0.0
C847 C 0.36451 0.75109 0.30559 0.0
H848 H 0.37421 0.71452 0.36566 0.0
C849 C 0.39387 0.72774 0.29077 0.0
C850 C 0.41533 0.69945 0.30278 0.0
H851 H 0.34775 0.77239 0.2956 0.0
H852 H 0.40027 0.73203 0.26998 0.0
C853 C 0.40643 0.69485 0.32983 0.0
C854 C 0.11556 0.75958 0.84542 0.0
C855 C 0.13914 0.73181 0.83334 0.0
H856 H 0.07028 0.80451 0.84053 0.0
C857 C 0.13233 0.72803 0.80602 0.0
H858 H 0.11863 0.76307 0.86644 0.0
C859 C 0.10282 0.75143 0.79122 0.0
C860 C 0.08059 0.7795 0.80329 0.0
H861 H 0.1505 0.70724 0.79591 0.0
H862 H 0.0979 0.74767 0.77027 0.0
C863 C 0.0871 0.78322 0.83057 0.0
loop_
_geom_bond_atom_site_label_1
_geom_bond_atom_site_label_2
_geom_bond_distance
_geom_bond_site_symmetry_2
_ccdc_geom_bond_type
C0 C1 1.384 . S
C0 H13 0.947 . S
C0 C35 1.382 . S
C1 C0 1.384 . S
C1 C2 1.378 . S
C2 C1 1.378 . S
C2 C3 1.378 . S
C2 H14 0.952 . S
C3 C2 1.378 . S
C3 H15 0.950 . S
C3 C34 1.383 . S
H4 C23 0.947 . S
H5 C24 0.946 . S
H6 C26 0.953 . S
H7 C27 0.945 . S
H8 C29 0.952 . S
H9 C30 0.949 . S
H10 C32 0.950 . S
H11 C33 0.948 . S
H12 C35 0.951 . S
H13 C0 0.947 . S
H14 C2 0.952 . S
H15 C3 0.950 . S
N16 C19 1.382 . S
N16 C21 1.363 . S
N17 C19 1.371 . S
N17 C20 1.372 . S
N18 C20 1.361 . S
N18 C21 1.377 . S
C19 N16 1.382 . S
C19 N17 1.371 . S
C19 C22 1.480 . S
C20 N17 1.372 . S
C20 N18 1.361 . S
C20 C28 1.457 . S
C21 N16 1.363 . S
C21 N18 1.377 . S
C21 C34 1.479 . S
C22 C19 1.480 . S
C22 C23 1.383 . S
C22 C27 1.385 . S
C23 H4 0.947 . S
C23 C22 1.383 . S
C23 C24 1.388 . S
C24 H5 0.946 . S
C24 C23 1.388 . S
C24 C25 1.384 . S
C25 C24 1.384 . S
C25 C26 1.377 . S
C26 H6 0.953 . S
C26 C25 1.377 . S
C26 C27 1.369 . S
C27 H7 0.945 . S
C27 C22 1.385 . S
C27 C26 1.369 . S
C28 C20 1.457 . S
C28 C29 1.372 . S
C28 C33 1.364 . S
C29 H8 0.952 . S
C29 C28 1.372 . S
C29 C30 1.389 . S
C30 H9 0.949 . S
C30 C29 1.389 . S
C30 C31 1.387 . S
C31 C30 1.387 . S
C31 C32 1.372 . S
C32 H10 0.950 . S
C32 C31 1.372 . S
C32 C33 1.379 . S
C33 H11 0.948 . S
C33 C28 1.364 . S
C33 C32 1.379 . S
C34 C3 1.383 . S
C34 C21 1.479 . S
C34 C35 1.398 . S
C35 C0 1.382 . S
C35 H12 0.951 . S
C35 C34 1.398 . S
C36 C37 1.384 1_556 S
C36 H49 0.947 . S
C36 C71 1.382 . S
C37 C36 1.384 1_554 S
C37 C38 1.378 1_554 S
C38 C37 1.378 1_556 S
C38 C39 1.378 . S
C38 H50 0.936 1_556 S
C39 C38 1.378 . S
C39 H51 0.950 . S
C39 C70 1.383 . S
H40 C59 0.947 . S
H41 C60 0.946 . S
H42 C62 0.953 . S
H43 C63 0.945 . S
H44 C65 0.952 . S
H45 C66 0.949 . S
H46 C68 0.950 1_565 S
H47 C69 0.948 . S
H48 C71 0.951 . S
H49 C36 0.947 . S
H50 C38 0.936 1_554 S
H51 C39 0.950 . S
N52 C55 1.382 . S
N52 C57 1.363 . S
N53 C55 1.371 . S
N53 C56 1.372 . S
N54 C56 1.361 . S
N54 C57 1.377 . S
C55 N52 1.382 . S
C55 N53 1.371 . S
C55 C58 1.480 . S
C56 N53 1.372 . S
C56 N54 1.361 . S
C56 C64 1.457 . S
C57 N52 1.363 . S
C57 N54 1.377 . S
C57 C70 1.479 . S
C58 C55 1.480 . S
C58 C59 1.383 . S
C58 C63 1.385 . S
C59 H40 0.947 . S
C59 C58 1.383 . S
C59 C60 1.388 . S
C60 H41 0.946 . S
C60 C59 1.388 . S
C60 C61 1.384 . S
C61 C60 1.384 . S
C61 C62 1.377 . S
C62 H42 0.953 . S
C62 C61 1.377 . S
C62 C63 1.369 . S
C63 H43 0.945 . S
C63 C58 1.385 . S
C63 C62 1.369 . S
C64 C56 1.457 . S
C64 C65 1.372 . S
C64 C69 1.364 . S
C65 H44 0.952 . S
C65 C64 1.372 . S
C65 C66 1.389 . S
C66 H45 0.949 . S
C66 C65 1.389 . S
C66 C67 1.387 . S
C67 C66 1.387 . S
C67 C68 1.372 . S
C68 H46 0.950 1_545 S
C68 C67 1.372 . S
C68 C69 1.379 . S
C69 H47 0.948 . S
C69 C64 1.364 . S
C69 C68 1.379 . S
C70 C39 1.383 . S
C70 C57 1.479 . S
C70 C71 1.398 . S
C71 C36 1.382 . S
C71 H48 0.951 . S
C71 C70 1.398 . S
C72 C73 1.384 . S
C72 H85 0.947 . S
C72 C107 1.382 . S
C73 C72 1.384 . S
C73 C74 1.378 . S
C74 C73 1.378 . S
C74 C75 1.378 . S
C74 H86 0.952 . S
C75 C74 1.378 . S
C75 H87 0.950 . S
C75 C106 1.383 . S
H76 C95 0.947 . S
H77 C96 0.946 . S
H78 C98 0.953 . S
H79 C99 0.945 . S
H80 C101 0.952 . S
H81 C102 0.949 . S
H82 C104 0.950 1_565 S
H83 C105 0.948 . S
H84 C107 0.951 . S
H85 C72 0.947 . S
H86 C74 0.952 . S
H87 C75 0.950 . S
N88 C91 1.382 . S
N88 C93 1.363 . S
N89 C91 1.371 . S
N89 C92 1.372 . S
N90 C92 1.361 . S
N90 C93 1.377 . S
C91 N88 1.382 . S
C91 N89 1.371 . S
C91 C94 1.480 . S
C92 N89 1.372 . S
C92 N90 1.361 . S
C92 C100 1.457 . S
C93 N88 1.363 . S
C93 N90 1.377 . S
C93 C106 1.479 . S
C94 C91 1.480 . S
C94 C95 1.383 . S
C94 C99 1.385 . S
C95 H76 0.947 . S
C95 C94 1.383 . S
C95 C96 1.388 . S
C96 H77 0.946 . S
C96 C95 1.388 . S
C96 C97 1.384 . S
C97 C96 1.384 . S
C97 C98 1.377 . S
C98 H78 0.953 . S
C98 C97 1.377 . S
C98 C99 1.369 . S
C99 H79 0.945 . S
C99 C94 1.385 . S
C99 C98 1.369 . S
C100 C92 1.457 . S
C100 C101 1.372 . S
C100 C105 1.364 . S
C101 H80 0.952 . S
C101 C100 1.372 . S
C101 C102 1.389 . S
C102 H81 0.949 . S
C102 C101 1.389 . S
C102 C103 1.387 . S
C103 C102 1.387 . S
C103 C104 1.372 . S
C104 H82 0.950 1_545 S
C104 C103 1.372 . S
C104 C105 1.379 . S
C105 H83 0.948 . S
C105 C100 1.364 . S
C105 C104 1.379 . S
C106 C75 1.383 . S
C106 C93 1.479 . S
C106 C107 1.398 . S
C107 C72 1.382 . S
C107 H84 0.951 . S
C107 C106 1.398 . S
C108 C109 1.379 1_554 S
C108 H121 0.947 . S
C108 C143 1.382 . S
C109 C108 1.379 1_556 S
C109 C110 1.374 1_556 S
C110 C109 1.374 1_554 S
C110 C111 1.378 . S
C110 H122 0.952 . S
C111 C110 1.378 . S
C111 H123 0.950 . S
C111 C142 1.383 . S
H112 C131 0.947 . S
H113 C132 0.946 . S
H114 C134 0.953 . S
H115 C135 0.945 . S
H116 C137 0.952 . S
H117 C138 0.949 . S
H118 C140 0.950 . S
H119 C141 0.948 . S
H120 C143 0.951 . S
H121 C108 0.947 . S
H122 C110 0.952 . S
H123 C111 0.950 . S
N124 C127 1.382 . S
N124 C129 1.363 . S
N125 C127 1.371 . S
N125 C128 1.372 . S
N126 C128 1.361 . S
N126 C129 1.377 . S
C127 N124 1.382 . S
C127 N125 1.371 . S
C127 C130 1.480 . S
C128 N125 1.372 . S
C128 N126 1.361 . S
C128 C136 1.457 . S
C129 N124 1.363 . S
C129 N126 1.377 . S
C129 C142 1.479 . S
C130 C127 1.480 . S
C130 C131 1.383 . S
C130 C135 1.385 . S
C131 H112 0.947 . S
C131 C130 1.383 . S
C131 C132 1.388 . S
C132 H113 0.946 . S
C132 C131 1.388 . S
C132 C133 1.384 . S
C133 C132 1.384 . S
C133 C134 1.377 . S
C134 H114 0.953 . S
C134 C133 1.377 . S
C134 C135 1.369 . S
C135 H115 0.945 . S
C135 C130 1.385 . S
C135 C134 1.369 . S
C136 C128 1.457 . S
C136 C137 1.372 . S
C136 C141 1.364 . S
C137 H116 0.952 . S
C137 C136 1.372 . S
C137 C138 1.389 . S
C138 H117 0.949 . S
C138 C137 1.389 . S
C138 C139 1.387 . S
C139 C138 1.387 . S
C139 C140 1.372 . S
C140 H118 0.950 . S
C140 C139 1.372 . S
C140 C141 1.379 . S
C141 H119 0.948 . S
C141 C136 1.364 . S
C141 C140 1.379 . S
C142 C111 1.383 . S
C142 C129 1.479 . S
C142 C143 1.398 . S
C143 C108 1.382 . S
C143 H120 0.951 . S
C143 C142 1.398 . S
C144 C145 1.384 . S
C144 H157 0.947 . S
C144 C179 1.382 . S
C145 C144 1.384 . S
C145 C146 1.378 . S
C146 C145 1.378 . S
C146 C147 1.378 . S
C146 H158 0.952 . S
C147 C146 1.378 . S
C147 H159 0.950 . S
C147 C178 1.383 . S
H148 C167 0.947 . S
H149 C168 0.946 . S
H150 C170 0.953 . S
H151 C171 0.945 . S
H152 C173 0.952 . S
H153 C174 0.949 . S
H154 C176 0.950 . S
H155 C177 0.948 . S
H156 C179 0.951 . S
H157 C144 0.947 . S
H158 C146 0.952 . S
H159 C147 0.950 . S
N160 C163 1.382 . S
N160 C165 1.363 . S
N161 C163 1.371 . S
N161 C164 1.372 . S
N162 C164 1.361 . S
N162 C165 1.377 . S
C163 N160 1.382 . S
C163 N161 1.371 . S
C163 C166 1.480 . S
C164 N161 1.372 . S
C164 N162 1.361 . S
C164 C172 1.457 . S
C165 N160 1.363 . S
C165 N162 1.377 . S
C165 C178 1.479 . S
C166 C163 1.480 . S
C166 C167 1.383 . S
C166 C171 1.385 . S
C167 H148 0.947 . S
C167 C166 1.383 . S
C167 C168 1.388 . S
C168 H149 0.946 . S
C168 C167 1.388 . S
C168 C169 1.384 . S
C169 C168 1.384 . S
C169 C170 1.377 . S
C170 H150 0.953 . S
C170 C169 1.377 . S
C170 C171 1.369 . S
C171 H151 0.945 . S
C171 C166 1.385 . S
C171 C170 1.369 . S
C172 C164 1.457 . S
C172 C173 1.372 . S
C172 C177 1.364 . S
C173 H152 0.952 . S
C173 C172 1.372 . S
C173 C174 1.389 . S
C174 H153 0.949 . S
C174 C173 1.389 . S
C174 C175 1.387 . S
C175 C174 1.387 . S
C175 C176 1.372 . S
C176 H154 0.950 . S
C176 C175 1.372 . S
C176 C177 1.379 . S
C177 H155 0.948 . S
C177 C172 1.364 . S
C177 C176 1.379 . S
C178 C147 1.383 . S
C178 C165 1.479 . S
C178 C179 1.398 . S
C179 C144 1.382 . S
C179 H156 0.951 . S
C179 C178 1.398 . S
C180 C181 1.384 1_554 S
C180 H193 0.947 . S
C180 C215 1.382 . S
C181 C180 1.384 1_556 S
C181 C182 1.378 1_556 S
C182 C181 1.378 1_554 S
C182 C183 1.378 . S
C182 H194 0.952 1_554 S
C183 C182 1.378 . S
C183 H195 0.950 . S
C183 C214 1.383 . S
H184 C203 0.947 . S
H185 C204 0.946 . S
H186 C206 0.953 . S
H187 C207 0.945 . S
H188 C209 0.952 . S
H189 C210 0.949 . S
H190 C212 0.950 1_545 S
H191 C213 0.948 . S
H192 C215 0.951 . S
H193 C180 0.947 . S
H194 C182 0.952 1_556 S
H195 C183 0.950 . S
N196 C199 1.382 . S
N196 C201 1.363 . S
N197 C199 1.371 . S
N197 C200 1.372 . S
N198 C200 1.361 . S
N198 C201 1.377 . S
C199 N196 1.382 . S
C199 N197 1.371 . S
C199 C202 1.480 . S
C200 N197 1.372 . S
C200 N198 1.361 . S
C200 C208 1.457 . S
C201 N196 1.363 . S
C201 N198 1.377 . S
C201 C214 1.479 . S
C202 C199 1.480 . S
C202 C203 1.383 . S
C202 C207 1.385 . S
C203 H184 0.947 . S
C203 C202 1.383 . S
C203 C204 1.388 . S
C204 H185 0.946 . S
C204 C203 1.388 . S
C204 C205 1.384 . S
C205 C204 1.384 . S
C205 C206 1.377 . S
C206 H186 0.953 . S
C206 C205 1.377 . S
C206 C207 1.369 . S
C207 H187 0.945 . S
C207 C202 1.385 . S
C207 C206 1.369 . S
C208 C200 1.457 . S
C208 C209 1.372 . S
C208 C213 1.364 . S
C209 H188 0.952 . S
C209 C208 1.372 . S
C209 C210 1.389 . S
C210 H189 0.949 . S
C210 C209 1.389 . S
C210 C211 1.387 . S
C211 C210 1.387 . S
C211 C212 1.372 . S
C212 H190 0.950 1_565 S
C212 C211 1.372 . S
C212 C213 1.379 . S
C213 H191 0.948 . S
C213 C208 1.364 . S
C213 C212 1.379 . S
C214 C183 1.383 . S
C214 C201 1.479 . S
C214 C215 1.398 . S
C215 C180 1.382 . S
C215 H192 0.951 . S
C215 C214 1.398 . S
C216 C217 1.384 . S
C216 H229 0.947 . S
C216 C251 1.382 . S
C217 C216 1.384 . S
C217 C218 1.378 . S
C218 C217 1.378 . S
C218 C219 1.378 . S
C218 H230 0.952 . S
C219 C218 1.378 . S
C219 H231 0.950 . S
C219 C250 1.383 . S
H220 C239 0.947 . S
H221 C240 0.946 . S
H222 C242 0.953 . S
H223 C243 0.945 . S
H224 C245 0.952 . S
H225 C246 0.949 . S
H226 C248 0.950 1_545 S
H227 C249 0.948 . S
H228 C251 0.951 . S
H229 C216 0.947 . S
H230 C218 0.952 . S
H231 C219 0.950 . S
N232 C235 1.382 . S
N232 C237 1.363 . S
N233 C235 1.371 . S
N233 C236 1.372 . S
N234 C236 1.361 . S
N234 C237 1.377 . S
C235 N232 1.382 . S
C235 N233 1.371 . S
C235 C238 1.480 . S
C236 N233 1.372 . S
C236 N234 1.361 . S
C236 C244 1.457 . S
C237 N232 1.363 . S
C237 N234 1.377 . S
C237 C250 1.479 . S
C238 C235 1.480 . S
C238 C239 1.383 . S
C238 C243 1.385 . S
C239 H220 0.947 . S
C239 C238 1.383 . S
C239 C240 1.388 . S
C240 H221 0.946 . S
C240 C239 1.388 . S
C240 C241 1.384 . S
C241 C240 1.384 . S
C241 C242 1.377 . S
C242 H222 0.953 . S
C242 C241 1.377 . S
C242 C243 1.369 . S
C243 H223 0.945 . S
C243 C238 1.385 . S
C243 C242 1.369 . S
C244 C236 1.457 . S
C244 C245 1.372 . S
C244 C249 1.364 . S
C245 H224 0.952 . S
C245 C244 1.372 . S
C245 C246 1.389 . S
C246 H225 0.949 . S
C246 C245 1.389 . S
C246 C247 1.387 . S
C247 C246 1.387 . S
C247 C248 1.372 . S
C248 H226 0.950 1_565 S
C248 C247 1.372 . S
C248 C249 1.379 . S
C249 H227 0.948 . S
C249 C244 1.364 . S
C249 C248 1.379 . S
C250 C219 1.383 . S
C250 C237 1.479 . S
C250 C251 1.398 . S
C251 C216 1.382 . S
C251 H228 0.951 . S
C251 C250 1.398 . S
C252 C253 1.360 1_556 S
C252 H265 0.947 . S
C252 C287 1.382 . S
C253 C252 1.360 1_554 S
C253 C254 1.360 1_554 S
C254 C253 1.360 1_556 S
C254 C255 1.378 . S
C254 H266 0.966 . S
C255 C254 1.378 . S
C255 H267 0.950 . S
C255 C286 1.383 . S
H256 C275 0.947 . S
H257 C276 0.946 . S
H258 C278 0.953 . S
H259 C279 0.945 . S
H260 C281 0.952 . S
H261 C282 0.949 . S
H262 C284 0.950 . S
H263 C285 0.948 . S
H264 C287 0.951 . S
H265 C252 0.947 . S
H266 C254 0.966 . S
H267 C255 0.950 . S
N268 C271 1.382 . S
N268 C273 1.363 . S
N269 C271 1.371 . S
N269 C272 1.372 . S
N270 C272 1.361 . S
N270 C273 1.377 . S
C271 N268 1.382 . S
C271 N269 1.371 . S
C271 C274 1.480 . S
C272 N269 1.372 . S
C272 N270 1.361 . S
C272 C280 1.457 . S
C273 N268 1.363 . S
C273 N270 1.377 . S
C273 C286 1.479 . S
C274 C271 1.480 . S
C274 C275 1.383 . S
C274 C279 1.385 . S
C275 H256 0.947 . S
C275 C274 1.383 . S
C275 C276 1.388 . S
C276 H257 0.946 . S
C276 C275 1.388 . S
C276 C277 1.384 . S
C277 C276 1.384 . S
C277 C278 1.377 . S
C278 H258 0.953 . S
C278 C277 1.377 . S
C278 C279 1.369 . S
C279 H259 0.945 . S
C279 C274 1.385 . S
C279 C278 1.369 . S
C280 C272 1.457 . S
C280 C281 1.372 . S
C280 C285 1.364 . S
C281 H260 0.952 . S
C281 C280 1.372 . S
C281 C282 1.389 . S
C282 H261 0.949 . S
C282 C281 1.389 . S
C282 C283 1.387 . S
C283 C282 1.387 . S
C283 C284 1.372 . S
C284 H262 0.950 . S
C284 C283 1.372 . S
C284 C285 1.379 . S
C285 H263 0.948 . S
C285 C280 1.364 . S
C285 C284 1.379 . S
C286 C255 1.383 . S
C286 C273 1.479 . S
C286 C287 1.398 . S
C287 C252 1.382 . S
C287 H264 0.951 . S
C287 C286 1.398 . S
Tb288 N317 2.617 . S
Tb288 N323 2.572 . S
Tb288 O332 2.465 . S
Tb288 O333 2.387 . S
Tb288 O335 2.428 . S
Tb288 O336 2.297 1_455 S
Tb288 O340 2.358 . S
Tb288 O343 2.393 . S
Tb288 C352 2.802 . S
C289 N290 1.379 . S
C289 C292 1.416 . S
C289 C296 1.424 . S
N290 C289 1.379 . S
N290 C293 1.334 . S
N290 Tb299 2.617 . S
C291 C293 1.390 . S
C291 C294 1.339 . S
C291 H311 0.930 . S
C292 C289 1.416 . S
C292 C294 1.416 . S
C292 C298 1.448 . S
C293 N290 1.334 . S
C293 C291 1.390 . S
C293 H304 0.930 . S
C294 C291 1.339 . S
C294 C292 1.416 . S
C294 H315 0.930 . S
C295 C296 1.413 . S
C295 C297 1.427 . S
C295 C301 1.416 . S
C296 C289 1.424 . S
C296 C295 1.413 . S
C296 N300 1.361 . S
C297 C295 1.427 . S
C297 C298 1.328 . S
C297 H312 0.929 . S
C298 C292 1.448 . S
C298 C297 1.328 . S
C298 H313 0.930 . S
Tb299 N290 2.617 . S
Tb299 N300 2.572 . S
Tb299 O334 2.336 1_655 S
Tb299 O337 2.393 . S
Tb299 O338 2.465 . S
Tb299 O339 2.387 . S
Tb299 O341 2.428 . S
Tb299 O342 2.308 1_655 S
Tb299 C363 2.802 . S
N300 C296 1.361 . S
N300 Tb299 2.572 . S
N300 C302 1.340 . S
C301 C295 1.416 . S
C301 C303 1.332 . S
C301 H309 0.931 . S
C302 N300 1.340 . S
C302 C303 1.407 . S
C302 H308 0.930 . S
C303 C301 1.332 . S
C303 C302 1.407 . S
C303 H305 0.929 . S
H304 C293 0.930 . S
H305 C303 0.929 . S
H306 C321 0.930 . S
H307 C328 0.929 . S
H308 C302 0.930 . S
H309 C301 0.931 . S
H310 C324 0.930 . S
H311 C291 0.930 . S
H312 C297 0.929 . S
H313 C298 0.930 . S
H314 C319 0.930 . S
H315 C294 0.930 . S
H316 C327 0.931 . S
N317 Tb288 2.617 . S
N317 C318 1.379 . S
N317 C321 1.334 . S
C318 N317 1.379 . S
C318 C320 1.416 . S
C318 C326 1.424 . S
C319 H314 0.930 . S
C319 C321 1.390 . S
C319 C322 1.339 . S
C320 C318 1.416 . S
C320 C322 1.416 . S
C320 C353 1.448 . S
C321 H306 0.930 . S
C321 N317 1.334 . S
C321 C319 1.390 . S
C322 C319 1.339 . S
C322 C320 1.416 . S
C322 H329 0.930 . S
N323 Tb288 2.572 . S
N323 C324 1.340 . S
N323 C326 1.361 . S
C324 H310 0.930 . S
C324 N323 1.340 . S
C324 C328 1.407 . S
C325 C326 1.413 . S
C325 C327 1.416 . S
C325 C354 1.427 . S
C326 C318 1.424 . S
C326 N323 1.361 . S
C326 C325 1.413 . S
C327 H316 0.931 . S
C327 C325 1.416 . S
C327 C328 1.332 . S
C328 H307 0.929 . S
C328 C324 1.407 . S
C328 C327 1.332 . S
H329 C322 0.930 . S
H330 C353 0.930 . S
H331 C354 0.929 . S
O332 Tb288 2.465 . S
O332 C352 1.264 . S
O333 Tb288 2.387 . S
O333 C344 1.264 . S
O334 Tb299 2.336 1_455 S
O334 C344 1.259 . S
O335 Tb288 2.428 . S
O335 C352 1.256 . S
O336 Tb288 2.297 1_655 S
O336 C351 1.279 . S
O337 Tb299 2.393 . S
O337 C351 1.248 . S
O338 Tb299 2.465 . S
O338 C363 1.264 . S
O339 Tb299 2.387 . S
O339 C355 1.264 . S
O340 Tb288 2.358 . S
O340 C355 1.232 1_455 S
O341 Tb299 2.428 . S
O341 C363 1.256 . S
O342 Tb299 2.308 1_455 S
O342 C362 1.266 . S
O343 Tb288 2.393 . S
O343 C362 1.248 . S
C344 O333 1.264 . S
C344 O334 1.259 . S
C345 C348 1.399 . S
C345 C350 1.383 . S
C345 C352 1.496 . S
C346 C347 1.399 . S
C346 C350 1.389 . S
C347 C346 1.399 . S
C347 C349 1.380 . S
C347 H364 0.929 . S
C348 C345 1.399 . S
C348 C349 1.392 . S
C348 H365 0.929 . S
C349 C347 1.380 . S
C349 C348 1.392 . S
C349 H366 0.929 . S
C350 C345 1.383 . S
C350 C346 1.389 . S
C350 H367 0.931 . S
C351 O336 1.279 . S
C351 O337 1.248 . S
C352 Tb288 2.802 . S
C352 O332 1.264 . S
C352 O335 1.256 . S
C352 C345 1.496 . S
C353 C320 1.448 . S
C353 H330 0.930 . S
C353 C354 1.328 . S
C354 C325 1.427 . S
C354 H331 0.929 . S
C354 C353 1.328 . S
C355 O339 1.264 . S
C355 O340 1.232 1_655 S
C356 C359 1.399 . S
C356 C360 1.383 . S
C356 C363 1.496 . S
C357 C358 1.399 . S
C357 C360 1.389 . S
C358 C357 1.399 . S
C358 C361 1.380 . S
C358 H368 0.929 . S
C359 C356 1.399 . S
C359 C361 1.392 . S
C359 H369 0.929 . S
C360 C356 1.383 . S
C360 C357 1.389 . S
C360 H370 0.931 . S
C361 C358 1.380 . S
C361 C359 1.392 . S
C361 H371 0.929 . S
C362 O342 1.266 . S
C362 O343 1.248 . S
C363 Tb299 2.802 . S
C363 O338 1.264 . S
C363 O341 1.256 . S
C363 C356 1.496 . S
H364 C347 0.929 . S
H365 C348 0.929 . S
H366 C349 0.929 . S
H367 C350 0.931 . S
H368 C358 0.929 . S
H369 C359 0.929 . S
H370 C360 0.931 . S
H371 C361 0.929 . S
Tb372 N401 2.617 . S
Tb372 N407 2.572 . S
Tb372 O416 2.465 . S
Tb372 O417 2.387 . S
Tb372 O419 2.428 . S
Tb372 O420 2.308 . S
Tb372 O424 2.349 . S
Tb372 O427 2.393 . S
Tb372 C436 2.802 . S
C373 N374 1.379 . S
C373 C376 1.416 . S
C373 C380 1.424 . S
N374 C373 1.379 . S
N374 C377 1.334 . S
N374 Tb383 2.617 . S
C375 C377 1.390 . S
C375 C378 1.339 . S
C375 H395 0.930 . S
C376 C373 1.416 . S
C376 C378 1.416 . S
C376 C382 1.448 . S
C377 N374 1.334 . S
C377 C375 1.390 . S
C377 H388 0.930 . S
C378 C375 1.339 . S
C378 C376 1.416 . S
C378 H399 0.930 . S
C379 C380 1.413 . S
C379 C381 1.427 . S
C379 C385 1.416 . S
C380 C373 1.424 . S
C380 C379 1.413 . S
C380 N384 1.361 . S
C381 C379 1.427 . S
C381 C382 1.328 . S
C381 H396 0.929 . S
C382 C376 1.448 . S
C382 C381 1.328 . S
C382 H397 0.930 . S
Tb383 N374 2.617 . S
Tb383 N384 2.572 . S
Tb383 O418 2.349 . S
Tb383 O421 2.393 . S
Tb383 O422 2.465 . S
Tb383 O423 2.387 . S
Tb383 O425 2.428 . S
Tb383 O426 2.308 . S
Tb383 C447 2.802 . S
N384 C380 1.361 . S
N384 Tb383 2.572 . S
N384 C386 1.340 . S
C385 C379 1.416 . S
C385 C387 1.332 . S
C385 H393 0.931 . S
C386 N384 1.340 . S
C386 C387 1.407 . S
C386 H392 0.930 . S
C387 C385 1.332 . S
C387 C386 1.407 . S
C387 H389 0.929 . S
H388 C377 0.930 . S
H389 C387 0.929 . S
H390 C405 0.930 . S
H391 C412 0.929 . S
H392 C386 0.930 . S
H393 C385 0.931 . S
H394 C408 0.930 . S
H395 C375 0.930 . S
H396 C381 0.929 . S
H397 C382 0.930 . S
H398 C403 0.930 . S
H399 C378 0.930 . S
H400 C411 0.931 . S
N401 Tb372 2.617 . S
N401 C402 1.379 . S
N401 C405 1.334 . S
C402 N401 1.379 . S
C402 C404 1.416 . S
C402 C410 1.424 . S
C403 H398 0.930 . S
C403 C405 1.390 . S
C403 C406 1.339 . S
C404 C402 1.416 . S
C404 C406 1.416 . S
C404 C437 1.448 . S
C405 H390 0.930 . S
C405 N401 1.334 . S
C405 C403 1.390 . S
C406 C403 1.339 . S
C406 C404 1.416 . S
C406 H413 0.930 . S
N407 Tb372 2.572 . S
N407 C408 1.340 . S
N407 C410 1.361 . S
C408 H394 0.930 . S
C408 N407 1.340 . S
C408 C412 1.407 . S
C409 C410 1.413 . S
C409 C411 1.416 . S
C409 C438 1.427 . S
C410 C402 1.424 . S
C410 N407 1.361 . S
C410 C409 1.413 . S
C411 H400 0.931 . S
C411 C409 1.416 . S
C411 C412 1.332 . S
C412 H391 0.929 . S
C412 C408 1.407 . S
C412 C411 1.332 . S
H413 C406 0.930 . S
H414 C437 0.930 . S
H415 C438 0.929 . S
O416 Tb372 2.465 . S
O416 C436 1.264 . S
O417 Tb372 2.387 . S
O417 C428 1.264 . S
O418 Tb383 2.349 . S
O418 C428 1.243 . S
O419 Tb372 2.428 . S
O419 C436 1.256 . S
O420 Tb372 2.308 . S
O420 C435 1.266 . S
O421 Tb383 2.393 . S
O421 C435 1.248 . S
O422 Tb383 2.465 . S
O422 C447 1.264 . S
O423 Tb383 2.387 . S
O423 C439 1.264 . S
O424 Tb372 2.349 . S
O424 C439 1.243 . S
O425 Tb383 2.428 . S
O425 C447 1.256 . S
O426 Tb383 2.308 . S
O426 C446 1.266 . S
O427 Tb372 2.393 . S
O427 C446 1.248 . S
C428 O417 1.264 . S
C428 O418 1.243 . S
C429 C432 1.399 . S
C429 C434 1.383 . S
C429 C436 1.496 . S
C430 C431 1.399 . S
C430 C434 1.389 . S
C431 C430 1.399 . S
C431 C433 1.380 . S
C431 H448 0.929 . S
C432 C429 1.399 . S
C432 C433 1.392 . S
C432 H449 0.929 . S
C433 C431 1.380 . S
C433 C432 1.392 . S
C433 H450 0.929 . S
C434 C429 1.383 . S
C434 C430 1.389 . S
C434 H451 0.931 . S
C435 O420 1.266 . S
C435 O421 1.248 . S
C436 Tb372 2.802 . S
C436 O416 1.264 . S
C436 O419 1.256 . S
C436 C429 1.496 . S
C437 C404 1.448 . S
C437 H414 0.930 . S
C437 C438 1.328 . S
C438 C409 1.427 . S
C438 H415 0.929 . S
C438 C437 1.328 . S
C439 O423 1.264 . S
C439 O424 1.243 . S
C440 C443 1.399 . S
C440 C444 1.383 . S
C440 C447 1.496 . S
C441 C442 1.399 . S
C441 C444 1.389 . S
C442 C441 1.399 . S
C442 C445 1.380 . S
C442 H452 0.929 . S
C443 C440 1.399 . S
C443 C445 1.392 . S
C443 H453 0.929 . S
C444 C440 1.383 . S
C444 C441 1.389 . S
C444 H454 0.931 . S
C445 C442 1.380 . S
C445 C443 1.392 . S
C445 H455 0.929 . S
C446 O426 1.266 . S
C446 O427 1.248 . S
C447 Tb383 2.802 . S
C447 O422 1.264 . S
C447 O425 1.256 . S
C447 C440 1.496 . S
H448 C431 0.929 . S
H449 C432 0.929 . S
H450 C433 0.929 . S
H451 C434 0.931 . S
H452 C442 0.929 . S
H453 C443 0.929 . S
H454 C444 0.931 . S
H455 C445 0.929 . S
Tb456 N485 2.617 . S
Tb456 N491 2.572 . S
Tb456 O500 2.465 . S
Tb456 O501 2.387 . S
Tb456 O503 2.428 . S
Tb456 O504 2.308 . S
Tb456 O508 2.349 . S
Tb456 O511 2.393 . S
Tb456 C520 2.802 . S
C457 N458 1.379 . S
C457 C460 1.416 . S
C457 C464 1.424 . S
N458 C457 1.379 . S
N458 C461 1.334 . S
N458 Tb467 2.617 . S
C459 C461 1.390 . S
C459 C462 1.339 . S
C459 H479 0.930 . S
C460 C457 1.416 . S
C460 C462 1.416 . S
C460 C466 1.448 . S
C461 N458 1.334 . S
C461 C459 1.390 . S
C461 H472 0.930 . S
C462 C459 1.339 . S
C462 C460 1.416 . S
C462 H483 0.930 . S
C463 C464 1.413 . S
C463 C465 1.427 . S
C463 C469 1.416 . S
C464 C457 1.424 . S
C464 C463 1.413 . S
C464 N468 1.361 . S
C465 C463 1.427 . S
C465 C466 1.328 . S
C465 H480 0.929 . S
C466 C460 1.448 . S
C466 C465 1.328 . S
C466 H481 0.930 . S
Tb467 N458 2.617 . S
Tb467 N468 2.572 . S
Tb467 O502 2.349 1_655 S
Tb467 O505 2.393 . S
Tb467 O506 2.465 . S
Tb467 O507 2.387 . S
Tb467 O509 2.428 . S
Tb467 O510 2.308 1_655 S
Tb467 C531 2.802 . S
N468 C464 1.361 . S
N468 Tb467 2.572 . S
N468 C470 1.340 . S
C469 C463 1.416 . S
C469 C471 1.332 . S
C469 H477 0.931 . S
C470 N468 1.340 . S
C470 C471 1.407 . S
C470 H476 0.930 . S
C471 C469 1.332 . S
C471 C470 1.407 . S
C471 H473 0.929 . S
H472 C461 0.930 . S
H473 C471 0.929 . S
H474 C489 0.930 . S
H475 C496 0.929 . S
H476 C470 0.930 . S
H477 C469 0.931 . S
H478 C492 0.930 . S
H479 C459 0.930 . S
H480 C465 0.929 . S
H481 C466 0.930 . S
H482 C487 0.930 . S
H483 C462 0.930 . S
H484 C495 0.931 . S
N485 Tb456 2.617 . S
N485 C486 1.379 . S
N485 C489 1.334 . S
C486 N485 1.379 . S
C486 C488 1.416 . S
C486 C494 1.424 . S
C487 H482 0.930 . S
C487 C489 1.390 . S
C487 C490 1.339 . S
C488 C486 1.416 . S
C488 C490 1.416 . S
C488 C521 1.448 . S
C489 H474 0.930 . S
C489 N485 1.334 . S
C489 C487 1.390 . S
C490 C487 1.339 . S
C490 C488 1.416 . S
C490 H497 0.930 . S
N491 Tb456 2.572 . S
N491 C492 1.340 . S
N491 C494 1.361 . S
C492 H478 0.930 . S
C492 N491 1.340 . S
C492 C496 1.407 . S
C493 C494 1.413 . S
C493 C495 1.416 . S
C493 C522 1.427 . S
C494 C486 1.424 . S
C494 N491 1.361 . S
C494 C493 1.413 . S
C495 H484 0.931 . S
C495 C493 1.416 . S
C495 C496 1.332 . S
C496 H475 0.929 . S
C496 C492 1.407 . S
C496 C495 1.332 . S
H497 C490 0.930 . S
H498 C521 0.930 . S
H499 C522 0.929 . S
O500 Tb456 2.465 . S
O500 C520 1.264 . S
O501 Tb456 2.387 . S
O501 C512 1.264 . S
O502 Tb467 2.349 1_455 S
O502 C512 1.243 . S
O503 Tb456 2.428 . S
O503 C520 1.256 . S
O504 Tb456 2.308 . S
O504 C519 1.266 1_455 S
O505 Tb467 2.393 . S
O505 C519 1.248 . S
O506 Tb467 2.465 . S
O506 C531 1.264 . S
O507 Tb467 2.387 . S
O507 C523 1.264 . S
O508 Tb456 2.349 . S
O508 C523 1.243 1_455 S
O509 Tb467 2.428 . S
O509 C531 1.256 . S
O510 Tb467 2.308 1_455 S
O510 C530 1.266 . S
O511 Tb456 2.393 . S
O511 C530 1.248 . S
C512 O501 1.264 . S
C512 O502 1.243 . S
C513 C516 1.399 . S
C513 C518 1.383 . S
C513 C520 1.496 . S
C514 C515 1.399 . S
C514 C518 1.389 . S
C515 C514 1.399 . S
C515 C517 1.380 . S
C515 H532 0.929 . S
C516 C513 1.399 . S
C516 C517 1.392 . S
C516 H533 0.929 . S
C517 C515 1.380 . S
C517 C516 1.392 . S
C517 H534 0.929 . S
C518 C513 1.383 . S
C518 C514 1.389 . S
C518 H535 0.931 . S
C519 O504 1.266 1_655 S
C519 O505 1.248 . S
C520 Tb456 2.802 . S
C520 O500 1.264 . S
C520 O503 1.256 . S
C520 C513 1.496 . S
C521 C488 1.448 . S
C521 H498 0.930 . S
C521 C522 1.328 . S
C522 C493 1.427 . S
C522 H499 0.929 . S
C522 C521 1.328 . S
C523 O507 1.264 . S
C523 O508 1.243 1_655 S
C524 C527 1.399 . S
C524 C528 1.383 . S
C524 C531 1.496 . S
C525 C526 1.399 . S
C525 C528 1.389 . S
C526 C525 1.399 . S
C526 C529 1.380 . S
C526 H536 0.929 . S
C527 C524 1.399 . S
C527 C529 1.392 . S
C527 H537 0.929 . S
C528 C524 1.383 . S
C528 C525 1.389 . S
C528 H538 0.931 . S
C529 C526 1.380 . S
C529 C527 1.392 . S
C529 H539 0.929 . S
C530 O510 1.266 . S
C530 O511 1.248 . S
C531 Tb467 2.802 . S
C531 O506 1.264 . S
C531 O509 1.256 . S
C531 C524 1.496 . S
H532 C515 0.929 . S
H533 C516 0.929 . S
H534 C517 0.929 . S
H535 C518 0.931 . S
H536 C526 0.929 . S
H537 C527 0.929 . S
H538 C528 0.931 . S
H539 C529 0.929 . S
Tb540 N569 2.617 . S
Tb540 N575 2.572 . S
Tb540 O584 2.465 . S
Tb540 O585 2.387 . S
Tb540 O587 2.428 . S
Tb540 O588 2.308 . S
Tb540 O592 2.349 . S
Tb540 O595 2.393 . S
Tb540 C604 2.802 . S
C541 N542 1.379 . S
C541 C544 1.416 . S
C541 C548 1.424 . S
N542 C541 1.379 . S
N542 C545 1.334 . S
N542 Tb551 2.617 . S
C543 C545 1.390 . S
C543 C546 1.339 . S
C543 H563 0.930 . S
C544 C541 1.416 . S
C544 C546 1.416 . S
C544 C550 1.448 . S
C545 N542 1.334 . S
C545 C543 1.390 . S
C545 H556 0.930 . S
C546 C543 1.339 . S
C546 C544 1.416 . S
C546 H567 0.930 . S
C547 C548 1.413 . S
C547 C549 1.427 . S
C547 C553 1.416 . S
C548 C541 1.424 . S
C548 C547 1.413 . S
C548 N552 1.361 . S
C549 C547 1.427 . S
C549 C550 1.328 . S
C549 H564 0.929 . S
C550 C544 1.448 . S
C550 C549 1.328 . S
C550 H565 0.930 . S
Tb551 N542 2.617 . S
Tb551 N552 2.572 . S
Tb551 O586 2.349 . S
Tb551 O589 2.393 . S
Tb551 O590 2.465 . S
Tb551 O591 2.387 . S
Tb551 O593 2.428 . S
Tb551 O594 2.308 . S
Tb551 C615 2.802 . S
N552 C548 1.361 . S
N552 Tb551 2.572 . S
N552 C554 1.340 . S
C553 C547 1.416 . S
C553 C555 1.332 . S
C553 H561 0.931 . S
C554 N552 1.340 . S
C554 C555 1.407 . S
C554 H560 0.930 . S
C555 C553 1.332 . S
C555 C554 1.407 . S
C555 H557 0.929 . S
H556 C545 0.930 . S
H557 C555 0.929 . S
H558 C573 0.930 . S
H559 C580 0.929 . S
H560 C554 0.930 . S
H561 C553 0.931 . S
H562 C576 0.930 . S
H563 C543 0.930 . S
H564 C549 0.929 . S
H565 C550 0.930 . S
H566 C571 0.930 . S
H567 C546 0.930 . S
H568 C579 0.931 . S
N569 Tb540 2.617 . S
N569 C570 1.379 . S
N569 C573 1.334 . S
C570 N569 1.379 . S
C570 C572 1.416 . S
C570 C578 1.424 . S
C571 H566 0.930 . S
C571 C573 1.390 . S
C571 C574 1.339 . S
C572 C570 1.416 . S
C572 C574 1.416 . S
C572 C605 1.448 . S
C573 H558 0.930 . S
C573 N569 1.334 . S
C573 C571 1.390 . S
C574 C571 1.339 . S
C574 C572 1.416 . S
C574 H581 0.930 . S
N575 Tb540 2.572 . S
N575 C576 1.340 . S
N575 C578 1.361 . S
C576 H562 0.930 . S
C576 N575 1.340 . S
C576 C580 1.407 . S
C577 C578 1.413 . S
C577 C579 1.416 . S
C577 C606 1.427 . S
C578 C570 1.424 . S
C578 N575 1.361 . S
C578 C577 1.413 . S
C579 H568 0.931 . S
C579 C577 1.416 . S
C579 C580 1.332 . S
C580 H559 0.929 . S
C580 C576 1.407 . S
C580 C579 1.332 . S
H581 C574 0.930 . S
H582 C605 0.930 . S
H583 C606 0.929 . S
O584 Tb540 2.465 . S
O584 C604 1.264 . S
O585 Tb540 2.387 . S
O585 C596 1.264 . S
O586 Tb551 2.349 . S
O586 C596 1.243 . S
O587 Tb540 2.428 . S
O587 C604 1.256 . S
O588 Tb540 2.308 . S
O588 C603 1.266 . S
O589 Tb551 2.393 . S
O589 C603 1.248 . S
O590 Tb551 2.465 . S
O590 C615 1.264 . S
O591 Tb551 2.387 . S
O591 C607 1.264 . S
O592 Tb540 2.349 . S
O592 C607 1.243 . S
O593 Tb551 2.428 . S
O593 C615 1.256 . S
O594 Tb551 2.308 . S
O594 C614 1.266 . S
O595 Tb540 2.393 . S
O595 C614 1.248 . S
C596 O585 1.264 . S
C596 O586 1.243 . S
C597 C600 1.399 . S
C597 C602 1.383 . S
C597 C604 1.496 . S
C598 C599 1.399 . S
C598 C602 1.389 . S
C599 C598 1.399 . S
C599 C601 1.380 . S
C599 H616 0.929 . S
C600 C597 1.399 . S
C600 C601 1.392 . S
C600 H617 0.929 . S
C601 C599 1.380 . S
C601 C600 1.392 . S
C601 H618 0.929 . S
C602 C597 1.383 . S
C602 C598 1.389 . S
C602 H619 0.931 . S
C603 O588 1.266 . S
C603 O589 1.248 . S
C604 Tb540 2.802 . S
C604 O584 1.264 . S
C604 O587 1.256 . S
C604 C597 1.496 . S
C605 C572 1.448 . S
C605 H582 0.930 . S
C605 C606 1.328 . S
C606 C577 1.427 . S
C606 H583 0.929 . S
C606 C605 1.328 . S
C607 O591 1.264 . S
C607 O592 1.243 . S
C608 C611 1.399 . S
C608 C612 1.383 . S
C608 C615 1.496 . S
C609 C610 1.399 . S
C609 C612 1.389 . S
C610 C609 1.399 . S
C610 C613 1.380 . S
C610 H620 0.929 . S
C611 C608 1.399 . S
C611 C613 1.392 . S
C611 H621 0.929 . S
C612 C608 1.383 . S
C612 C609 1.389 . S
C612 H622 0.931 . S
C613 C610 1.380 . S
C613 C611 1.392 . S
C613 H623 0.929 . S
C614 O594 1.266 . S
C614 O595 1.248 . S
C615 Tb551 2.802 . S
C615 O590 1.264 . S
C615 O593 1.256 . S
C615 C608 1.496 . S
H616 C599 0.929 . S
H617 C600 0.929 . S
H618 C601 0.929 . S
H619 C602 0.931 . S
H620 C610 0.929 . S
H621 C611 0.929 . S
H622 C612 0.931 . S
H623 C613 0.929 . S
C624 C625 1.387 . S
C624 H628 0.950 1_545 S
C624 C633 1.390 . S
C625 C624 1.387 . S
C625 C627 1.387 . S
H626 C633 0.950 . S
C627 C625 1.387 . S
C627 C629 1.390 . S
C627 H631 0.950 . S
H628 C624 0.950 1_565 S
C629 C627 1.390 . S
C629 C630 1.387 . S
C629 H632 0.950 . S
C630 C629 1.387 . S
C630 C633 1.387 . S
H631 C627 0.950 . S
H632 C629 0.950 . S
C633 C624 1.390 . S
C633 H626 0.950 . S
C633 C630 1.387 . S
C634 C635 1.387 . S
C634 H638 0.950 . S
C634 C643 1.390 . S
C635 C634 1.387 . S
C635 C637 1.387 . S
H636 C643 0.950 . S
C637 C635 1.387 . S
C637 C639 1.390 . S
C637 H641 0.950 . S
H638 C634 0.950 . S
C639 C637 1.390 . S
C639 C640 1.387 . S
C639 H642 0.950 . S
C640 C639 1.387 . S
C640 C643 1.387 . S
H641 C637 0.950 . S
H642 C639 0.950 . S
C643 C634 1.390 . S
C643 H636 0.950 . S
C643 C640 1.387 . S
C644 C645 1.387 . S
C644 H648 0.950 . S
C644 C653 1.390 . S
C645 C644 1.387 . S
C645 C647 1.387 . S
H646 C653 0.950 . S
C647 C645 1.387 . S
C647 C649 1.390 . S
C647 H651 0.950 . S
H648 C644 0.950 . S
C649 C647 1.390 . S
C649 C650 1.387 . S
C649 H652 0.950 . S
C650 C649 1.387 . S
C650 C653 1.387 . S
H651 C647 0.950 . S
H652 C649 0.950 . S
C653 C644 1.390 . S
C653 H646 0.950 . S
C653 C650 1.387 . S
C654 C655 1.387 . S
C654 H658 0.950 . S
C654 C663 1.390 . S
C655 C654 1.387 . S
C655 C657 1.387 . S
H656 C663 0.950 . S
C657 C655 1.387 . S
C657 C659 1.390 . S
C657 H661 0.950 . S
H658 C654 0.950 . S
C659 C657 1.390 . S
C659 C660 1.387 . S
C659 H662 0.950 . S
C660 C659 1.387 . S
C660 C663 1.387 . S
H661 C657 0.950 . S
H662 C659 0.950 . S
C663 C654 1.390 . S
C663 H656 0.950 . S
C663 C660 1.387 . S
C664 C665 1.387 . S
C664 H668 0.950 . S
C664 C673 1.390 . S
C665 C664 1.387 . S
C665 C667 1.387 . S
H666 C673 0.950 . S
C667 C665 1.387 . S
C667 C669 1.390 . S
C667 H671 0.950 1_565 S
H668 C664 0.950 . S
C669 C667 1.390 . S
C669 C670 1.387 . S
C669 H672 0.950 . S
C670 C669 1.387 . S
C670 C673 1.387 . S
H671 C667 0.950 1_545 S
H672 C669 0.950 . S
C673 C664 1.390 . S
C673 H666 0.950 . S
C673 C670 1.387 . S
C674 C675 1.387 . S
C674 H678 0.950 . S
C674 C683 1.390 . S
C675 C674 1.387 . S
C675 C677 1.387 . S
H676 C683 0.950 . S
C677 C675 1.387 . S
C677 C679 1.390 . S
C677 H681 0.950 . S
H678 C674 0.950 . S
C679 C677 1.390 . S
C679 C680 1.387 . S
C679 H682 0.950 . S
C680 C679 1.387 . S
C680 C683 1.387 . S
H681 C677 0.950 . S
H682 C679 0.950 . S
C683 C674 1.390 . S
C683 H676 0.950 . S
C683 C680 1.387 . S
C684 C685 1.387 . S
C684 H688 0.950 . S
C684 C693 1.390 . S
C685 C684 1.387 . S
C685 C687 1.387 . S
H686 C693 0.950 . S
C687 C685 1.387 . S
C687 C689 1.390 . S
C687 H691 0.950 . S
H688 C684 0.950 . S
C689 C687 1.390 . S
C689 C690 1.387 . S
C689 H692 0.950 . S
C690 C689 1.387 . S
C690 C693 1.387 . S
H691 C687 0.950 . S
H692 C689 0.950 . S
C693 C684 1.390 . S
C693 H686 0.950 . S
C693 C690 1.387 . S
C694 C695 1.387 . S
C694 H698 0.950 1_565 S
C694 C703 1.390 . S
C695 C694 1.387 . S
C695 C697 1.387 . S
H696 C703 0.950 . S
C697 C695 1.387 . S
C697 C699 1.390 . S
C697 H701 0.950 . S
H698 C694 0.950 1_545 S
C699 C697 1.390 . S
C699 C700 1.387 . S
C699 H702 0.950 . S
C700 C699 1.387 . S
C700 C703 1.387 . S
H701 C697 0.950 . S
H702 C699 0.950 . S
C703 C694 1.390 . S
C703 H696 0.950 . S
C703 C700 1.387 . S
C704 C705 1.387 . S
C704 H708 0.950 . S
C704 C713 1.390 . S
C705 C704 1.387 . S
C705 C707 1.387 . S
H706 C713 0.950 . S
C707 C705 1.387 . S
C707 C709 1.390 . S
C707 H711 0.950 . S
H708 C704 0.950 . S
C709 C707 1.390 . S
C709 C710 1.387 . S
C709 H712 0.950 . S
C710 C709 1.387 . S
C710 C713 1.387 . S
H711 C707 0.950 . S
H712 C709 0.950 . S
C713 C704 1.390 . S
C713 H706 0.950 . S
C713 C710 1.387 . S
C714 C715 1.387 . S
C714 H718 0.950 . S
C714 C723 1.390 . S
C715 C714 1.387 . S
C715 C717 1.387 . S
H716 C723 0.950 . S
C717 C715 1.387 . S
C717 C719 1.390 . S
C717 H721 0.950 . S
H718 C714 0.950 . S
C719 C717 1.390 . S
C719 C720 1.387 . S
C719 H722 0.950 . S
C720 C719 1.387 . S
C720 C723 1.387 . S
H721 C717 0.950 . S
H722 C719 0.950 . S
C723 C714 1.390 . S
C723 H716 0.950 . S
C723 C720 1.387 . S
C724 C725 1.387 . S
C724 H728 0.950 . S
C724 C733 1.390 . S
C725 C724 1.387 . S
C725 C727 1.387 . S
H726 C733 0.950 . S
C727 C725 1.387 . S
C727 C729 1.390 . S
C727 H731 0.950 . S
H728 C724 0.950 . S
C729 C727 1.390 . S
C729 C730 1.387 . S
C729 H732 0.950 . S
C730 C729 1.387 . S
C730 C733 1.387 . S
H731 C727 0.950 . S
H732 C729 0.950 . S
C733 C724 1.390 . S
C733 H726 0.950 . S
C733 C730 1.387 . S
C734 C735 1.387 . S
C734 H738 0.950 . S
C734 C743 1.390 . S
C735 C734 1.387 . S
C735 C737 1.387 . S
H736 C743 0.950 . S
C737 C735 1.387 . S
C737 C739 1.390 . S
C737 H741 0.950 . S
H738 C734 0.950 . S
C739 C737 1.390 . S
C739 C740 1.387 . S
C739 H742 0.950 . S
C740 C739 1.387 . S
C740 C743 1.387 . S
H741 C737 0.950 . S
H742 C739 0.950 . S
C743 C734 1.390 . S
C743 H736 0.950 . S
C743 C740 1.387 . S
C744 C745 1.387 . S
C744 H748 0.950 . S
C744 C753 1.390 . S
C745 C744 1.387 . S
C745 C747 1.387 . S
H746 C753 0.950 . S
C747 C745 1.387 . S
C747 C749 1.390 . S
C747 H751 0.950 . S
H748 C744 0.950 . S
C749 C747 1.390 . S
C749 C750 1.387 . S
C749 H752 0.950 . S
C750 C749 1.387 . S
C750 C753 1.387 . S
H751 C747 0.950 . S
H752 C749 0.950 . S
C753 C744 1.390 . S
C753 H746 0.950 . S
C753 C750 1.387 . S
C754 C755 1.387 . S
C754 H758 0.950 . S
C754 C763 1.390 . S
C755 C754 1.387 . S
C755 C757 1.387 . S
H756 C763 0.950 . S
C757 C755 1.387 . S
C757 C759 1.390 . S
C757 H761 0.950 . S
H758 C754 0.950 . S
C759 C757 1.390 . S
C759 C760 1.387 . S
C759 H762 0.950 . S
C760 C759 1.387 . S
C760 C763 1.387 . S
H761 C757 0.950 . S
H762 C759 0.950 . S
C763 C754 1.390 . S
C763 H756 0.950 . S
C763 C760 1.387 . S
C764 C765 1.387 . S
C764 H768 0.950 . S
C764 C773 1.390 . S
C765 C764 1.387 . S
C765 C767 1.387 . S
H766 C773 0.950 . S
C767 C765 1.387 . S
C767 C769 1.390 . S
C767 H771 0.950 . S
H768 C764 0.950 . S
C769 C767 1.390 . S
C769 C770 1.387 . S
C769 H772 0.950 . S
C770 C769 1.387 . S
C770 C773 1.387 . S
H771 C767 0.950 . S
H772 C769 0.950 . S
C773 C764 1.390 . S
C773 H766 0.950 . S
C773 C770 1.387 . S
C774 C775 1.387 . S
C774 H778 0.950 . S
C774 C783 1.390 . S
C775 C774 1.387 . S
C775 C777 1.387 . S
H776 C783 0.950 . S
C777 C775 1.387 . S
C777 C779 1.390 . S
C777 H781 0.950 . S
H778 C774 0.950 . S
C779 C777 1.390 . S
C779 C780 1.387 . S
C779 H782 0.950 . S
C780 C779 1.387 . S
C780 C783 1.387 . S
H781 C777 0.950 . S
H782 C779 0.950 . S
C783 C774 1.390 . S
C783 H776 0.950 . S
C783 C780 1.387 . S
C784 C785 1.387 . S
C784 H788 0.950 . S
C784 C793 1.390 . S
C785 C784 1.387 . S
C785 C787 1.387 . S
H786 C793 0.950 . S
C787 C785 1.387 . S
C787 C789 1.390 . S
C787 H791 0.950 . S
H788 C784 0.950 . S
C789 C787 1.390 . S
C789 C790 1.387 . S
C789 H792 0.950 . S
C790 C789 1.387 . S
C790 C793 1.387 . S
H791 C787 0.950 . S
H792 C789 0.950 . S
C793 C784 1.390 . S
C793 H786 0.950 . S
C793 C790 1.387 . S
C794 C795 1.387 . S
C794 H798 0.950 . S
C794 C803 1.390 . S
C795 C794 1.387 . S
C795 C797 1.387 . S
H796 C803 0.950 . S
C797 C795 1.387 . S
C797 C799 1.390 . S
C797 H801 0.950 . S
H798 C794 0.950 . S
C799 C797 1.390 . S
C799 C800 1.387 . S
C799 H802 0.950 . S
C800 C799 1.387 . S
C800 C803 1.387 . S
H801 C797 0.950 . S
H802 C799 0.950 . S
C803 C794 1.390 . S
C803 H796 0.950 . S
C803 C800 1.387 . S
C804 C805 1.387 . S
C804 H808 0.950 . S
C804 C813 1.390 . S
C805 C804 1.387 . S
C805 C807 1.387 . S
H806 C813 0.950 . S
C807 C805 1.387 . S
C807 C809 1.390 . S
C807 H811 0.950 . S
H808 C804 0.950 . S
C809 C807 1.390 . S
C809 C810 1.387 . S
C809 H812 0.950 . S
C810 C809 1.387 . S
C810 C813 1.387 . S
H811 C807 0.950 . S
H812 C809 0.950 . S
C813 C804 1.390 . S
C813 H806 0.950 . S
C813 C810 1.387 . S
C814 C815 1.387 . S
C814 H818 0.950 . S
C814 C823 1.390 . S
C815 C814 1.387 . S
C815 C817 1.387 . S
H816 C823 0.950 . S
C817 C815 1.387 . S
C817 C819 1.390 . S
C817 H821 0.950 . S
H818 C814 0.950 . S
C819 C817 1.390 . S
C819 C820 1.387 . S
C819 H822 0.950 1_655 S
C820 C819 1.387 . S
C820 C823 1.387 . S
H821 C817 0.950 . S
H822 C819 0.950 1_455 S
C823 C814 1.390 . S
C823 H816 0.950 . S
C823 C820 1.387 . S
C824 C825 1.387 . S
C824 H828 0.950 . S
C824 C833 1.390 . S
C825 C824 1.387 . S
C825 C827 1.387 . S
H826 C833 0.950 . S
C827 C825 1.387 . S
C827 C829 1.390 . S
C827 H831 0.950 . S
H828 C824 0.950 . S
C829 C827 1.390 . S
C829 C830 1.387 . S
C829 H832 0.950 . S
C830 C829 1.387 . S
C830 C833 1.387 . S
H831 C827 0.950 . S
H832 C829 0.950 . S
C833 C824 1.390 . S
C833 H826 0.950 . S
C833 C830 1.387 . S
C834 C835 1.387 . S
C834 H838 0.950 . S
C834 C843 1.390 . S
C835 C834 1.387 . S
C835 C837 1.387 . S
H836 C843 0.950 . S
C837 C835 1.387 . S
C837 C839 1.390 . S
C837 H841 0.950 . S
H838 C834 0.950 . S
C839 C837 1.390 . S
C839 C840 1.387 . S
C839 H842 0.950 . S
C840 C839 1.387 . S
C840 C843 1.387 . S
H841 C837 0.950 . S
H842 C839 0.950 . S
C843 C834 1.390 . S
C843 H836 0.950 . S
C843 C840 1.387 . S
C844 C845 1.387 . S
C844 H848 0.950 . S
C844 C853 1.390 . S
C845 C844 1.387 . S
C845 C847 1.387 . S
H846 C853 0.950 . S
C847 C845 1.387 . S
C847 C849 1.390 . S
C847 H851 0.950 . S
H848 C844 0.950 . S
C849 C847 1.390 . S
C849 C850 1.387 . S
C849 H852 0.950 . S
C850 C849 1.387 . S
C850 C853 1.387 . S
H851 C847 0.950 . S
H852 C849 0.950 . S
C853 C844 1.390 . S
C853 H846 0.950 . S
C853 C850 1.387 . S
C854 C855 1.387 . S
C854 H858 0.950 . S
C854 C863 1.390 . S
C855 C854 1.387 . S
C855 C857 1.387 . S
H856 C863 0.950 1_655 S
C857 C855 1.387 . S
C857 C859 1.390 . S
C857 H861 0.950 . S
H858 C854 0.950 . S
C859 C857 1.390 . S
C859 C860 1.387 . S
C859 H862 0.950 . S
C860 C859 1.387 . S
C860 C863 1.387 . S
H861 C857 0.950 . S
H862 C859 0.950 . S
C863 C854 1.390 . S
C863 H856 0.950 1_455 S
C863 C860 1.387 . S
C625 C247 1.488 1_545 S
C630 C362 1.470 . S
C640 C446 1.470 . S
C635 C283 1.488 . S
C650 C439 1.479 . S
C645 C175 1.487 . S
C655 C211 1.486 1_545 S
C660 C355 1.478 . S
C670 C519 1.470 . S
C665 C103 1.472 1_565 S
C680 C603 1.470 . S
C675 C139 1.473 . S
C685 C31 1.465 . S
C690 C596 1.478 . S
C695 C67 1.465 1_565 S
C700 C512 1.478 . S
C710 C346 1.322 . S
C705 C37 1.510 . S
C720 C430 1.318 . S
C715 C1 1.509 . S
C730 C441 1.400 . S
C725 C109 1.535 . S
C740 C357 1.399 . S
C735 C73 1.525 . S
C750 C525 1.322 . S
C745 C181 1.528 . S
C755 C145 1.528 . S
C760 C609 1.323 . S
C770 C598 1.404 . S
C765 C253 1.583 . S
C775 C217 1.541 . S
C780 C514 1.403 . S
C790 C344 1.576 . S
C785 C25 1.543 . S
C800 C428 1.577 . S
C795 C61 1.543 . S
C805 C97 1.534 . S
C810 C435 1.560 . S
C820 C351 1.561 . S
C815 C133 1.532 . S
C830 C523 1.576 . S
C825 C169 1.568 . S
C835 C205 1.568 . S
C840 C607 1.576 . S
C845 C241 1.555 . S
C850 C614 1.561 . S
C855 C277 1.555 . S
C860 C530 1.561 . S
