# Generated by pormake.
# Topology ctn, (3,4)-cn, num edge types: 1
# Building blocks:
#     Node 0, Type 0, BuildingBlock: MIDCAF_clean_linker_0, # of connection points: 3
#     Node 1, Type 0, BuildingBlock: MIDCAF_clean_linker_0, # of connection points: 3
#     Node 2, Type 0, BuildingBlock: MIDCAF_clean_linker_0, # of connection points: 3
#     Node 3, Type 0, BuildingBlock: MIDCAF_clean_linker_0, # of connection points: 3
#     Node 4, Type 0, BuildingBlock: MIDCAF_clean_linker_0, # of connection points: 3
#     Node 5, Type 0, BuildingBlock: MIDCAF_clean_linker_0, # of connection points: 3
#     Node 6, Type 0, BuildingBlock: MIDCAF_clean_linker_0, # of connection points: 3
#     Node 7, Type 0, BuildingBlock: MIDCAF_clean_linker_0, # of connection points: 3
#     Node 8, Type 0, BuildingBlock: MIDCAF_clean_linker_0, # of connection points: 3
#     Node 9, Type 0, BuildingBlock: MIDCAF_clean_linker_0, # of connection points: 3
#     Node 10, Type 0, BuildingBlock: MIDCAF_clean_linker_0, # of connection points: 3
#     Node 11, Type 0, BuildingBlock: MIDCAF_clean_linker_0, # of connection points: 3
#     Node 12, Type 0, BuildingBlock: MIDCAF_clean_linker_0, # of connection points: 3
#     Node 13, Type 0, BuildingBlock: MIDCAF_clean_linker_0, # of connection points: 3
#     Node 14, Type 0, BuildingBlock: MIDCAF_clean_linker_0, # of connection points: 3
#     Node 15, Type 0, BuildingBlock: MIDCAF_clean_linker_0, # of connection points: 3
#     Node 16, Type 1, BuildingBlock: NAHDIM_clean_sbu_0, # of connection points: 4
#     Node 17, Type 1, BuildingBlock: NAHDIM_clean_sbu_0, # of connection points: 4
#     Node 18, Type 1, BuildingBlock: NAHDIM_clean_sbu_0, # of connection points: 4
#     Node 19, Type 1, BuildingBlock: NAHDIM_clean_sbu_0, # of connection points: 4
#     Node 20, Type 1, BuildingBlock: NAHDIM_clean_sbu_0, # of connection points: 4
#     Node 21, Type 1, BuildingBlock: NAHDIM_clean_sbu_0, # of connection points: 4
#     Node 22, Type 1, BuildingBlock: NAHDIM_clean_sbu_0, # of connection points: 4
#     Node 23, Type 1, BuildingBlock: NAHDIM_clean_sbu_0, # of connection points: 4
#     Node 24, Type 1, BuildingBlock: NAHDIM_clean_sbu_0, # of connection points: 4
#     Node 25, Type 1, BuildingBlock: NAHDIM_clean_sbu_0, # of connection points: 4
#     Node 26, Type 1, BuildingBlock: NAHDIM_clean_sbu_0, # of connection points: 4
#     Node 27, Type 1, BuildingBlock: NAHDIM_clean_sbu_0, # of connection points: 4
#     Edge 28, Type (0, 1), BuildingBlock: KIFKEQ_clean_linker_1, # of connection points: 2
#     Edge 29, Type (0, 1), BuildingBlock: KIFKEQ_clean_linker_1, # of connection points: 2
#     Edge 30, Type (0, 1), BuildingBlock: KIFKEQ_clean_linker_1, # of connection points: 2
#     Edge 31, Type (0, 1), BuildingBlock: KIFKEQ_clean_linker_1, # of connection points: 2
#     Edge 32, Type (0, 1), BuildingBlock: KIFKEQ_clean_linker_1, # of connection points: 2
#     Edge 33, Type (0, 1), BuildingBlock: KIFKEQ_clean_linker_1, # of connection points: 2
#     Edge 34, Type (0, 1), BuildingBlock: KIFKEQ_clean_linker_1, # of connection points: 2
#     Edge 35, Type (0, 1), BuildingBlock: KIFKEQ_clean_linker_1, # of connection points: 2
#     Edge 36, Type (0, 1), BuildingBlock: KIFKEQ_clean_linker_1, # of connection points: 2
#     Edge 37, Type (0, 1), BuildingBlock: KIFKEQ_clean_linker_1, # of connection points: 2
#     Edge 38, Type (0, 1), BuildingBlock: KIFKEQ_clean_linker_1, # of connection points: 2
#     Edge 39, Type (0, 1), BuildingBlock: KIFKEQ_clean_linker_1, # of connection points: 2
#     Edge 40, Type (0, 1), BuildingBlock: KIFKEQ_clean_linker_1, # of connection points: 2
#     Edge 41, Type (0, 1), BuildingBlock: KIFKEQ_clean_linker_1, # of connection points: 2
#     Edge 42, Type (0, 1), BuildingBlock: KIFKEQ_clean_linker_1, # of connection points: 2
#     Edge 43, Type (0, 1), BuildingBlock: KIFKEQ_clean_linker_1, # of connection points: 2
#     Edge 44, Type (0, 1), BuildingBlock: KIFKEQ_clean_linker_1, # of connection points: 2
#     Edge 45, Type (0, 1), BuildingBlock: KIFKEQ_clean_linker_1, # of connection points: 2
#     Edge 46, Type (0, 1), BuildingBlock: KIFKEQ_clean_linker_1, # of connection points: 2
#     Edge 47, Type (0, 1), BuildingBlock: KIFKEQ_clean_linker_1, # of connection points: 2
#     Edge 48, Type (0, 1), BuildingBlock: KIFKEQ_clean_linker_1, # of connection points: 2
#     Edge 49, Type (0, 1), BuildingBlock: KIFKEQ_clean_linker_1, # of connection points: 2
#     Edge 50, Type (0, 1), BuildingBlock: KIFKEQ_clean_linker_1, # of connection points: 2
#     Edge 51, Type (0, 1), BuildingBlock: KIFKEQ_clean_linker_1, # of connection points: 2
#     Edge 52, Type (0, 1), BuildingBlock: KIFKEQ_clean_linker_1, # of connection points: 2
#     Edge 53, Type (0, 1), BuildingBlock: KIFKEQ_clean_linker_1, # of connection points: 2
#     Edge 54, Type (0, 1), BuildingBlock: KIFKEQ_clean_linker_1, # of connection points: 2
#     Edge 55, Type (0, 1), BuildingBlock: KIFKEQ_clean_linker_1, # of connection points: 2
#     Edge 56, Type (0, 1), BuildingBlock: KIFKEQ_clean_linker_1, # of connection points: 2
#     Edge 57, Type (0, 1), BuildingBlock: KIFKEQ_clean_linker_1, # of connection points: 2
#     Edge 58, Type (0, 1), BuildingBlock: KIFKEQ_clean_linker_1, # of connection points: 2
#     Edge 59, Type (0, 1), BuildingBlock: KIFKEQ_clean_linker_1, # of connection points: 2
#     Edge 60, Type (0, 1), BuildingBlock: KIFKEQ_clean_linker_1, # of connection points: 2
#     Edge 61, Type (0, 1), BuildingBlock: KIFKEQ_clean_linker_1, # of connection points: 2
#     Edge 62, Type (0, 1), BuildingBlock: KIFKEQ_clean_linker_1, # of connection points: 2
#     Edge 63, Type (0, 1), BuildingBlock: KIFKEQ_clean_linker_1, # of connection points: 2
#     Edge 64, Type (0, 1), BuildingBlock: KIFKEQ_clean_linker_1, # of connection points: 2
#     Edge 65, Type (0, 1), BuildingBlock: KIFKEQ_clean_linker_1, # of connection points: 2
#     Edge 66, Type (0, 1), BuildingBlock: KIFKEQ_clean_linker_1, # of connection points: 2
#     Edge 67, Type (0, 1), BuildingBlock: KIFKEQ_clean_linker_1, # of connection points: 2
#     Edge 68, Type (0, 1), BuildingBlock: KIFKEQ_clean_linker_1, # of connection points: 2
#     Edge 69, Type (0, 1), BuildingBlock: KIFKEQ_clean_linker_1, # of connection points: 2
#     Edge 70, Type (0, 1), BuildingBlock: KIFKEQ_clean_linker_1, # of connection points: 2
#     Edge 71, Type (0, 1), BuildingBlock: KIFKEQ_clean_linker_1, # of connection points: 2
#     Edge 72, Type (0, 1), BuildingBlock: KIFKEQ_clean_linker_1, # of connection points: 2
#     Edge 73, Type (0, 1), BuildingBlock: KIFKEQ_clean_linker_1, # of connection points: 2
#     Edge 74, Type (0, 1), BuildingBlock: KIFKEQ_clean_linker_1, # of connection points: 2
#     Edge 75, Type (0, 1), BuildingBlock: KIFKEQ_clean_linker_1, # of connection points: 2
# Relax obj value: 0.002
# Max RMSD: 0.033
# Mean RMSD: 0.016
data_MOF--net-ctn--node1-NAHDIM_clean_sbu_0--node2-MIDCAF_clean_linker_0--edge1-KIFKEQ_clean_linker_1
_symmetry_space_group_name_H-M    P1
_symmetry_Int_Tables_number       1
_symmetry_cell_setting            triclinic
loop_
_symmetry_equiv_pos_as_xyz
'x, y, z'
_cell_length_a     68.263478
_cell_length_b     68.689519
_cell_length_c     68.008656
_cell_angle_alpha  91.165703
_cell_angle_beta   90.078404
_cell_angle_gamma 92.192597
loop_
_atom_site_label
_atom_site_type_symbol
_atom_site_fract_x
_atom_site_fract_y
_atom_site_fract_z
_atom_type_partial_charge
C0 C 0.98222 0.05345 0.09835 0.0
C1 C 0.9854 0.03921 0.11243 0.0
C2 C 0.00102 0.02669 0.1097 0.0
C3 C 0.01318 0.02836 0.09325 0.0
H4 H 0.059 0.00296 0.06538 0.0
H5 H 0.0852 0.98043 0.06014 0.0
H6 H 0.10194 0.01009 0.00699 0.0
H7 H 0.07596 0.03292 0.01235 0.0
H8 H 0.05369 0.07033 -3e-05 0.0
H9 H 0.04915 0.09728 0.97783 0.0
H10 H -0.00036 0.11525 0.01228 0.0
H11 H 0.00431 0.08866 0.03459 0.0
H12 H 0.9915 0.06637 0.07146 0.0
H13 H 0.97045 0.06348 0.10015 0.0
H14 H 0.00372 0.01543 0.12018 0.0
H15 H 0.02505 0.01843 0.09162 0.0
N16 N 0.03752 0.03194 0.05853 0.0
N17 N 0.04676 0.0484 0.02991 0.0
N18 N 0.02049 0.05913 0.04888 0.0
C19 C 0.04946 0.03372 0.04264 0.0
C20 C 0.03228 0.06117 0.03293 0.0
C21 C 0.02298 0.04458 0.06175 0.0
C22 C 0.06532 0.01983 0.03931 0.0
C23 C 0.06823 0.00473 0.05255 0.0
C24 C 0.0832 0.9917 0.0495 0.0
C25 C 0.09566 0.99344 0.03314 0.0
C26 C 0.09275 0.0085 0.01987 0.0
C27 C 0.07777 0.02153 0.02291 0.0
C28 C 0.02942 0.0773 0.01915 0.0
C29 C 0.04183 0.08001 0.00284 0.0
C30 C 0.03917 0.09541 0.99008 0.0
C31 C 0.02408 0.10846 0.99333 0.0
C32 C 0.01161 0.10566 0.00953 0.0
C33 C 0.01424 0.0903 0.02227 0.0
C34 C 0.01003 0.04264 0.07917 0.0
C35 C 0.99439 0.05517 0.08194 0.0
C36 C 0.25183 0.64881 0.23334 0.0
C37 C 0.23393 0.64684 0.22309 0.0
C38 C 0.22896 0.66151 0.21007 0.0
C39 C 0.2416 0.67767 0.20726 0.0
H40 H 0.24954 0.72406 0.17186 0.0
H41 H 0.24203 0.74688 0.1463 0.0
H42 H 0.29433 0.78144 0.1612 0.0
H43 H 0.30177 0.75883 0.18706 0.0
H44 H 0.32902 0.74565 0.22062 0.0
H45 H 0.35796 0.75148 0.24107 0.0
H46 H 0.34377 0.69903 0.2729 0.0
H47 H 0.31455 0.69329 0.25268 0.0
H48 H 0.27817 0.66601 0.23866 0.0
H49 H 0.25622 0.63767 0.2433 0.0
H50 H 0.21515 0.66064 0.20219 0.0
H51 H 0.23719 0.68866 0.19713 0.0
N52 N 0.26882 0.70978 0.20022 0.0
N53 N 0.29721 0.72841 0.20843 0.0
N54 N 0.28931 0.69985 0.22552 0.0
C55 C 0.28089 0.72559 0.19713 0.0
C56 C 0.30154 0.71563 0.22266 0.0
C57 C 0.2729 0.69683 0.21435 0.0
C58 C 0.27629 0.73955 0.18157 0.0
C59 C 0.25947 0.73652 0.16976 0.0
C60 C 0.25519 0.74955 0.155 0.0
C61 C 0.2676 0.76595 0.15168 0.0
C62 C 0.28436 0.76907 0.16353 0.0
C63 C 0.28867 0.75602 0.17829 0.0
C64 C 0.31937 0.71899 0.23497 0.0
C65 C 0.33201 0.73531 0.23195 0.0
C66 C 0.34871 0.73861 0.24361 0.0
C67 C 0.3532 0.72571 0.2586 0.0
C68 C 0.34061 0.70937 0.26162 0.0
C69 C 0.3239 0.70603 0.24993 0.0
C70 C 0.25952 0.67965 0.21747 0.0
C71 C 0.26446 0.66504 0.23059 0.0
C72 C 0.99331 0.40139 0.99782 0.0
C73 C 0.98197 0.39855 0.98067 0.0
C74 C 0.96659 0.41109 0.97722 0.0
C75 C 0.96264 0.42612 0.99063 0.0
H76 H 0.92659 0.47129 -9e-05 0.0
H77 H 0.89986 0.49271 0.99364 0.0
H78 H 0.91136 0.52286 0.04905 0.0
H79 H 0.93841 0.50166 0.05527 0.0
H80 H 0.97378 0.48899 0.08188 0.0
H81 H 0.99307 0.4921 0.11207 0.0
H82 H 0.02564 0.44205 0.09427 0.0
H83 H 0.00628 0.43867 0.06431 0.0
H84 H 0.99838 0.41804 0.02432 0.0
H85 H 0.0051 0.39182 0.00104 0.0
H86 H 0.95772 0.40942 0.96403 0.0
H87 H 0.95068 0.4355 0.98746 0.0
N88 N 0.95499 0.45703 0.01881 0.0
N89 N 0.96183 0.47358 0.0487 0.0
N90 N 0.98041 0.44705 0.03897 0.0
C91 C 0.95095 0.47149 0.03197 0.0
C92 C 0.97661 0.4614 0.0523 0.0
C93 C 0.9697 0.44476 0.02219 0.0
C94 C 0.93471 0.48468 0.02813 0.0
C95 C 0.9235 0.48247 0.0108 0.0
C96 C 0.90806 0.4947 0.00723 0.0
C97 C 0.90342 0.50944 0.02087 0.0
C98 C 0.91468 0.51176 0.03814 0.0
C99 C 0.93014 0.49952 0.04174 0.0
C100 C 0.9884 0.46356 0.07062 0.0
C101 C 0.98504 0.47862 0.08438 0.0
C102 C 0.99616 0.48048 0.10165 0.0
C103 C 0.01085 0.46729 0.10558 0.0
C104 C 0.01424 0.45228 0.09182 0.0
C105 C 0.00318 0.45044 0.07455 0.0
C106 C 0.97396 0.42893 0.00783 0.0
C107 C 0.98936 0.41638 0.01123 0.0
C108 C 0.728 0.76513 0.13642 0.0
C109 C 0.71585 0.74847 0.13277 0.0
C110 C 0.69981 0.74474 0.14525 0.0
C111 C 0.6961 0.75728 0.16113 0.0
H112 H 0.65882 0.76492 0.20707 0.0
H113 H 0.63194 0.75723 0.22934 0.0
H114 H 0.64826 0.80778 0.26538 0.0
H115 H 0.67546 0.81537 0.24331 0.0
H116 H 0.71157 0.84277 0.23069 0.0
H117 H 0.73416 0.87053 0.23708 0.0
H118 H 0.7699 0.85259 0.18807 0.0
H119 H 0.74722 0.82517 0.18137 0.0
H120 H 0.73403 0.79035 0.15463 0.0
H121 H 0.74031 0.76858 0.12691 0.0
H122 H 0.6903 0.7319 0.14296 0.0
H123 H 0.6837 0.75384 0.17053 0.0
N124 N 0.68935 0.78333 0.19419 0.0
N125 N 0.69843 0.81085 0.21357 0.0
N126 N 0.7169 0.80272 0.18576 0.0
C127 C 0.68608 0.79516 0.21001 0.0
C128 C 0.71389 0.81473 0.20149 0.0
C129 C 0.70471 0.78701 0.18198 0.0
C130 C 0.6694 0.79077 0.22337 0.0
C131 C 0.65673 0.77446 0.21971 0.0
C132 C 0.6412 0.77008 0.23242 0.0
C133 C 0.63795 0.78189 0.24912 0.0
C134 C 0.65052 0.79826 0.25276 0.0
C135 C 0.66606 0.80266 0.24003 0.0
C136 C 0.72752 0.83169 0.20548 0.0
C137 C 0.72422 0.84475 0.22124 0.0
C138 C 0.73723 0.86062 0.22498 0.0
C139 C 0.75382 0.8638 0.21307 0.0
C140 C 0.7571 0.85075 0.19734 0.0
C141 C 0.74411 0.83493 0.19358 0.0
C142 C 0.70836 0.77388 0.1649 0.0
C143 C 0.72431 0.77769 0.15228 0.0
C144 C 0.03937 0.91428 0.5091 0.0
C145 C 0.02338 0.9012 0.50551 0.0
C146 C 0.01089 0.90447 0.48956 0.0
C147 C 0.01426 0.92052 0.47754 0.0
H148 H 0.99185 0.94817 0.43059 0.0
H149 H 0.97003 0.95349 0.40312 0.0
H150 H 0.00529 0.0043 0.38722 0.0
H151 H 0.02699 -0.00074 0.41497 0.0
H152 H 0.06128 0.01455 0.44412 0.0
H153 H 0.08888 0.03702 0.45166 0.0
H154 H 0.11008 0.99693 0.49421 0.0
H155 H 0.08231 0.97474 0.48713 0.0
H156 H 0.05526 0.94004 0.50033 0.0
H157 H 0.04942 0.91203 0.52111 0.0
H158 H 0.99831 0.89478 0.48653 0.0
H159 H 0.00426 0.92262 0.46546 0.0
N160 N 0.02155 0.95415 0.4533 0.0
N161 N 0.04018 0.98237 0.44561 0.0
N162 N 0.04921 0.9634 0.47217 0.0
C163 C 0.02465 0.96989 0.44175 0.0
C164 C 0.05255 0.97921 0.46081 0.0
C165 C 0.03376 0.9508 0.46855 0.0
C166 C 0.01126 0.97326 0.42504 0.0
C167 C 0.995 0.96051 0.4213 0.0
C168 C 0.98251 0.96349 0.40545 0.0
C169 C 0.98595 0.97927 0.39292 0.0
C170 C 0.0021 0.99212 0.39672 0.0
C171 C 0.01462 0.98915 0.41259 0.0
C172 C 0.06949 0.99283 0.46505 0.0
C173 C 0.07182 0.01051 0.45509 0.0
C174 C 0.08772 0.02337 0.45934 0.0
C175 C 0.10169 0.01882 0.47358 0.0
C176 C 0.09942 0.00107 0.48341 0.0
C177 C 0.08351 0.98827 0.47924 0.0
C178 C 0.03023 0.93366 0.48117 0.0
C179 C 0.04277 0.93031 0.49708 0.0
C180 C 0.23036 0.76156 0.85967 0.0
C181 C 0.21628 0.7755 0.86375 0.0
C182 C 0.19909 0.77522 0.85232 0.0
C183 C 0.19608 0.76139 0.83715 0.0
H184 H 0.15996 0.74748 0.79079 0.0
H185 H 0.13289 0.75067 0.76798 0.0
H186 H 0.15301 0.70188 0.73348 0.0
H187 H 0.17993 0.69835 0.75652 0.0
H188 H 0.21684 0.67615 0.77076 0.0
H189 H 0.23973 0.65002 0.76667 0.0
H190 H 0.27166 0.67123 0.81815 0.0
H191 H 0.24868 0.69713 0.82251 0.0
H192 H 0.23855 0.73725 0.84182 0.0
H193 H 0.24391 0.76153 0.86798 0.0
H194 H 0.1878 0.78554 0.85525 0.0
H195 H 0.18263 0.76161 0.8287 0.0
N196 N 0.19171 0.73409 0.80434 0.0
N197 N 0.20159 0.70628 0.78704 0.0
N198 N 0.21961 0.71813 0.81441 0.0
C199 C 0.18887 0.72091 0.78934 0.0
C200 C 0.21698 0.70477 0.79954 0.0
C201 C 0.20704 0.73283 0.81692 0.0
C202 C 0.17221 0.72267 0.77552 0.0
C203 C 0.15866 0.73738 0.77837 0.0
C204 C 0.14317 0.7393 0.76521 0.0
C205 C 0.14083 0.7266 0.74885 0.0
C206 C 0.15427 0.71178 0.74606 0.0
C207 C 0.16978 0.70983 0.75924 0.0
C208 C 0.23086 0.6888 0.79697 0.0
C209 C 0.22871 0.67526 0.78125 0.0
C210 C 0.2419 0.66032 0.77882 0.0
C211 C 0.25752 0.65855 0.79208 0.0
C212 C 0.25964 0.67203 0.80782 0.0
C213 C 0.24649 0.68698 0.81024 0.0
C214 C 0.21016 0.74744 0.83309 0.0
C215 C 0.22732 0.74768 0.84457 0.0
C216 C 0.99541 0.60528 0.50009 0.0
C217 C 0.98252 0.61004 0.51539 0.0
C218 C 0.96587 0.59784 0.51857 0.0
C219 C 0.96222 0.58122 0.50672 0.0
H220 H 0.92418 0.53454 0.49918 0.0
H221 H 0.89638 0.51264 0.50619 0.0
H222 H 0.91282 0.47467 0.45808 0.0
H223 H 0.94093 0.49641 0.45117 0.0
H224 H 0.97621 0.51023 0.42296 0.0
H225 H 0.99795 0.50455 0.39516 0.0
H226 H 0.03584 0.55288 0.41491 0.0
H227 H 0.01404 0.55887 0.44232 0.0
H228 H 0.00199 0.58559 0.47654 0.0
H229 H 0.00822 0.61453 0.49711 0.0
H230 H 0.95578 0.601 0.53038 0.0
H231 H 0.94927 0.57214 0.50962 0.0
N232 N 0.9556 0.54666 0.48214 0.0
N233 N 0.96422 0.52684 0.45524 0.0
N234 N 0.98331 0.55495 0.4634 0.0
C235 C 0.95198 0.53058 0.47052 0.0
C236 C 0.97994 0.53899 0.4516 0.0
C237 C 0.97123 0.55892 0.47868 0.0
C238 C 0.93488 0.51728 0.47459 0.0
C239 C 0.92193 0.52154 0.49004 0.0
C240 C 0.90588 0.50904 0.49401 0.0
C241 C 0.90236 0.49194 0.48267 0.0
C242 C 0.91526 0.48764 0.46723 0.0
C243 C 0.93132 0.50018 0.4632 0.0
C244 C 0.99328 0.53507 0.43489 0.0
C245 C 0.98918 0.51965 0.42139 0.0
C246 C 0.00169 0.51632 0.40549 0.0
C247 C 0.01859 0.52832 0.40275 0.0
C248 C 0.02277 0.54358 0.41636 0.0
C249 C 0.01028 0.54694 0.43219 0.0
C250 C 0.9751 0.57647 0.49137 0.0
C251 C 0.99174 0.58872 0.48822 0.0
C252 C 0.85086 0.77089 0.75108 0.0
C253 C 0.85355 0.7842 0.73581 0.0
C254 C 0.84045 0.79938 0.73415 0.0
C255 C 0.82498 0.80119 0.74744 0.0
H256 H 0.77849 0.83499 0.76119 0.0
H257 H 0.75531 0.86076 0.75785 0.0
H258 H 0.72126 0.83723 0.80595 0.0
H259 H 0.74462 0.81167 0.80963 0.0
H260 H 0.75893 0.77526 0.8318 0.0
H261 H 0.75485 0.75152 0.85774 0.0
H262 H 0.80728 0.72364 0.83831 0.0
H263 H 0.81163 0.7475 0.81259 0.0
H264 H 0.8338 0.76206 0.77586 0.0
H265 H 0.86052 0.75887 0.75261 0.0
H266 H 0.84225 0.81001 0.72268 0.0
H267 H 0.81519 0.81307 0.74572 0.0
N268 N 0.79283 0.80396 0.77501 0.0
N269 N 0.77536 0.79226 0.80228 0.0
N270 N 0.80329 0.77651 0.79136 0.0
C271 C 0.77759 0.80545 0.78773 0.0
C272 C 0.78816 0.77775 0.80421 0.0
C273 C 0.80575 0.78953 0.77672 0.0
C274 C 0.76347 0.82119 0.78568 0.0
C275 C 0.76609 0.83527 0.77109 0.0
C276 C 0.75272 0.85002 0.76908 0.0
C277 C 0.7364 0.85104 0.7816 0.0
C278 C 0.73381 0.83701 0.79622 0.0
C279 C 0.74718 0.82227 0.79825 0.0
C280 C 0.78562 0.76334 0.82005 0.0
C281 C 0.76963 0.7641 0.83304 0.0
C282 C 0.76721 0.75042 0.84786 0.0
C283 C 0.78073 0.73569 0.85007 0.0
C284 C 0.79674 0.73495 0.83715 0.0
C285 C 0.79915 0.7486 0.82231 0.0
C286 C 0.82226 0.78782 0.7627 0.0
C287 C 0.83542 0.77267 0.76436 0.0
C288 C 0.34504 0.26204 0.24445 0.0
C289 C 0.35337 0.27744 0.23355 0.0
C290 C 0.34567 0.29607 0.23581 0.0
C291 C 0.33014 0.29922 0.24876 0.0
H292 H 0.28357 0.33568 0.25958 0.0
H293 H 0.26313 0.36382 0.2571 0.0
H294 H 0.22903 0.34399 0.30679 0.0
H295 H 0.24961 0.31607 0.30958 0.0
H296 H 0.25978 0.27776 0.33058 0.0
H297 H 0.25402 0.25447 0.35668 0.0
H298 H 0.30093 0.21995 0.33424 0.0
H299 H 0.30699 0.2433 0.30835 0.0
H300 H 0.32375 0.25301 0.2657 0.0
H301 H 0.35024 0.24741 0.24278 0.0
H302 H 0.35186 0.30833 0.22786 0.0
H303 H 0.3247 0.31378 0.2503 0.0
N304 N 0.2952 0.30324 0.2731 0.0
N305 N 0.27687 0.2929 0.30039 0.0
N306 N 0.30227 0.27405 0.28841 0.0
C307 C 0.28047 0.30618 0.28616 0.0
C308 C 0.28772 0.27681 0.30164 0.0
C309 C 0.30613 0.28717 0.27413 0.0
C310 C 0.26827 0.32353 0.28477 0.0
C311 C 0.27176 0.33731 0.27003 0.0
C312 C 0.25997 0.35341 0.26853 0.0
C313 C 0.24443 0.35614 0.28172 0.0
C314 C 0.24103 0.34246 0.29654 0.0
C315 C 0.2528 0.32636 0.29805 0.0
C316 C 0.28389 0.26248 0.31733 0.0
C317 C 0.26888 0.26521 0.33116 0.0
C318 C 0.26549 0.2518 0.34608 0.0
C319 C 0.27703 0.23537 0.34754 0.0
C320 C 0.29196 0.23259 0.33368 0.0
C321 C 0.29534 0.24596 0.31875 0.0
C322 C 0.32213 0.28387 0.2599 0.0
C323 C 0.32972 0.26524 0.25754 0.0
C324 C 0.49024 0.907 0.49753 0.0
C325 C 0.47808 0.90324 0.48109 0.0
C326 C 0.46225 0.91531 0.47794 0.0
C327 C 0.45862 0.93073 0.49097 0.0
H328 H 0.42292 0.97622 0.49913 0.0
H329 H 0.3958 0.99716 0.49279 0.0
H330 H 0.40812 0.02895 0.54713 0.0
H331 H 0.43512 0.00781 0.55373 0.0
H332 H 0.46869 0.99411 0.58159 0.0
H333 H 0.48873 -0.00107 0.61108 0.0
H334 H 0.52693 0.95415 0.59061 0.0
H335 H 0.50712 0.94942 0.561 0.0
H336 H 0.4963 0.92487 0.52308 0.0
H337 H 0.50272 0.89815 0.50023 0.0
H338 H 0.45245 0.91265 0.46557 0.0
H339 H 0.44621 0.93962 0.48812 0.0
N340 N 0.45167 0.96259 0.51808 0.0
N341 N 0.45897 0.98012 0.54728 0.0
N342 N 0.47781 0.95366 0.5379 0.0
C343 C 0.44772 0.97736 0.53088 0.0
C344 C 0.47406 0.96834 0.55089 0.0
C345 C 0.46668 0.95067 0.52147 0.0
C346 C 0.43126 0.99027 0.52697 0.0
C347 C 0.41991 0.98765 0.50977 0.0
C348 C 0.4044 -0.00025 0.50605 0.0
C349 C 0.39982 0.01474 0.51944 0.0
C350 C 0.41114 0.01738 0.53663 0.0
C351 C 0.4267 0.0053 0.54035 0.0
C352 C 0.48625 0.97137 0.56885 0.0
C353 C 0.48137 0.98529 0.58331 0.0
C354 C 0.49279 0.98799 0.6003 0.0
C355 C 0.5094 0.97692 0.60318 0.0
C356 C 0.51434 0.96306 0.58871 0.0
C357 C 0.50289 0.96029 0.57178 0.0
C358 C 0.47072 0.93445 0.50749 0.0
C359 C 0.48661 0.92242 0.51058 0.0
C360 C 0.23221 0.26958 0.63679 0.0
C361 C 0.2191 0.2537 0.63285 0.0
C362 C 0.20293 0.25065 0.64532 0.0
C363 C 0.19998 0.26312 0.66144 0.0
H364 H 0.1643 0.27061 0.70843 0.0
H365 H 0.13668 0.26421 0.73017 0.0
H366 H 0.15352 0.31521 0.76534 0.0
H367 H 0.18145 0.3215 0.74382 0.0
H368 H 0.22242 0.3434 0.73506 0.0
H369 H 0.24539 0.37078 0.74145 0.0
H370 H 0.2718 0.3614 0.68449 0.0
H371 H 0.24925 0.33372 0.6783 0.0
H372 H 0.23967 0.29416 0.65545 0.0
H373 H 0.24468 0.27246 0.62731 0.0
H374 H 0.19269 0.2384 0.64282 0.0
H375 H 0.18742 0.26022 0.67078 0.0
N376 N 0.19483 0.28867 0.69508 0.0
N377 N 0.20474 0.31585 0.71453 0.0
N378 N 0.22269 0.30752 0.68642 0.0
C379 C 0.19201 0.30047 0.71101 0.0
C380 C 0.22012 0.31948 0.70229 0.0
C381 C 0.21013 0.29207 0.68271 0.0
C382 C 0.17517 0.2966 0.72432 0.0
C383 C 0.16219 0.2805 0.72078 0.0
C384 C 0.14625 0.27686 0.7332 0.0
C385 C 0.14286 0.28923 0.74945 0.0
C386 C 0.15585 0.30528 0.75306 0.0
C387 C 0.17182 0.30893 0.74064 0.0
C388 C 0.23397 0.33629 0.70617 0.0
C389 C 0.23312 0.34715 0.72388 0.0
C390 C 0.24625 0.36294 0.72752 0.0
C391 C 0.26047 0.36831 0.71349 0.0
C392 C 0.26126 0.35748 0.69576 0.0
C393 C 0.24822 0.34164 0.69217 0.0
C394 C 0.21314 0.27897 0.66546 0.0
C395 C 0.22926 0.28208 0.65289 0.0
C396 C 0.749 0.15143 0.73523 0.0
C397 C 0.73317 0.14842 0.72214 0.0
C398 C 0.73061 0.16189 0.70715 0.0
C399 C 0.74363 0.17793 0.70522 0.0
H400 H 0.75321 0.22733 0.67339 0.0
H401 H 0.74917 0.24981 0.64659 0.0
H402 H 0.80445 0.27897 0.66177 0.0
H403 H 0.8087 0.2564 0.68847 0.0
H404 H 0.83057 0.24492 0.72692 0.0
H405 H 0.85796 0.24958 0.74967 0.0
H406 H 0.83892 0.19775 0.78028 0.0
H407 H 0.81129 0.1932 0.7578 0.0
H408 H 0.77403 0.16929 0.7437 0.0
H409 H 0.75123 0.14147 0.7471 0.0
H410 H 0.7187 0.15986 0.69667 0.0
H411 H 0.74124 0.18792 0.69342 0.0
N412 N 0.77111 0.21069 0.70146 0.0
N413 N 0.79929 0.22857 0.71193 0.0
N414 N 0.7889 0.20053 0.72865 0.0
C415 C 0.78395 0.22611 0.69926 0.0
C416 C 0.80186 0.21587 0.72669 0.0
C417 C 0.77349 0.19782 0.71611 0.0
C418 C 0.78131 0.23999 0.68312 0.0
C419 C 0.76453 0.23852 0.67107 0.0
C420 C 0.76213 0.25149 0.65576 0.0
C421 C 0.77648 0.26616 0.65207 0.0
C422 C 0.79323 0.26768 0.66412 0.0
C423 C 0.7956 0.25479 0.6795 0.0
C424 C 0.81865 0.21868 0.74048 0.0
C425 C 0.83217 0.23449 0.73849 0.0
C426 C 0.84797 0.23712 0.75147 0.0
C427 C 0.85064 0.22403 0.76678 0.0
C428 C 0.83714 0.20823 0.7688 0.0
C429 C 0.82134 0.20558 0.75581 0.0
C430 C 0.75952 0.18091 0.71827 0.0
C431 C 0.76201 0.16747 0.73332 0.0
C432 C 0.48399 0.55003 0.5968 0.0
C433 C 0.48802 0.53542 0.61023 0.0
C434 C 0.5042 0.52377 0.6068 0.0
C435 C 0.5161 0.52668 0.59034 0.0
H436 H 0.56517 0.50693 0.56351 0.0
H437 H 0.59321 0.48669 0.55794 0.0
H438 H 0.60634 0.51704 0.50426 0.0
H439 H 0.57814 0.53713 0.50957 0.0
H440 H 0.55393 0.5732 0.49844 0.0
H441 H 0.54723 0.59939 0.47609 0.0
H442 H 0.49553 0.6128 0.5095 0.0
H443 H 0.50196 0.58646 0.53171 0.0
H444 H 0.49228 0.56432 0.57029 0.0
H445 H 0.47149 0.55909 0.59889 0.0
H446 H 0.50786 0.51256 0.617 0.0
H447 H 0.52848 0.51746 0.58825 0.0
N448 N 0.54045 0.5332 0.55622 0.0
N449 N 0.54823 0.55044 0.5277 0.0
N450 N 0.52103 0.55878 0.54665 0.0
C451 C 0.55223 0.53606 0.54037 0.0
C452 C 0.53266 0.56187 0.53073 0.0
C453 C 0.52481 0.54448 0.55947 0.0
C454 C 0.56933 0.52371 0.537 0.0
C455 C 0.57398 0.50932 0.55049 0.0
C456 C 0.59014 0.49776 0.54737 0.0
C457 C 0.60201 0.50027 0.53068 0.0
C458 C 0.59735 0.5146 0.51716 0.0
C459 C 0.58122 0.52619 0.52028 0.0
C460 C 0.5285 0.57767 0.51694 0.0
C461 C 0.54109 0.58167 0.50104 0.0
C462 C 0.53733 0.59677 0.48826 0.0
C463 C 0.52087 0.60819 0.49103 0.0
C464 C 0.50821 0.60412 0.50682 0.0
C465 C 0.51199 0.58907 0.51964 0.0
C466 C 0.5121 0.54131 0.57689 0.0
C467 C 0.49588 0.55294 0.58033 0.0
C468 C 0.54069 0.41555 0.01349 0.0
C469 C 0.52358 0.40373 0.01094 0.0
C470 C 0.51006 0.40848 0.99637 0.0
C471 C 0.51361 0.42464 0.98454 0.0
H472 H 0.48709 0.46096 0.94453 0.0
H473 H 0.46457 0.46696 0.9176 0.0
H474 H 0.51006 0.50071 0.88835 0.0
H475 H 0.53264 0.4949 0.91534 0.0
H476 H 0.56418 0.51618 0.94984 0.0
H477 H 0.59314 0.53711 0.9564 0.0
H478 H 0.61584 0.49355 0.99437 0.0
H479 H 0.58667 0.47292 0.98835 0.0
H480 H 0.55759 0.44047 0.00411 0.0
H481 H 0.55128 0.41243 0.02476 0.0
H482 H 0.49684 0.39954 0.99388 0.0
H483 H 0.5029 0.42778 0.97339 0.0
N484 N 0.52189 0.45777 0.95989 0.0
N485 N 0.54216 0.48446 0.95086 0.0
N486 N 0.55121 0.46488 0.97695 0.0
C487 C 0.52554 0.47319 0.94806 0.0
C488 C 0.55504 0.48042 0.96534 0.0
C489 C 0.53468 0.45347 0.97435 0.0
C490 C 0.51169 0.47741 0.93206 0.0
C491 C 0.4923 0.46972 0.93241 0.0
C492 C 0.47936 0.47324 0.91706 0.0
C493 C 0.48561 0.48427 0.90092 0.0
C494 C 0.50493 0.49206 0.90059 0.0
C495 C 0.5178 0.4888 0.91609 0.0
C496 C 0.573 0.49289 0.96864 0.0
C497 C 0.57536 0.51103 0.95955 0.0
C498 C 0.59204 0.52301 0.96324 0.0
C499 C 0.60682 0.51707 0.97598 0.0
C500 C 0.60459 0.49878 0.98479 0.0
C501 C 0.58787 0.48688 0.98123 0.0
C502 C 0.53077 0.43644 0.98703 0.0
C503 C 0.54424 0.43171 0.00169 0.0
C504 C 0.73499 0.2613 0.35802 0.0
C505 C 0.72032 0.27328 0.36538 0.0
C506 C 0.70165 0.27199 0.35655 0.0
C507 C 0.69775 0.25898 0.34081 0.0
H508 H 0.66353 0.25168 0.29009 0.0
H509 H 0.63572 0.25573 0.26832 0.0
H510 H 0.64688 0.20071 0.23944 0.0
H511 H 0.67466 0.19647 0.2613 0.0
H512 H 0.71461 0.17571 0.27061 0.0
H513 H 0.73746 0.14975 0.26485 0.0
H514 H 0.77319 0.17183 0.31342 0.0
H515 H 0.75069 0.1979 0.31903 0.0
H516 H 0.74272 0.23919 0.33722 0.0
H517 H 0.74966 0.26217 0.36413 0.0
H518 H 0.68992 0.28079 0.36198 0.0
H519 H 0.68317 0.25825 0.33445 0.0
N520 N 0.69231 0.2344 0.30559 0.0
N521 N 0.70107 0.20678 0.28721 0.0
N522 N 0.72057 0.21802 0.31377 0.0
C523 C 0.68862 0.2215 0.29048 0.0
C524 C 0.71709 0.20494 0.29882 0.0
C525 C 0.70827 0.23274 0.31729 0.0
C526 C 0.67142 0.22375 0.27747 0.0
C527 C 0.66008 0.24038 0.27916 0.0
C528 C 0.64419 0.24279 0.2666 0.0
C529 C 0.63916 0.22858 0.25213 0.0
C530 C 0.65031 0.21184 0.25056 0.0
C531 C 0.6663 0.20948 0.26304 0.0
C532 C 0.73078 0.18898 0.29527 0.0
C533 C 0.72734 0.17507 0.28006 0.0
C534 C 0.74038 0.16011 0.2768 0.0
C535 C 0.75716 0.15877 0.28864 0.0
C536 C 0.76056 0.17263 0.30385 0.0
C537 C 0.74754 0.18753 0.30713 0.0
C538 C 0.71237 0.24684 0.33368 0.0
C539 C 0.73103 0.24817 0.34247 0.0
C540 C 0.48891 0.1039 -0.00064 0.0
C541 C 0.48192 0.10321 0.01874 0.0
C542 C 0.47158 0.08641 0.02501 0.0
C543 C 0.46815 0.07059 0.01206 0.0
H544 H 0.42277 0.0302 0.99498 0.0
H545 H 0.39454 0.00806 -0.00034 0.0
H546 H 0.41703 0.96855 0.95576 0.0
H547 H 0.44543 0.99063 0.95105 0.0
H548 H 0.47843 0.00782 0.92189 0.0
H549 H 0.50093 0.00274 0.89463 0.0
H550 H 0.5369 0.05226 0.91483 0.0
H551 H 0.51464 0.05727 0.94222 0.0
H552 H 0.49146 0.08883 0.97167 0.0
H553 H 0.49699 0.11669 0.99424 0.0
H554 H 0.46597 0.08561 0.03988 0.0
H555 H 0.46008 0.05784 0.0173 0.0
N556 N 0.45665 0.04144 0.98199 0.0
N557 N 0.46576 0.02327 0.95414 0.0
N558 N 0.48408 0.05151 0.96357 0.0
C559 C 0.45341 0.02593 0.96955 0.0
C560 C 0.48115 0.03599 0.95106 0.0
C561 C 0.47193 0.0543 0.97909 0.0
C562 C 0.43641 0.01224 0.97261 0.0
C563 C 0.42179 0.01679 0.98633 0.0
C564 C 0.40552 0.00416 0.98895 0.0
C565 C 0.40355 0.98662 0.97803 0.0
C566 C 0.41824 0.98192 0.96448 0.0
C567 C 0.43445 0.99463 0.96172 0.0
C568 C 0.49469 0.03295 0.93432 0.0
C569 C 0.49113 0.01765 0.92056 0.0
C570 C 0.50396 0.01478 0.90486 0.0
C571 C 0.5207 0.02709 0.9026 0.0
C572 C 0.52426 0.04238 0.91632 0.0
C573 C 0.5114 0.04531 0.93196 0.0
C574 C 0.47533 0.07115 0.99271 0.0
C575 C 0.48582 0.08793 0.98651 0.0
C576 C 0.20537 0.90028 0.01337 0.0
O577 O 0.20199 0.88313 0.00488 0.0
O578 O 0.23987 0.86948 0.99133 0.0
Zn579 Zn 0.24546 0.88778 0.01432 0.0
O580 O 0.26977 0.90442 0.00925 0.0
C581 C 0.23829 0.8573 0.0418 0.0
O582 O 0.22344 0.85334 0.02989 0.0
O583 O 0.22273 0.90525 0.01872 0.0
C584 C 0.28454 0.89782 0.00034 0.0
O585 O 0.28401 0.87955 0.99417 0.0
C586 C 0.24027 0.87496 0.97361 0.0
O587 O 0.24455 0.89333 0.96988 0.0
O588 O 0.24979 0.8718 0.03828 0.0
C589 C 0.15644 0.47024 0.26881 0.0
O590 O 0.15968 0.48622 0.27946 0.0
O591 O 0.10866 0.49656 0.27624 0.0
Zn592 Zn 0.12648 0.49324 0.25288 0.0
O593 O 0.14474 0.51678 0.25021 0.0
C594 C 0.09473 0.47881 0.2281 0.0
O595 O 0.08994 0.4691 0.24395 0.0
O596 O 0.14258 0.46964 0.25629 0.0
C597 C 0.13956 0.53169 0.24106 0.0
O598 O 0.12191 0.53174 0.23333 0.0
C599 C 0.11264 0.50876 0.29011 0.0
O600 O 0.12897 0.51947 0.28939 0.0
O601 O 0.11003 0.48994 0.22839 0.0
C602 C 0.79064 0.59591 0.99259 0.0
O603 O 0.78039 0.59321 0.97633 0.0
O604 O 0.76877 0.64203 0.97523 0.0
Zn605 Zn 0.76283 0.62547 -0.00124 0.0
O606 O 0.73899 0.60784 0.99344 0.0
C607 C 0.74504 0.6564 0.0198 0.0
O608 O 0.7358 0.65761 0.00293 0.0
O609 O 0.78589 0.60921 0.00473 0.0
C610 C 0.72624 0.60418 0.0066 0.0
O611 O 0.72868 0.61189 0.02431 0.0
C612 C 0.7609 0.63864 0.95849 0.0
O613 O 0.7488 0.62344 0.9561 0.0
O614 O 0.75765 0.64343 0.02171 0.0
C615 C 0.85171 0.05018 0.2707 0.0
O616 O 0.8675 0.0497 0.28171 0.0
O617 O 0.88225 0.00999 0.27828 0.0
Zn618 Zn 0.86508 0.01341 0.25457 0.0
O619 O 0.84739 0.98951 0.25062 0.0
C620 C 0.89757 0.02815 0.23142 0.0
O621 O 0.90242 0.03716 0.24805 0.0
O622 O 0.84802 0.03644 0.2583 0.0
C623 C 0.85089 0.97633 0.23785 0.0
O624 O 0.86675 0.97809 0.22701 0.0
C625 C 0.89591 -0.00205 0.27726 0.0
O626 O 0.89828 0.98793 0.26083 0.0
O627 O 0.88202 0.01738 0.23067 0.0
C628 C 0.28488 0.09858 0.49173 0.0
O629 O 0.27466 0.0958 0.47546 0.0
O630 O 0.2625 0.144 0.47426 0.0
Zn631 Zn 0.25679 0.1279 0.49819 0.0
O632 O 0.23289 0.11017 0.49344 0.0
C633 C 0.24117 0.16041 0.51904 0.0
O634 O 0.23249 0.16266 0.50203 0.0
O635 O 0.27995 0.11173 0.50394 0.0
C636 C 0.21881 0.1085 0.50557 0.0
O637 O 0.21967 0.11847 0.52226 0.0
C638 C 0.25286 0.14179 0.45832 0.0
O639 O 0.23884 0.12819 0.45701 0.0
O640 O 0.25239 0.14623 0.52105 0.0
C641 C 0.35522 0.55262 0.77502 0.0
O642 O 0.36979 0.55134 0.78752 0.0
O643 O 0.38785 0.51462 0.78152 0.0
Zn644 Zn 0.37138 0.51784 0.75717 0.0
O645 O 0.35456 0.49342 0.75212 0.0
C646 C 0.40386 0.5132 0.73044 0.0
O647 O 0.40771 0.49892 0.74222 0.0
O648 O 0.35328 0.54012 0.76105 0.0
C649 C 0.3529 0.48512 0.73529 0.0
O650 O 0.36258 0.49247 0.72033 0.0
C651 C 0.39341 0.49799 0.78658 0.0
O652 O 0.38806 0.48252 0.77593 0.0
O653 O 0.38906 0.5234 0.73394 0.0
C654 C 0.71888 0.41667 0.50807 0.0
O655 O 0.72926 0.41831 0.49189 0.0
O656 O 0.74007 0.37087 0.49088 0.0
Zn657 Zn 0.74645 0.38739 0.51508 0.0
O658 O 0.77031 0.40489 0.50993 0.0
C659 C 0.75876 0.35385 0.53651 0.0
O660 O 0.76482 0.3482 0.51906 0.0
O661 O 0.72355 0.40419 0.52062 0.0
C662 C 0.78732 0.40194 0.51663 0.0
O663 O 0.78989 0.38687 0.52779 0.0
C664 C 0.75333 0.36554 0.47905 0.0
O665 O 0.77168 0.37092 0.48262 0.0
O666 O 0.75063 0.37013 0.53839 0.0
C667 C 0.64048 0.95825 0.76644 0.0
O668 O 0.62466 0.95883 0.77739 0.0
O669 O 0.60905 0.99725 0.77462 0.0
Zn670 Zn 0.62618 0.99412 0.7507 0.0
O671 O 0.64322 0.01852 0.74717 0.0
C672 C 0.59257 0.99692 0.7255 0.0
O673 O 0.58705 0.00873 0.73972 0.0
O674 O 0.6439 0.97162 0.75412 0.0
C675 C 0.64065 0.03086 0.73382 0.0
O676 O 0.62613 0.02795 0.72128 0.0
C677 C 0.61345 0.00927 0.78852 0.0
O678 O 0.62979 0.01993 0.7875 0.0
O679 O 0.60896 0.98886 0.72691 0.0
C680 C 0.0002 0.22057 0.90351 0.0
O681 O 0.98563 0.23203 0.90722 0.0
O682 O 0.98215 0.24072 0.85496 0.0
Zn683 Zn 0.00601 0.2469 0.87176 0.0
O684 O 0.00134 0.27053 0.88911 0.0
C685 C 0.02704 0.26103 0.83813 0.0
O686 O 0.0096 0.26705 0.83356 0.0
O687 O 0.01117 0.22404 0.88881 0.0
C688 C 0.01134 0.28648 0.8882 0.0
O689 O 0.02574 0.28805 0.87548 0.0
C690 C 0.96519 0.24611 0.85983 0.0
O691 O 0.96298 0.25573 0.87653 0.0
O692 O 0.02919 0.25193 0.85403 0.0
C693 C 0.49453 0.72169 0.40383 0.0
O694 O 0.47877 0.73179 0.40663 0.0
O695 O 0.47689 0.74404 0.3577 0.0
Zn696 Zn 0.50094 0.75003 0.3742 0.0
O697 O 0.49622 0.77302 0.39222 0.0
C698 C 0.52722 0.74565 0.34147 0.0
O699 O 0.5156 0.73036 0.33758 0.0
O700 O 0.50653 0.72677 0.39046 0.0
C701 C 0.50177 0.79024 0.38774 0.0
O702 O 0.51074 0.79314 0.37091 0.0
C703 C 0.47244 0.75523 0.34386 0.0
O704 O 0.48368 0.77078 0.3406 0.0
O705 O 0.52393 0.75616 0.3566 0.0
C706 C -0.00151 0.78668 0.5942 0.0
O707 O 0.98363 0.77433 0.59088 0.0
O708 O 0.98149 0.76767 0.64463 0.0
Zn709 Zn 0.00423 0.76179 0.62697 0.0
O710 O 0.99826 0.73732 0.61102 0.0
C711 C 0.02729 0.74435 0.65626 0.0
O712 O 0.01118 0.7334 0.65778 0.0
O713 O 0.00952 0.78424 0.60895 0.0
C714 C 0.01016 0.73207 0.59777 0.0
O715 O 0.02618 0.74282 0.59479 0.0
C716 C 0.96396 0.76244 0.64013 0.0
O717 O 0.96051 0.753 0.62342 0.0
O718 O 0.02794 0.75784 0.64373 0.0
C719 C 0.49866 0.28632 0.09582 0.0
O720 O 0.48248 0.2755 0.09366 0.0
O721 O 0.48002 0.26317 0.14028 0.0
Zn722 Zn 0.50507 0.25844 0.1253 0.0
O723 O 0.50213 0.23482 0.10715 0.0
C724 C 0.52479 0.24779 0.16112 0.0
O725 O 0.50696 0.24233 0.16646 0.0
O726 O 0.51104 0.28183 0.10878 0.0
C727 C 0.50398 0.21752 0.11301 0.0
O728 O 0.50785 0.2146 0.13162 0.0
C729 C 0.4672 0.24985 0.14398 0.0
O730 O 0.46991 0.23195 0.13774 0.0
O731 O 0.52746 0.2551 0.14426 0.0
H732 H 0.20761 0.81415 0.8639 0.0
H733 H 0.23232 0.77025 0.9001 0.0
H734 H 0.21263 0.83817 0.89046 0.0
H735 H 0.23828 0.79447 0.92622 0.0
H736 H 0.22729 0.83705 0.97655 0.0
H737 H 0.22097 0.81332 0.95003 0.0
H738 H 0.23839 0.85653 0.9075 0.0
H739 H 0.24418 0.88047 0.93405 0.0
C740 C 0.2141 0.8096 0.87753 0.0
C741 C 0.21953 0.79024 0.87986 0.0
C742 C 0.21721 0.82345 0.89266 0.0
C743 C 0.22588 0.81828 0.91049 0.0
C744 C 0.23134 0.79892 0.9128 0.0
C745 C 0.22816 0.78507 0.8977 0.0
C746 C 0.22975 0.84151 0.96154 0.0
C747 C 0.23627 0.86065 0.95741 0.0
C748 C 0.22623 0.82786 0.94633 0.0
C749 C 0.22925 0.83297 0.92662 0.0
C750 C 0.23567 0.85216 0.92249 0.0
C751 C 0.23909 0.86586 0.93772 0.0
H752 H 0.03055 0.49355 0.38728 0.0
H753 H 0.0366 0.5558 0.3797 0.0
H754 H 0.05312 0.48847 0.35998 0.0
H755 H 0.05924 0.55071 0.35261 0.0
H756 H 0.1156 0.53502 0.32077 0.0
H757 H 0.09267 0.53932 0.3478 0.0
H758 H 0.0554 0.49237 0.32393 0.0
H759 H 0.07845 0.48788 0.29696 0.0
C760 C 0.03654 0.50613 0.37969 0.0
C761 C 0.03185 0.52508 0.38576 0.0
C762 C 0.04949 0.50322 0.36407 0.0
C763 C 0.05806 0.5192 0.35423 0.0
C764 C 0.05317 0.53812 0.36013 0.0
C765 C 0.04019 0.54102 0.37567 0.0
C766 C 0.10255 0.52558 0.32129 0.0
C767 C 0.09885 0.51113 0.30669 0.0
C768 C 0.08935 0.52812 0.33672 0.0
C769 C 0.07219 0.51623 0.33796 0.0
C770 C 0.06858 0.50164 0.32348 0.0
C771 C 0.08174 0.49915 0.30798 0.0
H772 H 0.74678 0.71674 0.86147 0.0
H773 H 0.80883 0.72165 0.87414 0.0
H774 H 0.74245 0.69306 0.8875 0.0
H775 H 0.8046 0.69748 0.89974 0.0
H776 H 0.78477 0.67153 0.9587 0.0
H777 H 0.78974 0.69467 0.93232 0.0
H778 H 0.75058 0.65958 0.89492 0.0
H779 H 0.74534 0.63656 0.9214 0.0
C780 C 0.75949 0.71278 0.86983 0.0
C781 C 0.77814 0.7211 0.86577 0.0
C782 C 0.75705 0.69904 0.88458 0.0
C783 C 0.77319 0.69336 0.89565 0.0
C784 C 0.79185 0.70167 0.89159 0.0
C785 C 0.7943 0.71537 0.87679 0.0
C786 C 0.77727 0.66869 0.94483 0.0
C787 C 0.76462 0.65222 0.94218 0.0
C788 C 0.7802 0.68192 0.92967 0.0
C789 C 0.77052 0.67899 0.91154 0.0
C790 C 0.75805 0.66238 0.90881 0.0
C791 C 0.75515 0.64913 0.92395 0.0
H792 H 0.97015 0.95158 0.36748 0.0
H793 H 0.97199 0.01358 0.37981 0.0
H794 H 0.94816 0.95621 0.33988 0.0
H795 H 0.95058 0.0183 0.35168 0.0
H796 H 0.895 0.01623 0.31338 0.0
H797 H 0.91672 0.01178 0.34132 0.0
H798 H 0.94867 0.96979 0.30724 0.0
H799 H 0.92676 0.97393 0.27948 0.0
C800 C 0.96584 0.9662 0.36432 0.0
C801 C 0.97279 0.9822 0.37589 0.0
C802 C 0.95341 0.96888 0.34835 0.0
C803 C 0.94764 0.98763 0.34354 0.0
C804 C 0.95459 0.00364 0.3551 0.0
C805 C 0.96704 0.00096 0.37108 0.0
C806 C 0.90665 0.00603 0.31186 0.0
C807 C 0.90911 0.99539 0.29422 0.0
C808 C 0.91917 0.00357 0.32783 0.0
C809 C 0.93442 0.99042 0.32652 0.0
C810 C 0.9369 0.97984 0.30884 0.0
C811 C 0.92439 0.98229 0.29288 0.0
H812 H 0.19187 0.23814 0.60685 0.0
H813 H 0.25371 0.23883 0.62057 0.0
H814 H 0.19713 0.21544 0.57949 0.0
H815 H 0.25908 0.21666 0.5928 0.0
H816 H 0.25712 0.16003 0.55593 0.0
H817 H 0.25167 0.18263 0.58329 0.0
H818 H 0.21262 0.21462 0.54704 0.0
H819 H 0.2178 0.19185 0.51975 0.0
C820 C 0.20658 0.23344 0.60403 0.0
C821 C 0.22236 0.24025 0.6159 0.0
C822 C 0.20963 0.2206 0.58822 0.0
C823 C 0.22852 0.21425 0.58398 0.0
C824 C 0.24431 0.22112 0.59582 0.0
C825 C 0.24127 0.23399 0.61159 0.0
C826 C 0.24736 0.17187 0.55378 0.0
C827 C 0.23789 0.17413 0.53565 0.0
C828 C 0.24433 0.18489 0.56944 0.0
C829 C 0.23174 0.20044 0.56732 0.0
C830 C 0.22223 0.20266 0.54921 0.0
C831 C 0.22529 0.18967 0.53353 0.0
H832 H 0.47262 0.56309 0.63462 0.0
H833 H 0.47491 0.50079 0.62554 0.0
H834 H 0.45226 0.55799 0.66366 0.0
H835 H 0.45458 0.4957 0.65454 0.0
H836 H 0.4364 0.49405 0.71905 0.0
H837 H 0.45665 0.49971 0.69013 0.0
H838 H 0.4195 0.54606 0.67312 0.0
H839 H 0.3994 0.54065 0.70229 0.0
C840 C 0.46863 0.54831 0.63872 0.0
C841 C 0.47542 0.53235 0.62779 0.0
C842 C 0.45696 0.54539 0.65536 0.0
C843 C 0.45184 0.52644 0.66145 0.0
C844 C 0.45854 0.51048 0.65044 0.0
C845 C 0.47019 0.5134 0.63382 0.0
C846 C 0.43255 0.50548 0.70917 0.0
C847 C 0.41627 0.51689 0.71298 0.0
C848 C 0.4441 0.50864 0.69252 0.0
C849 C 0.43965 0.52328 0.67927 0.0
C850 C 0.42344 0.5348 0.68315 0.0
C851 C 0.41187 0.53163 0.69981 0.0
H852 H 0.74345 0.28467 0.64136 0.0
H853 H 0.80411 0.27811 0.62541 0.0
H854 H 0.73932 0.30614 0.61359 0.0
H855 H 0.8001 0.29994 0.59795 0.0
H856 H 0.77826 0.31994 0.53789 0.0
H857 H 0.78264 0.29923 0.56609 0.0
H858 H 0.7502 0.33895 0.60242 0.0
H859 H 0.74563 0.35965 0.57413 0.0
C860 C 0.7559 0.28783 0.63193 0.0
C861 C 0.77409 0.27967 0.63554 0.0
C862 C 0.75358 0.30027 0.61615 0.0
C863 C 0.76938 0.30471 0.60358 0.0
C864 C 0.78761 0.29664 0.60727 0.0
C865 C 0.78995 0.2843 0.62311 0.0
C866 C 0.77206 0.32429 0.55188 0.0
C867 C 0.76157 0.34144 0.55375 0.0
C868 C 0.77468 0.31247 0.56807 0.0
C869 C 0.76679 0.31747 0.58648 0.0
C870 C 0.75629 0.33462 0.58837 0.0
C871 C 0.75376 0.34652 0.57219 0.0
H872 H 0.54938 0.97905 0.60598 0.0
H873 H 0.49683 0.98119 0.64112 0.0
H874 H 0.56933 0.98371 0.63558 0.0
H875 H 0.51675 0.98564 0.67078 0.0
H876 H 0.55834 0.01417 0.71664 0.0
H877 H 0.53835 0.0094 0.68712 0.0
H878 H 0.57853 0.96712 0.66492 0.0
H879 H 0.5988 0.97227 0.69422 0.0
C880 C 0.5421 0.98034 0.62006 0.0
C881 C 0.52153 0.97976 0.62122 0.0
C882 C 0.55353 0.98298 0.63704 0.0
C883 C 0.54465 0.98503 0.65558 0.0
C884 C 0.52407 0.98442 0.65671 0.0
C885 C 0.51264 0.98185 0.63972 0.0
C886 C 0.56291 0.00384 0.70547 0.0
C887 C 0.58019 0.99363 0.70777 0.0
C888 C 0.55138 0.00102 0.68859 0.0
C889 C 0.55683 0.98788 0.67363 0.0
C890 C 0.57405 0.97757 0.67601 0.0
C891 C 0.58562 0.98044 0.69287 0.0
H892 H 0.85066 0.21976 0.80671 0.0
H893 H 0.88862 0.23466 0.75806 0.0
H894 H 0.87831 0.22422 0.82933 0.0
H895 H 0.91608 0.23981 0.78076 0.0
H896 H 0.96491 0.22727 0.82401 0.0
H897 H 0.93719 0.22138 0.8018 0.0
H898 H 0.89953 0.25045 0.8431 0.0
H899 H 0.92717 0.25604 0.8655 0.0
C900 C 0.86491 0.22394 0.80084 0.0
C901 C 0.86744 0.22684 0.78058 0.0
C902 C 0.88071 0.2267 0.81383 0.0
C903 C 0.89939 0.23239 0.80685 0.0
C904 C 0.90193 0.23523 0.78658 0.0
C905 C 0.88614 0.2325 0.7736 0.0
C906 C 0.95071 0.23235 0.8284 0.0
C907 C 0.94826 0.24214 0.84653 0.0
C908 C 0.93484 0.22907 0.81561 0.0
C909 C 0.91616 0.2355 0.82065 0.0
C910 C 0.91368 0.24512 0.83887 0.0
C911 C 0.92956 0.24841 0.85166 0.0
H912 H 0.48874 0.86647 0.49018 0.0
H913 H 0.47578 0.90257 0.44088 0.0
H914 H 0.49489 0.83937 0.46763 0.0
H915 H 0.48113 0.87522 0.41838 0.0
H916 H 0.51282 0.82854 0.38318 0.0
H917 H 0.50743 0.85579 0.40577 0.0
H918 H 0.47713 0.81678 0.44557 0.0
H919 H 0.48288 0.78945 0.42318 0.0
C920 C 0.48725 0.86864 0.47453 0.0
C921 C 0.48179 0.8867 0.46733 0.0
C922 C 0.49054 0.85303 0.46161 0.0
C923 C 0.48845 0.85511 0.4412 0.0
C924 C 0.48305 0.87318 0.43401 0.0
C925 C 0.47976 0.8888 0.44692 0.0
C926 C 0.50501 0.82577 0.39674 0.0
C927 C 0.4983 0.80681 0.40138 0.0
C928 C 0.50183 0.84141 0.40965 0.0
C929 C 0.49184 0.83847 0.42748 0.0
C930 C 0.48511 0.81951 0.43209 0.0
C931 C 0.48831 0.80386 0.41919 0.0
H932 H 0.14173 0.2919 0.78966 0.0
H933 H 0.10544 0.27781 0.73886 0.0
H934 H 0.11369 0.28554 0.81111 0.0
H935 H 0.07763 0.27074 0.76032 0.0
H936 H 0.0274 0.28034 0.80341 0.0
H937 H 0.05538 0.28753 0.78221 0.0
H938 H 0.09303 0.25812 0.82215 0.0
H939 H 0.06512 0.25124 0.84357 0.0
C940 C 0.12776 0.28749 0.78307 0.0
C941 C 0.12582 0.28536 0.76255 0.0
C942 C 0.11176 0.28363 0.79537 0.0
C943 C 0.09344 0.27759 0.78743 0.0
C944 C 0.09148 0.27554 0.7669 0.0
C945 C 0.10748 0.27938 0.75461 0.0
C946 C 0.04164 0.27541 0.80768 0.0
C947 C 0.04402 0.26521 0.82518 0.0
C948 C 0.05766 0.27944 0.79547 0.0
C949 C 0.07643 0.27338 0.80048 0.0
C950 C 0.07881 0.2632 0.81799 0.0
C951 C 0.06278 0.25915 0.83021 0.0
H952 H 0.48575 0.61799 0.47536 0.0
H953 H 0.54729 0.63514 0.4765 0.0
H954 H 0.47933 0.64505 0.4539 0.0
H955 H 0.54088 0.66226 0.45513 0.0
H956 H 0.5251 0.69713 0.40126 0.0
H957 H 0.5313 0.6693 0.42173 0.0
H958 H 0.47894 0.68033 0.45514 0.0
H959 H 0.4725 0.70789 0.43442 0.0
C960 C 0.49788 0.62762 0.47112 0.0
C961 C 0.51702 0.62443 0.47765 0.0
C962 C 0.49421 0.64314 0.45884 0.0
C963 C 0.50959 0.65585 0.45282 0.0
C964 C 0.52875 0.65257 0.45925 0.0
C965 C 0.53242 0.63703 0.4715 0.0
C966 C 0.51489 0.6936 0.41295 0.0
C967 C 0.4983 0.70474 0.4162 0.0
C968 C 0.51851 0.67771 0.42475 0.0
C969 C 0.50563 0.67259 0.44009 0.0
C970 C 0.48901 0.68371 0.44329 0.0
C971 C 0.48539 0.69959 0.43147 0.0
H972 H 0.89137 0.77503 0.74363 0.0
H973 H 0.85269 0.78858 0.69589 0.0
H974 H 0.91784 0.77022 0.72026 0.0
H975 H 0.87942 0.78451 0.67256 0.0
H976 H 0.92505 0.75236 0.63562 0.0
H977 H 0.89848 0.75835 0.6586 0.0
H978 H 0.93947 0.78829 0.69832 0.0
H979 H 0.96611 0.78196 0.67556 0.0
C980 C 0.88853 0.77702 0.72815 0.0
C981 C 0.86989 0.78211 0.72162 0.0
C982 C 0.90377 0.77448 0.71477 0.0
C983 C 0.90075 0.77699 0.69454 0.0
C984 C 0.88217 0.78227 0.68802 0.0
C985 C 0.86692 0.78482 0.70141 0.0
C986 C 0.9284 0.76026 0.64924 0.0
C987 C 0.94772 0.76661 0.65378 0.0
C988 C 0.91313 0.7638 0.66236 0.0
C989 C 0.91686 0.77378 0.68031 0.0
C990 C 0.93615 0.78032 0.68474 0.0
C991 C 0.95141 0.77678 0.67164 0.0
H992 H 0.01249 0.86374 0.49464 0.0
H993 H 0.02591 0.90042 0.54561 0.0
H994 H 0.00659 0.83595 0.5159 0.0
H995 H 0.01998 0.87268 0.56686 0.0
H996 H 0.02813 0.81456 0.59671 0.0
H997 H 0.03426 0.84195 0.57507 0.0
H998 H 0.98336 0.824 0.54046 0.0
H999 H 0.97742 0.79637 0.56187 0.0
C1000 C 0.01402 0.8659 0.51039 0.0
C1001 C 0.0197 0.88428 0.51843 0.0
C1002 C 0.01064 0.84999 0.52258 0.0
C1003 C 0.01285 0.85209 0.54308 0.0
C1004 C 0.01847 0.87048 0.55111 0.0
C1005 C 0.02186 0.88639 0.53893 0.0
C1006 C 0.01825 0.81643 0.58447 0.0
C1007 C 0.00227 0.80328 0.58103 0.0
C1008 C 0.02171 0.8322 0.57213 0.0
C1009 C 0.00927 0.83519 0.55606 0.0
C1010 C 0.99335 0.82198 0.55257 0.0
C1011 C 0.98988 0.80621 0.56491 0.0
H1012 H 0.1175 0.69796 0.73116 0.0
H1013 H 0.12721 0.76047 0.73453 0.0
H1014 H 0.09068 0.70186 0.70801 0.0
H1015 H 0.09991 0.76439 0.71207 0.0
H1016 H 0.06307 0.7637 0.65622 0.0
H1017 H 0.09084 0.75892 0.67792 0.0
H1018 H 0.05759 0.71356 0.70762 0.0
H1019 H 0.02997 0.71803 0.68565 0.0
C1020 C 0.11395 0.71253 0.72693 0.0
C1021 C 0.12449 0.7289 0.73472 0.0
C1022 C 0.09844 0.71477 0.71383 0.0
C1023 C 0.09312 0.73344 0.70821 0.0
C1024 C 0.10375 0.7498 0.71592 0.0
C1025 C 0.11925 0.74756 0.729 0.0
C1026 C 0.0617 0.75267 0.66734 0.0
C1027 C 0.04429 0.74127 0.66922 0.0
C1028 C 0.07759 0.75 0.67985 0.0
C1029 C 0.07642 0.7359 0.69455 0.0
C1030 C 0.05906 0.72438 0.6963 0.0
C1031 C 0.04318 0.72703 0.68377 0.0
H1032 H 0.95632 0.6367 0.52809 0.0
H1033 H 0.01757 0.62336 0.53098 0.0
H1034 H 0.96291 0.6661 0.5481 0.0
H1035 H 0.02416 0.65269 0.55105 0.0
H1036 H 0.03206 0.71731 0.56777 0.0
H1037 H 0.02518 0.68785 0.54802 0.0
H1038 H 0.97222 0.67653 0.58129 0.0
H1039 H 0.97887 0.70623 0.60078 0.0
C1040 C 0.97116 0.63994 0.53317 0.0
C1041 C 0.98643 0.62773 0.52792 0.0
C1042 C 0.97494 0.65679 0.54464 0.0
C1043 C 0.99408 0.66177 0.55113 0.0
C1044 C 0.00932 0.64946 0.546 0.0
C1045 C 0.00554 0.63264 0.53452 0.0
C1046 C 0.01894 0.70855 0.57088 0.0
C1047 C 0.00602 0.71412 0.58585 0.0
C1048 C 0.01506 0.6916 0.55963 0.0
C1049 C 0.99817 0.67981 0.5631 0.0
C1050 C 0.98523 0.68541 0.57807 0.0
C1051 C 0.98911 0.70238 0.58932 0.0
H1052 H 0.77185 0.88767 0.18633 0.0
H1053 H 0.76737 0.87788 0.24876 0.0
H1054 H 0.79544 0.91459 0.19268 0.0
H1055 H 0.79089 0.90494 0.2551 0.0
H1056 H 0.81733 0.96778 0.2584 0.0
H1057 H 0.79374 0.94071 0.25259 0.0
H1058 H 0.82928 0.91973 0.20472 0.0
H1059 H 0.85276 0.94692 0.21032 0.0
C1060 C 0.776 0.89117 0.2014 0.0
C1061 C 0.76777 0.88057 0.21703 0.0
C1062 C 0.78952 0.9066 0.20504 0.0
C1063 C 0.79509 0.91183 0.22438 0.0
C1064 C 0.78672 0.90139 0.24004 0.0
C1065 C 0.77322 0.88592 0.2364 0.0
C1066 C 0.82015 0.95738 0.24666 0.0
C1067 C 0.8369 0.95955 0.23479 0.0
C1068 C 0.80667 0.94181 0.24341 0.0
C1069 C 0.80962 0.92812 0.22816 0.0
C1070 C 0.82647 0.9302 0.21641 0.0
C1071 C 0.83998 0.94572 0.21971 0.0
H1072 H 0.79722 0.16164 0.28915 0.0
H1073 H 0.74863 0.12018 0.28053 0.0
H1074 H 0.82015 0.13562 0.28449 0.0
H1075 H 0.77157 0.0941 0.27595 0.0
H1076 H 0.81859 0.0561 0.24933 0.0
H1077 H 0.79599 0.08249 0.25309 0.0
H1078 H 0.83107 0.107 0.30108 0.0
H1079 H 0.85395 0.08082 0.29705 0.0
C1080 C 0.79144 0.14694 0.28639 0.0
C1081 C 0.7711 0.14297 0.28526 0.0
C1082 C 0.80458 0.13202 0.28374 0.0
C1083 C 0.7977 0.11276 0.27991 0.0
C1084 C 0.77736 0.10882 0.27861 0.0
C1085 C 0.76421 0.12376 0.28123 0.0
C1086 C 0.82152 0.06713 0.26067 0.0
C1087 C 0.83809 0.06635 0.2729 0.0
C1088 C 0.80849 0.08221 0.26289 0.0
C1089 C 0.81169 0.09684 0.27741 0.0
C1090 C 0.82831 0.0961 0.28958 0.0
C1091 C 0.84137 0.08103 0.28734 0.0
H1092 H 0.40258 0.94705 0.98198 0.0
H1093 H 0.36523 0.9963 0.98011 0.0
H1094 H 0.37395 0.92544 0.98731 0.0
H1095 H 0.33656 0.97474 0.98499 0.0
H1096 H 0.29223 0.93454 0.01522 0.0
H1097 H 0.32108 0.95561 0.00975 0.0
H1098 H 0.34514 0.91142 0.97168 0.0
H1099 H 0.31651 0.89008 0.97769 0.0
C1100 C 0.38821 0.95321 0.9825 0.0
C1101 C 0.38614 0.97337 0.98073 0.0
C1102 C 0.37179 0.94083 0.98551 0.0
C1103 C 0.35292 0.94834 0.98666 0.0
C1104 C 0.35088 0.96849 0.98459 0.0
C1105 C 0.3673 0.98086 0.98174 0.0
C1106 C 0.30368 0.9293 0.00568 0.0
C1107 C 0.30207 0.91062 0.99689 0.0
C1108 C 0.32018 0.94145 0.00244 0.0
C1109 C 0.33543 0.93527 0.9902 0.0
C1110 C 0.33381 0.91656 0.9814 0.0
C1111 C 0.31734 0.90435 0.98476 0.0
H1112 H 0.22969 0.37124 0.2481 0.0
H1113 H 0.23021 0.37925 0.31128 0.0
H1114 H 0.20862 0.39891 0.24514 0.0
H1115 H 0.20854 0.40645 0.30837 0.0
H1116 H 0.18762 0.46715 0.29365 0.0
H1117 H 0.20898 0.43975 0.29671 0.0
H1118 H 0.17508 0.40765 0.25228 0.0
H1119 H 0.15393 0.4352 0.24893 0.0
C1120 C 0.22535 0.37894 0.26135 0.0
C1121 C 0.23165 0.37305 0.27992 0.0
C1122 C 0.21309 0.39465 0.25967 0.0
C1123 C 0.20685 0.40485 0.27652 0.0
C1124 C 0.21322 0.39902 0.29509 0.0
C1125 C 0.22547 0.38329 0.29677 0.0
C1126 C 0.1847 0.45425 0.28455 0.0
C1127 C 0.16909 0.45338 0.27102 0.0
C1128 C 0.19689 0.43849 0.28638 0.0
C1129 C 0.19375 0.42152 0.27472 0.0
C1130 C 0.17806 0.42062 0.26128 0.0
C1131 C 0.16586 0.43637 0.25945 0.0
H1132 H 0.12394 0.04064 0.448 0.0
H1133 H 0.1177 0.02792 0.50969 0.0
H1134 H 0.15168 0.06288 0.45568 0.0
H1135 H 0.14604 0.04935 0.51724 0.0
H1136 H 0.18483 0.10413 0.5265 0.0
H1137 H 0.15624 0.08313 0.51854 0.0
H1138 H 0.18528 0.06229 0.46619 0.0
H1139 H 0.21364 0.0837 0.47386 0.0
C1140 C 0.12844 0.04261 0.4632 0.0
C1141 C 0.11858 0.03247 0.47822 0.0
C1142 C 0.14452 0.05518 0.46758 0.0
C1143 C 0.15115 0.05787 0.48707 0.0
C1144 C 0.14121 0.0478 0.50209 0.0
C1145 C 0.12511 0.0353 0.49773 0.0
C1146 C 0.18512 0.09507 0.51329 0.0
C1147 C 0.20152 0.09558 0.50083 0.0
C1148 C 0.16875 0.08295 0.50877 0.0
C1149 C 0.16845 0.07098 0.49173 0.0
C1150 C 0.18489 0.07151 0.47928 0.0
C1151 C 0.20121 0.08371 0.48375 0.0
H1152 H 0.74214 0.1109 0.73005 0.0
H1153 H 0.69319 0.14709 0.71851 0.0
H1154 H 0.71968 0.08267 0.73305 0.0
H1155 H 0.67072 0.11884 0.7215 0.0
H1156 H 0.6395 0.05988 0.70696 0.0
H1157 H 0.66181 0.08825 0.70421 0.0
H1158 H 0.69412 0.06977 0.75476 0.0
H1159 H 0.67203 0.04122 0.75733 0.0
C1160 C 0.72656 0.11287 0.72834 0.0
C1161 C 0.71945 0.13125 0.72405 0.0
C1162 C 0.71369 0.09669 0.73005 0.0
C1163 C 0.69341 0.09851 0.72752 0.0
C1164 C 0.68629 0.11689 0.72325 0.0
C1165 C 0.69916 0.13307 0.72154 0.0
C1166 C 0.65136 0.06186 0.7175 0.0
C1167 C 0.65401 0.04825 0.73233 0.0
C1168 C 0.66408 0.07819 0.71598 0.0
C1169 C 0.67975 0.08127 0.72926 0.0
C1170 C 0.68235 0.06769 0.74414 0.0
C1171 C 0.66962 0.05137 0.74567 0.0
H1172 H 0.37224 0.02744 0.54538 0.0
H1173 H 0.38987 0.03086 0.48453 0.0
H1174 H 0.34464 0.04786 0.53872 0.0
H1175 H 0.36231 0.05131 0.47787 0.0
H1176 H 0.29893 0.06896 0.469 0.0
H1177 H 0.32673 0.04891 0.47584 0.0
H1178 H 0.33735 0.08108 0.53031 0.0
H1179 H 0.30931 0.10089 0.52368 0.0
C1180 C 0.37034 0.03272 0.53063 0.0
C1181 C 0.38323 0.02749 0.51548 0.0
C1182 C 0.35453 0.04442 0.5268 0.0
C1183 C 0.35125 0.05118 0.50775 0.0
C1184 C 0.36423 0.04607 0.49263 0.0
C1185 C 0.38003 0.03436 0.49645 0.0
C1186 C 0.30719 0.07177 0.48244 0.0
C1187 C 0.30188 0.08652 0.4958 0.0
C1188 C 0.3232 0.06034 0.4863 0.0
C1189 C 0.33428 0.06341 0.50361 0.0
C1190 C 0.32898 0.07818 0.51696 0.0
C1191 C 0.31297 0.08961 0.5131 0.0
H1192 H 0.61382 0.48319 0.49622 0.0
H1193 H 0.6291 0.48964 0.55773 0.0
H1194 H 0.64205 0.46305 0.49083 0.0
H1195 H 0.65738 0.46957 0.55234 0.0
H1196 H 0.69365 0.4161 0.5393 0.0
H1197 H 0.66537 0.43615 0.54467 0.0
H1198 H 0.67759 0.46553 0.49021 0.0
H1199 H 0.7056 0.44521 0.48461 0.0
C1200 C 0.62331 0.48045 0.50855 0.0
C1201 C 0.61922 0.48801 0.5274 0.0
C1202 C 0.6395 0.46892 0.50547 0.0
C1203 C 0.65198 0.46471 0.52116 0.0
C1204 C 0.64789 0.47228 0.54 0.0
C1205 C 0.63168 0.48379 0.54309 0.0
C1206 C 0.69031 0.42684 0.52847 0.0
C1207 C 0.70187 0.42903 0.51151 0.0
C1208 C 0.67416 0.43841 0.5316 0.0
C1209 C 0.66921 0.45245 0.51787 0.0
C1210 C 0.68083 0.45467 0.50094 0.0
C1211 C 0.69696 0.44309 0.4978 0.0
H1212 H 0.74309 0.26739 0.39778 0.0
H1213 H 0.70714 0.31026 0.37126 0.0
H1214 H 0.75105 0.29019 0.42476 0.0
H1215 H 0.71465 0.33279 0.39872 0.0
H1216 H 0.71695 0.35683 0.46361 0.0
H1217 H 0.70861 0.33473 0.43596 0.0
H1218 H 0.76983 0.32289 0.42846 0.0
H1219 H 0.77824 0.34501 0.45598 0.0
C1220 C 0.73697 0.2817 0.3976 0.0
C1221 C 0.72457 0.287 0.38221 0.0
C1222 C 0.74148 0.29472 0.41312 0.0
C1223 C 0.73353 0.31326 0.41376 0.0
C1224 C 0.72086 0.31851 0.39864 0.0
C1225 C 0.71651 0.30556 0.38296 0.0
C1226 C 0.72863 0.34955 0.45602 0.0
C1227 C 0.74825 0.35263 0.462 0.0
C1228 C 0.72385 0.33699 0.44016 0.0
C1229 C 0.73857 0.32708 0.43015 0.0
C1230 C 0.75819 0.33022 0.43605 0.0
C1231 C 0.76299 0.34296 0.45174 0.0
H1232 H 0.51158 0.01881 0.86409 0.0
H1233 H 0.56076 0.02846 0.90357 0.0
H1234 H 0.53409 0.01429 0.8367 0.0
H1235 H 0.5833 0.02374 0.87625 0.0
H1236 H 0.61697 0.03543 0.81927 0.0
H1237 H 0.59457 0.03956 0.84676 0.0
H1238 H 0.55754 0.9919 0.82389 0.0
H1239 H 0.57968 0.98809 0.79614 0.0
C1240 C 0.52721 0.01976 0.86694 0.0
C1241 C 0.5344 0.02403 0.88598 0.0
C1242 C 0.54011 0.01715 0.85126 0.0
C1243 C 0.56051 0.01866 0.85427 0.0
C1244 C 0.56768 0.0228 0.87335 0.0
C1245 C 0.55478 0.02548 0.88902 0.0
C1246 C 0.60407 0.02581 0.82012 0.0
C1247 C 0.6001 0.01146 0.80549 0.0
C1248 C 0.59127 0.02811 0.83595 0.0
C1249 C 0.57424 0.01606 0.83754 0.0
C1250 C 0.57036 0.00161 0.82297 0.0
C1251 C 0.58313 -0.00065 0.80711 0.0
H1252 H 0.30447 0.21796 0.36986 0.0
H1253 H 0.24192 0.2209 0.36143 0.0
H1254 H 0.29893 0.19465 0.39603 0.0
H1255 H 0.23636 0.19811 0.38808 0.0
H1256 H 0.23444 0.14165 0.42259 0.0
H1257 H 0.24055 0.16382 0.39554 0.0
H1258 H 0.2862 0.19404 0.42955 0.0
H1259 H 0.28036 0.1717 0.45647 0.0
C1260 C 0.28954 0.21358 0.37356 0.0
C1261 C 0.27363 0.22126 0.36355 0.0
C1262 C 0.28636 0.20039 0.38869 0.0
C1263 C 0.26721 0.19455 0.39415 0.0
C1264 C 0.2513 0.20217 0.38409 0.0
C1265 C 0.25448 0.21539 0.36898 0.0
C1266 C 0.24583 0.15297 0.42427 0.0
C1267 C 0.2569 0.15491 0.44169 0.0
C1268 C 0.24925 0.16575 0.40881 0.0
C1269 C 0.26382 0.18072 0.41041 0.0
C1270 C 0.27502 0.18252 0.42776 0.0
C1271 C 0.2716 0.16977 0.44323 0.0
H1272 H 0.44798 0.49635 0.90236 0.0
H1273 H 0.49288 0.47849 0.86191 0.0
H1274 H 0.42542 0.50005 0.87475 0.0
H1275 H 0.47032 0.48209 0.83434 0.0
H1276 H 0.41552 0.46715 0.79559 0.0
H1277 H 0.43793 0.46443 0.82334 0.0
H1278 H 0.42335 0.52188 0.8441 0.0
H1279 H 0.40103 0.52477 0.81619 0.0
C1280 C 0.45299 0.49324 0.88756 0.0
C1281 C 0.47214 0.48715 0.88423 0.0
C1282 C 0.44016 0.49545 0.8718 0.0
C1283 C 0.44615 0.4913 0.85246 0.0
C1284 C 0.46531 0.48526 0.84913 0.0
C1285 C 0.47824 0.48334 0.86486 0.0
C1286 C 0.41704 0.47919 0.80609 0.0
C1287 C 0.40653 0.49618 0.80371 0.0
C1288 C 0.42995 0.47766 0.82189 0.0
C1289 C 0.43238 0.49297 0.83579 0.0
C1290 C 0.42165 0.50984 0.83361 0.0
C1291 C 0.40897 0.5115 0.81762 0.0
H1292 H 0.75149 0.73575 0.1209 0.0
H1293 H 0.6897 0.73057 0.10705 0.0
H1294 H 0.75848 0.71378 0.09342 0.0
H1295 H 0.69662 0.708 0.08 0.0
H1296 H 0.71907 0.68571 0.02042 0.0
H1297 H 0.71205 0.708 0.04764 0.0
H1298 H 0.7538 0.67951 0.08399 0.0
H1299 H 0.7611 0.65745 0.05668 0.0
C1300 C 0.7394 0.72995 0.11196 0.0
C1301 C 0.72004 0.73494 0.11613 0.0
C1302 C 0.74338 0.71718 0.09636 0.0
C1303 C 0.7281 0.70911 0.08455 0.0
C1304 C 0.70874 0.71411 0.0887 0.0
C1305 C 0.70475 0.72687 0.10433 0.0
C1306 C 0.72676 0.6842 0.03422 0.0
C1307 C 0.74068 0.66983 0.03637 0.0
C1308 C 0.72265 0.69691 0.04985 0.0
C1309 C 0.73237 0.69553 0.06797 0.0
C1310 C 0.74625 0.68112 0.07013 0.0
C1311 C 0.75036 0.66841 0.05451 0.0
H1312 H 0.94548 0.04098 0.11372 0.0
H1313 H 0.9961 0.0336 0.15062 0.0
H1314 H 0.92426 0.03878 0.14248 0.0
H1315 H 0.97481 0.0308 0.17932 0.0
H1316 H 0.9326 0.04855 0.22846 0.0
H1317 H 0.95375 0.0513 0.19968 0.0
H1318 H 0.91269 0.01448 0.16615 0.0
H1319 H 0.89141 0.01193 0.19479 0.0
C1320 C 0.95207 0.03891 0.12798 0.0
C1321 C 0.97247 0.03749 0.1299 0.0
C1322 C 0.9399 0.03745 0.14442 0.0
C1323 C 0.94786 0.03461 0.16317 0.0
C1324 C 0.96826 0.03319 0.1651 0.0
C1325 C 0.98043 0.03457 0.14864 0.0
C1326 C 0.92806 0.04108 0.21494 0.0
C1327 C 0.9103 0.03005 0.21392 0.0
C1328 C 0.94024 0.04256 0.19849 0.0
C1329 C 0.93491 0.03309 0.18065 0.0
C1330 C 0.91711 0.02214 0.17961 0.0
C1331 C 0.90496 0.0206 0.19606 0.0
H1332 H 0.25457 0.75708 0.11442 0.0
H1333 H 0.27053 0.80583 0.15307 0.0
H1334 H 0.24714 0.7795 0.08838 0.0
H1335 H 0.26306 0.8283 0.12699 0.0
H1336 H 0.26847 0.8605 0.06835 0.0
H1337 H 0.27539 0.83863 0.09506 0.0
H1338 H 0.2234 0.80357 0.0801 0.0
H1339 H 0.21667 0.82519 0.05316 0.0
C1340 C 0.25631 0.7726 0.11742 0.0
C1341 C 0.26311 0.77967 0.13583 0.0
C1342 C 0.25204 0.78545 0.10249 0.0
C1343 C 0.25446 0.8057 0.10562 0.0
C1344 C 0.26129 0.81278 0.12402 0.0
C1345 C 0.26557 0.79991 0.13896 0.0
C1346 C 0.25847 0.84817 0.07079 0.0
C1347 C 0.24205 0.84456 0.05857 0.0
C1348 C 0.26239 0.83568 0.08617 0.0
C1349 C 0.24998 0.81932 0.08967 0.0
C1350 C 0.23342 0.81588 0.07761 0.0
C1351 C 0.2295 0.82835 0.06224 0.0
H1352 H 0.02167 0.43817 0.12967 0.0
H1353 H 0.02675 0.50056 0.12297 0.0
H1354 H 0.04197 0.44099 0.15919 0.0
H1355 H 0.04653 0.50346 0.15288 0.0
H1356 H 0.09978 0.49791 0.19347 0.0
H1357 H 0.07924 0.49518 0.16413 0.0
H1358 H 0.04077 0.45344 0.19309 0.0
H1359 H 0.06148 0.45592 0.22235 0.0
C1360 C 0.02712 0.45249 0.13451 0.0
C1361 C 0.02266 0.46913 0.12394 0.0
C1362 C 0.03857 0.45413 0.15154 0.0
C1363 C 0.04587 0.47245 0.15838 0.0
C1364 C 0.0413 0.48911 0.14788 0.0
C1365 C 0.02979 0.48748 0.13087 0.0
C1366 C 0.08696 0.48813 0.19359 0.0
C1367 C 0.08229 0.4771 0.21025 0.0
C1368 C 0.07512 0.48667 0.17681 0.0
C1369 C 0.05836 0.47412 0.17629 0.0
C1370 C 0.05371 0.46308 0.19295 0.0
C1371 C 0.06553 0.46457 0.20975 0.0
H1372 H 0.35647 0.72174 0.29843 0.0
H1373 H 0.38989 0.73809 0.24705 0.0
H1374 H 0.38528 0.72863 0.31903 0.0
H1375 H 0.41869 0.74497 0.26763 0.0
H1376 H 0.45903 0.77599 0.3131 0.0
H1377 H 0.43027 0.76857 0.29265 0.0
H1378 H 0.41774 0.71658 0.3258 0.0
H1379 H 0.44631 0.72418 0.34651 0.0
C1380 C 0.37002 0.72661 0.29151 0.0
C1381 C 0.37087 0.72942 0.2711 0.0
C1382 C 0.38653 0.73056 0.30331 0.0
C1383 C 0.40427 0.7374 0.29498 0.0
C1384 C 0.40516 0.74003 0.27456 0.0
C1385 C 0.38866 0.73609 0.26276 0.0
C1386 C 0.45014 0.76298 0.31605 0.0
C1387 C 0.45496 0.75069 0.33145 0.0
C1388 C 0.43372 0.75867 0.30424 0.0
C1389 C 0.42173 0.74196 0.30756 0.0
C1390 C 0.42654 0.72968 0.323 0.0
C1391 C 0.44297 0.73399 0.3348 0.0
H1392 H 0.01773 0.38686 0.96793 0.0
H1393 H 0.95561 0.37385 0.96145 0.0
H1394 H 0.02462 0.35981 0.94556 0.0
H1395 H 0.96247 0.34725 0.93849 0.0
H1396 H 0.9833 0.28778 0.91684 0.0
H1397 H 0.97616 0.31505 0.93882 0.0
H1398 H 0.02164 0.35022 0.91106 0.0
H1399 H 0.02907 0.32285 0.88934 0.0
C1400 C 0.00554 0.37823 0.96172 0.0
C1401 C 0.98612 0.38247 0.96652 0.0
C1402 C 0.00948 0.36287 0.94872 0.0
C1403 C 0.99409 0.35137 0.94023 0.0
C1404 C 0.97467 0.35569 0.94493 0.0
C1405 C 0.97072 0.37108 0.95792 0.0
C1406 C 0.99178 0.30133 0.91541 0.0
C1407 C 0.0068 0.30311 0.90137 0.0
C1408 C 0.9876 0.317 0.92794 0.0
C1409 C 0.99833 0.33481 0.9267 0.0
C1410 C 0.01328 0.33662 0.91258 0.0
C1411 C 0.01747 0.32095 0.90006 0.0
H1412 H 0.63844 0.78327 0.28937 0.0
H1413 H 0.60049 0.76937 0.23975 0.0
H1414 H 0.6118 0.77453 0.31177 0.0
H1415 H 0.57387 0.76063 0.26214 0.0
H1416 H 0.5381 0.72659 0.30777 0.0
H1417 H 0.5649 0.73546 0.28565 0.0
H1418 H 0.58 0.78569 0.32265 0.0
H1419 H 0.55343 0.77665 0.34497 0.0
C1420 C 0.62435 0.77855 0.28325 0.0
C1421 C 0.6216 0.77699 0.26278 0.0
C1422 C 0.6091 0.77352 0.29608 0.0
C1423 C 0.59073 0.76683 0.28874 0.0
C1424 C 0.58794 0.76542 0.26827 0.0
C1425 C 0.60319 0.77044 0.25544 0.0
C1426 C 0.54716 0.7395 0.31122 0.0
C1427 C 0.54363 0.7509 0.32815 0.0
C1428 C 0.56245 0.74465 0.29847 0.0
C1429 C 0.57456 0.7613 0.30237 0.0
C1430 C 0.57108 0.77264 0.31935 0.0
C1431 C 0.55578 0.76751 0.33209 0.0
H1432 H 0.01568 0.14596 0.00337 0.0
H1433 H 0.02624 0.10838 0.95309 0.0
H1434 H 0.01016 0.17289 0.98154 0.0
H1435 H 0.02074 0.13539 0.93121 0.0
H1436 H 0.02896 0.19399 0.89999 0.0
H1437 H 0.03523 0.167 0.92162 0.0
H1438 H 0.98589 0.18249 0.95762 0.0
H1439 H 0.9798 0.20963 0.93625 0.0
C1440 C 0.01669 0.14341 0.98764 0.0
C1441 C 0.0213 0.12499 0.97997 0.0
C1442 C 0.01353 0.15885 0.97513 0.0
C1443 C 0.01491 0.15626 0.95463 0.0
C1444 C 0.01978 0.13792 0.94694 0.0
C1445 C 0.02294 0.12245 0.95948 0.0
C1446 C 0.01944 0.19164 0.91252 0.0
C1447 C 0.0039 0.204 0.91642 0.0
C1448 C 0.02298 0.17611 0.92485 0.0
C1449 C 0.01109 0.17262 0.94137 0.0
C1450 C 0.9955 0.18494 0.94519 0.0
C1451 C 0.99194 0.20044 0.93286 0.0
H1452 H 0.38412 0.25365 0.23913 0.0
H1453 H 0.36079 0.29353 0.19747 0.0
H1454 H 0.41095 0.24709 0.21673 0.0
H1455 H 0.38817 0.28739 0.17538 0.0
H1456 H 0.45361 0.28565 0.15415 0.0
H1457 H 0.42578 0.29273 0.17541 0.0
H1458 H 0.41413 0.23109 0.18272 0.0
H1459 H 0.44179 0.22395 0.16143 0.0
C1460 C 0.38459 0.26093 0.22516 0.0
C1461 C 0.37013 0.27401 0.22008 0.0
C1462 C 0.40004 0.25721 0.21237 0.0
C1463 C 0.40156 0.26666 0.19431 0.0
C1464 C 0.38739 0.28001 0.18931 0.0
C1465 C 0.37177 0.28357 0.20201 0.0
C1466 C 0.44506 0.27361 0.16023 0.0
C1467 C 0.44993 0.25424 0.15617 0.0
C1468 C 0.42909 0.27767 0.17231 0.0
C1469 C 0.41789 0.26245 0.18075 0.0
C1470 C 0.42265 0.2431 0.17654 0.0
C1471 C 0.43843 0.23903 0.16427 0.0
H1472 H 0.48906 0.3915 0.02793 0.0
H1473 H 0.54981 0.3769 0.02213 0.0
H1474 H 0.48306 0.36318 0.04843 0.0
H1475 H 0.54381 0.34857 0.0426 0.0
H1476 H 0.53032 0.312 0.09684 0.0
H1477 H 0.53621 0.34043 0.07649 0.0
H1478 H 0.48147 0.32774 0.04605 0.0
H1479 H 0.47537 0.29954 0.06664 0.0
C1480 C 0.50109 0.38215 0.03089 0.0
C1481 C 0.51991 0.38646 0.02341 0.0
C1482 C 0.49766 0.36592 0.04264 0.0
C1483 C 0.51296 0.35362 0.04716 0.0
C1484 C 0.53178 0.35793 0.03965 0.0
C1485 C 0.53521 0.37416 0.02792 0.0
C1486 C 0.51953 0.31527 0.08581 0.0
C1487 C 0.50236 0.3035 0.08337 0.0
C1488 C 0.52297 0.33151 0.07407 0.0
C1489 C 0.50931 0.33635 0.05964 0.0
C1490 C 0.49215 0.32457 0.05721 0.0
C1491 C 0.48872 0.30833 0.06894 0.0
H1492 H 0.6105 0.20174 0.24082 0.0
H1493 H 0.63007 0.26161 0.23293 0.0
H1494 H 0.583 0.2063 0.21856 0.0
H1495 H 0.60236 0.26629 0.21102 0.0
H1496 H 0.56302 0.26006 0.15603 0.0
H1497 H 0.59072 0.25523 0.17789 0.0
H1498 H 0.55229 0.22458 0.21816 0.0
H1499 H 0.5246 0.22925 0.19628 0.0
C1500 C 0.60895 0.21585 0.23428 0.0
C1501 C 0.62243 0.23132 0.23863 0.0
C1502 C 0.59311 0.21851 0.2217 0.0
C1503 C 0.59051 0.23666 0.21307 0.0
C1504 C 0.60406 0.25209 0.21732 0.0
C1505 C 0.61981 0.24947 0.23001 0.0
C1506 C 0.56047 0.25229 0.16954 0.0
C1507 C 0.5416 0.24504 0.17441 0.0
C1508 C 0.57633 0.24962 0.1821 0.0
C1509 C 0.57368 0.23952 0.19973 0.0
C1510 C 0.55482 0.23223 0.20457 0.0
C1511 C 0.53894 0.23502 0.19209 0.0
H1512 H 0.47356 0.1411 0.01293 0.0
H1513 H 0.49814 0.103 0.05529 0.0
H1514 H 0.47862 0.16869 0.03574 0.0
H1515 H 0.50427 0.13062 0.07781 0.0
H1516 H 0.49491 0.17973 0.1218 0.0
H1517 H 0.48925 0.15231 0.09905 0.0
H1518 H 0.50193 0.19007 0.05015 0.0
H1519 H 0.50646 0.21765 0.07297 0.0
C1520 C 0.48028 0.13874 0.02708 0.0
C1521 C 0.48542 0.11999 0.03243 0.0
C1522 C 0.48331 0.15454 0.04014 0.0
C1523 C 0.4919 0.152 0.05871 0.0
C1524 C 0.49725 0.13316 0.06387 0.0
C1525 C 0.49387 0.11732 0.05094 0.0
C1526 C 0.49648 0.18213 0.10618 0.0
C1527 C 0.5011 0.20082 0.09916 0.0
C1528 C 0.49336 0.16637 0.0931 0.0
C1529 C 0.49516 0.16885 0.07267 0.0
C1530 C 0.50001 0.18759 0.06571 0.0
C1531 C 0.50277 0.20342 0.0788 0.0
H1532 H 0.25291 0.40342 0.73123 0.0
H1533 H 0.29952 0.37148 0.70427 0.0
H1534 H 0.27562 0.43122 0.73701 0.0
H1535 H 0.32209 0.39945 0.70975 0.0
H1536 H 0.34876 0.46178 0.70241 0.0
H1537 H 0.32664 0.43333 0.69757 0.0
H1538 H 0.30542 0.44029 0.75699 0.0
H1539 H 0.32744 0.46882 0.76186 0.0
C1540 C 0.26803 0.40224 0.7267 0.0
C1541 C 0.27436 0.3852 0.71726 0.0
C1542 C 0.28102 0.41819 0.72998 0.0
C1543 C 0.30062 0.41751 0.72379 0.0
C1544 C 0.307 0.40048 0.71443 0.0
C1545 C 0.29404 0.38448 0.71126 0.0
C1546 C 0.3394 0.45723 0.71446 0.0
C1547 C 0.33983 0.46759 0.73251 0.0
C1548 C 0.32682 0.44088 0.71171 0.0
C1549 C 0.31429 0.43461 0.72689 0.0
C1550 C 0.31476 0.44491 0.74496 0.0
C1551 C 0.32745 0.46118 0.74777 0.0
H1552 H 0.27404 0.64554 0.75785 0.0
H1553 H 0.27297 0.63591 0.82042 0.0
H1554 H 0.29765 0.62002 0.75364 0.0
H1555 H 0.29656 0.61038 0.81622 0.0
H1556 H 0.35451 0.58109 0.80369 0.0
H1557 H 0.33092 0.60664 0.80764 0.0
H1558 H 0.2999 0.58479 0.75585 0.0
H1559 H 0.32366 0.55945 0.75167 0.0
C1560 C 0.2787 0.63784 0.77068 0.0
C1561 C 0.27165 0.64277 0.78947 0.0
C1562 C 0.29223 0.62322 0.76827 0.0
C1563 C 0.29902 0.61319 0.7846 0.0
C1564 C 0.29188 0.61805 0.80338 0.0
C1565 C 0.27836 0.63267 0.80578 0.0
C1566 C 0.34268 0.58175 0.79312 0.0
C1567 C 0.34099 0.56823 0.77736 0.0
C1568 C 0.32909 0.59633 0.79545 0.0
C1569 C 0.31351 0.59774 0.78207 0.0
C1570 C 0.31186 0.58425 0.76628 0.0
C1571 C 0.32543 0.56966 0.76395 0.0
H1572 H 0.86496 0.50169 0.49193 0.0
H1573 H 0.90128 0.45207 0.48343 0.0
H1574 H 0.83729 0.47994 0.50025 0.0
H1575 H 0.87339 0.43026 0.4911 0.0
H1576 H 0.8256 0.39952 0.52793 0.0
H1577 H 0.85327 0.42121 0.51944 0.0
H1578 H 0.81485 0.45563 0.48493 0.0
H1579 H 0.7871 0.43417 0.49367 0.0
C1580 C 0.86703 0.48613 0.49183 0.0
C1581 C 0.88534 0.47862 0.48708 0.0
C1582 C 0.85111 0.47365 0.49639 0.0
C1583 C 0.85314 0.45337 0.49634 0.0
C1584 C 0.87141 0.44583 0.49147 0.0
C1585 C 0.88732 0.45832 0.48686 0.0
C1586 C 0.82304 0.41172 0.51855 0.0
C1587 C 0.80413 0.41513 0.51151 0.0
C1588 C 0.83893 0.42408 0.51358 0.0
C1589 C 0.83627 0.44014 0.50149 0.0
C1590 C 0.81735 0.44353 0.49446 0.0
C1591 C 0.80146 0.43117 0.4994 0.0
H1592 H 0.71863 0.87213 0.81067 0.0
H1593 H 0.72183 0.86528 0.74747 0.0
H1594 H 0.69525 0.89778 0.80697 0.0
H1595 H 0.69854 0.891 0.74379 0.0
H1596 H 0.67382 0.9522 0.74531 0.0
H1597 H 0.69686 0.92629 0.74909 0.0
H1598 H 0.66145 0.90225 0.79596 0.0
H1599 H 0.63851 0.92834 0.7924 0.0
C1600 C 0.71422 0.87598 0.79599 0.0
C1601 C 0.72212 0.86666 0.77937 0.0
C1602 C 0.70083 0.89068 0.79388 0.0
C1603 C 0.69505 0.89644 0.77508 0.0
C1604 C 0.70292 0.88711 0.75846 0.0
C1605 C 0.71628 0.87238 0.76058 0.0
C1606 C 0.67092 0.94139 0.75642 0.0
C1607 C 0.65432 0.94235 0.76856 0.0
C1608 C 0.68408 0.92648 0.75851 0.0
C1609 C 0.68098 0.91221 0.77281 0.0
C1610 C 0.66437 0.91316 0.78495 0.0
C1611 C 0.65117 0.92804 0.78283 0.0
H1612 H 0.62574 0.52297 0.01126 0.0
H1613 H 0.62767 0.54047 0.95059 0.0
H1614 H 0.65476 0.54352 0.01833 0.0
H1615 H 0.65605 0.56196 0.95795 0.0
H1616 H 0.71887 0.58234 0.97314 0.0
H1617 H 0.69019 0.56124 0.96574 0.0
H1618 H 0.66507 0.5769 0.02192 0.0
H1619 H 0.69402 0.59745 0.02957 0.0
C1620 C 0.63236 0.53118 -0.0006 0.0
C1621 C 0.62438 0.52997 0.98032 0.0
C1622 C 0.64886 0.54321 0.00354 0.0
C1623 C 0.65775 0.55447 0.98874 0.0
C1624 C 0.64974 0.55332 0.96966 0.0
C1625 C 0.63328 0.54119 0.96549 0.0
C1626 C 0.70723 0.58125 0.98392 0.0
C1627 C 0.70875 0.59152 0.00198 0.0
C1628 C 0.69071 0.56925 0.97962 0.0
C1629 C 0.67529 0.56734 0.99322 0.0
C1630 C 0.6768 0.57774 0.01123 0.0
C1631 C 0.69337 0.58963 0.01558 0.0
H1632 H 0.22488 0.62832 0.25744 0.0
H1633 H 0.21246 0.62629 0.19508 0.0
H1634 H 0.20222 0.60044 0.26202 0.0
H1635 H 0.18965 0.59862 0.19975 0.0
H1636 H 0.1345 0.56422 0.21945 0.0
H1637 H 0.15745 0.59192 0.2154 0.0
H1638 H 0.19892 0.56515 0.25343 0.0
H1639 H 0.1759 0.53749 0.25766 0.0
C1640 C 0.21746 0.62184 0.24469 0.0
C1641 C 0.22045 0.6296 0.2259 0.0
C1642 C 0.20446 0.60588 0.24733 0.0
C1643 C 0.19408 0.5974 0.23126 0.0
C1644 C 0.19718 0.60506 0.21247 0.0
C1645 C 0.21023 0.62093 0.20981 0.0
C1646 C 0.14848 0.56424 0.22699 0.0
C1647 C 0.15338 0.54863 0.23885 0.0
C1648 C 0.16168 0.58007 0.22457 0.0
C1649 C 0.18001 0.58068 0.23404 0.0
C1650 C 0.18483 0.56517 0.24607 0.0
C1651 C 0.17168 0.54928 0.2484 0.0
H1652 H 0.86724 0.499 0.00592 0.0
H1653 H 0.90205 0.54888 0.0273 0.0
H1654 H 0.84017 0.52001 -0.00081 0.0
H1655 H 0.87493 0.56992 0.02056 0.0
H1656 H 0.81472 0.59752 0.02485 0.0
H1657 H 0.84187 0.57667 0.03194 0.0
H1658 H 0.83172 0.54561 0.97677 0.0
H1659 H 0.80438 0.56619 0.96983 0.0
C1660 C 0.86917 0.51448 0.00903 0.0
C1661 C 0.88683 0.52227 0.01708 0.0
C1662 C 0.85365 0.52652 0.00517 0.0
C1663 C 0.85541 0.54666 0.00927 0.0
C1664 C 0.87302 0.55444 0.01747 0.0
C1665 C 0.88855 0.54238 0.02133 0.0
C1666 C 0.81828 0.58625 0.01423 0.0
C1667 C 0.80735 0.5835 0.99679 0.0
C1668 C 0.83392 0.57437 0.01825 0.0
C1669 C 0.83895 0.55946 0.00494 0.0
C1670 C 0.82806 0.55678 0.98746 0.0
C1671 C 0.81244 0.56867 0.98343 0.0
H1672 H 0.09432 0.95395 0.03808 0.0
H1673 H 0.13326 0.00175 0.02116 0.0
H1674 H 0.12082 0.93147 0.03369 0.0
H1675 H 0.15955 0.97916 0.01605 0.0
H1676 H 0.20738 0.93674 0.03037 0.0
H1677 H 0.18082 0.95905 0.03517 0.0
H1678 H 0.14031 0.91694 0.00767 0.0
H1679 H 0.16679 0.89445 0.00319 0.0
C1680 C 0.10854 0.95966 0.03344 0.0
C1681 C 0.11168 0.97966 0.03002 0.0
C1682 C 0.12367 0.94674 0.0307 0.0
C1683 C 0.14231 0.95351 0.02452 0.0
C1684 C 0.14543 0.9735 0.02103 0.0
C1685 C 0.13029 0.98642 0.02374 0.0
C1686 C 0.19281 0.93222 0.02536 0.0
C1687 C 0.18921 0.9138 0.01639 0.0
C1688 C 0.1776 0.94506 0.02801 0.0
C1689 C 0.15845 0.9398 0.02176 0.0
C1690 C 0.15485 0.92135 0.01286 0.0
C1691 C 0.17006 0.9085 0.0102 0.0
loop_
_geom_bond_atom_site_label_1
_geom_bond_atom_site_label_2
_geom_bond_distance
_geom_bond_site_symmetry_2
_ccdc_geom_bond_type
C0 C1 1.384 . S
C0 H13 0.947 . S
C0 C35 1.382 . S
C1 C0 1.384 . S
C1 C2 1.378 1_655 S
C2 C1 1.378 1_455 S
C2 C3 1.378 . S
C2 H14 0.952 . S
C3 C2 1.378 . S
C3 H15 0.950 . S
C3 C34 1.383 . S
H4 C23 0.947 . S
H5 C24 0.946 . S
H6 C26 0.953 . S
H7 C27 0.945 . S
H8 C29 0.948 1_556 S
H9 C30 0.949 . S
H10 C32 0.950 . S
H11 C33 0.948 . S
H12 C35 0.951 . S
H13 C0 0.947 . S
H14 C2 0.952 . S
H15 C3 0.950 . S
N16 C19 1.382 . S
N16 C21 1.363 . S
N17 C19 1.371 . S
N17 C20 1.372 . S
N18 C20 1.361 . S
N18 C21 1.377 . S
C19 N16 1.382 . S
C19 N17 1.371 . S
C19 C22 1.480 . S
C20 N17 1.372 . S
C20 N18 1.361 . S
C20 C28 1.457 . S
C21 N16 1.363 . S
C21 N18 1.377 . S
C21 C34 1.479 . S
C22 C19 1.480 . S
C22 C23 1.383 . S
C22 C27 1.385 . S
C23 H4 0.947 . S
C23 C22 1.383 . S
C23 C24 1.388 1_545 S
C24 H5 0.946 . S
C24 C23 1.388 1_565 S
C24 C25 1.384 . S
C25 C24 1.384 . S
C25 C26 1.377 1_565 S
C26 H6 0.953 . S
C26 C25 1.377 1_545 S
C26 C27 1.369 . S
C27 H7 0.945 . S
C27 C22 1.385 . S
C27 C26 1.369 . S
C28 C20 1.457 . S
C28 C29 1.372 . S
C28 C33 1.364 . S
C29 H8 0.948 1_554 S
C29 C28 1.372 . S
C29 C30 1.389 1_554 S
C30 H9 0.949 . S
C30 C29 1.389 1_556 S
C30 C31 1.387 . S
C31 C30 1.387 . S
C31 C32 1.372 1_556 S
C32 H10 0.950 . S
C32 C31 1.372 1_554 S
C32 C33 1.379 . S
C33 H11 0.948 . S
C33 C28 1.364 . S
C33 C32 1.379 . S
C34 C3 1.383 . S
C34 C21 1.479 . S
C34 C35 1.398 1_455 S
C35 C0 1.382 . S
C35 H12 0.951 . S
C35 C34 1.398 1_655 S
C36 C37 1.384 . S
C36 H49 0.947 . S
C36 C71 1.382 . S
C37 C36 1.384 . S
C37 C38 1.378 . S
C38 C37 1.378 . S
C38 C39 1.378 . S
C38 H50 0.952 . S
C39 C38 1.378 . S
C39 H51 0.950 . S
C39 C70 1.383 . S
H40 C59 0.947 . S
H41 C60 0.946 . S
H42 C62 0.953 . S
H43 C63 0.945 . S
H44 C65 0.952 . S
H45 C66 0.949 . S
H46 C68 0.950 . S
H47 C69 0.948 . S
H48 C71 0.951 . S
H49 C36 0.947 . S
H50 C38 0.952 . S
H51 C39 0.950 . S
N52 C55 1.382 . S
N52 C57 1.363 . S
N53 C55 1.371 . S
N53 C56 1.372 . S
N54 C56 1.361 . S
N54 C57 1.377 . S
C55 N52 1.382 . S
C55 N53 1.371 . S
C55 C58 1.480 . S
C56 N53 1.372 . S
C56 N54 1.361 . S
C56 C64 1.457 . S
C57 N52 1.363 . S
C57 N54 1.377 . S
C57 C70 1.479 . S
C58 C55 1.480 . S
C58 C59 1.383 . S
C58 C63 1.385 . S
C59 H40 0.947 . S
C59 C58 1.383 . S
C59 C60 1.388 . S
C60 H41 0.946 . S
C60 C59 1.388 . S
C60 C61 1.384 . S
C61 C60 1.384 . S
C61 C62 1.377 . S
C62 H42 0.953 . S
C62 C61 1.377 . S
C62 C63 1.369 . S
C63 H43 0.945 . S
C63 C58 1.385 . S
C63 C62 1.369 . S
C64 C56 1.457 . S
C64 C65 1.372 . S
C64 C69 1.364 . S
C65 H44 0.952 . S
C65 C64 1.372 . S
C65 C66 1.389 . S
C66 H45 0.949 . S
C66 C65 1.389 . S
C66 C67 1.387 . S
C67 C66 1.387 . S
C67 C68 1.372 . S
C68 H46 0.950 . S
C68 C67 1.372 . S
C68 C69 1.379 . S
C69 H47 0.948 . S
C69 C64 1.364 . S
C69 C68 1.379 . S
C70 C39 1.383 . S
C70 C57 1.479 . S
C70 C71 1.398 . S
C71 C36 1.382 . S
C71 H48 0.951 . S
C71 C70 1.398 . S
C72 C73 1.384 1_554 S
C72 H85 0.947 . S
C72 C107 1.382 . S
C73 C72 1.384 1_556 S
C73 C74 1.378 . S
C74 C73 1.378 . S
C74 C75 1.378 . S
C74 H86 0.952 . S
C75 C74 1.378 . S
C75 H87 0.950 . S
C75 C106 1.383 1_556 S
H76 C95 0.947 . S
H77 C96 0.946 . S
H78 C98 0.953 . S
H79 C99 0.945 . S
H80 C101 0.952 . S
H81 C102 0.950 . S
H82 C104 0.950 . S
H83 C105 0.948 . S
H84 C107 0.951 . S
H85 C72 0.947 . S
H86 C74 0.952 . S
H87 C75 0.950 . S
N88 C91 1.382 . S
N88 C93 1.363 . S
N89 C91 1.371 . S
N89 C92 1.372 . S
N90 C92 1.361 . S
N90 C93 1.377 . S
C91 N88 1.382 . S
C91 N89 1.371 . S
C91 C94 1.480 . S
C92 N89 1.372 . S
C92 N90 1.361 . S
C92 C100 1.457 . S
C93 N88 1.363 . S
C93 N90 1.377 . S
C93 C106 1.479 . S
C94 C91 1.480 . S
C94 C95 1.383 . S
C94 C99 1.385 . S
C95 H76 0.947 . S
C95 C94 1.383 . S
C95 C96 1.388 . S
C96 H77 0.946 . S
C96 C95 1.388 . S
C96 C97 1.384 . S
C97 C96 1.384 . S
C97 C98 1.377 . S
C98 H78 0.953 . S
C98 C97 1.377 . S
C98 C99 1.369 . S
C99 H79 0.945 . S
C99 C94 1.385 . S
C99 C98 1.369 . S
C100 C92 1.457 . S
C100 C101 1.372 . S
C100 C105 1.364 1_655 S
C101 H80 0.952 . S
C101 C100 1.372 . S
C101 C102 1.392 . S
C102 H81 0.950 . S
C102 C101 1.392 . S
C102 C103 1.382 1_655 S
C103 C102 1.382 1_455 S
C103 C104 1.372 . S
C104 H82 0.950 . S
C104 C103 1.372 . S
C104 C105 1.379 . S
C105 H83 0.948 . S
C105 C100 1.364 1_455 S
C105 C104 1.379 . S
C106 C75 1.383 1_554 S
C106 C93 1.479 . S
C106 C107 1.398 . S
C107 C72 1.382 . S
C107 H84 0.951 . S
C107 C106 1.398 . S
C108 C109 1.384 . S
C108 H121 0.947 . S
C108 C143 1.382 . S
C109 C108 1.384 . S
C109 C110 1.378 . S
C110 C109 1.378 . S
C110 C111 1.378 . S
C110 H122 0.952 . S
C111 C110 1.378 . S
C111 H123 0.950 . S
C111 C142 1.383 . S
H112 C131 0.947 . S
H113 C132 0.946 . S
H114 C134 0.953 . S
H115 C135 0.945 . S
H116 C137 0.952 . S
H117 C138 0.949 . S
H118 C140 0.950 . S
H119 C141 0.948 . S
H120 C143 0.951 . S
H121 C108 0.947 . S
H122 C110 0.952 . S
H123 C111 0.950 . S
N124 C127 1.382 . S
N124 C129 1.363 . S
N125 C127 1.371 . S
N125 C128 1.372 . S
N126 C128 1.361 . S
N126 C129 1.377 . S
C127 N124 1.382 . S
C127 N125 1.371 . S
C127 C130 1.480 . S
C128 N125 1.372 . S
C128 N126 1.361 . S
C128 C136 1.457 . S
C129 N124 1.363 . S
C129 N126 1.377 . S
C129 C142 1.479 . S
C130 C127 1.480 . S
C130 C131 1.383 . S
C130 C135 1.385 . S
C131 H112 0.947 . S
C131 C130 1.383 . S
C131 C132 1.388 . S
C132 H113 0.946 . S
C132 C131 1.388 . S
C132 C133 1.384 . S
C133 C132 1.384 . S
C133 C134 1.377 . S
C134 H114 0.953 . S
C134 C133 1.377 . S
C134 C135 1.369 . S
C135 H115 0.945 . S
C135 C130 1.385 . S
C135 C134 1.369 . S
C136 C128 1.457 . S
C136 C137 1.372 . S
C136 C141 1.364 . S
C137 H116 0.952 . S
C137 C136 1.372 . S
C137 C138 1.389 . S
C138 H117 0.949 . S
C138 C137 1.389 . S
C138 C139 1.387 . S
C139 C138 1.387 . S
C139 C140 1.372 . S
C140 H118 0.950 . S
C140 C139 1.372 . S
C140 C141 1.379 . S
C141 H119 0.948 . S
C141 C136 1.364 . S
C141 C140 1.379 . S
C142 C111 1.383 . S
C142 C129 1.479 . S
C142 C143 1.398 . S
C143 C108 1.382 . S
C143 H120 0.951 . S
C143 C142 1.398 . S
C144 C145 1.384 . S
C144 H157 0.947 . S
C144 C179 1.382 . S
C145 C144 1.384 . S
C145 C146 1.378 . S
C146 C145 1.378 . S
C146 C147 1.378 . S
C146 H158 0.952 . S
C147 C146 1.378 . S
C147 H159 0.950 . S
C147 C178 1.383 . S
H148 C167 0.947 . S
H149 C168 0.946 . S
H150 C170 0.953 1_545 S
H151 C171 0.943 . S
H152 C173 0.952 . S
H153 C174 0.949 . S
H154 C176 0.950 . S
H155 C177 0.948 . S
H156 C179 0.951 . S
H157 C144 0.947 . S
H158 C146 0.952 . S
H159 C147 0.950 . S
N160 C163 1.382 . S
N160 C165 1.363 . S
N161 C163 1.371 . S
N161 C164 1.372 . S
N162 C164 1.361 . S
N162 C165 1.377 . S
C163 N160 1.382 . S
C163 N161 1.371 . S
C163 C166 1.480 . S
C164 N161 1.372 . S
C164 N162 1.361 . S
C164 C172 1.457 . S
C165 N160 1.363 . S
C165 N162 1.377 . S
C165 C178 1.479 . S
C166 C163 1.480 . S
C166 C167 1.383 1_455 S
C166 C171 1.385 . S
C167 H148 0.947 . S
C167 C166 1.383 1_655 S
C167 C168 1.388 . S
C168 H149 0.946 . S
C168 C167 1.388 . S
C168 C169 1.384 . S
C169 C168 1.384 . S
C169 C170 1.377 1_655 S
C170 H150 0.953 1_565 S
C170 C169 1.377 1_455 S
C170 C171 1.369 . S
C171 H151 0.943 . S
C171 C166 1.385 . S
C171 C170 1.369 . S
C172 C164 1.457 . S
C172 C173 1.372 1_565 S
C172 C177 1.364 . S
C173 H152 0.952 . S
C173 C172 1.372 1_545 S
C173 C174 1.389 . S
C174 H153 0.949 . S
C174 C173 1.389 . S
C174 C175 1.387 . S
C175 C174 1.387 . S
C175 C176 1.372 . S
C176 H154 0.950 . S
C176 C175 1.372 . S
C176 C177 1.379 1_545 S
C177 H155 0.948 . S
C177 C172 1.364 . S
C177 C176 1.379 1_565 S
C178 C147 1.383 . S
C178 C165 1.479 . S
C178 C179 1.398 . S
C179 C144 1.382 . S
C179 H156 0.951 . S
C179 C178 1.398 . S
C180 C181 1.384 . S
C180 H193 0.947 . S
C180 C215 1.382 . S
C181 C180 1.384 . S
C181 C182 1.378 . S
C182 C181 1.378 . S
C182 C183 1.378 . S
C182 H194 0.952 . S
C183 C182 1.378 . S
C183 H195 0.950 . S
C183 C214 1.383 . S
H184 C203 0.947 . S
H185 C204 0.946 . S
H186 C206 0.953 . S
H187 C207 0.945 . S
H188 C209 0.952 . S
H189 C210 0.949 . S
H190 C212 0.950 . S
H191 C213 0.948 . S
H192 C215 0.951 . S
H193 C180 0.947 . S
H194 C182 0.952 . S
H195 C183 0.950 . S
N196 C199 1.382 . S
N196 C201 1.363 . S
N197 C199 1.371 . S
N197 C200 1.372 . S
N198 C200 1.361 . S
N198 C201 1.377 . S
C199 N196 1.382 . S
C199 N197 1.371 . S
C199 C202 1.480 . S
C200 N197 1.372 . S
C200 N198 1.361 . S
C200 C208 1.457 . S
C201 N196 1.363 . S
C201 N198 1.377 . S
C201 C214 1.479 . S
C202 C199 1.480 . S
C202 C203 1.383 . S
C202 C207 1.385 . S
C203 H184 0.947 . S
C203 C202 1.383 . S
C203 C204 1.388 . S
C204 H185 0.946 . S
C204 C203 1.388 . S
C204 C205 1.384 . S
C205 C204 1.384 . S
C205 C206 1.377 . S
C206 H186 0.953 . S
C206 C205 1.377 . S
C206 C207 1.369 . S
C207 H187 0.945 . S
C207 C202 1.385 . S
C207 C206 1.369 . S
C208 C200 1.457 . S
C208 C209 1.372 . S
C208 C213 1.364 . S
C209 H188 0.952 . S
C209 C208 1.372 . S
C209 C210 1.389 . S
C210 H189 0.949 . S
C210 C209 1.389 . S
C210 C211 1.387 . S
C211 C210 1.387 . S
C211 C212 1.372 . S
C212 H190 0.950 . S
C212 C211 1.372 . S
C212 C213 1.379 . S
C213 H191 0.948 . S
C213 C208 1.364 . S
C213 C212 1.379 . S
C214 C183 1.383 . S
C214 C201 1.479 . S
C214 C215 1.398 . S
C215 C180 1.382 . S
C215 H192 0.951 . S
C215 C214 1.398 . S
C216 C217 1.384 . S
C216 H229 0.945 1_655 S
C216 C251 1.382 . S
C217 C216 1.384 . S
C217 C218 1.378 . S
C218 C217 1.378 . S
C218 C219 1.378 . S
C218 H230 0.952 . S
C219 C218 1.378 . S
C219 H231 0.950 . S
C219 C250 1.383 . S
H220 C239 0.947 . S
H221 C240 0.946 . S
H222 C242 0.953 . S
H223 C243 0.945 . S
H224 C245 0.952 . S
H225 C246 0.949 . S
H226 C248 0.950 . S
H227 C249 0.948 . S
H228 C251 0.951 . S
H229 C216 0.945 1_455 S
H230 C218 0.952 . S
H231 C219 0.950 . S
N232 C235 1.382 . S
N232 C237 1.363 . S
N233 C235 1.371 . S
N233 C236 1.372 . S
N234 C236 1.361 . S
N234 C237 1.377 . S
C235 N232 1.382 . S
C235 N233 1.371 . S
C235 C238 1.480 . S
C236 N233 1.372 . S
C236 N234 1.361 . S
C236 C244 1.457 . S
C237 N232 1.363 . S
C237 N234 1.377 . S
C237 C250 1.479 . S
C238 C235 1.480 . S
C238 C239 1.383 . S
C238 C243 1.385 . S
C239 H220 0.947 . S
C239 C238 1.383 . S
C239 C240 1.388 . S
C240 H221 0.946 . S
C240 C239 1.388 . S
C240 C241 1.384 . S
C241 C240 1.384 . S
C241 C242 1.377 . S
C242 H222 0.953 . S
C242 C241 1.377 . S
C242 C243 1.369 . S
C243 H223 0.945 . S
C243 C238 1.385 . S
C243 C242 1.369 . S
C244 C236 1.457 . S
C244 C245 1.372 . S
C244 C249 1.364 1_655 S
C245 H224 0.952 . S
C245 C244 1.372 . S
C245 C246 1.389 . S
C246 H225 0.949 . S
C246 C245 1.389 . S
C246 C247 1.387 1_655 S
C247 C246 1.387 1_455 S
C247 C248 1.372 . S
C248 H226 0.950 . S
C248 C247 1.372 . S
C248 C249 1.379 . S
C249 H227 0.948 . S
C249 C244 1.364 1_455 S
C249 C248 1.379 . S
C250 C219 1.383 . S
C250 C237 1.479 . S
C250 C251 1.398 . S
C251 C216 1.382 . S
C251 H228 0.951 . S
C251 C250 1.398 . S
C252 C253 1.384 . S
C252 H265 0.947 . S
C252 C287 1.382 . S
C253 C252 1.384 . S
C253 C254 1.378 . S
C254 C253 1.378 . S
C254 C255 1.378 . S
C254 H266 0.952 . S
C255 C254 1.378 . S
C255 H267 0.950 . S
C255 C286 1.383 . S
H256 C275 0.947 . S
H257 C276 0.946 . S
H258 C278 0.953 . S
H259 C279 0.945 . S
H260 C281 0.952 . S
H261 C282 0.949 . S
H262 C284 0.950 . S
H263 C285 0.948 . S
H264 C287 0.951 . S
H265 C252 0.947 . S
H266 C254 0.952 . S
H267 C255 0.950 . S
N268 C271 1.382 . S
N268 C273 1.363 . S
N269 C271 1.371 . S
N269 C272 1.372 . S
N270 C272 1.361 . S
N270 C273 1.377 . S
C271 N268 1.382 . S
C271 N269 1.371 . S
C271 C274 1.480 . S
C272 N269 1.372 . S
C272 N270 1.361 . S
C272 C280 1.457 . S
C273 N268 1.363 . S
C273 N270 1.377 . S
C273 C286 1.479 . S
C274 C271 1.480 . S
C274 C275 1.383 . S
C274 C279 1.385 . S
C275 H256 0.947 . S
C275 C274 1.383 . S
C275 C276 1.388 . S
C276 H257 0.946 . S
C276 C275 1.388 . S
C276 C277 1.384 . S
C277 C276 1.384 . S
C277 C278 1.377 . S
C278 H258 0.953 . S
C278 C277 1.377 . S
C278 C279 1.369 . S
C279 H259 0.945 . S
C279 C274 1.385 . S
C279 C278 1.369 . S
C280 C272 1.457 . S
C280 C281 1.372 . S
C280 C285 1.364 . S
C281 H260 0.952 . S
C281 C280 1.372 . S
C281 C282 1.389 . S
C282 H261 0.949 . S
C282 C281 1.389 . S
C282 C283 1.387 . S
C283 C282 1.387 . S
C283 C284 1.372 . S
C284 H262 0.950 . S
C284 C283 1.372 . S
C284 C285 1.379 . S
C285 H263 0.948 . S
C285 C280 1.364 . S
C285 C284 1.379 . S
C286 C255 1.383 . S
C286 C273 1.479 . S
C286 C287 1.398 . S
C287 C252 1.382 . S
C287 H264 0.951 . S
C287 C286 1.398 . S
C288 C289 1.384 . S
C288 H301 0.947 . S
C288 C323 1.382 . S
C289 C288 1.384 . S
C289 C290 1.378 . S
C290 C289 1.378 . S
C290 C291 1.378 . S
C290 H302 0.952 . S
C291 C290 1.378 . S
C291 H303 0.950 . S
C291 C322 1.383 . S
H292 C311 0.947 . S
H293 C312 0.946 . S
H294 C314 0.953 . S
H295 C315 0.945 . S
H296 C317 0.952 . S
H297 C318 0.949 . S
H298 C320 0.950 . S
H299 C321 0.948 . S
H300 C323 0.951 . S
H301 C288 0.947 . S
H302 C290 0.952 . S
H303 C291 0.950 . S
N304 C307 1.382 . S
N304 C309 1.363 . S
N305 C307 1.371 . S
N305 C308 1.372 . S
N306 C308 1.361 . S
N306 C309 1.377 . S
C307 N304 1.382 . S
C307 N305 1.371 . S
C307 C310 1.480 . S
C308 N305 1.372 . S
C308 N306 1.361 . S
C308 C316 1.457 . S
C309 N304 1.363 . S
C309 N306 1.377 . S
C309 C322 1.479 . S
C310 C307 1.480 . S
C310 C311 1.383 . S
C310 C315 1.385 . S
C311 H292 0.947 . S
C311 C310 1.383 . S
C311 C312 1.388 . S
C312 H293 0.946 . S
C312 C311 1.388 . S
C312 C313 1.384 . S
C313 C312 1.384 . S
C313 C314 1.377 . S
C314 H294 0.953 . S
C314 C313 1.377 . S
C314 C315 1.369 . S
C315 H295 0.945 . S
C315 C310 1.385 . S
C315 C314 1.369 . S
C316 C308 1.457 . S
C316 C317 1.372 . S
C316 C321 1.364 . S
C317 H296 0.952 . S
C317 C316 1.372 . S
C317 C318 1.389 . S
C318 H297 0.949 . S
C318 C317 1.389 . S
C318 C319 1.387 . S
C319 C318 1.387 . S
C319 C320 1.372 . S
C320 H298 0.950 . S
C320 C319 1.372 . S
C320 C321 1.379 . S
C321 H299 0.948 . S
C321 C316 1.364 . S
C321 C320 1.379 . S
C322 C291 1.383 . S
C322 C309 1.479 . S
C322 C323 1.398 . S
C323 C288 1.382 . S
C323 H300 0.951 . S
C323 C322 1.398 . S
C324 C325 1.384 . S
C324 H337 0.947 . S
C324 C359 1.382 . S
C325 C324 1.384 . S
C325 C326 1.378 . S
C326 C325 1.378 . S
C326 C327 1.378 . S
C326 H338 0.952 . S
C327 C326 1.378 . S
C327 H339 0.950 . S
C327 C358 1.383 . S
H328 C347 0.947 . S
H329 C348 0.934 1_565 S
H330 C350 0.953 . S
H331 C351 0.945 . S
H332 C353 0.952 . S
H333 C354 0.910 1_545 S
H334 C356 0.950 . S
H335 C357 0.948 . S
H336 C359 0.951 . S
H337 C324 0.947 . S
H338 C326 0.952 . S
H339 C327 0.950 . S
N340 C343 1.382 . S
N340 C345 1.363 . S
N341 C343 1.371 . S
N341 C344 1.372 . S
N342 C344 1.361 . S
N342 C345 1.377 . S
C343 N340 1.382 . S
C343 N341 1.371 . S
C343 C346 1.480 . S
C344 N341 1.372 . S
C344 N342 1.361 . S
C344 C352 1.457 . S
C345 N340 1.363 . S
C345 N342 1.377 . S
C345 C358 1.479 . S
C346 C343 1.480 . S
C346 C347 1.383 . S
C346 C351 1.385 1_565 S
C347 H328 0.947 . S
C347 C346 1.383 . S
C347 C348 1.388 1_565 S
C348 H329 0.934 1_545 S
C348 C347 1.388 1_545 S
C348 C349 1.384 . S
C349 C348 1.384 . S
C349 C350 1.377 . S
C350 H330 0.953 . S
C350 C349 1.377 . S
C350 C351 1.369 . S
C351 H331 0.945 . S
C351 C346 1.385 1_545 S
C351 C350 1.369 . S
C352 C344 1.457 . S
C352 C353 1.372 . S
C352 C357 1.364 . S
C353 H332 0.952 . S
C353 C352 1.372 . S
C353 C354 1.389 . S
C354 H333 0.910 1_565 S
C354 C353 1.389 . S
C354 C355 1.387 . S
C355 C354 1.387 . S
C355 C356 1.372 . S
C356 H334 0.950 . S
C356 C355 1.372 . S
C356 C357 1.379 . S
C357 H335 0.948 . S
C357 C352 1.364 . S
C357 C356 1.379 . S
C358 C327 1.383 . S
C358 C345 1.479 . S
C358 C359 1.398 . S
C359 C324 1.382 . S
C359 H336 0.951 . S
C359 C358 1.398 . S
C360 C361 1.384 . S
C360 H373 0.947 . S
C360 C395 1.382 . S
C361 C360 1.384 . S
C361 C362 1.378 . S
C362 C361 1.378 . S
C362 C363 1.378 . S
C362 H374 0.952 . S
C363 C362 1.378 . S
C363 H375 0.950 . S
C363 C394 1.383 . S
H364 C383 0.947 . S
H365 C384 0.946 . S
H366 C386 0.953 . S
H367 C387 0.945 . S
H368 C389 0.952 . S
H369 C390 0.949 . S
H370 C392 0.950 . S
H371 C393 0.948 . S
H372 C395 0.951 . S
H373 C360 0.947 . S
H374 C362 0.952 . S
H375 C363 0.950 . S
N376 C379 1.382 . S
N376 C381 1.363 . S
N377 C379 1.371 . S
N377 C380 1.372 . S
N378 C380 1.361 . S
N378 C381 1.377 . S
C379 N376 1.382 . S
C379 N377 1.371 . S
C379 C382 1.480 . S
C380 N377 1.372 . S
C380 N378 1.361 . S
C380 C388 1.457 . S
C381 N376 1.363 . S
C381 N378 1.377 . S
C381 C394 1.479 . S
C382 C379 1.480 . S
C382 C383 1.383 . S
C382 C387 1.385 . S
C383 H364 0.947 . S
C383 C382 1.383 . S
C383 C384 1.388 . S
C384 H365 0.946 . S
C384 C383 1.388 . S
C384 C385 1.384 . S
C385 C384 1.384 . S
C385 C386 1.377 . S
C386 H366 0.953 . S
C386 C385 1.377 . S
C386 C387 1.369 . S
C387 H367 0.945 . S
C387 C382 1.385 . S
C387 C386 1.369 . S
C388 C380 1.457 . S
C388 C389 1.372 . S
C388 C393 1.364 . S
C389 H368 0.952 . S
C389 C388 1.372 . S
C389 C390 1.389 . S
C390 H369 0.949 . S
C390 C389 1.389 . S
C390 C391 1.387 . S
C391 C390 1.387 . S
C391 C392 1.372 . S
C392 H370 0.950 . S
C392 C391 1.372 . S
C392 C393 1.379 . S
C393 H371 0.948 . S
C393 C388 1.364 . S
C393 C392 1.379 . S
C394 C363 1.383 . S
C394 C381 1.479 . S
C394 C395 1.398 . S
C395 C360 1.382 . S
C395 H372 0.951 . S
C395 C394 1.398 . S
C396 C397 1.384 . S
C396 H409 0.947 . S
C396 C431 1.382 . S
C397 C396 1.384 . S
C397 C398 1.378 . S
C398 C397 1.378 . S
C398 C399 1.378 . S
C398 H410 0.952 . S
C399 C398 1.378 . S
C399 H411 0.950 . S
C399 C430 1.383 . S
H400 C419 0.947 . S
H401 C420 0.946 . S
H402 C422 0.953 . S
H403 C423 0.945 . S
H404 C425 0.952 . S
H405 C426 0.949 . S
H406 C428 0.950 . S
H407 C429 0.948 . S
H408 C431 0.951 . S
H409 C396 0.947 . S
H410 C398 0.952 . S
H411 C399 0.950 . S
N412 C415 1.382 . S
N412 C417 1.363 . S
N413 C415 1.371 . S
N413 C416 1.372 . S
N414 C416 1.361 . S
N414 C417 1.377 . S
C415 N412 1.382 . S
C415 N413 1.371 . S
C415 C418 1.480 . S
C416 N413 1.372 . S
C416 N414 1.361 . S
C416 C424 1.457 . S
C417 N412 1.363 . S
C417 N414 1.377 . S
C417 C430 1.479 . S
C418 C415 1.480 . S
C418 C419 1.383 . S
C418 C423 1.385 . S
C419 H400 0.947 . S
C419 C418 1.383 . S
C419 C420 1.388 . S
C420 H401 0.946 . S
C420 C419 1.388 . S
C420 C421 1.384 . S
C421 C420 1.384 . S
C421 C422 1.377 . S
C422 H402 0.953 . S
C422 C421 1.377 . S
C422 C423 1.369 . S
C423 H403 0.945 . S
C423 C418 1.385 . S
C423 C422 1.369 . S
C424 C416 1.457 . S
C424 C425 1.372 . S
C424 C429 1.364 . S
C425 H404 0.952 . S
C425 C424 1.372 . S
C425 C426 1.389 . S
C426 H405 0.949 . S
C426 C425 1.389 . S
C426 C427 1.387 . S
C427 C426 1.387 . S
C427 C428 1.372 . S
C428 H406 0.950 . S
C428 C427 1.372 . S
C428 C429 1.379 . S
C429 H407 0.948 . S
C429 C424 1.364 . S
C429 C428 1.379 . S
C430 C399 1.383 . S
C430 C417 1.479 . S
C430 C431 1.398 . S
C431 C396 1.382 . S
C431 H408 0.951 . S
C431 C430 1.398 . S
C432 C433 1.384 . S
C432 H445 0.947 . S
C432 C467 1.382 . S
C433 C432 1.384 . S
C433 C434 1.378 . S
C434 C433 1.378 . S
C434 C435 1.378 . S
C434 H446 0.952 . S
C435 C434 1.378 . S
C435 H447 0.950 . S
C435 C466 1.383 . S
H436 C455 0.947 . S
H437 C456 0.946 . S
H438 C458 0.953 . S
H439 C459 0.945 . S
H440 C461 0.952 . S
H441 C462 0.949 . S
H442 C464 0.950 . S
H443 C465 0.948 . S
H444 C467 0.951 . S
H445 C432 0.947 . S
H446 C434 0.952 . S
H447 C435 0.950 . S
N448 C451 1.382 . S
N448 C453 1.363 . S
N449 C451 1.371 . S
N449 C452 1.372 . S
N450 C452 1.361 . S
N450 C453 1.377 . S
C451 N448 1.382 . S
C451 N449 1.371 . S
C451 C454 1.480 . S
C452 N449 1.372 . S
C452 N450 1.361 . S
C452 C460 1.457 . S
C453 N448 1.363 . S
C453 N450 1.377 . S
C453 C466 1.479 . S
C454 C451 1.480 . S
C454 C455 1.383 . S
C454 C459 1.385 . S
C455 H436 0.947 . S
C455 C454 1.383 . S
C455 C456 1.388 . S
C456 H437 0.946 . S
C456 C455 1.388 . S
C456 C457 1.384 . S
C457 C456 1.384 . S
C457 C458 1.377 . S
C458 H438 0.953 . S
C458 C457 1.377 . S
C458 C459 1.369 . S
C459 H439 0.945 . S
C459 C454 1.385 . S
C459 C458 1.369 . S
C460 C452 1.457 . S
C460 C461 1.372 . S
C460 C465 1.364 . S
C461 H440 0.952 . S
C461 C460 1.372 . S
C461 C462 1.389 . S
C462 H441 0.949 . S
C462 C461 1.389 . S
C462 C463 1.387 . S
C463 C462 1.387 . S
C463 C464 1.372 . S
C464 H442 0.950 . S
C464 C463 1.372 . S
C464 C465 1.379 . S
C465 H443 0.948 . S
C465 C460 1.364 . S
C465 C464 1.379 . S
C466 C435 1.383 . S
C466 C453 1.479 . S
C466 C467 1.398 . S
C467 C432 1.382 . S
C467 H444 0.951 . S
C467 C466 1.398 . S
C468 C469 1.384 . S
C468 H481 0.947 . S
C468 C503 1.368 1_554 S
C469 C468 1.384 . S
C469 C470 1.378 1_554 S
C470 C469 1.378 1_556 S
C470 C471 1.378 . S
C470 H482 0.952 . S
C471 C470 1.378 . S
C471 H483 0.950 . S
C471 C502 1.383 . S
H472 C491 0.947 . S
H473 C492 0.946 . S
H474 C494 0.953 . S
H475 C495 0.945 . S
H476 C497 0.952 . S
H477 C498 0.949 . S
H478 C500 0.950 . S
H479 C501 0.948 . S
H480 C503 0.947 1_554 S
H481 C468 0.947 . S
H482 C470 0.952 . S
H483 C471 0.950 . S
N484 C487 1.382 . S
N484 C489 1.363 . S
N485 C487 1.371 . S
N485 C488 1.372 . S
N486 C488 1.361 . S
N486 C489 1.377 . S
C487 N484 1.382 . S
C487 N485 1.371 . S
C487 C490 1.480 . S
C488 N485 1.372 . S
C488 N486 1.361 . S
C488 C496 1.457 . S
C489 N484 1.363 . S
C489 N486 1.377 . S
C489 C502 1.479 . S
C490 C487 1.480 . S
C490 C491 1.383 . S
C490 C495 1.385 . S
C491 H472 0.947 . S
C491 C490 1.383 . S
C491 C492 1.388 . S
C492 H473 0.946 . S
C492 C491 1.388 . S
C492 C493 1.384 . S
C493 C492 1.384 . S
C493 C494 1.377 . S
C494 H474 0.953 . S
C494 C493 1.377 . S
C494 C495 1.369 . S
C495 H475 0.945 . S
C495 C490 1.385 . S
C495 C494 1.369 . S
C496 C488 1.457 . S
C496 C497 1.372 . S
C496 C501 1.364 . S
C497 H476 0.952 . S
C497 C496 1.372 . S
C497 C498 1.389 . S
C498 H477 0.949 . S
C498 C497 1.389 . S
C498 C499 1.387 . S
C499 C498 1.387 . S
C499 C500 1.372 . S
C500 H478 0.950 . S
C500 C499 1.372 . S
C500 C501 1.379 . S
C501 H479 0.948 . S
C501 C496 1.364 . S
C501 C500 1.379 . S
C502 C471 1.383 . S
C502 C489 1.479 . S
C502 C503 1.416 . S
C503 C468 1.368 1_556 S
C503 H480 0.947 1_556 S
C503 C502 1.416 . S
C504 C505 1.384 . S
C504 H517 0.947 . S
C504 C539 1.382 . S
C505 C504 1.384 . S
C505 C506 1.378 . S
C506 C505 1.378 . S
C506 C507 1.378 . S
C506 H518 0.952 . S
C507 C506 1.378 . S
C507 H519 0.950 . S
C507 C538 1.383 . S
H508 C527 0.947 . S
H509 C528 0.946 . S
H510 C530 0.953 . S
H511 C531 0.945 . S
H512 C533 0.952 . S
H513 C534 0.949 . S
H514 C536 0.950 . S
H515 C537 0.948 . S
H516 C539 0.951 . S
H517 C504 0.947 . S
H518 C506 0.952 . S
H519 C507 0.950 . S
N520 C523 1.382 . S
N520 C525 1.363 . S
N521 C523 1.371 . S
N521 C524 1.372 . S
N522 C524 1.361 . S
N522 C525 1.377 . S
C523 N520 1.382 . S
C523 N521 1.371 . S
C523 C526 1.480 . S
C524 N521 1.372 . S
C524 N522 1.361 . S
C524 C532 1.457 . S
C525 N520 1.363 . S
C525 N522 1.377 . S
C525 C538 1.479 . S
C526 C523 1.480 . S
C526 C527 1.383 . S
C526 C531 1.385 . S
C527 H508 0.947 . S
C527 C526 1.383 . S
C527 C528 1.388 . S
C528 H509 0.946 . S
C528 C527 1.388 . S
C528 C529 1.384 . S
C529 C528 1.384 . S
C529 C530 1.377 . S
C530 H510 0.953 . S
C530 C529 1.377 . S
C530 C531 1.369 . S
C531 H511 0.945 . S
C531 C526 1.385 . S
C531 C530 1.369 . S
C532 C524 1.457 . S
C532 C533 1.372 . S
C532 C537 1.364 . S
C533 H512 0.952 . S
C533 C532 1.372 . S
C533 C534 1.389 . S
C534 H513 0.949 . S
C534 C533 1.389 . S
C534 C535 1.387 . S
C535 C534 1.387 . S
C535 C536 1.372 . S
C536 H514 0.950 . S
C536 C535 1.372 . S
C536 C537 1.379 . S
C537 H515 0.948 . S
C537 C532 1.364 . S
C537 C536 1.379 . S
C538 C507 1.383 . S
C538 C525 1.479 . S
C538 C539 1.398 . S
C539 C504 1.382 . S
C539 H516 0.951 . S
C539 C538 1.398 . S
C540 C541 1.384 . S
C540 H553 0.947 1_554 S
C540 C575 1.382 1_554 S
C541 C540 1.384 . S
C541 C542 1.378 . S
C542 C541 1.378 . S
C542 C543 1.378 . S
C542 H554 0.952 . S
C543 C542 1.378 . S
C543 H555 0.950 . S
C543 C574 1.383 1_554 S
H544 C563 0.985 . S
H545 C564 0.920 1_554 S
H546 C566 0.953 . S
H547 C567 0.945 . S
H548 C569 0.952 . S
H549 C570 0.949 . S
H550 C572 0.950 . S
H551 C573 0.948 . S
H552 C575 0.951 . S
H553 C540 0.947 1_556 S
H554 C542 0.952 . S
H555 C543 0.950 . S
N556 C559 1.382 . S
N556 C561 1.363 . S
N557 C559 1.371 . S
N557 C560 1.372 . S
N558 C560 1.361 . S
N558 C561 1.377 . S
C559 N556 1.382 . S
C559 N557 1.371 . S
C559 C562 1.480 . S
C560 N557 1.372 . S
C560 N558 1.361 . S
C560 C568 1.457 . S
C561 N556 1.363 . S
C561 N558 1.377 . S
C561 C574 1.479 . S
C562 C559 1.480 . S
C562 C563 1.383 . S
C562 C567 1.385 1_545 S
C563 H544 0.985 . S
C563 C562 1.383 . S
C563 C564 1.388 . S
C564 H545 0.920 1_556 S
C564 C563 1.388 . S
C564 C565 1.384 1_545 S
C565 C564 1.384 1_565 S
C565 C566 1.377 . S
C566 H546 0.953 . S
C566 C565 1.377 . S
C566 C567 1.369 . S
C567 H547 0.945 . S
C567 C562 1.385 1_565 S
C567 C566 1.369 . S
C568 C560 1.457 . S
C568 C569 1.372 . S
C568 C573 1.364 . S
C569 H548 0.952 . S
C569 C568 1.372 . S
C569 C570 1.389 . S
C570 H549 0.949 . S
C570 C569 1.389 . S
C570 C571 1.387 . S
C571 C570 1.387 . S
C571 C572 1.372 . S
C572 H550 0.950 . S
C572 C571 1.372 . S
C572 C573 1.379 . S
C573 H551 0.948 . S
C573 C568 1.364 . S
C573 C572 1.379 . S
C574 C543 1.383 1_556 S
C574 C561 1.479 . S
C574 C575 1.398 . S
C575 C540 1.382 1_556 S
C575 H552 0.951 . S
C575 C574 1.398 . S
C576 O577 1.160 1_554 S
C576 O583 1.185 . S
O577 C576 1.160 1_556 S
O578 Zn579 1.899 1_556 S
O578 C586 1.284 . S
Zn579 O578 1.899 1_554 S
Zn579 O580 2.032 . S
Zn579 O583 2.086 . S
Zn579 O588 1.977 . S
O580 Zn579 2.032 . S
O580 C584 1.278 . S
C581 O582 1.203 . S
C581 O588 1.267 . S
O582 C581 1.203 . S
O583 C576 1.185 . S
O583 Zn579 2.086 . S
C584 O580 1.278 . S
C584 O585 1.211 . S
O585 C584 1.211 . S
C586 O578 1.284 . S
C586 O587 1.273 . S
O587 C586 1.273 . S
O588 Zn579 1.977 . S
O588 C581 1.267 . S
C589 O590 1.160 . S
C589 O596 1.185 . S
O590 C589 1.160 . S
O591 Zn592 1.899 . S
O591 C599 1.284 . S
Zn592 O591 1.899 . S
Zn592 O593 2.032 . S
Zn592 O596 2.086 . S
Zn592 O601 1.977 . S
O593 Zn592 2.032 . S
O593 C597 1.278 . S
C594 O595 1.203 . S
C594 O601 1.267 . S
O595 C594 1.203 . S
O596 C589 1.185 . S
O596 Zn592 2.086 . S
C597 O593 1.278 . S
C597 O598 1.211 . S
O598 C597 1.211 . S
C599 O591 1.284 . S
C599 O600 1.273 . S
O600 C599 1.273 . S
O601 Zn592 1.977 . S
O601 C594 1.267 . S
C602 O603 1.160 1_554 S
C602 O609 1.185 . S
O603 C602 1.160 1_556 S
O604 Zn605 1.899 1_556 S
O604 C612 1.284 . S
Zn605 O604 1.899 1_554 S
Zn605 O606 2.032 1_554 S
Zn605 O609 2.086 . S
Zn605 O614 1.977 . S
O606 Zn605 2.032 1_556 S
O606 C610 1.278 . S
C607 O608 1.203 . S
C607 O614 1.267 . S
O608 C607 1.203 . S
O609 C602 1.185 . S
O609 Zn605 2.086 . S
C610 O606 1.278 . S
C610 O611 1.211 1_556 S
O611 C610 1.211 1_554 S
C612 O604 1.284 . S
C612 O613 1.273 . S
O613 C612 1.273 . S
O614 Zn605 1.977 . S
O614 C607 1.267 . S
C615 O616 1.160 . S
C615 O622 1.185 . S
O616 C615 1.160 . S
O617 Zn618 1.899 . S
O617 C625 1.284 . S
Zn618 O617 1.899 . S
Zn618 O619 2.033 1_545 S
Zn618 O622 2.086 . S
Zn618 O627 1.977 . S
O619 Zn618 2.033 1_565 S
O619 C623 1.276 . S
C620 O621 1.203 . S
C620 O627 1.267 . S
O621 C620 1.203 . S
O622 C615 1.185 . S
O622 Zn618 2.086 . S
C623 O619 1.276 . S
C623 O624 1.211 . S
O624 C623 1.211 . S
C625 O617 1.284 . S
C625 O626 1.273 1_545 S
O626 C625 1.273 1_565 S
O627 Zn618 1.977 . S
O627 C620 1.267 . S
C628 O629 1.160 . S
C628 O635 1.185 . S
O629 C628 1.160 . S
O630 Zn631 1.899 . S
O630 C638 1.284 . S
Zn631 O630 1.899 . S
Zn631 O632 2.032 . S
Zn631 O635 2.086 . S
Zn631 O640 1.977 . S
O632 Zn631 2.032 . S
O632 C636 1.278 . S
C633 O634 1.203 . S
C633 O640 1.267 . S
O634 C633 1.203 . S
O635 C628 1.185 . S
O635 Zn631 2.086 . S
C636 O632 1.278 . S
C636 O637 1.211 . S
O637 C636 1.211 . S
C638 O630 1.284 . S
C638 O639 1.273 . S
O639 C638 1.273 . S
O640 Zn631 1.977 . S
O640 C633 1.267 . S
C641 O642 1.160 . S
C641 O648 1.185 . S
O642 C641 1.160 . S
O643 Zn644 1.899 . S
O643 C651 1.284 . S
Zn644 O643 1.899 . S
Zn644 O645 2.032 . S
Zn644 O648 2.086 . S
Zn644 O653 1.977 . S
O645 Zn644 2.032 . S
O645 C649 1.278 . S
C646 O647 1.203 . S
C646 O653 1.267 . S
O647 C646 1.203 . S
O648 C641 1.185 . S
O648 Zn644 2.086 . S
C649 O645 1.278 . S
C649 O650 1.211 . S
O650 C649 1.211 . S
C651 O643 1.284 . S
C651 O652 1.273 . S
O652 C651 1.273 . S
O653 Zn644 1.977 . S
O653 C646 1.267 . S
C654 O655 1.160 . S
C654 O661 1.185 . S
O655 C654 1.160 . S
O656 Zn657 1.899 . S
O656 C664 1.284 . S
Zn657 O656 1.899 . S
Zn657 O658 2.032 . S
Zn657 O661 2.086 . S
Zn657 O666 1.977 . S
O658 Zn657 2.032 . S
O658 C662 1.278 . S
C659 O660 1.203 . S
C659 O666 1.267 . S
O660 C659 1.203 . S
O661 C654 1.185 . S
O661 Zn657 2.086 . S
C662 O658 1.278 . S
C662 O663 1.211 . S
O663 C662 1.211 . S
C664 O656 1.284 . S
C664 O665 1.273 . S
O665 C664 1.273 . S
O666 Zn657 1.977 . S
O666 C659 1.267 . S
C667 O668 1.160 . S
C667 O674 1.185 . S
O668 C667 1.160 . S
O669 Zn670 1.899 . S
O669 C677 1.284 1_565 S
Zn670 O669 1.899 . S
Zn670 O671 2.032 1_565 S
Zn670 O674 2.086 . S
Zn670 O679 1.977 . S
O671 Zn670 2.032 1_545 S
O671 C675 1.278 . S
C672 O673 1.203 1_565 S
C672 O679 1.267 . S
O673 C672 1.203 1_545 S
O674 C667 1.185 . S
O674 Zn670 2.086 . S
C675 O671 1.278 . S
C675 O676 1.211 . S
O676 C675 1.211 . S
C677 O669 1.284 1_545 S
C677 O678 1.273 . S
O678 C677 1.273 . S
O679 Zn670 1.977 . S
O679 C672 1.267 . S
C680 O681 1.160 1_455 S
C680 O687 1.185 . S
O681 C680 1.160 1_655 S
O682 Zn683 1.899 1_655 S
O682 C690 1.284 . S
Zn683 O682 1.899 1_455 S
Zn683 O684 2.032 1_455 S
Zn683 O687 2.086 . S
Zn683 O692 1.977 . S
O684 Zn683 2.032 1_655 S
O684 C688 1.278 1_655 S
C685 O686 1.203 . S
C685 O692 1.267 . S
O686 C685 1.203 . S
O687 C680 1.185 . S
O687 Zn683 2.086 . S
C688 O684 1.278 1_455 S
C688 O689 1.210 . S
O689 C688 1.210 . S
C690 O682 1.284 . S
C690 O691 1.273 . S
O691 C690 1.273 . S
O692 Zn683 1.977 . S
O692 C685 1.267 . S
C693 O694 1.160 . S
C693 O700 1.185 . S
O694 C693 1.160 . S
O695 Zn696 1.899 . S
O695 C703 1.284 . S
Zn696 O695 1.899 . S
Zn696 O697 2.032 . S
Zn696 O700 2.086 . S
Zn696 O705 1.977 . S
O697 Zn696 2.032 . S
O697 C701 1.278 . S
C698 O699 1.203 . S
C698 O705 1.267 . S
O699 C698 1.203 . S
O700 C693 1.185 . S
O700 Zn696 2.086 . S
C701 O697 1.278 . S
C701 O702 1.211 . S
O702 C701 1.211 . S
C703 O695 1.284 . S
C703 O704 1.273 . S
O704 C703 1.273 . S
O705 Zn696 1.977 . S
O705 C698 1.267 . S
C706 O707 1.160 1_455 S
C706 O713 1.185 . S
O707 C706 1.160 1_655 S
O708 Zn709 1.899 1_655 S
O708 C716 1.284 . S
Zn709 O708 1.899 1_455 S
Zn709 O710 2.032 1_455 S
Zn709 O713 2.086 . S
Zn709 O718 1.977 . S
O710 Zn709 2.032 1_655 S
O710 C714 1.278 1_655 S
C711 O712 1.203 . S
C711 O718 1.267 . S
O712 C711 1.203 . S
O713 C706 1.185 . S
O713 Zn709 2.086 . S
C714 O710 1.278 1_455 S
C714 O715 1.211 . S
O715 C714 1.211 . S
C716 O708 1.284 . S
C716 O717 1.273 . S
O717 C716 1.273 . S
O718 Zn709 1.977 . S
O718 C711 1.267 . S
C719 O720 1.160 . S
C719 O726 1.185 . S
O720 C719 1.160 . S
O721 Zn722 1.899 . S
O721 C729 1.284 . S
Zn722 O721 1.899 . S
Zn722 O723 2.032 . S
Zn722 O726 2.086 . S
Zn722 O731 1.977 . S
O723 Zn722 2.032 . S
O723 C727 1.278 . S
C724 O725 1.203 . S
C724 O731 1.267 . S
O725 C724 1.203 . S
O726 C719 1.185 . S
O726 Zn722 2.086 . S
C727 O723 1.278 . S
C727 O728 1.211 . S
O728 C727 1.211 . S
C729 O721 1.284 . S
C729 O730 1.273 . S
O730 C729 1.273 . S
O731 Zn722 1.977 . S
O731 C724 1.267 . S
H732 C740 0.950 . S
H733 C745 0.950 . S
H734 C742 0.950 . S
H735 C744 0.950 . S
H736 C746 0.950 . S
H737 C748 0.950 . S
H738 C750 0.950 . S
H739 C751 0.950 . S
C740 H732 0.950 . S
C740 C741 1.386 . S
C740 C742 1.391 . S
C741 C740 1.386 . S
C741 C745 1.393 . S
C742 H734 0.950 . S
C742 C740 1.391 . S
C742 C743 1.400 . S
C743 C742 1.400 . S
C743 C744 1.398 . S
C743 C749 1.491 . S
C744 H735 0.950 . S
C744 C743 1.398 . S
C744 C745 1.391 . S
C745 H733 0.950 . S
C745 C741 1.393 . S
C745 C744 1.391 . S
C746 H736 0.950 . S
C746 C747 1.386 . S
C746 C748 1.391 . S
C747 C746 1.386 . S
C747 C751 1.393 . S
C748 H737 0.950 . S
C748 C746 1.391 . S
C748 C749 1.400 . S
C749 C743 1.491 . S
C749 C748 1.400 . S
C749 C750 1.398 . S
C750 H738 0.950 . S
C750 C749 1.398 . S
C750 C751 1.391 . S
C751 H739 0.950 . S
C751 C747 1.393 . S
C751 C750 1.391 . S
H752 C760 0.950 . S
H753 C765 0.950 . S
H754 C762 0.950 . S
H755 C764 0.950 . S
H756 C766 0.950 . S
H757 C768 0.950 . S
H758 C770 0.950 . S
H759 C771 0.950 . S
C760 H752 0.950 . S
C760 C761 1.386 . S
C760 C762 1.391 . S
C761 C760 1.386 . S
C761 C765 1.393 . S
C762 H754 0.950 . S
C762 C760 1.391 . S
C762 C763 1.400 . S
C763 C762 1.400 . S
C763 C764 1.398 . S
C763 C769 1.491 . S
C764 H755 0.950 . S
C764 C763 1.398 . S
C764 C765 1.391 . S
C765 H753 0.950 . S
C765 C761 1.393 . S
C765 C764 1.391 . S
C766 H756 0.950 . S
C766 C767 1.386 . S
C766 C768 1.391 . S
C767 C766 1.386 . S
C767 C771 1.393 . S
C768 H757 0.950 . S
C768 C766 1.391 . S
C768 C769 1.400 . S
C769 C763 1.491 . S
C769 C768 1.400 . S
C769 C770 1.398 . S
C770 H758 0.950 . S
C770 C769 1.398 . S
C770 C771 1.391 . S
C771 H759 0.950 . S
C771 C767 1.393 . S
C771 C770 1.391 . S
H772 C780 0.950 . S
H773 C785 0.950 . S
H774 C782 0.950 . S
H775 C784 0.950 . S
H776 C786 0.950 . S
H777 C788 0.950 . S
H778 C790 0.950 . S
H779 C791 0.950 . S
C780 H772 0.950 . S
C780 C781 1.386 . S
C780 C782 1.391 . S
C781 C780 1.386 . S
C781 C785 1.393 . S
C782 H774 0.950 . S
C782 C780 1.391 . S
C782 C783 1.400 . S
C783 C782 1.400 . S
C783 C784 1.398 . S
C783 C789 1.491 . S
C784 H775 0.950 . S
C784 C783 1.398 . S
C784 C785 1.391 . S
C785 H773 0.950 . S
C785 C781 1.393 . S
C785 C784 1.391 . S
C786 H776 0.950 . S
C786 C787 1.386 . S
C786 C788 1.391 . S
C787 C786 1.386 . S
C787 C791 1.393 . S
C788 H777 0.950 . S
C788 C786 1.391 . S
C788 C789 1.400 . S
C789 C783 1.491 . S
C789 C788 1.400 . S
C789 C790 1.398 . S
C790 H778 0.950 . S
C790 C789 1.398 . S
C790 C791 1.391 . S
C791 H779 0.950 . S
C791 C787 1.393 . S
C791 C790 1.391 . S
H792 C800 0.950 . S
H793 C805 0.950 . S
H794 C802 0.950 . S
H795 C804 0.950 . S
H796 C806 0.950 . S
H797 C808 0.950 . S
H798 C810 0.950 . S
H799 C811 0.950 . S
C800 H792 0.950 . S
C800 C801 1.386 . S
C800 C802 1.391 . S
C801 C800 1.386 . S
C801 C805 1.393 1_565 S
C802 H794 0.950 . S
C802 C800 1.391 . S
C802 C803 1.400 . S
C803 C802 1.400 . S
C803 C804 1.398 1_565 S
C803 C809 1.502 . S
C804 H795 0.950 . S
C804 C803 1.398 1_545 S
C804 C805 1.391 . S
C805 H793 0.950 . S
C805 C801 1.393 1_545 S
C805 C804 1.391 . S
C806 H796 0.950 . S
C806 C807 1.386 . S
C806 C808 1.391 . S
C807 C806 1.386 . S
C807 C811 1.393 1_545 S
C808 H797 0.950 . S
C808 C806 1.391 . S
C808 C809 1.357 1_545 S
C809 C803 1.502 . S
C809 C808 1.357 1_565 S
C809 C810 1.432 . S
C810 H798 0.950 . S
C810 C809 1.432 . S
C810 C811 1.391 . S
C811 H799 0.950 . S
C811 C807 1.393 1_565 S
C811 C810 1.391 . S
H812 C820 0.950 . S
H813 C825 0.950 . S
H814 C822 0.950 . S
H815 C824 0.950 . S
H816 C826 0.950 . S
H817 C828 0.950 . S
H818 C830 0.950 . S
H819 C831 0.950 . S
C820 H812 0.950 . S
C820 C821 1.386 . S
C820 C822 1.391 . S
C821 C820 1.386 . S
C821 C825 1.393 . S
C822 H814 0.950 . S
C822 C820 1.391 . S
C822 C823 1.400 . S
C823 C822 1.400 . S
C823 C824 1.398 . S
C823 C829 1.491 . S
C824 H815 0.950 . S
C824 C823 1.398 . S
C824 C825 1.391 . S
C825 H813 0.950 . S
C825 C821 1.393 . S
C825 C824 1.391 . S
C826 H816 0.950 . S
C826 C827 1.386 . S
C826 C828 1.391 . S
C827 C826 1.386 . S
C827 C831 1.393 . S
C828 H817 0.950 . S
C828 C826 1.391 . S
C828 C829 1.400 . S
C829 C823 1.491 . S
C829 C828 1.400 . S
C829 C830 1.398 . S
C830 H818 0.950 . S
C830 C829 1.398 . S
C830 C831 1.391 . S
C831 H819 0.950 . S
C831 C827 1.393 . S
C831 C830 1.391 . S
H832 C840 0.950 . S
H833 C845 0.950 . S
H834 C842 0.950 . S
H835 C844 0.950 . S
H836 C846 0.950 . S
H837 C848 0.950 . S
H838 C850 0.950 . S
H839 C851 0.950 . S
C840 H832 0.950 . S
C840 C841 1.386 . S
C840 C842 1.391 . S
C841 C840 1.386 . S
C841 C845 1.393 . S
C842 H834 0.950 . S
C842 C840 1.391 . S
C842 C843 1.400 . S
C843 C842 1.400 . S
C843 C844 1.398 . S
C843 C849 1.491 . S
C844 H835 0.950 . S
C844 C843 1.398 . S
C844 C845 1.391 . S
C845 H833 0.950 . S
C845 C841 1.393 . S
C845 C844 1.391 . S
C846 H836 0.950 . S
C846 C847 1.386 . S
C846 C848 1.391 . S
C847 C846 1.386 . S
C847 C851 1.393 . S
C848 H837 0.950 . S
C848 C846 1.391 . S
C848 C849 1.400 . S
C849 C843 1.491 . S
C849 C848 1.400 . S
C849 C850 1.398 . S
C850 H838 0.950 . S
C850 C849 1.398 . S
C850 C851 1.391 . S
C851 H839 0.950 . S
C851 C847 1.393 . S
C851 C850 1.391 . S
H852 C860 0.950 . S
H853 C865 0.950 . S
H854 C862 0.950 . S
H855 C864 0.950 . S
H856 C866 0.950 . S
H857 C868 0.950 . S
H858 C870 0.950 . S
H859 C871 0.950 . S
C860 H852 0.950 . S
C860 C861 1.386 . S
C860 C862 1.391 . S
C861 C860 1.386 . S
C861 C865 1.393 . S
C862 H854 0.950 . S
C862 C860 1.391 . S
C862 C863 1.400 . S
C863 C862 1.400 . S
C863 C864 1.398 . S
C863 C869 1.491 . S
C864 H855 0.950 . S
C864 C863 1.398 . S
C864 C865 1.391 . S
C865 H853 0.950 . S
C865 C861 1.393 . S
C865 C864 1.391 . S
C866 H856 0.950 . S
C866 C867 1.386 . S
C866 C868 1.391 . S
C867 C866 1.386 . S
C867 C871 1.393 . S
C868 H857 0.950 . S
C868 C866 1.391 . S
C868 C869 1.400 . S
C869 C863 1.491 . S
C869 C868 1.400 . S
C869 C870 1.398 . S
C870 H858 0.950 . S
C870 C869 1.398 . S
C870 C871 1.391 . S
C871 H859 0.950 . S
C871 C867 1.393 . S
C871 C870 1.391 . S
H872 C880 0.950 . S
H873 C885 0.950 . S
H874 C882 0.950 . S
H875 C884 0.950 . S
H876 C886 0.950 . S
H877 C888 0.950 . S
H878 C890 0.950 . S
H879 C891 0.950 . S
C880 H872 0.950 . S
C880 C881 1.386 . S
C880 C882 1.391 . S
C881 C880 1.386 . S
C881 C885 1.393 . S
C882 H874 0.950 . S
C882 C880 1.391 . S
C882 C883 1.400 . S
C883 C882 1.400 . S
C883 C884 1.398 . S
C883 C889 1.491 . S
C884 H875 0.950 . S
C884 C883 1.398 . S
C884 C885 1.391 . S
C885 H873 0.950 . S
C885 C881 1.393 . S
C885 C884 1.391 . S
C886 H876 0.950 . S
C886 C887 1.386 . S
C886 C888 1.391 . S
C887 C886 1.386 . S
C887 C891 1.393 . S
C888 H877 0.950 . S
C888 C886 1.391 . S
C888 C889 1.400 . S
C889 C883 1.491 . S
C889 C888 1.400 . S
C889 C890 1.398 . S
C890 H878 0.950 . S
C890 C889 1.398 . S
C890 C891 1.391 . S
C891 H879 0.950 . S
C891 C887 1.393 . S
C891 C890 1.391 . S
H892 C900 0.950 . S
H893 C905 0.950 . S
H894 C902 0.950 . S
H895 C904 0.950 . S
H896 C906 0.950 . S
H897 C908 0.950 . S
H898 C910 0.950 . S
H899 C911 0.950 . S
C900 H892 0.950 . S
C900 C901 1.386 . S
C900 C902 1.391 . S
C901 C900 1.386 . S
C901 C905 1.393 . S
C902 H894 0.950 . S
C902 C900 1.391 . S
C902 C903 1.400 . S
C903 C902 1.400 . S
C903 C904 1.398 . S
C903 C909 1.491 . S
C904 H895 0.950 . S
C904 C903 1.398 . S
C904 C905 1.391 . S
C905 H893 0.950 . S
C905 C901 1.393 . S
C905 C904 1.391 . S
C906 H896 0.950 . S
C906 C907 1.386 . S
C906 C908 1.391 . S
C907 C906 1.386 . S
C907 C911 1.393 . S
C908 H897 0.950 . S
C908 C906 1.391 . S
C908 C909 1.400 . S
C909 C903 1.491 . S
C909 C908 1.400 . S
C909 C910 1.398 . S
C910 H898 0.950 . S
C910 C909 1.398 . S
C910 C911 1.391 . S
C911 H899 0.950 . S
C911 C907 1.393 . S
C911 C910 1.391 . S
H912 C920 0.950 . S
H913 C925 0.950 . S
H914 C922 0.950 . S
H915 C924 0.950 . S
H916 C926 0.950 . S
H917 C928 0.950 . S
H918 C930 0.950 . S
H919 C931 0.950 . S
C920 H912 0.950 . S
C920 C921 1.386 . S
C920 C922 1.391 . S
C921 C920 1.386 . S
C921 C925 1.393 . S
C922 H914 0.950 . S
C922 C920 1.391 . S
C922 C923 1.400 . S
C923 C922 1.400 . S
C923 C924 1.398 . S
C923 C929 1.491 . S
C924 H915 0.950 . S
C924 C923 1.398 . S
C924 C925 1.391 . S
C925 H913 0.950 . S
C925 C921 1.393 . S
C925 C924 1.391 . S
C926 H916 0.950 . S
C926 C927 1.386 . S
C926 C928 1.391 . S
C927 C926 1.386 . S
C927 C931 1.393 . S
C928 H917 0.950 . S
C928 C926 1.391 . S
C928 C929 1.400 . S
C929 C923 1.491 . S
C929 C928 1.400 . S
C929 C930 1.398 . S
C930 H918 0.950 . S
C930 C929 1.398 . S
C930 C931 1.391 . S
C931 H919 0.950 . S
C931 C927 1.393 . S
C931 C930 1.391 . S
H932 C940 0.950 . S
H933 C945 0.950 . S
H934 C942 0.950 . S
H935 C944 0.950 . S
H936 C946 0.950 . S
H937 C948 0.950 . S
H938 C950 0.950 . S
H939 C951 0.950 . S
C940 H932 0.950 . S
C940 C941 1.386 . S
C940 C942 1.391 . S
C941 C940 1.386 . S
C941 C945 1.393 . S
C942 H934 0.950 . S
C942 C940 1.391 . S
C942 C943 1.400 . S
C943 C942 1.400 . S
C943 C944 1.398 . S
C943 C949 1.491 . S
C944 H935 0.950 . S
C944 C943 1.398 . S
C944 C945 1.391 . S
C945 H933 0.950 . S
C945 C941 1.393 . S
C945 C944 1.391 . S
C946 H936 0.950 . S
C946 C947 1.386 . S
C946 C948 1.391 . S
C947 C946 1.386 . S
C947 C951 1.393 . S
C948 H937 0.950 . S
C948 C946 1.391 . S
C948 C949 1.400 . S
C949 C943 1.491 . S
C949 C948 1.400 . S
C949 C950 1.398 . S
C950 H938 0.950 . S
C950 C949 1.398 . S
C950 C951 1.391 . S
C951 H939 0.950 . S
C951 C947 1.393 . S
C951 C950 1.391 . S
H952 C960 0.950 . S
H953 C965 0.950 . S
H954 C962 0.950 . S
H955 C964 0.950 . S
H956 C966 0.950 . S
H957 C968 0.950 . S
H958 C970 0.950 . S
H959 C971 0.950 . S
C960 H952 0.950 . S
C960 C961 1.386 . S
C960 C962 1.391 . S
C961 C960 1.386 . S
C961 C965 1.393 . S
C962 H954 0.950 . S
C962 C960 1.391 . S
C962 C963 1.400 . S
C963 C962 1.400 . S
C963 C964 1.398 . S
C963 C969 1.491 . S
C964 H955 0.950 . S
C964 C963 1.398 . S
C964 C965 1.391 . S
C965 H953 0.950 . S
C965 C961 1.393 . S
C965 C964 1.391 . S
C966 H956 0.950 . S
C966 C967 1.386 . S
C966 C968 1.391 . S
C967 C966 1.386 . S
C967 C971 1.393 . S
C968 H957 0.950 . S
C968 C966 1.391 . S
C968 C969 1.400 . S
C969 C963 1.491 . S
C969 C968 1.400 . S
C969 C970 1.398 . S
C970 H958 0.950 . S
C970 C969 1.398 . S
C970 C971 1.391 . S
C971 H959 0.950 . S
C971 C967 1.393 . S
C971 C970 1.391 . S
H972 C980 0.950 . S
H973 C985 0.950 . S
H974 C982 0.950 . S
H975 C984 0.950 . S
H976 C986 0.950 . S
H977 C988 0.950 . S
H978 C990 0.950 . S
H979 C991 0.950 . S
C980 H972 0.950 . S
C980 C981 1.386 . S
C980 C982 1.391 . S
C981 C980 1.386 . S
C981 C985 1.393 . S
C982 H974 0.950 . S
C982 C980 1.391 . S
C982 C983 1.400 . S
C983 C982 1.400 . S
C983 C984 1.398 . S
C983 C989 1.491 . S
C984 H975 0.950 . S
C984 C983 1.398 . S
C984 C985 1.391 . S
C985 H973 0.950 . S
C985 C981 1.393 . S
C985 C984 1.391 . S
C986 H976 0.950 . S
C986 C987 1.386 . S
C986 C988 1.391 . S
C987 C986 1.386 . S
C987 C991 1.393 . S
C988 H977 0.950 . S
C988 C986 1.391 . S
C988 C989 1.400 . S
C989 C983 1.491 . S
C989 C988 1.400 . S
C989 C990 1.398 . S
C990 H978 0.950 . S
C990 C989 1.398 . S
C990 C991 1.391 . S
C991 H979 0.950 . S
C991 C987 1.393 . S
C991 C990 1.391 . S
H992 C1000 0.950 . S
H993 C1005 0.950 . S
H994 C1002 0.950 . S
H995 C1004 0.950 . S
H996 C1006 0.950 . S
H997 C1008 0.950 . S
H998 C1010 0.950 . S
H999 C1011 0.950 . S
C1000 H992 0.950 . S
C1000 C1001 1.386 . S
C1000 C1002 1.391 . S
C1001 C1000 1.386 . S
C1001 C1005 1.393 . S
C1002 H994 0.950 . S
C1002 C1000 1.391 . S
C1002 C1003 1.400 . S
C1003 C1002 1.400 . S
C1003 C1004 1.398 . S
C1003 C1009 1.491 . S
C1004 H995 0.950 . S
C1004 C1003 1.398 . S
C1004 C1005 1.391 . S
C1005 H993 0.950 . S
C1005 C1001 1.393 . S
C1005 C1004 1.391 . S
C1006 H996 0.950 . S
C1006 C1007 1.386 . S
C1006 C1008 1.391 . S
C1007 C1006 1.386 . S
C1007 C1011 1.393 . S
C1008 H997 0.950 . S
C1008 C1006 1.391 . S
C1008 C1009 1.400 . S
C1009 C1003 1.491 . S
C1009 C1008 1.400 . S
C1009 C1010 1.398 . S
C1010 H998 0.950 . S
C1010 C1009 1.398 . S
C1010 C1011 1.391 . S
C1011 H999 0.950 . S
C1011 C1007 1.393 . S
C1011 C1010 1.391 . S
H1012 C1020 0.950 . S
H1013 C1025 0.950 . S
H1014 C1022 0.950 . S
H1015 C1024 0.950 . S
H1016 C1026 0.950 . S
H1017 C1028 0.950 . S
H1018 C1030 0.950 . S
H1019 C1031 0.950 . S
C1020 H1012 0.950 . S
C1020 C1021 1.386 . S
C1020 C1022 1.391 . S
C1021 C1020 1.386 . S
C1021 C1025 1.393 . S
C1022 H1014 0.950 . S
C1022 C1020 1.391 . S
C1022 C1023 1.400 . S
C1023 C1022 1.400 . S
C1023 C1024 1.398 . S
C1023 C1029 1.491 . S
C1024 H1015 0.950 . S
C1024 C1023 1.398 . S
C1024 C1025 1.391 . S
C1025 H1013 0.950 . S
C1025 C1021 1.393 . S
C1025 C1024 1.391 . S
C1026 H1016 0.950 . S
C1026 C1027 1.386 . S
C1026 C1028 1.391 . S
C1027 C1026 1.386 . S
C1027 C1031 1.393 . S
C1028 H1017 0.950 . S
C1028 C1026 1.391 . S
C1028 C1029 1.400 . S
C1029 C1023 1.491 . S
C1029 C1028 1.400 . S
C1029 C1030 1.398 . S
C1030 H1018 0.950 . S
C1030 C1029 1.398 . S
C1030 C1031 1.391 . S
C1031 H1019 0.950 . S
C1031 C1027 1.393 . S
C1031 C1030 1.391 . S
H1032 C1040 0.950 . S
H1033 C1045 0.966 . S
H1034 C1042 0.950 . S
H1035 C1044 0.950 . S
H1036 C1046 0.950 . S
H1037 C1048 0.950 . S
H1038 C1050 0.950 . S
H1039 C1051 0.950 . S
C1040 H1032 0.950 . S
C1040 C1041 1.386 . S
C1040 C1042 1.391 . S
C1041 C1040 1.386 . S
C1041 C1045 1.375 1_655 S
C1042 H1034 0.950 . S
C1042 C1040 1.391 . S
C1042 C1043 1.400 . S
C1043 C1042 1.400 . S
C1043 C1044 1.398 1_655 S
C1043 C1049 1.491 . S
C1044 H1035 0.950 . S
C1044 C1043 1.398 1_455 S
C1044 C1045 1.393 . S
C1045 H1033 0.966 . S
C1045 C1041 1.375 1_455 S
C1045 C1044 1.393 . S
C1046 H1036 0.950 . S
C1046 C1047 1.386 1_455 S
C1046 C1048 1.391 . S
C1047 C1046 1.386 1_655 S
C1047 C1051 1.393 . S
C1048 H1037 0.950 . S
C1048 C1046 1.391 . S
C1048 C1049 1.400 1_455 S
C1049 C1043 1.491 . S
C1049 C1048 1.400 1_655 S
C1049 C1050 1.398 . S
C1050 H1038 0.950 . S
C1050 C1049 1.398 . S
C1050 C1051 1.391 . S
C1051 H1039 0.950 . S
C1051 C1047 1.393 . S
C1051 C1050 1.391 . S
H1052 C1060 0.950 . S
H1053 C1065 0.950 . S
H1054 C1062 0.950 . S
H1055 C1064 0.950 . S
H1056 C1066 0.950 . S
H1057 C1068 0.950 . S
H1058 C1070 0.950 . S
H1059 C1071 0.950 . S
C1060 H1052 0.950 . S
C1060 C1061 1.386 . S
C1060 C1062 1.391 . S
C1061 C1060 1.386 . S
C1061 C1065 1.393 . S
C1062 H1054 0.950 . S
C1062 C1060 1.391 . S
C1062 C1063 1.400 . S
C1063 C1062 1.400 . S
C1063 C1064 1.398 . S
C1063 C1069 1.491 . S
C1064 H1055 0.950 . S
C1064 C1063 1.398 . S
C1064 C1065 1.391 . S
C1065 H1053 0.950 . S
C1065 C1061 1.393 . S
C1065 C1064 1.391 . S
C1066 H1056 0.950 . S
C1066 C1067 1.386 . S
C1066 C1068 1.391 . S
C1067 C1066 1.386 . S
C1067 C1071 1.393 . S
C1068 H1057 0.950 . S
C1068 C1066 1.391 . S
C1068 C1069 1.400 . S
C1069 C1063 1.491 . S
C1069 C1068 1.400 . S
C1069 C1070 1.398 . S
C1070 H1058 0.950 . S
C1070 C1069 1.398 . S
C1070 C1071 1.391 . S
C1071 H1059 0.950 . S
C1071 C1067 1.393 . S
C1071 C1070 1.391 . S
H1072 C1080 0.950 . S
H1073 C1085 0.950 . S
H1074 C1082 0.950 . S
H1075 C1084 0.950 . S
H1076 C1086 0.950 . S
H1077 C1088 0.950 . S
H1078 C1090 0.950 . S
H1079 C1091 0.950 . S
C1080 H1072 0.950 . S
C1080 C1081 1.386 . S
C1080 C1082 1.391 . S
C1081 C1080 1.386 . S
C1081 C1085 1.393 . S
C1082 H1074 0.950 . S
C1082 C1080 1.391 . S
C1082 C1083 1.400 . S
C1083 C1082 1.400 . S
C1083 C1084 1.398 . S
C1083 C1089 1.491 . S
C1084 H1075 0.950 . S
C1084 C1083 1.398 . S
C1084 C1085 1.391 . S
C1085 H1073 0.950 . S
C1085 C1081 1.393 . S
C1085 C1084 1.391 . S
C1086 H1076 0.950 . S
C1086 C1087 1.386 . S
C1086 C1088 1.391 . S
C1087 C1086 1.386 . S
C1087 C1091 1.393 . S
C1088 H1077 0.950 . S
C1088 C1086 1.391 . S
C1088 C1089 1.400 . S
C1089 C1083 1.491 . S
C1089 C1088 1.400 . S
C1089 C1090 1.398 . S
C1090 H1078 0.950 . S
C1090 C1089 1.398 . S
C1090 C1091 1.391 . S
C1091 H1079 0.950 . S
C1091 C1087 1.393 . S
C1091 C1090 1.391 . S
H1092 C1100 0.950 . S
H1093 C1105 0.950 . S
H1094 C1102 0.950 . S
H1095 C1104 0.950 1_554 S
H1096 C1106 0.950 . S
H1097 C1108 0.950 . S
H1098 C1110 0.950 . S
H1099 C1111 0.950 . S
C1100 H1092 0.950 . S
C1100 C1101 1.386 . S
C1100 C1102 1.391 . S
C1101 C1100 1.386 . S
C1101 C1105 1.393 . S
C1102 H1094 0.950 . S
C1102 C1100 1.391 . S
C1102 C1103 1.400 . S
C1103 C1102 1.400 . S
C1103 C1104 1.398 . S
C1103 C1109 1.491 . S
C1104 H1095 0.950 1_556 S
C1104 C1103 1.398 . S
C1104 C1105 1.391 . S
C1105 H1093 0.950 . S
C1105 C1101 1.393 . S
C1105 C1104 1.391 . S
C1106 H1096 0.950 . S
C1106 C1107 1.386 . S
C1106 C1108 1.391 . S
C1107 C1106 1.386 . S
C1107 C1111 1.393 1_554 S
C1108 H1097 0.950 . S
C1108 C1106 1.391 . S
C1108 C1109 1.400 1_554 S
C1109 C1103 1.491 . S
C1109 C1108 1.400 1_556 S
C1109 C1110 1.398 . S
C1110 H1098 0.950 . S
C1110 C1109 1.398 . S
C1110 C1111 1.391 . S
C1111 H1099 0.950 . S
C1111 C1107 1.393 1_556 S
C1111 C1110 1.391 . S
H1112 C1120 0.950 . S
H1113 C1125 0.950 . S
H1114 C1122 0.950 . S
H1115 C1124 0.950 . S
H1116 C1126 0.950 . S
H1117 C1128 0.950 . S
H1118 C1130 0.950 . S
H1119 C1131 0.950 . S
C1120 H1112 0.950 . S
C1120 C1121 1.386 . S
C1120 C1122 1.391 . S
C1121 C1120 1.386 . S
C1121 C1125 1.393 . S
C1122 H1114 0.950 . S
C1122 C1120 1.391 . S
C1122 C1123 1.400 . S
C1123 C1122 1.400 . S
C1123 C1124 1.398 . S
C1123 C1129 1.491 . S
C1124 H1115 0.950 . S
C1124 C1123 1.398 . S
C1124 C1125 1.391 . S
C1125 H1113 0.950 . S
C1125 C1121 1.393 . S
C1125 C1124 1.391 . S
C1126 H1116 0.950 . S
C1126 C1127 1.386 . S
C1126 C1128 1.391 . S
C1127 C1126 1.386 . S
C1127 C1131 1.393 . S
C1128 H1117 0.950 . S
C1128 C1126 1.391 . S
C1128 C1129 1.400 . S
C1129 C1123 1.491 . S
C1129 C1128 1.400 . S
C1129 C1130 1.398 . S
C1130 H1118 0.950 . S
C1130 C1129 1.398 . S
C1130 C1131 1.391 . S
C1131 H1119 0.950 . S
C1131 C1127 1.393 . S
C1131 C1130 1.391 . S
H1132 C1140 0.950 . S
H1133 C1145 0.950 . S
H1134 C1142 0.950 . S
H1135 C1144 0.950 . S
H1136 C1146 0.950 . S
H1137 C1148 0.950 . S
H1138 C1150 0.950 . S
H1139 C1151 0.950 . S
C1140 H1132 0.950 . S
C1140 C1141 1.386 . S
C1140 C1142 1.391 . S
C1141 C1140 1.386 . S
C1141 C1145 1.393 . S
C1142 H1134 0.950 . S
C1142 C1140 1.391 . S
C1142 C1143 1.400 . S
C1143 C1142 1.400 . S
C1143 C1144 1.398 . S
C1143 C1149 1.491 . S
C1144 H1135 0.950 . S
C1144 C1143 1.398 . S
C1144 C1145 1.391 . S
C1145 H1133 0.950 . S
C1145 C1141 1.393 . S
C1145 C1144 1.391 . S
C1146 H1136 0.950 . S
C1146 C1147 1.386 . S
C1146 C1148 1.391 . S
C1147 C1146 1.386 . S
C1147 C1151 1.393 . S
C1148 H1137 0.950 . S
C1148 C1146 1.391 . S
C1148 C1149 1.400 . S
C1149 C1143 1.491 . S
C1149 C1148 1.400 . S
C1149 C1150 1.398 . S
C1150 H1138 0.950 . S
C1150 C1149 1.398 . S
C1150 C1151 1.391 . S
C1151 H1139 0.950 . S
C1151 C1147 1.393 . S
C1151 C1150 1.391 . S
H1152 C1160 0.950 . S
H1153 C1165 0.950 . S
H1154 C1162 0.950 . S
H1155 C1164 0.950 . S
H1156 C1166 0.950 . S
H1157 C1168 0.950 . S
H1158 C1170 0.950 . S
H1159 C1171 0.950 . S
C1160 H1152 0.950 . S
C1160 C1161 1.386 . S
C1160 C1162 1.391 . S
C1161 C1160 1.386 . S
C1161 C1165 1.393 . S
C1162 H1154 0.950 . S
C1162 C1160 1.391 . S
C1162 C1163 1.400 . S
C1163 C1162 1.400 . S
C1163 C1164 1.398 . S
C1163 C1169 1.491 . S
C1164 H1155 0.950 . S
C1164 C1163 1.398 . S
C1164 C1165 1.391 . S
C1165 H1153 0.950 . S
C1165 C1161 1.393 . S
C1165 C1164 1.391 . S
C1166 H1156 0.950 . S
C1166 C1167 1.386 . S
C1166 C1168 1.391 . S
C1167 C1166 1.386 . S
C1167 C1171 1.393 . S
C1168 H1157 0.950 . S
C1168 C1166 1.391 . S
C1168 C1169 1.400 . S
C1169 C1163 1.491 . S
C1169 C1168 1.400 . S
C1169 C1170 1.398 . S
C1170 H1158 0.950 . S
C1170 C1169 1.398 . S
C1170 C1171 1.391 . S
C1171 H1159 0.950 . S
C1171 C1167 1.393 . S
C1171 C1170 1.391 . S
H1172 C1180 0.950 . S
H1173 C1185 0.950 . S
H1174 C1182 0.950 . S
H1175 C1184 0.950 . S
H1176 C1186 0.950 . S
H1177 C1188 0.950 . S
H1178 C1190 0.950 . S
H1179 C1191 0.950 . S
C1180 H1172 0.950 . S
C1180 C1181 1.386 . S
C1180 C1182 1.391 . S
C1181 C1180 1.386 . S
C1181 C1185 1.393 . S
C1182 H1174 0.950 . S
C1182 C1180 1.391 . S
C1182 C1183 1.400 . S
C1183 C1182 1.400 . S
C1183 C1184 1.398 . S
C1183 C1189 1.491 . S
C1184 H1175 0.950 . S
C1184 C1183 1.398 . S
C1184 C1185 1.391 . S
C1185 H1173 0.950 . S
C1185 C1181 1.393 . S
C1185 C1184 1.391 . S
C1186 H1176 0.950 . S
C1186 C1187 1.386 . S
C1186 C1188 1.391 . S
C1187 C1186 1.386 . S
C1187 C1191 1.393 . S
C1188 H1177 0.950 . S
C1188 C1186 1.391 . S
C1188 C1189 1.400 . S
C1189 C1183 1.491 . S
C1189 C1188 1.400 . S
C1189 C1190 1.398 . S
C1190 H1178 0.950 . S
C1190 C1189 1.398 . S
C1190 C1191 1.391 . S
C1191 H1179 0.950 . S
C1191 C1187 1.393 . S
C1191 C1190 1.391 . S
H1192 C1200 0.950 . S
H1193 C1205 0.950 . S
H1194 C1202 0.950 . S
H1195 C1204 0.950 . S
H1196 C1206 0.950 . S
H1197 C1208 0.950 . S
H1198 C1210 0.950 . S
H1199 C1211 0.950 . S
C1200 H1192 0.950 . S
C1200 C1201 1.386 . S
C1200 C1202 1.391 . S
C1201 C1200 1.386 . S
C1201 C1205 1.393 . S
C1202 H1194 0.950 . S
C1202 C1200 1.391 . S
C1202 C1203 1.400 . S
C1203 C1202 1.400 . S
C1203 C1204 1.398 . S
C1203 C1209 1.491 . S
C1204 H1195 0.950 . S
C1204 C1203 1.398 . S
C1204 C1205 1.391 . S
C1205 H1193 0.950 . S
C1205 C1201 1.393 . S
C1205 C1204 1.391 . S
C1206 H1196 0.950 . S
C1206 C1207 1.386 . S
C1206 C1208 1.391 . S
C1207 C1206 1.386 . S
C1207 C1211 1.393 . S
C1208 H1197 0.950 . S
C1208 C1206 1.391 . S
C1208 C1209 1.400 . S
C1209 C1203 1.491 . S
C1209 C1208 1.400 . S
C1209 C1210 1.398 . S
C1210 H1198 0.950 . S
C1210 C1209 1.398 . S
C1210 C1211 1.391 . S
C1211 H1199 0.950 . S
C1211 C1207 1.393 . S
C1211 C1210 1.391 . S
H1212 C1220 0.950 . S
H1213 C1225 0.950 . S
H1214 C1222 0.950 . S
H1215 C1224 0.950 . S
H1216 C1226 0.950 . S
H1217 C1228 0.950 . S
H1218 C1230 0.950 . S
H1219 C1231 0.950 . S
C1220 H1212 0.950 . S
C1220 C1221 1.386 . S
C1220 C1222 1.391 . S
C1221 C1220 1.386 . S
C1221 C1225 1.393 . S
C1222 H1214 0.950 . S
C1222 C1220 1.391 . S
C1222 C1223 1.400 . S
C1223 C1222 1.400 . S
C1223 C1224 1.398 . S
C1223 C1229 1.491 . S
C1224 H1215 0.950 . S
C1224 C1223 1.398 . S
C1224 C1225 1.391 . S
C1225 H1213 0.950 . S
C1225 C1221 1.393 . S
C1225 C1224 1.391 . S
C1226 H1216 0.950 . S
C1226 C1227 1.386 . S
C1226 C1228 1.391 . S
C1227 C1226 1.386 . S
C1227 C1231 1.393 . S
C1228 H1217 0.950 . S
C1228 C1226 1.391 . S
C1228 C1229 1.400 . S
C1229 C1223 1.491 . S
C1229 C1228 1.400 . S
C1229 C1230 1.398 . S
C1230 H1218 0.950 . S
C1230 C1229 1.398 . S
C1230 C1231 1.391 . S
C1231 H1219 0.950 . S
C1231 C1227 1.393 . S
C1231 C1230 1.391 . S
H1232 C1240 0.950 . S
H1233 C1245 0.950 . S
H1234 C1242 0.946 1_565 S
H1235 C1244 0.950 . S
H1236 C1246 0.950 . S
H1237 C1248 0.950 . S
H1238 C1250 0.950 1_565 S
H1239 C1251 0.950 . S
C1240 H1232 0.950 . S
C1240 C1241 1.386 . S
C1240 C1242 1.391 . S
C1241 C1240 1.386 . S
C1241 C1245 1.393 . S
C1242 H1234 0.946 1_545 S
C1242 C1240 1.391 . S
C1242 C1243 1.400 . S
C1243 C1242 1.400 . S
C1243 C1244 1.398 . S
C1243 C1249 1.491 . S
C1244 H1235 0.950 . S
C1244 C1243 1.398 . S
C1244 C1245 1.391 . S
C1245 H1233 0.950 . S
C1245 C1241 1.393 . S
C1245 C1244 1.391 . S
C1246 H1236 0.950 . S
C1246 C1247 1.386 . S
C1246 C1248 1.391 . S
C1247 C1246 1.386 . S
C1247 C1251 1.393 1_545 S
C1248 H1237 0.950 . S
C1248 C1246 1.391 . S
C1248 C1249 1.400 . S
C1249 C1243 1.491 . S
C1249 C1248 1.400 . S
C1249 C1250 1.398 . S
C1250 H1238 0.950 1_545 S
C1250 C1249 1.398 . S
C1250 C1251 1.391 1_545 S
C1251 H1239 0.950 . S
C1251 C1247 1.393 1_565 S
C1251 C1250 1.391 1_565 S
H1252 C1260 0.950 . S
H1253 C1265 0.950 . S
H1254 C1262 0.950 . S
H1255 C1264 0.950 . S
H1256 C1266 0.950 . S
H1257 C1268 0.950 . S
H1258 C1270 0.950 . S
H1259 C1271 0.950 . S
C1260 H1252 0.950 . S
C1260 C1261 1.386 . S
C1260 C1262 1.391 . S
C1261 C1260 1.386 . S
C1261 C1265 1.393 . S
C1262 H1254 0.950 . S
C1262 C1260 1.391 . S
C1262 C1263 1.400 . S
C1263 C1262 1.400 . S
C1263 C1264 1.398 . S
C1263 C1269 1.491 . S
C1264 H1255 0.950 . S
C1264 C1263 1.398 . S
C1264 C1265 1.391 . S
C1265 H1253 0.950 . S
C1265 C1261 1.393 . S
C1265 C1264 1.391 . S
C1266 H1256 0.950 . S
C1266 C1267 1.386 . S
C1266 C1268 1.391 . S
C1267 C1266 1.386 . S
C1267 C1271 1.393 . S
C1268 H1257 0.950 . S
C1268 C1266 1.391 . S
C1268 C1269 1.400 . S
C1269 C1263 1.491 . S
C1269 C1268 1.400 . S
C1269 C1270 1.398 . S
C1270 H1258 0.950 . S
C1270 C1269 1.398 . S
C1270 C1271 1.391 . S
C1271 H1259 0.950 . S
C1271 C1267 1.393 . S
C1271 C1270 1.391 . S
H1272 C1280 0.950 . S
H1273 C1285 0.950 . S
H1274 C1282 0.950 . S
H1275 C1284 0.950 . S
H1276 C1286 0.950 . S
H1277 C1288 0.950 . S
H1278 C1290 0.950 . S
H1279 C1291 0.950 . S
C1280 H1272 0.950 . S
C1280 C1281 1.386 . S
C1280 C1282 1.391 . S
C1281 C1280 1.386 . S
C1281 C1285 1.393 . S
C1282 H1274 0.950 . S
C1282 C1280 1.391 . S
C1282 C1283 1.400 . S
C1283 C1282 1.400 . S
C1283 C1284 1.398 . S
C1283 C1289 1.491 . S
C1284 H1275 0.950 . S
C1284 C1283 1.398 . S
C1284 C1285 1.391 . S
C1285 H1273 0.950 . S
C1285 C1281 1.393 . S
C1285 C1284 1.391 . S
C1286 H1276 0.950 . S
C1286 C1287 1.386 . S
C1286 C1288 1.391 . S
C1287 C1286 1.386 . S
C1287 C1291 1.393 . S
C1288 H1277 0.950 . S
C1288 C1286 1.391 . S
C1288 C1289 1.400 . S
C1289 C1283 1.491 . S
C1289 C1288 1.400 . S
C1289 C1290 1.398 . S
C1290 H1278 0.950 . S
C1290 C1289 1.398 . S
C1290 C1291 1.391 . S
C1291 H1279 0.950 . S
C1291 C1287 1.393 . S
C1291 C1290 1.391 . S
H1292 C1300 0.950 . S
H1293 C1305 0.950 . S
H1294 C1302 0.950 . S
H1295 C1304 0.950 . S
H1296 C1306 0.950 . S
H1297 C1308 0.950 . S
H1298 C1310 0.950 . S
H1299 C1311 0.950 . S
C1300 H1292 0.950 . S
C1300 C1301 1.386 . S
C1300 C1302 1.391 . S
C1301 C1300 1.386 . S
C1301 C1305 1.393 . S
C1302 H1294 0.950 . S
C1302 C1300 1.391 . S
C1302 C1303 1.400 . S
C1303 C1302 1.400 . S
C1303 C1304 1.398 . S
C1303 C1309 1.491 . S
C1304 H1295 0.950 . S
C1304 C1303 1.398 . S
C1304 C1305 1.391 . S
C1305 H1293 0.950 . S
C1305 C1301 1.393 . S
C1305 C1304 1.391 . S
C1306 H1296 0.950 . S
C1306 C1307 1.386 . S
C1306 C1308 1.391 . S
C1307 C1306 1.386 . S
C1307 C1311 1.393 . S
C1308 H1297 0.950 . S
C1308 C1306 1.391 . S
C1308 C1309 1.400 . S
C1309 C1303 1.491 . S
C1309 C1308 1.400 . S
C1309 C1310 1.398 . S
C1310 H1298 0.950 . S
C1310 C1309 1.398 . S
C1310 C1311 1.391 . S
C1311 H1299 0.950 . S
C1311 C1307 1.393 . S
C1311 C1310 1.391 . S
H1312 C1320 0.950 . S
H1313 C1325 0.950 . S
H1314 C1322 0.950 . S
H1315 C1324 0.950 . S
H1316 C1326 0.950 . S
H1317 C1328 0.950 . S
H1318 C1330 0.950 . S
H1319 C1331 0.950 . S
C1320 H1312 0.950 . S
C1320 C1321 1.386 . S
C1320 C1322 1.391 . S
C1321 C1320 1.386 . S
C1321 C1325 1.393 . S
C1322 H1314 0.950 . S
C1322 C1320 1.391 . S
C1322 C1323 1.400 . S
C1323 C1322 1.400 . S
C1323 C1324 1.398 . S
C1323 C1329 1.491 . S
C1324 H1315 0.950 . S
C1324 C1323 1.398 . S
C1324 C1325 1.391 . S
C1325 H1313 0.950 . S
C1325 C1321 1.393 . S
C1325 C1324 1.391 . S
C1326 H1316 0.950 . S
C1326 C1327 1.386 . S
C1326 C1328 1.391 . S
C1327 C1326 1.386 . S
C1327 C1331 1.393 . S
C1328 H1317 0.950 . S
C1328 C1326 1.391 . S
C1328 C1329 1.400 . S
C1329 C1323 1.491 . S
C1329 C1328 1.400 . S
C1329 C1330 1.398 . S
C1330 H1318 0.950 . S
C1330 C1329 1.398 . S
C1330 C1331 1.391 . S
C1331 H1319 0.950 . S
C1331 C1327 1.393 . S
C1331 C1330 1.391 . S
H1332 C1340 0.950 . S
H1333 C1345 0.950 . S
H1334 C1342 0.950 . S
H1335 C1344 0.950 . S
H1336 C1346 0.950 . S
H1337 C1348 0.950 . S
H1338 C1350 0.950 . S
H1339 C1351 0.950 . S
C1340 H1332 0.950 . S
C1340 C1341 1.386 . S
C1340 C1342 1.391 . S
C1341 C1340 1.386 . S
C1341 C1345 1.393 . S
C1342 H1334 0.950 . S
C1342 C1340 1.391 . S
C1342 C1343 1.400 . S
C1343 C1342 1.400 . S
C1343 C1344 1.398 . S
C1343 C1349 1.491 . S
C1344 H1335 0.950 . S
C1344 C1343 1.398 . S
C1344 C1345 1.391 . S
C1345 H1333 0.950 . S
C1345 C1341 1.393 . S
C1345 C1344 1.391 . S
C1346 H1336 0.950 . S
C1346 C1347 1.386 . S
C1346 C1348 1.391 . S
C1347 C1346 1.386 . S
C1347 C1351 1.393 . S
C1348 H1337 0.950 . S
C1348 C1346 1.391 . S
C1348 C1349 1.400 . S
C1349 C1343 1.491 . S
C1349 C1348 1.400 . S
C1349 C1350 1.398 . S
C1350 H1338 0.950 . S
C1350 C1349 1.398 . S
C1350 C1351 1.391 . S
C1351 H1339 0.950 . S
C1351 C1347 1.393 . S
C1351 C1350 1.391 . S
H1352 C1360 0.950 . S
H1353 C1365 0.950 . S
H1354 C1362 0.950 . S
H1355 C1364 0.950 . S
H1356 C1366 0.950 . S
H1357 C1368 0.950 . S
H1358 C1370 0.950 . S
H1359 C1371 0.950 . S
C1360 H1352 0.950 . S
C1360 C1361 1.386 . S
C1360 C1362 1.391 . S
C1361 C1360 1.386 . S
C1361 C1365 1.393 . S
C1362 H1354 0.950 . S
C1362 C1360 1.391 . S
C1362 C1363 1.400 . S
C1363 C1362 1.400 . S
C1363 C1364 1.398 . S
C1363 C1369 1.491 . S
C1364 H1355 0.950 . S
C1364 C1363 1.398 . S
C1364 C1365 1.391 . S
C1365 H1353 0.950 . S
C1365 C1361 1.393 . S
C1365 C1364 1.391 . S
C1366 H1356 0.950 . S
C1366 C1367 1.386 . S
C1366 C1368 1.391 . S
C1367 C1366 1.386 . S
C1367 C1371 1.393 . S
C1368 H1357 0.950 . S
C1368 C1366 1.391 . S
C1368 C1369 1.400 . S
C1369 C1363 1.491 . S
C1369 C1368 1.400 . S
C1369 C1370 1.398 . S
C1370 H1358 0.950 . S
C1370 C1369 1.398 . S
C1370 C1371 1.391 . S
C1371 H1359 0.950 . S
C1371 C1367 1.393 . S
C1371 C1370 1.391 . S
H1372 C1380 0.950 . S
H1373 C1385 0.950 . S
H1374 C1382 0.950 . S
H1375 C1384 0.950 . S
H1376 C1386 0.950 . S
H1377 C1388 0.950 . S
H1378 C1390 0.950 . S
H1379 C1391 0.950 . S
C1380 H1372 0.950 . S
C1380 C1381 1.386 . S
C1380 C1382 1.391 . S
C1381 C1380 1.386 . S
C1381 C1385 1.393 . S
C1382 H1374 0.950 . S
C1382 C1380 1.391 . S
C1382 C1383 1.400 . S
C1383 C1382 1.400 . S
C1383 C1384 1.398 . S
C1383 C1389 1.491 . S
C1384 H1375 0.950 . S
C1384 C1383 1.398 . S
C1384 C1385 1.391 . S
C1385 H1373 0.950 . S
C1385 C1381 1.393 . S
C1385 C1384 1.391 . S
C1386 H1376 0.950 . S
C1386 C1387 1.386 . S
C1386 C1388 1.391 . S
C1387 C1386 1.386 . S
C1387 C1391 1.393 . S
C1388 H1377 0.950 . S
C1388 C1386 1.391 . S
C1388 C1389 1.400 . S
C1389 C1383 1.491 . S
C1389 C1388 1.400 . S
C1389 C1390 1.398 . S
C1390 H1378 0.950 . S
C1390 C1389 1.398 . S
C1390 C1391 1.391 . S
C1391 H1379 0.950 . S
C1391 C1387 1.393 . S
C1391 C1390 1.391 . S
H1392 C1400 0.950 . S
H1393 C1405 0.950 . S
H1394 C1402 0.950 1_455 S
H1395 C1404 0.950 . S
H1396 C1406 0.950 . S
H1397 C1408 0.950 . S
H1398 C1410 0.947 1_455 S
H1399 C1411 0.950 . S
C1400 H1392 0.950 . S
C1400 C1401 1.386 . S
C1400 C1402 1.391 . S
C1401 C1400 1.386 . S
C1401 C1405 1.393 . S
C1402 H1394 0.950 1_655 S
C1402 C1400 1.391 . S
C1402 C1403 1.400 . S
C1403 C1402 1.400 . S
C1403 C1404 1.398 . S
C1403 C1409 1.491 . S
C1404 H1395 0.950 . S
C1404 C1403 1.398 . S
C1404 C1405 1.391 . S
C1405 H1393 0.950 . S
C1405 C1401 1.393 . S
C1405 C1404 1.391 . S
C1406 H1396 0.950 . S
C1406 C1407 1.386 . S
C1406 C1408 1.391 . S
C1407 C1406 1.386 . S
C1407 C1411 1.393 1_655 S
C1408 H1397 0.950 . S
C1408 C1406 1.391 . S
C1408 C1409 1.400 . S
C1409 C1403 1.491 . S
C1409 C1408 1.400 . S
C1409 C1410 1.403 . S
C1410 H1398 0.947 1_655 S
C1410 C1409 1.403 . S
C1410 C1411 1.389 1_655 S
C1411 H1399 0.950 . S
C1411 C1407 1.393 1_455 S
C1411 C1410 1.389 1_455 S
H1412 C1420 0.950 . S
H1413 C1425 0.950 . S
H1414 C1422 0.950 . S
H1415 C1424 0.950 . S
H1416 C1426 0.950 . S
H1417 C1428 0.950 . S
H1418 C1430 0.950 . S
H1419 C1431 0.950 . S
C1420 H1412 0.950 . S
C1420 C1421 1.386 . S
C1420 C1422 1.391 . S
C1421 C1420 1.386 . S
C1421 C1425 1.393 . S
C1422 H1414 0.950 . S
C1422 C1420 1.391 . S
C1422 C1423 1.400 . S
C1423 C1422 1.400 . S
C1423 C1424 1.398 . S
C1423 C1429 1.491 . S
C1424 H1415 0.950 . S
C1424 C1423 1.398 . S
C1424 C1425 1.391 . S
C1425 H1413 0.950 . S
C1425 C1421 1.393 . S
C1425 C1424 1.391 . S
C1426 H1416 0.950 . S
C1426 C1427 1.386 . S
C1426 C1428 1.391 . S
C1427 C1426 1.386 . S
C1427 C1431 1.393 . S
C1428 H1417 0.950 . S
C1428 C1426 1.391 . S
C1428 C1429 1.400 . S
C1429 C1423 1.491 . S
C1429 C1428 1.400 . S
C1429 C1430 1.398 . S
C1430 H1418 0.950 . S
C1430 C1429 1.398 . S
C1430 C1431 1.391 . S
C1431 H1419 0.950 . S
C1431 C1427 1.393 . S
C1431 C1430 1.391 . S
H1432 C1440 0.914 1_554 S
H1433 C1445 0.950 . S
H1434 C1442 0.950 . S
H1435 C1444 0.950 . S
H1436 C1446 0.950 . S
H1437 C1448 0.950 . S
H1438 C1450 0.950 . S
H1439 C1451 0.953 . S
C1440 H1432 0.914 1_556 S
C1440 C1441 1.386 . S
C1440 C1442 1.391 . S
C1441 C1440 1.386 . S
C1441 C1445 1.393 . S
C1442 H1434 0.950 . S
C1442 C1440 1.391 . S
C1442 C1443 1.400 . S
C1443 C1442 1.400 . S
C1443 C1444 1.398 . S
C1443 C1449 1.491 . S
C1444 H1435 0.950 . S
C1444 C1443 1.398 . S
C1444 C1445 1.391 . S
C1445 H1433 0.950 . S
C1445 C1441 1.393 . S
C1445 C1444 1.391 . S
C1446 H1436 0.950 . S
C1446 C1447 1.386 . S
C1446 C1448 1.391 . S
C1447 C1446 1.386 . S
C1447 C1451 1.393 . S
C1448 H1437 0.950 . S
C1448 C1446 1.391 . S
C1448 C1449 1.400 . S
C1449 C1443 1.491 . S
C1449 C1448 1.400 . S
C1449 C1450 1.398 . S
C1450 H1438 0.950 . S
C1450 C1449 1.398 . S
C1450 C1451 1.391 . S
C1451 H1439 0.953 . S
C1451 C1447 1.393 . S
C1451 C1450 1.391 . S
H1452 C1460 0.950 . S
H1453 C1465 0.950 . S
H1454 C1462 0.950 . S
H1455 C1464 0.950 . S
H1456 C1466 0.950 . S
H1457 C1468 0.950 . S
H1458 C1470 0.950 . S
H1459 C1471 0.950 . S
C1460 H1452 0.950 . S
C1460 C1461 1.386 . S
C1460 C1462 1.391 . S
C1461 C1460 1.386 . S
C1461 C1465 1.393 . S
C1462 H1454 0.950 . S
C1462 C1460 1.391 . S
C1462 C1463 1.400 . S
C1463 C1462 1.400 . S
C1463 C1464 1.398 . S
C1463 C1469 1.491 . S
C1464 H1455 0.950 . S
C1464 C1463 1.398 . S
C1464 C1465 1.391 . S
C1465 H1453 0.950 . S
C1465 C1461 1.393 . S
C1465 C1464 1.391 . S
C1466 H1456 0.950 . S
C1466 C1467 1.386 . S
C1466 C1468 1.391 . S
C1467 C1466 1.386 . S
C1467 C1471 1.393 . S
C1468 H1457 0.950 . S
C1468 C1466 1.391 . S
C1468 C1469 1.400 . S
C1469 C1463 1.491 . S
C1469 C1468 1.400 . S
C1469 C1470 1.398 . S
C1470 H1458 0.950 . S
C1470 C1469 1.398 . S
C1470 C1471 1.391 . S
C1471 H1459 0.950 . S
C1471 C1467 1.393 . S
C1471 C1470 1.391 . S
H1472 C1480 0.950 . S
H1473 C1485 0.950 . S
H1474 C1482 0.950 . S
H1475 C1484 0.950 . S
H1476 C1486 0.950 . S
H1477 C1488 0.950 . S
H1478 C1490 0.950 . S
H1479 C1491 0.950 . S
C1480 H1472 0.950 . S
C1480 C1481 1.386 . S
C1480 C1482 1.391 . S
C1481 C1480 1.386 . S
C1481 C1485 1.393 . S
C1482 H1474 0.950 . S
C1482 C1480 1.391 . S
C1482 C1483 1.400 . S
C1483 C1482 1.400 . S
C1483 C1484 1.398 . S
C1483 C1489 1.491 . S
C1484 H1475 0.950 . S
C1484 C1483 1.398 . S
C1484 C1485 1.391 . S
C1485 H1473 0.950 . S
C1485 C1481 1.393 . S
C1485 C1484 1.391 . S
C1486 H1476 0.950 . S
C1486 C1487 1.386 . S
C1486 C1488 1.391 . S
C1487 C1486 1.386 . S
C1487 C1491 1.393 . S
C1488 H1477 0.950 . S
C1488 C1486 1.391 . S
C1488 C1489 1.400 . S
C1489 C1483 1.491 . S
C1489 C1488 1.400 . S
C1489 C1490 1.398 . S
C1490 H1478 0.950 . S
C1490 C1489 1.398 . S
C1490 C1491 1.391 . S
C1491 H1479 0.950 . S
C1491 C1487 1.393 . S
C1491 C1490 1.391 . S
H1492 C1500 0.950 . S
H1493 C1505 0.950 . S
H1494 C1502 0.950 . S
H1495 C1504 0.950 . S
H1496 C1506 0.950 . S
H1497 C1508 0.950 . S
H1498 C1510 0.950 . S
H1499 C1511 0.950 . S
C1500 H1492 0.950 . S
C1500 C1501 1.386 . S
C1500 C1502 1.391 . S
C1501 C1500 1.386 . S
C1501 C1505 1.393 . S
C1502 H1494 0.950 . S
C1502 C1500 1.391 . S
C1502 C1503 1.400 . S
C1503 C1502 1.400 . S
C1503 C1504 1.398 . S
C1503 C1509 1.491 . S
C1504 H1495 0.950 . S
C1504 C1503 1.398 . S
C1504 C1505 1.391 . S
C1505 H1493 0.950 . S
C1505 C1501 1.393 . S
C1505 C1504 1.391 . S
C1506 H1496 0.950 . S
C1506 C1507 1.386 . S
C1506 C1508 1.391 . S
C1507 C1506 1.386 . S
C1507 C1511 1.393 . S
C1508 H1497 0.950 . S
C1508 C1506 1.391 . S
C1508 C1509 1.400 . S
C1509 C1503 1.491 . S
C1509 C1508 1.400 . S
C1509 C1510 1.398 . S
C1510 H1498 0.950 . S
C1510 C1509 1.398 . S
C1510 C1511 1.391 . S
C1511 H1499 0.950 . S
C1511 C1507 1.393 . S
C1511 C1510 1.391 . S
H1512 C1520 0.950 . S
H1513 C1525 0.950 . S
H1514 C1522 0.950 . S
H1515 C1524 0.950 . S
H1516 C1526 0.950 . S
H1517 C1528 0.950 . S
H1518 C1530 0.950 . S
H1519 C1531 0.950 . S
C1520 H1512 0.950 . S
C1520 C1521 1.386 . S
C1520 C1522 1.391 . S
C1521 C1520 1.386 . S
C1521 C1525 1.393 . S
C1522 H1514 0.950 . S
C1522 C1520 1.391 . S
C1522 C1523 1.400 . S
C1523 C1522 1.400 . S
C1523 C1524 1.398 . S
C1523 C1529 1.491 . S
C1524 H1515 0.950 . S
C1524 C1523 1.398 . S
C1524 C1525 1.391 . S
C1525 H1513 0.950 . S
C1525 C1521 1.393 . S
C1525 C1524 1.391 . S
C1526 H1516 0.950 . S
C1526 C1527 1.386 . S
C1526 C1528 1.391 . S
C1527 C1526 1.386 . S
C1527 C1531 1.393 . S
C1528 H1517 0.950 . S
C1528 C1526 1.391 . S
C1528 C1529 1.400 . S
C1529 C1523 1.491 . S
C1529 C1528 1.400 . S
C1529 C1530 1.398 . S
C1530 H1518 0.950 . S
C1530 C1529 1.398 . S
C1530 C1531 1.391 . S
C1531 H1519 0.950 . S
C1531 C1527 1.393 . S
C1531 C1530 1.391 . S
H1532 C1540 0.950 . S
H1533 C1545 0.950 . S
H1534 C1542 0.950 . S
H1535 C1544 0.950 . S
H1536 C1546 0.950 . S
H1537 C1548 0.950 . S
H1538 C1550 0.950 . S
H1539 C1551 0.950 . S
C1540 H1532 0.950 . S
C1540 C1541 1.386 . S
C1540 C1542 1.391 . S
C1541 C1540 1.386 . S
C1541 C1545 1.393 . S
C1542 H1534 0.950 . S
C1542 C1540 1.391 . S
C1542 C1543 1.400 . S
C1543 C1542 1.400 . S
C1543 C1544 1.398 . S
C1543 C1549 1.491 . S
C1544 H1535 0.950 . S
C1544 C1543 1.398 . S
C1544 C1545 1.391 . S
C1545 H1533 0.950 . S
C1545 C1541 1.393 . S
C1545 C1544 1.391 . S
C1546 H1536 0.950 . S
C1546 C1547 1.386 . S
C1546 C1548 1.391 . S
C1547 C1546 1.386 . S
C1547 C1551 1.393 . S
C1548 H1537 0.950 . S
C1548 C1546 1.391 . S
C1548 C1549 1.400 . S
C1549 C1543 1.491 . S
C1549 C1548 1.400 . S
C1549 C1550 1.398 . S
C1550 H1538 0.950 . S
C1550 C1549 1.398 . S
C1550 C1551 1.391 . S
C1551 H1539 0.950 . S
C1551 C1547 1.393 . S
C1551 C1550 1.391 . S
H1552 C1560 0.950 . S
H1553 C1565 0.950 . S
H1554 C1562 0.950 . S
H1555 C1564 0.950 . S
H1556 C1566 0.950 . S
H1557 C1568 0.950 . S
H1558 C1570 0.950 . S
H1559 C1571 0.950 . S
C1560 H1552 0.950 . S
C1560 C1561 1.386 . S
C1560 C1562 1.391 . S
C1561 C1560 1.386 . S
C1561 C1565 1.393 . S
C1562 H1554 0.950 . S
C1562 C1560 1.391 . S
C1562 C1563 1.400 . S
C1563 C1562 1.400 . S
C1563 C1564 1.398 . S
C1563 C1569 1.491 . S
C1564 H1555 0.950 . S
C1564 C1563 1.398 . S
C1564 C1565 1.391 . S
C1565 H1553 0.950 . S
C1565 C1561 1.393 . S
C1565 C1564 1.391 . S
C1566 H1556 0.950 . S
C1566 C1567 1.386 . S
C1566 C1568 1.391 . S
C1567 C1566 1.386 . S
C1567 C1571 1.393 . S
C1568 H1557 0.950 . S
C1568 C1566 1.391 . S
C1568 C1569 1.400 . S
C1569 C1563 1.491 . S
C1569 C1568 1.400 . S
C1569 C1570 1.398 . S
C1570 H1558 0.950 . S
C1570 C1569 1.398 . S
C1570 C1571 1.391 . S
C1571 H1559 0.950 . S
C1571 C1567 1.393 . S
C1571 C1570 1.391 . S
H1572 C1580 0.950 . S
H1573 C1585 0.950 . S
H1574 C1582 0.950 . S
H1575 C1584 0.950 . S
H1576 C1586 0.950 . S
H1577 C1588 0.950 . S
H1578 C1590 0.950 . S
H1579 C1591 0.950 . S
C1580 H1572 0.950 . S
C1580 C1581 1.386 . S
C1580 C1582 1.391 . S
C1581 C1580 1.386 . S
C1581 C1585 1.393 . S
C1582 H1574 0.950 . S
C1582 C1580 1.391 . S
C1582 C1583 1.400 . S
C1583 C1582 1.400 . S
C1583 C1584 1.398 . S
C1583 C1589 1.491 . S
C1584 H1575 0.950 . S
C1584 C1583 1.398 . S
C1584 C1585 1.391 . S
C1585 H1573 0.950 . S
C1585 C1581 1.393 . S
C1585 C1584 1.391 . S
C1586 H1576 0.950 . S
C1586 C1587 1.386 . S
C1586 C1588 1.391 . S
C1587 C1586 1.386 . S
C1587 C1591 1.393 . S
C1588 H1577 0.950 . S
C1588 C1586 1.391 . S
C1588 C1589 1.400 . S
C1589 C1583 1.491 . S
C1589 C1588 1.400 . S
C1589 C1590 1.398 . S
C1590 H1578 0.950 . S
C1590 C1589 1.398 . S
C1590 C1591 1.391 . S
C1591 H1579 0.950 . S
C1591 C1587 1.393 . S
C1591 C1590 1.391 . S
H1592 C1600 0.950 . S
H1593 C1605 0.950 . S
H1594 C1602 0.950 . S
H1595 C1604 0.950 . S
H1596 C1606 0.950 . S
H1597 C1608 0.950 . S
H1598 C1610 0.950 . S
H1599 C1611 0.950 . S
C1600 H1592 0.950 . S
C1600 C1601 1.386 . S
C1600 C1602 1.391 . S
C1601 C1600 1.386 . S
C1601 C1605 1.393 . S
C1602 H1594 0.950 . S
C1602 C1600 1.391 . S
C1602 C1603 1.400 . S
C1603 C1602 1.400 . S
C1603 C1604 1.398 . S
C1603 C1609 1.491 . S
C1604 H1595 0.950 . S
C1604 C1603 1.398 . S
C1604 C1605 1.391 . S
C1605 H1593 0.950 . S
C1605 C1601 1.393 . S
C1605 C1604 1.391 . S
C1606 H1596 0.950 . S
C1606 C1607 1.386 . S
C1606 C1608 1.391 . S
C1607 C1606 1.386 . S
C1607 C1611 1.393 . S
C1608 H1597 0.950 . S
C1608 C1606 1.391 . S
C1608 C1609 1.400 . S
C1609 C1603 1.491 . S
C1609 C1608 1.400 . S
C1609 C1610 1.398 . S
C1610 H1598 0.950 . S
C1610 C1609 1.398 . S
C1610 C1611 1.391 . S
C1611 H1599 0.950 . S
C1611 C1607 1.393 . S
C1611 C1610 1.391 . S
H1612 C1620 0.950 1_554 S
H1613 C1625 0.950 . S
H1614 C1622 0.950 1_554 S
H1615 C1624 0.950 . S
H1616 C1626 0.950 . S
H1617 C1628 0.950 . S
H1618 C1630 0.950 . S
H1619 C1631 0.950 . S
C1620 H1612 0.950 1_556 S
C1620 C1621 1.386 . S
C1620 C1622 1.391 . S
C1621 C1620 1.386 . S
C1621 C1625 1.393 . S
C1622 H1614 0.950 1_556 S
C1622 C1620 1.391 . S
C1622 C1623 1.400 . S
C1623 C1622 1.400 . S
C1623 C1624 1.398 . S
C1623 C1629 1.491 . S
C1624 H1615 0.950 . S
C1624 C1623 1.398 . S
C1624 C1625 1.391 . S
C1625 H1613 0.950 . S
C1625 C1621 1.393 . S
C1625 C1624 1.391 . S
C1626 H1616 0.950 . S
C1626 C1627 1.386 . S
C1626 C1628 1.391 . S
C1627 C1626 1.386 . S
C1627 C1631 1.393 1_556 S
C1628 H1617 0.950 . S
C1628 C1626 1.391 . S
C1628 C1629 1.400 . S
C1629 C1623 1.491 . S
C1629 C1628 1.400 . S
C1629 C1630 1.398 1_556 S
C1630 H1618 0.950 . S
C1630 C1629 1.398 1_554 S
C1630 C1631 1.391 . S
C1631 H1619 0.950 . S
C1631 C1627 1.393 1_554 S
C1631 C1630 1.391 . S
H1632 C1640 0.950 . S
H1633 C1645 0.950 . S
H1634 C1642 0.950 . S
H1635 C1644 0.950 . S
H1636 C1646 0.950 . S
H1637 C1648 0.950 . S
H1638 C1650 0.950 . S
H1639 C1651 0.950 . S
C1640 H1632 0.950 . S
C1640 C1641 1.386 . S
C1640 C1642 1.391 . S
C1641 C1640 1.386 . S
C1641 C1645 1.393 . S
C1642 H1634 0.950 . S
C1642 C1640 1.391 . S
C1642 C1643 1.400 . S
C1643 C1642 1.400 . S
C1643 C1644 1.398 . S
C1643 C1649 1.491 . S
C1644 H1635 0.950 . S
C1644 C1643 1.398 . S
C1644 C1645 1.391 . S
C1645 H1633 0.950 . S
C1645 C1641 1.393 . S
C1645 C1644 1.391 . S
C1646 H1636 0.950 . S
C1646 C1647 1.386 . S
C1646 C1648 1.391 . S
C1647 C1646 1.386 . S
C1647 C1651 1.393 . S
C1648 H1637 0.950 . S
C1648 C1646 1.391 . S
C1648 C1649 1.400 . S
C1649 C1643 1.491 . S
C1649 C1648 1.400 . S
C1649 C1650 1.398 . S
C1650 H1638 0.950 . S
C1650 C1649 1.398 . S
C1650 C1651 1.391 . S
C1651 H1639 0.950 . S
C1651 C1647 1.393 . S
C1651 C1650 1.391 . S
H1652 C1660 0.950 . S
H1653 C1665 0.950 . S
H1654 C1662 0.950 1_556 S
H1655 C1664 0.950 . S
H1656 C1666 0.950 . S
H1657 C1668 0.950 . S
H1658 C1670 0.957 . S
H1659 C1671 0.950 . S
C1660 H1652 0.950 . S
C1660 C1661 1.386 . S
C1660 C1662 1.391 . S
C1661 C1660 1.386 . S
C1661 C1665 1.393 . S
C1662 H1654 0.950 1_554 S
C1662 C1660 1.391 . S
C1662 C1663 1.400 . S
C1663 C1662 1.400 . S
C1663 C1664 1.398 . S
C1663 C1669 1.491 . S
C1664 H1655 0.950 . S
C1664 C1663 1.398 . S
C1664 C1665 1.391 . S
C1665 H1653 0.950 . S
C1665 C1661 1.393 . S
C1665 C1664 1.391 . S
C1666 H1656 0.950 . S
C1666 C1667 1.386 . S
C1666 C1668 1.391 . S
C1667 C1666 1.386 . S
C1667 C1671 1.393 1_554 S
C1668 H1657 0.950 . S
C1668 C1666 1.391 . S
C1668 C1669 1.400 . S
C1669 C1663 1.491 . S
C1669 C1668 1.400 . S
C1669 C1670 1.389 1_554 S
C1670 H1658 0.957 . S
C1670 C1669 1.389 1_556 S
C1670 C1671 1.393 . S
C1671 H1659 0.950 . S
C1671 C1667 1.393 1_556 S
C1671 C1670 1.393 . S
H1672 C1680 0.950 . S
H1673 C1685 0.950 1_545 S
H1674 C1682 0.950 . S
H1675 C1684 0.950 . S
H1676 C1686 0.950 . S
H1677 C1688 0.950 . S
H1678 C1690 0.950 . S
H1679 C1691 0.950 . S
C1680 H1672 0.950 . S
C1680 C1681 1.386 . S
C1680 C1682 1.391 . S
C1681 C1680 1.386 . S
C1681 C1685 1.393 . S
C1682 H1674 0.950 . S
C1682 C1680 1.391 . S
C1682 C1683 1.400 . S
C1683 C1682 1.400 . S
C1683 C1684 1.398 . S
C1683 C1689 1.491 . S
C1684 H1675 0.950 . S
C1684 C1683 1.398 . S
C1684 C1685 1.391 . S
C1685 H1673 0.950 1_565 S
C1685 C1681 1.393 . S
C1685 C1684 1.391 . S
C1686 H1676 0.950 . S
C1686 C1687 1.386 . S
C1686 C1688 1.391 . S
C1687 C1686 1.386 . S
C1687 C1691 1.393 . S
C1688 H1677 0.950 . S
C1688 C1686 1.391 . S
C1688 C1689 1.400 . S
C1689 C1683 1.491 . S
C1689 C1688 1.400 . S
C1689 C1690 1.398 . S
C1690 H1678 0.950 . S
C1690 C1689 1.398 . S
C1690 C1691 1.391 . S
C1691 H1679 0.950 . S
C1691 C1687 1.393 . S
C1691 C1690 1.391 . S
C747 C586 1.401 . S
C741 C181 1.410 . S
C767 C599 1.597 . S
C761 C247 1.614 . S
C781 C283 1.456 . S
C787 C612 1.446 . S
C807 C625 1.526 . S
C801 C169 1.531 . S
C827 C633 1.471 . S
C821 C361 1.497 . S
C847 C646 1.407 . S
C841 C433 1.430 . S
C861 C421 1.515 . S
C867 C659 1.485 . S
C887 C672 1.512 . S
C881 C355 1.525 . S
C901 C427 1.445 . S
C907 C690 1.433 . S
C927 C701 1.513 . S
C921 C325 1.542 . S
C941 C385 1.453 . S
C947 C685 1.436 . S
C967 C693 1.454 . S
C961 C463 1.479 . S
C981 C253 1.508 . S
C987 C716 1.503 . S
C1001 C145 1.515 . S
C1007 C706 1.480 . S
C1021 C205 1.492 . S
C1027 C711 1.470 . S
C1041 C217 1.561 . S
C1047 C714 1.541 1_655 S
C1061 C139 1.459 . S
C1067 C623 1.430 . S
C1081 C535 1.419 . S
C1087 C615 1.405 . S
C1107 C584 1.536 . S
C1101 C565 1.554 . S
C1127 C589 1.499 . S
C1121 C313 1.507 . S
C1141 C175 1.553 . S
C1147 C636 1.529 . S
C1167 C675 1.497 . S
C1161 C397 1.527 . S
C1187 C628 1.487 . S
C1181 C349 1.508 . S
C1207 C654 1.445 . S
C1201 C457 1.474 . S
C1227 C664 1.410 . S
C1221 C505 1.413 . S
C1241 C571 1.613 . S
C1247 C677 1.602 . S
C1261 C319 1.458 . S
C1267 C638 1.452 . S
C1287 C651 1.516 . S
C1281 C493 1.527 . S
C1301 C109 1.493 . S
C1307 C607 1.458 . S
C1327 C620 1.418 . S
C1321 C1 1.426 . S
C1347 C581 1.484 . S
C1341 C61 1.517 . S
C1367 C594 1.500 . S
C1361 C103 1.523 . S
C1381 C67 1.445 . S
C1387 C703 1.434 . S
C1401 C73 1.544 . S
C1407 C688 1.514 1_655 S
C1421 C133 1.454 . S
C1427 C698 1.440 . S
C1441 C31 1.482 . S
C1447 C680 1.454 . S
C1467 C729 1.502 . S
C1461 C289 1.507 . S
C1487 C719 1.479 . S
C1481 C469 1.512 . S
C1507 C724 1.466 . S
C1501 C529 1.493 . S
C1521 C541 1.563 . S
C1527 C727 1.523 . S
C1541 C391 1.461 . S
C1547 C649 1.429 . S
C1567 C641 1.405 . S
C1561 C211 1.422 . S
C1587 C662 1.530 . S
C1581 C241 1.555 . S
C1607 C667 1.491 . S
C1601 C277 1.508 . S
C1621 C499 1.546 . S
C1627 C610 1.516 . S
C1647 C597 1.507 . S
C1641 C37 1.529 . S
C1661 C97 1.512 . S
C1667 C602 1.474 . S
C1687 C576 1.459 . S
C1681 C25 1.479 . S
