# Generated by pormake.
# Topology ctn, (3,4)-cn, num edge types: 1
# Building blocks:
#     Node 0, Type 0, BuildingBlock: BETDAH_clean_linker_0, # of connection points: 3
#     Node 1, Type 0, BuildingBlock: BETDAH_clean_linker_0, # of connection points: 3
#     Node 2, Type 0, BuildingBlock: BETDAH_clean_linker_0, # of connection points: 3
#     Node 3, Type 0, BuildingBlock: BETDAH_clean_linker_0, # of connection points: 3
#     Node 4, Type 0, BuildingBlock: BETDAH_clean_linker_0, # of connection points: 3
#     Node 5, Type 0, BuildingBlock: BETDAH_clean_linker_0, # of connection points: 3
#     Node 6, Type 0, BuildingBlock: BETDAH_clean_linker_0, # of connection points: 3
#     Node 7, Type 0, BuildingBlock: BETDAH_clean_linker_0, # of connection points: 3
#     Node 8, Type 0, BuildingBlock: BETDAH_clean_linker_0, # of connection points: 3
#     Node 9, Type 0, BuildingBlock: BETDAH_clean_linker_0, # of connection points: 3
#     Node 10, Type 0, BuildingBlock: BETDAH_clean_linker_0, # of connection points: 3
#     Node 11, Type 0, BuildingBlock: BETDAH_clean_linker_0, # of connection points: 3
#     Node 12, Type 0, BuildingBlock: BETDAH_clean_linker_0, # of connection points: 3
#     Node 13, Type 0, BuildingBlock: BETDAH_clean_linker_0, # of connection points: 3
#     Node 14, Type 0, BuildingBlock: BETDAH_clean_linker_0, # of connection points: 3
#     Node 15, Type 0, BuildingBlock: BETDAH_clean_linker_0, # of connection points: 3
#     Node 16, Type 1, BuildingBlock: NAHDIM_clean_sbu_0, # of connection points: 4
#     Node 17, Type 1, BuildingBlock: NAHDIM_clean_sbu_0, # of connection points: 4
#     Node 18, Type 1, BuildingBlock: NAHDIM_clean_sbu_0, # of connection points: 4
#     Node 19, Type 1, BuildingBlock: NAHDIM_clean_sbu_0, # of connection points: 4
#     Node 20, Type 1, BuildingBlock: NAHDIM_clean_sbu_0, # of connection points: 4
#     Node 21, Type 1, BuildingBlock: NAHDIM_clean_sbu_0, # of connection points: 4
#     Node 22, Type 1, BuildingBlock: NAHDIM_clean_sbu_0, # of connection points: 4
#     Node 23, Type 1, BuildingBlock: NAHDIM_clean_sbu_0, # of connection points: 4
#     Node 24, Type 1, BuildingBlock: NAHDIM_clean_sbu_0, # of connection points: 4
#     Node 25, Type 1, BuildingBlock: NAHDIM_clean_sbu_0, # of connection points: 4
#     Node 26, Type 1, BuildingBlock: NAHDIM_clean_sbu_0, # of connection points: 4
#     Node 27, Type 1, BuildingBlock: NAHDIM_clean_sbu_0, # of connection points: 4
#     Edge 28, Type (0, 1), BuildingBlock: XIVTED_clean_linker_0, # of connection points: 2
#     Edge 29, Type (0, 1), BuildingBlock: XIVTED_clean_linker_0, # of connection points: 2
#     Edge 30, Type (0, 1), BuildingBlock: XIVTED_clean_linker_0, # of connection points: 2
#     Edge 31, Type (0, 1), BuildingBlock: XIVTED_clean_linker_0, # of connection points: 2
#     Edge 32, Type (0, 1), BuildingBlock: XIVTED_clean_linker_0, # of connection points: 2
#     Edge 33, Type (0, 1), BuildingBlock: XIVTED_clean_linker_0, # of connection points: 2
#     Edge 34, Type (0, 1), BuildingBlock: XIVTED_clean_linker_0, # of connection points: 2
#     Edge 35, Type (0, 1), BuildingBlock: XIVTED_clean_linker_0, # of connection points: 2
#     Edge 36, Type (0, 1), BuildingBlock: XIVTED_clean_linker_0, # of connection points: 2
#     Edge 37, Type (0, 1), BuildingBlock: XIVTED_clean_linker_0, # of connection points: 2
#     Edge 38, Type (0, 1), BuildingBlock: XIVTED_clean_linker_0, # of connection points: 2
#     Edge 39, Type (0, 1), BuildingBlock: XIVTED_clean_linker_0, # of connection points: 2
#     Edge 40, Type (0, 1), BuildingBlock: XIVTED_clean_linker_0, # of connection points: 2
#     Edge 41, Type (0, 1), BuildingBlock: XIVTED_clean_linker_0, # of connection points: 2
#     Edge 42, Type (0, 1), BuildingBlock: XIVTED_clean_linker_0, # of connection points: 2
#     Edge 43, Type (0, 1), BuildingBlock: XIVTED_clean_linker_0, # of connection points: 2
#     Edge 44, Type (0, 1), BuildingBlock: XIVTED_clean_linker_0, # of connection points: 2
#     Edge 45, Type (0, 1), BuildingBlock: XIVTED_clean_linker_0, # of connection points: 2
#     Edge 46, Type (0, 1), BuildingBlock: XIVTED_clean_linker_0, # of connection points: 2
#     Edge 47, Type (0, 1), BuildingBlock: XIVTED_clean_linker_0, # of connection points: 2
#     Edge 48, Type (0, 1), BuildingBlock: XIVTED_clean_linker_0, # of connection points: 2
#     Edge 49, Type (0, 1), BuildingBlock: XIVTED_clean_linker_0, # of connection points: 2
#     Edge 50, Type (0, 1), BuildingBlock: XIVTED_clean_linker_0, # of connection points: 2
#     Edge 51, Type (0, 1), BuildingBlock: XIVTED_clean_linker_0, # of connection points: 2
#     Edge 52, Type (0, 1), BuildingBlock: XIVTED_clean_linker_0, # of connection points: 2
#     Edge 53, Type (0, 1), BuildingBlock: XIVTED_clean_linker_0, # of connection points: 2
#     Edge 54, Type (0, 1), BuildingBlock: XIVTED_clean_linker_0, # of connection points: 2
#     Edge 55, Type (0, 1), BuildingBlock: XIVTED_clean_linker_0, # of connection points: 2
#     Edge 56, Type (0, 1), BuildingBlock: XIVTED_clean_linker_0, # of connection points: 2
#     Edge 57, Type (0, 1), BuildingBlock: XIVTED_clean_linker_0, # of connection points: 2
#     Edge 58, Type (0, 1), BuildingBlock: XIVTED_clean_linker_0, # of connection points: 2
#     Edge 59, Type (0, 1), BuildingBlock: XIVTED_clean_linker_0, # of connection points: 2
#     Edge 60, Type (0, 1), BuildingBlock: XIVTED_clean_linker_0, # of connection points: 2
#     Edge 61, Type (0, 1), BuildingBlock: XIVTED_clean_linker_0, # of connection points: 2
#     Edge 62, Type (0, 1), BuildingBlock: XIVTED_clean_linker_0, # of connection points: 2
#     Edge 63, Type (0, 1), BuildingBlock: XIVTED_clean_linker_0, # of connection points: 2
#     Edge 64, Type (0, 1), BuildingBlock: XIVTED_clean_linker_0, # of connection points: 2
#     Edge 65, Type (0, 1), BuildingBlock: XIVTED_clean_linker_0, # of connection points: 2
#     Edge 66, Type (0, 1), BuildingBlock: XIVTED_clean_linker_0, # of connection points: 2
#     Edge 67, Type (0, 1), BuildingBlock: XIVTED_clean_linker_0, # of connection points: 2
#     Edge 68, Type (0, 1), BuildingBlock: XIVTED_clean_linker_0, # of connection points: 2
#     Edge 69, Type (0, 1), BuildingBlock: XIVTED_clean_linker_0, # of connection points: 2
#     Edge 70, Type (0, 1), BuildingBlock: XIVTED_clean_linker_0, # of connection points: 2
#     Edge 71, Type (0, 1), BuildingBlock: XIVTED_clean_linker_0, # of connection points: 2
#     Edge 72, Type (0, 1), BuildingBlock: XIVTED_clean_linker_0, # of connection points: 2
#     Edge 73, Type (0, 1), BuildingBlock: XIVTED_clean_linker_0, # of connection points: 2
#     Edge 74, Type (0, 1), BuildingBlock: XIVTED_clean_linker_0, # of connection points: 2
#     Edge 75, Type (0, 1), BuildingBlock: XIVTED_clean_linker_0, # of connection points: 2
# Relax obj value: 0.049
# Max RMSD: 0.160
# Mean RMSD: 0.100
data_MOF--net-ctn--node1-NAHDIM_clean_sbu_0--node2-BETDAH_clean_linker_0--edge1-XIVTED_clean_linker_0
_symmetry_space_group_name_H-M    P1
_symmetry_Int_Tables_number       1
_symmetry_cell_setting            triclinic
loop_
_symmetry_equiv_pos_as_xyz
'x, y, z'
_cell_length_a     54.071272
_cell_length_b     54.234365
_cell_length_c     54.536065
_cell_angle_alpha  100.05614
_cell_angle_beta   90.413788
_cell_angle_gamma 96.925922
loop_
_atom_site_label
_atom_site_type_symbol
_atom_site_fract_x
_atom_site_fract_y
_atom_site_fract_z
_atom_type_partial_charge
H0 H 0.05283 0.01069 0.1133 0.0
H1 H 0.05649 0.04854 0.04997 0.0
H2 H 0.0024 0.06461 0.1059 0.0
C3 C 0.04615 0.02409 0.10304 0.0
C4 C 0.02655 0.03736 0.11253 0.0
C5 C 0.05717 0.02797 0.08049 0.0
C6 C 0.04804 0.04523 0.06723 0.0
C7 C 0.02826 0.05846 0.0765 0.0
C8 C 0.01779 0.05449 0.09906 0.0
N9 N 0.01824 0.07589 0.06378 0.0
C10 C 0.02646 0.082 0.04126 0.0
H11 H 0.33857 0.70103 0.24739 0.0
H12 H 0.37851 0.75679 0.21043 0.0
H13 H 0.30372 0.72585 0.18623 0.0
C14 C 0.33925 0.71291 0.2333 0.0
C15 C 0.31854 0.71131 0.21705 0.0
C16 C 0.36095 0.72939 0.23129 0.0
C17 C 0.36175 0.74435 0.21269 0.0
C18 C 0.34122 0.74347 0.19669 0.0
C19 C 0.31955 0.72689 0.19883 0.0
N20 N 0.34358 0.75904 0.17825 0.0
C21 C 0.32392 0.76611 0.16563 0.0
H22 H 0.04709 0.43076 0.04031 0.0
H23 H 0.01822 0.50166 0.04112 0.0
H24 H 0.02076 0.44986 0.97232 0.0
C25 C 0.03844 0.44356 0.03072 0.0
C26 C 0.03411 0.43721 0.00486 0.0
C27 C 0.03313 0.46692 0.04401 0.0
C28 C 0.02243 0.48362 0.03117 0.0
C29 C 0.01799 0.47732 0.00526 0.0
C30 C 0.02422 0.45444 0.9923 0.0
N31 N 0.00844 0.49401 0.99137 0.0
C32 C 0.99078 0.5098 0.99992 0.0
H33 H 0.80245 0.80235 0.2 0.0
H34 H 0.77911 0.72978 0.2197 0.0
H35 H 0.78692 0.79589 0.27629 0.0
C36 C 0.7962 0.79107 0.21385 0.0
C37 C 0.79537 0.80258 0.23902 0.0
C38 C 0.79042 0.7648 0.20665 0.0
C39 C 0.78361 0.75007 0.22485 0.0
C40 C 0.78218 0.76134 0.24977 0.0
C41 C 0.78793 0.78748 0.25684 0.0
N42 N 0.77606 0.74608 0.26787 0.0
C43 C 0.75232 0.74392 0.27729 0.0
H44 H 0.0797 0.01876 0.46687 0.0
H45 H 0.10277 0.01644 0.54204 0.0
H46 H 0.03073 0.98002 0.51349 0.0
C47 C 0.07614 0.01262 0.48455 0.0
C48 C 0.05316 0.99875 0.48793 0.0
C49 C 0.09424 0.01917 0.5039 0.0
C50 C 0.08922 0.01121 0.5267 0.0
C51 C 0.06672 0.99667 0.53012 0.0
C52 C 0.04851 0.9906 0.51074 0.0
N53 N 0.06273 0.98946 0.55368 0.0
C54 C 0.04803 0.96766 0.55736 0.0
H55 H 0.26351 0.72646 0.84095 0.0
H56 H 0.19653 0.74112 0.80598 0.0
H57 H 0.2321 0.67601 0.77561 0.0
C58 C 0.24918 0.72122 0.82633 0.0
C59 C 0.25011 0.69941 0.8085 0.0
C60 C 0.23004 0.73643 0.82548 0.0
C61 C 0.21134 0.72944 0.80664 0.0
C62 C 0.21223 0.70764 0.78846 0.0
C63 C 0.23164 0.69287 0.78951 0.0
N64 N 0.1941 0.69983 0.7688 0.0
C65 C 0.17416 0.71266 0.76459 0.0
H66 H 0.94315 0.5541 0.51941 0.0
H67 H 0.00646 0.56633 0.47339 0.0
H68 H 0.96333 0.49338 0.46457 0.0
C69 C 0.95498 0.54726 0.50442 0.0
C70 C 0.95051 0.52192 0.49263 0.0
C71 C 0.97517 0.56353 0.49777 0.0
C72 C 0.99093 0.55406 0.4788 0.0
C73 C 0.98661 0.52863 0.46697 0.0
C74 C 0.96659 0.51284 0.47406 0.0
N75 N 0.00205 0.51783 0.44814 0.0
C76 C 0.01973 0.53099 0.43532 0.0
H77 H 0.82016 0.75617 0.80858 0.0
H78 H 0.78644 0.81425 0.78062 0.0
H79 H 0.75195 0.77976 0.83897 0.0
C80 C 0.80561 0.76836 0.80922 0.0
C81 C 0.78624 0.76597 0.82599 0.0
C82 C 0.80589 0.78564 0.79267 0.0
C83 C 0.78637 0.80077 0.79312 0.0
C84 C 0.76686 0.79848 0.80983 0.0
C85 C 0.76693 0.78108 0.82598 0.0
N86 N 0.74663 0.81305 0.81105 0.0
C87 C 0.74501 0.83355 0.79923 0.0
H88 H 0.3435 0.287 0.32473 0.0
H89 H 0.30666 0.32869 0.27805 0.0
H90 H 0.26679 0.29846 0.33612 0.0
C91 C 0.32705 0.29486 0.31976 0.0
C92 C 0.30526 0.29145 0.33327 0.0
C93 C 0.32774 0.30809 0.29969 0.0
C94 C 0.30636 0.31847 0.29346 0.0
C95 C 0.28445 0.31514 0.30687 0.0
C96 C 0.28398 0.30139 0.32635 0.0
N97 N 0.26212 0.32433 0.30078 0.0
C98 C 0.26085 0.34558 0.29001 0.0
H99 H 0.52277 0.93102 0.55041 0.0
H100 H 0.48994 1.00034 0.55443 0.0
H101 H 0.47979 0.9437 0.4884 0.0
C102 C 0.51162 0.94296 0.54223 0.0
C103 C 0.50118 0.93425 0.51821 0.0
C104 C 0.50769 0.96678 0.5557 0.0
C105 C 0.49334 0.98207 0.5444 0.0
C106 C 0.48346 0.97369 0.52 0.0
C107 C 0.48746 0.94994 0.5072 0.0
N108 N 0.46977 0.98857 0.5073 0.0
C109 C 0.45936 0.00986 0.51823 0.0
H110 H 0.29997 0.34622 0.69354 0.0
H111 H 0.23198 0.29963 0.70479 0.0
H112 H 0.25039 0.37241 0.75074 0.0
C113 C 0.28274 0.34328 0.70324 0.0
C114 C 0.27717 0.36198 0.72286 0.0
C115 C 0.2665 0.32075 0.69626 0.0
C116 C 0.24488 0.31668 0.71004 0.0
C117 C 0.23926 0.33536 0.72983 0.0
C118 C 0.25523 0.35792 0.73585 0.0
N119 N 0.21713 0.33278 0.74339 0.0
C120 C 0.20446 0.30996 0.74708 0.0
H121 H 0.83432 0.18493 0.75769 0.0
H122 H 0.87538 0.23873 0.71929 0.0
H123 H 0.8012 0.20709 0.69394 0.0
C124 C 0.83552 0.19575 0.74272 0.0
C125 C 0.81517 0.19349 0.72582 0.0
C126 C 0.85726 0.21218 0.74074 0.0
C127 C 0.85851 0.22646 0.72159 0.0
C128 C 0.83826 0.2252 0.70517 0.0
C129 C 0.8165 0.20876 0.7073 0.0
N130 N 0.84114 0.23989 0.68605 0.0
C131 C 0.82185 0.24872 0.67451 0.0
H132 H 0.57402 0.51885 0.6055 0.0
H133 H 0.56755 0.53332 0.5306 0.0
H134 H 0.514 0.55693 0.58458 0.0
C135 C 0.5643 0.52637 0.59156 0.0
C136 C 0.54315 0.53842 0.59819 0.0
C137 C 0.57319 0.52414 0.56717 0.0
C138 C 0.56116 0.53511 0.54954 0.0
C139 C 0.53984 0.54702 0.556 0.0
C140 C 0.53083 0.54827 0.58007 0.0
N141 N 0.52608 0.5567 0.53843 0.0
C142 C 0.53665 0.56786 0.51931 0.0
H143 H 0.58069 0.53054 0.97038 0.0
H144 H 0.58563 0.49771 0.03657 0.0
H145 H 0.5145 0.49709 0.00097 0.0
C146 C 0.57189 0.52075 0.98434 0.0
C147 C 0.54598 0.51394 0.98292 0.0
C148 C 0.58647 0.51515 0.0037 0.0
C149 C 0.57471 0.50228 0.02163 0.0
C150 C 0.5487 0.49581 0.02054 0.0
C151 C 0.53456 0.50193 0.00143 0.0
N152 N 0.5359 0.48395 0.03878 0.0
C153 C 0.54575 0.46735 0.05176 0.0
H154 H 0.76796 0.20853 0.35296 0.0
H155 H 0.71559 0.23723 0.30875 0.0
H156 H 0.74929 0.17135 0.27769 0.0
C157 C 0.7573 0.20704 0.33574 0.0
C158 C 0.76046 0.18762 0.31577 0.0
C159 C 0.7413 0.22515 0.33334 0.0
C160 C 0.7281 0.22347 0.31065 0.0
C161 C 0.73101 0.20399 0.29056 0.0
C162 C 0.74729 0.18638 0.29322 0.0
N163 N 0.71799 0.20145 0.26738 0.0
C164 C 0.69901 0.2154 0.26296 0.0
H165 H 0.43553 0.06852 0.02354 0.0
H166 H 0.48429 0.09 0.96666 0.0
H167 H 0.42602 0.02804 0.94828 0.0
C168 C 0.44162 0.06534 0.00448 0.0
C169 C 0.42856 0.04602 0.98698 0.0
C170 C 0.46162 0.08145 0.99736 0.0
C171 C 0.46897 0.07768 0.97238 0.0
C172 C 0.45604 0.05829 0.95473 0.0
C173 C 0.4358 0.0429 0.96208 0.0
N174 N 0.46207 0.05424 0.92919 0.0
C175 C 0.48573 0.05945 0.92012 0.0
C176 C 0.19477 0.92495 0.02148 0.0
O177 O 0.20058 0.92139 0.99788 0.0
O178 O 0.22797 0.87413 0.99243 0.0
Zn179 Zn 0.23651 0.89753 0.02531 0.0
O180 O 0.26513 0.92345 0.01981 0.0
C181 C 0.24087 0.8538 0.04881 0.0
O182 O 0.22798 0.84152 0.02897 0.0
O183 O 0.20735 0.91596 0.03684 0.0
C184 C 0.28443 0.92982 0.03401 0.0
O185 O 0.28615 0.91965 0.05403 0.0
C186 C 0.24589 0.86882 0.97831 0.0
O187 O 0.26872 0.87844 0.98581 0.0
O188 O 0.24637 0.87761 0.05125 0.0
C189 C 0.19454 0.50136 0.25958 0.0
O190 O 0.20689 0.52363 0.26809 0.0
O191 O 0.13325 0.53738 0.27938 0.0
Zn192 Zn 0.15502 0.53095 0.24948 0.0
O193 O 0.18009 0.5616 0.24834 0.0
C194 C 0.11654 0.50577 0.21294 0.0
O195 O 0.11344 0.48939 0.22813 0.0
O196 O 0.17245 0.50004 0.25079 0.0
C197 C 0.18877 0.56519 0.22745 0.0
O198 O 0.18161 0.54859 0.20736 0.0
C199 C 0.14175 0.54064 0.30167 0.0
O200 O 0.16566 0.54012 0.30564 0.0
O201 O 0.13306 0.52478 0.21834 0.0
C202 C 0.84041 0.60071 0.00929 0.0
O203 O 0.82674 0.60246 0.02919 0.0
O204 O 0.80471 0.65003 0.96521 0.0
Zn205 Zn 0.80416 0.62969 0.99309 0.0
O206 O 0.77221 0.60559 0.99127 0.0
C207 C 0.79375 0.67163 0.03115 0.0
O208 O 0.77868 0.67625 0.01396 0.0
O209 O 0.8341 0.61057 0.99103 0.0
C210 C 0.76182 0.60061 0.011 0.0
O211 O 0.77245 0.61073 0.03274 0.0
C212 C 0.78488 0.65271 0.9538 0.0
O213 O 0.76341 0.6418 0.96009 0.0
O214 O 0.80646 0.65325 0.02611 0.0
C215 C 0.87166 0.05503 0.33105 0.0
O216 O 0.86831 0.04063 0.34807 0.0
O217 O 0.92869 0.02235 0.34317 0.0
Zn218 Zn 0.90886 0.02207 0.31153 0.0
O219 O 0.88682 0.98894 0.30403 0.0
C220 C 0.93766 0.00684 0.26744 0.0
O221 O 0.92893 0.98383 0.27017 0.0
O222 O 0.88787 0.05065 0.31462 0.0
C223 C 0.87154 0.98283 0.28554 0.0
O224 O 0.86932 0.99898 0.27053 0.0
C225 C 0.94083 0.0037 0.3434 0.0
O226 O 0.94014 0.98622 0.32335 0.0
O227 O 0.93194 0.02551 0.28297 0.0
C228 C 0.33353 0.12884 0.52629 0.0
O229 O 0.31534 0.12783 0.54208 0.0
O230 O 0.30418 0.17771 0.47684 0.0
Zn231 Zn 0.30101 0.15803 0.50543 0.0
O232 O 0.27107 0.13138 0.50004 0.0
C233 C 0.31025 0.20163 0.54491 0.0
O234 O 0.3287 0.2082 0.5309 0.0
O235 O 0.33178 0.1411 0.50863 0.0
C236 C 0.25089 0.13477 0.48974 0.0
O237 O 0.24973 0.1558 0.48119 0.0
C238 C 0.29372 0.19759 0.47732 0.0
O239 O 0.2805 0.20537 0.49662 0.0
O240 O 0.29623 0.18105 0.53778 0.0
C241 C 0.38745 0.59244 0.81922 0.0
O242 O 0.38581 0.57641 0.83481 0.0
O243 O 0.44358 0.56036 0.83044 0.0
Zn244 Zn 0.42469 0.56223 0.79867 0.0
O245 O 0.40088 0.53056 0.78854 0.0
C246 C 0.46012 0.54658 0.76246 0.0
O247 O 0.45691 0.52628 0.77272 0.0
O248 O 0.40391 0.59091 0.8027 0.0
C249 C 0.39194 0.52393 0.76645 0.0
O250 O 0.39825 0.53819 0.74979 0.0
C251 C 0.44401 0.53883 0.8366 0.0
O252 O 0.432 0.51883 0.82245 0.0
O253 O 0.44856 0.56518 0.77095 0.0
C254 C 0.71799 0.42488 0.52971 0.0
O255 O 0.73571 0.43237 0.51534 0.0
O256 O 0.74433 0.36066 0.50221 0.0
Zn257 Zn 0.75005 0.38687 0.53345 0.0
O258 O 0.78022 0.41148 0.52953 0.0
C259 C 0.74712 0.34635 0.56183 0.0
O260 O 0.73232 0.33477 0.54305 0.0
O261 O 0.71999 0.40562 0.53963 0.0
C262 C 0.80157 0.40408 0.52634 0.0
O263 O 0.80379 0.38013 0.52581 0.0
C264 C 0.74621 0.3656 0.48032 0.0
O265 O 0.75188 0.38912 0.47733 0.0
O266 O 0.75646 0.3691 0.56215 0.0
C267 C 0.68061 0.98959 0.76763 0.0
O268 O 0.69115 0.01198 0.77848 0.0
O269 O 0.62257 0.02635 0.78442 0.0
Zn270 Zn 0.64286 0.01869 0.75352 0.0
O271 O 0.66962 0.04766 0.75062 0.0
C272 C 0.60187 0.02221 0.71905 0.0
O273 O 0.5973 0.0416 0.7357 0.0
O274 O 0.65986 0.98781 0.7559 0.0
C275 C 0.6669 0.06597 0.73951 0.0
O276 O 0.64517 0.06724 0.72924 0.0
C277 C 0.61755 0.04816 0.79425 0.0
O278 O 0.62612 0.06775 0.78429 0.0
O279 O 0.61992 0.01016 0.72285 0.0
C280 C 0.03954 0.17121 0.89745 0.0
O281 O 0.02324 0.16521 0.87873 0.0
O282 O 0.01745 0.2128 0.85957 0.0
Zn283 Zn 0.04998 0.21924 0.87965 0.0
O284 O 0.05023 0.25253 0.90327 0.0
C285 C 0.07721 0.21565 0.83328 0.0
O286 O 0.05552 0.20561 0.82283 0.0
O287 O 0.05287 0.19254 0.90067 0.0
C288 C 0.06287 0.27279 0.89946 0.0
O289 O 0.07671 0.27223 0.87972 0.0
C290 C 0.01073 0.23115 0.85058 0.0
O291 O 0.02514 0.25284 0.85452 0.0
O292 O 0.07918 0.22178 0.85688 0.0
C293 C 0.56075 0.69823 0.41247 0.0
O294 O 0.57931 0.7166 0.41638 0.0
O295 O 0.51483 0.7251 0.35592 0.0
Zn296 Zn 0.54323 0.73016 0.38119 0.0
O297 O 0.53978 0.76094 0.40695 0.0
C298 C 0.58388 0.7184 0.34924 0.0
O299 O 0.57053 0.69613 0.34438 0.0
O300 O 0.54282 0.69977 0.39782 0.0
C301 C 0.51853 0.76535 0.41516 0.0
O302 O 0.49886 0.74916 0.40716 0.0
C303 C 0.5102 0.74381 0.34626 0.0
O304 O 0.52439 0.76547 0.35265 0.0
O305 O 0.57579 0.73598 0.36438 0.0
C306 C 0.99394 0.80452 0.61257 0.0
O307 O 0.98672 0.78355 0.5969 0.0
O308 O 0.96283 0.77419 0.67383 0.0
Zn309 Zn 0.99161 0.77185 0.65038 0.0
O310 O 0.98481 0.74078 0.62343 0.0
C311 C 0.0216 0.75674 0.68795 0.0
O312 O 0.99981 0.74616 0.69382 0.0
O313 O 0.99703 0.80372 0.63556 0.0
C314 C 0.00294 0.73134 0.61217 0.0
O315 O 0.02574 0.74228 0.61802 0.0
C316 C 0.94158 0.77913 0.66739 0.0
O317 O 0.9378 0.78252 0.64446 0.0
O318 O 0.02274 0.76899 0.67003 0.0
C319 C 0.53874 0.31442 0.12847 0.0
O320 O 0.54686 0.2936 0.11722 0.0
O321 O 0.48232 0.2847 0.17846 0.0
Zn322 Zn 0.51408 0.28107 0.15942 0.0
O323 O 0.50764 0.2524 0.12999 0.0
C324 C 0.56118 0.28692 0.18846 0.0
O325 O 0.56532 0.30903 0.18154 0.0
O326 O 0.52477 0.31359 0.14704 0.0
C327 C 0.50872 0.22988 0.13321 0.0
O328 O 0.51351 0.2258 0.15572 0.0
C329 C 0.48301 0.29722 0.20052 0.0
O330 O 0.50468 0.30747 0.2109 0.0
O331 O 0.54094 0.27278 0.18161 0.0
H332 H 0.26864 0.77341 0.83914 0.0
H333 H 0.20203 0.84107 0.95859 0.0
H334 H 0.19198 0.75167 0.8553 0.0
H335 H 0.27971 0.85769 0.94252 0.0
H336 H 0.19619 0.81149 0.91886 0.0
H337 H 0.27105 0.80805 0.87449 0.0
C338 C 0.25223 0.77614 0.85008 0.0
C339 C 0.23017 0.75954 0.84453 0.0
C340 C 0.21445 0.82175 0.92401 0.0
C341 C 0.2328 0.79906 0.88528 0.0
C342 C 0.21781 0.83862 0.94667 0.0
C343 C 0.24145 0.85172 0.95399 0.0
C344 C 0.23487 0.81807 0.90858 0.0
C345 C 0.2612 0.84787 0.93779 0.0
C346 C 0.25359 0.7959 0.87029 0.0
C347 C 0.20933 0.7641 0.85903 0.0
N348 N 0.25747 0.83137 0.91596 0.0
N349 N 0.21122 0.78329 0.87899 0.0
H350 H 0.01057 0.54476 0.39137 0.0
H351 H 0.15284 0.54391 0.35139 0.0
H352 H 0.06986 0.53506 0.44061 0.0
H353 H 0.0917 0.54462 0.30028 0.0
H354 H 0.12384 0.54667 0.3857 0.0
H355 H 0.04116 0.55139 0.35943 0.0
C356 C 0.03017 0.54463 0.39557 0.0
C357 C 0.03792 0.5396 0.41852 0.0
C358 C 0.1168 0.54638 0.367 0.0
C359 C 0.07287 0.54649 0.38211 0.0
C360 C 0.13335 0.54481 0.34738 0.0
C361 C 0.12468 0.54381 0.32285 0.0
C362 C 0.09136 0.54703 0.3621 0.0
C363 C 0.09922 0.54514 0.31884 0.0
C364 C 0.04759 0.54821 0.37733 0.0
C365 C 0.06333 0.53915 0.4231 0.0
N366 N 0.08347 0.54657 0.33822 0.0
N367 N 0.07995 0.54236 0.40496 0.0
H368 H 0.74657 0.73495 0.83925 0.0
H369 H 0.82576 0.6796 0.93721 0.0
H370 H 0.82569 0.7557 0.85299 0.0
H371 H 0.7461 0.66177 0.92543 0.0
H372 H 0.82652 0.70616 0.90523 0.0
H373 H 0.74644 0.70676 0.8696 0.0
C374 C 0.76392 0.73364 0.8487 0.0
C375 C 0.78615 0.74787 0.84363 0.0
C376 C 0.80889 0.6964 0.90961 0.0
C377 C 0.78618 0.71535 0.87835 0.0
C378 C 0.80843 0.6812 0.92787 0.0
C379 C 0.78582 0.66845 0.93408 0.0
C380 C 0.78657 0.69887 0.89742 0.0
C381 C 0.76397 0.67126 0.92132 0.0
C382 C 0.76385 0.71743 0.86596 0.0
C383 C 0.80815 0.74497 0.85612 0.0
N384 N 0.76489 0.68618 0.90366 0.0
N385 N 0.80759 0.72912 0.87295 0.0
H386 H 0.05649 0.97503 0.44003 0.0
H387 H 0.94028 0.03099 0.39085 0.0
H388 H 0.00675 0.01385 0.49001 0.0
H389 H 0.97478 0.97101 0.34677 0.0
H390 H 0.96531 0.02663 0.4272 0.0
H391 H 0.02731 0.97422 0.40528 0.0
C392 C 0.03916 0.98298 0.44366 0.0
C393 C 0.03386 0.9944 0.4678 0.0
C394 C 0.96724 0.01434 0.40958 0.0
C395 C 0.00075 0.99421 0.4282 0.0
C396 C 0.95309 0.01692 0.38881 0.0
C397 C 0.95553 0.00142 0.36571 0.0
C398 C 0.98417 0.99638 0.40711 0.0
C399 C 0.9723 0.9834 0.36418 0.0
C400 C 0.02256 0.98259 0.42388 0.0
C401 C 0.01131 0.00465 0.47164 0.0
N402 N 0.9861 0.98152 0.38452 0.0
N403 N 0.99568 0.00464 0.45195 0.0
H404 H 0.25911 0.26866 0.68928 0.0
H405 H 0.32876 0.2512 0.55996 0.0
H406 H 0.28634 0.33047 0.65237 0.0
H407 H 0.27904 0.19104 0.58209 0.0
H408 H 0.3179 0.2797 0.59704 0.0
H409 H 0.26986 0.23901 0.65274 0.0
C410 C 0.26721 0.27603 0.67353 0.0
C411 C 0.27205 0.30218 0.6741 0.0
C412 C 0.30938 0.26025 0.59378 0.0
C413 C 0.2848 0.26838 0.63255 0.0
C414 C 0.31568 0.24394 0.57269 0.0
C415 C 0.30472 0.21873 0.56788 0.0
C416 C 0.29224 0.25125 0.61037 0.0
C417 C 0.28782 0.21038 0.58503 0.0
C418 C 0.27345 0.2591 0.65276 0.0
C419 C 0.28282 0.31055 0.65316 0.0
N420 N 0.28212 0.2266 0.60557 0.0
N421 N 0.28895 0.29375 0.63337 0.0
H422 H 0.53903 0.50221 0.62786 0.0
H423 H 0.46977 0.58498 0.73591 0.0
H424 H 0.52527 0.57879 0.62685 0.0
H425 H 0.48472 0.50887 0.73768 0.0
H426 H 0.49223 0.58393 0.69713 0.0
H427 H 0.52149 0.50516 0.66927 0.0
C428 C 0.53255 0.51974 0.63644 0.0
C429 C 0.53352 0.54025 0.62379 0.0
C430 C 0.49072 0.56751 0.70607 0.0
C431 C 0.51312 0.54365 0.67111 0.0
C432 C 0.47791 0.5681 0.72824 0.0
C433 C 0.47522 0.54693 0.74 0.0
C434 C 0.50087 0.54555 0.6955 0.0
C435 C 0.48624 0.52561 0.72922 0.0
C436 C 0.52241 0.52136 0.66005 0.0
C437 C 0.52452 0.56237 0.63573 0.0
N438 N 0.49845 0.52541 0.70751 0.0
N439 N 0.51463 0.56345 0.65866 0.0
H440 H 0.78939 0.22872 0.63597 0.0
H441 H 0.77488 0.3649 0.60479 0.0
H442 H 0.81906 0.29845 0.68299 0.0
H443 H 0.73609 0.29593 0.56308 0.0
H444 H 0.78931 0.34091 0.63487 0.0
H445 H 0.76743 0.25275 0.61032 0.0
C446 C 0.79082 0.24908 0.64109 0.0
C447 C 0.80579 0.26179 0.66151 0.0
C448 C 0.77747 0.33103 0.61926 0.0
C449 C 0.78143 0.28934 0.63225 0.0
C450 C 0.76925 0.34474 0.60204 0.0
C451 C 0.75439 0.33241 0.58127 0.0
C452 C 0.771 0.30472 0.6156 0.0
C453 C 0.74759 0.30623 0.57876 0.0
C454 C 0.77843 0.26279 0.62646 0.0
C455 C 0.80748 0.2881 0.66737 0.0
N456 N 0.75614 0.29323 0.59558 0.0
N457 N 0.79562 0.30106 0.65268 0.0
H458 H 0.51398 0.93855 0.59208 0.0
H459 H 0.57409 0.05132 0.69643 0.0
H460 H 0.52708 0.01501 0.57812 0.0
H461 H 0.59466 0.97598 0.68887 0.0
H462 H 0.54937 0.03845 0.65732 0.0
H463 H 0.53605 0.95227 0.63219 0.0
C464 C 0.52153 0.95821 0.5973 0.0
C465 C 0.51898 0.97551 0.58128 0.0
C466 C 0.55929 0.02479 0.66432 0.0
C467 C 0.54362 0.99141 0.62775 0.0
C468 C 0.57328 0.03206 0.68662 0.0
C469 C 0.58649 0.01469 0.69583 0.0
C470 C 0.55805 0.99986 0.65151 0.0
C471 C 0.58489 0.99 0.68234 0.0
C472 C 0.534 0.96601 0.62031 0.0
C473 C 0.5284 1.00095 0.58976 0.0
N474 N 0.5708 0.98327 0.66095 0.0
N475 N 0.54032 0.00814 0.61241 0.0
H476 H 0.87676 0.17439 0.75936 0.0
H477 H 0.99018 0.26773 0.83186 0.0
H478 H 0.88687 0.25507 0.7625 0.0
H479 H 0.978 0.18819 0.83494 0.0
H480 H 0.95217 0.26305 0.80643 0.0
H481 H 0.91327 0.17869 0.78732 0.0
C482 C 0.88652 0.19303 0.76608 0.0
C483 C 0.8788 0.2144 0.75844 0.0
C484 C 0.95772 0.24659 0.81269 0.0
C485 C 0.92075 0.21939 0.79018 0.0
C486 C 0.9795 0.24924 0.82721 0.0
C487 C 0.98736 0.2283 0.83552 0.0
C488 C 0.94363 0.22278 0.80624 0.0
C489 C 0.97265 0.20484 0.82893 0.0
C490 C 0.90744 0.19544 0.78193 0.0
C491 C 0.89236 0.23802 0.76751 0.0
N492 N 0.95151 0.20269 0.8146 0.0
N493 N 0.91267 0.23985 0.78281 0.0
H494 H 0.54383 0.91121 0.51272 0.0
H495 H 0.47537 0.78368 0.43115 0.0
H496 H 0.46538 0.89908 0.49286 0.0
H497 H 0.55541 0.80138 0.43802 0.0
H498 H 0.47115 0.82408 0.45765 0.0
H499 H 0.54821 0.86916 0.48924 0.0
C500 C 0.52752 0.89962 0.50355 0.0
C501 C 0.50423 0.90866 0.50461 0.0
C502 C 0.48964 0.81911 0.45342 0.0
C503 C 0.50908 0.86067 0.47776 0.0
C504 C 0.49207 0.79599 0.43834 0.0
C505 C 0.51578 0.78917 0.43226 0.0
C506 C 0.51107 0.83551 0.46262 0.0
C507 C 0.53676 0.80591 0.44214 0.0
C508 C 0.53004 0.87571 0.49006 0.0
C509 C 0.48373 0.89297 0.49223 0.0
N510 N 0.53391 0.82833 0.45681 0.0
N511 N 0.48663 0.86976 0.47934 0.0
H512 H 0.21429 0.28928 0.78679 0.0
H513 H 0.07692 0.21471 0.78285 0.0
H514 H 0.16069 0.28495 0.72693 0.0
H515 H 0.12546 0.23342 0.84836 0.0
H516 H 0.11054 0.23206 0.75865 0.0
H517 H 0.18523 0.26026 0.80577 0.0
C518 C 0.19657 0.28165 0.77739 0.0
C519 C 0.1897 0.28924 0.75537 0.0
C520 C 0.1139 0.23208 0.77826 0.0
C521 C 0.15628 0.25668 0.77703 0.0
C522 C 0.09475 0.22212 0.79208 0.0
C523 C 0.09828 0.2229 0.81775 0.0
C524 C 0.13678 0.24277 0.79015 0.0
C525 C 0.1218 0.23267 0.82868 0.0
C526 C 0.17995 0.26527 0.78826 0.0
C527 C 0.16655 0.27928 0.74392 0.0
N528 N 0.14008 0.24239 0.81487 0.0
N529 N 0.15049 0.26362 0.75502 0.0
H530 H 0.51414 0.5646 0.47455 0.0
H531 H 0.59377 0.6912 0.44823 0.0
H532 H 0.5753 0.60485 0.52193 0.0
H533 H 0.52652 0.65592 0.407 0.0
H534 H 0.5911 0.6565 0.47168 0.0
H535 H 0.52254 0.59428 0.44559 0.0
C536 C 0.52969 0.57945 0.47849 0.0
C537 C 0.54419 0.58241 0.50037 0.0
C538 C 0.57702 0.65628 0.4574 0.0
C539 C 0.55361 0.61664 0.46789 0.0
C540 C 0.57852 0.67609 0.44398 0.0
C541 C 0.5602 0.67661 0.42577 0.0
C542 C 0.55709 0.63679 0.45253 0.0
C543 C 0.54095 0.65643 0.42101 0.0
C544 C 0.53438 0.59647 0.46212 0.0
C545 C 0.56387 0.60201 0.50504 0.0
N546 N 0.53983 0.63742 0.43439 0.0
N547 N 0.56793 0.61856 0.48899 0.0
H548 H 0.85579 0.78491 0.8012 0.0
H549 H 0.89332 0.78765 0.6597 0.0
H550 H 0.80286 0.79 0.74323 0.0
H551 H 0.94391 0.77567 0.71687 0.0
H552 H 0.86046 0.79108 0.6903 0.0
H553 H 0.88881 0.78429 0.77093 0.0
C554 C 0.85109 0.78589 0.78208 0.0
C555 C 0.82642 0.78728 0.77474 0.0
C556 C 0.87876 0.78773 0.69614 0.0
C557 C 0.86432 0.78676 0.73989 0.0
C558 C 0.89755 0.78576 0.67867 0.0
C559 C 0.92143 0.7813 0.68568 0.0
C560 C 0.88389 0.78531 0.72084 0.0
C561 C 0.92579 0.77905 0.71056 0.0
C562 C 0.87 0.78561 0.7648 0.0
C563 C 0.8216 0.78906 0.74979 0.0
N564 N 0.90723 0.78107 0.7272 0.0
N565 N 0.84034 0.78862 0.73324 0.0
H566 H 0.0337 0.96185 0.60319 0.0
H567 H 0.99465 0.81263 0.56426 0.0
H568 H 0.03553 0.92209 0.52775 0.0
H569 H 0.00479 0.85187 0.64032 0.0
H570 H 0.00464 0.85292 0.54994 0.0
H571 H 0.01769 0.92221 0.61648 0.0
C572 C 0.03032 0.94472 0.58941 0.0
C573 C 0.03572 0.94499 0.56443 0.0
C574 C 0.00459 0.8527 0.56976 0.0
C575 C 0.01787 0.89963 0.57936 0.0
C576 C 0.99886 0.82971 0.57796 0.0
C577 C 0.99903 0.82882 0.60355 0.0
C578 C 0.01038 0.875 0.58726 0.0
C579 C 0.00459 0.85159 0.62042 0.0
C580 C 0.02134 0.92211 0.59697 0.0
C581 C 0.03138 0.92246 0.5472 0.0
N582 N 0.01007 0.87369 0.61198 0.0
N583 N 0.02277 0.90057 0.55501 0.0
H584 H 0.12759 0.7057 0.7817 0.0
H585 H 0.07008 0.77336 0.67882 0.0
H586 H 0.17198 0.74267 0.73028 0.0
H587 H 0.02557 0.73269 0.72773 0.0
H588 H 0.10774 0.7659 0.70003 0.0
H589 H 0.09015 0.71928 0.76509 0.0
C590 C 0.12939 0.71705 0.76715 0.0
C591 C 0.15265 0.72327 0.75731 0.0
C592 C 0.08973 0.75872 0.70621 0.0
C593 C 0.11018 0.73847 0.73794 0.0
C594 C 0.0682 0.76297 0.6941 0.0
C595 C 0.04459 0.7535 0.70138 0.0
C596 C 0.0877 0.74488 0.72577 0.0
C597 C 0.04335 0.74023 0.72136 0.0
C598 C 0.10809 0.72469 0.75759 0.0
C599 C 0.15422 0.7377 0.73835 0.0
N600 N 0.06458 0.73623 0.73277 0.0
N601 N 0.13322 0.74472 0.72914 0.0
H602 H 0.02019 0.59103 0.51402 0.0
H603 H 0.95825 0.70506 0.59346 0.0
H604 H 0.9412 0.5964 0.51302 0.0
H605 H 0.03774 0.70418 0.58775 0.0
H606 H 0.95171 0.66563 0.56335 0.0
H607 H 0.02719 0.63306 0.53982 0.0
C608 C 0.00434 0.60115 0.51892 0.0
C609 C 0.98003 0.59001 0.51146 0.0
C610 C 0.97059 0.67412 0.56858 0.0
C611 C 0.98789 0.63802 0.54142 0.0
C612 C 0.97434 0.69663 0.58583 0.0
C613 C 0.99858 0.70793 0.59325 0.0
C614 C 0.99123 0.66268 0.55876 0.0
C615 C 0.01871 0.69615 0.58264 0.0
C616 C 0.00834 0.6251 0.53382 0.0
C617 C 0.96021 0.60399 0.51871 0.0
N618 N 0.01458 0.67413 0.56606 0.0
N619 N 0.96456 0.62713 0.53339 0.0
H620 H 0.78659 0.84181 0.21551 0.0
H621 H 0.8723 0.94523 0.31287 0.0
H622 H 0.82379 0.82581 0.28023 0.0
H623 H 0.83972 0.96166 0.24593 0.0
H624 H 0.85169 0.90211 0.30266 0.0
H625 H 0.80319 0.88637 0.22763 0.0
C626 C 0.79819 0.84765 0.23228 0.0
C627 C 0.80382 0.82998 0.24685 0.0
C628 C 0.84894 0.91513 0.29022 0.0
C629 C 0.82271 0.88096 0.26089 0.0
C630 C 0.8607 0.93981 0.29606 0.0
C631 C 0.85785 0.95709 0.28016 0.0
C632 C 0.8342 0.90753 0.26828 0.0
C633 C 0.84251 0.94896 0.25868 0.0
C634 C 0.80757 0.87311 0.23924 0.0
C635 C 0.81865 0.83873 0.26858 0.0
N636 N 0.83134 0.92471 0.2533 0.0
N637 N 0.82764 0.86354 0.27486 0.0
H638 H 0.79437 0.16932 0.28248 0.0
H639 H 0.83628 0.07126 0.36391 0.0
H640 H 0.76566 0.16295 0.35502 0.0
H641 H 0.87123 0.08535 0.29593 0.0
H642 H 0.80971 0.10417 0.36087 0.0
H643 H 0.82194 0.13772 0.28677 0.0
C644 C 0.7938 0.16119 0.29928 0.0
C645 C 0.77762 0.16873 0.31838 0.0
C646 C 0.82326 0.1001 0.34668 0.0
C647 C 0.80929 0.1326 0.32352 0.0
C648 C 0.83843 0.0813 0.34839 0.0
C649 C 0.856 0.07548 0.33013 0.0
C650 C 0.82557 0.11306 0.32648 0.0
C651 C 0.85796 0.08916 0.31045 0.0
C652 C 0.80966 0.14325 0.3018 0.0
C653 C 0.77798 0.15783 0.33992 0.0
N654 N 0.84288 0.1072 0.30911 0.0
N655 N 0.79347 0.14025 0.34186 0.0
H656 H 0.42472 0.02481 0.02917 0.0
H657 H 0.28744 0.95315 0.99327 0.0
H658 H 0.38364 0.02928 0.96227 0.0
H659 H 0.32866 0.94743 0.05973 0.0
H660 H 0.32217 0.98185 0.98218 0.0
H661 H 0.38939 0.99735 0.04129 0.0
C662 C 0.40822 0.02014 0.01709 0.0
C663 C 0.40719 0.02936 0.99463 0.0
C664 C 0.32362 0.97437 0.99922 0.0
C665 C 0.36671 0.99772 0.0083 0.0
C666 C 0.30376 0.95798 0.00559 0.0
C667 C 0.30512 0.94781 0.02747 0.0
C668 C 0.34506 0.98071 0.01481 0.0
C669 C 0.32678 0.95478 0.04267 0.0
C670 C 0.3881 0.00434 0.02396 0.0
C671 C 0.38543 0.02236 0.97957 0.0
N672 N 0.3459 0.97076 0.03604 0.0
N673 N 0.36609 0.00699 0.98667 0.0
H674 H 0.28483 0.39307 0.3021 0.0
H675 H 0.17516 0.45226 0.242 0.0
H676 H 0.22266 0.34858 0.25926 0.0
H677 H 0.23983 0.49724 0.28048 0.0
H678 H 0.19348 0.4141 0.24615 0.0
H679 H 0.27029 0.4315 0.29209 0.0
C680 C 0.26838 0.39147 0.29017 0.0
C681 C 0.25495 0.36786 0.28126 0.0
C682 C 0.20375 0.43231 0.25358 0.0
C683 C 0.23788 0.41142 0.27021 0.0
C684 C 0.19326 0.45414 0.25125 0.0
C685 C 0.20589 0.47804 0.26103 0.0
C686 C 0.22702 0.43431 0.2659 0.0
C687 C 0.22936 0.47924 0.27272 0.0
C688 C 0.26 0.41333 0.28457 0.0
C689 C 0.23357 0.36657 0.26626 0.0
N690 N 0.23908 0.45771 0.27496 0.0
N691 N 0.22558 0.38807 0.26132 0.0
H692 H 0.1415 0.01389 0.51924 0.0
H693 H 0.20479 0.1364 0.46952 0.0
H694 H 0.10109 0.06046 0.48092 0.0
H695 H 0.24555 0.09105 0.50905 0.0
H696 H 0.16706 0.10729 0.47152 0.0
H697 H 0.18016 0.04077 0.5142 0.0
C698 C 0.14075 0.02979 0.50982 0.0
C699 C 0.11799 0.03493 0.50051 0.0
C700 C 0.18427 0.10362 0.47967 0.0
C701 C 0.1622 0.06565 0.49449 0.0
C702 C 0.20586 0.12024 0.4785 0.0
C703 C 0.22836 0.11625 0.48925 0.0
C704 C 0.18512 0.08286 0.49173 0.0
C705 C 0.2286 0.09492 0.50057 0.0
C706 C 0.16284 0.04504 0.50682 0.0
C707 C 0.11821 0.05558 0.48812 0.0
N708 N 0.20728 0.0791 0.50162 0.0
N709 N 0.13992 0.0702 0.48555 0.0
H710 H 0.81461 0.14573 0.73598 0.0
H711 H 0.66683 0.10992 0.7211 0.0
H712 H 0.76537 0.19773 0.71862 0.0
H713 H 0.71569 0.06614 0.75346 0.0
H714 H 0.70262 0.14117 0.71737 0.0
H715 H 0.77855 0.11524 0.73965 0.0
C716 C 0.7962 0.15087 0.73313 0.0
C717 C 0.7931 0.17455 0.72727 0.0
C718 C 0.70546 0.12475 0.72533 0.0
C719 C 0.75153 0.13929 0.731 0.0
C720 C 0.68506 0.10687 0.72745 0.0
C721 C 0.68825 0.08534 0.73761 0.0
C722 C 0.72927 0.12098 0.73324 0.0
C723 C 0.71231 0.08244 0.74555 0.0
C724 C 0.77558 0.13333 0.7351 0.0
C725 C 0.76872 0.1797 0.72304 0.0
N726 N 0.73187 0.09999 0.74311 0.0
N727 N 0.74886 0.16223 0.72502 0.0
H728 H 0.42442 0.01546 0.55334 0.0
H729 H 0.37542 0.12848 0.49828 0.0
H730 H 0.46206 0.0512 0.49704 0.0
H731 H 0.34066 0.09693 0.5588 0.0
H732 H 0.4093 0.1028 0.50007 0.0
H733 H 0.3958 0.04778 0.55863 0.0
C734 C 0.42693 0.03052 0.54254 0.0
C735 C 0.44552 0.031 0.52489 0.0
C736 C 0.39437 0.10162 0.5131 0.0
C737 C 0.41274 0.06744 0.53024 0.0
C738 C 0.37497 0.11626 0.51205 0.0
C739 C 0.35503 0.1147 0.52826 0.0
C740 C 0.39378 0.08513 0.53037 0.0
C741 C 0.35557 0.09865 0.54582 0.0
C742 C 0.41056 0.04884 0.54542 0.0
C743 C 0.44795 0.05047 0.51098 0.0
N744 N 0.3745 0.08434 0.54627 0.0
N745 N 0.43158 0.06783 0.51378 0.0
H746 H 0.61297 0.53509 0.53792 0.0
H747 H 0.67748 0.41411 0.55762 0.0
H748 H 0.5814 0.47935 0.58025 0.0
H749 H 0.70871 0.46766 0.51273 0.0
H750 H 0.64196 0.43785 0.56573 0.0
H751 H 0.64791 0.51056 0.52776 0.0
C752 C 0.61331 0.51766 0.54497 0.0
C753 C 0.59433 0.50941 0.56016 0.0
C754 C 0.65655 0.44441 0.55406 0.0
C755 C 0.63428 0.48135 0.54876 0.0
C756 C 0.67687 0.43085 0.54944 0.0
C757 C 0.69615 0.43891 0.53451 0.0
C758 C 0.65545 0.46627 0.54374 0.0
C759 C 0.69429 0.46075 0.52438 0.0
C760 C 0.63331 0.50372 0.53926 0.0
C761 C 0.59584 0.48674 0.56891 0.0
N762 N 0.67433 0.4737 0.52922 0.0
N763 N 0.61545 0.47358 0.56313 0.0
H764 H 0.74107 0.27547 0.33197 0.0
H765 H 0.73637 0.31492 0.48027 0.0
H766 H 0.7364 0.22244 0.38275 0.0
H767 H 0.74863 0.36892 0.43071 0.0
H768 H 0.7327 0.2808 0.44432 0.0
H769 H 0.73995 0.30988 0.36744 0.0
C770 C 0.73954 0.27104 0.35056 0.0
C771 C 0.73897 0.24606 0.35443 0.0
C772 C 0.73612 0.30011 0.44127 0.0
C773 C 0.73791 0.28533 0.39509 0.0
C774 C 0.73821 0.31963 0.46182 0.0
C775 C 0.74295 0.34486 0.45853 0.0
C776 C 0.73877 0.30576 0.41719 0.0
C777 C 0.74507 0.34976 0.43414 0.0
C778 C 0.73907 0.2907 0.3708 0.0
C779 C 0.73725 0.24145 0.37894 0.0
N780 N 0.74304 0.33039 0.4144 0.0
N781 N 0.73685 0.26088 0.39831 0.0
H782 H 0.50658 0.0983 0.8989 0.0
H783 H 0.59997 0.01255 0.82189 0.0
H784 H 0.51576 0.02322 0.91002 0.0
H785 H 0.59742 0.09054 0.81597 0.0
H786 H 0.57086 0.01706 0.85589 0.0
H787 H 0.54173 0.09716 0.87054 0.0
C788 C 0.51641 0.08181 0.8957 0.0
C789 C 0.50861 0.06088 0.90676 0.0
C790 C 0.57677 0.03327 0.84729 0.0
C791 C 0.54819 0.0591 0.87412 0.0
C792 C 0.59339 0.03068 0.8278 0.0
C793 C 0.60105 0.05115 0.8159 0.0
C794 C 0.56752 0.05644 0.85489 0.0
C795 C 0.59197 0.07422 0.82453 0.0
C796 C 0.53633 0.08107 0.87946 0.0
C797 C 0.52149 0.03977 0.90188 0.0
N798 N 0.57554 0.07619 0.84335 0.0
N799 N 0.54054 0.03932 0.88575 0.0
H800 H 0.32554 0.24795 0.33677 0.0
H801 H 0.2742 0.24094 0.47319 0.0
H802 H 0.28335 0.3031 0.37829 0.0
H803 H 0.31827 0.18642 0.43351 0.0
H804 H 0.27757 0.26384 0.43844 0.0
H805 H 0.32355 0.22525 0.37189 0.0
C806 C 0.316 0.25539 0.35332 0.0
C807 C 0.30455 0.27748 0.35452 0.0
C808 C 0.28654 0.24689 0.43729 0.0
C809 C 0.30198 0.2514 0.39472 0.0
C810 C 0.28462 0.23376 0.45717 0.0
C811 C 0.29595 0.21167 0.4563 0.0
C812 C 0.29988 0.23792 0.41627 0.0
C813 C 0.30922 0.20335 0.43501 0.0
C814 C 0.31475 0.24233 0.37331 0.0
C815 C 0.29214 0.28598 0.37633 0.0
N816 N 0.3108 0.21646 0.41583 0.0
N817 N 0.29118 0.27295 0.3955 0.0
H818 H 0.54858 0.55685 0.96208 0.0
H819 H 0.44445 0.49628 0.85668 0.0
H820 H 0.50888 0.48196 0.95575 0.0
H821 H 0.47618 0.57449 0.86732 0.0
H822 H 0.46885 0.49084 0.89256 0.0
H823 H 0.5234 0.56376 0.92689 0.0
C824 C 0.53461 0.54186 0.95325 0.0
C825 C 0.53079 0.5188 0.96188 0.0
C826 C 0.47047 0.50924 0.88715 0.0
C827 C 0.50191 0.5266 0.92177 0.0
C828 C 0.45653 0.51237 0.86659 0.0
C829 C 0.45829 0.53589 0.85893 0.0
C830 C 0.48647 0.52972 0.90017 0.0
C831 C 0.47424 0.55603 0.8726 0.0
C832 C 0.52016 0.54586 0.93328 0.0
C833 C 0.51226 0.50013 0.94994 0.0
N834 N 0.48782 0.55247 0.89253 0.0
N835 N 0.4986 0.50442 0.93048 0.0
H836 H 0.77329 0.77967 0.16474 0.0
H837 H 0.81948 0.66396 0.07191 0.0
H838 H 0.81153 0.7222 0.18861 0.0
H839 H 0.77075 0.71348 0.04847 0.0
H840 H 0.81993 0.68773 0.11421 0.0
H841 H 0.77536 0.75828 0.12144 0.0
C842 C 0.78225 0.76265 0.16084 0.0
C843 C 0.79211 0.75259 0.18028 0.0
C844 C 0.80917 0.69345 0.09983 0.0
C845 C 0.7945 0.72805 0.13094 0.0
C846 C 0.80895 0.67992 0.07562 0.0
C847 C 0.79497 0.68668 0.0566 0.0
C848 C 0.79539 0.714 0.10514 0.0
C849 C 0.78171 0.70755 0.06257 0.0
C850 C 0.78331 0.75039 0.13617 0.0
C851 C 0.80335 0.73039 0.17423 0.0
N852 N 0.78221 0.72046 0.08634 0.0
N853 N 0.80424 0.71889 0.15012 0.0
H854 H 0.01321 0.07282 0.15068 0.0
H855 H 0.95358 0.97136 0.23086 0.0
H856 H 0.01369 0.99249 0.12868 0.0
H857 H 0.95607 0.05191 0.25431 0.0
H858 H 0.97666 0.97873 0.19394 0.0
H859 H 0.99306 0.06555 0.18919 0.0
C860 C 0.00902 0.05364 0.15394 0.0
C861 C 0.01505 0.03322 0.13637 0.0
C862 C 0.97225 0.9948 0.20721 0.0
C863 C 0.99213 0.02476 0.18054 0.0
C864 C 0.95907 0.99061 0.22832 0.0
C865 C 0.95278 0.01105 0.24569 0.0
C866 C 0.97914 0.01961 0.20335 0.0
C867 C 0.96045 0.03557 0.24141 0.0
C868 C 0.99764 0.04951 0.17599 0.0
C869 C 0.00957 0.0088 0.14178 0.0
N870 N 0.97312 0.03916 0.22063 0.0
N871 N 0.99832 0.00525 0.16332 0.0
H872 H 0.31291 0.81368 0.17592 0.0
H873 H 0.23728 0.80261 0.04673 0.0
H874 H 0.29782 0.74434 0.12311 0.0
H875 H 0.26478 0.87333 0.09376 0.0
H876 H 0.25395 0.78012 0.07706 0.0
H877 H 0.28949 0.83485 0.14889 0.0
C878 C 0.3042 0.80286 0.15878 0.0
C879 C 0.30702 0.77734 0.15162 0.0
C880 C 0.25622 0.80056 0.08079 0.0
C881 C 0.28071 0.80133 0.12045 0.0
C882 C 0.24668 0.81343 0.06349 0.0
C883 C 0.24977 0.83993 0.0676 0.0
C884 C 0.26883 0.81426 0.10245 0.0
C885 C 0.26209 0.85291 0.08971 0.0
C886 C 0.29101 0.81494 0.14329 0.0
C887 C 0.29579 0.76408 0.12921 0.0
N888 N 0.27121 0.83995 0.10624 0.0
N889 N 0.28318 0.77628 0.11428 0.0
H890 H 0.027 0.43837 0.08088 0.0
H891 H 0.11679 0.53698 0.17844 0.0
H892 H 0.05712 0.5122 0.06795 0.0
H893 H 0.08209 0.46552 0.19375 0.0
H894 H 0.09325 0.52922 0.13888 0.0
H895 H 0.04483 0.44901 0.12329 0.0
C896 C 0.03719 0.45692 0.08706 0.0
C897 C 0.04072 0.47436 0.07079 0.0
C898 C 0.09066 0.5153 0.15095 0.0
C899 C 0.06133 0.48664 0.1193 0.0
C900 C 0.10415 0.51969 0.17354 0.0
C901 C 0.10155 0.5018 0.18941 0.0
C902 C 0.07453 0.49277 0.14402 0.0
C903 C 0.08478 0.4798 0.18209 0.0
C904 C 0.04733 0.463 0.11129 0.0
C905 C 0.0538 0.49823 0.07989 0.0
N906 N 0.07205 0.47584 0.15987 0.0
N907 N 0.06385 0.50356 0.10343 0.0
H908 H 0.38042 0.69069 0.24828 0.0
H909 H 0.49335 0.78106 0.32516 0.0
H910 H 0.39154 0.77161 0.25331 0.0
H911 H 0.47769 0.70161 0.32778 0.0
H912 H 0.45714 0.77744 0.29725 0.0
H913 H 0.41669 0.69387 0.2762 0.0
C914 C 0.39036 0.70915 0.25537 0.0
C915 C 0.38287 0.73092 0.24839 0.0
C916 C 0.4616 0.76078 0.30391 0.0
C917 C 0.42467 0.73464 0.2801 0.0
C918 C 0.48234 0.76281 0.31982 0.0
C919 C 0.48859 0.7416 0.32886 0.0
C920 C 0.44697 0.73733 0.29685 0.0
C921 C 0.47356 0.71847 0.3213 0.0
C922 C 0.41117 0.71092 0.2712 0.0
C923 C 0.3968 0.75427 0.25785 0.0
N924 N 0.45346 0.71695 0.30573 0.0
N925 N 0.41699 0.75549 0.27318 0.0
H926 H 0.02399 0.39019 0.01709 0.0
H927 H 0.08307 0.32013 0.89379 0.0
H928 H 0.05802 0.42871 0.96067 0.0
H929 H 0.03781 0.28075 0.94315 0.0
H930 H 0.07777 0.36012 0.92047 0.0
H931 H 0.03269 0.34994 0.99264 0.0
C932 C 0.03347 0.39018 0.99965 0.0
C933 C 0.04017 0.41279 0.99081 0.0
C934 C 0.06905 0.34273 0.92551 0.0
C935 C 0.05007 0.36689 0.96273 0.0
C936 C 0.07212 0.31986 0.91031 0.0
C937 C 0.06077 0.29703 0.91617 0.0
C938 C 0.05462 0.34283 0.94683 0.0
C939 C 0.0468 0.29789 0.93785 0.0
C940 C 0.03829 0.36721 0.98565 0.0
C941 C 0.05221 0.41168 0.968 0.0
N942 N 0.04409 0.32042 0.95237 0.0
N943 N 0.05676 0.38913 0.95476 0.0
H944 H 0.72011 0.70134 0.26881 0.0
H945 H 0.616 0.76225 0.3552 0.0
H946 H 0.72878 0.77856 0.30687 0.0
H947 H 0.60756 0.68478 0.31715 0.0
H948 H 0.65678 0.76896 0.33686 0.0
H949 H 0.67826 0.69517 0.2855 0.0
C950 C 0.71304 0.71697 0.28069 0.0
C951 C 0.72759 0.74042 0.28665 0.0
C952 C 0.646 0.7505 0.33248 0.0
C953 C 0.68007 0.73368 0.30578 0.0
C954 C 0.62269 0.74664 0.34294 0.0
C955 C 0.60834 0.72288 0.33776 0.0
C956 C 0.65509 0.73045 0.31671 0.0
C957 C 0.61797 0.7034 0.32171 0.0
C958 C 0.68923 0.71349 0.2902 0.0
C959 C 0.7179 0.76019 0.302 0.0
N960 N 0.64076 0.70761 0.3118 0.0
N961 N 0.69468 0.75638 0.31112 0.0
H962 H 0.06439 0.11687 0.03406 0.0
H963 H 0.01087 0.12622 0.89912 0.0
H964 H 0.00165 0.06765 0.99706 0.0
H965 H 0.07103 0.17804 0.93829 0.0
H966 H 0.01072 0.10109 0.93225 0.0
H967 H 0.07078 0.13596 0.99662 0.0
C968 C 0.05227 0.10985 0.0178 0.0
C969 C 0.03256 0.09076 0.01835 0.0
C970 C 0.02409 0.11785 0.93349 0.0
C971 C 0.03932 0.11258 0.97581 0.0
C972 C 0.0242 0.1322 0.91455 0.0
C973 C 0.0408 0.15444 0.91604 0.0
C974 C 0.04068 0.12578 0.95409 0.0
C975 C 0.05774 0.16117 0.93645 0.0
C976 C 0.0558 0.12077 0.99651 0.0
C977 C 0.01712 0.08233 0.99711 0.0
N978 N 0.05711 0.14702 0.95473 0.0
N979 N 0.02071 0.09344 0.9767 0.0
H980 H 0.37607 0.32107 0.31681 0.0
H981 H 0.43461 0.28294 0.18334 0.0
H982 H 0.3315 0.29894 0.24887 0.0
H983 H 0.47837 0.3185 0.24936 0.0
H984 H 0.39663 0.2879 0.20692 0.0
H985 H 0.41376 0.31988 0.29236 0.0
C986 C 0.37425 0.31609 0.2967 0.0
C987 C 0.35063 0.31 0.28485 0.0
C988 C 0.41454 0.29471 0.21621 0.0
C989 C 0.39373 0.30842 0.2567 0.0
C990 C 0.43625 0.2918 0.20278 0.0
C991 C 0.45976 0.30025 0.21439 0.0
C992 C 0.41632 0.30596 0.2415 0.0
C993 C 0.46069 0.31168 0.23961 0.0
C994 C 0.39576 0.31546 0.28274 0.0
C995 C 0.34934 0.30393 0.25873 0.0
N996 N 0.43933 0.31407 0.25232 0.0
N997 N 0.37059 0.30306 0.24554 0.0
H998 H 0.53803 0.46612 0.10021 0.0
H999 H 0.56342 0.32189 0.0861 0.0
H1000 H 0.56471 0.42426 0.03324 0.0
H1001 H 0.52737 0.36141 0.14882 0.0
H1002 H 0.5701 0.36091 0.06904 0.0
H1003 H 0.54053 0.42987 0.12103 0.0
C1004 C 0.54493 0.44939 0.09012 0.0
C1005 C 0.55133 0.44797 0.06517 0.0
C1006 C 0.56088 0.36107 0.08662 0.0
C1007 C 0.55372 0.40639 0.08845 0.0
C1008 C 0.55707 0.3388 0.0964 0.0
C1009 C 0.54458 0.33829 0.11882 0.0
C1010 C 0.55221 0.38304 0.09938 0.0
C1011 C 0.53688 0.36083 0.13137 0.0
C1012 C 0.54619 0.42867 0.10189 0.0
C1013 C 0.55981 0.42595 0.05263 0.0
N1014 N 0.5407 0.38223 0.12142 0.0
N1015 N 0.5606 0.40587 0.06436 0.0
H1016 H 0.70143 0.2627 0.25279 0.0
H1017 H 0.55831 0.24258 0.2064 0.0
H1018 H 0.65072 0.19607 0.25708 0.0
H1019 H 0.60817 0.31028 0.20303 0.0
H1020 H 0.59122 0.22658 0.22761 0.0
H1021 H 0.6669 0.28193 0.23727 0.0
C1022 C 0.68289 0.25232 0.2507 0.0
C1023 C 0.67865 0.22793 0.25614 0.0
C1024 C 0.59495 0.245 0.22237 0.0
C1025 C 0.63934 0.2494 0.23827 0.0
C1026 C 0.57614 0.25417 0.21024 0.0
C1027 C 0.58051 0.27777 0.20276 0.0
C1028 C 0.61841 0.25945 0.22702 0.0
C1029 C 0.60398 0.29195 0.20836 0.0
C1030 C 0.66324 0.2632 0.24181 0.0
C1031 C 0.65454 0.21501 0.25307 0.0
N1032 N 0.6221 0.2825 0.22001 0.0
N1033 N 0.63576 0.22585 0.2442 0.0
H1034 H 0.47736 0.08073 0.04493 0.0
H1035 H 0.49935 0.23114 0.08384 0.0
H1036 H 0.47245 0.13106 0.99247 0.0
H1037 H 0.50868 0.17967 0.13435 0.0
H1038 H 0.49151 0.19508 0.04962 0.0
H1039 H 0.49143 0.11696 0.07728 0.0
C1040 C 0.47948 0.09944 0.04019 0.0
C1041 C 0.47357 0.10292 0.01603 0.0
C1042 C 0.49539 0.19171 0.06817 0.0
C1043 C 0.48947 0.14461 0.05306 0.0
C1044 C 0.49981 0.21228 0.08774 0.0
C1045 C 0.50452 0.20844 0.11207 0.0
C1046 C 0.49561 0.1671 0.07297 0.0
C1047 C 0.50501 0.18359 0.11596 0.0
C1048 C 0.48752 0.12014 0.05866 0.0
C1049 C 0.47692 0.12754 0.01083 0.0
N1050 N 0.50049 0.16391 0.09668 0.0
N1051 N 0.48439 0.14749 0.02927 0.0
H1052 H 0.2928 0.38693 0.76944 0.0
H1053 H 0.37229 0.50191 0.72025 0.0
H1054 H 0.30001 0.39143 0.69154 0.0
H1055 H 0.37274 0.49196 0.7971 0.0
H1056 H 0.34429 0.46248 0.70949 0.0
H1057 H 0.3205 0.42655 0.78011 0.0
C1058 C 0.30015 0.39633 0.75459 0.0
C1059 C 0.29411 0.38589 0.72958 0.0
C1060 C 0.35054 0.46893 0.7287 0.0
C1061 C 0.32591 0.43115 0.74161 0.0
C1062 C 0.36648 0.49147 0.73487 0.0
C1063 C 0.37486 0.50025 0.75962 0.0
C1064 C 0.34283 0.45515 0.74743 0.0
C1065 C 0.36676 0.4859 0.77777 0.0
C1066 C 0.31606 0.41887 0.76068 0.0
C1067 C 0.30441 0.39869 0.71106 0.0
N1068 N 0.35117 0.46409 0.77132 0.0
N1069 N 0.31976 0.42069 0.71745 0.0
H1070 H 0.27927 0.68011 0.7708 0.0
H1071 H 0.35314 0.60462 0.85456 0.0
H1072 H 0.26733 0.68299 0.84931 0.0
H1073 H 0.37837 0.61983 0.78315 0.0
H1074 H 0.31988 0.63102 0.85219 0.0
H1075 H 0.31363 0.65506 0.77386 0.0
C1076 C 0.28381 0.67533 0.78863 0.0
C1077 C 0.27049 0.68363 0.80984 0.0
C1078 C 0.3328 0.6287 0.83712 0.0
C1079 C 0.30973 0.65513 0.81351 0.0
C1080 C 0.35179 0.61364 0.83846 0.0
C1081 C 0.36856 0.61 0.81902 0.0
C1082 C 0.33035 0.63994 0.81604 0.0
C1083 C 0.36591 0.62217 0.79861 0.0
C1084 C 0.30351 0.66122 0.79042 0.0
C1085 C 0.27728 0.67714 0.83256 0.0
N1086 N 0.34705 0.63643 0.79756 0.0
N1087 N 0.29636 0.66319 0.83378 0.0
H1088 H 0.9494 0.47266 0.49877 0.0
H1089 H 0.80333 0.45461 0.52517 0.0
H1090 H 0.90268 0.53225 0.50219 0.0
H1091 H 0.84991 0.39467 0.51944 0.0
H1092 H 0.83975 0.48379 0.51849 0.0
H1093 H 0.91345 0.4443 0.50799 0.0
C1094 C 0.93155 0.47978 0.50141 0.0
C1095 C 0.92904 0.50486 0.49953 0.0
C1096 C 0.84202 0.46427 0.51875 0.0
C1097 C 0.88775 0.47247 0.51032 0.0
C1098 C 0.82122 0.44758 0.52257 0.0
C1099 C 0.82354 0.42211 0.52281 0.0
C1100 C 0.86534 0.45546 0.51514 0.0
C1101 C 0.84721 0.41411 0.51935 0.0
C1102 C 0.91104 0.46359 0.5068 0.0
C1103 C 0.90554 0.51314 0.50364 0.0
N1104 N 0.86716 0.43071 0.51562 0.0
N1105 N 0.8858 0.49697 0.50873 0.0
H1106 H 0.70989 0.83548 0.76454 0.0
H1107 H 0.72409 0.98667 0.7925 0.0
H1108 H 0.76653 0.88155 0.81384 0.0
H1109 H 0.66427 0.94029 0.74726 0.0
H1110 H 0.7425 0.94865 0.79695 0.0
H1111 H 0.69586 0.87381 0.75395 0.0
C1112 C 0.71965 0.85374 0.77271 0.0
C1113 C 0.73943 0.8556 0.78987 0.0
C1114 C 0.72541 0.94678 0.78595 0.0
C1115 C 0.72329 0.89939 0.77842 0.0
C1116 C 0.71485 0.96851 0.7834 0.0
C1117 C 0.69247 0.96671 0.76962 0.0
C1118 C 0.71354 0.923 0.77463 0.0
C1119 C 0.68145 0.94262 0.75818 0.0
C1120 C 0.71157 0.87559 0.76683 0.0
C1121 C 0.75131 0.87951 0.80034 0.0
N1122 N 0.69203 0.92173 0.76103 0.0
N1123 N 0.74296 0.90055 0.79456 0.0
H1124 H 0.61523 0.53584 0.04563 0.0
H1125 H 0.73469 0.5758 0.96932 0.0
H1126 H 0.61987 0.51446 0.96591 0.0
H1127 H 0.73303 0.58956 0.04965 0.0
H1128 H 0.6932 0.5519 0.96775 0.0
H1129 H 0.65903 0.55375 0.04768 0.0
C1130 C 0.62553 0.53457 0.02858 0.0
C1131 C 0.61372 0.5238 0.00553 0.0
C1132 C 0.70198 0.56001 0.98573 0.0
C1133 C 0.66384 0.54473 0.00769 0.0
C1134 C 0.72568 0.57369 0.98663 0.0
C1135 C 0.73733 0.58483 0.00965 0.0
C1136 C 0.68975 0.55756 0.00799 0.0
C1137 C 0.72475 0.58138 0.03148 0.0
C1138 C 0.65052 0.54497 0.02975 0.0
C1139 C 0.62801 0.52302 0.98404 0.0
N1140 N 0.7016 0.56821 0.0301 0.0
N1141 N 0.65222 0.53352 0.98562 0.0
H1142 H 0.29495 0.70043 0.25891 0.0
H1143 H 0.20874 0.57943 0.18536 0.0
H1144 H 0.29232 0.67887 0.17886 0.0
H1145 H 0.20903 0.6027 0.26522 0.0
H1146 H 0.23812 0.61662 0.18251 0.0
H1147 H 0.26203 0.66597 0.26146 0.0
C1148 C 0.28733 0.68851 0.24185 0.0
C1149 C 0.29654 0.69243 0.21864 0.0
C1150 C 0.23171 0.61366 0.20066 0.0
C1151 C 0.25883 0.65286 0.22142 0.0
C1152 C 0.21496 0.59236 0.20232 0.0
C1153 C 0.20645 0.58784 0.22559 0.0
C1154 C 0.24015 0.6306 0.22243 0.0
C1155 C 0.21512 0.60536 0.24689 0.0
C1156 C 0.2685 0.66886 0.24332 0.0
C1157 C 0.2857 0.67665 0.19713 0.0
N1158 N 0.23155 0.62591 0.2448 0.0
N1159 N 0.26758 0.65743 0.19906 0.0
H1160 H 0.95672 0.51038 0.03629 0.0
H1161 H 0.87578 0.59842 0.97354 0.0
H1162 H 0.97935 0.54345 0.97245 0.0
H1163 H 0.8573 0.57444 0.04332 0.0
H1164 H 0.91364 0.57797 0.97284 0.0
H1165 H 0.92022 0.53375 0.03972 0.0
C1166 C 0.95409 0.52288 0.02326 0.0
C1167 C 0.97088 0.52531 0.00419 0.0
C1168 C 0.90135 0.57721 0.98835 0.0
C1169 C 0.92934 0.55153 0.00757 0.0
C1170 C 0.87965 0.58881 0.98871 0.0
C1171 C 0.86329 0.58811 0.00849 0.0
C1172 C 0.90672 0.56462 0.00783 0.0
C1173 C 0.86937 0.57546 0.02768 0.0
C1174 C 0.9333 0.5361 0.02512 0.0
C1175 C 0.96675 0.54134 0.9875 0.0
N1176 N 0.89055 0.56414 0.02683 0.0
N1177 N 0.9463 0.55377 0.98948 0.0
H1178 H 0.0658 0.0068 0.03214 0.0
H1179 H 0.18182 0.94104 0.06954 0.0
H1180 H 0.09635 0.01687 0.10711 0.0
H1181 H 0.16151 0.9434 0.99335 0.0
H1182 H 0.14885 0.96677 0.0836 0.0
H1183 H 0.09948 0.98212 0.01742 0.0
C1184 C 0.07967 0.00402 0.04549 0.0
C1185 C 0.07809 0.01384 0.07095 0.0
C1186 C 0.15161 0.96169 0.0638 0.0
C1187 C 0.11646 0.98523 0.05425 0.0
C1188 C 0.17039 0.9469 0.05575 0.0
C1189 C 0.17446 0.94004 0.03022 0.0
C1190 C 0.13663 0.96956 0.04622 0.0
C1191 C 0.15907 0.94827 0.01322 0.0
C1192 C 0.09882 0.9898 0.03708 0.0
C1193 C 0.09646 0.00929 0.08739 0.0
N1194 N 0.1408 0.96255 0.02152 0.0
N1195 N 0.11477 0.99525 0.07878 0.0
loop_
_geom_bond_atom_site_label_1
_geom_bond_atom_site_label_2
_geom_bond_distance
_geom_bond_site_symmetry_2
_ccdc_geom_bond_type
H0 C3 0.929 . S
H1 C6 0.929 . S
H2 C8 0.930 . S
C3 H0 0.929 . S
C3 C4 1.398 . S
C3 C5 1.396 . S
C4 C3 1.398 . S
C4 C8 1.407 . S
C5 C3 1.396 . S
C5 C6 1.394 . S
C6 H1 0.929 . S
C6 C5 1.394 . S
C6 C7 1.382 . S
C7 C6 1.382 . S
C7 C8 1.392 . S
C7 N9 1.420 . S
C8 H2 0.930 . S
C8 C4 1.407 . S
C8 C7 1.392 . S
N9 C7 1.420 . S
N9 C10 1.244 . S
C10 N9 1.244 . S
H11 C14 0.929 . S
H12 C17 0.929 . S
H13 C19 0.930 . S
C14 H11 0.929 . S
C14 C15 1.398 . S
C14 C16 1.396 . S
C15 C14 1.398 . S
C15 C19 1.407 . S
C16 C14 1.396 . S
C16 C17 1.394 . S
C17 H12 0.929 . S
C17 C16 1.394 . S
C17 C18 1.382 . S
C18 C17 1.382 . S
C18 C19 1.392 . S
C18 N20 1.420 . S
C19 H13 0.930 . S
C19 C15 1.407 . S
C19 C18 1.392 . S
N20 C18 1.420 . S
N20 C21 1.244 . S
C21 N20 1.244 . S
H22 C25 0.929 . S
H23 C28 0.929 . S
H24 C30 0.930 1_556 S
C25 H22 0.929 . S
C25 C26 1.384 1_455 S
C25 C27 1.396 . S
C26 C25 1.384 1_655 S
C26 C30 1.427 . S
C27 C25 1.396 . S
C27 C28 1.394 1_455 S
C28 H23 0.929 . S
C28 C27 1.394 1_655 S
C28 C29 1.382 . S
C29 C28 1.382 . S
C29 C30 1.392 . S
C29 N31 1.420 . S
C30 H24 0.930 1_554 S
C30 C26 1.427 . S
C30 C29 1.392 . S
N31 C29 1.420 . S
N31 C32 1.244 . S
C32 N31 1.244 . S
H33 C36 0.929 . S
H34 C39 0.929 . S
H35 C41 0.930 . S
C36 H33 0.929 . S
C36 C37 1.398 . S
C36 C38 1.396 . S
C37 C36 1.398 . S
C37 C41 1.407 . S
C38 C36 1.396 . S
C38 C39 1.394 . S
C39 H34 0.929 . S
C39 C38 1.394 . S
C39 C40 1.382 . S
C40 C39 1.382 . S
C40 C41 1.392 . S
C40 N42 1.420 . S
C41 H35 0.930 . S
C41 C37 1.407 . S
C41 C40 1.392 . S
N42 C40 1.420 . S
N42 C43 1.244 . S
C43 N42 1.244 . S
H44 C47 0.929 . S
H45 C50 0.929 . S
H46 C52 0.930 . S
C47 H44 0.929 . S
C47 C48 1.398 1_545 S
C47 C49 1.381 1_545 S
C48 C47 1.398 1_565 S
C48 C52 1.407 . S
C49 C47 1.381 1_565 S
C49 C50 1.428 . S
C50 H45 0.929 . S
C50 C49 1.428 . S
C50 C51 1.382 . S
C51 C50 1.382 . S
C51 C52 1.392 . S
C51 N53 1.420 . S
C52 H46 0.930 . S
C52 C48 1.407 . S
C52 C51 1.392 . S
N53 C51 1.420 . S
N53 C54 1.244 . S
C54 N53 1.244 . S
H55 C58 0.929 . S
H56 C61 0.929 . S
H57 C63 0.930 . S
C58 H55 0.929 . S
C58 C59 1.398 . S
C58 C60 1.396 . S
C59 C58 1.398 . S
C59 C63 1.407 . S
C60 C58 1.396 . S
C60 C61 1.394 . S
C61 H56 0.929 . S
C61 C60 1.394 . S
C61 C62 1.382 . S
C62 C61 1.382 . S
C62 C63 1.392 . S
C62 N64 1.420 . S
C63 H57 0.930 . S
C63 C59 1.407 . S
C63 C62 1.392 . S
N64 C62 1.420 . S
N64 C65 1.244 . S
C65 N64 1.244 . S
H66 C69 0.929 . S
H67 C72 0.925 . S
H68 C74 0.930 . S
C69 H66 0.929 . S
C69 C70 1.398 . S
C69 C71 1.396 . S
C70 C69 1.398 . S
C70 C74 1.407 . S
C71 C69 1.396 . S
C71 C72 1.398 1_655 S
C72 H67 0.925 . S
C72 C71 1.398 1_455 S
C72 C73 1.382 1_455 S
C73 C72 1.382 1_655 S
C73 C74 1.392 . S
C73 N75 1.420 1_655 S
C74 H68 0.930 . S
C74 C70 1.407 . S
C74 C73 1.392 . S
N75 C73 1.420 1_455 S
N75 C76 1.244 . S
C76 N75 1.244 . S
H77 C80 0.929 . S
H78 C83 0.929 . S
H79 C85 0.930 . S
C80 H77 0.929 . S
C80 C81 1.398 . S
C80 C82 1.396 . S
C81 C80 1.398 . S
C81 C85 1.407 . S
C82 C80 1.396 . S
C82 C83 1.394 . S
C83 H78 0.929 . S
C83 C82 1.394 . S
C83 C84 1.382 . S
C84 C83 1.382 . S
C84 C85 1.392 . S
C84 N86 1.420 . S
C85 H79 0.930 . S
C85 C81 1.407 . S
C85 C84 1.392 . S
N86 C84 1.420 . S
N86 C87 1.244 . S
C87 N86 1.244 . S
H88 C91 0.929 . S
H89 C94 0.929 . S
H90 C96 0.930 . S
C91 H88 0.929 . S
C91 C92 1.398 . S
C91 C93 1.396 . S
C92 C91 1.398 . S
C92 C96 1.407 . S
C93 C91 1.396 . S
C93 C94 1.394 . S
C94 H89 0.929 . S
C94 C93 1.394 . S
C94 C95 1.382 . S
C95 C94 1.382 . S
C95 C96 1.392 . S
C95 N97 1.420 . S
C96 H90 0.930 . S
C96 C92 1.407 . S
C96 C95 1.392 . S
N97 C95 1.420 . S
N97 C98 1.244 . S
C98 N97 1.244 . S
H99 C102 0.929 . S
H100 C105 0.929 1_545 S
H101 C107 0.930 . S
C102 H99 0.929 . S
C102 C103 1.398 . S
C102 C104 1.396 . S
C103 C102 1.398 . S
C103 C107 1.407 . S
C104 C102 1.396 . S
C104 C105 1.394 . S
C105 H100 0.929 1_565 S
C105 C104 1.394 . S
C105 C106 1.382 . S
C106 C105 1.382 . S
C106 C107 1.392 . S
C106 N108 1.420 1_565 S
C107 H101 0.930 . S
C107 C103 1.407 . S
C107 C106 1.392 . S
N108 C106 1.420 1_545 S
N108 C109 1.244 . S
C109 N108 1.244 . S
H110 C113 0.929 . S
H111 C116 0.929 . S
H112 C118 0.930 . S
C113 H110 0.929 . S
C113 C114 1.398 . S
C113 C115 1.396 . S
C114 C113 1.398 . S
C114 C118 1.407 . S
C115 C113 1.396 . S
C115 C116 1.394 . S
C116 H111 0.929 . S
C116 C115 1.394 . S
C116 C117 1.382 . S
C117 C116 1.382 . S
C117 C118 1.392 . S
C117 N119 1.420 . S
C118 H112 0.930 . S
C118 C114 1.407 . S
C118 C117 1.392 . S
N119 C117 1.420 . S
N119 C120 1.244 . S
C120 N119 1.244 . S
H121 C124 0.929 . S
H122 C127 0.929 . S
H123 C129 0.930 . S
C124 H121 0.929 . S
C124 C125 1.398 . S
C124 C126 1.396 . S
C125 C124 1.398 . S
C125 C129 1.407 . S
C126 C124 1.396 . S
C126 C127 1.394 . S
C127 H122 0.929 . S
C127 C126 1.394 . S
C127 C128 1.382 . S
C128 C127 1.382 . S
C128 C129 1.392 . S
C128 N130 1.420 . S
C129 H123 0.930 . S
C129 C125 1.407 . S
C129 C128 1.392 . S
N130 C128 1.420 . S
N130 C131 1.244 . S
C131 N130 1.244 . S
H132 C135 0.929 . S
H133 C138 0.929 . S
H134 C140 0.930 . S
C135 H132 0.929 . S
C135 C136 1.398 . S
C135 C137 1.396 . S
C136 C135 1.398 . S
C136 C140 1.407 . S
C137 C135 1.396 . S
C137 C138 1.394 . S
C138 H133 0.929 . S
C138 C137 1.394 . S
C138 C139 1.382 . S
C139 C138 1.382 . S
C139 C140 1.392 . S
C139 N141 1.420 . S
C140 H134 0.930 . S
C140 C136 1.407 . S
C140 C139 1.392 . S
N141 C139 1.420 . S
N141 C142 1.244 . S
C142 N141 1.244 . S
H143 C146 0.929 . S
H144 C149 0.929 . S
H145 C151 0.930 . S
C146 H143 0.929 . S
C146 C147 1.398 . S
C146 C148 1.396 . S
C147 C146 1.398 . S
C147 C151 1.407 . S
C148 C146 1.396 . S
C148 C149 1.394 1_556 S
C149 H144 0.929 . S
C149 C148 1.394 1_554 S
C149 C150 1.382 1_554 S
C150 C149 1.382 1_556 S
C150 C151 1.392 . S
C150 N152 1.420 1_556 S
C151 H145 0.930 . S
C151 C147 1.407 . S
C151 C150 1.392 . S
N152 C150 1.420 1_554 S
N152 C153 1.244 . S
C153 N152 1.244 . S
H154 C157 0.929 . S
H155 C160 0.929 . S
H156 C162 0.930 . S
C157 H154 0.929 . S
C157 C158 1.398 . S
C157 C159 1.396 . S
C158 C157 1.398 . S
C158 C162 1.407 . S
C159 C157 1.396 . S
C159 C160 1.394 . S
C160 H155 0.929 . S
C160 C159 1.394 . S
C160 C161 1.382 . S
C161 C160 1.382 . S
C161 C162 1.392 . S
C161 N163 1.420 . S
C162 H156 0.930 . S
C162 C158 1.407 . S
C162 C161 1.392 . S
N163 C161 1.420 . S
N163 C164 1.244 . S
C164 N163 1.244 . S
H165 C168 0.929 1_554 S
H166 C171 0.929 . S
H167 C173 0.939 . S
C168 H165 0.929 1_556 S
C168 C169 1.398 . S
C168 C170 1.396 . S
C169 C168 1.398 . S
C169 C173 1.407 . S
C170 C168 1.396 . S
C170 C171 1.394 . S
C171 H166 0.929 . S
C171 C170 1.394 . S
C171 C172 1.382 . S
C172 C171 1.382 . S
C172 C173 1.392 . S
C172 N174 1.420 . S
C173 H167 0.939 . S
C173 C169 1.407 . S
C173 C172 1.392 . S
N174 C172 1.420 . S
N174 C175 1.244 . S
C175 N174 1.244 . S
C176 O177 1.160 . S
C176 O183 1.185 . S
O177 C176 1.160 . S
O178 Zn179 1.899 . S
O178 C186 1.284 . S
Zn179 O178 1.899 . S
Zn179 O180 2.032 . S
Zn179 O183 2.086 . S
Zn179 O188 1.977 . S
O180 Zn179 2.032 . S
O180 C184 1.278 . S
C181 O182 1.203 . S
C181 O188 1.267 . S
O182 C181 1.203 . S
O183 C176 1.185 . S
O183 Zn179 2.086 . S
C184 O180 1.278 . S
C184 O185 1.211 . S
O185 C184 1.211 . S
C186 O178 1.284 . S
C186 O187 1.273 . S
O187 C186 1.273 . S
O188 Zn179 1.977 . S
O188 C181 1.267 . S
C189 O190 1.160 . S
C189 O196 1.185 . S
O190 C189 1.160 . S
O191 Zn192 1.899 . S
O191 C199 1.284 . S
Zn192 O191 1.899 . S
Zn192 O193 2.032 . S
Zn192 O196 2.086 . S
Zn192 O201 1.977 . S
O193 Zn192 2.032 . S
O193 C197 1.278 . S
C194 O195 1.203 . S
C194 O201 1.267 . S
O195 C194 1.203 . S
O196 C189 1.185 . S
O196 Zn192 2.086 . S
C197 O193 1.278 . S
C197 O198 1.211 . S
O198 C197 1.211 . S
C199 O191 1.284 . S
C199 O200 1.273 . S
O200 C199 1.273 . S
O201 Zn192 1.977 . S
O201 C194 1.267 . S
C202 O203 1.179 . S
C202 O209 1.172 1_556 S
O203 C202 1.179 . S
O204 Zn205 1.899 1_556 S
O204 C212 1.284 . S
Zn205 O204 1.899 1_554 S
Zn205 O206 2.032 1_554 S
Zn205 O209 2.086 . S
Zn205 O214 1.977 . S
O206 Zn205 2.032 1_556 S
O206 C210 1.278 . S
C207 O208 1.203 . S
C207 O214 1.267 . S
O208 C207 1.203 . S
O209 C202 1.172 1_554 S
O209 Zn205 2.086 . S
C210 O206 1.278 . S
C210 O211 1.211 1_556 S
O211 C210 1.211 1_554 S
C212 O204 1.284 . S
C212 O213 1.273 . S
O213 C212 1.273 . S
O214 Zn205 1.977 . S
O214 C207 1.267 . S
C215 O216 1.160 . S
C215 O222 1.185 . S
O216 C215 1.160 . S
O217 Zn218 1.899 . S
O217 C225 1.284 . S
Zn218 O217 1.899 . S
Zn218 O219 2.032 . S
Zn218 O222 2.086 . S
Zn218 O227 1.977 . S
O219 Zn218 2.032 . S
O219 C223 1.278 1_545 S
C220 O221 1.203 . S
C220 O227 1.267 . S
O221 C220 1.203 . S
O222 C215 1.185 . S
O222 Zn218 2.086 . S
C223 O219 1.278 1_565 S
C223 O224 1.211 . S
O224 C223 1.211 . S
C225 O217 1.284 . S
C225 O226 1.273 . S
O226 C225 1.273 . S
O227 Zn218 1.977 . S
O227 C220 1.267 . S
C228 O229 1.160 . S
C228 O235 1.185 . S
O229 C228 1.160 . S
O230 Zn231 1.899 . S
O230 C238 1.284 . S
Zn231 O230 1.899 . S
Zn231 O232 2.032 . S
Zn231 O235 2.086 . S
Zn231 O240 1.977 . S
O232 Zn231 2.032 . S
O232 C236 1.278 . S
C233 O234 1.203 . S
C233 O240 1.267 . S
O234 C233 1.203 . S
O235 C228 1.185 . S
O235 Zn231 2.086 . S
C236 O232 1.278 . S
C236 O237 1.211 . S
O237 C236 1.211 . S
C238 O230 1.284 . S
C238 O239 1.273 . S
O239 C238 1.273 . S
O240 Zn231 1.977 . S
O240 C233 1.267 . S
C241 O242 1.160 . S
C241 O248 1.185 . S
O242 C241 1.160 . S
O243 Zn244 1.899 . S
O243 C251 1.284 . S
Zn244 O243 1.899 . S
Zn244 O245 2.032 . S
Zn244 O248 2.086 . S
Zn244 O253 1.977 . S
O245 Zn244 2.032 . S
O245 C249 1.278 . S
C246 O247 1.203 . S
C246 O253 1.267 . S
O247 C246 1.203 . S
O248 C241 1.185 . S
O248 Zn244 2.086 . S
C249 O245 1.278 . S
C249 O250 1.211 . S
O250 C249 1.211 . S
C251 O243 1.284 . S
C251 O252 1.273 . S
O252 C251 1.273 . S
O253 Zn244 1.977 . S
O253 C246 1.267 . S
C254 O255 1.160 . S
C254 O261 1.185 . S
O255 C254 1.160 . S
O256 Zn257 1.899 . S
O256 C264 1.284 . S
Zn257 O256 1.899 . S
Zn257 O258 2.032 . S
Zn257 O261 2.086 . S
Zn257 O266 1.977 . S
O258 Zn257 2.032 . S
O258 C262 1.278 . S
C259 O260 1.203 . S
C259 O266 1.267 . S
O260 C259 1.203 . S
O261 C254 1.185 . S
O261 Zn257 2.086 . S
C262 O258 1.278 . S
C262 O263 1.211 . S
O263 C262 1.211 . S
C264 O256 1.284 . S
C264 O265 1.273 . S
O265 C264 1.273 . S
O266 Zn257 1.977 . S
O266 C259 1.267 . S
C267 O268 1.160 . S
C267 O274 1.185 . S
O268 C267 1.160 . S
O269 Zn270 1.899 . S
O269 C277 1.284 1_565 S
Zn270 O269 1.899 . S
Zn270 O271 2.032 1_565 S
Zn270 O274 2.086 . S
Zn270 O279 1.977 . S
O271 Zn270 2.032 1_545 S
O271 C275 1.278 . S
C272 O273 1.203 1_565 S
C272 O279 1.267 . S
O273 C272 1.203 1_545 S
O274 C267 1.185 . S
O274 Zn270 2.086 . S
C275 O271 1.278 . S
C275 O276 1.211 . S
O276 C275 1.211 . S
C277 O269 1.284 1_545 S
C277 O278 1.273 . S
O278 C277 1.273 . S
O279 Zn270 1.977 . S
O279 C272 1.267 . S
C280 O281 1.170 . S
C280 O287 1.185 . S
O281 C280 1.170 . S
O282 Zn283 1.875 1_655 S
O282 C290 1.315 . S
Zn283 O282 1.875 1_455 S
Zn283 O284 2.032 . S
Zn283 O287 2.086 . S
Zn283 O292 1.977 . S
O284 Zn283 2.032 . S
O284 C288 1.278 . S
C285 O286 1.203 . S
C285 O292 1.267 . S
O286 C285 1.203 . S
O287 C280 1.185 . S
O287 Zn283 2.086 . S
C288 O284 1.278 . S
C288 O289 1.211 . S
O289 C288 1.211 . S
C290 O282 1.315 . S
C290 O291 1.273 . S
O291 C290 1.273 . S
O292 Zn283 1.977 . S
O292 C285 1.267 . S
C293 O294 1.160 . S
C293 O300 1.185 . S
O294 C293 1.160 . S
O295 Zn296 1.899 . S
O295 C303 1.284 . S
Zn296 O295 1.899 . S
Zn296 O297 2.032 . S
Zn296 O300 2.086 . S
Zn296 O305 1.977 . S
O297 Zn296 2.032 . S
O297 C301 1.278 . S
C298 O299 1.203 . S
C298 O305 1.267 . S
O299 C298 1.203 . S
O300 C293 1.185 . S
O300 Zn296 2.086 . S
C301 O297 1.278 . S
C301 O302 1.211 . S
O302 C301 1.211 . S
C303 O295 1.284 . S
C303 O304 1.273 . S
O304 C303 1.273 . S
O305 Zn296 1.977 . S
O305 C298 1.267 . S
C306 O307 1.160 1_455 S
C306 O313 1.185 . S
O307 C306 1.160 1_655 S
O308 Zn309 1.899 1_655 S
O308 C316 1.284 . S
Zn309 O308 1.899 1_455 S
Zn309 O310 2.032 . S
Zn309 O313 2.086 . S
Zn309 O318 1.977 . S
O310 Zn309 2.032 . S
O310 C314 1.278 . S
C311 O312 1.203 . S
C311 O318 1.267 . S
O312 C311 1.203 . S
O313 C306 1.185 . S
O313 Zn309 2.086 . S
C314 O310 1.278 . S
C314 O315 1.211 . S
O315 C314 1.211 . S
C316 O308 1.284 . S
C316 O317 1.273 . S
O317 C316 1.273 . S
O318 Zn309 1.977 . S
O318 C311 1.267 . S
C319 O320 1.160 . S
C319 O326 1.185 . S
O320 C319 1.160 . S
O321 Zn322 1.899 . S
O321 C329 1.284 . S
Zn322 O321 1.899 . S
Zn322 O323 2.032 . S
Zn322 O326 2.086 . S
Zn322 O331 1.977 . S
O323 Zn322 2.032 . S
O323 C327 1.278 . S
C324 O325 1.203 . S
C324 O331 1.267 . S
O325 C324 1.203 . S
O326 C319 1.185 . S
O326 Zn322 2.086 . S
C327 O323 1.278 . S
C327 O328 1.211 . S
O328 C327 1.211 . S
C329 O321 1.284 . S
C329 O330 1.273 . S
O330 C329 1.273 . S
O331 Zn322 1.977 . S
O331 C324 1.267 . S
H332 C338 0.930 . S
H333 C342 0.930 . S
H334 C347 0.929 . S
H335 C345 0.929 . S
H336 C340 0.929 . S
H337 C346 0.929 . S
C338 H332 0.930 . S
C338 C339 1.367 . S
C338 C346 1.378 . S
C339 C338 1.367 . S
C339 C347 1.433 . S
C340 H336 0.929 . S
C340 C342 1.378 . S
C340 C344 1.350 . S
C341 C344 1.463 . S
C341 C346 1.350 . S
C341 N349 1.427 . S
C342 H333 0.930 . S
C342 C340 1.378 . S
C342 C343 1.367 . S
C343 C342 1.367 . S
C343 C345 1.433 . S
C344 C340 1.350 . S
C344 C341 1.463 . S
C344 N348 1.427 . S
C345 H335 0.929 . S
C345 C343 1.433 . S
C345 N348 1.384 . S
C346 H337 0.929 . S
C346 C338 1.378 . S
C346 C341 1.350 . S
C347 H334 0.929 . S
C347 C339 1.433 . S
C347 N349 1.384 . S
N348 C344 1.427 . S
N348 C345 1.384 . S
N349 C341 1.427 . S
N349 C347 1.384 . S
H350 C356 0.930 . S
H351 C360 0.930 . S
H352 C365 0.929 . S
H353 C363 0.929 . S
H354 C358 0.929 . S
H355 C364 0.929 . S
C356 H350 0.930 . S
C356 C357 1.367 . S
C356 C364 1.378 . S
C357 C356 1.367 . S
C357 C365 1.433 . S
C358 H354 0.929 . S
C358 C360 1.378 . S
C358 C362 1.350 . S
C359 C362 1.463 . S
C359 C364 1.350 . S
C359 N367 1.427 . S
C360 H351 0.930 . S
C360 C358 1.378 . S
C360 C361 1.367 . S
C361 C360 1.367 . S
C361 C363 1.433 . S
C362 C358 1.350 . S
C362 C359 1.463 . S
C362 N366 1.427 . S
C363 H353 0.929 . S
C363 C361 1.433 . S
C363 N366 1.384 . S
C364 H355 0.929 . S
C364 C356 1.378 . S
C364 C359 1.350 . S
C365 H352 0.929 . S
C365 C357 1.433 . S
C365 N367 1.384 . S
N366 C362 1.427 . S
N366 C363 1.384 . S
N367 C359 1.427 . S
N367 C365 1.384 . S
H368 C374 0.930 . S
H369 C378 0.930 . S
H370 C383 0.929 . S
H371 C381 0.929 . S
H372 C376 0.929 . S
H373 C382 0.929 . S
C374 H368 0.930 . S
C374 C375 1.367 . S
C374 C382 1.378 . S
C375 C374 1.367 . S
C375 C383 1.433 . S
C376 H372 0.929 . S
C376 C378 1.378 . S
C376 C380 1.350 . S
C377 C380 1.463 . S
C377 C382 1.350 . S
C377 N385 1.427 . S
C378 H369 0.930 . S
C378 C376 1.378 . S
C378 C379 1.367 . S
C379 C378 1.367 . S
C379 C381 1.433 . S
C380 C376 1.350 . S
C380 C377 1.463 . S
C380 N384 1.427 . S
C381 H371 0.929 . S
C381 C379 1.433 . S
C381 N384 1.384 . S
C382 H373 0.929 . S
C382 C374 1.378 . S
C382 C377 1.350 . S
C383 H370 0.929 . S
C383 C375 1.433 . S
C383 N385 1.384 . S
N384 C380 1.427 . S
N384 C381 1.384 . S
N385 C377 1.427 . S
N385 C383 1.384 . S
H386 C392 0.930 . S
H387 C396 0.930 . S
H388 C401 0.929 . S
H389 C399 0.929 . S
H390 C394 0.929 . S
H391 C400 0.930 . S
C392 H386 0.930 . S
C392 C393 1.367 . S
C392 C400 1.367 1_565 S
C393 C392 1.367 . S
C393 C401 1.433 1_565 S
C394 H390 0.929 . S
C394 C396 1.378 . S
C394 C398 1.350 . S
C395 C398 1.463 1_455 S
C395 C400 1.359 . S
C395 N403 1.427 1_455 S
C396 H387 0.930 . S
C396 C394 1.378 . S
C396 C397 1.367 . S
C397 C396 1.367 . S
C397 C399 1.433 . S
C398 C394 1.350 . S
C398 C395 1.463 1_655 S
C398 N402 1.427 1_655 S
C399 H389 0.929 . S
C399 C397 1.433 . S
C399 N402 1.384 1_655 S
C400 H391 0.930 . S
C400 C392 1.367 1_545 S
C400 C395 1.359 . S
C401 H388 0.929 . S
C401 C393 1.433 1_545 S
C401 N403 1.384 1_455 S
N402 C398 1.427 1_455 S
N402 C399 1.384 1_455 S
N403 C395 1.427 1_655 S
N403 C401 1.384 1_655 S
H404 C410 0.930 . S
H405 C414 0.930 . S
H406 C419 0.929 . S
H407 C417 0.929 . S
H408 C412 0.929 . S
H409 C418 0.929 . S
C410 H404 0.930 . S
C410 C411 1.367 . S
C410 C418 1.378 . S
C411 C410 1.367 . S
C411 C419 1.433 . S
C412 H408 0.929 . S
C412 C414 1.378 . S
C412 C416 1.350 . S
C413 C416 1.463 . S
C413 C418 1.350 . S
C413 N421 1.427 . S
C414 H405 0.930 . S
C414 C412 1.378 . S
C414 C415 1.367 . S
C415 C414 1.367 . S
C415 C417 1.433 . S
C416 C412 1.350 . S
C416 C413 1.463 . S
C416 N420 1.427 . S
C417 H407 0.929 . S
C417 C415 1.433 . S
C417 N420 1.384 . S
C418 H409 0.929 . S
C418 C410 1.378 . S
C418 C413 1.350 . S
C419 H406 0.929 . S
C419 C411 1.433 . S
C419 N421 1.384 . S
N420 C416 1.427 . S
N420 C417 1.384 . S
N421 C413 1.427 . S
N421 C419 1.384 . S
H422 C428 0.930 . S
H423 C432 0.930 . S
H424 C437 0.929 . S
H425 C435 0.929 . S
H426 C430 0.929 . S
H427 C436 0.929 . S
C428 H422 0.930 . S
C428 C429 1.367 . S
C428 C436 1.378 . S
C429 C428 1.367 . S
C429 C437 1.433 . S
C430 H426 0.929 . S
C430 C432 1.378 . S
C430 C434 1.350 . S
C431 C434 1.463 . S
C431 C436 1.350 . S
C431 N439 1.427 . S
C432 H423 0.930 . S
C432 C430 1.378 . S
C432 C433 1.367 . S
C433 C432 1.367 . S
C433 C435 1.433 . S
C434 C430 1.350 . S
C434 C431 1.463 . S
C434 N438 1.427 . S
C435 H425 0.929 . S
C435 C433 1.433 . S
C435 N438 1.384 . S
C436 H427 0.929 . S
C436 C428 1.378 . S
C436 C431 1.350 . S
C437 H424 0.929 . S
C437 C429 1.433 . S
C437 N439 1.384 . S
N438 C434 1.427 . S
N438 C435 1.384 . S
N439 C431 1.427 . S
N439 C437 1.384 . S
H440 C446 0.930 . S
H441 C450 0.930 . S
H442 C455 0.929 . S
H443 C453 0.929 . S
H444 C448 0.929 . S
H445 C454 0.929 . S
C446 H440 0.930 . S
C446 C447 1.367 . S
C446 C454 1.378 . S
C447 C446 1.367 . S
C447 C455 1.433 . S
C448 H444 0.929 . S
C448 C450 1.378 . S
C448 C452 1.350 . S
C449 C452 1.463 . S
C449 C454 1.350 . S
C449 N457 1.427 . S
C450 H441 0.930 . S
C450 C448 1.378 . S
C450 C451 1.367 . S
C451 C450 1.367 . S
C451 C453 1.433 . S
C452 C448 1.350 . S
C452 C449 1.463 . S
C452 N456 1.427 . S
C453 H443 0.929 . S
C453 C451 1.433 . S
C453 N456 1.384 . S
C454 H445 0.929 . S
C454 C446 1.378 . S
C454 C449 1.350 . S
C455 H442 0.929 . S
C455 C447 1.433 . S
C455 N457 1.384 . S
N456 C452 1.427 . S
N456 C453 1.384 . S
N457 C449 1.427 . S
N457 C455 1.384 . S
H458 C464 0.930 . S
H459 C468 0.930 . S
H460 C473 0.929 . S
H461 C471 0.929 . S
H462 C466 0.929 . S
H463 C472 0.929 . S
C464 H458 0.930 . S
C464 C465 1.367 . S
C464 C472 1.378 . S
C465 C464 1.367 . S
C465 C473 1.433 1_565 S
C466 H462 0.929 . S
C466 C468 1.378 . S
C466 C470 1.350 1_545 S
C467 C470 1.463 . S
C467 C472 1.350 . S
C467 N475 1.427 1_565 S
C468 H459 0.930 . S
C468 C466 1.378 . S
C468 C469 1.367 1_545 S
C469 C468 1.367 1_565 S
C469 C471 1.433 . S
C470 C466 1.350 1_565 S
C470 C467 1.463 . S
C470 N474 1.427 . S
C471 H461 0.929 . S
C471 C469 1.433 . S
C471 N474 1.384 . S
C472 H463 0.929 . S
C472 C464 1.378 . S
C472 C467 1.350 . S
C473 H460 0.929 . S
C473 C465 1.433 1_545 S
C473 N475 1.384 . S
N474 C470 1.427 . S
N474 C471 1.384 . S
N475 C467 1.427 1_545 S
N475 C473 1.384 . S
H476 C482 0.930 . S
H477 C486 0.930 . S
H478 C491 0.929 . S
H479 C489 0.929 . S
H480 C484 0.929 . S
H481 C490 0.929 . S
C482 H476 0.930 . S
C482 C483 1.367 . S
C482 C490 1.378 . S
C483 C482 1.367 . S
C483 C491 1.433 . S
C484 H480 0.929 . S
C484 C486 1.378 . S
C484 C488 1.350 . S
C485 C488 1.463 . S
C485 C490 1.350 . S
C485 N493 1.427 . S
C486 H477 0.930 . S
C486 C484 1.378 . S
C486 C487 1.367 . S
C487 C486 1.367 . S
C487 C489 1.433 . S
C488 C484 1.350 . S
C488 C485 1.463 . S
C488 N492 1.427 . S
C489 H479 0.929 . S
C489 C487 1.433 . S
C489 N492 1.384 . S
C490 H481 0.929 . S
C490 C482 1.378 . S
C490 C485 1.350 . S
C491 H478 0.929 . S
C491 C483 1.433 . S
C491 N493 1.384 . S
N492 C488 1.427 . S
N492 C489 1.384 . S
N493 C485 1.427 . S
N493 C491 1.384 . S
H494 C500 0.930 . S
H495 C504 0.930 . S
H496 C509 0.929 . S
H497 C507 0.929 . S
H498 C502 0.929 . S
H499 C508 0.929 . S
C500 H494 0.930 . S
C500 C501 1.367 . S
C500 C508 1.378 . S
C501 C500 1.367 . S
C501 C509 1.433 . S
C502 H498 0.929 . S
C502 C504 1.378 . S
C502 C506 1.350 . S
C503 C506 1.463 . S
C503 C508 1.350 . S
C503 N511 1.427 . S
C504 H495 0.930 . S
C504 C502 1.378 . S
C504 C505 1.367 . S
C505 C504 1.367 . S
C505 C507 1.433 . S
C506 C502 1.350 . S
C506 C503 1.463 . S
C506 N510 1.427 . S
C507 H497 0.929 . S
C507 C505 1.433 . S
C507 N510 1.384 . S
C508 H499 0.929 . S
C508 C500 1.378 . S
C508 C503 1.350 . S
C509 H496 0.929 . S
C509 C501 1.433 . S
C509 N511 1.384 . S
N510 C506 1.427 . S
N510 C507 1.384 . S
N511 C503 1.427 . S
N511 C509 1.384 . S
H512 C518 0.930 . S
H513 C522 0.930 . S
H514 C527 0.929 . S
H515 C525 0.929 . S
H516 C520 0.929 . S
H517 C526 0.929 . S
C518 H512 0.930 . S
C518 C519 1.367 . S
C518 C526 1.378 . S
C519 C518 1.367 . S
C519 C527 1.433 . S
C520 H516 0.929 . S
C520 C522 1.378 . S
C520 C524 1.350 . S
C521 C524 1.463 . S
C521 C526 1.350 . S
C521 N529 1.427 . S
C522 H513 0.930 . S
C522 C520 1.378 . S
C522 C523 1.367 . S
C523 C522 1.367 . S
C523 C525 1.433 . S
C524 C520 1.350 . S
C524 C521 1.463 . S
C524 N528 1.427 . S
C525 H515 0.929 . S
C525 C523 1.433 . S
C525 N528 1.384 . S
C526 H517 0.929 . S
C526 C518 1.378 . S
C526 C521 1.350 . S
C527 H514 0.929 . S
C527 C519 1.433 . S
C527 N529 1.384 . S
N528 C524 1.427 . S
N528 C525 1.384 . S
N529 C521 1.427 . S
N529 C527 1.384 . S
H530 C536 0.930 . S
H531 C540 0.930 . S
H532 C545 0.929 . S
H533 C543 0.929 . S
H534 C538 0.929 . S
H535 C544 0.929 . S
C536 H530 0.930 . S
C536 C537 1.367 . S
C536 C544 1.378 . S
C537 C536 1.367 . S
C537 C545 1.433 . S
C538 H534 0.929 . S
C538 C540 1.378 . S
C538 C542 1.350 . S
C539 C542 1.463 . S
C539 C544 1.350 . S
C539 N547 1.427 . S
C540 H531 0.930 . S
C540 C538 1.378 . S
C540 C541 1.367 . S
C541 C540 1.367 . S
C541 C543 1.433 . S
C542 C538 1.350 . S
C542 C539 1.463 . S
C542 N546 1.427 . S
C543 H533 0.929 . S
C543 C541 1.433 . S
C543 N546 1.384 . S
C544 H535 0.929 . S
C544 C536 1.378 . S
C544 C539 1.350 . S
C545 H532 0.929 . S
C545 C537 1.433 . S
C545 N547 1.384 . S
N546 C542 1.427 . S
N546 C543 1.384 . S
N547 C539 1.427 . S
N547 C545 1.384 . S
H548 C554 0.930 . S
H549 C558 0.930 . S
H550 C563 0.929 . S
H551 C561 0.929 . S
H552 C556 0.929 . S
H553 C562 0.929 . S
C554 H548 0.930 . S
C554 C555 1.367 . S
C554 C562 1.378 . S
C555 C554 1.367 . S
C555 C563 1.433 . S
C556 H552 0.929 . S
C556 C558 1.378 . S
C556 C560 1.350 . S
C557 C560 1.463 . S
C557 C562 1.350 . S
C557 N565 1.427 . S
C558 H549 0.930 . S
C558 C556 1.378 . S
C558 C559 1.367 . S
C559 C558 1.367 . S
C559 C561 1.433 . S
C560 C556 1.350 . S
C560 C557 1.463 . S
C560 N564 1.427 . S
C561 H551 0.929 . S
C561 C559 1.433 . S
C561 N564 1.384 . S
C562 H553 0.929 . S
C562 C554 1.378 . S
C562 C557 1.350 . S
C563 H550 0.929 . S
C563 C555 1.433 . S
C563 N565 1.384 . S
N564 C560 1.427 . S
N564 C561 1.384 . S
N565 C557 1.427 . S
N565 C563 1.384 . S
H566 C572 0.930 . S
H567 C576 0.905 1_655 S
H568 C581 0.929 . S
H569 C579 0.929 . S
H570 C574 0.929 . S
H571 C580 0.929 . S
C572 H566 0.930 . S
C572 C573 1.367 . S
C572 C580 1.378 . S
C573 C572 1.367 . S
C573 C581 1.433 . S
C574 H570 0.929 . S
C574 C576 1.378 . S
C574 C578 1.350 . S
C575 C578 1.463 . S
C575 C580 1.350 . S
C575 N583 1.427 . S
C576 H567 0.905 1_455 S
C576 C574 1.378 . S
C576 C577 1.367 . S
C577 C576 1.367 . S
C577 C579 1.433 . S
C578 C574 1.350 . S
C578 C575 1.463 . S
C578 N582 1.427 . S
C579 H569 0.929 . S
C579 C577 1.433 . S
C579 N582 1.384 . S
C580 H571 0.929 . S
C580 C572 1.378 . S
C580 C575 1.350 . S
C581 H568 0.929 . S
C581 C573 1.433 . S
C581 N583 1.384 . S
N582 C578 1.427 . S
N582 C579 1.384 . S
N583 C575 1.427 . S
N583 C581 1.384 . S
H584 C590 0.930 . S
H585 C594 0.930 . S
H586 C599 0.929 . S
H587 C597 0.929 . S
H588 C592 0.929 . S
H589 C598 0.929 . S
C590 H584 0.930 . S
C590 C591 1.367 . S
C590 C598 1.378 . S
C591 C590 1.367 . S
C591 C599 1.433 . S
C592 H588 0.929 . S
C592 C594 1.378 . S
C592 C596 1.350 . S
C593 C596 1.463 . S
C593 C598 1.350 . S
C593 N601 1.427 . S
C594 H585 0.930 . S
C594 C592 1.378 . S
C594 C595 1.367 . S
C595 C594 1.367 . S
C595 C597 1.433 . S
C596 C592 1.350 . S
C596 C593 1.463 . S
C596 N600 1.427 . S
C597 H587 0.929 . S
C597 C595 1.433 . S
C597 N600 1.384 . S
C598 H589 0.929 . S
C598 C590 1.378 . S
C598 C593 1.350 . S
C599 H586 0.929 . S
C599 C591 1.433 . S
C599 N601 1.384 . S
N600 C596 1.427 . S
N600 C597 1.384 . S
N601 C593 1.427 . S
N601 C599 1.384 . S
H602 C608 0.930 . S
H603 C612 0.930 . S
H604 C617 0.929 . S
H605 C615 0.929 . S
H606 C610 0.929 . S
H607 C616 0.929 . S
C608 H602 0.930 . S
C608 C609 1.367 1_455 S
C608 C616 1.378 . S
C609 C608 1.367 1_655 S
C609 C617 1.433 . S
C610 H606 0.929 . S
C610 C612 1.378 . S
C610 C614 1.350 . S
C611 C614 1.463 . S
C611 C616 1.350 1_655 S
C611 N619 1.427 . S
C612 H603 0.930 . S
C612 C610 1.378 . S
C612 C613 1.367 1_655 S
C613 C612 1.367 1_455 S
C613 C615 1.433 . S
C614 C610 1.350 . S
C614 C611 1.463 . S
C614 N618 1.427 1_655 S
C615 H605 0.929 . S
C615 C613 1.433 . S
C615 N618 1.384 . S
C616 H607 0.929 . S
C616 C608 1.378 . S
C616 C611 1.350 1_455 S
C617 H604 0.929 . S
C617 C609 1.433 . S
C617 N619 1.384 . S
N618 C614 1.427 1_455 S
N618 C615 1.384 . S
N619 C611 1.427 . S
N619 C617 1.384 . S
H620 C626 0.930 . S
H621 C630 0.930 . S
H622 C635 0.929 . S
H623 C633 0.929 . S
H624 C628 0.929 . S
H625 C634 0.929 . S
C626 H620 0.930 . S
C626 C627 1.367 . S
C626 C634 1.378 . S
C627 C626 1.367 . S
C627 C635 1.433 . S
C628 H624 0.929 . S
C628 C630 1.378 . S
C628 C632 1.350 . S
C629 C632 1.463 . S
C629 C634 1.350 . S
C629 N637 1.427 . S
C630 H621 0.930 . S
C630 C628 1.378 . S
C630 C631 1.367 . S
C631 C630 1.367 . S
C631 C633 1.433 . S
C632 C628 1.350 . S
C632 C629 1.463 . S
C632 N636 1.427 . S
C633 H623 0.929 . S
C633 C631 1.433 . S
C633 N636 1.384 . S
C634 H625 0.929 . S
C634 C626 1.378 . S
C634 C629 1.350 . S
C635 H622 0.929 . S
C635 C627 1.433 . S
C635 N637 1.384 . S
N636 C632 1.427 . S
N636 C633 1.384 . S
N637 C629 1.427 . S
N637 C635 1.384 . S
H638 C644 0.930 . S
H639 C648 0.930 . S
H640 C653 0.929 . S
H641 C651 0.929 . S
H642 C646 0.929 . S
H643 C652 0.929 . S
C644 H638 0.930 . S
C644 C645 1.367 . S
C644 C652 1.378 . S
C645 C644 1.367 . S
C645 C653 1.433 . S
C646 H642 0.929 . S
C646 C648 1.378 . S
C646 C650 1.350 . S
C647 C650 1.463 . S
C647 C652 1.350 . S
C647 N655 1.427 . S
C648 H639 0.930 . S
C648 C646 1.378 . S
C648 C649 1.367 . S
C649 C648 1.367 . S
C649 C651 1.433 . S
C650 C646 1.350 . S
C650 C647 1.463 . S
C650 N654 1.427 . S
C651 H641 0.929 . S
C651 C649 1.433 . S
C651 N654 1.384 . S
C652 H643 0.929 . S
C652 C644 1.378 . S
C652 C647 1.350 . S
C653 H640 0.929 . S
C653 C645 1.433 . S
C653 N655 1.384 . S
N654 C650 1.427 . S
N654 C651 1.384 . S
N655 C647 1.427 . S
N655 C653 1.384 . S
H656 C662 0.930 . S
H657 C666 0.930 1_556 S
H658 C671 0.930 1_545 S
H659 C669 0.929 . S
H660 C664 0.929 . S
H661 C670 0.929 . S
C662 H656 0.930 . S
C662 C663 1.367 1_554 S
C662 C670 1.378 1_545 S
C663 C662 1.367 1_556 S
C663 C671 1.433 1_545 S
C664 H660 0.929 . S
C664 C666 1.378 1_556 S
C664 C668 1.350 1_556 S
C665 C668 1.463 . S
C665 C670 1.350 . S
C665 N673 1.427 1_554 S
C666 H657 0.930 1_554 S
C666 C664 1.378 1_554 S
C666 C667 1.367 . S
C667 C666 1.367 . S
C667 C669 1.433 . S
C668 C664 1.350 1_554 S
C668 C665 1.463 . S
C668 N672 1.427 . S
C669 H659 0.929 . S
C669 C667 1.433 . S
C669 N672 1.384 . S
C670 H661 0.929 . S
C670 C662 1.378 1_565 S
C670 C665 1.350 . S
C671 H658 0.930 1_565 S
C671 C663 1.433 1_565 S
C671 N673 1.384 . S
N672 C668 1.427 . S
N672 C669 1.384 . S
N673 C665 1.427 1_556 S
N673 C671 1.384 . S
H674 C680 0.930 . S
H675 C684 0.930 . S
H676 C689 0.929 . S
H677 C687 0.929 . S
H678 C682 0.929 . S
H679 C688 0.929 . S
C680 H674 0.930 . S
C680 C681 1.367 . S
C680 C688 1.378 . S
C681 C680 1.367 . S
C681 C689 1.433 . S
C682 H678 0.929 . S
C682 C684 1.378 . S
C682 C686 1.350 . S
C683 C686 1.463 . S
C683 C688 1.350 . S
C683 N691 1.427 . S
C684 H675 0.930 . S
C684 C682 1.378 . S
C684 C685 1.367 . S
C685 C684 1.367 . S
C685 C687 1.433 . S
C686 C682 1.350 . S
C686 C683 1.463 . S
C686 N690 1.427 . S
C687 H677 0.929 . S
C687 C685 1.433 . S
C687 N690 1.384 . S
C688 H679 0.929 . S
C688 C680 1.378 . S
C688 C683 1.350 . S
C689 H676 0.929 . S
C689 C681 1.433 . S
C689 N691 1.384 . S
N690 C686 1.427 . S
N690 C687 1.384 . S
N691 C683 1.427 . S
N691 C689 1.384 . S
H692 C698 0.930 . S
H693 C702 0.930 . S
H694 C707 0.929 . S
H695 C705 0.929 . S
H696 C700 0.929 . S
H697 C706 0.929 . S
C698 H692 0.930 . S
C698 C699 1.367 . S
C698 C706 1.378 . S
C699 C698 1.367 . S
C699 C707 1.433 . S
C700 H696 0.929 . S
C700 C702 1.378 . S
C700 C704 1.350 . S
C701 C704 1.463 . S
C701 C706 1.350 . S
C701 N709 1.427 . S
C702 H693 0.930 . S
C702 C700 1.378 . S
C702 C703 1.367 . S
C703 C702 1.367 . S
C703 C705 1.433 . S
C704 C700 1.350 . S
C704 C701 1.463 . S
C704 N708 1.427 . S
C705 H695 0.929 . S
C705 C703 1.433 . S
C705 N708 1.384 . S
C706 H697 0.929 . S
C706 C698 1.378 . S
C706 C701 1.350 . S
C707 H694 0.929 . S
C707 C699 1.433 . S
C707 N709 1.384 . S
N708 C704 1.427 . S
N708 C705 1.384 . S
N709 C701 1.427 . S
N709 C707 1.384 . S
H710 C716 0.930 . S
H711 C720 0.930 . S
H712 C725 0.929 . S
H713 C723 0.929 . S
H714 C718 0.929 . S
H715 C724 0.929 . S
C716 H710 0.930 . S
C716 C717 1.367 . S
C716 C724 1.378 . S
C717 C716 1.367 . S
C717 C725 1.433 . S
C718 H714 0.929 . S
C718 C720 1.378 . S
C718 C722 1.350 . S
C719 C722 1.463 . S
C719 C724 1.350 . S
C719 N727 1.427 . S
C720 H711 0.930 . S
C720 C718 1.378 . S
C720 C721 1.367 . S
C721 C720 1.367 . S
C721 C723 1.433 . S
C722 C718 1.350 . S
C722 C719 1.463 . S
C722 N726 1.427 . S
C723 H713 0.929 . S
C723 C721 1.433 . S
C723 N726 1.384 . S
C724 H715 0.929 . S
C724 C716 1.378 . S
C724 C719 1.350 . S
C725 H712 0.929 . S
C725 C717 1.433 . S
C725 N727 1.384 . S
N726 C722 1.427 . S
N726 C723 1.384 . S
N727 C719 1.427 . S
N727 C725 1.384 . S
H728 C734 0.930 . S
H729 C738 0.930 . S
H730 C743 0.929 . S
H731 C741 0.929 . S
H732 C736 0.929 . S
H733 C742 0.929 . S
C734 H728 0.930 . S
C734 C735 1.367 . S
C734 C742 1.378 . S
C735 C734 1.367 . S
C735 C743 1.433 . S
C736 H732 0.929 . S
C736 C738 1.378 . S
C736 C740 1.350 . S
C737 C740 1.463 . S
C737 C742 1.350 . S
C737 N745 1.427 . S
C738 H729 0.930 . S
C738 C736 1.378 . S
C738 C739 1.367 . S
C739 C738 1.367 . S
C739 C741 1.433 . S
C740 C736 1.350 . S
C740 C737 1.463 . S
C740 N744 1.427 . S
C741 H731 0.929 . S
C741 C739 1.433 . S
C741 N744 1.384 . S
C742 H733 0.929 . S
C742 C734 1.378 . S
C742 C737 1.350 . S
C743 H730 0.929 . S
C743 C735 1.433 . S
C743 N745 1.384 . S
N744 C740 1.427 . S
N744 C741 1.384 . S
N745 C737 1.427 . S
N745 C743 1.384 . S
H746 C752 0.930 . S
H747 C756 0.930 . S
H748 C761 0.929 . S
H749 C759 0.929 . S
H750 C754 0.929 . S
H751 C760 0.929 . S
C752 H746 0.930 . S
C752 C753 1.367 . S
C752 C760 1.378 . S
C753 C752 1.367 . S
C753 C761 1.433 . S
C754 H750 0.929 . S
C754 C756 1.378 . S
C754 C758 1.350 . S
C755 C758 1.463 . S
C755 C760 1.350 . S
C755 N763 1.427 . S
C756 H747 0.930 . S
C756 C754 1.378 . S
C756 C757 1.367 . S
C757 C756 1.367 . S
C757 C759 1.433 . S
C758 C754 1.350 . S
C758 C755 1.463 . S
C758 N762 1.427 . S
C759 H749 0.929 . S
C759 C757 1.433 . S
C759 N762 1.384 . S
C760 H751 0.929 . S
C760 C752 1.378 . S
C760 C755 1.350 . S
C761 H748 0.929 . S
C761 C753 1.433 . S
C761 N763 1.384 . S
N762 C758 1.427 . S
N762 C759 1.384 . S
N763 C755 1.427 . S
N763 C761 1.384 . S
H764 C770 0.930 . S
H765 C774 0.930 . S
H766 C779 0.929 . S
H767 C777 0.929 . S
H768 C772 0.929 . S
H769 C778 0.929 . S
C770 H764 0.930 . S
C770 C771 1.367 . S
C770 C778 1.378 . S
C771 C770 1.367 . S
C771 C779 1.433 . S
C772 H768 0.929 . S
C772 C774 1.378 . S
C772 C776 1.350 . S
C773 C776 1.463 . S
C773 C778 1.350 . S
C773 N781 1.427 . S
C774 H765 0.930 . S
C774 C772 1.378 . S
C774 C775 1.367 . S
C775 C774 1.367 . S
C775 C777 1.433 . S
C776 C772 1.350 . S
C776 C773 1.463 . S
C776 N780 1.427 . S
C777 H767 0.929 . S
C777 C775 1.433 . S
C777 N780 1.384 . S
C778 H769 0.929 . S
C778 C770 1.378 . S
C778 C773 1.350 . S
C779 H766 0.929 . S
C779 C771 1.433 . S
C779 N781 1.384 . S
N780 C776 1.427 . S
N780 C777 1.384 . S
N781 C773 1.427 . S
N781 C779 1.384 . S
H782 C788 0.930 . S
H783 C792 0.930 . S
H784 C797 0.929 1_565 S
H785 C795 0.929 . S
H786 C790 0.962 . S
H787 C796 0.929 . S
C788 H782 0.930 . S
C788 C789 1.367 . S
C788 C796 1.378 . S
C789 C788 1.367 . S
C789 C797 1.433 . S
C790 H786 0.962 . S
C790 C792 1.381 . S
C790 C794 1.314 1_565 S
C791 C794 1.463 . S
C791 C796 1.350 . S
C791 N799 1.427 . S
C792 H783 0.930 . S
C792 C790 1.381 . S
C792 C793 1.367 1_565 S
C793 C792 1.367 1_545 S
C793 C795 1.433 . S
C794 C790 1.314 1_545 S
C794 C791 1.463 . S
C794 N798 1.427 . S
C795 H785 0.929 . S
C795 C793 1.433 . S
C795 N798 1.384 . S
C796 H787 0.929 . S
C796 C788 1.378 . S
C796 C791 1.350 . S
C797 H784 0.929 1_545 S
C797 C789 1.433 . S
C797 N799 1.384 . S
N798 C794 1.427 . S
N798 C795 1.384 . S
N799 C791 1.427 . S
N799 C797 1.384 . S
H800 C806 0.930 . S
H801 C810 0.930 . S
H802 C815 0.929 . S
H803 C813 0.929 . S
H804 C808 0.929 . S
H805 C814 0.929 . S
C806 H800 0.930 . S
C806 C807 1.367 . S
C806 C814 1.378 . S
C807 C806 1.367 . S
C807 C815 1.433 . S
C808 H804 0.929 . S
C808 C810 1.378 . S
C808 C812 1.350 . S
C809 C812 1.463 . S
C809 C814 1.350 . S
C809 N817 1.427 . S
C810 H801 0.930 . S
C810 C808 1.378 . S
C810 C811 1.367 . S
C811 C810 1.367 . S
C811 C813 1.433 . S
C812 C808 1.350 . S
C812 C809 1.463 . S
C812 N816 1.427 . S
C813 H803 0.929 . S
C813 C811 1.433 . S
C813 N816 1.384 . S
C814 H805 0.929 . S
C814 C806 1.378 . S
C814 C809 1.350 . S
C815 H802 0.929 . S
C815 C807 1.433 . S
C815 N817 1.384 . S
N816 C812 1.427 . S
N816 C813 1.384 . S
N817 C809 1.427 . S
N817 C815 1.384 . S
H818 C824 0.930 . S
H819 C828 0.930 . S
H820 C833 0.929 . S
H821 C831 0.929 . S
H822 C826 0.929 . S
H823 C832 0.929 . S
C824 H818 0.930 . S
C824 C825 1.367 . S
C824 C832 1.378 . S
C825 C824 1.367 . S
C825 C833 1.433 . S
C826 H822 0.929 . S
C826 C828 1.378 . S
C826 C830 1.350 . S
C827 C830 1.463 . S
C827 C832 1.350 . S
C827 N835 1.427 . S
C828 H819 0.930 . S
C828 C826 1.378 . S
C828 C829 1.367 . S
C829 C828 1.367 . S
C829 C831 1.433 . S
C830 C826 1.350 . S
C830 C827 1.463 . S
C830 N834 1.427 . S
C831 H821 0.929 . S
C831 C829 1.433 . S
C831 N834 1.384 . S
C832 H823 0.929 . S
C832 C824 1.378 . S
C832 C827 1.350 . S
C833 H820 0.929 . S
C833 C825 1.433 . S
C833 N835 1.384 . S
N834 C830 1.427 . S
N834 C831 1.384 . S
N835 C827 1.427 . S
N835 C833 1.384 . S
H836 C842 0.930 . S
H837 C846 0.930 . S
H838 C851 0.929 . S
H839 C849 0.929 . S
H840 C844 0.929 . S
H841 C850 0.929 . S
C842 H836 0.930 . S
C842 C843 1.367 . S
C842 C850 1.378 . S
C843 C842 1.367 . S
C843 C851 1.433 . S
C844 H840 0.929 . S
C844 C846 1.378 . S
C844 C848 1.350 . S
C845 C848 1.463 . S
C845 C850 1.350 . S
C845 N853 1.427 . S
C846 H837 0.930 . S
C846 C844 1.378 . S
C846 C847 1.367 . S
C847 C846 1.367 . S
C847 C849 1.433 . S
C848 C844 1.350 . S
C848 C845 1.463 . S
C848 N852 1.427 . S
C849 H839 0.929 . S
C849 C847 1.433 . S
C849 N852 1.384 . S
C850 H841 0.929 . S
C850 C842 1.378 . S
C850 C845 1.350 . S
C851 H838 0.929 . S
C851 C843 1.433 . S
C851 N853 1.384 . S
N852 C848 1.427 . S
N852 C849 1.384 . S
N853 C845 1.427 . S
N853 C851 1.384 . S
H854 C860 0.930 . S
H855 C864 0.930 . S
H856 C869 0.929 . S
H857 C867 0.929 . S
H858 C862 0.929 . S
H859 C868 0.929 1_655 S
C860 H854 0.930 . S
C860 C861 1.367 . S
C860 C868 1.378 . S
C861 C860 1.367 . S
C861 C869 1.433 . S
C862 H858 0.929 . S
C862 C864 1.378 1_455 S
C862 C866 1.350 1_455 S
C863 C866 1.463 1_455 S
C863 C868 1.350 . S
C863 N871 1.427 . S
C864 H855 0.930 . S
C864 C862 1.378 1_655 S
C864 C865 1.367 . S
C865 C864 1.367 . S
C865 C867 1.433 . S
C866 C862 1.350 1_655 S
C866 C863 1.463 1_655 S
C866 N870 1.427 . S
C867 H857 0.929 . S
C867 C865 1.433 . S
C867 N870 1.384 . S
C868 H859 0.929 1_455 S
C868 C860 1.378 . S
C868 C863 1.350 . S
C869 H856 0.929 . S
C869 C861 1.433 . S
C869 N871 1.384 . S
N870 C866 1.427 . S
N870 C867 1.384 . S
N871 C863 1.427 . S
N871 C869 1.384 . S
H872 C878 0.930 . S
H873 C882 0.930 . S
H874 C887 0.929 . S
H875 C885 0.929 . S
H876 C880 0.929 . S
H877 C886 0.929 . S
C878 H872 0.930 . S
C878 C879 1.367 . S
C878 C886 1.378 . S
C879 C878 1.367 . S
C879 C887 1.433 . S
C880 H876 0.929 . S
C880 C882 1.378 . S
C880 C884 1.350 . S
C881 C884 1.463 . S
C881 C886 1.350 . S
C881 N889 1.427 . S
C882 H873 0.930 . S
C882 C880 1.378 . S
C882 C883 1.367 . S
C883 C882 1.367 . S
C883 C885 1.433 . S
C884 C880 1.350 . S
C884 C881 1.463 . S
C884 N888 1.427 . S
C885 H875 0.929 . S
C885 C883 1.433 . S
C885 N888 1.384 . S
C886 H877 0.929 . S
C886 C878 1.378 . S
C886 C881 1.350 . S
C887 H874 0.929 . S
C887 C879 1.433 . S
C887 N889 1.384 . S
N888 C884 1.427 . S
N888 C885 1.384 . S
N889 C881 1.427 . S
N889 C887 1.384 . S
H890 C896 0.935 1_655 S
H891 C900 0.930 . S
H892 C905 0.929 . S
H893 C903 0.929 . S
H894 C898 0.929 . S
H895 C904 0.929 . S
C896 H890 0.935 1_455 S
C896 C897 1.367 . S
C896 C904 1.378 . S
C897 C896 1.367 . S
C897 C905 1.433 . S
C898 H894 0.929 . S
C898 C900 1.378 . S
C898 C902 1.350 . S
C899 C902 1.463 . S
C899 C904 1.350 . S
C899 N907 1.427 . S
C900 H891 0.930 . S
C900 C898 1.378 . S
C900 C901 1.367 . S
C901 C900 1.367 . S
C901 C903 1.433 . S
C902 C898 1.350 . S
C902 C899 1.463 . S
C902 N906 1.427 . S
C903 H893 0.929 . S
C903 C901 1.433 . S
C903 N906 1.384 . S
C904 H895 0.929 . S
C904 C896 1.378 . S
C904 C899 1.350 . S
C905 H892 0.929 . S
C905 C897 1.433 . S
C905 N907 1.384 . S
N906 C902 1.427 . S
N906 C903 1.384 . S
N907 C899 1.427 . S
N907 C905 1.384 . S
H908 C914 0.930 . S
H909 C918 0.930 . S
H910 C923 0.929 . S
H911 C921 0.929 . S
H912 C916 0.929 . S
H913 C922 0.929 . S
C914 H908 0.930 . S
C914 C915 1.367 . S
C914 C922 1.378 . S
C915 C914 1.367 . S
C915 C923 1.433 . S
C916 H912 0.929 . S
C916 C918 1.378 . S
C916 C920 1.350 . S
C917 C920 1.463 . S
C917 C922 1.350 . S
C917 N925 1.427 . S
C918 H909 0.930 . S
C918 C916 1.378 . S
C918 C919 1.367 . S
C919 C918 1.367 . S
C919 C921 1.433 . S
C920 C916 1.350 . S
C920 C917 1.463 . S
C920 N924 1.427 . S
C921 H911 0.929 . S
C921 C919 1.433 . S
C921 N924 1.384 . S
C922 H913 0.929 . S
C922 C914 1.378 . S
C922 C917 1.350 . S
C923 H910 0.929 . S
C923 C915 1.433 . S
C923 N925 1.384 . S
N924 C920 1.427 . S
N924 C921 1.384 . S
N925 C917 1.427 . S
N925 C923 1.384 . S
H926 C932 0.930 . S
H927 C936 0.930 . S
H928 C941 0.929 . S
H929 C939 0.929 . S
H930 C934 0.929 . S
H931 C940 0.929 . S
C932 H926 0.930 . S
C932 C933 1.367 1_655 S
C932 C940 1.378 1_554 S
C933 C932 1.367 1_455 S
C933 C941 1.433 1_554 S
C934 H930 0.929 . S
C934 C936 1.378 . S
C934 C938 1.350 . S
C935 C938 1.463 . S
C935 C940 1.350 1_455 S
C935 N943 1.427 . S
C936 H927 0.930 . S
C936 C934 1.378 . S
C936 C937 1.367 . S
C937 C936 1.367 . S
C937 C939 1.433 1_455 S
C938 C934 1.350 . S
C938 C935 1.463 . S
C938 N942 1.427 1_455 S
C939 H929 0.929 . S
C939 C937 1.433 1_655 S
C939 N942 1.384 . S
C940 H931 0.929 . S
C940 C932 1.378 1_556 S
C940 C935 1.350 1_655 S
C941 H928 0.929 . S
C941 C933 1.433 1_556 S
C941 N943 1.384 . S
N942 C938 1.427 1_655 S
N942 C939 1.384 . S
N943 C935 1.427 . S
N943 C941 1.384 . S
H944 C950 0.930 . S
H945 C954 0.930 . S
H946 C959 0.929 . S
H947 C957 0.929 . S
H948 C952 0.929 . S
H949 C958 0.929 . S
C950 H944 0.930 . S
C950 C951 1.367 . S
C950 C958 1.378 . S
C951 C950 1.367 . S
C951 C959 1.433 . S
C952 H948 0.929 . S
C952 C954 1.378 . S
C952 C956 1.350 . S
C953 C956 1.463 . S
C953 C958 1.350 . S
C953 N961 1.427 . S
C954 H945 0.930 . S
C954 C952 1.378 . S
C954 C955 1.367 . S
C955 C954 1.367 . S
C955 C957 1.433 . S
C956 C952 1.350 . S
C956 C953 1.463 . S
C956 N960 1.427 . S
C957 H947 0.929 . S
C957 C955 1.433 . S
C957 N960 1.384 . S
C958 H949 0.929 . S
C958 C950 1.378 . S
C958 C953 1.350 . S
C959 H946 0.929 . S
C959 C951 1.433 . S
C959 N961 1.384 . S
N960 C956 1.427 . S
N960 C957 1.384 . S
N961 C953 1.427 . S
N961 C959 1.384 . S
H962 C968 0.930 . S
H963 C972 0.930 1_655 S
H964 C977 0.939 . S
H965 C975 0.929 . S
H966 C970 0.929 . S
H967 C976 0.929 . S
C968 H962 0.930 . S
C968 C969 1.367 . S
C968 C976 1.378 1_554 S
C969 C968 1.367 . S
C969 C977 1.433 1_554 S
C970 H966 0.929 . S
C970 C972 1.378 . S
C970 C974 1.350 . S
C971 C974 1.463 . S
C971 C976 1.350 . S
C971 N979 1.427 . S
C972 H963 0.930 1_455 S
C972 C970 1.378 . S
C972 C973 1.367 . S
C973 C972 1.367 . S
C973 C975 1.433 . S
C974 C970 1.350 . S
C974 C971 1.463 . S
C974 N978 1.427 . S
C975 H965 0.929 . S
C975 C973 1.433 . S
C975 N978 1.384 . S
C976 H967 0.929 . S
C976 C968 1.378 1_556 S
C976 C971 1.350 . S
C977 H964 0.939 . S
C977 C969 1.433 1_556 S
C977 N979 1.384 . S
N978 C974 1.427 . S
N978 C975 1.384 . S
N979 C971 1.427 . S
N979 C977 1.384 . S
H980 C986 0.930 . S
H981 C990 0.930 . S
H982 C995 0.929 . S
H983 C993 0.929 . S
H984 C988 0.929 . S
H985 C994 0.929 . S
C986 H980 0.930 . S
C986 C987 1.367 . S
C986 C994 1.378 . S
C987 C986 1.367 . S
C987 C995 1.433 . S
C988 H984 0.929 . S
C988 C990 1.378 . S
C988 C992 1.350 . S
C989 C992 1.463 . S
C989 C994 1.350 . S
C989 N997 1.427 . S
C990 H981 0.930 . S
C990 C988 1.378 . S
C990 C991 1.367 . S
C991 C990 1.367 . S
C991 C993 1.433 . S
C992 C988 1.350 . S
C992 C989 1.463 . S
C992 N996 1.427 . S
C993 H983 0.929 . S
C993 C991 1.433 . S
C993 N996 1.384 . S
C994 H985 0.929 . S
C994 C986 1.378 . S
C994 C989 1.350 . S
C995 H982 0.929 . S
C995 C987 1.433 . S
C995 N997 1.384 . S
N996 C992 1.427 . S
N996 C993 1.384 . S
N997 C989 1.427 . S
N997 C995 1.384 . S
H998 C1004 0.930 . S
H999 C1008 0.930 . S
H1000 C1013 0.929 . S
H1001 C1011 0.929 . S
H1002 C1006 0.929 . S
H1003 C1012 0.929 . S
C1004 H998 0.930 . S
C1004 C1005 1.367 . S
C1004 C1012 1.378 . S
C1005 C1004 1.367 . S
C1005 C1013 1.433 . S
C1006 H1002 0.929 . S
C1006 C1008 1.378 . S
C1006 C1010 1.350 . S
C1007 C1010 1.463 . S
C1007 C1012 1.350 . S
C1007 N1015 1.427 . S
C1008 H999 0.930 . S
C1008 C1006 1.378 . S
C1008 C1009 1.367 . S
C1009 C1008 1.367 . S
C1009 C1011 1.433 . S
C1010 C1006 1.350 . S
C1010 C1007 1.463 . S
C1010 N1014 1.427 . S
C1011 H1001 0.929 . S
C1011 C1009 1.433 . S
C1011 N1014 1.384 . S
C1012 H1003 0.929 . S
C1012 C1004 1.378 . S
C1012 C1007 1.350 . S
C1013 H1000 0.929 . S
C1013 C1005 1.433 . S
C1013 N1015 1.384 . S
N1014 C1010 1.427 . S
N1014 C1011 1.384 . S
N1015 C1007 1.427 . S
N1015 C1013 1.384 . S
H1016 C1022 0.930 . S
H1017 C1026 0.930 . S
H1018 C1031 0.929 . S
H1019 C1029 0.929 . S
H1020 C1024 0.929 . S
H1021 C1030 0.929 . S
C1022 H1016 0.930 . S
C1022 C1023 1.367 . S
C1022 C1030 1.378 . S
C1023 C1022 1.367 . S
C1023 C1031 1.433 . S
C1024 H1020 0.929 . S
C1024 C1026 1.378 . S
C1024 C1028 1.350 . S
C1025 C1028 1.463 . S
C1025 C1030 1.350 . S
C1025 N1033 1.427 . S
C1026 H1017 0.930 . S
C1026 C1024 1.378 . S
C1026 C1027 1.367 . S
C1027 C1026 1.367 . S
C1027 C1029 1.433 . S
C1028 C1024 1.350 . S
C1028 C1025 1.463 . S
C1028 N1032 1.427 . S
C1029 H1019 0.929 . S
C1029 C1027 1.433 . S
C1029 N1032 1.384 . S
C1030 H1021 0.929 . S
C1030 C1022 1.378 . S
C1030 C1025 1.350 . S
C1031 H1018 0.929 . S
C1031 C1023 1.433 . S
C1031 N1033 1.384 . S
N1032 C1028 1.427 . S
N1032 C1029 1.384 . S
N1033 C1025 1.427 . S
N1033 C1031 1.384 . S
H1034 C1040 0.930 . S
H1035 C1044 0.930 . S
H1036 C1049 0.929 1_556 S
H1037 C1047 0.929 . S
H1038 C1042 0.929 . S
H1039 C1048 0.929 . S
C1040 H1034 0.930 . S
C1040 C1041 1.367 . S
C1040 C1048 1.378 . S
C1041 C1040 1.367 . S
C1041 C1049 1.433 . S
C1042 H1038 0.929 . S
C1042 C1044 1.378 . S
C1042 C1046 1.350 . S
C1043 C1046 1.463 . S
C1043 C1048 1.350 . S
C1043 N1051 1.427 . S
C1044 H1035 0.930 . S
C1044 C1042 1.378 . S
C1044 C1045 1.367 . S
C1045 C1044 1.367 . S
C1045 C1047 1.433 . S
C1046 C1042 1.350 . S
C1046 C1043 1.463 . S
C1046 N1050 1.427 . S
C1047 H1037 0.929 . S
C1047 C1045 1.433 . S
C1047 N1050 1.384 . S
C1048 H1039 0.929 . S
C1048 C1040 1.378 . S
C1048 C1043 1.350 . S
C1049 H1036 0.929 1_554 S
C1049 C1041 1.433 . S
C1049 N1051 1.384 . S
N1050 C1046 1.427 . S
N1050 C1047 1.384 . S
N1051 C1043 1.427 . S
N1051 C1049 1.384 . S
H1052 C1058 0.930 . S
H1053 C1062 0.930 . S
H1054 C1067 0.929 . S
H1055 C1065 0.929 . S
H1056 C1060 0.929 . S
H1057 C1066 0.929 . S
C1058 H1052 0.930 . S
C1058 C1059 1.367 . S
C1058 C1066 1.378 . S
C1059 C1058 1.367 . S
C1059 C1067 1.433 . S
C1060 H1056 0.929 . S
C1060 C1062 1.378 . S
C1060 C1064 1.350 . S
C1061 C1064 1.463 . S
C1061 C1066 1.350 . S
C1061 N1069 1.427 . S
C1062 H1053 0.930 . S
C1062 C1060 1.378 . S
C1062 C1063 1.367 . S
C1063 C1062 1.367 . S
C1063 C1065 1.433 . S
C1064 C1060 1.350 . S
C1064 C1061 1.463 . S
C1064 N1068 1.427 . S
C1065 H1055 0.929 . S
C1065 C1063 1.433 . S
C1065 N1068 1.384 . S
C1066 H1057 0.929 . S
C1066 C1058 1.378 . S
C1066 C1061 1.350 . S
C1067 H1054 0.929 . S
C1067 C1059 1.433 . S
C1067 N1069 1.384 . S
N1068 C1064 1.427 . S
N1068 C1065 1.384 . S
N1069 C1061 1.427 . S
N1069 C1067 1.384 . S
H1070 C1076 0.930 . S
H1071 C1080 0.930 . S
H1072 C1085 0.929 . S
H1073 C1083 0.929 . S
H1074 C1078 0.929 . S
H1075 C1084 0.929 . S
C1076 H1070 0.930 . S
C1076 C1077 1.367 . S
C1076 C1084 1.378 . S
C1077 C1076 1.367 . S
C1077 C1085 1.433 . S
C1078 H1074 0.929 . S
C1078 C1080 1.378 . S
C1078 C1082 1.350 . S
C1079 C1082 1.463 . S
C1079 C1084 1.350 . S
C1079 N1087 1.427 . S
C1080 H1071 0.930 . S
C1080 C1078 1.378 . S
C1080 C1081 1.367 . S
C1081 C1080 1.367 . S
C1081 C1083 1.433 . S
C1082 C1078 1.350 . S
C1082 C1079 1.463 . S
C1082 N1086 1.427 . S
C1083 H1073 0.929 . S
C1083 C1081 1.433 . S
C1083 N1086 1.384 . S
C1084 H1075 0.929 . S
C1084 C1076 1.378 . S
C1084 C1079 1.350 . S
C1085 H1072 0.929 . S
C1085 C1077 1.433 . S
C1085 N1087 1.384 . S
N1086 C1082 1.427 . S
N1086 C1083 1.384 . S
N1087 C1079 1.427 . S
N1087 C1085 1.384 . S
H1088 C1094 0.930 . S
H1089 C1098 0.930 . S
H1090 C1103 0.929 . S
H1091 C1101 0.929 . S
H1092 C1096 0.929 . S
H1093 C1102 0.929 . S
C1094 H1088 0.930 . S
C1094 C1095 1.367 . S
C1094 C1102 1.378 . S
C1095 C1094 1.367 . S
C1095 C1103 1.433 . S
C1096 H1092 0.929 . S
C1096 C1098 1.378 . S
C1096 C1100 1.350 . S
C1097 C1100 1.463 . S
C1097 C1102 1.350 . S
C1097 N1105 1.427 . S
C1098 H1089 0.930 . S
C1098 C1096 1.378 . S
C1098 C1099 1.367 . S
C1099 C1098 1.367 . S
C1099 C1101 1.433 . S
C1100 C1096 1.350 . S
C1100 C1097 1.463 . S
C1100 N1104 1.427 . S
C1101 H1091 0.929 . S
C1101 C1099 1.433 . S
C1101 N1104 1.384 . S
C1102 H1093 0.929 . S
C1102 C1094 1.378 . S
C1102 C1097 1.350 . S
C1103 H1090 0.929 . S
C1103 C1095 1.433 . S
C1103 N1105 1.384 . S
N1104 C1100 1.427 . S
N1104 C1101 1.384 . S
N1105 C1097 1.427 . S
N1105 C1103 1.384 . S
H1106 C1112 0.930 . S
H1107 C1116 0.930 . S
H1108 C1121 0.929 . S
H1109 C1119 0.929 . S
H1110 C1114 0.929 . S
H1111 C1120 0.929 . S
C1112 H1106 0.930 . S
C1112 C1113 1.367 . S
C1112 C1120 1.378 . S
C1113 C1112 1.367 . S
C1113 C1121 1.433 . S
C1114 H1110 0.929 . S
C1114 C1116 1.378 . S
C1114 C1118 1.350 . S
C1115 C1118 1.463 . S
C1115 C1120 1.350 . S
C1115 N1123 1.427 . S
C1116 H1107 0.930 . S
C1116 C1114 1.378 . S
C1116 C1117 1.367 . S
C1117 C1116 1.367 . S
C1117 C1119 1.433 . S
C1118 C1114 1.350 . S
C1118 C1115 1.463 . S
C1118 N1122 1.427 . S
C1119 H1109 0.929 . S
C1119 C1117 1.433 . S
C1119 N1122 1.384 . S
C1120 H1111 0.929 . S
C1120 C1112 1.378 . S
C1120 C1115 1.350 . S
C1121 H1108 0.929 . S
C1121 C1113 1.433 . S
C1121 N1123 1.384 . S
N1122 C1118 1.427 . S
N1122 C1119 1.384 . S
N1123 C1115 1.427 . S
N1123 C1121 1.384 . S
H1124 C1130 0.930 . S
H1125 C1134 0.930 . S
H1126 C1139 0.929 . S
H1127 C1137 0.929 . S
H1128 C1132 0.929 . S
H1129 C1138 0.929 . S
C1130 H1124 0.930 . S
C1130 C1131 1.367 1_554 S
C1130 C1138 1.378 . S
C1131 C1130 1.367 1_556 S
C1131 C1139 1.433 . S
C1132 H1128 0.929 . S
C1132 C1134 1.378 . S
C1132 C1136 1.350 . S
C1133 C1136 1.463 . S
C1133 C1138 1.350 1_556 S
C1133 N1141 1.427 . S
C1134 H1125 0.930 . S
C1134 C1132 1.378 . S
C1134 C1135 1.367 . S
C1135 C1134 1.367 . S
C1135 C1137 1.433 1_556 S
C1136 C1132 1.350 . S
C1136 C1133 1.463 . S
C1136 N1140 1.427 1_556 S
C1137 H1127 0.929 . S
C1137 C1135 1.433 1_554 S
C1137 N1140 1.384 . S
C1138 H1129 0.929 . S
C1138 C1130 1.378 . S
C1138 C1133 1.350 1_554 S
C1139 H1126 0.929 . S
C1139 C1131 1.433 . S
C1139 N1141 1.384 . S
N1140 C1136 1.427 1_554 S
N1140 C1137 1.384 . S
N1141 C1133 1.427 . S
N1141 C1139 1.384 . S
H1142 C1148 0.930 . S
H1143 C1152 0.930 . S
H1144 C1157 0.929 . S
H1145 C1155 0.929 . S
H1146 C1150 0.929 . S
H1147 C1156 0.929 . S
C1148 H1142 0.930 . S
C1148 C1149 1.367 . S
C1148 C1156 1.378 . S
C1149 C1148 1.367 . S
C1149 C1157 1.433 . S
C1150 H1146 0.929 . S
C1150 C1152 1.378 . S
C1150 C1154 1.350 . S
C1151 C1154 1.463 . S
C1151 C1156 1.350 . S
C1151 N1159 1.427 . S
C1152 H1143 0.930 . S
C1152 C1150 1.378 . S
C1152 C1153 1.367 . S
C1153 C1152 1.367 . S
C1153 C1155 1.433 . S
C1154 C1150 1.350 . S
C1154 C1151 1.463 . S
C1154 N1158 1.427 . S
C1155 H1145 0.929 . S
C1155 C1153 1.433 . S
C1155 N1158 1.384 . S
C1156 H1147 0.929 . S
C1156 C1148 1.378 . S
C1156 C1151 1.350 . S
C1157 H1144 0.929 . S
C1157 C1149 1.433 . S
C1157 N1159 1.384 . S
N1158 C1154 1.427 . S
N1158 C1155 1.384 . S
N1159 C1151 1.427 . S
N1159 C1157 1.384 . S
H1160 C1166 0.930 1_556 S
H1161 C1170 0.930 . S
H1162 C1175 0.929 . S
H1163 C1173 0.929 . S
H1164 C1168 0.929 . S
H1165 C1174 0.960 . S
C1166 H1160 0.930 1_554 S
C1166 C1167 1.367 . S
C1166 C1174 1.369 1_554 S
C1167 C1166 1.367 . S
C1167 C1175 1.433 . S
C1168 H1164 0.929 . S
C1168 C1170 1.378 . S
C1168 C1172 1.350 . S
C1169 C1172 1.463 . S
C1169 C1174 1.327 1_554 S
C1169 N1177 1.427 . S
C1170 H1161 0.930 . S
C1170 C1168 1.378 . S
C1170 C1171 1.367 . S
C1171 C1170 1.367 . S
C1171 C1173 1.433 1_554 S
C1172 C1168 1.350 . S
C1172 C1169 1.463 . S
C1172 N1176 1.427 1_554 S
C1173 H1163 0.929 . S
C1173 C1171 1.433 1_556 S
C1173 N1176 1.384 . S
C1174 H1165 0.960 . S
C1174 C1166 1.369 1_556 S
C1174 C1169 1.327 1_556 S
C1175 H1162 0.929 . S
C1175 C1167 1.433 . S
C1175 N1177 1.384 . S
N1176 C1172 1.427 1_556 S
N1176 C1173 1.384 . S
N1177 C1169 1.427 . S
N1177 C1175 1.384 . S
H1178 C1184 0.930 . S
H1179 C1188 0.930 . S
H1180 C1193 0.929 . S
H1181 C1191 0.929 . S
H1182 C1186 0.929 . S
H1183 C1192 0.929 1_565 S
C1184 H1178 0.930 . S
C1184 C1185 1.367 . S
C1184 C1192 1.378 . S
C1185 C1184 1.367 . S
C1185 C1193 1.433 . S
C1186 H1182 0.929 . S
C1186 C1188 1.378 . S
C1186 C1190 1.350 . S
C1187 C1190 1.463 . S
C1187 C1192 1.350 1_565 S
C1187 N1195 1.427 1_565 S
C1188 H1179 0.930 . S
C1188 C1186 1.378 . S
C1188 C1189 1.367 . S
C1189 C1188 1.367 . S
C1189 C1191 1.433 . S
C1190 C1186 1.350 . S
C1190 C1187 1.463 . S
C1190 N1194 1.427 . S
C1191 H1181 0.929 . S
C1191 C1189 1.433 . S
C1191 N1194 1.384 . S
C1192 H1183 0.929 1_545 S
C1192 C1184 1.378 . S
C1192 C1187 1.350 1_545 S
C1193 H1180 0.929 . S
C1193 C1185 1.433 . S
C1193 N1195 1.384 . S
N1194 C1190 1.427 . S
N1194 C1191 1.384 . S
N1195 C1187 1.427 1_545 S
N1195 C1193 1.384 . S
C343 C186 1.514 1_556 S
C339 C60 1.526 . S
C361 C199 1.403 . S
C357 C76 1.413 . S
C375 C81 1.624 . S
C379 C212 1.605 . S
C397 C225 1.579 . S
C393 C48 1.613 . S
C415 C233 1.473 . S
C411 C115 1.487 . S
C433 C246 1.539 . S
C429 C136 1.552 . S
C447 C131 1.395 . S
C451 C259 1.351 . S
C469 C272 1.484 . S
C465 C104 1.504 . S
C483 C126 1.450 . S
C487 C290 1.419 . S
C505 C301 1.416 . S
C501 C103 1.455 . S
C519 C120 1.380 . S
C523 C285 1.351 . S
C541 C293 1.426 . S
C537 C142 1.433 . S
C555 C82 1.478 . S
C559 C316 1.466 . S
C573 C54 1.769 . S
C577 C306 1.739 . S
C591 C65 1.445 . S
C595 C311 1.433 . S
C609 C71 1.336 . S
C613 C314 1.324 . S
C627 C37 1.530 . S
C631 C223 1.513 . S
C645 C158 1.877 . S
C649 C215 1.869 . S
C667 C184 1.452 . S
C663 C169 1.462 . S
C685 C189 1.250 . S
C681 C98 1.271 . S
C699 C49 1.718 1_545 S
C703 C236 1.705 . S
C721 C275 1.446 . S
C717 C125 1.481 . S
C739 C228 1.391 . S
C735 C109 1.398 . S
C757 C254 1.701 . S
C753 C137 1.747 . S
C775 C264 1.514 . S
C771 C159 1.526 . S
C789 C175 1.408 . S
C793 C277 1.409 . S
C807 C92 1.624 . S
C811 C238 1.603 . S
C829 C251 1.576 . S
C825 C147 1.612 . S
C843 C38 1.484 . S
C847 C207 1.475 . S
C865 C220 1.531 . S
C861 C4 1.552 . S
C883 C181 1.344 . S
C879 C21 1.391 . S
C901 C194 1.490 . S
C897 C27 1.508 . S
C915 C16 1.448 . S
C919 C303 1.420 . S
C933 C26 1.450 1_455 S
C937 C288 1.410 . S
C951 C43 1.380 . S
C955 C298 1.354 . S
C969 C10 1.432 . S
C973 C280 1.419 . S
C991 C329 1.469 . S
C987 C93 1.477 . S
C1009 C319 1.747 . S
C1005 C153 1.770 . S
C1027 C324 1.438 . S
C1023 C164 1.450 . S
C1041 C170 1.331 1_554 S
C1045 C327 1.324 . S
C1059 C114 1.526 . S
C1063 C249 1.507 . S
C1081 C241 1.869 . S
C1077 C59 1.878 . S
C1099 C262 1.455 . S
C1095 C70 1.465 . S
C1117 C267 1.237 . S
C1113 C87 1.269 . S
C1131 C148 1.740 . S
C1135 C210 1.707 . S
C1153 C197 1.443 . S
C1149 C15 1.482 . S
C1167 C32 1.399 . S
C1171 C202 1.385 1_554 S
C1189 C176 1.702 . S
C1185 C5 1.747 . S
