# Generated by pormake.
# Topology anh, (6,3)-cn, num edge types: 1
# Building blocks:
#     Node 0, Type 0, BuildingBlock: BETGAK_clean_sbu_0, # of connection points: 6
#     Node 1, Type 0, BuildingBlock: BETGAK_clean_sbu_0, # of connection points: 6
#     Node 2, Type 0, BuildingBlock: BETGAK_clean_sbu_0, # of connection points: 6
#     Node 3, Type 1, BuildingBlock: KAKCAD_clean_linker_0, # of connection points: 3
#     Node 4, Type 1, BuildingBlock: KAKCAD_clean_linker_0, # of connection points: 3
#     Node 5, Type 1, BuildingBlock: KAKCAD_clean_linker_0, # of connection points: 3
#     Node 6, Type 1, BuildingBlock: KAKCAD_clean_linker_0, # of connection points: 3
#     Node 7, Type 1, BuildingBlock: KAKCAD_clean_linker_0, # of connection points: 3
#     Node 8, Type 1, BuildingBlock: KAKCAD_clean_linker_0, # of connection points: 3
#     Edge 9, Type (0, 1), BuildingBlock: AJUNOK_clean_linker_0, # of connection points: 2
#     Edge 10, Type (0, 1), BuildingBlock: AJUNOK_clean_linker_0, # of connection points: 2
#     Edge 11, Type (0, 1), BuildingBlock: AJUNOK_clean_linker_0, # of connection points: 2
#     Edge 12, Type (0, 1), BuildingBlock: AJUNOK_clean_linker_0, # of connection points: 2
#     Edge 13, Type (0, 1), BuildingBlock: AJUNOK_clean_linker_0, # of connection points: 2
#     Edge 14, Type (0, 1), BuildingBlock: AJUNOK_clean_linker_0, # of connection points: 2
#     Edge 15, Type (0, 1), BuildingBlock: AJUNOK_clean_linker_0, # of connection points: 2
#     Edge 16, Type (0, 1), BuildingBlock: AJUNOK_clean_linker_0, # of connection points: 2
#     Edge 17, Type (0, 1), BuildingBlock: AJUNOK_clean_linker_0, # of connection points: 2
#     Edge 18, Type (0, 1), BuildingBlock: AJUNOK_clean_linker_0, # of connection points: 2
#     Edge 19, Type (0, 1), BuildingBlock: AJUNOK_clean_linker_0, # of connection points: 2
#     Edge 20, Type (0, 1), BuildingBlock: AJUNOK_clean_linker_0, # of connection points: 2
#     Edge 21, Type (0, 1), BuildingBlock: AJUNOK_clean_linker_0, # of connection points: 2
#     Edge 22, Type (0, 1), BuildingBlock: AJUNOK_clean_linker_0, # of connection points: 2
#     Edge 23, Type (0, 1), BuildingBlock: AJUNOK_clean_linker_0, # of connection points: 2
#     Edge 24, Type (0, 1), BuildingBlock: AJUNOK_clean_linker_0, # of connection points: 2
#     Edge 25, Type (0, 1), BuildingBlock: AJUNOK_clean_linker_0, # of connection points: 2
#     Edge 26, Type (0, 1), BuildingBlock: AJUNOK_clean_linker_0, # of connection points: 2
# Relax obj value: 0.214
# Max RMSD: 0.222
# Mean RMSD: 0.164
data_MOF--net-anh--node1-BETGAK_clean_sbu_0--node2-KAKCAD_clean_linker_0--edge1-AJUNOK_clean_linker_0
_symmetry_space_group_name_H-M    P1
_symmetry_Int_Tables_number       1
_symmetry_cell_setting            triclinic
loop_
_symmetry_equiv_pos_as_xyz
'x, y, z'
_cell_length_a     27.980186
_cell_length_b     35.277517
_cell_length_c     52.555636
_cell_angle_alpha  91.893549
_cell_angle_beta   88.858398
_cell_angle_gamma 130.28188
loop_
_atom_site_label
_atom_site_type_symbol
_atom_site_fract_x
_atom_site_fract_y
_atom_site_fract_z
_atom_type_partial_charge
La0 La 0.23093 0.58853 0.14881 0.0
La1 La 0.14565 0.60731 0.16958 0.0
C2 C 0.30148 0.57916 0.12512 0.0
C3 C 0.30204 0.53788 0.12275 0.0
C4 C 0.24582 0.48832 0.12335 0.0
C5 C 0.24673 0.44926 0.12093 0.0
C6 C 0.30388 0.45923 0.11838 0.0
C7 C 0.36011 0.50881 0.11824 0.0
C8 C 0.35915 0.54788 0.12039 0.0
C9 C 0.20635 0.57477 0.19785 0.0
C10 C 0.28687 0.70064 0.15887 0.0
C11 C 1.0815 0.61853 0.1972 0.0
C12 C 1.01287 0.583 0.20141 0.0
C13 C 0.97385 0.58637 0.18721 0.0
C14 C 0.90952 0.54643 0.18586 0.0
C15 C 0.88283 0.50254 0.19892 0.0
C16 C 0.92088 0.50105 0.21506 0.0
C17 C 0.98525 0.54099 0.21642 0.0
C18 C 0.13687 0.58799 0.1201 0.0
C19 C 1.08971 0.49772 0.15741 0.0
O20 O 0.25339 0.5712 0.11465 0.0
O21 O 0.3147 0.60027 0.14783 0.0
O22 O 0.21307 0.54801 0.18349 0.0
O23 O 0.21602 0.60837 0.18492 0.0
O24 O 0.29627 0.67013 0.15018 0.0
O25 O 0.23182 0.68415 0.16764 0.0
O26 O 1.10013 0.63658 0.17424 0.0
O27 O 1.11204 0.60502 0.20589 0.0
O28 O 1.09039 0.5755 0.13426 0.0
O29 O 0.18579 0.61302 0.13342 0.0
O30 O 1.08647 0.52693 0.17229 0.0
O31 O 0.13944 0.51493 0.14335 0.0
H32 H 0.20118 0.47977 0.1255 0.0
H33 H 0.2029 0.4113 0.121 0.0
H34 H 0.40467 0.5173 0.11585 0.0
H35 H 0.40291 0.58586 0.12004 0.0
H36 H 0.99358 0.6183 0.1756 0.0
H37 H 0.88172 0.54849 0.17288 0.0
H38 H 0.90147 0.46777 0.2254 0.0
H39 H 1.01374 0.53732 0.22789 0.0
La40 La 0.71402 0.06454 0.47779 0.0
La41 La 0.62619 0.08346 0.47562 0.0
C42 C 0.7713 0.03226 0.48409 0.0
C43 C 0.75694 0.98706 0.49333 0.0
C44 C 0.79857 0.97857 0.48795 0.0
C45 C 0.78568 0.93556 0.49621 0.0
C46 C 0.73098 0.90035 0.51016 0.0
C47 C 0.68928 0.90908 0.51551 0.0
C48 C 0.70183 0.95182 0.50689 0.0
C49 C 0.70267 0.0889 0.43286 0.0
C50 C 0.56855 0.97448 0.47286 0.0
C51 C 0.57263 0.11721 0.46499 0.0
C52 C 0.58095 0.16166 0.47349 0.0
C53 C 0.55889 0.16358 0.49738 0.0
C54 C 0.56939 0.20646 0.50569 0.0
C55 C 0.60224 0.24836 0.49036 0.0
C56 C 0.62288 0.2461 0.46622 0.0
C57 C 0.61217 0.20312 0.45784 0.0
C58 C 0.63794 0.06281 0.52184 0.0
C59 C 0.77422 0.17522 0.48167 0.0
O60 O 0.74374 0.0269 0.46287 0.0
O61 O 0.77043 0.05998 0.50091 0.0
O62 O 0.75482 0.10386 0.44223 0.0
O63 O 0.65868 0.05971 0.44797 0.0
O64 O 0.62162 0.99125 0.48363 0.0
O65 O 0.56362 1.00592 0.46326 0.0
O66 O 0.55171 0.08321 0.48188 0.0
O67 O 0.61808 0.12536 0.45142 0.0
O68 O 0.58795 0.05259 0.51294 0.0
O69 O 0.68149 0.08858 0.50586 0.0
O70 O 0.71744 0.15921 0.47685 0.0
O71 O 0.78382 0.14382 0.48564 0.0
H72 H 0.84103 1.00516 0.47726 0.0
H73 H 0.81844 0.92974 0.49158 0.0
H74 H 0.64744 0.88333 0.52667 0.0
H75 H 0.66878 0.95748 0.51099 0.0
H76 H 0.5342 0.13224 0.50987 0.0
H77 H 0.55297 0.20725 0.52439 0.0
H78 H 0.64734 0.27761 0.45385 0.0
H79 H 0.62906 0.20255 0.43922 0.0
La80 La 0.6774 0.57734 0.85004 0.0
La81 La 0.57977 0.45986 0.85121 0.0
C82 C 0.73711 0.6675 0.84099 0.0
C83 C 0.72401 0.69884 0.83139 0.0
C84 C 0.75407 0.74583 0.84281 0.0
C85 C 0.74266 0.77644 0.83419 0.0
C86 C 0.70132 0.76076 0.81381 0.0
C87 C 0.67082 0.71347 0.80251 0.0
C88 C 0.68186 0.68268 0.81128 0.0
C89 C 0.65759 0.53511 0.89387 0.0
C90 C 0.52818 0.51784 0.85185 0.0
C91 C 0.51948 0.37263 0.86583 0.0
C92 C 0.52007 0.33223 0.85792 0.0
C93 C 0.50012 0.30968 0.83349 0.0
C94 C 0.5069 0.27517 0.82549 0.0
C95 C 0.53385 0.26257 0.84169 0.0
C96 C 0.55258 0.28427 0.86627 0.0
C97 C 0.54532 0.31847 0.87437 0.0
C98 C 0.61275 0.49239 0.80391 0.0
C99 C 0.72918 0.52021 0.84721 0.0
O100 O 0.71329 0.64814 0.86331 0.0
O101 O 0.73215 0.63599 0.82472 0.0
O102 O 0.71128 0.57633 0.88713 0.0
O103 O 0.61777 0.52112 0.87692 0.0
O104 O 0.58589 0.55907 0.84641 0.0
O105 O 0.51591 0.47555 0.85694 0.0
O106 O 0.49703 0.38519 0.84952 0.0
O107 O 0.57113 0.41152 0.87679 0.0
O108 O 0.57441 0.44583 0.80957 0.0
O109 O 0.62885 0.51635 0.82455 0.0
O110 O 0.67193 0.47864 0.85288 0.0
O111 O 0.74086 0.56223 0.84215 0.0
H112 H 0.78656 0.75894 0.85842 0.0
H113 H 0.76691 0.81273 0.84321 0.0
H114 H 0.63775 0.70001 0.7871 0.0
H115 H 0.65715 0.64626 0.80245 0.0
H116 H 0.48085 0.31961 0.82026 0.0
H117 H 0.49303 0.25962 0.80629 0.0
H118 H 0.57346 0.27516 0.87911 0.0
H119 H 0.56109 0.33526 0.89329 0.0
C120 C 0.69306 0.1439 0.31266 0.0
C121 C 0.68302 0.10472 0.32516 0.0
C122 C 0.69266 0.14414 0.28601 0.0
C123 C 0.68289 0.10544 0.2714 0.0
C124 C 0.67317 0.06647 0.28415 0.0
C125 C 0.67271 0.06594 0.31068 0.0
C126 C 0.68301 0.10537 0.24301 0.0
C127 C 0.72469 0.14962 0.22966 0.0
C128 C 0.72682 0.14901 0.20289 0.0
C129 C 0.68652 0.10332 0.18928 0.0
C130 C 0.64424 0.05875 0.20241 0.0
C131 C 0.64245 0.06039 0.2291 0.0
C132 C 0.601 1.00966 0.18898 0.0
C133 C 0.55866 1.00044 0.17057 0.0
C134 C 0.59655 0.96989 0.19706 0.0
C135 C 0.54845 0.92144 0.18817 0.0
C136 C 0.50341 0.91155 0.1711 0.0
C137 C 0.77339 0.19647 0.18966 0.0
C138 C 0.77656 0.23731 0.1951 0.0
C139 C 0.81884 0.20286 0.17366 0.0
C140 C 0.86835 0.24988 0.16432 0.0
C141 C 0.87245 0.29103 0.17038 0.0
C142 C 0.8253 0.28401 0.18542 0.0
C143 C 0.5101 0.95171 0.16174 0.0
H144 H 0.70086 0.17412 0.32351 0.0
H145 H 0.69947 0.1744 0.2769 0.0
H146 H 0.667 0.03663 0.27366 0.0
H147 H 0.66576 0.0357 0.31993 0.0
H148 H 0.75734 0.1846 0.24009 0.0
H149 H 0.60849 0.02614 0.23908 0.0
H150 H 0.68831 0.10244 0.16867 0.0
H151 H 0.561 0.03044 0.16409 0.0
H152 H 0.62886 0.97605 0.21114 0.0
H153 H 0.54459 0.89135 0.19572 0.0
H154 H 0.74217 0.23335 0.20745 0.0
H155 H 0.81774 0.17205 0.1694 0.0
H156 H 0.47662 0.94522 0.14822 0.0
H157 H 0.82772 0.31517 0.19069 0.0
H158 H 0.90423 0.25438 0.15284 0.0
C159 C 0.64109 0.57168 0.6891 0.0
C160 C 0.67578 0.56046 0.70017 0.0
C161 C 0.64438 0.57875 0.66288 0.0
C162 C 0.68249 0.57475 0.64732 0.0
C163 C 0.71995 0.56646 0.65872 0.0
C164 C 0.71672 0.55949 0.68488 0.0
C165 C 0.68046 0.57614 0.61918 0.0
C166 C 0.6806 0.61146 0.60756 0.0
C167 C 0.67829 0.61235 0.58091 0.0
C168 C 0.67492 0.577 0.56585 0.0
C169 C 0.67394 0.541 0.5772 0.0
C170 C 0.67695 0.54103 0.60384 0.0
C171 C 0.66831 0.50246 0.56151 0.0
C172 C 0.62418 0.47665 0.54166 0.0
C173 C 0.70493 0.48947 0.56716 0.0
C174 C 0.69667 0.45082 0.55366 0.0
C175 C 0.65166 0.42433 0.5342 0.0
C176 C 0.681 0.65111 0.56889 0.0
C177 C 0.6423 0.66121 0.57758 0.0
C178 C 0.72398 0.67949 0.54928 0.0
C179 C 0.72934 0.71812 0.53901 0.0
C180 C 0.69109 0.72848 0.54786 0.0
C181 C 0.64704 0.6994 0.56703 0.0
C182 C 0.6157 0.43776 0.52822 0.0
H183 H 0.60906 0.57248 0.70051 0.0
H184 H 0.61484 0.58496 0.65464 0.0
H185 H 0.75081 0.56428 0.6473 0.0
H186 H 0.74482 0.55182 0.69308 0.0
H187 H 0.68424 0.63916 0.61922 0.0
H188 H 0.67454 0.51254 0.61274 0.0
H189 H 0.67303 0.57752 0.54529 0.0
H190 H 0.59484 0.48547 0.53704 0.0
H191 H 0.7396 0.50889 0.58223 0.0
H192 H 0.7243 0.44072 0.55896 0.0
H193 H 0.60858 0.63969 0.5926 0.0
H194 H 0.75469 0.67271 0.54239 0.0
H195 H 0.58059 0.41782 0.51332 0.0
H196 H 0.61748 0.70707 0.5743 0.0
H197 H 0.76367 0.74017 0.52424 0.0
C198 C 0.18009 0.59192 0.99522 0.0
C199 C 0.13278 0.55254 0.01056 0.0
C200 C 0.18069 0.58473 0.96891 0.0
C201 C 0.13351 0.53829 0.95737 0.0
C202 C 1.0866 0.49876 0.97252 0.0
C203 C 1.08675 0.5056 0.9989 0.0
C204 C 0.13166 0.5316 0.9294 0.0
C205 C 0.17835 0.53459 0.91671 0.0
C206 C 0.17712 0.52826 0.89006 0.0
C207 C 0.12784 0.51989 0.87601 0.0
C208 C 1.08052 0.51739 0.88881 0.0
C209 C 1.08322 0.52283 0.91549 0.0
C210 C 1.02817 0.51067 0.87559 0.0
C211 C 1.04007 0.54387 0.85714 0.0
C212 C 0.96655 0.47627 0.88495 0.0
C213 C 0.91933 0.47701 0.87742 0.0
C214 C 0.93181 0.51215 0.86018 0.0
C215 C 0.22807 0.53028 0.87814 0.0
C216 C 0.29103 0.56941 0.88498 0.0
C217 C 0.21445 0.49014 0.86352 0.0
C218 C 0.26221 0.48837 0.85689 0.0
C219 C 0.32497 0.52699 0.86443 0.0
C220 C 0.33851 0.56779 0.8783 0.0
C221 C 0.9925 0.54455 0.8495 0.0
H222 H 0.2161 0.62859 0.00348 0.0
H223 H 0.2171 0.61576 0.95748 0.0
H224 H 1.05004 0.46253 0.96393 0.0
H225 H 1.05093 0.47397 0.01013 0.0
H226 H 0.21522 0.5408 0.92782 0.0
H227 H 1.04817 0.52171 0.92562 0.0
H228 H 0.12644 0.51552 0.85548 0.0
H229 H 1.08695 0.57113 0.84966 0.0
H230 H 0.95553 0.45015 0.8992 0.0
H231 H 0.87359 0.45141 0.88614 0.0
H232 H 0.30331 0.60071 0.89645 0.0
H233 H 0.16647 0.45898 0.85828 0.0
H234 H 1.00375 0.57126 0.83563 0.0
H235 H 0.38565 0.59777 0.88499 0.0
H236 H 0.24986 0.45636 0.84618 0.0
C237 C 0.13121 0.5301 0.32077 0.0
C238 C 0.18812 0.56222 0.30772 0.0
C239 C 0.13045 0.5298 0.3474 0.0
C240 C 0.18676 0.56113 0.3614 0.0
C241 C 0.24376 0.59199 0.34804 0.0
C242 C 0.24435 0.59281 0.32151 0.0
C243 C 0.18625 0.56289 0.38977 0.0
C244 C 0.1431 0.51968 0.40362 0.0
C245 C 0.14163 0.52149 0.4304 0.0
C246 C 0.18434 0.56757 0.44348 0.0
C247 C 0.22918 0.61094 0.42984 0.0
C248 C 0.22901 0.60823 0.40314 0.0
C249 C 0.27767 0.65979 0.44269 0.0
C250 C 0.26113 0.68214 0.45889 0.0
C251 C 0.34092 0.68706 0.43605 0.0
C252 C 0.38631 0.73646 0.44431 0.0
C253 C 0.36948 0.75998 0.45922 0.0
C254 C 1.09497 0.47456 0.44411 0.0
C255 C 1.05446 0.47066 0.46224 0.0
C256 C 1.08685 0.43184 0.43726 0.0
C257 C 1.03746 0.38578 0.44726 0.0
C258 C 0.99472 0.38121 0.46425 0.0
C259 C 1.00456 0.42432 0.47215 0.0
C260 C 0.30668 0.73195 0.46703 0.0
H261 H 1.08732 0.50628 0.31039 0.0
H262 H 1.08564 0.50598 0.35699 0.0
H263 H 0.28812 0.61569 0.35807 0.0
H264 H 0.28881 0.61739 0.3117 0.0
H265 H 1.11032 0.48432 0.39354 0.0
H266 H 0.26193 0.64212 0.39275 0.0
H267 H 0.1841 0.56939 0.46411 0.0
H268 H 0.21264 0.66194 0.46417 0.0
H269 H 0.35488 0.67061 0.42362 0.0
H270 H 0.4342 0.75702 0.43799 0.0
H271 H 1.05957 0.50296 0.46783 0.0
H272 H 1.11774 0.43383 0.42352 0.0
H273 H 0.29259 0.74894 0.47887 0.0
H274 H 0.97278 0.42195 0.4855 0.0
H275 H 1.03107 0.35327 0.4408 0.0
C276 C 0.62627 1.00778 0.64128 0.0
C277 C 0.65502 0.05436 0.63104 0.0
C278 C 0.62325 1.00236 0.66763 0.0
C279 C 0.64948 0.04354 0.68433 0.0
C280 C 0.67899 0.09032 0.67392 0.0
C281 C 0.68123 0.09556 0.64755 0.0
C282 C 0.64485 0.03745 0.71246 0.0
C283 C 0.64916 1.00394 0.72341 0.0
C284 C 0.64289 0.99678 0.74983 0.0
C285 C 0.63328 0.02444 0.76553 0.0
C286 C 0.62953 0.05858 0.75496 0.0
C287 C 0.63494 0.06448 0.72846 0.0
C288 C 0.61863 0.08768 0.77118 0.0
C289 C 0.57109 0.06443 0.78967 0.0
C290 C 0.65355 0.13864 0.76715 0.0
C291 C 0.64001 0.16542 0.7807 0.0
C292 C 0.59092 0.1418 0.79845 0.0
C293 C 0.6467 0.96037 0.76068 0.0
C294 C 0.61547 0.91353 0.74867 0.0
C295 C 0.68339 0.97267 0.78234 0.0
C296 C 0.69043 0.9395 0.79123 0.0
C297 C 0.66084 0.89336 0.77867 0.0
C298 C 0.62223 0.88036 0.75762 0.0
C299 C 0.55721 0.09122 0.80312 0.0
H300 H 0.60477 0.9753 0.62889 0.0
H301 H 0.59904 0.96559 0.67487 0.0
H302 H 0.70065 0.12305 0.6861 0.0
H303 H 0.70375 0.13187 0.64003 0.0
H304 H 0.65861 0.9839 0.7114 0.0
H305 H 0.62949 0.08926 0.72023 0.0
H306 H 0.62855 1.01931 0.78592 0.0
H307 H 0.54326 0.02518 0.79312 0.0
H308 H 0.69091 0.15769 0.75322 0.0
H309 H 0.66676 0.20436 0.77674 0.0
H310 H 0.58585 0.90255 0.73225 0.0
H311 H 0.70828 1.00856 0.79192 0.0
H312 H 0.51969 0.0723 0.81697 0.0
H313 H 0.59733 0.84452 0.74799 0.0
H314 H 0.72044 0.95052 0.80752 0.0
C315 C 0.55175 0.34246 0.9637 0.0
C316 C 0.60836 0.3918 0.96548 0.0
C317 C 0.53027 0.31099 0.98429 0.0
C318 C 0.56501 0.32838 0.00703 0.0
C319 C 0.62471 0.37595 0.0077 0.0
C320 C 0.64605 0.40743 0.98716 0.0
C321 C 0.53415 0.30362 0.03143 0.0
C322 C 0.56804 0.30386 0.05088 0.0
C323 C 0.54902 0.2984 0.07648 0.0
C324 C 0.49401 0.29079 0.0821 0.0
C325 C 0.45846 0.28885 0.06277 0.0
C326 C 0.47722 0.29248 0.03737 0.0
C327 C 0.41159 0.29486 0.06951 0.0
C328 C 0.37553 0.27481 0.0919 0.0
C329 C 0.40968 0.32723 0.0555 0.0
C330 C 0.37623 0.34162 0.0644 0.0
C331 C 0.34488 0.32491 0.08775 0.0
C332 C 0.59226 0.31095 0.09768 0.0
C333 C 0.56875 0.28982 0.12182 0.0
C334 C 0.65725 0.34961 0.09499 0.0
C335 C 0.69679 0.36872 0.11605 0.0
C336 C 0.67231 0.35031 0.1403 0.0
C337 C 0.6084 0.30992 0.14308 0.0
C338 C 0.34302 0.29021 0.10111 0.0
H339 H 0.5222 0.32928 0.94701 0.0
H340 H 0.48433 0.27444 0.98316 0.0
H341 H 0.65235 0.39084 0.02502 0.0
H342 H 0.68951 0.44537 0.98922 0.0
H343 H 0.61172 0.31213 0.04614 0.0
H344 H 0.45123 0.29253 0.02239 0.0
H345 H 0.48261 0.2918 0.10177 0.0
H346 H 0.37496 0.24918 0.10298 0.0
H347 H 0.43772 0.34473 0.03857 0.0
H348 H 0.37889 0.36891 0.05394 0.0
H349 H 0.51921 0.2594 0.12456 0.0
H350 H 0.67753 0.36783 0.07706 0.0
H351 H 0.31873 0.27672 0.11916 0.0
H352 H 0.58887 0.29537 0.16174 0.0
H353 H 0.74612 0.40029 0.11368 0.0
C354 C 0.27297 0.38555 0.09292 0.0
C355 C 0.30505 0.41828 0.11395 0.0
C356 C 0.28219 0.35217 0.08556 0.0
C357 C 0.32289 0.34994 0.09928 0.0
H358 H 0.24368 0.38794 0.08115 0.0
H359 H 0.26 0.32983 0.06827 0.0
S360 S 0.41207 0.42383 0.15748 0.0
N361 N 0.37454 0.44348 0.14969 0.0
N362 N 0.39166 0.38044 0.13596 0.0
C363 C 0.35168 0.37997 0.12138 0.0
C364 C 0.34289 0.41435 0.12868 0.0
C365 C 0.88996 0.24697 0.48509 0.0
C366 C 0.82908 0.22946 0.48047 0.0
C367 C 0.94318 0.29657 0.48085 0.0
C368 C 0.93783 0.33088 0.47198 0.0
H369 H 0.89693 0.22187 0.49129 0.0
H370 H 0.98903 0.3079 0.48396 0.0
S371 S 0.78996 0.30504 0.45729 0.0
N372 N 0.76711 0.25157 0.46708 0.0
N373 N 0.86714 0.34435 0.45902 0.0
C374 C 0.87744 0.31453 0.46811 0.0
C375 C 0.82314 0.26401 0.47236 0.0
C376 C 0.67552 0.81637 0.8216 0.0
C377 C 0.69038 0.79389 0.80441 0.0
C378 C 0.66596 0.84838 0.81317 0.0
C379 C 0.67097 0.85919 0.78722 0.0
H380 H 0.67071 0.8088 0.84172 0.0
H381 H 0.65394 0.86441 0.82704 0.0
S382 S 0.71408 0.81312 0.73484 0.0
N383 N 0.71279 0.78665 0.76047 0.0
N384 N 0.69531 0.84697 0.74463 0.0
C385 C 0.68662 0.83743 0.7699 0.0
C386 C 0.69616 0.80476 0.77848 0.0
C387 C 0.81188 0.41441 0.18313 0.0
C388 C 0.81936 0.45627 0.19168 0.0
C389 C 0.7598 0.37645 0.16846 0.0
C390 C 0.71318 0.37878 0.16246 0.0
H391 H 0.8492 0.41319 0.18565 0.0
H392 H 0.7584 0.34725 0.16011 0.0
S393 S 0.70332 0.47398 0.18519 0.0
N394 N 0.77035 0.4931 0.19684 0.0
N395 N 0.6722 0.42141 0.16934 0.0
C396 C 0.71629 0.4171 0.17343 0.0
C397 C 0.7695 0.45598 0.18811 0.0
C398 C 0.52436 0.88642 0.47745 0.0
C399 C 0.51537 0.91985 0.47087 0.0
C400 C 0.4764 0.83482 0.47444 0.0
C401 C 0.41716 0.81436 0.46496 0.0
H402 H 0.56928 0.90008 0.48446 0.0
H403 H 0.48608 0.81073 0.47924 0.0
S404 S 0.36812 0.88493 0.44551 0.0
N405 N 0.44139 0.92815 0.45501 0.0
N406 N 0.35171 0.83131 0.44927 0.0
C407 C 0.40683 0.8471 0.4589 0.0
C408 C 0.45577 0.89973 0.46184 0.0
C409 C 0.60674 0.24523 0.83378 0.0
C410 C 0.54592 0.22923 0.83235 0.0
C411 C 0.62063 0.21627 0.82326 0.0
C412 C 0.57403 0.16992 0.81123 0.0
H413 H 0.64432 0.28113 0.84241 0.0
H414 H 0.66837 0.23047 0.82429 0.0
S415 S 0.40688 0.1103 0.80349 0.0
N416 N 0.43831 0.1634 0.81879 0.0
N417 N 0.46436 0.10895 0.79897 0.0
C418 C 0.51269 0.15291 0.81029 0.0
C419 C 0.49868 0.1826 0.82081 0.0
C420 C 0.76809 0.86039 0.53072 0.0
C421 C 0.71893 0.85556 0.51962 0.0
C422 C 0.75865 0.81901 0.5396 0.0
C423 C 0.69955 0.77129 0.538 0.0
H424 H 0.81423 0.89657 0.5328 0.0
H425 H 0.79773 0.82449 0.54813 0.0
S426 S 0.55612 0.73763 0.50943 0.0
N427 N 0.6095 0.79845 0.50644 0.0
N428 N 0.59158 0.72089 0.5239 0.0
C429 C 0.64994 0.76568 0.52697 0.0
C430 C 0.65965 0.80775 0.51762 0.0
C431 C 0.77053 0.47419 0.84815 0.0
C432 C 0.7826 0.51973 0.84823 0.0
C433 C 0.81889 0.47224 0.85115 0.0
C434 C 0.882 0.51568 0.85455 0.0
H435 H 0.72299 0.43942 0.84602 0.0
H436 H 0.80645 0.43609 0.85104 0.0
S437 S 0.93924 0.6446 0.85731 0.0
N438 N 0.86319 0.60962 0.85231 0.0
N439 N 0.95326 0.60586 0.85844 0.0
C440 C 0.89489 0.56154 0.85445 0.0
C441 C 0.84561 0.56357 0.85121 0.0
C442 C 0.40203 0.77328 0.15507 0.0
C443 C 0.34071 0.75524 0.15964 0.0
C444 C 0.4542 0.82406 0.15784 0.0
C445 C 0.4473 0.85907 0.16501 0.0
H446 H 0.41023 0.74789 0.15003 0.0
H447 H 0.50051 0.83594 0.15481 0.0
S448 S 0.29736 0.83225 0.17812 0.0
N449 N 0.27642 0.77747 0.17071 0.0
N450 N 0.37449 0.87253 0.17606 0.0
C451 C 0.38634 0.84197 0.1688 0.0
C452 C 0.33314 0.79023 0.16611 0.0
C453 C 0.56674 0.29221 0.50985 0.0
C454 C 0.61551 0.29442 0.4999 0.0
C455 C 0.57862 0.33475 0.52019 0.0
C456 C 0.63982 0.38093 0.52122 0.0
H457 H 0.51906 0.25722 0.50979 0.0
H458 H 0.53984 0.33116 0.5281 0.0
S459 S 0.78365 0.40672 0.49719 0.0
N460 N 0.72713 0.34667 0.49139 0.0
N461 N 0.74942 0.42671 0.51064 0.0
C462 C 0.68884 0.38381 0.51095 0.0
C463 C 0.67668 0.34057 0.50029 0.0
C464 C 0.41523 0.47868 0.8614 0.0
C465 C 0.4759 0.52 0.85334 0.0
C466 C 0.36648 0.48066 0.86416 0.0
C467 C 0.37587 0.52411 0.85912 0.0
H468 H 0.40532 0.44455 0.86609 0.0
H469 H 0.32147 0.44822 0.87107 0.0
S470 S 0.52356 0.64148 0.8353 0.0
N471 N 0.54068 0.60512 0.83888 0.0
N472 N 0.4496 0.60837 0.84389 0.0
C473 C 0.43559 0.56516 0.85031 0.0
C474 C 0.48522 0.56322 0.84746 0.0
C475 C 1.04169 0.41083 0.16722 0.0
C476 C 1.03593 0.44405 0.1571 0.0
C477 C 0.98876 0.36062 0.17034 0.0
C478 C 0.92856 0.34209 0.1633 0.0
H479 H 1.08684 0.42422 0.17383 0.0
H480 H 0.9946 0.33668 0.17938 0.0
S481 S 0.89163 0.41276 0.13144 0.0
N482 N 0.96753 0.45437 0.13738 0.0
N483 N 0.86819 0.35983 0.1426 0.0
C484 C 0.92319 0.37454 0.15167 0.0
C485 C 0.97691 0.42562 0.14875 0.0
C486 C 0.18958 0.59842 0.0788 0.0
C487 C 0.13418 0.57815 0.09233 0.0
C488 C 0.18853 0.58951 0.05254 0.0
C489 C 0.13211 0.56065 0.03859 0.0
H490 H 0.23435 0.62169 0.08852 0.0
H491 H 0.23242 0.60525 0.04313 0.0
S492 S 0.97441 0.50229 0.06489 0.0
N493 N 1.02149 0.5292 0.08983 0.0
N494 N 1.01959 0.5142 0.04031 0.0
C495 C 1.07638 0.54099 0.05188 0.0
C496 C 1.07747 0.54949 0.07873 0.0
C497 C 0.63958 0.05969 0.39293 0.0
C498 C 0.69519 0.09653 0.40633 0.0
C499 C 0.63516 0.06339 0.36672 0.0
C500 C 0.68564 0.1046 0.35326 0.0
H501 H 0.60034 0.02674 0.40246 0.0
H502 H 0.59253 0.03331 0.35677 0.0
S503 S 0.83893 0.21331 0.38032 0.0
N504 N 0.80004 0.17692 0.40475 0.0
N505 N 0.79126 0.18433 0.3556 0.0
C506 C 0.74014 0.1429 0.36678 0.0
C507 C 0.74503 0.13872 0.39332 0.0
C508 C 0.65336 0.55822 0.77195 0.0
C509 C 0.634 0.51164 0.77803 0.0
C510 C 0.66793 0.57448 0.74675 0.0
C511 C 0.66452 0.54487 0.72698 0.0
H512 H 0.65491 0.58128 0.78655 0.0
H513 H 0.68131 0.61012 0.74264 0.0
S514 S 0.61736 0.42022 0.73325 0.0
N515 N 0.61313 0.43653 0.76246 0.0
N516 N 0.64061 0.46694 0.71528 0.0
C517 C 0.64643 0.49867 0.73301 0.0
C518 C 0.63108 0.48205 0.7585 0.0
C519 C 0.62324 0.07923 0.56653 0.0
C520 C 0.64751 0.06386 0.54947 0.0
C521 C 0.62767 0.07755 0.59294 0.0
C522 C 0.65532 0.05942 0.60317 0.0
H523 H 0.60028 0.09238 0.55942 0.0
H524 H 0.60769 0.08914 0.60544 0.0
S525 S 0.72595 1.01483 0.56671 0.0
N526 N 0.70052 0.03048 0.54471 0.0
N527 N 0.70835 0.02675 0.59434 0.0
C528 C 0.68025 0.04441 0.58635 0.0
C529 C 0.67654 0.04684 0.55947 0.0
C530 C 0.58904 0.46714 0.92413 0.0
C531 C 0.6486 0.50186 0.91331 0.0
C532 C 0.5765 0.43129 0.94059 0.0
C533 C 0.62302 0.4287 0.9468 0.0
H534 H 0.55153 0.46723 0.91952 0.0
H535 H 0.53004 0.40568 0.94873 0.0
S536 S 0.78636 0.51044 0.92278 0.0
N537 N 0.75469 0.53161 0.90971 0.0
N538 N 0.73081 0.46352 0.9404 0.0
C539 C 0.68302 0.46348 0.93619 0.0
C540 C 0.69594 0.50033 0.91955 0.0
C541 C 0.17478 0.5271 0.23769 0.0
C542 C 0.19869 0.57138 0.22574 0.0
C543 C 0.16962 0.52378 0.26429 0.0
C544 C 0.18928 0.56492 0.27972 0.0
H545 H 0.16023 0.4949 0.22642 0.0
H546 H 0.15168 0.48929 0.27289 0.0
S547 S 0.2535 0.68873 0.25786 0.0
N548 N 0.24053 0.65674 0.23139 0.0
N549 N 0.23164 0.65053 0.28135 0.0
C550 C 0.21238 0.60908 0.26802 0.0
C551 C 0.21683 0.6123 0.241 0.0
loop_
_geom_bond_atom_site_label_1
_geom_bond_atom_site_label_2
_geom_bond_distance
_geom_bond_site_symmetry_2
_ccdc_geom_bond_type
La0 C2 2.928 . S
La0 O20 2.521 . S
La0 O21 2.628 . S
La0 O22 2.554 . S
La0 O23 2.757 . S
La0 O24 2.470 . S
La0 O29 2.482 . S
La0 O31 2.503 1_455 S
La1 C11 2.928 . S
La1 O23 2.482 1_655 S
La1 O25 2.503 1_655 S
La1 O26 2.521 . S
La1 O27 2.628 . S
La1 O28 2.554 . S
La1 O29 2.757 1_655 S
La1 O30 2.470 . S
C2 La0 2.928 . S
C2 C3 1.503 . S
C2 O20 1.261 . S
C2 O21 1.243 . S
C3 C2 1.503 . S
C3 C4 1.394 . S
C3 C8 1.373 . S
C4 C3 1.394 . S
C4 C5 1.380 . S
C4 H32 0.930 . S
C5 C4 1.380 . S
C5 C6 1.376 . S
C5 H33 0.930 . S
C6 C5 1.376 . S
C6 C7 1.370 . S
C7 C6 1.370 . S
C7 C8 1.396 . S
C7 H34 0.929 . S
C8 C3 1.373 . S
C8 C7 1.396 . S
C8 H35 0.929 . S
C9 O22 1.240 . S
C9 O23 1.289 . S
C10 O24 1.258 . S
C10 O25 1.256 . S
C11 La1 2.928 . S
C11 C12 1.503 . S
C11 O26 1.261 . S
C11 O27 1.243 . S
C12 C11 1.503 . S
C12 C13 1.394 . S
C12 C17 1.373 . S
C13 C12 1.394 . S
C13 C14 1.380 . S
C13 H36 0.930 . S
C14 C13 1.380 . S
C14 C15 1.376 . S
C14 H37 0.930 . S
C15 C14 1.376 . S
C15 C16 1.370 . S
C16 C15 1.370 . S
C16 C17 1.396 . S
C16 H38 0.929 . S
C17 C12 1.373 . S
C17 C16 1.396 . S
C17 H39 0.929 . S
C18 O28 1.240 1_455 S
C18 O29 1.289 . S
C19 O30 1.258 . S
C19 O31 1.256 . S
O20 La0 2.521 . S
O20 C2 1.261 . S
O21 La0 2.628 . S
O21 C2 1.243 . S
O22 La0 2.554 . S
O22 C9 1.240 . S
O23 La0 2.757 . S
O23 La1 2.482 1_455 S
O23 C9 1.289 . S
O24 La0 2.470 . S
O24 C10 1.258 . S
O25 La1 2.503 1_455 S
O25 C10 1.256 . S
O26 La1 2.521 . S
O26 C11 1.261 . S
O27 La1 2.628 . S
O27 C11 1.243 . S
O28 La1 2.554 . S
O28 C18 1.240 1_655 S
O29 La0 2.482 . S
O29 La1 2.757 1_455 S
O29 C18 1.289 . S
O30 La1 2.470 . S
O30 C19 1.258 . S
O31 La0 2.503 1_655 S
O31 C19 1.256 . S
H32 C4 0.930 . S
H33 C5 0.930 . S
H34 C7 0.929 . S
H35 C8 0.929 . S
H36 C13 0.930 . S
H37 C14 0.930 . S
H38 C16 0.929 . S
H39 C17 0.929 . S
La40 C42 2.928 . S
La40 O60 2.521 . S
La40 O61 2.628 . S
La40 O62 2.554 . S
La40 O63 2.757 1_565 S
La40 O64 2.470 . S
La40 O69 2.482 . S
La40 O71 2.503 1_565 S
La41 C51 2.928 . S
La41 O63 2.482 . S
La41 O65 2.503 1_545 S
La41 O66 2.521 . S
La41 O67 2.628 . S
La41 O68 2.554 . S
La41 O69 2.757 1_545 S
La41 O70 2.470 . S
C42 La40 2.928 . S
C42 C43 1.503 . S
C42 O60 1.261 . S
C42 O61 1.243 . S
C43 C42 1.503 . S
C43 C44 1.394 . S
C43 C48 1.373 . S
C44 C43 1.394 . S
C44 C45 1.380 . S
C44 H72 0.930 . S
C45 C44 1.380 . S
C45 C46 1.376 . S
C45 H73 0.930 . S
C46 C45 1.376 . S
C46 C47 1.370 . S
C47 C46 1.370 . S
C47 C48 1.396 . S
C47 H74 0.929 . S
C48 C43 1.373 . S
C48 C47 1.396 . S
C48 H75 0.929 . S
C49 O62 1.240 1_545 S
C49 O63 1.289 . S
C50 O64 1.258 . S
C50 O65 1.256 . S
C51 La41 2.928 . S
C51 C52 1.503 . S
C51 O66 1.261 . S
C51 O67 1.243 . S
C52 C51 1.503 . S
C52 C53 1.394 . S
C52 C57 1.373 . S
C53 C52 1.394 . S
C53 C54 1.380 . S
C53 H76 0.930 . S
C54 C53 1.380 . S
C54 C55 1.376 . S
C54 H77 0.930 . S
C55 C54 1.376 . S
C55 C56 1.370 . S
C56 C55 1.370 . S
C56 C57 1.396 . S
C56 H78 0.929 . S
C57 C52 1.373 . S
C57 C56 1.396 . S
C57 H79 0.929 . S
C58 O68 1.240 . S
C58 O69 1.289 1_545 S
C59 O70 1.258 . S
C59 O71 1.256 . S
O60 La40 2.521 . S
O60 C42 1.261 . S
O61 La40 2.628 . S
O61 C42 1.243 . S
O62 La40 2.554 . S
O62 C49 1.240 1_565 S
O63 La40 2.757 1_545 S
O63 La41 2.482 . S
O63 C49 1.289 . S
O64 La40 2.470 . S
O64 C50 1.258 . S
O65 La41 2.503 1_565 S
O65 C50 1.256 . S
O66 La41 2.521 . S
O66 C51 1.261 . S
O67 La41 2.628 . S
O67 C51 1.243 . S
O68 La41 2.554 . S
O68 C58 1.240 . S
O69 La40 2.482 . S
O69 La41 2.757 1_565 S
O69 C58 1.289 1_565 S
O70 La41 2.470 . S
O70 C59 1.258 . S
O71 La40 2.503 1_545 S
O71 C59 1.256 . S
H72 C44 0.930 . S
H73 C45 0.930 . S
H74 C47 0.929 . S
H75 C48 0.929 . S
H76 C53 0.930 . S
H77 C54 0.930 . S
H78 C56 0.929 . S
H79 C57 0.929 . S
La80 C82 2.928 . S
La80 O100 2.521 . S
La80 O101 2.628 . S
La80 O102 2.554 . S
La80 O103 2.757 . S
La80 O104 2.470 . S
La80 O109 2.482 . S
La80 O111 2.503 . S
La81 C91 2.928 . S
La81 O103 2.482 . S
La81 O105 2.503 . S
La81 O106 2.521 . S
La81 O107 2.628 . S
La81 O108 2.554 . S
La81 O109 2.757 . S
La81 O110 2.470 . S
C82 La80 2.928 . S
C82 C83 1.503 . S
C82 O100 1.261 . S
C82 O101 1.243 . S
C83 C82 1.503 . S
C83 C84 1.394 . S
C83 C88 1.373 . S
C84 C83 1.394 . S
C84 C85 1.380 . S
C84 H112 0.930 . S
C85 C84 1.380 . S
C85 C86 1.376 . S
C85 H113 0.930 . S
C86 C85 1.376 . S
C86 C87 1.370 . S
C87 C86 1.370 . S
C87 C88 1.396 . S
C87 H114 0.929 . S
C88 C83 1.373 . S
C88 C87 1.396 . S
C88 H115 0.929 . S
C89 O102 1.240 . S
C89 O103 1.289 . S
C90 O104 1.258 . S
C90 O105 1.256 . S
C91 La81 2.928 . S
C91 C92 1.503 . S
C91 O106 1.261 . S
C91 O107 1.243 . S
C92 C91 1.503 . S
C92 C93 1.394 . S
C92 C97 1.373 . S
C93 C92 1.394 . S
C93 C94 1.380 . S
C93 H116 0.930 . S
C94 C93 1.380 . S
C94 C95 1.376 . S
C94 H117 0.930 . S
C95 C94 1.376 . S
C95 C96 1.370 . S
C96 C95 1.370 . S
C96 C97 1.396 . S
C96 H118 0.929 . S
C97 C92 1.373 . S
C97 C96 1.396 . S
C97 H119 0.929 . S
C98 O108 1.240 . S
C98 O109 1.289 . S
C99 O110 1.258 . S
C99 O111 1.256 . S
O100 La80 2.521 . S
O100 C82 1.261 . S
O101 La80 2.628 . S
O101 C82 1.243 . S
O102 La80 2.554 . S
O102 C89 1.240 . S
O103 La80 2.757 . S
O103 La81 2.482 . S
O103 C89 1.289 . S
O104 La80 2.470 . S
O104 C90 1.258 . S
O105 La81 2.503 . S
O105 C90 1.256 . S
O106 La81 2.521 . S
O106 C91 1.261 . S
O107 La81 2.628 . S
O107 C91 1.243 . S
O108 La81 2.554 . S
O108 C98 1.240 . S
O109 La80 2.482 . S
O109 La81 2.757 . S
O109 C98 1.289 . S
O110 La81 2.470 . S
O110 C99 1.258 . S
O111 La80 2.503 . S
O111 C99 1.256 . S
H112 C84 0.930 . S
H113 C85 0.930 . S
H114 C87 0.929 . S
H115 C88 0.929 . S
H116 C93 0.930 . S
H117 C94 0.930 . S
H118 C96 0.929 . S
H119 C97 0.929 . S
C120 C121 1.386 . S
C120 C122 1.397 . S
C120 H144 0.931 . S
C121 C120 1.386 . S
C121 C125 1.397 1_545 S
C122 C120 1.397 . S
C122 C123 1.384 . S
C122 H145 0.930 . S
C123 C122 1.384 . S
C123 C124 1.377 1_545 S
C123 C126 1.481 . S
C124 C123 1.377 1_565 S
C124 C125 1.389 . S
C124 H146 0.929 . S
C125 C121 1.397 1_565 S
C125 C124 1.389 . S
C125 H147 0.931 . S
C126 C123 1.481 . S
C126 C127 1.387 . S
C126 C131 1.390 1_545 S
C127 C126 1.387 . S
C127 C128 1.401 . S
C127 H148 0.930 . S
C128 C127 1.401 . S
C128 C129 1.376 . S
C128 C137 1.511 . S
C129 C128 1.376 . S
C129 C130 1.392 1_545 S
C129 H150 0.931 . S
C130 C129 1.392 1_565 S
C130 C131 1.361 . S
C130 C132 1.500 . S
C131 C126 1.390 1_565 S
C131 C130 1.361 . S
C131 H149 0.931 . S
C132 C130 1.500 . S
C132 C133 1.371 . S
C132 C134 1.365 . S
C133 C132 1.371 . S
C133 C143 1.386 . S
C133 H151 0.931 . S
C134 C132 1.365 . S
C134 C135 1.409 . S
C134 H152 0.929 . S
C135 C134 1.409 . S
C135 C136 1.380 . S
C135 H153 0.930 . S
C136 C135 1.380 . S
C136 C143 1.357 . S
C137 C128 1.511 . S
C137 C138 1.341 . S
C137 C139 1.371 . S
C138 C137 1.341 . S
C138 C142 1.394 . S
C138 H154 0.930 . S
C139 C137 1.371 . S
C139 C140 1.392 . S
C139 H155 0.931 . S
C140 C139 1.392 . S
C140 C141 1.331 . S
C140 H158 0.932 . S
C141 C140 1.331 . S
C141 C142 1.336 . S
C142 C138 1.394 . S
C142 C141 1.336 . S
C142 H157 0.929 . S
C143 C133 1.386 . S
C143 C136 1.357 . S
C143 H156 0.928 . S
H144 C120 0.931 . S
H145 C122 0.930 . S
H146 C124 0.929 . S
H147 C125 0.931 . S
H148 C127 0.930 . S
H149 C131 0.931 . S
H150 C129 0.931 . S
H151 C133 0.931 . S
H152 C134 0.929 . S
H153 C135 0.930 . S
H154 C138 0.930 . S
H155 C139 0.931 . S
H156 C143 0.928 . S
H157 C142 0.929 . S
H158 C140 0.932 . S
C159 C160 1.386 . S
C159 C161 1.397 . S
C159 H183 0.931 . S
C160 C159 1.386 . S
C160 C164 1.397 . S
C161 C159 1.397 . S
C161 C162 1.384 . S
C161 H184 0.930 . S
C162 C161 1.384 . S
C162 C163 1.377 . S
C162 C165 1.481 . S
C163 C162 1.377 . S
C163 C164 1.389 . S
C163 H185 0.929 . S
C164 C160 1.397 . S
C164 C163 1.389 . S
C164 H186 0.931 . S
C165 C162 1.481 . S
C165 C166 1.387 . S
C165 C170 1.390 . S
C166 C165 1.387 . S
C166 C167 1.401 . S
C166 H187 0.930 . S
C167 C166 1.401 . S
C167 C168 1.376 . S
C167 C176 1.511 . S
C168 C167 1.376 . S
C168 C169 1.392 . S
C168 H189 0.931 . S
C169 C168 1.392 . S
C169 C170 1.361 . S
C169 C171 1.500 . S
C170 C165 1.390 . S
C170 C169 1.361 . S
C170 H188 0.931 . S
C171 C169 1.500 . S
C171 C172 1.371 . S
C171 C173 1.365 . S
C172 C171 1.371 . S
C172 C182 1.386 . S
C172 H190 0.931 . S
C173 C171 1.365 . S
C173 C174 1.409 . S
C173 H191 0.929 . S
C174 C173 1.409 . S
C174 C175 1.380 . S
C174 H192 0.930 . S
C175 C174 1.380 . S
C175 C182 1.357 . S
C176 C167 1.511 . S
C176 C177 1.341 . S
C176 C178 1.371 . S
C177 C176 1.341 . S
C177 C181 1.394 . S
C177 H193 0.930 . S
C178 C176 1.371 . S
C178 C179 1.392 . S
C178 H194 0.931 . S
C179 C178 1.392 . S
C179 C180 1.331 . S
C179 H197 0.932 . S
C180 C179 1.331 . S
C180 C181 1.336 . S
C181 C177 1.394 . S
C181 C180 1.336 . S
C181 H196 0.929 . S
C182 C172 1.386 . S
C182 C175 1.357 . S
C182 H195 0.928 . S
H183 C159 0.931 . S
H184 C161 0.930 . S
H185 C163 0.929 . S
H186 C164 0.931 . S
H187 C166 0.930 . S
H188 C170 0.931 . S
H189 C168 0.931 . S
H190 C172 0.931 . S
H191 C173 0.929 . S
H192 C174 0.930 . S
H193 C177 0.930 . S
H194 C178 0.931 . S
H195 C182 0.928 . S
H196 C181 0.929 . S
H197 C179 0.932 . S
C198 C199 1.386 . S
C198 C200 1.397 . S
C198 H222 0.931 . S
C199 C198 1.386 . S
C199 C203 1.397 1_455 S
C200 C198 1.397 . S
C200 C201 1.384 . S
C200 H223 0.930 . S
C201 C200 1.384 . S
C201 C202 1.375 1_455 S
C201 C204 1.481 . S
C202 C201 1.375 1_655 S
C202 C203 1.389 . S
C202 H224 0.932 . S
C203 C199 1.397 1_655 S
C203 C202 1.389 . S
C203 H225 0.931 . S
C204 C201 1.481 . S
C204 C205 1.387 . S
C204 C209 1.390 . S
C205 C204 1.387 . S
C205 C206 1.401 . S
C205 H226 0.930 . S
C206 C205 1.401 . S
C206 C207 1.376 . S
C206 C215 1.511 . S
C207 C206 1.376 . S
C207 C208 1.392 . S
C207 H228 0.931 . S
C208 C207 1.392 . S
C208 C209 1.361 . S
C208 C210 1.500 1_455 S
C209 C204 1.390 . S
C209 C208 1.361 . S
C209 H227 0.931 1_455 S
C210 C208 1.500 1_655 S
C210 C211 1.371 . S
C210 C212 1.365 . S
C211 C210 1.371 . S
C211 C221 1.386 . S
C211 H229 0.931 1_655 S
C212 C210 1.365 . S
C212 C213 1.409 . S
C212 H230 0.929 . S
C213 C212 1.409 . S
C213 C214 1.380 . S
C213 H231 0.930 . S
C214 C213 1.380 . S
C214 C221 1.357 . S
C215 C206 1.511 . S
C215 C216 1.341 . S
C215 C217 1.371 . S
C216 C215 1.341 . S
C216 C220 1.394 . S
C216 H232 0.930 . S
C217 C215 1.371 . S
C217 C218 1.392 . S
C217 H233 0.931 . S
C218 C217 1.392 . S
C218 C219 1.331 . S
C218 H236 0.932 . S
C219 C218 1.331 . S
C219 C220 1.336 . S
C220 C216 1.394 . S
C220 C219 1.336 . S
C220 H235 0.929 . S
C221 C211 1.386 . S
C221 C214 1.357 . S
C221 H234 0.928 . S
H222 C198 0.931 . S
H223 C200 0.930 . S
H224 C202 0.932 . S
H225 C203 0.931 . S
H226 C205 0.930 . S
H227 C209 0.931 1_655 S
H228 C207 0.931 . S
H229 C211 0.931 1_455 S
H230 C212 0.929 . S
H231 C213 0.930 . S
H232 C216 0.930 . S
H233 C217 0.931 . S
H234 C221 0.928 . S
H235 C220 0.929 . S
H236 C218 0.932 . S
C237 C238 1.385 . S
C237 C239 1.397 . S
C237 H261 0.931 . S
C238 C237 1.385 . S
C238 C242 1.398 1_655 S
C239 C237 1.397 . S
C239 C240 1.384 . S
C239 H262 0.930 . S
C240 C239 1.384 . S
C240 C241 1.377 1_655 S
C240 C243 1.481 . S
C241 C240 1.377 1_455 S
C241 C242 1.389 . S
C241 H263 0.929 . S
C242 C238 1.398 1_455 S
C242 C241 1.389 . S
C242 H264 0.931 . S
C243 C240 1.481 . S
C243 C244 1.387 . S
C243 C248 1.390 1_655 S
C244 C243 1.387 . S
C244 C245 1.401 . S
C244 H265 0.930 . S
C245 C244 1.401 . S
C245 C246 1.376 . S
C245 C254 1.511 . S
C246 C245 1.376 . S
C246 C247 1.392 1_655 S
C246 H267 0.931 . S
C247 C246 1.392 1_455 S
C247 C248 1.361 . S
C247 C249 1.500 . S
C248 C243 1.390 1_455 S
C248 C247 1.361 . S
C248 H266 0.931 . S
C249 C247 1.500 . S
C249 C250 1.371 . S
C249 C251 1.365 . S
C250 C249 1.371 . S
C250 C260 1.386 . S
C250 H268 0.931 . S
C251 C249 1.365 . S
C251 C252 1.409 . S
C251 H269 0.929 . S
C252 C251 1.409 . S
C252 C253 1.380 . S
C252 H270 0.930 . S
C253 C252 1.380 . S
C253 C260 1.357 . S
C254 C245 1.511 . S
C254 C255 1.341 . S
C254 C256 1.371 . S
C255 C254 1.341 . S
C255 C259 1.394 . S
C255 H271 0.930 . S
C256 C254 1.371 . S
C256 C257 1.392 . S
C256 H272 0.931 . S
C257 C256 1.392 . S
C257 C258 1.331 . S
C257 H275 0.932 . S
C258 C257 1.331 . S
C258 C259 1.336 . S
C259 C255 1.394 . S
C259 C258 1.336 . S
C259 H274 0.929 . S
C260 C250 1.386 . S
C260 C253 1.357 . S
C260 H273 0.928 . S
H261 C237 0.931 . S
H262 C239 0.930 . S
H263 C241 0.929 . S
H264 C242 0.931 . S
H265 C244 0.930 . S
H266 C248 0.931 . S
H267 C246 0.931 . S
H268 C250 0.931 . S
H269 C251 0.929 . S
H270 C252 0.930 . S
H271 C255 0.930 . S
H272 C256 0.931 . S
H273 C260 0.928 . S
H274 C259 0.929 . S
H275 C257 0.932 . S
C276 C277 1.386 . S
C276 C278 1.397 . S
C276 H300 0.931 . S
C277 C276 1.386 . S
C277 C281 1.397 1_565 S
C278 C276 1.397 . S
C278 C279 1.384 . S
C278 H301 0.930 . S
C279 C278 1.384 . S
C279 C280 1.377 1_565 S
C279 C282 1.481 . S
C280 C279 1.377 1_545 S
C280 C281 1.389 . S
C280 H302 0.929 . S
C281 C277 1.397 1_545 S
C281 C280 1.389 . S
C281 H303 0.931 . S
C282 C279 1.481 . S
C282 C283 1.387 . S
C282 C287 1.390 1_565 S
C283 C282 1.387 . S
C283 C284 1.401 . S
C283 H304 0.930 . S
C284 C283 1.401 . S
C284 C285 1.376 1_565 S
C284 C293 1.511 . S
C285 C284 1.376 1_545 S
C285 C286 1.392 . S
C285 H306 0.931 . S
C286 C285 1.392 . S
C286 C287 1.361 . S
C286 C288 1.500 . S
C287 C282 1.390 1_545 S
C287 C286 1.361 . S
C287 H305 0.931 . S
C288 C286 1.500 . S
C288 C289 1.371 . S
C288 C290 1.365 . S
C289 C288 1.371 . S
C289 C299 1.386 . S
C289 H307 0.931 . S
C290 C288 1.365 . S
C290 C291 1.409 . S
C290 H308 0.929 . S
C291 C290 1.409 . S
C291 C292 1.380 . S
C291 H309 0.930 . S
C292 C291 1.380 . S
C292 C299 1.357 . S
C293 C284 1.511 . S
C293 C294 1.341 . S
C293 C295 1.371 . S
C294 C293 1.341 . S
C294 C298 1.394 . S
C294 H310 0.930 . S
C295 C293 1.371 . S
C295 C296 1.392 . S
C295 H311 0.931 . S
C296 C295 1.392 . S
C296 C297 1.331 . S
C296 H314 0.932 . S
C297 C296 1.331 . S
C297 C298 1.336 . S
C298 C294 1.394 . S
C298 C297 1.336 . S
C298 H313 0.929 . S
C299 C289 1.386 . S
C299 C292 1.357 . S
C299 H312 0.928 . S
H300 C276 0.931 . S
H301 C278 0.930 . S
H302 C280 0.929 . S
H303 C281 0.931 . S
H304 C283 0.930 . S
H305 C287 0.931 . S
H306 C285 0.931 . S
H307 C289 0.931 . S
H308 C290 0.929 . S
H309 C291 0.930 . S
H310 C294 0.930 . S
H311 C295 0.931 . S
H312 C299 0.928 . S
H313 C298 0.929 . S
H314 C296 0.932 . S
C315 C316 1.386 . S
C315 C317 1.397 1_556 S
C315 H339 0.931 . S
C316 C315 1.386 . S
C316 C320 1.397 . S
C317 C315 1.397 1_554 S
C317 C318 1.384 . S
C317 H340 0.930 . S
C318 C317 1.384 . S
C318 C319 1.377 . S
C318 C321 1.481 . S
C319 C318 1.377 . S
C319 C320 1.389 1_554 S
C319 H341 0.929 . S
C320 C316 1.397 . S
C320 C319 1.389 1_556 S
C320 H342 0.931 . S
C321 C318 1.481 . S
C321 C322 1.387 . S
C321 C326 1.390 . S
C322 C321 1.387 . S
C322 C323 1.401 . S
C322 H343 0.930 . S
C323 C322 1.401 . S
C323 C324 1.376 . S
C323 C332 1.511 . S
C324 C323 1.376 . S
C324 C325 1.392 . S
C324 H345 0.931 . S
C325 C324 1.392 . S
C325 C326 1.361 . S
C325 C327 1.500 . S
C326 C321 1.390 . S
C326 C325 1.361 . S
C326 H344 0.931 . S
C327 C325 1.500 . S
C327 C328 1.371 . S
C327 C329 1.365 . S
C328 C327 1.371 . S
C328 C338 1.386 . S
C328 H346 0.931 . S
C329 C327 1.365 . S
C329 C330 1.409 . S
C329 H347 0.929 . S
C330 C329 1.409 . S
C330 C331 1.380 . S
C330 H348 0.930 . S
C331 C330 1.380 . S
C331 C338 1.357 . S
C332 C323 1.511 . S
C332 C333 1.341 . S
C332 C334 1.371 . S
C333 C332 1.341 . S
C333 C337 1.394 . S
C333 H349 0.930 . S
C334 C332 1.371 . S
C334 C335 1.392 . S
C334 H350 0.931 . S
C335 C334 1.392 . S
C335 C336 1.331 . S
C335 H353 0.932 . S
C336 C335 1.331 . S
C336 C337 1.336 . S
C337 C333 1.394 . S
C337 C336 1.336 . S
C337 H352 0.929 . S
C338 C328 1.386 . S
C338 C331 1.357 . S
C338 H351 0.928 . S
H339 C315 0.931 . S
H340 C317 0.930 . S
H341 C319 0.929 . S
H342 C320 0.931 . S
H343 C322 0.930 . S
H344 C326 0.931 . S
H345 C324 0.931 . S
H346 C328 0.931 . S
H347 C329 0.929 . S
H348 C330 0.930 . S
H349 C333 0.930 . S
H350 C334 0.931 . S
H351 C338 0.928 . S
H352 C337 0.929 . S
H353 C335 0.932 . S
C354 C355 1.369 . S
C354 C356 1.419 . S
C354 H358 0.930 . S
C355 C354 1.369 . S
C355 C364 1.429 . S
C356 C354 1.419 . S
C356 C357 1.363 . S
C356 H359 0.929 . S
C357 C356 1.363 . S
C357 C363 1.428 . S
H358 C354 0.930 . S
H359 C356 0.929 . S
S360 N361 1.613 . S
S360 N362 1.610 . S
N361 S360 1.613 . S
N361 C364 1.350 . S
N362 S360 1.610 . S
N362 C363 1.351 . S
C363 C357 1.428 . S
C363 N362 1.351 . S
C363 C364 1.434 . S
C364 C355 1.429 . S
C364 N361 1.350 . S
C364 C363 1.434 . S
C365 C366 1.369 . S
C365 C367 1.419 . S
C365 H369 0.930 . S
C366 C365 1.369 . S
C366 C375 1.429 . S
C367 C365 1.419 . S
C367 C368 1.363 . S
C367 H370 0.929 . S
C368 C367 1.363 . S
C368 C374 1.428 . S
H369 C365 0.930 . S
H370 C367 0.929 . S
S371 N372 1.613 . S
S371 N373 1.610 . S
N372 S371 1.613 . S
N372 C375 1.350 . S
N373 S371 1.610 . S
N373 C374 1.351 . S
C374 C368 1.428 . S
C374 N373 1.351 . S
C374 C375 1.434 . S
C375 C366 1.429 . S
C375 N372 1.350 . S
C375 C374 1.434 . S
C376 C377 1.369 . S
C376 C378 1.419 . S
C376 H380 0.930 . S
C377 C376 1.369 . S
C377 C386 1.429 . S
C378 C376 1.419 . S
C378 C379 1.363 . S
C378 H381 0.929 . S
C379 C378 1.363 . S
C379 C385 1.428 . S
H380 C376 0.930 . S
H381 C378 0.929 . S
S382 N383 1.613 . S
S382 N384 1.610 . S
N383 S382 1.613 . S
N383 C386 1.350 . S
N384 S382 1.610 . S
N384 C385 1.351 . S
C385 C379 1.428 . S
C385 N384 1.351 . S
C385 C386 1.434 . S
C386 C377 1.429 . S
C386 N383 1.350 . S
C386 C385 1.434 . S
C387 C388 1.369 . S
C387 C389 1.419 . S
C387 H391 0.930 . S
C388 C387 1.369 . S
C388 C397 1.429 . S
C389 C387 1.419 . S
C389 C390 1.363 . S
C389 H392 0.929 . S
C390 C389 1.363 . S
C390 C396 1.428 . S
H391 C387 0.930 . S
H392 C389 0.929 . S
S393 N394 1.613 . S
S393 N395 1.610 . S
N394 S393 1.613 . S
N394 C397 1.350 . S
N395 S393 1.610 . S
N395 C396 1.351 . S
C396 C390 1.428 . S
C396 N395 1.351 . S
C396 C397 1.434 . S
C397 C388 1.429 . S
C397 N394 1.350 . S
C397 C396 1.434 . S
C398 C399 1.369 . S
C398 C400 1.419 . S
C398 H402 0.930 . S
C399 C398 1.369 . S
C399 C408 1.429 . S
C400 C398 1.419 . S
C400 C401 1.363 . S
C400 H403 0.929 . S
C401 C400 1.363 . S
C401 C407 1.428 . S
H402 C398 0.930 . S
H403 C400 0.929 . S
S404 N405 1.613 . S
S404 N406 1.610 . S
N405 S404 1.613 . S
N405 C408 1.350 . S
N406 S404 1.610 . S
N406 C407 1.351 . S
C407 C401 1.428 . S
C407 N406 1.351 . S
C407 C408 1.434 . S
C408 C399 1.429 . S
C408 N405 1.350 . S
C408 C407 1.434 . S
C409 C410 1.369 . S
C409 C411 1.419 . S
C409 H413 0.930 . S
C410 C409 1.369 . S
C410 C419 1.429 . S
C411 C409 1.419 . S
C411 C412 1.363 . S
C411 H414 0.929 . S
C412 C411 1.363 . S
C412 C418 1.428 . S
H413 C409 0.930 . S
H414 C411 0.929 . S
S415 N416 1.613 . S
S415 N417 1.610 . S
N416 S415 1.613 . S
N416 C419 1.350 . S
N417 S415 1.610 . S
N417 C418 1.351 . S
C418 C412 1.428 . S
C418 N417 1.351 . S
C418 C419 1.434 . S
C419 C410 1.429 . S
C419 N416 1.350 . S
C419 C418 1.434 . S
C420 C421 1.369 . S
C420 C422 1.419 . S
C420 H424 0.930 . S
C421 C420 1.369 . S
C421 C430 1.429 . S
C422 C420 1.419 . S
C422 C423 1.363 . S
C422 H425 0.929 . S
C423 C422 1.363 . S
C423 C429 1.428 . S
H424 C420 0.930 . S
H425 C422 0.929 . S
S426 N427 1.613 . S
S426 N428 1.610 . S
N427 S426 1.613 . S
N427 C430 1.350 . S
N428 S426 1.610 . S
N428 C429 1.351 . S
C429 C423 1.428 . S
C429 N428 1.351 . S
C429 C430 1.434 . S
C430 C421 1.429 . S
C430 N427 1.350 . S
C430 C429 1.434 . S
C431 C432 1.369 . S
C431 C433 1.419 . S
C431 H435 0.930 . S
C432 C431 1.369 . S
C432 C441 1.429 . S
C433 C431 1.419 . S
C433 C434 1.363 . S
C433 H436 0.929 . S
C434 C433 1.363 . S
C434 C440 1.428 . S
H435 C431 0.930 . S
H436 C433 0.929 . S
S437 N438 1.613 . S
S437 N439 1.610 . S
N438 S437 1.613 . S
N438 C441 1.350 . S
N439 S437 1.610 . S
N439 C440 1.351 . S
C440 C434 1.428 . S
C440 N439 1.351 . S
C440 C441 1.434 . S
C441 C432 1.429 . S
C441 N438 1.350 . S
C441 C440 1.434 . S
C442 C443 1.369 . S
C442 C444 1.419 . S
C442 H446 0.930 . S
C443 C442 1.369 . S
C443 C452 1.429 . S
C444 C442 1.419 . S
C444 C445 1.363 . S
C444 H447 0.929 . S
C445 C444 1.363 . S
C445 C451 1.428 . S
H446 C442 0.930 . S
H447 C444 0.929 . S
S448 N449 1.613 . S
S448 N450 1.610 . S
N449 S448 1.613 . S
N449 C452 1.350 . S
N450 S448 1.610 . S
N450 C451 1.351 . S
C451 C445 1.428 . S
C451 N450 1.351 . S
C451 C452 1.434 . S
C452 C443 1.429 . S
C452 N449 1.350 . S
C452 C451 1.434 . S
C453 C454 1.369 . S
C453 C455 1.419 . S
C453 H457 0.930 . S
C454 C453 1.369 . S
C454 C463 1.429 . S
C455 C453 1.419 . S
C455 C456 1.363 . S
C455 H458 0.929 . S
C456 C455 1.363 . S
C456 C462 1.428 . S
H457 C453 0.930 . S
H458 C455 0.929 . S
S459 N460 1.613 . S
S459 N461 1.610 . S
N460 S459 1.613 . S
N460 C463 1.350 . S
N461 S459 1.610 . S
N461 C462 1.351 . S
C462 C456 1.428 . S
C462 N461 1.351 . S
C462 C463 1.434 . S
C463 C454 1.429 . S
C463 N460 1.350 . S
C463 C462 1.434 . S
C464 C465 1.369 . S
C464 C466 1.419 . S
C464 H468 0.930 . S
C465 C464 1.369 . S
C465 C474 1.429 . S
C466 C464 1.419 . S
C466 C467 1.363 . S
C466 H469 0.929 . S
C467 C466 1.363 . S
C467 C473 1.428 . S
H468 C464 0.930 . S
H469 C466 0.929 . S
S470 N471 1.613 . S
S470 N472 1.610 . S
N471 S470 1.613 . S
N471 C474 1.350 . S
N472 S470 1.610 . S
N472 C473 1.351 . S
C473 C467 1.428 . S
C473 N472 1.351 . S
C473 C474 1.434 . S
C474 C465 1.429 . S
C474 N471 1.350 . S
C474 C473 1.434 . S
C475 C476 1.369 . S
C475 C477 1.419 . S
C475 H479 0.930 . S
C476 C475 1.369 . S
C476 C485 1.429 . S
C477 C475 1.419 . S
C477 C478 1.363 . S
C477 H480 0.929 . S
C478 C477 1.363 . S
C478 C484 1.428 . S
H479 C475 0.930 . S
H480 C477 0.929 . S
S481 N482 1.613 . S
S481 N483 1.610 . S
N482 S481 1.613 . S
N482 C485 1.350 . S
N483 S481 1.610 . S
N483 C484 1.351 . S
C484 C478 1.428 . S
C484 N483 1.351 . S
C484 C485 1.434 . S
C485 C476 1.429 . S
C485 N482 1.350 . S
C485 C484 1.434 . S
C486 C487 1.369 . S
C486 C488 1.419 . S
C486 H490 0.930 . S
C487 C486 1.369 . S
C487 C496 1.429 1_455 S
C488 C486 1.419 . S
C488 C489 1.363 . S
C488 H491 0.929 . S
C489 C488 1.363 . S
C489 C495 1.428 1_455 S
H490 C486 0.930 . S
H491 C488 0.929 . S
S492 N493 1.613 . S
S492 N494 1.610 . S
N493 S492 1.613 . S
N493 C496 1.350 . S
N494 S492 1.610 . S
N494 C495 1.351 . S
C495 C489 1.428 1_655 S
C495 N494 1.351 . S
C495 C496 1.434 . S
C496 C487 1.429 1_655 S
C496 N493 1.350 . S
C496 C495 1.434 . S
C497 C498 1.369 1_565 S
C497 C499 1.419 . S
C497 H501 0.930 . S
C498 C497 1.369 1_545 S
C498 C507 1.429 . S
C499 C497 1.419 . S
C499 C500 1.363 1_565 S
C499 H502 0.929 . S
C500 C499 1.363 1_545 S
C500 C506 1.428 . S
H501 C497 0.930 . S
H502 C499 0.929 . S
S503 N504 1.613 . S
S503 N505 1.610 . S
N504 S503 1.613 . S
N504 C507 1.350 . S
N505 S503 1.610 . S
N505 C506 1.351 . S
C506 C500 1.428 . S
C506 N505 1.351 . S
C506 C507 1.434 . S
C507 C498 1.429 . S
C507 N504 1.350 . S
C507 C506 1.434 . S
C508 C509 1.369 . S
C508 C510 1.419 . S
C508 H512 0.930 . S
C509 C508 1.369 . S
C509 C518 1.429 . S
C510 C508 1.419 . S
C510 C511 1.363 . S
C510 H513 0.929 . S
C511 C510 1.363 . S
C511 C517 1.428 . S
H512 C508 0.930 . S
H513 C510 0.929 . S
S514 N515 1.613 . S
S514 N516 1.610 . S
N515 S514 1.613 . S
N515 C518 1.350 . S
N516 S514 1.610 . S
N516 C517 1.351 . S
C517 C511 1.428 . S
C517 N516 1.351 . S
C517 C518 1.434 . S
C518 C509 1.429 . S
C518 N515 1.350 . S
C518 C517 1.434 . S
C519 C520 1.369 . S
C519 C521 1.419 . S
C519 H523 0.930 . S
C520 C519 1.369 . S
C520 C529 1.429 1_545 S
C521 C519 1.419 . S
C521 C522 1.363 1_545 S
C521 H524 0.929 . S
C522 C521 1.363 1_565 S
C522 C528 1.428 . S
H523 C519 0.930 . S
H524 C521 0.929 . S
S525 N526 1.613 . S
S525 N527 1.610 . S
N526 S525 1.613 . S
N526 C529 1.350 . S
N527 S525 1.610 . S
N527 C528 1.351 . S
C528 C522 1.428 . S
C528 N527 1.351 . S
C528 C529 1.434 . S
C529 C520 1.429 1_565 S
C529 N526 1.350 . S
C529 C528 1.434 . S
C530 C531 1.369 . S
C530 C532 1.419 . S
C530 H534 0.930 . S
C531 C530 1.369 . S
C531 C540 1.429 . S
C532 C530 1.419 . S
C532 C533 1.363 . S
C532 H535 0.929 . S
C533 C532 1.363 . S
C533 C539 1.428 . S
H534 C530 0.930 . S
H535 C532 0.929 . S
S536 N537 1.613 . S
S536 N538 1.610 . S
N537 S536 1.613 . S
N537 C540 1.350 . S
N538 S536 1.610 . S
N538 C539 1.351 . S
C539 C533 1.428 . S
C539 N538 1.351 . S
C539 C540 1.434 . S
C540 C531 1.429 . S
C540 N537 1.350 . S
C540 C539 1.434 . S
C541 C542 1.369 1_655 S
C541 C543 1.419 . S
C541 H545 0.930 . S
C542 C541 1.369 1_455 S
C542 C551 1.429 . S
C543 C541 1.419 . S
C543 C544 1.363 1_655 S
C543 H546 0.929 . S
C544 C543 1.363 1_455 S
C544 C550 1.428 . S
H545 C541 0.930 . S
H546 C543 0.929 . S
S547 N548 1.613 . S
S547 N549 1.610 . S
N548 S547 1.613 . S
N548 C551 1.350 . S
N549 S547 1.610 . S
N549 C550 1.351 . S
C550 C544 1.428 . S
C550 N549 1.351 . S
C550 C551 1.434 . S
C551 C542 1.429 . S
C551 N548 1.350 . S
C551 C550 1.434 . S
C355 C6 0.908 . S
C357 C331 0.940 . S
C366 C59 2.019 . S
C368 C258 1.969 . S
C377 C86 1.355 . S
C379 C297 1.398 . S
C388 C15 0.648 . S
C390 C336 0.535 . S
C401 C253 2.047 . S
C399 C50 2.145 . S
C412 C292 1.378 . S
C410 C95 1.351 . S
C421 C46 1.281 . S
C423 C180 1.308 . S
C432 C99 3.199 . S
C434 C214 3.148 . S
C443 C10 2.174 . S
C445 C136 2.101 . S
C456 C175 1.381 . S
C454 C55 1.337 . S
C467 C219 3.072 . S
C465 C90 3.125 . S
C476 C19 2.015 . S
C478 C141 1.982 . S
C489 C199 1.797 1_554 S
C487 C18 1.718 . S
C498 C49 1.321 . S
C500 C121 1.369 . S
C509 C98 1.444 . S
C511 C160 1.506 . S
C522 C277 1.487 . S
C520 C58 1.442 . S
C533 C316 1.076 . S
C531 C89 1.080 . S
C542 C9 1.308 . S
C544 C238 1.352 1_455 S
