# Generated by pormake.
# Topology ssa, (4,4)-cn, num edge types: 1
# Building blocks:
#     Node 0, Type 0, BuildingBlock: IZENUY_clean_linker_0, # of connection points: 4
#     Node 1, Type 0, BuildingBlock: IZENUY_clean_linker_0, # of connection points: 4
#     Node 2, Type 0, BuildingBlock: IZENUY_clean_linker_0, # of connection points: 4
#     Node 3, Type 0, BuildingBlock: IZENUY_clean_linker_0, # of connection points: 4
#     Node 4, Type 0, BuildingBlock: IZENUY_clean_linker_0, # of connection points: 4
#     Node 5, Type 0, BuildingBlock: IZENUY_clean_linker_0, # of connection points: 4
#     Node 6, Type 1, BuildingBlock: NAWXER_clean_sbu_0, # of connection points: 4
#     Node 7, Type 1, BuildingBlock: NAWXER_clean_sbu_0, # of connection points: 4
#     Node 8, Type 1, BuildingBlock: NAWXER_clean_sbu_0, # of connection points: 4
#     Node 9, Type 1, BuildingBlock: NAWXER_clean_sbu_0, # of connection points: 4
#     Node 10, Type 1, BuildingBlock: NAWXER_clean_sbu_0, # of connection points: 4
#     Node 11, Type 1, BuildingBlock: NAWXER_clean_sbu_0, # of connection points: 4
#     Edge 12, Type (0, 1), BuildingBlock: CIFDUS_clean_linker_0, # of connection points: 2
#     Edge 13, Type (0, 1), BuildingBlock: CIFDUS_clean_linker_0, # of connection points: 2
#     Edge 14, Type (0, 1), BuildingBlock: CIFDUS_clean_linker_0, # of connection points: 2
#     Edge 15, Type (0, 1), BuildingBlock: CIFDUS_clean_linker_0, # of connection points: 2
#     Edge 16, Type (0, 1), BuildingBlock: CIFDUS_clean_linker_0, # of connection points: 2
#     Edge 17, Type (0, 1), BuildingBlock: CIFDUS_clean_linker_0, # of connection points: 2
#     Edge 18, Type (0, 1), BuildingBlock: CIFDUS_clean_linker_0, # of connection points: 2
#     Edge 19, Type (0, 1), BuildingBlock: CIFDUS_clean_linker_0, # of connection points: 2
#     Edge 20, Type (0, 1), BuildingBlock: CIFDUS_clean_linker_0, # of connection points: 2
#     Edge 21, Type (0, 1), BuildingBlock: CIFDUS_clean_linker_0, # of connection points: 2
#     Edge 22, Type (0, 1), BuildingBlock: CIFDUS_clean_linker_0, # of connection points: 2
#     Edge 23, Type (0, 1), BuildingBlock: CIFDUS_clean_linker_0, # of connection points: 2
#     Edge 24, Type (0, 1), BuildingBlock: CIFDUS_clean_linker_0, # of connection points: 2
#     Edge 25, Type (0, 1), BuildingBlock: CIFDUS_clean_linker_0, # of connection points: 2
#     Edge 26, Type (0, 1), BuildingBlock: CIFDUS_clean_linker_0, # of connection points: 2
#     Edge 27, Type (0, 1), BuildingBlock: CIFDUS_clean_linker_0, # of connection points: 2
#     Edge 28, Type (0, 1), BuildingBlock: CIFDUS_clean_linker_0, # of connection points: 2
#     Edge 29, Type (0, 1), BuildingBlock: CIFDUS_clean_linker_0, # of connection points: 2
#     Edge 30, Type (0, 1), BuildingBlock: CIFDUS_clean_linker_0, # of connection points: 2
#     Edge 31, Type (0, 1), BuildingBlock: CIFDUS_clean_linker_0, # of connection points: 2
#     Edge 32, Type (0, 1), BuildingBlock: CIFDUS_clean_linker_0, # of connection points: 2
#     Edge 33, Type (0, 1), BuildingBlock: CIFDUS_clean_linker_0, # of connection points: 2
#     Edge 34, Type (0, 1), BuildingBlock: CIFDUS_clean_linker_0, # of connection points: 2
#     Edge 35, Type (0, 1), BuildingBlock: CIFDUS_clean_linker_0, # of connection points: 2
# Relax obj value: 0.000
# Max RMSD: 0.033
# Mean RMSD: 0.016
data_MOF--net-ssa--node1-NAWXER_clean_sbu_0--node2-IZENUY_clean_linker_0--edge1-CIFDUS_clean_linker_0
_symmetry_space_group_name_H-M    P1
_symmetry_Int_Tables_number       1
_symmetry_cell_setting            triclinic
loop_
_symmetry_equiv_pos_as_xyz
'x, y, z'
_cell_length_a     42.956033
_cell_length_b     43.06907
_cell_length_c     35.132023
_cell_angle_alpha  91.915266
_cell_angle_beta   89.941945
_cell_angle_gamma 119.84758
loop_
_atom_site_label
_atom_site_type_symbol
_atom_site_fract_x
_atom_site_fract_y
_atom_site_fract_z
_atom_type_partial_charge
H0 H 0.96935 0.41686 0.99856 0.0
H1 H 0.96259 0.51196 0.98017 0.0
H2 H 0.89064 0.41179 0.9208 0.0
H3 H 0.04036 0.54109 0.06778 0.0
H4 H 0.04553 0.44348 0.06975 0.0
H5 H 0.11964 0.5355 0.13757 0.0
N6 N 0.9968 0.48676 1.02093 0.0
N7 N 0.01106 0.47207 0.03827 0.0
C8 C 0.95716 0.43036 0.98466 0.0
C9 C 0.92945 0.41107 0.95802 0.0
C10 C 0.96886 0.46684 0.99337 0.0
C11 C 0.95286 0.48376 0.97415 0.0
C12 C 0.92489 0.46443 0.94698 0.0
C13 C 0.91308 0.42785 0.94013 0.0
C14 C 0.05242 0.52608 0.07831 0.0
C15 C 0.08179 0.54272 0.10415 0.0
C16 C 0.03938 0.49006 0.06565 0.0
C17 C 0.05534 0.47096 0.07961 0.0
C18 C 0.08466 0.48754 0.10497 0.0
C19 C 0.09734 0.52305 0.11726 0.0
H20 H 0.55793 0.05072 0.57386 0.0
H21 H 0.44726 0.01745 0.59856 0.0
H22 H 0.53275 0.10359 0.66428 0.0
H23 H 0.44742 0.96393 0.49489 0.0
H24 H 0.54662 0.96407 0.51514 0.0
H25 H 0.47083 0.89062 0.43184 0.0
N26 N 0.48861 0.00325 0.55325 0.0
N27 N 0.50934 0.99426 0.53799 0.0
C28 C 0.53809 0.05339 0.59051 0.0
C29 C 0.54961 0.08024 0.61949 0.0
C30 C 0.50099 0.03071 0.5825 0.0
C31 C 0.4757 0.03496 0.60425 0.0
C32 C 0.48717 0.06084 0.63426 0.0
C33 C 0.52396 0.08341 0.64127 0.0
C34 C 0.46501 0.95319 0.48873 0.0
C35 C 0.45534 0.92623 0.45983 0.0
C36 C 0.49812 0.96693 0.50884 0.0
C37 C 0.52124 0.95356 0.49989 0.0
C38 C 0.51121 0.92601 0.47223 0.0
C39 C 0.47842 0.91244 0.45272 0.0
H40 H 0.47407 0.44525 1.00092 0.0
H41 H 0.58389 0.53125 0.99603 0.0
H42 H 0.54613 0.43716 0.92214 0.0
H43 H 0.53885 0.56821 0.0727 0.0
H44 H 0.43345 0.47652 0.08627 0.0
H45 H 0.46806 0.57274 0.15576 0.0
N46 N 0.52229 0.51148 1.03054 0.0
N47 N 0.49311 0.49945 0.04738 0.0
C48 C 0.50048 0.45699 0.98856 0.0
C49 C 0.50706 0.43779 0.95973 0.0
C50 C 0.52809 0.49121 1.00136 0.0
C51 C 0.56246 0.50545 0.9855 0.0
C52 C 0.56953 0.48582 0.95736 0.0
C53 C 0.54129 0.45245 0.94416 0.0
C54 C 0.51322 0.55525 0.08676 0.0
C55 C 0.50582 0.57441 0.1149 0.0
C56 C 0.48703 0.51962 0.07642 0.0
C57 C 0.45364 0.50364 0.0947 0.0
C58 C 0.44613 0.52272 0.12314 0.0
C59 C 0.47277 0.55786 0.13317 0.0
H60 H 0.05276 0.50108 0.52132 0.0
H61 H 0.06295 0.60533 0.50935 0.0
H62 H 0.13161 0.57666 0.44711 0.0
H63 H 0.99495 0.56591 0.59278 0.0
H64 H 0.96727 0.45497 0.59392 0.0
H65 H 0.90851 0.49361 0.66123 0.0
N66 N 0.02695 0.54525 0.54533 0.0
N67 N 0.00991 0.51616 0.56144 0.0
C68 C 0.06521 0.52699 0.50853 0.0
C69 C 0.0933 0.53605 0.48275 0.0
C70 C 0.05408 0.55214 0.51819 0.0
C71 C 0.0711 0.58587 0.50164 0.0
C72 C 0.09939 0.595 0.47637 0.0
C73 C 0.10989 0.5698 0.46689 0.0
C74 C 0.97823 0.53901 0.60251 0.0
C75 C 0.95164 0.53265 0.62916 0.0
C76 C 0.98333 0.51061 0.58892 0.0
C77 C 0.96222 0.47622 0.60339 0.0
C78 C 0.9353 0.46953 0.63025 0.0
C79 C 0.9298 0.498 0.64179 0.0
H80 H 0.47288 0.03952 1.00172 0.0
H81 H 0.57249 0.0373 0.99729 0.0
H82 H 0.55968 0.11467 0.93524 0.0
H83 H 0.50923 0.96308 0.07939 0.0
H84 H 0.40765 0.95706 0.05602 0.0
H85 H 0.41257 0.88384 0.13182 0.0
N86 N 0.50728 0.00561 1.02777 0.0
N87 N 0.47559 0.99153 0.03857 0.0
C88 C 0.49997 0.0499 0.99154 0.0
C89 C 0.51421 0.07924 0.96788 0.0
C90 C 0.521 0.03465 1.00261 0.0
C91 C 0.55622 0.0488 0.98899 0.0
C92 C 0.57042 0.07817 0.9651 0.0
C93 C 0.54908 0.09271 0.95462 0.0
C94 C 0.48052 0.95045 0.08333 0.0
C95 C 0.4636 0.92241 0.10892 0.0
C96 C 0.46014 0.96285 0.06394 0.0
C97 C 0.42318 0.9472 0.07035 0.0
C98 C 0.40616 0.91867 0.09465 0.0
C99 C 0.42629 0.90623 0.11327 0.0
H100 H 0.43796 0.46059 0.49331 0.0
H101 H 0.53123 0.56354 0.47422 0.0
H102 H 0.42978 0.53346 0.41973 0.0
H103 H 0.5668 0.51593 0.54912 0.0
H104 H 0.46969 0.41533 0.56561 0.0
H105 H 0.56677 0.44123 0.62676 0.0
N106 N 0.50883 0.50355 0.51138 0.0
N107 N 0.49561 0.47498 0.52866 0.0
C108 C 0.45073 0.48606 0.47956 0.0
C109 C 0.43009 0.49449 0.45579 0.0
C110 C 0.48754 0.51093 0.48619 0.0
C111 C 0.5032 0.54419 0.46858 0.0
C112 C 0.4824 0.55291 0.44493 0.0
C113 C 0.44609 0.52749 0.43837 0.0
C114 C 0.55254 0.4904 0.5626 0.0
C115 C 0.5708 0.48071 0.58855 0.0
C116 C 0.51571 0.46666 0.55438 0.0
C117 C 0.49784 0.43355 0.57215 0.0
C118 C 0.51623 0.42378 0.59781 0.0
C119 C 0.55245 0.44786 0.60605 0.0
C120 C 0.2516 0.41537 0.345 0.0
C121 C 0.17391 0.41791 0.24501 0.0
O122 O 0.22799 0.38858 0.32542 0.0
Zn123 Zn 0.21098 0.41506 0.29564 0.0
O124 O 0.25617 0.4466 0.33974 0.0
Zn125 Zn 0.23533 0.47136 0.30486 0.0
O126 O 0.21637 0.49142 0.34135 0.0
O127 O 0.18389 0.43241 0.33632 0.0
O128 O 0.19542 0.44869 0.26049 0.0
O129 O 0.17313 0.38998 0.25695 0.0
O130 O 0.25771 0.44702 0.26098 0.0
O131 O 0.27654 0.5037 0.27688 0.0
C132 C 0.18933 0.46243 0.3511 0.0
C133 C 0.27989 0.48046 0.25682 0.0
C134 C 0.80183 0.29783 0.74753 0.0
C135 C 0.72656 0.20881 0.8375 0.0
O136 O 0.77715 0.29653 0.76846 0.0
Zn137 Zn 0.76171 0.25105 0.78954 0.0
O138 O 0.80742 0.27115 0.74592 0.0
Zn139 Zn 0.7856 0.22002 0.77398 0.0
O140 O 0.76319 0.18324 0.73323 0.0
O141 O 0.73431 0.21284 0.74423 0.0
O142 O 0.74623 0.19869 0.81945 0.0
O143 O 0.72706 0.23734 0.82843 0.0
O144 O 0.8077 0.26147 0.82231 0.0
O145 O 0.82919 0.22731 0.80032 0.0
C146 C 0.73726 0.18841 0.72553 0.0
C147 C 0.83086 0.25113 0.82402 0.0
C148 C 0.57608 0.82875 0.33856 0.0
C149 C 0.55864 0.75042 0.22689 0.0
O150 O 0.60078 0.82927 0.31814 0.0
Zn151 Zn 0.56856 0.78984 0.28287 0.0
O152 O 0.54319 0.80658 0.33016 0.0
Zn153 Zn 0.51248 0.76601 0.28831 0.0
O154 O 0.486 0.72543 0.31839 0.0
O155 O 0.54392 0.74363 0.31949 0.0
O156 O 0.52926 0.74592 0.2411 0.0
O157 O 0.5885 0.77298 0.24252 0.0
O158 O 0.54361 0.81556 0.25197 0.0
O159 O 0.48598 0.78518 0.2654 0.0
C160 C 0.5119 0.72193 0.33035 0.0
C161 C 0.51172 0.81089 0.24885 0.0
C162 C 0.80637 0.51366 0.81241 0.0
C163 C 0.7313 0.53662 0.72658 0.0
O164 O 0.78169 0.49195 0.78945 0.0
Zn165 Zn 0.76767 0.5244 0.77005 0.0
O166 O 0.81338 0.54631 0.81569 0.0
Zn167 Zn 0.79484 0.57923 0.7894 0.0
O168 O 0.77525 0.59423 0.83198 0.0
O169 O 0.74359 0.53631 0.81739 0.0
O170 O 0.75299 0.56469 0.7466 0.0
O171 O 0.73108 0.50734 0.73087 0.0
O172 O 0.81306 0.55839 0.73846 0.0
O173 O 0.83851 0.61368 0.76283 0.0
C174 C 0.74851 0.56352 0.83809 0.0
C175 C 0.83773 0.59117 0.73788 0.0
C176 C 0.24679 0.82469 0.22402 0.0
C177 C 0.18527 0.74856 0.33034 0.0
O178 O 0.22239 0.82554 0.24379 0.0
Zn179 Zn 0.21562 0.78712 0.27713 0.0
O180 O 0.25794 0.80309 0.23201 0.0
Zn181 Zn 0.2482 0.76356 0.27216 0.0
O182 O 0.23544 0.72281 0.23957 0.0
O183 O 0.19539 0.74057 0.23708 0.0
O184 O 0.21048 0.74387 0.31705 0.0
O185 O 0.1783 0.77086 0.31524 0.0
O186 O 0.26604 0.81421 0.31069 0.0
O187 O 0.29362 0.78359 0.29738 0.0
C188 C 0.20651 0.71914 0.22565 0.0
C189 C 0.29331 0.80975 0.31467 0.0
C190 C 0.42271 0.26267 0.83515 0.0
C191 C 0.41605 0.16504 0.75295 0.0
O192 O 0.45327 0.26601 0.82736 0.0
Zn193 Zn 0.47437 0.23788 0.79594 0.0
O194 O 0.39414 0.23577 0.82182 0.0
Zn195 Zn 0.41765 0.21299 0.79403 0.0
O196 O 0.44015 0.196 0.83932 0.0
O197 O 0.49912 0.22871 0.8345 0.0
O198 O 0.38957 0.16869 0.76306 0.0
O199 O 0.44793 0.18848 0.76371 0.0
O200 O 0.50291 0.27076 0.75839 0.0
O201 O 0.44503 0.25112 0.75025 0.0
C202 C 0.47191 0.20497 0.85133 0.0
C203 C 0.47759 0.27081 0.73988 0.0
H204 H 0.05811 0.42776 0.14714 0.0
H205 H 0.15412 0.50753 0.0942 0.0
H206 H 0.19016 0.48825 0.12921 0.0
H207 H 0.19554 0.45641 0.18275 0.0
H208 H 0.1008 0.37743 0.23784 0.0
H209 H 0.06283 0.38802 0.1939 0.0
C210 C 0.08673 0.43997 0.14248 0.0
C211 C 0.10365 0.46917 0.11851 0.0
C212 C 0.10747 0.42922 0.16349 0.0
C213 C 0.14074 0.48512 0.11273 0.0
C214 C 0.16133 0.47425 0.13287 0.0
C215 C 0.1665 0.44079 0.1843 0.0
C216 C 0.1508 0.41638 0.21332 0.0
C217 C 0.1452 0.44749 0.15951 0.0
C218 C 0.11328 0.39618 0.21537 0.0
C219 C 0.09168 0.40253 0.19052 0.0
H220 H 0.60219 0.06476 0.63791 0.0
H221 H 0.58279 0.1525 0.62152 0.0
H222 H 0.64168 0.19468 0.64907 0.0
H223 H 0.69466 0.20544 0.68559 0.0
H224 H 0.71504 0.11859 0.70357 0.0
H225 H 0.66027 0.07735 0.66718 0.0
C226 C 0.6114 0.09323 0.63947 0.0
C227 C 0.58814 0.10555 0.62809 0.0
C228 C 0.64523 0.11739 0.65609 0.0
C229 C 0.60019 0.14246 0.63042 0.0
C230 C 0.63378 0.16655 0.64629 0.0
C231 C 0.68744 0.17759 0.68101 0.0
C232 C 0.70856 0.16496 0.69766 0.0
C233 C 0.65589 0.15414 0.6605 0.0
C234 C 0.69918 0.12895 0.69105 0.0
C235 C 0.66773 0.10532 0.67046 0.0
H236 H 0.49807 0.63064 0.10001 0.0
H237 H 0.56805 0.60153 0.15669 0.0
H238 H 0.59687 0.65921 0.19264 0.0
H239 H 0.59278 0.71183 0.217 0.0
H240 H 0.51771 0.7365 0.16379 0.0
H241 H 0.50067 0.68734 0.11697 0.0
C242 C 0.52065 0.6377 0.11912 0.0
C243 C 0.53116 0.61226 0.12575 0.0
C244 C 0.53567 0.66994 0.14081 0.0
C245 C 0.55995 0.62108 0.15093 0.0
C246 C 0.57603 0.65382 0.1718 0.0
C247 C 0.57368 0.7071 0.19426 0.0
C248 C 0.55638 0.72752 0.19372 0.0
C249 C 0.56282 0.67765 0.16838 0.0
C250 C 0.53122 0.72094 0.16466 0.0
C251 C 0.52136 0.69276 0.13802 0.0
H252 H 0.90691 0.55532 0.60488 0.0
H253 H 0.98293 0.57166 0.6938 0.0
H254 H 0.95895 0.60174 0.73454 0.0
H255 H 0.90698 0.60936 0.74968 0.0
H256 H 0.82848 0.58874 0.66194 0.0
H257 H 0.86317 0.57573 0.6155 0.0
C258 C 0.91923 0.56707 0.63246 0.0
C259 C 0.94667 0.56161 0.6464 0.0
C260 C 0.90444 0.58323 0.65612 0.0
C261 C 0.96206 0.57608 0.68247 0.0
C262 C 0.94806 0.5929 0.70589 0.0
C263 C 0.89867 0.60401 0.71991 0.0
C264 C 0.8655 0.60029 0.70904 0.0
C265 C 0.91795 0.5948 0.6938 0.0
C266 C 0.85426 0.59224 0.67069 0.0
C267 C 0.87381 0.58424 0.64428 0.0
H268 H 0.3726 0.94465 0.13972 0.0
H269 H 0.35452 0.85337 0.06899 0.0
H270 H 0.29641 0.81669 0.09837 0.0
H271 H 0.25879 0.80772 0.15383 0.0
H272 H 0.2781 0.89752 0.22774 0.0
H273 H 0.32708 0.93808 0.18711 0.0
C274 C 0.35507 0.91717 0.12972 0.0
C275 C 0.36747 0.90151 0.10237 0.0
C276 C 0.32227 0.89595 0.14781 0.0
C277 C 0.34514 0.8658 0.08987 0.0
C278 C 0.31215 0.84481 0.10692 0.0
C279 C 0.27281 0.83641 0.16002 0.0
C280 C 0.26525 0.84978 0.19361 0.0
C281 C 0.30151 0.85911 0.13734 0.0
C282 C 0.28342 0.88682 0.20175 0.0
C283 C 0.31172 0.90988 0.17881 0.0
H284 H 0.54283 0.37955 0.60882 0.0
H285 H 0.45014 0.39076 0.63141 0.0
H286 H 0.42755 0.34082 0.67464 0.0
H287 H 0.43862 0.29961 0.71242 0.0
H288 H 0.53524 0.29427 0.69413 0.0
H289 H 0.55226 0.3368 0.64339 0.0
C290 C 0.51755 0.37096 0.62305 0.0
C291 C 0.49852 0.38925 0.61747 0.0
C292 C 0.50582 0.34371 0.64919 0.0
C293 C 0.46531 0.37713 0.6352 0.0
C294 C 0.45262 0.34886 0.66026 0.0
C295 C 0.46313 0.30745 0.69692 0.0
C296 C 0.48582 0.2941 0.70714 0.0
C297 C 0.47332 0.33282 0.66849 0.0
C298 C 0.51759 0.30454 0.68704 0.0
C299 C 0.52727 0.32874 0.65797 0.0
H300 H 0.56825 0.95099 0.42547 0.0
H301 H 0.50191 0.86343 0.49678 0.0
H302 H 0.5239 0.82654 0.46587 0.0
H303 H 0.5507 0.8153 0.4093 0.0
H304 H 0.61499 0.90142 0.33557 0.0
H305 H 0.60618 0.94324 0.37704 0.0
C306 C 0.55998 0.9244 0.43523 0.0
C307 C 0.53366 0.90976 0.46327 0.0
C308 C 0.57199 0.90301 0.41644 0.0
C309 C 0.52242 0.87512 0.47543 0.0
C310 C 0.53472 0.85398 0.45751 0.0
C311 C 0.56407 0.84359 0.40335 0.0
C312 C 0.58331 0.85541 0.36957 0.0
C313 C 0.55792 0.867 0.42664 0.0
C314 C 0.60038 0.89193 0.36172 0.0
C315 C 0.59486 0.91568 0.38514 0.0
H316 H 0.61902 0.55287 0.93348 0.0
H317 H 0.60296 0.44682 0.94839 0.0
H318 H 0.6586 0.46275 0.91575 0.0
H319 H 0.70847 0.50431 0.87743 0.0
H320 H 0.72689 0.61102 0.8626 0.0
H321 H 0.67431 0.5977 0.90131 0.0
C322 C 0.6281 0.53353 0.93015 0.0
C323 C 0.6063 0.49838 0.94254 0.0
C324 C 0.66048 0.54292 0.91121 0.0
C325 C 0.61863 0.47372 0.93821 0.0
C326 C 0.65056 0.48282 0.91967 0.0
C327 C 0.7013 0.52486 0.88314 0.0
C328 C 0.72128 0.55845 0.86689 0.0
C329 C 0.67112 0.51694 0.90511 0.0
C330 C 0.71197 0.58496 0.8749 0.0
C331 C 0.68173 0.57723 0.89679 0.0
H332 H 0.07317 0.62974 0.43465 0.0
H333 H 0.17095 0.63996 0.48082 0.0
H334 H 0.20655 0.69175 0.44235 0.0
H335 H 0.20982 0.72815 0.38909 0.0
H336 H 0.11308 0.71928 0.3419 0.0
H337 H 0.07704 0.67336 0.38748 0.0
C338 C 0.10223 0.64405 0.43698 0.0
C339 C 0.11952 0.63088 0.46004 0.0
C340 C 0.12265 0.67364 0.41421 0.0
C341 C 0.15718 0.64948 0.46287 0.0
C342 C 0.17753 0.67897 0.44081 0.0
C343 C 0.18087 0.7166 0.38929 0.0
C344 C 0.16399 0.72655 0.36199 0.0
C345 C 0.16056 0.69032 0.4153 0.0
C346 C 0.12658 0.7119 0.36274 0.0
C347 C 0.10601 0.68552 0.38862 0.0
H348 H 0.53544 0.14935 0.97364 0.0
H349 H 0.44775 0.04774 0.93319 0.0
H350 H 0.42283 0.07861 0.89734 0.0
H351 H 0.43255 0.13465 0.86875 0.0
H352 H 0.52454 0.23523 0.90501 0.0
H353 H 0.5413 0.20487 0.95124 0.0
C354 C 0.51038 0.13401 0.95767 0.0
C355 C 0.49363 0.09646 0.95557 0.0
C356 C 0.49744 0.15188 0.93582 0.0
C357 C 0.46103 0.07672 0.93521 0.0
C358 C 0.44708 0.09439 0.91438 0.0
C359 C 0.4557 0.14987 0.88751 0.0
C360 C 0.47751 0.18701 0.88341 0.0
C361 C 0.46599 0.13197 0.91309 0.0
C362 C 0.50764 0.20656 0.9075 0.0
C363 C 0.51722 0.18924 0.9339 0.0
H364 H 0.39573 0.43625 0.40748 0.0
H365 H 0.378 0.50188 0.4899 0.0
H366 H 0.31608 0.4765 0.46698 0.0
H367 H 0.27227 0.44572 0.41504 0.0
H368 H 0.2897 0.38122 0.33088 0.0
H369 H 0.34598 0.39511 0.36325 0.0
C370 C 0.3777 0.44372 0.42131 0.0
C371 C 0.39106 0.47073 0.45027 0.0
C372 C 0.34233 0.4296 0.40725 0.0
C373 C 0.36794 0.48088 0.46775 0.0
C374 C 0.33271 0.46663 0.45442 0.0
C375 C 0.28777 0.43362 0.40472 0.0
C376 C 0.27721 0.41273 0.37065 0.0
C377 C 0.3203 0.44241 0.42296 0.0
C378 C 0.2973 0.39716 0.3573 0.0
C379 C 0.32969 0.4055 0.37553 0.0
H380 H 0.95388 0.38439 0.90241 0.0
H381 H 0.87414 0.35372 0.98926 0.0
H382 H 0.83915 0.29419 0.95849 0.0
H383 H 0.82473 0.25785 0.89913 0.0
H384 H 0.90225 0.28972 0.80988 0.0
H385 H 0.94537 0.34123 0.84957 0.0
C386 C 0.92968 0.36397 0.91538 0.0
C387 C 0.91642 0.37303 0.94794 0.0
C388 C 0.90918 0.33027 0.89672 0.0
C389 C 0.8848 0.34693 0.96438 0.0
C390 C 0.86469 0.31311 0.94657 0.0
C391 C 0.85176 0.27514 0.88925 0.0
C392 C 0.86048 0.27028 0.85182 0.0
C393 C 0.87562 0.30533 0.91161 0.0
C394 C 0.89525 0.29283 0.83884 0.0
C395 C 0.91963 0.32261 0.86132 0.0
H396 H 0.8986 0.4489 0.87386 0.0
H397 H 0.9114 0.51839 0.9713 0.0
H398 H 0.87767 0.54133 0.93755 0.0
H399 H 0.84095 0.53869 0.88153 0.0
H400 H 0.82233 0.46278 0.78882 0.0
H401 H 0.86053 0.44414 0.82041 0.0
C402 C 0.89356 0.46854 0.88835 0.0
C403 C 0.90722 0.48126 0.92562 0.0
C404 C 0.8725 0.4801 0.86972 0.0
C405 C 0.90158 0.50808 0.94267 0.0
C406 C 0.88188 0.52095 0.9235 0.0
C407 C 0.84528 0.51805 0.86837 0.0
C408 C 0.8287 0.50203 0.83293 0.0
C409 C 0.86665 0.5067 0.88725 0.0
C410 C 0.83442 0.47523 0.81624 0.0
C411 C 0.85646 0.46472 0.83416 0.0
H412 H 0.44744 0.91072 0.38399 0.0
H413 H 0.38706 0.90839 0.48302 0.0
H414 H 0.33093 0.87513 0.44562 0.0
H415 H 0.29875 0.84065 0.38599 0.0
H416 H 0.36104 0.83824 0.29074 0.0
H417 H 0.41653 0.87868 0.32548 0.0
C418 C 0.42202 0.90292 0.39757 0.0
C419 C 0.42152 0.91149 0.43651 0.0
C420 C 0.39007 0.88243 0.37652 0.0
C421 C 0.38834 0.90219 0.45313 0.0
C422 C 0.35619 0.88282 0.43181 0.0
C423 C 0.32454 0.84942 0.3729 0.0
C424 C 0.32593 0.83643 0.33594 0.0
C425 C 0.35665 0.87187 0.39371 0.0
C426 C 0.3594 0.84766 0.31926 0.0
C427 C 0.39112 0.87085 0.33906 0.0
H428 H 0.46728 0.4166 0.89438 0.0
H429 H 0.48846 0.37695 0.99632 0.0
H430 H 0.45756 0.31587 0.96841 0.0
H431 H 0.43465 0.27633 0.91066 0.0
H432 H 0.4137 0.31585 0.80853 0.0
H433 H 0.43355 0.37421 0.84077 0.0
C434 C 0.46384 0.39427 0.91085 0.0
C435 C 0.47984 0.40094 0.9473 0.0
C436 C 0.44639 0.35934 0.89437 0.0
C437 C 0.4759 0.37215 0.96838 0.0
C438 C 0.45855 0.33734 0.95227 0.0
C439 C 0.433 0.29732 0.89613 0.0
C440 C 0.42235 0.29191 0.85758 0.0
C441 C 0.44503 0.33089 0.91473 0.0
C442 C 0.42111 0.31937 0.8385 0.0
C443 C 0.43291 0.35284 0.85679 0.0
H444 H 0.06853 0.48237 0.42851 0.0
H445 H 0.15328 0.54027 0.5118 0.0
H446 H 0.19051 0.51961 0.47961 0.0
H447 H 0.20269 0.49406 0.4215 0.0
H448 H 0.1178 0.43456 0.33875 0.0
H449 H 0.07674 0.44659 0.37675 0.0
C450 C 0.09445 0.48895 0.4405 0.0
C451 C 0.10811 0.51244 0.47264 0.0
C452 C 0.11602 0.47753 0.42127 0.0
C453 C 0.1421 0.52167 0.48748 0.0
C454 C 0.16358 0.51033 0.46872 0.0
C455 C 0.17494 0.48309 0.41236 0.0
C456 C 0.16322 0.46386 0.37735 0.0
C457 C 0.15147 0.4897 0.43461 0.0
C458 C 0.12725 0.44945 0.36571 0.0
C459 C 0.10386 0.45644 0.38735 0.0
H460 H 0.62149 0.14698 0.97372 0.0
H461 H 0.59994 0.04696 0.91955 0.0
H462 H 0.65077 0.0791 0.87702 0.0
H463 H 0.69419 0.13657 0.84815 0.0
H464 H 0.70921 0.23579 0.8991 0.0
H465 H 0.66805 0.20334 0.94959 0.0
C466 C 0.62874 0.13221 0.95338 0.0
C467 C 0.60712 0.0948 0.94959 0.0
C468 C 0.65619 0.15093 0.92763 0.0
C469 C 0.61648 0.07578 0.92317 0.0
C470 C 0.64513 0.09424 0.89844 0.0
C471 C 0.68877 0.15098 0.87068 0.0
C472 C 0.70425 0.18847 0.8696 0.0
C473 C 0.66403 0.13193 0.89919 0.0
C474 C 0.6971 0.2069 0.89892 0.0
C475 C 0.67372 0.18839 0.92793 0.0
H476 H 0.45122 0.59394 0.44153 0.0
H477 H 0.54691 0.59181 0.40882 0.0
H478 H 0.56634 0.64604 0.37253 0.0
H479 H 0.55291 0.69086 0.34529 0.0
H480 H 0.45432 0.6885 0.37559 0.0
H481 H 0.43901 0.63894 0.41697 0.0
C482 C 0.47636 0.60526 0.42642 0.0
C483 C 0.49727 0.58847 0.42737 0.0
C484 C 0.48661 0.63546 0.40473 0.0
C485 C 0.53028 0.60418 0.40858 0.0
C486 C 0.54122 0.635 0.38755 0.0
C487 C 0.52827 0.67964 0.36123 0.0
C488 C 0.50465 0.69321 0.35704 0.0
C489 C 0.51914 0.6504 0.38466 0.0
C490 C 0.47278 0.67834 0.37786 0.0
C491 C 0.46401 0.65004 0.40168 0.0
H492 H 0.44081 0.08457 0.61711 0.0
H493 H 0.4793 0.04834 0.70922 0.0
H494 H 0.45366 0.07233 0.75565 0.0
H495 H 0.43164 0.11409 0.76979 0.0
H496 H 0.39416 0.1521 0.67864 0.0
H497 H 0.40728 0.1166 0.63203 0.0
C498 C 0.4422 0.08073 0.64728 0.0
C499 C 0.46195 0.0649 0.6599 0.0
C500 C 0.42807 0.09545 0.67394 0.0
C501 C 0.46413 0.06043 0.69904 0.0
C502 C 0.44974 0.07439 0.72556 0.0
C503 C 0.42499 0.11333 0.73984 0.0
C504 C 0.41183 0.13533 0.72748 0.0
C505 C 0.43327 0.09348 0.71338 0.0
C506 C 0.40378 0.13482 0.68869 0.0
C507 C 0.41173 0.11488 0.66205 0.0
H508 H 0.40855 0.55584 0.14417 0.0
H509 H 0.40445 0.45379 0.14724 0.0
H510 H 0.35098 0.43074 0.18672 0.0
H511 H 0.30833 0.4414 0.22489 0.0
H512 H 0.31706 0.5457 0.2256 0.0
H513 H 0.36637 0.56628 0.18105 0.0
C514 C 0.39624 0.52859 0.15365 0.0
C515 C 0.41104 0.50684 0.14313 0.0
C516 C 0.36652 0.51605 0.17754 0.0
C517 C 0.39372 0.47119 0.15467 0.0
C518 C 0.36331 0.45809 0.17761 0.0
C519 C 0.32092 0.46855 0.21508 0.0
C520 C 0.30908 0.49203 0.22875 0.0
C521 C 0.34993 0.48054 0.18991 0.0
C522 C 0.32578 0.52717 0.21587 0.0
C523 C 0.35393 0.53895 0.19026 0.0
H524 H 0.90862 0.45542 0.70209 0.0
H525 H 0.91188 0.40186 0.59723 0.0
H526 H 0.87272 0.34381 0.62477 0.0
H527 H 0.83457 0.3081 0.6781 0.0
H528 H 0.8258 0.36412 0.77801 0.0
H529 H 0.86876 0.42135 0.75216 0.0
C530 C 0.90025 0.43131 0.68453 0.0
C531 C 0.913 0.43355 0.64714 0.0
C532 C 0.8762 0.39823 0.69963 0.0
C533 C 0.90293 0.40139 0.62612 0.0
C534 C 0.88013 0.36805 0.64174 0.0
C535 C 0.84208 0.33292 0.69399 0.0
C536 C 0.82692 0.33191 0.72984 0.0
C537 C 0.86617 0.36612 0.67834 0.0
C538 C 0.83674 0.3642 0.75018 0.0
C539 C 0.86149 0.39695 0.73554 0.0
H540 H 0.4548 0.90743 0.18341 0.0
H541 H 0.51703 0.90794 0.08686 0.0
H542 H 0.54093 0.87642 0.12329 0.0
H543 H 0.53826 0.84232 0.18061 0.0
H544 H 0.46948 0.83689 0.2728 0.0
H545 H 0.45346 0.876 0.23993 0.0
C546 C 0.47364 0.90069 0.17022 0.0
C547 C 0.48355 0.90941 0.13219 0.0
C548 C 0.48565 0.88111 0.19051 0.0
C549 C 0.50889 0.90151 0.11605 0.0
C550 C 0.52225 0.88314 0.13677 0.0
C551 C 0.52009 0.85011 0.19348 0.0
C552 C 0.50484 0.83661 0.22893 0.0
C553 C 0.50993 0.87179 0.17367 0.0
C554 C 0.48119 0.84664 0.24535 0.0
C555 C 0.47211 0.86909 0.22665 0.0
H556 H 0.59989 0.53242 0.64414 0.0
H557 H 0.62579 0.47543 0.55856 0.0
H558 H 0.68099 0.4902 0.59339 0.0
H559 H 0.71515 0.50925 0.6542 0.0
H560 H 0.69018 0.56733 0.73954 0.0
H561 H 0.64131 0.56228 0.6991 0.0
C562 C 0.61868 0.52497 0.63223 0.0
C563 C 0.60917 0.50324 0.59874 0.0
C564 C 0.64977 0.53262 0.65312 0.0
C565 C 0.63308 0.4928 0.58392 0.0
C566 C 0.66423 0.50062 0.60424 0.0
C567 C 0.69931 0.52127 0.66353 0.0
C568 C 0.70554 0.53794 0.69993 0.0
C569 C 0.67175 0.5188 0.63986 0.0
C570 C 0.68551 0.5541 0.71164 0.0
C571 C 0.65761 0.55121 0.68856 0.0
H572 H 0.15111 0.59377 0.10203 0.0
H573 H 0.04824 0.57556 0.14001 0.0
H574 H 0.07786 0.63182 0.17867 0.0
H575 H 0.13403 0.68148 0.20889 0.0
H576 H 0.23604 0.69426 0.17408 0.0
H577 H 0.20597 0.64488 0.12743 0.0
C578 C 0.13514 0.60257 0.11815 0.0
C579 C 0.09764 0.58053 0.11844 0.0
C580 C 0.15238 0.63363 0.14164 0.0
C581 C 0.07716 0.59223 0.13917 0.0
C582 C 0.09417 0.62412 0.16168 0.0
C583 C 0.14955 0.67366 0.19068 0.0
C584 C 0.1872 0.6912 0.19531 0.0
C585 C 0.13189 0.64431 0.16435 0.0
C586 C 0.20703 0.68082 0.17155 0.0
C587 C 0.18988 0.65268 0.14471 0.0
loop_
_geom_bond_atom_site_label_1
_geom_bond_atom_site_label_2
_geom_bond_distance
_geom_bond_site_symmetry_2
_ccdc_geom_bond_type
H0 C8 0.940 . S
H1 C11 0.940 . S
H2 C13 0.940 . S
H3 C14 0.940 . S
H4 C17 0.940 . S
H5 C19 0.940 . S
N6 N7 1.190 . S
N6 C10 1.477 1_554 S
N7 N6 1.190 . S
N7 C16 1.477 1_655 S
C8 H0 0.940 . S
C8 C9 1.390 . S
C8 C10 1.322 . S
C9 C8 1.390 . S
C9 C13 1.370 . S
C10 N6 1.477 1_556 S
C10 C8 1.322 . S
C10 C11 1.447 . S
C11 H1 0.940 . S
C11 C10 1.447 . S
C11 C12 1.373 . S
C12 C11 1.373 . S
C12 C13 1.417 . S
C13 H2 0.940 . S
C13 C9 1.370 . S
C13 C12 1.417 . S
C14 H3 0.940 . S
C14 C15 1.390 . S
C14 C16 1.322 . S
C15 C14 1.390 . S
C15 C19 1.370 . S
C16 N7 1.477 1_455 S
C16 C14 1.322 . S
C16 C17 1.447 . S
C17 H4 0.940 . S
C17 C16 1.447 . S
C17 C18 1.373 . S
C18 C17 1.373 . S
C18 C19 1.417 . S
C19 H5 0.940 . S
C19 C15 1.370 . S
C19 C18 1.417 . S
H20 C28 0.940 . S
H21 C31 0.940 . S
H22 C33 0.940 . S
H23 C34 0.940 . S
H24 C37 0.940 . S
H25 C39 0.940 . S
N26 N27 1.190 . S
N26 C30 1.477 . S
N27 N26 1.190 . S
N27 C36 1.477 1_545 S
C28 H20 0.940 . S
C28 C29 1.390 . S
C28 C30 1.322 . S
C29 C28 1.390 . S
C29 C33 1.370 . S
C30 N26 1.477 . S
C30 C28 1.322 . S
C30 C31 1.447 . S
C31 H21 0.940 . S
C31 C30 1.447 . S
C31 C32 1.373 . S
C32 C31 1.373 . S
C32 C33 1.417 . S
C33 H22 0.940 . S
C33 C29 1.370 . S
C33 C32 1.417 . S
C34 H23 0.940 . S
C34 C35 1.390 . S
C34 C36 1.322 . S
C35 C34 1.390 . S
C35 C39 1.370 . S
C36 N27 1.477 1_565 S
C36 C34 1.322 . S
C36 C37 1.447 . S
C37 H24 0.940 . S
C37 C36 1.447 . S
C37 C38 1.373 . S
C38 C37 1.373 . S
C38 C39 1.417 . S
C39 H25 0.940 . S
C39 C35 1.370 . S
C39 C38 1.417 . S
H40 C48 0.940 . S
H41 C51 0.940 . S
H42 C53 0.940 . S
H43 C54 0.940 . S
H44 C57 0.940 . S
H45 C59 0.940 . S
N46 N47 1.190 . S
N46 C50 1.477 . S
N47 N46 1.190 . S
N47 C56 1.477 1_556 S
C48 H40 0.940 . S
C48 C49 1.390 . S
C48 C50 1.322 . S
C49 C48 1.390 . S
C49 C53 1.370 . S
C50 N46 1.477 . S
C50 C48 1.322 . S
C50 C51 1.447 . S
C51 H41 0.940 . S
C51 C50 1.447 . S
C51 C52 1.373 . S
C52 C51 1.373 . S
C52 C53 1.417 . S
C53 H42 0.940 . S
C53 C49 1.370 . S
C53 C52 1.417 . S
C54 H43 0.940 . S
C54 C55 1.390 . S
C54 C56 1.322 . S
C55 C54 1.390 . S
C55 C59 1.370 . S
C56 N47 1.477 1_554 S
C56 C54 1.322 . S
C56 C57 1.447 . S
C57 H44 0.940 . S
C57 C56 1.447 . S
C57 C58 1.373 . S
C58 C57 1.373 . S
C58 C59 1.417 . S
C59 H45 0.940 . S
C59 C55 1.370 . S
C59 C58 1.417 . S
H60 C68 0.940 . S
H61 C71 0.940 . S
H62 C73 0.940 . S
H63 C74 0.940 . S
H64 C77 0.940 . S
H65 C79 0.940 . S
N66 N67 1.190 . S
N66 C70 1.477 1_655 S
N67 N66 1.190 . S
N67 C76 1.477 . S
C68 H60 0.940 . S
C68 C69 1.390 . S
C68 C70 1.322 . S
C69 C68 1.390 . S
C69 C73 1.370 . S
C70 N66 1.477 1_455 S
C70 C68 1.322 . S
C70 C71 1.447 . S
C71 H61 0.940 . S
C71 C70 1.447 . S
C71 C72 1.373 . S
C72 C71 1.373 . S
C72 C73 1.417 . S
C73 H62 0.940 . S
C73 C69 1.370 . S
C73 C72 1.417 . S
C74 H63 0.940 . S
C74 C75 1.390 . S
C74 C76 1.322 . S
C75 C74 1.390 . S
C75 C79 1.370 . S
C76 N67 1.477 . S
C76 C74 1.322 . S
C76 C77 1.447 . S
C77 H64 0.940 . S
C77 C76 1.447 . S
C77 C78 1.373 . S
C78 C77 1.373 . S
C78 C79 1.417 . S
C79 H65 0.940 . S
C79 C75 1.370 . S
C79 C78 1.417 . S
H80 C88 0.940 . S
H81 C91 0.940 . S
H82 C93 0.940 . S
H83 C94 0.940 . S
H84 C97 0.940 . S
H85 C99 0.940 . S
N86 N87 1.190 . S
N86 C90 1.477 1_554 S
N87 N86 1.190 . S
N87 C96 1.477 1_545 S
C88 H80 0.940 . S
C88 C89 1.390 . S
C88 C90 1.322 . S
C89 C88 1.390 . S
C89 C93 1.370 . S
C90 N86 1.477 1_556 S
C90 C88 1.322 . S
C90 C91 1.447 . S
C91 H81 0.940 . S
C91 C90 1.447 . S
C91 C92 1.373 . S
C92 C91 1.373 . S
C92 C93 1.417 . S
C93 H82 0.940 . S
C93 C89 1.370 . S
C93 C92 1.417 . S
C94 H83 0.940 . S
C94 C95 1.390 . S
C94 C96 1.322 . S
C95 C94 1.390 . S
C95 C99 1.370 . S
C96 N87 1.477 1_565 S
C96 C94 1.322 . S
C96 C97 1.447 . S
C97 H84 0.940 . S
C97 C96 1.447 . S
C97 C98 1.373 . S
C98 C97 1.373 . S
C98 C99 1.417 . S
C99 H85 0.940 . S
C99 C95 1.370 . S
C99 C98 1.417 . S
H100 C108 0.940 . S
H101 C111 0.940 . S
H102 C113 0.940 . S
H103 C114 0.940 . S
H104 C117 0.940 . S
H105 C119 0.940 . S
N106 N107 1.190 . S
N106 C110 1.477 . S
N107 N106 1.190 . S
N107 C116 1.477 . S
C108 H100 0.940 . S
C108 C109 1.390 . S
C108 C110 1.322 . S
C109 C108 1.390 . S
C109 C113 1.370 . S
C110 N106 1.477 . S
C110 C108 1.322 . S
C110 C111 1.447 . S
C111 H101 0.940 . S
C111 C110 1.447 . S
C111 C112 1.373 . S
C112 C111 1.373 . S
C112 C113 1.417 . S
C113 H102 0.940 . S
C113 C109 1.370 . S
C113 C112 1.417 . S
C114 H103 0.940 . S
C114 C115 1.390 . S
C114 C116 1.322 . S
C115 C114 1.390 . S
C115 C119 1.370 . S
C116 N107 1.477 . S
C116 C114 1.322 . S
C116 C117 1.447 . S
C117 H104 0.940 . S
C117 C116 1.447 . S
C117 C118 1.373 . S
C118 C117 1.373 . S
C118 C119 1.417 . S
C119 H105 0.940 . S
C119 C115 1.370 . S
C119 C118 1.417 . S
C120 O122 1.247 . S
C120 O124 1.258 . S
C121 O128 1.247 . S
C121 O129 1.258 . S
O122 C120 1.247 . S
O122 Zn123 2.028 . S
Zn123 O122 2.028 . S
Zn123 O127 2.035 . S
Zn123 O129 2.035 . S
Zn123 O130 2.028 . S
O124 C120 1.258 . S
O124 Zn125 2.035 . S
Zn125 O124 2.035 . S
Zn125 O126 2.028 . S
Zn125 O128 2.028 . S
Zn125 O131 2.035 . S
O126 Zn125 2.028 . S
O126 C132 1.247 . S
O127 Zn123 2.035 . S
O127 C132 1.258 . S
O128 C121 1.247 . S
O128 Zn125 2.028 . S
O129 C121 1.258 . S
O129 Zn123 2.035 . S
O130 Zn123 2.028 . S
O130 C133 1.247 . S
O131 Zn125 2.035 . S
O131 C133 1.258 . S
C132 O126 1.247 . S
C132 O127 1.258 . S
C133 O130 1.247 . S
C133 O131 1.258 . S
C134 O136 1.247 . S
C134 O138 1.258 . S
C135 O142 1.247 . S
C135 O143 1.258 . S
O136 C134 1.247 . S
O136 Zn137 2.028 . S
Zn137 O136 2.028 . S
Zn137 O141 2.035 . S
Zn137 O143 2.035 . S
Zn137 O144 2.028 . S
O138 C134 1.258 . S
O138 Zn139 2.035 . S
Zn139 O138 2.035 . S
Zn139 O140 2.028 . S
Zn139 O142 2.028 . S
Zn139 O145 2.035 . S
O140 Zn139 2.028 . S
O140 C146 1.247 . S
O141 Zn137 2.035 . S
O141 C146 1.258 . S
O142 C135 1.247 . S
O142 Zn139 2.028 . S
O143 C135 1.258 . S
O143 Zn137 2.035 . S
O144 Zn137 2.028 . S
O144 C147 1.247 . S
O145 Zn139 2.035 . S
O145 C147 1.258 . S
C146 O140 1.247 . S
C146 O141 1.258 . S
C147 O144 1.247 . S
C147 O145 1.258 . S
C148 O150 1.247 . S
C148 O152 1.258 . S
C149 O156 1.247 . S
C149 O157 1.258 . S
O150 C148 1.247 . S
O150 Zn151 2.028 . S
Zn151 O150 2.028 . S
Zn151 O155 2.035 . S
Zn151 O157 2.035 . S
Zn151 O158 2.028 . S
O152 C148 1.258 . S
O152 Zn153 2.035 . S
Zn153 O152 2.035 . S
Zn153 O154 2.028 . S
Zn153 O156 2.028 . S
Zn153 O159 2.035 . S
O154 Zn153 2.028 . S
O154 C160 1.247 . S
O155 Zn151 2.035 . S
O155 C160 1.258 . S
O156 C149 1.247 . S
O156 Zn153 2.028 . S
O157 C149 1.258 . S
O157 Zn151 2.035 . S
O158 Zn151 2.028 . S
O158 C161 1.247 . S
O159 Zn153 2.035 . S
O159 C161 1.258 . S
C160 O154 1.247 . S
C160 O155 1.258 . S
C161 O158 1.247 . S
C161 O159 1.258 . S
C162 O164 1.247 . S
C162 O166 1.258 . S
C163 O170 1.247 . S
C163 O171 1.258 . S
O164 C162 1.247 . S
O164 Zn165 2.028 . S
Zn165 O164 2.028 . S
Zn165 O169 2.035 . S
Zn165 O171 2.035 . S
Zn165 O172 2.028 . S
O166 C162 1.258 . S
O166 Zn167 2.035 . S
Zn167 O166 2.035 . S
Zn167 O168 2.028 . S
Zn167 O170 2.028 . S
Zn167 O173 2.035 . S
O168 Zn167 2.028 . S
O168 C174 1.247 . S
O169 Zn165 2.035 . S
O169 C174 1.258 . S
O170 C163 1.247 . S
O170 Zn167 2.028 . S
O171 C163 1.258 . S
O171 Zn165 2.035 . S
O172 Zn165 2.028 . S
O172 C175 1.247 . S
O173 Zn167 2.035 . S
O173 C175 1.258 . S
C174 O168 1.247 . S
C174 O169 1.258 . S
C175 O172 1.247 . S
C175 O173 1.258 . S
C176 O178 1.247 . S
C176 O180 1.258 . S
C177 O184 1.247 . S
C177 O185 1.258 . S
O178 C176 1.247 . S
O178 Zn179 2.028 . S
Zn179 O178 2.028 . S
Zn179 O183 2.035 . S
Zn179 O185 2.035 . S
Zn179 O186 2.028 . S
O180 C176 1.258 . S
O180 Zn181 2.035 . S
Zn181 O180 2.035 . S
Zn181 O182 2.028 . S
Zn181 O184 2.028 . S
Zn181 O187 2.035 . S
O182 Zn181 2.028 . S
O182 C188 1.247 . S
O183 Zn179 2.035 . S
O183 C188 1.258 . S
O184 C177 1.247 . S
O184 Zn181 2.028 . S
O185 C177 1.258 . S
O185 Zn179 2.035 . S
O186 Zn179 2.028 . S
O186 C189 1.247 . S
O187 Zn181 2.035 . S
O187 C189 1.258 . S
C188 O182 1.247 . S
C188 O183 1.258 . S
C189 O186 1.247 . S
C189 O187 1.258 . S
C190 O192 1.247 . S
C190 O194 1.258 . S
C191 O198 1.247 . S
C191 O199 1.258 . S
O192 C190 1.247 . S
O192 Zn193 2.028 . S
Zn193 O192 2.028 . S
Zn193 O197 2.035 . S
Zn193 O199 2.035 . S
Zn193 O200 2.028 . S
O194 C190 1.258 . S
O194 Zn195 2.035 . S
Zn195 O194 2.035 . S
Zn195 O196 2.028 . S
Zn195 O198 2.028 . S
Zn195 O201 2.035 . S
O196 Zn195 2.028 . S
O196 C202 1.247 . S
O197 Zn193 2.035 . S
O197 C202 1.258 . S
O198 C191 1.247 . S
O198 Zn195 2.028 . S
O199 C191 1.258 . S
O199 Zn193 2.035 . S
O200 Zn193 2.028 . S
O200 C203 1.247 . S
O201 Zn195 2.035 . S
O201 C203 1.258 . S
C202 O196 1.247 . S
C202 O197 1.258 . S
C203 O200 1.247 . S
C203 O201 1.258 . S
H204 C210 0.930 . S
H205 C213 0.930 . S
H206 C214 0.930 . S
H207 C215 0.930 . S
H208 C218 0.930 . S
H209 C219 0.930 . S
C210 H204 0.930 . S
C210 C211 1.355 . S
C210 C212 1.415 . S
C211 C210 1.355 . S
C211 C213 1.419 . S
C212 C210 1.415 . S
C212 C217 1.425 . S
C212 C219 1.409 . S
C213 H205 0.930 . S
C213 C211 1.419 . S
C213 C214 1.362 . S
C214 H206 0.930 . S
C214 C213 1.362 . S
C214 C217 1.409 . S
C215 H207 0.930 . S
C215 C216 1.355 . S
C215 C217 1.415 . S
C216 C215 1.355 . S
C216 C218 1.419 . S
C217 C212 1.425 . S
C217 C214 1.409 . S
C217 C215 1.415 . S
C218 H208 0.930 . S
C218 C216 1.419 . S
C218 C219 1.362 . S
C219 H209 0.930 . S
C219 C212 1.409 . S
C219 C218 1.362 . S
H220 C226 0.930 . S
H221 C229 0.930 . S
H222 C230 0.930 . S
H223 C231 0.930 . S
H224 C234 0.930 . S
H225 C235 0.930 . S
C226 H220 0.930 . S
C226 C227 1.355 . S
C226 C228 1.415 . S
C227 C226 1.355 . S
C227 C229 1.419 . S
C228 C226 1.415 . S
C228 C233 1.425 . S
C228 C235 1.409 . S
C229 H221 0.930 . S
C229 C227 1.419 . S
C229 C230 1.362 . S
C230 H222 0.930 . S
C230 C229 1.362 . S
C230 C233 1.409 . S
C231 H223 0.930 . S
C231 C232 1.355 . S
C231 C233 1.415 . S
C232 C231 1.355 . S
C232 C234 1.419 . S
C233 C228 1.425 . S
C233 C230 1.409 . S
C233 C231 1.415 . S
C234 H224 0.930 . S
C234 C232 1.419 . S
C234 C235 1.362 . S
C235 H225 0.930 . S
C235 C228 1.409 . S
C235 C234 1.362 . S
H236 C242 0.930 . S
H237 C245 0.930 . S
H238 C246 0.930 . S
H239 C247 0.930 . S
H240 C250 0.930 . S
H241 C251 0.930 . S
C242 H236 0.930 . S
C242 C243 1.355 . S
C242 C244 1.415 . S
C243 C242 1.355 . S
C243 C245 1.419 . S
C244 C242 1.415 . S
C244 C249 1.425 . S
C244 C251 1.409 . S
C245 H237 0.930 . S
C245 C243 1.419 . S
C245 C246 1.362 . S
C246 H238 0.930 . S
C246 C245 1.362 . S
C246 C249 1.409 . S
C247 H239 0.930 . S
C247 C248 1.355 . S
C247 C249 1.415 . S
C248 C247 1.355 . S
C248 C250 1.419 . S
C249 C244 1.425 . S
C249 C246 1.409 . S
C249 C247 1.415 . S
C250 H240 0.930 . S
C250 C248 1.419 . S
C250 C251 1.362 . S
C251 H241 0.930 . S
C251 C244 1.409 . S
C251 C250 1.362 . S
H252 C258 0.930 . S
H253 C261 0.930 . S
H254 C262 0.930 . S
H255 C263 0.930 . S
H256 C266 0.930 . S
H257 C267 0.930 . S
C258 H252 0.930 . S
C258 C259 1.355 . S
C258 C260 1.415 . S
C259 C258 1.355 . S
C259 C261 1.419 . S
C260 C258 1.415 . S
C260 C265 1.425 . S
C260 C267 1.409 . S
C261 H253 0.930 . S
C261 C259 1.419 . S
C261 C262 1.362 . S
C262 H254 0.930 . S
C262 C261 1.362 . S
C262 C265 1.409 . S
C263 H255 0.930 . S
C263 C264 1.355 . S
C263 C265 1.415 . S
C264 C263 1.355 . S
C264 C266 1.419 . S
C265 C260 1.425 . S
C265 C262 1.409 . S
C265 C263 1.415 . S
C266 H256 0.930 . S
C266 C264 1.419 . S
C266 C267 1.362 . S
C267 H257 0.930 . S
C267 C260 1.409 . S
C267 C266 1.362 . S
H268 C274 0.930 . S
H269 C277 0.930 . S
H270 C278 0.930 . S
H271 C279 0.930 . S
H272 C282 0.930 . S
H273 C283 0.930 . S
C274 H268 0.930 . S
C274 C275 1.355 . S
C274 C276 1.415 . S
C275 C274 1.355 . S
C275 C277 1.419 . S
C276 C274 1.415 . S
C276 C281 1.425 . S
C276 C283 1.409 . S
C277 H269 0.930 . S
C277 C275 1.419 . S
C277 C278 1.362 . S
C278 H270 0.930 . S
C278 C277 1.362 . S
C278 C281 1.409 . S
C279 H271 0.930 . S
C279 C280 1.355 . S
C279 C281 1.415 . S
C280 C279 1.355 . S
C280 C282 1.419 . S
C281 C276 1.425 . S
C281 C278 1.409 . S
C281 C279 1.415 . S
C282 H272 0.930 . S
C282 C280 1.419 . S
C282 C283 1.362 . S
C283 H273 0.930 . S
C283 C276 1.409 . S
C283 C282 1.362 . S
H284 C290 0.930 . S
H285 C293 0.930 . S
H286 C294 0.930 . S
H287 C295 0.930 . S
H288 C298 0.930 . S
H289 C299 0.930 . S
C290 H284 0.930 . S
C290 C291 1.355 . S
C290 C292 1.415 . S
C291 C290 1.355 . S
C291 C293 1.419 . S
C292 C290 1.415 . S
C292 C297 1.425 . S
C292 C299 1.409 . S
C293 H285 0.930 . S
C293 C291 1.419 . S
C293 C294 1.362 . S
C294 H286 0.930 . S
C294 C293 1.362 . S
C294 C297 1.409 . S
C295 H287 0.930 . S
C295 C296 1.355 . S
C295 C297 1.415 . S
C296 C295 1.355 . S
C296 C298 1.419 . S
C297 C292 1.425 . S
C297 C294 1.409 . S
C297 C295 1.415 . S
C298 H288 0.930 . S
C298 C296 1.419 . S
C298 C299 1.362 . S
C299 H289 0.930 . S
C299 C292 1.409 . S
C299 C298 1.362 . S
H300 C306 0.930 . S
H301 C309 0.930 . S
H302 C310 0.930 . S
H303 C311 0.930 . S
H304 C314 0.930 . S
H305 C315 0.930 . S
C306 H300 0.930 . S
C306 C307 1.355 . S
C306 C308 1.415 . S
C307 C306 1.355 . S
C307 C309 1.419 . S
C308 C306 1.415 . S
C308 C313 1.425 . S
C308 C315 1.409 . S
C309 H301 0.930 . S
C309 C307 1.419 . S
C309 C310 1.362 . S
C310 H302 0.930 . S
C310 C309 1.362 . S
C310 C313 1.409 . S
C311 H303 0.930 . S
C311 C312 1.355 . S
C311 C313 1.415 . S
C312 C311 1.355 . S
C312 C314 1.419 . S
C313 C308 1.425 . S
C313 C310 1.409 . S
C313 C311 1.415 . S
C314 H304 0.930 . S
C314 C312 1.419 . S
C314 C315 1.362 . S
C315 H305 0.930 . S
C315 C308 1.409 . S
C315 C314 1.362 . S
H316 C322 0.930 . S
H317 C325 0.930 . S
H318 C326 0.930 . S
H319 C327 0.930 . S
H320 C330 0.930 . S
H321 C331 0.930 . S
C322 H316 0.930 . S
C322 C323 1.355 . S
C322 C324 1.415 . S
C323 C322 1.355 . S
C323 C325 1.419 . S
C324 C322 1.415 . S
C324 C329 1.425 . S
C324 C331 1.409 . S
C325 H317 0.930 . S
C325 C323 1.419 . S
C325 C326 1.362 . S
C326 H318 0.930 . S
C326 C325 1.362 . S
C326 C329 1.409 . S
C327 H319 0.930 . S
C327 C328 1.355 . S
C327 C329 1.415 . S
C328 C327 1.355 . S
C328 C330 1.419 . S
C329 C324 1.425 . S
C329 C326 1.409 . S
C329 C327 1.415 . S
C330 H320 0.930 . S
C330 C328 1.419 . S
C330 C331 1.362 . S
C331 H321 0.930 . S
C331 C324 1.409 . S
C331 C330 1.362 . S
H332 C338 0.930 . S
H333 C341 0.930 . S
H334 C342 0.930 . S
H335 C343 0.930 . S
H336 C346 0.930 . S
H337 C347 0.930 . S
C338 H332 0.930 . S
C338 C339 1.355 . S
C338 C340 1.415 . S
C339 C338 1.355 . S
C339 C341 1.419 . S
C340 C338 1.415 . S
C340 C345 1.425 . S
C340 C347 1.409 . S
C341 H333 0.930 . S
C341 C339 1.419 . S
C341 C342 1.362 . S
C342 H334 0.930 . S
C342 C341 1.362 . S
C342 C345 1.409 . S
C343 H335 0.930 . S
C343 C344 1.355 . S
C343 C345 1.415 . S
C344 C343 1.355 . S
C344 C346 1.419 . S
C345 C340 1.425 . S
C345 C342 1.409 . S
C345 C343 1.415 . S
C346 H336 0.930 . S
C346 C344 1.419 . S
C346 C347 1.362 . S
C347 H337 0.930 . S
C347 C340 1.409 . S
C347 C346 1.362 . S
H348 C354 0.930 . S
H349 C357 0.930 . S
H350 C358 0.930 . S
H351 C359 0.930 . S
H352 C362 0.930 . S
H353 C363 0.930 . S
C354 H348 0.930 . S
C354 C355 1.355 . S
C354 C356 1.415 . S
C355 C354 1.355 . S
C355 C357 1.419 . S
C356 C354 1.415 . S
C356 C361 1.425 . S
C356 C363 1.409 . S
C357 H349 0.930 . S
C357 C355 1.419 . S
C357 C358 1.362 . S
C358 H350 0.930 . S
C358 C357 1.362 . S
C358 C361 1.409 . S
C359 H351 0.930 . S
C359 C360 1.355 . S
C359 C361 1.415 . S
C360 C359 1.355 . S
C360 C362 1.419 . S
C361 C356 1.425 . S
C361 C358 1.409 . S
C361 C359 1.415 . S
C362 H352 0.930 . S
C362 C360 1.419 . S
C362 C363 1.362 . S
C363 H353 0.930 . S
C363 C356 1.409 . S
C363 C362 1.362 . S
H364 C370 0.930 . S
H365 C373 0.930 . S
H366 C374 0.930 . S
H367 C375 0.930 . S
H368 C378 0.930 . S
H369 C379 0.930 . S
C370 H364 0.930 . S
C370 C371 1.355 . S
C370 C372 1.415 . S
C371 C370 1.355 . S
C371 C373 1.419 . S
C372 C370 1.415 . S
C372 C377 1.425 . S
C372 C379 1.409 . S
C373 H365 0.930 . S
C373 C371 1.419 . S
C373 C374 1.362 . S
C374 H366 0.930 . S
C374 C373 1.362 . S
C374 C377 1.409 . S
C375 H367 0.930 . S
C375 C376 1.355 . S
C375 C377 1.415 . S
C376 C375 1.355 . S
C376 C378 1.419 . S
C377 C372 1.425 . S
C377 C374 1.409 . S
C377 C375 1.415 . S
C378 H368 0.930 . S
C378 C376 1.419 . S
C378 C379 1.362 . S
C379 H369 0.930 . S
C379 C372 1.409 . S
C379 C378 1.362 . S
H380 C386 0.930 . S
H381 C389 0.930 . S
H382 C390 0.930 . S
H383 C391 0.930 . S
H384 C394 0.930 . S
H385 C395 0.930 . S
C386 H380 0.930 . S
C386 C387 1.355 . S
C386 C388 1.415 . S
C387 C386 1.355 . S
C387 C389 1.419 . S
C388 C386 1.415 . S
C388 C393 1.425 . S
C388 C395 1.409 . S
C389 H381 0.930 . S
C389 C387 1.419 . S
C389 C390 1.362 . S
C390 H382 0.930 . S
C390 C389 1.362 . S
C390 C393 1.409 . S
C391 H383 0.930 . S
C391 C392 1.355 . S
C391 C393 1.415 . S
C392 C391 1.355 . S
C392 C394 1.419 . S
C393 C388 1.425 . S
C393 C390 1.409 . S
C393 C391 1.415 . S
C394 H384 0.930 . S
C394 C392 1.419 . S
C394 C395 1.362 . S
C395 H385 0.930 . S
C395 C388 1.409 . S
C395 C394 1.362 . S
H396 C402 0.930 . S
H397 C405 0.930 . S
H398 C406 0.930 . S
H399 C407 0.930 . S
H400 C410 0.930 . S
H401 C411 0.930 . S
C402 H396 0.930 . S
C402 C403 1.355 . S
C402 C404 1.415 . S
C403 C402 1.355 . S
C403 C405 1.419 . S
C404 C402 1.415 . S
C404 C409 1.425 . S
C404 C411 1.409 . S
C405 H397 0.930 . S
C405 C403 1.419 . S
C405 C406 1.362 . S
C406 H398 0.930 . S
C406 C405 1.362 . S
C406 C409 1.409 . S
C407 H399 0.930 . S
C407 C408 1.355 . S
C407 C409 1.415 . S
C408 C407 1.355 . S
C408 C410 1.419 . S
C409 C404 1.425 . S
C409 C406 1.409 . S
C409 C407 1.415 . S
C410 H400 0.930 . S
C410 C408 1.419 . S
C410 C411 1.362 . S
C411 H401 0.930 . S
C411 C404 1.409 . S
C411 C410 1.362 . S
H412 C418 0.930 . S
H413 C421 0.930 . S
H414 C422 0.930 . S
H415 C423 0.930 . S
H416 C426 0.930 . S
H417 C427 0.930 . S
C418 H412 0.930 . S
C418 C419 1.355 . S
C418 C420 1.415 . S
C419 C418 1.355 . S
C419 C421 1.419 . S
C420 C418 1.415 . S
C420 C425 1.425 . S
C420 C427 1.409 . S
C421 H413 0.930 . S
C421 C419 1.419 . S
C421 C422 1.362 . S
C422 H414 0.930 . S
C422 C421 1.362 . S
C422 C425 1.409 . S
C423 H415 0.930 . S
C423 C424 1.355 . S
C423 C425 1.415 . S
C424 C423 1.355 . S
C424 C426 1.419 . S
C425 C420 1.425 . S
C425 C422 1.409 . S
C425 C423 1.415 . S
C426 H416 0.930 . S
C426 C424 1.419 . S
C426 C427 1.362 . S
C427 H417 0.930 . S
C427 C420 1.409 . S
C427 C426 1.362 . S
H428 C434 0.930 . S
H429 C437 0.930 . S
H430 C438 0.930 . S
H431 C439 0.930 . S
H432 C442 0.930 . S
H433 C443 0.930 . S
C434 H428 0.930 . S
C434 C435 1.355 . S
C434 C436 1.415 . S
C435 C434 1.355 . S
C435 C437 1.419 . S
C436 C434 1.415 . S
C436 C441 1.425 . S
C436 C443 1.409 . S
C437 H429 0.930 . S
C437 C435 1.419 . S
C437 C438 1.362 . S
C438 H430 0.930 . S
C438 C437 1.362 . S
C438 C441 1.409 . S
C439 H431 0.930 . S
C439 C440 1.355 . S
C439 C441 1.415 . S
C440 C439 1.355 . S
C440 C442 1.419 . S
C441 C436 1.425 . S
C441 C438 1.409 . S
C441 C439 1.415 . S
C442 H432 0.930 . S
C442 C440 1.419 . S
C442 C443 1.362 . S
C443 H433 0.930 . S
C443 C436 1.409 . S
C443 C442 1.362 . S
H444 C450 0.930 . S
H445 C453 0.930 . S
H446 C454 0.930 . S
H447 C455 0.930 . S
H448 C458 0.930 . S
H449 C459 0.930 . S
C450 H444 0.930 . S
C450 C451 1.355 . S
C450 C452 1.415 . S
C451 C450 1.355 . S
C451 C453 1.419 . S
C452 C450 1.415 . S
C452 C457 1.425 . S
C452 C459 1.409 . S
C453 H445 0.930 . S
C453 C451 1.419 . S
C453 C454 1.362 . S
C454 H446 0.930 . S
C454 C453 1.362 . S
C454 C457 1.409 . S
C455 H447 0.930 . S
C455 C456 1.355 . S
C455 C457 1.415 . S
C456 C455 1.355 . S
C456 C458 1.419 . S
C457 C452 1.425 . S
C457 C454 1.409 . S
C457 C455 1.415 . S
C458 H448 0.930 . S
C458 C456 1.419 . S
C458 C459 1.362 . S
C459 H449 0.930 . S
C459 C452 1.409 . S
C459 C458 1.362 . S
H460 C466 0.930 . S
H461 C469 0.930 . S
H462 C470 0.930 . S
H463 C471 0.930 . S
H464 C474 0.930 . S
H465 C475 0.930 . S
C466 H460 0.930 . S
C466 C467 1.355 . S
C466 C468 1.415 . S
C467 C466 1.355 . S
C467 C469 1.419 . S
C468 C466 1.415 . S
C468 C473 1.425 . S
C468 C475 1.409 . S
C469 H461 0.930 . S
C469 C467 1.419 . S
C469 C470 1.362 . S
C470 H462 0.930 . S
C470 C469 1.362 . S
C470 C473 1.409 . S
C471 H463 0.930 . S
C471 C472 1.355 . S
C471 C473 1.415 . S
C472 C471 1.355 . S
C472 C474 1.419 . S
C473 C468 1.425 . S
C473 C470 1.409 . S
C473 C471 1.415 . S
C474 H464 0.930 . S
C474 C472 1.419 . S
C474 C475 1.362 . S
C475 H465 0.930 . S
C475 C468 1.409 . S
C475 C474 1.362 . S
H476 C482 0.930 . S
H477 C485 0.930 . S
H478 C486 0.930 . S
H479 C487 0.930 . S
H480 C490 0.930 . S
H481 C491 0.930 . S
C482 H476 0.930 . S
C482 C483 1.355 . S
C482 C484 1.415 . S
C483 C482 1.355 . S
C483 C485 1.419 . S
C484 C482 1.415 . S
C484 C489 1.425 . S
C484 C491 1.409 . S
C485 H477 0.930 . S
C485 C483 1.419 . S
C485 C486 1.362 . S
C486 H478 0.930 . S
C486 C485 1.362 . S
C486 C489 1.409 . S
C487 H479 0.930 . S
C487 C488 1.355 . S
C487 C489 1.415 . S
C488 C487 1.355 . S
C488 C490 1.419 . S
C489 C484 1.425 . S
C489 C486 1.409 . S
C489 C487 1.415 . S
C490 H480 0.930 . S
C490 C488 1.419 . S
C490 C491 1.362 . S
C491 H481 0.930 . S
C491 C484 1.409 . S
C491 C490 1.362 . S
H492 C498 0.930 . S
H493 C501 0.930 . S
H494 C502 0.930 . S
H495 C503 0.930 . S
H496 C506 0.930 . S
H497 C507 0.930 . S
C498 H492 0.930 . S
C498 C499 1.355 . S
C498 C500 1.415 . S
C499 C498 1.355 . S
C499 C501 1.419 . S
C500 C498 1.415 . S
C500 C505 1.425 . S
C500 C507 1.409 . S
C501 H493 0.930 . S
C501 C499 1.419 . S
C501 C502 1.362 . S
C502 H494 0.930 . S
C502 C501 1.362 . S
C502 C505 1.409 . S
C503 H495 0.930 . S
C503 C504 1.355 . S
C503 C505 1.415 . S
C504 C503 1.355 . S
C504 C506 1.419 . S
C505 C500 1.425 . S
C505 C502 1.409 . S
C505 C503 1.415 . S
C506 H496 0.930 . S
C506 C504 1.419 . S
C506 C507 1.362 . S
C507 H497 0.930 . S
C507 C500 1.409 . S
C507 C506 1.362 . S
H508 C514 0.930 . S
H509 C517 0.930 . S
H510 C518 0.930 . S
H511 C519 0.930 . S
H512 C522 0.930 . S
H513 C523 0.930 . S
C514 H508 0.930 . S
C514 C515 1.355 . S
C514 C516 1.415 . S
C515 C514 1.355 . S
C515 C517 1.419 . S
C516 C514 1.415 . S
C516 C521 1.425 . S
C516 C523 1.409 . S
C517 H509 0.930 . S
C517 C515 1.419 . S
C517 C518 1.362 . S
C518 H510 0.930 . S
C518 C517 1.362 . S
C518 C521 1.409 . S
C519 H511 0.930 . S
C519 C520 1.355 . S
C519 C521 1.415 . S
C520 C519 1.355 . S
C520 C522 1.419 . S
C521 C516 1.425 . S
C521 C518 1.409 . S
C521 C519 1.415 . S
C522 H512 0.930 . S
C522 C520 1.419 . S
C522 C523 1.362 . S
C523 H513 0.930 . S
C523 C516 1.409 . S
C523 C522 1.362 . S
H524 C530 0.930 . S
H525 C533 0.930 . S
H526 C534 0.930 . S
H527 C535 0.930 . S
H528 C538 0.930 . S
H529 C539 0.930 . S
C530 H524 0.930 . S
C530 C531 1.355 . S
C530 C532 1.415 . S
C531 C530 1.355 . S
C531 C533 1.419 . S
C532 C530 1.415 . S
C532 C537 1.425 . S
C532 C539 1.409 . S
C533 H525 0.930 . S
C533 C531 1.419 . S
C533 C534 1.362 . S
C534 H526 0.930 . S
C534 C533 1.362 . S
C534 C537 1.409 . S
C535 H527 0.930 . S
C535 C536 1.355 . S
C535 C537 1.415 . S
C536 C535 1.355 . S
C536 C538 1.419 . S
C537 C532 1.425 . S
C537 C534 1.409 . S
C537 C535 1.415 . S
C538 H528 0.930 . S
C538 C536 1.419 . S
C538 C539 1.362 . S
C539 H529 0.930 . S
C539 C532 1.409 . S
C539 C538 1.362 . S
H540 C546 0.930 . S
H541 C549 0.930 . S
H542 C550 0.930 . S
H543 C551 0.930 . S
H544 C554 0.930 . S
H545 C555 0.930 . S
C546 H540 0.930 . S
C546 C547 1.355 . S
C546 C548 1.415 . S
C547 C546 1.355 . S
C547 C549 1.419 . S
C548 C546 1.415 . S
C548 C553 1.425 . S
C548 C555 1.409 . S
C549 H541 0.930 . S
C549 C547 1.419 . S
C549 C550 1.362 . S
C550 H542 0.930 . S
C550 C549 1.362 . S
C550 C553 1.409 . S
C551 H543 0.930 . S
C551 C552 1.355 . S
C551 C553 1.415 . S
C552 C551 1.355 . S
C552 C554 1.419 . S
C553 C548 1.425 . S
C553 C550 1.409 . S
C553 C551 1.415 . S
C554 H544 0.930 . S
C554 C552 1.419 . S
C554 C555 1.362 . S
C555 H545 0.930 . S
C555 C548 1.409 . S
C555 C554 1.362 . S
H556 C562 0.930 . S
H557 C565 0.930 . S
H558 C566 0.930 . S
H559 C567 0.930 . S
H560 C570 0.930 . S
H561 C571 0.930 . S
C562 H556 0.930 . S
C562 C563 1.355 . S
C562 C564 1.415 . S
C563 C562 1.355 . S
C563 C565 1.419 . S
C564 C562 1.415 . S
C564 C569 1.425 . S
C564 C571 1.409 . S
C565 H557 0.930 . S
C565 C563 1.419 . S
C565 C566 1.362 . S
C566 H558 0.930 . S
C566 C565 1.362 . S
C566 C569 1.409 . S
C567 H559 0.930 . S
C567 C568 1.355 . S
C567 C569 1.415 . S
C568 C567 1.355 . S
C568 C570 1.419 . S
C569 C564 1.425 . S
C569 C566 1.409 . S
C569 C567 1.415 . S
C570 H560 0.930 . S
C570 C568 1.419 . S
C570 C571 1.362 . S
C571 H561 0.930 . S
C571 C564 1.409 . S
C571 C570 1.362 . S
H572 C578 0.930 . S
H573 C581 0.930 . S
H574 C582 0.930 . S
H575 C583 0.930 . S
H576 C586 0.930 . S
H577 C587 0.930 . S
C578 H572 0.930 . S
C578 C579 1.355 . S
C578 C580 1.415 . S
C579 C578 1.355 . S
C579 C581 1.419 . S
C580 C578 1.415 . S
C580 C585 1.425 . S
C580 C587 1.409 . S
C581 H573 0.930 . S
C581 C579 1.419 . S
C581 C582 1.362 . S
C582 H574 0.930 . S
C582 C581 1.362 . S
C582 C585 1.409 . S
C583 H575 0.930 . S
C583 C584 1.355 . S
C583 C585 1.415 . S
C584 C583 1.355 . S
C584 C586 1.419 . S
C585 C580 1.425 . S
C585 C582 1.409 . S
C585 C583 1.415 . S
C586 H576 0.930 . S
C586 C584 1.419 . S
C586 C587 1.362 . S
C587 H577 0.930 . S
C587 C580 1.409 . S
C587 C586 1.362 . S
C211 C18 1.378 . S
C216 C121 1.454 . S
C227 C29 1.377 . S
C232 C146 1.534 . S
C248 C149 1.480 . S
C243 C55 1.379 . S
C264 C175 1.543 . S
C259 C75 1.488 . S
C280 C176 1.469 . S
C275 C98 1.400 . S
C296 C203 1.504 . S
C291 C118 1.483 . S
C307 C38 1.354 . S
C312 C148 1.451 . S
C323 C52 1.451 . S
C328 C174 1.517 . S
C344 C177 1.469 . S
C339 C72 1.383 . S
C360 C202 1.543 . S
C355 C89 1.471 . S
C371 C109 1.395 . S
C376 C120 1.487 . S
C392 C147 1.538 . S
C387 C9 1.382 . S
C408 C162 1.452 . S
C403 C12 1.429 . S
C419 C35 1.473 . S
C424 C189 1.536 . S
C440 C190 1.485 . S
C435 C49 1.427 . S
C451 C69 1.484 . S
C456 C132 1.546 . S
C467 C92 1.371 . S
C472 C135 1.460 . S
C483 C112 1.424 . S
C488 C160 1.505 . S
C499 C32 1.356 . S
C504 C191 1.447 . S
C520 C133 1.503 . S
C515 C58 1.428 . S
C531 C78 1.432 . S
C536 C134 1.469 . S
C547 C95 1.481 . S
C552 C161 1.543 . S
C563 C115 1.431 . S
C568 C163 1.483 . S
C579 C15 1.382 . S
C584 C188 1.527 . S
