# Generated by pormake.
# Topology nom, (4,4)-cn, num edge types: 1
# Building blocks:
#     Node 0, Type 0, BuildingBlock: GIZVER_clean_linker_0, # of connection points: 4
#     Node 1, Type 0, BuildingBlock: GIZVER_clean_linker_0, # of connection points: 4
#     Node 2, Type 0, BuildingBlock: GIZVER_clean_linker_0, # of connection points: 4
#     Node 3, Type 0, BuildingBlock: GIZVER_clean_linker_0, # of connection points: 4
#     Node 4, Type 0, BuildingBlock: GIZVER_clean_linker_0, # of connection points: 4
#     Node 5, Type 0, BuildingBlock: GIZVER_clean_linker_0, # of connection points: 4
#     Node 6, Type 1, BuildingBlock: QUQFOY_clean_sbu_3, # of connection points: 4
#     Node 7, Type 1, BuildingBlock: QUQFOY_clean_sbu_3, # of connection points: 4
#     Node 8, Type 1, BuildingBlock: QUQFOY_clean_sbu_3, # of connection points: 4
#     Node 9, Type 1, BuildingBlock: QUQFOY_clean_sbu_3, # of connection points: 4
#     Node 10, Type 1, BuildingBlock: QUQFOY_clean_sbu_3, # of connection points: 4
#     Node 11, Type 1, BuildingBlock: QUQFOY_clean_sbu_3, # of connection points: 4
#     Edge 12, Type (0, 1), BuildingBlock: KIFKEQ_clean_linker_1, # of connection points: 2
#     Edge 13, Type (0, 1), BuildingBlock: KIFKEQ_clean_linker_1, # of connection points: 2
#     Edge 14, Type (0, 1), BuildingBlock: KIFKEQ_clean_linker_1, # of connection points: 2
#     Edge 15, Type (0, 1), BuildingBlock: KIFKEQ_clean_linker_1, # of connection points: 2
#     Edge 16, Type (0, 1), BuildingBlock: KIFKEQ_clean_linker_1, # of connection points: 2
#     Edge 17, Type (0, 1), BuildingBlock: KIFKEQ_clean_linker_1, # of connection points: 2
#     Edge 18, Type (0, 1), BuildingBlock: KIFKEQ_clean_linker_1, # of connection points: 2
#     Edge 19, Type (0, 1), BuildingBlock: KIFKEQ_clean_linker_1, # of connection points: 2
#     Edge 20, Type (0, 1), BuildingBlock: KIFKEQ_clean_linker_1, # of connection points: 2
#     Edge 21, Type (0, 1), BuildingBlock: KIFKEQ_clean_linker_1, # of connection points: 2
#     Edge 22, Type (0, 1), BuildingBlock: KIFKEQ_clean_linker_1, # of connection points: 2
#     Edge 23, Type (0, 1), BuildingBlock: KIFKEQ_clean_linker_1, # of connection points: 2
#     Edge 24, Type (0, 1), BuildingBlock: KIFKEQ_clean_linker_1, # of connection points: 2
#     Edge 25, Type (0, 1), BuildingBlock: KIFKEQ_clean_linker_1, # of connection points: 2
#     Edge 26, Type (0, 1), BuildingBlock: KIFKEQ_clean_linker_1, # of connection points: 2
#     Edge 27, Type (0, 1), BuildingBlock: KIFKEQ_clean_linker_1, # of connection points: 2
#     Edge 28, Type (0, 1), BuildingBlock: KIFKEQ_clean_linker_1, # of connection points: 2
#     Edge 29, Type (0, 1), BuildingBlock: KIFKEQ_clean_linker_1, # of connection points: 2
#     Edge 30, Type (0, 1), BuildingBlock: KIFKEQ_clean_linker_1, # of connection points: 2
#     Edge 31, Type (0, 1), BuildingBlock: KIFKEQ_clean_linker_1, # of connection points: 2
#     Edge 32, Type (0, 1), BuildingBlock: KIFKEQ_clean_linker_1, # of connection points: 2
#     Edge 33, Type (0, 1), BuildingBlock: KIFKEQ_clean_linker_1, # of connection points: 2
#     Edge 34, Type (0, 1), BuildingBlock: KIFKEQ_clean_linker_1, # of connection points: 2
#     Edge 35, Type (0, 1), BuildingBlock: KIFKEQ_clean_linker_1, # of connection points: 2
# Relax obj value: 0.004
# Max RMSD: 0.069
# Mean RMSD: 0.046
data_MOF--net-nom--node1-QUQFOY_clean_sbu_3--node2-GIZVER_clean_linker_0--edge1-KIFKEQ_clean_linker_1
_symmetry_space_group_name_H-M    P1
_symmetry_Int_Tables_number       1
_symmetry_cell_setting            triclinic
loop_
_symmetry_equiv_pos_as_xyz
'x, y, z'
_cell_length_a     47.561075
_cell_length_b     48.618654
_cell_length_c     47.743809
_cell_angle_alpha  90.004449
_cell_angle_beta   90.112377
_cell_angle_gamma 119.9607
loop_
_atom_site_label
_atom_site_type_symbol
_atom_site_fract_x
_atom_site_fract_y
_atom_site_fract_z
_atom_type_partial_charge
H0 H 0.9536 0.54712 0.34307 0.0
H1 H 0.98324 0.55 0.25752 0.0
H2 H 0.8915 0.47364 0.28556 0.0
H3 H 0.99848 0.59491 0.32509 0.0
H4 H 0.00395 0.59938 0.2881 0.0
H5 H 0.02219 0.56508 0.35143 0.0
H6 H 0.11651 0.58943 0.32083 0.0
H7 H 0.05001 0.60032 0.26737 0.0
C8 C 0.94941 0.53618 0.32256 0.0
C9 C 0.92026 0.50784 0.31715 0.0
C10 C 0.97244 0.55128 0.30118 0.0
C11 C 0.96614 0.53776 0.27429 0.0
C12 C 0.93709 0.50955 0.26861 0.0
C13 C 0.91471 0.49444 0.29028 0.0
C14 C 1.00164 0.58367 0.30595 0.0
C15 C 0.03242 0.58211 0.30884 0.0
C16 C 0.03959 0.57269 0.33446 0.0
C17 C 0.06972 0.5746 0.33864 0.0
C18 C 0.09239 0.58563 0.3168 0.0
C19 C 0.08578 0.59492 0.29095 0.0
C20 C 0.05538 0.59271 0.28699 0.0
H21 H 0.41592 0.9521 0.51758 0.0
H22 H 0.44307 0.98531 0.43291 0.0
H23 H 0.43534 0.8971 0.45848 0.0
H24 H 0.41055 0.9961 0.50124 0.0
H25 H 0.411 0.00245 0.46439 0.0
H26 H 0.46073 0.02545 0.52934 0.0
H27 H 0.53662 0.11181 0.49378 0.0
H28 H 0.45901 0.04487 0.44137 0.0
C29 C 0.42383 0.94951 0.49696 0.0
C30 C 0.42618 0.92245 0.49076 0.0
C31 C 0.43051 0.97263 0.47624 0.0
C32 C 0.43914 0.9682 0.44917 0.0
C33 C 0.4412 0.9411 0.44267 0.0
C34 C 0.43542 0.91883 0.46375 0.0
C35 C 0.4252 1.00026 0.48192 0.0
C36 C 0.45704 0.03094 0.48478 0.0
C37 C 0.47205 0.04029 0.51119 0.0
C38 C 0.50087 0.06938 0.51443 0.0
C39 C 0.51513 0.08868 0.49101 0.0
C40 C 0.50015 0.08023 0.46468 0.0
C41 C 0.47108 0.05122 0.46156 0.0
H42 H 0.40773 0.45167 0.62067 0.0
H43 H 0.44599 0.46002 0.7039 0.0
H44 H 0.42527 0.53088 0.67219 0.0
H45 H 0.40689 0.40663 0.64169 0.0
H46 H 0.41064 0.40629 0.67879 0.0
H47 H 0.45281 0.41861 0.61131 0.0
H48 H 0.53351 0.41549 0.64838 0.0
H49 H 0.46209 0.41805 0.70123 0.0
C50 C 0.41698 0.46502 0.63995 0.0
C51 C 0.41701 0.49373 0.64344 0.0
C52 C 0.42754 0.45281 0.66174 0.0
C53 C 0.43846 0.46978 0.68701 0.0
C54 C 0.438 0.49821 0.69108 0.0
C55 C 0.42763 0.51007 0.66894 0.0
C56 C 0.42308 0.41986 0.65958 0.0
C57 C 0.45502 0.42054 0.65658 0.0
C58 C 0.46663 0.41946 0.6297 0.0
C59 C 0.49445 0.41667 0.62672 0.0
C60 C 0.51197 0.41762 0.65063 0.0
C61 C 0.50045 0.41784 0.67748 0.0
C62 C 0.47182 0.41919 0.68049 0.0
H63 H 0.97379 0.43944 0.77067 0.0
H64 H 0.99794 0.46222 0.85776 0.0
H65 H 0.90529 0.44309 0.82715 0.0
H66 H 0.01753 0.43431 0.79201 0.0
H67 H 0.02549 0.44089 0.82865 0.0
H68 H 0.03082 0.48606 0.76255 0.0
H69 H 0.12921 0.5581 0.78011 0.0
H70 H 0.07627 0.48458 0.84011 0.0
C71 C 0.96765 0.44442 0.79117 0.0
C72 C 0.93689 0.44123 0.79572 0.0
C73 C 0.98997 0.45233 0.8134 0.0
C74 C 0.98154 0.45753 0.84029 0.0
C75 C 0.95126 0.45495 0.84495 0.0
C76 C 0.92944 0.44726 0.82266 0.0
C77 C 0.02067 0.45083 0.80943 0.0
C78 C 0.0496 0.4829 0.8028 0.0
C79 C 0.05135 0.49713 0.77672 0.0
C80 C 0.0801 0.52424 0.76816 0.0
C81 C 0.10666 0.53765 0.78663 0.0
C82 C 0.10581 0.52345 0.81241 0.0
C83 C 0.07689 0.49636 0.82067 0.0
H84 H 0.60322 0.06218 0.01216 0.0
H85 H 0.57593 0.03408 0.92638 0.0
H86 H 0.58913 0.12328 0.95652 0.0
H87 H 0.60899 0.01954 -0.00744 0.0
H88 H 0.60701 0.01432 0.9555 0.0
H89 H 0.55705 0.99383 0.02074 0.0
H90 H 0.48523 0.90339 -0.01181 0.0
H91 H 0.56011 0.97053 0.93409 0.0
C92 C 0.59604 0.06641 -0.00822 0.0
C93 C 0.59499 0.09437 0.98709 0.0
C94 C 0.58894 0.04447 0.96986 0.0
C95 C 0.58085 0.05083 0.94322 0.0
C96 C 0.5808 0.07929 0.93799 0.0
C97 C 0.58736 0.10049 0.96031 0.0
C98 C 0.59367 0.01625 0.97382 0.0
C99 C 0.56172 0.9858 0.97695 0.0
C100 C 0.54645 0.9776 0.00325 0.0
C101 C 0.5184 0.94804 0.00726 0.0
C102 C 0.50553 0.92703 0.98459 0.0
C103 C 0.52002 0.93477 0.95804 0.0
C104 C 0.54819 0.96443 0.9543 0.0
H105 H 0.60262 0.5531 0.1323 0.0
H106 H 0.56149 0.54919 0.21342 0.0
H107 H 0.57503 0.47257 0.18596 0.0
H108 H 0.60425 0.5997 0.15121 0.0
H109 H 0.59524 0.60047 0.18735 0.0
H110 H 0.55987 0.57969 0.11543 0.0
H111 H 0.47937 0.59183 0.13674 0.0
H112 H 0.54342 0.59405 0.20164 0.0
C113 C 0.59134 0.54008 0.1513 0.0
C114 C 0.59002 0.51096 0.15655 0.0
C115 C 0.5804 0.55369 0.17157 0.0
C116 C 0.56819 0.53797 0.19717 0.0
C117 C 0.56636 0.50875 0.20247 0.0
C118 C 0.57602 0.49492 0.18164 0.0
C119 C 0.58563 0.58673 0.16759 0.0
C120 C 0.55453 0.58596 0.15957 0.0
C121 C 0.54517 0.5825 0.13125 0.0
C122 C 0.5176 0.58393 0.12324 0.0
C123 C 0.49934 0.58869 0.14358 0.0
C124 C 0.50832 0.59263 0.17195 0.0
C125 C 0.53587 0.59077 0.17989 0.0
C126 C 0.70357 0.42288 0.4085 0.0
O127 O 0.69875 0.44169 0.42351 0.0
Cd128 Cd 0.64668 0.43322 0.43728 0.0
O129 O 0.67976 0.39635 0.40052 0.0
Cd130 Cd 0.61946 0.36534 0.40782 0.0
C131 C 0.60809 0.41933 0.3731 0.0
O132 O 0.61711 0.38113 0.45579 0.0
O133 O 0.57218 0.36068 0.43266 0.0
O134 O 0.62246 0.31782 0.41815 0.0
C135 C 0.58693 0.37137 0.4557 0.0
O136 O 0.61917 0.4363 0.39509 0.0
C137 C 0.60035 0.29957 0.40122 0.0
O138 O 0.60787 0.39307 0.37077 0.0
O139 O 0.58767 0.31215 0.38623 0.0
C140 C 0.28266 0.57303 0.55026 0.0
O141 O 0.25667 0.55238 0.53837 0.0
Cd142 Cd 0.2111 0.55747 0.52468 0.0
O143 O 0.28756 0.60092 0.55539 0.0
Cd144 Cd 0.25943 0.63249 0.54683 0.0
C145 C 0.19442 0.58266 0.58708 0.0
O146 O 0.23469 0.60759 0.50279 0.0
O147 O 0.22025 0.64001 0.51876 0.0
O148 O 0.30989 0.67975 0.53283 0.0
C149 C 0.21728 0.62035 0.49998 0.0
O150 O 0.18686 0.56142 0.56834 0.0
C151 C 0.30771 0.69846 0.55014 0.0
O152 O 0.21994 0.60985 0.58505 0.0
O153 O 0.28372 0.68622 0.5668 0.0
C154 C 0.72003 0.29124 0.71598 0.0
O155 O 0.71545 0.26542 0.70525 0.0
Cd156 Cd 0.66409 0.2205 0.69413 0.0
O157 O 0.69609 0.29508 0.72214 0.0
Cd158 Cd 0.63515 0.26308 0.71943 0.0
C159 C 0.62966 0.20268 0.75948 0.0
O160 O 0.63181 0.24011 0.67339 0.0
O161 O 0.58696 0.21997 0.69625 0.0
O162 O 0.63257 0.31079 0.70791 0.0
C163 C 0.60164 0.22046 0.67399 0.0
O164 O 0.64167 0.19532 0.73896 0.0
C165 C 0.61308 0.30779 0.72738 0.0
O166 O 0.62614 0.22699 0.75858 0.0
O167 O 0.60414 0.28418 0.74361 0.0
C168 C 0.32184 0.59717 0.90536 0.0
O169 O 0.32419 0.57711 0.92074 0.0
Cd170 Cd 0.37455 0.58087 0.9331 0.0
O171 O 0.34727 0.62231 0.8972 0.0
Cd172 Cd 0.40783 0.65017 0.90412 0.0
C173 C 0.41011 0.59202 0.86767 0.0
O174 O 0.40761 0.63269 0.95198 0.0
O175 O 0.45343 0.65286 0.93072 0.0
O176 O 0.40505 0.69909 0.90773 0.0
C177 C 0.4374 0.64094 0.95292 0.0
O178 O 0.39663 0.57438 0.88886 0.0
C179 C 0.43128 0.71636 0.8946 0.0
O180 O 0.41589 0.62058 0.86691 0.0
O181 O 0.44631 0.70285 0.88529 0.0
C182 C 0.72288 0.43722 0.05119 0.0
O183 O 0.74745 0.45846 0.03822 0.0
Cd184 Cd 0.79386 0.4543 0.02501 0.0
O185 O 0.72064 0.41054 0.05689 0.0
Cd186 Cd 0.75212 0.38269 0.04844 0.0
C187 C 0.81359 0.43535 0.08909 0.0
O188 O 0.77546 0.40455 0.00271 0.0
O189 O 0.7981 0.38268 0.02579 0.0
O190 O 0.70367 0.33382 0.03401 0.0
C191 C 0.79677 0.39615 0.00352 0.0
O192 O 0.82118 0.45454 0.06857 0.0
C193 C 0.70732 0.31574 0.05102 0.0
O194 O 0.78782 0.40824 0.08847 0.0
O195 O 0.73135 0.32895 0.06768 0.0
C196 C 0.30655 0.74399 0.21783 0.0
O197 O 0.31268 0.77106 0.20888 0.0
Cd198 Cd 0.36409 0.81476 0.19509 0.0
O199 O 0.32925 0.73762 0.22203 0.0
Cd200 Cd 0.39015 0.76618 0.21912 0.0
C201 C 0.40209 0.82988 0.25916 0.0
O202 O 0.39 0.78918 0.17439 0.0
O203 O 0.43738 0.80186 0.18963 0.0
O204 O 0.38439 0.71317 0.21374 0.0
C205 C 0.42035 0.80501 0.17092 0.0
O206 O 0.39176 0.83916 0.23867 0.0
C207 C 0.40975 0.71977 0.22775 0.0
O208 O 0.40164 0.80341 0.25827 0.0
O209 O 0.42521 0.74735 0.23838 0.0
H210 H 0.10091 0.64694 0.25803 0.0
H211 H 0.1323 0.57965 0.27732 0.0
H212 H 0.15166 0.68005 0.23376 0.0
H213 H 0.18428 0.61422 0.256 0.0
H214 H 0.2774 0.6794 0.21267 0.0
H215 H 0.22073 0.64024 0.22161 0.0
H216 H 0.20311 0.71583 0.24703 0.0
H217 H 0.25877 0.75454 0.23593 0.0
C218 C 0.11837 0.63888 0.25674 0.0
C219 C 0.11276 0.61098 0.27036 0.0
C220 C 0.14796 0.65832 0.24332 0.0
C221 C 0.17299 0.65074 0.24378 0.0
C222 C 0.16605 0.6213 0.25514 0.0
C223 C 0.13617 0.6015 0.26781 0.0
C224 C 0.26118 0.68745 0.22001 0.0
C225 C 0.27245 0.71994 0.22371 0.0
C226 C 0.22864 0.66502 0.22526 0.0
C227 C 0.20684 0.67454 0.23514 0.0
C228 C 0.21848 0.70726 0.23874 0.0
C229 C 0.25067 0.72961 0.23274 0.0
H230 H 0.46898 0.1071 0.43864 0.0
H231 H 0.5608 0.10962 0.44219 0.0
H232 H 0.49482 0.15842 0.41506 0.0
H233 H 0.58669 0.16043 0.41762 0.0
H234 H 0.62478 0.26784 0.42998 0.0
H235 H 0.60056 0.21101 0.43602 0.0
H236 H 0.52401 0.1954 0.37807 0.0
H237 H 0.5481 0.25285 0.37257 0.0
C238 C 0.4944 0.11796 0.43311 0.0
C239 C 0.51297 0.10458 0.44234 0.0
C240 C 0.50932 0.14747 0.41963 0.0
C241 C 0.54307 0.16401 0.415 0.0
C242 C 0.56084 0.14879 0.42152 0.0
C243 C 0.54599 0.11951 0.43527 0.0
C244 C 0.60309 0.25235 0.41812 0.0
C245 C 0.5882 0.26493 0.40103 0.0
C246 C 0.58927 0.21959 0.42139 0.0
C247 C 0.56018 0.19842 0.40758 0.0
C248 C 0.5462 0.21097 0.38927 0.0
C249 C 0.5601 0.2439 0.38599 0.0
H250 H 0.44135 0.55383 0.62294 0.0
H251 H 0.3582 0.45949 0.61776 0.0
H252 H 0.41228 0.57455 0.59601 0.0
H253 H 0.32877 0.48009 0.5915 0.0
H254 H 0.28631 0.5214 0.53304 0.0
H255 H 0.3225 0.50323 0.54999 0.0
H256 H 0.36889 0.58463 0.605 0.0
H257 H 0.33331 0.60338 0.58727 0.0
C258 C 0.41701 0.53747 0.61561 0.0
C259 C 0.402 0.50506 0.62247 0.0
C260 C 0.40023 0.54936 0.60042 0.0
C261 C 0.36797 0.52913 0.59188 0.0
C262 C 0.35368 0.49639 0.59742 0.0
C263 C 0.37055 0.48449 0.61245 0.0
C264 C 0.30444 0.53562 0.54857 0.0
C265 C 0.30671 0.56373 0.559 0.0
C266 C 0.32513 0.52509 0.55839 0.0
C267 C 0.34846 0.54222 0.5791 0.0
C268 C 0.3515 0.57096 0.58881 0.0
C269 C 0.33096 0.58167 0.57877 0.0
H270 H 0.92528 0.39483 0.75686 0.0
H271 H 0.88781 0.45444 0.78598 0.0
H272 H 0.87571 0.36296 0.7307 0.0
H273 H 0.83679 0.42035 0.76277 0.0
H274 H 0.745 0.35574 0.71684 0.0
H275 H 0.8007 0.39661 0.72742 0.0
H276 H 0.82547 0.3233 0.74191 0.0
H277 H 0.7709 0.28329 0.72923 0.0
C278 C 0.90675 0.40154 0.75742 0.0
C279 C 0.91038 0.42678 0.77435 0.0
C280 C 0.87778 0.38267 0.74286 0.0
C281 C 0.8513 0.38792 0.74549 0.0
C282 C 0.85619 0.41505 0.76021 0.0
C283 C 0.88551 0.43449 0.77401 0.0
C284 C 0.76261 0.34861 0.72206 0.0
C285 C 0.75364 0.31638 0.72227 0.0
C286 C 0.79459 0.372 0.72827 0.0
C287 C 0.8181 0.36362 0.73562 0.0
C288 C 0.80878 0.33117 0.73562 0.0
C289 C 0.77718 0.30799 0.72868 0.0
H290 H 0.55422 0.91871 0.92148 0.0
H291 H 0.45669 0.89352 0.94494 0.0
H292 H 0.53316 0.86932 0.89534 0.0
H293 H 0.43586 0.84307 0.9218 0.0
H294 H 0.39915 0.74891 0.88581 0.0
H295 H 0.42117 0.80603 0.8889 0.0
H296 H 0.51636 0.81831 0.90575 0.0
H297 H 0.49453 0.76175 0.89969 0.0
C298 C 0.52821 0.90291 0.92063 0.0
C299 C 0.50723 0.90966 0.93601 0.0
C300 C 0.51606 0.87411 0.9061 0.0
C301 C 0.48275 0.85108 0.9072 0.0
C302 C 0.4616 0.85959 0.9202 0.0
C303 C 0.47364 0.88863 0.93396 0.0
C304 C 0.42492 0.76413 0.88949 0.0
C305 C 0.44513 0.75104 0.89276 0.0
C306 C 0.43763 0.79695 0.89162 0.0
C307 C 0.47062 0.81734 0.89841 0.0
C308 C 0.49101 0.80402 0.90018 0.0
C309 C 0.47847 0.77135 0.89696 0.0
H310 H 0.62689 0.48522 0.17277 0.0
H311 H 0.59262 0.51057 0.09862 0.0
H312 H 0.65356 0.46426 0.14389 0.0
H313 H 0.62088 0.49033 0.06939 0.0
H314 H 0.71662 0.48896 0.03879 0.0
H315 H 0.68081 0.50489 0.0612 0.0
H316 H 0.63744 0.41863 0.10987 0.0
H317 H 0.67314 0.40259 0.0876 0.0
C318 C 0.62449 0.48584 0.15026 0.0
C319 C 0.6068 0.49892 0.13808 0.0
C320 C 0.63998 0.47388 0.13369 0.0
C321 C 0.63883 0.47512 0.10441 0.0
C322 C 0.62196 0.48892 0.09198 0.0
C323 C 0.60593 0.5006 0.10868 0.0
C324 C 0.6991 0.47312 0.05395 0.0
C325 C 0.69809 0.44468 0.06169 0.0
C326 C 0.67846 0.48219 0.06662 0.0
C327 C 0.65661 0.46315 0.08745 0.0
C328 C 0.65435 0.43393 0.09408 0.0
C329 C 0.67475 0.42472 0.08126 0.0
H330 H 0.45734 0.89061 0.50643 0.0
H331 H 0.36827 0.89221 0.51818 0.0
H332 H 0.43284 0.83817 0.52806 0.0
H333 H 0.34338 0.83951 0.53919 0.0
H334 H 0.36051 0.73059 0.51641 0.0
H335 H 0.39305 0.7876 0.50976 0.0
H336 H 0.33914 0.80245 0.575 0.0
H337 H 0.30594 0.74502 0.58124 0.0
C338 C 0.43276 0.88003 0.51433 0.0
C339 C 0.41462 0.89534 0.51047 0.0
C340 C 0.41861 0.84988 0.52648 0.0
C341 C 0.38589 0.83426 0.53482 0.0
C342 C 0.36866 0.85081 0.53315 0.0
C343 C 0.38293 0.8811 0.52115 0.0
C344 C 0.35589 0.74598 0.52967 0.0
C345 C 0.33043 0.73321 0.54917 0.0
C346 C 0.37476 0.77879 0.52601 0.0
C347 C 0.36872 0.79975 0.5418 0.0
C348 C 0.34421 0.78701 0.56226 0.0
C349 C 0.32531 0.75409 0.56594 0.0
H350 H 0.47357 0.36424 0.7086 0.0
H351 H 0.56234 0.45295 0.69682 0.0
H352 H 0.50394 0.34149 0.72984 0.0
H353 H 0.59292 0.43073 0.71895 0.0
H354 H 0.63039 0.3613 0.697 0.0
H355 H 0.60442 0.39336 0.69628 0.0
H356 H 0.53999 0.33629 0.76266 0.0
H357 H 0.56585 0.30362 0.76299 0.0
C358 C 0.49937 0.37945 0.71215 0.0
C359 C 0.51568 0.41024 0.70098 0.0
C360 C 0.51691 0.36637 0.72418 0.0
C361 C 0.55104 0.384 0.72535 0.0
C362 C 0.56675 0.41624 0.71767 0.0
C363 C 0.54924 0.42918 0.70543 0.0
C364 C 0.61104 0.35584 0.71178 0.0
C365 C 0.59996 0.32967 0.72981 0.0
C366 C 0.5963 0.37449 0.7116 0.0
C367 C 0.57004 0.36749 0.72946 0.0
C368 C 0.55997 0.34221 0.74849 0.0
C369 C 0.57484 0.32354 0.74872 0.0
H370 H 0.16576 0.54103 0.79172 0.0
H371 H 0.1154 0.53108 0.86961 0.0
H372 H 0.21675 0.56222 0.81679 0.0
H373 H 0.16708 0.55169 0.89505 0.0
H374 H 0.26267 0.55044 0.92393 0.0
H375 H 0.20942 0.53447 0.90391 0.0
H376 H 0.25383 0.61146 0.84456 0.0
H377 H 0.30717 0.62751 0.86445 0.0
C378 C 0.16559 0.54378 0.81422 0.0
C379 C 0.1365 0.53503 0.82858 0.0
C380 C 0.19491 0.55591 0.82858 0.0
C381 C 0.196 0.55918 0.8578 0.0
C382 C 0.1669 0.54956 0.87246 0.0
C383 C 0.13738 0.53768 0.85795 0.0
C384 C 0.26108 0.56425 0.90684 0.0
C385 C 0.28927 0.59004 0.89554 0.0
C386 C 0.23052 0.55519 0.89553 0.0
C387 C 0.22754 0.57153 0.87254 0.0
C388 C 0.2555 0.59821 0.8621 0.0
C389 C 0.28603 0.60746 0.87355 0.0
H390 H 0.65354 0.12481 0.01354 0.0
H391 H 0.56198 0.12253 0.00692 0.0
H392 H 0.67743 0.17668 0.0363 0.0
H393 H 0.58536 0.17393 0.03043 0.0
H394 H 0.65342 0.28213 0.01875 0.0
H395 H 0.62267 0.22512 0.01171 0.0
H396 H 0.68189 0.21271 0.07355 0.0
H397 H 0.71329 0.27028 0.08021 0.0
C398 C 0.63818 0.13481 0.01813 0.0
C399 C 0.60604 0.11987 0.00837 0.0
C400 C 0.65184 0.16459 0.03111 0.0
C401 C 0.6335 0.17983 0.03466 0.0
C402 C 0.60039 0.16325 0.0274 0.0
C403 C 0.58687 0.13367 0.01423 0.0
C404 C 0.65962 0.26728 0.03119 0.0
C405 C 0.68599 0.2808 0.04985 0.0
C406 C 0.64176 0.23444 0.02733 0.0
C407 C 0.64976 0.2142 0.04206 0.0
C408 C 0.67527 0.22762 0.06167 0.0
C409 C 0.69316 0.26059 0.06558 0.0
H410 H 0.44322 0.57191 0.17441 0.0
H411 H 0.53415 0.63706 0.21423 0.0
H412 H 0.41832 0.59992 0.19455 0.0
H413 H 0.50828 0.66313 0.23732 0.0
H414 H 0.47279 0.73487 0.23065 0.0
H415 H 0.4947 0.69971 0.22547 0.0
H416 H 0.3971 0.61883 0.22546 0.0
H417 H 0.3755 0.65485 0.22795 0.0
C418 C 0.45771 0.59174 0.18822 0.0
C419 C 0.49107 0.60295 0.19172 0.0
C420 C 0.4432 0.60773 0.20026 0.0
C421 C 0.46136 0.63484 0.21704 0.0
C422 C 0.49369 0.64338 0.22352 0.0
C423 C 0.50849 0.6279 0.21073 0.0
C424 C 0.45609 0.70951 0.22984 0.0
C425 C 0.42248 0.6976 0.22928 0.0
C426 C 0.46865 0.68909 0.22713 0.0
C427 C 0.4479 0.65599 0.22462 0.0
C428 C 0.41411 0.64406 0.22628 0.0
C429 C 0.40157 0.66466 0.22801 0.0
H430 H 0.89724 0.53992 0.34732 0.0
H431 H 0.88138 0.44569 0.33221 0.0
H432 H 0.84643 0.51757 0.37299 0.0
H433 H 0.83068 0.4231 0.35855 0.0
H434 H 0.72303 0.39639 0.36764 0.0
H435 H 0.7779 0.41576 0.35031 0.0
H436 H 0.81512 0.49025 0.41267 0.0
H437 H 0.76019 0.47156 0.42928 0.0
C438 C 0.8834 0.51445 0.35032 0.0
C439 C 0.89324 0.49456 0.33768 0.0
C440 C 0.85415 0.50155 0.36503 0.0
C441 C 0.83414 0.46843 0.36761 0.0
C442 C 0.84508 0.44865 0.35645 0.0
C443 C 0.87424 0.46157 0.34157 0.0
C444 C 0.74296 0.41672 0.37781 0.0
C445 C 0.73714 0.43262 0.39962 0.0
C446 C 0.77452 0.42774 0.36801 0.0
C447 C 0.80106 0.45475 0.37997 0.0
C448 C 0.79528 0.46979 0.40257 0.0
C449 C 0.76373 0.45897 0.41218 0.0
H450 H 0.10356 0.54444 0.3509 0.0
H451 H 0.06068 0.59507 0.38951 0.0
H452 H 0.13532 0.55163 0.39276 0.0
H453 H 0.09055 0.60013 0.43249 0.0
H454 H 0.18711 0.65146 0.48039 0.0
H455 H 0.14447 0.63335 0.44523 0.0
H456 H 0.14373 0.54417 0.43896 0.0
H457 H 0.1879 0.56338 0.47285 0.0
C458 C 0.10012 0.55619 0.36877 0.0
C459 C 0.08029 0.56992 0.36664 0.0
C460 C 0.11818 0.56011 0.39298 0.0
C461 C 0.11628 0.57728 0.41591 0.0
C462 C 0.09352 0.58775 0.4149 0.0
C463 C 0.07585 0.58431 0.39042 0.0
C464 C 0.17779 0.62802 0.47141 0.0
C465 C 0.19108 0.60902 0.47898 0.0
C466 C 0.15297 0.61736 0.45151 0.0
C467 C 0.14038 0.58714 0.43915 0.0
C468 C 0.15313 0.56778 0.44754 0.0
C469 C 0.17845 0.57876 0.46699 0.0
H470 H 0.46859 0.07789 0.55723 0.0
H471 H 0.56255 0.09243 0.53373 0.0
H472 H 0.4926 0.11222 0.59782 0.0
H473 H 0.58665 0.12571 0.57504 0.0
H474 H 0.54306 0.16565 0.67689 0.0
H475 H 0.51849 0.12356 0.64192 0.0
H476 H 0.59987 0.17788 0.58682 0.0
H477 H 0.62494 0.21912 0.62228 0.0
C478 C 0.4942 0.08746 0.56146 0.0
C479 C 0.51379 0.08264 0.54244 0.0
C480 C 0.50805 0.10723 0.58469 0.0
C481 C 0.54174 0.1223 0.58948 0.0
C482 C 0.5608 0.11527 0.57158 0.0
C483 C 0.54701 0.09587 0.54815 0.0
C484 C 0.55564 0.16854 0.65727 0.0
C485 C 0.5859 0.1957 0.65228 0.0
C486 C 0.54155 0.14442 0.6372 0.0
C487 C 0.55724 0.14711 0.61155 0.0
C488 C 0.5874 0.17452 0.60656 0.0
C489 C 0.60165 0.19841 0.62675 0.0
H490 H 0.42321 0.46928 0.74273 0.0
H491 H 0.46559 0.5617 0.70367 0.0
H492 H 0.42332 0.4928 0.78738 0.0
H493 H 0.46203 0.58457 0.74754 0.0
H494 H 0.46136 0.62336 0.8322 0.0
H495 H 0.47593 0.60141 0.79258 0.0
H496 H 0.39155 0.50948 0.80853 0.0
H497 H 0.37883 0.5311 0.84918 0.0
C498 C 0.43299 0.49469 0.7436 0.0
C499 C 0.44375 0.51339 0.71925 0.0
C500 C 0.43234 0.50816 0.76926 0.0
C501 C 0.44156 0.54049 0.77114 0.0
C502 C 0.4546 0.5596 0.74721 0.0
C503 C 0.45615 0.54631 0.72175 0.0
C504 C 0.44617 0.59841 0.8272 0.0
C505 C 0.41893 0.57891 0.84361 0.0
C506 C 0.45439 0.58578 0.80441 0.0
C507 C 0.43498 0.55354 0.79705 0.0
C508 C 0.40774 0.53416 0.81374 0.0
C509 C 0.40011 0.54661 0.83694 0.0
H510 H 0.92847 0.49218 0.86561 0.0
H511 H 0.94488 0.41526 0.88737 0.0
H512 H 0.89479 0.48147 0.90721 0.0
H513 H 0.91014 0.40342 0.92827 0.0
H514 H 0.79833 0.42167 0.95235 0.0
H515 H 0.84141 0.44075 0.91766 0.0
H516 H 0.89776 0.41616 0.97274 0.0
H517 H 0.85396 0.39586 0.00693 0.0
C518 C 0.92552 0.47354 0.87981 0.0
C519 C 0.93923 0.45458 0.87348 0.0
C520 C 0.90585 0.46704 0.90337 0.0
C521 C 0.89905 0.44107 0.92074 0.0
C522 C 0.91491 0.4237 0.9155 0.0
C523 C 0.93496 0.43051 0.89213 0.0
C524 C 0.81989 0.42029 0.95699 0.0
C525 C 0.82267 0.40711 0.98226 0.0
C526 C 0.84483 0.4316 0.93727 0.0
C527 C 0.87332 0.43034 0.94248 0.0
C528 C 0.8761 0.41726 0.96789 0.0
C529 C 0.85098 0.40563 -0.0125 0.0
H530 H 0.55036 0.95438 0.0568 0.0
H531 H 0.45433 0.91514 0.02128 0.0
H532 H 0.52701 0.92492 0.09989 0.0
H533 H 0.43117 0.88383 0.0631 0.0
H534 H 0.39268 0.8351 0.14427 0.0
H535 H 0.41723 0.87716 0.10959 0.0
H536 H 0.50553 0.87221 0.11348 0.0
H537 H 0.48146 0.83165 0.14961 0.0
C538 C 0.52422 0.94 0.05841 0.0
C539 C 0.50422 0.93665 0.03546 0.0
C540 C 0.51082 0.92259 0.08293 0.0
C541 C 0.47721 0.90119 0.08485 0.0
C542 C 0.4571 0.89999 0.06267 0.0
C543 C 0.47042 0.91777 0.03845 0.0
C544 C 0.41738 0.84313 0.13773 0.0
C545 C 0.43511 0.82994 0.14938 0.0
C546 C 0.4315 0.86724 0.11778 0.0
C547 C 0.46342 0.87817 0.10845 0.0
C548 C 0.48118 0.86503 0.12043 0.0
C549 C 0.46728 0.84143 0.1409 0.0
H550 H 0.5272 0.44698 0.21853 0.0
H551 H 0.59472 0.54015 0.25062 0.0
H552 H 0.53069 0.4233 0.26261 0.0
H553 H 0.5988 0.51672 0.29425 0.0
H554 H 0.59533 0.4682 0.37452 0.0
H555 H 0.57618 0.48796 0.33647 0.0
H556 H 0.57327 0.41587 0.28158 0.0
H557 H 0.59143 0.39547 0.31989 0.0
C558 C 0.54209 0.46242 0.23532 0.0
C559 C 0.56084 0.49536 0.23112 0.0
C560 C 0.54437 0.44888 0.26043 0.0
C561 C 0.56556 0.46803 0.28175 0.0
C562 C 0.58208 0.50121 0.2784 0.0
C563 C 0.57966 0.51473 0.25337 0.0
C564 C 0.59041 0.45642 0.35437 0.0
C565 C 0.59526 0.43045 0.35015 0.0
C566 C 0.57943 0.46779 0.33255 0.0
C567 C 0.57325 0.45361 0.30592 0.0
C568 C 0.57725 0.42707 0.30193 0.0
C569 C 0.588 0.41554 0.32383 0.0
H570 H 0.40967 0.94561 0.39679 0.0
H571 H 0.47865 0.91732 0.42248 0.0
H572 H 0.40567 0.92235 0.35089 0.0
H573 H 0.47492 0.89416 0.37623 0.0
H574 H 0.41721 0.815 0.31032 0.0
H575 H 0.43312 0.84722 0.35275 0.0
H576 H 0.43133 0.92325 0.30739 0.0
H577 H 0.4146 0.8908 0.26522 0.0
C578 C 0.42482 0.93535 0.39231 0.0
C579 C 0.44434 0.93314 0.41328 0.0
C580 C 0.42248 0.9219 0.36597 0.0
C581 C 0.43968 0.90603 0.35999 0.0
C582 C 0.46085 0.90565 0.38038 0.0
C583 C 0.46313 0.91906 0.40677 0.0
C584 C 0.42046 0.83868 0.30935 0.0
C585 C 0.4142 0.85013 0.28447 0.0
C586 C 0.42985 0.85728 0.33363 0.0
C587 C 0.43337 0.88779 0.3335 0.0
C588 C 0.42833 0.89967 0.30832 0.0
C589 C 0.41878 0.88104 0.28413 0.0
H590 H 0.49986 0.44392 0.57482 0.0
H591 H 0.50834 0.36988 0.61725 0.0
H592 H 0.52016 0.43233 0.53152 0.0
H593 H 0.52914 0.35912 0.57473 0.0
H594 H 0.60934 0.38544 0.50914 0.0
H595 H 0.58406 0.39618 0.54888 0.0
H596 H 0.50424 0.38254 0.49621 0.0
H597 H 0.52933 0.37132 0.45625 0.0
C598 C 0.50575 0.42509 0.57481 0.0
C599 C 0.50336 0.40839 0.59954 0.0
C600 C 0.51733 0.41849 0.55016 0.0
C601 C 0.52672 0.39526 0.55012 0.0
C602 C 0.5227 0.37759 0.57444 0.0
C603 C 0.51093 0.38388 0.59876 0.0
C604 C 0.58638 0.38466 0.50601 0.0
C605 C 0.57119 0.37731 0.47969 0.0
C606 C 0.57195 0.39081 0.52872 0.0
C607 C 0.54226 0.39014 0.52548 0.0
C608 C 0.52723 0.38333 0.4991 0.0
C609 C 0.54145 0.37668 0.4764 0.0
H610 H 0.05638 0.4884 0.7203 0.0
H611 H 0.1158 0.58536 0.74839 0.0
H612 H 0.0771 0.50418 0.67331 0.0
H613 H 0.13957 0.6004 0.7023 0.0
H614 H 0.18096 0.62313 0.61605 0.0
H615 H 0.14409 0.61041 0.65559 0.0
H616 H 0.12412 0.51321 0.65303 0.0
H617 H 0.15879 0.52566 0.61243 0.0
C618 C 0.07339 0.51325 0.71646 0.0
C619 C 0.08522 0.53538 0.73853 0.0
C620 C 0.08596 0.52221 0.68948 0.0
C621 C 0.11136 0.55326 0.68407 0.0
C622 C 0.12041 0.57614 0.70541 0.0
C623 C 0.10704 0.56739 0.73215 0.0
C624 C 0.16842 0.59905 0.624 0.0
C625 C 0.17281 0.5754 0.61139 0.0
C626 C 0.14729 0.59169 0.64671 0.0
C627 C 0.13082 0.56068 0.65779 0.0
C628 C 0.13538 0.53713 0.64486 0.0
C629 C 0.15572 0.54432 0.62174 0.0
H630 H 0.55401 0.11518 0.92059 0.0
H631 H 0.60292 0.06677 0.88907 0.0
H632 H 0.56369 0.14316 0.87673 0.0
H633 H 0.60881 0.09158 0.84395 0.0
H634 H 0.65938 0.17334 0.78335 0.0
H635 H 0.64237 0.13932 0.8243 0.0
H636 H 0.55674 0.14882 0.83071 0.0
H637 H 0.57573 0.18519 0.79107 0.0
C638 C 0.56625 0.10994 0.90412 0.0
C639 C 0.57866 0.08945 0.90894 0.0
C640 C 0.57134 0.12569 0.87857 0.0
C641 C 0.58797 0.12052 0.8567 0.0
C642 C 0.59718 0.09736 0.86055 0.0
C643 C 0.59304 0.0824 0.88642 0.0
C644 C 0.63702 0.1682 0.79371 0.0
C645 C 0.61903 0.18207 0.78435 0.0
C646 C 0.62689 0.14825 0.81702 0.0
C647 C 0.59786 0.1408 0.83102 0.0
C648 C 0.57953 0.15433 0.82107 0.0
C649 C 0.59029 0.17513 0.79826 0.0
H650 H 0.55589 0.6266 0.08405 0.0
H651 H 0.46074 0.54539 0.09659 0.0
H652 H 0.53749 0.63866 0.04039 0.0
H653 H 0.44241 0.55655 0.05245 0.0
H654 H 0.49664 0.64464 0.95566 0.0
H655 H 0.51759 0.62573 -0.00683 0.0
H656 H 0.42987 0.59697 0.04055 0.0
H657 H 0.40861 0.61491 0.00275 0.0
C658 C 0.53144 0.61058 0.07676 0.0
C659 C 0.50965 0.58515 0.09354 0.0
C660 C 0.5208 0.61752 0.05183 0.0
C661 C 0.48824 0.59898 0.04324 0.0
C662 C 0.46738 0.57182 0.05887 0.0
C663 C 0.47793 0.56512 0.08389 0.0
C664 C 0.48188 0.6343 0.97413 0.0
C665 C 0.45096 0.63126 0.97628 0.0
C666 C 0.49389 0.62346 -0.00439 0.0
C667 C 0.4753 0.60949 0.01975 0.0
C668 C 0.44453 0.60685 0.02196 0.0
C669 C 0.43247 0.61749 0.00044 0.0
H670 H 0.94044 0.54499 0.22337 0.0
H671 H 0.91009 0.44887 0.24853 0.0
H672 H 0.91383 0.52583 0.17836 0.0
H673 H 0.88394 0.42951 0.20303 0.0
H674 H 0.80089 0.40673 0.14048 0.0
H675 H 0.83579 0.42385 0.18168 0.0
H676 H 0.91084 0.50163 0.13439 0.0
H677 H 0.8755 0.48516 0.09351 0.0
C678 C 0.92903 0.51983 0.21887 0.0
C679 C 0.92722 0.4984 0.23946 0.0
C680 C 0.91368 0.50878 0.19304 0.0
C681 C 0.89635 0.47605 0.18717 0.0
C682 C 0.89644 0.4548 0.20711 0.0
C683 C 0.91162 0.46586 0.23305 0.0
C684 C 0.82489 0.4274 0.13885 0.0
C685 C 0.83525 0.44479 0.11382 0.0
C686 C 0.84506 0.43707 0.16241 0.0
C687 C 0.87617 0.46417 0.16139 0.0
C688 C 0.88685 0.48097 0.13607 0.0
C689 C 0.86658 0.47148 0.1126 0.0
loop_
_geom_bond_atom_site_label_1
_geom_bond_atom_site_label_2
_geom_bond_distance
_geom_bond_site_symmetry_2
_ccdc_geom_bond_type
H0 C8 0.930 . S
H1 C11 0.930 . S
H2 C13 0.930 . S
H3 C14 0.970 . S
H4 C14 0.970 . S
H5 C16 0.930 . S
H6 C18 0.930 . S
H7 C20 0.930 . S
C8 H0 0.930 . S
C8 C9 1.382 . S
C8 C10 1.426 . S
C9 C8 1.382 . S
C9 C13 1.389 . S
C10 C8 1.426 . S
C10 C11 1.375 . S
C10 C14 1.532 1_655 S
C11 H1 0.930 . S
C11 C10 1.375 . S
C11 C12 1.416 . S
C12 C11 1.416 . S
C12 C13 1.371 . S
C13 H2 0.930 . S
C13 C9 1.389 . S
C13 C12 1.371 . S
C14 H3 0.970 . S
C14 H4 0.970 . S
C14 C10 1.532 1_455 S
C14 C15 1.499 . S
C15 C14 1.499 . S
C15 C16 1.370 . S
C15 C20 1.415 . S
C16 H5 0.930 . S
C16 C15 1.370 . S
C16 C17 1.407 . S
C17 C16 1.407 . S
C17 C18 1.365 . S
C18 H6 0.930 . S
C18 C17 1.365 . S
C18 C19 1.393 . S
C19 C18 1.393 . S
C19 C20 1.387 . S
C20 H7 0.930 . S
C20 C15 1.415 . S
C20 C19 1.387 . S
H21 C29 0.930 . S
H22 C32 0.930 . S
H23 C34 0.930 . S
H24 C35 0.970 . S
H25 C35 0.970 . S
H26 C37 0.930 . S
H27 C39 0.930 . S
H28 C41 0.930 . S
C29 H21 0.930 . S
C29 C30 1.382 . S
C29 C31 1.426 . S
C30 C29 1.382 . S
C30 C34 1.389 . S
C31 C29 1.426 . S
C31 C32 1.375 . S
C31 C35 1.532 1_565 S
C32 H22 0.930 . S
C32 C31 1.375 . S
C32 C33 1.416 . S
C33 C32 1.416 . S
C33 C34 1.371 . S
C34 H23 0.930 . S
C34 C30 1.389 . S
C34 C33 1.371 . S
C35 H24 0.970 . S
C35 H25 0.970 . S
C35 C31 1.532 1_545 S
C35 C36 1.499 . S
C36 C35 1.499 . S
C36 C37 1.370 . S
C36 C41 1.415 . S
C37 H26 0.930 . S
C37 C36 1.370 . S
C37 C38 1.407 . S
C38 C37 1.407 . S
C38 C39 1.365 . S
C39 H27 0.930 . S
C39 C38 1.365 . S
C39 C40 1.393 . S
C40 C39 1.393 . S
C40 C41 1.387 . S
C41 H28 0.930 . S
C41 C36 1.415 . S
C41 C40 1.387 . S
H42 C50 0.930 . S
H43 C53 0.930 . S
H44 C55 0.930 . S
H45 C56 0.970 . S
H46 C56 0.970 . S
H47 C58 0.930 . S
H48 C60 0.930 . S
H49 C62 0.930 . S
C50 H42 0.930 . S
C50 C51 1.382 . S
C50 C52 1.426 . S
C51 C50 1.382 . S
C51 C55 1.389 . S
C52 C50 1.426 . S
C52 C53 1.375 . S
C52 C56 1.532 . S
C53 H43 0.930 . S
C53 C52 1.375 . S
C53 C54 1.416 . S
C54 C53 1.416 . S
C54 C55 1.371 . S
C55 H44 0.930 . S
C55 C51 1.389 . S
C55 C54 1.371 . S
C56 H45 0.970 . S
C56 H46 0.970 . S
C56 C52 1.532 . S
C56 C57 1.499 . S
C57 C56 1.499 . S
C57 C58 1.370 . S
C57 C62 1.415 . S
C58 H47 0.930 . S
C58 C57 1.370 . S
C58 C59 1.407 . S
C59 C58 1.407 . S
C59 C60 1.365 . S
C60 H48 0.930 . S
C60 C59 1.365 . S
C60 C61 1.393 . S
C61 C60 1.393 . S
C61 C62 1.387 . S
C62 H49 0.930 . S
C62 C57 1.415 . S
C62 C61 1.387 . S
H63 C71 0.930 . S
H64 C74 0.930 . S
H65 C76 0.930 . S
H66 C77 0.970 . S
H67 C77 0.970 . S
H68 C79 0.930 . S
H69 C81 0.930 . S
H70 C83 0.930 . S
C71 H63 0.930 . S
C71 C72 1.382 . S
C71 C73 1.426 . S
C72 C71 1.382 . S
C72 C76 1.389 . S
C73 C71 1.426 . S
C73 C74 1.375 . S
C73 C77 1.532 1_655 S
C74 H64 0.930 . S
C74 C73 1.375 . S
C74 C75 1.416 . S
C75 C74 1.416 . S
C75 C76 1.371 . S
C76 H65 0.930 . S
C76 C72 1.389 . S
C76 C75 1.371 . S
C77 H66 0.970 . S
C77 H67 0.970 . S
C77 C73 1.532 1_455 S
C77 C78 1.499 . S
C78 C77 1.499 . S
C78 C79 1.370 . S
C78 C83 1.415 . S
C79 H68 0.930 . S
C79 C78 1.370 . S
C79 C80 1.407 . S
C80 C79 1.407 . S
C80 C81 1.365 . S
C81 H69 0.930 . S
C81 C80 1.365 . S
C81 C82 1.393 . S
C82 C81 1.393 . S
C82 C83 1.387 . S
C83 H70 0.930 . S
C83 C78 1.415 . S
C83 C82 1.387 . S
H84 C92 0.930 . S
H85 C95 0.930 . S
H86 C97 0.930 . S
H87 C98 0.970 1_554 S
H88 C98 0.989 . S
H89 C100 0.930 . S
H90 C102 0.930 . S
H91 C104 0.930 . S
C92 H84 0.930 . S
C92 C93 1.382 1_554 S
C92 C94 1.426 1_554 S
C93 C92 1.382 1_556 S
C93 C97 1.389 . S
C94 C92 1.426 1_556 S
C94 C95 1.375 . S
C94 C98 1.532 . S
C95 H85 0.930 . S
C95 C94 1.375 . S
C95 C96 1.416 . S
C96 C95 1.416 . S
C96 C97 1.371 . S
C97 H86 0.930 . S
C97 C93 1.389 . S
C97 C96 1.371 . S
C98 H87 0.970 1_556 S
C98 H88 0.989 . S
C98 C94 1.532 . S
C98 C99 1.504 1_545 S
C99 C98 1.504 1_565 S
C99 C100 1.349 1_556 S
C99 C104 1.431 . S
C100 H89 0.930 . S
C100 C99 1.349 1_554 S
C100 C101 1.407 . S
C101 C100 1.407 . S
C101 C102 1.365 . S
C102 H90 0.930 . S
C102 C101 1.365 . S
C102 C103 1.393 1_554 S
C103 C102 1.393 1_556 S
C103 C104 1.387 . S
C104 H91 0.930 . S
C104 C99 1.431 . S
C104 C103 1.387 . S
H105 C113 0.930 . S
H106 C116 0.930 . S
H107 C118 0.930 . S
H108 C119 0.970 . S
H109 C119 0.970 . S
H110 C121 0.930 . S
H111 C123 0.930 . S
H112 C125 0.930 . S
C113 H105 0.930 . S
C113 C114 1.382 . S
C113 C115 1.426 . S
C114 C113 1.382 . S
C114 C118 1.389 . S
C115 C113 1.426 . S
C115 C116 1.375 . S
C115 C119 1.532 . S
C116 H106 0.930 . S
C116 C115 1.375 . S
C116 C117 1.416 . S
C117 C116 1.416 . S
C117 C118 1.371 . S
C118 H107 0.930 . S
C118 C114 1.389 . S
C118 C117 1.371 . S
C119 H108 0.970 . S
C119 H109 0.970 . S
C119 C115 1.532 . S
C119 C120 1.499 . S
C120 C119 1.499 . S
C120 C121 1.370 . S
C120 C125 1.415 . S
C121 H110 0.930 . S
C121 C120 1.370 . S
C121 C122 1.407 . S
C122 C121 1.407 . S
C122 C123 1.365 . S
C123 H111 0.930 . S
C123 C122 1.365 . S
C123 C124 1.393 . S
C124 C123 1.393 . S
C124 C125 1.387 . S
C125 H112 0.930 . S
C125 C120 1.415 . S
C125 C124 1.387 . S
C126 O127 1.306 . S
C126 O129 1.160 . S
O127 C126 1.306 . S
O127 Cd128 2.228 . S
Cd128 O127 2.228 . S
Cd128 O132 2.273 . S
Cd128 O136 2.277 . S
O129 C126 1.160 . S
O129 Cd130 2.203 . S
Cd130 O129 2.203 . S
Cd130 O132 2.411 . S
Cd130 O133 2.333 . S
Cd130 O134 2.352 . S
Cd130 O138 2.277 . S
Cd130 O139 2.356 . S
C131 O136 1.209 . S
C131 O138 1.226 . S
O132 Cd128 2.273 . S
O132 Cd130 2.411 . S
O132 C135 1.320 . S
O133 Cd130 2.333 . S
O133 C135 1.214 . S
O134 Cd130 2.352 . S
O134 C137 1.258 . S
C135 O132 1.320 . S
C135 O133 1.214 . S
O136 Cd128 2.277 . S
O136 C131 1.209 . S
C137 O134 1.258 . S
C137 O139 1.282 . S
O138 Cd130 2.277 . S
O138 C131 1.226 . S
O139 Cd130 2.356 . S
O139 C137 1.282 . S
C140 O141 1.306 . S
C140 O143 1.160 . S
O141 C140 1.306 . S
O141 Cd142 2.228 . S
Cd142 O141 2.228 . S
Cd142 O146 2.273 . S
Cd142 O150 2.277 . S
O143 C140 1.160 . S
O143 Cd144 2.203 . S
Cd144 O143 2.203 . S
Cd144 O146 2.411 . S
Cd144 O147 2.333 . S
Cd144 O148 2.352 . S
Cd144 O152 2.277 . S
Cd144 O153 2.356 . S
C145 O150 1.209 . S
C145 O152 1.226 . S
O146 Cd142 2.273 . S
O146 Cd144 2.411 . S
O146 C149 1.320 . S
O147 Cd144 2.333 . S
O147 C149 1.214 . S
O148 Cd144 2.352 . S
O148 C151 1.258 . S
C149 O146 1.320 . S
C149 O147 1.214 . S
O150 Cd142 2.277 . S
O150 C145 1.209 . S
C151 O148 1.258 . S
C151 O153 1.282 . S
O152 Cd144 2.277 . S
O152 C145 1.226 . S
O153 Cd144 2.356 . S
O153 C151 1.282 . S
C154 O155 1.306 . S
C154 O157 1.160 . S
O155 C154 1.306 . S
O155 Cd156 2.228 . S
Cd156 O155 2.228 . S
Cd156 O160 2.273 . S
Cd156 O164 2.277 . S
O157 C154 1.160 . S
O157 Cd158 2.203 . S
Cd158 O157 2.203 . S
Cd158 O160 2.411 . S
Cd158 O161 2.333 . S
Cd158 O162 2.352 . S
Cd158 O166 2.277 . S
Cd158 O167 2.356 . S
C159 O164 1.209 . S
C159 O166 1.226 . S
O160 Cd156 2.273 . S
O160 Cd158 2.411 . S
O160 C163 1.320 . S
O161 Cd158 2.333 . S
O161 C163 1.214 . S
O162 Cd158 2.352 . S
O162 C165 1.258 . S
C163 O160 1.320 . S
C163 O161 1.214 . S
O164 Cd156 2.277 . S
O164 C159 1.209 . S
C165 O162 1.258 . S
C165 O167 1.282 . S
O166 Cd158 2.277 . S
O166 C159 1.226 . S
O167 Cd158 2.356 . S
O167 C165 1.282 . S
C168 O169 1.306 . S
C168 O171 1.160 . S
O169 C168 1.306 . S
O169 Cd170 2.228 . S
Cd170 O169 2.228 . S
Cd170 O174 2.273 . S
Cd170 O178 2.277 . S
O171 C168 1.160 . S
O171 Cd172 2.203 . S
Cd172 O171 2.203 . S
Cd172 O174 2.411 . S
Cd172 O175 2.333 . S
Cd172 O176 2.352 . S
Cd172 O180 2.277 . S
Cd172 O181 2.356 . S
C173 O178 1.209 . S
C173 O180 1.226 . S
O174 Cd170 2.273 . S
O174 Cd172 2.411 . S
O174 C177 1.320 . S
O175 Cd172 2.333 . S
O175 C177 1.214 . S
O176 Cd172 2.352 . S
O176 C179 1.258 . S
C177 O174 1.320 . S
C177 O175 1.214 . S
O178 Cd170 2.277 . S
O178 C173 1.209 . S
C179 O176 1.258 . S
C179 O181 1.282 . S
O180 Cd172 2.277 . S
O180 C173 1.226 . S
O181 Cd172 2.356 . S
O181 C179 1.282 . S
C182 O183 1.306 . S
C182 O185 1.160 . S
O183 C182 1.306 . S
O183 Cd184 2.228 . S
Cd184 O183 2.228 . S
Cd184 O188 2.273 . S
Cd184 O192 2.277 . S
O185 C182 1.160 . S
O185 Cd186 2.203 . S
Cd186 O185 2.203 . S
Cd186 O188 2.411 . S
Cd186 O189 2.333 . S
Cd186 O190 2.352 . S
Cd186 O194 2.277 . S
Cd186 O195 2.356 . S
C187 O192 1.209 . S
C187 O194 1.226 . S
O188 Cd184 2.273 . S
O188 Cd186 2.411 . S
O188 C191 1.320 . S
O189 Cd186 2.333 . S
O189 C191 1.214 . S
O190 Cd186 2.352 . S
O190 C193 1.258 . S
C191 O188 1.320 . S
C191 O189 1.214 . S
O192 Cd184 2.277 . S
O192 C187 1.209 . S
C193 O190 1.258 . S
C193 O195 1.282 . S
O194 Cd186 2.277 . S
O194 C187 1.226 . S
O195 Cd186 2.356 . S
O195 C193 1.282 . S
C196 O197 1.306 . S
C196 O199 1.160 . S
O197 C196 1.306 . S
O197 Cd198 2.228 . S
Cd198 O197 2.228 . S
Cd198 O202 2.273 . S
Cd198 O206 2.277 . S
O199 C196 1.160 . S
O199 Cd200 2.203 . S
Cd200 O199 2.203 . S
Cd200 O202 2.411 . S
Cd200 O203 2.333 . S
Cd200 O204 2.352 . S
Cd200 O208 2.277 . S
Cd200 O209 2.356 . S
C201 O206 1.209 . S
C201 O208 1.226 . S
O202 Cd198 2.273 . S
O202 Cd200 2.411 . S
O202 C205 1.320 . S
O203 Cd200 2.333 . S
O203 C205 1.214 . S
O204 Cd200 2.352 . S
O204 C207 1.258 . S
C205 O202 1.320 . S
C205 O203 1.214 . S
O206 Cd198 2.277 . S
O206 C201 1.209 . S
C207 O204 1.258 . S
C207 O209 1.282 . S
O208 Cd200 2.277 . S
O208 C201 1.226 . S
O209 Cd200 2.356 . S
O209 C207 1.282 . S
H210 C218 0.950 . S
H211 C223 0.950 . S
H212 C220 0.950 . S
H213 C222 0.950 . S
H214 C224 0.950 . S
H215 C226 0.950 . S
H216 C228 0.950 . S
H217 C229 0.950 . S
C218 H210 0.950 . S
C218 C219 1.386 . S
C218 C220 1.391 . S
C219 C218 1.386 . S
C219 C223 1.393 . S
C220 H212 0.950 . S
C220 C218 1.391 . S
C220 C221 1.400 . S
C221 C220 1.400 . S
C221 C222 1.398 . S
C221 C227 1.491 . S
C222 H213 0.950 . S
C222 C221 1.398 . S
C222 C223 1.391 . S
C223 H211 0.950 . S
C223 C219 1.393 . S
C223 C222 1.391 . S
C224 H214 0.950 . S
C224 C225 1.386 . S
C224 C226 1.391 . S
C225 C224 1.386 . S
C225 C229 1.393 . S
C226 H215 0.950 . S
C226 C224 1.391 . S
C226 C227 1.400 . S
C227 C221 1.491 . S
C227 C226 1.400 . S
C227 C228 1.398 . S
C228 H216 0.950 . S
C228 C227 1.398 . S
C228 C229 1.391 . S
C229 H217 0.950 . S
C229 C225 1.393 . S
C229 C228 1.391 . S
H230 C238 0.950 . S
H231 C243 0.950 . S
H232 C240 0.950 . S
H233 C242 0.950 . S
H234 C244 0.950 . S
H235 C246 0.950 . S
H236 C248 0.950 . S
H237 C249 0.950 . S
C238 H230 0.950 . S
C238 C239 1.386 . S
C238 C240 1.391 . S
C239 C238 1.386 . S
C239 C243 1.393 . S
C240 H232 0.950 . S
C240 C238 1.391 . S
C240 C241 1.400 . S
C241 C240 1.400 . S
C241 C242 1.398 . S
C241 C247 1.491 . S
C242 H233 0.950 . S
C242 C241 1.398 . S
C242 C243 1.391 . S
C243 H231 0.950 . S
C243 C239 1.393 . S
C243 C242 1.391 . S
C244 H234 0.950 . S
C244 C245 1.386 . S
C244 C246 1.391 . S
C245 C244 1.386 . S
C245 C249 1.393 . S
C246 H235 0.950 . S
C246 C244 1.391 . S
C246 C247 1.400 . S
C247 C241 1.491 . S
C247 C246 1.400 . S
C247 C248 1.398 . S
C248 H236 0.950 . S
C248 C247 1.398 . S
C248 C249 1.391 . S
C249 H237 0.950 . S
C249 C245 1.393 . S
C249 C248 1.391 . S
H250 C258 0.950 . S
H251 C263 0.950 . S
H252 C260 0.950 . S
H253 C262 0.950 . S
H254 C264 0.950 . S
H255 C266 0.950 . S
H256 C268 0.950 . S
H257 C269 0.950 . S
C258 H250 0.950 . S
C258 C259 1.386 . S
C258 C260 1.391 . S
C259 C258 1.386 . S
C259 C263 1.393 . S
C260 H252 0.950 . S
C260 C258 1.391 . S
C260 C261 1.400 . S
C261 C260 1.400 . S
C261 C262 1.398 . S
C261 C267 1.491 . S
C262 H253 0.950 . S
C262 C261 1.398 . S
C262 C263 1.391 . S
C263 H251 0.950 . S
C263 C259 1.393 . S
C263 C262 1.391 . S
C264 H254 0.950 . S
C264 C265 1.386 . S
C264 C266 1.391 . S
C265 C264 1.386 . S
C265 C269 1.393 . S
C266 H255 0.950 . S
C266 C264 1.391 . S
C266 C267 1.400 . S
C267 C261 1.491 . S
C267 C266 1.400 . S
C267 C268 1.398 . S
C268 H256 0.950 . S
C268 C267 1.398 . S
C268 C269 1.391 . S
C269 H257 0.950 . S
C269 C265 1.393 . S
C269 C268 1.391 . S
H270 C278 0.950 . S
H271 C283 0.950 . S
H272 C280 0.950 . S
H273 C282 0.950 . S
H274 C284 0.950 . S
H275 C286 0.950 . S
H276 C288 0.950 . S
H277 C289 0.950 . S
C278 H270 0.950 . S
C278 C279 1.386 . S
C278 C280 1.391 . S
C279 C278 1.386 . S
C279 C283 1.393 . S
C280 H272 0.950 . S
C280 C278 1.391 . S
C280 C281 1.400 . S
C281 C280 1.400 . S
C281 C282 1.398 . S
C281 C287 1.491 . S
C282 H273 0.950 . S
C282 C281 1.398 . S
C282 C283 1.391 . S
C283 H271 0.950 . S
C283 C279 1.393 . S
C283 C282 1.391 . S
C284 H274 0.950 . S
C284 C285 1.386 . S
C284 C286 1.391 . S
C285 C284 1.386 . S
C285 C289 1.393 . S
C286 H275 0.950 . S
C286 C284 1.391 . S
C286 C287 1.400 . S
C287 C281 1.491 . S
C287 C286 1.400 . S
C287 C288 1.398 . S
C288 H276 0.950 . S
C288 C287 1.398 . S
C288 C289 1.391 . S
C289 H277 0.950 . S
C289 C285 1.393 . S
C289 C288 1.391 . S
H290 C298 0.950 . S
H291 C303 0.950 . S
H292 C300 0.950 . S
H293 C302 0.950 . S
H294 C304 0.950 . S
H295 C306 0.950 . S
H296 C308 0.950 . S
H297 C309 0.950 . S
C298 H290 0.950 . S
C298 C299 1.386 . S
C298 C300 1.391 . S
C299 C298 1.386 . S
C299 C303 1.393 . S
C300 H292 0.950 . S
C300 C298 1.391 . S
C300 C301 1.400 . S
C301 C300 1.400 . S
C301 C302 1.398 . S
C301 C307 1.491 . S
C302 H293 0.950 . S
C302 C301 1.398 . S
C302 C303 1.391 . S
C303 H291 0.950 . S
C303 C299 1.393 . S
C303 C302 1.391 . S
C304 H294 0.950 . S
C304 C305 1.386 . S
C304 C306 1.391 . S
C305 C304 1.386 . S
C305 C309 1.393 . S
C306 H295 0.950 . S
C306 C304 1.391 . S
C306 C307 1.400 . S
C307 C301 1.491 . S
C307 C306 1.400 . S
C307 C308 1.398 . S
C308 H296 0.950 . S
C308 C307 1.398 . S
C308 C309 1.391 . S
C309 H297 0.950 . S
C309 C305 1.393 . S
C309 C308 1.391 . S
H310 C318 0.950 . S
H311 C323 0.950 . S
H312 C320 0.950 . S
H313 C322 0.950 . S
H314 C324 0.950 . S
H315 C326 0.950 . S
H316 C328 0.950 . S
H317 C329 0.950 . S
C318 H310 0.950 . S
C318 C319 1.386 . S
C318 C320 1.391 . S
C319 C318 1.386 . S
C319 C323 1.393 . S
C320 H312 0.950 . S
C320 C318 1.391 . S
C320 C321 1.400 . S
C321 C320 1.400 . S
C321 C322 1.398 . S
C321 C327 1.491 . S
C322 H313 0.950 . S
C322 C321 1.398 . S
C322 C323 1.391 . S
C323 H311 0.950 . S
C323 C319 1.393 . S
C323 C322 1.391 . S
C324 H314 0.950 . S
C324 C325 1.386 . S
C324 C326 1.391 . S
C325 C324 1.386 . S
C325 C329 1.393 . S
C326 H315 0.950 . S
C326 C324 1.391 . S
C326 C327 1.400 . S
C327 C321 1.491 . S
C327 C326 1.400 . S
C327 C328 1.398 . S
C328 H316 0.950 . S
C328 C327 1.398 . S
C328 C329 1.391 . S
C329 H317 0.950 . S
C329 C325 1.393 . S
C329 C328 1.391 . S
H330 C338 0.950 . S
H331 C343 0.950 . S
H332 C340 0.950 . S
H333 C342 0.950 . S
H334 C344 0.950 . S
H335 C346 0.950 . S
H336 C348 0.950 . S
H337 C349 0.950 . S
C338 H330 0.950 . S
C338 C339 1.386 . S
C338 C340 1.391 . S
C339 C338 1.386 . S
C339 C343 1.393 . S
C340 H332 0.950 . S
C340 C338 1.391 . S
C340 C341 1.400 . S
C341 C340 1.400 . S
C341 C342 1.398 . S
C341 C347 1.491 . S
C342 H333 0.950 . S
C342 C341 1.398 . S
C342 C343 1.391 . S
C343 H331 0.950 . S
C343 C339 1.393 . S
C343 C342 1.391 . S
C344 H334 0.950 . S
C344 C345 1.386 . S
C344 C346 1.391 . S
C345 C344 1.386 . S
C345 C349 1.393 . S
C346 H335 0.950 . S
C346 C344 1.391 . S
C346 C347 1.400 . S
C347 C341 1.491 . S
C347 C346 1.400 . S
C347 C348 1.398 . S
C348 H336 0.950 . S
C348 C347 1.398 . S
C348 C349 1.391 . S
C349 H337 0.950 . S
C349 C345 1.393 . S
C349 C348 1.391 . S
H350 C358 0.950 . S
H351 C363 0.950 . S
H352 C360 0.950 . S
H353 C362 0.950 . S
H354 C364 0.950 . S
H355 C366 0.950 . S
H356 C368 0.950 . S
H357 C369 0.950 . S
C358 H350 0.950 . S
C358 C359 1.386 . S
C358 C360 1.391 . S
C359 C358 1.386 . S
C359 C363 1.393 . S
C360 H352 0.950 . S
C360 C358 1.391 . S
C360 C361 1.400 . S
C361 C360 1.400 . S
C361 C362 1.398 . S
C361 C367 1.491 . S
C362 H353 0.950 . S
C362 C361 1.398 . S
C362 C363 1.391 . S
C363 H351 0.950 . S
C363 C359 1.393 . S
C363 C362 1.391 . S
C364 H354 0.950 . S
C364 C365 1.386 . S
C364 C366 1.391 . S
C365 C364 1.386 . S
C365 C369 1.393 . S
C366 H355 0.950 . S
C366 C364 1.391 . S
C366 C367 1.400 . S
C367 C361 1.491 . S
C367 C366 1.400 . S
C367 C368 1.398 . S
C368 H356 0.950 . S
C368 C367 1.398 . S
C368 C369 1.391 . S
C369 H357 0.950 . S
C369 C365 1.393 . S
C369 C368 1.391 . S
H370 C378 0.950 . S
H371 C383 0.950 . S
H372 C380 0.950 . S
H373 C382 0.950 . S
H374 C384 0.950 . S
H375 C386 0.950 . S
H376 C388 0.950 . S
H377 C389 0.950 . S
C378 H370 0.950 . S
C378 C379 1.386 . S
C378 C380 1.391 . S
C379 C378 1.386 . S
C379 C383 1.393 . S
C380 H372 0.950 . S
C380 C378 1.391 . S
C380 C381 1.400 . S
C381 C380 1.400 . S
C381 C382 1.398 . S
C381 C387 1.491 . S
C382 H373 0.950 . S
C382 C381 1.398 . S
C382 C383 1.391 . S
C383 H371 0.950 . S
C383 C379 1.393 . S
C383 C382 1.391 . S
C384 H374 0.950 . S
C384 C385 1.386 . S
C384 C386 1.391 . S
C385 C384 1.386 . S
C385 C389 1.393 . S
C386 H375 0.950 . S
C386 C384 1.391 . S
C386 C387 1.400 . S
C387 C381 1.491 . S
C387 C386 1.400 . S
C387 C388 1.398 . S
C388 H376 0.950 . S
C388 C387 1.398 . S
C388 C389 1.391 . S
C389 H377 0.950 . S
C389 C385 1.393 . S
C389 C388 1.391 . S
H390 C398 0.950 . S
H391 C403 0.950 1_556 S
H392 C400 0.950 . S
H393 C402 0.944 1_556 S
H394 C404 0.950 . S
H395 C406 0.950 . S
H396 C408 0.950 . S
H397 C409 0.950 . S
C398 H390 0.950 . S
C398 C399 1.386 . S
C398 C400 1.391 . S
C399 C398 1.386 . S
C399 C403 1.393 . S
C400 H392 0.950 . S
C400 C398 1.391 . S
C400 C401 1.400 . S
C401 C400 1.400 . S
C401 C402 1.398 . S
C401 C407 1.491 . S
C402 H393 0.944 1_554 S
C402 C401 1.398 . S
C402 C403 1.391 . S
C403 H391 0.950 1_554 S
C403 C399 1.393 . S
C403 C402 1.391 . S
C404 H394 0.950 . S
C404 C405 1.386 . S
C404 C406 1.391 . S
C405 C404 1.386 . S
C405 C409 1.393 . S
C406 H395 0.950 . S
C406 C404 1.391 . S
C406 C407 1.400 . S
C407 C401 1.491 . S
C407 C406 1.400 . S
C407 C408 1.398 . S
C408 H396 0.950 . S
C408 C407 1.398 . S
C408 C409 1.391 . S
C409 H397 0.950 . S
C409 C405 1.393 . S
C409 C408 1.391 . S
H410 C418 0.950 . S
H411 C423 0.950 . S
H412 C420 0.950 . S
H413 C422 0.950 . S
H414 C424 0.950 . S
H415 C426 0.950 . S
H416 C428 0.950 . S
H417 C429 0.950 . S
C418 H410 0.950 . S
C418 C419 1.386 . S
C418 C420 1.391 . S
C419 C418 1.386 . S
C419 C423 1.393 . S
C420 H412 0.950 . S
C420 C418 1.391 . S
C420 C421 1.400 . S
C421 C420 1.400 . S
C421 C422 1.398 . S
C421 C427 1.491 . S
C422 H413 0.950 . S
C422 C421 1.398 . S
C422 C423 1.391 . S
C423 H411 0.950 . S
C423 C419 1.393 . S
C423 C422 1.391 . S
C424 H414 0.950 . S
C424 C425 1.386 . S
C424 C426 1.391 . S
C425 C424 1.386 . S
C425 C429 1.393 . S
C426 H415 0.950 . S
C426 C424 1.391 . S
C426 C427 1.400 . S
C427 C421 1.491 . S
C427 C426 1.400 . S
C427 C428 1.398 . S
C428 H416 0.950 . S
C428 C427 1.398 . S
C428 C429 1.391 . S
C429 H417 0.950 . S
C429 C425 1.393 . S
C429 C428 1.391 . S
H430 C438 0.950 . S
H431 C443 0.950 . S
H432 C440 0.950 . S
H433 C442 0.950 . S
H434 C444 0.950 . S
H435 C446 0.950 . S
H436 C448 0.950 . S
H437 C449 0.950 . S
C438 H430 0.950 . S
C438 C439 1.386 . S
C438 C440 1.391 . S
C439 C438 1.386 . S
C439 C443 1.393 . S
C440 H432 0.950 . S
C440 C438 1.391 . S
C440 C441 1.400 . S
C441 C440 1.400 . S
C441 C442 1.398 . S
C441 C447 1.491 . S
C442 H433 0.950 . S
C442 C441 1.398 . S
C442 C443 1.391 . S
C443 H431 0.950 . S
C443 C439 1.393 . S
C443 C442 1.391 . S
C444 H434 0.950 . S
C444 C445 1.386 . S
C444 C446 1.391 . S
C445 C444 1.386 . S
C445 C449 1.393 . S
C446 H435 0.950 . S
C446 C444 1.391 . S
C446 C447 1.400 . S
C447 C441 1.491 . S
C447 C446 1.400 . S
C447 C448 1.398 . S
C448 H436 0.950 . S
C448 C447 1.398 . S
C448 C449 1.391 . S
C449 H437 0.950 . S
C449 C445 1.393 . S
C449 C448 1.391 . S
H450 C458 0.950 . S
H451 C463 0.950 . S
H452 C460 0.950 . S
H453 C462 0.950 . S
H454 C464 0.950 . S
H455 C466 0.950 . S
H456 C468 0.950 . S
H457 C469 0.950 . S
C458 H450 0.950 . S
C458 C459 1.386 . S
C458 C460 1.391 . S
C459 C458 1.386 . S
C459 C463 1.393 . S
C460 H452 0.950 . S
C460 C458 1.391 . S
C460 C461 1.400 . S
C461 C460 1.400 . S
C461 C462 1.398 . S
C461 C467 1.491 . S
C462 H453 0.950 . S
C462 C461 1.398 . S
C462 C463 1.391 . S
C463 H451 0.950 . S
C463 C459 1.393 . S
C463 C462 1.391 . S
C464 H454 0.950 . S
C464 C465 1.386 . S
C464 C466 1.391 . S
C465 C464 1.386 . S
C465 C469 1.393 . S
C466 H455 0.950 . S
C466 C464 1.391 . S
C466 C467 1.400 . S
C467 C461 1.491 . S
C467 C466 1.400 . S
C467 C468 1.398 . S
C468 H456 0.950 . S
C468 C467 1.398 . S
C468 C469 1.391 . S
C469 H457 0.950 . S
C469 C465 1.393 . S
C469 C468 1.391 . S
H470 C478 0.950 . S
H471 C483 0.950 . S
H472 C480 0.950 . S
H473 C482 0.950 . S
H474 C484 0.950 . S
H475 C486 0.950 . S
H476 C488 0.950 . S
H477 C489 0.950 . S
C478 H470 0.950 . S
C478 C479 1.386 . S
C478 C480 1.391 . S
C479 C478 1.386 . S
C479 C483 1.393 . S
C480 H472 0.950 . S
C480 C478 1.391 . S
C480 C481 1.400 . S
C481 C480 1.400 . S
C481 C482 1.398 . S
C481 C487 1.491 . S
C482 H473 0.950 . S
C482 C481 1.398 . S
C482 C483 1.391 . S
C483 H471 0.950 . S
C483 C479 1.393 . S
C483 C482 1.391 . S
C484 H474 0.950 . S
C484 C485 1.386 . S
C484 C486 1.391 . S
C485 C484 1.386 . S
C485 C489 1.393 . S
C486 H475 0.950 . S
C486 C484 1.391 . S
C486 C487 1.400 . S
C487 C481 1.491 . S
C487 C486 1.400 . S
C487 C488 1.398 . S
C488 H476 0.950 . S
C488 C487 1.398 . S
C488 C489 1.391 . S
C489 H477 0.950 . S
C489 C485 1.393 . S
C489 C488 1.391 . S
H490 C498 0.950 . S
H491 C503 0.950 . S
H492 C500 0.950 . S
H493 C502 0.950 . S
H494 C504 0.950 . S
H495 C506 0.950 . S
H496 C508 0.950 . S
H497 C509 0.950 . S
C498 H490 0.950 . S
C498 C499 1.386 . S
C498 C500 1.391 . S
C499 C498 1.386 . S
C499 C503 1.393 . S
C500 H492 0.950 . S
C500 C498 1.391 . S
C500 C501 1.400 . S
C501 C500 1.400 . S
C501 C502 1.398 . S
C501 C507 1.491 . S
C502 H493 0.950 . S
C502 C501 1.398 . S
C502 C503 1.391 . S
C503 H491 0.950 . S
C503 C499 1.393 . S
C503 C502 1.391 . S
C504 H494 0.950 . S
C504 C505 1.386 . S
C504 C506 1.391 . S
C505 C504 1.386 . S
C505 C509 1.393 . S
C506 H495 0.950 . S
C506 C504 1.391 . S
C506 C507 1.400 . S
C507 C501 1.491 . S
C507 C506 1.400 . S
C507 C508 1.398 . S
C508 H496 0.950 . S
C508 C507 1.398 . S
C508 C509 1.391 . S
C509 H497 0.950 . S
C509 C505 1.393 . S
C509 C508 1.391 . S
H510 C518 0.950 . S
H511 C523 0.950 . S
H512 C520 0.950 . S
H513 C522 0.950 . S
H514 C524 0.950 . S
H515 C526 0.950 . S
H516 C528 0.950 . S
H517 C529 0.950 . S
C518 H510 0.950 . S
C518 C519 1.386 . S
C518 C520 1.391 . S
C519 C518 1.386 . S
C519 C523 1.393 . S
C520 H512 0.950 . S
C520 C518 1.391 . S
C520 C521 1.400 . S
C521 C520 1.400 . S
C521 C522 1.398 . S
C521 C527 1.491 . S
C522 H513 0.950 . S
C522 C521 1.398 . S
C522 C523 1.391 . S
C523 H511 0.950 . S
C523 C519 1.393 . S
C523 C522 1.391 . S
C524 H514 0.950 . S
C524 C525 1.386 1_556 S
C524 C526 1.391 . S
C525 C524 1.386 1_554 S
C525 C529 1.393 . S
C526 H515 0.950 . S
C526 C524 1.391 . S
C526 C527 1.400 . S
C527 C521 1.491 . S
C527 C526 1.400 . S
C527 C528 1.398 . S
C528 H516 0.950 . S
C528 C527 1.398 . S
C528 C529 1.391 1_556 S
C529 H517 0.950 . S
C529 C525 1.393 . S
C529 C528 1.391 1_554 S
H530 C538 0.950 . S
H531 C543 0.950 . S
H532 C540 0.950 . S
H533 C542 0.950 . S
H534 C544 0.950 . S
H535 C546 0.950 . S
H536 C548 0.950 . S
H537 C549 0.950 . S
C538 H530 0.950 . S
C538 C539 1.386 . S
C538 C540 1.391 . S
C539 C538 1.386 . S
C539 C543 1.393 . S
C540 H532 0.950 . S
C540 C538 1.391 . S
C540 C541 1.400 . S
C541 C540 1.400 . S
C541 C542 1.398 . S
C541 C547 1.491 . S
C542 H533 0.950 . S
C542 C541 1.398 . S
C542 C543 1.391 . S
C543 H531 0.950 . S
C543 C539 1.393 . S
C543 C542 1.391 . S
C544 H534 0.950 . S
C544 C545 1.386 . S
C544 C546 1.391 . S
C545 C544 1.386 . S
C545 C549 1.393 . S
C546 H535 0.950 . S
C546 C544 1.391 . S
C546 C547 1.400 . S
C547 C541 1.491 . S
C547 C546 1.400 . S
C547 C548 1.398 . S
C548 H536 0.950 . S
C548 C547 1.398 . S
C548 C549 1.391 . S
C549 H537 0.950 . S
C549 C545 1.393 . S
C549 C548 1.391 . S
H550 C558 0.950 . S
H551 C563 0.950 . S
H552 C560 0.950 . S
H553 C562 0.950 . S
H554 C564 0.950 . S
H555 C566 0.950 . S
H556 C568 0.950 . S
H557 C569 0.950 . S
C558 H550 0.950 . S
C558 C559 1.386 . S
C558 C560 1.391 . S
C559 C558 1.386 . S
C559 C563 1.393 . S
C560 H552 0.950 . S
C560 C558 1.391 . S
C560 C561 1.400 . S
C561 C560 1.400 . S
C561 C562 1.398 . S
C561 C567 1.491 . S
C562 H553 0.950 . S
C562 C561 1.398 . S
C562 C563 1.391 . S
C563 H551 0.950 . S
C563 C559 1.393 . S
C563 C562 1.391 . S
C564 H554 0.950 . S
C564 C565 1.386 . S
C564 C566 1.391 . S
C565 C564 1.386 . S
C565 C569 1.393 . S
C566 H555 0.950 . S
C566 C564 1.391 . S
C566 C567 1.400 . S
C567 C561 1.491 . S
C567 C566 1.400 . S
C567 C568 1.398 . S
C568 H556 0.950 . S
C568 C567 1.398 . S
C568 C569 1.391 . S
C569 H557 0.950 . S
C569 C565 1.393 . S
C569 C568 1.391 . S
H570 C578 0.950 . S
H571 C583 0.950 . S
H572 C580 0.950 . S
H573 C582 0.950 . S
H574 C584 0.950 . S
H575 C586 0.950 . S
H576 C588 0.950 . S
H577 C589 0.950 . S
C578 H570 0.950 . S
C578 C579 1.386 . S
C578 C580 1.391 . S
C579 C578 1.386 . S
C579 C583 1.393 . S
C580 H572 0.950 . S
C580 C578 1.391 . S
C580 C581 1.400 . S
C581 C580 1.400 . S
C581 C582 1.398 . S
C581 C587 1.491 . S
C582 H573 0.950 . S
C582 C581 1.398 . S
C582 C583 1.391 . S
C583 H571 0.950 . S
C583 C579 1.393 . S
C583 C582 1.391 . S
C584 H574 0.950 . S
C584 C585 1.386 . S
C584 C586 1.391 . S
C585 C584 1.386 . S
C585 C589 1.393 . S
C586 H575 0.950 . S
C586 C584 1.391 . S
C586 C587 1.400 . S
C587 C581 1.491 . S
C587 C586 1.400 . S
C587 C588 1.398 . S
C588 H576 0.950 . S
C588 C587 1.398 . S
C588 C589 1.391 . S
C589 H577 0.950 . S
C589 C585 1.393 . S
C589 C588 1.391 . S
H590 C598 0.950 . S
H591 C603 0.950 . S
H592 C600 0.950 . S
H593 C602 0.950 . S
H594 C604 0.950 . S
H595 C606 0.950 . S
H596 C608 0.950 . S
H597 C609 0.950 . S
C598 H590 0.950 . S
C598 C599 1.386 . S
C598 C600 1.391 . S
C599 C598 1.386 . S
C599 C603 1.393 . S
C600 H592 0.950 . S
C600 C598 1.391 . S
C600 C601 1.400 . S
C601 C600 1.400 . S
C601 C602 1.398 . S
C601 C607 1.491 . S
C602 H593 0.950 . S
C602 C601 1.398 . S
C602 C603 1.391 . S
C603 H591 0.950 . S
C603 C599 1.393 . S
C603 C602 1.391 . S
C604 H594 0.950 . S
C604 C605 1.386 . S
C604 C606 1.391 . S
C605 C604 1.386 . S
C605 C609 1.393 . S
C606 H595 0.950 . S
C606 C604 1.391 . S
C606 C607 1.400 . S
C607 C601 1.491 . S
C607 C606 1.400 . S
C607 C608 1.398 . S
C608 H596 0.950 . S
C608 C607 1.398 . S
C608 C609 1.391 . S
C609 H597 0.950 . S
C609 C605 1.393 . S
C609 C608 1.391 . S
H610 C618 0.950 . S
H611 C623 0.950 . S
H612 C620 0.950 . S
H613 C622 0.950 . S
H614 C624 0.950 . S
H615 C626 0.950 . S
H616 C628 0.950 . S
H617 C629 0.950 . S
C618 H610 0.950 . S
C618 C619 1.386 . S
C618 C620 1.391 . S
C619 C618 1.386 . S
C619 C623 1.393 . S
C620 H612 0.950 . S
C620 C618 1.391 . S
C620 C621 1.400 . S
C621 C620 1.400 . S
C621 C622 1.398 . S
C621 C627 1.491 . S
C622 H613 0.950 . S
C622 C621 1.398 . S
C622 C623 1.391 . S
C623 H611 0.950 . S
C623 C619 1.393 . S
C623 C622 1.391 . S
C624 H614 0.950 . S
C624 C625 1.386 . S
C624 C626 1.391 . S
C625 C624 1.386 . S
C625 C629 1.393 . S
C626 H615 0.950 . S
C626 C624 1.391 . S
C626 C627 1.400 . S
C627 C621 1.491 . S
C627 C626 1.400 . S
C627 C628 1.398 . S
C628 H616 0.950 . S
C628 C627 1.398 . S
C628 C629 1.391 . S
C629 H617 0.950 . S
C629 C625 1.393 . S
C629 C628 1.391 . S
H630 C638 0.950 . S
H631 C643 0.950 . S
H632 C640 0.950 . S
H633 C642 0.950 . S
H634 C644 0.950 . S
H635 C646 0.950 . S
H636 C648 0.950 . S
H637 C649 0.950 . S
C638 H630 0.950 . S
C638 C639 1.386 . S
C638 C640 1.391 . S
C639 C638 1.386 . S
C639 C643 1.393 . S
C640 H632 0.950 . S
C640 C638 1.391 . S
C640 C641 1.400 . S
C641 C640 1.400 . S
C641 C642 1.398 . S
C641 C647 1.491 . S
C642 H633 0.950 . S
C642 C641 1.398 . S
C642 C643 1.391 . S
C643 H631 0.950 . S
C643 C639 1.393 . S
C643 C642 1.391 . S
C644 H634 0.950 . S
C644 C645 1.386 . S
C644 C646 1.391 . S
C645 C644 1.386 . S
C645 C649 1.393 . S
C646 H635 0.950 . S
C646 C644 1.391 . S
C646 C647 1.400 . S
C647 C641 1.491 . S
C647 C646 1.400 . S
C647 C648 1.398 . S
C648 H636 0.950 . S
C648 C647 1.398 . S
C648 C649 1.391 . S
C649 H637 0.950 . S
C649 C645 1.393 . S
C649 C648 1.391 . S
H650 C658 0.950 . S
H651 C663 0.950 . S
H652 C660 0.950 . S
H653 C662 0.950 . S
H654 C664 0.950 . S
H655 C666 0.950 . S
H656 C668 0.950 . S
H657 C669 0.950 . S
C658 H650 0.950 . S
C658 C659 1.386 . S
C658 C660 1.391 . S
C659 C658 1.386 . S
C659 C663 1.393 . S
C660 H652 0.950 . S
C660 C658 1.391 . S
C660 C661 1.400 . S
C661 C660 1.400 . S
C661 C662 1.398 . S
C661 C667 1.491 . S
C662 H653 0.950 . S
C662 C661 1.398 . S
C662 C663 1.391 . S
C663 H651 0.950 . S
C663 C659 1.393 . S
C663 C662 1.391 . S
C664 H654 0.950 . S
C664 C665 1.386 . S
C664 C666 1.391 . S
C665 C664 1.386 . S
C665 C669 1.393 1_556 S
C666 H655 0.950 . S
C666 C664 1.391 . S
C666 C667 1.400 1_556 S
C667 C661 1.491 . S
C667 C666 1.400 1_554 S
C667 C668 1.398 . S
C668 H656 0.950 . S
C668 C667 1.398 . S
C668 C669 1.391 . S
C669 H657 0.950 . S
C669 C665 1.393 1_554 S
C669 C668 1.391 . S
H670 C678 0.950 . S
H671 C683 0.950 . S
H672 C680 0.950 . S
H673 C682 0.950 . S
H674 C684 0.950 . S
H675 C686 0.950 . S
H676 C688 0.950 . S
H677 C689 0.950 . S
C678 H670 0.950 . S
C678 C679 1.386 . S
C678 C680 1.391 . S
C679 C678 1.386 . S
C679 C683 1.393 . S
C680 H672 0.950 . S
C680 C678 1.391 . S
C680 C681 1.400 . S
C681 C680 1.400 . S
C681 C682 1.398 . S
C681 C687 1.491 . S
C682 H673 0.950 . S
C682 C681 1.398 . S
C682 C683 1.391 . S
C683 H671 0.950 . S
C683 C679 1.393 . S
C683 C682 1.391 . S
C684 H674 0.950 . S
C684 C685 1.386 . S
C684 C686 1.391 . S
C685 C684 1.386 . S
C685 C689 1.393 . S
C686 H675 0.950 . S
C686 C684 1.391 . S
C686 C687 1.400 . S
C687 C681 1.491 . S
C687 C686 1.400 . S
C687 C688 1.398 . S
C688 H676 0.950 . S
C688 C687 1.398 . S
C688 C689 1.391 . S
C689 H677 0.950 . S
C689 C685 1.393 . S
C689 C688 1.391 . S
C225 C196 1.593 . S
C219 C19 1.503 . S
C239 C40 1.493 . S
C245 C137 1.591 . S
C259 C51 1.502 . S
C265 C140 1.590 . S
C279 C72 1.500 . S
C285 C154 1.596 . S
C305 C179 1.589 . S
C299 C103 1.494 . S
C319 C114 1.492 . S
C325 C182 1.580 . S
C339 C30 1.470 . S
C345 C151 1.582 . S
C359 C61 1.489 . S
C365 C165 1.579 . S
C379 C82 1.490 . S
C385 C168 1.563 . S
C405 C193 1.572 . S
C399 C93 1.446 1_554 S
C425 C207 1.582 . S
C419 C124 1.498 . S
C445 C126 1.575 . S
C439 C9 1.456 . S
C459 C17 1.418 . S
C465 C149 1.506 . S
C479 C38 1.430 . S
C485 C163 1.519 . S
C505 C173 1.516 . S
C499 C54 1.439 . S
C519 C75 1.422 . S
C525 C191 1.503 . S
C545 C205 1.517 . S
C539 C101 1.432 . S
C565 C131 1.515 . S
C559 C117 1.408 . S
C585 C201 1.539 . S
C579 C33 1.452 . S
C599 C59 1.443 . S
C605 C135 1.522 . S
C625 C145 1.535 . S
C619 C80 1.455 . S
C639 C96 1.423 . S
C645 C159 1.538 . S
C659 C122 1.435 . S
C665 C177 1.527 . S
C679 C12 1.457 . S
C685 C187 1.533 . S
