# Generated by pormake.
# Topology zzz, (3,6)-cn, num edge types: 1
# Building blocks:
#     Node 0, Type 0, BuildingBlock: KAKCAD_clean_linker_0, # of connection points: 3
#     Node 1, Type 0, BuildingBlock: KAKCAD_clean_linker_0, # of connection points: 3
#     Node 2, Type 0, BuildingBlock: KAKCAD_clean_linker_0, # of connection points: 3
#     Node 3, Type 0, BuildingBlock: KAKCAD_clean_linker_0, # of connection points: 3
#     Node 4, Type 0, BuildingBlock: KAKCAD_clean_linker_0, # of connection points: 3
#     Node 5, Type 0, BuildingBlock: KAKCAD_clean_linker_0, # of connection points: 3
#     Node 6, Type 0, BuildingBlock: KAKCAD_clean_linker_0, # of connection points: 3
#     Node 7, Type 0, BuildingBlock: KAKCAD_clean_linker_0, # of connection points: 3
#     Node 8, Type 1, BuildingBlock: VOLQOD_clean_sbu_1, # of connection points: 6
#     Node 9, Type 1, BuildingBlock: VOLQOD_clean_sbu_1, # of connection points: 6
#     Node 10, Type 1, BuildingBlock: VOLQOD_clean_sbu_1, # of connection points: 6
#     Node 11, Type 1, BuildingBlock: VOLQOD_clean_sbu_1, # of connection points: 6
#     Edge 12, Type (0, 1), BuildingBlock: XUDNAN_clean_linker_2, # of connection points: 2
#     Edge 13, Type (0, 1), BuildingBlock: XUDNAN_clean_linker_2, # of connection points: 2
#     Edge 14, Type (0, 1), BuildingBlock: XUDNAN_clean_linker_2, # of connection points: 2
#     Edge 15, Type (0, 1), BuildingBlock: XUDNAN_clean_linker_2, # of connection points: 2
#     Edge 16, Type (0, 1), BuildingBlock: XUDNAN_clean_linker_2, # of connection points: 2
#     Edge 17, Type (0, 1), BuildingBlock: XUDNAN_clean_linker_2, # of connection points: 2
#     Edge 18, Type (0, 1), BuildingBlock: XUDNAN_clean_linker_2, # of connection points: 2
#     Edge 19, Type (0, 1), BuildingBlock: XUDNAN_clean_linker_2, # of connection points: 2
#     Edge 20, Type (0, 1), BuildingBlock: XUDNAN_clean_linker_2, # of connection points: 2
#     Edge 21, Type (0, 1), BuildingBlock: XUDNAN_clean_linker_2, # of connection points: 2
#     Edge 22, Type (0, 1), BuildingBlock: XUDNAN_clean_linker_2, # of connection points: 2
#     Edge 23, Type (0, 1), BuildingBlock: XUDNAN_clean_linker_2, # of connection points: 2
#     Edge 24, Type (0, 1), BuildingBlock: XUDNAN_clean_linker_2, # of connection points: 2
#     Edge 25, Type (0, 1), BuildingBlock: XUDNAN_clean_linker_2, # of connection points: 2
#     Edge 26, Type (0, 1), BuildingBlock: XUDNAN_clean_linker_2, # of connection points: 2
#     Edge 27, Type (0, 1), BuildingBlock: XUDNAN_clean_linker_2, # of connection points: 2
#     Edge 28, Type (0, 1), BuildingBlock: XUDNAN_clean_linker_2, # of connection points: 2
#     Edge 29, Type (0, 1), BuildingBlock: XUDNAN_clean_linker_2, # of connection points: 2
#     Edge 30, Type (0, 1), BuildingBlock: XUDNAN_clean_linker_2, # of connection points: 2
#     Edge 31, Type (0, 1), BuildingBlock: XUDNAN_clean_linker_2, # of connection points: 2
#     Edge 32, Type (0, 1), BuildingBlock: XUDNAN_clean_linker_2, # of connection points: 2
#     Edge 33, Type (0, 1), BuildingBlock: XUDNAN_clean_linker_2, # of connection points: 2
#     Edge 34, Type (0, 1), BuildingBlock: XUDNAN_clean_linker_2, # of connection points: 2
#     Edge 35, Type (0, 1), BuildingBlock: XUDNAN_clean_linker_2, # of connection points: 2
# Relax obj value: 0.359
# Max RMSD: 0.257
# Mean RMSD: 0.208
data_MOF--net-zzz--node1-VOLQOD_clean_sbu_1--node2-KAKCAD_clean_linker_0--edge1-XUDNAN_clean_linker_2
_symmetry_space_group_name_H-M    P1
_symmetry_Int_Tables_number       1
_symmetry_cell_setting            triclinic
loop_
_symmetry_equiv_pos_as_xyz
'x, y, z'
_cell_length_a     58.100384
_cell_length_b     57.222465
_cell_length_c     22.807685
_cell_angle_alpha  90.066078
_cell_angle_beta   90.210646
_cell_angle_gamma 92.213406
loop_
_atom_site_label
_atom_site_type_symbol
_atom_site_fract_x
_atom_site_fract_y
_atom_site_fract_z
_atom_type_partial_charge
C0 C 0.83581 0.4374 0.91709 0.0
C1 C 0.85416 0.42568 0.94227 0.0
C2 C 0.81816 0.44551 0.95216 0.0
C3 C 0.81832 0.44176 0.01314 0.0
C4 C 0.83599 0.42864 0.03756 0.0
C5 C 0.85388 0.42093 0.00257 0.0
C6 C 0.80128 0.45315 0.05142 0.0
C7 C 0.77863 0.45634 0.03215 0.0
C8 C 0.76314 0.4688 0.06628 0.0
C9 C 0.77031 0.47785 0.12102 0.0
C10 C 0.79282 0.47454 0.14095 0.0
C11 C 0.80812 0.4623 0.10616 0.0
C12 C 0.80146 0.48467 0.19659 0.0
C13 C 0.80854 0.50835 0.19921 0.0
C14 C 0.80676 0.46984 0.24315 0.0
C15 C 0.82007 0.47825 0.29029 0.0
C16 C 0.82875 0.50157 0.29111 0.0
C17 C 0.73956 0.47218 0.04377 0.0
C18 C 0.73632 0.48024 0.98626 0.0
C19 C 0.72024 0.46567 0.07762 0.0
C20 C 0.69812 0.46599 0.0532 0.0
C21 C 0.69496 0.47317 0.99484 0.0
C22 C 0.71423 0.48087 0.96215 0.0
C23 C 0.82211 0.51675 0.24607 0.0
H24 H 0.83583 0.44158 0.87076 0.0
H25 H 0.80511 0.4558 0.93171 0.0
H26 H 0.8364 0.42488 0.08406 0.0
H27 H 0.86785 0.41183 0.02284 0.0
H28 H 0.77288 0.44896 0.99058 0.0
H29 H 0.82572 0.46079 0.12119 0.0
H30 H 0.7586 0.48765 0.14753 0.0
H31 H 0.80492 0.51994 0.16308 0.0
H32 H 0.80158 0.45145 0.24155 0.0
H33 H 0.8244 0.4662 0.32484 0.0
H34 H 0.75097 0.4855 0.95943 0.0
H35 H 0.72231 0.45933 0.12199 0.0
H36 H 0.82862 0.53473 0.24487 0.0
H37 H 0.71233 0.48632 0.91698 0.0
H38 H 0.68352 0.46012 0.07946 0.0
C39 C 0.06024 0.83645 0.11266 0.0
C40 C 0.07431 0.83201 0.06461 0.0
C41 C 0.05027 0.81804 0.14474 0.0
C42 C 0.05465 0.79462 0.13069 0.0
C43 C 0.06976 0.79031 0.084 0.0
C44 C 0.07921 0.80884 0.05068 0.0
C45 C 0.04186 0.77514 0.16175 0.0
C46 C 0.03462 0.7546 0.13198 0.0
C47 C 0.01923 0.73815 0.15814 0.0
C48 C 0.01027 0.74278 0.21409 0.0
C49 C 0.01803 0.76281 0.24515 0.0
C50 C 0.03444 0.77822 0.2196 0.0
C51 C 0.00694 0.77048 0.29985 0.0
C52 C 0.98374 0.77645 0.29822 0.0
C53 C 0.02074 0.77808 0.34738 0.0
C54 C 0.0124 0.79381 0.38831 0.0
C55 C 0.9901 0.80226 0.38224 0.0
C56 C 0.01179 0.71695 0.12454 0.0
C57 C 0.98832 0.71127 0.11514 0.0
C58 C 0.02834 0.70338 0.09739 0.0
C59 C 0.02165 0.68503 0.05989 0.0
C60 C 0.99822 0.67998 0.04816 0.0
C61 C 0.9816 0.69304 0.07693 0.0
C62 C 0.97539 0.79226 0.33909 0.0
H63 H 0.05579 0.85418 0.12326 0.0
H64 H 0.0382 0.82239 0.17868 0.0
H65 H 0.0739 0.77264 0.0722 0.0
H66 H 0.08994 0.8051 0.01333 0.0
H67 H 0.03985 0.75187 0.08704 0.0
H68 H 0.04024 0.79363 0.24391 0.0
H69 H 0.99742 0.73093 0.23335 0.0
H70 H 0.97279 0.77093 0.26182 0.0
H71 H 0.03872 0.77375 0.3494 0.0
H72 H 0.02423 0.80113 0.42087 0.0
H73 H 0.97522 0.72155 0.13528 0.0
H74 H 0.04655 0.70736 0.10409 0.0
H75 H 0.95799 0.79813 0.33396 0.0
H76 H 0.96341 0.68944 0.06898 0.0
H77 H 0.03488 0.67547 0.03801 0.0
C78 C 0.69576 0.06183 0.98133 0.0
C79 C 0.68065 0.07538 0.01344 0.0
C80 C 0.71356 0.05056 0.00957 0.0
C81 C 0.71693 0.05297 0.07052 0.0
C82 C 0.70267 0.06799 0.10171 0.0
C83 C 0.68446 0.07877 0.07359 0.0
C84 C 0.73368 0.03819 0.10189 0.0
C85 C 0.7538 0.031 0.0742 0.0
C86 C 0.76809 0.01476 0.10081 0.0
C87 C 0.76274 0.00628 0.15719 0.0
C88 C 0.74289 0.01363 0.18572 0.0
C89 C 0.72852 0.02937 0.15796 0.0
C90 C 0.73534 0.00376 0.24244 0.0
C91 C 0.7198 0.9844 0.24312 0.0
C92 C 0.73952 0.01647 0.29424 0.0
C93 C 0.72741 0.01061 0.34543 0.0
C94 C 0.71068 0.99216 0.34525 0.0
C95 C 0.78743 0.00568 0.06659 0.0
C96 C 0.78291 0.99571 0.01132 0.0
C97 C 0.81036 0.00891 0.08548 0.0
C98 C 0.82853 0.00373 0.04776 0.0
C99 C 0.82395 0.99516 0.99081 0.0
C100 C 0.80093 0.99036 0.97406 0.0
C101 C 0.70756 0.97864 0.29409 0.0
H102 H 0.69283 0.05867 0.93498 0.0
H103 H 0.72375 0.0389 0.98387 0.0
H104 H 0.70503 0.07084 0.14831 0.0
H105 H 0.6729 0.08912 0.09912 0.0
H106 H 0.75831 0.0377 0.03117 0.0
H107 H 0.71267 0.03381 0.17948 0.0
H108 H 0.77342 0.99347 0.17768 0.0
H109 H 0.71605 0.97466 0.20322 0.0
H110 H 0.75108 0.03178 0.29412 0.0
H111 H 0.73003 0.02149 0.38394 0.0
H112 H 0.76534 0.99279 0.99612 0.0
H113 H 0.81421 0.01662 0.12797 0.0
H114 H 0.69493 0.96421 0.2928 0.0
H115 H 0.7968 0.98324 0.9311 0.0
H116 H 0.84607 0.00768 0.06192 0.0
C117 C 0.54352 0.71241 0.39409 0.0
C118 C 0.55476 0.69114 0.40012 0.0
C119 C 0.54535 0.72524 0.34197 0.0
C120 C 0.5586 0.71706 0.29556 0.0
C121 C 0.57242 0.69781 0.30489 0.0
C122 C 0.57055 0.68494 0.35677 0.0
C123 C 0.55235 0.72309 0.23476 0.0
C124 C 0.55696 0.74527 0.21021 0.0
C125 C 0.55012 0.7499 0.15198 0.0
C126 C 0.53836 0.73208 0.1196 0.0
C127 C 0.53344 0.70997 0.14416 0.0
C128 C 0.5404 0.70585 0.20189 0.0
C129 C 0.52113 0.69103 0.11016 0.0
C130 C 0.50356 0.69607 0.06984 0.0
C131 C 0.52677 0.66753 0.11841 0.0
C132 C 0.51498 0.6496 0.08808 0.0
C133 C 0.49769 0.65474 0.04776 0.0
C134 C 0.55469 0.77322 0.12435 0.0
C135 C 0.5521 0.79405 0.15617 0.0
C136 C 0.56024 0.77479 0.06439 0.0
C137 C 0.56179 0.79643 0.03624 0.0
C138 C 0.55832 0.81709 0.06751 0.0
C139 C 0.55403 0.8158 0.12804 0.0
C140 C 0.49214 0.67807 0.03837 0.0
H141 H 0.5316 0.71793 0.4273 0.0
H142 H 0.53444 0.73997 0.3356 0.0
H143 H 0.58265 0.69112 0.26941 0.0
H144 H 0.57948 0.66872 0.35969 0.0
H145 H 0.56609 0.75861 0.23595 0.0
H146 H 0.53604 0.68919 0.22242 0.0
H147 H 0.53291 0.73547 0.07508 0.0
H148 H 0.49847 0.71385 0.06287 0.0
H149 H 0.54057 0.66292 0.14769 0.0
H150 H 0.51983 0.6317 0.09485 0.0
H151 H 0.54768 0.79353 0.20224 0.0
H152 H 0.56305 0.75922 0.03877 0.0
H153 H 0.47893 0.68232 0.00693 0.0
H154 H 0.55128 0.83154 0.15307 0.0
H155 H 0.56554 0.797 0.98975 0.0
C156 C 0.1908 0.59448 0.3713 0.0
C157 C 0.17801 0.61281 0.34831 0.0
C158 C 0.20867 0.58517 0.33938 0.0
C159 C 0.21407 0.59368 0.28329 0.0
C160 C 0.20236 0.61291 0.26153 0.0
C161 C 0.18461 0.62251 0.29393 0.0
C162 C 0.22931 0.58021 0.24508 0.0
C163 C 0.2498 0.57144 0.26707 0.0
C164 C 0.26184 0.55486 0.23524 0.0
C165 C 0.25346 0.54734 0.18014 0.0
C166 C 0.23324 0.5565 0.1567 0.0
C167 C 0.22141 0.57298 0.18963 0.0
C168 C 0.22289 0.54761 0.10079 0.0
C169 C 0.21148 0.56294 0.06337 0.0
C170 C 0.22205 0.52355 0.08753 0.0
C171 C 0.20894 0.51494 0.03997 0.0
C172 C 0.19628 0.53021 0.0055 0.0
C173 C 0.2818 0.54394 0.2631 0.0
C174 C 0.29974 0.55799 0.28746 0.0
C175 C 0.28165 0.51963 0.27166 0.0
C176 C 0.29855 0.50969 0.30652 0.0
C177 C 0.31606 0.52385 0.33254 0.0
C178 C 0.31683 0.54802 0.32144 0.0
C179 C 0.19813 0.55431 0.01666 0.0
H180 H 0.18608 0.58604 0.4122 0.0
H181 H 0.21711 0.57012 0.35691 0.0
H182 H 0.20633 0.6199 0.21845 0.0
H183 H 0.17544 0.63685 0.27525 0.0
H184 H 0.25571 0.57658 0.31054 0.0
H185 H 0.20498 0.5789 0.17404 0.0
H186 H 0.2626 0.53431 0.15593 0.0
H187 H 0.21219 0.58161 0.07146 0.0
H188 H 0.23045 0.51122 0.11564 0.0
H189 H 0.20771 0.49626 0.03202 0.0
H190 H 0.30014 0.57679 0.28158 0.0
H191 H 0.26785 0.50848 0.25382 0.0
H192 H 0.18877 0.56643 0.99 0.0
H193 H 0.33005 0.55935 0.34129 0.0
H194 H 0.29766 0.491 0.31417 0.0
C195 C 0.02843 0.19968 0.34005 0.0
C196 C 0.04122 0.18057 0.35819 0.0
C197 C 0.03854 0.21734 0.30556 0.0
C198 C 0.06153 0.21608 0.28769 0.0
C199 C 0.07457 0.19743 0.30677 0.0
C200 C 0.0646 0.17997 0.34227 0.0
C201 C 0.07085 0.23281 0.2439 0.0
C202 C 0.06949 0.25684 0.25275 0.0
C203 C 0.07479 0.27278 0.20739 0.0
C204 C 0.08179 0.26417 0.15245 0.0
C205 C 0.08346 0.23987 0.14347 0.0
C206 C 0.07828 0.2245 0.18997 0.0
C207 C 0.08661 0.22944 0.08446 0.0
C208 C 0.07218 0.23569 0.03803 0.0
C209 C 0.0995 0.20925 0.07865 0.0
C210 C 0.09532 0.19376 0.03207 0.0
C211 C 0.07843 0.19838 0.9898 0.0
C212 C 0.07203 0.29815 0.21851 0.0
C213 C 0.05311 0.30539 0.2512 0.0
C214 C 0.08912 0.31492 0.20239 0.0
C215 C 0.08809 0.33808 0.22226 0.0
C216 C 0.07 0.34487 0.25893 0.0
C217 C 0.05223 0.32828 0.27164 0.0
C218 C 0.06825 0.22035 0.99088 0.0
H219 H 0.01033 0.20062 0.35053 0.0
H220 H 0.02807 0.23141 0.29045 0.0
H221 H 0.09236 0.19619 0.29341 0.0
H222 H 0.07518 0.16589 0.35661 0.0
H223 H 0.06394 0.26306 0.29514 0.0
H224 H 0.07813 0.20575 0.18281 0.0
H225 H 0.08512 0.27617 0.11648 0.0
H226 H 0.0621 0.25118 0.04095 0.0
H227 H 0.11106 0.2042 0.11341 0.0
H228 H 0.1037 0.17719 0.03274 0.0
H229 H 0.03935 0.29302 0.26325 0.0
H230 H 0.10385 0.30991 0.17697 0.0
H231 H 0.05576 0.22488 0.95784 0.0
H232 H 0.03811 0.33247 0.3001 0.0
H233 H 0.10183 0.35045 0.21028 0.0
C234 C 0.34792 0.92716 0.35408 0.0
C235 C 0.37088 0.93511 0.34604 0.0
C236 C 0.3299 0.93904 0.32777 0.0
C237 C 0.33461 0.95924 0.29396 0.0
C238 C 0.35763 0.96738 0.28784 0.0
C239 C 0.37549 0.95536 0.31298 0.0
C240 C 0.31601 0.97204 0.26439 0.0
C241 C 0.29477 0.97553 0.29154 0.0
C242 C 0.27832 0.98963 0.26501 0.0
C243 C 0.28333 1.00041 0.21064 0.0
C244 C 0.30448 0.9968 0.18305 0.0
C245 C 0.32025 0.98218 0.20946 0.0
C246 C 0.31128 0.00795 0.12685 0.0
C247 C 0.29968 0.00182 0.07473 0.0
C248 C 0.33264 0.02021 0.12368 0.0
C249 C 0.34355 0.02374 0.06988 0.0
C250 C 0.33322 0.01526 0.01777 0.0
C251 C 0.25662 0.99396 0.29662 0.0
C252 C 0.24327 0.97514 0.31957 0.0
C253 C 0.25025 0.0169 0.30868 0.0
C254 C 0.2315 0.02092 0.34526 0.0
C255 C 0.21855 0.00208 0.36961 0.0
C256 C 0.22431 0.97915 0.35528 0.0
C257 C 0.31052 0.00559 0.02052 0.0
H258 H 0.344 0.91173 0.38018 0.0
H259 H 0.31238 0.93228 0.33334 0.0
H260 H 0.36196 0.98332 0.26408 0.0
H261 H 0.39298 0.9623 0.30776 0.0
H262 H 0.2914 0.96817 0.33457 0.0
H263 H 0.33619 0.97886 0.18686 0.0
H264 H 0.27101 0.01165 0.19033 0.0
H265 H 0.2832 0.99232 0.07609 0.0
H266 H 0.3419 0.02512 0.16345 0.0
H267 H 0.36096 0.03117 0.07021 0.0
H268 H 0.24783 0.95729 0.31086 0.0
H269 H 0.26036 0.03171 0.29191 0.0
H270 H 0.30173 0.99944 0.98116 0.0
H271 H 0.21474 0.96431 0.3737 0.0
H272 H 0.22734 0.03877 0.35533 0.0
C273 C 0.45859 0.27403 0.99326 0.0
C274 C 0.47337 0.28672 0.95487 0.0
C275 C 0.46762 0.25976 0.03702 0.0
C276 C 0.49152 0.25787 0.04283 0.0
C277 C 0.50605 0.2685 0.0008 0.0
C278 C 0.49713 0.28281 0.95754 0.0
C279 C 0.50165 0.2502 0.09895 0.0
C280 C 0.49697 0.22793 0.12328 0.0
C281 C 0.50667 0.22208 0.1779 0.0
C282 C 0.52013 0.23902 0.20874 0.0
C283 C 0.52416 0.26147 0.18569 0.0
C284 C 0.51524 0.26669 0.13044 0.0
C285 C 0.53519 0.28048 0.22141 0.0
C286 C 0.52791 0.28406 0.27924 0.0
C287 C 0.55061 0.29697 0.19568 0.0
C288 C 0.55732 0.31742 0.22571 0.0
C289 C 0.54873 0.32179 0.28202 0.0
C290 C 0.50212 0.19894 0.20565 0.0
C291 C 0.47947 0.19044 0.21544 0.0
C292 C 0.52048 0.18677 0.22958 0.0
C293 C 0.51629 0.16734 0.26552 0.0
C294 C 0.49361 0.15972 0.27872 0.0
C295 C 0.47524 0.17106 0.25192 0.0
C296 C 0.53457 0.30451 0.30919 0.0
H297 H 0.44017 0.27616 0.99174 0.0
H298 H 0.45607 0.25183 0.06916 0.0
H299 H 0.52457 0.26736 0.00456 0.0
H300 H 0.50922 0.29231 0.92953 0.0
H301 H 0.48615 0.21522 0.09968 0.0
H302 H 0.51771 0.28425 0.11311 0.0
H303 H 0.5269 0.23493 0.25175 0.0
H304 H 0.5158 0.27183 0.29996 0.0
H305 H 0.55671 0.29449 0.15136 0.0
H306 H 0.56857 0.3302 0.20401 0.0
H307 H 0.46501 0.19959 0.19776 0.0
H308 H 0.53811 0.19294 0.22253 0.0
H309 H 0.52737 0.30741 0.35221 0.0
H310 H 0.45758 0.16544 0.26075 0.0
H311 H 0.53083 0.15917 0.28572 0.0
O312 O 0.07985 0.00905 0.67668 0.0
Zn313 Zn 0.05352 0.00656 0.73507 0.0
O314 O 0.02445 0.99839 0.69378 0.0
Zn315 Zn 0.00283 0.02262 0.70653 0.0
Zn316 Zn 0.03005 0.99589 0.60956 0.0
Zn317 Zn 0.0102 0.96919 0.72303 0.0
O318 O 0.97259 0.01023 0.7363 0.0
O319 O 0.9793 0.97389 0.76371 0.0
O320 O 0.052 0.03774 0.77909 0.0
O321 O 0.0155 0.0461 0.76367 0.0
O322 O 0.99754 0.04096 0.63417 0.0
O323 O 0.01818 0.0238 0.56624 0.0
O324 O 0.01497 0.96628 0.57668 0.0
O325 O 0.06103 0.98047 0.79192 0.0
O326 O 0.00405 0.94642 0.65636 0.0
O327 O 0.032 0.95441 0.77835 0.0
C328 C 0.08168 0.00329 0.62287 0.0
C329 C 0.96609 0.99114 0.76062 0.0
C330 C 0.00521 0.04005 0.58219 0.0
C331 C 0.03503 0.05091 0.78699 0.0
C332 C 0.00611 0.94801 0.60089 0.0
C333 C 0.05112 0.96061 0.8023 0.0
O334 O 0.06417 0.99628 0.59293 0.0
O335 O 0.50297 0.04409 0.64163 0.0
Zn336 Zn 0.50951 0.02535 0.7146 0.0
O337 O 0.52384 0.99573 0.69294 0.0
Zn338 Zn 0.50403 0.96918 0.71778 0.0
Zn339 Zn 0.52853 0.9944 0.60786 0.0
Zn340 Zn 0.55361 0.99336 0.73169 0.0
O341 O 0.51972 0.94837 0.77639 0.0
O342 O 0.55382 0.96656 0.78876 0.0
O343 O 0.47879 0.01938 0.75618 0.0
O344 O 0.47529 0.98059 0.75461 0.0
O345 O 0.49295 0.95007 0.64888 0.0
O346 O 0.50994 0.96739 0.57244 0.0
O347 O 0.56194 0.99072 0.58726 0.0
O348 O 0.53097 0.04543 0.7666 0.0
O349 O 0.57955 0.98981 0.67364 0.0
O350 O 0.56064 0.02228 0.77792 0.0
C351 C 0.50759 0.04166 0.5874 0.0
C352 C 0.53938 0.95005 0.80131 0.0
C353 C 0.49659 0.95146 0.59401 0.0
C354 C 0.46738 1.00041 0.76721 0.0
C355 C 0.58022 0.98917 0.61782 0.0
C356 C 0.55068 0.04126 0.78803 0.0
O357 O 0.51788 0.02386 0.56872 0.0
O358 O 0.44617 0.48577 0.64483 0.0
Zn359 Zn 0.47217 0.48297 0.70403 0.0
O360 O 0.50223 0.48586 0.66412 0.0
Zn361 Zn 0.5175 0.45659 0.6724 0.0
Zn362 Zn 0.49799 0.49283 0.58157 0.0
Zn363 Zn 0.52223 0.51097 0.697 0.0
O364 O 0.54495 0.46043 0.72546 0.0
O365 O 0.55027 0.49871 0.73864 0.0
O366 O 0.46734 0.45116 0.743 0.0
O367 O 0.49691 0.43183 0.70923 0.0
O368 O 0.52774 0.44487 0.59445 0.0
O369 O 0.51517 0.4706 0.53009 0.0
O370 O 0.50804 0.52607 0.56456 0.0
O371 O 0.46969 0.50874 0.76496 0.0
O372 O 0.53103 0.53657 0.63872 0.0
O373 O 0.50384 0.5275 0.75641 0.0
C374 C 0.44595 0.48844 0.5893 0.0
C375 C 0.55624 0.47781 0.74764 0.0
C376 C 0.52584 0.45212 0.54196 0.0
C377 C 0.47819 0.4323 0.73792 0.0
C378 C 0.52176 0.54087 0.58944 0.0
C379 C 0.48391 0.52534 0.77919 0.0
O380 O 0.46454 0.49066 0.56014 0.0
O381 O 0.97535 0.54139 0.56531 0.0
Zn382 Zn 0.00437 0.54614 0.61419 0.0
O383 O 0.0177 0.51609 0.63535 0.0
Zn384 Zn 0.01728 0.51223 0.72069 0.0
Zn385 Zn 1.00006 0.49058 0.59712 0.0
Zn386 Zn 0.04947 0.51507 0.60903 0.0
O387 O 0.04903 0.50705 0.75362 0.0
O388 O 0.07129 0.50825 0.67474 0.0
O389 O 0.99613 0.56422 0.68708 0.0
O390 O 0.00624 0.54122 0.76045 0.0
O391 O 0.99593 0.48502 0.7428 0.0
O392 O 0.9859 0.46886 0.65734 0.0
O393 O 0.01925 0.47242 0.54039 0.0
O394 O 0.02746 0.56654 0.56892 0.0
O395 O 0.05362 0.4905 0.54685 0.0
O396 O 0.05925 0.54615 0.57578 0.0
C397 C 0.96549 0.5231 0.54342 0.0
C398 C 0.06873 0.50583 0.72978 0.0
C399 C 0.98508 0.46918 0.71314 0.0
C400 C 0.99822 0.56024 0.74179 0.0
C401 C 0.04022 0.47473 0.52455 0.0
C402 C 0.04896 0.56444 0.56063 0.0
O403 O 0.97352 0.50297 0.55158 0.0
H404 H 0.17463 0.98244 0.37179 0.0
H405 H 0.22096 0.03074 0.46533 0.0
H406 H 0.19121 0.03601 0.54096 0.0
H407 H 0.12261 0.01375 0.40038 0.0
H408 H 0.10479 0.98744 0.40796 0.0
H409 H 0.12974 0.98762 0.36128 0.0
H410 H 0.14529 0.95249 0.41882 0.0
H411 H 0.12046 0.95231 0.4659 0.0
H412 H 0.14899 0.9547 0.49718 0.0
H413 H 0.15708 0.03445 0.60892 0.0
H414 H 0.1198 0.02899 0.65978 0.0
H415 H 0.09503 0.983 0.51974 0.0
C416 C 0.17844 0.99417 0.40815 0.0
C417 C 0.20007 0.00621 0.41278 0.0
C418 C 0.20441 0.02154 0.4607 0.0
C419 C 0.18768 0.02452 0.50402 0.0
C420 C 0.16661 0.01223 0.49846 0.0
C421 C 0.16181 0.99759 0.45136 0.0
C422 C 0.13764 0.98678 0.45526 0.0
C423 C 0.12282 0.99436 0.40313 0.0
C424 C 0.13814 0.95998 0.45956 0.0
C425 C 0.12967 0.99745 0.51216 0.0
C426 C 0.1467 0.01193 0.53664 0.0
C427 C 0.14356 0.02329 0.58995 0.0
C428 C 0.12235 0.01999 0.61865 0.0
C429 C 0.10443 0.00564 0.59371 0.0
C430 C 0.10829 0.99421 0.53979 0.0
H431 H 0.51597 0.1186 0.29552 0.0
H432 H 0.46234 0.16068 0.36787 0.0
H433 H 0.45855 0.13373 0.45194 0.0
H434 H 0.49126 0.06134 0.34426 0.0
H435 H 0.51918 0.05017 0.36022 0.0
H436 H 0.51607 0.07149 0.30291 0.0
H437 H 0.54722 0.09837 0.35298 0.0
H438 H 0.55028 0.07727 0.41065 0.0
H439 H 0.54352 0.10693 0.42837 0.0
H440 H 0.46363 0.10495 0.53342 0.0
H441 H 0.475 0.07436 0.60285 0.0
H442 H 0.52472 0.05029 0.47693 0.0
C443 C 0.50319 0.12194 0.32862 0.0
C444 C 0.48935 0.14171 0.32487 0.0
C445 C 0.47284 0.14545 0.36915 0.0
C446 C 0.47067 0.13033 0.41733 0.0
C447 C 0.48497 0.11137 0.42041 0.0
C448 C 0.50069 0.10692 0.37685 0.0
C449 C 0.51456 0.08582 0.39183 0.0
C450 C 0.50999 0.06603 0.34715 0.0
C451 C 0.54042 0.09251 0.39623 0.0
C452 C 0.50461 0.07947 0.45131 0.0
C453 C 0.48756 0.09444 0.46695 0.0
C454 C 0.47672 0.0929 0.52129 0.0
C455 C 0.48339 0.07554 0.56056 0.0
C456 C 0.50065 0.05983 0.54525 0.0
C457 C 0.51126 0.06182 0.48965 0.0
H458 H 0.363 0.53055 0.3347 0.0
H459 H 0.30626 0.49509 0.42534 0.0
H460 H 0.33337 0.48108 0.50027 0.0
H461 H 0.40507 0.4859 0.36208 0.0
H462 H 0.42857 0.5071 0.37117 0.0
H463 H 0.40473 0.51344 0.32381 0.0
H464 H 0.39827 0.5515 0.38225 0.0
H465 H 0.42199 0.54522 0.42995 0.0
H466 H 0.39396 0.54993 0.46041 0.0
H467 H 0.36644 0.47381 0.56974 0.0
H468 H 0.40338 0.47096 0.6234 0.0
H469 H 0.43842 0.50964 0.48424 0.0
C470 C 0.35635 0.51967 0.37009 0.0
C471 C 0.33259 0.51384 0.37432 0.0
C472 C 0.32447 0.49951 0.42105 0.0
C473 C 0.3397 0.4916 0.46392 0.0
C474 C 0.36302 0.49793 0.45894 0.0
C475 C 0.37134 0.51137 0.41273 0.0
C476 C 0.39711 0.51585 0.41758 0.0
C477 C 0.4096 0.50491 0.36557 0.0
C478 C 0.40318 0.54219 0.42288 0.0
C479 C 0.40195 0.50316 0.47419 0.0
C480 C 0.38207 0.49304 0.49766 0.0
C481 C 0.38217 0.48138 0.55136 0.0
C482 C 0.40318 0.47993 0.58163 0.0
C483 C 0.42378 0.48985 0.5577 0.0
C484 C 0.42303 0.50153 0.50321 0.0
H485 H 0.03314 0.3715 0.28972 0.0
H486 H 0.10788 0.37105 0.29767 0.0
H487 H 0.10838 0.40665 0.35829 0.0
H488 H 0.02695 0.43535 0.29427 0.0
H489 H 0.00218 0.43286 0.34152 0.0
H490 H 0.00784 0.40982 0.29023 0.0
H491 H 0.00721 0.37986 0.37538 0.0
H492 H 0.00173 0.40279 0.42692 0.0
H493 H 0.02617 0.38475 0.4373 0.0
H494 H 0.1007 0.44004 0.42646 0.0
H495 H 0.08541 0.46811 0.49728 0.0
H496 H 0.01567 0.44467 0.45139 0.0
C497 C 0.0497 0.37889 0.3036 0.0
C498 C 0.07048 0.36827 0.28832 0.0
C499 C 0.09169 0.37894 0.30727 0.0
C500 C 0.09217 0.39915 0.34227 0.0
C501 C 0.07132 0.40852 0.35831 0.0
C502 C 0.05048 0.39875 0.33947 0.0
C503 C 0.03046 0.41081 0.36728 0.0
C504 C 0.01601 0.42293 0.32053 0.0
C505 C 0.01553 0.39352 0.40389 0.0
C506 C 0.04331 0.4285 0.40589 0.0
C507 C 0.06686 0.42717 0.39932 0.0
C508 C 0.08228 0.44136 0.43159 0.0
C509 C 0.07342 0.45723 0.4718 0.0
C510 C 0.04933 0.45859 0.48008 0.0
C511 C 0.03416 0.44406 0.44624 0.0
H512 H 0.86779 0.97814 0.00477 0.0
H513 H 0.8226 0.00928 0.87708 0.0
H514 H 0.8531 0.00812 0.80305 0.0
H515 H 0.91887 0.00947 0.96113 0.0
H516 H 0.93769 0.98551 0.97165 0.0
H517 H 0.91177 0.98705 0.01426 0.0
H518 H 0.89871 0.94565 0.97841 0.0
H519 H 0.92459 0.94402 0.93547 0.0
H520 H 0.8968 0.93977 0.90083 0.0
H521 H 0.88867 0.00703 0.74533 0.0
H522 H 0.92802 0.00548 0.70584 0.0
H523 H 0.95104 0.97387 0.86744 0.0
C524 C 0.86431 0.98454 0.96109 0.0
C525 C 0.84261 0.99348 0.94661 0.0
C526 C 0.83881 0.00182 0.88899 0.0
C527 C 0.85608 0.00134 0.84658 0.0
C528 C 0.87717 0.9924 0.86211 0.0
C529 C 0.88143 0.98406 0.91777 0.0
C530 C 0.90606 0.97623 0.92296 0.0
C531 C 0.91938 0.99042 0.9703 0.0
C532 C 0.90656 0.94985 0.93514 0.0
C533 C 0.91502 0.98203 0.86196 0.0
C534 C 0.89792 0.99127 0.82775 0.0
C535 C 0.90213 0.99949 0.77125 0.0
C536 C 0.92451 0.99856 0.74925 0.0
C537 C 0.94236 0.98927 0.78331 0.0
C538 C 0.9375 0.98052 0.84007 0.0
H539 H 0.53351 0.82769 0.97001 0.0
H540 H 0.58298 0.85746 0.09462 0.0
H541 H 0.58376 0.89486 0.03966 0.0
H542 H 0.55651 0.8552 0.84106 0.0
H543 H 0.52873 0.86007 0.80886 0.0
H544 H 0.53225 0.8358 0.85784 0.0
H545 H 0.49951 0.85051 0.9236 0.0
H546 H 0.49584 0.8748 0.87473 0.0
H547 H 0.50135 0.88001 0.95156 0.0
H548 H 0.58039 0.92824 0.96787 0.0
H549 H 0.57076 0.95628 0.89007 0.0
H550 H 0.52173 0.9052 0.81578 0.0
C551 C 0.54454 0.8421 0.98557 0.0
C552 C 0.55835 0.83975 0.03617 0.0
C553 C 0.57229 0.85902 0.05592 0.0
C554 C 0.57288 0.88023 0.0249 0.0
C555 C 0.55918 0.88191 0.97481 0.0
C556 C 0.54505 0.86344 0.95573 0.0
C557 C 0.53157 0.8699 0.90152 0.0
C558 C 0.53764 0.85432 0.84923 0.0
C559 C 0.50553 0.86874 0.9136 0.0
C560 C 0.54045 0.89485 0.89265 0.0
C561 C 0.55652 0.90139 0.93505 0.0
C562 C 0.56769 0.92337 0.93477 0.0
C563 C 0.56217 0.93913 0.89026 0.0
C564 C 0.54541 0.93296 0.84705 0.0
C565 C 0.53443 0.91051 0.84853 0.0
H566 H 0.67336 0.50517 0.92572 0.0
H567 H 0.66523 0.43525 0.99809 0.0
H568 H 0.6287 0.42922 0.94358 0.0
H569 H 0.61207 0.51818 0.92907 0.0
H570 H 0.61334 0.53435 0.86131 0.0
H571 H 0.63841 0.53353 0.90787 0.0
H572 H 0.66202 0.51796 0.82098 0.0
H573 H 0.63699 0.51855 0.7743 0.0
H574 H 0.65198 0.49178 0.78327 0.0
H575 H 0.59503 0.42952 0.87586 0.0
H576 H 0.56382 0.43737 0.80614 0.0
H577 H 0.59243 0.50783 0.78005 0.0
C578 C 0.66374 0.48869 0.93042 0.0
C579 C 0.67203 0.47068 0.96628 0.0
C580 C 0.659 0.44937 0.97151 0.0
C581 C 0.63833 0.44573 0.94043 0.0
C582 C 0.63081 0.46368 0.9048 0.0
C583 C 0.64289 0.48487 0.90022 0.0
C584 C 0.63092 0.5012 0.8587 0.0
C585 C 0.62323 0.52311 0.89119 0.0
C586 C 0.6464 0.50775 0.8062 0.0
C587 C 0.61043 0.48572 0.83999 0.0
C588 C 0.61085 0.46411 0.86688 0.0
C589 C 0.59435 0.44645 0.85499 0.0
C590 C 0.57677 0.45106 0.81501 0.0
C591 C 0.57564 0.47324 0.78774 0.0
C592 C 0.59273 0.49078 0.80055 0.0
H593 H 0.01497 0.63615 0.03261 0.0
H594 H 0.9669 0.68453 0.95954 0.0
H595 H 0.95919 0.65754 0.87651 0.0
H596 H 0.03991 0.62 0.90083 0.0
H597 H 0.04295 0.58969 0.91967 0.0
H598 H 0.04275 0.61149 0.97653 0.0
H599 H 0.00881 0.58898 0.02739 0.0
H600 H 0.009 0.567 0.97074 0.0
H601 H 0.9829 0.58183 0.98634 0.0
H602 H 0.96057 0.62777 0.79535 0.0
H603 H 0.96874 0.59596 0.72586 0.0
H604 H 0.01481 0.56627 0.85352 0.0
C605 C 0.00254 0.64087 0.9996 0.0
C606 C 0.99146 0.6624 0.00263 0.0
C607 C 0.97532 0.66797 0.95859 0.0
C608 C 0.97092 0.65281 0.9111 0.0
C609 C 0.98256 0.63199 0.9087 0.0
C610 C 0.99779 0.62583 0.95224 0.0
C611 C 0.0088 0.60294 0.93802 0.0
C612 C 0.03515 0.60624 0.93348 0.0
C613 C 0.00196 0.58407 0.98332 0.0
C614 C 0.99796 0.59756 0.87881 0.0
C615 C 0.98284 0.61449 0.86268 0.0
C616 C 0.97204 0.61417 0.80797 0.0
C617 C 0.97686 0.5961 0.7687 0.0
C618 C 0.9922 0.57851 0.7845 0.0
C619 C 0.00264 0.5792 0.8406 0.0
H620 H 0.04972 0.13364 0.35119 0.0
H621 H 0.00758 0.18312 0.44236 0.0
H622 H 0.98896 0.15068 0.49745 0.0
H623 H 0.00778 0.08413 0.34671 0.0
H624 H 0.02931 0.06304 0.36162 0.0
H625 H 0.03703 0.08959 0.32273 0.0
H626 H 0.06895 0.09959 0.39952 0.0
H627 H 0.06155 0.07296 0.43795 0.0
H628 H 0.06153 0.10056 0.47614 0.0
H629 H 0.97716 0.11376 0.54821 0.0
H630 H 0.9762 0.07589 0.59931 0.0
H631 H 0.02757 0.05068 0.47928 0.0
C632 C 0.03659 0.13777 0.38269 0.0
C633 C 0.03002 0.16104 0.39182 0.0
C634 C 0.01259 0.16546 0.43333 0.0
C635 C 0.0019 0.14712 0.46495 0.0
C636 C 0.00885 0.12446 0.45483 0.0
C637 C 0.02598 0.11975 0.4152 0.0
C638 C 0.03201 0.09426 0.41707 0.0
C639 C 0.02618 0.08204 0.35854 0.0
C640 C 0.05751 0.0917 0.43369 0.0
C641 C 0.0161 0.08553 0.46535 0.0
C642 C 0.00251 0.10312 0.48552 0.0
C643 C 0.98753 0.09977 0.53247 0.0
C644 C 0.98712 0.07816 0.56119 0.0
C645 C 0.00183 0.06029 0.54334 0.0
C646 C 0.01587 0.06382 0.49345 0.0
H647 H 0.37598 0.92643 0.46237 0.0
H648 H 0.4101 0.92065 0.29498 0.0
H649 H 0.44676 0.91366 0.34548 0.0
H650 H 0.41463 0.95996 0.52542 0.0
H651 H 0.41379 0.94797 0.59848 0.0
H652 H 0.38917 0.94427 0.55148 0.0
H653 H 0.38977 0.89932 0.56385 0.0
H654 H 0.4144 0.90289 0.61184 0.0
H655 H 0.41574 0.88427 0.54823 0.0
H656 H 0.48025 0.92009 0.40988 0.0
H657 H 0.50749 0.93629 0.48413 0.0
H658 H 0.45258 0.93592 0.61209 0.0
C659 C 0.39091 0.92225 0.4367 0.0
C660 C 0.39032 0.92383 0.37507 0.0
C661 C 0.41029 0.91929 0.34235 0.0
C662 C 0.43115 0.91523 0.37071 0.0
C663 C 0.43167 0.91544 0.4318 0.0
C664 C 0.41193 0.91826 0.4646 0.0
C665 C 0.41773 0.92184 0.52888 0.0
C666 C 0.40829 0.94487 0.55234 0.0
C667 C 0.40889 0.90082 0.56535 0.0
C668 C 0.4438 0.92285 0.52616 0.0
C669 C 0.45152 0.91852 0.47003 0.0
C670 C 0.47456 0.92255 0.45451 0.0
C671 C 0.48991 0.93187 0.49679 0.0
C672 C 0.48217 0.93689 0.55394 0.0
C673 C 0.45908 0.9314 0.56928 0.0
H674 H 0.55667 0.33179 0.39829 0.0
H675 H 0.54724 0.36456 0.22885 0.0
H676 H 0.54618 0.40309 0.27683 0.0
H677 H 0.5169 0.36308 0.47055 0.0
H678 H 0.53227 0.36562 0.5392 0.0
H679 H 0.53716 0.34143 0.49115 0.0
H680 H 0.58087 0.35236 0.4898 0.0
H681 H 0.57613 0.37658 0.53834 0.0
H682 H 0.5905 0.38153 0.4693 0.0
H683 H 0.53931 0.43678 0.34389 0.0
H684 H 0.52863 0.46298 0.4247 0.0
H685 H 0.5423 0.40816 0.55017 0.0
C686 C 0.55495 0.34714 0.37114 0.0
C687 C 0.5522 0.34514 0.30979 0.0
C688 C 0.54988 0.36566 0.27581 0.0
C689 C 0.54914 0.38765 0.30271 0.0
C690 C 0.55098 0.38888 0.36354 0.0
C691 C 0.55412 0.36919 0.3973 0.0
C692 C 0.55318 0.37479 0.46205 0.0
C693 C 0.53372 0.36038 0.49247 0.0
C694 C 0.57657 0.3711 0.49161 0.0
C695 C 0.54796 0.40046 0.45943 0.0
C696 C 0.54707 0.40838 0.4023 0.0
C697 C 0.54046 0.43093 0.38888 0.0
C698 C 0.53432 0.44566 0.43505 0.0
C699 C 0.53475 0.4377 0.49382 0.0
C700 C 0.54214 0.41496 0.50587 0.0
H701 H 0.16876 0.614 0.46621 0.0
H702 H 0.13726 0.6244 0.29595 0.0
H703 H 0.09912 0.62384 0.34188 0.0
H704 H 0.134 0.57017 0.50172 0.0
H705 H 0.13198 0.57586 0.57927 0.0
H706 H 0.15674 0.58648 0.53948 0.0
H707 H 0.1497 0.62875 0.57409 0.0
H708 H 0.12485 0.61817 0.61468 0.0
H709 H 0.12208 0.64119 0.56154 0.0
H710 H 0.06442 0.61206 0.39977 0.0
H711 H 0.03753 0.58837 0.46175 0.0
H712 H 0.09148 0.58093 0.59095 0.0
C713 C 0.15392 0.61691 0.43876 0.0
C714 C 0.15617 0.61915 0.37737 0.0
C715 C 0.13625 0.62309 0.34321 0.0
C716 C 0.11436 0.62272 0.36902 0.0
C717 C 0.1126 0.61842 0.42902 0.0
C718 C 0.13196 0.61576 0.46359 0.0
C719 C 0.12561 0.60628 0.52355 0.0
C720 C 0.13778 0.58334 0.53667 0.0
C721 C 0.13087 0.6247 0.57128 0.0
C722 C 0.09994 0.60213 0.51559 0.0
C723 C 0.09253 0.61028 0.46192 0.0
C724 C 0.0699 0.60616 0.44248 0.0
C725 C 0.05474 0.5927 0.47782 0.0
C726 C 0.06259 0.58302 0.53084 0.0
C727 C 0.08514 0.58846 0.55072 0.0
H728 H 0.06114 0.83697 0.9519 0.0
H729 H 0.09997 0.87165 0.09129 0.0
H730 H 0.10316 0.90782 0.03169 0.0
H731 H 0.08894 0.86886 0.82374 0.0
H732 H 0.06162 0.87004 0.78635 0.0
H733 H 0.06739 0.84569 0.83357 0.0
H734 H 0.03042 0.85366 0.89238 0.0
H735 H 0.02474 0.87819 0.84619 0.0
H736 H 0.02703 0.88214 0.92444 0.0
H737 H 0.09731 0.94156 0.96256 0.0
H738 H 0.08192 0.97001 0.89201 0.0
H739 H 0.0447 0.91332 0.80205 0.0
C740 C 0.07125 0.85187 0.96846 0.0
C741 C 0.08089 0.85151 0.02516 0.0
C742 C 0.09298 0.8716 0.04719 0.0
C743 C 0.09484 0.89214 0.01369 0.0
C744 C 0.08433 0.89227 0.95861 0.0
C745 C 0.07283 0.87257 0.93609 0.0
C746 C 0.06013 0.87806 0.8801 0.0
C747 C 0.07012 0.86488 0.82784 0.0
C748 C 0.03405 0.8727 0.88621 0.0
C749 C 0.0655 0.90404 0.87577 0.0
C750 C 0.07993 0.91189 0.92051 0.0
C751 C 0.08626 0.93555 0.9269 0.0
C752 C 0.07741 0.95158 0.88679 0.0
C753 C 0.06203 0.94386 0.84192 0.0
C754 C 0.05635 0.91975 0.83611 0.0
H755 H 0.63783 0.05942 0.03992 0.0
H756 H 0.67571 0.10518 0.92088 0.0
H757 H 0.64038 0.10966 0.86151 0.0
H758 H 0.61258 0.02736 0.9363 0.0
H759 H 0.58536 0.02158 0.97223 0.0
H760 H 0.61063 0.0283 0.01517 0.0
H761 H 0.59021 0.06262 0.06459 0.0
H762 H 0.56471 0.05594 0.02147 0.0
H763 H 0.57794 0.08495 0.01984 0.0
H764 H 0.60413 0.1025 0.80482 0.0
H765 H 0.57249 0.08138 0.75153 0.0
H766 H 0.55913 0.03806 0.90369 0.0
C767 C 0.63823 0.07137 0.00309 0.0
C768 C 0.65909 0.08255 0.98563 0.0
C769 C 0.65961 0.097 0.93545 0.0
C770 C 0.63962 0.09968 0.90176 0.0
C771 C 0.61937 0.0876 0.91868 0.0
C772 C 0.61858 0.07368 0.96835 0.0
C773 C 0.59655 0.05871 0.97064 0.0
C774 C 0.6016 0.03246 0.97369 0.0
C775 C 0.58146 0.066 0.0222 0.0
C776 C 0.58578 0.06511 0.91263 0.0
C777 C 0.59867 0.08253 0.88439 0.0
C778 C 0.59354 0.08937 0.8272 0.0
C779 C 0.57549 0.0774 0.79729 0.0
C780 C 0.5632 0.05863 0.82443 0.0
C781 C 0.56787 0.05298 0.8832 0.0
H782 H 0.50218 0.64825 0.93115 0.0
H783 H 0.4709 0.61776 0.08653 0.0
H784 H 0.45814 0.58273 0.02913 0.0
H785 H 0.46091 0.62221 0.8195 0.0
H786 H 0.48397 0.61736 0.7688 0.0
H787 H 0.48595 0.64181 0.81871 0.0
H788 H 0.52498 0.62751 0.85747 0.0
H789 H 0.52306 0.60303 0.80813 0.0
H790 H 0.5265 0.59819 0.88569 0.0
H791 H 0.45287 0.54927 0.95706 0.0
H792 H 0.45835 0.51946 0.87965 0.0
H793 H 0.49557 0.57141 0.77487 0.0
C794 C 0.49184 0.63454 0.95226 0.0
C795 C 0.48693 0.63572 0.01249 0.0
C796 C 0.47434 0.61716 0.03992 0.0
C797 C 0.46702 0.59731 0.00767 0.0
C798 C 0.47266 0.59634 0.94834 0.0
C799 C 0.48485 0.6145 0.92099 0.0
C800 C 0.49174 0.60792 0.85951 0.0
C801 C 0.47993 0.62324 0.81394 0.0
C802 C 0.51812 0.60923 0.85234 0.0
C803 C 0.48227 0.58297 0.8572 0.0
C804 C 0.47075 0.57673 0.90807 0.0
C805 C 0.4616 0.55406 0.91675 0.0
C806 C 0.46475 0.53727 0.87272 0.0
C807 C 0.47743 0.54324 0.82177 0.0
C808 C 0.48582 0.56645 0.81361 0.0
H809 H 0.89797 0.44047 0.96642 0.0
H810 H 0.85624 0.40312 0.83663 0.0
H811 H 0.88961 0.40309 0.76951 0.0
H812 H 0.92211 0.47887 0.87318 0.0
H813 H 0.95025 0.4813 0.90671 0.0
H814 H 0.92567 0.47273 0.95015 0.0
H815 H 0.94548 0.43488 0.98152 0.0
H816 H 0.97032 0.44345 0.93829 0.0
H817 H 0.95588 0.41539 0.92631 0.0
H818 H 0.92451 0.41344 0.71093 0.0
H819 H 0.95693 0.43492 0.66372 0.0
H820 H 0.97568 0.46692 0.83073 0.0
C821 C 0.89626 0.4313 0.92496 0.0
C822 C 0.87481 0.42136 0.90689 0.0
C823 C 0.87272 0.4105 0.85132 0.0
C824 C 0.89159 0.41032 0.81317 0.0
C825 C 0.91236 0.42111 0.83137 0.0
C826 C 0.91482 0.43133 0.88616 0.0
C827 C 0.93748 0.44517 0.89155 0.0
C828 C 0.93363 0.47103 0.90621 0.0
C829 C 0.95322 0.43405 0.93712 0.0
C830 C 0.94676 0.44233 0.83018 0.0
C831 C 0.93238 0.4278 0.79668 0.0
C832 C 0.93616 0.42443 0.73704 0.0
C833 C 0.95462 0.4368 0.71051 0.0
C834 C 0.96888 0.45266 0.74346 0.0
C835 C 0.9653 0.45472 0.80444 0.0
H836 H 0.10097 0.16205 0.93601 0.0
H837 H 0.03316 0.1899 0.96182 0.0
H838 H 0.0155 0.15553 0.91287 0.0
H839 H 0.0886 0.13456 0.79279 0.0
H840 H 0.10527 0.10939 0.80866 0.0
H841 H 0.11308 0.13726 0.84148 0.0
H842 H 0.11073 0.11828 0.94441 0.0
H843 H 0.1026 0.09043 0.91199 0.0
H844 H 0.08447 0.10303 0.96664 0.0
H845 H 0.00453 0.11744 0.86897 0.0
H846 H 0.00087 0.07869 0.82309 0.0
H847 H 0.07537 0.07391 0.82527 0.0
C848 C 0.08244 0.16107 0.93074 0.0
C849 C 0.06858 0.17904 0.95234 0.0
C850 C 0.04435 0.17691 0.94443 0.0
C851 C 0.03405 0.15722 0.91725 0.0
C852 C 0.0481 0.13967 0.89807 0.0
C853 C 0.07177 0.14142 0.90366 0.0
C854 C 0.08268 0.11958 0.88015 0.0
C855 C 0.09833 0.12556 0.82764 0.0
C856 C 0.0959 0.1071 0.92871 0.0
C857 C 0.06136 0.10527 0.86123 0.0
C858 C 0.04167 0.11731 0.87225 0.0
C859 C 0.01981 0.10789 0.85959 0.0
C860 C 0.01795 0.08577 0.8336 0.0
C861 C 0.03783 0.07317 0.82022 0.0
C862 C 0.05984 0.083 0.83507 0.0
H863 H 0.36841 0.04507 0.97666 0.0
H864 H 0.33161 0.97918 0.93857 0.0
H865 H 0.35975 0.9709 0.86227 0.0
H866 H 0.3894 0.05726 0.82365 0.0
H867 H 0.41689 0.0687 0.84994 0.0
H868 H 0.3914 0.0719 0.89363 0.0
H869 H 0.41135 0.0518 0.98073 0.0
H870 H 0.43675 0.04825 0.93725 0.0
H871 H 0.42254 0.02311 0.97071 0.0
H872 H 0.39475 0.96616 0.8029 0.0
H873 H 0.43326 0.96672 0.75834 0.0
H874 H 0.44869 0.03515 0.83447 0.0
C875 C 0.36593 0.02913 0.95146 0.0
C876 C 0.3475 0.01291 0.96384 0.0
C877 C 0.34506 0.99227 0.92947 0.0
C878 C 0.36115 0.98725 0.88613 0.0
C879 C 0.37963 0.00304 0.87717 0.0
C880 C 0.38199 0.02373 0.9082 0.0
C881 C 0.40462 0.03659 0.89371 0.0
C882 C 0.40031 0.06 0.86341 0.0
C883 C 0.4197 0.04013 0.94888 0.0
C884 C 0.41498 0.0194 0.85155 0.0
C885 C 0.40011 1.00029 0.84232 0.0
C886 C 0.40637 0.98122 0.80886 0.0
C887 C 0.42839 0.98164 0.78412 0.0
C888 C 0.44399 0.001 0.79277 0.0
C889 C 0.43703 0.02026 0.8264 0.0
H890 H 0.48896 0.30171 0.84647 0.0
H891 H 0.43949 0.31719 0.98204 0.0
H892 H 0.4311 0.35397 0.93208 0.0
H893 H 0.51378 0.35666 0.84248 0.0
H894 H 0.51922 0.3574 0.76473 0.0
H895 H 0.51746 0.32986 0.80253 0.0
H896 H 0.48532 0.3148 0.73134 0.0
H897 H 0.48713 0.3423 0.69282 0.0
H898 H 0.4599 0.3315 0.72162 0.0
H899 H 0.43254 0.39203 0.87645 0.0
H900 H 0.44368 0.4275 0.8199 0.0
H901 H 0.49389 0.3881 0.72476 0.0
C902 C 0.47599 0.31254 0.86516 0.0
C903 C 0.46487 0.30629 0.91831 0.0
C904 C 0.44795 0.3211 0.9408 0.0
C905 C 0.44314 0.34222 0.91287 0.0
C906 C 0.45532 0.34837 0.86231 0.0
C907 C 0.47127 0.33383 0.83839 0.0
C908 C 0.48406 0.34562 0.78805 0.0
C909 C 0.51016 0.3475 0.80022 0.0
C910 C 0.47878 0.33279 0.73002 0.0
C911 C 0.47351 0.36939 0.78901 0.0
C912 C 0.45662 0.37052 0.83128 0.0
C913 C 0.44548 0.39121 0.84258 0.0
C914 C 0.45196 0.41131 0.8103 0.0
C915 C 0.46967 0.41065 0.76786 0.0
C916 C 0.48023 0.38923 0.75669 0.0
H917 H 0.15048 0.53758 -3e-05 0.0
H918 H 0.20513 0.50265 0.91051 0.0
H919 H 0.17755 0.48985 0.83234 0.0
H920 H 0.10466 0.49353 0.96529 0.0
H921 H 0.08318 0.51521 0.95707 0.0
H922 H 0.10698 0.52032 0.00691 0.0
H923 H 0.11763 0.55928 0.95384 0.0
H924 H 0.09389 0.55428 0.90399 0.0
H925 H 0.12264 0.55907 0.87587 0.0
H926 H 0.14479 0.48485 0.75923 0.0
H927 H 0.10899 0.48563 0.7002 0.0
H928 H 0.07534 0.52152 0.84179 0.0
C929 C 0.15653 0.52706 0.96408 0.0
C930 C 0.17984 0.52116 0.96064 0.0
C931 C 0.18727 0.50725 0.9136 0.0
C932 C 0.17175 0.49995 0.86921 0.0
C933 C 0.14887 0.50636 0.87347 0.0
C934 C 0.14124 0.51932 0.92021 0.0
C935 C 0.11595 0.52431 0.91417 0.0
C936 C 0.10186 0.51264 0.96381 0.0
C937 C 0.11233 0.5508 0.9118 0.0
C938 C 0.11063 0.51273 0.8558 0.0
C939 C 0.12983 0.50249 0.83291 0.0
C940 C 0.12954 0.49239 0.77724 0.0
C941 C 0.10919 0.49297 0.74402 0.0
C942 C 0.08935 0.50331 0.76689 0.0
C943 C 0.09007 0.51296 0.82383 0.0
H944 H 0.99846 0.81511 0.49748 0.0
H945 H 0.96988 0.83983 0.33382 0.0
H946 H 0.96723 0.87918 0.37603 0.0
H947 H 0.96458 0.85396 0.59623 0.0
H948 H 0.98862 0.85829 0.64576 0.0
H949 H 0.9848 0.83115 0.60606 0.0
H950 H 0.02611 0.83667 0.56473 0.0
H951 H 0.02996 0.86393 0.60352 0.0
H952 H 0.03398 0.86305 0.52523 0.0
H953 H 0.97442 0.91697 0.42818 0.0
H954 H 0.9865 0.95007 0.49247 0.0
H955 H 0.00857 0.90128 0.62473 0.0
C956 C 0.99101 0.82865 0.4712 0.0
C957 C 0.98415 0.82425 0.4125 0.0
C958 C 0.97474 0.84254 0.37928 0.0
C959 C 0.97333 0.86506 0.40273 0.0
C960 C 0.98107 0.86902 0.45983 0.0
C961 C 0.98925 0.85125 0.4942 0.0
C962 C 0.99784 0.86058 0.55293 0.0
C963 C 0.98307 0.85039 0.60322 0.0
C964 C 0.02349 0.85577 0.56209 0.0
C965 C 0.99414 0.88648 0.54505 0.0
C966 C 0.98442 0.89094 0.49101 0.0
C967 C 0.98146 0.91368 0.47125 0.0
C968 C 0.98851 0.93235 0.50779 0.0
C969 C 0.99814 0.92816 0.56369 0.0
C970 C 0.00074 0.90492 0.58271 0.0
H971 H 0.66385 0.98615 0.34185 0.0
H972 H 0.72162 0.99152 0.46268 0.0
H973 H 0.69457 0.98915 0.54639 0.0
H974 H 0.62752 0.02198 0.42137 0.0
H975 H 0.60139 0.00535 0.4041 0.0
H976 H 0.62533 0.00534 0.35427 0.0
H977 H 0.62538 0.96009 0.35872 0.0
H978 H 0.60132 0.95993 0.40837 0.0
H979 H 0.62733 0.94577 0.42884 0.0
H980 H 0.66081 0.98808 0.61666 0.0
H981 H 0.62341 0.98924 0.66755 0.0
H982 H 0.58802 0.98518 0.49958 0.0
C983 C 0.67086 0.98624 0.38591 0.0
C984 C 0.69486 0.98872 0.39583 0.0
C985 C 0.7033 0.98956 0.45417 0.0
C986 C 0.68808 0.98815 0.50189 0.0
C987 C 0.66448 0.986 0.49048 0.0
C988 C 0.65594 0.98504 0.43386 0.0
C989 C 0.62986 0.98409 0.43314 0.0
C990 C 0.62049 0.00546 0.40135 0.0
C991 C 0.62042 0.9611 0.40565 0.0
C992 C 0.625 0.98492 0.49822 0.0
C993 C 0.64515 0.98582 0.53066 0.0
C994 C 0.64493 0.98724 0.59167 0.0
C995 C 0.62357 0.98789 0.62019 0.0
C996 C 0.60269 0.98729 0.58769 0.0
C997 C 0.60358 0.98561 0.52588 0.0
H998 H 0.57989 0.65952 0.46383 0.0
H999 H 0.51018 0.68088 0.42942 0.0
H1000 H 0.4948 0.64622 0.48121 0.0
H1001 H 0.57002 0.60088 0.43779 0.0
H1002 H 0.58797 0.59005 0.49556 0.0
H1003 H 0.59424 0.61848 0.46456 0.0
H1004 H 0.5922 0.63748 0.5674 0.0
H1005 H 0.58634 0.60901 0.59904 0.0
H1006 H 0.56691 0.63229 0.61181 0.0
H1007 H 0.48665 0.6065 0.51831 0.0
H1008 H 0.48605 0.56592 0.55447 0.0
H1009 H 0.56046 0.5698 0.57199 0.0
C1010 C 0.56141 0.65725 0.46882 0.0
C1011 C 0.5463 0.67318 0.44294 0.0
C1012 C 0.5222 0.66939 0.44992 0.0
C1013 C 0.51323 0.64956 0.47885 0.0
C1014 C 0.52852 0.63374 0.50147 0.0
C1015 C 0.5521 0.63755 0.49829 0.0
C1016 C 0.56455 0.61696 0.52372 0.0
C1017 C 0.58011 0.60595 0.47765 0.0
C1018 C 0.57831 0.62438 0.57878 0.0
C1019 C 0.54424 0.60064 0.53914 0.0
C1020 C 0.52366 0.61078 0.52565 0.0
C1021 C 0.50258 0.59857 0.53048 0.0
C1022 C 0.50244 0.57548 0.55045 0.0
C1023 C 0.52318 0.56489 0.56616 0.0
C1024 C 0.54437 0.57768 0.56095 0.0
H1025 H 0.86419 0.47628 0.33372 0.0
H1026 H 0.83418 0.54442 0.34648 0.0
H1027 H 0.86592 0.55766 0.41268 0.0
H1028 H 0.8831 0.47316 0.48571 0.0
H1029 H 0.90893 0.45842 0.46686 0.0
H1030 H 0.88347 0.45446 0.42208 0.0
H1031 H 0.90692 0.46779 0.33074 0.0
H1032 H 0.93237 0.47203 0.3753 0.0
H1033 H 0.92225 0.49579 0.33158 0.0
H1034 H 0.90227 0.56372 0.47465 0.0
H1035 H 0.93874 0.56146 0.53039 0.0
H1036 H 0.94349 0.48882 0.4781 0.0
C1037 C 0.86387 0.49383 0.35139 0.0
C1038 C 0.84653 0.50925 0.33501 0.0
C1039 C 0.84733 0.53231 0.35798 0.0
C1040 C 0.86525 0.53996 0.39579 0.0
C1041 C 0.88217 0.52432 0.41039 0.0
C1042 C 0.88147 0.50168 0.38922 0.0
C1043 C 0.90183 0.48832 0.41059 0.0
C1044 C 0.89385 0.46736 0.44858 0.0
C1045 C 0.91672 0.48054 0.35897 0.0
C1046 C 0.91424 0.50701 0.44687 0.0
C1047 C 0.90273 0.5277 0.44622 0.0
C1048 C 0.91132 0.54755 0.47573 0.0
C1049 C 0.9321 0.54613 0.50709 0.0
C1050 C 0.94398 0.52495 0.50884 0.0
C1051 C 0.93482 0.50524 0.47806 0.0
loop_
_geom_bond_atom_site_label_1
_geom_bond_atom_site_label_2
_geom_bond_distance
_geom_bond_site_symmetry_2
_ccdc_geom_bond_type
C0 C1 1.386 . S
C0 C2 1.397 . S
C0 H24 0.931 . S
C1 C0 1.386 . S
C1 C5 1.397 . S
C2 C0 1.397 . S
C2 C3 1.384 . S
C2 H25 0.930 . S
C3 C2 1.384 . S
C3 C4 1.377 . S
C3 C6 1.481 . S
C4 C3 1.377 . S
C4 C5 1.389 . S
C4 H26 0.929 . S
C5 C1 1.397 . S
C5 C4 1.389 . S
C5 H27 0.931 . S
C6 C3 1.481 . S
C6 C7 1.387 . S
C6 C11 1.390 1_556 S
C7 C6 1.387 . S
C7 C8 1.401 1_556 S
C7 H28 0.930 . S
C8 C7 1.401 1_554 S
C8 C9 1.376 . S
C8 C17 1.511 . S
C9 C8 1.376 . S
C9 C10 1.392 . S
C9 H30 0.931 . S
C10 C9 1.392 . S
C10 C11 1.361 . S
C10 C12 1.500 . S
C11 C6 1.390 1_554 S
C11 C10 1.361 . S
C11 H29 0.931 . S
C12 C10 1.500 . S
C12 C13 1.371 . S
C12 C14 1.365 . S
C13 C12 1.371 . S
C13 C23 1.386 . S
C13 H31 0.931 . S
C14 C12 1.365 . S
C14 C15 1.409 . S
C14 H32 0.929 . S
C15 C14 1.409 . S
C15 C16 1.380 . S
C15 H33 0.930 . S
C16 C15 1.380 . S
C16 C23 1.357 . S
C17 C8 1.511 . S
C17 C18 1.341 1_554 S
C17 C19 1.371 . S
C18 C17 1.341 1_556 S
C18 C22 1.394 . S
C18 H34 0.930 . S
C19 C17 1.371 . S
C19 C20 1.392 . S
C19 H35 0.931 . S
C20 C19 1.392 . S
C20 C21 1.331 1_554 S
C20 H38 0.932 . S
C21 C20 1.331 1_556 S
C21 C22 1.336 . S
C22 C18 1.394 . S
C22 C21 1.336 . S
C22 H37 0.929 . S
C23 C13 1.386 . S
C23 C16 1.357 . S
C23 H36 0.928 . S
H24 C0 0.931 . S
H25 C2 0.930 . S
H26 C4 0.929 . S
H27 C5 0.931 . S
H28 C7 0.930 . S
H29 C11 0.931 . S
H30 C9 0.931 . S
H31 C13 0.931 . S
H32 C14 0.929 . S
H33 C15 0.930 . S
H34 C18 0.930 . S
H35 C19 0.931 . S
H36 C23 0.928 . S
H37 C22 0.929 . S
H38 C20 0.932 . S
C39 C40 1.386 . S
C39 C41 1.397 . S
C39 H63 0.931 . S
C40 C39 1.386 . S
C40 C44 1.397 1_655 S
C41 C39 1.397 . S
C41 C42 1.384 1_556 S
C41 H64 0.930 . S
C42 C41 1.384 1_554 S
C42 C43 1.377 1_655 S
C42 C45 1.481 . S
C43 C42 1.377 1_455 S
C43 C44 1.389 1_554 S
C43 H65 0.929 . S
C44 C40 1.397 1_455 S
C44 C43 1.389 1_556 S
C44 H66 0.931 . S
C45 C42 1.481 . S
C45 C46 1.387 . S
C45 C50 1.390 . S
C46 C45 1.387 . S
C46 C47 1.401 . S
C46 H67 0.930 . S
C47 C46 1.401 . S
C47 C48 1.376 . S
C47 C56 1.511 . S
C48 C47 1.376 . S
C48 C49 1.392 . S
C48 H69 0.931 . S
C49 C48 1.392 . S
C49 C50 1.361 . S
C49 C51 1.500 . S
C50 C45 1.390 . S
C50 C49 1.361 . S
C50 H68 0.931 . S
C51 C49 1.500 . S
C51 C52 1.371 . S
C51 C53 1.365 1_655 S
C52 C51 1.371 . S
C52 C62 1.386 . S
C52 H70 0.931 . S
C53 C51 1.365 1_455 S
C53 C54 1.409 . S
C53 H71 0.929 . S
C54 C53 1.409 . S
C54 C55 1.380 1_455 S
C54 H72 0.930 . S
C55 C54 1.380 1_655 S
C55 C62 1.357 . S
C56 C47 1.511 . S
C56 C57 1.341 . S
C56 C58 1.371 . S
C57 C56 1.341 . S
C57 C61 1.394 . S
C57 H73 0.930 1_554 S
C58 C56 1.371 . S
C58 C59 1.392 . S
C58 H74 0.930 . S
C59 C58 1.392 . S
C59 C60 1.331 . S
C59 H77 0.933 1_655 S
C60 C59 1.331 . S
C60 C61 1.336 . S
C61 C57 1.394 . S
C61 C60 1.336 . S
C61 H76 0.929 1_554 S
C62 C52 1.386 . S
C62 C55 1.357 . S
C62 H75 0.928 . S
H63 C39 0.931 . S
H64 C41 0.930 . S
H65 C43 0.929 . S
H66 C44 0.931 . S
H67 C46 0.930 . S
H68 C50 0.931 . S
H69 C48 0.931 . S
H70 C52 0.931 . S
H71 C53 0.929 . S
H72 C54 0.930 . S
H73 C57 0.930 1_556 S
H74 C58 0.930 . S
H75 C62 0.928 . S
H76 C61 0.929 1_556 S
H77 C59 0.933 1_455 S
C78 C79 1.388 . S
C78 C80 1.397 . S
C78 H102 0.931 . S
C79 C78 1.388 . S
C79 C83 1.396 1_565 S
C80 C78 1.397 . S
C80 C81 1.385 . S
C80 H103 0.930 . S
C81 C80 1.385 . S
C81 C82 1.376 1_565 S
C81 C84 1.480 1_556 S
C82 C81 1.376 1_545 S
C82 C83 1.389 . S
C82 H104 0.929 1_556 S
C83 C79 1.396 1_545 S
C83 C82 1.389 . S
C83 H105 0.931 . S
C84 C81 1.480 1_554 S
C84 C85 1.390 . S
C84 C89 1.390 . S
C85 C84 1.390 . S
C85 C86 1.401 . S
C85 H106 0.930 1_554 S
C86 C85 1.401 . S
C86 C87 1.376 . S
C86 C95 1.514 . S
C87 C86 1.376 . S
C87 C88 1.390 . S
C87 H108 0.936 . S
C88 C87 1.390 . S
C88 C89 1.361 . S
C88 C90 1.499 1_565 S
C89 C84 1.390 . S
C89 C88 1.361 . S
C89 H107 0.931 . S
C90 C88 1.499 1_545 S
C90 C91 1.360 1_545 S
C90 C92 1.377 . S
C91 C90 1.360 1_565 S
C91 C101 1.386 . S
C91 H109 0.931 . S
C92 C90 1.377 . S
C92 C93 1.409 . S
C92 H110 0.929 . S
C93 C92 1.409 . S
C93 C94 1.382 . S
C93 H111 0.930 . S
C94 C93 1.382 . S
C94 C101 1.356 1_545 S
C95 C86 1.514 . S
C95 C96 1.341 1_554 S
C95 C97 1.371 1_565 S
C96 C95 1.341 1_556 S
C96 C100 1.394 . S
C96 H112 0.930 . S
C97 C95 1.371 1_545 S
C97 C98 1.392 . S
C97 H113 0.931 . S
C98 C97 1.392 . S
C98 C99 1.317 1_545 S
C98 H116 0.932 . S
C99 C98 1.317 1_565 S
C99 C100 1.349 1_554 S
C100 C96 1.394 . S
C100 C99 1.349 1_556 S
C100 H115 0.929 . S
C101 C91 1.386 . S
C101 C94 1.356 1_565 S
C101 H114 0.928 . S
H102 C78 0.931 . S
H103 C80 0.930 . S
H104 C82 0.929 1_554 S
H105 C83 0.931 . S
H106 C85 0.930 1_556 S
H107 C89 0.931 . S
H108 C87 0.936 . S
H109 C91 0.931 . S
H110 C92 0.929 . S
H111 C93 0.930 . S
H112 C96 0.930 . S
H113 C97 0.931 . S
H114 C101 0.928 . S
H115 C100 0.929 . S
H116 C98 0.932 . S
C117 C118 1.386 . S
C117 C119 1.397 . S
C117 H141 0.931 . S
C118 C117 1.386 . S
C118 C122 1.397 . S
C119 C117 1.397 . S
C119 C120 1.384 . S
C119 H142 0.930 . S
C120 C119 1.384 . S
C120 C121 1.377 . S
C120 C123 1.481 . S
C121 C120 1.377 . S
C121 C122 1.389 . S
C121 H143 0.929 . S
C122 C118 1.397 . S
C122 C121 1.389 . S
C122 H144 0.931 . S
C123 C120 1.481 . S
C123 C124 1.387 . S
C123 C128 1.390 . S
C124 C123 1.387 . S
C124 C125 1.401 . S
C124 H145 0.930 . S
C125 C124 1.401 . S
C125 C126 1.376 1_554 S
C125 C134 1.511 . S
C126 C125 1.376 1_556 S
C126 C127 1.392 1_556 S
C126 H147 0.931 . S
C127 C126 1.392 1_554 S
C127 C128 1.361 . S
C127 C129 1.500 1_554 S
C128 C123 1.390 . S
C128 C127 1.361 . S
C128 H146 0.931 . S
C129 C127 1.500 1_556 S
C129 C130 1.371 . S
C129 C131 1.365 . S
C130 C129 1.371 . S
C130 C140 1.386 . S
C130 H148 0.931 . S
C131 C129 1.365 . S
C131 C132 1.409 . S
C131 H149 0.929 1_556 S
C132 C131 1.409 . S
C132 C133 1.380 . S
C132 H150 0.930 . S
C133 C132 1.380 . S
C133 C140 1.357 . S
C134 C125 1.511 . S
C134 C135 1.341 . S
C134 C136 1.371 1_554 S
C135 C134 1.341 . S
C135 C139 1.394 . S
C135 H151 0.930 . S
C136 C134 1.371 1_556 S
C136 C137 1.392 . S
C136 H152 0.931 . S
C137 C136 1.392 . S
C137 C138 1.331 . S
C137 H155 0.932 . S
C138 C137 1.331 . S
C138 C139 1.336 1_556 S
C139 C135 1.394 . S
C139 C138 1.336 1_554 S
C139 H154 0.929 . S
C140 C130 1.386 . S
C140 C133 1.357 . S
C140 H153 0.928 . S
H141 C117 0.931 . S
H142 C119 0.930 . S
H143 C121 0.929 . S
H144 C122 0.931 . S
H145 C124 0.930 . S
H146 C128 0.931 . S
H147 C126 0.931 . S
H148 C130 0.931 . S
H149 C131 0.929 1_554 S
H150 C132 0.930 . S
H151 C135 0.930 . S
H152 C136 0.931 . S
H153 C140 0.928 . S
H154 C139 0.929 . S
H155 C137 0.932 . S
C156 C157 1.386 . S
C156 C158 1.397 . S
C156 H180 0.931 . S
C157 C156 1.386 . S
C157 C161 1.397 . S
C158 C156 1.397 . S
C158 C159 1.384 . S
C158 H181 0.930 . S
C159 C158 1.384 . S
C159 C160 1.377 . S
C159 C162 1.481 . S
C160 C159 1.377 . S
C160 C161 1.389 . S
C160 H182 0.929 . S
C161 C157 1.397 . S
C161 C160 1.389 . S
C161 H183 0.931 . S
C162 C159 1.481 . S
C162 C163 1.387 . S
C162 C167 1.390 . S
C163 C162 1.387 . S
C163 C164 1.401 . S
C163 H184 0.930 . S
C164 C163 1.401 . S
C164 C165 1.376 . S
C164 C173 1.511 . S
C165 C164 1.376 . S
C165 C166 1.392 . S
C165 H186 0.931 . S
C166 C165 1.392 . S
C166 C167 1.361 . S
C166 C168 1.500 . S
C167 C162 1.390 . S
C167 C166 1.361 . S
C167 H185 0.931 . S
C168 C166 1.500 . S
C168 C169 1.371 . S
C168 C170 1.365 . S
C169 C168 1.371 . S
C169 C179 1.386 . S
C169 H187 0.931 . S
C170 C168 1.365 . S
C170 C171 1.409 . S
C170 H188 0.929 . S
C171 C170 1.409 . S
C171 C172 1.380 . S
C171 H189 0.930 . S
C172 C171 1.380 . S
C172 C179 1.357 . S
C173 C164 1.511 . S
C173 C174 1.341 . S
C173 C175 1.371 . S
C174 C173 1.341 . S
C174 C178 1.394 . S
C174 H190 0.930 . S
C175 C173 1.371 . S
C175 C176 1.392 . S
C175 H191 0.931 . S
C176 C175 1.392 . S
C176 C177 1.331 . S
C176 H194 0.932 . S
C177 C176 1.331 . S
C177 C178 1.336 . S
C178 C174 1.394 . S
C178 C177 1.336 . S
C178 H193 0.929 . S
C179 C169 1.386 . S
C179 C172 1.357 . S
C179 H192 0.928 . S
H180 C156 0.931 . S
H181 C158 0.930 . S
H182 C160 0.929 . S
H183 C161 0.931 . S
H184 C163 0.930 . S
H185 C167 0.931 . S
H186 C165 0.931 . S
H187 C169 0.931 . S
H188 C170 0.929 . S
H189 C171 0.930 . S
H190 C174 0.930 . S
H191 C175 0.931 . S
H192 C179 0.928 . S
H193 C178 0.929 . S
H194 C176 0.932 . S
C195 C196 1.386 . S
C195 C197 1.397 . S
C195 H219 0.931 . S
C196 C195 1.386 . S
C196 C200 1.397 . S
C197 C195 1.397 . S
C197 C198 1.384 . S
C197 H220 0.930 . S
C198 C197 1.384 . S
C198 C199 1.377 . S
C198 C201 1.481 . S
C199 C198 1.377 . S
C199 C200 1.389 . S
C199 H221 0.929 . S
C200 C196 1.397 . S
C200 C199 1.389 . S
C200 H222 0.931 . S
C201 C198 1.481 . S
C201 C202 1.387 . S
C201 C206 1.390 . S
C202 C201 1.387 . S
C202 C203 1.401 . S
C202 H223 0.930 . S
C203 C202 1.401 . S
C203 C204 1.376 . S
C203 C212 1.511 . S
C204 C203 1.376 . S
C204 C205 1.392 . S
C204 H225 0.931 . S
C205 C204 1.392 . S
C205 C206 1.361 . S
C205 C207 1.500 . S
C206 C201 1.390 . S
C206 C205 1.361 . S
C206 H224 0.931 . S
C207 C205 1.500 . S
C207 C208 1.371 . S
C207 C209 1.365 . S
C208 C207 1.371 . S
C208 C218 1.386 . S
C208 H226 0.931 . S
C209 C207 1.365 . S
C209 C210 1.409 . S
C209 H227 0.929 . S
C210 C209 1.409 . S
C210 C211 1.380 . S
C210 H228 0.930 . S
C211 C210 1.380 . S
C211 C218 1.357 . S
C212 C203 1.511 . S
C212 C213 1.341 . S
C212 C214 1.371 . S
C213 C212 1.341 . S
C213 C217 1.394 . S
C213 H229 0.930 . S
C214 C212 1.371 . S
C214 C215 1.392 . S
C214 H230 0.931 . S
C215 C214 1.392 . S
C215 C216 1.331 . S
C215 H233 0.932 . S
C216 C215 1.331 . S
C216 C217 1.336 . S
C217 C213 1.394 . S
C217 C216 1.336 . S
C217 H232 0.929 . S
C218 C208 1.386 . S
C218 C211 1.357 . S
C218 H231 0.928 . S
H219 C195 0.931 . S
H220 C197 0.930 . S
H221 C199 0.929 . S
H222 C200 0.931 . S
H223 C202 0.930 . S
H224 C206 0.931 . S
H225 C204 0.931 . S
H226 C208 0.931 . S
H227 C209 0.929 . S
H228 C210 0.930 . S
H229 C213 0.930 . S
H230 C214 0.931 . S
H231 C218 0.928 . S
H232 C217 0.929 . S
H233 C215 0.932 . S
C234 C235 1.387 1_565 S
C234 C236 1.397 . S
C234 H258 0.931 . S
C235 C234 1.387 1_545 S
C235 C239 1.396 . S
C236 C234 1.397 . S
C236 C237 1.385 1_565 S
C236 H259 0.930 . S
C237 C236 1.385 1_545 S
C237 C238 1.376 . S
C237 C240 1.481 1_545 S
C238 C237 1.376 . S
C238 C239 1.389 . S
C238 H260 0.929 . S
C239 C235 1.396 . S
C239 C238 1.389 . S
C239 H261 0.931 . S
C240 C237 1.481 1_565 S
C240 C241 1.387 . S
C240 C245 1.390 . S
C241 C240 1.387 . S
C241 C242 1.403 . S
C241 H262 0.930 . S
C242 C241 1.403 . S
C242 C243 1.376 . S
C242 C251 1.511 . S
C243 C242 1.376 . S
C243 C244 1.393 1_565 S
C243 H264 0.932 . S
C244 C243 1.393 1_545 S
C244 C245 1.361 1_545 S
C244 C246 1.499 . S
C245 C240 1.390 . S
C245 C244 1.361 1_565 S
C245 H263 0.931 1_565 S
C246 C244 1.499 . S
C246 C247 1.357 1_545 S
C246 C248 1.380 . S
C247 C246 1.357 1_565 S
C247 C257 1.386 . S
C247 H265 0.931 . S
C248 C246 1.380 . S
C248 C249 1.409 . S
C248 H266 0.929 . S
C249 C248 1.409 . S
C249 C250 1.386 . S
C249 H267 0.930 . S
C250 C249 1.386 . S
C250 C257 1.352 1_545 S
C251 C242 1.511 . S
C251 C252 1.341 . S
C251 C253 1.371 1_565 S
C252 C251 1.341 . S
C252 C256 1.394 . S
C252 H268 0.930 . S
C253 C251 1.371 1_545 S
C253 C254 1.392 . S
C253 H269 0.931 . S
C254 C253 1.392 . S
C254 C255 1.321 1_545 S
C254 H272 0.932 . S
C255 C254 1.321 1_565 S
C255 C256 1.348 . S
C256 C252 1.394 . S
C256 C255 1.348 . S
C256 H271 0.929 . S
C257 C247 1.386 . S
C257 C250 1.352 1_565 S
C257 H270 0.928 . S
H258 C234 0.931 . S
H259 C236 0.930 . S
H260 C238 0.929 . S
H261 C239 0.931 . S
H262 C241 0.930 . S
H263 C245 0.931 1_545 S
H264 C243 0.932 . S
H265 C247 0.931 . S
H266 C248 0.929 . S
H267 C249 0.930 . S
H268 C252 0.930 . S
H269 C253 0.931 . S
H270 C257 0.928 . S
H271 C256 0.929 . S
H272 C254 0.932 . S
C273 C274 1.386 . S
C273 C275 1.397 . S
C273 H297 0.931 . S
C274 C273 1.386 . S
C274 C278 1.397 . S
C275 C273 1.397 . S
C275 C276 1.384 . S
C275 H298 0.930 . S
C276 C275 1.384 . S
C276 C277 1.377 . S
C276 C279 1.481 . S
C277 C276 1.377 . S
C277 C278 1.389 . S
C277 H299 0.929 . S
C278 C274 1.397 . S
C278 C277 1.389 . S
C278 H300 0.931 . S
C279 C276 1.481 . S
C279 C280 1.387 . S
C279 C284 1.390 . S
C280 C279 1.387 . S
C280 C281 1.401 . S
C280 H301 0.930 . S
C281 C280 1.401 . S
C281 C282 1.376 . S
C281 C290 1.511 . S
C282 C281 1.376 . S
C282 C283 1.392 . S
C282 H303 0.931 . S
C283 C282 1.392 . S
C283 C284 1.361 . S
C283 C285 1.500 . S
C284 C279 1.390 . S
C284 C283 1.361 . S
C284 H302 0.931 . S
C285 C283 1.500 . S
C285 C286 1.371 . S
C285 C287 1.365 . S
C286 C285 1.371 . S
C286 C296 1.386 . S
C286 H304 0.931 . S
C287 C285 1.365 . S
C287 C288 1.409 . S
C287 H305 0.929 . S
C288 C287 1.409 . S
C288 C289 1.380 . S
C288 H306 0.930 . S
C289 C288 1.380 . S
C289 C296 1.357 . S
C290 C281 1.511 . S
C290 C291 1.341 . S
C290 C292 1.371 . S
C291 C290 1.341 . S
C291 C295 1.394 . S
C291 H307 0.930 . S
C292 C290 1.371 . S
C292 C293 1.392 . S
C292 H308 0.931 . S
C293 C292 1.392 . S
C293 C294 1.331 . S
C293 H311 0.932 . S
C294 C293 1.331 . S
C294 C295 1.336 . S
C295 C291 1.394 . S
C295 C294 1.336 . S
C295 H310 0.929 . S
C296 C286 1.386 . S
C296 C289 1.357 . S
C296 H309 0.928 . S
H297 C273 0.931 . S
H298 C275 0.930 . S
H299 C277 0.929 . S
H300 C278 0.931 . S
H301 C280 0.930 . S
H302 C284 0.931 . S
H303 C282 0.931 . S
H304 C286 0.931 . S
H305 C287 0.929 . S
H306 C288 0.930 . S
H307 C291 0.930 . S
H308 C292 0.931 . S
H309 C296 0.928 . S
H310 C295 0.929 . S
H311 C293 0.932 . S
O312 Zn313 1.954 . S
O312 C328 1.233 . S
Zn313 O312 1.954 . S
Zn313 O314 1.948 . S
Zn313 O320 1.883 1_565 S
Zn313 O325 1.968 . S
O314 Zn313 1.948 . S
O314 Zn315 1.902 1_565 S
O314 Zn316 1.953 . S
O314 Zn317 1.962 . S
Zn315 O314 1.902 1_545 S
Zn315 O318 1.933 1_455 S
Zn315 O321 1.941 . S
Zn315 O322 1.965 . S
Zn316 O314 1.953 . S
Zn316 O323 1.938 1_565 S
Zn316 O324 1.906 . S
Zn316 O334 1.953 . S
Zn317 O314 1.962 . S
Zn317 O319 1.932 1_455 S
Zn317 O326 1.977 . S
Zn317 O327 1.910 . S
O318 Zn315 1.933 1_655 S
O318 C329 1.226 . S
O319 Zn317 1.932 1_655 S
O319 C329 1.307 1_565 S
O320 Zn313 1.883 1_545 S
O320 C331 1.253 . S
O321 Zn315 1.941 . S
O321 C331 1.283 . S
O322 Zn315 1.965 . S
O322 C330 1.303 . S
O323 Zn316 1.938 1_545 S
O323 C330 1.247 . S
O324 Zn316 1.906 . S
O324 C332 1.304 . S
O325 Zn313 1.968 . S
O325 C333 1.311 . S
O326 Zn317 1.977 . S
O326 C332 1.272 . S
O327 Zn317 1.910 . S
O327 C333 1.231 . S
C328 O312 1.233 . S
C328 O334 1.298 . S
C329 O318 1.226 . S
C329 O319 1.307 1_545 S
C330 O322 1.303 . S
C330 O323 1.247 . S
C331 O320 1.253 . S
C331 O321 1.283 . S
C332 O324 1.304 . S
C332 O326 1.272 . S
C333 O325 1.311 . S
C333 O327 1.231 . S
O334 Zn316 1.953 . S
O334 C328 1.298 . S
O335 Zn336 1.953 . S
O335 C351 1.225 . S
Zn336 O335 1.953 . S
Zn336 O337 1.949 . S
Zn336 O343 1.919 . S
Zn336 O348 1.924 . S
O337 Zn336 1.949 . S
O337 Zn338 1.923 1_545 S
O337 Zn339 1.950 . S
O337 Zn340 1.945 1_545 S
Zn338 O337 1.923 1_565 S
Zn338 O341 1.933 . S
Zn338 O344 1.941 . S
Zn338 O345 1.965 . S
Zn339 O337 1.950 . S
Zn339 O346 1.938 . S
Zn339 O347 1.889 1_545 S
Zn339 O357 1.953 . S
Zn340 O337 1.945 1_565 S
Zn340 O342 1.932 . S
Zn340 O349 1.977 . S
Zn340 O350 1.910 1_565 S
O341 Zn338 1.933 . S
O341 C352 1.226 . S
O342 Zn340 1.932 . S
O342 C352 1.307 . S
O343 Zn336 1.919 . S
O343 C354 1.253 . S
O344 Zn338 1.941 . S
O344 C354 1.283 1_565 S
O345 Zn338 1.965 . S
O345 C353 1.303 . S
O346 Zn339 1.938 . S
O346 C353 1.247 1_545 S
O347 Zn339 1.889 1_565 S
O347 C355 1.328 . S
O348 Zn336 1.924 . S
O348 C356 1.311 . S
O349 Zn340 1.977 . S
O349 C355 1.272 . S
O350 Zn340 1.910 1_545 S
O350 C356 1.231 . S
C351 O335 1.225 . S
C351 O357 1.298 . S
C352 O341 1.226 . S
C352 O342 1.307 . S
C353 O345 1.303 . S
C353 O346 1.247 1_565 S
C354 O343 1.253 . S
C354 O344 1.283 1_545 S
C355 O347 1.328 . S
C355 O349 1.272 . S
C356 O348 1.311 . S
C356 O350 1.231 . S
O357 Zn339 1.953 . S
O357 C351 1.298 . S
O358 Zn359 1.953 . S
O358 C374 1.225 . S
Zn359 O358 1.953 . S
Zn359 O360 1.949 . S
Zn359 O366 1.919 . S
Zn359 O371 1.924 . S
O360 Zn359 1.949 . S
O360 Zn361 1.923 . S
O360 Zn362 1.950 . S
O360 Zn363 1.945 . S
Zn361 O360 1.923 . S
Zn361 O364 1.933 . S
Zn361 O367 1.941 . S
Zn361 O368 1.965 . S
Zn362 O360 1.950 . S
Zn362 O369 1.938 . S
Zn362 O370 1.906 . S
Zn362 O380 1.953 . S
Zn363 O360 1.945 . S
Zn363 O365 1.932 . S
Zn363 O372 1.977 . S
Zn363 O373 1.910 . S
O364 Zn361 1.933 . S
O364 C375 1.226 . S
O365 Zn363 1.932 . S
O365 C375 1.307 . S
O366 Zn359 1.919 . S
O366 C377 1.253 . S
O367 Zn361 1.941 . S
O367 C377 1.283 . S
O368 Zn361 1.965 . S
O368 C376 1.303 . S
O369 Zn362 1.938 . S
O369 C376 1.247 . S
O370 Zn362 1.906 . S
O370 C378 1.304 . S
O371 Zn359 1.924 . S
O371 C379 1.311 . S
O372 Zn363 1.977 . S
O372 C378 1.272 . S
O373 Zn363 1.910 . S
O373 C379 1.231 . S
C374 O358 1.225 . S
C374 O380 1.298 . S
C375 O364 1.226 . S
C375 O365 1.307 . S
C376 O368 1.303 . S
C376 O369 1.247 . S
C377 O366 1.253 . S
C377 O367 1.283 . S
C378 O370 1.304 . S
C378 O372 1.272 . S
C379 O371 1.311 . S
C379 O373 1.231 . S
O380 Zn362 1.953 . S
O380 C374 1.298 . S
O381 Zn382 1.953 1_655 S
O381 C397 1.225 . S
Zn382 O381 1.953 1_455 S
Zn382 O383 1.949 . S
Zn382 O389 1.919 . S
Zn382 O394 1.924 . S
O383 Zn382 1.949 . S
O383 Zn384 1.923 . S
O383 Zn385 1.950 1_455 S
O383 Zn386 1.945 . S
Zn384 O383 1.923 . S
Zn384 O387 1.933 . S
Zn384 O390 1.941 . S
Zn384 O391 1.965 1_455 S
Zn385 O383 1.950 1_655 S
Zn385 O392 1.938 . S
Zn385 O393 1.906 1_655 S
Zn385 O403 1.953 . S
Zn386 O383 1.945 . S
Zn386 O388 1.932 . S
Zn386 O395 1.977 . S
Zn386 O396 1.910 . S
O387 Zn384 1.933 . S
O387 C398 1.226 . S
O388 Zn386 1.932 . S
O388 C398 1.307 . S
O389 Zn382 1.919 . S
O389 C400 1.253 . S
O390 Zn384 1.941 . S
O390 C400 1.283 . S
O391 Zn384 1.965 1_655 S
O391 C399 1.303 . S
O392 Zn385 1.938 . S
O392 C399 1.247 . S
O393 Zn385 1.906 1_455 S
O393 C401 1.304 . S
O394 Zn382 1.924 . S
O394 C402 1.311 . S
O395 Zn386 1.977 . S
O395 C401 1.272 . S
O396 Zn386 1.910 . S
O396 C402 1.231 . S
C397 O381 1.225 . S
C397 O403 1.298 . S
C398 O387 1.226 . S
C398 O388 1.307 . S
C399 O391 1.303 . S
C399 O392 1.247 . S
C400 O389 1.253 . S
C400 O390 1.283 . S
C401 O393 1.304 . S
C401 O395 1.272 . S
C402 O394 1.311 . S
C402 O396 1.231 . S
O403 Zn385 1.953 . S
O403 C397 1.298 . S
H404 C416 0.930 . S
H405 C418 0.930 . S
H406 C419 0.930 . S
H407 C423 0.959 . S
H408 C423 0.959 . S
H409 C423 0.961 . S
H410 C424 0.960 . S
H411 C424 0.961 . S
H412 C424 0.959 . S
H413 C427 0.929 . S
H414 C428 0.931 . S
H415 C430 0.930 . S
C416 H404 0.930 . S
C416 C417 1.399 1_565 S
C416 C421 1.399 . S
C417 C416 1.399 1_545 S
C417 C418 1.376 . S
C418 H405 0.930 . S
C418 C417 1.376 . S
C418 C419 1.388 . S
C419 H406 0.930 . S
C419 C418 1.388 . S
C419 C420 1.390 . S
C420 C419 1.390 . S
C420 C421 1.394 1_545 S
C420 C426 1.465 . S
C421 C416 1.399 . S
C421 C420 1.394 1_565 S
C421 C422 1.516 . S
C422 C421 1.516 . S
C422 C423 1.502 . S
C422 C424 1.561 . S
C422 C425 1.526 . S
C423 H407 0.959 . S
C423 H408 0.959 . S
C423 H409 0.961 . S
C423 C422 1.502 . S
C424 H410 0.960 . S
C424 H411 0.961 . S
C424 H412 0.959 . S
C424 C422 1.561 . S
C425 C422 1.526 . S
C425 C426 1.396 1_565 S
C425 C430 1.390 . S
C426 C420 1.465 . S
C426 C425 1.396 1_545 S
C426 C427 1.399 . S
C427 H413 0.929 . S
C427 C426 1.399 . S
C427 C428 1.385 . S
C428 H414 0.931 . S
C428 C427 1.385 . S
C428 C429 1.389 1_545 S
C429 C428 1.389 1_565 S
C429 C430 1.387 . S
C430 H415 0.930 . S
C430 C425 1.390 . S
C430 C429 1.387 . S
H431 C443 0.930 . S
H432 C445 0.930 . S
H433 C446 0.930 . S
H434 C450 0.959 . S
H435 C450 0.959 . S
H436 C450 0.961 . S
H437 C451 0.960 . S
H438 C451 0.961 . S
H439 C451 0.959 . S
H440 C454 0.929 . S
H441 C455 0.931 . S
H442 C457 0.930 . S
C443 H431 0.930 . S
C443 C444 1.399 . S
C443 C448 1.399 . S
C444 C443 1.399 . S
C444 C445 1.376 . S
C445 H432 0.930 . S
C445 C444 1.376 . S
C445 C446 1.388 . S
C446 H433 0.930 . S
C446 C445 1.388 . S
C446 C447 1.390 . S
C447 C446 1.390 . S
C447 C448 1.394 . S
C447 C453 1.465 . S
C448 C443 1.399 . S
C448 C447 1.394 . S
C448 C449 1.516 . S
C449 C448 1.516 . S
C449 C450 1.502 . S
C449 C451 1.561 . S
C449 C452 1.526 . S
C450 H434 0.959 . S
C450 H435 0.959 . S
C450 H436 0.961 . S
C450 C449 1.502 . S
C451 H437 0.960 . S
C451 H438 0.961 . S
C451 H439 0.959 . S
C451 C449 1.561 . S
C452 C449 1.526 . S
C452 C453 1.396 . S
C452 C457 1.390 . S
C453 C447 1.465 . S
C453 C452 1.396 . S
C453 C454 1.399 . S
C454 H440 0.929 . S
C454 C453 1.399 . S
C454 C455 1.385 . S
C455 H441 0.931 . S
C455 C454 1.385 . S
C455 C456 1.389 . S
C456 C455 1.389 . S
C456 C457 1.387 . S
C457 H442 0.930 . S
C457 C452 1.390 . S
C457 C456 1.387 . S
H458 C470 0.930 . S
H459 C472 0.930 . S
H460 C473 0.930 . S
H461 C477 0.959 . S
H462 C477 0.959 . S
H463 C477 0.961 . S
H464 C478 0.960 . S
H465 C478 0.961 . S
H466 C478 0.959 . S
H467 C481 0.929 . S
H468 C482 0.931 . S
H469 C484 0.930 . S
C470 H458 0.930 . S
C470 C471 1.399 . S
C470 C475 1.399 . S
C471 C470 1.399 . S
C471 C472 1.376 . S
C472 H459 0.930 . S
C472 C471 1.376 . S
C472 C473 1.388 . S
C473 H460 0.930 . S
C473 C472 1.388 . S
C473 C474 1.390 . S
C474 C473 1.390 . S
C474 C475 1.394 . S
C474 C480 1.465 . S
C475 C470 1.399 . S
C475 C474 1.394 . S
C475 C476 1.516 . S
C476 C475 1.516 . S
C476 C477 1.502 . S
C476 C478 1.561 . S
C476 C479 1.526 . S
C477 H461 0.959 . S
C477 H462 0.959 . S
C477 H463 0.961 . S
C477 C476 1.502 . S
C478 H464 0.960 . S
C478 H465 0.961 . S
C478 H466 0.959 . S
C478 C476 1.561 . S
C479 C476 1.526 . S
C479 C480 1.396 . S
C479 C484 1.390 . S
C480 C474 1.465 . S
C480 C479 1.396 . S
C480 C481 1.399 . S
C481 H467 0.929 . S
C481 C480 1.399 . S
C481 C482 1.385 . S
C482 H468 0.931 . S
C482 C481 1.385 . S
C482 C483 1.389 . S
C483 C482 1.389 . S
C483 C484 1.387 . S
C484 H469 0.930 . S
C484 C479 1.390 . S
C484 C483 1.387 . S
H485 C497 0.930 . S
H486 C499 0.930 . S
H487 C500 0.930 . S
H488 C504 0.959 . S
H489 C504 0.945 1_655 S
H490 C504 0.961 . S
H491 C505 0.960 . S
H492 C505 0.961 . S
H493 C505 0.959 . S
H494 C508 0.929 . S
H495 C509 0.931 . S
H496 C511 0.930 . S
C497 H485 0.930 . S
C497 C498 1.399 . S
C497 C502 1.399 . S
C498 C497 1.399 . S
C498 C499 1.376 . S
C499 H486 0.930 . S
C499 C498 1.376 . S
C499 C500 1.388 . S
C500 H487 0.930 . S
C500 C499 1.388 . S
C500 C501 1.390 . S
C501 C500 1.390 . S
C501 C502 1.394 . S
C501 C507 1.465 . S
C502 C497 1.399 . S
C502 C501 1.394 . S
C502 C503 1.516 . S
C503 C502 1.516 . S
C503 C504 1.502 . S
C503 C505 1.561 . S
C503 C506 1.526 . S
C504 H488 0.959 . S
C504 H489 0.945 1_455 S
C504 H490 0.961 . S
C504 C503 1.502 . S
C505 H491 0.960 . S
C505 H492 0.961 . S
C505 H493 0.959 . S
C505 C503 1.561 . S
C506 C503 1.526 . S
C506 C507 1.396 . S
C506 C511 1.390 . S
C507 C501 1.465 . S
C507 C506 1.396 . S
C507 C508 1.399 . S
C508 H494 0.929 . S
C508 C507 1.399 . S
C508 C509 1.385 . S
C509 H495 0.931 . S
C509 C508 1.385 . S
C509 C510 1.389 . S
C510 C509 1.389 . S
C510 C511 1.387 . S
C511 H496 0.930 . S
C511 C506 1.390 . S
C511 C510 1.387 . S
H512 C524 0.930 1_554 S
H513 C526 0.930 . S
H514 C527 0.930 . S
H515 C531 0.959 1_545 S
H516 C531 0.959 . S
H517 C531 0.961 1_554 S
H518 C532 0.960 . S
H519 C532 0.961 . S
H520 C532 0.959 . S
H521 C535 0.929 . S
H522 C536 0.931 . S
H523 C538 0.930 . S
C524 H512 0.930 1_556 S
C524 C525 1.389 1_565 S
C524 C529 1.399 . S
C525 C524 1.389 1_545 S
C525 C526 1.390 . S
C526 H513 0.930 . S
C526 C525 1.390 . S
C526 C527 1.388 . S
C527 H514 0.930 . S
C527 C526 1.388 . S
C527 C528 1.390 . S
C528 C527 1.390 . S
C528 C529 1.394 1_545 S
C528 C534 1.465 . S
C529 C524 1.399 . S
C529 C528 1.394 1_565 S
C529 C530 1.516 . S
C530 C529 1.516 . S
C530 C531 1.502 . S
C530 C532 1.561 . S
C530 C533 1.526 . S
C531 H515 0.959 1_565 S
C531 H516 0.959 . S
C531 H517 0.961 1_556 S
C531 C530 1.502 . S
C532 H518 0.960 . S
C532 H519 0.961 . S
C532 H520 0.959 . S
C532 C530 1.561 . S
C533 C530 1.526 . S
C533 C534 1.396 1_565 S
C533 C538 1.390 . S
C534 C528 1.465 . S
C534 C533 1.396 1_545 S
C534 C535 1.399 . S
C535 H521 0.929 . S
C535 C534 1.399 . S
C535 C536 1.385 . S
C536 H522 0.931 . S
C536 C535 1.385 . S
C536 C537 1.389 . S
C537 C536 1.389 . S
C537 C538 1.387 1_545 S
C538 H523 0.930 . S
C538 C533 1.390 . S
C538 C537 1.387 1_565 S
H539 C551 0.930 . S
H540 C553 0.930 1_554 S
H541 C554 0.930 . S
H542 C558 0.959 . S
H543 C558 0.959 . S
H544 C558 0.961 . S
H545 C559 0.960 . S
H546 C559 0.961 . S
H547 C559 0.959 . S
H548 C562 0.929 . S
H549 C563 0.931 . S
H550 C565 0.930 . S
C551 H539 0.930 . S
C551 C552 1.399 . S
C551 C556 1.399 . S
C552 C551 1.399 . S
C552 C553 1.376 . S
C553 H540 0.930 1_556 S
C553 C552 1.376 . S
C553 C554 1.388 . S
C554 H541 0.930 . S
C554 C553 1.388 . S
C554 C555 1.390 . S
C555 C554 1.390 . S
C555 C556 1.394 . S
C555 C561 1.465 . S
C556 C551 1.399 . S
C556 C555 1.394 . S
C556 C557 1.516 . S
C557 C556 1.516 . S
C557 C558 1.502 . S
C557 C559 1.561 . S
C557 C560 1.526 . S
C558 H542 0.959 . S
C558 H543 0.959 . S
C558 H544 0.961 . S
C558 C557 1.502 . S
C559 H545 0.960 . S
C559 H546 0.961 . S
C559 H547 0.959 . S
C559 C557 1.561 . S
C560 C557 1.526 . S
C560 C561 1.396 . S
C560 C565 1.390 . S
C561 C555 1.465 . S
C561 C560 1.396 . S
C561 C562 1.399 . S
C562 H548 0.929 . S
C562 C561 1.399 . S
C562 C563 1.385 . S
C563 H549 0.931 . S
C563 C562 1.385 . S
C563 C564 1.389 . S
C564 C563 1.389 . S
C564 C565 1.387 . S
C565 H550 0.930 . S
C565 C560 1.390 . S
C565 C564 1.387 . S
H566 C578 0.930 . S
H567 C580 0.930 . S
H568 C581 0.930 . S
H569 C585 0.959 . S
H570 C585 0.959 . S
H571 C585 0.961 . S
H572 C586 0.960 . S
H573 C586 0.961 . S
H574 C586 0.959 . S
H575 C589 0.929 . S
H576 C590 0.931 . S
H577 C592 0.930 . S
C578 H566 0.930 . S
C578 C579 1.399 . S
C578 C583 1.399 . S
C579 C578 1.399 . S
C579 C580 1.376 . S
C580 H567 0.930 . S
C580 C579 1.376 . S
C580 C581 1.388 . S
C581 H568 0.930 . S
C581 C580 1.388 . S
C581 C582 1.390 . S
C582 C581 1.390 . S
C582 C583 1.394 . S
C582 C588 1.465 . S
C583 C578 1.399 . S
C583 C582 1.394 . S
C583 C584 1.516 . S
C584 C583 1.516 . S
C584 C585 1.502 . S
C584 C586 1.561 . S
C584 C587 1.526 . S
C585 H569 0.959 . S
C585 H570 0.959 . S
C585 H571 0.961 . S
C585 C584 1.502 . S
C586 H572 0.960 . S
C586 H573 0.961 . S
C586 H574 0.959 . S
C586 C584 1.561 . S
C587 C584 1.526 . S
C587 C588 1.396 . S
C587 C592 1.390 . S
C588 C582 1.465 . S
C588 C587 1.396 . S
C588 C589 1.399 . S
C589 H575 0.929 . S
C589 C588 1.399 . S
C589 C590 1.385 . S
C590 H576 0.931 . S
C590 C589 1.385 . S
C590 C591 1.389 . S
C591 C590 1.389 . S
C591 C592 1.387 . S
C592 H577 0.930 . S
C592 C587 1.390 . S
C592 C591 1.387 . S
H593 C605 0.930 . S
H594 C607 0.930 . S
H595 C608 0.930 . S
H596 C612 0.959 . S
H597 C612 0.959 . S
H598 C612 0.961 . S
H599 C613 0.960 . S
H600 C613 0.961 . S
H601 C613 0.959 . S
H602 C616 0.929 . S
H603 C617 0.931 . S
H604 C619 0.930 . S
C605 H593 0.930 . S
C605 C606 1.399 . S
C605 C610 1.399 . S
C606 C605 1.399 . S
C606 C607 1.376 1_655 S
C607 H594 0.930 . S
C607 C606 1.376 1_455 S
C607 C608 1.388 . S
C608 H595 0.930 . S
C608 C607 1.388 . S
C608 C609 1.390 . S
C609 C608 1.390 . S
C609 C610 1.394 1_455 S
C609 C615 1.465 . S
C610 C605 1.399 . S
C610 C609 1.394 1_655 S
C610 C611 1.516 . S
C611 C610 1.516 . S
C611 C612 1.502 . S
C611 C613 1.561 . S
C611 C614 1.526 . S
C612 H596 0.959 . S
C612 H597 0.959 . S
C612 H598 0.961 . S
C612 C611 1.502 . S
C613 H599 0.960 . S
C613 H600 0.961 . S
C613 H601 0.959 . S
C613 C611 1.561 . S
C614 C611 1.526 . S
C614 C615 1.396 1_655 S
C614 C619 1.390 . S
C615 C609 1.465 . S
C615 C614 1.396 1_455 S
C615 C616 1.399 . S
C616 H602 0.929 . S
C616 C615 1.399 . S
C616 C617 1.385 . S
C617 H603 0.931 . S
C617 C616 1.385 . S
C617 C618 1.389 . S
C618 C617 1.389 . S
C618 C619 1.387 1_455 S
C619 H604 0.930 . S
C619 C614 1.390 . S
C619 C618 1.387 1_655 S
H620 C632 0.930 . S
H621 C634 0.930 . S
H622 C635 0.930 . S
H623 C639 0.959 . S
H624 C639 0.959 . S
H625 C639 0.961 . S
H626 C640 0.960 . S
H627 C640 0.961 . S
H628 C640 0.959 . S
H629 C643 0.929 . S
H630 C644 0.931 . S
H631 C646 0.930 . S
C632 H620 0.930 . S
C632 C633 1.399 . S
C632 C637 1.399 . S
C633 C632 1.399 . S
C633 C634 1.376 . S
C634 H621 0.930 . S
C634 C633 1.376 . S
C634 C635 1.388 . S
C635 H622 0.930 . S
C635 C634 1.388 . S
C635 C636 1.390 . S
C636 C635 1.390 . S
C636 C637 1.394 . S
C636 C642 1.465 . S
C637 C632 1.399 . S
C637 C636 1.394 . S
C637 C638 1.516 . S
C638 C637 1.516 . S
C638 C639 1.502 . S
C638 C640 1.561 . S
C638 C641 1.526 . S
C639 H623 0.959 . S
C639 H624 0.959 . S
C639 H625 0.961 . S
C639 C638 1.502 . S
C640 H626 0.960 . S
C640 H627 0.961 . S
C640 H628 0.959 . S
C640 C638 1.561 . S
C641 C638 1.526 . S
C641 C642 1.396 . S
C641 C646 1.390 . S
C642 C636 1.465 . S
C642 C641 1.396 . S
C642 C643 1.399 . S
C643 H629 0.929 . S
C643 C642 1.399 . S
C643 C644 1.385 . S
C644 H630 0.931 . S
C644 C643 1.385 . S
C644 C645 1.389 . S
C645 C644 1.389 . S
C645 C646 1.387 . S
C646 H631 0.930 . S
C646 C641 1.390 . S
C646 C645 1.387 . S
H647 C659 0.930 . S
H648 C661 0.930 . S
H649 C662 0.930 . S
H650 C666 0.959 . S
H651 C666 0.959 . S
H652 C666 0.961 . S
H653 C667 0.960 . S
H654 C667 0.961 . S
H655 C667 0.959 . S
H656 C670 0.929 . S
H657 C671 0.931 . S
H658 C673 0.930 . S
C659 H647 0.930 . S
C659 C660 1.399 1_565 S
C659 C664 1.399 . S
C660 C659 1.399 1_545 S
C660 C661 1.376 . S
C661 H648 0.930 . S
C661 C660 1.376 . S
C661 C662 1.388 . S
C662 H649 0.930 . S
C662 C661 1.388 . S
C662 C663 1.390 . S
C663 C662 1.390 . S
C663 C664 1.394 1_545 S
C663 C669 1.465 . S
C664 C659 1.399 . S
C664 C663 1.394 1_565 S
C664 C665 1.516 . S
C665 C664 1.516 . S
C665 C666 1.502 . S
C665 C667 1.561 . S
C665 C668 1.526 . S
C666 H650 0.959 . S
C666 H651 0.959 . S
C666 H652 0.961 . S
C666 C665 1.502 . S
C667 H653 0.960 . S
C667 H654 0.961 . S
C667 H655 0.959 . S
C667 C665 1.561 . S
C668 C665 1.526 . S
C668 C669 1.396 1_565 S
C668 C673 1.390 . S
C669 C663 1.465 . S
C669 C668 1.396 1_545 S
C669 C670 1.399 . S
C670 H656 0.929 . S
C670 C669 1.399 . S
C670 C671 1.385 . S
C671 H657 0.931 . S
C671 C670 1.385 . S
C671 C672 1.362 1_545 S
C672 C671 1.362 1_565 S
C672 C673 1.407 . S
C673 H658 0.930 . S
C673 C668 1.390 . S
C673 C672 1.407 . S
H674 C686 0.930 . S
H675 C688 0.930 . S
H676 C689 0.930 . S
H677 C693 0.959 . S
H678 C693 0.959 . S
H679 C693 0.961 . S
H680 C694 0.960 . S
H681 C694 0.961 . S
H682 C694 0.959 . S
H683 C697 0.929 . S
H684 C698 0.931 . S
H685 C700 0.930 . S
C686 H674 0.930 . S
C686 C687 1.399 . S
C686 C691 1.399 . S
C687 C686 1.399 . S
C687 C688 1.376 . S
C688 H675 0.930 . S
C688 C687 1.376 . S
C688 C689 1.388 . S
C689 H676 0.930 . S
C689 C688 1.388 . S
C689 C690 1.390 . S
C690 C689 1.390 . S
C690 C691 1.394 . S
C690 C696 1.465 . S
C691 C686 1.399 . S
C691 C690 1.394 . S
C691 C692 1.516 . S
C692 C691 1.516 . S
C692 C693 1.502 . S
C692 C694 1.561 . S
C692 C695 1.526 . S
C693 H677 0.959 . S
C693 H678 0.959 . S
C693 H679 0.961 . S
C693 C692 1.502 . S
C694 H680 0.960 . S
C694 H681 0.961 . S
C694 H682 0.959 . S
C694 C692 1.561 . S
C695 C692 1.526 . S
C695 C696 1.396 . S
C695 C700 1.390 . S
C696 C690 1.465 . S
C696 C695 1.396 . S
C696 C697 1.399 . S
C697 H683 0.929 . S
C697 C696 1.399 . S
C697 C698 1.385 . S
C698 H684 0.931 . S
C698 C697 1.385 . S
C698 C699 1.389 . S
C699 C698 1.389 . S
C699 C700 1.387 . S
C700 H685 0.930 . S
C700 C695 1.390 . S
C700 C699 1.387 . S
H701 C713 0.930 . S
H702 C715 0.930 . S
H703 C716 0.930 . S
H704 C720 0.959 . S
H705 C720 0.959 . S
H706 C720 0.961 . S
H707 C721 0.960 . S
H708 C721 0.961 . S
H709 C721 0.959 . S
H710 C724 0.929 . S
H711 C725 0.931 . S
H712 C727 0.930 . S
C713 H701 0.930 . S
C713 C714 1.399 . S
C713 C718 1.399 . S
C714 C713 1.399 . S
C714 C715 1.376 . S
C715 H702 0.930 . S
C715 C714 1.376 . S
C715 C716 1.388 . S
C716 H703 0.930 . S
C716 C715 1.388 . S
C716 C717 1.390 . S
C717 C716 1.390 . S
C717 C718 1.394 . S
C717 C723 1.465 . S
C718 C713 1.399 . S
C718 C717 1.394 . S
C718 C719 1.516 . S
C719 C718 1.516 . S
C719 C720 1.502 . S
C719 C721 1.561 . S
C719 C722 1.526 . S
C720 H704 0.959 . S
C720 H705 0.959 . S
C720 H706 0.961 . S
C720 C719 1.502 . S
C721 H707 0.960 . S
C721 H708 0.961 . S
C721 H709 0.959 . S
C721 C719 1.561 . S
C722 C719 1.526 . S
C722 C723 1.396 . S
C722 C727 1.390 . S
C723 C717 1.465 . S
C723 C722 1.396 . S
C723 C724 1.399 . S
C724 H710 0.929 . S
C724 C723 1.399 . S
C724 C725 1.385 . S
C725 H711 0.931 . S
C725 C724 1.385 . S
C725 C726 1.389 . S
C726 C725 1.389 . S
C726 C727 1.387 . S
C727 H712 0.930 . S
C727 C722 1.390 . S
C727 C726 1.387 . S
H728 C740 0.930 . S
H729 C742 0.930 1_554 S
H730 C743 0.930 . S
H731 C747 0.959 . S
H732 C747 0.959 . S
H733 C747 0.961 . S
H734 C748 0.960 . S
H735 C748 0.961 1_455 S
H736 C748 0.959 . S
H737 C751 0.929 . S
H738 C752 0.931 . S
H739 C754 0.930 . S
C740 H728 0.930 . S
C740 C741 1.399 . S
C740 C745 1.399 1_655 S
C741 C740 1.399 . S
C741 C742 1.376 . S
C742 H729 0.930 1_556 S
C742 C741 1.376 . S
C742 C743 1.388 1_655 S
C743 H730 0.930 . S
C743 C742 1.388 1_455 S
C743 C744 1.390 . S
C744 C743 1.390 . S
C744 C745 1.394 . S
C744 C750 1.465 . S
C745 C740 1.399 1_455 S
C745 C744 1.394 . S
C745 C746 1.516 . S
C746 C745 1.516 . S
C746 C747 1.502 . S
C746 C748 1.561 1_455 S
C746 C749 1.526 . S
C747 H731 0.959 . S
C747 H732 0.959 . S
C747 H733 0.961 . S
C747 C746 1.502 . S
C748 H734 0.960 . S
C748 H735 0.961 1_655 S
C748 H736 0.959 . S
C748 C746 1.561 1_655 S
C749 C746 1.526 . S
C749 C750 1.396 . S
C749 C754 1.390 . S
C750 C744 1.465 . S
C750 C749 1.396 . S
C750 C751 1.399 . S
C751 H737 0.929 . S
C751 C750 1.399 . S
C751 C752 1.385 . S
C752 H738 0.931 . S
C752 C751 1.385 . S
C752 C753 1.389 . S
C753 C752 1.389 . S
C753 C754 1.387 . S
C754 H739 0.930 . S
C754 C749 1.390 . S
C754 C753 1.387 . S
H755 C767 0.930 . S
H756 C769 0.930 . S
H757 C770 0.930 . S
H758 C774 0.959 . S
H759 C774 0.959 . S
H760 C774 0.961 . S
H761 C775 0.960 . S
H762 C775 0.961 . S
H763 C775 0.959 . S
H764 C778 0.929 . S
H765 C779 0.931 . S
H766 C781 0.930 . S
C767 H755 0.930 . S
C767 C768 1.399 . S
C767 C772 1.399 . S
C768 C767 1.399 . S
C768 C769 1.376 1_565 S
C769 H756 0.930 . S
C769 C768 1.376 1_545 S
C769 C770 1.388 . S
C770 H757 0.930 . S
C770 C769 1.388 . S
C770 C771 1.390 . S
C771 C770 1.390 . S
C771 C772 1.394 1_545 S
C771 C777 1.465 . S
C772 C767 1.399 . S
C772 C771 1.394 1_565 S
C772 C773 1.516 . S
C773 C772 1.516 . S
C773 C774 1.502 . S
C773 C775 1.561 . S
C773 C776 1.526 1_565 S
C774 H758 0.959 . S
C774 H759 0.959 . S
C774 H760 0.961 . S
C774 C773 1.502 . S
C775 H761 0.960 . S
C775 H762 0.961 . S
C775 H763 0.959 . S
C775 C773 1.561 . S
C776 C773 1.526 1_545 S
C776 C777 1.396 . S
C776 C781 1.390 . S
C777 C771 1.465 . S
C777 C776 1.396 . S
C777 C778 1.399 . S
C778 H764 0.929 . S
C778 C777 1.399 . S
C778 C779 1.385 . S
C779 H765 0.931 . S
C779 C778 1.385 . S
C779 C780 1.389 . S
C780 C779 1.389 . S
C780 C781 1.387 . S
C781 H766 0.930 . S
C781 C776 1.390 . S
C781 C780 1.387 . S
H782 C794 0.930 . S
H783 C796 0.930 . S
H784 C797 0.930 . S
H785 C801 0.959 . S
H786 C801 0.959 . S
H787 C801 0.961 . S
H788 C802 0.960 . S
H789 C802 0.961 . S
H790 C802 0.959 . S
H791 C805 0.929 . S
H792 C806 0.931 . S
H793 C808 0.930 . S
C794 H782 0.930 . S
C794 C795 1.399 . S
C794 C799 1.399 . S
C795 C794 1.399 . S
C795 C796 1.376 . S
C796 H783 0.930 . S
C796 C795 1.376 . S
C796 C797 1.388 . S
C797 H784 0.930 . S
C797 C796 1.388 . S
C797 C798 1.390 . S
C798 C797 1.390 . S
C798 C799 1.394 . S
C798 C804 1.465 . S
C799 C794 1.399 . S
C799 C798 1.394 . S
C799 C800 1.516 . S
C800 C799 1.516 . S
C800 C801 1.502 . S
C800 C802 1.561 . S
C800 C803 1.526 . S
C801 H785 0.959 . S
C801 H786 0.959 . S
C801 H787 0.961 . S
C801 C800 1.502 . S
C802 H788 0.960 . S
C802 H789 0.961 . S
C802 H790 0.959 . S
C802 C800 1.561 . S
C803 C800 1.526 . S
C803 C804 1.396 . S
C803 C808 1.390 . S
C804 C798 1.465 . S
C804 C803 1.396 . S
C804 C805 1.399 . S
C805 H791 0.929 . S
C805 C804 1.399 . S
C805 C806 1.385 . S
C806 H792 0.931 . S
C806 C805 1.385 . S
C806 C807 1.389 . S
C807 C806 1.389 . S
C807 C808 1.387 . S
C808 H793 0.930 . S
C808 C803 1.390 . S
C808 C807 1.387 . S
H809 C821 0.930 . S
H810 C823 0.930 . S
H811 C824 0.930 . S
H812 C828 0.959 . S
H813 C828 0.959 . S
H814 C828 0.961 . S
H815 C829 0.960 . S
H816 C829 0.961 . S
H817 C829 0.959 . S
H818 C832 0.929 . S
H819 C833 0.931 . S
H820 C835 0.930 . S
C821 H809 0.930 . S
C821 C822 1.399 . S
C821 C826 1.399 . S
C822 C821 1.399 . S
C822 C823 1.376 . S
C823 H810 0.930 . S
C823 C822 1.376 . S
C823 C824 1.388 . S
C824 H811 0.930 . S
C824 C823 1.388 . S
C824 C825 1.390 . S
C825 C824 1.390 . S
C825 C826 1.394 . S
C825 C831 1.465 . S
C826 C821 1.399 . S
C826 C825 1.394 . S
C826 C827 1.516 . S
C827 C826 1.516 . S
C827 C828 1.502 . S
C827 C829 1.561 . S
C827 C830 1.526 . S
C828 H812 0.959 . S
C828 H813 0.959 . S
C828 H814 0.961 . S
C828 C827 1.502 . S
C829 H815 0.960 . S
C829 H816 0.961 . S
C829 H817 0.959 . S
C829 C827 1.561 . S
C830 C827 1.526 . S
C830 C831 1.396 . S
C830 C835 1.390 . S
C831 C825 1.465 . S
C831 C830 1.396 . S
C831 C832 1.399 . S
C832 H818 0.929 . S
C832 C831 1.399 . S
C832 C833 1.385 . S
C833 H819 0.931 . S
C833 C832 1.385 . S
C833 C834 1.389 . S
C834 C833 1.389 . S
C834 C835 1.387 . S
C835 H820 0.930 . S
C835 C830 1.390 . S
C835 C834 1.387 . S
H836 C848 0.930 1_556 S
H837 C850 0.930 . S
H838 C851 0.930 . S
H839 C855 0.959 . S
H840 C855 0.959 . S
H841 C855 0.961 . S
H842 C856 0.960 . S
H843 C856 0.961 . S
H844 C856 0.959 1_554 S
H845 C859 0.929 . S
H846 C860 0.931 . S
H847 C862 0.930 . S
C848 H836 0.930 1_554 S
C848 C849 1.399 . S
C848 C853 1.399 1_554 S
C849 C848 1.399 . S
C849 C850 1.376 . S
C850 H837 0.930 . S
C850 C849 1.376 . S
C850 C851 1.388 . S
C851 H838 0.930 . S
C851 C850 1.388 . S
C851 C852 1.390 1_554 S
C852 C851 1.390 1_556 S
C852 C853 1.394 . S
C852 C858 1.465 . S
C853 C848 1.399 1_556 S
C853 C852 1.394 . S
C853 C854 1.516 . S
C854 C853 1.516 . S
C854 C855 1.502 . S
C854 C856 1.561 . S
C854 C857 1.526 . S
C855 H839 0.959 . S
C855 H840 0.959 . S
C855 H841 0.961 . S
C855 C854 1.502 . S
C856 H842 0.960 . S
C856 H843 0.961 . S
C856 H844 0.959 1_556 S
C856 C854 1.561 . S
C857 C854 1.526 . S
C857 C858 1.396 . S
C857 C862 1.390 . S
C858 C852 1.465 . S
C858 C857 1.396 . S
C858 C859 1.399 . S
C859 H845 0.929 . S
C859 C858 1.399 . S
C859 C860 1.385 . S
C860 H846 0.931 . S
C860 C859 1.385 . S
C860 C861 1.389 . S
C861 C860 1.389 . S
C861 C862 1.387 . S
C862 H847 0.930 . S
C862 C857 1.390 . S
C862 C861 1.387 . S
H863 C875 0.930 . S
H864 C877 0.930 . S
H865 C878 0.930 . S
H866 C882 0.959 . S
H867 C882 0.959 . S
H868 C882 0.961 . S
H869 C883 0.960 . S
H870 C883 0.961 . S
H871 C883 0.959 . S
H872 C886 0.929 . S
H873 C887 0.931 . S
H874 C889 0.930 . S
C875 H863 0.930 . S
C875 C876 1.399 1_545 S
C875 C880 1.399 . S
C876 C875 1.399 1_565 S
C876 C877 1.376 1_556 S
C877 H864 0.930 . S
C877 C876 1.376 1_554 S
C877 C878 1.388 1_554 S
C878 H865 0.930 . S
C878 C877 1.388 1_556 S
C878 C879 1.390 . S
C879 C878 1.390 . S
C879 C880 1.394 1_565 S
C879 C885 1.465 . S
C880 C875 1.399 . S
C880 C879 1.394 1_545 S
C880 C881 1.516 . S
C881 C880 1.516 . S
C881 C882 1.502 . S
C881 C883 1.561 . S
C881 C884 1.526 . S
C882 H866 0.959 . S
C882 H867 0.959 . S
C882 H868 0.961 . S
C882 C881 1.502 . S
C883 H869 0.960 . S
C883 H870 0.961 . S
C883 H871 0.959 . S
C883 C881 1.561 . S
C884 C881 1.526 . S
C884 C885 1.396 1_545 S
C884 C889 1.390 . S
C885 C879 1.465 . S
C885 C884 1.396 1_565 S
C885 C886 1.399 . S
C886 H872 0.929 . S
C886 C885 1.399 . S
C886 C887 1.385 . S
C887 H873 0.931 . S
C887 C886 1.385 . S
C887 C888 1.389 . S
C888 C887 1.389 . S
C888 C889 1.387 1_565 S
C889 H874 0.930 . S
C889 C884 1.390 . S
C889 C888 1.387 1_545 S
H890 C902 0.930 . S
H891 C904 0.930 1_554 S
H892 C905 0.930 . S
H893 C909 0.959 . S
H894 C909 0.959 . S
H895 C909 0.961 . S
H896 C910 0.960 . S
H897 C910 0.961 . S
H898 C910 0.959 . S
H899 C913 0.929 . S
H900 C914 0.931 . S
H901 C916 0.930 . S
C902 H890 0.930 . S
C902 C903 1.399 . S
C902 C907 1.399 . S
C903 C902 1.399 . S
C903 C904 1.376 . S
C904 H891 0.930 1_556 S
C904 C903 1.376 . S
C904 C905 1.388 . S
C905 H892 0.930 . S
C905 C904 1.388 . S
C905 C906 1.390 . S
C906 C905 1.390 . S
C906 C907 1.394 . S
C906 C912 1.465 . S
C907 C902 1.399 . S
C907 C906 1.394 . S
C907 C908 1.516 . S
C908 C907 1.516 . S
C908 C909 1.502 . S
C908 C910 1.561 . S
C908 C911 1.526 . S
C909 H893 0.959 . S
C909 H894 0.959 . S
C909 H895 0.961 . S
C909 C908 1.502 . S
C910 H896 0.960 . S
C910 H897 0.961 . S
C910 H898 0.959 . S
C910 C908 1.561 . S
C911 C908 1.526 . S
C911 C912 1.396 . S
C911 C916 1.390 . S
C912 C906 1.465 . S
C912 C911 1.396 . S
C912 C913 1.399 . S
C913 H899 0.929 . S
C913 C912 1.399 . S
C913 C914 1.385 . S
C914 H900 0.931 . S
C914 C913 1.385 . S
C914 C915 1.389 . S
C915 C914 1.389 . S
C915 C916 1.387 . S
C916 H901 0.930 . S
C916 C911 1.390 . S
C916 C915 1.387 . S
H917 C929 0.930 . S
H918 C931 0.930 . S
H919 C932 0.930 . S
H920 C936 0.959 . S
H921 C936 0.959 . S
H922 C936 0.961 . S
H923 C937 0.960 . S
H924 C937 0.961 . S
H925 C937 0.959 . S
H926 C940 0.929 . S
H927 C941 0.931 . S
H928 C943 0.930 . S
C929 H917 0.930 . S
C929 C930 1.399 . S
C929 C934 1.399 . S
C930 C929 1.399 . S
C930 C931 1.376 . S
C931 H918 0.930 . S
C931 C930 1.376 . S
C931 C932 1.388 . S
C932 H919 0.930 . S
C932 C931 1.388 . S
C932 C933 1.390 . S
C933 C932 1.390 . S
C933 C934 1.394 . S
C933 C939 1.465 . S
C934 C929 1.399 . S
C934 C933 1.394 . S
C934 C935 1.516 . S
C935 C934 1.516 . S
C935 C936 1.502 . S
C935 C937 1.561 . S
C935 C938 1.526 . S
C936 H920 0.959 . S
C936 H921 0.959 . S
C936 H922 0.961 . S
C936 C935 1.502 . S
C937 H923 0.960 . S
C937 H924 0.961 . S
C937 H925 0.959 . S
C937 C935 1.561 . S
C938 C935 1.526 . S
C938 C939 1.396 . S
C938 C943 1.390 . S
C939 C933 1.465 . S
C939 C938 1.396 . S
C939 C940 1.399 . S
C940 H926 0.929 . S
C940 C939 1.399 . S
C940 C941 1.385 . S
C941 H927 0.931 . S
C941 C940 1.385 . S
C941 C942 1.389 . S
C942 C941 1.389 . S
C942 C943 1.387 . S
C943 H928 0.930 . S
C943 C938 1.390 . S
C943 C942 1.387 . S
H944 C956 0.930 . S
H945 C958 0.930 . S
H946 C959 0.930 . S
H947 C963 0.959 . S
H948 C963 0.959 . S
H949 C963 0.961 . S
H950 C964 0.960 . S
H951 C964 0.961 . S
H952 C964 0.959 . S
H953 C967 0.929 . S
H954 C968 0.931 . S
H955 C970 0.930 . S
C956 H944 0.930 . S
C956 C957 1.399 . S
C956 C961 1.399 . S
C957 C956 1.399 . S
C957 C958 1.376 1_655 S
C958 H945 0.930 . S
C958 C957 1.376 1_455 S
C958 C959 1.388 . S
C959 H946 0.930 . S
C959 C958 1.388 . S
C959 C960 1.390 . S
C960 C959 1.390 . S
C960 C961 1.394 1_455 S
C960 C966 1.465 . S
C961 C956 1.399 . S
C961 C960 1.394 1_655 S
C961 C962 1.516 . S
C962 C961 1.516 . S
C962 C963 1.502 . S
C962 C964 1.561 1_655 S
C962 C965 1.526 . S
C963 H947 0.959 . S
C963 H948 0.959 . S
C963 H949 0.961 . S
C963 C962 1.502 . S
C964 H950 0.960 . S
C964 H951 0.961 . S
C964 H952 0.959 . S
C964 C962 1.561 1_455 S
C965 C962 1.526 . S
C965 C966 1.396 1_655 S
C965 C970 1.390 . S
C966 C960 1.465 . S
C966 C965 1.396 1_455 S
C966 C967 1.399 . S
C967 H953 0.929 . S
C967 C966 1.399 . S
C967 C968 1.385 . S
C968 H954 0.931 . S
C968 C967 1.385 . S
C968 C969 1.378 1_455 S
C969 C968 1.378 1_655 S
C969 C970 1.395 . S
C970 H955 0.930 . S
C970 C965 1.390 . S
C970 C969 1.395 . S
H971 C983 0.930 . S
H972 C985 0.930 . S
H973 C986 0.930 . S
H974 C990 0.959 . S
H975 C990 0.959 . S
H976 C990 0.961 . S
H977 C991 0.960 . S
H978 C991 0.961 . S
H979 C991 0.959 . S
H980 C994 0.929 . S
H981 C995 0.931 . S
H982 C997 0.930 . S
C983 H971 0.930 . S
C983 C984 1.431 . S
C983 C988 1.399 . S
C984 C983 1.431 . S
C984 C985 1.342 1_565 S
C985 H972 0.930 . S
C985 C984 1.342 1_545 S
C985 C986 1.388 . S
C986 H973 0.930 . S
C986 C985 1.388 . S
C986 C987 1.390 . S
C987 C986 1.390 . S
C987 C988 1.394 1_545 S
C987 C993 1.465 1_545 S
C988 C983 1.399 . S
C988 C987 1.394 1_565 S
C988 C989 1.516 . S
C989 C988 1.516 . S
C989 C990 1.502 . S
C989 C991 1.561 . S
C989 C992 1.526 . S
C990 H974 0.959 . S
C990 H975 0.959 . S
C990 H976 0.961 . S
C990 C989 1.502 . S
C991 H977 0.960 . S
C991 H978 0.961 . S
C991 H979 0.959 . S
C991 C989 1.561 . S
C992 C989 1.526 . S
C992 C993 1.396 . S
C992 C997 1.390 . S
C993 C987 1.465 1_565 S
C993 C992 1.396 . S
C993 C994 1.399 1_565 S
C994 H980 0.929 . S
C994 C993 1.399 1_545 S
C994 C995 1.385 . S
C995 H981 0.931 . S
C995 C994 1.385 . S
C995 C996 1.389 1_545 S
C996 C995 1.389 1_565 S
C996 C997 1.387 . S
C997 H982 0.930 . S
C997 C992 1.390 . S
C997 C996 1.387 . S
H998 C1010 0.930 . S
H999 C1012 0.930 . S
H1000 C1013 0.930 . S
H1001 C1017 0.959 . S
H1002 C1017 0.959 . S
H1003 C1017 0.961 . S
H1004 C1018 0.960 . S
H1005 C1018 0.961 . S
H1006 C1018 0.959 . S
H1007 C1021 0.929 . S
H1008 C1022 0.931 . S
H1009 C1024 0.930 . S
C1010 H998 0.930 . S
C1010 C1011 1.399 . S
C1010 C1015 1.399 . S
C1011 C1010 1.399 . S
C1011 C1012 1.376 . S
C1012 H999 0.930 . S
C1012 C1011 1.376 . S
C1012 C1013 1.388 . S
C1013 H1000 0.930 . S
C1013 C1012 1.388 . S
C1013 C1014 1.390 . S
C1014 C1013 1.390 . S
C1014 C1015 1.394 . S
C1014 C1020 1.465 . S
C1015 C1010 1.399 . S
C1015 C1014 1.394 . S
C1015 C1016 1.516 . S
C1016 C1015 1.516 . S
C1016 C1017 1.502 . S
C1016 C1018 1.561 . S
C1016 C1019 1.526 . S
C1017 H1001 0.959 . S
C1017 H1002 0.959 . S
C1017 H1003 0.961 . S
C1017 C1016 1.502 . S
C1018 H1004 0.960 . S
C1018 H1005 0.961 . S
C1018 H1006 0.959 . S
C1018 C1016 1.561 . S
C1019 C1016 1.526 . S
C1019 C1020 1.396 . S
C1019 C1024 1.390 . S
C1020 C1014 1.465 . S
C1020 C1019 1.396 . S
C1020 C1021 1.399 . S
C1021 H1007 0.929 . S
C1021 C1020 1.399 . S
C1021 C1022 1.385 . S
C1022 H1008 0.931 . S
C1022 C1021 1.385 . S
C1022 C1023 1.389 . S
C1023 C1022 1.389 . S
C1023 C1024 1.387 . S
C1024 H1009 0.930 . S
C1024 C1019 1.390 . S
C1024 C1023 1.387 . S
H1025 C1037 0.930 . S
H1026 C1039 0.930 . S
H1027 C1040 0.930 . S
H1028 C1044 0.959 . S
H1029 C1044 0.959 . S
H1030 C1044 0.961 . S
H1031 C1045 0.960 . S
H1032 C1045 0.961 . S
H1033 C1045 0.959 . S
H1034 C1048 0.929 . S
H1035 C1049 0.931 . S
H1036 C1051 0.930 . S
C1037 H1025 0.930 . S
C1037 C1038 1.399 . S
C1037 C1042 1.399 . S
C1038 C1037 1.399 . S
C1038 C1039 1.376 . S
C1039 H1026 0.930 . S
C1039 C1038 1.376 . S
C1039 C1040 1.388 . S
C1040 H1027 0.930 . S
C1040 C1039 1.388 . S
C1040 C1041 1.390 . S
C1041 C1040 1.390 . S
C1041 C1042 1.394 . S
C1041 C1047 1.465 . S
C1042 C1037 1.399 . S
C1042 C1041 1.394 . S
C1042 C1043 1.516 . S
C1043 C1042 1.516 . S
C1043 C1044 1.502 . S
C1043 C1045 1.561 . S
C1043 C1046 1.526 . S
C1044 H1028 0.959 . S
C1044 H1029 0.959 . S
C1044 H1030 0.961 . S
C1044 C1043 1.502 . S
C1045 H1031 0.960 . S
C1045 H1032 0.961 . S
C1045 H1033 0.959 . S
C1045 C1043 1.561 . S
C1046 C1043 1.526 . S
C1046 C1047 1.396 . S
C1046 C1051 1.390 . S
C1047 C1041 1.465 . S
C1047 C1046 1.396 . S
C1047 C1048 1.399 . S
C1048 H1034 0.929 . S
C1048 C1047 1.399 . S
C1048 C1049 1.385 . S
C1049 H1035 0.931 . S
C1049 C1048 1.385 . S
C1049 C1050 1.389 . S
C1050 C1049 1.389 . S
C1050 C1051 1.387 . S
C1051 H1036 0.930 . S
C1051 C1046 1.390 . S
C1051 C1050 1.387 . S
C417 C255 1.661 1_545 S
C429 C328 1.688 . S
C456 C351 1.840 . S
C444 C294 1.881 . S
C483 C374 1.761 . S
C471 C177 1.717 . S
C510 C401 1.626 . S
C498 C216 1.732 . S
C537 C329 1.635 . S
C525 C99 1.568 1_546 S
C552 C138 1.635 . S
C564 C352 1.635 . S
C579 C21 1.467 . S
C591 C375 1.519 . S
C606 C60 1.689 1_556 S
C618 C400 1.763 . S
C645 C330 0.225 . S
C633 C196 0.621 . S
C672 C353 0.377 . S
C660 C235 0.384 . S
C699 C376 0.205 . S
C687 C289 0.328 . S
C714 C157 0.258 . S
C726 C402 0.645 . S
C741 C40 0.419 . S
C753 C333 0.598 . S
C780 C356 0.762 . S
C768 C79 0.230 . S
C807 C379 0.625 . S
C795 C133 0.506 . S
C822 C1 0.267 . S
C834 C399 0.117 . S
C849 C211 1.903 . S
C861 C331 1.975 . S
C876 C250 1.812 1_566 S
C888 C354 1.908 1_565 S
C915 C377 1.936 . S
C903 C274 1.862 1_556 S
C942 C398 1.675 . S
C930 C172 1.566 1_556 S
C957 C55 1.911 . S
C969 C332 1.925 1_655 S
C996 C355 1.742 . S
C984 C94 1.844 1_565 S
C1023 C378 1.780 . S
C1011 C118 1.796 . S
C1038 C16 1.987 . S
C1050 C397 2.031 . S
