# Generated by pormake.
# Topology ssa, (4,4)-cn, num edge types: 1
# Building blocks:
#     Node 0, Type 0, BuildingBlock: KOZSID_clean_sbu_0, # of connection points: 4
#     Node 1, Type 0, BuildingBlock: KOZSID_clean_sbu_0, # of connection points: 4
#     Node 2, Type 0, BuildingBlock: KOZSID_clean_sbu_0, # of connection points: 4
#     Node 3, Type 0, BuildingBlock: KOZSID_clean_sbu_0, # of connection points: 4
#     Node 4, Type 0, BuildingBlock: KOZSID_clean_sbu_0, # of connection points: 4
#     Node 5, Type 0, BuildingBlock: KOZSID_clean_sbu_0, # of connection points: 4
#     Node 6, Type 1, BuildingBlock: MIFKUJ_clean_linker_1, # of connection points: 4
#     Node 7, Type 1, BuildingBlock: MIFKUJ_clean_linker_1, # of connection points: 4
#     Node 8, Type 1, BuildingBlock: MIFKUJ_clean_linker_1, # of connection points: 4
#     Node 9, Type 1, BuildingBlock: MIFKUJ_clean_linker_1, # of connection points: 4
#     Node 10, Type 1, BuildingBlock: MIFKUJ_clean_linker_1, # of connection points: 4
#     Node 11, Type 1, BuildingBlock: MIFKUJ_clean_linker_1, # of connection points: 4
#     Edge 12, Type (0, 1), BuildingBlock: MIFKUJ_clean_linker_0, # of connection points: 2
#     Edge 13, Type (0, 1), BuildingBlock: MIFKUJ_clean_linker_0, # of connection points: 2
#     Edge 14, Type (0, 1), BuildingBlock: MIFKUJ_clean_linker_0, # of connection points: 2
#     Edge 15, Type (0, 1), BuildingBlock: MIFKUJ_clean_linker_0, # of connection points: 2
#     Edge 16, Type (0, 1), BuildingBlock: MIFKUJ_clean_linker_0, # of connection points: 2
#     Edge 17, Type (0, 1), BuildingBlock: MIFKUJ_clean_linker_0, # of connection points: 2
#     Edge 18, Type (0, 1), BuildingBlock: MIFKUJ_clean_linker_0, # of connection points: 2
#     Edge 19, Type (0, 1), BuildingBlock: MIFKUJ_clean_linker_0, # of connection points: 2
#     Edge 20, Type (0, 1), BuildingBlock: MIFKUJ_clean_linker_0, # of connection points: 2
#     Edge 21, Type (0, 1), BuildingBlock: MIFKUJ_clean_linker_0, # of connection points: 2
#     Edge 22, Type (0, 1), BuildingBlock: MIFKUJ_clean_linker_0, # of connection points: 2
#     Edge 23, Type (0, 1), BuildingBlock: MIFKUJ_clean_linker_0, # of connection points: 2
#     Edge 24, Type (0, 1), BuildingBlock: MIFKUJ_clean_linker_0, # of connection points: 2
#     Edge 25, Type (0, 1), BuildingBlock: MIFKUJ_clean_linker_0, # of connection points: 2
#     Edge 26, Type (0, 1), BuildingBlock: MIFKUJ_clean_linker_0, # of connection points: 2
#     Edge 27, Type (0, 1), BuildingBlock: MIFKUJ_clean_linker_0, # of connection points: 2
#     Edge 28, Type (0, 1), BuildingBlock: MIFKUJ_clean_linker_0, # of connection points: 2
#     Edge 29, Type (0, 1), BuildingBlock: MIFKUJ_clean_linker_0, # of connection points: 2
#     Edge 30, Type (0, 1), BuildingBlock: MIFKUJ_clean_linker_0, # of connection points: 2
#     Edge 31, Type (0, 1), BuildingBlock: MIFKUJ_clean_linker_0, # of connection points: 2
#     Edge 32, Type (0, 1), BuildingBlock: MIFKUJ_clean_linker_0, # of connection points: 2
#     Edge 33, Type (0, 1), BuildingBlock: MIFKUJ_clean_linker_0, # of connection points: 2
#     Edge 34, Type (0, 1), BuildingBlock: MIFKUJ_clean_linker_0, # of connection points: 2
#     Edge 35, Type (0, 1), BuildingBlock: MIFKUJ_clean_linker_0, # of connection points: 2
# Relax obj value: 0.004
# Max RMSD: 0.020
# Mean RMSD: 0.012
data_MOF--net-ssa--node1-KOZSID_clean_sbu_0--node2-MIFKUJ_clean_linker_1--edge1-MIFKUJ_clean_linker_0
_symmetry_space_group_name_H-M    P1
_symmetry_Int_Tables_number       1
_symmetry_cell_setting            triclinic
loop_
_symmetry_equiv_pos_as_xyz
'x, y, z'
_cell_length_a     79.913485
_cell_length_b     81.300353
_cell_length_c     52.125104
_cell_angle_alpha  88.084404
_cell_angle_beta   89.955486
_cell_angle_gamma 121.73555
loop_
_atom_site_label
_atom_site_type_symbol
_atom_site_fract_x
_atom_site_fract_y
_atom_site_fract_z
_atom_type_partial_charge
C0 C 0.96727 0.50843 0.99763 0.0
C1 C 0.95012 0.50414 0.01048 0.0
C2 C 0.9485 0.49333 0.03197 0.0
C3 C 0.96471 0.49171 0.03108 0.0
N4 N 0.9768 0.50111 0.01054 0.0
Co5 Co 0.00171 0.50206 0.00137 0.0
N6 N 0.99886 0.48546 0.03245 0.0
C7 C 0.98428 0.47798 0.05055 0.0
C8 C 0.98638 0.46732 0.06976 0.0
C9 C 0.00351 0.46832 0.06387 0.0
C10 C 0.01097 0.47968 0.04139 0.0
N11 N 0.02637 0.50261 0.99189 0.0
C12 C 0.03593 0.49527 0.00474 0.0
C13 C 0.05307 0.49963 0.99176 0.0
C14 C 0.05434 0.50999 0.96996 0.0
C15 C 0.03809 0.51151 0.97088 0.0
N16 N 0.00479 0.51906 0.97061 0.0
C17 C 0.0197 0.52702 0.95297 0.0
C18 C 0.01752 0.53751 0.93361 0.0
C19 C 1.0001 0.53607 0.93903 0.0
C20 C 0.99266 0.5248 0.96159 0.0
N21 N 0.0173 0.52544 0.02188 0.0
C22 C 0.04034 0.5577 0.05208 0.0
C23 C 0.04716 0.55632 0.02808 0.0
C24 C 0.03544 0.54029 0.01334 0.0
C25 C 0.02163 0.54289 0.06051 0.0
C26 C 0.0105 0.52697 0.04529 0.0
N27 N 0.98612 0.47868 0.98087 0.0
C28 C 0.97987 0.46249 0.9407 0.0
C29 C 0.9629 0.44611 0.95105 0.0
C30 C 0.958 0.44624 0.97677 0.0
C31 C 0.96964 0.46252 0.99113 0.0
C32 C 0.9912 0.4784 0.95584 0.0
H33 H 0.9649 0.46171 0.01045 0.0
H34 H 0.00388 0.49039 0.94673 0.0
H35 H 0.04148 0.54019 0.9952 0.0
H36 H 0.99656 0.51599 0.05307 0.0
C37 C 0.96883 0.48127 0.04903 0.0
C38 C 0.97351 0.519 0.97288 0.0
C39 C 0.02991 0.48508 0.02982 0.0
C40 C 0.03452 0.52282 0.95375 0.0
H41 H 0.93972 0.50819 0.00472 0.0
H42 H 0.93676 0.48716 0.04635 0.0
H43 H 0.9767 0.45989 0.08622 0.0
H44 H 0.00994 0.46163 0.07506 0.0
H45 H 0.0639 0.49621 0.99767 0.0
H46 H 0.06614 0.51634 0.95565 0.0
H47 H 0.02709 0.54471 0.91699 0.0
H48 H 0.99342 0.54219 0.92723 0.0
H49 H 0.06148 0.56762 0.02062 0.0
H50 H 0.0158 0.54331 0.07908 0.0
H51 H 0.98426 0.46327 0.92082 0.0
H52 H 0.94524 0.4338 0.98593 0.0
C53 C 0.53047 0.0097 0.54375 0.0
C54 C 0.53198 0.00169 0.56693 0.0
C55 C 0.51429 0.98498 0.57154 0.0
C56 C 0.50308 0.98366 0.55092 0.0
N57 N 0.51263 0.99837 0.53318 0.0
Co58 Co 0.50183 0.00215 0.50027 0.0
N59 N 0.47546 0.97808 0.50775 0.0
C60 C 0.47 0.96606 0.52883 0.0
C61 C 0.45107 0.95052 0.52828 0.0
C62 C 0.44406 0.95254 0.50531 0.0
C63 C 0.45924 0.96923 0.4931 0.0
N64 N 0.49097 0.00595 0.46739 0.0
C65 C 0.47326 0.99441 0.45658 0.0
C66 C 0.47196 0.00208 0.43299 0.0
C67 C 0.4895 0.01899 0.42864 0.0
C68 C 0.50049 0.02066 0.44966 0.0
N69 N 0.52825 0.02619 0.49275 0.0
C70 C 0.53356 0.03828 0.47174 0.0
C71 C 0.55225 0.05414 0.47253 0.0
C72 C 0.55931 0.05223 0.49549 0.0
C73 C 0.54449 0.03511 0.50741 0.0
N74 N 0.51031 0.98653 0.48213 0.0
C75 C 0.52056 0.96339 0.45529 0.0
C76 C 0.52457 0.98116 0.44476 0.0
C77 C 0.51943 0.99243 0.45842 0.0
C78 C 0.51166 0.95757 0.47968 0.0
C79 C 0.5067 0.96925 0.49262 0.0
N80 N 0.49336 0.01779 0.51846 0.0
C81 C 0.49297 0.04722 0.52163 0.0
C82 C 0.48357 0.04111 0.54569 0.0
C83 C 0.47872 0.02293 0.55563 0.0
C84 C 0.48376 0.01163 0.54185 0.0
C85 C 0.49756 0.03539 0.50839 0.0
H86 H 0.47997 0.99811 0.55073 0.0
H87 H 0.50468 0.04091 0.49017 0.0
H88 H 0.52285 0.00578 0.4493 0.0
H89 H 0.49971 0.96383 0.51094 0.0
C90 C 0.48335 0.96918 0.54815 0.0
C91 C 0.54614 0.02844 0.53313 0.0
C92 C 0.45775 0.97564 0.46722 0.0
C93 C 0.52018 0.03513 0.45248 0.0
H94 H 0.54447 0.0075 0.57945 0.0
H95 H 0.50999 0.97515 0.58816 0.0
H96 H 0.44344 0.93886 0.5426 0.0
H97 H 0.42955 0.94265 0.4981 0.0
H98 H 0.4598 0.99587 0.41994 0.0
H99 H 0.49394 0.02862 0.41178 0.0
H100 H 0.55962 0.06604 0.45847 0.0
H101 H 0.57358 0.06263 0.50281 0.0
H102 H 0.53172 0.98644 0.42607 0.0
H103 H 0.50807 0.94383 0.48857 0.0
H104 H 0.49672 0.06107 0.51294 0.0
H105 H 0.47152 0.01762 0.5743 0.0
C106 C 0.5321 0.52332 0.95904 0.0
C107 C 0.53498 0.533 0.93544 0.0
C108 C 0.51837 0.53336 0.93095 0.0
C109 C 0.50626 0.52375 0.9518 0.0
N110 N 0.51421 0.51752 0.9696 0.0
Co111 Co 0.50071 0.50095 0.00133 0.0
N112 N 0.4759 0.50067 0.99403 0.0
C113 C 0.47311 0.51038 0.97461 0.0
C114 C 0.45519 0.50878 0.97561 0.0
C115 C 0.446 0.49755 0.99715 0.0
C116 C 0.45885 0.49275 0.00795 0.0
N117 N 0.48693 0.48351 0.03226 0.0
C118 C 0.46841 0.47618 0.04164 0.0
C119 C 0.46443 0.46389 0.06299 0.0
C120 C 0.48119 0.4638 0.0676 0.0
C121 C 0.49431 0.47582 0.04874 0.0
N122 N 0.52579 0.50206 0.00941 0.0
C123 C 0.52941 0.49442 0.03056 0.0
C124 C 0.54823 0.49811 0.03125 0.0
C125 C 0.55711 0.50858 0.00908 0.0
C126 C 0.54306 0.51048 0.99599 0.0
N127 N 0.50965 0.52422 0.0219 0.0
C128 C 0.52056 0.55654 0.05176 0.0
C129 C 0.51909 0.53988 0.06258 0.0
C130 C 0.51381 0.52409 0.04741 0.0
C131 C 0.51688 0.55693 0.02564 0.0
C132 C 0.51141 0.54073 0.01122 0.0
N133 N 0.49179 0.47772 0.98078 0.0
C134 C 0.49164 0.44856 0.97247 0.0
C135 C 0.48089 0.44578 0.95022 0.0
C136 C 0.47533 0.45903 0.94378 0.0
C137 C 0.48097 0.47482 0.95914 0.0
C138 C 0.49675 0.4644 0.98746 0.0
H139 H 0.47661 0.48462 0.95291 0.0
H140 H 0.50486 0.46563 0.00426 0.0
H141 H 0.51305 0.5119 0.05686 0.0
H142 H 0.50846 0.54185 0.99154 0.0
C143 C 0.48741 0.52044 0.95534 0.0
C144 C 0.54646 0.51941 0.97025 0.0
C145 C 0.45444 0.48108 0.03176 0.0
C146 C 0.5142 0.48185 0.04767 0.0
H147 H 0.54761 0.53895 0.92253 0.0
H148 H 0.51535 0.53962 0.91428 0.0
H149 H 0.44952 0.51514 0.96236 0.0
H150 H 0.43156 0.49358 0.00418 0.0
H151 H 0.45096 0.45615 0.07442 0.0
H152 H 0.4837 0.45637 0.08332 0.0
H153 H 0.55449 0.49312 0.04563 0.0
H154 H 0.57206 0.51373 0.00288 0.0
H155 H 0.52209 0.53904 0.08269 0.0
H156 H 0.51772 0.56951 0.01648 0.0
H157 H 0.49602 0.43849 0.97839 0.0
H158 H 0.46709 0.4575 0.9266 0.0
C159 C 0.96646 0.45761 0.51039 0.0
C160 C 0.94856 0.44309 0.50118 0.0
C161 C 0.9452 0.45045 0.47928 0.0
C162 C 0.96107 0.46898 0.47643 0.0
N163 N 0.9745 0.47391 0.49508 0.0
Co164 Co 0.99923 0.49982 0.49912 0.0
N165 N 0.99392 0.51079 0.46726 0.0
C166 C 0.97835 0.50152 0.4517 0.0
C167 C 0.97923 0.51248 0.4306 0.0
C168 C 0.99653 0.52972 0.43256 0.0
C169 C 0.00519 0.52829 0.45492 0.0
N170 N 0.02382 0.52576 0.50335 0.0
C171 C 0.03199 0.54193 0.48783 0.0
C172 C 0.04922 0.5569 0.49784 0.0
C173 C 0.05229 0.54979 0.52021 0.0
C174 C 0.03678 0.53102 0.52265 0.0
N175 N 0.00472 0.48881 0.53076 0.0
C176 C 0.02049 0.498 0.54605 0.0
C177 C 0.02022 0.48668 0.5663 0.0
C178 C 0.00319 0.46923 0.56397 0.0
C179 C 0.99397 0.47099 0.54241 0.0
N180 N 0.01423 0.49182 0.47796 0.0
C181 C 0.03646 0.48255 0.44634 0.0
C182 C 0.04424 0.49246 0.46882 0.0
C183 C 0.03291 0.49676 0.48434 0.0
C184 C 0.01721 0.47693 0.44023 0.0
C185 C 0.00648 0.48176 0.45612 0.0
N186 N 0.98424 0.50786 0.52029 0.0
C187 C 0.98072 0.52174 0.55877 0.0
C188 C 0.96234 0.51802 0.55119 0.0
C189 C 0.95521 0.5094 0.52775 0.0
C190 C 0.96637 0.50461 0.51265 0.0
C191 C 0.99127 0.51649 0.54323 0.0
H192 H 0.96014 0.49819 0.49497 0.0
H193 H 0.00497 0.51938 0.55038 0.0
H194 H 0.03966 0.50428 0.50125 0.0
H195 H 0.99205 0.47744 0.45011 0.0
C196 C 0.96357 0.48222 0.45677 0.0
C197 C 0.9748 0.45546 0.53423 0.0
C198 C 0.02456 0.54352 0.46294 0.0
C199 C 0.03477 0.51757 0.54171 0.0
H200 H 0.93875 0.42874 0.50959 0.0
H201 H 0.93253 0.44325 0.46712 0.0
H202 H 0.96878 0.50825 0.41526 0.0
H203 H 0.00231 0.5418 0.41876 0.0
H204 H 0.05881 0.57132 0.48949 0.0
H205 H 0.06466 0.55723 0.53279 0.0
H206 H 0.03095 0.49073 0.58125 0.0
H207 H 0.99799 0.45671 0.57689 0.0
H208 H 0.05902 0.49684 0.4745 0.0
H209 H 0.01063 0.46929 0.42289 0.0
H210 H 0.98674 0.52825 0.57693 0.0
H211 H 0.94112 0.50646 0.52097 0.0
C212 C 0.4718 0.99321 0.04397 0.0
C213 C 0.47032 0.00182 0.06572 0.0
C214 C 0.48776 0.01895 0.06749 0.0
C215 C 0.49879 0.01992 0.0467 0.0
N216 N 0.48935 0.00454 0.03152 0.0
Co217 Co 0.49978 1.0002 0.99908 0.0
N218 N 0.52601 0.02469 0.00286 0.0
C219 C 0.53165 0.03709 0.02226 0.0
C220 C 0.55053 0.05265 0.01951 0.0
C221 C 0.55734 0.05018 0.99687 0.0
C222 C 0.5421 0.03322 0.98705 0.0
N223 N 0.51017 0.99604 0.96642 0.0
C224 C 0.52766 0.0075 0.95387 0.0
C225 C 0.52862 0.99965 0.93107 0.0
C226 C 0.51106 0.98266 0.92905 0.0
C227 C 0.50042 0.98115 0.95057 0.0
N228 N 0.47364 0.97554 0.99559 0.0
C229 C 0.46826 0.96285 0.97658 0.0
C230 C 0.44996 0.94658 0.98023 0.0
C231 C 0.44326 0.94884 0.00308 0.0
C232 C 0.45787 0.96658 0.012 0.0
N233 N 0.49031 0.01482 0.97905 0.0
C234 C 0.47897 0.03664 0.94902 0.0
C235 C 0.47367 0.01807 0.94226 0.0
C236 C 0.47948 0.0075 0.9574 0.0
C237 C 0.48955 0.04389 0.9714 0.0
C238 C 0.49494 0.03281 0.98604 0.0
N239 N 0.50925 0.9856 0.01908 0.0
C240 C 0.51166 0.95733 0.02526 0.0
C241 C 0.52056 0.96369 0.04888 0.0
C242 C 0.52417 0.98141 0.05708 0.0
C243 C 0.51838 0.99202 0.04203 0.0
C244 C 0.50629 0.96848 0.01072 0.0
H245 H 0.52119 0.00522 0.04957 0.0
H246 H 0.49958 0.96284 0.99291 0.0
H247 H 0.47525 0.99358 0.95099 0.0
H248 H 0.50303 0.03924 0.00279 0.0
C249 C 0.51843 0.03441 0.04187 0.0
C250 C 0.45646 0.97391 0.03661 0.0
C251 C 0.54341 0.02625 0.96221 0.0
C252 C 0.48112 0.96616 0.95616 0.0
H253 H 0.45805 0.99611 0.07922 0.0
H254 H 0.49208 0.02925 0.08249 0.0
H255 H 0.55825 0.06461 0.03213 0.0
H256 H 0.57176 0.05994 0.98827 0.0
H257 H 0.54063 0.00573 0.9171 0.0
H258 H 0.50647 0.97275 0.91352 0.0
H259 H 0.44259 0.93427 0.96809 0.0
H260 H 0.42935 0.93834 0.01231 0.0
H261 H 0.46552 0.01188 0.92499 0.0
H262 H 0.49366 0.0581 0.97767 0.0
H263 H 0.50885 0.94379 0.01799 0.0
H264 H 0.53093 0.98684 0.07537 0.0
C265 C 0.50992 0.54284 0.49646 0.0
C266 C 0.50713 0.55601 0.50908 0.0
C267 C 0.49587 0.5465 0.53046 0.0
C268 C 0.4926 0.5282 0.5298 0.0
N269 N 0.50128 0.52549 0.50943 0.0
Co270 Co 0.50077 0.50131 0.50135 0.0
N271 N 0.48278 0.48681 0.53163 0.0
C272 C 0.47508 0.4936 0.54836 0.0
C273 C 0.46359 0.48045 0.56748 0.0
C274 C 0.46406 0.46429 0.56287 0.0
C275 C 0.47583 0.46854 0.54102 0.0
N276 N 0.5006 0.47721 0.4936 0.0
C277 C 0.49219 0.45997 0.50684 0.0
C278 C 0.49599 0.44714 0.49512 0.0
C279 C 0.50757 0.45675 0.474 0.0
C280 C 0.51009 0.47478 0.47398 0.0
N281 N 0.5184 0.51569 0.47072 0.0
C282 C 0.52553 0.50868 0.45346 0.0
C283 C 0.53604 0.52145 0.43352 0.0
C284 C 0.53545 0.53754 0.43807 0.0
C285 C 0.5247 0.53371 0.46081 0.0
N286 N 0.52408 0.50954 0.52314 0.0
C287 C 0.5567 0.51992 0.55454 0.0
C288 C 0.55668 0.51516 0.52902 0.0
C289 C 0.54035 0.50996 0.51389 0.0
C290 C 0.54018 0.5197 0.5639 0.0
C291 C 0.52425 0.51463 0.54799 0.0
N292 N 0.47752 0.49312 0.47953 0.0
C293 C 0.46089 0.48108 0.43952 0.0
C294 C 0.44567 0.48355 0.44726 0.0
C295 C 0.4464 0.49049 0.47163 0.0
C296 C 0.46239 0.49524 0.48729 0.0
C297 C 0.47645 0.48575 0.4559 0.0
H298 H 0.46231 0.50085 0.50542 0.0
H299 H 0.48751 0.48344 0.44888 0.0
H300 H 0.54124 0.50622 0.4948 0.0
H301 H 0.51217 0.51473 0.55637 0.0
C302 C 0.48036 0.51293 0.54696 0.0
C303 C 0.52009 0.54724 0.47162 0.0
C304 C 0.48098 0.45524 0.53088 0.0
C305 C 0.52139 0.48974 0.45593 0.0
H306 H 0.51233 0.57085 0.50313 0.0
H307 H 0.49032 0.5521 0.54447 0.0
H308 H 0.45633 0.48258 0.58341 0.0
H309 H 0.45699 0.4511 0.57474 0.0
H310 H 0.49109 0.43242 0.50138 0.0
H311 H 0.5136 0.45131 0.46044 0.0
H312 H 0.54287 0.51913 0.41723 0.0
H313 H 0.54185 0.55041 0.42563 0.0
H314 H 0.56923 0.51544 0.5206 0.0
H315 H 0.53928 0.52302 0.58361 0.0
H316 H 0.46076 0.47547 0.42091 0.0
H317 H 0.43494 0.49273 0.47834 0.0
H318 H 0.1809 0.42242 0.18466 0.0
H319 H 0.15592 0.42501 0.16087 0.0
H320 H 0.17811 0.48172 0.19073 0.0
H321 H 0.2026 0.47875 0.21486 0.0
H322 H 0.22209 0.44622 0.18269 0.0
H323 H 0.16891 0.42634 0.24279 0.0
H324 H 0.14447 0.42938 0.26662 0.0
H325 H 0.19121 0.47834 0.30506 0.0
H326 H 0.21548 0.47616 0.27968 0.0
H327 H 0.2692 0.48132 0.26498 0.0
H328 H 0.29691 0.48385 0.28878 0.0
H329 H 0.27406 0.42323 0.27834 0.0
H330 H 0.24663 0.4209 0.25382 0.0
H331 H 0.22559 0.45157 0.27738 0.0
H332 H 0.2762 0.47779 0.2111 0.0
H333 H 0.30306 0.47905 0.187 0.0
H334 H 0.26343 0.42049 0.16373 0.0
H335 H 0.23648 0.41953 0.18764 0.0
C336 C 0.19343 0.45029 0.20172 0.0
C337 C 0.18034 0.43539 0.186 0.0
C338 C 0.16613 0.43694 0.17237 0.0
C339 C 0.1649 0.45353 0.174 0.0
C340 C 0.17832 0.46856 0.18945 0.0
C341 C 0.19242 0.46695 0.20315 0.0
C342 C 0.20819 0.44853 0.21673 0.0
C343 C 0.22258 0.44699 0.20344 0.0
C344 C 0.2091 0.44999 0.24379 0.0
C345 C 0.19409 0.45123 0.25904 0.0
C346 C 0.17389 0.43794 0.25602 0.0
C347 C 0.1599 0.43952 0.27 0.0
C348 C 0.16579 0.45418 0.28776 0.0
C349 C 0.18605 0.46714 0.29118 0.0
C350 C 0.2 0.46575 0.27689 0.0
C351 C 0.25596 0.45094 0.25774 0.0
C352 C 0.27022 0.46861 0.26778 0.0
C353 C 0.28602 0.47006 0.2812 0.0
C354 C 0.28752 0.45373 0.28528 0.0
C355 C 0.27313 0.43598 0.27544 0.0
C356 C 0.25754 0.43464 0.26149 0.0
C357 C 0.23945 0.44963 0.24326 0.0
C358 C 0.22477 0.45049 0.25668 0.0
C359 C 0.23838 0.44784 0.2164 0.0
C360 C 0.25444 0.44849 0.20137 0.0
C361 C 0.27334 0.46519 0.20091 0.0
C362 C 0.28869 0.46585 0.18719 0.0
C363 C 0.28547 0.4498 0.1736 0.0
C364 C 0.2664 0.43316 0.17381 0.0
C365 C 0.251 0.43254 0.18751 0.0
H366 H 0.73098 0.21145 0.78751 0.0
H367 H 0.70305 0.18585 0.81268 0.0
H368 H 0.7121 0.1432 0.77892 0.0
H369 H 0.74055 0.16898 0.75462 0.0
H370 H 0.76851 0.2238 0.78812 0.0
H371 H 0.71986 0.20063 0.72357 0.0
H372 H 0.69282 0.17633 0.69865 0.0
H373 H 0.73017 0.15634 0.67208 0.0
H374 H 0.75741 0.18129 0.69643 0.0
H375 H 0.81859 0.23942 0.70137 0.0
H376 H 0.84586 0.26732 0.6779 0.0
H377 H 0.82103 0.30171 0.69664 0.0
H378 H 0.79446 0.27404 0.72085 0.0
H379 H 0.77501 0.22239 0.69361 0.0
H380 H 0.82451 0.24921 0.76176 0.0
H381 H 0.84906 0.27563 0.78716 0.0
H382 H 0.80659 0.29159 0.8046 0.0
H383 H 0.78198 0.26454 0.78027 0.0
C384 C 0.73778 0.19214 0.76903 0.0
C385 C 0.72699 0.19659 0.7856 0.0
C386 C 0.7109 0.18191 0.79979 0.0
C387 C 0.70526 0.16245 0.79772 0.0
C388 C 0.71613 0.15804 0.78113 0.0
C389 C 0.73228 0.17275 0.767 0.0
C390 C 0.75499 0.20786 0.75421 0.0
C391 C 0.76983 0.22347 0.76745 0.0
C392 C 0.75686 0.20748 0.72725 0.0
C393 C 0.74057 0.19265 0.71197 0.0
C394 C 0.72219 0.19098 0.71239 0.0
C395 C 0.7067 0.17696 0.69823 0.0
C396 C 0.7092 0.1642 0.68344 0.0
C397 C 0.72774 0.16604 0.68296 0.0
C398 C 0.74332 0.18023 0.69696 0.0
C399 C 0.80465 0.25477 0.7129 0.0
C400 C 0.81913 0.25303 0.70037 0.0
C401 C 0.83463 0.26897 0.68688 0.0
C402 C 0.83574 0.28686 0.68539 0.0
C403 C 0.82096 0.28836 0.69779 0.0
C404 C 0.80565 0.27251 0.71148 0.0
C405 C 0.7884 0.23814 0.72762 0.0
C406 C 0.77376 0.22243 0.71433 0.0
C407 C 0.78643 0.23864 0.75444 0.0
C408 C 0.80146 0.25492 0.76928 0.0
C409 C 0.82056 0.25843 0.77114 0.0
C410 C 0.83461 0.27365 0.78553 0.0
C411 C 0.82988 0.28581 0.7981 0.0
C412 C 0.81072 0.28233 0.79576 0.0
C413 C 0.79662 0.26694 0.78171 0.0
H414 H 0.58432 0.81554 0.30981 0.0
H415 H 0.5807 0.83893 0.3338 0.0
H416 H 0.52569 0.8206 0.29629 0.0
H417 H 0.52952 0.79746 0.27227 0.0
H418 H 0.56026 0.77572 0.30799 0.0
H419 H 0.58249 0.83118 0.25056 0.0
H420 H 0.5789 0.85563 0.22734 0.0
H421 H 0.53248 0.81085 0.18296 0.0
H422 H 0.53487 0.78646 0.20794 0.0
H423 H 0.52993 0.7366 0.2178 0.0
H424 H 0.52722 0.70979 0.19403 0.0
H425 H 0.58519 0.72522 0.21815 0.0
H426 H 0.58765 0.75178 0.24266 0.0
H427 H 0.56003 0.77733 0.21276 0.0
H428 H 0.53077 0.72367 0.27235 0.0
H429 H 0.52714 0.69608 0.29735 0.0
H430 H 0.5811 0.73422 0.33628 0.0
H431 H 0.58512 0.76173 0.31015 0.0
C432 C 0.55734 0.80497 0.28899 0.0
C433 C 0.57147 0.81656 0.30685 0.0
C434 C 0.56934 0.82987 0.32059 0.0
C435 C 0.55298 0.83175 0.31682 0.0
C436 C 0.53867 0.81982 0.29927 0.0
C437 C 0.5408 0.80653 0.28558 0.0
C438 C 0.55982 0.7912 0.2739 0.0
C439 C 0.56066 0.77635 0.28715 0.0
C440 C 0.55974 0.7917 0.24668 0.0
C441 C 0.55868 0.80689 0.23142 0.0
C442 C 0.57131 0.82661 0.23613 0.0
C443 C 0.56943 0.84064 0.2225 0.0
C444 C 0.55526 0.83529 0.20333 0.0
C445 C 0.54319 0.81557 0.19803 0.0
C446 C 0.54476 0.80156 0.21206 0.0
C447 C 0.55897 0.7461 0.23196 0.0
C448 C 0.54207 0.73423 0.21794 0.0
C449 C 0.54049 0.71892 0.20451 0.0
C450 C 0.55599 0.71554 0.2044 0.0
C451 C 0.57309 0.72764 0.218 0.0
C452 C 0.57449 0.74273 0.23195 0.0
C453 C 0.56007 0.76181 0.24687 0.0
C454 C 0.56004 0.77703 0.23358 0.0
C455 C 0.56035 0.76141 0.27398 0.0
C456 C 0.55842 0.7447 0.28903 0.0
C457 C 0.54203 0.72605 0.28589 0.0
C458 C 0.53982 0.71032 0.30049 0.0
C459 C 0.55381 0.71294 0.31887 0.0
C460 C 0.57021 0.73167 0.32204 0.0
C461 C 0.57246 0.74742 0.30728 0.0
H462 H 0.73934 0.52611 0.72669 0.0
H463 H 0.71295 0.52427 0.70124 0.0
H464 H 0.72765 0.58029 0.72715 0.0
H465 H 0.75354 0.58147 0.75369 0.0
H466 H 0.7795 0.55426 0.72403 0.0
H467 H 0.72419 0.52843 0.78077 0.0
H468 H 0.69723 0.52733 0.8045 0.0
H469 H 0.73911 0.57578 0.84802 0.0
H470 H 0.76623 0.57769 0.82313 0.0
H471 H 0.81728 0.57604 0.82317 0.0
H472 H 0.84061 0.57202 0.84875 0.0
H473 H 0.82552 0.52079 0.80767 0.0
H474 H 0.80149 0.5243 0.78331 0.0
H475 H 0.77832 0.55363 0.81918 0.0
H476 H 0.83433 0.57576 0.76154 0.0
H477 H 0.8588 0.57288 0.73731 0.0
H478 H 0.81212 0.52637 0.69539 0.0
H479 H 0.78785 0.5284 0.72087 0.0
C480 C 0.74836 0.55391 0.74202 0.0
C481 C 0.73689 0.53801 0.72682 0.0
C482 C 0.72187 0.53706 0.71213 0.0
C483 C 0.71822 0.55223 0.71185 0.0
C484 C 0.72985 0.56824 0.72709 0.0
C485 C 0.74474 0.56902 0.74214 0.0
C486 C 0.76406 0.55442 0.75768 0.0
C487 C 0.77927 0.55406 0.74486 0.0
C488 C 0.76374 0.55445 0.78482 0.0
C489 C 0.7473 0.55353 0.79956 0.0
C490 C 0.72766 0.5392 0.79486 0.0
C491 C 0.71224 0.53845 0.80856 0.0
C492 C 0.71618 0.55158 0.82784 0.0
C493 C 0.73578 0.56556 0.83314 0.0
C494 C 0.75122 0.56661 0.81898 0.0
C495 C 0.80784 0.55065 0.80105 0.0
C496 C 0.81893 0.56388 0.81983 0.0
C497 C 0.83241 0.56166 0.83426 0.0
C498 C 0.83508 0.54615 0.83019 0.0
C499 C 0.82374 0.53279 0.81155 0.0
C500 C 0.81014 0.53492 0.79734 0.0
C501 C 0.79371 0.55315 0.78552 0.0
C502 C 0.77881 0.55416 0.79835 0.0
C503 C 0.79404 0.55329 0.75832 0.0
C504 C 0.8092 0.55213 0.74331 0.0
C505 C 0.82938 0.56475 0.7474 0.0
C506 C 0.84339 0.56324 0.73327 0.0
C507 C 0.83749 0.54929 0.71444 0.0
C508 C 0.81726 0.53698 0.7101 0.0
C509 C 0.80332 0.5383 0.72446 0.0
H510 H 0.246 0.82337 0.21628 0.0
H511 H 0.27404 0.8489 0.19102 0.0
H512 H 0.31081 0.82908 0.22244 0.0
H513 H 0.28288 0.80415 0.24827 0.0
H514 H 0.22993 0.78249 0.21529 0.0
H515 H 0.261 0.83441 0.27438 0.0
H516 H 0.28889 0.85905 0.298 0.0
H517 H 0.29395 0.81427 0.33743 0.0
H518 H 0.26675 0.78985 0.31281 0.0
H519 H 0.21824 0.742 0.31304 0.0
H520 H 0.19238 0.71347 0.3368 0.0
H521 H 0.14833 0.7192 0.29648 0.0
H522 H 0.17433 0.74839 0.27381 0.0
H523 H 0.2296 0.77832 0.3105 0.0
H524 H 0.20586 0.72832 0.25059 0.0
H525 H 0.18133 0.70133 0.22603 0.0
H526 H 0.16536 0.73914 0.18828 0.0
H527 H 0.18965 0.76603 0.21352 0.0
C528 C 0.26244 0.81202 0.23425 0.0
C529 C 0.26016 0.82464 0.21774 0.0
C530 C 0.27619 0.83914 0.20322 0.0
C531 C 0.29475 0.84109 0.20464 0.0
C532 C 0.29689 0.8283 0.22119 0.0
C533 C 0.2809 0.81395 0.23588 0.0
C534 C 0.24543 0.79648 0.24937 0.0
C535 C 0.22963 0.78176 0.23613 0.0
C536 C 0.24548 0.79524 0.27651 0.0
C537 C 0.26192 0.81027 0.29154 0.0
C538 C 0.26825 0.82992 0.28792 0.0
C539 C 0.28408 0.84399 0.30168 0.0
C540 C 0.29375 0.83868 0.31958 0.0
C541 C 0.2871 0.81894 0.32349 0.0
C542 C 0.27138 0.80491 0.30962 0.0
C543 C 0.19826 0.74725 0.29144 0.0
C544 C 0.20301 0.73725 0.30954 0.0
C545 C 0.18818 0.72078 0.32289 0.0
C546 C 0.16824 0.71389 0.31836 0.0
C547 C 0.16351 0.72416 0.30059 0.0
C548 C 0.17837 0.74075 0.2874 0.0
C549 C 0.21415 0.76418 0.27645 0.0
C550 C 0.22973 0.77918 0.28968 0.0
C551 C 0.21423 0.76541 0.24928 0.0
C552 C 0.19942 0.74913 0.2341 0.0
C553 C 0.19697 0.73076 0.23718 0.0
C554 C 0.18306 0.71539 0.22296 0.0
C555 C 0.1714 0.71809 0.20518 0.0
C556 C 0.17395 0.73654 0.20203 0.0
C557 C 0.18791 0.75194 0.21627 0.0
H558 H 0.46525 0.25947 0.792 0.0
H559 H 0.46809 0.28584 0.81623 0.0
H560 H 0.42037 0.28309 0.7735 0.0
H561 H 0.41681 0.25577 0.75036 0.0
H562 H 0.43862 0.22374 0.78844 0.0
H563 H 0.46916 0.27853 0.72978 0.0
H564 H 0.47277 0.30596 0.70432 0.0
H565 H 0.42102 0.26698 0.662 0.0
H566 H 0.41689 0.23972 0.68861 0.0
H567 H 0.41621 0.18544 0.69209 0.0
H568 H 0.42066 0.16244 0.66827 0.0
H569 H 0.4756 0.18181 0.70647 0.0
H570 H 0.47119 0.20489 0.72989 0.0
H571 H 0.44108 0.22618 0.69323 0.0
H572 H 0.41682 0.17032 0.75096 0.0
H573 H 0.42015 0.14573 0.77436 0.0
H574 H 0.46689 0.19037 0.81845 0.0
H575 H 0.46453 0.21489 0.79362 0.0
C576 C 0.44093 0.25569 0.76914 0.0
C577 C 0.45522 0.26436 0.78802 0.0
C578 C 0.457 0.27967 0.80166 0.0
C579 C 0.44465 0.28684 0.79663 0.0
C580 C 0.43008 0.2779 0.77802 0.0
C581 C 0.42815 0.26239 0.76455 0.0
C582 C 0.43985 0.23989 0.75416 0.0
C583 C 0.43926 0.22435 0.76761 0.0
C584 C 0.4403 0.24044 0.72695 0.0
C585 C 0.44254 0.25711 0.71142 0.0
C586 C 0.45841 0.27593 0.7153 0.0
C587 C 0.4606 0.29158 0.70047 0.0
C588 C 0.44719 0.2887 0.68107 0.0
C589 C 0.43143 0.26978 0.67704 0.0
C590 C 0.42914 0.25415 0.69208 0.0
C591 C 0.44328 0.19673 0.71289 0.0
C592 C 0.42922 0.18474 0.69523 0.0
C593 C 0.43172 0.17153 0.6818 0.0
C594 C 0.44846 0.1703 0.68555 0.0
C595 C 0.46263 0.18253 0.70301 0.0
C596 C 0.46007 0.19563 0.71652 0.0
C597 C 0.44049 0.21045 0.72758 0.0
C598 C 0.44015 0.22547 0.71405 0.0
C599 C 0.43985 0.20976 0.75474 0.0
C600 C 0.44066 0.19452 0.77018 0.0
C601 C 0.42795 0.17481 0.76544 0.0
C602 C 0.42971 0.16072 0.77911 0.0
C603 C 0.44392 0.16603 0.79819 0.0
C604 C 0.45611 0.18574 0.80348 0.0
C605 C 0.45458 0.1998 0.78953 0.0
H606 H 0.04284 0.46108 0.01788 0.0
H607 H 0.06553 0.45513 0.04216 0.0
H608 H 0.06892 0.4935 0.10007 0.0
H609 H 0.04727 0.50036 0.07485 0.0
H610 H 0.10332 0.50015 0.09225 0.0
H611 H 0.04073 0.44194 0.10732 0.0
H612 H 0.00921 0.41317 0.09574 0.0
H613 H 0.04021 0.39136 0.05599 0.0
H614 H 0.07194 0.42015 0.06702 0.0
H615 H 0.14359 0.46904 0.18999 0.0
H616 H 0.12019 0.47355 0.1654 0.0
H617 H 0.12808 0.44608 0.10114 0.0
H618 H 0.15197 0.44198 0.12529 0.0
H619 H 0.08815 0.43353 0.11239 0.0
H620 H 0.15109 0.49316 0.09901 0.0
H621 H 0.18173 0.52171 0.11336 0.0
H622 H 0.14815 0.54031 0.15397 0.0
H623 H 0.1173 0.51171 0.14014 0.0
C624 C 0.04863 0.46832 0.03569 0.0
C625 C 0.04353 0.48126 0.04451 0.0
C626 C 0.06139 0.46477 0.04971 0.0
C627 C 0.06873 0.47361 0.07322 0.0
C628 C 0.0635 0.48651 0.08202 0.0
C629 C 0.05109 0.49036 0.06772 0.0
C630 C 0.0821 0.46973 0.08849 0.0
C631 C 0.0998 0.48555 0.09692 0.0
C632 C 0.07777 0.4507 0.09432 0.0
C633 C 0.05871 0.4333 0.0878 0.0
C634 C 0.04083 0.43108 0.09596 0.0
C635 C 0.02292 0.41476 0.08952 0.0
C636 C 0.02271 0.40047 0.07509 0.0
C637 C 0.0404 0.40245 0.06714 0.0
C638 C 0.05835 0.41876 0.0735 0.0
C639 C 0.1405 0.46409 0.17055 0.0
C640 C 0.14984 0.45531 0.15955 0.0
C641 C 0.12703 0.46658 0.1566 0.0
C642 C 0.12255 0.46029 0.13141 0.0
C643 C 0.13134 0.451 0.12059 0.0
C644 C 0.14493 0.44861 0.13447 0.0
C645 C 0.10913 0.46392 0.1161 0.0
C646 C 0.09151 0.44807 0.10767 0.0
C647 C 0.11334 0.4829 0.11067 0.0
C648 C 0.13189 0.50021 0.11872 0.0
C649 C 0.15024 0.50327 0.11114 0.0
C650 C 0.16765 0.51947 0.11916 0.0
C651 C 0.16689 0.53279 0.13461 0.0
C652 C 0.14872 0.52997 0.14202 0.0
C653 C 0.13127 0.51378 0.13407 0.0
H654 H 0.18038 0.54532 0.14081 0.0
H655 H 0.00883 0.38785 0.07011 0.0
H656 H 0.54513 0.04442 0.57759 0.0
H657 H 0.57285 0.06614 0.60415 0.0
H658 H 0.61292 0.06369 0.55104 0.0
H659 H 0.58495 0.04091 0.52544 0.0
H660 H 0.62478 0.06364 0.59661 0.0
H661 H 0.6051 0.10291 0.55193 0.0
H662 H 0.58189 0.11237 0.53724 0.0
H663 H 0.56992 0.11889 0.61533 0.0
H664 H 0.59285 0.10919 0.63052 0.0
H665 H 0.71052 0.1514 0.63573 0.0
H666 H 0.68299 0.12717 0.61114 0.0
H667 H 0.64256 0.11927 0.67199 0.0
H668 H 0.66999 0.14287 0.69722 0.0
H669 H 0.63151 0.12504 0.62227 0.0
H670 H 0.65253 0.08578 0.66573 0.0
H671 H 0.67671 0.07709 0.67849 0.0
H672 H 0.68782 0.0723 0.59931 0.0
H673 H 0.66391 0.08125 0.58606 0.0
C674 C 0.55988 0.04846 0.57179 0.0
C675 C 0.56305 0.04132 0.54936 0.0
C676 C 0.57572 0.06098 0.5868 0.0
C677 C 0.59509 0.06702 0.57927 0.0
C678 C 0.59817 0.0594 0.55718 0.0
C679 C 0.58226 0.04652 0.54248 0.0
C680 C 0.61211 0.0814 0.59424 0.0
C681 C 0.62635 0.07717 0.60188 0.0
C682 C 0.61413 0.09901 0.60147 0.0
C683 C 0.60057 0.10516 0.59237 0.0
C684 C 0.59744 0.10626 0.56598 0.0
C685 C 0.58434 0.11167 0.55756 0.0
C686 C 0.5744 0.11618 0.57534 0.0
C687 C 0.57761 0.11537 0.60158 0.0
C688 C 0.59067 0.10993 0.61011 0.0
C689 C 0.69584 0.1443 0.64414 0.0
C690 C 0.69254 0.14918 0.66851 0.0
C691 C 0.68011 0.13053 0.62996 0.0
C692 C 0.66077 0.12144 0.63978 0.0
C693 C 0.65739 0.12622 0.66403 0.0
C694 C 0.6731 0.13981 0.67835 0.0
C695 C 0.644 0.10719 0.62459 0.0
C696 C 0.62986 0.11149 0.61689 0.0
C697 C 0.64227 0.08984 0.61695 0.0
C698 C 0.65658 0.08438 0.6249 0.0
C699 C 0.66026 0.08304 0.65103 0.0
C700 C 0.67389 0.07803 0.65835 0.0
C701 C 0.68383 0.0742 0.63972 0.0
C702 C 0.68013 0.07531 0.61372 0.0
C703 C 0.66653 0.08033 0.6063 0.0
H704 H 0.69438 0.07032 0.64543 0.0
H705 H 0.56425 0.12035 0.56879 0.0
H706 H 0.54674 0.59504 0.04065 0.0
H707 H 0.55414 0.62245 0.06697 0.0
H708 H 0.51267 0.58302 0.1251 0.0
H709 H 0.50518 0.55559 0.0989 0.0
H710 H 0.50829 0.61435 0.11166 0.0
H711 H 0.55991 0.60281 0.13518 0.0
H712 H 0.5879 0.5989 0.12618 0.0
H713 H 0.62038 0.65627 0.0916 0.0
H714 H 0.59245 0.66042 0.10008 0.0
H715 H 0.52838 0.67736 0.21161 0.0
H716 H 0.52394 0.65056 0.18634 0.0
H717 H 0.57431 0.69067 0.13864 0.0
H718 H 0.57935 0.71734 0.16495 0.0
H719 H 0.57467 0.65949 0.14517 0.0
H720 H 0.52488 0.67212 0.12017 0.0
H721 H 0.49728 0.67711 0.12637 0.0
H722 H 0.46175 0.61948 0.15939 0.0
H723 H 0.48923 0.61423 0.15372 0.0
C724 C 0.5392 0.59225 0.05903 0.0
C725 C 0.52542 0.57319 0.06777 0.0
C726 C 0.54352 0.60788 0.07409 0.0
C727 C 0.53402 0.60472 0.09803 0.0
C728 C 0.52019 0.58573 0.10671 0.0
C729 C 0.51602 0.5701 0.09181 0.0
C730 C 0.53816 0.62121 0.11386 0.0
C731 C 0.52273 0.6241 0.11928 0.0
C732 C 0.55718 0.63429 0.12297 0.0
C733 C 0.57402 0.63185 0.11804 0.0
C734 C 0.57296 0.61453 0.12547 0.0
C735 C 0.58882 0.61228 0.1205 0.0
C736 C 0.60589 0.62731 0.10827 0.0
C737 C 0.60714 0.64464 0.10105 0.0
C738 C 0.59131 0.64695 0.10595 0.0
C739 C 0.53856 0.68035 0.19584 0.0
C740 C 0.55412 0.69932 0.19003 0.0
C741 C 0.53596 0.66509 0.18129 0.0
C742 C 0.54847 0.66861 0.1601 0.0
C743 C 0.5644 0.68756 0.15478 0.0
C744 C 0.56727 0.70278 0.16974 0.0
C745 C 0.5447 0.6526 0.14329 0.0
C746 C 0.5602 0.64981 0.13758 0.0
C747 C 0.5258 0.63979 0.13346 0.0
C748 C 0.50918 0.64285 0.13672 0.0
C749 C 0.51122 0.66055 0.1289 0.0
C750 C 0.4956 0.66342 0.1323 0.0
C751 C 0.47779 0.64864 0.14332 0.0
C752 C 0.47556 0.63093 0.15089 0.0
C753 C 0.49115 0.62799 0.14756 0.0
H754 H 0.46571 0.65089 0.14595 0.0
H755 H 0.61816 0.62554 0.10443 0.0
H756 H 0.97458 0.55155 0.57588 0.0
H757 H 0.95494 0.55901 0.60374 0.0
H758 H 0.90395 0.50228 0.59247 0.0
H759 H 0.92341 0.495 0.56413 0.0
H760 H 0.89363 0.52757 0.58965 0.0
H761 H 0.93169 0.51439 0.64858 0.0
H762 H 0.96193 0.51828 0.66698 0.0
H763 H 0.98283 0.57762 0.68178 0.0
H764 H 0.9528 0.57415 0.66314 0.0
H765 H 0.83451 0.51622 0.69789 0.0
H766 H 0.85738 0.51352 0.66995 0.0
H767 H 0.89722 0.57537 0.66931 0.0
H768 H 0.87397 0.57843 0.69629 0.0
H769 H 0.91441 0.55039 0.67776 0.0
H770 H 0.87416 0.56178 0.62005 0.0
H771 H 0.84272 0.55596 0.60332 0.0
H772 H 0.82477 0.49739 0.58802 0.0
H773 H 0.85601 0.50278 0.60506 0.0
C774 C 0.95919 0.54069 0.57944 0.0
C775 C 0.9505 0.5227 0.56788 0.0
C776 C 0.94799 0.54493 0.5954 0.0
C777 C 0.92801 0.53111 0.6005 0.0
C778 C 0.91932 0.51319 0.58879 0.0
C779 C 0.93043 0.50905 0.57259 0.0
C780 C 0.91604 0.53526 0.61787 0.0
C781 C 0.89814 0.53239 0.60898 0.0
C782 C 0.92206 0.54195 0.64296 0.0
C783 C 0.94011 0.54407 0.6542 0.0
C784 C 0.94281 0.52831 0.65557 0.0
C785 C 0.9599 0.53043 0.66607 0.0
C786 C 0.97432 0.5482 0.67547 0.0
C787 C 0.97166 0.56388 0.67445 0.0
C788 C 0.9546 0.56184 0.66393 0.0
C789 C 0.84801 0.52932 0.69164 0.0
C790 C 0.85222 0.54759 0.69912 0.0
C791 C 0.86113 0.52771 0.67585 0.0
C792 C 0.87886 0.54426 0.6675 0.0
C793 C 0.88358 0.56244 0.67565 0.0
C794 C 0.8703 0.56413 0.69117 0.0
C795 C 0.89206 0.54243 0.64953 0.0
C796 C 0.9101 0.54573 0.65832 0.0
C797 C 0.88608 0.53588 0.62448 0.0
C798 C 0.86734 0.53263 0.61406 0.0
C799 C 0.86343 0.54761 0.61334 0.0
C800 C 0.84566 0.5444 0.60375 0.0
C801 C 0.83173 0.5263 0.59467 0.0
C802 C 0.83557 0.51139 0.59509 0.0
C803 C 0.85331 0.51452 0.60469 0.0
H804 H 0.81799 0.52385 0.58725 0.0
H805 H 0.98754 0.54981 0.6836 0.0
H806 H 0.45889 0.95995 0.08361 0.0
H807 H 0.43196 0.93905 0.11403 0.0
H808 H 0.3902 0.93824 0.06073 0.0
H809 H 0.41735 0.9602 0.0311 0.0
H810 H 0.37957 0.94048 0.10627 0.0
H811 H 0.39959 0.90018 0.06875 0.0
H812 H 0.42308 0.89069 0.05646 0.0
H813 H 0.43562 0.88714 0.13582 0.0
H814 H 0.41253 0.89699 0.14857 0.0
H815 H 0.29434 0.85348 0.15513 0.0
H816 H 0.32227 0.87762 0.12852 0.0
H817 H 0.3616 0.88626 0.19029 0.0
H818 H 0.33369 0.86269 0.2175 0.0
H819 H 0.37366 0.88025 0.14195 0.0
H820 H 0.35216 0.91974 0.17863 0.0
H821 H 0.32794 0.92856 0.18971 0.0
H822 H 0.31679 0.93204 0.10975 0.0
H823 H 0.34074 0.92296 0.0982 0.0
C824 C 0.44393 0.95534 0.07858 0.0
C825 C 0.44004 0.96133 0.05498 0.0
C826 C 0.42855 0.94331 0.09582 0.0
C827 C 0.40896 0.93664 0.08943 0.0
C828 C 0.40515 0.94307 0.06605 0.0
C829 C 0.42059 0.95545 0.04906 0.0
C830 C 0.39241 0.92286 0.10697 0.0
C831 C 0.37818 0.9272 0.11378 0.0
C832 C 0.39073 0.90566 0.11723 0.0
C833 C 0.40446 0.8995 0.1096 0.0
C834 C 0.40746 0.89751 0.08357 0.0
C835 C 0.42072 0.89207 0.07652 0.0
C836 C 0.43091 0.8884 0.09534 0.0
C837 C 0.4278 0.89007 0.12126 0.0
C838 C 0.41462 0.89557 0.12841 0.0
C839 C 0.30885 0.86074 0.1633 0.0
C840 C 0.3117 0.8561 0.18854 0.0
C841 C 0.32481 0.87445 0.14798 0.0
C842 C 0.34395 0.88372 0.15749 0.0
C843 C 0.34692 0.87918 0.18259 0.0
C844 C 0.33095 0.86562 0.19805 0.0
C845 C 0.3609 0.89788 0.141 0.0
C846 C 0.37515 0.89357 0.1344 0.0
C847 C 0.36246 0.91494 0.13067 0.0
C848 C 0.34811 0.92048 0.13757 0.0
C849 C 0.34442 0.92222 0.16341 0.0
C850 C 0.33076 0.9273 0.16978 0.0
C851 C 0.32079 0.93081 0.15045 0.0
C852 C 0.3245 0.9293 0.12471 0.0
C853 C 0.33813 0.9242 0.11824 0.0
H854 H 0.31023 0.93475 0.15542 0.0
H855 H 0.44118 0.8842 0.08986 0.0
H856 H 0.50674 0.44843 0.55539 0.0
H857 H 0.49948 0.4191 0.58015 0.0
H858 H 0.43764 0.39329 0.56539 0.0
H859 H 0.44498 0.42262 0.54029 0.0
H860 H 0.44632 0.3893 0.61748 0.0
H861 H 0.46123 0.37901 0.53245 0.0
H862 H 0.48136 0.3881 0.49266 0.0
H863 H 0.52899 0.39141 0.53514 0.0
H864 H 0.50927 0.38269 0.57529 0.0
H865 H 0.41862 0.29498 0.66329 0.0
H866 H 0.42303 0.32227 0.63655 0.0
H867 H 0.48596 0.34781 0.63663 0.0
H868 H 0.48162 0.32007 0.66209 0.0
H869 H 0.47507 0.35118 0.59054 0.0
H870 H 0.46214 0.36374 0.67536 0.0
H871 H 0.4436 0.35653 0.71626 0.0
H872 H 0.39403 0.35054 0.67576 0.0
H873 H 0.41219 0.35747 0.63456 0.0
C874 C 0.49164 0.43644 0.5575 0.0
C875 C 0.47637 0.4376 0.54615 0.0
C876 C 0.4875 0.41977 0.57156 0.0
C877 C 0.46804 0.40406 0.57445 0.0
C878 C 0.45273 0.40531 0.56337 0.0
C879 C 0.4569 0.42195 0.54908 0.0
C880 C 0.46379 0.38625 0.58882 0.0
C881 C 0.45231 0.38075 0.61144 0.0
C882 C 0.47206 0.37547 0.58113 0.0
C883 C 0.48382 0.38035 0.55692 0.0
C884 C 0.47605 0.38181 0.53335 0.0
C885 C 0.48738 0.38688 0.51072 0.0
C886 C 0.50645 0.39036 0.51138 0.0
C887 C 0.51421 0.38872 0.53466 0.0
C888 C 0.50296 0.3837 0.55736 0.0
C889 C 0.43339 0.30627 0.65736 0.0
C890 C 0.44977 0.30535 0.66496 0.0
C891 C 0.4359 0.32199 0.64231 0.0
C892 C 0.45485 0.33724 0.6349 0.0
C893 C 0.4712 0.33626 0.64221 0.0
C894 C 0.4687 0.32047 0.65703 0.0
C895 C 0.45771 0.35424 0.6195 0.0
C896 C 0.46894 0.35962 0.5966 0.0
C897 C 0.44938 0.36504 0.62711 0.0
C898 C 0.43845 0.36092 0.65186 0.0
C899 C 0.44723 0.36074 0.67516 0.0
C900 C 0.4368 0.35673 0.6984 0.0
C901 C 0.41763 0.35302 0.6986 0.0
C902 C 0.40887 0.35338 0.67557 0.0
C903 C 0.41923 0.35736 0.65227 0.0
H904 H 0.40958 0.34992 0.71661 0.0
H905 H 0.51521 0.39429 0.49384 0.0
H906 H 0.5363 0.9425 0.47351 0.0
H907 H 0.54276 0.92086 0.44982 0.0
H908 H 0.52211 0.93435 0.38057 0.0
H909 H 0.51515 0.95563 0.40427 0.0
H910 H 0.50659 0.89589 0.38734 0.0
H911 H 0.57085 0.95337 0.38919 0.0
H912 H 0.59974 0.98038 0.40932 0.0
H913 H 0.60847 0.94004 0.45343 0.0
H914 H 0.57945 0.91276 0.43382 0.0
H915 H 0.54042 0.8553 0.29845 0.0
H916 H 0.53578 0.87808 0.32213 0.0
H917 H 0.55615 0.86374 0.39095 0.0
H918 H 0.56067 0.84075 0.36742 0.0
H919 H 0.57199 0.9026 0.3847 0.0
H920 H 0.50774 0.84518 0.38315 0.0
H921 H 0.47884 0.81808 0.36316 0.0
H922 H 0.47002 0.85827 0.31878 0.0
H923 H 0.49907 0.88563 0.33825 0.0
C924 C 0.53307 0.94081 0.45326 0.0
C925 C 0.52523 0.95081 0.44077 0.0
C926 C 0.53693 0.92857 0.4397 0.0
C927 C 0.53308 0.92612 0.41337 0.0
C928 C 0.52525 0.93607 0.40085 0.0
C929 C 0.52144 0.94835 0.41438 0.0
C930 C 0.53674 0.91281 0.39901 0.0
C931 C 0.52096 0.89753 0.38646 0.0
C932 C 0.55537 0.91464 0.39843 0.0
C933 C 0.57285 0.93102 0.41022 0.0
C934 C 0.57883 0.95025 0.40334 0.0
C935 C 0.59525 0.96562 0.41463 0.0
C936 C 0.6059 0.96193 0.4327 0.0
C937 C 0.60019 0.94287 0.43946 0.0
C938 C 0.58376 0.92745 0.42825 0.0
C939 C 0.54377 0.85686 0.31867 0.0
C940 C 0.55076 0.84607 0.33109 0.0
C941 C 0.54116 0.86994 0.33217 0.0
C942 C 0.54539 0.87244 0.35839 0.0
C943 C 0.5528 0.86204 0.37072 0.0
C944 C 0.55542 0.84894 0.35723 0.0
C945 C 0.54186 0.88575 0.37296 0.0
C946 C 0.55763 0.90099 0.38558 0.0
C947 C 0.52322 0.88388 0.37365 0.0
C948 C 0.5057 0.86746 0.36198 0.0
C949 C 0.49973 0.84824 0.36898 0.0
C950 C 0.48331 0.83284 0.35776 0.0
C951 C 0.47263 0.83645 0.33966 0.0
C952 C 0.47833 0.85549 0.33278 0.0
C953 C 0.49476 0.87095 0.34392 0.0
H954 H 0.45991 0.8245 0.331 0.0
H955 H 0.61862 0.97385 0.44141 0.0
H956 H 0.55444 0.49312 0.95296 0.0
H957 H 0.58393 0.49932 0.9295 0.0
H958 H 0.60697 0.56075 0.92933 0.0
H959 H 0.57786 0.55448 0.95393 0.0
H960 H 0.59879 0.51386 0.88496 0.0
H961 H 0.65668 0.58603 0.93031 0.0
H962 H 0.66219 0.60217 0.97142 0.0
H963 H 0.62665 0.54697 0.01107 0.0
H964 H 0.62119 0.5305 0.97029 0.0
H965 H 0.68545 0.55361 0.8095 0.0
H966 H 0.65731 0.54972 0.83391 0.0
H967 H 0.68138 0.54154 0.90392 0.0
H968 H 0.71005 0.54652 0.87959 0.0
H969 H 0.66597 0.56096 0.91435 0.0
H970 H 0.64323 0.50274 0.86958 0.0
H971 H 0.63756 0.48283 0.8321 0.0
H972 H 0.60248 0.50319 0.79806 0.0
H973 H 0.60817 0.52344 0.83519 0.0
C974 C 0.56589 0.50791 0.9479 0.0
C975 C 0.564 0.52335 0.95506 0.0
C976 C 0.58266 0.51146 0.93444 0.0
C977 C 0.5978 0.53052 0.92781 0.0
C978 C 0.59569 0.54595 0.9346 0.0
C979 C 0.57903 0.54239 0.94841 0.0
C980 C 0.61573 0.53417 0.91384 0.0
C981 C 0.61348 0.52418 0.8914 0.0
C982 C 0.63493 0.5473 0.92248 0.0
C983 C 0.63836 0.55706 0.94718 0.0
C984 C 0.65012 0.57734 0.94782 0.0
C985 C 0.65322 0.58654 0.97107 0.0
C986 C 0.64472 0.5756 0.99383 0.0
C987 C 0.63317 0.55543 0.99341 0.0
C988 C 0.63005 0.54616 0.97023 0.0
C989 C 0.68473 0.55114 0.83013 0.0
C990 C 0.69976 0.55026 0.84274 0.0
C991 C 0.66862 0.54879 0.84406 0.0
C992 C 0.66694 0.54488 0.87073 0.0
C993 C 0.68228 0.54451 0.88338 0.0
C994 C 0.69862 0.54731 0.86952 0.0
C995 C 0.64904 0.54074 0.88536 0.0
C996 C 0.6513 0.55067 0.90788 0.0
C997 C 0.62982 0.52698 0.87734 0.0
C998 C 0.62628 0.51475 0.85505 0.0
C999 C 0.63441 0.50307 0.85402 0.0
C1000 C 0.63118 0.49171 0.83285 0.0
C1001 C 0.61971 0.49179 0.81269 0.0
C1002 C 0.61139 0.50317 0.81368 0.0
C1003 C 0.6146 0.51458 0.83479 0.0
H1004 H 0.61723 0.48299 0.79631 0.0
H1005 H 0.64712 0.58276 0.0118 0.0
H1006 H 0.0574 0.55025 0.43794 0.0
H1007 H 0.08061 0.57898 0.41148 0.0
H1008 H 0.04413 0.60289 0.42221 0.0
H1009 H 0.0209 0.57407 0.44878 0.0
H1010 H 0.05904 0.60819 0.37155 0.0
H1011 H 0.08242 0.61811 0.45778 0.0
H1012 H 0.09197 0.60915 0.49839 0.0
H1013 H 0.13795 0.6072 0.45868 0.0
H1014 H 0.12844 0.61581 0.41772 0.0
H1015 H 0.13284 0.70645 0.33774 0.0
H1016 H 0.10716 0.67691 0.36027 0.0
H1017 H 0.14242 0.65138 0.35293 0.0
H1018 H 0.16792 0.6806 0.32979 0.0
H1019 H 0.12754 0.6472 0.40208 0.0
H1020 H 0.1041 0.63663 0.31595 0.0
H1021 H 0.09429 0.64473 0.27489 0.0
H1022 H 0.04866 0.64768 0.31395 0.0
H1023 H 0.05837 0.63984 0.35532 0.0
C1024 C 0.05432 0.56159 0.43433 0.0
C1025 C 0.0375 0.56012 0.44518 0.0
C1026 C 0.06752 0.57794 0.41933 0.0
C1027 C 0.06414 0.5931 0.41509 0.0
C1028 C 0.04696 0.59133 0.42524 0.0
C1029 C 0.03376 0.57497 0.44037 0.0
C1030 C 0.07909 0.61117 0.40121 0.0
C1031 C 0.07395 0.6169 0.37837 0.0
C1032 C 0.09861 0.62227 0.40995 0.0
C1033 C 0.1046 0.61743 0.43463 0.0
C1034 C 0.09448 0.61564 0.45767 0.0
C1035 C 0.0999 0.61064 0.48076 0.0
C1036 C 0.11553 0.60757 0.48111 0.0
C1037 C 0.12583 0.60956 0.45837 0.0
C1038 C 0.12044 0.61451 0.43521 0.0
C1039 C 0.13504 0.69447 0.3406 0.0
C1040 C 0.15249 0.69594 0.33197 0.0
C1041 C 0.12038 0.67763 0.35356 0.0
C1042 C 0.12289 0.66196 0.35817 0.0
C1043 C 0.14026 0.66336 0.34966 0.0
C1044 C 0.15486 0.68013 0.33655 0.0
C1045 C 0.10756 0.64419 0.37228 0.0
C1046 C 0.11263 0.63855 0.39525 0.0
C1047 C 0.08801 0.63318 0.36362 0.0
C1048 C 0.0821 0.63786 0.33878 0.0
C1049 C 0.09208 0.63918 0.31582 0.0
C1050 C 0.08652 0.64368 0.29248 0.0
C1051 C 0.0709 0.64677 0.29182 0.0
C1052 C 0.06078 0.64531 0.3145 0.0
C1053 C 0.06629 0.64082 0.33789 0.0
H1054 H 0.06661 0.65026 0.27374 0.0
H1055 H 0.11969 0.60369 0.499 0.0
H1056 H 0.50279 0.07473 0.93471 0.0
H1057 H 0.49451 0.09484 0.90862 0.0
H1058 H 0.43562 0.04583 0.90001 0.0
H1059 H 0.4439 0.02551 0.92608 0.0
H1060 H 0.44991 0.06622 0.8553 0.0
H1061 H 0.44403 0.08037 0.94152 0.0
H1062 H 0.45408 0.0891 0.98616 0.0
H1063 H 0.50346 0.14389 0.95947 0.0
H1064 H 0.49386 0.13538 0.91461 0.0
H1065 H 0.41505 0.12912 0.81431 0.0
H1066 H 0.41918 0.10522 0.83854 0.0
H1067 H 0.48184 0.14562 0.8396 0.0
H1068 H 0.4781 0.16923 0.81431 0.0
H1069 H 0.46226 0.12791 0.8892 0.0
H1070 H 0.46822 0.11201 0.80238 0.0
H1071 H 0.45697 0.10286 0.7582 0.0
H1072 H 0.40539 0.05069 0.7872 0.0
H1073 H 0.41618 0.05969 0.83162 0.0
C1074 C 0.48803 0.06826 0.92742 0.0
C1075 C 0.47392 0.04861 0.93266 0.0
C1076 C 0.48332 0.07975 0.91249 0.0
C1077 C 0.46434 0.07191 0.90276 0.0
C1078 C 0.45033 0.05218 0.90742 0.0
C1079 C 0.45508 0.0406 0.92227 0.0
C1080 C 0.45925 0.08447 0.88789 0.0
C1081 C 0.45229 0.07955 0.86287 0.0
C1082 C 0.46251 0.10193 0.89771 0.0
C1083 C 0.46831 0.10716 0.92468 0.0
C1084 C 0.45711 0.09423 0.94515 0.0
C1085 C 0.46272 0.09914 0.9705 0.0
C1086 C 0.47942 0.11702 0.97564 0.0
C1087 C 0.49053 0.13004 0.95545 0.0
C1088 C 0.485 0.12519 0.93005 0.0
C1089 C 0.42976 0.13284 0.81926 0.0
C1090 C 0.44623 0.15121 0.81246 0.0
C1091 C 0.43205 0.1192 0.83324 0.0
C1092 C 0.45079 0.12376 0.84085 0.0
C1093 C 0.46724 0.14195 0.83401 0.0
C1094 C 0.46503 0.15546 0.81972 0.0
C1095 C 0.45333 0.10982 0.85657 0.0
C1096 C 0.45974 0.1145 0.88178 0.0
C1097 C 0.44936 0.09208 0.84702 0.0
C1098 C 0.44288 0.08664 0.82033 0.0
C1099 C 0.45437 0.09868 0.79936 0.0
C1100 C 0.44811 0.09351 0.77426 0.0
C1101 C 0.43045 0.07624 0.7699 0.0
C1102 C 0.41904 0.06408 0.79062 0.0
C1103 C 0.42523 0.06921 0.81575 0.0
H1104 H 0.42563 0.07225 0.75046 0.0
H1105 H 0.48373 0.1208 0.99528 0.0
H1106 H 0.44849 0.49467 0.39673 0.0
H1107 H 0.42166 0.48836 0.368 0.0
H1108 H 0.37939 0.45667 0.4295 0.0
H1109 H 0.4062 0.46296 0.45839 0.0
H1110 H 0.36954 0.43826 0.38057 0.0
H1111 H 0.39111 0.5004 0.41682 0.0
H1112 H 0.41613 0.53403 0.42669 0.0
H1113 H 0.42901 0.54867 0.34622 0.0
H1114 H 0.40439 0.51502 0.33591 0.0
H1115 H 0.28512 0.43306 0.32869 0.0
H1116 H 0.31225 0.43713 0.35513 0.0
H1117 H 0.35397 0.48146 0.30124 0.0
H1118 H 0.32671 0.47807 0.27562 0.0
H1119 H 0.36499 0.49327 0.34567 0.0
H1120 H 0.34546 0.43353 0.30736 0.0
H1121 H 0.32284 0.40005 0.29442 0.0
H1122 H 0.30867 0.38089 0.37357 0.0
H1123 H 0.33102 0.41431 0.38699 0.0
C1124 C 0.43346 0.48622 0.40405 0.0
C1125 C 0.42939 0.47932 0.42978 0.0
C1126 C 0.41819 0.4827 0.38767 0.0
C1127 C 0.3986 0.47212 0.39671 0.0
C1128 C 0.39444 0.46486 0.42222 0.0
C1129 C 0.40973 0.46857 0.43871 0.0
C1130 C 0.38248 0.46911 0.37972 0.0
C1131 C 0.36834 0.45021 0.37312 0.0
C1132 C 0.38144 0.48483 0.36936 0.0
C1133 C 0.39604 0.50514 0.37561 0.0
C1134 C 0.3994 0.51075 0.40124 0.0
C1135 C 0.41352 0.52982 0.40692 0.0
C1136 C 0.42423 0.54346 0.38711 0.0
C1137 C 0.42077 0.53808 0.36157 0.0
C1138 C 0.40674 0.51901 0.35579 0.0
C1139 C 0.30012 0.44354 0.32248 0.0
C1140 C 0.30393 0.45524 0.3002 0.0
C1141 C 0.31563 0.4458 0.33748 0.0
C1142 C 0.33525 0.45941 0.33003 0.0
C1143 C 0.339 0.47089 0.30747 0.0
C1144 C 0.32348 0.46893 0.29279 0.0
C1145 C 0.35181 0.46229 0.34632 0.0
C1146 C 0.36609 0.48121 0.3529 0.0
C1147 C 0.35323 0.4466 0.35615 0.0
C1148 C 0.33979 0.42647 0.34817 0.0
C1149 C 0.33741 0.4222 0.32201 0.0
C1150 C 0.32466 0.40323 0.31458 0.0
C1151 C 0.31429 0.38836 0.33316 0.0
C1152 C 0.3167 0.39243 0.3592 0.0
C1153 C 0.32942 0.41138 0.36673 0.0
H1154 H 0.30442 0.37368 0.32737 0.0
H1155 H 0.43516 0.55822 0.39153 0.0
H1156 H 0.92262 0.4231 0.9521 0.0
H1157 H 0.90187 0.39525 0.92625 0.0
H1158 H 0.95336 0.40319 0.88725 0.0
H1159 H 0.97438 0.43077 0.91362 0.0
H1160 H 0.92333 0.39738 0.85396 0.0
H1161 H 0.93118 0.36757 0.92997 0.0
H1162 H 0.93078 0.36109 0.97658 0.0
H1163 H 0.8689 0.3396 0.98079 0.0
H1164 H 0.86899 0.34623 0.93423 0.0
H1165 H 0.86989 0.3092 0.78925 0.0
H1166 H 0.89396 0.3353 0.81527 0.0
H1167 H 0.84758 0.32599 0.86751 0.0
H1168 H 0.82367 0.29892 0.84283 0.0
H1169 H 0.87734 0.33232 0.89386 0.0
H1170 H 0.86961 0.36379 0.81849 0.0
H1171 H 0.86992 0.37072 0.772 0.0
H1172 H 0.93118 0.38971 0.76673 0.0
H1173 H 0.93113 0.38257 0.81303 0.0
C1174 C 0.92962 0.4188 0.93834 0.0
C1175 C 0.95024 0.42918 0.93512 0.0
C1176 C 0.9177 0.40292 0.92347 0.0
C1177 C 0.92609 0.39709 0.90498 0.0
C1178 C 0.9466 0.4075 0.90141 0.0
C1179 C 0.95858 0.42331 0.91644 0.0
C1180 C 0.91335 0.3802 0.88927 0.0
C1181 C 0.91346 0.38307 0.86258 0.0
C1182 C 0.90026 0.36166 0.90065 0.0
C1183 C 0.90013 0.35756 0.92864 0.0
C1184 C 0.91752 0.36161 0.94086 0.0
C1185 C 0.91734 0.35788 0.96727 0.0
C1186 C 0.89983 0.34998 0.98165 0.0
C1187 C 0.88245 0.34574 0.96963 0.0
C1188 C 0.88255 0.34946 0.94323 0.0
C1189 C 0.8648 0.31246 0.80649 0.0
C1190 C 0.84471 0.30193 0.81375 0.0
C1191 C 0.87859 0.32762 0.82118 0.0
C1192 C 0.87258 0.33292 0.84313 0.0
C1193 C 0.85262 0.32229 0.85059 0.0
C1194 C 0.83888 0.30693 0.8362 0.0
C1195 C 0.88696 0.34949 0.85842 0.0
C1196 C 0.88721 0.34658 0.8851 0.0
C1197 C 0.90029 0.36804 0.84702 0.0
C1198 C 0.90031 0.37245 0.81918 0.0
C1199 C 0.8831 0.36931 0.80736 0.0
C1200 C 0.88323 0.37327 0.78103 0.0
C1201 C 0.90053 0.38057 0.76636 0.0
C1202 C 0.91776 0.38399 0.77803 0.0
C1203 C 0.91769 0.37999 0.80432 0.0
H1204 H 0.90059 0.38363 0.74598 0.0
H1205 H 0.89973 0.3471 0.00209 0.0
H1206 H 0.93919 0.49218 0.95187 0.0
H1207 H 0.91603 0.4976 0.92789 0.0
H1208 H 0.95384 0.55916 0.93689 0.0
H1209 H 0.97659 0.55355 0.96183 0.0
H1210 H 0.91712 0.54886 0.94403 0.0
H1211 H 0.95206 0.53761 0.87969 0.0
H1212 H 0.96566 0.52027 0.85872 0.0
H1213 H 0.9073 0.47115 0.84996 0.0
H1214 H 0.89335 0.48809 0.87125 0.0
H1215 H 0.87167 0.57461 0.8454 0.0
H1216 H 0.89547 0.57073 0.87007 0.0
H1217 H 0.85567 0.50881 0.87305 0.0
H1218 H 0.83151 0.51252 0.84913 0.0
H1219 H 0.89438 0.52057 0.85881 0.0
H1220 H 0.86012 0.5328 0.92457 0.0
H1221 H 0.84751 0.55125 0.94486 0.0
H1222 H 0.90639 0.60038 0.94927 0.0
H1223 H 0.91933 0.5823 0.92865 0.0
C1224 C 0.94244 0.50682 0.9487 0.0
C1225 C 0.95965 0.52249 0.95831 0.0
C1226 C 0.92933 0.50995 0.93491 0.0
C1227 C 0.93338 0.52883 0.93013 0.0
C1228 C 0.95045 0.54448 0.9402 0.0
C1229 C 0.96346 0.54132 0.95427 0.0
C1230 C 0.91974 0.5322 0.91474 0.0
C1231 C 0.9124 0.54292 0.92523 0.0
C1232 C 0.91335 0.52424 0.89032 0.0
C1233 C 0.92167 0.51407 0.87727 0.0
C1234 C 0.94213 0.52306 0.87345 0.0
C1235 C 0.9499 0.51331 0.86149 0.0
C1236 C 0.93735 0.4946 0.85306 0.0
C1237 C 0.917 0.48563 0.85652 0.0
C1238 C 0.90915 0.49531 0.86851 0.0
C1239 C 0.86782 0.56017 0.8516 0.0
C1240 C 0.84961 0.54388 0.84527 0.0
C1241 C 0.8815 0.55798 0.86557 0.0
C1242 C 0.87728 0.53949 0.87343 0.0
C1243 C 0.85923 0.5232 0.86705 0.0
C1244 C 0.84548 0.52537 0.85326 0.0
C1245 C 0.89171 0.53706 0.88823 0.0
C1246 C 0.89921 0.52655 0.87758 0.0
C1247 C 0.89843 0.54541 0.91232 0.0
C1248 C 0.89067 0.55626 0.92482 0.0
C1249 C 0.87037 0.54759 0.92966 0.0
C1250 C 0.86316 0.55797 0.94126 0.0
C1251 C 0.87614 0.577 0.94828 0.0
C1252 C 0.89636 0.58566 0.94378 0.0
C1253 C 0.90363 0.57534 0.93216 0.0
H1254 H 0.87054 0.58501 0.95727 0.0
H1255 H 0.9434 0.48707 0.84381 0.0
H1256 H 0.42651 0.97852 0.45313 0.0
H1257 H 0.39864 0.95624 0.42687 0.0
H1258 H 0.42354 0.92059 0.41968 0.0
H1259 H 0.45154 0.94309 0.44553 0.0
H1260 H 0.41028 0.92553 0.37432 0.0
H1261 H 0.38557 0.90801 0.46149 0.0
H1262 H 0.37828 0.91417 0.50484 0.0
H1263 H 0.34098 0.93262 0.47292 0.0
H1264 H 0.34832 0.92686 0.42931 0.0
H1265 H 0.32759 0.83967 0.33191 0.0
H1266 H 0.35517 0.86374 0.35637 0.0
H1267 H 0.32662 0.89604 0.36359 0.0
H1268 H 0.29848 0.87149 0.34015 0.0
H1269 H 0.34167 0.89402 0.40803 0.0
H1270 H 0.36554 0.91074 0.32095 0.0
H1271 H 0.37293 0.90481 0.2775 0.0
H1272 H 0.41181 0.88819 0.30893 0.0
H1273 H 0.40444 0.89376 0.35262 0.0
C1274 C 0.42596 0.96594 0.44578 0.0
C1275 C 0.44101 0.9624 0.45113 0.0
C1276 C 0.41007 0.95321 0.43093 0.0
C1277 C 0.40893 0.93665 0.4215 0.0
C1278 C 0.42413 0.93327 0.42672 0.0
C1279 C 0.44003 0.94602 0.4415 0.0
C1280 C 0.39183 0.92274 0.40637 0.0
C1281 C 0.39529 0.91847 0.38179 0.0
C1282 C 0.37224 0.91392 0.41587 0.0
C1283 C 0.36765 0.91718 0.44211 0.0
C1284 C 0.37593 0.91351 0.46369 0.0
C1285 C 0.37177 0.91692 0.48832 0.0
C1286 C 0.35921 0.92382 0.49163 0.0
C1287 C 0.35073 0.92729 0.47032 0.0
C1288 C 0.35487 0.92395 0.44565 0.0
C1289 C 0.32704 0.85177 0.33891 0.0
C1290 C 0.31077 0.85361 0.33403 0.0
C1291 C 0.34296 0.86567 0.35264 0.0
C1292 C 0.34312 0.88187 0.36151 0.0
C1293 C 0.32687 0.88372 0.35682 0.0
C1294 C 0.31087 0.86975 0.3432 0.0
C1295 C 0.36012 0.8967 0.37599 0.0
C1296 C 0.35665 0.90114 0.40047 0.0
C1297 C 0.37971 0.90571 0.36637 0.0
C1298 C 0.3843 0.90251 0.34009 0.0
C1299 C 0.37556 0.9057 0.31862 0.0
C1300 C 0.37977 0.90242 0.29394 0.0
C1301 C 0.3928 0.89609 0.29046 0.0
C1302 C 0.40171 0.89308 0.31165 0.0
C1303 C 0.39754 0.89631 0.33637 0.0
H1304 H 0.39603 0.89355 0.27134 0.0
H1305 H 0.35601 0.92645 0.51071 0.0
H1306 H 0.50516 0.43392 0.9339 0.0
H1307 H 0.49714 0.40714 0.90612 0.0
H1308 H 0.43747 0.39394 0.90109 0.0
H1309 H 0.44541 0.42077 0.92895 0.0
H1310 H 0.44077 0.3611 0.91127 0.0
H1311 H 0.46624 0.41581 0.85178 0.0
H1312 H 0.49046 0.44889 0.83536 0.0
H1313 H 0.53435 0.43384 0.82932 0.0
H1314 H 0.51046 0.40073 0.84607 0.0
H1315 H 0.41599 0.29306 0.81414 0.0
H1316 H 0.42044 0.32042 0.83798 0.0
H1317 H 0.4833 0.3455 0.83597 0.0
H1318 H 0.47909 0.31892 0.81081 0.0
H1319 H 0.47623 0.37273 0.82807 0.0
H1320 H 0.45317 0.31978 0.89015 0.0
H1321 H 0.43051 0.28691 0.9086 0.0
H1322 H 0.38403 0.29856 0.91198 0.0
H1323 H 0.40636 0.33144 0.89322 0.0
C1324 C 0.49031 0.42524 0.92699 0.0
C1325 C 0.4759 0.42942 0.93357 0.0
C1326 C 0.48578 0.41004 0.91101 0.0
C1327 C 0.46675 0.39867 0.90144 0.0
C1328 C 0.45225 0.4026 0.90825 0.0
C1329 C 0.45683 0.41797 0.92402 0.0
C1330 C 0.46209 0.38264 0.88436 0.0
C1331 C 0.44825 0.36361 0.89286 0.0
C1332 C 0.47224 0.38597 0.86068 0.0
C1333 C 0.48659 0.40583 0.85039 0.0
C1334 C 0.48109 0.41959 0.84714 0.0
C1335 C 0.49476 0.43834 0.83774 0.0
C1336 C 0.51394 0.44347 0.83135 0.0
C1337 C 0.51949 0.42984 0.83429 0.0
C1338 C 0.50588 0.41108 0.84371 0.0
C1339 C 0.43079 0.30453 0.81842 0.0
C1340 C 0.44717 0.30363 0.81071 0.0
C1341 C 0.43329 0.32007 0.83236 0.0
C1342 C 0.45219 0.33488 0.83923 0.0
C1343 C 0.46856 0.33422 0.83106 0.0
C1344 C 0.46609 0.31884 0.81691 0.0
C1345 C 0.45506 0.35102 0.85508 0.0
C1346 C 0.46859 0.37013 0.84636 0.0
C1347 C 0.44482 0.34774 0.87874 0.0
C1348 C 0.43137 0.32799 0.89001 0.0
C1349 C 0.43807 0.31528 0.89464 0.0
C1350 C 0.4253 0.29665 0.90518 0.0
C1351 C 0.40582 0.29063 0.91138 0.0
C1352 C 0.3991 0.30323 0.90712 0.0
C1353 C 0.41181 0.32187 0.89654 0.0
H1354 H 0.39596 0.2762 0.91955 0.0
H1355 H 0.5245 0.458 0.82408 0.0
H1356 H 0.0259 0.44852 0.42399 0.0
H1357 H 0.04611 0.44213 0.39543 0.0
H1358 H 0.09427 0.50117 0.4011 0.0
H1359 H 0.07419 0.50763 0.42963 0.0
H1360 H 0.08637 0.48779 0.35016 0.0
H1361 H 0.09589 0.46769 0.43484 0.0
H1362 H 0.08447 0.44876 0.47591 0.0
H1363 H 0.05727 0.3959 0.43539 0.0
H1364 H 0.06831 0.41454 0.39405 0.0
H1365 H 0.16808 0.48745 0.30218 0.0
H1366 H 0.14451 0.49047 0.32788 0.0
H1367 H 0.10556 0.42837 0.33137 0.0
H1368 H 0.12981 0.4251 0.3073 0.0
H1369 H 0.10593 0.44101 0.37588 0.0
H1370 H 0.09715 0.45934 0.29175 0.0
H1371 H 0.10694 0.47691 0.24965 0.0
H1372 H 0.12995 0.53089 0.28664 0.0
H1373 H 0.12056 0.51367 0.32901 0.0
C1374 C 0.04078 0.46012 0.41904 0.0
C1375 C 0.04854 0.47854 0.42909 0.0
C1376 C 0.0523 0.45644 0.40285 0.0
C1377 C 0.07168 0.47117 0.39628 0.0
C1378 C 0.07935 0.48963 0.40598 0.0
C1379 C 0.06793 0.49325 0.42239 0.0
C1380 C 0.08411 0.46739 0.37944 0.0
C1381 C 0.09082 0.4777 0.3558 0.0
C1382 C 0.08926 0.4537 0.3865 0.0
C1383 C 0.08274 0.44251 0.41136 0.0
C1384 C 0.08733 0.45204 0.43469 0.0
C1385 C 0.08096 0.44136 0.45801 0.0
C1386 C 0.0701 0.42114 0.45826 0.0
C1387 C 0.06565 0.41156 0.43517 0.0
C1388 C 0.07198 0.42218 0.41179 0.0
C1389 C 0.15465 0.47437 0.30866 0.0
C1390 C 0.15095 0.45601 0.30263 0.0
C1391 C 0.14099 0.47615 0.32304 0.0
C1392 C 0.12304 0.45967 0.33117 0.0
C1393 C 0.11924 0.44132 0.32518 0.0
C1394 C 0.13306 0.43949 0.31114 0.0
C1395 C 0.10855 0.46165 0.34655 0.0
C1396 C 0.1014 0.45099 0.36996 0.0
C1397 C 0.10271 0.47479 0.33905 0.0
C1398 C 0.10827 0.48521 0.31358 0.0
C1399 C 0.10441 0.47497 0.29093 0.0
C1400 C 0.10988 0.48487 0.26701 0.0
C1401 C 0.1191 0.505 0.26548 0.0
C1402 C 0.12282 0.51529 0.28786 0.0
C1403 C 0.11741 0.50546 0.31183 0.0
H1404 H 0.12332 0.51264 0.24695 0.0
H1405 H 0.06518 0.4129 0.47633 0.0
H1406 H 0.54889 0.05744 0.93429 0.0
H1407 H 0.57658 0.07901 0.90507 0.0
H1408 H 0.60299 0.04527 0.92139 0.0
H1409 H 0.57529 0.02381 0.95087 0.0
H1410 H 0.62975 0.08407 0.92242 0.0
H1411 H 0.58039 0.04061 0.86569 0.0
H1412 H 0.54728 0.02277 0.84736 0.0
H1413 H 0.55251 0.07642 0.82375 0.0
H1414 H 0.58554 0.0946 0.84233 0.0
H1415 H 0.70216 0.1307 0.82267 0.0
H1416 H 0.67452 0.10573 0.849 0.0
H1417 H 0.64264 0.1344 0.83473 0.0
H1418 H 0.66986 0.15897 0.80754 0.0
H1419 H 0.61884 0.09616 0.83182 0.0
H1420 H 0.66695 0.13951 0.89108 0.0
H1421 H 0.69973 0.15759 0.91035 0.0
H1422 H 0.6966 0.10426 0.92963 0.0
H1423 H 0.6639 0.08587 0.91015 0.0
C1424 C 0.56064 0.05471 0.93149 0.0
C1425 C 0.5601 0.03906 0.94447 0.0
C1426 C 0.57636 0.06692 0.91482 0.0
C1427 C 0.59171 0.06358 0.91083 0.0
C1428 C 0.59126 0.04804 0.92414 0.0
C1429 C 0.5755 0.0358 0.94083 0.0
C1430 C 0.60829 0.07649 0.89295 0.0
C1431 C 0.62743 0.08648 0.90249 0.0
C1432 C 0.60516 0.07987 0.86709 0.0
C1433 C 0.58539 0.06898 0.85559 0.0
C1434 C 0.57444 0.04861 0.85675 0.0
C1435 C 0.55568 0.03843 0.8463 0.0
C1436 C 0.54778 0.04845 0.83444 0.0
C1437 C 0.55864 0.06868 0.83295 0.0
C1438 C 0.57739 0.07893 0.84342 0.0
C1439 C 0.68916 0.13155 0.82483 0.0
C1440 C 0.68827 0.14691 0.81311 0.0
C1441 C 0.67345 0.11736 0.8401 0.0
C1442 C 0.65663 0.11835 0.84414 0.0
C1443 C 0.65551 0.1334 0.83198 0.0
C1444 C 0.67116 0.14754 0.81664 0.0
C1445 C 0.6403 0.10394 0.86137 0.0
C1446 C 0.6212 0.09365 0.8517 0.0
C1447 C 0.64345 0.10031 0.88713 0.0
C1448 C 0.66308 0.11134 0.89891 0.0
C1449 C 0.67332 0.13165 0.89925 0.0
C1450 C 0.69187 0.14195 0.91024 0.0
C1451 C 0.70026 0.13208 0.92114 0.0
C1452 C 0.69009 0.11189 0.92114 0.0
C1453 C 0.67155 0.10152 0.91014 0.0
H1454 H 0.71463 0.14008 0.92965 0.0
H1455 H 0.53326 0.04055 0.82636 0.0
H1456 H 0.49351 0.55519 0.45235 0.0
H1457 H 0.5 0.58402 0.42722 0.0
H1458 H 0.56248 0.60718 0.43111 0.0
H1459 H 0.55591 0.5788 0.45768 0.0
H1460 H 0.55606 0.63485 0.43679 0.0
H1461 H 0.53444 0.58457 0.37646 0.0
H1462 H 0.51199 0.55226 0.35967 0.0
H1463 H 0.46596 0.56452 0.35485 0.0
H1464 H 0.488 0.59677 0.37202 0.0
H1465 H 0.58171 0.70476 0.33349 0.0
H1466 H 0.57681 0.67704 0.3599 0.0
H1467 H 0.51476 0.6555 0.36663 0.0
H1468 H 0.51954 0.68328 0.34072 0.0
H1469 H 0.52204 0.6272 0.35444 0.0
H1470 H 0.54395 0.67729 0.41582 0.0
H1471 H 0.56662 0.70946 0.43284 0.0
H1472 H 0.6129 0.69743 0.43469 0.0
H1473 H 0.59056 0.66528 0.41734 0.0
C1474 C 0.50859 0.56654 0.44787 0.0
C1475 C 0.52424 0.5648 0.45647 0.0
C1476 C 0.51231 0.5829 0.43338 0.0
C1477 C 0.53172 0.59756 0.42669 0.0
C1478 C 0.54739 0.596 0.43585 0.0
C1479 C 0.54366 0.5798 0.45082 0.0
C1480 C 0.53567 0.61448 0.41011 0.0
C1481 C 0.54885 0.63315 0.41859 0.0
C1482 C 0.52602 0.6123 0.38654 0.0
C1483 C 0.51284 0.59304 0.37571 0.0
C1484 C 0.51949 0.58034 0.37194 0.0
C1485 C 0.50683 0.56203 0.36236 0.0
C1486 C 0.48753 0.55631 0.35627 0.0
C1487 C 0.48088 0.56893 0.35964 0.0
C1488 C 0.49346 0.58724 0.36926 0.0
C1489 C 0.56706 0.69424 0.34083 0.0
C1490 C 0.55101 0.69622 0.33496 0.0
C1491 C 0.56428 0.67838 0.35583 0.0
C1492 C 0.54543 0.66429 0.36528 0.0
C1493 C 0.5294 0.66619 0.3594 0.0
C1494 C 0.53216 0.68203 0.3445 0.0
C1495 C 0.54231 0.64745 0.38121 0.0
C1496 C 0.52931 0.62883 0.37258 0.0
C1497 C 0.55223 0.64967 0.4045 0.0
C1498 C 0.56565 0.66896 0.41503 0.0
C1499 C 0.55901 0.68157 0.41965 0.0
C1500 C 0.57179 0.69979 0.4294 0.0
C1501 C 0.5912 0.70551 0.43477 0.0
C1502 C 0.59786 0.693 0.43048 0.0
C1503 C 0.58515 0.67477 0.42071 0.0
H1504 H 0.60107 0.71961 0.44232 0.0
H1505 H 0.47774 0.54212 0.34889 0.0
H1506 H 0.44963 0.03099 0.57212 0.0
H1507 H 0.44271 0.05201 0.5967 0.0
H1508 H 0.50067 0.10075 0.57721 0.0
H1509 H 0.50776 0.0798 0.55287 0.0
H1510 H 0.49087 0.09842 0.62875 0.0
H1511 H 0.46182 0.09585 0.5466 0.0
H1512 H 0.44008 0.07944 0.51047 0.0
H1513 H 0.38971 0.05331 0.56164 0.0
H1514 H 0.4112 0.06936 0.59816 0.0
H1515 H 0.48197 0.17685 0.66166 0.0
H1516 H 0.48679 0.15382 0.6389 0.0
H1517 H 0.42613 0.10918 0.65454 0.0
H1518 H 0.42118 0.13229 0.67713 0.0
H1519 H 0.43596 0.10775 0.60658 0.0
H1520 H 0.46372 0.11047 0.68842 0.0
H1521 H 0.48471 0.12595 0.7255 0.0
H1522 H 0.53636 0.15017 0.67688 0.0
H1523 H 0.51566 0.13509 0.6394 0.0
C1524 C 0.46092 0.04617 0.57319 0.0
C1525 C 0.47921 0.05377 0.56048 0.0
C1526 C 0.4569 0.05817 0.58709 0.0
C1527 C 0.47113 0.07796 0.58861 0.0
C1528 C 0.48948 0.08553 0.57621 0.0
C1529 C 0.49345 0.07358 0.56216 0.0
C1530 C 0.46696 0.09084 0.60315 0.0
C1531 C 0.47901 0.10064 0.62375 0.0
C1532 C 0.45108 0.09322 0.59711 0.0
C1533 C 0.43814 0.08364 0.57515 0.0
C1534 C 0.44613 0.08647 0.55018 0.0
C1535 C 0.43385 0.07726 0.52963 0.0
C1536 C 0.41353 0.0653 0.53377 0.0
C1537 C 0.40545 0.06256 0.55847 0.0
C1538 C 0.41768 0.07172 0.5791 0.0
C1539 C 0.46969 0.1621 0.66039 0.0
C1540 C 0.45123 0.15635 0.67131 0.0
C1541 C 0.47246 0.14893 0.64739 0.0
C1542 C 0.45691 0.12966 0.64536 0.0
C1543 C 0.43836 0.12396 0.65589 0.0
C1544 C 0.43554 0.13718 0.66875 0.0
C1545 C 0.46004 0.11557 0.63206 0.0
C1546 C 0.44778 0.10549 0.61171 0.0
C1547 C 0.47561 0.11277 0.63852 0.0
C1548 C 0.48812 0.12179 0.66105 0.0
C1549 C 0.47954 0.11922 0.68559 0.0
C1550 C 0.49139 0.1279 0.70669 0.0
C1551 C 0.51185 0.13906 0.70354 0.0
C1552 C 0.5205 0.14153 0.67928 0.0
C1553 C 0.50872 0.13291 0.65811 0.0
H1554 H 0.52099 0.14577 0.71989 0.0
H1555 H 0.40405 0.05818 0.51783 0.0
H1556 H 0.41634 0.45559 0.0193 0.0
H1557 H 0.38644 0.44752 0.0437 0.0
H1558 H 0.42225 0.4854 0.10303 0.0
H1559 H 0.4521 0.4937 0.07842 0.0
H1560 H 0.38989 0.44924 0.12184 0.0
H1561 H 0.40401 0.50166 0.06179 0.0
H1562 H 0.41086 0.51744 0.01862 0.0
H1563 H 0.35471 0.47178 0.99351 0.0
H1564 H 0.34769 0.4555 0.03644 0.0
H1565 H 0.32366 0.46585 0.18837 0.0
H1566 H 0.35113 0.46857 0.16406 0.0
H1567 H 0.3122 0.43757 0.10255 0.0
H1568 H 0.28474 0.4356 0.12629 0.0
H1569 H 0.345 0.46786 0.0837 0.0
H1570 H 0.3297 0.41601 0.14377 0.0
H1571 H 0.32277 0.39934 0.18636 0.0
H1572 H 0.38032 0.44249 0.21096 0.0
H1573 H 0.3875 0.45957 0.16861 0.0
C1574 C 0.41771 0.4621 0.03758 0.0
C1575 C 0.43635 0.47537 0.047 0.0
C1576 C 0.40073 0.45749 0.05148 0.0
C1577 C 0.40219 0.46597 0.07507 0.0
C1578 C 0.42084 0.47871 0.08489 0.0
C1579 C 0.43782 0.48347 0.07086 0.0
C1580 C 0.3843 0.46226 0.08899 0.0
C1581 C 0.38013 0.45343 0.11366 0.0
C1582 C 0.37137 0.46731 0.07793 0.0
C1583 C 0.37542 0.47725 0.05225 0.0
C1584 C 0.39319 0.49489 0.04701 0.0
C1585 C 0.3971 0.50394 0.02259 0.0
C1586 C 0.38325 0.49559 0.00331 0.0
C1587 C 0.36544 0.47821 0.00845 0.0
C1588 C 0.36149 0.46906 0.03282 0.0
C1589 C 0.32093 0.45972 0.16959 0.0
C1590 C 0.30198 0.45056 0.15926 0.0
C1591 C 0.33663 0.46107 0.15583 0.0
C1592 C 0.3337 0.45304 0.1316 0.0
C1593 C 0.31479 0.4438 0.12126 0.0
C1594 C 0.29908 0.44253 0.13496 0.0
C1595 C 0.35054 0.4549 0.11678 0.0
C1596 C 0.35458 0.46345 0.0919 0.0
C1597 C 0.36328 0.44946 0.1276 0.0
C1598 C 0.35907 0.43916 0.15306 0.0
C1599 C 0.34083 0.42202 0.15831 0.0
C1600 C 0.33686 0.41249 0.18241 0.0
C1601 C 0.35108 0.41988 0.20137 0.0
C1602 C 0.36931 0.43679 0.19625 0.0
C1603 C 0.37335 0.44639 0.1722 0.0
H1604 H 0.34798 0.41248 0.22002 0.0
H1605 H 0.3863 0.50262 0.98442 0.0
H1606 H 0.96623 0.41887 0.52652 0.0
H1607 H 0.94479 0.38952 0.55327 0.0
H1608 H 0.93567 0.42371 0.60661 0.0
H1609 H 0.95709 0.45299 0.57982 0.0
H1610 H 0.94138 0.39623 0.63093 0.0
H1611 H 0.90231 0.39983 0.56319 0.0
H1612 H 0.89475 0.40258 0.51798 0.0
H1613 H 0.89193 0.34962 0.50263 0.0
H1614 H 0.89985 0.34675 0.54769 0.0
H1615 H 0.85472 0.32515 0.69728 0.0
H1616 H 0.87996 0.35306 0.67209 0.0
H1617 H 0.88002 0.31521 0.61605 0.0
H1618 H 0.85371 0.28723 0.64022 0.0
H1619 H 0.88047 0.34389 0.59247 0.0
H1620 H 0.91724 0.33903 0.66175 0.0
H1621 H 0.92547 0.337 0.70687 0.0
H1622 H 0.93343 0.39261 0.71937 0.0
H1623 H 0.9247 0.39472 0.67463 0.0
C1624 C 0.95971 0.42001 0.54408 0.0
C1625 C 0.96304 0.43796 0.55119 0.0
C1626 C 0.94751 0.40334 0.55928 0.0
C1627 C 0.93851 0.40446 0.58177 0.0
C1628 C 0.94248 0.42256 0.58934 0.0
C1629 C 0.95461 0.43921 0.57408 0.0
C1630 C 0.92423 0.38668 0.5968 0.0
C1631 C 0.92797 0.38481 0.62266 0.0
C1632 C 0.90699 0.37166 0.58573 0.0
C1633 C 0.90187 0.37318 0.55875 0.0
C1634 C 0.90022 0.38885 0.55014 0.0
C1635 C 0.89586 0.39042 0.52454 0.0
C1636 C 0.89291 0.37631 0.50743 0.0
C1637 C 0.89425 0.36056 0.5159 0.0
C1638 C 0.89867 0.35895 0.54147 0.0
C1639 C 0.85992 0.32271 0.67947 0.0
C1640 C 0.85205 0.30385 0.67079 0.0
C1641 C 0.87462 0.33872 0.66525 0.0
C1642 C 0.88217 0.33627 0.64234 0.0
C1643 C 0.87451 0.31748 0.63373 0.0
C1644 C 0.85959 0.30145 0.64775 0.0
C1645 C 0.89749 0.35333 0.62687 0.0
C1646 C 0.89394 0.35513 0.60084 0.0
C1647 C 0.91493 0.36828 0.63784 0.0
C1648 C 0.92013 0.36695 0.66485 0.0
C1649 C 0.92054 0.35074 0.6742 0.0
C1650 C 0.92528 0.34956 0.69974 0.0
C1651 C 0.92986 0.36461 0.71606 0.0
C1652 C 0.92976 0.38089 0.70683 0.0
C1653 C 0.92491 0.38208 0.68137 0.0
H1654 H 0.93355 0.36369 0.73581 0.0
H1655 H 0.88954 0.37755 0.48761 0.0
H1656 H 0.49754 0.92499 0.06019 0.0
H1657 H 0.5053 0.90512 0.08793 0.0
H1658 H 0.56229 0.95527 0.10236 0.0
H1659 H 0.55467 0.97526 0.0744 0.0
H1660 H 0.56291 0.92164 0.0909 0.0
H1661 H 0.52806 0.94052 0.14634 0.0
H1662 H 0.5003 0.94402 0.15853 0.0
H1663 H 0.46096 0.88236 0.15828 0.0
H1664 H 0.48838 0.87853 0.14549 0.0
H1665 H 0.58386 0.87275 0.18864 0.0
H1666 H 0.57961 0.89664 0.16505 0.0
H1667 H 0.51736 0.85488 0.16013 0.0
H1668 H 0.52115 0.83159 0.18574 0.0
H1669 H 0.52149 0.88709 0.16842 0.0
H1670 H 0.55287 0.86707 0.10891 0.0
H1671 H 0.57859 0.86152 0.09337 0.0
H1672 H 0.62188 0.92211 0.09783 0.0
H1673 H 0.59645 0.92799 0.1137 0.0
C1674 C 0.51179 0.93174 0.06909 0.0
C1675 C 0.52551 0.95165 0.06518 0.0
C1676 C 0.51614 0.92042 0.08504 0.0
C1677 C 0.53429 0.92881 0.09731 0.0
C1678 C 0.54819 0.9486 0.09308 0.0
C1679 C 0.54378 0.95998 0.07728 0.0
C1680 C 0.53862 0.91685 0.11472 0.0
C1681 C 0.55409 0.91429 0.1081 0.0
C1682 C 0.52673 0.90694 0.13671 0.0
C1683 C 0.51027 0.90926 0.14474 0.0
C1684 C 0.51346 0.92772 0.14866 0.0
C1685 C 0.49777 0.92977 0.15568 0.0
C1686 C 0.47885 0.91343 0.15908 0.0
C1687 C 0.47559 0.89502 0.15555 0.0
C1688 C 0.49121 0.8929 0.14842 0.0
C1689 C 0.56919 0.86872 0.18299 0.0
C1690 C 0.55288 0.85007 0.18898 0.0
C1691 C 0.56684 0.88235 0.1691 0.0
C1692 C 0.54823 0.87746 0.16026 0.0
C1693 C 0.53191 0.859 0.16656 0.0
C1694 C 0.53416 0.84555 0.18093 0.0
C1695 C 0.54558 0.89143 0.14439 0.0
C1696 C 0.53045 0.89447 0.15134 0.0
C1697 C 0.5575 0.90143 0.12235 0.0
C1698 C 0.5728 0.89793 0.11276 0.0
C1699 C 0.5679 0.87919 0.10675 0.0
C1700 C 0.58242 0.87598 0.09786 0.0
C1701 C 0.60187 0.89144 0.09469 0.0
C1702 C 0.60682 0.91015 0.10034 0.0
C1703 C 0.59236 0.91342 0.10927 0.0
H1704 H 0.61309 0.88893 0.0878 0.0
H1705 H 0.46672 0.91504 0.1645 0.0
H1706 H 0.5794 0.5038 0.55513 0.0
H1707 H 0.60687 0.51127 0.5827 0.0
H1708 H 0.59914 0.55316 0.62089 0.0
H1709 H 0.57236 0.54669 0.59216 0.0
H1710 H 0.63668 0.56702 0.61405 0.0
H1711 H 0.58292 0.50766 0.64865 0.0
H1712 H 0.55464 0.47406 0.64834 0.0
H1713 H 0.59253 0.45488 0.62305 0.0
H1714 H 0.62101 0.48842 0.62284 0.0
H1715 H 0.69325 0.56499 0.72267 0.0
H1716 H 0.66623 0.56173 0.69664 0.0
H1717 H 0.6794 0.53294 0.63932 0.0
H1718 H 0.70703 0.53703 0.66428 0.0
H1719 H 0.63804 0.51314 0.65954 0.0
H1720 H 0.69154 0.57438 0.62347 0.0
H1721 H 0.71905 0.60821 0.62598 0.0
H1722 H 0.67999 0.6238 0.65807 0.0
H1723 H 0.65228 0.58996 0.6561 0.0
C1724 C 0.58369 0.51485 0.56907 0.0
C1725 C 0.57357 0.5246 0.57138 0.0
C1726 C 0.59927 0.5189 0.58511 0.0
C1727 C 0.60483 0.5325 0.60425 0.0
C1728 C 0.59501 0.54251 0.6064 0.0
C1729 C 0.57955 0.53863 0.59011 0.0
C1730 C 0.62091 0.53617 0.62193 0.0
C1731 C 0.63679 0.55525 0.62432 0.0
C1732 C 0.62116 0.52083 0.63529 0.0
C1733 C 0.60408 0.5006 0.63553 0.0
C1734 C 0.58521 0.4963 0.64285 0.0
C1735 C 0.56914 0.47726 0.64279 0.0
C1736 C 0.57178 0.46235 0.63562 0.0
C1737 C 0.5905 0.46645 0.62857 0.0
C1738 C 0.60662 0.48547 0.62857 0.0
C1739 C 0.6907 0.55832 0.7043 0.0
C1740 C 0.70229 0.55113 0.69574 0.0
C1741 C 0.67516 0.55636 0.68956 0.0
C1742 C 0.67084 0.54701 0.66621 0.0
C1743 C 0.68246 0.54006 0.65744 0.0
C1744 C 0.69816 0.5423 0.67187 0.0
C1745 C 0.6538 0.54384 0.65114 0.0
C1746 C 0.63775 0.52486 0.64938 0.0
C1747 C 0.65326 0.55927 0.63878 0.0
C1748 C 0.6699 0.5796 0.63995 0.0
C1749 C 0.68886 0.58497 0.63133 0.0
C1750 C 0.70448 0.60416 0.63258 0.0
C1751 C 0.70129 0.61813 0.64226 0.0
C1752 C 0.68245 0.61295 0.65063 0.0
C1753 C 0.66678 0.59377 0.64944 0.0
H1754 H 0.7134 0.63298 0.6432 0.0
H1755 H 0.55931 0.44762 0.63558 0.0
H1756 H 0.02981 0.57967 0.0782 0.0
H1757 H 0.05066 0.607 0.10528 0.0
H1758 H 0.09974 0.60026 0.09003 0.0
H1759 H 0.07902 0.573 0.06295 0.0
H1760 H 0.09407 0.60444 0.14261 0.0
H1761 H 0.0985 0.63517 0.05958 0.0
H1762 H 0.08489 0.64219 0.02126 0.0
H1763 H 0.05787 0.66443 0.06869 0.0
H1764 H 0.07111 0.65728 0.10735 0.0
H1765 H 0.17619 0.69126 0.18169 0.0
H1766 H 0.15216 0.66396 0.1572 0.0
H1767 H 0.10968 0.68058 0.16907 0.0
H1768 H 0.13374 0.70802 0.19371 0.0
H1769 H 0.10944 0.67088 0.12037 0.0
H1770 H 0.10543 0.64226 0.20286 0.0
H1771 H 0.11768 0.63498 0.24235 0.0
H1772 H 0.14168 0.60817 0.19825 0.0
H1773 H 0.1298 0.61553 0.15842 0.0
C1774 C 0.04503 0.584 0.08071 0.0
C1775 C 0.05284 0.57428 0.06841 0.0
C1776 C 0.05692 0.59964 0.09606 0.0
C1777 C 0.07674 0.60567 0.09954 0.0
C1778 C 0.08448 0.59583 0.08755 0.0
C1779 C 0.07269 0.58037 0.07197 0.0
C1780 C 0.0895 0.62227 0.11565 0.0
C1781 C 0.09761 0.61901 0.13764 0.0
C1782 C 0.09349 0.64112 0.10961 0.0
C1783 C 0.0856 0.64549 0.08638 0.0
C1784 C 0.08951 0.6414 0.06186 0.0
C1785 C 0.08189 0.64543 0.04007 0.0
C1786 C 0.07047 0.6537 0.04254 0.0
C1787 C 0.06669 0.658 0.06681 0.0
C1788 C 0.07426 0.65397 0.08866 0.0
C1789 C 0.16168 0.68903 0.1793 0.0
C1790 C 0.15683 0.70173 0.18983 0.0
C1791 C 0.14796 0.67342 0.16527 0.0
C1792 C 0.12901 0.67005 0.16162 0.0
C1793 C 0.1242 0.68289 0.17168 0.0
C1794 C 0.13798 0.69858 0.1857 0.0
C1795 C 0.11436 0.65315 0.14716 0.0
C1796 C 0.10583 0.65631 0.1255 0.0
C1797 C 0.10975 0.63414 0.15371 0.0
C1798 C 0.11687 0.6296 0.17761 0.0
C1799 C 0.11345 0.63494 0.20155 0.0
C1800 C 0.12031 0.63078 0.224 0.0
C1801 C 0.1305 0.62116 0.2228 0.0
C1802 C 0.1338 0.61564 0.19914 0.0
C1803 C 0.12699 0.61978 0.17662 0.0
H1804 H 0.1358 0.61795 0.2402 0.0
H1805 H 0.06459 0.65682 0.02565 0.0
loop_
_geom_bond_atom_site_label_1
_geom_bond_atom_site_label_2
_geom_bond_distance
_geom_bond_site_symmetry_2
_ccdc_geom_bond_type
C0 C1 1.443 1_556 S
C0 N4 1.376 1_556 S
C0 C38 1.389 . S
C1 C0 1.443 1_554 S
C1 C2 1.340 . S
C1 H41 0.951 1_554 S
C2 C1 1.340 . S
C2 C3 1.439 . S
C2 H42 0.950 . S
C3 C2 1.439 . S
C3 N4 1.374 . S
C3 C37 1.395 . S
N4 C0 1.376 1_554 S
N4 C3 1.374 . S
N4 Co5 1.990 1_655 S
Co5 N4 1.990 1_455 S
Co5 N6 2.009 1_455 S
Co5 N11 2.027 1_554 S
Co5 N16 1.980 1_554 S
Co5 N21 2.292 . S
Co5 N27 2.273 1_454 S
N6 Co5 2.009 1_655 S
N6 C7 1.376 . S
N6 C10 1.383 1_655 S
C7 N6 1.376 . S
C7 C8 1.446 . S
C7 C37 1.391 . S
C8 C7 1.446 . S
C8 C9 1.339 1_655 S
C8 H43 0.949 . S
C9 C8 1.339 1_455 S
C9 C10 1.439 . S
C9 H44 0.950 . S
C10 N6 1.383 1_455 S
C10 C9 1.439 . S
C10 C39 1.392 . S
N11 Co5 2.027 1_556 S
N11 C12 1.376 1_556 S
N11 C15 1.374 . S
C12 N11 1.376 1_554 S
C12 C13 1.429 1_554 S
C12 C39 1.389 . S
C13 C12 1.429 1_556 S
C13 C14 1.378 . S
C13 H45 0.934 1_556 S
C14 C13 1.378 . S
C14 C15 1.439 . S
C14 H46 0.950 . S
C15 N11 1.374 . S
C15 C14 1.439 . S
C15 C40 1.395 . S
N16 Co5 1.980 1_556 S
N16 C17 1.376 . S
N16 C20 1.383 1_455 S
C17 N16 1.376 . S
C17 C18 1.446 . S
C17 C40 1.391 . S
C18 C17 1.446 . S
C18 C19 1.339 1_455 S
C18 H47 0.949 . S
C19 C18 1.339 1_655 S
C19 C20 1.439 . S
C19 H48 0.950 . S
C20 N16 1.383 1_655 S
C20 C19 1.439 . S
C20 C38 1.392 . S
N21 Co5 2.292 . S
N21 C24 1.332 . S
N21 C26 1.332 . S
C22 C23 1.386 . S
C22 C25 1.388 . S
C23 C22 1.386 . S
C23 C24 1.382 . S
C23 H49 0.950 . S
C24 N21 1.332 . S
C24 C23 1.382 . S
C24 H35 0.952 1_554 S
C25 C22 1.388 . S
C25 C26 1.382 . S
C25 H50 0.950 . S
C26 N21 1.332 . S
C26 C25 1.382 . S
C26 H36 0.948 . S
N27 Co5 2.273 1_656 S
N27 C31 1.332 . S
N27 C32 1.332 . S
C28 C29 1.388 . S
C28 C32 1.382 . S
C28 H51 0.950 . S
C29 C28 1.388 . S
C29 C30 1.386 . S
C30 C29 1.386 . S
C30 C31 1.382 . S
C30 H52 0.950 . S
C31 N27 1.332 . S
C31 C30 1.382 . S
C31 H33 0.952 1_556 S
C32 N27 1.332 . S
C32 C28 1.382 . S
C32 H34 0.948 . S
H33 C31 0.952 1_554 S
H34 C32 0.948 . S
H35 C24 0.952 1_556 S
H36 C26 0.948 . S
C37 C3 1.395 . S
C37 C7 1.391 . S
C38 C0 1.389 . S
C38 C20 1.392 . S
C39 C10 1.392 . S
C39 C12 1.389 . S
C40 C15 1.395 . S
C40 C17 1.391 . S
H41 C1 0.951 1_556 S
H42 C2 0.950 . S
H43 C8 0.949 . S
H44 C9 0.950 . S
H45 C13 0.934 1_554 S
H46 C14 0.950 . S
H47 C18 0.949 . S
H48 C19 0.950 . S
H49 C23 0.950 . S
H50 C25 0.950 . S
H51 C28 0.950 . S
H52 C30 0.950 . S
C53 C54 1.443 . S
C53 N57 1.360 1_545 S
C53 C91 1.389 . S
C54 C53 1.443 . S
C54 C55 1.340 1_545 S
C54 H94 0.951 . S
C55 C54 1.340 1_565 S
C55 C56 1.439 . S
C55 H95 0.950 . S
C56 C55 1.439 . S
C56 N57 1.396 . S
C56 C90 1.395 . S
N57 C53 1.360 1_565 S
N57 C56 1.396 . S
N57 Co58 1.990 1_565 S
Co58 N57 1.990 1_545 S
Co58 N59 1.973 1_545 S
Co58 N64 2.019 . S
Co58 N69 2.017 . S
Co58 N74 2.241 1_545 S
Co58 N80 2.324 . S
N59 Co58 1.973 1_565 S
N59 C60 1.376 . S
N59 C63 1.383 . S
C60 N59 1.376 . S
C60 C61 1.446 . S
C60 C90 1.391 . S
C61 C60 1.446 . S
C61 C62 1.339 . S
C61 H96 0.949 . S
C62 C61 1.339 . S
C62 C63 1.439 . S
C62 H97 0.950 . S
C63 N59 1.383 . S
C63 C62 1.439 . S
C63 C92 1.392 . S
N64 Co58 2.019 . S
N64 C65 1.376 1_545 S
N64 C68 1.374 . S
C65 N64 1.376 1_565 S
C65 C66 1.443 . S
C65 C92 1.389 . S
C66 C65 1.443 . S
C66 C67 1.340 1_565 S
C66 H98 0.951 . S
C67 C66 1.340 1_545 S
C67 C68 1.439 . S
C67 H99 0.950 . S
C68 N64 1.374 . S
C68 C67 1.439 . S
C68 C93 1.395 . S
N69 Co58 2.017 . S
N69 C70 1.376 . S
N69 C73 1.383 . S
C70 N69 1.376 . S
C70 C71 1.446 . S
C70 C93 1.391 . S
C71 C70 1.446 . S
C71 C72 1.339 . S
C71 H100 0.949 . S
C72 C71 1.339 . S
C72 C73 1.439 . S
C72 H101 0.950 . S
C73 N69 1.383 . S
C73 C72 1.439 . S
C73 C91 1.392 . S
N74 Co58 2.241 1_565 S
N74 C77 1.332 . S
N74 C79 1.332 . S
C75 C76 1.386 . S
C75 C78 1.388 . S
C76 C75 1.386 . S
C76 C77 1.382 . S
C76 H102 0.950 . S
C77 N74 1.332 . S
C77 C76 1.382 . S
C77 H88 0.952 1_565 S
C78 C75 1.388 . S
C78 C79 1.382 . S
C78 H103 0.950 . S
C79 N74 1.332 . S
C79 C78 1.382 . S
C79 H89 0.948 . S
N80 Co58 2.324 . S
N80 C84 1.332 . S
N80 C85 1.332 . S
C81 C82 1.388 . S
C81 C85 1.382 . S
C81 H104 0.950 . S
C82 C81 1.388 . S
C82 C83 1.386 . S
C83 C82 1.386 . S
C83 C84 1.382 . S
C83 H105 0.950 . S
C84 N80 1.332 . S
C84 C83 1.382 . S
C84 H86 0.917 1_545 S
C85 N80 1.332 . S
C85 C81 1.382 . S
C85 H87 0.948 . S
H86 C84 0.917 1_565 S
H87 C85 0.948 . S
H88 C77 0.952 1_545 S
H89 C79 0.948 . S
C90 C56 1.395 . S
C90 C60 1.391 . S
C91 C53 1.389 . S
C91 C73 1.392 . S
C92 C63 1.392 . S
C92 C65 1.389 . S
C93 C68 1.395 . S
C93 C70 1.391 . S
H94 C54 0.951 . S
H95 C55 0.950 . S
H96 C61 0.949 . S
H97 C62 0.950 . S
H98 C66 0.951 . S
H99 C67 0.950 . S
H100 C71 0.949 . S
H101 C72 0.950 . S
H102 C76 0.950 . S
H103 C78 0.950 . S
H104 C81 0.950 . S
H105 C83 0.950 . S
C106 C107 1.443 . S
C106 N110 1.376 . S
C106 C144 1.389 . S
C107 C106 1.443 . S
C107 C108 1.340 . S
C107 H147 0.951 . S
C108 C107 1.340 . S
C108 C109 1.439 . S
C108 H148 0.950 . S
C109 C108 1.439 . S
C109 N110 1.374 . S
C109 C143 1.395 . S
N110 C106 1.376 . S
N110 C109 1.374 . S
N110 Co111 1.998 1_556 S
Co111 N110 1.998 1_554 S
Co111 N112 1.992 1_554 S
Co111 N117 2.019 . S
Co111 N122 1.998 . S
Co111 N127 2.288 . S
Co111 N133 2.277 1_554 S
N112 Co111 1.992 1_556 S
N112 C113 1.376 . S
N112 C116 1.383 1_556 S
C113 N112 1.376 . S
C113 C114 1.446 . S
C113 C143 1.391 . S
C114 C113 1.446 . S
C114 C115 1.339 . S
C114 H149 0.949 . S
C115 C114 1.339 . S
C115 C116 1.439 1_556 S
C115 H150 0.950 1_556 S
C116 N112 1.383 1_554 S
C116 C115 1.439 1_554 S
C116 C145 1.392 . S
N117 Co111 2.019 . S
N117 C118 1.376 . S
N117 C121 1.374 . S
C118 N117 1.376 . S
C118 C119 1.443 . S
C118 C145 1.389 . S
C119 C118 1.443 . S
C119 C120 1.340 . S
C119 H151 0.951 . S
C120 C119 1.340 . S
C120 C121 1.439 . S
C120 H152 0.950 . S
C121 N117 1.374 . S
C121 C120 1.439 . S
C121 C146 1.395 . S
N122 Co111 1.998 . S
N122 C123 1.376 . S
N122 C126 1.383 1_554 S
C123 N122 1.376 . S
C123 C124 1.446 . S
C123 C146 1.391 . S
C124 C123 1.446 . S
C124 C125 1.339 . S
C124 H153 0.949 . S
C125 C124 1.339 . S
C125 C126 1.439 1_554 S
C125 H154 0.950 1_554 S
C126 N122 1.383 1_556 S
C126 C125 1.439 1_556 S
C126 C144 1.392 . S
N127 Co111 2.288 . S
N127 C130 1.332 . S
N127 C132 1.332 . S
C128 C129 1.386 . S
C128 C131 1.388 . S
C129 C128 1.386 . S
C129 C130 1.382 . S
C129 H155 0.950 . S
C130 N127 1.332 . S
C130 C129 1.382 . S
C130 H141 0.952 . S
C131 C128 1.388 . S
C131 C132 1.382 . S
C131 H156 0.950 . S
C132 N127 1.332 . S
C132 C131 1.382 . S
C132 H142 0.910 1_554 S
N133 Co111 2.277 1_556 S
N133 C137 1.332 . S
N133 C138 1.332 . S
C134 C135 1.388 . S
C134 C138 1.382 . S
C134 H157 0.950 . S
C135 C134 1.388 . S
C135 C136 1.386 . S
C136 C135 1.386 . S
C136 C137 1.382 . S
C136 H158 0.950 . S
C137 N133 1.332 . S
C137 C136 1.382 . S
C137 H139 0.952 . S
C138 N133 1.332 . S
C138 C134 1.382 . S
C138 H140 0.948 1_556 S
H139 C137 0.952 . S
H140 C138 0.948 1_554 S
H141 C130 0.952 . S
H142 C132 0.910 1_556 S
C143 C109 1.395 . S
C143 C113 1.391 . S
C144 C106 1.389 . S
C144 C126 1.392 . S
C145 C116 1.392 . S
C145 C118 1.389 . S
C146 C121 1.395 . S
C146 C123 1.391 . S
H147 C107 0.951 . S
H148 C108 0.950 . S
H149 C114 0.949 . S
H150 C115 0.950 1_554 S
H151 C119 0.951 . S
H152 C120 0.950 . S
H153 C124 0.949 . S
H154 C125 0.950 1_556 S
H155 C129 0.950 . S
H156 C131 0.950 . S
H157 C134 0.950 . S
H158 C136 0.950 . S
C159 C160 1.443 . S
C159 N163 1.376 . S
C159 C197 1.389 . S
C160 C159 1.443 . S
C160 C161 1.340 . S
C160 H200 0.951 . S
C161 C160 1.340 . S
C161 C162 1.439 . S
C161 H201 0.950 . S
C162 C161 1.439 . S
C162 N163 1.374 . S
C162 C196 1.395 . S
N163 C159 1.376 . S
N163 C162 1.374 . S
N163 Co164 1.995 1_655 S
Co164 N163 1.995 1_455 S
Co164 N165 1.987 1_455 S
Co164 N170 2.022 . S
Co164 N175 2.003 . S
Co164 N180 2.300 . S
Co164 N186 2.265 1_455 S
N165 Co164 1.987 1_655 S
N165 C166 1.376 . S
N165 C169 1.383 1_655 S
C166 N165 1.376 . S
C166 C167 1.446 . S
C166 C196 1.391 . S
C167 C166 1.446 . S
C167 C168 1.339 1_655 S
C167 H202 0.949 . S
C168 C167 1.339 1_455 S
C168 C169 1.439 . S
C168 H203 0.950 . S
C169 N165 1.383 1_455 S
C169 C168 1.439 . S
C169 C198 1.392 . S
N170 Co164 2.022 . S
N170 C171 1.376 . S
N170 C174 1.374 . S
C171 N170 1.376 . S
C171 C172 1.443 . S
C171 C198 1.389 . S
C172 C171 1.443 . S
C172 C173 1.340 . S
C172 H204 0.951 . S
C173 C172 1.340 . S
C173 C174 1.439 . S
C173 H205 0.950 . S
C174 N170 1.374 . S
C174 C173 1.439 . S
C174 C199 1.395 . S
N175 Co164 2.003 . S
N175 C176 1.376 . S
N175 C179 1.383 1_455 S
C176 N175 1.376 . S
C176 C177 1.446 . S
C176 C199 1.391 . S
C177 C176 1.446 . S
C177 C178 1.339 1_455 S
C177 H206 0.949 . S
C178 C177 1.339 1_655 S
C178 C179 1.439 . S
C178 H207 0.950 . S
C179 N175 1.383 1_655 S
C179 C178 1.439 . S
C179 C197 1.392 . S
N180 Co164 2.300 . S
N180 C183 1.332 . S
N180 C185 1.332 . S
C181 C182 1.386 . S
C181 C184 1.388 . S
C182 C181 1.386 . S
C182 C183 1.382 . S
C182 H208 0.950 . S
C183 N180 1.332 . S
C183 C182 1.382 . S
C183 H194 0.952 . S
C184 C181 1.388 . S
C184 C185 1.382 . S
C184 H209 0.950 . S
C185 N180 1.332 . S
C185 C184 1.382 . S
C185 H195 0.948 . S
N186 Co164 2.265 1_655 S
N186 C190 1.332 . S
N186 C191 1.332 . S
C187 C188 1.388 . S
C187 C191 1.382 . S
C187 H210 0.950 . S
C188 C187 1.388 . S
C188 C189 1.386 . S
C189 C188 1.386 . S
C189 C190 1.382 . S
C189 H211 0.950 . S
C190 N186 1.332 . S
C190 C189 1.382 . S
C190 H192 0.952 . S
C191 N186 1.332 . S
C191 C187 1.382 . S
C191 H193 0.948 . S
H192 C190 0.952 . S
H193 C191 0.948 . S
H194 C183 0.952 . S
H195 C185 0.948 . S
C196 C162 1.395 . S
C196 C166 1.391 . S
C197 C159 1.389 . S
C197 C179 1.392 . S
C198 C169 1.392 . S
C198 C171 1.389 . S
C199 C174 1.395 . S
C199 C176 1.391 . S
H200 C160 0.951 . S
H201 C161 0.950 . S
H202 C167 0.949 . S
H203 C168 0.950 . S
H204 C172 0.951 . S
H205 C173 0.950 . S
H206 C177 0.949 . S
H207 C178 0.950 . S
H208 C182 0.950 . S
H209 C184 0.950 . S
H210 C187 0.950 . S
H211 C189 0.950 . S
C212 C213 1.443 . S
C212 N216 1.376 1_565 S
C212 C250 1.389 . S
C213 C212 1.443 . S
C213 C214 1.340 1_565 S
C213 H253 0.951 . S
C214 C213 1.340 1_545 S
C214 C215 1.439 . S
C214 H254 0.950 . S
C215 C214 1.439 . S
C215 N216 1.374 . S
C215 C249 1.395 . S
N216 C212 1.376 1_545 S
N216 C215 1.374 . S
N216 Co217 2.032 . S
Co217 N216 2.032 . S
Co217 N218 2.020 . S
Co217 N223 1.980 1_544 S
Co217 N228 1.971 1_544 S
Co217 N233 2.317 1_554 S
Co217 N239 2.248 1_545 S
N218 Co217 2.020 . S
N218 C219 1.376 . S
N218 C222 1.383 1_554 S
C219 N218 1.376 . S
C219 C220 1.446 . S
C219 C249 1.391 . S
C220 C219 1.446 . S
C220 C221 1.303 1_554 S
C220 H255 0.949 . S
C221 C220 1.303 1_556 S
C221 C222 1.455 . S
C221 H256 0.967 . S
C222 N218 1.383 1_556 S
C222 C221 1.455 . S
C222 C251 1.392 . S
N223 Co217 1.980 1_566 S
N223 C224 1.369 1_565 S
N223 C227 1.385 . S
C224 N223 1.369 1_545 S
C224 C225 1.443 . S
C224 C251 1.389 . S
C225 C224 1.443 . S
C225 C226 1.340 1_545 S
C225 H257 0.951 . S
C226 C225 1.340 1_565 S
C226 C227 1.439 . S
C226 H258 0.950 . S
C227 N223 1.385 . S
C227 C226 1.439 . S
C227 C252 1.395 . S
N228 Co217 1.971 1_566 S
N228 C229 1.376 . S
N228 C232 1.383 1_556 S
C229 N228 1.376 . S
C229 C230 1.446 . S
C229 C252 1.391 . S
C230 C229 1.446 . S
C230 C231 1.339 1_556 S
C230 H259 0.949 . S
C231 C230 1.339 1_554 S
C231 C232 1.439 . S
C231 H260 0.950 . S
C232 N228 1.383 1_554 S
C232 C231 1.439 . S
C232 C250 1.392 . S
N233 Co217 2.317 1_556 S
N233 C236 1.332 . S
N233 C238 1.332 . S
C234 C235 1.386 . S
C234 C237 1.388 . S
C235 C234 1.386 . S
C235 C236 1.382 . S
C235 H261 0.950 . S
C236 N233 1.332 . S
C236 C235 1.382 . S
C236 H247 0.944 1_545 S
C237 C234 1.388 . S
C237 C238 1.382 . S
C237 H262 0.950 . S
C238 N233 1.332 . S
C238 C237 1.382 . S
C238 H248 0.963 . S
N239 Co217 2.248 1_565 S
N239 C243 1.332 . S
N239 C244 1.332 . S
C240 C241 1.388 . S
C240 C244 1.382 . S
C240 H263 0.950 . S
C241 C240 1.388 . S
C241 C242 1.386 . S
C242 C241 1.386 . S
C242 C243 1.382 . S
C242 H264 0.950 . S
C243 N239 1.332 . S
C243 C242 1.382 . S
C243 H245 0.952 1_565 S
C244 N239 1.332 . S
C244 C240 1.382 . S
C244 H246 0.948 . S
H245 C243 0.952 1_545 S
H246 C244 0.948 . S
H247 C236 0.944 1_565 S
H248 C238 0.963 . S
C249 C215 1.395 . S
C249 C219 1.391 . S
C250 C212 1.389 . S
C250 C232 1.392 . S
C251 C222 1.392 . S
C251 C224 1.389 . S
C252 C227 1.395 . S
C252 C229 1.391 . S
H253 C213 0.951 . S
H254 C214 0.950 . S
H255 C220 0.949 . S
H256 C221 0.967 . S
H257 C225 0.951 . S
H258 C226 0.950 . S
H259 C230 0.949 . S
H260 C231 0.950 . S
H261 C235 0.950 . S
H262 C237 0.950 . S
H263 C240 0.950 . S
H264 C242 0.950 . S
C265 C266 1.443 . S
C265 N269 1.376 . S
C265 C303 1.389 . S
C266 C265 1.443 . S
C266 C267 1.340 . S
C266 H306 0.951 . S
C267 C266 1.340 . S
C267 C268 1.439 . S
C267 H307 0.950 . S
C268 C267 1.439 . S
C268 N269 1.374 . S
C268 C302 1.395 . S
N269 C265 1.376 . S
N269 C268 1.374 . S
N269 Co270 2.008 . S
Co270 N269 2.008 . S
Co270 N271 1.995 . S
Co270 N276 2.008 . S
Co270 N281 1.995 . S
Co270 N286 2.282 . S
Co270 N292 2.282 . S
N271 Co270 1.995 . S
N271 C272 1.376 . S
N271 C275 1.383 . S
C272 N271 1.376 . S
C272 C273 1.446 . S
C272 C302 1.391 . S
C273 C272 1.446 . S
C273 C274 1.339 . S
C273 H308 0.949 . S
C274 C273 1.339 . S
C274 C275 1.439 . S
C274 H309 0.950 . S
C275 N271 1.383 . S
C275 C274 1.439 . S
C275 C304 1.392 . S
N276 Co270 2.008 . S
N276 C277 1.376 . S
N276 C280 1.374 . S
C277 N276 1.376 . S
C277 C278 1.443 . S
C277 C304 1.389 . S
C278 C277 1.443 . S
C278 C279 1.340 . S
C278 H310 0.951 . S
C279 C278 1.340 . S
C279 C280 1.439 . S
C279 H311 0.950 . S
C280 N276 1.374 . S
C280 C279 1.439 . S
C280 C305 1.395 . S
N281 Co270 1.995 . S
N281 C282 1.376 . S
N281 C285 1.383 . S
C282 N281 1.376 . S
C282 C283 1.446 . S
C282 C305 1.391 . S
C283 C282 1.446 . S
C283 C284 1.339 . S
C283 H312 0.949 . S
C284 C283 1.339 . S
C284 C285 1.439 . S
C284 H313 0.950 . S
C285 N281 1.383 . S
C285 C284 1.439 . S
C285 C303 1.392 . S
N286 Co270 2.282 . S
N286 C289 1.332 . S
N286 C291 1.332 . S
C287 C288 1.386 . S
C287 C290 1.388 . S
C288 C287 1.386 . S
C288 C289 1.382 . S
C288 H314 0.950 . S
C289 N286 1.332 . S
C289 C288 1.382 . S
C289 H300 0.952 . S
C290 C287 1.388 . S
C290 C291 1.382 . S
C290 H315 0.950 . S
C291 N286 1.332 . S
C291 C290 1.382 . S
C291 H301 0.948 . S
N292 Co270 2.282 . S
N292 C296 1.332 . S
N292 C297 1.332 . S
C293 C294 1.388 . S
C293 C297 1.382 . S
C293 H316 0.950 . S
C294 C293 1.388 . S
C294 C295 1.386 . S
C295 C294 1.386 . S
C295 C296 1.382 . S
C295 H317 0.950 . S
C296 N292 1.332 . S
C296 C295 1.382 . S
C296 H298 0.952 . S
C297 N292 1.332 . S
C297 C293 1.382 . S
C297 H299 0.948 . S
H298 C296 0.952 . S
H299 C297 0.948 . S
H300 C289 0.952 . S
H301 C291 0.948 . S
C302 C268 1.395 . S
C302 C272 1.391 . S
C303 C265 1.389 . S
C303 C285 1.392 . S
C304 C275 1.392 . S
C304 C277 1.389 . S
C305 C280 1.395 . S
C305 C282 1.391 . S
H306 C266 0.951 . S
H307 C267 0.950 . S
H308 C273 0.949 . S
H309 C274 0.950 . S
H310 C278 0.951 . S
H311 C279 0.950 . S
H312 C283 0.949 . S
H313 C284 0.950 . S
H314 C288 0.950 . S
H315 C290 0.950 . S
H316 C293 0.950 . S
H317 C295 0.950 . S
H318 C337 0.949 . S
H319 C338 0.950 . S
H320 C340 0.950 . S
H321 C341 0.950 . S
H322 C343 0.950 . S
H323 C346 0.950 . S
H324 C347 0.950 . S
H325 C349 0.951 . S
H326 C350 0.949 . S
H327 C352 0.949 . S
H328 C353 0.950 . S
H329 C355 0.950 . S
H330 C356 0.950 . S
H331 C358 0.950 . S
H332 C361 0.950 . S
H333 C362 0.950 . S
H334 C364 0.951 . S
H335 C365 0.949 . S
C336 C337 1.376 . S
C336 C341 1.386 . S
C336 C342 1.483 . S
C337 H318 0.949 . S
C337 C336 1.376 . S
C337 C338 1.397 . S
C338 H319 0.950 . S
C338 C337 1.397 . S
C338 C339 1.391 . S
C339 C338 1.391 . S
C339 C340 1.405 . S
C340 H320 0.950 . S
C340 C339 1.405 . S
C340 C341 1.367 . S
C341 H321 0.950 . S
C341 C336 1.386 . S
C341 C340 1.367 . S
C342 C336 1.483 . S
C342 C343 1.382 . S
C342 C344 1.403 . S
C343 H322 0.950 . S
C343 C342 1.382 . S
C343 C359 1.411 . S
C344 C342 1.403 . S
C344 C345 1.489 . S
C344 C358 1.411 . S
C345 C344 1.489 . S
C345 C346 1.383 . S
C345 C350 1.382 . S
C346 H323 0.950 . S
C346 C345 1.383 . S
C346 C347 1.395 . S
C347 H324 0.950 . S
C347 C346 1.395 . S
C347 C348 1.288 . S
C348 C347 1.288 . S
C348 C349 1.392 . S
C349 H325 0.951 . S
C349 C348 1.392 . S
C349 C350 1.392 . S
C350 H326 0.949 . S
C350 C345 1.382 . S
C350 C349 1.392 . S
C351 C352 1.376 . S
C351 C356 1.386 . S
C351 C357 1.483 . S
C352 H327 0.949 . S
C352 C351 1.376 . S
C352 C353 1.397 . S
C353 H328 0.950 . S
C353 C352 1.397 . S
C353 C354 1.391 . S
C354 C353 1.391 . S
C354 C355 1.405 . S
C355 H329 0.950 . S
C355 C354 1.405 . S
C355 C356 1.367 . S
C356 H330 0.950 . S
C356 C351 1.386 . S
C356 C355 1.367 . S
C357 C351 1.483 . S
C357 C358 1.382 . S
C357 C359 1.403 . S
C358 H331 0.950 . S
C358 C344 1.411 . S
C358 C357 1.382 . S
C359 C343 1.411 . S
C359 C357 1.403 . S
C359 C360 1.489 . S
C360 C359 1.489 . S
C360 C361 1.383 . S
C360 C365 1.382 . S
C361 H332 0.950 . S
C361 C360 1.383 . S
C361 C362 1.395 . S
C362 H333 0.950 . S
C362 C361 1.395 . S
C362 C363 1.288 . S
C363 C362 1.288 . S
C363 C364 1.392 . S
C364 H334 0.951 . S
C364 C363 1.392 . S
C364 C365 1.392 . S
C365 H335 0.949 . S
C365 C360 1.382 . S
C365 C364 1.392 . S
H366 C385 0.949 . S
H367 C386 0.950 . S
H368 C388 0.950 . S
H369 C389 0.950 . S
H370 C391 0.950 . S
H371 C394 0.950 . S
H372 C395 0.950 . S
H373 C397 0.951 . S
H374 C398 0.949 . S
H375 C400 0.949 . S
H376 C401 0.950 . S
H377 C403 0.950 . S
H378 C404 0.950 . S
H379 C406 0.950 . S
H380 C409 0.950 . S
H381 C410 0.950 . S
H382 C412 0.951 . S
H383 C413 0.949 . S
C384 C385 1.376 . S
C384 C389 1.386 . S
C384 C390 1.483 . S
C385 H366 0.949 . S
C385 C384 1.376 . S
C385 C386 1.397 . S
C386 H367 0.950 . S
C386 C385 1.397 . S
C386 C387 1.391 . S
C387 C386 1.391 . S
C387 C388 1.405 . S
C388 H368 0.950 . S
C388 C387 1.405 . S
C388 C389 1.367 . S
C389 H369 0.950 . S
C389 C384 1.386 . S
C389 C388 1.367 . S
C390 C384 1.483 . S
C390 C391 1.382 . S
C390 C392 1.403 . S
C391 H370 0.950 . S
C391 C390 1.382 . S
C391 C407 1.411 . S
C392 C390 1.403 . S
C392 C393 1.489 . S
C392 C406 1.411 . S
C393 C392 1.489 . S
C393 C394 1.383 . S
C393 C398 1.382 . S
C394 H371 0.950 . S
C394 C393 1.383 . S
C394 C395 1.395 . S
C395 H372 0.950 . S
C395 C394 1.395 . S
C395 C396 1.288 . S
C396 C395 1.288 . S
C396 C397 1.392 . S
C397 H373 0.951 . S
C397 C396 1.392 . S
C397 C398 1.392 . S
C398 H374 0.949 . S
C398 C393 1.382 . S
C398 C397 1.392 . S
C399 C400 1.376 . S
C399 C404 1.386 . S
C399 C405 1.483 . S
C400 H375 0.949 . S
C400 C399 1.376 . S
C400 C401 1.397 . S
C401 H376 0.950 . S
C401 C400 1.397 . S
C401 C402 1.391 . S
C402 C401 1.391 . S
C402 C403 1.405 . S
C403 H377 0.950 . S
C403 C402 1.405 . S
C403 C404 1.367 . S
C404 H378 0.950 . S
C404 C399 1.386 . S
C404 C403 1.367 . S
C405 C399 1.483 . S
C405 C406 1.382 . S
C405 C407 1.403 . S
C406 H379 0.950 . S
C406 C392 1.411 . S
C406 C405 1.382 . S
C407 C391 1.411 . S
C407 C405 1.403 . S
C407 C408 1.489 . S
C408 C407 1.489 . S
C408 C409 1.383 . S
C408 C413 1.382 . S
C409 H380 0.950 . S
C409 C408 1.383 . S
C409 C410 1.395 . S
C410 H381 0.950 . S
C410 C409 1.395 . S
C410 C411 1.288 . S
C411 C410 1.288 . S
C411 C412 1.392 . S
C412 H382 0.951 . S
C412 C411 1.392 . S
C412 C413 1.392 . S
C413 H383 0.949 . S
C413 C408 1.382 . S
C413 C412 1.392 . S
H414 C433 0.949 . S
H415 C434 0.950 . S
H416 C436 0.950 . S
H417 C437 0.950 . S
H418 C439 0.950 . S
H419 C442 0.950 . S
H420 C443 0.950 . S
H421 C445 0.951 . S
H422 C446 0.949 . S
H423 C448 0.949 . S
H424 C449 0.950 . S
H425 C451 0.950 . S
H426 C452 0.950 . S
H427 C454 0.950 . S
H428 C457 0.950 . S
H429 C458 0.950 . S
H430 C460 0.951 . S
H431 C461 0.949 . S
C432 C433 1.376 . S
C432 C437 1.386 . S
C432 C438 1.483 . S
C433 H414 0.949 . S
C433 C432 1.376 . S
C433 C434 1.397 . S
C434 H415 0.950 . S
C434 C433 1.397 . S
C434 C435 1.391 . S
C435 C434 1.391 . S
C435 C436 1.405 . S
C436 H416 0.950 . S
C436 C435 1.405 . S
C436 C437 1.367 . S
C437 H417 0.950 . S
C437 C432 1.386 . S
C437 C436 1.367 . S
C438 C432 1.483 . S
C438 C439 1.382 . S
C438 C440 1.403 . S
C439 H418 0.950 . S
C439 C438 1.382 . S
C439 C455 1.411 . S
C440 C438 1.403 . S
C440 C441 1.489 . S
C440 C454 1.411 . S
C441 C440 1.489 . S
C441 C442 1.383 . S
C441 C446 1.382 . S
C442 H419 0.950 . S
C442 C441 1.383 . S
C442 C443 1.395 . S
C443 H420 0.950 . S
C443 C442 1.395 . S
C443 C444 1.288 . S
C444 C443 1.288 . S
C444 C445 1.392 . S
C445 H421 0.951 . S
C445 C444 1.392 . S
C445 C446 1.392 . S
C446 H422 0.949 . S
C446 C441 1.382 . S
C446 C445 1.392 . S
C447 C448 1.376 . S
C447 C452 1.386 . S
C447 C453 1.483 . S
C448 H423 0.949 . S
C448 C447 1.376 . S
C448 C449 1.397 . S
C449 H424 0.950 . S
C449 C448 1.397 . S
C449 C450 1.391 . S
C450 C449 1.391 . S
C450 C451 1.405 . S
C451 H425 0.950 . S
C451 C450 1.405 . S
C451 C452 1.367 . S
C452 H426 0.950 . S
C452 C447 1.386 . S
C452 C451 1.367 . S
C453 C447 1.483 . S
C453 C454 1.382 . S
C453 C455 1.403 . S
C454 H427 0.950 . S
C454 C440 1.411 . S
C454 C453 1.382 . S
C455 C439 1.411 . S
C455 C453 1.403 . S
C455 C456 1.489 . S
C456 C455 1.489 . S
C456 C457 1.383 . S
C456 C461 1.382 . S
C457 H428 0.950 . S
C457 C456 1.383 . S
C457 C458 1.395 . S
C458 H429 0.950 . S
C458 C457 1.395 . S
C458 C459 1.288 . S
C459 C458 1.288 . S
C459 C460 1.392 . S
C460 H430 0.951 . S
C460 C459 1.392 . S
C460 C461 1.392 . S
C461 H431 0.949 . S
C461 C456 1.382 . S
C461 C460 1.392 . S
H462 C481 0.949 . S
H463 C482 0.950 . S
H464 C484 0.950 . S
H465 C485 0.950 . S
H466 C487 0.950 . S
H467 C490 0.950 . S
H468 C491 0.950 . S
H469 C493 0.951 . S
H470 C494 0.949 . S
H471 C496 0.949 . S
H472 C497 0.950 . S
H473 C499 0.950 . S
H474 C500 0.950 . S
H475 C502 0.950 . S
H476 C505 0.950 . S
H477 C506 0.950 . S
H478 C508 0.951 . S
H479 C509 0.949 . S
C480 C481 1.376 . S
C480 C485 1.386 . S
C480 C486 1.483 . S
C481 H462 0.949 . S
C481 C480 1.376 . S
C481 C482 1.397 . S
C482 H463 0.950 . S
C482 C481 1.397 . S
C482 C483 1.391 . S
C483 C482 1.391 . S
C483 C484 1.405 . S
C484 H464 0.950 . S
C484 C483 1.405 . S
C484 C485 1.367 . S
C485 H465 0.950 . S
C485 C480 1.386 . S
C485 C484 1.367 . S
C486 C480 1.483 . S
C486 C487 1.382 . S
C486 C488 1.403 . S
C487 H466 0.950 . S
C487 C486 1.382 . S
C487 C503 1.411 . S
C488 C486 1.403 . S
C488 C489 1.489 . S
C488 C502 1.411 . S
C489 C488 1.489 . S
C489 C490 1.383 . S
C489 C494 1.382 . S
C490 H467 0.950 . S
C490 C489 1.383 . S
C490 C491 1.395 . S
C491 H468 0.950 . S
C491 C490 1.395 . S
C491 C492 1.288 . S
C492 C491 1.288 . S
C492 C493 1.392 . S
C493 H469 0.951 . S
C493 C492 1.392 . S
C493 C494 1.392 . S
C494 H470 0.949 . S
C494 C489 1.382 . S
C494 C493 1.392 . S
C495 C496 1.376 . S
C495 C500 1.386 . S
C495 C501 1.483 . S
C496 H471 0.949 . S
C496 C495 1.376 . S
C496 C497 1.397 . S
C497 H472 0.950 . S
C497 C496 1.397 . S
C497 C498 1.391 . S
C498 C497 1.391 . S
C498 C499 1.405 . S
C499 H473 0.950 . S
C499 C498 1.405 . S
C499 C500 1.367 . S
C500 H474 0.950 . S
C500 C495 1.386 . S
C500 C499 1.367 . S
C501 C495 1.483 . S
C501 C502 1.382 . S
C501 C503 1.403 . S
C502 H475 0.950 . S
C502 C488 1.411 . S
C502 C501 1.382 . S
C503 C487 1.411 . S
C503 C501 1.403 . S
C503 C504 1.489 . S
C504 C503 1.489 . S
C504 C505 1.383 . S
C504 C509 1.382 . S
C505 H476 0.950 . S
C505 C504 1.383 . S
C505 C506 1.395 . S
C506 H477 0.950 . S
C506 C505 1.395 . S
C506 C507 1.288 . S
C507 C506 1.288 . S
C507 C508 1.392 . S
C508 H478 0.951 . S
C508 C507 1.392 . S
C508 C509 1.392 . S
C509 H479 0.949 . S
C509 C504 1.382 . S
C509 C508 1.392 . S
H510 C529 0.949 . S
H511 C530 0.950 . S
H512 C532 0.950 . S
H513 C533 0.950 . S
H514 C535 0.950 . S
H515 C538 0.950 . S
H516 C539 0.950 . S
H517 C541 0.951 . S
H518 C542 0.949 . S
H519 C544 0.949 . S
H520 C545 0.950 . S
H521 C547 0.950 . S
H522 C548 0.950 . S
H523 C550 0.950 . S
H524 C553 0.950 . S
H525 C554 0.950 . S
H526 C556 0.951 . S
H527 C557 0.949 . S
C528 C529 1.376 . S
C528 C533 1.386 . S
C528 C534 1.483 . S
C529 H510 0.949 . S
C529 C528 1.376 . S
C529 C530 1.397 . S
C530 H511 0.950 . S
C530 C529 1.397 . S
C530 C531 1.391 . S
C531 C530 1.391 . S
C531 C532 1.405 . S
C532 H512 0.950 . S
C532 C531 1.405 . S
C532 C533 1.367 . S
C533 H513 0.950 . S
C533 C528 1.386 . S
C533 C532 1.367 . S
C534 C528 1.483 . S
C534 C535 1.382 . S
C534 C536 1.403 . S
C535 H514 0.950 . S
C535 C534 1.382 . S
C535 C551 1.411 . S
C536 C534 1.403 . S
C536 C537 1.489 . S
C536 C550 1.411 . S
C537 C536 1.489 . S
C537 C538 1.383 . S
C537 C542 1.382 . S
C538 H515 0.950 . S
C538 C537 1.383 . S
C538 C539 1.395 . S
C539 H516 0.950 . S
C539 C538 1.395 . S
C539 C540 1.288 . S
C540 C539 1.288 . S
C540 C541 1.392 . S
C541 H517 0.951 . S
C541 C540 1.392 . S
C541 C542 1.392 . S
C542 H518 0.949 . S
C542 C537 1.382 . S
C542 C541 1.392 . S
C543 C544 1.376 . S
C543 C548 1.386 . S
C543 C549 1.483 . S
C544 H519 0.949 . S
C544 C543 1.376 . S
C544 C545 1.397 . S
C545 H520 0.950 . S
C545 C544 1.397 . S
C545 C546 1.391 . S
C546 C545 1.391 . S
C546 C547 1.405 . S
C547 H521 0.950 . S
C547 C546 1.405 . S
C547 C548 1.367 . S
C548 H522 0.950 . S
C548 C543 1.386 . S
C548 C547 1.367 . S
C549 C543 1.483 . S
C549 C550 1.382 . S
C549 C551 1.403 . S
C550 H523 0.950 . S
C550 C536 1.411 . S
C550 C549 1.382 . S
C551 C535 1.411 . S
C551 C549 1.403 . S
C551 C552 1.489 . S
C552 C551 1.489 . S
C552 C553 1.383 . S
C552 C557 1.382 . S
C553 H524 0.950 . S
C553 C552 1.383 . S
C553 C554 1.395 . S
C554 H525 0.950 . S
C554 C553 1.395 . S
C554 C555 1.288 . S
C555 C554 1.288 . S
C555 C556 1.392 . S
C556 H526 0.951 . S
C556 C555 1.392 . S
C556 C557 1.392 . S
C557 H527 0.949 . S
C557 C552 1.382 . S
C557 C556 1.392 . S
H558 C577 0.949 . S
H559 C578 0.950 . S
H560 C580 0.950 . S
H561 C581 0.950 . S
H562 C583 0.950 . S
H563 C586 0.950 . S
H564 C587 0.950 . S
H565 C589 0.951 . S
H566 C590 0.949 . S
H567 C592 0.949 . S
H568 C593 0.950 . S
H569 C595 0.950 . S
H570 C596 0.950 . S
H571 C598 0.950 . S
H572 C601 0.950 . S
H573 C602 0.950 . S
H574 C604 0.951 . S
H575 C605 0.949 . S
C576 C577 1.376 . S
C576 C581 1.386 . S
C576 C582 1.483 . S
C577 H558 0.949 . S
C577 C576 1.376 . S
C577 C578 1.397 . S
C578 H559 0.950 . S
C578 C577 1.397 . S
C578 C579 1.391 . S
C579 C578 1.391 . S
C579 C580 1.405 . S
C580 H560 0.950 . S
C580 C579 1.405 . S
C580 C581 1.367 . S
C581 H561 0.950 . S
C581 C576 1.386 . S
C581 C580 1.367 . S
C582 C576 1.483 . S
C582 C583 1.382 . S
C582 C584 1.403 . S
C583 H562 0.950 . S
C583 C582 1.382 . S
C583 C599 1.411 . S
C584 C582 1.403 . S
C584 C585 1.489 . S
C584 C598 1.411 . S
C585 C584 1.489 . S
C585 C586 1.383 . S
C585 C590 1.382 . S
C586 H563 0.950 . S
C586 C585 1.383 . S
C586 C587 1.395 . S
C587 H564 0.950 . S
C587 C586 1.395 . S
C587 C588 1.288 . S
C588 C587 1.288 . S
C588 C589 1.392 . S
C589 H565 0.951 . S
C589 C588 1.392 . S
C589 C590 1.392 . S
C590 H566 0.949 . S
C590 C585 1.382 . S
C590 C589 1.392 . S
C591 C592 1.376 . S
C591 C596 1.386 . S
C591 C597 1.483 . S
C592 H567 0.949 . S
C592 C591 1.376 . S
C592 C593 1.397 . S
C593 H568 0.950 . S
C593 C592 1.397 . S
C593 C594 1.391 . S
C594 C593 1.391 . S
C594 C595 1.405 . S
C595 H569 0.950 . S
C595 C594 1.405 . S
C595 C596 1.367 . S
C596 H570 0.950 . S
C596 C591 1.386 . S
C596 C595 1.367 . S
C597 C591 1.483 . S
C597 C598 1.382 . S
C597 C599 1.403 . S
C598 H571 0.950 . S
C598 C584 1.411 . S
C598 C597 1.382 . S
C599 C583 1.411 . S
C599 C597 1.403 . S
C599 C600 1.489 . S
C600 C599 1.489 . S
C600 C601 1.383 . S
C600 C605 1.382 . S
C601 H572 0.950 . S
C601 C600 1.383 . S
C601 C602 1.395 . S
C602 H573 0.950 . S
C602 C601 1.395 . S
C602 C603 1.288 . S
C603 C602 1.288 . S
C603 C604 1.392 . S
C604 H574 0.951 . S
C604 C603 1.392 . S
C604 C605 1.392 . S
C605 H575 0.949 . S
C605 C600 1.382 . S
C605 C604 1.392 . S
H606 C624 0.951 . S
H607 C626 0.951 . S
H608 C628 0.950 . S
H609 C629 0.950 . S
H610 C631 0.950 . S
H611 C634 0.950 . S
H612 C635 0.950 . S
H613 C637 0.950 . S
H614 C638 0.950 . S
H615 C639 0.951 . S
H616 C641 0.951 . S
H617 C643 0.950 . S
H618 C644 0.950 . S
H619 C646 0.950 . S
H620 C649 0.950 . S
H621 C650 0.950 . S
H622 C652 0.950 . S
H623 C653 0.950 . S
C624 H606 0.951 . S
C624 C625 1.366 . S
C624 C626 1.388 . S
C625 C624 1.366 . S
C625 C629 1.385 . S
C626 H607 0.951 . S
C626 C624 1.388 . S
C626 C627 1.366 . S
C627 C626 1.366 . S
C627 C628 1.414 . S
C627 C630 1.499 . S
C628 H608 0.950 . S
C628 C627 1.414 . S
C628 C629 1.374 . S
C629 H609 0.950 . S
C629 C625 1.385 . S
C629 C628 1.374 . S
C630 C627 1.499 . S
C630 C631 1.373 . S
C630 C632 1.389 . S
C631 H610 0.950 . S
C631 C630 1.373 . S
C631 C647 1.377 . S
C632 C630 1.389 . S
C632 C633 1.524 . S
C632 C646 1.377 . S
C633 C632 1.524 . S
C633 C634 1.397 . S
C633 C638 1.363 . S
C634 H611 0.950 . S
C634 C633 1.397 . S
C634 C635 1.334 . S
C635 H612 0.950 . S
C635 C634 1.334 . S
C635 C636 1.287 . S
C636 C635 1.287 . S
C636 C637 1.524 . S
C636 H655 0.913 . S
C637 H613 0.950 . S
C637 C636 1.524 . S
C637 C638 1.415 . S
C638 H614 0.950 . S
C638 C633 1.363 . S
C638 C637 1.415 . S
C639 H615 0.951 . S
C639 C640 1.366 . S
C639 C641 1.388 . S
C640 C639 1.366 . S
C640 C644 1.385 . S
C641 H616 0.951 . S
C641 C639 1.388 . S
C641 C642 1.366 . S
C642 C641 1.366 . S
C642 C643 1.414 . S
C642 C645 1.499 . S
C643 H617 0.950 . S
C643 C642 1.414 . S
C643 C644 1.374 . S
C644 H618 0.950 . S
C644 C640 1.385 . S
C644 C643 1.374 . S
C645 C642 1.499 . S
C645 C646 1.373 . S
C645 C647 1.389 . S
C646 H619 0.950 . S
C646 C632 1.377 . S
C646 C645 1.373 . S
C647 C631 1.377 . S
C647 C645 1.389 . S
C647 C648 1.524 . S
C648 C647 1.524 . S
C648 C649 1.397 . S
C648 C653 1.363 . S
C649 H620 0.950 . S
C649 C648 1.397 . S
C649 C650 1.334 . S
C650 H621 0.950 . S
C650 C649 1.334 . S
C650 C651 1.287 . S
C651 C650 1.287 . S
C651 C652 1.524 . S
C651 H654 0.999 . S
C652 H622 0.950 . S
C652 C651 1.524 . S
C652 C653 1.415 . S
C653 H623 0.950 . S
C653 C648 1.363 . S
C653 C652 1.415 . S
H654 C651 0.999 . S
H655 C636 0.913 . S
H656 C674 0.951 . S
H657 C676 0.951 . S
H658 C678 0.950 . S
H659 C679 0.950 . S
H660 C681 0.950 . S
H661 C684 0.950 . S
H662 C685 0.950 . S
H663 C687 0.950 . S
H664 C688 0.950 . S
H665 C689 0.951 . S
H666 C691 0.951 . S
H667 C693 0.950 . S
H668 C694 0.950 . S
H669 C696 0.950 . S
H670 C699 0.950 . S
H671 C700 0.950 . S
H672 C702 0.950 . S
H673 C703 0.950 . S
C674 H656 0.951 . S
C674 C675 1.366 . S
C674 C676 1.388 . S
C675 C674 1.366 . S
C675 C679 1.385 . S
C676 H657 0.951 . S
C676 C674 1.388 . S
C676 C677 1.366 . S
C677 C676 1.366 . S
C677 C678 1.414 . S
C677 C680 1.499 . S
C678 H658 0.950 . S
C678 C677 1.414 . S
C678 C679 1.374 . S
C679 H659 0.950 . S
C679 C675 1.385 . S
C679 C678 1.374 . S
C680 C677 1.499 . S
C680 C681 1.373 . S
C680 C682 1.389 . S
C681 H660 0.950 . S
C681 C680 1.373 . S
C681 C697 1.377 . S
C682 C680 1.389 . S
C682 C683 1.524 . S
C682 C696 1.377 . S
C683 C682 1.524 . S
C683 C684 1.397 . S
C683 C688 1.363 . S
C684 H661 0.950 . S
C684 C683 1.397 . S
C684 C685 1.334 . S
C685 H662 0.950 . S
C685 C684 1.334 . S
C685 C686 1.287 . S
C686 C685 1.287 . S
C686 C687 1.524 . S
C686 H705 0.913 . S
C687 H663 0.950 . S
C687 C686 1.524 . S
C687 C688 1.415 . S
C688 H664 0.950 . S
C688 C683 1.363 . S
C688 C687 1.415 . S
C689 H665 0.951 . S
C689 C690 1.366 . S
C689 C691 1.388 . S
C690 C689 1.366 . S
C690 C694 1.385 . S
C691 H666 0.951 . S
C691 C689 1.388 . S
C691 C692 1.366 . S
C692 C691 1.366 . S
C692 C693 1.414 . S
C692 C695 1.499 . S
C693 H667 0.950 . S
C693 C692 1.414 . S
C693 C694 1.374 . S
C694 H668 0.950 . S
C694 C690 1.385 . S
C694 C693 1.374 . S
C695 C692 1.499 . S
C695 C696 1.373 . S
C695 C697 1.389 . S
C696 H669 0.950 . S
C696 C682 1.377 . S
C696 C695 1.373 . S
C697 C681 1.377 . S
C697 C695 1.389 . S
C697 C698 1.524 . S
C698 C697 1.524 . S
C698 C699 1.397 . S
C698 C703 1.363 . S
C699 H670 0.950 . S
C699 C698 1.397 . S
C699 C700 1.334 . S
C700 H671 0.950 . S
C700 C699 1.334 . S
C700 C701 1.287 . S
C701 C700 1.287 . S
C701 C702 1.524 . S
C701 H704 0.999 . S
C702 H672 0.950 . S
C702 C701 1.524 . S
C702 C703 1.415 . S
C703 H673 0.950 . S
C703 C698 1.363 . S
C703 C702 1.415 . S
H704 C701 0.999 . S
H705 C686 0.913 . S
H706 C724 0.951 . S
H707 C726 0.951 . S
H708 C728 0.950 . S
H709 C729 0.950 . S
H710 C731 0.950 . S
H711 C734 0.950 . S
H712 C735 0.950 . S
H713 C737 0.950 . S
H714 C738 0.950 . S
H715 C739 0.951 . S
H716 C741 0.951 . S
H717 C743 0.950 . S
H718 C744 0.950 . S
H719 C746 0.950 . S
H720 C749 0.950 . S
H721 C750 0.950 . S
H722 C752 0.950 . S
H723 C753 0.950 . S
C724 H706 0.951 . S
C724 C725 1.366 . S
C724 C726 1.388 . S
C725 C724 1.366 . S
C725 C729 1.385 . S
C726 H707 0.951 . S
C726 C724 1.388 . S
C726 C727 1.366 . S
C727 C726 1.366 . S
C727 C728 1.414 . S
C727 C730 1.499 . S
C728 H708 0.950 . S
C728 C727 1.414 . S
C728 C729 1.374 . S
C729 H709 0.950 . S
C729 C725 1.385 . S
C729 C728 1.374 . S
C730 C727 1.499 . S
C730 C731 1.373 . S
C730 C732 1.389 . S
C731 H710 0.950 . S
C731 C730 1.373 . S
C731 C747 1.377 . S
C732 C730 1.389 . S
C732 C733 1.524 . S
C732 C746 1.377 . S
C733 C732 1.524 . S
C733 C734 1.397 . S
C733 C738 1.363 . S
C734 H711 0.950 . S
C734 C733 1.397 . S
C734 C735 1.334 . S
C735 H712 0.950 . S
C735 C734 1.334 . S
C735 C736 1.287 . S
C736 C735 1.287 . S
C736 C737 1.524 . S
C736 H755 0.913 . S
C737 H713 0.950 . S
C737 C736 1.524 . S
C737 C738 1.415 . S
C738 H714 0.950 . S
C738 C733 1.363 . S
C738 C737 1.415 . S
C739 H715 0.951 . S
C739 C740 1.366 . S
C739 C741 1.388 . S
C740 C739 1.366 . S
C740 C744 1.385 . S
C741 H716 0.951 . S
C741 C739 1.388 . S
C741 C742 1.366 . S
C742 C741 1.366 . S
C742 C743 1.414 . S
C742 C745 1.499 . S
C743 H717 0.950 . S
C743 C742 1.414 . S
C743 C744 1.374 . S
C744 H718 0.950 . S
C744 C740 1.385 . S
C744 C743 1.374 . S
C745 C742 1.499 . S
C745 C746 1.373 . S
C745 C747 1.389 . S
C746 H719 0.950 . S
C746 C732 1.377 . S
C746 C745 1.373 . S
C747 C731 1.377 . S
C747 C745 1.389 . S
C747 C748 1.524 . S
C748 C747 1.524 . S
C748 C749 1.397 . S
C748 C753 1.363 . S
C749 H720 0.950 . S
C749 C748 1.397 . S
C749 C750 1.334 . S
C750 H721 0.950 . S
C750 C749 1.334 . S
C750 C751 1.287 . S
C751 C750 1.287 . S
C751 C752 1.524 . S
C751 H754 0.999 . S
C752 H722 0.950 . S
C752 C751 1.524 . S
C752 C753 1.415 . S
C753 H723 0.950 . S
C753 C748 1.363 . S
C753 C752 1.415 . S
H754 C751 0.999 . S
H755 C736 0.913 . S
H756 C774 0.951 . S
H757 C776 0.951 . S
H758 C778 0.950 . S
H759 C779 0.950 . S
H760 C781 0.950 . S
H761 C784 0.950 . S
H762 C785 0.950 . S
H763 C787 0.950 . S
H764 C788 0.950 . S
H765 C789 0.951 . S
H766 C791 0.951 . S
H767 C793 0.950 . S
H768 C794 0.950 . S
H769 C796 0.950 . S
H770 C799 0.950 . S
H771 C800 0.950 . S
H772 C802 0.950 . S
H773 C803 0.950 . S
C774 H756 0.951 . S
C774 C775 1.366 . S
C774 C776 1.388 . S
C775 C774 1.366 . S
C775 C779 1.385 . S
C776 H757 0.951 . S
C776 C774 1.388 . S
C776 C777 1.366 . S
C777 C776 1.366 . S
C777 C778 1.414 . S
C777 C780 1.499 . S
C778 H758 0.950 . S
C778 C777 1.414 . S
C778 C779 1.374 . S
C779 H759 0.950 . S
C779 C775 1.385 . S
C779 C778 1.374 . S
C780 C777 1.499 . S
C780 C781 1.373 . S
C780 C782 1.389 . S
C781 H760 0.950 . S
C781 C780 1.373 . S
C781 C797 1.377 . S
C782 C780 1.389 . S
C782 C783 1.524 . S
C782 C796 1.377 . S
C783 C782 1.524 . S
C783 C784 1.397 . S
C783 C788 1.363 . S
C784 H761 0.950 . S
C784 C783 1.397 . S
C784 C785 1.334 . S
C785 H762 0.950 . S
C785 C784 1.334 . S
C785 C786 1.287 . S
C786 C785 1.287 . S
C786 C787 1.524 . S
C786 H805 0.913 . S
C787 H763 0.950 . S
C787 C786 1.524 . S
C787 C788 1.415 . S
C788 H764 0.950 . S
C788 C783 1.363 . S
C788 C787 1.415 . S
C789 H765 0.951 . S
C789 C790 1.366 . S
C789 C791 1.388 . S
C790 C789 1.366 . S
C790 C794 1.385 . S
C791 H766 0.951 . S
C791 C789 1.388 . S
C791 C792 1.366 . S
C792 C791 1.366 . S
C792 C793 1.414 . S
C792 C795 1.499 . S
C793 H767 0.950 . S
C793 C792 1.414 . S
C793 C794 1.374 . S
C794 H768 0.950 . S
C794 C790 1.385 . S
C794 C793 1.374 . S
C795 C792 1.499 . S
C795 C796 1.373 . S
C795 C797 1.389 . S
C796 H769 0.950 . S
C796 C782 1.377 . S
C796 C795 1.373 . S
C797 C781 1.377 . S
C797 C795 1.389 . S
C797 C798 1.524 . S
C798 C797 1.524 . S
C798 C799 1.397 . S
C798 C803 1.363 . S
C799 H770 0.950 . S
C799 C798 1.397 . S
C799 C800 1.334 . S
C800 H771 0.950 . S
C800 C799 1.334 . S
C800 C801 1.287 . S
C801 C800 1.287 . S
C801 C802 1.524 . S
C801 H804 0.999 . S
C802 H772 0.950 . S
C802 C801 1.524 . S
C802 C803 1.415 . S
C803 H773 0.950 . S
C803 C798 1.363 . S
C803 C802 1.415 . S
H804 C801 0.999 . S
H805 C786 0.913 . S
H806 C824 0.951 . S
H807 C826 0.951 . S
H808 C828 0.950 . S
H809 C829 0.950 . S
H810 C831 0.950 . S
H811 C834 0.950 . S
H812 C835 0.950 . S
H813 C837 0.950 . S
H814 C838 0.950 . S
H815 C839 0.951 . S
H816 C841 0.951 . S
H817 C843 0.950 . S
H818 C844 0.950 . S
H819 C846 0.950 . S
H820 C849 0.950 . S
H821 C850 0.950 . S
H822 C852 0.950 . S
H823 C853 0.950 . S
C824 H806 0.951 . S
C824 C825 1.366 . S
C824 C826 1.388 . S
C825 C824 1.366 . S
C825 C829 1.385 . S
C826 H807 0.951 . S
C826 C824 1.388 . S
C826 C827 1.366 . S
C827 C826 1.366 . S
C827 C828 1.414 . S
C827 C830 1.499 . S
C828 H808 0.950 . S
C828 C827 1.414 . S
C828 C829 1.374 . S
C829 H809 0.950 . S
C829 C825 1.385 . S
C829 C828 1.374 . S
C830 C827 1.499 . S
C830 C831 1.373 . S
C830 C832 1.389 . S
C831 H810 0.950 . S
C831 C830 1.373 . S
C831 C847 1.377 . S
C832 C830 1.389 . S
C832 C833 1.524 . S
C832 C846 1.377 . S
C833 C832 1.524 . S
C833 C834 1.397 . S
C833 C838 1.363 . S
C834 H811 0.950 . S
C834 C833 1.397 . S
C834 C835 1.334 . S
C835 H812 0.950 . S
C835 C834 1.334 . S
C835 C836 1.287 . S
C836 C835 1.287 . S
C836 C837 1.524 . S
C836 H855 0.913 . S
C837 H813 0.950 . S
C837 C836 1.524 . S
C837 C838 1.415 . S
C838 H814 0.950 . S
C838 C833 1.363 . S
C838 C837 1.415 . S
C839 H815 0.951 . S
C839 C840 1.366 . S
C839 C841 1.388 . S
C840 C839 1.366 . S
C840 C844 1.385 . S
C841 H816 0.951 . S
C841 C839 1.388 . S
C841 C842 1.366 . S
C842 C841 1.366 . S
C842 C843 1.414 . S
C842 C845 1.499 . S
C843 H817 0.950 . S
C843 C842 1.414 . S
C843 C844 1.374 . S
C844 H818 0.950 . S
C844 C840 1.385 . S
C844 C843 1.374 . S
C845 C842 1.499 . S
C845 C846 1.373 . S
C845 C847 1.389 . S
C846 H819 0.950 . S
C846 C832 1.377 . S
C846 C845 1.373 . S
C847 C831 1.377 . S
C847 C845 1.389 . S
C847 C848 1.524 . S
C848 C847 1.524 . S
C848 C849 1.397 . S
C848 C853 1.363 . S
C849 H820 0.950 . S
C849 C848 1.397 . S
C849 C850 1.334 . S
C850 H821 0.950 . S
C850 C849 1.334 . S
C850 C851 1.287 . S
C851 C850 1.287 . S
C851 C852 1.524 . S
C851 H854 0.999 . S
C852 H822 0.950 . S
C852 C851 1.524 . S
C852 C853 1.415 . S
C853 H823 0.950 . S
C853 C848 1.363 . S
C853 C852 1.415 . S
H854 C851 0.999 . S
H855 C836 0.913 . S
H856 C874 0.951 . S
H857 C876 0.951 . S
H858 C878 0.950 . S
H859 C879 0.950 . S
H860 C881 0.950 . S
H861 C884 0.950 . S
H862 C885 0.950 . S
H863 C887 0.950 . S
H864 C888 0.950 . S
H865 C889 0.951 . S
H866 C891 0.951 . S
H867 C893 0.950 . S
H868 C894 0.950 . S
H869 C896 0.950 . S
H870 C899 0.950 . S
H871 C900 0.950 . S
H872 C902 0.950 . S
H873 C903 0.950 . S
C874 H856 0.951 . S
C874 C875 1.366 . S
C874 C876 1.388 . S
C875 C874 1.366 . S
C875 C879 1.385 . S
C876 H857 0.951 . S
C876 C874 1.388 . S
C876 C877 1.366 . S
C877 C876 1.366 . S
C877 C878 1.414 . S
C877 C880 1.499 . S
C878 H858 0.950 . S
C878 C877 1.414 . S
C878 C879 1.374 . S
C879 H859 0.950 . S
C879 C875 1.385 . S
C879 C878 1.374 . S
C880 C877 1.499 . S
C880 C881 1.373 . S
C880 C882 1.389 . S
C881 H860 0.950 . S
C881 C880 1.373 . S
C881 C897 1.377 . S
C882 C880 1.389 . S
C882 C883 1.524 . S
C882 C896 1.377 . S
C883 C882 1.524 . S
C883 C884 1.397 . S
C883 C888 1.363 . S
C884 H861 0.950 . S
C884 C883 1.397 . S
C884 C885 1.334 . S
C885 H862 0.950 . S
C885 C884 1.334 . S
C885 C886 1.287 . S
C886 C885 1.287 . S
C886 C887 1.524 . S
C886 H905 0.913 . S
C887 H863 0.950 . S
C887 C886 1.524 . S
C887 C888 1.415 . S
C888 H864 0.950 . S
C888 C883 1.363 . S
C888 C887 1.415 . S
C889 H865 0.951 . S
C889 C890 1.366 . S
C889 C891 1.388 . S
C890 C889 1.366 . S
C890 C894 1.385 . S
C891 H866 0.951 . S
C891 C889 1.388 . S
C891 C892 1.366 . S
C892 C891 1.366 . S
C892 C893 1.414 . S
C892 C895 1.499 . S
C893 H867 0.950 . S
C893 C892 1.414 . S
C893 C894 1.374 . S
C894 H868 0.950 . S
C894 C890 1.385 . S
C894 C893 1.374 . S
C895 C892 1.499 . S
C895 C896 1.373 . S
C895 C897 1.389 . S
C896 H869 0.950 . S
C896 C882 1.377 . S
C896 C895 1.373 . S
C897 C881 1.377 . S
C897 C895 1.389 . S
C897 C898 1.524 . S
C898 C897 1.524 . S
C898 C899 1.397 . S
C898 C903 1.363 . S
C899 H870 0.950 . S
C899 C898 1.397 . S
C899 C900 1.334 . S
C900 H871 0.950 . S
C900 C899 1.334 . S
C900 C901 1.287 . S
C901 C900 1.287 . S
C901 C902 1.524 . S
C901 H904 0.999 . S
C902 H872 0.950 . S
C902 C901 1.524 . S
C902 C903 1.415 . S
C903 H873 0.950 . S
C903 C898 1.363 . S
C903 C902 1.415 . S
H904 C901 0.999 . S
H905 C886 0.913 . S
H906 C924 0.951 . S
H907 C926 0.951 . S
H908 C928 0.950 . S
H909 C929 0.950 . S
H910 C931 0.950 . S
H911 C934 0.950 . S
H912 C935 0.950 . S
H913 C937 0.950 . S
H914 C938 0.950 . S
H915 C939 0.951 . S
H916 C941 0.951 . S
H917 C943 0.950 . S
H918 C944 0.950 . S
H919 C946 0.950 . S
H920 C949 0.950 . S
H921 C950 0.950 . S
H922 C952 0.950 . S
H923 C953 0.950 . S
C924 H906 0.951 . S
C924 C925 1.366 . S
C924 C926 1.388 . S
C925 C924 1.366 . S
C925 C929 1.385 . S
C926 H907 0.951 . S
C926 C924 1.388 . S
C926 C927 1.366 . S
C927 C926 1.366 . S
C927 C928 1.414 . S
C927 C930 1.499 . S
C928 H908 0.950 . S
C928 C927 1.414 . S
C928 C929 1.374 . S
C929 H909 0.950 . S
C929 C925 1.385 . S
C929 C928 1.374 . S
C930 C927 1.499 . S
C930 C931 1.373 . S
C930 C932 1.389 . S
C931 H910 0.950 . S
C931 C930 1.373 . S
C931 C947 1.377 . S
C932 C930 1.389 . S
C932 C933 1.524 . S
C932 C946 1.377 . S
C933 C932 1.524 . S
C933 C934 1.397 . S
C933 C938 1.363 . S
C934 H911 0.950 . S
C934 C933 1.397 . S
C934 C935 1.334 . S
C935 H912 0.950 . S
C935 C934 1.334 . S
C935 C936 1.287 . S
C936 C935 1.287 . S
C936 C937 1.524 . S
C936 H955 0.913 . S
C937 H913 0.950 . S
C937 C936 1.524 . S
C937 C938 1.415 . S
C938 H914 0.950 . S
C938 C933 1.363 . S
C938 C937 1.415 . S
C939 H915 0.951 . S
C939 C940 1.366 . S
C939 C941 1.388 . S
C940 C939 1.366 . S
C940 C944 1.385 . S
C941 H916 0.951 . S
C941 C939 1.388 . S
C941 C942 1.366 . S
C942 C941 1.366 . S
C942 C943 1.414 . S
C942 C945 1.499 . S
C943 H917 0.950 . S
C943 C942 1.414 . S
C943 C944 1.374 . S
C944 H918 0.950 . S
C944 C940 1.385 . S
C944 C943 1.374 . S
C945 C942 1.499 . S
C945 C946 1.373 . S
C945 C947 1.389 . S
C946 H919 0.950 . S
C946 C932 1.377 . S
C946 C945 1.373 . S
C947 C931 1.377 . S
C947 C945 1.389 . S
C947 C948 1.524 . S
C948 C947 1.524 . S
C948 C949 1.397 . S
C948 C953 1.363 . S
C949 H920 0.950 . S
C949 C948 1.397 . S
C949 C950 1.334 . S
C950 H921 0.950 . S
C950 C949 1.334 . S
C950 C951 1.287 . S
C951 C950 1.287 . S
C951 C952 1.524 . S
C951 H954 0.999 . S
C952 H922 0.950 . S
C952 C951 1.524 . S
C952 C953 1.415 . S
C953 H923 0.950 . S
C953 C948 1.363 . S
C953 C952 1.415 . S
H954 C951 0.999 . S
H955 C936 0.913 . S
H956 C974 0.951 . S
H957 C976 0.951 . S
H958 C978 0.950 . S
H959 C979 0.950 . S
H960 C981 0.950 . S
H961 C984 0.950 . S
H962 C985 0.950 . S
H963 C987 0.950 1_554 S
H964 C988 0.950 . S
H965 C989 0.951 . S
H966 C991 0.951 . S
H967 C993 0.950 . S
H968 C994 0.950 . S
H969 C996 0.950 . S
H970 C999 0.950 . S
H971 C1000 0.950 . S
H972 C1002 0.950 . S
H973 C1003 0.950 . S
C974 H956 0.951 . S
C974 C975 1.366 . S
C974 C976 1.388 . S
C975 C974 1.366 . S
C975 C979 1.385 . S
C976 H957 0.951 . S
C976 C974 1.388 . S
C976 C977 1.366 . S
C977 C976 1.366 . S
C977 C978 1.414 . S
C977 C980 1.499 . S
C978 H958 0.950 . S
C978 C977 1.414 . S
C978 C979 1.374 . S
C979 H959 0.950 . S
C979 C975 1.385 . S
C979 C978 1.374 . S
C980 C977 1.499 . S
C980 C981 1.373 . S
C980 C982 1.389 . S
C981 H960 0.950 . S
C981 C980 1.373 . S
C981 C997 1.377 . S
C982 C980 1.389 . S
C982 C983 1.524 . S
C982 C996 1.377 . S
C983 C982 1.524 . S
C983 C984 1.397 . S
C983 C988 1.363 . S
C984 H961 0.950 . S
C984 C983 1.397 . S
C984 C985 1.334 . S
C985 H962 0.950 . S
C985 C984 1.334 . S
C985 C986 1.287 . S
C986 C985 1.287 . S
C986 C987 1.524 . S
C986 H1005 0.913 1_556 S
C987 H963 0.950 1_556 S
C987 C986 1.524 . S
C987 C988 1.415 . S
C988 H964 0.950 . S
C988 C983 1.363 . S
C988 C987 1.415 . S
C989 H965 0.951 . S
C989 C990 1.366 . S
C989 C991 1.388 . S
C990 C989 1.366 . S
C990 C994 1.385 . S
C991 H966 0.951 . S
C991 C989 1.388 . S
C991 C992 1.366 . S
C992 C991 1.366 . S
C992 C993 1.414 . S
C992 C995 1.499 . S
C993 H967 0.950 . S
C993 C992 1.414 . S
C993 C994 1.374 . S
C994 H968 0.950 . S
C994 C990 1.385 . S
C994 C993 1.374 . S
C995 C992 1.499 . S
C995 C996 1.373 . S
C995 C997 1.389 . S
C996 H969 0.950 . S
C996 C982 1.377 . S
C996 C995 1.373 . S
C997 C981 1.377 . S
C997 C995 1.389 . S
C997 C998 1.524 . S
C998 C997 1.524 . S
C998 C999 1.397 . S
C998 C1003 1.363 . S
C999 H970 0.950 . S
C999 C998 1.397 . S
C999 C1000 1.334 . S
C1000 H971 0.950 . S
C1000 C999 1.334 . S
C1000 C1001 1.287 . S
C1001 C1000 1.287 . S
C1001 C1002 1.524 . S
C1001 H1004 0.999 . S
C1002 H972 0.950 . S
C1002 C1001 1.524 . S
C1002 C1003 1.415 . S
C1003 H973 0.950 . S
C1003 C998 1.363 . S
C1003 C1002 1.415 . S
H1004 C1001 0.999 . S
H1005 C986 0.913 1_554 S
H1006 C1024 0.951 . S
H1007 C1026 0.951 . S
H1008 C1028 0.950 . S
H1009 C1029 0.950 . S
H1010 C1031 0.950 . S
H1011 C1034 0.950 . S
H1012 C1035 0.950 . S
H1013 C1037 0.950 . S
H1014 C1038 0.950 . S
H1015 C1039 0.951 . S
H1016 C1041 0.951 . S
H1017 C1043 0.950 . S
H1018 C1044 0.950 . S
H1019 C1046 0.950 . S
H1020 C1049 0.950 . S
H1021 C1050 0.950 . S
H1022 C1052 0.950 . S
H1023 C1053 0.950 . S
C1024 H1006 0.951 . S
C1024 C1025 1.366 . S
C1024 C1026 1.388 . S
C1025 C1024 1.366 . S
C1025 C1029 1.385 . S
C1026 H1007 0.951 . S
C1026 C1024 1.388 . S
C1026 C1027 1.366 . S
C1027 C1026 1.366 . S
C1027 C1028 1.414 . S
C1027 C1030 1.499 . S
C1028 H1008 0.950 . S
C1028 C1027 1.414 . S
C1028 C1029 1.374 . S
C1029 H1009 0.950 . S
C1029 C1025 1.385 . S
C1029 C1028 1.374 . S
C1030 C1027 1.499 . S
C1030 C1031 1.373 . S
C1030 C1032 1.389 . S
C1031 H1010 0.950 . S
C1031 C1030 1.373 . S
C1031 C1047 1.377 . S
C1032 C1030 1.389 . S
C1032 C1033 1.524 . S
C1032 C1046 1.377 . S
C1033 C1032 1.524 . S
C1033 C1034 1.397 . S
C1033 C1038 1.363 . S
C1034 H1011 0.950 . S
C1034 C1033 1.397 . S
C1034 C1035 1.334 . S
C1035 H1012 0.950 . S
C1035 C1034 1.334 . S
C1035 C1036 1.287 . S
C1036 C1035 1.287 . S
C1036 C1037 1.524 . S
C1036 H1055 0.913 . S
C1037 H1013 0.950 . S
C1037 C1036 1.524 . S
C1037 C1038 1.415 . S
C1038 H1014 0.950 . S
C1038 C1033 1.363 . S
C1038 C1037 1.415 . S
C1039 H1015 0.951 . S
C1039 C1040 1.366 . S
C1039 C1041 1.388 . S
C1040 C1039 1.366 . S
C1040 C1044 1.385 . S
C1041 H1016 0.951 . S
C1041 C1039 1.388 . S
C1041 C1042 1.366 . S
C1042 C1041 1.366 . S
C1042 C1043 1.414 . S
C1042 C1045 1.499 . S
C1043 H1017 0.950 . S
C1043 C1042 1.414 . S
C1043 C1044 1.374 . S
C1044 H1018 0.950 . S
C1044 C1040 1.385 . S
C1044 C1043 1.374 . S
C1045 C1042 1.499 . S
C1045 C1046 1.373 . S
C1045 C1047 1.389 . S
C1046 H1019 0.950 . S
C1046 C1032 1.377 . S
C1046 C1045 1.373 . S
C1047 C1031 1.377 . S
C1047 C1045 1.389 . S
C1047 C1048 1.524 . S
C1048 C1047 1.524 . S
C1048 C1049 1.397 . S
C1048 C1053 1.363 . S
C1049 H1020 0.950 . S
C1049 C1048 1.397 . S
C1049 C1050 1.334 . S
C1050 H1021 0.950 . S
C1050 C1049 1.334 . S
C1050 C1051 1.287 . S
C1051 C1050 1.287 . S
C1051 C1052 1.524 . S
C1051 H1054 0.999 . S
C1052 H1022 0.950 . S
C1052 C1051 1.524 . S
C1052 C1053 1.415 . S
C1053 H1023 0.950 . S
C1053 C1048 1.363 . S
C1053 C1052 1.415 . S
H1054 C1051 0.999 . S
H1055 C1036 0.913 . S
H1056 C1074 0.951 . S
H1057 C1076 0.951 . S
H1058 C1078 0.950 . S
H1059 C1079 0.950 . S
H1060 C1081 0.950 . S
H1061 C1084 0.950 . S
H1062 C1085 0.950 . S
H1063 C1087 0.950 . S
H1064 C1088 0.950 . S
H1065 C1089 0.951 . S
H1066 C1091 0.951 . S
H1067 C1093 0.950 . S
H1068 C1094 0.950 . S
H1069 C1096 0.950 . S
H1070 C1099 0.950 . S
H1071 C1100 0.950 . S
H1072 C1102 0.950 . S
H1073 C1103 0.950 . S
C1074 H1056 0.951 . S
C1074 C1075 1.366 . S
C1074 C1076 1.388 . S
C1075 C1074 1.366 . S
C1075 C1079 1.385 . S
C1076 H1057 0.951 . S
C1076 C1074 1.388 . S
C1076 C1077 1.366 . S
C1077 C1076 1.366 . S
C1077 C1078 1.414 . S
C1077 C1080 1.499 . S
C1078 H1058 0.950 . S
C1078 C1077 1.414 . S
C1078 C1079 1.374 . S
C1079 H1059 0.950 . S
C1079 C1075 1.385 . S
C1079 C1078 1.374 . S
C1080 C1077 1.499 . S
C1080 C1081 1.373 . S
C1080 C1082 1.389 . S
C1081 H1060 0.950 . S
C1081 C1080 1.373 . S
C1081 C1097 1.377 . S
C1082 C1080 1.389 . S
C1082 C1083 1.524 . S
C1082 C1096 1.377 . S
C1083 C1082 1.524 . S
C1083 C1084 1.397 . S
C1083 C1088 1.363 . S
C1084 H1061 0.950 . S
C1084 C1083 1.397 . S
C1084 C1085 1.334 . S
C1085 H1062 0.950 . S
C1085 C1084 1.334 . S
C1085 C1086 1.287 . S
C1086 C1085 1.287 . S
C1086 C1087 1.524 . S
C1086 H1105 0.913 . S
C1087 H1063 0.950 . S
C1087 C1086 1.524 . S
C1087 C1088 1.415 . S
C1088 H1064 0.950 . S
C1088 C1083 1.363 . S
C1088 C1087 1.415 . S
C1089 H1065 0.951 . S
C1089 C1090 1.366 . S
C1089 C1091 1.388 . S
C1090 C1089 1.366 . S
C1090 C1094 1.385 . S
C1091 H1066 0.951 . S
C1091 C1089 1.388 . S
C1091 C1092 1.366 . S
C1092 C1091 1.366 . S
C1092 C1093 1.414 . S
C1092 C1095 1.499 . S
C1093 H1067 0.950 . S
C1093 C1092 1.414 . S
C1093 C1094 1.374 . S
C1094 H1068 0.950 . S
C1094 C1090 1.385 . S
C1094 C1093 1.374 . S
C1095 C1092 1.499 . S
C1095 C1096 1.373 . S
C1095 C1097 1.389 . S
C1096 H1069 0.950 . S
C1096 C1082 1.377 . S
C1096 C1095 1.373 . S
C1097 C1081 1.377 . S
C1097 C1095 1.389 . S
C1097 C1098 1.524 . S
C1098 C1097 1.524 . S
C1098 C1099 1.397 . S
C1098 C1103 1.363 . S
C1099 H1070 0.950 . S
C1099 C1098 1.397 . S
C1099 C1100 1.334 . S
C1100 H1071 0.950 . S
C1100 C1099 1.334 . S
C1100 C1101 1.287 . S
C1101 C1100 1.287 . S
C1101 C1102 1.524 . S
C1101 H1104 0.999 . S
C1102 H1072 0.950 . S
C1102 C1101 1.524 . S
C1102 C1103 1.415 . S
C1103 H1073 0.950 . S
C1103 C1098 1.363 . S
C1103 C1102 1.415 . S
H1104 C1101 0.999 . S
H1105 C1086 0.913 . S
H1106 C1124 0.951 . S
H1107 C1126 0.951 . S
H1108 C1128 0.950 . S
H1109 C1129 0.950 . S
H1110 C1131 0.950 . S
H1111 C1134 0.950 . S
H1112 C1135 0.950 . S
H1113 C1137 0.950 . S
H1114 C1138 0.950 . S
H1115 C1139 0.951 . S
H1116 C1141 0.951 . S
H1117 C1143 0.950 . S
H1118 C1144 0.950 . S
H1119 C1146 0.950 . S
H1120 C1149 0.950 . S
H1121 C1150 0.950 . S
H1122 C1152 0.950 . S
H1123 C1153 0.950 . S
C1124 H1106 0.951 . S
C1124 C1125 1.366 . S
C1124 C1126 1.388 . S
C1125 C1124 1.366 . S
C1125 C1129 1.385 . S
C1126 H1107 0.951 . S
C1126 C1124 1.388 . S
C1126 C1127 1.366 . S
C1127 C1126 1.366 . S
C1127 C1128 1.414 . S
C1127 C1130 1.499 . S
C1128 H1108 0.950 . S
C1128 C1127 1.414 . S
C1128 C1129 1.374 . S
C1129 H1109 0.950 . S
C1129 C1125 1.385 . S
C1129 C1128 1.374 . S
C1130 C1127 1.499 . S
C1130 C1131 1.373 . S
C1130 C1132 1.389 . S
C1131 H1110 0.950 . S
C1131 C1130 1.373 . S
C1131 C1147 1.377 . S
C1132 C1130 1.389 . S
C1132 C1133 1.524 . S
C1132 C1146 1.377 . S
C1133 C1132 1.524 . S
C1133 C1134 1.397 . S
C1133 C1138 1.363 . S
C1134 H1111 0.950 . S
C1134 C1133 1.397 . S
C1134 C1135 1.334 . S
C1135 H1112 0.950 . S
C1135 C1134 1.334 . S
C1135 C1136 1.287 . S
C1136 C1135 1.287 . S
C1136 C1137 1.524 . S
C1136 H1155 0.913 . S
C1137 H1113 0.950 . S
C1137 C1136 1.524 . S
C1137 C1138 1.415 . S
C1138 H1114 0.950 . S
C1138 C1133 1.363 . S
C1138 C1137 1.415 . S
C1139 H1115 0.951 . S
C1139 C1140 1.366 . S
C1139 C1141 1.388 . S
C1140 C1139 1.366 . S
C1140 C1144 1.385 . S
C1141 H1116 0.951 . S
C1141 C1139 1.388 . S
C1141 C1142 1.366 . S
C1142 C1141 1.366 . S
C1142 C1143 1.414 . S
C1142 C1145 1.499 . S
C1143 H1117 0.950 . S
C1143 C1142 1.414 . S
C1143 C1144 1.374 . S
C1144 H1118 0.950 . S
C1144 C1140 1.385 . S
C1144 C1143 1.374 . S
C1145 C1142 1.499 . S
C1145 C1146 1.373 . S
C1145 C1147 1.389 . S
C1146 H1119 0.950 . S
C1146 C1132 1.377 . S
C1146 C1145 1.373 . S
C1147 C1131 1.377 . S
C1147 C1145 1.389 . S
C1147 C1148 1.524 . S
C1148 C1147 1.524 . S
C1148 C1149 1.397 . S
C1148 C1153 1.363 . S
C1149 H1120 0.950 . S
C1149 C1148 1.397 . S
C1149 C1150 1.334 . S
C1150 H1121 0.950 . S
C1150 C1149 1.334 . S
C1150 C1151 1.287 . S
C1151 C1150 1.287 . S
C1151 C1152 1.524 . S
C1151 H1154 0.999 . S
C1152 H1122 0.950 . S
C1152 C1151 1.524 . S
C1152 C1153 1.415 . S
C1153 H1123 0.950 . S
C1153 C1148 1.363 . S
C1153 C1152 1.415 . S
H1154 C1151 0.999 . S
H1155 C1136 0.913 . S
H1156 C1174 0.951 . S
H1157 C1176 0.951 . S
H1158 C1178 0.950 . S
H1159 C1179 0.950 . S
H1160 C1181 0.950 . S
H1161 C1184 0.950 . S
H1162 C1185 0.950 . S
H1163 C1187 0.950 . S
H1164 C1188 0.950 . S
H1165 C1189 0.951 . S
H1166 C1191 0.951 . S
H1167 C1193 0.950 . S
H1168 C1194 0.950 . S
H1169 C1196 0.950 . S
H1170 C1199 0.950 . S
H1171 C1200 0.950 . S
H1172 C1202 0.950 . S
H1173 C1203 0.950 . S
C1174 H1156 0.951 . S
C1174 C1175 1.366 . S
C1174 C1176 1.388 . S
C1175 C1174 1.366 . S
C1175 C1179 1.385 . S
C1176 H1157 0.951 . S
C1176 C1174 1.388 . S
C1176 C1177 1.366 . S
C1177 C1176 1.366 . S
C1177 C1178 1.414 . S
C1177 C1180 1.499 . S
C1178 H1158 0.950 . S
C1178 C1177 1.414 . S
C1178 C1179 1.374 . S
C1179 H1159 0.950 . S
C1179 C1175 1.385 . S
C1179 C1178 1.374 . S
C1180 C1177 1.499 . S
C1180 C1181 1.373 . S
C1180 C1182 1.389 . S
C1181 H1160 0.950 . S
C1181 C1180 1.373 . S
C1181 C1197 1.377 . S
C1182 C1180 1.389 . S
C1182 C1183 1.524 . S
C1182 C1196 1.377 . S
C1183 C1182 1.524 . S
C1183 C1184 1.397 . S
C1183 C1188 1.363 . S
C1184 H1161 0.950 . S
C1184 C1183 1.397 . S
C1184 C1185 1.334 . S
C1185 H1162 0.950 . S
C1185 C1184 1.334 . S
C1185 C1186 1.287 . S
C1186 C1185 1.287 . S
C1186 C1187 1.524 . S
C1186 H1205 0.913 . S
C1187 H1163 0.950 . S
C1187 C1186 1.524 . S
C1187 C1188 1.415 . S
C1188 H1164 0.950 . S
C1188 C1183 1.363 . S
C1188 C1187 1.415 . S
C1189 H1165 0.951 . S
C1189 C1190 1.366 . S
C1189 C1191 1.388 . S
C1190 C1189 1.366 . S
C1190 C1194 1.385 . S
C1191 H1166 0.951 . S
C1191 C1189 1.388 . S
C1191 C1192 1.366 . S
C1192 C1191 1.366 . S
C1192 C1193 1.414 . S
C1192 C1195 1.499 . S
C1193 H1167 0.950 . S
C1193 C1192 1.414 . S
C1193 C1194 1.374 . S
C1194 H1168 0.950 . S
C1194 C1190 1.385 . S
C1194 C1193 1.374 . S
C1195 C1192 1.499 . S
C1195 C1196 1.373 . S
C1195 C1197 1.389 . S
C1196 H1169 0.950 . S
C1196 C1182 1.377 . S
C1196 C1195 1.373 . S
C1197 C1181 1.377 . S
C1197 C1195 1.389 . S
C1197 C1198 1.524 . S
C1198 C1197 1.524 . S
C1198 C1199 1.397 . S
C1198 C1203 1.363 . S
C1199 H1170 0.950 . S
C1199 C1198 1.397 . S
C1199 C1200 1.334 . S
C1200 H1171 0.950 . S
C1200 C1199 1.334 . S
C1200 C1201 1.287 . S
C1201 C1200 1.287 . S
C1201 C1202 1.524 . S
C1201 H1204 0.999 . S
C1202 H1172 0.950 . S
C1202 C1201 1.524 . S
C1202 C1203 1.415 . S
C1203 H1173 0.950 . S
C1203 C1198 1.363 . S
C1203 C1202 1.415 . S
H1204 C1201 0.999 . S
H1205 C1186 0.913 . S
H1206 C1224 0.951 . S
H1207 C1226 0.951 . S
H1208 C1228 0.950 . S
H1209 C1229 0.950 . S
H1210 C1231 0.950 . S
H1211 C1234 0.950 . S
H1212 C1235 0.950 . S
H1213 C1237 0.950 . S
H1214 C1238 0.950 . S
H1215 C1239 0.951 . S
H1216 C1241 0.951 . S
H1217 C1243 0.950 . S
H1218 C1244 0.950 . S
H1219 C1246 0.950 . S
H1220 C1249 0.950 . S
H1221 C1250 0.950 . S
H1222 C1252 0.950 . S
H1223 C1253 0.950 . S
C1224 H1206 0.951 . S
C1224 C1225 1.366 . S
C1224 C1226 1.388 . S
C1225 C1224 1.366 . S
C1225 C1229 1.385 . S
C1226 H1207 0.951 . S
C1226 C1224 1.388 . S
C1226 C1227 1.366 . S
C1227 C1226 1.366 . S
C1227 C1228 1.414 . S
C1227 C1230 1.499 . S
C1228 H1208 0.950 . S
C1228 C1227 1.414 . S
C1228 C1229 1.374 . S
C1229 H1209 0.950 . S
C1229 C1225 1.385 . S
C1229 C1228 1.374 . S
C1230 C1227 1.499 . S
C1230 C1231 1.373 . S
C1230 C1232 1.389 . S
C1231 H1210 0.950 . S
C1231 C1230 1.373 . S
C1231 C1247 1.377 . S
C1232 C1230 1.389 . S
C1232 C1233 1.524 . S
C1232 C1246 1.377 . S
C1233 C1232 1.524 . S
C1233 C1234 1.397 . S
C1233 C1238 1.363 . S
C1234 H1211 0.950 . S
C1234 C1233 1.397 . S
C1234 C1235 1.334 . S
C1235 H1212 0.950 . S
C1235 C1234 1.334 . S
C1235 C1236 1.287 . S
C1236 C1235 1.287 . S
C1236 C1237 1.524 . S
C1236 H1255 0.913 . S
C1237 H1213 0.950 . S
C1237 C1236 1.524 . S
C1237 C1238 1.415 . S
C1238 H1214 0.950 . S
C1238 C1233 1.363 . S
C1238 C1237 1.415 . S
C1239 H1215 0.951 . S
C1239 C1240 1.366 . S
C1239 C1241 1.388 . S
C1240 C1239 1.366 . S
C1240 C1244 1.385 . S
C1241 H1216 0.951 . S
C1241 C1239 1.388 . S
C1241 C1242 1.366 . S
C1242 C1241 1.366 . S
C1242 C1243 1.414 . S
C1242 C1245 1.499 . S
C1243 H1217 0.950 . S
C1243 C1242 1.414 . S
C1243 C1244 1.374 . S
C1244 H1218 0.950 . S
C1244 C1240 1.385 . S
C1244 C1243 1.374 . S
C1245 C1242 1.499 . S
C1245 C1246 1.373 . S
C1245 C1247 1.389 . S
C1246 H1219 0.950 . S
C1246 C1232 1.377 . S
C1246 C1245 1.373 . S
C1247 C1231 1.377 . S
C1247 C1245 1.389 . S
C1247 C1248 1.524 . S
C1248 C1247 1.524 . S
C1248 C1249 1.397 . S
C1248 C1253 1.363 . S
C1249 H1220 0.950 . S
C1249 C1248 1.397 . S
C1249 C1250 1.334 . S
C1250 H1221 0.950 . S
C1250 C1249 1.334 . S
C1250 C1251 1.287 . S
C1251 C1250 1.287 . S
C1251 C1252 1.524 . S
C1251 H1254 0.999 . S
C1252 H1222 0.950 . S
C1252 C1251 1.524 . S
C1252 C1253 1.415 . S
C1253 H1223 0.950 . S
C1253 C1248 1.363 . S
C1253 C1252 1.415 . S
H1254 C1251 0.999 . S
H1255 C1236 0.913 . S
H1256 C1274 0.951 . S
H1257 C1276 0.951 . S
H1258 C1278 0.950 . S
H1259 C1279 0.950 . S
H1260 C1281 0.950 . S
H1261 C1284 0.950 . S
H1262 C1285 0.950 . S
H1263 C1287 0.950 . S
H1264 C1288 0.950 . S
H1265 C1289 0.951 . S
H1266 C1291 0.951 . S
H1267 C1293 0.950 . S
H1268 C1294 0.950 . S
H1269 C1296 0.950 . S
H1270 C1299 0.950 . S
H1271 C1300 0.950 . S
H1272 C1302 0.950 . S
H1273 C1303 0.950 . S
C1274 H1256 0.951 . S
C1274 C1275 1.366 . S
C1274 C1276 1.388 . S
C1275 C1274 1.366 . S
C1275 C1279 1.385 . S
C1276 H1257 0.951 . S
C1276 C1274 1.388 . S
C1276 C1277 1.366 . S
C1277 C1276 1.366 . S
C1277 C1278 1.414 . S
C1277 C1280 1.499 . S
C1278 H1258 0.950 . S
C1278 C1277 1.414 . S
C1278 C1279 1.374 . S
C1279 H1259 0.950 . S
C1279 C1275 1.385 . S
C1279 C1278 1.374 . S
C1280 C1277 1.499 . S
C1280 C1281 1.373 . S
C1280 C1282 1.389 . S
C1281 H1260 0.950 . S
C1281 C1280 1.373 . S
C1281 C1297 1.377 . S
C1282 C1280 1.389 . S
C1282 C1283 1.524 . S
C1282 C1296 1.377 . S
C1283 C1282 1.524 . S
C1283 C1284 1.397 . S
C1283 C1288 1.363 . S
C1284 H1261 0.950 . S
C1284 C1283 1.397 . S
C1284 C1285 1.334 . S
C1285 H1262 0.950 . S
C1285 C1284 1.334 . S
C1285 C1286 1.287 . S
C1286 C1285 1.287 . S
C1286 C1287 1.524 . S
C1286 H1305 0.913 . S
C1287 H1263 0.950 . S
C1287 C1286 1.524 . S
C1287 C1288 1.415 . S
C1288 H1264 0.950 . S
C1288 C1283 1.363 . S
C1288 C1287 1.415 . S
C1289 H1265 0.951 . S
C1289 C1290 1.366 . S
C1289 C1291 1.388 . S
C1290 C1289 1.366 . S
C1290 C1294 1.385 . S
C1291 H1266 0.951 . S
C1291 C1289 1.388 . S
C1291 C1292 1.366 . S
C1292 C1291 1.366 . S
C1292 C1293 1.414 . S
C1292 C1295 1.499 . S
C1293 H1267 0.950 . S
C1293 C1292 1.414 . S
C1293 C1294 1.374 . S
C1294 H1268 0.950 . S
C1294 C1290 1.385 . S
C1294 C1293 1.374 . S
C1295 C1292 1.499 . S
C1295 C1296 1.373 . S
C1295 C1297 1.389 . S
C1296 H1269 0.950 . S
C1296 C1282 1.377 . S
C1296 C1295 1.373 . S
C1297 C1281 1.377 . S
C1297 C1295 1.389 . S
C1297 C1298 1.524 . S
C1298 C1297 1.524 . S
C1298 C1299 1.397 . S
C1298 C1303 1.363 . S
C1299 H1270 0.950 . S
C1299 C1298 1.397 . S
C1299 C1300 1.334 . S
C1300 H1271 0.950 . S
C1300 C1299 1.334 . S
C1300 C1301 1.287 . S
C1301 C1300 1.287 . S
C1301 C1302 1.524 . S
C1301 H1304 0.999 . S
C1302 H1272 0.950 . S
C1302 C1301 1.524 . S
C1302 C1303 1.415 . S
C1303 H1273 0.950 . S
C1303 C1298 1.363 . S
C1303 C1302 1.415 . S
H1304 C1301 0.999 . S
H1305 C1286 0.913 . S
H1306 C1324 0.951 . S
H1307 C1326 0.951 . S
H1308 C1328 0.950 . S
H1309 C1329 0.950 . S
H1310 C1331 0.950 . S
H1311 C1334 0.950 . S
H1312 C1335 0.950 . S
H1313 C1337 0.950 . S
H1314 C1338 0.950 . S
H1315 C1339 0.951 . S
H1316 C1341 0.951 . S
H1317 C1343 0.950 . S
H1318 C1344 0.950 . S
H1319 C1346 0.950 . S
H1320 C1349 0.950 . S
H1321 C1350 0.950 . S
H1322 C1352 0.950 . S
H1323 C1353 0.950 . S
C1324 H1306 0.951 . S
C1324 C1325 1.366 . S
C1324 C1326 1.388 . S
C1325 C1324 1.366 . S
C1325 C1329 1.385 . S
C1326 H1307 0.951 . S
C1326 C1324 1.388 . S
C1326 C1327 1.366 . S
C1327 C1326 1.366 . S
C1327 C1328 1.414 . S
C1327 C1330 1.499 . S
C1328 H1308 0.950 . S
C1328 C1327 1.414 . S
C1328 C1329 1.374 . S
C1329 H1309 0.950 . S
C1329 C1325 1.385 . S
C1329 C1328 1.374 . S
C1330 C1327 1.499 . S
C1330 C1331 1.373 . S
C1330 C1332 1.389 . S
C1331 H1310 0.950 . S
C1331 C1330 1.373 . S
C1331 C1347 1.377 . S
C1332 C1330 1.389 . S
C1332 C1333 1.524 . S
C1332 C1346 1.377 . S
C1333 C1332 1.524 . S
C1333 C1334 1.397 . S
C1333 C1338 1.363 . S
C1334 H1311 0.950 . S
C1334 C1333 1.397 . S
C1334 C1335 1.334 . S
C1335 H1312 0.950 . S
C1335 C1334 1.334 . S
C1335 C1336 1.287 . S
C1336 C1335 1.287 . S
C1336 C1337 1.524 . S
C1336 H1355 0.913 . S
C1337 H1313 0.950 . S
C1337 C1336 1.524 . S
C1337 C1338 1.415 . S
C1338 H1314 0.950 . S
C1338 C1333 1.363 . S
C1338 C1337 1.415 . S
C1339 H1315 0.951 . S
C1339 C1340 1.366 . S
C1339 C1341 1.388 . S
C1340 C1339 1.366 . S
C1340 C1344 1.385 . S
C1341 H1316 0.951 . S
C1341 C1339 1.388 . S
C1341 C1342 1.366 . S
C1342 C1341 1.366 . S
C1342 C1343 1.414 . S
C1342 C1345 1.499 . S
C1343 H1317 0.950 . S
C1343 C1342 1.414 . S
C1343 C1344 1.374 . S
C1344 H1318 0.950 . S
C1344 C1340 1.385 . S
C1344 C1343 1.374 . S
C1345 C1342 1.499 . S
C1345 C1346 1.373 . S
C1345 C1347 1.389 . S
C1346 H1319 0.950 . S
C1346 C1332 1.377 . S
C1346 C1345 1.373 . S
C1347 C1331 1.377 . S
C1347 C1345 1.389 . S
C1347 C1348 1.524 . S
C1348 C1347 1.524 . S
C1348 C1349 1.397 . S
C1348 C1353 1.363 . S
C1349 H1320 0.950 . S
C1349 C1348 1.397 . S
C1349 C1350 1.334 . S
C1350 H1321 0.950 . S
C1350 C1349 1.334 . S
C1350 C1351 1.287 . S
C1351 C1350 1.287 . S
C1351 C1352 1.524 . S
C1351 H1354 0.999 . S
C1352 H1322 0.950 . S
C1352 C1351 1.524 . S
C1352 C1353 1.415 . S
C1353 H1323 0.950 . S
C1353 C1348 1.363 . S
C1353 C1352 1.415 . S
H1354 C1351 0.999 . S
H1355 C1336 0.913 . S
H1356 C1374 0.951 . S
H1357 C1376 0.951 . S
H1358 C1378 0.950 . S
H1359 C1379 0.950 . S
H1360 C1381 0.950 . S
H1361 C1384 0.950 . S
H1362 C1385 0.950 . S
H1363 C1387 0.950 . S
H1364 C1388 0.950 . S
H1365 C1389 0.951 . S
H1366 C1391 0.951 . S
H1367 C1393 0.950 . S
H1368 C1394 0.950 . S
H1369 C1396 0.950 . S
H1370 C1399 0.950 . S
H1371 C1400 0.950 . S
H1372 C1402 0.950 . S
H1373 C1403 0.950 . S
C1374 H1356 0.951 . S
C1374 C1375 1.366 . S
C1374 C1376 1.388 . S
C1375 C1374 1.366 . S
C1375 C1379 1.385 . S
C1376 H1357 0.951 . S
C1376 C1374 1.388 . S
C1376 C1377 1.366 . S
C1377 C1376 1.366 . S
C1377 C1378 1.414 . S
C1377 C1380 1.499 . S
C1378 H1358 0.950 . S
C1378 C1377 1.414 . S
C1378 C1379 1.374 . S
C1379 H1359 0.950 . S
C1379 C1375 1.385 . S
C1379 C1378 1.374 . S
C1380 C1377 1.499 . S
C1380 C1381 1.373 . S
C1380 C1382 1.389 . S
C1381 H1360 0.950 . S
C1381 C1380 1.373 . S
C1381 C1397 1.377 . S
C1382 C1380 1.389 . S
C1382 C1383 1.524 . S
C1382 C1396 1.377 . S
C1383 C1382 1.524 . S
C1383 C1384 1.397 . S
C1383 C1388 1.363 . S
C1384 H1361 0.950 . S
C1384 C1383 1.397 . S
C1384 C1385 1.334 . S
C1385 H1362 0.950 . S
C1385 C1384 1.334 . S
C1385 C1386 1.287 . S
C1386 C1385 1.287 . S
C1386 C1387 1.524 . S
C1386 H1405 0.913 . S
C1387 H1363 0.950 . S
C1387 C1386 1.524 . S
C1387 C1388 1.415 . S
C1388 H1364 0.950 . S
C1388 C1383 1.363 . S
C1388 C1387 1.415 . S
C1389 H1365 0.951 . S
C1389 C1390 1.366 . S
C1389 C1391 1.388 . S
C1390 C1389 1.366 . S
C1390 C1394 1.385 . S
C1391 H1366 0.951 . S
C1391 C1389 1.388 . S
C1391 C1392 1.366 . S
C1392 C1391 1.366 . S
C1392 C1393 1.414 . S
C1392 C1395 1.499 . S
C1393 H1367 0.950 . S
C1393 C1392 1.414 . S
C1393 C1394 1.374 . S
C1394 H1368 0.950 . S
C1394 C1390 1.385 . S
C1394 C1393 1.374 . S
C1395 C1392 1.499 . S
C1395 C1396 1.373 . S
C1395 C1397 1.389 . S
C1396 H1369 0.950 . S
C1396 C1382 1.377 . S
C1396 C1395 1.373 . S
C1397 C1381 1.377 . S
C1397 C1395 1.389 . S
C1397 C1398 1.524 . S
C1398 C1397 1.524 . S
C1398 C1399 1.397 . S
C1398 C1403 1.363 . S
C1399 H1370 0.950 . S
C1399 C1398 1.397 . S
C1399 C1400 1.334 . S
C1400 H1371 0.950 . S
C1400 C1399 1.334 . S
C1400 C1401 1.287 . S
C1401 C1400 1.287 . S
C1401 C1402 1.524 . S
C1401 H1404 0.999 . S
C1402 H1372 0.950 . S
C1402 C1401 1.524 . S
C1402 C1403 1.415 . S
C1403 H1373 0.950 . S
C1403 C1398 1.363 . S
C1403 C1402 1.415 . S
H1404 C1401 0.999 . S
H1405 C1386 0.913 . S
H1406 C1424 0.951 . S
H1407 C1426 0.951 . S
H1408 C1428 0.950 . S
H1409 C1429 0.950 . S
H1410 C1431 0.950 . S
H1411 C1434 0.950 . S
H1412 C1435 0.950 . S
H1413 C1437 0.950 . S
H1414 C1438 0.950 . S
H1415 C1439 0.951 . S
H1416 C1441 0.951 . S
H1417 C1443 0.950 . S
H1418 C1444 0.950 . S
H1419 C1446 0.950 . S
H1420 C1449 0.950 . S
H1421 C1450 0.950 . S
H1422 C1452 0.950 . S
H1423 C1453 0.950 . S
C1424 H1406 0.951 . S
C1424 C1425 1.366 . S
C1424 C1426 1.388 . S
C1425 C1424 1.366 . S
C1425 C1429 1.385 . S
C1426 H1407 0.951 . S
C1426 C1424 1.388 . S
C1426 C1427 1.366 . S
C1427 C1426 1.366 . S
C1427 C1428 1.414 . S
C1427 C1430 1.499 . S
C1428 H1408 0.950 . S
C1428 C1427 1.414 . S
C1428 C1429 1.374 . S
C1429 H1409 0.950 . S
C1429 C1425 1.385 . S
C1429 C1428 1.374 . S
C1430 C1427 1.499 . S
C1430 C1431 1.373 . S
C1430 C1432 1.389 . S
C1431 H1410 0.950 . S
C1431 C1430 1.373 . S
C1431 C1447 1.377 . S
C1432 C1430 1.389 . S
C1432 C1433 1.524 . S
C1432 C1446 1.377 . S
C1433 C1432 1.524 . S
C1433 C1434 1.397 . S
C1433 C1438 1.363 . S
C1434 H1411 0.950 . S
C1434 C1433 1.397 . S
C1434 C1435 1.334 . S
C1435 H1412 0.950 . S
C1435 C1434 1.334 . S
C1435 C1436 1.287 . S
C1436 C1435 1.287 . S
C1436 C1437 1.524 . S
C1436 H1455 0.913 . S
C1437 H1413 0.950 . S
C1437 C1436 1.524 . S
C1437 C1438 1.415 . S
C1438 H1414 0.950 . S
C1438 C1433 1.363 . S
C1438 C1437 1.415 . S
C1439 H1415 0.951 . S
C1439 C1440 1.366 . S
C1439 C1441 1.388 . S
C1440 C1439 1.366 . S
C1440 C1444 1.385 . S
C1441 H1416 0.951 . S
C1441 C1439 1.388 . S
C1441 C1442 1.366 . S
C1442 C1441 1.366 . S
C1442 C1443 1.414 . S
C1442 C1445 1.499 . S
C1443 H1417 0.950 . S
C1443 C1442 1.414 . S
C1443 C1444 1.374 . S
C1444 H1418 0.950 . S
C1444 C1440 1.385 . S
C1444 C1443 1.374 . S
C1445 C1442 1.499 . S
C1445 C1446 1.373 . S
C1445 C1447 1.389 . S
C1446 H1419 0.950 . S
C1446 C1432 1.377 . S
C1446 C1445 1.373 . S
C1447 C1431 1.377 . S
C1447 C1445 1.389 . S
C1447 C1448 1.524 . S
C1448 C1447 1.524 . S
C1448 C1449 1.397 . S
C1448 C1453 1.363 . S
C1449 H1420 0.950 . S
C1449 C1448 1.397 . S
C1449 C1450 1.334 . S
C1450 H1421 0.950 . S
C1450 C1449 1.334 . S
C1450 C1451 1.287 . S
C1451 C1450 1.287 . S
C1451 C1452 1.524 . S
C1451 H1454 0.999 . S
C1452 H1422 0.950 . S
C1452 C1451 1.524 . S
C1452 C1453 1.415 . S
C1453 H1423 0.950 . S
C1453 C1448 1.363 . S
C1453 C1452 1.415 . S
H1454 C1451 0.999 . S
H1455 C1436 0.913 . S
H1456 C1474 0.951 . S
H1457 C1476 0.951 . S
H1458 C1478 0.950 . S
H1459 C1479 0.950 . S
H1460 C1481 0.950 . S
H1461 C1484 0.950 . S
H1462 C1485 0.950 . S
H1463 C1487 0.950 . S
H1464 C1488 0.950 . S
H1465 C1489 0.951 . S
H1466 C1491 0.951 . S
H1467 C1493 0.950 . S
H1468 C1494 0.950 . S
H1469 C1496 0.950 . S
H1470 C1499 0.950 . S
H1471 C1500 0.950 . S
H1472 C1502 0.950 . S
H1473 C1503 0.950 . S
C1474 H1456 0.951 . S
C1474 C1475 1.366 . S
C1474 C1476 1.388 . S
C1475 C1474 1.366 . S
C1475 C1479 1.385 . S
C1476 H1457 0.951 . S
C1476 C1474 1.388 . S
C1476 C1477 1.366 . S
C1477 C1476 1.366 . S
C1477 C1478 1.414 . S
C1477 C1480 1.499 . S
C1478 H1458 0.950 . S
C1478 C1477 1.414 . S
C1478 C1479 1.374 . S
C1479 H1459 0.950 . S
C1479 C1475 1.385 . S
C1479 C1478 1.374 . S
C1480 C1477 1.499 . S
C1480 C1481 1.373 . S
C1480 C1482 1.389 . S
C1481 H1460 0.950 . S
C1481 C1480 1.373 . S
C1481 C1497 1.377 . S
C1482 C1480 1.389 . S
C1482 C1483 1.524 . S
C1482 C1496 1.377 . S
C1483 C1482 1.524 . S
C1483 C1484 1.397 . S
C1483 C1488 1.363 . S
C1484 H1461 0.950 . S
C1484 C1483 1.397 . S
C1484 C1485 1.334 . S
C1485 H1462 0.950 . S
C1485 C1484 1.334 . S
C1485 C1486 1.287 . S
C1486 C1485 1.287 . S
C1486 C1487 1.524 . S
C1486 H1505 0.913 . S
C1487 H1463 0.950 . S
C1487 C1486 1.524 . S
C1487 C1488 1.415 . S
C1488 H1464 0.950 . S
C1488 C1483 1.363 . S
C1488 C1487 1.415 . S
C1489 H1465 0.951 . S
C1489 C1490 1.366 . S
C1489 C1491 1.388 . S
C1490 C1489 1.366 . S
C1490 C1494 1.385 . S
C1491 H1466 0.951 . S
C1491 C1489 1.388 . S
C1491 C1492 1.366 . S
C1492 C1491 1.366 . S
C1492 C1493 1.414 . S
C1492 C1495 1.499 . S
C1493 H1467 0.950 . S
C1493 C1492 1.414 . S
C1493 C1494 1.374 . S
C1494 H1468 0.950 . S
C1494 C1490 1.385 . S
C1494 C1493 1.374 . S
C1495 C1492 1.499 . S
C1495 C1496 1.373 . S
C1495 C1497 1.389 . S
C1496 H1469 0.950 . S
C1496 C1482 1.377 . S
C1496 C1495 1.373 . S
C1497 C1481 1.377 . S
C1497 C1495 1.389 . S
C1497 C1498 1.524 . S
C1498 C1497 1.524 . S
C1498 C1499 1.397 . S
C1498 C1503 1.363 . S
C1499 H1470 0.950 . S
C1499 C1498 1.397 . S
C1499 C1500 1.334 . S
C1500 H1471 0.950 . S
C1500 C1499 1.334 . S
C1500 C1501 1.287 . S
C1501 C1500 1.287 . S
C1501 C1502 1.524 . S
C1501 H1504 0.999 . S
C1502 H1472 0.950 . S
C1502 C1501 1.524 . S
C1502 C1503 1.415 . S
C1503 H1473 0.950 . S
C1503 C1498 1.363 . S
C1503 C1502 1.415 . S
H1504 C1501 0.999 . S
H1505 C1486 0.913 . S
H1506 C1524 0.951 . S
H1507 C1526 0.951 . S
H1508 C1528 0.950 . S
H1509 C1529 0.950 . S
H1510 C1531 0.950 . S
H1511 C1534 0.950 . S
H1512 C1535 0.950 . S
H1513 C1537 0.950 . S
H1514 C1538 0.950 . S
H1515 C1539 0.951 . S
H1516 C1541 0.951 . S
H1517 C1543 0.950 . S
H1518 C1544 0.950 . S
H1519 C1546 0.950 . S
H1520 C1549 0.950 . S
H1521 C1550 0.950 . S
H1522 C1552 0.950 . S
H1523 C1553 0.950 . S
C1524 H1506 0.951 . S
C1524 C1525 1.366 . S
C1524 C1526 1.388 . S
C1525 C1524 1.366 . S
C1525 C1529 1.385 . S
C1526 H1507 0.951 . S
C1526 C1524 1.388 . S
C1526 C1527 1.366 . S
C1527 C1526 1.366 . S
C1527 C1528 1.414 . S
C1527 C1530 1.499 . S
C1528 H1508 0.950 . S
C1528 C1527 1.414 . S
C1528 C1529 1.374 . S
C1529 H1509 0.950 . S
C1529 C1525 1.385 . S
C1529 C1528 1.374 . S
C1530 C1527 1.499 . S
C1530 C1531 1.373 . S
C1530 C1532 1.389 . S
C1531 H1510 0.950 . S
C1531 C1530 1.373 . S
C1531 C1547 1.377 . S
C1532 C1530 1.389 . S
C1532 C1533 1.524 . S
C1532 C1546 1.377 . S
C1533 C1532 1.524 . S
C1533 C1534 1.397 . S
C1533 C1538 1.363 . S
C1534 H1511 0.950 . S
C1534 C1533 1.397 . S
C1534 C1535 1.334 . S
C1535 H1512 0.950 . S
C1535 C1534 1.334 . S
C1535 C1536 1.287 . S
C1536 C1535 1.287 . S
C1536 C1537 1.524 . S
C1536 H1555 0.913 . S
C1537 H1513 0.950 . S
C1537 C1536 1.524 . S
C1537 C1538 1.415 . S
C1538 H1514 0.950 . S
C1538 C1533 1.363 . S
C1538 C1537 1.415 . S
C1539 H1515 0.951 . S
C1539 C1540 1.366 . S
C1539 C1541 1.388 . S
C1540 C1539 1.366 . S
C1540 C1544 1.385 . S
C1541 H1516 0.951 . S
C1541 C1539 1.388 . S
C1541 C1542 1.366 . S
C1542 C1541 1.366 . S
C1542 C1543 1.414 . S
C1542 C1545 1.499 . S
C1543 H1517 0.950 . S
C1543 C1542 1.414 . S
C1543 C1544 1.374 . S
C1544 H1518 0.950 . S
C1544 C1540 1.385 . S
C1544 C1543 1.374 . S
C1545 C1542 1.499 . S
C1545 C1546 1.373 . S
C1545 C1547 1.389 . S
C1546 H1519 0.950 . S
C1546 C1532 1.377 . S
C1546 C1545 1.373 . S
C1547 C1531 1.377 . S
C1547 C1545 1.389 . S
C1547 C1548 1.524 . S
C1548 C1547 1.524 . S
C1548 C1549 1.397 . S
C1548 C1553 1.363 . S
C1549 H1520 0.950 . S
C1549 C1548 1.397 . S
C1549 C1550 1.334 . S
C1550 H1521 0.950 . S
C1550 C1549 1.334 . S
C1550 C1551 1.287 . S
C1551 C1550 1.287 . S
C1551 C1552 1.524 . S
C1551 H1554 0.999 . S
C1552 H1522 0.950 . S
C1552 C1551 1.524 . S
C1552 C1553 1.415 . S
C1553 H1523 0.950 . S
C1553 C1548 1.363 . S
C1553 C1552 1.415 . S
H1554 C1551 0.999 . S
H1555 C1536 0.913 . S
H1556 C1574 0.951 . S
H1557 C1576 0.951 . S
H1558 C1578 0.950 . S
H1559 C1579 0.950 . S
H1560 C1581 0.950 . S
H1561 C1584 0.950 . S
H1562 C1585 0.950 . S
H1563 C1587 0.950 . S
H1564 C1588 0.950 . S
H1565 C1589 0.951 . S
H1566 C1591 0.951 . S
H1567 C1593 0.950 . S
H1568 C1594 0.950 . S
H1569 C1596 0.950 . S
H1570 C1599 0.950 . S
H1571 C1600 0.950 . S
H1572 C1602 0.950 . S
H1573 C1603 0.950 . S
C1574 H1556 0.951 . S
C1574 C1575 1.366 . S
C1574 C1576 1.388 . S
C1575 C1574 1.366 . S
C1575 C1579 1.385 . S
C1576 H1557 0.951 . S
C1576 C1574 1.388 . S
C1576 C1577 1.366 . S
C1577 C1576 1.366 . S
C1577 C1578 1.414 . S
C1577 C1580 1.499 . S
C1578 H1558 0.950 . S
C1578 C1577 1.414 . S
C1578 C1579 1.374 . S
C1579 H1559 0.950 . S
C1579 C1575 1.385 . S
C1579 C1578 1.374 . S
C1580 C1577 1.499 . S
C1580 C1581 1.373 . S
C1580 C1582 1.389 . S
C1581 H1560 0.950 . S
C1581 C1580 1.373 . S
C1581 C1597 1.377 . S
C1582 C1580 1.389 . S
C1582 C1583 1.524 . S
C1582 C1596 1.377 . S
C1583 C1582 1.524 . S
C1583 C1584 1.397 . S
C1583 C1588 1.363 . S
C1584 H1561 0.950 . S
C1584 C1583 1.397 . S
C1584 C1585 1.334 . S
C1585 H1562 0.950 . S
C1585 C1584 1.334 . S
C1585 C1586 1.287 . S
C1586 C1585 1.287 . S
C1586 C1587 1.524 . S
C1586 H1605 0.913 . S
C1587 H1563 0.950 . S
C1587 C1586 1.524 . S
C1587 C1588 1.415 . S
C1588 H1564 0.950 . S
C1588 C1583 1.363 . S
C1588 C1587 1.415 . S
C1589 H1565 0.951 . S
C1589 C1590 1.366 . S
C1589 C1591 1.388 . S
C1590 C1589 1.366 . S
C1590 C1594 1.385 . S
C1591 H1566 0.951 . S
C1591 C1589 1.388 . S
C1591 C1592 1.366 . S
C1592 C1591 1.366 . S
C1592 C1593 1.414 . S
C1592 C1595 1.499 . S
C1593 H1567 0.950 . S
C1593 C1592 1.414 . S
C1593 C1594 1.374 . S
C1594 H1568 0.950 . S
C1594 C1590 1.385 . S
C1594 C1593 1.374 . S
C1595 C1592 1.499 . S
C1595 C1596 1.373 . S
C1595 C1597 1.389 . S
C1596 H1569 0.950 . S
C1596 C1582 1.377 . S
C1596 C1595 1.373 . S
C1597 C1581 1.377 . S
C1597 C1595 1.389 . S
C1597 C1598 1.524 . S
C1598 C1597 1.524 . S
C1598 C1599 1.397 . S
C1598 C1603 1.363 . S
C1599 H1570 0.950 . S
C1599 C1598 1.397 . S
C1599 C1600 1.334 . S
C1600 H1571 0.950 . S
C1600 C1599 1.334 . S
C1600 C1601 1.287 . S
C1601 C1600 1.287 . S
C1601 C1602 1.524 . S
C1601 H1604 0.999 . S
C1602 H1572 0.950 . S
C1602 C1601 1.524 . S
C1602 C1603 1.415 . S
C1603 H1573 0.950 . S
C1603 C1598 1.363 . S
C1603 C1602 1.415 . S
H1604 C1601 0.999 . S
H1605 C1586 0.913 . S
H1606 C1624 0.951 . S
H1607 C1626 0.951 . S
H1608 C1628 0.950 . S
H1609 C1629 0.950 . S
H1610 C1631 0.950 . S
H1611 C1634 0.950 . S
H1612 C1635 0.950 . S
H1613 C1637 0.950 . S
H1614 C1638 0.950 . S
H1615 C1639 0.951 . S
H1616 C1641 0.951 . S
H1617 C1643 0.950 . S
H1618 C1644 0.950 . S
H1619 C1646 0.950 . S
H1620 C1649 0.950 . S
H1621 C1650 0.950 . S
H1622 C1652 0.950 . S
H1623 C1653 0.950 . S
C1624 H1606 0.951 . S
C1624 C1625 1.366 . S
C1624 C1626 1.388 . S
C1625 C1624 1.366 . S
C1625 C1629 1.385 . S
C1626 H1607 0.951 . S
C1626 C1624 1.388 . S
C1626 C1627 1.366 . S
C1627 C1626 1.366 . S
C1627 C1628 1.414 . S
C1627 C1630 1.499 . S
C1628 H1608 0.950 . S
C1628 C1627 1.414 . S
C1628 C1629 1.374 . S
C1629 H1609 0.950 . S
C1629 C1625 1.385 . S
C1629 C1628 1.374 . S
C1630 C1627 1.499 . S
C1630 C1631 1.373 . S
C1630 C1632 1.389 . S
C1631 H1610 0.950 . S
C1631 C1630 1.373 . S
C1631 C1647 1.377 . S
C1632 C1630 1.389 . S
C1632 C1633 1.524 . S
C1632 C1646 1.377 . S
C1633 C1632 1.524 . S
C1633 C1634 1.397 . S
C1633 C1638 1.363 . S
C1634 H1611 0.950 . S
C1634 C1633 1.397 . S
C1634 C1635 1.334 . S
C1635 H1612 0.950 . S
C1635 C1634 1.334 . S
C1635 C1636 1.287 . S
C1636 C1635 1.287 . S
C1636 C1637 1.524 . S
C1636 H1655 0.913 . S
C1637 H1613 0.950 . S
C1637 C1636 1.524 . S
C1637 C1638 1.415 . S
C1638 H1614 0.950 . S
C1638 C1633 1.363 . S
C1638 C1637 1.415 . S
C1639 H1615 0.951 . S
C1639 C1640 1.366 . S
C1639 C1641 1.388 . S
C1640 C1639 1.366 . S
C1640 C1644 1.385 . S
C1641 H1616 0.951 . S
C1641 C1639 1.388 . S
C1641 C1642 1.366 . S
C1642 C1641 1.366 . S
C1642 C1643 1.414 . S
C1642 C1645 1.499 . S
C1643 H1617 0.950 . S
C1643 C1642 1.414 . S
C1643 C1644 1.374 . S
C1644 H1618 0.950 . S
C1644 C1640 1.385 . S
C1644 C1643 1.374 . S
C1645 C1642 1.499 . S
C1645 C1646 1.373 . S
C1645 C1647 1.389 . S
C1646 H1619 0.950 . S
C1646 C1632 1.377 . S
C1646 C1645 1.373 . S
C1647 C1631 1.377 . S
C1647 C1645 1.389 . S
C1647 C1648 1.524 . S
C1648 C1647 1.524 . S
C1648 C1649 1.397 . S
C1648 C1653 1.363 . S
C1649 H1620 0.950 . S
C1649 C1648 1.397 . S
C1649 C1650 1.334 . S
C1650 H1621 0.950 . S
C1650 C1649 1.334 . S
C1650 C1651 1.287 . S
C1651 C1650 1.287 . S
C1651 C1652 1.524 . S
C1651 H1654 0.999 . S
C1652 H1622 0.950 . S
C1652 C1651 1.524 . S
C1652 C1653 1.415 . S
C1653 H1623 0.950 . S
C1653 C1648 1.363 . S
C1653 C1652 1.415 . S
H1654 C1651 0.999 . S
H1655 C1636 0.913 . S
H1656 C1674 0.951 . S
H1657 C1676 0.951 . S
H1658 C1678 0.950 . S
H1659 C1679 0.950 . S
H1660 C1681 0.950 . S
H1661 C1684 0.950 . S
H1662 C1685 0.950 . S
H1663 C1687 0.950 . S
H1664 C1688 0.950 . S
H1665 C1689 0.951 . S
H1666 C1691 0.951 . S
H1667 C1693 0.950 . S
H1668 C1694 0.950 . S
H1669 C1696 0.950 . S
H1670 C1699 0.950 . S
H1671 C1700 0.950 . S
H1672 C1702 0.950 . S
H1673 C1703 0.950 . S
C1674 H1656 0.951 . S
C1674 C1675 1.366 . S
C1674 C1676 1.388 . S
C1675 C1674 1.366 . S
C1675 C1679 1.385 . S
C1676 H1657 0.951 . S
C1676 C1674 1.388 . S
C1676 C1677 1.366 . S
C1677 C1676 1.366 . S
C1677 C1678 1.414 . S
C1677 C1680 1.499 . S
C1678 H1658 0.950 . S
C1678 C1677 1.414 . S
C1678 C1679 1.374 . S
C1679 H1659 0.950 . S
C1679 C1675 1.385 . S
C1679 C1678 1.374 . S
C1680 C1677 1.499 . S
C1680 C1681 1.373 . S
C1680 C1682 1.389 . S
C1681 H1660 0.950 . S
C1681 C1680 1.373 . S
C1681 C1697 1.377 . S
C1682 C1680 1.389 . S
C1682 C1683 1.524 . S
C1682 C1696 1.377 . S
C1683 C1682 1.524 . S
C1683 C1684 1.397 . S
C1683 C1688 1.363 . S
C1684 H1661 0.950 . S
C1684 C1683 1.397 . S
C1684 C1685 1.334 . S
C1685 H1662 0.950 . S
C1685 C1684 1.334 . S
C1685 C1686 1.287 . S
C1686 C1685 1.287 . S
C1686 C1687 1.524 . S
C1686 H1705 0.913 . S
C1687 H1663 0.950 . S
C1687 C1686 1.524 . S
C1687 C1688 1.415 . S
C1688 H1664 0.950 . S
C1688 C1683 1.363 . S
C1688 C1687 1.415 . S
C1689 H1665 0.951 . S
C1689 C1690 1.366 . S
C1689 C1691 1.388 . S
C1690 C1689 1.366 . S
C1690 C1694 1.385 . S
C1691 H1666 0.951 . S
C1691 C1689 1.388 . S
C1691 C1692 1.366 . S
C1692 C1691 1.366 . S
C1692 C1693 1.414 . S
C1692 C1695 1.499 . S
C1693 H1667 0.950 . S
C1693 C1692 1.414 . S
C1693 C1694 1.374 . S
C1694 H1668 0.950 . S
C1694 C1690 1.385 . S
C1694 C1693 1.374 . S
C1695 C1692 1.499 . S
C1695 C1696 1.373 . S
C1695 C1697 1.389 . S
C1696 H1669 0.950 . S
C1696 C1682 1.377 . S
C1696 C1695 1.373 . S
C1697 C1681 1.377 . S
C1697 C1695 1.389 . S
C1697 C1698 1.524 . S
C1698 C1697 1.524 . S
C1698 C1699 1.397 . S
C1698 C1703 1.363 . S
C1699 H1670 0.950 . S
C1699 C1698 1.397 . S
C1699 C1700 1.334 . S
C1700 H1671 0.950 . S
C1700 C1699 1.334 . S
C1700 C1701 1.287 . S
C1701 C1700 1.287 . S
C1701 C1702 1.524 . S
C1701 H1704 0.999 . S
C1702 H1672 0.950 . S
C1702 C1701 1.524 . S
C1702 C1703 1.415 . S
C1703 H1673 0.950 . S
C1703 C1698 1.363 . S
C1703 C1702 1.415 . S
H1704 C1701 0.999 . S
H1705 C1686 0.913 . S
H1706 C1724 0.951 . S
H1707 C1726 0.951 . S
H1708 C1728 0.950 . S
H1709 C1729 0.950 . S
H1710 C1731 0.950 . S
H1711 C1734 0.950 . S
H1712 C1735 0.950 . S
H1713 C1737 0.950 . S
H1714 C1738 0.950 . S
H1715 C1739 0.951 . S
H1716 C1741 0.951 . S
H1717 C1743 0.950 . S
H1718 C1744 0.950 . S
H1719 C1746 0.950 . S
H1720 C1749 0.950 . S
H1721 C1750 0.950 . S
H1722 C1752 0.950 . S
H1723 C1753 0.950 . S
C1724 H1706 0.951 . S
C1724 C1725 1.366 . S
C1724 C1726 1.388 . S
C1725 C1724 1.366 . S
C1725 C1729 1.385 . S
C1726 H1707 0.951 . S
C1726 C1724 1.388 . S
C1726 C1727 1.366 . S
C1727 C1726 1.366 . S
C1727 C1728 1.414 . S
C1727 C1730 1.499 . S
C1728 H1708 0.950 . S
C1728 C1727 1.414 . S
C1728 C1729 1.374 . S
C1729 H1709 0.950 . S
C1729 C1725 1.385 . S
C1729 C1728 1.374 . S
C1730 C1727 1.499 . S
C1730 C1731 1.373 . S
C1730 C1732 1.389 . S
C1731 H1710 0.950 . S
C1731 C1730 1.373 . S
C1731 C1747 1.377 . S
C1732 C1730 1.389 . S
C1732 C1733 1.524 . S
C1732 C1746 1.377 . S
C1733 C1732 1.524 . S
C1733 C1734 1.397 . S
C1733 C1738 1.363 . S
C1734 H1711 0.950 . S
C1734 C1733 1.397 . S
C1734 C1735 1.334 . S
C1735 H1712 0.950 . S
C1735 C1734 1.334 . S
C1735 C1736 1.287 . S
C1736 C1735 1.287 . S
C1736 C1737 1.524 . S
C1736 H1755 0.913 . S
C1737 H1713 0.950 . S
C1737 C1736 1.524 . S
C1737 C1738 1.415 . S
C1738 H1714 0.950 . S
C1738 C1733 1.363 . S
C1738 C1737 1.415 . S
C1739 H1715 0.951 . S
C1739 C1740 1.366 . S
C1739 C1741 1.388 . S
C1740 C1739 1.366 . S
C1740 C1744 1.385 . S
C1741 H1716 0.951 . S
C1741 C1739 1.388 . S
C1741 C1742 1.366 . S
C1742 C1741 1.366 . S
C1742 C1743 1.414 . S
C1742 C1745 1.499 . S
C1743 H1717 0.950 . S
C1743 C1742 1.414 . S
C1743 C1744 1.374 . S
C1744 H1718 0.950 . S
C1744 C1740 1.385 . S
C1744 C1743 1.374 . S
C1745 C1742 1.499 . S
C1745 C1746 1.373 . S
C1745 C1747 1.389 . S
C1746 H1719 0.950 . S
C1746 C1732 1.377 . S
C1746 C1745 1.373 . S
C1747 C1731 1.377 . S
C1747 C1745 1.389 . S
C1747 C1748 1.524 . S
C1748 C1747 1.524 . S
C1748 C1749 1.397 . S
C1748 C1753 1.363 . S
C1749 H1720 0.950 . S
C1749 C1748 1.397 . S
C1749 C1750 1.334 . S
C1750 H1721 0.950 . S
C1750 C1749 1.334 . S
C1750 C1751 1.287 . S
C1751 C1750 1.287 . S
C1751 C1752 1.524 . S
C1751 H1754 0.999 . S
C1752 H1722 0.950 . S
C1752 C1751 1.524 . S
C1752 C1753 1.415 . S
C1753 H1723 0.950 . S
C1753 C1748 1.363 . S
C1753 C1752 1.415 . S
H1754 C1751 0.999 . S
H1755 C1736 0.913 . S
H1756 C1774 0.951 . S
H1757 C1776 0.951 . S
H1758 C1778 0.950 . S
H1759 C1779 0.950 . S
H1760 C1781 0.950 . S
H1761 C1784 0.950 . S
H1762 C1785 0.950 . S
H1763 C1787 0.950 . S
H1764 C1788 0.950 . S
H1765 C1789 0.951 . S
H1766 C1791 0.951 . S
H1767 C1793 0.950 . S
H1768 C1794 0.950 . S
H1769 C1796 0.950 . S
H1770 C1799 0.950 . S
H1771 C1800 0.950 . S
H1772 C1802 0.950 . S
H1773 C1803 0.950 . S
C1774 H1756 0.951 . S
C1774 C1775 1.366 . S
C1774 C1776 1.388 . S
C1775 C1774 1.366 . S
C1775 C1779 1.385 . S
C1776 H1757 0.951 . S
C1776 C1774 1.388 . S
C1776 C1777 1.366 . S
C1777 C1776 1.366 . S
C1777 C1778 1.414 . S
C1777 C1780 1.499 . S
C1778 H1758 0.950 . S
C1778 C1777 1.414 . S
C1778 C1779 1.374 . S
C1779 H1759 0.950 . S
C1779 C1775 1.385 . S
C1779 C1778 1.374 . S
C1780 C1777 1.499 . S
C1780 C1781 1.373 . S
C1780 C1782 1.389 . S
C1781 H1760 0.950 . S
C1781 C1780 1.373 . S
C1781 C1797 1.377 . S
C1782 C1780 1.389 . S
C1782 C1783 1.524 . S
C1782 C1796 1.377 . S
C1783 C1782 1.524 . S
C1783 C1784 1.397 . S
C1783 C1788 1.363 . S
C1784 H1761 0.950 . S
C1784 C1783 1.397 . S
C1784 C1785 1.334 . S
C1785 H1762 0.950 . S
C1785 C1784 1.334 . S
C1785 C1786 1.287 . S
C1786 C1785 1.287 . S
C1786 C1787 1.524 . S
C1786 H1805 0.913 . S
C1787 H1763 0.950 . S
C1787 C1786 1.524 . S
C1787 C1788 1.415 . S
C1788 H1764 0.950 . S
C1788 C1783 1.363 . S
C1788 C1787 1.415 . S
C1789 H1765 0.951 . S
C1789 C1790 1.366 . S
C1789 C1791 1.388 . S
C1790 C1789 1.366 . S
C1790 C1794 1.385 . S
C1791 H1766 0.951 . S
C1791 C1789 1.388 . S
C1791 C1792 1.366 . S
C1792 C1791 1.366 . S
C1792 C1793 1.414 . S
C1792 C1795 1.499 . S
C1793 H1767 0.950 . S
C1793 C1792 1.414 . S
C1793 C1794 1.374 . S
C1794 H1768 0.950 . S
C1794 C1790 1.385 . S
C1794 C1793 1.374 . S
C1795 C1792 1.499 . S
C1795 C1796 1.373 . S
C1795 C1797 1.389 . S
C1796 H1769 0.950 . S
C1796 C1782 1.377 . S
C1796 C1795 1.373 . S
C1797 C1781 1.377 . S
C1797 C1795 1.389 . S
C1797 C1798 1.524 . S
C1798 C1797 1.524 . S
C1798 C1799 1.397 . S
C1798 C1803 1.363 . S
C1799 H1770 0.950 . S
C1799 C1798 1.397 . S
C1799 C1800 1.334 . S
C1800 H1771 0.950 . S
C1800 C1799 1.334 . S
C1800 C1801 1.287 . S
C1801 C1800 1.287 . S
C1801 C1802 1.524 . S
C1801 H1804 0.999 . S
C1802 H1772 0.950 . S
C1802 C1801 1.524 . S
C1802 C1803 1.415 . S
C1803 H1773 0.950 . S
C1803 C1798 1.363 . S
C1803 C1802 1.415 . S
H1804 C1801 0.999 . S
H1805 C1786 0.913 . S
C625 C39 1.764 . S
C640 C339 1.751 . S
C675 C91 1.723 . S
C690 C396 1.724 . S
C740 C450 1.568 . S
C725 C128 1.593 . S
C790 C507 1.504 . S
C775 C188 1.541 . S
C840 C531 1.639 . S
C825 C250 1.645 . S
C890 C588 1.721 . S
C875 C304 1.722 . S
C925 C75 1.652 . S
C940 C435 1.638 . S
C975 C144 1.749 . S
C990 C492 1.749 . S
C1040 C546 1.678 . S
C1025 C198 1.702 . S
C1090 C603 1.520 . S
C1075 C234 1.561 . S
C1125 C294 1.535 . S
C1140 C354 1.515 . S
C1190 C411 1.531 . S
C1175 C29 1.564 . S
C1240 C498 1.751 . S
C1225 C38 1.764 . S
C1275 C92 1.723 . S
C1290 C540 1.686 . S
C1340 C579 1.568 . S
C1325 C135 1.593 . S
C1375 C181 1.541 . S
C1390 C348 1.504 . S
C1425 C251 1.645 . S
C1440 C387 1.625 . S
C1475 C303 1.722 . S
C1490 C459 1.721 . S
C1525 C82 1.652 . S
C1540 C594 1.638 . S
C1590 C363 1.749 . S
C1575 C145 1.749 . S
C1625 C197 1.702 . S
C1640 C402 1.692 . S
C1675 C241 1.560 . S
C1690 C444 1.519 . S
C1725 C287 1.535 . S
C1740 C483 1.515 . S
C1775 C22 1.564 . S
C1790 C555 1.565 . S
