# Generated by pormake.
# Topology zzz, (3,6)-cn, num edge types: 1
# Building blocks:
#     Node 0, Type 0, BuildingBlock: PAMTOO_clean_linker_0, # of connection points: 3
#     Node 1, Type 0, BuildingBlock: PAMTOO_clean_linker_0, # of connection points: 3
#     Node 2, Type 0, BuildingBlock: PAMTOO_clean_linker_0, # of connection points: 3
#     Node 3, Type 0, BuildingBlock: PAMTOO_clean_linker_0, # of connection points: 3
#     Node 4, Type 0, BuildingBlock: PAMTOO_clean_linker_0, # of connection points: 3
#     Node 5, Type 0, BuildingBlock: PAMTOO_clean_linker_0, # of connection points: 3
#     Node 6, Type 0, BuildingBlock: PAMTOO_clean_linker_0, # of connection points: 3
#     Node 7, Type 0, BuildingBlock: PAMTOO_clean_linker_0, # of connection points: 3
#     Node 8, Type 1, BuildingBlock: VOLQOD_clean_sbu_1, # of connection points: 6
#     Node 9, Type 1, BuildingBlock: VOLQOD_clean_sbu_1, # of connection points: 6
#     Node 10, Type 1, BuildingBlock: VOLQOD_clean_sbu_1, # of connection points: 6
#     Node 11, Type 1, BuildingBlock: VOLQOD_clean_sbu_1, # of connection points: 6
#     Edge 12, Type (0, 1), BuildingBlock: ZUJKAS_clean_linker_0, # of connection points: 2
#     Edge 13, Type (0, 1), BuildingBlock: ZUJKAS_clean_linker_0, # of connection points: 2
#     Edge 14, Type (0, 1), BuildingBlock: ZUJKAS_clean_linker_0, # of connection points: 2
#     Edge 15, Type (0, 1), BuildingBlock: ZUJKAS_clean_linker_0, # of connection points: 2
#     Edge 16, Type (0, 1), BuildingBlock: ZUJKAS_clean_linker_0, # of connection points: 2
#     Edge 17, Type (0, 1), BuildingBlock: ZUJKAS_clean_linker_0, # of connection points: 2
#     Edge 18, Type (0, 1), BuildingBlock: ZUJKAS_clean_linker_0, # of connection points: 2
#     Edge 19, Type (0, 1), BuildingBlock: ZUJKAS_clean_linker_0, # of connection points: 2
#     Edge 20, Type (0, 1), BuildingBlock: ZUJKAS_clean_linker_0, # of connection points: 2
#     Edge 21, Type (0, 1), BuildingBlock: ZUJKAS_clean_linker_0, # of connection points: 2
#     Edge 22, Type (0, 1), BuildingBlock: ZUJKAS_clean_linker_0, # of connection points: 2
#     Edge 23, Type (0, 1), BuildingBlock: ZUJKAS_clean_linker_0, # of connection points: 2
#     Edge 24, Type (0, 1), BuildingBlock: ZUJKAS_clean_linker_0, # of connection points: 2
#     Edge 25, Type (0, 1), BuildingBlock: ZUJKAS_clean_linker_0, # of connection points: 2
#     Edge 26, Type (0, 1), BuildingBlock: ZUJKAS_clean_linker_0, # of connection points: 2
#     Edge 27, Type (0, 1), BuildingBlock: ZUJKAS_clean_linker_0, # of connection points: 2
#     Edge 28, Type (0, 1), BuildingBlock: ZUJKAS_clean_linker_0, # of connection points: 2
#     Edge 29, Type (0, 1), BuildingBlock: ZUJKAS_clean_linker_0, # of connection points: 2
#     Edge 30, Type (0, 1), BuildingBlock: ZUJKAS_clean_linker_0, # of connection points: 2
#     Edge 31, Type (0, 1), BuildingBlock: ZUJKAS_clean_linker_0, # of connection points: 2
#     Edge 32, Type (0, 1), BuildingBlock: ZUJKAS_clean_linker_0, # of connection points: 2
#     Edge 33, Type (0, 1), BuildingBlock: ZUJKAS_clean_linker_0, # of connection points: 2
#     Edge 34, Type (0, 1), BuildingBlock: ZUJKAS_clean_linker_0, # of connection points: 2
#     Edge 35, Type (0, 1), BuildingBlock: ZUJKAS_clean_linker_0, # of connection points: 2
# Relax obj value: 0.201
# Max RMSD: 0.239
# Mean RMSD: 0.108
data_MOF--net-zzz--node1-VOLQOD_clean_sbu_1--node2-PAMTOO_clean_linker_0--edge1-ZUJKAS_clean_linker_0
_symmetry_space_group_name_H-M    P1
_symmetry_Int_Tables_number       1
_symmetry_cell_setting            triclinic
loop_
_symmetry_equiv_pos_as_xyz
'x, y, z'
_cell_length_a     65.770851
_cell_length_b     65.388993
_cell_length_c     22.322699
_cell_angle_alpha  90.146127
_cell_angle_beta   89.935404
_cell_angle_gamma 90.769009
loop_
_atom_site_label
_atom_site_type_symbol
_atom_site_fract_x
_atom_site_fract_y
_atom_site_fract_z
_atom_type_partial_charge
H0 H 0.82292 0.52267 0.16864 0.0
H1 H 0.76669 0.51255 0.07417 0.0
H2 H 0.76613 0.53707 0.25342 0.0
H3 H 0.72402 0.51449 0.22064 0.0
C4 C 0.73015 0.51139 0.17517 0.0
O5 O 0.74363 0.5269 0.15979 0.0
H6 H 0.73795 0.49637 0.17691 0.0
C7 C 0.80646 0.52354 0.16684 0.0
C8 C 0.79585 0.53072 0.21679 0.0
C9 C 0.79614 0.51677 0.11551 0.0
C10 C 0.77486 0.51753 0.11385 0.0
C11 C 0.76405 0.52508 0.16326 0.0
C12 C 0.77453 0.53143 0.21514 0.0
H13 H 0.02855 0.81295 0.18916 0.0
H14 H 0.02476 0.7602 0.07407 0.0
H15 H 0.9912 0.76127 0.23942 0.0
H16 H 0.00244 0.71719 0.20754 0.0
C17 C 0.0096 0.72195 0.16456 0.0
O18 O 1.00026 0.73939 0.14423 0.0
H19 H 0.02604 0.72489 0.17384 0.0
C20 C 0.0232 0.79744 0.18087 0.0
C21 C 0.00963 0.78822 0.22146 0.0
C22 C 0.02864 0.78762 0.12743 0.0
C23 C 0.02083 0.76796 0.11535 0.0
C24 C 0.00764 0.75835 0.15624 0.0
C25 C 0.00177 0.7686 0.20874 0.0
H26 H 0.68932 0.01921 0.16602 0.0
H27 H 0.74455 0.02319 0.06317 0.0
H28 H 0.74147 0.98472 0.21929 0.0
H29 H 0.78463 1.00035 0.20036 0.0
C30 C 0.7813 0.00757 0.15649 0.0
O31 O 0.76472 0.9978 0.13088 0.0
H32 H 0.77803 0.024 0.16516 0.0
C33 C 0.7051 0.01508 0.15946 0.0
C34 C 0.71402 1.00104 0.19835 0.0
C35 C 0.71595 0.02327 0.11093 0.0
C36 C 0.73612 0.01735 0.10134 0.0
C37 C 0.74541 0.00371 0.14099 0.0
C38 C 0.73437 0.99559 0.1896 0.0
H39 H 0.48688 0.68821 0.18394 0.0
H40 H 0.49028 0.74153 0.07176 0.0
H41 H 0.52456 0.73954 0.23552 0.0
H42 H 0.51475 0.78376 0.2075 0.0
C43 C 0.50632 0.77921 0.16635 0.0
O44 O 0.5151 0.76196 0.14233 0.0
H45 H 0.49025 0.77609 0.17995 0.0
C46 C 0.49226 0.70375 0.17627 0.0
C47 C 0.506 0.71273 0.21681 0.0
C48 C 0.4866 0.71385 0.12367 0.0
C49 C 0.49438 0.73356 0.1124 0.0
C50 C 0.50778 0.74292 0.15327 0.0
C51 C 0.51388 0.73237 0.20483 0.0
H52 H 0.19245 0.53358 0.20207 0.0
H53 H 0.24501 0.53301 0.31636 0.0
H54 H 0.24559 0.50044 0.14871 0.0
H55 H 0.27368 0.48036 0.23842 0.0
C56 C 0.2715 0.49247 0.27274 0.0
O57 O 0.26695 0.51061 0.24434 0.0
H58 H 0.25868 0.48762 0.30241 0.0
C59 C 0.20812 0.52933 0.20982 0.0
C60 C 0.21789 0.51667 0.16832 0.0
C61 C 0.21764 0.53522 0.26339 0.0
C62 C 0.2375 0.52873 0.27491 0.0
C63 C 0.24766 0.51645 0.23321 0.0
C64 C 0.2378 0.51025 0.18019 0.0
H65 H 0.04565 0.18569 0.22456 0.0
H66 H 0.02686 0.24361 0.29617 0.0
H67 H 0.05143 0.24007 0.1178 0.0
H68 H 0.05671 0.28649 0.16887 0.0
C69 C 0.05303 0.27852 0.21147 0.0
O70 O 0.03734 0.26468 0.20102 0.0
H71 H 0.06708 0.27053 0.22588 0.0
C72 C 0.04444 0.20216 0.2203 0.0
C73 C 0.05004 0.2115 0.16627 0.0
C74 C 0.03583 0.21347 0.2671 0.0
C75 C 0.03348 0.23464 0.26042 0.0
C76 C 0.03951 0.24426 0.20707 0.0
C77 C 0.04736 0.23264 0.15952 0.0
H78 H 0.31935 0.01206 0.21888 0.0
H79 H 0.26091 0.00579 0.30348 0.0
H80 H 0.26493 0.02359 0.11819 0.0
H81 H 0.22185 0.03884 0.17995 0.0
C82 C 0.22928 0.03339 0.2215 0.0
O83 O 0.2401 0.01597 0.20826 0.0
H84 H 0.23955 0.04599 0.23729 0.0
C85 C 0.30291 0.01302 0.21643 0.0
C86 C 0.29367 0.01816 0.16213 0.0
C87 C 0.29129 0.00858 0.26739 0.0
C88 C 0.27006 0.00944 0.26445 0.0
C89 C 0.2606 0.01523 0.21091 0.0
C90 C 0.27238 0.01962 0.15975 0.0
H91 H 0.47421 0.31479 0.21351 0.0
H92 H 0.49137 0.25763 0.29257 0.0
H93 H 0.4674 0.2589 0.1133 0.0
H94 H 0.45957 0.21424 0.17164 0.0
C95 C 0.46434 0.22225 0.21338 0.0
O96 O 0.48046 0.23526 0.20017 0.0
H97 H 0.45089 0.23092 0.22946 0.0
C98 C 0.47513 0.29825 0.21116 0.0
C99 C 0.46946 0.28819 0.15823 0.0
C100 C 0.48329 0.28748 0.2595 0.0
C101 C 0.48515 0.26618 0.25548 0.0
C102 C 0.47901 0.25585 0.20327 0.0
C103 C 0.4716 0.26689 0.15411 0.0
O104 O 0.05794 0.00164 0.66633 0.0
Zn105 Zn 0.0364 1.00007 0.73153 0.0
O106 O 0.00879 0.99965 0.69597 0.0
Zn107 Zn 0.99365 0.02324 0.72346 0.0
Zn108 Zn 0.01064 1.00012 0.60823 0.0
Zn109 Zn 0.99363 0.9753 0.72095 0.0
O110 O 0.96823 0.01558 0.76877 0.0
O111 O 0.96838 0.9817 0.76932 0.0
O112 O 0.04066 0.02516 0.785 0.0
O113 O 0.01097 0.04064 0.77691 0.0
O114 O 0.98621 0.04135 0.65531 0.0
O115 O 0.99789 0.02564 0.57434 0.0
O116 O 0.99819 0.97446 0.57134 0.0
O117 O 0.0413 0.97403 0.77896 0.0
O118 O 0.98571 0.95791 0.65021 0.0
O119 O 0.01157 0.95774 0.77036 0.0
C120 C 0.05698 0.00205 0.6093 0.0
C121 C 0.96023 0.99855 0.78407 0.0
C122 C 0.98901 0.04071 0.59898 0.0
C123 C 0.02898 0.04002 0.79742 0.0
C124 C 0.98885 0.95911 0.59404 0.0
C125 C 0.02979 0.95859 0.78948 0.0
O126 O 0.03994 0.0014 0.58228 0.0
O127 O 0.50335 0.05301 0.65785 0.0
Zn128 Zn 0.50451 0.03185 0.7243 0.0
O129 O 0.50543 0.00383 0.69037 0.0
Zn130 Zn 0.48228 0.98767 0.71852 0.0
Zn131 Zn 0.5049 0.005 0.60257 0.0
Zn132 Zn 0.52989 0.98988 0.71638 0.0
O133 O 0.49028 0.96317 0.76724 0.0
O134 O 0.52393 0.96386 0.76242 0.0
O135 O 0.47891 0.03561 0.77492 0.0
O136 O 0.46369 0.00511 0.76667 0.0
O137 O 0.46528 0.97774 0.65045 0.0
O138 O 0.48009 0.99026 0.56886 0.0
O139 O 0.5308 0.99375 0.56696 0.0
O140 O 0.52976 0.03795 0.77438 0.0
O141 O 0.54809 0.98346 0.64648 0.0
O142 O 0.54594 0.00833 0.77019 0.0
C143 C 0.50263 0.05156 0.60091 0.0
C144 C 0.5074 0.95545 0.77998 0.0
C145 C 0.46575 0.98015 0.594 0.0
C146 C 0.46405 0.02343 0.78578 0.0
C147 C 0.54663 0.98596 0.5901 0.0
C148 C 0.54468 0.02669 0.7887 0.0
O149 O 0.50302 0.0342 0.57493 0.0
O150 O 0.45849 0.50014 0.66596 0.0
Zn151 Zn 0.48047 0.50066 0.72971 0.0
O152 O 0.50784 0.50184 0.69276 0.0
Zn153 Zn 0.5239 0.47862 0.71862 0.0
Zn154 Zn 0.50528 0.50157 0.60509 0.0
Zn155 Zn 0.52252 0.52646 0.71802 0.0
O156 O 0.54937 0.48675 0.76394 0.0
O157 O 0.54818 0.52058 0.76429 0.0
O158 O 0.47686 0.47481 0.78008 0.0
O159 O 0.50711 0.46041 0.77128 0.0
O160 O 0.53146 0.46101 0.64898 0.0
O161 O 0.51784 0.47609 0.56991 0.0
O162 O 0.51776 0.5272 0.56849 0.0
O163 O 0.47555 0.52598 0.78062 0.0
O164 O 0.5296 0.54423 0.64754 0.0
O165 O 0.50477 0.54313 0.771 0.0
C166 C 0.45891 0.50033 0.60887 0.0
C167 C 0.55689 0.50406 0.77893 0.0
C168 C 0.52769 0.46143 0.59312 0.0
C169 C 0.48901 0.46027 0.7915 0.0
C170 C 0.52667 0.54282 0.5913 0.0
C171 C 0.48683 0.54153 0.79201 0.0
O172 O 0.47572 0.50088 0.58044 0.0
O173 O 0.98019 0.5268 0.60316 0.0
Zn174 Zn 0.00559 0.52475 0.65535 0.0
O175 O 0.00774 0.49717 0.69128 0.0
Zn176 Zn 0.00664 0.49909 0.77898 0.0
Zn177 Zn 0.98574 0.4795 0.66187 0.0
Zn178 Zn 0.03322 0.48452 0.66871 0.0
O179 O 0.03242 0.48871 0.81818 0.0
O180 O 0.05068 0.47874 0.7401 0.0
O181 O 0.00356 0.54645 0.72033 0.0
O182 O 0.00435 0.52851 0.80454 0.0
O183 O 0.98163 0.4844 0.81085 0.0
O184 O 0.96786 0.4703 0.72962 0.0
O185 O 0.99571 0.4548 0.616 0.0
O186 O 0.03097 0.53175 0.60664 0.0
O187 O 0.0292 0.45836 0.62207 0.0
O188 O 0.04942 0.50386 0.61855 0.0
C189 C 0.96649 0.51361 0.58937 0.0
C190 C 0.04868 0.48133 0.79629 0.0
C191 C 0.96765 0.47374 0.78577 0.0
C192 C 0.00331 0.54557 0.77738 0.0
C193 C 0.01351 0.4485 0.6042 0.0
C194 C 0.04721 0.52176 0.59752 0.0
O195 O 0.96733 0.49528 0.60822 0.0
H196 H 0.22454 0.05034 0.33346 0.0
H197 H 0.1972 0.04372 0.40604 0.0
H198 H 0.17033 0.99937 0.28554 0.0
H199 H 0.19766 0.00601 0.21278 0.0
H200 H 0.15492 0.0489 0.38372 0.0
H201 H 0.17245 0.96916 0.44881 0.0
H202 H 0.19086 0.98592 0.41323 0.0
H203 H 0.17136 0.97354 0.36942 0.0
C204 C 0.21289 0.03906 0.32279 0.0
C205 C 0.21318 0.02862 0.26769 0.0
C206 C 0.19731 0.03529 0.3642 0.0
C207 C 0.18189 0.02088 0.35147 0.0
C208 C 0.18228 0.01028 0.29671 0.0
H209 H 0.06035 0.00779 0.48838 0.0
H210 H 0.09133 0.01235 0.42935 0.0
C211 C 0.1978 0.01413 0.25515 0.0
C212 C 0.16472 0.01782 0.39381 0.0
H213 H 0.14028 0.9819 0.47958 0.0
C214 C 0.1518 0.0343 0.40504 0.0
C215 C 0.1608 0.99881 0.42196 0.0
C216 C 0.17468 0.98086 0.41331 0.0
C217 C 0.13469 0.0321 0.44223 0.0
C218 C 0.13034 0.01289 0.46856 0.0
C219 C 0.1436 0.99656 0.45892 0.0
C220 C 0.1117 0.00939 0.50467 0.0
C221 C 0.1213 0.05031 0.45296 0.0
C222 C 0.11293 0.0058 0.56649 0.0
C223 C 0.0952 0.00323 0.60065 0.0
C224 C 0.07593 0.004 0.57334 0.0
C225 C 0.07487 0.00714 0.51104 0.0
C226 C 0.09257 0.00983 0.47715 0.0
H227 H 0.12905 0.0649 0.44049 0.0
H228 H 0.10733 0.04868 0.42544 0.0
H229 H 0.11664 0.05116 0.50073 0.0
H230 H 0.1276 0.00533 0.58845 0.0
H231 H 0.09659 1.00077 0.64841 0.0
H232 H 0.49407 0.19357 0.20348 0.0
H233 H 0.50225 0.1661 0.27415 0.0
H234 H 0.45648 0.18811 0.39585 0.0
H235 H 0.44833 0.21557 0.32553 0.0
H236 H 0.51363 0.16806 0.403 0.0
H237 H 0.44065 0.12696 0.35715 0.0
H238 H 0.45084 0.14638 0.30774 0.0
H239 H 0.43877 0.15358 0.37665 0.0
C240 C 0.48597 0.19262 0.24567 0.0
C241 C 0.47055 0.20658 0.25905 0.0
C242 C 0.49063 0.17699 0.28591 0.0
C243 C 0.47982 0.17498 0.33988 0.0
C244 C 0.46485 0.18929 0.35415 0.0
H245 H 0.50234 0.09169 0.63824 0.0
H246 H 0.49769 0.12221 0.57647 0.0
C247 C 0.46025 0.20497 0.31408 0.0
C248 C 0.48355 0.15738 0.37992 0.0
H249 H 0.46181 0.11308 0.43149 0.0
C250 C 0.50231 0.15605 0.40947 0.0
C251 C 0.46881 0.14166 0.38767 0.0
C252 C 0.44867 0.14201 0.35539 0.0
C253 C 0.50666 0.13942 0.44699 0.0
C254 C 0.49182 0.12382 0.4552 0.0
C255 C 0.47311 0.12513 0.42539 0.0
C256 C 0.49558 0.10557 0.49276 0.0
C257 C 0.52723 0.13841 0.47654 0.0
C258 C 0.49576 0.08611 0.46626 0.0
C259 C 0.49839 0.06867 0.50129 0.0
C260 C 0.50072 0.07028 0.56383 0.0
C261 C 0.50064 0.08986 0.59027 0.0
C262 C 0.49809 0.10734 0.55502 0.0
H263 H 0.53829 0.14941 0.45648 0.0
H264 H 0.52565 0.14214 0.52483 0.0
H265 H 0.53346 0.12275 0.47294 0.0
H266 H 0.49378 0.08441 0.41832 0.0
H267 H 0.49833 0.05389 0.47927 0.0
H268 H 0.30657 0.51423 0.24554 0.0
H269 H 0.33834 0.51609 0.30309 0.0
H270 H 0.31211 0.4764 0.43718 0.0
H271 H 0.28026 0.47464 0.38021 0.0
H272 H 0.3435 0.52864 0.43197 0.0
H273 H 0.36681 0.44902 0.38047 0.0
H274 H 0.34858 0.46256 0.3355 0.0
H275 H 0.34117 0.45221 0.40675 0.0
C276 C 0.30749 0.50615 0.28772 0.0
C277 C 0.29077 0.49468 0.30916 0.0
C278 C 0.32565 0.50717 0.32039 0.0
C279 C 0.32755 0.49635 0.37428 0.0
C280 C 0.31095 0.4848 0.39559 0.0
H281 H 0.42006 0.5041 0.65231 0.0
H282 H 0.38825 0.50362 0.59536 0.0
C283 C 0.29276 0.4839 0.36321 0.0
C284 C 0.34697 0.49698 0.40803 0.0
H285 H 0.38706 0.46757 0.44984 0.0
C286 C 0.35305 0.51532 0.43591 0.0
C287 C 0.35944 0.4796 0.41259 0.0
C288 C 0.35384 0.45973 0.38196 0.0
C289 C 0.37118 0.51664 0.4691 0.0
C290 C 0.38347 0.49915 0.47458 0.0
C291 C 0.37753 0.48091 0.4459 0.0
C292 C 0.40272 0.49957 0.50919 0.0
C293 C 0.37723 0.53677 0.49746 0.0
C294 C 0.42138 0.49715 0.4797 0.0
C295 C 0.4396 0.49746 0.51201 0.0
C296 C 0.43951 0.49997 0.57469 0.0
C297 C 0.42072 0.50217 0.60415 0.0
C298 C 0.40252 0.502 0.57167 0.0
H299 H 0.36829 0.54967 0.47945 0.0
H300 H 0.37458 0.53593 0.5465 0.0
H301 H 0.39366 0.54006 0.49012 0.0
H302 H 0.42185 0.49516 0.43152 0.0
H303 H 0.45374 0.49565 0.4878 0.0
H304 H 0.01708 0.29937 0.2203 0.0
H305 H 0.00867 0.32715 0.29009 0.0
H306 H 0.06746 0.32166 0.37326 0.0
H307 H 0.07586 0.29384 0.30411 0.0
H308 H 0.011 0.32723 0.42757 0.0
H309 H 0.0621 0.38294 0.31169 0.0
H310 H 0.05247 0.36004 0.27553 0.0
H311 H 0.0727 0.35844 0.32913 0.0
C312 C 0.02803 0.30388 0.25421 0.0
C313 C 0.04698 0.29424 0.25753 0.0
C314 C 0.02325 0.31974 0.29384 0.0
C315 C 0.03748 0.32645 0.33658 0.0
C316 C 0.05631 0.31671 0.34043 0.0
H317 H 0.04866 0.42776 0.58327 0.0
H318 H 0.05334 0.39754 0.52059 0.0
C319 C 0.06104 0.30079 0.30113 0.0
C320 C 0.03306 0.34415 0.37578 0.0
H321 H 0.04699 0.39381 0.40202 0.0
C322 C 0.01876 0.34185 0.422 0.0
C323 C 0.04327 0.36311 0.36825 0.0
C324 C 0.05841 0.36647 0.31827 0.0
C325 C 0.01477 0.35794 0.46207 0.0
C326 C 0.02503 0.37696 0.45464 0.0
C327 C 0.03917 0.37925 0.40783 0.0
C328 C 0.02168 0.39466 0.49524 0.0
C329 C 1.0001 0.35421 0.51302 0.0
C330 C 0.0023 0.40315 0.50194 0.0
C331 C 0.99953 0.42039 0.53825 0.0
C332 C 0.01615 0.42966 0.56789 0.0
C333 C 0.03552 0.42107 0.5611 0.0
C334 C 0.03823 0.40377 0.52522 0.0
H335 H 0.99802 0.33762 0.52225 0.0
H336 H 0.0054 0.36192 0.55465 0.0
H337 H 0.98504 0.36045 0.50098 0.0
H338 H 0.98938 0.39672 0.47813 0.0
H339 H 0.98444 0.42669 0.54206 0.0
H340 H 0.79914 0.03718 0.08617 0.0
H341 H 0.82915 0.03409 0.02152 0.0
H342 H 0.83405 0.97055 0.07 0.0
H343 H 0.80401 0.97362 0.13487 0.0
H344 H 0.86909 0.02114 0.06046 0.0
H345 H 0.83611 0.97084 0.88319 0.0
H346 H 0.82053 0.98549 0.93383 0.0
H347 H 0.83243 0.96255 0.95925 0.0
C348 C 0.80663 0.02257 0.0829 0.0
C349 C 0.79947 0.00567 0.11584 0.0
C350 C 0.82372 0.02081 0.046 0.0
C351 C 0.83372 0.00207 0.0407 0.0
C352 C 0.8264 0.98508 0.07293 0.0
H353 H 0.94076 0.96574 0.83653 0.0
H354 H 0.91036 0.96618 0.89998 0.0
C355 C 0.80937 0.98686 0.1101 0.0
C356 C 0.85225 1.00055 0.00319 0.0
H357 H 0.87125 0.97853 0.87639 0.0
C358 C 0.86958 0.01186 0.02015 0.0
C359 C 0.85285 0.98828 0.951 0.0
C360 C 0.83448 0.97618 0.93022 0.0
C361 C 0.88759 0.01116 0.98644 0.0
C362 C 0.8881 0.99923 0.93344 0.0
C363 C 0.87082 0.98771 0.9169 0.0
C364 C 0.90629 0.99889 0.894 0.0
C365 C 0.90601 0.02293 0.00858 0.0
C366 C 0.91386 0.01706 0.86857 0.0
C367 C 0.93126 0.01689 0.83263 0.0
C368 C 0.94136 0.99848 0.82067 0.0
C369 C 0.93342 0.98019 0.84491 0.0
C370 C 0.91603 0.98041 0.88118 0.0
H371 H 0.90505 0.02608 0.05744 0.0
H372 H 0.92022 0.01448 -0.0005 0.0
H373 H 0.90696 0.03785 0.98512 0.0
H374 H 0.9063 0.03143 0.87654 0.0
H375 H 0.93679 0.03124 0.81427 0.0
H376 H 0.53903 0.80337 0.13624 0.0
H377 H 0.54002 0.83255 0.06689 0.0
H378 H 0.47661 0.8224 0.02592 0.0
H379 H 0.47561 0.79325 0.09499 0.0
H380 H 0.52866 0.83422 0.93913 0.0
H381 H 0.48115 0.88308 0.08605 0.0
H382 H 0.49395 0.86069 0.11331 0.0
H383 H 0.47103 0.85796 0.07026 0.0
C384 C 0.52536 0.80741 0.11221 0.0
C385 C 0.50715 0.79641 0.12165 0.0
C386 C 0.52594 0.82398 0.07266 0.0
C387 C 0.5083 0.8298 0.04214 0.0
C388 C 0.49029 0.81835 0.04988 0.0
H389 H 0.47539 0.93109 0.81489 0.0
H390 H 0.47634 0.90016 0.87584 0.0
C391 C 0.48973 0.80173 0.08918 0.0
C392 C 0.50858 0.8481 0.00311 0.0
H393 H 0.48931 0.89609 0.99029 0.0
C394 C 0.52013 0.8478 0.95025 0.0
C395 C 0.49742 0.86573 0.0179 0.0
C396 C 0.48529 0.86708 0.07517 0.0
C397 C 0.52044 0.86457 0.91094 0.0
C398 C 0.50927 0.88225 0.92574 0.0
C399 C 0.49783 0.88253 0.97889 0.0
C400 C 0.50903 0.90062 0.88672 0.0
C401 C 0.53227 0.86296 0.8532 0.0
C402 C 0.52709 0.91128 0.87278 0.0
C403 C 0.52663 0.92895 0.83756 0.0
C404 C 0.50804 0.93646 0.81621 0.0
C405 C 0.48998 0.92578 0.83054 0.0
C406 C 0.49048 0.90807 0.86541 0.0
H407 H 0.5351 0.84678 0.84085 0.0
H408 H 0.52411 0.87039 0.81576 0.0
H409 H 0.54723 0.87077 0.85871 0.0
H410 H 0.54154 0.90613 0.88993 0.0
H411 H 0.54081 0.93686 0.82781 0.0
H412 H 0.70288 0.54136 0.14999 0.0
H413 H 0.67417 0.54003 0.07955 0.0
H414 H 0.6898 0.47834 0.03092 0.0
H415 H 0.71854 0.47967 0.10093 0.0
H416 H 0.67542 0.5304 0.94966 0.0
H417 H 0.62841 0.47574 0.08311 0.0
H418 H 0.64905 0.49053 0.11547 0.0
H419 H 0.65435 0.46865 0.06965 0.0
C420 C 0.70016 0.52757 0.12405 0.0
C421 C 0.71284 0.51061 0.13092 0.0
C422 C 0.68382 0.52682 0.08393 0.0
C423 C 0.67977 0.50902 0.05054 0.0
C424 C 0.69254 0.49213 0.05684 0.0
H425 H 0.5819 0.47251 0.80937 0.0
H426 H 0.61235 0.47399 0.87206 0.0
C427 C 0.70895 0.49292 0.09666 0.0
C428 C 0.66215 0.50809 0.00916 0.0
H429 H 0.61585 0.48494 0.98812 0.0
C430 C 0.66236 0.52051 0.95799 0.0
C431 C 0.64522 0.49508 0.0201 0.0
C432 C 0.64404 0.48181 0.07523 0.0
C433 C 0.64616 0.52005 0.91691 0.0
C434 C 0.62906 0.50722 0.92821 0.0
C435 C 0.62894 0.49476 0.9794 0.0
C436 C 0.61103 0.5066 0.88802 0.0
C437 C 0.64778 0.53297 0.86114 0.0
C438 C 0.60004 0.52442 0.87628 0.0
C439 C 0.5827 0.52366 0.84005 0.0
C440 C 0.57577 0.50499 0.81544 0.0
C441 C 0.58677 0.48715 0.82748 0.0
C442 C 0.6042 0.48796 0.86339 0.0
H443 H 0.66386 0.53684 0.85026 0.0
H444 H 0.64083 0.52505 0.82201 0.0
H445 H 0.63965 0.54752 0.86853 0.0
H446 H 0.60466 0.53889 0.89601 0.0
H447 H 0.57452 0.53767 0.83226 0.0
H448 H 0.98066 0.69142 0.15809 0.0
H449 H 0.97868 0.66295 0.08626 0.0
H450 H 0.0316 0.68684 0.99454 0.0
H451 H 0.03368 0.71524 0.06668 0.0
H452 H 0.97568 0.66222 0.95861 0.0
H453 H 0.04734 0.6279 0.04039 0.0
H454 H 0.03405 0.64735 0.08177 0.0
H455 H 0.04938 0.65423 0.01809 0.0
C456 C 0.99182 0.69055 0.1225 0.0
C457 C 0.00762 0.70516 0.11856 0.0
C458 C 0.99065 0.67437 0.08145 0.0
C459 C 0.00522 0.67258 0.03578 0.0
C460 C 0.02046 0.68771 0.03019 0.0
H461 H 0.00182 0.58525 0.73712 0.0
H462 H 0.00166 0.61661 0.79745 0.0
C463 C 0.02162 0.7039 0.0712 0.0
C464 C 0.00483 0.65453 0.99537 0.0
H465 H 0.03162 0.61207 0.95702 0.0
C466 C 0.98792 0.65127 0.95803 0.0
C467 C 0.02072 0.64016 0.99531 0.0
C468 C 0.03884 0.6424 0.03633 0.0
C469 C 0.98652 0.63402 0.92041 0.0
C470 C 0.00254 0.6198 0.91983 0.0
C471 C 0.01942 0.62307 0.95725 0.0
C472 C 0.00182 0.60093 0.8827 0.0
C473 C 0.9677 0.63086 0.88277 0.0
C474 C 0.0022 0.58174 0.91055 0.0
C475 C 0.00238 0.56383 0.87631 0.0
C476 C 0.00231 0.5647 0.81331 0.0
C477 C 0.0018 0.58399 0.78546 0.0
C478 C 0.00161 0.60194 0.81988 0.0
H479 H 0.95501 0.64065 0.898 0.0
H480 H 0.97124 0.63482 0.83556 0.0
H481 H 0.96256 0.61462 0.88398 0.0
H482 H 0.00243 0.58062 0.95895 0.0
H483 H 0.00277 0.54929 0.89943 0.0
H484 H 0.05576 0.18627 0.33658 0.0
H485 H 0.04033 0.16129 0.40463 0.0
H486 H 0.98209 0.18993 0.38309 0.0
H487 H 0.99751 0.21488 0.31391 0.0
H488 H 0.01676 0.1625 0.51072 0.0
H489 H 0.97374 0.13149 0.31486 0.0
H490 H 0.99433 0.14977 0.30655 0.0
H491 H 0.97004 0.15794 0.33363 0.0
C492 C 0.03978 0.18755 0.34765 0.0
C493 C 0.02776 0.20232 0.31972 0.0
C494 C 0.03098 0.1733 0.38645 0.0
C495 C 0.01001 0.17354 0.3978 0.0
C496 C 0.99826 0.18934 0.37404 0.0
H497 H 0.9677 0.07437 0.63397 0.0
H498 H 0.96785 0.10784 0.58547 0.0
C499 C 0.0071 0.20369 0.33517 0.0
C500 C 1.00051 0.15595 0.42925 0.0
H501 H 0.9727 0.11232 0.40332 0.0
C502 C 0.00678 0.1517 0.48786 0.0
C503 C 0.98773 0.1418 0.39868 0.0
C504 C 0.98111 0.14529 0.33483 0.0
C505 C 1.00134 0.13325 0.51592 0.0
C506 C 0.989 0.11885 0.48475 0.0
C507 C 0.98202 0.12348 0.4271 0.0
C508 C 0.98526 0.09804 0.50861 0.0
C509 C 0.0099 0.12878 0.57718 0.0
C510 C 0.99381 0.08116 0.4794 0.0
C511 C 0.99359 0.06195 0.50661 0.0
C512 C 0.98487 0.05933 0.56367 0.0
C513 C 0.97479 0.07591 0.59035 0.0
C514 C 0.97494 0.09509 0.56292 0.0
H515 H 0.02206 0.13988 0.59022 0.0
H516 H 0.99756 0.12965 0.61099 0.0
H517 H 0.01623 0.11313 0.57865 0.0
H518 H 0.00173 0.08312 0.43718 0.0
H519 H 1.00142 0.04953 0.48469 0.0
H520 H 0.317 0.03161 0.33422 0.0
H521 H 0.34254 0.01885 0.40376 0.0
H522 H 0.31645 0.95814 0.38954 0.0
H523 H 0.29079 0.97099 0.31939 0.0
H524 H 0.3429 0.99561 0.51301 0.0
H525 H 0.37456 0.95423 0.31589 0.0
H526 H 0.35544 0.97358 0.30817 0.0
H527 H 0.34859 0.94875 0.33638 0.0
C528 C 0.31628 0.01572 0.34784 0.0
C529 C 0.30204 0.00223 0.3219 0.0
C530 C 0.33087 0.00842 0.38728 0.0
C531 C 0.33155 0.98751 0.40084 0.0
C532 C 0.31626 0.9743 0.37899 0.0
H533 H 0.43459 0.95489 0.62962 0.0
H534 H 0.40112 0.95151 0.583 0.0
C535 C 0.30153 0.98165 0.33959 0.0
C536 C 0.34974 0.97959 0.43139 0.0
H537 H 0.39463 0.95579 0.40239 0.0
C538 C 0.35405 0.9865 0.48953 0.0
C539 C 0.36432 0.96798 0.39992 0.0
C540 C 0.36068 0.96075 0.3365 0.0
C541 C 0.37296 0.98288 0.51622 0.0
C542 C 0.38778 0.9718 0.48403 0.0
C543 C 0.38314 0.96413 0.42691 0.0
C544 C 0.40887 0.97018 0.50628 0.0
C545 C 0.37738 0.99205 0.57707 0.0
C546 C 0.42464 0.98064 0.47644 0.0
C547 C 0.44387 0.98247 0.50262 0.0
C548 C 0.44754 0.97392 0.55922 0.0
C549 C 0.43218 0.96191 0.58635 0.0
C550 C 0.41301 0.96002 0.55998 0.0
H551 H 0.36557 0.00307 0.59118 0.0
H552 H 0.3779 0.97967 0.61089 0.0
H553 H 0.39237 1.00006 0.57706 0.0
H554 H 0.42174 0.98847 0.43465 0.0
H555 H 0.45535 0.99176 0.48044 0.0
H556 H 0.46304 0.31538 0.32604 0.0
H557 H 0.47804 0.34086 0.39365 0.0
H558 H 0.53645 0.31223 0.37581 0.0
H559 H 0.52144 0.28669 0.30734 0.0
H560 H 0.50141 0.33955 0.50176 0.0
H561 H 0.54448 0.3709 0.30657 0.0
H562 H 0.52385 0.35268 0.29773 0.0
H563 H 0.54804 0.34441 0.32489 0.0
C564 C 0.47896 0.31422 0.33785 0.0
C565 C 0.49114 0.29922 0.31136 0.0
C566 C 0.48751 0.32875 0.37636 0.0
C567 C 0.50841 0.32861 0.38873 0.0
C568 C 0.52034 0.31271 0.36607 0.0
H569 H 0.54982 0.42812 0.62592 0.0
H570 H 0.55007 0.39476 0.57636 0.0
C571 C 0.51173 0.29804 0.32759 0.0
C572 C 0.51765 0.34631 0.4204 0.0
H573 H 0.5449 0.39029 0.39502 0.0
C574 C 0.51128 0.35047 0.47906 0.0
C575 C 0.53028 0.36059 0.39002 0.0
C576 C 0.53703 0.35711 0.3262 0.0
C577 C 0.5165 0.36898 0.50741 0.0
C578 C 0.52866 0.38353 0.4764 0.0
C579 C 0.53572 0.379 0.41865 0.0
C580 C 0.53212 0.40436 0.50067 0.0
C581 C 0.50791 0.37333 0.56883 0.0
C582 C 0.52306 0.4211 0.47248 0.0
C583 C 0.52301 0.44025 0.50035 0.0
C584 C 0.53197 0.44294 0.55704 0.0
C585 C 0.54254 0.42653 0.58263 0.0
C586 C 0.54264 0.40741 0.55457 0.0
H587 H 0.496 0.36199 0.582 0.0
H588 H 0.52031 0.37276 0.60243 0.0
H589 H 0.50126 0.38884 0.57047 0.0
H590 H 0.51497 0.41906 0.43058 0.0
H591 H 0.51482 0.45254 0.47923 0.0
H592 H 0.19544 0.56983 0.24942 0.0
H593 H 0.16805 0.58139 0.31516 0.0
H594 H 0.18391 0.53512 0.44381 0.0
H595 H 0.21151 0.52397 0.37905 0.0
H596 H 0.13722 0.55689 0.33457 0.0
H597 H 0.16706 0.57941 0.55546 0.0
H598 H 0.18321 0.57804 0.49007 0.0
H599 H 0.17782 0.55547 0.53399 0.0
C600 C 0.19355 0.56273 0.29292 0.0
C601 C 0.20549 0.54597 0.30923 0.0
C602 C 0.1779 0.56933 0.33038 0.0
C603 C 0.17392 0.55922 0.38463 0.0
C604 C 0.18694 0.54355 0.40302 0.0
H605 H 0.08463 0.50555 0.58016 0.0
H606 H 0.11378 0.52081 0.52968 0.0
C607 C 0.20271 0.5371 0.36584 0.0
C608 C 0.15422 0.56204 0.41593 0.0
H609 H 0.13324 0.56251 0.55575 0.0
C610 C 0.13629 0.55887 0.38274 0.0
C611 C 0.15292 0.56473 0.4787 0.0
C612 C 0.17132 0.56983 0.51635 0.0
C613 C 0.11741 0.55629 0.41121 0.0
C614 C 0.11649 0.55696 0.47433 0.0
C615 C 0.13407 0.56188 0.50724 0.0
C616 C 0.09857 0.54882 0.50676 0.0
C617 C 0.09887 0.55111 0.37414 0.0
C618 C 0.08027 0.55956 0.51028 0.0
C619 C 0.06335 0.55082 0.53933 0.0
C620 C 0.06456 0.5312 0.56485 0.0
C621 C 0.08302 0.52063 0.56091 0.0
C622 C 0.0998 0.52937 0.53239 0.0
H623 H 0.10224 0.55084 0.32537 0.0
H624 H 0.09268 0.5359 0.38743 0.0
H625 H 0.08688 0.56254 0.3826 0.0
H626 H 0.0791 0.57462 0.49056 0.0
H627 H 0.04941 0.5594 0.54182 0.0
H628 H 0.01862 0.79378 0.01098 0.0
H629 H 0.03192 0.82075 0.9462 0.0
H630 H 0.07799 0.83558 0.07741 0.0
H631 H 0.06428 0.80882 0.14317 0.0
H632 H 0.05596 0.86743 0.05513 0.0
H633 H 0.07776 0.83519 0.83692 0.0
H634 H 0.0531 0.82554 0.85714 0.0
H635 H 0.07481 0.81942 0.90277 0.0
C636 C 0.03212 0.80219 0.02484 0.0
C637 C 0.04036 0.79933 0.08211 0.0
C638 C 0.03981 0.8176 0.98764 0.0
C639 C 0.05608 0.83017 0.00664 0.0
C640 C 0.06547 0.82607 0.0617 0.0
H641 H 0.06675 0.95438 0.84633 0.0
H642 H 0.07919 0.92389 0.89856 0.0
C643 C 0.05765 0.81079 0.09919 0.0
C644 C 0.06045 0.84965 0.97477 0.0
H645 H 0.06341 0.86989 0.83425 0.0
C646 C 0.05833 0.86799 0.00707 0.0
C647 C 0.06363 0.85047 0.91215 0.0
C648 C 0.06768 0.83155 0.87552 0.0
C649 C 0.05733 0.88689 0.97775 0.0
C650 C 0.05853 0.88742 0.91466 0.0
C651 C 0.06235 0.86936 0.88273 0.0
C652 C 0.05214 0.90567 0.88108 0.0
C653 C 0.05327 0.90596 0.01381 0.0
C654 C 0.03292 0.90538 0.85423 0.0
C655 C 0.02575 0.92264 0.82516 0.0
C656 C 0.0377 0.94061 0.82187 0.0
C657 C 0.05714 0.94082 0.84829 0.0
C658 C 0.06429 0.92345 0.87793 0.0
H659 H 0.05232 0.90285 0.06265 0.0
H660 H 0.06561 0.91739 0.00596 0.0
H661 H 0.03878 0.91286 -0.00094 0.0
H662 H 0.0233 0.89182 0.85659 0.0
H663 H 0.01077 0.9218 0.80509 0.0
H664 H 0.70896 0.0156 0.99328 0.0
H665 H 0.68171 0.03015 0.93349 0.0
H666 H 0.67014 0.07422 0.07329 0.0
H667 H 0.69701 0.05912 0.13398 0.0
H668 H 0.63802 0.05182 0.05422 0.0
H669 H 0.6651 0.07748 0.83317 0.0
H670 H 0.67488 0.0526 0.84834 0.0
H671 H 0.68226 0.07391 0.89535 0.0
C672 C 0.70124 0.02901 0.00989 0.0
C673 C 0.70496 0.03624 0.06807 0.0
C674 C 0.68567 0.03741 0.9756 0.0
C675 C 0.67386 0.05339 0.99868 0.0
C676 C 0.67905 0.06195 0.05445 0.0
H677 H 0.55703 0.06679 0.80321 0.0
H678 H 0.5874 0.07925 0.8575 0.0
C679 C 0.69442 0.05338 0.08902 0.0
C680 C 0.65385 0.05783 0.97116 0.0
H681 H 0.63039 0.06252 0.83562 0.0
C682 C 0.63641 0.05487 0.00673 0.0
C683 C 0.65155 0.06199 0.90937 0.0
C684 C 0.6695 0.06689 0.86965 0.0
C685 C 0.61698 0.05401 0.98124 0.0
C686 C 0.61494 0.05593 0.91862 0.0
C687 C 0.63206 0.06082 0.88369 0.0
C688 C 0.59604 0.04926 0.88824 0.0
C689 C 0.59886 0.04969 0.02094 0.0
C690 C 0.59097 0.02839 0.88802 0.0
C691 C 0.57393 0.02128 0.85708 0.0
C692 C 0.56149 0.03492 0.82585 0.0
C693 C 0.56627 0.05596 0.8273 0.0
C694 C 0.58361 0.06308 0.85789 0.0
H695 H 0.60189 0.05432 0.06805 0.0
H696 H 0.58521 0.0578 0.00462 0.0
H697 H 0.59543 0.03302 0.02037 0.0
H698 H 0.60049 0.01749 0.91088 0.0
H699 H 0.57064 0.005 0.85699 0.0
H700 H 0.49658 0.7073 0.00721 0.0
H701 H 0.48342 0.67977 0.94376 0.0
H702 H 0.43708 0.66605 0.07522 0.0
H703 H 0.45062 0.69337 0.13954 0.0
H704 H 0.46039 0.63443 0.05741 0.0
H705 H 0.43787 0.66266 0.83525 0.0
H706 H 0.46222 0.6732 0.85514 0.0
H707 H 0.44019 0.67944 0.8994 0.0
C708 C 0.48301 0.69905 0.02125 0.0
C709 C 0.47469 0.70232 0.07832 0.0
C710 C 0.47541 0.68331 0.98482 0.0
C711 C 0.45918 0.67083 0.00454 0.0
C712 C 0.44958 0.67548 0.05902 0.0
H713 H 0.44703 0.55056 0.81864 0.0
H714 H 0.43468 0.58103 0.87184 0.0
C715 C 0.4573 0.69109 0.09567 0.0
C716 C 0.45532 0.65079 0.97499 0.0
H717 H 0.45252 0.62814 0.83722 0.0
C718 C 0.45793 0.63306 0.00952 0.0
C719 C 0.45206 0.64886 0.91257 0.0
C720 C 0.44771 0.6671 0.87369 0.0
C721 C 0.45923 0.61375 0.9826 0.0
C722 C 0.45795 0.61215 0.91975 0.0
C723 C 0.45361 0.62951 0.88555 0.0
C724 C 0.46474 0.5935 0.88877 0.0
C725 C 0.46345 0.59534 0.02094 0.0
C726 C 0.48563 0.59052 0.88157 0.0
C727 C 0.49269 0.57335 0.85146 0.0
C728 C 0.47897 0.55872 0.82807 0.0
C729 C 0.45796 0.56151 0.83647 0.0
C730 C 0.45088 0.57891 0.8664 0.0
H731 H 0.46016 0.59829 0.069 0.0
H732 H 0.4542 0.58197 0.00569 0.0
H733 H 0.47972 0.5913 0.01653 0.0
H734 H 0.49651 0.60165 0.89883 0.0
H735 H 0.50895 0.57166 0.84607 0.0
H736 H 0.7926 0.47915 0.06269 0.0
H737 H 0.81725 0.46343 0.99399 0.0
H738 H 0.85155 0.5201 0.98899 0.0
H739 H 0.82708 0.53574 0.05698 0.0
H740 H 0.84764 0.49878 0.87539 0.0
H741 H 0.87494 0.45012 0.06288 0.0
H742 H 0.84832 0.44915 0.04421 0.0
H743 H 0.85914 0.47206 0.07584 0.0
C744 C 0.80512 0.48832 0.04541 0.0
C745 C 0.8081 0.50857 0.06509 0.0
C746 C 0.81923 0.47932 0.00676 0.0
C747 C 0.83633 0.49055 0.98728 0.0
C748 C 0.83847 0.51118 0.00371 0.0
H749 H 0.95841 0.48389 0.90164 0.0
H750 H 0.92485 0.48234 0.94822 0.0
C751 C 0.82453 0.52009 0.04246 0.0
C752 C 0.85308 0.48079 0.95407 0.0
H753 H 0.89501 0.45151 0.97614 0.0
C754 C 0.85777 0.48804 0.89661 0.0
C755 C 0.86631 0.46698 0.98252 0.0
C756 C 0.86211 0.45911 0.04488 0.0
C757 C 0.87595 0.48271 0.86798 0.0
C758 C 0.88961 0.46956 0.89748 0.0
C759 C 0.88441 0.46147 0.95365 0.0
C760 C 0.91042 0.46642 0.87423 0.0
C761 C 0.88102 0.49233 0.80828 0.0
C762 C 0.91362 0.45697 0.81866 0.0
C763 C 0.9328 0.45787 0.79173 0.0
C764 C 0.94909 0.46821 0.8201 0.0
C765 C 0.94621 0.47594 0.8783 0.0
C766 C 0.92702 0.47507 0.90505 0.0
H767 H 0.87024 0.50458 0.79613 0.0
H768 H 0.89666 0.49895 0.80883 0.0
H769 H 0.88038 0.48044 0.77276 0.0
H770 H 0.90106 0.44987 0.79473 0.0
H771 H 0.93453 0.45152 0.74718 0.0
H772 H 0.08125 0.18463 0.16636 0.0
H773 H 0.08677 0.15689 0.09449 0.0
H774 H 0.03812 0.17973 0.98482 0.0
H775 H 0.03307 0.20779 0.05568 0.0
H776 H 0.05918 0.12836 0.07677 0.0
H777 H 0.07688 0.16263 0.85696 0.0
H778 H 0.07865 0.17711 0.92579 0.0
H779 H 0.05454 0.17382 0.88837 0.0
C780 C 0.0723 0.18412 0.12564 0.0
C781 C 0.0568 0.19834 0.11625 0.0
C782 C 0.0754 0.16824 0.08477 0.0
C783 C 0.06296 0.16622 0.03395 0.0
C784 C 0.04828 0.18119 0.02275 0.0
H785 H 0.0093 0.0756 0.82012 0.0
H786 H 0.02149 0.1052 0.87637 0.0
C787 C 0.04536 0.19723 0.06332 0.0
C788 C 0.06315 0.14704 0.99805 0.0
H789 H 0.06114 0.12871 0.85474 0.0
C790 C 0.06015 0.12839 0.02827 0.0
C791 C 0.06442 0.14702 0.93476 0.0
C792 C 0.06902 0.16622 0.89972 0.0
C793 C 0.05711 0.10999 0.99686 0.0
C794 C 0.0571 0.11023 0.93365 0.0
C795 C 0.0611 0.12863 0.90334 0.0
C796 C 0.0505 0.09211 0.89859 0.0
C797 C 0.05271 0.09059 0.03123 0.0
C798 C 0.06284 0.07486 0.8926 0.0
C799 C 0.05591 0.05774 0.86016 0.0
C800 C 0.0365 0.05763 0.8336 0.0
C801 C 0.02428 0.07501 0.8401 0.0
C802 C 0.03124 0.09206 0.87199 0.0
H803 H 0.05193 0.09326 0.08035 0.0
H804 H 0.03807 0.08369 0.01612 0.0
H805 H 0.06483 0.07934 0.02213 0.0
H806 H 0.07779 0.07469 0.91286 0.0
H807 H 0.06574 0.04465 0.85585 0.0
H808 H 0.29476 0.05051 0.08367 0.0
H809 H 0.32015 0.0568 0.00426 0.0
H810 H 0.34787 0.99897 0.04397 0.0
H811 H 0.32252 0.99251 0.12142 0.0
H812 H 0.36188 0.0601 0.0196 0.0
H813 H 0.34418 0.99676 0.86363 0.0
H814 H 0.32662 0.00474 0.92107 0.0
H815 H 0.34688 0.98746 0.93862 0.0
C816 C 0.30598 0.03898 0.07412 0.0
C817 C 0.30672 0.02104 0.10857 0.0
C818 C 0.32054 0.04263 0.02923 0.0
C819 C 0.33578 0.02825 0.01777 0.0
C820 C 0.33605 0.0101 0.05106 0.0
H821 H 0.45932 0.03347 0.90371 0.0
H822 H 0.4269 0.03874 0.95581 0.0
C823 C 0.32164 0.00649 0.09563 0.0
C824 C 0.3524 0.03245 0.9743 0.0
H825 H 0.37876 0.00978 0.86124 0.0
C826 C 0.36538 0.04936 0.98406 0.0
C827 C 0.35681 0.01864 0.92738 0.0
C828 C 0.34274 1.00102 0.91165 0.0
C829 C 0.38332 0.05211 0.95048 0.0
C830 C 0.38861 0.03728 0.90704 0.0
C831 C 0.37495 0.02106 0.89502 0.0
C832 C 0.40851 0.03749 0.87524 0.0
C833 C 0.39644 0.07077 0.9623 0.0
C834 C 0.40908 0.03502 0.81274 0.0
C835 C 0.42748 0.03155 0.78346 0.0
C836 C 0.4457 0.03086 0.81589 0.0
C837 C 0.44543 0.03437 0.87784 0.0
C838 C 0.42692 0.03748 0.90745 0.0
H839 H 0.38721 0.08367 0.97925 0.0
H840 H 0.40782 0.06712 0.99721 0.0
H841 H 0.40463 0.07581 0.92127 0.0
H842 H 0.39515 0.03488 0.78686 0.0
H843 H 0.42739 0.02866 0.73563 0.0
H844 H 0.43758 0.3141 0.15384 0.0
H845 H 0.43248 0.34143 0.08079 0.0
H846 H 0.4832 0.31933 0.9775 0.0
H847 H 0.4878 0.29162 0.04949 0.0
H848 H 0.45979 0.37042 0.06647 0.0
H849 H 0.44611 0.33543 0.84467 0.0
H850 H 0.44364 0.32103 0.91328 0.0
H851 H 0.46822 0.32489 0.87905 0.0
C852 C 0.44705 0.31463 0.11411 0.0
C853 C 0.46298 0.30074 0.10685 0.0
C854 C 0.44422 0.33029 0.0726 0.0
C855 C 0.45737 0.33244 0.02334 0.0
C856 C 0.47251 0.31775 0.01416 0.0
H857 H 0.50971 0.4251 0.81129 0.0
H858 H 0.49844 0.39484 0.86584 0.0
C859 C 0.47517 0.30191 0.05534 0.0
C860 C 0.45734 0.35156 0.98736 0.0
H861 H 0.46055 0.36983 0.84438 0.0
C862 C 0.45945 0.37031 0.0179 0.0
C863 C 0.45693 0.35148 0.92397 0.0
C864 C 0.45338 0.33212 0.88844 0.0
C865 C 0.46231 0.38877 0.9869 0.0
C866 C 0.46302 0.3885 0.9237 0.0
C867 C 0.46005 0.36994 0.89296 0.0
C868 C 0.46905 0.40692 0.88924 0.0
C869 C 0.4657 0.4083 0.02186 0.0
C870 C 0.45619 0.42381 0.88433 0.0
C871 C 0.46259 0.44131 0.85292 0.0
C872 C 0.482 0.44217 0.82627 0.0
C873 C 0.49472 0.42511 0.83145 0.0
C874 C 0.48828 0.40769 0.86234 0.0
H875 H 0.4667 0.40556 0.07087 0.0
H876 H 0.47992 0.41607 0.00679 0.0
H877 H 0.45293 0.41883 0.01345 0.0
H878 H 0.44124 0.42344 0.90471 0.0
H879 H 0.45238 0.45411 0.84957 0.0
H880 H 0.21189 0.47713 0.13134 0.0
H881 H 0.18652 0.46478 0.05854 0.0
H882 H 0.17109 0.52712 0.01761 0.0
H883 H 0.19652 0.53941 0.08913 0.0
H884 H 0.14565 0.47196 0.06992 0.0
H885 H 0.17274 0.50169 0.85217 0.0
H886 H 0.18914 0.49998 0.91677 0.0
H887 H 0.17243 0.52138 0.90823 0.0
C888 C 0.20358 0.48815 0.10513 0.0
C889 C 0.20618 0.50922 0.11566 0.0
C890 C 0.18898 0.48109 0.064 0.0
C891 C 0.17699 0.49502 0.03227 0.0
C892 C 0.18039 0.51607 0.04058 0.0
H893 H 0.05409 0.49334 0.91309 0.0
H894 H 0.08563 0.49284 0.97072 0.0
C895 C 0.19487 0.52309 0.08167 0.0
C896 C 0.15946 0.48786 0.99552 0.0
H897 H 0.13671 0.49456 0.85982 0.0
C898 C 0.14385 0.47657 0.0236 0.0
C899 C 0.15717 0.49365 0.93493 0.0
C900 C 0.17388 0.50466 0.9011 0.0
C901 C 0.12556 0.47188 0.99372 0.0
C902 C 0.12269 0.479 0.93456 0.0
C903 C 0.13876 0.4893 0.90545 0.0
C904 C 0.1029 0.47692 0.90284 0.0
C905 C 0.10945 0.45953 0.02606 0.0
C906 C 0.10202 0.46811 0.84551 0.0
C907 C 0.08405 0.46855 0.81219 0.0
C908 C 0.06655 0.47789 0.83543 0.0
C909 C 0.0672 0.48588 0.89397 0.0
C910 C 0.08524 0.48553 0.92714 0.0
H911 H 0.11624 0.44971 0.06113 0.0
H912 H 0.09877 0.47008 0.04852 0.0
H913 H 0.10066 0.44967 0.99457 0.0
H914 H 0.11545 0.46141 0.82577 0.0
H915 H 0.08411 0.4622 0.76734 0.0
H916 H 0.03345 0.8086 0.3018 0.0
H917 H 0.02274 0.8342 0.37458 0.0
H918 H 0.95992 0.8212 0.33196 0.0
H919 H 0.97068 0.79567 0.25785 0.0
H920 H 0.96956 0.8619 0.32271 0.0
H921 H 0.99722 0.83293 0.5395 0.0
H922 H 0.01691 0.83259 0.48389 0.0
H923 H 0.99454 0.81672 0.47427 0.0
C924 C 0.01734 0.81084 0.30905 0.0
C925 C 0.00289 0.80018 0.27423 0.0
C926 C 0.01122 0.82539 0.35093 0.0
C927 C 0.99052 0.8295 0.35919 0.0
C928 C 0.97597 0.81816 0.32656 0.0
H929 H 0.96676 0.92496 0.62522 0.0
H930 H 0.96261 0.89336 0.56772 0.0
C931 C 0.98211 0.80349 0.28464 0.0
C932 C 0.9845 0.84722 0.39661 0.0
H933 H 0.99317 0.86961 0.53254 0.0
C934 C 0.97434 0.86344 0.36901 0.0
C935 C 0.99047 0.84915 0.45721 0.0
C936 C 1.00019 0.83181 0.4906 0.0
C937 C 0.97116 0.88199 0.39923 0.0
C938 C 0.97867 0.88451 0.45819 0.0
C939 C 0.98765 0.86783 0.48702 0.0
C940 C 0.97866 0.90458 0.48955 0.0
C941 C 0.96006 0.8988 0.36733 0.0
C942 C 0.98874 0.92157 0.46435 0.0
C943 C 0.99105 0.93975 0.49696 0.0
C944 C 0.98356 0.9412 0.55584 0.0
C945 C 0.97277 0.9244 0.58006 0.0
C946 C 0.97039 0.90628 0.54729 0.0
H947 H 0.94949 0.89246 0.33298 0.0
H948 H 0.95127 0.9083 0.3992 0.0
H949 H 0.97127 0.90881 0.34401 0.0
H950 H 0.99567 0.92051 0.42044 0.0
H951 H 0.99956 0.95229 0.47703 0.0
H952 H 0.67933 0.97894 0.18425 0.0
H953 H 0.65404 0.97072 0.26125 0.0
H954 H 0.69417 0.99523 0.39703 0.0
H955 H 0.71964 0.00352 0.31953 0.0
H956 H 0.65393 0.94853 0.37595 0.0
H957 H 0.64272 0.03264 0.39481 0.0
H958 H 0.65649 0.02135 0.33337 0.0
H959 H 0.6681 0.02346 0.40587 0.0
C960 C 0.68296 0.98203 0.23077 0.0
C961 C 0.70131 0.99193 0.2462 0.0
C962 C 0.66854 0.97732 0.27465 0.0
C963 C 0.67215 0.9826 0.33461 0.0
C964 C 0.69109 0.99116 0.35082 0.0
H965 H 0.58238 0.96795 0.62245 0.0
H966 H 0.61335 0.96504 0.56236 0.0
C967 C 0.70564 0.99577 0.30678 0.0
C968 C 0.6551 0.98144 0.3779 0.0
H969 H 0.62059 0.01141 0.44967 0.0
C970 C 0.64677 0.96223 0.39287 0.0
C971 C 0.64563 0.99939 0.39884 0.0
C972 C 0.65352 0.02042 0.38229 0.0
C973 C 0.62904 0.96055 0.4279 0.0
C974 C 0.61949 0.97852 0.44816 0.0
C975 C 0.628 0.99768 0.43395 0.0
C976 C 0.60021 0.97799 0.48248 0.0
C977 C 0.62021 0.93966 0.44134 0.0
C978 C 0.58253 0.98604 0.45719 0.0
C979 C 0.56478 0.9877 0.49126 0.0
C980 C 0.56447 0.98156 0.55161 0.0
C981 C 0.58206 0.97283 0.57615 0.0
C982 C 0.59978 0.97108 0.54186 0.0
H983 H 0.62766 0.92744 0.41488 0.0
H984 H 0.62224 0.93627 0.48963 0.0
H985 H 0.60364 0.93927 0.43178 0.0
H986 H 0.58261 0.99151 0.41141 0.0
H987 H 0.55157 0.99452 0.47088 0.0
H988 H 0.4822 0.69216 0.29657 0.0
H989 H 0.49291 0.66664 0.36911 0.0
H990 H 0.55574 0.67971 0.32647 0.0
H991 H 0.54497 0.70517 0.25255 0.0
H992 H 0.54617 0.63887 0.31797 0.0
H993 H 0.51832 0.66881 0.53405 0.0
H994 H 0.49869 0.6689 0.47839 0.0
H995 H 0.52108 0.68472 0.46845 0.0
C996 C 0.49831 0.68993 0.30368 0.0
C997 C 0.51276 0.70061 0.26898 0.0
C998 C 0.50443 0.67544 0.34543 0.0
C999 C 0.52514 0.6714 0.35371 0.0
C1000 C 0.53968 0.6827 0.32105 0.0
H1001 H 0.54848 0.5772 0.6222 0.0
H1002 H 0.55274 0.60855 0.56399 0.0
C1003 C 0.53354 0.69732 0.27925 0.0
C1004 C 0.53117 0.65387 0.39152 0.0
H1005 H 0.52238 0.63211 0.52796 0.0
C1006 C 0.54135 0.63754 0.3643 0.0
C1007 C 0.52515 0.65222 0.45216 0.0
C1008 C 0.5154 0.66971 0.48512 0.0
C1009 C 0.54451 0.61912 0.39498 0.0
C1010 C 0.53695 0.61687 0.45399 0.0
C1011 C 0.52794 0.63368 0.48241 0.0
C1012 C 0.53691 0.59695 0.48583 0.0
C1013 C 0.55566 0.60218 0.3635 0.0
C1014 C 0.5269 0.57984 0.4609 0.0
C1015 C 0.52453 0.56181 0.49392 0.0
C1016 C 0.53189 0.56064 0.55293 0.0
C1017 C 0.54257 0.57756 0.57695 0.0
C1018 C 0.54502 0.59553 0.54376 0.0
H1019 H 0.5663 0.60838 0.32916 0.0
H1020 H 0.56438 0.59279 0.39563 0.0
H1021 H 0.54448 0.59209 0.34023 0.0
H1022 H 0.52007 0.58069 0.41686 0.0
H1023 H 0.51611 0.54915 0.47415 0.0
H1024 H 0.79937 0.50942 0.32019 0.0
H1025 H 0.8267 0.5133 0.39386 0.0
H1026 H 0.84747 0.56831 0.30509 0.0
H1027 H 0.82052 0.56392 0.23021 0.0
H1028 H 0.87707 0.54213 0.31363 0.0
H1029 H 0.84113 0.54742 0.53662 0.0
H1030 H 0.83151 0.5257 0.496 0.0
H1031 H 0.827 0.55111 0.46829 0.0
C1032 C 0.80925 0.5228 0.31816 0.0
C1033 C 0.80774 0.53655 0.27034 0.0
C1034 C 0.82489 0.52504 0.36024 0.0
C1035 C 0.8391 0.54123 0.35555 0.0
C1036 C 0.83668 0.55575 0.3099 0.0
H1037 H 0.95881 0.55071 0.5359 0.0
H1038 H 0.92817 0.56034 0.48034 0.0
C1039 C 0.8212 0.55337 0.26748 0.0
C1040 C 0.85799 0.54126 0.39222 0.0
H1041 H 0.87582 0.53531 0.53476 0.0
C1042 C 0.87679 0.54111 0.36211 0.0
C1043 C 0.85771 0.53988 0.45549 0.0
C1044 C 0.83824 0.54125 0.49095 0.0
C1045 C 0.89514 0.53857 0.39314 0.0
C1046 C 0.89472 0.53618 0.45598 0.0
C1047 C 0.87606 0.53708 0.48646 0.0
C1048 C 0.91323 0.53085 0.49002 0.0
C1049 C 0.91478 0.53741 0.35834 0.0
C1050 C 0.91491 0.51115 0.51379 0.0
C1051 C 0.93234 0.50557 0.54499 0.0
C1052 C 0.94848 0.51964 0.55364 0.0
C1053 C 0.94674 0.53947 0.52986 0.0
C1054 C 0.92925 0.54501 0.49818 0.0
H1055 H 0.91222 0.5372 0.30915 0.0
H1056 H 0.92452 0.55087 0.36945 0.0
H1057 H 0.92321 0.52347 0.37103 0.0
H1058 H 0.90274 0.5 0.50782 0.0
H1059 H 0.93302 0.4902 0.56282 0.0
loop_
_geom_bond_atom_site_label_1
_geom_bond_atom_site_label_2
_geom_bond_distance
_geom_bond_site_symmetry_2
_ccdc_geom_bond_type
H0 C7 0.929 . S
H1 C10 0.930 . S
H2 C12 0.929 . S
H3 C4 0.969 . S
C4 H3 0.969 . S
C4 O5 1.550 1_556 S
C4 H6 0.973 . S
O5 C4 1.550 1_554 S
O5 C11 1.412 . S
H6 C4 0.973 . S
C7 H0 0.929 . S
C7 C8 1.400 . S
C7 C9 1.364 . S
C8 C7 1.400 . S
C8 C12 1.377 . S
C9 C7 1.364 . S
C9 C10 1.374 1_554 S
C10 H1 0.930 . S
C10 C9 1.374 1_556 S
C10 C11 1.383 1_556 S
C11 O5 1.412 . S
C11 C10 1.383 1_554 S
C11 C12 1.394 . S
C12 H2 0.929 . S
C12 C8 1.377 . S
C12 C11 1.394 . S
H13 C20 0.930 . S
H14 C23 0.929 . S
H15 C25 0.928 . S
H16 C17 0.969 . S
C17 H16 0.969 . S
C17 O18 1.550 1_455 S
C17 H19 0.973 1_455 S
O18 C17 1.550 1_655 S
O18 C24 1.411 1_655 S
H19 C17 0.973 1_655 S
C20 H13 0.930 . S
C20 C21 1.400 . S
C20 C22 1.364 . S
C21 C20 1.400 . S
C21 C25 1.377 1_455 S
C22 C20 1.364 . S
C22 C23 1.374 1_455 S
C23 H14 0.929 . S
C23 C22 1.374 1_655 S
C23 C24 1.383 1_655 S
C24 O18 1.411 1_455 S
C24 C23 1.383 1_455 S
C24 C25 1.394 1_455 S
C25 H15 0.928 . S
C25 C21 1.377 1_655 S
C25 C24 1.394 1_655 S
H26 C33 0.929 . S
H27 C36 0.929 . S
H28 C38 0.928 1_565 S
H29 C30 0.969 . S
C30 H29 0.969 . S
C30 O31 1.550 1_545 S
C30 H32 0.973 1_544 S
O31 C30 1.550 1_565 S
O31 C37 1.407 1_565 S
H32 C30 0.973 1_566 S
C33 H26 0.929 . S
C33 C34 1.400 . S
C33 C35 1.364 . S
C34 C33 1.400 . S
C34 C38 1.376 . S
C35 C33 1.364 . S
C35 C36 1.374 1_545 S
C36 H27 0.929 . S
C36 C35 1.374 1_565 S
C36 C37 1.383 1_565 S
C37 O31 1.407 1_545 S
C37 C36 1.383 1_545 S
C37 C38 1.394 . S
C38 H28 0.928 1_545 S
C38 C34 1.376 . S
C38 C37 1.394 . S
H39 C46 0.929 . S
H40 C49 0.930 1_556 S
H41 C51 0.929 . S
H42 C43 0.969 . S
C43 H42 0.969 . S
C43 O44 1.550 . S
C43 H45 0.973 1_554 S
O44 C43 1.550 . S
O44 C50 1.412 . S
H45 C43 0.973 1_556 S
C46 H39 0.929 . S
C46 C47 1.400 . S
C46 C48 1.364 . S
C47 C46 1.400 . S
C47 C51 1.377 . S
C48 C46 1.364 . S
C48 C49 1.374 . S
C49 H40 0.930 1_554 S
C49 C48 1.374 . S
C49 C50 1.383 . S
C50 O44 1.412 . S
C50 C49 1.383 . S
C50 C51 1.394 . S
C51 H41 0.929 . S
C51 C47 1.377 . S
C51 C50 1.394 . S
H52 C59 0.929 . S
H53 C62 0.930 . S
H54 C64 0.929 . S
H55 C56 0.969 . S
C56 H55 0.969 . S
C56 O57 1.550 . S
C56 H58 0.973 . S
O57 C56 1.550 . S
O57 C63 1.412 . S
H58 C56 0.973 . S
C59 H52 0.929 . S
C59 C60 1.400 . S
C59 C61 1.364 . S
C60 C59 1.400 . S
C60 C64 1.377 . S
C61 C59 1.364 . S
C61 C62 1.374 . S
C62 H53 0.930 . S
C62 C61 1.374 . S
C62 C63 1.383 . S
C63 O57 1.412 . S
C63 C62 1.383 . S
C63 C64 1.394 . S
C64 H54 0.929 . S
C64 C60 1.377 . S
C64 C63 1.394 . S
H65 C72 0.929 . S
H66 C75 0.930 . S
H67 C77 0.929 . S
H68 C69 0.969 . S
C69 H68 0.969 . S
C69 O70 1.550 . S
C69 H71 0.973 . S
O70 C69 1.550 . S
O70 C76 1.412 . S
H71 C69 0.973 . S
C72 H65 0.929 . S
C72 C73 1.400 . S
C72 C74 1.364 . S
C73 C72 1.400 . S
C73 C77 1.377 . S
C74 C72 1.364 . S
C74 C75 1.374 . S
C75 H66 0.930 . S
C75 C74 1.374 . S
C75 C76 1.383 . S
C76 O70 1.412 . S
C76 C75 1.383 . S
C76 C77 1.394 . S
C77 H67 0.929 . S
C77 C73 1.377 . S
C77 C76 1.394 . S
H78 C85 0.929 . S
H79 C88 0.930 . S
H80 C90 0.929 . S
H81 C82 0.969 . S
C82 H81 0.969 . S
C82 O83 1.550 . S
C82 H84 0.973 . S
O83 C82 1.550 . S
O83 C89 1.412 . S
H84 C82 0.973 . S
C85 H78 0.929 . S
C85 C86 1.400 . S
C85 C87 1.364 . S
C86 C85 1.400 . S
C86 C90 1.377 . S
C87 C85 1.364 . S
C87 C88 1.374 . S
C88 H79 0.930 . S
C88 C87 1.374 . S
C88 C89 1.383 . S
C89 O83 1.412 . S
C89 C88 1.383 . S
C89 C90 1.394 . S
C90 H80 0.929 . S
C90 C86 1.377 . S
C90 C89 1.394 . S
H91 C98 0.929 . S
H92 C101 0.930 . S
H93 C103 0.929 . S
H94 C95 0.969 . S
C95 H94 0.969 . S
C95 O96 1.550 . S
C95 H97 0.973 . S
O96 C95 1.550 . S
O96 C102 1.412 . S
H97 C95 0.973 . S
C98 H91 0.929 . S
C98 C99 1.400 . S
C98 C100 1.364 . S
C99 C98 1.400 . S
C99 C103 1.377 . S
C100 C98 1.364 . S
C100 C101 1.374 . S
C101 H92 0.930 . S
C101 C100 1.374 . S
C101 C102 1.383 . S
C102 O96 1.412 . S
C102 C101 1.383 . S
C102 C103 1.394 . S
C103 H93 0.929 . S
C103 C99 1.377 . S
C103 C102 1.394 . S
O104 Zn105 1.956 . S
O104 C120 1.225 1_545 S
Zn105 O104 1.956 . S
Zn105 O106 1.948 1_545 S
Zn105 O112 1.950 . S
Zn105 O117 1.887 1_545 S
O106 Zn105 1.948 1_565 S
O106 Zn107 1.903 1_465 S
O106 Zn108 1.952 . S
O106 Zn109 1.963 1_455 S
Zn107 O106 1.903 1_645 S
Zn107 O110 1.933 . S
Zn107 O113 1.941 1_655 S
Zn107 O114 1.965 1_655 S
Zn108 O106 1.952 . S
Zn108 O115 1.938 1_565 S
Zn108 O116 1.906 . S
Zn108 O126 1.953 . S
Zn109 O106 1.963 1_655 S
Zn109 O111 1.932 . S
Zn109 O118 1.977 . S
Zn109 O119 1.910 1_655 S
O110 Zn107 1.933 . S
O110 C121 1.226 . S
O111 Zn109 1.932 . S
O111 C121 1.307 1_565 S
O112 Zn105 1.950 . S
O112 C123 1.253 . S
O113 Zn107 1.941 1_455 S
O113 C123 1.283 . S
O114 Zn107 1.965 1_455 S
O114 C122 1.303 . S
O115 Zn108 1.938 1_545 S
O115 C122 1.247 . S
O116 Zn108 1.906 . S
O116 C124 1.304 1_455 S
O117 Zn105 1.887 1_565 S
O117 C125 1.311 . S
O118 Zn109 1.977 . S
O118 C124 1.272 . S
O119 Zn109 1.910 1_455 S
O119 C125 1.231 . S
C120 O104 1.225 1_565 S
C120 O126 1.298 . S
C121 O110 1.226 . S
C121 O111 1.307 1_545 S
C122 O114 1.303 . S
C122 O115 1.247 . S
C123 O112 1.253 . S
C123 O113 1.283 . S
C124 O116 1.304 1_655 S
C124 O118 1.272 . S
C125 O117 1.311 . S
C125 O119 1.231 . S
O126 Zn108 1.953 . S
O126 C120 1.298 . S
O127 Zn128 1.953 . S
O127 C143 1.225 . S
Zn128 O127 1.953 . S
Zn128 O129 1.949 . S
Zn128 O135 1.919 . S
Zn128 O140 1.924 . S
O129 Zn128 1.949 . S
O129 Zn130 1.923 1_545 S
O129 Zn131 1.950 . S
O129 Zn132 1.945 1_545 S
Zn130 O129 1.923 1_565 S
Zn130 O133 1.933 . S
Zn130 O136 1.941 . S
Zn130 O137 1.965 . S
Zn131 O129 1.950 . S
Zn131 O138 1.938 . S
Zn131 O139 1.906 . S
Zn131 O149 1.953 . S
Zn132 O129 1.945 1_565 S
Zn132 O134 1.932 . S
Zn132 O141 1.977 . S
Zn132 O142 1.910 1_565 S
O133 Zn130 1.933 . S
O133 C144 1.226 . S
O134 Zn132 1.932 . S
O134 C144 1.307 . S
O135 Zn128 1.919 . S
O135 C146 1.253 . S
O136 Zn130 1.941 . S
O136 C146 1.283 1_565 S
O137 Zn130 1.965 . S
O137 C145 1.303 1_565 S
O138 Zn131 1.938 . S
O138 C145 1.247 . S
O139 Zn131 1.906 . S
O139 C147 1.304 1_545 S
O140 Zn128 1.924 . S
O140 C148 1.311 . S
O141 Zn132 1.977 . S
O141 C147 1.272 . S
O142 Zn132 1.910 1_545 S
O142 C148 1.231 . S
C143 O127 1.225 . S
C143 O149 1.298 . S
C144 O133 1.226 . S
C144 O134 1.307 . S
C145 O137 1.303 1_545 S
C145 O138 1.247 . S
C146 O135 1.253 . S
C146 O136 1.283 1_545 S
C147 O139 1.304 1_565 S
C147 O141 1.272 . S
C148 O140 1.311 . S
C148 O142 1.231 . S
O149 Zn131 1.953 . S
O149 C143 1.298 . S
O150 Zn151 1.953 . S
O150 C166 1.225 . S
Zn151 O150 1.953 . S
Zn151 O152 1.949 . S
Zn151 O158 1.919 . S
Zn151 O163 1.924 . S
O152 Zn151 1.949 . S
O152 Zn153 1.923 . S
O152 Zn154 1.950 . S
O152 Zn155 1.945 . S
Zn153 O152 1.923 . S
Zn153 O156 1.933 . S
Zn153 O159 1.941 . S
Zn153 O160 1.965 . S
Zn154 O152 1.950 . S
Zn154 O161 1.938 . S
Zn154 O162 1.906 . S
Zn154 O172 1.953 . S
Zn155 O152 1.945 . S
Zn155 O157 1.932 . S
Zn155 O164 1.977 . S
Zn155 O165 1.910 . S
O156 Zn153 1.933 . S
O156 C167 1.226 . S
O157 Zn155 1.932 . S
O157 C167 1.307 . S
O158 Zn151 1.919 . S
O158 C169 1.253 . S
O159 Zn153 1.941 . S
O159 C169 1.283 . S
O160 Zn153 1.965 . S
O160 C168 1.303 . S
O161 Zn154 1.938 . S
O161 C168 1.247 . S
O162 Zn154 1.906 . S
O162 C170 1.304 . S
O163 Zn151 1.924 . S
O163 C171 1.311 . S
O164 Zn155 1.977 . S
O164 C170 1.272 . S
O165 Zn155 1.910 . S
O165 C171 1.231 . S
C166 O150 1.225 . S
C166 O172 1.298 . S
C167 O156 1.226 . S
C167 O157 1.307 . S
C168 O160 1.303 . S
C168 O161 1.247 . S
C169 O158 1.253 . S
C169 O159 1.283 . S
C170 O162 1.304 . S
C170 O164 1.272 . S
C171 O163 1.311 . S
C171 O165 1.231 . S
O172 Zn154 1.953 . S
O172 C166 1.298 . S
O173 Zn174 1.926 1_655 S
O173 C189 1.225 . S
Zn174 O173 1.926 1_455 S
Zn174 O175 1.949 . S
Zn174 O181 1.919 . S
Zn174 O186 1.953 . S
O175 Zn174 1.949 . S
O175 Zn176 1.918 1_455 S
O175 Zn177 1.929 1_455 S
O175 Zn178 1.973 . S
Zn176 O175 1.918 1_655 S
Zn176 O179 1.933 1_655 S
Zn176 O182 1.941 . S
Zn176 O183 1.965 . S
Zn177 O175 1.929 1_655 S
Zn177 O184 1.938 . S
Zn177 O185 1.906 . S
Zn177 O195 1.953 . S
Zn178 O175 1.973 . S
Zn178 O180 1.932 . S
Zn178 O187 1.977 . S
Zn178 O188 1.910 . S
O179 Zn176 1.933 1_455 S
O179 C190 1.226 . S
O180 Zn178 1.932 . S
O180 C190 1.307 . S
O181 Zn174 1.919 . S
O181 C192 1.252 . S
O182 Zn176 1.941 . S
O182 C192 1.284 1_655 S
O183 Zn176 1.965 . S
O183 C191 1.303 . S
O184 Zn177 1.938 . S
O184 C191 1.247 . S
O185 Zn177 1.906 . S
O185 C193 1.304 1_655 S
O186 Zn174 1.953 . S
O186 C194 1.311 . S
O187 Zn178 1.977 . S
O187 C193 1.272 . S
O188 Zn178 1.910 . S
O188 C194 1.231 . S
C189 O173 1.225 . S
C189 O195 1.298 . S
C190 O179 1.226 . S
C190 O180 1.307 . S
C191 O183 1.303 . S
C191 O184 1.247 . S
C192 O181 1.252 . S
C192 O182 1.284 1_455 S
C193 O185 1.304 1_455 S
C193 O187 1.272 . S
C194 O186 1.311 . S
C194 O188 1.231 . S
O195 Zn177 1.953 . S
O195 C189 1.298 . S
H196 C204 0.929 . S
H197 C206 0.930 . S
H198 C208 0.930 . S
H199 C211 0.929 . S
H200 C214 0.930 . S
H201 C216 0.960 . S
H202 C216 0.960 1_545 S
H203 C216 0.960 . S
C204 H196 0.929 . S
C204 C205 1.377 . S
C204 C206 1.384 . S
C205 C204 1.377 . S
C205 C211 1.390 1_545 S
C206 H197 0.930 . S
C206 C204 1.384 . S
C206 C207 1.372 . S
C207 C206 1.372 . S
C207 C208 1.400 1_545 S
C207 C212 1.490 . S
C208 H198 0.930 . S
C208 C207 1.400 1_565 S
C208 C211 1.386 . S
H209 C225 0.930 . S
H210 C226 0.931 . S
C211 H199 0.929 . S
C211 C205 1.390 1_565 S
C211 C208 1.386 . S
C212 C207 1.490 . S
C212 C214 1.395 . S
C212 C215 1.404 . S
H213 C219 0.943 . S
C214 H200 0.930 . S
C214 C212 1.395 . S
C214 C217 1.403 . S
C215 C212 1.404 . S
C215 C216 1.522 1_545 S
C215 C219 1.399 1_545 S
C216 H201 0.960 . S
C216 H202 0.960 1_565 S
C216 H203 0.960 . S
C216 C215 1.522 1_565 S
C217 C214 1.403 . S
C217 C218 1.392 . S
C217 C221 1.495 . S
C218 C217 1.392 . S
C218 C219 1.376 1_545 S
C218 C220 1.478 . S
C219 H213 0.943 . S
C219 C215 1.399 1_565 S
C219 C218 1.376 1_565 S
C220 C218 1.478 . S
C220 C222 1.381 . S
C220 C226 1.383 1_545 S
C221 C217 1.495 . S
C221 H227 0.959 . S
C221 H228 0.961 . S
C221 H229 0.960 . S
C222 C220 1.381 . S
C222 C223 1.394 . S
C222 H230 0.930 . S
C223 C222 1.394 . S
C223 C224 1.334 1_545 S
C223 H231 0.929 . S
C224 C223 1.334 1_565 S
C224 C225 1.423 . S
C225 H209 0.930 . S
C225 C224 1.423 . S
C225 C226 1.379 . S
C226 H210 0.931 . S
C226 C220 1.383 1_565 S
C226 C225 1.379 . S
H227 C221 0.959 . S
H228 C221 0.961 . S
H229 C221 0.960 . S
H230 C222 0.930 . S
H231 C223 0.929 . S
H232 C240 0.929 . S
H233 C242 0.930 . S
H234 C244 0.930 . S
H235 C247 0.929 . S
H236 C250 0.930 . S
H237 C252 0.960 . S
H238 C252 0.960 . S
H239 C252 0.960 . S
C240 H232 0.929 . S
C240 C241 1.377 . S
C240 C242 1.384 . S
C241 C240 1.377 . S
C241 C247 1.390 . S
C242 H233 0.930 . S
C242 C240 1.384 . S
C242 C243 1.372 . S
C243 C242 1.372 . S
C243 C244 1.400 . S
C243 C248 1.490 . S
C244 H234 0.930 . S
C244 C243 1.400 . S
C244 C247 1.386 . S
H245 C261 0.930 . S
H246 C262 0.931 . S
C247 H235 0.929 . S
C247 C241 1.390 . S
C247 C244 1.386 . S
C248 C243 1.490 . S
C248 C250 1.395 . S
C248 C251 1.403 . S
H249 C255 0.930 . S
C250 H236 0.930 . S
C250 C248 1.395 . S
C250 C253 1.403 . S
C251 C248 1.403 . S
C251 C252 1.524 . S
C251 C255 1.400 . S
C252 H237 0.960 . S
C252 H238 0.960 . S
C252 H239 0.960 . S
C252 C251 1.524 . S
C253 C250 1.403 . S
C253 C254 1.392 . S
C253 C257 1.495 . S
C254 C253 1.392 . S
C254 C255 1.385 . S
C254 C256 1.478 . S
C255 H249 0.930 . S
C255 C251 1.400 . S
C255 C254 1.385 . S
C256 C254 1.478 . S
C256 C258 1.381 . S
C256 C262 1.383 . S
C257 C253 1.495 . S
C257 H263 0.959 . S
C257 H264 0.961 . S
C257 H265 0.960 . S
C258 C256 1.381 . S
C258 C259 1.394 . S
C258 H266 0.930 . S
C259 C258 1.394 . S
C259 C260 1.383 . S
C259 H267 0.929 . S
C260 C259 1.383 . S
C260 C261 1.377 . S
C261 H245 0.930 . S
C261 C260 1.377 . S
C261 C262 1.379 . S
C262 H246 0.931 . S
C262 C256 1.383 . S
C262 C261 1.379 . S
H263 C257 0.959 . S
H264 C257 0.961 . S
H265 C257 0.960 . S
H266 C258 0.930 . S
H267 C259 0.929 . S
H268 C276 0.929 . S
H269 C278 0.930 . S
H270 C280 0.930 . S
H271 C283 0.929 . S
H272 C286 0.930 . S
H273 C288 0.960 . S
H274 C288 0.960 . S
H275 C288 0.960 . S
C276 H268 0.929 . S
C276 C277 1.377 . S
C276 C278 1.384 . S
C277 C276 1.377 . S
C277 C283 1.390 . S
C278 H269 0.930 . S
C278 C276 1.384 . S
C278 C279 1.372 . S
C279 C278 1.372 . S
C279 C280 1.400 . S
C279 C284 1.490 . S
C280 H270 0.930 . S
C280 C279 1.400 . S
C280 C283 1.386 . S
H281 C297 0.930 . S
H282 C298 0.931 . S
C283 H271 0.929 . S
C283 C277 1.390 . S
C283 C280 1.386 . S
C284 C279 1.490 . S
C284 C286 1.395 . S
C284 C287 1.403 . S
H285 C291 0.930 . S
C286 H272 0.930 . S
C286 C284 1.395 . S
C286 C289 1.403 . S
C287 C284 1.403 . S
C287 C288 1.524 . S
C287 C291 1.400 . S
C288 H273 0.960 . S
C288 H274 0.960 . S
C288 H275 0.960 . S
C288 C287 1.524 . S
C289 C286 1.403 . S
C289 C290 1.392 . S
C289 C293 1.495 . S
C290 C289 1.392 . S
C290 C291 1.385 . S
C290 C292 1.478 . S
C291 H285 0.930 . S
C291 C287 1.400 . S
C291 C290 1.385 . S
C292 C290 1.478 . S
C292 C294 1.381 . S
C292 C298 1.383 . S
C293 C289 1.495 . S
C293 H299 0.959 . S
C293 H300 0.961 . S
C293 H301 0.960 . S
C294 C292 1.381 . S
C294 C295 1.394 . S
C294 H302 0.930 . S
C295 C294 1.394 . S
C295 C296 1.383 . S
C295 H303 0.929 . S
C296 C295 1.383 . S
C296 C297 1.377 . S
C297 H281 0.930 . S
C297 C296 1.377 . S
C297 C298 1.379 . S
C298 H282 0.931 . S
C298 C292 1.383 . S
C298 C297 1.379 . S
H299 C293 0.959 . S
H300 C293 0.961 . S
H301 C293 0.960 . S
H302 C294 0.930 . S
H303 C295 0.929 . S
H304 C312 0.929 . S
H305 C314 0.930 . S
H306 C316 0.930 . S
H307 C319 0.929 . S
H308 C322 0.944 . S
H309 C324 0.960 . S
H310 C324 0.960 . S
H311 C324 0.960 . S
C312 H304 0.929 . S
C312 C313 1.377 . S
C312 C314 1.384 . S
C313 C312 1.377 . S
C313 C319 1.390 . S
C314 H305 0.930 . S
C314 C312 1.384 . S
C314 C315 1.372 . S
C315 C314 1.372 . S
C315 C316 1.400 . S
C315 C320 1.490 . S
C316 H306 0.930 . S
C316 C315 1.400 . S
C316 C319 1.386 . S
H317 C333 0.930 . S
H318 C334 0.931 . S
C319 H307 0.929 . S
C319 C313 1.390 . S
C319 C316 1.386 . S
C320 C315 1.490 . S
C320 C322 1.395 . S
C320 C323 1.403 . S
H321 C327 0.930 . S
C322 H308 0.944 . S
C322 C320 1.395 . S
C322 C325 1.403 . S
C323 C320 1.403 . S
C323 C324 1.524 . S
C323 C327 1.400 . S
C324 H309 0.960 . S
C324 H310 0.960 . S
C324 H311 0.960 . S
C324 C323 1.524 . S
C325 C322 1.403 . S
C325 C326 1.392 . S
C325 C329 1.495 1_455 S
C326 C325 1.392 . S
C326 C327 1.385 . S
C326 C328 1.478 . S
C327 H321 0.930 . S
C327 C323 1.400 . S
C327 C326 1.385 . S
C328 C326 1.478 . S
C328 C330 1.381 1_455 S
C328 C334 1.383 . S
C329 C325 1.495 1_655 S
C329 H335 0.959 . S
C329 H336 0.961 . S
C329 H337 0.960 . S
C330 C328 1.381 1_655 S
C330 C331 1.394 . S
C330 H338 0.930 . S
C331 C330 1.394 . S
C331 C332 1.383 1_655 S
C331 H339 0.929 . S
C332 C331 1.383 1_455 S
C332 C333 1.377 . S
C333 H317 0.930 . S
C333 C332 1.377 . S
C333 C334 1.379 . S
C334 H318 0.931 . S
C334 C328 1.383 . S
C334 C333 1.379 . S
H335 C329 0.959 . S
H336 C329 0.961 . S
H337 C329 0.960 . S
H338 C330 0.930 . S
H339 C331 0.929 . S
H340 C348 0.929 . S
H341 C350 0.930 . S
H342 C352 0.934 . S
H343 C355 0.934 . S
H344 C358 0.930 . S
H345 C360 0.960 . S
H346 C360 0.960 . S
H347 C360 0.960 1_554 S
C348 H340 0.929 . S
C348 C349 1.380 1_556 S
C348 C350 1.384 . S
C349 C348 1.380 1_554 S
C349 C355 1.387 1_565 S
C350 H341 0.930 . S
C350 C348 1.384 . S
C350 C351 1.372 . S
C351 C350 1.372 . S
C351 C352 1.398 1_566 S
C351 C356 1.489 1_565 S
C352 H342 0.934 . S
C352 C351 1.398 1_544 S
C352 C355 1.386 . S
H353 C369 0.930 . S
H354 C370 0.931 . S
C355 H343 0.934 . S
C355 C349 1.387 1_545 S
C355 C352 1.386 . S
C356 C351 1.489 1_545 S
C356 C358 1.426 . S
C356 C359 1.373 1_545 S
H357 C363 0.930 . S
C358 H344 0.930 . S
C358 C356 1.426 . S
C358 C361 1.403 . S
C359 C356 1.373 1_565 S
C359 C360 1.524 . S
C359 C363 1.400 . S
C360 H345 0.960 . S
C360 H346 0.960 . S
C360 H347 0.960 1_556 S
C360 C359 1.524 . S
C361 C358 1.403 . S
C361 C362 1.392 . S
C361 C365 1.495 . S
C362 C361 1.392 . S
C362 C363 1.385 1_545 S
C362 C364 1.478 . S
C363 H357 0.930 . S
C363 C359 1.400 . S
C363 C362 1.385 1_565 S
C364 C362 1.478 . S
C364 C366 1.391 . S
C364 C370 1.383 . S
C365 C361 1.495 . S
C365 H371 0.959 . S
C365 H372 0.961 . S
C365 H373 0.960 . S
C366 C364 1.391 . S
C366 C367 1.392 1_545 S
C366 H374 0.925 1_545 S
C367 C366 1.392 1_565 S
C367 C368 1.384 1_565 S
C367 H375 0.929 . S
C368 C367 1.384 1_545 S
C368 C369 1.377 . S
C369 H353 0.930 . S
C369 C368 1.377 . S
C369 C370 1.379 . S
C370 H354 0.931 . S
C370 C364 1.383 . S
C370 C369 1.379 . S
H371 C365 0.959 . S
H372 C365 0.961 . S
H373 C365 0.960 . S
H374 C366 0.925 1_565 S
H375 C367 0.929 . S
H376 C384 0.929 . S
H377 C386 0.930 . S
H378 C388 0.930 . S
H379 C391 0.929 . S
H380 C394 0.930 . S
H381 C396 0.960 . S
H382 C396 0.960 . S
H383 C396 0.960 . S
C384 H376 0.929 . S
C384 C385 1.382 . S
C384 C386 1.384 . S
C385 C384 1.382 . S
C385 C391 1.381 1_554 S
C386 H377 0.930 . S
C386 C384 1.384 . S
C386 C387 1.372 1_554 S
C387 C386 1.372 1_556 S
C387 C388 1.400 . S
C387 C392 1.490 . S
C388 H378 0.930 . S
C388 C387 1.400 . S
C388 C391 1.386 . S
H389 C405 0.930 . S
H390 C406 0.931 . S
C391 H379 0.929 . S
C391 C385 1.381 1_556 S
C391 C388 1.386 . S
C392 C387 1.490 . S
C392 C394 1.395 . S
C392 C395 1.403 . S
H393 C399 0.930 . S
C394 H380 0.930 . S
C394 C392 1.395 . S
C394 C397 1.403 . S
C395 C392 1.403 . S
C395 C396 1.524 . S
C395 C399 1.400 . S
C396 H381 0.960 . S
C396 H382 0.960 . S
C396 H383 0.960 . S
C396 C395 1.524 . S
C397 C394 1.403 . S
C397 C398 1.392 . S
C397 C401 1.495 . S
C398 C397 1.392 . S
C398 C399 1.385 . S
C398 C400 1.478 . S
C399 H393 0.930 . S
C399 C395 1.400 . S
C399 C398 1.385 . S
C400 C398 1.478 . S
C400 C402 1.381 . S
C400 C406 1.383 . S
C401 C397 1.495 . S
C401 H407 0.959 . S
C401 H408 0.961 . S
C401 H409 0.960 . S
C402 C400 1.381 . S
C402 C403 1.394 . S
C402 H410 0.930 . S
C403 C402 1.394 . S
C403 C404 1.383 . S
C403 H411 0.929 . S
C404 C403 1.383 . S
C404 C405 1.377 . S
C405 H389 0.930 . S
C405 C404 1.377 . S
C405 C406 1.379 . S
C406 H390 0.931 . S
C406 C400 1.383 . S
C406 C405 1.379 . S
H407 C401 0.959 . S
H408 C401 0.961 . S
H409 C401 0.960 . S
H410 C402 0.930 . S
H411 C403 0.929 . S
H412 C420 0.929 . S
H413 C422 0.930 . S
H414 C424 0.930 . S
H415 C427 0.929 . S
H416 C430 0.930 . S
H417 C432 0.960 . S
H418 C432 0.960 . S
H419 C432 0.960 . S
C420 H412 0.929 . S
C420 C421 1.377 1_554 S
C420 C422 1.384 1_554 S
C421 C420 1.377 1_556 S
C421 C427 1.390 . S
C422 H413 0.930 . S
C422 C420 1.384 1_556 S
C422 C423 1.372 . S
C423 C422 1.372 . S
C423 C424 1.400 . S
C423 C428 1.490 . S
C424 H414 0.930 . S
C424 C423 1.400 . S
C424 C427 1.386 . S
H425 C441 0.930 . S
H426 C442 0.931 . S
C427 H415 0.929 . S
C427 C421 1.390 . S
C427 C424 1.386 . S
C428 C423 1.490 . S
C428 C430 1.395 . S
C428 C431 1.403 . S
H429 C435 0.930 . S
C430 H416 0.930 . S
C430 C428 1.395 . S
C430 C433 1.403 . S
C431 C428 1.403 . S
C431 C432 1.524 . S
C431 C435 1.400 . S
C432 H417 0.960 . S
C432 H418 0.960 . S
C432 H419 0.960 . S
C432 C431 1.524 . S
C433 C430 1.403 . S
C433 C434 1.392 . S
C433 C437 1.495 . S
C434 C433 1.392 . S
C434 C435 1.385 . S
C434 C436 1.478 . S
C435 H429 0.930 . S
C435 C431 1.400 . S
C435 C434 1.385 . S
C436 C434 1.478 . S
C436 C438 1.381 . S
C436 C442 1.383 . S
C437 C433 1.495 . S
C437 H443 0.959 . S
C437 H444 0.961 . S
C437 H445 0.960 . S
C438 C436 1.381 . S
C438 C439 1.394 . S
C438 H446 0.930 . S
C439 C438 1.394 . S
C439 C440 1.383 . S
C439 H447 0.929 . S
C440 C439 1.383 . S
C440 C441 1.377 . S
C441 H425 0.930 . S
C441 C440 1.377 . S
C441 C442 1.379 . S
C442 H426 0.931 . S
C442 C436 1.383 . S
C442 C441 1.379 . S
H443 C437 0.959 . S
H444 C437 0.961 . S
H445 C437 0.960 . S
H446 C438 0.930 . S
H447 C439 0.929 . S
H448 C456 0.929 . S
H449 C458 0.930 1_556 S
H450 C460 0.930 1_556 S
H451 C463 0.929 . S
H452 C466 0.930 . S
H453 C468 0.960 . S
H454 C468 0.960 . S
H455 C468 0.960 . S
C456 H448 0.929 . S
C456 C457 1.377 . S
C456 C458 1.384 . S
C457 C456 1.377 . S
C457 C463 1.390 1_655 S
C458 H449 0.930 1_554 S
C458 C456 1.384 . S
C458 C459 1.372 1_554 S
C459 C458 1.372 1_556 S
C459 C460 1.400 1_656 S
C459 C464 1.492 . S
C460 H450 0.930 1_554 S
C460 C459 1.400 1_454 S
C460 C463 1.386 . S
H461 C477 0.930 . S
H462 C478 0.931 . S
C463 H451 0.929 . S
C463 C457 1.390 1_455 S
C463 C460 1.386 . S
C464 C459 1.492 . S
C464 C466 1.420 . S
C464 C467 1.379 1_655 S
H465 C471 0.930 . S
C466 H452 0.930 . S
C466 C464 1.420 . S
C466 C469 1.403 . S
C467 C464 1.379 1_455 S
C467 C468 1.524 1_556 S
C467 C471 1.400 . S
C468 H453 0.960 . S
C468 H454 0.960 . S
C468 H455 0.960 . S
C468 C467 1.524 1_554 S
C469 C466 1.403 . S
C469 C470 1.417 . S
C469 C473 1.495 . S
C470 C469 1.417 . S
C470 C471 1.364 1_655 S
C470 C472 1.475 1_655 S
C471 H465 0.930 . S
C471 C467 1.400 . S
C471 C470 1.364 1_455 S
C472 C470 1.475 1_455 S
C472 C474 1.376 1_455 S
C472 C478 1.388 . S
C473 C469 1.495 . S
C473 H479 0.959 . S
C473 H480 0.961 . S
C473 H481 0.960 . S
C474 C472 1.376 1_655 S
C474 C475 1.394 . S
C474 H482 0.930 . S
C475 C474 1.394 . S
C475 C476 1.383 1_655 S
C475 H483 0.929 . S
C476 C475 1.383 1_455 S
C476 C477 1.377 . S
C477 H461 0.930 . S
C477 C476 1.377 . S
C477 C478 1.379 . S
C478 H462 0.931 . S
C478 C472 1.388 . S
C478 C477 1.379 . S
H479 C473 0.959 . S
H480 C473 0.961 . S
H481 C473 0.960 . S
H482 C474 0.930 . S
H483 C475 0.929 . S
H484 C492 0.929 . S
H485 C494 0.930 . S
H486 C496 0.930 . S
H487 C499 0.929 . S
H488 C502 0.930 . S
H489 C504 0.960 . S
H490 C504 0.960 . S
H491 C504 0.960 . S
C492 H484 0.929 . S
C492 C493 1.377 . S
C492 C494 1.384 . S
C493 C492 1.377 . S
C493 C499 1.390 . S
C494 H485 0.930 . S
C494 C492 1.384 . S
C494 C495 1.372 . S
C495 C494 1.372 . S
C495 C496 1.400 . S
C495 C500 1.490 . S
C496 H486 0.930 . S
C496 C495 1.400 . S
C496 C499 1.386 . S
H497 C513 0.930 1_655 S
H498 C514 0.931 1_655 S
C499 H487 0.929 . S
C499 C493 1.390 . S
C499 C496 1.386 . S
C500 C495 1.490 . S
C500 C502 1.395 . S
C500 C503 1.403 . S
H501 C507 0.930 . S
C502 H488 0.930 . S
C502 C500 1.395 . S
C502 C505 1.403 . S
C503 C500 1.403 . S
C503 C504 1.524 . S
C503 C507 1.400 . S
C504 H489 0.960 . S
C504 H490 0.960 . S
C504 H491 0.960 . S
C504 C503 1.524 . S
C505 C502 1.403 . S
C505 C506 1.392 . S
C505 C509 1.495 . S
C506 C505 1.392 . S
C506 C507 1.385 . S
C506 C508 1.478 . S
C507 H501 0.930 . S
C507 C503 1.400 . S
C507 C506 1.385 . S
C508 C506 1.478 . S
C508 C510 1.381 . S
C508 C514 1.383 . S
C509 C505 1.495 . S
C509 H515 0.959 . S
C509 H516 0.961 . S
C509 H517 0.960 . S
C510 C508 1.381 . S
C510 C511 1.394 . S
C510 H518 0.930 . S
C511 C510 1.394 . S
C511 C512 1.383 . S
C511 H519 0.929 . S
C512 C511 1.383 . S
C512 C513 1.377 . S
C513 H497 0.930 1_455 S
C513 C512 1.377 . S
C513 C514 1.379 . S
C514 H498 0.931 1_455 S
C514 C508 1.383 . S
C514 C513 1.379 . S
H515 C509 0.959 . S
H516 C509 0.961 . S
H517 C509 0.960 . S
H518 C510 0.930 . S
H519 C511 0.929 . S
H520 C528 0.929 . S
H521 C530 0.930 . S
H522 C532 0.930 . S
H523 C535 0.929 . S
H524 C538 0.930 . S
H525 C540 0.960 . S
H526 C540 0.967 . S
H527 C540 0.960 . S
C528 H520 0.929 . S
C528 C529 1.377 . S
C528 C530 1.384 . S
C529 C528 1.377 . S
C529 C535 1.390 1_545 S
C530 H521 0.930 . S
C530 C528 1.384 . S
C530 C531 1.372 . S
C531 C530 1.372 . S
C531 C532 1.400 1_545 S
C531 C536 1.490 . S
C532 H522 0.930 . S
C532 C531 1.400 1_565 S
C532 C535 1.386 . S
H533 C549 0.930 . S
H534 C550 0.931 . S
C535 H523 0.929 . S
C535 C529 1.390 1_565 S
C535 C532 1.386 . S
C536 C531 1.490 . S
C536 C538 1.395 . S
C536 C539 1.409 . S
H537 C543 0.911 1_565 S
C538 H524 0.930 . S
C538 C536 1.395 . S
C538 C541 1.403 . S
C539 C536 1.409 . S
C539 C540 1.518 1_545 S
C539 C543 1.400 . S
C540 H525 0.960 . S
C540 H526 0.967 . S
C540 H527 0.960 . S
C540 C539 1.518 1_565 S
C541 C538 1.403 . S
C541 C542 1.392 . S
C541 C545 1.495 . S
C542 C541 1.392 . S
C542 C543 1.405 . S
C542 C544 1.478 . S
C543 H537 0.911 1_545 S
C543 C539 1.400 . S
C543 C542 1.405 . S
C544 C542 1.478 . S
C544 C546 1.381 . S
C544 C550 1.383 1_545 S
C545 C541 1.495 . S
C545 H551 0.959 . S
C545 H552 0.961 . S
C545 H553 0.960 . S
C546 C544 1.381 . S
C546 C547 1.394 . S
C546 H554 0.930 . S
C547 C546 1.394 . S
C547 C548 1.383 . S
C547 H555 0.929 . S
C548 C547 1.383 . S
C548 C549 1.377 1_545 S
C549 H533 0.930 . S
C549 C548 1.377 1_565 S
C549 C550 1.379 . S
C550 H534 0.931 . S
C550 C544 1.383 1_565 S
C550 C549 1.379 . S
H551 C545 0.959 . S
H552 C545 0.961 . S
H553 C545 0.960 . S
H554 C546 0.930 . S
H555 C547 0.929 . S
H556 C564 0.929 . S
H557 C566 0.930 . S
H558 C568 0.930 . S
H559 C571 0.929 . S
H560 C574 0.930 . S
H561 C576 0.960 . S
H562 C576 0.960 . S
H563 C576 0.960 . S
C564 H556 0.929 . S
C564 C565 1.377 . S
C564 C566 1.384 . S
C565 C564 1.377 . S
C565 C571 1.390 . S
C566 H557 0.930 . S
C566 C564 1.384 . S
C566 C567 1.372 . S
C567 C566 1.372 . S
C567 C568 1.400 . S
C567 C572 1.490 . S
C568 H558 0.930 . S
C568 C567 1.400 . S
C568 C571 1.386 . S
H569 C585 0.930 . S
H570 C586 0.931 . S
C571 H559 0.929 . S
C571 C565 1.390 . S
C571 C568 1.386 . S
C572 C567 1.490 . S
C572 C574 1.395 . S
C572 C575 1.403 . S
H573 C579 0.930 . S
C574 H560 0.930 . S
C574 C572 1.395 . S
C574 C577 1.403 . S
C575 C572 1.403 . S
C575 C576 1.524 . S
C575 C579 1.400 . S
C576 H561 0.960 . S
C576 H562 0.960 . S
C576 H563 0.960 . S
C576 C575 1.524 . S
C577 C574 1.403 . S
C577 C578 1.392 . S
C577 C581 1.495 . S
C578 C577 1.392 . S
C578 C579 1.385 . S
C578 C580 1.478 . S
C579 H573 0.930 . S
C579 C575 1.400 . S
C579 C578 1.385 . S
C580 C578 1.478 . S
C580 C582 1.381 . S
C580 C586 1.383 . S
C581 C577 1.495 . S
C581 H587 0.959 . S
C581 H588 0.961 . S
C581 H589 0.960 . S
C582 C580 1.381 . S
C582 C583 1.394 . S
C582 H590 0.930 . S
C583 C582 1.394 . S
C583 C584 1.383 . S
C583 H591 0.929 . S
C584 C583 1.383 . S
C584 C585 1.377 . S
C585 H569 0.930 . S
C585 C584 1.377 . S
C585 C586 1.379 . S
C586 H570 0.931 . S
C586 C580 1.383 . S
C586 C585 1.379 . S
H587 C581 0.959 . S
H588 C581 0.961 . S
H589 C581 0.960 . S
H590 C582 0.930 . S
H591 C583 0.929 . S
H592 C600 0.929 . S
H593 C602 0.930 . S
H594 C604 0.930 . S
H595 C607 0.929 . S
H596 C610 0.930 . S
H597 C612 0.960 . S
H598 C612 0.960 . S
H599 C612 0.960 . S
C600 H592 0.929 . S
C600 C601 1.377 . S
C600 C602 1.384 . S
C601 C600 1.377 . S
C601 C607 1.390 . S
C602 H593 0.930 . S
C602 C600 1.384 . S
C602 C603 1.372 . S
C603 C602 1.372 . S
C603 C604 1.400 . S
C603 C608 1.490 . S
C604 H594 0.930 . S
C604 C603 1.400 . S
C604 C607 1.386 . S
H605 C621 0.930 . S
H606 C622 0.931 . S
C607 H595 0.929 . S
C607 C601 1.390 . S
C607 C604 1.386 . S
C608 C603 1.490 . S
C608 C610 1.395 . S
C608 C611 1.403 . S
H609 C615 0.930 . S
C610 H596 0.930 . S
C610 C608 1.395 . S
C610 C613 1.403 . S
C611 C608 1.403 . S
C611 C612 1.524 . S
C611 C615 1.400 . S
C612 H597 0.960 . S
C612 H598 0.960 . S
C612 H599 0.960 . S
C612 C611 1.524 . S
C613 C610 1.403 . S
C613 C614 1.392 . S
C613 C617 1.495 . S
C614 C613 1.392 . S
C614 C615 1.385 . S
C614 C616 1.478 . S
C615 H609 0.930 . S
C615 C611 1.400 . S
C615 C614 1.385 . S
C616 C614 1.478 . S
C616 C618 1.381 . S
C616 C622 1.383 . S
C617 C613 1.495 . S
C617 H623 0.959 . S
C617 H624 0.961 . S
C617 H625 0.960 . S
C618 C616 1.381 . S
C618 C619 1.394 . S
C618 H626 0.930 . S
C619 C618 1.394 . S
C619 C620 1.383 . S
C619 H627 0.929 . S
C620 C619 1.383 . S
C620 C621 1.377 . S
C621 H605 0.930 . S
C621 C620 1.377 . S
C621 C622 1.379 . S
C622 H606 0.931 . S
C622 C616 1.383 . S
C622 C621 1.379 . S
H623 C617 0.959 . S
H624 C617 0.961 . S
H625 C617 0.960 . S
H626 C618 0.930 . S
H627 C619 0.929 . S
H628 C636 0.929 . S
H629 C638 0.930 . S
H630 C640 0.930 . S
H631 C643 0.929 . S
H632 C646 0.934 . S
H633 C648 0.960 . S
H634 C648 0.960 . S
H635 C648 0.960 . S
C636 H628 0.929 . S
C636 C637 1.388 . S
C636 C638 1.384 1_554 S
C637 C636 1.388 . S
C637 C643 1.376 1_655 S
C638 H629 0.930 . S
C638 C636 1.384 1_556 S
C638 C639 1.372 1_656 S
C639 C638 1.372 1_454 S
C639 C640 1.400 . S
C639 C644 1.490 1_554 S
C640 H630 0.930 . S
C640 C639 1.400 . S
C640 C643 1.386 . S
H641 C657 0.930 . S
H642 C658 0.931 . S
C643 H631 0.929 . S
C643 C637 1.376 1_455 S
C643 C640 1.386 . S
C644 C639 1.490 1_556 S
C644 C646 1.395 1_455 S
C644 C647 1.403 . S
H645 C651 0.930 . S
C646 H632 0.934 . S
C646 C644 1.395 1_655 S
C646 C649 1.403 . S
C647 C644 1.403 . S
C647 C648 1.524 . S
C647 C651 1.400 . S
C648 H633 0.960 . S
C648 H634 0.960 . S
C648 H635 0.960 . S
C648 C647 1.524 . S
C649 C646 1.403 . S
C649 C650 1.392 1_655 S
C649 C653 1.495 . S
C650 C649 1.392 1_455 S
C650 C651 1.385 . S
C650 C652 1.478 . S
C651 H645 0.930 . S
C651 C647 1.400 . S
C651 C650 1.385 . S
C652 C650 1.478 . S
C652 C654 1.381 . S
C652 C658 1.383 . S
C653 C649 1.495 . S
C653 H659 0.959 . S
C653 H660 0.961 . S
C653 H661 0.960 . S
C654 C652 1.381 . S
C654 C655 1.394 . S
C654 H662 0.954 . S
C655 C654 1.394 . S
C655 C656 1.383 . S
C655 H663 0.929 . S
C656 C655 1.383 . S
C656 C657 1.377 . S
C657 H641 0.930 . S
C657 C656 1.377 . S
C657 C658 1.379 . S
C658 H642 0.931 . S
C658 C652 1.383 . S
C658 C657 1.379 . S
H659 C653 0.959 . S
H660 C653 0.961 . S
H661 C653 0.960 . S
H662 C654 0.954 . S
H663 C655 0.929 . S
H664 C672 0.929 . S
H665 C674 0.930 . S
H666 C676 0.930 . S
H667 C679 0.929 . S
H668 C682 0.930 1_554 S
H669 C684 0.960 . S
H670 C684 0.960 . S
H671 C684 0.960 . S
C672 H664 0.929 . S
C672 C673 1.377 . S
C672 C674 1.384 1_554 S
C673 C672 1.377 . S
C673 C679 1.390 1_565 S
C674 H665 0.930 . S
C674 C672 1.384 1_556 S
C674 C675 1.372 1_565 S
C675 C674 1.372 1_545 S
C675 C676 1.400 . S
C675 C680 1.490 . S
C676 H666 0.930 . S
C676 C675 1.400 . S
C676 C679 1.386 1_556 S
H677 C693 0.930 . S
H678 C694 0.931 . S
C679 H667 0.929 . S
C679 C673 1.390 1_545 S
C679 C676 1.386 1_554 S
C680 C675 1.490 . S
C680 C682 1.395 . S
C680 C683 1.403 . S
H681 C687 0.930 . S
C682 H668 0.930 1_556 S
C682 C680 1.395 . S
C682 C685 1.403 . S
C683 C680 1.403 . S
C683 C684 1.524 . S
C683 C687 1.400 . S
C684 H669 0.960 . S
C684 H670 0.960 . S
C684 H671 0.960 . S
C684 C683 1.524 . S
C685 C682 1.403 . S
C685 C686 1.392 . S
C685 C689 1.495 . S
C686 C685 1.392 . S
C686 C687 1.385 . S
C686 C688 1.478 . S
C687 H681 0.930 . S
C687 C683 1.400 . S
C687 C686 1.385 . S
C688 C686 1.478 . S
C688 C690 1.381 . S
C688 C694 1.383 . S
C689 C685 1.495 . S
C689 H695 0.959 1_556 S
C689 H696 0.961 . S
C689 H697 0.934 1_545 S
C690 C688 1.381 . S
C690 C691 1.394 . S
C690 H698 0.930 1_545 S
C691 C690 1.394 . S
C691 C692 1.383 . S
C691 H699 0.929 1_545 S
C692 C691 1.383 . S
C692 C693 1.377 . S
C693 H677 0.930 . S
C693 C692 1.377 . S
C693 C694 1.379 . S
C694 H678 0.931 . S
C694 C688 1.383 . S
C694 C693 1.379 . S
H695 C689 0.959 1_554 S
H696 C689 0.961 . S
H697 C689 0.934 1_565 S
H698 C690 0.930 1_565 S
H699 C691 0.929 1_565 S
H700 C708 0.929 . S
H701 C710 0.930 . S
H702 C712 0.930 . S
H703 C715 0.929 . S
H704 C718 0.930 . S
H705 C720 0.960 . S
H706 C720 0.960 . S
H707 C720 0.960 . S
C708 H700 0.929 . S
C708 C709 1.377 . S
C708 C710 1.384 . S
C709 C708 1.377 . S
C709 C715 1.390 1_554 S
C710 H701 0.930 . S
C710 C708 1.384 . S
C710 C711 1.372 1_554 S
C711 C710 1.372 1_556 S
C711 C712 1.400 . S
C711 C716 1.490 . S
C712 H702 0.930 . S
C712 C711 1.400 . S
C712 C715 1.386 . S
H713 C729 0.930 . S
H714 C730 0.931 . S
C715 H703 0.929 . S
C715 C709 1.390 1_556 S
C715 C712 1.386 . S
C716 C711 1.490 . S
C716 C718 1.395 . S
C716 C719 1.403 . S
H717 C723 0.930 . S
C718 H704 0.930 . S
C718 C716 1.395 . S
C718 C721 1.403 . S
C719 C716 1.403 . S
C719 C720 1.524 . S
C719 C723 1.400 . S
C720 H705 0.960 . S
C720 H706 0.960 . S
C720 H707 0.960 . S
C720 C719 1.524 . S
C721 C718 1.403 . S
C721 C722 1.392 . S
C721 C725 1.495 . S
C722 C721 1.392 . S
C722 C723 1.385 . S
C722 C724 1.478 . S
C723 H717 0.930 . S
C723 C719 1.400 . S
C723 C722 1.385 . S
C724 C722 1.478 . S
C724 C726 1.381 . S
C724 C730 1.383 . S
C725 C721 1.495 . S
C725 H731 0.959 . S
C725 H732 0.961 . S
C725 H733 0.960 . S
C726 C724 1.381 . S
C726 C727 1.394 . S
C726 H734 0.930 . S
C727 C726 1.394 . S
C727 C728 1.383 . S
C727 H735 0.929 . S
C728 C727 1.383 . S
C728 C729 1.377 . S
C729 H713 0.930 . S
C729 C728 1.377 . S
C729 C730 1.379 . S
C730 H714 0.931 . S
C730 C724 1.383 . S
C730 C729 1.379 . S
H731 C725 0.959 . S
H732 C725 0.961 . S
H733 C725 0.960 . S
H734 C726 0.930 . S
H735 C727 0.929 . S
H736 C744 0.929 . S
H737 C746 0.930 . S
H738 C748 0.930 . S
H739 C751 0.929 1_554 S
H740 C754 0.930 . S
H741 C756 0.960 1_554 S
H742 C756 0.960 1_554 S
H743 C756 0.960 1_554 S
C744 H736 0.929 . S
C744 C745 1.377 . S
C744 C746 1.384 . S
C745 C744 1.377 . S
C745 C751 1.390 . S
C746 H737 0.930 . S
C746 C744 1.384 . S
C746 C747 1.372 . S
C747 C746 1.372 . S
C747 C748 1.400 . S
C747 C752 1.490 . S
C748 H738 0.930 . S
C748 C747 1.400 . S
C748 C751 1.386 . S
H749 C765 0.930 . S
H750 C766 0.931 . S
C751 H739 0.929 1_556 S
C751 C745 1.390 . S
C751 C748 1.386 . S
C752 C747 1.490 . S
C752 C754 1.395 . S
C752 C755 1.403 . S
H753 C759 0.930 . S
C754 H740 0.930 . S
C754 C752 1.395 . S
C754 C757 1.403 . S
C755 C752 1.403 . S
C755 C756 1.524 . S
C755 C759 1.400 . S
C756 H741 0.960 1_556 S
C756 H742 0.960 1_556 S
C756 H743 0.960 1_556 S
C756 C755 1.524 . S
C757 C754 1.403 . S
C757 C758 1.392 . S
C757 C761 1.495 . S
C758 C757 1.392 . S
C758 C759 1.385 . S
C758 C760 1.478 . S
C759 H753 0.930 . S
C759 C755 1.400 . S
C759 C758 1.385 . S
C760 C758 1.478 . S
C760 C762 1.381 . S
C760 C766 1.383 . S
C761 C757 1.495 . S
C761 H767 0.959 . S
C761 H768 0.961 . S
C761 H769 0.960 . S
C762 C760 1.381 . S
C762 C763 1.394 . S
C762 H770 0.930 . S
C763 C762 1.394 . S
C763 C764 1.383 . S
C763 H771 0.929 . S
C764 C763 1.383 . S
C764 C765 1.377 . S
C765 H749 0.930 . S
C765 C764 1.377 . S
C765 C766 1.379 . S
C766 H750 0.931 . S
C766 C760 1.383 . S
C766 C765 1.379 . S
H767 C761 0.959 . S
H768 C761 0.961 . S
H769 C761 0.960 . S
H770 C762 0.930 . S
H771 C763 0.929 . S
H772 C780 0.929 . S
H773 C782 0.930 . S
H774 C784 0.930 . S
H775 C787 0.929 . S
H776 C790 0.930 . S
H777 C792 0.960 . S
H778 C792 0.960 . S
H779 C792 0.960 . S
C780 H772 0.929 . S
C780 C781 1.377 . S
C780 C782 1.384 . S
C781 C780 1.377 . S
C781 C787 1.390 . S
C782 H773 0.930 . S
C782 C780 1.384 . S
C782 C783 1.372 . S
C783 C782 1.372 . S
C783 C784 1.400 . S
C783 C788 1.490 . S
C784 H774 0.930 . S
C784 C783 1.400 . S
C784 C787 1.386 . S
H785 C801 0.930 1_655 S
H786 C802 0.931 1_654 S
C787 H775 0.929 . S
C787 C781 1.390 . S
C787 C784 1.386 . S
C788 C783 1.490 . S
C788 C790 1.395 . S
C788 C791 1.403 . S
H789 C795 0.930 1_556 S
C790 H776 0.930 . S
C790 C788 1.395 . S
C790 C793 1.403 . S
C791 C788 1.403 . S
C791 C792 1.524 . S
C791 C795 1.400 . S
C792 H777 0.960 . S
C792 H778 0.960 . S
C792 H779 0.960 . S
C792 C791 1.524 . S
C793 C790 1.403 . S
C793 C794 1.392 . S
C793 C797 1.495 . S
C794 C793 1.392 . S
C794 C795 1.385 . S
C794 C796 1.478 1_554 S
C795 H789 0.930 1_554 S
C795 C791 1.400 . S
C795 C794 1.385 . S
C796 C794 1.478 1_556 S
C796 C798 1.381 . S
C796 C802 1.383 . S
C797 C793 1.495 . S
C797 H803 0.959 . S
C797 H804 0.961 . S
C797 H805 0.960 . S
C798 C796 1.381 . S
C798 C799 1.394 . S
C798 H806 0.930 . S
C799 C798 1.394 . S
C799 C800 1.383 . S
C799 H807 0.929 . S
C800 C799 1.383 . S
C800 C801 1.377 . S
C801 H785 0.930 1_455 S
C801 C800 1.377 . S
C801 C802 1.379 . S
C802 H786 0.931 1_456 S
C802 C796 1.383 . S
C802 C801 1.379 . S
H803 C797 0.959 . S
H804 C797 0.961 . S
H805 C797 0.960 . S
H806 C798 0.930 . S
H807 C799 0.929 . S
H808 C816 0.929 . S
H809 C818 0.930 . S
H810 C820 0.930 . S
H811 C823 0.929 . S
H812 C826 0.930 . S
H813 C828 0.960 . S
H814 C828 0.960 . S
H815 C828 0.960 . S
C816 H808 0.929 . S
C816 C817 1.377 . S
C816 C818 1.384 . S
C817 C816 1.377 . S
C817 C823 1.390 . S
C818 H809 0.930 . S
C818 C816 1.384 . S
C818 C819 1.372 . S
C819 C818 1.372 . S
C819 C820 1.400 . S
C819 C824 1.490 . S
C820 H810 0.930 . S
C820 C819 1.400 . S
C820 C823 1.386 . S
H821 C837 0.930 . S
H822 C838 0.931 1_554 S
C823 H811 0.929 . S
C823 C817 1.390 . S
C823 C820 1.386 . S
C824 C819 1.490 . S
C824 C826 1.395 . S
C824 C827 1.403 1_545 S
H825 C831 0.930 . S
C826 H812 0.930 . S
C826 C824 1.395 . S
C826 C829 1.403 1_554 S
C827 C824 1.403 1_565 S
C827 C828 1.524 . S
C827 C831 1.400 . S
C828 H813 0.960 . S
C828 H814 0.960 . S
C828 H815 0.960 . S
C828 C827 1.524 . S
C829 C826 1.403 1_556 S
C829 C830 1.392 . S
C829 C833 1.495 . S
C830 C829 1.392 . S
C830 C831 1.385 1_546 S
C830 C832 1.478 . S
C831 H825 0.930 . S
C831 C827 1.400 . S
C831 C830 1.385 1_564 S
C832 C830 1.478 . S
C832 C834 1.381 . S
C832 C838 1.383 . S
C833 C829 1.495 . S
C833 H839 0.959 . S
C833 H840 0.961 . S
C833 H841 0.960 . S
C834 C832 1.381 . S
C834 C835 1.394 . S
C834 H842 0.930 . S
C835 C834 1.394 . S
C835 C836 1.383 . S
C835 H843 0.929 . S
C836 C835 1.383 . S
C836 C837 1.377 . S
C837 H821 0.930 . S
C837 C836 1.377 . S
C837 C838 1.379 . S
C838 H822 0.931 1_556 S
C838 C832 1.383 . S
C838 C837 1.379 . S
H839 C833 0.959 . S
H840 C833 0.961 . S
H841 C833 0.960 . S
H842 C834 0.930 . S
H843 C835 0.929 . S
H844 C852 0.929 . S
H845 C854 0.930 . S
H846 C856 0.930 . S
H847 C859 0.929 . S
H848 C862 0.930 . S
H849 C864 0.960 . S
H850 C864 0.960 . S
H851 C864 0.960 . S
C852 H844 0.929 . S
C852 C853 1.377 . S
C852 C854 1.384 . S
C853 C852 1.377 . S
C853 C859 1.390 . S
C854 H845 0.930 . S
C854 C852 1.384 . S
C854 C855 1.372 . S
C855 C854 1.372 . S
C855 C856 1.400 . S
C855 C860 1.490 . S
C856 H846 0.930 . S
C856 C855 1.400 . S
C856 C859 1.386 . S
H857 C873 0.930 . S
H858 C874 0.931 . S
C859 H847 0.929 . S
C859 C853 1.390 . S
C859 C856 1.386 . S
C860 C855 1.490 . S
C860 C862 1.395 . S
C860 C863 1.403 1_554 S
H861 C867 0.930 . S
C862 H848 0.930 . S
C862 C860 1.395 . S
C862 C865 1.403 . S
C863 C860 1.403 1_556 S
C863 C864 1.524 . S
C863 C867 1.400 . S
C864 H849 0.960 . S
C864 H850 0.960 . S
C864 H851 0.960 . S
C864 C863 1.524 . S
C865 C862 1.403 . S
C865 C866 1.392 1_554 S
C865 C869 1.495 . S
C866 C865 1.392 1_556 S
C866 C867 1.385 . S
C866 C868 1.478 . S
C867 H861 0.930 . S
C867 C863 1.400 . S
C867 C866 1.385 . S
C868 C866 1.478 . S
C868 C870 1.381 . S
C868 C874 1.383 . S
C869 C865 1.495 . S
C869 H875 0.959 . S
C869 H876 0.961 . S
C869 H877 0.960 . S
C870 C868 1.381 . S
C870 C871 1.394 . S
C870 H878 0.930 . S
C871 C870 1.394 . S
C871 C872 1.383 . S
C871 H879 0.929 . S
C872 C871 1.383 . S
C872 C873 1.377 . S
C873 H857 0.930 . S
C873 C872 1.377 . S
C873 C874 1.379 . S
C874 H858 0.931 . S
C874 C868 1.383 . S
C874 C873 1.379 . S
H875 C869 0.959 . S
H876 C869 0.961 . S
H877 C869 0.960 . S
H878 C870 0.930 . S
H879 C871 0.929 . S
H880 C888 0.929 . S
H881 C890 0.930 . S
H882 C892 0.930 . S
H883 C895 0.929 . S
H884 C898 0.930 . S
H885 C900 0.960 1_556 S
H886 C900 0.960 . S
H887 C900 0.960 . S
C888 H880 0.929 . S
C888 C889 1.377 . S
C888 C890 1.384 . S
C889 C888 1.377 . S
C889 C895 1.390 . S
C890 H881 0.930 . S
C890 C888 1.384 . S
C890 C891 1.372 . S
C891 C890 1.372 . S
C891 C892 1.400 . S
C891 C896 1.490 . S
C892 H882 0.930 . S
C892 C891 1.400 . S
C892 C895 1.386 . S
H893 C909 0.930 . S
H894 C910 0.931 . S
C895 H883 0.929 . S
C895 C889 1.390 . S
C895 C892 1.386 . S
C896 C891 1.490 . S
C896 C898 1.395 . S
C896 C899 1.403 . S
H897 C903 0.930 . S
C898 H884 0.930 . S
C898 C896 1.395 . S
C898 C901 1.403 1_554 S
C899 C896 1.403 . S
C899 C900 1.524 . S
C899 C903 1.400 1_554 S
C900 H885 0.960 1_554 S
C900 H886 0.960 . S
C900 H887 0.960 . S
C900 C899 1.524 . S
C901 C898 1.403 1_556 S
C901 C902 1.392 . S
C901 C905 1.495 . S
C902 C901 1.392 . S
C902 C903 1.385 . S
C902 C904 1.478 . S
C903 H897 0.930 . S
C903 C899 1.400 1_556 S
C903 C902 1.385 . S
C904 C902 1.478 . S
C904 C906 1.381 . S
C904 C910 1.383 . S
C905 C901 1.495 . S
C905 H911 0.959 1_556 S
C905 H912 0.961 . S
C905 H913 0.960 . S
C906 C904 1.381 . S
C906 C907 1.394 . S
C906 H914 0.930 . S
C907 C906 1.394 . S
C907 C908 1.383 . S
C907 H915 0.929 . S
C908 C907 1.383 . S
C908 C909 1.377 . S
C909 H893 0.930 . S
C909 C908 1.377 . S
C909 C910 1.379 . S
C910 H894 0.931 . S
C910 C904 1.383 . S
C910 C909 1.379 . S
H911 C905 0.959 1_554 S
H912 C905 0.961 . S
H913 C905 0.960 . S
H914 C906 0.930 . S
H915 C907 0.929 . S
H916 C924 0.929 . S
H917 C926 0.930 . S
H918 C928 0.930 . S
H919 C931 0.929 . S
H920 C934 0.930 . S
H921 C936 0.960 . S
H922 C936 0.960 . S
H923 C936 0.960 1_655 S
C924 H916 0.929 . S
C924 C925 1.380 . S
C924 C926 1.384 . S
C925 C924 1.380 . S
C925 C931 1.387 1_455 S
C926 H917 0.930 . S
C926 C924 1.384 . S
C926 C927 1.372 1_455 S
C927 C926 1.372 1_655 S
C927 C928 1.400 . S
C927 C932 1.490 . S
C928 H918 0.930 . S
C928 C927 1.400 . S
C928 C931 1.386 . S
H929 C945 0.930 . S
H930 C946 0.931 . S
C931 H919 0.929 . S
C931 C925 1.387 1_655 S
C931 C928 1.386 . S
C932 C927 1.490 . S
C932 C934 1.395 . S
C932 C935 1.404 1_655 S
H933 C939 0.933 . S
C934 H920 0.930 . S
C934 C932 1.395 . S
C934 C937 1.403 . S
C935 C932 1.404 1_455 S
C935 C936 1.522 . S
C935 C939 1.400 1_455 S
C936 H921 0.960 . S
C936 H922 0.960 . S
C936 H923 0.960 1_455 S
C936 C935 1.522 . S
C937 C934 1.403 . S
C937 C938 1.392 . S
C937 C941 1.495 . S
C938 C937 1.392 . S
C938 C939 1.385 . S
C938 C940 1.478 . S
C939 H933 0.933 . S
C939 C935 1.400 1_655 S
C939 C938 1.385 . S
C940 C938 1.478 . S
C940 C942 1.381 1_655 S
C940 C946 1.383 . S
C941 C937 1.495 . S
C941 H947 0.959 . S
C941 H948 0.961 . S
C941 H949 0.960 . S
C942 C940 1.381 1_455 S
C942 C943 1.394 . S
C942 H950 0.930 . S
C943 C942 1.394 . S
C943 C944 1.383 1_455 S
C943 H951 0.929 . S
C944 C943 1.383 1_655 S
C944 C945 1.377 . S
C945 H929 0.930 . S
C945 C944 1.377 . S
C945 C946 1.379 . S
C946 H930 0.931 . S
C946 C940 1.383 . S
C946 C945 1.379 . S
H947 C941 0.959 . S
H948 C941 0.961 . S
H949 C941 0.960 . S
H950 C942 0.930 . S
H951 C943 0.929 . S
H952 C960 0.929 . S
H953 C962 0.930 . S
H954 C964 0.930 . S
H955 C967 0.929 . S
H956 C970 0.930 . S
H957 C972 0.960 . S
H958 C972 0.960 . S
H959 C972 0.960 . S
C960 H952 0.929 . S
C960 C961 1.394 . S
C960 C962 1.384 . S
C961 C960 1.394 . S
C961 C967 1.376 1_565 S
C962 H953 0.930 . S
C962 C960 1.384 . S
C962 C963 1.372 . S
C963 C962 1.372 . S
C963 C964 1.400 1_565 S
C963 C968 1.490 . S
C964 H954 0.930 . S
C964 C963 1.400 1_545 S
C964 C967 1.386 . S
H965 C981 0.930 . S
H966 C982 0.931 . S
C967 H955 0.929 . S
C967 C961 1.376 1_545 S
C967 C964 1.386 . S
C968 C963 1.490 . S
C968 C970 1.395 . S
C968 C971 1.403 1_565 S
H969 C975 0.930 . S
C970 H956 0.930 . S
C970 C968 1.395 . S
C970 C973 1.403 . S
C971 C968 1.403 1_545 S
C971 C972 1.524 . S
C971 C975 1.400 . S
C972 H957 0.960 . S
C972 H958 0.960 . S
C972 H959 0.960 . S
C972 C971 1.524 . S
C973 C970 1.403 . S
C973 C974 1.392 . S
C973 C977 1.495 . S
C974 C973 1.392 . S
C974 C975 1.385 1_565 S
C974 C976 1.478 . S
C975 H969 0.930 . S
C975 C971 1.400 . S
C975 C974 1.385 1_545 S
C976 C974 1.478 . S
C976 C978 1.381 . S
C976 C982 1.383 . S
C977 C973 1.495 . S
C977 H983 0.959 . S
C977 H984 0.961 . S
C977 H985 0.960 . S
C978 C976 1.381 . S
C978 C979 1.394 . S
C978 H986 0.930 . S
C979 C978 1.394 . S
C979 C980 1.383 . S
C979 H987 0.929 . S
C980 C979 1.383 . S
C980 C981 1.377 . S
C981 H965 0.930 . S
C981 C980 1.377 . S
C981 C982 1.379 . S
C982 H966 0.931 . S
C982 C976 1.383 . S
C982 C981 1.379 . S
H983 C977 0.959 . S
H984 C977 0.961 . S
H985 C977 0.960 . S
H986 C978 0.930 . S
H987 C979 0.929 . S
H988 C996 0.929 . S
H989 C998 0.930 . S
H990 C1000 0.930 . S
H991 C1003 0.929 . S
H992 C1006 0.930 . S
H993 C1008 0.960 . S
H994 C1008 0.960 . S
H995 C1008 0.960 . S
C996 H988 0.929 . S
C996 C997 1.377 . S
C996 C998 1.384 . S
C997 C996 1.377 . S
C997 C1003 1.390 . S
C998 H989 0.930 . S
C998 C996 1.384 . S
C998 C999 1.372 . S
C999 C998 1.372 . S
C999 C1000 1.400 . S
C999 C1004 1.490 . S
C1000 H990 0.930 . S
C1000 C999 1.400 . S
C1000 C1003 1.386 . S
H1001 C1017 0.930 . S
H1002 C1018 0.931 . S
C1003 H991 0.929 . S
C1003 C997 1.390 . S
C1003 C1000 1.386 . S
C1004 C999 1.490 . S
C1004 C1006 1.395 . S
C1004 C1007 1.403 . S
H1005 C1011 0.930 . S
C1006 H992 0.930 . S
C1006 C1004 1.395 . S
C1006 C1009 1.403 . S
C1007 C1004 1.403 . S
C1007 C1008 1.524 . S
C1007 C1011 1.400 . S
C1008 H993 0.960 . S
C1008 H994 0.960 . S
C1008 H995 0.960 . S
C1008 C1007 1.524 . S
C1009 C1006 1.403 . S
C1009 C1010 1.392 . S
C1009 C1013 1.495 . S
C1010 C1009 1.392 . S
C1010 C1011 1.385 . S
C1010 C1012 1.478 . S
C1011 H1005 0.930 . S
C1011 C1007 1.400 . S
C1011 C1010 1.385 . S
C1012 C1010 1.478 . S
C1012 C1014 1.381 . S
C1012 C1018 1.383 . S
C1013 C1009 1.495 . S
C1013 H1019 0.959 . S
C1013 H1020 0.961 . S
C1013 H1021 0.960 . S
C1014 C1012 1.381 . S
C1014 C1015 1.394 . S
C1014 H1022 0.930 . S
C1015 C1014 1.394 . S
C1015 C1016 1.383 . S
C1015 H1023 0.929 . S
C1016 C1015 1.383 . S
C1016 C1017 1.377 . S
C1017 H1001 0.930 . S
C1017 C1016 1.377 . S
C1017 C1018 1.379 . S
C1018 H1002 0.931 . S
C1018 C1012 1.383 . S
C1018 C1017 1.379 . S
H1019 C1013 0.959 . S
H1020 C1013 0.961 . S
H1021 C1013 0.960 . S
H1022 C1014 0.930 . S
H1023 C1015 0.929 . S
H1024 C1032 0.929 . S
H1025 C1034 0.930 . S
H1026 C1036 0.930 . S
H1027 C1039 0.929 . S
H1028 C1042 0.930 . S
H1029 C1044 0.960 . S
H1030 C1044 0.960 . S
H1031 C1044 0.960 . S
C1032 H1024 0.929 . S
C1032 C1033 1.377 . S
C1032 C1034 1.384 . S
C1033 C1032 1.377 . S
C1033 C1039 1.390 . S
C1034 H1025 0.930 . S
C1034 C1032 1.384 . S
C1034 C1035 1.372 . S
C1035 C1034 1.372 . S
C1035 C1036 1.400 . S
C1035 C1040 1.490 . S
C1036 H1026 0.930 . S
C1036 C1035 1.400 . S
C1036 C1039 1.386 . S
H1037 C1053 0.930 . S
H1038 C1054 0.931 . S
C1039 H1027 0.929 . S
C1039 C1033 1.390 . S
C1039 C1036 1.386 . S
C1040 C1035 1.490 . S
C1040 C1042 1.395 . S
C1040 C1043 1.403 . S
H1041 C1047 0.930 . S
C1042 H1028 0.930 . S
C1042 C1040 1.395 . S
C1042 C1045 1.403 . S
C1043 C1040 1.403 . S
C1043 C1044 1.524 . S
C1043 C1047 1.400 . S
C1044 H1029 0.960 . S
C1044 H1030 0.960 . S
C1044 H1031 0.960 . S
C1044 C1043 1.524 . S
C1045 C1042 1.403 . S
C1045 C1046 1.392 . S
C1045 C1049 1.495 . S
C1046 C1045 1.392 . S
C1046 C1047 1.385 . S
C1046 C1048 1.478 . S
C1047 H1041 0.930 . S
C1047 C1043 1.400 . S
C1047 C1046 1.385 . S
C1048 C1046 1.478 . S
C1048 C1050 1.381 . S
C1048 C1054 1.383 . S
C1049 C1045 1.495 . S
C1049 H1055 0.959 . S
C1049 H1056 0.961 . S
C1049 H1057 0.960 . S
C1050 C1048 1.381 . S
C1050 C1051 1.394 . S
C1050 H1058 0.930 . S
C1051 C1050 1.394 . S
C1051 C1052 1.383 . S
C1051 H1059 0.929 . S
C1052 C1051 1.383 . S
C1052 C1053 1.377 . S
C1053 H1037 0.930 . S
C1053 C1052 1.377 . S
C1053 C1054 1.379 . S
C1054 H1038 0.931 . S
C1054 C1048 1.383 . S
C1054 C1053 1.379 . S
H1055 C1049 0.959 . S
H1056 C1049 0.961 . S
H1057 C1049 0.960 . S
H1058 C1050 0.930 . S
H1059 C1051 0.929 . S
C205 C82 1.451 . S
C224 C120 1.545 . S
C260 C143 1.621 . S
C241 C95 1.516 . S
C296 C166 1.649 . S
C277 C56 1.537 . S
C332 C193 1.513 . S
C313 C69 1.487 . S
C368 C121 1.564 . S
C349 C30 1.452 1_565 S
C385 C43 1.380 . S
C404 C144 1.478 . S
C421 C4 1.365 . S
C440 C167 1.455 . S
C457 C17 1.488 1_655 S
C476 C192 1.577 . S
C512 C122 0.226 . S
C493 C74 0.364 . S
C548 C145 0.272 . S
C529 C87 0.298 . S
C584 C168 0.297 . S
C565 C100 0.301 . S
C601 C61 0.381 . S
C620 C194 0.512 . S
C637 C22 0.427 1_655 S
C656 C125 0.418 . S
C692 C148 0.502 . S
C673 C35 0.419 1_565 S
C728 C171 0.583 . S
C709 C48 0.382 . S
C745 C9 0.304 1_556 S
C764 C191 0.254 . S
C781 C73 1.584 . S
C800 C123 1.564 . S
C817 C86 1.528 . S
C836 C146 1.504 . S
C872 C169 1.556 . S
C853 C99 1.544 . S
C908 C190 1.328 . S
C889 C60 1.290 . S
C925 C21 1.568 . S
C944 C124 1.540 . S
C980 C147 1.493 . S
C961 C34 1.518 1_565 S
C1016 C170 1.465 . S
C997 C47 1.505 . S
C1033 C8 1.724 . S
C1052 C189 1.771 . S
