# Generated by pormake.
# Topology sit, (3,6)-cn, num edge types: 1
# Building blocks:
#     Node 0, Type 0, BuildingBlock: INOVEN_clean_linker_0, # of connection points: 3
#     Node 1, Type 0, BuildingBlock: INOVEN_clean_linker_0, # of connection points: 3
#     Node 2, Type 0, BuildingBlock: INOVEN_clean_linker_0, # of connection points: 3
#     Node 3, Type 0, BuildingBlock: INOVEN_clean_linker_0, # of connection points: 3
#     Node 4, Type 1, BuildingBlock: MIDCAF_clean_sbu_0, # of connection points: 6
#     Node 5, Type 1, BuildingBlock: MIDCAF_clean_sbu_0, # of connection points: 6
#     Edge 6, Type (0, 1), BuildingBlock: UVAHIK_clean_linker_0, # of connection points: 2
#     Edge 7, Type (0, 1), BuildingBlock: UVAHIK_clean_linker_0, # of connection points: 2
#     Edge 8, Type (0, 1), BuildingBlock: UVAHIK_clean_linker_0, # of connection points: 2
#     Edge 9, Type (0, 1), BuildingBlock: UVAHIK_clean_linker_0, # of connection points: 2
#     Edge 10, Type (0, 1), BuildingBlock: UVAHIK_clean_linker_0, # of connection points: 2
#     Edge 11, Type (0, 1), BuildingBlock: UVAHIK_clean_linker_0, # of connection points: 2
#     Edge 12, Type (0, 1), BuildingBlock: UVAHIK_clean_linker_0, # of connection points: 2
#     Edge 13, Type (0, 1), BuildingBlock: UVAHIK_clean_linker_0, # of connection points: 2
#     Edge 14, Type (0, 1), BuildingBlock: UVAHIK_clean_linker_0, # of connection points: 2
#     Edge 15, Type (0, 1), BuildingBlock: UVAHIK_clean_linker_0, # of connection points: 2
#     Edge 16, Type (0, 1), BuildingBlock: UVAHIK_clean_linker_0, # of connection points: 2
#     Edge 17, Type (0, 1), BuildingBlock: UVAHIK_clean_linker_0, # of connection points: 2
# Relax obj value: 0.072
# Max RMSD: 0.181
# Mean RMSD: 0.110
data_MOF--net-sit--node1-MIDCAF_clean_sbu_0--node2-INOVEN_clean_linker_0--edge1-UVAHIK_clean_linker_0
_symmetry_space_group_name_H-M    P1
_symmetry_Int_Tables_number       1
_symmetry_cell_setting            triclinic
loop_
_symmetry_equiv_pos_as_xyz
'x, y, z'
_cell_length_a     27.149566
_cell_length_b     43.81219
_cell_length_c     48.274149
_cell_angle_alpha  89.891762
_cell_angle_beta   87.123699
_cell_angle_gamma 83.47351
loop_
_atom_site_label
_atom_site_type_symbol
_atom_site_fract_x
_atom_site_fract_y
_atom_site_fract_z
_atom_type_partial_charge
H0 H 0.99301 0.28968 0.0357 0.0
H1 H 0.06656 0.35818 0.99187 0.0
H2 H 0.1528 0.28052 0.02732 0.0
N3 N 0.07257 0.25491 0.04977 0.0
N4 N 0.11101 0.23942 0.0573 0.0
C5 C 0.02698 0.29844 0.0282 0.0
C6 C 0.0246 0.32599 0.01332 0.0
C7 C 0.0729 0.28222 0.03386 0.0
C8 C 0.11719 0.2933 0.02367 0.0
C9 C 0.11505 0.32053 0.00794 0.0
C10 C 0.06862 0.33696 0.00359 0.0
H11 H 0.94075 0.72688 0.04892 0.0
H12 H 0.00269 0.64564 0.00446 0.0
H13 H 0.09967 0.70404 0.04036 0.0
N14 N 0.02557 0.74478 0.06346 0.0
N15 N 0.06692 0.75261 0.06872 0.0
C16 C 0.97287 0.71155 0.04154 0.0
C17 C 0.96643 0.68523 0.02626 0.0
C18 C 0.02074 0.71819 0.04735 0.0
C19 C 0.06253 0.69862 0.03686 0.0
C20 C 0.05622 0.67263 0.02088 0.0
C21 C 0.00802 0.66577 0.01652 0.0
H22 H 0.50449 0.82545 0.5583 0.0
H23 H 0.59126 0.8825 0.50792 0.0
H24 H 0.65768 0.79481 0.53575 0.0
N25 N 0.5749 0.77987 0.56445 0.0
N26 N 0.60937 0.75866 0.56639 0.0
C27 C 0.53942 0.82952 0.54787 0.0
C28 C 0.54304 0.85689 0.53311 0.0
C29 C 0.58064 0.80719 0.54925 0.0
C30 C 0.62597 0.81217 0.5353 0.0
C31 C 0.6298 0.83926 0.52006 0.0
C32 C 0.58844 0.86155 0.51959 0.0
H33 H 0.47996 0.21178 0.54255 0.0
H34 H 0.5556 0.12786 0.50785 0.0
H35 H 0.62875 0.18009 0.56504 0.0
N36 N 0.55155 0.22488 0.57405 0.0
N37 N 0.58486 0.22804 0.59038 0.0
C38 C 0.51222 0.19476 0.54092 0.0
C39 C 0.51276 0.16931 0.52314 0.0
C40 C 0.55361 0.19874 0.55634 0.0
C41 C 0.59625 0.17703 0.55368 0.0
C42 C 0.59699 0.15131 0.53622 0.0
C43 C 0.55497 0.14761 0.5214 0.0
Zn44 Zn 0.04443 0.06051 0.33629 0.0
Zn45 Zn 0.13846 0.9457 0.33947 0.0
Zn46 Zn 0.091 0.00291 0.33787 0.0
C47 C 0.12307 0.95932 0.28371 0.0
C48 C 0.04435 0.94657 0.36795 0.0
O49 O 0.13809 0.03293 0.35814 0.0
O50 O 0.09448 0.07886 0.35848 0.0
C51 C 0.0691 0.04139 0.28139 0.0
O52 O 0.10211 0.98477 0.29449 0.0
O53 O 0.14329 0.93852 0.29891 0.0
O54 O 0.08397 0.92905 0.36257 0.0
O55 O 0.04025 0.97476 0.35994 0.0
O56 O 0.04761 0.06387 0.2953 0.0
O57 O 0.08724 0.01675 0.29361 0.0
O58 O 0.01838 0.00568 0.3619 0.0
O59 O 0.98123 0.05265 0.3556 0.0
C60 C 0.98104 0.02635 0.36628 0.0
O61 O 0.15938 0.0023 0.3615 0.0
O62 O 0.19804 0.95507 0.35811 0.0
C63 C 0.13284 0.06163 0.36475 0.0
C64 C 0.19608 0.98225 0.36703 0.0
Zn65 Zn 0.51516 0.56591 0.83559 0.0
Zn66 Zn 0.6156 0.42018 0.83723 0.0
Zn67 Zn 0.56205 0.51266 0.83384 0.0
C68 C 0.58951 0.46877 0.79127 0.0
C69 C 0.51805 0.44752 0.86534 0.0
O70 O 0.61021 0.54102 0.85604 0.0
O71 O 0.56168 0.58503 0.85953 0.0
C72 C 0.5371 0.55376 0.77945 0.0
O73 O 0.57253 0.49704 0.79018 0.0
O74 O 0.60126 0.45944 0.81512 0.0
O75 O 0.55051 0.42424 0.86044 0.0
O76 O 0.52252 0.47528 0.8564 0.0
O77 O 0.51631 0.57475 0.79534 0.0
O78 O 0.55598 0.52808 0.78969 0.0
O79 O 0.49337 0.50716 0.85784 0.0
O80 O 0.45346 0.5536 0.85351 0.0
C81 C 0.45463 0.52647 0.86246 0.0
O82 O 0.63164 0.51064 0.85504 0.0
O83 O 0.62589 0.46523 0.8402 0.0
C84 C 0.60176 0.56897 0.86485 0.0
C85 C 0.64795 0.48224 0.85541 0.0
C86 C 0.06249 0.2011 0.07991 0.0
C87 C 0.10811 0.21262 0.07378 0.0
C88 C 0.05973 0.17631 0.09792 0.0
C89 C 0.13306 0.11258 0.13372 0.0
H90 H 0.02367 0.12546 0.18869 0.0
C91 C 0.12255 0.04759 0.23882 0.0
C92 C 0.07526 0.04528 0.2512 0.0
C93 C 0.12746 0.06171 0.21287 0.0
C94 C 0.05386 0.12094 0.1732 0.0
H95 H 0.18655 0.20648 0.08061 0.0
H96 H 0.18182 0.16314 0.11267 0.0
H97 H 0.03102 0.16252 0.152 0.0
H98 H -0.00361 0.05276 0.24542 0.0
H99 H 0.00471 0.07554 0.19956 0.0
H100 H 0.15623 0.07105 0.15553 0.0
C101 C 0.14833 0.17316 0.10332 0.0
C102 C 0.05817 0.1424 0.15212 0.0
C103 C 0.15108 0.198 0.08515 0.0
C104 C 0.03324 0.05429 0.23618 0.0
C105 C 0.0381 0.06777 0.21011 0.0
C106 C 0.12861 0.09088 0.1549 0.0
C107 C 0.10236 0.16248 0.1104 0.0
C108 C 0.09781 0.13862 0.13213 0.0
C109 C 0.08506 0.07342 0.19888 0.0
C110 C 0.08891 0.09484 0.17496 0.0
H111 H 0.02867 0.21155 0.0712 0.0
H112 H 0.02392 0.16829 0.10245 0.0
H113 H 0.16391 0.10891 0.11854 0.0
H114 H 0.15543 0.04114 0.25027 0.0
H115 H 0.16421 0.06562 0.20494 0.0
C116 C 0.03056 0.79776 0.09677 0.0
C117 C 0.07192 0.77882 0.08528 0.0
C118 C 0.03718 0.8224 0.11417 0.0
C119 C 0.12775 0.84667 0.16123 0.0
H120 H 0.04826 0.92601 0.16065 0.0
C121 C 0.16273 0.93699 0.23986 0.0
C122 C 0.12064 0.9522 0.254 0.0
C123 C 0.15843 0.92156 0.21498 0.0
C124 C 0.0706 0.90394 0.16118 0.0
H125 H 0.15186 0.77124 0.08215 0.0
H126 H 0.16374 0.81424 0.11249 0.0
H127 H 0.03668 0.88718 0.12582 0.0
H128 H 0.04161 0.9653 0.25234 0.0
H129 H 0.03347 0.93746 0.20917 0.0
H130 H 0.16051 0.86249 0.19692 0.0
C131 C 0.12628 0.80995 0.10836 0.0
C132 C 0.06395 0.88169 0.14122 0.0
C133 C 0.11963 0.78545 0.09093 0.0
C134 C 0.07469 0.95393 0.24165 0.0
C135 C 0.07012 0.93786 0.21693 0.0
C136 C 0.13415 0.86869 0.18119 0.0
C137 C 0.08515 0.82848 0.12054 0.0
C138 C 0.09251 0.85277 0.14104 0.0
C139 C 0.11163 0.92019 0.20405 0.0
C140 C 0.1058 0.89769 0.1815 0.0
H141 H 0.99319 0.79324 0.09273 0.0
H142 H 0.00472 0.83604 0.12338 0.0
H143 H 0.1496 0.82444 0.16214 0.0
H144 H 0.19863 0.93546 0.24894 0.0
H145 H 0.19154 0.90922 0.20517 0.0
C146 C 0.55697 0.72705 0.59514 0.0
C147 C 0.60286 0.73159 0.58185 0.0
C148 C 0.55207 0.70066 0.61088 0.0
C149 C 0.6252 0.64127 0.65041 0.0
H150 H 0.50192 0.60426 0.65382 0.0
C151 C 0.58672 0.5516 0.73406 0.0
C152 C 0.54229 0.56065 0.74955 0.0
C153 C 0.59591 0.56494 0.70811 0.0
C154 C 0.53671 0.6142 0.653 0.0
H155 H 0.6789 0.7121 0.5741 0.0
H156 H 0.67054 0.66565 0.60168 0.0
H157 H 0.51533 0.64317 0.61886 0.0
H158 H 0.47104 0.58842 0.74919 0.0
H159 H 0.48642 0.61103 0.70408 0.0
H160 H 0.64578 0.6131 0.68521 0.0
C161 C 0.63851 0.6826 0.6001 0.0
C162 C 0.54431 0.63661 0.63306 0.0
C163 C 0.64333 0.70903 0.58427 0.0
C164 C 0.50565 0.58107 0.73769 0.0
C165 C 0.51444 0.59395 0.71174 0.0
C166 C 0.61762 0.6188 0.67034 0.0
C167 C 0.59284 0.67817 0.61375 0.0
C168 C 0.58795 0.65117 0.63211 0.0
C169 C 0.5604 0.58703 0.69711 0.0
C170 C 0.57258 0.60576 0.67246 0.0
H171 H 0.52497 0.74404 0.5937 0.0
H172 H 0.51658 0.69831 0.62146 0.0
H173 H 0.65913 0.6521 0.65041 0.0
H174 H 0.61568 0.53602 0.74283 0.0
H175 H 0.63153 0.55895 0.6972 0.0
C176 C 0.5481 0.27995 0.60609 0.0
C177 C 0.58337 0.25397 0.60823 0.0
C178 C 0.54773 0.30484 0.62439 0.0
C179 C 0.58395 0.32306 0.69411 0.0
H180 H 0.57796 0.40751 0.66908 0.0
C181 C 0.61913 0.41838 0.76899 0.0
C182 C 0.59062 0.4471 0.76766 0.0
C183 C 0.61771 0.39639 0.74826 0.0
C184 C 0.57893 0.38412 0.67649 0.0
H185 H 0.64574 0.23377 0.63053 0.0
H186 H 0.64476 0.27691 0.66284 0.0
H187 H 0.57516 0.3661 0.63536 0.0
H188 H 0.53944 0.47579 0.74301 0.0
H189 H 0.53579 0.43692 0.70689 0.0
H190 H 0.58667 0.34062 0.73513 0.0
C191 C 0.61744 0.27809 0.64716 0.0
C192 C 0.57746 0.3604 0.65714 0.0
C193 C 0.61819 0.25349 0.62869 0.0
C194 C 0.56177 0.45379 0.74458 0.0
C195 C 0.55985 0.43152 0.72386 0.0
C196 C 0.58485 0.34667 0.71341 0.0
C197 C 0.58208 0.304 0.64534 0.0
C198 C 0.58076 0.32957 0.66573 0.0
C199 C 0.58714 0.40227 0.72573 0.0
C200 C 0.58329 0.37752 0.7049 0.0
H201 H 0.52088 0.28103 0.59038 0.0
H202 H 0.51994 0.32443 0.62256 0.0
H203 H 0.58554 0.2996 0.70145 0.0
H204 H 0.64245 0.41271 0.78625 0.0
H205 H 0.64054 0.37462 0.75007 0.0
C206 C 0.2027 0.33407 0.01012 0.0
C207 C 0.16022 0.33204 -0.00496 0.0
C208 C 0.24249 0.34841 -0.00151 0.0
C209 C 0.26938 0.40585 0.94576 0.0
H210 H 0.40577 0.36891 0.94724 0.0
C211 C 0.42718 0.44505 0.8741 0.0
C212 C 0.47524 0.44213 0.88379 0.0
C213 C 0.38808 0.43505 0.89044 0.0
C214 C 0.36802 0.37994 0.94709 0.0
H215 H 0.12771 0.34144 0.95531 0.0
H216 H 0.19647 0.36657 0.93534 0.0
H217 H 0.34014 0.34357 0.97075 0.0
H218 H 0.52043 0.42793 0.91818 0.0
H219 H 0.4522 0.4114 0.94715 0.0
H220 H 0.29699 0.44224 0.92214 0.0
C221 C 0.19868 0.3578 0.95629 0.0
C222 C 0.33043 0.36528 0.9605 0.0
C223 C 0.15936 0.34333 0.96774 0.0
C224 C 0.48346 0.43035 0.91038 0.0
C225 C 0.44447 0.42064 0.9268 0.0
C226 C 0.30698 0.42067 0.93256 0.0
C227 C 0.24024 0.36106 0.97169 0.0
C228 C 0.28065 0.3778 0.95954 0.0
C229 C 0.39657 0.42195 0.91673 0.0
C230 C 0.35675 0.40767 0.93267 0.0
H231 H 0.20436 0.32566 0.0312 0.0
H232 H 0.27425 0.35053 0.01077 0.0
H233 H 0.23131 0.41627 0.94506 0.0
H234 H 0.42033 0.45375 0.85346 0.0
H235 H 0.35183 0.43622 0.88187 0.0
C236 C 0.89223 0.69726 -0.00178 0.0
C237 C 0.91719 0.67857 0.01787 0.0
C238 C 0.85306 0.68691 0.98447 0.0
C239 C 0.76181 0.66346 0.96198 0.0
H240 H 0.78201 0.57673 0.94332 0.0
C241 C 0.61926 0.60553 0.90168 0.0
C242 C 0.63689 0.58209 0.88265 0.0
C243 C 0.65147 0.61765 0.91925 0.0
C244 C 0.77602 0.60106 0.94805 0.0
H245 H 0.91922 0.63557 0.04008 0.0
H246 H 0.84919 0.61808 0.01725 0.0
H247 H 0.83905 0.59808 0.97303 0.0
H248 H 0.70238 0.55362 0.86649 0.0
H249 H 0.75918 0.57526 0.89673 0.0
H250 H 0.70023 0.6667 0.93581 0.0
C251 C 0.86065 0.64024 0.01164 0.0
C252 C 0.80827 0.61326 0.9656 0.0
C253 C 0.90021 0.65041 0.02506 0.0
C254 C 0.68766 0.57137 0.88123 0.0
C255 C 0.7201 0.58372 0.89867 0.0
C256 C 0.72982 0.65131 0.94419 0.0
C257 C 0.83791 0.65776 0.99032 0.0
C258 C 0.80169 0.64465 0.9728 0.0
C259 C 0.70236 0.60696 0.91802 0.0
C260 C 0.73653 0.61994 0.93694 0.0
H261 H 0.90537 0.71882 0.99203 0.0
H262 H 0.83687 0.70098 0.96807 0.0
H263 H 0.75524 0.68766 0.9672 0.0
H264 H 0.5802 0.61412 0.90342 0.0
H265 H 0.63617 0.63505 0.93416 0.0
C266 C 0.96686 0.37448 0.01092 0.0
C267 C 0.97657 0.34273 0.00612 0.0
C268 C 0.92543 0.39131 0.0001 0.0
C269 C 0.80853 0.38341 0.96415 0.0
H270 H 0.83465 0.46119 0.93122 0.0
C271 C 0.70288 0.43779 0.87317 0.0
C272 C 0.68418 0.46899 0.87527 0.0
C273 C 0.73457 0.4243 0.89271 0.0
C274 C 0.82659 0.43974 0.94065 0.0
H275 H 0.94997 0.30338 0.98723 0.0
H276 H 0.8784 0.33269 0.9676 0.0
H277 H 0.89603 0.43356 0.95997 0.0
H278 H 0.68444 0.51055 0.89949 0.0
H279 H 0.74193 0.48715 0.93315 0.0
H280 H 0.74018 0.38902 0.94337 0.0
C281 C 0.90184 0.34469 0.98027 0.0
C282 C 0.86162 0.4239 0.95726 0.0
C283 C 0.94292 0.32781 0.99145 0.0
C284 C 0.69883 0.48662 0.89706 0.0
C285 C 0.73136 0.4732 0.91642 0.0
C286 C 0.77388 0.39906 0.94721 0.0
C287 C 0.89325 0.37681 0.98384 0.0
C288 C 0.85347 0.39522 0.96882 0.0
C289 C 0.74895 0.4418 0.91458 0.0
C290 C 0.78303 0.42707 0.93492 0.0
H291 H 0.9922 0.38642 0.02238 0.0
H292 H 0.91941 0.41584 0.00388 0.0
H293 H 0.80041 0.36178 0.97316 0.0
H294 H 0.69304 0.42363 0.85644 0.0
H295 H 0.74836 0.40019 0.89052 0.0
C296 C 0.09558 0.64481 0.97896 0.0
C297 C 0.09887 0.6535 0.00676 0.0
C298 C 0.13341 0.6254 0.96554 0.0
C299 C 0.24142 0.56822 0.97659 0.0
H300 H 0.27418 0.58765 0.89998 0.0
C301 C 0.4179 0.52027 0.9097 0.0
C302 C 0.41281 0.51964 0.88093 0.0
C303 C 0.37633 0.52862 0.9276 0.0
C304 C 0.26489 0.58144 0.92118 0.0
H305 H 0.14514 0.64901 0.04214 0.0
H306 H 0.21266 0.61533 0.01822 0.0
H307 H 0.21177 0.62099 0.9263 0.0
H308 H 0.36059 0.5229 0.84844 0.0
H309 H 0.28776 0.53589 0.87963 0.0
H310 H 0.29627 0.52889 0.97128 0.0
C311 C 0.17997 0.62323 0.00711 0.0
C312 C 0.22918 0.60073 0.93636 0.0
C313 C 0.14169 0.64277 0.02068 0.0
C314 C 0.36522 0.52315 0.8706 0.0
C315 C 0.32372 0.531 0.88844 0.0
C316 C 0.27769 0.54885 0.96131 0.0
C317 C 0.17615 0.61436 0.97933 0.0
C318 C 0.2165 0.59426 0.96414 0.0
C319 C 0.32937 0.53625 0.91679 0.0
C320 C 0.28933 0.55511 0.9333 0.0
H321 H 0.06343 0.653 0.96749 0.0
H322 H 0.12884 0.6188 0.94429 0.0
H323 H 0.2323 0.56253 -0.00206 0.0
H324 H 0.45447 0.51798 0.91802 0.0
H325 H 0.38189 0.53229 0.94935 0.0
C326 C 0.72285 0.83899 0.51534 0.0
C327 C 0.67606 0.84475 0.50392 0.0
C328 C 0.76514 0.84804 0.50117 0.0
C329 C 0.7998 0.90644 0.45284 0.0
H330 H 0.92191 0.85335 0.43652 0.0
C331 C 0.95385 0.9441 0.37852 0.0
C332 C 0.00336 0.93463 0.38422 0.0
C333 C 0.91516 0.9327 0.39404 0.0
C334 C 0.88843 0.86868 0.44131 0.0
H335 H 0.63772 0.86213 0.46772 0.0
H336 H 0.71097 0.87855 0.44358 0.0
H337 H 0.85311 0.8332 0.46245 0.0
H338 H 0.0516 0.90584 0.41041 0.0
H339 H 0.98424 0.88646 0.43802 0.0
H340 H 0.83485 0.94217 0.43245 0.0
C341 C 0.71483 0.86752 0.46359 0.0
C342 C 0.84903 0.85703 0.45607 0.0
C343 C 0.67294 0.85817 0.47747 0.0
C344 C 0.01362 0.9134 0.40556 0.0
C345 C 0.97499 0.90222 0.42128 0.0
C346 C 0.83932 0.91823 0.4385 0.0
C347 C 0.76108 0.86319 0.47555 0.0
C348 C 0.80416 0.8757 0.46157 0.0
C349 C 0.9252 0.91165 0.4157 0.0
C350 C 0.88394 0.8994 0.43215 0.0
H351 H 0.72643 0.82874 0.53567 0.0
H352 H 0.80057 0.84438 0.51074 0.0
H353 H 0.76572 0.92143 0.4572 0.0
H354 H 0.94505 0.95997 0.36178 0.0
H355 H 0.87739 0.94005 0.38871 0.0
C356 C 0.47903 0.15388 0.47853 0.0
C357 C 0.47014 0.16492 0.50587 0.0
C358 C 0.4403 0.14585 0.46317 0.0
C359 C 0.31219 0.12417 0.47226 0.0
H360 H 0.31858 0.12883 0.39192 0.0
C361 C 0.15534 0.09574 0.40224 0.0
C362 C 0.1704 0.07447 0.38089 0.0
C363 C 0.19051 0.10787 0.41787 0.0
C364 C 0.31653 0.12728 0.41434 0.0
H365 H 0.41282 0.17796 0.53786 0.0
H366 H 0.34448 0.16524 0.51053 0.0
H367 H 0.38016 0.1512 0.41808 0.0
H368 H 0.2337 0.04964 0.35864 0.0
H369 H 0.29558 0.07142 0.38569 0.0
H370 H 0.2474 0.10096 0.4682 0.0
C371 C 0.38188 0.16175 0.50132 0.0
C372 C 0.35188 0.13999 0.4294 0.0
C373 C 0.42095 0.16948 0.51688 0.0
C374 C 0.22125 0.06581 0.37517 0.0
C375 C 0.25651 0.07836 0.39049 0.0
C376 C 0.27628 0.11196 0.45717 0.0
C377 C 0.3912 0.14918 0.47445 0.0
C378 C 0.35076 0.13817 0.45858 0.0
C379 C 0.24139 0.09946 0.41201 0.0
C380 C 0.27859 0.11304 0.42807 0.0
H381 H 0.51634 0.15069 0.46914 0.0
H382 H 0.44938 0.13598 0.44276 0.0
H383 H 0.31041 0.1218 0.4946 0.0
H384 H 0.11629 0.10273 0.40707 0.0
H385 H 0.178 0.12422 0.43426 0.0
C386 C 0.45441 0.87026 0.5211 0.0
C387 C 0.49915 0.8798 0.52933 0.0
C388 C 0.41718 0.89166 0.51127 0.0
C389 C 0.40976 0.96288 0.47268 0.0
H390 H 0.26843 0.95631 0.47791 0.0
C391 C 0.21677 0.00184 0.41291 0.0
C392 C 0.23273 0.98892 0.38694 0.0
C393 C 0.2489 -0.00033 0.43482 0.0
C394 C 0.30764 0.95903 0.47663 0.0
H395 H 0.53776 0.91952 0.5366 0.0
H396 H 0.47293 0.9568 0.51918 0.0
H397 H 0.32223 0.92942 0.5114 0.0
H398 H 0.29533 0.96624 0.36259 0.0
H399 H 0.35182 0.96324 0.40042 0.0
H400 H 0.39559 0.99087 0.43685 0.0
C401 C 0.46698 0.93277 0.5199 0.0
C402 C 0.33847 0.94337 0.49564 0.0
C403 C 0.50404 0.91142 0.52985 0.0
C404 C 0.28238 0.9765 0.38242 0.0
C405 C 0.31467 0.97486 0.40408 0.0
C406 C 0.37903 0.97825 0.45352 0.0
C407 C 0.42404 0.92298 0.50945 0.0
C408 C 0.39007 0.94427 0.49325 0.0
C409 C 0.29756 0.98502 0.43082 0.0
C410 C 0.32794 0.97557 0.45471 0.0
H411 H 0.44963 0.84607 0.52028 0.0
H412 H 0.38465 0.88334 0.50318 0.0
H413 H 0.44942 0.96387 0.47013 0.0
H414 H 0.17843 0.01128 0.41691 0.0
H415 H 0.23492 0.00781 0.45521 0.0
C416 C 0.6382 0.09748 0.52959 0.0
C417 C 0.64224 0.12915 0.53126 0.0
C418 C 0.67766 0.07719 0.51853 0.0
C419 C 0.81097 0.06937 0.49482 0.0
H420 H 0.76716 0.0223 0.43456 0.0
C421 C 0.95069 0.00989 0.41299 0.0
C422 C 0.94026 0.02159 0.38655 0.0
C423 C 0.91409 0.01327 0.43463 0.0
C424 C 0.77997 0.0349 0.45157 0.0
H425 H 0.6922 0.16396 0.52479 0.0
H426 H 0.76137 0.12852 0.50562 0.0
H427 H 0.70602 0.04842 0.4678 0.0
H428 H 0.88304 0.04365 0.36128 0.0
H429 H 0.81889 0.0488 0.39868 0.0
H430 H 0.88482 0.05712 0.47757 0.0
C431 C 0.72768 0.11933 0.5129 0.0
C432 C 0.74502 0.04975 0.47073 0.0
C433 C 0.68807 0.13968 0.52393 0.0
C434 C 0.8918 0.0343 0.38148 0.0
C435 C 0.85511 0.03718 0.4029 0.0
C436 C 0.846 0.05425 0.47578 0.0
C437 C 0.72216 0.08808 0.50901 0.0
C438 C 0.75999 0.06802 0.49202 0.0
C439 C 0.86643 0.02796 0.42996 0.0
C440 C 0.83068 0.03778 0.45339 0.0
H441 H 0.60352 0.08863 0.53551 0.0
H442 H 0.67258 0.05316 0.51628 0.0
H443 H 0.82366 0.08304 0.51113 0.0
H444 H 0.98798 0.00027 0.41744 0.0
H445 H 0.92367 0.0058 0.45528 0.0
loop_
_geom_bond_atom_site_label_1
_geom_bond_atom_site_label_2
_geom_bond_distance
_geom_bond_site_symmetry_2
_ccdc_geom_bond_type
H0 C5 0.929 . S
H1 C10 0.931 . S
H2 C8 0.930 . S
N3 N4 1.234 . S
N3 C7 1.453 . S
N4 N3 1.234 . S
C5 H0 0.929 . S
C5 C6 1.373 . S
C5 C7 1.368 . S
C6 C5 1.373 . S
C6 C10 1.397 1_554 S
C7 N3 1.453 . S
C7 C5 1.368 . S
C7 C8 1.373 . S
C8 H2 0.930 . S
C8 C7 1.373 . S
C8 C9 1.371 . S
C9 C8 1.371 . S
C9 C10 1.383 1_554 S
C10 H1 0.931 . S
C10 C6 1.397 1_556 S
C10 C9 1.383 1_556 S
H11 C16 0.929 . S
H12 C21 0.915 1_556 S
H13 C19 0.930 . S
N14 N15 1.234 1_655 S
N14 C18 1.453 . S
N15 N14 1.234 1_455 S
C16 H11 0.929 . S
C16 C17 1.373 . S
C16 C18 1.368 . S
C17 C16 1.373 . S
C17 C21 1.403 1_655 S
C18 N14 1.453 . S
C18 C16 1.368 . S
C18 C19 1.373 1_655 S
C19 H13 0.930 . S
C19 C18 1.373 1_455 S
C19 C20 1.371 . S
C20 C19 1.371 . S
C20 C21 1.393 . S
C21 H12 0.915 1_554 S
C21 C17 1.403 1_455 S
C21 C20 1.393 . S
H22 C27 0.929 . S
H23 C32 0.931 . S
H24 C30 0.930 . S
N25 N26 1.234 . S
N25 C29 1.453 . S
N26 N25 1.234 . S
C27 H22 0.929 . S
C27 C28 1.373 . S
C27 C29 1.368 . S
C28 C27 1.373 . S
C28 C32 1.397 . S
C29 N25 1.453 . S
C29 C27 1.368 . S
C29 C30 1.373 . S
C30 H24 0.930 . S
C30 C29 1.373 . S
C30 C31 1.371 . S
C31 C30 1.371 . S
C31 C32 1.383 . S
C32 H23 0.931 . S
C32 C28 1.397 . S
C32 C31 1.383 . S
H33 C38 0.929 . S
H34 C43 0.931 . S
H35 C41 0.930 . S
N36 N37 1.234 . S
N36 C40 1.453 . S
N37 N36 1.234 . S
C38 H33 0.929 . S
C38 C39 1.373 . S
C38 C40 1.368 . S
C39 C38 1.373 . S
C39 C43 1.397 . S
C40 N36 1.453 . S
C40 C38 1.368 . S
C40 C41 1.373 . S
C41 H35 0.930 . S
C41 C40 1.373 . S
C41 C42 1.371 . S
C42 C41 1.371 . S
C42 C43 1.383 . S
C43 H34 0.931 . S
C43 C39 1.397 . S
C43 C42 1.383 . S
Zn44 O50 1.920 . S
Zn44 O56 1.898 . S
Zn44 O59 1.889 1_455 S
Zn45 O53 1.905 . S
Zn45 O54 1.898 . S
Zn45 O62 1.920 . S
Zn46 O49 2.080 . S
Zn46 O52 2.114 1_545 S
Zn46 O55 2.120 1_545 S
Zn46 O57 2.120 . S
Zn46 O58 2.114 . S
Zn46 O61 2.080 1_545 S
C47 O52 1.166 . S
C47 O53 1.182 . S
C48 O54 1.167 . S
C48 O55 1.299 . S
O49 Zn46 2.080 . S
O49 C63 1.305 . S
O50 Zn44 1.920 . S
O50 C63 1.234 . S
C51 O56 1.167 . S
C51 O57 1.299 . S
O52 Zn46 2.114 1_565 S
O52 C47 1.166 . S
O53 Zn45 1.905 . S
O53 C47 1.182 . S
O54 Zn45 1.898 . S
O54 C48 1.167 . S
O55 Zn46 2.120 1_565 S
O55 C48 1.299 . S
O56 Zn44 1.898 . S
O56 C51 1.167 . S
O57 Zn46 2.120 . S
O57 C51 1.299 . S
O58 Zn46 2.114 . S
O58 C60 1.166 1_455 S
O59 Zn44 1.889 1_655 S
O59 C60 1.188 . S
C60 O58 1.166 1_655 S
C60 O59 1.188 . S
O61 Zn46 2.080 1_565 S
O61 C64 1.305 . S
O62 Zn45 1.920 . S
O62 C64 1.234 . S
C63 O49 1.305 . S
C63 O50 1.234 . S
C64 O61 1.305 . S
C64 O62 1.234 . S
Zn65 O71 1.920 . S
Zn65 O77 1.898 . S
Zn65 O80 1.905 . S
Zn66 O74 1.905 . S
Zn66 O75 1.898 . S
Zn66 O83 1.920 . S
Zn67 O70 2.080 . S
Zn67 O73 2.114 . S
Zn67 O76 2.120 . S
Zn67 O78 2.120 . S
Zn67 O79 2.114 . S
Zn67 O82 2.080 . S
C68 O73 1.166 . S
C68 O74 1.182 . S
C69 O75 1.167 . S
C69 O76 1.299 . S
O70 Zn67 2.080 . S
O70 C84 1.305 . S
O71 Zn65 1.920 . S
O71 C84 1.234 . S
C72 O77 1.167 . S
C72 O78 1.299 . S
O73 Zn67 2.114 . S
O73 C68 1.166 . S
O74 Zn66 1.905 . S
O74 C68 1.182 . S
O75 Zn66 1.898 . S
O75 C69 1.167 . S
O76 Zn67 2.120 . S
O76 C69 1.299 . S
O77 Zn65 1.898 . S
O77 C72 1.167 . S
O78 Zn67 2.120 . S
O78 C72 1.299 . S
O79 Zn67 2.114 . S
O79 C81 1.166 . S
O80 Zn65 1.905 . S
O80 C81 1.182 . S
C81 O79 1.166 . S
C81 O80 1.182 . S
O82 Zn67 2.080 . S
O82 C85 1.305 . S
O83 Zn66 1.920 . S
O83 C85 1.234 . S
C84 O70 1.305 . S
C84 O71 1.234 . S
C85 O82 1.305 . S
C85 O83 1.234 . S
C86 C87 1.349 . S
C86 C88 1.327 . S
C86 H111 0.950 . S
C87 C86 1.349 . S
C87 C103 1.349 . S
C88 C86 1.327 . S
C88 C107 1.429 . S
C88 H112 0.950 . S
C89 C106 1.574 . S
C89 C108 1.368 . S
C89 H113 0.949 . S
H90 C94 0.949 . S
C91 C92 1.349 . S
C91 C93 1.327 . S
C91 H114 0.950 . S
C92 C91 1.349 . S
C92 C104 1.349 . S
C93 C91 1.327 . S
C93 C109 1.429 . S
C93 H115 0.950 . S
C94 H90 0.949 . S
C94 C102 1.574 . S
C94 C110 1.368 . S
H95 C103 0.950 . S
H96 C101 0.950 . S
H97 C102 0.949 . S
H98 C104 0.950 . S
H99 C105 0.950 . S
H100 C106 0.949 . S
C101 H96 0.950 . S
C101 C103 1.327 . S
C101 C107 1.429 . S
C102 C94 1.574 . S
C102 H97 0.949 . S
C102 C108 1.368 . S
C103 C87 1.349 . S
C103 H95 0.950 . S
C103 C101 1.327 . S
C104 C92 1.349 . S
C104 H98 0.950 . S
C104 C105 1.327 . S
C105 H99 0.950 . S
C105 C104 1.327 . S
C105 C109 1.429 . S
C106 C89 1.574 . S
C106 H100 0.949 . S
C106 C110 1.368 . S
C107 C88 1.429 . S
C107 C101 1.429 . S
C107 C108 1.523 . S
C108 C89 1.368 . S
C108 C102 1.368 . S
C108 C107 1.523 . S
C109 C93 1.429 . S
C109 C105 1.429 . S
C109 C110 1.523 . S
C110 C94 1.368 . S
C110 C106 1.368 . S
C110 C109 1.523 . S
H111 C86 0.950 . S
H112 C88 0.950 . S
H113 C89 0.949 . S
H114 C91 0.950 . S
H115 C93 0.950 . S
C116 C117 1.349 1_655 S
C116 C118 1.327 . S
C116 H141 0.950 . S
C117 C116 1.349 1_455 S
C117 C133 1.349 . S
C118 C116 1.327 . S
C118 C137 1.429 1_655 S
C118 H142 0.950 . S
C119 C136 1.574 . S
C119 C138 1.368 . S
C119 H143 0.949 . S
H120 C124 0.949 . S
C121 C122 1.349 . S
C121 C123 1.327 . S
C121 H144 0.950 . S
C122 C121 1.349 . S
C122 C134 1.349 . S
C123 C121 1.327 . S
C123 C139 1.429 . S
C123 H145 0.950 . S
C124 H120 0.949 . S
C124 C132 1.574 . S
C124 C140 1.368 1_655 S
H125 C133 0.950 . S
H126 C131 0.950 . S
H127 C132 0.949 . S
H128 C134 0.950 1_655 S
H129 C135 0.950 1_655 S
H130 C136 0.949 . S
C131 H126 0.950 . S
C131 C133 1.327 . S
C131 C137 1.429 . S
C132 C124 1.574 . S
C132 H127 0.949 . S
C132 C138 1.368 1_655 S
C133 C117 1.349 . S
C133 H125 0.950 . S
C133 C131 1.327 . S
C134 C122 1.349 . S
C134 H128 0.950 1_455 S
C134 C135 1.327 . S
C135 H129 0.950 1_455 S
C135 C134 1.327 . S
C135 C139 1.429 . S
C136 C119 1.574 . S
C136 H130 0.949 . S
C136 C140 1.368 . S
C137 C118 1.429 1_455 S
C137 C131 1.429 . S
C137 C138 1.523 . S
C138 C119 1.368 . S
C138 C132 1.368 1_455 S
C138 C137 1.523 . S
C139 C123 1.429 . S
C139 C135 1.429 . S
C139 C140 1.523 . S
C140 C124 1.368 1_455 S
C140 C136 1.368 . S
C140 C139 1.523 . S
H141 C116 0.950 . S
H142 C118 0.950 . S
H143 C119 0.949 . S
H144 C121 0.950 . S
H145 C123 0.950 . S
C146 C147 1.349 . S
C146 C148 1.327 . S
C146 H171 0.950 . S
C147 C146 1.349 . S
C147 C163 1.349 . S
C148 C146 1.327 . S
C148 C167 1.429 . S
C148 H172 0.950 . S
C149 C166 1.574 . S
C149 C168 1.368 . S
C149 H173 0.949 . S
H150 C154 0.949 . S
C151 C152 1.349 . S
C151 C153 1.327 . S
C151 H174 0.950 . S
C152 C151 1.349 . S
C152 C164 1.349 . S
C153 C151 1.327 . S
C153 C169 1.429 . S
C153 H175 0.950 . S
C154 H150 0.949 . S
C154 C162 1.574 . S
C154 C170 1.368 . S
H155 C163 0.950 . S
H156 C161 0.950 . S
H157 C162 0.949 . S
H158 C164 0.950 . S
H159 C165 0.950 . S
H160 C166 0.949 . S
C161 H156 0.950 . S
C161 C163 1.327 . S
C161 C167 1.429 . S
C162 C154 1.574 . S
C162 H157 0.949 . S
C162 C168 1.368 . S
C163 C147 1.349 . S
C163 H155 0.950 . S
C163 C161 1.327 . S
C164 C152 1.349 . S
C164 H158 0.950 . S
C164 C165 1.327 . S
C165 H159 0.950 . S
C165 C164 1.327 . S
C165 C169 1.429 . S
C166 C149 1.574 . S
C166 H160 0.949 . S
C166 C170 1.368 . S
C167 C148 1.429 . S
C167 C161 1.429 . S
C167 C168 1.523 . S
C168 C149 1.368 . S
C168 C162 1.368 . S
C168 C167 1.523 . S
C169 C153 1.429 . S
C169 C165 1.429 . S
C169 C170 1.523 . S
C170 C154 1.368 . S
C170 C166 1.368 . S
C170 C169 1.523 . S
H171 C146 0.950 . S
H172 C148 0.950 . S
H173 C149 0.949 . S
H174 C151 0.950 . S
H175 C153 0.950 . S
C176 C177 1.349 . S
C176 C178 1.327 . S
C176 H201 0.950 . S
C177 C176 1.349 . S
C177 C193 1.349 . S
C178 C176 1.327 . S
C178 C197 1.429 . S
C178 H202 0.950 . S
C179 C196 1.574 . S
C179 C198 1.368 . S
C179 H203 0.949 . S
H180 C184 0.949 . S
C181 C182 1.349 . S
C181 C183 1.327 . S
C181 H204 0.950 . S
C182 C181 1.349 . S
C182 C194 1.349 . S
C183 C181 1.327 . S
C183 C199 1.429 . S
C183 H205 0.950 . S
C184 H180 0.949 . S
C184 C192 1.574 . S
C184 C200 1.368 . S
H185 C193 0.950 . S
H186 C191 0.950 . S
H187 C192 0.949 . S
H188 C194 0.950 . S
H189 C195 0.950 . S
H190 C196 0.949 . S
C191 H186 0.950 . S
C191 C193 1.327 . S
C191 C197 1.429 . S
C192 C184 1.574 . S
C192 H187 0.949 . S
C192 C198 1.368 . S
C193 C177 1.349 . S
C193 H185 0.950 . S
C193 C191 1.327 . S
C194 C182 1.349 . S
C194 H188 0.950 . S
C194 C195 1.327 . S
C195 H189 0.950 . S
C195 C194 1.327 . S
C195 C199 1.429 . S
C196 C179 1.574 . S
C196 H190 0.949 . S
C196 C200 1.368 . S
C197 C178 1.429 . S
C197 C191 1.429 . S
C197 C198 1.523 . S
C198 C179 1.368 . S
C198 C192 1.368 . S
C198 C197 1.523 . S
C199 C183 1.429 . S
C199 C195 1.429 . S
C199 C200 1.523 . S
C200 C184 1.368 . S
C200 C196 1.368 . S
C200 C199 1.523 . S
H201 C176 0.950 . S
H202 C178 0.950 . S
H203 C179 0.949 . S
H204 C181 0.950 . S
H205 C183 0.950 . S
C206 C207 1.349 1_554 S
C206 C208 1.327 . S
C206 H231 0.950 . S
C207 C206 1.349 1_556 S
C207 C223 1.349 . S
C208 C206 1.327 . S
C208 C227 1.429 1_554 S
C208 H232 0.950 . S
C209 C226 1.574 . S
C209 C228 1.368 . S
C209 H233 0.949 . S
H210 C214 0.949 . S
C211 C212 1.349 . S
C211 C213 1.327 . S
C211 H234 0.950 . S
C212 C211 1.349 . S
C212 C224 1.349 . S
C213 C211 1.327 . S
C213 C229 1.429 . S
C213 H235 0.950 . S
C214 H210 0.949 . S
C214 C222 1.574 . S
C214 C230 1.368 . S
H215 C223 0.950 . S
H216 C221 0.950 . S
H217 C222 0.949 1_554 S
H218 C224 0.950 . S
H219 C225 0.950 . S
H220 C226 0.949 . S
C221 H216 0.950 . S
C221 C223 1.327 . S
C221 C227 1.429 . S
C222 C214 1.574 . S
C222 H217 0.949 1_556 S
C222 C228 1.368 . S
C223 C207 1.349 . S
C223 H215 0.950 . S
C223 C221 1.327 . S
C224 C212 1.349 . S
C224 H218 0.950 . S
C224 C225 1.327 . S
C225 H219 0.950 . S
C225 C224 1.327 . S
C225 C229 1.429 . S
C226 C209 1.574 . S
C226 H220 0.949 . S
C226 C230 1.368 . S
C227 C208 1.429 1_556 S
C227 C221 1.429 . S
C227 C228 1.523 . S
C228 C209 1.368 . S
C228 C222 1.368 . S
C228 C227 1.523 . S
C229 C213 1.429 . S
C229 C225 1.429 . S
C229 C230 1.523 . S
C230 C214 1.368 . S
C230 C226 1.368 . S
C230 C229 1.523 . S
H231 C206 0.950 . S
H232 C208 0.950 . S
H233 C209 0.949 . S
H234 C211 0.950 . S
H235 C213 0.950 . S
C236 C237 1.347 . S
C236 C238 1.327 . S
C236 H261 0.950 . S
C237 C236 1.347 . S
C237 C253 1.350 1_556 S
C238 C236 1.327 . S
C238 C257 1.429 . S
C238 H262 0.950 . S
C239 C256 1.574 . S
C239 C258 1.368 . S
C239 H263 0.949 . S
H240 C244 0.949 . S
C241 C242 1.349 . S
C241 C243 1.327 . S
C241 H264 0.950 . S
C242 C241 1.349 . S
C242 C254 1.349 . S
C243 C241 1.327 . S
C243 C259 1.429 . S
C243 H265 0.950 . S
C244 H240 0.949 . S
C244 C252 1.574 . S
C244 C260 1.368 . S
H245 C253 0.950 . S
H246 C251 0.950 . S
H247 C252 0.949 . S
H248 C254 0.950 . S
H249 C255 0.950 . S
H250 C256 0.949 . S
C251 H246 0.950 . S
C251 C253 1.327 . S
C251 C257 1.429 1_554 S
C252 C244 1.574 . S
C252 H247 0.949 . S
C252 C258 1.368 . S
C253 C237 1.350 1_554 S
C253 H245 0.950 . S
C253 C251 1.327 . S
C254 C242 1.349 . S
C254 H248 0.950 . S
C254 C255 1.327 . S
C255 H249 0.950 . S
C255 C254 1.327 . S
C255 C259 1.429 . S
C256 C239 1.574 . S
C256 H250 0.949 . S
C256 C260 1.368 . S
C257 C238 1.429 . S
C257 C251 1.429 1_556 S
C257 C258 1.523 . S
C258 C239 1.368 . S
C258 C252 1.368 . S
C258 C257 1.523 . S
C259 C243 1.429 . S
C259 C255 1.429 . S
C259 C260 1.523 . S
C260 C244 1.368 . S
C260 C256 1.368 . S
C260 C259 1.523 . S
H261 C236 0.950 . S
H262 C238 0.950 . S
H263 C239 0.949 . S
H264 C241 0.950 . S
H265 C243 0.950 . S
C266 C267 1.349 . S
C266 C268 1.327 . S
C266 H291 0.950 . S
C267 C266 1.349 . S
C267 C283 1.367 . S
C268 C266 1.327 . S
C268 C287 1.429 1_455 S
C268 H292 0.950 . S
C269 C286 1.574 . S
C269 C288 1.368 . S
C269 H293 0.949 . S
H270 C274 0.949 . S
C271 C272 1.349 . S
C271 C273 1.327 . S
C271 H294 0.950 . S
C272 C271 1.349 . S
C272 C284 1.349 . S
C273 C271 1.327 . S
C273 C289 1.429 . S
C273 H295 0.950 . S
C274 H270 0.949 . S
C274 C282 1.574 . S
C274 C290 1.368 . S
H275 C283 0.946 1_655 S
H276 C281 0.950 . S
H277 C282 0.949 . S
H278 C284 0.950 . S
H279 C285 0.950 . S
H280 C286 0.949 . S
C281 H276 0.950 . S
C281 C283 1.312 1_655 S
C281 C287 1.429 . S
C282 C274 1.574 . S
C282 H277 0.949 . S
C282 C288 1.368 . S
C283 C267 1.367 . S
C283 H275 0.946 1_455 S
C283 C281 1.312 1_455 S
C284 C272 1.349 . S
C284 H278 0.950 . S
C284 C285 1.327 . S
C285 H279 0.950 . S
C285 C284 1.327 . S
C285 C289 1.429 . S
C286 C269 1.574 . S
C286 H280 0.949 . S
C286 C290 1.368 . S
C287 C268 1.429 1_655 S
C287 C281 1.429 . S
C287 C288 1.523 . S
C288 C269 1.368 . S
C288 C282 1.368 . S
C288 C287 1.523 . S
C289 C273 1.429 . S
C289 C285 1.429 . S
C289 C290 1.523 . S
C290 C274 1.368 . S
C290 C286 1.368 . S
C290 C289 1.523 . S
H291 C266 0.950 . S
H292 C268 0.950 . S
H293 C269 0.949 . S
H294 C271 0.950 . S
H295 C273 0.950 . S
C296 C297 1.349 . S
C296 C298 1.327 . S
C296 H321 0.950 . S
C297 C296 1.349 . S
C297 C313 1.349 1_556 S
C298 C296 1.327 . S
C298 C317 1.429 . S
C298 H322 0.950 . S
C299 C316 1.574 . S
C299 C318 1.368 . S
C299 H323 0.949 . S
H300 C304 0.949 . S
C301 C302 1.349 . S
C301 C303 1.327 . S
C301 H324 0.950 . S
C302 C301 1.349 . S
C302 C314 1.349 . S
C303 C301 1.327 . S
C303 C319 1.429 . S
C303 H325 0.950 . S
C304 H300 0.949 . S
C304 C312 1.574 . S
C304 C320 1.368 . S
H305 C313 0.950 . S
H306 C311 0.950 . S
H307 C312 0.949 . S
H308 C314 0.950 . S
H309 C315 0.950 . S
H310 C316 0.949 . S
C311 H306 0.950 . S
C311 C313 1.327 1_556 S
C311 C317 1.429 . S
C312 C304 1.574 . S
C312 H307 0.949 . S
C312 C318 1.368 . S
C313 C297 1.349 1_554 S
C313 H305 0.950 . S
C313 C311 1.327 1_554 S
C314 C302 1.349 . S
C314 H308 0.950 . S
C314 C315 1.327 . S
C315 H309 0.950 . S
C315 C314 1.327 . S
C315 C319 1.429 . S
C316 C299 1.574 . S
C316 H310 0.949 . S
C316 C320 1.368 . S
C317 C298 1.429 . S
C317 C311 1.429 . S
C317 C318 1.523 . S
C318 C299 1.368 . S
C318 C312 1.368 . S
C318 C317 1.523 . S
C319 C303 1.429 . S
C319 C315 1.429 . S
C319 C320 1.523 . S
C320 C304 1.368 . S
C320 C316 1.368 . S
C320 C319 1.523 . S
H321 C296 0.950 . S
H322 C298 0.950 . S
H323 C299 0.949 . S
H324 C301 0.950 . S
H325 C303 0.950 . S
C326 C327 1.349 . S
C326 C328 1.327 . S
C326 H351 0.950 . S
C327 C326 1.349 . S
C327 C343 1.349 . S
C328 C326 1.327 . S
C328 C347 1.429 . S
C328 H352 0.950 . S
C329 C346 1.574 . S
C329 C348 1.368 . S
C329 H353 0.949 . S
H330 C334 0.949 . S
C331 C332 1.349 . S
C331 C333 1.327 . S
C331 H354 0.950 . S
C332 C331 1.349 . S
C332 C344 1.349 1_655 S
C333 C331 1.327 . S
C333 C349 1.429 . S
C333 H355 0.950 . S
C334 H330 0.949 . S
C334 C342 1.574 . S
C334 C350 1.368 . S
H335 C343 0.950 . S
H336 C341 0.950 . S
H337 C342 0.949 . S
H338 C344 0.950 . S
H339 C345 0.950 . S
H340 C346 0.949 . S
C341 H336 0.950 . S
C341 C343 1.327 . S
C341 C347 1.429 . S
C342 C334 1.574 . S
C342 H337 0.949 . S
C342 C348 1.368 . S
C343 C327 1.349 . S
C343 H335 0.950 . S
C343 C341 1.327 . S
C344 C332 1.349 1_455 S
C344 H338 0.950 . S
C344 C345 1.327 1_455 S
C345 H339 0.950 . S
C345 C344 1.327 1_655 S
C345 C349 1.429 . S
C346 C329 1.574 . S
C346 H340 0.949 . S
C346 C350 1.368 . S
C347 C328 1.429 . S
C347 C341 1.429 . S
C347 C348 1.523 . S
C348 C329 1.368 . S
C348 C342 1.368 . S
C348 C347 1.523 . S
C349 C333 1.429 . S
C349 C345 1.429 . S
C349 C350 1.523 . S
C350 C334 1.368 . S
C350 C346 1.368 . S
C350 C349 1.523 . S
H351 C326 0.950 . S
H352 C328 0.950 . S
H353 C329 0.949 . S
H354 C331 0.950 . S
H355 C333 0.950 . S
C356 C357 1.349 . S
C356 C358 1.327 . S
C356 H381 0.950 . S
C357 C356 1.349 . S
C357 C373 1.349 . S
C358 C356 1.327 . S
C358 C377 1.429 . S
C358 H382 0.950 . S
C359 C376 1.574 . S
C359 C378 1.368 . S
C359 H383 0.949 . S
H360 C364 0.949 . S
C361 C362 1.349 . S
C361 C363 1.327 . S
C361 H384 0.950 . S
C362 C361 1.349 . S
C362 C374 1.349 . S
C363 C361 1.327 . S
C363 C379 1.429 . S
C363 H385 0.950 . S
C364 H360 0.949 . S
C364 C372 1.574 . S
C364 C380 1.368 . S
H365 C373 0.950 . S
H366 C371 0.950 . S
H367 C372 0.949 . S
H368 C374 0.950 . S
H369 C375 0.950 . S
H370 C376 0.949 . S
C371 H366 0.950 . S
C371 C373 1.327 . S
C371 C377 1.429 . S
C372 C364 1.574 . S
C372 H367 0.949 . S
C372 C378 1.368 . S
C373 C357 1.349 . S
C373 H365 0.950 . S
C373 C371 1.327 . S
C374 C362 1.349 . S
C374 H368 0.950 . S
C374 C375 1.327 . S
C375 H369 0.950 . S
C375 C374 1.327 . S
C375 C379 1.429 . S
C376 C359 1.574 . S
C376 H370 0.949 . S
C376 C380 1.368 . S
C377 C358 1.429 . S
C377 C371 1.429 . S
C377 C378 1.523 . S
C378 C359 1.368 . S
C378 C372 1.368 . S
C378 C377 1.523 . S
C379 C363 1.429 . S
C379 C375 1.429 . S
C379 C380 1.523 . S
C380 C364 1.368 . S
C380 C376 1.368 . S
C380 C379 1.523 . S
H381 C356 0.950 . S
H382 C358 0.950 . S
H383 C359 0.949 . S
H384 C361 0.950 . S
H385 C363 0.950 . S
C386 C387 1.349 . S
C386 C388 1.327 . S
C386 H411 0.950 . S
C387 C386 1.349 . S
C387 C403 1.349 . S
C388 C386 1.327 . S
C388 C407 1.429 . S
C388 H412 0.950 . S
C389 C406 1.574 . S
C389 C408 1.368 . S
C389 H413 0.949 . S
H390 C394 0.949 . S
C391 C392 1.349 . S
C391 C393 1.327 . S
C391 H414 0.950 . S
C392 C391 1.349 . S
C392 C404 1.349 . S
C393 C391 1.327 . S
C393 C409 1.429 . S
C393 H415 0.950 . S
C394 H390 0.949 . S
C394 C402 1.574 . S
C394 C410 1.368 . S
H395 C403 0.950 . S
H396 C401 0.950 . S
H397 C402 0.949 . S
H398 C404 0.950 . S
H399 C405 0.950 . S
H400 C406 0.949 . S
C401 H396 0.950 . S
C401 C403 1.327 . S
C401 C407 1.429 . S
C402 C394 1.574 . S
C402 H397 0.949 . S
C402 C408 1.368 . S
C403 C387 1.349 . S
C403 H395 0.950 . S
C403 C401 1.327 . S
C404 C392 1.349 . S
C404 H398 0.950 . S
C404 C405 1.327 . S
C405 H399 0.950 . S
C405 C404 1.327 . S
C405 C409 1.429 . S
C406 C389 1.574 . S
C406 H400 0.949 . S
C406 C410 1.368 . S
C407 C388 1.429 . S
C407 C401 1.429 . S
C407 C408 1.523 . S
C408 C389 1.368 . S
C408 C402 1.368 . S
C408 C407 1.523 . S
C409 C393 1.429 . S
C409 C405 1.429 . S
C409 C410 1.523 . S
C410 C394 1.368 . S
C410 C406 1.368 . S
C410 C409 1.523 . S
H411 C386 0.950 . S
H412 C388 0.950 . S
H413 C389 0.949 . S
H414 C391 0.950 . S
H415 C393 0.950 . S
C416 C417 1.349 . S
C416 C418 1.327 . S
C416 H441 0.950 . S
C417 C416 1.349 . S
C417 C433 1.349 . S
C418 C416 1.327 . S
C418 C437 1.429 . S
C418 H442 0.950 . S
C419 C436 1.574 . S
C419 C438 1.368 . S
C419 H443 0.949 . S
H420 C424 0.949 . S
C421 C422 1.349 . S
C421 C423 1.327 . S
C421 H444 0.950 . S
C422 C421 1.349 . S
C422 C434 1.349 . S
C423 C421 1.327 . S
C423 C439 1.429 . S
C423 H445 0.950 . S
C424 H420 0.949 . S
C424 C432 1.574 . S
C424 C440 1.368 . S
H425 C433 0.950 . S
H426 C431 0.950 . S
H427 C432 0.949 . S
H428 C434 0.950 . S
H429 C435 0.950 . S
H430 C436 0.949 . S
C431 H426 0.950 . S
C431 C433 1.327 . S
C431 C437 1.429 . S
C432 C424 1.574 . S
C432 H427 0.949 . S
C432 C438 1.368 . S
C433 C417 1.349 . S
C433 H425 0.950 . S
C433 C431 1.327 . S
C434 C422 1.349 . S
C434 H428 0.950 . S
C434 C435 1.327 . S
C435 H429 0.950 . S
C435 C434 1.327 . S
C435 C439 1.429 . S
C436 C419 1.574 . S
C436 H430 0.949 . S
C436 C440 1.368 . S
C437 C418 1.429 . S
C437 C431 1.429 . S
C437 C438 1.523 . S
C438 C419 1.368 . S
C438 C432 1.368 . S
C438 C437 1.523 . S
C439 C423 1.429 . S
C439 C435 1.429 . S
C439 C440 1.523 . S
C440 C424 1.368 . S
C440 C436 1.368 . S
C440 C439 1.523 . S
H441 C416 0.950 . S
H442 C418 0.950 . S
H443 C419 0.949 . S
H444 C421 0.950 . S
H445 C423 0.950 . S
C92 C51 1.400 . S
C87 N4 1.529 . S
C122 C47 1.395 . S
C117 N15 1.495 . S
C152 C72 1.401 . S
C147 N26 1.529 . S
C177 N37 1.495 . S
C182 C68 1.395 . S
C207 C9 1.157 1_556 S
C212 C69 1.055 . S
C242 C84 1.063 . S
C237 C17 1.177 1_556 S
C267 C6 1.771 1_556 S
C272 C85 1.629 . S
C302 C81 1.669 . S
C297 C20 1.798 1_556 S
C332 C48 1.055 1_655 S
C327 C31 1.157 . S
C357 C39 1.177 . S
C362 C63 1.063 . S
C392 C64 1.629 . S
C387 C28 1.771 . S
C422 C60 1.669 . S
C417 C42 1.798 . S
