# Generated by pormake.
# Topology nom, (4,4)-cn, num edge types: 1
# Building blocks:
#     Node 0, Type 0, BuildingBlock: MUDLON_clean_linker_0, # of connection points: 4
#     Node 1, Type 0, BuildingBlock: MUDLON_clean_linker_0, # of connection points: 4
#     Node 2, Type 0, BuildingBlock: MUDLON_clean_linker_0, # of connection points: 4
#     Node 3, Type 0, BuildingBlock: MUDLON_clean_linker_0, # of connection points: 4
#     Node 4, Type 0, BuildingBlock: MUDLON_clean_linker_0, # of connection points: 4
#     Node 5, Type 0, BuildingBlock: MUDLON_clean_linker_0, # of connection points: 4
#     Node 6, Type 1, BuildingBlock: QUQFOY_clean_sbu_3, # of connection points: 4
#     Node 7, Type 1, BuildingBlock: QUQFOY_clean_sbu_3, # of connection points: 4
#     Node 8, Type 1, BuildingBlock: QUQFOY_clean_sbu_3, # of connection points: 4
#     Node 9, Type 1, BuildingBlock: QUQFOY_clean_sbu_3, # of connection points: 4
#     Node 10, Type 1, BuildingBlock: QUQFOY_clean_sbu_3, # of connection points: 4
#     Node 11, Type 1, BuildingBlock: QUQFOY_clean_sbu_3, # of connection points: 4
#     Edge 12, Type (0, 1), BuildingBlock: UVAHIK_clean_linker_0, # of connection points: 2
#     Edge 13, Type (0, 1), BuildingBlock: UVAHIK_clean_linker_0, # of connection points: 2
#     Edge 14, Type (0, 1), BuildingBlock: UVAHIK_clean_linker_0, # of connection points: 2
#     Edge 15, Type (0, 1), BuildingBlock: UVAHIK_clean_linker_0, # of connection points: 2
#     Edge 16, Type (0, 1), BuildingBlock: UVAHIK_clean_linker_0, # of connection points: 2
#     Edge 17, Type (0, 1), BuildingBlock: UVAHIK_clean_linker_0, # of connection points: 2
#     Edge 18, Type (0, 1), BuildingBlock: UVAHIK_clean_linker_0, # of connection points: 2
#     Edge 19, Type (0, 1), BuildingBlock: UVAHIK_clean_linker_0, # of connection points: 2
#     Edge 20, Type (0, 1), BuildingBlock: UVAHIK_clean_linker_0, # of connection points: 2
#     Edge 21, Type (0, 1), BuildingBlock: UVAHIK_clean_linker_0, # of connection points: 2
#     Edge 22, Type (0, 1), BuildingBlock: UVAHIK_clean_linker_0, # of connection points: 2
#     Edge 23, Type (0, 1), BuildingBlock: UVAHIK_clean_linker_0, # of connection points: 2
#     Edge 24, Type (0, 1), BuildingBlock: UVAHIK_clean_linker_0, # of connection points: 2
#     Edge 25, Type (0, 1), BuildingBlock: UVAHIK_clean_linker_0, # of connection points: 2
#     Edge 26, Type (0, 1), BuildingBlock: UVAHIK_clean_linker_0, # of connection points: 2
#     Edge 27, Type (0, 1), BuildingBlock: UVAHIK_clean_linker_0, # of connection points: 2
#     Edge 28, Type (0, 1), BuildingBlock: UVAHIK_clean_linker_0, # of connection points: 2
#     Edge 29, Type (0, 1), BuildingBlock: UVAHIK_clean_linker_0, # of connection points: 2
#     Edge 30, Type (0, 1), BuildingBlock: UVAHIK_clean_linker_0, # of connection points: 2
#     Edge 31, Type (0, 1), BuildingBlock: UVAHIK_clean_linker_0, # of connection points: 2
#     Edge 32, Type (0, 1), BuildingBlock: UVAHIK_clean_linker_0, # of connection points: 2
#     Edge 33, Type (0, 1), BuildingBlock: UVAHIK_clean_linker_0, # of connection points: 2
#     Edge 34, Type (0, 1), BuildingBlock: UVAHIK_clean_linker_0, # of connection points: 2
#     Edge 35, Type (0, 1), BuildingBlock: UVAHIK_clean_linker_0, # of connection points: 2
# Relax obj value: 0.006
# Max RMSD: 0.103
# Mean RMSD: 0.061
data_MOF--net-nom--node1-QUQFOY_clean_sbu_3--node2-MUDLON_clean_linker_0--edge1-UVAHIK_clean_linker_0
_symmetry_space_group_name_H-M    P1
_symmetry_Int_Tables_number       1
_symmetry_cell_setting            triclinic
loop_
_symmetry_equiv_pos_as_xyz
'x, y, z'
_cell_length_a     73.45175
_cell_length_b     76.031535
_cell_length_c     74.223006
_cell_angle_alpha  90.378383
_cell_angle_beta   89.78003
_cell_angle_gamma 120.51766
loop_
_atom_site_label
_atom_site_type_symbol
_atom_site_fract_x
_atom_site_fract_y
_atom_site_fract_z
_atom_type_partial_charge
H0 H 0.09944 0.56199 0.31608 0.0
N1 N 0.0738 0.57711 0.32546 0.0
H2 H 0.12866 0.57704 0.29484 0.0
H3 H 0.0843 0.60841 0.30371 0.0
H4 H 0.11435 0.62435 0.28304 0.0
H5 H 0.09012 0.60912 0.34744 0.0
H6 H 0.10838 0.61317 0.37599 0.0
H7 H 0.07682 0.54714 0.34308 0.0
H8 H 0.09462 0.55085 0.3718 0.0
H9 H 0.06401 0.54114 0.30793 0.0
H10 H 0.03716 0.57301 0.33516 0.0
H11 H 0.02889 0.51233 0.30238 0.0
H12 H 0.00178 0.54364 0.33049 0.0
H13 H 0.90184 0.4206 0.28852 0.0
H14 H 0.88702 0.4119 0.25825 0.0
H15 H 0.92969 0.47405 0.24152 0.0
H16 H 0.94332 0.48291 0.27177 0.0
H17 H 0.90573 0.47525 0.2948 0.0
H18 H 0.87616 0.47181 0.31262 0.0
H19 H 0.88449 0.43342 0.35031 0.0
H20 H 0.91442 0.43711 0.33237 0.0
H21 H 0.96371 0.45594 0.30966 0.0
H22 H -0.00085 0.48463 0.31619 0.0
H23 H 0.9766 0.52657 0.30772 0.0
N24 N 0.92921 0.4573 0.30159 0.0
H25 H 0.94143 0.49803 0.30202 0.0
C26 C 0.08948 0.584 0.31137 0.0
C27 C 0.10216 0.57525 0.30857 0.0
C28 C 0.11912 0.58407 0.29655 0.0
C29 C 0.12408 0.60207 0.28733 0.0
C30 C 0.11089 0.61035 0.28968 0.0
C31 C 0.09374 0.60133 0.30154 0.0
C32 C 0.08214 0.57793 0.34318 0.0
C33 C 0.0908 0.59628 0.35288 0.0
C34 C 0.10113 0.5985 0.3692 0.0
C35 C 0.10301 0.58233 0.37616 0.0
C36 C 0.09368 0.56367 0.36669 0.0
C37 C 0.08336 0.56148 0.35033 0.0
C38 C 0.05329 0.55957 0.32174 0.0
C39 C 0.05064 0.54205 0.31275 0.0
C40 C 0.0304 0.52534 0.30976 0.0
C41 C 0.0124 0.52561 0.31592 0.0
C42 C 0.01519 0.54301 0.32519 0.0
C43 C 0.03539 0.55978 0.32797 0.0
C44 C 0.92356 0.45238 0.28277 0.0
C45 C 0.90814 0.43228 0.27824 0.0
C46 C 0.89976 0.42732 0.26085 0.0
C47 C 0.90693 0.44233 0.24738 0.0
C48 C 0.9233 0.4622 0.25163 0.0
C49 C 0.93134 0.46726 0.26911 0.0
C50 C 0.91241 0.45651 0.31237 0.0
C51 C 0.90149 0.4664 0.30706 0.0
C52 C 0.88458 0.46443 0.31726 0.0
C53 C 0.87807 0.45239 0.33287 0.0
C54 C 0.88911 0.4427 0.33828 0.0
C55 C 0.90621 0.44485 0.32814 0.0
C56 C 0.94986 0.47468 0.30539 0.0
C57 C 0.96649 0.47135 0.30933 0.0
C58 C 0.98674 0.48779 0.31292 0.0
C59 C 0.9908 0.50798 0.31248 0.0
C60 C 0.97404 0.51126 0.30855 0.0
C61 C 0.9538 0.49484 0.3052 0.0
H62 H 0.4772 0.91893 0.46559 0.0
N63 N 0.45368 0.93636 0.4566 0.0
H64 H 0.46763 0.8919 0.4873 0.0
H65 H 0.42165 0.92156 0.47964 0.0
H66 H 0.41089 0.89322 0.50044 0.0
H67 H 0.41879 0.91835 0.43693 0.0
H68 H 0.41366 0.90152 0.40761 0.0
H69 H 0.48422 0.93477 0.43669 0.0
H70 H 0.47923 0.91782 0.40737 0.0
H71 H 0.49333 0.95315 0.47218 0.0
H72 H 0.45091 0.96767 0.44485 0.0
H73 H 0.51932 0.98909 0.47479 0.0
H74 H 0.47753 0.00392 0.44646 0.0
H75 H 0.59943 0.11016 0.48789 0.0
H76 H 0.60691 0.12269 0.51892 0.0
H77 H 0.54238 0.07916 0.53359 0.0
H78 H 0.53477 0.06751 0.5027 0.0
H79 H 0.53791 0.10047 0.48413 0.0
H80 H 0.53898 0.13036 0.47132 0.0
H81 H 0.58277 0.13372 0.4306 0.0
H82 H 0.58159 0.10348 0.44354 0.0
H83 H 0.56969 0.05447 0.46502 0.0
H84 H 0.54397 0.01847 0.45921 0.0
H85 H 0.4932 0.03094 0.46705 0.0
N86 N 0.56205 0.08405 0.47365 0.0
H87 H 0.51882 0.06669 0.47186 0.0
C88 C 0.45023 0.92252 0.47115 0.0
C89 C 0.46313 0.914 0.47362 0.0
C90 C 0.45741 0.89822 0.48589 0.0
C91 C 0.43826 0.89002 0.49549 0.0
C92 C 0.42588 0.89921 0.49355 0.0
C93 C 0.43192 0.91536 0.48157 0.0
C94 C 0.45176 0.92769 0.43894 0.0
C95 C 0.43206 0.91842 0.43043 0.0
C96 C 0.4292 0.9089 0.41371 0.0
C97 C 0.44606 0.90837 0.40522 0.0
C98 C 0.46593 0.91784 0.4137 0.0
C99 C 0.46881 0.92754 0.4304 0.0
C100 C 0.4698 0.95756 0.45853 0.0
C101 C 0.4895 0.96394 0.46663 0.0
C102 C 0.50462 0.9847 0.46793 0.0
C103 C 0.50061 -0.00047 0.46086 0.0
C104 C 0.48108 0.99303 0.45241 0.0
C105 C 0.46586 0.97231 0.45138 0.0
C106 C 0.56662 0.08796 0.49271 0.0
C107 C 0.58704 0.10305 0.49791 0.0
C108 C 0.59129 0.11014 0.51569 0.0
C109 C 0.57515 0.10211 0.52874 0.0
C110 C 0.55505 0.08602 0.5238 0.0
C111 C 0.55075 0.07914 0.506 0.0
C112 C 0.55987 0.09978 0.46484 0.0
C113 C 0.54746 0.10731 0.47225 0.0
C114 C 0.54815 0.12449 0.46498 0.0
C115 C 0.56115 0.13448 0.45011 0.0
C116 C 0.57255 0.12626 0.44203 0.0
C117 C 0.57194 0.10907 0.4494 0.0
C118 C 0.54635 0.06334 0.46887 0.0
C119 C 0.55299 0.04939 0.46518 0.0
C120 C 0.53824 0.0288 0.46206 0.0
C121 C 0.51643 0.02168 0.46281 0.0
C122 C 0.50981 0.03583 0.46607 0.0
C123 C 0.52457 0.05643 0.46891 0.0
H124 H 0.49156 0.60296 0.66522 0.0
N125 N 0.48986 0.56835 0.67358 0.0
H126 H 0.47068 0.6082 0.6427 0.0
H127 H 0.46455 0.54044 0.64759 0.0
H128 H 0.44452 0.54578 0.6246 0.0
H129 H 0.44764 0.54284 0.68044 0.0
H130 H 0.4293 0.54141 0.70853 0.0
H131 H 0.50719 0.58627 0.70472 0.0
H132 H 0.48897 0.58424 0.73309 0.0
H133 H 0.53083 0.5833 0.66898 0.0
H134 H 0.4716 0.52674 0.67326 0.0
H135 H 0.54937 0.56452 0.66535 0.0
H136 H 0.48957 0.50761 0.66795 0.0
H137 H 0.59851 0.49997 0.63113 0.0
H138 H 0.59875 0.48957 0.59998 0.0
H139 H 0.53058 0.45986 0.59842 0.0
H140 H 0.53059 0.4701 0.62985 0.0
H141 H 0.53408 0.45134 0.65539 0.0
H142 H 0.53794 0.42502 0.67055 0.0
H143 H 0.59935 0.4712 0.69008 0.0
H144 H 0.59555 0.49737 0.67437 0.0
H145 H 0.57511 0.52792 0.64005 0.0
H146 H 0.5562 0.546 0.6451 0.0
H147 H 0.51138 0.49658 0.67888 0.0
N148 N 0.56528 0.49128 0.65141 0.0
H149 H 0.52943 0.47789 0.67246 0.0
C150 C 0.4798 0.57143 0.65822 0.0
C151 C 0.48159 0.59054 0.65616 0.0
C152 C 0.46969 0.59351 0.6432 0.0
C153 C 0.45577 0.57736 0.63185 0.0
C154 C 0.45477 0.55845 0.63332 0.0
C155 C 0.4665 0.55544 0.64644 0.0
C156 C 0.47881 0.56505 0.69043 0.0
C157 C 0.45681 0.55186 0.69185 0.0
C158 C 0.44634 0.551 0.70789 0.0
C159 C 0.45777 0.56278 0.72285 0.0
C160 C 0.47986 0.57495 0.72173 0.0
C161 C 0.49024 0.57617 0.7056 0.0
C162 C 0.4999 0.55648 0.67092 0.0
C163 C 0.52183 0.56677 0.66875 0.0
C164 C 0.53233 0.55593 0.66653 0.0
C165 C 0.52102 0.53441 0.66599 0.0
C166 C 0.49893 0.5241 0.66842 0.0
C167 C 0.48852 0.53502 0.67115 0.0
C168 C 0.56464 0.48583 0.63271 0.0
C169 C 0.58368 0.49138 0.62396 0.0
C170 C 0.58375 0.48553 0.60615 0.0
C171 C 0.56467 0.47399 0.59666 0.0
C172 C 0.54551 0.46862 0.6054 0.0
C173 C 0.54549 0.4745 0.6233 0.0
C174 C 0.56469 0.47634 0.66364 0.0
C175 C 0.54814 0.45586 0.66329 0.0
C176 C 0.55034 0.44082 0.67205 0.0
C177 C 0.5691 0.44598 0.6813 0.0
C178 C 0.58486 0.46669 0.6828 0.0
C179 C 0.58266 0.48168 0.67401 0.0
C180 C 0.55389 0.5016 0.65582 0.0
C181 C 0.56116 0.521 0.64852 0.0
C182 C 0.55039 0.53141 0.65162 0.0
C183 C 0.53226 0.52296 0.6626 0.0
C184 C 0.52505 0.50353 0.67012 0.0
C185 C 0.53559 0.49283 0.6666 0.0
H186 H 0.10492 0.56578 0.80104 0.0
N187 N 0.08237 0.52566 0.79077 0.0
H188 H 0.13131 0.58019 0.82497 0.0
H189 H 0.09167 0.50533 0.81438 0.0
H190 H 0.11865 0.51959 0.83791 0.0
H191 H 0.1077 0.51696 0.77221 0.0
H192 H 0.12725 0.53327 0.74456 0.0
H193 H 0.07986 0.55509 0.77151 0.0
H194 H 0.09883 0.5709 0.74345 0.0
H195 H 0.06752 0.54708 0.80997 0.0
H196 H 0.04849 0.49398 0.77645 0.0
H197 H 0.03089 0.53686 0.8149 0.0
H198 H 0.01153 0.48435 0.78018 0.0
H199 H 0.91357 0.49848 0.83844 0.0
H200 H 0.90142 0.48877 0.86955 0.0
H201 H 0.92963 0.45092 0.87053 0.0
H202 H 0.94171 0.4606 0.83975 0.0
H203 H 0.91319 0.44199 0.81789 0.0
H204 H 0.8826 0.41794 0.80055 0.0
H205 H 0.88144 0.46798 0.77442 0.0
H206 H 0.9123 0.49228 0.7922 0.0
H207 H 0.96345 0.52181 0.81222 0.0
H208 H -0.00011 0.53329 0.80338 0.0
H209 H 0.98484 0.4704 0.80142 0.0
N210 N 0.93224 0.48385 0.8175 0.0
H211 H 0.94852 0.45924 0.80888 0.0
C212 C 0.09633 0.53442 0.80599 0.0
C213 C 0.10755 0.55559 0.80928 0.0
C214 C 0.12275 0.56381 0.82289 0.0
C215 C 0.12725 0.55108 0.8333 0.0
C216 C 0.11541 0.52985 0.83037 0.0
C217 C 0.10008 0.52164 0.81687 0.0
C218 C 0.09217 0.53458 0.77378 0.0
C219 C 0.1056 0.52863 0.76592 0.0
C220 C 0.11679 0.538 0.75027 0.0
C221 C 0.11448 0.55329 0.74202 0.0
C222 C 0.10073 0.55905 0.74961 0.0
C223 C 0.08985 0.54997 0.76555 0.0
C224 C 0.06084 0.52095 0.79314 0.0
C225 C 0.05553 0.53327 0.80351 0.0
C226 C 0.03439 0.52752 0.80613 0.0
C227 C 0.01807 0.50964 0.79808 0.0
C228 C 0.02355 0.49791 0.78703 0.0
C229 C 0.04467 0.50344 0.78474 0.0
C230 C 0.92844 0.4803 0.8366 0.0
C231 C 0.91754 0.48848 0.84554 0.0
C232 C 0.91067 0.48295 0.86329 0.0
C233 C 0.91447 0.46896 0.87236 0.0
C234 C 0.92632 0.46157 0.86376 0.0
C235 C 0.93332 0.46722 0.84609 0.0
C236 C 0.91516 0.46911 0.80634 0.0
C237 C 0.90669 0.44795 0.80831 0.0
C238 C 0.88914 0.43411 0.79827 0.0
C239 C 0.8796 0.44104 0.78608 0.0
C240 C 0.88834 0.46218 0.78383 0.0
C241 C 0.906 0.47605 0.79386 0.0
C242 C 0.95325 0.48977 0.81144 0.0
C243 C 0.96807 0.51058 0.80965 0.0
C244 C 0.98893 0.51707 0.80476 0.0
C245 C 0.9955 0.50281 0.80184 0.0
C246 C 0.98043 0.48189 0.80327 0.0
C247 C 0.95952 0.47543 0.8078 0.0
H248 H 0.51521 0.11961 0.97881 0.0
N249 N 0.51531 0.08681 0.96677 0.0
H250 H 0.54007 0.14555 -0.0005 0.0
H251 H 0.54537 0.08424 0.98675 0.0
H252 H 0.56938 0.1093 0.00856 0.0
H253 H 0.55598 0.10619 0.95384 0.0
H254 H 0.56773 0.12224 0.92435 0.0
H255 H 0.49129 0.08543 0.93938 0.0
H256 H 0.50306 0.10083 0.90941 0.0
H257 H 0.48257 0.06097 0.98662 0.0
H258 H 0.53142 0.06423 0.95198 0.0
H259 H 0.46797 0.02434 0.99007 0.0
H260 H 0.51607 0.02745 0.95415 0.0
H261 H 0.41765 0.90983 -0.00137 0.0
H262 H 0.41669 0.89553 0.02822 0.0
H263 H 0.48474 0.93303 0.03163 0.0
H264 H 0.48554 0.94646 0.00178 0.0
H265 H 0.48159 0.92549 0.9739 0.0
H266 H 0.47758 0.89766 0.9545 0.0
H267 H 0.41851 0.88946 0.93458 0.0
H268 H 0.42232 0.91679 0.95463 0.0
H269 H 0.43225 0.9572 0.9783 0.0
H270 H 0.44835 0.99398 0.97458 0.0
H271 H 0.51003 -0.00024 0.9716 0.0
N272 N 0.45138 0.93576 0.97987 0.0
H273 H 0.49339 0.96272 0.97387 0.0
C274 C 0.52827 0.09997 0.98124 0.0
C275 C 0.52682 0.11718 0.9855 0.0
C276 C 0.54103 0.13193 -0.00251 0.0
C277 C 0.55691 0.12968 0.00583 0.0
C278 C 0.55768 0.11184 0.0022 0.0
C279 C 0.5437 0.09727 0.98987 0.0
C280 C 0.52268 0.09496 0.94897 0.0
C281 C 0.54428 0.105 0.94433 0.0
C282 C 0.551 0.1141 0.92748 0.0
C283 C 0.53626 0.11282 0.91479 0.0
C284 C 0.51466 0.10198 0.91905 0.0
C285 C 0.50796 0.09325 0.93608 0.0
C286 C 0.50775 0.06531 0.96882 0.0
C287 C 0.48999 0.05369 0.97962 0.0
C288 C 0.48156 0.0327 0.98139 0.0
C289 C 0.49052 0.0227 0.97208 0.0
C290 C 0.50874 0.03451 0.96161 0.0
C291 C 0.51744 0.05562 0.96017 0.0
C292 C 0.45153 0.9293 -0.00197 0.0
C293 C 0.4323 0.91509 0.0059 0.0
C294 C 0.43181 0.90704 0.02286 0.0
C295 C 0.45066 0.91317 0.03239 0.0
C296 C 0.46995 0.92778 0.02461 0.0
C297 C 0.47041 0.93568 0.00755 0.0
C298 C 0.45201 0.92293 0.96586 0.0
C299 C 0.46802 0.91799 0.96508 0.0
C300 C 0.46574 0.9021 0.95389 0.0
C301 C 0.44751 0.89105 0.94322 0.0
C302 C 0.43249 0.89732 0.94294 0.0
C303 C 0.43471 0.91304 0.95422 0.0
C304 C 0.4616 0.95733 0.97664 0.0
C305 C 0.44922 0.96648 0.97666 0.0
C306 C 0.45854 0.98755 0.97477 0.0
C307 C 0.48062 7e-05 0.97316 0.0
C308 C 0.493 0.99072 0.97271 0.0
C309 C 0.48354 0.96951 0.97423 0.0
H310 H 0.5541 0.45331 0.15335 0.0
N311 N 0.56877 0.49355 0.16206 0.0
H312 H 0.56918 0.44087 0.13118 0.0
H313 H 0.59676 0.51523 0.1367 0.0
H314 H 0.61091 0.5028 0.11323 0.0
H315 H 0.60027 0.50677 0.18549 0.0
H316 H 0.60011 0.49203 0.21481 0.0
H317 H 0.53517 0.46014 0.17738 0.0
H318 H 0.53488 0.44523 0.20663 0.0
H319 H 0.53252 0.47173 0.14207 0.0
H320 H 0.56735 0.52508 0.1756 0.0
H321 H 0.50529 0.48054 0.13742 0.0
H322 H 0.5395 0.53327 0.17221 0.0
H323 H 0.42047 0.51698 0.12372 0.0
H324 H 0.4158 0.52708 0.09378 0.0
H325 H 0.48343 0.55854 0.08552 0.0
H326 H 0.48801 0.54949 0.11565 0.0
H327 H 0.47902 0.57063 0.14028 0.0
H328 H 0.47174 0.59344 0.15799 0.0
H329 H 0.42185 0.54159 0.18598 0.0
H330 H 0.42929 0.51871 0.16807 0.0
H331 H 0.4506 0.49156 0.14436 0.0
H332 H 0.4772 0.48206 0.15039 0.0
H333 H 0.52542 0.54606 0.15206 0.0
N334 N 0.45644 0.52878 0.14092 0.0
H335 H 0.4987 0.5552 0.1473 0.0
C336 C 0.57485 0.48537 0.14712 0.0
C337 C 0.56652 0.46427 0.14474 0.0
C338 C 0.57501 0.45711 0.13174 0.0
C339 C 0.59163 0.47081 0.12051 0.0
C340 C 0.59864 0.49179 0.12198 0.0
C341 C 0.59046 0.49896 0.13526 0.0
C342 C 0.56784 0.48458 0.17932 0.0
C343 C 0.58596 0.49339 0.19011 0.0
C344 C 0.58579 0.48501 0.20682 0.0
C345 C 0.56746 0.46751 0.21296 0.0
C346 C 0.54926 0.45863 0.20213 0.0
C347 C 0.54939 0.46717 0.18549 0.0
C348 C 0.55226 0.49809 0.15889 0.0
C349 C 0.53432 0.48536 0.14844 0.0
C350 C 0.51855 0.49028 0.14602 0.0
C351 C 0.52014 0.50772 0.15436 0.0
C352 C 0.5379 0.52005 0.16517 0.0
C353 C 0.55381 0.51535 0.16724 0.0
C354 C 0.45445 0.53232 0.1221 0.0
C355 C 0.43423 0.52577 0.11529 0.0
C356 C 0.43162 0.53149 0.0981 0.0
C357 C 0.44927 0.54377 0.08718 0.0
C358 C 0.4695 0.54943 0.09365 0.0
C359 C 0.47212 0.54399 0.11097 0.0
C360 C 0.45469 0.54287 0.15292 0.0
C361 C 0.46692 0.56415 0.15055 0.0
C362 C 0.46274 0.57722 0.16072 0.0
C363 C 0.44616 0.56931 0.17334 0.0
C364 C 0.43459 0.54811 0.17624 0.0
C365 C 0.43889 0.53505 0.16613 0.0
C366 C 0.47254 0.52399 0.14532 0.0
C367 C 0.46691 0.50346 0.14627 0.0
C368 C 0.4822 0.4981 0.14951 0.0
C369 C 0.50359 0.51327 0.15161 0.0
C370 C 0.50912 0.5339 0.15086 0.0
C371 C 0.49377 0.53921 0.14799 0.0
C372 C 0.67992 0.41738 0.40328 0.0
O373 O 0.67807 0.43238 0.40841 0.0
Cd374 Cd 0.64596 0.43051 0.41803 0.0
O375 O 0.66391 0.39932 0.40288 0.0
Cd376 Cd 0.62535 0.38119 0.40969 0.0
C377 C 0.61591 0.40949 0.37976 0.0
O378 O 0.62934 0.40092 0.43627 0.0
O379 O 0.597 0.37973 0.4291 0.0
O380 O 0.62697 0.35264 0.42234 0.0
C381 C 0.60994 0.3934 0.43982 0.0
O382 O 0.6255 0.4245 0.39062 0.0
C383 C 0.61379 0.33928 0.41152 0.0
O384 O 0.61448 0.39238 0.38297 0.0
O385 O 0.60606 0.34542 0.3995 0.0
C386 C 0.29499 0.60687 0.55534 0.0
O387 O 0.27753 0.59197 0.54991 0.0
Cd388 Cd 0.24802 0.59571 0.54126 0.0
O389 O 0.29746 0.62465 0.55679 0.0
Cd390 Cd 0.27761 0.64243 0.55219 0.0
C391 C 0.23835 0.61268 0.58102 0.0
O392 O 0.26132 0.62599 0.52353 0.0
O393 O 0.25026 0.64474 0.53564 0.0
O394 O 0.31109 0.67076 0.54216 0.0
C395 C 0.24967 0.63379 0.52245 0.0
O396 O 0.23164 0.59912 0.56867 0.0
C397 C 0.31058 0.68423 0.55197 0.0
O398 O 0.25592 0.62933 0.57941 0.0
O399 O 0.29463 0.67826 0.56222 0.0
C400 C 0.68064 0.27455 0.72576 0.0
O401 O 0.6799 0.25791 0.7218 0.0
Cd402 Cd 0.64885 0.22767 0.71131 0.0
O403 O 0.66417 0.27606 0.72453 0.0
Cd404 Cd 0.62642 0.25521 0.71576 0.0
C405 C 0.61601 0.21896 0.74741 0.0
O406 O 0.63446 0.24074 0.69017 0.0
O407 O 0.60125 0.22876 0.69435 0.0
O408 O 0.63136 0.28756 0.70516 0.0
C409 C 0.61574 0.22885 0.68493 0.0
O410 O 0.6258 0.21275 0.73744 0.0
C411 C 0.61463 0.28557 0.71217 0.0
O412 O 0.61519 0.2348 0.74333 0.0
O413 O 0.60312 0.26926 0.72091 0.0
C414 C 0.32504 0.60857 0.91228 0.0
O415 O 0.32688 0.59426 0.91912 0.0
Cd416 Cd 0.35933 0.59585 0.92652 0.0
O417 O 0.34128 0.62593 0.90891 0.0
Cd418 Cd 0.3805 0.64428 0.91223 0.0
C419 C 0.38333 0.60957 0.88468 0.0
O420 O 0.37791 0.62833 0.94037 0.0
O421 O 0.40992 0.64756 0.93163 0.0
O422 O 0.3771 0.67395 0.91839 0.0
C423 C 0.3973 0.63535 0.94334 0.0
O424 O 0.37574 0.59672 0.8975 0.0
C425 C 0.3928 0.68631 0.90888 0.0
O426 O 0.38545 0.62724 0.88614 0.0
O427 O 0.40287 0.6791 0.90074 0.0
C428 C 0.73174 0.40727 0.05742 0.0
O429 O 0.7495 0.42167 0.05204 0.0
Cd430 Cd 0.77859 0.41789 0.04368 0.0
O431 O 0.72845 0.38917 0.059 0.0
Cd432 Cd 0.74863 0.37105 0.05406 0.0
C433 C 0.78747 0.40101 0.0836 0.0
O434 O 0.763 0.38761 0.02548 0.0
O435 O 0.77597 0.36978 0.03527 0.0
O436 O 0.71375 0.34161 0.04748 0.0
C437 C 0.77511 0.3806 0.02278 0.0
O438 O 0.79389 0.41512 0.07191 0.0
C439 C 0.71705 0.32865 0.05521 0.0
O440 O 0.77074 0.38385 0.08096 0.0
O441 O 0.73501 0.33539 0.0625 0.0
C442 C 0.32835 0.73874 0.21359 0.0
O443 O 0.33117 0.75509 0.20642 0.0
Cd444 Cd 0.3648 0.78384 0.1989 0.0
O445 O 0.34394 0.73618 0.21667 0.0
Cd446 Cd 0.38304 0.75361 0.212 0.0
C447 C 0.38975 0.79179 0.24039 0.0
O448 O 0.38166 0.76837 0.18398 0.0
O449 O 0.41316 0.77784 0.19275 0.0
O450 O 0.37566 0.71939 0.2047 0.0
C451 C 0.4013 0.77912 0.18113 0.0
O452 O 0.38165 0.79731 0.2281 0.0
C453 C 0.39116 0.72067 0.21337 0.0
O454 O 0.39144 0.77601 0.23838 0.0
O455 O 0.40294 0.73734 0.2217 0.0
C456 C 0.14455 0.62368 0.26077 0.0
C457 C 0.1438 0.61302 0.27645 0.0
C458 C 0.16362 0.63545 0.25157 0.0
C459 C 0.21737 0.64398 0.24559 0.0
H460 H 0.23286 0.69999 0.23617 0.0
C461 C 0.30326 0.70686 0.23029 0.0
C462 C 0.30666 0.72262 0.21849 0.0
C463 C 0.28276 0.69222 0.23551 0.0
C464 C 0.2287 0.68431 0.23835 0.0
H465 H 0.16263 0.60627 0.29453 0.0
H466 H 0.1956 0.62634 0.27824 0.0
H467 H 0.19787 0.67618 0.24789 0.0
H468 H 0.29117 0.73489 0.20233 0.0
H469 H 0.25549 0.7091 0.21099 0.0
H470 H 0.24816 0.65205 0.23606 0.0
C471 C 0.18141 0.62547 0.27303 0.0
C472 C 0.20862 0.67068 0.24511 0.0
C473 C 0.16244 0.61389 0.28232 0.0
C474 C 0.28911 0.7231 0.21163 0.0
C475 C 0.26863 0.70834 0.21667 0.0
C476 C 0.2374 0.65756 0.23865 0.0
C477 C 0.18227 0.63664 0.25775 0.0
C478 C 0.20286 0.65046 0.24904 0.0
C479 C 0.26518 0.69288 0.22888 0.0
C480 C 0.24343 0.67799 0.23518 0.0
H481 H 0.13046 0.62309 0.25567 0.0
H482 H 0.16382 0.64376 0.2397 0.0
H483 H 0.21324 0.62841 0.24835 0.0
H484 H 0.31646 0.70611 0.23586 0.0
H485 H 0.28077 0.68073 0.24513 0.0
C486 C 0.5682 0.1695 0.4571 0.0
C487 C 0.56419 0.15437 0.4442 0.0
C488 C 0.57169 0.18853 0.45186 0.0
C489 C 0.58693 0.22326 0.41278 0.0
H490 H 0.56841 0.25181 0.4446 0.0
C491 C 0.59684 0.30354 0.39924 0.0
C492 C 0.60727 0.31753 0.41334 0.0
C493 C 0.5903 0.28287 0.40136 0.0
C494 C 0.57362 0.24397 0.43558 0.0
H495 H 0.56063 0.14724 0.41568 0.0
H496 H 0.56621 0.18051 0.40643 0.0
H497 H 0.55827 0.21664 0.45106 0.0
H498 H 0.61905 0.3209 0.44066 0.0
H499 H 0.60715 0.2848 0.44447 0.0
H500 H 0.60206 0.25082 0.39723 0.0
C501 C 0.567 0.17774 0.42062 0.0
C502 C 0.56795 0.22387 0.43932 0.0
C503 C 0.56373 0.15868 0.42588 0.0
C504 C 0.61108 0.3105 0.42954 0.0
C505 C 0.6042 0.28985 0.43177 0.0
C506 C 0.59232 0.24333 0.40889 0.0
C507 C 0.57102 0.1929 0.43358 0.0
C508 C 0.57503 0.21343 0.42827 0.0
C509 C 0.5937 0.27586 0.41774 0.0
C510 C 0.58614 0.25398 0.42054 0.0
H511 H 0.56913 0.16677 0.47128 0.0
H512 H 0.57534 0.19995 0.46221 0.0
H513 H 0.5928 0.21577 0.40405 0.0
H514 H 0.59376 0.30857 0.38659 0.0
H515 H 0.5822 0.2723 0.39038 0.0
C516 C 0.42015 0.56387 0.61749 0.0
C517 C 0.4412 0.57982 0.61961 0.0
C518 C 0.40578 0.56678 0.60758 0.0
C519 C 0.39528 0.60701 0.59574 0.0
H520 H 0.35389 0.56694 0.56285 0.0
C521 C 0.33329 0.62053 0.56173 0.0
C522 C 0.31267 0.60373 0.56011 0.0
C523 C 0.34997 0.61778 0.56675 0.0
C524 C 0.3652 0.57819 0.57214 0.0
H525 H 0.46384 0.61103 0.61205 0.0
H526 H 0.43853 0.61622 0.59512 0.0
H527 H 0.3815 0.56166 0.57528 0.0
H528 H 0.29342 0.5708 0.56229 0.0
H529 H 0.32238 0.56602 0.57167 0.0
H530 H 0.37867 0.62316 0.59334 0.0
C531 C 0.43322 0.60151 0.60126 0.0
C532 C 0.38106 0.5752 0.57917 0.0
C533 C 0.44768 0.59853 0.61101 0.0
C534 C 0.30915 0.58405 0.56337 0.0
C535 C 0.32581 0.58132 0.56863 0.0
C536 C 0.37931 0.60989 0.5889 0.0
C537 C 0.41205 0.58577 0.59971 0.0
C538 C 0.39617 0.58953 0.59113 0.0
C539 C 0.34641 0.59817 0.57053 0.0
C540 C 0.36396 0.59545 0.5771 0.0
H541 H 0.41445 0.54937 0.62415 0.0
H542 H 0.3895 0.55446 0.60678 0.0
H543 H 0.4065 0.61813 0.60517 0.0
H544 H 0.33658 0.63587 0.55909 0.0
H545 H 0.36567 0.63107 0.56767 0.0
C546 C 0.84281 0.4294 0.77537 0.0
C547 C 0.85996 0.42613 0.77655 0.0
C548 C 0.82356 0.41437 0.76809 0.0
C549 C 0.7986 0.36681 0.74072 0.0
H550 H 0.74828 0.35461 0.7678 0.0
C551 C 0.71956 0.29154 0.73157 0.0
C552 C 0.70098 0.29257 0.73123 0.0
C553 C 0.73889 0.30871 0.73613 0.0
C554 C 0.76214 0.35799 0.75995 0.0
H555 H 0.87072 0.40501 0.77018 0.0
H556 H 0.83707 0.37867 0.75779 0.0
H557 H 0.78236 0.38351 0.77671 0.0
H558 H 0.68818 0.31247 0.73553 0.0
H559 H 0.72196 0.34243 0.74347 0.0
H560 H 0.77839 0.34105 0.72416 0.0
C561 C 0.83848 0.39287 0.76238 0.0
C562 C 0.78167 0.37458 0.76502 0.0
C563 C 0.85771 0.40787 0.76965 0.0
C564 C 0.70217 0.31112 0.73571 0.0
C565 C 0.72151 0.32829 0.74031 0.0
C566 C 0.77908 0.3502 0.73567 0.0
C567 C 0.82107 0.39579 0.76181 0.0
C568 C 0.80016 0.37906 0.75558 0.0
C569 C 0.7401 0.32729 0.74049 0.0
C570 C 0.76067 0.34548 0.74535 0.0
H571 H 0.84399 0.44324 0.78068 0.0
H572 H 0.81052 0.41719 0.76763 0.0
H573 H 0.81249 0.37004 0.73301 0.0
H574 H 0.71924 0.2775 0.72823 0.0
H575 H 0.75288 0.30737 0.73641 0.0
C576 C 0.42247 0.85454 0.935 0.0
C577 C 0.44295 0.87172 0.93415 0.0
C578 C 0.41825 0.83575 0.92808 0.0
C579 C 0.44435 0.80645 0.91818 0.0
H580 H 0.3896 0.76823 0.89769 0.0
C581 C 0.41894 0.72255 0.90051 0.0
C582 C 0.39921 0.70812 0.90772 0.0
C583 C 0.42531 0.74331 0.90037 0.0
C584 C 0.40497 0.77875 0.90336 0.0
H585 H 0.47493 0.88267 0.9248 0.0
H586 H 0.46751 0.84967 0.91262 0.0
H587 H 0.3992 0.80362 0.90286 0.0
H588 H 0.37047 0.70405 0.91997 0.0
H589 H 0.38148 0.74014 0.91958 0.0
H590 H 0.44989 0.78138 0.91894 0.0
C591 C 0.45478 0.85081 0.91884 0.0
C592 C 0.41047 0.79901 0.90636 0.0
C593 C 0.45903 0.8697 0.9258 0.0
C594 C 0.38578 0.71478 0.91435 0.0
C595 C 0.39203 0.73545 0.91401 0.0
C596 C 0.43889 0.78619 0.91505 0.0
C597 C 0.43437 0.83354 0.92011 0.0
C598 C 0.42995 0.81296 0.91433 0.0
C599 C 0.41193 0.74996 0.90719 0.0
C600 C 0.4189 0.772 0.9081 0.0
H601 H 0.4098 0.85535 0.94171 0.0
H602 H 0.40247 0.82273 0.92968 0.0
H603 H 0.4594 0.81671 0.92448 0.0
H604 H 0.42963 0.71786 0.89531 0.0
H605 H 0.4407 0.75417 0.89496 0.0
C606 C 0.62485 0.4755 0.10618 0.0
C607 C 0.60284 0.46344 0.10861 0.0
C608 C 0.6359 0.46788 0.09682 0.0
C609 C 0.63536 0.42105 0.0889 0.0
H610 H 0.67931 0.4527 0.05406 0.0
C611 C 0.69359 0.39599 0.06328 0.0
C612 C 0.71473 0.41174 0.06143 0.0
C613 C 0.67762 0.40058 0.06637 0.0
C614 C 0.6672 0.44372 0.06387 0.0
H615 H 0.57514 0.43415 0.10207 0.0
H616 H 0.59477 0.42057 0.08643 0.0
H617 H 0.65529 0.46425 0.06365 0.0
H618 H 0.73572 0.44462 0.06174 0.0
H619 H 0.70822 0.45254 0.06767 0.0
H620 H 0.64796 0.40116 0.09 0.0
C621 C 0.60329 0.43598 0.09178 0.0
C622 C 0.65337 0.45027 0.06922 0.0
C623 C 0.59212 0.44375 0.10086 0.0
C624 C 0.71958 0.4321 0.06294 0.0
C625 C 0.70373 0.43666 0.06617 0.0
C626 C 0.6494 0.41462 0.08373 0.0
C627 C 0.62531 0.44791 0.08991 0.0
C628 C 0.63766 0.43927 0.08211 0.0
C629 C 0.68251 0.421 0.06778 0.0
C630 C 0.66587 0.42621 0.07153 0.0
H631 H 0.63384 0.49052 0.11222 0.0
H632 H 0.65293 0.47729 0.09577 0.0
H633 H 0.62346 0.4124 0.09898 0.0
H634 H 0.68933 0.38015 0.06208 0.0
H635 H 0.66143 0.38814 0.06743 0.0
C636 C 0.43358 0.85517 0.49917 0.0
C637 C 0.43004 0.8706 0.5057 0.0
C638 C 0.42365 0.83594 0.50707 0.0
C639 C 0.39168 0.80537 0.54621 0.0
H640 H 0.36918 0.76184 0.51057 0.0
C641 C 0.32515 0.72129 0.55937 0.0
C642 C 0.32725 0.70595 0.55061 0.0
C643 C 0.33987 0.74192 0.55631 0.0
C644 C 0.3756 0.77377 0.52074 0.0
H645 H 0.4143 0.87809 0.52662 0.0
H646 H 0.39615 0.8441 0.5399 0.0
H647 H 0.39104 0.7969 0.50094 0.0
H648 H 0.34713 0.70017 0.53278 0.0
H649 H 0.37275 0.736 0.52757 0.0
H650 H 0.37544 0.78188 0.56595 0.0
C651 C 0.40688 0.84706 0.52876 0.0
C652 C 0.3882 0.79392 0.51523 0.0
C653 C 0.41708 0.86649 0.52097 0.0
C654 C 0.34491 0.71161 0.53954 0.0
C655 C 0.35956 0.73214 0.53652 0.0
C656 C 0.37887 0.78508 0.55175 0.0
C657 C 0.40957 0.83139 0.52152 0.0
C658 C 0.39652 0.80999 0.52786 0.0
C659 C 0.35689 0.74751 0.54445 0.0
C660 C 0.3708 0.76909 0.53904 0.0
H661 H 0.4432 0.85751 0.48734 0.0
H662 H 0.42648 0.82437 0.50142 0.0
H663 H 0.3979 0.81738 0.55628 0.0
H664 H 0.31174 0.71739 0.56803 0.0
H665 H 0.33738 0.75345 0.56256 0.0
C666 C 0.55738 0.41171 0.69537 0.0
C667 C 0.57329 0.42976 0.68734 0.0
C668 C 0.56098 0.39573 0.69928 0.0
C669 C 0.59377 0.37482 0.68405 0.0
H670 H 0.57818 0.34503 0.72905 0.0
C671 C 0.62296 0.32 0.70158 0.0
C672 C 0.60895 0.30156 0.71017 0.0
C673 C 0.61771 0.3351 0.69941 0.0
C674 C 0.58237 0.35303 0.71632 0.0
H675 H 0.60553 0.44518 0.67734 0.0
H676 H 0.61184 0.41755 0.68435 0.0
H677 H 0.57056 0.37253 0.72451 0.0
H678 H 0.57847 0.28456 0.72336 0.0
H679 H 0.56911 0.31089 0.71929 0.0
H680 H 0.6054 0.3554 0.6757 0.0
C681 C 0.59655 0.41569 0.68754 0.0
C682 C 0.57804 0.36878 0.71375 0.0
C683 C 0.59301 0.43164 0.68375 0.0
C684 C 0.58961 0.29862 0.71669 0.0
C685 C 0.5843 0.31375 0.71445 0.0
C686 C 0.59797 0.35906 0.68656 0.0
C687 C 0.58049 0.39743 0.69505 0.0
C688 C 0.584 0.38004 0.69768 0.0
C689 C 0.59825 0.33213 0.70567 0.0
C690 C 0.59263 0.34816 0.70282 0.0
H691 H 0.54205 0.40985 0.69838 0.0
H692 H 0.5483 0.3818 0.70504 0.0
H693 H 0.59812 0.38291 0.67136 0.0
H694 H 0.63807 0.32282 0.69654 0.0
H695 H 0.62903 0.34922 0.69292 0.0
C696 C 0.14446 0.54996 0.86219 0.0
C697 C 0.14539 0.55994 0.84602 0.0
C698 C 0.16246 0.55687 0.87289 0.0
C699 C 0.21644 0.60024 0.88114 0.0
H700 H 0.22942 0.55791 0.89163 0.0
C701 C 0.301 0.61773 0.89631 0.0
C702 C 0.3037 0.60483 0.90806 0.0
C703 C 0.28073 0.61339 0.89154 0.0
C704 C 0.22593 0.56992 0.8892 0.0
H705 H 0.16587 0.58554 0.82887 0.0
H706 H 0.19704 0.59773 0.84767 0.0
H707 H 0.1952 0.54863 0.87905 0.0
H708 H 0.28729 0.57787 0.92478 0.0
H709 H 0.25203 0.57063 0.91689 0.0
H710 H 0.2473 0.62158 0.8911 0.0
C711 C 0.18236 0.58463 0.85211 0.0
C712 C 0.20628 0.56457 0.88196 0.0
C713 C 0.16444 0.57764 0.84134 0.0
C714 C 0.28574 0.58795 0.91548 0.0
C715 C 0.26551 0.58375 0.91089 0.0
C716 C 0.23607 0.6056 0.88855 0.0
C717 C 0.1817 0.57401 0.86773 0.0
C718 C 0.20148 0.57968 0.87753 0.0
C719 C 0.26273 0.59618 0.8986 0.0
C720 C 0.24121 0.59053 0.89234 0.0
H721 H 0.12994 0.53652 0.86637 0.0
H722 H 0.16147 0.54855 0.885 0.0
H723 H 0.21305 0.61218 0.87799 0.0
H724 H 0.31453 0.63085 0.89035 0.0
H725 H 0.27921 0.62315 0.88185 0.0
C726 C 0.59457 0.151 0.01655 0.0
C727 C 0.57352 0.14665 0.01696 0.0
C728 C 0.61064 0.16849 0.02496 0.0
C729 C 0.62082 0.21293 0.05467 0.0
H730 H 0.67303 0.24012 0.02733 0.0
C731 C 0.67961 0.3002 0.05222 0.0
C732 C 0.701 0.30669 0.05516 0.0
C733 C 0.66457 0.2794 0.05113 0.0
C734 C 0.65864 0.23257 0.03523 0.0
H735 H 0.55285 0.15668 0.02801 0.0
H736 H 0.58085 0.18776 0.04138 0.0
H737 H 0.64581 0.20575 0.01893 0.0
H738 H 0.72342 0.29657 0.05956 0.0
H739 H 0.69712 0.26012 0.05693 0.0
H740 H 0.63343 0.24072 0.07004 0.0
C741 C 0.58503 0.17749 0.03492 0.0
C742 C 0.64301 0.21276 0.03053 0.0
C743 C 0.5689 0.15974 0.02688 0.0
C744 C 0.70703 0.29199 0.05732 0.0
C745 C 0.69205 0.27119 0.05581 0.0
C746 C 0.6363 0.23296 0.05908 0.0
C747 C 0.60624 0.18243 0.03366 0.0
C748 C 0.62372 0.20271 0.04001 0.0
C749 C 0.67074 0.26476 0.05258 0.0
C750 C 0.65521 0.24299 0.04925 0.0
H751 H 0.59893 0.14145 0.00902 0.0
H752 H 0.62663 0.17135 0.02413 0.0
H753 H 0.60647 0.20564 0.06259 0.0
H754 H 0.67453 0.31121 0.05059 0.0
H755 H 0.64824 0.27477 0.04848 0.0
C756 C 0.41832 0.5773 0.18251 0.0
C757 C 0.43975 0.58296 0.18206 0.0
C758 C 0.41232 0.59104 0.18859 0.0
C759 C 0.42946 0.6386 0.21421 0.0
H760 H 0.39242 0.6452 0.18141 0.0
C761 C 0.41551 0.70707 0.21822 0.0
C762 C 0.39562 0.70378 0.2131 0.0
C763 C 0.4202 0.69145 0.21642 0.0
C764 C 0.40243 0.64334 0.19095 0.0
H765 H 0.47157 0.60705 0.18852 0.0
H766 H 0.46104 0.63113 0.1992 0.0
H767 H 0.40163 0.61926 0.17528 0.0
H768 H 0.36468 0.68129 0.20301 0.0
H769 H 0.37254 0.65393 0.20046 0.0
H770 H 0.43019 0.66268 0.22993 0.0
C771 C 0.44892 0.61604 0.19482 0.0
C772 C 0.40776 0.62848 0.18738 0.0
C773 C 0.45496 0.60234 0.18859 0.0
C774 C 0.38024 0.68437 0.20686 0.0
C775 C 0.38482 0.66871 0.20528 0.0
C776 C 0.42395 0.65339 0.21791 0.0
C777 C 0.42759 0.6107 0.19446 0.0
C778 C 0.42139 0.62599 0.19891 0.0
C779 C 0.40501 0.67216 0.20964 0.0
C780 C 0.41042 0.656 0.20626 0.0
H781 H 0.40623 0.56257 0.17741 0.0
H782 H 0.39574 0.58644 0.18833 0.0
H783 H 0.43991 0.63692 0.22338 0.0
H784 H 0.4277 0.7219 0.22304 0.0
H785 H 0.43598 0.69476 0.21974 0.0
C786 C 0.85633 0.46588 0.3466 0.0
C787 C 0.85921 0.4493 0.34294 0.0
C788 C 0.83779 0.46276 0.35479 0.0
C789 C 0.79023 0.42472 0.38004 0.0
H790 H 0.76601 0.45564 0.36081 0.0
C791 C 0.70405 0.40464 0.39371 0.0
C792 C 0.70092 0.42105 0.39761 0.0
C793 C 0.72387 0.40824 0.38816 0.0
C794 C 0.77268 0.44704 0.36646 0.0
H795 H 0.84511 0.41652 0.34523 0.0
H796 H 0.81255 0.41099 0.35926 0.0
H797 H 0.79985 0.46177 0.34944 0.0
H798 H 0.71626 0.4541 0.39887 0.0
H799 H 0.75071 0.46029 0.38912 0.0
H800 H 0.76268 0.40969 0.39678 0.0
C801 C 0.82477 0.42646 0.35614 0.0
C802 C 0.79213 0.4506 0.36 0.0
C803 C 0.84341 0.42961 0.34807 0.0
C804 C 0.71808 0.4411 0.39594 0.0
C805 C 0.73781 0.44467 0.39027 0.0
C806 C 0.77068 0.42107 0.38643 0.0
C807 C 0.8216 0.44297 0.35936 0.0
C808 C 0.80116 0.43948 0.36669 0.0
C809 C 0.7409 0.42829 0.38625 0.0
C810 C 0.76171 0.4322 0.37969 0.0
H811 H 0.8684 0.48126 0.34302 0.0
H812 H 0.83608 0.47588 0.35743 0.0
H813 H 0.79685 0.41608 0.38567 0.0
H814 H 0.69119 0.38901 0.39489 0.0
H815 H 0.72575 0.39532 0.385 0.0
C816 C 0.12975 0.57794 0.39333 0.0
C817 C 0.11578 0.58545 0.3926 0.0
C818 C 0.14309 0.58227 0.40813 0.0
C819 C 0.16867 0.62008 0.44432 0.0
H820 H 0.18023 0.57977 0.46436 0.0
C821 C 0.22048 0.6361 0.50753 0.0
C822 C 0.23448 0.62863 0.50753 0.0
C823 C 0.20553 0.63059 0.49383 0.0
C824 C 0.17734 0.59126 0.45878 0.0
H825 H 0.10425 0.60266 0.40719 0.0
H826 H 0.12761 0.61028 0.43302 0.0
H827 H 0.15424 0.56993 0.4403 0.0
H828 H 0.24403 0.60977 0.49302 0.0
H829 H 0.21816 0.60039 0.46894 0.0
H830 H 0.19193 0.64147 0.46263 0.0
C831 C 0.12844 0.6013 0.42201 0.0
C832 C 0.16242 0.5856 0.44504 0.0
C833 C 0.11506 0.59693 0.40722 0.0
C834 C 0.23341 0.61573 0.49343 0.0
C835 C 0.21848 0.61023 0.4797 0.0
C836 C 0.18363 0.62575 0.45803 0.0
C837 C 0.14279 0.59424 0.42251 0.0
C838 C 0.15798 0.59997 0.43761 0.0
C839 C 0.20429 0.61751 0.4798 0.0
C840 C 0.18821 0.61142 0.46537 0.0
H841 H 0.13096 0.56934 0.38217 0.0
H842 H 0.15415 0.57683 0.40801 0.0
H843 H 0.16585 0.63158 0.43868 0.0
H844 H 0.22086 0.64603 0.51825 0.0
H845 H 0.19469 0.63627 0.49442 0.0
C846 C 0.59824 0.11948 0.55574 0.0
C847 C 0.57872 0.11173 0.54689 0.0
C848 C 0.60213 0.13031 0.57193 0.0
C849 C 0.57635 0.14075 0.60993 0.0
H850 H 0.62836 0.19316 0.61178 0.0
C851 C 0.59068 0.20257 0.66294 0.0
C852 C 0.61122 0.21444 0.66985 0.0
C853 C 0.58665 0.18897 0.64865 0.0
C854 C 0.61391 0.17844 0.61166 0.0
H855 H 0.54788 0.1091 0.5484 0.0
H856 H 0.55457 0.12757 0.57672 0.0
H857 H 0.62161 0.17044 0.58624 0.0
H858 H 0.64357 0.22112 0.6675 0.0
H859 H 0.63651 0.19718 0.64297 0.0
H860 H 0.56863 0.14872 0.63537 0.0
C861 C 0.56678 0.12513 0.5712 0.0
C862 C 0.61006 0.16542 0.597 0.0
C863 C 0.56295 0.11446 0.55497 0.0
C864 C 0.62759 0.21232 0.66235 0.0
C865 C 0.62356 0.19865 0.64821 0.0
C866 C 0.58026 0.15371 0.62469 0.0
C867 C 0.58653 0.13349 0.57967 0.0
C868 C 0.59117 0.14653 0.59591 0.0
C869 C 0.60308 0.18689 0.6411 0.0
C870 C 0.59903 0.17279 0.62566 0.0
H871 H 0.61062 0.11739 0.55005 0.0
H872 H 0.61742 0.1364 0.57831 0.0
H873 H 0.56172 0.12618 0.6095 0.0
H874 H 0.57776 0.20391 0.66844 0.0
H875 H 0.57075 0.18036 0.64334 0.0
C876 C 0.45236 0.56037 0.75624 0.0
C877 C 0.44671 0.56377 0.73913 0.0
C878 C 0.44331 0.56332 0.77172 0.0
C879 C 0.42453 0.59519 0.78889 0.0
H880 H 0.39551 0.5545 0.82588 0.0
C881 C 0.38944 0.61269 0.85138 0.0
C882 C 0.3896 0.60371 0.86778 0.0
C883 C 0.39496 0.60678 0.83536 0.0
C884 C 0.40388 0.56618 0.81586 0.0
H885 H 0.42717 0.57269 0.72461 0.0
H886 H 0.41176 0.57844 0.75177 0.0
H887 H 0.40777 0.54552 0.79864 0.0
H888 H 0.39603 0.58181 0.88041 0.0
H889 H 0.40675 0.5723 0.85274 0.0
H890 H 0.42184 0.61623 0.80623 0.0
C891 C 0.4229 0.57318 0.75315 0.0
C892 C 0.41071 0.56093 0.80021 0.0
C893 C 0.4316 0.5698 0.73768 0.0
C894 C 0.39559 0.58887 0.86791 0.0
C895 C 0.40157 0.58329 0.85198 0.0
C896 C 0.41814 0.60059 0.80469 0.0
C897 C 0.42886 0.57017 0.77028 0.0
C898 C 0.42105 0.57539 0.78662 0.0
C899 C 0.40124 0.59209 0.83543 0.0
C900 C 0.40772 0.58618 0.81843 0.0
H901 H 0.46402 0.55575 0.75763 0.0
H902 H 0.44819 0.56102 0.78482 0.0
H903 H 0.43272 0.60665 0.77863 0.0
H904 H 0.38466 0.62401 0.85086 0.0
H905 H 0.39404 0.61362 0.8229 0.0
C906 C 0.89305 0.43937 0.89262 0.0
C907 C 0.90433 0.46059 0.88998 0.0
C908 C 0.88153 0.43111 0.9084 0.0
C909 C 0.86366 0.41662 0.94564 0.0
H910 H 0.83319 0.44229 0.9638 0.0
C911 C 0.8085 0.38649 0.00804 0.0
C912 C 0.79021 0.38798 0.00762 0.0
C913 C 0.82374 0.3954 0.99447 0.0
C914 C 0.84142 0.43479 0.95881 0.0
H915 H 0.9133 0.48987 0.90209 0.0
H916 H 0.89365 0.47551 0.92999 0.0
H917 H 0.85799 0.45797 0.93919 0.0
H918 H 0.77299 0.39902 0.99232 0.0
H919 H 0.79907 0.41383 0.96835 0.0
H920 H 0.84615 0.39284 0.96468 0.0
C921 C 0.89322 0.46519 0.91965 0.0
C922 C 0.85598 0.44402 0.94488 0.0
C923 C 0.90455 0.47345 0.90373 0.0
C924 C 0.78705 0.39782 0.99308 0.0
C925 C 0.80211 0.40648 0.97943 0.0
C926 C 0.8489 0.40726 0.95948 0.0
C927 C 0.88117 0.44389 0.92201 0.0
C928 C 0.86711 0.43493 0.93794 0.0
C929 C 0.82086 0.40576 0.98013 0.0
C930 C 0.83736 0.41609 0.96605 0.0
H931 H 0.89235 0.42908 0.88211 0.0
H932 H 0.87218 0.41466 0.90955 0.0
H933 H 0.87218 0.40934 0.94083 0.0
H934 H 0.81138 0.37906 0.01915 0.0
H935 H 0.83804 0.39466 -0.00449 0.0
C936 C 0.46556 0.89862 0.05429 0.0
C937 C 0.45012 0.90364 0.04997 0.0
C938 C 0.46404 0.88814 0.07015 0.0
C939 C 0.43497 0.8716 0.11392 0.0
H940 H 0.44678 0.82746 0.10977 0.0
C941 C 0.39645 0.80064 0.15871 0.0
C942 C 0.40974 0.79477 0.1669 0.0
C943 C 0.40437 0.81602 0.14581 0.0
C944 C 0.44372 0.83992 0.11119 0.0
H945 H 0.42155 0.90246 0.05948 0.0
H946 H 0.41834 0.88345 0.08658 0.0
H947 H 0.45542 0.85113 0.08481 0.0
H948 H 0.44167 0.80015 0.16784 0.0
H949 H 0.45544 0.82679 0.14467 0.0
H950 H 0.42214 0.85952 0.13993 0.0
C951 C 0.43188 0.88788 0.07794 0.0
C952 C 0.44873 0.85356 0.09693 0.0
C953 C 0.43352 0.89853 0.0622 0.0
C954 C 0.4311 0.8044 0.16173 0.0
C955 C 0.43895 0.81958 0.14852 0.0
C956 C 0.42968 0.85778 0.12802 0.0
C957 C 0.44694 0.88228 0.08201 0.0
C958 C 0.44399 0.86931 0.09796 0.0
C959 C 0.42567 0.82563 0.1406 0.0
C960 C 0.43362 0.8416 0.12662 0.0
H961 H 0.47848 0.90216 0.04514 0.0
H962 H 0.47611 0.88436 0.07297 0.0
H963 H 0.43158 0.88383 0.11539 0.0
H964 H 0.37994 0.79356 0.16245 0.0
H965 H 0.39377 0.82026 0.13972 0.0
C966 C 0.5762 0.47122 0.24578 0.0
C967 C 0.5675 0.45857 0.2306 0.0
C968 C 0.57723 0.46304 0.26224 0.0
C969 C 0.58073 0.42081 0.2812 0.0
H970 H 0.5695 0.43971 0.32623 0.0
C971 C 0.59615 0.3963 0.35055 0.0
C972 C 0.60659 0.41227 0.36313 0.0
C973 C 0.58791 0.39935 0.33469 0.0
C974 C 0.57277 0.43433 0.31378 0.0
H975 H 0.55282 0.42742 0.22072 0.0
H976 H 0.55475 0.41306 0.24962 0.0
H977 H 0.56117 0.44987 0.29777 0.0
H978 H 0.61631 0.44388 0.36896 0.0
H979 H 0.60229 0.4492 0.34134 0.0
H980 H 0.59308 0.4059 0.29716 0.0
C981 C 0.56073 0.42931 0.24872 0.0
C982 C 0.56797 0.44012 0.2975 0.0
C983 C 0.5595 0.43749 0.23226 0.0
C984 C 0.60834 0.43121 0.3596 0.0
C985 C 0.60013 0.43423 0.34381 0.0
C986 C 0.58565 0.4151 0.2975 0.0
C987 C 0.56973 0.44204 0.26384 0.0
C988 C 0.57235 0.43382 0.28105 0.0
C989 C 0.58988 0.41839 0.33112 0.0
C990 C 0.58221 0.42222 0.31395 0.0
H991 H 0.58231 0.4875 0.2449 0.0
H992 H 0.58447 0.47326 0.27361 0.0
H993 H 0.58443 0.41586 0.26871 0.0
H994 H 0.59447 0.38151 0.35288 0.0
H995 H 0.57995 0.38679 0.32522 0.0
C996 C 0.43099 0.90001 0.37407 0.0
C997 C 0.44261 0.89753 0.38777 0.0
C998 C 0.4264 0.88876 0.3581 0.0
C999 C 0.44143 0.85746 0.33025 0.0
H1000 H 0.38518 0.83622 0.31063 0.0
C1001 C 0.40761 0.79951 0.27065 0.0
C1002 C 0.39685 0.8038 0.25735 0.0
C1003 C 0.41392 0.8108 0.28672 0.0
C1004 C 0.40099 0.84217 0.31587 0.0
H1005 H 0.45886 0.8816 0.39541 0.0
H1006 H 0.45064 0.86171 0.36754 0.0
H1007 H 0.39511 0.85642 0.33822 0.0
H1008 H 0.38446 0.82348 0.25048 0.0
H1009 H 0.3954 0.84299 0.2784 0.0
H1010 H 0.44712 0.84292 0.30784 0.0
C1011 C 0.44532 0.87257 0.36903 0.0
C1012 C 0.40673 0.85381 0.33165 0.0
C1013 C 0.45003 0.88394 0.38499 0.0
C1014 C 0.39267 0.81969 0.26043 0.0
C1015 C 0.39882 0.83083 0.27648 0.0
C1016 C 0.43562 0.84568 0.31446 0.0
C1017 C 0.43319 0.87464 0.3555 0.0
C1018 C 0.42709 0.8618 0.33894 0.0
C1019 C 0.40941 0.82645 0.28984 0.0
C1020 C 0.41542 0.83812 0.30702 0.0
H1021 H 0.42536 0.91062 0.37573 0.0
H1022 H 0.41745 0.8911 0.3478 0.0
H1023 H 0.45729 0.86351 0.33542 0.0
H1024 H 0.41111 0.78741 0.2687 0.0
H1025 H 0.42196 0.80703 0.29684 0.0
C1026 C 0.55052 0.44669 0.57271 0.0
C1027 C 0.56501 0.46687 0.57805 0.0
C1028 C 0.5529 0.43917 0.55616 0.0
C1029 C 0.59517 0.44611 0.52683 0.0
H1030 H 0.5522 0.41456 0.49112 0.0
C1031 C 0.61711 0.42123 0.46153 0.0
C1032 C 0.60298 0.40183 0.45447 0.0
C1033 C 0.61096 0.42935 0.47556 0.0
C1034 C 0.5643 0.42312 0.50109 0.0
H1035 H 0.59215 0.49546 0.56953 0.0
H1036 H 0.59654 0.48217 0.54088 0.0
H1037 H 0.54336 0.42858 0.51734 0.0
H1038 H 0.57123 0.37576 0.45629 0.0
H1039 H 0.56066 0.38959 0.48145 0.0
H1040 H 0.61594 0.44017 0.51133 0.0
C1041 C 0.58352 0.47215 0.5496 0.0
C1042 C 0.55925 0.43122 0.516 0.0
C1043 C 0.58106 0.47971 0.56601 0.0
C1044 C 0.58243 0.39077 0.46154 0.0
C1045 C 0.57636 0.39877 0.47585 0.0
C1046 C 0.60013 0.43781 0.51216 0.0
C1047 C 0.56987 0.45166 0.54477 0.0
C1048 C 0.57474 0.44297 0.52887 0.0
C1049 C 0.59066 0.4181 0.48315 0.0
C1050 C 0.58487 0.4264 0.49897 0.0
H1051 H 0.53806 0.43638 0.58172 0.0
H1052 H 0.54222 0.42328 0.55274 0.0
H1053 H 0.60728 0.45474 0.5368 0.0
H1054 H 0.63295 0.43026 0.45614 0.0
H1055 H 0.62222 0.44452 0.48044 0.0
C1056 C 0.11619 0.56213 0.70947 0.0
C1057 C 0.12663 0.56319 0.72558 0.0
C1058 C 0.12768 0.56968 0.69351 0.0
C1059 C 0.17957 0.60463 0.67463 0.0
H1060 H 0.16427 0.56441 0.63655 0.0
C1061 C 0.23444 0.61818 0.6138 0.0
C1062 C 0.22523 0.60903 0.59724 0.0
C1063 C 0.2219 0.61398 0.62921 0.0
C1064 C 0.16856 0.57605 0.6468 0.0
H1065 H 0.15708 0.57364 0.73803 0.0
H1066 H 0.17729 0.5874 0.71016 0.0
H1067 H 0.14285 0.55554 0.6637 0.0
H1068 H 0.19566 0.58911 0.58356 0.0
H1069 H 0.17371 0.5826 0.61008 0.0
H1070 H 0.205 0.62534 0.6577 0.0
C1071 C 0.16027 0.58059 0.70985 0.0
C1072 C 0.15629 0.57087 0.66241 0.0
C1073 C 0.14875 0.57266 0.7257 0.0
C1074 C 0.20323 0.59612 0.59623 0.0
C1075 C 0.19066 0.5923 0.6115 0.0
C1076 C 0.19163 0.60998 0.65885 0.0
C1077 C 0.14979 0.57878 0.69356 0.0
C1078 C 0.16183 0.58502 0.67652 0.0
C1079 C 0.19982 0.60088 0.62829 0.0
C1080 C 0.18645 0.59567 0.64479 0.0
H1081 H 0.09912 0.55479 0.70911 0.0
H1082 H 0.11932 0.56816 0.68107 0.0
H1083 H 0.18406 0.6158 0.68536 0.0
H1084 H 0.25139 0.62814 0.61494 0.0
H1085 H 0.22963 0.62064 0.64189 0.0
C1086 C 0.53686 0.11271 0.88111 0.0
C1087 C 0.54356 0.12351 0.89743 0.0
C1088 C 0.5441 0.12295 0.86472 0.0
C1089 C 0.58598 0.17271 0.84563 0.0
H1090 H 0.55031 0.15327 0.80318 0.0
C1091 C 0.60361 0.21806 0.77902 0.0
C1092 C 0.60596 0.20783 0.76416 0.0
C1093 C 0.59526 0.20775 0.79522 0.0
C1094 C 0.56037 0.1588 0.81497 0.0
H1095 H 0.56241 0.15334 0.90965 0.0
H1096 H 0.57421 0.17147 0.88117 0.0
H1097 H 0.53698 0.13553 0.83177 0.0
H1098 H 0.60078 0.1787 0.75435 0.0
H1099 H 0.58547 0.16053 0.78256 0.0
H1100 H 0.609 0.19646 0.82876 0.0
C1101 C 0.56413 0.15503 0.88082 0.0
C1102 C 0.55287 0.14857 0.83133 0.0
C1103 C 0.55727 0.14471 0.89717 0.0
C1104 C 0.59923 0.18698 0.76563 0.0
C1105 C 0.59042 0.17657 0.78168 0.0
C1106 C 0.59325 0.18317 0.82937 0.0
C1107 C 0.55782 0.14429 0.86434 0.0
C1108 C 0.56562 0.15531 0.84689 0.0
C1109 C 0.58864 0.18695 0.79665 0.0
C1110 C 0.58056 0.17623 0.81392 0.0
H1111 H 0.52635 0.09631 0.88107 0.0
H1112 H 0.53917 0.11405 0.85241 0.0
H1113 H 0.59652 0.17815 0.8571 0.0
H1114 H 0.60875 0.23415 0.77829 0.0
H1115 H 0.59397 0.216 0.80664 0.0
C1116 C 0.42864 0.54034 0.05907 0.0
C1117 C 0.44663 0.55196 0.06985 0.0
C1118 C 0.42478 0.54905 0.04414 0.0
C1119 C 0.44778 0.59007 0.0112 0.0
H1120 H 0.39407 0.58809 0.01418 0.0
C1121 C 0.42548 0.63581 0.96274 0.0
C1122 C 0.4042 0.62655 0.95756 0.0
C1123 C 0.43166 0.62695 0.97608 0.0
C1124 C 0.40897 0.58852 0.01289 0.0
H1125 H 0.47517 0.58167 0.07271 0.0
H1126 H 0.4687 0.59647 0.04624 0.0
H1127 H 0.40315 0.5709 0.03682 0.0
H1128 H 0.37278 0.60054 0.96191 0.0
H1129 H 0.38354 0.58475 0.98438 0.0
H1130 H 0.45342 0.60724 0.98698 0.0
C1131 C 0.45759 0.58068 0.04952 0.0
C1132 C 0.41417 0.5787 0.02592 0.0
C1133 C 0.4613 0.57211 0.06464 0.0
C1134 C 0.38928 0.60821 0.96577 0.0
C1135 C 0.39546 0.59921 0.97879 0.0
C1136 C 0.44241 0.59961 -0.0021 0.0
C1137 C 0.43902 0.5694 0.03947 0.0
C1138 C 0.43357 0.57936 0.02519 0.0
C1139 C 0.41668 0.60851 0.98428 0.0
C1140 C 0.42288 0.5989 -0.00144 0.0
H1141 H 0.41725 0.52465 0.06239 0.0
H1142 H 0.41044 0.54 0.03642 0.0
H1143 H 0.46287 0.59078 0.01042 0.0
H1144 H 0.4373 0.64997 0.95662 0.0
H1145 H 0.44809 0.63469 0.98011 0.0
C1146 C 0.88832 0.41818 0.22142 0.0
C1147 C 0.89653 0.43763 0.22937 0.0
C1148 C 0.87731 0.41351 0.2051 0.0
C1149 C 0.87064 0.43608 0.16434 0.0
H1150 H 0.81364 0.38944 0.16291 0.0
C1151 C 0.81434 0.42453 0.10596 0.0
C1152 C 0.79988 0.40455 0.10024 0.0
C1153 C 0.82643 0.42795 0.12146 0.0
C1154 C 0.82966 0.40231 0.1629 0.0
H1155 H 0.89945 0.46737 0.22614 0.0
H1156 H 0.88112 0.45941 0.1974 0.0
H1157 H 0.83505 0.39626 0.18994 0.0
H1158 H 0.78684 0.37248 0.1062 0.0
H1159 H 0.80847 0.37839 0.13287 0.0
H1160 H 0.86565 0.44202 0.13728 0.0
C1161 C 0.88322 0.44783 0.20388 0.0
C1162 C 0.84186 0.40622 0.17843 0.0
C1163 C 0.89387 0.4524 0.22032 0.0
C1164 C 0.79774 0.38806 0.11036 0.0
C1165 C 0.8101 0.39147 0.12571 0.0
C1166 C 0.8586 0.432 0.1487 0.0
C1167 C 0.87464 0.42829 0.19624 0.0
C1168 C 0.86234 0.42329 0.17935 0.0
C1169 C 0.82463 0.41148 0.13147 0.0
C1170 C 0.83781 0.41523 0.14785 0.0
H1171 H 0.89034 0.40652 0.22778 0.0
H1172 H 0.87096 0.39837 0.19936 0.0
H1173 H 0.88649 0.44925 0.16469 0.0
H1174 H 0.8162 0.43756 0.09854 0.0
H1175 H 0.83704 0.44357 0.12567 0.0
loop_
_geom_bond_atom_site_label_1
_geom_bond_atom_site_label_2
_geom_bond_distance
_geom_bond_site_symmetry_2
_ccdc_geom_bond_type
H0 C27 0.929 . S
N1 C26 1.433 . S
N1 C32 1.435 . S
N1 C38 1.423 . S
H2 C28 0.930 . S
H3 C31 0.931 . S
H4 C30 0.929 . S
H5 C33 0.930 . S
H6 C34 0.932 . S
H7 C37 0.929 . S
H8 C36 0.931 . S
H9 C39 0.929 . S
H10 C43 0.932 . S
H11 C40 0.931 . S
H12 C42 0.929 . S
H13 C45 0.929 . S
H14 C46 0.930 . S
H15 C48 0.929 . S
H16 C49 0.931 . S
H17 C51 0.930 . S
H18 C52 0.932 . S
H19 C54 0.931 . S
H20 C55 0.929 . S
H21 C57 0.929 . S
H22 C58 0.918 1_455 S
H23 C60 0.929 . S
N24 C44 1.433 . S
N24 C50 1.435 . S
N24 C56 1.423 . S
H25 C61 0.932 . S
C26 N1 1.433 . S
C26 C27 1.363 . S
C26 C31 1.370 . S
C27 H0 0.929 . S
C27 C26 1.363 . S
C27 C28 1.385 . S
C28 H2 0.930 . S
C28 C27 1.385 . S
C28 C29 1.357 . S
C29 C28 1.357 . S
C29 C30 1.406 . S
C30 H4 0.929 . S
C30 C29 1.406 . S
C30 C31 1.391 . S
C31 H3 0.931 . S
C31 C26 1.370 . S
C31 C30 1.391 . S
C32 N1 1.435 . S
C32 C33 1.358 . S
C32 C37 1.371 . S
C33 H5 0.930 . S
C33 C32 1.358 . S
C33 C34 1.405 . S
C34 H6 0.932 . S
C34 C33 1.405 . S
C34 C35 1.383 . S
C35 C34 1.383 . S
C35 C36 1.393 . S
C36 H8 0.931 . S
C36 C35 1.393 . S
C36 C37 1.382 . S
C37 H7 0.929 . S
C37 C32 1.371 . S
C37 C36 1.382 . S
C38 N1 1.423 . S
C38 C39 1.362 . S
C38 C43 1.388 . S
C39 H9 0.929 . S
C39 C38 1.362 . S
C39 C40 1.376 . S
C40 H11 0.931 . S
C40 C39 1.376 . S
C40 C41 1.396 . S
C41 C40 1.396 . S
C41 C42 1.348 . S
C41 C59 1.472 1_455 S
C42 H12 0.929 . S
C42 C41 1.348 . S
C42 C43 1.443 . S
C43 H10 0.932 . S
C43 C38 1.388 . S
C43 C42 1.443 . S
C44 N24 1.433 . S
C44 C45 1.363 . S
C44 C49 1.370 . S
C45 H13 0.929 . S
C45 C44 1.363 . S
C45 C46 1.385 . S
C46 H14 0.930 . S
C46 C45 1.385 . S
C46 C47 1.357 . S
C47 C46 1.357 . S
C47 C48 1.406 . S
C48 H15 0.929 . S
C48 C47 1.406 . S
C48 C49 1.391 . S
C49 H16 0.931 . S
C49 C44 1.370 . S
C49 C48 1.391 . S
C50 N24 1.435 . S
C50 C51 1.358 . S
C50 C55 1.371 . S
C51 H17 0.930 . S
C51 C50 1.358 . S
C51 C52 1.405 . S
C52 H18 0.932 . S
C52 C51 1.405 . S
C52 C53 1.383 . S
C53 C52 1.383 . S
C53 C54 1.393 . S
C54 H19 0.931 . S
C54 C53 1.393 . S
C54 C55 1.382 . S
C55 H20 0.929 . S
C55 C50 1.371 . S
C55 C54 1.382 . S
C56 N24 1.423 . S
C56 C57 1.362 . S
C56 C61 1.388 . S
C57 H21 0.929 . S
C57 C56 1.362 . S
C57 C58 1.376 . S
C58 H22 0.918 1_655 S
C58 C57 1.376 . S
C58 C59 1.396 . S
C59 C41 1.472 1_655 S
C59 C58 1.396 . S
C59 C60 1.348 . S
C60 H23 0.929 . S
C60 C59 1.348 . S
C60 C61 1.443 . S
C61 H25 0.932 . S
C61 C56 1.388 . S
C61 C60 1.443 . S
H62 C89 0.929 . S
N63 C88 1.433 . S
N63 C94 1.435 . S
N63 C100 1.423 . S
H64 C90 0.930 . S
H65 C93 0.931 . S
H66 C92 0.929 . S
H67 C95 0.930 . S
H68 C96 0.932 . S
H69 C99 0.929 . S
H70 C98 0.931 . S
H71 C101 0.929 . S
H72 C105 0.932 . S
H73 C102 0.931 . S
H74 C104 0.925 1_545 S
H75 C107 0.929 . S
H76 C108 0.930 . S
H77 C110 0.929 . S
H78 C111 0.931 . S
H79 C113 0.930 . S
H80 C114 0.932 . S
H81 C116 0.931 . S
H82 C117 0.929 . S
H83 C119 0.929 . S
H84 C120 0.931 . S
H85 C122 0.929 . S
N86 C106 1.433 . S
N86 C112 1.435 . S
N86 C118 1.423 . S
H87 C123 0.932 . S
C88 N63 1.433 . S
C88 C89 1.363 . S
C88 C93 1.370 . S
C89 H62 0.929 . S
C89 C88 1.363 . S
C89 C90 1.385 . S
C90 H64 0.930 . S
C90 C89 1.385 . S
C90 C91 1.357 . S
C91 C90 1.357 . S
C91 C92 1.406 . S
C92 H66 0.929 . S
C92 C91 1.406 . S
C92 C93 1.391 . S
C93 H65 0.931 . S
C93 C88 1.370 . S
C93 C92 1.391 . S
C94 N63 1.435 . S
C94 C95 1.358 . S
C94 C99 1.371 . S
C95 H67 0.930 . S
C95 C94 1.358 . S
C95 C96 1.405 . S
C96 H68 0.932 . S
C96 C95 1.405 . S
C96 C97 1.383 . S
C97 C96 1.383 . S
C97 C98 1.393 . S
C98 H70 0.931 . S
C98 C97 1.393 . S
C98 C99 1.382 . S
C99 H69 0.929 . S
C99 C94 1.371 . S
C99 C98 1.382 . S
C100 N63 1.423 . S
C100 C101 1.362 . S
C100 C105 1.388 . S
C101 H71 0.929 . S
C101 C100 1.362 . S
C101 C102 1.376 . S
C102 H73 0.931 . S
C102 C101 1.376 . S
C102 C103 1.396 1_565 S
C103 C102 1.396 1_545 S
C103 C104 1.348 1_545 S
C103 C121 1.472 . S
C104 H74 0.925 1_565 S
C104 C103 1.348 1_565 S
C104 C105 1.447 . S
C105 H72 0.932 . S
C105 C100 1.388 . S
C105 C104 1.447 . S
C106 N86 1.433 . S
C106 C107 1.363 . S
C106 C111 1.370 . S
C107 H75 0.929 . S
C107 C106 1.363 . S
C107 C108 1.385 . S
C108 H76 0.930 . S
C108 C107 1.385 . S
C108 C109 1.357 . S
C109 C108 1.357 . S
C109 C110 1.406 . S
C110 H77 0.929 . S
C110 C109 1.406 . S
C110 C111 1.391 . S
C111 H78 0.931 . S
C111 C106 1.370 . S
C111 C110 1.391 . S
C112 N86 1.435 . S
C112 C113 1.358 . S
C112 C117 1.371 . S
C113 H79 0.930 . S
C113 C112 1.358 . S
C113 C114 1.405 . S
C114 H80 0.932 . S
C114 C113 1.405 . S
C114 C115 1.383 . S
C115 C114 1.383 . S
C115 C116 1.393 . S
C116 H81 0.931 . S
C116 C115 1.393 . S
C116 C117 1.382 . S
C117 H82 0.929 . S
C117 C112 1.371 . S
C117 C116 1.382 . S
C118 N86 1.423 . S
C118 C119 1.362 . S
C118 C123 1.388 . S
C119 H83 0.929 . S
C119 C118 1.362 . S
C119 C120 1.376 . S
C120 H84 0.931 . S
C120 C119 1.376 . S
C120 C121 1.396 . S
C121 C103 1.472 . S
C121 C120 1.396 . S
C121 C122 1.348 . S
C122 H85 0.929 . S
C122 C121 1.348 . S
C122 C123 1.443 . S
C123 H87 0.932 . S
C123 C118 1.388 . S
C123 C122 1.443 . S
H124 C151 0.929 . S
N125 C150 1.433 . S
N125 C156 1.435 . S
N125 C162 1.423 . S
H126 C152 0.930 . S
H127 C155 0.931 . S
H128 C154 0.929 . S
H129 C157 0.930 . S
H130 C158 0.932 . S
H131 C161 0.929 . S
H132 C160 0.931 . S
H133 C163 0.929 . S
H134 C167 0.932 . S
H135 C164 0.931 . S
H136 C166 0.929 . S
H137 C169 0.929 . S
H138 C170 0.930 . S
H139 C172 0.929 . S
H140 C173 0.931 . S
H141 C175 0.930 . S
H142 C176 0.932 . S
H143 C178 0.931 . S
H144 C179 0.929 . S
H145 C181 0.929 . S
H146 C182 0.931 . S
H147 C184 0.929 . S
N148 C168 1.433 . S
N148 C174 1.435 . S
N148 C180 1.423 . S
H149 C185 0.932 . S
C150 N125 1.433 . S
C150 C151 1.363 . S
C150 C155 1.370 . S
C151 H124 0.929 . S
C151 C150 1.363 . S
C151 C152 1.385 . S
C152 H126 0.930 . S
C152 C151 1.385 . S
C152 C153 1.357 . S
C153 C152 1.357 . S
C153 C154 1.406 . S
C154 H128 0.929 . S
C154 C153 1.406 . S
C154 C155 1.391 . S
C155 H127 0.931 . S
C155 C150 1.370 . S
C155 C154 1.391 . S
C156 N125 1.435 . S
C156 C157 1.358 . S
C156 C161 1.371 . S
C157 H129 0.930 . S
C157 C156 1.358 . S
C157 C158 1.405 . S
C158 H130 0.932 . S
C158 C157 1.405 . S
C158 C159 1.383 . S
C159 C158 1.383 . S
C159 C160 1.393 . S
C160 H132 0.931 . S
C160 C159 1.393 . S
C160 C161 1.382 . S
C161 H131 0.929 . S
C161 C156 1.371 . S
C161 C160 1.382 . S
C162 N125 1.423 . S
C162 C163 1.362 . S
C162 C167 1.388 . S
C163 H133 0.929 . S
C163 C162 1.362 . S
C163 C164 1.376 . S
C164 H135 0.931 . S
C164 C163 1.376 . S
C164 C165 1.396 . S
C165 C164 1.396 . S
C165 C166 1.348 . S
C165 C183 1.472 . S
C166 H136 0.929 . S
C166 C165 1.348 . S
C166 C167 1.443 . S
C167 H134 0.932 . S
C167 C162 1.388 . S
C167 C166 1.443 . S
C168 N148 1.433 . S
C168 C169 1.363 . S
C168 C173 1.370 . S
C169 H137 0.929 . S
C169 C168 1.363 . S
C169 C170 1.385 . S
C170 H138 0.930 . S
C170 C169 1.385 . S
C170 C171 1.357 . S
C171 C170 1.357 . S
C171 C172 1.406 . S
C172 H139 0.929 . S
C172 C171 1.406 . S
C172 C173 1.391 . S
C173 H140 0.931 . S
C173 C168 1.370 . S
C173 C172 1.391 . S
C174 N148 1.435 . S
C174 C175 1.358 . S
C174 C179 1.371 . S
C175 H141 0.930 . S
C175 C174 1.358 . S
C175 C176 1.405 . S
C176 H142 0.932 . S
C176 C175 1.405 . S
C176 C177 1.383 . S
C177 C176 1.383 . S
C177 C178 1.393 . S
C178 H143 0.931 . S
C178 C177 1.393 . S
C178 C179 1.382 . S
C179 H144 0.929 . S
C179 C174 1.371 . S
C179 C178 1.382 . S
C180 N148 1.423 . S
C180 C181 1.362 . S
C180 C185 1.388 . S
C181 H145 0.929 . S
C181 C180 1.362 . S
C181 C182 1.376 . S
C182 H146 0.931 . S
C182 C181 1.376 . S
C182 C183 1.396 . S
C183 C165 1.472 . S
C183 C182 1.396 . S
C183 C184 1.348 . S
C184 H147 0.929 . S
C184 C183 1.348 . S
C184 C185 1.443 . S
C185 H149 0.932 . S
C185 C180 1.388 . S
C185 C184 1.443 . S
H186 C213 0.929 . S
N187 C212 1.433 . S
N187 C218 1.435 . S
N187 C224 1.423 . S
H188 C214 0.930 . S
H189 C217 0.931 . S
H190 C216 0.929 . S
H191 C219 0.930 . S
H192 C220 0.932 . S
H193 C223 0.929 . S
H194 C222 0.931 . S
H195 C225 0.929 . S
H196 C229 0.932 . S
H197 C226 0.931 . S
H198 C228 0.929 . S
H199 C231 0.929 . S
H200 C232 0.930 . S
H201 C234 0.929 . S
H202 C235 0.931 . S
H203 C237 0.930 . S
H204 C238 0.932 . S
H205 C240 0.931 . S
H206 C241 0.929 . S
H207 C243 0.929 . S
H208 C244 0.931 . S
H209 C246 0.929 . S
N210 C230 1.433 . S
N210 C236 1.435 . S
N210 C242 1.423 . S
H211 C247 0.932 . S
C212 N187 1.433 . S
C212 C213 1.363 . S
C212 C217 1.370 . S
C213 H186 0.929 . S
C213 C212 1.363 . S
C213 C214 1.385 . S
C214 H188 0.930 . S
C214 C213 1.385 . S
C214 C215 1.357 . S
C215 C214 1.357 . S
C215 C216 1.406 . S
C216 H190 0.929 . S
C216 C215 1.406 . S
C216 C217 1.391 . S
C217 H189 0.931 . S
C217 C212 1.370 . S
C217 C216 1.391 . S
C218 N187 1.435 . S
C218 C219 1.358 . S
C218 C223 1.371 . S
C219 H191 0.930 . S
C219 C218 1.358 . S
C219 C220 1.405 . S
C220 H192 0.932 . S
C220 C219 1.405 . S
C220 C221 1.383 . S
C221 C220 1.383 . S
C221 C222 1.393 . S
C222 H194 0.931 . S
C222 C221 1.393 . S
C222 C223 1.382 . S
C223 H193 0.929 . S
C223 C218 1.371 . S
C223 C222 1.382 . S
C224 N187 1.423 . S
C224 C225 1.362 . S
C224 C229 1.388 . S
C225 H195 0.929 . S
C225 C224 1.362 . S
C225 C226 1.376 . S
C226 H197 0.931 . S
C226 C225 1.376 . S
C226 C227 1.396 . S
C227 C226 1.396 . S
C227 C228 1.348 . S
C227 C245 1.472 1_455 S
C228 H198 0.929 . S
C228 C227 1.348 . S
C228 C229 1.443 . S
C229 H196 0.932 . S
C229 C224 1.388 . S
C229 C228 1.443 . S
C230 N210 1.433 . S
C230 C231 1.363 . S
C230 C235 1.370 . S
C231 H199 0.929 . S
C231 C230 1.363 . S
C231 C232 1.385 . S
C232 H200 0.930 . S
C232 C231 1.385 . S
C232 C233 1.357 . S
C233 C232 1.357 . S
C233 C234 1.406 . S
C234 H201 0.929 . S
C234 C233 1.406 . S
C234 C235 1.391 . S
C235 H202 0.931 . S
C235 C230 1.370 . S
C235 C234 1.391 . S
C236 N210 1.435 . S
C236 C237 1.358 . S
C236 C241 1.371 . S
C237 H203 0.930 . S
C237 C236 1.358 . S
C237 C238 1.405 . S
C238 H204 0.932 . S
C238 C237 1.405 . S
C238 C239 1.383 . S
C239 C238 1.383 . S
C239 C240 1.393 . S
C240 H205 0.931 . S
C240 C239 1.393 . S
C240 C241 1.382 . S
C241 H206 0.929 . S
C241 C236 1.371 . S
C241 C240 1.382 . S
C242 N210 1.423 . S
C242 C243 1.362 . S
C242 C247 1.388 . S
C243 H207 0.929 . S
C243 C242 1.362 . S
C243 C244 1.376 . S
C244 H208 0.931 . S
C244 C243 1.376 . S
C244 C245 1.396 . S
C245 C227 1.472 1_655 S
C245 C244 1.396 . S
C245 C246 1.348 . S
C246 H209 0.929 . S
C246 C245 1.348 . S
C246 C247 1.443 . S
C247 H211 0.932 . S
C247 C242 1.388 . S
C247 C246 1.443 . S
H248 C275 0.929 . S
N249 C274 1.433 . S
N249 C280 1.435 . S
N249 C286 1.423 . S
H250 C276 0.930 . S
H251 C279 0.931 . S
H252 C278 0.929 . S
H253 C281 0.930 . S
H254 C282 0.932 . S
H255 C285 0.929 . S
H256 C284 0.931 . S
H257 C287 0.929 . S
H258 C291 0.932 . S
H259 C288 0.931 . S
H260 C290 0.929 . S
H261 C293 0.929 . S
H262 C294 0.930 . S
H263 C296 0.929 . S
H264 C297 0.931 . S
H265 C299 0.930 1_554 S
H266 C300 0.932 . S
H267 C302 0.931 . S
H268 C303 0.929 . S
H269 C305 0.929 . S
H270 C306 0.911 1_554 S
H271 C308 0.929 . S
N272 C292 1.433 . S
N272 C298 1.435 1_554 S
N272 C304 1.423 1_554 S
H273 C309 0.932 . S
C274 N249 1.433 . S
C274 C275 1.363 . S
C274 C279 1.370 . S
C275 H248 0.929 . S
C275 C274 1.363 . S
C275 C276 1.385 . S
C276 H250 0.930 . S
C276 C275 1.385 . S
C276 C277 1.357 1_556 S
C277 C276 1.357 1_554 S
C277 C278 1.406 . S
C278 H252 0.929 . S
C278 C277 1.406 . S
C278 C279 1.391 1_554 S
C279 H251 0.931 . S
C279 C274 1.370 . S
C279 C278 1.391 1_556 S
C280 N249 1.435 . S
C280 C281 1.358 . S
C280 C285 1.371 . S
C281 H253 0.930 . S
C281 C280 1.358 . S
C281 C282 1.405 . S
C282 H254 0.932 . S
C282 C281 1.405 . S
C282 C283 1.383 . S
C283 C282 1.383 . S
C283 C284 1.393 . S
C284 H256 0.931 . S
C284 C283 1.393 . S
C284 C285 1.382 . S
C285 H255 0.929 . S
C285 C280 1.371 . S
C285 C284 1.382 . S
C286 N249 1.423 . S
C286 C287 1.362 . S
C286 C291 1.388 . S
C287 H257 0.929 . S
C287 C286 1.362 . S
C287 C288 1.376 . S
C288 H259 0.931 . S
C288 C287 1.376 . S
C288 C289 1.396 . S
C289 C288 1.396 . S
C289 C290 1.348 . S
C289 C307 1.472 1_545 S
C290 H260 0.929 . S
C290 C289 1.348 . S
C290 C291 1.443 . S
C291 H258 0.932 . S
C291 C286 1.388 . S
C291 C290 1.443 . S
C292 N272 1.433 . S
C292 C293 1.363 . S
C292 C297 1.370 . S
C293 H261 0.929 . S
C293 C292 1.363 . S
C293 C294 1.385 . S
C294 H262 0.930 . S
C294 C293 1.385 . S
C294 C295 1.357 . S
C295 C294 1.357 . S
C295 C296 1.406 . S
C296 H263 0.929 . S
C296 C295 1.406 . S
C296 C297 1.391 . S
C297 H264 0.931 . S
C297 C292 1.370 . S
C297 C296 1.391 . S
C298 N272 1.435 1_556 S
C298 C299 1.358 . S
C298 C303 1.371 . S
C299 H265 0.930 1_556 S
C299 C298 1.358 . S
C299 C300 1.405 . S
C300 H266 0.932 . S
C300 C299 1.405 . S
C300 C301 1.383 . S
C301 C300 1.383 . S
C301 C302 1.393 . S
C302 H267 0.931 . S
C302 C301 1.393 . S
C302 C303 1.382 . S
C303 H268 0.929 . S
C303 C298 1.371 . S
C303 C302 1.382 . S
C304 N272 1.423 1_556 S
C304 C305 1.362 1_556 S
C304 C309 1.388 . S
C305 H269 0.929 . S
C305 C304 1.362 1_554 S
C305 C306 1.376 1_554 S
C306 H270 0.911 1_556 S
C306 C305 1.376 1_556 S
C306 C307 1.396 . S
C307 C289 1.472 1_565 S
C307 C306 1.396 . S
C307 C308 1.348 . S
C308 H271 0.929 . S
C308 C307 1.348 . S
C308 C309 1.443 . S
C309 H273 0.932 . S
C309 C304 1.388 . S
C309 C308 1.443 . S
H310 C337 0.929 . S
N311 C336 1.433 . S
N311 C342 1.435 . S
N311 C348 1.423 . S
H312 C338 0.930 . S
H313 C341 0.931 . S
H314 C340 0.929 . S
H315 C343 0.930 . S
H316 C344 0.932 . S
H317 C347 0.929 . S
H318 C346 0.931 . S
H319 C349 0.929 . S
H320 C353 0.932 . S
H321 C350 0.931 . S
H322 C352 0.929 . S
H323 C355 0.929 . S
H324 C356 0.930 . S
H325 C358 0.929 . S
H326 C359 0.931 . S
H327 C361 0.930 . S
H328 C362 0.932 . S
H329 C364 0.931 . S
H330 C365 0.929 . S
H331 C367 0.929 . S
H332 C368 0.931 . S
H333 C370 0.929 . S
N334 C354 1.433 . S
N334 C360 1.435 . S
N334 C366 1.423 . S
H335 C371 0.932 . S
C336 N311 1.433 . S
C336 C337 1.363 . S
C336 C341 1.370 . S
C337 H310 0.929 . S
C337 C336 1.363 . S
C337 C338 1.385 . S
C338 H312 0.930 . S
C338 C337 1.385 . S
C338 C339 1.357 . S
C339 C338 1.357 . S
C339 C340 1.406 . S
C340 H314 0.929 . S
C340 C339 1.406 . S
C340 C341 1.391 . S
C341 H313 0.931 . S
C341 C336 1.370 . S
C341 C340 1.391 . S
C342 N311 1.435 . S
C342 C343 1.358 . S
C342 C347 1.371 . S
C343 H315 0.930 . S
C343 C342 1.358 . S
C343 C344 1.405 . S
C344 H316 0.932 . S
C344 C343 1.405 . S
C344 C345 1.383 . S
C345 C344 1.383 . S
C345 C346 1.393 . S
C346 H318 0.931 . S
C346 C345 1.393 . S
C346 C347 1.382 . S
C347 H317 0.929 . S
C347 C342 1.371 . S
C347 C346 1.382 . S
C348 N311 1.423 . S
C348 C349 1.362 . S
C348 C353 1.388 . S
C349 H319 0.929 . S
C349 C348 1.362 . S
C349 C350 1.376 . S
C350 H321 0.931 . S
C350 C349 1.376 . S
C350 C351 1.396 . S
C351 C350 1.396 . S
C351 C352 1.348 . S
C351 C369 1.472 . S
C352 H322 0.929 . S
C352 C351 1.348 . S
C352 C353 1.443 . S
C353 H320 0.932 . S
C353 C348 1.388 . S
C353 C352 1.443 . S
C354 N334 1.433 . S
C354 C355 1.363 . S
C354 C359 1.370 . S
C355 H323 0.929 . S
C355 C354 1.363 . S
C355 C356 1.385 . S
C356 H324 0.930 . S
C356 C355 1.385 . S
C356 C357 1.357 . S
C357 C356 1.357 . S
C357 C358 1.406 . S
C358 H325 0.929 . S
C358 C357 1.406 . S
C358 C359 1.391 . S
C359 H326 0.931 . S
C359 C354 1.370 . S
C359 C358 1.391 . S
C360 N334 1.435 . S
C360 C361 1.358 . S
C360 C365 1.371 . S
C361 H327 0.930 . S
C361 C360 1.358 . S
C361 C362 1.405 . S
C362 H328 0.932 . S
C362 C361 1.405 . S
C362 C363 1.383 . S
C363 C362 1.383 . S
C363 C364 1.393 . S
C364 H329 0.931 . S
C364 C363 1.393 . S
C364 C365 1.382 . S
C365 H330 0.929 . S
C365 C360 1.371 . S
C365 C364 1.382 . S
C366 N334 1.423 . S
C366 C367 1.362 . S
C366 C371 1.388 . S
C367 H331 0.929 . S
C367 C366 1.362 . S
C367 C368 1.376 . S
C368 H332 0.931 . S
C368 C367 1.376 . S
C368 C369 1.396 . S
C369 C351 1.472 . S
C369 C368 1.396 . S
C369 C370 1.348 . S
C370 H333 0.929 . S
C370 C369 1.348 . S
C370 C371 1.443 . S
C371 H335 0.932 . S
C371 C366 1.388 . S
C371 C370 1.443 . S
C372 O373 1.306 . S
C372 O375 1.160 . S
O373 C372 1.306 . S
O373 Cd374 2.228 . S
Cd374 O373 2.228 . S
Cd374 O378 2.273 . S
Cd374 O382 2.277 . S
O375 C372 1.160 . S
O375 Cd376 2.203 . S
Cd376 O375 2.203 . S
Cd376 O378 2.411 . S
Cd376 O379 2.333 . S
Cd376 O380 2.352 . S
Cd376 O384 2.277 . S
Cd376 O385 2.356 . S
C377 O382 1.209 . S
C377 O384 1.226 . S
O378 Cd374 2.273 . S
O378 Cd376 2.411 . S
O378 C381 1.320 . S
O379 Cd376 2.333 . S
O379 C381 1.214 . S
O380 Cd376 2.352 . S
O380 C383 1.258 . S
C381 O378 1.320 . S
C381 O379 1.214 . S
O382 Cd374 2.277 . S
O382 C377 1.209 . S
C383 O380 1.258 . S
C383 O385 1.282 . S
O384 Cd376 2.277 . S
O384 C377 1.226 . S
O385 Cd376 2.356 . S
O385 C383 1.282 . S
C386 O387 1.306 . S
C386 O389 1.160 . S
O387 C386 1.306 . S
O387 Cd388 2.228 . S
Cd388 O387 2.228 . S
Cd388 O392 2.273 . S
Cd388 O396 2.277 . S
O389 C386 1.160 . S
O389 Cd390 2.203 . S
Cd390 O389 2.203 . S
Cd390 O392 2.411 . S
Cd390 O393 2.333 . S
Cd390 O394 2.352 . S
Cd390 O398 2.277 . S
Cd390 O399 2.356 . S
C391 O396 1.209 . S
C391 O398 1.226 . S
O392 Cd388 2.273 . S
O392 Cd390 2.411 . S
O392 C395 1.320 . S
O393 Cd390 2.333 . S
O393 C395 1.214 . S
O394 Cd390 2.352 . S
O394 C397 1.258 . S
C395 O392 1.320 . S
C395 O393 1.214 . S
O396 Cd388 2.277 . S
O396 C391 1.209 . S
C397 O394 1.258 . S
C397 O399 1.282 . S
O398 Cd390 2.277 . S
O398 C391 1.226 . S
O399 Cd390 2.356 . S
O399 C397 1.282 . S
C400 O401 1.306 . S
C400 O403 1.160 . S
O401 C400 1.306 . S
O401 Cd402 2.228 . S
Cd402 O401 2.228 . S
Cd402 O406 2.273 . S
Cd402 O410 2.277 . S
O403 C400 1.160 . S
O403 Cd404 2.203 . S
Cd404 O403 2.203 . S
Cd404 O406 2.411 . S
Cd404 O407 2.333 . S
Cd404 O408 2.352 . S
Cd404 O412 2.277 . S
Cd404 O413 2.356 . S
C405 O410 1.209 . S
C405 O412 1.226 . S
O406 Cd402 2.273 . S
O406 Cd404 2.411 . S
O406 C409 1.320 . S
O407 Cd404 2.333 . S
O407 C409 1.214 . S
O408 Cd404 2.352 . S
O408 C411 1.258 . S
C409 O406 1.320 . S
C409 O407 1.214 . S
O410 Cd402 2.277 . S
O410 C405 1.209 . S
C411 O408 1.258 . S
C411 O413 1.282 . S
O412 Cd404 2.277 . S
O412 C405 1.226 . S
O413 Cd404 2.356 . S
O413 C411 1.282 . S
C414 O415 1.306 . S
C414 O417 1.160 . S
O415 C414 1.306 . S
O415 Cd416 2.228 . S
Cd416 O415 2.228 . S
Cd416 O420 2.273 . S
Cd416 O424 2.277 . S
O417 C414 1.160 . S
O417 Cd418 2.203 . S
Cd418 O417 2.203 . S
Cd418 O420 2.411 . S
Cd418 O421 2.333 . S
Cd418 O422 2.352 . S
Cd418 O426 2.277 . S
Cd418 O427 2.356 . S
C419 O424 1.209 . S
C419 O426 1.226 . S
O420 Cd416 2.273 . S
O420 Cd418 2.411 . S
O420 C423 1.320 . S
O421 Cd418 2.333 . S
O421 C423 1.214 . S
O422 Cd418 2.352 . S
O422 C425 1.258 . S
C423 O420 1.320 . S
C423 O421 1.214 . S
O424 Cd416 2.277 . S
O424 C419 1.209 . S
C425 O422 1.258 . S
C425 O427 1.282 . S
O426 Cd418 2.277 . S
O426 C419 1.226 . S
O427 Cd418 2.356 . S
O427 C425 1.282 . S
C428 O429 1.306 . S
C428 O431 1.160 . S
O429 C428 1.306 . S
O429 Cd430 2.228 . S
Cd430 O429 2.228 . S
Cd430 O434 2.273 . S
Cd430 O438 2.277 . S
O431 C428 1.160 . S
O431 Cd432 2.203 . S
Cd432 O431 2.203 . S
Cd432 O434 2.411 . S
Cd432 O435 2.333 . S
Cd432 O436 2.352 . S
Cd432 O440 2.277 . S
Cd432 O441 2.356 . S
C433 O438 1.209 . S
C433 O440 1.226 . S
O434 Cd430 2.273 . S
O434 Cd432 2.411 . S
O434 C437 1.320 . S
O435 Cd432 2.333 . S
O435 C437 1.214 . S
O436 Cd432 2.352 . S
O436 C439 1.258 . S
C437 O434 1.320 . S
C437 O435 1.214 . S
O438 Cd430 2.277 . S
O438 C433 1.209 . S
C439 O436 1.258 . S
C439 O441 1.282 . S
O440 Cd432 2.277 . S
O440 C433 1.226 . S
O441 Cd432 2.356 . S
O441 C439 1.282 . S
C442 O443 1.306 . S
C442 O445 1.160 . S
O443 C442 1.306 . S
O443 Cd444 2.228 . S
Cd444 O443 2.228 . S
Cd444 O448 2.273 . S
Cd444 O452 2.277 . S
O445 C442 1.160 . S
O445 Cd446 2.203 . S
Cd446 O445 2.203 . S
Cd446 O448 2.411 . S
Cd446 O449 2.333 . S
Cd446 O450 2.352 . S
Cd446 O454 2.277 . S
Cd446 O455 2.356 . S
C447 O452 1.209 . S
C447 O454 1.226 . S
O448 Cd444 2.273 . S
O448 Cd446 2.411 . S
O448 C451 1.320 . S
O449 Cd446 2.333 . S
O449 C451 1.214 . S
O450 Cd446 2.352 . S
O450 C453 1.258 . S
C451 O448 1.320 . S
C451 O449 1.214 . S
O452 Cd444 2.277 . S
O452 C447 1.209 . S
C453 O450 1.258 . S
C453 O455 1.282 . S
O454 Cd446 2.277 . S
O454 C447 1.226 . S
O455 Cd446 2.356 . S
O455 C453 1.282 . S
C456 C457 1.349 . S
C456 C458 1.327 . S
C456 H481 0.950 . S
C457 C456 1.349 . S
C457 C473 1.349 . S
C458 C456 1.327 . S
C458 C477 1.429 . S
C458 H482 0.950 . S
C459 C476 1.574 . S
C459 C478 1.368 . S
C459 H483 0.949 . S
H460 C464 0.949 . S
C461 C462 1.349 . S
C461 C463 1.327 . S
C461 H484 0.950 . S
C462 C461 1.349 . S
C462 C474 1.349 . S
C463 C461 1.327 . S
C463 C479 1.429 . S
C463 H485 0.950 . S
C464 H460 0.949 . S
C464 C472 1.574 . S
C464 C480 1.368 . S
H465 C473 0.950 . S
H466 C471 0.950 . S
H467 C472 0.949 . S
H468 C474 0.950 . S
H469 C475 0.950 . S
H470 C476 0.949 . S
C471 H466 0.950 . S
C471 C473 1.327 . S
C471 C477 1.429 . S
C472 C464 1.574 . S
C472 H467 0.949 . S
C472 C478 1.368 . S
C473 C457 1.349 . S
C473 H465 0.950 . S
C473 C471 1.327 . S
C474 C462 1.349 . S
C474 H468 0.950 . S
C474 C475 1.327 . S
C475 H469 0.950 . S
C475 C474 1.327 . S
C475 C479 1.429 . S
C476 C459 1.574 . S
C476 H470 0.949 . S
C476 C480 1.368 . S
C477 C458 1.429 . S
C477 C471 1.429 . S
C477 C478 1.523 . S
C478 C459 1.368 . S
C478 C472 1.368 . S
C478 C477 1.523 . S
C479 C463 1.429 . S
C479 C475 1.429 . S
C479 C480 1.523 . S
C480 C464 1.368 . S
C480 C476 1.368 . S
C480 C479 1.523 . S
H481 C456 0.950 . S
H482 C458 0.950 . S
H483 C459 0.949 . S
H484 C461 0.950 . S
H485 C463 0.950 . S
C486 C487 1.349 . S
C486 C488 1.327 . S
C486 H511 0.950 . S
C487 C486 1.349 . S
C487 C503 1.349 . S
C488 C486 1.327 . S
C488 C507 1.429 . S
C488 H512 0.950 . S
C489 C506 1.574 . S
C489 C508 1.368 . S
C489 H513 0.949 . S
H490 C494 0.949 . S
C491 C492 1.349 . S
C491 C493 1.327 . S
C491 H514 0.950 . S
C492 C491 1.349 . S
C492 C504 1.349 . S
C493 C491 1.327 . S
C493 C509 1.429 . S
C493 H515 0.950 . S
C494 H490 0.949 . S
C494 C502 1.574 . S
C494 C510 1.368 . S
H495 C503 0.950 . S
H496 C501 0.950 . S
H497 C502 0.949 . S
H498 C504 0.950 . S
H499 C505 0.950 . S
H500 C506 0.949 . S
C501 H496 0.950 . S
C501 C503 1.327 . S
C501 C507 1.429 . S
C502 C494 1.574 . S
C502 H497 0.949 . S
C502 C508 1.368 . S
C503 C487 1.349 . S
C503 H495 0.950 . S
C503 C501 1.327 . S
C504 C492 1.349 . S
C504 H498 0.950 . S
C504 C505 1.327 . S
C505 H499 0.950 . S
C505 C504 1.327 . S
C505 C509 1.429 . S
C506 C489 1.574 . S
C506 H500 0.949 . S
C506 C510 1.368 . S
C507 C488 1.429 . S
C507 C501 1.429 . S
C507 C508 1.523 . S
C508 C489 1.368 . S
C508 C502 1.368 . S
C508 C507 1.523 . S
C509 C493 1.429 . S
C509 C505 1.429 . S
C509 C510 1.523 . S
C510 C494 1.368 . S
C510 C506 1.368 . S
C510 C509 1.523 . S
H511 C486 0.950 . S
H512 C488 0.950 . S
H513 C489 0.949 . S
H514 C491 0.950 . S
H515 C493 0.950 . S
C516 C517 1.349 . S
C516 C518 1.327 . S
C516 H541 0.950 . S
C517 C516 1.349 . S
C517 C533 1.349 . S
C518 C516 1.327 . S
C518 C537 1.429 . S
C518 H542 0.950 . S
C519 C536 1.574 . S
C519 C538 1.368 . S
C519 H543 0.949 . S
H520 C524 0.949 . S
C521 C522 1.349 . S
C521 C523 1.327 . S
C521 H544 0.950 . S
C522 C521 1.349 . S
C522 C534 1.349 . S
C523 C521 1.327 . S
C523 C539 1.429 . S
C523 H545 0.950 . S
C524 H520 0.949 . S
C524 C532 1.574 . S
C524 C540 1.368 . S
H525 C533 0.950 . S
H526 C531 0.950 . S
H527 C532 0.949 . S
H528 C534 0.950 . S
H529 C535 0.950 . S
H530 C536 0.949 . S
C531 H526 0.950 . S
C531 C533 1.327 . S
C531 C537 1.429 . S
C532 C524 1.574 . S
C532 H527 0.949 . S
C532 C538 1.368 . S
C533 C517 1.349 . S
C533 H525 0.950 . S
C533 C531 1.327 . S
C534 C522 1.349 . S
C534 H528 0.950 . S
C534 C535 1.327 . S
C535 H529 0.950 . S
C535 C534 1.327 . S
C535 C539 1.429 . S
C536 C519 1.574 . S
C536 H530 0.949 . S
C536 C540 1.368 . S
C537 C518 1.429 . S
C537 C531 1.429 . S
C537 C538 1.523 . S
C538 C519 1.368 . S
C538 C532 1.368 . S
C538 C537 1.523 . S
C539 C523 1.429 . S
C539 C535 1.429 . S
C539 C540 1.523 . S
C540 C524 1.368 . S
C540 C536 1.368 . S
C540 C539 1.523 . S
H541 C516 0.950 . S
H542 C518 0.950 . S
H543 C519 0.949 . S
H544 C521 0.950 . S
H545 C523 0.950 . S
C546 C547 1.349 . S
C546 C548 1.327 . S
C546 H571 0.950 . S
C547 C546 1.349 . S
C547 C563 1.349 . S
C548 C546 1.327 . S
C548 C567 1.429 . S
C548 H572 0.950 . S
C549 C566 1.574 . S
C549 C568 1.368 . S
C549 H573 0.949 . S
H550 C554 0.949 . S
C551 C552 1.349 . S
C551 C553 1.327 . S
C551 H574 0.950 . S
C552 C551 1.349 . S
C552 C564 1.349 . S
C553 C551 1.327 . S
C553 C569 1.429 . S
C553 H575 0.950 . S
C554 H550 0.949 . S
C554 C562 1.574 . S
C554 C570 1.368 . S
H555 C563 0.950 . S
H556 C561 0.950 . S
H557 C562 0.949 . S
H558 C564 0.950 . S
H559 C565 0.950 . S
H560 C566 0.949 . S
C561 H556 0.950 . S
C561 C563 1.327 . S
C561 C567 1.429 . S
C562 C554 1.574 . S
C562 H557 0.949 . S
C562 C568 1.368 . S
C563 C547 1.349 . S
C563 H555 0.950 . S
C563 C561 1.327 . S
C564 C552 1.349 . S
C564 H558 0.950 . S
C564 C565 1.327 . S
C565 H559 0.950 . S
C565 C564 1.327 . S
C565 C569 1.429 . S
C566 C549 1.574 . S
C566 H560 0.949 . S
C566 C570 1.368 . S
C567 C548 1.429 . S
C567 C561 1.429 . S
C567 C568 1.523 . S
C568 C549 1.368 . S
C568 C562 1.368 . S
C568 C567 1.523 . S
C569 C553 1.429 . S
C569 C565 1.429 . S
C569 C570 1.523 . S
C570 C554 1.368 . S
C570 C566 1.368 . S
C570 C569 1.523 . S
H571 C546 0.950 . S
H572 C548 0.950 . S
H573 C549 0.949 . S
H574 C551 0.950 . S
H575 C553 0.950 . S
C576 C577 1.349 . S
C576 C578 1.327 . S
C576 H601 0.950 . S
C577 C576 1.349 . S
C577 C593 1.349 . S
C578 C576 1.327 . S
C578 C597 1.429 . S
C578 H602 0.950 . S
C579 C596 1.574 . S
C579 C598 1.368 . S
C579 H603 0.949 . S
H580 C584 0.949 . S
C581 C582 1.349 . S
C581 C583 1.327 . S
C581 H604 0.950 . S
C582 C581 1.349 . S
C582 C594 1.349 . S
C583 C581 1.327 . S
C583 C599 1.429 . S
C583 H605 0.950 . S
C584 H580 0.949 . S
C584 C592 1.574 . S
C584 C600 1.368 . S
H585 C593 0.950 . S
H586 C591 0.950 . S
H587 C592 0.949 . S
H588 C594 0.950 . S
H589 C595 0.950 . S
H590 C596 0.949 . S
C591 H586 0.950 . S
C591 C593 1.327 . S
C591 C597 1.429 . S
C592 C584 1.574 . S
C592 H587 0.949 . S
C592 C598 1.368 . S
C593 C577 1.349 . S
C593 H585 0.950 . S
C593 C591 1.327 . S
C594 C582 1.349 . S
C594 H588 0.950 . S
C594 C595 1.327 . S
C595 H589 0.950 . S
C595 C594 1.327 . S
C595 C599 1.429 . S
C596 C579 1.574 . S
C596 H590 0.949 . S
C596 C600 1.368 . S
C597 C578 1.429 . S
C597 C591 1.429 . S
C597 C598 1.523 . S
C598 C579 1.368 . S
C598 C592 1.368 . S
C598 C597 1.523 . S
C599 C583 1.429 . S
C599 C595 1.429 . S
C599 C600 1.523 . S
C600 C584 1.368 . S
C600 C596 1.368 . S
C600 C599 1.523 . S
H601 C576 0.950 . S
H602 C578 0.950 . S
H603 C579 0.949 . S
H604 C581 0.950 . S
H605 C583 0.950 . S
C606 C607 1.349 . S
C606 C608 1.327 . S
C606 H631 0.950 . S
C607 C606 1.349 . S
C607 C623 1.349 . S
C608 C606 1.327 . S
C608 C627 1.429 . S
C608 H632 0.950 . S
C609 C626 1.574 . S
C609 C628 1.368 . S
C609 H633 0.949 . S
H610 C614 0.949 . S
C611 C612 1.349 . S
C611 C613 1.327 . S
C611 H634 0.950 . S
C612 C611 1.349 . S
C612 C624 1.349 . S
C613 C611 1.327 . S
C613 C629 1.429 . S
C613 H635 0.950 . S
C614 H610 0.949 . S
C614 C622 1.574 . S
C614 C630 1.368 . S
H615 C623 0.950 . S
H616 C621 0.950 . S
H617 C622 0.949 . S
H618 C624 0.950 . S
H619 C625 0.950 . S
H620 C626 0.949 . S
C621 H616 0.950 . S
C621 C623 1.327 . S
C621 C627 1.429 . S
C622 C614 1.574 . S
C622 H617 0.949 . S
C622 C628 1.368 . S
C623 C607 1.349 . S
C623 H615 0.950 . S
C623 C621 1.327 . S
C624 C612 1.349 . S
C624 H618 0.950 . S
C624 C625 1.327 . S
C625 H619 0.950 . S
C625 C624 1.327 . S
C625 C629 1.429 . S
C626 C609 1.574 . S
C626 H620 0.949 . S
C626 C630 1.368 . S
C627 C608 1.429 . S
C627 C621 1.429 . S
C627 C628 1.523 . S
C628 C609 1.368 . S
C628 C622 1.368 . S
C628 C627 1.523 . S
C629 C613 1.429 . S
C629 C625 1.429 . S
C629 C630 1.523 . S
C630 C614 1.368 . S
C630 C626 1.368 . S
C630 C629 1.523 . S
H631 C606 0.950 . S
H632 C608 0.950 . S
H633 C609 0.949 . S
H634 C611 0.950 . S
H635 C613 0.950 . S
C636 C637 1.349 . S
C636 C638 1.327 . S
C636 H661 0.950 . S
C637 C636 1.349 . S
C637 C653 1.349 . S
C638 C636 1.327 . S
C638 C657 1.429 . S
C638 H662 0.950 . S
C639 C656 1.574 . S
C639 C658 1.368 . S
C639 H663 0.949 . S
H640 C644 0.949 . S
C641 C642 1.349 . S
C641 C643 1.327 . S
C641 H664 0.950 . S
C642 C641 1.349 . S
C642 C654 1.349 . S
C643 C641 1.327 . S
C643 C659 1.429 . S
C643 H665 0.950 . S
C644 H640 0.949 . S
C644 C652 1.574 . S
C644 C660 1.368 . S
H645 C653 0.950 . S
H646 C651 0.950 . S
H647 C652 0.949 . S
H648 C654 0.950 . S
H649 C655 0.950 . S
H650 C656 0.949 . S
C651 H646 0.950 . S
C651 C653 1.327 . S
C651 C657 1.429 . S
C652 C644 1.574 . S
C652 H647 0.949 . S
C652 C658 1.368 . S
C653 C637 1.349 . S
C653 H645 0.950 . S
C653 C651 1.327 . S
C654 C642 1.349 . S
C654 H648 0.950 . S
C654 C655 1.327 . S
C655 H649 0.950 . S
C655 C654 1.327 . S
C655 C659 1.429 . S
C656 C639 1.574 . S
C656 H650 0.949 . S
C656 C660 1.368 . S
C657 C638 1.429 . S
C657 C651 1.429 . S
C657 C658 1.523 . S
C658 C639 1.368 . S
C658 C652 1.368 . S
C658 C657 1.523 . S
C659 C643 1.429 . S
C659 C655 1.429 . S
C659 C660 1.523 . S
C660 C644 1.368 . S
C660 C656 1.368 . S
C660 C659 1.523 . S
H661 C636 0.950 . S
H662 C638 0.950 . S
H663 C639 0.949 . S
H664 C641 0.950 . S
H665 C643 0.950 . S
C666 C667 1.349 . S
C666 C668 1.327 . S
C666 H691 0.950 . S
C667 C666 1.349 . S
C667 C683 1.349 . S
C668 C666 1.327 . S
C668 C687 1.429 . S
C668 H692 0.950 . S
C669 C686 1.574 . S
C669 C688 1.368 . S
C669 H693 0.949 . S
H670 C674 0.949 . S
C671 C672 1.349 . S
C671 C673 1.327 . S
C671 H694 0.950 . S
C672 C671 1.349 . S
C672 C684 1.349 . S
C673 C671 1.327 . S
C673 C689 1.429 . S
C673 H695 0.950 . S
C674 H670 0.949 . S
C674 C682 1.574 . S
C674 C690 1.368 . S
H675 C683 0.950 . S
H676 C681 0.950 . S
H677 C682 0.949 . S
H678 C684 0.950 . S
H679 C685 0.950 . S
H680 C686 0.949 . S
C681 H676 0.950 . S
C681 C683 1.327 . S
C681 C687 1.429 . S
C682 C674 1.574 . S
C682 H677 0.949 . S
C682 C688 1.368 . S
C683 C667 1.349 . S
C683 H675 0.950 . S
C683 C681 1.327 . S
C684 C672 1.349 . S
C684 H678 0.950 . S
C684 C685 1.327 . S
C685 H679 0.950 . S
C685 C684 1.327 . S
C685 C689 1.429 . S
C686 C669 1.574 . S
C686 H680 0.949 . S
C686 C690 1.368 . S
C687 C668 1.429 . S
C687 C681 1.429 . S
C687 C688 1.523 . S
C688 C669 1.368 . S
C688 C682 1.368 . S
C688 C687 1.523 . S
C689 C673 1.429 . S
C689 C685 1.429 . S
C689 C690 1.523 . S
C690 C674 1.368 . S
C690 C686 1.368 . S
C690 C689 1.523 . S
H691 C666 0.950 . S
H692 C668 0.950 . S
H693 C669 0.949 . S
H694 C671 0.950 . S
H695 C673 0.950 . S
C696 C697 1.349 . S
C696 C698 1.327 . S
C696 H721 0.950 . S
C697 C696 1.349 . S
C697 C713 1.349 . S
C698 C696 1.327 . S
C698 C717 1.429 . S
C698 H722 0.950 . S
C699 C716 1.574 . S
C699 C718 1.368 . S
C699 H723 0.949 . S
H700 C704 0.949 . S
C701 C702 1.349 . S
C701 C703 1.327 . S
C701 H724 0.950 . S
C702 C701 1.349 . S
C702 C714 1.349 . S
C703 C701 1.327 . S
C703 C719 1.429 . S
C703 H725 0.950 . S
C704 H700 0.949 . S
C704 C712 1.574 . S
C704 C720 1.368 . S
H705 C713 0.950 . S
H706 C711 0.950 . S
H707 C712 0.949 . S
H708 C714 0.950 . S
H709 C715 0.950 . S
H710 C716 0.949 . S
C711 H706 0.950 . S
C711 C713 1.327 . S
C711 C717 1.429 . S
C712 C704 1.574 . S
C712 H707 0.949 . S
C712 C718 1.368 . S
C713 C697 1.349 . S
C713 H705 0.950 . S
C713 C711 1.327 . S
C714 C702 1.349 . S
C714 H708 0.950 . S
C714 C715 1.327 . S
C715 H709 0.950 . S
C715 C714 1.327 . S
C715 C719 1.429 . S
C716 C699 1.574 . S
C716 H710 0.949 . S
C716 C720 1.368 . S
C717 C698 1.429 . S
C717 C711 1.429 . S
C717 C718 1.523 . S
C718 C699 1.368 . S
C718 C712 1.368 . S
C718 C717 1.523 . S
C719 C703 1.429 . S
C719 C715 1.429 . S
C719 C720 1.523 . S
C720 C704 1.368 . S
C720 C716 1.368 . S
C720 C719 1.523 . S
H721 C696 0.950 . S
H722 C698 0.950 . S
H723 C699 0.949 . S
H724 C701 0.950 . S
H725 C703 0.950 . S
C726 C727 1.349 . S
C726 C728 1.327 . S
C726 H751 0.919 1_554 S
C727 C726 1.349 . S
C727 C743 1.349 . S
C728 C726 1.327 . S
C728 C747 1.429 . S
C728 H752 0.950 . S
C729 C746 1.574 . S
C729 C748 1.368 . S
C729 H753 0.949 . S
H730 C734 0.949 . S
C731 C732 1.349 . S
C731 C733 1.327 . S
C731 H754 0.950 . S
C732 C731 1.349 . S
C732 C744 1.349 . S
C733 C731 1.327 . S
C733 C749 1.429 . S
C733 H755 0.950 . S
C734 H730 0.949 . S
C734 C742 1.574 . S
C734 C750 1.368 . S
H735 C743 0.950 . S
H736 C741 0.950 . S
H737 C742 0.949 . S
H738 C744 0.950 . S
H739 C745 0.950 . S
H740 C746 0.949 . S
C741 H736 0.950 . S
C741 C743 1.327 . S
C741 C747 1.429 . S
C742 C734 1.574 . S
C742 H737 0.949 . S
C742 C748 1.368 . S
C743 C727 1.349 . S
C743 H735 0.950 . S
C743 C741 1.327 . S
C744 C732 1.349 . S
C744 H738 0.950 . S
C744 C745 1.327 . S
C745 H739 0.950 . S
C745 C744 1.327 . S
C745 C749 1.429 . S
C746 C729 1.574 . S
C746 H740 0.949 . S
C746 C750 1.368 . S
C747 C728 1.429 . S
C747 C741 1.429 . S
C747 C748 1.523 . S
C748 C729 1.368 . S
C748 C742 1.368 . S
C748 C747 1.523 . S
C749 C733 1.429 . S
C749 C745 1.429 . S
C749 C750 1.523 . S
C750 C734 1.368 . S
C750 C746 1.368 . S
C750 C749 1.523 . S
H751 C726 0.919 1_556 S
H752 C728 0.950 . S
H753 C729 0.949 . S
H754 C731 0.950 . S
H755 C733 0.950 . S
C756 C757 1.349 . S
C756 C758 1.327 . S
C756 H781 0.950 . S
C757 C756 1.349 . S
C757 C773 1.349 . S
C758 C756 1.327 . S
C758 C777 1.429 . S
C758 H782 0.950 . S
C759 C776 1.574 . S
C759 C778 1.368 . S
C759 H783 0.949 . S
H760 C764 0.949 . S
C761 C762 1.349 . S
C761 C763 1.327 . S
C761 H784 0.950 . S
C762 C761 1.349 . S
C762 C774 1.349 . S
C763 C761 1.327 . S
C763 C779 1.429 . S
C763 H785 0.950 . S
C764 H760 0.949 . S
C764 C772 1.574 . S
C764 C780 1.368 . S
H765 C773 0.950 . S
H766 C771 0.950 . S
H767 C772 0.949 . S
H768 C774 0.950 . S
H769 C775 0.950 . S
H770 C776 0.949 . S
C771 H766 0.950 . S
C771 C773 1.327 . S
C771 C777 1.429 . S
C772 C764 1.574 . S
C772 H767 0.949 . S
C772 C778 1.368 . S
C773 C757 1.349 . S
C773 H765 0.950 . S
C773 C771 1.327 . S
C774 C762 1.349 . S
C774 H768 0.950 . S
C774 C775 1.327 . S
C775 H769 0.950 . S
C775 C774 1.327 . S
C775 C779 1.429 . S
C776 C759 1.574 . S
C776 H770 0.949 . S
C776 C780 1.368 . S
C777 C758 1.429 . S
C777 C771 1.429 . S
C777 C778 1.523 . S
C778 C759 1.368 . S
C778 C772 1.368 . S
C778 C777 1.523 . S
C779 C763 1.429 . S
C779 C775 1.429 . S
C779 C780 1.523 . S
C780 C764 1.368 . S
C780 C776 1.368 . S
C780 C779 1.523 . S
H781 C756 0.950 . S
H782 C758 0.950 . S
H783 C759 0.949 . S
H784 C761 0.950 . S
H785 C763 0.950 . S
C786 C787 1.349 . S
C786 C788 1.327 . S
C786 H811 0.950 . S
C787 C786 1.349 . S
C787 C803 1.349 . S
C788 C786 1.327 . S
C788 C807 1.429 . S
C788 H812 0.950 . S
C789 C806 1.574 . S
C789 C808 1.368 . S
C789 H813 0.949 . S
H790 C794 0.949 . S
C791 C792 1.349 . S
C791 C793 1.327 . S
C791 H814 0.950 . S
C792 C791 1.349 . S
C792 C804 1.349 . S
C793 C791 1.327 . S
C793 C809 1.429 . S
C793 H815 0.950 . S
C794 H790 0.949 . S
C794 C802 1.574 . S
C794 C810 1.368 . S
H795 C803 0.950 . S
H796 C801 0.950 . S
H797 C802 0.949 . S
H798 C804 0.950 . S
H799 C805 0.950 . S
H800 C806 0.949 . S
C801 H796 0.950 . S
C801 C803 1.327 . S
C801 C807 1.429 . S
C802 C794 1.574 . S
C802 H797 0.949 . S
C802 C808 1.368 . S
C803 C787 1.349 . S
C803 H795 0.950 . S
C803 C801 1.327 . S
C804 C792 1.349 . S
C804 H798 0.950 . S
C804 C805 1.327 . S
C805 H799 0.950 . S
C805 C804 1.327 . S
C805 C809 1.429 . S
C806 C789 1.574 . S
C806 H800 0.949 . S
C806 C810 1.368 . S
C807 C788 1.429 . S
C807 C801 1.429 . S
C807 C808 1.523 . S
C808 C789 1.368 . S
C808 C802 1.368 . S
C808 C807 1.523 . S
C809 C793 1.429 . S
C809 C805 1.429 . S
C809 C810 1.523 . S
C810 C794 1.368 . S
C810 C806 1.368 . S
C810 C809 1.523 . S
H811 C786 0.950 . S
H812 C788 0.950 . S
H813 C789 0.949 . S
H814 C791 0.950 . S
H815 C793 0.950 . S
C816 C817 1.349 . S
C816 C818 1.327 . S
C816 H841 0.950 . S
C817 C816 1.349 . S
C817 C833 1.349 . S
C818 C816 1.327 . S
C818 C837 1.429 . S
C818 H842 0.950 . S
C819 C836 1.574 . S
C819 C838 1.368 . S
C819 H843 0.949 . S
H820 C824 0.949 . S
C821 C822 1.349 . S
C821 C823 1.327 . S
C821 H844 0.950 . S
C822 C821 1.349 . S
C822 C834 1.349 . S
C823 C821 1.327 . S
C823 C839 1.429 . S
C823 H845 0.950 . S
C824 H820 0.949 . S
C824 C832 1.574 . S
C824 C840 1.368 . S
H825 C833 0.950 . S
H826 C831 0.950 . S
H827 C832 0.949 . S
H828 C834 0.950 . S
H829 C835 0.950 . S
H830 C836 0.949 . S
C831 H826 0.950 . S
C831 C833 1.327 . S
C831 C837 1.429 . S
C832 C824 1.574 . S
C832 H827 0.949 . S
C832 C838 1.368 . S
C833 C817 1.349 . S
C833 H825 0.950 . S
C833 C831 1.327 . S
C834 C822 1.349 . S
C834 H828 0.950 . S
C834 C835 1.327 . S
C835 H829 0.950 . S
C835 C834 1.327 . S
C835 C839 1.429 . S
C836 C819 1.574 . S
C836 H830 0.949 . S
C836 C840 1.368 . S
C837 C818 1.429 . S
C837 C831 1.429 . S
C837 C838 1.523 . S
C838 C819 1.368 . S
C838 C832 1.368 . S
C838 C837 1.523 . S
C839 C823 1.429 . S
C839 C835 1.429 . S
C839 C840 1.523 . S
C840 C824 1.368 . S
C840 C836 1.368 . S
C840 C839 1.523 . S
H841 C816 0.950 . S
H842 C818 0.950 . S
H843 C819 0.949 . S
H844 C821 0.950 . S
H845 C823 0.950 . S
C846 C847 1.349 . S
C846 C848 1.327 . S
C846 H871 0.950 . S
C847 C846 1.349 . S
C847 C863 1.349 . S
C848 C846 1.327 . S
C848 C867 1.429 . S
C848 H872 0.950 . S
C849 C866 1.574 . S
C849 C868 1.368 . S
C849 H873 0.949 . S
H850 C854 0.949 . S
C851 C852 1.349 . S
C851 C853 1.327 . S
C851 H874 0.950 . S
C852 C851 1.349 . S
C852 C864 1.349 . S
C853 C851 1.327 . S
C853 C869 1.429 . S
C853 H875 0.950 . S
C854 H850 0.949 . S
C854 C862 1.574 . S
C854 C870 1.368 . S
H855 C863 0.950 . S
H856 C861 0.950 . S
H857 C862 0.949 . S
H858 C864 0.950 . S
H859 C865 0.950 . S
H860 C866 0.949 . S
C861 H856 0.950 . S
C861 C863 1.327 . S
C861 C867 1.429 . S
C862 C854 1.574 . S
C862 H857 0.949 . S
C862 C868 1.368 . S
C863 C847 1.349 . S
C863 H855 0.950 . S
C863 C861 1.327 . S
C864 C852 1.349 . S
C864 H858 0.950 . S
C864 C865 1.327 . S
C865 H859 0.950 . S
C865 C864 1.327 . S
C865 C869 1.429 . S
C866 C849 1.574 . S
C866 H860 0.949 . S
C866 C870 1.368 . S
C867 C848 1.429 . S
C867 C861 1.429 . S
C867 C868 1.523 . S
C868 C849 1.368 . S
C868 C862 1.368 . S
C868 C867 1.523 . S
C869 C853 1.429 . S
C869 C865 1.429 . S
C869 C870 1.523 . S
C870 C854 1.368 . S
C870 C866 1.368 . S
C870 C869 1.523 . S
H871 C846 0.950 . S
H872 C848 0.950 . S
H873 C849 0.949 . S
H874 C851 0.950 . S
H875 C853 0.950 . S
C876 C877 1.349 . S
C876 C878 1.327 . S
C876 H901 0.950 . S
C877 C876 1.349 . S
C877 C893 1.349 . S
C878 C876 1.327 . S
C878 C897 1.429 . S
C878 H902 0.950 . S
C879 C896 1.574 . S
C879 C898 1.368 . S
C879 H903 0.949 . S
H880 C884 0.949 . S
C881 C882 1.349 . S
C881 C883 1.327 . S
C881 H904 0.950 . S
C882 C881 1.349 . S
C882 C894 1.349 . S
C883 C881 1.327 . S
C883 C899 1.429 . S
C883 H905 0.950 . S
C884 H880 0.949 . S
C884 C892 1.574 . S
C884 C900 1.368 . S
H885 C893 0.950 . S
H886 C891 0.950 . S
H887 C892 0.949 . S
H888 C894 0.950 . S
H889 C895 0.950 . S
H890 C896 0.949 . S
C891 H886 0.950 . S
C891 C893 1.327 . S
C891 C897 1.429 . S
C892 C884 1.574 . S
C892 H887 0.949 . S
C892 C898 1.368 . S
C893 C877 1.349 . S
C893 H885 0.950 . S
C893 C891 1.327 . S
C894 C882 1.349 . S
C894 H888 0.950 . S
C894 C895 1.327 . S
C895 H889 0.950 . S
C895 C894 1.327 . S
C895 C899 1.429 . S
C896 C879 1.574 . S
C896 H890 0.949 . S
C896 C900 1.368 . S
C897 C878 1.429 . S
C897 C891 1.429 . S
C897 C898 1.523 . S
C898 C879 1.368 . S
C898 C892 1.368 . S
C898 C897 1.523 . S
C899 C883 1.429 . S
C899 C895 1.429 . S
C899 C900 1.523 . S
C900 C884 1.368 . S
C900 C896 1.368 . S
C900 C899 1.523 . S
H901 C876 0.950 . S
H902 C878 0.950 . S
H903 C879 0.949 . S
H904 C881 0.950 . S
H905 C883 0.950 . S
C906 C907 1.349 . S
C906 C908 1.327 . S
C906 H931 0.950 . S
C907 C906 1.349 . S
C907 C923 1.349 . S
C908 C906 1.327 . S
C908 C927 1.429 . S
C908 H932 0.950 . S
C909 C926 1.574 . S
C909 C928 1.368 . S
C909 H933 0.949 . S
H910 C914 0.949 . S
C911 C912 1.349 . S
C911 C913 1.327 . S
C911 H934 0.950 . S
C912 C911 1.349 . S
C912 C924 1.349 . S
C913 C911 1.327 . S
C913 C929 1.429 1_554 S
C913 H935 0.950 . S
C914 H910 0.949 . S
C914 C922 1.574 . S
C914 C930 1.368 . S
H915 C923 0.950 . S
H916 C921 0.950 . S
H917 C922 0.949 . S
H918 C924 0.950 . S
H919 C925 0.950 . S
H920 C926 0.949 . S
C921 H916 0.950 . S
C921 C923 1.327 . S
C921 C927 1.429 . S
C922 C914 1.574 . S
C922 H917 0.949 . S
C922 C928 1.368 . S
C923 C907 1.349 . S
C923 H915 0.950 . S
C923 C921 1.327 . S
C924 C912 1.349 . S
C924 H918 0.950 . S
C924 C925 1.327 1_554 S
C925 H919 0.950 . S
C925 C924 1.327 1_556 S
C925 C929 1.429 . S
C926 C909 1.574 . S
C926 H920 0.949 . S
C926 C930 1.368 . S
C927 C908 1.429 . S
C927 C921 1.429 . S
C927 C928 1.523 . S
C928 C909 1.368 . S
C928 C922 1.368 . S
C928 C927 1.523 . S
C929 C913 1.429 1_556 S
C929 C925 1.429 . S
C929 C930 1.523 . S
C930 C914 1.368 . S
C930 C926 1.368 . S
C930 C929 1.523 . S
H931 C906 0.950 . S
H932 C908 0.950 . S
H933 C909 0.949 . S
H934 C911 0.950 . S
H935 C913 0.950 . S
C936 C937 1.349 . S
C936 C938 1.327 . S
C936 H961 0.950 . S
C937 C936 1.349 . S
C937 C953 1.349 . S
C938 C936 1.327 . S
C938 C957 1.429 . S
C938 H962 0.950 . S
C939 C956 1.574 . S
C939 C958 1.368 . S
C939 H963 0.949 . S
H940 C944 0.949 . S
C941 C942 1.349 . S
C941 C943 1.327 . S
C941 H964 0.950 . S
C942 C941 1.349 . S
C942 C954 1.349 . S
C943 C941 1.327 . S
C943 C959 1.429 . S
C943 H965 0.950 . S
C944 H940 0.949 . S
C944 C952 1.574 . S
C944 C960 1.368 . S
H945 C953 0.950 . S
H946 C951 0.950 . S
H947 C952 0.949 . S
H948 C954 0.950 . S
H949 C955 0.950 . S
H950 C956 0.949 . S
C951 H946 0.950 . S
C951 C953 1.327 . S
C951 C957 1.429 . S
C952 C944 1.574 . S
C952 H947 0.949 . S
C952 C958 1.368 . S
C953 C937 1.349 . S
C953 H945 0.950 . S
C953 C951 1.327 . S
C954 C942 1.349 . S
C954 H948 0.950 . S
C954 C955 1.327 . S
C955 H949 0.950 . S
C955 C954 1.327 . S
C955 C959 1.429 . S
C956 C939 1.574 . S
C956 H950 0.949 . S
C956 C960 1.368 . S
C957 C938 1.429 . S
C957 C951 1.429 . S
C957 C958 1.523 . S
C958 C939 1.368 . S
C958 C952 1.368 . S
C958 C957 1.523 . S
C959 C943 1.429 . S
C959 C955 1.429 . S
C959 C960 1.523 . S
C960 C944 1.368 . S
C960 C956 1.368 . S
C960 C959 1.523 . S
H961 C936 0.950 . S
H962 C938 0.950 . S
H963 C939 0.949 . S
H964 C941 0.950 . S
H965 C943 0.950 . S
C966 C967 1.349 . S
C966 C968 1.327 . S
C966 H991 0.950 . S
C967 C966 1.349 . S
C967 C983 1.349 . S
C968 C966 1.327 . S
C968 C987 1.429 . S
C968 H992 0.950 . S
C969 C986 1.574 . S
C969 C988 1.368 . S
C969 H993 0.949 . S
H970 C974 0.949 . S
C971 C972 1.349 . S
C971 C973 1.327 . S
C971 H994 0.950 . S
C972 C971 1.349 . S
C972 C984 1.349 . S
C973 C971 1.327 . S
C973 C989 1.429 . S
C973 H995 0.950 . S
C974 H970 0.949 . S
C974 C982 1.574 . S
C974 C990 1.368 . S
H975 C983 0.950 . S
H976 C981 0.950 . S
H977 C982 0.949 . S
H978 C984 0.950 . S
H979 C985 0.950 . S
H980 C986 0.949 . S
C981 H976 0.950 . S
C981 C983 1.327 . S
C981 C987 1.429 . S
C982 C974 1.574 . S
C982 H977 0.949 . S
C982 C988 1.368 . S
C983 C967 1.349 . S
C983 H975 0.950 . S
C983 C981 1.327 . S
C984 C972 1.349 . S
C984 H978 0.950 . S
C984 C985 1.327 . S
C985 H979 0.950 . S
C985 C984 1.327 . S
C985 C989 1.429 . S
C986 C969 1.574 . S
C986 H980 0.949 . S
C986 C990 1.368 . S
C987 C968 1.429 . S
C987 C981 1.429 . S
C987 C988 1.523 . S
C988 C969 1.368 . S
C988 C982 1.368 . S
C988 C987 1.523 . S
C989 C973 1.429 . S
C989 C985 1.429 . S
C989 C990 1.523 . S
C990 C974 1.368 . S
C990 C986 1.368 . S
C990 C989 1.523 . S
H991 C966 0.950 . S
H992 C968 0.950 . S
H993 C969 0.949 . S
H994 C971 0.950 . S
H995 C973 0.950 . S
C996 C997 1.349 . S
C996 C998 1.327 . S
C996 H1021 0.950 . S
C997 C996 1.349 . S
C997 C1013 1.349 . S
C998 C996 1.327 . S
C998 C1017 1.429 . S
C998 H1022 0.950 . S
C999 C1016 1.574 . S
C999 C1018 1.368 . S
C999 H1023 0.949 . S
H1000 C1004 0.949 . S
C1001 C1002 1.349 . S
C1001 C1003 1.327 . S
C1001 H1024 0.950 . S
C1002 C1001 1.349 . S
C1002 C1014 1.349 . S
C1003 C1001 1.327 . S
C1003 C1019 1.429 . S
C1003 H1025 0.950 . S
C1004 H1000 0.949 . S
C1004 C1012 1.574 . S
C1004 C1020 1.368 . S
H1005 C1013 0.950 . S
H1006 C1011 0.950 . S
H1007 C1012 0.949 . S
H1008 C1014 0.950 . S
H1009 C1015 0.950 . S
H1010 C1016 0.949 . S
C1011 H1006 0.950 . S
C1011 C1013 1.327 . S
C1011 C1017 1.429 . S
C1012 C1004 1.574 . S
C1012 H1007 0.949 . S
C1012 C1018 1.368 . S
C1013 C997 1.349 . S
C1013 H1005 0.950 . S
C1013 C1011 1.327 . S
C1014 C1002 1.349 . S
C1014 H1008 0.950 . S
C1014 C1015 1.327 . S
C1015 H1009 0.950 . S
C1015 C1014 1.327 . S
C1015 C1019 1.429 . S
C1016 C999 1.574 . S
C1016 H1010 0.949 . S
C1016 C1020 1.368 . S
C1017 C998 1.429 . S
C1017 C1011 1.429 . S
C1017 C1018 1.523 . S
C1018 C999 1.368 . S
C1018 C1012 1.368 . S
C1018 C1017 1.523 . S
C1019 C1003 1.429 . S
C1019 C1015 1.429 . S
C1019 C1020 1.523 . S
C1020 C1004 1.368 . S
C1020 C1016 1.368 . S
C1020 C1019 1.523 . S
H1021 C996 0.950 . S
H1022 C998 0.950 . S
H1023 C999 0.949 . S
H1024 C1001 0.950 . S
H1025 C1003 0.950 . S
C1026 C1027 1.349 . S
C1026 C1028 1.327 . S
C1026 H1051 0.950 . S
C1027 C1026 1.349 . S
C1027 C1043 1.349 . S
C1028 C1026 1.327 . S
C1028 C1047 1.429 . S
C1028 H1052 0.950 . S
C1029 C1046 1.574 . S
C1029 C1048 1.368 . S
C1029 H1053 0.949 . S
H1030 C1034 0.949 . S
C1031 C1032 1.349 . S
C1031 C1033 1.327 . S
C1031 H1054 0.950 . S
C1032 C1031 1.349 . S
C1032 C1044 1.349 . S
C1033 C1031 1.327 . S
C1033 C1049 1.429 . S
C1033 H1055 0.950 . S
C1034 H1030 0.949 . S
C1034 C1042 1.574 . S
C1034 C1050 1.368 . S
H1035 C1043 0.950 . S
H1036 C1041 0.950 . S
H1037 C1042 0.949 . S
H1038 C1044 0.950 . S
H1039 C1045 0.950 . S
H1040 C1046 0.949 . S
C1041 H1036 0.950 . S
C1041 C1043 1.327 . S
C1041 C1047 1.429 . S
C1042 C1034 1.574 . S
C1042 H1037 0.949 . S
C1042 C1048 1.368 . S
C1043 C1027 1.349 . S
C1043 H1035 0.950 . S
C1043 C1041 1.327 . S
C1044 C1032 1.349 . S
C1044 H1038 0.950 . S
C1044 C1045 1.327 . S
C1045 H1039 0.950 . S
C1045 C1044 1.327 . S
C1045 C1049 1.429 . S
C1046 C1029 1.574 . S
C1046 H1040 0.949 . S
C1046 C1050 1.368 . S
C1047 C1028 1.429 . S
C1047 C1041 1.429 . S
C1047 C1048 1.523 . S
C1048 C1029 1.368 . S
C1048 C1042 1.368 . S
C1048 C1047 1.523 . S
C1049 C1033 1.429 . S
C1049 C1045 1.429 . S
C1049 C1050 1.523 . S
C1050 C1034 1.368 . S
C1050 C1046 1.368 . S
C1050 C1049 1.523 . S
H1051 C1026 0.950 . S
H1052 C1028 0.950 . S
H1053 C1029 0.949 . S
H1054 C1031 0.950 . S
H1055 C1033 0.950 . S
C1056 C1057 1.349 . S
C1056 C1058 1.327 . S
C1056 H1081 0.950 . S
C1057 C1056 1.349 . S
C1057 C1073 1.349 . S
C1058 C1056 1.327 . S
C1058 C1077 1.429 . S
C1058 H1082 0.950 . S
C1059 C1076 1.574 . S
C1059 C1078 1.368 . S
C1059 H1083 0.949 . S
H1060 C1064 0.949 . S
C1061 C1062 1.349 . S
C1061 C1063 1.327 . S
C1061 H1084 0.950 . S
C1062 C1061 1.349 . S
C1062 C1074 1.349 . S
C1063 C1061 1.327 . S
C1063 C1079 1.429 . S
C1063 H1085 0.950 . S
C1064 H1060 0.949 . S
C1064 C1072 1.574 . S
C1064 C1080 1.368 . S
H1065 C1073 0.950 . S
H1066 C1071 0.950 . S
H1067 C1072 0.949 . S
H1068 C1074 0.950 . S
H1069 C1075 0.950 . S
H1070 C1076 0.949 . S
C1071 H1066 0.950 . S
C1071 C1073 1.327 . S
C1071 C1077 1.429 . S
C1072 C1064 1.574 . S
C1072 H1067 0.949 . S
C1072 C1078 1.368 . S
C1073 C1057 1.349 . S
C1073 H1065 0.950 . S
C1073 C1071 1.327 . S
C1074 C1062 1.349 . S
C1074 H1068 0.950 . S
C1074 C1075 1.327 . S
C1075 H1069 0.950 . S
C1075 C1074 1.327 . S
C1075 C1079 1.429 . S
C1076 C1059 1.574 . S
C1076 H1070 0.949 . S
C1076 C1080 1.368 . S
C1077 C1058 1.429 . S
C1077 C1071 1.429 . S
C1077 C1078 1.523 . S
C1078 C1059 1.368 . S
C1078 C1072 1.368 . S
C1078 C1077 1.523 . S
C1079 C1063 1.429 . S
C1079 C1075 1.429 . S
C1079 C1080 1.523 . S
C1080 C1064 1.368 . S
C1080 C1076 1.368 . S
C1080 C1079 1.523 . S
H1081 C1056 0.950 . S
H1082 C1058 0.950 . S
H1083 C1059 0.949 . S
H1084 C1061 0.950 . S
H1085 C1063 0.950 . S
C1086 C1087 1.349 . S
C1086 C1088 1.327 . S
C1086 H1111 0.950 . S
C1087 C1086 1.349 . S
C1087 C1103 1.349 . S
C1088 C1086 1.327 . S
C1088 C1107 1.429 . S
C1088 H1112 0.950 . S
C1089 C1106 1.574 . S
C1089 C1108 1.368 . S
C1089 H1113 0.949 . S
H1090 C1094 0.949 . S
C1091 C1092 1.349 . S
C1091 C1093 1.327 . S
C1091 H1114 0.950 . S
C1092 C1091 1.349 . S
C1092 C1104 1.349 . S
C1093 C1091 1.327 . S
C1093 C1109 1.429 . S
C1093 H1115 0.950 . S
C1094 H1090 0.949 . S
C1094 C1102 1.574 . S
C1094 C1110 1.368 . S
H1095 C1103 0.950 . S
H1096 C1101 0.950 . S
H1097 C1102 0.949 . S
H1098 C1104 0.950 . S
H1099 C1105 0.950 . S
H1100 C1106 0.949 . S
C1101 H1096 0.950 . S
C1101 C1103 1.327 . S
C1101 C1107 1.429 . S
C1102 C1094 1.574 . S
C1102 H1097 0.949 . S
C1102 C1108 1.368 . S
C1103 C1087 1.349 . S
C1103 H1095 0.950 . S
C1103 C1101 1.327 . S
C1104 C1092 1.349 . S
C1104 H1098 0.950 . S
C1104 C1105 1.327 . S
C1105 H1099 0.950 . S
C1105 C1104 1.327 . S
C1105 C1109 1.429 . S
C1106 C1089 1.574 . S
C1106 H1100 0.949 . S
C1106 C1110 1.368 . S
C1107 C1088 1.429 . S
C1107 C1101 1.429 . S
C1107 C1108 1.523 . S
C1108 C1089 1.368 . S
C1108 C1102 1.368 . S
C1108 C1107 1.523 . S
C1109 C1093 1.429 . S
C1109 C1105 1.429 . S
C1109 C1110 1.523 . S
C1110 C1094 1.368 . S
C1110 C1106 1.368 . S
C1110 C1109 1.523 . S
H1111 C1086 0.950 . S
H1112 C1088 0.950 . S
H1113 C1089 0.949 . S
H1114 C1091 0.950 . S
H1115 C1093 0.950 . S
C1116 C1117 1.349 . S
C1116 C1118 1.327 . S
C1116 H1141 0.950 . S
C1117 C1116 1.349 . S
C1117 C1133 1.349 . S
C1118 C1116 1.327 . S
C1118 C1137 1.429 . S
C1118 H1142 0.950 . S
C1119 C1136 1.574 1_554 S
C1119 C1138 1.368 . S
C1119 H1143 0.949 . S
H1120 C1124 0.949 . S
C1121 C1122 1.349 . S
C1121 C1123 1.327 . S
C1121 H1144 0.950 . S
C1122 C1121 1.349 . S
C1122 C1134 1.349 . S
C1123 C1121 1.327 . S
C1123 C1139 1.429 . S
C1123 H1145 0.950 . S
C1124 H1120 0.949 . S
C1124 C1132 1.574 1_556 S
C1124 C1140 1.368 . S
H1125 C1133 0.950 . S
H1126 C1131 0.950 . S
H1127 C1132 0.949 . S
H1128 C1134 0.950 . S
H1129 C1135 0.950 . S
H1130 C1136 0.949 . S
C1131 H1126 0.950 . S
C1131 C1133 1.327 . S
C1131 C1137 1.429 . S
C1132 C1124 1.574 1_554 S
C1132 H1127 0.949 . S
C1132 C1138 1.368 . S
C1133 C1117 1.349 . S
C1133 H1125 0.950 . S
C1133 C1131 1.327 . S
C1134 C1122 1.349 . S
C1134 H1128 0.950 . S
C1134 C1135 1.327 . S
C1135 H1129 0.950 . S
C1135 C1134 1.327 . S
C1135 C1139 1.429 . S
C1136 C1119 1.574 1_556 S
C1136 H1130 0.949 . S
C1136 C1140 1.368 . S
C1137 C1118 1.429 . S
C1137 C1131 1.429 . S
C1137 C1138 1.523 . S
C1138 C1119 1.368 . S
C1138 C1132 1.368 . S
C1138 C1137 1.523 . S
C1139 C1123 1.429 . S
C1139 C1135 1.429 . S
C1139 C1140 1.523 . S
C1140 C1124 1.368 . S
C1140 C1136 1.368 . S
C1140 C1139 1.523 . S
H1141 C1116 0.950 . S
H1142 C1118 0.950 . S
H1143 C1119 0.949 . S
H1144 C1121 0.950 . S
H1145 C1123 0.950 . S
C1146 C1147 1.349 . S
C1146 C1148 1.327 . S
C1146 H1171 0.950 . S
C1147 C1146 1.349 . S
C1147 C1163 1.349 . S
C1148 C1146 1.327 . S
C1148 C1167 1.429 . S
C1148 H1172 0.950 . S
C1149 C1166 1.574 . S
C1149 C1168 1.368 . S
C1149 H1173 0.949 . S
H1150 C1154 0.949 . S
C1151 C1152 1.349 . S
C1151 C1153 1.327 . S
C1151 H1174 0.950 . S
C1152 C1151 1.349 . S
C1152 C1164 1.349 . S
C1153 C1151 1.327 . S
C1153 C1169 1.429 . S
C1153 H1175 0.950 . S
C1154 H1150 0.949 . S
C1154 C1162 1.574 . S
C1154 C1170 1.368 . S
H1155 C1163 0.950 . S
H1156 C1161 0.950 . S
H1157 C1162 0.949 . S
H1158 C1164 0.950 . S
H1159 C1165 0.950 . S
H1160 C1166 0.949 . S
C1161 H1156 0.950 . S
C1161 C1163 1.327 . S
C1161 C1167 1.429 . S
C1162 C1154 1.574 . S
C1162 H1157 0.949 . S
C1162 C1168 1.368 . S
C1163 C1147 1.349 . S
C1163 H1155 0.950 . S
C1163 C1161 1.327 . S
C1164 C1152 1.349 . S
C1164 H1158 0.950 . S
C1164 C1165 1.327 . S
C1165 H1159 0.950 . S
C1165 C1164 1.327 . S
C1165 C1169 1.429 . S
C1166 C1149 1.574 . S
C1166 H1160 0.949 . S
C1166 C1170 1.368 . S
C1167 C1148 1.429 . S
C1167 C1161 1.429 . S
C1167 C1168 1.523 . S
C1168 C1149 1.368 . S
C1168 C1162 1.368 . S
C1168 C1167 1.523 . S
C1169 C1153 1.429 . S
C1169 C1165 1.429 . S
C1169 C1170 1.523 . S
C1170 C1154 1.368 . S
C1170 C1166 1.368 . S
C1170 C1169 1.523 . S
H1171 C1146 0.950 . S
H1172 C1148 0.950 . S
H1173 C1149 0.949 . S
H1174 C1151 0.950 . S
H1175 C1153 0.950 . S
C462 C442 1.686 . S
C457 C29 1.586 . S
C487 C115 1.549 . S
C492 C383 1.577 . S
C517 C153 1.581 . S
C522 C386 1.682 . S
C547 C239 1.547 . S
C552 C400 1.571 . S
C582 C425 1.626 . S
C577 C301 1.595 . S
C607 C339 1.832 . S
C612 C428 1.954 . S
C637 C91 1.571 . S
C642 C397 1.673 . S
C667 C177 1.527 . S
C672 C411 1.552 . S
C697 C215 1.547 . S
C702 C414 1.646 . S
C732 C439 1.938 . S
C727 C277 1.817 . S
C762 C453 1.607 . S
C757 C363 1.578 . S
C792 C372 1.526 . S
C787 C53 1.502 . S
C817 C35 1.532 . S
C822 C395 1.559 . S
C847 C109 1.409 . S
C852 C409 1.515 . S
C882 C419 1.457 . S
C877 C159 1.434 . S
C907 C233 1.594 . S
C912 C437 1.710 . S
C942 C451 1.537 . S
C937 C295 1.416 . S
C972 C377 1.399 . S
C967 C345 1.377 . S
C1002 C447 1.484 . S
C997 C97 1.461 . S
C1027 C171 1.416 . S
C1032 C381 1.528 . S
C1062 C391 1.593 . S
C1057 C221 1.560 . S
C1087 C283 1.399 . S
C1092 C405 1.422 . S
C1117 C357 1.425 . S
C1122 C423 1.552 . S
C1147 C47 1.626 . S
C1152 C433 1.751 . S
