# Generated by pormake.
# Topology eea, (3,6)-cn, num edge types: 1
# Building blocks:
#     Node 0, Type 0, BuildingBlock: BELTOD_clean_linker_0, # of connection points: 3
#     Node 1, Type 0, BuildingBlock: BELTOD_clean_linker_0, # of connection points: 3
#     Node 2, Type 0, BuildingBlock: BELTOD_clean_linker_0, # of connection points: 3
#     Node 3, Type 0, BuildingBlock: BELTOD_clean_linker_0, # of connection points: 3
#     Node 4, Type 0, BuildingBlock: BELTOD_clean_linker_0, # of connection points: 3
#     Node 5, Type 0, BuildingBlock: BELTOD_clean_linker_0, # of connection points: 3
#     Node 6, Type 0, BuildingBlock: BELTOD_clean_linker_0, # of connection points: 3
#     Node 7, Type 0, BuildingBlock: BELTOD_clean_linker_0, # of connection points: 3
#     Node 8, Type 0, BuildingBlock: BELTOD_clean_linker_0, # of connection points: 3
#     Node 9, Type 0, BuildingBlock: BELTOD_clean_linker_0, # of connection points: 3
#     Node 10, Type 0, BuildingBlock: BELTOD_clean_linker_0, # of connection points: 3
#     Node 11, Type 0, BuildingBlock: BELTOD_clean_linker_0, # of connection points: 3
#     Node 12, Type 0, BuildingBlock: BELTOD_clean_linker_0, # of connection points: 3
#     Node 13, Type 0, BuildingBlock: BELTOD_clean_linker_0, # of connection points: 3
#     Node 14, Type 0, BuildingBlock: BELTOD_clean_linker_0, # of connection points: 3
#     Node 15, Type 0, BuildingBlock: BELTOD_clean_linker_0, # of connection points: 3
#     Node 16, Type 0, BuildingBlock: BELTOD_clean_linker_0, # of connection points: 3
#     Node 17, Type 0, BuildingBlock: BELTOD_clean_linker_0, # of connection points: 3
#     Node 18, Type 1, BuildingBlock: KUMBUR_clean_sbu_0, # of connection points: 6
#     Node 19, Type 1, BuildingBlock: KUMBUR_clean_sbu_0, # of connection points: 6
#     Node 20, Type 1, BuildingBlock: KUMBUR_clean_sbu_0, # of connection points: 6
#     Node 21, Type 1, BuildingBlock: KUMBUR_clean_sbu_0, # of connection points: 6
#     Node 22, Type 1, BuildingBlock: KUMBUR_clean_sbu_0, # of connection points: 6
#     Node 23, Type 1, BuildingBlock: KUMBUR_clean_sbu_0, # of connection points: 6
#     Node 24, Type 1, BuildingBlock: KUMBUR_clean_sbu_0, # of connection points: 6
#     Node 25, Type 1, BuildingBlock: KUMBUR_clean_sbu_0, # of connection points: 6
#     Node 26, Type 1, BuildingBlock: KUMBUR_clean_sbu_0, # of connection points: 6
#     Edge 27, Type (0, 1), BuildingBlock: OJICUG_clean_linker_0, # of connection points: 2
#     Edge 28, Type (0, 1), BuildingBlock: OJICUG_clean_linker_0, # of connection points: 2
#     Edge 29, Type (0, 1), BuildingBlock: OJICUG_clean_linker_0, # of connection points: 2
#     Edge 30, Type (0, 1), BuildingBlock: OJICUG_clean_linker_0, # of connection points: 2
#     Edge 31, Type (0, 1), BuildingBlock: OJICUG_clean_linker_0, # of connection points: 2
#     Edge 32, Type (0, 1), BuildingBlock: OJICUG_clean_linker_0, # of connection points: 2
#     Edge 33, Type (0, 1), BuildingBlock: OJICUG_clean_linker_0, # of connection points: 2
#     Edge 34, Type (0, 1), BuildingBlock: OJICUG_clean_linker_0, # of connection points: 2
#     Edge 35, Type (0, 1), BuildingBlock: OJICUG_clean_linker_0, # of connection points: 2
#     Edge 36, Type (0, 1), BuildingBlock: OJICUG_clean_linker_0, # of connection points: 2
#     Edge 37, Type (0, 1), BuildingBlock: OJICUG_clean_linker_0, # of connection points: 2
#     Edge 38, Type (0, 1), BuildingBlock: OJICUG_clean_linker_0, # of connection points: 2
#     Edge 39, Type (0, 1), BuildingBlock: OJICUG_clean_linker_0, # of connection points: 2
#     Edge 40, Type (0, 1), BuildingBlock: OJICUG_clean_linker_0, # of connection points: 2
#     Edge 41, Type (0, 1), BuildingBlock: OJICUG_clean_linker_0, # of connection points: 2
#     Edge 42, Type (0, 1), BuildingBlock: OJICUG_clean_linker_0, # of connection points: 2
#     Edge 43, Type (0, 1), BuildingBlock: OJICUG_clean_linker_0, # of connection points: 2
#     Edge 44, Type (0, 1), BuildingBlock: OJICUG_clean_linker_0, # of connection points: 2
#     Edge 45, Type (0, 1), BuildingBlock: OJICUG_clean_linker_0, # of connection points: 2
#     Edge 46, Type (0, 1), BuildingBlock: OJICUG_clean_linker_0, # of connection points: 2
#     Edge 47, Type (0, 1), BuildingBlock: OJICUG_clean_linker_0, # of connection points: 2
#     Edge 48, Type (0, 1), BuildingBlock: OJICUG_clean_linker_0, # of connection points: 2
#     Edge 49, Type (0, 1), BuildingBlock: OJICUG_clean_linker_0, # of connection points: 2
#     Edge 50, Type (0, 1), BuildingBlock: OJICUG_clean_linker_0, # of connection points: 2
#     Edge 51, Type (0, 1), BuildingBlock: OJICUG_clean_linker_0, # of connection points: 2
#     Edge 52, Type (0, 1), BuildingBlock: OJICUG_clean_linker_0, # of connection points: 2
#     Edge 53, Type (0, 1), BuildingBlock: OJICUG_clean_linker_0, # of connection points: 2
#     Edge 54, Type (0, 1), BuildingBlock: OJICUG_clean_linker_0, # of connection points: 2
#     Edge 55, Type (0, 1), BuildingBlock: OJICUG_clean_linker_0, # of connection points: 2
#     Edge 56, Type (0, 1), BuildingBlock: OJICUG_clean_linker_0, # of connection points: 2
#     Edge 57, Type (0, 1), BuildingBlock: OJICUG_clean_linker_0, # of connection points: 2
#     Edge 58, Type (0, 1), BuildingBlock: OJICUG_clean_linker_0, # of connection points: 2
#     Edge 59, Type (0, 1), BuildingBlock: OJICUG_clean_linker_0, # of connection points: 2
#     Edge 60, Type (0, 1), BuildingBlock: OJICUG_clean_linker_0, # of connection points: 2
#     Edge 61, Type (0, 1), BuildingBlock: OJICUG_clean_linker_0, # of connection points: 2
#     Edge 62, Type (0, 1), BuildingBlock: OJICUG_clean_linker_0, # of connection points: 2
#     Edge 63, Type (0, 1), BuildingBlock: OJICUG_clean_linker_0, # of connection points: 2
#     Edge 64, Type (0, 1), BuildingBlock: OJICUG_clean_linker_0, # of connection points: 2
#     Edge 65, Type (0, 1), BuildingBlock: OJICUG_clean_linker_0, # of connection points: 2
#     Edge 66, Type (0, 1), BuildingBlock: OJICUG_clean_linker_0, # of connection points: 2
#     Edge 67, Type (0, 1), BuildingBlock: OJICUG_clean_linker_0, # of connection points: 2
#     Edge 68, Type (0, 1), BuildingBlock: OJICUG_clean_linker_0, # of connection points: 2
#     Edge 69, Type (0, 1), BuildingBlock: OJICUG_clean_linker_0, # of connection points: 2
#     Edge 70, Type (0, 1), BuildingBlock: OJICUG_clean_linker_0, # of connection points: 2
#     Edge 71, Type (0, 1), BuildingBlock: OJICUG_clean_linker_0, # of connection points: 2
#     Edge 72, Type (0, 1), BuildingBlock: OJICUG_clean_linker_0, # of connection points: 2
#     Edge 73, Type (0, 1), BuildingBlock: OJICUG_clean_linker_0, # of connection points: 2
#     Edge 74, Type (0, 1), BuildingBlock: OJICUG_clean_linker_0, # of connection points: 2
#     Edge 75, Type (0, 1), BuildingBlock: OJICUG_clean_linker_0, # of connection points: 2
#     Edge 76, Type (0, 1), BuildingBlock: OJICUG_clean_linker_0, # of connection points: 2
#     Edge 77, Type (0, 1), BuildingBlock: OJICUG_clean_linker_0, # of connection points: 2
#     Edge 78, Type (0, 1), BuildingBlock: OJICUG_clean_linker_0, # of connection points: 2
#     Edge 79, Type (0, 1), BuildingBlock: OJICUG_clean_linker_0, # of connection points: 2
#     Edge 80, Type (0, 1), BuildingBlock: OJICUG_clean_linker_0, # of connection points: 2
# Relax obj value: 0.007
# Max RMSD: 0.090
# Mean RMSD: 0.080
data_MOF--net-eea--node1-KUMBUR_clean_sbu_0--node2-BELTOD_clean_linker_0--edge1-OJICUG_clean_linker_0
_symmetry_space_group_name_H-M    P1
_symmetry_Int_Tables_number       1
_symmetry_cell_setting            triclinic
loop_
_symmetry_equiv_pos_as_xyz
'x, y, z'
_cell_length_a     44.03118
_cell_length_b     45.092021
_cell_length_c     65.401865
_cell_angle_alpha  90.373262
_cell_angle_beta   89.876021
_cell_angle_gamma 120.02608
loop_
_atom_site_label
_atom_site_type_symbol
_atom_site_fract_x
_atom_site_fract_y
_atom_site_fract_z
_atom_type_partial_charge
P0 P 0.28626 0.13955 0.41189 0.0
H1 H 0.27235 0.10596 0.37223 0.0
H2 H 0.24175 0.0456 0.36165 0.0
H3 H 0.21544 0.01523 0.42459 0.0
H4 H 0.24477 0.07556 0.43507 0.0
H5 H 0.30637 0.21128 0.41533 0.0
H6 H 0.28078 0.24446 0.40259 0.0
H7 H 0.19541 0.15245 0.37578 0.0
H8 H 0.21962 0.11918 0.39021 0.0
H9 H 0.32264 0.11407 0.43668 0.0
H10 H 0.27197 0.1738 0.44654 0.0
O11 O 0.32446 0.15657 0.39952 0.0
H12 H 0.34025 0.12173 0.47273 0.0
H13 H 0.29109 0.18285 0.48229 0.0
C14 C 0.26143 0.09518 0.40443 0.0
C15 C 0.25966 0.08631 0.38372 0.0
C16 C 0.24205 0.05195 0.37769 0.0
C17 C 0.22648 0.02601 0.39236 0.0
C18 C 0.22747 0.03492 0.41306 0.0
C19 C 0.2444 0.06934 0.41903 0.0
C20 C 0.2649 0.16275 0.4039 0.0
C21 C 0.28176 0.19819 0.40706 0.0
C22 C 0.26729 0.21723 0.39942 0.0
C23 C 0.23617 0.20138 0.38776 0.0
C24 C 0.21913 0.16565 0.38484 0.0
C25 C 0.23322 0.14651 0.39297 0.0
C26 C 0.29633 0.14363 0.43883 0.0
C27 C 0.31523 0.12874 0.44659 0.0
C28 C 0.32519 0.13303 0.46714 0.0
C29 C 0.31707 0.15295 0.48014 0.0
C30 C 0.29776 0.16752 0.47246 0.0
C31 C 0.28702 0.1625 0.45199 0.0
P32 P 0.92039 0.1017 0.43715 0.0
H33 H 0.91291 0.03942 0.41897 0.0
H34 H 0.86635 0.9925 0.3998 0.0
H35 H 0.80584 0.04402 0.40142 0.0
H36 H 0.8524 0.09059 0.42146 0.0
H37 H 0.99667 0.14049 0.43591 0.0
H38 H 0.0387 0.18725 0.41472 0.0
H39 H 0.95376 0.18905 0.38299 0.0
H40 H 0.91126 0.14136 0.40426 0.0
H41 H 0.91302 0.08646 0.48073 0.0
H42 H 0.88897 0.14624 0.43951 0.0
O43 O 0.94289 0.08481 0.44759 0.0
H44 H 0.89003 0.10418 0.50929 0.0
H45 H 0.86496 0.16346 0.46823 0.0
C46 C 0.88598 0.06831 0.42197 0.0
C47 C 0.88963 0.04069 0.4153 0.0
C48 C 0.86299 0.01391 0.4041 0.0
C49 C 0.83221 0.01437 0.39896 0.0
C50 C 0.82891 0.04253 0.40535 0.0
C51 C 0.85563 0.06932 0.41673 0.0
C52 C 0.95074 0.13709 0.42154 0.0
C53 C 0.98686 0.15061 0.42433 0.0
C54 C 0.01096 0.17732 0.41211 0.0
C55 C 0.99953 0.1915 0.39698 0.0
C56 C 0.96329 0.17851 0.39448 0.0
C57 C 0.93903 0.15132 0.40662 0.0
C58 C 0.90308 0.11527 0.45795 0.0
C59 C 0.90292 0.10351 0.47777 0.0
C60 C 0.88978 0.11367 0.49415 0.0
C61 C 0.87591 0.13534 0.49099 0.0
C62 C 0.87545 0.14667 0.47106 0.0
C63 C 0.8892 0.1369 0.45467 0.0
P64 P 0.86719 0.73443 0.41243 0.0
H65 H 0.83162 0.72219 0.37325 0.0
H66 H 0.79338 0.74143 0.35865 0.0
H67 H 0.81599 0.81037 0.40978 0.0
H68 H 0.8541 0.79058 0.42457 0.0
H69 H 0.91497 0.70885 0.41847 0.0
H70 H 0.9728 0.72502 0.40542 0.0
H71 H 0.97441 0.80808 0.37184 0.0
H72 H 0.9166 0.79253 0.38607 0.0
H73 H 0.80749 0.71424 0.43961 0.0
H74 H 0.91813 0.75094 0.44641 0.0
O75 O 0.84487 0.6933 0.40537 0.0
H76 H 0.79866 0.69947 0.47595 0.0
H77 H 0.90917 0.73516 0.48247 0.0
C78 C 0.84515 0.75441 0.40021 0.0
C79 C 0.82878 0.74176 0.38124 0.0
C80 C 0.80687 0.75274 0.3729 0.0
C81 C 0.80135 0.77707 0.3832 0.0
C82 C 0.81979 0.7916 0.4015 0.0
C83 C 0.84148 0.78025 0.40999 0.0
C84 C 0.91153 0.74964 0.40349 0.0
C85 C 0.92792 0.73089 0.40854 0.0
C86 C 0.96095 0.73993 0.40076 0.0
C87 C 0.97832 0.76757 0.38719 0.0
C88 C 0.96203 0.78676 0.38231 0.0
C89 C 0.92888 0.77785 0.3904 0.0
C90 C 0.86341 0.73353 0.44009 0.0
C91 C 0.83006 0.71999 0.44899 0.0
C92 C 0.825 0.71146 0.46979 0.0
C93 C 0.85315 0.71575 0.48203 0.0
C94 C 0.88689 0.73115 0.47336 0.0
C95 C 0.892 0.74018 0.45265 0.0
P96 P 0.13171 0.26417 0.61199 0.0
H97 H 0.10947 0.27513 0.65182 0.0
H98 H 0.05184 0.25644 0.66692 0.0
H99 H 1.00225 0.19104 0.61463 0.0
H100 H 0.06029 0.21035 0.59933 0.0
H101 H 0.20439 0.28674 0.60347 0.0
H102 H 0.24571 0.27026 0.61601 0.0
H103 H 0.16431 0.19215 0.65343 0.0
H104 H 0.12234 0.2082 0.64001 0.0
H105 H 0.10433 0.29554 0.5842 0.0
H106 H 0.15517 0.23531 0.57861 0.0
O107 O 0.15196 0.30529 0.6191 0.0
H108 H 0.1136 0.30881 0.54769 0.0
H109 H 0.16514 0.24909 0.54226 0.0
C110 C 0.08919 0.24461 0.62428 0.0
C111 C 0.08626 0.25644 0.64367 0.0
C112 C 0.05331 0.2458 0.6523 0.0
C113 C 0.02252 0.22257 0.64187 0.0
C114 C 0.02554 0.20892 0.62304 0.0
C115 C 0.05866 0.21999 0.61425 0.0
C116 C 0.1602 0.24858 0.62062 0.0
C117 C 0.19522 0.26576 0.61418 0.0
C118 C 0.21899 0.25652 0.62159 0.0
C119 C 0.2086 0.23016 0.63602 0.0
C120 C 0.1732 0.21244 0.64226 0.0
C121 C 0.14919 0.22165 0.63464 0.0
C122 C 0.12954 0.26492 0.58431 0.0
C123 C 0.11671 0.28446 0.57504 0.0
C124 C 0.12204 0.29205 0.55413 0.0
C125 C 0.14065 0.28049 0.54211 0.0
C126 C 0.15127 0.25889 0.55116 0.0
C127 C 0.14552 0.25096 0.57202 0.0
P128 P 0.82155 0.90767 0.58016 0.0
H129 H 0.84436 0.93204 0.62199 0.0
H130 H 0.842 0.97566 0.643 0.0
H131 H 0.79456 -0.00031 0.59266 0.0
H132 H 0.79517 0.95469 0.57226 0.0
H133 H 0.84438 0.85821 0.57295 0.0
H134 H 0.8397 0.81045 0.59316 0.0
H135 H 0.78006 0.82863 0.63889 0.0
H136 H 0.78324 0.87535 0.6182 0.0
H137 H 0.82858 0.90988 0.53566 0.0
H138 H 0.74504 0.87448 0.57991 0.0
O139 O 0.86189 0.92666 0.57028 0.0
H140 H 0.78618 0.89381 0.50797 0.0
H141 H 0.70219 0.85894 0.55216 0.0
C142 C 0.81858 0.93906 0.59587 0.0
C143 C 0.83262 0.94611 0.61567 0.0
C144 C 0.83172 0.97148 0.62757 0.0
C145 C 0.81783 0.99116 0.61963 0.0
C146 C 0.80453 0.98448 0.59954 0.0
C147 C 0.80498 0.95874 0.58778 0.0
C148 C 0.81526 0.87106 0.59445 0.0
C149 C 0.83007 0.85178 0.58724 0.0
C150 C 0.82733 0.82453 0.59871 0.0
C151 C 0.80995 0.81643 0.6176 0.0
C152 C 0.79394 0.83485 0.62445 0.0
C153 C 0.79597 0.86161 0.61271 0.0
C154 C 0.78989 0.89349 0.5598 0.0
C155 C 0.80105 0.8986 0.53942 0.0
C156 C 0.77676 0.88963 0.52359 0.0
C157 C 0.74081 0.87549 0.52785 0.0
C158 C 0.72964 0.86961 0.54835 0.0
C159 C 0.75405 0.87854 0.5642 0.0
P160 P 0.13395 0.85489 0.61438 0.0
H161 H 0.20533 0.89732 0.62939 0.0
H162 H 0.23947 0.95713 0.63958 0.0
H163 H 0.15105 0.97064 0.62624 0.0
H164 H 0.11645 0.90987 0.61644 0.0
H165 H 0.11075 0.82139 0.65366 0.0
H166 H 0.05282 0.78646 0.66893 0.0
H167 H 0.00542 0.80688 0.61722 0.0
H168 H 0.0638 0.84188 0.60186 0.0
H169 H 0.17351 0.90296 0.58137 0.0
H170 H 0.09347 0.79685 0.58702 0.0
O171 O 0.15555 0.83556 0.62255 0.0
H172 H 0.18074 0.8938 0.54535 0.0
H173 H 0.10022 0.78756 0.55077 0.0
C174 C 0.1582 0.89904 0.62243 0.0
C175 C 0.19308 0.91296 0.62879 0.0
C176 C 0.21275 0.94737 0.63443 0.0
C177 C 0.19812 0.96882 0.6336 0.0
C178 C 0.16301 0.95476 0.62723 0.0
C179 C 0.14324 0.92011 0.62159 0.0
C180 C 0.0914 0.83334 0.62636 0.0
C181 C 0.08796 0.81862 0.64565 0.0
C182 C 0.0549 0.79878 0.65441 0.0
C183 C 0.02465 0.79371 0.64417 0.0
C184 C 0.02834 0.81048 0.62547 0.0
C185 C 0.06158 0.83019 0.61661 0.0
C186 C 0.13252 0.85069 0.58689 0.0
C187 C 0.15661 0.87792 0.57474 0.0
C188 C 0.16075 0.87264 0.55405 0.0
C189 C 0.14121 0.83988 0.54515 0.0
C190 C 0.11596 0.81302 0.55718 0.0
C191 C 0.11178 0.81838 0.57786 0.0
P192 P 0.95136 0.47114 0.74403 0.0
H193 H 0.93641 0.43725 0.70446 0.0
H194 H 0.90394 0.37683 0.69407 0.0
H195 H 0.87296 0.34775 0.75671 0.0
H196 H 0.90398 0.40824 0.76693 0.0
H197 H 0.98166 0.54183 0.73103 0.0
H198 H 0.95609 0.57592 0.71949 0.0
H199 H 0.85216 0.4894 0.72874 0.0
H200 H 0.87811 0.45521 0.74014 0.0
H201 H 0.97274 0.43422 0.77141 0.0
H202 H 0.95499 0.51991 0.77559 0.0
O203 O 0.98927 0.4857 0.73159 0.0
H204 H 0.99033 0.44211 0.80739 0.0
H205 H 0.97384 0.52859 0.81142 0.0
C206 C 0.92367 0.42709 0.73654 0.0
C207 C 0.92221 0.41791 0.71591 0.0
C208 C 0.90356 0.38351 0.70998 0.0
C209 C 0.88641 0.35786 0.72468 0.0
C210 C 0.88636 0.36719 0.74519 0.0
C211 C 0.90435 0.40169 0.75103 0.0
C212 C 0.93178 0.49592 0.73613 0.0
C213 C 0.95338 0.53016 0.73053 0.0
C214 C 0.9387 0.54967 0.72406 0.0
C215 C 0.90208 0.53532 0.72316 0.0
C216 C 0.88045 0.50101 0.72901 0.0
C217 C 0.89523 0.48151 0.7356 0.0
C218 C 0.96151 0.47577 0.77095 0.0
C219 C 0.97202 0.45434 0.78015 0.0
C220 C 0.98213 0.45888 0.80068 0.0
C221 C 0.98308 0.48574 0.81216 0.0
C222 C 0.9731 0.50758 0.80287 0.0
C223 C 0.96223 0.50253 0.78243 0.0
P224 P 0.57829 0.43965 0.76882 0.0
H225 H 0.5588 0.42695 0.72493 0.0
H226 H 0.51111 0.37821 0.70718 0.0
H227 H 0.46552 0.33213 0.76517 0.0
H228 H 0.51396 0.38062 0.783 0.0
H229 H 0.62134 0.44167 0.73447 0.0
H230 H 0.66448 0.48786 0.71321 0.0
H231 H 0.64723 0.56045 0.74757 0.0
H232 H 0.60255 0.51376 0.76775 0.0
H233 H 0.60054 0.45128 0.81166 0.0
H234 H 0.52572 0.46093 0.77403 0.0
O235 O 0.59954 0.42022 0.77738 0.0
H236 H 0.5789 0.46702 0.84186 0.0
H237 H 0.50369 0.47662 0.80431 0.0
C238 C 0.54014 0.40745 0.75536 0.0
C239 C 0.53861 0.40663 0.73393 0.0
C240 C 0.51125 0.37872 0.72374 0.0
C241 C 0.48475 0.35137 0.73482 0.0
C242 C 0.48546 0.353 0.75627 0.0
C243 C 0.51313 0.38068 0.76644 0.0
C244 C 0.60849 0.47415 0.75259 0.0
C245 C 0.62647 0.46751 0.73716 0.0
C246 C 0.65145 0.49408 0.72513 0.0
C247 C 0.65972 0.52816 0.72863 0.0
C248 C 0.64126 0.53459 0.74405 0.0
C249 C 0.61577 0.50783 0.75582 0.0
C250 C 0.56438 0.45447 0.79066 0.0
C251 C 0.57949 0.45688 0.80988 0.0
C252 C 0.56698 0.46574 0.82717 0.0
C253 C 0.53929 0.47268 0.82554 0.0
C254 C 0.52511 0.47153 0.80608 0.0
C255 C 0.53756 0.46245 0.78878 0.0
P256 P 0.5303 0.06743 0.74494 0.0
H257 H 0.49496 0.05616 0.70573 0.0
H258 H 0.45633 0.0754 0.6917 0.0
H259 H 0.47918 0.14334 0.7434 0.0
H260 H 0.51778 0.12369 0.75754 0.0
H261 H 0.57732 0.04101 0.75113 0.0
H262 H 0.63515 0.05666 0.73834 0.0
H263 H 0.63796 0.14006 0.70449 0.0
H264 H 0.58021 0.1251 0.71852 0.0
H265 H 0.4708 0.04858 0.77198 0.0
H266 H 0.58095 0.08307 0.779 0.0
O267 O 0.50746 0.02633 0.73787 0.0
H268 H 0.46167 0.03466 0.80842 0.0
H269 H 0.57163 0.068 0.81516 0.0
C270 C 0.50868 0.08795 0.73289 0.0
C271 C 0.49215 0.07559 0.71393 0.0
C272 C 0.46999 0.08653 0.70594 0.0
C273 C 0.46431 0.11047 0.7166 0.0
C274 C 0.48304 0.12484 0.73484 0.0
C275 C 0.50503 0.11358 0.74296 0.0
C276 C 0.57454 0.08208 0.73604 0.0
C277 C 0.59054 0.06301 0.7412 0.0
C278 C 0.62357 0.07175 0.73356 0.0
C279 C 0.64131 0.09936 0.72001 0.0
C280 C 0.62533 0.11879 0.71497 0.0
C281 C 0.59221 0.11021 0.72294 0.0
C282 C 0.52649 0.0667 0.77257 0.0
C283 C 0.4932 0.05399 0.78142 0.0
C284 C 0.48798 0.04596 0.80226 0.0
C285 C 0.51587 0.04988 0.8146 0.0
C286 C 0.54956 0.06434 0.80597 0.0
C287 C 0.55487 0.07293 0.7852 0.0
P288 P 0.80256 0.60027 0.94624 0.0
H289 H 0.7808 0.61047 0.98643 0.0
H290 H 0.72332 0.59128 1.00188 0.0
H291 H 0.67327 0.52627 0.94952 0.0
H292 H 0.73116 0.54609 0.93385 0.0
H293 H 0.8745 0.62175 0.93599 0.0
H294 H 0.91616 0.60509 0.94761 0.0
H295 H 0.83702 0.52938 0.98725 0.0
H296 H 0.79463 0.54533 0.97461 0.0
H297 H 0.77379 0.63189 0.91973 0.0
H298 H 0.82541 0.57275 0.91176 0.0
O299 O 0.82291 0.64118 0.95379 0.0
H300 H 0.78153 0.64603 0.88328 0.0
H301 H 0.8341 0.58764 0.87551 0.0
C302 C 0.76026 0.58022 0.95881 0.0
C303 C 0.75754 0.59174 0.97834 0.0
C304 C 0.72468 0.58078 0.98718 0.0
C305 C 0.6938 0.55754 0.97683 0.0
C306 C 0.69664 0.54412 0.95787 0.0
C307 C 0.72967 0.5555 0.94888 0.0
C308 C 0.83128 0.5845 0.95414 0.0
C309 C 0.86585 0.60115 0.94693 0.0
C310 C 0.88987 0.59186 0.95385 0.0
C311 C 0.88026 0.56613 0.96864 0.0
C312 C 0.84533 0.5491 0.97575 0.0
C313 C 0.82104 0.55825 0.96857 0.0
C314 C 0.79956 0.6018 0.91865 0.0
C315 C 0.78606 0.62128 0.91007 0.0
C316 C 0.79053 0.62938 0.88921 0.0
C317 C 0.80896 0.61842 0.87657 0.0
C318 C 0.82031 0.59693 0.88493 0.0
C319 C 0.81534 0.58842 0.90572 0.0
P320 P 0.48131 0.24061 0.91608 0.0
H321 H 0.5382 0.30699 0.92982 0.0
H322 H 0.53957 0.35286 0.95044 0.0
H323 H 0.42675 0.29449 0.95632 0.0
H324 H 0.42554 0.2487 0.93544 0.0
H325 H 0.46166 0.17012 0.90675 0.0
H326 H 0.45913 0.12412 0.92748 0.0
H327 H 0.48363 0.18811 0.9814 0.0
H328 H 0.48697 0.23426 0.96046 0.0
H329 H 0.48662 0.25461 0.87237 0.0
H330 H 0.40467 0.19596 0.91588 0.0
O331 O 0.5206 0.25516 0.9053 0.0
H332 H 0.44328 0.2345 0.84483 0.0
H333 H 0.3609 0.17658 0.8883 0.0
C334 C 0.48171 0.2747 0.93075 0.0
C335 C 0.5137 0.30411 0.93538 0.0
C336 C 0.51449 0.33021 0.94735 0.0
C337 C 0.48325 0.3273 0.95502 0.0
C338 C 0.45119 0.29767 0.95041 0.0
C339 C 0.45047 0.27148 0.93846 0.0
C340 C 0.4739 0.20536 0.93209 0.0
C341 C 0.46579 0.17398 0.9231 0.0
C342 C 0.46426 0.14766 0.935 0.0
C343 C 0.47113 0.1524 0.95613 0.0
C344 C 0.47851 0.18373 0.96515 0.0
C345 C 0.4801 0.21006 0.9532 0.0
C346 C 0.44887 0.22657 0.89613 0.0
C347 C 0.4593 0.23749 0.87602 0.0
C348 C 0.43455 0.22601 0.8603 0.0
C349 C 0.39886 0.20392 0.86449 0.0
C350 C 0.38828 0.19371 0.88473 0.0
C351 C 0.41321 0.20476 0.90044 0.0
P352 P 0.80045 0.19305 0.94775 0.0
H353 H 0.82672 0.22575 0.98721 0.0
H354 H 0.85807 0.28596 0.99818 0.0
H355 H 0.84345 0.3164 0.93831 0.0
H356 H 0.81061 0.25602 0.9276 0.0
H357 H 0.77541 0.14752 0.98278 0.0
H358 H 0.71746 0.11071 0.99721 0.0
H359 H 0.67167 0.14443 0.95104 0.0
H360 H 0.73042 0.18184 0.93661 0.0
H361 H 0.85595 0.23561 0.91939 0.0
H362 H 0.75586 0.14244 0.91622 0.0
O363 O 0.82644 0.17978 0.9577 0.0
H364 H 0.86688 0.22889 0.88372 0.0
H365 H 0.76736 0.13457 0.88048 0.0
C366 C 0.81739 0.23655 0.95641 0.0
C367 C 0.82961 0.24529 0.97656 0.0
C368 C 0.84739 0.27957 0.98283 0.0
C369 C 0.8533 0.30551 0.96897 0.0
C370 C 0.83925 0.29666 0.94917 0.0
C371 C 0.82076 0.26225 0.94304 0.0
C372 C 0.75711 0.16658 0.95819 0.0
C373 C 0.753 0.14701 0.97563 0.0
C374 C 0.71982 0.12603 0.98396 0.0
C375 C 0.68993 0.12436 0.97515 0.0
C376 C 0.69424 0.14526 0.95821 0.0
C377 C 0.72766 0.16631 0.94981 0.0
C378 C 0.80449 0.19026 0.92037 0.0
C379 C 0.83582 0.2141 0.91086 0.0
C380 C 0.84234 0.20988 0.89047 0.0
C381 C 0.81815 0.18102 0.87916 0.0
C382 C 0.78637 0.15737 0.88859 0.0
C383 C 0.77972 0.16185 0.90907 0.0
P384 P 0.62881 0.8159 0.07472 0.0
H385 H 0.6563 0.77267 0.06059 0.0
H386 H 0.62837 0.71223 0.05116 0.0
H387 H 0.52667 0.70059 0.06418 0.0
H388 H 0.55498 0.76154 0.07328 0.0
H389 H 0.60692 0.82544 0.03475 0.0
H390 H 0.57509 0.85388 0.02321 0.0
H391 H 0.56003 0.87356 0.08608 0.0
H392 H 0.59171 0.84501 0.09751 0.0
H393 H 0.6113 0.76678 0.10848 0.0
H394 H 0.66841 0.87632 0.10031 0.0
O395 O 0.66681 0.83687 0.0622 0.0
H396 H 0.62992 0.77421 0.14406 0.0
H397 H 0.68628 0.8841 0.13623 0.0
C398 C 0.60764 0.7716 0.06724 0.0
C399 C 0.62798 0.7572 0.06124 0.0
C400 C 0.61197 0.72257 0.05603 0.0
C401 C 0.57528 0.7016 0.05697 0.0
C402 C 0.55493 0.71617 0.06306 0.0
C403 C 0.57105 0.75092 0.06829 0.0
C404 C 0.60225 0.83376 0.06693 0.0
C405 C 0.59643 0.8356 0.04603 0.0
C406 C 0.57803 0.85159 0.03947 0.0
C407 C 0.56534 0.86614 0.05375 0.0
C408 C 0.56995 0.86294 0.07474 0.0
C409 C 0.58813 0.8467 0.08129 0.0
C410 C 0.63868 0.82104 0.10168 0.0
C411 C 0.62744 0.7925 0.11438 0.0
C412 C 0.63794 0.79681 0.13486 0.0
C413 C 0.65979 0.82977 0.14305 0.0
C414 C 0.66997 0.85833 0.13037 0.0
C415 C 0.6596 0.85396 0.10987 0.0
P416 P 0.25461 0.76697 0.10433 0.0
H417 H 0.24643 0.704 0.08661 0.0
H418 H 0.19958 0.65717 0.0675 0.0
H419 H 0.14084 0.71052 0.06795 0.0
H420 H 0.18757 0.75689 0.08795 0.0
H421 H 0.33085 0.80693 0.10333 0.0
H422 H 0.37248 0.85451 0.08245 0.0
H423 H 0.28683 0.85507 0.05078 0.0
H424 H 0.24479 0.80662 0.07171 0.0
H425 H 0.24455 0.74882 0.14745 0.0
H426 H 0.22423 0.81229 0.1072 0.0
O427 O 0.27747 0.75034 0.1146 0.0
H428 H 0.22053 0.76502 0.17601 0.0
H429 H 0.19814 0.82729 0.13561 0.0
C430 C 0.22033 0.73375 0.08901 0.0
C431 C 0.22348 0.70568 0.08267 0.0
C432 C 0.19669 0.67896 0.07151 0.0
C433 C 0.16628 0.67994 0.06611 0.0
C434 C 0.16358 0.7086 0.0721 0.0
C435 C 0.19041 0.73528 0.08345 0.0
C436 C 0.28464 0.80288 0.08895 0.0
C437 C 0.32082 0.81697 0.09182 0.0
C438 C 0.34468 0.84415 0.07979 0.0
C439 C 0.33291 0.85821 0.06479 0.0
C440 C 0.2966 0.84464 0.0622 0.0
C441 C 0.27261 0.81699 0.07414 0.0
C442 C 0.23659 0.77962 0.12519 0.0
C443 C 0.23478 0.76621 0.14471 0.0
C444 C 0.22055 0.77522 0.16106 0.0
C445 C 0.20707 0.79737 0.15822 0.0
C446 C 0.20867 0.81057 0.13851 0.0
C447 C 0.2234 0.80183 0.12217 0.0
P448 P 0.20029 0.40082 0.07759 0.0
H449 H 0.15257 0.37839 0.0427 0.0
H450 H 0.11321 0.39672 0.02902 0.0
H451 H 0.15462 0.48106 0.07204 0.0
H452 H 0.19463 0.46266 0.08558 0.0
H453 H 0.2276 0.38557 0.04106 0.0
H454 H 0.28684 0.4044 0.02869 0.0
H455 H 0.32975 0.47674 0.07869 0.0
H456 H 0.26988 0.4575 0.09118 0.0
H457 H 0.15011 0.40332 0.10628 0.0
H458 H 0.24165 0.39219 0.10972 0.0
O459 O 0.18015 0.35943 0.07107 0.0
H460 H 0.13823 0.38887 0.14226 0.0
H461 H 0.22918 0.37641 0.14572 0.0
C462 C 0.17586 0.41855 0.0656 0.0
C463 C 0.1535 0.401 0.04914 0.0
C464 C 0.13085 0.41145 0.04134 0.0
C465 C 0.13013 0.43989 0.04973 0.0
C466 C 0.15439 0.45896 0.06527 0.0
C467 C 0.17718 0.44842 0.07309 0.0
C468 C 0.24431 0.41944 0.06737 0.0
C469 C 0.24966 0.40566 0.04934 0.0
C470 C 0.28357 0.41644 0.04226 0.0
C471 C 0.31299 0.44168 0.05288 0.0
C472 C 0.30757 0.45721 0.0702 0.0
C473 C 0.27342 0.44613 0.07741 0.0
C474 C 0.19755 0.40009 0.10528 0.0
C475 C 0.16848 0.399 0.11489 0.0
C476 C 0.16129 0.39004 0.13552 0.0
C477 C 0.18249 0.38106 0.14699 0.0
C478 C 0.21248 0.38358 0.13755 0.0
C479 C 0.21976 0.39276 0.11689 0.0
P480 P 0.46862 0.93093 0.27875 0.0
H481 H 0.44642 0.94042 0.319 0.0
H482 H 0.38876 0.92142 0.33415 0.0
H483 H 0.33922 0.85734 0.28139 0.0
H484 H 0.39729 0.87702 0.26601 0.0
H485 H 0.5406 0.95314 0.26829 0.0
H486 H 0.58278 0.93691 0.27953 0.0
H487 H 0.50439 0.86019 0.31903 0.0
H488 H 0.46145 0.87583 0.30683 0.0
H489 H 0.44122 0.96394 0.2523 0.0
H490 H 0.49062 0.9028 0.2442 0.0
O491 O 0.48872 0.97173 0.2865 0.0
H492 H 0.44944 0.97836 0.2159 0.0
H493 H 0.49974 0.91789 0.20799 0.0
C494 C 0.42619 0.91061 0.29121 0.0
C495 C 0.42323 0.9219 0.31077 0.0
C496 C 0.39026 0.91107 0.31943 0.0
C497 C 0.35947 0.88816 0.30889 0.0
C498 C 0.36251 0.87494 0.2899 0.0
C499 C 0.39565 0.88622 0.28107 0.0
C500 C 0.4977 0.91543 0.28645 0.0
C501 C 0.53222 0.93243 0.27913 0.0
C502 C 0.55654 0.92338 0.28583 0.0
C503 C 0.5473 0.89748 0.30045 0.0
C504 C 0.51242 0.88006 0.30765 0.0
C505 C 0.48783 0.88903 0.30072 0.0
C506 C 0.46588 0.93284 0.25116 0.0
C507 C 0.45311 0.95296 0.24262 0.0
C508 C 0.45784 0.96122 0.22178 0.0
C509 C 0.47579 0.94975 0.20911 0.0
C510 C 0.48635 0.92761 0.21742 0.0
C511 C 0.48113 0.91896 0.2382 0.0
P512 P 0.15461 0.57447 0.24692 0.0
H513 H 0.1588 0.58664 0.29142 0.0
H514 H 0.15695 0.63088 0.31221 0.0
H515 H 0.14246 0.67585 0.25759 0.0
H516 H 0.14383 0.6312 0.2369 0.0
H517 H 0.20923 0.56278 0.26323 0.0
H518 H 0.20763 0.51762 0.28432 0.0
H519 H 0.09444 0.46721 0.28613 0.0
H520 H 0.09629 0.51239 0.26469 0.0
H521 H 0.1533 0.55367 0.20451 0.0
H522 H 0.08086 0.55705 0.24761 0.0
O523 O 0.19332 0.59488 0.23507 0.0
H524 H 0.10868 0.53404 0.17781 0.0
H525 H 0.03556 0.53653 0.22107 0.0
C526 C 0.15091 0.60537 0.26263 0.0
C527 C 0.15478 0.60572 0.28391 0.0
C528 C 0.15395 0.63117 0.29579 0.0
C529 C 0.14945 0.65679 0.28655 0.0
C530 C 0.14536 0.65615 0.2652 0.0
C531 C 0.14628 0.63074 0.25336 0.0
C532 C 0.15285 0.54048 0.26202 0.0
C533 C 0.18405 0.54188 0.26802 0.0
C534 C 0.18311 0.51622 0.28028 0.0
C535 C 0.15089 0.48879 0.28691 0.0
C536 C 0.11963 0.48773 0.28104 0.0
C537 C 0.12064 0.51352 0.26879 0.0
C538 C 0.12056 0.55746 0.22787 0.0
C539 C 0.12765 0.54993 0.20825 0.0
C540 C 0.10196 0.5384 0.19304 0.0
C541 C 0.06853 0.53384 0.19727 0.0
C542 C 0.06119 0.54031 0.21722 0.0
C543 C 0.08699 0.55191 0.23242 0.0
P544 P 0.47039 0.51999 0.28407 0.0
H545 H 0.54065 0.56222 0.30068 0.0
H546 H 0.57477 0.62237 0.31014 0.0
H547 H 0.48744 0.63612 0.29416 0.0
H548 H 0.45283 0.57503 0.28501 0.0
H549 H 0.44463 0.48199 0.32192 0.0
H550 H 0.38577 0.44638 0.33588 0.0
H551 H 0.34222 0.47426 0.28544 0.0
H552 H 0.4015 0.50984 0.27134 0.0
H553 H 0.51033 0.56917 0.25158 0.0
H554 H 0.43158 0.46241 0.25613 0.0
O555 O 0.492 0.50079 0.29242 0.0
H556 H 0.51845 0.56124 0.21551 0.0
H557 H 0.43932 0.45433 0.21983 0.0
C558 C 0.49404 0.56405 0.29237 0.0
C559 C 0.52856 0.57794 0.2994 0.0
C560 C 0.54823 0.61253 0.30463 0.0
C561 C 0.53397 0.63417 0.30273 0.0
C562 C 0.49909 0.62008 0.29593 0.0
C563 C 0.47932 0.58524 0.29068 0.0
C564 C 0.42727 0.49777 0.2953 0.0
C565 C 0.4225 0.48069 0.3139 0.0
C566 C 0.3889 0.46044 0.32192 0.0
C567 C 0.35947 0.45735 0.31165 0.0
C568 C 0.3645 0.47632 0.2937 0.0
C569 C 0.39825 0.49641 0.28556 0.0
C570 C 0.46992 0.51647 0.25655 0.0
C571 C 0.49393 0.54422 0.2447 0.0
C572 C 0.49858 0.53965 0.22398 0.0
C573 C 0.47967 0.5071 0.21476 0.0
C574 C 0.45456 0.47967 0.2265 0.0
C575 C 0.44984 0.48432 0.24721 0.0
Tb576 Tb 0.48201 0.97641 0.9879 0.0
C577 C 0.55731 0.1037 0.04321 0.0
C578 C 0.61863 0.1202 0.04243 0.0
C579 C 0.60187 0.16357 0.04739 0.0
C580 C 0.58289 0.09494 0.04095 0.0
C581 C 0.56634 0.13799 0.04683 0.0
C582 C 0.62801 0.15468 0.04518 0.0
C583 C 0.5046 0.11865 0.05057 0.0
N584 N 0.5234 0.0782 0.0427 0.0
C585 C 0.49703 0.08499 0.04702 0.0
C586 C 0.5394 0.14534 0.05026 0.0
Tb587 Tb 0.51332 0.02411 0.03578 0.0
N588 N 0.57262 0.06132 0.03856 0.0
C589 C 0.59701 0.051 0.03923 0.0
C590 C 0.64375 0.10989 0.04176 0.0
C591 C 0.63283 0.07508 0.0405 0.0
H592 H 0.47003 0.06459 0.04711 0.0
H593 H 0.65199 0.06673 0.04041 0.0
H594 H 0.65533 0.17451 0.04615 0.0
H595 H 0.4836 0.12398 0.05352 0.0
H596 H 0.58934 0.02431 0.03816 0.0
H597 H 0.34267 0.93028 0.99204 0.0
H598 H 0.67149 0.12847 0.04277 0.0
H599 H 0.52434 0.93831 0.9697 0.0
H600 H 0.4052 0.97398 0.99094 0.0
H601 H 0.51121 0.87975 0.96124 0.0
H602 H 0.60941 0.19014 0.04998 0.0
H603 H 0.32434 0.86887 0.98882 0.0
H604 H 0.34137 0.82401 0.98219 0.0
H605 H 0.54521 0.17137 0.05308 0.0
H606 H 0.38743 0.81017 0.97363 0.0
N607 N 0.42282 0.93789 0.98788 0.0
C608 C 0.39785 0.94738 0.9895 0.0
C609 C 0.35196 0.88798 0.98839 0.0
C610 C 0.37745 0.87857 0.98531 0.0
C611 C 0.3622 0.92261 0.99014 0.0
C612 C 0.41302 0.9045 0.98499 0.0
H613 H 0.45088 0.83094 0.96533 0.0
N614 N 0.47215 0.92296 0.97909 0.0
C615 C 0.49057 0.88412 0.96675 0.0
C616 C 0.43868 0.89672 0.98036 0.0
C617 C 0.4979 0.91735 0.97156 0.0
C618 C 0.45652 0.85662 0.96913 0.0
C619 C 0.4299 0.8628 0.97567 0.0
O620 O 0.50854 0.99072 0.95966 0.0
O621 O 0.524 0.01877 1.00424 0.0
O622 O 0.50983 0.05758 0.01311 0.0
O623 O 0.46701 0.01613 0.99196 0.0
O624 O 0.53766 0.99429 0.98286 0.0
O625 O 0.45855 0.98739 0.9632 0.0
O626 O 0.48852 0.01801 0.06436 0.0
O627 O 0.47217 0.98104 0.01968 0.0
O628 O 0.4923 0.94405 0.00831 0.0
O629 O 0.52878 0.98481 0.03265 0.0
O630 O 0.45695 0.00504 0.03994 0.0
O631 O 0.53007 0.00646 0.06058 0.0
C632 C 0.55 0.01894 0.99594 0.0
C633 C 0.47339 0.9768 0.93019 0.0
C634 C 0.4776 0.98156 0.89292 0.0
C635 C 0.48518 0.99707 0.91244 0.0
C636 C 0.45779 0.94568 0.89139 0.0
C637 C 0.4532 0.94107 0.92827 0.0
C638 C 0.44546 0.92565 0.90896 0.0
C639 C 0.48559 0.04816 0.99871 0.0
C640 C 0.4837 0.9931 0.95053 0.0
C641 C 0.39473 0.83649 0.97695 0.0
C642 C 0.36852 0.84437 0.98181 0.0
C643 C 0.44534 0.97901 0.0279 0.0
C644 C 0.52263 0.02337 0.09358 0.0
C645 C 0.50859 0.00375 0.11144 0.0
C646 C 0.52363 0.01723 0.13073 0.0
C647 C 0.55243 0.05073 0.13189 0.0
C648 C 0.55115 0.0568 0.09518 0.0
C649 C 0.56587 0.07039 0.11425 0.0
C650 C 0.51468 0.95402 0.0239 0.0
C651 C 0.50826 0.00813 0.07339 0.0
H652 H 0.50088 0.0247 0.91381 0.0
H653 H 0.45159 0.93317 0.87656 0.0
H654 H 0.44364 0.92508 0.94166 0.0
H655 H 0.43002 0.89804 0.9076 0.0
H656 H 0.48667 0.97781 0.11028 0.0
H657 H 0.56439 0.06183 0.1465 0.0
H658 H 0.56226 0.07225 0.08169 0.0
H659 H 0.58797 0.09619 0.11536 0.0
Tb660 Tb 0.02998 0.50913 0.98735 0.0
C661 C 0.89657 0.46359 0.03898 0.0
C662 C 0.88389 0.50968 0.03594 0.0
C663 C 0.83642 0.45159 0.04183 0.0
C664 C 0.90792 0.49764 0.0357 0.0
C665 C 0.86083 0.44022 0.04265 0.0
C666 C 0.84795 0.48631 0.03844 0.0
C667 C 0.87666 0.39715 0.04962 0.0
N668 N 0.92106 0.45384 0.03985 0.0
C669 C 0.91181 0.42135 0.04585 0.0
C670 C 0.85096 0.40647 0.04771 0.0
Tb671 Tb 0.97794 0.49499 0.03323 0.0
N672 N 0.94288 0.51931 0.03369 0.0
C673 C 0.95579 0.55395 0.03366 0.0
C674 C 0.89687 0.54492 0.03445 0.0
C675 C 0.93304 0.56719 0.03369 0.0
H676 H 0.93135 0.41372 0.04722 0.0
H677 H 0.94344 0.59457 0.03303 0.0
H678 H 0.82902 0.49499 0.03843 0.0
H679 H 0.86942 0.37129 0.05391 0.0
H680 H 0.98362 0.57165 0.03297 0.0
H681 H 0.06339 0.40876 0.98722 0.0
H682 H 0.87931 0.55523 0.03449 0.0
H683 H 0.07804 0.59119 0.97514 0.0
H684 H 0.02358 0.43212 0.98691 0.0
H685 H 0.14062 0.63374 0.97039 0.0
H686 H 0.80877 0.43399 0.04438 0.0
H687 H 0.12763 0.44778 0.98713 0.0
H688 H 0.17846 0.50806 0.98486 0.0
H689 H 0.82378 0.38771 0.05068 0.0
H690 H 0.19961 0.56953 0.98021 0.0
N691 N 0.06462 0.48435 0.98713 0.0
C692 C 0.05146 0.44968 0.98676 0.0
C693 C 0.11024 0.45829 0.98697 0.0
C694 C 0.12356 0.49366 0.9861 0.0
C695 C 0.07401 0.4362 0.98695 0.0
C696 C 0.09975 0.50595 0.98605 0.0
H697 H 0.18561 0.6166 0.97434 0.0
N698 N 0.08742 0.55042 0.98229 0.0
C699 C 0.13284 0.60756 0.9742 0.0
C700 C 0.11163 0.54031 0.98354 0.0
C701 C 0.09735 0.58333 0.97686 0.0
C702 C 0.15817 0.59782 0.9765 0.0
C703 C 0.14765 0.56368 0.98088 0.0
O704 O 0.02516 0.52743 0.95873 0.0
O705 O 0.98623 0.51011 1.00164 0.0
O706 O 0.9435 0.45675 0.01079 0.0
O707 O 0.98557 0.45599 0.98925 0.0
O708 O 0.0159 0.54878 0.98198 0.0
O709 O 0.017 0.47645 0.96173 0.0
O710 O 0.98346 0.47771 0.06204 0.0
O711 O 0.02103 0.49335 0.01872 0.0
O712 O 0.06404 0.54582 0.01045 0.0
O713 O 0.02215 0.54835 0.03111 0.0
O714 O 0.99252 0.4557 0.03903 0.0
O715 O 0.99347 0.5293 0.05806 0.0
C716 C 0.98862 0.5364 0.99346 0.0
C717 C 0.03942 0.5047 0.93031 0.0
C718 C 0.04253 0.50699 0.89308 0.0
C719 C 0.023 0.50005 0.91124 0.0
C720 C 0.07857 0.51836 0.8942 0.0
C721 C 0.0753 0.51547 0.93111 0.0
C722 C 0.09476 0.52231 0.91314 0.0
C723 C 0.95294 0.44228 0.99629 0.0
C724 C 0.0191 0.49964 0.94912 0.0
C725 C 0.17175 0.55195 0.98197 0.0
C726 C 0.15971 0.51696 0.98461 0.0
C727 C 0.01927 0.46753 0.02718 0.0
C728 C 0.97407 0.50424 0.09052 0.0
C729 C 0.99224 0.50709 0.10863 0.0
C730 C 0.97703 0.50574 0.12776 0.0
C731 C 0.94312 0.50138 0.12852 0.0
C732 C 0.94017 0.49968 0.09146 0.0
C733 C 0.92479 0.49821 0.11043 0.0
C734 C 0.05501 0.56085 0.02478 0.0
C735 C 0.99152 0.50658 0.07099 0.0
H736 H 0.99526 0.49173 0.91052 0.0
H737 H 0.09408 0.5237 0.8804 0.0
H738 H 0.08833 0.51879 0.94554 0.0
H739 H 0.12248 0.53077 0.9139 0.0
H740 H 0.01865 0.51112 0.10778 0.0
H741 H 0.93075 0.50018 0.14306 0.0
H742 H 0.92577 0.49748 0.07764 0.0
H743 H 0.89864 0.49474 0.11111 0.0
Tb744 Tb 0.52049 0.49017 0.04008 0.0
C745 C 0.44326 0.54554 0.98809 0.0
C746 C 0.38227 0.50136 0.98936 0.0
C747 C 0.39778 0.56079 0.98498 0.0
C748 C 0.41822 0.51166 0.99031 0.0
C749 C 0.43348 0.57051 0.98487 0.0
C750 C 0.37218 0.52622 0.98725 0.0
C751 C 0.49468 0.61192 0.97967 0.0
N752 N 0.47731 0.55365 0.98783 0.0
C753 C 0.50299 0.58615 0.98291 0.0
C754 C 0.45981 0.60419 0.98095 0.0
Tb755 Tb 0.48873 0.51012 0.99386 0.0
N756 N 0.42919 0.48856 0.99201 0.0
C757 C 0.40529 0.45426 0.99105 0.0
C758 C 0.35768 0.46635 0.98981 0.0
C759 C 0.36929 0.4427 0.99028 0.0
H760 H 0.53007 0.59254 0.98204 0.0
H761 H 0.35053 0.41552 0.99015 0.0
H762 H 0.3447 0.51887 0.98672 0.0
H763 H 0.5152 0.63775 0.97627 0.0
H764 H 0.41359 0.43548 0.9915 0.0
H765 H 0.65929 0.58291 0.04352 0.0
H766 H 0.3298 0.45733 0.9892 0.0
H767 H 0.47773 0.40674 0.04981 0.0
H768 H 0.59648 0.56402 0.04257 0.0
H769 H 0.49165 0.36059 0.05399 0.0
H770 H 0.38968 0.57961 0.98274 0.0
H771 H 0.67892 0.54022 0.04364 0.0
H772 H 0.66294 0.47831 0.0452 0.0
H773 H 0.45341 0.62416 0.97838 0.0
H774 H 0.61721 0.41765 0.04829 0.0
N775 N 0.57988 0.51076 0.04172 0.0
C776 C 0.60428 0.54489 0.04278 0.0
C777 C 0.65113 0.53169 0.04326 0.0
C778 C 0.62607 0.49681 0.04346 0.0
C779 C 0.64015 0.55583 0.04328 0.0
C780 C 0.59027 0.48714 0.04284 0.0
H781 H 0.55321 0.37352 0.05194 0.0
N782 N 0.53085 0.44563 0.04498 0.0
C783 C 0.51249 0.38656 0.05129 0.0
C784 C 0.56479 0.45329 0.04465 0.0
C785 C 0.50472 0.41288 0.04897 0.0
C786 C 0.54726 0.39394 0.05008 0.0
C787 C 0.57401 0.42774 0.047 0.0
O788 O 0.4947 0.47151 0.06819 0.0
O789 O 0.47828 0.49299 0.02509 0.0
O790 O 0.49489 0.54805 0.01702 0.0
O791 O 0.53503 0.54451 0.03875 0.0
O792 O 0.4646 0.45256 0.04397 0.0
O793 O 0.54005 0.52191 0.06611 0.0
O794 O 0.51432 0.52853 0.96566 0.0
O795 O 0.53106 0.50826 0.00911 0.0
O796 O 0.51733 0.45485 0.01618 0.0
O797 O 0.47501 0.45574 0.99528 0.0
O798 O 0.54462 0.54765 0.98953 0.0
O799 O 0.47039 0.47731 0.96826 0.0
C800 C 0.4522 0.46697 0.03251 0.0
C801 C 0.52992 0.49309 0.09763 0.0
C802 C 0.52695 0.48982 0.13496 0.0
C803 C 0.51559 0.49621 0.11622 0.0
C804 C 0.55305 0.48049 0.13474 0.0
C805 C 0.55594 0.48386 0.09781 0.0
C806 C 0.56743 0.47762 0.11629 0.0
C807 C 0.51892 0.56063 0.03171 0.0
C808 C 0.51686 0.49886 0.07824 0.0
C809 C 0.60956 0.43692 0.04669 0.0
C810 C 0.63558 0.47144 0.04491 0.0
C811 C 0.55721 0.53395 1.00144 0.0
C812 C 0.48025 0.50386 0.93603 0.0
C813 C 0.49429 0.49791 0.91821 0.0
C814 C 0.48227 0.50059 0.89873 0.0
C815 C 0.45605 0.50969 0.89748 0.0
C816 C 0.45418 0.51288 0.93446 0.0
C817 C 0.44222 0.51583 0.91523 0.0
C818 C 0.49371 0.44168 1.00137 0.0
C819 C 0.49326 0.50028 0.95599 0.0
H820 H 0.49525 0.50307 0.11606 0.0
H821 H 0.56272 0.47585 0.14888 0.0
H822 H 0.56734 0.48145 0.08371 0.0
H823 H 0.58758 0.47056 0.11632 0.0
H824 H 0.51484 0.49147 0.9196 0.0
H825 H 0.44579 0.51154 0.88281 0.0
H826 H 0.44305 0.51752 0.94802 0.0
H827 H 0.42198 0.52268 0.91408 0.0
Tb828 Tb 0.15033 0.30847 0.32058 0.0
C829 C 0.22503 0.43516 0.37694 0.0
C830 C 0.28658 0.45254 0.37653 0.0
C831 C 0.26885 0.49517 0.38162 0.0
C832 C 0.251 0.42695 0.37474 0.0
C833 C 0.23347 0.46924 0.38077 0.0
C834 C 0.29539 0.48683 0.3795 0.0
C835 C 0.17149 0.44901 0.38398 0.0
N836 N 0.19129 0.40931 0.37609 0.0
C837 C 0.1645 0.41559 0.38022 0.0
C838 C 0.20612 0.47603 0.38405 0.0
Tb839 Tb 0.18213 0.35559 0.36877 0.0
N840 N 0.24125 0.39349 0.37214 0.0
C841 C 0.266 0.38365 0.373 0.0
C842 C 0.31208 0.44274 0.37599 0.0
C843 C 0.30167 0.40806 0.37457 0.0
H844 H 0.1376 0.39502 0.38002 0.0
H845 H 0.32111 0.40007 0.37465 0.0
H846 H 0.32258 0.50691 0.38072 0.0
H847 H 0.15016 0.45391 0.38679 0.0
H848 H 0.25873 0.35708 0.372 0.0
H849 H 0.01185 0.26674 0.32325 0.0
H850 H 0.33971 0.46159 0.37724 0.0
H851 H 0.19115 0.26757 0.30488 0.0
H852 H 0.07487 0.3089 0.32263 0.0
H853 H 0.17638 0.20797 0.29784 0.0
H854 H 0.27593 0.52159 0.38437 0.0
H855 H 0.99157 0.20483 0.32051 0.0
H856 H 0.0067 0.15836 0.31505 0.0
H857 H 0.21148 0.50188 0.38702 0.0
H858 H 0.05161 0.14228 0.30801 0.0
N859 N 0.09082 0.27147 0.32013 0.0
C860 C 0.06669 0.28208 0.32135 0.0
C861 C 0.0194 0.22328 0.32025 0.0
C862 C 0.0441 0.21269 0.31775 0.0
C863 C 0.03075 0.25819 0.32173 0.0
C864 C 0.07997 0.23777 0.31761 0.0
H865 H 0.11504 0.16071 0.30125 0.0
N866 N 0.13885 0.25416 0.31274 0.0
C867 C 0.15603 0.21343 0.30241 0.0
C868 C 0.10497 0.22875 0.31375 0.0
C869 C 0.16428 0.2472 0.30633 0.0
C870 C 0.1214 0.18682 0.3044 0.0
C871 C 0.09523 0.19437 0.3098 0.0
O872 O 0.17526 0.31804 0.29187 0.0
O873 O 0.19232 0.35003 0.3372 0.0
O874 O 0.17967 0.38979 0.3462 0.0
O875 O 0.13679 0.34927 0.32461 0.0
O876 O 0.20617 0.32715 0.31489 0.0
O877 O 0.1298 0.32326 0.29615 0.0
O878 O 0.15702 0.34813 0.39734 0.0
O879 O 0.14063 0.313 0.35239 0.0
O880 O 0.15958 0.27607 0.34151 0.0
O881 O 0.19913 0.31754 0.36449 0.0
O882 O 0.1258 0.33682 0.37294 0.0
O883 O 0.19857 0.33674 0.39314 0.0
C884 C 0.21836 0.35122 0.32836 0.0
C885 C 0.1393 0.30816 0.26302 0.0
C886 C 0.13814 0.31223 0.22566 0.0
C887 C 0.1512 0.32764 0.24495 0.0
C888 C 0.11346 0.27694 0.22487 0.0
C889 C 0.11458 0.27316 0.26173 0.0
C890 C 0.10186 0.25767 0.24275 0.0
C891 C 0.15596 0.38116 0.33153 0.0
C892 C 0.15281 0.32459 0.28309 0.0
C893 C 0.05967 0.16893 0.3108 0.0
C894 C 0.03411 0.17808 0.3148 0.0
C895 C 0.11391 0.31121 0.36057 0.0
C896 C 0.19112 0.35286 0.4264 0.0
C897 C 0.17642 0.33329 0.44421 0.0
C898 C 0.19127 0.34652 0.46358 0.0
C899 C 0.22056 0.37972 0.46485 0.0
C900 C 0.22014 0.38599 0.42813 0.0
C901 C 0.23469 0.39931 0.44727 0.0
C902 C 0.18392 0.28657 0.35597 0.0
C903 C 0.17676 0.33802 0.40612 0.0
H904 H 0.17009 0.35479 0.24596 0.0
H905 H 0.10331 0.26406 0.21035 0.0
H906 H 0.10511 0.25781 0.27538 0.0
H907 H 0.08288 0.23057 0.24187 0.0
H908 H 0.15407 0.3076 0.44295 0.0
H909 H 0.23237 0.39065 0.47953 0.0
H910 H 0.23172 0.40143 0.4147 0.0
H911 H 0.25715 0.42488 0.44847 0.0
Tb912 Tb 0.70081 0.8444 0.31862 0.0
C913 C 0.56508 0.79413 0.36866 0.0
C914 C 0.55096 0.83932 0.36625 0.0
C915 C 0.50432 0.78045 0.37086 0.0
C916 C 0.57571 0.82817 0.36603 0.0
C917 C 0.52938 0.76989 0.37166 0.0
C918 C 0.51511 0.81516 0.36812 0.0
C919 C 0.54641 0.72752 0.37804 0.0
N920 N 0.59016 0.78517 0.36955 0.0
C921 C 0.5815 0.75258 0.37499 0.0
C922 C 0.52015 0.73608 0.37606 0.0
Tb923 Tb 0.6469 0.82767 0.36393 0.0
N924 N 0.61058 0.8506 0.3645 0.0
C925 C 0.62262 0.88508 0.36489 0.0
C926 C 0.5631 0.87447 0.36529 0.0
C927 C 0.59914 0.89746 0.36497 0.0
H928 H 0.6015 0.74556 0.37641 0.0
H929 H 0.60888 0.92476 0.36468 0.0
H930 H 0.49564 0.82316 0.36809 0.0
H931 H 0.53965 0.7016 0.38184 0.0
H932 H 0.65033 0.90335 0.36452 0.0
H933 H 0.74083 0.74877 0.319 0.0
H934 H 0.54498 0.88412 0.36534 0.0
H935 H 0.74584 0.92686 0.30676 0.0
H936 H 0.69871 0.76934 0.31826 0.0
H937 H 0.8077 0.9715 0.30232 0.0
H938 H 0.47669 0.76218 0.37291 0.0
H939 H 0.80456 0.79011 0.31951 0.0
H940 H 0.85339 0.8514 0.31738 0.0
H941 H 0.49301 0.71666 0.37849 0.0
H942 H 0.87169 0.91222 0.31252 0.0
N943 N 0.73783 0.82226 0.31885 0.0
C944 C 0.72632 0.78789 0.31834 0.0
C945 C 0.78614 0.79939 0.31916 0.0
C946 C 0.79783 0.83445 0.3183 0.0
C947 C 0.7502 0.776 0.3188 0.0
C948 C 0.77269 0.84511 0.31799 0.0
H949 H 0.85476 0.95719 0.30641 0.0
N950 N 0.75754 0.88754 0.31375 0.0
C951 C 0.80112 0.9456 0.30602 0.0
C952 C 0.78295 0.87904 0.31518 0.0
C953 C 0.76602 0.92015 0.30851 0.0
C954 C 0.82761 0.93745 0.3084 0.0
C955 C 0.81866 0.9037 0.31275 0.0
O956 O 0.69715 0.8624 0.28961 0.0
O957 O 0.65583 0.84356 0.3325 0.0
O958 O 0.61427 0.78936 0.34092 0.0
O959 O 0.65829 0.79049 0.32034 0.0
O960 O 0.6847 0.88255 0.31293 0.0
O961 O 0.68761 0.81102 0.29341 0.0
O962 O 0.65219 0.80981 0.39255 0.0
O963 O 0.69144 0.82806 0.34993 0.0
O964 O 0.7334 0.88104 0.34211 0.0
O965 O 0.69012 0.88169 0.36241 0.0
O966 O 0.66284 0.7894 0.3697 0.0
O967 O 0.66069 0.86098 0.38924 0.0
C968 C 0.65731 0.86942 0.32429 0.0
C969 C 0.71138 0.83801 0.2619 0.0
C970 C 0.71627 0.84093 0.22464 0.0
C971 C 0.69704 0.83735 0.24262 0.0
C972 C 0.75014 0.84531 0.22634 0.0
C973 C 0.74514 0.84235 0.2632 0.0
C974 C 0.76441 0.84605 0.2455 0.0
C975 C 0.62532 0.77551 0.32691 0.0
C976 C 0.69073 0.83416 0.28042 0.0
C977 C 0.84406 0.89363 0.31414 0.0
C978 C 0.83364 0.85902 0.31693 0.0
C979 C 0.69016 0.80234 0.35826 0.0
C980 C 0.64204 0.83482 0.42151 0.0
C981 C 0.66254 0.8445 0.43927 0.0
C982 C 0.64712 0.84065 0.45862 0.0
C983 C 0.61062 0.8268 0.45995 0.0
C984 C 0.60572 0.82135 0.42299 0.0
C985 C 0.59012 0.81739 0.44218 0.0
C986 C 0.72329 0.89522 0.35639 0.0
C987 C 0.65947 0.8382 0.40185 0.0
H988 H 0.67106 0.83432 0.24168 0.0
H989 H 0.76544 0.84756 0.21285 0.0
H990 H 0.75656 0.8427 0.27781 0.0
H991 H 0.79041 0.84926 0.24664 0.0
H992 H 0.69056 0.85443 0.43801 0.0
H993 H 0.59805 0.82363 0.47466 0.0
H994 H 0.5895 0.81375 0.40942 0.0
H995 H 0.56205 0.8069 0.4433 0.0
Tb996 Tb 0.18425 0.81998 0.37074 0.0
C997 C 0.10917 0.87587 0.31747 0.0
C998 C 0.04813 0.83169 0.31829 0.0
C999 C 0.06379 0.8911 0.31361 0.0
C1000 C 0.08404 0.84197 0.3196 0.0
C1001 C 0.09949 0.90081 0.31386 0.0
C1002 C 0.03812 0.85656 0.31588 0.0
C1003 C 0.1608 0.94211 0.30892 0.0
N1004 N 0.14324 0.88399 0.31759 0.0
C1005 C 0.16904 0.9164 0.31261 0.0
C1006 C 0.12591 0.93441 0.30986 0.0
Tb1007 Tb 0.15436 0.84036 0.32401 0.0
N1008 N 0.09492 0.81883 0.32152 0.0
C1009 C 0.07105 0.78455 0.32039 0.0
C1010 C 0.02351 0.79668 0.31865 0.0
C1011 C 0.03508 0.773 0.31931 0.0
H1012 H 0.19612 0.9228 0.31195 0.0
H1013 H 0.01632 0.74582 0.31907 0.0
H1014 H 0.01066 0.84922 0.31506 0.0
H1015 H 0.18138 0.96787 0.30543 0.0
H1016 H 0.0794 0.7658 0.32098 0.0
H1017 H 0.32157 0.91668 0.37645 0.0
H1018 H 0.99566 0.78768 0.31775 0.0
H1019 H 0.14415 0.73664 0.38026 0.0
H1020 H 0.2583 0.89548 0.3747 0.0
H1021 H 0.16034 0.69204 0.38461 0.0
H1022 H 0.05577 0.90992 0.31109 0.0
H1023 H 0.34364 0.87589 0.37653 0.0
H1024 H 0.33017 0.81468 0.37762 0.0
H1025 H 0.11959 0.95434 0.30696 0.0
H1026 H 0.28617 0.75334 0.38006 0.0
N1027 N 0.2439 0.84274 0.37331 0.0
C1028 C 0.26717 0.87714 0.37484 0.0
C1029 C 0.31567 0.86632 0.37578 0.0
C1030 C 0.29169 0.83115 0.37552 0.0
C1031 C 0.30329 0.8894 0.37581 0.0
C1032 C 0.25559 0.82012 0.37444 0.0
H1033 H 0.22269 0.70736 0.38307 0.0
N1034 N 0.19676 0.77691 0.37583 0.0
C1035 C 0.18052 0.71834 0.38206 0.0
C1036 C 0.23108 0.78588 0.37583 0.0
C1037 C 0.17145 0.74376 0.37965 0.0
C1038 C 0.21573 0.72707 0.38113 0.0
C1039 C 0.24159 0.7613 0.37829 0.0
O1040 O 0.15721 0.79956 0.39833 0.0
O1041 O 0.14227 0.82209 0.35501 0.0
O1042 O 0.15799 0.87728 0.34709 0.0
O1043 O 0.19685 0.87386 0.36997 0.0
O1044 O 0.12863 0.78105 0.37336 0.0
O1045 O 0.20126 0.85085 0.39722 0.0
O1046 O 0.1822 0.85846 0.29646 0.0
O1047 O 0.19622 0.83861 0.33995 0.0
O1048 O 0.18249 0.78511 0.34691 0.0
O1049 O 0.14129 0.78621 0.32507 0.0
O1050 O 0.21031 0.87872 0.32094 0.0
O1051 O 0.1356 0.80884 0.29781 0.0
C1052 C 0.11621 0.79534 0.3618 0.0
C1053 C 0.1905 0.82126 0.42847 0.0
C1054 C 0.18726 0.81904 0.46582 0.0
C1055 C 0.1763 0.82524 0.44688 0.0
C1056 C 0.21286 0.80906 0.46598 0.0
C1057 C 0.21604 0.81141 0.42902 0.0
C1058 C 0.22714 0.80536 0.4477 0.0
C1059 C 0.18038 0.88943 0.36262 0.0
C1060 C 0.17795 0.8269 0.40886 0.0
C1061 C 0.27751 0.77185 0.37839 0.0
C1062 C 0.30254 0.80676 0.37698 0.0
C1063 C 0.2226 0.86484 0.33294 0.0
C1064 C 0.14969 0.83746 0.26604 0.0
C1065 C 0.16075 0.82762 0.24842 0.0
C1066 C 0.15301 0.83484 0.22885 0.0
C1067 C 0.13377 0.8519 0.22715 0.0
C1068 C 0.13015 0.85408 0.26408 0.0
C1069 C 0.12223 0.86122 0.24469 0.0
C1070 C 0.15969 0.77213 0.33166 0.0
C1071 C 0.16025 0.83137 0.28616 0.0
H1072 H 0.15635 0.83263 0.44643 0.0
H1073 H 0.22224 0.80455 0.48027 0.0
H1074 H 0.22738 0.80838 0.41508 0.0
H1075 H 0.24692 0.79781 0.44802 0.0
H1076 H 0.17614 0.81504 0.24997 0.0
H1077 H 0.12735 0.85767 0.21226 0.0
H1078 H 0.12131 0.86177 0.27745 0.0
H1079 H 0.10726 0.87418 0.24325 0.0
Tb1080 Tb 0.81854 0.64231 0.65556 0.0
C1081 C 0.88898 0.7715 0.71026 0.0
C1082 C 0.9507 0.78955 0.71032 0.0
C1083 C 0.93221 0.83177 0.71462 0.0
C1084 C 0.91526 0.76364 0.70848 0.0
C1085 C 0.89697 0.80552 0.71379 0.0
C1086 C 0.95908 0.82379 0.71287 0.0
C1087 C 0.83485 0.78458 0.71705 0.0
N1088 N 0.8554 0.74534 0.70954 0.0
C1089 C 0.82832 0.75125 0.71351 0.0
C1090 C 0.86932 0.81192 0.71694 0.0
Tb1091 Tb 0.84699 0.69169 0.70305 0.0
N1092 N 0.90592 0.73021 0.70637 0.0
C1093 C 0.93091 0.72075 0.70776 0.0
C1094 C 0.97649 0.78012 0.71029 0.0
C1095 C 0.96647 0.74549 0.70937 0.0
H1096 H 0.80155 0.73043 0.71346 0.0
H1097 H 0.98613 0.7378 0.70982 0.0
H1098 H 0.98615 0.84412 0.7141 0.0
H1099 H 0.81329 0.78917 0.71978 0.0
H1100 H 0.92391 0.69424 0.70693 0.0
H1101 H 0.6788 0.59483 0.65525 0.0
H1102 H 0.00403 0.79922 0.71159 0.0
H1103 H 0.86307 0.60421 0.64113 0.0
H1104 H 0.74123 0.63903 0.65534 0.0
H1105 H 0.8512 0.54548 0.63463 0.0
H1106 H 0.93895 0.85815 0.71713 0.0
H1107 H 0.66135 0.5335 0.65361 0.0
H1108 H 0.67949 0.48892 0.64958 0.0
H1109 H 0.87432 0.8377 0.71972 0.0
H1110 H 0.72659 0.47542 0.64374 0.0
N1111 N 0.75955 0.60331 0.65442 0.0
C1112 C 0.73424 0.61246 0.65457 0.0
C1113 C 0.68891 0.55283 0.65368 0.0
C1114 C 0.71487 0.54371 0.65212 0.0
C1115 C 0.69866 0.58742 0.65454 0.0
C1116 C 0.75032 0.56992 0.65237 0.0
H1117 H 0.79077 0.49646 0.63772 0.0
N1118 N 0.80999 0.58877 0.64842 0.0
C1119 C 0.82996 0.54984 0.63883 0.0
C1120 C 0.77655 0.56235 0.64917 0.0
C1121 C 0.83657 0.58316 0.64251 0.0
C1122 C 0.79583 0.52223 0.64064 0.0
C1123 C 0.76848 0.52833 0.64554 0.0
O1124 O 0.84651 0.65527 0.62778 0.0
O1125 O 0.85925 0.68559 0.67196 0.0
O1126 O 0.84339 0.72423 0.67961 0.0
O1127 O 0.80293 0.68178 0.65781 0.0
O1128 O 0.87463 0.66086 0.65181 0.0
O1129 O 0.7964 0.65215 0.62973 0.0
O1130 O 0.8209 0.68503 0.73122 0.0
O1131 O 0.80676 0.64808 0.6868 0.0
O1132 O 0.82696 0.61079 0.67762 0.0
O1133 O 0.86364 0.65303 0.70113 0.0
O1134 O 0.7905 0.67258 0.70603 0.0
O1135 O 0.86343 0.67474 0.72833 0.0
C1136 C 0.8859 0.68605 0.66448 0.0
C1137 C 0.81333 0.64116 0.59743 0.0
C1138 C 0.81765 0.64613 0.56014 0.0
C1139 C 0.82385 0.66152 0.57968 0.0
C1140 C 0.80036 0.61023 0.55863 0.0
C1141 C 0.79572 0.60539 0.59551 0.0
C1142 C 0.78925 0.59006 0.57619 0.0
C1143 C 0.82054 0.71404 0.66432 0.0
C1144 C 0.82233 0.6576 0.61778 0.0
C1145 C 0.73336 0.5018 0.64628 0.0
C1146 C 0.70656 0.50948 0.6496 0.0
C1147 C 0.77954 0.64648 0.69413 0.0
C1148 C 0.85441 0.69159 0.76095 0.0
C1149 C 0.84079 0.67191 0.77882 0.0
C1150 C 0.85524 0.68589 0.79813 0.0
C1151 C 0.88299 0.71993 0.7993 0.0
C1152 C 0.88187 0.72557 0.76255 0.0
C1153 C 0.89598 0.73964 0.78165 0.0
C1154 C 0.84948 0.62168 0.69313 0.0
C1155 C 0.84086 0.67591 0.74073 0.0
H1156 H 0.8376 0.6892 0.58107 0.0
H1157 H 0.7952 0.59776 0.5438 0.0
H1158 H 0.78725 0.58933 0.60891 0.0
H1159 H 0.7758 0.56242 0.57483 0.0
H1160 H 0.8197 0.64555 0.77764 0.0
H1161 H 0.89447 0.73138 0.81395 0.0
H1162 H 0.89265 0.74108 0.74906 0.0
H1163 H 0.91728 0.76585 0.78277 0.0
Tb1164 Tb 0.36241 0.17879 0.6551 0.0
C1165 C 0.22447 0.1216 0.70402 0.0
C1166 C 0.20838 0.16549 0.70245 0.0
C1167 C 0.16306 0.10581 0.70594 0.0
C1168 C 0.23402 0.15549 0.70203 0.0
C1169 C 0.18898 0.09634 0.70653 0.0
C1170 C 0.17276 0.14037 0.70388 0.0
C1171 C 0.20779 0.05504 0.7119 0.0
N1172 N 0.25034 0.11369 0.70471 0.0
C1173 C 0.24263 0.08108 0.70937 0.0
C1174 C 0.18077 0.0626 0.71019 0.0
Tb1175 Tb 0.3066 0.15777 0.69992 0.0
N1176 N 0.2687 0.17885 0.70094 0.0
C1177 C 0.2796 0.21307 0.70201 0.0
C1178 C 0.21939 0.20044 0.70214 0.0
C1179 C 0.2552 0.22434 0.70229 0.0
H1180 H 0.2632 0.07481 0.71059 0.0
H1181 H 0.26406 0.25147 0.70251 0.0
H1182 H 0.15262 0.1475 0.704 0.0
H1183 H 0.2018 0.02915 0.71511 0.0
H1184 H 0.30712 0.23202 0.70202 0.0
H1185 H 0.40596 0.08585 0.65263 0.0
H1186 H 0.20055 0.20922 0.70237 0.0
H1187 H 0.40604 0.26224 0.64544 0.0
H1188 H 0.36259 0.10493 0.65265 0.0
H1189 H 0.46756 0.30829 0.64226 0.0
H1190 H 0.13559 0.08677 0.70763 0.0
H1191 H 0.46934 0.12836 0.65409 0.0
H1192 H 0.51705 0.19025 0.65374 0.0
H1193 H 0.15382 0.04242 0.71221 0.0
H1194 H 0.53392 0.25103 0.65079 0.0
N1195 N 0.40066 0.15809 0.65452 0.0
C1196 C 0.39005 0.12397 0.65314 0.0
C1197 C 0.45036 0.13698 0.65405 0.0
C1198 C 0.46117 0.17189 0.65419 0.0
C1199 C 0.41463 0.11293 0.65316 0.0
C1200 C 0.43535 0.18167 0.65425 0.0
H1201 H 0.51559 0.29527 0.64604 0.0
N1202 N 0.41883 0.22336 0.65151 0.0
C1203 C 0.46154 0.28234 0.64529 0.0
C1204 C 0.44482 0.21562 0.65268 0.0
C1205 C 0.42663 0.25608 0.64707 0.0
C1206 C 0.48859 0.27492 0.6475 0.0
C1207 C 0.48039 0.2411 0.6509 0.0
O1208 O 0.35717 0.19777 0.62684 0.0
O1209 O 0.31633 0.17582 0.6689 0.0
O1210 O 0.27539 0.12081 0.67602 0.0
O1211 O 0.32067 0.12438 0.65554 0.0
O1212 O 0.34558 0.21658 0.65045 0.0
O1213 O 0.35262 0.14807 0.6288 0.0
O1214 O 0.31239 0.13913 0.72814 0.0
O1215 O 0.35205 0.16016 0.68589 0.0
O1216 O 0.39347 0.21422 0.6795 0.0
O1217 O 0.3486 0.21227 0.69953 0.0
O1218 O 0.32383 0.12023 0.70493 0.0
O1219 O 0.31843 0.18952 0.72586 0.0
C1220 C 0.31768 0.20211 0.66139 0.0
C1221 C 0.37452 0.17865 0.59802 0.0
C1222 C 0.37775 0.18048 0.56083 0.0
C1223 C 0.35783 0.17119 0.57889 0.0
C1224 C 0.41447 0.19693 0.56205 0.0
C1225 C 0.4112 0.19457 0.59898 0.0
C1226 C 0.43105 0.20364 0.58106 0.0
C1227 C 0.28741 0.10841 0.66167 0.0
C1228 C 0.35338 0.17122 0.61668 0.0
C1229 C 0.5064 0.23181 0.65189 0.0
C1230 C 0.4968 0.19721 0.65357 0.0
C1231 C 0.35136 0.13435 0.69367 0.0
C1232 C 0.30056 0.16152 0.75771 0.0
C1233 C 0.32085 0.16956 0.77549 0.0
C1234 C 0.30524 0.16345 0.79495 0.0
C1235 C 0.26872 0.14981 0.79624 0.0
C1236 C 0.26423 0.1479 0.7592 0.0
C1237 C 0.24845 0.14222 0.77845 0.0
C1238 C 0.38207 0.227 0.69394 0.0
C1239 C 0.31827 0.16667 0.73798 0.0
H1240 H 0.32948 0.15896 0.57804 0.0
H1241 H 0.43025 0.20425 0.54828 0.0
H1242 H 0.42453 0.2003 0.61349 0.0
H1243 H 0.45936 0.2161 0.58192 0.0
H1244 H 0.34902 0.18071 0.77405 0.0
H1245 H 0.25573 0.14448 0.81094 0.0
H1246 H 0.24818 0.14154 0.7456 0.0
H1247 H 0.22036 0.13157 0.77959 0.0
Tb1248 Tb 0.84752 0.15247 0.70386 0.0
C1249 C 0.77051 0.2062 0.65021 0.0
C1250 C 0.70978 0.16133 0.65131 0.0
C1251 C 0.72438 0.22037 0.64624 0.0
C1252 C 0.74584 0.17222 0.65257 0.0
C1253 C 0.76022 0.23064 0.64642 0.0
C1254 C 0.69916 0.18573 0.64874 0.0
C1255 C 0.82125 0.27256 0.64117 0.0
N1256 N 0.80474 0.21486 0.65027 0.0
C1257 C 0.83009 0.24733 0.64505 0.0
C1258 C 0.7862 0.26433 0.64217 0.0
Tb1259 Tb 0.8169 0.17203 0.65706 0.0
N1260 N 0.7573 0.14955 0.65463 0.0
C1261 C 0.73388 0.11514 0.65367 0.0
C1262 C 0.68562 0.12622 0.65186 0.0
C1263 C 0.69779 0.103 0.65265 0.0
H1264 H 0.8573 0.25414 0.64433 0.0
H1265 H 0.67939 0.07574 0.65255 0.0
H1266 H 0.67158 0.17794 0.64796 0.0
H1267 H 0.84149 0.29837 0.63748 0.0
H1268 H 0.74268 0.09674 0.65436 0.0
H1269 H 0.9837 0.25187 0.71015 0.0
H1270 H 0.65768 0.11677 0.65101 0.0
H1271 H 0.80962 0.06888 0.71215 0.0
H1272 H 0.92009 0.22899 0.70853 0.0
H1273 H 0.82767 0.02535 0.71524 0.0
H1274 H 0.71589 0.23881 0.64358 0.0
H1275 H 0.00756 0.21252 0.70929 0.0
H1276 H 0.99602 0.1519 0.70919 0.0
H1277 H 0.77941 0.28389 0.63912 0.0
H1278 H 0.95346 0.09005 0.71067 0.0
N1279 N 0.90733 0.17676 0.70642 0.0
C1280 C 0.92978 0.21127 0.7083 0.0
C1281 C 0.97945 0.20222 0.70864 0.0
C1282 C 0.95631 0.16687 0.70791 0.0
C1283 C 0.96607 0.22448 0.7092 0.0
C1284 C 0.91999 0.15487 0.70699 0.0
H1285 H 0.89051 0.04258 0.71327 0.0
N1286 N 0.86168 0.11032 0.70794 0.0
C1287 C 0.84725 0.05199 0.71306 0.0
C1288 C 0.89628 0.12032 0.7078 0.0
C1289 C 0.83713 0.07675 0.71138 0.0
C1290 C 0.88274 0.06179 0.71189 0.0
C1291 C 0.90784 0.09643 0.70957 0.0
O1292 O 0.82079 0.13057 0.73129 0.0
O1293 O 0.80517 0.15385 0.68812 0.0
O1294 O 0.81998 0.20898 0.67994 0.0
O1295 O 0.85831 0.20587 0.70346 0.0
O1296 O 0.79209 0.11286 0.70642 0.0
O1297 O 0.86397 0.18235 0.73079 0.0
O1298 O 0.84501 0.19006 0.62958 0.0
O1299 O 0.85924 0.17152 0.67318 0.0
O1300 O 0.84721 0.11883 0.67969 0.0
O1301 O 0.80475 0.11813 0.65823 0.0
O1302 O 0.87261 0.21125 0.65405 0.0
O1303 O 0.79856 0.14035 0.6309 0.0
C1304 C 0.77935 0.12694 0.69492 0.0
C1305 C 0.85424 0.15144 0.76148 0.0
C1306 C 0.85595 0.15271 0.79892 0.0
C1307 C 0.84384 0.15882 0.78033 0.0
C1308 C 0.8782 0.13865 0.79824 0.0
C1309 C 0.87671 0.13783 0.76127 0.0
C1310 C 0.8885 0.13138 0.77956 0.0
C1311 C 0.84182 0.2212 0.69573 0.0
C1312 C 0.84113 0.1576 0.74219 0.0
C1313 C 0.94399 0.10801 0.70954 0.0
C1314 C 0.96821 0.14321 0.70869 0.0
C1315 C 0.88534 0.19801 0.66622 0.0
C1316 C 0.81283 0.16888 0.59908 0.0
C1317 C 0.82652 0.16174 0.58154 0.0
C1318 C 0.81871 0.16871 0.56185 0.0
C1319 C 0.79647 0.18265 0.56016 0.0
C1320 C 0.79058 0.18252 0.59704 0.0
C1321 C 0.78244 0.18932 0.57763 0.0
C1322 C 0.82423 0.10513 0.66461 0.0
C1323 C 0.82326 0.1629 0.61928 0.0
H1324 H 0.8268 0.16974 0.78047 0.0
H1325 H 0.88747 0.13297 0.81217 0.0
H1326 H 0.88505 0.13205 0.74704 0.0
H1327 H 0.90565 0.12064 0.77925 0.0
H1328 H 0.84315 0.15057 0.58333 0.0
H1329 H 0.79027 0.18892 0.54537 0.0
H1330 H 0.77972 0.18809 0.61036 0.0
H1331 H 0.76543 0.20009 0.57613 0.0
C1332 C 0.38806 0.88687 0.04409 0.0
C1333 C 0.35894 0.88749 0.05242 0.0
H1334 H 0.43804 0.91505 0.02979 0.0
C1335 C 0.35675 0.91738 0.05047 0.0
H1336 H 0.3903 0.86407 0.04519 0.0
C1337 C 0.38424 0.94673 0.04152 0.0
C1338 C 0.41405 0.94649 0.03402 0.0
H1339 H 0.33471 0.91865 0.05686 0.0
H1340 H 0.38276 0.96999 0.04106 0.0
C1341 C 0.41534 0.91606 0.03507 0.0
C1342 C 0.06759 0.42093 0.0408 0.0
C1343 C 0.10242 0.44774 0.04323 0.0
H1344 H 0.01438 0.4065 0.03382 0.0
C1345 C 0.10992 0.48158 0.03994 0.0
H1346 H 0.06066 0.39465 0.04364 0.0
C1347 C 0.08323 0.48829 0.03418 0.0
C1348 C 0.04858 0.46129 0.03155 0.0
H1349 H 0.13642 0.50281 0.04171 0.0
H1350 H 0.08964 0.51457 0.03208 0.0
C1351 C 0.04101 0.42768 0.03526 0.0
C1352 C 0.52817 0.64827 0.03972 0.0
C1353 C 0.55869 0.66464 0.05179 0.0
H1354 H 0.49099 0.60219 0.02431 0.0
C1355 C 0.57414 0.6457 0.05845 0.0
H1356 H 0.51558 0.66218 0.03441 0.0
C1357 C 0.56045 0.61168 0.05244 0.0
C1358 C 0.53094 0.59566 0.03956 0.0
H1359 H 0.59713 0.6573 0.06821 0.0
H1360 H 0.57361 0.59826 0.05762 0.0
C1361 C 0.51434 0.61403 0.03373 0.0
C1362 C 0.91156 0.35834 0.96681 0.0
C1363 C 0.87732 0.34159 0.97458 0.0
H1364 H 0.96236 0.40306 0.96766 0.0
C1365 C 0.86725 0.35862 0.98865 0.0
H1366 H 0.91979 0.34548 0.95598 0.0
C1367 C 0.89139 0.39193 0.99511 0.0
C1368 C 0.92631 0.40827 0.98813 0.0
H1369 H 0.84083 0.34606 0.99474 0.0
H1370 H 0.88273 0.40461 1.00574 0.0
C1371 C 0.93589 0.39127 0.97359 0.0
C1372 C 0.63075 0.51687 0.98683 0.0
C1373 C 0.65909 0.55048 0.98479 0.0
H1374 H 0.57617 0.48501 0.99427 0.0
C1375 C 0.65385 0.57803 0.98955 0.0
H1376 H 0.63405 0.49517 0.98321 0.0
C1377 C 0.62087 0.57225 0.99558 0.0
C1378 C 0.59256 0.5388 0.99767 0.0
H1379 H 0.67504 0.60419 0.98789 0.0
H1380 H 0.61734 0.59404 0.99845 0.0
C1381 C 0.59777 0.51106 0.99335 0.0
C1382 C 0.49977 0.13474 0.98279 0.0
C1383 C 0.47284 0.1256 0.96835 0.0
H1384 H 0.52504 0.11761 1.00356 0.0
C1385 C 0.4489 0.09069 0.96489 0.0
H1386 H 0.51899 0.16137 0.98561 0.0
C1387 C 0.45245 0.0655 0.97515 0.0
C1388 C 0.47999 0.07468 0.98913 0.0
H1389 H 0.42759 0.0828 0.95407 0.0
H1390 H 0.4339 0.03884 0.97185 0.0
C1391 C 0.50331 0.10958 0.99305 0.0
C1392 C 0.62777 0.10685 0.98554 0.0
C1393 C 0.65444 0.09866 0.98259 0.0
H1394 H 0.57341 0.08796 0.99272 0.0
C1395 C 0.64671 0.06484 0.98595 0.0
H1396 H 0.63302 0.13273 0.98312 0.0
C1397 C 0.61297 0.03955 0.99138 0.0
C1398 C 0.58625 0.04751 0.99405 0.0
H1399 H 0.66646 0.05755 0.98355 0.0
H1400 H 0.60746 0.01341 0.99301 0.0
C1401 C 0.59387 0.08143 0.99129 0.0
C1402 C 0.89867 0.52409 0.98081 0.0
C1403 C 0.90708 0.558 0.97664 0.0
H1404 H 0.91784 0.49043 0.98936 0.0
C1405 C 0.94205 0.58439 0.97938 0.0
H1406 H 0.87215 0.50306 0.97873 0.0
C1407 C 0.96806 0.57707 0.98527 0.0
C1408 C 0.95977 0.54331 0.98916 0.0
H1409 H 0.94953 0.61088 0.97683 0.0
H1410 H 0.99484 0.59793 0.98679 0.0
C1411 C 0.92482 0.5168 0.98691 0.0
C1412 C 0.46022 0.36647 0.96455 0.0
C1413 C 0.48436 0.35518 0.96775 0.0
H1414 H 0.4441 0.40258 0.97268 0.0
C1415 C 0.51039 0.37147 0.98279 0.0
H1416 H 0.44004 0.35459 0.95296 0.0
C1417 C 0.51284 0.39901 0.99401 0.0
C1418 C 0.48927 0.41088 0.99049 0.0
H1419 H 0.52907 0.36307 0.98582 0.0
H1420 H 0.5338 0.41142 1.00509 0.0
C1421 C 0.46269 0.39409 0.97578 0.0
C1422 C 0.10204 0.63934 0.05915 0.0
C1423 C 0.13747 0.65079 0.05462 0.0
H1424 H 0.04823 0.60223 0.05326 0.0
C1425 C 0.14525 0.63315 0.03958 0.0
H1426 H 0.09501 0.65198 0.07081 0.0
C1427 C 0.1185 0.60426 0.02985 0.0
C1428 C 0.08312 0.59251 0.03454 0.0
H1429 H 0.17214 0.64146 0.0354 0.0
H1430 H 0.12576 0.59082 0.01891 0.0
C1431 C 0.07518 0.61059 0.04919 0.0
C1432 C 0.35521 0.42187 0.04373 0.0
C1433 C 0.34882 0.44915 0.04684 0.0
H1434 H 0.39293 0.40647 0.03684 0.0
C1435 C 0.37682 0.4829 0.04454 0.0
H1436 H 0.33435 0.39563 0.04567 0.0
C1437 C 0.41043 0.48908 0.03912 0.0
C1438 C 0.41657 0.4616 0.0361 0.0
H1439 H 0.37268 0.50442 0.04685 0.0
H1440 H 0.43167 0.51524 0.0377 0.0
C1441 C 0.38872 0.42805 0.03871 0.0
C1442 C 0.56204 0.91965 0.05549 0.0
C1443 C 0.55023 0.88722 0.04675 0.0
H1444 H 0.56047 0.96599 0.05514 0.0
C1445 C 0.52559 0.87617 0.03075 0.0
H1446 H 0.58134 0.92904 0.06766 0.0
C1447 C 0.51329 0.89743 0.02352 0.0
C1448 C 0.52598 0.93037 0.03188 0.0
H1449 H 0.51583 0.8511 0.02386 0.0
H1450 H 0.49406 0.88809 0.01137 0.0
C1451 C 0.55018 0.94097 0.04813 0.0
C1452 C 0.02433 0.25059 0.38233 0.0
C1453 C 0.02588 0.22038 0.38447 0.0
H1454 H 0.05136 0.30321 0.37293 0.0
C1455 C 0.05481 0.21917 0.37633 0.0
H1456 H 1.00247 0.25234 0.38857 0.0
C1457 C 0.08258 0.24811 0.3674 0.0
C1458 C 0.08197 0.27888 0.36623 0.0
H1459 H 0.05658 0.19613 0.37757 0.0
H1460 H 0.10516 0.24669 0.36237 0.0
C1461 C 0.0523 0.27968 0.37346 0.0
C1462 C 0.73983 0.75713 0.37191 0.0
C1463 C 0.77383 0.78444 0.37583 0.0
H1464 H 0.68694 0.74174 0.36341 0.0
C1465 C 0.7806 0.81817 0.37326 0.0
H1466 H 0.73368 0.7309 0.37404 0.0
C1467 C 0.75385 0.82435 0.36677 0.0
C1468 C 0.71986 0.79687 0.36294 0.0
H1469 H 0.80653 0.8397 0.37625 0.0
H1470 H 0.75956 0.85052 0.36522 0.0
C1471 C 0.71308 0.7633 0.36586 0.0
C1472 C 0.22536 0.97044 0.39462 0.0
C1473 C 0.21178 0.98988 0.38617 0.0
H1474 H 0.2264 0.92368 0.39373 0.0
C1475 C 0.18594 0.97535 0.37093 0.0
H1476 H 0.2454 0.98124 0.40637 0.0
C1477 C 0.17443 0.94203 0.36392 0.0
C1478 C 0.18948 0.92319 0.3715 0.0
H1479 H 0.17487 0.98986 0.36437 0.0
H1480 H 0.15418 0.93136 0.35235 0.0
C1481 C 0.21451 0.93752 0.38728 0.0
C1482 C 0.59139 0.68903 0.30139 0.0
C1483 C 0.55607 0.67132 0.30749 0.0
H1484 H 0.64057 0.7354 0.30249 0.0
C1485 C 0.54281 0.68907 0.31872 0.0
H1486 H 0.60224 0.67643 0.29226 0.0
C1487 C 0.56491 0.72334 0.32449 0.0
C1488 C 0.60071 0.74042 0.31928 0.0
H1489 H 0.51567 0.6762 0.32358 0.0
H1490 H 0.55402 0.73623 0.33327 0.0
C1491 C 0.61338 0.72305 0.30719 0.0
C1492 C 0.2962 0.84762 0.31854 0.0
C1493 C 0.32469 0.88119 0.3167 0.0
H1494 H 0.24149 0.81585 0.32568 0.0
C1495 C 0.31951 0.90877 0.32151 0.0
H1496 H 0.29942 0.82589 0.31489 0.0
C1497 C 0.28647 0.90306 0.32739 0.0
C1498 C 0.25801 0.86964 0.32928 0.0
H1499 H 0.34082 0.93491 0.32001 0.0
H1500 H 0.28303 0.92489 0.3303 0.0
C1501 C 0.26317 0.84188 0.32491 0.0
C1502 C 0.17489 0.46916 0.31521 0.0
C1503 C 0.15013 0.4612 0.29955 0.0
H1504 H 0.19618 0.45031 0.33756 0.0
C1505 C 0.12569 0.42663 0.29547 0.0
H1506 H 0.19373 0.49555 0.31895 0.0
C1507 C 0.12681 0.40059 0.30631 0.0
C1508 C 0.15238 0.40857 0.32149 0.0
H1509 H 0.10644 0.41965 0.28339 0.0
H1510 H 0.10813 0.37422 0.30243 0.0
C1511 C 0.17604 0.44316 0.32603 0.0
C1512 C 0.31589 0.3975 0.32139 0.0
C1513 C 0.32371 0.43141 0.31836 0.0
H1514 H 0.27605 0.34561 0.32697 0.0
C1515 C 0.2968 0.4394 0.32048 0.0
H1516 H 0.33599 0.39052 0.31958 0.0
C1517 C 0.2625 0.41366 0.32515 0.0
C1518 C 0.25474 0.37963 0.32754 0.0
H1519 H 0.30217 0.46535 0.31817 0.0
H1520 H 0.2419 0.42008 0.32598 0.0
C1521 C 0.28168 0.37182 0.32561 0.0
C1522 C 0.56669 0.85582 0.31197 0.0
C1523 C 0.5745 0.88967 0.30822 0.0
H1524 H 0.58677 0.82261 0.31994 0.0
C1525 C 0.60928 0.91638 0.31111 0.0
H1526 H 0.54033 0.83456 0.30976 0.0
C1527 C 0.63567 0.90947 0.31676 0.0
C1528 C 0.628 0.87578 0.32025 0.0
H1529 H 0.6163 0.94282 0.30885 0.0
H1530 H 0.66229 0.9306 0.31841 0.0
C1531 C 0.59325 0.84892 0.31781 0.0
C1532 C 0.12718 0.69695 0.29498 0.0
C1533 C 0.15053 0.68496 0.29896 0.0
H1534 H 0.11143 0.73358 0.30231 0.0
C1535 C 0.17593 0.70101 0.31435 0.0
H1536 H 0.10708 0.68485 0.28335 0.0
C1537 C 0.17845 0.72889 0.32522 0.0
C1538 C 0.15549 0.74126 0.32102 0.0
H1539 H 0.19465 0.69272 0.31758 0.0
H1540 H 0.19905 0.74125 0.33652 0.0
C1541 C 0.12961 0.72478 0.3059 0.0
C1542 C 0.81237 0.96881 0.37178 0.0
C1543 C 0.80384 0.98531 0.38718 0.0
H1544 H 0.79413 0.92738 0.35057 0.0
C1545 C 0.76821 0.97278 0.39174 0.0
H1546 H 0.83941 0.97801 0.36754 0.0
C1547 C 0.74189 0.94398 0.38148 0.0
C1548 C 0.75063 0.92699 0.3665 0.0
H1549 H 0.76065 0.98458 0.40366 0.0
H1550 H 0.71478 0.93469 0.3856 0.0
C1551 C 0.78621 0.93992 0.36176 0.0
C1552 C 0.04026 0.80951 0.37524 0.0
C1553 C 0.01297 0.77553 0.37826 0.0
H1554 H 0.09457 0.84269 0.36752 0.0
C1555 C 0.01962 0.74872 0.37371 0.0
H1556 H 0.03628 0.83085 0.37864 0.0
C1557 C 0.05293 0.75557 0.36767 0.0
C1558 C 0.08035 0.78935 0.36533 0.0
H1559 H 0.99919 0.72222 0.37518 0.0
H1560 H 0.05741 0.73431 0.36504 0.0
C1561 C 0.07368 0.81636 0.36887 0.0
C1562 C 0.1859 0.20912 0.37581 0.0
C1563 C 0.22225 0.2223 0.37839 0.0
H1564 H 0.14521 0.2191 0.36619 0.0
C1565 C 0.24548 0.25604 0.37203 0.0
H1566 H 0.16709 0.18343 0.38064 0.0
C1567 C 0.2328 0.27655 0.36439 0.0
C1568 C 0.19667 0.2636 0.36237 0.0
H1569 H 0.27361 0.26683 0.37295 0.0
H1570 H 0.25134 0.3026 0.35999 0.0
C1571 C 0.17326 0.22951 0.36762 0.0
C1572 C 0.71912 0.55576 0.71166 0.0
C1573 C 0.68882 0.55702 0.71718 0.0
H1574 H 0.77135 0.58278 0.69987 0.0
C1575 C 0.68771 0.58702 0.71287 0.0
H1576 H 0.72142 0.53348 0.71498 0.0
C1577 C 0.71679 0.61556 0.70445 0.0
C1578 C 0.74728 0.6145 0.69962 0.0
H1579 H 0.66466 0.58883 0.71642 0.0
H1580 H 0.71575 0.63881 0.7021 0.0
C1581 C 0.74796 0.58414 0.70296 0.0
C1582 C 0.4026 0.09001 0.70546 0.0
C1583 C 0.43633 0.11754 0.70973 0.0
H1584 H 0.3495 0.0741 0.69716 0.0
C1585 C 0.44233 0.15116 0.7081 0.0
H1586 H 0.39699 0.06383 0.70691 0.0
C1587 C 0.41513 0.15701 0.70216 0.0
C1588 C 0.38146 0.12932 0.69791 0.0
H1589 H 0.46802 0.17284 0.71139 0.0
H1590 H 0.42026 0.18308 0.70132 0.0
C1591 C 0.3754 0.09585 0.69993 0.0
C1592 C 0.88485 0.3022 0.72785 0.0
C1593 C 0.87165 0.32157 0.71882 0.0
H1594 H 0.88609 0.25551 0.72755 0.0
C1595 C 0.8465 0.3069 0.70323 0.0
H1596 H 0.90438 0.31312 0.73987 0.0
C1597 C 0.83538 0.27356 0.69641 0.0
C1598 C 0.8502 0.25483 0.70452 0.0
H1599 H 0.83576 0.32137 0.69621 0.0
H1600 H 0.81569 0.26281 0.68454 0.0
C1601 C 0.87443 0.26925 0.72069 0.0
C1602 C 0.25532 0.02419 0.63361 0.0
C1603 C 0.21983 0.00563 0.63936 0.0
H1604 H 0.30418 0.07082 0.63595 0.0
C1605 C 0.20597 0.02215 0.65127 0.0
H1606 H 0.26666 0.0126 0.624 0.0
C1607 C 0.22755 0.05596 0.65798 0.0
C1608 C 0.26348 0.07384 0.65309 0.0
H1609 H 0.17873 0.00863 0.65593 0.0
H1610 H 0.21615 0.06784 0.66725 0.0
C1611 C 0.27684 0.05778 0.64039 0.0
C1612 C 0.95933 0.1817 0.65137 0.0
C1613 C 0.98769 0.21536 0.64974 0.0
H1614 H 0.90468 0.14959 0.65832 0.0
C1615 C 0.98233 0.24274 0.65482 0.0
H1616 H 0.96268 0.16012 0.64751 0.0
C1617 C 0.94921 0.23674 0.66078 0.0
C1618 C 0.92089 0.2032 0.66249 0.0
H1619 H 1.00353 0.26896 0.65347 0.0
H1620 H 0.94559 0.2584 0.6639 0.0
C1621 C 0.92624 0.17567 0.65779 0.0
C1622 C 0.79254 0.75552 0.62398 0.0
C1623 C 0.81005 0.78979 0.63044 0.0
H1624 H 0.78124 0.70449 0.62991 0.0
C1625 C 0.8297 0.79895 0.64857 0.0
H1626 H 0.77738 0.74807 0.60995 0.0
C1627 C 0.83274 0.77428 0.65978 0.0
C1628 C 0.81546 0.73985 0.65331 0.0
H1629 H 0.84374 0.82542 0.65364 0.0
H1630 H 0.8493 0.78244 0.6732 0.0
C1631 C 0.79486 0.73068 0.63543 0.0
C1632 C 0.98311 0.73464 0.65612 0.0
C1633 C 0.98951 0.76773 0.65174 0.0
H1634 H 0.94498 0.68299 0.66361 0.0
C1635 C 0.96179 0.77466 0.6534 0.0
H1636 H 1.00383 0.72843 0.65471 0.0
C1637 C 0.92807 0.74863 0.65893 0.0
C1638 C 0.92171 0.71533 0.66262 0.0
H1639 H 0.96607 0.79997 0.65006 0.0
H1640 H 0.9068 0.75413 0.65942 0.0
C1641 C 0.94949 0.70864 0.66119 0.0
C1642 C 0.22744 0.18822 0.64779 0.0
C1643 C 0.23519 0.22219 0.64456 0.0
H1644 H 0.24751 0.15494 0.65563 0.0
C1645 C 0.26952 0.24895 0.64857 0.0
H1646 H 0.20139 0.16696 0.64475 0.0
C1647 C 0.29571 0.24203 0.65463 0.0
C1648 C 0.28823 0.20824 0.65739 0.0
H1649 H 0.2764 0.27544 0.64675 0.0
H1650 H 0.32208 0.26323 0.65702 0.0
C1651 C 0.2538 0.18129 0.65403 0.0
C1652 C 0.84694 0.03965 0.64491 0.0
C1653 C 0.81847 0.0194 0.6319 0.0
H1654 H 0.87096 0.0823 0.66543 0.0
C1655 C 0.7912 0.027 0.63031 0.0
H1656 H 0.86877 0.03511 0.64626 0.0
C1657 C 0.79278 0.05461 0.64109 0.0
C1658 C 0.82142 0.07492 0.65391 0.0
H1659 H 0.76856 0.01162 0.62073 0.0
H1660 H 0.77157 0.06003 0.63937 0.0
C1661 C 0.84828 0.06692 0.65587 0.0
C1662 C 0.42222 0.3053 0.72879 0.0
C1663 C 0.45802 0.32016 0.72405 0.0
H1664 H 0.36997 0.26452 0.72277 0.0
C1665 C 0.46858 0.30425 0.70942 0.0
H1666 H 0.41345 0.31707 0.74007 0.0
C1667 C 0.44393 0.27396 0.69982 0.0
C1668 C 0.408 0.25922 0.70425 0.0
H1669 H 0.49609 0.31477 0.70578 0.0
H1670 H 0.45327 0.26192 0.68915 0.0
C1671 C 0.39739 0.27524 0.71887 0.0
C1672 C 0.70334 0.14109 0.7082 0.0
C1673 C 0.67606 0.10715 0.71132 0.0
H1674 H 0.75761 0.1742 0.70044 0.0
C1675 C 0.68278 0.0803 0.70706 0.0
H1676 H 0.69936 0.16248 0.71139 0.0
C1677 C 0.71613 0.08709 0.70113 0.0
C1678 C 0.7435 0.12084 0.69861 0.0
H1679 H 0.66236 0.05381 0.70861 0.0
H1680 H 0.72066 0.06582 0.69867 0.0
C1681 C 0.73678 0.14787 0.70193 0.0
C1682 C 0.90154 0.59051 0.72299 0.0
C1683 C 0.88687 0.55644 0.71625 0.0
H1684 H 0.90126 0.63747 0.7212 0.0
C1685 C 0.85848 0.54329 0.7025 0.0
H1686 H 0.92295 0.6012 0.7339 0.0
C1687 C 0.8458 0.56419 0.69518 0.0
C1688 C 0.86132 0.59864 0.70145 0.0
H1689 H 0.84663 0.51711 0.69702 0.0
H1690 H 0.82403 0.55339 0.68455 0.0
C1691 C 0.88893 0.61129 0.71572 0.0
C1692 C 0.52171 0.97703 0.18188 0.0
C1693 C 0.48666 0.9637 0.18805 0.0
H1694 H 0.56074 0.00442 0.15905 0.0
C1695 C 0.46317 0.96616 0.17453 0.0
H1696 H 0.54058 0.97593 0.19199 0.0
C1697 C 0.47471 0.98217 0.15547 0.0
C1698 C 0.51011 0.9967 0.14976 0.0
H1699 H 0.43599 0.95608 0.17882 0.0
H1700 H 0.45628 0.98437 0.14554 0.0
C1701 C 0.53334 0.99355 0.16307 0.0
C1702 C 0.02169 0.53969 0.17894 0.0
C1703 C 0.04217 0.52386 0.18063 0.0
H1704 H 0.98505 0.54639 0.16085 0.0
C1705 C 0.03877 0.49993 0.16561 0.0
H1706 H 0.02394 0.55852 0.19011 0.0
C1707 C 0.01667 0.49319 0.14882 0.0
C1708 C 0.99733 0.51006 0.14671 0.0
H1709 H 0.05358 0.48675 0.16667 0.0
H1710 H 0.01511 0.47509 0.1373 0.0
C1711 C 0.99943 0.53279 0.16216 0.0
C1712 C 0.49592 0.52532 0.17806 0.0
C1713 C 0.48853 0.50126 0.19364 0.0
H1714 H 0.5137 0.54055 0.1473 0.0
C1715 C 0.49202 0.47251 0.18932 0.0
H1716 H 0.49327 0.54763 0.18084 0.0
C1717 C 0.50365 0.46847 0.17016 0.0
C1718 C 0.512 0.49298 0.15477 0.0
H1719 H 0.48696 0.45367 0.201 0.0
H1720 H 0.50652 0.44626 0.16747 0.0
C1721 C 0.50737 0.52114 0.1588 0.0
C1722 C 0.98237 0.46522 0.84775 0.0
C1723 C 0.99633 0.49189 0.83343 0.0
H1724 H 0.9858 0.44943 0.87814 0.0
C1725 C 0.02443 0.52401 0.83917 0.0
H1726 H 0.96066 0.44025 0.84364 0.0
C1727 C 0.03912 0.52905 0.85869 0.0
C1728 C 0.02551 0.50225 0.87292 0.0
H1729 H 0.03577 0.54487 0.82833 0.0
H1730 H 0.06134 0.5538 0.86264 0.0
C1731 C 0.99661 0.47048 0.86743 0.0
C1732 C 0.51631 0.5063 0.84441 0.0
C1733 C 0.52465 0.48 0.84418 0.0
H1734 H 0.49721 0.53395 0.86182 0.0
C1735 C 0.51872 0.46044 0.86194 0.0
H1736 H 0.52089 0.52203 0.83104 0.0
C1737 C 0.50488 0.46702 0.87951 0.0
C1738 C 0.49679 0.49351 0.87986 0.0
H1739 H 0.52425 0.43958 0.86216 0.0
H1740 H 0.50004 0.45094 0.89274 0.0
C1741 C 0.50266 0.51305 0.86206 0.0
C1742 C 0.48865 0.04199 0.84964 0.0
C1743 C 0.50907 0.03556 0.83567 0.0
H1744 H 0.46341 0.03052 0.87906 0.0
C1745 C 0.52096 0.01308 0.84137 0.0
H1746 H 0.47914 0.0592 0.84566 0.0
C1747 C 0.5115 0.99635 0.86021 0.0
C1748 C 0.49053 0.00222 0.87398 0.0
H1749 H 0.53639 0.0073 0.83087 0.0
H1750 H 0.52003 0.97826 0.8639 0.0
C1751 C 0.4798 0.02576 0.86874 0.0
C1752 C 0.12922 0.2963 0.50701 0.0
C1753 C 0.15217 0.29387 0.52098 0.0
H1754 H 0.12342 0.31421 0.47765 0.0
C1755 C 0.18735 0.30679 0.51521 0.0
H1756 H 0.10196 0.28651 0.51097 0.0
C1757 C 0.19962 0.32291 0.49635 0.0
C1758 C 0.17697 0.32613 0.4826 0.0
H1759 H 0.20584 0.30572 0.52566 0.0
H1760 H 0.22711 0.33347 0.49264 0.0
C1761 C 0.14143 0.31196 0.48791 0.0
C1762 C 0.6826 0.83711 0.51084 0.0
C1763 C 0.71541 0.86743 0.51087 0.0
H1764 H 0.63522 0.80478 0.49423 0.0
C1765 C 0.72433 0.88983 0.49421 0.0
H1766 H 0.67502 0.81923 0.52339 0.0
C1767 C 0.70167 0.88152 0.47758 0.0
C1768 C 0.66945 0.85068 0.4772 0.0
H1769 H 0.749 0.91379 0.49397 0.0
H1770 H 0.70952 0.89916 0.46488 0.0
C1771 C 0.6598 0.82884 0.49417 0.0
C1772 C 0.15227 0.80381 0.52016 0.0
C1773 C 0.14963 0.83314 0.52412 0.0
H1774 H 0.16583 0.77628 0.49871 0.0
C1775 C 0.1575 0.85687 0.50828 0.0
H1776 H 0.14684 0.78518 0.53204 0.0
C1777 C 0.16863 0.85182 0.48912 0.0
C1778 C 0.17246 0.82309 0.48546 0.0
H1779 H 0.15551 0.87961 0.51076 0.0
H1780 H 0.17538 0.871 0.47742 0.0
C1781 C 0.16358 0.79889 0.50111 0.0
C1782 C 0.70842 0.85866 0.16879 0.0
C1783 C 0.67338 0.83414 0.16434 0.0
H1784 H 0.74917 0.88044 0.19127 0.0
C1785 C 0.65206 0.81292 0.18018 0.0
H1786 H 0.72574 0.87519 0.15696 0.0
C1787 C 0.66572 0.81557 0.19984 0.0
C1788 C 0.70101 0.83952 0.20413 0.0
H1789 H 0.62485 0.79404 0.17737 0.0
H1790 H 0.64885 0.79819 0.21152 0.0
C1791 C 0.72202 0.86136 0.18843 0.0
C1792 C 0.17317 0.78266 0.19128 0.0
C1793 C 0.19173 0.80666 0.17583 0.0
H1794 H 0.14654 0.77279 0.22005 0.0
C1795 C 0.19625 0.83977 0.17771 0.0
H1796 H 0.16832 0.75668 0.1902 0.0
C1797 C 0.18306 0.84872 0.1947 0.0
C1798 C 0.16545 0.82494 0.21032 0.0
H1799 H 0.21077 0.85912 0.16633 0.0
H1800 H 0.18751 0.87457 0.1959 0.0
C1801 C 0.16047 0.79178 0.20837 0.0
C1802 C 0.13575 0.34283 0.17193 0.0
C1803 C 0.17138 0.3659 0.16788 0.0
H1804 H 0.09747 0.30858 0.19319 0.0
C1805 C 0.19597 0.37264 0.18355 0.0
H1806 H 0.11599 0.3365 0.16026 0.0
C1807 C 0.18524 0.35618 0.20255 0.0
C1808 C 0.1497 0.33234 0.20628 0.0
H1809 H 0.22358 0.39043 0.18107 0.0
H1810 H 0.20492 0.3613 0.21408 0.0
C1811 C 0.12511 0.32639 0.19081 0.0
C1812 C 0.85469 0.64658 0.84934 0.0
C1813 C 0.81951 0.63233 0.85548 0.0
H1814 H 0.89342 0.67472 0.8265 0.0
C1815 C 0.79554 0.63388 0.84193 0.0
H1816 H 0.8739 0.64618 0.85949 0.0
C1817 C 0.80672 0.64989 0.82284 0.0
C1818 C 0.84221 0.66534 0.81716 0.0
H1819 H 0.76827 0.6231 0.84621 0.0
H1820 H 0.78791 0.65139 0.81288 0.0
C1821 C 0.86594 0.66311 0.83051 0.0
C1822 C 0.34344 0.19507 0.84809 0.0
C1823 C 0.37313 0.19118 0.84755 0.0
H1824 H 0.29902 0.19011 0.83172 0.0
C1825 C 0.37907 0.17617 0.8303 0.0
H1826 H 0.33843 0.20669 0.86126 0.0
C1827 C 0.3563 0.16607 0.81362 0.0
C1828 C 0.32738 0.17135 0.81362 0.0
H1829 H 0.4015 0.17239 0.82969 0.0
H1830 H 0.36162 0.15435 0.80063 0.0
C1831 C 0.32086 0.18544 0.83122 0.0
C1832 C 0.8024 0.16057 0.84247 0.0
C1833 C 0.8275 0.17462 0.85825 0.0
H1834 H 0.79157 0.14267 0.81137 0.0
C1835 C 0.86197 0.18209 0.85407 0.0
H1836 H 0.77568 0.15472 0.84508 0.0
C1837 C 0.87112 0.1756 0.83479 0.0
C1838 C 0.84605 0.16116 0.81908 0.0
H1839 H 0.88195 0.19239 0.86585 0.0
H1840 H 0.89799 0.18188 0.83224 0.0
C1841 C 0.81161 0.15402 0.82308 0.0
C1842 C 0.32257 0.1329 0.5148 0.0
C1843 C 0.33046 0.15995 0.50134 0.0
H1844 H 0.33098 0.11843 0.54457 0.0
C1845 C 0.35289 0.1938 0.50782 0.0
H1846 H 0.30534 0.1066 0.51005 0.0
C1847 C 0.36807 0.20047 0.52727 0.0
C1848 C 0.36041 0.17343 0.54067 0.0
H1849 H 0.35951 0.215 0.49761 0.0
H1850 H 0.38595 0.22672 0.53183 0.0
C1851 C 0.3371 0.13963 0.53444 0.0
C1852 C 0.82842 0.14221 0.5078 0.0
C1853 C 0.86194 0.14577 0.50859 0.0
H1854 H 0.78801 0.14557 0.52405 0.0
C1855 C 0.88163 0.15802 0.52667 0.0
H1856 H 0.81257 0.13251 0.49409 0.0
C1857 C 0.86791 0.16609 0.54373 0.0
C1858 C 0.83389 0.16159 0.54326 0.0
H1859 H 0.90775 0.16143 0.52761 0.0
H1860 H 0.88413 0.17594 0.55727 0.0
C1861 C 0.81443 0.14981 0.52498 0.0
C1862 C 0.82561 0.70608 0.51713 0.0
C1863 C 0.84673 0.70093 0.50299 0.0
H1864 H 0.80057 0.69339 0.54662 0.0
C1865 C 0.8599 0.67938 0.50845 0.0
H1866 H 0.81511 0.72255 0.51336 0.0
C1867 C 0.85113 0.66237 0.52722 0.0
C1868 C 0.82953 0.66698 0.54119 0.0
H1869 H 0.87589 0.67457 0.49784 0.0
H1870 H 0.86079 0.64509 0.53072 0.0
C1871 C 0.81744 0.68956 0.53616 0.0
loop_
_geom_bond_atom_site_label_1
_geom_bond_atom_site_label_2
_geom_bond_distance
_geom_bond_site_symmetry_2
_ccdc_geom_bond_type
P0 O11 1.490 . S
P0 C14 1.812 . S
P0 C20 1.803 . S
P0 C26 1.819 . S
H1 C15 0.941 . S
H2 C16 0.939 . S
H3 C18 0.940 . S
H4 C19 0.940 . S
H5 C21 0.939 . S
H6 C22 0.942 . S
H7 C24 0.940 . S
H8 C25 0.939 . S
H9 C27 0.941 . S
H10 C31 0.939 . S
O11 P0 1.490 . S
H12 C28 0.939 . S
H13 C30 0.940 . S
C14 P0 1.812 . S
C14 C15 1.389 . S
C14 C19 1.391 . S
C15 H1 0.941 . S
C15 C14 1.389 . S
C15 C16 1.397 . S
C16 H2 0.939 . S
C16 C15 1.397 . S
C16 C17 1.378 . S
C17 C16 1.378 . S
C17 C18 1.378 . S
C18 H3 0.940 . S
C18 C17 1.378 . S
C18 C19 1.396 . S
C19 H4 0.940 . S
C19 C14 1.391 . S
C19 C18 1.396 . S
C20 P0 1.803 . S
C20 C21 1.378 . S
C20 C25 1.400 . S
C21 H5 0.939 . S
C21 C20 1.378 . S
C21 C22 1.361 . S
C22 H6 0.942 . S
C22 C21 1.361 . S
C22 C23 1.369 . S
C23 C22 1.369 . S
C23 C24 1.404 . S
C24 H7 0.940 . S
C24 C23 1.404 . S
C24 C25 1.389 . S
C25 H8 0.939 . S
C25 C20 1.400 . S
C25 C24 1.389 . S
C26 P0 1.819 . S
C26 C27 1.391 . S
C26 C31 1.391 . S
C27 H9 0.941 . S
C27 C26 1.391 . S
C27 C28 1.396 . S
C28 H12 0.939 . S
C28 C27 1.396 . S
C28 C29 1.397 . S
C29 C28 1.397 . S
C29 C30 1.385 . S
C30 H13 0.940 . S
C30 C29 1.385 . S
C30 C31 1.388 . S
C31 H10 0.939 . S
C31 C26 1.391 . S
C31 C30 1.388 . S
P32 O43 1.490 . S
P32 C46 1.812 . S
P32 C52 1.803 . S
P32 C58 1.819 . S
H33 C47 0.941 . S
H34 C48 0.939 . S
H35 C50 0.940 . S
H36 C51 0.940 . S
H37 C53 0.939 . S
H38 C54 0.942 1_455 S
H39 C56 0.940 . S
H40 C57 0.939 . S
H41 C59 0.941 . S
H42 C63 0.939 . S
O43 P32 1.490 . S
H44 C60 0.939 . S
H45 C62 0.940 . S
C46 P32 1.812 . S
C46 C47 1.389 . S
C46 C51 1.391 . S
C47 H33 0.941 . S
C47 C46 1.389 . S
C47 C48 1.397 . S
C48 H34 0.939 . S
C48 C47 1.397 . S
C48 C49 1.378 . S
C49 C48 1.378 . S
C49 C50 1.378 . S
C50 H35 0.940 . S
C50 C49 1.378 . S
C50 C51 1.396 . S
C51 H36 0.940 . S
C51 C46 1.391 . S
C51 C50 1.396 . S
C52 P32 1.803 . S
C52 C53 1.378 . S
C52 C57 1.400 . S
C53 H37 0.939 . S
C53 C52 1.378 . S
C53 C54 1.361 . S
C54 H38 0.942 1_655 S
C54 C53 1.361 . S
C54 C55 1.369 . S
C55 C54 1.369 . S
C55 C56 1.404 . S
C56 H39 0.940 . S
C56 C55 1.404 . S
C56 C57 1.389 . S
C57 H40 0.939 . S
C57 C52 1.400 . S
C57 C56 1.389 . S
C58 P32 1.819 . S
C58 C59 1.391 . S
C58 C63 1.391 . S
C59 H41 0.941 . S
C59 C58 1.391 . S
C59 C60 1.396 . S
C60 H44 0.939 . S
C60 C59 1.396 . S
C60 C61 1.397 . S
C61 C60 1.397 . S
C61 C62 1.385 . S
C62 H45 0.940 . S
C62 C61 1.385 . S
C62 C63 1.388 . S
C63 H42 0.939 . S
C63 C58 1.391 . S
C63 C62 1.388 . S
P64 O75 1.490 . S
P64 C78 1.812 . S
P64 C84 1.803 . S
P64 C90 1.819 . S
H65 C79 0.941 . S
H66 C80 0.939 . S
H67 C82 0.940 . S
H68 C83 0.940 . S
H69 C85 0.939 . S
H70 C86 0.942 . S
H71 C88 0.940 . S
H72 C89 0.939 . S
H73 C91 0.941 . S
H74 C95 0.939 . S
O75 P64 1.490 . S
H76 C92 0.939 . S
H77 C94 0.940 . S
C78 P64 1.812 . S
C78 C79 1.389 . S
C78 C83 1.391 . S
C79 H65 0.941 . S
C79 C78 1.389 . S
C79 C80 1.397 . S
C80 H66 0.939 . S
C80 C79 1.397 . S
C80 C81 1.378 . S
C81 C80 1.378 . S
C81 C82 1.378 . S
C82 H67 0.940 . S
C82 C81 1.378 . S
C82 C83 1.396 . S
C83 H68 0.940 . S
C83 C78 1.391 . S
C83 C82 1.396 . S
C84 P64 1.803 . S
C84 C85 1.378 . S
C84 C89 1.400 . S
C85 H69 0.939 . S
C85 C84 1.378 . S
C85 C86 1.361 . S
C86 H70 0.942 . S
C86 C85 1.361 . S
C86 C87 1.369 . S
C87 C86 1.369 . S
C87 C88 1.404 . S
C88 H71 0.940 . S
C88 C87 1.404 . S
C88 C89 1.389 . S
C89 H72 0.939 . S
C89 C84 1.400 . S
C89 C88 1.389 . S
C90 P64 1.819 . S
C90 C91 1.391 . S
C90 C95 1.391 . S
C91 H73 0.941 . S
C91 C90 1.391 . S
C91 C92 1.396 . S
C92 H76 0.939 . S
C92 C91 1.396 . S
C92 C93 1.397 . S
C93 C92 1.397 . S
C93 C94 1.385 . S
C94 H77 0.940 . S
C94 C93 1.385 . S
C94 C95 1.388 . S
C95 H74 0.939 . S
C95 C90 1.391 . S
C95 C94 1.388 . S
P96 O107 1.490 . S
P96 C110 1.812 . S
P96 C116 1.803 . S
P96 C122 1.819 . S
H97 C111 0.941 . S
H98 C112 0.939 . S
H99 C114 0.940 . S
H100 C115 0.940 . S
H101 C117 0.939 . S
H102 C118 0.942 . S
H103 C120 0.940 . S
H104 C121 0.939 . S
H105 C123 0.941 . S
H106 C127 0.939 . S
O107 P96 1.490 . S
H108 C124 0.939 . S
H109 C126 0.940 . S
C110 P96 1.812 . S
C110 C111 1.389 . S
C110 C115 1.391 . S
C111 H97 0.941 . S
C111 C110 1.389 . S
C111 C112 1.397 . S
C112 H98 0.939 . S
C112 C111 1.397 . S
C112 C113 1.378 . S
C113 C112 1.378 . S
C113 C114 1.378 . S
C114 H99 0.940 . S
C114 C113 1.378 . S
C114 C115 1.396 . S
C115 H100 0.940 . S
C115 C110 1.391 . S
C115 C114 1.396 . S
C116 P96 1.803 . S
C116 C117 1.378 . S
C116 C121 1.400 . S
C117 H101 0.939 . S
C117 C116 1.378 . S
C117 C118 1.361 . S
C118 H102 0.942 . S
C118 C117 1.361 . S
C118 C119 1.369 . S
C119 C118 1.369 . S
C119 C120 1.404 . S
C120 H103 0.940 . S
C120 C119 1.404 . S
C120 C121 1.389 . S
C121 H104 0.939 . S
C121 C116 1.400 . S
C121 C120 1.389 . S
C122 P96 1.819 . S
C122 C123 1.391 . S
C122 C127 1.391 . S
C123 H105 0.941 . S
C123 C122 1.391 . S
C123 C124 1.396 . S
C124 H108 0.939 . S
C124 C123 1.396 . S
C124 C125 1.397 . S
C125 C124 1.397 . S
C125 C126 1.385 . S
C126 H109 0.940 . S
C126 C125 1.385 . S
C126 C127 1.388 . S
C127 H106 0.939 . S
C127 C122 1.391 . S
C127 C126 1.388 . S
P128 O139 1.490 . S
P128 C142 1.812 . S
P128 C148 1.803 . S
P128 C154 1.819 . S
H129 C143 0.941 . S
H130 C144 0.939 . S
H131 C146 0.940 . S
H132 C147 0.940 . S
H133 C149 0.939 . S
H134 C150 0.942 . S
H135 C152 0.940 . S
H136 C153 0.939 . S
H137 C155 0.941 . S
H138 C159 0.939 . S
O139 P128 1.490 . S
H140 C156 0.939 . S
H141 C158 0.940 . S
C142 P128 1.812 . S
C142 C143 1.389 . S
C142 C147 1.391 . S
C143 H129 0.941 . S
C143 C142 1.389 . S
C143 C144 1.397 . S
C144 H130 0.939 . S
C144 C143 1.397 . S
C144 C145 1.378 . S
C145 C144 1.378 . S
C145 C146 1.378 . S
C146 H131 0.940 . S
C146 C145 1.378 . S
C146 C147 1.396 . S
C147 H132 0.940 . S
C147 C142 1.391 . S
C147 C146 1.396 . S
C148 P128 1.803 . S
C148 C149 1.378 . S
C148 C153 1.400 . S
C149 H133 0.939 . S
C149 C148 1.378 . S
C149 C150 1.361 . S
C150 H134 0.942 . S
C150 C149 1.361 . S
C150 C151 1.369 . S
C151 C150 1.369 . S
C151 C152 1.404 . S
C152 H135 0.940 . S
C152 C151 1.404 . S
C152 C153 1.389 . S
C153 H136 0.939 . S
C153 C148 1.400 . S
C153 C152 1.389 . S
C154 P128 1.819 . S
C154 C155 1.391 . S
C154 C159 1.391 . S
C155 H137 0.941 . S
C155 C154 1.391 . S
C155 C156 1.396 . S
C156 H140 0.939 . S
C156 C155 1.396 . S
C156 C157 1.397 . S
C157 C156 1.397 . S
C157 C158 1.385 . S
C158 H141 0.940 . S
C158 C157 1.385 . S
C158 C159 1.388 . S
C159 H138 0.939 . S
C159 C154 1.391 . S
C159 C158 1.388 . S
P160 O171 1.490 . S
P160 C174 1.812 . S
P160 C180 1.803 . S
P160 C186 1.819 . S
H161 C175 0.941 . S
H162 C176 0.939 . S
H163 C178 0.940 . S
H164 C179 0.940 . S
H165 C181 0.939 . S
H166 C182 0.942 . S
H167 C184 0.940 . S
H168 C185 0.939 . S
H169 C187 0.941 . S
H170 C191 0.939 . S
O171 P160 1.490 . S
H172 C188 0.939 . S
H173 C190 0.940 . S
C174 P160 1.812 . S
C174 C175 1.389 . S
C174 C179 1.391 . S
C175 H161 0.941 . S
C175 C174 1.389 . S
C175 C176 1.397 . S
C176 H162 0.939 . S
C176 C175 1.397 . S
C176 C177 1.378 . S
C177 C176 1.378 . S
C177 C178 1.378 . S
C178 H163 0.940 . S
C178 C177 1.378 . S
C178 C179 1.396 . S
C179 H164 0.940 . S
C179 C174 1.391 . S
C179 C178 1.396 . S
C180 P160 1.803 . S
C180 C181 1.378 . S
C180 C185 1.400 . S
C181 H165 0.939 . S
C181 C180 1.378 . S
C181 C182 1.361 . S
C182 H166 0.942 . S
C182 C181 1.361 . S
C182 C183 1.369 . S
C183 C182 1.369 . S
C183 C184 1.404 . S
C184 H167 0.940 . S
C184 C183 1.404 . S
C184 C185 1.389 . S
C185 H168 0.939 . S
C185 C180 1.400 . S
C185 C184 1.389 . S
C186 P160 1.819 . S
C186 C187 1.391 . S
C186 C191 1.391 . S
C187 H169 0.941 . S
C187 C186 1.391 . S
C187 C188 1.396 . S
C188 H172 0.939 . S
C188 C187 1.396 . S
C188 C189 1.397 . S
C189 C188 1.397 . S
C189 C190 1.385 . S
C190 H173 0.940 . S
C190 C189 1.385 . S
C190 C191 1.388 . S
C191 H170 0.939 . S
C191 C186 1.391 . S
C191 C190 1.388 . S
P192 O203 1.490 . S
P192 C206 1.812 . S
P192 C212 1.803 . S
P192 C218 1.819 . S
H193 C207 0.941 . S
H194 C208 0.939 . S
H195 C210 0.940 . S
H196 C211 0.940 . S
H197 C213 0.939 . S
H198 C214 0.942 . S
H199 C216 0.940 . S
H200 C217 0.939 . S
H201 C219 0.941 . S
H202 C223 0.939 . S
O203 P192 1.490 . S
H204 C220 0.939 . S
H205 C222 0.940 . S
C206 P192 1.812 . S
C206 C207 1.389 . S
C206 C211 1.391 . S
C207 H193 0.941 . S
C207 C206 1.389 . S
C207 C208 1.397 . S
C208 H194 0.939 . S
C208 C207 1.397 . S
C208 C209 1.378 . S
C209 C208 1.378 . S
C209 C210 1.378 . S
C210 H195 0.940 . S
C210 C209 1.378 . S
C210 C211 1.396 . S
C211 H196 0.940 . S
C211 C206 1.391 . S
C211 C210 1.396 . S
C212 P192 1.803 . S
C212 C213 1.378 . S
C212 C217 1.400 . S
C213 H197 0.939 . S
C213 C212 1.378 . S
C213 C214 1.361 . S
C214 H198 0.942 . S
C214 C213 1.361 . S
C214 C215 1.369 . S
C215 C214 1.369 . S
C215 C216 1.404 . S
C216 H199 0.940 . S
C216 C215 1.404 . S
C216 C217 1.389 . S
C217 H200 0.939 . S
C217 C212 1.400 . S
C217 C216 1.389 . S
C218 P192 1.819 . S
C218 C219 1.391 . S
C218 C223 1.391 . S
C219 H201 0.941 . S
C219 C218 1.391 . S
C219 C220 1.396 . S
C220 H204 0.939 . S
C220 C219 1.396 . S
C220 C221 1.397 . S
C221 C220 1.397 . S
C221 C222 1.385 . S
C222 H205 0.940 . S
C222 C221 1.385 . S
C222 C223 1.388 . S
C223 H202 0.939 . S
C223 C218 1.391 . S
C223 C222 1.388 . S
P224 O235 1.490 . S
P224 C238 1.812 . S
P224 C244 1.803 . S
P224 C250 1.819 . S
H225 C239 0.941 . S
H226 C240 0.939 . S
H227 C242 0.940 . S
H228 C243 0.940 . S
H229 C245 0.939 . S
H230 C246 0.942 . S
H231 C248 0.940 . S
H232 C249 0.939 . S
H233 C251 0.941 . S
H234 C255 0.939 . S
O235 P224 1.490 . S
H236 C252 0.939 . S
H237 C254 0.940 . S
C238 P224 1.812 . S
C238 C239 1.389 . S
C238 C243 1.391 . S
C239 H225 0.941 . S
C239 C238 1.389 . S
C239 C240 1.397 . S
C240 H226 0.939 . S
C240 C239 1.397 . S
C240 C241 1.378 . S
C241 C240 1.378 . S
C241 C242 1.378 . S
C242 H227 0.940 . S
C242 C241 1.378 . S
C242 C243 1.396 . S
C243 H228 0.940 . S
C243 C238 1.391 . S
C243 C242 1.396 . S
C244 P224 1.803 . S
C244 C245 1.378 . S
C244 C249 1.400 . S
C245 H229 0.939 . S
C245 C244 1.378 . S
C245 C246 1.361 . S
C246 H230 0.942 . S
C246 C245 1.361 . S
C246 C247 1.369 . S
C247 C246 1.369 . S
C247 C248 1.404 . S
C248 H231 0.940 . S
C248 C247 1.404 . S
C248 C249 1.389 . S
C249 H232 0.939 . S
C249 C244 1.400 . S
C249 C248 1.389 . S
C250 P224 1.819 . S
C250 C251 1.391 . S
C250 C255 1.391 . S
C251 H233 0.941 . S
C251 C250 1.391 . S
C251 C252 1.396 . S
C252 H236 0.939 . S
C252 C251 1.396 . S
C252 C253 1.397 . S
C253 C252 1.397 . S
C253 C254 1.385 . S
C254 H237 0.940 . S
C254 C253 1.385 . S
C254 C255 1.388 . S
C255 H234 0.939 . S
C255 C250 1.391 . S
C255 C254 1.388 . S
P256 O267 1.490 . S
P256 C270 1.812 . S
P256 C276 1.803 . S
P256 C282 1.819 . S
H257 C271 0.941 . S
H258 C272 0.939 . S
H259 C274 0.940 . S
H260 C275 0.940 . S
H261 C277 0.939 . S
H262 C278 0.942 . S
H263 C280 0.940 . S
H264 C281 0.939 . S
H265 C283 0.941 . S
H266 C287 0.939 . S
O267 P256 1.490 . S
H268 C284 0.939 . S
H269 C286 0.940 . S
C270 P256 1.812 . S
C270 C271 1.389 . S
C270 C275 1.391 . S
C271 H257 0.941 . S
C271 C270 1.389 . S
C271 C272 1.397 . S
C272 H258 0.939 . S
C272 C271 1.397 . S
C272 C273 1.378 . S
C273 C272 1.378 . S
C273 C274 1.378 . S
C274 H259 0.940 . S
C274 C273 1.378 . S
C274 C275 1.396 . S
C275 H260 0.940 . S
C275 C270 1.391 . S
C275 C274 1.396 . S
C276 P256 1.803 . S
C276 C277 1.378 . S
C276 C281 1.400 . S
C277 H261 0.939 . S
C277 C276 1.378 . S
C277 C278 1.361 . S
C278 H262 0.942 . S
C278 C277 1.361 . S
C278 C279 1.369 . S
C279 C278 1.369 . S
C279 C280 1.404 . S
C280 H263 0.940 . S
C280 C279 1.404 . S
C280 C281 1.389 . S
C281 H264 0.939 . S
C281 C276 1.400 . S
C281 C280 1.389 . S
C282 P256 1.819 . S
C282 C283 1.391 . S
C282 C287 1.391 . S
C283 H265 0.941 . S
C283 C282 1.391 . S
C283 C284 1.396 . S
C284 H268 0.939 . S
C284 C283 1.396 . S
C284 C285 1.397 . S
C285 C284 1.397 . S
C285 C286 1.385 . S
C286 H269 0.940 . S
C286 C285 1.385 . S
C286 C287 1.388 . S
C287 H266 0.939 . S
C287 C282 1.391 . S
C287 C286 1.388 . S
P288 O299 1.490 . S
P288 C302 1.812 . S
P288 C308 1.803 . S
P288 C314 1.819 . S
H289 C303 0.941 . S
H290 C304 0.939 . S
H291 C306 0.940 . S
H292 C307 0.940 . S
H293 C309 0.939 . S
H294 C310 0.942 . S
H295 C312 0.940 . S
H296 C313 0.939 . S
H297 C315 0.941 . S
H298 C319 0.939 . S
O299 P288 1.490 . S
H300 C316 0.939 . S
H301 C318 0.940 . S
C302 P288 1.812 . S
C302 C303 1.389 . S
C302 C307 1.391 . S
C303 H289 0.941 . S
C303 C302 1.389 . S
C303 C304 1.397 . S
C304 H290 0.939 . S
C304 C303 1.397 . S
C304 C305 1.378 . S
C305 C304 1.378 . S
C305 C306 1.378 . S
C306 H291 0.940 . S
C306 C305 1.378 . S
C306 C307 1.396 . S
C307 H292 0.940 . S
C307 C302 1.391 . S
C307 C306 1.396 . S
C308 P288 1.803 . S
C308 C309 1.378 . S
C308 C313 1.400 . S
C309 H293 0.939 . S
C309 C308 1.378 . S
C309 C310 1.361 . S
C310 H294 0.942 . S
C310 C309 1.361 . S
C310 C311 1.369 . S
C311 C310 1.369 . S
C311 C312 1.404 . S
C312 H295 0.940 . S
C312 C311 1.404 . S
C312 C313 1.389 . S
C313 H296 0.939 . S
C313 C308 1.400 . S
C313 C312 1.389 . S
C314 P288 1.819 . S
C314 C315 1.391 . S
C314 C319 1.391 . S
C315 H297 0.941 . S
C315 C314 1.391 . S
C315 C316 1.396 . S
C316 H300 0.939 . S
C316 C315 1.396 . S
C316 C317 1.397 . S
C317 C316 1.397 . S
C317 C318 1.385 . S
C318 H301 0.940 . S
C318 C317 1.385 . S
C318 C319 1.388 . S
C319 H298 0.939 . S
C319 C314 1.391 . S
C319 C318 1.388 . S
P320 O331 1.490 . S
P320 C334 1.812 . S
P320 C340 1.803 . S
P320 C346 1.819 . S
H321 C335 0.941 . S
H322 C336 0.939 . S
H323 C338 0.940 . S
H324 C339 0.940 . S
H325 C341 0.939 . S
H326 C342 0.942 . S
H327 C344 0.940 . S
H328 C345 0.939 . S
H329 C347 0.941 . S
H330 C351 0.939 . S
O331 P320 1.490 . S
H332 C348 0.939 . S
H333 C350 0.940 . S
C334 P320 1.812 . S
C334 C335 1.389 . S
C334 C339 1.391 . S
C335 H321 0.941 . S
C335 C334 1.389 . S
C335 C336 1.397 . S
C336 H322 0.939 . S
C336 C335 1.397 . S
C336 C337 1.378 . S
C337 C336 1.378 . S
C337 C338 1.378 . S
C338 H323 0.940 . S
C338 C337 1.378 . S
C338 C339 1.396 . S
C339 H324 0.940 . S
C339 C334 1.391 . S
C339 C338 1.396 . S
C340 P320 1.803 . S
C340 C341 1.378 . S
C340 C345 1.400 . S
C341 H325 0.939 . S
C341 C340 1.378 . S
C341 C342 1.361 . S
C342 H326 0.942 . S
C342 C341 1.361 . S
C342 C343 1.369 . S
C343 C342 1.369 . S
C343 C344 1.404 . S
C344 H327 0.940 . S
C344 C343 1.404 . S
C344 C345 1.389 . S
C345 H328 0.939 . S
C345 C340 1.400 . S
C345 C344 1.389 . S
C346 P320 1.819 . S
C346 C347 1.391 . S
C346 C351 1.391 . S
C347 H329 0.941 . S
C347 C346 1.391 . S
C347 C348 1.396 . S
C348 H332 0.939 . S
C348 C347 1.396 . S
C348 C349 1.397 . S
C349 C348 1.397 . S
C349 C350 1.385 . S
C350 H333 0.940 . S
C350 C349 1.385 . S
C350 C351 1.388 . S
C351 H330 0.939 . S
C351 C346 1.391 . S
C351 C350 1.388 . S
P352 O363 1.490 . S
P352 C366 1.812 . S
P352 C372 1.803 . S
P352 C378 1.819 . S
H353 C367 0.941 . S
H354 C368 0.939 . S
H355 C370 0.940 . S
H356 C371 0.940 . S
H357 C373 0.939 . S
H358 C374 0.942 . S
H359 C376 0.940 . S
H360 C377 0.939 . S
H361 C379 0.941 . S
H362 C383 0.939 . S
O363 P352 1.490 . S
H364 C380 0.939 . S
H365 C382 0.940 . S
C366 P352 1.812 . S
C366 C367 1.389 . S
C366 C371 1.391 . S
C367 H353 0.941 . S
C367 C366 1.389 . S
C367 C368 1.397 . S
C368 H354 0.939 . S
C368 C367 1.397 . S
C368 C369 1.378 . S
C369 C368 1.378 . S
C369 C370 1.378 . S
C370 H355 0.940 . S
C370 C369 1.378 . S
C370 C371 1.396 . S
C371 H356 0.940 . S
C371 C366 1.391 . S
C371 C370 1.396 . S
C372 P352 1.803 . S
C372 C373 1.378 . S
C372 C377 1.400 . S
C373 H357 0.939 . S
C373 C372 1.378 . S
C373 C374 1.361 . S
C374 H358 0.942 . S
C374 C373 1.361 . S
C374 C375 1.369 . S
C375 C374 1.369 . S
C375 C376 1.404 . S
C376 H359 0.940 . S
C376 C375 1.404 . S
C376 C377 1.389 . S
C377 H360 0.939 . S
C377 C372 1.400 . S
C377 C376 1.389 . S
C378 P352 1.819 . S
C378 C379 1.391 . S
C378 C383 1.391 . S
C379 H361 0.941 . S
C379 C378 1.391 . S
C379 C380 1.396 . S
C380 H364 0.939 . S
C380 C379 1.396 . S
C380 C381 1.397 . S
C381 C380 1.397 . S
C381 C382 1.385 . S
C382 H365 0.940 . S
C382 C381 1.385 . S
C382 C383 1.388 . S
C383 H362 0.939 . S
C383 C378 1.391 . S
C383 C382 1.388 . S
P384 O395 1.490 . S
P384 C398 1.812 . S
P384 C404 1.803 . S
P384 C410 1.819 . S
H385 C399 0.941 . S
H386 C400 0.939 . S
H387 C402 0.940 . S
H388 C403 0.940 . S
H389 C405 0.939 . S
H390 C406 0.942 . S
H391 C408 0.940 . S
H392 C409 0.939 . S
H393 C411 0.941 . S
H394 C415 0.939 . S
O395 P384 1.490 . S
H396 C412 0.939 . S
H397 C414 0.940 . S
C398 P384 1.812 . S
C398 C399 1.389 . S
C398 C403 1.391 . S
C399 H385 0.941 . S
C399 C398 1.389 . S
C399 C400 1.397 . S
C400 H386 0.939 . S
C400 C399 1.397 . S
C400 C401 1.378 . S
C401 C400 1.378 . S
C401 C402 1.378 . S
C402 H387 0.940 . S
C402 C401 1.378 . S
C402 C403 1.396 . S
C403 H388 0.940 . S
C403 C398 1.391 . S
C403 C402 1.396 . S
C404 P384 1.803 . S
C404 C405 1.378 . S
C404 C409 1.400 . S
C405 H389 0.939 . S
C405 C404 1.378 . S
C405 C406 1.361 . S
C406 H390 0.942 . S
C406 C405 1.361 . S
C406 C407 1.369 . S
C407 C406 1.369 . S
C407 C408 1.404 . S
C408 H391 0.940 . S
C408 C407 1.404 . S
C408 C409 1.389 . S
C409 H392 0.939 . S
C409 C404 1.400 . S
C409 C408 1.389 . S
C410 P384 1.819 . S
C410 C411 1.391 . S
C410 C415 1.391 . S
C411 H393 0.941 . S
C411 C410 1.391 . S
C411 C412 1.396 . S
C412 H396 0.939 . S
C412 C411 1.396 . S
C412 C413 1.397 . S
C413 C412 1.397 . S
C413 C414 1.385 . S
C414 H397 0.940 . S
C414 C413 1.385 . S
C414 C415 1.388 . S
C415 H394 0.939 . S
C415 C410 1.391 . S
C415 C414 1.388 . S
P416 O427 1.490 . S
P416 C430 1.812 . S
P416 C436 1.803 . S
P416 C442 1.819 . S
H417 C431 0.941 . S
H418 C432 0.939 . S
H419 C434 0.940 . S
H420 C435 0.940 . S
H421 C437 0.939 . S
H422 C438 0.942 . S
H423 C440 0.940 . S
H424 C441 0.939 . S
H425 C443 0.941 . S
H426 C447 0.939 . S
O427 P416 1.490 . S
H428 C444 0.939 . S
H429 C446 0.940 . S
C430 P416 1.812 . S
C430 C431 1.389 . S
C430 C435 1.391 . S
C431 H417 0.941 . S
C431 C430 1.389 . S
C431 C432 1.397 . S
C432 H418 0.939 . S
C432 C431 1.397 . S
C432 C433 1.378 . S
C433 C432 1.378 . S
C433 C434 1.378 . S
C434 H419 0.940 . S
C434 C433 1.378 . S
C434 C435 1.396 . S
C435 H420 0.940 . S
C435 C430 1.391 . S
C435 C434 1.396 . S
C436 P416 1.803 . S
C436 C437 1.378 . S
C436 C441 1.400 . S
C437 H421 0.939 . S
C437 C436 1.378 . S
C437 C438 1.361 . S
C438 H422 0.942 . S
C438 C437 1.361 . S
C438 C439 1.369 . S
C439 C438 1.369 . S
C439 C440 1.404 . S
C440 H423 0.940 . S
C440 C439 1.404 . S
C440 C441 1.389 . S
C441 H424 0.939 . S
C441 C436 1.400 . S
C441 C440 1.389 . S
C442 P416 1.819 . S
C442 C443 1.391 . S
C442 C447 1.391 . S
C443 H425 0.941 . S
C443 C442 1.391 . S
C443 C444 1.396 . S
C444 H428 0.939 . S
C444 C443 1.396 . S
C444 C445 1.397 . S
C445 C444 1.397 . S
C445 C446 1.385 . S
C446 H429 0.940 . S
C446 C445 1.385 . S
C446 C447 1.388 . S
C447 H426 0.939 . S
C447 C442 1.391 . S
C447 C446 1.388 . S
P448 O459 1.490 . S
P448 C462 1.812 . S
P448 C468 1.803 . S
P448 C474 1.819 . S
H449 C463 0.941 . S
H450 C464 0.939 . S
H451 C466 0.940 . S
H452 C467 0.940 . S
H453 C469 0.939 . S
H454 C470 0.942 . S
H455 C472 0.940 . S
H456 C473 0.939 . S
H457 C475 0.941 . S
H458 C479 0.939 . S
O459 P448 1.490 . S
H460 C476 0.939 . S
H461 C478 0.940 . S
C462 P448 1.812 . S
C462 C463 1.389 . S
C462 C467 1.391 . S
C463 H449 0.941 . S
C463 C462 1.389 . S
C463 C464 1.397 . S
C464 H450 0.939 . S
C464 C463 1.397 . S
C464 C465 1.378 . S
C465 C464 1.378 . S
C465 C466 1.378 . S
C466 H451 0.940 . S
C466 C465 1.378 . S
C466 C467 1.396 . S
C467 H452 0.940 . S
C467 C462 1.391 . S
C467 C466 1.396 . S
C468 P448 1.803 . S
C468 C469 1.378 . S
C468 C473 1.400 . S
C469 H453 0.939 . S
C469 C468 1.378 . S
C469 C470 1.361 . S
C470 H454 0.942 . S
C470 C469 1.361 . S
C470 C471 1.369 . S
C471 C470 1.369 . S
C471 C472 1.404 . S
C472 H455 0.940 . S
C472 C471 1.404 . S
C472 C473 1.389 . S
C473 H456 0.939 . S
C473 C468 1.400 . S
C473 C472 1.389 . S
C474 P448 1.819 . S
C474 C475 1.391 . S
C474 C479 1.391 . S
C475 H457 0.941 . S
C475 C474 1.391 . S
C475 C476 1.396 . S
C476 H460 0.939 . S
C476 C475 1.396 . S
C476 C477 1.397 . S
C477 C476 1.397 . S
C477 C478 1.385 . S
C478 H461 0.940 . S
C478 C477 1.385 . S
C478 C479 1.388 . S
C479 H458 0.939 . S
C479 C474 1.391 . S
C479 C478 1.388 . S
P480 O491 1.490 . S
P480 C494 1.812 . S
P480 C500 1.803 . S
P480 C506 1.819 . S
H481 C495 0.941 . S
H482 C496 0.939 . S
H483 C498 0.940 . S
H484 C499 0.940 . S
H485 C501 0.939 . S
H486 C502 0.942 . S
H487 C504 0.940 . S
H488 C505 0.939 . S
H489 C507 0.941 . S
H490 C511 0.939 . S
O491 P480 1.490 . S
H492 C508 0.939 . S
H493 C510 0.940 . S
C494 P480 1.812 . S
C494 C495 1.389 . S
C494 C499 1.391 . S
C495 H481 0.941 . S
C495 C494 1.389 . S
C495 C496 1.397 . S
C496 H482 0.939 . S
C496 C495 1.397 . S
C496 C497 1.378 . S
C497 C496 1.378 . S
C497 C498 1.378 . S
C498 H483 0.940 . S
C498 C497 1.378 . S
C498 C499 1.396 . S
C499 H484 0.940 . S
C499 C494 1.391 . S
C499 C498 1.396 . S
C500 P480 1.803 . S
C500 C501 1.378 . S
C500 C505 1.400 . S
C501 H485 0.939 . S
C501 C500 1.378 . S
C501 C502 1.361 . S
C502 H486 0.942 . S
C502 C501 1.361 . S
C502 C503 1.369 . S
C503 C502 1.369 . S
C503 C504 1.404 . S
C504 H487 0.940 . S
C504 C503 1.404 . S
C504 C505 1.389 . S
C505 H488 0.939 . S
C505 C500 1.400 . S
C505 C504 1.389 . S
C506 P480 1.819 . S
C506 C507 1.391 . S
C506 C511 1.391 . S
C507 H489 0.941 . S
C507 C506 1.391 . S
C507 C508 1.396 . S
C508 H492 0.939 . S
C508 C507 1.396 . S
C508 C509 1.397 . S
C509 C508 1.397 . S
C509 C510 1.385 . S
C510 H493 0.940 . S
C510 C509 1.385 . S
C510 C511 1.388 . S
C511 H490 0.939 . S
C511 C506 1.391 . S
C511 C510 1.388 . S
P512 O523 1.490 . S
P512 C526 1.812 . S
P512 C532 1.803 . S
P512 C538 1.819 . S
H513 C527 0.941 . S
H514 C528 0.939 . S
H515 C530 0.940 . S
H516 C531 0.940 . S
H517 C533 0.939 . S
H518 C534 0.942 . S
H519 C536 0.940 . S
H520 C537 0.939 . S
H521 C539 0.941 . S
H522 C543 0.939 . S
O523 P512 1.490 . S
H524 C540 0.939 . S
H525 C542 0.940 . S
C526 P512 1.812 . S
C526 C527 1.389 . S
C526 C531 1.391 . S
C527 H513 0.941 . S
C527 C526 1.389 . S
C527 C528 1.397 . S
C528 H514 0.939 . S
C528 C527 1.397 . S
C528 C529 1.378 . S
C529 C528 1.378 . S
C529 C530 1.378 . S
C530 H515 0.940 . S
C530 C529 1.378 . S
C530 C531 1.396 . S
C531 H516 0.940 . S
C531 C526 1.391 . S
C531 C530 1.396 . S
C532 P512 1.803 . S
C532 C533 1.378 . S
C532 C537 1.400 . S
C533 H517 0.939 . S
C533 C532 1.378 . S
C533 C534 1.361 . S
C534 H518 0.942 . S
C534 C533 1.361 . S
C534 C535 1.369 . S
C535 C534 1.369 . S
C535 C536 1.404 . S
C536 H519 0.940 . S
C536 C535 1.404 . S
C536 C537 1.389 . S
C537 H520 0.939 . S
C537 C532 1.400 . S
C537 C536 1.389 . S
C538 P512 1.819 . S
C538 C539 1.391 . S
C538 C543 1.391 . S
C539 H521 0.941 . S
C539 C538 1.391 . S
C539 C540 1.396 . S
C540 H524 0.939 . S
C540 C539 1.396 . S
C540 C541 1.397 . S
C541 C540 1.397 . S
C541 C542 1.385 . S
C542 H525 0.940 . S
C542 C541 1.385 . S
C542 C543 1.388 . S
C543 H522 0.939 . S
C543 C538 1.391 . S
C543 C542 1.388 . S
P544 O555 1.490 . S
P544 C558 1.812 . S
P544 C564 1.803 . S
P544 C570 1.819 . S
H545 C559 0.941 . S
H546 C560 0.939 . S
H547 C562 0.940 . S
H548 C563 0.940 . S
H549 C565 0.939 . S
H550 C566 0.942 . S
H551 C568 0.940 . S
H552 C569 0.939 . S
H553 C571 0.941 . S
H554 C575 0.939 . S
O555 P544 1.490 . S
H556 C572 0.939 . S
H557 C574 0.940 . S
C558 P544 1.812 . S
C558 C559 1.389 . S
C558 C563 1.391 . S
C559 H545 0.941 . S
C559 C558 1.389 . S
C559 C560 1.397 . S
C560 H546 0.939 . S
C560 C559 1.397 . S
C560 C561 1.378 . S
C561 C560 1.378 . S
C561 C562 1.378 . S
C562 H547 0.940 . S
C562 C561 1.378 . S
C562 C563 1.396 . S
C563 H548 0.940 . S
C563 C558 1.391 . S
C563 C562 1.396 . S
C564 P544 1.803 . S
C564 C565 1.378 . S
C564 C569 1.400 . S
C565 H549 0.939 . S
C565 C564 1.378 . S
C565 C566 1.361 . S
C566 H550 0.942 . S
C566 C565 1.361 . S
C566 C567 1.369 . S
C567 C566 1.369 . S
C567 C568 1.404 . S
C568 H551 0.940 . S
C568 C567 1.404 . S
C568 C569 1.389 . S
C569 H552 0.939 . S
C569 C564 1.400 . S
C569 C568 1.389 . S
C570 P544 1.819 . S
C570 C571 1.391 . S
C570 C575 1.391 . S
C571 H553 0.941 . S
C571 C570 1.391 . S
C571 C572 1.396 . S
C572 H556 0.939 . S
C572 C571 1.396 . S
C572 C573 1.397 . S
C573 C572 1.397 . S
C573 C574 1.385 . S
C574 H557 0.940 . S
C574 C573 1.385 . S
C574 C575 1.388 . S
C575 H554 0.939 . S
C575 C570 1.391 . S
C575 C574 1.388 . S
Tb576 N607 2.660 . S
Tb576 N614 2.600 . S
Tb576 O620 2.546 . S
Tb576 O621 2.610 1_565 S
Tb576 O623 2.320 1_565 S
Tb576 O624 2.552 1_565 S
Tb576 O625 2.413 . S
Tb576 O627 2.362 1_556 S
Tb576 O628 2.421 . S
Tb576 C640 2.833 . S
C577 C580 1.432 . S
C577 C581 1.414 . S
C577 N584 1.359 . S
C578 C580 1.417 . S
C578 C582 1.432 . S
C578 C590 1.410 . S
C579 C581 1.444 . S
C579 C582 1.317 . S
C579 H602 0.929 . S
C580 C577 1.432 . S
C580 C578 1.417 . S
C580 N588 1.360 . S
C581 C577 1.414 . S
C581 C579 1.444 . S
C581 C586 1.385 . S
C582 C578 1.432 . S
C582 C579 1.317 . S
C582 H594 0.930 . S
C583 C585 1.392 . S
C583 C586 1.370 . S
C583 H595 0.931 . S
N584 C577 1.359 . S
N584 C585 1.327 . S
N584 Tb587 2.600 . S
C585 C583 1.392 . S
C585 N584 1.327 . S
C585 H592 0.930 . S
C586 C581 1.385 . S
C586 C583 1.370 . S
C586 H605 0.930 . S
Tb587 N584 2.600 . S
Tb587 N588 2.660 . S
Tb587 O621 2.362 1_554 S
Tb587 O622 2.421 . S
Tb587 O626 2.546 . S
Tb587 O627 2.610 1_545 S
Tb587 O629 2.320 1_545 S
Tb587 O630 2.552 1_545 S
Tb587 O631 2.413 . S
Tb587 C651 2.833 . S
N588 C580 1.360 . S
N588 Tb587 2.660 . S
N588 C589 1.305 . S
C589 N588 1.305 . S
C589 C591 1.407 . S
C589 H596 0.930 . S
C590 C578 1.410 . S
C590 C591 1.345 . S
C590 H598 0.930 . S
C591 C589 1.407 . S
C591 C590 1.345 . S
C591 H593 0.930 . S
H592 C585 0.930 . S
H593 C591 0.930 . S
H594 C582 0.930 . S
H595 C583 0.931 . S
H596 C589 0.930 . S
H597 C611 0.930 . S
H598 C590 0.930 . S
H599 C617 0.930 . S
H600 C608 0.930 . S
H601 C615 0.931 . S
H602 C579 0.929 . S
H603 C609 0.930 . S
H604 C642 0.930 . S
H605 C586 0.930 . S
H606 C641 0.929 . S
N607 Tb576 2.660 . S
N607 C608 1.305 . S
N607 C612 1.360 . S
C608 H600 0.930 . S
C608 N607 1.305 . S
C608 C611 1.407 . S
C609 H603 0.930 . S
C609 C610 1.410 . S
C609 C611 1.345 . S
C610 C609 1.410 . S
C610 C612 1.417 . S
C610 C642 1.432 . S
C611 H597 0.930 . S
C611 C608 1.407 . S
C611 C609 1.345 . S
C612 N607 1.360 . S
C612 C610 1.417 . S
C612 C616 1.432 . S
H613 C618 0.930 . S
N614 Tb576 2.600 . S
N614 C616 1.359 . S
N614 C617 1.327 . S
C615 H601 0.931 . S
C615 C617 1.392 . S
C615 C618 1.370 . S
C616 C612 1.432 . S
C616 N614 1.359 . S
C616 C619 1.414 . S
C617 H599 0.930 . S
C617 N614 1.327 . S
C617 C615 1.392 . S
C618 H613 0.930 . S
C618 C615 1.370 . S
C618 C619 1.385 . S
C619 C616 1.414 . S
C619 C618 1.385 . S
C619 C641 1.444 . S
O620 Tb576 2.546 . S
O620 C640 1.251 . S
O621 Tb576 2.610 1_545 S
O621 Tb587 2.362 1_556 S
O621 C632 1.283 . S
O622 Tb587 2.421 . S
O622 C639 1.262 1_554 S
O623 Tb576 2.320 1_545 S
O623 C639 1.260 . S
O624 Tb576 2.552 1_545 S
O624 C632 1.243 . S
O625 Tb576 2.413 . S
O625 C640 1.256 . S
O626 Tb587 2.546 . S
O626 C651 1.251 . S
O627 Tb576 2.362 1_554 S
O627 Tb587 2.610 1_565 S
O627 C643 1.283 . S
O628 Tb576 2.421 . S
O628 C650 1.262 1_556 S
O629 Tb587 2.320 1_565 S
O629 C650 1.260 . S
O630 Tb587 2.552 1_565 S
O630 C643 1.243 . S
O631 Tb587 2.413 . S
O631 C651 1.256 . S
C632 O621 1.283 . S
C632 O624 1.243 . S
C633 C635 1.382 1_565 S
C633 C637 1.393 . S
C633 C640 1.500 . S
C634 C635 1.400 . S
C634 C636 1.384 1_545 S
C635 C633 1.382 1_545 S
C635 C634 1.400 . S
C635 H652 0.930 . S
C636 C634 1.384 1_565 S
C636 C638 1.392 . S
C636 H653 0.931 . S
C637 C633 1.393 . S
C637 C638 1.401 . S
C637 H654 0.930 . S
C638 C636 1.392 . S
C638 C637 1.401 . S
C638 H655 0.930 . S
C639 O622 1.262 1_556 S
C639 O623 1.260 . S
C640 Tb576 2.833 . S
C640 O620 1.251 . S
C640 O625 1.256 . S
C640 C633 1.500 . S
C641 H606 0.929 . S
C641 C619 1.444 . S
C641 C642 1.317 . S
C642 H604 0.930 . S
C642 C610 1.432 . S
C642 C641 1.317 . S
C643 O627 1.283 . S
C643 O630 1.243 . S
C644 C645 1.382 1_545 S
C644 C648 1.393 . S
C644 C651 1.500 . S
C645 C644 1.382 1_565 S
C645 C646 1.400 . S
C645 H656 0.930 . S
C646 C645 1.400 . S
C646 C647 1.384 1_565 S
C647 C646 1.384 1_545 S
C647 C649 1.392 . S
C647 H657 0.931 . S
C648 C644 1.393 . S
C648 C649 1.401 . S
C648 H658 0.930 . S
C649 C647 1.392 . S
C649 C648 1.401 . S
C649 H659 0.930 . S
C650 O628 1.262 1_554 S
C650 O629 1.260 . S
C651 Tb587 2.833 . S
C651 O626 1.251 . S
C651 O631 1.256 . S
C651 C644 1.500 . S
H652 C635 0.930 . S
H653 C636 0.931 . S
H654 C637 0.930 . S
H655 C638 0.930 . S
H656 C645 0.930 . S
H657 C647 0.931 . S
H658 C648 0.930 . S
H659 C649 0.930 . S
Tb660 N691 2.660 . S
Tb660 N698 2.600 . S
Tb660 O704 2.546 . S
Tb660 O705 2.610 1_455 S
Tb660 O707 2.320 1_455 S
Tb660 O708 2.552 1_455 S
Tb660 O709 2.413 . S
Tb660 O711 2.362 1_556 S
Tb660 O712 2.421 . S
Tb660 C724 2.833 . S
C661 C664 1.432 . S
C661 C665 1.414 . S
C661 N668 1.359 . S
C662 C664 1.417 . S
C662 C666 1.432 . S
C662 C674 1.410 . S
C663 C665 1.444 . S
C663 C666 1.317 . S
C663 H686 0.929 . S
C664 C661 1.432 . S
C664 C662 1.417 . S
C664 N672 1.360 . S
C665 C661 1.414 . S
C665 C663 1.444 . S
C665 C670 1.385 . S
C666 C662 1.432 . S
C666 C663 1.317 . S
C666 H678 0.930 . S
C667 C669 1.392 . S
C667 C670 1.370 . S
C667 H679 0.931 . S
N668 C661 1.359 . S
N668 C669 1.327 . S
N668 Tb671 2.600 . S
C669 C667 1.392 . S
C669 N668 1.327 . S
C669 H676 0.930 . S
C670 C665 1.385 . S
C670 C667 1.370 . S
C670 H689 0.930 . S
Tb671 N668 2.600 . S
Tb671 N672 2.660 . S
Tb671 O705 2.362 1_554 S
Tb671 O706 2.421 . S
Tb671 O710 2.546 . S
Tb671 O711 2.610 1_655 S
Tb671 O713 2.320 1_655 S
Tb671 O714 2.552 1_655 S
Tb671 O715 2.413 . S
Tb671 C735 2.833 . S
N672 C664 1.360 . S
N672 Tb671 2.660 . S
N672 C673 1.305 . S
C673 N672 1.305 . S
C673 C675 1.407 . S
C673 H680 0.930 . S
C674 C662 1.410 . S
C674 C675 1.345 . S
C674 H682 0.930 . S
C675 C673 1.407 . S
C675 C674 1.345 . S
C675 H677 0.930 . S
H676 C669 0.930 . S
H677 C675 0.930 . S
H678 C666 0.930 . S
H679 C667 0.931 . S
H680 C673 0.930 . S
H681 C695 0.930 . S
H682 C674 0.930 . S
H683 C701 0.930 . S
H684 C692 0.930 . S
H685 C699 0.931 . S
H686 C663 0.929 . S
H687 C693 0.930 . S
H688 C726 0.930 . S
H689 C670 0.930 . S
H690 C725 0.929 . S
N691 Tb660 2.660 . S
N691 C692 1.305 . S
N691 C696 1.360 . S
C692 H684 0.930 . S
C692 N691 1.305 . S
C692 C695 1.407 . S
C693 H687 0.930 . S
C693 C694 1.410 . S
C693 C695 1.345 . S
C694 C693 1.410 . S
C694 C696 1.417 . S
C694 C726 1.432 . S
C695 H681 0.930 . S
C695 C692 1.407 . S
C695 C693 1.345 . S
C696 N691 1.360 . S
C696 C694 1.417 . S
C696 C700 1.432 . S
H697 C702 0.930 . S
N698 Tb660 2.600 . S
N698 C700 1.359 . S
N698 C701 1.327 . S
C699 H685 0.931 . S
C699 C701 1.392 . S
C699 C702 1.370 . S
C700 C696 1.432 . S
C700 N698 1.359 . S
C700 C703 1.414 . S
C701 H683 0.930 . S
C701 N698 1.327 . S
C701 C699 1.392 . S
C702 H697 0.930 . S
C702 C699 1.370 . S
C702 C703 1.385 . S
C703 C700 1.414 . S
C703 C702 1.385 . S
C703 C725 1.444 . S
O704 Tb660 2.546 . S
O704 C724 1.251 . S
O705 Tb660 2.610 1_655 S
O705 Tb671 2.362 1_556 S
O705 C716 1.283 . S
O706 Tb671 2.421 . S
O706 C723 1.262 1_554 S
O707 Tb660 2.320 1_655 S
O707 C723 1.260 . S
O708 Tb660 2.552 1_655 S
O708 C716 1.243 . S
O709 Tb660 2.413 . S
O709 C724 1.256 . S
O710 Tb671 2.546 . S
O710 C735 1.251 . S
O711 Tb660 2.362 1_554 S
O711 Tb671 2.610 1_455 S
O711 C727 1.283 . S
O712 Tb660 2.421 . S
O712 C734 1.262 1_556 S
O713 Tb671 2.320 1_455 S
O713 C734 1.260 . S
O714 Tb671 2.552 1_455 S
O714 C727 1.243 . S
O715 Tb671 2.413 . S
O715 C735 1.256 . S
C716 O705 1.283 . S
C716 O708 1.243 . S
C717 C719 1.382 1_455 S
C717 C721 1.393 . S
C717 C724 1.500 . S
C718 C719 1.400 . S
C718 C720 1.384 1_655 S
C719 C717 1.382 1_655 S
C719 C718 1.400 . S
C719 H736 0.930 . S
C720 C718 1.384 1_455 S
C720 C722 1.392 . S
C720 H737 0.931 . S
C721 C717 1.393 . S
C721 C722 1.401 . S
C721 H738 0.930 . S
C722 C720 1.392 . S
C722 C721 1.401 . S
C722 H739 0.930 . S
C723 O706 1.262 1_556 S
C723 O707 1.260 . S
C724 Tb660 2.833 . S
C724 O704 1.251 . S
C724 O709 1.256 . S
C724 C717 1.500 . S
C725 H690 0.929 . S
C725 C703 1.444 . S
C725 C726 1.317 . S
C726 H688 0.930 . S
C726 C694 1.432 . S
C726 C725 1.317 . S
C727 O711 1.283 . S
C727 O714 1.243 . S
C728 C729 1.382 1_655 S
C728 C732 1.393 . S
C728 C735 1.500 . S
C729 C728 1.382 1_455 S
C729 C730 1.400 . S
C729 H740 0.930 . S
C730 C729 1.400 . S
C730 C731 1.384 1_455 S
C731 C730 1.384 1_655 S
C731 C733 1.392 . S
C731 H741 0.931 . S
C732 C728 1.393 . S
C732 C733 1.401 . S
C732 H742 0.930 . S
C733 C731 1.392 . S
C733 C732 1.401 . S
C733 H743 0.930 . S
C734 O712 1.262 1_554 S
C734 O713 1.260 . S
C735 Tb671 2.833 . S
C735 O710 1.251 . S
C735 O715 1.256 . S
C735 C728 1.500 . S
H736 C719 0.930 . S
H737 C720 0.931 . S
H738 C721 0.930 . S
H739 C722 0.930 . S
H740 C729 0.930 . S
H741 C731 0.931 . S
H742 C732 0.930 . S
H743 C733 0.930 . S
Tb744 N775 2.660 . S
Tb744 N782 2.600 . S
Tb744 O788 2.546 . S
Tb744 O789 2.610 . S
Tb744 O791 2.320 . S
Tb744 O792 2.552 . S
Tb744 O793 2.413 . S
Tb744 O795 2.362 1_554 S
Tb744 O796 2.421 . S
Tb744 C808 2.833 . S
C745 C748 1.432 . S
C745 C749 1.414 . S
C745 N752 1.359 . S
C746 C748 1.417 . S
C746 C750 1.432 . S
C746 C758 1.410 . S
C747 C749 1.444 . S
C747 C750 1.317 . S
C747 H770 0.929 . S
C748 C745 1.432 . S
C748 C746 1.417 . S
C748 N756 1.360 . S
C749 C745 1.414 . S
C749 C747 1.444 . S
C749 C754 1.385 . S
C750 C746 1.432 . S
C750 C747 1.317 . S
C750 H762 0.930 . S
C751 C753 1.392 . S
C751 C754 1.370 . S
C751 H763 0.931 . S
N752 C745 1.359 . S
N752 C753 1.327 . S
N752 Tb755 2.600 . S
C753 C751 1.392 . S
C753 N752 1.327 . S
C753 H760 0.930 . S
C754 C749 1.385 . S
C754 C751 1.370 . S
C754 H773 0.930 . S
Tb755 N752 2.600 . S
Tb755 N756 2.660 . S
Tb755 O789 2.362 1_556 S
Tb755 O790 2.421 . S
Tb755 O794 2.546 . S
Tb755 O795 2.610 . S
Tb755 O797 2.320 . S
Tb755 O798 2.552 . S
Tb755 O799 2.413 . S
Tb755 C819 2.833 . S
N756 C748 1.360 . S
N756 Tb755 2.660 . S
N756 C757 1.305 . S
C757 N756 1.305 . S
C757 C759 1.407 . S
C757 H764 0.930 . S
C758 C746 1.410 . S
C758 C759 1.345 . S
C758 H766 0.930 . S
C759 C757 1.407 . S
C759 C758 1.345 . S
C759 H761 0.930 . S
H760 C753 0.930 . S
H761 C759 0.930 . S
H762 C750 0.930 . S
H763 C751 0.931 . S
H764 C757 0.930 . S
H765 C779 0.930 . S
H766 C758 0.930 . S
H767 C785 0.930 . S
H768 C776 0.930 . S
H769 C783 0.931 . S
H770 C747 0.929 . S
H771 C777 0.930 . S
H772 C810 0.930 . S
H773 C754 0.930 . S
H774 C809 0.929 . S
N775 Tb744 2.660 . S
N775 C776 1.305 . S
N775 C780 1.360 . S
C776 H768 0.930 . S
C776 N775 1.305 . S
C776 C779 1.407 . S
C777 H771 0.930 . S
C777 C778 1.410 . S
C777 C779 1.345 . S
C778 C777 1.410 . S
C778 C780 1.417 . S
C778 C810 1.432 . S
C779 H765 0.930 . S
C779 C776 1.407 . S
C779 C777 1.345 . S
C780 N775 1.360 . S
C780 C778 1.417 . S
C780 C784 1.432 . S
H781 C786 0.930 . S
N782 Tb744 2.600 . S
N782 C784 1.359 . S
N782 C785 1.327 . S
C783 H769 0.931 . S
C783 C785 1.392 . S
C783 C786 1.370 . S
C784 C780 1.432 . S
C784 N782 1.359 . S
C784 C787 1.414 . S
C785 H767 0.930 . S
C785 N782 1.327 . S
C785 C783 1.392 . S
C786 H781 0.930 . S
C786 C783 1.370 . S
C786 C787 1.385 . S
C787 C784 1.414 . S
C787 C786 1.385 . S
C787 C809 1.444 . S
O788 Tb744 2.546 . S
O788 C808 1.251 . S
O789 Tb744 2.610 . S
O789 Tb755 2.362 1_554 S
O789 C800 1.283 . S
O790 Tb755 2.421 . S
O790 C807 1.262 1_556 S
O791 Tb744 2.320 . S
O791 C807 1.260 . S
O792 Tb744 2.552 . S
O792 C800 1.243 . S
O793 Tb744 2.413 . S
O793 C808 1.256 . S
O794 Tb755 2.546 . S
O794 C819 1.251 . S
O795 Tb744 2.362 1_556 S
O795 Tb755 2.610 . S
O795 C811 1.283 . S
O796 Tb744 2.421 . S
O796 C818 1.262 1_554 S
O797 Tb755 2.320 . S
O797 C818 1.260 . S
O798 Tb755 2.552 . S
O798 C811 1.243 . S
O799 Tb755 2.413 . S
O799 C819 1.256 . S
C800 O789 1.283 . S
C800 O792 1.243 . S
C801 C803 1.382 . S
C801 C805 1.393 . S
C801 C808 1.500 . S
C802 C803 1.400 . S
C802 C804 1.384 . S
C803 C801 1.382 . S
C803 C802 1.400 . S
C803 H820 0.930 . S
C804 C802 1.384 . S
C804 C806 1.392 . S
C804 H821 0.931 . S
C805 C801 1.393 . S
C805 C806 1.401 . S
C805 H822 0.930 . S
C806 C804 1.392 . S
C806 C805 1.401 . S
C806 H823 0.930 . S
C807 O790 1.262 1_554 S
C807 O791 1.260 . S
C808 Tb744 2.833 . S
C808 O788 1.251 . S
C808 O793 1.256 . S
C808 C801 1.500 . S
C809 H774 0.929 . S
C809 C787 1.444 . S
C809 C810 1.317 . S
C810 H772 0.930 . S
C810 C778 1.432 . S
C810 C809 1.317 . S
C811 O795 1.283 . S
C811 O798 1.243 . S
C812 C813 1.382 . S
C812 C816 1.393 . S
C812 C819 1.500 . S
C813 C812 1.382 . S
C813 C814 1.400 . S
C813 H824 0.930 . S
C814 C813 1.400 . S
C814 C815 1.384 . S
C815 C814 1.384 . S
C815 C817 1.392 . S
C815 H825 0.931 . S
C816 C812 1.393 . S
C816 C817 1.401 . S
C816 H826 0.930 . S
C817 C815 1.392 . S
C817 C816 1.401 . S
C817 H827 0.930 . S
C818 O796 1.262 1_556 S
C818 O797 1.260 . S
C819 Tb755 2.833 . S
C819 O794 1.251 . S
C819 O799 1.256 . S
C819 C812 1.500 . S
H820 C803 0.930 . S
H821 C804 0.931 . S
H822 C805 0.930 . S
H823 C806 0.930 . S
H824 C813 0.930 . S
H825 C815 0.931 . S
H826 C816 0.930 . S
H827 C817 0.930 . S
Tb828 N859 2.660 . S
Tb828 N866 2.600 . S
Tb828 O872 2.546 . S
Tb828 O873 2.610 . S
Tb828 O875 2.320 . S
Tb828 O876 2.552 . S
Tb828 O877 2.413 . S
Tb828 O879 2.362 . S
Tb828 O880 2.421 . S
Tb828 C892 2.833 . S
C829 C832 1.432 . S
C829 C833 1.414 . S
C829 N836 1.359 . S
C830 C832 1.417 . S
C830 C834 1.432 . S
C830 C842 1.410 . S
C831 C833 1.444 . S
C831 C834 1.317 . S
C831 H854 0.929 . S
C832 C829 1.432 . S
C832 C830 1.417 . S
C832 N840 1.360 . S
C833 C829 1.414 . S
C833 C831 1.444 . S
C833 C838 1.385 . S
C834 C830 1.432 . S
C834 C831 1.317 . S
C834 H846 0.930 . S
C835 C837 1.392 . S
C835 C838 1.370 . S
C835 H847 0.931 . S
N836 C829 1.359 . S
N836 C837 1.327 . S
N836 Tb839 2.600 . S
C837 C835 1.392 . S
C837 N836 1.327 . S
C837 H844 0.930 . S
C838 C833 1.385 . S
C838 C835 1.370 . S
C838 H857 0.930 . S
Tb839 N836 2.600 . S
Tb839 N840 2.660 . S
Tb839 O873 2.362 . S
Tb839 O874 2.421 . S
Tb839 O878 2.546 . S
Tb839 O879 2.610 . S
Tb839 O881 2.320 . S
Tb839 O882 2.552 . S
Tb839 O883 2.413 . S
Tb839 C903 2.833 . S
N840 C832 1.360 . S
N840 Tb839 2.660 . S
N840 C841 1.305 . S
C841 N840 1.305 . S
C841 C843 1.407 . S
C841 H848 0.930 . S
C842 C830 1.410 . S
C842 C843 1.345 . S
C842 H850 0.930 . S
C843 C841 1.407 . S
C843 C842 1.345 . S
C843 H845 0.930 . S
H844 C837 0.930 . S
H845 C843 0.930 . S
H846 C834 0.930 . S
H847 C835 0.931 . S
H848 C841 0.930 . S
H849 C863 0.930 . S
H850 C842 0.930 . S
H851 C869 0.930 . S
H852 C860 0.930 . S
H853 C867 0.931 . S
H854 C831 0.929 . S
H855 C861 0.930 1_655 S
H856 C894 0.930 1_655 S
H857 C838 0.930 . S
H858 C893 0.929 . S
N859 Tb828 2.660 . S
N859 C860 1.305 . S
N859 C864 1.360 . S
C860 H852 0.930 . S
C860 N859 1.305 . S
C860 C863 1.407 . S
C861 H855 0.930 1_455 S
C861 C862 1.410 . S
C861 C863 1.345 . S
C862 C861 1.410 . S
C862 C864 1.417 . S
C862 C894 1.432 . S
C863 H849 0.930 . S
C863 C860 1.407 . S
C863 C861 1.345 . S
C864 N859 1.360 . S
C864 C862 1.417 . S
C864 C868 1.432 . S
H865 C870 0.930 . S
N866 Tb828 2.600 . S
N866 C868 1.359 . S
N866 C869 1.327 . S
C867 H853 0.931 . S
C867 C869 1.392 . S
C867 C870 1.370 . S
C868 C864 1.432 . S
C868 N866 1.359 . S
C868 C871 1.414 . S
C869 H851 0.930 . S
C869 N866 1.327 . S
C869 C867 1.392 . S
C870 H865 0.930 . S
C870 C867 1.370 . S
C870 C871 1.385 . S
C871 C868 1.414 . S
C871 C870 1.385 . S
C871 C893 1.444 . S
O872 Tb828 2.546 . S
O872 C892 1.251 . S
O873 Tb828 2.610 . S
O873 Tb839 2.362 . S
O873 C884 1.283 . S
O874 Tb839 2.421 . S
O874 C891 1.262 . S
O875 Tb828 2.320 . S
O875 C891 1.260 . S
O876 Tb828 2.552 . S
O876 C884 1.243 . S
O877 Tb828 2.413 . S
O877 C892 1.256 . S
O878 Tb839 2.546 . S
O878 C903 1.251 . S
O879 Tb828 2.362 . S
O879 Tb839 2.610 . S
O879 C895 1.283 . S
O880 Tb828 2.421 . S
O880 C902 1.262 . S
O881 Tb839 2.320 . S
O881 C902 1.260 . S
O882 Tb839 2.552 . S
O882 C895 1.243 . S
O883 Tb839 2.413 . S
O883 C903 1.256 . S
C884 O873 1.283 . S
C884 O876 1.243 . S
C885 C887 1.382 . S
C885 C889 1.393 . S
C885 C892 1.500 . S
C886 C887 1.400 . S
C886 C888 1.384 . S
C887 C885 1.382 . S
C887 C886 1.400 . S
C887 H904 0.930 . S
C888 C886 1.384 . S
C888 C890 1.392 . S
C888 H905 0.931 . S
C889 C885 1.393 . S
C889 C890 1.401 . S
C889 H906 0.930 . S
C890 C888 1.392 . S
C890 C889 1.401 . S
C890 H907 0.930 . S
C891 O874 1.262 . S
C891 O875 1.260 . S
C892 Tb828 2.833 . S
C892 O872 1.251 . S
C892 O877 1.256 . S
C892 C885 1.500 . S
C893 H858 0.929 . S
C893 C871 1.444 . S
C893 C894 1.317 . S
C894 H856 0.930 1_455 S
C894 C862 1.432 . S
C894 C893 1.317 . S
C895 O879 1.283 . S
C895 O882 1.243 . S
C896 C897 1.382 . S
C896 C900 1.393 . S
C896 C903 1.500 . S
C897 C896 1.382 . S
C897 C898 1.400 . S
C897 H908 0.930 . S
C898 C897 1.400 . S
C898 C899 1.384 . S
C899 C898 1.384 . S
C899 C901 1.392 . S
C899 H909 0.931 . S
C900 C896 1.393 . S
C900 C901 1.401 . S
C900 H910 0.930 . S
C901 C899 1.392 . S
C901 C900 1.401 . S
C901 H911 0.930 . S
C902 O880 1.262 . S
C902 O881 1.260 . S
C903 Tb839 2.833 . S
C903 O878 1.251 . S
C903 O883 1.256 . S
C903 C896 1.500 . S
H904 C887 0.930 . S
H905 C888 0.931 . S
H906 C889 0.930 . S
H907 C890 0.930 . S
H908 C897 0.930 . S
H909 C899 0.931 . S
H910 C900 0.930 . S
H911 C901 0.930 . S
Tb912 N943 2.660 . S
Tb912 N950 2.600 . S
Tb912 O956 2.546 . S
Tb912 O957 2.610 . S
Tb912 O959 2.320 . S
Tb912 O960 2.552 . S
Tb912 O961 2.413 . S
Tb912 O963 2.362 . S
Tb912 O964 2.421 . S
Tb912 C976 2.833 . S
C913 C916 1.432 . S
C913 C917 1.414 . S
C913 N920 1.359 . S
C914 C916 1.417 . S
C914 C918 1.432 . S
C914 C926 1.410 . S
C915 C917 1.444 . S
C915 C918 1.317 . S
C915 H938 0.929 . S
C916 C913 1.432 . S
C916 C914 1.417 . S
C916 N924 1.360 . S
C917 C913 1.414 . S
C917 C915 1.444 . S
C917 C922 1.385 . S
C918 C914 1.432 . S
C918 C915 1.317 . S
C918 H930 0.930 . S
C919 C921 1.392 . S
C919 C922 1.370 . S
C919 H931 0.931 . S
N920 C913 1.359 . S
N920 C921 1.327 . S
N920 Tb923 2.600 . S
C921 C919 1.392 . S
C921 N920 1.327 . S
C921 H928 0.930 . S
C922 C917 1.385 . S
C922 C919 1.370 . S
C922 H941 0.930 . S
Tb923 N920 2.600 . S
Tb923 N924 2.660 . S
Tb923 O957 2.362 . S
Tb923 O958 2.421 . S
Tb923 O962 2.546 . S
Tb923 O963 2.610 . S
Tb923 O965 2.320 . S
Tb923 O966 2.552 . S
Tb923 O967 2.413 . S
Tb923 C987 2.833 . S
N924 C916 1.360 . S
N924 Tb923 2.660 . S
N924 C925 1.305 . S
C925 N924 1.305 . S
C925 C927 1.407 . S
C925 H932 0.930 . S
C926 C914 1.410 . S
C926 C927 1.345 . S
C926 H934 0.930 . S
C927 C925 1.407 . S
C927 C926 1.345 . S
C927 H929 0.930 . S
H928 C921 0.930 . S
H929 C927 0.930 . S
H930 C918 0.930 . S
H931 C919 0.931 . S
H932 C925 0.930 . S
H933 C947 0.930 . S
H934 C926 0.930 . S
H935 C953 0.930 . S
H936 C944 0.930 . S
H937 C951 0.931 . S
H938 C915 0.929 . S
H939 C945 0.930 . S
H940 C978 0.930 . S
H941 C922 0.930 . S
H942 C977 0.929 . S
N943 Tb912 2.660 . S
N943 C944 1.305 . S
N943 C948 1.360 . S
C944 H936 0.930 . S
C944 N943 1.305 . S
C944 C947 1.407 . S
C945 H939 0.930 . S
C945 C946 1.410 . S
C945 C947 1.345 . S
C946 C945 1.410 . S
C946 C948 1.417 . S
C946 C978 1.432 . S
C947 H933 0.930 . S
C947 C944 1.407 . S
C947 C945 1.345 . S
C948 N943 1.360 . S
C948 C946 1.417 . S
C948 C952 1.432 . S
H949 C954 0.930 . S
N950 Tb912 2.600 . S
N950 C952 1.359 . S
N950 C953 1.327 . S
C951 H937 0.931 . S
C951 C953 1.392 . S
C951 C954 1.370 . S
C952 C948 1.432 . S
C952 N950 1.359 . S
C952 C955 1.414 . S
C953 H935 0.930 . S
C953 N950 1.327 . S
C953 C951 1.392 . S
C954 H949 0.930 . S
C954 C951 1.370 . S
C954 C955 1.385 . S
C955 C952 1.414 . S
C955 C954 1.385 . S
C955 C977 1.444 . S
O956 Tb912 2.546 . S
O956 C976 1.251 . S
O957 Tb912 2.610 . S
O957 Tb923 2.362 . S
O957 C968 1.283 . S
O958 Tb923 2.421 . S
O958 C975 1.262 . S
O959 Tb912 2.320 . S
O959 C975 1.260 . S
O960 Tb912 2.552 . S
O960 C968 1.243 . S
O961 Tb912 2.413 . S
O961 C976 1.256 . S
O962 Tb923 2.546 . S
O962 C987 1.251 . S
O963 Tb912 2.362 . S
O963 Tb923 2.610 . S
O963 C979 1.283 . S
O964 Tb912 2.421 . S
O964 C986 1.262 . S
O965 Tb923 2.320 . S
O965 C986 1.260 . S
O966 Tb923 2.552 . S
O966 C979 1.243 . S
O967 Tb923 2.413 . S
O967 C987 1.256 . S
C968 O957 1.283 . S
C968 O960 1.243 . S
C969 C971 1.382 . S
C969 C973 1.393 . S
C969 C976 1.500 . S
C970 C971 1.400 . S
C970 C972 1.384 . S
C971 C969 1.382 . S
C971 C970 1.400 . S
C971 H988 0.930 . S
C972 C970 1.384 . S
C972 C974 1.392 . S
C972 H989 0.931 . S
C973 C969 1.393 . S
C973 C974 1.401 . S
C973 H990 0.930 . S
C974 C972 1.392 . S
C974 C973 1.401 . S
C974 H991 0.930 . S
C975 O958 1.262 . S
C975 O959 1.260 . S
C976 Tb912 2.833 . S
C976 O956 1.251 . S
C976 O961 1.256 . S
C976 C969 1.500 . S
C977 H942 0.929 . S
C977 C955 1.444 . S
C977 C978 1.317 . S
C978 H940 0.930 . S
C978 C946 1.432 . S
C978 C977 1.317 . S
C979 O963 1.283 . S
C979 O966 1.243 . S
C980 C981 1.382 . S
C980 C984 1.393 . S
C980 C987 1.500 . S
C981 C980 1.382 . S
C981 C982 1.400 . S
C981 H992 0.930 . S
C982 C981 1.400 . S
C982 C983 1.384 . S
C983 C982 1.384 . S
C983 C985 1.392 . S
C983 H993 0.931 . S
C984 C980 1.393 . S
C984 C985 1.401 . S
C984 H994 0.930 . S
C985 C983 1.392 . S
C985 C984 1.401 . S
C985 H995 0.930 . S
C986 O964 1.262 . S
C986 O965 1.260 . S
C987 Tb923 2.833 . S
C987 O962 1.251 . S
C987 O967 1.256 . S
C987 C980 1.500 . S
H988 C971 0.930 . S
H989 C972 0.931 . S
H990 C973 0.930 . S
H991 C974 0.930 . S
H992 C981 0.930 . S
H993 C983 0.931 . S
H994 C984 0.930 . S
H995 C985 0.930 . S
Tb996 N1027 2.660 . S
Tb996 N1034 2.600 . S
Tb996 O1040 2.546 . S
Tb996 O1041 2.610 . S
Tb996 O1043 2.320 . S
Tb996 O1044 2.552 . S
Tb996 O1045 2.413 . S
Tb996 O1047 2.362 . S
Tb996 O1048 2.421 . S
Tb996 C1060 2.833 . S
C997 C1000 1.432 . S
C997 C1001 1.414 . S
C997 N1004 1.359 . S
C998 C1000 1.417 . S
C998 C1002 1.432 . S
C998 C1010 1.410 . S
C999 C1001 1.444 . S
C999 C1002 1.317 . S
C999 H1022 0.929 . S
C1000 C997 1.432 . S
C1000 C998 1.417 . S
C1000 N1008 1.360 . S
C1001 C997 1.414 . S
C1001 C999 1.444 . S
C1001 C1006 1.385 . S
C1002 C998 1.432 . S
C1002 C999 1.317 . S
C1002 H1014 0.930 1_455 S
C1003 C1005 1.392 . S
C1003 C1006 1.370 . S
C1003 H1015 0.931 . S
N1004 C997 1.359 . S
N1004 C1005 1.327 . S
N1004 Tb1007 2.600 . S
C1005 C1003 1.392 . S
C1005 N1004 1.327 . S
C1005 H1012 0.930 . S
C1006 C1001 1.385 . S
C1006 C1003 1.370 . S
C1006 H1025 0.930 . S
Tb1007 N1004 2.600 . S
Tb1007 N1008 2.660 . S
Tb1007 O1041 2.362 . S
Tb1007 O1042 2.421 . S
Tb1007 O1046 2.546 . S
Tb1007 O1047 2.610 . S
Tb1007 O1049 2.320 . S
Tb1007 O1050 2.552 . S
Tb1007 O1051 2.413 . S
Tb1007 C1071 2.833 . S
N1008 C1000 1.360 . S
N1008 Tb1007 2.660 . S
N1008 C1009 1.305 . S
C1009 N1008 1.305 . S
C1009 C1011 1.407 . S
C1009 H1016 0.930 . S
C1010 C998 1.410 . S
C1010 C1011 1.345 . S
C1010 H1018 0.930 1_455 S
C1011 C1009 1.407 . S
C1011 C1010 1.345 . S
C1011 H1013 0.930 . S
H1012 C1005 0.930 . S
H1013 C1011 0.930 . S
H1014 C1002 0.930 1_655 S
H1015 C1003 0.931 . S
H1016 C1009 0.930 . S
H1017 C1031 0.930 . S
H1018 C1010 0.930 1_655 S
H1019 C1037 0.930 . S
H1020 C1028 0.930 . S
H1021 C1035 0.931 . S
H1022 C999 0.929 . S
H1023 C1029 0.930 . S
H1024 C1062 0.930 . S
H1025 C1006 0.930 . S
H1026 C1061 0.929 . S
N1027 Tb996 2.660 . S
N1027 C1028 1.305 . S
N1027 C1032 1.360 . S
C1028 H1020 0.930 . S
C1028 N1027 1.305 . S
C1028 C1031 1.407 . S
C1029 H1023 0.930 . S
C1029 C1030 1.410 . S
C1029 C1031 1.345 . S
C1030 C1029 1.410 . S
C1030 C1032 1.417 . S
C1030 C1062 1.432 . S
C1031 H1017 0.930 . S
C1031 C1028 1.407 . S
C1031 C1029 1.345 . S
C1032 N1027 1.360 . S
C1032 C1030 1.417 . S
C1032 C1036 1.432 . S
H1033 C1038 0.930 . S
N1034 Tb996 2.600 . S
N1034 C1036 1.359 . S
N1034 C1037 1.327 . S
C1035 H1021 0.931 . S
C1035 C1037 1.392 . S
C1035 C1038 1.370 . S
C1036 C1032 1.432 . S
C1036 N1034 1.359 . S
C1036 C1039 1.414 . S
C1037 H1019 0.930 . S
C1037 N1034 1.327 . S
C1037 C1035 1.392 . S
C1038 H1033 0.930 . S
C1038 C1035 1.370 . S
C1038 C1039 1.385 . S
C1039 C1036 1.414 . S
C1039 C1038 1.385 . S
C1039 C1061 1.444 . S
O1040 Tb996 2.546 . S
O1040 C1060 1.251 . S
O1041 Tb996 2.610 . S
O1041 Tb1007 2.362 . S
O1041 C1052 1.283 . S
O1042 Tb1007 2.421 . S
O1042 C1059 1.262 . S
O1043 Tb996 2.320 . S
O1043 C1059 1.260 . S
O1044 Tb996 2.552 . S
O1044 C1052 1.243 . S
O1045 Tb996 2.413 . S
O1045 C1060 1.256 . S
O1046 Tb1007 2.546 . S
O1046 C1071 1.251 . S
O1047 Tb996 2.362 . S
O1047 Tb1007 2.610 . S
O1047 C1063 1.283 . S
O1048 Tb996 2.421 . S
O1048 C1070 1.262 . S
O1049 Tb1007 2.320 . S
O1049 C1070 1.260 . S
O1050 Tb1007 2.552 . S
O1050 C1063 1.243 . S
O1051 Tb1007 2.413 . S
O1051 C1071 1.256 . S
C1052 O1041 1.283 . S
C1052 O1044 1.243 . S
C1053 C1055 1.382 . S
C1053 C1057 1.393 . S
C1053 C1060 1.500 . S
C1054 C1055 1.400 . S
C1054 C1056 1.384 . S
C1055 C1053 1.382 . S
C1055 C1054 1.400 . S
C1055 H1072 0.930 . S
C1056 C1054 1.384 . S
C1056 C1058 1.392 . S
C1056 H1073 0.931 . S
C1057 C1053 1.393 . S
C1057 C1058 1.401 . S
C1057 H1074 0.930 . S
C1058 C1056 1.392 . S
C1058 C1057 1.401 . S
C1058 H1075 0.930 . S
C1059 O1042 1.262 . S
C1059 O1043 1.260 . S
C1060 Tb996 2.833 . S
C1060 O1040 1.251 . S
C1060 O1045 1.256 . S
C1060 C1053 1.500 . S
C1061 H1026 0.929 . S
C1061 C1039 1.444 . S
C1061 C1062 1.317 . S
C1062 H1024 0.930 . S
C1062 C1030 1.432 . S
C1062 C1061 1.317 . S
C1063 O1047 1.283 . S
C1063 O1050 1.243 . S
C1064 C1065 1.382 . S
C1064 C1068 1.393 . S
C1064 C1071 1.500 . S
C1065 C1064 1.382 . S
C1065 C1066 1.400 . S
C1065 H1076 0.930 . S
C1066 C1065 1.400 . S
C1066 C1067 1.384 . S
C1067 C1066 1.384 . S
C1067 C1069 1.392 . S
C1067 H1077 0.931 . S
C1068 C1064 1.393 . S
C1068 C1069 1.401 . S
C1068 H1078 0.930 . S
C1069 C1067 1.392 . S
C1069 C1068 1.401 . S
C1069 H1079 0.930 . S
C1070 O1048 1.262 . S
C1070 O1049 1.260 . S
C1071 Tb1007 2.833 . S
C1071 O1046 1.251 . S
C1071 O1051 1.256 . S
C1071 C1064 1.500 . S
H1072 C1055 0.930 . S
H1073 C1056 0.931 . S
H1074 C1057 0.930 . S
H1075 C1058 0.930 . S
H1076 C1065 0.930 . S
H1077 C1067 0.931 . S
H1078 C1068 0.930 . S
H1079 C1069 0.930 . S
Tb1080 N1111 2.660 . S
Tb1080 N1118 2.600 . S
Tb1080 O1124 2.546 . S
Tb1080 O1125 2.610 . S
Tb1080 O1127 2.320 . S
Tb1080 O1128 2.552 . S
Tb1080 O1129 2.413 . S
Tb1080 O1131 2.362 . S
Tb1080 O1132 2.421 . S
Tb1080 C1144 2.833 . S
C1081 C1084 1.432 . S
C1081 C1085 1.414 . S
C1081 N1088 1.359 . S
C1082 C1084 1.417 . S
C1082 C1086 1.432 . S
C1082 C1094 1.410 . S
C1083 C1085 1.444 . S
C1083 C1086 1.317 . S
C1083 H1106 0.929 . S
C1084 C1081 1.432 . S
C1084 C1082 1.417 . S
C1084 N1092 1.360 . S
C1085 C1081 1.414 . S
C1085 C1083 1.444 . S
C1085 C1090 1.385 . S
C1086 C1082 1.432 . S
C1086 C1083 1.317 . S
C1086 H1098 0.930 1_655 S
C1087 C1089 1.392 . S
C1087 C1090 1.370 . S
C1087 H1099 0.931 . S
N1088 C1081 1.359 . S
N1088 C1089 1.327 . S
N1088 Tb1091 2.600 . S
C1089 C1087 1.392 . S
C1089 N1088 1.327 . S
C1089 H1096 0.930 . S
C1090 C1085 1.385 . S
C1090 C1087 1.370 . S
C1090 H1109 0.930 . S
Tb1091 N1088 2.600 . S
Tb1091 N1092 2.660 . S
Tb1091 O1125 2.362 . S
Tb1091 O1126 2.421 . S
Tb1091 O1130 2.546 . S
Tb1091 O1131 2.610 . S
Tb1091 O1133 2.320 . S
Tb1091 O1134 2.552 . S
Tb1091 O1135 2.413 . S
Tb1091 C1155 2.833 . S
N1092 C1084 1.360 . S
N1092 Tb1091 2.660 . S
N1092 C1093 1.305 . S
C1093 N1092 1.305 . S
C1093 C1095 1.407 . S
C1093 H1100 0.930 . S
C1094 C1082 1.410 . S
C1094 C1095 1.345 . S
C1094 H1102 0.930 1_655 S
C1095 C1093 1.407 . S
C1095 C1094 1.345 . S
C1095 H1097 0.930 . S
H1096 C1089 0.930 . S
H1097 C1095 0.930 . S
H1098 C1086 0.930 1_455 S
H1099 C1087 0.931 . S
H1100 C1093 0.930 . S
H1101 C1115 0.930 . S
H1102 C1094 0.930 1_455 S
H1103 C1121 0.930 . S
H1104 C1112 0.930 . S
H1105 C1119 0.931 . S
H1106 C1083 0.929 . S
H1107 C1113 0.930 . S
H1108 C1146 0.930 . S
H1109 C1090 0.930 . S
H1110 C1145 0.929 . S
N1111 Tb1080 2.660 . S
N1111 C1112 1.305 . S
N1111 C1116 1.360 . S
C1112 H1104 0.930 . S
C1112 N1111 1.305 . S
C1112 C1115 1.407 . S
C1113 H1107 0.930 . S
C1113 C1114 1.410 . S
C1113 C1115 1.345 . S
C1114 C1113 1.410 . S
C1114 C1116 1.417 . S
C1114 C1146 1.432 . S
C1115 H1101 0.930 . S
C1115 C1112 1.407 . S
C1115 C1113 1.345 . S
C1116 N1111 1.360 . S
C1116 C1114 1.417 . S
C1116 C1120 1.432 . S
H1117 C1122 0.930 . S
N1118 Tb1080 2.600 . S
N1118 C1120 1.359 . S
N1118 C1121 1.327 . S
C1119 H1105 0.931 . S
C1119 C1121 1.392 . S
C1119 C1122 1.370 . S
C1120 C1116 1.432 . S
C1120 N1118 1.359 . S
C1120 C1123 1.414 . S
C1121 H1103 0.930 . S
C1121 N1118 1.327 . S
C1121 C1119 1.392 . S
C1122 H1117 0.930 . S
C1122 C1119 1.370 . S
C1122 C1123 1.385 . S
C1123 C1120 1.414 . S
C1123 C1122 1.385 . S
C1123 C1145 1.444 . S
O1124 Tb1080 2.546 . S
O1124 C1144 1.251 . S
O1125 Tb1080 2.610 . S
O1125 Tb1091 2.362 . S
O1125 C1136 1.283 . S
O1126 Tb1091 2.421 . S
O1126 C1143 1.262 . S
O1127 Tb1080 2.320 . S
O1127 C1143 1.260 . S
O1128 Tb1080 2.552 . S
O1128 C1136 1.243 . S
O1129 Tb1080 2.413 . S
O1129 C1144 1.256 . S
O1130 Tb1091 2.546 . S
O1130 C1155 1.251 . S
O1131 Tb1080 2.362 . S
O1131 Tb1091 2.610 . S
O1131 C1147 1.283 . S
O1132 Tb1080 2.421 . S
O1132 C1154 1.262 . S
O1133 Tb1091 2.320 . S
O1133 C1154 1.260 . S
O1134 Tb1091 2.552 . S
O1134 C1147 1.243 . S
O1135 Tb1091 2.413 . S
O1135 C1155 1.256 . S
C1136 O1125 1.283 . S
C1136 O1128 1.243 . S
C1137 C1139 1.382 . S
C1137 C1141 1.393 . S
C1137 C1144 1.500 . S
C1138 C1139 1.400 . S
C1138 C1140 1.384 . S
C1139 C1137 1.382 . S
C1139 C1138 1.400 . S
C1139 H1156 0.930 . S
C1140 C1138 1.384 . S
C1140 C1142 1.392 . S
C1140 H1157 0.931 . S
C1141 C1137 1.393 . S
C1141 C1142 1.401 . S
C1141 H1158 0.930 . S
C1142 C1140 1.392 . S
C1142 C1141 1.401 . S
C1142 H1159 0.930 . S
C1143 O1126 1.262 . S
C1143 O1127 1.260 . S
C1144 Tb1080 2.833 . S
C1144 O1124 1.251 . S
C1144 O1129 1.256 . S
C1144 C1137 1.500 . S
C1145 H1110 0.929 . S
C1145 C1123 1.444 . S
C1145 C1146 1.317 . S
C1146 H1108 0.930 . S
C1146 C1114 1.432 . S
C1146 C1145 1.317 . S
C1147 O1131 1.283 . S
C1147 O1134 1.243 . S
C1148 C1149 1.382 . S
C1148 C1152 1.393 . S
C1148 C1155 1.500 . S
C1149 C1148 1.382 . S
C1149 C1150 1.400 . S
C1149 H1160 0.930 . S
C1150 C1149 1.400 . S
C1150 C1151 1.384 . S
C1151 C1150 1.384 . S
C1151 C1153 1.392 . S
C1151 H1161 0.931 . S
C1152 C1148 1.393 . S
C1152 C1153 1.401 . S
C1152 H1162 0.930 . S
C1153 C1151 1.392 . S
C1153 C1152 1.401 . S
C1153 H1163 0.930 . S
C1154 O1132 1.262 . S
C1154 O1133 1.260 . S
C1155 Tb1091 2.833 . S
C1155 O1130 1.251 . S
C1155 O1135 1.256 . S
C1155 C1148 1.500 . S
H1156 C1139 0.930 . S
H1157 C1140 0.931 . S
H1158 C1141 0.930 . S
H1159 C1142 0.930 . S
H1160 C1149 0.930 . S
H1161 C1151 0.931 . S
H1162 C1152 0.930 . S
H1163 C1153 0.930 . S
Tb1164 N1195 2.660 . S
Tb1164 N1202 2.600 . S
Tb1164 O1208 2.546 . S
Tb1164 O1209 2.610 . S
Tb1164 O1211 2.320 . S
Tb1164 O1212 2.552 . S
Tb1164 O1213 2.413 . S
Tb1164 O1215 2.362 . S
Tb1164 O1216 2.421 . S
Tb1164 C1228 2.833 . S
C1165 C1168 1.432 . S
C1165 C1169 1.414 . S
C1165 N1172 1.359 . S
C1166 C1168 1.417 . S
C1166 C1170 1.432 . S
C1166 C1178 1.410 . S
C1167 C1169 1.444 . S
C1167 C1170 1.317 . S
C1167 H1190 0.929 . S
C1168 C1165 1.432 . S
C1168 C1166 1.417 . S
C1168 N1176 1.360 . S
C1169 C1165 1.414 . S
C1169 C1167 1.444 . S
C1169 C1174 1.385 . S
C1170 C1166 1.432 . S
C1170 C1167 1.317 . S
C1170 H1182 0.930 . S
C1171 C1173 1.392 . S
C1171 C1174 1.370 . S
C1171 H1183 0.931 . S
N1172 C1165 1.359 . S
N1172 C1173 1.327 . S
N1172 Tb1175 2.600 . S
C1173 C1171 1.392 . S
C1173 N1172 1.327 . S
C1173 H1180 0.930 . S
C1174 C1169 1.385 . S
C1174 C1171 1.370 . S
C1174 H1193 0.930 . S
Tb1175 N1172 2.600 . S
Tb1175 N1176 2.660 . S
Tb1175 O1209 2.362 . S
Tb1175 O1210 2.421 . S
Tb1175 O1214 2.546 . S
Tb1175 O1215 2.610 . S
Tb1175 O1217 2.320 . S
Tb1175 O1218 2.552 . S
Tb1175 O1219 2.413 . S
Tb1175 C1239 2.833 . S
N1176 C1168 1.360 . S
N1176 Tb1175 2.660 . S
N1176 C1177 1.305 . S
C1177 N1176 1.305 . S
C1177 C1179 1.407 . S
C1177 H1184 0.930 . S
C1178 C1166 1.410 . S
C1178 C1179 1.345 . S
C1178 H1186 0.930 . S
C1179 C1177 1.407 . S
C1179 C1178 1.345 . S
C1179 H1181 0.930 . S
H1180 C1173 0.930 . S
H1181 C1179 0.930 . S
H1182 C1170 0.930 . S
H1183 C1171 0.931 . S
H1184 C1177 0.930 . S
H1185 C1199 0.930 . S
H1186 C1178 0.930 . S
H1187 C1205 0.930 . S
H1188 C1196 0.930 . S
H1189 C1203 0.931 . S
H1190 C1167 0.929 . S
H1191 C1197 0.930 . S
H1192 C1230 0.930 . S
H1193 C1174 0.930 . S
H1194 C1229 0.929 . S
N1195 Tb1164 2.660 . S
N1195 C1196 1.305 . S
N1195 C1200 1.360 . S
C1196 H1188 0.930 . S
C1196 N1195 1.305 . S
C1196 C1199 1.407 . S
C1197 H1191 0.930 . S
C1197 C1198 1.410 . S
C1197 C1199 1.345 . S
C1198 C1197 1.410 . S
C1198 C1200 1.417 . S
C1198 C1230 1.432 . S
C1199 H1185 0.930 . S
C1199 C1196 1.407 . S
C1199 C1197 1.345 . S
C1200 N1195 1.360 . S
C1200 C1198 1.417 . S
C1200 C1204 1.432 . S
H1201 C1206 0.930 . S
N1202 Tb1164 2.600 . S
N1202 C1204 1.359 . S
N1202 C1205 1.327 . S
C1203 H1189 0.931 . S
C1203 C1205 1.392 . S
C1203 C1206 1.370 . S
C1204 C1200 1.432 . S
C1204 N1202 1.359 . S
C1204 C1207 1.414 . S
C1205 H1187 0.930 . S
C1205 N1202 1.327 . S
C1205 C1203 1.392 . S
C1206 H1201 0.930 . S
C1206 C1203 1.370 . S
C1206 C1207 1.385 . S
C1207 C1204 1.414 . S
C1207 C1206 1.385 . S
C1207 C1229 1.444 . S
O1208 Tb1164 2.546 . S
O1208 C1228 1.251 . S
O1209 Tb1164 2.610 . S
O1209 Tb1175 2.362 . S
O1209 C1220 1.283 . S
O1210 Tb1175 2.421 . S
O1210 C1227 1.262 . S
O1211 Tb1164 2.320 . S
O1211 C1227 1.260 . S
O1212 Tb1164 2.552 . S
O1212 C1220 1.243 . S
O1213 Tb1164 2.413 . S
O1213 C1228 1.256 . S
O1214 Tb1175 2.546 . S
O1214 C1239 1.251 . S
O1215 Tb1164 2.362 . S
O1215 Tb1175 2.610 . S
O1215 C1231 1.283 . S
O1216 Tb1164 2.421 . S
O1216 C1238 1.262 . S
O1217 Tb1175 2.320 . S
O1217 C1238 1.260 . S
O1218 Tb1175 2.552 . S
O1218 C1231 1.243 . S
O1219 Tb1175 2.413 . S
O1219 C1239 1.256 . S
C1220 O1209 1.283 . S
C1220 O1212 1.243 . S
C1221 C1223 1.382 . S
C1221 C1225 1.393 . S
C1221 C1228 1.500 . S
C1222 C1223 1.400 . S
C1222 C1224 1.384 . S
C1223 C1221 1.382 . S
C1223 C1222 1.400 . S
C1223 H1240 0.930 . S
C1224 C1222 1.384 . S
C1224 C1226 1.392 . S
C1224 H1241 0.931 . S
C1225 C1221 1.393 . S
C1225 C1226 1.401 . S
C1225 H1242 0.930 . S
C1226 C1224 1.392 . S
C1226 C1225 1.401 . S
C1226 H1243 0.930 . S
C1227 O1210 1.262 . S
C1227 O1211 1.260 . S
C1228 Tb1164 2.833 . S
C1228 O1208 1.251 . S
C1228 O1213 1.256 . S
C1228 C1221 1.500 . S
C1229 H1194 0.929 . S
C1229 C1207 1.444 . S
C1229 C1230 1.317 . S
C1230 H1192 0.930 . S
C1230 C1198 1.432 . S
C1230 C1229 1.317 . S
C1231 O1215 1.283 . S
C1231 O1218 1.243 . S
C1232 C1233 1.382 . S
C1232 C1236 1.393 . S
C1232 C1239 1.500 . S
C1233 C1232 1.382 . S
C1233 C1234 1.400 . S
C1233 H1244 0.930 . S
C1234 C1233 1.400 . S
C1234 C1235 1.384 . S
C1235 C1234 1.384 . S
C1235 C1237 1.392 . S
C1235 H1245 0.931 . S
C1236 C1232 1.393 . S
C1236 C1237 1.401 . S
C1236 H1246 0.930 . S
C1237 C1235 1.392 . S
C1237 C1236 1.401 . S
C1237 H1247 0.930 . S
C1238 O1216 1.262 . S
C1238 O1217 1.260 . S
C1239 Tb1175 2.833 . S
C1239 O1214 1.251 . S
C1239 O1219 1.256 . S
C1239 C1232 1.500 . S
H1240 C1223 0.930 . S
H1241 C1224 0.931 . S
H1242 C1225 0.930 . S
H1243 C1226 0.930 . S
H1244 C1233 0.930 . S
H1245 C1235 0.931 . S
H1246 C1236 0.930 . S
H1247 C1237 0.930 . S
Tb1248 N1279 2.660 . S
Tb1248 N1286 2.600 . S
Tb1248 O1292 2.546 . S
Tb1248 O1293 2.610 . S
Tb1248 O1295 2.320 . S
Tb1248 O1296 2.552 . S
Tb1248 O1297 2.413 . S
Tb1248 O1299 2.362 . S
Tb1248 O1300 2.421 . S
Tb1248 C1312 2.833 . S
C1249 C1252 1.432 . S
C1249 C1253 1.414 . S
C1249 N1256 1.359 . S
C1250 C1252 1.417 . S
C1250 C1254 1.432 . S
C1250 C1262 1.410 . S
C1251 C1253 1.444 . S
C1251 C1254 1.317 . S
C1251 H1274 0.929 . S
C1252 C1249 1.432 . S
C1252 C1250 1.417 . S
C1252 N1260 1.360 . S
C1253 C1249 1.414 . S
C1253 C1251 1.444 . S
C1253 C1258 1.385 . S
C1254 C1250 1.432 . S
C1254 C1251 1.317 . S
C1254 H1266 0.930 . S
C1255 C1257 1.392 . S
C1255 C1258 1.370 . S
C1255 H1267 0.931 . S
N1256 C1249 1.359 . S
N1256 C1257 1.327 . S
N1256 Tb1259 2.600 . S
C1257 C1255 1.392 . S
C1257 N1256 1.327 . S
C1257 H1264 0.930 . S
C1258 C1253 1.385 . S
C1258 C1255 1.370 . S
C1258 H1277 0.930 . S
Tb1259 N1256 2.600 . S
Tb1259 N1260 2.660 . S
Tb1259 O1293 2.362 . S
Tb1259 O1294 2.421 . S
Tb1259 O1298 2.546 . S
Tb1259 O1299 2.610 . S
Tb1259 O1301 2.320 . S
Tb1259 O1302 2.552 . S
Tb1259 O1303 2.413 . S
Tb1259 C1323 2.833 . S
N1260 C1252 1.360 . S
N1260 Tb1259 2.660 . S
N1260 C1261 1.305 . S
C1261 N1260 1.305 . S
C1261 C1263 1.407 . S
C1261 H1268 0.930 . S
C1262 C1250 1.410 . S
C1262 C1263 1.345 . S
C1262 H1270 0.930 . S
C1263 C1261 1.407 . S
C1263 C1262 1.345 . S
C1263 H1265 0.930 . S
H1264 C1257 0.930 . S
H1265 C1263 0.930 . S
H1266 C1254 0.930 . S
H1267 C1255 0.931 . S
H1268 C1261 0.930 . S
H1269 C1283 0.930 . S
H1270 C1262 0.930 . S
H1271 C1289 0.930 . S
H1272 C1280 0.930 . S
H1273 C1287 0.931 . S
H1274 C1251 0.929 . S
H1275 C1281 0.930 1_455 S
H1276 C1314 0.930 1_455 S
H1277 C1258 0.930 . S
H1278 C1313 0.929 . S
N1279 Tb1248 2.660 . S
N1279 C1280 1.305 . S
N1279 C1284 1.360 . S
C1280 H1272 0.930 . S
C1280 N1279 1.305 . S
C1280 C1283 1.407 . S
C1281 H1275 0.930 1_655 S
C1281 C1282 1.410 . S
C1281 C1283 1.345 . S
C1282 C1281 1.410 . S
C1282 C1284 1.417 . S
C1282 C1314 1.432 . S
C1283 H1269 0.930 . S
C1283 C1280 1.407 . S
C1283 C1281 1.345 . S
C1284 N1279 1.360 . S
C1284 C1282 1.417 . S
C1284 C1288 1.432 . S
H1285 C1290 0.930 . S
N1286 Tb1248 2.600 . S
N1286 C1288 1.359 . S
N1286 C1289 1.327 . S
C1287 H1273 0.931 . S
C1287 C1289 1.392 . S
C1287 C1290 1.370 . S
C1288 C1284 1.432 . S
C1288 N1286 1.359 . S
C1288 C1291 1.414 . S
C1289 H1271 0.930 . S
C1289 N1286 1.327 . S
C1289 C1287 1.392 . S
C1290 H1285 0.930 . S
C1290 C1287 1.370 . S
C1290 C1291 1.385 . S
C1291 C1288 1.414 . S
C1291 C1290 1.385 . S
C1291 C1313 1.444 . S
O1292 Tb1248 2.546 . S
O1292 C1312 1.251 . S
O1293 Tb1248 2.610 . S
O1293 Tb1259 2.362 . S
O1293 C1304 1.283 . S
O1294 Tb1259 2.421 . S
O1294 C1311 1.262 . S
O1295 Tb1248 2.320 . S
O1295 C1311 1.260 . S
O1296 Tb1248 2.552 . S
O1296 C1304 1.243 . S
O1297 Tb1248 2.413 . S
O1297 C1312 1.256 . S
O1298 Tb1259 2.546 . S
O1298 C1323 1.251 . S
O1299 Tb1248 2.362 . S
O1299 Tb1259 2.610 . S
O1299 C1315 1.283 . S
O1300 Tb1248 2.421 . S
O1300 C1322 1.262 . S
O1301 Tb1259 2.320 . S
O1301 C1322 1.260 . S
O1302 Tb1259 2.552 . S
O1302 C1315 1.243 . S
O1303 Tb1259 2.413 . S
O1303 C1323 1.256 . S
C1304 O1293 1.283 . S
C1304 O1296 1.243 . S
C1305 C1307 1.382 . S
C1305 C1309 1.393 . S
C1305 C1312 1.500 . S
C1306 C1307 1.400 . S
C1306 C1308 1.384 . S
C1307 C1305 1.382 . S
C1307 C1306 1.400 . S
C1307 H1324 0.930 . S
C1308 C1306 1.384 . S
C1308 C1310 1.392 . S
C1308 H1325 0.931 . S
C1309 C1305 1.393 . S
C1309 C1310 1.401 . S
C1309 H1326 0.930 . S
C1310 C1308 1.392 . S
C1310 C1309 1.401 . S
C1310 H1327 0.930 . S
C1311 O1294 1.262 . S
C1311 O1295 1.260 . S
C1312 Tb1248 2.833 . S
C1312 O1292 1.251 . S
C1312 O1297 1.256 . S
C1312 C1305 1.500 . S
C1313 H1278 0.929 . S
C1313 C1291 1.444 . S
C1313 C1314 1.317 . S
C1314 H1276 0.930 1_655 S
C1314 C1282 1.432 . S
C1314 C1313 1.317 . S
C1315 O1299 1.283 . S
C1315 O1302 1.243 . S
C1316 C1317 1.382 . S
C1316 C1320 1.393 . S
C1316 C1323 1.500 . S
C1317 C1316 1.382 . S
C1317 C1318 1.400 . S
C1317 H1328 0.930 . S
C1318 C1317 1.400 . S
C1318 C1319 1.384 . S
C1319 C1318 1.384 . S
C1319 C1321 1.392 . S
C1319 H1329 0.931 . S
C1320 C1316 1.393 . S
C1320 C1321 1.401 . S
C1320 H1330 0.930 . S
C1321 C1319 1.392 . S
C1321 C1320 1.401 . S
C1321 H1331 0.930 . S
C1322 O1300 1.262 . S
C1322 O1301 1.260 . S
C1323 Tb1259 2.833 . S
C1323 O1298 1.251 . S
C1323 O1303 1.256 . S
C1323 C1316 1.500 . S
H1324 C1307 0.930 . S
H1325 C1308 0.931 . S
H1326 C1309 0.930 . S
H1327 C1310 0.930 . S
H1328 C1317 0.930 . S
H1329 C1319 0.931 . S
H1330 C1320 0.930 . S
H1331 C1321 0.930 . S
C1332 C1333 1.387 . S
C1332 H1336 0.950 . S
C1332 C1341 1.390 . S
C1333 C1332 1.387 . S
C1333 C1335 1.387 . S
H1334 C1341 0.950 . S
C1335 C1333 1.387 . S
C1335 C1337 1.390 . S
C1335 H1339 0.950 . S
H1336 C1332 0.950 . S
C1337 C1335 1.390 . S
C1337 C1338 1.387 . S
C1337 H1340 0.950 . S
C1338 C1337 1.387 . S
C1338 C1341 1.387 . S
H1339 C1335 0.950 . S
H1340 C1337 0.950 . S
C1341 C1332 1.390 . S
C1341 H1334 0.950 . S
C1341 C1338 1.387 . S
C1342 C1343 1.387 . S
C1342 H1346 0.950 . S
C1342 C1351 1.390 . S
C1343 C1342 1.387 . S
C1343 C1345 1.387 . S
H1344 C1351 0.950 . S
C1345 C1343 1.387 . S
C1345 C1347 1.390 . S
C1345 H1349 0.950 . S
H1346 C1342 0.950 . S
C1347 C1345 1.390 . S
C1347 C1348 1.387 . S
C1347 H1350 0.950 . S
C1348 C1347 1.387 . S
C1348 C1351 1.387 . S
H1349 C1345 0.950 . S
H1350 C1347 0.950 . S
C1351 C1342 1.390 . S
C1351 H1344 0.950 . S
C1351 C1348 1.387 . S
C1352 C1353 1.387 . S
C1352 H1356 0.950 . S
C1352 C1361 1.390 . S
C1353 C1352 1.387 . S
C1353 C1355 1.387 . S
H1354 C1361 0.950 . S
C1355 C1353 1.387 . S
C1355 C1357 1.390 . S
C1355 H1359 0.950 . S
H1356 C1352 0.950 . S
C1357 C1355 1.390 . S
C1357 C1358 1.387 . S
C1357 H1360 0.950 . S
C1358 C1357 1.387 . S
C1358 C1361 1.387 . S
H1359 C1355 0.950 . S
H1360 C1357 0.950 . S
C1361 C1352 1.390 . S
C1361 H1354 0.950 . S
C1361 C1358 1.387 . S
C1362 C1363 1.387 . S
C1362 H1366 0.950 . S
C1362 C1371 1.390 . S
C1363 C1362 1.387 . S
C1363 C1365 1.387 . S
H1364 C1371 0.950 . S
C1365 C1363 1.387 . S
C1365 C1367 1.390 . S
C1365 H1369 0.950 . S
H1366 C1362 0.950 . S
C1367 C1365 1.390 . S
C1367 C1368 1.387 . S
C1367 H1370 0.950 1_556 S
C1368 C1367 1.387 . S
C1368 C1371 1.387 . S
H1369 C1365 0.950 . S
H1370 C1367 0.950 1_554 S
C1371 C1362 1.390 . S
C1371 H1364 0.950 . S
C1371 C1368 1.387 . S
C1372 C1373 1.387 . S
C1372 H1376 0.950 . S
C1372 C1381 1.390 . S
C1373 C1372 1.387 . S
C1373 C1375 1.387 . S
H1374 C1381 0.950 . S
C1375 C1373 1.387 . S
C1375 C1377 1.390 . S
C1375 H1379 0.950 . S
H1376 C1372 0.950 . S
C1377 C1375 1.390 . S
C1377 C1378 1.387 . S
C1377 H1380 0.950 . S
C1378 C1377 1.387 . S
C1378 C1381 1.387 . S
H1379 C1375 0.950 . S
H1380 C1377 0.950 . S
C1381 C1372 1.390 . S
C1381 H1374 0.950 . S
C1381 C1378 1.387 . S
C1382 C1383 1.387 . S
C1382 H1386 0.950 1_556 S
C1382 C1391 1.390 . S
C1383 C1382 1.387 . S
C1383 C1385 1.387 . S
H1384 C1391 0.950 1_554 S
C1385 C1383 1.387 . S
C1385 C1387 1.390 . S
C1385 H1389 0.950 . S
H1386 C1382 0.950 1_554 S
C1387 C1385 1.390 . S
C1387 C1388 1.387 . S
C1387 H1390 0.950 . S
C1388 C1387 1.387 . S
C1388 C1391 1.387 . S
H1389 C1385 0.950 . S
H1390 C1387 0.950 . S
C1391 C1382 1.390 . S
C1391 H1384 0.950 1_556 S
C1391 C1388 1.387 . S
C1392 C1393 1.387 . S
C1392 H1396 0.950 . S
C1392 C1401 1.390 . S
C1393 C1392 1.387 . S
C1393 C1395 1.387 . S
H1394 C1401 0.950 . S
C1395 C1393 1.387 . S
C1395 C1397 1.390 . S
C1395 H1399 0.950 . S
H1396 C1392 0.950 . S
C1397 C1395 1.390 . S
C1397 C1398 1.387 . S
C1397 H1400 0.950 . S
C1398 C1397 1.387 . S
C1398 C1401 1.387 . S
H1399 C1395 0.950 . S
H1400 C1397 0.950 . S
C1401 C1392 1.390 . S
C1401 H1394 0.950 . S
C1401 C1398 1.387 . S
C1402 C1403 1.387 . S
C1402 H1406 0.950 . S
C1402 C1411 1.390 . S
C1403 C1402 1.387 . S
C1403 C1405 1.387 . S
H1404 C1411 0.950 . S
C1405 C1403 1.387 . S
C1405 C1407 1.390 . S
C1405 H1409 0.950 . S
H1406 C1402 0.950 . S
C1407 C1405 1.390 . S
C1407 C1408 1.387 . S
C1407 H1410 0.950 1_556 S
C1408 C1407 1.387 . S
C1408 C1411 1.387 . S
H1409 C1405 0.950 . S
H1410 C1407 0.950 1_554 S
C1411 C1402 1.390 . S
C1411 H1404 0.950 . S
C1411 C1408 1.387 . S
C1412 C1413 1.387 . S
C1412 H1416 0.950 . S
C1412 C1421 1.390 . S
C1413 C1412 1.387 . S
C1413 C1415 1.387 . S
H1414 C1421 0.950 . S
C1415 C1413 1.387 . S
C1415 C1417 1.390 . S
C1415 H1419 0.950 . S
H1416 C1412 0.950 . S
C1417 C1415 1.390 . S
C1417 C1418 1.387 . S
C1417 H1420 0.950 . S
C1418 C1417 1.387 . S
C1418 C1421 1.387 . S
H1419 C1415 0.950 . S
H1420 C1417 0.950 . S
C1421 C1412 1.390 . S
C1421 H1414 0.950 . S
C1421 C1418 1.387 . S
C1422 C1423 1.387 . S
C1422 H1426 0.950 . S
C1422 C1431 1.390 . S
C1423 C1422 1.387 . S
C1423 C1425 1.387 . S
H1424 C1431 0.950 . S
C1425 C1423 1.387 . S
C1425 C1427 1.390 . S
C1425 H1429 0.950 . S
H1426 C1422 0.950 . S
C1427 C1425 1.390 . S
C1427 C1428 1.387 . S
C1427 H1430 0.950 . S
C1428 C1427 1.387 . S
C1428 C1431 1.387 . S
H1429 C1425 0.950 . S
H1430 C1427 0.950 . S
C1431 C1422 1.390 . S
C1431 H1424 0.950 . S
C1431 C1428 1.387 . S
C1432 C1433 1.387 . S
C1432 H1436 0.950 . S
C1432 C1441 1.390 . S
C1433 C1432 1.387 . S
C1433 C1435 1.387 . S
H1434 C1441 0.950 . S
C1435 C1433 1.387 . S
C1435 C1437 1.390 . S
C1435 H1439 0.950 . S
H1436 C1432 0.950 . S
C1437 C1435 1.390 . S
C1437 C1438 1.387 . S
C1437 H1440 0.950 . S
C1438 C1437 1.387 . S
C1438 C1441 1.387 . S
H1439 C1435 0.950 . S
H1440 C1437 0.950 . S
C1441 C1432 1.390 . S
C1441 H1434 0.950 . S
C1441 C1438 1.387 . S
C1442 C1443 1.387 . S
C1442 H1446 0.950 . S
C1442 C1451 1.390 . S
C1443 C1442 1.387 . S
C1443 C1445 1.387 . S
H1444 C1451 0.950 . S
C1445 C1443 1.387 . S
C1445 C1447 1.390 . S
C1445 H1449 0.950 . S
H1446 C1442 0.950 . S
C1447 C1445 1.390 . S
C1447 C1448 1.387 . S
C1447 H1450 0.950 . S
C1448 C1447 1.387 . S
C1448 C1451 1.387 . S
H1449 C1445 0.950 . S
H1450 C1447 0.950 . S
C1451 C1442 1.390 . S
C1451 H1444 0.950 . S
C1451 C1448 1.387 . S
C1452 C1453 1.387 . S
C1452 H1456 0.950 . S
C1452 C1461 1.390 . S
C1453 C1452 1.387 . S
C1453 C1455 1.387 . S
H1454 C1461 0.950 . S
C1455 C1453 1.387 . S
C1455 C1457 1.390 . S
C1455 H1459 0.950 . S
H1456 C1452 0.950 . S
C1457 C1455 1.390 . S
C1457 C1458 1.387 . S
C1457 H1460 0.950 . S
C1458 C1457 1.387 . S
C1458 C1461 1.387 . S
H1459 C1455 0.950 . S
H1460 C1457 0.950 . S
C1461 C1452 1.390 . S
C1461 H1454 0.950 . S
C1461 C1458 1.387 . S
C1462 C1463 1.387 . S
C1462 H1466 0.950 . S
C1462 C1471 1.390 . S
C1463 C1462 1.387 . S
C1463 C1465 1.387 . S
H1464 C1471 0.950 . S
C1465 C1463 1.387 . S
C1465 C1467 1.390 . S
C1465 H1469 0.950 . S
H1466 C1462 0.950 . S
C1467 C1465 1.390 . S
C1467 C1468 1.387 . S
C1467 H1470 0.950 . S
C1468 C1467 1.387 . S
C1468 C1471 1.387 . S
H1469 C1465 0.950 . S
H1470 C1467 0.950 . S
C1471 C1462 1.390 . S
C1471 H1464 0.950 . S
C1471 C1468 1.387 . S
C1472 C1473 1.387 . S
C1472 H1476 0.950 . S
C1472 C1481 1.390 . S
C1473 C1472 1.387 . S
C1473 C1475 1.387 . S
H1474 C1481 0.950 . S
C1475 C1473 1.387 . S
C1475 C1477 1.390 . S
C1475 H1479 0.950 1_565 S
H1476 C1472 0.950 . S
C1477 C1475 1.390 . S
C1477 C1478 1.387 . S
C1477 H1480 0.950 . S
C1478 C1477 1.387 . S
C1478 C1481 1.387 . S
H1479 C1475 0.950 1_545 S
H1480 C1477 0.950 . S
C1481 C1472 1.390 . S
C1481 H1474 0.950 . S
C1481 C1478 1.387 . S
C1482 C1483 1.387 . S
C1482 H1486 0.950 . S
C1482 C1491 1.390 . S
C1483 C1482 1.387 . S
C1483 C1485 1.387 . S
H1484 C1491 0.950 . S
C1485 C1483 1.387 . S
C1485 C1487 1.390 . S
C1485 H1489 0.950 . S
H1486 C1482 0.950 . S
C1487 C1485 1.390 . S
C1487 C1488 1.387 . S
C1487 H1490 0.950 . S
C1488 C1487 1.387 . S
C1488 C1491 1.387 . S
H1489 C1485 0.950 . S
H1490 C1487 0.950 . S
C1491 C1482 1.390 . S
C1491 H1484 0.950 . S
C1491 C1488 1.387 . S
C1492 C1493 1.387 . S
C1492 H1496 0.950 . S
C1492 C1501 1.390 . S
C1493 C1492 1.387 . S
C1493 C1495 1.387 . S
H1494 C1501 0.950 . S
C1495 C1493 1.387 . S
C1495 C1497 1.390 . S
C1495 H1499 0.950 . S
H1496 C1492 0.950 . S
C1497 C1495 1.390 . S
C1497 C1498 1.387 . S
C1497 H1500 0.950 . S
C1498 C1497 1.387 . S
C1498 C1501 1.387 . S
H1499 C1495 0.950 . S
H1500 C1497 0.950 . S
C1501 C1492 1.390 . S
C1501 H1494 0.950 . S
C1501 C1498 1.387 . S
C1502 C1503 1.387 . S
C1502 H1506 0.950 . S
C1502 C1511 1.390 . S
C1503 C1502 1.387 . S
C1503 C1505 1.387 . S
H1504 C1511 0.950 . S
C1505 C1503 1.387 . S
C1505 C1507 1.390 . S
C1505 H1509 0.950 . S
H1506 C1502 0.950 . S
C1507 C1505 1.390 . S
C1507 C1508 1.387 . S
C1507 H1510 0.950 . S
C1508 C1507 1.387 . S
C1508 C1511 1.387 . S
H1509 C1505 0.950 . S
H1510 C1507 0.950 . S
C1511 C1502 1.390 . S
C1511 H1504 0.950 . S
C1511 C1508 1.387 . S
C1512 C1513 1.387 . S
C1512 H1516 0.950 . S
C1512 C1521 1.390 . S
C1513 C1512 1.387 . S
C1513 C1515 1.387 . S
H1514 C1521 0.950 . S
C1515 C1513 1.387 . S
C1515 C1517 1.390 . S
C1515 H1519 0.950 . S
H1516 C1512 0.950 . S
C1517 C1515 1.390 . S
C1517 C1518 1.387 . S
C1517 H1520 0.950 . S
C1518 C1517 1.387 . S
C1518 C1521 1.387 . S
H1519 C1515 0.950 . S
H1520 C1517 0.950 . S
C1521 C1512 1.390 . S
C1521 H1514 0.950 . S
C1521 C1518 1.387 . S
C1522 C1523 1.387 . S
C1522 H1526 0.950 . S
C1522 C1531 1.390 . S
C1523 C1522 1.387 . S
C1523 C1525 1.387 . S
H1524 C1531 0.950 . S
C1525 C1523 1.387 . S
C1525 C1527 1.390 . S
C1525 H1529 0.950 . S
H1526 C1522 0.950 . S
C1527 C1525 1.390 . S
C1527 C1528 1.387 . S
C1527 H1530 0.950 . S
C1528 C1527 1.387 . S
C1528 C1531 1.387 . S
H1529 C1525 0.950 . S
H1530 C1527 0.950 . S
C1531 C1522 1.390 . S
C1531 H1524 0.950 . S
C1531 C1528 1.387 . S
C1532 C1533 1.387 . S
C1532 H1536 0.950 . S
C1532 C1541 1.390 . S
C1533 C1532 1.387 . S
C1533 C1535 1.387 . S
H1534 C1541 0.950 . S
C1535 C1533 1.387 . S
C1535 C1537 1.390 . S
C1535 H1539 0.950 . S
H1536 C1532 0.950 . S
C1537 C1535 1.390 . S
C1537 C1538 1.387 . S
C1537 H1540 0.950 . S
C1538 C1537 1.387 . S
C1538 C1541 1.387 . S
H1539 C1535 0.950 . S
H1540 C1537 0.950 . S
C1541 C1532 1.390 . S
C1541 H1534 0.950 . S
C1541 C1538 1.387 . S
C1542 C1543 1.387 . S
C1542 H1546 0.950 . S
C1542 C1551 1.390 . S
C1543 C1542 1.387 . S
C1543 C1545 1.387 . S
H1544 C1551 0.950 . S
C1545 C1543 1.387 . S
C1545 C1547 1.390 . S
C1545 H1549 0.950 . S
H1546 C1542 0.950 . S
C1547 C1545 1.390 . S
C1547 C1548 1.387 . S
C1547 H1550 0.950 . S
C1548 C1547 1.387 . S
C1548 C1551 1.387 . S
H1549 C1545 0.950 . S
H1550 C1547 0.950 . S
C1551 C1542 1.390 . S
C1551 H1544 0.950 . S
C1551 C1548 1.387 . S
C1552 C1553 1.387 . S
C1552 H1556 0.950 . S
C1552 C1561 1.390 . S
C1553 C1552 1.387 . S
C1553 C1555 1.387 . S
H1554 C1561 0.950 . S
C1555 C1553 1.387 . S
C1555 C1557 1.390 . S
C1555 H1559 0.950 1_455 S
H1556 C1552 0.950 . S
C1557 C1555 1.390 . S
C1557 C1558 1.387 . S
C1557 H1560 0.950 . S
C1558 C1557 1.387 . S
C1558 C1561 1.387 . S
H1559 C1555 0.950 1_655 S
H1560 C1557 0.950 . S
C1561 C1552 1.390 . S
C1561 H1554 0.950 . S
C1561 C1558 1.387 . S
C1562 C1563 1.387 . S
C1562 H1566 0.950 . S
C1562 C1571 1.390 . S
C1563 C1562 1.387 . S
C1563 C1565 1.387 . S
H1564 C1571 0.950 . S
C1565 C1563 1.387 . S
C1565 C1567 1.390 . S
C1565 H1569 0.950 . S
H1566 C1562 0.950 . S
C1567 C1565 1.390 . S
C1567 C1568 1.387 . S
C1567 H1570 0.950 . S
C1568 C1567 1.387 . S
C1568 C1571 1.387 . S
H1569 C1565 0.950 . S
H1570 C1567 0.950 . S
C1571 C1562 1.390 . S
C1571 H1564 0.950 . S
C1571 C1568 1.387 . S
C1572 C1573 1.387 . S
C1572 H1576 0.950 . S
C1572 C1581 1.390 . S
C1573 C1572 1.387 . S
C1573 C1575 1.387 . S
H1574 C1581 0.950 . S
C1575 C1573 1.387 . S
C1575 C1577 1.390 . S
C1575 H1579 0.950 . S
H1576 C1572 0.950 . S
C1577 C1575 1.390 . S
C1577 C1578 1.387 . S
C1577 H1580 0.950 . S
C1578 C1577 1.387 . S
C1578 C1581 1.387 . S
H1579 C1575 0.950 . S
H1580 C1577 0.950 . S
C1581 C1572 1.390 . S
C1581 H1574 0.950 . S
C1581 C1578 1.387 . S
C1582 C1583 1.387 . S
C1582 H1586 0.950 . S
C1582 C1591 1.390 . S
C1583 C1582 1.387 . S
C1583 C1585 1.387 . S
H1584 C1591 0.950 . S
C1585 C1583 1.387 . S
C1585 C1587 1.390 . S
C1585 H1589 0.950 . S
H1586 C1582 0.950 . S
C1587 C1585 1.390 . S
C1587 C1588 1.387 . S
C1587 H1590 0.950 . S
C1588 C1587 1.387 . S
C1588 C1591 1.387 . S
H1589 C1585 0.950 . S
H1590 C1587 0.950 . S
C1591 C1582 1.390 . S
C1591 H1584 0.950 . S
C1591 C1588 1.387 . S
C1592 C1593 1.387 . S
C1592 H1596 0.950 . S
C1592 C1601 1.390 . S
C1593 C1592 1.387 . S
C1593 C1595 1.387 . S
H1594 C1601 0.950 . S
C1595 C1593 1.387 . S
C1595 C1597 1.390 . S
C1595 H1599 0.950 . S
H1596 C1592 0.950 . S
C1597 C1595 1.390 . S
C1597 C1598 1.387 . S
C1597 H1600 0.950 . S
C1598 C1597 1.387 . S
C1598 C1601 1.387 . S
H1599 C1595 0.950 . S
H1600 C1597 0.950 . S
C1601 C1592 1.390 . S
C1601 H1594 0.950 . S
C1601 C1598 1.387 . S
C1602 C1603 1.387 . S
C1602 H1606 0.950 . S
C1602 C1611 1.390 . S
C1603 C1602 1.387 . S
C1603 C1605 1.387 . S
H1604 C1611 0.950 . S
C1605 C1603 1.387 . S
C1605 C1607 1.390 . S
C1605 H1609 0.950 1_545 S
H1606 C1602 0.950 . S
C1607 C1605 1.390 . S
C1607 C1608 1.387 . S
C1607 H1610 0.950 . S
C1608 C1607 1.387 . S
C1608 C1611 1.387 . S
H1609 C1605 0.950 1_565 S
H1610 C1607 0.950 . S
C1611 C1602 1.390 . S
C1611 H1604 0.950 . S
C1611 C1608 1.387 . S
C1612 C1613 1.387 . S
C1612 H1616 0.950 . S
C1612 C1621 1.390 . S
C1613 C1612 1.387 . S
C1613 C1615 1.387 . S
H1614 C1621 0.950 . S
C1615 C1613 1.387 . S
C1615 C1617 1.390 . S
C1615 H1619 0.950 1_655 S
H1616 C1612 0.950 . S
C1617 C1615 1.390 . S
C1617 C1618 1.387 . S
C1617 H1620 0.950 . S
C1618 C1617 1.387 . S
C1618 C1621 1.387 . S
H1619 C1615 0.950 1_455 S
H1620 C1617 0.950 . S
C1621 C1612 1.390 . S
C1621 H1614 0.950 . S
C1621 C1618 1.387 . S
C1622 C1623 1.387 . S
C1622 H1626 0.950 . S
C1622 C1631 1.390 . S
C1623 C1622 1.387 . S
C1623 C1625 1.387 . S
H1624 C1631 0.950 . S
C1625 C1623 1.387 . S
C1625 C1627 1.390 . S
C1625 H1629 0.950 . S
H1626 C1622 0.950 . S
C1627 C1625 1.390 . S
C1627 C1628 1.387 . S
C1627 H1630 0.950 . S
C1628 C1627 1.387 . S
C1628 C1631 1.387 . S
H1629 C1625 0.950 . S
H1630 C1627 0.950 . S
C1631 C1622 1.390 . S
C1631 H1624 0.950 . S
C1631 C1628 1.387 . S
C1632 C1633 1.387 . S
C1632 H1636 0.950 . S
C1632 C1641 1.390 . S
C1633 C1632 1.387 . S
C1633 C1635 1.387 . S
H1634 C1641 0.950 . S
C1635 C1633 1.387 . S
C1635 C1637 1.390 . S
C1635 H1639 0.950 . S
H1636 C1632 0.950 . S
C1637 C1635 1.390 . S
C1637 C1638 1.387 . S
C1637 H1640 0.950 . S
C1638 C1637 1.387 . S
C1638 C1641 1.387 . S
H1639 C1635 0.950 . S
H1640 C1637 0.950 . S
C1641 C1632 1.390 . S
C1641 H1634 0.950 . S
C1641 C1638 1.387 . S
C1642 C1643 1.387 . S
C1642 H1646 0.950 . S
C1642 C1651 1.390 . S
C1643 C1642 1.387 . S
C1643 C1645 1.387 . S
H1644 C1651 0.950 . S
C1645 C1643 1.387 . S
C1645 C1647 1.390 . S
C1645 H1649 0.950 . S
H1646 C1642 0.950 . S
C1647 C1645 1.390 . S
C1647 C1648 1.387 . S
C1647 H1650 0.950 . S
C1648 C1647 1.387 . S
C1648 C1651 1.387 . S
H1649 C1645 0.950 . S
H1650 C1647 0.950 . S
C1651 C1642 1.390 . S
C1651 H1644 0.950 . S
C1651 C1648 1.387 . S
C1652 C1653 1.387 . S
C1652 H1656 0.950 . S
C1652 C1661 1.390 . S
C1653 C1652 1.387 . S
C1653 C1655 1.387 . S
H1654 C1661 0.950 . S
C1655 C1653 1.387 . S
C1655 C1657 1.390 . S
C1655 H1659 0.949 1_545 S
H1656 C1652 0.950 . S
C1657 C1655 1.390 . S
C1657 C1658 1.387 . S
C1657 H1660 0.950 . S
C1658 C1657 1.387 . S
C1658 C1661 1.387 . S
H1659 C1655 0.949 1_565 S
H1660 C1657 0.950 . S
C1661 C1652 1.390 . S
C1661 H1654 0.950 . S
C1661 C1658 1.387 . S
C1662 C1663 1.387 . S
C1662 H1666 0.950 . S
C1662 C1671 1.390 . S
C1663 C1662 1.387 . S
C1663 C1665 1.387 . S
H1664 C1671 0.950 . S
C1665 C1663 1.387 . S
C1665 C1667 1.390 . S
C1665 H1669 0.950 . S
H1666 C1662 0.950 . S
C1667 C1665 1.390 . S
C1667 C1668 1.387 . S
C1667 H1670 0.950 . S
C1668 C1667 1.387 . S
C1668 C1671 1.387 . S
H1669 C1665 0.950 . S
H1670 C1667 0.950 . S
C1671 C1662 1.390 . S
C1671 H1664 0.950 . S
C1671 C1668 1.387 . S
C1672 C1673 1.387 . S
C1672 H1676 0.950 . S
C1672 C1681 1.390 . S
C1673 C1672 1.387 . S
C1673 C1675 1.387 . S
H1674 C1681 0.950 . S
C1675 C1673 1.387 . S
C1675 C1677 1.390 . S
C1675 H1679 0.950 . S
H1676 C1672 0.950 . S
C1677 C1675 1.390 . S
C1677 C1678 1.387 . S
C1677 H1680 0.950 . S
C1678 C1677 1.387 . S
C1678 C1681 1.387 . S
H1679 C1675 0.950 . S
H1680 C1677 0.950 . S
C1681 C1672 1.390 . S
C1681 H1674 0.950 . S
C1681 C1678 1.387 . S
C1682 C1683 1.387 . S
C1682 H1686 0.950 . S
C1682 C1691 1.390 . S
C1683 C1682 1.387 . S
C1683 C1685 1.387 . S
H1684 C1691 0.950 . S
C1685 C1683 1.387 . S
C1685 C1687 1.390 . S
C1685 H1689 0.950 . S
H1686 C1682 0.950 . S
C1687 C1685 1.390 . S
C1687 C1688 1.387 . S
C1687 H1690 0.950 . S
C1688 C1687 1.387 . S
C1688 C1691 1.387 . S
H1689 C1685 0.950 . S
H1690 C1687 0.950 . S
C1691 C1682 1.390 . S
C1691 H1684 0.950 . S
C1691 C1688 1.387 . S
C1692 C1693 1.387 . S
C1692 H1696 0.950 . S
C1692 C1701 1.390 . S
C1693 C1692 1.387 . S
C1693 C1695 1.387 . S
H1694 C1701 0.950 . S
C1695 C1693 1.387 . S
C1695 C1697 1.390 . S
C1695 H1699 0.950 . S
H1696 C1692 0.950 . S
C1697 C1695 1.390 . S
C1697 C1698 1.387 . S
C1697 H1700 0.950 . S
C1698 C1697 1.387 . S
C1698 C1701 1.387 . S
H1699 C1695 0.950 . S
H1700 C1697 0.950 . S
C1701 C1692 1.390 . S
C1701 H1694 0.950 . S
C1701 C1698 1.387 . S
C1702 C1703 1.387 . S
C1702 H1706 0.944 1_455 S
C1702 C1711 1.390 . S
C1703 C1702 1.387 . S
C1703 C1705 1.387 . S
H1704 C1711 0.950 1_655 S
C1705 C1703 1.387 . S
C1705 C1707 1.390 . S
C1705 H1709 0.950 . S
H1706 C1702 0.944 1_655 S
C1707 C1705 1.390 . S
C1707 C1708 1.387 . S
C1707 H1710 0.950 . S
C1708 C1707 1.387 . S
C1708 C1711 1.387 . S
H1709 C1705 0.950 . S
H1710 C1707 0.950 . S
C1711 C1702 1.390 . S
C1711 H1704 0.950 1_455 S
C1711 C1708 1.387 . S
C1712 C1713 1.387 . S
C1712 H1716 0.950 . S
C1712 C1721 1.390 . S
C1713 C1712 1.387 . S
C1713 C1715 1.387 . S
H1714 C1721 0.950 . S
C1715 C1713 1.387 . S
C1715 C1717 1.390 . S
C1715 H1719 0.950 . S
H1716 C1712 0.950 . S
C1717 C1715 1.390 . S
C1717 C1718 1.387 . S
C1717 H1720 0.950 . S
C1718 C1717 1.387 . S
C1718 C1721 1.387 . S
H1719 C1715 0.950 . S
H1720 C1717 0.950 . S
C1721 C1712 1.390 . S
C1721 H1714 0.950 . S
C1721 C1718 1.387 . S
C1722 C1723 1.387 . S
C1722 H1726 0.950 . S
C1722 C1731 1.390 . S
C1723 C1722 1.387 . S
C1723 C1725 1.387 . S
H1724 C1731 0.950 . S
C1725 C1723 1.387 . S
C1725 C1727 1.390 . S
C1725 H1729 0.950 . S
H1726 C1722 0.950 . S
C1727 C1725 1.390 . S
C1727 C1728 1.387 . S
C1727 H1730 0.950 1_655 S
C1728 C1727 1.387 . S
C1728 C1731 1.387 . S
H1729 C1725 0.950 . S
H1730 C1727 0.950 1_455 S
C1731 C1722 1.390 . S
C1731 H1724 0.950 . S
C1731 C1728 1.387 . S
C1732 C1733 1.387 . S
C1732 H1736 0.950 . S
C1732 C1741 1.390 . S
C1733 C1732 1.387 . S
C1733 C1735 1.387 . S
H1734 C1741 0.950 . S
C1735 C1733 1.387 . S
C1735 C1737 1.390 . S
C1735 H1739 0.950 . S
H1736 C1732 0.950 . S
C1737 C1735 1.390 . S
C1737 C1738 1.387 . S
C1737 H1740 0.950 . S
C1738 C1737 1.387 . S
C1738 C1741 1.387 . S
H1739 C1735 0.950 . S
H1740 C1737 0.950 . S
C1741 C1732 1.390 . S
C1741 H1734 0.950 . S
C1741 C1738 1.387 . S
C1742 C1743 1.387 . S
C1742 H1746 0.950 . S
C1742 C1751 1.390 . S
C1743 C1742 1.387 . S
C1743 C1745 1.387 . S
H1744 C1751 0.950 . S
C1745 C1743 1.387 . S
C1745 C1747 1.390 . S
C1745 H1749 0.950 . S
H1746 C1742 0.950 . S
C1747 C1745 1.390 . S
C1747 C1748 1.387 . S
C1747 H1750 0.950 . S
C1748 C1747 1.387 . S
C1748 C1751 1.387 . S
H1749 C1745 0.950 . S
H1750 C1747 0.950 . S
C1751 C1742 1.390 . S
C1751 H1744 0.950 . S
C1751 C1748 1.387 . S
C1752 C1753 1.387 . S
C1752 H1756 0.950 . S
C1752 C1761 1.390 . S
C1753 C1752 1.387 . S
C1753 C1755 1.387 . S
H1754 C1761 0.950 . S
C1755 C1753 1.387 . S
C1755 C1757 1.390 . S
C1755 H1759 0.950 . S
H1756 C1752 0.950 . S
C1757 C1755 1.390 . S
C1757 C1758 1.387 . S
C1757 H1760 0.950 . S
C1758 C1757 1.387 . S
C1758 C1761 1.387 . S
H1759 C1755 0.950 . S
H1760 C1757 0.950 . S
C1761 C1752 1.390 . S
C1761 H1754 0.950 . S
C1761 C1758 1.387 . S
C1762 C1763 1.387 . S
C1762 H1766 0.950 . S
C1762 C1771 1.390 . S
C1763 C1762 1.387 . S
C1763 C1765 1.387 . S
H1764 C1771 0.950 . S
C1765 C1763 1.387 . S
C1765 C1767 1.390 . S
C1765 H1769 0.950 . S
H1766 C1762 0.950 . S
C1767 C1765 1.390 . S
C1767 C1768 1.387 . S
C1767 H1770 0.950 . S
C1768 C1767 1.387 . S
C1768 C1771 1.387 . S
H1769 C1765 0.950 . S
H1770 C1767 0.950 . S
C1771 C1762 1.390 . S
C1771 H1764 0.950 . S
C1771 C1768 1.387 . S
C1772 C1773 1.387 . S
C1772 H1776 0.950 . S
C1772 C1781 1.390 . S
C1773 C1772 1.387 . S
C1773 C1775 1.387 . S
H1774 C1781 0.950 . S
C1775 C1773 1.387 . S
C1775 C1777 1.390 . S
C1775 H1779 0.950 . S
H1776 C1772 0.950 . S
C1777 C1775 1.390 . S
C1777 C1778 1.387 . S
C1777 H1780 0.950 . S
C1778 C1777 1.387 . S
C1778 C1781 1.387 . S
H1779 C1775 0.950 . S
H1780 C1777 0.950 . S
C1781 C1772 1.390 . S
C1781 H1774 0.950 . S
C1781 C1778 1.387 . S
C1782 C1783 1.387 . S
C1782 H1786 0.950 . S
C1782 C1791 1.390 . S
C1783 C1782 1.387 . S
C1783 C1785 1.387 . S
H1784 C1791 0.950 . S
C1785 C1783 1.387 . S
C1785 C1787 1.390 . S
C1785 H1789 0.950 . S
H1786 C1782 0.950 . S
C1787 C1785 1.390 . S
C1787 C1788 1.387 . S
C1787 H1790 0.950 . S
C1788 C1787 1.387 . S
C1788 C1791 1.387 . S
H1789 C1785 0.950 . S
H1790 C1787 0.950 . S
C1791 C1782 1.390 . S
C1791 H1784 0.950 . S
C1791 C1788 1.387 . S
C1792 C1793 1.387 . S
C1792 H1796 0.950 . S
C1792 C1801 1.390 . S
C1793 C1792 1.387 . S
C1793 C1795 1.387 . S
H1794 C1801 0.950 . S
C1795 C1793 1.387 . S
C1795 C1797 1.390 . S
C1795 H1799 0.950 . S
H1796 C1792 0.950 . S
C1797 C1795 1.390 . S
C1797 C1798 1.387 . S
C1797 H1800 0.950 . S
C1798 C1797 1.387 . S
C1798 C1801 1.387 . S
H1799 C1795 0.950 . S
H1800 C1797 0.950 . S
C1801 C1792 1.390 . S
C1801 H1794 0.950 . S
C1801 C1798 1.387 . S
C1802 C1803 1.387 . S
C1802 H1806 0.950 . S
C1802 C1811 1.390 . S
C1803 C1802 1.387 . S
C1803 C1805 1.387 . S
H1804 C1811 0.950 . S
C1805 C1803 1.387 . S
C1805 C1807 1.390 . S
C1805 H1809 0.950 . S
H1806 C1802 0.950 . S
C1807 C1805 1.390 . S
C1807 C1808 1.387 . S
C1807 H1810 0.950 . S
C1808 C1807 1.387 . S
C1808 C1811 1.387 . S
H1809 C1805 0.950 . S
H1810 C1807 0.950 . S
C1811 C1802 1.390 . S
C1811 H1804 0.950 . S
C1811 C1808 1.387 . S
C1812 C1813 1.387 . S
C1812 H1816 0.950 . S
C1812 C1821 1.390 . S
C1813 C1812 1.387 . S
C1813 C1815 1.387 . S
H1814 C1821 0.950 . S
C1815 C1813 1.387 . S
C1815 C1817 1.390 . S
C1815 H1819 0.950 . S
H1816 C1812 0.950 . S
C1817 C1815 1.390 . S
C1817 C1818 1.387 . S
C1817 H1820 0.950 . S
C1818 C1817 1.387 . S
C1818 C1821 1.387 . S
H1819 C1815 0.950 . S
H1820 C1817 0.950 . S
C1821 C1812 1.390 . S
C1821 H1814 0.950 . S
C1821 C1818 1.387 . S
C1822 C1823 1.387 . S
C1822 H1826 0.950 . S
C1822 C1831 1.390 . S
C1823 C1822 1.387 . S
C1823 C1825 1.387 . S
H1824 C1831 0.950 . S
C1825 C1823 1.387 . S
C1825 C1827 1.390 . S
C1825 H1829 0.950 . S
H1826 C1822 0.950 . S
C1827 C1825 1.390 . S
C1827 C1828 1.387 . S
C1827 H1830 0.950 . S
C1828 C1827 1.387 . S
C1828 C1831 1.387 . S
H1829 C1825 0.950 . S
H1830 C1827 0.950 . S
C1831 C1822 1.390 . S
C1831 H1824 0.950 . S
C1831 C1828 1.387 . S
C1832 C1833 1.387 . S
C1832 H1836 0.950 . S
C1832 C1841 1.390 . S
C1833 C1832 1.387 . S
C1833 C1835 1.387 . S
H1834 C1841 0.950 . S
C1835 C1833 1.387 . S
C1835 C1837 1.390 . S
C1835 H1839 0.950 . S
H1836 C1832 0.950 . S
C1837 C1835 1.390 . S
C1837 C1838 1.387 . S
C1837 H1840 0.950 . S
C1838 C1837 1.387 . S
C1838 C1841 1.387 . S
H1839 C1835 0.950 . S
H1840 C1837 0.950 . S
C1841 C1832 1.390 . S
C1841 H1834 0.950 . S
C1841 C1838 1.387 . S
C1842 C1843 1.387 . S
C1842 H1846 0.950 . S
C1842 C1851 1.390 . S
C1843 C1842 1.387 . S
C1843 C1845 1.387 . S
H1844 C1851 0.950 . S
C1845 C1843 1.387 . S
C1845 C1847 1.390 . S
C1845 H1849 0.950 . S
H1846 C1842 0.950 . S
C1847 C1845 1.390 . S
C1847 C1848 1.387 . S
C1847 H1850 0.950 . S
C1848 C1847 1.387 . S
C1848 C1851 1.387 . S
H1849 C1845 0.950 . S
H1850 C1847 0.950 . S
C1851 C1842 1.390 . S
C1851 H1844 0.950 . S
C1851 C1848 1.387 . S
C1852 C1853 1.387 . S
C1852 H1856 0.950 . S
C1852 C1861 1.390 . S
C1853 C1852 1.387 . S
C1853 C1855 1.387 . S
H1854 C1861 0.950 . S
C1855 C1853 1.387 . S
C1855 C1857 1.390 . S
C1855 H1859 0.950 . S
H1856 C1852 0.950 . S
C1857 C1855 1.390 . S
C1857 C1858 1.387 . S
C1857 H1860 0.950 . S
C1858 C1857 1.387 . S
C1858 C1861 1.387 . S
H1859 C1855 0.950 . S
H1860 C1857 0.950 . S
C1861 C1852 1.390 . S
C1861 H1854 0.950 . S
C1861 C1858 1.387 . S
C1862 C1863 1.387 . S
C1862 H1866 0.950 . S
C1862 C1871 1.390 . S
C1863 C1862 1.387 . S
C1863 C1865 1.387 . S
H1864 C1871 0.950 . S
C1865 C1863 1.387 . S
C1865 C1867 1.390 . S
C1865 H1869 0.950 . S
H1866 C1862 0.950 . S
C1867 C1865 1.390 . S
C1867 C1868 1.387 . S
C1867 H1870 0.950 . S
C1868 C1867 1.387 . S
C1868 C1871 1.387 . S
H1869 C1865 0.950 . S
H1870 C1867 0.950 . S
C1871 C1862 1.390 . S
C1871 H1864 0.950 . S
C1871 C1868 1.387 . S
C1333 C439 1.379 . S
C1338 C643 1.367 . S
C1343 C465 1.532 . S
C1348 C727 1.456 . S
C1353 C401 1.514 . S
C1358 C807 1.448 . S
C1363 C369 1.468 . S
C1368 C723 1.416 . S
C1378 C811 1.404 . S
C1373 C305 1.483 . S
C1383 C343 1.351 . S
C1388 C639 1.368 . S
C1398 C632 1.396 . S
C1393 C375 1.480 . S
C1408 C716 1.433 . S
C1403 C311 1.506 . S
C1413 C337 1.436 . S
C1418 C818 1.445 . S
C1423 C433 1.410 . S
C1428 C734 1.413 . S
C1433 C471 1.456 . S
C1438 C800 1.380 . S
C1448 C650 1.401 . S
C1443 C407 1.467 . S
C1458 C895 1.367 . S
C1453 C55 1.382 1_455 S
C1463 C81 1.532 . S
C1468 C979 1.456 . S
C1473 C17 1.514 1_565 S
C1478 C1059 1.449 . S
C1483 C561 1.468 . S
C1488 C975 1.416 . S
C1493 C497 1.484 . S
C1498 C1063 1.404 . S
C1503 C535 1.351 . S
C1508 C891 1.368 . S
C1513 C567 1.480 . S
C1518 C884 1.395 . S
C1523 C503 1.506 . S
C1528 C968 1.432 . S
C1538 C1070 1.445 . S
C1533 C529 1.437 . S
C1543 C49 1.411 1_565 S
C1548 C986 1.415 . S
C1558 C1052 1.377 . S
C1553 C87 1.457 1_455 S
C1563 C23 1.467 . S
C1568 C902 1.401 . S
C1578 C1147 1.368 . S
C1573 C247 1.382 . S
C1583 C273 1.531 . S
C1588 C1231 1.457 . S
C1598 C1311 1.449 . S
C1593 C209 1.514 . S
C1608 C1227 1.416 . S
C1603 C177 1.468 1_545 S
C1618 C1315 1.404 . S
C1613 C113 1.483 1_655 S
C1623 C151 1.355 . S
C1628 C1143 1.371 . S
C1633 C183 1.480 1_655 S
C1638 C1136 1.396 . S
C1643 C119 1.506 . S
C1648 C1220 1.432 . S
C1658 C1322 1.446 . S
C1653 C145 1.438 1_545 S
C1663 C241 1.410 . S
C1668 C1238 1.413 . S
C1673 C279 1.457 . S
C1678 C1304 1.377 . S
C1683 C215 1.467 . S
C1688 C1154 1.398 . S
C1693 C509 1.460 . S
C1698 C646 1.396 . S
C1708 C730 1.356 . S
C1703 C541 1.457 . S
C1713 C573 1.469 . S
C1718 C802 1.365 . S
C1723 C221 1.498 . S
C1728 C718 1.369 . S
C1733 C253 1.449 . S
C1738 C814 1.352 . S
C1748 C634 1.393 . S
C1743 C285 1.461 . S
C1753 C125 1.461 . S
C1758 C898 1.394 . S
C1763 C157 1.456 . S
C1768 C982 1.355 . S
C1773 C189 1.467 . S
C1778 C1054 1.367 . S
C1783 C413 1.497 . S
C1788 C970 1.371 . S
C1798 C1066 1.353 . S
C1793 C445 1.451 . S
C1803 C477 1.461 . S
C1808 C886 1.394 . S
C1813 C317 1.460 . S
C1818 C1150 1.396 . S
C1823 C349 1.457 . S
C1828 C1234 1.356 . S
C1838 C1306 1.367 . S
C1833 C381 1.468 . S
C1843 C29 1.498 . S
C1848 C1222 1.368 . S
C1853 C61 1.449 . S
C1858 C1318 1.352 . S
C1863 C93 1.461 . S
C1868 C1138 1.394 . S
