# Generated by pormake.
# Topology tsx, (6,3)-cn, num edge types: 1
# Building blocks:
#     Node 0, Type 0, BuildingBlock: VOLQOD_clean_sbu_1, # of connection points: 6
#     Node 1, Type 0, BuildingBlock: VOLQOD_clean_sbu_1, # of connection points: 6
#     Node 2, Type 1, BuildingBlock: QEWDON_clean_linker_0, # of connection points: 3
#     Node 3, Type 1, BuildingBlock: QEWDON_clean_linker_0, # of connection points: 3
#     Node 4, Type 1, BuildingBlock: QEWDON_clean_linker_0, # of connection points: 3
#     Node 5, Type 1, BuildingBlock: QEWDON_clean_linker_0, # of connection points: 3
#     Edge 6, Type (0, 1), BuildingBlock: XIVTED_clean_linker_0, # of connection points: 2
#     Edge 7, Type (0, 1), BuildingBlock: XIVTED_clean_linker_0, # of connection points: 2
#     Edge 8, Type (0, 1), BuildingBlock: XIVTED_clean_linker_0, # of connection points: 2
#     Edge 9, Type (0, 1), BuildingBlock: XIVTED_clean_linker_0, # of connection points: 2
#     Edge 10, Type (0, 1), BuildingBlock: XIVTED_clean_linker_0, # of connection points: 2
#     Edge 11, Type (0, 1), BuildingBlock: XIVTED_clean_linker_0, # of connection points: 2
#     Edge 12, Type (0, 1), BuildingBlock: XIVTED_clean_linker_0, # of connection points: 2
#     Edge 13, Type (0, 1), BuildingBlock: XIVTED_clean_linker_0, # of connection points: 2
#     Edge 14, Type (0, 1), BuildingBlock: XIVTED_clean_linker_0, # of connection points: 2
#     Edge 15, Type (0, 1), BuildingBlock: XIVTED_clean_linker_0, # of connection points: 2
#     Edge 16, Type (0, 1), BuildingBlock: XIVTED_clean_linker_0, # of connection points: 2
#     Edge 17, Type (0, 1), BuildingBlock: XIVTED_clean_linker_0, # of connection points: 2
# Relax obj value: 0.078
# Max RMSD: 0.176
# Mean RMSD: 0.148
data_MOF--net-tsx--node1-VOLQOD_clean_sbu_1--node2-QEWDON_clean_linker_0--edge1-XIVTED_clean_linker_0
_symmetry_space_group_name_H-M    P1
_symmetry_Int_Tables_number       1
_symmetry_cell_setting            triclinic
loop_
_symmetry_equiv_pos_as_xyz
'x, y, z'
_cell_length_a     21.779241
_cell_length_b     23.3866
_cell_length_c     39.203745
_cell_angle_alpha  89.904011
_cell_angle_beta   100.99251
_cell_angle_gamma 90.052432
loop_
_atom_site_label
_atom_site_type_symbol
_atom_site_fract_x
_atom_site_fract_y
_atom_site_fract_z
_atom_type_partial_charge
O0 O 0.03548 0.98559 0.05601 0.0
Zn1 Zn 0.07143 -0.00563 0.01205 0.0
O2 O 0.00458 0.01394 -0.02632 0.0
Zn3 Zn 0.99185 0.9511 0.94121 0.0
Zn4 Zn 0.92934 0.02631 -0.00833 0.0
Zn5 Zn 0.02207 0.08361 0.95073 0.0
O6 O 0.98638 0.98125 0.89253 0.0
O7 O 0.03494 0.06545 0.90246 0.0
O8 O 0.11991 0.92399 0.00125 0.0
O9 O 0.06806 0.90123 0.94861 0.0
O10 O 0.91827 0.90132 0.94901 0.0
O11 O 0.87856 0.9547 -0.01372 0.0
O12 O 0.87719 0.09047 0.96669 0.0
O13 O 0.13289 0.05982 0.02036 0.0
O14 O 0.94701 0.1357 0.94207 0.0
O15 O 0.09672 0.1241 -0.02059 0.0
C16 C 0.99 0.01236 0.06506 0.0
C17 C 0.01205 0.0253 0.88191 0.0
C18 C 0.87895 0.90876 0.969 0.0
C19 C 0.11395 0.89392 -0.02635 0.0
C20 C 0.89193 0.13142 0.94834 0.0
C21 C 0.13652 0.10836 0.00604 0.0
O22 O 0.94988 0.0396 0.04309 0.0
O23 O 0.54285 0.49812 0.56227 0.0
Zn24 Zn 0.57086 0.49962 0.51646 0.0
O25 O 0.50248 0.51726 0.47904 0.0
Zn26 Zn 0.48781 0.45314 0.44818 0.0
Zn27 Zn 0.42886 0.53083 0.49836 0.0
Zn28 Zn 0.52196 0.58355 0.45369 0.0
O29 O 0.47708 0.47867 0.39857 0.0
O30 O 0.52721 0.5622 0.40476 0.0
O31 O 0.62018 0.43087 0.50565 0.0
O32 O 0.56406 0.40441 0.45482 0.0
O33 O 0.41702 0.4048 0.45854 0.0
O34 O 0.37712 0.45888 0.49547 0.0
O35 O 0.37879 0.59626 0.47302 0.0
O36 O 0.63095 0.56398 0.52269 0.0
O37 O 0.45123 0.63896 0.44876 0.0
O38 O 0.60134 0.62227 0.4778 0.0
C39 C 0.49997 0.52826 0.57147 0.0
C40 C 0.50203 0.52106 0.38584 0.0
C41 C 0.37828 0.41233 0.47875 0.0
C42 C 0.61236 0.39948 0.47859 0.0
C43 C 0.39645 0.63726 0.45563 0.0
C44 C 0.63851 0.609 0.50588 0.0
O45 O 0.45522 0.54922 0.54922 0.0
H46 H 0.94995 0.04296 0.33834 0.0
C47 C 0.98959 0.01419 0.34282 0.0
C48 C 0.0042 0.98205 0.3149 0.0
C49 C 0.02528 0.00679 0.37655 0.0
H50 H 0.06422 0.91599 0.30026 0.0
C51 C 0.05313 0.94182 0.32122 0.0
C52 C 0.08994 0.93626 0.35417 0.0
C53 C 0.07774 0.97054 0.38102 0.0
C54 C 0.00759 0.03095 0.40837 0.0
H55 H 0.10844 0.96621 0.40608 0.0
C56 C 0.9652 0.09641 0.40663 0.0
C57 C 0.94532 0.13353 0.44238 0.0
C58 C 0.03696 0.9898 0.44592 0.0
H59 H 0.04519 0.97951 0.47283 0.0
C60 C 0.02771 0.01169 0.48867 0.0
H61 H 0.95031 0.11578 0.38136 0.0
C62 C 0.96678 0.10738 0.48567 0.0
H63 H 0.95064 0.13345 0.50543 0.0
H64 H 0.01135 0.03834 0.49381 0.0
H65 H 0.99803 0.07681 0.60452 0.0
C66 C 0.97806 0.03438 0.60051 0.0
C67 C 0.97477 -0.00072 0.6294 0.0
C68 C 0.9574 0.01323 0.56662 0.0
H69 H 0.94533 0.91748 0.64654 0.0
C70 C 0.9487 0.94421 0.62433 0.0
C71 C 0.92856 0.92284 0.59092 0.0
C72 C 0.93376 0.95727 0.56254 0.0
C73 C 0.96742 0.0439 0.53496 0.0
H74 H 0.92044 0.93879 0.53704 0.0
C75 C 0.03908 0.08379 0.53835 0.0
C76 C 0.07603 0.10524 0.5034 0.0
C77 C 0.91811 0.02062 0.49534 0.0
H78 H 0.87535 -0.00225 0.49638 0.0
C79 C 0.93635 0.0316 0.45338 0.0
H80 H 0.06426 0.09361 0.56418 0.0
C81 C 0.04302 0.08878 0.45895 0.0
H82 H 0.06951 0.10486 0.43981 0.0
H83 H 0.96122 0.04481 0.44864 0.0
H84 H 0.50294 0.5769 0.84939 0.0
C85 C 0.52071 0.53375 0.84878 0.0
C86 C 0.54412 0.51479 0.81967 0.0
C87 C 0.52399 0.4974 0.87763 0.0
H88 H 0.59473 0.4478 0.79881 0.0
C89 C 0.57351 0.4611 0.82039 0.0
C90 C 0.57509 0.42415 0.84855 0.0
C91 C 0.54494 0.44088 0.87531 0.0
C92 C 0.51628 0.51833 0.91223 0.0
H93 H 0.54326 0.41101 0.89618 0.0
C94 C 0.46022 0.5729 0.91603 0.0
C95 C 0.4418 0.60014 0.9554 0.0
C96 C 0.5649 0.48214 0.9471 0.0
H97 H 0.59932 0.45167 0.94205 0.0
C98 C 0.56314 0.49466 -0.00908 0.0
H99 H 0.43329 0.58956 0.89205 0.0
C100 C 0.48089 0.57438 -0.0031 0.0
H101 H 0.46682 0.59413 0.01951 0.0
H102 H 0.54519 0.51327 -0.00197 0.0
H103 H 0.53956 0.54398 0.11157 0.0
C104 C 0.52061 0.50106 0.10873 0.0
C105 C 0.50883 0.47129 0.13809 0.0
C106 C 0.50693 0.47479 0.07587 0.0
H107 H 0.46414 0.39733 0.15606 0.0
C108 C 0.47836 0.41803 0.13402 0.0
C109 C 0.46557 0.39153 0.10169 0.0
C110 C 0.48468 0.41798 0.07362 0.0
C111 C 0.51098 0.50544 0.04314 0.0
H112 H 0.47831 0.39456 0.04947 0.0
C113 C 0.56941 0.55961 0.04309 0.0
C114 C 0.58866 0.59394 0.0059 0.0
C115 C 0.46034 0.47736 0.00597 0.0
H116 H 0.42469 0.44657 0.00886 0.0
C117 C 0.46274 0.4983 0.96323 0.0
H118 H 0.59788 0.57085 0.06787 0.0
C119 C 0.54874 0.57714 0.96304 0.0
H120 H 0.56492 0.60056 0.94219 0.0
H121 H 0.48163 0.51781 0.95745 0.0
H122 H 0.13159 0.22471 0.00869 0.0
H123 H 0.48692 0.28618 0.07537 0.0
H124 H 0.25537 0.08197 0.03918 0.0
H125 H 0.34593 0.3868 0.11099 0.0
H126 H 0.40714 0.21299 0.05435 0.0
H127 H 0.2142 0.28968 0.03702 0.0
C128 C 0.17632 0.20715 0.0211 0.0
C129 C 0.18684 0.14802 0.02163 0.0
C130 C 0.3942 0.25067 0.06737 0.0
C131 C 0.28123 0.22183 0.0536 0.0
C132 C 0.43951 0.29208 0.07942 0.0
C133 C 0.4228 0.34199 0.09522 0.0
C134 C 0.33177 0.26054 0.07012 0.0
C135 C 0.36066 0.34842 0.09938 0.0
C136 C 0.22308 0.24409 0.03747 0.0
C137 C 0.24548 0.12737 0.03835 0.0
N138 N 0.31705 0.30866 0.08631 0.0
N139 N 0.29093 0.16434 0.05338 0.0
H140 H 0.14425 0.85488 0.91329 0.0
H141 H 0.36347 0.60649 0.00177 0.0
H142 H 0.19367 0.83567 0.02465 0.0
H143 H 0.39951 0.68627 0.90817 0.0
H144 H 0.28638 0.67956 0.00603 0.0
H145 H 0.22373 0.78353 0.90677 0.0
C146 C 0.17164 0.8355 0.93638 0.0
C147 C 0.16212 0.85104 0.96963 0.0
C148 C 0.31139 0.68133 -0.01533 0.0
C149 C 0.25232 0.76912 0.96215 0.0
C150 C 0.35611 0.63988 -0.0177 0.0
C151 C 0.39008 0.64139 0.95525 0.0
C152 C 0.29885 0.72403 0.95927 0.0
C153 C 0.37487 0.68374 0.92963 0.0
C154 C 0.21715 0.79514 0.93256 0.0
C155 C 0.19941 0.825 -0.00142 0.0
N156 N 0.33023 0.72361 0.93225 0.0
N157 N 0.24238 0.78485 -0.00585 0.0
H158 H 0.79131 0.91037 0.01065 0.0
H159 H 0.68315 0.58699 0.97088 0.0
H160 H 0.87031 0.79938 0.94236 0.0
H161 H 0.61105 0.69295 0.0439 0.0
H162 H 0.75669 0.66249 0.96316 0.0
H163 H 0.72744 0.83116 0.02445 0.0
C164 C 0.79505 0.86944 -0.00168 0.0
C165 C 0.83633 0.86178 -0.02489 0.0
C166 C 0.72555 0.66923 -0.01874 0.0
C167 C 0.76329 0.77037 -0.00871 0.0
C168 C 0.68385 0.626 -0.01415 0.0
C169 C 0.64133 0.63401 0.0081 0.0
C170 C 0.72421 0.72137 -0.00126 0.0
C171 C 0.64373 0.68512 0.0268 0.0
C172 C 0.7587 0.82408 0.00646 0.0
C173 C 0.83904 0.80754 0.96021 0.0
N174 N 0.68406 0.72734 0.02138 0.0
N175 N 0.80305 0.764 0.96854 0.0
H176 H 0.76648 0.13112 0.95019 0.0
H177 H 0.6943 0.41577 0.83663 0.0
H178 H 0.90596 0.2244 0.90778 0.0
H179 H 0.55236 0.31761 0.87369 0.0
H180 H 0.77043 0.34129 0.85781 0.0
H181 H 0.68646 0.19619 0.91996 0.0
C182 C 0.78042 0.16543 0.93469 0.0
C183 C 0.84326 0.1724 0.93176 0.0
C184 C 0.72245 0.3356 0.86091 0.0
C185 C 0.75154 0.24681 0.8967 0.0
C186 C 0.67865 0.37783 0.84838 0.0
C187 C 0.61682 0.37327 0.85364 0.0
C188 C 0.7045 0.28849 0.87903 0.0
C189 C 0.59973 0.32341 0.86959 0.0
C190 C 0.73457 0.20236 0.91722 0.0
C191 C 0.85825 0.21743 0.91101 0.0
N192 N 0.64348 0.28335 0.88211 0.0
N193 N 0.81281 0.25292 0.89438 0.0
H194 H 0.68688 0.62522 0.57429 0.0
H195 H 0.9493 0.84313 0.54324 0.0
H196 H 0.70527 0.6811 0.4717 0.0
H197 H 0.84336 0.87127 0.62428 0.0
H198 H 0.88449 0.75954 0.52417 0.0
H199 H 0.76825 0.69362 0.5995 0.0
C200 C 0.70863 0.65143 0.55709 0.0
C201 C 0.68937 0.64798 0.52087 0.0
C202 C 0.8763 0.78368 0.54644 0.0
C203 C 0.78261 0.72464 0.54949 0.0
C204 C 0.91294 0.83134 0.55731 0.0
C205 C 0.90032 0.86524 0.58473 0.0
C206 C 0.82796 0.76897 0.56369 0.0
C207 C 0.85434 0.84663 0.60288 0.0
C208 C 0.75471 0.6903 0.57151 0.0
C209 C 0.71859 0.68296 0.49973 0.0
N210 N 0.8192 0.79982 0.5918 0.0
N211 N 0.76418 0.71986 0.5144 0.0
H212 H 0.7319 0.39118 0.51615 0.0
H213 H 0.83633 0.14876 0.39592 0.0
H214 H 0.60936 0.32248 0.42579 0.0
H215 H 0.96122 0.23074 0.48013 0.0
H216 H 0.75506 0.21853 0.40214 0.0
H217 H 0.81776 0.33535 0.50144 0.0
C218 C 0.72284 0.36392 0.49343 0.0
C219 C 0.66319 0.36133 0.47232 0.0
C220 C 0.80067 0.22198 0.4188 0.0
C221 C 0.76163 0.29794 0.45493 0.0
C222 C 0.84721 0.18274 0.41486 0.0
C223 C 0.90492 0.18409 0.43776 0.0
C224 C 0.81238 0.2622 0.44595 0.0
C225 C 0.91674 0.22812 0.46228 0.0
C226 C 0.77208 0.3325 0.4848 0.0
C227 C 0.6545 0.32571 0.44292 0.0
N228 N 0.87054 0.26497 0.46611 0.0
N229 N 0.70313 0.29535 0.43515 0.0
H230 H 0.37234 0.30468 0.45098 0.0
H231 H 0.09924 0.19774 0.54624 0.0
H232 H 0.29179 0.41011 0.52142 0.0
H233 H 0.17705 0.09742 0.47274 0.0
H234 H 0.17888 0.27137 0.54409 0.0
H235 H 0.30804 0.22499 0.46347 0.0
C236 C 0.34089 0.31125 0.46895 0.0
C237 C 0.33712 0.36448 0.4849 0.0
C238 C 0.17913 0.23282 0.52886 0.0
C239 C 0.26353 0.27286 0.49963 0.0
C240 C 0.13426 0.19057 0.53045 0.0
C241 C 0.13162 0.14201 0.50941 0.0
C242 C 0.22126 0.22599 0.50605 0.0
C243 C 0.17717 0.13486 0.48896 0.0
C244 C 0.3044 0.26552 0.47625 0.0
C245 C 0.29591 0.37004 0.50827 0.0
N246 N 0.21975 0.17668 0.48751 0.0
N247 N 0.26056 0.32485 0.51484 0.0
H248 H 0.42385 0.74492 0.43673 0.0
H249 H 0.07362 0.82141 0.34677 0.0
H250 H 0.26835 0.63187 0.44022 0.0
H251 H 0.21372 0.94965 0.38158 0.0
H252 H 0.14909 0.74693 0.37088 0.0
H253 H 0.35084 0.817 0.40792 0.0
C254 C 0.37425 0.73539 0.43157 0.0
C255 C 0.352 0.68246 0.44098 0.0
C256 C 0.16342 0.79135 0.37284 0.0
C257 C 0.26853 0.7643 0.40746 0.0
C258 C 0.12082 0.8336 0.35873 0.0
C259 C 0.13799 0.89137 0.36215 0.0
C260 C 0.22355 0.80725 0.39004 0.0
C261 C 0.1991 0.9054 0.3784 0.0
C262 C 0.33271 0.7765 0.4151 0.0
C263 C 0.28732 0.67236 0.43367 0.0
N264 N 0.23978 0.86357 0.39182 0.0
N265 N 0.24774 0.71285 0.41707 0.0
H266 H 0.02216 0.92492 0.11081 0.0
H267 H 0.98515 0.08298 0.27904 0.0
H268 H 0.93684 0.09207 0.10153 0.0
H269 H 0.95467 0.90127 0.26754 0.0
H270 H 0.96796 0.09211 0.21545 0.0
H271 H 0.0048 0.91881 0.1705 0.0
C272 C 1.00007 0.96044 0.12144 0.0
C273 C 0.98128 0.0092 0.1014 0.0
C274 C 0.96334 0.05054 0.22693 0.0
C275 C 0.96134 0.00256 0.16952 0.0
C276 C 0.9725 0.0454 0.26311 0.0
C277 C 0.9725 0.99115 0.27843 0.0
C278 C 0.95529 0.00095 0.20639 0.0
C279 C 0.95633 0.94371 0.25666 0.0
C280 C 0.98948 0.95667 0.1553 0.0
C281 C 0.95207 0.05377 0.11627 0.0
N282 N 0.9501 0.94945 0.22176 0.0
N283 N 0.94378 0.04981 0.14973 0.0
H284 H 0.00838 0.12149 0.84154 0.0
H285 H 0.06184 0.94447 0.67635 0.0
H286 H 0.02652 0.93795 0.83864 0.0
H287 H 0.94294 0.09326 0.66428 0.0
H288 H 0.08227 0.9582 0.73924 0.0
H289 H 0.01283 0.12539 0.77921 0.0
C290 C 0.01383 0.08219 0.82784 0.0
C291 C 0.01652 0.02921 0.84499 0.0
C292 C 0.0527 0.98851 0.72279 0.0
C293 C 0.02333 0.03368 0.77471 0.0
C294 C 0.04136 0.98094 0.68702 0.0
C295 C 0.99993 0.01732 0.66539 0.0
C296 C 0.02257 0.03288 0.73704 0.0
C297 C 0.97495 0.06427 0.68028 0.0
C298 C 0.01629 0.08452 0.79247 0.0
C299 C 0.02351 0.97953 0.82624 0.0
N300 N 0.98591 0.07034 0.71548 0.0
N301 N 0.02695 0.98301 0.79213 0.0
H302 H 0.4083 0.56787 0.6048 0.0
H303 H 0.63763 0.55442 0.78903 0.0
H304 H 0.60408 0.52297 0.62231 0.0
H305 H 0.43694 0.54886 0.77704 0.0
H306 H 0.62665 0.57717 0.72731 0.0
H307 H 0.41922 0.58955 0.66693 0.0
C308 C 0.45354 0.56279 0.62165 0.0
C309 C 0.50505 0.54234 0.60857 0.0
C310 C 0.58491 0.57248 0.73831 0.0
C311 C 0.51806 0.56839 0.67908 0.0
C312 C 0.59122 0.56017 0.77353 0.0
C313 C 0.53806 0.54903 0.7877 0.0
C314 C 0.52507 0.57282 0.71721 0.0
C315 C 0.47893 0.55694 0.7668 0.0
C316 C 0.45976 0.57546 0.65697 0.0
C317 C 0.56277 0.5373 0.6314 0.0
N318 N 0.47388 0.56704 0.73222 0.0
N319 N 0.5676 0.54997 0.66553 0.0
H320 H 0.50644 0.42735 0.34582 0.0
H321 H 0.46843 0.57023 0.16432 0.0
H322 H 0.50918 0.61185 0.34225 0.0
H323 H 0.58494 0.42213 0.19225 0.0
H324 H 0.47362 0.58999 0.22663 0.0
H325 H 0.52047 0.42476 0.28563 0.0
C326 C 0.50946 0.46734 0.33223 0.0
C327 C 0.50659 0.51988 0.3489 0.0
C328 C 0.4994 0.5542 0.21894 0.0
C329 C 0.52274 0.51717 0.28018 0.0
C330 C 0.49683 0.54323 0.1836 0.0
C331 C 0.52591 0.4943 0.17352 0.0
C332 C 0.53023 0.51523 0.24369 0.0
C333 C 0.5615 0.45998 0.19922 0.0
C334 C 0.51817 0.46583 0.29807 0.0
C335 C 0.51139 0.57049 0.33019 0.0
N336 N 0.56158 0.47037 0.23316 0.0
N337 N 0.51861 0.56798 0.29649 0.0
loop_
_geom_bond_atom_site_label_1
_geom_bond_atom_site_label_2
_geom_bond_distance
_geom_bond_site_symmetry_2
_ccdc_geom_bond_type
O0 Zn1 1.953 . S
O0 C16 1.225 1_565 S
Zn1 O0 1.953 . S
Zn1 O2 1.949 1_565 S
Zn1 O8 1.919 . S
Zn1 O13 1.924 1_565 S
O2 Zn1 1.949 1_545 S
O2 Zn3 1.923 1_444 S
O2 Zn4 1.950 1_455 S
O2 Zn5 1.945 1_554 S
Zn3 O2 1.923 1_666 S
Zn3 O6 1.933 . S
Zn3 O9 1.941 1_655 S
Zn3 O10 1.965 . S
Zn4 O2 1.950 1_655 S
Zn4 O11 1.938 1_545 S
Zn4 O12 1.906 . S
Zn4 O22 1.953 . S
Zn5 O2 1.945 1_556 S
Zn5 O7 1.932 . S
Zn5 O14 1.977 1_455 S
Zn5 O15 1.910 . S
O6 Zn3 1.933 . S
O6 C17 1.226 1_565 S
O7 Zn5 1.932 . S
O7 C17 1.307 1_455 S
O8 Zn1 1.919 . S
O8 C19 1.251 1_554 S
O9 Zn3 1.941 1_455 S
O9 C19 1.284 . S
O10 Zn3 1.965 . S
O10 C18 1.303 1_556 S
O11 Zn4 1.938 1_565 S
O11 C18 1.247 . S
O12 Zn4 1.906 . S
O12 C20 1.304 1_554 S
O13 Zn1 1.924 1_545 S
O13 C21 1.311 . S
O14 Zn5 1.977 1_655 S
O14 C20 1.272 . S
O15 Zn5 1.910 . S
O15 C21 1.231 1_556 S
C16 O0 1.225 1_545 S
C16 O22 1.298 1_455 S
C17 O6 1.226 1_545 S
C17 O7 1.307 1_655 S
C18 O10 1.303 1_554 S
C18 O11 1.247 . S
C19 O8 1.251 1_556 S
C19 O9 1.284 . S
C20 O12 1.304 1_556 S
C20 O14 1.272 . S
C21 O13 1.311 . S
C21 O15 1.231 1_554 S
O22 Zn4 1.953 . S
O22 C16 1.298 1_655 S
O23 Zn24 1.953 . S
O23 C39 1.225 . S
Zn24 O23 1.953 . S
Zn24 O25 1.949 . S
Zn24 O31 1.919 . S
Zn24 O36 1.924 . S
O25 Zn24 1.949 . S
O25 Zn26 1.923 . S
O25 Zn27 1.950 . S
O25 Zn28 1.945 . S
Zn26 O25 1.923 . S
Zn26 O29 1.933 . S
Zn26 O32 1.941 . S
Zn26 O33 1.965 . S
Zn27 O25 1.950 . S
Zn27 O34 1.938 . S
Zn27 O35 1.906 . S
Zn27 O45 1.953 . S
Zn28 O25 1.945 . S
Zn28 O30 1.932 . S
Zn28 O37 1.977 . S
Zn28 O38 1.910 . S
O29 Zn26 1.933 . S
O29 C40 1.226 . S
O30 Zn28 1.932 . S
O30 C40 1.307 . S
O31 Zn24 1.919 . S
O31 C42 1.253 . S
O32 Zn26 1.941 . S
O32 C42 1.283 . S
O33 Zn26 1.965 . S
O33 C41 1.303 . S
O34 Zn27 1.938 . S
O34 C41 1.247 . S
O35 Zn27 1.906 . S
O35 C43 1.304 . S
O36 Zn24 1.924 . S
O36 C44 1.311 . S
O37 Zn28 1.977 . S
O37 C43 1.272 . S
O38 Zn28 1.910 . S
O38 C44 1.231 . S
C39 O23 1.225 . S
C39 O45 1.298 . S
C40 O29 1.226 . S
C40 O30 1.307 . S
C41 O33 1.303 . S
C41 O34 1.247 . S
C42 O31 1.253 . S
C42 O32 1.283 . S
C43 O35 1.304 . S
C43 O37 1.272 . S
C44 O36 1.311 . S
C44 O38 1.231 . S
O45 Zn27 1.953 . S
O45 C39 1.298 . S
H46 C47 0.949 1_655 S
C47 H46 0.949 1_455 S
C47 C48 1.395 1_545 S
C47 C49 1.391 . S
C48 C47 1.395 1_565 S
C48 C51 1.390 . S
C49 C47 1.391 . S
C49 C53 1.387 1_545 S
C49 C54 1.491 . S
H50 C51 0.950 . S
C51 C48 1.390 . S
C51 H50 0.950 . S
C51 C52 1.378 . S
C52 C51 1.378 . S
C52 C53 1.409 . S
C53 C49 1.387 1_565 S
C53 C52 1.409 . S
C53 H55 0.951 . S
C54 C49 1.491 . S
C54 C56 1.382 1_455 S
C54 C58 1.404 . S
H55 C53 0.951 . S
C56 C54 1.382 1_655 S
C56 C57 1.390 . S
C56 H61 0.949 . S
C57 C56 1.390 . S
C57 C62 1.399 . S
C58 C54 1.404 . S
C58 H59 0.950 . S
C58 C60 1.375 . S
H59 C58 0.950 . S
C60 C58 1.375 . S
C60 C62 1.382 1_455 S
C60 H64 0.950 . S
H61 C56 0.949 . S
C62 C57 1.399 . S
C62 C60 1.382 1_655 S
C62 H63 0.952 . S
H63 C62 0.952 . S
H64 C60 0.950 . S
H65 C66 0.949 . S
C66 H65 0.949 . S
C66 C67 1.395 1_445 S
C66 C68 1.391 1_455 S
C67 C66 1.395 1_665 S
C67 C70 1.390 . S
C68 C66 1.391 1_655 S
C68 C72 1.387 1_545 S
C68 C73 1.491 1_655 S
H69 C70 0.950 . S
C70 C67 1.390 . S
C70 H69 0.950 . S
C70 C71 1.378 . S
C71 C70 1.378 . S
C71 C72 1.409 . S
C72 C68 1.387 1_565 S
C72 C71 1.409 . S
C72 H74 0.951 . S
C73 C68 1.491 1_455 S
C73 C75 1.382 . S
C73 C77 1.404 1_455 S
H74 C72 0.951 . S
C75 C73 1.382 . S
C75 C76 1.390 . S
C75 H80 0.949 . S
C76 C75 1.390 . S
C76 C81 1.399 . S
C77 C73 1.404 1_655 S
C77 H78 0.950 . S
C77 C79 1.375 . S
H78 C77 0.950 . S
C79 C77 1.375 . S
C79 C81 1.382 1_655 S
C79 H83 0.950 . S
H80 C75 0.949 . S
C81 C76 1.399 . S
C81 C79 1.382 1_455 S
C81 H82 0.952 . S
H82 C81 0.952 . S
H83 C79 0.950 . S
H84 C85 0.949 . S
C85 H84 0.949 . S
C85 C86 1.395 . S
C85 C87 1.391 . S
C86 C85 1.395 . S
C86 C89 1.390 . S
C87 C85 1.391 . S
C87 C91 1.387 . S
C87 C92 1.491 . S
H88 C89 0.950 . S
C89 C86 1.390 . S
C89 H88 0.950 . S
C89 C90 1.378 . S
C90 C89 1.378 . S
C90 C91 1.409 . S
C91 C87 1.387 . S
C91 C90 1.409 . S
C91 H93 0.951 . S
C92 C87 1.491 . S
C92 C94 1.382 . S
C92 C96 1.404 . S
H93 C91 0.951 . S
C94 C92 1.382 . S
C94 C95 1.390 . S
C94 H99 0.949 . S
C95 C94 1.390 . S
C95 C100 1.399 . S
C96 C92 1.404 . S
C96 H97 0.950 . S
C96 C98 1.375 1_556 S
H97 C96 0.950 . S
C98 C96 1.375 1_554 S
C98 C100 1.382 1_554 S
C98 H102 0.950 . S
H99 C94 0.949 . S
C100 C95 1.399 . S
C100 C98 1.382 1_556 S
C100 H101 0.952 1_556 S
H101 C100 0.952 1_554 S
H102 C98 0.950 . S
H103 C104 0.949 . S
C104 H103 0.949 . S
C104 C105 1.395 . S
C104 C106 1.391 . S
C105 C104 1.395 . S
C105 C108 1.390 . S
C106 C104 1.391 . S
C106 C110 1.387 . S
C106 C111 1.491 . S
H107 C108 0.950 . S
C108 C105 1.390 . S
C108 H107 0.950 . S
C108 C109 1.378 . S
C109 C108 1.378 . S
C109 C110 1.409 . S
C110 C106 1.387 . S
C110 C109 1.409 . S
C110 H112 0.951 . S
C111 C106 1.491 . S
C111 C113 1.382 . S
C111 C115 1.404 . S
H112 C110 0.951 . S
C113 C111 1.382 . S
C113 C114 1.390 . S
C113 H118 0.949 . S
C114 C113 1.390 . S
C114 C119 1.399 . S
C115 C111 1.404 . S
C115 H116 0.950 . S
C115 C117 1.380 . S
H116 C115 0.950 . S
C117 C115 1.380 . S
C117 C119 1.383 . S
C117 H121 0.944 1_554 S
H118 C113 0.949 . S
C119 C114 1.399 . S
C119 C117 1.383 . S
C119 H120 0.952 1_554 S
H120 C119 0.952 1_556 S
H121 C117 0.944 1_556 S
H122 C128 0.930 . S
H123 C132 0.930 . S
H124 C137 0.929 . S
H125 C135 0.929 . S
H126 C130 0.929 . S
H127 C136 0.929 . S
C128 H122 0.930 . S
C128 C129 1.367 . S
C128 C136 1.378 . S
C129 C128 1.367 . S
C129 C137 1.433 . S
C130 H126 0.929 . S
C130 C132 1.378 . S
C130 C134 1.350 . S
C131 C134 1.463 . S
C131 C136 1.350 . S
C131 N139 1.427 . S
C132 H123 0.930 . S
C132 C130 1.378 . S
C132 C133 1.367 . S
C133 C132 1.367 . S
C133 C135 1.433 . S
C134 C130 1.350 . S
C134 C131 1.463 . S
C134 N138 1.427 . S
C135 H125 0.929 . S
C135 C133 1.433 . S
C135 N138 1.384 . S
C136 H127 0.929 . S
C136 C128 1.378 . S
C136 C131 1.350 . S
C137 H124 0.929 . S
C137 C129 1.433 . S
C137 N139 1.384 . S
N138 C134 1.427 . S
N138 C135 1.384 . S
N139 C131 1.427 . S
N139 C137 1.384 . S
H140 C146 0.930 . S
H141 C150 0.930 1_554 S
H142 C155 0.929 . S
H143 C153 0.929 . S
H144 C148 0.929 1_554 S
H145 C154 0.929 . S
C146 H140 0.930 . S
C146 C147 1.367 . S
C146 C154 1.378 . S
C147 C146 1.367 . S
C147 C155 1.433 1_556 S
C148 H144 0.929 1_556 S
C148 C150 1.378 . S
C148 C152 1.350 . S
C149 C152 1.463 . S
C149 C154 1.350 . S
C149 N157 1.427 1_556 S
C150 H141 0.930 1_556 S
C150 C148 1.378 . S
C150 C151 1.367 . S
C151 C150 1.367 . S
C151 C153 1.433 . S
C152 C148 1.350 . S
C152 C149 1.463 . S
C152 N156 1.427 . S
C153 H143 0.929 . S
C153 C151 1.433 . S
C153 N156 1.384 . S
C154 H145 0.929 . S
C154 C146 1.378 . S
C154 C149 1.350 . S
C155 H142 0.929 . S
C155 C147 1.433 1_554 S
C155 N157 1.384 . S
N156 C152 1.427 . S
N156 C153 1.384 . S
N157 C149 1.427 1_554 S
N157 C155 1.384 . S
H158 C164 0.930 . S
H159 C168 0.930 1_556 S
H160 C173 0.929 . S
H161 C171 0.929 . S
H162 C166 0.929 1_556 S
H163 C172 0.929 . S
C164 H158 0.930 . S
C164 C165 1.367 . S
C164 C172 1.378 . S
C165 C164 1.367 . S
C165 C173 1.433 1_554 S
C166 H162 0.929 1_554 S
C166 C168 1.378 . S
C166 C170 1.350 . S
C167 C170 1.463 . S
C167 C172 1.350 . S
C167 N175 1.427 1_554 S
C168 H159 0.930 1_554 S
C168 C166 1.378 . S
C168 C169 1.367 . S
C169 C168 1.367 . S
C169 C171 1.433 . S
C170 C166 1.350 . S
C170 C167 1.463 . S
C170 N174 1.427 . S
C171 H161 0.929 . S
C171 C169 1.433 . S
C171 N174 1.384 . S
C172 H163 0.929 . S
C172 C164 1.378 . S
C172 C167 1.350 . S
C173 H160 0.929 . S
C173 C165 1.433 1_556 S
C173 N175 1.384 . S
N174 C170 1.427 . S
N174 C171 1.384 . S
N175 C167 1.427 1_556 S
N175 C173 1.384 . S
H176 C182 0.930 1_554 S
H177 C186 0.930 . S
H178 C191 0.929 . S
H179 C189 0.929 . S
H180 C184 0.929 . S
H181 C190 0.929 1_554 S
C182 H176 0.930 1_556 S
C182 C183 1.367 . S
C182 C190 1.378 . S
C183 C182 1.367 . S
C183 C191 1.433 . S
C184 H180 0.929 . S
C184 C186 1.378 . S
C184 C188 1.350 . S
C185 C188 1.463 . S
C185 C190 1.350 . S
C185 N193 1.427 . S
C186 H177 0.930 . S
C186 C184 1.378 . S
C186 C187 1.367 . S
C187 C186 1.367 . S
C187 C189 1.433 . S
C188 C184 1.350 . S
C188 C185 1.463 . S
C188 N192 1.427 . S
C189 H179 0.929 . S
C189 C187 1.433 . S
C189 N192 1.384 . S
C190 H181 0.929 1_556 S
C190 C182 1.378 . S
C190 C185 1.350 . S
C191 H178 0.929 . S
C191 C183 1.433 . S
C191 N193 1.384 . S
N192 C188 1.427 . S
N192 C189 1.384 . S
N193 C185 1.427 . S
N193 C191 1.384 . S
H194 C200 0.930 . S
H195 C204 0.930 . S
H196 C209 0.929 . S
H197 C207 0.929 . S
H198 C202 0.929 . S
H199 C208 0.929 . S
C200 H194 0.930 . S
C200 C201 1.367 . S
C200 C208 1.378 . S
C201 C200 1.367 . S
C201 C209 1.433 . S
C202 H198 0.929 . S
C202 C204 1.378 . S
C202 C206 1.350 . S
C203 C206 1.463 . S
C203 C208 1.350 . S
C203 N211 1.427 . S
C204 H195 0.930 . S
C204 C202 1.378 . S
C204 C205 1.367 . S
C205 C204 1.367 . S
C205 C207 1.433 . S
C206 C202 1.350 . S
C206 C203 1.463 . S
C206 N210 1.427 . S
C207 H197 0.929 . S
C207 C205 1.433 . S
C207 N210 1.384 . S
C208 H199 0.929 . S
C208 C200 1.378 . S
C208 C203 1.350 . S
C209 H196 0.929 . S
C209 C201 1.433 . S
C209 N211 1.384 . S
N210 C206 1.427 . S
N210 C207 1.384 . S
N211 C203 1.427 . S
N211 C209 1.384 . S
H212 C218 0.930 . S
H213 C222 0.930 . S
H214 C227 0.929 . S
H215 C225 0.929 . S
H216 C220 0.929 . S
H217 C226 0.929 . S
C218 H212 0.930 . S
C218 C219 1.367 . S
C218 C226 1.378 . S
C219 C218 1.367 . S
C219 C227 1.433 . S
C220 H216 0.929 . S
C220 C222 1.378 . S
C220 C224 1.350 . S
C221 C224 1.463 . S
C221 C226 1.350 . S
C221 N229 1.427 . S
C222 H213 0.930 . S
C222 C220 1.378 . S
C222 C223 1.367 . S
C223 C222 1.367 . S
C223 C225 1.433 . S
C224 C220 1.350 . S
C224 C221 1.463 . S
C224 N228 1.427 . S
C225 H215 0.929 . S
C225 C223 1.433 . S
C225 N228 1.384 . S
C226 H217 0.929 . S
C226 C218 1.378 . S
C226 C221 1.350 . S
C227 H214 0.929 . S
C227 C219 1.433 . S
C227 N229 1.384 . S
N228 C224 1.427 . S
N228 C225 1.384 . S
N229 C221 1.427 . S
N229 C227 1.384 . S
H230 C236 0.930 . S
H231 C240 0.930 . S
H232 C245 0.929 . S
H233 C243 0.929 . S
H234 C238 0.929 . S
H235 C244 0.929 . S
C236 H230 0.930 . S
C236 C237 1.367 . S
C236 C244 1.378 . S
C237 C236 1.367 . S
C237 C245 1.433 . S
C238 H234 0.929 . S
C238 C240 1.378 . S
C238 C242 1.350 . S
C239 C242 1.463 . S
C239 C244 1.350 . S
C239 N247 1.427 . S
C240 H231 0.930 . S
C240 C238 1.378 . S
C240 C241 1.367 . S
C241 C240 1.367 . S
C241 C243 1.433 . S
C242 C238 1.350 . S
C242 C239 1.463 . S
C242 N246 1.427 . S
C243 H233 0.929 . S
C243 C241 1.433 . S
C243 N246 1.384 . S
C244 H235 0.929 . S
C244 C236 1.378 . S
C244 C239 1.350 . S
C245 H232 0.929 . S
C245 C237 1.433 . S
C245 N247 1.384 . S
N246 C242 1.427 . S
N246 C243 1.384 . S
N247 C239 1.427 . S
N247 C245 1.384 . S
H248 C254 0.930 . S
H249 C258 0.930 . S
H250 C263 0.929 . S
H251 C261 0.929 . S
H252 C256 0.929 . S
H253 C262 0.929 . S
C254 H248 0.930 . S
C254 C255 1.367 . S
C254 C262 1.378 . S
C255 C254 1.367 . S
C255 C263 1.433 . S
C256 H252 0.929 . S
C256 C258 1.378 . S
C256 C260 1.350 . S
C257 C260 1.463 . S
C257 C262 1.350 . S
C257 N265 1.427 . S
C258 H249 0.930 . S
C258 C256 1.378 . S
C258 C259 1.367 . S
C259 C258 1.367 . S
C259 C261 1.433 . S
C260 C256 1.350 . S
C260 C257 1.463 . S
C260 N264 1.427 . S
C261 H251 0.929 . S
C261 C259 1.433 . S
C261 N264 1.384 . S
C262 H253 0.929 . S
C262 C254 1.378 . S
C262 C257 1.350 . S
C263 H250 0.929 . S
C263 C255 1.433 . S
C263 N265 1.384 . S
N264 C260 1.427 . S
N264 C261 1.384 . S
N265 C257 1.427 . S
N265 C263 1.384 . S
H266 C272 0.930 . S
H267 C276 0.931 . S
H268 C281 0.929 1_655 S
H269 C279 0.929 . S
H270 C274 0.927 1_655 S
H271 C280 0.929 . S
C272 H266 0.930 . S
C272 C273 1.367 1_565 S
C272 C280 1.378 . S
C273 C272 1.367 1_545 S
C273 C281 1.433 . S
C274 H270 0.927 1_455 S
C274 C276 1.376 1_455 S
C274 C278 1.353 . S
C275 C278 1.463 . S
C275 C280 1.350 1_545 S
C275 N283 1.427 . S
C276 H267 0.931 . S
C276 C274 1.376 1_655 S
C276 C277 1.366 1_655 S
C277 C276 1.366 1_455 S
C277 C279 1.433 1_545 S
C278 C274 1.353 . S
C278 C275 1.463 . S
C278 N282 1.427 1_545 S
C279 H269 0.929 . S
C279 C277 1.433 1_565 S
C279 N282 1.384 . S
C280 H271 0.929 . S
C280 C272 1.378 . S
C280 C275 1.350 1_565 S
C281 H268 0.929 1_455 S
C281 C273 1.433 . S
C281 N283 1.384 . S
N282 C278 1.427 1_565 S
N282 C279 1.384 . S
N283 C275 1.427 . S
N283 C281 1.384 . S
H284 C290 0.930 . S
H285 C294 0.930 . S
H286 C299 0.929 . S
H287 C297 0.929 . S
H288 C292 0.929 . S
H289 C298 0.929 . S
C290 H284 0.930 . S
C290 C291 1.367 1_455 S
C290 C298 1.378 . S
C291 C290 1.367 1_655 S
C291 C299 1.433 1_545 S
C292 H288 0.929 . S
C292 C294 1.378 . S
C292 C296 1.350 1_565 S
C293 C296 1.463 . S
C293 C298 1.350 1_655 S
C293 N301 1.427 1_545 S
C294 H285 0.930 . S
C294 C292 1.378 . S
C294 C295 1.367 1_565 S
C295 C294 1.367 1_545 S
C295 C297 1.433 1_655 S
C296 C292 1.350 1_545 S
C296 C293 1.463 . S
C296 N300 1.427 1_655 S
C297 H287 0.929 . S
C297 C295 1.433 1_455 S
C297 N300 1.384 . S
C298 H289 0.929 . S
C298 C290 1.378 . S
C298 C293 1.350 1_455 S
C299 H286 0.929 . S
C299 C291 1.433 1_565 S
C299 N301 1.384 . S
N300 C296 1.427 1_455 S
N300 C297 1.384 . S
N301 C293 1.427 1_565 S
N301 C299 1.384 . S
H302 C308 0.930 . S
H303 C312 0.930 . S
H304 C317 0.929 . S
H305 C315 0.929 . S
H306 C310 0.929 . S
H307 C316 0.929 . S
C308 H302 0.930 . S
C308 C309 1.367 . S
C308 C316 1.378 . S
C309 C308 1.367 . S
C309 C317 1.433 . S
C310 H306 0.929 . S
C310 C312 1.378 . S
C310 C314 1.350 . S
C311 C314 1.463 . S
C311 C316 1.350 . S
C311 N319 1.427 . S
C312 H303 0.930 . S
C312 C310 1.378 . S
C312 C313 1.367 . S
C313 C312 1.367 . S
C313 C315 1.433 . S
C314 C310 1.350 . S
C314 C311 1.463 . S
C314 N318 1.427 . S
C315 H305 0.929 . S
C315 C313 1.433 . S
C315 N318 1.384 . S
C316 H307 0.929 . S
C316 C308 1.378 . S
C316 C311 1.350 . S
C317 H304 0.929 . S
C317 C309 1.433 . S
C317 N319 1.384 . S
N318 C314 1.427 . S
N318 C315 1.384 . S
N319 C311 1.427 . S
N319 C317 1.384 . S
H320 C326 0.930 . S
H321 C330 0.930 . S
H322 C335 0.929 . S
H323 C333 0.929 . S
H324 C328 0.929 . S
H325 C334 0.929 . S
C326 H320 0.930 . S
C326 C327 1.367 . S
C326 C334 1.378 . S
C327 C326 1.367 . S
C327 C335 1.433 . S
C328 H324 0.929 . S
C328 C330 1.378 . S
C328 C332 1.350 . S
C329 C332 1.463 . S
C329 C334 1.350 . S
C329 N337 1.427 . S
C330 H321 0.930 . S
C330 C328 1.378 . S
C330 C331 1.367 . S
C331 C330 1.367 . S
C331 C333 1.433 . S
C332 C328 1.350 . S
C332 C329 1.463 . S
C332 N336 1.427 . S
C333 H323 0.929 . S
C333 C331 1.433 . S
C333 N336 1.384 . S
C334 H325 0.929 . S
C334 C326 1.378 . S
C334 C329 1.350 . S
C335 H322 0.929 . S
C335 C327 1.433 . S
C335 N337 1.384 . S
N336 C332 1.427 . S
N336 C333 1.384 . S
N337 C329 1.427 . S
N337 C335 1.384 . S
C133 C109 1.591 . S
C129 C21 1.583 . S
C147 C19 1.405 . S
C151 C95 1.349 . S
C165 C18 1.366 . S
C169 C114 1.329 . S
C183 C20 1.558 . S
C187 C90 1.574 . S
C201 C44 1.584 . S
C205 C71 1.592 . S
C219 C42 1.401 . S
C223 C57 1.359 . S
C241 C76 1.327 . S
C237 C41 1.371 . S
C259 C52 1.576 . S
C255 C43 1.557 . S
C273 C16 1.561 . S
C277 C48 1.553 1_545 S
C291 C17 1.521 . S
C295 C67 1.507 1_545 S
C313 C86 1.548 . S
C309 C39 1.560 . S
C327 C40 1.521 . S
C331 C105 1.513 . S
