# Generated by pormake.
# Topology ctn, (3,4)-cn, num edge types: 1
# Building blocks:
#     Node 0, Type 0, BuildingBlock: CUQRIR_clean_linker_1, # of connection points: 3
#     Node 1, Type 0, BuildingBlock: CUQRIR_clean_linker_1, # of connection points: 3
#     Node 2, Type 0, BuildingBlock: CUQRIR_clean_linker_1, # of connection points: 3
#     Node 3, Type 0, BuildingBlock: CUQRIR_clean_linker_1, # of connection points: 3
#     Node 4, Type 0, BuildingBlock: CUQRIR_clean_linker_1, # of connection points: 3
#     Node 5, Type 0, BuildingBlock: CUQRIR_clean_linker_1, # of connection points: 3
#     Node 6, Type 0, BuildingBlock: CUQRIR_clean_linker_1, # of connection points: 3
#     Node 7, Type 0, BuildingBlock: CUQRIR_clean_linker_1, # of connection points: 3
#     Node 8, Type 0, BuildingBlock: CUQRIR_clean_linker_1, # of connection points: 3
#     Node 9, Type 0, BuildingBlock: CUQRIR_clean_linker_1, # of connection points: 3
#     Node 10, Type 0, BuildingBlock: CUQRIR_clean_linker_1, # of connection points: 3
#     Node 11, Type 0, BuildingBlock: CUQRIR_clean_linker_1, # of connection points: 3
#     Node 12, Type 0, BuildingBlock: CUQRIR_clean_linker_1, # of connection points: 3
#     Node 13, Type 0, BuildingBlock: CUQRIR_clean_linker_1, # of connection points: 3
#     Node 14, Type 0, BuildingBlock: CUQRIR_clean_linker_1, # of connection points: 3
#     Node 15, Type 0, BuildingBlock: CUQRIR_clean_linker_1, # of connection points: 3
#     Node 16, Type 1, BuildingBlock: QUQFOY_clean_sbu_1, # of connection points: 4
#     Node 17, Type 1, BuildingBlock: QUQFOY_clean_sbu_1, # of connection points: 4
#     Node 18, Type 1, BuildingBlock: QUQFOY_clean_sbu_1, # of connection points: 4
#     Node 19, Type 1, BuildingBlock: QUQFOY_clean_sbu_1, # of connection points: 4
#     Node 20, Type 1, BuildingBlock: QUQFOY_clean_sbu_1, # of connection points: 4
#     Node 21, Type 1, BuildingBlock: QUQFOY_clean_sbu_1, # of connection points: 4
#     Node 22, Type 1, BuildingBlock: QUQFOY_clean_sbu_1, # of connection points: 4
#     Node 23, Type 1, BuildingBlock: QUQFOY_clean_sbu_1, # of connection points: 4
#     Node 24, Type 1, BuildingBlock: QUQFOY_clean_sbu_1, # of connection points: 4
#     Node 25, Type 1, BuildingBlock: QUQFOY_clean_sbu_1, # of connection points: 4
#     Node 26, Type 1, BuildingBlock: QUQFOY_clean_sbu_1, # of connection points: 4
#     Node 27, Type 1, BuildingBlock: QUQFOY_clean_sbu_1, # of connection points: 4
#     Edge 28, Type (0, 1), BuildingBlock: XUDNAN_clean_linker_2, # of connection points: 2
#     Edge 29, Type (0, 1), BuildingBlock: XUDNAN_clean_linker_2, # of connection points: 2
#     Edge 30, Type (0, 1), BuildingBlock: XUDNAN_clean_linker_2, # of connection points: 2
#     Edge 31, Type (0, 1), BuildingBlock: XUDNAN_clean_linker_2, # of connection points: 2
#     Edge 32, Type (0, 1), BuildingBlock: XUDNAN_clean_linker_2, # of connection points: 2
#     Edge 33, Type (0, 1), BuildingBlock: XUDNAN_clean_linker_2, # of connection points: 2
#     Edge 34, Type (0, 1), BuildingBlock: XUDNAN_clean_linker_2, # of connection points: 2
#     Edge 35, Type (0, 1), BuildingBlock: XUDNAN_clean_linker_2, # of connection points: 2
#     Edge 36, Type (0, 1), BuildingBlock: XUDNAN_clean_linker_2, # of connection points: 2
#     Edge 37, Type (0, 1), BuildingBlock: XUDNAN_clean_linker_2, # of connection points: 2
#     Edge 38, Type (0, 1), BuildingBlock: XUDNAN_clean_linker_2, # of connection points: 2
#     Edge 39, Type (0, 1), BuildingBlock: XUDNAN_clean_linker_2, # of connection points: 2
#     Edge 40, Type (0, 1), BuildingBlock: XUDNAN_clean_linker_2, # of connection points: 2
#     Edge 41, Type (0, 1), BuildingBlock: XUDNAN_clean_linker_2, # of connection points: 2
#     Edge 42, Type (0, 1), BuildingBlock: XUDNAN_clean_linker_2, # of connection points: 2
#     Edge 43, Type (0, 1), BuildingBlock: XUDNAN_clean_linker_2, # of connection points: 2
#     Edge 44, Type (0, 1), BuildingBlock: XUDNAN_clean_linker_2, # of connection points: 2
#     Edge 45, Type (0, 1), BuildingBlock: XUDNAN_clean_linker_2, # of connection points: 2
#     Edge 46, Type (0, 1), BuildingBlock: XUDNAN_clean_linker_2, # of connection points: 2
#     Edge 47, Type (0, 1), BuildingBlock: XUDNAN_clean_linker_2, # of connection points: 2
#     Edge 48, Type (0, 1), BuildingBlock: XUDNAN_clean_linker_2, # of connection points: 2
#     Edge 49, Type (0, 1), BuildingBlock: XUDNAN_clean_linker_2, # of connection points: 2
#     Edge 50, Type (0, 1), BuildingBlock: XUDNAN_clean_linker_2, # of connection points: 2
#     Edge 51, Type (0, 1), BuildingBlock: XUDNAN_clean_linker_2, # of connection points: 2
#     Edge 52, Type (0, 1), BuildingBlock: XUDNAN_clean_linker_2, # of connection points: 2
#     Edge 53, Type (0, 1), BuildingBlock: XUDNAN_clean_linker_2, # of connection points: 2
#     Edge 54, Type (0, 1), BuildingBlock: XUDNAN_clean_linker_2, # of connection points: 2
#     Edge 55, Type (0, 1), BuildingBlock: XUDNAN_clean_linker_2, # of connection points: 2
#     Edge 56, Type (0, 1), BuildingBlock: XUDNAN_clean_linker_2, # of connection points: 2
#     Edge 57, Type (0, 1), BuildingBlock: XUDNAN_clean_linker_2, # of connection points: 2
#     Edge 58, Type (0, 1), BuildingBlock: XUDNAN_clean_linker_2, # of connection points: 2
#     Edge 59, Type (0, 1), BuildingBlock: XUDNAN_clean_linker_2, # of connection points: 2
#     Edge 60, Type (0, 1), BuildingBlock: XUDNAN_clean_linker_2, # of connection points: 2
#     Edge 61, Type (0, 1), BuildingBlock: XUDNAN_clean_linker_2, # of connection points: 2
#     Edge 62, Type (0, 1), BuildingBlock: XUDNAN_clean_linker_2, # of connection points: 2
#     Edge 63, Type (0, 1), BuildingBlock: XUDNAN_clean_linker_2, # of connection points: 2
#     Edge 64, Type (0, 1), BuildingBlock: XUDNAN_clean_linker_2, # of connection points: 2
#     Edge 65, Type (0, 1), BuildingBlock: XUDNAN_clean_linker_2, # of connection points: 2
#     Edge 66, Type (0, 1), BuildingBlock: XUDNAN_clean_linker_2, # of connection points: 2
#     Edge 67, Type (0, 1), BuildingBlock: XUDNAN_clean_linker_2, # of connection points: 2
#     Edge 68, Type (0, 1), BuildingBlock: XUDNAN_clean_linker_2, # of connection points: 2
#     Edge 69, Type (0, 1), BuildingBlock: XUDNAN_clean_linker_2, # of connection points: 2
#     Edge 70, Type (0, 1), BuildingBlock: XUDNAN_clean_linker_2, # of connection points: 2
#     Edge 71, Type (0, 1), BuildingBlock: XUDNAN_clean_linker_2, # of connection points: 2
#     Edge 72, Type (0, 1), BuildingBlock: XUDNAN_clean_linker_2, # of connection points: 2
#     Edge 73, Type (0, 1), BuildingBlock: XUDNAN_clean_linker_2, # of connection points: 2
#     Edge 74, Type (0, 1), BuildingBlock: XUDNAN_clean_linker_2, # of connection points: 2
#     Edge 75, Type (0, 1), BuildingBlock: XUDNAN_clean_linker_2, # of connection points: 2
# Relax obj value: 0.108
# Max RMSD: 0.206
# Mean RMSD: 0.154
data_MOF--net-ctn--node1-QUQFOY_clean_sbu_1--node2-CUQRIR_clean_linker_1--edge1-XUDNAN_clean_linker_2
_symmetry_space_group_name_H-M    P1
_symmetry_Int_Tables_number       1
_symmetry_cell_setting            triclinic
loop_
_symmetry_equiv_pos_as_xyz
'x, y, z'
_cell_length_a     52.349069
_cell_length_b     48.35077
_cell_length_c     49.907463
_cell_angle_alpha  100.34585
_cell_angle_beta   88.684248
_cell_angle_gamma 98.242096
loop_
_atom_site_label
_atom_site_type_symbol
_atom_site_fract_x
_atom_site_fract_y
_atom_site_fract_z
_atom_type_partial_charge
C0 C 0.03108 0.04444 0.10122 0.0
N1 N 0.04606 0.05215 0.08048 0.0
N2 N 0.00823 0.05459 0.10163 0.0
C3 C 0.03887 0.0278 0.12171 0.0
C4 C 0.00976 0.06844 0.08029 0.0
N5 N 0.03277 0.06718 0.06749 0.0
C6 C 0.98849 0.08287 0.07159 0.0
H7 H 0.03428 0.03818 0.1426 0.0
H8 H 0.0596 0.02541 0.12056 0.0
H9 H 0.02756 0.00625 0.11789 0.0
H10 H 0.99121 0.10548 0.08168 0.0
H11 H 0.96935 0.07269 0.07752 0.0
H12 H 0.98894 0.0821 0.04923 0.0
C13 C 0.28675 0.76942 0.24276 0.0
N14 N 0.29091 0.75666 0.26395 0.0
N15 N 0.30793 0.78744 0.23793 0.0
C16 C 0.26281 0.76231 0.22527 0.0
C17 C 0.32528 0.78484 0.25681 0.0
N18 N 0.31497 0.7659 0.2726 0.0
C19 C 0.35131 0.80274 0.26134 0.0
H20 H 0.26744 0.76449 0.20388 0.0
H21 H 0.24896 0.77712 0.23327 0.0
H22 H 0.25334 0.74031 0.22559 0.0
H23 H 0.35695 0.80662 0.28313 0.0
H24 H 0.35125 0.82343 0.25468 0.0
H25 H 0.36594 0.79147 0.2492 0.0
C26 C 0.96743 0.52297 0.07883 0.0
N27 N 0.98299 0.50356 0.08169 0.0
N28 N 0.94849 0.51149 0.06044 0.0
C29 C 0.97187 0.5537 0.09234 0.0
C30 C 0.95301 0.4843 0.05247 0.0
N31 N 0.97391 0.4794 0.06548 0.0
C32 C 0.93851 0.46328 0.03006 0.0
H33 H 0.95338 0.5623 0.09625 0.0
H34 H 0.98355 0.56617 0.0786 0.0
H35 H 0.98239 0.55646 0.1119 0.0
H36 H 0.95125 0.45975 0.01206 0.0
H37 H 0.92073 0.47072 0.02414 0.0
H38 H 0.93295 0.4426 0.03675 0.0
C39 C 0.68451 0.7663 0.23339 0.0
N40 N 0.70887 0.77923 0.23075 0.0
N41 N 0.67638 0.77239 0.25946 0.0
C42 C 0.66837 0.74861 0.21029 0.0
C43 C 0.69665 0.78974 0.27251 0.0
N44 N 0.71652 0.79371 0.2551 0.0
C45 C 0.69574 0.80574 0.30132 0.0
H46 H 0.66005 0.76292 0.19889 0.0
H47 H 0.65241 0.73438 0.21792 0.0
H48 H 0.6805 0.73576 0.19598 0.0
H49 H 0.70314 0.79325 0.31529 0.0
H50 H 0.67575 0.80902 0.30749 0.0
H51 H 0.7079 0.8268 0.30373 0.0
C52 C 0.03485 0.9887 0.49627 0.0
N53 N 0.05517 0.99441 0.51385 0.0
N54 N 0.03947 0.00347 0.47564 0.0
C55 C 0.01164 0.9666 0.49748 0.0
C56 C 0.06333 0.01807 0.48094 0.0
N57 N 0.07303 0.0123 0.50389 0.0
C58 C 0.07651 0.03941 0.46467 0.0
H59 H 0.01673 0.94877 0.50656 0.0
H60 H 0.00345 0.95803 0.47686 0.0
H61 H 0.99656 0.97646 0.51021 0.0
H62 H 0.06227 0.04811 0.4536 0.0
H63 H 0.08952 0.02881 0.44959 0.0
H64 H 0.08836 0.05721 0.47805 0.0
C65 C 0.17987 0.74863 0.81978 0.0
N66 N 0.19818 0.73891 0.8329 0.0
N67 N 0.18402 0.74401 0.79263 0.0
C68 C 0.15927 0.76497 0.83347 0.0
C69 C 0.2056 0.73144 0.78955 0.0
N70 N 0.21443 0.72858 0.8141 0.0
C71 C 0.21704 0.72056 0.76246 0.0
H72 H 0.14279 0.74975 0.8387 0.0
H73 H 0.15209 0.77804 0.81993 0.0
H74 H 0.16675 0.77907 0.85253 0.0
H75 H 0.23283 0.7368 0.75763 0.0
H76 H 0.20235 0.7165 0.74601 0.0
H77 H 0.2252 0.70073 0.76306 0.0
C78 C 0.94589 0.54648 0.46677 0.0
N79 N 0.96085 0.57056 0.46279 0.0
N80 N 0.92402 0.55252 0.48007 0.0
C81 C 0.95285 0.51709 0.45809 0.0
C82 C 0.92624 0.58122 0.48397 0.0
N83 N 0.94856 0.59222 0.47314 0.0
C84 C 0.90847 0.59875 0.50152 0.0
H85 H 0.93534 0.50093 0.45586 0.0
H86 H 0.96559 0.5126 0.47376 0.0
H87 H 0.96355 0.51553 0.43854 0.0
H88 H 0.91983 0.61623 0.51575 0.0
H89 H 0.89503 0.58592 0.51353 0.0
H90 H 0.89705 0.60852 0.48824 0.0
C91 C 0.76401 0.79962 0.81211 0.0
N92 N 0.78533 0.78645 0.80906 0.0
N93 N 0.76348 0.81644 0.7933 0.0
C94 C 0.74343 0.79563 0.83316 0.0
C95 C 0.78529 0.81322 0.77868 0.0
N96 N 0.79879 0.79507 0.78831 0.0
C97 C 0.79353 0.82821 0.75525 0.0
H98 H 0.74032 0.77331 0.83648 0.0
H99 H 0.72494 0.80145 0.82705 0.0
H100 H 0.74985 0.80947 0.85274 0.0
H101 H 0.80505 0.84905 0.76328 0.0
H102 H 0.77669 0.83228 0.7443 0.0
H103 H 0.80553 0.8156 0.74058 0.0
C104 C 0.27517 0.32533 0.31829 0.0
N105 N 0.29607 0.31135 0.31602 0.0
N106 N 0.27617 0.34265 0.29971 0.0
C107 C 0.25273 0.32053 0.33711 0.0
C108 C 0.29831 0.33882 0.28597 0.0
N109 N 0.3103 0.31943 0.29553 0.0
C110 C 0.30933 0.3563 0.26518 0.0
H111 H 0.2347 0.32498 0.3285 0.0
H112 H 0.25666 0.33516 0.35685 0.0
H113 H 0.24984 0.29838 0.34091 0.0
H114 H 0.30249 0.37734 0.26882 0.0
H115 H 0.30281 0.3451 0.24457 0.0
H116 H 0.33074 0.35959 0.26572 0.0
C117 C 0.46711 0.02602 0.57944 0.0
N118 N 0.47924 0.00421 0.58376 0.0
N119 N 0.44687 0.0164 0.56219 0.0
C120 C 0.47622 0.05687 0.59022 0.0
C121 C 0.44717 0.988 0.55628 0.0
N122 N 0.46669 0.98057 0.56944 0.0
C123 C 0.4292 0.9676 0.53646 0.0
H124 H 0.45967 0.06895 0.59434 0.0
H125 H 0.48855 0.06594 0.57465 0.0
H126 H 0.48763 0.05952 0.6092 0.0
H127 H 0.43833 0.96485 0.51605 0.0
H128 H 0.41062 0.97577 0.53497 0.0
H129 H 0.42555 0.94651 0.54275 0.0
C130 C 0.22058 0.26652 0.75096 0.0
N131 N 0.24033 0.28481 0.74326 0.0
N132 N 0.21316 0.27611 0.77672 0.0
C133 C 0.20683 0.24098 0.73244 0.0
C134 C 0.22888 0.30091 0.78434 0.0
N135 N 0.24524 0.30638 0.76395 0.0
C136 C 0.2286 0.31921 0.81211 0.0
H137 H 0.20545 0.24542 0.7115 0.0
H138 H 0.18717 0.23448 0.73996 0.0
H139 H 0.21807 0.22305 0.73147 0.0
H140 H 0.22145 0.30618 0.82764 0.0
H141 H 0.21539 0.33516 0.81179 0.0
H142 H 0.24817 0.33055 0.81799 0.0
C143 C 0.78477 0.24945 0.75495 0.0
N144 N 0.79741 0.23392 0.76873 0.0
N145 N 0.79578 0.27691 0.75951 0.0
C146 C 0.76214 0.23773 0.73627 0.0
C147 C 0.8157 0.27752 0.77659 0.0
N148 N 0.81649 0.25134 0.7825 0.0
C149 C 0.83596 0.30272 0.78508 0.0
H150 H 0.76942 0.2299 0.71565 0.0
H151 H 0.75003 0.25443 0.73471 0.0
H152 H 0.75018 0.2197 0.74358 0.0
H153 H 0.83787 0.30708 0.8076 0.0
H154 H 0.83122 0.32191 0.77808 0.0
H155 H 0.85486 0.29773 0.77651 0.0
C156 C 0.52587 0.54463 0.59974 0.0
N157 N 0.54106 0.5531 0.57954 0.0
N158 N 0.50508 0.55864 0.60363 0.0
C159 C 0.53173 0.52301 0.61609 0.0
C160 C 0.50818 0.57608 0.58501 0.0
N161 N 0.53019 0.57294 0.57058 0.0
C162 C 0.49082 0.59777 0.58217 0.0
H163 H 0.51379 0.51261 0.62447 0.0
H164 H 0.54469 0.53376 0.63328 0.0
H165 H 0.5418 0.50665 0.60333 0.0
H166 H 0.47108 0.5923 0.58969 0.0
H167 H 0.48956 0.60016 0.56056 0.0
H168 H 0.49906 0.61858 0.59422 0.0
C169 C 0.50821 0.52312 0.03397 0.0
N170 N 0.5319 0.51942 0.04208 0.0
N171 N 0.51003 0.54508 0.02027 0.0
C172 C 0.48322 0.50498 0.03874 0.0
C173 C 0.53558 0.55486 0.02057 0.0
N174 N 0.54887 0.53959 0.03416 0.0
C175 C 0.54785 0.57809 0.00593 0.0
H176 H 0.47922 0.4874 0.02109 0.0
H177 H 0.46688 0.51743 0.04063 0.0
H178 H 0.48421 0.49587 0.05751 0.0
H179 H 0.55661 0.5965 0.02104 0.0
H180 H 0.53372 0.58563 0.99373 0.0
H181 H 0.56352 0.57046 0.99249 0.0
C182 C 0.68104 0.22595 0.33871 0.0
N183 N 0.70136 0.22052 0.35227 0.0
N184 N 0.67844 0.20923 0.31384 0.0
C185 C 0.66239 0.24593 0.3505 0.0
C186 C 0.69767 0.19311 0.31283 0.0
N187 N 0.71154 0.19987 0.33625 0.0
C188 C 0.70321 0.17122 0.28877 0.0
H189 H 0.64285 0.23861 0.34157 0.0
H190 H 0.66919 0.26731 0.34571 0.0
H191 H 0.66111 0.24773 0.37295 0.0
H192 H 0.69661 0.17645 0.26955 0.0
H193 H 0.69266 0.15027 0.29138 0.0
H194 H 0.72409 0.16942 0.28729 0.0
C195 C 0.44387 0.05907 0.93725 0.0
N196 N 0.46412 0.08011 0.94252 0.0
N197 N 0.42462 0.06401 0.95521 0.0
C198 C 0.44277 0.0338 0.91463 0.0
C199 C 0.43374 0.0887 0.97157 0.0
N200 N 0.45764 0.09878 0.9636 0.0
C201 C 0.41995 0.102 0.99634 0.0
H202 H 0.42251 0.02455 0.90923 0.0
H203 H 0.45253 0.01735 0.92145 0.0
H204 H 0.45297 0.03982 0.89634 0.0
H205 H 0.43366 0.10958 0.01361 0.0
H206 H 0.40383 0.08698 0.00255 0.0
H207 H 0.41194 0.12064 0.99166 0.0
O208 O 0.25063 0.86152 0.01669 0.0
Cd209 Cd 0.26599 0.89453 0.04659 0.0
Cd210 Cd 0.22272 0.91743 0.02692 0.0
O211 O 0.21271 0.87472 0.01065 0.0
O212 O 0.2942 0.878 0.0617 0.0
O213 O 0.26133 0.89145 0.08653 0.0
C214 C 0.28247 0.8804 0.08475 0.0
C215 C 0.19059 0.94567 0.04278 0.0
C216 C 0.2282 0.8564 0.0062 0.0
C217 C 0.2777 0.9432 0.01654 0.0
O218 O 0.25394 0.93954 0.01004 0.0
O219 O 0.28578 0.92941 0.03325 0.0
O220 O 0.19274 0.93546 0.0173 0.0
O221 O 0.20602 0.93893 0.0596 0.0
O222 O 0.17722 0.5745 0.30372 0.0
Cd223 Cd 0.15408 0.53754 0.30923 0.0
Cd224 Cd 0.11842 0.55552 0.27818 0.0
O225 O 0.14708 0.58995 0.28242 0.0
O226 O 0.17718 0.5137 0.32294 0.0
O227 O 0.15657 0.50085 0.28348 0.0
C228 C 0.17212 0.49531 0.30093 0.0
C229 C 0.09973 0.54161 0.23482 0.0
C230 C 0.16948 0.59364 0.29285 0.0
C231 C 0.10205 0.54763 0.33441 0.0
O232 O 0.09527 0.55277 0.31172 0.0
O233 O 0.12448 0.54134 0.33744 0.0
O234 O 0.09589 0.56489 0.25038 0.0
O235 O 0.11387 0.52552 0.24389 0.0
O236 O 0.77108 0.68845 0.97392 0.0
Cd237 Cd 0.7585 0.67478 0.00986 0.0
Cd238 Cd 0.78015 0.62593 0.98422 0.0
O239 O 0.78355 0.64858 0.95255 0.0
O240 O 0.7451 0.70885 0.03061 0.0
O241 O 0.77648 0.68994 0.04614 0.0
C242 C 0.76109 0.7089 0.04982 0.0
C243 C 0.81644 0.60687 0.99465 0.0
C244 C 0.77974 0.67399 0.95272 0.0
C245 C 0.72544 0.61614 0.00303 0.0
O246 O 0.74454 0.60478 0.99232 0.0
O247 O 0.72725 0.64299 0.01009 0.0
O248 O 0.80302 0.59637 0.97295 0.0
O249 O 0.80925 0.62836 0.01081 0.0
O250 O 0.905 0.0108 0.32206 0.0
Cd251 Cd 0.87707 0.01036 0.29329 0.0
Cd252 Cd 0.85163 0.02577 0.34054 0.0
O253 O 0.88606 0.02757 0.36028 0.0
O254 O 0.89671 1.00115 0.25904 0.0
O255 O 0.88105 0.0416 0.27081 0.0
C256 C 0.89404 0.02565 0.2538 0.0
C257 C 0.83202 0.06611 0.34108 0.0
C258 C 0.90563 0.01888 0.34777 0.0
C259 C 0.83173 0.96985 0.30628 0.0
O260 O 0.83121 0.98562 0.32951 0.0
O261 O 0.84713 0.97715 0.28797 0.0
O262 O 0.8286 0.0519 0.36077 0.0
O263 O 0.84674 0.05743 0.32107 0.0
O264 O 0.28105 0.20523 0.47679 0.0
Cd265 Cd 0.27009 0.19069 0.51277 0.0
Cd266 Cd 0.28834 0.14168 0.48385 0.0
O267 O 0.29277 0.1659 0.45336 0.0
O268 O 0.26062 0.22512 0.537 0.0
O269 O 0.29122 0.20166 0.54738 0.0
C270 C 0.27752 0.222 0.55415 0.0
C271 C 0.32354 0.12059 0.49377 0.0
C272 C 0.28926 0.19161 0.45484 0.0
C273 C 0.23456 0.13395 0.50586 0.0
O274 O 0.25219 0.12199 0.49253 0.0
O275 O 0.23794 0.16059 0.51456 0.0
O276 O 0.30996 0.11106 0.47199 0.0
O277 O 0.3172 0.14239 0.51019 0.0
O278 O 0.40811 0.55446 0.85024 0.0
Cd279 Cd 0.3921 0.54107 0.812 0.0
Cd280 Cd 0.34834 0.5518 0.83868 0.0
O281 O 0.37151 0.55686 0.87279 0.0
O282 O 0.42176 0.54103 0.78627 0.0
O283 O 0.38925 0.56513 0.7836 0.0
C284 C 0.41043 0.55688 0.77361 0.0
C285 C 0.32833 0.59028 0.83245 0.0
C286 C 0.39595 0.55814 0.87265 0.0
C287 C 0.3487 0.49302 0.80686 0.0
O288 O 0.33472 0.51085 0.81907 0.0
O289 O 0.37265 0.50054 0.80361 0.0
O290 O 0.31854 0.5733 0.84842 0.0
O291 O 0.34933 0.58503 0.81964 0.0
O292 O 0.73348 0.35651 0.54248 0.0
Cd293 Cd 0.74756 0.38896 0.57367 0.0
Cd294 Cd 0.71975 0.41993 0.54085 0.0
O295 O 0.71296 0.3798 0.51741 0.0
O296 O 0.76757 0.36783 0.59475 0.0
O297 O 0.73575 0.39004 0.61294 0.0
C298 C 0.75356 0.37485 0.61566 0.0
C299 C 0.68678 0.44796 0.55205 0.0
C300 C 0.7206 0.35701 0.52134 0.0
C301 C 0.77671 0.43802 0.54896 0.0
O302 O 0.75616 0.44151 0.5377 0.0
O303 O 0.77648 0.41929 0.56392 0.0
O304 O 0.69505 0.44256 0.5274 0.0
O305 O 0.69663 0.43671 0.5703 0.0
O306 O 0.68502 0.05247 0.80183 0.0
Cd307 Cd 0.65524 0.02066 0.80631 0.0
Cd308 Cd 0.63344 0.03961 0.76403 0.0
O309 O 0.67205 0.05539 0.76086 0.0
O310 O 0.67037 0.99224 0.82301 0.0
O311 O 0.65431 0.9832 0.78113 0.0
C312 C 0.66585 0.97482 0.80024 0.0
C313 C 0.61096 0.02858 0.72246 0.0
C314 C 0.6891 0.06139 0.77949 0.0
C315 C 0.60901 0.04873 0.82038 0.0
O316 O 0.61194 0.05606 0.79713 0.0
O317 O 0.62297 0.03184 0.82752 0.0
O318 O 0.61943 0.05431 0.73337 0.0
O319 O 0.61505 0.00857 0.73511 0.0
O320 O 0.99552 0.28012 0.96966 0.0
Cd321 Cd 0.98885 0.24001 0.94651 0.0
Cd322 Cd 0.01805 0.26307 0.90875 0.0
O323 O 0.02055 0.29864 0.93943 0.0
O324 O 0.98606 0.21218 0.97182 0.0
O325 O 0.01704 0.21537 0.94093 0.0
C326 C 0.00676 0.20371 0.9607 0.0
C327 C 0.05591 0.25631 0.88409 0.0
C328 C 0.00961 0.30123 0.96258 0.0
C329 C 0.96213 0.23791 0.89453 0.0
O330 O 0.98392 0.24925 0.88701 0.0
O331 O 0.95903 0.23235 0.91845 0.0
O332 O 0.04264 0.27596 0.88097 0.0
O333 O 0.04772 0.24023 0.90141 0.0
O334 O 0.47929 0.77279 0.47402 0.0
Cd335 Cd 0.47325 0.73441 0.44766 0.0
Cd336 Cd 0.49475 0.7666 0.41117 0.0
O337 O 0.49792 0.79874 0.44502 0.0
O338 O 0.47344 0.70538 0.47132 0.0
O339 O 0.50259 0.71134 0.43911 0.0
C340 C 0.49415 0.69862 0.4589 0.0
C341 C 0.52727 0.76719 0.37839 0.0
C342 C 0.48986 0.7966 0.4689 0.0
C343 C 0.43935 0.73666 0.40166 0.0
O344 O 0.45882 0.7522 0.39408 0.0
O345 O 0.44026 0.72653 0.4234 0.0
O346 O 0.51123 0.78533 0.3816 0.0
O347 O 0.52567 0.74911 0.39472 0.0
O348 O 0.97489 0.77716 0.68178 0.0
Cd349 Cd 0.00762 0.77825 0.65795 0.0
Cd350 Cd 0.985 0.81729 0.63881 0.0
O351 O 0.9601 0.81455 0.67179 0.0
O352 O 0.02941 0.75592 0.67529 0.0
O353 O 0.04173 0.80077 0.67163 0.0
C354 C 0.04657 0.77813 0.67971 0.0
C355 C 0.00835 0.85986 0.63067 0.0
C356 C 0.95857 0.79453 0.68545 0.0
C357 C 0.99031 0.76342 0.59985 0.0
O358 O 0.9793 0.78561 0.60443 0.0
O359 O 0.00389 0.75755 0.61828 0.0
O360 O 0.98378 0.85408 0.62639 0.0
O361 O 0.01952 0.84205 0.64107 0.0
O362 O 0.48584 0.28079 0.19461 0.0
Cd363 Cd 0.51824 0.27022 0.17245 0.0
Cd364 Cd 0.49456 0.30885 0.14013 0.0
O365 O 0.46674 0.30602 0.17013 0.0
O366 O 0.5262 0.23857 0.19 0.0
O367 O 0.55311 0.27827 0.19144 0.0
C368 C 0.54809 0.25324 0.19758 0.0
C369 C 0.50996 0.35284 0.12802 0.0
C370 C 0.46735 0.29415 0.19086 0.0
C371 C 0.50696 0.25247 0.11054 0.0
O372 O 0.4964 0.27434 0.10967 0.0
O373 O 0.51645 0.2487 0.13258 0.0
O374 O 0.48776 0.33907 0.11986 0.0
O375 O 0.52328 0.34212 0.14401 0.0
H376 H 0.24074 0.76595 0.86077 0.0
H377 H 0.16319 0.72424 0.87025 0.0
H378 H 0.16457 0.74483 0.91938 0.0
H379 H 0.2644 0.76032 0.93216 0.0
H380 H 0.2842 0.79442 0.93468 0.0
H381 H 0.27891 0.77141 0.90201 0.0
H382 H 0.26231 0.812 0.883 0.0
H383 H 0.26693 0.83489 0.91557 0.0
H384 H 0.23561 0.82792 0.8995 0.0
H385 H 0.17016 0.77984 0.96303 0.0
H386 H 0.18247 0.82043 1.00057 0.0
H387 H 0.25819 0.83555 0.96478 0.0
C388 C 0.22468 0.75998 0.87358 0.0
C389 C 0.20182 0.74374 0.86197 0.0
C390 C 0.18077 0.73686 0.87899 0.0
C391 C 0.18144 0.7484 0.90685 0.0
C392 C 0.20369 0.76598 0.91747 0.0
C393 C 0.2253 0.77094 0.90156 0.0
C394 C 0.24587 0.7926 0.91729 0.0
C395 C 0.26976 0.77886 0.92181 0.0
C396 C 0.25307 0.81836 0.90298 0.0
C397 C 0.23178 0.80052 0.94378 0.0
C398 C 0.20749 0.78486 0.94357 0.0
C399 C 0.1895 0.79144 0.96398 0.0
C400 C 0.19653 0.81458 0.9851 0.0
C401 C 0.22143 0.83045 0.98579 0.0
C402 C 0.23936 0.82297 0.96517 0.0
H403 H 0.97278 0.58297 0.41328 0.0
H404 H 0.00422 0.55968 0.48401 0.0
H405 H 0.04533 0.55338 0.45943 0.0
H406 H 0.99748 0.53219 0.3656 0.0
H407 H 0.00446 0.55383 0.33973 0.0
H408 H 0.97918 0.56074 0.364 0.0
H409 H 1.00086 0.61282 0.3784 0.0
H410 H 0.02599 0.60626 0.35377 0.0
H411 H 0.03421 0.61993 0.389 0.0
H412 H 0.08092 0.54506 0.42561 0.0
H413 H 0.10967 0.53761 0.38585 0.0
H414 H 0.05427 0.56515 0.33647 0.0
C415 C 0.98879 0.57758 0.42371 0.0
C416 C 0.98592 0.57232 0.45051 0.0
C417 C 0.0066 0.56422 0.46356 0.0
C418 C 0.02982 0.56051 0.44973 0.0
C419 C 0.03185 0.56492 0.42287 0.0
C420 C 0.01198 0.57354 0.41005 0.0
C421 C 0.01832 0.57472 0.38048 0.0
C422 C 0.99869 0.55414 0.36134 0.0
C423 C 0.01995 0.60525 0.3751 0.0
C424 C 0.04461 0.56489 0.37853 0.0
C425 C 0.05213 0.55953 0.40322 0.0
C426 C 0.07536 0.54947 0.40623 0.0
C427 C 0.0915 0.54516 0.38347 0.0
C428 C 0.08428 0.55075 0.35798 0.0
C429 C 0.06041 0.56063 0.35561 0.0
H430 H 0.79854 0.79656 0.86221 0.0
H431 H 0.77912 0.72984 0.79289 0.0
H432 H 0.78187 0.69367 0.82144 0.0
H433 H 0.83906 0.75999 0.90155 0.0
H434 H 0.82456 0.77336 0.93348 0.0
H435 H 0.82744 0.79389 0.90649 0.0
H436 H 0.77823 0.79574 0.90879 0.0
H437 H 0.7751 0.77498 0.93553 0.0
H438 H 0.75615 0.76304 0.90485 0.0
H439 H 0.78353 0.66482 0.85806 0.0
H440 H 0.77894 0.6451 0.90048 0.0
H441 H 0.79042 0.73047 0.94786 0.0
C442 C 0.79619 0.7743 0.85299 0.0
C443 C 0.79106 0.76587 0.82481 0.0
C444 C 0.7857 0.73663 0.81373 0.0
C445 C 0.78664 0.71598 0.83 0.0
C446 C 0.79182 0.72494 0.85771 0.0
C447 C 0.79607 0.75342 0.86926 0.0
C448 C 0.79693 0.7573 0.90012 0.0
C449 C 0.82359 0.77201 0.91105 0.0
C450 C 0.77531 0.77373 0.91308 0.0
C451 C 0.79223 0.72658 0.90409 0.0
C452 C 0.78994 0.7083 0.8793 0.0
C453 C 0.78535 0.67893 0.87759 0.0
C454 C 0.7828 0.66792 0.90182 0.0
C455 C 0.78424 0.68621 0.92749 0.0
C456 C 0.78914 0.71595 0.92854 0.0
H457 H 0.99058 0.01568 0.4783 0.0
H458 H 0.05143 0.9919 0.42244 0.0
H459 H 0.02395 0.99438 0.3834 0.0
H460 H 0.93726 0.97591 0.43637 0.0
H461 H 0.91628 0.0025 0.44601 0.0
H462 H 0.94077 0.99865 0.4693 0.0
H463 H 0.95917 0.05184 0.47252 0.0
H464 H 0.93487 0.0558 0.44906 0.0
H465 H 0.96855 0.06538 0.44182 0.0
H466 H 0.99024 0.99975 0.35094 0.0
H467 H 0.95188 0.00613 0.32637 0.0
H468 H 0.91237 0.02648 0.4034 0.0
C469 C 0.99786 0.01078 0.45777 0.0
C470 C 0.02298 0.00366 0.45309 0.0
C471 C 0.03223 0.99757 0.42616 0.0
C472 C 0.01678 0.99891 0.40401 0.0
C473 C 0.99216 0.00633 0.40926 0.0
C474 C 0.98267 0.01205 0.43544 0.0
C475 C 0.95552 0.01949 0.43541 0.0
C476 C 0.93633 0.99784 0.44748 0.0
C477 C 0.95448 0.04994 0.4506 0.0
C478 C 0.95124 0.01704 0.40511 0.0
C479 C 0.97265 0.00947 0.39045 0.0
C480 C 0.97333 0.00567 0.36216 0.0
C481 C 0.95141 0.00937 0.34841 0.0
C482 C 0.92907 0.01683 0.36293 0.0
C483 C 0.92916 0.02094 0.3917 0.0
H484 H 0.26301 0.24225 0.71418 0.0
H485 H 0.24033 0.32425 0.71136 0.0
H486 H 0.2541 0.32016 0.66317 0.0
H487 H 0.31928 0.24774 0.66661 0.0
H488 H 0.31239 0.21073 0.65136 0.0
H489 H 0.30459 0.22218 0.68661 0.0
H490 H 0.25708 0.19914 0.67722 0.0
H491 H 0.26472 0.18761 0.64205 0.0
H492 H 0.23926 0.20906 0.65081 0.0
H493 H 0.26361 0.30382 0.61413 0.0
H494 H 0.26907 0.27697 0.56783 0.0
H495 H 0.2871 0.20589 0.60225 0.0
C496 C 0.26156 0.25951 0.70343 0.0
C497 C 0.25095 0.28369 0.71629 0.0
C498 C 0.2489 0.30586 0.70181 0.0
C499 C 0.25663 0.30365 0.67451 0.0
C500 C 0.26657 0.27923 0.66214 0.0
C501 C 0.26928 0.25763 0.6762 0.0
C502 C 0.27834 0.23257 0.65757 0.0
C503 C 0.30525 0.22805 0.66605 0.0
C504 C 0.25868 0.20551 0.65687 0.0
C505 C 0.27928 0.24294 0.63061 0.0
C506 C 0.27266 0.27003 0.63377 0.0
C507 C 0.26947 0.28293 0.61147 0.0
C508 C 0.27257 0.26753 0.58527 0.0
C509 C 0.27901 0.23966 0.58159 0.0
C510 C 0.28305 0.22753 0.60458 0.0
H511 H 0.5161 0.56807 0.65743 0.0
H512 H 0.45298 0.54831 0.59949 0.0
H513 H 0.42161 0.55165 0.63752 0.0
H514 H 0.48516 0.52327 0.70235 0.0
H515 H 0.49881 0.54603 0.73275 0.0
H516 H 0.51587 0.54523 0.70096 0.0
H517 H 0.5175 0.59978 0.70617 0.0
H518 H 0.50005 0.60067 0.73779 0.0
H519 H 0.48788 0.61503 0.71051 0.0
H520 H 0.39746 0.55848 0.68213 0.0
H521 H 0.38175 0.55824 0.72927 0.0
H522 H 0.46064 0.56663 0.75754 0.0
C523 C 0.49566 0.56438 0.65284 0.0
C524 C 0.48682 0.55884 0.62565 0.0
C525 C 0.45999 0.55366 0.62028 0.0
C526 C 0.44213 0.55543 0.6417 0.0
C527 C 0.4515 0.56155 0.66835 0.0
C528 C 0.47762 0.56513 0.67396 0.0
C529 C 0.4826 0.56849 0.7042 0.0
C530 C 0.49642 0.54431 0.71043 0.0
C531 C 0.49792 0.59774 0.71531 0.0
C532 C 0.45518 0.56617 0.71477 0.0
C533 C 0.43755 0.56297 0.69384 0.0
C534 C 0.41107 0.56081 0.69866 0.0
C535 C 0.40234 0.56092 0.72547 0.0
C536 C 0.42003 0.56243 0.74686 0.0
C537 C 0.44677 0.5655 0.74148 0.0
H538 H 0.81038 0.27985 0.70818 0.0
H539 H 0.7685 0.32005 0.77632 0.0
H540 H 0.75405 0.35189 0.74746 0.0
H541 H 0.83093 0.34402 0.67806 0.0
H542 H 0.82698 0.32437 0.64377 0.0
H543 H 0.83566 0.30721 0.67076 0.0
H544 H 0.79619 0.26823 0.65869 0.0
H545 H 0.78719 0.28541 0.63192 0.0
H546 H 0.76439 0.27836 0.65832 0.0
H547 H 0.74106 0.37591 0.70921 0.0
H548 H 0.73292 0.3921 0.66617 0.0
H549 H 0.78426 0.33602 0.62373 0.0
C550 C 0.79877 0.29598 0.71704 0.0
C551 C 0.79079 0.29813 0.74436 0.0
C552 C 0.77505 0.31873 0.75546 0.0
C553 C 0.76673 0.33667 0.73919 0.0
C554 C 0.7745 0.33366 0.71198 0.0
C555 C 0.79045 0.31401 0.70113 0.0
C556 C 0.79515 0.31394 0.67111 0.0
C557 C 0.82389 0.32293 0.66561 0.0
C558 C 0.78512 0.28476 0.65402 0.0
C559 C 0.77904 0.33627 0.66656 0.0
C560 C 0.76723 0.34746 0.69029 0.0
C561 C 0.75048 0.36754 0.6906 0.0
C562 C 0.74588 0.37652 0.66606 0.0
C563 C 0.75805 0.36547 0.64163 0.0
C564 C 0.77484 0.34514 0.64209 0.0
H565 H 0.48715 0.98021 0.62722 0.0
H566 H 0.5249 0.03346 0.57283 0.0
H567 H 0.565 0.04137 0.60022 0.0
H568 H 0.51316 0.0198 0.68751 0.0
H569 H 0.51741 0.99026 0.70363 0.0
H570 H 0.4928 0.98617 0.6781 0.0
H571 H 0.51207 0.9436 0.65005 0.0
H572 H 0.5367 0.94741 0.67566 0.0
H573 H 0.54567 0.94793 0.64064 0.0
H574 H 0.59814 0.04888 0.63671 0.0
H575 H 0.62364 0.05343 0.67869 0.0
H576 H 0.56611 0.99233 0.70823 0.0
C577 C 0.50418 0.99276 0.62073 0.0
C578 C 0.50319 0.00627 0.59805 0.0
C579 C 0.52547 0.02319 0.59033 0.0
C580 C 0.54826 0.02761 0.60565 0.0
C581 C 0.54851 0.01451 0.62833 0.0
C582 C 0.5272 0.99709 0.63568 0.0
C583 C 0.53215 0.98692 0.66188 0.0
C584 C 0.51273 0.99637 0.68408 0.0
C585 C 0.53162 0.95454 0.65675 0.0
C586 C 0.5592 0.00226 0.6687 0.0
C587 C 0.56827 0.01794 0.64895 0.0
C588 C 0.59158 0.03615 0.65195 0.0
C589 C 0.60588 0.03867 0.67586 0.0
C590 C 0.59702 0.02282 0.69629 0.0
C591 C 0.57363 0.00399 0.69246 0.0
H592 H 0.82932 0.26486 0.83595 0.0
H593 H 0.85066 0.21864 0.75823 0.0
H594 H 0.88889 0.20635 0.77953 0.0
H595 H 0.89183 0.29486 0.85868 0.0
H596 H 0.88644 0.2915 0.89383 0.0
H597 H 0.85984 0.29461 0.87289 0.0
H598 H 0.83517 0.24772 0.8842 0.0
H599 H 0.86174 0.24444 0.90523 0.0
H600 H 0.85029 0.21595 0.87784 0.0
H601 H 0.92724 0.20454 0.8079 0.0
H602 H 0.96182 0.21012 0.84226 0.0
H603 H 0.91426 0.25435 0.90284 0.0
C604 C 0.84195 0.25181 0.82371 0.0
C605 C 0.83733 0.24253 0.79559 0.0
C606 C 0.85405 0.22562 0.77987 0.0
C607 C 0.8757 0.21863 0.79179 0.0
C608 C 0.88004 0.22839 0.81957 0.0
C609 C 0.86345 0.24428 0.83545 0.0
C610 C 0.873 0.25285 0.86463 0.0
C611 C 0.87808 0.28538 0.87299 0.0
C612 C 0.85391 0.23943 0.88413 0.0
C613 C 0.89794 0.24004 0.86251 0.0
C614 C 0.90162 0.22606 0.83629 0.0
C615 C 0.92431 0.21479 0.82864 0.0
C616 C 0.94382 0.21808 0.84821 0.0
C617 C 0.94034 0.23204 0.87519 0.0
C618 C 0.91697 0.24278 0.88252 0.0
H619 H 0.49093 0.96118 0.52362 0.0
H620 H 0.46112 0.93907 0.59956 0.0
H621 H 0.47004 0.88964 0.58431 0.0
H622 H 0.46144 0.90139 0.48311 0.0
H623 H 0.48693 0.89742 0.4584 0.0
H624 H 0.4836 0.93195 0.47747 0.0
H625 H 0.53078 0.93813 0.49458 0.0
H626 H 0.53443 0.90364 0.47527 0.0
H627 H 0.5411 0.91153 0.51133 0.0
H628 H 0.47597 0.84163 0.55791 0.0
H629 H 0.47842 0.7989 0.52306 0.0
H630 H 0.50347 0.85231 0.46345 0.0
C631 C 0.48735 0.94603 0.5373 0.0
C632 C 0.47613 0.95372 0.56297 0.0
C633 C 0.47052 0.93349 0.5802 0.0
C634 C 0.47541 0.90546 0.5716 0.0
C635 C 0.48584 0.89821 0.54571 0.0
C636 C 0.49192 0.91802 0.52887 0.0
C637 C 0.49993 0.90426 0.50086 0.0
C638 C 0.48189 0.90903 0.47867 0.0
C639 C 0.52825 0.91503 0.49519 0.0
C640 C 0.4965 0.87344 0.50415 0.0
C641 C 0.48875 0.87043 0.53028 0.0
C642 C 0.48248 0.84378 0.53755 0.0
C643 C 0.48384 0.81961 0.51755 0.0
C644 C 0.49125 0.8222 0.4905 0.0
C645 C 0.49811 0.84956 0.48399 0.0
H646 H 0.17228 0.30342 0.7894 0.0
H647 H 0.20339 0.22673 0.79577 0.0
H648 H 0.16544 0.21172 0.82347 0.0
H649 H 0.14836 0.31701 0.85635 0.0
H650 H 0.11986 0.33009 0.84703 0.0
H651 H 0.14855 0.33342 0.82662 0.0
H652 H 0.12261 0.30667 0.78378 0.0
H653 H 0.09377 0.3034 0.80403 0.0
H654 H 0.10448 0.27214 0.78432 0.0
H655 H 0.12509 0.20743 0.8532 0.0
H656 H 0.08505 0.21265 0.87998 0.0
H657 H 0.0809 0.29216 0.85261 0.0
C658 C 0.17082 0.28336 0.79648 0.0
C659 C 0.19043 0.2661 0.79073 0.0
C660 C 0.18826 0.23998 0.80008 0.0
C661 C 0.1669 0.23144 0.81579 0.0
C662 C 0.14798 0.24928 0.82159 0.0
C663 C 0.14968 0.27456 0.81193 0.0
C664 C 0.12724 0.29029 0.8213 0.0
C665 C 0.13657 0.31942 0.83887 0.0
C666 C 0.11107 0.29329 0.7969 0.0
C667 C 0.11269 0.27015 0.83809 0.0
C668 C 0.12487 0.24661 0.83811 0.0
C669 C 0.11528 0.22565 0.85309 0.0
C670 C 0.0926 0.22883 0.86829 0.0
C671 C 0.0798 0.25273 0.86826 0.0
C672 C 0.09007 0.27352 0.85288 0.0
H673 H 0.54238 0.62937 0.57544 0.0
H674 H 0.53567 0.55084 0.51758 0.0
H675 H 0.53495 0.57747 0.47966 0.0
H676 H 0.49503 0.65334 0.54888 0.0
H677 H 0.50761 0.69063 0.55499 0.0
H678 H 0.51777 0.6679 0.57613 0.0
H679 H 0.56565 0.68288 0.5645 0.0
H680 H 0.55569 0.7063 0.54367 0.0
H681 H 0.57553 0.6798 0.52937 0.0
H682 H 0.52506 0.61143 0.44936 0.0
H683 H 0.50631 0.64827 0.43042 0.0
H684 H 0.51329 0.70293 0.50944 0.0
C685 C 0.54222 0.61813 0.55462 0.0
C686 C 0.53946 0.58823 0.54923 0.0
C687 C 0.5385 0.57382 0.52195 0.0
C688 C 0.53783 0.58883 0.50036 0.0
C689 C 0.53809 0.61824 0.50652 0.0
C690 C 0.54051 0.63277 0.53312 0.0
C691 C 0.53499 0.663 0.53526 0.0
C692 C 0.51252 0.66903 0.55496 0.0
C693 C 0.55943 0.68425 0.54369 0.0
C694 C 0.52759 0.66279 0.50611 0.0
C695 C 0.53044 0.63722 0.48954 0.0
C696 C 0.52322 0.63167 0.46208 0.0
C697 C 0.51255 0.65259 0.45149 0.0
C698 C 0.50847 0.67822 0.46859 0.0
C699 C 0.51642 0.68346 0.49603 0.0
H700 H 0.84129 0.83307 0.78426 0.0
H701 H 0.8126 0.74324 0.768 0.0
H702 H 0.85356 0.73336 0.74605 0.0
H703 H 0.86483 0.83208 0.71855 0.0
H704 H 0.89223 0.85914 0.72746 0.0
H705 H 0.8639 0.85894 0.74857 0.0
H706 H 0.89149 0.85751 0.79059 0.0
H707 H 0.92004 0.85801 0.76967 0.0
H708 H 0.91168 0.83004 0.78916 0.0
H709 H 0.89611 0.7335 0.72224 0.0
H710 H 0.93462 0.74345 0.69425 0.0
H711 H 0.93248 0.83392 0.71792 0.0
C712 C 0.84402 0.81127 0.77677 0.0
C713 C 0.82409 0.78875 0.77918 0.0
C714 C 0.82798 0.76061 0.76827 0.0
C715 C 0.85116 0.75488 0.75521 0.0
C716 C 0.87002 0.77765 0.7524 0.0
C717 C 0.86655 0.80536 0.76252 0.0
C718 C 0.88774 0.82616 0.75282 0.0
C719 C 0.8765 0.84519 0.73584 0.0
C720 C 0.90368 0.84398 0.777 0.0
C721 C 0.90347 0.8058 0.73532 0.0
C722 C 0.89327 0.77793 0.73604 0.0
C723 C 0.90429 0.75523 0.72156 0.0
C724 C 0.92618 0.76111 0.70573 0.0
C725 C 0.93646 0.78944 0.70385 0.0
C726 C 0.92495 0.81207 0.71891 0.0
H727 H 0.01991 0.98976 0.55358 0.0
H728 H 0.09508 0.96905 0.52668 0.0
H729 H 0.09469 0.93856 0.56167 0.0
H730 H 0.02442 0.98273 0.62739 0.0
H731 H 0.99141 0.96577 0.62714 0.0
H732 H 0.00093 0.99198 0.60593 0.0
H733 H 0.98291 0.95577 0.56356 0.0
H734 H 0.97354 0.92946 0.58447 0.0
H735 H 0.99451 0.92189 0.55573 0.0
H736 H 0.08275 0.90426 0.59425 0.0
H737 H 0.05987 0.86768 0.61847 0.0
H738 H 0.99042 0.90717 0.62002 0.0
C739 C 0.03657 0.97941 0.55567 0.0
C740 C 0.05758 0.9818 0.53762 0.0
C741 C 0.07905 0.96792 0.54071 0.0
C742 C 0.07888 0.95046 0.56045 0.0
C743 C 0.05706 0.94712 0.57686 0.0
C744 C 0.03629 0.96132 0.57463 0.0
C745 C 0.01344 0.95067 0.59101 0.0
C746 C 0.00719 0.97419 0.61425 0.0
C747 C 0.98972 0.93873 0.57259 0.0
C748 C 0.02414 0.92742 0.60194 0.0
C749 C 0.04959 0.92625 0.59431 0.0
C750 C 0.06297 0.90529 0.60066 0.0
C751 C 0.04982 0.88461 0.61448 0.0
C752 C 0.02339 0.88464 0.62118 0.0
C753 C 0.01068 0.90675 0.61536 0.0
H754 H 0.13546 0.7209 0.77859 0.0
H755 H 0.19822 0.78364 0.76143 0.0
H756 H 0.17005 0.79948 0.72937 0.0
H757 H 0.10913 0.70225 0.70918 0.0
H758 H 0.07624 0.69737 0.7209 0.0
H759 H 0.1019 0.69071 0.74126 0.0
H760 H 0.08745 0.72615 0.78218 0.0
H761 H 0.06192 0.73313 0.7619 0.0
H762 H 0.0852 0.76204 0.77818 0.0
H763 H 0.13331 0.8107 0.70232 0.0
H764 H 0.09262 0.81335 0.67903 0.0
H765 H 0.05507 0.74122 0.71261 0.0
C766 C 0.1432 0.73764 0.76764 0.0
C767 C 0.16877 0.75113 0.77206 0.0
C768 C 0.1786 0.77309 0.75784 0.0
C769 C 0.16275 0.78221 0.73981 0.0
C770 C 0.13732 0.76877 0.73616 0.0
C771 C 0.12777 0.74664 0.74938 0.0
C772 C 0.09981 0.7358 0.74219 0.0
C773 C 0.09659 0.70469 0.7275 0.0
C774 C 0.08259 0.73952 0.76762 0.0
C775 C 0.09492 0.75552 0.72314 0.0
C776 C 0.11667 0.77454 0.72001 0.0
C777 C 0.11627 0.79565 0.70433 0.0
C778 C 0.0931 0.7971 0.69131 0.0
C779 C 0.07084 0.77734 0.69385 0.0
C780 C 0.07189 0.75637 0.70998 0.0
H781 H 0.98796 0.61276 0.50738 0.0
H782 H 0.93246 0.63675 0.45643 0.0
H783 H 0.94293 0.68701 0.4791 0.0
H784 H 0.97078 0.65074 0.56499 0.0
H785 H 0.00219 0.6615 0.58061 0.0
H786 H 0.9964 0.62964 0.55556 0.0
H787 H 0.03423 0.64819 0.52619 0.0
H788 H 0.04069 0.68 0.55155 0.0
H789 H 0.03523 0.68254 0.51659 0.0
H790 H 0.95242 0.73173 0.5137 0.0
H791 H 0.96147 0.76752 0.55565 0.0
H792 H 0.01036 0.71375 0.58469 0.0
C793 C 0.97935 0.62902 0.49998 0.0
C794 C 0.96005 0.6214 0.47978 0.0
C795 C 0.94782 0.64264 0.47142 0.0
C796 C 0.95359 0.6711 0.48428 0.0
C797 C 0.97172 0.67782 0.50535 0.0
C798 C 0.98476 0.6574 0.51284 0.0
C799 C 1.00028 0.66897 0.53865 0.0
C800 C 0.99189 0.65169 0.56126 0.0
C801 C 0.02934 0.66999 0.53289 0.0
C802 C 0.99284 0.69853 0.54536 0.0
C803 C 0.97678 0.7035 0.52568 0.0
C804 C 0.9655 0.72835 0.52889 0.0
C805 C 0.97063 0.7485 0.55287 0.0
C806 C 0.98668 0.74352 0.57347 0.0
C807 C 0.99823 0.7184 0.56926 0.0
H808 H 0.7326 0.83993 0.23228 0.0
H809 H 0.75134 0.79303 0.29349 0.0
H810 H 0.78478 0.83291 0.31246 0.0
H811 H 0.80144 0.8742 0.22294 0.0
H812 H 0.79045 0.90641 0.21741 0.0
H813 H 0.77064 0.87263 0.20688 0.0
H814 H 0.73295 0.89184 0.23538 0.0
H815 H 0.75278 0.92532 0.24674 0.0
H816 H 0.73752 0.90521 0.27132 0.0
H817 H 0.8094 0.88079 0.3296 0.0
H818 H 0.83085 0.9306 0.33873 0.0
H819 H 0.79991 0.94475 0.26331 0.0
C820 C 0.74475 0.83743 0.24863 0.0
C821 C 0.73984 0.81334 0.26124 0.0
C822 C 0.75521 0.81133 0.28353 0.0
C823 C 0.77406 0.83386 0.29444 0.0
C824 C 0.77768 0.85791 0.28229 0.0
C825 C 0.76408 0.85949 0.25931 0.0
C826 C 0.77099 0.88822 0.25088 0.0
C827 C 0.78418 0.88518 0.22286 0.0
C828 C 0.74714 0.90353 0.25111 0.0
C829 C 0.78977 0.90293 0.27334 0.0
C830 C 0.79313 0.88512 0.29139 0.0
C831 C 0.80752 0.8947 0.31524 0.0
C832 C 0.81934 0.92302 0.32042 0.0
C833 C 0.81703 0.94119 0.30162 0.0
C834 C 0.80213 0.93103 0.27777 0.0
H835 H 0.71374 0.15465 0.36022 0.0
H836 H 0.75984 0.21784 0.32163 0.0
H837 H 0.7976 0.192 0.32136 0.0
H838 H 0.76737 0.14148 0.40335 0.0
H839 H 0.75517 0.10417 0.39947 0.0
H840 H 0.73319 0.12965 0.39942 0.0
H841 H 0.71517 0.10215 0.35277 0.0
H842 H 0.73735 0.0769 0.35238 0.0
H843 H 0.73694 0.09594 0.32451 0.0
H844 H 0.82753 0.15506 0.31863 0.0
H845 H 0.84956 0.11309 0.31902 0.0
H846 H 0.78503 0.0757 0.36284 0.0
C847 C 0.73217 0.16351 0.35283 0.0
C848 C 0.73437 0.18843 0.34154 0.0
C849 C 0.75827 0.19909 0.33094 0.0
C850 C 0.77963 0.18447 0.33057 0.0
C851 C 0.77673 0.15946 0.34128 0.0
C852 C 0.75376 0.14941 0.35281 0.0
C853 C 0.75531 0.12137 0.36177 0.0
C854 C 0.75261 0.12435 0.39286 0.0
C855 C 0.73499 0.0977 0.34696 0.0
C856 C 0.7824 0.11668 0.35264 0.0
C857 C 0.79441 0.13882 0.34075 0.0
C858 C 0.81859 0.13796 0.32852 0.0
C859 C 0.83088 0.114 0.32867 0.0
C860 C 0.81914 0.09144 0.34131 0.0
C861 C 0.79469 0.09297 0.3536 0.0
H862 H 0.41628 0.02589 0.98856 0.0
H863 H 0.37992 0.06295 0.92945 0.0
H864 H 0.33765 0.03525 0.93805 0.0
H865 H 0.37821 0.95515 0.97369 0.0
H866 H 0.37691 0.95109 0.00892 0.0
H867 H 0.40414 0.97247 0.99658 0.0
H868 H 0.39638 0.01511 0.03396 0.0
H869 H 0.36897 0.99398 0.04623 0.0
H870 H 0.36527 0.02725 0.03631 0.0
H871 H 0.29937 0.00531 0.95509 0.0
H872 H 0.2679 0.97398 0.97771 0.0
H873 H 0.3298 0.95677 0.02609 0.0
C874 C 0.39937 0.02758 0.97718 0.0
C875 C 0.40093 0.04599 0.95817 0.0
C876 C 0.37871 0.04851 0.94383 0.0
C877 C 0.35481 0.033 0.94868 0.0
C878 C 0.35371 0.01522 0.96795 0.0
C879 C 0.37545 0.01231 0.98185 0.0
C880 C 0.36898 0.99255 0.00211 0.0
C881 C 0.38288 0.96626 0.99488 0.0
C882 C 0.37527 0.00817 0.03138 0.0
C883 C 0.34016 0.98492 0.9976 0.0
C884 C 0.33171 0.99819 0.97783 0.0
C885 C 0.30578 0.99468 0.9705 0.0
C886 C 0.28804 0.97691 0.98354 0.0
C887 C 0.29634 0.96286 0.00368 0.0
C888 C 0.32278 0.96712 0.01077 0.0
H889 H 0.26136 0.38572 0.33622 0.0
H890 H 0.25061 0.34116 0.25314 0.0
H891 H 0.22074 0.37416 0.2446 0.0
H892 H 0.1955 0.40233 0.34759 0.0
H893 H 0.20592 0.43696 0.36744 0.0
H894 H 0.22491 0.40864 0.36722 0.0
H895 H 0.26491 0.44001 0.35174 0.0
H896 H 0.24605 0.46837 0.35183 0.0
H897 H 0.26288 0.455 0.3214 0.0
H898 H 0.19308 0.41307 0.24508 0.0
H899 H 0.171 0.45574 0.25388 0.0
H900 H 0.20096 0.47553 0.33654 0.0
C901 C 0.25233 0.38281 0.31643 0.0
C902 C 0.25792 0.36098 0.29531 0.0
C903 C 0.24633 0.35787 0.26944 0.0
C904 C 0.22938 0.37641 0.2645 0.0
C905 C 0.22436 0.39798 0.2857 0.0
C906 C 0.23555 0.40129 0.31114 0.0
C907 C 0.228 0.427 0.33001 0.0
C908 C 0.21267 0.4182 0.35451 0.0
C909 C 0.25188 0.44889 0.33928 0.0
C910 C 0.21104 0.43782 0.31117 0.0
C911 C 0.20896 0.42065 0.28578 0.0
C912 C 0.19452 0.42662 0.26492 0.0
C913 C 0.18203 0.45089 0.2701 0.0
C914 C 0.18427 0.469 0.29585 0.0
C915 C 0.19887 0.46215 0.31661 0.0
H916 H 0.11954 0.00563 0.48253 0.0
H917 H 0.08055 0.05073 0.55015 0.0
H918 H 0.12044 0.08501 0.56158 0.0
H919 H 0.1872 0.02035 0.51407 0.0
H920 H 0.20147 0.0242 0.48149 0.0
H921 H 0.1722 0.99989 0.48323 0.0
H922 H 0.15017 0.02512 0.45046 0.0
H923 H 0.17892 0.05011 0.44923 0.0
H924 H 0.14879 0.06268 0.4596 0.0
H925 H 0.16077 0.1195 0.55893 0.0
H926 H 0.20064 0.14841 0.54671 0.0
H927 H 0.21385 0.08036 0.48063 0.0
C928 C 0.12008 0.02181 0.50066 0.0
C929 C 0.09743 0.02544 0.51592 0.0
C930 C 0.09806 0.04739 0.53882 0.0
C931 C 0.12053 0.06701 0.5452 0.0
C932 C 0.14216 0.06398 0.52859 0.0
C933 C 0.14233 0.04146 0.50717 0.0
C934 C 0.16683 0.04469 0.49056 0.0
C935 C 0.18288 0.02087 0.49246 0.0
C936 C 0.1608 0.04572 0.46071 0.0
C937 C 0.17997 0.07313 0.50521 0.0
C938 C 0.16552 0.08385 0.52717 0.0
C939 C 0.17256 0.11098 0.54223 0.0
C940 C 0.19511 0.12736 0.53494 0.0
C941 C 0.21045 0.11659 0.51279 0.0
C942 C 0.20275 0.08902 0.4979 0.0
H943 H 0.77961 0.20804 0.81019 0.0
H944 H 0.80053 0.19302 0.72513 0.0
H945 H 0.78127 0.14259 0.72088 0.0
H946 H 0.78611 0.13343 0.82373 0.0
H947 H 0.75845 0.13385 0.84591 0.0
H948 H 0.77938 0.16645 0.84384 0.0
H949 H 0.74 0.18878 0.83177 0.0
H950 H 0.71905 0.15631 0.83344 0.0
H951 H 0.72015 0.1714 0.80285 0.0
H952 H 0.75176 0.09851 0.72318 0.0
H953 H 0.71597 0.06233 0.7324 0.0
H954 H 0.71465 0.10427 0.81669 0.0
C955 C 0.78111 0.19358 0.79114 0.0
C956 C 0.79165 0.20387 0.76801 0.0
C957 C 0.79266 0.18507 0.74299 0.0
C958 C 0.78185 0.15652 0.74048 0.0
C959 C 0.77038 0.14714 0.76334 0.0
C960 C 0.77029 0.16497 0.78837 0.0
C961 C 0.75375 0.15065 0.80871 0.0
C962 C 0.77042 0.1458 0.83192 0.0
C963 C 0.73196 0.1678 0.81982 0.0
C964 C 0.74325 0.12276 0.79076 0.0
C965 C 0.75345 0.12101 0.76479 0.0
C966 C 0.74425 0.09913 0.74363 0.0
C967 C 0.72385 0.07878 0.749 0.0
C968 C 0.71298 0.08033 0.77533 0.0
C969 C 0.72326 0.10215 0.79662 0.0
H970 H 0.41342 0.05238 0.58389 0.0
H971 H 0.4483 0.01674 0.50846 0.0
H972 H 0.4219 0.04176 0.48283 0.0
H973 H 0.35037 0.04834 0.55858 0.0
H974 H 0.34387 0.08169 0.5782 0.0
H975 H 0.36641 0.06219 0.59078 0.0
H976 H 0.40175 0.10611 0.59469 0.0
H977 H 0.37927 0.12581 0.5822 0.0
H978 H 0.40974 0.12243 0.56525 0.0
H979 H 0.38931 0.06679 0.46526 0.0
H980 H 0.35406 0.09296 0.45664 0.0
H981 H 0.34197 0.11569 0.54364 0.0
C982 C 0.41574 0.05042 0.56205 0.0
C983 C 0.43275 0.03274 0.54796 0.0
C984 C 0.43516 0.03011 0.51938 0.0
C985 C 0.42037 0.0443 0.50477 0.0
C986 C 0.40352 0.06135 0.51915 0.0
C987 C 0.4013 0.06479 0.54717 0.0
C988 C 0.38127 0.08393 0.55747 0.0
C989 C 0.35917 0.06808 0.57212 0.0
C990 C 0.39376 0.11119 0.576 0.0
C991 C 0.3722 0.09016 0.5308 0.0
C992 C 0.38529 0.07684 0.50898 0.0
C993 C 0.37921 0.07773 0.48217 0.0
C994 C 0.35912 0.09255 0.47747 0.0
C995 C 0.34557 0.10657 0.49947 0.0
C996 C 0.35242 0.10563 0.52649 0.0
H997 H 0.55828 0.51614 0.53803 0.0
H998 H 0.58138 0.57495 0.61214 0.0
H999 H 0.62272 0.5557 0.61213 0.0
H1000 H 0.58172 0.45844 0.55355 0.0
H1001 H 0.59366 0.44513 0.52025 0.0
H1002 H 0.56757 0.46602 0.52354 0.0
H1003 H 0.59333 0.50179 0.4966 0.0
H1004 H 0.6193 0.48061 0.49254 0.0
H1005 H 0.62554 0.51777 0.50743 0.0
H1006 H 0.65707 0.52423 0.60876 0.0
H1007 H 0.68689 0.48849 0.59748 0.0
H1008 H 0.64407 0.45245 0.52307 0.0
C1009 C 0.57269 0.52579 0.55337 0.0
C1010 C 0.56714 0.5474 0.57479 0.0
C1011 C 0.5858 0.55885 0.59531 0.0
C1012 C 0.60913 0.54786 0.59556 0.0
C1013 C 0.61367 0.5257 0.5748 0.0
C1014 C 0.59638 0.51534 0.55359 0.0
C1015 C 0.60559 0.49064 0.53445 0.0
C1016 C 0.58596 0.46346 0.53287 0.0
C1017 C 0.61129 0.49816 0.50607 0.0
C1018 C 0.63021 0.48813 0.54876 0.0
C1019 C 0.63434 0.5084 0.57215 0.0
C1020 C 0.65444 0.50873 0.59013 0.0
C1021 C 0.67111 0.48821 0.58373 0.0
C1022 C 0.66786 0.46799 0.55935 0.0
C1023 C 0.64717 0.46801 0.54164 0.0
H1024 H 0.71324 0.27691 0.36752 0.0
H1025 H 0.70786 0.19742 0.39688 0.0
H1026 H 0.7144 0.22377 0.44424 0.0
H1027 H 0.75895 0.32102 0.41875 0.0
H1028 H 0.74199 0.35123 0.42065 0.0
H1029 H 0.74199 0.32601 0.38933 0.0
H1030 H 0.69197 0.31894 0.38916 0.0
H1031 H 0.69173 0.34357 0.42079 0.0
H1032 H 0.6747 0.30802 0.41803 0.0
H1033 H 0.718 0.25961 0.48886 0.0
H1034 H 0.71898 0.30113 0.52627 0.0
H1035 H 0.71662 0.35611 0.46686 0.0
C1036 C 0.71417 0.26518 0.38394 0.0
C1037 C 0.71047 0.23526 0.37871 0.0
C1038 C 0.71138 0.22038 0.40052 0.0
C1039 C 0.71477 0.2352 0.42744 0.0
C1040 C 0.71696 0.26481 0.43204 0.0
C1041 C 0.7168 0.27959 0.41078 0.0
C1042 C 0.71681 0.31099 0.42095 0.0
C1043 C 0.74141 0.32833 0.41189 0.0
C1044 C 0.69235 0.32095 0.41168 0.0
C1045 C 0.71673 0.31168 0.45134 0.0
C1046 C 0.7172 0.28496 0.45743 0.0
C1047 C 0.71761 0.2806 0.48428 0.0
C1048 C 0.71802 0.30423 0.50537 0.0
C1049 C 0.71746 0.33173 0.49945 0.0
C1050 C 0.71652 0.33528 0.47206 0.0
H1051 H 0.49865 0.04297 0.933 0.0
H1052 H 0.48174 0.12342 0.9169 0.0
H1053 H 0.51916 0.12588 0.8855 0.0
H1054 H 0.5699 0.05997 0.93008 0.0
H1055 H 0.57364 0.02428 0.91405 0.0
H1056 H 0.54708 0.03044 0.93693 0.0
H1057 H 0.51494 0.0034 0.8992 0.0
H1058 H 0.54133 0.99734 0.87616 0.0
H1059 H 0.51555 0.01473 0.86666 0.0
H1060 H 0.55482 0.11634 0.85189 0.0
H1061 H 0.58885 0.09799 0.8215 0.0
H1062 H 0.58383 0.02451 0.8611 0.0
C1063 C 0.50321 0.06123 0.9231 0.0
C1064 C 0.48755 0.08302 0.92707 0.0
C1065 C 0.49382 0.10672 0.91404 0.0
C1066 C 0.51489 0.10818 0.8962 0.0
C1067 C 0.52962 0.08592 0.89206 0.0
C1068 C 0.52432 0.06311 0.90549 0.0
C1069 C 0.54257 0.04153 0.89681 0.0
C1070 C 0.55929 0.03891 0.9209 0.0
C1071 C 0.52771 0.01255 0.88394 0.0
C1072 C 0.55854 0.05535 0.87582 0.0
C1073 C 0.55074 0.08092 0.87337 0.0
C1074 C 0.56141 0.09661 0.85398 0.0
C1075 C 0.58062 0.08595 0.83672 0.0
C1076 C 0.58913 0.05998 0.83912 0.0
C1077 C 0.57804 0.04467 0.85911 0.0
H1078 H 0.29649 0.31855 0.37093 0.0
H1079 H 0.30615 0.2577 0.2978 0.0
H1080 H 0.30912 0.22075 0.32587 0.0
H1081 H 0.33738 0.29171 0.41681 0.0
H1082 H 0.31574 0.29807 0.44517 0.0
H1083 H 0.31824 0.32026 0.41954 0.0
H1084 H 0.26883 0.30856 0.41153 0.0
H1085 H 0.26618 0.28621 0.43694 0.0
H1086 H 0.25424 0.27199 0.40294 0.0
H1087 H 0.30719 0.18964 0.36212 0.0
H1088 H 0.30048 0.16691 0.40275 0.0
H1089 H 0.28936 0.24797 0.45188 0.0
C1090 C 0.2996 0.29751 0.36094 0.0
C1091 C 0.30121 0.29087 0.33227 0.0
C1092 C 0.30528 0.26321 0.31977 0.0
C1093 C 0.30683 0.24214 0.33556 0.0
C1094 C 0.30423 0.24915 0.3638 0.0
C1095 C 0.30078 0.27625 0.37635 0.0
C1096 C 0.29644 0.27791 0.40669 0.0
C1097 C 0.31825 0.29819 0.42301 0.0
C1098 C 0.26985 0.28668 0.415 0.0
C1099 C 0.29751 0.24738 0.4093 0.0
C1100 C 0.30235 0.23118 0.38442 0.0
C1101 C 0.30358 0.2022 0.38171 0.0
C1102 C 0.29971 0.18947 0.40495 0.0
C1103 C 0.29435 0.20559 0.43061 0.0
C1104 C 0.29341 0.23499 0.43265 0.0
H1105 H 0.50978 0.53533 0.96561 0.0
H1106 H 0.4669 0.56827 0.03639 0.0
H1107 H 0.43292 0.57726 0.00628 0.0
H1108 H 0.49576 0.5861 0.92416 0.0
H1109 H 0.49378 0.56039 0.89301 0.0
H1110 H 0.51439 0.55704 0.92034 0.0
H1111 H 0.49108 0.50598 0.92044 0.0
H1112 H 0.47045 0.50915 0.89312 0.0
H1113 H 0.45651 0.50017 0.92434 0.0
H1114 H 0.40275 0.57993 0.96775 0.0
H1115 H 0.37963 0.57763 0.92449 0.0
H1116 H 0.44428 0.5455 0.8794 0.0
C1117 C 0.49328 0.54465 0.9746 0.0
C1118 C 0.49066 0.55112 0.00309 0.0
C1119 C 0.46892 0.56312 0.01449 0.0
C1120 C 0.44971 0.56835 0.99758 0.0
C1121 C 0.45286 0.56171 0.96941 0.0
C1122 C 0.47425 0.55034 0.95805 0.0
C1123 C 0.47314 0.54494 0.9273 0.0
C1124 C 0.4956 0.56321 0.91551 0.0
C1125 C 0.47276 0.51318 0.91563 0.0
C1126 C 0.44758 0.55462 0.92299 0.0
C1127 C 0.43609 0.56418 0.94747 0.0
C1128 C 0.41172 0.57281 0.94847 0.0
C1129 C 0.39873 0.57141 0.92382 0.0
C1130 C 0.41025 0.56167 0.89856 0.0
C1131 C 0.43512 0.55352 0.89831 0.0
H1132 H 0.74185 0.74343 0.20922 0.0
H1133 H 0.70404 0.81312 0.19479 0.0
H1134 H 0.72109 0.80792 0.14776 0.0
H1135 H 0.79958 0.75485 0.16255 0.0
H1136 H 0.79863 0.71714 0.15124 0.0
H1137 H 0.78879 0.73064 0.1854 0.0
H1138 H 0.74469 0.69845 0.17694 0.0
H1139 H 0.75425 0.68502 0.14283 0.0
H1140 H 0.72508 0.70101 0.1485 0.0
H1141 H 0.73523 0.79015 0.10112 0.0
H1142 H 0.74472 0.76057 0.05745 0.0
H1143 H 0.77325 0.70116 0.10091 0.0
C1144 C 0.73835 0.75831 0.19637 0.0
C1145 C 0.72268 0.77944 0.20561 0.0
C1146 C 0.71692 0.79762 0.1881 0.0
C1147 C 0.72646 0.79472 0.16145 0.0
C1148 C 0.74149 0.77326 0.15259 0.0
C1149 C 0.7475 0.75536 0.16952 0.0
C1150 C 0.76072 0.7315 0.15384 0.0
C1151 C 0.78859 0.73367 0.16385 0.0
C1152 C 0.74525 0.70228 0.15563 0.0
C1153 C 0.76012 0.73801 0.12526 0.0
C1154 C 0.74938 0.76252 0.12515 0.0
C1155 C 0.74423 0.77132 0.10098 0.0
C1156 C 0.74961 0.75434 0.07628 0.0
C1157 C 0.76002 0.72882 0.07586 0.0
C1158 C 0.76599 0.721 0.10068 0.0
H1159 H 0.98223 0.01 0.12155 0.0
H1160 H 0.99193 0.10161 0.13021 0.0
H1161 H 0.95992 0.104 0.16748 0.0
H1162 H 0.91366 0.99881 0.13828 0.0
H1163 H 0.91714 0.97133 0.15747 0.0
H1164 H 0.93863 0.97667 0.12955 0.0
H1165 H 0.97808 0.98286 0.16165 0.0
H1166 H 0.95674 0.97735 0.18958 0.0
H1167 H 0.97996 0.00911 0.19242 0.0
H1168 H 0.92839 0.09643 0.20527 0.0
H1169 H 0.90234 0.07984 0.24283 0.0
H1170 H 0.91538 0.99341 0.21099 0.0
C1171 C 0.9775 0.03048 0.1313 0.0
C1172 C 0.98916 0.0556 0.12287 0.0
C1173 C 0.98261 0.08211 0.13602 0.0
C1174 C 0.96457 0.08365 0.15723 0.0
C1175 C 0.95344 0.05847 0.16517 0.0
C1176 C 0.95979 0.0324 0.15275 0.0
C1177 C 0.94659 0.00875 0.16647 0.0
C1178 C 0.92789 0.98765 0.14677 0.0
C1179 C 0.96653 0.99364 0.17823 0.0
C1180 C 0.93216 0.02565 0.18881 0.0
C1181 C 0.93601 0.05423 0.18748 0.0
C1182 C 0.92512 0.07407 0.20644 0.0
C1183 C 0.91031 0.06447 0.22765 0.0
C1184 C 0.90687 0.03538 0.22982 0.0
C1185 C 0.91764 0.01578 0.20986 0.0
H1186 H 0.27572 0.82242 0.22531 0.0
H1187 H 0.3471 0.78932 0.20179 0.0
H1188 H 0.35058 0.81399 0.16219 0.0
H1189 H 0.25057 0.81118 0.15921 0.0
H1190 H 0.23488 0.84255 0.16414 0.0
H1191 H 0.24004 0.82595 0.1927 0.0
H1192 H 0.26451 0.87345 0.21817 0.0
H1193 H 0.25936 0.89026 0.18968 0.0
H1194 H 0.29163 0.89127 0.20205 0.0
H1195 H 0.34406 0.83826 0.12308 0.0
H1196 H 0.32817 0.85991 0.0868 0.0
H1197 H 0.25966 0.87574 0.13449 0.0
C1198 C 0.29222 0.82075 0.21197 0.0
C1199 C 0.3113 0.80421 0.21662 0.0
C1200 C 0.33262 0.80237 0.1988 0.0
C1201 C 0.33463 0.81618 0.17623 0.0
C1202 C 0.31512 0.83171 0.1718 0.0
C1203 C 0.29433 0.83412 0.18919 0.0
C1204 C 0.27492 0.85007 0.17862 0.0
C1205 C 0.24855 0.83131 0.17335 0.0
C1206 C 0.27247 0.87792 0.1983 0.0
C1207 C 0.28776 0.85575 0.15224 0.0
C1208 C 0.31108 0.84526 0.14889 0.0
C1209 C 0.32597 0.84681 0.12561 0.0
C1210 C 0.31672 0.85912 0.10507 0.0
C1211 C 0.29268 0.86963 0.10779 0.0
C1212 C 0.27822 0.86819 0.1319 0.0
H1213 H 0.99252 0.4762 0.12222 0.0
H1214 H 0.02502 0.542 0.07794 0.0
H1215 H 0.06213 0.55489 0.1098 0.0
H1216 H 0.00672 0.51409 0.18673 0.0
H1217 H 0.01483 0.48507 0.20152 0.0
H1218 H 0.99307 0.47807 0.17296 0.0
H1219 H 0.0223 0.44401 0.14588 0.0
H1220 H 0.04415 0.45077 0.17449 0.0
H1221 H 0.05599 0.45653 0.14144 0.0
H1222 H 0.09128 0.56552 0.14994 0.0
H1223 H 0.11226 0.57186 0.19493 0.0
H1224 H 0.06258 0.49792 0.21305 0.0
C1225 C 0.00792 0.49273 0.11897 0.0
C1226 C 0.00609 0.50833 0.09794 0.0
C1227 C 0.02619 0.53013 0.0942 0.0
C1228 C 0.04731 0.53741 0.11206 0.0
C1229 C 0.04818 0.52236 0.1333 0.0
C1230 C 0.02921 0.50022 0.13667 0.0
C1231 C 0.03374 0.48907 0.16247 0.0
C1232 C 0.01073 0.49175 0.18207 0.0
C1233 C 0.03939 0.45826 0.15566 0.0
C1234 C 0.05756 0.50921 0.17366 0.0
C1235 C 0.06567 0.52804 0.1563 0.0
C1236 C 0.0856 0.55045 0.16334 0.0
C1237 C 0.09735 0.55393 0.18889 0.0
C1238 C 0.08936 0.53497 0.20692 0.0
C1239 C 0.06952 0.51207 0.19911 0.0
H1240 H 0.36216 0.74912 0.27102 0.0
H1241 H 0.29665 0.76319 0.32366 0.0
H1242 H 0.31917 0.7494 0.36128 0.0
H1243 H 0.38331 0.69096 0.29925 0.0
H1244 H 0.417 0.70455 0.29654 0.0
H1245 H 0.39401 0.71077 0.27273 0.0
H1246 H 0.40879 0.76504 0.28523 0.0
H1247 H 0.43195 0.75896 0.3088 0.0
H1248 H 0.40842 0.78225 0.32038 0.0
H1249 H 0.35071 0.73733 0.39424 0.0
H1250 H 0.38948 0.7338 0.42042 0.0
H1251 H 0.43529 0.73226 0.34687 0.0
C1252 C 0.35254 0.74915 0.29044 0.0
C1253 C 0.32758 0.75693 0.29438 0.0
C1254 C 0.31553 0.75665 0.32004 0.0
C1255 C 0.32823 0.74893 0.34152 0.0
C1256 C 0.35307 0.74179 0.33706 0.0
C1257 C 0.36516 0.74216 0.31217 0.0
C1258 C 0.39287 0.73689 0.3133 0.0
C1259 C 0.39703 0.70914 0.29433 0.0
C1260 C 0.4116 0.76229 0.30655 0.0
C1261 C 0.39479 0.73423 0.34292 0.0
C1262 C 0.37149 0.73634 0.35619 0.0
C1263 C 0.36898 0.73544 0.38397 0.0
C1264 C 0.39103 0.73326 0.39866 0.0
C1265 C 0.41528 0.73267 0.38562 0.0
C1266 C 0.41692 0.7325 0.35731 0.0
H1267 H 0.95828 0.42422 0.068 0.0
H1268 H 0.02035 0.48204 0.04134 0.0
H1269 H 0.0402 0.44131 0.01665 0.0
H1270 H 0.99699 0.36461 0.07247 0.0
H1271 H 0.97028 0.33808 0.05947 0.0
H1272 H 0.96432 0.37136 0.0797 0.0
H1273 H 0.93579 0.37961 0.04095 0.0
H1274 H 0.9419 0.34669 0.02044 0.0
H1275 H 0.9492 0.37931 0.00733 0.0
H1276 H 0.04841 0.39534 0.98814 0.0
H1277 H 0.04617 0.34734 0.96031 0.0
H1278 H 0.9785 0.31891 0.00533 0.0
C1279 C 0.97654 0.42805 0.05772 0.0
C1280 C 0.98808 0.45601 0.05667 0.0
C1281 C 0.01166 0.46063 0.04273 0.0
C1282 C 0.02292 0.43766 0.02857 0.0
C1283 C 0.01039 0.41023 0.02883 0.0
C1284 C 0.9879 0.4053 0.04341 0.0
C1285 C 0.97673 0.37412 0.03796 0.0
C1286 C 0.97711 0.36128 0.06395 0.0
C1287 C 0.9493 0.36969 0.02595 0.0
C1288 C 0.99578 0.36247 0.01714 0.0
C1289 C 0.01521 0.38357 0.01237 0.0
C1290 C 0.03366 0.37849 0.99216 0.0
C1291 C 0.03214 0.3512 0.97634 0.0
C1292 C 0.01231 0.3293 0.9808 0.0
C1293 C 0.9942 0.33503 0.00179 0.0
H1294 H 0.66139 0.74813 0.30298 0.0
H1295 H 0.63403 0.78776 0.24013 0.0
H1296 H 0.59111 0.78681 0.26203 0.0
H1297 H 0.59895 0.70283 0.31377 0.0
H1298 H 0.60412 0.70813 0.35003 0.0
H1299 H 0.63131 0.70816 0.3272 0.0
H1300 H 0.65068 0.75779 0.35316 0.0
H1301 H 0.62346 0.75813 0.37583 0.0
H1302 H 0.63177 0.7866 0.35693 0.0
H1303 H 0.554 0.78789 0.29379 0.0
H1304 H 0.52307 0.78755 0.33172 0.0
H1305 H 0.57367 0.74613 0.37425 0.0
C1306 C 0.64598 0.75572 0.29353 0.0
C1307 C 0.65059 0.76756 0.26972 0.0
C1308 C 0.63046 0.77804 0.25802 0.0
C1309 C 0.60618 0.77772 0.27042 0.0
C1310 C 0.60241 0.76667 0.29437 0.0
C1311 C 0.6216 0.75549 0.30566 0.0
C1312 C 0.61307 0.74679 0.33256 0.0
C1313 C 0.61178 0.71456 0.33077 0.0
C1314 C 0.6308 0.76332 0.356 0.0
C1315 C 0.58637 0.75562 0.33501 0.0
C1316 C 0.58065 0.76698 0.3127 0.0
C1317 C 0.55802 0.77857 0.31112 0.0
C1318 C 0.54068 0.77846 0.33286 0.0
C1319 C 0.54596 0.76668 0.3558 0.0
C1320 C 0.56901 0.75488 0.35676 0.0
H1321 H 0.03977 0.12361 0.07675 0.0
H1322 H 0.04435 0.05006 0.01445 0.0
H1323 H 0.04618 0.08027 0.97893 0.0
H1324 H 0.99409 0.14625 0.04522 0.0
H1325 H 0.00379 0.1839 0.05565 0.0
H1326 H 0.01223 0.15972 0.07624 0.0
H1327 H 0.06069 0.17938 0.0735 0.0
H1328 H 0.05248 0.20441 0.05348 0.0
H1329 H 0.07549 0.18088 0.04072 0.0
H1330 H 0.03969 0.11749 0.95019 0.0
H1331 H 0.02359 0.15612 0.93154 0.0
H1332 H 0.01654 0.20245 0.01342 0.0
C1333 C 0.04266 0.11435 0.05567 0.0
C1334 C 0.04259 0.08483 0.04819 0.0
C1335 C 0.0452 0.07282 0.02049 0.0
C1336 C 0.04601 0.08984 1.00026 0.0
C1337 C 0.04396 0.1187 0.00823 0.0
C1338 C 0.04243 0.13082 0.03544 0.0
C1339 C 0.0352 0.16045 0.03889 0.0
C1340 C 0.00983 0.16267 0.05492 0.0
C1341 C 0.05729 0.18259 0.05244 0.0
C1342 C 0.03183 0.16284 0.00946 0.0
C1343 C 0.03783 0.13905 0.99196 0.0
C1344 C 0.03522 0.13628 0.96376 0.0
C1345 C 0.02603 0.1582 0.95334 0.0
C1346 C 0.01872 0.18196 0.97116 0.0
C1347 C 0.02194 0.18437 0.99945 0.0
H1348 H 0.32301 0.30234 0.24304 0.0
H1349 H 0.35236 0.31689 0.3255 0.0
H1350 H 0.39557 0.30787 0.3076 0.0
H1351 H 0.36391 0.24994 0.2109 0.0
H1352 H 0.36819 0.26533 0.1805 0.0
H1353 H 0.33893 0.26757 0.20002 0.0
H1354 H 0.34641 0.32232 0.20404 0.0
H1355 H 0.37579 0.32033 0.18481 0.0
H1356 H 0.37633 0.34218 0.21816 0.0
H1357 H 0.4363 0.30021 0.27999 0.0
H1358 H 0.47125 0.29709 0.24577 0.0
H1359 H 0.41593 0.29437 0.18168 0.0
C1360 C 0.3385 0.30327 0.2573 0.0
C1361 C 0.33439 0.31017 0.28564 0.0
C1362 C 0.35502 0.3111 0.30375 0.0
C1363 C 0.37962 0.30622 0.29372 0.0
C1364 C 0.38327 0.30079 0.26554 0.0
C1365 C 0.36322 0.29943 0.24762 0.0
C1366 C 0.37255 0.29643 0.21842 0.0
C1367 C 0.36016 0.26813 0.20146 0.0
C1368 C 0.36747 0.32182 0.20562 0.0
C1369 C 0.40112 0.29664 0.22261 0.0
C1370 C 0.40686 0.29854 0.24987 0.0
C1371 C 0.43199 0.29875 0.25863 0.0
C1372 C 0.4517 0.29699 0.23907 0.0
C1373 C 0.4463 0.29577 0.21116 0.0
C1374 C 0.42065 0.29564 0.20293 0.0
H1375 H 0.51606 0.4632 0.0271 0.0
H1376 H 0.56014 0.52542 0.08815 0.0
H1377 H 0.56361 0.48791 0.11551 0.0
H1378 H 0.47724 0.43153 0.07332 0.0
H1379 H 0.4743 0.39603 0.05379 0.0
H1380 H 0.48011 0.42609 0.03674 0.0
H1381 H 0.52096 0.40779 0.01396 0.0
H1382 H 0.51516 0.37743 0.03073 0.0
H1383 H 0.54578 0.40017 0.03487 0.0
H1384 H 0.55833 0.44357 0.138 0.0
H1385 H 0.54369 0.39814 0.154 0.0
H1386 H 0.49872 0.36763 0.08005 0.0
C1387 C 0.52673 0.46879 0.04607 0.0
C1388 C 0.53769 0.49712 0.05572 0.0
C1389 C 0.55181 0.50371 0.08041 0.0
C1390 C 0.55373 0.48258 0.09606 0.0
C1391 C 0.54136 0.45505 0.08665 0.0
C1392 C 0.52815 0.44822 0.06214 0.0
C1393 C 0.51398 0.41822 0.05781 0.0
C1394 C 0.48468 0.41797 0.05528 0.0
C1395 C 0.52461 0.39982 0.03286 0.0
C1396 C 0.52075 0.40927 0.08397 0.0
C1397 C 0.53704 0.43046 0.10014 0.0
C1398 C 0.54564 0.42686 0.12541 0.0
C1399 C 0.53724 0.40105 0.13436 0.0
C1400 C 0.51991 0.37956 0.11837 0.0
C1401 C 0.51177 0.38381 0.09284 0.0
H1402 H 0.66937 0.25428 0.29241 0.0
H1403 H 0.64487 0.1645 0.2899 0.0
H1404 H 0.60983 0.1655 0.2576 0.0
H1405 H 0.60714 0.27404 0.29266 0.0
H1406 H 0.61529 0.30062 0.27156 0.0
H1407 H 0.6397 0.2922 0.29239 0.0
H1408 H 0.66822 0.281 0.2498 0.0
H1409 H 0.64396 0.28954 0.22881 0.0
H1410 H 0.6551 0.25542 0.22083 0.0
H1411 H 0.57575 0.1773 0.22895 0.0
H1412 H 0.54561 0.19817 0.20395 0.0
H1413 H 0.59237 0.2808 0.22481 0.0
C1414 C 0.65673 0.23486 0.2847 0.0
C1415 C 0.65965 0.20925 0.29333 0.0
C1416 C 0.64294 0.18413 0.28309 0.0
C1417 C 0.62303 0.1846 0.26492 0.0
C1418 C 0.62032 0.21036 0.25718 0.0
C1419 C 0.63683 0.235 0.26656 0.0
C1420 C 0.62911 0.26009 0.25596 0.0
C1421 C 0.62241 0.28309 0.27955 0.0
C1422 C 0.65036 0.27222 0.23776 0.0
C1423 C 0.60537 0.24584 0.2395 0.0
C1424 C 0.60071 0.21714 0.24046 0.0
C1425 C 0.57934 0.19966 0.22781 0.0
C1426 C 0.56228 0.21178 0.21375 0.0
C1427 C 0.56667 0.24112 0.21237 0.0
C1428 C 0.58862 0.25829 0.22532 0.0
H1429 H 0.44848 0.15295 0.9762 0.0
H1430 H 0.50352 0.09682 0.98586 0.0
H1431 H 0.52687 0.13414 0.02088 0.0
H1432 H 0.49423 0.22255 0.99203 0.0
H1433 H 0.46924 0.24016 0.01024 0.0
H1434 H 0.461 0.2119 0.98162 0.0
H1435 H 0.42916 0.18537 0.0121 0.0
H1436 H 0.43756 0.21313 0.0409 0.0
H1437 H 0.44085 0.17696 0.04296 0.0
H1438 H 0.53816 0.17294 0.06085 0.0
H1439 H 0.53895 0.21179 0.10048 0.0
H1440 H 0.47625 0.24308 0.06511 0.0
C1441 C 0.46607 0.14914 0.98502 0.0
C1442 C 0.4745 0.12236 0.9784 0.0
C1443 C 0.49722 0.11753 0.99046 0.0
C1444 C 0.51043 0.13853 0.01041 0.0
C1445 C 0.50075 0.16427 0.01771 0.0
C1446 C 0.47932 0.16985 0.00502 0.0
C1447 C 0.47089 0.19762 0.01878 0.0
C1448 C 0.47404 0.21935 0.99952 0.0
C1449 C 0.44298 0.19297 0.02931 0.0
C1450 C 0.49011 0.20614 0.04201 0.0
C1451 C 0.50737 0.18681 0.04085 0.0
C1452 C 0.52521 0.1886 0.0616 0.0
C1453 C 0.52537 0.21063 0.08413 0.0
C1454 C 0.5078 0.23059 0.08577 0.0
C1455 C 0.49027 0.2285 0.06416 0.0
H1456 H 0.23672 0.36093 0.77715 0.0
H1457 H 0.29587 0.30783 0.75169 0.0
H1458 H 0.32895 0.35071 0.75667 0.0
H1459 H 0.26447 0.42241 0.74679 0.0
H1460 H 0.2551 0.44755 0.77521 0.0
H1461 H 0.23605 0.41309 0.76618 0.0
H1462 H 0.24103 0.40408 0.81532 0.0
H1463 H 0.2602 0.43838 0.82448 0.0
H1464 H 0.27289 0.40691 0.82941 0.0
H1465 H 0.3556 0.39895 0.76818 0.0
H1466 H 0.37421 0.44871 0.78485 0.0
H1467 H 0.29742 0.46999 0.80512 0.0
C1468 C 0.25664 0.35847 0.77249 0.0
C1469 C 0.26398 0.33129 0.76423 0.0
C1470 C 0.29006 0.32864 0.75789 0.0
C1471 C 0.30886 0.3528 0.76074 0.0
C1472 C 0.3011 0.37932 0.7699 0.0
C1473 C 0.27558 0.38228 0.77556 0.0
C1474 C 0.27245 0.41282 0.78685 0.0
C1475 C 0.25605 0.42466 0.7676 0.0
C1476 C 0.26097 0.41571 0.81573 0.0
C1477 C 0.3003 0.42658 0.78723 0.0
C1478 C 0.31648 0.40696 0.77706 0.0
C1479 C 0.34311 0.41452 0.77599 0.0
C1480 C 0.35348 0.44287 0.78557 0.0
C1481 C 0.33729 0.4633 0.79635 0.0
C1482 C 0.31033 0.45493 0.79703 0.0
H1483 H 0.21394 0.68461 0.8408 0.0
H1484 H 0.26341 0.74112 0.79737 0.0
H1485 H 0.29919 0.7131 0.7994 0.0
H1486 H 0.2654 0.67149 0.88555 0.0
H1487 H 0.25159 0.6349 0.88422 0.0
H1488 H 0.23102 0.66121 0.88168 0.0
H1489 H 0.21257 0.63127 0.83614 0.0
H1490 H 0.23328 0.60509 0.8383 0.0
H1491 H 0.23432 0.62165 0.80861 0.0
H1492 H 0.32765 0.67599 0.80173 0.0
H1493 H 0.34817 0.63438 0.80714 0.0
H1494 H 0.28051 0.60248 0.85033 0.0
C1495 C 0.23257 0.69139 0.83244 0.0
C1496 C 0.23611 0.7148 0.81883 0.0
C1497 C 0.26048 0.72302 0.80764 0.0
C1498 C 0.28083 0.70731 0.80879 0.0
C1499 C 0.27651 0.68366 0.82151 0.0
C1500 C 0.25311 0.67595 0.83351 0.0
C1501 C 0.25313 0.64886 0.84476 0.0
C1502 C 0.25011 0.65446 0.87591 0.0
C1503 C 0.23208 0.62534 0.83113 0.0
C1504 C 0.27991 0.64209 0.83652 0.0
C1505 C 0.29311 0.6625 0.82324 0.0
C1506 C 0.31766 0.66009 0.81246 0.0
C1507 C 0.3291 0.6363 0.81551 0.0
C1508 C 0.31602 0.61524 0.82925 0.0
C1509 C 0.29113 0.61834 0.83995 0.0
H1510 H 0.8724 0.54241 0.47256 0.0
H1511 H 0.93505 0.52108 0.51642 0.0
H1512 H 0.90386 0.49003 0.53993 0.0
H1513 H 0.82688 0.54525 0.52785 0.0
H1514 H 0.79934 0.52985 0.50646 0.0
H1515 H 0.82663 0.55 0.49285 0.0
H1516 H 0.83089 0.50722 0.45425 0.0
H1517 H 0.80351 0.48702 0.46763 0.0
H1518 H 0.8338 0.47316 0.46288 0.0
H1519 H 0.86604 0.46192 0.55868 0.0
H1520 H 0.82411 0.43674 0.5704 0.0
H1521 H 0.78569 0.47677 0.51449 0.0
C1522 C 0.87935 0.53099 0.48704 0.0
C1523 C 0.90591 0.53369 0.49269 0.0
C1524 C 0.91468 0.51876 0.51174 0.0
C1525 C 0.89715 0.50133 0.52524 0.0
C1526 C 0.87097 0.49922 0.5194 0.0
C1527 C 0.86207 0.51353 0.50069 0.0
C1528 C 0.83297 0.50747 0.4981 0.0
C1529 C 0.82074 0.53477 0.50684 0.0
C1530 C 0.82482 0.49284 0.46899 0.0
C1531 C 0.82692 0.48742 0.5182 0.0
C1532 C 0.84911 0.48306 0.53032 0.0
C1533 C 0.8485 0.46516 0.54934 0.0
C1534 C 0.82456 0.45098 0.55588 0.0
C1535 C 0.80157 0.45476 0.54339 0.0
C1536 C 0.80286 0.47349 0.52451 0.0
H1537 H 0.75499 0.8628 0.82929 0.0
H1538 H 0.73048 0.81174 0.7515 0.0
H1539 H 0.70015 0.84535 0.74575 0.0
H1540 H 0.69157 0.88349 0.85034 0.0
H1541 H 0.70521 0.91877 0.86643 0.0
H1542 H 0.72352 0.88968 0.86491 0.0
H1543 H 0.76103 0.91718 0.84131 0.0
H1544 H 0.74285 0.9463 0.84273 0.0
H1545 H 0.75472 0.92969 0.81052 0.0
H1546 H 0.67496 0.88652 0.74738 0.0
H1547 H 0.65643 0.93156 0.75628 0.0
H1548 H 0.69694 0.95511 0.83374 0.0
C1549 C 0.74292 0.8587 0.81128 0.0
C1550 C 0.74495 0.83504 0.79068 0.0
C1551 C 0.72913 0.83004 0.76726 0.0
C1552 C 0.71188 0.84889 0.76395 0.0
C1553 C 0.71058 0.87242 0.78445 0.0
C1554 C 0.72558 0.87727 0.80775 0.0
C1555 C 0.72128 0.90464 0.82624 0.0
C1556 C 0.7097 0.89879 0.8536 0.0
C1557 C 0.74647 0.92569 0.83043 0.0
C1558 C 0.70192 0.91476 0.80949 0.0
C1559 C 0.69587 0.89584 0.78553 0.0
C1560 C 0.67933 0.90134 0.76622 0.0
C1561 C 0.66891 0.92698 0.77144 0.0
C1562 C 0.67508 0.94678 0.79577 0.0
C1563 C 0.69156 0.94029 0.8151 0.0
H1564 H 0.58159 0.58552 0.05646 0.0
H1565 H 0.57814 0.49972 0.01198 0.0
H1566 H 0.62517 0.50834 0.00294 0.0
H1567 H 0.61936 0.61623 0.01044 0.0
H1568 H 0.63784 0.64369 0.03448 0.0
H1569 H 0.60585 0.62898 0.0431 0.0
H1570 H 0.62317 0.61549 0.08651 0.0
H1571 H 0.65525 0.63077 0.07844 0.0
H1572 H 0.64924 0.59449 0.08374 0.0
H1573 H 0.67104 0.52902 0.99305 0.0
H1574 H 0.71183 0.55889 0.98463 0.0
H1575 H 0.68387 0.6323 0.03315 0.0
C1576 C 0.59106 0.56834 0.04566 0.0
C1577 C 0.57656 0.54191 0.03511 0.0
C1578 C 0.58921 0.51988 0.02067 0.0
C1579 C 0.61581 0.52473 0.0153 0.0
C1580 C 0.62933 0.55171 0.02459 0.0
C1581 C 0.61738 0.57306 0.03977 0.0
C1582 C 0.63518 0.60108 0.04462 0.0
C1583 C 0.62388 0.62382 0.03242 0.0
C1584 C 0.64106 0.61103 0.07514 0.0
C1585 C 0.6588 0.59245 0.02913 0.0
C1586 C 0.65526 0.56383 0.01807 0.0
C1587 C 0.67411 0.55136 0.00194 0.0
C1588 C 0.69718 0.56855 0.99717 0.0
C1589 C 0.70109 0.59799 0.00815 0.0
C1590 C 0.68155 0.60991 0.02441 0.0
H1591 H 0.29418 0.70198 0.26787 0.0
H1592 H 0.24526 0.76795 0.28477 0.0
H1593 H 0.20983 0.73362 0.29829 0.0
H1594 H 0.24758 0.64792 0.23815 0.0
H1595 H 0.2581 0.61978 0.25249 0.0
H1596 H 0.2809 0.65009 0.24777 0.0
H1597 H 0.29317 0.65963 0.29891 0.0
H1598 H 0.27061 0.62906 0.30378 0.0
H1599 H 0.26823 0.66331 0.32428 0.0
H1600 H 0.17837 0.69181 0.30274 0.0
H1601 H 0.15283 0.64478 0.3023 0.0
H1602 H 0.22204 0.60498 0.28532 0.0
C1603 C 0.27621 0.70914 0.27525 0.0
C1604 C 0.27215 0.7374 0.27544 0.0
C1605 C 0.24841 0.74627 0.2846 0.0
C1606 C 0.22833 0.72699 0.29233 0.0
C1607 C 0.23252 0.69901 0.29112 0.0
C1608 C 0.25595 0.69009 0.28328 0.0
C1609 C 0.25461 0.65834 0.28223 0.0
C1610 C 0.26065 0.64315 0.25345 0.0
C1611 C 0.27273 0.65223 0.30358 0.0
C1612 C 0.2265 0.65072 0.28956 0.0
C1613 C 0.21424 0.67463 0.29469 0.0
C1614 C 0.18782 0.67299 0.29941 0.0
C1615 C 0.17346 0.64621 0.29891 0.0
C1616 C 0.18556 0.62144 0.29402 0.0
C1617 C 0.21248 0.62373 0.28965 0.0
H1618 H 0.90966 0.53999 0.08237 0.0
H1619 H 0.95148 0.51684 0.00777 0.0
H1620 H 0.92302 0.54049 0.98306 0.0
H1621 H 0.84713 0.53119 0.05361 0.0
H1622 H 0.8369 0.56166 0.07521 0.0
H1623 H 0.86087 0.54349 0.08717 0.0
H1624 H 0.89242 0.5906 0.09661 0.0
H1625 H 0.8685 0.60896 0.08475 0.0
H1626 H 0.90014 0.61061 0.06959 0.0
H1627 H 0.88809 0.56274 0.96592 0.0
H1628 H 0.85062 0.58589 0.9577 0.0
H1629 H 0.83346 0.59904 0.0441 0.0
C1630 C 0.91294 0.54038 0.06094 0.0
C1631 C 0.93253 0.52655 0.04677 0.0
C1632 C 0.93631 0.52713 0.01872 0.0
C1633 C 0.92035 0.54056 0.00464 0.0
C1634 C 0.90102 0.55381 0.01907 0.0
C1635 C 0.89744 0.55422 0.04667 0.0
C1636 C 0.87516 0.57003 0.0572 0.0
C1637 C 0.85375 0.55041 0.06898 0.0
C1638 C 0.88463 0.59664 0.07829 0.0
C1639 C 0.86647 0.57788 0.0311 0.0
C1640 C 0.88161 0.56812 0.00936 0.0
C1641 C 0.87637 0.57093 0.98282 0.0
C1642 C 0.85504 0.58401 0.97834 0.0
C1643 C 0.83948 0.59453 1.00031 0.0
C1644 C 0.84545 0.59171 0.02706 0.0
H1645 H 0.06035 0.01336 0.03928 0.0
H1646 H 0.08885 0.07517 0.10958 0.0
H1647 H 0.13037 0.05569 0.10671 0.0
H1648 H 0.08544 0.95663 0.05509 0.0
H1649 H 0.09447 0.94163 0.02109 0.0
H1650 H 0.06856 0.96277 0.02609 0.0
H1651 H 0.09148 0.99663 0.99547 0.0
H1652 H 0.1172 0.97515 0.98972 0.0
H1653 H 0.12441 0.01268 0.00277 0.0
H1654 H 0.16527 0.02412 0.10074 0.0
H1655 H 0.19464 0.9882 0.08731 0.0
H1656 H 0.14474 0.9487 0.01877 0.0
C1657 C 0.07586 0.02349 0.05319 0.0
C1658 C 0.07183 0.04593 0.07441 0.0
C1659 C 0.09203 0.05826 0.09297 0.0
C1660 C 0.11547 0.04716 0.09159 0.0
C1661 C 0.11849 0.02406 0.07117 0.0
C1662 C 0.09952 0.01287 0.0518 0.0
C1663 C 0.1072 0.98735 0.03264 0.0
C1664 C 0.08776 0.96052 0.03382 0.0
C1665 C 0.11026 0.99331 0.00342 0.0
C1666 C 0.13302 0.98535 0.04478 0.0
C1667 C 0.13909 0.0066 0.06711 0.0
C1668 C 0.161 0.00779 0.08292 0.0
C1669 C 0.17743 0.98715 0.07532 0.0
C1670 C 0.17204 0.96583 0.05193 0.0
C1671 C 0.1495 0.96499 0.03656 0.0
loop_
_geom_bond_atom_site_label_1
_geom_bond_atom_site_label_2
_geom_bond_distance
_geom_bond_site_symmetry_2
_ccdc_geom_bond_type
C0 N1 1.317 . S
C0 N2 1.348 . S
C0 C3 1.485 . S
N1 C0 1.317 . S
N1 N5 1.370 . S
N2 C0 1.348 . S
N2 C4 1.346 . S
C3 C0 1.485 . S
C3 H7 0.960 . S
C3 H8 0.961 . S
C3 H9 0.960 . S
C4 N2 1.346 . S
C4 N5 1.307 . S
C4 C6 1.486 . S
N5 N1 1.370 . S
N5 C4 1.307 . S
C6 C4 1.486 . S
C6 H10 0.960 . S
C6 H11 0.960 . S
C6 H12 0.959 . S
H7 C3 0.960 . S
H8 C3 0.961 . S
H9 C3 0.960 . S
H10 C6 0.960 . S
H11 C6 0.960 . S
H12 C6 0.959 . S
C13 N14 1.317 . S
C13 N15 1.348 . S
C13 C16 1.485 . S
N14 C13 1.317 . S
N14 N18 1.370 . S
N15 C13 1.348 . S
N15 C17 1.346 . S
C16 C13 1.485 . S
C16 H20 0.960 . S
C16 H21 0.961 . S
C16 H22 0.960 . S
C17 N15 1.346 . S
C17 N18 1.307 . S
C17 C19 1.486 . S
N18 N14 1.370 . S
N18 C17 1.307 . S
C19 C17 1.486 . S
C19 H23 0.960 . S
C19 H24 0.960 . S
C19 H25 0.959 . S
H20 C16 0.960 . S
H21 C16 0.961 . S
H22 C16 0.960 . S
H23 C19 0.960 . S
H24 C19 0.960 . S
H25 C19 0.959 . S
C26 N27 1.317 . S
C26 N28 1.348 . S
C26 C29 1.485 . S
N27 C26 1.317 . S
N27 N31 1.370 . S
N28 C26 1.348 . S
N28 C30 1.346 . S
C29 C26 1.485 . S
C29 H33 0.960 . S
C29 H34 0.961 . S
C29 H35 0.960 . S
C30 N28 1.346 . S
C30 N31 1.307 . S
C30 C32 1.486 . S
N31 N27 1.370 . S
N31 C30 1.307 . S
C32 C30 1.486 . S
C32 H36 0.960 . S
C32 H37 0.960 . S
C32 H38 0.959 . S
H33 C29 0.960 . S
H34 C29 0.961 . S
H35 C29 0.960 . S
H36 C32 0.960 . S
H37 C32 0.960 . S
H38 C32 0.959 . S
C39 N40 1.317 . S
C39 N41 1.348 . S
C39 C42 1.485 . S
N40 C39 1.317 . S
N40 N44 1.370 . S
N41 C39 1.348 . S
N41 C43 1.346 . S
C42 C39 1.485 . S
C42 H46 0.960 . S
C42 H47 0.961 . S
C42 H48 0.960 . S
C43 N41 1.346 . S
C43 N44 1.307 . S
C43 C45 1.486 . S
N44 N40 1.370 . S
N44 C43 1.307 . S
C45 C43 1.486 . S
C45 H49 0.960 . S
C45 H50 0.960 . S
C45 H51 0.959 . S
H46 C42 0.960 . S
H47 C42 0.961 . S
H48 C42 0.960 . S
H49 C45 0.960 . S
H50 C45 0.960 . S
H51 C45 0.959 . S
C52 N53 1.317 . S
C52 N54 1.348 . S
C52 C55 1.485 . S
N53 C52 1.317 . S
N53 N57 1.370 . S
N54 C52 1.348 . S
N54 C56 1.346 . S
C55 C52 1.485 . S
C55 H59 0.960 . S
C55 H60 0.961 . S
C55 H61 0.960 . S
C56 N54 1.346 . S
C56 N57 1.307 . S
C56 C58 1.506 . S
N57 N53 1.370 . S
N57 C56 1.307 . S
C58 C56 1.506 . S
C58 H62 0.938 1_565 S
C58 H63 0.961 . S
C58 H64 0.959 1_565 S
H59 C55 0.960 . S
H60 C55 0.961 . S
H61 C55 0.960 . S
H62 C58 0.938 1_545 S
H63 C58 0.961 . S
H64 C58 0.959 1_545 S
C65 N66 1.317 . S
C65 N67 1.348 . S
C65 C68 1.485 . S
N66 C65 1.317 . S
N66 N70 1.370 . S
N67 C65 1.348 . S
N67 C69 1.346 . S
C68 C65 1.485 . S
C68 H72 0.960 . S
C68 H73 0.961 . S
C68 H74 0.960 . S
C69 N67 1.346 . S
C69 N70 1.307 . S
C69 C71 1.486 . S
N70 N66 1.370 . S
N70 C69 1.307 . S
C71 C69 1.486 . S
C71 H75 0.960 . S
C71 H76 0.960 . S
C71 H77 0.959 . S
H72 C68 0.960 . S
H73 C68 0.961 . S
H74 C68 0.960 . S
H75 C71 0.960 . S
H76 C71 0.960 . S
H77 C71 0.959 . S
C78 N79 1.317 . S
C78 N80 1.348 . S
C78 C81 1.485 . S
N79 C78 1.317 . S
N79 N83 1.370 . S
N80 C78 1.348 . S
N80 C82 1.346 . S
C81 C78 1.485 . S
C81 H85 0.960 . S
C81 H86 0.961 . S
C81 H87 0.960 . S
C82 N80 1.346 . S
C82 N83 1.307 . S
C82 C84 1.486 . S
N83 N79 1.370 . S
N83 C82 1.307 . S
C84 C82 1.486 . S
C84 H88 0.960 . S
C84 H89 0.960 . S
C84 H90 0.959 . S
H85 C81 0.960 . S
H86 C81 0.961 . S
H87 C81 0.960 . S
H88 C84 0.960 . S
H89 C84 0.960 . S
H90 C84 0.959 . S
C91 N92 1.317 . S
C91 N93 1.348 . S
C91 C94 1.485 . S
N92 C91 1.317 . S
N92 N96 1.370 . S
N93 C91 1.348 . S
N93 C95 1.346 . S
C94 C91 1.485 . S
C94 H98 0.960 . S
C94 H99 0.961 . S
C94 H100 0.960 . S
C95 N93 1.346 . S
C95 N96 1.307 . S
C95 C97 1.486 . S
N96 N92 1.370 . S
N96 C95 1.307 . S
C97 C95 1.486 . S
C97 H101 0.960 . S
C97 H102 0.960 . S
C97 H103 0.959 . S
H98 C94 0.960 . S
H99 C94 0.961 . S
H100 C94 0.960 . S
H101 C97 0.960 . S
H102 C97 0.960 . S
H103 C97 0.959 . S
C104 N105 1.317 . S
C104 N106 1.348 . S
C104 C107 1.485 . S
N105 C104 1.317 . S
N105 N109 1.370 . S
N106 C104 1.348 . S
N106 C108 1.346 . S
C107 C104 1.485 . S
C107 H111 0.960 . S
C107 H112 0.961 . S
C107 H113 0.960 . S
C108 N106 1.346 . S
C108 N109 1.307 . S
C108 C110 1.486 . S
N109 N105 1.370 . S
N109 C108 1.307 . S
C110 C108 1.486 . S
C110 H114 0.960 . S
C110 H115 0.960 . S
C110 H116 0.959 . S
H111 C107 0.960 . S
H112 C107 0.961 . S
H113 C107 0.960 . S
H114 C110 0.960 . S
H115 C110 0.960 . S
H116 C110 0.959 . S
C117 N118 1.317 . S
C117 N119 1.348 . S
C117 C120 1.485 . S
N118 C117 1.317 . S
N118 N122 1.370 . S
N119 C117 1.348 . S
N119 C121 1.346 . S
C120 C117 1.485 . S
C120 H124 0.960 . S
C120 H125 0.961 . S
C120 H126 0.960 . S
C121 N119 1.346 . S
C121 N122 1.307 . S
C121 C123 1.486 . S
N122 N118 1.370 . S
N122 C121 1.307 . S
C123 C121 1.486 . S
C123 H127 0.960 . S
C123 H128 0.960 . S
C123 H129 0.959 . S
H124 C120 0.960 . S
H125 C120 0.961 . S
H126 C120 0.960 . S
H127 C123 0.960 . S
H128 C123 0.960 . S
H129 C123 0.959 . S
C130 N131 1.317 . S
C130 N132 1.348 . S
C130 C133 1.485 . S
N131 C130 1.317 . S
N131 N135 1.370 . S
N132 C130 1.348 . S
N132 C134 1.346 . S
C133 C130 1.485 . S
C133 H137 0.960 . S
C133 H138 0.961 . S
C133 H139 0.960 . S
C134 N132 1.346 . S
C134 N135 1.307 . S
C134 C136 1.486 . S
N135 N131 1.370 . S
N135 C134 1.307 . S
C136 C134 1.486 . S
C136 H140 0.960 . S
C136 H141 0.960 . S
C136 H142 0.959 . S
H137 C133 0.960 . S
H138 C133 0.961 . S
H139 C133 0.960 . S
H140 C136 0.960 . S
H141 C136 0.960 . S
H142 C136 0.959 . S
C143 N144 1.317 . S
C143 N145 1.348 . S
C143 C146 1.485 . S
N144 C143 1.317 . S
N144 N148 1.370 . S
N145 C143 1.348 . S
N145 C147 1.346 . S
C146 C143 1.485 . S
C146 H150 0.960 . S
C146 H151 0.961 . S
C146 H152 0.960 . S
C147 N145 1.346 . S
C147 N148 1.307 . S
C147 C149 1.486 . S
N148 N144 1.370 . S
N148 C147 1.307 . S
C149 C147 1.486 . S
C149 H153 0.960 . S
C149 H154 0.960 . S
C149 H155 0.959 . S
H150 C146 0.960 . S
H151 C146 0.961 . S
H152 C146 0.960 . S
H153 C149 0.960 . S
H154 C149 0.960 . S
H155 C149 0.959 . S
C156 N157 1.317 . S
C156 N158 1.348 . S
C156 C159 1.485 . S
N157 C156 1.317 . S
N157 N161 1.370 . S
N158 C156 1.348 . S
N158 C160 1.346 . S
C159 C156 1.485 . S
C159 H163 0.960 . S
C159 H164 0.961 . S
C159 H165 0.960 . S
C160 N158 1.346 . S
C160 N161 1.307 . S
C160 C162 1.486 . S
N161 N157 1.370 . S
N161 C160 1.307 . S
C162 C160 1.486 . S
C162 H166 0.960 . S
C162 H167 0.960 . S
C162 H168 0.959 . S
H163 C159 0.960 . S
H164 C159 0.961 . S
H165 C159 0.960 . S
H166 C162 0.960 . S
H167 C162 0.960 . S
H168 C162 0.959 . S
C169 N170 1.317 . S
C169 N171 1.348 . S
C169 C172 1.485 . S
N170 C169 1.317 . S
N170 N174 1.370 . S
N171 C169 1.348 . S
N171 C173 1.346 . S
C172 C169 1.485 . S
C172 H176 0.960 . S
C172 H177 0.961 . S
C172 H178 0.960 . S
C173 N171 1.346 . S
C173 N174 1.307 . S
C173 C175 1.486 . S
N174 N170 1.370 . S
N174 C173 1.307 . S
C175 C173 1.486 . S
C175 H179 0.960 . S
C175 H180 0.960 . S
C175 H181 0.959 . S
H176 C172 0.960 . S
H177 C172 0.961 . S
H178 C172 0.960 . S
H179 C175 0.960 . S
H180 C175 0.960 . S
H181 C175 0.959 . S
C182 N183 1.317 . S
C182 N184 1.348 . S
C182 C185 1.485 . S
N183 C182 1.317 . S
N183 N187 1.370 . S
N184 C182 1.348 . S
N184 C186 1.346 . S
C185 C182 1.485 . S
C185 H189 0.960 . S
C185 H190 0.961 . S
C185 H191 0.960 . S
C186 N184 1.346 . S
C186 N187 1.307 . S
C186 C188 1.486 . S
N187 N183 1.370 . S
N187 C186 1.307 . S
C188 C186 1.486 . S
C188 H192 0.960 . S
C188 H193 0.960 . S
C188 H194 0.959 . S
H189 C185 0.960 . S
H190 C185 0.961 . S
H191 C185 0.960 . S
H192 C188 0.960 . S
H193 C188 0.960 . S
H194 C188 0.959 . S
C195 N196 1.317 . S
C195 N197 1.348 . S
C195 C198 1.485 . S
N196 C195 1.317 . S
N196 N200 1.370 . S
N197 C195 1.348 . S
N197 C199 1.346 . S
C198 C195 1.485 . S
C198 H202 0.960 . S
C198 H203 0.961 . S
C198 H204 0.960 . S
C199 N197 1.346 . S
C199 N200 1.307 . S
C199 C201 1.486 . S
N200 N196 1.370 . S
N200 C199 1.307 . S
C201 C199 1.486 . S
C201 H205 0.960 1_556 S
C201 H206 0.960 . S
C201 H207 0.959 . S
H202 C198 0.960 . S
H203 C198 0.961 . S
H204 C198 0.960 . S
H205 C201 0.960 1_554 S
H206 C201 0.960 . S
H207 C201 0.959 . S
O208 Cd209 2.223 . S
O208 C216 1.315 . S
Cd209 O208 2.223 . S
Cd209 O212 2.297 . S
Cd209 O213 2.439 . S
Cd209 O219 2.240 . S
Cd210 O211 2.240 . S
Cd210 O218 2.223 . S
Cd210 O220 2.297 . S
Cd210 O221 2.439 . S
O211 Cd210 2.240 . S
O211 C216 1.279 . S
O212 Cd209 2.297 . S
O212 C214 1.247 . S
O213 Cd209 2.439 . S
O213 C214 1.208 . S
C214 O212 1.247 . S
C214 O213 1.208 . S
C215 O220 1.247 . S
C215 O221 1.208 . S
C216 O208 1.315 . S
C216 O211 1.279 . S
C217 O218 1.315 . S
C217 O219 1.279 . S
O218 Cd210 2.223 . S
O218 C217 1.315 . S
O219 Cd209 2.240 . S
O219 C217 1.279 . S
O220 Cd210 2.297 . S
O220 C215 1.247 . S
O221 Cd210 2.439 . S
O221 C215 1.208 . S
O222 Cd223 2.223 . S
O222 C230 1.315 . S
Cd223 O222 2.223 . S
Cd223 O226 2.297 . S
Cd223 O227 2.439 . S
Cd223 O233 2.240 . S
Cd224 O225 2.240 . S
Cd224 O232 2.223 . S
Cd224 O234 2.297 . S
Cd224 O235 2.439 . S
O225 Cd224 2.240 . S
O225 C230 1.279 . S
O226 Cd223 2.297 . S
O226 C228 1.247 . S
O227 Cd223 2.439 . S
O227 C228 1.208 . S
C228 O226 1.247 . S
C228 O227 1.208 . S
C229 O234 1.247 . S
C229 O235 1.208 . S
C230 O222 1.315 . S
C230 O225 1.279 . S
C231 O232 1.315 . S
C231 O233 1.279 . S
O232 Cd224 2.223 . S
O232 C231 1.315 . S
O233 Cd223 2.240 . S
O233 C231 1.279 . S
O234 Cd224 2.297 . S
O234 C229 1.247 . S
O235 Cd224 2.439 . S
O235 C229 1.208 . S
O236 Cd237 2.223 1_556 S
O236 C244 1.315 . S
Cd237 O236 2.223 1_554 S
Cd237 O240 2.297 . S
Cd237 O241 2.439 . S
Cd237 O247 2.240 . S
Cd238 O239 2.240 . S
Cd238 O246 2.223 . S
Cd238 O248 2.297 . S
Cd238 O249 2.439 1_556 S
O239 Cd238 2.240 . S
O239 C244 1.279 . S
O240 Cd237 2.297 . S
O240 C242 1.247 . S
O241 Cd237 2.439 . S
O241 C242 1.208 . S
C242 O240 1.247 . S
C242 O241 1.208 . S
C243 O248 1.247 1_554 S
C243 O249 1.208 . S
C244 O236 1.315 . S
C244 O239 1.279 . S
C245 O246 1.315 . S
C245 O247 1.279 1_556 S
O246 Cd238 2.223 . S
O246 C245 1.315 . S
O247 Cd237 2.240 . S
O247 C245 1.279 1_554 S
O248 Cd238 2.297 . S
O248 C243 1.247 1_556 S
O249 Cd238 2.439 1_554 S
O249 C243 1.208 . S
O250 Cd251 2.223 . S
O250 C258 1.315 . S
Cd251 O250 2.223 . S
Cd251 O254 2.297 . S
Cd251 O255 2.439 . S
Cd251 O261 2.240 . S
Cd252 O253 2.240 . S
Cd252 O260 2.223 . S
Cd252 O262 2.297 . S
Cd252 O263 2.439 . S
O253 Cd252 2.240 . S
O253 C258 1.279 . S
O254 Cd251 2.297 . S
O254 C256 1.247 . S
O255 Cd251 2.439 . S
O255 C256 1.208 . S
C256 O254 1.247 . S
C256 O255 1.208 . S
C257 O262 1.247 . S
C257 O263 1.208 . S
C258 O250 1.315 . S
C258 O253 1.279 . S
C259 O260 1.315 . S
C259 O261 1.279 . S
O260 Cd252 2.223 . S
O260 C259 1.315 . S
O261 Cd251 2.240 . S
O261 C259 1.279 . S
O262 Cd252 2.297 . S
O262 C257 1.247 . S
O263 Cd252 2.439 . S
O263 C257 1.208 . S
O264 Cd265 2.223 . S
O264 C272 1.315 . S
Cd265 O264 2.223 . S
Cd265 O268 2.297 . S
Cd265 O269 2.439 . S
Cd265 O275 2.240 . S
Cd266 O267 2.240 . S
Cd266 O274 2.223 . S
Cd266 O276 2.297 . S
Cd266 O277 2.439 . S
O267 Cd266 2.240 . S
O267 C272 1.279 . S
O268 Cd265 2.297 . S
O268 C270 1.247 . S
O269 Cd265 2.439 . S
O269 C270 1.208 . S
C270 O268 1.247 . S
C270 O269 1.208 . S
C271 O276 1.247 . S
C271 O277 1.208 . S
C272 O264 1.315 . S
C272 O267 1.279 . S
C273 O274 1.315 . S
C273 O275 1.279 . S
O274 Cd266 2.223 . S
O274 C273 1.315 . S
O275 Cd265 2.240 . S
O275 C273 1.279 . S
O276 Cd266 2.297 . S
O276 C271 1.247 . S
O277 Cd266 2.439 . S
O277 C271 1.208 . S
O278 Cd279 2.223 . S
O278 C286 1.315 . S
Cd279 O278 2.223 . S
Cd279 O282 2.297 . S
Cd279 O283 2.439 . S
Cd279 O289 2.240 . S
Cd280 O281 2.240 . S
Cd280 O288 2.223 . S
Cd280 O290 2.297 . S
Cd280 O291 2.439 . S
O281 Cd280 2.240 . S
O281 C286 1.279 . S
O282 Cd279 2.297 . S
O282 C284 1.247 . S
O283 Cd279 2.439 . S
O283 C284 1.208 . S
C284 O282 1.247 . S
C284 O283 1.208 . S
C285 O290 1.247 . S
C285 O291 1.208 . S
C286 O278 1.315 . S
C286 O281 1.279 . S
C287 O288 1.315 . S
C287 O289 1.279 . S
O288 Cd280 2.223 . S
O288 C287 1.315 . S
O289 Cd279 2.240 . S
O289 C287 1.279 . S
O290 Cd280 2.297 . S
O290 C285 1.247 . S
O291 Cd280 2.439 . S
O291 C285 1.208 . S
O292 Cd293 2.223 . S
O292 C300 1.315 . S
Cd293 O292 2.223 . S
Cd293 O296 2.297 . S
Cd293 O297 2.439 . S
Cd293 O303 2.240 . S
Cd294 O295 2.240 . S
Cd294 O302 2.223 . S
Cd294 O304 2.297 . S
Cd294 O305 2.439 . S
O295 Cd294 2.240 . S
O295 C300 1.279 . S
O296 Cd293 2.297 . S
O296 C298 1.247 . S
O297 Cd293 2.439 . S
O297 C298 1.208 . S
C298 O296 1.247 . S
C298 O297 1.208 . S
C299 O304 1.247 . S
C299 O305 1.208 . S
C300 O292 1.315 . S
C300 O295 1.279 . S
C301 O302 1.315 . S
C301 O303 1.279 . S
O302 Cd294 2.223 . S
O302 C301 1.315 . S
O303 Cd293 2.240 . S
O303 C301 1.279 . S
O304 Cd294 2.297 . S
O304 C299 1.247 . S
O305 Cd294 2.439 . S
O305 C299 1.208 . S
O306 Cd307 2.223 1_545 S
O306 C314 1.315 . S
Cd307 O306 2.223 1_565 S
Cd307 O310 2.297 . S
Cd307 O311 2.439 . S
Cd307 O317 2.240 1_565 S
Cd308 O309 2.240 . S
Cd308 O316 2.223 . S
Cd308 O318 2.297 . S
Cd308 O319 2.439 1_545 S
O309 Cd308 2.240 . S
O309 C314 1.279 . S
O310 Cd307 2.297 . S
O310 C312 1.247 . S
O311 Cd307 2.439 . S
O311 C312 1.208 . S
C312 O310 1.247 . S
C312 O311 1.208 . S
C313 O318 1.247 1_565 S
C313 O319 1.208 . S
C314 O306 1.315 . S
C314 O309 1.279 . S
C315 O316 1.315 . S
C315 O317 1.279 . S
O316 Cd308 2.223 . S
O316 C315 1.315 . S
O317 Cd307 2.240 1_545 S
O317 C315 1.279 . S
O318 Cd308 2.297 . S
O318 C313 1.247 1_545 S
O319 Cd308 2.439 1_565 S
O319 C313 1.208 . S
O320 Cd321 2.223 . S
O320 C328 1.315 . S
Cd321 O320 2.223 . S
Cd321 O324 2.297 . S
Cd321 O325 2.439 1_655 S
Cd321 O331 2.240 . S
Cd322 O323 2.240 1_455 S
Cd322 O330 2.223 1_455 S
Cd322 O332 2.297 . S
Cd322 O333 2.439 . S
O323 Cd322 2.240 1_655 S
O323 C328 1.279 . S
O324 Cd321 2.297 . S
O324 C326 1.247 1_655 S
O325 Cd321 2.439 1_455 S
O325 C326 1.208 . S
C326 O324 1.247 1_455 S
C326 O325 1.208 . S
C327 O332 1.247 . S
C327 O333 1.208 . S
C328 O320 1.315 . S
C328 O323 1.279 . S
C329 O330 1.315 . S
C329 O331 1.279 . S
O330 Cd322 2.223 1_655 S
O330 C329 1.315 . S
O331 Cd321 2.240 . S
O331 C329 1.279 . S
O332 Cd322 2.297 . S
O332 C327 1.247 . S
O333 Cd322 2.439 . S
O333 C327 1.208 . S
O334 Cd335 2.223 . S
O334 C342 1.315 . S
Cd335 O334 2.223 . S
Cd335 O338 2.297 . S
Cd335 O339 2.439 . S
Cd335 O345 2.240 . S
Cd336 O337 2.240 . S
Cd336 O344 2.223 . S
Cd336 O346 2.297 . S
Cd336 O347 2.439 . S
O337 Cd336 2.240 . S
O337 C342 1.279 . S
O338 Cd335 2.297 . S
O338 C340 1.247 . S
O339 Cd335 2.439 . S
O339 C340 1.208 . S
C340 O338 1.247 . S
C340 O339 1.208 . S
C341 O346 1.247 . S
C341 O347 1.208 . S
C342 O334 1.315 . S
C342 O337 1.279 . S
C343 O344 1.315 . S
C343 O345 1.279 . S
O344 Cd336 2.223 . S
O344 C343 1.315 . S
O345 Cd335 2.240 . S
O345 C343 1.279 . S
O346 Cd336 2.297 . S
O346 C341 1.247 . S
O347 Cd336 2.439 . S
O347 C341 1.208 . S
O348 Cd349 2.223 1_655 S
O348 C356 1.315 . S
Cd349 O348 2.223 1_455 S
Cd349 O352 2.297 . S
Cd349 O353 2.439 . S
Cd349 O359 2.240 . S
Cd350 O351 2.240 . S
Cd350 O358 2.223 1_455 S
Cd350 O360 2.297 . S
Cd350 O361 2.439 . S
O351 Cd350 2.240 . S
O351 C356 1.279 1_455 S
O352 Cd349 2.297 . S
O352 C354 1.247 . S
O353 Cd349 2.439 . S
O353 C354 1.208 . S
C354 O352 1.247 . S
C354 O353 1.208 . S
C355 O360 1.247 . S
C355 O361 1.208 . S
C356 O348 1.315 . S
C356 O351 1.279 1_655 S
C357 O358 1.315 . S
C357 O359 1.279 1_655 S
O358 Cd350 2.223 1_655 S
O358 C357 1.315 . S
O359 Cd349 2.240 . S
O359 C357 1.279 1_455 S
O360 Cd350 2.297 . S
O360 C355 1.247 . S
O361 Cd350 2.439 . S
O361 C355 1.208 . S
O362 Cd363 2.223 . S
O362 C370 1.315 . S
Cd363 O362 2.223 . S
Cd363 O366 2.297 . S
Cd363 O367 2.439 . S
Cd363 O373 2.240 . S
Cd364 O365 2.240 . S
Cd364 O372 2.223 . S
Cd364 O374 2.297 . S
Cd364 O375 2.439 . S
O365 Cd364 2.240 . S
O365 C370 1.279 . S
O366 Cd363 2.297 . S
O366 C368 1.247 . S
O367 Cd363 2.439 . S
O367 C368 1.208 . S
C368 O366 1.247 . S
C368 O367 1.208 . S
C369 O374 1.247 . S
C369 O375 1.208 . S
C370 O362 1.315 . S
C370 O365 1.279 . S
C371 O372 1.315 . S
C371 O373 1.279 . S
O372 Cd364 2.223 . S
O372 C371 1.315 . S
O373 Cd363 2.240 . S
O373 C371 1.279 . S
O374 Cd364 2.297 . S
O374 C369 1.247 . S
O375 Cd364 2.439 . S
O375 C369 1.208 . S
H376 C388 0.930 . S
H377 C390 0.930 . S
H378 C391 0.930 . S
H379 C395 0.959 . S
H380 C395 0.959 . S
H381 C395 0.961 . S
H382 C396 0.960 . S
H383 C396 0.961 . S
H384 C396 0.959 . S
H385 C399 0.929 . S
H386 C400 0.931 1_554 S
H387 C402 0.930 . S
C388 H376 0.930 . S
C388 C389 1.399 . S
C388 C393 1.399 . S
C389 C388 1.399 . S
C389 C390 1.376 . S
C390 H377 0.930 . S
C390 C389 1.376 . S
C390 C391 1.388 . S
C391 H378 0.930 . S
C391 C390 1.388 . S
C391 C392 1.390 . S
C392 C391 1.390 . S
C392 C393 1.394 . S
C392 C398 1.465 . S
C393 C388 1.399 . S
C393 C392 1.394 . S
C393 C394 1.516 . S
C394 C393 1.516 . S
C394 C395 1.502 . S
C394 C396 1.561 . S
C394 C397 1.526 . S
C395 H379 0.959 . S
C395 H380 0.959 . S
C395 H381 0.961 . S
C395 C394 1.502 . S
C396 H382 0.960 . S
C396 H383 0.961 . S
C396 H384 0.959 . S
C396 C394 1.561 . S
C397 C394 1.526 . S
C397 C398 1.396 . S
C397 C402 1.390 . S
C398 C392 1.465 . S
C398 C397 1.396 . S
C398 C399 1.399 . S
C399 H385 0.929 . S
C399 C398 1.399 . S
C399 C400 1.385 . S
C400 H386 0.931 1_556 S
C400 C399 1.385 . S
C400 C401 1.389 . S
C401 C400 1.389 . S
C401 C402 1.387 . S
C402 H387 0.930 . S
C402 C397 1.390 . S
C402 C401 1.387 . S
H403 C415 0.930 . S
H404 C417 0.930 . S
H405 C418 0.930 . S
H406 C422 0.959 . S
H407 C422 0.959 1_455 S
H408 C422 0.961 . S
H409 C423 0.960 . S
H410 C423 0.961 . S
H411 C423 0.959 . S
H412 C426 0.929 . S
H413 C427 0.931 . S
H414 C429 0.930 . S
C415 H403 0.930 . S
C415 C416 1.399 . S
C415 C420 1.399 . S
C416 C415 1.399 . S
C416 C417 1.376 . S
C417 H404 0.930 . S
C417 C416 1.376 . S
C417 C418 1.388 . S
C418 H405 0.930 . S
C418 C417 1.388 . S
C418 C419 1.376 1_655 S
C419 C418 1.376 1_455 S
C419 C420 1.374 1_455 S
C419 C425 1.498 . S
C420 C415 1.399 . S
C420 C419 1.374 1_655 S
C420 C421 1.516 1_655 S
C421 C420 1.516 1_455 S
C421 C422 1.502 1_455 S
C421 C423 1.561 . S
C421 C424 1.526 . S
C422 H406 0.959 . S
C422 H407 0.959 1_655 S
C422 H408 0.961 . S
C422 C421 1.502 1_655 S
C423 H409 0.960 . S
C423 H410 0.961 . S
C423 H411 0.959 . S
C423 C421 1.561 . S
C424 C421 1.526 . S
C424 C425 1.396 . S
C424 C429 1.390 . S
C425 C419 1.498 . S
C425 C424 1.396 . S
C425 C426 1.399 . S
C426 H412 0.929 . S
C426 C425 1.399 . S
C426 C427 1.385 . S
C427 H413 0.931 . S
C427 C426 1.385 . S
C427 C428 1.389 . S
C428 C427 1.389 . S
C428 C429 1.387 . S
C429 H414 0.930 . S
C429 C424 1.390 . S
C429 C428 1.387 . S
H430 C442 0.930 . S
H431 C444 0.930 . S
H432 C445 0.930 . S
H433 C449 0.959 . S
H434 C449 0.959 . S
H435 C449 0.961 . S
H436 C450 0.960 . S
H437 C450 0.961 . S
H438 C450 0.959 . S
H439 C453 0.929 . S
H440 C454 0.931 . S
H441 C456 0.930 . S
C442 H430 0.930 . S
C442 C443 1.399 . S
C442 C447 1.399 . S
C443 C442 1.399 . S
C443 C444 1.376 . S
C444 H431 0.930 . S
C444 C443 1.376 . S
C444 C445 1.388 . S
C445 H432 0.930 . S
C445 C444 1.388 . S
C445 C446 1.390 . S
C446 C445 1.390 . S
C446 C447 1.394 . S
C446 C452 1.465 . S
C447 C442 1.399 . S
C447 C446 1.394 . S
C447 C448 1.516 . S
C448 C447 1.516 . S
C448 C449 1.502 . S
C448 C450 1.561 . S
C448 C451 1.526 . S
C449 H433 0.959 . S
C449 H434 0.959 . S
C449 H435 0.961 . S
C449 C448 1.502 . S
C450 H436 0.960 . S
C450 H437 0.961 . S
C450 H438 0.959 . S
C450 C448 1.561 . S
C451 C448 1.526 . S
C451 C452 1.396 . S
C451 C456 1.390 . S
C452 C446 1.465 . S
C452 C451 1.396 . S
C452 C453 1.399 . S
C453 H439 0.929 . S
C453 C452 1.399 . S
C453 C454 1.385 . S
C454 H440 0.931 . S
C454 C453 1.385 . S
C454 C455 1.389 . S
C455 C454 1.389 . S
C455 C456 1.387 . S
C456 H441 0.930 . S
C456 C451 1.390 . S
C456 C455 1.387 . S
H457 C469 0.930 . S
H458 C471 0.930 . S
H459 C472 0.930 . S
H460 C476 0.959 . S
H461 C476 0.959 1_545 S
H462 C476 0.961 . S
H463 C477 0.961 1_455 S
H464 C477 0.961 . S
H465 C477 0.959 . S
H466 C480 0.927 1_565 S
H467 C481 0.931 . S
H468 C483 0.930 . S
C469 H457 0.930 . S
C469 C470 1.399 . S
C469 C474 1.399 1_455 S
C470 C469 1.399 . S
C470 C471 1.376 . S
C471 H458 0.930 . S
C471 C470 1.376 . S
C471 C472 1.388 . S
C472 H459 0.930 . S
C472 C471 1.388 . S
C472 C473 1.390 1_455 S
C473 C472 1.390 1_655 S
C473 C474 1.394 . S
C473 C479 1.465 1_565 S
C474 C469 1.399 1_655 S
C474 C473 1.394 . S
C474 C475 1.516 1_565 S
C475 C474 1.516 1_545 S
C475 C476 1.502 1_545 S
C475 C477 1.561 . S
C475 C478 1.526 . S
C476 H460 0.959 . S
C476 H461 0.959 1_565 S
C476 H462 0.961 . S
C476 C475 1.502 1_565 S
C477 H463 0.961 1_655 S
C477 H464 0.961 . S
C477 H465 0.959 . S
C477 C475 1.561 . S
C478 C475 1.526 . S
C478 C479 1.396 . S
C478 C483 1.390 . S
C479 C473 1.465 1_545 S
C479 C478 1.396 . S
C479 C480 1.399 . S
C480 H466 0.927 1_545 S
C480 C479 1.399 . S
C480 C481 1.385 . S
C481 H467 0.931 . S
C481 C480 1.385 . S
C481 C482 1.389 . S
C482 C481 1.389 . S
C482 C483 1.387 . S
C483 H468 0.930 . S
C483 C478 1.390 . S
C483 C482 1.387 . S
H484 C496 0.930 . S
H485 C498 0.930 . S
H486 C499 0.930 . S
H487 C503 0.959 . S
H488 C503 0.959 . S
H489 C503 0.961 . S
H490 C504 0.960 . S
H491 C504 0.961 . S
H492 C504 0.959 . S
H493 C507 0.929 . S
H494 C508 0.931 . S
H495 C510 0.930 . S
C496 H484 0.930 . S
C496 C497 1.399 . S
C496 C501 1.399 . S
C497 C496 1.399 . S
C497 C498 1.376 . S
C498 H485 0.930 . S
C498 C497 1.376 . S
C498 C499 1.388 . S
C499 H486 0.930 . S
C499 C498 1.388 . S
C499 C500 1.390 . S
C500 C499 1.390 . S
C500 C501 1.394 . S
C500 C506 1.465 . S
C501 C496 1.399 . S
C501 C500 1.394 . S
C501 C502 1.516 . S
C502 C501 1.516 . S
C502 C503 1.502 . S
C502 C504 1.561 . S
C502 C505 1.526 . S
C503 H487 0.959 . S
C503 H488 0.959 . S
C503 H489 0.961 . S
C503 C502 1.502 . S
C504 H490 0.960 . S
C504 H491 0.961 . S
C504 H492 0.959 . S
C504 C502 1.561 . S
C505 C502 1.526 . S
C505 C506 1.396 . S
C505 C510 1.390 . S
C506 C500 1.465 . S
C506 C505 1.396 . S
C506 C507 1.399 . S
C507 H493 0.929 . S
C507 C506 1.399 . S
C507 C508 1.385 . S
C508 H494 0.931 . S
C508 C507 1.385 . S
C508 C509 1.389 . S
C509 C508 1.389 . S
C509 C510 1.387 . S
C510 H495 0.930 . S
C510 C505 1.390 . S
C510 C509 1.387 . S
H511 C523 0.930 . S
H512 C525 0.930 . S
H513 C526 0.930 . S
H514 C530 0.959 . S
H515 C530 0.959 . S
H516 C530 0.961 . S
H517 C531 0.960 . S
H518 C531 0.961 . S
H519 C531 0.959 . S
H520 C534 0.929 . S
H521 C535 0.931 . S
H522 C537 0.930 . S
C523 H511 0.930 . S
C523 C524 1.399 . S
C523 C528 1.399 . S
C524 C523 1.399 . S
C524 C525 1.376 . S
C525 H512 0.930 . S
C525 C524 1.376 . S
C525 C526 1.388 . S
C526 H513 0.930 . S
C526 C525 1.388 . S
C526 C527 1.390 . S
C527 C526 1.390 . S
C527 C528 1.394 . S
C527 C533 1.465 . S
C528 C523 1.399 . S
C528 C527 1.394 . S
C528 C529 1.516 . S
C529 C528 1.516 . S
C529 C530 1.502 . S
C529 C531 1.561 . S
C529 C532 1.526 . S
C530 H514 0.959 . S
C530 H515 0.959 . S
C530 H516 0.961 . S
C530 C529 1.502 . S
C531 H517 0.960 . S
C531 H518 0.961 . S
C531 H519 0.959 . S
C531 C529 1.561 . S
C532 C529 1.526 . S
C532 C533 1.396 . S
C532 C537 1.390 . S
C533 C527 1.465 . S
C533 C532 1.396 . S
C533 C534 1.399 . S
C534 H520 0.929 . S
C534 C533 1.399 . S
C534 C535 1.385 . S
C535 H521 0.931 . S
C535 C534 1.385 . S
C535 C536 1.389 . S
C536 C535 1.389 . S
C536 C537 1.387 . S
C537 H522 0.930 . S
C537 C532 1.390 . S
C537 C536 1.387 . S
H538 C550 0.930 . S
H539 C552 0.930 . S
H540 C553 0.930 . S
H541 C557 0.959 . S
H542 C557 0.959 . S
H543 C557 0.961 . S
H544 C558 0.960 . S
H545 C558 0.961 . S
H546 C558 0.959 . S
H547 C561 0.929 . S
H548 C562 0.931 . S
H549 C564 0.930 . S
C550 H538 0.930 . S
C550 C551 1.399 . S
C550 C555 1.399 . S
C551 C550 1.399 . S
C551 C552 1.376 . S
C552 H539 0.930 . S
C552 C551 1.376 . S
C552 C553 1.388 . S
C553 H540 0.930 . S
C553 C552 1.388 . S
C553 C554 1.390 . S
C554 C553 1.390 . S
C554 C555 1.394 . S
C554 C560 1.465 . S
C555 C550 1.399 . S
C555 C554 1.394 . S
C555 C556 1.516 . S
C556 C555 1.516 . S
C556 C557 1.502 . S
C556 C558 1.561 . S
C556 C559 1.526 . S
C557 H541 0.959 . S
C557 H542 0.959 . S
C557 H543 0.961 . S
C557 C556 1.502 . S
C558 H544 0.960 . S
C558 H545 0.961 . S
C558 H546 0.959 . S
C558 C556 1.561 . S
C559 C556 1.526 . S
C559 C560 1.396 . S
C559 C564 1.390 . S
C560 C554 1.465 . S
C560 C559 1.396 . S
C560 C561 1.399 . S
C561 H547 0.929 . S
C561 C560 1.399 . S
C561 C562 1.385 . S
C562 H548 0.931 . S
C562 C561 1.385 . S
C562 C563 1.389 . S
C563 C562 1.389 . S
C563 C564 1.387 . S
C564 H549 0.930 . S
C564 C559 1.390 . S
C564 C563 1.387 . S
H565 C577 0.930 . S
H566 C579 0.930 . S
H567 C580 0.930 . S
H568 C584 0.959 . S
H569 C584 0.959 . S
H570 C584 0.961 . S
H571 C585 0.960 . S
H572 C585 0.961 . S
H573 C585 0.959 . S
H574 C588 0.929 1_545 S
H575 C589 0.931 1_545 S
H576 C591 0.930 . S
C577 H565 0.930 . S
C577 C578 1.399 . S
C577 C582 1.399 . S
C578 C577 1.399 . S
C578 C579 1.376 . S
C579 H566 0.930 . S
C579 C578 1.376 . S
C579 C580 1.388 . S
C580 H567 0.930 . S
C580 C579 1.388 . S
C580 C581 1.390 . S
C581 C580 1.390 . S
C581 C582 1.394 . S
C581 C587 1.465 . S
C582 C577 1.399 . S
C582 C581 1.394 . S
C582 C583 1.516 . S
C583 C582 1.516 . S
C583 C584 1.502 . S
C583 C585 1.561 . S
C583 C586 1.526 . S
C584 H568 0.959 . S
C584 H569 0.959 . S
C584 H570 0.961 . S
C584 C583 1.502 . S
C585 H571 0.960 . S
C585 H572 0.961 . S
C585 H573 0.959 . S
C585 C583 1.561 . S
C586 C583 1.526 . S
C586 C587 1.396 . S
C586 C591 1.390 . S
C587 C581 1.465 . S
C587 C586 1.396 . S
C587 C588 1.399 . S
C588 H574 0.929 1_565 S
C588 C587 1.399 . S
C588 C589 1.385 . S
C589 H575 0.931 1_565 S
C589 C588 1.385 . S
C589 C590 1.389 . S
C590 C589 1.389 . S
C590 C591 1.387 . S
C591 H576 0.930 . S
C591 C586 1.390 . S
C591 C590 1.387 . S
H592 C604 0.930 . S
H593 C606 0.930 . S
H594 C607 0.930 . S
H595 C611 0.959 . S
H596 C611 0.959 . S
H597 C611 0.961 . S
H598 C612 0.960 . S
H599 C612 0.961 . S
H600 C612 0.959 . S
H601 C615 0.929 . S
H602 C616 0.931 . S
H603 C618 0.930 . S
C604 H592 0.930 . S
C604 C605 1.399 . S
C604 C609 1.399 . S
C605 C604 1.399 . S
C605 C606 1.376 . S
C606 H593 0.930 . S
C606 C605 1.376 . S
C606 C607 1.388 . S
C607 H594 0.930 . S
C607 C606 1.388 . S
C607 C608 1.390 . S
C608 C607 1.390 . S
C608 C609 1.394 . S
C608 C614 1.465 . S
C609 C604 1.399 . S
C609 C608 1.394 . S
C609 C610 1.516 . S
C610 C609 1.516 . S
C610 C611 1.502 . S
C610 C612 1.561 . S
C610 C613 1.526 . S
C611 H595 0.959 . S
C611 H596 0.959 . S
C611 H597 0.961 . S
C611 C610 1.502 . S
C612 H598 0.960 . S
C612 H599 0.961 . S
C612 H600 0.959 . S
C612 C610 1.561 . S
C613 C610 1.526 . S
C613 C614 1.396 . S
C613 C618 1.390 . S
C614 C608 1.465 . S
C614 C613 1.396 . S
C614 C615 1.399 . S
C615 H601 0.929 . S
C615 C614 1.399 . S
C615 C616 1.385 . S
C616 H602 0.931 . S
C616 C615 1.385 . S
C616 C617 1.389 . S
C617 C616 1.389 . S
C617 C618 1.387 . S
C618 H603 0.930 . S
C618 C613 1.390 . S
C618 C617 1.387 . S
H619 C631 0.930 . S
H620 C633 0.930 . S
H621 C634 0.930 . S
H622 C638 0.959 . S
H623 C638 0.959 . S
H624 C638 0.961 . S
H625 C639 0.960 . S
H626 C639 0.961 . S
H627 C639 0.959 . S
H628 C642 0.929 . S
H629 C643 0.931 . S
H630 C645 0.930 . S
C631 H619 0.930 . S
C631 C632 1.399 . S
C631 C636 1.399 . S
C632 C631 1.399 . S
C632 C633 1.376 . S
C633 H620 0.930 . S
C633 C632 1.376 . S
C633 C634 1.388 . S
C634 H621 0.930 . S
C634 C633 1.388 . S
C634 C635 1.390 . S
C635 C634 1.390 . S
C635 C636 1.394 . S
C635 C641 1.465 . S
C636 C631 1.399 . S
C636 C635 1.394 . S
C636 C637 1.516 . S
C637 C636 1.516 . S
C637 C638 1.502 . S
C637 C639 1.561 . S
C637 C640 1.526 . S
C638 H622 0.959 . S
C638 H623 0.959 . S
C638 H624 0.961 . S
C638 C637 1.502 . S
C639 H625 0.960 . S
C639 H626 0.961 . S
C639 H627 0.959 . S
C639 C637 1.561 . S
C640 C637 1.526 . S
C640 C641 1.396 . S
C640 C645 1.390 . S
C641 C635 1.465 . S
C641 C640 1.396 . S
C641 C642 1.399 . S
C642 H628 0.929 . S
C642 C641 1.399 . S
C642 C643 1.385 . S
C643 H629 0.931 . S
C643 C642 1.385 . S
C643 C644 1.389 . S
C644 C643 1.389 . S
C644 C645 1.387 . S
C645 H630 0.930 . S
C645 C640 1.390 . S
C645 C644 1.387 . S
H646 C658 0.930 . S
H647 C660 0.930 . S
H648 C661 0.930 . S
H649 C665 0.959 . S
H650 C665 0.959 . S
H651 C665 0.961 . S
H652 C666 0.960 . S
H653 C666 0.961 . S
H654 C666 0.959 . S
H655 C669 0.929 . S
H656 C670 0.931 . S
H657 C672 0.930 . S
C658 H646 0.930 . S
C658 C659 1.399 . S
C658 C663 1.399 . S
C659 C658 1.399 . S
C659 C660 1.376 . S
C660 H647 0.930 . S
C660 C659 1.376 . S
C660 C661 1.388 . S
C661 H648 0.930 . S
C661 C660 1.388 . S
C661 C662 1.390 . S
C662 C661 1.390 . S
C662 C663 1.394 . S
C662 C668 1.465 . S
C663 C658 1.399 . S
C663 C662 1.394 . S
C663 C664 1.516 . S
C664 C663 1.516 . S
C664 C665 1.502 . S
C664 C666 1.561 . S
C664 C667 1.526 . S
C665 H649 0.959 . S
C665 H650 0.959 . S
C665 H651 0.961 . S
C665 C664 1.502 . S
C666 H652 0.960 . S
C666 H653 0.961 . S
C666 H654 0.959 . S
C666 C664 1.561 . S
C667 C664 1.526 . S
C667 C668 1.396 . S
C667 C672 1.390 . S
C668 C662 1.465 . S
C668 C667 1.396 . S
C668 C669 1.399 . S
C669 H655 0.929 . S
C669 C668 1.399 . S
C669 C670 1.385 . S
C670 H656 0.931 . S
C670 C669 1.385 . S
C670 C671 1.389 . S
C671 C670 1.389 . S
C671 C672 1.387 . S
C672 H657 0.930 . S
C672 C667 1.390 . S
C672 C671 1.387 . S
H673 C685 0.930 . S
H674 C687 0.930 . S
H675 C688 0.930 . S
H676 C692 0.959 . S
H677 C692 0.959 . S
H678 C692 0.961 . S
H679 C693 0.960 . S
H680 C693 0.961 . S
H681 C693 0.959 . S
H682 C696 0.929 . S
H683 C697 0.931 . S
H684 C699 0.930 . S
C685 H673 0.930 . S
C685 C686 1.399 . S
C685 C690 1.399 . S
C686 C685 1.399 . S
C686 C687 1.376 . S
C687 H674 0.930 . S
C687 C686 1.376 . S
C687 C688 1.388 . S
C688 H675 0.930 . S
C688 C687 1.388 . S
C688 C689 1.390 . S
C689 C688 1.390 . S
C689 C690 1.394 . S
C689 C695 1.465 . S
C690 C685 1.399 . S
C690 C689 1.394 . S
C690 C691 1.516 . S
C691 C690 1.516 . S
C691 C692 1.502 . S
C691 C693 1.561 . S
C691 C694 1.526 . S
C692 H676 0.959 . S
C692 H677 0.959 . S
C692 H678 0.961 . S
C692 C691 1.502 . S
C693 H679 0.960 . S
C693 H680 0.961 . S
C693 H681 0.959 . S
C693 C691 1.561 . S
C694 C691 1.526 . S
C694 C695 1.396 . S
C694 C699 1.390 . S
C695 C689 1.465 . S
C695 C694 1.396 . S
C695 C696 1.399 . S
C696 H682 0.929 . S
C696 C695 1.399 . S
C696 C697 1.385 . S
C697 H683 0.931 . S
C697 C696 1.385 . S
C697 C698 1.389 . S
C698 C697 1.389 . S
C698 C699 1.387 . S
C699 H684 0.930 . S
C699 C694 1.390 . S
C699 C698 1.387 . S
H700 C712 0.930 . S
H701 C714 0.930 . S
H702 C715 0.930 . S
H703 C719 0.959 . S
H704 C719 0.959 . S
H705 C719 0.961 . S
H706 C720 0.960 . S
H707 C720 0.961 . S
H708 C720 0.959 . S
H709 C723 0.929 . S
H710 C724 0.931 . S
H711 C726 0.930 . S
C712 H700 0.930 . S
C712 C713 1.399 . S
C712 C717 1.399 . S
C713 C712 1.399 . S
C713 C714 1.376 . S
C714 H701 0.930 . S
C714 C713 1.376 . S
C714 C715 1.388 . S
C715 H702 0.930 . S
C715 C714 1.388 . S
C715 C716 1.390 . S
C716 C715 1.390 . S
C716 C717 1.394 . S
C716 C722 1.465 . S
C717 C712 1.399 . S
C717 C716 1.394 . S
C717 C718 1.516 . S
C718 C717 1.516 . S
C718 C719 1.502 . S
C718 C720 1.561 . S
C718 C721 1.526 . S
C719 H703 0.959 . S
C719 H704 0.959 . S
C719 H705 0.961 . S
C719 C718 1.502 . S
C720 H706 0.960 . S
C720 H707 0.961 . S
C720 H708 0.959 . S
C720 C718 1.561 . S
C721 C718 1.526 . S
C721 C722 1.396 . S
C721 C726 1.390 . S
C722 C716 1.465 . S
C722 C721 1.396 . S
C722 C723 1.399 . S
C723 H709 0.929 . S
C723 C722 1.399 . S
C723 C724 1.385 . S
C724 H710 0.931 . S
C724 C723 1.385 . S
C724 C725 1.389 . S
C725 C724 1.389 . S
C725 C726 1.387 . S
C726 H711 0.930 . S
C726 C721 1.390 . S
C726 C725 1.387 . S
H727 C739 0.930 . S
H728 C741 0.930 . S
H729 C742 0.930 . S
H730 C746 0.959 . S
H731 C746 0.959 . S
H732 C746 0.961 . S
H733 C747 0.960 . S
H734 C747 0.961 . S
H735 C747 0.959 . S
H736 C750 0.929 . S
H737 C751 0.931 . S
H738 C753 0.930 . S
C739 H727 0.930 . S
C739 C740 1.399 . S
C739 C744 1.399 . S
C740 C739 1.399 . S
C740 C741 1.376 . S
C741 H728 0.930 . S
C741 C740 1.376 . S
C741 C742 1.388 . S
C742 H729 0.930 . S
C742 C741 1.388 . S
C742 C743 1.390 . S
C743 C742 1.390 . S
C743 C744 1.394 . S
C743 C749 1.465 . S
C744 C739 1.399 . S
C744 C743 1.394 . S
C744 C745 1.516 . S
C745 C744 1.516 . S
C745 C746 1.502 . S
C745 C747 1.561 . S
C745 C748 1.526 . S
C746 H730 0.959 . S
C746 H731 0.959 . S
C746 H732 0.961 . S
C746 C745 1.502 . S
C747 H733 0.960 . S
C747 H734 0.961 . S
C747 H735 0.959 . S
C747 C745 1.561 . S
C748 C745 1.526 . S
C748 C749 1.396 . S
C748 C753 1.390 . S
C749 C743 1.465 . S
C749 C748 1.396 . S
C749 C750 1.399 . S
C750 H736 0.929 . S
C750 C749 1.399 . S
C750 C751 1.385 . S
C751 H737 0.931 . S
C751 C750 1.385 . S
C751 C752 1.389 . S
C752 C751 1.389 . S
C752 C753 1.387 . S
C753 H738 0.930 . S
C753 C748 1.390 . S
C753 C752 1.387 . S
H754 C766 0.930 . S
H755 C768 0.930 . S
H756 C769 0.930 . S
H757 C773 0.959 . S
H758 C773 0.959 . S
H759 C773 0.961 . S
H760 C774 0.960 . S
H761 C774 0.961 . S
H762 C774 0.959 . S
H763 C777 0.929 . S
H764 C778 0.931 . S
H765 C780 0.930 . S
C766 H754 0.930 . S
C766 C767 1.399 . S
C766 C771 1.399 . S
C767 C766 1.399 . S
C767 C768 1.376 . S
C768 H755 0.930 . S
C768 C767 1.376 . S
C768 C769 1.388 . S
C769 H756 0.930 . S
C769 C768 1.388 . S
C769 C770 1.390 . S
C770 C769 1.390 . S
C770 C771 1.394 . S
C770 C776 1.465 . S
C771 C766 1.399 . S
C771 C770 1.394 . S
C771 C772 1.516 . S
C772 C771 1.516 . S
C772 C773 1.502 . S
C772 C774 1.561 . S
C772 C775 1.526 . S
C773 H757 0.959 . S
C773 H758 0.959 . S
C773 H759 0.961 . S
C773 C772 1.502 . S
C774 H760 0.960 . S
C774 H761 0.961 . S
C774 H762 0.959 . S
C774 C772 1.561 . S
C775 C772 1.526 . S
C775 C776 1.396 . S
C775 C780 1.390 . S
C776 C770 1.465 . S
C776 C775 1.396 . S
C776 C777 1.399 . S
C777 H763 0.929 . S
C777 C776 1.399 . S
C777 C778 1.385 . S
C778 H764 0.931 . S
C778 C777 1.385 . S
C778 C779 1.389 . S
C779 C778 1.389 . S
C779 C780 1.387 . S
C780 H765 0.930 . S
C780 C775 1.390 . S
C780 C779 1.387 . S
H781 C793 0.930 . S
H782 C795 0.930 . S
H783 C796 0.930 . S
H784 C800 0.959 . S
H785 C800 0.959 . S
H786 C800 0.961 . S
H787 C801 0.960 . S
H788 C801 0.961 . S
H789 C801 0.959 . S
H790 C804 0.929 . S
H791 C805 0.931 1_455 S
H792 C807 0.930 . S
C793 H781 0.930 . S
C793 C794 1.399 . S
C793 C798 1.399 . S
C794 C793 1.399 . S
C794 C795 1.376 . S
C795 H782 0.930 . S
C795 C794 1.376 . S
C795 C796 1.388 . S
C796 H783 0.930 . S
C796 C795 1.388 . S
C796 C797 1.390 . S
C797 C796 1.390 . S
C797 C798 1.394 . S
C797 C803 1.465 . S
C798 C793 1.399 . S
C798 C797 1.394 . S
C798 C799 1.516 . S
C799 C798 1.516 . S
C799 C800 1.502 . S
C799 C801 1.561 . S
C799 C802 1.526 . S
C800 H784 0.959 . S
C800 H785 0.959 . S
C800 H786 0.961 . S
C800 C799 1.502 . S
C801 H787 0.960 . S
C801 H788 0.961 . S
C801 H789 0.959 . S
C801 C799 1.561 . S
C802 C799 1.526 . S
C802 C803 1.396 . S
C802 C807 1.390 . S
C803 C797 1.465 . S
C803 C802 1.396 . S
C803 C804 1.399 . S
C804 H790 0.929 . S
C804 C803 1.399 . S
C804 C805 1.385 . S
C805 H791 0.931 1_655 S
C805 C804 1.385 . S
C805 C806 1.389 . S
C806 C805 1.389 . S
C806 C807 1.387 . S
C807 H792 0.930 . S
C807 C802 1.390 . S
C807 C806 1.387 . S
H808 C820 0.930 . S
H809 C822 0.930 . S
H810 C823 0.930 . S
H811 C827 0.959 . S
H812 C827 0.959 . S
H813 C827 0.961 . S
H814 C828 0.960 . S
H815 C828 0.961 . S
H816 C828 0.959 . S
H817 C831 0.929 . S
H818 C832 0.930 1_545 S
H819 C834 0.930 . S
C820 H808 0.930 . S
C820 C821 1.399 . S
C820 C825 1.399 . S
C821 C820 1.399 . S
C821 C822 1.376 . S
C822 H809 0.930 . S
C822 C821 1.376 . S
C822 C823 1.388 . S
C823 H810 0.930 . S
C823 C822 1.388 . S
C823 C824 1.390 . S
C824 C823 1.390 . S
C824 C825 1.394 . S
C824 C830 1.465 . S
C825 C820 1.399 . S
C825 C824 1.394 . S
C825 C826 1.516 . S
C826 C825 1.516 . S
C826 C827 1.502 . S
C826 C828 1.561 . S
C826 C829 1.526 . S
C827 H811 0.959 . S
C827 H812 0.959 . S
C827 H813 0.961 . S
C827 C826 1.502 . S
C828 H814 0.960 . S
C828 H815 0.961 . S
C828 H816 0.959 . S
C828 C826 1.561 . S
C829 C826 1.526 . S
C829 C830 1.396 . S
C829 C834 1.390 . S
C830 C824 1.465 . S
C830 C829 1.396 . S
C830 C831 1.399 . S
C831 H817 0.929 . S
C831 C830 1.399 . S
C831 C832 1.385 . S
C832 H818 0.930 1_565 S
C832 C831 1.385 . S
C832 C833 1.389 . S
C833 C832 1.389 . S
C833 C834 1.387 . S
C834 H819 0.930 . S
C834 C829 1.390 . S
C834 C833 1.387 . S
H835 C847 0.930 . S
H836 C849 0.930 . S
H837 C850 0.930 . S
H838 C854 0.959 . S
H839 C854 0.959 . S
H840 C854 0.961 . S
H841 C855 0.960 . S
H842 C855 0.961 . S
H843 C855 0.959 . S
H844 C858 0.929 . S
H845 C859 0.931 . S
H846 C861 0.930 . S
C847 H835 0.930 . S
C847 C848 1.399 . S
C847 C852 1.399 . S
C848 C847 1.399 . S
C848 C849 1.376 . S
C849 H836 0.930 . S
C849 C848 1.376 . S
C849 C850 1.388 . S
C850 H837 0.930 . S
C850 C849 1.388 . S
C850 C851 1.390 . S
C851 C850 1.390 . S
C851 C852 1.394 . S
C851 C857 1.465 . S
C852 C847 1.399 . S
C852 C851 1.394 . S
C852 C853 1.516 . S
C853 C852 1.516 . S
C853 C854 1.502 . S
C853 C855 1.561 . S
C853 C856 1.526 . S
C854 H838 0.959 . S
C854 H839 0.959 . S
C854 H840 0.961 . S
C854 C853 1.502 . S
C855 H841 0.960 . S
C855 H842 0.961 . S
C855 H843 0.959 . S
C855 C853 1.561 . S
C856 C853 1.526 . S
C856 C857 1.396 . S
C856 C861 1.390 . S
C857 C851 1.465 . S
C857 C856 1.396 . S
C857 C858 1.399 . S
C858 H844 0.929 . S
C858 C857 1.399 . S
C858 C859 1.385 . S
C859 H845 0.931 . S
C859 C858 1.385 . S
C859 C860 1.389 . S
C860 C859 1.389 . S
C860 C861 1.387 . S
C861 H846 0.930 . S
C861 C856 1.390 . S
C861 C860 1.387 . S
H862 C874 0.930 . S
H863 C876 0.930 . S
H864 C877 0.930 . S
H865 C881 0.959 . S
H866 C881 0.959 . S
H867 C881 0.961 . S
H868 C882 0.960 . S
H869 C882 0.961 . S
H870 C882 0.959 . S
H871 C885 0.929 . S
H872 C886 0.931 . S
H873 C888 0.930 . S
C874 H862 0.930 . S
C874 C875 1.399 . S
C874 C879 1.399 . S
C875 C874 1.399 . S
C875 C876 1.376 . S
C876 H863 0.930 . S
C876 C875 1.376 . S
C876 C877 1.388 . S
C877 H864 0.930 . S
C877 C876 1.388 . S
C877 C878 1.390 . S
C878 C877 1.390 . S
C878 C879 1.394 . S
C878 C884 1.465 . S
C879 C874 1.399 . S
C879 C878 1.394 . S
C879 C880 1.516 1_556 S
C880 C879 1.516 1_554 S
C880 C881 1.502 . S
C880 C882 1.561 . S
C880 C883 1.526 . S
C881 H865 0.959 . S
C881 H866 0.959 . S
C881 H867 0.961 . S
C881 C880 1.502 . S
C882 H868 0.960 . S
C882 H869 0.961 . S
C882 H870 0.959 . S
C882 C880 1.561 . S
C883 C880 1.526 . S
C883 C884 1.396 1_554 S
C883 C888 1.390 1_545 S
C884 C878 1.465 . S
C884 C883 1.396 1_556 S
C884 C885 1.399 1_545 S
C885 H871 0.929 . S
C885 C884 1.399 1_565 S
C885 C886 1.385 . S
C886 H872 0.931 . S
C886 C885 1.385 . S
C886 C887 1.389 1_556 S
C887 C886 1.389 1_554 S
C887 C888 1.387 . S
C888 H873 0.930 . S
C888 C883 1.390 1_565 S
C888 C887 1.387 . S
H889 C901 0.930 . S
H890 C903 0.930 . S
H891 C904 0.930 . S
H892 C908 0.959 . S
H893 C908 0.959 . S
H894 C908 0.961 . S
H895 C909 0.960 . S
H896 C909 0.961 . S
H897 C909 0.959 . S
H898 C912 0.929 . S
H899 C913 0.931 . S
H900 C915 0.930 . S
C901 H889 0.930 . S
C901 C902 1.399 . S
C901 C906 1.399 . S
C902 C901 1.399 . S
C902 C903 1.376 . S
C903 H890 0.930 . S
C903 C902 1.376 . S
C903 C904 1.388 . S
C904 H891 0.930 . S
C904 C903 1.388 . S
C904 C905 1.390 . S
C905 C904 1.390 . S
C905 C906 1.394 . S
C905 C911 1.465 . S
C906 C901 1.399 . S
C906 C905 1.394 . S
C906 C907 1.516 . S
C907 C906 1.516 . S
C907 C908 1.502 . S
C907 C909 1.561 . S
C907 C910 1.526 . S
C908 H892 0.959 . S
C908 H893 0.959 . S
C908 H894 0.961 . S
C908 C907 1.502 . S
C909 H895 0.960 . S
C909 H896 0.961 . S
C909 H897 0.959 . S
C909 C907 1.561 . S
C910 C907 1.526 . S
C910 C911 1.396 . S
C910 C915 1.390 . S
C911 C905 1.465 . S
C911 C910 1.396 . S
C911 C912 1.399 . S
C912 H898 0.929 . S
C912 C911 1.399 . S
C912 C913 1.385 . S
C913 H899 0.931 . S
C913 C912 1.385 . S
C913 C914 1.389 . S
C914 C913 1.389 . S
C914 C915 1.387 . S
C915 H900 0.930 . S
C915 C910 1.390 . S
C915 C914 1.387 . S
H916 C928 0.930 . S
H917 C930 0.930 . S
H918 C931 0.930 . S
H919 C935 0.959 . S
H920 C935 0.959 . S
H921 C935 0.961 . S
H922 C936 0.960 . S
H923 C936 0.961 . S
H924 C936 0.959 . S
H925 C939 0.929 . S
H926 C940 0.931 . S
H927 C942 0.930 . S
C928 H916 0.930 . S
C928 C929 1.400 . S
C928 C933 1.398 1_565 S
C929 C928 1.400 . S
C929 C930 1.376 . S
C930 H917 0.930 . S
C930 C929 1.376 . S
C930 C931 1.388 1_565 S
C931 H918 0.930 . S
C931 C930 1.388 1_545 S
C931 C932 1.390 . S
C932 C931 1.390 . S
C932 C933 1.394 . S
C932 C938 1.465 . S
C933 C928 1.398 1_545 S
C933 C932 1.394 . S
C933 C934 1.516 . S
C934 C933 1.516 . S
C934 C935 1.502 . S
C934 C936 1.561 . S
C934 C937 1.526 . S
C935 H919 0.959 . S
C935 H920 0.959 . S
C935 H921 0.961 . S
C935 C934 1.502 . S
C936 H922 0.960 . S
C936 H923 0.961 . S
C936 H924 0.959 . S
C936 C934 1.561 . S
C937 C934 1.526 . S
C937 C938 1.396 . S
C937 C942 1.390 . S
C938 C932 1.465 . S
C938 C937 1.396 . S
C938 C939 1.399 . S
C939 H925 0.929 . S
C939 C938 1.399 . S
C939 C940 1.385 . S
C940 H926 0.931 . S
C940 C939 1.385 . S
C940 C941 1.389 . S
C941 C940 1.389 . S
C941 C942 1.387 . S
C942 H927 0.930 . S
C942 C937 1.390 . S
C942 C941 1.387 . S
H943 C955 0.930 . S
H944 C957 0.930 . S
H945 C958 0.930 . S
H946 C962 0.959 . S
H947 C962 0.959 . S
H948 C962 0.961 . S
H949 C963 0.960 . S
H950 C963 0.961 . S
H951 C963 0.959 . S
H952 C966 0.929 . S
H953 C967 0.931 . S
H954 C969 0.930 . S
C955 H943 0.930 . S
C955 C956 1.399 . S
C955 C960 1.399 . S
C956 C955 1.399 . S
C956 C957 1.376 . S
C957 H944 0.930 . S
C957 C956 1.376 . S
C957 C958 1.388 . S
C958 H945 0.930 . S
C958 C957 1.388 . S
C958 C959 1.390 . S
C959 C958 1.390 . S
C959 C960 1.394 . S
C959 C965 1.465 . S
C960 C955 1.399 . S
C960 C959 1.394 . S
C960 C961 1.516 . S
C961 C960 1.516 . S
C961 C962 1.502 . S
C961 C963 1.561 . S
C961 C964 1.526 . S
C962 H946 0.959 . S
C962 H947 0.959 . S
C962 H948 0.961 . S
C962 C961 1.502 . S
C963 H949 0.960 . S
C963 H950 0.961 . S
C963 H951 0.959 . S
C963 C961 1.561 . S
C964 C961 1.526 . S
C964 C965 1.396 . S
C964 C969 1.390 . S
C965 C959 1.465 . S
C965 C964 1.396 . S
C965 C966 1.399 . S
C966 H952 0.929 . S
C966 C965 1.399 . S
C966 C967 1.385 . S
C967 H953 0.931 . S
C967 C966 1.385 . S
C967 C968 1.389 . S
C968 C967 1.389 . S
C968 C969 1.387 . S
C969 H954 0.930 . S
C969 C964 1.390 . S
C969 C968 1.387 . S
H970 C982 0.930 . S
H971 C984 0.930 . S
H972 C985 0.930 . S
H973 C989 0.959 1_565 S
H974 C989 0.959 . S
H975 C989 0.961 1_565 S
H976 C990 0.960 . S
H977 C990 0.961 . S
H978 C990 0.959 . S
H979 C993 0.929 . S
H980 C994 0.931 . S
H981 C996 0.930 . S
C982 H970 0.930 . S
C982 C983 1.399 . S
C982 C987 1.399 . S
C983 C982 1.399 . S
C983 C984 1.376 . S
C984 H971 0.930 . S
C984 C983 1.376 . S
C984 C985 1.388 . S
C985 H972 0.930 . S
C985 C984 1.388 . S
C985 C986 1.390 1_565 S
C986 C985 1.390 1_545 S
C986 C987 1.394 1_545 S
C986 C992 1.465 . S
C987 C982 1.399 . S
C987 C986 1.394 1_565 S
C987 C988 1.516 1_565 S
C988 C987 1.516 1_545 S
C988 C989 1.502 . S
C988 C990 1.561 . S
C988 C991 1.526 . S
C989 H973 0.959 1_545 S
C989 H974 0.959 . S
C989 H975 0.961 1_545 S
C989 C988 1.502 . S
C990 H976 0.960 . S
C990 H977 0.961 . S
C990 H978 0.959 . S
C990 C988 1.561 . S
C991 C988 1.526 . S
C991 C992 1.396 . S
C991 C996 1.390 . S
C992 C986 1.465 . S
C992 C991 1.396 . S
C992 C993 1.399 . S
C993 H979 0.929 . S
C993 C992 1.399 . S
C993 C994 1.385 . S
C994 H980 0.931 . S
C994 C993 1.385 . S
C994 C995 1.389 . S
C995 C994 1.389 . S
C995 C996 1.387 . S
C996 H981 0.930 . S
C996 C991 1.390 . S
C996 C995 1.387 . S
H997 C1009 0.930 . S
H998 C1011 0.930 . S
H999 C1012 0.930 . S
H1000 C1016 0.959 . S
H1001 C1016 0.959 . S
H1002 C1016 0.961 . S
H1003 C1017 0.960 . S
H1004 C1017 0.961 . S
H1005 C1017 0.959 . S
H1006 C1020 0.929 . S
H1007 C1021 0.931 . S
H1008 C1023 0.930 . S
C1009 H997 0.930 . S
C1009 C1010 1.399 . S
C1009 C1014 1.399 . S
C1010 C1009 1.399 . S
C1010 C1011 1.376 . S
C1011 H998 0.930 . S
C1011 C1010 1.376 . S
C1011 C1012 1.388 . S
C1012 H999 0.930 . S
C1012 C1011 1.388 . S
C1012 C1013 1.390 . S
C1013 C1012 1.390 . S
C1013 C1014 1.394 . S
C1013 C1019 1.465 . S
C1014 C1009 1.399 . S
C1014 C1013 1.394 . S
C1014 C1015 1.516 . S
C1015 C1014 1.516 . S
C1015 C1016 1.502 . S
C1015 C1017 1.561 . S
C1015 C1018 1.526 . S
C1016 H1000 0.959 . S
C1016 H1001 0.959 . S
C1016 H1002 0.961 . S
C1016 C1015 1.502 . S
C1017 H1003 0.960 . S
C1017 H1004 0.961 . S
C1017 H1005 0.959 . S
C1017 C1015 1.561 . S
C1018 C1015 1.526 . S
C1018 C1019 1.396 . S
C1018 C1023 1.390 . S
C1019 C1013 1.465 . S
C1019 C1018 1.396 . S
C1019 C1020 1.399 . S
C1020 H1006 0.929 . S
C1020 C1019 1.399 . S
C1020 C1021 1.385 . S
C1021 H1007 0.931 . S
C1021 C1020 1.385 . S
C1021 C1022 1.389 . S
C1022 C1021 1.389 . S
C1022 C1023 1.387 . S
C1023 H1008 0.930 . S
C1023 C1018 1.390 . S
C1023 C1022 1.387 . S
H1024 C1036 0.930 . S
H1025 C1038 0.930 . S
H1026 C1039 0.930 . S
H1027 C1043 0.959 . S
H1028 C1043 0.959 . S
H1029 C1043 0.961 . S
H1030 C1044 0.960 . S
H1031 C1044 0.961 . S
H1032 C1044 0.959 . S
H1033 C1047 0.929 . S
H1034 C1048 0.931 . S
H1035 C1050 0.930 . S
C1036 H1024 0.930 . S
C1036 C1037 1.399 . S
C1036 C1041 1.399 . S
C1037 C1036 1.399 . S
C1037 C1038 1.376 . S
C1038 H1025 0.930 . S
C1038 C1037 1.376 . S
C1038 C1039 1.388 . S
C1039 H1026 0.930 . S
C1039 C1038 1.388 . S
C1039 C1040 1.390 . S
C1040 C1039 1.390 . S
C1040 C1041 1.394 . S
C1040 C1046 1.465 . S
C1041 C1036 1.399 . S
C1041 C1040 1.394 . S
C1041 C1042 1.516 . S
C1042 C1041 1.516 . S
C1042 C1043 1.502 . S
C1042 C1044 1.561 . S
C1042 C1045 1.526 . S
C1043 H1027 0.959 . S
C1043 H1028 0.959 . S
C1043 H1029 0.961 . S
C1043 C1042 1.502 . S
C1044 H1030 0.960 . S
C1044 H1031 0.961 . S
C1044 H1032 0.959 . S
C1044 C1042 1.561 . S
C1045 C1042 1.526 . S
C1045 C1046 1.396 . S
C1045 C1050 1.390 . S
C1046 C1040 1.465 . S
C1046 C1045 1.396 . S
C1046 C1047 1.399 . S
C1047 H1033 0.929 . S
C1047 C1046 1.399 . S
C1047 C1048 1.385 . S
C1048 H1034 0.931 . S
C1048 C1047 1.385 . S
C1048 C1049 1.389 . S
C1049 C1048 1.389 . S
C1049 C1050 1.387 . S
C1050 H1035 0.930 . S
C1050 C1045 1.390 . S
C1050 C1049 1.387 . S
H1051 C1063 0.930 . S
H1052 C1065 0.930 . S
H1053 C1066 0.930 . S
H1054 C1070 0.959 . S
H1055 C1070 0.959 . S
H1056 C1070 0.961 . S
H1057 C1071 0.960 . S
H1058 C1071 0.961 1_565 S
H1059 C1071 0.959 . S
H1060 C1074 0.929 . S
H1061 C1075 0.931 . S
H1062 C1077 0.930 . S
C1063 H1051 0.930 . S
C1063 C1064 1.399 . S
C1063 C1068 1.399 . S
C1064 C1063 1.399 . S
C1064 C1065 1.376 . S
C1065 H1052 0.930 . S
C1065 C1064 1.376 . S
C1065 C1066 1.388 . S
C1066 H1053 0.930 . S
C1066 C1065 1.388 . S
C1066 C1067 1.390 . S
C1067 C1066 1.390 . S
C1067 C1068 1.394 . S
C1067 C1073 1.465 . S
C1068 C1063 1.399 . S
C1068 C1067 1.394 . S
C1068 C1069 1.516 . S
C1069 C1068 1.516 . S
C1069 C1070 1.502 . S
C1069 C1071 1.561 . S
C1069 C1072 1.526 . S
C1070 H1054 0.959 . S
C1070 H1055 0.959 . S
C1070 H1056 0.961 . S
C1070 C1069 1.502 . S
C1071 H1057 0.960 . S
C1071 H1058 0.961 1_545 S
C1071 H1059 0.959 . S
C1071 C1069 1.561 . S
C1072 C1069 1.526 . S
C1072 C1073 1.396 . S
C1072 C1077 1.390 . S
C1073 C1067 1.465 . S
C1073 C1072 1.396 . S
C1073 C1074 1.399 . S
C1074 H1060 0.929 . S
C1074 C1073 1.399 . S
C1074 C1075 1.385 . S
C1075 H1061 0.931 . S
C1075 C1074 1.385 . S
C1075 C1076 1.389 . S
C1076 C1075 1.389 . S
C1076 C1077 1.387 . S
C1077 H1062 0.930 . S
C1077 C1072 1.390 . S
C1077 C1076 1.387 . S
H1078 C1090 0.930 . S
H1079 C1092 0.930 . S
H1080 C1093 0.930 . S
H1081 C1097 0.959 . S
H1082 C1097 0.959 . S
H1083 C1097 0.961 . S
H1084 C1098 0.960 . S
H1085 C1098 0.961 . S
H1086 C1098 0.959 . S
H1087 C1101 0.929 . S
H1088 C1102 0.931 . S
H1089 C1104 0.930 . S
C1090 H1078 0.930 . S
C1090 C1091 1.399 . S
C1090 C1095 1.399 . S
C1091 C1090 1.399 . S
C1091 C1092 1.376 . S
C1092 H1079 0.930 . S
C1092 C1091 1.376 . S
C1092 C1093 1.388 . S
C1093 H1080 0.930 . S
C1093 C1092 1.388 . S
C1093 C1094 1.390 . S
C1094 C1093 1.390 . S
C1094 C1095 1.394 . S
C1094 C1100 1.465 . S
C1095 C1090 1.399 . S
C1095 C1094 1.394 . S
C1095 C1096 1.516 . S
C1096 C1095 1.516 . S
C1096 C1097 1.502 . S
C1096 C1098 1.561 . S
C1096 C1099 1.526 . S
C1097 H1081 0.959 . S
C1097 H1082 0.959 . S
C1097 H1083 0.961 . S
C1097 C1096 1.502 . S
C1098 H1084 0.960 . S
C1098 H1085 0.961 . S
C1098 H1086 0.959 . S
C1098 C1096 1.561 . S
C1099 C1096 1.526 . S
C1099 C1100 1.396 . S
C1099 C1104 1.390 . S
C1100 C1094 1.465 . S
C1100 C1099 1.396 . S
C1100 C1101 1.399 . S
C1101 H1087 0.929 . S
C1101 C1100 1.399 . S
C1101 C1102 1.385 . S
C1102 H1088 0.931 . S
C1102 C1101 1.385 . S
C1102 C1103 1.389 . S
C1103 C1102 1.389 . S
C1103 C1104 1.387 . S
C1104 H1089 0.930 . S
C1104 C1099 1.390 . S
C1104 C1103 1.387 . S
H1105 C1117 0.930 . S
H1106 C1119 0.930 . S
H1107 C1120 0.930 . S
H1108 C1124 0.959 . S
H1109 C1124 0.959 . S
H1110 C1124 0.961 . S
H1111 C1125 0.960 . S
H1112 C1125 0.961 . S
H1113 C1125 0.959 . S
H1114 C1128 0.929 . S
H1115 C1129 0.931 . S
H1116 C1131 0.930 . S
C1117 H1105 0.930 . S
C1117 C1118 1.399 . S
C1117 C1122 1.399 . S
C1118 C1117 1.399 . S
C1118 C1119 1.376 . S
C1119 H1106 0.930 . S
C1119 C1118 1.376 . S
C1119 C1120 1.388 . S
C1120 H1107 0.930 . S
C1120 C1119 1.388 . S
C1120 C1121 1.390 . S
C1121 C1120 1.390 . S
C1121 C1122 1.394 . S
C1121 C1127 1.465 . S
C1122 C1117 1.399 . S
C1122 C1121 1.394 . S
C1122 C1123 1.516 . S
C1123 C1122 1.516 . S
C1123 C1124 1.502 . S
C1123 C1125 1.561 . S
C1123 C1126 1.526 . S
C1124 H1108 0.959 . S
C1124 H1109 0.959 . S
C1124 H1110 0.961 . S
C1124 C1123 1.502 . S
C1125 H1111 0.960 . S
C1125 H1112 0.961 . S
C1125 H1113 0.959 . S
C1125 C1123 1.561 . S
C1126 C1123 1.526 . S
C1126 C1127 1.396 . S
C1126 C1131 1.390 . S
C1127 C1121 1.465 . S
C1127 C1126 1.396 . S
C1127 C1128 1.399 . S
C1128 H1114 0.929 . S
C1128 C1127 1.399 . S
C1128 C1129 1.385 . S
C1129 H1115 0.931 . S
C1129 C1128 1.385 . S
C1129 C1130 1.389 . S
C1130 C1129 1.389 . S
C1130 C1131 1.387 . S
C1131 H1116 0.930 . S
C1131 C1126 1.390 . S
C1131 C1130 1.387 . S
H1132 C1144 0.930 . S
H1133 C1146 0.930 . S
H1134 C1147 0.930 . S
H1135 C1151 0.959 . S
H1136 C1151 0.959 . S
H1137 C1151 0.961 . S
H1138 C1152 0.960 . S
H1139 C1152 0.961 . S
H1140 C1152 0.959 . S
H1141 C1155 0.929 . S
H1142 C1156 0.931 . S
H1143 C1158 0.930 . S
C1144 H1132 0.930 . S
C1144 C1145 1.399 . S
C1144 C1149 1.399 . S
C1145 C1144 1.399 . S
C1145 C1146 1.376 . S
C1146 H1133 0.930 . S
C1146 C1145 1.376 . S
C1146 C1147 1.388 . S
C1147 H1134 0.930 . S
C1147 C1146 1.388 . S
C1147 C1148 1.390 . S
C1148 C1147 1.390 . S
C1148 C1149 1.394 . S
C1148 C1154 1.465 . S
C1149 C1144 1.399 . S
C1149 C1148 1.394 . S
C1149 C1150 1.516 . S
C1150 C1149 1.516 . S
C1150 C1151 1.502 . S
C1150 C1152 1.561 . S
C1150 C1153 1.526 . S
C1151 H1135 0.959 . S
C1151 H1136 0.959 . S
C1151 H1137 0.961 . S
C1151 C1150 1.502 . S
C1152 H1138 0.960 . S
C1152 H1139 0.961 . S
C1152 H1140 0.959 . S
C1152 C1150 1.561 . S
C1153 C1150 1.526 . S
C1153 C1154 1.396 . S
C1153 C1158 1.390 . S
C1154 C1148 1.465 . S
C1154 C1153 1.396 . S
C1154 C1155 1.399 . S
C1155 H1141 0.929 . S
C1155 C1154 1.399 . S
C1155 C1156 1.385 . S
C1156 H1142 0.931 . S
C1156 C1155 1.385 . S
C1156 C1157 1.389 . S
C1157 C1156 1.389 . S
C1157 C1158 1.387 . S
C1158 H1143 0.930 . S
C1158 C1153 1.390 . S
C1158 C1157 1.387 . S
H1159 C1171 0.930 . S
H1160 C1173 0.930 . S
H1161 C1174 0.930 . S
H1162 C1178 0.959 . S
H1163 C1178 0.959 . S
H1164 C1178 0.961 . S
H1165 C1179 0.960 1_455 S
H1166 C1179 0.961 . S
H1167 C1179 0.959 1_455 S
H1168 C1182 0.929 . S
H1169 C1183 0.931 . S
H1170 C1185 0.930 . S
C1171 H1159 0.930 . S
C1171 C1172 1.399 . S
C1171 C1176 1.399 . S
C1172 C1171 1.399 . S
C1172 C1173 1.376 . S
C1173 H1160 0.930 . S
C1173 C1172 1.376 . S
C1173 C1174 1.388 . S
C1174 H1161 0.930 . S
C1174 C1173 1.388 . S
C1174 C1175 1.390 . S
C1175 C1174 1.390 . S
C1175 C1176 1.394 . S
C1175 C1181 1.465 1_455 S
C1176 C1171 1.399 . S
C1176 C1175 1.394 . S
C1176 C1177 1.516 1_455 S
C1177 C1176 1.516 1_655 S
C1177 C1178 1.502 . S
C1177 C1179 1.561 . S
C1177 C1180 1.526 . S
C1178 H1162 0.959 . S
C1178 H1163 0.959 . S
C1178 H1164 0.961 . S
C1178 C1177 1.502 . S
C1179 H1165 0.960 1_655 S
C1179 H1166 0.961 . S
C1179 H1167 0.959 1_655 S
C1179 C1177 1.561 . S
C1180 C1177 1.526 . S
C1180 C1181 1.396 . S
C1180 C1185 1.390 . S
C1181 C1175 1.465 1_655 S
C1181 C1180 1.396 . S
C1181 C1182 1.399 . S
C1182 H1168 0.929 . S
C1182 C1181 1.399 . S
C1182 C1183 1.385 . S
C1183 H1169 0.931 . S
C1183 C1182 1.385 . S
C1183 C1184 1.389 . S
C1184 C1183 1.389 . S
C1184 C1185 1.387 . S
C1185 H1170 0.930 . S
C1185 C1180 1.390 . S
C1185 C1184 1.387 . S
H1186 C1198 0.930 . S
H1187 C1200 0.930 . S
H1188 C1201 0.930 . S
H1189 C1205 0.959 . S
H1190 C1205 0.959 . S
H1191 C1205 0.961 . S
H1192 C1206 0.960 . S
H1193 C1206 0.961 . S
H1194 C1206 0.959 . S
H1195 C1209 0.929 . S
H1196 C1210 0.931 . S
H1197 C1212 0.930 . S
C1198 H1186 0.930 . S
C1198 C1199 1.399 . S
C1198 C1203 1.399 . S
C1199 C1198 1.399 . S
C1199 C1200 1.376 . S
C1200 H1187 0.930 . S
C1200 C1199 1.376 . S
C1200 C1201 1.388 . S
C1201 H1188 0.930 . S
C1201 C1200 1.388 . S
C1201 C1202 1.390 . S
C1202 C1201 1.390 . S
C1202 C1203 1.394 . S
C1202 C1208 1.465 . S
C1203 C1198 1.399 . S
C1203 C1202 1.394 . S
C1203 C1204 1.516 . S
C1204 C1203 1.516 . S
C1204 C1205 1.502 . S
C1204 C1206 1.561 . S
C1204 C1207 1.526 . S
C1205 H1189 0.959 . S
C1205 H1190 0.959 . S
C1205 H1191 0.961 . S
C1205 C1204 1.502 . S
C1206 H1192 0.960 . S
C1206 H1193 0.961 . S
C1206 H1194 0.959 . S
C1206 C1204 1.561 . S
C1207 C1204 1.526 . S
C1207 C1208 1.396 . S
C1207 C1212 1.390 . S
C1208 C1202 1.465 . S
C1208 C1207 1.396 . S
C1208 C1209 1.399 . S
C1209 H1195 0.929 . S
C1209 C1208 1.399 . S
C1209 C1210 1.385 . S
C1210 H1196 0.931 . S
C1210 C1209 1.385 . S
C1210 C1211 1.389 . S
C1211 C1210 1.389 . S
C1211 C1212 1.387 . S
C1212 H1197 0.930 . S
C1212 C1207 1.390 . S
C1212 C1211 1.387 . S
H1213 C1225 0.930 . S
H1214 C1227 0.930 . S
H1215 C1228 0.930 . S
H1216 C1232 0.959 . S
H1217 C1232 0.959 . S
H1218 C1232 0.961 . S
H1219 C1233 0.960 . S
H1220 C1233 0.951 1_455 S
H1221 C1233 0.959 1_455 S
H1222 C1236 0.929 . S
H1223 C1237 0.931 . S
H1224 C1239 0.930 . S
C1225 H1213 0.930 . S
C1225 C1226 1.399 . S
C1225 C1230 1.399 . S
C1226 C1225 1.399 . S
C1226 C1227 1.376 . S
C1227 H1214 0.930 . S
C1227 C1226 1.376 . S
C1227 C1228 1.388 . S
C1228 H1215 0.930 . S
C1228 C1227 1.388 . S
C1228 C1229 1.390 . S
C1229 C1228 1.390 . S
C1229 C1230 1.394 . S
C1229 C1235 1.465 1_655 S
C1230 C1225 1.399 . S
C1230 C1229 1.394 . S
C1230 C1231 1.516 . S
C1231 C1230 1.516 . S
C1231 C1232 1.502 . S
C1231 C1233 1.561 . S
C1231 C1234 1.526 1_655 S
C1232 H1216 0.959 . S
C1232 H1217 0.959 . S
C1232 H1218 0.961 . S
C1232 C1231 1.502 . S
C1233 H1219 0.960 . S
C1233 H1220 0.951 1_655 S
C1233 H1221 0.959 1_655 S
C1233 C1231 1.561 . S
C1234 C1231 1.526 1_455 S
C1234 C1235 1.396 . S
C1234 C1239 1.390 . S
C1235 C1229 1.465 1_455 S
C1235 C1234 1.396 . S
C1235 C1236 1.399 . S
C1236 H1222 0.929 . S
C1236 C1235 1.399 . S
C1236 C1237 1.385 . S
C1237 H1223 0.931 . S
C1237 C1236 1.385 . S
C1237 C1238 1.389 . S
C1238 C1237 1.389 . S
C1238 C1239 1.387 . S
C1239 H1224 0.930 . S
C1239 C1234 1.390 . S
C1239 C1238 1.387 . S
H1240 C1252 0.930 . S
H1241 C1254 0.930 . S
H1242 C1255 0.930 . S
H1243 C1259 0.959 . S
H1244 C1259 0.959 . S
H1245 C1259 0.961 . S
H1246 C1260 0.960 . S
H1247 C1260 0.961 . S
H1248 C1260 0.959 . S
H1249 C1263 0.929 . S
H1250 C1264 0.931 . S
H1251 C1266 0.930 . S
C1252 H1240 0.930 . S
C1252 C1253 1.399 . S
C1252 C1257 1.399 . S
C1253 C1252 1.399 . S
C1253 C1254 1.376 . S
C1254 H1241 0.930 . S
C1254 C1253 1.376 . S
C1254 C1255 1.388 . S
C1255 H1242 0.930 . S
C1255 C1254 1.388 . S
C1255 C1256 1.390 . S
C1256 C1255 1.390 . S
C1256 C1257 1.394 . S
C1256 C1262 1.465 . S
C1257 C1252 1.399 . S
C1257 C1256 1.394 . S
C1257 C1258 1.516 . S
C1258 C1257 1.516 . S
C1258 C1259 1.502 . S
C1258 C1260 1.561 . S
C1258 C1261 1.526 . S
C1259 H1243 0.959 . S
C1259 H1244 0.959 . S
C1259 H1245 0.961 . S
C1259 C1258 1.502 . S
C1260 H1246 0.960 . S
C1260 H1247 0.961 . S
C1260 H1248 0.959 . S
C1260 C1258 1.561 . S
C1261 C1258 1.526 . S
C1261 C1262 1.396 . S
C1261 C1266 1.390 . S
C1262 C1256 1.465 . S
C1262 C1261 1.396 . S
C1262 C1263 1.399 . S
C1263 H1249 0.929 . S
C1263 C1262 1.399 . S
C1263 C1264 1.385 . S
C1264 H1250 0.931 . S
C1264 C1263 1.385 . S
C1264 C1265 1.389 . S
C1265 C1264 1.389 . S
C1265 C1266 1.387 . S
C1266 H1251 0.930 . S
C1266 C1261 1.390 . S
C1266 C1265 1.387 . S
H1267 C1279 0.930 . S
H1268 C1281 0.930 . S
H1269 C1282 0.930 . S
H1270 C1286 0.959 . S
H1271 C1286 0.959 . S
H1272 C1286 0.961 . S
H1273 C1287 0.960 . S
H1274 C1287 0.961 . S
H1275 C1287 0.959 . S
H1276 C1290 0.929 . S
H1277 C1291 0.931 . S
H1278 C1293 0.930 . S
C1279 H1267 0.930 . S
C1279 C1280 1.399 . S
C1279 C1284 1.399 . S
C1280 C1279 1.399 . S
C1280 C1281 1.376 . S
C1281 H1268 0.930 . S
C1281 C1280 1.376 . S
C1281 C1282 1.388 . S
C1282 H1269 0.930 . S
C1282 C1281 1.388 . S
C1282 C1283 1.390 . S
C1283 C1282 1.390 . S
C1283 C1284 1.394 . S
C1283 C1289 1.465 . S
C1284 C1279 1.399 . S
C1284 C1283 1.394 . S
C1284 C1285 1.516 . S
C1285 C1284 1.516 . S
C1285 C1286 1.502 . S
C1285 C1287 1.561 . S
C1285 C1288 1.526 . S
C1286 H1270 0.959 . S
C1286 H1271 0.959 . S
C1286 H1272 0.961 . S
C1286 C1285 1.502 . S
C1287 H1273 0.960 . S
C1287 H1274 0.961 . S
C1287 H1275 0.959 . S
C1287 C1285 1.561 . S
C1288 C1285 1.526 . S
C1288 C1289 1.396 . S
C1288 C1293 1.390 . S
C1289 C1283 1.465 . S
C1289 C1288 1.396 . S
C1289 C1290 1.399 1_554 S
C1290 H1276 0.929 . S
C1290 C1289 1.399 1_556 S
C1290 C1291 1.385 . S
C1291 H1277 0.931 . S
C1291 C1290 1.385 . S
C1291 C1292 1.389 . S
C1292 C1291 1.389 . S
C1292 C1293 1.387 1_556 S
C1293 H1278 0.930 . S
C1293 C1288 1.390 . S
C1293 C1292 1.387 1_554 S
H1294 C1306 0.930 . S
H1295 C1308 0.930 . S
H1296 C1309 0.930 . S
H1297 C1313 0.959 . S
H1298 C1313 0.959 . S
H1299 C1313 0.961 . S
H1300 C1314 0.960 . S
H1301 C1314 0.961 . S
H1302 C1314 0.959 . S
H1303 C1317 0.929 . S
H1304 C1318 0.931 . S
H1305 C1320 0.930 . S
C1306 H1294 0.930 . S
C1306 C1307 1.399 . S
C1306 C1311 1.399 . S
C1307 C1306 1.399 . S
C1307 C1308 1.376 . S
C1308 H1295 0.930 . S
C1308 C1307 1.376 . S
C1308 C1309 1.388 . S
C1309 H1296 0.930 . S
C1309 C1308 1.388 . S
C1309 C1310 1.390 . S
C1310 C1309 1.390 . S
C1310 C1311 1.394 . S
C1310 C1316 1.465 . S
C1311 C1306 1.399 . S
C1311 C1310 1.394 . S
C1311 C1312 1.516 . S
C1312 C1311 1.516 . S
C1312 C1313 1.502 . S
C1312 C1314 1.561 . S
C1312 C1315 1.526 . S
C1313 H1297 0.959 . S
C1313 H1298 0.959 . S
C1313 H1299 0.961 . S
C1313 C1312 1.502 . S
C1314 H1300 0.960 . S
C1314 H1301 0.961 . S
C1314 H1302 0.959 . S
C1314 C1312 1.561 . S
C1315 C1312 1.526 . S
C1315 C1316 1.396 . S
C1315 C1320 1.390 . S
C1316 C1310 1.465 . S
C1316 C1315 1.396 . S
C1316 C1317 1.399 . S
C1317 H1303 0.929 . S
C1317 C1316 1.399 . S
C1317 C1318 1.385 . S
C1318 H1304 0.931 . S
C1318 C1317 1.385 . S
C1318 C1319 1.389 . S
C1319 C1318 1.389 . S
C1319 C1320 1.387 . S
C1320 H1305 0.930 . S
C1320 C1315 1.390 . S
C1320 C1319 1.387 . S
H1321 C1333 0.930 . S
H1322 C1335 0.930 . S
H1323 C1336 0.930 . S
H1324 C1340 0.959 . S
H1325 C1340 0.959 . S
H1326 C1340 0.961 . S
H1327 C1341 0.960 . S
H1328 C1341 0.961 . S
H1329 C1341 0.959 . S
H1330 C1344 0.929 . S
H1331 C1345 0.931 . S
H1332 C1347 0.930 . S
C1333 H1321 0.930 . S
C1333 C1334 1.399 . S
C1333 C1338 1.399 . S
C1334 C1333 1.399 . S
C1334 C1335 1.376 . S
C1335 H1322 0.930 . S
C1335 C1334 1.376 . S
C1335 C1336 1.388 . S
C1336 H1323 0.930 . S
C1336 C1335 1.388 . S
C1336 C1337 1.390 . S
C1337 C1336 1.390 . S
C1337 C1338 1.394 . S
C1337 C1343 1.465 . S
C1338 C1333 1.399 . S
C1338 C1337 1.394 . S
C1338 C1339 1.516 . S
C1339 C1338 1.516 . S
C1339 C1340 1.502 . S
C1339 C1341 1.561 . S
C1339 C1342 1.526 . S
C1340 H1324 0.959 . S
C1340 H1325 0.959 . S
C1340 H1326 0.961 . S
C1340 C1339 1.502 . S
C1341 H1327 0.960 . S
C1341 H1328 0.961 . S
C1341 H1329 0.959 . S
C1341 C1339 1.561 . S
C1342 C1339 1.526 . S
C1342 C1343 1.396 . S
C1342 C1347 1.390 . S
C1343 C1337 1.465 . S
C1343 C1342 1.396 . S
C1343 C1344 1.399 . S
C1344 H1330 0.929 . S
C1344 C1343 1.399 . S
C1344 C1345 1.385 1_554 S
C1345 H1331 0.931 . S
C1345 C1344 1.385 1_556 S
C1345 C1346 1.389 . S
C1346 C1345 1.389 . S
C1346 C1347 1.387 1_556 S
C1347 H1332 0.930 . S
C1347 C1342 1.390 . S
C1347 C1346 1.387 1_554 S
H1348 C1360 0.930 . S
H1349 C1362 0.930 . S
H1350 C1363 0.930 . S
H1351 C1367 0.959 . S
H1352 C1367 0.959 . S
H1353 C1367 0.961 . S
H1354 C1368 0.960 . S
H1355 C1368 0.961 . S
H1356 C1368 0.959 . S
H1357 C1371 0.929 . S
H1358 C1372 0.931 . S
H1359 C1374 0.930 . S
C1360 H1348 0.930 . S
C1360 C1361 1.399 . S
C1360 C1365 1.399 . S
C1361 C1360 1.399 . S
C1361 C1362 1.376 . S
C1362 H1349 0.930 . S
C1362 C1361 1.376 . S
C1362 C1363 1.388 . S
C1363 H1350 0.930 . S
C1363 C1362 1.388 . S
C1363 C1364 1.390 . S
C1364 C1363 1.390 . S
C1364 C1365 1.394 . S
C1364 C1370 1.465 . S
C1365 C1360 1.399 . S
C1365 C1364 1.394 . S
C1365 C1366 1.516 . S
C1366 C1365 1.516 . S
C1366 C1367 1.502 . S
C1366 C1368 1.561 . S
C1366 C1369 1.526 . S
C1367 H1351 0.959 . S
C1367 H1352 0.959 . S
C1367 H1353 0.961 . S
C1367 C1366 1.502 . S
C1368 H1354 0.960 . S
C1368 H1355 0.961 . S
C1368 H1356 0.959 . S
C1368 C1366 1.561 . S
C1369 C1366 1.526 . S
C1369 C1370 1.396 . S
C1369 C1374 1.390 . S
C1370 C1364 1.465 . S
C1370 C1369 1.396 . S
C1370 C1371 1.399 . S
C1371 H1357 0.929 . S
C1371 C1370 1.399 . S
C1371 C1372 1.385 . S
C1372 H1358 0.931 . S
C1372 C1371 1.385 . S
C1372 C1373 1.389 . S
C1373 C1372 1.389 . S
C1373 C1374 1.387 . S
C1374 H1359 0.930 . S
C1374 C1369 1.390 . S
C1374 C1373 1.387 . S
H1375 C1387 0.930 . S
H1376 C1389 0.930 . S
H1377 C1390 0.930 . S
H1378 C1394 0.959 . S
H1379 C1394 0.959 . S
H1380 C1394 0.961 . S
H1381 C1395 0.960 . S
H1382 C1395 0.961 . S
H1383 C1395 0.959 . S
H1384 C1398 0.929 . S
H1385 C1399 0.931 . S
H1386 C1401 0.930 . S
C1387 H1375 0.930 . S
C1387 C1388 1.399 . S
C1387 C1392 1.399 . S
C1388 C1387 1.399 . S
C1388 C1389 1.376 . S
C1389 H1376 0.930 . S
C1389 C1388 1.376 . S
C1389 C1390 1.388 1_556 S
C1390 H1377 0.930 . S
C1390 C1389 1.388 1_554 S
C1390 C1391 1.390 . S
C1391 C1390 1.390 . S
C1391 C1392 1.394 1_554 S
C1391 C1397 1.465 . S
C1392 C1387 1.399 . S
C1392 C1391 1.394 1_556 S
C1392 C1393 1.516 . S
C1393 C1392 1.516 . S
C1393 C1394 1.502 . S
C1393 C1395 1.561 . S
C1393 C1396 1.526 1_556 S
C1394 H1378 0.959 . S
C1394 H1379 0.959 . S
C1394 H1380 0.961 . S
C1394 C1393 1.502 . S
C1395 H1381 0.960 . S
C1395 H1382 0.961 . S
C1395 H1383 0.959 . S
C1395 C1393 1.561 . S
C1396 C1393 1.526 1_554 S
C1396 C1397 1.396 . S
C1396 C1401 1.390 . S
C1397 C1391 1.465 . S
C1397 C1396 1.396 . S
C1397 C1398 1.399 . S
C1398 H1384 0.929 . S
C1398 C1397 1.399 . S
C1398 C1399 1.385 . S
C1399 H1385 0.931 . S
C1399 C1398 1.385 . S
C1399 C1400 1.389 . S
C1400 C1399 1.389 . S
C1400 C1401 1.387 . S
C1401 H1386 0.930 . S
C1401 C1396 1.390 . S
C1401 C1400 1.387 . S
H1402 C1414 0.930 . S
H1403 C1416 0.930 . S
H1404 C1417 0.930 . S
H1405 C1421 0.959 . S
H1406 C1421 0.959 . S
H1407 C1421 0.961 . S
H1408 C1422 0.960 . S
H1409 C1422 0.961 . S
H1410 C1422 0.959 . S
H1411 C1425 0.929 . S
H1412 C1426 0.931 . S
H1413 C1428 0.930 . S
C1414 H1402 0.930 . S
C1414 C1415 1.399 . S
C1414 C1419 1.399 . S
C1415 C1414 1.399 . S
C1415 C1416 1.376 . S
C1416 H1403 0.930 . S
C1416 C1415 1.376 . S
C1416 C1417 1.388 . S
C1417 H1404 0.930 . S
C1417 C1416 1.388 . S
C1417 C1418 1.390 . S
C1418 C1417 1.390 . S
C1418 C1419 1.394 . S
C1418 C1424 1.465 . S
C1419 C1414 1.399 . S
C1419 C1418 1.394 . S
C1419 C1420 1.516 . S
C1420 C1419 1.516 . S
C1420 C1421 1.502 . S
C1420 C1422 1.561 . S
C1420 C1423 1.526 . S
C1421 H1405 0.959 . S
C1421 H1406 0.959 . S
C1421 H1407 0.961 . S
C1421 C1420 1.502 . S
C1422 H1408 0.960 . S
C1422 H1409 0.961 . S
C1422 H1410 0.959 . S
C1422 C1420 1.561 . S
C1423 C1420 1.526 . S
C1423 C1424 1.396 . S
C1423 C1428 1.390 . S
C1424 C1418 1.465 . S
C1424 C1423 1.396 . S
C1424 C1425 1.399 . S
C1425 H1411 0.929 . S
C1425 C1424 1.399 . S
C1425 C1426 1.385 . S
C1426 H1412 0.931 . S
C1426 C1425 1.385 . S
C1426 C1427 1.389 . S
C1427 C1426 1.389 . S
C1427 C1428 1.387 . S
C1428 H1413 0.930 . S
C1428 C1423 1.390 . S
C1428 C1427 1.387 . S
H1429 C1441 0.930 . S
H1430 C1443 0.930 . S
H1431 C1444 0.930 . S
H1432 C1448 0.959 . S
H1433 C1448 0.959 . S
H1434 C1448 0.961 . S
H1435 C1449 0.960 . S
H1436 C1449 0.961 . S
H1437 C1449 0.959 . S
H1438 C1452 0.929 . S
H1439 C1453 0.931 . S
H1440 C1455 0.930 . S
C1441 H1429 0.930 . S
C1441 C1442 1.399 . S
C1441 C1446 1.399 1_556 S
C1442 C1441 1.399 . S
C1442 C1443 1.376 . S
C1443 H1430 0.930 . S
C1443 C1442 1.376 . S
C1443 C1444 1.388 . S
C1444 H1431 0.930 . S
C1444 C1443 1.388 . S
C1444 C1445 1.390 1_556 S
C1445 C1444 1.390 1_554 S
C1445 C1446 1.394 . S
C1445 C1451 1.465 . S
C1446 C1441 1.399 1_554 S
C1446 C1445 1.394 . S
C1446 C1447 1.516 . S
C1447 C1446 1.516 . S
C1447 C1448 1.502 . S
C1447 C1449 1.561 . S
C1447 C1450 1.526 . S
C1448 H1432 0.959 . S
C1448 H1433 0.959 . S
C1448 H1434 0.961 . S
C1448 C1447 1.502 . S
C1449 H1435 0.960 . S
C1449 H1436 0.961 . S
C1449 H1437 0.959 . S
C1449 C1447 1.561 . S
C1450 C1447 1.526 . S
C1450 C1451 1.396 . S
C1450 C1455 1.390 . S
C1451 C1445 1.465 . S
C1451 C1450 1.396 . S
C1451 C1452 1.399 . S
C1452 H1438 0.929 . S
C1452 C1451 1.399 . S
C1452 C1453 1.385 . S
C1453 H1439 0.931 . S
C1453 C1452 1.385 . S
C1453 C1454 1.389 . S
C1454 C1453 1.389 . S
C1454 C1455 1.387 . S
C1455 H1440 0.930 . S
C1455 C1450 1.390 . S
C1455 C1454 1.387 . S
H1456 C1468 0.930 . S
H1457 C1470 0.930 . S
H1458 C1471 0.930 . S
H1459 C1475 0.959 . S
H1460 C1475 0.959 . S
H1461 C1475 0.961 . S
H1462 C1476 0.960 . S
H1463 C1476 0.961 . S
H1464 C1476 0.959 . S
H1465 C1479 0.929 . S
H1466 C1480 0.931 . S
H1467 C1482 0.930 . S
C1468 H1456 0.930 . S
C1468 C1469 1.399 . S
C1468 C1473 1.399 . S
C1469 C1468 1.399 . S
C1469 C1470 1.376 . S
C1470 H1457 0.930 . S
C1470 C1469 1.376 . S
C1470 C1471 1.388 . S
C1471 H1458 0.930 . S
C1471 C1470 1.388 . S
C1471 C1472 1.390 . S
C1472 C1471 1.390 . S
C1472 C1473 1.394 . S
C1472 C1478 1.465 . S
C1473 C1468 1.399 . S
C1473 C1472 1.394 . S
C1473 C1474 1.516 . S
C1474 C1473 1.516 . S
C1474 C1475 1.502 . S
C1474 C1476 1.561 . S
C1474 C1477 1.526 . S
C1475 H1459 0.959 . S
C1475 H1460 0.959 . S
C1475 H1461 0.961 . S
C1475 C1474 1.502 . S
C1476 H1462 0.960 . S
C1476 H1463 0.961 . S
C1476 H1464 0.959 . S
C1476 C1474 1.561 . S
C1477 C1474 1.526 . S
C1477 C1478 1.396 . S
C1477 C1482 1.390 . S
C1478 C1472 1.465 . S
C1478 C1477 1.396 . S
C1478 C1479 1.399 . S
C1479 H1465 0.929 . S
C1479 C1478 1.399 . S
C1479 C1480 1.385 . S
C1480 H1466 0.931 . S
C1480 C1479 1.385 . S
C1480 C1481 1.389 . S
C1481 C1480 1.389 . S
C1481 C1482 1.387 . S
C1482 H1467 0.930 . S
C1482 C1477 1.390 . S
C1482 C1481 1.387 . S
H1483 C1495 0.930 . S
H1484 C1497 0.930 . S
H1485 C1498 0.930 . S
H1486 C1502 0.959 . S
H1487 C1502 0.959 . S
H1488 C1502 0.961 . S
H1489 C1503 0.960 . S
H1490 C1503 0.961 . S
H1491 C1503 0.959 . S
H1492 C1506 0.929 . S
H1493 C1507 0.931 . S
H1494 C1509 0.930 . S
C1495 H1483 0.930 . S
C1495 C1496 1.399 . S
C1495 C1500 1.399 . S
C1496 C1495 1.399 . S
C1496 C1497 1.376 . S
C1497 H1484 0.930 . S
C1497 C1496 1.376 . S
C1497 C1498 1.388 . S
C1498 H1485 0.930 . S
C1498 C1497 1.388 . S
C1498 C1499 1.390 . S
C1499 C1498 1.390 . S
C1499 C1500 1.394 . S
C1499 C1505 1.465 . S
C1500 C1495 1.399 . S
C1500 C1499 1.394 . S
C1500 C1501 1.516 . S
C1501 C1500 1.516 . S
C1501 C1502 1.502 . S
C1501 C1503 1.561 . S
C1501 C1504 1.526 . S
C1502 H1486 0.959 . S
C1502 H1487 0.959 . S
C1502 H1488 0.961 . S
C1502 C1501 1.502 . S
C1503 H1489 0.960 . S
C1503 H1490 0.961 . S
C1503 H1491 0.959 . S
C1503 C1501 1.561 . S
C1504 C1501 1.526 . S
C1504 C1505 1.396 . S
C1504 C1509 1.390 . S
C1505 C1499 1.465 . S
C1505 C1504 1.396 . S
C1505 C1506 1.399 . S
C1506 H1492 0.929 . S
C1506 C1505 1.399 . S
C1506 C1507 1.385 . S
C1507 H1493 0.931 . S
C1507 C1506 1.385 . S
C1507 C1508 1.389 . S
C1508 C1507 1.389 . S
C1508 C1509 1.387 . S
C1509 H1494 0.930 . S
C1509 C1504 1.390 . S
C1509 C1508 1.387 . S
H1510 C1522 0.930 . S
H1511 C1524 0.930 . S
H1512 C1525 0.930 . S
H1513 C1529 0.959 . S
H1514 C1529 0.959 . S
H1515 C1529 0.961 . S
H1516 C1530 0.960 . S
H1517 C1530 0.961 . S
H1518 C1530 0.959 . S
H1519 C1533 0.929 . S
H1520 C1534 0.931 . S
H1521 C1536 0.930 . S
C1522 H1510 0.930 . S
C1522 C1523 1.399 . S
C1522 C1527 1.399 . S
C1523 C1522 1.399 . S
C1523 C1524 1.376 . S
C1524 H1511 0.930 . S
C1524 C1523 1.376 . S
C1524 C1525 1.388 . S
C1525 H1512 0.930 . S
C1525 C1524 1.388 . S
C1525 C1526 1.390 . S
C1526 C1525 1.390 . S
C1526 C1527 1.394 . S
C1526 C1532 1.465 . S
C1527 C1522 1.399 . S
C1527 C1526 1.394 . S
C1527 C1528 1.516 . S
C1528 C1527 1.516 . S
C1528 C1529 1.502 . S
C1528 C1530 1.561 . S
C1528 C1531 1.526 . S
C1529 H1513 0.959 . S
C1529 H1514 0.959 . S
C1529 H1515 0.961 . S
C1529 C1528 1.502 . S
C1530 H1516 0.960 . S
C1530 H1517 0.961 . S
C1530 H1518 0.959 . S
C1530 C1528 1.561 . S
C1531 C1528 1.526 . S
C1531 C1532 1.396 . S
C1531 C1536 1.390 . S
C1532 C1526 1.465 . S
C1532 C1531 1.396 . S
C1532 C1533 1.399 . S
C1533 H1519 0.929 . S
C1533 C1532 1.399 . S
C1533 C1534 1.385 . S
C1534 H1520 0.931 . S
C1534 C1533 1.385 . S
C1534 C1535 1.389 . S
C1535 C1534 1.389 . S
C1535 C1536 1.387 . S
C1536 H1521 0.930 . S
C1536 C1531 1.390 . S
C1536 C1535 1.387 . S
H1537 C1549 0.930 . S
H1538 C1551 0.930 . S
H1539 C1552 0.930 . S
H1540 C1556 0.959 . S
H1541 C1556 0.959 . S
H1542 C1556 0.961 . S
H1543 C1557 0.960 . S
H1544 C1557 0.961 . S
H1545 C1557 0.959 . S
H1546 C1560 0.929 . S
H1547 C1561 0.931 . S
H1548 C1563 0.930 . S
C1549 H1537 0.930 . S
C1549 C1550 1.399 . S
C1549 C1554 1.399 . S
C1550 C1549 1.399 . S
C1550 C1551 1.376 . S
C1551 H1538 0.930 . S
C1551 C1550 1.376 . S
C1551 C1552 1.388 . S
C1552 H1539 0.930 . S
C1552 C1551 1.388 . S
C1552 C1553 1.390 . S
C1553 C1552 1.390 . S
C1553 C1554 1.394 . S
C1553 C1559 1.465 . S
C1554 C1549 1.399 . S
C1554 C1553 1.394 . S
C1554 C1555 1.516 . S
C1555 C1554 1.516 . S
C1555 C1556 1.502 . S
C1555 C1557 1.561 . S
C1555 C1558 1.526 . S
C1556 H1540 0.959 . S
C1556 H1541 0.959 . S
C1556 H1542 0.961 . S
C1556 C1555 1.502 . S
C1557 H1543 0.960 . S
C1557 H1544 0.961 . S
C1557 H1545 0.959 . S
C1557 C1555 1.561 . S
C1558 C1555 1.526 . S
C1558 C1559 1.396 . S
C1558 C1563 1.390 . S
C1559 C1553 1.465 . S
C1559 C1558 1.396 . S
C1559 C1560 1.399 . S
C1560 H1546 0.929 . S
C1560 C1559 1.399 . S
C1560 C1561 1.385 . S
C1561 H1547 0.931 . S
C1561 C1560 1.385 . S
C1561 C1562 1.389 . S
C1562 C1561 1.389 . S
C1562 C1563 1.387 . S
C1563 H1548 0.930 . S
C1563 C1558 1.390 . S
C1563 C1562 1.387 . S
H1564 C1576 0.930 . S
H1565 C1578 0.930 . S
H1566 C1579 0.930 . S
H1567 C1583 0.959 . S
H1568 C1583 0.959 1_554 S
H1569 C1583 0.961 . S
H1570 C1584 0.976 . S
H1571 C1584 0.989 . S
H1572 C1584 0.950 1_556 S
H1573 C1587 0.929 . S
H1574 C1588 0.931 . S
H1575 C1590 0.930 . S
C1576 H1564 0.930 . S
C1576 C1577 1.399 . S
C1576 C1581 1.399 . S
C1577 C1576 1.399 . S
C1577 C1578 1.376 . S
C1578 H1565 0.930 . S
C1578 C1577 1.376 . S
C1578 C1579 1.388 . S
C1579 H1566 0.930 . S
C1579 C1578 1.388 . S
C1579 C1580 1.390 . S
C1580 C1579 1.390 . S
C1580 C1581 1.394 . S
C1580 C1586 1.465 . S
C1581 C1576 1.399 . S
C1581 C1580 1.394 . S
C1581 C1582 1.516 . S
C1582 C1581 1.516 . S
C1582 C1583 1.502 . S
C1582 C1584 1.528 1_556 S
C1582 C1585 1.526 . S
C1583 H1567 0.959 . S
C1583 H1568 0.959 1_556 S
C1583 H1569 0.961 . S
C1583 C1582 1.502 . S
C1584 H1570 0.976 . S
C1584 H1571 0.989 . S
C1584 H1572 0.950 1_554 S
C1584 C1582 1.528 1_554 S
C1585 C1582 1.526 . S
C1585 C1586 1.396 . S
C1585 C1590 1.390 . S
C1586 C1580 1.465 . S
C1586 C1585 1.396 . S
C1586 C1587 1.399 . S
C1587 H1573 0.929 . S
C1587 C1586 1.399 . S
C1587 C1588 1.385 . S
C1588 H1574 0.931 . S
C1588 C1587 1.385 . S
C1588 C1589 1.389 . S
C1589 C1588 1.389 . S
C1589 C1590 1.387 . S
C1590 H1575 0.930 . S
C1590 C1585 1.390 . S
C1590 C1589 1.387 . S
H1591 C1603 0.930 . S
H1592 C1605 0.930 . S
H1593 C1606 0.930 . S
H1594 C1610 0.959 . S
H1595 C1610 0.959 . S
H1596 C1610 0.961 . S
H1597 C1611 0.960 . S
H1598 C1611 0.961 . S
H1599 C1611 0.959 . S
H1600 C1614 0.929 . S
H1601 C1615 0.931 . S
H1602 C1617 0.930 . S
C1603 H1591 0.930 . S
C1603 C1604 1.399 . S
C1603 C1608 1.399 . S
C1604 C1603 1.399 . S
C1604 C1605 1.376 . S
C1605 H1592 0.930 . S
C1605 C1604 1.376 . S
C1605 C1606 1.388 . S
C1606 H1593 0.930 . S
C1606 C1605 1.388 . S
C1606 C1607 1.390 . S
C1607 C1606 1.390 . S
C1607 C1608 1.394 . S
C1607 C1613 1.465 . S
C1608 C1603 1.399 . S
C1608 C1607 1.394 . S
C1608 C1609 1.516 . S
C1609 C1608 1.516 . S
C1609 C1610 1.502 . S
C1609 C1611 1.561 . S
C1609 C1612 1.526 . S
C1610 H1594 0.959 . S
C1610 H1595 0.959 . S
C1610 H1596 0.961 . S
C1610 C1609 1.502 . S
C1611 H1597 0.960 . S
C1611 H1598 0.961 . S
C1611 H1599 0.959 . S
C1611 C1609 1.561 . S
C1612 C1609 1.526 . S
C1612 C1613 1.396 . S
C1612 C1617 1.390 . S
C1613 C1607 1.465 . S
C1613 C1612 1.396 . S
C1613 C1614 1.399 . S
C1614 H1600 0.929 . S
C1614 C1613 1.399 . S
C1614 C1615 1.385 . S
C1615 H1601 0.931 . S
C1615 C1614 1.385 . S
C1615 C1616 1.389 . S
C1616 C1615 1.389 . S
C1616 C1617 1.387 . S
C1617 H1602 0.930 . S
C1617 C1612 1.390 . S
C1617 C1616 1.387 . S
H1618 C1630 0.930 . S
H1619 C1632 0.930 . S
H1620 C1633 0.930 . S
H1621 C1637 0.959 . S
H1622 C1637 0.959 . S
H1623 C1637 0.961 . S
H1624 C1638 0.960 . S
H1625 C1638 0.961 . S
H1626 C1638 0.959 . S
H1627 C1641 0.929 . S
H1628 C1642 0.931 . S
H1629 C1644 0.930 . S
C1630 H1618 0.930 . S
C1630 C1631 1.399 . S
C1630 C1635 1.399 . S
C1631 C1630 1.399 . S
C1631 C1632 1.376 . S
C1632 H1619 0.930 . S
C1632 C1631 1.376 . S
C1632 C1633 1.388 . S
C1633 H1620 0.930 . S
C1633 C1632 1.388 . S
C1633 C1634 1.390 . S
C1634 C1633 1.390 . S
C1634 C1635 1.394 . S
C1634 C1640 1.465 . S
C1635 C1630 1.399 . S
C1635 C1634 1.394 . S
C1635 C1636 1.516 . S
C1636 C1635 1.516 . S
C1636 C1637 1.502 . S
C1636 C1638 1.561 . S
C1636 C1639 1.526 . S
C1637 H1621 0.959 . S
C1637 H1622 0.959 . S
C1637 H1623 0.961 . S
C1637 C1636 1.502 . S
C1638 H1624 0.960 . S
C1638 H1625 0.961 . S
C1638 H1626 0.959 . S
C1638 C1636 1.561 . S
C1639 C1636 1.526 . S
C1639 C1640 1.396 . S
C1639 C1644 1.390 . S
C1640 C1634 1.465 . S
C1640 C1639 1.396 . S
C1640 C1641 1.399 . S
C1641 H1627 0.929 . S
C1641 C1640 1.399 . S
C1641 C1642 1.385 . S
C1642 H1628 0.931 . S
C1642 C1641 1.385 . S
C1642 C1643 1.389 . S
C1643 C1642 1.389 . S
C1643 C1644 1.387 . S
C1644 H1629 0.930 . S
C1644 C1639 1.390 . S
C1644 C1643 1.387 . S
H1645 C1657 0.930 . S
H1646 C1659 0.930 . S
H1647 C1660 0.930 . S
H1648 C1664 0.959 . S
H1649 C1664 0.959 . S
H1650 C1664 0.961 . S
H1651 C1665 0.960 . S
H1652 C1665 0.961 . S
H1653 C1665 0.959 . S
H1654 C1668 0.929 . S
H1655 C1669 0.931 . S
H1656 C1671 0.930 . S
C1657 H1645 0.930 . S
C1657 C1658 1.399 . S
C1657 C1662 1.399 . S
C1658 C1657 1.399 . S
C1658 C1659 1.376 . S
C1659 H1646 0.930 . S
C1659 C1658 1.376 . S
C1659 C1660 1.388 . S
C1660 H1647 0.930 . S
C1660 C1659 1.388 . S
C1660 C1661 1.390 . S
C1661 C1660 1.390 . S
C1661 C1662 1.394 . S
C1661 C1667 1.465 . S
C1662 C1657 1.399 . S
C1662 C1661 1.394 . S
C1662 C1663 1.516 . S
C1663 C1662 1.516 . S
C1663 C1664 1.502 . S
C1663 C1665 1.561 . S
C1663 C1666 1.526 . S
C1664 H1648 0.959 . S
C1664 H1649 0.959 . S
C1664 H1650 0.961 . S
C1664 C1663 1.502 . S
C1665 H1651 0.960 . S
C1665 H1652 0.961 . S
C1665 H1653 0.959 . S
C1665 C1663 1.561 . S
C1666 C1663 1.526 . S
C1666 C1667 1.396 . S
C1666 C1671 1.390 . S
C1667 C1661 1.465 . S
C1667 C1666 1.396 . S
C1667 C1668 1.399 . S
C1668 H1654 0.929 . S
C1668 C1667 1.399 . S
C1668 C1669 1.385 . S
C1669 H1655 0.931 . S
C1669 C1668 1.385 . S
C1669 C1670 1.389 . S
C1670 C1669 1.389 . S
C1670 C1671 1.387 . S
C1671 H1656 0.930 . S
C1671 C1666 1.390 . S
C1671 C1670 1.387 . S
C401 C216 1.435 1_556 S
C389 N66 1.403 . S
C428 C231 1.748 . S
C416 N79 1.711 . S
C443 N92 1.862 . S
C455 C244 1.884 . S
C482 C258 1.313 . S
C470 N54 1.456 . S
C509 C270 1.622 . S
C497 N131 1.743 . S
C536 C284 1.008 . S
C524 N158 1.003 . S
C551 N145 1.740 . S
C563 C298 1.692 . S
C590 C313 1.588 . S
C578 N118 1.608 . S
C605 N148 1.946 . S
C617 C329 1.916 . S
C644 C342 1.470 . S
C632 N122 1.484 . S
C659 N132 1.475 . S
C671 C327 1.384 . S
C698 C340 1.495 . S
C686 N161 1.434 . S
C713 N96 2.167 . S
C725 C356 2.172 . S
C740 N53 1.668 . S
C752 C355 1.630 . S
C767 N67 1.315 . S
C779 C354 1.225 . S
C794 N83 1.337 . S
C806 C357 1.290 . S
C821 N44 1.589 . S
C833 C259 1.631 1_565 S
C848 N187 1.461 . S
C860 C257 1.443 . S
C887 C217 1.229 . S
C875 N197 1.279 . S
C914 C228 1.504 . S
C902 N106 1.501 . S
C929 N57 1.858 . S
C941 C273 1.884 . S
C968 C314 1.825 . S
C956 N144 1.792 . S
C995 C271 1.398 . S
C983 N119 1.352 . S
C1022 C299 1.684 . S
C1010 N157 1.663 . S
C1049 C300 1.425 . S
C1037 N183 1.423 . S
C1064 N196 1.759 . S
C1076 C315 1.700 . S
C1091 N105 1.878 . S
C1103 C272 1.895 . S
C1130 C286 1.418 . S
C1118 N171 1.406 . S
C1145 N40 1.769 . S
C1157 C242 1.673 . S
C1184 C256 1.046 . S
C1172 N2 1.060 . S
C1211 C214 1.667 . S
C1199 N15 1.743 . S
C1238 C229 1.593 . S
C1226 N27 1.612 . S
C1253 N18 1.930 . S
C1265 C343 1.872 . S
C1280 N31 1.445 . S
C1292 C328 1.502 . S
C1307 N41 1.468 . S
C1319 C341 1.441 . S
C1334 N5 1.490 . S
C1346 C326 1.533 . S
C1373 C370 2.185 . S
C1361 N109 2.135 . S
C1400 C369 1.655 . S
C1388 N170 1.667 . S
C1427 C368 1.216 . S
C1415 N184 1.318 . S
C1442 N200 1.299 . S
C1454 C371 1.320 . S
C1469 N135 1.585 . S
C1481 C287 1.644 . S
C1508 C285 1.444 . S
C1496 N70 1.460 . S
C1535 C301 1.254 . S
C1523 N80 1.217 . S
C1562 C312 1.462 . S
C1550 N93 1.507 . S
C1577 N174 1.879 . S
C1589 C245 1.893 . S
C1616 C230 1.816 . S
C1604 N14 1.824 . S
C1631 N28 1.352 . S
C1643 C243 1.400 . S
C1670 C215 1.683 1_545 S
C1658 N1 1.666 . S
