# Generated by pormake.
# Topology cml, (3,6)-cn, num edge types: 1
# Building blocks:
#     Node 0, Type 0, BuildingBlock: VETTIZ_charged_linker_0, # of connection points: 3
#     Node 1, Type 0, BuildingBlock: VETTIZ_charged_linker_0, # of connection points: 3
#     Node 2, Type 0, BuildingBlock: VETTIZ_charged_linker_0, # of connection points: 3
#     Node 3, Type 0, BuildingBlock: VETTIZ_charged_linker_0, # of connection points: 3
#     Node 4, Type 0, BuildingBlock: VETTIZ_charged_linker_0, # of connection points: 3
#     Node 5, Type 0, BuildingBlock: VETTIZ_charged_linker_0, # of connection points: 3
#     Node 6, Type 0, BuildingBlock: VETTIZ_charged_linker_0, # of connection points: 3
#     Node 7, Type 0, BuildingBlock: VETTIZ_charged_linker_0, # of connection points: 3
#     Node 8, Type 1, BuildingBlock: OJICUG_clean_sbu_0, # of connection points: 6
#     Node 9, Type 1, BuildingBlock: OJICUG_clean_sbu_0, # of connection points: 6
#     Node 10, Type 1, BuildingBlock: OJICUG_clean_sbu_0, # of connection points: 6
#     Node 11, Type 1, BuildingBlock: OJICUG_clean_sbu_0, # of connection points: 6
#     Edge 12, Type (0, 1), BuildingBlock: CIFDUS_clean_linker_0, # of connection points: 2
#     Edge 13, Type (0, 1), BuildingBlock: CIFDUS_clean_linker_0, # of connection points: 2
#     Edge 14, Type (0, 1), BuildingBlock: CIFDUS_clean_linker_0, # of connection points: 2
#     Edge 15, Type (0, 1), BuildingBlock: CIFDUS_clean_linker_0, # of connection points: 2
#     Edge 16, Type (0, 1), BuildingBlock: CIFDUS_clean_linker_0, # of connection points: 2
#     Edge 17, Type (0, 1), BuildingBlock: CIFDUS_clean_linker_0, # of connection points: 2
#     Edge 18, Type (0, 1), BuildingBlock: CIFDUS_clean_linker_0, # of connection points: 2
#     Edge 19, Type (0, 1), BuildingBlock: CIFDUS_clean_linker_0, # of connection points: 2
#     Edge 20, Type (0, 1), BuildingBlock: CIFDUS_clean_linker_0, # of connection points: 2
#     Edge 21, Type (0, 1), BuildingBlock: CIFDUS_clean_linker_0, # of connection points: 2
#     Edge 22, Type (0, 1), BuildingBlock: CIFDUS_clean_linker_0, # of connection points: 2
#     Edge 23, Type (0, 1), BuildingBlock: CIFDUS_clean_linker_0, # of connection points: 2
#     Edge 24, Type (0, 1), BuildingBlock: CIFDUS_clean_linker_0, # of connection points: 2
#     Edge 25, Type (0, 1), BuildingBlock: CIFDUS_clean_linker_0, # of connection points: 2
#     Edge 26, Type (0, 1), BuildingBlock: CIFDUS_clean_linker_0, # of connection points: 2
#     Edge 27, Type (0, 1), BuildingBlock: CIFDUS_clean_linker_0, # of connection points: 2
#     Edge 28, Type (0, 1), BuildingBlock: CIFDUS_clean_linker_0, # of connection points: 2
#     Edge 29, Type (0, 1), BuildingBlock: CIFDUS_clean_linker_0, # of connection points: 2
#     Edge 30, Type (0, 1), BuildingBlock: CIFDUS_clean_linker_0, # of connection points: 2
#     Edge 31, Type (0, 1), BuildingBlock: CIFDUS_clean_linker_0, # of connection points: 2
#     Edge 32, Type (0, 1), BuildingBlock: CIFDUS_clean_linker_0, # of connection points: 2
#     Edge 33, Type (0, 1), BuildingBlock: CIFDUS_clean_linker_0, # of connection points: 2
#     Edge 34, Type (0, 1), BuildingBlock: CIFDUS_clean_linker_0, # of connection points: 2
#     Edge 35, Type (0, 1), BuildingBlock: CIFDUS_clean_linker_0, # of connection points: 2
# Relax obj value: 0.076
# Max RMSD: 0.088
# Mean RMSD: 0.083
data_MOF--net-cml--node1-OJICUG_clean_sbu_0--node2-VETTIZ_charged_linker_0--edge1-CIFDUS_clean_linker_0
_symmetry_space_group_name_H-M    P1
_symmetry_Int_Tables_number       1
_symmetry_cell_setting            triclinic
loop_
_symmetry_equiv_pos_as_xyz
'x, y, z'
_cell_length_a     42.246242
_cell_length_b     42.750051
_cell_length_c     40.564796
_cell_angle_alpha  89.996641
_cell_angle_beta   89.93619
_cell_angle_gamma 90.24218
loop_
_atom_site_label
_atom_site_type_symbol
_atom_site_fract_x
_atom_site_fract_y
_atom_site_fract_z
_atom_type_partial_charge
C0 C 0.33074 0.34284 0.08884 0.0
C1 C 0.35767 0.35807 0.10174 0.0
C2 C 0.36375 0.38938 0.09295 0.0
C3 C 0.31954 0.38867 0.05539 0.0
C4 C 0.31199 0.35866 0.0655 0.0
C5 C 0.28316 0.34627 0.04761 0.0
H6 H 0.18217 0.36089 0.91861 0.0
C7 C 0.29836 0.39735 0.02815 0.0
C8 C 0.27684 0.37274 0.02327 0.0
H9 H 0.1782 0.29274 0.99764 0.0
H10 H 0.22377 0.31673 0.023 0.0
H11 H 0.19186 0.41992 0.96872 0.0
H12 H 0.25656 0.36487 0.91067 0.0
H13 H 0.27001 0.40377 0.90939 0.0
H14 H 0.23174 0.39406 0.89236 0.0
H15 H 0.19238 0.42048 0.92445 0.0
H16 H 0.21819 0.44534 0.94814 0.0
C17 C 0.25587 0.34242 0.07289 0.0
C18 C 0.2922 0.31559 0.02984 0.0
C19 C 0.32255 0.49636 0.96443 0.0
C20 C 0.31282 0.50759 0.93365 0.0
C21 C 0.2892 0.49131 0.91609 0.0
C22 C 0.27545 0.46402 0.92926 0.0
C23 C 0.28598 0.45266 0.95994 0.0
C24 C 0.30934 0.46876 0.97675 0.0
C25 C 0.32036 0.4518 0.00696 0.0
C26 C 0.29915 0.42312 0.00615 0.0
C27 C 0.27875 0.42391 0.97893 0.0
C28 C 0.31316 0.47263 0.03729 0.0
C29 C 0.35596 0.4436 0.00228 0.0
C30 C 0.19062 0.35115 0.94158 0.0
C31 C 0.17629 0.3245 0.95571 0.0
C32 C 0.18893 0.31266 0.98547 0.0
C33 C 0.21524 0.32684 0.00052 0.0
C34 C 0.22898 0.35345 0.98606 0.0
C35 C 0.21627 0.36549 0.9574 0.0
C36 C 0.23241 0.39525 0.94679 0.0
C37 C 0.25652 0.39935 0.97413 0.0
C38 C 0.25501 0.37433 0.99664 0.0
C39 C 0.20756 0.42178 0.94675 0.0
C40 C 0.24841 0.3895 0.91294 0.0
H41 H 0.35119 0.42833 0.06409 0.0
H42 H 0.32524 0.31896 0.09573 0.0
H43 H 0.31434 0.3189 0.01536 0.0
H44 H 0.27397 0.30761 0.01228 0.0
H45 H 0.29625 0.29648 0.04789 0.0
H46 H 0.25926 0.35784 0.09471 0.0
H47 H 0.25422 0.31797 0.08202 0.0
H48 H 0.23271 0.34943 0.06257 0.0
H49 H 0.34148 0.50786 0.97785 0.0
H50 H 0.28172 0.49952 0.89208 0.0
H51 H 0.25769 0.45245 0.91475 0.0
H52 H 0.28978 0.48425 0.0346 0.0
H53 H 0.33136 0.49127 0.04016 0.0
H54 H 0.31146 0.45918 0.0605 0.0
H55 H 0.36323 0.44436 0.97592 0.0
H56 H 0.36155 0.41945 0.01009 0.0
H57 H 0.3715 0.46019 0.01584 0.0
H58 H 0.38378 0.40184 0.10335 0.0
C59 C 0.34482 0.40474 0.07007 0.0
C60 C 0.80737 0.64716 0.44956 0.0
C61 C 0.82135 0.67362 0.46448 0.0
C62 C 0.80882 0.68463 0.49455 0.0
C63 C 0.77133 0.6418 0.49598 0.0
C64 C 0.78238 0.63164 0.46575 0.0
C65 C 0.76479 0.60291 0.454 0.0
H66 H 0.65587 0.48955 0.48736 0.0
C67 C 0.74696 0.61961 0.50755 0.0
C68 C 0.74295 0.59659 0.48314 0.0
H69 H 0.70569 0.5043 0.3956 0.0
H70 H 0.73368 0.54859 0.41955 0.0
H71 H 0.71381 0.50142 0.53524 0.0
H72 H 0.63951 0.56002 0.49851 0.0
H73 H 0.64374 0.5688 0.54053 0.0
H74 H 0.63314 0.52965 0.52837 0.0
H75 H 0.67476 0.50058 0.55256 0.0
H76 H 0.70485 0.52714 0.56759 0.0
C77 C 0.78885 0.5762 0.44888 0.0
C78 C 0.7461 0.61172 0.42254 0.0
C79 C 0.69612 0.6349 0.62032 0.0
C80 C 0.67511 0.61629 0.63881 0.0
C81 C 0.66513 0.58723 0.62609 0.0
C82 C 0.67525 0.57708 0.59512 0.0
C83 C 0.69568 0.59613 0.57652 0.0
C84 C 0.70639 0.62414 0.58943 0.0
C85 C 0.72955 0.6402 0.56678 0.0
C86 C 0.73002 0.61765 0.53775 0.0
C87 C 0.70979 0.59222 0.5435 0.0
C88 C 0.762 0.64197 0.58462 0.0
C89 C 0.71559 0.67234 0.55701 0.0
C90 C 0.67323 0.5019 0.47254 0.0
C91 C 0.67884 0.49324 0.43971 0.0
C92 C 0.70096 0.51058 0.42099 0.0
C93 C 0.71708 0.53628 0.4349 0.0
C94 C 0.71065 0.54495 0.46771 0.0
C95 C 0.689 0.52773 0.48582 0.0
C96 C 0.68356 0.54091 0.51957 0.0
C97 C 0.70519 0.56921 0.5188 0.0
C98 C 0.72136 0.57144 0.48858 0.0
C99 C 0.69453 0.51633 0.54525 0.0
C100 C 0.64818 0.55023 0.52225 0.0
H101 H 0.77603 0.67831 0.53333 0.0
H102 H 0.81621 0.63822 0.42635 0.0
H103 H 0.73812 0.63647 0.42349 0.0
H104 H 0.72412 0.59791 0.41968 0.0
H105 H 0.76094 0.60895 0.40011 0.0
H106 H 0.80539 0.57487 0.47016 0.0
H107 H 0.80316 0.58015 0.42625 0.0
H108 H 0.77752 0.55298 0.4471 0.0
H109 H 0.70441 0.65719 0.62972 0.0
H110 H 0.6487 0.57267 0.63981 0.0
H111 H 0.66636 0.55496 0.5867 0.0
H112 H 0.76479 0.62248 0.60256 0.0
H113 H 0.76462 0.66423 0.59848 0.0
H114 H 0.78227 0.63934 0.56761 0.0
H115 H 0.68962 0.67045 0.55288 0.0
H116 H 0.72529 0.68147 0.5336 0.0
H117 H 0.71954 0.68995 0.57673 0.0
H118 H 0.81833 0.70548 0.5061 0.0
C119 C 0.78407 0.66888 0.51034 0.0
C120 C 0.69263 0.50716 0.95342 0.0
C121 C 0.67144 0.52708 0.97003 0.0
C122 C 0.66762 0.52342 0.00443 0.0
C123 C 0.70111 0.47768 0.00366 0.0
C124 C 0.70748 0.48305 0.97078 0.0
C125 C 0.73083 0.46002 0.95702 0.0
H126 H 0.81764 0.32923 0.97762 0.0
C127 C 0.71737 0.44869 0.01345 0.0
C128 C 0.73543 0.43862 0.98649 0.0
H129 H 0.81687 0.39231 0.89414 0.0
H130 H 0.77855 0.42472 0.92161 0.0
H131 H 0.81491 0.38211 0.03633 0.0
H132 H 0.74328 0.32817 0.9862 0.0
H133 H 0.73003 0.33342 0.02681 0.0
H134 H 0.76603 0.31189 0.01927 0.0
H135 H 0.81146 0.34028 0.0391 0.0
H136 H 0.78875 0.3654 0.06554 0.0
C137 C 0.7616 0.47802 0.94787 0.0
C138 C 0.71509 0.44263 0.92777 0.0
C139 C 0.68733 0.3965 0.12114 0.0
C140 C 0.69375 0.36701 0.13474 0.0
C141 C 0.71494 0.34695 0.11833 0.0
C142 C 0.7295 0.35629 0.0887 0.0
C143 C 0.72225 0.38571 0.07508 0.0
C144 C 0.70141 0.40518 0.09135 0.0
C145 C 0.69464 0.43463 0.07249 0.0
C146 C 0.71479 0.42968 0.04201 0.0
C147 C 0.73113 0.40116 0.04372 0.0
C148 C 0.70622 0.46298 0.09314 0.0
C149 C 0.65878 0.43496 0.06443 0.0
C150 C 0.80909 0.34992 0.96512 0.0
C151 C 0.8205 0.35825 0.93364 0.0
C152 C 0.80894 0.3856 0.91854 0.0
C153 C 0.78658 0.40436 0.9345 0.0
C154 C 0.77549 0.3957 0.96587 0.0
C155 C 0.78665 0.36885 0.98067 0.0
C156 C 0.7716 0.36308 0.01382 0.0
C157 C 0.75084 0.39181 0.01712 0.0
C158 C 0.75302 0.41056 0.98878 0.0
C159 C 0.79794 0.36248 0.04026 0.0
C160 C 0.75183 0.33249 0.01174 0.0
H161 H 0.67757 0.4967 0.04715 0.0
H162 H 0.69671 0.50925 0.92718 0.0
H163 H 0.69032 0.43593 0.93404 0.0
H164 H 0.72711 0.4206 0.92132 0.0
H165 H 0.71437 0.4577 0.90548 0.0
H166 H 0.76369 0.50048 0.96158 0.0
H167 H 0.76237 0.48369 0.92115 0.0
H168 H 0.78321 0.46492 0.95458 0.0
H169 H 0.67061 0.41213 0.13286 0.0
H170 H 0.72016 0.32408 0.12842 0.0
H171 H 0.7455 0.34012 0.0773 0.0
H172 H 0.72575 0.45631 0.1101 0.0
H173 H 0.68678 0.47272 0.10843 0.0
H174 H 0.71638 0.48181 0.07762 0.0
H175 H 0.65085 0.41155 0.05561 0.0
H176 H 0.6524 0.4514 0.04469 0.0
H177 H 0.64463 0.44088 0.08665 0.0
H178 H 0.65278 0.5392 0.0184 0.0
C179 C 0.68219 0.4988 0.02124 0.0
C180 C 0.20216 0.64149 0.43542 0.0
C181 C 0.18916 0.66823 0.45052 0.0
C182 C 0.19654 0.67455 0.48376 0.0
C183 C 0.23111 0.62978 0.48557 0.0
C184 C 0.22292 0.6225 0.45351 0.0
C185 C 0.23909 0.59313 0.44176 0.0
H186 H 0.34249 0.47587 0.47454 0.0
C187 C 0.25373 0.60627 0.49738 0.0
C188 C 0.25812 0.5842 0.47215 0.0
H189 H 0.29331 0.49291 0.38302 0.0
H190 H 0.26627 0.5371 0.4078 0.0
H191 H 0.36168 0.54241 0.48517 0.0
H192 H 0.28319 0.49058 0.52472 0.0
H193 H 0.29858 0.51326 0.55718 0.0
H194 H 0.32342 0.4846 0.53732 0.0
H195 H 0.36612 0.51631 0.51942 0.0
H196 H 0.35643 0.557 0.52505 0.0
C197 C 0.26068 0.60179 0.41225 0.0
C198 C 0.21334 0.56849 0.43364 0.0
C199 C 0.31257 0.62486 0.6047 0.0
C200 C 0.33661 0.60804 0.62068 0.0
C201 C 0.34394 0.57766 0.60953 0.0
C202 C 0.32942 0.56524 0.58147 0.0
C203 C 0.30727 0.58333 0.56424 0.0
C204 C 0.29823 0.61204 0.5766 0.0
C205 C 0.27353 0.62739 0.55546 0.0
C206 C 0.271 0.60404 0.52725 0.0
C207 C 0.29101 0.57851 0.53247 0.0
C208 C 0.28675 0.65941 0.54381 0.0
C209 C 0.24237 0.62946 0.57568 0.0
C210 C 0.32529 0.48858 0.46002 0.0
C211 C 0.31967 0.48067 0.42698 0.0
C212 C 0.29796 0.49858 0.40859 0.0
C213 C 0.28236 0.52419 0.42301 0.0
C214 C 0.28895 0.53223 0.45597 0.0
C215 C 0.31005 0.51435 0.47382 0.0
C216 C 0.31622 0.52725 0.50758 0.0
C217 C 0.29503 0.55571 0.50744 0.0
C218 C 0.27889 0.55855 0.47729 0.0
C219 C 0.3519 0.53609 0.50978 0.0
C220 C 0.30506 0.50271 0.53324 0.0
H221 H 0.22221 0.66194 0.52627 0.0
H222 H 0.19683 0.63579 0.41001 0.0
H223 H 0.19426 0.56881 0.45256 0.0
H224 H 0.22245 0.54435 0.43368 0.0
H225 H 0.20231 0.57332 0.40933 0.0
H226 H 0.27191 0.6251 0.41607 0.0
H227 H 0.24692 0.60283 0.38896 0.0
H228 H 0.28062 0.58549 0.40903 0.0
H229 H 0.30616 0.64811 0.61283 0.0
H230 H 0.36162 0.56376 0.62205 0.0
H231 H 0.33677 0.54243 0.57367 0.0
H232 H 0.31165 0.65699 0.53525 0.0
H233 H 0.28645 0.67674 0.5642 0.0
H234 H 0.27369 0.66937 0.52281 0.0
H235 H 0.2421 0.6128 0.59676 0.0
H236 H 0.22134 0.62297 0.56082 0.0
H237 H 0.23895 0.65328 0.58599 0.0
H238 H 0.18609 0.69428 0.49643 0.0
C239 C 0.21736 0.65556 0.50126 0.0
C240 C 0.81348 0.84465 0.10636 0.0
C241 C 0.83781 0.8611 0.12252 0.0
C242 C 0.84584 0.89146 0.11176 0.0
C243 C 0.80643 0.88835 0.0688 0.0
C244 C 0.79798 0.85884 0.0797 0.0
C245 C 0.77127 0.84515 0.05975 0.0
H246 H 0.67931 0.85121 0.92377 0.0
C247 C 0.78714 0.8958 0.03963 0.0
C248 C 0.76642 0.87072 0.03412 0.0
H249 H 0.67602 0.78448 0.00419 0.0
H250 H 0.71679 0.81281 0.03233 0.0
H251 H 0.68177 0.91225 0.97404 0.0
H252 H 0.75469 0.86201 0.92166 0.0
H253 H 0.76255 0.90234 0.9185 0.0
H254 H 0.72676 0.88657 0.90076 0.0
H255 H 0.68512 0.91311 0.9299 0.0
H256 H 0.70778 0.93933 0.95549 0.0
C257 C 0.74203 0.84116 0.08261 0.0
C258 C 0.78302 0.81433 0.044 0.0
C259 C 0.81069 0.99529 0.97677 0.0
C260 C 0.80126 0.00675 0.94595 0.0
C261 C 0.77838 0.99003 0.92771 0.0
C262 C 0.76527 0.96208 0.9401 0.0
C263 C 0.77558 0.95057 0.97077 0.0
C264 C 0.79797 0.96723 0.98842 0.0
C265 C 0.80839 0.95058 0.01902 0.0
C266 C 0.78805 0.9214 0.01745 0.0
C267 C 0.76864 0.92148 0.98935 0.0
C268 C 0.79972 0.97126 0.04906 0.0
C269 C 0.84426 0.94318 0.01561 0.0
C270 C 0.68711 0.84275 0.94755 0.0
C271 C 0.67474 0.81488 0.96114 0.0
C272 C 0.68576 0.80506 0.99231 0.0
C273 C 0.7093 0.82176 0.00896 0.0
C274 C 0.72188 0.84895 0.99472 0.0
C275 C 0.71026 0.85958 0.96496 0.0
C276 C 0.72512 0.89028 0.95497 0.0
C277 C 0.74756 0.89605 0.98362 0.0
C278 C 0.74598 0.87129 0.00638 0.0
C279 C 0.69871 0.91519 0.95324 0.0
C280 C 0.74312 0.88534 0.92214 0.0
H281 H 0.83774 0.92821 0.07813 0.0
H282 H 0.80656 0.82146 0.11444 0.0
H283 H 0.80674 0.8178 0.0326 0.0
H284 H 0.76751 0.80569 0.02412 0.0
H285 H 0.78513 0.79562 0.06287 0.0
H286 H 0.74372 0.85616 0.10497 0.0
H287 H 0.73943 0.81659 0.09113 0.0
H288 H 0.71979 0.84854 0.07047 0.0
H289 H 0.82901 0.00704 0.99084 0.0
H290 H 0.77101 0.99836 0.90371 0.0
H291 H 0.74818 0.95018 0.92503 0.0
H292 H 0.77642 0.98276 0.04529 0.0
H293 H 0.81765 0.98998 0.0529 0.0
H294 H 0.79701 0.95775 0.07212 0.0
H295 H 0.85162 0.94165 0.98931 0.0
H296 H 0.85065 0.92016 0.026 0.0
H297 H 0.85905 0.96157 0.0274 0.0
H298 H 0.86472 0.90448 0.12362 0.0
C299 C 0.83028 0.90516 0.08514 0.0
C300 C 0.30539 0.15967 0.44857 0.0
C301 C 0.31734 0.18803 0.46132 0.0
C302 C 0.30138 0.20209 0.48808 0.0
C303 C 0.26371 0.15929 0.48993 0.0
C304 C 0.27856 0.14591 0.46306 0.0
C305 C 0.26222 0.11632 0.45204 0.0
H306 H 0.14275 0.0118 0.47306 0.0
C307 C 0.23704 0.13884 0.49972 0.0
C308 C 0.23591 0.11365 0.47748 0.0
H309 H 0.21214 0.01434 0.39468 0.0
H310 H 0.23721 0.05938 0.41979 0.0
H311 H 0.19112 0.02482 0.5314 0.0
H312 H 0.13008 0.08467 0.47528 0.0
H313 H 0.12655 0.09557 0.51691 0.0
H314 H 0.11593 0.05646 0.50465 0.0
H315 H 0.14976 0.02815 0.54061 0.0
H316 H 0.17878 0.05406 0.55883 0.0
C317 C 0.286 0.08901 0.45478 0.0
C318 C 0.24914 0.12169 0.41681 0.0
C319 C 0.17136 0.16499 0.60158 0.0
C320 C 0.147 0.14872 0.61795 0.0
C321 C 0.13616 0.12005 0.60499 0.0
C322 C 0.14928 0.10766 0.57619 0.0
C323 C 0.17372 0.12396 0.5601 0.0
C324 C 0.18463 0.15196 0.57294 0.0
C325 C 0.21186 0.16504 0.55321 0.0
C326 C 0.21518 0.14041 0.52635 0.0
C327 C 0.19255 0.11663 0.53041 0.0
C328 C 0.24129 0.16633 0.57594 0.0
C329 C 0.20174 0.19713 0.53902 0.0
C330 C 0.16366 0.02167 0.46155 0.0
C331 C 0.17543 0.00944 0.43181 0.0
C332 C 0.20239 0.02349 0.41741 0.0
C333 C 0.2169 0.04965 0.43202 0.0
C334 C 0.20424 0.06211 0.46126 0.0
C335 C 0.17824 0.04789 0.47566 0.0
C336 C 0.16757 0.06445 0.50636 0.0
C337 C 0.1909 0.09151 0.50758 0.0
C338 C 0.21243 0.08999 0.48123 0.0
C339 C 0.17172 0.04182 0.53594 0.0
C340 C 0.13318 0.07582 0.50087 0.0
H341 H 0.264 0.19976 0.52279 0.0
H342 H 0.31685 0.14812 0.42806 0.0
H343 H 0.24253 0.1466 0.41299 0.0
H344 H 0.22712 0.10845 0.41199 0.0
H345 H 0.26703 0.11559 0.3978 0.0
H346 H 0.29986 0.09085 0.47801 0.0
H347 H 0.303 0.08929 0.43387 0.0
H348 H 0.27436 0.06587 0.45573 0.0
H349 H 0.18031 0.18693 0.61124 0.0
H350 H 0.11724 0.10728 0.61712 0.0
H351 H 0.13984 0.08582 0.5676 0.0
H352 H 0.24202 0.14553 0.59241 0.0
H353 H 0.24088 0.18749 0.59182 0.0
H354 H 0.26387 0.16576 0.56228 0.0
H355 H 0.17605 0.19723 0.53297 0.0
H356 H 0.21371 0.20286 0.51554 0.0
H357 H 0.20613 0.21625 0.55701 0.0
H358 H 0.30923 0.22436 0.49789 0.0
C359 C 0.27485 0.18787 0.50246 0.0
C360 C 0.18026 0.98125 0.93978 0.0
C361 C 0.1627 0.00447 0.95612 0.0
C362 C 0.16316 0.0054 0.99091 0.0
C363 C 0.19284 0.95727 0.99231 0.0
C364 C 0.19537 0.95813 0.95839 0.0
C365 C 0.21445 0.93127 0.9452 0.0
H366 H 0.29403 0.79744 0.9743 0.0
C367 C 0.2075 0.92811 0.00401 0.0
C368 C 0.22088 0.91312 0.97666 0.0
H369 H 0.28502 0.8481 0.88232 0.0
H370 H 0.25238 0.8864 0.90907 0.0
H371 H 0.30099 0.85688 0.02437 0.0
H372 H 0.22192 0.80153 0.99148 0.0
H373 H 0.21164 0.81498 0.03091 0.0
H374 H 0.24548 0.78971 0.02596 0.0
H375 H 0.2955 0.81601 0.03321 0.0
H376 H 0.27762 0.84549 0.05864 0.0
C377 C 0.24523 0.94471 0.92972 0.0
C378 C 0.19343 0.91238 0.92097 0.0
C379 C 0.18381 0.89049 0.11975 0.0
C380 C 0.18825 0.86168 0.13568 0.0
C381 C 0.20693 0.83865 0.1203 0.0
C382 C 0.22023 0.84403 0.08903 0.0
C383 C 0.21421 0.87246 0.07276 0.0
C384 C 0.19651 0.89521 0.08833 0.0
C385 C 0.19039 0.92301 0.06663 0.0
C386 C 0.20679 0.91294 0.03511 0.0
C387 C 0.2209 0.88347 0.03889 0.0
C388 C 0.20645 0.95211 0.08228 0.0
C389 C 0.15406 0.92595 0.06221 0.0
C390 C 0.28476 0.81654 0.95973 0.0
C391 C 0.29265 0.81985 0.92613 0.0
C392 C 0.28009 0.84529 0.90836 0.0
C393 C 0.26101 0.86752 0.92392 0.0
C394 C 0.25399 0.8642 0.95757 0.0
C395 C 0.26537 0.8388 0.97483 0.0
C396 C 0.25427 0.83853 0.01014 0.0
C397 C 0.23618 0.86911 0.01165 0.0
C398 C 0.23601 0.88386 0.98073 0.0
C399 C 0.28354 0.8391 0.033 0.0
C400 C 0.23234 0.80969 0.01517 0.0
H401 H 0.17668 0.98329 0.0354 0.0
H402 H 0.18094 0.98004 0.91314 0.0
H403 H 0.16893 0.91002 0.93077 0.0
H404 H 0.20173 0.88821 0.91715 0.0
H405 H 0.192 0.92421 0.89664 0.0
H406 H 0.25193 0.96752 0.94102 0.0
H407 H 0.24244 0.94866 0.90282 0.0
H408 H 0.26598 0.92954 0.934 0.0
H409 H 0.16905 0.90838 0.13068 0.0
H410 H 0.21074 0.81632 0.13223 0.0
H411 H 0.23403 0.8256 0.07837 0.0
H412 H 0.2267 0.94542 0.09829 0.0
H413 H 0.18952 0.96547 0.09775 0.0
H414 H 0.2169 0.96791 0.06354 0.0
H415 H 0.14325 0.90262 0.05736 0.0
H416 H 0.1471 0.94067 0.04123 0.0
H417 H 0.14285 0.93563 0.08478 0.0
H418 H 0.15104 0.02378 0.0042 0.0
C419 C 0.1781 0.98192 0.00905 0.0
C420 C 0.7166 0.15268 0.43149 0.0
C421 C 0.7015 0.18014 0.44246 0.0
C422 C 0.70987 0.19251 0.47356 0.0
C423 C 0.74458 0.14876 0.48361 0.0
C424 C 0.73806 0.13744 0.4524 0.0
C425 C 0.7561 0.10785 0.44508 0.0
H426 H 0.84458 0.98861 0.50422 0.0
C427 C 0.7649 0.12597 0.5006 0.0
C428 C 0.77145 0.10167 0.47833 0.0
H429 H 0.82808 0.01231 0.40185 0.0
H430 H 0.7943 0.05484 0.41881 0.0
H431 H 0.86514 0.05463 0.5192 0.0
H432 H 0.77676 0.00747 0.53609 0.0
H433 H 0.7827 0.03169 0.57054 0.0
H434 H 0.81088 0.00116 0.56147 0.0
H435 H 0.85973 0.02653 0.55156 0.0
H436 H 0.85215 0.06748 0.55773 0.0
C437 C 0.78099 0.115 0.4179 0.0
C438 C 0.73247 0.08166 0.43562 0.0
C439 C 0.8018 0.14437 0.61866 0.0
C440 C 0.8174 0.12477 0.64125 0.0
C441 C 0.8218 0.093 0.63335 0.0
C442 C 0.81271 0.08128 0.60271 0.0
C443 C 0.79928 0.10152 0.57949 0.0
C444 C 0.79243 0.13203 0.58807 0.0
C445 C 0.77497 0.14878 0.56091 0.0
C446 C 0.7754 0.12409 0.5338 0.0
C447 C 0.79033 0.09685 0.54481 0.0
C448 C 0.7942 0.17817 0.55094 0.0
C449 C 0.74092 0.1559 0.57315 0.0
C450 C 0.83397 0.00281 0.48515 0.0
C451 C 0.83969 0.9969 0.45157 0.0
C452 C 0.82422 0.01582 0.42795 0.0
C453 C 0.80499 0.04095 0.43777 0.0
C454 C 0.80177 0.0478 0.47146 0.0
C455 C 0.8163 0.02887 0.49443 0.0
C456 C 0.815 0.04221 0.5286 0.0
C457 C 0.79739 0.07243 0.52238 0.0
C458 C 0.7888 0.07518 0.4891 0.0
C459 C 0.84961 0.04793 0.54025 0.0
C460 C 0.79556 0.0195 0.55058 0.0
H461 H 0.7361 0.18728 0.51768 0.0
H462 H 0.7111 0.14267 0.40766 0.0
H463 H 0.71328 0.07986 0.45433 0.0
H464 H 0.74379 0.05847 0.4342 0.0
H465 H 0.72141 0.08653 0.41134 0.0
H466 H 0.78552 0.14054 0.41525 0.0
H467 H 0.77312 0.10621 0.39347 0.0
H468 H 0.80443 0.10485 0.42374 0.0
H469 H 0.7975 0.1687 0.6245 0.0
H470 H 0.83378 0.07747 0.65032 0.0
H471 H 0.81764 0.05714 0.59783 0.0
H472 H 0.81969 0.1723 0.54806 0.0
H473 H 0.79226 0.19669 0.57003 0.0
H474 H 0.78664 0.18804 0.52707 0.0
H475 H 0.73403 0.14083 0.59438 0.0
H476 H 0.72282 0.15099 0.55409 0.0
H477 H 0.73866 0.18059 0.58131 0.0
H478 H 0.69968 0.21422 0.48223 0.0
C479 C 0.73111 0.17692 0.49418 0.0
Sc480 Sc 0.00232 0.78262 0.30583 0.0
Sc481 Sc 0.01099 0.86451 0.31251 0.0
Sc482 Sc 0.00716 0.81909 0.3842 0.0
O483 O 0.00686 0.82198 0.33419 0.0
C484 C 0.95583 0.76644 0.36518 0.0
C485 C 0.95941 0.83101 0.2669 0.0
C486 C 0.96224 0.87739 0.37097 0.0
C487 C 0.05498 0.82233 0.26696 0.0
C488 C 0.05031 0.76166 0.3627 0.0
C489 C 0.0574 0.87438 0.37347 0.0
O490 O 0.96402 0.76388 0.33516 0.0
O491 O 0.97422 0.85452 0.27813 0.0
O492 O 0.97153 0.85499 0.38921 0.0
O493 O 0.04033 0.79687 0.2731 0.0
O494 O 0.04267 0.78332 0.38268 0.0
O495 O 0.04802 0.88076 0.34457 0.0
O496 O 0.0371 0.75766 0.33479 0.0
O497 O 0.0473 0.84838 0.27971 0.0
O498 O 0.04476 0.85291 0.39074 0.0
O499 O 0.96662 0.803 0.27416 0.0
O500 O 0.96977 0.78468 0.38526 0.0
O501 O 0.97453 0.8839 0.34318 0.0
Sc502 Sc 0.99378 0.2116 0.81655 0.0
Sc503 Sc 0.98886 0.12892 0.81592 0.0
Sc504 Sc 0.98044 0.16884 0.89028 0.0
O505 O 0.98781 0.16992 0.84087 0.0
C506 C 0.03536 0.22008 0.88181 0.0
C507 C 0.04214 0.16781 0.77755 0.0
C508 C 0.02621 0.11042 0.88035 0.0
C509 C 0.94712 0.17315 0.76978 0.0
C510 C 0.94099 0.22905 0.86976 0.0
C511 C 0.93266 0.11594 0.86716 0.0
O512 O 0.02821 0.22771 0.85235 0.0
O513 O 0.02838 0.14281 0.78649 0.0
O514 O 0.01155 0.13013 0.89798 0.0
O515 O 0.95953 0.1989 0.77907 0.0
O516 O 0.94784 0.2067 0.88891 0.0
O517 O 0.94915 0.10928 0.84196 0.0
O518 O 0.9556 0.23432 0.84291 0.0
O519 O 0.9554 0.14658 0.78088 0.0
O520 O 0.93999 0.13803 0.88672 0.0
O521 O 0.03267 0.19481 0.78621 0.0
O522 O 0.02047 0.19934 0.89826 0.0
O523 O 0.02231 0.10796 0.8494 0.0
Sc524 Sc 0.50991 0.27779 0.30272 0.0
Sc525 Sc 0.5078 0.3599 0.29265 0.0
Sc526 Sc 0.50388 0.32764 0.37199 0.0
O527 O 0.50713 0.32168 0.32244 0.0
C528 C 0.45898 0.26851 0.36069 0.0
C529 C 0.46534 0.31185 0.25111 0.0
C530 C 0.45534 0.37912 0.3448 0.0
C531 C 0.56005 0.31666 0.25957 0.0
C532 C 0.55339 0.27144 0.36673 0.0
C533 C 0.55044 0.38361 0.35275 0.0
O534 O 0.47222 0.2599 0.33397 0.0
O535 O 0.47648 0.33884 0.2573 0.0
O536 O 0.46684 0.36204 0.36748 0.0
O537 O 0.54783 0.29082 0.26893 0.0
O538 O 0.53977 0.29358 0.382 0.0
O539 O 0.53966 0.38596 0.32366 0.0
O540 O 0.54609 0.2634 0.33746 0.0
O541 O 0.54861 0.34314 0.26711 0.0
O542 O 0.54057 0.36302 0.37297 0.0
O543 O 0.47392 0.28724 0.26615 0.0
O544 O 0.46753 0.29269 0.37664 0.0
O545 O 0.46703 0.38044 0.31593 0.0
Sc546 Sc 0.49536 0.71284 0.79958 0.0
Sc547 Sc 0.50514 0.63155 0.81085 0.0
Sc548 Sc 0.4834 0.67826 0.87786 0.0
O549 O 0.49461 0.67429 0.82939 0.0
C550 C 0.53072 0.7356 0.86474 0.0
C551 C 0.55459 0.67364 0.77231 0.0
C552 C 0.53683 0.62621 0.88152 0.0
C553 C 0.46329 0.66209 0.75359 0.0
C554 C 0.43745 0.72922 0.84675 0.0
C555 C 0.44518 0.61717 0.85697 0.0
O556 O 0.52507 0.73805 0.83399 0.0
O557 O 0.54672 0.64828 0.78641 0.0
O558 O 0.51915 0.64659 0.8946 0.0
O559 O 0.46555 0.69036 0.76319 0.0
O560 O 0.44556 0.71005 0.86893 0.0
O561 O 0.46392 0.61043 0.83342 0.0
O562 O 0.45327 0.73337 0.82049 0.0
O563 O 0.47728 0.63942 0.76751 0.0
O564 O 0.44897 0.6411 0.87524 0.0
O565 O 0.53772 0.69821 0.77363 0.0
O566 O 0.51747 0.71548 0.88346 0.0
O567 O 0.53519 0.61871 0.85134 0.0
H568 H 0.15926 0.26247 0.95581 0.0
H569 H 0.12909 0.35268 0.91962 0.0
H570 H 0.08444 0.3282 0.89193 0.0
H571 H 0.05298 0.2812 0.87853 0.0
H572 H 0.0795 0.1924 0.92035 0.0
H573 H 0.12595 0.21647 0.94598 0.0
C574 C 0.14274 0.27704 0.94243 0.0
C575 C 0.14816 0.30949 0.93971 0.0
C576 C 0.1162 0.26302 0.92759 0.0
C577 C 0.12642 0.32756 0.92156 0.0
C578 C 0.10052 0.31363 0.9059 0.0
C579 C 0.06903 0.26721 0.89323 0.0
C580 C 0.06303 0.23512 0.89745 0.0
C581 C 0.09518 0.28138 0.9087 0.0
C582 C 0.08365 0.21721 0.9169 0.0
C583 C 0.11023 0.23093 0.93147 0.0
H584 H 0.83335 0.68676 0.39933 0.0
H585 H 0.87313 0.69575 0.49693 0.0
H586 H 0.91761 0.72529 0.47483 0.0
H587 H 0.94474 0.74975 0.42845 0.0
H588 H 0.90735 0.73937 0.33011 0.0
H589 H 0.86274 0.70885 0.35179 0.0
C590 C 0.85194 0.69486 0.41568 0.0
C591 C 0.84948 0.6895 0.44986 0.0
C592 C 0.87789 0.71166 0.40273 0.0
C593 C 0.87386 0.70023 0.47066 0.0
C594 C 0.89949 0.71699 0.45804 0.0
C595 C 0.92682 0.74089 0.4117 0.0
C596 C 0.92922 0.74712 0.37777 0.0
C597 C 0.90154 0.72317 0.42423 0.0
C598 C 0.90605 0.73495 0.35638 0.0
C599 C 0.88051 0.71754 0.36876 0.0
H600 H 0.82277 0.29487 0.93218 0.0
H601 H 0.87159 0.37714 0.89668 0.0
H602 H 0.91168 0.3443 0.87066 0.0
H603 H 0.9349 0.29202 0.86122 0.0
H604 H 0.88755 0.21065 0.90081 0.0
H605 H 0.84507 0.2433 0.92219 0.0
C606 C 0.84231 0.30569 0.919 0.0
C607 C 0.84425 0.33842 0.91665 0.0
C608 C 0.86564 0.28678 0.90486 0.0
C609 C 0.86933 0.35197 0.89869 0.0
C610 C 0.8924 0.33322 0.88396 0.0
C611 C 0.91504 0.28154 0.87417 0.0
C612 C 0.91433 0.2491 0.87958 0.0
C613 C 0.89103 0.30058 0.88724 0.0
C614 C 0.88868 0.23567 0.89663 0.0
C615 C 0.86439 0.25428 0.90886 0.0
H616 H 0.14224 0.65352 0.40646 0.0
H617 H 0.18879 0.73185 0.45338 0.0
H618 H 0.15031 0.76751 0.42973 0.0
H619 H 0.10167 0.77627 0.39877 0.0
H620 H 0.05615 0.69928 0.34888 0.0
H621 H 0.09637 0.66332 0.3701 0.0
C622 C 0.1443 0.67843 0.41101 0.0
C623 C 0.16795 0.68984 0.43235 0.0
C624 C 0.12223 0.69903 0.39694 0.0
C625 C 0.17026 0.72227 0.4379 0.0
C626 C 0.14838 0.74276 0.42424 0.0
C627 C 0.10065 0.75162 0.39244 0.0
C628 C 0.07584 0.74028 0.37276 0.0
C629 C 0.12389 0.73132 0.40437 0.0
C630 C 0.07507 0.70847 0.36412 0.0
C631 C 0.09797 0.68793 0.37632 0.0
H632 H 0.62684 0.83536 0.92076 0.0
H633 H 0.66828 0.75114 0.96068 0.0
H634 H 0.62661 0.71993 0.93575 0.0
H635 H 0.57805 0.71617 0.90331 0.0
H636 H 0.53956 0.79864 0.85768 0.0
H637 H 0.5809 0.83091 0.88356 0.0
C638 C 0.62718 0.81016 0.92362 0.0
C639 C 0.65047 0.79589 0.94337 0.0
C640 C 0.60364 0.792 0.90819 0.0
C641 C 0.65016 0.76309 0.94672 0.0
C642 C 0.62646 0.74506 0.93218 0.0
C643 C 0.57875 0.74125 0.89914 0.0
C644 C 0.55573 0.75525 0.8792 0.0
C645 C 0.60294 0.75928 0.91321 0.0
C646 C 0.5571 0.78755 0.87319 0.0
C647 C 0.58065 0.8059 0.88797 0.0
H648 H 0.33659 0.19003 0.39658 0.0
H649 H 0.364 0.2195 0.49443 0.0
H650 H 0.40963 0.24689 0.47184 0.0
H651 H 0.44137 0.26349 0.42455 0.0
H652 H 0.41685 0.23156 0.32697 0.0
H653 H 0.37095 0.20344 0.34938 0.0
C654 C 0.35274 0.20201 0.41309 0.0
C655 C 0.34631 0.20304 0.44721 0.0
C656 C 0.37957 0.21724 0.40001 0.0
C657 C 0.36761 0.21898 0.46801 0.0
C658 C 0.39397 0.23448 0.45515 0.0
C659 C 0.426 0.25035 0.40815 0.0
C660 C 0.43233 0.24984 0.37412 0.0
C661 C 0.39999 0.23403 0.42121 0.0
C662 C 0.4125 0.23228 0.35328 0.0
C663 C 0.38621 0.21631 0.36607 0.0
H664 H 0.33798 0.83296 0.88011 0.0
H665 H 0.29737 0.7566 0.93598 0.0
H666 H 0.33761 0.72139 0.91448 0.0
H667 H 0.38637 0.7132 0.88306 0.0
H668 H 0.42574 0.78863 0.82523 0.0
H669 H 0.38298 0.8231 0.84334 0.0
C670 C 0.33735 0.80847 0.88704 0.0
C671 C 0.31488 0.79766 0.91012 0.0
C672 C 0.36026 0.78818 0.87418 0.0
C673 C 0.31486 0.76585 0.919 0.0
C674 C 0.33771 0.74559 0.90652 0.0
C675 C 0.38538 0.73711 0.87414 0.0
C676 C 0.40932 0.74855 0.85322 0.0
C677 C 0.3609 0.75669 0.88468 0.0
C678 C 0.40753 0.77935 0.84137 0.0
C679 C 0.38324 0.79908 0.85189 0.0
H680 H 0.64752 0.20672 0.46518 0.0
H681 H 0.69782 0.18704 0.3749 0.0
H682 H 0.65558 0.21185 0.34313 0.0
H683 H 0.60485 0.24087 0.34129 0.0
H684 H 0.55757 0.26311 0.4327 0.0
H685 H 0.59849 0.23612 0.46366 0.0
C686 C 0.64968 0.20825 0.43859 0.0
C687 C 0.67609 0.19523 0.42261 0.0
C688 C 0.62579 0.22313 0.42061 0.0
C689 C 0.67771 0.19663 0.38797 0.0
C690 C 0.65363 0.21099 0.36976 0.0
C691 C 0.6035 0.23961 0.36796 0.0
C692 C 0.57822 0.25403 0.38465 0.0
C693 C 0.62758 0.22448 0.38584 0.0
C694 C 0.57689 0.25245 0.41924 0.0
C695 C 0.60025 0.23695 0.43701 0.0
H696 H 0.34528 0.50844 0.87629 0.0
H697 H 0.32023 0.56565 0.95969 0.0
H698 H 0.35754 0.60615 0.94165 0.0
H699 H 0.40107 0.62245 0.90566 0.0
H700 H 0.42831 0.56384 0.82372 0.0
H701 H 0.38633 0.52679 0.83762 0.0
C702 C 0.34746 0.53019 0.88991 0.0
C703 C 0.33007 0.53432 0.91908 0.0
C704 C 0.36974 0.55279 0.88002 0.0
C705 C 0.33339 0.5622 0.93704 0.0
C706 C 0.35484 0.58518 0.92687 0.0
C707 C 0.39775 0.60172 0.89063 0.0
C708 C 0.4182 0.59582 0.86394 0.0
C709 C 0.37382 0.58028 0.89898 0.0
C710 C 0.41322 0.56889 0.84463 0.0
C711 C 0.38915 0.54766 0.85252 0.0
H712 H 0.64788 0.49305 0.38095 0.0
H713 H 0.66655 0.43587 0.46628 0.0
H714 H 0.62887 0.39658 0.4467 0.0
H715 H 0.58816 0.38005 0.40717 0.0
H716 H 0.56951 0.43725 0.32168 0.0
H717 H 0.60966 0.47473 0.33941 0.0
C718 C 0.64418 0.47168 0.39487 0.0
C719 C 0.65985 0.46745 0.42508 0.0
C720 C 0.62216 0.44933 0.38367 0.0
C721 C 0.65452 0.43979 0.44308 0.0
C722 C 0.63294 0.41735 0.43194 0.0
C723 C 0.59286 0.40069 0.39238 0.0
C724 C 0.57552 0.40589 0.36331 0.0
C725 C 0.6161 0.42219 0.40264 0.0
C726 C 0.58233 0.43262 0.34425 0.0
C727 C 0.60534 0.45413 0.35435 0.0
H728 H 0.61106 0.54517 0.98384 0.0
H729 H 0.68663 0.55997 0.9135 0.0
H730 H 0.65136 0.59122 0.87943 0.0
H731 H 0.59819 0.61275 0.86854 0.0
H732 H 0.52514 0.60256 0.9421 0.0
H733 H 0.56076 0.57174 0.97657 0.0
C734 C 0.62037 0.55586 0.96162 0.0
C735 C 0.65157 0.54968 0.95129 0.0
C736 C 0.60033 0.57461 0.94263 0.0
C737 C 0.66256 0.56345 0.92184 0.0
C738 C 0.64245 0.58157 0.90236 0.0
C739 C 0.59028 0.60383 0.89221 0.0
C740 C 0.55917 0.60945 0.90277 0.0
C741 C 0.61113 0.58686 0.91226 0.0
C742 C 0.54908 0.59838 0.93361 0.0
C743 C 0.56937 0.58075 0.95323 0.0
H744 H 0.35141 0.48233 0.3686 0.0
H745 H 0.33114 0.42264 0.45179 0.0
H746 H 0.37033 0.38497 0.43259 0.0
H747 H 0.41378 0.37155 0.3953 0.0
H748 H 0.4344 0.43099 0.31191 0.0
H749 H 0.39144 0.46599 0.32785 0.0
C750 C 0.35503 0.4607 0.38203 0.0
C751 C 0.33864 0.45539 0.41171 0.0
C752 C 0.37796 0.43932 0.37109 0.0
C753 C 0.34376 0.42739 0.42906 0.0
C754 C 0.3662 0.40589 0.41815 0.0
C755 C 0.4088 0.39208 0.38049 0.0
C756 C 0.42762 0.39888 0.35276 0.0
C757 C 0.38411 0.41209 0.38977 0.0
C758 C 0.42042 0.42527 0.3335 0.0
C759 C 0.39587 0.44534 0.34262 0.0
H760 H 0.82892 0.01115 0.88593 0.0
H761 H 0.81274 0.06292 0.97551 0.0
H762 H 0.85036 0.10314 0.95766 0.0
H763 H 0.8923 0.12014 0.91966 0.0
H764 H 0.90952 0.06712 0.83079 0.0
H765 H 0.86693 0.03112 0.84518 0.0
C766 C 0.83298 0.03171 0.90106 0.0
C767 C 0.81824 0.03408 0.93199 0.0
C768 C 0.85525 0.05426 0.89105 0.0
C769 C 0.82401 0.06059 0.95164 0.0
C770 C 0.84561 0.08347 0.94152 0.0
C771 C 0.88657 0.10092 0.90324 0.0
C772 C 0.90457 0.09614 0.87448 0.0
C773 C 0.86218 0.07999 0.91179 0.0
C774 C 0.89645 0.07123 0.85335 0.0
C775 C 0.87201 0.05057 0.8615 0.0
H776 H 0.15006 0.95687 0.45957 0.0
H777 H 0.16177 0.00404 0.36626 0.0
H778 H 0.12843 0.96485 0.33946 0.0
H779 H 0.09236 0.91996 0.3434 0.0
H780 H 0.07937 0.87348 0.43703 0.0
H781 H 0.11673 0.90967 0.46272 0.0
C782 C 0.14539 0.95851 0.43334 0.0
C783 C 0.15824 0.98352 0.41503 0.0
C784 C 0.12576 0.93616 0.41816 0.0
C785 C 0.15244 0.98494 0.38094 0.0
C786 C 0.13314 0.96267 0.36562 0.0
C787 C 0.09783 0.91751 0.36938 0.0
C788 C 0.08268 0.89416 0.38826 0.0
C789 C 0.11914 0.93857 0.38412 0.0
C790 C 0.09046 0.89126 0.42184 0.0
C791 C 0.1118 0.91202 0.43663 0.0
H792 H 0.10408 0.0232 0.97377 0.0
H793 H 0.17314 0.03257 0.89582 0.0
H794 H 0.13607 0.06453 0.86418 0.0
H795 H 0.0839 0.09045 0.85921 0.0
H796 H 0.01747 0.08362 0.93978 0.0
H797 H 0.05394 0.05029 0.97012 0.0
C798 C 0.11147 0.03274 0.95021 0.0
C799 C 0.14151 0.02565 0.93739 0.0
C800 C 0.0904 0.05143 0.93254 0.0
C801 C 0.15008 0.03745 0.90623 0.0
C802 C 0.12893 0.05581 0.88816 0.0
C803 C 0.07748 0.08139 0.8833 0.0
C804 C 0.04812 0.08922 0.89727 0.0
C805 C 0.09896 0.06288 0.90105 0.0
C806 C 0.04005 0.07787 0.92866 0.0
C807 C 0.06084 0.05886 0.946 0.0
H808 H 0.84229 0.96124 0.39503 0.0
H809 H 0.89326 0.97986 0.48547 0.0
H810 H 0.93305 0.94208 0.47023 0.0
H811 H 0.95572 0.90562 0.43004 0.0
H812 H 0.9099 0.8929 0.33617 0.0
H813 H 0.8664 0.9269 0.35353 0.0
C814 C 0.86217 0.95739 0.41137 0.0
C815 C 0.86394 0.97324 0.44177 0.0
C816 C 0.88626 0.93671 0.40169 0.0
C817 C 0.89009 0.96738 0.4625 0.0
C818 C 0.91336 0.94598 0.45363 0.0
C819 C 0.93601 0.91017 0.41361 0.0
C820 C 0.93567 0.89678 0.38212 0.0
C821 C 0.91184 0.93067 0.42323 0.0
C822 C 0.91046 0.90311 0.36062 0.0
C823 C 0.88566 0.9225 0.37053 0.0
H824 H 0.34696 0.32639 0.15947 0.0
H825 H 0.42059 0.35419 0.09167 0.0
H826 H 0.461 0.33845 0.13103 0.0
H827 H 0.47527 0.32425 0.18744 0.0
H828 H 0.40293 0.29599 0.25614 0.0
H829 H 0.36209 0.30399 0.21385 0.0
C830 C 0.37185 0.32816 0.15313 0.0
C831 C 0.38088 0.34194 0.12305 0.0
C832 C 0.39513 0.31934 0.17618 0.0
C833 C 0.41318 0.34412 0.11496 0.0
C834 C 0.43629 0.33518 0.13744 0.0
C835 C 0.4506 0.31909 0.19275 0.0
C836 C 0.44186 0.30967 0.22454 0.0
C837 C 0.42753 0.32394 0.16854 0.0
C838 C 0.40999 0.30308 0.23155 0.0
C839 C 0.38672 0.30788 0.20749 0.0
H840 H 0.64651 0.67179 0.65099 0.0
H841 H 0.67333 0.58495 0.697 0.0
H842 H 0.64185 0.59794 0.74561 0.0
H843 H 0.60081 0.6299 0.7709 0.0
H844 H 0.57112 0.71545 0.72381 0.0
H845 H 0.61025 0.70753 0.68021 0.0
C846 C 0.64609 0.6562 0.67209 0.0
C847 C 0.66183 0.62733 0.67043 0.0
C848 C 0.6272 0.66344 0.69956 0.0
C849 C 0.66104 0.60714 0.69772 0.0
C850 C 0.64303 0.61453 0.72543 0.0
C851 C 0.60319 0.64714 0.75141 0.0
C852 C 0.58258 0.67288 0.75029 0.0
C853 C 0.62502 0.64198 0.726 0.0
C854 C 0.58649 0.69527 0.72519 0.0
C855 C 0.60873 0.69066 0.7001 0.0
H856 H 0.66034 0.31314 0.14485 0.0
H857 H 0.68811 0.39951 0.1918 0.0
H858 H 0.65119 0.38943 0.23689 0.0
H859 H 0.60648 0.35984 0.25893 0.0
H860 H 0.57718 0.2738 0.21244 0.0
H861 H 0.61961 0.27958 0.17145 0.0
C862 C 0.65885 0.32925 0.16544 0.0
C863 C 0.67659 0.35721 0.1649 0.0
C864 C 0.63706 0.32356 0.19105 0.0
C865 C 0.67438 0.37804 0.19157 0.0
C866 C 0.65325 0.37233 0.21728 0.0
C867 C 0.60962 0.34213 0.24005 0.0
C868 C 0.58846 0.31674 0.23828 0.0
C869 C 0.63368 0.3458 0.2166 0.0
C870 C 0.59315 0.29363 0.21417 0.0
C871 C 0.61727 0.29704 0.19067 0.0
H872 H 0.39996 0.6048 0.62807 0.0
H873 H 0.31653 0.64511 0.67204 0.0
H874 H 0.34907 0.6688 0.71541 0.0
H875 H 0.40127 0.67515 0.74272 0.0
H876 H 0.48318 0.63093 0.70009 0.0
H877 H 0.45125 0.6116 0.6542 0.0
C878 C 0.38876 0.61843 0.64735 0.0
C879 C 0.35582 0.62276 0.64711 0.0
C880 C 0.40744 0.63141 0.67232 0.0
C881 C 0.34187 0.6414 0.67168 0.0
C882 C 0.36045 0.65487 0.69651 0.0
C883 C 0.41202 0.66175 0.72299 0.0
C884 C 0.44439 0.65455 0.72436 0.0
C885 C 0.39325 0.64977 0.69726 0.0
C886 C 0.45824 0.63673 0.69921 0.0
C887 C 0.44002 0.6256 0.67314 0.0
H888 H 0.8511 0.88807 0.18078 0.0
H889 H 0.86457 0.80289 0.12587 0.0
H890 H 0.90155 0.78395 0.16792 0.0
H891 H 0.93479 0.79483 0.21716 0.0
H892 H 0.92209 0.88196 0.26931 0.0
H893 H 0.88028 0.89694 0.23152 0.0
C894 C 0.86195 0.86523 0.17819 0.0
C895 C 0.8556 0.84709 0.15018 0.0
C896 C 0.88367 0.85503 0.20179 0.0
C897 C 0.86918 0.81726 0.14734 0.0
C898 C 0.8905 0.80657 0.17121 0.0
C899 C 0.92253 0.81685 0.22039 0.0
C900 C 0.93193 0.83749 0.24557 0.0
C901 C 0.89868 0.82571 0.19807 0.0
C902 C 0.91577 0.86594 0.24966 0.0
C903 C 0.89175 0.87452 0.22816 0.0
H904 H 0.14146 0.11852 0.67586 0.0
H905 H 0.12006 0.20598 0.62838 0.0
H906 H 0.08852 0.22212 0.67631 0.0
H907 H 0.06153 0.20792 0.72869 0.0
H908 H 0.08295 0.11937 0.77451 0.0
H909 H 0.12026 0.10729 0.73064 0.0
C910 C 0.13023 0.1413 0.67629 0.0
C911 C 0.13261 0.16089 0.64865 0.0
C912 C 0.11198 0.15012 0.70358 0.0
C913 C 0.11843 0.19054 0.64949 0.0
C914 C 0.10028 0.19965 0.67678 0.0
C915 C 0.07497 0.18638 0.72942 0.0
C916 C 0.06913 0.16438 0.75456 0.0
C917 C 0.09609 0.1792 0.70358 0.0
C918 C 0.08666 0.13649 0.75516 0.0
C919 C 0.10799 0.1295 0.73006 0.0
H920 H 0.15234 0.81055 0.14968 0.0
H921 H 0.18364 0.89872 0.19007 0.0
H922 H 0.14634 0.8931 0.23577 0.0
H923 H 0.10135 0.86594 0.26083 0.0
H924 H 0.06912 0.77802 0.22038 0.0
H925 H 0.11057 0.78054 0.1783 0.0
C926 C 0.15155 0.82809 0.16898 0.0
C927 C 0.17053 0.85511 0.16646 0.0
C928 C 0.1296 0.82498 0.19485 0.0
C929 C 0.16903 0.87787 0.19139 0.0
C930 C 0.14767 0.87471 0.21743 0.0
C931 C 0.10345 0.8472 0.24293 0.0
C932 C 0.08181 0.8221 0.24341 0.0
C933 C 0.12717 0.84887 0.2188 0.0
C934 C 0.08532 0.79773 0.22044 0.0
C935 C 0.10899 0.79917 0.19633 0.0
H936 H 0.85692 0.17469 0.64677 0.0
H937 H 0.81188 0.10154 0.70333 0.0
H938 H 0.84692 0.11237 0.7498 0.0
H939 H 0.895 0.13717 0.77091 0.0
H940 H 0.94084 0.21028 0.71514 0.0
H941 H 0.90067 0.20522 0.67173 0.0
C942 C 0.85415 0.16188 0.66969 0.0
C943 C 0.83216 0.13714 0.67163 0.0
C944 C 0.8749 0.16779 0.69605 0.0
C945 C 0.82888 0.1205 0.70129 0.0
C946 C 0.84901 0.12654 0.72774 0.0
C947 C 0.89597 0.15221 0.74937 0.0
C948 C 0.92106 0.17357 0.7457 0.0
C949 C 0.87293 0.14917 0.72481 0.0
C950 C 0.92178 0.1935 0.71822 0.0
C951 C 0.89889 0.19054 0.69344 0.0
loop_
_geom_bond_atom_site_label_1
_geom_bond_atom_site_label_2
_geom_bond_distance
_geom_bond_site_symmetry_2
_ccdc_geom_bond_type
C0 C1 1.391 . S
C0 C4 1.391 . S
C0 H42 0.948 . S
C1 C0 1.391 . S
C1 C2 1.391 . S
C2 C1 1.391 . S
C2 H58 0.947 . S
C2 C59 1.392 . S
C3 C4 1.391 . S
C3 C7 1.397 . S
C3 C59 1.419 . S
C4 C0 1.391 . S
C4 C3 1.391 . S
C4 C5 1.399 . S
C5 C4 1.399 . S
C5 C8 1.396 . S
C5 C17 1.453 . S
C5 C18 1.684 . S
H6 C30 0.948 . S
C7 C3 1.397 . S
C7 C8 1.394 . S
C7 C26 1.723 . S
C8 C5 1.396 . S
C8 C7 1.394 . S
C8 C38 1.723 . S
H9 C32 0.947 1_554 S
H10 C33 0.948 . S
H11 C39 0.982 . S
H12 C40 0.979 . S
H13 C40 0.980 . S
H14 C40 0.983 . S
H15 C39 0.979 . S
H16 C39 0.977 . S
C17 C5 1.453 . S
C17 H46 0.982 . S
C17 H47 0.979 . S
C17 H48 0.977 . S
C18 C5 1.684 . S
C18 H43 0.979 . S
C18 H44 0.980 . S
C18 H45 0.983 . S
C19 C20 1.391 . S
C19 C24 1.391 . S
C19 H49 0.948 . S
C20 C19 1.391 . S
C20 C21 1.391 . S
C21 C20 1.391 . S
C21 C22 1.392 . S
C21 H50 0.947 . S
C22 C21 1.392 . S
C22 C23 1.419 . S
C22 H51 0.948 . S
C23 C22 1.419 . S
C23 C24 1.391 . S
C23 C27 1.397 . S
C24 C19 1.391 . S
C24 C23 1.391 . S
C24 C25 1.399 1_556 S
C25 C24 1.399 1_554 S
C25 C26 1.396 . S
C25 C28 1.453 . S
C25 C29 1.684 . S
C26 C7 1.723 . S
C26 C25 1.396 . S
C26 C27 1.394 1_554 S
C27 C23 1.397 . S
C27 C26 1.394 1_556 S
C27 C37 1.723 . S
C28 C25 1.453 . S
C28 H52 0.982 . S
C28 H53 0.979 . S
C28 H54 0.977 . S
C29 C25 1.684 . S
C29 H55 0.979 . S
C29 H56 0.980 . S
C29 H57 0.983 . S
C30 H6 0.948 . S
C30 C31 1.391 . S
C30 C35 1.391 . S
C31 C30 1.391 . S
C31 C32 1.391 . S
C32 H9 0.947 1_556 S
C32 C31 1.391 . S
C32 C33 1.392 1_556 S
C33 H10 0.948 . S
C33 C32 1.392 1_554 S
C33 C34 1.419 1_554 S
C34 C33 1.419 1_556 S
C34 C35 1.391 . S
C34 C38 1.397 1_556 S
C35 C30 1.391 . S
C35 C34 1.391 . S
C35 C36 1.399 . S
C36 C35 1.399 . S
C36 C37 1.396 . S
C36 C39 1.453 . S
C36 C40 1.684 . S
C37 C27 1.723 . S
C37 C36 1.396 . S
C37 C38 1.394 1_556 S
C38 C8 1.723 . S
C38 C34 1.397 1_554 S
C38 C37 1.394 1_554 S
C39 H11 0.982 . S
C39 H15 0.979 . S
C39 H16 0.977 . S
C39 C36 1.453 . S
C40 H12 0.979 . S
C40 H13 0.980 . S
C40 H14 0.983 . S
C40 C36 1.684 . S
H41 C59 0.948 . S
H42 C0 0.948 . S
H43 C18 0.979 . S
H44 C18 0.980 . S
H45 C18 0.983 . S
H46 C17 0.982 . S
H47 C17 0.979 . S
H48 C17 0.977 . S
H49 C19 0.948 . S
H50 C21 0.947 . S
H51 C22 0.948 . S
H52 C28 0.982 . S
H53 C28 0.979 . S
H54 C28 0.977 . S
H55 C29 0.979 . S
H56 C29 0.980 . S
H57 C29 0.983 . S
H58 C2 0.947 . S
C59 C2 1.392 . S
C59 C3 1.419 . S
C59 H41 0.948 . S
C60 C61 1.391 . S
C60 C64 1.391 . S
C60 H102 0.948 . S
C61 C60 1.391 . S
C61 C62 1.391 . S
C62 C61 1.391 . S
C62 H118 0.947 . S
C62 C119 1.392 . S
C63 C64 1.391 . S
C63 C67 1.397 . S
C63 C119 1.419 . S
C64 C60 1.391 . S
C64 C63 1.391 . S
C64 C65 1.399 . S
C65 C64 1.399 . S
C65 C68 1.396 . S
C65 C77 1.453 . S
C65 C78 1.684 . S
H66 C90 0.948 . S
C67 C63 1.397 . S
C67 C68 1.394 . S
C67 C86 1.723 . S
C68 C65 1.396 . S
C68 C67 1.394 . S
C68 C98 1.723 . S
H69 C92 0.947 . S
H70 C93 0.948 . S
H71 C99 0.982 . S
H72 C100 0.979 . S
H73 C100 0.980 . S
H74 C100 0.983 . S
H75 C99 0.979 . S
H76 C99 0.977 . S
C77 C65 1.453 . S
C77 H106 0.982 . S
C77 H107 0.979 . S
C77 H108 0.977 . S
C78 C65 1.684 . S
C78 H103 0.979 . S
C78 H104 0.980 . S
C78 H105 0.983 . S
C79 C80 1.391 . S
C79 C84 1.391 . S
C79 H109 0.948 . S
C80 C79 1.391 . S
C80 C81 1.391 . S
C81 C80 1.391 . S
C81 C82 1.392 . S
C81 H110 0.947 . S
C82 C81 1.392 . S
C82 C83 1.419 . S
C82 H111 0.948 . S
C83 C82 1.419 . S
C83 C84 1.391 . S
C83 C87 1.397 . S
C84 C79 1.391 . S
C84 C83 1.391 . S
C84 C85 1.399 . S
C85 C84 1.399 . S
C85 C86 1.396 . S
C85 C88 1.453 . S
C85 C89 1.684 . S
C86 C67 1.723 . S
C86 C85 1.396 . S
C86 C87 1.394 . S
C87 C83 1.397 . S
C87 C86 1.394 . S
C87 C97 1.723 . S
C88 C85 1.453 . S
C88 H112 0.982 . S
C88 H113 0.979 . S
C88 H114 0.977 . S
C89 C85 1.684 . S
C89 H115 0.979 . S
C89 H116 0.980 . S
C89 H117 0.983 . S
C90 H66 0.948 . S
C90 C91 1.391 . S
C90 C95 1.391 . S
C91 C90 1.391 . S
C91 C92 1.391 . S
C92 H69 0.947 . S
C92 C91 1.391 . S
C92 C93 1.392 . S
C93 H70 0.948 . S
C93 C92 1.392 . S
C93 C94 1.419 . S
C94 C93 1.419 . S
C94 C95 1.391 . S
C94 C98 1.397 . S
C95 C90 1.391 . S
C95 C94 1.391 . S
C95 C96 1.399 . S
C96 C95 1.399 . S
C96 C97 1.396 . S
C96 C99 1.453 . S
C96 C100 1.684 . S
C97 C87 1.723 . S
C97 C96 1.396 . S
C97 C98 1.394 . S
C98 C68 1.723 . S
C98 C94 1.397 . S
C98 C97 1.394 . S
C99 H71 0.982 . S
C99 H75 0.979 . S
C99 H76 0.977 . S
C99 C96 1.453 . S
C100 H72 0.979 . S
C100 H73 0.980 . S
C100 H74 0.983 . S
C100 C96 1.684 . S
H101 C119 0.948 . S
H102 C60 0.948 . S
H103 C78 0.979 . S
H104 C78 0.980 . S
H105 C78 0.983 . S
H106 C77 0.982 . S
H107 C77 0.979 . S
H108 C77 0.977 . S
H109 C79 0.948 . S
H110 C81 0.947 . S
H111 C82 0.948 . S
H112 C88 0.982 . S
H113 C88 0.979 . S
H114 C88 0.977 . S
H115 C89 0.979 . S
H116 C89 0.980 . S
H117 C89 0.983 . S
H118 C62 0.947 . S
C119 C62 1.392 . S
C119 C63 1.419 . S
C119 H101 0.948 . S
C120 C121 1.391 . S
C120 C124 1.391 . S
C120 H162 0.948 . S
C121 C120 1.391 . S
C121 C122 1.391 . S
C122 C121 1.391 . S
C122 H178 0.947 . S
C122 C179 1.392 . S
C123 C124 1.391 . S
C123 C127 1.397 . S
C123 C179 1.419 . S
C124 C120 1.391 . S
C124 C123 1.391 . S
C124 C125 1.399 . S
C125 C124 1.399 . S
C125 C128 1.396 . S
C125 C137 1.453 . S
C125 C138 1.684 . S
H126 C150 0.948 . S
C127 C123 1.397 . S
C127 C128 1.394 . S
C127 C146 1.723 1_556 S
C128 C125 1.396 . S
C128 C127 1.394 . S
C128 C158 1.723 . S
H129 C152 0.947 . S
H130 C153 0.948 . S
H131 C159 0.982 . S
H132 C160 0.979 . S
H133 C160 0.980 . S
H134 C160 0.983 . S
H135 C159 0.979 . S
H136 C159 0.977 . S
C137 C125 1.453 . S
C137 H166 0.982 . S
C137 H167 0.979 . S
C137 H168 0.977 . S
C138 C125 1.684 . S
C138 H163 0.979 . S
C138 H164 0.980 . S
C138 H165 0.983 . S
C139 C140 1.391 . S
C139 C144 1.391 . S
C139 H169 0.948 . S
C140 C139 1.391 . S
C140 C141 1.391 . S
C141 C140 1.391 . S
C141 C142 1.392 . S
C141 H170 0.947 . S
C142 C141 1.392 . S
C142 C143 1.419 . S
C142 H171 0.948 . S
C143 C142 1.419 . S
C143 C144 1.391 . S
C143 C147 1.397 . S
C144 C139 1.391 . S
C144 C143 1.391 . S
C144 C145 1.399 . S
C145 C144 1.399 . S
C145 C146 1.396 . S
C145 C148 1.453 . S
C145 C149 1.684 . S
C146 C127 1.723 1_554 S
C146 C145 1.396 . S
C146 C147 1.394 . S
C147 C143 1.397 . S
C147 C146 1.394 . S
C147 C157 1.723 . S
C148 C145 1.453 . S
C148 H172 0.982 . S
C148 H173 0.979 . S
C148 H174 0.977 . S
C149 C145 1.684 . S
C149 H175 0.979 . S
C149 H176 0.980 . S
C149 H177 0.983 . S
C150 H126 0.948 . S
C150 C151 1.391 . S
C150 C155 1.391 . S
C151 C150 1.391 . S
C151 C152 1.391 . S
C152 H129 0.947 . S
C152 C151 1.391 . S
C152 C153 1.392 . S
C153 H130 0.948 . S
C153 C152 1.392 . S
C153 C154 1.419 . S
C154 C153 1.419 . S
C154 C155 1.391 . S
C154 C158 1.397 . S
C155 C150 1.391 . S
C155 C154 1.391 . S
C155 C156 1.399 1_556 S
C156 C155 1.399 1_554 S
C156 C157 1.396 . S
C156 C159 1.453 . S
C156 C160 1.684 . S
C157 C147 1.723 . S
C157 C156 1.396 . S
C157 C158 1.394 1_554 S
C158 C128 1.723 . S
C158 C154 1.397 . S
C158 C157 1.394 1_556 S
C159 H131 0.982 . S
C159 H135 0.979 . S
C159 H136 0.977 . S
C159 C156 1.453 . S
C160 H132 0.979 . S
C160 H133 0.980 . S
C160 H134 0.983 . S
C160 C156 1.684 . S
H161 C179 0.948 1_554 S
H162 C120 0.948 . S
H163 C138 0.979 . S
H164 C138 0.980 . S
H165 C138 0.983 . S
H166 C137 0.982 . S
H167 C137 0.979 . S
H168 C137 0.977 . S
H169 C139 0.948 . S
H170 C141 0.947 . S
H171 C142 0.948 . S
H172 C148 0.982 . S
H173 C148 0.979 . S
H174 C148 0.977 . S
H175 C149 0.979 . S
H176 C149 0.980 . S
H177 C149 0.983 . S
H178 C122 0.947 . S
C179 C122 1.392 . S
C179 C123 1.419 . S
C179 H161 0.948 1_556 S
C180 C181 1.391 . S
C180 C184 1.391 . S
C180 H222 0.948 . S
C181 C180 1.391 . S
C181 C182 1.391 . S
C182 C181 1.391 . S
C182 H238 0.947 . S
C182 C239 1.392 . S
C183 C184 1.391 . S
C183 C187 1.397 . S
C183 C239 1.419 . S
C184 C180 1.391 . S
C184 C183 1.391 . S
C184 C185 1.399 . S
C185 C184 1.399 . S
C185 C188 1.396 . S
C185 C197 1.453 . S
C185 C198 1.684 . S
H186 C210 0.948 . S
C187 C183 1.397 . S
C187 C188 1.394 . S
C187 C206 1.723 . S
C188 C185 1.396 . S
C188 C187 1.394 . S
C188 C218 1.723 . S
H189 C212 0.947 . S
H190 C213 0.948 . S
H191 C219 0.982 . S
H192 C220 0.979 . S
H193 C220 0.980 . S
H194 C220 0.983 . S
H195 C219 0.979 . S
H196 C219 0.977 . S
C197 C185 1.453 . S
C197 H226 0.982 . S
C197 H227 0.979 . S
C197 H228 0.977 . S
C198 C185 1.684 . S
C198 H223 0.979 . S
C198 H224 0.980 . S
C198 H225 0.983 . S
C199 C200 1.391 . S
C199 C204 1.391 . S
C199 H229 0.948 . S
C200 C199 1.391 . S
C200 C201 1.391 . S
C201 C200 1.391 . S
C201 C202 1.392 . S
C201 H230 0.947 . S
C202 C201 1.392 . S
C202 C203 1.419 . S
C202 H231 0.948 . S
C203 C202 1.419 . S
C203 C204 1.391 . S
C203 C207 1.397 . S
C204 C199 1.391 . S
C204 C203 1.391 . S
C204 C205 1.399 . S
C205 C204 1.399 . S
C205 C206 1.396 . S
C205 C208 1.453 . S
C205 C209 1.684 . S
C206 C187 1.723 . S
C206 C205 1.396 . S
C206 C207 1.394 . S
C207 C203 1.397 . S
C207 C206 1.394 . S
C207 C217 1.723 . S
C208 C205 1.453 . S
C208 H232 0.982 . S
C208 H233 0.979 . S
C208 H234 0.977 . S
C209 C205 1.684 . S
C209 H235 0.979 . S
C209 H236 0.980 . S
C209 H237 0.983 . S
C210 H186 0.948 . S
C210 C211 1.391 . S
C210 C215 1.391 . S
C211 C210 1.391 . S
C211 C212 1.391 . S
C212 H189 0.947 . S
C212 C211 1.391 . S
C212 C213 1.392 . S
C213 H190 0.948 . S
C213 C212 1.392 . S
C213 C214 1.419 . S
C214 C213 1.419 . S
C214 C215 1.391 . S
C214 C218 1.397 . S
C215 C210 1.391 . S
C215 C214 1.391 . S
C215 C216 1.399 . S
C216 C215 1.399 . S
C216 C217 1.396 . S
C216 C219 1.453 . S
C216 C220 1.684 . S
C217 C207 1.723 . S
C217 C216 1.396 . S
C217 C218 1.394 . S
C218 C188 1.723 . S
C218 C214 1.397 . S
C218 C217 1.394 . S
C219 H191 0.982 . S
C219 H195 0.979 . S
C219 H196 0.977 . S
C219 C216 1.453 . S
C220 H192 0.979 . S
C220 H193 0.980 . S
C220 H194 0.983 . S
C220 C216 1.684 . S
H221 C239 0.948 . S
H222 C180 0.948 . S
H223 C198 0.979 . S
H224 C198 0.980 . S
H225 C198 0.983 . S
H226 C197 0.982 . S
H227 C197 0.979 . S
H228 C197 0.977 . S
H229 C199 0.948 . S
H230 C201 0.947 . S
H231 C202 0.948 . S
H232 C208 0.982 . S
H233 C208 0.979 . S
H234 C208 0.977 . S
H235 C209 0.979 . S
H236 C209 0.980 . S
H237 C209 0.983 . S
H238 C182 0.947 . S
C239 C182 1.392 . S
C239 C183 1.419 . S
C239 H221 0.948 . S
C240 C241 1.391 . S
C240 C244 1.391 . S
C240 H282 0.948 . S
C241 C240 1.391 . S
C241 C242 1.391 . S
C242 C241 1.391 . S
C242 H298 0.947 . S
C242 C299 1.392 . S
C243 C244 1.391 . S
C243 C247 1.397 . S
C243 C299 1.419 . S
C244 C240 1.391 . S
C244 C243 1.391 . S
C244 C245 1.399 . S
C245 C244 1.399 . S
C245 C248 1.396 . S
C245 C257 1.453 . S
C245 C258 1.684 . S
H246 C270 0.948 . S
C247 C243 1.397 . S
C247 C248 1.394 . S
C247 C266 1.723 . S
C248 C245 1.396 . S
C248 C247 1.394 . S
C248 C278 1.723 . S
H249 C272 0.947 1_554 S
H250 C273 0.948 . S
H251 C279 0.982 . S
H252 C280 0.979 . S
H253 C280 0.980 . S
H254 C280 0.983 . S
H255 C279 0.979 . S
H256 C279 0.977 . S
C257 C245 1.453 . S
C257 H286 0.982 . S
C257 H287 0.979 . S
C257 H288 0.977 . S
C258 C245 1.684 . S
C258 H283 0.979 . S
C258 H284 0.980 . S
C258 H285 0.983 . S
C259 C260 1.391 1_565 S
C259 C264 1.391 . S
C259 H289 0.948 1_565 S
C260 C259 1.391 1_545 S
C260 C261 1.391 1_545 S
C261 C260 1.391 1_565 S
C261 C262 1.392 . S
C261 H290 0.947 . S
C262 C261 1.392 . S
C262 C263 1.419 . S
C262 H291 0.948 . S
C263 C262 1.419 . S
C263 C264 1.391 . S
C263 C267 1.397 . S
C264 C259 1.391 . S
C264 C263 1.391 . S
C264 C265 1.399 1_556 S
C265 C264 1.399 1_554 S
C265 C266 1.396 . S
C265 C268 1.453 . S
C265 C269 1.684 . S
C266 C247 1.723 . S
C266 C265 1.396 . S
C266 C267 1.394 1_554 S
C267 C263 1.397 . S
C267 C266 1.394 1_556 S
C267 C277 1.723 . S
C268 C265 1.453 . S
C268 H292 0.982 . S
C268 H293 0.979 . S
C268 H294 0.977 . S
C269 C265 1.684 . S
C269 H295 0.979 . S
C269 H296 0.980 . S
C269 H297 0.983 . S
C270 H246 0.948 . S
C270 C271 1.391 . S
C270 C275 1.391 . S
C271 C270 1.391 . S
C271 C272 1.391 . S
C272 H249 0.947 1_556 S
C272 C271 1.391 . S
C272 C273 1.392 1_556 S
C273 H250 0.948 . S
C273 C272 1.392 1_554 S
C273 C274 1.419 1_554 S
C274 C273 1.419 1_556 S
C274 C275 1.391 . S
C274 C278 1.397 1_556 S
C275 C270 1.391 . S
C275 C274 1.391 . S
C275 C276 1.399 . S
C276 C275 1.399 . S
C276 C277 1.396 . S
C276 C279 1.453 . S
C276 C280 1.684 . S
C277 C267 1.723 . S
C277 C276 1.396 . S
C277 C278 1.394 1_556 S
C278 C248 1.723 . S
C278 C274 1.397 1_554 S
C278 C277 1.394 1_554 S
C279 H251 0.982 . S
C279 H255 0.979 . S
C279 H256 0.977 . S
C279 C276 1.453 . S
C280 H252 0.979 . S
C280 H253 0.980 . S
C280 H254 0.983 . S
C280 C276 1.684 . S
H281 C299 0.948 . S
H282 C240 0.948 . S
H283 C258 0.979 . S
H284 C258 0.980 . S
H285 C258 0.983 . S
H286 C257 0.982 . S
H287 C257 0.979 . S
H288 C257 0.977 . S
H289 C259 0.948 1_545 S
H290 C261 0.947 . S
H291 C262 0.948 . S
H292 C268 0.982 . S
H293 C268 0.979 . S
H294 C268 0.977 . S
H295 C269 0.979 . S
H296 C269 0.980 . S
H297 C269 0.983 . S
H298 C242 0.947 . S
C299 C242 1.392 . S
C299 C243 1.419 . S
C299 H281 0.948 . S
C300 C301 1.391 . S
C300 C304 1.391 . S
C300 H342 0.948 . S
C301 C300 1.391 . S
C301 C302 1.391 . S
C302 C301 1.391 . S
C302 H358 0.947 . S
C302 C359 1.392 . S
C303 C304 1.391 . S
C303 C307 1.397 . S
C303 C359 1.419 . S
C304 C300 1.391 . S
C304 C303 1.391 . S
C304 C305 1.399 . S
C305 C304 1.399 . S
C305 C308 1.396 . S
C305 C317 1.453 . S
C305 C318 1.684 . S
H306 C330 0.948 1_565 S
C307 C303 1.397 . S
C307 C308 1.394 . S
C307 C326 1.723 . S
C308 C305 1.396 . S
C308 C307 1.394 . S
C308 C338 1.723 . S
H309 C332 0.947 . S
H310 C333 0.948 . S
H311 C339 0.982 . S
H312 C340 0.979 . S
H313 C340 0.980 . S
H314 C340 0.983 . S
H315 C339 0.979 . S
H316 C339 0.977 . S
C317 C305 1.453 . S
C317 H346 0.982 . S
C317 H347 0.979 . S
C317 H348 0.977 . S
C318 C305 1.684 . S
C318 H343 0.979 . S
C318 H344 0.980 . S
C318 H345 0.983 . S
C319 C320 1.391 . S
C319 C324 1.391 . S
C319 H349 0.948 . S
C320 C319 1.391 . S
C320 C321 1.391 . S
C321 C320 1.391 . S
C321 C322 1.392 . S
C321 H350 0.947 . S
C322 C321 1.392 . S
C322 C323 1.419 . S
C322 H351 0.948 . S
C323 C322 1.419 . S
C323 C324 1.391 . S
C323 C327 1.397 . S
C324 C319 1.391 . S
C324 C323 1.391 . S
C324 C325 1.399 . S
C325 C324 1.399 . S
C325 C326 1.396 . S
C325 C328 1.453 . S
C325 C329 1.684 . S
C326 C307 1.723 . S
C326 C325 1.396 . S
C326 C327 1.394 . S
C327 C323 1.397 . S
C327 C326 1.394 . S
C327 C337 1.723 . S
C328 C325 1.453 . S
C328 H352 0.982 . S
C328 H353 0.979 . S
C328 H354 0.977 . S
C329 C325 1.684 . S
C329 H355 0.979 . S
C329 H356 0.980 . S
C329 H357 0.983 . S
C330 H306 0.948 1_545 S
C330 C331 1.391 1_545 S
C330 C335 1.391 . S
C331 C330 1.391 1_565 S
C331 C332 1.391 1_565 S
C332 H309 0.947 . S
C332 C331 1.391 1_545 S
C332 C333 1.392 . S
C333 H310 0.948 . S
C333 C332 1.392 . S
C333 C334 1.419 . S
C334 C333 1.419 . S
C334 C335 1.391 . S
C334 C338 1.397 . S
C335 C330 1.391 . S
C335 C334 1.391 . S
C335 C336 1.399 . S
C336 C335 1.399 . S
C336 C337 1.396 . S
C336 C339 1.453 . S
C336 C340 1.684 . S
C337 C327 1.723 . S
C337 C336 1.396 . S
C337 C338 1.394 . S
C338 C308 1.723 . S
C338 C334 1.397 . S
C338 C337 1.394 . S
C339 H311 0.982 . S
C339 H315 0.979 . S
C339 H316 0.977 . S
C339 C336 1.453 . S
C340 H312 0.979 . S
C340 H313 0.980 . S
C340 H314 0.983 . S
C340 C336 1.684 . S
H341 C359 0.948 . S
H342 C300 0.948 . S
H343 C318 0.979 . S
H344 C318 0.980 . S
H345 C318 0.983 . S
H346 C317 0.982 . S
H347 C317 0.979 . S
H348 C317 0.977 . S
H349 C319 0.948 . S
H350 C321 0.947 . S
H351 C322 0.948 . S
H352 C328 0.982 . S
H353 C328 0.979 . S
H354 C328 0.977 . S
H355 C329 0.979 . S
H356 C329 0.980 . S
H357 C329 0.983 . S
H358 C302 0.947 . S
C359 C302 1.392 . S
C359 C303 1.419 . S
C359 H341 0.948 . S
C360 C361 1.391 1_565 S
C360 C364 1.391 . S
C360 H402 0.948 . S
C361 C360 1.391 1_545 S
C361 C362 1.397 . S
C362 C361 1.397 . S
C362 H418 0.964 . S
C362 C419 1.370 1_545 S
C363 C364 1.391 . S
C363 C367 1.397 . S
C363 C419 1.419 . S
C364 C360 1.391 . S
C364 C363 1.391 . S
C364 C365 1.399 . S
C365 C364 1.399 . S
C365 C368 1.396 . S
C365 C377 1.453 . S
C365 C378 1.684 . S
H366 C390 0.948 . S
C367 C363 1.397 . S
C367 C368 1.394 . S
C367 C386 1.723 1_556 S
C368 C365 1.396 . S
C368 C367 1.394 . S
C368 C398 1.723 . S
H369 C392 0.947 . S
H370 C393 0.948 . S
H371 C399 0.982 . S
H372 C400 0.979 . S
H373 C400 0.980 . S
H374 C400 0.983 . S
H375 C399 0.979 . S
H376 C399 0.977 . S
C377 C365 1.453 . S
C377 H406 0.982 . S
C377 H407 0.979 . S
C377 H408 0.977 . S
C378 C365 1.684 . S
C378 H403 0.979 . S
C378 H404 0.980 . S
C378 H405 0.983 . S
C379 C380 1.391 . S
C379 C384 1.391 . S
C379 H409 0.948 . S
C380 C379 1.391 . S
C380 C381 1.391 . S
C381 C380 1.391 . S
C381 C382 1.392 . S
C381 H410 0.947 . S
C382 C381 1.392 . S
C382 C383 1.419 . S
C382 H411 0.948 . S
C383 C382 1.419 . S
C383 C384 1.391 . S
C383 C387 1.397 . S
C384 C379 1.391 . S
C384 C383 1.391 . S
C384 C385 1.399 . S
C385 C384 1.399 . S
C385 C386 1.396 . S
C385 C388 1.453 . S
C385 C389 1.684 . S
C386 C367 1.723 1_554 S
C386 C385 1.396 . S
C386 C387 1.394 . S
C387 C383 1.397 . S
C387 C386 1.394 . S
C387 C397 1.723 . S
C388 C385 1.453 . S
C388 H412 0.982 . S
C388 H413 0.979 . S
C388 H414 0.977 . S
C389 C385 1.684 . S
C389 H415 0.979 . S
C389 H416 0.980 . S
C389 H417 0.983 . S
C390 H366 0.948 . S
C390 C391 1.391 . S
C390 C395 1.391 . S
C391 C390 1.391 . S
C391 C392 1.391 . S
C392 H369 0.947 . S
C392 C391 1.391 . S
C392 C393 1.392 . S
C393 H370 0.948 . S
C393 C392 1.392 . S
C393 C394 1.419 . S
C394 C393 1.419 . S
C394 C395 1.391 . S
C394 C398 1.397 . S
C395 C390 1.391 . S
C395 C394 1.391 . S
C395 C396 1.399 1_556 S
C396 C395 1.399 1_554 S
C396 C397 1.396 . S
C396 C399 1.453 . S
C396 C400 1.684 . S
C397 C387 1.723 . S
C397 C396 1.396 . S
C397 C398 1.394 1_554 S
C398 C368 1.723 . S
C398 C394 1.397 . S
C398 C397 1.394 1_556 S
C399 H371 0.982 . S
C399 H375 0.979 . S
C399 H376 0.977 . S
C399 C396 1.453 . S
C400 H372 0.979 . S
C400 H373 0.980 . S
C400 H374 0.983 . S
C400 C396 1.684 . S
H401 C419 0.948 1_554 S
H402 C360 0.948 . S
H403 C378 0.979 . S
H404 C378 0.980 . S
H405 C378 0.983 . S
H406 C377 0.982 . S
H407 C377 0.979 . S
H408 C377 0.977 . S
H409 C379 0.948 . S
H410 C381 0.947 . S
H411 C382 0.948 . S
H412 C388 0.982 . S
H413 C388 0.979 . S
H414 C388 0.977 . S
H415 C389 0.979 . S
H416 C389 0.980 . S
H417 C389 0.983 . S
H418 C362 0.964 . S
C419 C362 1.370 1_565 S
C419 C363 1.419 . S
C419 H401 0.948 1_556 S
C420 C421 1.391 . S
C420 C424 1.391 . S
C420 H462 0.948 . S
C421 C420 1.391 . S
C421 C422 1.391 . S
C422 C421 1.391 . S
C422 H478 0.947 . S
C422 C479 1.392 . S
C423 C424 1.391 . S
C423 C427 1.397 . S
C423 C479 1.419 . S
C424 C420 1.391 . S
C424 C423 1.391 . S
C424 C425 1.399 . S
C425 C424 1.399 . S
C425 C428 1.396 . S
C425 C437 1.453 . S
C425 C438 1.684 . S
H426 C450 0.944 1_565 S
C427 C423 1.397 . S
C427 C428 1.394 . S
C427 C446 1.723 . S
C428 C425 1.396 . S
C428 C427 1.394 . S
C428 C458 1.723 . S
H429 C452 0.940 1_565 S
H430 C453 0.948 . S
H431 C459 0.982 . S
H432 C460 0.979 . S
H433 C460 0.980 . S
H434 C460 0.983 . S
H435 C459 0.979 . S
H436 C459 0.977 . S
C437 C425 1.453 . S
C437 H466 0.982 . S
C437 H467 0.979 . S
C437 H468 0.977 . S
C438 C425 1.684 . S
C438 H463 0.979 . S
C438 H464 0.980 . S
C438 H465 0.983 . S
C439 C440 1.391 . S
C439 C444 1.391 . S
C439 H469 0.948 . S
C440 C439 1.391 . S
C440 C441 1.391 . S
C441 C440 1.391 . S
C441 C442 1.392 . S
C441 H470 0.947 . S
C442 C441 1.392 . S
C442 C443 1.419 . S
C442 H471 0.948 . S
C443 C442 1.419 . S
C443 C444 1.391 . S
C443 C447 1.397 . S
C444 C439 1.391 . S
C444 C443 1.391 . S
C444 C445 1.399 . S
C445 C444 1.399 . S
C445 C446 1.396 . S
C445 C448 1.453 . S
C445 C449 1.684 . S
C446 C427 1.723 . S
C446 C445 1.396 . S
C446 C447 1.394 . S
C447 C443 1.397 . S
C447 C446 1.394 . S
C447 C457 1.723 . S
C448 C445 1.453 . S
C448 H472 0.982 . S
C448 H473 0.979 . S
C448 H474 0.977 . S
C449 C445 1.684 . S
C449 H475 0.979 . S
C449 H476 0.980 . S
C449 H477 0.983 . S
C450 H426 0.944 1_545 S
C450 C451 1.388 1_545 S
C450 C455 1.398 . S
C451 C450 1.388 1_565 S
C451 C452 1.391 1_565 S
C452 H429 0.940 1_545 S
C452 C451 1.391 1_545 S
C452 C453 1.392 . S
C453 H430 0.948 . S
C453 C452 1.392 . S
C453 C454 1.419 . S
C454 C453 1.419 . S
C454 C455 1.391 . S
C454 C458 1.397 . S
C455 C450 1.398 . S
C455 C454 1.391 . S
C455 C456 1.399 . S
C456 C455 1.399 . S
C456 C457 1.396 . S
C456 C459 1.453 . S
C456 C460 1.684 . S
C457 C447 1.723 . S
C457 C456 1.396 . S
C457 C458 1.394 . S
C458 C428 1.723 . S
C458 C454 1.397 . S
C458 C457 1.394 . S
C459 H431 0.982 . S
C459 H435 0.979 . S
C459 H436 0.977 . S
C459 C456 1.453 . S
C460 H432 0.979 . S
C460 H433 0.980 . S
C460 H434 0.983 . S
C460 C456 1.684 . S
H461 C479 0.948 . S
H462 C420 0.948 . S
H463 C438 0.979 . S
H464 C438 0.980 . S
H465 C438 0.983 . S
H466 C437 0.982 . S
H467 C437 0.979 . S
H468 C437 0.977 . S
H469 C439 0.948 . S
H470 C441 0.947 . S
H471 C442 0.948 . S
H472 C448 0.982 . S
H473 C448 0.979 . S
H474 C448 0.977 . S
H475 C449 0.979 . S
H476 C449 0.980 . S
H477 C449 0.983 . S
H478 C422 0.947 . S
C479 C422 1.392 . S
C479 C423 1.419 . S
C479 H461 0.948 . S
Sc480 O483 2.025 . S
Sc480 O490 2.105 1_455 S
Sc480 O493 2.105 . S
Sc480 O496 2.105 . S
Sc480 O499 2.105 1_455 S
Sc481 O483 2.025 . S
Sc481 O491 2.105 1_455 S
Sc481 O495 2.105 . S
Sc481 O497 2.105 . S
Sc481 O501 2.105 1_455 S
Sc482 O483 2.025 . S
Sc482 O492 2.105 1_455 S
Sc482 O494 2.105 . S
Sc482 O498 2.105 . S
Sc482 O500 2.105 1_455 S
O483 Sc480 2.025 . S
O483 Sc481 2.025 . S
O483 Sc482 2.025 . S
C484 O490 1.268 . S
C484 O500 1.268 . S
C485 O491 1.268 . S
C485 O499 1.268 . S
C486 O492 1.268 . S
C486 O501 1.268 . S
C487 O493 1.268 . S
C487 O497 1.268 . S
C488 O494 1.268 . S
C488 O496 1.268 . S
C489 O495 1.268 . S
C489 O498 1.268 . S
O490 Sc480 2.105 1_655 S
O490 C484 1.268 . S
O491 Sc481 2.105 1_655 S
O491 C485 1.268 . S
O492 Sc482 2.105 1_655 S
O492 C486 1.268 . S
O493 Sc480 2.105 . S
O493 C487 1.268 . S
O494 Sc482 2.105 . S
O494 C488 1.268 . S
O495 Sc481 2.105 . S
O495 C489 1.268 . S
O496 Sc480 2.105 . S
O496 C488 1.268 . S
O497 Sc481 2.105 . S
O497 C487 1.268 . S
O498 Sc482 2.105 . S
O498 C489 1.268 . S
O499 Sc480 2.105 1_655 S
O499 C485 1.268 . S
O500 Sc482 2.105 1_655 S
O500 C484 1.268 . S
O501 Sc481 2.105 1_655 S
O501 C486 1.268 . S
Sc502 O505 2.025 . S
Sc502 O512 2.105 . S
Sc502 O515 2.105 1_455 S
Sc502 O518 2.105 1_455 S
Sc502 O521 2.105 . S
Sc503 O505 2.025 . S
Sc503 O513 2.105 . S
Sc503 O517 2.105 1_455 S
Sc503 O519 2.105 1_455 S
Sc503 O523 2.105 . S
Sc504 O505 2.025 . S
Sc504 O514 2.105 . S
Sc504 O516 2.105 1_455 S
Sc504 O520 2.105 1_455 S
Sc504 O522 2.105 . S
O505 Sc502 2.025 . S
O505 Sc503 2.025 . S
O505 Sc504 2.025 . S
C506 O512 1.268 . S
C506 O522 1.268 . S
C507 O513 1.268 . S
C507 O521 1.268 . S
C508 O514 1.268 . S
C508 O523 1.268 . S
C509 O515 1.268 . S
C509 O519 1.268 . S
C510 O516 1.268 . S
C510 O518 1.268 . S
C511 O517 1.268 . S
C511 O520 1.268 . S
O512 Sc502 2.105 . S
O512 C506 1.268 . S
O513 Sc503 2.105 . S
O513 C507 1.268 . S
O514 Sc504 2.105 . S
O514 C508 1.268 . S
O515 Sc502 2.105 1_655 S
O515 C509 1.268 . S
O516 Sc504 2.105 1_655 S
O516 C510 1.268 . S
O517 Sc503 2.105 1_655 S
O517 C511 1.268 . S
O518 Sc502 2.105 1_655 S
O518 C510 1.268 . S
O519 Sc503 2.105 1_655 S
O519 C509 1.268 . S
O520 Sc504 2.105 1_655 S
O520 C511 1.268 . S
O521 Sc502 2.105 . S
O521 C507 1.268 . S
O522 Sc504 2.105 . S
O522 C506 1.268 . S
O523 Sc503 2.105 . S
O523 C508 1.268 . S
Sc524 O527 2.025 . S
Sc524 O534 2.105 . S
Sc524 O537 2.105 . S
Sc524 O540 2.105 . S
Sc524 O543 2.105 . S
Sc525 O527 2.025 . S
Sc525 O535 2.105 . S
Sc525 O539 2.105 . S
Sc525 O541 2.105 . S
Sc525 O545 2.105 . S
Sc526 O527 2.025 . S
Sc526 O536 2.105 . S
Sc526 O538 2.105 . S
Sc526 O542 2.105 . S
Sc526 O544 2.105 . S
O527 Sc524 2.025 . S
O527 Sc525 2.025 . S
O527 Sc526 2.025 . S
C528 O534 1.268 . S
C528 O544 1.268 . S
C529 O535 1.268 . S
C529 O543 1.268 . S
C530 O536 1.268 . S
C530 O545 1.268 . S
C531 O537 1.268 . S
C531 O541 1.268 . S
C532 O538 1.268 . S
C532 O540 1.268 . S
C533 O539 1.268 . S
C533 O542 1.268 . S
O534 Sc524 2.105 . S
O534 C528 1.268 . S
O535 Sc525 2.105 . S
O535 C529 1.268 . S
O536 Sc526 2.105 . S
O536 C530 1.268 . S
O537 Sc524 2.105 . S
O537 C531 1.268 . S
O538 Sc526 2.105 . S
O538 C532 1.268 . S
O539 Sc525 2.105 . S
O539 C533 1.268 . S
O540 Sc524 2.105 . S
O540 C532 1.268 . S
O541 Sc525 2.105 . S
O541 C531 1.268 . S
O542 Sc526 2.105 . S
O542 C533 1.268 . S
O543 Sc524 2.105 . S
O543 C529 1.268 . S
O544 Sc526 2.105 . S
O544 C528 1.268 . S
O545 Sc525 2.105 . S
O545 C530 1.268 . S
Sc546 O549 2.025 . S
Sc546 O556 2.105 . S
Sc546 O559 2.105 . S
Sc546 O562 2.105 . S
Sc546 O565 2.105 . S
Sc547 O549 2.025 . S
Sc547 O557 2.105 . S
Sc547 O561 2.105 . S
Sc547 O563 2.105 . S
Sc547 O567 2.105 . S
Sc548 O549 2.025 . S
Sc548 O558 2.105 . S
Sc548 O560 2.105 . S
Sc548 O564 2.105 . S
Sc548 O566 2.105 . S
O549 Sc546 2.025 . S
O549 Sc547 2.025 . S
O549 Sc548 2.025 . S
C550 O556 1.268 . S
C550 O566 1.268 . S
C551 O557 1.268 . S
C551 O565 1.268 . S
C552 O558 1.268 . S
C552 O567 1.268 . S
C553 O559 1.268 . S
C553 O563 1.268 . S
C554 O560 1.268 . S
C554 O562 1.268 . S
C555 O561 1.268 . S
C555 O564 1.268 . S
O556 Sc546 2.105 . S
O556 C550 1.268 . S
O557 Sc547 2.105 . S
O557 C551 1.268 . S
O558 Sc548 2.105 . S
O558 C552 1.268 . S
O559 Sc546 2.105 . S
O559 C553 1.268 . S
O560 Sc548 2.105 . S
O560 C554 1.268 . S
O561 Sc547 2.105 . S
O561 C555 1.268 . S
O562 Sc546 2.105 . S
O562 C554 1.268 . S
O563 Sc547 2.105 . S
O563 C553 1.268 . S
O564 Sc548 2.105 . S
O564 C555 1.268 . S
O565 Sc546 2.105 . S
O565 C551 1.268 . S
O566 Sc548 2.105 . S
O566 C550 1.268 . S
O567 Sc547 2.105 . S
O567 C552 1.268 . S
H568 C574 0.930 . S
H569 C577 0.930 . S
H570 C578 0.930 . S
H571 C579 0.930 . S
H572 C582 0.930 . S
H573 C583 0.930 . S
C574 H568 0.930 . S
C574 C575 1.355 . S
C574 C576 1.415 . S
C575 C574 1.355 . S
C575 C577 1.419 . S
C576 C574 1.415 . S
C576 C581 1.425 . S
C576 C583 1.409 . S
C577 H569 0.930 . S
C577 C575 1.419 . S
C577 C578 1.362 . S
C578 H570 0.930 . S
C578 C577 1.362 . S
C578 C581 1.409 . S
C579 H571 0.930 . S
C579 C580 1.355 . S
C579 C581 1.415 . S
C580 C579 1.355 . S
C580 C582 1.419 . S
C581 C576 1.425 . S
C581 C578 1.409 . S
C581 C579 1.415 . S
C582 H572 0.930 . S
C582 C580 1.419 . S
C582 C583 1.362 . S
C583 H573 0.930 . S
C583 C576 1.409 . S
C583 C582 1.362 . S
H584 C590 0.930 . S
H585 C593 0.930 . S
H586 C594 0.930 . S
H587 C595 0.930 . S
H588 C598 0.930 . S
H589 C599 0.930 . S
C590 H584 0.930 . S
C590 C591 1.355 . S
C590 C592 1.415 . S
C591 C590 1.355 . S
C591 C593 1.419 . S
C592 C590 1.415 . S
C592 C597 1.425 . S
C592 C599 1.409 . S
C593 H585 0.930 . S
C593 C591 1.419 . S
C593 C594 1.362 . S
C594 H586 0.930 . S
C594 C593 1.362 . S
C594 C597 1.409 . S
C595 H587 0.930 . S
C595 C596 1.355 . S
C595 C597 1.415 . S
C596 C595 1.355 . S
C596 C598 1.419 . S
C597 C592 1.425 . S
C597 C594 1.409 . S
C597 C595 1.415 . S
C598 H588 0.930 . S
C598 C596 1.419 . S
C598 C599 1.362 . S
C599 H589 0.930 . S
C599 C592 1.409 . S
C599 C598 1.362 . S
H600 C606 0.930 . S
H601 C609 0.930 . S
H602 C610 0.930 . S
H603 C611 0.930 . S
H604 C614 0.930 . S
H605 C615 0.930 . S
C606 H600 0.930 . S
C606 C607 1.355 . S
C606 C608 1.415 . S
C607 C606 1.355 . S
C607 C609 1.419 . S
C608 C606 1.415 . S
C608 C613 1.425 . S
C608 C615 1.409 . S
C609 H601 0.930 . S
C609 C607 1.419 . S
C609 C610 1.362 . S
C610 H602 0.930 . S
C610 C609 1.362 . S
C610 C613 1.409 . S
C611 H603 0.930 . S
C611 C612 1.355 . S
C611 C613 1.415 . S
C612 C611 1.355 . S
C612 C614 1.419 . S
C613 C608 1.425 . S
C613 C610 1.409 . S
C613 C611 1.415 . S
C614 H604 0.930 . S
C614 C612 1.419 . S
C614 C615 1.362 . S
C615 H605 0.930 . S
C615 C608 1.409 . S
C615 C614 1.362 . S
H616 C622 0.930 . S
H617 C625 0.930 . S
H618 C626 0.930 . S
H619 C627 0.930 . S
H620 C630 0.930 . S
H621 C631 0.930 . S
C622 H616 0.930 . S
C622 C623 1.355 . S
C622 C624 1.415 . S
C623 C622 1.355 . S
C623 C625 1.419 . S
C624 C622 1.415 . S
C624 C629 1.425 . S
C624 C631 1.409 . S
C625 H617 0.930 . S
C625 C623 1.419 . S
C625 C626 1.362 . S
C626 H618 0.930 . S
C626 C625 1.362 . S
C626 C629 1.409 . S
C627 H619 0.930 . S
C627 C628 1.355 . S
C627 C629 1.415 . S
C628 C627 1.355 . S
C628 C630 1.419 . S
C629 C624 1.425 . S
C629 C626 1.409 . S
C629 C627 1.415 . S
C630 H620 0.930 . S
C630 C628 1.419 . S
C630 C631 1.362 . S
C631 H621 0.930 . S
C631 C624 1.409 . S
C631 C630 1.362 . S
H632 C638 0.930 . S
H633 C641 0.930 . S
H634 C642 0.930 . S
H635 C643 0.930 . S
H636 C646 0.930 . S
H637 C647 0.930 . S
C638 H632 0.930 . S
C638 C639 1.355 . S
C638 C640 1.415 . S
C639 C638 1.355 . S
C639 C641 1.419 . S
C640 C638 1.415 . S
C640 C645 1.425 . S
C640 C647 1.409 . S
C641 H633 0.930 . S
C641 C639 1.419 . S
C641 C642 1.362 . S
C642 H634 0.930 . S
C642 C641 1.362 . S
C642 C645 1.409 . S
C643 H635 0.930 . S
C643 C644 1.355 . S
C643 C645 1.415 . S
C644 C643 1.355 . S
C644 C646 1.419 . S
C645 C640 1.425 . S
C645 C642 1.409 . S
C645 C643 1.415 . S
C646 H636 0.930 . S
C646 C644 1.419 . S
C646 C647 1.362 . S
C647 H637 0.930 . S
C647 C640 1.409 . S
C647 C646 1.362 . S
H648 C654 0.930 . S
H649 C657 0.930 . S
H650 C658 0.930 . S
H651 C659 0.930 . S
H652 C662 0.930 . S
H653 C663 0.930 . S
C654 H648 0.930 . S
C654 C655 1.355 . S
C654 C656 1.415 . S
C655 C654 1.355 . S
C655 C657 1.419 . S
C656 C654 1.415 . S
C656 C661 1.425 . S
C656 C663 1.409 . S
C657 H649 0.930 . S
C657 C655 1.419 . S
C657 C658 1.362 . S
C658 H650 0.930 . S
C658 C657 1.362 . S
C658 C661 1.409 . S
C659 H651 0.930 . S
C659 C660 1.355 . S
C659 C661 1.415 . S
C660 C659 1.355 . S
C660 C662 1.419 . S
C661 C656 1.425 . S
C661 C658 1.409 . S
C661 C659 1.415 . S
C662 H652 0.930 . S
C662 C660 1.419 . S
C662 C663 1.362 . S
C663 H653 0.930 . S
C663 C656 1.409 . S
C663 C662 1.362 . S
H664 C670 0.930 . S
H665 C673 0.930 . S
H666 C674 0.930 . S
H667 C675 0.930 . S
H668 C678 0.930 . S
H669 C679 0.930 . S
C670 H664 0.930 . S
C670 C671 1.355 . S
C670 C672 1.415 . S
C671 C670 1.355 . S
C671 C673 1.419 . S
C672 C670 1.415 . S
C672 C677 1.425 . S
C672 C679 1.409 . S
C673 H665 0.930 . S
C673 C671 1.419 . S
C673 C674 1.362 . S
C674 H666 0.930 . S
C674 C673 1.362 . S
C674 C677 1.409 . S
C675 H667 0.930 . S
C675 C676 1.355 . S
C675 C677 1.415 . S
C676 C675 1.355 . S
C676 C678 1.419 . S
C677 C672 1.425 . S
C677 C674 1.409 . S
C677 C675 1.415 . S
C678 H668 0.930 . S
C678 C676 1.419 . S
C678 C679 1.362 . S
C679 H669 0.930 . S
C679 C672 1.409 . S
C679 C678 1.362 . S
H680 C686 0.930 . S
H681 C689 0.930 . S
H682 C690 0.930 . S
H683 C691 0.930 . S
H684 C694 0.930 . S
H685 C695 0.930 . S
C686 H680 0.930 . S
C686 C687 1.355 . S
C686 C688 1.415 . S
C687 C686 1.355 . S
C687 C689 1.419 . S
C688 C686 1.415 . S
C688 C693 1.425 . S
C688 C695 1.409 . S
C689 H681 0.930 . S
C689 C687 1.419 . S
C689 C690 1.362 . S
C690 H682 0.930 . S
C690 C689 1.362 . S
C690 C693 1.409 . S
C691 H683 0.930 . S
C691 C692 1.355 . S
C691 C693 1.415 . S
C692 C691 1.355 . S
C692 C694 1.419 . S
C693 C688 1.425 . S
C693 C690 1.409 . S
C693 C691 1.415 . S
C694 H684 0.930 . S
C694 C692 1.419 . S
C694 C695 1.362 . S
C695 H685 0.930 . S
C695 C688 1.409 . S
C695 C694 1.362 . S
H696 C702 0.930 . S
H697 C705 0.930 . S
H698 C706 0.930 . S
H699 C707 0.930 . S
H700 C710 0.930 . S
H701 C711 0.930 . S
C702 H696 0.930 . S
C702 C703 1.355 . S
C702 C704 1.415 . S
C703 C702 1.355 . S
C703 C705 1.419 . S
C704 C702 1.415 . S
C704 C709 1.425 . S
C704 C711 1.409 . S
C705 H697 0.930 . S
C705 C703 1.419 . S
C705 C706 1.362 . S
C706 H698 0.930 . S
C706 C705 1.362 . S
C706 C709 1.409 . S
C707 H699 0.930 . S
C707 C708 1.355 . S
C707 C709 1.415 . S
C708 C707 1.355 . S
C708 C710 1.419 . S
C709 C704 1.425 . S
C709 C706 1.409 . S
C709 C707 1.415 . S
C710 H700 0.930 . S
C710 C708 1.419 . S
C710 C711 1.362 . S
C711 H701 0.930 . S
C711 C704 1.409 . S
C711 C710 1.362 . S
H712 C718 0.930 . S
H713 C721 0.930 . S
H714 C722 0.930 . S
H715 C723 0.930 . S
H716 C726 0.930 . S
H717 C727 0.930 . S
C718 H712 0.930 . S
C718 C719 1.355 . S
C718 C720 1.415 . S
C719 C718 1.355 . S
C719 C721 1.419 . S
C720 C718 1.415 . S
C720 C725 1.425 . S
C720 C727 1.409 . S
C721 H713 0.930 . S
C721 C719 1.419 . S
C721 C722 1.362 . S
C722 H714 0.930 . S
C722 C721 1.362 . S
C722 C725 1.409 . S
C723 H715 0.930 . S
C723 C724 1.355 . S
C723 C725 1.415 . S
C724 C723 1.355 . S
C724 C726 1.419 . S
C725 C720 1.425 . S
C725 C722 1.409 . S
C725 C723 1.415 . S
C726 H716 0.930 . S
C726 C724 1.419 . S
C726 C727 1.362 . S
C727 H717 0.930 . S
C727 C720 1.409 . S
C727 C726 1.362 . S
H728 C734 0.930 . S
H729 C737 0.930 . S
H730 C738 0.930 . S
H731 C739 0.930 . S
H732 C742 0.930 . S
H733 C743 0.930 . S
C734 H728 0.930 . S
C734 C735 1.355 . S
C734 C736 1.415 . S
C735 C734 1.355 . S
C735 C737 1.419 . S
C736 C734 1.415 . S
C736 C741 1.425 . S
C736 C743 1.409 . S
C737 H729 0.930 . S
C737 C735 1.419 . S
C737 C738 1.362 . S
C738 H730 0.930 . S
C738 C737 1.362 . S
C738 C741 1.409 . S
C739 H731 0.930 . S
C739 C740 1.355 . S
C739 C741 1.415 . S
C740 C739 1.355 . S
C740 C742 1.419 . S
C741 C736 1.425 . S
C741 C738 1.409 . S
C741 C739 1.415 . S
C742 H732 0.930 . S
C742 C740 1.419 . S
C742 C743 1.362 . S
C743 H733 0.930 . S
C743 C736 1.409 . S
C743 C742 1.362 . S
H744 C750 0.930 . S
H745 C753 0.930 . S
H746 C754 0.930 . S
H747 C755 0.930 . S
H748 C758 0.930 . S
H749 C759 0.930 . S
C750 H744 0.930 . S
C750 C751 1.355 . S
C750 C752 1.415 . S
C751 C750 1.355 . S
C751 C753 1.419 . S
C752 C750 1.415 . S
C752 C757 1.425 . S
C752 C759 1.409 . S
C753 H745 0.930 . S
C753 C751 1.419 . S
C753 C754 1.362 . S
C754 H746 0.930 . S
C754 C753 1.362 . S
C754 C757 1.409 . S
C755 H747 0.930 . S
C755 C756 1.355 . S
C755 C757 1.415 . S
C756 C755 1.355 . S
C756 C758 1.419 . S
C757 C752 1.425 . S
C757 C754 1.409 . S
C757 C755 1.415 . S
C758 H748 0.930 . S
C758 C756 1.419 . S
C758 C759 1.362 . S
C759 H749 0.930 . S
C759 C752 1.409 . S
C759 C758 1.362 . S
H760 C766 0.930 . S
H761 C769 0.930 . S
H762 C770 0.930 . S
H763 C771 0.930 . S
H764 C774 0.930 . S
H765 C775 0.930 . S
C766 H760 0.930 . S
C766 C767 1.355 . S
C766 C768 1.415 . S
C767 C766 1.355 . S
C767 C769 1.419 . S
C768 C766 1.415 . S
C768 C773 1.425 . S
C768 C775 1.409 . S
C769 H761 0.930 . S
C769 C767 1.419 . S
C769 C770 1.362 . S
C770 H762 0.930 . S
C770 C769 1.362 . S
C770 C773 1.409 . S
C771 H763 0.930 . S
C771 C772 1.355 . S
C771 C773 1.415 . S
C772 C771 1.355 . S
C772 C774 1.419 . S
C773 C768 1.425 . S
C773 C770 1.409 . S
C773 C771 1.415 . S
C774 H764 0.930 . S
C774 C772 1.419 . S
C774 C775 1.362 . S
C775 H765 0.930 . S
C775 C768 1.409 . S
C775 C774 1.362 . S
H776 C782 0.930 . S
H777 C785 0.930 1_545 S
H778 C786 0.930 . S
H779 C787 0.930 . S
H780 C790 0.930 . S
H781 C791 0.930 . S
C782 H776 0.930 . S
C782 C783 1.355 . S
C782 C784 1.415 . S
C783 C782 1.355 . S
C783 C785 1.419 . S
C784 C782 1.415 . S
C784 C789 1.425 . S
C784 C791 1.409 . S
C785 H777 0.930 1_565 S
C785 C783 1.419 . S
C785 C786 1.362 . S
C786 H778 0.930 . S
C786 C785 1.362 . S
C786 C789 1.409 . S
C787 H779 0.930 . S
C787 C788 1.355 . S
C787 C789 1.415 . S
C788 C787 1.355 . S
C788 C790 1.419 . S
C789 C784 1.425 . S
C789 C786 1.409 . S
C789 C787 1.415 . S
C790 H780 0.930 . S
C790 C788 1.419 . S
C790 C791 1.362 . S
C791 H781 0.930 . S
C791 C784 1.409 . S
C791 C790 1.362 . S
H792 C798 0.930 . S
H793 C801 0.930 . S
H794 C802 0.930 . S
H795 C803 0.930 . S
H796 C806 0.930 . S
H797 C807 0.930 . S
C798 H792 0.930 . S
C798 C799 1.355 . S
C798 C800 1.415 . S
C799 C798 1.355 . S
C799 C801 1.419 . S
C800 C798 1.415 . S
C800 C805 1.425 . S
C800 C807 1.409 . S
C801 H793 0.930 . S
C801 C799 1.419 . S
C801 C802 1.362 . S
C802 H794 0.930 . S
C802 C801 1.362 . S
C802 C805 1.409 . S
C803 H795 0.930 . S
C803 C804 1.355 . S
C803 C805 1.415 . S
C804 C803 1.355 . S
C804 C806 1.419 . S
C805 C800 1.425 . S
C805 C802 1.409 . S
C805 C803 1.415 . S
C806 H796 0.930 . S
C806 C804 1.419 . S
C806 C807 1.362 . S
C807 H797 0.930 . S
C807 C800 1.409 . S
C807 C806 1.362 . S
H808 C814 0.930 . S
H809 C817 0.930 . S
H810 C818 0.930 . S
H811 C819 0.930 . S
H812 C822 0.930 . S
H813 C823 0.930 . S
C814 H808 0.930 . S
C814 C815 1.355 . S
C814 C816 1.415 . S
C815 C814 1.355 . S
C815 C817 1.419 . S
C816 C814 1.415 . S
C816 C821 1.425 . S
C816 C823 1.409 . S
C817 H809 0.930 . S
C817 C815 1.419 . S
C817 C818 1.362 . S
C818 H810 0.930 . S
C818 C817 1.362 . S
C818 C821 1.409 . S
C819 H811 0.930 . S
C819 C820 1.355 . S
C819 C821 1.415 . S
C820 C819 1.355 . S
C820 C822 1.419 . S
C821 C816 1.425 . S
C821 C818 1.409 . S
C821 C819 1.415 . S
C822 H812 0.930 . S
C822 C820 1.419 . S
C822 C823 1.362 . S
C823 H813 0.930 . S
C823 C816 1.409 . S
C823 C822 1.362 . S
H824 C830 0.930 . S
H825 C833 0.930 . S
H826 C834 0.930 . S
H827 C835 0.930 . S
H828 C838 0.930 . S
H829 C839 0.930 . S
C830 H824 0.930 . S
C830 C831 1.355 . S
C830 C832 1.415 . S
C831 C830 1.355 . S
C831 C833 1.419 . S
C832 C830 1.415 . S
C832 C837 1.425 . S
C832 C839 1.409 . S
C833 H825 0.930 . S
C833 C831 1.419 . S
C833 C834 1.362 . S
C834 H826 0.930 . S
C834 C833 1.362 . S
C834 C837 1.409 . S
C835 H827 0.930 . S
C835 C836 1.355 . S
C835 C837 1.415 . S
C836 C835 1.355 . S
C836 C838 1.419 . S
C837 C832 1.425 . S
C837 C834 1.409 . S
C837 C835 1.415 . S
C838 H828 0.930 . S
C838 C836 1.419 . S
C838 C839 1.362 . S
C839 H829 0.930 . S
C839 C832 1.409 . S
C839 C838 1.362 . S
H840 C846 0.930 . S
H841 C849 0.930 . S
H842 C850 0.930 . S
H843 C851 0.930 . S
H844 C854 0.930 . S
H845 C855 0.930 . S
C846 H840 0.930 . S
C846 C847 1.355 . S
C846 C848 1.415 . S
C847 C846 1.355 . S
C847 C849 1.419 . S
C848 C846 1.415 . S
C848 C853 1.425 . S
C848 C855 1.409 . S
C849 H841 0.930 . S
C849 C847 1.419 . S
C849 C850 1.362 . S
C850 H842 0.930 . S
C850 C849 1.362 . S
C850 C853 1.409 . S
C851 H843 0.930 . S
C851 C852 1.355 . S
C851 C853 1.415 . S
C852 C851 1.355 . S
C852 C854 1.419 . S
C853 C848 1.425 . S
C853 C850 1.409 . S
C853 C851 1.415 . S
C854 H844 0.930 . S
C854 C852 1.419 . S
C854 C855 1.362 . S
C855 H845 0.930 . S
C855 C848 1.409 . S
C855 C854 1.362 . S
H856 C862 0.930 . S
H857 C865 0.930 . S
H858 C866 0.930 . S
H859 C867 0.930 . S
H860 C870 0.930 . S
H861 C871 0.930 . S
C862 H856 0.930 . S
C862 C863 1.355 . S
C862 C864 1.415 . S
C863 C862 1.355 . S
C863 C865 1.419 . S
C864 C862 1.415 . S
C864 C869 1.425 . S
C864 C871 1.409 . S
C865 H857 0.930 . S
C865 C863 1.419 . S
C865 C866 1.362 . S
C866 H858 0.930 . S
C866 C865 1.362 . S
C866 C869 1.409 . S
C867 H859 0.930 . S
C867 C868 1.355 . S
C867 C869 1.415 . S
C868 C867 1.355 . S
C868 C870 1.419 . S
C869 C864 1.425 . S
C869 C866 1.409 . S
C869 C867 1.415 . S
C870 H860 0.930 . S
C870 C868 1.419 . S
C870 C871 1.362 . S
C871 H861 0.930 . S
C871 C864 1.409 . S
C871 C870 1.362 . S
H872 C878 0.930 . S
H873 C881 0.930 . S
H874 C882 0.930 . S
H875 C883 0.930 . S
H876 C886 0.930 . S
H877 C887 0.930 . S
C878 H872 0.930 . S
C878 C879 1.355 . S
C878 C880 1.415 . S
C879 C878 1.355 . S
C879 C881 1.419 . S
C880 C878 1.415 . S
C880 C885 1.425 . S
C880 C887 1.409 . S
C881 H873 0.930 . S
C881 C879 1.419 . S
C881 C882 1.362 . S
C882 H874 0.930 . S
C882 C881 1.362 . S
C882 C885 1.409 . S
C883 H875 0.930 . S
C883 C884 1.355 . S
C883 C885 1.415 . S
C884 C883 1.355 . S
C884 C886 1.419 . S
C885 C880 1.425 . S
C885 C882 1.409 . S
C885 C883 1.415 . S
C886 H876 0.930 . S
C886 C884 1.419 . S
C886 C887 1.362 . S
C887 H877 0.930 . S
C887 C880 1.409 . S
C887 C886 1.362 . S
H888 C894 0.930 . S
H889 C897 0.930 . S
H890 C898 0.930 . S
H891 C899 0.930 . S
H892 C902 0.930 . S
H893 C903 0.930 . S
C894 H888 0.930 . S
C894 C895 1.355 . S
C894 C896 1.415 . S
C895 C894 1.355 . S
C895 C897 1.419 . S
C896 C894 1.415 . S
C896 C901 1.425 . S
C896 C903 1.409 . S
C897 H889 0.930 . S
C897 C895 1.419 . S
C897 C898 1.362 . S
C898 H890 0.930 . S
C898 C897 1.362 . S
C898 C901 1.409 . S
C899 H891 0.930 . S
C899 C900 1.355 . S
C899 C901 1.415 . S
C900 C899 1.355 . S
C900 C902 1.419 . S
C901 C896 1.425 . S
C901 C898 1.409 . S
C901 C899 1.415 . S
C902 H892 0.930 . S
C902 C900 1.419 . S
C902 C903 1.362 . S
C903 H893 0.930 . S
C903 C896 1.409 . S
C903 C902 1.362 . S
H904 C910 0.930 . S
H905 C913 0.930 . S
H906 C914 0.930 . S
H907 C915 0.930 . S
H908 C918 0.930 . S
H909 C919 0.930 . S
C910 H904 0.930 . S
C910 C911 1.355 . S
C910 C912 1.415 . S
C911 C910 1.355 . S
C911 C913 1.419 . S
C912 C910 1.415 . S
C912 C917 1.425 . S
C912 C919 1.409 . S
C913 H905 0.930 . S
C913 C911 1.419 . S
C913 C914 1.362 . S
C914 H906 0.930 . S
C914 C913 1.362 . S
C914 C917 1.409 . S
C915 H907 0.930 . S
C915 C916 1.355 . S
C915 C917 1.415 . S
C916 C915 1.355 . S
C916 C918 1.419 . S
C917 C912 1.425 . S
C917 C914 1.409 . S
C917 C915 1.415 . S
C918 H908 0.930 . S
C918 C916 1.419 . S
C918 C919 1.362 . S
C919 H909 0.930 . S
C919 C912 1.409 . S
C919 C918 1.362 . S
H920 C926 0.930 . S
H921 C929 0.930 . S
H922 C930 0.930 . S
H923 C931 0.930 . S
H924 C934 0.930 . S
H925 C935 0.930 . S
C926 H920 0.930 . S
C926 C927 1.355 . S
C926 C928 1.415 . S
C927 C926 1.355 . S
C927 C929 1.419 . S
C928 C926 1.415 . S
C928 C933 1.425 . S
C928 C935 1.409 . S
C929 H921 0.930 . S
C929 C927 1.419 . S
C929 C930 1.362 . S
C930 H922 0.930 . S
C930 C929 1.362 . S
C930 C933 1.409 . S
C931 H923 0.930 . S
C931 C932 1.355 . S
C931 C933 1.415 . S
C932 C931 1.355 . S
C932 C934 1.419 . S
C933 C928 1.425 . S
C933 C930 1.409 . S
C933 C931 1.415 . S
C934 H924 0.930 . S
C934 C932 1.419 . S
C934 C935 1.362 . S
C935 H925 0.930 . S
C935 C928 1.409 . S
C935 C934 1.362 . S
H936 C942 0.930 . S
H937 C945 0.930 . S
H938 C946 0.930 . S
H939 C947 0.930 . S
H940 C950 0.930 . S
H941 C951 0.930 . S
C942 H936 0.930 . S
C942 C943 1.355 . S
C942 C944 1.415 . S
C943 C942 1.355 . S
C943 C945 1.419 . S
C944 C942 1.415 . S
C944 C949 1.425 . S
C944 C951 1.409 . S
C945 H937 0.930 . S
C945 C943 1.419 . S
C945 C946 1.362 . S
C946 H938 0.930 . S
C946 C945 1.362 . S
C946 C949 1.409 . S
C947 H939 0.930 . S
C947 C948 1.355 . S
C947 C949 1.415 . S
C948 C947 1.355 . S
C948 C950 1.419 . S
C949 C944 1.425 . S
C949 C946 1.409 . S
C949 C947 1.415 . S
C950 H940 0.930 . S
C950 C948 1.419 . S
C950 C951 1.362 . S
C951 H941 0.930 . S
C951 C944 1.409 . S
C951 C950 1.362 . S
C575 C31 1.518 . S
C580 C506 1.496 . S
C596 C484 1.548 . S
C591 C61 1.549 . S
C612 C510 1.543 . S
C607 C151 1.513 . S
C628 C488 1.518 . S
C623 C181 1.542 . S
C644 C550 1.517 . S
C639 C271 1.488 . S
C660 C528 1.552 . S
C655 C301 1.542 . S
C671 C391 1.471 . S
C676 C554 1.493 . S
C692 C532 1.501 . S
C687 C421 1.571 . S
C703 C20 1.579 . S
C708 C555 1.572 . S
C724 C533 1.571 . S
C719 C91 1.580 . S
C735 C121 1.521 . S
C740 C552 1.566 . S
C751 C211 1.592 . S
C756 C530 1.582 . S
C772 C511 1.574 . S
C767 C260 1.579 . S
C783 C331 1.524 . S
C788 C489 1.589 . S
C804 C508 1.567 . S
C799 C361 1.519 . S
C820 C486 1.591 . S
C815 C451 1.590 . S
C836 C529 1.577 . S
C831 C1 1.410 . S
C852 C551 1.557 . S
C847 C80 1.487 . S
C863 C140 1.535 . S
C868 C531 1.576 . S
C884 C553 1.545 . S
C879 C200 1.538 . S
C900 C485 1.548 . S
C895 C241 1.467 . S
C911 C320 1.415 . S
C916 C507 1.567 . S
C927 C380 1.556 . S
C932 C487 1.558 . S
C943 C440 1.526 . S
C948 C509 1.552 . S
