# Generated by pormake.
# Topology zzz, (3,6)-cn, num edge types: 1
# Building blocks:
#     Node 0, Type 0, BuildingBlock: ESEHIV_clean_linker_0, # of connection points: 3
#     Node 1, Type 0, BuildingBlock: ESEHIV_clean_linker_0, # of connection points: 3
#     Node 2, Type 0, BuildingBlock: ESEHIV_clean_linker_0, # of connection points: 3
#     Node 3, Type 0, BuildingBlock: ESEHIV_clean_linker_0, # of connection points: 3
#     Node 4, Type 0, BuildingBlock: ESEHIV_clean_linker_0, # of connection points: 3
#     Node 5, Type 0, BuildingBlock: ESEHIV_clean_linker_0, # of connection points: 3
#     Node 6, Type 0, BuildingBlock: ESEHIV_clean_linker_0, # of connection points: 3
#     Node 7, Type 0, BuildingBlock: ESEHIV_clean_linker_0, # of connection points: 3
#     Node 8, Type 1, BuildingBlock: PAMTOO_clean_sbu_0, # of connection points: 6
#     Node 9, Type 1, BuildingBlock: PAMTOO_clean_sbu_0, # of connection points: 6
#     Node 10, Type 1, BuildingBlock: PAMTOO_clean_sbu_0, # of connection points: 6
#     Node 11, Type 1, BuildingBlock: PAMTOO_clean_sbu_0, # of connection points: 6
#     Edge 12, Type (0, 1), BuildingBlock: TEMPAE_clean_linker_10, # of connection points: 2
#     Edge 13, Type (0, 1), BuildingBlock: TEMPAE_clean_linker_10, # of connection points: 2
#     Edge 14, Type (0, 1), BuildingBlock: TEMPAE_clean_linker_10, # of connection points: 2
#     Edge 15, Type (0, 1), BuildingBlock: TEMPAE_clean_linker_10, # of connection points: 2
#     Edge 16, Type (0, 1), BuildingBlock: TEMPAE_clean_linker_10, # of connection points: 2
#     Edge 17, Type (0, 1), BuildingBlock: TEMPAE_clean_linker_10, # of connection points: 2
#     Edge 18, Type (0, 1), BuildingBlock: TEMPAE_clean_linker_10, # of connection points: 2
#     Edge 19, Type (0, 1), BuildingBlock: TEMPAE_clean_linker_10, # of connection points: 2
#     Edge 20, Type (0, 1), BuildingBlock: TEMPAE_clean_linker_10, # of connection points: 2
#     Edge 21, Type (0, 1), BuildingBlock: TEMPAE_clean_linker_10, # of connection points: 2
#     Edge 22, Type (0, 1), BuildingBlock: TEMPAE_clean_linker_10, # of connection points: 2
#     Edge 23, Type (0, 1), BuildingBlock: TEMPAE_clean_linker_10, # of connection points: 2
#     Edge 24, Type (0, 1), BuildingBlock: TEMPAE_clean_linker_10, # of connection points: 2
#     Edge 25, Type (0, 1), BuildingBlock: TEMPAE_clean_linker_10, # of connection points: 2
#     Edge 26, Type (0, 1), BuildingBlock: TEMPAE_clean_linker_10, # of connection points: 2
#     Edge 27, Type (0, 1), BuildingBlock: TEMPAE_clean_linker_10, # of connection points: 2
#     Edge 28, Type (0, 1), BuildingBlock: TEMPAE_clean_linker_10, # of connection points: 2
#     Edge 29, Type (0, 1), BuildingBlock: TEMPAE_clean_linker_10, # of connection points: 2
#     Edge 30, Type (0, 1), BuildingBlock: TEMPAE_clean_linker_10, # of connection points: 2
#     Edge 31, Type (0, 1), BuildingBlock: TEMPAE_clean_linker_10, # of connection points: 2
#     Edge 32, Type (0, 1), BuildingBlock: TEMPAE_clean_linker_10, # of connection points: 2
#     Edge 33, Type (0, 1), BuildingBlock: TEMPAE_clean_linker_10, # of connection points: 2
#     Edge 34, Type (0, 1), BuildingBlock: TEMPAE_clean_linker_10, # of connection points: 2
#     Edge 35, Type (0, 1), BuildingBlock: TEMPAE_clean_linker_10, # of connection points: 2
# Relax obj value: 0.388
# Max RMSD: 0.286
# Mean RMSD: 0.222
data_MOF--net-zzz--node1-PAMTOO_clean_sbu_0--node2-ESEHIV_clean_linker_0--edge1-TEMPAE_clean_linker_10
_symmetry_space_group_name_H-M    P1
_symmetry_Int_Tables_number       1
_symmetry_cell_setting            triclinic
loop_
_symmetry_equiv_pos_as_xyz
'x, y, z'
_cell_length_a     51.256383
_cell_length_b     43.09454
_cell_length_c     16.406133
_cell_angle_alpha  92.513823
_cell_angle_beta   79.885385
_cell_angle_gamma 84.211672
loop_
_atom_site_label
_atom_site_type_symbol
_atom_site_fract_x
_atom_site_fract_y
_atom_site_fract_z
_atom_type_partial_charge
H0 H 0.83534 0.41736 0.47901 0.0
H1 H 0.76988 0.42991 0.35053 0.0
H2 H 0.77278 0.49312 0.5591 0.0
C3 C 0.81594 0.42939 0.47583 0.0
C4 C 0.80532 0.45547 0.53069 0.0
C5 C 0.80326 0.42031 0.4114 0.0
C6 C 0.77917 0.43658 0.4023 0.0
C7 C 0.76782 0.46261 0.45542 0.0
C8 C 0.7811 0.4725 0.51931 0.0
H9 H 0.97398 0.78127 0.46749 0.0
H10 H 0.97023 0.69571 0.32923 0.0
H11 H 1.01004 0.69484 0.53998 0.0
C12 C 0.97694 0.75592 0.4611 0.0
C13 C 0.99092 0.73994 0.51544 0.0
C14 C 0.97032 0.74032 0.39227 0.0
C15 C 0.97507 0.70778 0.3832 0.0
C16 C 0.9892 0.69101 0.43608 0.0
C17 C 0.99779 0.70724 0.50176 0.0
H18 H 0.72271 0.06973 0.35534 0.0
H19 H 0.79518 0.06053 0.17767 0.0
H20 H 0.78974 0.00685 0.39548 0.0
C21 C 0.7434 0.05991 0.33765 0.0
C22 C 0.7542 0.03786 0.38657 0.0
C23 C 0.758 0.068 0.26307 0.0
C24 C 0.78415 0.05443 0.23639 0.0
C25 C 0.79611 0.03281 0.28399 0.0
C26 C 0.78093 0.02403 0.35917 0.0
H27 H 0.49113 0.69118 0.32578 0.0
H28 H 0.52731 0.77554 0.35951 0.0
H29 H 0.48547 0.76291 0.15535 0.0
C30 C 0.49469 0.71454 0.3076 0.0
C31 C 0.4861 0.7254 0.23682 0.0
C32 C 0.50971 0.73212 0.35165 0.0
C33 C 0.51557 0.7619 0.3258 0.0
C34 C 0.50598 0.77385 0.25605 0.0
C35 C 0.49166 0.75498 0.21156 0.0
H36 H 0.19161 0.46993 0.10382 0.0
H37 H 0.24926 0.4623 0.26383 0.0
H38 H 0.27165 0.49004 0.01346 0.0
C39 C 0.21213 0.4699 0.11271 0.0
C40 C 0.23078 0.47953 0.04888 0.0
C41 C 0.2183 0.46474 0.19079 0.0
C42 C 0.24454 0.46588 0.20276 0.0
C43 C 0.26428 0.47403 0.1387 0.0
C44 C 0.25714 0.4819 0.0617 0.0
H45 H 0.95961 0.25599 0.18086 0.0
H46 H 0.96492 0.3354 0.34015 0.0
H47 H 0.02302 0.31383 0.11512 0.0
C48 C 0.96896 0.27686 0.19238 0.0
C49 C 0.99185 0.28297 0.13758 0.0
C50 C 0.95935 0.29543 0.26548 0.0
C51 C 0.97212 0.32142 0.28246 0.0
C52 C 0.99465 0.32891 0.2279 0.0
C53 C 1.0052 0.30889 0.15641 0.0
H54 H 0.32111 0.02734 0.31472 0.0
H55 H 0.24253 0.03063 0.45811 0.0
H56 H 0.25522 0.01275 0.19197 0.0
C57 C 0.29986 0.02688 0.31713 0.0
C58 C 0.29063 0.02012 0.24358 0.0
C59 C 0.28285 0.03009 0.39429 0.0
C60 C 0.25562 0.02865 0.39802 0.0
C61 C 0.24521 0.02302 0.32582 0.0
C62 C 0.26283 0.01844 0.24767 0.0
H63 H 0.55776 0.30327 0.23774 0.0
H64 H 0.51713 0.22175 0.21168 0.0
H65 H 0.56229 0.23112 0.40838 0.0
C66 C 0.55354 0.28019 0.25669 0.0
C67 C 0.56228 0.26895 0.32704 0.0
C68 C 0.53729 0.26356 0.21473 0.0
C69 C 0.53019 0.23448 0.24253 0.0
C70 C 0.54001 0.22218 0.31123 0.0
C71 C 0.55587 0.2397 0.3531 0.0
Dy72 Dy 1.00122 0.02177 0.71466 0.0
Dy73 Dy 0.03688 1.00215 0.85286 0.0
C74 C 0.06464 0.01375 0.66901 0.0
O75 O 1.00113 0.96977 0.71454 0.0
O76 O 0.0347 0.95619 0.78644 0.0
O77 O 0.9965 0.04209 0.59979 0.0
O78 O 0.96392 0.02092 0.67088 0.0
O79 O 0.99516 0.99186 0.90395 0.0
O80 O 0.97406 0.02976 0.83902 0.0
O81 O 0.02382 0.05294 0.88366 0.0
O82 O 0.01301 0.06762 0.75971 0.0
O83 O 0.04226 0.00294 0.98047 0.0
O84 O 0.07353 0.98054 0.88352 0.0
C85 C 0.01746 0.94855 0.74064 0.0
O86 O 0.04274 0.00669 0.64471 0.0
O87 O 0.06457 0.02014 0.74813 0.0
C88 C 0.95309 0.06293 0.59168 0.0
C89 C 0.92504 0.11655 0.54528 0.0
C90 C 0.93425 0.11699 0.62106 0.0
C91 C 0.94832 0.09028 0.64406 0.0
C92 C 0.94204 0.0617 0.5196 0.0
C93 C 0.92806 0.08836 0.49648 0.0
C94 C 0.97165 0.03667 0.6067 0.0
C95 C 0.97367 0.01062 0.89937 0.0
C96 C 0.01816 0.07465 0.83381 0.0
C97 C 0.06147 0.95353 1.0041 0.0
C98 C 0.04 0.90172 0.07623 0.0
C99 C 0.04147 0.92865 0.12592 0.0
C100 C 0.05214 0.95445 0.08996 0.0
C101 C 0.0624 0.92541 0.95623 0.0
C102 C 0.05167 0.89976 0.99205 0.0
C103 C 0.06367 0.98301 0.96282 0.0
H104 H 0.93247 0.13856 0.6591 0.0
H105 H 0.95676 0.09147 0.70009 0.0
H106 H 0.94549 0.04065 0.47884 0.0
H107 H 0.92113 0.08753 0.43778 0.0
H108 H 0.03265 0.93059 0.19122 0.0
H109 H 0.05108 0.97592 0.12792 0.0
H110 H 0.06953 0.92385 0.88985 0.0
H111 H 0.05125 0.87892 0.95313 0.0
Dy112 Dy 0.52251 0.98031 0.74443 0.0
Dy113 Dy 0.52952 0.03329 0.88365 0.0
C114 C 0.51958 0.05174 0.7044 0.0
O115 O 0.5637 0.99317 0.70034 0.0
O116 O 0.57191 0.01606 0.8213 0.0
O117 O 0.52124 0.96454 0.61842 0.0
O118 O 0.51658 0.93241 0.71603 0.0
O119 O 0.52221 0.9895 0.94851 0.0
O120 O 0.54208 0.95612 0.83962 0.0
O121 O 0.48497 0.03422 0.89675 0.0
O122 O 0.48223 0.98747 0.82797 0.0
O123 O 0.54276 0.04554 0.99693 0.0
O124 O 0.52275 0.0813 0.93359 0.0
C125 C 0.58014 0.00467 0.7439 0.0
O126 O 0.50783 0.02616 0.69934 0.0
O127 O 0.53343 0.0562 0.76314 0.0
C128 C 0.48672 0.93258 0.6217 0.0
C129 C 0.43338 0.94209 0.60036 0.0
C130 C 0.4542 0.94514 0.53386 0.0
C131 C 0.48069 0.94029 0.54441 0.0
C132 C 0.466 0.9262 0.68516 0.0
C133 C 0.43956 0.93089 0.67442 0.0
C134 C 0.51294 0.93807 0.64119 0.0
C135 C 0.53326 0.96155 0.91947 0.0
C136 C 0.47104 0.01173 0.87792 0.0
C137 C 0.55599 0.0956 1.00607 0.0
C138 C 0.59968 0.12308 0.04704 0.0
C139 C 0.60153 0.10776 0.96845 0.0
C140 C 0.57979 0.094 0.94816 0.0
C141 C 0.55327 0.11333 0.08122 0.0
C142 C 0.57497 0.12712 0.10154 0.0
C143 C 0.53558 0.07533 0.99408 0.0
H144 H 0.45003 0.95374 0.47591 0.0
H145 H 0.4963 0.94525 0.49454 0.0
H146 H 0.46991 0.91993 0.74542 0.0
H147 H 0.42388 0.9276 0.72582 0.0
H148 H 0.62039 0.10399 0.92565 0.0
H149 H 0.58215 0.08028 0.88984 0.0
H150 H 0.53496 0.1148 0.12644 0.0
H151 H 0.57303 0.13896 0.16226 0.0
Dy152 Dy 0.54999 0.50384 0.82381 0.0
Dy153 Dy 0.4951 0.49114 0.73944 0.0
C154 C 0.51745 0.4452 0.87605 0.0
O155 O 0.5631 0.46653 0.7216 0.0
O156 O 0.53057 0.47564 0.64257 0.0
O157 O 0.59189 0.49388 0.8316 0.0
O158 O 0.56787 0.53314 0.90413 0.0
O159 O 0.51025 0.53093 0.67061 0.0
O160 O 0.54329 0.54365 0.74219 0.0
O161 O 0.48322 0.52948 0.83906 0.0
O162 O 0.51393 0.51628 0.92086 0.0
O163 O 0.47524 0.46129 0.66609 0.0
O164 O 0.4538 0.50388 0.72925 0.0
C165 C 0.55349 0.46159 0.6536 0.0
O166 O 0.53676 0.46208 0.8866 0.0
O167 O 0.50056 0.45231 0.82556 0.0
C168 C 0.60562 0.51038 0.95736 0.0
C169 C 0.63571 0.50368 0.08709 0.0
C170 C 0.60773 0.5106 0.10513 0.0
C171 C 0.59285 0.51391 0.04104 0.0
C172 C 0.63342 0.50317 0.93939 0.0
C173 C 0.64825 0.49987 1.00313 0.0
C174 C 0.59108 0.5165 0.88776 0.0
C175 C 0.52799 0.54933 0.68641 0.0
C176 C 0.49205 0.53252 0.909 0.0
C177 C 0.43905 0.48526 0.60652 0.0
C178 C 0.40691 0.4893 0.48125 0.0
C179 C 0.43031 0.46822 0.47052 0.0
C180 C 0.4461 0.46614 0.53241 0.0
C181 C 0.41621 0.50705 0.61591 0.0
C182 C 0.40045 0.50912 0.55417 0.0
C183 C 0.45313 0.48009 0.67796 0.0
H184 H 0.59729 0.51337 0.16882 0.0
H185 H 0.57143 0.5196 0.05703 0.0
H186 H 0.64383 0.50074 0.87558 0.0
H187 H 0.66973 0.49509 0.98635 0.0
H188 H 0.43585 0.45234 0.4158 0.0
H189 H 0.46334 0.44878 0.52322 0.0
H190 H 0.40999 0.52192 0.67238 0.0
H191 H 0.38286 0.52598 0.56435 0.0
Dy192 Dy 0.01333 0.53763 0.78003 0.0
Dy193 Dy 1.00962 0.47161 0.87147 0.0
C194 C 0.02199 0.4723 0.67091 0.0
O195 O 0.97801 0.51697 0.74701 0.0
O196 O 0.9674 0.48987 0.86234 0.0
O197 O 0.99129 0.57798 0.73949 0.0
O198 O 0.034 0.57557 0.72979 0.0
O199 O 0.01585 0.50672 0.96812 0.0
O200 O 0.99709 0.54981 0.91533 0.0
O201 O 0.0533 0.47654 0.84989 0.0
O202 O 0.054 0.52754 0.81283 0.0
O203 O 0.99478 0.44643 0.9769 0.0
O204 O 0.02005 0.4216 0.86871 0.0
C205 C 0.9609 0.50241 0.79597 0.0
O206 O 0.02846 0.50115 0.6747 0.0
O207 O 1.0112 0.45915 0.73747 0.0
C208 C 0.01695 0.59347 0.61675 0.0
C209 C 0.04912 0.57249 0.46631 0.0
C210 C 0.02478 0.56029 0.49023 0.0
C211 C 1.00863 0.57078 0.56573 0.0
C212 C 0.03756 0.61073 0.58266 0.0
C213 C 0.05378 0.60013 0.50703 0.0
C214 C 0.01301 0.58945 0.70633 0.0
C215 C 1.0056 0.53601 0.97717 0.0
C216 C 0.06587 0.50136 0.83398 0.0
C217 C 0.98667 0.39512 0.9448 0.0
C218 C 0.94829 0.35464 0.99489 0.0
C219 C 0.94134 0.38202 0.95649 0.0
C220 C 0.96048 0.4022 0.93146 0.0
C221 C 0.99432 0.36601 0.97312 0.0
C222 C 0.97521 0.34572 0.99718 0.0
C223 C 1.00494 0.41927 0.94038 0.0
H224 H 0.02069 0.53919 0.45873 0.0
H225 H 0.99247 0.55743 0.58979 0.0
H226 H 0.04403 0.62866 0.62052 0.0
H227 H 0.07234 0.61011 0.48866 0.0
H228 H 0.92065 0.38958 0.95458 0.0
H229 H 0.95434 0.42447 0.9085 0.0
H230 H 0.01456 0.36 0.98263 0.0
H231 H 0.9809 0.32452 0.02509 0.0
C232 C 0.20753 0.9908 0.36175 0.0
C233 C 0.21613 0.01961 0.33894 0.0
C234 C 0.18153 0.98884 0.40576 0.0
C235 C 0.16357 0.0164 0.42807 0.0
C236 C 0.17154 0.04521 0.39944 0.0
C237 C 0.19771 0.04649 0.35595 0.0
C238 C 0.17415 0.95759 0.43455 0.0
C239 C 0.15319 0.0752 0.42063 0.0
C240 C 0.09015 0.00999 0.52104 0.0
C241 C 0.08981 0.01446 0.60673 0.0
C242 C 0.11381 0.01063 0.46222 0.0
C243 C 0.13795 0.01569 0.48918 0.0
C244 C 0.13772 0.02014 0.57556 0.0
C245 C 0.1138 0.01956 0.63286 0.0
C246 C 0.11297 0.00594 0.37108 0.0
C247 C 0.16286 0.02549 0.60773 0.0
H248 H 0.22189 0.97011 0.35127 0.0
H249 H 0.20444 0.06895 0.34084 0.0
H250 H 0.17363 0.95717 0.5024 0.0
H251 H 0.15399 0.95376 0.42311 0.0
H252 H 0.18865 0.93796 0.40308 0.0
H253 H 0.16069 0.09463 0.38421 0.0
H254 H 0.13292 0.07195 0.40917 0.0
H255 H 0.1514 0.08204 0.48754 0.0
H256 H 0.07184 0.00607 0.49966 0.0
H257 H 0.11399 0.02299 0.69858 0.0
H258 H 0.12698 0.98535 0.34336 0.0
H259 H 0.11958 0.02654 0.33826 0.0
H260 H 0.0927 1.00239 0.35982 0.0
H261 H 0.17838 0.00552 0.58675 0.0
H262 H 0.1595 0.02831 0.67653 0.0
H263 H 0.17083 0.04674 0.58217 0.0
C264 C 0.50773 0.19123 0.39585 0.0
C265 C 0.53271 0.19231 0.34575 0.0
C266 C 0.50296 0.16639 0.44765 0.0
C267 C 0.52364 0.142 0.44896 0.0
C268 C 0.54823 0.14193 0.39355 0.0
C269 C 0.55255 0.16725 0.3434 0.0
C270 C 0.47652 0.16763 0.50579 0.0
C271 C 0.57072 0.11629 0.39155 0.0
C272 C 0.52827 0.10428 0.65251 0.0
C273 C 0.51874 0.0753 0.64058 0.0
C274 C 0.5294 0.12622 0.59143 0.0
C275 C 0.52099 0.11915 0.51557 0.0
C276 C 0.51092 0.09015 0.50342 0.0
C277 C 0.50981 0.06864 0.56613 0.0
C278 C 0.54008 0.15689 0.60771 0.0
C279 C 0.5019 0.08158 0.42346 0.0
H280 H 0.49256 0.21091 0.39891 0.0
H281 H 0.57201 0.16832 0.30555 0.0
H282 H 0.46874 0.14453 0.50544 0.0
H283 H 0.47926 0.17356 0.57004 0.0
H284 H 0.46139 0.18543 0.48932 0.0
H285 H 0.58727 0.11767 0.33858 0.0
H286 H 0.57876 0.11806 0.44992 0.0
H287 H 0.56338 0.09303 0.38728 0.0
H288 H 0.53513 0.10983 0.70972 0.0
H289 H 0.50253 0.0463 0.55592 0.0
H290 H 0.52528 0.17669 0.60015 0.0
H291 H 0.55845 0.1588 0.56188 0.0
H292 H 0.54485 0.15934 0.67101 0.0
H293 H 0.48661 0.09993 0.4107 0.0
H294 H 0.49347 0.05881 0.42489 0.0
H295 H 0.51901 0.08023 0.3711 0.0
C296 C 0.30507 0.45017 0.18537 0.0
C297 C 0.29123 0.47651 0.15897 0.0
C298 C 0.32647 0.45292 0.22747 0.0
C299 C 0.33418 0.48285 0.24465 0.0
C300 C 0.32145 0.50932 0.21299 0.0
C301 C 0.30011 0.50584 0.17054 0.0
C302 C 0.33944 0.42397 0.25914 0.0
C303 C 0.32899 0.54165 0.22939 0.0
C304 C 0.36073 0.49206 0.44671 0.0
C305 C 0.38847 0.48933 0.41942 0.0
C306 C 0.343 0.49078 0.39043 0.0
C307 C 0.35306 0.48662 0.304 0.0
C308 C 0.381 0.48441 0.2757 0.0
C309 C 0.39834 0.48569 0.33356 0.0
C310 C 0.31343 0.49307 0.42387 0.0
C311 C 0.39262 0.48015 0.18431 0.0
H312 H 0.29804 0.42752 0.17746 0.0
H313 H 0.28916 0.52634 0.15173 0.0
H314 H 0.36147 0.42314 0.24446 0.0
H315 H 0.33358 0.42455 0.32765 0.0
H316 H 0.33349 0.40222 0.23228 0.0
H317 H 0.32176 0.54929 0.2957 0.0
H318 H 0.35098 0.54163 0.21708 0.0
H319 H 0.3202 0.55897 0.19083 0.0
H320 H 0.35278 0.49433 0.51266 0.0
H321 H 0.41967 0.48389 0.31146 0.0
H322 H 0.30559 0.47098 0.4076 0.0
H323 H 0.30274 0.51211 0.39507 0.0
H324 H 0.3087 0.4976 0.49233 0.0
H325 H 0.38809 0.45744 0.15879 0.0
H326 H 0.41458 0.4807 0.17185 0.0
H327 H 0.38336 0.49873 0.15041 0.0
C328 C 0.99045 0.38507 0.27525 0.0
C329 C 1.00696 0.35693 0.25224 0.0
C330 C 0.9973 0.40798 0.32873 0.0
C331 C 0.02165 0.40299 0.3583 0.0
C332 C 0.04013 0.37682 0.325 0.0
C333 C 0.03243 0.3538 0.27297 0.0
C334 C 0.97679 0.43526 0.36225 0.0
C335 C 0.06681 0.37134 0.35172 0.0
C336 C 0.03424 0.4664 0.51363 0.0
C337 C 0.02429 0.45428 0.58954 0.0
C338 C 0.03488 0.44949 0.43738 0.0
C339 C 0.02448 0.4202 0.43703 0.0
C340 C 0.01468 0.40779 0.51357 0.0
C341 C 0.01503 0.42469 0.58823 0.0
C342 C 0.04604 0.46331 0.35745 0.0
C343 C 1.0029 0.37697 0.51697 0.0
H344 H 0.97084 0.3877 0.2584 0.0
H345 H 0.04533 0.33217 0.25514 0.0
H346 H 0.96686 0.43078 0.42574 0.0
H347 H 0.98626 0.45714 0.36665 0.0
H348 H 0.96125 0.43881 0.3231 0.0
H349 H 0.08099 0.35476 0.30723 0.0
H350 H 0.07564 0.39363 0.35758 0.0
H351 H 0.06415 0.3613 0.41338 0.0
H352 H 0.04106 0.48926 0.51365 0.0
H353 H 1.00723 0.41484 0.64597 0.0
H354 H 0.02957 0.47109 0.32488 0.0
H355 H 0.05971 0.44546 0.31556 0.0
H356 H 0.05695 0.48367 0.36821 0.0
H357 H 0.98565 0.37809 0.48425 0.0
H358 H 0.99602 0.37066 0.58155 0.0
H359 H 0.01789 0.35796 0.48505 0.0
C360 C 0.84518 0.03607 0.27028 0.0
C361 C 0.82434 0.02016 0.2503 0.0
C362 C 0.87083 0.03185 0.2201 0.0
C363 C 0.87584 0.01141 0.14744 0.0
C364 C 0.85527 0.99377 0.13029 0.0
C365 C 0.82983 0.9985 0.18144 0.0
C366 C 0.89196 0.05113 0.24156 0.0
C367 C 0.85948 0.97158 0.05423 0.0
C368 C 0.92618 0.03168 0.9609 0.0
C369 C 0.94879 0.01063 0.96339 0.0
C370 C 0.90261 0.03221 0.02041 0.0
C371 C 0.90127 0.01114 0.08475 0.0
C372 C 0.92401 0.98982 0.08781 0.0
C373 C 0.94742 0.98985 0.02746 0.0
C374 C 0.87903 0.05542 0.01418 0.0
C375 C 0.92361 0.96687 0.15475 0.0
H376 H 0.84089 0.05352 0.32188 0.0
H377 H 0.81365 0.9868 0.1643 0.0
H378 H 0.91128 0.0364 0.23666 0.0
H379 H 0.89502 0.06957 0.19679 0.0
H380 H 0.88635 0.06255 0.30515 0.0
H381 H 0.84295 0.95671 0.05523 0.0
H382 H 0.86079 0.98515 0.99799 0.0
H383 H 0.87851 0.95625 0.04879 0.0
H384 H 0.92684 0.04792 0.91217 0.0
H385 H 0.96465 0.97345 0.03046 0.0
H386 H 0.87323 0.07062 0.07222 0.0
H387 H 0.86165 0.04287 1.00665 0.0
H388 H 0.88326 0.07046 0.9612 0.0
H389 H 0.9191 0.9796 0.21672 0.0
H390 H 0.94288 0.9519 0.14911 0.0
H391 H 0.90756 0.95162 0.15182 0.0
C392 C 0.53712 0.81456 0.21299 0.0
C393 C 0.51136 0.80513 0.22509 0.0
C394 C 0.54291 0.84151 0.1703 0.0
C395 C 0.52252 0.85932 0.13858 0.0
C396 C 0.49622 0.8508 0.15484 0.0
C397 C 0.49098 0.82407 0.19819 0.0
C398 C 0.57109 0.85009 0.15582 0.0
C399 C 0.47379 0.86898 0.12268 0.0
C400 C 0.52751 0.94139 0.06263 0.0
C401 C 0.53353 0.9354 0.9761 0.0
C402 C 0.52528 0.91685 0.11659 0.0
C403 C 0.52869 0.88548 0.08345 0.0
C404 C 0.53563 0.87928 0.99628 0.0
C405 C 0.53814 0.90423 0.94386 0.0
C406 C 0.51831 0.92458 0.20901 0.0
C407 C 0.53917 0.84628 0.95797 0.0
H408 H 0.55301 0.80007 0.23321 0.0
H409 H 0.47092 0.81728 0.20851 0.0
H410 H 0.58005 0.84554 0.0892 0.0
H411 H 0.57125 0.87537 0.17151 0.0
H412 H 0.5838 0.83647 0.19297 0.0
H413 H 0.45422 0.86025 0.14413 0.0
H414 H 0.47227 0.89407 0.14304 0.0
H415 H 0.47797 0.86727 0.05382 0.0
H416 H 0.52408 0.96536 0.08836 0.0
H417 H 0.54272 0.89926 0.87724 0.0
H418 H 0.53182 0.91 0.24157 0.0
H419 H 0.4977 0.91924 0.23249 0.0
H420 H 0.51956 0.94961 0.2254 0.0
H421 H 0.55375 0.83143 0.98603 0.0
H422 H 0.54611 0.84519 0.88973 0.0
H423 H 0.51992 0.83612 0.97084 0.0
C424 C 0.74591 0.50289 0.37815 0.0
C425 C 0.74331 0.47966 0.43528 0.0
C426 C 0.72591 0.51062 0.33114 0.0
C427 C 0.70274 0.49468 0.34138 0.0
C428 C 0.699 0.47331 0.40464 0.0
C429 C 0.7194 0.4659 0.45031 0.0
C430 C 0.73085 0.5336 0.26483 0.0
C431 C 0.6746 0.45597 0.4188 0.0
C432 C 0.64607 0.52108 0.22659 0.0
C433 C 0.65199 0.50075 0.15471 0.0
C434 C 0.66212 0.51929 0.28835 0.0
C435 C 0.68473 0.4967 0.27828 0.0
C436 C 0.69053 0.47584 0.20657 0.0
C437 C 0.67414 0.47805 0.14621 0.0
C438 C 0.65509 0.54188 0.3638 0.0
C439 C 0.71431 0.45122 0.19304 0.0
H440 H 0.76464 0.51294 0.3647 0.0
H441 H 0.7176 0.44737 0.49291 0.0
H442 H 0.73601 0.52071 0.20308 0.0
H443 H 0.71265 0.54988 0.26495 0.0
H444 H 0.74747 0.54743 0.27301 0.0
H445 H 0.67245 0.44445 0.47854 0.0
H446 H 0.6563 0.47202 0.41842 0.0
H447 H 0.67616 0.43771 0.36782 0.0
H448 H 0.62923 0.53894 0.23379 0.0
H449 H 0.6787 0.46178 0.09207 0.0
H450 H 0.65305 0.5289 0.4211 0.0
H451 H 0.63625 0.55715 0.36442 0.0
H452 H 0.67139 0.55685 0.36557 0.0
H453 H 0.7329 0.46249 0.19169 0.0
H454 H 0.71609 0.43675 0.1342 0.0
H455 H 0.71274 0.43558 0.24521 0.0
C456 C 0.02245 0.65076 0.35434 0.0
C457 C 0.99808 0.65778 0.40909 0.0
C458 C 0.02614 0.62581 0.29366 0.0
C459 C 1.00496 0.60752 0.28799 0.0
C460 C 0.98196 0.61169 0.35108 0.0
C461 C 0.9787 0.63694 0.41066 0.0
C462 C 0.05145 0.6216 0.22974 0.0
C463 C 0.95948 0.59174 0.35008 0.0
C464 C 0.99455 0.58562 0.06907 0.0
C465 C 1.00457 0.55392 0.05785 0.0
C466 C 0.99449 0.60304 0.14374 0.0
C467 C 1.00478 0.58855 0.20929 0.0
C468 C 0.01487 0.55652 0.19845 0.0
C469 C 0.01449 0.53961 0.12332 0.0
C470 C 0.98354 0.63715 0.15222 0.0
C471 C 0.02592 0.53977 0.26585 0.0
H472 H 0.03738 0.66697 0.3523 0.0
H473 H 0.95976 0.64243 0.45255 0.0
H474 H 0.05738 0.59659 0.20954 0.0
H475 H 0.04809 0.63427 0.17439 0.0
H476 H 0.06813 0.63116 0.25399 0.0
H477 H 0.94492 0.59475 0.40937 0.0
H478 H 0.94884 0.59828 0.29891 0.0
H479 H 0.96738 0.56671 0.33854 0.0
H480 H 0.98688 0.597 0.01917 0.0
H481 H 0.02226 0.51511 0.11583 0.0
H482 H 0.99929 0.6518 0.16372 0.0
H483 H 0.96696 0.64148 0.20626 0.0
H484 H 0.97605 0.64487 0.09602 0.0
H485 H 0.03542 0.55563 0.30358 0.0
H486 H 0.04082 0.51971 0.23966 0.0
H487 H 1.0094 0.53058 0.30758 0.0
C488 C 0.94634 0.27803 0.40708 0.0
C489 C 0.93944 0.2837 0.3298 0.0
C490 C 0.93442 0.25567 0.45589 0.0
C491 C 0.91507 0.23913 0.42649 0.0
C492 C 0.90451 0.24925 0.35693 0.0
C493 C 0.91713 0.27129 0.30825 0.0
C494 C 0.94563 0.24634 0.53152 0.0
C495 C 0.88228 0.23379 0.32841 0.0
C496 C 0.93275 0.15252 0.43287 0.0
C497 C 0.91791 0.14633 0.50923 0.0
C498 C 0.93081 0.18239 0.40337 0.0
C499 C 0.91292 0.20658 0.45053 0.0
C500 C 0.89615 0.1998 0.52433 0.0
C501 C 0.89928 0.16977 0.55396 0.0
C502 C 0.94943 0.18838 0.32456 0.0
C503 C 0.87583 0.22424 0.5745 0.0
H504 H 0.96332 0.28799 0.4245 0.0
H505 H 0.91124 0.27655 0.24959 0.0
H506 H 0.9293 0.24365 0.58386 0.0
H507 H 0.95806 0.22347 0.51742 0.0
H508 H 0.95818 0.26377 0.55146 0.0
H509 H 0.87453 0.24622 0.27828 0.0
H510 H 0.88953 0.20937 0.3047 0.0
H511 H 0.86572 0.23284 0.38157 0.0
H512 H 0.94736 0.13446 0.39879 0.0
H513 H 0.88768 0.16486 0.61294 0.0
H514 H 0.96237 0.20646 0.3376 0.0
H515 H 0.93783 0.19721 0.27776 0.0
H516 H 0.96246 0.16702 0.29667 0.0
H517 H 0.88399 0.2335 0.62781 0.0
H518 H 0.85748 0.21368 0.60037 0.0
H519 H 0.87033 0.244 0.53743 0.0
C520 C 0.31681 0.04483 0.47559 0.0
C521 C 0.29493 0.02839 0.46965 0.0
C522 C 0.33597 0.03361 0.52134 0.0
C523 C 0.33261 0.0058 0.56286 0.0
C524 C 0.3081 0.99289 0.5701 0.0
C525 C 0.28946 0.00422 0.52249 0.0
C526 C 0.36144 0.04883 0.5151 0.0
C527 C 0.30316 0.96455 0.61886 0.0
C528 C 0.39548 0.94948 0.52376 0.0
C529 C 0.40576 0.95467 0.59603 0.0
C530 C 0.37111 0.96523 0.51392 0.0
C531 C 0.35656 0.98645 0.57852 0.0
C532 C 0.36624 0.99072 0.65326 0.0
C533 C 0.39081 0.97476 0.66103 0.0
C534 C 0.36161 0.96025 0.43257 0.0
C535 C 0.35112 0.0124 0.72453 0.0
H536 H 0.32058 0.06415 0.43655 0.0
H537 H 0.27229 0.99174 0.51935 0.0
H538 H 0.36786 0.05026 0.57618 0.0
H539 H 0.3775 0.03445 0.47103 0.0
H540 H 0.3592 0.07272 0.49254 0.0
H541 H 0.28157 0.96168 0.63356 0.0
H542 H 0.31367 0.94333 0.58186 0.0
H543 H 0.31105 0.96623 0.67753 0.0
H544 H 0.40693 0.93379 0.47382 0.0
H545 H 0.39894 0.97927 0.71648 0.0
H546 H 0.36016 0.98262 0.40172 0.0
H547 H 0.34144 0.95231 0.44385 0.0
H548 H 0.37517 0.94268 0.38927 0.0
H549 H 0.34022 0.0331 0.70294 0.0
H550 H 0.36466 0.02062 0.76482 0.0
H551 H 0.33623 0.99956 0.76286 0.0
C552 C 0.56053 0.29785 0.46231 0.0
C553 C 0.57358 0.29067 0.38029 0.0
C554 C 0.56479 0.32494 0.50622 0.0
C555 C 0.58282 0.34496 0.46728 0.0
C556 C 0.59854 0.33566 0.38858 0.0
C557 C 0.59349 0.30871 0.34537 0.0
C558 C 0.54767 0.33387 0.59034 0.0
C559 C 0.61882 0.35562 0.34659 0.0
C560 C 0.55497 0.42889 0.52358 0.0
C561 C 0.56639 0.43566 0.59306 0.0
C562 C 0.56174 0.40013 0.47798 0.0
C563 C 0.58084 0.37779 0.50138 0.0
C564 C 0.59471 0.38588 0.56517 0.0
C565 C 0.58717 0.41472 0.61088 0.0
C566 C 0.54657 0.39264 0.40975 0.0
C567 C 0.61599 0.36326 0.58967 0.0
H568 H 0.54506 0.28401 0.48931 0.0
H569 H 0.60383 0.30293 0.28216 0.0
H570 H 0.55997 0.34146 0.63516 0.0
H571 H 0.53269 0.35383 0.5851 0.0
H572 H 0.53692 0.31427 0.61572 0.0
H573 H 0.63386 0.34172 0.29817 0.0
H574 H 0.60857 0.37456 0.31624 0.0
H575 H 0.62921 0.36669 0.39221 0.0
H576 H 0.53927 0.44513 0.50814 0.0
H577 H 0.59644 0.41989 0.6637 0.0
H578 H 0.53374 0.37396 0.42857 0.0
H579 H 0.56055 0.3838 0.35209 0.0
H580 H 0.53369 0.41329 0.39564 0.0
H581 H 0.60644 0.34688 0.63282 0.0
H582 H 0.62966 0.37563 0.62183 0.0
H583 H 0.62786 0.34923 0.53481 0.0
C584 C 0.19364 0.49134 0.32201 0.0
C585 C 0.1958 0.46681 0.26146 0.0
C586 C 0.16865 0.504 0.3658 0.0
C587 C 0.14554 0.49154 0.34868 0.0
C588 C 0.14798 0.46386 0.29714 0.0
C589 C 0.17327 0.4516 0.25427 0.0
C590 C 0.16683 0.53302 0.42248 0.0
C591 C 0.12375 0.44923 0.28034 0.0
C592 C 0.08089 0.52736 0.48077 0.0
C593 C 0.07241 0.55038 0.43049 0.0
C594 C 0.10385 0.50672 0.45328 0.0
C595 C 0.11925 0.51009 0.37465 0.0
C596 C 0.11067 0.53324 0.32307 0.0
C597 C 0.0873 0.5534 0.35213 0.0
C598 C 0.11209 0.48242 0.51018 0.0
C599 C 0.12665 0.5374 0.23848 0.0
H600 H 0.21099 0.50312 0.32802 0.0
H601 H 0.17504 0.4323 0.20823 0.0
H602 H 0.15919 0.55359 0.39176 0.0
H603 H 0.1527 0.53125 0.48113 0.0
H604 H 0.18653 0.53721 0.43764 0.0
H605 H 0.12913 0.42548 0.2491 0.0
H606 H 0.10953 0.44769 0.33899 0.0
H607 H 0.11332 0.46411 0.23981 0.0
H608 H 0.06977 0.52603 0.54299 0.0
H609 H 0.08096 0.57177 0.31463 0.0
H610 H 0.12773 0.49081 0.54183 0.0
H611 H 0.12052 0.46003 0.475 0.0
H612 H 0.09504 0.47794 0.55858 0.0
H613 H 0.14639 0.54463 0.24514 0.0
H614 H 0.11646 0.55525 0.20447 0.0
H615 H 0.13029 0.51492 0.20052 0.0
C616 C 0.98417 0.75069 0.24484 0.0
C617 C 0.96646 0.75854 0.32009 0.0
C618 C 0.9906 0.77356 0.18913 0.0
C619 C 0.97875 0.80461 0.2093 0.0
C620 C 0.95718 0.8111 0.27657 0.0
C621 C 0.95131 0.78786 0.33195 0.0
C622 C 0.01307 0.76547 0.11617 0.0
C623 C 0.94292 0.84361 0.29658 0.0
C624 C 0.02799 0.8646 0.1851 0.0
C625 C 0.02426 0.87692 0.11016 0.0
C626 C 0.01295 0.84128 0.21819 0.0
C627 C 0.9934 0.83048 0.17569 0.0
C628 C 0.9891 0.84345 0.10087 0.0
C629 C 1.00486 0.86631 0.06842 0.0
C630 C 0.01832 0.8279 0.29815 0.0
C631 C 0.96834 0.83307 0.05393 0.0
H632 H 0.99576 0.72794 0.23443 0.0
H633 H 0.93704 0.79369 0.389 0.0
H634 H 1.00857 0.77713 0.06058 0.0
H635 H 0.03155 0.77385 0.13122 0.0
H636 H 0.01693 0.73985 0.10093 0.0
H637 H 0.92314 0.84327 0.3369 0.0
H638 H 0.95507 0.85789 0.32986 0.0
H639 H 0.94019 0.85511 0.23897 0.0
H640 H 0.04301 0.87287 0.21706 0.0
H641 H 1.00173 0.87625 0.01083 0.0
H642 H 0.024 0.80229 0.28826 0.0
H643 H 1.00001 0.83178 0.34638 0.0
H644 H 0.03451 0.83857 0.32233 0.0
H645 H 0.97749 0.81329 0.0091 0.0
H646 H 0.96084 0.85219 0.0179 0.0
H647 H 0.95116 0.8252 0.09583 0.0
C648 C 0.7325 0.11762 0.23654 0.0
C649 C 0.74397 0.08727 0.20892 0.0
C650 C 0.71219 0.13235 0.19997 0.0
C651 C 0.70259 0.11565 0.13729 0.0
C652 C 0.71626 0.08645 0.10321 0.0
C653 C 0.73707 0.07271 0.13917 0.0
C654 C 0.69914 0.16429 0.23444 0.0
C655 C 0.70673 0.06784 0.03621 0.0
C656 C 0.62851 0.11536 0.1522 0.0
C657 C 0.62438 0.1283 0.07808 0.0
C658 C 0.65365 0.11294 0.17463 0.0
C659 C 0.67516 0.12436 0.1223 0.0
C660 C 0.67057 0.1401 0.05133 0.0
C661 C 0.64523 0.14142 0.02914 0.0
C662 C 0.65758 0.09571 0.25072 0.0
C663 C 0.69262 0.15383 0.99593 0.0
H664 H 0.73808 0.12885 0.2904 0.0
H665 H 0.746 0.04916 0.11833 0.0
H666 H 0.69303 0.17837 0.18453 0.0
H667 H 0.68096 0.16182 0.28053 0.0
H668 H 0.7127 0.17712 0.26595 0.0
H669 H 0.72125 0.0474 0.01022 0.0
H670 H 0.68751 0.05921 0.06237 0.0
H671 H 0.70321 0.08272 0.98497 0.0
H672 H 0.61255 0.10479 0.18954 0.0
H673 H 0.642 0.15163 0.97201 0.0
H674 H 0.66657 0.11037 0.29312 0.0
H675 H 0.67149 0.07411 0.23212 0.0
H676 H 0.63858 0.08906 0.28571 0.0
H677 H 0.70734 0.1622 0.03154 0.0
H678 H 0.68449 0.17358 0.96313 0.0
H679 H 0.70324 0.13569 0.94826 0.0
C680 C 0.45516 0.68547 0.21836 0.0
C681 C 0.47518 0.70337 0.18355 0.0
C682 C 0.45005 0.65858 0.17517 0.0
C683 C 0.46579 0.64924 0.09655 0.0
C684 C 0.48408 0.66904 0.05788 0.0
C685 C 0.48842 0.69606 0.10184 0.0
C686 C 0.42962 0.63878 0.21701 0.0
C687 C 0.50123 0.65999 0.97386 0.0
C688 C 0.49206 0.56495 0.03835 0.0
C689 C 0.48016 0.55879 0.96954 0.0
C690 C 0.48601 0.59369 0.08428 0.0
C691 C 0.46722 0.61662 0.06172 0.0
C692 C 0.45297 0.60927 0.99834 0.0
C693 C 0.45975 0.58043 0.95242 0.0
C694 C 0.50155 0.60046 0.1521 0.0
C695 C 0.43207 0.63264 0.97462 0.0
H696 H 0.44472 0.69138 0.2814 0.0
H697 H 0.50398 0.70983 0.07507 0.0
H698 H 0.41899 0.62811 0.17139 0.0
H699 H 0.43977 0.61953 0.24656 0.0
H700 H 0.41477 0.65266 0.266 0.0
H701 H 0.51225 0.67943 0.94876 0.0
H702 H 0.51596 0.63978 0.97911 0.0
H703 H 0.48889 0.65271 0.92879 0.0
H704 H 0.50754 0.5482 0.05304 0.0
H705 H 0.45012 0.57571 0.90011 0.0
H706 H 0.48782 0.60954 0.21005 0.0
H707 H 0.51478 0.61873 0.13313 0.0
H708 H 0.51405 0.57941 0.16572 0.0
H709 H 0.41833 0.621 0.94105 0.0
H710 H 0.44197 0.64929 0.93314 0.0
H711 H 0.42022 0.64632 0.0301 0.0
C712 C 0.82848 0.4107 0.26909 0.0
C713 C 0.8181 0.39846 0.34381 0.0
C714 C 0.84746 0.39269 0.20953 0.0
C715 C 0.85545 0.36121 0.2241 0.0
C716 C 0.84286 0.34786 0.29606 0.0
C717 C 0.82473 0.36696 0.35646 0.0
C718 C 0.86079 0.4085 0.13522 0.0
C719 C 0.84951 0.31409 0.31224 0.0
C720 C 0.90409 0.33388 0.03123 0.0
C721 C 0.92743 0.34253 0.05489 0.0
C722 C 0.88065 0.33425 0.0905 0.0
C723 C 0.88047 0.34553 0.17297 0.0
C724 C 0.90484 0.35014 0.19867 0.0
C725 C 0.92818 0.3479 0.1392 0.0
C726 C 0.85553 0.32598 0.06304 0.0
C727 C 0.90573 0.3617 0.2864 0.0
H728 H 0.82326 0.43519 0.26018 0.0
H729 H 0.81642 0.35757 0.41441 0.0
H730 H 0.8825 0.40779 0.13516 0.0
H731 H 0.8583 0.39609 0.07699 0.0
H732 H 0.8525 0.4333 0.13458 0.0
H733 H 0.83122 0.304 0.34087 0.0
H734 H 0.85881 0.29984 0.25461 0.0
H735 H 0.86338 0.31249 0.35709 0.0
H736 H 0.90364 0.3292 0.96605 0.0
H737 H 0.9463 0.35451 0.15733 0.0
H738 H 0.8448 0.34715 0.04311 0.0
H739 H 0.84203 0.31665 0.11447 0.0
H740 H 0.86022 0.30839 0.0095 0.0
H741 H 0.89215 0.38359 0.30419 0.0
H742 H 0.92601 0.36649 0.29447 0.0
H743 H 0.899 0.344 0.33002 0.0
C744 C 0.02636 0.24281 0.05384 0.0
C745 C 1.00133 0.26038 0.06429 0.0
C746 C 0.03194 0.21481 1.00289 0.0
C747 C 1.01186 0.20395 0.96281 0.0
C748 C 0.98753 0.22324 0.96716 0.0
C749 C 0.98275 0.25133 0.01682 0.0
C750 C 0.0585 0.19558 0.99775 0.0
C751 C 0.96532 0.21275 0.92683 0.0
C752 C 0.02395 0.13137 0.81144 0.0
C753 C 0.01662 0.1079 0.86481 0.0
C754 C 0.02337 0.16261 0.84239 0.0
C755 C 0.01439 0.17073 0.92824 0.0
C756 C 1.00657 0.14708 0.98187 0.0
C757 C 1.00818 0.11603 0.94978 0.0
C758 C 0.03255 0.18686 0.78349 0.0
C759 C 0.99607 0.1546 0.07334 0.0
H760 H 0.04077 0.24957 0.09045 0.0
H761 H 0.96341 0.26498 0.02435 0.0
H762 H 0.05607 0.17586 0.03869 0.0
H763 H 0.06615 0.18551 0.93356 0.0
H764 H 0.07355 0.20963 0.01768 0.0
H765 H 0.9493 0.23208 0.92616 0.0
H766 H 0.97302 0.20328 0.86223 0.0
H767 H 0.95644 0.19373 0.96173 0.0
H768 H 0.03072 0.12519 0.74584 0.0
H769 H 1.00228 0.09808 0.99133 0.0
H770 H 0.04869 0.19841 0.80535 0.0
H771 H 0.01591 0.20529 0.78223 0.0
H772 H 0.04002 0.17663 0.71928 0.0
H773 H 1.01146 0.16462 0.10295 0.0
H774 H 0.9902 0.1337 0.10626 0.0
H775 H 0.97844 0.17243 0.08197 0.0
C776 C 0.31414 0.03203 0.10077 0.0
C777 C 0.31175 0.01254 0.1674 0.0
C778 C 0.33834 0.0308 0.04281 0.0
C779 C 0.36097 0.01035 0.05313 0.0
C780 C 0.35797 0.98934 0.11733 0.0
C781 C 0.33342 0.99027 0.17206 0.0
C782 C 0.34014 0.0528 0.97362 0.0
C783 C 0.38133 0.96755 0.13296 0.0
C784 C 0.42534 0.99236 0.8907 0.0
C785 C 0.44214 0.01296 0.91797 0.0
C786 C 0.39867 0.99203 0.93183 0.0
C787 C 0.38832 0.01259 1.00263 0.0
C788 C 0.40505 0.03375 0.0295 0.0
C789 C 0.43148 0.03386 0.98673 0.0
C790 C 0.3816 0.96932 0.90033 0.0
C791 C 0.39537 0.05552 0.10584 0.0
H792 H 0.29775 0.04955 0.09692 0.0
H793 H 0.33184 0.9752 0.22356 0.0
H794 H 0.35093 0.07265 0.98934 0.0
H795 H 0.35148 0.04081 0.91495 0.0
H796 H 0.32009 0.06232 0.96338 0.0
H797 H 0.37538 0.95136 0.18206 0.0
H798 H 0.39099 0.95351 0.07538 0.0
H799 H 0.3965 0.98148 0.15249 0.0
H800 H 0.43311 0.9762 0.83748 0.0
H801 H 0.4441 0.04978 0.00906 0.0
H802 H 0.3642 0.98244 0.88095 0.0
H803 H 0.37365 0.95451 0.95038 0.0
H804 H 0.39275 0.95381 0.84719 0.0
H805 H 0.37705 0.0704 0.09884 0.0
H806 H 0.41056 0.07091 0.11816 0.0
H807 H 0.39016 0.0417 0.16075 0.0
C808 C 0.50312 0.30017 0.16803 0.0
C809 C 0.52656 0.27954 0.14745 0.0
C810 C 0.4978 0.32489 0.11782 0.0
C811 C 0.51644 0.32906 0.0454 0.0
C812 C 0.53882 0.3064 0.02039 0.0
C813 C 0.54371 0.28206 0.07205 0.0
C814 C 0.47367 0.34831 0.14705 0.0
C815 C 0.5591 0.30959 0.94342 0.0
C816 C 0.50167 0.3919 0.89656 0.0
C817 C 0.51533 0.4162 0.92223 0.0
C818 C 0.50148 0.36352 0.9364 0.0
C819 C 0.51504 0.35939 1.00405 0.0
C820 C 0.52821 0.38418 0.03155 0.0
C821 C 0.52829 0.41207 0.99025 0.0
C822 C 0.48736 0.33769 0.9048 0.0
C823 C 0.54268 0.38109 0.104 0.0
H824 H 0.49019 0.29876 0.22733 0.0
H825 H 0.56215 0.26658 0.05703 0.0
H826 H 0.48002 0.36975 0.17407 0.0
H827 H 0.46382 0.35514 0.09448 0.0
H828 H 0.45889 0.33904 0.19514 0.0
H829 H 0.57273 0.28772 0.9252 0.0
H830 H 0.54911 0.31587 0.89074 0.0
H831 H 0.57126 0.32866 0.95513 0.0
H832 H 0.49173 0.39469 0.84381 0.0
H833 H 0.53874 0.43067 0.01119 0.0
H834 H 0.4731 0.3296 0.95632 0.0
H835 H 0.50211 0.31738 0.87988 0.0
H836 H 0.47638 0.34516 0.85507 0.0
H837 H 0.52889 0.37512 0.1597 0.0
H838 H 0.55117 0.40286 0.11946 0.0
H839 H 0.55916 0.3618 0.08954 0.0
C840 C 0.20293 0.51901 0.98869 0.0
C841 C 0.21956 0.49062 0.9764 0.0
C842 C 0.1802 0.52344 0.95141 0.0
C843 C 0.17445 0.49931 0.89796 0.0
C844 C 0.19337 0.47256 0.87597 0.0
C845 C 0.21551 0.46834 0.91629 0.0
C846 C 0.1606 0.55211 0.9785 0.0
C847 C 0.1887 0.44671 0.81705 0.0
C848 C 0.10141 0.48523 0.91497 0.0
C849 C 0.09394 0.50032 0.84728 0.0
C850 C 0.12738 0.48505 0.93208 0.0
C851 C 0.14687 0.49934 0.87843 0.0
C852 C 0.1396 0.51398 0.8086 0.0
C853 C 0.11309 0.51485 0.7948 0.0
C854 C 0.13378 0.46997 0.00876 0.0
C855 C 0.15979 0.52877 0.74865 0.0
H856 H 0.20556 0.536 0.03656 0.0
H857 H 0.22792 0.4461 0.90757 0.0
H858 H 0.15219 0.56135 0.92546 0.0
H859 H 0.14379 0.54575 0.02489 0.0
H860 H 0.16991 0.57093 0.00739 0.0
H861 H 0.20735 0.43116 0.79285 0.0
H862 H 0.17388 0.43237 0.85003 0.0
H863 H 0.18055 0.45641 0.76399 0.0
H864 H 0.08663 0.4743 0.95633 0.0
H865 H 0.10743 0.52645 0.74218 0.0
H866 H 0.14141 0.48707 0.04873 0.0
H867 H 0.14969 0.45021 0.99086 0.0
H868 H 0.11614 0.46104 0.04593 0.0
H869 H 0.1661 0.54929 0.78012 0.0
H870 H 0.15173 0.53654 0.6934 0.0
H871 H 0.17787 0.51197 0.72763 0.0
C872 C 0.98304 0.77491 0.64395 0.0
C873 C 1.00112 0.75991 0.57618 0.0
C874 C 0.9879 0.80324 0.68172 0.0
C875 C 1.01115 0.81723 0.64993 0.0
C876 C 0.03059 0.80062 0.58659 0.0
C877 C 0.02534 0.77216 0.55055 0.0
C878 C 0.96694 0.81962 0.75048 0.0
C879 C 0.05581 0.81433 0.55138 0.0
C880 C 1.0036 0.90631 0.65199 0.0
C881 C 0.01623 0.91485 0.71759 0.0
C882 C 1.00212 0.87474 0.62929 0.0
C883 C 0.01323 0.85082 0.6738 0.0
C884 C 0.02603 0.85924 0.74015 0.0
C885 C 0.02741 0.89108 0.76106 0.0
C886 C 0.98862 0.86699 0.55731 0.0
C887 C 0.03772 0.8348 0.79059 0.0
H888 H 0.96403 0.76592 0.66263 0.0
H889 H 0.03903 0.7611 0.49678 0.0
H890 H 0.97631 0.82839 0.80175 0.0
H891 H 0.95649 0.84011 0.72644 0.0
H892 H 0.95192 0.804 0.77574 0.0
H893 H 0.07049 0.79685 0.51127 0.0
H894 H 0.0509 0.83413 0.51368 0.0
H895 H 0.0652 0.8236 0.60202 0.0
H896 H 0.99501 0.92436 0.61758 0.0
H897 H 0.03696 0.89732 0.81241 0.0
H898 H 0.97148 0.85374 0.57858 0.0
H899 H 1.00273 0.85187 0.50911 0.0
H900 H 0.98127 0.88821 0.5284 0.0
H901 H 0.02145 0.82703 0.83641 0.0
H902 H 0.05236 0.84411 0.82504 0.0
H903 H 0.0477 0.81398 0.7508 0.0
C904 C 0.71965 0.05336 0.51404 0.0
C905 C 0.7357 0.02933 0.46203 0.0
C906 C 0.69628 0.0477 0.56802 0.0
C907 C 0.68887 0.01694 0.57289 0.0
C908 C 0.70643 0.99207 0.52688 0.0
C909 C 0.72946 0.99855 0.47144 0.0
C910 C 0.67829 0.07521 0.61398 0.0
C911 C 0.69997 0.95876 0.53195 0.0
C912 C 0.62957 0.0059 0.74534 0.0
C913 C 0.60832 0.00652 0.70149 0.0
C914 C 0.65603 0.00786 0.70419 0.0
C915 C 0.66139 0.0117 0.61744 0.0
C916 C 0.63989 0.01257 0.57332 0.0
C917 C 0.61391 0.00949 0.61538 0.0
C918 C 0.67826 0.00593 0.75364 0.0
C919 C 0.64414 0.01771 0.48165 0.0
H920 H 0.7243 0.07723 0.50759 0.0
H921 H 0.74149 0.9798 0.43143 0.0
H922 H 0.65986 0.07871 0.58712 0.0
H923 H 0.6722 0.07075 0.68027 0.0
H924 H 0.68798 0.09715 0.61006 0.0
H925 H 0.71752 0.94182 0.50533 0.0
H926 H 0.69286 0.95363 0.59732 0.0
H927 H 0.68373 0.95524 0.49701 0.0
H928 H 0.62557 0.00348 0.81172 0.0
H929 H 0.59769 0.01037 0.58081 0.0
H930 H 0.68657 0.02869 0.7554 0.0
H931 H 0.69472 0.98818 0.72346 0.0
H932 H 0.67141 0.99982 0.81841 0.0
H933 H 0.65245 0.04026 0.47016 0.0
H934 H 0.62539 0.01804 0.45634 0.0
H935 H 0.65883 0.99898 0.44686 0.0
C936 C 0.5025 0.71384 0.49437 0.0
C937 C 0.52013 0.71659 0.42007 0.0
C938 C 0.50688 0.68918 0.54557 0.0
C939 C 0.52926 0.66647 0.52126 0.0
C940 C 0.54842 0.67092 0.45034 0.0
C941 C 0.5436 0.69593 0.40057 0.0
C942 C 0.48606 0.6857 0.621 0.0
C943 C 0.57261 0.6475 0.42199 0.0
C944 C 0.54312 0.60305 0.66925 0.0
C945 C 0.52995 0.57866 0.64143 0.0
C946 C 0.54339 0.63164 0.63052 0.0
C947 C 0.53034 0.63598 0.56189 0.0
C948 C 0.51755 0.61119 0.53243 0.0
C949 C 0.51743 0.58302 0.57258 0.0
C950 C 0.55712 0.65744 0.66418 0.0
C951 C 0.50358 0.61457 0.45896 0.0
H952 H 0.48403 0.72929 0.50848 0.0
H953 H 0.55689 0.6975 0.34204 0.0
H954 H 0.474 0.66677 0.60745 0.0
H955 H 0.49557 0.67908 0.67441 0.0
H956 H 0.47242 0.70756 0.63911 0.0
H957 H 0.58769 0.65688 0.3751 0.0
H958 H 0.58203 0.64043 0.47522 0.0
H959 H 0.56643 0.62618 0.39379 0.0
H960 H 0.55273 0.60013 0.72264 0.0
H961 H 0.50728 0.56441 0.5501 0.0
H962 H 0.57181 0.66559 0.61395 0.0
H963 H 0.56755 0.6499 0.71508 0.0
H964 H 0.54223 0.67773 0.68813 0.0
H965 H 0.48709 0.63385 0.47297 0.0
H966 H 0.49521 0.59286 0.44228 0.0
H967 H 0.51768 0.6207 0.40418 0.0
C968 C 0.82659 0.49649 0.60443 0.0
C969 C 0.8216 0.46529 0.59322 0.0
C970 C 0.84662 0.50445 0.64842 0.0
C971 C 0.86241 0.48063 0.68068 0.0
C972 C 0.85617 0.44945 0.67436 0.0
C973 C 0.83565 0.44233 0.63232 0.0
C974 C 0.85192 0.53815 0.65601 0.0
C975 C 0.87257 0.42307 0.70605 0.0
C976 C 0.9351 0.49219 0.68385 0.0
C977 C 0.93536 0.49711 0.76884 0.0
C978 C 0.91161 0.48685 0.65485 0.0
C979 C 0.88729 0.48744 0.71184 0.0
C980 C 0.88729 0.49297 0.79787 0.0
C981 C 0.91142 0.49713 0.8255 0.0
C982 C 0.91302 0.47988 0.56301 0.0
C983 C 0.86179 0.49466 0.86061 0.0
H984 H 0.81599 0.51449 0.57478 0.0
H985 H 0.8316 0.41822 0.62588 0.0
H986 H 0.85482 0.54457 0.71982 0.0
H987 H 0.87053 0.54153 0.61292 0.0
H988 H 0.8354 0.55428 0.64076 0.0
H989 H 0.89299 0.41996 0.6684 0.0
H990 H 0.87451 0.4286 0.77119 0.0
H991 H 0.86383 0.40059 0.70271 0.0
H992 H 0.95359 0.49175 0.63971 0.0
H993 H 0.91146 0.50109 0.89118 0.0
H994 H 0.89965 0.49756 0.53855 0.0
H995 H 0.90606 0.45674 0.55215 0.0
H996 H 0.93354 0.47973 0.52707 0.0
H997 H 0.84657 0.51212 0.8434 0.0
H998 H 0.86477 0.50111 0.92438 0.0
H999 H 0.85365 0.47178 0.86082 0.0
loop_
_geom_bond_atom_site_label_1
_geom_bond_atom_site_label_2
_geom_bond_distance
_geom_bond_site_symmetry_2
_ccdc_geom_bond_type
H0 C3 0.931 . S
H1 C6 0.928 . S
H2 C8 0.930 . S
C3 H0 0.931 . S
C3 C4 1.413 . S
C3 C5 1.360 . S
C4 C3 1.413 . S
C4 C8 1.429 . S
C5 C3 1.360 . S
C5 C6 1.372 . S
C6 H1 0.928 . S
C6 C5 1.372 . S
C6 C7 1.404 . S
C7 C6 1.404 . S
C7 C8 1.391 . S
C8 H2 0.930 . S
C8 C4 1.429 . S
C8 C7 1.391 . S
H9 C12 0.931 . S
H10 C15 0.928 . S
H11 C17 0.929 . S
C12 H9 0.931 . S
C12 C13 1.413 . S
C12 C14 1.360 . S
C13 C12 1.413 . S
C13 C17 1.430 1_655 S
C14 C12 1.360 . S
C14 C15 1.375 . S
C15 H10 0.928 . S
C15 C14 1.375 . S
C15 C16 1.405 . S
C16 C15 1.405 . S
C16 C17 1.388 1_655 S
C17 H11 0.929 . S
C17 C13 1.430 1_455 S
C17 C16 1.388 1_455 S
H18 C21 0.930 . S
H19 C24 0.928 . S
H20 C26 0.929 . S
C21 H18 0.930 . S
C21 C22 1.413 . S
C21 C23 1.360 . S
C22 C21 1.413 . S
C22 C26 1.428 1_565 S
C23 C21 1.360 . S
C23 C24 1.370 . S
C24 H19 0.928 . S
C24 C23 1.370 . S
C24 C25 1.405 . S
C25 C24 1.405 . S
C25 C26 1.392 1_565 S
C26 H20 0.929 . S
C26 C22 1.428 1_545 S
C26 C25 1.392 1_545 S
H27 C30 0.931 . S
H28 C33 0.928 . S
H29 C35 0.930 . S
C30 H27 0.931 . S
C30 C31 1.413 . S
C30 C32 1.360 . S
C31 C30 1.413 . S
C31 C35 1.429 . S
C32 C30 1.360 . S
C32 C33 1.372 . S
C33 H28 0.928 . S
C33 C32 1.372 . S
C33 C34 1.404 . S
C34 C33 1.404 . S
C34 C35 1.391 . S
C35 H29 0.930 . S
C35 C31 1.429 . S
C35 C34 1.391 . S
H36 C39 0.931 . S
H37 C42 0.928 . S
H38 C44 0.930 . S
C39 H36 0.931 . S
C39 C40 1.413 . S
C39 C41 1.360 1_556 S
C40 C39 1.413 . S
C40 C44 1.429 . S
C41 C39 1.360 1_554 S
C41 C42 1.372 . S
C42 H37 0.928 . S
C42 C41 1.372 . S
C42 C43 1.404 . S
C43 C42 1.404 . S
C43 C44 1.391 1_554 S
C44 H38 0.930 . S
C44 C40 1.429 . S
C44 C43 1.391 1_556 S
H45 C48 0.930 . S
H46 C51 0.928 . S
H47 C53 0.931 . S
C48 H45 0.930 . S
C48 C49 1.414 . S
C48 C50 1.360 . S
C49 C48 1.414 . S
C49 C53 1.428 1_655 S
C50 C48 1.360 . S
C50 C51 1.371 . S
C51 H46 0.928 . S
C51 C50 1.371 . S
C51 C52 1.404 . S
C52 C51 1.404 . S
C52 C53 1.393 1_655 S
C53 H47 0.931 . S
C53 C49 1.428 1_455 S
C53 C52 1.393 1_455 S
H54 C57 0.931 . S
H55 C60 0.928 . S
H56 C62 0.931 . S
C57 H54 0.931 . S
C57 C58 1.414 . S
C57 C59 1.360 . S
C58 C57 1.414 . S
C58 C62 1.430 1_565 S
C59 C57 1.360 . S
C59 C60 1.373 . S
C60 H55 0.928 . S
C60 C59 1.373 . S
C60 C61 1.404 . S
C61 C60 1.404 . S
C61 C62 1.389 1_565 S
C62 H56 0.931 . S
C62 C58 1.430 1_545 S
C62 C61 1.389 1_545 S
H63 C66 0.931 . S
H64 C69 0.928 . S
H65 C71 0.930 . S
C66 H63 0.931 . S
C66 C67 1.413 . S
C66 C68 1.360 . S
C67 C66 1.413 . S
C67 C71 1.429 . S
C68 C66 1.360 . S
C68 C69 1.372 . S
C69 H64 0.928 . S
C69 C68 1.372 . S
C69 C70 1.404 . S
C70 C69 1.404 . S
C70 C71 1.391 . S
C71 H65 0.930 . S
C71 C67 1.429 . S
C71 C70 1.391 . S
Dy72 O75 2.307 1_545 S
Dy72 O77 2.380 1_655 S
Dy72 O78 2.379 . S
Dy72 O80 2.339 . S
Dy72 O82 2.298 . S
Dy72 O86 2.275 1_655 S
Dy72 C94 2.738 . S
Dy73 O76 2.298 . S
Dy73 O79 2.275 1_455 S
Dy73 O81 2.307 1_565 S
Dy73 O83 2.384 1_455 S
Dy73 O84 2.379 . S
Dy73 O87 2.339 . S
Dy73 C103 2.738 . S
C74 O86 1.254 1_565 S
C74 O87 1.257 . S
O75 Dy72 2.307 1_565 S
O75 C85 1.266 . S
O76 Dy73 2.298 . S
O76 C85 1.236 1_455 S
O77 Dy72 2.380 1_455 S
O77 C94 1.221 1_455 S
O78 Dy72 2.379 . S
O78 C94 1.249 . S
O79 Dy73 2.275 1_655 S
O79 C95 1.254 1_565 S
O80 Dy72 2.339 . S
O80 C95 1.257 . S
O81 Dy73 2.307 1_545 S
O81 C96 1.266 . S
O82 Dy72 2.298 . S
O82 C96 1.236 1_655 S
O83 Dy73 2.384 1_655 S
O83 C103 1.230 1_655 S
O84 Dy73 2.379 . S
O84 C103 1.249 . S
C85 O75 1.266 . S
C85 O76 1.236 1_655 S
O86 Dy72 2.275 1_455 S
O86 C74 1.254 1_545 S
O87 Dy73 2.339 . S
O87 C74 1.257 . S
C88 C91 1.344 . S
C88 C92 1.328 . S
C88 C94 1.516 . S
C89 C90 1.304 . S
C89 C93 1.323 . S
C90 C89 1.304 . S
C90 C91 1.371 . S
C90 H104 0.930 1_655 S
C91 C88 1.344 . S
C91 C90 1.371 . S
C91 H105 0.931 1_655 S
C92 C88 1.328 . S
C92 C93 1.433 . S
C92 H106 0.931 . S
C93 C89 1.323 . S
C93 C92 1.433 . S
C93 H107 0.933 . S
C94 Dy72 2.738 . S
C94 O77 1.221 1_655 S
C94 O78 1.249 . S
C94 C88 1.516 . S
C95 O79 1.254 1_545 S
C95 O80 1.257 . S
C96 O81 1.266 . S
C96 O82 1.236 1_455 S
C97 C100 1.344 1_556 S
C97 C101 1.328 1_556 S
C97 C103 1.516 . S
C98 C99 1.304 . S
C98 C102 1.323 . S
C99 C98 1.304 . S
C99 C100 1.371 . S
C99 H108 0.930 1_455 S
C100 C97 1.344 1_554 S
C100 C99 1.371 . S
C100 H109 0.931 1_455 S
C101 C97 1.328 1_554 S
C101 C102 1.433 . S
C101 H110 0.931 1_554 S
C102 C98 1.323 . S
C102 C101 1.433 . S
C102 H111 0.933 . S
C103 Dy73 2.738 . S
C103 O83 1.230 1_455 S
C103 O84 1.249 . S
C103 C97 1.516 . S
H104 C90 0.930 1_455 S
H105 C91 0.931 1_455 S
H106 C92 0.931 . S
H107 C93 0.933 . S
H108 C99 0.930 1_655 S
H109 C100 0.931 1_655 S
H110 C101 0.931 1_556 S
H111 C102 0.933 . S
Dy112 O115 2.307 . S
Dy112 O117 2.395 1_565 S
Dy112 O118 2.379 . S
Dy112 O120 2.339 . S
Dy112 O122 2.298 . S
Dy112 O126 2.275 1_565 S
Dy112 C134 2.738 . S
Dy113 O116 2.298 . S
Dy113 O119 2.275 1_545 S
Dy113 O121 2.307 . S
Dy113 O123 2.395 1_545 S
Dy113 O124 2.379 . S
Dy113 O127 2.339 . S
Dy113 C143 2.738 . S
C114 O126 1.254 . S
C114 O127 1.257 . S
O115 Dy112 2.307 . S
O115 C125 1.266 . S
O116 Dy113 2.298 . S
O116 C125 1.236 1_545 S
O117 Dy112 2.395 1_545 S
O117 C134 1.255 1_545 S
O118 Dy112 2.379 . S
O118 C134 1.249 . S
O119 Dy113 2.275 1_565 S
O119 C135 1.254 . S
O120 Dy112 2.339 . S
O120 C135 1.257 . S
O121 Dy113 2.307 . S
O121 C136 1.266 . S
O122 Dy112 2.298 . S
O122 C136 1.236 1_565 S
O123 Dy113 2.395 1_565 S
O123 C143 1.255 1_565 S
O124 Dy113 2.379 . S
O124 C143 1.249 . S
C125 O115 1.266 . S
C125 O116 1.236 1_565 S
O126 Dy112 2.275 1_545 S
O126 C114 1.254 . S
O127 Dy113 2.339 . S
O127 C114 1.257 . S
C128 C131 1.344 . S
C128 C132 1.328 . S
C128 C134 1.516 . S
C129 C130 1.304 . S
C129 C133 1.323 . S
C130 C129 1.304 . S
C130 C131 1.371 . S
C130 H144 0.930 1_565 S
C131 C128 1.344 . S
C131 C130 1.371 . S
C131 H145 0.931 1_565 S
C132 C128 1.328 . S
C132 C133 1.433 . S
C132 H146 0.931 . S
C133 C129 1.323 . S
C133 C132 1.433 . S
C133 H147 0.933 . S
C134 Dy112 2.738 . S
C134 O117 1.255 1_565 S
C134 O118 1.249 . S
C134 C128 1.516 . S
C135 O119 1.254 . S
C135 O120 1.257 . S
C136 O121 1.266 . S
C136 O122 1.236 1_545 S
C137 C140 1.344 . S
C137 C141 1.328 1_556 S
C137 C143 1.516 . S
C138 C139 1.304 . S
C138 C142 1.323 . S
C139 C138 1.304 . S
C139 C140 1.371 1_554 S
C139 H148 0.930 1_545 S
C140 C137 1.344 . S
C140 C139 1.371 1_556 S
C140 H149 0.931 1_545 S
C141 C137 1.328 1_554 S
C141 C142 1.433 . S
C141 H150 0.931 . S
C142 C138 1.323 . S
C142 C141 1.433 . S
C142 H151 0.933 . S
C143 Dy113 2.738 . S
C143 O123 1.255 1_545 S
C143 O124 1.249 . S
C143 C137 1.516 . S
H144 C130 0.930 1_545 S
H145 C131 0.931 1_545 S
H146 C132 0.931 . S
H147 C133 0.933 . S
H148 C139 0.930 1_565 S
H149 C140 0.931 1_565 S
H150 C141 0.931 . S
H151 C142 0.933 . S
Dy152 O155 2.307 . S
Dy152 O157 2.395 . S
Dy152 O158 2.379 . S
Dy152 O160 2.339 . S
Dy152 O162 2.298 . S
Dy152 O166 2.275 . S
Dy152 C174 2.738 . S
Dy153 O156 2.298 . S
Dy153 O159 2.275 . S
Dy153 O161 2.307 . S
Dy153 O163 2.395 . S
Dy153 O164 2.379 . S
Dy153 O167 2.339 . S
Dy153 C183 2.738 . S
C154 O166 1.254 . S
C154 O167 1.257 . S
O155 Dy152 2.307 . S
O155 C165 1.266 . S
O156 Dy153 2.298 . S
O156 C165 1.236 . S
O157 Dy152 2.395 . S
O157 C174 1.255 . S
O158 Dy152 2.379 . S
O158 C174 1.249 . S
O159 Dy153 2.275 . S
O159 C175 1.254 . S
O160 Dy152 2.339 . S
O160 C175 1.257 . S
O161 Dy153 2.307 . S
O161 C176 1.266 . S
O162 Dy152 2.298 . S
O162 C176 1.236 . S
O163 Dy153 2.395 . S
O163 C183 1.255 . S
O164 Dy153 2.379 . S
O164 C183 1.249 . S
C165 O155 1.266 . S
C165 O156 1.236 . S
O166 Dy152 2.275 . S
O166 C154 1.254 . S
O167 Dy153 2.339 . S
O167 C154 1.257 . S
C168 C171 1.344 1_556 S
C168 C172 1.328 . S
C168 C174 1.516 . S
C169 C170 1.304 . S
C169 C173 1.323 1_554 S
C170 C169 1.304 . S
C170 C171 1.371 . S
C170 H184 0.930 . S
C171 C168 1.344 1_554 S
C171 C170 1.371 . S
C171 H185 0.931 . S
C172 C168 1.328 . S
C172 C173 1.433 . S
C172 H186 0.931 . S
C173 C169 1.323 1_556 S
C173 C172 1.433 . S
C173 H187 0.933 . S
C174 Dy152 2.738 . S
C174 O157 1.255 . S
C174 O158 1.249 . S
C174 C168 1.516 . S
C175 O159 1.254 . S
C175 O160 1.257 . S
C176 O161 1.266 . S
C176 O162 1.236 . S
C177 C180 1.344 . S
C177 C181 1.328 . S
C177 C183 1.516 . S
C178 C179 1.304 . S
C178 C182 1.323 . S
C179 C178 1.304 . S
C179 C180 1.371 . S
C179 H188 0.930 . S
C180 C177 1.344 . S
C180 C179 1.371 . S
C180 H189 0.931 . S
C181 C177 1.328 . S
C181 C182 1.433 . S
C181 H190 0.931 . S
C182 C178 1.323 . S
C182 C181 1.433 . S
C182 H191 0.933 . S
C183 Dy153 2.738 . S
C183 O163 1.255 . S
C183 O164 1.249 . S
C183 C177 1.516 . S
H184 C170 0.930 . S
H185 C171 0.931 . S
H186 C172 0.931 . S
H187 C173 0.933 . S
H188 C179 0.930 . S
H189 C180 0.931 . S
H190 C181 0.931 . S
H191 C182 0.933 . S
Dy192 O195 2.307 1_455 S
Dy192 O197 2.395 . S
Dy192 O198 2.379 . S
Dy192 O200 2.339 . S
Dy192 O202 2.298 . S
Dy192 O206 2.275 . S
Dy192 C214 2.738 . S
Dy193 O196 2.298 . S
Dy193 O199 2.275 . S
Dy193 O201 2.307 1_655 S
Dy193 O203 2.395 . S
Dy193 O204 2.379 . S
Dy193 O207 2.339 . S
Dy193 C223 2.738 . S
C194 O206 1.254 1_655 S
C194 O207 1.257 . S
O195 Dy192 2.307 1_655 S
O195 C205 1.266 . S
O196 Dy193 2.298 . S
O196 C205 1.236 . S
O197 Dy192 2.395 . S
O197 C214 1.255 . S
O198 Dy192 2.379 . S
O198 C214 1.249 . S
O199 Dy193 2.275 . S
O199 C215 1.254 1_655 S
O200 Dy192 2.339 . S
O200 C215 1.257 . S
O201 Dy193 2.307 1_455 S
O201 C216 1.266 . S
O202 Dy192 2.298 . S
O202 C216 1.236 . S
O203 Dy193 2.395 . S
O203 C223 1.255 . S
O204 Dy193 2.379 . S
O204 C223 1.249 . S
C205 O195 1.266 . S
C205 O196 1.236 . S
O206 Dy192 2.275 . S
O206 C194 1.254 1_455 S
O207 Dy193 2.339 . S
O207 C194 1.257 . S
C208 C211 1.344 . S
C208 C212 1.328 . S
C208 C214 1.516 . S
C209 C210 1.304 . S
C209 C213 1.323 . S
C210 C209 1.304 . S
C210 C211 1.371 . S
C210 H224 0.930 . S
C211 C208 1.344 . S
C211 C210 1.371 . S
C211 H225 0.931 . S
C212 C208 1.328 . S
C212 C213 1.433 . S
C212 H226 0.931 . S
C213 C209 1.323 . S
C213 C212 1.433 . S
C213 H227 0.933 . S
C214 Dy192 2.738 . S
C214 O197 1.255 . S
C214 O198 1.249 . S
C214 C208 1.516 . S
C215 O199 1.254 1_455 S
C215 O200 1.257 . S
C216 O201 1.266 . S
C216 O202 1.236 . S
C217 C220 1.344 . S
C217 C221 1.328 . S
C217 C223 1.516 1_554 S
C218 C219 1.304 . S
C218 C222 1.323 . S
C219 C218 1.304 . S
C219 C220 1.371 . S
C219 H228 0.930 . S
C220 C217 1.344 . S
C220 C219 1.371 . S
C220 H229 0.931 . S
C221 C217 1.328 . S
C221 C222 1.433 . S
C221 H230 0.931 . S
C222 C218 1.323 . S
C222 C221 1.433 . S
C222 H231 0.933 . S
C223 Dy193 2.738 . S
C223 O203 1.255 . S
C223 O204 1.249 . S
C223 C217 1.516 1_556 S
H224 C210 0.930 . S
H225 C211 0.931 . S
H226 C212 0.931 . S
H227 C213 0.933 . S
H228 C219 0.930 . S
H229 C220 0.931 . S
H230 C221 0.931 . S
H231 C222 0.933 . S
C232 C233 1.391 . S
C232 C234 1.394 . S
C232 H248 0.931 . S
C233 C232 1.391 . S
C233 C237 1.376 1_565 S
C234 C232 1.394 . S
C234 C235 1.369 . S
C234 C238 1.531 . S
C235 C234 1.369 . S
C235 C236 1.410 1_565 S
C235 C243 1.503 . S
C236 C235 1.410 1_545 S
C236 C237 1.392 . S
C236 C239 1.511 . S
C237 C233 1.376 1_545 S
C237 C236 1.392 . S
C237 H249 0.929 . S
C238 C234 1.531 . S
C238 H250 0.960 . S
C238 H251 0.962 . S
C238 H252 0.960 . S
C239 C236 1.511 . S
C239 H253 0.961 . S
C239 H254 0.961 . S
C239 H255 0.961 . S
C240 C241 1.376 . S
C240 C242 1.363 . S
C240 H256 0.931 . S
C241 C240 1.376 . S
C241 C245 1.403 1_545 S
C242 C240 1.363 . S
C242 C243 1.370 1_545 S
C242 C246 1.524 . S
C243 C235 1.503 . S
C243 C242 1.370 1_565 S
C243 C244 1.403 . S
C244 C243 1.403 . S
C244 C245 1.404 . S
C244 C247 1.539 . S
C245 C241 1.403 1_565 S
C245 C244 1.404 . S
C245 H257 0.930 . S
C246 C242 1.524 . S
C246 H258 0.956 . S
C246 H259 0.961 . S
C246 H260 0.961 . S
C247 C244 1.539 . S
C247 H261 0.958 . S
C247 H262 0.961 . S
C247 H263 0.960 . S
H248 C232 0.931 . S
H249 C237 0.929 . S
H250 C238 0.960 . S
H251 C238 0.962 . S
H252 C238 0.960 . S
H253 C239 0.961 . S
H254 C239 0.961 . S
H255 C239 0.961 . S
H256 C240 0.931 . S
H257 C245 0.930 . S
H258 C246 0.956 . S
H259 C246 0.961 . S
H260 C246 0.961 . S
H261 C247 0.958 . S
H262 C247 0.961 . S
H263 C247 0.960 . S
C264 C265 1.391 . S
C264 C266 1.394 . S
C264 H280 0.931 . S
C265 C264 1.391 . S
C265 C269 1.376 . S
C266 C264 1.394 . S
C266 C267 1.369 . S
C266 C270 1.531 . S
C267 C266 1.369 . S
C267 C268 1.410 . S
C267 C275 1.503 . S
C268 C267 1.410 . S
C268 C269 1.392 . S
C268 C271 1.511 . S
C269 C265 1.376 . S
C269 C268 1.392 . S
C269 H281 0.929 . S
C270 C266 1.531 . S
C270 H282 0.960 . S
C270 H283 0.962 . S
C270 H284 0.960 . S
C271 C268 1.511 . S
C271 H285 0.961 . S
C271 H286 0.961 . S
C271 H287 0.961 . S
C272 C273 1.370 . S
C272 C274 1.363 . S
C272 H288 0.931 . S
C273 C272 1.370 . S
C273 C277 1.408 . S
C274 C272 1.363 . S
C274 C275 1.370 . S
C274 C278 1.524 . S
C275 C267 1.503 . S
C275 C274 1.370 . S
C275 C276 1.403 . S
C276 C275 1.403 . S
C276 C277 1.404 . S
C276 C279 1.539 . S
C277 C273 1.408 . S
C277 C276 1.404 . S
C277 H289 0.930 . S
C278 C274 1.524 . S
C278 H290 0.956 . S
C278 H291 0.961 . S
C278 H292 0.961 . S
C279 C276 1.539 . S
C279 H293 0.958 . S
C279 H294 0.961 . S
C279 H295 0.960 . S
H280 C264 0.931 . S
H281 C269 0.929 . S
H282 C270 0.960 . S
H283 C270 0.962 . S
H284 C270 0.960 . S
H285 C271 0.961 . S
H286 C271 0.961 . S
H287 C271 0.961 . S
H288 C272 0.931 . S
H289 C277 0.930 . S
H290 C278 0.956 . S
H291 C278 0.961 . S
H292 C278 0.961 . S
H293 C279 0.958 . S
H294 C279 0.961 . S
H295 C279 0.960 . S
C296 C297 1.391 . S
C296 C298 1.394 . S
C296 H312 0.931 . S
C297 C296 1.391 . S
C297 C301 1.376 . S
C298 C296 1.394 . S
C298 C299 1.369 . S
C298 C302 1.531 . S
C299 C298 1.369 . S
C299 C300 1.410 . S
C299 C307 1.503 . S
C300 C299 1.410 . S
C300 C301 1.392 . S
C300 C303 1.511 . S
C301 C297 1.376 . S
C301 C300 1.392 . S
C301 H313 0.929 . S
C302 C298 1.531 . S
C302 H314 0.960 . S
C302 H315 0.962 . S
C302 H316 0.960 . S
C303 C300 1.511 . S
C303 H317 0.961 . S
C303 H318 0.961 . S
C303 H319 0.961 . S
C304 C305 1.370 . S
C304 C306 1.363 . S
C304 H320 0.931 . S
C305 C304 1.370 . S
C305 C309 1.408 . S
C306 C304 1.363 . S
C306 C307 1.370 . S
C306 C310 1.524 . S
C307 C299 1.503 . S
C307 C306 1.370 . S
C307 C308 1.403 . S
C308 C307 1.403 . S
C308 C309 1.404 . S
C308 C311 1.539 . S
C309 C305 1.408 . S
C309 C308 1.404 . S
C309 H321 0.930 . S
C310 C306 1.524 . S
C310 H322 0.956 . S
C310 H323 0.961 . S
C310 H324 0.961 . S
C311 C308 1.539 . S
C311 H325 0.958 . S
C311 H326 0.961 . S
C311 H327 0.960 . S
H312 C296 0.931 . S
H313 C301 0.929 . S
H314 C302 0.960 . S
H315 C302 0.962 . S
H316 C302 0.960 . S
H317 C303 0.961 . S
H318 C303 0.961 . S
H319 C303 0.961 . S
H320 C304 0.931 . S
H321 C309 0.930 . S
H322 C310 0.956 . S
H323 C310 0.961 . S
H324 C310 0.961 . S
H325 C311 0.958 . S
H326 C311 0.961 . S
H327 C311 0.960 . S
C328 C329 1.391 1_655 S
C328 C330 1.394 . S
C328 H344 0.931 . S
C329 C328 1.391 1_455 S
C329 C333 1.376 . S
C330 C328 1.394 . S
C330 C331 1.369 1_655 S
C330 C334 1.531 . S
C331 C330 1.369 1_455 S
C331 C332 1.410 . S
C331 C339 1.503 . S
C332 C331 1.410 . S
C332 C333 1.392 . S
C332 C335 1.511 . S
C333 C329 1.376 . S
C333 C332 1.392 . S
C333 H345 0.929 . S
C334 C330 1.531 . S
C334 H346 0.960 . S
C334 H347 0.962 . S
C334 H348 0.960 . S
C335 C332 1.511 . S
C335 H349 0.961 . S
C335 H350 0.961 . S
C335 H351 0.961 . S
C336 C337 1.370 1_655 S
C336 C338 1.363 . S
C336 H352 0.931 . S
C337 C336 1.370 1_455 S
C337 C341 1.408 . S
C338 C336 1.363 . S
C338 C339 1.370 1_655 S
C338 C342 1.524 . S
C339 C331 1.503 . S
C339 C338 1.370 1_455 S
C339 C340 1.403 . S
C340 C339 1.403 . S
C340 C341 1.404 . S
C340 C343 1.539 . S
C341 C337 1.408 . S
C341 C340 1.404 . S
C341 H353 0.930 . S
C342 C338 1.524 . S
C342 H354 0.956 . S
C342 H355 0.961 . S
C342 H356 0.961 . S
C343 C340 1.539 . S
C343 H357 0.958 . S
C343 H358 0.961 . S
C343 H359 0.960 . S
H344 C328 0.931 . S
H345 C333 0.929 . S
H346 C334 0.960 . S
H347 C334 0.962 . S
H348 C334 0.960 . S
H349 C335 0.961 . S
H350 C335 0.961 . S
H351 C335 0.961 . S
H352 C336 0.931 . S
H353 C341 0.930 . S
H354 C342 0.956 . S
H355 C342 0.961 . S
H356 C342 0.961 . S
H357 C343 0.958 . S
H358 C343 0.961 . S
H359 C343 0.960 . S
C360 C361 1.402 . S
C360 C362 1.394 . S
C360 H376 0.931 . S
C361 C360 1.402 . S
C361 C365 1.366 1_545 S
C362 C360 1.394 . S
C362 C363 1.369 . S
C362 C366 1.531 . S
C363 C362 1.369 . S
C363 C364 1.410 1_545 S
C363 C371 1.501 . S
C364 C363 1.410 1_565 S
C364 C365 1.392 . S
C364 C367 1.511 . S
C365 C361 1.366 1_565 S
C365 C364 1.392 . S
C365 H377 0.929 . S
C366 C362 1.531 . S
C366 H378 0.960 . S
C366 H379 0.962 . S
C366 H380 0.960 . S
C367 C364 1.511 . S
C367 H381 0.961 . S
C367 H382 0.961 . S
C367 H383 0.961 . S
C368 C369 1.375 . S
C368 C370 1.363 1_556 S
C368 H384 0.931 . S
C369 C368 1.375 . S
C369 C373 1.405 1_566 S
C370 C368 1.363 1_554 S
C370 C371 1.368 1_565 S
C370 C374 1.524 1_554 S
C371 C363 1.501 . S
C371 C370 1.368 1_545 S
C371 C372 1.408 . S
C372 C371 1.408 . S
C372 C373 1.404 . S
C372 C375 1.539 . S
C373 C369 1.405 1_544 S
C373 C372 1.404 . S
C373 H385 0.930 . S
C374 C370 1.524 1_556 S
C374 H386 0.956 1_566 S
C374 H387 0.961 1_556 S
C374 H388 0.961 . S
C375 C372 1.539 . S
C375 H389 0.958 . S
C375 H390 0.961 1_545 S
C375 H391 0.960 1_545 S
H376 C360 0.931 . S
H377 C365 0.929 . S
H378 C366 0.960 . S
H379 C366 0.962 . S
H380 C366 0.960 . S
H381 C367 0.961 . S
H382 C367 0.961 . S
H383 C367 0.961 . S
H384 C368 0.931 . S
H385 C373 0.930 . S
H386 C374 0.956 1_544 S
H387 C374 0.961 1_554 S
H388 C374 0.961 . S
H389 C375 0.958 . S
H390 C375 0.961 1_565 S
H391 C375 0.960 1_565 S
C392 C393 1.391 . S
C392 C394 1.394 . S
C392 H408 0.931 . S
C393 C392 1.391 . S
C393 C397 1.376 . S
C394 C392 1.394 . S
C394 C395 1.369 . S
C394 C398 1.531 1_554 S
C395 C394 1.369 . S
C395 C396 1.410 . S
C395 C403 1.503 1_554 S
C396 C395 1.410 . S
C396 C397 1.392 . S
C396 C399 1.511 . S
C397 C393 1.376 . S
C397 C396 1.392 . S
C397 H409 0.929 . S
C398 C394 1.531 1_556 S
C398 H410 0.960 . S
C398 H411 0.962 . S
C398 H412 0.960 . S
C399 C396 1.511 . S
C399 H413 0.961 . S
C399 H414 0.961 . S
C399 H415 0.961 . S
C400 C401 1.370 . S
C400 C402 1.363 1_556 S
C400 H416 0.931 . S
C401 C400 1.370 . S
C401 C405 1.408 . S
C402 C400 1.363 1_554 S
C402 C403 1.370 1_554 S
C402 C406 1.524 . S
C403 C395 1.503 1_556 S
C403 C402 1.370 1_556 S
C403 C404 1.403 . S
C404 C403 1.403 . S
C404 C405 1.404 . S
C404 C407 1.539 . S
C405 C401 1.408 . S
C405 C404 1.404 . S
C405 H417 0.930 . S
C406 C402 1.524 . S
C406 H418 0.956 . S
C406 H419 0.961 . S
C406 H420 0.961 . S
C407 C404 1.539 . S
C407 H421 0.958 . S
C407 H422 0.961 . S
C407 H423 0.960 . S
H408 C392 0.931 . S
H409 C397 0.929 . S
H410 C398 0.960 . S
H411 C398 0.962 . S
H412 C398 0.960 . S
H413 C399 0.961 . S
H414 C399 0.961 . S
H415 C399 0.961 . S
H416 C400 0.931 . S
H417 C405 0.930 . S
H418 C406 0.956 . S
H419 C406 0.961 . S
H420 C406 0.961 . S
H421 C407 0.958 . S
H422 C407 0.961 . S
H423 C407 0.960 . S
C424 C425 1.391 . S
C424 C426 1.394 . S
C424 H440 0.931 . S
C425 C424 1.391 . S
C425 C429 1.376 . S
C426 C424 1.394 . S
C426 C427 1.369 . S
C426 C430 1.531 . S
C427 C426 1.369 . S
C427 C428 1.410 . S
C427 C435 1.503 . S
C428 C427 1.410 . S
C428 C429 1.392 . S
C428 C431 1.511 . S
C429 C425 1.376 . S
C429 C428 1.392 . S
C429 H441 0.929 . S
C430 C426 1.531 . S
C430 H442 0.960 . S
C430 H443 0.962 . S
C430 H444 0.960 . S
C431 C428 1.511 . S
C431 H445 0.961 . S
C431 H446 0.961 . S
C431 H447 0.961 . S
C432 C433 1.370 . S
C432 C434 1.363 . S
C432 H448 0.931 . S
C433 C432 1.370 . S
C433 C437 1.408 . S
C434 C432 1.363 . S
C434 C435 1.370 . S
C434 C438 1.524 . S
C435 C427 1.503 . S
C435 C434 1.370 . S
C435 C436 1.403 . S
C436 C435 1.403 . S
C436 C437 1.404 . S
C436 C439 1.539 . S
C437 C433 1.408 . S
C437 C436 1.404 . S
C437 H449 0.930 . S
C438 C434 1.524 . S
C438 H450 0.956 . S
C438 H451 0.961 . S
C438 H452 0.961 . S
C439 C436 1.539 . S
C439 H453 0.958 . S
C439 H454 0.961 . S
C439 H455 0.960 . S
H440 C424 0.931 . S
H441 C429 0.929 . S
H442 C430 0.960 . S
H443 C430 0.962 . S
H444 C430 0.960 . S
H445 C431 0.961 . S
H446 C431 0.961 . S
H447 C431 0.961 . S
H448 C432 0.931 . S
H449 C437 0.930 . S
H450 C438 0.956 . S
H451 C438 0.961 . S
H452 C438 0.961 . S
H453 C439 0.958 . S
H454 C439 0.961 . S
H455 C439 0.960 . S
C456 C457 1.391 1_455 S
C456 C458 1.394 . S
C456 H472 0.931 . S
C457 C456 1.391 1_655 S
C457 C461 1.376 . S
C458 C456 1.394 . S
C458 C459 1.369 1_455 S
C458 C462 1.531 . S
C459 C458 1.369 1_655 S
C459 C460 1.410 . S
C459 C467 1.503 . S
C460 C459 1.410 . S
C460 C461 1.392 . S
C460 C463 1.511 . S
C461 C457 1.376 . S
C461 C460 1.392 . S
C461 H473 0.929 . S
C462 C458 1.531 . S
C462 H474 0.960 . S
C462 H475 0.962 . S
C462 H476 0.960 . S
C463 C460 1.511 . S
C463 H477 0.961 . S
C463 H478 0.961 . S
C463 H479 0.961 . S
C464 C465 1.370 1_455 S
C464 C466 1.363 1_556 S
C464 H480 0.931 . S
C465 C464 1.370 1_655 S
C465 C469 1.408 1_556 S
C466 C464 1.363 1_554 S
C466 C467 1.370 1_455 S
C466 C470 1.524 . S
C467 C459 1.503 . S
C467 C466 1.370 1_655 S
C467 C468 1.403 . S
C468 C467 1.403 . S
C468 C469 1.404 . S
C468 C471 1.539 . S
C469 C465 1.408 1_554 S
C469 C468 1.404 . S
C469 H481 0.930 . S
C470 C466 1.524 . S
C470 H482 0.956 . S
C470 H483 0.961 . S
C470 H484 0.961 . S
C471 C468 1.539 . S
C471 H485 0.958 . S
C471 H486 0.961 . S
C471 H487 0.960 . S
H472 C456 0.931 . S
H473 C461 0.929 . S
H474 C462 0.960 . S
H475 C462 0.962 . S
H476 C462 0.960 . S
H477 C463 0.961 . S
H478 C463 0.961 . S
H479 C463 0.961 . S
H480 C464 0.931 . S
H481 C469 0.930 . S
H482 C470 0.956 . S
H483 C470 0.961 . S
H484 C470 0.961 . S
H485 C471 0.958 . S
H486 C471 0.961 . S
H487 C471 0.960 . S
C488 C489 1.412 . S
C488 C490 1.394 . S
C488 H504 0.931 . S
C489 C488 1.412 . S
C489 C493 1.345 1_455 S
C490 C488 1.394 . S
C490 C491 1.369 1_455 S
C490 C494 1.531 . S
C491 C490 1.369 1_655 S
C491 C492 1.410 . S
C491 C499 1.503 . S
C492 C491 1.410 . S
C492 C493 1.392 . S
C492 C495 1.511 . S
C493 C489 1.345 1_655 S
C493 C492 1.392 . S
C493 H505 0.929 . S
C494 C490 1.531 . S
C494 H506 0.960 . S
C494 H507 0.962 . S
C494 H508 0.960 . S
C495 C492 1.511 . S
C495 H509 0.961 . S
C495 H510 0.961 . S
C495 H511 0.961 . S
C496 C497 1.370 . S
C496 C498 1.363 . S
C496 H512 0.931 . S
C497 C496 1.370 . S
C497 C501 1.408 . S
C498 C496 1.363 . S
C498 C499 1.370 . S
C498 C502 1.524 1_655 S
C499 C491 1.503 . S
C499 C498 1.370 . S
C499 C500 1.403 . S
C500 C499 1.403 . S
C500 C501 1.404 . S
C500 C503 1.539 . S
C501 C497 1.408 . S
C501 C500 1.404 . S
C501 H513 0.930 . S
C502 C498 1.524 1_455 S
C502 H514 0.956 . S
C502 H515 0.961 . S
C502 H516 0.961 . S
C503 C500 1.539 . S
C503 H517 0.958 . S
C503 H518 0.961 . S
C503 H519 0.960 . S
H504 C488 0.931 . S
H505 C493 0.929 . S
H506 C494 0.960 . S
H507 C494 0.962 . S
H508 C494 0.960 . S
H509 C495 0.961 . S
H510 C495 0.961 . S
H511 C495 0.961 . S
H512 C496 0.931 . S
H513 C501 0.930 . S
H514 C502 0.956 . S
H515 C502 0.961 . S
H516 C502 0.961 . S
H517 C503 0.958 . S
H518 C503 0.961 . S
H519 C503 0.960 . S
C520 C521 1.391 . S
C520 C522 1.394 . S
C520 H536 0.931 . S
C521 C520 1.391 . S
C521 C525 1.376 1_545 S
C522 C520 1.394 . S
C522 C523 1.369 1_545 S
C522 C526 1.531 . S
C523 C522 1.369 1_565 S
C523 C524 1.410 . S
C523 C531 1.503 . S
C524 C523 1.410 . S
C524 C525 1.392 . S
C524 C527 1.511 . S
C525 C521 1.376 1_565 S
C525 C524 1.392 . S
C525 H537 0.929 . S
C526 C522 1.531 . S
C526 H538 0.960 . S
C526 H539 0.962 1_545 S
C526 H540 0.960 . S
C527 C524 1.511 . S
C527 H541 0.961 . S
C527 H542 0.961 . S
C527 H543 0.961 . S
C528 C529 1.370 . S
C528 C530 1.363 . S
C528 H544 0.931 . S
C529 C528 1.370 . S
C529 C533 1.408 . S
C530 C528 1.363 . S
C530 C531 1.370 . S
C530 C534 1.524 . S
C531 C523 1.503 . S
C531 C530 1.370 . S
C531 C532 1.403 1_565 S
C532 C531 1.403 1_545 S
C532 C533 1.404 1_545 S
C532 C535 1.539 . S
C533 C529 1.408 . S
C533 C532 1.404 1_565 S
C533 H545 0.930 1_565 S
C534 C530 1.524 . S
C534 H546 0.956 . S
C534 H547 0.961 . S
C534 H548 0.961 . S
C535 C532 1.539 . S
C535 H549 0.958 . S
C535 H550 0.961 . S
C535 H551 0.960 . S
H536 C520 0.931 . S
H537 C525 0.929 . S
H538 C526 0.960 . S
H539 C526 0.962 1_565 S
H540 C526 0.960 . S
H541 C527 0.961 . S
H542 C527 0.961 . S
H543 C527 0.961 . S
H544 C528 0.931 . S
H545 C533 0.930 1_545 S
H546 C534 0.956 . S
H547 C534 0.961 . S
H548 C534 0.961 . S
H549 C535 0.958 . S
H550 C535 0.961 . S
H551 C535 0.960 . S
C552 C553 1.391 . S
C552 C554 1.394 . S
C552 H568 0.931 . S
C553 C552 1.391 . S
C553 C557 1.376 . S
C554 C552 1.394 . S
C554 C555 1.369 . S
C554 C558 1.531 . S
C555 C554 1.369 . S
C555 C556 1.410 . S
C555 C563 1.503 . S
C556 C555 1.410 . S
C556 C557 1.392 . S
C556 C559 1.511 . S
C557 C553 1.376 . S
C557 C556 1.392 . S
C557 H569 0.929 . S
C558 C554 1.531 . S
C558 H570 0.960 . S
C558 H571 0.962 . S
C558 H572 0.960 . S
C559 C556 1.511 . S
C559 H573 0.961 . S
C559 H574 0.961 . S
C559 H575 0.961 . S
C560 C561 1.370 . S
C560 C562 1.363 . S
C560 H576 0.931 . S
C561 C560 1.370 . S
C561 C565 1.408 . S
C562 C560 1.363 . S
C562 C563 1.370 . S
C562 C566 1.524 . S
C563 C555 1.503 . S
C563 C562 1.370 . S
C563 C564 1.403 . S
C564 C563 1.403 . S
C564 C565 1.404 . S
C564 C567 1.539 . S
C565 C561 1.408 . S
C565 C564 1.404 . S
C565 H577 0.930 . S
C566 C562 1.524 . S
C566 H578 0.956 . S
C566 H579 0.961 . S
C566 H580 0.961 . S
C567 C564 1.539 . S
C567 H581 0.958 . S
C567 H582 0.961 . S
C567 H583 0.960 . S
H568 C552 0.931 . S
H569 C557 0.929 . S
H570 C558 0.960 . S
H571 C558 0.962 . S
H572 C558 0.960 . S
H573 C559 0.961 . S
H574 C559 0.961 . S
H575 C559 0.961 . S
H576 C560 0.931 . S
H577 C565 0.930 . S
H578 C566 0.956 . S
H579 C566 0.961 . S
H580 C566 0.961 . S
H581 C567 0.958 . S
H582 C567 0.961 . S
H583 C567 0.960 . S
C584 C585 1.391 . S
C584 C586 1.394 . S
C584 H600 0.931 . S
C585 C584 1.391 . S
C585 C589 1.376 . S
C586 C584 1.394 . S
C586 C587 1.369 . S
C586 C590 1.531 . S
C587 C586 1.369 . S
C587 C588 1.410 . S
C587 C595 1.503 . S
C588 C587 1.410 . S
C588 C589 1.392 . S
C588 C591 1.511 . S
C589 C585 1.376 . S
C589 C588 1.392 . S
C589 H601 0.929 . S
C590 C586 1.531 . S
C590 H602 0.960 . S
C590 H603 0.962 . S
C590 H604 0.960 . S
C591 C588 1.511 . S
C591 H605 0.961 . S
C591 H606 0.961 . S
C591 H607 0.961 . S
C592 C593 1.370 . S
C592 C594 1.363 . S
C592 H608 0.931 . S
C593 C592 1.370 . S
C593 C597 1.408 . S
C594 C592 1.363 . S
C594 C595 1.370 . S
C594 C598 1.524 . S
C595 C587 1.503 . S
C595 C594 1.370 . S
C595 C596 1.403 . S
C596 C595 1.403 . S
C596 C597 1.404 . S
C596 C599 1.539 . S
C597 C593 1.408 . S
C597 C596 1.404 . S
C597 H609 0.930 . S
C598 C594 1.524 . S
C598 H610 0.956 . S
C598 H611 0.961 . S
C598 H612 0.961 . S
C599 C596 1.539 . S
C599 H613 0.958 . S
C599 H614 0.961 . S
C599 H615 0.960 . S
H600 C584 0.931 . S
H601 C589 0.929 . S
H602 C590 0.960 . S
H603 C590 0.962 . S
H604 C590 0.960 . S
H605 C591 0.961 . S
H606 C591 0.961 . S
H607 C591 0.961 . S
H608 C592 0.931 . S
H609 C597 0.930 . S
H610 C598 0.956 . S
H611 C598 0.961 . S
H612 C598 0.961 . S
H613 C599 0.958 . S
H614 C599 0.961 . S
H615 C599 0.960 . S
C616 C617 1.391 1_455 S
C616 C618 1.394 . S
C616 H632 0.931 . S
C617 C616 1.391 1_655 S
C617 C621 1.376 . S
C618 C616 1.394 . S
C618 C619 1.369 . S
C618 C622 1.531 . S
C619 C618 1.369 . S
C619 C620 1.410 1_455 S
C619 C627 1.503 . S
C620 C619 1.410 1_655 S
C620 C621 1.392 . S
C620 C623 1.511 . S
C621 C617 1.376 . S
C621 C620 1.392 . S
C621 H633 0.929 . S
C622 C618 1.531 . S
C622 H634 0.960 . S
C622 H635 0.962 . S
C622 H636 0.960 . S
C623 C620 1.511 . S
C623 H637 0.961 . S
C623 H638 0.961 . S
C623 H639 0.961 . S
C624 C625 1.370 . S
C624 C626 1.363 . S
C624 H640 0.931 . S
C625 C624 1.370 . S
C625 C629 1.408 . S
C626 C624 1.363 . S
C626 C627 1.370 . S
C626 C630 1.524 . S
C627 C619 1.503 . S
C627 C626 1.370 . S
C627 C628 1.403 . S
C628 C627 1.403 . S
C628 C629 1.404 . S
C628 C631 1.539 1_455 S
C629 C625 1.408 . S
C629 C628 1.404 . S
C629 H641 0.930 . S
C630 C626 1.524 . S
C630 H642 0.956 . S
C630 H643 0.961 . S
C630 H644 0.961 . S
C631 C628 1.539 1_655 S
C631 H645 0.958 . S
C631 H646 0.961 . S
C631 H647 0.960 . S
H632 C616 0.931 . S
H633 C621 0.929 . S
H634 C622 0.960 . S
H635 C622 0.962 . S
H636 C622 0.960 . S
H637 C623 0.961 . S
H638 C623 0.961 . S
H639 C623 0.961 . S
H640 C624 0.931 . S
H641 C629 0.930 . S
H642 C630 0.956 . S
H643 C630 0.961 . S
H644 C630 0.961 . S
H645 C631 0.958 . S
H646 C631 0.961 . S
H647 C631 0.960 . S
C648 C649 1.391 . S
C648 C650 1.394 . S
C648 H664 0.931 . S
C649 C648 1.391 . S
C649 C653 1.376 1_545 S
C650 C648 1.394 . S
C650 C651 1.369 . S
C650 C654 1.531 . S
C651 C650 1.369 . S
C651 C652 1.410 1_545 S
C651 C659 1.503 . S
C652 C651 1.410 1_565 S
C652 C653 1.392 . S
C652 C655 1.511 . S
C653 C649 1.376 1_565 S
C653 C652 1.392 . S
C653 H665 0.929 . S
C654 C650 1.531 . S
C654 H666 0.960 . S
C654 H667 0.962 . S
C654 H668 0.960 . S
C655 C652 1.511 . S
C655 H669 0.961 . S
C655 H670 0.961 . S
C655 H671 0.961 . S
C656 C657 1.370 . S
C656 C658 1.363 . S
C656 H672 0.931 . S
C657 C656 1.370 . S
C657 C661 1.408 . S
C658 C656 1.363 . S
C658 C659 1.370 . S
C658 C662 1.524 1_545 S
C659 C651 1.503 . S
C659 C658 1.370 . S
C659 C660 1.403 . S
C660 C659 1.403 . S
C660 C661 1.404 . S
C660 C663 1.539 . S
C661 C657 1.408 . S
C661 C660 1.404 . S
C661 H673 0.930 . S
C662 C658 1.524 1_565 S
C662 H674 0.956 . S
C662 H675 0.961 . S
C662 H676 0.961 . S
C663 C660 1.539 . S
C663 H677 0.958 . S
C663 H678 0.961 . S
C663 H679 0.960 . S
H664 C648 0.931 . S
H665 C653 0.929 . S
H666 C654 0.960 . S
H667 C654 0.962 . S
H668 C654 0.960 . S
H669 C655 0.961 . S
H670 C655 0.961 . S
H671 C655 0.961 . S
H672 C656 0.931 . S
H673 C661 0.930 . S
H674 C662 0.956 . S
H675 C662 0.961 . S
H676 C662 0.961 . S
H677 C663 0.958 . S
H678 C663 0.961 . S
H679 C663 0.960 . S
C680 C681 1.391 . S
C680 C682 1.394 . S
C680 H696 0.931 . S
C681 C680 1.391 . S
C681 C685 1.376 . S
C682 C680 1.394 . S
C682 C683 1.369 . S
C682 C686 1.531 1_554 S
C683 C682 1.369 . S
C683 C684 1.410 . S
C683 C691 1.503 1_554 S
C684 C683 1.410 . S
C684 C685 1.392 . S
C684 C687 1.511 . S
C685 C681 1.376 . S
C685 C684 1.392 . S
C685 H697 0.929 . S
C686 C682 1.531 1_556 S
C686 H698 0.960 . S
C686 H699 0.962 . S
C686 H700 0.960 . S
C687 C684 1.511 . S
C687 H701 0.961 . S
C687 H702 0.961 . S
C687 H703 0.961 . S
C688 C689 1.375 . S
C688 C690 1.361 1_556 S
C688 H704 0.929 1_556 S
C689 C688 1.375 . S
C689 C693 1.408 . S
C690 C688 1.361 1_554 S
C690 C691 1.370 1_554 S
C690 C694 1.524 . S
C691 C683 1.503 1_556 S
C691 C690 1.370 1_556 S
C691 C692 1.403 . S
C692 C691 1.403 . S
C692 C693 1.404 . S
C692 C695 1.539 . S
C693 C689 1.408 . S
C693 C692 1.404 . S
C693 H705 0.930 . S
C694 C690 1.524 . S
C694 H706 0.956 . S
C694 H707 0.961 . S
C694 H708 0.961 . S
C695 C692 1.539 . S
C695 H709 0.958 . S
C695 H710 0.961 . S
C695 H711 0.960 . S
H696 C680 0.931 . S
H697 C685 0.929 . S
H698 C686 0.960 . S
H699 C686 0.962 . S
H700 C686 0.960 . S
H701 C687 0.961 . S
H702 C687 0.961 . S
H703 C687 0.961 . S
H704 C688 0.929 1_554 S
H705 C693 0.930 . S
H706 C694 0.956 . S
H707 C694 0.961 . S
H708 C694 0.961 . S
H709 C695 0.958 . S
H710 C695 0.961 . S
H711 C695 0.960 . S
C712 C713 1.391 . S
C712 C714 1.394 . S
C712 H728 0.931 . S
C713 C712 1.391 . S
C713 C717 1.376 . S
C714 C712 1.394 . S
C714 C715 1.369 . S
C714 C718 1.531 . S
C715 C714 1.369 . S
C715 C716 1.410 . S
C715 C723 1.503 . S
C716 C715 1.410 . S
C716 C717 1.392 . S
C716 C719 1.511 . S
C717 C713 1.376 . S
C717 C716 1.392 . S
C717 H729 0.929 . S
C718 C714 1.531 . S
C718 H730 0.960 . S
C718 H731 0.962 . S
C718 H732 0.960 . S
C719 C716 1.511 . S
C719 H733 0.961 . S
C719 H734 0.961 . S
C719 H735 0.961 . S
C720 C721 1.370 . S
C720 C722 1.363 . S
C720 H736 0.931 . S
C721 C720 1.370 . S
C721 C725 1.408 . S
C722 C720 1.363 . S
C722 C723 1.370 . S
C722 C726 1.524 . S
C723 C715 1.503 . S
C723 C722 1.370 . S
C723 C724 1.403 . S
C724 C723 1.403 . S
C724 C725 1.404 . S
C724 C727 1.539 . S
C725 C721 1.408 . S
C725 C724 1.404 . S
C725 H737 0.930 . S
C726 C722 1.524 . S
C726 H738 0.956 . S
C726 H739 0.961 . S
C726 H740 0.961 . S
C727 C724 1.539 . S
C727 H741 0.958 . S
C727 H742 0.961 . S
C727 H743 0.960 . S
H728 C712 0.931 . S
H729 C717 0.929 . S
H730 C718 0.960 . S
H731 C718 0.962 . S
H732 C718 0.960 . S
H733 C719 0.961 . S
H734 C719 0.961 . S
H735 C719 0.961 . S
H736 C720 0.931 . S
H737 C725 0.930 . S
H738 C726 0.956 . S
H739 C726 0.961 . S
H740 C726 0.961 . S
H741 C727 0.958 . S
H742 C727 0.961 . S
H743 C727 0.960 . S
C744 C745 1.389 1_455 S
C744 C746 1.394 . S
C744 H760 0.931 . S
C745 C744 1.389 1_655 S
C745 C749 1.378 1_554 S
C746 C744 1.394 . S
C746 C747 1.381 1_554 S
C746 C750 1.531 . S
C747 C746 1.381 1_556 S
C747 C748 1.399 1_455 S
C747 C755 1.502 . S
C748 C747 1.399 1_655 S
C748 C749 1.392 . S
C748 C751 1.511 . S
C749 C745 1.378 1_556 S
C749 C748 1.392 . S
C749 H761 0.929 . S
C750 C746 1.531 . S
C750 H762 0.960 . S
C750 H763 0.962 . S
C750 H764 0.960 . S
C751 C748 1.511 . S
C751 H765 0.961 . S
C751 H766 0.961 . S
C751 H767 0.961 . S
C752 C753 1.370 . S
C752 C754 1.363 . S
C752 H768 0.931 . S
C753 C752 1.370 . S
C753 C757 1.408 1_455 S
C754 C752 1.363 . S
C754 C755 1.370 . S
C754 C758 1.524 . S
C755 C747 1.502 . S
C755 C754 1.370 . S
C755 C756 1.403 1_455 S
C756 C755 1.403 1_655 S
C756 C757 1.404 . S
C756 C759 1.539 1_556 S
C757 C753 1.408 1_655 S
C757 C756 1.404 . S
C757 H769 0.930 . S
C758 C754 1.524 . S
C758 H770 0.956 . S
C758 H771 0.961 . S
C758 H772 0.961 . S
C759 C756 1.539 1_554 S
C759 H773 0.958 . S
C759 H774 0.961 . S
C759 H775 0.960 . S
H760 C744 0.931 . S
H761 C749 0.929 . S
H762 C750 0.960 . S
H763 C750 0.962 . S
H764 C750 0.960 . S
H765 C751 0.961 . S
H766 C751 0.961 . S
H767 C751 0.961 . S
H768 C752 0.931 . S
H769 C757 0.930 . S
H770 C758 0.956 . S
H771 C758 0.961 . S
H772 C758 0.961 . S
H773 C759 0.958 . S
H774 C759 0.961 . S
H775 C759 0.960 . S
C776 C777 1.391 . S
C776 C778 1.394 . S
C776 H792 0.931 . S
C777 C776 1.391 . S
C777 C781 1.376 1_545 S
C778 C776 1.394 . S
C778 C779 1.369 . S
C778 C782 1.531 1_554 S
C779 C778 1.369 . S
C779 C780 1.410 1_545 S
C779 C787 1.503 1_554 S
C780 C779 1.410 1_565 S
C780 C781 1.392 . S
C780 C783 1.511 . S
C781 C777 1.376 1_565 S
C781 C780 1.392 . S
C781 H793 0.929 . S
C782 C778 1.531 1_556 S
C782 H794 0.960 . S
C782 H795 0.962 . S
C782 H796 0.960 . S
C783 C780 1.511 . S
C783 H797 0.961 . S
C783 H798 0.961 . S
C783 H799 0.961 . S
C784 C785 1.370 1_565 S
C784 C786 1.363 . S
C784 H800 0.931 . S
C785 C784 1.370 1_545 S
C785 C789 1.408 . S
C786 C784 1.363 . S
C786 C787 1.370 1_565 S
C786 C790 1.524 . S
C787 C779 1.503 1_556 S
C787 C786 1.370 1_545 S
C787 C788 1.403 1_556 S
C788 C787 1.403 1_554 S
C788 C789 1.404 1_554 S
C788 C791 1.539 . S
C789 C785 1.408 . S
C789 C788 1.404 1_556 S
C789 H801 0.930 1_556 S
C790 C786 1.524 . S
C790 H802 0.956 . S
C790 H803 0.961 . S
C790 H804 0.961 . S
C791 C788 1.539 . S
C791 H805 0.958 . S
C791 H806 0.961 . S
C791 H807 0.960 . S
H792 C776 0.931 . S
H793 C781 0.929 . S
H794 C782 0.960 . S
H795 C782 0.962 . S
H796 C782 0.960 . S
H797 C783 0.961 . S
H798 C783 0.961 . S
H799 C783 0.961 . S
H800 C784 0.931 . S
H801 C789 0.930 1_554 S
H802 C790 0.956 . S
H803 C790 0.961 . S
H804 C790 0.961 . S
H805 C791 0.958 . S
H806 C791 0.961 . S
H807 C791 0.960 . S
C808 C809 1.391 . S
C808 C810 1.394 . S
C808 H824 0.931 . S
C809 C808 1.391 . S
C809 C813 1.376 . S
C810 C808 1.394 . S
C810 C811 1.369 . S
C810 C814 1.531 . S
C811 C810 1.369 . S
C811 C812 1.410 . S
C811 C819 1.503 . S
C812 C811 1.410 . S
C812 C813 1.392 . S
C812 C815 1.511 . S
C813 C809 1.376 . S
C813 C812 1.392 . S
C813 H825 0.929 . S
C814 C810 1.531 . S
C814 H826 0.960 . S
C814 H827 0.962 . S
C814 H828 0.960 . S
C815 C812 1.511 . S
C815 H829 0.961 . S
C815 H830 0.961 . S
C815 H831 0.961 . S
C816 C817 1.370 . S
C816 C818 1.363 1_556 S
C816 H832 0.931 . S
C817 C816 1.370 . S
C817 C821 1.408 1_556 S
C818 C816 1.363 1_554 S
C818 C819 1.370 . S
C818 C822 1.524 . S
C819 C811 1.503 . S
C819 C818 1.370 . S
C819 C820 1.403 . S
C820 C819 1.403 . S
C820 C821 1.404 . S
C820 C823 1.539 . S
C821 C817 1.408 1_554 S
C821 C820 1.404 . S
C821 H833 0.930 . S
C822 C818 1.524 . S
C822 H834 0.956 . S
C822 H835 0.961 . S
C822 H836 0.961 1_554 S
C823 C820 1.539 . S
C823 H837 0.958 . S
C823 H838 0.961 . S
C823 H839 0.960 . S
H824 C808 0.931 . S
H825 C813 0.929 . S
H826 C814 0.960 . S
H827 C814 0.962 . S
H828 C814 0.960 . S
H829 C815 0.961 . S
H830 C815 0.961 . S
H831 C815 0.961 . S
H832 C816 0.931 . S
H833 C821 0.930 . S
H834 C822 0.956 . S
H835 C822 0.961 . S
H836 C822 0.961 1_556 S
H837 C823 0.958 . S
H838 C823 0.961 . S
H839 C823 0.960 . S
C840 C841 1.391 . S
C840 C842 1.394 . S
C840 H856 0.931 . S
C841 C840 1.391 . S
C841 C845 1.376 . S
C842 C840 1.394 . S
C842 C843 1.369 . S
C842 C846 1.531 . S
C843 C842 1.369 . S
C843 C844 1.410 . S
C843 C851 1.503 . S
C844 C843 1.410 . S
C844 C845 1.392 . S
C844 C847 1.511 . S
C845 C841 1.376 . S
C845 C844 1.392 . S
C845 H857 0.929 . S
C846 C842 1.531 . S
C846 H858 0.960 . S
C846 H859 0.962 1_556 S
C846 H860 0.960 1_556 S
C847 C844 1.511 . S
C847 H861 0.961 . S
C847 H862 0.961 . S
C847 H863 0.961 . S
C848 C849 1.370 . S
C848 C850 1.363 . S
C848 H864 0.931 . S
C849 C848 1.370 . S
C849 C853 1.408 . S
C850 C848 1.363 . S
C850 C851 1.370 . S
C850 C854 1.524 . S
C851 C843 1.503 . S
C851 C850 1.370 . S
C851 C852 1.403 . S
C852 C851 1.403 . S
C852 C853 1.404 . S
C852 C855 1.539 . S
C853 C849 1.408 . S
C853 C852 1.404 . S
C853 H865 0.930 . S
C854 C850 1.524 . S
C854 H866 0.956 . S
C854 H867 0.961 . S
C854 H868 0.961 . S
C855 C852 1.539 . S
C855 H869 0.958 . S
C855 H870 0.961 . S
C855 H871 0.960 . S
H856 C840 0.931 . S
H857 C845 0.929 . S
H858 C846 0.960 . S
H859 C846 0.962 1_554 S
H860 C846 0.960 1_554 S
H861 C847 0.961 . S
H862 C847 0.961 . S
H863 C847 0.961 . S
H864 C848 0.931 . S
H865 C853 0.930 . S
H866 C854 0.956 . S
H867 C854 0.961 . S
H868 C854 0.961 . S
H869 C855 0.958 . S
H870 C855 0.961 . S
H871 C855 0.960 . S
C872 C873 1.385 1_655 S
C872 C874 1.394 . S
C872 H888 0.931 . S
C873 C872 1.385 1_455 S
C873 C877 1.386 . S
C874 C872 1.394 . S
C874 C875 1.356 1_655 S
C874 C878 1.531 . S
C875 C874 1.356 1_455 S
C875 C876 1.419 . S
C875 C883 1.505 1_455 S
C876 C875 1.419 . S
C876 C877 1.392 . S
C876 C879 1.511 . S
C877 C873 1.386 . S
C877 C876 1.392 . S
C877 H889 0.929 . S
C878 C874 1.531 . S
C878 H890 0.960 . S
C878 H891 0.962 . S
C878 H892 0.960 . S
C879 C876 1.511 . S
C879 H893 0.961 . S
C879 H894 0.961 . S
C879 H895 0.961 . S
C880 C881 1.370 . S
C880 C882 1.363 . S
C880 H896 0.931 . S
C881 C880 1.370 . S
C881 C885 1.408 1_655 S
C882 C880 1.363 . S
C882 C883 1.370 . S
C882 C886 1.524 . S
C883 C875 1.505 1_655 S
C883 C882 1.370 . S
C883 C884 1.403 1_655 S
C884 C883 1.403 1_455 S
C884 C885 1.404 . S
C884 C887 1.539 . S
C885 C881 1.408 1_455 S
C885 C884 1.404 . S
C885 H897 0.930 . S
C886 C882 1.524 . S
C886 H898 0.956 . S
C886 H899 0.961 . S
C886 H900 0.961 . S
C887 C884 1.539 . S
C887 H901 0.958 . S
C887 H902 0.961 . S
C887 H903 0.960 . S
H888 C872 0.931 . S
H889 C877 0.929 . S
H890 C878 0.960 . S
H891 C878 0.962 . S
H892 C878 0.960 . S
H893 C879 0.961 . S
H894 C879 0.961 . S
H895 C879 0.961 . S
H896 C880 0.931 . S
H897 C885 0.930 . S
H898 C886 0.956 . S
H899 C886 0.961 . S
H900 C886 0.961 . S
H901 C887 0.958 . S
H902 C887 0.961 . S
H903 C887 0.960 . S
C904 C905 1.391 1_545 S
C904 C906 1.394 . S
C904 H920 0.931 . S
C905 C904 1.391 1_565 S
C905 C909 1.376 . S
C906 C904 1.394 . S
C906 C907 1.369 1_545 S
C906 C910 1.531 . S
C907 C906 1.369 1_565 S
C907 C908 1.410 . S
C907 C915 1.503 . S
C908 C907 1.410 . S
C908 C909 1.392 . S
C908 C911 1.511 . S
C909 C905 1.376 . S
C909 C908 1.392 . S
C909 H921 0.929 . S
C910 C906 1.531 . S
C910 H922 0.960 . S
C910 H923 0.962 . S
C910 H924 0.960 . S
C911 C908 1.511 . S
C911 H925 0.961 . S
C911 H926 0.961 . S
C911 H927 0.961 . S
C912 C913 1.370 . S
C912 C914 1.363 . S
C912 H928 0.931 . S
C913 C912 1.370 . S
C913 C917 1.408 . S
C914 C912 1.363 . S
C914 C915 1.370 . S
C914 C918 1.524 1_565 S
C915 C907 1.503 . S
C915 C914 1.370 . S
C915 C916 1.403 . S
C916 C915 1.403 . S
C916 C917 1.404 . S
C916 C919 1.539 . S
C917 C913 1.408 . S
C917 C916 1.404 . S
C917 H929 0.930 . S
C918 C914 1.524 1_545 S
C918 H930 0.956 . S
C918 H931 0.961 1_545 S
C918 H932 0.961 . S
C919 C916 1.539 . S
C919 H933 0.965 . S
C919 H934 0.961 . S
C919 H935 0.960 . S
H920 C904 0.931 . S
H921 C909 0.929 . S
H922 C910 0.960 . S
H923 C910 0.962 . S
H924 C910 0.960 . S
H925 C911 0.961 . S
H926 C911 0.961 . S
H927 C911 0.961 . S
H928 C912 0.931 . S
H929 C917 0.930 . S
H930 C918 0.956 . S
H931 C918 0.961 1_565 S
H932 C918 0.961 . S
H933 C919 0.965 . S
H934 C919 0.961 . S
H935 C919 0.960 . S
C936 C937 1.391 . S
C936 C938 1.394 . S
C936 H952 0.931 . S
C937 C936 1.391 . S
C937 C941 1.376 . S
C938 C936 1.394 . S
C938 C939 1.369 . S
C938 C942 1.531 . S
C939 C938 1.369 . S
C939 C940 1.410 . S
C939 C947 1.503 . S
C940 C939 1.410 . S
C940 C941 1.392 . S
C940 C943 1.511 . S
C941 C937 1.376 . S
C941 C940 1.392 . S
C941 H953 0.929 . S
C942 C938 1.531 . S
C942 H954 0.960 . S
C942 H955 0.962 . S
C942 H956 0.960 . S
C943 C940 1.511 . S
C943 H957 0.961 . S
C943 H958 0.961 . S
C943 H959 0.961 . S
C944 C945 1.370 . S
C944 C946 1.363 . S
C944 H960 0.931 . S
C945 C944 1.370 . S
C945 C949 1.408 . S
C946 C944 1.363 . S
C946 C947 1.370 . S
C946 C950 1.524 . S
C947 C939 1.503 . S
C947 C946 1.370 . S
C947 C948 1.403 . S
C948 C947 1.403 . S
C948 C949 1.404 . S
C948 C951 1.539 . S
C949 C945 1.408 . S
C949 C948 1.404 . S
C949 H961 0.930 . S
C950 C946 1.524 . S
C950 H962 0.956 . S
C950 H963 0.961 . S
C950 H964 0.961 . S
C951 C948 1.539 . S
C951 H965 0.958 . S
C951 H966 0.961 . S
C951 H967 0.960 . S
H952 C936 0.931 . S
H953 C941 0.929 . S
H954 C942 0.960 . S
H955 C942 0.962 . S
H956 C942 0.960 . S
H957 C943 0.961 . S
H958 C943 0.961 . S
H959 C943 0.961 . S
H960 C944 0.931 . S
H961 C949 0.930 . S
H962 C950 0.956 . S
H963 C950 0.961 . S
H964 C950 0.961 . S
H965 C951 0.958 . S
H966 C951 0.961 . S
H967 C951 0.960 . S
C968 C969 1.391 . S
C968 C970 1.394 . S
C968 H984 0.931 . S
C969 C968 1.391 . S
C969 C973 1.376 . S
C970 C968 1.394 . S
C970 C971 1.369 . S
C970 C974 1.531 . S
C971 C970 1.369 . S
C971 C972 1.410 . S
C971 C979 1.503 . S
C972 C971 1.410 . S
C972 C973 1.392 . S
C972 C975 1.511 . S
C973 C969 1.376 . S
C973 C972 1.392 . S
C973 H985 0.929 . S
C974 C970 1.531 . S
C974 H986 0.960 . S
C974 H987 0.962 . S
C974 H988 0.960 . S
C975 C972 1.511 . S
C975 H989 0.961 . S
C975 H990 0.961 . S
C975 H991 0.961 . S
C976 C977 1.370 . S
C976 C978 1.363 . S
C976 H992 0.931 . S
C977 C976 1.370 . S
C977 C981 1.408 . S
C978 C976 1.363 . S
C978 C979 1.370 . S
C978 C982 1.524 . S
C979 C971 1.503 . S
C979 C978 1.370 . S
C979 C980 1.403 . S
C980 C979 1.403 . S
C980 C981 1.404 . S
C980 C983 1.539 . S
C981 C977 1.408 . S
C981 C980 1.404 . S
C981 H993 0.930 . S
C982 C978 1.524 . S
C982 H994 0.956 . S
C982 H995 0.961 . S
C982 H996 0.961 . S
C983 C980 1.539 . S
C983 H997 0.958 . S
C983 H998 0.961 . S
C983 H999 0.960 . S
H984 C968 0.931 . S
H985 C973 0.929 . S
H986 C974 0.960 . S
H987 C974 0.962 . S
H988 C974 0.960 . S
H989 C975 0.961 . S
H990 C975 0.961 . S
H991 C975 0.961 . S
H992 C976 0.931 . S
H993 C981 0.930 . S
H994 C982 0.956 . S
H995 C982 0.961 . S
H996 C982 0.961 . S
H997 C983 0.958 . S
H998 C983 0.961 . S
H999 C983 0.960 . S
C233 C61 1.876 . S
C241 C74 1.961 1_545 S
C273 C114 1.954 . S
C265 C70 1.937 . S
C305 C178 1.929 . S
C297 C43 1.832 . S
C337 C194 1.634 1_455 S
C329 C52 1.427 1_455 S
C369 C95 1.964 1_565 S
C361 C25 1.926 1_545 S
C393 C34 1.904 . S
C401 C135 1.955 . S
C425 C7 1.802 . S
C433 C169 1.937 . S
C457 C16 1.518 . S
C465 C215 1.626 1_655 S
C497 C89 0.468 . S
C489 C50 0.337 1_455 S
C529 C129 0.584 . S
C521 C59 0.645 1_545 S
C561 C165 0.520 . S
C553 C67 0.505 . S
C585 C41 0.653 . S
C593 C209 0.646 . S
C617 C14 0.425 . S
C625 C98 0.400 . S
C657 C138 0.627 . S
C649 C23 0.603 1_545 S
C689 C176 0.481 . S
C681 C31 0.580 . S
C713 C5 0.692 . S
C721 C218 0.639 . S
C745 C49 1.769 . S
C753 C96 2.005 . S
C777 C58 1.780 1_545 S
C785 C136 1.998 . S
C817 C154 1.667 . S
C809 C68 1.607 . S
C849 C216 2.294 . S
C841 C40 2.056 . S
C873 C13 1.817 1_455 S
C881 C85 2.014 . S
C913 C125 1.998 . S
C905 C22 1.775 . S
C945 C175 1.666 . S
C937 C32 1.600 . S
C969 C4 2.074 . S
C977 C205 2.298 . S
