# Generated by pormake.
# Topology pyr, (3,6)-cn, num edge types: 1
# Building blocks:
#     Node 0, Type 0, BuildingBlock: KAKCAD_clean_linker_0, # of connection points: 3
#     Node 1, Type 0, BuildingBlock: KAKCAD_clean_linker_0, # of connection points: 3
#     Node 2, Type 0, BuildingBlock: KAKCAD_clean_linker_0, # of connection points: 3
#     Node 3, Type 0, BuildingBlock: KAKCAD_clean_linker_0, # of connection points: 3
#     Node 4, Type 0, BuildingBlock: KAKCAD_clean_linker_0, # of connection points: 3
#     Node 5, Type 0, BuildingBlock: KAKCAD_clean_linker_0, # of connection points: 3
#     Node 6, Type 0, BuildingBlock: KAKCAD_clean_linker_0, # of connection points: 3
#     Node 7, Type 0, BuildingBlock: KAKCAD_clean_linker_0, # of connection points: 3
#     Node 8, Type 1, BuildingBlock: BETGAK_clean_sbu_0, # of connection points: 6
#     Node 9, Type 1, BuildingBlock: BETGAK_clean_sbu_0, # of connection points: 6
#     Node 10, Type 1, BuildingBlock: BETGAK_clean_sbu_0, # of connection points: 6
#     Node 11, Type 1, BuildingBlock: BETGAK_clean_sbu_0, # of connection points: 6
#     Edge 12, Type (0, 1), BuildingBlock: EZIPEK_clean_linker_0, # of connection points: 2
#     Edge 13, Type (0, 1), BuildingBlock: EZIPEK_clean_linker_0, # of connection points: 2
#     Edge 14, Type (0, 1), BuildingBlock: EZIPEK_clean_linker_0, # of connection points: 2
#     Edge 15, Type (0, 1), BuildingBlock: EZIPEK_clean_linker_0, # of connection points: 2
#     Edge 16, Type (0, 1), BuildingBlock: EZIPEK_clean_linker_0, # of connection points: 2
#     Edge 17, Type (0, 1), BuildingBlock: EZIPEK_clean_linker_0, # of connection points: 2
#     Edge 18, Type (0, 1), BuildingBlock: EZIPEK_clean_linker_0, # of connection points: 2
#     Edge 19, Type (0, 1), BuildingBlock: EZIPEK_clean_linker_0, # of connection points: 2
#     Edge 20, Type (0, 1), BuildingBlock: EZIPEK_clean_linker_0, # of connection points: 2
#     Edge 21, Type (0, 1), BuildingBlock: EZIPEK_clean_linker_0, # of connection points: 2
#     Edge 22, Type (0, 1), BuildingBlock: EZIPEK_clean_linker_0, # of connection points: 2
#     Edge 23, Type (0, 1), BuildingBlock: EZIPEK_clean_linker_0, # of connection points: 2
#     Edge 24, Type (0, 1), BuildingBlock: EZIPEK_clean_linker_0, # of connection points: 2
#     Edge 25, Type (0, 1), BuildingBlock: EZIPEK_clean_linker_0, # of connection points: 2
#     Edge 26, Type (0, 1), BuildingBlock: EZIPEK_clean_linker_0, # of connection points: 2
#     Edge 27, Type (0, 1), BuildingBlock: EZIPEK_clean_linker_0, # of connection points: 2
#     Edge 28, Type (0, 1), BuildingBlock: EZIPEK_clean_linker_0, # of connection points: 2
#     Edge 29, Type (0, 1), BuildingBlock: EZIPEK_clean_linker_0, # of connection points: 2
#     Edge 30, Type (0, 1), BuildingBlock: EZIPEK_clean_linker_0, # of connection points: 2
#     Edge 31, Type (0, 1), BuildingBlock: EZIPEK_clean_linker_0, # of connection points: 2
#     Edge 32, Type (0, 1), BuildingBlock: EZIPEK_clean_linker_0, # of connection points: 2
#     Edge 33, Type (0, 1), BuildingBlock: EZIPEK_clean_linker_0, # of connection points: 2
#     Edge 34, Type (0, 1), BuildingBlock: EZIPEK_clean_linker_0, # of connection points: 2
#     Edge 35, Type (0, 1), BuildingBlock: EZIPEK_clean_linker_0, # of connection points: 2
# Relax obj value: 0.134
# Max RMSD: 0.129
# Mean RMSD: 0.063
data_MOF--net-pyr--node1-BETGAK_clean_sbu_0--node2-KAKCAD_clean_linker_0--edge1-EZIPEK_clean_linker_0
_symmetry_space_group_name_H-M    P1
_symmetry_Int_Tables_number       1
_symmetry_cell_setting            triclinic
loop_
_symmetry_equiv_pos_as_xyz
'x, y, z'
_cell_length_a     36.402853
_cell_length_b     38.482939
_cell_length_c     34.656861
_cell_angle_alpha  90.616022
_cell_angle_beta   88.986758
_cell_angle_gamma 102.7871
loop_
_atom_site_label
_atom_site_type_symbol
_atom_site_fract_x
_atom_site_fract_y
_atom_site_fract_z
_atom_type_partial_charge
C0 C 0.27252 0.23606 0.3559 0.0
C1 C 0.26256 0.26271 0.37908 0.0
C2 C 0.29986 0.24504 0.32688 0.0
C3 C 0.3174 0.28089 0.32045 0.0
C4 C 0.3101 0.30713 0.34625 0.0
C5 C 0.283 0.29803 0.37569 0.0
C6 C 0.33585 0.29104 0.2826 0.0
C7 C 0.32149 0.31443 0.25962 0.0
C8 C 0.33046 0.31786 0.22019 0.0
C9 C 0.35647 0.29957 0.2041 0.0
C10 C 0.37183 0.2763 0.22695 0.0
C11 C 0.36126 0.27229 0.26624 0.0
C12 C 0.39491 0.2527 0.20922 0.0
C13 C 0.38525 0.23634 0.17316 0.0
C14 C 0.42483 0.24403 0.22952 0.0
C15 C 0.44383 0.21886 0.21465 0.0
C16 C 0.43345 0.2022 0.17911 0.0
C17 C 0.30768 0.33597 0.19564 0.0
C18 C 0.26822 0.32617 0.199 0.0
C19 C 0.32433 0.36381 0.17071 0.0
C20 C 0.30167 0.38271 0.15101 0.0
C21 C 0.2623 0.37367 0.15603 0.0
C22 C 0.2458 0.34485 0.17944 0.0
C23 C 0.40445 0.21141 0.15823 0.0
H24 H 0.25718 0.20861 0.35843 0.0
H25 H 0.30463 0.22432 0.30726 0.0
H26 H 0.32337 0.33494 0.34188 0.0
H27 H 0.27584 0.31882 0.3937 0.0
H28 H 0.30049 0.32771 0.27167 0.0
H29 H 0.37085 0.25289 0.28362 0.0
H30 H 0.36305 0.30199 0.1735 0.0
H31 H 0.36195 0.24177 0.15706 0.0
H32 H 0.43323 0.25637 0.25716 0.0
H33 H 0.46635 0.2121 0.23097 0.0
H34 H 0.25467 0.30438 0.2175 0.0
H35 H 0.35469 0.37169 0.16762 0.0
H36 H 0.39612 0.19867 0.13074 0.0
H37 H 0.21547 0.33738 0.18336 0.0
H38 H 0.31474 0.40486 0.1328 0.0
C39 C 0.24927 0.86165 0.79075 0.0
C40 C 0.28754 0.87019 0.80008 0.0
C41 C 0.23825 0.84865 0.75392 0.0
C42 C 0.26542 0.8443 0.72592 0.0
C43 C 0.30348 0.8506 0.73655 0.0
C44 C 0.31439 0.86337 0.77332 0.0
C45 C 0.25531 0.83847 0.68463 0.0
C46 C 0.23173 0.8582 0.66795 0.0
C47 C 0.22809 0.85909 0.62777 0.0
C48 C 0.24741 0.83928 0.60392 0.0
C49 C 0.27112 0.81933 0.62011 0.0
C50 C 0.27412 0.81836 0.6605 0.0
C51 C 0.29804 0.80479 0.59573 0.0
C52 C 0.30667 0.77223 0.60545 0.0
C53 C 0.32026 0.82632 0.56757 0.0
C54 C 0.35284 0.8172 0.5526 0.0
C55 C 0.36364 0.78684 0.56619 0.0
C56 C 0.20894 0.88516 0.611 0.0
C57 C 0.22006 0.92108 0.62209 0.0
C58 C 0.17953 0.87468 0.58474 0.0
C59 C 0.1604 0.89976 0.57108 0.0
C60 C 0.17106 0.93544 0.58318 0.0
C61 C 0.20135 0.94603 0.60819 0.0
C62 C 0.33935 0.76344 0.59094 0.0
H63 H 0.22826 0.86693 0.81116 0.0
H64 H 0.2087 0.84367 0.74674 0.0
H65 H 0.32529 0.84818 0.71569 0.0
H66 H 0.34409 0.87013 0.7801 0.0
H67 H 0.21822 0.87509 0.68597 0.0
H68 H 0.2934 0.80405 0.67312 0.0
H69 H 0.24589 0.84125 0.57283 0.0
H70 H 0.28967 0.75486 0.62651 0.0
H71 H 0.31438 0.85165 0.5596 0.0
H72 H 0.37116 0.83527 0.53311 0.0
H73 H 0.2431 0.92978 0.64184 0.0
H74 H 0.17074 0.84707 0.57579 0.0
H75 H 0.34704 0.73953 0.60117 0.0
H76 H 0.20988 0.97353 0.61766 0.0
H77 H 0.13695 0.89132 0.55179 0.0
C78 C 0.77343 0.46797 0.95254 0.0
C79 C 0.8037 0.45117 0.95743 0.0
C80 C 0.74067 0.45061 0.93307 0.0
C81 C 0.73681 0.41559 0.91867 0.0
C82 C 0.76703 0.39872 0.92397 0.0
C83 C 0.80007 0.41636 0.94269 0.0
C84 C 0.70116 0.39635 0.89922 0.0
C85 C 0.68436 0.4129 0.87015 0.0
C86 C 0.65069 0.3952 0.85179 0.0
C87 C 0.63357 0.36007 0.86429 0.0
C88 C 0.64996 0.34269 0.89324 0.0
C89 C 0.68385 0.36122 0.90997 0.0
C90 C 0.63212 0.30535 0.90687 0.0
C91 C 0.59362 0.29536 0.9173 0.0
C92 C 0.65419 0.27987 0.91186 0.0
C93 C 0.6385 0.24583 0.92698 0.0
C94 C 0.60028 0.23616 0.93842 0.0
C95 C 0.63417 0.41339 0.81938 0.0
C96 C 0.63831 0.45085 0.81866 0.0
C97 C 0.615 0.39385 0.78812 0.0
C98 C 0.60109 0.41101 0.75745 0.0
C99 C 0.60591 0.44836 0.75673 0.0
C100 C 0.62461 0.46795 0.78791 0.0
C101 C 0.57806 0.26149 0.93316 0.0
H102 H 0.77531 0.49475 0.96354 0.0
H103 H 0.71798 0.46438 0.92991 0.0
H104 H 0.76528 0.37189 0.9132 0.0
H105 H 0.82286 0.40271 0.94587 0.0
H106 H 0.69849 0.43938 0.86105 0.0
H107 H 0.6963 0.34856 0.93257 0.0
H108 H 0.60751 0.34605 0.85146 0.0
H109 H 0.57572 0.31418 0.91433 0.0
H110 H 0.68384 0.28629 0.90404 0.0
H111 H 0.65646 0.2271 0.9303 0.0
H112 H 0.652 0.46726 0.8421 0.0
H113 H 0.61138 0.36519 0.78674 0.0
H114 H 0.54857 0.25511 0.94165 0.0
H115 H 0.62863 0.49669 0.78851 0.0
H116 H 0.58688 0.39505 0.73393 0.0
C117 C 0.92739 0.67828 0.25005 0.0
C118 C 0.92438 0.6411 0.24965 0.0
C119 C 0.91385 0.69558 0.28182 0.0
C120 C 0.89641 0.67626 0.31423 0.0
C121 C 0.89373 0.63901 0.31366 0.0
C122 C 0.90752 0.62184 0.28209 0.0
C123 C 0.88 0.69431 0.34779 0.0
C124 C 0.84555 0.67696 0.36582 0.0
C125 C 0.82901 0.69303 0.39653 0.0
C126 C 0.84786 0.7271 0.4095 0.0
C127 C 0.88213 0.74559 0.39263 0.0
C128 C 0.89801 0.72877 0.36176 0.0
C129 C 0.90049 0.78234 0.40816 0.0
C130 C 0.87832 0.80692 0.41867 0.0
C131 C 0.93952 0.79256 0.41513 0.0
C132 C 0.95541 0.82556 0.43312 0.0
C133 C 0.9329 0.8496 0.44433 0.0
C134 C 0.79187 0.6748 0.41521 0.0
C135 C 0.76522 0.69463 0.42691 0.0
C136 C 0.78287 0.63781 0.42252 0.0
C137 C 0.74881 0.62148 0.44139 0.0
C138 C 0.72267 0.64163 0.45339 0.0
C139 C 0.73126 0.67833 0.44561 0.0
C140 C 0.8942 0.83987 0.43629 0.0
H141 H 0.94016 0.69401 0.22561 0.0
H142 H 0.91631 0.72409 0.28053 0.0
H143 H 0.88111 0.62292 0.3379 0.0
H144 H 0.90482 0.59326 0.28295 0.0
H145 H 0.83081 0.65121 0.35507 0.0
H146 H 0.92433 0.74255 0.34861 0.0
H147 H 0.83611 0.73909 0.43383 0.0
H148 H 0.84832 0.80058 0.41346 0.0
H149 H 0.95764 0.77455 0.40786 0.0
H150 H 0.98532 0.83214 0.43879 0.0
H151 H 0.77044 0.72295 0.42135 0.0
H152 H 0.80252 0.62152 0.41435 0.0
H153 H 0.87603 0.85769 0.44418 0.0
H154 H 0.7116 0.69451 0.45416 0.0
H155 H 0.74292 0.59311 0.44683 0.0
C156 C 0.76377 0.79072 0.74427 0.0
C157 C 0.78181 0.82682 0.74227 0.0
C158 C 0.73261 0.77993 0.76895 0.0
C159 C 0.71968 0.80511 0.79232 0.0
C160 C 0.73521 0.84155 0.78653 0.0
C161 C 0.76608 0.85228 0.76171 0.0
C162 C 0.69785 0.79384 0.82841 0.0
C163 C 0.70949 0.769 0.85191 0.0
C164 C 0.6986 0.7653 0.89086 0.0
C165 C 0.67426 0.78575 0.9062 0.0
C166 C 0.6608 0.8097 0.88265 0.0
C167 C 0.67238 0.81321 0.84365 0.0
C168 C 0.63887 0.83451 0.8996 0.0
C169 C 0.60769 0.84168 0.88031 0.0
C170 C 0.65066 0.8531 0.93396 0.0
C171 C 0.63207 0.87868 0.9484 0.0
C172 C 0.60127 0.88598 0.92888 0.0
C173 C 0.71928 0.74554 0.9159 0.0
C174 C 0.72353 0.71138 0.90478 0.0
C175 C 0.74196 0.7639 0.9453 0.0
C176 C 0.77088 0.74989 0.96051 0.0
C177 C 0.77712 0.71723 0.94679 0.0
C178 C 0.75225 0.69727 0.92022 0.0
C179 C 0.58888 0.8671 0.89498 0.0
H180 H 0.77562 0.77079 0.7293 0.0
H181 H 0.72084 0.7517 0.77238 0.0
H182 H 0.72629 0.8617 0.80413 0.0
H183 H 0.77978 0.88028 0.76035 0.0
H184 H 0.73077 0.75542 0.8412 0.0
H185 H 0.66395 0.8331 0.82599 0.0
H186 H 0.66685 0.78384 0.93665 0.0
H187 H 0.598 0.82771 0.85382 0.0
H188 H 0.67496 0.84862 0.9491 0.0
H189 H 0.64186 0.89302 0.97467 0.0
H190 H 0.70651 0.69686 0.88201 0.0
H191 H 0.73962 0.79048 0.95394 0.0
H192 H 0.56497 0.87234 0.87975 0.0
H193 H 0.75679 0.67202 0.90937 0.0
H194 H 0.78995 0.76559 0.98099 0.0
C195 C 0.77005 0.18839 0.32222 0.0
C196 C 0.76877 0.21243 0.29249 0.0
C197 C 0.78738 0.20039 0.35685 0.0
C198 C 0.80405 0.23668 0.36227 0.0
C199 C 0.80356 0.2606 0.33191 0.0
C200 C 0.78583 0.24856 0.29728 0.0
C201 C 0.81941 0.24965 0.40045 0.0
C202 C 0.83811 0.22898 0.42262 0.0
C203 C 0.84813 0.23874 0.46066 0.0
C204 C 0.84106 0.27037 0.47636 0.0
C205 C 0.82205 0.29141 0.45468 0.0
C206 C 0.81153 0.28075 0.41667 0.0
C207 C 0.80764 0.32114 0.47273 0.0
C208 C 0.79295 0.31824 0.51074 0.0
C209 C 0.80254 0.34968 0.44993 0.0
C210 C 0.77856 0.37124 0.46244 0.0
C211 C 0.76051 0.3656 0.49861 0.0
C212 C 0.86159 0.21325 0.48495 0.0
C213 C 0.83816 0.17952 0.49136 0.0
C214 C 0.89815 0.22128 0.49961 0.0
C215 C 0.91174 0.19514 0.51896 0.0
C216 C 0.88865 0.16103 0.52414 0.0
C217 C 0.85149 0.15365 0.51115 0.0
C218 C 0.77008 0.34083 0.52384 0.0
H219 H 0.75663 0.16045 0.31898 0.0
H220 H 0.78643 0.18136 0.37984 0.0
H221 H 0.81639 0.28866 0.33514 0.0
H222 H 0.78484 0.26741 0.27455 0.0
H223 H 0.84386 0.20448 0.41082 0.0
H224 H 0.79455 0.29515 0.40053 0.0
H225 H 0.8486 0.27741 0.50599 0.0
H226 H 0.79628 0.29676 0.52931 0.0
H227 H 0.81473 0.35366 0.42114 0.0
H228 H 0.77223 0.39082 0.44288 0.0
H229 H 0.80975 0.17304 0.48037 0.0
H230 H 0.91651 0.2472 0.49482 0.0
H231 H 0.7569 0.33664 0.55218 0.0
H232 H 0.83332 0.12752 0.51523 0.0
H233 H 0.94047 0.20116 0.52906 0.0
C234 C 0.23376 0.64268 0.21039 0.0
C235 C 0.23108 0.64252 0.16989 0.0
C236 C 0.26744 0.65941 0.22873 0.0
C237 C 0.29929 0.67675 0.20707 0.0
C238 C 0.29656 0.67583 0.16644 0.0
C239 C 0.26304 0.65898 0.14818 0.0
C240 C 0.33466 0.69709 0.22631 0.0
C241 C 0.3496 0.6838 0.25903 0.0
C242 C 0.38318 0.70273 0.27662 0.0
C243 C 0.40177 0.73597 0.26018 0.0
C244 C 0.3873 0.75012 0.22735 0.0
C245 C 0.35357 0.73029 0.21142 0.0
C246 C 0.40629 0.78551 0.20906 0.0
C247 C 0.42419 0.81528 0.23125 0.0
C248 C 0.40476 0.79042 0.16873 0.0
C249 C 0.41906 0.82377 0.15155 0.0
C250 C 0.43609 0.85352 0.17381 0.0
C251 C 0.39859 0.6872 0.31167 0.0
C252 C 0.37414 0.66761 0.33987 0.0
C253 C 0.43767 0.69077 0.31703 0.0
C254 C 0.45156 0.67494 0.34875 0.0
C255 C 0.42697 0.6551 0.37651 0.0
C256 C 0.38804 0.65197 0.37162 0.0
C257 C 0.4389 0.84871 0.21388 0.0
H258 H 0.20955 0.63025 0.22787 0.0
H259 H 0.26815 0.65967 0.25995 0.0
H260 H 0.32045 0.68831 0.14858 0.0
H261 H 0.26188 0.65921 0.11698 0.0
H262 H 0.33552 0.658 0.27012 0.0
H263 H 0.34116 0.74123 0.18752 0.0
H264 H 0.42748 0.75085 0.27296 0.0
H265 H 0.42592 0.81309 0.26224 0.0
H266 H 0.39229 0.76837 0.1501 0.0
H267 H 0.41675 0.82638 0.12065 0.0
H268 H 0.34396 0.6645 0.33767 0.0
H269 H 0.45769 0.70515 0.29617 0.0
H270 H 0.45194 0.87106 0.23188 0.0
H271 H 0.36821 0.63722 0.39244 0.0
H272 H 0.4817 0.67798 0.35148 0.0
C273 C 0.15011 0.26678 0.68537 0.0
C274 C 0.11098 0.25301 0.68444 0.0
C275 C 0.16529 0.30027 0.7021 0.0
C276 C 0.14199 0.32194 0.71796 0.0
C277 C 0.1027 0.30776 0.71771 0.0
C278 C 0.08749 0.27384 0.7014 0.0
C279 C 0.15893 0.3594 0.73291 0.0
C280 C 0.19199 0.37956 0.71514 0.0
C281 C 0.20963 0.4141 0.72794 0.0
C282 C 0.19327 0.42876 0.75989 0.0
C283 C 0.15973 0.40995 0.77847 0.0
C284 C 0.14285 0.37527 0.76436 0.0
C285 C 0.14256 0.42674 0.81244 0.0
C286 C 0.16543 0.44747 0.84061 0.0
C287 C 0.10319 0.42285 0.81688 0.0
C288 C 0.08747 0.43943 0.84775 0.0
C289 C 0.11041 0.46023 0.8757 0.0
C290 C 0.2452 0.43426 0.70759 0.0
C291 C 0.2504 0.43056 0.66734 0.0
C292 C 0.27497 0.45621 0.728 0.0
C293 C 0.30885 0.47295 0.70903 0.0
C294 C 0.31412 0.46814 0.66912 0.0
C295 C 0.28429 0.447 0.64855 0.0
C296 C 0.14968 0.46366 0.87171 0.0
H297 H 0.16914 0.25153 0.67297 0.0
H298 H 0.19564 0.30907 0.7025 0.0
H299 H 0.08348 0.32321 0.72924 0.0
H300 H 0.05721 0.26408 0.70144 0.0
H301 H 0.20435 0.36816 0.69086 0.0
H302 H 0.11778 0.36021 0.7787 0.0
H303 H 0.20606 0.45546 0.76959 0.0
H304 H 0.19575 0.45095 0.83892 0.0
H305 H 0.08438 0.40753 0.79596 0.0
H306 H 0.05717 0.4361 0.84971 0.0
H307 H 0.2282 0.41484 0.65005 0.0
H308 H 0.27257 0.45973 0.7589 0.0
H309 H 0.16831 0.47916 0.89268 0.0
H310 H 0.28729 0.44305 0.61776 0.0
H311 H 0.33129 0.48914 0.72569 0.0
La312 La 0.0292 0.0683 0.52785 0.0
La313 La 1.02056 1.02993 0.60394 0.0
C314 C 0.02849 0.1118 0.47461 0.0
C315 C 0.05617 0.14435 0.46363 0.0
C316 C 0.0714 0.14676 0.42607 0.0
C317 C 0.10365 0.17265 0.41714 0.0
C318 C 0.121 0.19662 0.44559 0.0
C319 C 0.10421 0.19617 0.48236 0.0
C320 C 0.07206 0.17 0.49144 0.0
C321 C 0.08726 1.04088 0.54615 0.0
C322 C 0.055 0.1134 0.60624 0.0
C323 C 1.0197 0.98507 0.6562 0.0
C324 C 0.98785 0.95685 0.66918 0.0
C325 C 0.95131 0.96326 0.67015 0.0
C326 C 0.92057 0.93626 0.68021 0.0
C327 C 0.92565 0.90226 0.68907 0.0
C328 C 0.96196 0.89535 0.6873 0.0
C329 C 0.99301 0.92265 0.67751 0.0
C330 C 0.96278 0.0568 0.58556 0.0
C331 C 0.99402 0.98633 0.52486 0.0
O332 O 0.04073 0.08248 0.47006 0.0
O333 O 1.01021 0.11244 0.50748 0.0
O334 O 0.07601 1.04411 0.51146 0.0
O335 O 0.06731 0.05496 0.56889 0.0
O336 O 0.0482 0.11312 0.56868 0.0
O337 O 0.05031 0.08291 0.62551 0.0
O338 O 1.01632 1.01774 0.66291 0.0
O339 O 0.0318 0.98107 0.62107 0.0
O340 O 0.96987 1.04916 0.62039 0.0
O341 O 0.98354 1.0436 0.56331 0.0
O342 O 1.00576 0.98574 0.56095 0.0
O343 O 0.99498 1.01715 0.50758 0.0
H344 H 0.0597 0.12723 0.40426 0.0
H345 H 0.11613 0.17294 0.38849 0.0
H346 H 0.11711 0.2148 0.50447 0.0
H347 H 0.0609 0.16885 0.52064 0.0
H348 H 0.94637 0.98912 0.66292 0.0
H349 H 0.8927 0.94193 0.68124 0.0
H350 H 0.96621 0.86909 0.6939 0.0
H351 H 1.02089 0.91704 0.67612 0.0
La352 La 0.5488 1.04681 0.07575 0.0
La353 La 0.48331 1.03946 1.03303 0.0
C354 C 0.61467 0.05556 0.10165 0.0
C355 C 0.64091 0.0847 0.12065 0.0
C356 C 0.67247 0.07752 0.13872 0.0
C357 C 0.69457 0.1033 0.16215 0.0
C358 C 0.6854 0.13658 0.1675 0.0
C359 C 0.65509 0.14454 0.14758 0.0
C360 C 0.63257 0.11848 0.12469 0.0
C361 C 0.49324 0.99448 0.10324 0.0
C362 C 0.49534 0.09271 0.1046 0.0
C363 C 0.41587 1.02703 1.01058 0.0
C364 C 0.3925 0.99977 0.98628 0.0
C365 C 0.35689 1.00387 0.97518 0.0
C366 C 0.33621 0.98037 0.9484 0.0
C367 C 0.35116 0.95273 0.93234 0.0
C368 C 0.38604 0.94767 0.94478 0.0
C369 C 0.4066 0.97106 0.9717 0.0
C370 C 0.53756 0.09287 1.00497 0.0
C371 C 0.5381 0.99493 1.00295 0.0
O372 O 0.58417 1.04248 0.12159 0.0
O373 O 0.60743 0.06009 0.06554 0.0
O374 O 0.51594 1.0177 0.12365 0.0
O375 O 0.50221 1.00135 0.06825 0.0
O376 O 0.53122 0.09187 0.10232 0.0
O377 O 0.47069 0.07094 0.08308 0.0
O378 O 0.44392 1.04798 0.99277 0.0
O379 O 0.42611 1.01619 1.04343 0.0
O380 O 0.51588 0.06834 0.98483 0.0
O381 O 0.52985 0.08551 1.04029 0.0
O382 O 0.50268 0.99728 1.00267 0.0
O383 O 0.56207 1.015 1.02652 0.0
H384 H 0.67901 0.05144 0.13611 0.0
H385 H 0.71788 0.09682 0.1774 0.0
H386 H 0.64765 0.1701 0.15157 0.0
H387 H 0.60779 0.12417 0.11163 0.0
H388 H 0.3457 1.02595 0.98618 0.0
H389 H 0.30939 0.98466 0.93886 0.0
H390 H 0.39796 0.92654 0.93248 0.0
H391 H 0.434 0.96746 0.98007 0.0
La392 La 0.5178 0.52326 0.54311 0.0
La393 La 0.52347 0.58659 0.58939 0.0
C394 C 0.5345 0.4739 0.50321 0.0
C395 C 0.5677 0.45841 0.50498 0.0
C396 C 0.57184 0.43069 0.48002 0.0
C397 C 0.60417 0.4168 0.48164 0.0
C398 C 0.63223 0.43014 0.50875 0.0
C399 C 0.62776 0.45768 0.53389 0.0
C400 C 0.59612 0.47222 0.53137 0.0
C401 C 0.45291 0.52561 0.57971 0.0
C402 C 0.5514 0.52238 0.62765 0.0
C403 C 0.51878 0.63662 0.63467 0.0
C404 C 0.51337 0.67223 0.62539 0.0
C405 C 0.52976 0.68956 0.59165 0.0
C406 C 0.5152 0.71677 0.57572 0.0
C407 C 0.48399 0.7265 0.59326 0.0
C408 C 0.47012 0.7117 0.62886 0.0
C409 C 0.48478 0.68471 0.64489 0.0
C410 C 0.57793 0.59231 0.53522 0.0
C411 C 0.48681 0.58641 0.50748 0.0
O412 O 0.51197 0.46834 0.53345 0.0
O413 O 0.54175 0.50723 0.49244 0.0
O414 O 0.45592 0.51235 0.54558 0.0
O415 O 0.48592 0.53527 0.59257 0.0
O416 O 0.54369 0.50532 0.59437 0.0
O417 O 0.54535 0.55485 0.63261 0.0
O418 O 0.55098 0.62928 0.62412 0.0
O419 O 0.48999 0.61104 0.62555 0.0
O420 O 0.56103 0.6171 0.54547 0.0
O421 O 0.5649 0.56564 0.55634 0.0
O422 O 0.48656 0.59836 0.54347 0.0
O423 O 0.50228 0.55898 0.49971 0.0
H424 H 0.55033 0.42001 0.4592 0.0
H425 H 0.60722 0.39549 0.46201 0.0
H426 H 0.64908 0.46831 0.55494 0.0
H427 H 0.59403 0.49452 0.54973 0.0
H428 H 0.55179 0.68031 0.57599 0.0
H429 H 0.52631 0.72827 0.54838 0.0
H430 H 0.44614 0.71925 0.64281 0.0
H431 H 0.47159 0.67151 0.67069 0.0
La432 La 1.01549 0.51709 0.08459 0.0
La433 La 1.01758 0.5824 1.04288 0.0
C434 C 0.03105 0.46118 0.10997 0.0
C435 C 0.0671 0.45005 0.11139 0.0
C436 C 0.07367 0.42797 0.14116 0.0
C437 C 0.10855 0.41868 0.14362 0.0
C438 C 0.13721 0.43138 0.11635 0.0
C439 C 0.13069 0.45342 0.08647 0.0
C440 C 0.09582 0.46272 0.08401 0.0
C441 C 0.97759 0.56043 0.12131 0.0
C442 C 0.08898 0.5799 0.09238 0.0
C443 C 1.01272 0.6444 1.02474 0.0
C444 C 0.98292 0.65798 1.00595 0.0
C445 C 0.95878 0.63669 0.97953 0.0
C446 C 0.9261 0.64671 0.96774 0.0
C447 C 0.91703 0.67787 0.98262 0.0
C448 C 0.94173 0.69972 1.00798 0.0
C449 C 0.97453 0.68984 1.01952 0.0
C450 C 0.03691 0.53107 0.9984 0.0
C451 C 0.94588 0.52039 1.03292 0.0
O452 O 0.0285 0.48843 0.13188 0.0
O453 O 1.01809 0.46378 0.07541 0.0
O454 O 0.96776 0.52595 0.1207 0.0
O455 O 1.00844 0.56885 0.10266 0.0
O456 O 0.07159 0.5471 0.102 0.0
O457 O 0.07376 0.59874 0.06801 0.0
O458 O 0.0312 0.62516 1.00387 0.0
O459 O 1.00247 0.63007 0.0583 0.0
O460 O 1.01898 0.55462 0.98726 0.0
O461 O 0.04573 0.53864 1.03329 0.0
O462 O 0.95822 0.55538 1.0346 0.0
O463 O 0.9664 0.49931 1.04721 0.0
H464 H 0.05196 0.4182 0.16265 0.0
H465 H 0.11331 0.40171 0.16691 0.0
H466 H 0.15262 0.46352 0.06533 0.0
H467 H 0.09136 0.48003 0.06092 0.0
H468 H 0.96437 0.61167 0.96928 0.0
H469 H 0.90722 0.62959 0.94815 0.0
H470 H 0.93505 0.72386 1.01963 0.0
H471 H 0.99245 0.70624 1.04045 0.0
C472 C 0.19409 0.26233 0.39023 0.0
C473 C 0.22774 0.25351 0.40314 0.0
C474 C 0.19164 0.21174 0.44986 0.0
C475 C 0.15803 0.2204 0.4367 0.0
N476 N 0.12808 0.26082 0.40335 0.0
N477 N 0.25994 0.22798 0.45164 0.0
C478 C 0.15966 0.24824 0.41 0.0
C479 C 0.22692 0.23102 0.43533 0.0
N480 N 0.19442 0.28194 0.35751 0.0
N481 N 0.18982 0.18366 0.47419 0.0
H482 H 0.28613 0.24195 0.44135 0.0
H483 H 0.26124 0.21449 0.47729 0.0
H484 H 0.1646 0.16886 0.48567 0.0
H485 H 0.2131 0.17347 0.48101 0.0
H486 H 0.17003 0.28542 0.34429 0.0
H487 H 0.21883 0.29262 0.34168 0.0
H488 H 0.12824 0.28331 0.38684 0.0
H489 H 0.10247 0.25078 0.41757 0.0
C490 C 0.29991 0.87454 0.87142 0.0
C491 C 0.30043 0.89136 0.83515 0.0
C492 C 0.33485 0.94782 0.86247 0.0
C493 C 0.33246 0.93168 0.89931 0.0
N494 N 0.30779 0.88175 0.94071 0.0
N495 N 0.31057 0.94529 0.79775 0.0
C496 C 0.31346 0.89558 0.90437 0.0
C497 C 0.31545 0.92844 0.83122 0.0
N498 N 0.2876 0.83841 0.87402 0.0
N499 N 0.35708 0.98108 0.85689 0.0
H500 H 0.29651 0.93201 0.77403 0.0
H501 H 0.3173 0.97288 0.79473 0.0
H502 H 0.37212 0.99626 0.87891 0.0
H503 H 0.36336 0.99241 0.82974 0.0
H504 H 0.29033 0.82399 0.89865 0.0
H505 H 0.27676 0.82242 0.85056 0.0
H506 H 0.29096 0.85676 0.94676 0.0
H507 H 0.31757 0.89648 0.96535 0.0
C508 C 0.55672 0.4778 0.72666 0.0
C509 C 0.59169 0.46706 0.7234 0.0
C510 C 0.60167 0.49514 0.65877 0.0
C511 C 0.56559 0.50375 0.66092 0.0
N512 N 0.5063 0.49829 0.69485 0.0
N513 N 0.64544 0.46181 0.68412 0.0
C514 C 0.54255 0.49384 0.69444 0.0
C515 C 0.61347 0.47461 0.6887 0.0
N516 N 0.53709 0.47305 0.76089 0.0
N517 N 0.62556 0.5081 0.62887 0.0
H518 H 0.65588 0.44823 0.70578 0.0
H519 H 0.66023 0.46241 0.65807 0.0
H520 H 0.61817 0.52351 0.60702 0.0
H521 H 0.65366 0.50633 0.62728 0.0
H522 H 0.51393 0.484 0.76707 0.0
H523 H 0.54545 0.45999 0.78429 0.0
H524 H 0.48642 0.48792 0.71606 0.0
H525 H 0.49499 0.51 0.67224 0.0
C526 C 0.97714 0.62024 0.21246 0.0
C527 C 0.93857 0.62211 0.21546 0.0
C528 C 0.92685 0.58721 0.15438 0.0
C529 C 0.9647 0.58274 0.15324 0.0
N530 N 0.02359 0.58929 0.18646 0.0
N531 N 0.8757 0.60431 0.19091 0.0
C532 C 0.98932 0.59798 0.18355 0.0
C533 C 0.9132 0.60469 0.1868 0.0
N534 N 1.00244 0.6399 0.23729 0.0
N535 N 0.90411 0.5756 0.12375 0.0
H536 H 0.86497 0.61808 0.21293 0.0
H537 H 0.8549 0.58866 0.17406 0.0
H538 H 0.91281 0.56244 0.09999 0.0
H539 H 0.87773 0.58132 0.12032 0.0
H540 H 0.03149 0.64333 0.23384 0.0
H541 H 0.99455 0.6552 0.25968 0.0
H542 H 0.04119 0.59632 0.20996 0.0
H543 H 0.03308 0.57203 0.16734 0.0
C544 C 0.43701 0.13801 0.17213 0.0
C545 C 0.45231 0.17441 0.16374 0.0
C546 C 0.49733 0.15756 0.11784 0.0
C547 C 0.4829 0.1211 0.12712 0.0
N548 N 0.44483 0.07702 0.16857 0.0
N549 N 0.50157 0.21952 0.13526 0.0
C550 C 0.45441 0.11144 0.15594 0.0
C551 C 0.48406 0.18437 0.13882 0.0
N552 N 0.40525 0.12883 0.19477 0.0
N553 N 0.52185 0.16662 0.08738 0.0
H554 H 0.49198 0.23996 0.14941 0.0
H555 H 0.52734 0.22821 0.121 0.0
H556 H 0.53209 0.14808 0.07081 0.0
H557 H 0.5297 0.1923 0.07634 0.0
H558 H 0.39007 0.10272 0.19821 0.0
H559 H 0.3926 0.14761 0.20837 0.0
H560 H 0.42692 0.06884 0.19207 0.0
H561 H 0.45752 0.05707 0.15773 0.0
C562 C 0.15601 0.97911 0.5359 0.0
C563 C 0.14945 0.96197 0.57217 0.0
C564 C 0.11515 1.00603 0.59477 0.0
C565 C 0.11487 1.01901 0.5567 0.0
N566 N 0.14251 1.02353 0.4925 0.0
N567 N 0.11786 0.95553 0.6343 0.0
C568 C 0.13746 1.00709 0.52754 0.0
C569 C 0.12735 0.97426 0.60095 0.0
N570 N 0.18123 0.96966 0.51032 0.0
N571 N 0.10695 1.02543 0.62551 0.0
H572 H 0.12604 0.93176 0.63984 0.0
H573 H 0.09883 0.96183 0.65461 0.0
H574 H 0.10349 0.05122 0.62244 0.0
H575 H 0.10958 1.01827 0.65409 0.0
H576 H 0.19039 0.98322 0.48491 0.0
H577 H 0.19474 0.94895 0.51543 0.0
H578 H 0.15304 1.0129 0.46805 0.0
H579 H 0.13716 1.0487 0.48821 0.0
C580 C 0.86577 0.49739 0.95813 0.0
C581 C 0.83938 0.47005 0.97744 0.0
C582 C 0.88021 0.47943 1.03482 0.0
C583 C 0.90842 0.50424 1.01421 0.0
N584 N 0.92926 0.5335 0.95384 0.0
N585 N 0.82274 0.43297 1.03341 0.0
C586 C 0.90129 0.5126 0.97537 0.0
C587 C 0.8471 0.46046 1.01553 0.0
N588 N 0.85696 0.50898 0.92303 0.0
N589 N 0.88401 0.47538 0.07357 0.0
H590 H 0.7971 0.42014 1.02161 0.0
H591 H 0.82888 0.42141 0.05883 0.0
H592 H 0.907 0.48944 0.0889 0.0
H593 H 0.86289 0.46085 0.09133 0.0
H594 H 0.87216 0.53205 0.90989 0.0
H595 H 0.83291 0.4969 0.90795 0.0
H596 H 0.92792 0.53681 0.92417 0.0
H597 H 0.95528 0.54551 0.96491 0.0
C598 C 0.65164 0.61942 0.45339 0.0
C599 C 0.68599 0.6247 0.47368 0.0
C600 C 0.64987 0.60224 0.53305 0.0
C601 C 0.61528 0.60037 0.51354 0.0
N602 N 0.58376 0.61197 0.45596 0.0
N603 N 0.71806 0.62397 0.53366 0.0
C604 C 0.61641 0.61022 0.47392 0.0
C605 C 0.68516 0.61641 0.51366 0.0
N606 N 0.65269 0.62238 0.41409 0.0
N607 N 0.64913 0.59138 0.57052 0.0
H608 H 0.74423 0.63384 0.52052 0.0
H609 H 0.71947 0.62279 0.56356 0.0
H610 H 0.6245 0.58459 0.58708 0.0
H611 H 0.67273 0.58739 0.58483 0.0
H612 H 0.629 0.61505 0.39693 0.0
H613 H 0.67783 0.62909 0.39817 0.0
H614 H 0.58294 0.62334 0.42895 0.0
H615 H 0.55737 0.6044 0.46916 0.0
C616 C 0.23079 0.42539 0.15816 0.0
C617 C 0.23733 0.39468 0.13861 0.0
C618 C 0.18151 0.3918 0.09926 0.0
C619 C 0.17421 0.42169 0.11982 0.0
N620 N 0.19628 0.47265 0.16085 0.0
N621 N 0.22568 0.35431 0.08458 0.0
C622 C 0.20048 0.44047 0.14658 0.0
C623 C 0.21491 0.37988 0.10696 0.0
N624 N 0.25213 0.43881 0.18923 0.0
N625 N 0.15563 0.37386 0.07383 0.0
H626 H 0.25014 0.3453 0.08981 0.0
H627 H 0.2125 0.34438 0.05909 0.0
H628 H 0.13136 0.38245 0.06675 0.0
H629 H 0.15705 0.34951 0.06125 0.0
H630 H 0.24582 0.45826 0.20771 0.0
H631 H 0.27525 0.42912 0.19787 0.0
H632 H 0.21637 0.48937 0.17758 0.0
H633 H 0.17409 0.48415 0.15308 0.0
C634 C 0.55306 0.17588 0.93889 0.0
C635 C 0.58382 0.19986 0.95621 0.0
C636 C 0.58576 0.15346 1.00478 0.0
C637 C 0.55273 0.13069 0.98954 0.0
N638 N 0.49786 0.12913 0.95038 0.0
N639 N 0.62306 0.2138 1.01208 0.0
C640 C 0.5344 0.14433 0.95882 0.0
C641 C 0.59835 0.18927 0.99101 0.0
N642 N 0.54188 0.1826 0.90285 0.0
N643 N 0.60596 0.14082 1.03188 0.0
H644 H 0.63201 0.24035 1.00385 0.0
H645 H 0.63154 0.20875 1.03963 0.0
H646 H 0.59733 0.11546 1.04316 0.0
H647 H 0.63251 0.15442 1.04077 0.0
H648 H 0.522 0.16421 0.88746 0.0
H649 H 0.55523 0.20471 0.88679 0.0
H650 H 0.48254 0.13979 0.93025 0.0
H651 H 0.4811 0.10963 0.96748 0.0
C652 C 0.97512 0.91254 0.44597 0.0
C653 C 0.94929 0.88456 0.4651 0.0
C654 C 0.94956 0.92476 0.52157 0.0
C655 C 0.97828 0.9514 0.50399 0.0
N656 N 0.02359 0.96688 0.45185 0.0
N657 N 0.91784 0.86225 0.52453 0.0
C658 C 0.9924 0.94425 0.46678 0.0
C659 C 0.93823 0.89024 0.50389 0.0
N660 N 0.98228 0.90948 0.4074 0.0
N661 N 0.93164 0.93284 0.55434 0.0
H662 H 0.90953 0.8366 0.51306 0.0
H663 H 0.91239 0.86365 0.55404 0.0
H664 H 0.93798 0.9579 0.56751 0.0
H665 H 0.90782 0.91596 0.56612 0.0
H666 H 0.99745 0.93043 0.39087 0.0
H667 H 0.97014 0.88706 0.39113 0.0
H668 H 0.03768 0.9612 0.42696 0.0
H669 H 0.03772 0.98969 0.46631 0.0
C670 C 0.40538 0.75042 0.53733 0.0
C671 C 0.40193 0.78074 0.55918 0.0
C672 C 0.4639 0.78365 0.58681 0.0
C673 C 0.46224 0.74871 0.57302 0.0
N674 N 0.43273 0.69858 0.53344 0.0
N675 N 0.42873 0.82834 0.60329 0.0
C676 C 0.43398 0.73237 0.54675 0.0
C677 C 0.43201 0.79871 0.5826 0.0
N678 N 0.38033 0.73843 0.50872 0.0
N679 N 0.49556 0.80167 0.60491 0.0
H680 H 0.40619 0.84067 0.6005 0.0
H681 H 0.44751 0.83983 0.62457 0.0
H682 H 0.51901 0.79059 0.60832 0.0
H683 H 0.49993 0.82837 0.61307 0.0
H684 H 0.38285 0.71798 0.4896 0.0
H685 H 0.35907 0.75155 0.50196 0.0
H686 H 0.41039 0.68372 0.51783 0.0
H687 H 0.45334 0.68458 0.53955 0.0
C688 C 0.82718 0.84504 0.68668 0.0
C689 C 0.82066 0.83786 0.72648 0.0
C690 C 0.8859 0.86664 0.74089 0.0
C691 C 0.89231 0.87473 0.70119 0.0
N692 N 0.87325 0.86395 0.63522 0.0
N693 N 0.84566 0.83177 0.78942 0.0
C694 C 0.86423 0.86119 0.67367 0.0
C695 C 0.8508 0.84519 0.75285 0.0
N696 N 0.79773 0.83788 0.66179 0.0
N697 N 0.91226 0.88138 0.76747 0.0
H698 H 0.82012 0.81609 0.79921 0.0
H699 H 0.86753 0.83326 0.80876 0.0
H700 H 0.93855 0.89706 0.76001 0.0
H701 H 0.90715 0.88013 0.79713 0.0
H702 H 0.79974 0.84612 0.63317 0.0
H703 H 0.77053 0.82511 0.67045 0.0
H704 H 0.85507 0.85222 0.61356 0.0
H705 H 0.90041 0.87537 0.62523 0.0
C706 C 0.70732 0.1888 0.26104 0.0
C707 C 0.74703 0.19945 0.25757 0.0
C708 C 0.74419 0.1776 0.19091 0.0
C709 C 0.70557 0.16148 0.19691 0.0
N710 N 0.65105 0.14788 0.23963 0.0
N711 N 0.80427 0.20248 0.22038 0.0
C712 C 0.68709 0.16638 0.23232 0.0
C713 C 0.76581 0.19387 0.22263 0.0
N714 N 0.68903 0.20019 0.29184 0.0
N715 N 0.75997 0.17752 0.15485 0.0
H716 H 0.82102 0.21483 0.24291 0.0
H717 H 0.81967 0.19524 0.19722 0.0
H718 H 0.74465 0.16593 0.13103 0.0
H719 H 0.78706 0.19166 0.14785 0.0
H720 H 0.65981 0.19612 0.29399 0.0
H721 H 0.70316 0.21684 0.31337 0.0
H722 H 0.63792 0.1474 0.26663 0.0
H723 H 0.63522 0.1304 0.21987 0.0
C724 C 0.4347 0.59982 0.41366 0.0
C725 C 0.44182 0.63761 0.41053 0.0
C726 C 0.48036 0.64218 0.46948 0.0
C727 C 0.4703 0.60442 0.4748 0.0
N728 N 0.43027 0.54859 0.45517 0.0
N729 N 0.46548 0.69466 0.44064 0.0
C730 C 0.44539 0.58365 0.44768 0.0
C731 C 0.46292 0.65869 0.44 0.0
N732 N 0.41881 0.57908 0.38346 0.0
N733 N 0.50815 0.66247 0.49114 0.0
H734 H 0.45289 0.70765 0.4201 0.0
H735 H 0.477 0.7111 0.46346 0.0
H736 H 0.52203 0.652 0.51252 0.0
H737 H 0.5199 0.68917 0.48545 0.0
H738 H 0.41673 0.55166 0.38206 0.0
H739 H 0.41097 0.58966 0.3581 0.0
H740 H 0.40901 0.533 0.43877 0.0
H741 H 0.43591 0.53606 0.48017 0.0
C742 C 0.1012 0.51621 0.91257 0.0
C743 C 0.09336 0.47833 0.90889 0.0
C744 C 0.04845 0.47476 0.9642 0.0
C745 C 0.05854 0.51238 0.96984 0.0
N746 N 0.10086 0.56791 0.95355 0.0
N747 N 0.06559 0.42168 0.9377 0.0
C748 C 0.0869 0.53272 0.94527 0.0
C749 C 0.06877 0.4577 0.93668 0.0
N750 N 0.12077 0.53671 0.88381 0.0
N751 N 1.01818 0.45523 0.98383 0.0
H752 H 0.08038 0.40832 0.91875 0.0
H753 H 0.05133 0.40563 0.95968 0.0
H754 H 1.00235 0.46669 1.00343 0.0
H755 H 1.00675 0.42843 0.97804 0.0
H756 H 0.12389 0.56424 0.88264 0.0
H757 H 0.13083 0.52595 0.85911 0.0
H758 H 0.12416 0.58337 0.93932 0.0
H759 H 0.0915 0.58075 0.97721 0.0
C760 C 0.55349 0.90369 0.97341 0.0
C761 C 0.58188 0.91334 0.94452 0.0
C762 C 0.57924 0.9763 0.95155 0.0
C763 C 0.55062 0.96665 0.9803 0.0
N764 N 0.50609 0.92092 1.01471 0.0
N765 N 0.61801 0.95706 0.90139 0.0
C766 C 0.5362 0.93023 0.98984 0.0
C767 C 0.59355 0.94917 0.9321 0.0
N768 N 0.54417 0.86927 0.9862 0.0
N769 N 0.59308 1.01151 0.94335 0.0
H770 H 0.62978 0.93799 0.88719 0.0
H771 H 0.62486 0.98184 0.88816 0.0
H772 H 0.58147 1.03188 0.95495 0.0
H773 H 0.61698 1.02091 0.92633 0.0
H774 H 0.52759 0.8612 1.01064 0.0
H775 H 0.5549 0.84875 0.97365 0.0
H776 H 0.49143 0.89481 1.01922 0.0
H777 H 0.49387 0.93929 1.02944 0.0
C778 C 0.9094 0.10327 0.51887 0.0
C779 C 0.90391 0.13247 0.54175 0.0
C780 C 0.93466 0.11122 0.59602 0.0
C781 C 0.93844 0.08085 0.57353 0.0
N782 N 0.91628 1.04236 0.51934 0.0
N783 N 0.90136 0.15882 0.60483 0.0
C784 C 0.92169 0.0751 0.53672 0.0
C785 C 0.91322 0.13461 0.58129 0.0
N786 N 0.90434 0.10293 0.47987 0.0
N787 N 0.95335 0.11956 0.62993 0.0
H788 H 0.88562 0.1764 0.5949 0.0
H789 H 0.90384 0.15897 0.63475 0.0
H790 H 0.97132 0.10515 0.64167 0.0
H791 H 0.95449 0.14354 0.6446 0.0
H792 H 0.91186 0.08387 0.46161 0.0
H793 H 0.8961 0.12346 0.46531 0.0
H794 H 0.90153 1.03618 0.49377 0.0
H795 H 0.9222 1.02022 0.53295 0.0
C796 C 0.16492 0.64492 0.14966 0.0
C797 C 0.19456 0.62629 0.15008 0.0
C798 C 0.15681 0.57951 0.10861 0.0
C799 C 0.12584 0.59649 0.11118 0.0
N800 N 0.09844 0.64225 0.14051 0.0
N801 N 0.21662 0.57318 0.13459 0.0
C802 C 0.12942 0.62844 0.13333 0.0
C803 C 0.18985 0.59278 0.13085 0.0
N804 N 0.17096 0.67892 0.16395 0.0
N805 N 0.15533 0.55159 0.08355 0.0
H806 H 0.24113 0.58211 0.15031 0.0
H807 H 0.2132 0.54699 0.12485 0.0
H808 H 0.13231 0.54205 0.06592 0.0
H809 H 0.17812 0.54008 0.07745 0.0
H810 H 0.15218 0.69546 0.16042 0.0
H811 H 0.19622 0.69177 0.17652 0.0
H812 H 0.09817 0.66287 0.16015 0.0
H813 H 0.07189 0.63109 0.12965 0.0
C814 C 0.38188 0.46763 0.64994 0.0
C815 C 0.3509 0.48455 0.64862 0.0
C816 C 0.38889 0.53102 0.60637 0.0
C817 C 0.41853 0.51235 0.60497 0.0
N818 N 0.44153 0.46048 0.62197 0.0
N819 N 0.32376 0.5312 0.62365 0.0
C820 C 0.41464 0.48013 0.62608 0.0
C821 C 0.35419 0.51601 0.62632 0.0
N822 N 0.38011 0.43957 0.6743 0.0
N823 N 0.39429 0.56364 0.58927 0.0
H824 H 0.29881 0.52221 0.63933 0.0
H825 H 0.3223 0.55143 0.60445 0.0
H826 H 0.41884 0.57498 0.57395 0.0
H827 H 0.37587 0.58068 0.59245 0.0
H828 H 0.40313 0.42877 0.68046 0.0
H829 H 0.35616 0.42855 0.69071 0.0
H830 H 0.43855 0.43482 0.63266 0.0
H831 H 0.46603 0.4687 0.6054 0.0
C832 C 0.81409 0.68423 0.98786 0.0
C833 C 0.81267 0.7065 0.95587 0.0
C834 C 0.87992 0.71089 0.94209 0.0
C835 C 0.88088 0.68711 0.97282 0.0
N836 N 0.84891 0.64769 1.02245 0.0
N837 N 0.84209 0.73761 0.89932 0.0
C838 C 0.84791 0.67273 0.99499 0.0
C839 C 0.84502 0.71887 0.93205 0.0
N840 N 0.78335 0.6749 1.0119 0.0
N841 N 0.9126 0.72643 0.9231 0.0
H842 H 0.8174 0.74508 0.89156 0.0
H843 H 0.86327 0.7438 0.87834 0.0
H844 H 0.93843 0.72009 0.92856 0.0
H845 H 0.91481 0.74723 0.90365 0.0
H846 H 0.78358 0.66199 1.03808 0.0
H847 H 0.75789 0.68214 1.00685 0.0
H848 H 0.82511 0.63322 1.03672 0.0
H849 H 0.87346 0.63957 1.02944 0.0
C850 C 0.42893 0.91623 0.15719 0.0
C851 C 0.45054 0.88955 0.15497 0.0
C852 C 0.49998 0.93141 0.11809 0.0
C853 C 0.47757 0.95746 0.11873 0.0
N854 N 0.4189 0.9733 0.13487 0.0
N855 N 0.50438 0.87007 0.12872 0.0
C856 C 0.44153 0.9494 0.13722 0.0
C857 C 0.48534 0.8967 0.13392 0.0
N858 N 0.39643 0.90998 0.17887 0.0
N859 N 0.5361 0.94035 0.10384 0.0
H860 H 0.49602 0.84519 0.1417 0.0
H861 H 0.52706 0.87171 0.10959 0.0
H862 H 0.54773 0.96495 0.09142 0.0
H863 H 0.55556 0.92442 0.10659 0.0
H864 H 0.38141 0.92935 0.18567 0.0
H865 H 0.38534 0.88564 0.19214 0.0
H866 H 0.39084 0.96807 0.14395 0.0
H867 H 0.42744 0.99782 0.12114 0.0
C868 C 0.07145 0.21421 0.63275 0.0
C869 C 0.09513 0.21707 0.66539 0.0
C870 C 0.09677 0.15362 0.65598 0.0
C871 C 0.06897 0.14929 0.6267 0.0
N872 N 0.02381 0.1763 0.59419 0.0
N873 N 0.12287 0.18614 0.71316 0.0
C874 C 0.05462 0.17985 0.61705 0.0
C875 C 0.10538 0.1857 0.67857 0.0
N876 N 0.06608 0.24438 0.61543 0.0
N877 N 0.1173 0.12836 0.66058 0.0
H878 H 0.12881 0.20864 0.73097 0.0
H879 H 0.12772 0.16318 0.72589 0.0
H880 H 0.11522 0.10678 0.64191 0.0
H881 H 0.14 0.13155 0.67919 0.0
H882 H 0.05258 0.244 0.58911 0.0
H883 H 0.07845 0.26995 0.62516 0.0
H884 H 1.01 0.19692 0.58985 0.0
H885 H 1.00933 0.15208 0.58298 0.0
C886 C 0.73416 0.42019 0.50674 0.0
C887 C 0.72845 0.38256 0.50744 0.0
C888 C 0.66117 0.37797 0.5194 0.0
C889 C 0.66595 0.41465 0.51111 0.0
N890 N 0.70706 0.47016 0.49122 0.0
N891 N 0.68444 0.32506 0.5066 0.0
C892 C 0.70253 0.43583 0.50355 0.0
C893 C 0.69143 0.36116 0.51201 0.0
N894 N 0.76973 0.44091 0.50928 0.0
N895 N 0.62787 0.35922 0.53465 0.0
H896 H 0.70509 0.31138 0.49858 0.0
H897 H 0.65727 0.30913 0.50594 0.0
H898 H 0.6053 0.37094 0.54139 0.0
H899 H 0.6243 0.33313 0.54442 0.0
H900 H 0.77518 0.46854 0.51232 0.0
H901 H 0.79341 0.43011 0.51236 0.0
H902 H 0.73287 0.48541 0.48169 0.0
H903 H 0.68457 0.48231 0.48692 0.0
loop_
_geom_bond_atom_site_label_1
_geom_bond_atom_site_label_2
_geom_bond_distance
_geom_bond_site_symmetry_2
_ccdc_geom_bond_type
C0 C1 1.386 . S
C0 C2 1.397 . S
C0 H24 0.931 . S
C1 C0 1.386 . S
C1 C5 1.397 . S
C2 C0 1.397 . S
C2 C3 1.384 . S
C2 H25 0.930 . S
C3 C2 1.384 . S
C3 C4 1.377 . S
C3 C6 1.481 . S
C4 C3 1.377 . S
C4 C5 1.389 . S
C4 H26 0.929 . S
C5 C1 1.397 . S
C5 C4 1.389 . S
C5 H27 0.931 . S
C6 C3 1.481 . S
C6 C7 1.387 . S
C6 C11 1.390 . S
C7 C6 1.387 . S
C7 C8 1.401 . S
C7 H28 0.930 . S
C8 C7 1.401 . S
C8 C9 1.376 . S
C8 C17 1.511 . S
C9 C8 1.376 . S
C9 C10 1.392 . S
C9 H30 0.931 . S
C10 C9 1.392 . S
C10 C11 1.361 . S
C10 C12 1.500 . S
C11 C6 1.390 . S
C11 C10 1.361 . S
C11 H29 0.931 . S
C12 C10 1.500 . S
C12 C13 1.371 . S
C12 C14 1.365 . S
C13 C12 1.371 . S
C13 C23 1.386 . S
C13 H31 0.931 . S
C14 C12 1.365 . S
C14 C15 1.409 . S
C14 H32 0.929 . S
C15 C14 1.409 . S
C15 C16 1.380 . S
C15 H33 0.930 . S
C16 C15 1.380 . S
C16 C23 1.357 . S
C17 C8 1.511 . S
C17 C18 1.341 . S
C17 C19 1.371 . S
C18 C17 1.341 . S
C18 C22 1.394 . S
C18 H34 0.930 . S
C19 C17 1.371 . S
C19 C20 1.392 . S
C19 H35 0.931 . S
C20 C19 1.392 . S
C20 C21 1.331 . S
C20 H38 0.932 . S
C21 C20 1.331 . S
C21 C22 1.336 . S
C22 C18 1.394 . S
C22 C21 1.336 . S
C22 H37 0.929 . S
C23 C13 1.386 . S
C23 C16 1.357 . S
C23 H36 0.928 . S
H24 C0 0.931 . S
H25 C2 0.930 . S
H26 C4 0.929 . S
H27 C5 0.931 . S
H28 C7 0.930 . S
H29 C11 0.931 . S
H30 C9 0.931 . S
H31 C13 0.931 . S
H32 C14 0.929 . S
H33 C15 0.930 . S
H34 C18 0.930 . S
H35 C19 0.931 . S
H36 C23 0.928 . S
H37 C22 0.929 . S
H38 C20 0.932 . S
C39 C40 1.386 . S
C39 C41 1.397 . S
C39 H63 0.931 . S
C40 C39 1.386 . S
C40 C44 1.397 . S
C41 C39 1.397 . S
C41 C42 1.384 . S
C41 H64 0.930 . S
C42 C41 1.384 . S
C42 C43 1.377 . S
C42 C45 1.481 . S
C43 C42 1.377 . S
C43 C44 1.389 . S
C43 H65 0.929 . S
C44 C40 1.397 . S
C44 C43 1.389 . S
C44 H66 0.931 . S
C45 C42 1.481 . S
C45 C46 1.387 . S
C45 C50 1.390 . S
C46 C45 1.387 . S
C46 C47 1.401 . S
C46 H67 0.930 . S
C47 C46 1.401 . S
C47 C48 1.376 . S
C47 C56 1.511 . S
C48 C47 1.376 . S
C48 C49 1.392 . S
C48 H69 0.931 . S
C49 C48 1.392 . S
C49 C50 1.361 . S
C49 C51 1.500 . S
C50 C45 1.390 . S
C50 C49 1.361 . S
C50 H68 0.931 . S
C51 C49 1.500 . S
C51 C52 1.371 . S
C51 C53 1.365 . S
C52 C51 1.371 . S
C52 C62 1.386 . S
C52 H70 0.931 . S
C53 C51 1.365 . S
C53 C54 1.409 . S
C53 H71 0.929 . S
C54 C53 1.409 . S
C54 C55 1.380 . S
C54 H72 0.930 . S
C55 C54 1.380 . S
C55 C62 1.357 . S
C56 C47 1.511 . S
C56 C57 1.341 . S
C56 C58 1.371 . S
C57 C56 1.341 . S
C57 C61 1.394 . S
C57 H73 0.930 . S
C58 C56 1.371 . S
C58 C59 1.392 . S
C58 H74 0.931 . S
C59 C58 1.392 . S
C59 C60 1.331 . S
C59 H77 0.932 . S
C60 C59 1.331 . S
C60 C61 1.336 . S
C61 C57 1.394 . S
C61 C60 1.336 . S
C61 H76 0.929 . S
C62 C52 1.386 . S
C62 C55 1.357 . S
C62 H75 0.928 . S
H63 C39 0.931 . S
H64 C41 0.930 . S
H65 C43 0.929 . S
H66 C44 0.931 . S
H67 C46 0.930 . S
H68 C50 0.931 . S
H69 C48 0.931 . S
H70 C52 0.931 . S
H71 C53 0.929 . S
H72 C54 0.930 . S
H73 C57 0.930 . S
H74 C58 0.931 . S
H75 C62 0.928 . S
H76 C61 0.929 . S
H77 C59 0.932 . S
C78 C79 1.386 . S
C78 C80 1.397 . S
C78 H102 0.931 . S
C79 C78 1.386 . S
C79 C83 1.397 . S
C80 C78 1.397 . S
C80 C81 1.384 . S
C80 H103 0.930 . S
C81 C80 1.384 . S
C81 C82 1.377 . S
C81 C84 1.481 . S
C82 C81 1.377 . S
C82 C83 1.389 . S
C82 H104 0.929 . S
C83 C79 1.397 . S
C83 C82 1.389 . S
C83 H105 0.931 . S
C84 C81 1.481 . S
C84 C85 1.387 . S
C84 C89 1.390 . S
C85 C84 1.387 . S
C85 C86 1.401 . S
C85 H106 0.930 . S
C86 C85 1.401 . S
C86 C87 1.376 . S
C86 C95 1.511 . S
C87 C86 1.376 . S
C87 C88 1.392 . S
C87 H108 0.931 . S
C88 C87 1.392 . S
C88 C89 1.361 . S
C88 C90 1.500 . S
C89 C84 1.390 . S
C89 C88 1.361 . S
C89 H107 0.931 . S
C90 C88 1.500 . S
C90 C91 1.371 . S
C90 C92 1.365 . S
C91 C90 1.371 . S
C91 C101 1.386 . S
C91 H109 0.931 . S
C92 C90 1.365 . S
C92 C93 1.409 . S
C92 H110 0.929 . S
C93 C92 1.409 . S
C93 C94 1.380 . S
C93 H111 0.930 . S
C94 C93 1.380 . S
C94 C101 1.357 . S
C95 C86 1.511 . S
C95 C96 1.341 . S
C95 C97 1.371 . S
C96 C95 1.341 . S
C96 C100 1.394 . S
C96 H112 0.930 . S
C97 C95 1.371 . S
C97 C98 1.392 . S
C97 H113 0.931 . S
C98 C97 1.392 . S
C98 C99 1.331 . S
C98 H116 0.932 . S
C99 C98 1.331 . S
C99 C100 1.336 . S
C100 C96 1.394 . S
C100 C99 1.336 . S
C100 H115 0.929 . S
C101 C91 1.386 . S
C101 C94 1.357 . S
C101 H114 0.928 . S
H102 C78 0.931 . S
H103 C80 0.930 . S
H104 C82 0.929 . S
H105 C83 0.931 . S
H106 C85 0.930 . S
H107 C89 0.931 . S
H108 C87 0.931 . S
H109 C91 0.931 . S
H110 C92 0.929 . S
H111 C93 0.930 . S
H112 C96 0.930 . S
H113 C97 0.931 . S
H114 C101 0.928 . S
H115 C100 0.929 . S
H116 C98 0.932 . S
C117 C118 1.386 . S
C117 C119 1.397 . S
C117 H141 0.931 . S
C118 C117 1.386 . S
C118 C122 1.397 . S
C119 C117 1.397 . S
C119 C120 1.384 . S
C119 H142 0.930 . S
C120 C119 1.384 . S
C120 C121 1.377 . S
C120 C123 1.481 . S
C121 C120 1.377 . S
C121 C122 1.389 . S
C121 H143 0.929 . S
C122 C118 1.397 . S
C122 C121 1.389 . S
C122 H144 0.931 . S
C123 C120 1.481 . S
C123 C124 1.387 . S
C123 C128 1.390 . S
C124 C123 1.387 . S
C124 C125 1.401 . S
C124 H145 0.930 . S
C125 C124 1.401 . S
C125 C126 1.376 . S
C125 C134 1.511 . S
C126 C125 1.376 . S
C126 C127 1.392 . S
C126 H147 0.931 . S
C127 C126 1.392 . S
C127 C128 1.361 . S
C127 C129 1.500 . S
C128 C123 1.390 . S
C128 C127 1.361 . S
C128 H146 0.931 . S
C129 C127 1.500 . S
C129 C130 1.371 . S
C129 C131 1.365 . S
C130 C129 1.371 . S
C130 C140 1.386 . S
C130 H148 0.931 . S
C131 C129 1.365 . S
C131 C132 1.409 . S
C131 H149 0.929 . S
C132 C131 1.409 . S
C132 C133 1.380 . S
C132 H150 0.930 . S
C133 C132 1.380 . S
C133 C140 1.357 . S
C134 C125 1.511 . S
C134 C135 1.341 . S
C134 C136 1.371 . S
C135 C134 1.341 . S
C135 C139 1.394 . S
C135 H151 0.930 . S
C136 C134 1.371 . S
C136 C137 1.392 . S
C136 H152 0.931 . S
C137 C136 1.392 . S
C137 C138 1.331 . S
C137 H155 0.932 . S
C138 C137 1.331 . S
C138 C139 1.336 . S
C139 C135 1.394 . S
C139 C138 1.336 . S
C139 H154 0.929 . S
C140 C130 1.386 . S
C140 C133 1.357 . S
C140 H153 0.928 . S
H141 C117 0.931 . S
H142 C119 0.930 . S
H143 C121 0.929 . S
H144 C122 0.931 . S
H145 C124 0.930 . S
H146 C128 0.931 . S
H147 C126 0.931 . S
H148 C130 0.931 . S
H149 C131 0.929 . S
H150 C132 0.930 . S
H151 C135 0.930 . S
H152 C136 0.931 . S
H153 C140 0.928 . S
H154 C139 0.929 . S
H155 C137 0.932 . S
C156 C157 1.386 . S
C156 C158 1.397 . S
C156 H180 0.931 . S
C157 C156 1.386 . S
C157 C161 1.397 . S
C158 C156 1.397 . S
C158 C159 1.384 . S
C158 H181 0.930 . S
C159 C158 1.384 . S
C159 C160 1.377 . S
C159 C162 1.481 . S
C160 C159 1.377 . S
C160 C161 1.389 . S
C160 H182 0.929 . S
C161 C157 1.397 . S
C161 C160 1.389 . S
C161 H183 0.931 . S
C162 C159 1.481 . S
C162 C163 1.387 . S
C162 C167 1.390 . S
C163 C162 1.387 . S
C163 C164 1.401 . S
C163 H184 0.930 . S
C164 C163 1.401 . S
C164 C165 1.376 . S
C164 C173 1.511 . S
C165 C164 1.376 . S
C165 C166 1.392 . S
C165 H186 0.931 . S
C166 C165 1.392 . S
C166 C167 1.361 . S
C166 C168 1.500 . S
C167 C162 1.390 . S
C167 C166 1.361 . S
C167 H185 0.931 . S
C168 C166 1.500 . S
C168 C169 1.371 . S
C168 C170 1.365 . S
C169 C168 1.371 . S
C169 C179 1.386 . S
C169 H187 0.931 . S
C170 C168 1.365 . S
C170 C171 1.409 . S
C170 H188 0.929 . S
C171 C170 1.409 . S
C171 C172 1.380 . S
C171 H189 0.930 . S
C172 C171 1.380 . S
C172 C179 1.357 . S
C173 C164 1.511 . S
C173 C174 1.341 . S
C173 C175 1.371 . S
C174 C173 1.341 . S
C174 C178 1.394 . S
C174 H190 0.930 . S
C175 C173 1.371 . S
C175 C176 1.392 . S
C175 H191 0.931 . S
C176 C175 1.392 . S
C176 C177 1.331 . S
C176 H194 0.932 . S
C177 C176 1.331 . S
C177 C178 1.336 . S
C178 C174 1.394 . S
C178 C177 1.336 . S
C178 H193 0.929 . S
C179 C169 1.386 . S
C179 C172 1.357 . S
C179 H192 0.928 . S
H180 C156 0.931 . S
H181 C158 0.930 . S
H182 C160 0.929 . S
H183 C161 0.931 . S
H184 C163 0.930 . S
H185 C167 0.931 . S
H186 C165 0.931 . S
H187 C169 0.931 . S
H188 C170 0.929 . S
H189 C171 0.930 . S
H190 C174 0.930 . S
H191 C175 0.931 . S
H192 C179 0.928 . S
H193 C178 0.929 . S
H194 C176 0.932 . S
C195 C196 1.386 . S
C195 C197 1.397 . S
C195 H219 0.931 . S
C196 C195 1.386 . S
C196 C200 1.397 . S
C197 C195 1.397 . S
C197 C198 1.384 . S
C197 H220 0.930 . S
C198 C197 1.384 . S
C198 C199 1.377 . S
C198 C201 1.481 . S
C199 C198 1.377 . S
C199 C200 1.389 . S
C199 H221 0.929 . S
C200 C196 1.397 . S
C200 C199 1.389 . S
C200 H222 0.931 . S
C201 C198 1.481 . S
C201 C202 1.387 . S
C201 C206 1.390 . S
C202 C201 1.387 . S
C202 C203 1.401 . S
C202 H223 0.930 . S
C203 C202 1.401 . S
C203 C204 1.376 . S
C203 C212 1.511 . S
C204 C203 1.376 . S
C204 C205 1.392 . S
C204 H225 0.931 . S
C205 C204 1.392 . S
C205 C206 1.361 . S
C205 C207 1.500 . S
C206 C201 1.390 . S
C206 C205 1.361 . S
C206 H224 0.931 . S
C207 C205 1.500 . S
C207 C208 1.371 . S
C207 C209 1.365 . S
C208 C207 1.371 . S
C208 C218 1.386 . S
C208 H226 0.931 . S
C209 C207 1.365 . S
C209 C210 1.409 . S
C209 H227 0.929 . S
C210 C209 1.409 . S
C210 C211 1.380 . S
C210 H228 0.930 . S
C211 C210 1.380 . S
C211 C218 1.357 . S
C212 C203 1.511 . S
C212 C213 1.341 . S
C212 C214 1.371 . S
C213 C212 1.341 . S
C213 C217 1.394 . S
C213 H229 0.930 . S
C214 C212 1.371 . S
C214 C215 1.392 . S
C214 H230 0.931 . S
C215 C214 1.392 . S
C215 C216 1.331 . S
C215 H233 0.932 . S
C216 C215 1.331 . S
C216 C217 1.336 . S
C217 C213 1.394 . S
C217 C216 1.336 . S
C217 H232 0.929 . S
C218 C208 1.386 . S
C218 C211 1.357 . S
C218 H231 0.928 . S
H219 C195 0.931 . S
H220 C197 0.930 . S
H221 C199 0.929 . S
H222 C200 0.931 . S
H223 C202 0.930 . S
H224 C206 0.931 . S
H225 C204 0.931 . S
H226 C208 0.931 . S
H227 C209 0.929 . S
H228 C210 0.930 . S
H229 C213 0.930 . S
H230 C214 0.931 . S
H231 C218 0.928 . S
H232 C217 0.929 . S
H233 C215 0.932 . S
C234 C235 1.386 . S
C234 C236 1.397 . S
C234 H258 0.931 . S
C235 C234 1.386 . S
C235 C239 1.397 . S
C236 C234 1.397 . S
C236 C237 1.384 . S
C236 H259 0.930 . S
C237 C236 1.384 . S
C237 C238 1.377 . S
C237 C240 1.481 . S
C238 C237 1.377 . S
C238 C239 1.389 . S
C238 H260 0.929 . S
C239 C235 1.397 . S
C239 C238 1.389 . S
C239 H261 0.931 . S
C240 C237 1.481 . S
C240 C241 1.387 . S
C240 C245 1.390 . S
C241 C240 1.387 . S
C241 C242 1.401 . S
C241 H262 0.930 . S
C242 C241 1.401 . S
C242 C243 1.376 . S
C242 C251 1.511 . S
C243 C242 1.376 . S
C243 C244 1.392 . S
C243 H264 0.931 . S
C244 C243 1.392 . S
C244 C245 1.361 . S
C244 C246 1.500 . S
C245 C240 1.390 . S
C245 C244 1.361 . S
C245 H263 0.931 . S
C246 C244 1.500 . S
C246 C247 1.371 . S
C246 C248 1.365 . S
C247 C246 1.371 . S
C247 C257 1.386 . S
C247 H265 0.931 . S
C248 C246 1.365 . S
C248 C249 1.409 . S
C248 H266 0.929 . S
C249 C248 1.409 . S
C249 C250 1.380 . S
C249 H267 0.930 . S
C250 C249 1.380 . S
C250 C257 1.357 . S
C251 C242 1.511 . S
C251 C252 1.341 . S
C251 C253 1.371 . S
C252 C251 1.341 . S
C252 C256 1.394 . S
C252 H268 0.930 . S
C253 C251 1.371 . S
C253 C254 1.392 . S
C253 H269 0.931 . S
C254 C253 1.392 . S
C254 C255 1.331 . S
C254 H272 0.932 . S
C255 C254 1.331 . S
C255 C256 1.336 . S
C256 C252 1.394 . S
C256 C255 1.336 . S
C256 H271 0.929 . S
C257 C247 1.386 . S
C257 C250 1.357 . S
C257 H270 0.928 . S
H258 C234 0.931 . S
H259 C236 0.930 . S
H260 C238 0.929 . S
H261 C239 0.931 . S
H262 C241 0.930 . S
H263 C245 0.931 . S
H264 C243 0.931 . S
H265 C247 0.931 . S
H266 C248 0.929 . S
H267 C249 0.930 . S
H268 C252 0.930 . S
H269 C253 0.931 . S
H270 C257 0.928 . S
H271 C256 0.929 . S
H272 C254 0.932 . S
C273 C274 1.386 . S
C273 C275 1.397 . S
C273 H297 0.931 . S
C274 C273 1.386 . S
C274 C278 1.397 . S
C275 C273 1.397 . S
C275 C276 1.384 . S
C275 H298 0.930 . S
C276 C275 1.384 . S
C276 C277 1.377 . S
C276 C279 1.481 . S
C277 C276 1.377 . S
C277 C278 1.389 . S
C277 H299 0.929 . S
C278 C274 1.397 . S
C278 C277 1.389 . S
C278 H300 0.931 . S
C279 C276 1.481 . S
C279 C280 1.387 . S
C279 C284 1.390 . S
C280 C279 1.387 . S
C280 C281 1.401 . S
C280 H301 0.930 . S
C281 C280 1.401 . S
C281 C282 1.376 . S
C281 C290 1.511 . S
C282 C281 1.376 . S
C282 C283 1.392 . S
C282 H303 0.931 . S
C283 C282 1.392 . S
C283 C284 1.361 . S
C283 C285 1.500 . S
C284 C279 1.390 . S
C284 C283 1.361 . S
C284 H302 0.931 . S
C285 C283 1.500 . S
C285 C286 1.371 . S
C285 C287 1.365 . S
C286 C285 1.371 . S
C286 C296 1.386 . S
C286 H304 0.931 . S
C287 C285 1.365 . S
C287 C288 1.409 . S
C287 H305 0.929 . S
C288 C287 1.409 . S
C288 C289 1.380 . S
C288 H306 0.930 . S
C289 C288 1.380 . S
C289 C296 1.357 . S
C290 C281 1.511 . S
C290 C291 1.341 . S
C290 C292 1.371 . S
C291 C290 1.341 . S
C291 C295 1.394 . S
C291 H307 0.930 . S
C292 C290 1.371 . S
C292 C293 1.392 . S
C292 H308 0.931 . S
C293 C292 1.392 . S
C293 C294 1.331 . S
C293 H311 0.932 . S
C294 C293 1.331 . S
C294 C295 1.336 . S
C295 C291 1.394 . S
C295 C294 1.336 . S
C295 H310 0.929 . S
C296 C286 1.386 . S
C296 C289 1.357 . S
C296 H309 0.928 . S
H297 C273 0.931 . S
H298 C275 0.930 . S
H299 C277 0.929 . S
H300 C278 0.931 . S
H301 C280 0.930 . S
H302 C284 0.931 . S
H303 C282 0.931 . S
H304 C286 0.931 . S
H305 C287 0.929 . S
H306 C288 0.930 . S
H307 C291 0.930 . S
H308 C292 0.931 . S
H309 C296 0.928 . S
H310 C295 0.929 . S
H311 C293 0.932 . S
La312 C314 2.928 . S
La312 O332 2.521 . S
La312 O333 2.628 . S
La312 O334 2.554 1_545 S
La312 O335 2.757 1_545 S
La312 O336 2.470 . S
La312 O341 2.482 1_455 S
La312 O343 2.503 1_445 S
La313 C323 2.928 . S
La313 O335 2.482 1_655 S
La313 O337 2.503 1_665 S
La313 O338 2.521 . S
La313 O339 2.628 . S
La313 O340 2.554 1_565 S
La313 O341 2.757 1_565 S
La313 O342 2.470 . S
C314 La312 2.928 . S
C314 C315 1.503 . S
C314 O332 1.261 . S
C314 O333 1.243 . S
C315 C314 1.503 . S
C315 C316 1.394 . S
C315 C320 1.373 . S
C316 C315 1.394 . S
C316 C317 1.380 . S
C316 H344 0.930 . S
C317 C316 1.380 . S
C317 C318 1.376 . S
C317 H345 0.930 . S
C318 C317 1.376 . S
C318 C319 1.370 . S
C319 C318 1.370 . S
C319 C320 1.396 . S
C319 H346 0.929 . S
C320 C315 1.373 . S
C320 C319 1.396 . S
C320 H347 0.929 . S
C321 O334 1.240 . S
C321 O335 1.289 . S
C322 O336 1.258 . S
C322 O337 1.256 . S
C323 La313 2.928 . S
C323 C324 1.503 . S
C323 O338 1.261 . S
C323 O339 1.243 . S
C324 C323 1.503 . S
C324 C325 1.394 . S
C324 C329 1.373 . S
C325 C324 1.394 . S
C325 C326 1.380 . S
C325 H348 0.930 . S
C326 C325 1.380 . S
C326 C327 1.376 . S
C326 H349 0.930 . S
C327 C326 1.376 . S
C327 C328 1.370 . S
C328 C327 1.370 . S
C328 C329 1.396 . S
C328 H350 0.929 . S
C329 C324 1.373 . S
C329 C328 1.396 . S
C329 H351 0.929 . S
C330 O340 1.240 . S
C330 O341 1.289 . S
C331 O342 1.258 . S
C331 O343 1.256 . S
O332 La312 2.521 . S
O332 C314 1.261 . S
O333 La312 2.628 . S
O333 C314 1.243 . S
O334 La312 2.554 1_565 S
O334 C321 1.240 . S
O335 La312 2.757 1_565 S
O335 La313 2.482 1_455 S
O335 C321 1.289 . S
O336 La312 2.470 . S
O336 C322 1.258 . S
O337 La313 2.503 1_445 S
O337 C322 1.256 . S
O338 La313 2.521 . S
O338 C323 1.261 . S
O339 La313 2.628 . S
O339 C323 1.243 . S
O340 La313 2.554 1_545 S
O340 C330 1.240 . S
O341 La312 2.482 1_655 S
O341 La313 2.757 1_545 S
O341 C330 1.289 . S
O342 La313 2.470 . S
O342 C331 1.258 . S
O343 La312 2.503 1_665 S
O343 C331 1.256 . S
H344 C316 0.930 . S
H345 C317 0.930 . S
H346 C319 0.929 . S
H347 C320 0.929 . S
H348 C325 0.930 . S
H349 C326 0.930 . S
H350 C328 0.929 . S
H351 C329 0.929 . S
La352 C354 2.914 1_565 S
La352 O372 2.519 1_565 S
La352 O373 2.603 1_565 S
La352 O374 2.576 . S
La352 O375 2.768 . S
La352 O376 2.454 1_565 S
La352 O381 2.460 1_564 S
La352 O383 2.519 1_554 S
La353 C363 2.928 1_545 S
La353 O375 2.482 1_546 S
La353 O377 2.503 1_556 S
La353 O378 2.521 1_545 S
La353 O379 2.628 1_545 S
La353 O380 2.554 . S
La353 O381 2.757 . S
La353 O382 2.470 1_545 S
C354 La352 2.914 1_545 S
C354 C355 1.503 . S
C354 O372 1.261 . S
C354 O373 1.243 . S
C355 C354 1.503 . S
C355 C356 1.394 . S
C355 C360 1.373 . S
C356 C355 1.394 . S
C356 C357 1.380 . S
C356 H384 0.930 . S
C357 C356 1.380 . S
C357 C358 1.376 . S
C357 H385 0.930 . S
C358 C357 1.376 . S
C358 C359 1.370 . S
C359 C358 1.370 . S
C359 C360 1.396 . S
C359 H386 0.929 . S
C360 C355 1.373 . S
C360 C359 1.396 . S
C360 H387 0.929 . S
C361 O374 1.240 . S
C361 O375 1.289 . S
C362 O376 1.258 . S
C362 O377 1.256 . S
C363 La353 2.928 1_565 S
C363 C364 1.503 . S
C363 O378 1.261 . S
C363 O379 1.243 . S
C364 C363 1.503 . S
C364 C365 1.394 . S
C364 C369 1.373 . S
C365 C364 1.394 . S
C365 C366 1.380 . S
C365 H388 0.930 . S
C366 C365 1.380 . S
C366 C367 1.376 . S
C366 H389 0.930 . S
C367 C366 1.376 . S
C367 C368 1.370 . S
C368 C367 1.370 . S
C368 C369 1.396 . S
C368 H390 0.929 . S
C369 C364 1.373 . S
C369 C368 1.396 . S
C369 H391 0.929 . S
C370 O380 1.240 . S
C370 O381 1.289 . S
C371 O382 1.258 . S
C371 O383 1.256 . S
O372 La352 2.519 1_545 S
O372 C354 1.261 . S
O373 La352 2.603 1_545 S
O373 C354 1.243 . S
O374 La352 2.576 . S
O374 C361 1.240 . S
O375 La352 2.768 . S
O375 La353 2.482 1_564 S
O375 C361 1.289 . S
O376 La352 2.454 1_545 S
O376 C362 1.258 . S
O377 La353 2.503 1_554 S
O377 C362 1.256 . S
O378 La353 2.521 1_565 S
O378 C363 1.261 . S
O379 La353 2.628 1_565 S
O379 C363 1.243 . S
O380 La353 2.554 . S
O380 C370 1.240 . S
O381 La352 2.460 1_546 S
O381 La353 2.757 . S
O381 C370 1.289 . S
O382 La353 2.470 1_565 S
O382 C371 1.258 . S
O383 La352 2.519 1_556 S
O383 C371 1.256 . S
H384 C356 0.930 . S
H385 C357 0.930 . S
H386 C359 0.929 . S
H387 C360 0.929 . S
H388 C365 0.930 . S
H389 C366 0.930 . S
H390 C368 0.929 . S
H391 C369 0.929 . S
La392 C394 2.928 . S
La392 O412 2.521 . S
La392 O413 2.628 . S
La392 O414 2.554 . S
La392 O415 2.757 . S
La392 O416 2.470 . S
La392 O421 2.482 . S
La392 O423 2.503 . S
La393 C403 2.928 . S
La393 O415 2.482 . S
La393 O417 2.503 . S
La393 O418 2.521 . S
La393 O419 2.628 . S
La393 O420 2.554 . S
La393 O421 2.757 . S
La393 O422 2.470 . S
C394 La392 2.928 . S
C394 C395 1.503 . S
C394 O412 1.261 . S
C394 O413 1.243 . S
C395 C394 1.503 . S
C395 C396 1.394 . S
C395 C400 1.373 . S
C396 C395 1.394 . S
C396 C397 1.380 . S
C396 H424 0.930 . S
C397 C396 1.380 . S
C397 C398 1.376 . S
C397 H425 0.930 . S
C398 C397 1.376 . S
C398 C399 1.370 . S
C399 C398 1.370 . S
C399 C400 1.396 . S
C399 H426 0.929 . S
C400 C395 1.373 . S
C400 C399 1.396 . S
C400 H427 0.929 . S
C401 O414 1.240 . S
C401 O415 1.289 . S
C402 O416 1.258 . S
C402 O417 1.256 . S
C403 La393 2.928 . S
C403 C404 1.503 . S
C403 O418 1.261 . S
C403 O419 1.243 . S
C404 C403 1.503 . S
C404 C405 1.394 . S
C404 C409 1.373 . S
C405 C404 1.394 . S
C405 C406 1.380 . S
C405 H428 0.930 . S
C406 C405 1.380 . S
C406 C407 1.376 . S
C406 H429 0.930 . S
C407 C406 1.376 . S
C407 C408 1.370 . S
C408 C407 1.370 . S
C408 C409 1.396 . S
C408 H430 0.929 . S
C409 C404 1.373 . S
C409 C408 1.396 . S
C409 H431 0.929 . S
C410 O420 1.240 . S
C410 O421 1.289 . S
C411 O422 1.258 . S
C411 O423 1.256 . S
O412 La392 2.521 . S
O412 C394 1.261 . S
O413 La392 2.628 . S
O413 C394 1.243 . S
O414 La392 2.554 . S
O414 C401 1.240 . S
O415 La392 2.757 . S
O415 La393 2.482 . S
O415 C401 1.289 . S
O416 La392 2.470 . S
O416 C402 1.258 . S
O417 La393 2.503 . S
O417 C402 1.256 . S
O418 La393 2.521 . S
O418 C403 1.261 . S
O419 La393 2.628 . S
O419 C403 1.243 . S
O420 La393 2.554 . S
O420 C410 1.240 . S
O421 La392 2.482 . S
O421 La393 2.757 . S
O421 C410 1.289 . S
O422 La393 2.470 . S
O422 C411 1.258 . S
O423 La392 2.503 . S
O423 C411 1.256 . S
H424 C396 0.930 . S
H425 C397 0.930 . S
H426 C399 0.929 . S
H427 C400 0.929 . S
H428 C405 0.930 . S
H429 C406 0.930 . S
H430 C408 0.929 . S
H431 C409 0.929 . S
La432 C434 2.928 . S
La432 O452 2.521 . S
La432 O453 2.628 . S
La432 O454 2.554 1_455 S
La432 O455 2.757 1_455 S
La432 O456 2.470 . S
La432 O461 2.482 1_554 S
La432 O463 2.503 1_454 S
La433 C443 2.928 . S
La433 O455 2.482 1_556 S
La433 O457 2.503 1_656 S
La433 O458 2.521 . S
La433 O459 2.628 . S
La433 O460 2.554 1_655 S
La433 O461 2.757 1_655 S
La433 O462 2.470 . S
C434 La432 2.928 . S
C434 C435 1.503 . S
C434 O452 1.261 . S
C434 O453 1.243 . S
C435 C434 1.503 . S
C435 C436 1.394 . S
C435 C440 1.373 . S
C436 C435 1.394 . S
C436 C437 1.380 . S
C436 H464 0.930 . S
C437 C436 1.380 . S
C437 C438 1.376 . S
C437 H465 0.930 . S
C438 C437 1.376 . S
C438 C439 1.370 . S
C439 C438 1.370 . S
C439 C440 1.396 . S
C439 H466 0.929 . S
C440 C435 1.373 . S
C440 C439 1.396 . S
C440 H467 0.929 . S
C441 O454 1.240 . S
C441 O455 1.289 . S
C442 O456 1.258 . S
C442 O457 1.256 . S
C443 La433 2.928 . S
C443 C444 1.503 . S
C443 O458 1.261 . S
C443 O459 1.243 . S
C444 C443 1.503 . S
C444 C445 1.394 . S
C444 C449 1.373 . S
C445 C444 1.394 . S
C445 C446 1.380 . S
C445 H468 0.930 . S
C446 C445 1.380 . S
C446 C447 1.376 . S
C446 H469 0.930 . S
C447 C446 1.376 . S
C447 C448 1.370 . S
C448 C447 1.370 . S
C448 C449 1.396 . S
C448 H470 0.929 . S
C449 C444 1.373 . S
C449 C448 1.396 . S
C449 H471 0.929 . S
C450 O460 1.240 . S
C450 O461 1.289 . S
C451 O462 1.258 . S
C451 O463 1.256 . S
O452 La432 2.521 . S
O452 C434 1.261 . S
O453 La432 2.628 . S
O453 C434 1.243 . S
O454 La432 2.554 1_655 S
O454 C441 1.240 . S
O455 La432 2.757 1_655 S
O455 La433 2.482 1_554 S
O455 C441 1.289 . S
O456 La432 2.470 . S
O456 C442 1.258 . S
O457 La433 2.503 1_454 S
O457 C442 1.256 . S
O458 La433 2.521 . S
O458 C443 1.261 . S
O459 La433 2.628 . S
O459 C443 1.243 . S
O460 La433 2.554 1_455 S
O460 C450 1.240 . S
O461 La432 2.482 1_556 S
O461 La433 2.757 1_455 S
O461 C450 1.289 . S
O462 La433 2.470 . S
O462 C451 1.258 . S
O463 La432 2.503 1_656 S
O463 C451 1.256 . S
H464 C436 0.930 . S
H465 C437 0.930 . S
H466 C439 0.929 . S
H467 C440 0.929 . S
H468 C445 0.930 . S
H469 C446 0.930 . S
H470 C448 0.929 . S
H471 C449 0.929 . S
C472 C473 1.363 . S
C472 C478 1.379 . S
C472 N480 1.356 . S
C473 C472 1.363 . S
C473 C479 1.363 . S
C474 C475 1.363 . S
C474 C479 1.379 . S
C474 N481 1.356 . S
C475 C474 1.363 . S
C475 C478 1.363 . S
N476 C478 1.356 . S
N476 H488 0.984 . S
N476 H489 0.985 . S
N477 C479 1.356 . S
N477 H482 0.984 . S
N477 H483 0.985 . S
C478 C472 1.379 . S
C478 C475 1.363 . S
C478 N476 1.356 . S
C479 C473 1.363 . S
C479 C474 1.379 . S
C479 N477 1.356 . S
N480 C472 1.356 . S
N480 H486 0.984 . S
N480 H487 0.984 . S
N481 C474 1.356 . S
N481 H484 0.984 . S
N481 H485 0.985 . S
H482 N477 0.984 . S
H483 N477 0.985 . S
H484 N481 0.984 . S
H485 N481 0.985 . S
H486 N480 0.984 . S
H487 N480 0.984 . S
H488 N476 0.984 . S
H489 N476 0.985 . S
C490 C491 1.363 . S
C490 C496 1.379 . S
C490 N498 1.356 . S
C491 C490 1.363 . S
C491 C497 1.363 . S
C492 C493 1.363 . S
C492 C497 1.379 . S
C492 N499 1.356 . S
C493 C492 1.363 . S
C493 C496 1.363 . S
N494 C496 1.356 . S
N494 H506 0.984 . S
N494 H507 0.985 . S
N495 C497 1.356 . S
N495 H500 0.984 . S
N495 H501 0.985 . S
C496 C490 1.379 . S
C496 C493 1.363 . S
C496 N494 1.356 . S
C497 C491 1.363 . S
C497 C492 1.379 . S
C497 N495 1.356 . S
N498 C490 1.356 . S
N498 H504 0.984 . S
N498 H505 0.984 . S
N499 C492 1.356 . S
N499 H502 0.984 . S
N499 H503 0.985 . S
H500 N495 0.984 . S
H501 N495 0.985 . S
H502 N499 0.984 . S
H503 N499 0.985 . S
H504 N498 0.984 . S
H505 N498 0.984 . S
H506 N494 0.984 . S
H507 N494 0.985 . S
C508 C509 1.363 . S
C508 C514 1.379 . S
C508 N516 1.356 . S
C509 C508 1.363 . S
C509 C515 1.363 . S
C510 C511 1.363 . S
C510 C515 1.379 . S
C510 N517 1.356 . S
C511 C510 1.363 . S
C511 C514 1.363 . S
N512 C514 1.356 . S
N512 H524 0.984 . S
N512 H525 0.985 . S
N513 C515 1.356 . S
N513 H518 0.984 . S
N513 H519 0.985 . S
C514 C508 1.379 . S
C514 C511 1.363 . S
C514 N512 1.356 . S
C515 C509 1.363 . S
C515 C510 1.379 . S
C515 N513 1.356 . S
N516 C508 1.356 . S
N516 H522 0.984 . S
N516 H523 0.984 . S
N517 C510 1.356 . S
N517 H520 0.984 . S
N517 H521 0.985 . S
H518 N513 0.984 . S
H519 N513 0.985 . S
H520 N517 0.984 . S
H521 N517 0.985 . S
H522 N516 0.984 . S
H523 N516 0.984 . S
H524 N512 0.984 . S
H525 N512 0.985 . S
C526 C527 1.363 . S
C526 C532 1.379 . S
C526 N534 1.356 . S
C527 C526 1.363 . S
C527 C533 1.363 . S
C528 C529 1.363 . S
C528 C533 1.379 . S
C528 N535 1.356 . S
C529 C528 1.363 . S
C529 C532 1.363 . S
N530 C532 1.368 . S
N530 H542 0.974 1_655 S
N530 H543 0.985 . S
N531 C533 1.356 . S
N531 H536 0.984 . S
N531 H537 0.985 . S
C532 C526 1.379 . S
C532 C529 1.363 . S
C532 N530 1.368 . S
C533 C527 1.363 . S
C533 C528 1.379 . S
C533 N531 1.356 . S
N534 C526 1.356 . S
N534 H540 0.994 . S
N534 H541 0.984 . S
N535 C528 1.356 . S
N535 H538 0.984 . S
N535 H539 0.985 . S
H536 N531 0.984 . S
H537 N531 0.985 . S
H538 N535 0.984 . S
H539 N535 0.985 . S
H540 N534 0.994 . S
H541 N534 0.984 . S
H542 N530 0.974 1_455 S
H543 N530 0.985 . S
C544 C545 1.363 . S
C544 C550 1.379 . S
C544 N552 1.356 . S
C545 C544 1.363 . S
C545 C551 1.363 . S
C546 C547 1.363 . S
C546 C551 1.379 . S
C546 N553 1.356 . S
C547 C546 1.363 . S
C547 C550 1.363 . S
N548 C550 1.356 . S
N548 H560 0.984 . S
N548 H561 0.985 . S
N549 C551 1.356 . S
N549 H554 0.984 . S
N549 H555 0.985 . S
C550 C544 1.379 . S
C550 C547 1.363 . S
C550 N548 1.356 . S
C551 C545 1.363 . S
C551 C546 1.379 . S
C551 N549 1.356 . S
N552 C544 1.356 . S
N552 H558 0.984 . S
N552 H559 0.984 . S
N553 C546 1.356 . S
N553 H556 0.984 . S
N553 H557 0.985 . S
H554 N549 0.984 . S
H555 N549 0.985 . S
H556 N553 0.984 . S
H557 N553 0.985 . S
H558 N552 0.984 . S
H559 N552 0.984 . S
H560 N548 0.984 . S
H561 N548 0.985 . S
C562 C563 1.363 . S
C562 C568 1.379 . S
C562 N570 1.356 . S
C563 C562 1.363 . S
C563 C569 1.363 . S
C564 C565 1.363 . S
C564 C569 1.379 . S
C564 N571 1.356 . S
C565 C564 1.363 . S
C565 C568 1.363 . S
N566 C568 1.356 . S
N566 H578 0.984 . S
N566 H579 0.985 . S
N567 C569 1.356 . S
N567 H572 0.984 . S
N567 H573 0.985 . S
C568 C562 1.379 . S
C568 C565 1.363 . S
C568 N566 1.356 . S
C569 C563 1.363 . S
C569 C564 1.379 . S
C569 N567 1.356 . S
N570 C562 1.356 . S
N570 H576 0.984 . S
N570 H577 0.984 . S
N571 C564 1.356 . S
N571 H574 0.984 . S
N571 H575 0.985 . S
H572 N567 0.984 . S
H573 N567 0.985 . S
H574 N571 0.984 . S
H575 N571 0.985 . S
H576 N570 0.984 . S
H577 N570 0.984 . S
H578 N566 0.984 . S
H579 N566 0.985 . S
C580 C581 1.363 . S
C580 C586 1.379 . S
C580 N588 1.356 . S
C581 C580 1.363 . S
C581 C587 1.363 . S
C582 C583 1.363 . S
C582 C587 1.379 . S
C582 N589 1.354 . S
C583 C582 1.363 . S
C583 C586 1.363 . S
N584 C586 1.356 . S
N584 H596 0.984 . S
N584 H597 0.985 . S
N585 C587 1.356 . S
N585 H590 0.984 . S
N585 H591 0.985 . S
C586 C580 1.379 . S
C586 C583 1.363 . S
C586 N584 1.356 . S
C587 C581 1.363 . S
C587 C582 1.379 . S
C587 N585 1.356 . S
N588 C580 1.356 . S
N588 H594 0.984 . S
N588 H595 0.984 . S
N589 C582 1.354 . S
N589 H592 0.985 1_556 S
N589 H593 0.986 1_556 S
H590 N585 0.984 . S
H591 N585 0.985 . S
H592 N589 0.985 1_554 S
H593 N589 0.986 1_554 S
H594 N588 0.984 . S
H595 N588 0.984 . S
H596 N584 0.984 . S
H597 N584 0.985 . S
C598 C599 1.363 . S
C598 C604 1.379 . S
C598 N606 1.356 . S
C599 C598 1.363 . S
C599 C605 1.363 . S
C600 C601 1.363 . S
C600 C605 1.379 . S
C600 N607 1.356 . S
C601 C600 1.363 . S
C601 C604 1.363 . S
N602 C604 1.356 . S
N602 H614 0.984 . S
N602 H615 0.985 . S
N603 C605 1.356 . S
N603 H608 0.984 . S
N603 H609 0.985 . S
C604 C598 1.379 . S
C604 C601 1.363 . S
C604 N602 1.356 . S
C605 C599 1.363 . S
C605 C600 1.379 . S
C605 N603 1.356 . S
N606 C598 1.356 . S
N606 H612 0.984 . S
N606 H613 0.984 . S
N607 C600 1.356 . S
N607 H610 0.984 . S
N607 H611 0.985 . S
H608 N603 0.984 . S
H609 N603 0.985 . S
H610 N607 0.984 . S
H611 N607 0.985 . S
H612 N606 0.984 . S
H613 N606 0.984 . S
H614 N602 0.984 . S
H615 N602 0.985 . S
C616 C617 1.363 . S
C616 C622 1.379 . S
C616 N624 1.356 . S
C617 C616 1.363 . S
C617 C623 1.363 . S
C618 C619 1.363 . S
C618 C623 1.379 . S
C618 N625 1.356 . S
C619 C618 1.363 . S
C619 C622 1.363 . S
N620 C622 1.356 . S
N620 H632 0.984 . S
N620 H633 0.985 . S
N621 C623 1.356 . S
N621 H626 0.984 . S
N621 H627 0.985 . S
C622 C616 1.379 . S
C622 C619 1.363 . S
C622 N620 1.356 . S
C623 C617 1.363 . S
C623 C618 1.379 . S
C623 N621 1.356 . S
N624 C616 1.356 . S
N624 H630 0.984 . S
N624 H631 0.984 . S
N625 C618 1.356 . S
N625 H628 0.984 . S
N625 H629 0.985 . S
H626 N621 0.984 . S
H627 N621 0.985 . S
H628 N625 0.984 . S
H629 N625 0.985 . S
H630 N624 0.984 . S
H631 N624 0.984 . S
H632 N620 0.984 . S
H633 N620 0.985 . S
C634 C635 1.363 . S
C634 C640 1.379 . S
C634 N642 1.356 . S
C635 C634 1.363 . S
C635 C641 1.363 . S
C636 C637 1.363 . S
C636 C641 1.379 . S
C636 N643 1.356 . S
C637 C636 1.363 . S
C637 C640 1.363 . S
N638 C640 1.356 . S
N638 H650 0.984 . S
N638 H651 0.985 . S
N639 C641 1.356 . S
N639 H644 0.984 . S
N639 H645 0.985 . S
C640 C634 1.379 . S
C640 C637 1.363 . S
C640 N638 1.356 . S
C641 C635 1.363 . S
C641 C636 1.379 . S
C641 N639 1.356 . S
N642 C634 1.356 . S
N642 H648 0.984 . S
N642 H649 0.984 . S
N643 C636 1.356 . S
N643 H646 0.984 . S
N643 H647 0.985 . S
H644 N639 0.984 . S
H645 N639 0.985 . S
H646 N643 0.984 . S
H647 N643 0.985 . S
H648 N642 0.984 . S
H649 N642 0.984 . S
H650 N638 0.984 . S
H651 N638 0.985 . S
C652 C653 1.363 . S
C652 C658 1.379 . S
C652 N660 1.356 . S
C653 C652 1.363 . S
C653 C659 1.363 . S
C654 C655 1.363 . S
C654 C659 1.379 . S
C654 N661 1.356 . S
C655 C654 1.363 . S
C655 C658 1.363 . S
N656 C658 1.356 . S
N656 H668 0.984 1_655 S
N656 H669 0.985 . S
N657 C659 1.356 . S
N657 H662 0.984 . S
N657 H663 0.985 . S
C658 C652 1.379 . S
C658 C655 1.363 . S
C658 N656 1.356 . S
C659 C653 1.363 . S
C659 C654 1.379 . S
C659 N657 1.356 . S
N660 C652 1.356 . S
N660 H666 0.984 . S
N660 H667 0.984 . S
N661 C654 1.356 . S
N661 H664 0.984 . S
N661 H665 0.985 . S
H662 N657 0.984 . S
H663 N657 0.985 . S
H664 N661 0.984 . S
H665 N661 0.985 . S
H666 N660 0.984 . S
H667 N660 0.984 . S
H668 N656 0.984 1_455 S
H669 N656 0.985 . S
C670 C671 1.363 . S
C670 C676 1.379 . S
C670 N678 1.356 . S
C671 C670 1.363 . S
C671 C677 1.363 . S
C672 C673 1.363 . S
C672 C677 1.379 . S
C672 N679 1.356 . S
C673 C672 1.363 . S
C673 C676 1.363 . S
N674 C676 1.356 . S
N674 H686 0.984 . S
N674 H687 0.985 . S
N675 C677 1.356 . S
N675 H680 0.984 . S
N675 H681 0.985 . S
C676 C670 1.379 . S
C676 C673 1.363 . S
C676 N674 1.356 . S
C677 C671 1.363 . S
C677 C672 1.379 . S
C677 N675 1.356 . S
N678 C670 1.356 . S
N678 H684 0.984 . S
N678 H685 0.984 . S
N679 C672 1.356 . S
N679 H682 0.984 . S
N679 H683 0.985 . S
H680 N675 0.984 . S
H681 N675 0.985 . S
H682 N679 0.984 . S
H683 N679 0.985 . S
H684 N678 0.984 . S
H685 N678 0.984 . S
H686 N674 0.984 . S
H687 N674 0.985 . S
C688 C689 1.363 . S
C688 C694 1.379 . S
C688 N696 1.356 . S
C689 C688 1.363 . S
C689 C695 1.363 . S
C690 C691 1.363 . S
C690 C695 1.379 . S
C690 N697 1.356 . S
C691 C690 1.363 . S
C691 C694 1.363 . S
N692 C694 1.356 . S
N692 H704 0.984 . S
N692 H705 0.985 . S
N693 C695 1.356 . S
N693 H698 0.984 . S
N693 H699 0.985 . S
C694 C688 1.379 . S
C694 C691 1.363 . S
C694 N692 1.356 . S
C695 C689 1.363 . S
C695 C690 1.379 . S
C695 N693 1.356 . S
N696 C688 1.356 . S
N696 H702 0.984 . S
N696 H703 0.984 . S
N697 C690 1.356 . S
N697 H700 0.984 . S
N697 H701 0.985 . S
H698 N693 0.984 . S
H699 N693 0.985 . S
H700 N697 0.984 . S
H701 N697 0.985 . S
H702 N696 0.984 . S
H703 N696 0.984 . S
H704 N692 0.984 . S
H705 N692 0.985 . S
C706 C707 1.363 . S
C706 C712 1.379 . S
C706 N714 1.356 . S
C707 C706 1.363 . S
C707 C713 1.363 . S
C708 C709 1.363 . S
C708 C713 1.379 . S
C708 N715 1.356 . S
C709 C708 1.363 . S
C709 C712 1.363 . S
N710 C712 1.356 . S
N710 H722 0.984 . S
N710 H723 0.985 . S
N711 C713 1.356 . S
N711 H716 0.984 . S
N711 H717 0.985 . S
C712 C706 1.379 . S
C712 C709 1.363 . S
C712 N710 1.356 . S
C713 C707 1.363 . S
C713 C708 1.379 . S
C713 N711 1.356 . S
N714 C706 1.356 . S
N714 H720 0.984 . S
N714 H721 0.984 . S
N715 C708 1.356 . S
N715 H718 0.984 . S
N715 H719 0.985 . S
H716 N711 0.984 . S
H717 N711 0.985 . S
H718 N715 0.984 . S
H719 N715 0.985 . S
H720 N714 0.984 . S
H721 N714 0.984 . S
H722 N710 0.984 . S
H723 N710 0.985 . S
C724 C725 1.363 . S
C724 C730 1.379 . S
C724 N732 1.356 . S
C725 C724 1.363 . S
C725 C731 1.363 . S
C726 C727 1.363 . S
C726 C731 1.379 . S
C726 N733 1.356 . S
C727 C726 1.363 . S
C727 C730 1.363 . S
N728 C730 1.356 . S
N728 H740 0.984 . S
N728 H741 0.985 . S
N729 C731 1.356 . S
N729 H734 0.984 . S
N729 H735 0.985 . S
C730 C724 1.379 . S
C730 C727 1.363 . S
C730 N728 1.356 . S
C731 C725 1.363 . S
C731 C726 1.379 . S
C731 N729 1.356 . S
N732 C724 1.356 . S
N732 H738 0.984 . S
N732 H739 0.984 . S
N733 C726 1.356 . S
N733 H736 0.984 . S
N733 H737 0.985 . S
H734 N729 0.984 . S
H735 N729 0.985 . S
H736 N733 0.984 . S
H737 N733 0.985 . S
H738 N732 0.984 . S
H739 N732 0.984 . S
H740 N728 0.984 . S
H741 N728 0.985 . S
C742 C743 1.363 . S
C742 C748 1.379 . S
C742 N750 1.356 . S
C743 C742 1.363 . S
C743 C749 1.363 . S
C744 C745 1.363 . S
C744 C749 1.379 . S
C744 N751 1.356 . S
C745 C744 1.363 . S
C745 C748 1.363 . S
N746 C748 1.356 . S
N746 H758 0.984 . S
N746 H759 0.985 . S
N747 C749 1.356 . S
N747 H752 0.984 . S
N747 H753 0.985 . S
C748 C742 1.379 . S
C748 C745 1.363 . S
C748 N746 1.356 . S
C749 C743 1.363 . S
C749 C744 1.379 . S
C749 N747 1.356 . S
N750 C742 1.356 . S
N750 H756 0.984 . S
N750 H757 0.984 . S
N751 C744 1.356 . S
N751 H754 0.984 . S
N751 H755 0.985 . S
H752 N747 0.984 . S
H753 N747 0.985 . S
H754 N751 0.984 . S
H755 N751 0.985 . S
H756 N750 0.984 . S
H757 N750 0.984 . S
H758 N746 0.984 . S
H759 N746 0.985 . S
C760 C761 1.363 . S
C760 C766 1.379 . S
C760 N768 1.356 . S
C761 C760 1.363 . S
C761 C767 1.363 . S
C762 C763 1.363 . S
C762 C767 1.379 . S
C762 N769 1.356 . S
C763 C762 1.363 . S
C763 C766 1.363 . S
N764 C766 1.356 . S
N764 H776 0.984 . S
N764 H777 0.985 . S
N765 C767 1.356 . S
N765 H770 0.984 . S
N765 H771 0.985 . S
C766 C760 1.379 . S
C766 C763 1.363 . S
C766 N764 1.356 . S
C767 C761 1.363 . S
C767 C762 1.379 . S
C767 N765 1.356 . S
N768 C760 1.356 . S
N768 H774 0.984 . S
N768 H775 0.984 . S
N769 C762 1.356 . S
N769 H772 0.984 . S
N769 H773 0.985 . S
H770 N765 0.984 . S
H771 N765 0.985 . S
H772 N769 0.984 . S
H773 N769 0.985 . S
H774 N768 0.984 . S
H775 N768 0.984 . S
H776 N764 0.984 . S
H777 N764 0.985 . S
C778 C779 1.363 . S
C778 C784 1.379 . S
C778 N786 1.356 . S
C779 C778 1.363 . S
C779 C785 1.363 . S
C780 C781 1.363 . S
C780 C785 1.379 . S
C780 N787 1.356 . S
C781 C780 1.363 . S
C781 C784 1.363 . S
N782 C784 1.356 . S
N782 H794 0.984 . S
N782 H795 0.985 . S
N783 C785 1.356 . S
N783 H788 0.984 . S
N783 H789 0.985 . S
C784 C778 1.379 . S
C784 C781 1.363 . S
C784 N782 1.356 . S
C785 C779 1.363 . S
C785 C780 1.379 . S
C785 N783 1.356 . S
N786 C778 1.356 . S
N786 H792 0.984 . S
N786 H793 0.984 . S
N787 C780 1.356 . S
N787 H790 0.984 . S
N787 H791 0.985 . S
H788 N783 0.984 . S
H789 N783 0.985 . S
H790 N787 0.984 . S
H791 N787 0.985 . S
H792 N786 0.984 . S
H793 N786 0.984 . S
H794 N782 0.984 . S
H795 N782 0.985 . S
C796 C797 1.363 . S
C796 C802 1.379 . S
C796 N804 1.356 . S
C797 C796 1.363 . S
C797 C803 1.363 . S
C798 C799 1.363 . S
C798 C803 1.379 . S
C798 N805 1.356 . S
C799 C798 1.363 . S
C799 C802 1.363 . S
N800 C802 1.356 . S
N800 H812 0.984 . S
N800 H813 0.985 . S
N801 C803 1.356 . S
N801 H806 0.984 . S
N801 H807 0.985 . S
C802 C796 1.379 . S
C802 C799 1.363 . S
C802 N800 1.356 . S
C803 C797 1.363 . S
C803 C798 1.379 . S
C803 N801 1.356 . S
N804 C796 1.356 . S
N804 H810 0.984 . S
N804 H811 0.984 . S
N805 C798 1.356 . S
N805 H808 0.984 . S
N805 H809 0.985 . S
H806 N801 0.984 . S
H807 N801 0.985 . S
H808 N805 0.984 . S
H809 N805 0.985 . S
H810 N804 0.984 . S
H811 N804 0.984 . S
H812 N800 0.984 . S
H813 N800 0.985 . S
C814 C815 1.363 . S
C814 C820 1.379 . S
C814 N822 1.356 . S
C815 C814 1.363 . S
C815 C821 1.363 . S
C816 C817 1.363 . S
C816 C821 1.379 . S
C816 N823 1.356 . S
C817 C816 1.363 . S
C817 C820 1.363 . S
N818 C820 1.356 . S
N818 H830 0.984 . S
N818 H831 0.985 . S
N819 C821 1.356 . S
N819 H824 0.984 . S
N819 H825 0.985 . S
C820 C814 1.379 . S
C820 C817 1.363 . S
C820 N818 1.356 . S
C821 C815 1.363 . S
C821 C816 1.379 . S
C821 N819 1.356 . S
N822 C814 1.356 . S
N822 H828 0.984 . S
N822 H829 0.984 . S
N823 C816 1.356 . S
N823 H826 0.984 . S
N823 H827 0.985 . S
H824 N819 0.984 . S
H825 N819 0.985 . S
H826 N823 0.984 . S
H827 N823 0.985 . S
H828 N822 0.984 . S
H829 N822 0.984 . S
H830 N818 0.984 . S
H831 N818 0.985 . S
C832 C833 1.363 . S
C832 C838 1.379 . S
C832 N840 1.356 . S
C833 C832 1.363 . S
C833 C839 1.363 . S
C834 C835 1.363 . S
C834 C839 1.379 . S
C834 N841 1.356 . S
C835 C834 1.363 . S
C835 C838 1.363 . S
N836 C838 1.356 . S
N836 H848 0.984 . S
N836 H849 0.985 . S
N837 C839 1.356 . S
N837 H842 0.984 . S
N837 H843 0.985 . S
C838 C832 1.379 . S
C838 C835 1.363 . S
C838 N836 1.356 . S
C839 C833 1.363 . S
C839 C834 1.379 . S
C839 N837 1.356 . S
N840 C832 1.356 . S
N840 H846 0.984 . S
N840 H847 0.984 . S
N841 C834 1.356 . S
N841 H844 0.984 . S
N841 H845 0.985 . S
H842 N837 0.984 . S
H843 N837 0.985 . S
H844 N841 0.984 . S
H845 N841 0.985 . S
H846 N840 0.984 . S
H847 N840 0.984 . S
H848 N836 0.984 . S
H849 N836 0.985 . S
C850 C851 1.363 . S
C850 C856 1.379 . S
C850 N858 1.356 . S
C851 C850 1.363 . S
C851 C857 1.363 . S
C852 C853 1.363 . S
C852 C857 1.379 . S
C852 N859 1.356 . S
C853 C852 1.363 . S
C853 C856 1.363 . S
N854 C856 1.356 . S
N854 H866 0.984 . S
N854 H867 0.985 . S
N855 C857 1.356 . S
N855 H860 0.984 . S
N855 H861 0.985 . S
C856 C850 1.379 . S
C856 C853 1.363 . S
C856 N854 1.356 . S
C857 C851 1.363 . S
C857 C852 1.379 . S
C857 N855 1.356 . S
N858 C850 1.356 . S
N858 H864 0.984 . S
N858 H865 0.984 . S
N859 C852 1.356 . S
N859 H862 0.984 . S
N859 H863 0.985 . S
H860 N855 0.984 . S
H861 N855 0.985 . S
H862 N859 0.984 . S
H863 N859 0.985 . S
H864 N858 0.984 . S
H865 N858 0.984 . S
H866 N854 0.984 . S
H867 N854 0.985 . S
C868 C869 1.363 . S
C868 C874 1.379 . S
C868 N876 1.356 . S
C869 C868 1.363 . S
C869 C875 1.363 . S
C870 C871 1.363 . S
C870 C875 1.379 . S
C870 N877 1.356 . S
C871 C870 1.363 . S
C871 C874 1.363 . S
N872 C874 1.356 . S
N872 H884 0.984 . S
N872 H885 0.985 . S
N873 C875 1.356 . S
N873 H878 0.984 . S
N873 H879 0.985 . S
C874 C868 1.379 . S
C874 C871 1.363 . S
C874 N872 1.356 . S
C875 C869 1.363 . S
C875 C870 1.379 . S
C875 N873 1.356 . S
N876 C868 1.356 . S
N876 H882 0.984 . S
N876 H883 0.984 . S
N877 C870 1.356 . S
N877 H880 0.984 . S
N877 H881 0.985 . S
H878 N873 0.984 . S
H879 N873 0.985 . S
H880 N877 0.984 . S
H881 N877 0.985 . S
H882 N876 0.984 . S
H883 N876 0.984 . S
H884 N872 0.984 . S
H885 N872 0.985 . S
C886 C887 1.363 . S
C886 C892 1.379 . S
C886 N894 1.356 . S
C887 C886 1.363 . S
C887 C893 1.363 . S
C888 C889 1.363 . S
C888 C893 1.379 . S
C888 N895 1.356 . S
C889 C888 1.363 . S
C889 C892 1.363 . S
N890 C892 1.356 . S
N890 H902 0.984 . S
N890 H903 0.985 . S
N891 C893 1.356 . S
N891 H896 0.984 . S
N891 H897 0.985 . S
C892 C886 1.379 . S
C892 C889 1.363 . S
C892 N890 1.356 . S
C893 C887 1.363 . S
C893 C888 1.379 . S
C893 N891 1.356 . S
N894 C886 1.356 . S
N894 H900 0.984 . S
N894 H901 0.984 . S
N895 C888 1.356 . S
N895 H898 0.984 . S
N895 H899 0.985 . S
H896 N891 0.984 . S
H897 N891 0.985 . S
H898 N895 0.984 . S
H899 N895 0.985 . S
H900 N894 0.984 . S
H901 N894 0.984 . S
H902 N890 0.984 . S
H903 N890 0.985 . S
C473 C1 1.300 . S
C475 C318 1.405 . S
C491 C40 1.075 . S
C493 C367 1.072 . S
C511 C402 2.505 . S
C509 C99 2.577 . S
C527 C118 2.475 . S
C529 C441 2.415 . S
C547 C362 2.619 . S
C545 C16 2.392 . S
C565 C321 0.837 . S
C563 C60 0.861 . S
C583 C451 1.925 . S
C581 C79 1.997 . S
C601 C410 1.699 . S
C599 C138 1.713 . S
C617 C21 1.692 . S
C619 C438 1.823 . S
C637 C370 2.351 . S
C635 C94 2.459 . S
C653 C133 2.358 . S
C655 C331 2.343 . S
C671 C55 1.082 . S
C673 C407 1.120 . S
C691 C327 1.408 . S
C689 C157 1.315 . S
C707 C196 1.077 . S
C709 C358 1.073 . S
C725 C255 2.575 . S
C727 C411 2.503 . S
C743 C289 2.472 . S
C745 C450 2.410 . S
C761 C172 2.379 . S
C763 C371 2.616 . S
C781 C330 0.837 . S
C779 C216 0.860 . S
C799 C442 1.926 . S
C797 C235 2.000 . S
C817 C401 1.697 . S
C815 C294 1.715 . S
C833 C177 1.714 . S
C835 C447 1.820 . S
C853 C361 2.352 . S
C851 C250 2.460 . S
C871 C322 2.348 . S
C869 C274 2.359 . S
C887 C211 1.084 . S
C889 C398 1.121 . S
