# Generated by pormake.
# Topology ptr, (4,4)-cn, num edge types: 1
# Building blocks:
#     Node 0, Type 0, BuildingBlock: KUFVIS_clean_sbu_0, # of connection points: 4
#     Node 1, Type 0, BuildingBlock: KUFVIS_clean_sbu_0, # of connection points: 4
#     Node 2, Type 0, BuildingBlock: KUFVIS_clean_sbu_0, # of connection points: 4
#     Node 3, Type 0, BuildingBlock: KUFVIS_clean_sbu_0, # of connection points: 4
#     Node 4, Type 0, BuildingBlock: KUFVIS_clean_sbu_0, # of connection points: 4
#     Node 5, Type 0, BuildingBlock: KUFVIS_clean_sbu_0, # of connection points: 4
#     Node 6, Type 0, BuildingBlock: KUFVIS_clean_sbu_0, # of connection points: 4
#     Node 7, Type 0, BuildingBlock: KUFVIS_clean_sbu_0, # of connection points: 4
#     Node 8, Type 0, BuildingBlock: KUFVIS_clean_sbu_0, # of connection points: 4
#     Node 9, Type 0, BuildingBlock: KUFVIS_clean_sbu_0, # of connection points: 4
#     Node 10, Type 0, BuildingBlock: KUFVIS_clean_sbu_0, # of connection points: 4
#     Node 11, Type 0, BuildingBlock: KUFVIS_clean_sbu_0, # of connection points: 4
#     Node 12, Type 0, BuildingBlock: KUFVIS_clean_sbu_0, # of connection points: 4
#     Node 13, Type 0, BuildingBlock: KUFVIS_clean_sbu_0, # of connection points: 4
#     Node 14, Type 0, BuildingBlock: KUFVIS_clean_sbu_0, # of connection points: 4
#     Node 15, Type 0, BuildingBlock: KUFVIS_clean_sbu_0, # of connection points: 4
#     Node 16, Type 0, BuildingBlock: KUFVIS_clean_sbu_0, # of connection points: 4
#     Node 17, Type 0, BuildingBlock: KUFVIS_clean_sbu_0, # of connection points: 4
#     Node 18, Type 1, BuildingBlock: GIZVER_clean_linker_0, # of connection points: 4
#     Node 19, Type 1, BuildingBlock: GIZVER_clean_linker_0, # of connection points: 4
#     Node 20, Type 1, BuildingBlock: GIZVER_clean_linker_0, # of connection points: 4
#     Node 21, Type 1, BuildingBlock: GIZVER_clean_linker_0, # of connection points: 4
#     Node 22, Type 1, BuildingBlock: GIZVER_clean_linker_0, # of connection points: 4
#     Node 23, Type 1, BuildingBlock: GIZVER_clean_linker_0, # of connection points: 4
#     Node 24, Type 1, BuildingBlock: GIZVER_clean_linker_0, # of connection points: 4
#     Node 25, Type 1, BuildingBlock: GIZVER_clean_linker_0, # of connection points: 4
#     Node 26, Type 1, BuildingBlock: GIZVER_clean_linker_0, # of connection points: 4
#     Node 27, Type 1, BuildingBlock: GIZVER_clean_linker_0, # of connection points: 4
#     Node 28, Type 1, BuildingBlock: GIZVER_clean_linker_0, # of connection points: 4
#     Node 29, Type 1, BuildingBlock: GIZVER_clean_linker_0, # of connection points: 4
#     Node 30, Type 1, BuildingBlock: GIZVER_clean_linker_0, # of connection points: 4
#     Node 31, Type 1, BuildingBlock: GIZVER_clean_linker_0, # of connection points: 4
#     Node 32, Type 1, BuildingBlock: GIZVER_clean_linker_0, # of connection points: 4
#     Node 33, Type 1, BuildingBlock: GIZVER_clean_linker_0, # of connection points: 4
#     Node 34, Type 1, BuildingBlock: GIZVER_clean_linker_0, # of connection points: 4
#     Node 35, Type 1, BuildingBlock: GIZVER_clean_linker_0, # of connection points: 4
#     Edge 36, Type (0, 1), BuildingBlock: XUDNAN_clean_linker_2, # of connection points: 2
#     Edge 37, Type (0, 1), BuildingBlock: XUDNAN_clean_linker_2, # of connection points: 2
#     Edge 38, Type (0, 1), BuildingBlock: XUDNAN_clean_linker_2, # of connection points: 2
#     Edge 39, Type (0, 1), BuildingBlock: XUDNAN_clean_linker_2, # of connection points: 2
#     Edge 40, Type (0, 1), BuildingBlock: XUDNAN_clean_linker_2, # of connection points: 2
#     Edge 41, Type (0, 1), BuildingBlock: XUDNAN_clean_linker_2, # of connection points: 2
#     Edge 42, Type (0, 1), BuildingBlock: XUDNAN_clean_linker_2, # of connection points: 2
#     Edge 43, Type (0, 1), BuildingBlock: XUDNAN_clean_linker_2, # of connection points: 2
#     Edge 44, Type (0, 1), BuildingBlock: XUDNAN_clean_linker_2, # of connection points: 2
#     Edge 45, Type (0, 1), BuildingBlock: XUDNAN_clean_linker_2, # of connection points: 2
#     Edge 46, Type (0, 1), BuildingBlock: XUDNAN_clean_linker_2, # of connection points: 2
#     Edge 47, Type (0, 1), BuildingBlock: XUDNAN_clean_linker_2, # of connection points: 2
#     Edge 48, Type (0, 1), BuildingBlock: XUDNAN_clean_linker_2, # of connection points: 2
#     Edge 49, Type (0, 1), BuildingBlock: XUDNAN_clean_linker_2, # of connection points: 2
#     Edge 50, Type (0, 1), BuildingBlock: XUDNAN_clean_linker_2, # of connection points: 2
#     Edge 51, Type (0, 1), BuildingBlock: XUDNAN_clean_linker_2, # of connection points: 2
#     Edge 52, Type (0, 1), BuildingBlock: XUDNAN_clean_linker_2, # of connection points: 2
#     Edge 53, Type (0, 1), BuildingBlock: XUDNAN_clean_linker_2, # of connection points: 2
#     Edge 54, Type (0, 1), BuildingBlock: XUDNAN_clean_linker_2, # of connection points: 2
#     Edge 55, Type (0, 1), BuildingBlock: XUDNAN_clean_linker_2, # of connection points: 2
#     Edge 56, Type (0, 1), BuildingBlock: XUDNAN_clean_linker_2, # of connection points: 2
#     Edge 57, Type (0, 1), BuildingBlock: XUDNAN_clean_linker_2, # of connection points: 2
#     Edge 58, Type (0, 1), BuildingBlock: XUDNAN_clean_linker_2, # of connection points: 2
#     Edge 59, Type (0, 1), BuildingBlock: XUDNAN_clean_linker_2, # of connection points: 2
#     Edge 60, Type (0, 1), BuildingBlock: XUDNAN_clean_linker_2, # of connection points: 2
#     Edge 61, Type (0, 1), BuildingBlock: XUDNAN_clean_linker_2, # of connection points: 2
#     Edge 62, Type (0, 1), BuildingBlock: XUDNAN_clean_linker_2, # of connection points: 2
#     Edge 63, Type (0, 1), BuildingBlock: XUDNAN_clean_linker_2, # of connection points: 2
#     Edge 64, Type (0, 1), BuildingBlock: XUDNAN_clean_linker_2, # of connection points: 2
#     Edge 65, Type (0, 1), BuildingBlock: XUDNAN_clean_linker_2, # of connection points: 2
#     Edge 66, Type (0, 1), BuildingBlock: XUDNAN_clean_linker_2, # of connection points: 2
#     Edge 67, Type (0, 1), BuildingBlock: XUDNAN_clean_linker_2, # of connection points: 2
#     Edge 68, Type (0, 1), BuildingBlock: XUDNAN_clean_linker_2, # of connection points: 2
#     Edge 69, Type (0, 1), BuildingBlock: XUDNAN_clean_linker_2, # of connection points: 2
#     Edge 70, Type (0, 1), BuildingBlock: XUDNAN_clean_linker_2, # of connection points: 2
#     Edge 71, Type (0, 1), BuildingBlock: XUDNAN_clean_linker_2, # of connection points: 2
#     Edge 72, Type (0, 1), BuildingBlock: XUDNAN_clean_linker_2, # of connection points: 2
#     Edge 73, Type (0, 1), BuildingBlock: XUDNAN_clean_linker_2, # of connection points: 2
#     Edge 74, Type (0, 1), BuildingBlock: XUDNAN_clean_linker_2, # of connection points: 2
#     Edge 75, Type (0, 1), BuildingBlock: XUDNAN_clean_linker_2, # of connection points: 2
#     Edge 76, Type (0, 1), BuildingBlock: XUDNAN_clean_linker_2, # of connection points: 2
#     Edge 77, Type (0, 1), BuildingBlock: XUDNAN_clean_linker_2, # of connection points: 2
#     Edge 78, Type (0, 1), BuildingBlock: XUDNAN_clean_linker_2, # of connection points: 2
#     Edge 79, Type (0, 1), BuildingBlock: XUDNAN_clean_linker_2, # of connection points: 2
#     Edge 80, Type (0, 1), BuildingBlock: XUDNAN_clean_linker_2, # of connection points: 2
#     Edge 81, Type (0, 1), BuildingBlock: XUDNAN_clean_linker_2, # of connection points: 2
#     Edge 82, Type (0, 1), BuildingBlock: XUDNAN_clean_linker_2, # of connection points: 2
#     Edge 83, Type (0, 1), BuildingBlock: XUDNAN_clean_linker_2, # of connection points: 2
#     Edge 84, Type (0, 1), BuildingBlock: XUDNAN_clean_linker_2, # of connection points: 2
#     Edge 85, Type (0, 1), BuildingBlock: XUDNAN_clean_linker_2, # of connection points: 2
#     Edge 86, Type (0, 1), BuildingBlock: XUDNAN_clean_linker_2, # of connection points: 2
#     Edge 87, Type (0, 1), BuildingBlock: XUDNAN_clean_linker_2, # of connection points: 2
#     Edge 88, Type (0, 1), BuildingBlock: XUDNAN_clean_linker_2, # of connection points: 2
#     Edge 89, Type (0, 1), BuildingBlock: XUDNAN_clean_linker_2, # of connection points: 2
#     Edge 90, Type (0, 1), BuildingBlock: XUDNAN_clean_linker_2, # of connection points: 2
#     Edge 91, Type (0, 1), BuildingBlock: XUDNAN_clean_linker_2, # of connection points: 2
#     Edge 92, Type (0, 1), BuildingBlock: XUDNAN_clean_linker_2, # of connection points: 2
#     Edge 93, Type (0, 1), BuildingBlock: XUDNAN_clean_linker_2, # of connection points: 2
#     Edge 94, Type (0, 1), BuildingBlock: XUDNAN_clean_linker_2, # of connection points: 2
#     Edge 95, Type (0, 1), BuildingBlock: XUDNAN_clean_linker_2, # of connection points: 2
#     Edge 96, Type (0, 1), BuildingBlock: XUDNAN_clean_linker_2, # of connection points: 2
#     Edge 97, Type (0, 1), BuildingBlock: XUDNAN_clean_linker_2, # of connection points: 2
#     Edge 98, Type (0, 1), BuildingBlock: XUDNAN_clean_linker_2, # of connection points: 2
#     Edge 99, Type (0, 1), BuildingBlock: XUDNAN_clean_linker_2, # of connection points: 2
#     Edge 100, Type (0, 1), BuildingBlock: XUDNAN_clean_linker_2, # of connection points: 2
#     Edge 101, Type (0, 1), BuildingBlock: XUDNAN_clean_linker_2, # of connection points: 2
#     Edge 102, Type (0, 1), BuildingBlock: XUDNAN_clean_linker_2, # of connection points: 2
#     Edge 103, Type (0, 1), BuildingBlock: XUDNAN_clean_linker_2, # of connection points: 2
#     Edge 104, Type (0, 1), BuildingBlock: XUDNAN_clean_linker_2, # of connection points: 2
#     Edge 105, Type (0, 1), BuildingBlock: XUDNAN_clean_linker_2, # of connection points: 2
#     Edge 106, Type (0, 1), BuildingBlock: XUDNAN_clean_linker_2, # of connection points: 2
#     Edge 107, Type (0, 1), BuildingBlock: XUDNAN_clean_linker_2, # of connection points: 2
# Relax obj value: 0.051
# Max RMSD: 0.133
# Mean RMSD: 0.084
data_MOF--net-ptr--node1-KUFVIS_clean_sbu_0--node2-GIZVER_clean_linker_0--edge1-XUDNAN_clean_linker_2
_symmetry_space_group_name_H-M    P1
_symmetry_Int_Tables_number       1
_symmetry_cell_setting            triclinic
loop_
_symmetry_equiv_pos_as_xyz
'x, y, z'
_cell_length_a     79.272712
_cell_length_b     78.865422
_cell_length_c     49.206479
_cell_angle_alpha  89.949451
_cell_angle_beta   91.009656
_cell_angle_gamma 119.51309
loop_
_atom_site_label
_atom_site_type_symbol
_atom_site_fract_x
_atom_site_fract_y
_atom_site_fract_z
_atom_type_partial_charge
Mn0 Mn 1.00243 0.37145 0.00057 0.0
Mn1 Mn 0.04016 0.41654 0.9888 0.0
C2 C 0.9998 0.3916 0.96817 0.0
C3 C 0.98298 0.338 0.99323 0.0
C4 C 0.0145 0.40693 0.03761 0.0
O5 O 0.02578 0.36946 0.016 0.0
O6 O 0.04935 0.39985 0.00606 0.0
C7 C 0.06022 0.40585 0.94758 0.0
N8 N 0.05226 0.41689 0.95538 0.0
C9 C 0.06166 0.43507 0.9138 0.0
C10 C 0.07028 0.42414 0.90556 0.0
C11 C 0.06944 0.40937 0.92244 0.0
C12 C 0.05271 0.43092 0.9391 0.0
H13 H 0.05945 0.39437 0.96035 0.0
C14 C 0.04368 0.38271 0.01522 0.0
O15 O 0.98338 0.34605 0.0163 0.0
O16 O 0.99482 0.34911 0.97478 0.0
N17 N 0.03348 0.43423 0.97151 0.0
C18 C 0.02291 0.44216 0.98131 0.0
C19 C 0.02146 0.45653 0.96624 0.0
C20 C 0.03098 0.46268 0.94136 0.0
C21 C 0.04178 0.45432 0.9317 0.0
C22 C 0.04281 0.44016 0.9477 0.0
H23 H 0.01568 0.4376 0.00051 0.0
O24 O 0.98438 0.37805 0.97955 0.0
O25 O 0.01617 0.39327 0.97648 0.0
O26 O 1.00387 0.38898 0.03183 0.0
O27 O 0.02882 0.4185 0.0233 0.0
C28 C 0.05122 0.4592 0.90657 0.0
C29 C 0.06111 0.44954 0.89759 0.0
H30 H 0.07731 0.42674 0.88612 0.0
H31 H 0.07584 0.40071 0.91607 0.0
H32 H 0.01305 0.46287 0.97379 0.0
H33 H 0.02975 0.47369 0.92972 0.0
H34 H 0.05062 0.47006 0.89373 0.0
H35 H 0.06792 0.45309 0.87795 0.0
Mn36 Mn 0.63852 0.62627 0.01547 0.0
Mn37 Mn 0.63423 0.58467 0.04166 0.0
C38 C 0.61256 0.60668 0.04248 0.0
C39 C 0.64996 0.65975 0.01803 0.0
C40 C 0.62178 0.58746 0.98419 0.0
O41 O 0.6656 0.62982 0.00994 0.0
O42 O 0.66059 0.60146 0.02753 0.0
C43 C 0.66159 0.60256 0.08823 0.0
N44 N 0.64357 0.5896 0.07845 0.0
C45 C 0.63343 0.57565 0.12269 0.0
C46 C 0.65188 0.58884 0.13327 0.0
C47 C 0.66596 0.60247 0.116 0.0
C48 C 0.62972 0.57687 0.09506 0.0
H49 H 0.67259 0.61277 0.07491 0.0
C50 C 0.67142 0.6178 0.01619 0.0
O51 O 0.64532 0.65063 0.9948 0.0
O52 O 0.64883 0.64968 0.03945 0.0
N53 N 0.6097 0.56655 0.05642 0.0
C54 C 0.59298 0.55409 0.0428 0.0
C55 C 0.57727 0.53982 0.05726 0.0
C56 C 0.57918 0.53797 0.08537 0.0
C57 C 0.59683 0.55031 0.09872 0.0
C58 C 0.61181 0.56462 0.08338 0.0
H59 H 0.59158 0.55509 0.02107 0.0
O60 O 0.61171 0.61917 0.02621 0.0
O61 O 0.62885 0.60642 0.0434 0.0
O62 O 0.62726 0.60565 0.98491 0.0
O63 O 0.62384 0.57827 0.0042 0.0
C64 C 0.60037 0.54854 0.12644 0.0
C65 C 0.61869 0.56115 0.13839 0.0
H66 H 0.65541 0.58857 0.15458 0.0
H67 H 0.68024 0.61269 0.12399 0.0
H68 H 0.56381 0.53012 0.0467 0.0
H69 H 0.56712 0.52677 0.09639 0.0
H70 H 0.58912 0.53752 0.13876 0.0
H71 H 0.62121 0.55971 0.15977 0.0
Mn72 Mn 0.38312 0.0086 0.0242 0.0
Mn73 Mn 0.42334 0.05095 0.04185 0.0
C74 C 0.40291 0.00949 0.06015 0.0
C75 C 0.34993 0.98632 0.02702 0.0
C76 C 0.42065 0.02678 0.99219 0.0
O77 O 0.3784 0.02926 0.006 0.0
O78 O 0.40439 0.05659 0.02257 0.0
C79 C 0.40682 0.06658 0.08175 0.0
N80 N 0.42016 0.06121 0.07536 0.0
C81 C 0.43588 0.07161 0.11927 0.0
C82 C 0.42242 0.07747 0.12619 0.0
C83 C 0.40777 0.07485 0.10738 0.0
C84 C 0.43427 0.06357 0.09335 0.0
H85 H 0.39551 0.06449 0.06743 0.0
C86 C 0.38826 0.04774 0.00926 0.0
O87 O 0.35987 0.98693 0.00602 0.0
O88 O 0.35912 0.99915 0.0461 0.0
N89 N 0.44268 0.04761 0.06112 0.0
C90 C 0.45308 0.03917 0.05247 0.0
C91 C 0.46764 0.03949 0.06948 0.0
C92 C 0.47141 0.04853 0.09516 0.0
C93 C 0.46047 0.05703 0.10369 0.0
C94 C 0.44623 0.05638 0.08578 0.0
H95 H 0.45018 0.0321 0.03283 0.0
O96 O 0.39147 0.99316 0.04775 0.0
O97 O 0.40245 0.02477 0.05121 0.0
O98 O 0.40359 0.01283 -0.00377 0.0
O99 O 0.42896 0.0419 0.00743 0.0
C100 C 0.46274 0.06561 0.12957 0.0
C101 C 0.45045 0.07289 0.13736 0.0
H102 H 0.42302 0.08372 0.14602 0.0
H103 H 0.39722 0.07917 0.11266 0.0
H104 H 0.47589 0.03272 0.06286 0.0
H105 H 0.48253 0.04859 0.10834 0.0
H106 H 0.4736 0.06627 0.14388 0.0
H107 H 0.45205 0.07905 0.15754 0.0
Mn108 Mn 0.00958 0.64389 0.98712 0.0
Mn109 Mn 0.04964 0.63954 0.97879 0.0
C110 C 0.00934 0.62154 0.95601 0.0
C111 C 0.98944 0.65707 0.97786 0.0
C112 C 0.0232 0.62307 0.02683 0.0
O113 O 0.03135 0.66959 0.00338 0.0
O114 O 0.0569 0.6656 0.99365 0.0
C115 C 0.06782 0.66861 0.93515 0.0
N116 N 0.06152 0.65035 0.94491 0.0
C117 C 0.07234 0.64108 0.90507 0.0
C118 C 0.07952 0.65999 0.89501 0.0
C119 C 0.07708 0.67376 0.91001 0.0
C120 C 0.06334 0.63684 0.93034 0.0
H121 H 0.06554 0.67906 0.94629 0.0
C122 C 0.04962 0.67585 0.0024 0.0
O123 O 0.98922 0.64911 0.00097 0.0
O124 O 1.002 0.65815 0.96029 0.0
N125 N 0.04483 0.61511 0.96388 0.0
C126 C 0.03517 0.59702 0.97497 0.0
C127 C 0.03507 0.58124 0.96164 0.0
C128 C 0.04498 0.58423 0.93716 0.0
C129 C 0.05477 0.60295 0.9261 0.0
C130 C 0.05453 0.61816 0.94043 0.0
H131 H 0.02765 0.59465 0.99387 0.0
O132 O 0.99319 0.61907 0.96584 0.0
O133 O 0.02499 0.63677 0.96474 0.0
O134 O 0.01118 0.62838 0.019 0.0
O135 O 0.03863 0.62728 0.01408 0.0
C136 C 0.06438 0.60704 0.90113 0.0
C137 C 0.07312 0.62608 0.89058 0.0
H138 H 0.08651 0.66397 0.87551 0.0
H139 H 0.0822 0.68826 0.90211 0.0
H140 H 0.02739 0.5668 0.97022 0.0
H141 H 0.04479 0.572 0.92686 0.0
H142 H 0.06474 0.59555 0.88955 0.0
H143 H 0.08001 0.62893 0.87101 0.0
Mn144 Mn 0.37746 0.37502 0.00563 0.0
Mn145 Mn 0.41381 0.36799 0.02988 0.0
C146 C 0.39827 0.39512 0.03986 0.0
C147 C 0.34524 0.36834 0.00686 0.0
C148 C 0.41489 0.38668 0.97536 0.0
O149 O 0.36974 0.34741 0.99241 0.0
O150 O 0.39296 0.34333 0.01382 0.0
C151 C 0.39357 0.34055 0.0745 0.0
N152 N 0.40874 0.35748 0.0657 0.0
C153 C 0.42407 0.36446 0.11006 0.0
C154 C 0.40874 0.34695 0.1195 0.0
C155 C 0.39336 0.335 0.10167 0.0
C156 C 0.42351 0.36919 0.08274 0.0
H157 H 0.38169 0.33143 0.0609 0.0
C158 C 0.37738 0.33701 -0.00057 0.0
O159 O 0.35528 0.37468 0.98494 0.0
O160 O 0.35361 0.36527 0.02766 0.0
N161 N 0.43494 0.39062 0.04642 0.0
C162 C 0.44756 0.40788 0.03482 0.0
C163 C 0.46325 0.42199 0.05032 0.0
C164 C 0.46589 0.41815 0.07749 0.0
C165 C 0.45272 0.4003 0.08899 0.0
C166 C 0.43741 0.38676 0.07251 0.0
H167 H 0.44568 0.41086 0.0139 0.0
O168 O 0.38843 0.40091 0.02495 0.0
O169 O 0.39561 0.37787 0.03433 0.0
O170 O 0.39889 0.38675 0.97738 0.0
O171 O 0.4211 0.37924 0.99323 0.0
C172 C 0.45392 0.39559 0.11632 0.0
C173 C 0.43959 0.3777 0.12686 0.0
H174 H 0.40846 0.34268 0.14048 0.0
H175 H 0.38137 0.32156 0.10888 0.0
H176 H 0.4733 0.43579 0.04136 0.0
H177 H 0.47796 0.4291 0.08942 0.0
H178 H 0.46556 0.40581 0.12957 0.0
H179 H 0.44042 0.37444 0.14807 0.0
Mn180 Mn 0.63819 0.00483 0.01172 0.0
Mn181 Mn 0.59701 0.96182 0.00031 0.0
C182 C 0.61611 1.00217 0.97838 0.0
C183 C 0.67069 0.02791 0.00529 0.0
C184 C 0.60227 0.98858 0.04738 0.0
O185 O 0.64474 0.98505 0.02872 0.0
O186 O 0.61655 0.95739 0.01983 0.0
C187 C 0.61243 0.9439 0.96225 0.0
N188 N 0.59932 0.94976 0.96796 0.0
C189 C 0.58281 0.93752 0.92492 0.0
C190 C 0.59607 0.93127 0.91865 0.0
C191 C 0.61098 0.93453 0.93737 0.0
C192 C 0.58495 0.94674 0.95006 0.0
H193 H 0.62391 0.94636 0.97656 0.0
C194 C 0.63398 0.96651 0.02923 0.0
O195 O 0.66185 0.02733 0.02744 0.0
O196 O 0.6609 0.01443 0.98716 0.0
N197 N 0.5769 0.9638 0.98098 0.0
C198 C 0.56606 0.97181 0.98939 0.0
C199 C 0.5508 0.97024 0.97269 0.0
C200 C 0.5468 0.96039 0.9476 0.0
C201 C 0.55811 0.95221 0.93942 0.0
C202 C 0.573 0.95407 0.95704 0.0
H203 H 0.56902 0.97934 0.0087 0.0
O204 O 0.62788 0.01902 0.98926 0.0
O205 O 0.6174 0.98738 0.98748 0.0
O206 O 0.6195 1.00139 0.04181 0.0
O207 O 0.59256 0.97292 0.03361 0.0
C208 C 0.55541 0.94261 0.91425 0.0
C209 C 0.56778 0.93531 0.90698 0.0
H210 H 0.59505 0.9241 0.89943 0.0
H211 H 0.62132 0.92982 0.93262 0.0
H212 H 0.54216 0.97662 0.97913 0.0
H213 H 0.5351 0.95931 0.93468 0.0
H214 H 0.54408 0.94106 0.90015 0.0
H215 H 0.56577 0.92824 0.88739 0.0
Mn216 Mn 0.66523 0.71233 0.34195 0.0
Mn217 Mn 0.70704 0.75475 0.33343 0.0
C218 C 0.6665 0.73504 0.31117 0.0
C219 C 0.64334 0.6794 0.33379 0.0
C220 C 0.68023 0.74788 0.37995 0.0
O221 O 0.68552 0.70638 0.35831 0.0
O222 O 0.71228 0.73548 0.35228 0.0
C223 C 0.72589 0.74052 0.29528 0.0
N224 N 0.71923 0.75302 0.30121 0.0
C225 C 0.73285 0.77128 0.26054 0.0
C226 C 0.73989 0.75863 0.25401 0.0
C227 C 0.73623 0.74307 0.27133 0.0
C228 C 0.72215 0.76767 0.28426 0.0
H229 H 0.72349 0.72879 0.30881 0.0
C230 C 0.7038 0.71779 0.36031 0.0
O231 O 0.64378 0.68793 0.35647 0.0
O232 O 0.65612 0.68989 0.31585 0.0
N233 N 0.70468 0.77494 0.31516 0.0
C234 C 0.69735 0.78617 0.3247 0.0
C235 C 0.6992 0.80195 0.30923 0.0
C236 C 0.70913 0.80643 0.28461 0.0
C237 C 0.71717 0.79512 0.27571 0.0
C238 C 0.71446 0.77928 0.29164 0.0
H239 H 0.69005 0.78306 0.34389 0.0
O240 O 0.65007 0.72217 0.32112 0.0
O241 O 0.68179 0.73412 0.31898 0.0
O242 O 0.66823 0.73032 0.37352 0.0
O243 O 0.69553 0.75845 0.36666 0.0
C244 C 0.72822 0.79926 0.25204 0.0
C245 C 0.73619 0.78744 0.24459 0.0
H246 H 0.74813 0.76074 0.23576 0.0
H247 H 0.74162 0.73324 0.26644 0.0
H248 H 0.69316 0.81076 0.31642 0.0
H249 H 0.71073 0.81876 0.27289 0.0
H250 H 0.73069 0.81151 0.23942 0.0
H251 H 0.74459 0.79073 0.22627 0.0
Mn252 Mn 0.30237 0.96384 0.35878 0.0
Mn253 Mn 0.2971 0.92229 0.3869 0.0
C254 C 0.27635 0.94526 0.38658 0.0
C255 C 0.31407 0.99748 0.35875 0.0
C256 C 0.28542 0.92452 0.32879 0.0
O257 O 0.32931 0.96669 0.35368 0.0
O258 O 0.3236 0.93865 0.37324 0.0
C259 C 0.32412 0.94005 0.43382 0.0
N260 N 0.30611 0.92726 0.42383 0.0
C261 C 0.2959 0.91252 0.46761 0.0
C262 C 0.31433 0.92554 0.47843 0.0
C263 C 0.32843 0.93952 0.46151 0.0
C264 C 0.29221 0.91429 0.44014 0.0
H265 H 0.33518 0.9504 0.4207 0.0
C266 C 0.33477 0.95461 0.36126 0.0
O267 O 0.30885 0.98731 0.33641 0.0
O268 O 0.31344 0.98831 0.38098 0.0
N269 N 0.27234 0.90453 0.40135 0.0
C270 C 0.25562 0.89232 0.38751 0.0
C271 C 0.23982 0.87792 0.40167 0.0
C272 C 0.24166 0.87559 0.42966 0.0
C273 C 0.25932 0.88765 0.44321 0.0
C274 C 0.27432 0.90223 0.42824 0.0
H275 H 0.25432 0.89362 0.36582 0.0
O276 O 0.27572 0.95747 0.36954 0.0
O277 O 0.29243 0.94458 0.38776 0.0
O278 O 0.29082 0.94267 0.32918 0.0
O279 O 0.28713 0.91549 0.34925 0.0
C280 C 0.26286 0.88526 0.47072 0.0
C281 C 0.28119 0.89761 0.48287 0.0
H282 H 0.31784 0.92487 0.49963 0.0
H283 H 0.3427 0.94958 0.46968 0.0
H284 H 0.22637 0.86842 0.39094 0.0
H285 H 0.22957 0.86422 0.44042 0.0
H286 H 0.2516 0.87397 0.48273 0.0
H287 H 0.28371 0.8957 0.50407 0.0
Mn288 Mn 0.03911 0.33185 0.32721 0.0
Mn289 Mn 0.08336 0.37009 0.34353 0.0
C290 C 0.05705 0.33033 0.3641 0.0
C291 C 1.00534 0.31269 0.33029 0.0
C292 C 0.07656 0.34248 0.29684 0.0
O293 O 0.03841 0.35468 0.30753 0.0
O294 O 0.06817 0.37838 0.32072 0.0
C295 C 0.07057 0.39233 0.37786 0.0
N296 N 0.08157 0.38361 0.37458 0.0
C297 C 0.09647 0.39442 0.41886 0.0
C298 C 0.08536 0.40358 0.42269 0.0
C299 C 0.0723 0.40246 0.40214 0.0
C300 C 0.09408 0.38449 0.39428 0.0
H301 H 0.06058 0.39157 0.36207 0.0
C302 C 0.052 0.37252 0.30804 0.0
O303 O 0.01463 0.31184 0.3094 0.0
O304 O 0.01549 0.32582 0.34866 0.0
N305 N 0.09972 0.36425 0.366 0.0
C306 C 0.10866 0.35384 0.35959 0.0
C307 C 0.12205 0.35328 0.37809 0.0
C308 C 0.12613 0.36343 0.40296 0.0
C309 C 0.11685 0.37414 0.40902 0.0
C310 C 0.10384 0.37438 0.38962 0.0
H311 H 0.10569 0.34613 0.34043 0.0
O312 O 0.04401 0.31447 0.3522 0.0
O313 O 0.05944 0.34654 0.35399 0.0
O314 O 0.0584 0.3318 0.30008 0.0
O315 O 0.08726 0.35732 0.31168 0.0
C316 C 0.11982 0.3844 0.43367 0.0
C317 C 0.10958 0.39447 0.43864 0.0
H318 H 0.08663 0.41139 0.4414 0.0
H319 H 0.06362 0.40943 0.40499 0.0
H320 H 0.12923 0.34506 0.37318 0.0
H321 H 0.13634 0.36281 0.4173 0.0
H322 H 0.12972 0.38439 0.44912 0.0
H323 H 0.11174 0.40203 0.45785 0.0
Mn324 Mn 0.68074 0.96992 0.3205 0.0
Mn325 Mn 0.72577 0.97982 0.30233 0.0
C326 C 0.68444 0.95225 0.28577 0.0
C327 C 0.6541 0.97506 0.3186 0.0
C328 C 0.70596 0.95708 0.3526 0.0
O329 O 0.69825 0.99689 0.33712 0.0
O330 O 0.72715 1.00256 0.32159 0.0
C331 C 0.73414 0.01086 0.26222 0.0
N332 N 0.7327 0.9934 0.26864 0.0
C333 C 0.74377 0.99059 0.22452 0.0
C334 C 0.74547 0.00859 0.21747 0.0
C335 C 0.74056 0.01873 0.23637 0.0
C336 C 0.73732 0.9835 0.25058 0.0
H337 H 0.73044 0.01871 0.27673 0.0
C338 C 0.71651 0.00782 0.3343 0.0
O339 O 0.65773 0.96735 0.33957 0.0
O340 O 0.66619 0.98023 0.29871 0.0
N341 N 0.72689 0.95926 0.2833 0.0
C342 C 0.72316 0.9415 0.29266 0.0
C343 C 0.72673 0.92924 0.27594 0.0
C344 C 0.7342 0.9354 0.24988 0.0
C345 C 0.73811 0.95382 0.24081 0.0
C346 C 0.73441 0.96547 0.25846 0.0
H347 H 0.71751 0.93672 0.31271 0.0
O348 O 0.6682 0.94522 0.29856 0.0
O349 O 0.69801 0.96954 0.29332 0.0
O350 O 0.69013 0.95729 0.3488 0.0
O351 O 0.72035 0.96554 0.33689 0.0
C352 C 0.74508 0.96088 0.2147 0.0
C353 C 0.74786 0.97924 0.20654 0.0
H354 H 0.75035 0.01469 0.19752 0.0
H355 H 0.74176 0.0326 0.23103 0.0
H356 H 0.72374 0.91508 0.28316 0.0
H357 H 0.73671 0.9258 0.23693 0.0
H358 H 0.74798 0.95216 0.20056 0.0
H359 H 0.75289 0.98435 0.18626 0.0
Mn360 Mn 0.04033 0.71259 0.33344 0.0
Mn361 Mn 0.07687 0.70602 0.35776 0.0
C362 C 0.06337 0.7352 0.36309 0.0
C363 C 0.00867 0.70722 0.33608 0.0
C364 C 0.0773 0.72261 0.30215 0.0
O365 O 0.03079 0.684 0.32453 0.0
O366 O 0.05598 0.68144 0.34133 0.0
C367 C 0.05563 0.67862 0.40191 0.0
N368 N 0.07091 0.69567 0.3936 0.0
C369 C 0.08617 0.70173 0.43789 0.0
C370 C 0.0706 0.68423 0.44696 0.0
C371 C 0.05517 0.67272 0.42896 0.0
C372 C 0.0855 0.70716 0.41098 0.0
H373 H 0.04398 0.6695 0.38795 0.0
C374 C 0.03936 0.67421 0.32943 0.0
O375 O 0.01767 0.71149 0.31316 0.0
O376 O 0.0178 0.70564 0.35718 0.0
N377 N 0.09839 0.7282 0.37446 0.0
C378 C 0.11253 0.74444 0.36238 0.0
C379 C 0.12866 0.75787 0.37789 0.0
C380 C 0.13048 0.75408 0.40536 0.0
C381 C 0.11613 0.7369 0.41706 0.0
C382 C 0.10008 0.72437 0.40084 0.0
H383 H 0.11147 0.74719 0.34109 0.0
O384 O 0.05288 0.73985 0.34764 0.0
O385 O 0.05968 0.7172 0.36157 0.0
O386 O 0.0606 0.72134 0.30323 0.0
O387 O 0.0845 0.71711 0.32132 0.0
C388 C 0.11739 0.73146 0.44397 0.0
C389 C 0.10243 0.71386 0.45437 0.0
H390 H 0.07038 0.67947 0.46768 0.0
H391 H 0.04312 0.65919 0.43579 0.0
H392 H 0.1398 0.77097 0.36859 0.0
H393 H 0.1431 0.76432 0.41715 0.0
H394 H 0.12973 0.74076 0.45693 0.0
H395 H 0.10347 0.70993 0.47518 0.0
Mn396 Mn 0.30709 0.34454 0.32686 0.0
Mn397 Mn 0.26746 0.30038 0.31453 0.0
C398 C 0.28601 0.3403 0.29097 0.0
C399 C 0.33959 0.36851 0.32306 0.0
C400 C 0.26975 0.32745 0.35953 0.0
O401 O 0.3139 0.32585 0.34689 0.0
O402 O 0.28694 0.29741 0.33656 0.0
C403 C 0.28544 0.28314 0.27992 0.0
N404 N 0.27151 0.28821 0.28368 0.0
C405 C 0.25642 0.27435 0.24037 0.0
C406 C 0.27055 0.2689 0.2361 0.0
C407 C 0.28515 0.27337 0.25593 0.0
C408 C 0.25744 0.28405 0.26469 0.0
H409 H 0.29666 0.2865 0.29513 0.0
C410 C 0.30382 0.30725 0.34759 0.0
O411 O 0.32937 0.36779 0.34369 0.0
O412 O 0.33115 0.35476 0.30481 0.0
N413 N 0.24741 0.30089 0.29295 0.0
C414 C 0.23552 0.30811 0.29954 0.0
C415 C 0.22034 0.3052 0.28162 0.0
C416 C 0.21748 0.29485 0.25718 0.0
C417 C 0.22982 0.28746 0.25091 0.0
C418 C 0.24457 0.29063 0.26971 0.0
H419 H 0.23757 0.316 0.31835 0.0
O420 O 0.29691 0.35749 0.30155 0.0
O421 O 0.28763 0.3261 0.30169 0.0
O422 O 0.28687 0.34079 0.35459 0.0
O423 O 0.26117 0.31144 0.34626 0.0
C424 C 0.22826 0.27736 0.22656 0.0
C425 C 0.24159 0.27086 0.22126 0.0
H426 H 0.27042 0.26141 0.21759 0.0
H427 H 0.29615 0.26927 0.25273 0.0
H428 H 0.21086 0.31093 0.28663 0.0
H429 H 0.20585 0.29278 0.24329 0.0
H430 H 0.21705 0.27479 0.21157 0.0
H431 H 0.24043 0.26339 0.20227 0.0
Mn432 Mn 0.33665 0.03413 0.65786 0.0
Mn433 Mn 0.37709 0.07699 0.64515 0.0
C434 C 0.33648 0.05405 0.62311 0.0
C435 C 0.3168 1.00056 0.65273 0.0
C436 C 0.35102 0.07069 0.69287 0.0
O437 O 0.35832 0.03121 0.67722 0.0
O438 O 0.38417 0.05879 0.66276 0.0
C439 C 0.39482 0.06347 0.60404 0.0
N440 N 0.3886 0.076 0.61183 0.0
C441 C 0.39969 0.09413 0.57041 0.0
C442 C 0.40663 0.0817 0.56223 0.0
C443 C 0.40403 0.0662 0.57902 0.0
C444 C 0.39066 0.0907 0.59559 0.0
H445 H 0.39258 0.0514 0.61672 0.0
C446 C 0.37663 0.04233 0.67476 0.0
O447 O 0.31591 0.00982 0.67388 0.0
O448 O 0.32967 0.01062 0.63471 0.0
N449 N 0.3725 0.09604 0.62764 0.0
C450 C 0.36332 0.10548 0.63732 0.0
C451 C 0.36363 0.12076 0.6223 0.0
C452 C 0.37343 0.12625 0.59756 0.0
C453 C 0.38282 0.11638 0.58805 0.0
C454 C 0.38218 0.10138 0.60403 0.0
H455 H 0.35591 0.10145 0.65643 0.0
O456 O 0.32032 0.0411 0.6336 0.0
O457 O 0.35216 0.05484 0.63296 0.0
O458 O 0.33818 0.05341 0.68651 0.0
O459 O 0.36661 0.08033 0.67969 0.0
C460 C 0.39246 0.12056 0.56308 0.0
C461 C 0.40083 0.1094 0.55422 0.0
H462 H 0.41365 0.08369 0.54287 0.0
H463 H 0.40907 0.05635 0.57265 0.0
H464 H 0.35635 0.12831 0.62979 0.0
H465 H 0.3735 0.13795 0.58592 0.0
H466 H 0.39314 0.13204 0.55025 0.0
H467 H 0.40777 0.11243 0.53468 0.0
Mn468 Mn 0.97032 0.29742 0.68554 0.0
Mn469 Mn 0.96412 0.25233 0.69767 0.0
C470 C 0.94827 0.27715 0.71743 0.0
C471 C 0.98316 0.33102 0.69127 0.0
C472 C 0.94801 0.26203 0.64784 0.0
O473 O 0.99565 0.29967 0.67132 0.0
O474 O 0.98951 0.26925 0.68139 0.0
C475 C 0.9949 0.26273 0.73987 0.0
N476 N 0.97602 0.25191 0.73161 0.0
C477 C 0.96779 0.23352 0.77303 0.0
C478 C 0.98718 0.24435 0.78187 0.0
C479 C 1.00077 0.25909 0.76527 0.0
C480 C 0.96279 0.23782 0.74753 0.0
H481 H 1.0054 0.27407 0.72719 0.0
C482 C 1.00059 0.28645 0.67258 0.0
O483 O 0.97536 0.32214 0.66859 0.0
O484 O 0.98473 0.32055 0.71061 0.0
N485 N 0.94018 0.23449 0.71413 0.0
C486 C 0.92183 0.22645 0.70354 0.0
C487 C 0.90638 0.2119 0.71804 0.0
C488 C 0.90998 0.20569 0.74318 0.0
C489 C 0.92898 0.21419 0.75367 0.0
C490 C 0.94381 0.22853 0.73821 0.0
H491 H 0.919 0.23105 0.68412 0.0
O492 O 0.94586 0.29057 0.70565 0.0
O493 O 0.96304 0.27564 0.70981 0.0
O494 O 0.95471 0.27979 0.65419 0.0
O495 O 0.95085 0.25026 0.66234 0.0
C496 C 0.93375 0.20924 0.77907 0.0
C497 C 0.95313 0.21894 0.78878 0.0
H498 H 0.99176 0.24163 0.80149 0.0
H499 H 0.01574 0.2676 0.77203 0.0
H500 H 0.89174 0.20544 0.70985 0.0
H501 H 0.89802 0.19451 0.75437 0.0
H502 H 0.92257 0.19825 0.79152 0.0
H503 H 0.95655 0.21528 0.80858 0.0
Mn504 Mn 0.70798 0.67208 0.67517 0.0
Mn505 Mn 0.74941 0.71506 0.68481 0.0
C506 C 0.73062 0.67486 0.70781 0.0
C507 C 0.67543 0.65011 0.68377 0.0
C508 C 0.74283 0.68779 0.63755 0.0
O509 O 0.70157 0.69185 0.65771 0.0
O510 O 0.7294 0.71971 0.66699 0.0
C511 C 0.73587 0.73369 0.72458 0.0
N512 N 0.74845 0.72739 0.71771 0.0
C513 C 0.76632 0.73941 0.75991 0.0
C514 C 0.75361 0.74611 0.76737 0.0
C515 C 0.7383 0.74319 0.74965 0.0
C516 C 0.76327 0.73017 0.73457 0.0
H517 H 0.72408 0.73147 0.71104 0.0
C518 C 0.71196 0.71044 0.65755 0.0
O519 O 0.68328 0.64968 0.66107 0.0
O520 O 0.68625 0.66374 0.70112 0.0
N521 N 0.76986 0.71267 0.70245 0.0
C522 C 0.77976 0.70384 0.69326 0.0
C523 C 0.79499 0.7046 0.70919 0.0
C524 C 0.79997 0.71453 0.73428 0.0
C525 C 0.78961 0.72355 0.74327 0.0
C526 C 0.77463 0.72239 0.72647 0.0
H527 H 0.77598 0.69617 0.67401 0.0
O528 O 0.71833 0.65791 0.69762 0.0
O529 O 0.7294 0.68965 0.69846 0.0
O530 O 0.72599 0.67457 0.64427 0.0
O531 O 0.75253 0.70377 0.65069 0.0
C532 C 0.79322 0.73319 0.76858 0.0
C533 C 0.78159 0.74111 0.77689 0.0
H534 H 0.75534 0.75332 0.78677 0.0
H535 H 0.72838 0.74824 0.75532 0.0
H536 H 0.80284 0.6975 0.70219 0.0
H537 H 0.81163 0.71496 0.7466 0.0
H538 H 0.80468 0.73426 0.78204 0.0
H539 H 0.78429 0.74818 0.7966 0.0
Mn540 Mn 0.33674 0.30335 0.6545 0.0
Mn541 Mn 0.38072 0.30729 0.64434 0.0
C542 C 0.33959 0.28215 0.62497 0.0
C543 C 0.3121 0.31095 0.64717 0.0
C544 C 0.35591 0.28644 0.69217 0.0
O545 O 0.35524 0.33032 0.67011 0.0
O546 O 0.38342 0.33107 0.66236 0.0
C547 C 0.39477 0.33932 0.60444 0.0
N548 N 0.39087 0.32102 0.61128 0.0
C549 C 0.4051 0.31775 0.57025 0.0
C550 C 0.40928 0.33657 0.56275 0.0
C551 C 0.40394 0.34733 0.57982 0.0
C552 C 0.39539 0.31031 0.59461 0.0
H553 H 0.39104 0.34781 0.61773 0.0
C554 C 0.37371 0.3389 0.67105 0.0
O555 O 0.31419 0.3039 0.66991 0.0
O556 O 0.32488 0.31442 0.6286 0.0
N557 N 0.38123 0.28588 0.62688 0.0
C558 C 0.3769 0.26826 0.63754 0.0
C559 C 0.38103 0.25557 0.62275 0.0
C560 C 0.39037 0.26146 0.59774 0.0
C561 C 0.3955 0.28 0.58777 0.0
C562 C 0.39045 0.29178 0.60298 0.0
H563 H 0.37023 0.26384 0.65713 0.0
O564 O 0.32301 0.27783 0.63524 0.0
O565 O 0.35414 0.29933 0.63101 0.0
O566 O 0.34249 0.29026 0.68609 0.0
O567 O 0.37126 0.29241 0.67837 0.0
C568 C 0.40589 0.28746 0.56369 0.0
C569 C 0.41049 0.30623 0.55477 0.0
H570 H 0.41667 0.34292 0.54401 0.0
H571 H 0.40714 0.36187 0.57421 0.0
H572 H 0.3773 0.2414 0.63081 0.0
H573 H 0.39381 0.25175 0.58659 0.0
H574 H 0.41019 0.27877 0.55167 0.0
H575 H 0.41822 0.31168 0.53599 0.0
Mn576 Mn 0.70403 0.05465 0.66968 0.0
Mn577 Mn 0.7452 0.05198 0.67819 0.0
C578 C 0.72612 0.07217 0.7044 0.0
C579 C 0.67119 0.04384 0.67744 0.0
C580 C 0.73949 0.07526 0.63344 0.0
O581 O 0.6979 0.02967 0.64875 0.0
O582 O 0.72525 0.02856 0.65853 0.0
C583 C 0.73103 0.01801 0.71475 0.0
N584 N 0.74382 0.03703 0.7095 0.0
C585 C 0.7617 0.0403 0.75104 0.0
C586 C 0.74878 0.02071 0.75683 0.0
C587 C 0.73335 0.00954 0.73864 0.0
C588 C 0.75872 0.04791 0.72686 0.0
H589 H 0.71916 0.00936 0.70084 0.0
C590 C 0.70811 0.02116 0.64817 0.0
O591 O 0.6798 0.05385 0.65613 0.0
O592 O 0.68152 0.03958 0.69394 0.0
N593 N 0.76558 0.07361 0.69757 0.0
C594 C 0.77575 0.09265 0.6901 0.0
C595 C 0.79121 0.10599 0.70671 0.0
C596 C 0.79613 0.0996 0.73068 0.0
C597 C 0.78545 0.07994 0.73793 0.0
C598 C 0.77027 0.06729 0.72051 0.0
H599 H 0.77209 0.09763 0.67165 0.0
O600 O 0.71404 0.07758 0.69532 0.0
O601 O 0.72499 0.05682 0.69289 0.0
O602 O 0.7227 0.07177 0.64044 0.0
O603 O 0.74881 0.06804 0.64562 0.0
C604 C 0.78901 0.07249 0.76207 0.0
C605 C 0.77713 0.05268 0.76863 0.0
H606 H 0.75044 0.01416 0.7753 0.0
H607 H 0.72327 0.99444 0.74302 0.0
H608 H 0.79932 0.12117 0.70106 0.0
H609 H 0.808 0.10994 0.7435 0.0
H610 H 0.80061 0.08194 0.77598 0.0
H611 H 0.77979 0.04721 0.78748 0.0
Mn612 Mn 0.97074 0.67112 0.65609 0.0
Mn613 Mn 0.92612 0.63461 0.63725 0.0
C614 C 0.95151 0.67703 0.62598 0.0
C615 C 1.00437 0.69013 0.65218 0.0
C616 C 0.93417 0.65715 0.6899 0.0
O617 O 0.97185 0.64675 0.66794 0.0
O618 O 0.94199 0.62411 0.65377 0.0
C619 C 0.93855 0.61734 0.59394 0.0
N620 N 0.92753 0.62521 0.60207 0.0
C621 C 0.9106 0.61777 0.55892 0.0
C622 C 0.92171 0.60952 0.55009 0.0
C623 C 0.93589 0.60949 0.56759 0.0
C624 C 0.91438 0.62599 0.58505 0.0
H625 H 0.94919 0.61692 0.6075 0.0
C626 C 0.95859 0.62902 0.6645 0.0
O627 O 0.99579 0.68868 0.67493 0.0
O628 O 0.99351 0.67956 0.63194 0.0
N629 N 0.90867 0.6419 0.62053 0.0
C630 C 0.89837 0.64938 0.63262 0.0
C631 C 0.88391 0.65084 0.61762 0.0
C632 C 0.87959 0.64383 0.59075 0.0
C633 C 0.88968 0.63529 0.57919 0.0
C634 C 0.90432 0.63473 0.59486 0.0
H635 H 0.90121 0.6543 0.65352 0.0
O636 O 0.96558 0.6912 0.63947 0.0
O637 O 0.94938 0.65973 0.62953 0.0
O638 O 0.95231 0.66786 0.68653 0.0
O639 O 0.92298 0.64373 0.67326 0.0
C640 C 0.88529 0.62668 0.5531 0.0
C641 C 0.89572 0.61788 0.543 0.0
H642 H 0.91943 0.60312 0.52996 0.0
H643 H 0.94453 0.60316 0.56093 0.0
H644 H 0.87593 0.65711 0.62689 0.0
H645 H 0.86824 0.64473 0.57937 0.0
H646 H 0.87394 0.62675 0.54061 0.0
H647 H 0.8923 0.61142 0.52283 0.0
H648 H 0.15799 0.32097 0.13793 0.0
H649 H 0.15132 0.34011 0.05819 0.0
H650 H 0.12194 0.34675 0.12644 0.0
H651 H 0.16267 0.30691 0.09145 0.0
H652 H 0.16713 0.32142 0.062 0.0
H653 H 0.18604 0.32191 0.13342 0.0
H654 H 0.24482 0.35069 0.10903 0.0
H655 H 0.20009 0.34283 0.05122 0.0
C656 C 0.1527 0.32833 0.12472 0.0
C657 C 0.14037 0.33458 0.13544 0.0
C658 C 0.15746 0.33096 0.09691 0.0
C659 C 0.14868 0.33895 0.07983 0.0
C660 C 0.13537 0.3441 0.09028 0.0
C661 C 0.13192 0.34249 0.11817 0.0
C662 C 0.16898 0.32224 0.08452 0.0
C663 C 0.19048 0.3327 0.09209 0.0
C664 C 0.19654 0.33038 0.11828 0.0
C665 C 0.21617 0.33729 0.12425 0.0
C666 C 0.22987 0.34659 0.10422 0.0
C667 C 0.22446 0.34865 0.07769 0.0
C668 C 0.20462 0.34186 0.07179 0.0
H669 H 0.68232 0.82356 0.14172 0.0
H670 H 0.67845 0.80702 0.05748 0.0
H671 H 0.65854 0.76352 0.11987 0.0
H672 H 0.70638 0.84548 0.10102 0.0
H673 H 0.69453 0.84056 0.0687 0.0
H674 H 0.69543 0.85754 0.13982 0.0
H675 H 0.66193 0.88485 0.11873 0.0
H676 H 0.67081 0.85059 0.05898 0.0
C677 C 0.67748 0.81239 0.12614 0.0
C678 C 0.66946 0.79283 0.13384 0.0
C679 C 0.68056 0.81767 0.0986 0.0
C680 C 0.67557 0.80299 0.07864 0.0
C681 C 0.66759 0.78327 0.08603 0.0
C682 C 0.66432 0.7785 0.11367 0.0
C683 C 0.69184 0.839 0.09092 0.0
C684 C 0.68222 0.85065 0.09938 0.0
C685 C 0.68577 0.85921 0.1256 0.0
C686 C 0.67828 0.87143 0.13251 0.0
C687 C 0.6668 0.87457 0.11362 0.0
C688 C 0.66468 0.86783 0.08686 0.0
C689 C 0.67199 0.85544 0.07989 0.0
H690 H 0.17623 0.81525 0.15324 0.0
H691 H 0.16294 0.81633 0.0685 0.0
H692 H 0.11883 0.77792 0.12321 0.0
H693 H 0.19978 0.81994 0.1131 0.0
H694 H 0.19514 0.82752 0.08141 0.0
H695 H 0.20342 0.84216 0.15586 0.0
H696 H 0.24864 0.89926 0.13724 0.0
H697 H 0.21241 0.86103 0.07286 0.0
C698 C 0.16579 0.81114 0.13673 0.0
C699 C 0.14634 0.79735 0.1416 0.0
C700 C 0.17196 0.81825 0.11039 0.0
C701 C 0.15815 0.81131 0.08889 0.0
C702 C 0.13897 0.79625 0.09295 0.0
C703 C 0.13315 0.79005 0.11963 0.0
C704 C 0.19341 0.82839 0.10367 0.0
C705 C 0.20568 0.84938 0.11334 0.0
C706 C 0.21051 0.85347 0.14107 0.0
C707 C 0.22558 0.87167 0.14983 0.0
C708 C 0.23598 0.88594 0.13047 0.0
C709 C 0.23149 0.88247 0.10253 0.0
C710 C 0.21589 0.86421 0.09428 0.0
H711 H 0.37286 0.2005 0.83851 0.0
H712 H 0.3754 0.21272 0.92417 0.0
H713 H 0.34345 0.22933 0.86895 0.0
H714 H 0.39746 0.19904 0.87182 0.0
H715 H 0.39322 0.19797 0.90743 0.0
H716 H 0.36865 0.17124 0.84125 0.0
H717 H 0.34852 0.11514 0.87613 0.0
H718 H 0.38034 0.16644 0.92598 0.0
C719 C 0.36803 0.20531 0.85577 0.0
C720 C 0.3567 0.21415 0.8511 0.0
C721 C 0.37355 0.2033 0.88241 0.0
C722 C 0.36959 0.21255 0.90402 0.0
C723 C 0.35951 0.22286 0.89907 0.0
C724 C 0.35189 0.22214 0.87291 0.0
C725 C 0.38584 0.19365 0.88715 0.0
C726 C 0.37433 0.17157 0.8846 0.0
C727 C 0.36664 0.16261 0.85915 0.0
C728 C 0.3569 0.1423 0.8563 0.0
C729 C 0.35552 0.13083 0.87868 0.0
C730 C 0.36451 0.13936 0.90359 0.0
C731 C 0.37329 0.15973 0.9068 0.0
H732 H 0.85464 0.17904 0.86667 0.0
H733 H 0.85468 0.19787 0.94887 0.0
H734 H 0.8881 0.23911 0.88739 0.0
H735 H 0.84718 0.15703 0.90808 0.0
H736 H 0.8416 0.16417 0.93938 0.0
H737 H 0.82462 0.15348 0.86528 0.0
H738 H 0.7651 0.1203 0.88661 0.0
H739 H 0.80867 0.14779 0.94942 0.0
C740 C 0.85797 0.19058 0.88125 0.0
C741 C 0.87068 0.20981 0.87388 0.0
C742 C 0.85133 0.18614 0.9081 0.0
C743 C 0.85854 0.20133 0.92778 0.0
C744 C 0.872 0.22066 0.92066 0.0
C745 C 0.87702 0.22467 0.89329 0.0
C746 C 0.84025 0.16502 0.91694 0.0
C747 C 0.819 0.15432 0.90816 0.0
C748 C 0.81367 0.1493 0.88053 0.0
C749 C 0.79421 0.13702 0.8729 0.0
C750 C 0.78005 0.13009 0.89276 0.0
C751 C 0.78515 0.13286 0.92042 0.0
C752 C 0.80455 0.14575 0.92806 0.0
H753 H 0.83982 0.64995 0.8399 0.0
H754 H 0.85622 0.6481 0.92324 0.0
H755 H 0.89962 0.68084 0.86433 0.0
H756 H 0.81777 0.62447 0.87294 0.0
H757 H 0.82352 0.62741 0.90836 0.0
H758 H 0.81512 0.65478 0.85023 0.0
H759 H 0.77247 0.66068 0.8945 0.0
H760 H 0.80508 0.63709 0.93397 0.0
C761 C 0.85071 0.65517 0.85603 0.0
C762 C 0.87023 0.66677 0.84939 0.0
C763 C 0.84539 0.64945 0.88309 0.0
C764 C 0.86012 0.65404 0.90302 0.0
C765 C 0.87983 0.66472 0.89609 0.0
C766 C 0.88451 0.67221 0.86976 0.0
C767 C 0.82435 0.63556 0.8895 0.0
C768 C 0.81207 0.64537 0.89209 0.0
C769 C 0.80809 0.65373 0.86923 0.0
C770 C 0.79443 0.66011 0.87049 0.0
C771 C 0.78426 0.65746 0.89456 0.0
C772 C 0.78793 0.64935 0.91776 0.0
C773 C 0.80219 0.64364 0.91644 0.0
H774 H 0.82821 0.67188 0.48056 0.0
H775 H 0.81929 0.68426 0.39787 0.0
H776 H 0.79237 0.69726 0.46343 0.0
H777 H 0.83329 0.65533 0.43874 0.0
H778 H 0.83489 0.66557 0.40601 0.0
H779 H 0.85864 0.67854 0.47608 0.0
H780 H 0.91579 0.70522 0.44466 0.0
H781 H 0.86671 0.68432 0.38958 0.0
C782 C 0.82288 0.67855 0.46612 0.0
C783 C 0.81093 0.68576 0.47536 0.0
C784 C 0.82696 0.67893 0.43822 0.0
C785 C 0.81764 0.68535 0.41951 0.0
C786 C 0.80513 0.69194 0.42859 0.0
C787 C 0.8026 0.69289 0.4565 0.0
C788 C 0.83827 0.66936 0.42795 0.0
C789 C 0.8601 0.68149 0.43242 0.0
C790 C 0.86806 0.68431 0.45892 0.0
C791 C 0.88815 0.69295 0.46335 0.0
C792 C 0.90036 0.69904 0.44098 0.0
C793 C 0.89296 0.69579 0.4142 0.0
C794 C 0.87272 0.68724 0.41008 0.0
H795 H 0.34901 0.15968 0.47777 0.0
H796 H 0.33966 0.14444 0.39288 0.0
H797 H 0.31633 0.09996 0.45356 0.0
H798 H 0.36853 0.18259 0.43939 0.0
H799 H 0.35871 0.17777 0.40569 0.0
H800 H 0.34911 0.18821 0.47731 0.0
H801 H 0.32281 0.2214 0.44923 0.0
H802 H 0.34204 0.19432 0.3914 0.0
C803 C 0.34121 0.14899 0.46194 0.0
C804 C 0.33171 0.12921 0.46868 0.0
C805 C 0.3426 0.15478 0.43454 0.0
C806 C 0.33622 0.14026 0.41391 0.0
C807 C 0.32743 0.12043 0.42088 0.0
C808 C 0.32304 0.11524 0.4481 0.0
C809 C 0.35468 0.17619 0.42746 0.0
C810 C 0.34479 0.18801 0.43369 0.0
C811 C 0.34324 0.1929 0.46082 0.0
C812 C 0.3356 0.20523 0.46656 0.0
C813 C 0.32884 0.21199 0.44501 0.0
C814 C 0.33171 0.20873 0.41803 0.0
C815 C 0.33947 0.19654 0.41232 0.0
H816 H 0.83762 0.15631 0.48355 0.0
H817 H 0.82736 0.1413 0.39831 0.0
H818 H 0.77963 0.12464 0.45195 0.0
H819 H 0.86165 0.1515 0.45058 0.0
H820 H 0.85928 0.15483 0.41532 0.0
H821 H 0.86833 0.17906 0.48398 0.0
H822 H 0.90784 0.23503 0.45352 0.0
H823 H 0.8748 0.18728 0.39753 0.0
C824 C 0.82793 0.15067 0.46611 0.0
C825 C 0.80788 0.14163 0.47023 0.0
C826 C 0.83525 0.15144 0.4399 0.0
C827 C 0.82201 0.14198 0.41817 0.0
C828 C 0.80189 0.13217 0.42237 0.0
C829 C 0.79507 0.13278 0.44822 0.0
C830 C 0.85676 0.15897 0.43584 0.0
C831 C 0.86948 0.18079 0.44012 0.0
C832 C 0.87431 0.18846 0.46665 0.0
C833 C 0.88735 0.20821 0.4711 0.0
C834 C 0.89665 0.22024 0.44908 0.0
C835 C 0.89265 0.21308 0.42218 0.0
C836 C 0.87844 0.19328 0.41793 0.0
H837 H 0.02756 0.5346 0.17915 0.0
H838 H 0.02469 0.54127 0.26565 0.0
H839 H 1.00052 0.56593 0.20987 0.0
H840 H 0.04928 0.5299 0.21261 0.0
H841 H 0.04504 0.52935 0.24817 0.0
H842 H 0.0153 0.5022 0.18466 0.0
H843 H 1.00443 0.44701 0.21483 0.0
H844 H 0.03719 0.49839 0.26381 0.0
C845 C 0.02236 0.5392 0.19629 0.0
C846 C 0.01254 0.54965 0.19155 0.0
C847 C 0.02594 0.53517 0.22302 0.0
C848 C 0.02083 0.5431 0.24504 0.0
C849 C 0.01167 0.55426 0.24037 0.0
C850 C 0.00704 0.55683 0.21365 0.0
C851 C 0.03765 0.52494 0.2279 0.0
C852 C 0.02585 0.50285 0.22581 0.0
C853 C 0.01582 0.49368 0.2015 0.0
C854 C 0.00766 0.47349 0.19786 0.0
C855 C 0.00943 0.46232 0.21866 0.0
C856 C 0.02045 0.47117 0.24219 0.0
C857 C 0.02817 0.49139 0.246 0.0
H858 H 0.51913 0.52121 0.19238 0.0
H859 H 0.53118 0.53476 0.27754 0.0
H860 H 0.54705 0.58068 0.21986 0.0
H861 H 0.52131 0.49824 0.23047 0.0
H862 H 0.51535 0.50172 0.26389 0.0
H863 H 0.49717 0.4881 0.19213 0.0
H864 H 0.43763 0.45858 0.21468 0.0
H865 H 0.48197 0.4884 0.27574 0.0
C866 C 0.5238 0.53178 0.20876 0.0
C867 C 0.53349 0.55176 0.2027 0.0
C868 C 0.52174 0.52543 0.23594 0.0
C869 C 0.53078 0.53943 0.25694 0.0
C870 C 0.54078 0.5594 0.25089 0.0
C871 C 0.54019 0.56524 0.22421 0.0
C872 C 0.5132 0.50394 0.24204 0.0
C873 C 0.49189 0.49204 0.2342 0.0
C874 C 0.48629 0.48523 0.20717 0.0
C875 C 0.4667 0.47304 0.20029 0.0
C876 C 0.45274 0.46835 0.22012 0.0
C877 C 0.45812 0.47234 0.24756 0.0
C878 C 0.47766 0.48514 0.25452 0.0
H879 H 0.5056 0.9785 0.19884 0.0
H880 H 0.51899 0.97527 0.28329 0.0
H881 H 0.56397 0.99782 0.22362 0.0
H882 H 0.48119 0.95399 0.23144 0.0
H883 H 0.48631 0.9566 0.26695 0.0
H884 H 0.48259 0.98615 0.20772 0.0
H885 H 0.44045 0.99485 0.24869 0.0
H886 H 0.46951 0.96874 0.29122 0.0
C887 C 0.51605 0.98188 0.21526 0.0
C888 C 0.5357 0.99037 0.20916 0.0
C889 C 0.5099 0.97685 0.24218 0.0
C890 C 0.5238 0.97977 0.26275 0.0
C891 C 0.54353 0.98717 0.25647 0.0
C892 C 0.54919 0.99284 0.22959 0.0
C893 C 0.48842 0.96501 0.24794 0.0
C894 C 0.47792 0.97673 0.24962 0.0
C895 C 0.47531 0.98565 0.22627 0.0
C896 C 0.46245 0.99309 0.22636 0.0
C897 C 0.45179 0.991 0.24975 0.0
C898 C 0.45421 0.98251 0.27346 0.0
C899 C 0.46769 0.97573 0.27334 0.0
H900 H 0.48937 0.99367 0.83048 0.0
H901 H 0.47582 0.996 0.74578 0.0
H902 H 0.44945 0.01327 0.80745 0.0
H903 H 0.49043 0.97069 0.7903 0.0
H904 H 0.49356 0.98035 0.75704 0.0
H905 H 0.51505 0.98853 0.82728 0.0
H906 H 0.57317 0.02042 0.79951 0.0
H907 H 0.52567 1.00293 0.74247 0.0
C908 C 0.48209 0.99731 0.81467 0.0
C909 C 0.46926 1.00394 0.82206 0.0
C910 C 0.48469 0.9945 0.78706 0.0
C911 C 0.47431 0.99855 0.76701 0.0
C912 C 0.46129 0.00499 0.77423 0.0
C913 C 0.459 0.00773 0.80175 0.0
C914 C 0.49613 0.98458 0.77892 0.0
C915 C 0.51775 0.99655 0.7848 0.0
C916 C 0.52492 0.99666 0.81125 0.0
C917 C 0.54487 0.00529 0.81637 0.0
C918 C 0.55775 0.01427 0.7953 0.0
C919 C 0.55109 0.01265 0.76839 0.0
C920 C 0.53102 1.00453 0.76326 0.0
H921 H 1.00409 0.48976 0.81541 0.0
H922 H 0.99735 0.47087 0.73227 0.0
H923 H 0.97348 0.42901 0.79635 0.0
H924 H 0.02554 0.50998 0.7731 0.0
H925 H 0.01326 0.50448 0.74109 0.0
H926 H 0.01416 0.52215 0.81219 0.0
H927 H 0.98673 0.55496 0.78812 0.0
H928 H 0.9924 0.51759 0.72993 0.0
C929 C 0.99698 0.47831 0.80033 0.0
C930 C 0.98804 0.45889 0.80884 0.0
C931 C 0.99889 0.48281 0.77241 0.0
C932 C 0.99343 0.46747 0.75335 0.0
C933 C 0.98508 0.44801 0.76205 0.0
C934 C 0.98012 0.44396 0.7894 0.0
C935 C 0.01089 0.50379 0.76338 0.0
C936 C 1.00241 0.51666 0.77093 0.0
C937 C 1.00577 0.52506 0.79719 0.0
C938 C 0.99979 0.5386 0.80337 0.0
C939 C 0.99065 0.54391 0.78337 0.0
C940 C 0.98866 0.53712 0.75664 0.0
C941 C 0.99376 0.5228 0.75066 0.0
H942 H 0.5102 0.47107 0.81585 0.0
H943 H 0.49103 0.47308 0.73414 0.0
H944 H 0.44973 0.44014 0.79504 0.0
H945 H 0.53202 0.47969 0.77383 0.0
H946 H 0.52458 0.4864 0.74324 0.0
H947 H 0.52996 0.50168 0.81803 0.0
H948 H 0.57153 0.56066 0.80158 0.0
H949 H 0.54671 0.51937 0.73564 0.0
C950 C 0.49866 0.46819 0.80143 0.0
C951 C 0.47935 0.45621 0.8093 0.0
C952 C 0.50309 0.47555 0.77476 0.0
C953 C 0.48784 0.46906 0.75527 0.0
C954 C 0.46859 0.45619 0.76257 0.0
C955 C 0.46449 0.45058 0.78972 0.0
C956 C 0.5241 0.48704 0.76578 0.0
C957 C 0.53536 0.50825 0.77537 0.0
C958 C 0.53766 0.51281 0.80332 0.0
C959 C 0.55106 0.5315 0.81295 0.0
C960 C 0.56144 0.54617 0.79415 0.0
C961 C 0.56049 0.54203 0.76622 0.0
C962 C 0.54712 0.52303 0.75694 0.0
H963 H 0.70994 0.87552 0.52621 0.0
H964 H 0.69037 0.88293 0.60418 0.0
H965 H 0.68573 0.9133 0.53453 0.0
H966 H 0.72066 0.86694 0.57044 0.0
H967 H 0.70839 0.8659 0.60108 0.0
H968 H 0.68749 0.84391 0.5306 0.0
H969 H 0.66522 0.7856 0.55806 0.0
H970 H 0.69823 0.83307 0.61346 0.0
C971 C 0.70276 0.88137 0.53851 0.0
C972 C 0.69702 0.89398 0.52668 0.0
C973 C 0.69938 0.87631 0.56616 0.0
C974 C 0.69178 0.88557 0.5825 0.0
C975 C 0.68685 0.89895 0.57105 0.0
C976 C 0.68897 0.90253 0.54312 0.0
C977 C 0.70628 0.86311 0.57878 0.0
C978 C 0.69295 0.8414 0.57351 0.0
C979 C 0.68515 0.8342 0.5473 0.0
C980 C 0.67492 0.81414 0.5419 0.0
C981 C 0.67227 0.80107 0.56273 0.0
C982 C 0.68074 0.80771 0.58847 0.0
C983 C 0.69108 0.82789 0.59383 0.0
H984 H 0.1828 0.85161 0.52544 0.0
H985 H 0.1972 0.8538 0.6102 0.0
H986 H 0.21377 0.90675 0.56716 0.0
H987 H 0.18352 0.82339 0.55298 0.0
H988 H 0.17992 0.823 0.58859 0.0
H989 H 0.1579 0.82128 0.51998 0.0
H990 H 0.09962 0.7912 0.54901 0.0
H991 H 0.14742 0.8072 0.60454 0.0
C992 C 0.18812 0.85998 0.54403 0.0
C993 C 0.19837 0.8805 0.54293 0.0
C994 C 0.18634 0.85011 0.56866 0.0
C995 C 0.19645 0.8611 0.59193 0.0
C996 C 0.20676 0.88155 0.59108 0.0
C997 C 0.20611 0.89097 0.56729 0.0
C998 C 0.17683 0.82803 0.56895 0.0
C999 C 0.1551 0.81784 0.56344 0.0
C1000 C 0.14786 0.81598 0.53655 0.0
C1001 C 0.12779 0.80587 0.53085 0.0
C1002 C 0.11514 0.79819 0.55267 0.0
C1003 C 0.12195 0.79699 0.57863 0.0
C1004 C 0.14198 0.80775 0.58439 0.0
H1005 H 0.16847 0.31203 0.50536 0.0
H1006 H 0.17875 0.30759 0.59047 0.0
H1007 H 0.22626 0.33294 0.5347 0.0
H1008 H 0.14363 0.28556 0.53521 0.0
H1009 H 0.1472 0.287 0.57107 0.0
H1010 H 0.13925 0.31218 0.51094 0.0
H1011 H 0.10121 0.325 0.55588 0.0
H1012 H 0.13484 0.30343 0.59748 0.0
C1013 C 0.17839 0.31522 0.52247 0.0
C1014 C 0.19833 0.32469 0.51801 0.0
C1015 C 0.17127 0.30906 0.54868 0.0
C1016 C 0.18444 0.31247 0.57041 0.0
C1017 C 0.20454 0.32089 0.56591 0.0
C1018 C 0.21117 0.32724 0.5395 0.0
C1019 C 0.14977 0.29602 0.55257 0.0
C1020 C 0.13872 0.30707 0.55419 0.0
C1021 C 0.13372 0.31354 0.53027 0.0
C1022 C 0.12081 0.32088 0.53113 0.0
C1023 C 0.11263 0.32125 0.55596 0.0
C1024 C 0.11748 0.31512 0.58014 0.0
C1025 C 0.13106 0.30853 0.57915 0.0
H1026 H 0.03469 0.44372 0.06029 0.0
H1027 H 0.9815 0.38835 0.06743 0.0
H1028 H 0.97134 0.40189 0.10469 0.0
H1029 H 0.04303 0.453 0.13038 0.0
H1030 H 0.05276 0.47895 0.12765 0.0
H1031 H 0.05473 0.46541 0.09969 0.0
H1032 H 0.03762 0.47889 0.0681 0.0
H1033 H 0.03525 0.49215 0.09623 0.0
H1034 H 0.01407 0.47525 0.07682 0.0
H1035 H 0.96801 0.4202 0.14336 0.0
H1036 H 0.9737 0.44088 0.184 0.0
H1037 H 0.02867 0.48439 0.15187 0.0
C1038 C 0.02084 0.43447 0.06953 0.0
C1039 C 0.00892 0.41496 0.06082 0.0
C1040 C 0.99097 0.40332 0.0737 0.0
C1041 C 0.98494 0.41094 0.09473 0.0
C1042 C 0.99695 0.43024 0.10265 0.0
C1043 C 0.01461 0.44181 0.09065 0.0
C1044 C 0.02557 0.4615 0.10466 0.0
C1045 C 0.04517 0.4649 0.11629 0.0
C1046 C 0.02828 0.47792 0.08529 0.0
C1047 C 0.0116 0.45893 0.12698 0.0
C1048 C 0.99499 0.44093 0.1251 0.0
C1049 C 0.98076 0.43448 0.14481 0.0
C1050 C 0.98403 0.44632 0.16771 0.0
C1051 C 1.0014 0.46433 0.17068 0.0
C1052 C 0.01496 0.47101 0.14956 0.0
H1053 H 0.6155 0.61184 0.09692 0.0
H1054 H 0.57474 0.58012 0.03158 0.0
H1055 H 0.54867 0.56312 0.06511 0.0
H1056 H 0.59811 0.57768 0.15327 0.0
H1057 H 0.60326 0.59773 0.17525 0.0
H1058 H 0.61657 0.60202 0.1444 0.0
H1059 H 0.60409 0.62784 0.13678 0.0
H1060 H 0.58837 0.61887 0.16556 0.0
H1061 H 0.57841 0.61866 0.1323 0.0
H1062 H 0.5283 0.54709 0.10724 0.0
H1063 H 0.51453 0.53675 0.15311 0.0
H1064 H 0.56853 0.5822 0.18874 0.0
C1065 C 0.60112 0.60109 0.08987 0.0
C1066 C 0.59713 0.59641 0.06207 0.0
C1067 C 0.578 0.5833 0.05306 0.0
C1068 C 0.56317 0.57368 0.07189 0.0
C1069 C 0.56762 0.57828 0.09938 0.0
C1070 C 0.58602 0.59213 0.10821 0.0
C1071 C 0.58658 0.59604 0.13835 0.0
C1072 C 0.60211 0.59323 0.1536 0.0
C1073 C 0.58953 0.61657 0.14354 0.0
C1074 C 0.56633 0.58057 0.14557 0.0
C1075 C 0.55539 0.57071 0.12291 0.0
C1076 C 0.53662 0.55496 0.12511 0.0
C1077 C 0.52898 0.54908 0.15124 0.0
C1078 C 0.5402 0.55884 0.17472 0.0
C1079 C 0.55907 0.57484 0.17147 0.0
H1080 H 0.42266 0.99006 0.07445 0.0
H1081 H 0.40133 0.02704 0.10615 0.0
H1082 H 0.4185 0.03017 0.14974 0.0
H1083 H 0.41448 0.96401 0.13818 0.0
H1084 H 0.43478 0.95989 0.13467 0.0
H1085 H 0.42257 0.96215 0.10485 0.0
H1086 H 0.45534 0.99043 0.08766 0.0
H1087 H 0.46724 0.98757 0.11747 0.0
H1088 H 0.46962 0.01096 0.10987 0.0
H1089 H 0.44095 0.0327 0.18707 0.0
H1090 H 0.45658 0.02434 0.22423 0.0
H1091 H 0.45837 0.98058 0.17262 0.0
C1092 C 0.42191 0.99901 0.09054 0.0
C1093 C 0.41203 0.00964 0.08648 0.0
C1094 C 0.41004 0.02 0.10842 0.0
C1095 C 0.41967 0.0218 0.1332 0.0
C1096 C 0.43063 0.0125 0.13596 0.0
C1097 C 0.43104 1.00052 0.11584 0.0
C1098 C 0.44139 0.98978 0.12599 0.0
C1099 C 0.42747 0.96764 0.12593 0.0
C1100 C 0.45946 0.995 0.10922 0.0
C1101 C 0.44694 0.99792 0.15473 0.0
C1102 C 0.44117 0.01154 0.15948 0.0
C1103 C 0.44508 0.02166 0.18396 0.0
C1104 C 0.45397 0.01679 0.20491 0.0
C1105 C 0.45815 1.00137 0.2017 0.0
C1106 C 0.45533 0.99238 0.17583 0.0
H1107 H 0.40626 1.00379 0.94635 0.0
H1108 H 0.46006 0.04619 0.98601 0.0
H1109 H 0.47856 0.04273 0.94867 0.0
H1110 H 0.42343 0.97259 0.91857 0.0
H1111 H 0.40998 0.96832 0.88702 0.0
H1112 H 0.40096 0.97314 0.91773 0.0
H1113 H 0.39959 1.00196 0.89446 0.0
H1114 H 0.40844 0.99712 0.86365 0.0
H1115 H 0.4211 0.021 0.87914 0.0
H1116 H 0.4913 0.0347 0.9066 0.0
H1117 H 0.49685 0.02562 0.8607 0.0
H1118 H 0.43478 0.98979 0.84788 0.0
C1119 C 0.42194 0.01224 0.94731 0.0
C1120 C 0.43169 0.02511 0.9693 0.0
C1121 C 0.45223 0.03618 0.96946 0.0
C1122 C 0.4629 0.03424 0.9484 0.0
C1123 C 0.45283 0.02134 0.92712 0.0
C1124 C 0.4328 0.01073 0.92624 0.0
C1125 C 0.42544 0.99887 0.90023 0.0
C1126 C 0.41429 0.97693 0.90626 0.0
C1127 C 0.41291 0.00512 0.88338 0.0
C1128 C 0.44443 1.00455 0.88654 0.0
C1129 C 0.46011 0.01728 0.90254 0.0
C1130 C 0.47913 0.02472 0.89391 0.0
C1131 C 0.48217 0.01941 0.86795 0.0
C1132 C 0.46625 0.00704 0.85088 0.0
C1133 C 0.4472 0.99928 0.86058 0.0
H1134 H 0.9761 0.40714 0.9535 0.0
H1135 H 0.01919 0.39358 0.92328 0.0
H1136 H 0.02241 0.41244 0.88203 0.0
H1137 H 0.95411 0.40087 0.88332 0.0
H1138 H 0.9466 0.41873 0.88889 0.0
H1139 H 0.94783 0.40466 0.91695 0.0
H1140 H 0.99258 0.45495 0.92659 0.0
H1141 H 0.97133 0.43674 0.94345 0.0
H1142 H 0.96895 0.45013 0.91532 0.0
H1143 H 0.02637 0.43792 0.85021 0.0
H1144 H 0.02001 0.45646 0.81526 0.0
H1145 H 0.9694 0.44835 0.85862 0.0
C1146 C 0.98617 0.40824 0.93811 0.0
C1147 C 0.99859 0.40031 0.94229 0.0
C1148 C 0.01059 0.40076 0.92112 0.0
C1149 C 0.01249 0.41137 0.89764 0.0
C1150 C 1.00163 0.42074 0.89522 0.0
C1151 C 0.98778 0.41832 0.91382 0.0
C1152 C 0.97609 0.4277 0.90354 0.0
C1153 C 0.9549 0.41206 0.89783 0.0
C1154 C 0.97733 0.44329 0.92345 0.0
C1155 C 0.98655 0.4368 0.87732 0.0
C1156 C 1.00161 0.43299 0.87368 0.0
C1157 C 0.01432 0.44062 0.85227 0.0
C1158 C 0.0108 0.45139 0.83285 0.0
C1159 C 0.99432 0.45383 0.83443 0.0
C1160 C 0.98221 0.44685 0.85724 0.0
H1161 H 0.60711 0.59875 0.94092 0.0
H1162 H 0.61159 0.54964 0.97267 0.0
H1163 H 0.59123 0.52923 0.93456 0.0
H1164 H 0.55728 0.57109 0.91757 0.0
H1165 H 0.56099 0.58535 0.88735 0.0
H1166 H 0.57587 0.59636 0.9173 0.0
H1167 H 0.60691 0.60675 0.88952 0.0
H1168 H 0.59213 0.59605 0.85945 0.0
H1169 H 0.60932 0.58861 0.87034 0.0
H1170 H 0.57131 0.51434 0.89269 0.0
H1171 H 0.55529 0.50665 0.84772 0.0
H1172 H 0.56186 0.56467 0.84402 0.0
C1173 C 0.60395 0.58376 0.93978 0.0
C1174 C 0.61102 0.57586 0.95985 0.0
C1175 C 0.60639 0.55609 0.95761 0.0
C1176 C 0.59473 0.54431 0.9361 0.0
C1177 C 0.5877 0.55244 0.91702 0.0
C1178 C 0.59223 0.57172 0.91849 0.0
C1179 C 0.58313 0.57691 0.89488 0.0
C1180 C 0.56845 0.58277 0.90488 0.0
C1181 C 0.59881 0.59303 0.87752 0.0
C1182 C 0.57308 0.55759 0.87972 0.0
C1183 C 0.57579 0.54366 0.89299 0.0
C1184 C 0.56885 0.52504 0.88224 0.0
C1185 C 0.55951 0.52073 0.85673 0.0
C1186 C 0.55709 0.53496 0.8422 0.0
C1187 C 0.56347 0.55344 0.85444 0.0
H1188 H 0.9885 0.58186 0.94459 0.0
H1189 H 0.02883 0.63787 0.91067 0.0
H1190 H 0.0334 0.62151 0.87121 0.0
H1191 H 0.00844 0.55188 0.92082 0.0
H1192 H 0.98514 0.53188 0.91122 0.0
H1193 H 0.98707 0.54831 0.93809 0.0
H1194 H 0.96149 0.55393 0.91112 0.0
H1195 H 0.96077 0.53806 0.88428 0.0
H1196 H 0.96653 0.56267 0.87672 0.0
H1197 H 0.03743 0.59981 0.83957 0.0
H1198 H 0.03076 0.57419 0.80563 0.0
H1199 H 0.9838 0.53192 0.85438 0.0
C1200 C 0.99836 0.59054 0.92886 0.0
C1201 C 0.00952 0.61104 0.93143 0.0
C1202 C 0.02123 0.6221 0.90977 0.0
C1203 C 0.02388 0.61296 0.88731 0.0
C1204 C 0.01414 0.59273 0.88642 0.0
C1205 C 1.0008 0.58159 0.9057 0.0
C1206 C 0.99007 0.56025 0.89712 0.0
C1207 C 0.99286 0.54735 0.9181 0.0
C1208 C 0.96843 0.55332 0.892 0.0
C1209 C 1.00025 0.56121 0.87078 0.0
C1210 C 0.01445 0.58011 0.86563 0.0
C1211 C 0.02617 0.58497 0.84303 0.0
C1212 C 0.02249 0.57032 0.82413 0.0
C1213 C 1.00698 0.55119 0.8277 0.0
C1214 C 0.996 0.54638 0.85162 0.0
H1215 H 0.40963 0.40802 0.9349 0.0
H1216 H 0.44897 0.38781 0.96272 0.0
H1217 H 0.47071 0.40507 0.92503 0.0
H1218 H 0.41524 0.40362 0.86363 0.0
H1219 H 0.41418 0.42527 0.8548 0.0
H1220 H 0.40184 0.41155 0.88431 0.0
H1221 H 0.42047 0.44264 0.9142 0.0
H1222 H 0.433 0.45642 0.88479 0.0
H1223 H 0.4466 0.45584 0.91417 0.0
H1224 H 0.48792 0.42386 0.88357 0.0
H1225 H 0.49843 0.44159 0.8403 0.0
H1226 H 0.44867 0.45066 0.84049 0.0
C1227 C 0.42277 0.40715 0.93307 0.0
C1228 C 0.42749 0.39647 0.95187 0.0
C1229 C 0.44493 0.39583 0.94867 0.0
C1230 C 0.45746 0.40566 0.92734 0.0
C1231 C 0.45246 0.41617 0.90937 0.0
C1232 C 0.43551 0.41694 0.91195 0.0
C1233 C 0.43339 0.42902 0.88959 0.0
C1234 C 0.41508 0.41662 0.87205 0.0
C1235 C 0.43337 0.44705 0.9014 0.0
C1236 C 0.45166 0.43469 0.87388 0.0
C1237 C 0.46252 0.42723 0.88569 0.0
C1238 C 0.47964 0.42995 0.87426 0.0
C1239 C 0.4856 0.44022 0.84978 0.0
C1240 C 0.47447 0.44766 0.83698 0.0
C1241 C 0.45749 0.44512 0.84965 0.0
H1242 H 0.59445 0.01967 0.9642 0.0
H1243 H 0.61713 0.98355 0.93341 0.0
H1244 H 0.59866 0.97841 0.89058 0.0
H1245 H 0.54626 0.99559 0.93235 0.0
H1246 H 0.54728 0.01824 0.92398 0.0
H1247 H 0.56087 0.017 0.95294 0.0
H1248 H 0.59177 0.04583 0.93162 0.0
H1249 H 0.57766 0.04569 0.90242 0.0
H1250 H 0.59868 0.04288 0.89799 0.0
H1251 H 0.57569 0.97415 0.854 0.0
H1252 H 0.55657 0.97887 0.81782 0.0
H1253 H 0.55119 0.02093 0.86837 0.0
C1254 C 0.59531 0.01059 0.9484 0.0
C1255 C 0.6061 1.0009 0.95249 0.0
C1256 C 0.60798 0.99011 0.93103 0.0
C1257 C 0.59763 0.98717 0.90668 0.0
C1258 C 0.58595 0.99567 0.90389 0.0
C1259 C 0.58528 0.0078 0.92355 0.0
C1260 C 0.57333 0.01693 0.91356 0.0
C1261 C 0.55592 0.01161 0.93183 0.0
C1262 C 0.58613 0.03915 0.91125 0.0
C1263 C 0.56682 0.00732 0.88575 0.0
C1264 C 0.57408 0.99485 0.88103 0.0
C1265 C 0.5701 0.98403 0.85719 0.0
C1266 C 0.55912 0.98666 0.83694 0.0
C1267 C 0.55248 1.00017 0.84056 0.0
C1268 C 0.55598 0.01036 0.86543 0.0
H1269 H 0.56938 0.96294 0.07453 0.0
H1270 H 0.61349 0.02398 0.07089 0.0
H1271 H 0.59748 0.03163 0.10748 0.0
H1272 H 0.52834 0.97062 0.09114 0.0
H1273 H 0.51811 0.95045 0.11433 0.0
H1274 H 0.53165 0.94986 0.08563 0.0
H1275 H 0.55464 0.94422 0.11784 0.0
H1276 H 0.54099 0.94449 0.14648 0.0
H1277 H 0.56675 0.96098 0.14567 0.0
H1278 H 0.57876 0.03252 0.14655 0.0
H1279 H 0.56025 0.02587 0.18885 0.0
H1280 H 0.52814 0.9645 0.16788 0.0
C1281 C 0.57553 0.97794 0.08123 0.0
C1282 C 0.59268 0.99285 0.06979 0.0
C1283 C 0.60043 0.01227 0.0794 0.0
C1284 C 0.59133 0.01681 0.09999 0.0
C1285 C 0.57446 1.00181 0.11081 0.0
C1286 C 0.56671 0.98274 0.10199 0.0
C1287 C 0.54952 0.96913 0.11888 0.0
C1288 C 0.5308 0.95945 0.10145 0.0
C1289 C 0.55321 0.95381 0.13306 0.0
C1290 C 0.54924 0.98348 0.1391 0.0
C1291 C 0.56352 1.00232 0.13366 0.0
C1292 C 0.56727 0.01792 0.15075 0.0
C1293 C 0.55666 0.01406 0.17459 0.0
C1294 C 0.54255 0.9948 0.18105 0.0
C1295 C 0.53839 0.97942 0.16274 0.0
H1296 H 0.04662 0.61303 0.0572 0.0
H1297 H 0.98774 0.60321 0.05004 0.0
H1298 H 0.97806 0.5802 0.08792 0.0
H1299 H 0.03397 0.56329 0.07613 0.0
H1300 H 0.05378 0.57109 0.10035 0.0
H1301 H 0.05613 0.58588 0.07117 0.0
H1302 H 0.06454 0.61544 0.10268 0.0
H1303 H 0.06249 0.60081 0.13185 0.0
H1304 H 0.04827 0.61291 0.12949 0.0
H1305 H 0.97468 0.5594 0.12726 0.0
H1306 H 0.97877 0.54458 0.16929 0.0
H1307 H 0.03971 0.56789 0.15235 0.0
C1308 C 0.03168 0.60597 0.06354 0.0
C1309 C 0.01797 0.60998 0.05056 0.0
C1310 C 0.99859 0.60053 0.05967 0.0
C1311 C 0.99286 0.58726 0.08104 0.0
C1312 C 1.00665 0.58356 0.09324 0.0
C1313 C 0.02571 0.59276 0.08511 0.0
C1314 C 0.03786 0.58713 0.10311 0.0
C1315 C 0.04591 0.5762 0.0867 0.0
C1316 C 0.05425 0.60514 0.11765 0.0
C1317 C 0.02271 0.57367 0.12291 0.0
C1318 C 1.00474 0.57158 0.11647 0.0
C1319 C 0.98862 0.56076 0.13243 0.0
C1320 C 0.99106 0.55238 0.15619 0.0
C1321 C 0.00948 0.55498 0.16382 0.0
C1322 C 0.02538 0.56532 0.14658 0.0
H1323 H 0.42263 0.4346 0.05013 0.0
H1324 H 0.39229 0.37811 0.08851 0.0
H1325 H 0.40999 0.3924 0.13149 0.0
H1326 H 0.46906 0.45591 0.08528 0.0
H1327 H 0.47065 0.47922 0.09024 0.0
H1328 H 0.4569 0.46404 0.06175 0.0
H1329 H 0.42707 0.46655 0.07832 0.0
H1330 H 0.44115 0.48117 0.10701 0.0
H1331 H 0.41861 0.45906 0.11236 0.0
H1332 H 0.4348 0.41063 0.16636 0.0
H1333 H 0.4545 0.43496 0.20126 0.0
H1334 H 0.46429 0.48159 0.14573 0.0
C1335 C 0.41993 0.42534 0.06764 0.0
C1336 C 0.40737 0.40496 0.0657 0.0
C1337 C 0.40296 0.39347 0.08928 0.0
C1338 C 0.41287 0.40144 0.11372 0.0
C1339 C 0.42656 0.42112 0.11443 0.0
C1340 C 0.42931 0.43326 0.09272 0.0
C1341 C 0.44268 0.45444 0.10096 0.0
C1342 C 0.46089 0.46394 0.08349 0.0
C1343 C 0.43172 0.46599 0.09959 0.0
C1344 C 0.44766 0.45199 0.13019 0.0
C1345 C 0.43862 0.43248 0.13688 0.0
C1346 C 0.44151 0.42601 0.16181 0.0
C1347 C 0.45287 0.43991 0.18135 0.0
C1348 C 0.46055 0.46003 0.17625 0.0
C1349 C 0.45854 0.46628 0.15004 0.0
H1350 H 0.70371 0.78266 0.40665 0.0
H1351 H 0.64521 0.73325 0.40457 0.0
H1352 H 0.63615 0.74821 0.44121 0.0
H1353 H 0.70764 0.78756 0.47771 0.0
H1354 H 0.72156 0.81379 0.47788 0.0
H1355 H 0.72277 0.8002 0.4494 0.0
H1356 H 0.71271 0.81986 0.41714 0.0
H1357 H 0.71112 0.83327 0.44573 0.0
H1358 H 0.69054 0.82028 0.42304 0.0
H1359 H 0.63387 0.76678 0.48017 0.0
H1360 H 0.63977 0.78608 0.52232 0.0
H1361 H 0.69946 0.82352 0.49963 0.0
C1362 C 0.68895 0.77508 0.41373 0.0
C1363 C 0.6752 0.75677 0.40267 0.0
C1364 C 0.65608 0.74723 0.41275 0.0
C1365 C 0.65069 0.75571 0.43338 0.0
C1366 C 0.66454 0.77377 0.44375 0.0
C1367 C 0.68333 0.78328 0.43449 0.0
C1368 C 0.69586 0.80164 0.45093 0.0
C1369 C 0.71296 0.80073 0.46481 0.0
C1370 C 0.70297 0.81984 0.43314 0.0
C1371 C 0.68132 0.80058 0.47142 0.0
C1372 C 0.66323 0.78459 0.46651 0.0
C1373 C 0.64786 0.77954 0.484 0.0
C1374 C 0.65128 0.79059 0.50777 0.0
C1375 C 0.66994 0.80643 0.51382 0.0
C1376 C 0.68492 0.81188 0.49495 0.0
H1377 H 0.27854 0.94987 0.44132 0.0
H1378 H 0.23857 0.91939 0.37467 0.0
H1379 H 0.21212 0.90168 0.40738 0.0
H1380 H 0.26226 0.9156 0.49552 0.0
H1381 H 0.26622 0.93464 0.51867 0.0
H1382 H 0.27965 0.94056 0.48777 0.0
H1383 H 0.26479 0.96466 0.48271 0.0
H1384 H 0.24909 0.95385 0.51118 0.0
H1385 H 0.23891 0.95404 0.47826 0.0
H1386 H 0.19176 0.88399 0.44829 0.0
H1387 H 0.17864 0.86995 0.49299 0.0
H1388 H 0.23206 0.91442 0.53154 0.0
C1389 C 0.26419 0.93938 0.43381 0.0
C1390 C 0.26058 0.93514 0.40583 0.0
C1391 C 0.24154 0.92228 0.39625 0.0
C1392 C 0.22648 0.9123 0.41462 0.0
C1393 C 0.23056 0.91636 0.44229 0.0
C1394 C 0.24883 0.93008 0.45175 0.0
C1395 C 0.24905 0.93275 0.48221 0.0
C1396 C 0.26533 0.93082 0.49676 0.0
C1397 C 0.25055 0.95249 0.48897 0.0
C1398 C 0.22914 0.91613 0.48876 0.0
C1399 C 0.21833 0.90739 0.4655 0.0
C1400 C 0.2 0.89091 0.46667 0.0
C1401 C 0.19278 0.88285 0.49223 0.0
C1402 C 0.20413 0.89091 0.51629 0.0
C1403 C 0.2224 0.90806 0.51418 0.0
H1404 H 0.07233 0.30736 0.38219 0.0
H1405 H 0.05733 0.35076 0.40781 0.0
H1406 H 0.07384 0.35409 0.45198 0.0
H1407 H 0.06323 0.28546 0.45162 0.0
H1408 H 0.08154 0.27835 0.44902 0.0
H1409 H 0.06873 0.27927 0.41893 0.0
H1410 H 0.1017 0.30379 0.39612 0.0
H1411 H 0.11338 0.3007 0.42597 0.0
H1412 H 0.11893 0.3247 0.41578 0.0
H1413 H 0.09695 0.35749 0.48855 0.0
H1414 H 0.11507 0.35198 0.52529 0.0
H1415 H 0.11077 0.30238 0.48079 0.0
C1416 C 0.0726 0.31752 0.39722 0.0
C1417 C 0.0648 0.32983 0.39122 0.0
C1418 C 0.06427 0.3421 0.41168 0.0
C1419 C 0.07353 0.34403 0.43677 0.0
C1420 C 0.08263 0.33305 0.44132 0.0
C1421 C 0.08145 0.31931 0.42283 0.0
C1422 C 0.09062 0.30786 0.43465 0.0
C1423 C 0.07511 0.28647 0.43881 0.0
C1424 C 0.10711 0.30937 0.41701 0.0
C1425 C 0.09834 0.31842 0.46167 0.0
C1426 C 0.09375 0.33306 0.46471 0.0
C1427 C 0.10009 0.34564 0.48698 0.0
C1428 C 0.11045 0.34244 0.50763 0.0
C1429 C 0.11392 0.32647 0.50626 0.0
C1430 C 0.10832 0.31468 0.48251 0.0
H1431 H 0.10797 0.36695 0.26692 0.0
H1432 H 0.06601 0.30593 0.27797 0.0
H1433 H 0.08173 0.29692 0.24213 0.0
H1434 H 0.10757 0.36433 0.19571 0.0
H1435 H 0.13293 0.38184 0.19243 0.0
H1436 H 0.11993 0.38302 0.22128 0.0
H1437 H 0.14525 0.38117 0.25346 0.0
H1438 H 0.15814 0.37966 0.22457 0.0
H1439 H 0.1499 0.36108 0.25021 0.0
H1440 H 0.10091 0.29472 0.20331 0.0
H1441 H 0.11869 0.29985 0.16044 0.0
H1442 H 0.14688 0.36225 0.17333 0.0
C1443 C 0.1023 0.35168 0.26206 0.0
C1444 C 0.08589 0.33711 0.27532 0.0
C1445 C 0.07857 0.31731 0.268 0.0
C1446 C 0.08752 0.31205 0.24788 0.0
C1447 C 0.10368 0.32678 0.23514 0.0
C1448 C 0.11082 0.34621 0.24169 0.0
C1449 C 0.12691 0.35934 0.22292 0.0
C1450 C 0.1215 0.37292 0.20715 0.0
C1451 C 0.14619 0.371 0.23874 0.0
C1452 C 0.12743 0.3443 0.20439 0.0
C1453 C 0.11428 0.32557 0.21218 0.0
C1454 C 0.11142 0.3093 0.19722 0.0
C1455 C 0.12168 0.31231 0.17307 0.0
C1456 C 0.13434 0.3314 0.16405 0.0
C1457 C 0.13762 0.34752 0.18028 0.0
H1458 H 0.67824 0.73424 0.26019 0.0
H1459 H 0.65334 0.7611 0.31016 0.0
H1460 H 0.65236 0.78014 0.27052 0.0
H1461 H 0.70608 0.77309 0.21014 0.0
H1462 H 0.69798 0.75443 0.18465 0.0
H1463 H 0.70028 0.74861 0.21942 0.0
H1464 H 0.66346 0.72081 0.21107 0.0
H1465 H 0.66228 0.73052 0.17838 0.0
H1466 H 0.64553 0.72812 0.20435 0.0
H1467 H 0.65527 0.79695 0.22507 0.0
H1468 H 0.65785 0.80689 0.17682 0.0
H1469 H 0.67802 0.76633 0.15687 0.0
C1470 C 0.67303 0.7445 0.26279 0.0
C1471 C 0.66668 0.74702 0.28824 0.0
C1472 C 0.65876 0.75953 0.29081 0.0
C1473 C 0.65817 0.77035 0.26849 0.0
C1474 C 0.66472 0.7677 0.24358 0.0
C1475 C 0.67158 0.75473 0.2405 0.0
C1476 C 0.6751 0.75243 0.21096 0.0
C1477 C 0.69612 0.75741 0.20614 0.0
C1478 C 0.66074 0.73175 0.20059 0.0
C1479 C 0.67074 0.76732 0.19827 0.0
C1480 C 0.6646 0.77588 0.21723 0.0
C1481 C 0.65998 0.79026 0.21002 0.0
C1482 C 0.66165 0.79593 0.18265 0.0
C1483 C 0.66792 0.78725 0.16295 0.0
C1484 C 0.67267 0.77292 0.17116 0.0
H1485 H 0.27468 0.93674 0.28251 0.0
H1486 H 0.27454 0.8863 0.31842 0.0
H1487 H 0.25794 0.86693 0.2774 0.0
H1488 H 0.2275 0.91047 0.25011 0.0
H1489 H 0.23451 0.92557 0.22032 0.0
H1490 H 0.24638 0.93559 0.25257 0.0
H1491 H 0.27977 0.94603 0.23136 0.0
H1492 H 0.26801 0.93615 0.19902 0.0
H1493 H 0.28366 0.92807 0.21424 0.0
H1494 H 0.24214 0.85324 0.23209 0.0
H1495 H 0.22882 0.8464 0.18526 0.0
H1496 H 0.23789 0.90528 0.17972 0.0
C1497 C 0.27124 0.92165 0.28178 0.0
C1498 C 0.27601 0.9131 0.30374 0.0
C1499 C 0.2711 0.89323 0.3019 0.0
C1500 C 0.26161 0.88207 0.2787 0.0
C1501 C 0.25704 0.89093 0.25755 0.0
C1502 C 0.26169 0.91025 0.25885 0.0
C1503 C 0.25525 0.91627 0.23321 0.0
C1504 C 0.24 0.92233 0.23944 0.0
C1505 C 0.27271 0.93259 0.2186 0.0
C1506 C 0.24643 0.89735 0.21721 0.0
C1507 C 0.24757 0.88291 0.23163 0.0
C1508 C 0.24097 0.86437 0.22069 0.0
C1509 C 0.23324 0.86057 0.19413 0.0
C1510 C 0.2321 0.87523 0.17883 0.0
C1511 C 0.23859 0.89377 0.19082 0.0
H1512 H 0.67184 0.91325 0.27739 0.0
H1513 H 0.69762 0.96916 0.23731 0.0
H1514 H 0.70273 0.95435 0.19632 0.0
H1515 H 0.69961 0.89252 0.24742 0.0
H1516 H 0.67864 0.86881 0.24293 0.0
H1517 H 0.67944 0.88463 0.26998 0.0
H1518 H 0.64678 0.88085 0.25074 0.0
H1519 H 0.64685 0.86562 0.22356 0.0
H1520 H 0.64548 0.88726 0.21588 0.0
H1521 H 0.70879 0.93488 0.16261 0.0
H1522 H 0.70369 0.90946 0.12924 0.0
H1523 H 0.66899 0.86465 0.18697 0.0
C1524 C 0.67877 0.92232 0.26001 0.0
C1525 C 0.68577 0.94263 0.26097 0.0
C1526 C 0.69345 0.95386 0.23741 0.0
C1527 C 0.69634 0.94557 0.2141 0.0
C1528 C 0.69085 0.92588 0.21449 0.0
C1529 C 0.68134 0.91412 0.23621 0.0
C1530 C 0.67429 0.89284 0.22941 0.0
C1531 C 0.68355 0.88421 0.24861 0.0
C1532 C 0.65203 0.88094 0.22992 0.0
C1533 C 0.68175 0.89463 0.20074 0.0
C1534 C 0.69188 0.91397 0.19314 0.0
C1535 C 0.70063 0.91966 0.16806 0.0
C1536 C 0.69787 0.90516 0.14942 0.0
C1537 C 0.68602 0.88521 0.15566 0.0
C1538 C 0.67834 0.87981 0.18194 0.0
H1539 H 0.07082 0.74159 0.25928 0.0
H1540 H 0.11265 0.72605 0.29201 0.0
H1541 H 0.13525 0.74476 0.25599 0.0
H1542 H 0.081 0.73887 0.18814 0.0
H1543 H 0.07803 0.75931 0.17852 0.0
H1544 H 0.06486 0.74435 0.20674 0.0
H1545 H 0.07918 0.77505 0.23777 0.0
H1546 H 0.0926 0.79006 0.20973 0.0
H1547 H 0.10512 0.79032 0.2408 0.0
H1548 H 0.15376 0.76555 0.21719 0.0
H1549 H 0.1658 0.78492 0.17552 0.0
H1550 H 0.1125 0.78759 0.16795 0.0
C1551 C 0.08463 0.74192 0.25872 0.0
C1552 C 0.08987 0.73229 0.27862 0.0
C1553 C 0.10819 0.73325 0.27712 0.0
C1554 C 0.12123 0.74393 0.25676 0.0
C1555 C 0.1158 0.75357 0.2379 0.0
C1556 C 0.09788 0.75252 0.23845 0.0
C1557 C 0.09568 0.76418 0.21551 0.0
C1558 C 0.0789 0.75088 0.19608 0.0
C1559 C 0.09299 0.78089 0.22663 0.0
C1560 C 0.11515 0.77188 0.20206 0.0
C1561 C 0.12656 0.76567 0.21542 0.0
C1562 C 0.14501 0.77061 0.20659 0.0
C1563 C 0.15182 0.78181 0.18305 0.0
C1564 C 0.1402 0.78796 0.16858 0.0
C1565 C 0.12174 0.78314 0.17859 0.0
H1566 H 0.26318 0.35591 0.27393 0.0
H1567 H 0.28866 0.32125 0.24748 0.0
H1568 H 0.27041 0.31416 0.20403 0.0
H1569 H 0.21527 0.32926 0.24117 0.0
H1570 H 0.2155 0.35128 0.23128 0.0
H1571 H 0.22908 0.35125 0.26104 0.0
H1572 H 0.25956 0.38038 0.2391 0.0
H1573 H 0.24542 0.3788 0.20918 0.0
H1574 H 0.26707 0.37694 0.20615 0.0
H1575 H 0.24728 0.30783 0.16634 0.0
H1576 H 0.22827 0.31106 0.12848 0.0
H1577 H 0.22023 0.35286 0.17563 0.0
C1578 C 0.26471 0.34673 0.25895 0.0
C1579 C 0.27625 0.338 0.26448 0.0
C1580 C 0.27897 0.32708 0.24402 0.0
C1581 C 0.26873 0.32303 0.21933 0.0
C1582 C 0.25627 0.33052 0.2152 0.0
C1583 C 0.25479 0.34281 0.23381 0.0
C1584 C 0.24223 0.35085 0.22241 0.0
C1585 C 0.22449 0.34533 0.24007 0.0
C1586 C 0.25429 0.37306 0.219 0.0
C1587 C 0.23628 0.34043 0.19506 0.0
C1588 C 0.24432 0.3285 0.19175 0.0
C1589 C 0.24105 0.31725 0.16846 0.0
C1590 C 0.23009 0.319 0.14726 0.0
C1591 C 0.22275 0.33205 0.14942 0.0
C1592 C 0.22543 0.34254 0.17383 0.0
H1593 H 0.23585 0.30115 0.38401 0.0
H1594 H 0.27972 0.3624 0.38369 0.0
H1595 H 0.26255 0.36902 0.41967 0.0
H1596 H 0.19404 0.30832 0.39928 0.0
H1597 H 0.18332 0.2875 0.42133 0.0
H1598 H 0.19757 0.28777 0.393 0.0
H1599 H 0.21981 0.28128 0.42558 0.0
H1600 H 0.2055 0.28076 0.45383 0.0
H1601 H 0.23127 0.2973 0.45433 0.0
H1602 H 0.24308 0.3687 0.45852 0.0
H1603 H 0.22365 0.36079 0.5001 0.0
H1604 H 0.19206 0.30006 0.47558 0.0
C1605 C 0.24168 0.316 0.39122 0.0
C1606 C 0.25913 0.33124 0.38097 0.0
C1607 C 0.26642 0.35043 0.39125 0.0
C1608 C 0.25668 0.35441 0.41152 0.0
C1609 C 0.2396 0.33907 0.42129 0.0
C1610 C 0.23217 0.32023 0.41161 0.0
C1611 C 0.21461 0.30613 0.42747 0.0
C1612 C 0.1963 0.29688 0.40917 0.0
C1613 C 0.21801 0.29045 0.44112 0.0
C1614 C 0.21381 0.31989 0.44821 0.0
C1615 C 0.22814 0.3389 0.44389 0.0
C1616 C 0.23152 0.35397 0.4618 0.0
C1617 C 0.22043 0.3494 0.48526 0.0
C1618 C 0.20617 0.32995 0.49049 0.0
C1619 C 0.20243 0.31513 0.4714 0.0
H1620 H 0.67862 0.93689 0.391 0.0
H1621 H 0.73715 0.95271 0.36771 0.0
H1622 H 0.74005 0.93513 0.40742 0.0
H1623 H 0.68789 0.94331 0.46118 0.0
H1624 H 0.66489 0.92302 0.47049 0.0
H1625 H 0.66694 0.93549 0.43906 0.0
H1626 H 0.65347 0.90278 0.41264 0.0
H1627 H 0.65147 0.89022 0.44405 0.0
H1628 H 0.66523 0.88832 0.41661 0.0
H1629 H 0.73742 0.91786 0.45172 0.0
H1630 H 0.7298 0.90354 0.49762 0.0
H1631 H 0.67271 0.89814 0.49067 0.0
C1632 C 0.69201 0.93655 0.39402 0.0
C1633 C 0.70765 0.94624 0.37617 0.0
C1634 C 0.72494 0.94545 0.38108 0.0
C1635 C 0.72671 0.93541 0.40352 0.0
C1636 C 0.71103 0.9261 0.42075 0.0
C1637 C 0.694 0.92656 0.41622 0.0
C1638 C 0.67967 0.9163 0.43851 0.0
C1639 C 0.67456 0.93037 0.45317 0.0
C1640 C 0.66138 0.89834 0.42727 0.0
C1641 C 0.69147 0.91044 0.4567 0.0
C1642 C 0.70945 0.91601 0.44602 0.0
C1643 C 0.72328 0.91318 0.4601 0.0
C1644 C 0.71878 0.90491 0.48609 0.0
C1645 C 0.70065 0.89968 0.49769 0.0
C1646 C 0.68671 0.90203 0.48236 0.0
H1647 H 0.05986 0.73001 0.4175 0.0
H1648 H 0.09369 0.77175 0.35609 0.0
H1649 H 0.11362 0.79563 0.39216 0.0
H1650 H 0.05922 0.76808 0.4592 0.0
H1651 H 0.05855 0.75632 0.49088 0.0
H1652 H 0.04775 0.74188 0.46058 0.0
H1653 H 0.07044 0.72557 0.46411 0.0
H1654 H 0.07681 0.73794 0.49649 0.0
H1655 H 0.09557 0.74189 0.47349 0.0
H1656 H 0.13084 0.81418 0.4359 0.0
H1657 H 0.14244 0.82616 0.48275 0.0
H1658 H 0.09544 0.77215 0.51386 0.0
C1659 C 0.07175 0.74405 0.4118 0.0
C1660 C 0.07594 0.74891 0.38428 0.0
C1661 C 0.09075 0.76774 0.37725 0.0
C1662 C 0.10204 0.78135 0.39753 0.0
C1663 C 0.09763 0.77612 0.42464 0.0
C1664 C 0.08259 0.75802 0.43174 0.0
C1665 C 0.0795 0.7567 0.46206 0.0
C1666 C 0.06011 0.75569 0.46855 0.0
C1667 C 0.08061 0.73944 0.47466 0.0
C1668 C 0.09643 0.776 0.47109 0.0
C1669 C 0.10646 0.78728 0.44934 0.0
C1670 C 0.123 0.80547 0.4531 0.0
C1671 C 0.1296 0.81207 0.47983 0.0
C1672 C 0.11988 0.80032 0.50244 0.0
C1673 C 0.103 0.78209 0.49758 0.0
H1674 H 0.37603 0.10605 0.71683 0.0
H1675 H 0.31757 0.05694 0.72164 0.0
H1676 H 0.31131 0.07263 0.7604 0.0
H1677 H 0.38506 0.11229 0.78697 0.0
H1678 H 0.39895 0.13851 0.78605 0.0
H1679 H 0.39808 0.12439 0.75686 0.0
H1680 H 0.38581 0.14341 0.7271 0.0
H1681 H 0.38644 0.15746 0.75637 0.0
H1682 H 0.36431 0.14411 0.73665 0.0
H1683 H 0.31218 0.09194 0.80089 0.0
H1684 H 0.32102 0.11269 0.84214 0.0
H1685 H 0.3786 0.14939 0.81106 0.0
C1686 C 0.36182 0.09868 0.7258 0.0
C1687 C 0.34731 0.08024 0.71611 0.0
C1688 C 0.32898 0.07104 0.72867 0.0
C1689 C 0.3252 0.07991 0.75059 0.0
C1690 C 0.33984 0.09803 0.75967 0.0
C1691 C 0.35781 0.1073 0.74776 0.0
C1692 C 0.37152 0.12596 0.76281 0.0
C1693 C 0.38945 0.12523 0.77383 0.0
C1694 C 0.37736 0.14379 0.74464 0.0
C1695 C 0.35864 0.12539 0.78556 0.0
C1696 C 0.34031 0.10931 0.78309 0.0
C1697 C 0.32635 0.10477 0.80281 0.0
C1698 C 0.33145 0.11661 0.8261 0.0
C1699 C 0.35033 0.13274 0.82941 0.0
C1700 C 0.36389 0.13748 0.80854 0.0
H1701 H 0.9093 0.26099 0.73026 0.0
H1702 H 0.96587 0.27516 0.76323 0.0
H1703 H 0.95073 0.256 0.804 0.0
H1704 H 0.89327 0.26667 0.79925 0.0
H1705 H 0.86832 0.24864 0.79268 0.0
H1706 H 0.8833 0.26288 0.76515 0.0
H1707 H 0.87578 0.23093 0.73886 0.0
H1708 H 0.86021 0.21751 0.7664 0.0
H1709 H 0.87917 0.21276 0.75654 0.0
H1710 H 0.92992 0.23078 0.83594 0.0
H1711 H 0.90543 0.21255 0.87036 0.0
H1712 H 0.86239 0.21917 0.82303 0.0
C1713 C 0.91836 0.25994 0.74614 0.0
C1714 C 0.93859 0.26821 0.74294 0.0
C1715 C 0.95023 0.26779 0.76471 0.0
C1716 C 0.9418 0.25699 0.7879 0.0
C1717 C 0.92173 0.24734 0.7894 0.0
C1718 C 0.91016 0.24962 0.77009 0.0
C1719 C 0.88926 0.24001 0.77938 0.0
C1720 C 0.88318 0.25547 0.78442 0.0
C1721 C 0.87532 0.2244 0.75904 0.0
C1722 C 0.89092 0.23092 0.80586 0.0
C1723 C 0.90978 0.235 0.81061 0.0
C1724 C 0.91515 0.22779 0.83291 0.0
C1725 C 0.90112 0.21721 0.85206 0.0
C1726 C 0.88215 0.21441 0.84908 0.0
C1727 C 0.87676 0.22087 0.82538 0.0
H1728 H 0.75123 0.65617 0.72087 0.0
H1729 H 0.73176 0.69455 0.75311 0.0
H1730 H 0.75021 0.69837 0.7957 0.0
H1731 H 0.74487 0.63113 0.78393 0.0
H1732 H 0.76507 0.62696 0.77963 0.0
H1733 H 0.75243 0.62916 0.75029 0.0
H1734 H 0.78488 0.6573 0.73225 0.0
H1735 H 0.79734 0.65468 0.76159 0.0
H1736 H 0.79949 0.67799 0.75402 0.0
H1737 H 0.77177 0.69951 0.8333 0.0
H1738 H 0.78741 0.69064 0.86993 0.0
H1739 H 0.78925 0.64765 0.81678 0.0
C1740 C 0.75122 0.66562 0.73681 0.0
C1741 C 0.74129 0.67623 0.7332 0.0
C1742 C 0.74039 0.6874 0.75498 0.0
C1743 C 0.75074 0.68957 0.77922 0.0
C1744 C 0.7614 0.67994 0.78164 0.0
C1745 C 0.76118 0.66762 0.76151 0.0
C1746 C 0.7716 0.65684 0.7711 0.0
C1747 C 0.75766 0.63471 0.77125 0.0
C1748 C 0.78938 0.66202 0.75369 0.0
C1749 C 0.77762 0.66505 0.79973 0.0
C1750 C 0.77209 0.67881 0.8049 0.0
C1751 C 0.77594 0.68854 0.82972 0.0
C1752 C 0.78479 0.68336 0.85039 0.0
C1753 C 0.7892 0.66816 0.84646 0.0
C1754 C 0.78617 0.65938 0.82043 0.0
H1755 H 0.76965 0.71418 0.6028 0.0
H1756 H 0.73758 0.65248 0.62093 0.0
H1757 H 0.75492 0.64588 0.58482 0.0
H1758 H 0.76762 0.70772 0.53075 0.0
H1759 H 0.79138 0.72826 0.52551 0.0
H1760 H 0.7775 0.72809 0.55414 0.0
H1761 H 0.80603 0.73374 0.58647 0.0
H1762 H 0.81986 0.73357 0.5579 0.0
H1763 H 0.81533 0.71699 0.58561 0.0
H1764 H 0.77559 0.64597 0.54646 0.0
H1765 H 0.79398 0.65201 0.50408 0.0
H1766 H 0.81133 0.71332 0.50947 0.0
C1767 C 0.76635 0.69929 0.59921 0.0
C1768 C 0.75233 0.68384 0.61471 0.0
C1769 C 0.74819 0.66452 0.60918 0.0
C1770 C 0.75811 0.66066 0.58892 0.0
C1771 C 0.77199 0.67625 0.57416 0.0
C1772 C 0.77584 0.69514 0.57871 0.0
C1773 C 0.79022 0.70903 0.55851 0.0
C1774 C 0.78113 0.71885 0.5412 0.0
C1775 C 0.80897 0.72423 0.573 0.0
C1776 C 0.79369 0.69499 0.54172 0.0
C1777 C 0.78337 0.67621 0.55144 0.0
C1778 C 0.78382 0.66063 0.53875 0.0
C1779 C 0.79444 0.6642 0.51486 0.0
C1780 C 0.80421 0.68314 0.50376 0.0
C1781 C 0.8042 0.69876 0.5178 0.0
H1782 H 0.31568 0.07274 0.60983 0.0
H1783 H 0.35575 0.05558 0.57808 0.0
H1784 H 0.36051 0.07573 0.53757 0.0
H1785 H 0.29431 0.06968 0.5402 0.0
H1786 H 0.2887 0.08879 0.54702 0.0
H1787 H 0.28863 0.07343 0.57422 0.0
H1788 H 0.31401 0.10418 0.60194 0.0
H1789 H 0.31257 0.11875 0.57473 0.0
H1790 H 0.33568 0.12173 0.58515 0.0
H1791 H 0.36623 0.10244 0.50655 0.0
H1792 H 0.36182 0.12327 0.47319 0.0
H1793 H 0.31323 0.1186 0.51837 0.0
C1794 C 0.32547 0.07337 0.59429 0.0
C1795 C 0.33661 0.06395 0.59777 0.0
C1796 C 0.3482 0.06384 0.57641 0.0
C1797 C 0.35092 0.07516 0.55338 0.0
C1798 C 0.34132 0.08587 0.55167 0.0
C1799 C 0.32793 0.08422 0.57056 0.0
C1800 C 0.31761 0.09521 0.56128 0.0
C1801 C 0.29603 0.08093 0.55532 0.0
C1802 C 0.32013 0.11087 0.58205 0.0
C1803 C 0.32838 0.10434 0.53532 0.0
C1804 C 0.34233 0.09905 0.53081 0.0
C1805 C 0.35504 0.10632 0.50933 0.0
C1806 C 0.35264 0.11838 0.49082 0.0
C1807 C 0.33729 0.12252 0.49341 0.0
C1808 C 0.32522 0.11581 0.51624 0.0
H1809 H 0.9375 0.22834 0.61823 0.0
H1810 H 0.93102 0.27992 0.6207 0.0
H1811 H 0.91191 0.26962 0.57817 0.0
H1812 H 0.94439 0.22896 0.54785 0.0
H1813 H 0.93101 0.2029 0.54304 0.0
H1814 H 0.94251 0.21305 0.57538 0.0
H1815 H 0.90959 0.19299 0.59914 0.0
H1816 H 0.89796 0.1828 0.56679 0.0
H1817 H 0.88898 0.19517 0.58787 0.0
H1818 H 0.89622 0.25591 0.534 0.0
H1819 H 0.88503 0.23931 0.48947 0.0
H1820 H 0.90098 0.19629 0.51455 0.0
C1821 C 0.9318 0.23728 0.61001 0.0
C1822 C 0.93583 0.25496 0.62282 0.0
C1823 C 0.92829 0.26639 0.61123 0.0
C1824 C 0.91727 0.2606 0.58714 0.0
C1825 C 0.9138 0.24331 0.57482 0.0
C1826 C 0.92078 0.23175 0.58575 0.0
C1827 C 0.916 0.21456 0.56719 0.0
C1828 C 0.93458 0.2149 0.55781 0.0
C1829 C 0.90232 0.19523 0.58108 0.0
C1830 C 0.90578 0.21865 0.54387 0.0
C1831 C 0.9045 0.23521 0.54895 0.0
C1832 C 0.89685 0.24276 0.52988 0.0
C1833 C 0.8906 0.23331 0.50469 0.0
C1834 C 0.89203 0.21652 0.49886 0.0
C1835 C 0.8994 0.20889 0.51884 0.0
H1836 H 0.34977 0.28815 0.57187 0.0
H1837 H 0.32976 0.24464 0.63499 0.0
H1838 H 0.32853 0.22021 0.60214 0.0
H1839 H 0.31591 0.25427 0.52367 0.0
H1840 H 0.33102 0.26484 0.49464 0.0
H1841 H 0.33343 0.27991 0.52356 0.0
H1842 H 0.37077 0.29064 0.53046 0.0
H1843 H 0.36717 0.27776 0.4988 0.0
H1844 H 0.37714 0.27159 0.52754 0.0
H1845 H 0.32917 0.20039 0.56154 0.0
H1846 H 0.3283 0.18632 0.51605 0.0
H1847 H 0.34582 0.24271 0.47992 0.0
C1848 C 0.34574 0.27363 0.57882 0.0
C1849 C 0.34071 0.26836 0.60605 0.0
C1850 C 0.33421 0.24895 0.61426 0.0
C1851 C 0.3335 0.23504 0.5958 0.0
C1852 C 0.3386 0.24065 0.56898 0.0
C1853 C 0.34429 0.25942 0.56042 0.0
C1854 C 0.34608 0.26094 0.52984 0.0
C1855 C 0.33069 0.26524 0.5172 0.0
C1856 C 0.36653 0.27619 0.52126 0.0
C1857 C 0.34181 0.24054 0.52284 0.0
C1858 C 0.33738 0.22893 0.54552 0.0
C1859 C 0.33265 0.20939 0.54362 0.0
C1860 C 0.33231 0.20154 0.51778 0.0
C1861 C 0.33668 0.21327 0.49431 0.0
C1862 C 0.34184 0.2331 0.49724 0.0
H1863 H 0.77277 0.08259 0.60709 0.0
H1864 H 0.72756 0.09854 0.60774 0.0
H1865 H 0.74311 0.12094 0.56967 0.0
H1866 H 0.81287 0.13072 0.58876 0.0
H1867 H 0.82374 0.12055 0.56697 0.0
H1868 H 0.81016 0.1071 0.59599 0.0
H1869 H 0.788 0.07768 0.5648 0.0
H1870 H 0.80164 0.09095 0.53582 0.0
H1871 H 0.77576 0.08129 0.53601 0.0
H1872 H 0.76197 0.13965 0.5295 0.0
H1873 H 0.78145 0.1514 0.48798 0.0
H1874 H 0.81452 0.1236 0.51322 0.0
C1875 C 0.76623 0.09095 0.59947 0.0
C1876 C 0.74892 0.08879 0.61055 0.0
C1877 C 0.74077 0.09986 0.59966 0.0
C1878 C 0.74958 0.11276 0.57813 0.0
C1879 C 0.76659 0.1145 0.5677 0.0
C1880 C 0.77479 0.10383 0.5779 0.0
C1881 C 0.79228 0.10729 0.56168 0.0
C1882 C 0.81087 0.117 0.57941 0.0
C1883 C 0.78923 0.08817 0.54881 0.0
C1884 C 0.79234 0.12118 0.54032 0.0
C1885 C 0.77756 0.12538 0.54444 0.0
C1886 C 0.77377 0.13673 0.5263 0.0
C1887 C 0.78493 0.1434 0.50286 0.0
C1888 C 0.79967 0.1387 0.49776 0.0
C1889 C 0.80375 0.12791 0.51711 0.0
H1890 H 0.95158 0.67245 0.57144 0.0
H1891 H 0.92859 0.69307 0.63452 0.0
H1892 H 0.91 0.70032 0.59976 0.0
H1893 H 0.95803 0.71308 0.52694 0.0
H1894 H 0.95445 0.69938 0.49605 0.0
H1895 H 0.96508 0.69458 0.52568 0.0
H1896 H 0.93701 0.65699 0.52672 0.0
H1897 H 0.93087 0.66344 0.4944 0.0
H1898 H 0.91272 0.65261 0.51957 0.0
H1899 H 0.89121 0.70163 0.55802 0.0
H1900 H 0.87797 0.7022 0.51222 0.0
H1901 H 0.91667 0.68435 0.47694 0.0
C1902 C 0.94236 0.67821 0.57778 0.0
C1903 C 0.94053 0.6813 0.60549 0.0
C1904 C 0.92952 0.69008 0.61328 0.0
C1905 C 0.919 0.69425 0.59375 0.0
C1906 C 0.92064 0.69056 0.5665 0.0
C1907 C 0.93257 0.68336 0.55846 0.0
C1908 C 0.93373 0.68307 0.52782 0.0
C1909 C 0.95402 0.69844 0.51859 0.0
C1910 C 0.9283 0.6628 0.5166 0.0
C1911 C 0.91876 0.68888 0.52 0.0
C1912 C 0.91162 0.69352 0.54249 0.0
C1913 C 0.89693 0.69835 0.5402 0.0
C1914 C 0.88936 0.69844 0.51419 0.0
C1915 C 0.89645 0.6936 0.49091 0.0
C1916 C 0.91133 0.68877 0.49411 0.0
H1917 H 0.90073 0.63327 0.71734 0.0
H1918 H 0.94769 0.69299 0.71268 0.0
H1919 H 0.93244 0.70281 0.74784 0.0
H1920 H 0.86157 0.64419 0.73171 0.0
H1921 H 0.85022 0.62469 0.75579 0.0
H1922 H 0.86344 0.62245 0.72787 0.0
H1923 H 0.88517 0.61601 0.76155 0.0
H1924 H 0.87171 0.61778 0.78937 0.0
H1925 H 0.89768 0.63312 0.78888 0.0
H1926 H 0.91356 0.70612 0.78483 0.0
H1927 H 0.89518 0.70158 0.82674 0.0
H1928 H 0.86092 0.63976 0.80916 0.0
C1929 C 0.90768 0.64842 0.72364 0.0
C1930 C 0.92538 0.66235 0.71231 0.0
C1931 C 0.93422 0.68201 0.72127 0.0
C1932 C 0.92553 0.6878 0.74095 0.0
C1933 C 0.90804 0.67378 0.75162 0.0
C1934 C 0.89936 0.65442 0.74368 0.0
C1935 C 0.88175 0.64197 0.76062 0.0
C1936 C 0.86314 0.63278 0.74293 0.0
C1937 C 0.88424 0.62631 0.77602 0.0
C1938 C 0.88228 0.65727 0.7798 0.0
C1939 C 0.89725 0.6756 0.7737 0.0
C1940 C 0.90162 0.6919 0.78965 0.0
C1941 C 0.89108 0.68923 0.8133 0.0
C1942 C 0.87653 0.6704 0.82088 0.0
C1943 C 0.87156 0.65438 0.80334 0.0
H1944 H 0.3822 0.27883 0.71941 0.0
H1945 H 0.32129 0.26274 0.71575 0.0
H1946 H 0.31438 0.23859 0.7515 0.0
H1947 H 0.37501 0.22996 0.734 0.0
H1948 H 0.39536 0.23899 0.7575 0.0
H1949 H 0.39557 0.25391 0.72957 0.0
H1950 H 0.40146 0.2817 0.76319 0.0
H1951 H 0.40161 0.26699 0.79105 0.0
H1952 H 0.38512 0.27656 0.79095 0.0
H1953 H 0.31397 0.21775 0.78911 0.0
H1954 H 0.32102 0.20432 0.83039 0.0
H1955 H 0.38198 0.23368 0.81077 0.0
C1956 C 0.36741 0.27014 0.72603 0.0
C1957 C 0.35233 0.27274 0.71473 0.0
C1958 C 0.33317 0.26118 0.72416 0.0
C1959 C 0.32901 0.24722 0.74427 0.0
C1960 C 0.34413 0.24493 0.75484 0.0
C1961 C 0.36299 0.2562 0.74636 0.0
C1962 C 0.37676 0.25195 0.7629 0.0
C1963 C 0.38623 0.24318 0.74491 0.0
C1964 C 0.39213 0.27039 0.77792 0.0
C1965 C 0.36274 0.23697 0.78247 0.0
C1966 C 0.34393 0.23285 0.77701 0.0
C1967 C 0.32858 0.2206 0.79341 0.0
C1968 C 0.33267 0.21299 0.8167 0.0
C1969 C 0.35195 0.21777 0.82336 0.0
C1970 C 0.36705 0.22937 0.80558 0.0
H1971 H 0.74725 0.11043 0.72256 0.0
H1972 H 0.72611 0.05054 0.74656 0.0
H1973 H 0.74508 0.06173 0.78937 0.0
H1974 H 0.79567 0.13347 0.75404 0.0
H1975 H 0.7942 0.1542 0.76611 0.0
H1976 H 0.78075 0.14129 0.73596 0.0
H1977 H 0.7493 0.13681 0.75864 0.0
H1978 H 0.7631 0.14927 0.78875 0.0
H1979 H 0.7426 0.12508 0.79121 0.0
H1980 H 0.76842 0.0787 0.82651 0.0
H1981 H 0.78602 0.10024 0.86535 0.0
H1982 H 0.78871 0.14951 0.82234 0.0
C1983 C 0.74689 0.09979 0.7368 0.0
C1984 C 0.73644 0.07963 0.73059 0.0
C1985 C 0.73511 0.06603 0.7503 0.0
C1986 C 0.74576 0.07224 0.77466 0.0
C1987 C 0.75715 0.09216 0.77938 0.0
C1988 C 0.75714 0.10579 0.76174 0.0
C1989 C 0.76846 0.12617 0.77405 0.0
C1990 C 0.78578 0.13956 0.75647 0.0
C1991 C 0.75506 0.13484 0.77843 0.0
C1992 C 0.77517 0.12176 0.80095 0.0
C1993 C 0.76888 0.10205 0.80298 0.0
C1994 C 0.77324 0.09413 0.82543 0.0
C1995 C 0.78339 0.10648 0.84721 0.0
C1996 C 0.7887 0.12643 0.84666 0.0
C1997 C 0.78502 0.13435 0.82299 0.0
H1998 H 0.04203 0.35265 0.04724 0.0
H1999 H 0.08135 0.40306 0.0002 0.0
H2000 H 0.10787 0.39658 0.0106 0.0
H2001 H 0.07668 0.36095 0.10045 0.0
H2002 H 0.06858 0.33552 0.10611 0.0
H2003 H 0.05183 0.34289 0.09309 0.0
H2004 H 0.04393 0.31966 0.05175 0.0
H2005 H 0.06078 0.31233 0.0646 0.0
H2006 H 0.06333 0.32194 0.03074 0.0
H2007 H 0.13082 0.38562 0.0265 0.0
H2008 H 0.14919 0.37242 0.05142 0.0
H2009 H 0.09619 0.33007 0.0898 0.0
C2010 C 0.05617 0.36219 0.03897 0.0
C2011 C 0.05937 0.37825 0.02266 0.0
C2012 C 0.07828 0.39057 0.01264 0.0
C2013 C 0.09356 0.387 0.01831 0.0
C2014 C 0.08998 0.37114 0.03434 0.0
C2015 C 0.07186 0.35904 0.04487 0.0
C2016 C 0.07251 0.34391 0.06324 0.0
C2017 C 0.06708 0.34595 0.09245 0.0
C2018 C 0.05935 0.32324 0.0519 0.0
C2019 C 0.09378 0.34964 0.06153 0.0
C2020 C 0.10352 0.36518 0.04437 0.0
C2021 C 0.12337 0.37337 0.03995 0.0
C2022 C 0.13368 0.36576 0.05403 0.0
C2023 C 0.12414 0.35033 0.07252 0.0
C2024 C 0.10386 0.34196 0.07583 0.0
H2025 H 0.63278 0.67309 0.05214 0.0
H2026 H 0.67599 0.69181 0.98966 0.0
H2027 H 0.68327 0.72606 -0.00366 0.0
H2028 H 0.61497 0.70683 0.03305 0.0
H2029 H 0.61046 0.71025 0.06785 0.0
H2030 H 0.60849 0.68747 0.05719 0.0
H2031 H 0.63325 0.69088 0.09494 0.0
H2032 H 0.63522 0.71357 0.10575 0.0
H2033 H 0.65666 0.71263 0.0966 0.0
H2034 H 0.68838 0.75877 0.01502 0.0
H2035 H 0.68965 0.78598 0.04152 0.0
H2036 H 0.63914 0.74467 0.08591 0.0
C2037 C 0.6437 0.68443 0.03977 0.0
C2038 C 0.65405 0.68004 0.02066 0.0
C2039 C 0.668 0.69505 0.00447 0.0
C2040 C 0.67217 0.71446 0.00812 0.0
C2041 C 0.66173 0.71837 0.02736 0.0
C2042 C 0.6475 0.70364 0.04248 0.0
C2043 C 0.63833 0.71145 0.06186 0.0
C2044 C 0.61679 0.70353 0.05454 0.0
C2045 C 0.64104 0.70687 0.09153 0.0
C2046 C 0.65013 0.73301 0.05619 0.0
C2047 C 0.66362 0.73683 0.03634 0.0
C2048 C 0.67753 0.7559 0.03008 0.0
C2049 C 0.67803 0.77134 0.04513 0.0
C2050 C 0.66456 0.76764 0.06605 0.0
C2051 C 0.6499 0.74818 0.07046 0.0
H2052 H 0.32406 0.98275 0.06629 0.0
H2053 H 0.33 0.95391 0.995 0.0
H2054 H 0.2978 0.92556 0.00301 0.0
H2055 H 0.30277 0.94252 0.1074 0.0
H2056 H 0.28611 0.94849 0.12356 0.0
H2057 H 0.3084 0.96757 0.1103 0.0
H2058 H 0.2892 0.97972 0.08067 0.0
H2059 H 0.26679 0.96067 0.09397 0.0
H2060 H 0.27031 0.96297 0.05778 0.0
H2061 H 0.26776 0.8984 0.02302 0.0
H2062 H 0.24169 0.8753 0.05211 0.0
H2063 H 0.25286 0.92271 0.10769 0.0
C2064 C 0.31837 0.97067 0.05199 0.0
C2065 C 0.32956 0.97058 0.02999 0.0
C2066 C 0.32168 0.95439 0.0119 0.0
C2067 C 0.30336 0.9382 0.01627 0.0
C2068 C 0.29289 0.93853 0.0385 0.0
C2069 C 0.29994 0.95448 0.05582 0.0
C2070 C 0.28627 0.95064 0.0791 0.0
C2071 C 0.2965 0.95241 0.10671 0.0
C2072 C 0.27763 0.96431 0.07779 0.0
C2073 C 0.27096 0.92974 0.0729 0.0
C2074 C 0.27497 0.92306 0.04931 0.0
C2075 C 0.26412 0.90362 0.04111 0.0
C2076 C 0.24913 0.89056 0.05779 0.0
C2077 C 0.24491 0.89696 0.08242 0.0
C2078 C 0.25563 0.91707 0.08927 0.0
H2079 H 0.38595 0.05596 0.95594 0.0
H2080 H 0.37444 0.0677 0.03747 0.0
H2081 H 0.36632 0.09217 0.01963 0.0
H2082 H 0.40913 0.10454 0.93418 0.0
H2083 H 0.39933 0.09916 0.89997 0.0
H2084 H 0.40242 0.08127 0.9188 0.0
H2085 H 0.36604 0.05609 0.9112 0.0
H2086 H 0.36288 0.07386 0.89207 0.0
H2087 H 0.3479 0.06228 0.92093 0.0
H2088 H 0.36166 0.11715 0.9929 0.0
H2089 H 0.35924 0.13923 0.95896 0.0
H2090 H 0.37464 0.11141 0.89555 0.0
C2091 C 0.38123 0.06337 0.96984 0.0
C2092 C 0.38066 0.05996 -0.00202 0.0
C2093 C 0.37496 0.0702 0.01581 0.0
C2094 C 0.37029 0.08408 0.00586 0.0
C2095 C 0.37147 0.08755 0.97802 0.0
C2096 C 0.37665 0.07737 0.96023 0.0
C2097 C 0.37776 0.08451 0.93145 0.0
C2098 C 0.39838 0.09287 0.92047 0.0
C2099 C 0.36275 0.06822 0.91282 0.0
C2100 C 0.37258 0.10038 0.93588 0.0
C2101 C 0.36893 0.10193 0.96281 0.0
C2102 C 0.36431 0.11596 0.97168 0.0
C2103 C 0.3631 0.12851 0.95237 0.0
C2104 C 0.36647 0.12686 0.92461 0.0
C2105 C 0.37151 0.11274 0.91653 0.0
H2106 H 0.95668 0.32706 0.95186 0.0
H2107 H 0.97295 0.3048 0.02206 0.0
H2108 H 0.94384 0.27231 0.01444 0.0
H2109 H 0.90553 0.30172 0.96574 0.0
H2110 H 0.89823 0.29763 0.93037 0.0
H2111 H 0.92084 0.31862 0.94048 0.0
H2112 H 0.93948 0.30831 0.90761 0.0
H2113 H 0.91689 0.28759 0.89699 0.0
H2114 H 0.93639 0.28413 0.90989 0.0
H2115 H 0.91375 0.24162 -0.00352 0.0
H2116 H 0.88624 0.21603 0.97006 0.0
H2117 H 0.88667 0.26032 0.91715 0.0
C2118 C 0.95428 0.31519 0.96525 0.0
C2119 C 0.96726 0.3181 0.98701 0.0
C2120 C 0.96332 0.30259 0.00489 0.0
C2121 C 0.94677 0.2842 0.00085 0.0
C2122 C 0.934 0.28186 0.97941 0.0
C2123 C 0.93751 0.29703 0.9621 0.0
C2124 C 0.92129 0.29106 0.94121 0.0
C2125 C 0.91086 0.30297 0.94467 0.0
C2126 C 0.92897 0.29287 0.91222 0.0
C2127 C 0.90835 0.26998 0.94888 0.0
C2128 C 0.91591 0.26484 0.97085 0.0
C2129 C 0.90749 0.24558 0.9796 0.0
C2130 C 0.89162 0.23111 0.96464 0.0
C2131 C 0.88416 0.23599 0.94132 0.0
C2132 C 0.89202 0.25592 0.93464 0.0
H2133 H 0.70019 0.65015 0.99025 0.0
H2134 H 0.68779 0.59489 0.02605 0.0
H2135 H 0.71907 0.59964 0.01075 0.0
H2136 H 0.72097 0.64562 0.9319 0.0
H2137 H 0.73972 0.67074 0.9299 0.0
H2138 H 0.71756 0.66454 0.94692 0.0
H2139 H 0.73712 0.68221 0.99055 0.0
H2140 H 0.7594 0.6885 0.9736 0.0
H2141 H 0.75397 0.67551 0.00526 0.0
H2142 H 0.74866 0.60725 0.98515 0.0
H2143 H 0.77479 0.61786 0.95215 0.0
H2144 H 0.77081 0.67012 0.93701 0.0
C2145 C 0.70424 0.63928 -0.00458 0.0
C2146 C 0.69135 0.62212 0.0093 0.0
C2147 C 0.69724 0.60817 0.0154 0.0
C2148 C 0.7151 0.61075 0.00691 0.0
C2149 C 0.72723 0.62753 0.99273 0.0
C2150 C 0.72222 0.64172 0.98735 0.0
C2151 C 0.73736 0.65772 0.97005 0.0
C2152 C 0.72836 0.65976 0.94311 0.0
C2153 C 0.74757 0.67714 0.98582 0.0
C2154 C 0.75103 0.64973 0.96544 0.0
C2155 C 0.74501 0.63239 0.9789 0.0
C2156 C 0.7539 0.62112 0.97511 0.0
C2157 C 0.76892 0.62739 0.95637 0.0
C2158 C 0.77505 0.64488 0.94171 0.0
C2159 C 0.76646 0.65655 0.94747 0.0
H2160 H 0.97627 0.65995 0.92738 0.0
H2161 H 0.96811 0.66526 0.01319 0.0
H2162 H 0.93996 0.66969 0.00207 0.0
H2163 H 0.96086 0.69424 0.90192 0.0
H2164 H 0.94866 0.6792 0.8726 0.0
H2165 H 0.96954 0.67906 0.88738 0.0
H2166 H 0.94941 0.64155 0.89258 0.0
H2167 H 0.92847 0.64161 0.87803 0.0
H2168 H 0.9271 0.63113 0.91104 0.0
H2169 H 0.91092 0.67124 0.98108 0.0
H2170 H 0.88433 0.66997 0.95214 0.0
H2171 H 0.91091 0.66102 0.8812 0.0
C2172 C 0.96891 0.66262 0.94378 0.0
C2173 C 0.97452 0.66256 0.9711 0.0
C2174 C 0.96413 0.66545 0.99207 0.0
C2175 C 0.94812 0.66796 0.98595 0.0
C2176 C 0.94259 0.66738 0.95877 0.0
C2177 C 0.95274 0.66481 0.93805 0.0
C2178 C 0.94302 0.66311 0.91072 0.0
C2179 C 0.95631 0.67991 0.89206 0.0
C2180 C 0.93662 0.64317 0.89732 0.0
C2181 C 0.92577 0.66497 0.91928 0.0
C2182 C 0.92576 0.66763 0.94697 0.0
C2183 C 0.91088 0.66931 0.9593 0.0
C2184 C 0.89576 0.66844 0.94276 0.0
C2185 C 0.89562 0.6658 0.91427 0.0
C2186 C 0.91079 0.66379 0.90272 0.0
H2187 H 0.37002 0.32406 0.94701 0.0
H2188 H 0.36714 0.3048 0.03006 0.0
H2189 H 0.35922 0.27205 0.0137 0.0
H2190 H 0.33214 0.27662 0.91671 0.0
H2191 H 0.34594 0.2804 0.88638 0.0
H2192 H 0.34767 0.30099 0.90472 0.0
H2193 H 0.38499 0.31587 0.90847 0.0
H2194 H 0.38336 0.29528 0.89045 0.0
H2195 H 0.39495 0.30179 0.92357 0.0
H2196 H 0.35518 0.24233 0.98794 0.0
H2197 H 0.35508 0.2185 0.95496 0.0
H2198 H 0.36347 0.2588 0.88959 0.0
C2199 C 0.36689 0.31267 0.96165 0.0
C2200 C 0.36869 0.31672 0.98973 0.0
C2201 C 0.36547 0.30181 0.00843 0.0
C2202 C 0.36099 0.28317 -0.00067 0.0
C2203 C 0.35999 0.27976 0.97143 0.0
C2204 C 0.36278 0.2941 0.95286 0.0
C2205 C 0.36318 0.28753 0.92415 0.0
C2206 C 0.34622 0.28631 0.90698 0.0
C2207 C 0.38278 0.30091 0.91091 0.0
C2208 C 0.36057 0.26748 0.92952 0.0
C2209 C 0.35846 0.26306 0.95679 0.0
C2210 C 0.35659 0.24555 0.96645 0.0
C2211 C 0.35672 0.23217 0.94763 0.0
C2212 C 0.35889 0.23649 0.91953 0.0
C2213 C 0.36102 0.25454 0.9107 0.0
H2214 H 0.6938 0.03286 0.96171 0.0
H2215 H 0.69158 0.06064 0.03659 0.0
H2216 H 0.72221 0.09008 0.02514 0.0
H2217 H 0.74731 0.0544 0.96171 0.0
H2218 H 0.74812 0.05681 0.92525 0.0
H2219 H 0.7271 0.03733 0.94087 0.0
H2220 H 0.70528 0.04871 0.91621 0.0
H2221 H 0.72622 0.06831 0.90078 0.0
H2222 H 0.71039 0.0735 0.92064 0.0
H2223 H 0.75149 0.11809 0.00264 0.0
H2224 H 0.77715 0.14105 0.97189 0.0
H2225 H 0.76072 0.09389 0.91373 0.0
C2226 C 0.69996 0.04496 0.97598 0.0
C2227 C 0.69029 0.04441 4e-05 0.0
C2228 C 0.69877 0.06066 0.01807 0.0
C2229 C 0.71618 0.07749 0.01174 0.0
C2230 C 0.7251 0.07776 0.9875 0.0
C2231 C 0.71741 0.06179 0.97012 0.0
C2232 C 0.7293 0.06602 0.9448 0.0
C2233 C 0.73851 0.05286 0.94307 0.0
C2234 C 0.71706 0.06402 0.91911 0.0
C2235 C 0.74448 0.08702 0.95023 0.0
C2236 C 0.74198 0.09362 0.97496 0.0
C2237 C 0.75373 0.11299 0.98337 0.0
C2238 C 0.76827 0.12593 0.96584 0.0
C2239 C 0.77076 0.11941 0.94021 0.0
C2240 C 0.75895 0.09955 0.93288 0.0
H2241 H 0.61625 0.93182 0.05578 0.0
H2242 H 0.67038 0.97292 0.01876 0.0
H2243 H 0.68185 0.94891 0.02268 0.0
H2244 H 0.63786 0.91331 0.10467 0.0
H2245 H 0.61738 0.88899 0.10302 0.0
H2246 H 0.61399 0.90958 0.09662 0.0
H2247 H 0.59779 0.89407 0.0501 0.0
H2248 H 0.60193 0.87385 0.05597 0.0
H2249 H 0.61105 0.88834 0.02583 0.0
H2250 H 0.68676 0.91982 0.02921 0.0
H2251 H 0.68836 0.89166 0.04825 0.0
H2252 H 0.63147 0.87009 0.0823 0.0
C2253 C 0.63065 0.93587 0.04892 0.0
C2254 C 0.6425 0.95423 0.03709 0.0
C2255 C 0.66123 0.95904 0.02829 0.0
C2256 C 0.6677 0.94537 0.03 0.0
C2257 C 0.65532 0.92708 0.04079 0.0
C2258 C 0.63743 0.92256 0.05086 0.0
C2259 C 0.62745 0.90245 0.06324 0.0
C2260 C 0.62398 0.90366 0.09369 0.0
C2261 C 0.60843 0.88888 0.04786 0.0
C2262 C 0.64256 0.89635 0.05875 0.0
C2263 C 0.65832 0.91055 0.04514 0.0
C2264 C 0.67447 0.90857 0.03975 0.0
C2265 C 0.67512 0.89234 0.05022 0.0
C2266 C 0.65988 0.87855 0.06629 0.0
C2267 C 0.64303 0.88012 0.06941 0.0
H2268 H 0.04597 0.70131 0.03809 0.0
H2269 H 0.08572 0.69708 0.98243 0.0
H2270 H 0.11009 0.73065 0.9928 0.0
H2271 H 0.06334 0.75498 0.02814 0.0
H2272 H 0.0616 0.759 0.06378 0.0
H2273 H 0.0452 0.73575 0.04828 0.0
H2274 H 0.05564 0.71837 0.08401 0.0
H2275 H 0.07189 0.74151 0.09966 0.0
H2276 H 0.081 0.72585 0.08837 0.0
H2277 H 0.13186 0.7621 0.01273 0.0
H2278 H 0.15102 0.7883 0.04495 0.0
H2279 H 0.09861 0.77483 0.08855 0.0
C2280 C 0.05963 0.70768 0.02765 0.0
C2281 C 0.06366 0.69653 0.00902 0.0
C2282 C 0.08199 0.70522 -0.00356 0.0
C2283 C 0.09602 0.72445 0.00206 0.0
C2284 C 0.09177 0.73498 0.02061 0.0
C2285 C 0.07416 0.72697 0.03351 0.0
C2286 C 0.07464 0.74078 0.05545 0.0
C2287 C 0.06034 0.74806 0.04849 0.0
C2288 C 0.07056 0.73105 0.08352 0.0
C2289 C 0.09553 0.75717 0.05358 0.0
C2290 C 0.10488 0.75366 0.0328 0.0
C2291 C 0.12465 0.76536 0.02871 0.0
C2292 C 0.13546 0.78049 0.04717 0.0
C2293 C 0.12654 0.78397 0.06963 0.0
C2294 C 0.10606 0.77265 0.07187 0.0
H2295 H 0.33279 0.3836 0.0458 0.0
H2296 H 0.31381 0.3481 0.97265 0.0
H2297 H 0.28046 0.34282 0.97852 0.0
H2298 H 0.29196 0.35716 0.08429 0.0
H2299 H 0.29228 0.37801 0.09981 0.0
H2300 H 0.31446 0.37975 0.08831 0.0
H2301 H 0.3205 0.40927 0.05844 0.0
H2302 H 0.29816 0.40745 0.06971 0.0
H2303 H 0.30225 0.40681 0.0339 0.0
H2304 H 0.24814 0.33739 -0.00257 0.0
H2305 H 0.22112 0.33352 0.02599 0.0
H2306 H 0.26252 0.37729 0.08195 0.0
C2307 C 0.32162 0.37491 0.03086 0.0
C2308 C 0.32567 0.36608 0.00893 0.0
C2309 C 0.31087 0.35496 0.98959 0.0
C2310 C 0.29195 0.35195 0.99275 0.0
C2311 C 0.28834 0.36077 0.01482 0.0
C2312 C 0.30294 0.37237 0.03319 0.0
C2313 C 0.2954 0.3799 0.0555 0.0
C2314 C 0.29872 0.3733 0.08362 0.0
C2315 C 0.30463 0.40218 0.0543 0.0
C2316 C 0.27408 0.36997 0.04769 0.0
C2317 C 0.27017 0.35895 0.02421 0.0
C2318 C 0.25111 0.34642 0.01538 0.0
C2319 C 0.23577 0.34445 0.03162 0.0
C2320 C 0.23958 0.35507 0.05633 0.0
C2321 C 0.25901 0.36887 0.06327 0.0
H2322 H 0.73833 0.73712 0.38825 0.0
H2323 H 0.69817 0.68106 0.352 0.0
H2324 H 0.72178 0.66965 0.36094 0.0
H2325 H 0.78225 0.74078 0.36447 0.0
H2326 H 0.79586 0.75133 0.3955 0.0
H2327 H 0.77601 0.75527 0.38599 0.0
H2328 H 0.75952 0.74131 0.432 0.0
H2329 H 0.77957 0.73785 0.4419 0.0
H2330 H 0.75519 0.71758 0.44235 0.0
H2331 H 0.75049 0.66497 0.37225 0.0
H2332 H 0.77907 0.66493 0.39322 0.0
H2333 H 0.79963 0.72345 0.42401 0.0
C2334 C 0.73444 0.72237 0.38245 0.0
C2335 C 0.71645 0.70994 0.36945 0.0
C2336 C 0.7118 0.69073 0.36226 0.0
C2337 C 0.72521 0.68423 0.36693 0.0
C2338 C 0.74307 0.69705 0.37912 0.0
C2339 C 0.74748 0.71555 0.38741 0.0
C2340 C 0.76716 0.72608 0.40155 0.0
C2341 C 0.78114 0.74445 0.38594 0.0
C2342 C 0.76524 0.73099 0.43121 0.0
C2343 C 0.77317 0.71063 0.39994 0.0
C2344 C 0.75926 0.69414 0.38643 0.0
C2345 C 0.76148 0.67781 0.38283 0.0
C2346 C 0.77787 0.678 0.39448 0.0
C2347 C 0.79163 0.69428 0.40984 0.0
C2348 C 0.78947 0.71097 0.41192 0.0
H2349 H 0.33374 0.02487 0.39832 0.0
H2350 H 0.30345 0.0162 0.32098 0.0
H2351 H 0.30638 0.04883 0.32534 0.0
H2352 H 0.31259 0.04752 0.43211 0.0
H2353 H 0.3341 0.06467 0.45069 0.0
H2354 H 0.3315 0.04174 0.43981 0.0
H2355 H 0.36404 0.05981 0.41448 0.0
H2356 H 0.36677 0.08284 0.42547 0.0
H2357 H 0.36748 0.0781 0.38979 0.0
H2358 H 0.3086 0.0809 0.34213 0.0
H2359 H 0.31174 0.10931 0.36855 0.0
H2360 H 0.34298 0.09744 0.43208 0.0
C2361 C 0.32813 0.03002 0.382 0.0
C2362 C 0.31841 0.01803 0.35933 0.0
C2363 C 0.31113 0.02524 0.33845 0.0
C2364 C 0.31269 0.04374 0.34078 0.0
C2365 C 0.32195 0.05505 0.3638 0.0
C2366 C 0.3299 0.04855 0.38375 0.0
C2367 C 0.33841 0.06296 0.40705 0.0
C2368 C 0.32855 0.05367 0.43399 0.0
C2369 C 0.36049 0.07143 0.40931 0.0
C2370 C 0.33332 0.07818 0.3977 0.0
C2371 C 0.32387 0.07356 0.37271 0.0
C2372 C 0.31633 0.08484 0.36148 0.0
C2373 C 0.31817 0.10095 0.37651 0.0
C2374 C 0.32739 0.10544 0.40243 0.0
C2375 C 0.33564 0.09426 0.41242 0.0
H2376 H 0.97986 0.31176 0.3687 0.0
H2377 H 0.98522 0.27816 0.303 0.0
H2378 H 0.9542 0.24979 0.31548 0.0
H2379 H 0.96173 0.27592 0.41627 0.0
H2380 H 0.94452 0.28184 0.43074 0.0
H2381 H 0.96568 0.30045 0.41444 0.0
H2382 H 0.94406 0.3079 0.38211 0.0
H2383 H 0.92276 0.28939 0.39853 0.0
H2384 H 0.92506 0.28844 0.36226 0.0
H2385 H 0.92643 0.2234 0.34081 0.0
H2386 H 0.90249 0.20223 0.37389 0.0
H2387 H 0.91149 0.25363 0.41886 0.0
C2388 C 0.97419 0.29862 0.35643 0.0
C2389 C 0.98501 0.29725 0.33485 0.0
C2390 C 0.97718 0.27969 0.31949 0.0
C2391 C 0.95954 0.26342 0.32645 0.0
C2392 C 0.94953 0.26502 0.34838 0.0
C2393 C 0.95629 0.28233 0.36269 0.0
C2394 C 0.94316 0.27983 0.38622 0.0
C2395 C 0.95445 0.2848 0.41352 0.0
C2396 C 0.93316 0.29212 0.38202 0.0
C2397 C 0.9287 0.25821 0.38379 0.0
C2398 C 0.9326 0.24993 0.36184 0.0
C2399 C 0.92279 0.22981 0.35756 0.0
C2400 C 0.90899 0.21783 0.37654 0.0
C2401 C 0.90479 0.22592 0.3995 0.0
C2402 C 0.91435 0.24656 0.40217 0.0
H2403 H 0.01803 0.37379 0.29546 0.0
H2404 H 0.08089 0.40735 0.29178 0.0
H2405 H 0.07905 0.43646 0.27976 0.0
H2406 H 0.01 0.39842 0.23655 0.0
H2407 H 0.98888 0.3977 0.25083 0.0
H2408 H 0.9949 0.37905 0.25921 0.0
H2409 H 0.99474 0.38677 0.31033 0.0
H2410 H 0.98923 0.4058 0.30205 0.0
H2411 H 0.01029 0.41123 0.32281 0.0
H2412 H 0.07145 0.46257 0.2717 0.0
H2413 H 0.05785 0.48312 0.2566 0.0
H2414 H 0.99972 0.43363 0.26203 0.0
C2415 C 0.03133 0.38716 0.29154 0.0
C2416 C 0.04961 0.38825 0.29509 0.0
C2417 C 0.06669 0.4061 0.28973 0.0
C2418 C 0.06587 0.42284 0.283 0.0
C2419 C 0.04782 0.4216 0.28108 0.0
C2420 C 0.0308 0.40419 0.28425 0.0
C2421 C 0.01339 0.40711 0.2795 0.0
C2422 C 1.00107 0.39484 0.25506 0.0
C2423 C 1.00119 0.40245 0.30521 0.0
C2424 C 0.02345 0.4288 0.27334 0.0
C2425 C 0.04332 0.43684 0.275 0.0
C2426 C 0.05589 0.4565 0.2702 0.0
C2427 C 0.048 0.46815 0.26202 0.0
C2428 C 0.02772 0.46008 0.25836 0.0
C2429 C 0.01528 0.44024 0.2649 0.0
H2430 H 0.63734 0.65748 0.28752 0.0
H2431 H 0.6141 0.65558 0.36736 0.0
H2432 H 0.58632 0.62313 0.35668 0.0
H2433 H 0.59336 0.63658 0.25171 0.0
H2434 H 0.59921 0.62265 0.22848 0.0
H2435 H 0.61827 0.64478 0.24343 0.0
H2436 H 0.63507 0.62597 0.26218 0.0
H2437 H 0.61606 0.6038 0.24708 0.0
H2438 H 0.62159 0.6048 0.28293 0.0
H2439 H 0.55912 0.59203 0.33531 0.0
H2440 H 0.53573 0.56514 0.30506 0.0
H2441 H 0.57775 0.58718 0.24065 0.0
C2442 C 0.62662 0.65008 0.30295 0.0
C2443 C 0.62793 0.65908 0.32826 0.0
C2444 C 0.61346 0.64897 0.34781 0.0
C2445 C 0.5976 0.63049 0.34197 0.0
C2446 C 0.5965 0.62219 0.31659 0.0
C2447 C 0.61075 0.63158 0.29751 0.0
C2448 C 0.6057 0.62 0.27128 0.0
C2449 C 0.60403 0.6317 0.24733 0.0
C2450 C 0.62048 0.61324 0.26554 0.0
C2451 C 0.58616 0.60299 0.2783 0.0
C2452 C 0.58106 0.60433 0.30454 0.0
C2453 C 0.56307 0.59071 0.3148 0.0
C2454 C 0.54988 0.57549 0.29757 0.0
C2455 C 0.55478 0.57423 0.27043 0.0
C2456 C 0.57338 0.58792 0.26115 0.0
H2457 H 0.3651 0.98649 0.33625 0.0
H2458 H 0.34964 0.93072 0.37319 0.0
H2459 H 0.38106 0.93447 0.36096 0.0
H2460 H 0.38814 0.98134 0.28043 0.0
H2461 H 0.4075 0.00625 0.27948 0.0
H2462 H 0.38471 1.0006 0.29411 0.0
H2463 H 0.40247 0.01778 0.33901 0.0
H2464 H 0.42537 0.02346 0.32446 0.0
H2465 H 0.41808 0.01033 0.35598 0.0
H2466 H 0.41135 0.94114 0.33843 0.0
H2467 H 0.43876 0.95098 0.30795 0.0
H2468 H 0.43769 1.0045 0.29028 0.0
C2469 C 0.36848 0.97528 0.34224 0.0
C2470 C 0.35469 0.95829 0.35561 0.0
C2471 C 0.35976 0.9439 0.36289 0.0
C2472 C 0.3777 0.94589 0.35616 0.0
C2473 C 0.39077 0.96254 0.34256 0.0
C2474 C 0.38657 0.97714 0.33598 0.0
C2475 C 0.40283 0.99294 0.31979 0.0
C2476 C 0.39534 0.99541 0.2918 0.0
C2477 C 0.41278 0.01227 0.33577 0.0
C2478 C 0.4162 0.98436 0.31718 0.0
C2479 C 0.40903 0.9669 0.33066 0.0
C2480 C 0.41748 0.9551 0.32841 0.0
C2481 C 0.43326 0.96094 0.31113 0.0
C2482 C 0.4406 0.97856 0.2964 0.0
C2483 C 0.43242 0.99079 0.30077 0.0
H2484 H 0.64759 1.00104 0.2891 0.0
H2485 H 0.62028 0.95245 0.34444 0.0
H2486 H 0.5895 0.95301 0.33963 0.0
H2487 H 0.62113 0.02623 0.31367 0.0
H2488 H 0.6196 0.03458 0.28009 0.0
H2489 H 0.6399 0.03136 0.28959 0.0
H2490 H 0.63257 0.00827 0.24822 0.0
H2491 H 0.61233 0.01146 0.2386 0.0
H2492 H 0.60875 0.98732 0.24407 0.0
H2493 H 0.56061 0.95554 0.32302 0.0
H2494 H 0.5366 0.96086 0.29785 0.0
H2495 H 0.58344 0.01133 0.25924 0.0
C2496 C 0.63519 0.99073 0.30048 0.0
C2497 C 0.63627 0.97666 0.31706 0.0
C2498 C 0.61978 0.96342 0.33171 0.0
C2499 C 0.60223 0.96363 0.32915 0.0
C2500 C 0.60154 0.97755 0.31244 0.0
C2501 C 0.61768 0.99111 0.29877 0.0
C2502 C 0.61288 1.00415 0.28151 0.0
C2503 C 0.62404 0.02534 0.29184 0.0
C2504 C 0.61686 1.0027 0.25132 0.0
C2505 C 0.59134 0.99516 0.28655 0.0
C2506 C 0.58506 0.97986 0.30445 0.0
C2507 C 0.56542 0.96786 0.30956 0.0
C2508 C 0.55181 0.97115 0.29526 0.0
C2509 C 0.55786 0.98651 0.27621 0.0
C2510 C 0.57804 0.9992 0.27312 0.0
H2511 H 0.05658 0.65169 0.32429 0.0
H2512 H 1.00125 0.64993 0.31396 0.0
H2513 H 0.9865 0.61583 0.29757 0.0
H2514 H 0.05352 0.62722 0.26455 0.0
H2515 H 0.06544 0.61447 0.27792 0.0
H2516 H 0.07061 0.63742 0.2926 0.0
H2517 H 0.06118 0.62125 0.33993 0.0
H2518 H 0.05573 0.59813 0.32522 0.0
H2519 H 0.03762 0.6002 0.34431 0.0
H2520 H 0.9787 0.58326 0.27796 0.0
H2521 H 0.97935 0.55662 0.25243 0.0
H2522 H 0.03987 0.57992 0.27501 0.0
C2523 C 0.04125 0.64404 0.31916 0.0
C2524 C 0.03004 0.65348 0.32065 0.0
C2525 C 0.01013 0.64303 0.31307 0.0
C2526 C 1.00159 0.62359 0.30396 0.0
C2527 C 0.01314 0.6148 0.30256 0.0
C2528 C 0.03257 0.62476 0.30983 0.0
C2529 C 0.04237 0.61291 0.3036 0.0
C2530 C 0.05895 0.62364 0.28347 0.0
C2531 C 0.04965 0.60782 0.32983 0.0
C2532 C 0.02557 0.59494 0.29079 0.0
C2533 C 0.00872 0.59611 0.29094 0.0
C2534 C 0.99171 0.58204 0.27814 0.0
C2535 C 0.99218 0.56692 0.26379 0.0
C2536 C 0.00958 0.56608 0.26212 0.0
C2537 C 0.02623 0.57985 0.2767 0.0
H2538 H 0.36672 0.37266 0.28574 0.0
H2539 H 0.3569 0.40247 0.35245 0.0
H2540 H 0.3883 0.43188 0.34405 0.0
H2541 H 0.41999 0.39523 0.29722 0.0
H2542 H 0.42442 0.39645 0.26127 0.0
H2543 H 0.40209 0.37719 0.27443 0.0
H2544 H 0.38256 0.387 0.24139 0.0
H2545 H 0.40479 0.40625 0.22823 0.0
H2546 H 0.38704 0.41175 0.24178 0.0
H2547 H 0.41918 0.45969 0.32417 0.0
H2548 H 0.44669 0.48216 0.29535 0.0
H2549 H 0.43702 0.43309 0.24477 0.0
C2550 C 0.37135 0.38523 0.29891 0.0
C2551 C 0.35936 0.38524 0.31972 0.0
C2552 C 0.36589 0.40207 0.33642 0.0
C2553 C 0.38373 0.41888 0.33184 0.0
C2554 C 0.39507 0.41855 0.31078 0.0
C2555 C 0.38923 0.40203 0.29487 0.0
C2556 C 0.40357 0.40564 0.27276 0.0
C2557 C 0.41308 0.39287 0.27667 0.0
C2558 C 0.39391 0.40248 0.24438 0.0
C2559 C 0.41796 0.42691 0.27807 0.0
C2560 C 0.41299 0.43422 0.30011 0.0
C2561 C 0.42341 0.45403 0.30715 0.0
C2562 C 0.43902 0.4667 0.2908 0.0
C2563 C 0.44384 0.4594 0.26774 0.0
C2564 C 0.43356 0.43915 0.26214 0.0
H2565 H 0.28476 0.27174 0.37146 0.0
H2566 H 0.34197 0.31618 0.34718 0.0
H2567 H 0.35462 0.29359 0.35697 0.0
H2568 H 0.30113 0.25285 0.42707 0.0
H2569 H 0.28196 0.22821 0.42104 0.0
H2570 H 0.27825 0.24832 0.41245 0.0
H2571 H 0.26894 0.23467 0.36319 0.0
H2572 H 0.27339 0.21493 0.37144 0.0
H2573 H 0.2859 0.23093 0.34371 0.0
H2574 H 0.36046 0.26524 0.36801 0.0
H2575 H 0.36054 0.23646 0.38802 0.0
H2576 H 0.29943 0.21104 0.40481 0.0
C2577 C 0.30003 0.27684 0.36859 0.0
C2578 C 0.31242 0.29572 0.35864 0.0
C2579 C 0.3323 0.30187 0.35516 0.0
C2580 C 0.33952 0.28903 0.36027 0.0
C2581 C 0.32667 0.2702 0.36898 0.0
C2582 C 0.30745 0.26434 0.37375 0.0
C2583 C 0.29673 0.2437 0.3842 0.0
C2584 C 0.28908 0.24325 0.41289 0.0
C2585 C 0.28027 0.23027 0.36445 0.0
C2586 C 0.31289 0.23876 0.38466 0.0
C2587 C 0.33001 0.25409 0.37541 0.0
C2588 C 0.34711 0.25314 0.37513 0.0
C2589 C 0.34697 0.2366 0.3861 0.0
C2590 C 0.32989 0.22142 0.39741 0.0
C2591 C 0.31252 0.22222 0.3956 0.0
H2592 H 0.75517 0.03129 0.34496 0.0
H2593 H 0.69985 0.02991 0.34892 0.0
H2594 H 0.71671 0.06401 0.36585 0.0
H2595 H 0.77463 0.05741 0.406 0.0
H2596 H 0.79905 0.0708 0.39377 0.0
H2597 H 0.78259 0.04712 0.37983 0.0
H2598 H 0.78864 0.06189 0.33149 0.0
H2599 H 0.80487 0.08573 0.34543 0.0
H2600 H 0.78439 0.08192 0.32448 0.0
H2601 H 0.7397 0.09788 0.38413 0.0
H2602 H 0.76593 0.12672 0.40777 0.0
H2603 H 0.80576 0.10513 0.39264 0.0
C2604 C 0.74656 0.03817 0.34911 0.0
C2605 C 0.72618 0.02795 0.34546 0.0
C2606 C 0.71546 0.03743 0.35162 0.0
C2607 C 0.72494 0.05685 0.36098 0.0
C2608 C 0.7451 0.06653 0.36408 0.0
C2609 C 0.75572 0.05739 0.35862 0.0
C2610 C 0.77698 0.07032 0.36573 0.0
C2611 C 0.7837 0.06085 0.38764 0.0
C2612 C 0.78945 0.07525 0.34026 0.0
C2613 C 0.77668 0.08808 0.37665 0.0
C2614 C 0.75824 0.0858 0.37505 0.0
C2615 C 0.75421 0.09985 0.38531 0.0
C2616 C 0.7692 0.1162 0.39864 0.0
C2617 C 0.78792 0.11823 0.40194 0.0
C2618 C 0.79179 0.10429 0.38987 0.0
H2619 H 0.99882 0.72797 0.36962 0.0
H2620 H 0.97512 0.68199 0.30884 0.0
H2621 H 0.94207 0.67684 0.31713 0.0
H2622 H 0.96231 0.70716 0.41609 0.0
H2623 H 0.96264 0.72937 0.42567 0.0
H2624 H 0.98417 0.73031 0.4129 0.0
H2625 H 0.98591 0.75416 0.37529 0.0
H2626 H 0.96426 0.75321 0.38795 0.0
H2627 H 0.9653 0.74734 0.35284 0.0
H2628 H 0.91129 0.67337 0.33839 0.0
H2629 H 0.88646 0.67296 0.36838 0.0
H2630 H 0.93083 0.72497 0.40949 0.0
C2631 C 0.98666 0.71708 0.35772 0.0
C2632 C 0.98932 0.70531 0.33869 0.0
C2633 C 0.97324 0.69118 0.32342 0.0
C2634 C 0.95449 0.68821 0.32799 0.0
C2635 C 0.95227 0.69995 0.34724 0.0
C2636 C 0.96804 0.7144 0.3614 0.0
C2637 C 0.96187 0.72464 0.3816 0.0
C2638 C 0.96811 0.72274 0.41077 0.0
C2639 C 0.9698 0.74611 0.37395 0.0
C2640 C 0.94008 0.7131 0.37767 0.0
C2641 C 0.93472 0.69889 0.35781 0.0
C2642 C 0.91532 0.68482 0.3534 0.0
C2643 C 0.90122 0.68481 0.37044 0.0
C2644 C 0.90655 0.69889 0.39153 0.0
C2645 C 0.92615 0.71383 0.39386 0.0
H2646 H 0.3728 0.01733 0.71709 0.0
H2647 H 0.41216 0.05345 0.65459 0.0
H2648 H 0.43629 0.04472 0.67029 0.0
H2649 H 0.40908 0.03139 0.76829 0.0
H2650 H 0.39899 0.00789 0.78422 0.0
H2651 H 0.38335 0.0147 0.76607 0.0
H2652 H 0.37046 0.98373 0.73586 0.0
H2653 H 0.38609 0.97682 0.75397 0.0
H2654 H 0.38736 0.97919 0.71752 0.0
H2655 H 0.45729 0.03438 0.69388 0.0
H2656 H 0.47468 0.0244 0.72649 0.0
H2657 H 0.42292 0.99556 0.77503 0.0
C2658 C 0.38635 0.02305 0.70646 0.0
C2659 C 0.39039 0.03589 0.68436 0.0
C2660 C 0.40853 0.04347 0.67139 0.0
C2661 C 0.4224 0.03856 0.68009 0.0
C2662 C 0.41814 0.02614 0.70203 0.0
C2663 C 0.40066 0.01855 0.71525 0.0
C2664 C 0.40068 0.00697 0.73988 0.0
C2665 C 0.39786 0.01577 0.76616 0.0
C2666 C 0.38523 0.98539 0.7366 0.0
C2667 C 0.421 0.0097 0.73861 0.0
C2668 C 0.43066 0.02053 0.71633 0.0
C2669 C 0.44984 0.02568 0.7113 0.0
C2670 C 0.45959 0.01988 0.72984 0.0
C2671 C 0.45019 0.00921 0.75325 0.0
C2672 C 0.43053 1.0038 0.75736 0.0
H2673 H 0.99454 0.35304 0.73853 0.0
H2674 H 0.98005 0.35464 0.65344 0.0
H2675 H 0.98061 0.38573 0.66126 0.0
H2676 H 0.96574 0.37031 0.76497 0.0
H2677 H 0.98245 0.38519 0.79153 0.0
H2678 H 0.98326 0.36421 0.77887 0.0
H2679 H 0.01955 0.38578 0.76745 0.0
H2680 H 0.01892 0.40678 0.78056 0.0
H2681 H 0.02692 0.40693 0.74646 0.0
H2682 H 0.97854 0.4147 0.67968 0.0
H2683 H 0.97708 0.44045 0.7068 0.0
H2684 H 0.99512 0.42093 0.77859 0.0
C2685 C 0.99205 0.36022 0.7214 0.0
C2686 C 0.98726 0.35135 0.6954 0.0
C2687 C 0.9838 0.36111 0.67359 0.0
C2688 C 0.98404 0.37881 0.67779 0.0
C2689 C 0.98806 0.3868 0.70387 0.0
C2690 C 0.99241 0.37804 0.72519 0.0
C2691 C 0.99548 0.38924 0.75144 0.0
C2692 C 0.98086 0.37647 0.77296 0.0
C2693 C 0.01647 0.39769 0.7621 0.0
C2694 C 0.99152 0.4052 0.7417 0.0
C2695 C 0.98728 0.40364 0.71423 0.0
C2696 C 0.98211 0.41623 0.70119 0.0
C2697 C 0.98129 0.43081 0.71672 0.0
C2698 C 0.98556 0.43259 0.74498 0.0
C2699 C 0.9911 0.41973 0.75725 0.0
H2700 H 0.66294 0.63414 0.73336 0.0
H2701 H 0.64402 0.63033 0.64937 0.0
H2702 H 0.61182 0.60257 0.66083 0.0
H2703 H 0.64089 0.58297 0.7423 0.0
H2704 H 0.63501 0.58377 0.77732 0.0
H2705 H 0.65555 0.6044 0.7628 0.0
H2706 H 0.64156 0.62667 0.77668 0.0
H2707 H 0.62098 0.60608 0.79128 0.0
H2708 H 0.61734 0.62042 0.76574 0.0
H2709 H 0.58117 0.57478 0.6827 0.0
H2710 H 0.5565 0.54911 0.71169 0.0
H2711 H 0.59834 0.56924 0.77887 0.0
C2712 C 0.65187 0.62771 0.71751 0.0
C2713 C 0.65574 0.63458 0.69063 0.0
C2714 C 0.64118 0.62538 0.67018 0.0
C2715 C 0.62288 0.60963 0.67652 0.0
C2716 C 0.61959 0.60301 0.70326 0.0
C2717 C 0.63383 0.61168 0.7233 0.0
C2718 C 0.62742 0.60101 0.74992 0.0
C2719 C 0.64049 0.59253 0.75858 0.0
C2720 C 0.62679 0.61434 0.77221 0.0
C2721 C 0.60727 0.58509 0.74191 0.0
C2722 C 0.60278 0.58651 0.71509 0.0
C2723 C 0.58463 0.57351 0.70371 0.0
C2724 C 0.57073 0.55886 0.7203 0.0
C2725 C 0.57513 0.55715 0.7479 0.0
C2726 C 0.59392 0.57032 0.75832 0.0
H2727 H 0.73079 0.7493 0.645 0.0
H2728 H 0.67328 0.69872 0.6494 0.0
H2729 H 0.65886 0.71949 0.63808 0.0
H2730 H 0.71924 0.78442 0.67364 0.0
H2731 H 0.73477 0.80362 0.65108 0.0
H2732 H 0.7406 0.78499 0.6605 0.0
H2733 H 0.74128 0.77663 0.60971 0.0
H2734 H 0.73591 0.79552 0.6002 0.0
H2735 H 0.72058 0.77095 0.58798 0.0
H2736 H 0.6508 0.74576 0.6255 0.0
H2737 H 0.64984 0.77429 0.60643 0.0
H2738 H 0.71258 0.80755 0.61016 0.0
C2739 C 0.71514 0.74252 0.6436 0.0
C2740 C 0.70317 0.72232 0.64817 0.0
C2741 C 0.68278 0.7141 0.64585 0.0
C2742 C 0.67445 0.72583 0.63972 0.0
C2743 C 0.6867 0.74574 0.63592 0.0
C2744 C 0.70662 0.75395 0.63738 0.0
C2745 C 0.71662 0.77549 0.63087 0.0
C2746 C 0.72851 0.78786 0.6555 0.0
C2747 C 0.72934 0.7799 0.60569 0.0
C2748 C 0.69923 0.77812 0.6251 0.0
C2749 C 0.68209 0.76085 0.62856 0.0
C2750 C 0.66412 0.75938 0.62297 0.0
C2751 C 0.66369 0.77568 0.61236 0.0
C2752 C 0.68111 0.79319 0.60729 0.0
C2753 C 0.69905 0.79457 0.61465 0.0
H2754 H 0.27781 0.98436 0.65424 0.0
H2755 H 0.3235 0.97057 0.64028 0.0
H2756 H 0.29879 0.93588 0.63231 0.0
H2757 H 0.2417 0.93788 0.68468 0.0
H2758 H 0.22174 0.93782 0.66647 0.0
H2759 H 0.24283 0.9606 0.67585 0.0
H2760 H 0.24724 0.97152 0.62549 0.0
H2761 H 0.226 0.94899 0.61618 0.0
H2762 H 0.24865 0.95595 0.59987 0.0
H2763 H 0.26905 0.90329 0.62318 0.0
H2764 H 0.23781 0.87747 0.60431 0.0
H2765 H 0.21166 0.91334 0.62017 0.0
C2766 C 0.28254 0.97388 0.65011 0.0
C2767 C 0.30244 0.97986 0.6484 0.0
C2768 C 0.30826 0.96608 0.64193 0.0
C2769 C 0.29434 0.94638 0.63764 0.0
C2770 C 0.27472 0.94088 0.63946 0.0
C2771 C 0.26885 0.95436 0.64497 0.0
C2772 C 0.24708 0.94548 0.64161 0.0
C2773 C 0.23779 0.94545 0.66878 0.0
C2774 C 0.24195 0.95611 0.61947 0.0
C2775 C 0.24158 0.92497 0.63279 0.0
C2776 C 0.25764 0.92242 0.63256 0.0
C2777 C 0.25636 0.90505 0.6236 0.0
C2778 C 0.23848 0.89035 0.61322 0.0
C2779 C 0.22227 0.8933 0.61128 0.0
C2780 C 0.2237 0.91053 0.62216 0.0
H2781 H 0.02952 0.31859 0.64571 0.0
H2782 H 0.01692 0.26388 0.68375 0.0
H2783 H 0.0489 0.26926 0.67202 0.0
H2784 H 0.05268 0.31338 0.59001 0.0
H2785 H 0.07116 0.3386 0.58773 0.0
H2786 H 0.04835 0.33228 0.60283 0.0
H2787 H 0.06646 0.35116 0.64666 0.0
H2788 H 0.08938 0.35737 0.63168 0.0
H2789 H 0.08302 0.34509 0.6639 0.0
H2790 H 0.07925 0.277 0.65058 0.0
H2791 H 0.10543 0.28616 0.61831 0.0
H2792 H 0.10167 0.33773 0.59696 0.0
C2793 C 0.03366 0.30797 0.65198 0.0
C2794 C 0.0205 0.29081 0.66562 0.0
C2795 C 0.02649 0.27714 0.67315 0.0
C2796 C 0.04482 0.28011 0.66686 0.0
C2797 C 0.0573 0.29693 0.65316 0.0
C2798 C 0.05211 0.3107 0.6458 0.0
C2799 C 0.06772 0.32644 0.62869 0.0
C2800 C 0.05948 0.32774 0.60066 0.0
C2801 C 0.07721 0.34619 0.64364 0.0
C2802 C 0.08177 0.31864 0.62643 0.0
C2803 C 0.07561 0.3018 0.64117 0.0
C2804 C 0.08462 0.29049 0.63949 0.0
C2805 C 0.09971 0.29595 0.62116 0.0
C2806 C 0.10574 0.31266 0.60476 0.0
C2807 C 0.09734 0.32472 0.60885 0.0
H2808 H 0.30741 0.33585 0.61217 0.0
H2809 H 0.27731 0.28997 0.67079 0.0
H2810 H 0.24701 0.29042 0.66073 0.0
H2811 H 0.28 0.36214 0.62795 0.0
H2812 H 0.27994 0.369 0.59301 0.0
H2813 H 0.29979 0.36627 0.60637 0.0
H2814 H 0.2942 0.34149 0.56794 0.0
H2815 H 0.27437 0.34412 0.55452 0.0
H2816 H 0.27056 0.32033 0.56337 0.0
H2817 H 0.21921 0.29181 0.6389 0.0
H2818 H 0.19628 0.29574 0.60939 0.0
H2819 H 0.24464 0.34497 0.57065 0.0
C2820 C 0.29449 0.32616 0.62315 0.0
C2821 C 0.29467 0.31285 0.6422 0.0
C2822 C 0.27752 0.30037 0.65622 0.0
C2823 C 0.26022 0.30051 0.65068 0.0
C2824 C 0.2604 0.31362 0.63161 0.0
C2825 C 0.27714 0.32652 0.61846 0.0
C2826 C 0.27311 0.33873 0.59836 0.0
C2827 C 0.28385 0.36032 0.60695 0.0
C2828 C 0.27837 0.33599 0.56934 0.0
C2829 C 0.25136 0.3299 0.60128 0.0
C2830 C 0.24434 0.31545 0.62055 0.0
C2831 C 0.22454 0.30355 0.62436 0.0
C2832 C 0.21153 0.30608 0.60747 0.0
C2833 C 0.21828 0.3207 0.5872 0.0
C2834 C 0.23861 0.33331 0.58524 0.0
H2835 H 0.72381 0.99716 0.6508 0.0
H2836 H 0.67323 0.99937 0.62012 0.0
H2837 H 0.65965 0.96561 0.60245 0.0
H2838 H 0.72865 0.97196 0.59588 0.0
H2839 H 0.73639 0.95806 0.61653 0.0
H2840 H 0.74098 0.9816 0.62803 0.0
H2841 H 0.72314 0.96614 0.67273 0.0
H2842 H 0.71823 0.94244 0.66109 0.0
H2843 H 0.69856 0.94622 0.67114 0.0
H2844 H 0.65321 0.93253 0.58476 0.0
H2845 H 0.65543 0.90444 0.5666 0.0
H2846 H 0.70963 0.92392 0.61086 0.0
C2847 C 0.70982 0.99065 0.64047 0.0
C2848 C 0.69965 1.00107 0.63677 0.0
C2849 C 0.68135 0.99177 0.62317 0.0
C2850 C 0.67347 0.97255 0.61324 0.0
C2851 C 0.68394 0.96274 0.61741 0.0
C2852 C 0.70173 0.97156 0.63074 0.0
C2853 C 0.7107 0.95849 0.6315 0.0
C2854 C 0.73033 0.9681 0.61712 0.0
C2855 C 0.71277 0.953 0.66086 0.0
C2856 C 0.69547 0.94105 0.6157 0.0
C2857 C 0.68001 0.94363 0.608 0.0
C2858 C 0.66504 0.93021 0.59116 0.0
C2859 C 0.66634 0.91423 0.58109 0.0
C2860 C 0.68246 0.91181 0.58792 0.0
C2861 C 0.69681 0.92503 0.60618 0.0
H2862 H 0.02621 0.6977 0.60647 0.0
H2863 H 0.02884 0.71702 0.68972 0.0
H2864 H 0.06119 0.74528 0.68182 0.0
H2865 H 0.07903 0.71411 0.60117 0.0
H2866 H 0.07935 0.72124 0.56628 0.0
H2867 H 0.05767 0.70126 0.57979 0.0
H2868 H 0.03827 0.71842 0.5651 0.0
H2869 H 0.0599 0.73846 0.55185 0.0
H2870 H 0.04619 0.74288 0.57695 0.0
H2871 H 0.09163 0.77409 0.66261 0.0
H2872 H 0.11736 0.79939 0.63412 0.0
H2873 H 0.09504 0.75995 0.56484 0.0
C2874 C 0.03381 0.70756 0.62327 0.0
C2875 C 0.02499 0.70508 0.64872 0.0
C2876 C 0.03533 0.71852 0.67006 0.0
C2877 C 0.05374 0.73466 0.66577 0.0
C2878 C 0.06178 0.73705 0.64015 0.0
C2879 C 0.05223 0.72365 0.61939 0.0
C2880 C 0.06335 0.73009 0.59326 0.0
C2881 C 0.07026 0.71583 0.58463 0.0
C2882 C 0.0512 0.73262 0.57047 0.0
C2883 C 0.0802 0.74949 0.60226 0.0
C2884 C 0.07925 0.75331 0.62938 0.0
C2885 C 0.09268 0.77109 0.64144 0.0
C2886 C 0.10724 0.78538 0.62519 0.0
C2887 C 0.10806 0.78179 0.59722 0.0
C2888 C 0.09465 0.76334 0.58607 0.0
H2889 H 0.98765 0.63035 0.69809 0.0
H2890 H 0.93746 0.59083 0.64885 0.0
H2891 H 0.94188 0.56336 0.66296 0.0
H2892 H 0.01613 0.60543 0.68687 0.0
H2893 H 0.02544 0.60965 0.72135 0.0
H2894 H 0.01961 0.62672 0.70525 0.0
H2895 H 0.99674 0.62282 0.7447 0.0
H2896 H 1.00256 0.60583 0.7609 0.0
H2897 H 0.97763 0.59882 0.75327 0.0
H2898 H 0.94999 0.53943 0.68528 0.0
H2899 H 0.9607 0.52134 0.71594 0.0
H2900 H 1.00564 0.57623 0.74969 0.0
C2901 C 0.97779 0.61599 0.68994 0.0
C2902 C 0.96222 0.61287 0.67236 0.0
C2903 C 0.94948 0.59371 0.66247 0.0
C2904 C 0.95191 0.57794 0.67021 0.0
C2905 C 0.96721 0.58144 0.68783 0.0
C2906 C 0.97995 0.59999 0.69757 0.0
C2907 C 0.99435 0.59954 0.71776 0.0
C2908 C 0.01511 0.61102 0.70716 0.0
C2909 C 0.99271 0.6072 0.74581 0.0
C2910 C 0.98736 0.57787 0.71832 0.0
C2911 C 0.97185 0.56764 0.70068 0.0
C2912 C 0.96229 0.54729 0.69897 0.0
C2913 C 0.96847 0.53712 0.7163 0.0
C2914 C 0.98387 0.54738 0.73518 0.0
C2915 C 0.99373 0.568 0.73548 0.0
H2916 H 0.41314 0.36251 0.67255 0.0
H2917 H 0.35969 0.36122 0.69445 0.0
H2918 H 0.37879 0.39456 0.71356 0.0
H2919 H 0.43916 0.38528 0.73132 0.0
H2920 H 0.46198 0.3994 0.71469 0.0
H2921 H 0.44391 0.37664 0.70002 0.0
H2922 H 0.44504 0.39429 0.65501 0.0
H2923 H 0.46296 0.4172 0.66979 0.0
H2924 H 0.44076 0.41472 0.65546 0.0
H2925 H 0.4039 0.42641 0.73503 0.0
H2926 H 0.43249 0.45262 0.75928 0.0
H2927 H 0.46925 0.43329 0.72208 0.0
C2928 C 0.40534 0.36925 0.68104 0.0
C2929 C 0.38484 0.35914 0.68198 0.0
C2930 C 0.37535 0.3686 0.69343 0.0
C2931 C 0.38609 0.3876 0.70418 0.0
C2932 C 0.40629 0.39705 0.70304 0.0
C2933 C 0.41578 0.38814 0.69171 0.0
C2934 C 0.43756 0.40061 0.69494 0.0
C2935 C 0.44614 0.38984 0.71122 0.0
C2936 C 0.44714 0.40709 0.66714 0.0
C2937 C 0.43892 0.41768 0.71082 0.0
C2938 C 0.42074 0.41554 0.71492 0.0
C2939 C 0.41821 0.42846 0.73142 0.0
C2940 C 0.43452 0.44337 0.74497 0.0
C2941 C 0.45309 0.44523 0.74196 0.0
C2942 C 0.45535 0.43267 0.72385 0.0
H2943 H 0.64769 0.01885 0.71631 0.0
H2944 H 0.64908 0.05755 0.65265 0.0
H2945 H 0.61654 0.0514 0.6656 0.0
H2946 H 0.59526 0.98353 0.70962 0.0
H2947 H 0.59291 0.9795 0.74576 0.0
H2948 H 0.61548 0.9857 0.72972 0.0
H2949 H 0.63364 0.01501 0.7629 0.0
H2950 H 0.61117 0.0089 0.77896 0.0
H2951 H 0.62587 0.03293 0.76533 0.0
H2952 H 0.58492 0.04359 0.68949 0.0
H2953 H 0.55773 0.03432 0.72134 0.0
H2954 H 0.57669 0.99931 0.76655 0.0
C2955 C 0.64102 0.02578 0.70478 0.0
C2956 C 0.65094 0.03867 0.68347 0.0
C2957 C 0.64172 0.04752 0.66899 0.0
C2958 C 0.62322 0.04412 0.67619 0.0
C2959 C 0.61395 0.03156 0.69765 0.0
C2960 C 0.6225 0.02235 0.71147 0.0
C2961 C 0.61001 0.01018 0.73447 0.0
C2962 C 0.603 0.98844 0.72959 0.0
C2963 C 0.62082 0.01718 0.76203 0.0
C2964 C 0.59342 0.01446 0.73204 0.0
C2965 C 0.59577 0.02673 0.71068 0.0
C2966 C 0.5828 0.03372 0.70602 0.0
C2967 C 0.56737 0.02837 0.72409 0.0
C2968 C 0.56519 0.01626 0.74651 0.0
C2969 C 0.57806 0.00876 0.74974 0.0
loop_
_geom_bond_atom_site_label_1
_geom_bond_atom_site_label_2
_geom_bond_distance
_geom_bond_site_symmetry_2
_ccdc_geom_bond_type
Mn0 O5 2.095 1_655 S
Mn0 O15 2.162 . S
Mn0 O16 2.297 1_554 S
Mn0 O24 2.385 1_554 S
Mn0 O25 2.209 1_654 S
Mn0 O26 2.094 . S
Mn1 O6 2.121 . S
Mn1 N8 2.257 1_554 S
Mn1 N17 2.282 1_554 S
Mn1 O25 2.215 1_554 S
Mn1 O27 2.117 . S
C2 O24 1.234 1_455 S
C2 O25 1.283 . S
C3 O15 1.281 1_556 S
C3 O16 1.236 . S
C4 O26 1.224 1_455 S
C4 O27 1.306 . S
O5 Mn0 2.095 1_455 S
O5 C14 1.250 . S
O6 Mn1 2.121 . S
O6 C14 1.258 . S
C7 N8 1.326 . S
C7 C11 1.460 . S
C7 H13 0.929 . S
N8 Mn1 2.257 1_556 S
N8 C7 1.326 . S
N8 C12 1.362 . S
C9 C10 1.258 . S
C9 C12 1.431 . S
C9 C29 1.449 . S
C10 C9 1.258 . S
C10 C11 1.477 . S
C10 H30 0.931 . S
C11 C7 1.460 . S
C11 C10 1.477 . S
C11 H31 0.930 . S
C12 N8 1.362 . S
C12 C9 1.431 . S
C12 C22 1.476 . S
H13 C7 0.929 . S
C14 O5 1.250 . S
C14 O6 1.258 . S
O15 Mn0 2.162 . S
O15 C3 1.281 1_554 S
O16 Mn0 2.297 1_556 S
O16 C3 1.236 . S
N17 Mn1 2.282 1_556 S
N17 C18 1.328 1_556 S
N17 C22 1.318 . S
C18 N17 1.328 1_554 S
C18 C19 1.457 1_554 S
C18 H23 0.929 . S
C19 C18 1.457 1_556 S
C19 C20 1.291 . S
C19 H32 0.931 . S
C20 C19 1.291 . S
C20 C21 1.373 . S
C20 H33 0.929 . S
C21 C20 1.373 . S
C21 C22 1.396 . S
C21 C28 1.403 . S
C22 C12 1.476 . S
C22 N17 1.318 . S
C22 C21 1.396 . S
H23 C18 0.929 . S
O24 Mn0 2.385 1_556 S
O24 C2 1.234 1_655 S
O25 Mn0 2.209 1_456 S
O25 Mn1 2.215 1_556 S
O25 C2 1.283 . S
O26 Mn0 2.094 . S
O26 C4 1.224 1_655 S
O27 Mn1 2.117 . S
O27 C4 1.306 . S
C28 C21 1.403 . S
C28 C29 1.399 . S
C28 H34 0.929 . S
C29 C9 1.449 . S
C29 C28 1.399 . S
C29 H35 0.930 . S
H30 C10 0.931 . S
H31 C11 0.930 . S
H32 C19 0.931 . S
H33 C20 0.929 . S
H34 C28 0.929 . S
H35 C29 0.930 . S
Mn36 O41 2.095 1_554 S
Mn36 O51 2.162 . S
Mn36 O52 2.297 . S
Mn36 O60 2.385 . S
Mn36 O61 2.209 . S
Mn36 O62 2.094 1_554 S
Mn37 O42 2.121 . S
Mn37 N44 2.257 1_556 S
Mn37 N53 2.282 1_556 S
Mn37 O61 2.215 1_556 S
Mn37 O63 2.117 . S
C38 O60 1.234 . S
C38 O61 1.283 . S
C39 O51 1.281 . S
C39 O52 1.236 . S
C40 O62 1.240 . S
C40 O63 1.264 . S
O41 Mn36 2.095 1_556 S
O41 C50 1.250 . S
O42 Mn37 2.121 . S
O42 C50 1.258 . S
C43 N44 1.326 . S
C43 C47 1.460 . S
C43 H49 0.929 . S
N44 Mn37 2.257 1_554 S
N44 C43 1.326 . S
N44 C48 1.362 . S
C45 C46 1.258 . S
C45 C48 1.431 . S
C45 C65 1.449 . S
C46 C45 1.258 . S
C46 C47 1.477 . S
C46 H66 0.931 . S
C47 C43 1.460 . S
C47 C46 1.477 . S
C47 H67 0.930 . S
C48 N44 1.362 . S
C48 C45 1.431 . S
C48 C58 1.476 . S
H49 C43 0.929 . S
C50 O41 1.250 . S
C50 O42 1.258 . S
O51 Mn36 2.162 . S
O51 C39 1.281 . S
O52 Mn36 2.297 . S
O52 C39 1.236 . S
N53 Mn37 2.282 1_554 S
N53 C54 1.328 . S
N53 C58 1.318 . S
C54 N53 1.328 . S
C54 C55 1.457 . S
C54 H59 0.929 1_554 S
C55 C54 1.457 . S
C55 C56 1.291 . S
C55 H68 0.931 . S
C56 C55 1.291 . S
C56 C57 1.373 . S
C56 H69 0.929 . S
C57 C56 1.373 . S
C57 C58 1.396 . S
C57 C64 1.403 . S
C58 C48 1.476 . S
C58 N53 1.318 . S
C58 C57 1.396 . S
H59 C54 0.929 1_556 S
O60 Mn36 2.385 . S
O60 C38 1.234 . S
O61 Mn36 2.209 . S
O61 Mn37 2.215 1_554 S
O61 C38 1.283 . S
O62 Mn36 2.094 1_556 S
O62 C40 1.240 . S
O63 Mn37 2.117 . S
O63 C40 1.264 . S
C64 C57 1.403 . S
C64 C65 1.399 . S
C64 H70 0.929 . S
C65 C45 1.449 . S
C65 C64 1.399 . S
C65 H71 0.930 . S
H66 C46 0.931 . S
H67 C47 0.930 . S
H68 C55 0.931 . S
H69 C56 0.929 . S
H70 C64 0.929 . S
H71 C65 0.930 . S
Mn72 O77 2.095 1_564 S
Mn72 O87 2.162 . S
Mn72 O88 2.297 . S
Mn72 O96 2.385 . S
Mn72 O97 2.209 1_565 S
Mn72 O98 2.094 1_554 S
Mn73 O78 2.121 1_554 S
Mn73 N80 2.257 . S
Mn73 N89 2.282 . S
Mn73 O97 2.215 . S
Mn73 O99 2.117 1_554 S
C74 O96 1.204 1_545 S
C74 O97 1.315 . S
C75 O87 1.281 . S
C75 O88 1.236 . S
C76 O98 1.251 . S
C76 O99 1.240 1_565 S
O77 Mn72 2.095 1_546 S
O77 C86 1.250 . S
O78 Mn73 2.121 1_556 S
O78 C86 1.258 . S
C79 N80 1.326 . S
C79 C83 1.460 . S
C79 H85 0.929 . S
N80 Mn73 2.257 . S
N80 C79 1.326 . S
N80 C84 1.362 . S
C81 C82 1.258 . S
C81 C84 1.431 . S
C81 C101 1.449 . S
C82 C81 1.258 . S
C82 C83 1.477 . S
C82 H102 0.931 . S
C83 C79 1.460 . S
C83 C82 1.477 . S
C83 H103 0.930 . S
C84 N80 1.362 . S
C84 C81 1.431 . S
C84 C94 1.476 . S
H85 C79 0.929 . S
C86 O77 1.250 . S
C86 O78 1.258 . S
O87 Mn72 2.162 . S
O87 C75 1.281 . S
O88 Mn72 2.297 . S
O88 C75 1.236 . S
N89 Mn73 2.282 . S
N89 C90 1.328 . S
N89 C94 1.318 . S
C90 N89 1.328 . S
C90 C91 1.457 . S
C90 H95 0.929 . S
C91 C90 1.457 . S
C91 C92 1.291 . S
C91 H104 0.931 . S
C92 C91 1.291 . S
C92 C93 1.373 . S
C92 H105 0.929 . S
C93 C92 1.373 . S
C93 C94 1.396 . S
C93 C100 1.403 . S
C94 C84 1.476 . S
C94 N89 1.318 . S
C94 C93 1.396 . S
H95 C90 0.929 . S
O96 Mn72 2.385 . S
O96 C74 1.204 1_565 S
O97 Mn72 2.209 1_545 S
O97 Mn73 2.215 . S
O97 C74 1.315 . S
O98 Mn72 2.094 1_556 S
O98 C76 1.251 . S
O99 Mn73 2.117 1_556 S
O99 C76 1.240 1_545 S
C100 C93 1.403 . S
C100 C101 1.399 . S
C100 H106 0.929 . S
C101 C81 1.449 . S
C101 C100 1.399 . S
C101 H107 0.930 . S
H102 C82 0.931 . S
H103 C83 0.930 . S
H104 C91 0.931 . S
H105 C92 0.929 . S
H106 C100 0.929 . S
H107 C101 0.930 . S
Mn108 O113 2.095 1_655 S
Mn108 O123 2.162 . S
Mn108 O124 2.297 1_554 S
Mn108 O132 2.385 1_554 S
Mn108 O133 2.209 1_654 S
Mn108 O134 2.094 . S
Mn109 O114 2.121 . S
Mn109 N116 2.257 1_554 S
Mn109 N125 2.282 1_554 S
Mn109 O133 2.215 1_554 S
Mn109 O135 2.117 . S
C110 O132 1.186 1_455 S
C110 O133 1.304 . S
C111 O123 1.281 1_556 S
C111 O124 1.236 . S
C112 O134 1.223 1_455 S
C112 O135 1.280 . S
O113 Mn108 2.095 1_455 S
O113 C122 1.250 . S
O114 Mn109 2.121 . S
O114 C122 1.258 . S
C115 N116 1.326 . S
C115 C119 1.460 . S
C115 H121 0.929 . S
N116 Mn109 2.257 1_556 S
N116 C115 1.326 . S
N116 C120 1.362 . S
C117 C118 1.258 . S
C117 C120 1.431 . S
C117 C137 1.449 . S
C118 C117 1.258 . S
C118 C119 1.477 . S
C118 H138 0.931 . S
C119 C115 1.460 . S
C119 C118 1.477 . S
C119 H139 0.930 . S
C120 N116 1.362 . S
C120 C117 1.431 . S
C120 C130 1.476 . S
H121 C115 0.929 . S
C122 O113 1.250 . S
C122 O114 1.258 . S
O123 Mn108 2.162 . S
O123 C111 1.281 1_554 S
O124 Mn108 2.297 1_556 S
O124 C111 1.236 . S
N125 Mn109 2.282 1_556 S
N125 C126 1.328 1_556 S
N125 C130 1.318 . S
C126 N125 1.328 1_554 S
C126 C127 1.457 1_554 S
C126 H131 0.929 . S
C127 C126 1.457 1_556 S
C127 C128 1.291 . S
C127 H140 0.931 . S
C128 C127 1.291 . S
C128 C129 1.373 . S
C128 H141 0.929 . S
C129 C128 1.373 . S
C129 C130 1.396 . S
C129 C136 1.403 . S
C130 C120 1.476 . S
C130 N125 1.318 . S
C130 C129 1.396 . S
H131 C126 0.929 . S
O132 Mn108 2.385 1_556 S
O132 C110 1.186 1_655 S
O133 Mn108 2.209 1_456 S
O133 Mn109 2.215 1_556 S
O133 C110 1.304 . S
O134 Mn108 2.094 . S
O134 C112 1.223 1_655 S
O135 Mn109 2.117 . S
O135 C112 1.280 . S
C136 C129 1.403 . S
C136 C137 1.399 . S
C136 H142 0.929 . S
C137 C117 1.449 . S
C137 C136 1.399 . S
C137 H143 0.930 . S
H138 C118 0.931 . S
H139 C119 0.930 . S
H140 C127 0.931 . S
H141 C128 0.929 . S
H142 C136 0.929 . S
H143 C137 0.930 . S
Mn144 O149 2.095 1_554 S
Mn144 O159 2.162 . S
Mn144 O160 2.297 . S
Mn144 O168 2.385 . S
Mn144 O169 2.209 . S
Mn144 O170 2.094 1_554 S
Mn145 O150 2.117 1_554 S
Mn145 N152 2.282 . S
Mn145 N161 2.295 . S
Mn145 O169 2.241 . S
Mn145 O171 2.093 1_554 S
C146 O168 1.234 . S
C146 O169 1.283 . S
C147 O159 1.281 . S
C147 O160 1.236 . S
C148 O170 1.240 . S
C148 O171 1.264 . S
O149 Mn144 2.095 1_556 S
O149 C158 1.250 . S
O150 Mn145 2.117 1_556 S
O150 C158 1.258 . S
C151 N152 1.326 . S
C151 C155 1.460 . S
C151 H157 0.929 . S
N152 Mn145 2.282 . S
N152 C151 1.326 . S
N152 C156 1.362 . S
C153 C154 1.258 . S
C153 C156 1.431 . S
C153 C173 1.449 . S
C154 C153 1.258 . S
C154 C155 1.477 . S
C154 H174 0.931 . S
C155 C151 1.460 . S
C155 C154 1.477 . S
C155 H175 0.930 . S
C156 N152 1.362 . S
C156 C153 1.431 . S
C156 C166 1.476 . S
H157 C151 0.929 . S
C158 O149 1.250 . S
C158 O150 1.258 . S
O159 Mn144 2.162 . S
O159 C147 1.281 . S
O160 Mn144 2.297 . S
O160 C147 1.236 . S
N161 Mn145 2.295 . S
N161 C162 1.328 . S
N161 C166 1.318 . S
C162 N161 1.328 . S
C162 C163 1.457 . S
C162 H167 0.929 1_554 S
C163 C162 1.457 . S
C163 C164 1.291 . S
C163 H176 0.931 . S
C164 C163 1.291 . S
C164 C165 1.373 . S
C164 H177 0.929 . S
C165 C164 1.373 . S
C165 C166 1.396 . S
C165 C172 1.403 . S
C166 C156 1.476 . S
C166 N161 1.318 . S
C166 C165 1.396 . S
H167 C162 0.929 1_556 S
O168 Mn144 2.385 . S
O168 C146 1.234 . S
O169 Mn144 2.209 . S
O169 Mn145 2.241 . S
O169 C146 1.283 . S
O170 Mn144 2.094 1_556 S
O170 C148 1.240 . S
O171 Mn145 2.093 1_556 S
O171 C148 1.264 . S
C172 C165 1.403 . S
C172 C173 1.399 . S
C172 H178 0.929 . S
C173 C153 1.449 . S
C173 C172 1.399 . S
C173 H179 0.930 . S
H174 C154 0.931 . S
H175 C155 0.930 . S
H176 C163 0.931 . S
H177 C164 0.929 . S
H178 C172 0.929 . S
H179 C173 0.930 . S
Mn180 O185 2.095 1_545 S
Mn180 O195 2.162 . S
Mn180 O196 2.297 1_554 S
Mn180 O204 2.385 1_554 S
Mn180 O205 2.209 1_544 S
Mn180 O206 2.094 . S
Mn181 O186 2.121 . S
Mn181 N188 2.257 1_554 S
Mn181 N197 2.282 1_554 S
Mn181 O205 2.215 1_554 S
Mn181 O207 2.117 . S
C182 O204 1.292 . S
C182 O205 1.225 1_545 S
C183 O195 1.281 1_556 S
C183 O196 1.236 . S
C184 O206 1.240 . S
C184 O207 1.264 1_545 S
O185 Mn180 2.095 1_565 S
O185 C194 1.250 . S
O186 Mn181 2.121 . S
O186 C194 1.258 . S
C187 N188 1.326 . S
C187 C191 1.460 . S
C187 H193 0.929 . S
N188 Mn181 2.257 1_556 S
N188 C187 1.326 . S
N188 C192 1.362 . S
C189 C190 1.258 . S
C189 C192 1.431 . S
C189 C209 1.449 . S
C190 C189 1.258 . S
C190 C191 1.477 . S
C190 H210 0.931 . S
C191 C187 1.460 . S
C191 C190 1.477 . S
C191 H211 0.930 . S
C192 N188 1.362 . S
C192 C189 1.431 . S
C192 C202 1.476 . S
H193 C187 0.929 . S
C194 O185 1.250 . S
C194 O186 1.258 . S
O195 Mn180 2.162 . S
O195 C183 1.281 1_554 S
O196 Mn180 2.297 1_556 S
O196 C183 1.236 . S
N197 Mn181 2.282 1_556 S
N197 C198 1.328 1_556 S
N197 C202 1.318 . S
C198 N197 1.328 1_554 S
C198 C199 1.457 1_554 S
C198 H203 0.929 . S
C199 C198 1.457 1_556 S
C199 C200 1.291 . S
C199 H212 0.931 . S
C200 C199 1.291 . S
C200 C201 1.373 . S
C200 H213 0.929 . S
C201 C200 1.373 . S
C201 C202 1.396 . S
C201 C208 1.403 . S
C202 C192 1.476 . S
C202 N197 1.318 . S
C202 C201 1.396 . S
H203 C198 0.929 . S
O204 Mn180 2.385 1_556 S
O204 C182 1.292 . S
O205 Mn180 2.209 1_566 S
O205 Mn181 2.215 1_556 S
O205 C182 1.225 1_565 S
O206 Mn180 2.094 . S
O206 C184 1.240 . S
O207 Mn181 2.117 . S
O207 C184 1.264 1_565 S
C208 C201 1.403 . S
C208 C209 1.399 . S
C208 H214 0.929 . S
C209 C189 1.449 . S
C209 C208 1.399 . S
C209 H215 0.930 . S
H210 C190 0.931 . S
H211 C191 0.930 . S
H212 C199 0.931 . S
H213 C200 0.929 . S
H214 C208 0.929 . S
H215 C209 0.930 . S
Mn216 O221 2.095 . S
Mn216 O231 2.162 . S
Mn216 O232 2.297 . S
Mn216 O240 2.385 . S
Mn216 O241 2.209 . S
Mn216 O242 2.094 . S
Mn217 O222 2.121 . S
Mn217 N224 2.257 . S
Mn217 N233 2.282 . S
Mn217 O241 2.215 . S
Mn217 O243 2.117 . S
C218 O240 1.234 . S
C218 O241 1.283 . S
C219 O231 1.281 . S
C219 O232 1.236 . S
C220 O242 1.240 . S
C220 O243 1.264 . S
O221 Mn216 2.095 . S
O221 C230 1.250 . S
O222 Mn217 2.121 . S
O222 C230 1.258 . S
C223 N224 1.326 . S
C223 C227 1.460 . S
C223 H229 0.929 . S
N224 Mn217 2.257 . S
N224 C223 1.326 . S
N224 C228 1.362 . S
C225 C226 1.258 . S
C225 C228 1.431 . S
C225 C245 1.449 . S
C226 C225 1.258 . S
C226 C227 1.477 . S
C226 H246 0.931 . S
C227 C223 1.460 . S
C227 C226 1.477 . S
C227 H247 0.930 . S
C228 N224 1.362 . S
C228 C225 1.431 . S
C228 C238 1.476 . S
H229 C223 0.929 . S
C230 O221 1.250 . S
C230 O222 1.258 . S
O231 Mn216 2.162 . S
O231 C219 1.281 . S
O232 Mn216 2.297 . S
O232 C219 1.236 . S
N233 Mn217 2.282 . S
N233 C234 1.328 . S
N233 C238 1.318 . S
C234 N233 1.328 . S
C234 C235 1.457 . S
C234 H239 0.929 . S
C235 C234 1.457 . S
C235 C236 1.291 . S
C235 H248 0.931 . S
C236 C235 1.291 . S
C236 C237 1.373 . S
C236 H249 0.929 . S
C237 C236 1.373 . S
C237 C238 1.396 . S
C237 C244 1.403 . S
C238 C228 1.476 . S
C238 N233 1.318 . S
C238 C237 1.396 . S
H239 C234 0.929 . S
O240 Mn216 2.385 . S
O240 C218 1.234 . S
O241 Mn216 2.209 . S
O241 Mn217 2.215 . S
O241 C218 1.283 . S
O242 Mn216 2.094 . S
O242 C220 1.240 . S
O243 Mn217 2.117 . S
O243 C220 1.264 . S
C244 C237 1.403 . S
C244 C245 1.399 . S
C244 H250 0.929 . S
C245 C225 1.449 . S
C245 C244 1.399 . S
C245 H251 0.930 . S
H246 C226 0.931 . S
H247 C227 0.930 . S
H248 C235 0.931 . S
H249 C236 0.929 . S
H250 C244 0.929 . S
H251 C245 0.930 . S
Mn252 O257 2.095 . S
Mn252 O267 2.162 1_565 S
Mn252 O268 2.297 1_565 S
Mn252 O276 2.385 . S
Mn252 O277 2.209 . S
Mn252 O278 2.094 . S
Mn253 O258 2.121 . S
Mn253 N260 2.257 . S
Mn253 N269 2.282 . S
Mn253 O277 2.215 . S
Mn253 O279 2.117 . S
C254 O276 1.234 . S
C254 O277 1.283 . S
C255 O267 1.281 . S
C255 O268 1.236 . S
C256 O278 1.240 . S
C256 O279 1.264 . S
O257 Mn252 2.095 . S
O257 C266 1.250 . S
O258 Mn253 2.121 . S
O258 C266 1.258 . S
C259 N260 1.326 . S
C259 C263 1.460 . S
C259 H265 0.929 . S
N260 Mn253 2.257 . S
N260 C259 1.326 . S
N260 C264 1.362 . S
C261 C262 1.258 . S
C261 C264 1.431 . S
C261 C281 1.449 . S
C262 C261 1.258 . S
C262 C263 1.477 . S
C262 H282 0.931 . S
C263 C259 1.460 . S
C263 C262 1.477 . S
C263 H283 0.930 . S
C264 N260 1.362 . S
C264 C261 1.431 . S
C264 C274 1.476 . S
H265 C259 0.929 . S
C266 O257 1.250 . S
C266 O258 1.258 . S
O267 Mn252 2.162 1_545 S
O267 C255 1.281 . S
O268 Mn252 2.297 1_545 S
O268 C255 1.236 . S
N269 Mn253 2.282 . S
N269 C270 1.328 . S
N269 C274 1.318 . S
C270 N269 1.328 . S
C270 C271 1.457 . S
C270 H275 0.929 . S
C271 C270 1.457 . S
C271 C272 1.291 . S
C271 H284 0.931 . S
C272 C271 1.291 . S
C272 C273 1.373 . S
C272 H285 0.929 . S
C273 C272 1.373 . S
C273 C274 1.396 . S
C273 C280 1.403 . S
C274 C264 1.476 . S
C274 N269 1.318 . S
C274 C273 1.396 . S
H275 C270 0.929 . S
O276 Mn252 2.385 . S
O276 C254 1.234 . S
O277 Mn252 2.209 . S
O277 Mn253 2.215 . S
O277 C254 1.283 . S
O278 Mn252 2.094 . S
O278 C256 1.240 . S
O279 Mn253 2.117 . S
O279 C256 1.264 . S
C280 C273 1.403 . S
C280 C281 1.399 . S
C280 H286 0.929 . S
C281 C261 1.449 . S
C281 C280 1.399 . S
C281 H287 0.930 . S
H282 C262 0.931 . S
H283 C263 0.930 . S
H284 C271 0.931 . S
H285 C272 0.929 . S
H286 C280 0.929 . S
H287 C281 0.930 . S
Mn288 O293 2.095 . S
Mn288 O303 2.162 1_455 S
Mn288 O304 2.297 1_455 S
Mn288 O312 2.385 . S
Mn288 O313 2.209 . S
Mn288 O314 2.094 . S
Mn289 O294 2.121 . S
Mn289 N296 2.257 . S
Mn289 N305 2.282 . S
Mn289 O313 2.215 . S
Mn289 O315 2.117 . S
C290 O312 1.234 . S
C290 O313 1.283 . S
C291 O303 1.281 . S
C291 O304 1.236 . S
C292 O314 1.240 . S
C292 O315 1.264 . S
O293 Mn288 2.095 . S
O293 C302 1.250 . S
O294 Mn289 2.121 . S
O294 C302 1.258 . S
C295 N296 1.326 . S
C295 C299 1.460 . S
C295 H301 0.929 . S
N296 Mn289 2.257 . S
N296 C295 1.326 . S
N296 C300 1.362 . S
C297 C298 1.258 . S
C297 C300 1.431 . S
C297 C317 1.449 . S
C298 C297 1.258 . S
C298 C299 1.477 . S
C298 H318 0.931 . S
C299 C295 1.460 . S
C299 C298 1.477 . S
C299 H319 0.930 . S
C300 N296 1.362 . S
C300 C297 1.431 . S
C300 C310 1.476 . S
H301 C295 0.929 . S
C302 O293 1.250 . S
C302 O294 1.258 . S
O303 Mn288 2.162 1_655 S
O303 C291 1.281 . S
O304 Mn288 2.297 1_655 S
O304 C291 1.236 . S
N305 Mn289 2.282 . S
N305 C306 1.328 . S
N305 C310 1.318 . S
C306 N305 1.328 . S
C306 C307 1.457 . S
C306 H311 0.929 . S
C307 C306 1.457 . S
C307 C308 1.291 . S
C307 H320 0.931 . S
C308 C307 1.291 . S
C308 C309 1.373 . S
C308 H321 0.929 . S
C309 C308 1.373 . S
C309 C310 1.396 . S
C309 C316 1.403 . S
C310 C300 1.476 . S
C310 N305 1.318 . S
C310 C309 1.396 . S
H311 C306 0.929 . S
O312 Mn288 2.385 . S
O312 C290 1.234 . S
O313 Mn288 2.209 . S
O313 Mn289 2.215 . S
O313 C290 1.283 . S
O314 Mn288 2.094 . S
O314 C292 1.240 . S
O315 Mn289 2.117 . S
O315 C292 1.264 . S
C316 C309 1.403 . S
C316 C317 1.399 . S
C316 H322 0.929 . S
C317 C297 1.449 . S
C317 C316 1.399 . S
C317 H323 0.930 . S
H318 C298 0.931 . S
H319 C299 0.930 . S
H320 C307 0.931 . S
H321 C308 0.929 . S
H322 C316 0.929 . S
H323 C317 0.930 . S
Mn324 O329 2.095 1_565 S
Mn324 O339 2.162 . S
Mn324 O340 2.297 . S
Mn324 O348 2.385 . S
Mn324 O349 2.209 . S
Mn324 O350 2.094 . S
Mn325 O330 2.121 1_565 S
Mn325 N332 2.257 . S
Mn325 N341 2.282 . S
Mn325 O349 2.215 . S
Mn325 O351 2.117 . S
C326 O348 1.234 . S
C326 O349 1.283 . S
C327 O339 1.281 . S
C327 O340 1.236 . S
C328 O350 1.240 . S
C328 O351 1.264 . S
O329 Mn324 2.095 1_545 S
O329 C338 1.250 . S
O330 Mn325 2.121 1_545 S
O330 C338 1.258 . S
C331 N332 1.326 1_545 S
C331 C335 1.460 . S
C331 H337 0.929 . S
N332 Mn325 2.257 . S
N332 C331 1.326 1_565 S
N332 C336 1.362 . S
C333 C334 1.258 . S
C333 C336 1.431 . S
C333 C353 1.449 . S
C334 C333 1.258 . S
C334 C335 1.477 1_565 S
C334 H354 0.932 1_565 S
C335 C331 1.460 . S
C335 C334 1.477 1_545 S
C335 H355 0.930 . S
C336 N332 1.362 . S
C336 C333 1.431 . S
C336 C346 1.476 . S
H337 C331 0.929 . S
C338 O329 1.250 . S
C338 O330 1.258 . S
O339 Mn324 2.162 . S
O339 C327 1.281 . S
O340 Mn324 2.297 . S
O340 C327 1.236 . S
N341 Mn325 2.282 . S
N341 C342 1.328 . S
N341 C346 1.318 . S
C342 N341 1.328 . S
C342 C343 1.457 . S
C342 H347 0.929 . S
C343 C342 1.457 . S
C343 C344 1.291 . S
C343 H356 0.931 . S
C344 C343 1.291 . S
C344 C345 1.373 . S
C344 H357 0.929 . S
C345 C344 1.373 . S
C345 C346 1.396 . S
C345 C352 1.403 . S
C346 C336 1.476 . S
C346 N341 1.318 . S
C346 C345 1.396 . S
H347 C342 0.929 . S
O348 Mn324 2.385 . S
O348 C326 1.234 . S
O349 Mn324 2.209 . S
O349 Mn325 2.215 . S
O349 C326 1.283 . S
O350 Mn324 2.094 . S
O350 C328 1.240 . S
O351 Mn325 2.117 . S
O351 C328 1.264 . S
C352 C345 1.403 . S
C352 C353 1.399 . S
C352 H358 0.929 . S
C353 C333 1.449 . S
C353 C352 1.399 . S
C353 H359 0.930 . S
H354 C334 0.932 1_545 S
H355 C335 0.930 . S
H356 C343 0.931 . S
H357 C344 0.929 . S
H358 C352 0.929 . S
H359 C353 0.930 . S
Mn360 O365 2.095 . S
Mn360 O375 2.162 1_455 S
Mn360 O376 2.297 1_455 S
Mn360 O384 2.385 . S
Mn360 O385 2.209 . S
Mn360 O386 2.094 . S
Mn361 O366 2.121 . S
Mn361 N368 2.257 . S
Mn361 N377 2.282 . S
Mn361 O385 2.215 . S
Mn361 O387 2.117 . S
C362 O384 1.234 . S
C362 O385 1.283 . S
C363 O375 1.281 . S
C363 O376 1.236 . S
C364 O386 1.240 . S
C364 O387 1.264 . S
O365 Mn360 2.095 . S
O365 C374 1.250 . S
O366 Mn361 2.121 . S
O366 C374 1.258 . S
C367 N368 1.326 . S
C367 C371 1.460 . S
C367 H373 0.929 . S
N368 Mn361 2.257 . S
N368 C367 1.326 . S
N368 C372 1.362 . S
C369 C370 1.258 . S
C369 C372 1.431 . S
C369 C389 1.449 . S
C370 C369 1.258 . S
C370 C371 1.477 . S
C370 H390 0.931 . S
C371 C367 1.460 . S
C371 C370 1.477 . S
C371 H391 0.930 . S
C372 N368 1.362 . S
C372 C369 1.431 . S
C372 C382 1.476 . S
H373 C367 0.929 . S
C374 O365 1.250 . S
C374 O366 1.258 . S
O375 Mn360 2.162 1_655 S
O375 C363 1.281 . S
O376 Mn360 2.297 1_655 S
O376 C363 1.236 . S
N377 Mn361 2.282 . S
N377 C378 1.328 . S
N377 C382 1.318 . S
C378 N377 1.328 . S
C378 C379 1.457 . S
C378 H383 0.929 . S
C379 C378 1.457 . S
C379 C380 1.291 . S
C379 H392 0.931 . S
C380 C379 1.291 . S
C380 C381 1.373 . S
C380 H393 0.929 . S
C381 C380 1.373 . S
C381 C382 1.396 . S
C381 C388 1.403 . S
C382 C372 1.476 . S
C382 N377 1.318 . S
C382 C381 1.396 . S
H383 C378 0.929 . S
O384 Mn360 2.385 . S
O384 C362 1.234 . S
O385 Mn360 2.209 . S
O385 Mn361 2.215 . S
O385 C362 1.283 . S
O386 Mn360 2.094 . S
O386 C364 1.240 . S
O387 Mn361 2.117 . S
O387 C364 1.264 . S
C388 C381 1.403 . S
C388 C389 1.399 . S
C388 H394 0.929 . S
C389 C369 1.449 . S
C389 C388 1.399 . S
C389 H395 0.930 . S
H390 C370 0.931 . S
H391 C371 0.930 . S
H392 C379 0.931 . S
H393 C380 0.929 . S
H394 C388 0.929 . S
H395 C389 0.930 . S
Mn396 O401 2.095 . S
Mn396 O411 2.162 . S
Mn396 O412 2.297 . S
Mn396 O420 2.385 . S
Mn396 O421 2.209 . S
Mn396 O422 2.094 . S
Mn397 O402 2.121 . S
Mn397 N404 2.257 . S
Mn397 N413 2.282 . S
Mn397 O421 2.215 . S
Mn397 O423 2.117 . S
C398 O420 1.234 . S
C398 O421 1.283 . S
C399 O411 1.281 . S
C399 O412 1.236 . S
C400 O422 1.240 . S
C400 O423 1.264 . S
O401 Mn396 2.095 . S
O401 C410 1.250 . S
O402 Mn397 2.121 . S
O402 C410 1.258 . S
C403 N404 1.326 . S
C403 C407 1.460 . S
C403 H409 0.929 . S
N404 Mn397 2.257 . S
N404 C403 1.326 . S
N404 C408 1.362 . S
C405 C406 1.258 . S
C405 C408 1.431 . S
C405 C425 1.449 . S
C406 C405 1.258 . S
C406 C407 1.477 . S
C406 H426 0.931 . S
C407 C403 1.460 . S
C407 C406 1.477 . S
C407 H427 0.930 . S
C408 N404 1.362 . S
C408 C405 1.431 . S
C408 C418 1.476 . S
H409 C403 0.929 . S
C410 O401 1.250 . S
C410 O402 1.258 . S
O411 Mn396 2.162 . S
O411 C399 1.281 . S
O412 Mn396 2.297 . S
O412 C399 1.236 . S
N413 Mn397 2.282 . S
N413 C414 1.328 . S
N413 C418 1.318 . S
C414 N413 1.328 . S
C414 C415 1.457 . S
C414 H419 0.929 . S
C415 C414 1.457 . S
C415 C416 1.291 . S
C415 H428 0.931 . S
C416 C415 1.291 . S
C416 C417 1.373 . S
C416 H429 0.929 . S
C417 C416 1.373 . S
C417 C418 1.396 . S
C417 C424 1.403 . S
C418 C408 1.476 . S
C418 N413 1.318 . S
C418 C417 1.396 . S
H419 C414 0.929 . S
O420 Mn396 2.385 . S
O420 C398 1.234 . S
O421 Mn396 2.209 . S
O421 Mn397 2.215 . S
O421 C398 1.283 . S
O422 Mn396 2.094 . S
O422 C400 1.240 . S
O423 Mn397 2.117 . S
O423 C400 1.264 . S
C424 C417 1.403 . S
C424 C425 1.399 . S
C424 H430 0.929 . S
C425 C405 1.449 . S
C425 C424 1.399 . S
C425 H431 0.930 . S
H426 C406 0.931 . S
H427 C407 0.930 . S
H428 C415 0.931 . S
H429 C416 0.929 . S
H430 C424 0.929 . S
H431 C425 0.930 . S
Mn432 O437 2.095 . S
Mn432 O447 2.162 1_545 S
Mn432 O448 2.297 1_545 S
Mn432 O456 2.385 . S
Mn432 O457 2.209 . S
Mn432 O458 2.094 . S
Mn433 O438 2.121 . S
Mn433 N440 2.257 . S
Mn433 N449 2.282 . S
Mn433 O457 2.215 . S
Mn433 O459 2.117 . S
C434 O456 1.234 . S
C434 O457 1.283 . S
C435 O447 1.281 . S
C435 O448 1.236 . S
C436 O458 1.240 . S
C436 O459 1.264 . S
O437 Mn432 2.095 . S
O437 C446 1.250 . S
O438 Mn433 2.121 . S
O438 C446 1.258 . S
C439 N440 1.326 . S
C439 C443 1.460 . S
C439 H445 0.929 . S
N440 Mn433 2.257 . S
N440 C439 1.326 . S
N440 C444 1.362 . S
C441 C442 1.258 . S
C441 C444 1.431 . S
C441 C461 1.449 . S
C442 C441 1.258 . S
C442 C443 1.477 . S
C442 H462 0.931 . S
C443 C439 1.460 . S
C443 C442 1.477 . S
C443 H463 0.930 . S
C444 N440 1.362 . S
C444 C441 1.431 . S
C444 C454 1.476 . S
H445 C439 0.929 . S
C446 O437 1.250 . S
C446 O438 1.258 . S
O447 Mn432 2.162 1_565 S
O447 C435 1.281 . S
O448 Mn432 2.297 1_565 S
O448 C435 1.236 . S
N449 Mn433 2.282 . S
N449 C450 1.328 . S
N449 C454 1.318 . S
C450 N449 1.328 . S
C450 C451 1.457 . S
C450 H455 0.929 . S
C451 C450 1.457 . S
C451 C452 1.291 . S
C451 H464 0.931 . S
C452 C451 1.291 . S
C452 C453 1.373 . S
C452 H465 0.929 . S
C453 C452 1.373 . S
C453 C454 1.396 . S
C453 C460 1.403 . S
C454 C444 1.476 . S
C454 N449 1.318 . S
C454 C453 1.396 . S
H455 C450 0.929 . S
O456 Mn432 2.385 . S
O456 C434 1.234 . S
O457 Mn432 2.209 . S
O457 Mn433 2.215 . S
O457 C434 1.283 . S
O458 Mn432 2.094 . S
O458 C436 1.240 . S
O459 Mn433 2.117 . S
O459 C436 1.264 . S
C460 C453 1.403 . S
C460 C461 1.399 . S
C460 H466 0.929 . S
C461 C441 1.449 . S
C461 C460 1.399 . S
C461 H467 0.930 . S
H462 C442 0.931 . S
H463 C443 0.930 . S
H464 C451 0.931 . S
H465 C452 0.929 . S
H466 C460 0.929 . S
H467 C461 0.930 . S
Mn468 O473 2.141 . S
Mn468 O483 2.162 . S
Mn468 O484 2.297 . S
Mn468 O492 2.385 . S
Mn468 O493 2.209 . S
Mn468 O494 2.094 . S
Mn469 O474 2.121 1_655 S
Mn469 N476 2.257 . S
Mn469 N485 2.282 . S
Mn469 O493 2.215 . S
Mn469 O495 2.117 . S
C470 O492 1.234 . S
C470 O493 1.283 . S
C471 O483 1.281 . S
C471 O484 1.236 . S
C472 O494 1.240 . S
C472 O495 1.264 . S
O473 Mn468 2.141 . S
O473 C482 1.199 1_655 S
O474 Mn469 2.121 1_455 S
O474 C482 1.258 . S
C475 N476 1.326 1_455 S
C475 C479 1.460 . S
C475 H481 0.929 . S
N476 Mn469 2.257 . S
N476 C475 1.326 1_655 S
N476 C480 1.362 . S
C477 C478 1.258 . S
C477 C480 1.431 . S
C477 C497 1.449 . S
C478 C477 1.258 . S
C478 C479 1.477 1_655 S
C478 H498 0.923 1_655 S
C479 C475 1.460 . S
C479 C478 1.477 1_455 S
C479 H499 0.930 . S
C480 N476 1.362 . S
C480 C477 1.431 . S
C480 C490 1.476 . S
H481 C475 0.929 . S
C482 O473 1.199 1_455 S
C482 O474 1.258 . S
O483 Mn468 2.162 . S
O483 C471 1.281 . S
O484 Mn468 2.297 . S
O484 C471 1.236 . S
N485 Mn469 2.282 . S
N485 C486 1.328 . S
N485 C490 1.318 . S
C486 N485 1.328 . S
C486 C487 1.457 . S
C486 H491 0.929 . S
C487 C486 1.457 . S
C487 C488 1.291 . S
C487 H500 0.931 . S
C488 C487 1.291 . S
C488 C489 1.373 . S
C488 H501 0.929 . S
C489 C488 1.373 . S
C489 C490 1.396 . S
C489 C496 1.403 . S
C490 C480 1.476 . S
C490 N485 1.318 . S
C490 C489 1.396 . S
H491 C486 0.929 . S
O492 Mn468 2.385 . S
O492 C470 1.234 . S
O493 Mn468 2.209 . S
O493 Mn469 2.215 . S
O493 C470 1.283 . S
O494 Mn468 2.094 . S
O494 C472 1.240 . S
O495 Mn469 2.117 . S
O495 C472 1.264 . S
C496 C489 1.403 . S
C496 C497 1.399 . S
C496 H502 0.929 . S
C497 C477 1.449 . S
C497 C496 1.399 . S
C497 H503 0.930 . S
H498 C478 0.923 1_455 S
H499 C479 0.930 . S
H500 C487 0.931 . S
H501 C488 0.929 . S
H502 C496 0.929 . S
H503 C497 0.930 . S
Mn504 O509 2.095 . S
Mn504 O519 2.162 . S
Mn504 O520 2.297 . S
Mn504 O528 2.385 . S
Mn504 O529 2.209 . S
Mn504 O530 2.094 . S
Mn505 O510 2.121 . S
Mn505 N512 2.257 . S
Mn505 N521 2.282 . S
Mn505 O529 2.215 . S
Mn505 O531 2.117 . S
C506 O528 1.234 . S
C506 O529 1.283 . S
C507 O519 1.281 . S
C507 O520 1.236 . S
C508 O530 1.240 . S
C508 O531 1.264 . S
O509 Mn504 2.095 . S
O509 C518 1.250 . S
O510 Mn505 2.121 . S
O510 C518 1.258 . S
C511 N512 1.326 . S
C511 C515 1.460 . S
C511 H517 0.929 . S
N512 Mn505 2.257 . S
N512 C511 1.326 . S
N512 C516 1.362 . S
C513 C514 1.258 . S
C513 C516 1.431 . S
C513 C533 1.449 . S
C514 C513 1.258 . S
C514 C515 1.477 . S
C514 H534 0.931 . S
C515 C511 1.460 . S
C515 C514 1.477 . S
C515 H535 0.930 . S
C516 N512 1.362 . S
C516 C513 1.431 . S
C516 C526 1.476 . S
H517 C511 0.929 . S
C518 O509 1.250 . S
C518 O510 1.258 . S
O519 Mn504 2.162 . S
O519 C507 1.281 . S
O520 Mn504 2.297 . S
O520 C507 1.236 . S
N521 Mn505 2.282 . S
N521 C522 1.328 . S
N521 C526 1.318 . S
C522 N521 1.328 . S
C522 C523 1.457 . S
C522 H527 0.929 . S
C523 C522 1.457 . S
C523 C524 1.291 . S
C523 H536 0.931 . S
C524 C523 1.291 . S
C524 C525 1.373 . S
C524 H537 0.929 . S
C525 C524 1.373 . S
C525 C526 1.396 . S
C525 C532 1.403 . S
C526 C516 1.476 . S
C526 N521 1.318 . S
C526 C525 1.396 . S
H527 C522 0.929 . S
O528 Mn504 2.385 . S
O528 C506 1.234 . S
O529 Mn504 2.209 . S
O529 Mn505 2.215 . S
O529 C506 1.283 . S
O530 Mn504 2.094 . S
O530 C508 1.240 . S
O531 Mn505 2.117 . S
O531 C508 1.264 . S
C532 C525 1.403 . S
C532 C533 1.399 . S
C532 H538 0.929 . S
C533 C513 1.449 . S
C533 C532 1.399 . S
C533 H539 0.930 . S
H534 C514 0.931 . S
H535 C515 0.930 . S
H536 C523 0.931 . S
H537 C524 0.929 . S
H538 C532 0.929 . S
H539 C533 0.930 . S
Mn540 O545 2.095 . S
Mn540 O555 2.162 . S
Mn540 O556 2.297 . S
Mn540 O564 2.385 . S
Mn540 O565 2.209 . S
Mn540 O566 2.094 . S
Mn541 O546 2.121 . S
Mn541 N548 2.257 . S
Mn541 N557 2.282 . S
Mn541 O565 2.215 . S
Mn541 O567 2.117 . S
C542 O564 1.234 . S
C542 O565 1.283 . S
C543 O555 1.281 . S
C543 O556 1.236 . S
C544 O566 1.240 . S
C544 O567 1.264 . S
O545 Mn540 2.095 . S
O545 C554 1.250 . S
O546 Mn541 2.121 . S
O546 C554 1.258 . S
C547 N548 1.326 . S
C547 C551 1.460 . S
C547 H553 0.929 . S
N548 Mn541 2.257 . S
N548 C547 1.326 . S
N548 C552 1.362 . S
C549 C550 1.258 . S
C549 C552 1.431 . S
C549 C569 1.449 . S
C550 C549 1.258 . S
C550 C551 1.477 . S
C550 H570 0.931 . S
C551 C547 1.460 . S
C551 C550 1.477 . S
C551 H571 0.930 . S
C552 N548 1.362 . S
C552 C549 1.431 . S
C552 C562 1.476 . S
H553 C547 0.929 . S
C554 O545 1.250 . S
C554 O546 1.258 . S
O555 Mn540 2.162 . S
O555 C543 1.281 . S
O556 Mn540 2.297 . S
O556 C543 1.236 . S
N557 Mn541 2.282 . S
N557 C558 1.328 . S
N557 C562 1.318 . S
C558 N557 1.328 . S
C558 C559 1.457 . S
C558 H563 0.929 . S
C559 C558 1.457 . S
C559 C560 1.291 . S
C559 H572 0.931 . S
C560 C559 1.291 . S
C560 C561 1.373 . S
C560 H573 0.929 . S
C561 C560 1.373 . S
C561 C562 1.396 . S
C561 C568 1.403 . S
C562 C552 1.476 . S
C562 N557 1.318 . S
C562 C561 1.396 . S
H563 C558 0.929 . S
O564 Mn540 2.385 . S
O564 C542 1.234 . S
O565 Mn540 2.209 . S
O565 Mn541 2.215 . S
O565 C542 1.283 . S
O566 Mn540 2.094 . S
O566 C544 1.240 . S
O567 Mn541 2.117 . S
O567 C544 1.264 . S
C568 C561 1.403 . S
C568 C569 1.399 . S
C568 H574 0.929 . S
C569 C549 1.449 . S
C569 C568 1.399 . S
C569 H575 0.930 . S
H570 C550 0.931 . S
H571 C551 0.930 . S
H572 C559 0.931 . S
H573 C560 0.929 . S
H574 C568 0.929 . S
H575 C569 0.930 . S
Mn576 O581 2.095 1_545 S
Mn576 O591 2.162 . S
Mn576 O592 2.297 . S
Mn576 O600 2.385 . S
Mn576 O601 2.209 . S
Mn576 O602 2.094 . S
Mn577 O582 2.121 1_545 S
Mn577 N584 2.257 . S
Mn577 N593 2.282 . S
Mn577 O601 2.215 . S
Mn577 O603 2.117 . S
C578 O600 1.234 . S
C578 O601 1.283 . S
C579 O591 1.281 . S
C579 O592 1.236 . S
C580 O602 1.240 . S
C580 O603 1.264 . S
O581 Mn576 2.095 1_565 S
O581 C590 1.250 . S
O582 Mn577 2.121 1_565 S
O582 C590 1.258 . S
C583 N584 1.326 1_565 S
C583 C587 1.460 . S
C583 H589 0.929 . S
N584 Mn577 2.257 . S
N584 C583 1.326 1_545 S
N584 C588 1.362 . S
C585 C586 1.258 . S
C585 C588 1.431 . S
C585 C605 1.449 . S
C586 C585 1.258 . S
C586 C587 1.477 1_545 S
C586 H606 0.917 1_545 S
C587 C583 1.460 . S
C587 C586 1.477 1_565 S
C587 H607 0.930 . S
C588 N584 1.362 . S
C588 C585 1.431 . S
C588 C598 1.476 . S
H589 C583 0.929 . S
C590 O581 1.250 . S
C590 O582 1.258 . S
O591 Mn576 2.162 . S
O591 C579 1.281 . S
O592 Mn576 2.297 . S
O592 C579 1.236 . S
N593 Mn577 2.282 . S
N593 C594 1.328 . S
N593 C598 1.318 . S
C594 N593 1.328 . S
C594 C595 1.457 . S
C594 H599 0.929 . S
C595 C594 1.457 . S
C595 C596 1.291 . S
C595 H608 0.931 . S
C596 C595 1.291 . S
C596 C597 1.373 . S
C596 H609 0.929 . S
C597 C596 1.373 . S
C597 C598 1.396 . S
C597 C604 1.403 . S
C598 C588 1.476 . S
C598 N593 1.318 . S
C598 C597 1.396 . S
H599 C594 0.929 . S
O600 Mn576 2.385 . S
O600 C578 1.234 . S
O601 Mn576 2.209 . S
O601 Mn577 2.215 . S
O601 C578 1.283 . S
O602 Mn576 2.094 . S
O602 C580 1.240 . S
O603 Mn577 2.117 . S
O603 C580 1.264 . S
C604 C597 1.403 . S
C604 C605 1.399 . S
C604 H610 0.929 . S
C605 C585 1.449 . S
C605 C604 1.399 . S
C605 H611 0.930 . S
H606 C586 0.917 1_565 S
H607 C587 0.930 . S
H608 C595 0.931 . S
H609 C596 0.929 . S
H610 C604 0.929 . S
H611 C605 0.930 . S
Mn612 O617 2.095 . S
Mn612 O627 2.162 1_655 S
Mn612 O628 2.297 1_655 S
Mn612 O636 2.385 . S
Mn612 O637 2.209 . S
Mn612 O638 2.094 . S
Mn613 O618 2.121 . S
Mn613 N620 2.257 . S
Mn613 N629 2.282 . S
Mn613 O637 2.215 . S
Mn613 O639 2.117 . S
C614 O636 1.234 . S
C614 O637 1.283 . S
C615 O627 1.281 . S
C615 O628 1.236 . S
C616 O638 1.240 . S
C616 O639 1.264 . S
O617 Mn612 2.095 . S
O617 C626 1.250 . S
O618 Mn613 2.121 . S
O618 C626 1.258 . S
C619 N620 1.326 . S
C619 C623 1.460 . S
C619 H625 0.929 . S
N620 Mn613 2.257 . S
N620 C619 1.326 . S
N620 C624 1.362 . S
C621 C622 1.258 . S
C621 C624 1.431 . S
C621 C641 1.449 . S
C622 C621 1.258 . S
C622 C623 1.477 . S
C622 H642 0.931 . S
C623 C619 1.460 . S
C623 C622 1.477 . S
C623 H643 0.930 . S
C624 N620 1.362 . S
C624 C621 1.431 . S
C624 C634 1.476 . S
H625 C619 0.929 . S
C626 O617 1.250 . S
C626 O618 1.258 . S
O627 Mn612 2.162 1_455 S
O627 C615 1.281 . S
O628 Mn612 2.297 1_455 S
O628 C615 1.236 . S
N629 Mn613 2.282 . S
N629 C630 1.328 . S
N629 C634 1.318 . S
C630 N629 1.328 . S
C630 C631 1.457 . S
C630 H635 0.929 . S
C631 C630 1.457 . S
C631 C632 1.291 . S
C631 H644 0.931 . S
C632 C631 1.291 . S
C632 C633 1.373 . S
C632 H645 0.929 . S
C633 C632 1.373 . S
C633 C634 1.396 . S
C633 C640 1.403 . S
C634 C624 1.476 . S
C634 N629 1.318 . S
C634 C633 1.396 . S
H635 C630 0.929 . S
O636 Mn612 2.385 . S
O636 C614 1.234 . S
O637 Mn612 2.209 . S
O637 Mn613 2.215 . S
O637 C614 1.283 . S
O638 Mn612 2.094 . S
O638 C616 1.240 . S
O639 Mn613 2.117 . S
O639 C616 1.264 . S
C640 C633 1.403 . S
C640 C641 1.399 . S
C640 H646 0.929 . S
C641 C621 1.449 . S
C641 C640 1.399 . S
C641 H647 0.930 . S
H642 C622 0.931 . S
H643 C623 0.930 . S
H644 C631 0.931 . S
H645 C632 0.929 . S
H646 C640 0.929 . S
H647 C641 0.930 . S
H648 C656 0.930 . S
H649 C659 0.930 . S
H650 C661 0.930 . S
H651 C662 0.970 . S
H652 C662 0.970 . S
H653 C664 0.930 . S
H654 C666 0.930 . S
H655 C668 0.930 . S
C656 H648 0.930 . S
C656 C657 1.382 . S
C656 C658 1.426 . S
C657 C656 1.382 . S
C657 C661 1.389 . S
C658 C656 1.426 . S
C658 C659 1.375 . S
C658 C662 1.532 . S
C659 H649 0.930 . S
C659 C658 1.375 . S
C659 C660 1.416 . S
C660 C659 1.416 . S
C660 C661 1.371 . S
C661 H650 0.930 . S
C661 C657 1.389 . S
C661 C660 1.371 . S
C662 H651 0.970 . S
C662 H652 0.970 . S
C662 C658 1.532 . S
C662 C663 1.499 . S
C663 C662 1.499 . S
C663 C664 1.370 . S
C663 C668 1.415 . S
C664 H653 0.930 . S
C664 C663 1.370 . S
C664 C665 1.407 . S
C665 C664 1.407 . S
C665 C666 1.365 . S
C666 H654 0.930 . S
C666 C665 1.365 . S
C666 C667 1.393 . S
C667 C666 1.393 . S
C667 C668 1.387 . S
C668 H655 0.930 . S
C668 C663 1.415 . S
C668 C667 1.387 . S
H669 C677 0.930 . S
H670 C680 0.930 . S
H671 C682 0.930 . S
H672 C683 0.970 . S
H673 C683 0.970 . S
H674 C685 0.930 . S
H675 C687 0.930 . S
H676 C689 0.930 . S
C677 H669 0.930 . S
C677 C678 1.382 . S
C677 C679 1.426 . S
C678 C677 1.382 . S
C678 C682 1.389 . S
C679 C677 1.426 . S
C679 C680 1.375 . S
C679 C683 1.532 . S
C680 H670 0.930 . S
C680 C679 1.375 . S
C680 C681 1.416 . S
C681 C680 1.416 . S
C681 C682 1.371 . S
C682 H671 0.930 . S
C682 C678 1.389 . S
C682 C681 1.371 . S
C683 H672 0.970 . S
C683 H673 0.970 . S
C683 C679 1.532 . S
C683 C684 1.499 . S
C684 C683 1.499 . S
C684 C685 1.370 . S
C684 C689 1.415 . S
C685 H674 0.930 . S
C685 C684 1.370 . S
C685 C686 1.407 . S
C686 C685 1.407 . S
C686 C687 1.365 . S
C687 H675 0.930 . S
C687 C686 1.365 . S
C687 C688 1.393 . S
C688 C687 1.393 . S
C688 C689 1.387 . S
C689 H676 0.930 . S
C689 C684 1.415 . S
C689 C688 1.387 . S
H690 C698 0.930 . S
H691 C701 0.930 . S
H692 C703 0.930 . S
H693 C704 0.970 . S
H694 C704 0.970 . S
H695 C706 0.930 . S
H696 C708 0.930 . S
H697 C710 0.930 . S
C698 H690 0.930 . S
C698 C699 1.382 . S
C698 C700 1.426 . S
C699 C698 1.382 . S
C699 C703 1.389 . S
C700 C698 1.426 . S
C700 C701 1.375 . S
C700 C704 1.532 . S
C701 H691 0.930 . S
C701 C700 1.375 . S
C701 C702 1.416 . S
C702 C701 1.416 . S
C702 C703 1.371 . S
C703 H692 0.930 . S
C703 C699 1.389 . S
C703 C702 1.371 . S
C704 H693 0.970 . S
C704 H694 0.970 . S
C704 C700 1.532 . S
C704 C705 1.499 . S
C705 C704 1.499 . S
C705 C706 1.370 . S
C705 C710 1.415 . S
C706 H695 0.930 . S
C706 C705 1.370 . S
C706 C707 1.407 . S
C707 C706 1.407 . S
C707 C708 1.365 . S
C708 H696 0.930 . S
C708 C707 1.365 . S
C708 C709 1.393 . S
C709 C708 1.393 . S
C709 C710 1.387 . S
C710 H697 0.930 . S
C710 C705 1.415 . S
C710 C709 1.387 . S
H711 C719 0.930 . S
H712 C722 0.930 . S
H713 C724 0.930 . S
H714 C725 0.970 . S
H715 C725 0.970 . S
H716 C727 0.930 . S
H717 C729 0.930 . S
H718 C731 0.930 . S
C719 H711 0.930 . S
C719 C720 1.382 . S
C719 C721 1.426 . S
C720 C719 1.382 . S
C720 C724 1.389 . S
C721 C719 1.426 . S
C721 C722 1.375 . S
C721 C725 1.532 . S
C722 H712 0.930 . S
C722 C721 1.375 . S
C722 C723 1.416 . S
C723 C722 1.416 . S
C723 C724 1.371 . S
C724 H713 0.930 . S
C724 C720 1.389 . S
C724 C723 1.371 . S
C725 H714 0.970 . S
C725 H715 0.970 . S
C725 C721 1.532 . S
C725 C726 1.499 . S
C726 C725 1.499 . S
C726 C727 1.370 . S
C726 C731 1.415 . S
C727 H716 0.930 . S
C727 C726 1.370 . S
C727 C728 1.407 . S
C728 C727 1.407 . S
C728 C729 1.365 . S
C729 H717 0.930 . S
C729 C728 1.365 . S
C729 C730 1.393 . S
C730 C729 1.393 . S
C730 C731 1.387 . S
C731 H718 0.930 . S
C731 C726 1.415 . S
C731 C730 1.387 . S
H732 C740 0.930 . S
H733 C743 0.930 . S
H734 C745 0.930 . S
H735 C746 0.970 . S
H736 C746 0.970 . S
H737 C748 0.930 . S
H738 C750 0.930 . S
H739 C752 0.930 . S
C740 H732 0.930 . S
C740 C741 1.382 . S
C740 C742 1.426 . S
C741 C740 1.382 . S
C741 C745 1.389 . S
C742 C740 1.426 . S
C742 C743 1.375 . S
C742 C746 1.532 . S
C743 H733 0.930 . S
C743 C742 1.375 . S
C743 C744 1.416 . S
C744 C743 1.416 . S
C744 C745 1.371 . S
C745 H734 0.930 . S
C745 C741 1.389 . S
C745 C744 1.371 . S
C746 H735 0.970 . S
C746 H736 0.970 . S
C746 C742 1.532 . S
C746 C747 1.499 . S
C747 C746 1.499 . S
C747 C748 1.370 . S
C747 C752 1.415 . S
C748 H737 0.930 . S
C748 C747 1.370 . S
C748 C749 1.407 . S
C749 C748 1.407 . S
C749 C750 1.365 . S
C750 H738 0.930 . S
C750 C749 1.365 . S
C750 C751 1.393 . S
C751 C750 1.393 . S
C751 C752 1.387 . S
C752 H739 0.930 . S
C752 C747 1.415 . S
C752 C751 1.387 . S
H753 C761 0.930 . S
H754 C764 0.930 . S
H755 C766 0.930 . S
H756 C767 0.970 . S
H757 C767 0.970 . S
H758 C769 0.930 . S
H759 C771 0.930 . S
H760 C773 0.930 . S
C761 H753 0.930 . S
C761 C762 1.382 . S
C761 C763 1.426 . S
C762 C761 1.382 . S
C762 C766 1.389 . S
C763 C761 1.426 . S
C763 C764 1.375 . S
C763 C767 1.532 . S
C764 H754 0.930 . S
C764 C763 1.375 . S
C764 C765 1.416 . S
C765 C764 1.416 . S
C765 C766 1.371 . S
C766 H755 0.930 . S
C766 C762 1.389 . S
C766 C765 1.371 . S
C767 H756 0.970 . S
C767 H757 0.970 . S
C767 C763 1.532 . S
C767 C768 1.499 . S
C768 C767 1.499 . S
C768 C769 1.370 . S
C768 C773 1.415 . S
C769 H758 0.930 . S
C769 C768 1.370 . S
C769 C770 1.407 . S
C770 C769 1.407 . S
C770 C771 1.365 . S
C771 H759 0.930 . S
C771 C770 1.365 . S
C771 C772 1.393 . S
C772 C771 1.393 . S
C772 C773 1.387 . S
C773 H760 0.930 . S
C773 C768 1.415 . S
C773 C772 1.387 . S
H774 C782 0.930 . S
H775 C785 0.930 . S
H776 C787 0.930 . S
H777 C788 0.970 . S
H778 C788 0.970 . S
H779 C790 0.930 . S
H780 C792 0.930 . S
H781 C794 0.930 . S
C782 H774 0.930 . S
C782 C783 1.382 . S
C782 C784 1.426 . S
C783 C782 1.382 . S
C783 C787 1.389 . S
C784 C782 1.426 . S
C784 C785 1.375 . S
C784 C788 1.532 . S
C785 H775 0.930 . S
C785 C784 1.375 . S
C785 C786 1.416 . S
C786 C785 1.416 . S
C786 C787 1.371 . S
C787 H776 0.930 . S
C787 C783 1.389 . S
C787 C786 1.371 . S
C788 H777 0.970 . S
C788 H778 0.970 . S
C788 C784 1.532 . S
C788 C789 1.499 . S
C789 C788 1.499 . S
C789 C790 1.370 . S
C789 C794 1.415 . S
C790 H779 0.930 . S
C790 C789 1.370 . S
C790 C791 1.407 . S
C791 C790 1.407 . S
C791 C792 1.365 . S
C792 H780 0.930 . S
C792 C791 1.365 . S
C792 C793 1.393 . S
C793 C792 1.393 . S
C793 C794 1.387 . S
C794 H781 0.930 . S
C794 C789 1.415 . S
C794 C793 1.387 . S
H795 C803 0.930 . S
H796 C806 0.930 . S
H797 C808 0.930 . S
H798 C809 0.970 . S
H799 C809 0.970 . S
H800 C811 0.930 . S
H801 C813 0.930 . S
H802 C815 0.930 . S
C803 H795 0.930 . S
C803 C804 1.382 . S
C803 C805 1.426 . S
C804 C803 1.382 . S
C804 C808 1.389 . S
C805 C803 1.426 . S
C805 C806 1.375 . S
C805 C809 1.532 . S
C806 H796 0.930 . S
C806 C805 1.375 . S
C806 C807 1.416 . S
C807 C806 1.416 . S
C807 C808 1.371 . S
C808 H797 0.930 . S
C808 C804 1.389 . S
C808 C807 1.371 . S
C809 H798 0.970 . S
C809 H799 0.970 . S
C809 C805 1.532 . S
C809 C810 1.499 . S
C810 C809 1.499 . S
C810 C811 1.370 . S
C810 C815 1.415 . S
C811 H800 0.930 . S
C811 C810 1.370 . S
C811 C812 1.407 . S
C812 C811 1.407 . S
C812 C813 1.365 . S
C813 H801 0.930 . S
C813 C812 1.365 . S
C813 C814 1.393 . S
C814 C813 1.393 . S
C814 C815 1.387 . S
C815 H802 0.930 . S
C815 C810 1.415 . S
C815 C814 1.387 . S
H816 C824 0.930 . S
H817 C827 0.930 . S
H818 C829 0.930 . S
H819 C830 0.970 . S
H820 C830 0.970 . S
H821 C832 0.930 . S
H822 C834 0.930 . S
H823 C836 0.930 . S
C824 H816 0.930 . S
C824 C825 1.382 . S
C824 C826 1.426 . S
C825 C824 1.382 . S
C825 C829 1.389 . S
C826 C824 1.426 . S
C826 C827 1.375 . S
C826 C830 1.532 . S
C827 H817 0.930 . S
C827 C826 1.375 . S
C827 C828 1.416 . S
C828 C827 1.416 . S
C828 C829 1.371 . S
C829 H818 0.930 . S
C829 C825 1.389 . S
C829 C828 1.371 . S
C830 H819 0.970 . S
C830 H820 0.970 . S
C830 C826 1.532 . S
C830 C831 1.499 . S
C831 C830 1.499 . S
C831 C832 1.370 . S
C831 C836 1.415 . S
C832 H821 0.930 . S
C832 C831 1.370 . S
C832 C833 1.407 . S
C833 C832 1.407 . S
C833 C834 1.365 . S
C834 H822 0.930 . S
C834 C833 1.365 . S
C834 C835 1.393 . S
C835 C834 1.393 . S
C835 C836 1.387 . S
C836 H823 0.930 . S
C836 C831 1.415 . S
C836 C835 1.387 . S
H837 C845 0.930 . S
H838 C848 0.930 . S
H839 C850 0.930 . S
H840 C851 0.970 . S
H841 C851 0.970 . S
H842 C853 0.930 . S
H843 C855 0.930 . S
H844 C857 0.930 . S
C845 H837 0.930 . S
C845 C846 1.382 . S
C845 C847 1.426 . S
C846 C845 1.382 . S
C846 C850 1.389 1_455 S
C847 C845 1.426 . S
C847 C848 1.375 . S
C847 C851 1.532 . S
C848 H838 0.930 . S
C848 C847 1.375 . S
C848 C849 1.416 . S
C849 C848 1.416 . S
C849 C850 1.371 1_455 S
C850 H839 0.930 . S
C850 C846 1.389 1_655 S
C850 C849 1.371 1_655 S
C851 H840 0.970 . S
C851 H841 0.970 . S
C851 C847 1.532 . S
C851 C852 1.499 . S
C852 C851 1.499 . S
C852 C853 1.370 . S
C852 C857 1.415 . S
C853 H842 0.930 . S
C853 C852 1.370 . S
C853 C854 1.411 . S
C854 C853 1.411 . S
C854 C855 1.367 1_455 S
C855 H843 0.930 . S
C855 C854 1.367 1_655 S
C855 C856 1.393 1_655 S
C856 C855 1.393 1_455 S
C856 C857 1.387 . S
C857 H844 0.930 . S
C857 C852 1.415 . S
C857 C856 1.387 . S
H858 C866 0.930 . S
H859 C869 0.930 . S
H860 C871 0.930 . S
H861 C872 0.970 . S
H862 C872 0.970 . S
H863 C874 0.930 . S
H864 C876 0.930 . S
H865 C878 0.930 . S
C866 H858 0.930 . S
C866 C867 1.382 . S
C866 C868 1.426 . S
C867 C866 1.382 . S
C867 C871 1.389 . S
C868 C866 1.426 . S
C868 C869 1.375 . S
C868 C872 1.532 . S
C869 H859 0.930 . S
C869 C868 1.375 . S
C869 C870 1.416 . S
C870 C869 1.416 . S
C870 C871 1.371 . S
C871 H860 0.930 . S
C871 C867 1.389 . S
C871 C870 1.371 . S
C872 H861 0.970 . S
C872 H862 0.970 . S
C872 C868 1.532 . S
C872 C873 1.499 . S
C873 C872 1.499 . S
C873 C874 1.370 . S
C873 C878 1.415 . S
C874 H863 0.930 . S
C874 C873 1.370 . S
C874 C875 1.407 . S
C875 C874 1.407 . S
C875 C876 1.365 . S
C876 H864 0.930 . S
C876 C875 1.365 . S
C876 C877 1.393 . S
C877 C876 1.393 . S
C877 C878 1.387 . S
C878 H865 0.930 . S
C878 C873 1.415 . S
C878 C877 1.387 . S
H879 C887 0.930 . S
H880 C890 0.930 . S
H881 C892 0.930 . S
H882 C893 0.970 . S
H883 C893 0.970 . S
H884 C895 0.930 . S
H885 C897 0.930 . S
H886 C899 0.930 . S
C887 H879 0.930 . S
C887 C888 1.382 . S
C887 C889 1.426 . S
C888 C887 1.382 . S
C888 C892 1.389 1_565 S
C889 C887 1.426 . S
C889 C890 1.375 . S
C889 C893 1.532 . S
C890 H880 0.930 . S
C890 C889 1.375 . S
C890 C891 1.416 . S
C891 C890 1.416 . S
C891 C892 1.371 1_565 S
C892 H881 0.930 . S
C892 C888 1.389 1_545 S
C892 C891 1.371 1_545 S
C893 H882 0.970 . S
C893 H883 0.970 . S
C893 C889 1.532 . S
C893 C894 1.499 . S
C894 C893 1.499 . S
C894 C895 1.370 . S
C894 C899 1.415 . S
C895 H884 0.930 . S
C895 C894 1.370 . S
C895 C896 1.448 . S
C896 C895 1.448 . S
C896 C897 1.349 1_565 S
C897 H885 0.930 . S
C897 C896 1.349 1_545 S
C897 C898 1.393 1_545 S
C898 C897 1.393 1_565 S
C898 C899 1.387 . S
C899 H886 0.930 . S
C899 C894 1.415 . S
C899 C898 1.387 . S
H900 C908 0.930 . S
H901 C911 0.930 . S
H902 C913 0.930 . S
H903 C914 0.970 . S
H904 C914 0.970 . S
H905 C916 0.930 . S
H906 C918 0.930 . S
H907 C920 0.930 . S
C908 H900 0.930 . S
C908 C909 1.382 . S
C908 C910 1.426 . S
C909 C908 1.382 . S
C909 C913 1.389 1_565 S
C910 C908 1.426 . S
C910 C911 1.375 . S
C910 C914 1.532 . S
C911 H901 0.930 . S
C911 C910 1.375 . S
C911 C912 1.416 . S
C912 C911 1.416 . S
C912 C913 1.371 1_565 S
C913 H902 0.930 . S
C913 C909 1.389 1_545 S
C913 C912 1.371 1_545 S
C914 H903 0.970 . S
C914 H904 0.970 . S
C914 C910 1.532 . S
C914 C915 1.499 . S
C915 C914 1.499 . S
C915 C916 1.370 . S
C915 C920 1.415 . S
C916 H905 0.930 . S
C916 C915 1.370 . S
C916 C917 1.407 . S
C917 C916 1.407 . S
C917 C918 1.365 1_565 S
C918 H906 0.930 . S
C918 C917 1.365 1_545 S
C918 C919 1.393 1_545 S
C919 C918 1.393 1_565 S
C919 C920 1.387 . S
C920 H907 0.930 . S
C920 C915 1.415 . S
C920 C919 1.387 . S
H921 C929 0.930 . S
H922 C932 0.930 . S
H923 C934 0.930 . S
H924 C935 0.970 . S
H925 C935 0.970 . S
H926 C937 0.930 . S
H927 C939 0.930 . S
H928 C941 0.930 . S
C929 H921 0.930 . S
C929 C930 1.382 . S
C929 C931 1.426 . S
C930 C929 1.382 . S
C930 C934 1.389 1_455 S
C931 C929 1.426 . S
C931 C932 1.375 . S
C931 C935 1.532 . S
C932 H922 0.930 . S
C932 C931 1.375 . S
C932 C933 1.416 . S
C933 C932 1.416 . S
C933 C934 1.371 1_455 S
C934 H923 0.930 . S
C934 C930 1.389 1_655 S
C934 C933 1.371 1_655 S
C935 H924 0.970 . S
C935 H925 0.970 . S
C935 C931 1.532 . S
C935 C936 1.499 . S
C936 C935 1.499 . S
C936 C937 1.370 . S
C936 C941 1.415 . S
C937 H926 0.930 . S
C937 C936 1.370 . S
C937 C938 1.407 . S
C938 C937 1.407 . S
C938 C939 1.365 1_455 S
C939 H927 0.930 . S
C939 C938 1.365 1_655 S
C939 C940 1.393 1_655 S
C940 C939 1.393 1_455 S
C940 C941 1.387 . S
C941 H928 0.930 . S
C941 C936 1.415 . S
C941 C940 1.387 . S
H942 C950 0.930 . S
H943 C953 0.930 . S
H944 C955 0.930 . S
H945 C956 0.970 . S
H946 C956 0.970 . S
H947 C958 0.930 . S
H948 C960 0.930 . S
H949 C962 0.930 . S
C950 H942 0.930 . S
C950 C951 1.382 . S
C950 C952 1.426 . S
C951 C950 1.382 . S
C951 C955 1.389 . S
C952 C950 1.426 . S
C952 C953 1.375 . S
C952 C956 1.532 . S
C953 H943 0.930 . S
C953 C952 1.375 . S
C953 C954 1.416 . S
C954 C953 1.416 . S
C954 C955 1.371 . S
C955 H944 0.930 . S
C955 C951 1.389 . S
C955 C954 1.371 . S
C956 H945 0.970 . S
C956 H946 0.970 . S
C956 C952 1.532 . S
C956 C957 1.499 . S
C957 C956 1.499 . S
C957 C958 1.370 . S
C957 C962 1.415 . S
C958 H947 0.930 . S
C958 C957 1.370 . S
C958 C959 1.407 . S
C959 C958 1.407 . S
C959 C960 1.365 . S
C960 H948 0.930 . S
C960 C959 1.365 . S
C960 C961 1.393 . S
C961 C960 1.393 . S
C961 C962 1.387 . S
C962 H949 0.930 . S
C962 C957 1.415 . S
C962 C961 1.387 . S
H963 C971 0.930 . S
H964 C974 0.930 . S
H965 C976 0.930 . S
H966 C977 0.970 . S
H967 C977 0.970 . S
H968 C979 0.930 . S
H969 C981 0.930 . S
H970 C983 0.930 . S
C971 H963 0.930 . S
C971 C972 1.382 . S
C971 C973 1.426 . S
C972 C971 1.382 . S
C972 C976 1.389 . S
C973 C971 1.426 . S
C973 C974 1.375 . S
C973 C977 1.532 . S
C974 H964 0.930 . S
C974 C973 1.375 . S
C974 C975 1.416 . S
C975 C974 1.416 . S
C975 C976 1.371 . S
C976 H965 0.930 . S
C976 C972 1.389 . S
C976 C975 1.371 . S
C977 H966 0.970 . S
C977 H967 0.970 . S
C977 C973 1.532 . S
C977 C978 1.499 . S
C978 C977 1.499 . S
C978 C979 1.370 . S
C978 C983 1.415 . S
C979 H968 0.930 . S
C979 C978 1.370 . S
C979 C980 1.407 . S
C980 C979 1.407 . S
C980 C981 1.365 . S
C981 H969 0.930 . S
C981 C980 1.365 . S
C981 C982 1.393 . S
C982 C981 1.393 . S
C982 C983 1.387 . S
C983 H970 0.930 . S
C983 C978 1.415 . S
C983 C982 1.387 . S
H984 C992 0.930 . S
H985 C995 0.930 . S
H986 C997 0.930 . S
H987 C998 0.970 . S
H988 C998 0.970 . S
H989 C1000 0.930 . S
H990 C1002 0.930 . S
H991 C1004 0.930 . S
C992 H984 0.930 . S
C992 C993 1.382 . S
C992 C994 1.426 . S
C993 C992 1.382 . S
C993 C997 1.389 . S
C994 C992 1.426 . S
C994 C995 1.375 . S
C994 C998 1.532 . S
C995 H985 0.930 . S
C995 C994 1.375 . S
C995 C996 1.416 . S
C996 C995 1.416 . S
C996 C997 1.371 . S
C997 H986 0.930 . S
C997 C993 1.389 . S
C997 C996 1.371 . S
C998 H987 0.970 . S
C998 H988 0.970 . S
C998 C994 1.532 . S
C998 C999 1.499 . S
C999 C998 1.499 . S
C999 C1000 1.370 . S
C999 C1004 1.415 . S
C1000 H989 0.930 . S
C1000 C999 1.370 . S
C1000 C1001 1.407 . S
C1001 C1000 1.407 . S
C1001 C1002 1.365 . S
C1002 H990 0.930 . S
C1002 C1001 1.365 . S
C1002 C1003 1.393 . S
C1003 C1002 1.393 . S
C1003 C1004 1.387 . S
C1004 H991 0.930 . S
C1004 C999 1.415 . S
C1004 C1003 1.387 . S
H1005 C1013 0.930 . S
H1006 C1016 0.930 . S
H1007 C1018 0.930 . S
H1008 C1019 0.970 . S
H1009 C1019 0.970 . S
H1010 C1021 0.930 . S
H1011 C1023 0.930 . S
H1012 C1025 0.930 . S
C1013 H1005 0.930 . S
C1013 C1014 1.382 . S
C1013 C1015 1.426 . S
C1014 C1013 1.382 . S
C1014 C1018 1.389 . S
C1015 C1013 1.426 . S
C1015 C1016 1.375 . S
C1015 C1019 1.532 . S
C1016 H1006 0.930 . S
C1016 C1015 1.375 . S
C1016 C1017 1.416 . S
C1017 C1016 1.416 . S
C1017 C1018 1.371 . S
C1018 H1007 0.930 . S
C1018 C1014 1.389 . S
C1018 C1017 1.371 . S
C1019 H1008 0.970 . S
C1019 H1009 0.970 . S
C1019 C1015 1.532 . S
C1019 C1020 1.499 . S
C1020 C1019 1.499 . S
C1020 C1021 1.370 . S
C1020 C1025 1.415 . S
C1021 H1010 0.930 . S
C1021 C1020 1.370 . S
C1021 C1022 1.407 . S
C1022 C1021 1.407 . S
C1022 C1023 1.365 . S
C1023 H1011 0.930 . S
C1023 C1022 1.365 . S
C1023 C1024 1.393 . S
C1024 C1023 1.393 . S
C1024 C1025 1.387 . S
C1025 H1012 0.930 . S
C1025 C1020 1.415 . S
C1025 C1024 1.387 . S
H1026 C1038 0.930 . S
H1027 C1040 0.930 . S
H1028 C1041 0.930 . S
H1029 C1045 0.959 . S
H1030 C1045 0.959 . S
H1031 C1045 0.961 . S
H1032 C1046 0.960 . S
H1033 C1046 0.961 . S
H1034 C1046 0.959 . S
H1035 C1049 0.929 . S
H1036 C1050 0.931 . S
H1037 C1052 0.930 . S
C1038 H1026 0.930 . S
C1038 C1039 1.399 1_455 S
C1038 C1043 1.399 . S
C1039 C1038 1.399 1_655 S
C1039 C1040 1.376 . S
C1040 H1027 0.930 . S
C1040 C1039 1.376 . S
C1040 C1041 1.388 . S
C1041 H1028 0.930 . S
C1041 C1040 1.388 . S
C1041 C1042 1.390 . S
C1042 C1041 1.390 . S
C1042 C1043 1.394 1_655 S
C1042 C1048 1.465 . S
C1043 C1038 1.399 . S
C1043 C1042 1.394 1_455 S
C1043 C1044 1.516 . S
C1044 C1043 1.516 . S
C1044 C1045 1.502 . S
C1044 C1046 1.561 . S
C1044 C1047 1.526 . S
C1045 H1029 0.959 . S
C1045 H1030 0.959 . S
C1045 H1031 0.961 . S
C1045 C1044 1.502 . S
C1046 H1032 0.960 . S
C1046 H1033 0.961 . S
C1046 H1034 0.959 . S
C1046 C1044 1.561 . S
C1047 C1044 1.526 . S
C1047 C1048 1.396 1_455 S
C1047 C1052 1.390 . S
C1048 C1042 1.465 . S
C1048 C1047 1.396 1_655 S
C1048 C1049 1.399 . S
C1049 H1035 0.929 . S
C1049 C1048 1.399 . S
C1049 C1050 1.385 . S
C1050 H1036 0.931 . S
C1050 C1049 1.385 . S
C1050 C1051 1.389 . S
C1051 C1050 1.389 . S
C1051 C1052 1.387 1_655 S
C1052 H1037 0.930 . S
C1052 C1047 1.390 . S
C1052 C1051 1.387 1_455 S
H1053 C1065 0.930 . S
H1054 C1067 0.930 . S
H1055 C1068 0.930 . S
H1056 C1072 0.959 . S
H1057 C1072 0.959 . S
H1058 C1072 0.961 . S
H1059 C1073 0.960 . S
H1060 C1073 0.961 . S
H1061 C1073 0.959 . S
H1062 C1076 0.929 . S
H1063 C1077 0.931 . S
H1064 C1079 0.930 . S
C1065 H1053 0.930 . S
C1065 C1066 1.399 . S
C1065 C1070 1.399 . S
C1066 C1065 1.399 . S
C1066 C1067 1.376 . S
C1067 H1054 0.930 . S
C1067 C1066 1.376 . S
C1067 C1068 1.388 . S
C1068 H1055 0.930 . S
C1068 C1067 1.388 . S
C1068 C1069 1.390 . S
C1069 C1068 1.390 . S
C1069 C1070 1.394 . S
C1069 C1075 1.465 . S
C1070 C1065 1.399 . S
C1070 C1069 1.394 . S
C1070 C1071 1.516 . S
C1071 C1070 1.516 . S
C1071 C1072 1.502 . S
C1071 C1073 1.561 . S
C1071 C1074 1.526 . S
C1072 H1056 0.959 . S
C1072 H1057 0.959 . S
C1072 H1058 0.961 . S
C1072 C1071 1.502 . S
C1073 H1059 0.960 . S
C1073 H1060 0.961 . S
C1073 H1061 0.959 . S
C1073 C1071 1.561 . S
C1074 C1071 1.526 . S
C1074 C1075 1.396 . S
C1074 C1079 1.390 . S
C1075 C1069 1.465 . S
C1075 C1074 1.396 . S
C1075 C1076 1.399 . S
C1076 H1062 0.929 . S
C1076 C1075 1.399 . S
C1076 C1077 1.385 . S
C1077 H1063 0.931 . S
C1077 C1076 1.385 . S
C1077 C1078 1.389 . S
C1078 C1077 1.389 . S
C1078 C1079 1.387 . S
C1079 H1064 0.930 . S
C1079 C1074 1.390 . S
C1079 C1078 1.387 . S
H1080 C1092 0.930 . S
H1081 C1094 0.930 . S
H1082 C1095 0.930 . S
H1083 C1099 0.959 . S
H1084 C1099 0.959 . S
H1085 C1099 0.961 . S
H1086 C1100 0.960 . S
H1087 C1100 0.961 . S
H1088 C1100 0.959 1_545 S
H1089 C1103 0.929 . S
H1090 C1104 0.931 . S
H1091 C1106 0.930 . S
C1092 H1080 0.930 . S
C1092 C1093 1.399 1_565 S
C1092 C1097 1.399 . S
C1093 C1092 1.399 1_545 S
C1093 C1094 1.376 . S
C1094 H1081 0.930 . S
C1094 C1093 1.376 . S
C1094 C1095 1.388 . S
C1095 H1082 0.930 . S
C1095 C1094 1.388 . S
C1095 C1096 1.390 . S
C1096 C1095 1.390 . S
C1096 C1097 1.394 1_545 S
C1096 C1102 1.465 . S
C1097 C1092 1.399 . S
C1097 C1096 1.394 1_565 S
C1097 C1098 1.516 . S
C1098 C1097 1.516 . S
C1098 C1099 1.502 . S
C1098 C1100 1.561 . S
C1098 C1101 1.526 . S
C1099 H1083 0.959 . S
C1099 H1084 0.959 . S
C1099 H1085 0.961 . S
C1099 C1098 1.502 . S
C1100 H1086 0.960 . S
C1100 H1087 0.961 . S
C1100 H1088 0.959 1_565 S
C1100 C1098 1.561 . S
C1101 C1098 1.526 . S
C1101 C1102 1.396 1_565 S
C1101 C1106 1.390 . S
C1102 C1096 1.465 . S
C1102 C1101 1.396 1_545 S
C1102 C1103 1.399 . S
C1103 H1089 0.929 . S
C1103 C1102 1.399 . S
C1103 C1104 1.385 . S
C1104 H1090 0.931 . S
C1104 C1103 1.385 . S
C1104 C1105 1.389 . S
C1105 C1104 1.389 . S
C1105 C1106 1.387 1_545 S
C1106 H1091 0.930 . S
C1106 C1101 1.390 . S
C1106 C1105 1.387 1_565 S
H1107 C1119 0.930 . S
H1108 C1121 0.930 . S
H1109 C1122 0.930 . S
H1110 C1126 0.959 . S
H1111 C1126 0.959 . S
H1112 C1126 0.961 . S
H1113 C1127 0.960 . S
H1114 C1127 0.961 . S
H1115 C1127 0.959 . S
H1116 C1130 0.929 . S
H1117 C1131 0.931 . S
H1118 C1133 0.930 . S
C1119 H1107 0.930 . S
C1119 C1120 1.399 . S
C1119 C1124 1.399 . S
C1120 C1119 1.399 . S
C1120 C1121 1.376 1_565 S
C1121 H1108 0.930 . S
C1121 C1120 1.376 1_545 S
C1121 C1122 1.388 . S
C1122 H1109 0.930 . S
C1122 C1121 1.388 . S
C1122 C1123 1.390 . S
C1123 C1122 1.390 . S
C1123 C1124 1.394 1_545 S
C1123 C1129 1.465 . S
C1124 C1119 1.399 . S
C1124 C1123 1.394 1_565 S
C1124 C1125 1.516 . S
C1125 C1124 1.516 . S
C1125 C1126 1.502 . S
C1125 C1127 1.561 . S
C1125 C1128 1.526 . S
C1126 H1110 0.959 . S
C1126 H1111 0.959 . S
C1126 H1112 0.961 . S
C1126 C1125 1.502 . S
C1127 H1113 0.960 . S
C1127 H1114 0.961 . S
C1127 H1115 0.959 . S
C1127 C1125 1.561 . S
C1128 C1125 1.526 . S
C1128 C1129 1.396 1_565 S
C1128 C1133 1.390 . S
C1129 C1123 1.465 . S
C1129 C1128 1.396 1_545 S
C1129 C1130 1.399 . S
C1130 H1116 0.929 . S
C1130 C1129 1.399 . S
C1130 C1131 1.385 . S
C1131 H1117 0.931 . S
C1131 C1130 1.385 . S
C1131 C1132 1.389 1_545 S
C1132 C1131 1.389 1_565 S
C1132 C1133 1.387 . S
C1133 H1118 0.930 . S
C1133 C1128 1.390 . S
C1133 C1132 1.387 . S
H1134 C1146 0.930 . S
H1135 C1148 0.931 . S
H1136 C1149 0.930 1_655 S
H1137 C1153 0.959 1_655 S
H1138 C1153 0.959 . S
H1139 C1153 0.961 . S
H1140 C1154 0.960 . S
H1141 C1154 0.961 . S
H1142 C1154 0.959 . S
H1143 C1157 0.928 . S
H1144 C1158 0.934 . S
H1145 C1160 0.930 . S
C1146 H1134 0.930 . S
C1146 C1147 1.399 . S
C1146 C1151 1.399 . S
C1147 C1146 1.399 . S
C1147 C1148 1.376 . S
C1148 H1135 0.931 . S
C1148 C1147 1.376 . S
C1148 C1149 1.388 . S
C1149 H1136 0.930 1_455 S
C1149 C1148 1.388 . S
C1149 C1150 1.390 . S
C1150 C1149 1.390 . S
C1150 C1151 1.394 . S
C1150 C1156 1.465 . S
C1151 C1146 1.399 . S
C1151 C1150 1.394 . S
C1151 C1152 1.516 . S
C1152 C1151 1.516 . S
C1152 C1153 1.502 . S
C1152 C1154 1.561 . S
C1152 C1155 1.526 . S
C1153 H1137 0.959 1_455 S
C1153 H1138 0.959 . S
C1153 H1139 0.961 . S
C1153 C1152 1.502 . S
C1154 H1140 0.960 . S
C1154 H1141 0.961 . S
C1154 H1142 0.959 . S
C1154 C1152 1.561 . S
C1155 C1152 1.526 . S
C1155 C1156 1.396 . S
C1155 C1160 1.390 . S
C1156 C1150 1.465 . S
C1156 C1155 1.396 . S
C1156 C1157 1.398 1_455 S
C1157 H1143 0.928 . S
C1157 C1156 1.398 1_655 S
C1157 C1158 1.380 . S
C1158 H1144 0.934 . S
C1158 C1157 1.380 . S
C1158 C1159 1.394 1_655 S
C1159 C1158 1.394 1_455 S
C1159 C1160 1.387 . S
C1160 H1145 0.930 . S
C1160 C1155 1.390 . S
C1160 C1159 1.387 . S
H1161 C1173 0.930 . S
H1162 C1175 0.930 . S
H1163 C1176 0.930 . S
H1164 C1180 0.959 . S
H1165 C1180 0.959 . S
H1166 C1180 0.961 . S
H1167 C1181 0.960 . S
H1168 C1181 0.961 . S
H1169 C1181 0.959 . S
H1170 C1184 0.929 . S
H1171 C1185 0.931 . S
H1172 C1187 0.930 . S
C1173 H1161 0.930 . S
C1173 C1174 1.399 . S
C1173 C1178 1.399 . S
C1174 C1173 1.399 . S
C1174 C1175 1.376 . S
C1175 H1162 0.930 . S
C1175 C1174 1.376 . S
C1175 C1176 1.388 . S
C1176 H1163 0.930 . S
C1176 C1175 1.388 . S
C1176 C1177 1.390 . S
C1177 C1176 1.390 . S
C1177 C1178 1.394 . S
C1177 C1183 1.465 . S
C1178 C1173 1.399 . S
C1178 C1177 1.394 . S
C1178 C1179 1.516 . S
C1179 C1178 1.516 . S
C1179 C1180 1.502 . S
C1179 C1181 1.561 . S
C1179 C1182 1.526 . S
C1180 H1164 0.959 . S
C1180 H1165 0.959 . S
C1180 H1166 0.961 . S
C1180 C1179 1.502 . S
C1181 H1167 0.960 . S
C1181 H1168 0.961 . S
C1181 H1169 0.959 . S
C1181 C1179 1.561 . S
C1182 C1179 1.526 . S
C1182 C1183 1.396 . S
C1182 C1187 1.390 . S
C1183 C1177 1.465 . S
C1183 C1182 1.396 . S
C1183 C1184 1.399 . S
C1184 H1170 0.929 . S
C1184 C1183 1.399 . S
C1184 C1185 1.385 . S
C1185 H1171 0.931 . S
C1185 C1184 1.385 . S
C1185 C1186 1.389 . S
C1186 C1185 1.389 . S
C1186 C1187 1.387 . S
C1187 H1172 0.930 . S
C1187 C1182 1.390 . S
C1187 C1186 1.387 . S
H1188 C1200 0.930 . S
H1189 C1202 0.930 . S
H1190 C1203 0.930 . S
H1191 C1207 0.959 1_455 S
H1192 C1207 0.959 . S
H1193 C1207 0.961 . S
H1194 C1208 0.960 . S
H1195 C1208 0.961 . S
H1196 C1208 0.959 . S
H1197 C1211 0.929 . S
H1198 C1212 0.931 . S
H1199 C1214 0.930 . S
C1200 H1188 0.930 . S
C1200 C1201 1.399 1_655 S
C1200 C1205 1.399 . S
C1201 C1200 1.399 1_455 S
C1201 C1202 1.376 . S
C1202 H1189 0.930 . S
C1202 C1201 1.376 . S
C1202 C1203 1.388 . S
C1203 H1190 0.930 . S
C1203 C1202 1.388 . S
C1203 C1204 1.390 . S
C1204 C1203 1.390 . S
C1204 C1205 1.394 1_455 S
C1204 C1210 1.465 . S
C1205 C1200 1.399 . S
C1205 C1204 1.394 1_655 S
C1205 C1206 1.516 . S
C1206 C1205 1.516 . S
C1206 C1207 1.502 . S
C1206 C1208 1.561 . S
C1206 C1209 1.526 . S
C1207 H1191 0.959 1_655 S
C1207 H1192 0.959 . S
C1207 H1193 0.961 . S
C1207 C1206 1.502 . S
C1208 H1194 0.960 . S
C1208 H1195 0.961 . S
C1208 H1196 0.959 . S
C1208 C1206 1.561 . S
C1209 C1206 1.526 . S
C1209 C1210 1.396 1_655 S
C1209 C1214 1.390 . S
C1210 C1204 1.465 . S
C1210 C1209 1.396 1_455 S
C1210 C1211 1.399 . S
C1211 H1197 0.929 . S
C1211 C1210 1.399 . S
C1211 C1212 1.385 . S
C1212 H1198 0.931 . S
C1212 C1211 1.385 . S
C1212 C1213 1.389 . S
C1213 C1212 1.389 . S
C1213 C1214 1.387 1_455 S
C1214 H1199 0.930 . S
C1214 C1209 1.390 . S
C1214 C1213 1.387 1_655 S
H1215 C1227 0.930 . S
H1216 C1229 0.930 . S
H1217 C1230 0.930 . S
H1218 C1234 0.959 . S
H1219 C1234 0.959 . S
H1220 C1234 0.961 . S
H1221 C1235 0.960 . S
H1222 C1235 0.961 . S
H1223 C1235 0.959 . S
H1224 C1238 0.929 . S
H1225 C1239 0.931 . S
H1226 C1241 0.930 . S
C1227 H1215 0.930 . S
C1227 C1228 1.399 . S
C1227 C1232 1.399 . S
C1228 C1227 1.399 . S
C1228 C1229 1.376 . S
C1229 H1216 0.930 . S
C1229 C1228 1.376 . S
C1229 C1230 1.388 . S
C1230 H1217 0.930 . S
C1230 C1229 1.388 . S
C1230 C1231 1.390 . S
C1231 C1230 1.390 . S
C1231 C1232 1.394 . S
C1231 C1237 1.465 . S
C1232 C1227 1.399 . S
C1232 C1231 1.394 . S
C1232 C1233 1.516 . S
C1233 C1232 1.516 . S
C1233 C1234 1.502 . S
C1233 C1235 1.561 . S
C1233 C1236 1.526 . S
C1234 H1218 0.959 . S
C1234 H1219 0.959 . S
C1234 H1220 0.961 . S
C1234 C1233 1.502 . S
C1235 H1221 0.960 . S
C1235 H1222 0.961 . S
C1235 H1223 0.959 . S
C1235 C1233 1.561 . S
C1236 C1233 1.526 . S
C1236 C1237 1.396 . S
C1236 C1241 1.390 . S
C1237 C1231 1.465 . S
C1237 C1236 1.396 . S
C1237 C1238 1.399 . S
C1238 H1224 0.929 . S
C1238 C1237 1.399 . S
C1238 C1239 1.385 . S
C1239 H1225 0.931 . S
C1239 C1238 1.385 . S
C1239 C1240 1.389 . S
C1240 C1239 1.389 . S
C1240 C1241 1.387 . S
C1241 H1226 0.930 . S
C1241 C1236 1.390 . S
C1241 C1240 1.387 . S
H1242 C1254 0.930 . S
H1243 C1256 0.930 . S
H1244 C1257 0.930 . S
H1245 C1261 0.959 . S
H1246 C1261 0.959 . S
H1247 C1261 0.961 . S
H1248 C1262 0.960 . S
H1249 C1262 0.961 . S
H1250 C1262 0.959 . S
H1251 C1265 0.929 . S
H1252 C1266 0.931 . S
H1253 C1268 0.930 . S
C1254 H1242 0.930 . S
C1254 C1255 1.399 1_545 S
C1254 C1259 1.399 . S
C1255 C1254 1.399 1_565 S
C1255 C1256 1.376 . S
C1256 H1243 0.930 . S
C1256 C1255 1.376 . S
C1256 C1257 1.388 . S
C1257 H1244 0.930 . S
C1257 C1256 1.388 . S
C1257 C1258 1.390 . S
C1258 C1257 1.390 . S
C1258 C1259 1.394 1_565 S
C1258 C1264 1.465 . S
C1259 C1254 1.399 . S
C1259 C1258 1.394 1_545 S
C1259 C1260 1.516 . S
C1260 C1259 1.516 . S
C1260 C1261 1.502 . S
C1260 C1262 1.561 . S
C1260 C1263 1.526 . S
C1261 H1245 0.959 . S
C1261 H1246 0.959 . S
C1261 H1247 0.961 . S
C1261 C1260 1.502 . S
C1262 H1248 0.960 . S
C1262 H1249 0.961 . S
C1262 H1250 0.959 . S
C1262 C1260 1.561 . S
C1263 C1260 1.526 . S
C1263 C1264 1.396 1_545 S
C1263 C1268 1.390 . S
C1264 C1258 1.465 . S
C1264 C1263 1.396 1_565 S
C1264 C1265 1.399 . S
C1265 H1251 0.929 . S
C1265 C1264 1.399 . S
C1265 C1266 1.385 . S
C1266 H1252 0.931 . S
C1266 C1265 1.385 . S
C1266 C1267 1.389 . S
C1267 C1266 1.389 . S
C1267 C1268 1.387 1_565 S
C1268 H1253 0.930 . S
C1268 C1263 1.390 . S
C1268 C1267 1.387 1_545 S
H1269 C1281 0.930 . S
H1270 C1283 0.930 . S
H1271 C1284 0.930 . S
H1272 C1288 0.959 1_545 S
H1273 C1288 0.959 . S
H1274 C1288 0.961 . S
H1275 C1289 0.960 . S
H1276 C1289 0.961 . S
H1277 C1289 0.959 . S
H1278 C1292 0.929 . S
H1279 C1293 0.931 . S
H1280 C1295 0.930 . S
C1281 H1269 0.930 . S
C1281 C1282 1.399 1_565 S
C1281 C1286 1.399 . S
C1282 C1281 1.399 1_545 S
C1282 C1283 1.376 . S
C1283 H1270 0.930 . S
C1283 C1282 1.376 . S
C1283 C1284 1.388 . S
C1284 H1271 0.930 . S
C1284 C1283 1.388 . S
C1284 C1285 1.390 . S
C1285 C1284 1.390 . S
C1285 C1286 1.394 1_545 S
C1285 C1291 1.465 . S
C1286 C1281 1.399 . S
C1286 C1285 1.394 1_565 S
C1286 C1287 1.516 . S
C1287 C1286 1.516 . S
C1287 C1288 1.502 . S
C1287 C1289 1.561 . S
C1287 C1290 1.526 . S
C1288 H1272 0.959 1_565 S
C1288 H1273 0.959 . S
C1288 H1274 0.961 . S
C1288 C1287 1.502 . S
C1289 H1275 0.960 . S
C1289 H1276 0.961 . S
C1289 H1277 0.959 . S
C1289 C1287 1.561 . S
C1290 C1287 1.526 . S
C1290 C1291 1.396 1_565 S
C1290 C1295 1.390 . S
C1291 C1285 1.465 . S
C1291 C1290 1.396 1_545 S
C1291 C1292 1.399 . S
C1292 H1278 0.929 . S
C1292 C1291 1.399 . S
C1292 C1293 1.385 . S
C1293 H1279 0.931 . S
C1293 C1292 1.385 . S
C1293 C1294 1.389 . S
C1294 C1293 1.389 . S
C1294 C1295 1.387 1_545 S
C1295 H1280 0.930 . S
C1295 C1290 1.390 . S
C1295 C1294 1.387 1_565 S
H1296 C1308 0.930 . S
H1297 C1310 0.930 . S
H1298 C1311 0.930 . S
H1299 C1315 0.959 . S
H1300 C1315 0.959 . S
H1301 C1315 0.961 . S
H1302 C1316 0.960 . S
H1303 C1316 0.961 . S
H1304 C1316 0.959 . S
H1305 C1319 0.929 . S
H1306 C1320 0.931 . S
H1307 C1322 0.930 . S
C1308 H1296 0.930 . S
C1308 C1309 1.399 1_455 S
C1308 C1313 1.399 . S
C1309 C1308 1.399 1_655 S
C1309 C1310 1.376 . S
C1310 H1297 0.930 . S
C1310 C1309 1.376 . S
C1310 C1311 1.388 . S
C1311 H1298 0.930 . S
C1311 C1310 1.388 . S
C1311 C1312 1.390 . S
C1312 C1311 1.390 . S
C1312 C1313 1.394 1_655 S
C1312 C1318 1.465 . S
C1313 C1308 1.399 . S
C1313 C1312 1.394 1_455 S
C1313 C1314 1.516 . S
C1314 C1313 1.516 . S
C1314 C1315 1.502 . S
C1314 C1316 1.561 . S
C1314 C1317 1.526 . S
C1315 H1299 0.959 . S
C1315 H1300 0.959 . S
C1315 H1301 0.961 . S
C1315 C1314 1.502 . S
C1316 H1302 0.960 . S
C1316 H1303 0.961 . S
C1316 H1304 0.959 . S
C1316 C1314 1.561 . S
C1317 C1314 1.526 . S
C1317 C1318 1.396 1_455 S
C1317 C1322 1.390 . S
C1318 C1312 1.465 . S
C1318 C1317 1.396 1_655 S
C1318 C1319 1.399 . S
C1319 H1305 0.929 . S
C1319 C1318 1.399 . S
C1319 C1320 1.385 . S
C1320 H1306 0.931 . S
C1320 C1319 1.385 . S
C1320 C1321 1.389 . S
C1321 C1320 1.389 . S
C1321 C1322 1.387 1_655 S
C1322 H1307 0.930 . S
C1322 C1317 1.390 . S
C1322 C1321 1.387 1_455 S
H1323 C1335 0.930 . S
H1324 C1337 0.930 . S
H1325 C1338 0.930 . S
H1326 C1342 0.959 . S
H1327 C1342 0.959 . S
H1328 C1342 0.961 . S
H1329 C1343 0.960 . S
H1330 C1343 0.961 . S
H1331 C1343 0.959 . S
H1332 C1346 0.929 . S
H1333 C1347 0.931 . S
H1334 C1349 0.930 . S
C1335 H1323 0.930 . S
C1335 C1336 1.399 . S
C1335 C1340 1.399 . S
C1336 C1335 1.399 . S
C1336 C1337 1.376 . S
C1337 H1324 0.930 . S
C1337 C1336 1.376 . S
C1337 C1338 1.388 . S
C1338 H1325 0.930 . S
C1338 C1337 1.388 . S
C1338 C1339 1.390 . S
C1339 C1338 1.390 . S
C1339 C1340 1.394 . S
C1339 C1345 1.465 . S
C1340 C1335 1.399 . S
C1340 C1339 1.394 . S
C1340 C1341 1.516 . S
C1341 C1340 1.516 . S
C1341 C1342 1.502 . S
C1341 C1343 1.561 . S
C1341 C1344 1.526 . S
C1342 H1326 0.959 . S
C1342 H1327 0.959 . S
C1342 H1328 0.961 . S
C1342 C1341 1.502 . S
C1343 H1329 0.960 . S
C1343 H1330 0.961 . S
C1343 H1331 0.959 . S
C1343 C1341 1.561 . S
C1344 C1341 1.526 . S
C1344 C1345 1.396 . S
C1344 C1349 1.390 . S
C1345 C1339 1.465 . S
C1345 C1344 1.396 . S
C1345 C1346 1.399 . S
C1346 H1332 0.929 . S
C1346 C1345 1.399 . S
C1346 C1347 1.385 . S
C1347 H1333 0.931 . S
C1347 C1346 1.385 . S
C1347 C1348 1.389 . S
C1348 C1347 1.389 . S
C1348 C1349 1.387 . S
C1349 H1334 0.930 . S
C1349 C1344 1.390 . S
C1349 C1348 1.387 . S
H1350 C1362 0.930 . S
H1351 C1364 0.930 . S
H1352 C1365 0.930 . S
H1353 C1369 0.959 . S
H1354 C1369 0.959 . S
H1355 C1369 0.961 . S
H1356 C1370 0.960 . S
H1357 C1370 0.961 . S
H1358 C1370 0.959 . S
H1359 C1373 0.929 . S
H1360 C1374 0.931 . S
H1361 C1376 0.930 . S
C1362 H1350 0.930 . S
C1362 C1363 1.399 . S
C1362 C1367 1.399 . S
C1363 C1362 1.399 . S
C1363 C1364 1.376 . S
C1364 H1351 0.930 . S
C1364 C1363 1.376 . S
C1364 C1365 1.388 . S
C1365 H1352 0.930 . S
C1365 C1364 1.388 . S
C1365 C1366 1.390 . S
C1366 C1365 1.390 . S
C1366 C1367 1.394 . S
C1366 C1372 1.465 . S
C1367 C1362 1.399 . S
C1367 C1366 1.394 . S
C1367 C1368 1.516 . S
C1368 C1367 1.516 . S
C1368 C1369 1.502 . S
C1368 C1370 1.561 . S
C1368 C1371 1.526 . S
C1369 H1353 0.959 . S
C1369 H1354 0.959 . S
C1369 H1355 0.961 . S
C1369 C1368 1.502 . S
C1370 H1356 0.960 . S
C1370 H1357 0.961 . S
C1370 H1358 0.959 . S
C1370 C1368 1.561 . S
C1371 C1368 1.526 . S
C1371 C1372 1.396 . S
C1371 C1376 1.390 . S
C1372 C1366 1.465 . S
C1372 C1371 1.396 . S
C1372 C1373 1.399 . S
C1373 H1359 0.929 . S
C1373 C1372 1.399 . S
C1373 C1374 1.385 . S
C1374 H1360 0.931 . S
C1374 C1373 1.385 . S
C1374 C1375 1.389 . S
C1375 C1374 1.389 . S
C1375 C1376 1.387 . S
C1376 H1361 0.930 . S
C1376 C1371 1.390 . S
C1376 C1375 1.387 . S
H1377 C1389 0.930 . S
H1378 C1391 0.930 . S
H1379 C1392 0.930 . S
H1380 C1396 0.959 . S
H1381 C1396 0.959 . S
H1382 C1396 0.961 . S
H1383 C1397 0.960 . S
H1384 C1397 0.961 . S
H1385 C1397 0.959 . S
H1386 C1400 0.929 . S
H1387 C1401 0.931 . S
H1388 C1403 0.930 . S
C1389 H1377 0.930 . S
C1389 C1390 1.399 . S
C1389 C1394 1.399 . S
C1390 C1389 1.399 . S
C1390 C1391 1.376 . S
C1391 H1378 0.930 . S
C1391 C1390 1.376 . S
C1391 C1392 1.388 . S
C1392 H1379 0.930 . S
C1392 C1391 1.388 . S
C1392 C1393 1.390 . S
C1393 C1392 1.390 . S
C1393 C1394 1.394 . S
C1393 C1399 1.465 . S
C1394 C1389 1.399 . S
C1394 C1393 1.394 . S
C1394 C1395 1.516 . S
C1395 C1394 1.516 . S
C1395 C1396 1.502 . S
C1395 C1397 1.561 . S
C1395 C1398 1.526 . S
C1396 H1380 0.959 . S
C1396 H1381 0.959 . S
C1396 H1382 0.961 . S
C1396 C1395 1.502 . S
C1397 H1383 0.960 . S
C1397 H1384 0.961 . S
C1397 H1385 0.959 . S
C1397 C1395 1.561 . S
C1398 C1395 1.526 . S
C1398 C1399 1.396 . S
C1398 C1403 1.390 . S
C1399 C1393 1.465 . S
C1399 C1398 1.396 . S
C1399 C1400 1.399 . S
C1400 H1386 0.929 . S
C1400 C1399 1.399 . S
C1400 C1401 1.385 . S
C1401 H1387 0.931 . S
C1401 C1400 1.385 . S
C1401 C1402 1.389 . S
C1402 C1401 1.389 . S
C1402 C1403 1.387 . S
C1403 H1388 0.930 . S
C1403 C1398 1.390 . S
C1403 C1402 1.387 . S
H1404 C1416 0.930 . S
H1405 C1418 0.930 . S
H1406 C1419 0.930 . S
H1407 C1423 0.959 . S
H1408 C1423 0.959 . S
H1409 C1423 0.961 . S
H1410 C1424 0.960 . S
H1411 C1424 0.961 . S
H1412 C1424 0.959 . S
H1413 C1427 0.929 . S
H1414 C1428 0.931 . S
H1415 C1430 0.930 . S
C1416 H1404 0.930 . S
C1416 C1417 1.399 . S
C1416 C1421 1.399 . S
C1417 C1416 1.399 . S
C1417 C1418 1.376 . S
C1418 H1405 0.930 . S
C1418 C1417 1.376 . S
C1418 C1419 1.388 . S
C1419 H1406 0.930 . S
C1419 C1418 1.388 . S
C1419 C1420 1.390 . S
C1420 C1419 1.390 . S
C1420 C1421 1.394 . S
C1420 C1426 1.465 . S
C1421 C1416 1.399 . S
C1421 C1420 1.394 . S
C1421 C1422 1.516 . S
C1422 C1421 1.516 . S
C1422 C1423 1.502 . S
C1422 C1424 1.561 . S
C1422 C1425 1.526 . S
C1423 H1407 0.959 . S
C1423 H1408 0.959 . S
C1423 H1409 0.961 . S
C1423 C1422 1.502 . S
C1424 H1410 0.960 . S
C1424 H1411 0.961 . S
C1424 H1412 0.959 . S
C1424 C1422 1.561 . S
C1425 C1422 1.526 . S
C1425 C1426 1.396 . S
C1425 C1430 1.390 . S
C1426 C1420 1.465 . S
C1426 C1425 1.396 . S
C1426 C1427 1.399 . S
C1427 H1413 0.929 . S
C1427 C1426 1.399 . S
C1427 C1428 1.385 . S
C1428 H1414 0.931 . S
C1428 C1427 1.385 . S
C1428 C1429 1.389 . S
C1429 C1428 1.389 . S
C1429 C1430 1.387 . S
C1430 H1415 0.930 . S
C1430 C1425 1.390 . S
C1430 C1429 1.387 . S
H1431 C1443 0.930 . S
H1432 C1445 0.930 . S
H1433 C1446 0.930 . S
H1434 C1450 0.959 . S
H1435 C1450 0.959 . S
H1436 C1450 0.961 . S
H1437 C1451 0.960 . S
H1438 C1451 0.961 . S
H1439 C1451 0.959 . S
H1440 C1454 0.929 . S
H1441 C1455 0.931 . S
H1442 C1457 0.930 . S
C1443 H1431 0.930 . S
C1443 C1444 1.399 . S
C1443 C1448 1.399 . S
C1444 C1443 1.399 . S
C1444 C1445 1.376 . S
C1445 H1432 0.930 . S
C1445 C1444 1.376 . S
C1445 C1446 1.388 . S
C1446 H1433 0.930 . S
C1446 C1445 1.388 . S
C1446 C1447 1.390 . S
C1447 C1446 1.390 . S
C1447 C1448 1.394 . S
C1447 C1453 1.465 . S
C1448 C1443 1.399 . S
C1448 C1447 1.394 . S
C1448 C1449 1.516 . S
C1449 C1448 1.516 . S
C1449 C1450 1.502 . S
C1449 C1451 1.561 . S
C1449 C1452 1.526 . S
C1450 H1434 0.959 . S
C1450 H1435 0.959 . S
C1450 H1436 0.961 . S
C1450 C1449 1.502 . S
C1451 H1437 0.960 . S
C1451 H1438 0.961 . S
C1451 H1439 0.959 . S
C1451 C1449 1.561 . S
C1452 C1449 1.526 . S
C1452 C1453 1.396 . S
C1452 C1457 1.390 . S
C1453 C1447 1.465 . S
C1453 C1452 1.396 . S
C1453 C1454 1.399 . S
C1454 H1440 0.929 . S
C1454 C1453 1.399 . S
C1454 C1455 1.385 . S
C1455 H1441 0.931 . S
C1455 C1454 1.385 . S
C1455 C1456 1.389 . S
C1456 C1455 1.389 . S
C1456 C1457 1.387 . S
C1457 H1442 0.930 . S
C1457 C1452 1.390 . S
C1457 C1456 1.387 . S
H1458 C1470 0.930 . S
H1459 C1472 0.930 . S
H1460 C1473 0.930 . S
H1461 C1477 0.959 . S
H1462 C1477 0.959 . S
H1463 C1477 0.961 . S
H1464 C1478 0.960 . S
H1465 C1478 0.961 . S
H1466 C1478 0.959 . S
H1467 C1481 0.929 . S
H1468 C1482 0.931 . S
H1469 C1484 0.930 . S
C1470 H1458 0.930 . S
C1470 C1471 1.399 . S
C1470 C1475 1.399 . S
C1471 C1470 1.399 . S
C1471 C1472 1.376 . S
C1472 H1459 0.930 . S
C1472 C1471 1.376 . S
C1472 C1473 1.388 . S
C1473 H1460 0.930 . S
C1473 C1472 1.388 . S
C1473 C1474 1.390 . S
C1474 C1473 1.390 . S
C1474 C1475 1.394 . S
C1474 C1480 1.465 . S
C1475 C1470 1.399 . S
C1475 C1474 1.394 . S
C1475 C1476 1.516 . S
C1476 C1475 1.516 . S
C1476 C1477 1.502 . S
C1476 C1478 1.561 . S
C1476 C1479 1.526 . S
C1477 H1461 0.959 . S
C1477 H1462 0.959 . S
C1477 H1463 0.961 . S
C1477 C1476 1.502 . S
C1478 H1464 0.960 . S
C1478 H1465 0.961 . S
C1478 H1466 0.959 . S
C1478 C1476 1.561 . S
C1479 C1476 1.526 . S
C1479 C1480 1.396 . S
C1479 C1484 1.390 . S
C1480 C1474 1.465 . S
C1480 C1479 1.396 . S
C1480 C1481 1.399 . S
C1481 H1467 0.929 . S
C1481 C1480 1.399 . S
C1481 C1482 1.385 . S
C1482 H1468 0.931 . S
C1482 C1481 1.385 . S
C1482 C1483 1.389 . S
C1483 C1482 1.389 . S
C1483 C1484 1.387 . S
C1484 H1469 0.930 . S
C1484 C1479 1.390 . S
C1484 C1483 1.387 . S
H1485 C1497 0.930 . S
H1486 C1499 0.930 . S
H1487 C1500 0.930 . S
H1488 C1504 0.959 . S
H1489 C1504 0.959 . S
H1490 C1504 0.961 . S
H1491 C1505 0.960 . S
H1492 C1505 0.961 . S
H1493 C1505 0.959 . S
H1494 C1508 0.929 . S
H1495 C1509 0.931 . S
H1496 C1511 0.930 . S
C1497 H1485 0.930 . S
C1497 C1498 1.399 . S
C1497 C1502 1.399 . S
C1498 C1497 1.399 . S
C1498 C1499 1.376 . S
C1499 H1486 0.930 . S
C1499 C1498 1.376 . S
C1499 C1500 1.388 . S
C1500 H1487 0.930 . S
C1500 C1499 1.388 . S
C1500 C1501 1.390 . S
C1501 C1500 1.390 . S
C1501 C1502 1.394 . S
C1501 C1507 1.465 . S
C1502 C1497 1.399 . S
C1502 C1501 1.394 . S
C1502 C1503 1.516 . S
C1503 C1502 1.516 . S
C1503 C1504 1.502 . S
C1503 C1505 1.561 . S
C1503 C1506 1.526 . S
C1504 H1488 0.959 . S
C1504 H1489 0.959 . S
C1504 H1490 0.961 . S
C1504 C1503 1.502 . S
C1505 H1491 0.960 . S
C1505 H1492 0.961 . S
C1505 H1493 0.959 . S
C1505 C1503 1.561 . S
C1506 C1503 1.526 . S
C1506 C1507 1.396 . S
C1506 C1511 1.390 . S
C1507 C1501 1.465 . S
C1507 C1506 1.396 . S
C1507 C1508 1.399 . S
C1508 H1494 0.929 . S
C1508 C1507 1.399 . S
C1508 C1509 1.385 . S
C1509 H1495 0.931 . S
C1509 C1508 1.385 . S
C1509 C1510 1.389 . S
C1510 C1509 1.389 . S
C1510 C1511 1.387 . S
C1511 H1496 0.930 . S
C1511 C1506 1.390 . S
C1511 C1510 1.387 . S
H1512 C1524 0.930 . S
H1513 C1526 0.930 . S
H1514 C1527 0.930 . S
H1515 C1531 0.959 . S
H1516 C1531 0.959 . S
H1517 C1531 0.961 . S
H1518 C1532 0.960 . S
H1519 C1532 0.961 . S
H1520 C1532 0.959 . S
H1521 C1535 0.929 . S
H1522 C1536 0.931 . S
H1523 C1538 0.930 . S
C1524 H1512 0.930 . S
C1524 C1525 1.399 . S
C1524 C1529 1.399 . S
C1525 C1524 1.399 . S
C1525 C1526 1.376 . S
C1526 H1513 0.930 . S
C1526 C1525 1.376 . S
C1526 C1527 1.388 . S
C1527 H1514 0.930 . S
C1527 C1526 1.388 . S
C1527 C1528 1.390 . S
C1528 C1527 1.390 . S
C1528 C1529 1.394 . S
C1528 C1534 1.465 . S
C1529 C1524 1.399 . S
C1529 C1528 1.394 . S
C1529 C1530 1.516 . S
C1530 C1529 1.516 . S
C1530 C1531 1.502 . S
C1530 C1532 1.561 . S
C1530 C1533 1.526 . S
C1531 H1515 0.959 . S
C1531 H1516 0.959 . S
C1531 H1517 0.961 . S
C1531 C1530 1.502 . S
C1532 H1518 0.960 . S
C1532 H1519 0.961 . S
C1532 H1520 0.959 . S
C1532 C1530 1.561 . S
C1533 C1530 1.526 . S
C1533 C1534 1.396 . S
C1533 C1538 1.390 . S
C1534 C1528 1.465 . S
C1534 C1533 1.396 . S
C1534 C1535 1.399 . S
C1535 H1521 0.929 . S
C1535 C1534 1.399 . S
C1535 C1536 1.385 . S
C1536 H1522 0.931 . S
C1536 C1535 1.385 . S
C1536 C1537 1.389 . S
C1537 C1536 1.389 . S
C1537 C1538 1.387 . S
C1538 H1523 0.930 . S
C1538 C1533 1.390 . S
C1538 C1537 1.387 . S
H1539 C1551 0.930 . S
H1540 C1553 0.930 . S
H1541 C1554 0.930 . S
H1542 C1558 0.959 . S
H1543 C1558 0.959 . S
H1544 C1558 0.961 . S
H1545 C1559 0.960 . S
H1546 C1559 0.961 . S
H1547 C1559 0.959 . S
H1548 C1562 0.929 . S
H1549 C1563 0.931 . S
H1550 C1565 0.930 . S
C1551 H1539 0.930 . S
C1551 C1552 1.399 . S
C1551 C1556 1.399 . S
C1552 C1551 1.399 . S
C1552 C1553 1.376 . S
C1553 H1540 0.930 . S
C1553 C1552 1.376 . S
C1553 C1554 1.388 . S
C1554 H1541 0.930 . S
C1554 C1553 1.388 . S
C1554 C1555 1.390 . S
C1555 C1554 1.390 . S
C1555 C1556 1.394 . S
C1555 C1561 1.465 . S
C1556 C1551 1.399 . S
C1556 C1555 1.394 . S
C1556 C1557 1.516 . S
C1557 C1556 1.516 . S
C1557 C1558 1.502 . S
C1557 C1559 1.561 . S
C1557 C1560 1.526 . S
C1558 H1542 0.959 . S
C1558 H1543 0.959 . S
C1558 H1544 0.961 . S
C1558 C1557 1.502 . S
C1559 H1545 0.960 . S
C1559 H1546 0.961 . S
C1559 H1547 0.959 . S
C1559 C1557 1.561 . S
C1560 C1557 1.526 . S
C1560 C1561 1.396 . S
C1560 C1565 1.390 . S
C1561 C1555 1.465 . S
C1561 C1560 1.396 . S
C1561 C1562 1.399 . S
C1562 H1548 0.929 . S
C1562 C1561 1.399 . S
C1562 C1563 1.385 . S
C1563 H1549 0.931 . S
C1563 C1562 1.385 . S
C1563 C1564 1.389 . S
C1564 C1563 1.389 . S
C1564 C1565 1.387 . S
C1565 H1550 0.930 . S
C1565 C1560 1.390 . S
C1565 C1564 1.387 . S
H1566 C1578 0.930 . S
H1567 C1580 0.930 . S
H1568 C1581 0.930 . S
H1569 C1585 0.959 . S
H1570 C1585 0.959 . S
H1571 C1585 0.961 . S
H1572 C1586 0.960 . S
H1573 C1586 0.961 . S
H1574 C1586 0.959 . S
H1575 C1589 0.929 . S
H1576 C1590 0.931 . S
H1577 C1592 0.930 . S
C1578 H1566 0.930 . S
C1578 C1579 1.399 . S
C1578 C1583 1.399 . S
C1579 C1578 1.399 . S
C1579 C1580 1.376 . S
C1580 H1567 0.930 . S
C1580 C1579 1.376 . S
C1580 C1581 1.388 . S
C1581 H1568 0.930 . S
C1581 C1580 1.388 . S
C1581 C1582 1.390 . S
C1582 C1581 1.390 . S
C1582 C1583 1.394 . S
C1582 C1588 1.465 . S
C1583 C1578 1.399 . S
C1583 C1582 1.394 . S
C1583 C1584 1.516 . S
C1584 C1583 1.516 . S
C1584 C1585 1.502 . S
C1584 C1586 1.561 . S
C1584 C1587 1.526 . S
C1585 H1569 0.959 . S
C1585 H1570 0.959 . S
C1585 H1571 0.961 . S
C1585 C1584 1.502 . S
C1586 H1572 0.960 . S
C1586 H1573 0.961 . S
C1586 H1574 0.959 . S
C1586 C1584 1.561 . S
C1587 C1584 1.526 . S
C1587 C1588 1.396 . S
C1587 C1592 1.390 . S
C1588 C1582 1.465 . S
C1588 C1587 1.396 . S
C1588 C1589 1.399 . S
C1589 H1575 0.929 . S
C1589 C1588 1.399 . S
C1589 C1590 1.385 . S
C1590 H1576 0.931 . S
C1590 C1589 1.385 . S
C1590 C1591 1.389 . S
C1591 C1590 1.389 . S
C1591 C1592 1.387 . S
C1592 H1577 0.930 . S
C1592 C1587 1.390 . S
C1592 C1591 1.387 . S
H1593 C1605 0.930 . S
H1594 C1607 0.930 . S
H1595 C1608 0.930 . S
H1596 C1612 0.959 . S
H1597 C1612 0.959 . S
H1598 C1612 0.961 . S
H1599 C1613 0.960 . S
H1600 C1613 0.961 . S
H1601 C1613 0.959 . S
H1602 C1616 0.929 . S
H1603 C1617 0.931 . S
H1604 C1619 0.930 . S
C1605 H1593 0.930 . S
C1605 C1606 1.399 . S
C1605 C1610 1.399 . S
C1606 C1605 1.399 . S
C1606 C1607 1.376 . S
C1607 H1594 0.930 . S
C1607 C1606 1.376 . S
C1607 C1608 1.388 . S
C1608 H1595 0.930 . S
C1608 C1607 1.388 . S
C1608 C1609 1.390 . S
C1609 C1608 1.390 . S
C1609 C1610 1.394 . S
C1609 C1615 1.465 . S
C1610 C1605 1.399 . S
C1610 C1609 1.394 . S
C1610 C1611 1.516 . S
C1611 C1610 1.516 . S
C1611 C1612 1.502 . S
C1611 C1613 1.561 . S
C1611 C1614 1.526 . S
C1612 H1596 0.959 . S
C1612 H1597 0.959 . S
C1612 H1598 0.961 . S
C1612 C1611 1.502 . S
C1613 H1599 0.960 . S
C1613 H1600 0.961 . S
C1613 H1601 0.959 . S
C1613 C1611 1.561 . S
C1614 C1611 1.526 . S
C1614 C1615 1.396 . S
C1614 C1619 1.390 . S
C1615 C1609 1.465 . S
C1615 C1614 1.396 . S
C1615 C1616 1.399 . S
C1616 H1602 0.929 . S
C1616 C1615 1.399 . S
C1616 C1617 1.385 . S
C1617 H1603 0.931 . S
C1617 C1616 1.385 . S
C1617 C1618 1.389 . S
C1618 C1617 1.389 . S
C1618 C1619 1.387 . S
C1619 H1604 0.930 . S
C1619 C1614 1.390 . S
C1619 C1618 1.387 . S
H1620 C1632 0.930 . S
H1621 C1634 0.930 . S
H1622 C1635 0.930 . S
H1623 C1639 0.959 . S
H1624 C1639 0.959 . S
H1625 C1639 0.961 . S
H1626 C1640 0.960 . S
H1627 C1640 0.961 . S
H1628 C1640 0.959 . S
H1629 C1643 0.929 . S
H1630 C1644 0.931 . S
H1631 C1646 0.930 . S
C1632 H1620 0.930 . S
C1632 C1633 1.399 . S
C1632 C1637 1.399 . S
C1633 C1632 1.399 . S
C1633 C1634 1.376 . S
C1634 H1621 0.930 . S
C1634 C1633 1.376 . S
C1634 C1635 1.388 . S
C1635 H1622 0.930 . S
C1635 C1634 1.388 . S
C1635 C1636 1.390 . S
C1636 C1635 1.390 . S
C1636 C1637 1.394 . S
C1636 C1642 1.465 . S
C1637 C1632 1.399 . S
C1637 C1636 1.394 . S
C1637 C1638 1.516 . S
C1638 C1637 1.516 . S
C1638 C1639 1.502 . S
C1638 C1640 1.561 . S
C1638 C1641 1.526 . S
C1639 H1623 0.959 . S
C1639 H1624 0.959 . S
C1639 H1625 0.961 . S
C1639 C1638 1.502 . S
C1640 H1626 0.960 . S
C1640 H1627 0.961 . S
C1640 H1628 0.959 . S
C1640 C1638 1.561 . S
C1641 C1638 1.526 . S
C1641 C1642 1.396 . S
C1641 C1646 1.390 . S
C1642 C1636 1.465 . S
C1642 C1641 1.396 . S
C1642 C1643 1.399 . S
C1643 H1629 0.929 . S
C1643 C1642 1.399 . S
C1643 C1644 1.385 . S
C1644 H1630 0.931 . S
C1644 C1643 1.385 . S
C1644 C1645 1.389 . S
C1645 C1644 1.389 . S
C1645 C1646 1.387 . S
C1646 H1631 0.930 . S
C1646 C1641 1.390 . S
C1646 C1645 1.387 . S
H1647 C1659 0.930 . S
H1648 C1661 0.930 . S
H1649 C1662 0.930 . S
H1650 C1666 0.959 . S
H1651 C1666 0.959 . S
H1652 C1666 0.961 . S
H1653 C1667 0.960 . S
H1654 C1667 0.961 . S
H1655 C1667 0.959 . S
H1656 C1670 0.929 . S
H1657 C1671 0.931 . S
H1658 C1673 0.930 . S
C1659 H1647 0.930 . S
C1659 C1660 1.399 . S
C1659 C1664 1.399 . S
C1660 C1659 1.399 . S
C1660 C1661 1.376 . S
C1661 H1648 0.930 . S
C1661 C1660 1.376 . S
C1661 C1662 1.388 . S
C1662 H1649 0.930 . S
C1662 C1661 1.388 . S
C1662 C1663 1.390 . S
C1663 C1662 1.390 . S
C1663 C1664 1.394 . S
C1663 C1669 1.465 . S
C1664 C1659 1.399 . S
C1664 C1663 1.394 . S
C1664 C1665 1.516 . S
C1665 C1664 1.516 . S
C1665 C1666 1.502 . S
C1665 C1667 1.561 . S
C1665 C1668 1.526 . S
C1666 H1650 0.959 . S
C1666 H1651 0.959 . S
C1666 H1652 0.961 . S
C1666 C1665 1.502 . S
C1667 H1653 0.960 . S
C1667 H1654 0.961 . S
C1667 H1655 0.959 . S
C1667 C1665 1.561 . S
C1668 C1665 1.526 . S
C1668 C1669 1.396 . S
C1668 C1673 1.390 . S
C1669 C1663 1.465 . S
C1669 C1668 1.396 . S
C1669 C1670 1.399 . S
C1670 H1656 0.929 . S
C1670 C1669 1.399 . S
C1670 C1671 1.385 . S
C1671 H1657 0.931 . S
C1671 C1670 1.385 . S
C1671 C1672 1.389 . S
C1672 C1671 1.389 . S
C1672 C1673 1.387 . S
C1673 H1658 0.930 . S
C1673 C1668 1.390 . S
C1673 C1672 1.387 . S
H1674 C1686 0.930 . S
H1675 C1688 0.930 . S
H1676 C1689 0.930 . S
H1677 C1693 0.959 . S
H1678 C1693 0.959 . S
H1679 C1693 0.961 . S
H1680 C1694 0.960 . S
H1681 C1694 0.961 . S
H1682 C1694 0.959 . S
H1683 C1697 0.929 . S
H1684 C1698 0.931 . S
H1685 C1700 0.930 . S
C1686 H1674 0.930 . S
C1686 C1687 1.399 . S
C1686 C1691 1.399 . S
C1687 C1686 1.399 . S
C1687 C1688 1.376 . S
C1688 H1675 0.930 . S
C1688 C1687 1.376 . S
C1688 C1689 1.388 . S
C1689 H1676 0.930 . S
C1689 C1688 1.388 . S
C1689 C1690 1.390 . S
C1690 C1689 1.390 . S
C1690 C1691 1.394 . S
C1690 C1696 1.465 . S
C1691 C1686 1.399 . S
C1691 C1690 1.394 . S
C1691 C1692 1.516 . S
C1692 C1691 1.516 . S
C1692 C1693 1.502 . S
C1692 C1694 1.561 . S
C1692 C1695 1.526 . S
C1693 H1677 0.959 . S
C1693 H1678 0.959 . S
C1693 H1679 0.961 . S
C1693 C1692 1.502 . S
C1694 H1680 0.960 . S
C1694 H1681 0.961 . S
C1694 H1682 0.959 . S
C1694 C1692 1.561 . S
C1695 C1692 1.526 . S
C1695 C1696 1.396 . S
C1695 C1700 1.390 . S
C1696 C1690 1.465 . S
C1696 C1695 1.396 . S
C1696 C1697 1.399 . S
C1697 H1683 0.929 . S
C1697 C1696 1.399 . S
C1697 C1698 1.385 . S
C1698 H1684 0.931 . S
C1698 C1697 1.385 . S
C1698 C1699 1.389 . S
C1699 C1698 1.389 . S
C1699 C1700 1.387 . S
C1700 H1685 0.930 . S
C1700 C1695 1.390 . S
C1700 C1699 1.387 . S
H1701 C1713 0.930 . S
H1702 C1715 0.930 . S
H1703 C1716 0.930 . S
H1704 C1720 0.959 . S
H1705 C1720 0.959 . S
H1706 C1720 0.961 . S
H1707 C1721 0.960 . S
H1708 C1721 0.961 . S
H1709 C1721 0.959 . S
H1710 C1724 0.929 . S
H1711 C1725 0.931 . S
H1712 C1727 0.930 . S
C1713 H1701 0.930 . S
C1713 C1714 1.399 . S
C1713 C1718 1.399 . S
C1714 C1713 1.399 . S
C1714 C1715 1.376 . S
C1715 H1702 0.930 . S
C1715 C1714 1.376 . S
C1715 C1716 1.388 . S
C1716 H1703 0.930 . S
C1716 C1715 1.388 . S
C1716 C1717 1.390 . S
C1717 C1716 1.390 . S
C1717 C1718 1.394 . S
C1717 C1723 1.465 . S
C1718 C1713 1.399 . S
C1718 C1717 1.394 . S
C1718 C1719 1.516 . S
C1719 C1718 1.516 . S
C1719 C1720 1.502 . S
C1719 C1721 1.561 . S
C1719 C1722 1.526 . S
C1720 H1704 0.959 . S
C1720 H1705 0.959 . S
C1720 H1706 0.961 . S
C1720 C1719 1.502 . S
C1721 H1707 0.960 . S
C1721 H1708 0.961 . S
C1721 H1709 0.959 . S
C1721 C1719 1.561 . S
C1722 C1719 1.526 . S
C1722 C1723 1.396 . S
C1722 C1727 1.390 . S
C1723 C1717 1.465 . S
C1723 C1722 1.396 . S
C1723 C1724 1.399 . S
C1724 H1710 0.929 . S
C1724 C1723 1.399 . S
C1724 C1725 1.385 . S
C1725 H1711 0.931 . S
C1725 C1724 1.385 . S
C1725 C1726 1.389 . S
C1726 C1725 1.389 . S
C1726 C1727 1.387 . S
C1727 H1712 0.930 . S
C1727 C1722 1.390 . S
C1727 C1726 1.387 . S
H1728 C1740 0.930 . S
H1729 C1742 0.930 . S
H1730 C1743 0.930 . S
H1731 C1747 0.959 . S
H1732 C1747 0.959 . S
H1733 C1747 0.961 . S
H1734 C1748 0.960 . S
H1735 C1748 0.961 . S
H1736 C1748 0.959 . S
H1737 C1751 0.929 . S
H1738 C1752 0.931 . S
H1739 C1754 0.930 . S
C1740 H1728 0.930 . S
C1740 C1741 1.399 . S
C1740 C1745 1.399 . S
C1741 C1740 1.399 . S
C1741 C1742 1.376 . S
C1742 H1729 0.930 . S
C1742 C1741 1.376 . S
C1742 C1743 1.388 . S
C1743 H1730 0.930 . S
C1743 C1742 1.388 . S
C1743 C1744 1.390 . S
C1744 C1743 1.390 . S
C1744 C1745 1.394 . S
C1744 C1750 1.465 . S
C1745 C1740 1.399 . S
C1745 C1744 1.394 . S
C1745 C1746 1.516 . S
C1746 C1745 1.516 . S
C1746 C1747 1.502 . S
C1746 C1748 1.561 . S
C1746 C1749 1.526 . S
C1747 H1731 0.959 . S
C1747 H1732 0.959 . S
C1747 H1733 0.961 . S
C1747 C1746 1.502 . S
C1748 H1734 0.960 . S
C1748 H1735 0.961 . S
C1748 H1736 0.959 . S
C1748 C1746 1.561 . S
C1749 C1746 1.526 . S
C1749 C1750 1.396 . S
C1749 C1754 1.390 . S
C1750 C1744 1.465 . S
C1750 C1749 1.396 . S
C1750 C1751 1.399 . S
C1751 H1737 0.929 . S
C1751 C1750 1.399 . S
C1751 C1752 1.385 . S
C1752 H1738 0.931 . S
C1752 C1751 1.385 . S
C1752 C1753 1.389 . S
C1753 C1752 1.389 . S
C1753 C1754 1.387 . S
C1754 H1739 0.930 . S
C1754 C1749 1.390 . S
C1754 C1753 1.387 . S
H1755 C1767 0.930 . S
H1756 C1769 0.930 . S
H1757 C1770 0.930 . S
H1758 C1774 0.959 . S
H1759 C1774 0.959 . S
H1760 C1774 0.961 . S
H1761 C1775 0.960 . S
H1762 C1775 0.961 . S
H1763 C1775 0.959 . S
H1764 C1778 0.929 . S
H1765 C1779 0.931 . S
H1766 C1781 0.930 . S
C1767 H1755 0.930 . S
C1767 C1768 1.399 . S
C1767 C1772 1.399 . S
C1768 C1767 1.399 . S
C1768 C1769 1.376 . S
C1769 H1756 0.930 . S
C1769 C1768 1.376 . S
C1769 C1770 1.388 . S
C1770 H1757 0.930 . S
C1770 C1769 1.388 . S
C1770 C1771 1.390 . S
C1771 C1770 1.390 . S
C1771 C1772 1.394 . S
C1771 C1777 1.465 . S
C1772 C1767 1.399 . S
C1772 C1771 1.394 . S
C1772 C1773 1.516 . S
C1773 C1772 1.516 . S
C1773 C1774 1.502 . S
C1773 C1775 1.561 . S
C1773 C1776 1.526 . S
C1774 H1758 0.959 . S
C1774 H1759 0.959 . S
C1774 H1760 0.961 . S
C1774 C1773 1.502 . S
C1775 H1761 0.960 . S
C1775 H1762 0.961 . S
C1775 H1763 0.959 . S
C1775 C1773 1.561 . S
C1776 C1773 1.526 . S
C1776 C1777 1.396 . S
C1776 C1781 1.390 . S
C1777 C1771 1.465 . S
C1777 C1776 1.396 . S
C1777 C1778 1.399 . S
C1778 H1764 0.929 . S
C1778 C1777 1.399 . S
C1778 C1779 1.385 . S
C1779 H1765 0.931 . S
C1779 C1778 1.385 . S
C1779 C1780 1.389 . S
C1780 C1779 1.389 . S
C1780 C1781 1.387 . S
C1781 H1766 0.930 . S
C1781 C1776 1.390 . S
C1781 C1780 1.387 . S
H1782 C1794 0.930 . S
H1783 C1796 0.930 . S
H1784 C1797 0.930 . S
H1785 C1801 0.959 . S
H1786 C1801 0.959 . S
H1787 C1801 0.961 . S
H1788 C1802 0.960 . S
H1789 C1802 0.961 . S
H1790 C1802 0.959 . S
H1791 C1805 0.929 . S
H1792 C1806 0.931 . S
H1793 C1808 0.930 . S
C1794 H1782 0.930 . S
C1794 C1795 1.399 . S
C1794 C1799 1.399 . S
C1795 C1794 1.399 . S
C1795 C1796 1.376 . S
C1796 H1783 0.930 . S
C1796 C1795 1.376 . S
C1796 C1797 1.388 . S
C1797 H1784 0.930 . S
C1797 C1796 1.388 . S
C1797 C1798 1.390 . S
C1798 C1797 1.390 . S
C1798 C1799 1.394 . S
C1798 C1804 1.465 . S
C1799 C1794 1.399 . S
C1799 C1798 1.394 . S
C1799 C1800 1.516 . S
C1800 C1799 1.516 . S
C1800 C1801 1.502 . S
C1800 C1802 1.561 . S
C1800 C1803 1.526 . S
C1801 H1785 0.959 . S
C1801 H1786 0.959 . S
C1801 H1787 0.961 . S
C1801 C1800 1.502 . S
C1802 H1788 0.960 . S
C1802 H1789 0.961 . S
C1802 H1790 0.959 . S
C1802 C1800 1.561 . S
C1803 C1800 1.526 . S
C1803 C1804 1.396 . S
C1803 C1808 1.390 . S
C1804 C1798 1.465 . S
C1804 C1803 1.396 . S
C1804 C1805 1.399 . S
C1805 H1791 0.929 . S
C1805 C1804 1.399 . S
C1805 C1806 1.385 . S
C1806 H1792 0.931 . S
C1806 C1805 1.385 . S
C1806 C1807 1.389 . S
C1807 C1806 1.389 . S
C1807 C1808 1.387 . S
C1808 H1793 0.930 . S
C1808 C1803 1.390 . S
C1808 C1807 1.387 . S
H1809 C1821 0.930 . S
H1810 C1823 0.930 . S
H1811 C1824 0.930 . S
H1812 C1828 0.959 . S
H1813 C1828 0.959 . S
H1814 C1828 0.961 . S
H1815 C1829 0.960 . S
H1816 C1829 0.961 . S
H1817 C1829 0.959 . S
H1818 C1832 0.929 . S
H1819 C1833 0.931 . S
H1820 C1835 0.930 . S
C1821 H1809 0.930 . S
C1821 C1822 1.399 . S
C1821 C1826 1.399 . S
C1822 C1821 1.399 . S
C1822 C1823 1.376 . S
C1823 H1810 0.930 . S
C1823 C1822 1.376 . S
C1823 C1824 1.388 . S
C1824 H1811 0.930 . S
C1824 C1823 1.388 . S
C1824 C1825 1.390 . S
C1825 C1824 1.390 . S
C1825 C1826 1.394 . S
C1825 C1831 1.465 . S
C1826 C1821 1.399 . S
C1826 C1825 1.394 . S
C1826 C1827 1.516 . S
C1827 C1826 1.516 . S
C1827 C1828 1.502 . S
C1827 C1829 1.561 . S
C1827 C1830 1.526 . S
C1828 H1812 0.959 . S
C1828 H1813 0.959 . S
C1828 H1814 0.961 . S
C1828 C1827 1.502 . S
C1829 H1815 0.960 . S
C1829 H1816 0.961 . S
C1829 H1817 0.959 . S
C1829 C1827 1.561 . S
C1830 C1827 1.526 . S
C1830 C1831 1.396 . S
C1830 C1835 1.390 . S
C1831 C1825 1.465 . S
C1831 C1830 1.396 . S
C1831 C1832 1.399 . S
C1832 H1818 0.929 . S
C1832 C1831 1.399 . S
C1832 C1833 1.385 . S
C1833 H1819 0.931 . S
C1833 C1832 1.385 . S
C1833 C1834 1.389 . S
C1834 C1833 1.389 . S
C1834 C1835 1.387 . S
C1835 H1820 0.930 . S
C1835 C1830 1.390 . S
C1835 C1834 1.387 . S
H1836 C1848 0.930 . S
H1837 C1850 0.930 . S
H1838 C1851 0.930 . S
H1839 C1855 0.959 . S
H1840 C1855 0.959 . S
H1841 C1855 0.961 . S
H1842 C1856 0.960 . S
H1843 C1856 0.961 . S
H1844 C1856 0.959 . S
H1845 C1859 0.929 . S
H1846 C1860 0.931 . S
H1847 C1862 0.930 . S
C1848 H1836 0.930 . S
C1848 C1849 1.399 . S
C1848 C1853 1.399 . S
C1849 C1848 1.399 . S
C1849 C1850 1.376 . S
C1850 H1837 0.930 . S
C1850 C1849 1.376 . S
C1850 C1851 1.388 . S
C1851 H1838 0.930 . S
C1851 C1850 1.388 . S
C1851 C1852 1.390 . S
C1852 C1851 1.390 . S
C1852 C1853 1.394 . S
C1852 C1858 1.465 . S
C1853 C1848 1.399 . S
C1853 C1852 1.394 . S
C1853 C1854 1.516 . S
C1854 C1853 1.516 . S
C1854 C1855 1.502 . S
C1854 C1856 1.561 . S
C1854 C1857 1.526 . S
C1855 H1839 0.959 . S
C1855 H1840 0.959 . S
C1855 H1841 0.961 . S
C1855 C1854 1.502 . S
C1856 H1842 0.960 . S
C1856 H1843 0.961 . S
C1856 H1844 0.959 . S
C1856 C1854 1.561 . S
C1857 C1854 1.526 . S
C1857 C1858 1.396 . S
C1857 C1862 1.390 . S
C1858 C1852 1.465 . S
C1858 C1857 1.396 . S
C1858 C1859 1.399 . S
C1859 H1845 0.929 . S
C1859 C1858 1.399 . S
C1859 C1860 1.385 . S
C1860 H1846 0.931 . S
C1860 C1859 1.385 . S
C1860 C1861 1.389 . S
C1861 C1860 1.389 . S
C1861 C1862 1.387 . S
C1862 H1847 0.930 . S
C1862 C1857 1.390 . S
C1862 C1861 1.387 . S
H1863 C1875 0.930 . S
H1864 C1877 0.930 . S
H1865 C1878 0.930 . S
H1866 C1882 0.959 . S
H1867 C1882 0.959 . S
H1868 C1882 0.961 . S
H1869 C1883 0.960 . S
H1870 C1883 0.961 . S
H1871 C1883 0.959 . S
H1872 C1886 0.929 . S
H1873 C1887 0.931 . S
H1874 C1889 0.930 . S
C1875 H1863 0.930 . S
C1875 C1876 1.399 . S
C1875 C1880 1.399 . S
C1876 C1875 1.399 . S
C1876 C1877 1.376 . S
C1877 H1864 0.930 . S
C1877 C1876 1.376 . S
C1877 C1878 1.388 . S
C1878 H1865 0.930 . S
C1878 C1877 1.388 . S
C1878 C1879 1.390 . S
C1879 C1878 1.390 . S
C1879 C1880 1.394 . S
C1879 C1885 1.465 . S
C1880 C1875 1.399 . S
C1880 C1879 1.394 . S
C1880 C1881 1.516 . S
C1881 C1880 1.516 . S
C1881 C1882 1.502 . S
C1881 C1883 1.561 . S
C1881 C1884 1.526 . S
C1882 H1866 0.959 . S
C1882 H1867 0.959 . S
C1882 H1868 0.961 . S
C1882 C1881 1.502 . S
C1883 H1869 0.960 . S
C1883 H1870 0.961 . S
C1883 H1871 0.959 . S
C1883 C1881 1.561 . S
C1884 C1881 1.526 . S
C1884 C1885 1.396 . S
C1884 C1889 1.390 . S
C1885 C1879 1.465 . S
C1885 C1884 1.396 . S
C1885 C1886 1.399 . S
C1886 H1872 0.929 . S
C1886 C1885 1.399 . S
C1886 C1887 1.385 . S
C1887 H1873 0.931 . S
C1887 C1886 1.385 . S
C1887 C1888 1.389 . S
C1888 C1887 1.389 . S
C1888 C1889 1.387 . S
C1889 H1874 0.930 . S
C1889 C1884 1.390 . S
C1889 C1888 1.387 . S
H1890 C1902 0.930 . S
H1891 C1904 0.930 . S
H1892 C1905 0.930 . S
H1893 C1909 0.959 . S
H1894 C1909 0.959 . S
H1895 C1909 0.961 . S
H1896 C1910 0.960 . S
H1897 C1910 0.961 . S
H1898 C1910 0.959 . S
H1899 C1913 0.929 . S
H1900 C1914 0.931 . S
H1901 C1916 0.930 . S
C1902 H1890 0.930 . S
C1902 C1903 1.399 . S
C1902 C1907 1.399 . S
C1903 C1902 1.399 . S
C1903 C1904 1.376 . S
C1904 H1891 0.930 . S
C1904 C1903 1.376 . S
C1904 C1905 1.388 . S
C1905 H1892 0.930 . S
C1905 C1904 1.388 . S
C1905 C1906 1.390 . S
C1906 C1905 1.390 . S
C1906 C1907 1.394 . S
C1906 C1912 1.465 . S
C1907 C1902 1.399 . S
C1907 C1906 1.394 . S
C1907 C1908 1.516 . S
C1908 C1907 1.516 . S
C1908 C1909 1.502 . S
C1908 C1910 1.561 . S
C1908 C1911 1.526 . S
C1909 H1893 0.959 . S
C1909 H1894 0.959 . S
C1909 H1895 0.961 . S
C1909 C1908 1.502 . S
C1910 H1896 0.960 . S
C1910 H1897 0.961 . S
C1910 H1898 0.959 . S
C1910 C1908 1.561 . S
C1911 C1908 1.526 . S
C1911 C1912 1.396 . S
C1911 C1916 1.390 . S
C1912 C1906 1.465 . S
C1912 C1911 1.396 . S
C1912 C1913 1.399 . S
C1913 H1899 0.929 . S
C1913 C1912 1.399 . S
C1913 C1914 1.385 . S
C1914 H1900 0.931 . S
C1914 C1913 1.385 . S
C1914 C1915 1.389 . S
C1915 C1914 1.389 . S
C1915 C1916 1.387 . S
C1916 H1901 0.930 . S
C1916 C1911 1.390 . S
C1916 C1915 1.387 . S
H1917 C1929 0.930 . S
H1918 C1931 0.930 . S
H1919 C1932 0.930 . S
H1920 C1936 0.959 . S
H1921 C1936 0.959 . S
H1922 C1936 0.961 . S
H1923 C1937 0.960 . S
H1924 C1937 0.961 . S
H1925 C1937 0.959 . S
H1926 C1940 0.929 . S
H1927 C1941 0.931 . S
H1928 C1943 0.930 . S
C1929 H1917 0.930 . S
C1929 C1930 1.399 . S
C1929 C1934 1.399 . S
C1930 C1929 1.399 . S
C1930 C1931 1.376 . S
C1931 H1918 0.930 . S
C1931 C1930 1.376 . S
C1931 C1932 1.388 . S
C1932 H1919 0.930 . S
C1932 C1931 1.388 . S
C1932 C1933 1.390 . S
C1933 C1932 1.390 . S
C1933 C1934 1.394 . S
C1933 C1939 1.465 . S
C1934 C1929 1.399 . S
C1934 C1933 1.394 . S
C1934 C1935 1.516 . S
C1935 C1934 1.516 . S
C1935 C1936 1.502 . S
C1935 C1937 1.561 . S
C1935 C1938 1.526 . S
C1936 H1920 0.959 . S
C1936 H1921 0.959 . S
C1936 H1922 0.961 . S
C1936 C1935 1.502 . S
C1937 H1923 0.960 . S
C1937 H1924 0.961 . S
C1937 H1925 0.959 . S
C1937 C1935 1.561 . S
C1938 C1935 1.526 . S
C1938 C1939 1.396 . S
C1938 C1943 1.390 . S
C1939 C1933 1.465 . S
C1939 C1938 1.396 . S
C1939 C1940 1.399 . S
C1940 H1926 0.929 . S
C1940 C1939 1.399 . S
C1940 C1941 1.385 . S
C1941 H1927 0.931 . S
C1941 C1940 1.385 . S
C1941 C1942 1.389 . S
C1942 C1941 1.389 . S
C1942 C1943 1.387 . S
C1943 H1928 0.930 . S
C1943 C1938 1.390 . S
C1943 C1942 1.387 . S
H1944 C1956 0.930 . S
H1945 C1958 0.930 . S
H1946 C1959 0.930 . S
H1947 C1963 0.959 . S
H1948 C1963 0.959 . S
H1949 C1963 0.961 . S
H1950 C1964 0.960 . S
H1951 C1964 0.961 . S
H1952 C1964 0.959 . S
H1953 C1967 0.929 . S
H1954 C1968 0.931 . S
H1955 C1970 0.930 . S
C1956 H1944 0.930 . S
C1956 C1957 1.399 . S
C1956 C1961 1.399 . S
C1957 C1956 1.399 . S
C1957 C1958 1.376 . S
C1958 H1945 0.930 . S
C1958 C1957 1.376 . S
C1958 C1959 1.388 . S
C1959 H1946 0.930 . S
C1959 C1958 1.388 . S
C1959 C1960 1.390 . S
C1960 C1959 1.390 . S
C1960 C1961 1.394 . S
C1960 C1966 1.465 . S
C1961 C1956 1.399 . S
C1961 C1960 1.394 . S
C1961 C1962 1.516 . S
C1962 C1961 1.516 . S
C1962 C1963 1.502 . S
C1962 C1964 1.561 . S
C1962 C1965 1.526 . S
C1963 H1947 0.959 . S
C1963 H1948 0.959 . S
C1963 H1949 0.961 . S
C1963 C1962 1.502 . S
C1964 H1950 0.960 . S
C1964 H1951 0.961 . S
C1964 H1952 0.959 . S
C1964 C1962 1.561 . S
C1965 C1962 1.526 . S
C1965 C1966 1.396 . S
C1965 C1970 1.390 . S
C1966 C1960 1.465 . S
C1966 C1965 1.396 . S
C1966 C1967 1.399 . S
C1967 H1953 0.929 . S
C1967 C1966 1.399 . S
C1967 C1968 1.385 . S
C1968 H1954 0.931 . S
C1968 C1967 1.385 . S
C1968 C1969 1.389 . S
C1969 C1968 1.389 . S
C1969 C1970 1.387 . S
C1970 H1955 0.930 . S
C1970 C1965 1.390 . S
C1970 C1969 1.387 . S
H1971 C1983 0.930 . S
H1972 C1985 0.930 . S
H1973 C1986 0.930 . S
H1974 C1990 0.959 . S
H1975 C1990 0.959 . S
H1976 C1990 0.961 . S
H1977 C1991 0.960 . S
H1978 C1991 0.961 . S
H1979 C1991 0.959 . S
H1980 C1994 0.929 . S
H1981 C1995 0.931 . S
H1982 C1997 0.930 . S
C1983 H1971 0.930 . S
C1983 C1984 1.399 . S
C1983 C1988 1.399 . S
C1984 C1983 1.399 . S
C1984 C1985 1.376 . S
C1985 H1972 0.930 . S
C1985 C1984 1.376 . S
C1985 C1986 1.388 . S
C1986 H1973 0.930 . S
C1986 C1985 1.388 . S
C1986 C1987 1.390 . S
C1987 C1986 1.390 . S
C1987 C1988 1.394 . S
C1987 C1993 1.465 . S
C1988 C1983 1.399 . S
C1988 C1987 1.394 . S
C1988 C1989 1.516 . S
C1989 C1988 1.516 . S
C1989 C1990 1.502 . S
C1989 C1991 1.561 . S
C1989 C1992 1.526 . S
C1990 H1974 0.959 . S
C1990 H1975 0.959 . S
C1990 H1976 0.961 . S
C1990 C1989 1.502 . S
C1991 H1977 0.960 . S
C1991 H1978 0.961 . S
C1991 H1979 0.959 . S
C1991 C1989 1.561 . S
C1992 C1989 1.526 . S
C1992 C1993 1.396 . S
C1992 C1997 1.390 . S
C1993 C1987 1.465 . S
C1993 C1992 1.396 . S
C1993 C1994 1.399 . S
C1994 H1980 0.929 . S
C1994 C1993 1.399 . S
C1994 C1995 1.385 . S
C1995 H1981 0.931 . S
C1995 C1994 1.385 . S
C1995 C1996 1.389 . S
C1996 C1995 1.389 . S
C1996 C1997 1.387 . S
C1997 H1982 0.930 . S
C1997 C1992 1.390 . S
C1997 C1996 1.387 . S
H1998 C2010 0.930 . S
H1999 C2012 0.930 . S
H2000 C2013 0.930 . S
H2001 C2017 0.959 . S
H2002 C2017 0.959 . S
H2003 C2017 0.961 . S
H2004 C2018 0.960 . S
H2005 C2018 0.961 . S
H2006 C2018 0.959 . S
H2007 C2021 0.929 . S
H2008 C2022 0.931 . S
H2009 C2024 0.930 . S
C2010 H1998 0.930 . S
C2010 C2011 1.399 . S
C2010 C2015 1.399 . S
C2011 C2010 1.399 . S
C2011 C2012 1.376 . S
C2012 H1999 0.930 . S
C2012 C2011 1.376 . S
C2012 C2013 1.388 . S
C2013 H2000 0.930 . S
C2013 C2012 1.388 . S
C2013 C2014 1.390 . S
C2014 C2013 1.390 . S
C2014 C2015 1.394 . S
C2014 C2020 1.465 . S
C2015 C2010 1.399 . S
C2015 C2014 1.394 . S
C2015 C2016 1.516 . S
C2016 C2015 1.516 . S
C2016 C2017 1.502 . S
C2016 C2018 1.561 . S
C2016 C2019 1.526 . S
C2017 H2001 0.959 . S
C2017 H2002 0.959 . S
C2017 H2003 0.961 . S
C2017 C2016 1.502 . S
C2018 H2004 0.960 . S
C2018 H2005 0.961 . S
C2018 H2006 0.959 . S
C2018 C2016 1.561 . S
C2019 C2016 1.526 . S
C2019 C2020 1.396 . S
C2019 C2024 1.390 . S
C2020 C2014 1.465 . S
C2020 C2019 1.396 . S
C2020 C2021 1.399 . S
C2021 H2007 0.929 . S
C2021 C2020 1.399 . S
C2021 C2022 1.385 . S
C2022 H2008 0.931 . S
C2022 C2021 1.385 . S
C2022 C2023 1.389 . S
C2023 C2022 1.389 . S
C2023 C2024 1.387 . S
C2024 H2009 0.930 . S
C2024 C2019 1.390 . S
C2024 C2023 1.387 . S
H2025 C2037 0.930 . S
H2026 C2039 0.930 . S
H2027 C2040 0.930 . S
H2028 C2044 0.959 . S
H2029 C2044 0.959 . S
H2030 C2044 0.961 . S
H2031 C2045 0.960 . S
H2032 C2045 0.961 . S
H2033 C2045 0.959 . S
H2034 C2048 0.929 . S
H2035 C2049 0.931 . S
H2036 C2051 0.930 . S
C2037 H2025 0.930 . S
C2037 C2038 1.399 . S
C2037 C2042 1.399 . S
C2038 C2037 1.399 . S
C2038 C2039 1.376 . S
C2039 H2026 0.930 . S
C2039 C2038 1.376 . S
C2039 C2040 1.388 . S
C2040 H2027 0.930 . S
C2040 C2039 1.388 . S
C2040 C2041 1.390 . S
C2041 C2040 1.390 . S
C2041 C2042 1.394 . S
C2041 C2047 1.465 . S
C2042 C2037 1.399 . S
C2042 C2041 1.394 . S
C2042 C2043 1.516 . S
C2043 C2042 1.516 . S
C2043 C2044 1.502 . S
C2043 C2045 1.561 . S
C2043 C2046 1.526 . S
C2044 H2028 0.959 . S
C2044 H2029 0.959 . S
C2044 H2030 0.961 . S
C2044 C2043 1.502 . S
C2045 H2031 0.960 . S
C2045 H2032 0.961 . S
C2045 H2033 0.959 . S
C2045 C2043 1.561 . S
C2046 C2043 1.526 . S
C2046 C2047 1.396 . S
C2046 C2051 1.390 . S
C2047 C2041 1.465 . S
C2047 C2046 1.396 . S
C2047 C2048 1.399 . S
C2048 H2034 0.929 . S
C2048 C2047 1.399 . S
C2048 C2049 1.385 . S
C2049 H2035 0.931 . S
C2049 C2048 1.385 . S
C2049 C2050 1.389 . S
C2050 C2049 1.389 . S
C2050 C2051 1.387 . S
C2051 H2036 0.930 . S
C2051 C2046 1.390 . S
C2051 C2050 1.387 . S
H2052 C2064 0.930 . S
H2053 C2066 0.930 . S
H2054 C2067 0.930 . S
H2055 C2071 0.959 . S
H2056 C2071 0.959 . S
H2057 C2071 0.961 . S
H2058 C2072 0.960 . S
H2059 C2072 0.961 . S
H2060 C2072 0.959 . S
H2061 C2075 0.929 . S
H2062 C2076 0.931 . S
H2063 C2078 0.930 . S
C2064 H2052 0.930 . S
C2064 C2065 1.399 . S
C2064 C2069 1.399 . S
C2065 C2064 1.399 . S
C2065 C2066 1.376 . S
C2066 H2053 0.930 . S
C2066 C2065 1.376 . S
C2066 C2067 1.388 . S
C2067 H2054 0.930 . S
C2067 C2066 1.388 . S
C2067 C2068 1.390 . S
C2068 C2067 1.390 . S
C2068 C2069 1.394 . S
C2068 C2074 1.465 . S
C2069 C2064 1.399 . S
C2069 C2068 1.394 . S
C2069 C2070 1.516 . S
C2070 C2069 1.516 . S
C2070 C2071 1.502 . S
C2070 C2072 1.561 . S
C2070 C2073 1.526 . S
C2071 H2055 0.959 . S
C2071 H2056 0.959 . S
C2071 H2057 0.961 . S
C2071 C2070 1.502 . S
C2072 H2058 0.960 . S
C2072 H2059 0.961 . S
C2072 H2060 0.959 . S
C2072 C2070 1.561 . S
C2073 C2070 1.526 . S
C2073 C2074 1.396 . S
C2073 C2078 1.390 . S
C2074 C2068 1.465 . S
C2074 C2073 1.396 . S
C2074 C2075 1.399 . S
C2075 H2061 0.929 . S
C2075 C2074 1.399 . S
C2075 C2076 1.385 . S
C2076 H2062 0.931 . S
C2076 C2075 1.385 . S
C2076 C2077 1.389 . S
C2077 C2076 1.389 . S
C2077 C2078 1.387 . S
C2078 H2063 0.930 . S
C2078 C2073 1.390 . S
C2078 C2077 1.387 . S
H2079 C2091 0.930 . S
H2080 C2093 0.930 . S
H2081 C2094 0.945 . S
H2082 C2098 0.959 . S
H2083 C2098 0.959 . S
H2084 C2098 0.961 . S
H2085 C2099 0.960 . S
H2086 C2099 0.961 . S
H2087 C2099 0.959 . S
H2088 C2102 0.929 . S
H2089 C2103 0.931 . S
H2090 C2105 0.930 . S
C2091 H2079 0.930 . S
C2091 C2092 1.399 . S
C2091 C2096 1.399 . S
C2092 C2091 1.399 . S
C2092 C2093 1.376 1_556 S
C2093 H2080 0.930 . S
C2093 C2092 1.376 1_554 S
C2093 C2094 1.391 . S
C2094 H2081 0.945 . S
C2094 C2093 1.391 . S
C2094 C2095 1.372 1_554 S
C2095 C2094 1.372 1_556 S
C2095 C2096 1.394 . S
C2095 C2101 1.465 . S
C2096 C2091 1.399 . S
C2096 C2095 1.394 . S
C2096 C2097 1.516 . S
C2097 C2096 1.516 . S
C2097 C2098 1.502 . S
C2097 C2099 1.561 . S
C2097 C2100 1.526 . S
C2098 H2082 0.959 . S
C2098 H2083 0.959 . S
C2098 H2084 0.961 . S
C2098 C2097 1.502 . S
C2099 H2085 0.960 . S
C2099 H2086 0.961 . S
C2099 H2087 0.959 . S
C2099 C2097 1.561 . S
C2100 C2097 1.526 . S
C2100 C2101 1.396 . S
C2100 C2105 1.390 . S
C2101 C2095 1.465 . S
C2101 C2100 1.396 . S
C2101 C2102 1.399 . S
C2102 H2088 0.929 . S
C2102 C2101 1.399 . S
C2102 C2103 1.385 . S
C2103 H2089 0.931 . S
C2103 C2102 1.385 . S
C2103 C2104 1.389 . S
C2104 C2103 1.389 . S
C2104 C2105 1.387 . S
C2105 H2090 0.930 . S
C2105 C2100 1.390 . S
C2105 C2104 1.387 . S
H2106 C2118 0.930 . S
H2107 C2120 0.930 1_554 S
H2108 C2121 0.930 . S
H2109 C2125 0.959 . S
H2110 C2125 0.959 . S
H2111 C2125 0.961 . S
H2112 C2126 0.960 . S
H2113 C2126 0.961 . S
H2114 C2126 0.959 . S
H2115 C2129 0.929 . S
H2116 C2130 0.931 . S
H2117 C2132 0.930 . S
C2118 H2106 0.930 . S
C2118 C2119 1.399 . S
C2118 C2123 1.399 . S
C2119 C2118 1.399 . S
C2119 C2120 1.376 . S
C2120 H2107 0.930 1_556 S
C2120 C2119 1.376 . S
C2120 C2121 1.388 . S
C2121 H2108 0.930 . S
C2121 C2120 1.388 . S
C2121 C2122 1.390 . S
C2122 C2121 1.390 . S
C2122 C2123 1.394 . S
C2122 C2128 1.465 . S
C2123 C2118 1.399 . S
C2123 C2122 1.394 . S
C2123 C2124 1.516 . S
C2124 C2123 1.516 . S
C2124 C2125 1.502 . S
C2124 C2126 1.561 . S
C2124 C2127 1.526 . S
C2125 H2109 0.959 . S
C2125 H2110 0.959 . S
C2125 H2111 0.961 . S
C2125 C2124 1.502 . S
C2126 H2112 0.960 . S
C2126 H2113 0.961 . S
C2126 H2114 0.959 . S
C2126 C2124 1.561 . S
C2127 C2124 1.526 . S
C2127 C2128 1.396 . S
C2127 C2132 1.390 . S
C2128 C2122 1.465 . S
C2128 C2127 1.396 . S
C2128 C2129 1.399 . S
C2129 H2115 0.929 . S
C2129 C2128 1.399 . S
C2129 C2130 1.385 . S
C2130 H2116 0.931 . S
C2130 C2129 1.385 . S
C2130 C2131 1.389 . S
C2131 C2130 1.389 . S
C2131 C2132 1.387 . S
C2132 H2117 0.930 . S
C2132 C2127 1.390 . S
C2132 C2131 1.387 . S
H2133 C2145 0.930 . S
H2134 C2147 0.930 . S
H2135 C2148 0.930 . S
H2136 C2152 0.959 . S
H2137 C2152 0.959 . S
H2138 C2152 0.961 . S
H2139 C2153 0.960 . S
H2140 C2153 0.961 . S
H2141 C2153 0.959 . S
H2142 C2156 0.929 . S
H2143 C2157 0.931 . S
H2144 C2159 0.930 . S
C2145 H2133 0.930 . S
C2145 C2146 1.399 . S
C2145 C2150 1.399 . S
C2146 C2145 1.399 . S
C2146 C2147 1.376 . S
C2147 H2134 0.930 . S
C2147 C2146 1.376 . S
C2147 C2148 1.388 . S
C2148 H2135 0.930 . S
C2148 C2147 1.388 . S
C2148 C2149 1.390 . S
C2149 C2148 1.390 . S
C2149 C2150 1.394 . S
C2149 C2155 1.465 . S
C2150 C2145 1.399 . S
C2150 C2149 1.394 . S
C2150 C2151 1.516 . S
C2151 C2150 1.516 . S
C2151 C2152 1.502 . S
C2151 C2153 1.561 . S
C2151 C2154 1.526 . S
C2152 H2136 0.959 . S
C2152 H2137 0.959 . S
C2152 H2138 0.961 . S
C2152 C2151 1.502 . S
C2153 H2139 0.960 . S
C2153 H2140 0.961 . S
C2153 H2141 0.959 . S
C2153 C2151 1.561 . S
C2154 C2151 1.526 . S
C2154 C2155 1.396 . S
C2154 C2159 1.390 . S
C2155 C2149 1.465 . S
C2155 C2154 1.396 . S
C2155 C2156 1.399 . S
C2156 H2142 0.929 . S
C2156 C2155 1.399 . S
C2156 C2157 1.385 . S
C2157 H2143 0.931 . S
C2157 C2156 1.385 . S
C2157 C2158 1.389 . S
C2158 C2157 1.389 . S
C2158 C2159 1.387 . S
C2159 H2144 0.930 . S
C2159 C2154 1.390 . S
C2159 C2158 1.387 . S
H2160 C2172 0.930 . S
H2161 C2174 0.930 1_554 S
H2162 C2175 0.930 1_554 S
H2163 C2179 0.959 . S
H2164 C2179 0.959 . S
H2165 C2179 0.961 . S
H2166 C2180 0.960 . S
H2167 C2180 0.961 . S
H2168 C2180 0.959 . S
H2169 C2183 0.929 . S
H2170 C2184 0.931 . S
H2171 C2186 0.930 . S
C2172 H2160 0.930 . S
C2172 C2173 1.399 . S
C2172 C2177 1.399 . S
C2173 C2172 1.399 . S
C2173 C2174 1.376 . S
C2174 H2161 0.930 1_556 S
C2174 C2173 1.376 . S
C2174 C2175 1.388 . S
C2175 H2162 0.930 1_556 S
C2175 C2174 1.388 . S
C2175 C2176 1.390 . S
C2176 C2175 1.390 . S
C2176 C2177 1.394 . S
C2176 C2182 1.465 . S
C2177 C2172 1.399 . S
C2177 C2176 1.394 . S
C2177 C2178 1.516 . S
C2178 C2177 1.516 . S
C2178 C2179 1.502 . S
C2178 C2180 1.561 . S
C2178 C2181 1.526 . S
C2179 H2163 0.959 . S
C2179 H2164 0.959 . S
C2179 H2165 0.961 . S
C2179 C2178 1.502 . S
C2180 H2166 0.960 . S
C2180 H2167 0.961 . S
C2180 H2168 0.959 . S
C2180 C2178 1.561 . S
C2181 C2178 1.526 . S
C2181 C2182 1.396 . S
C2181 C2186 1.390 . S
C2182 C2176 1.465 . S
C2182 C2181 1.396 . S
C2182 C2183 1.399 . S
C2183 H2169 0.929 . S
C2183 C2182 1.399 . S
C2183 C2184 1.385 . S
C2184 H2170 0.931 . S
C2184 C2183 1.385 . S
C2184 C2185 1.389 . S
C2185 C2184 1.389 . S
C2185 C2186 1.387 . S
C2186 H2171 0.930 . S
C2186 C2181 1.390 . S
C2186 C2185 1.387 . S
H2187 C2199 0.930 . S
H2188 C2201 0.930 . S
H2189 C2202 0.930 1_554 S
H2190 C2206 0.959 . S
H2191 C2206 0.959 . S
H2192 C2206 0.961 . S
H2193 C2207 0.960 . S
H2194 C2207 0.961 . S
H2195 C2207 0.959 . S
H2196 C2210 0.929 . S
H2197 C2211 0.931 . S
H2198 C2213 0.930 . S
C2199 H2187 0.930 . S
C2199 C2200 1.399 . S
C2199 C2204 1.399 . S
C2200 C2199 1.399 . S
C2200 C2201 1.376 1_556 S
C2201 H2188 0.930 . S
C2201 C2200 1.376 1_554 S
C2201 C2202 1.388 1_554 S
C2202 H2189 0.930 1_556 S
C2202 C2201 1.388 1_556 S
C2202 C2203 1.390 . S
C2203 C2202 1.390 . S
C2203 C2204 1.394 . S
C2203 C2209 1.465 . S
C2204 C2199 1.399 . S
C2204 C2203 1.394 . S
C2204 C2205 1.516 . S
C2205 C2204 1.516 . S
C2205 C2206 1.502 . S
C2205 C2207 1.561 . S
C2205 C2208 1.526 . S
C2206 H2190 0.959 . S
C2206 H2191 0.959 . S
C2206 H2192 0.961 . S
C2206 C2205 1.502 . S
C2207 H2193 0.960 . S
C2207 H2194 0.961 . S
C2207 H2195 0.959 . S
C2207 C2205 1.561 . S
C2208 C2205 1.526 . S
C2208 C2209 1.396 . S
C2208 C2213 1.390 . S
C2209 C2203 1.465 . S
C2209 C2208 1.396 . S
C2209 C2210 1.399 . S
C2210 H2196 0.929 . S
C2210 C2209 1.399 . S
C2210 C2211 1.385 . S
C2211 H2197 0.931 . S
C2211 C2210 1.385 . S
C2211 C2212 1.389 . S
C2212 C2211 1.389 . S
C2212 C2213 1.387 . S
C2213 H2198 0.930 . S
C2213 C2208 1.390 . S
C2213 C2212 1.387 . S
H2214 C2226 0.930 . S
H2215 C2228 0.945 . S
H2216 C2229 0.930 1_554 S
H2217 C2233 0.959 . S
H2218 C2233 0.959 . S
H2219 C2233 0.961 . S
H2220 C2234 0.960 . S
H2221 C2234 0.961 . S
H2222 C2234 0.959 . S
H2223 C2237 0.929 . S
H2224 C2238 0.931 . S
H2225 C2240 0.930 . S
C2226 H2214 0.930 . S
C2226 C2227 1.399 . S
C2226 C2231 1.399 . S
C2227 C2226 1.399 . S
C2227 C2228 1.366 1_556 S
C2228 H2215 0.945 . S
C2228 C2227 1.366 1_554 S
C2228 C2229 1.385 1_554 S
C2229 H2216 0.930 1_556 S
C2229 C2228 1.385 1_556 S
C2229 C2230 1.390 . S
C2230 C2229 1.390 . S
C2230 C2231 1.394 . S
C2230 C2236 1.465 . S
C2231 C2226 1.399 . S
C2231 C2230 1.394 . S
C2231 C2232 1.516 . S
C2232 C2231 1.516 . S
C2232 C2233 1.502 . S
C2232 C2234 1.561 . S
C2232 C2235 1.526 . S
C2233 H2217 0.959 . S
C2233 H2218 0.959 . S
C2233 H2219 0.961 . S
C2233 C2232 1.502 . S
C2234 H2220 0.960 . S
C2234 H2221 0.961 . S
C2234 H2222 0.959 . S
C2234 C2232 1.561 . S
C2235 C2232 1.526 . S
C2235 C2236 1.396 . S
C2235 C2240 1.390 . S
C2236 C2230 1.465 . S
C2236 C2235 1.396 . S
C2236 C2237 1.399 . S
C2237 H2223 0.929 . S
C2237 C2236 1.399 . S
C2237 C2238 1.385 . S
C2238 H2224 0.931 . S
C2238 C2237 1.385 . S
C2238 C2239 1.389 . S
C2239 C2238 1.389 . S
C2239 C2240 1.387 . S
C2240 H2225 0.930 . S
C2240 C2235 1.390 . S
C2240 C2239 1.387 . S
H2241 C2253 0.930 . S
H2242 C2255 0.930 . S
H2243 C2256 0.930 . S
H2244 C2260 0.959 . S
H2245 C2260 0.959 . S
H2246 C2260 0.961 . S
H2247 C2261 0.960 . S
H2248 C2261 0.961 . S
H2249 C2261 0.959 . S
H2250 C2264 0.929 . S
H2251 C2265 0.931 . S
H2252 C2267 0.930 . S
C2253 H2241 0.930 . S
C2253 C2254 1.399 . S
C2253 C2258 1.399 . S
C2254 C2253 1.399 . S
C2254 C2255 1.376 . S
C2255 H2242 0.930 . S
C2255 C2254 1.376 . S
C2255 C2256 1.388 . S
C2256 H2243 0.930 . S
C2256 C2255 1.388 . S
C2256 C2257 1.390 . S
C2257 C2256 1.390 . S
C2257 C2258 1.394 . S
C2257 C2263 1.465 . S
C2258 C2253 1.399 . S
C2258 C2257 1.394 . S
C2258 C2259 1.516 . S
C2259 C2258 1.516 . S
C2259 C2260 1.502 . S
C2259 C2261 1.561 . S
C2259 C2262 1.526 . S
C2260 H2244 0.959 . S
C2260 H2245 0.959 . S
C2260 H2246 0.961 . S
C2260 C2259 1.502 . S
C2261 H2247 0.960 . S
C2261 H2248 0.961 . S
C2261 H2249 0.959 . S
C2261 C2259 1.561 . S
C2262 C2259 1.526 . S
C2262 C2263 1.396 . S
C2262 C2267 1.390 . S
C2263 C2257 1.465 . S
C2263 C2262 1.396 . S
C2263 C2264 1.399 . S
C2264 H2250 0.929 . S
C2264 C2263 1.399 . S
C2264 C2265 1.385 . S
C2265 H2251 0.931 . S
C2265 C2264 1.385 . S
C2265 C2266 1.389 . S
C2266 C2265 1.389 . S
C2266 C2267 1.387 . S
C2267 H2252 0.930 . S
C2267 C2262 1.390 . S
C2267 C2266 1.387 . S
H2268 C2280 0.930 . S
H2269 C2282 0.930 . S
H2270 C2283 0.930 . S
H2271 C2287 0.959 . S
H2272 C2287 0.959 . S
H2273 C2287 0.961 1_556 S
H2274 C2288 0.960 . S
H2275 C2288 0.961 . S
H2276 C2288 0.959 . S
H2277 C2291 0.929 . S
H2278 C2292 0.931 . S
H2279 C2294 0.930 . S
C2280 H2268 0.930 . S
C2280 C2281 1.399 . S
C2280 C2285 1.399 . S
C2281 C2280 1.399 . S
C2281 C2282 1.376 . S
C2282 H2269 0.930 . S
C2282 C2281 1.376 . S
C2282 C2283 1.388 . S
C2283 H2270 0.930 . S
C2283 C2282 1.388 . S
C2283 C2284 1.390 . S
C2284 C2283 1.390 . S
C2284 C2285 1.394 . S
C2284 C2290 1.465 . S
C2285 C2280 1.399 . S
C2285 C2284 1.394 . S
C2285 C2286 1.516 . S
C2286 C2285 1.516 . S
C2286 C2287 1.502 . S
C2286 C2288 1.561 . S
C2286 C2289 1.526 . S
C2287 H2271 0.959 . S
C2287 H2272 0.959 . S
C2287 H2273 0.961 1_554 S
C2287 C2286 1.502 . S
C2288 H2274 0.960 . S
C2288 H2275 0.961 . S
C2288 H2276 0.959 . S
C2288 C2286 1.561 . S
C2289 C2286 1.526 . S
C2289 C2290 1.396 . S
C2289 C2294 1.390 . S
C2290 C2284 1.465 . S
C2290 C2289 1.396 . S
C2290 C2291 1.399 . S
C2291 H2277 0.929 . S
C2291 C2290 1.399 . S
C2291 C2292 1.385 . S
C2292 H2278 0.931 . S
C2292 C2291 1.385 . S
C2292 C2293 1.389 . S
C2293 C2292 1.389 . S
C2293 C2294 1.387 . S
C2294 H2279 0.930 . S
C2294 C2289 1.390 . S
C2294 C2293 1.387 . S
H2295 C2307 0.930 . S
H2296 C2309 0.930 . S
H2297 C2310 0.930 . S
H2298 C2314 0.959 . S
H2299 C2314 0.959 . S
H2300 C2314 0.961 . S
H2301 C2315 0.960 . S
H2302 C2315 0.961 . S
H2303 C2315 0.959 . S
H2304 C2318 0.929 . S
H2305 C2319 0.931 . S
H2306 C2321 0.930 . S
C2307 H2295 0.930 . S
C2307 C2308 1.399 . S
C2307 C2312 1.399 . S
C2308 C2307 1.399 . S
C2308 C2309 1.376 . S
C2309 H2296 0.930 . S
C2309 C2308 1.376 . S
C2309 C2310 1.388 . S
C2310 H2297 0.930 . S
C2310 C2309 1.388 . S
C2310 C2311 1.390 . S
C2311 C2310 1.390 . S
C2311 C2312 1.394 . S
C2311 C2317 1.465 . S
C2312 C2307 1.399 . S
C2312 C2311 1.394 . S
C2312 C2313 1.516 . S
C2313 C2312 1.516 . S
C2313 C2314 1.502 . S
C2313 C2315 1.561 . S
C2313 C2316 1.526 . S
C2314 H2298 0.959 . S
C2314 H2299 0.959 . S
C2314 H2300 0.961 . S
C2314 C2313 1.502 . S
C2315 H2301 0.960 . S
C2315 H2302 0.961 . S
C2315 H2303 0.959 . S
C2315 C2313 1.561 . S
C2316 C2313 1.526 . S
C2316 C2317 1.396 . S
C2316 C2321 1.390 . S
C2317 C2311 1.465 . S
C2317 C2316 1.396 . S
C2317 C2318 1.399 . S
C2318 H2304 0.929 . S
C2318 C2317 1.399 . S
C2318 C2319 1.385 . S
C2319 H2305 0.931 . S
C2319 C2318 1.385 . S
C2319 C2320 1.389 . S
C2320 C2319 1.389 . S
C2320 C2321 1.387 . S
C2321 H2306 0.930 . S
C2321 C2316 1.390 . S
C2321 C2320 1.387 . S
H2322 C2334 0.930 . S
H2323 C2336 0.930 . S
H2324 C2337 0.930 . S
H2325 C2341 0.959 . S
H2326 C2341 0.959 . S
H2327 C2341 0.961 . S
H2328 C2342 0.960 . S
H2329 C2342 0.961 . S
H2330 C2342 0.959 . S
H2331 C2345 0.929 . S
H2332 C2346 0.931 . S
H2333 C2348 0.930 . S
C2334 H2322 0.930 . S
C2334 C2335 1.399 . S
C2334 C2339 1.399 . S
C2335 C2334 1.399 . S
C2335 C2336 1.376 . S
C2336 H2323 0.930 . S
C2336 C2335 1.376 . S
C2336 C2337 1.388 . S
C2337 H2324 0.930 . S
C2337 C2336 1.388 . S
C2337 C2338 1.390 . S
C2338 C2337 1.390 . S
C2338 C2339 1.394 . S
C2338 C2344 1.465 . S
C2339 C2334 1.399 . S
C2339 C2338 1.394 . S
C2339 C2340 1.516 . S
C2340 C2339 1.516 . S
C2340 C2341 1.502 . S
C2340 C2342 1.561 . S
C2340 C2343 1.526 . S
C2341 H2325 0.959 . S
C2341 H2326 0.959 . S
C2341 H2327 0.961 . S
C2341 C2340 1.502 . S
C2342 H2328 0.960 . S
C2342 H2329 0.961 . S
C2342 H2330 0.959 . S
C2342 C2340 1.561 . S
C2343 C2340 1.526 . S
C2343 C2344 1.396 . S
C2343 C2348 1.390 . S
C2344 C2338 1.465 . S
C2344 C2343 1.396 . S
C2344 C2345 1.399 . S
C2345 H2331 0.929 . S
C2345 C2344 1.399 . S
C2345 C2346 1.385 . S
C2346 H2332 0.931 . S
C2346 C2345 1.385 . S
C2346 C2347 1.389 . S
C2347 C2346 1.389 . S
C2347 C2348 1.387 . S
C2348 H2333 0.930 . S
C2348 C2343 1.390 . S
C2348 C2347 1.387 . S
H2349 C2361 0.930 . S
H2350 C2363 0.930 . S
H2351 C2364 0.930 . S
H2352 C2368 0.959 . S
H2353 C2368 0.959 . S
H2354 C2368 0.961 . S
H2355 C2369 0.960 . S
H2356 C2369 0.961 . S
H2357 C2369 0.959 . S
H2358 C2372 0.929 . S
H2359 C2373 0.931 . S
H2360 C2375 0.930 . S
C2361 H2349 0.930 . S
C2361 C2362 1.399 . S
C2361 C2366 1.399 . S
C2362 C2361 1.399 . S
C2362 C2363 1.376 . S
C2363 H2350 0.930 . S
C2363 C2362 1.376 . S
C2363 C2364 1.388 . S
C2364 H2351 0.930 . S
C2364 C2363 1.388 . S
C2364 C2365 1.390 . S
C2365 C2364 1.390 . S
C2365 C2366 1.394 . S
C2365 C2371 1.465 . S
C2366 C2361 1.399 . S
C2366 C2365 1.394 . S
C2366 C2367 1.516 . S
C2367 C2366 1.516 . S
C2367 C2368 1.502 . S
C2367 C2369 1.561 . S
C2367 C2370 1.526 . S
C2368 H2352 0.959 . S
C2368 H2353 0.959 . S
C2368 H2354 0.961 . S
C2368 C2367 1.502 . S
C2369 H2355 0.960 . S
C2369 H2356 0.961 . S
C2369 H2357 0.959 . S
C2369 C2367 1.561 . S
C2370 C2367 1.526 . S
C2370 C2371 1.396 . S
C2370 C2375 1.390 . S
C2371 C2365 1.465 . S
C2371 C2370 1.396 . S
C2371 C2372 1.399 . S
C2372 H2358 0.929 . S
C2372 C2371 1.399 . S
C2372 C2373 1.385 . S
C2373 H2359 0.931 . S
C2373 C2372 1.385 . S
C2373 C2374 1.389 . S
C2374 C2373 1.389 . S
C2374 C2375 1.387 . S
C2375 H2360 0.930 . S
C2375 C2370 1.390 . S
C2375 C2374 1.387 . S
H2376 C2388 0.930 . S
H2377 C2390 0.930 . S
H2378 C2391 0.930 . S
H2379 C2395 0.959 . S
H2380 C2395 0.959 . S
H2381 C2395 0.961 . S
H2382 C2396 0.960 . S
H2383 C2396 0.961 . S
H2384 C2396 0.959 . S
H2385 C2399 0.929 . S
H2386 C2400 0.931 . S
H2387 C2402 0.930 . S
C2388 H2376 0.930 . S
C2388 C2389 1.399 . S
C2388 C2393 1.399 . S
C2389 C2388 1.399 . S
C2389 C2390 1.376 . S
C2390 H2377 0.930 . S
C2390 C2389 1.376 . S
C2390 C2391 1.388 . S
C2391 H2378 0.930 . S
C2391 C2390 1.388 . S
C2391 C2392 1.390 . S
C2392 C2391 1.390 . S
C2392 C2393 1.394 . S
C2392 C2398 1.465 . S
C2393 C2388 1.399 . S
C2393 C2392 1.394 . S
C2393 C2394 1.516 . S
C2394 C2393 1.516 . S
C2394 C2395 1.502 . S
C2394 C2396 1.561 . S
C2394 C2397 1.526 . S
C2395 H2379 0.959 . S
C2395 H2380 0.959 . S
C2395 H2381 0.961 . S
C2395 C2394 1.502 . S
C2396 H2382 0.960 . S
C2396 H2383 0.961 . S
C2396 H2384 0.959 . S
C2396 C2394 1.561 . S
C2397 C2394 1.526 . S
C2397 C2398 1.396 . S
C2397 C2402 1.390 . S
C2398 C2392 1.465 . S
C2398 C2397 1.396 . S
C2398 C2399 1.399 . S
C2399 H2385 0.929 . S
C2399 C2398 1.399 . S
C2399 C2400 1.385 . S
C2400 H2386 0.931 . S
C2400 C2399 1.385 . S
C2400 C2401 1.389 . S
C2401 C2400 1.389 . S
C2401 C2402 1.387 . S
C2402 H2387 0.930 . S
C2402 C2397 1.390 . S
C2402 C2401 1.387 . S
H2403 C2415 0.930 1_655 S
H2404 C2417 0.930 . S
H2405 C2418 0.930 . S
H2406 C2422 0.959 . S
H2407 C2422 0.959 . S
H2408 C2422 0.961 . S
H2409 C2423 0.960 . S
H2410 C2423 0.961 . S
H2411 C2423 0.959 . S
H2412 C2426 0.929 . S
H2413 C2427 0.931 . S
H2414 C2429 0.930 . S
C2415 H2403 0.930 1_455 S
C2415 C2416 1.399 . S
C2415 C2420 1.399 . S
C2416 C2415 1.399 . S
C2416 C2417 1.376 . S
C2417 H2404 0.930 . S
C2417 C2416 1.376 . S
C2417 C2418 1.388 . S
C2418 H2405 0.930 . S
C2418 C2417 1.388 . S
C2418 C2419 1.390 . S
C2419 C2418 1.390 . S
C2419 C2420 1.394 . S
C2419 C2425 1.465 . S
C2420 C2415 1.399 . S
C2420 C2419 1.394 . S
C2420 C2421 1.516 1_455 S
C2421 C2420 1.516 1_655 S
C2421 C2422 1.502 . S
C2421 C2423 1.561 1_655 S
C2421 C2424 1.526 1_655 S
C2422 H2406 0.959 . S
C2422 H2407 0.959 . S
C2422 H2408 0.961 . S
C2422 C2421 1.502 . S
C2423 H2409 0.960 . S
C2423 H2410 0.961 . S
C2423 H2411 0.959 . S
C2423 C2421 1.561 1_455 S
C2424 C2421 1.526 1_455 S
C2424 C2425 1.396 . S
C2424 C2429 1.390 1_455 S
C2425 C2419 1.465 . S
C2425 C2424 1.396 . S
C2425 C2426 1.399 . S
C2426 H2412 0.929 . S
C2426 C2425 1.399 . S
C2426 C2427 1.385 . S
C2427 H2413 0.931 . S
C2427 C2426 1.385 . S
C2427 C2428 1.389 . S
C2428 C2427 1.389 . S
C2428 C2429 1.387 1_455 S
C2429 H2414 0.930 . S
C2429 C2424 1.390 1_655 S
C2429 C2428 1.387 1_655 S
H2430 C2442 0.930 . S
H2431 C2444 0.930 . S
H2432 C2445 0.930 . S
H2433 C2449 0.959 . S
H2434 C2449 0.959 . S
H2435 C2449 0.961 . S
H2436 C2450 0.960 . S
H2437 C2450 0.961 . S
H2438 C2450 0.959 . S
H2439 C2453 0.929 . S
H2440 C2454 0.931 . S
H2441 C2456 0.930 . S
C2442 H2430 0.930 . S
C2442 C2443 1.399 . S
C2442 C2447 1.399 . S
C2443 C2442 1.399 . S
C2443 C2444 1.376 . S
C2444 H2431 0.930 . S
C2444 C2443 1.376 . S
C2444 C2445 1.388 . S
C2445 H2432 0.930 . S
C2445 C2444 1.388 . S
C2445 C2446 1.390 . S
C2446 C2445 1.390 . S
C2446 C2447 1.394 . S
C2446 C2452 1.465 . S
C2447 C2442 1.399 . S
C2447 C2446 1.394 . S
C2447 C2448 1.516 . S
C2448 C2447 1.516 . S
C2448 C2449 1.502 . S
C2448 C2450 1.561 . S
C2448 C2451 1.526 . S
C2449 H2433 0.959 . S
C2449 H2434 0.959 . S
C2449 H2435 0.961 . S
C2449 C2448 1.502 . S
C2450 H2436 0.960 . S
C2450 H2437 0.961 . S
C2450 H2438 0.959 . S
C2450 C2448 1.561 . S
C2451 C2448 1.526 . S
C2451 C2452 1.396 . S
C2451 C2456 1.390 . S
C2452 C2446 1.465 . S
C2452 C2451 1.396 . S
C2452 C2453 1.399 . S
C2453 H2439 0.929 . S
C2453 C2452 1.399 . S
C2453 C2454 1.385 . S
C2454 H2440 0.931 . S
C2454 C2453 1.385 . S
C2454 C2455 1.389 . S
C2455 C2454 1.389 . S
C2455 C2456 1.387 . S
C2456 H2441 0.930 . S
C2456 C2451 1.390 . S
C2456 C2455 1.387 . S
H2457 C2469 0.930 . S
H2458 C2471 0.930 . S
H2459 C2472 0.930 . S
H2460 C2476 0.959 . S
H2461 C2476 0.959 . S
H2462 C2476 0.961 . S
H2463 C2477 0.960 . S
H2464 C2477 0.961 . S
H2465 C2477 0.959 . S
H2466 C2480 0.929 . S
H2467 C2481 0.931 . S
H2468 C2483 0.930 . S
C2469 H2457 0.930 . S
C2469 C2470 1.399 1_545 S
C2469 C2474 1.413 . S
C2470 C2469 1.399 1_565 S
C2470 C2471 1.376 . S
C2471 H2458 0.930 . S
C2471 C2470 1.376 . S
C2471 C2472 1.388 . S
C2472 H2459 0.930 . S
C2472 C2471 1.388 . S
C2472 C2473 1.390 . S
C2473 C2472 1.390 . S
C2473 C2474 1.371 1_565 S
C2473 C2479 1.465 . S
C2474 C2469 1.413 . S
C2474 C2473 1.371 1_545 S
C2474 C2475 1.522 . S
C2475 C2474 1.522 . S
C2475 C2476 1.502 . S
C2475 C2477 1.561 . S
C2475 C2478 1.526 . S
C2476 H2460 0.959 . S
C2476 H2461 0.959 . S
C2476 H2462 0.961 . S
C2476 C2475 1.502 . S
C2477 H2463 0.960 . S
C2477 H2464 0.961 . S
C2477 H2465 0.959 . S
C2477 C2475 1.561 . S
C2478 C2475 1.526 . S
C2478 C2479 1.396 1_545 S
C2478 C2483 1.390 . S
C2479 C2473 1.465 . S
C2479 C2478 1.396 1_565 S
C2479 C2480 1.399 . S
C2480 H2466 0.929 . S
C2480 C2479 1.399 . S
C2480 C2481 1.385 . S
C2481 H2467 0.931 . S
C2481 C2480 1.385 . S
C2481 C2482 1.389 . S
C2482 C2481 1.389 . S
C2482 C2483 1.387 1_565 S
C2483 H2468 0.930 . S
C2483 C2478 1.390 . S
C2483 C2482 1.387 1_545 S
H2484 C2496 0.930 . S
H2485 C2498 0.930 . S
H2486 C2499 0.930 . S
H2487 C2503 0.959 . S
H2488 C2503 0.959 . S
H2489 C2503 0.961 . S
H2490 C2504 0.960 . S
H2491 C2504 0.961 . S
H2492 C2504 0.959 . S
H2493 C2507 0.929 . S
H2494 C2508 0.931 . S
H2495 C2510 0.930 . S
C2496 H2484 0.930 . S
C2496 C2497 1.399 1_545 S
C2496 C2501 1.399 . S
C2497 C2496 1.399 1_565 S
C2497 C2498 1.376 . S
C2498 H2485 0.930 . S
C2498 C2497 1.376 . S
C2498 C2499 1.388 . S
C2499 H2486 0.930 . S
C2499 C2498 1.388 . S
C2499 C2500 1.390 . S
C2500 C2499 1.390 . S
C2500 C2501 1.394 1_565 S
C2500 C2506 1.465 . S
C2501 C2496 1.399 . S
C2501 C2500 1.394 1_545 S
C2501 C2502 1.516 . S
C2502 C2501 1.516 . S
C2502 C2503 1.502 . S
C2502 C2504 1.561 . S
C2502 C2505 1.526 . S
C2503 H2487 0.959 . S
C2503 H2488 0.959 . S
C2503 H2489 0.961 . S
C2503 C2502 1.502 . S
C2504 H2490 0.960 . S
C2504 H2491 0.961 . S
C2504 H2492 0.959 . S
C2504 C2502 1.561 . S
C2505 C2502 1.526 . S
C2505 C2506 1.396 1_545 S
C2505 C2510 1.390 . S
C2506 C2500 1.465 . S
C2506 C2505 1.396 1_565 S
C2506 C2507 1.399 . S
C2507 H2493 0.929 . S
C2507 C2506 1.399 . S
C2507 C2508 1.385 . S
C2508 H2494 0.931 . S
C2508 C2507 1.385 . S
C2508 C2509 1.389 . S
C2509 C2508 1.389 . S
C2509 C2510 1.387 1_565 S
C2510 H2495 0.930 . S
C2510 C2505 1.390 . S
C2510 C2509 1.387 1_545 S
H2511 C2523 0.930 . S
H2512 C2525 0.930 . S
H2513 C2526 0.930 . S
H2514 C2530 0.959 . S
H2515 C2530 0.959 . S
H2516 C2530 0.961 . S
H2517 C2531 0.960 . S
H2518 C2531 0.961 . S
H2519 C2531 0.959 . S
H2520 C2534 0.929 . S
H2521 C2535 0.931 . S
H2522 C2537 0.930 . S
C2523 H2511 0.930 . S
C2523 C2524 1.399 . S
C2523 C2528 1.399 . S
C2524 C2523 1.399 . S
C2524 C2525 1.376 1_455 S
C2525 H2512 0.930 . S
C2525 C2524 1.376 1_655 S
C2525 C2526 1.388 . S
C2526 H2513 0.930 . S
C2526 C2525 1.388 . S
C2526 C2527 1.405 . S
C2527 C2526 1.405 . S
C2527 C2528 1.382 1_655 S
C2527 C2533 1.459 . S
C2528 C2523 1.399 . S
C2528 C2527 1.382 1_455 S
C2528 C2529 1.516 . S
C2529 C2528 1.516 . S
C2529 C2530 1.502 . S
C2529 C2531 1.561 . S
C2529 C2532 1.526 . S
C2530 H2514 0.959 . S
C2530 H2515 0.959 . S
C2530 H2516 0.961 . S
C2530 C2529 1.502 . S
C2531 H2517 0.960 . S
C2531 H2518 0.961 . S
C2531 H2519 0.959 . S
C2531 C2529 1.561 . S
C2532 C2529 1.526 . S
C2532 C2533 1.396 1_455 S
C2532 C2537 1.390 . S
C2533 C2527 1.459 . S
C2533 C2532 1.396 1_655 S
C2533 C2534 1.399 . S
C2534 H2520 0.929 . S
C2534 C2533 1.399 . S
C2534 C2535 1.385 . S
C2535 H2521 0.931 . S
C2535 C2534 1.385 . S
C2535 C2536 1.396 . S
C2536 C2535 1.396 . S
C2536 C2537 1.384 1_655 S
C2537 H2522 0.930 . S
C2537 C2532 1.390 . S
C2537 C2536 1.384 1_455 S
H2538 C2550 0.930 . S
H2539 C2552 0.930 . S
H2540 C2553 0.930 . S
H2541 C2557 0.959 . S
H2542 C2557 0.959 . S
H2543 C2557 0.961 . S
H2544 C2558 0.960 . S
H2545 C2558 0.961 . S
H2546 C2558 0.959 . S
H2547 C2561 0.929 . S
H2548 C2562 0.931 . S
H2549 C2564 0.930 . S
C2550 H2538 0.930 . S
C2550 C2551 1.399 . S
C2550 C2555 1.399 . S
C2551 C2550 1.399 . S
C2551 C2552 1.376 . S
C2552 H2539 0.930 . S
C2552 C2551 1.376 . S
C2552 C2553 1.388 . S
C2553 H2540 0.930 . S
C2553 C2552 1.388 . S
C2553 C2554 1.390 . S
C2554 C2553 1.390 . S
C2554 C2555 1.394 . S
C2554 C2560 1.465 . S
C2555 C2550 1.399 . S
C2555 C2554 1.394 . S
C2555 C2556 1.516 . S
C2556 C2555 1.516 . S
C2556 C2557 1.502 . S
C2556 C2558 1.561 . S
C2556 C2559 1.526 . S
C2557 H2541 0.959 . S
C2557 H2542 0.959 . S
C2557 H2543 0.961 . S
C2557 C2556 1.502 . S
C2558 H2544 0.960 . S
C2558 H2545 0.961 . S
C2558 H2546 0.959 . S
C2558 C2556 1.561 . S
C2559 C2556 1.526 . S
C2559 C2560 1.396 . S
C2559 C2564 1.390 . S
C2560 C2554 1.465 . S
C2560 C2559 1.396 . S
C2560 C2561 1.399 . S
C2561 H2547 0.929 . S
C2561 C2560 1.399 . S
C2561 C2562 1.385 . S
C2562 H2548 0.931 . S
C2562 C2561 1.385 . S
C2562 C2563 1.389 . S
C2563 C2562 1.389 . S
C2563 C2564 1.387 . S
C2564 H2549 0.930 . S
C2564 C2559 1.390 . S
C2564 C2563 1.387 . S
H2565 C2577 0.930 . S
H2566 C2579 0.930 . S
H2567 C2580 0.930 . S
H2568 C2584 0.959 . S
H2569 C2584 0.959 . S
H2570 C2584 0.961 . S
H2571 C2585 0.960 . S
H2572 C2585 0.961 . S
H2573 C2585 0.959 . S
H2574 C2588 0.929 . S
H2575 C2589 0.931 . S
H2576 C2591 0.930 . S
C2577 H2565 0.930 . S
C2577 C2578 1.399 . S
C2577 C2582 1.399 . S
C2578 C2577 1.399 . S
C2578 C2579 1.376 . S
C2579 H2566 0.930 . S
C2579 C2578 1.376 . S
C2579 C2580 1.388 . S
C2580 H2567 0.930 . S
C2580 C2579 1.388 . S
C2580 C2581 1.390 . S
C2581 C2580 1.390 . S
C2581 C2582 1.394 . S
C2581 C2587 1.465 . S
C2582 C2577 1.399 . S
C2582 C2581 1.394 . S
C2582 C2583 1.516 . S
C2583 C2582 1.516 . S
C2583 C2584 1.502 . S
C2583 C2585 1.561 . S
C2583 C2586 1.526 . S
C2584 H2568 0.959 . S
C2584 H2569 0.959 . S
C2584 H2570 0.961 . S
C2584 C2583 1.502 . S
C2585 H2571 0.960 . S
C2585 H2572 0.961 . S
C2585 H2573 0.959 . S
C2585 C2583 1.561 . S
C2586 C2583 1.526 . S
C2586 C2587 1.396 . S
C2586 C2591 1.390 . S
C2587 C2581 1.465 . S
C2587 C2586 1.396 . S
C2587 C2588 1.399 . S
C2588 H2574 0.929 . S
C2588 C2587 1.399 . S
C2588 C2589 1.385 . S
C2589 H2575 0.931 . S
C2589 C2588 1.385 . S
C2589 C2590 1.389 . S
C2590 C2589 1.389 . S
C2590 C2591 1.387 . S
C2591 H2576 0.930 . S
C2591 C2586 1.390 . S
C2591 C2590 1.387 . S
H2592 C2604 0.930 . S
H2593 C2606 0.930 . S
H2594 C2607 0.930 . S
H2595 C2611 0.959 . S
H2596 C2611 0.959 . S
H2597 C2611 0.961 . S
H2598 C2612 0.960 . S
H2599 C2612 0.961 . S
H2600 C2612 0.959 . S
H2601 C2615 0.929 . S
H2602 C2616 0.931 . S
H2603 C2618 0.930 . S
C2604 H2592 0.930 . S
C2604 C2605 1.399 . S
C2604 C2609 1.399 . S
C2605 C2604 1.399 . S
C2605 C2606 1.376 . S
C2606 H2593 0.930 . S
C2606 C2605 1.376 . S
C2606 C2607 1.388 . S
C2607 H2594 0.930 . S
C2607 C2606 1.388 . S
C2607 C2608 1.390 . S
C2608 C2607 1.390 . S
C2608 C2609 1.394 . S
C2608 C2614 1.465 . S
C2609 C2604 1.399 . S
C2609 C2608 1.394 . S
C2609 C2610 1.516 . S
C2610 C2609 1.516 . S
C2610 C2611 1.502 . S
C2610 C2612 1.561 . S
C2610 C2613 1.526 . S
C2611 H2595 0.959 . S
C2611 H2596 0.959 . S
C2611 H2597 0.961 . S
C2611 C2610 1.502 . S
C2612 H2598 0.960 . S
C2612 H2599 0.961 . S
C2612 H2600 0.959 . S
C2612 C2610 1.561 . S
C2613 C2610 1.526 . S
C2613 C2614 1.396 . S
C2613 C2618 1.390 . S
C2614 C2608 1.465 . S
C2614 C2613 1.396 . S
C2614 C2615 1.399 . S
C2615 H2601 0.929 . S
C2615 C2614 1.399 . S
C2615 C2616 1.385 . S
C2616 H2602 0.931 . S
C2616 C2615 1.385 . S
C2616 C2617 1.389 . S
C2617 C2616 1.389 . S
C2617 C2618 1.387 . S
C2618 H2603 0.930 . S
C2618 C2613 1.390 . S
C2618 C2617 1.387 . S
H2619 C2631 0.930 . S
H2620 C2633 0.930 . S
H2621 C2634 0.930 . S
H2622 C2638 0.959 . S
H2623 C2638 0.959 . S
H2624 C2638 0.961 . S
H2625 C2639 0.960 . S
H2626 C2639 0.961 . S
H2627 C2639 0.959 . S
H2628 C2642 0.929 . S
H2629 C2643 0.931 . S
H2630 C2645 0.930 . S
C2631 H2619 0.930 . S
C2631 C2632 1.399 . S
C2631 C2636 1.399 . S
C2632 C2631 1.399 . S
C2632 C2633 1.376 . S
C2633 H2620 0.930 . S
C2633 C2632 1.376 . S
C2633 C2634 1.388 . S
C2634 H2621 0.930 . S
C2634 C2633 1.388 . S
C2634 C2635 1.390 . S
C2635 C2634 1.390 . S
C2635 C2636 1.394 . S
C2635 C2641 1.465 . S
C2636 C2631 1.399 . S
C2636 C2635 1.394 . S
C2636 C2637 1.516 . S
C2637 C2636 1.516 . S
C2637 C2638 1.502 . S
C2637 C2639 1.561 . S
C2637 C2640 1.526 . S
C2638 H2622 0.959 . S
C2638 H2623 0.959 . S
C2638 H2624 0.961 . S
C2638 C2637 1.502 . S
C2639 H2625 0.960 . S
C2639 H2626 0.961 . S
C2639 H2627 0.959 . S
C2639 C2637 1.561 . S
C2640 C2637 1.526 . S
C2640 C2641 1.396 . S
C2640 C2645 1.390 . S
C2641 C2635 1.465 . S
C2641 C2640 1.396 . S
C2641 C2642 1.399 . S
C2642 H2628 0.929 . S
C2642 C2641 1.399 . S
C2642 C2643 1.385 . S
C2643 H2629 0.931 . S
C2643 C2642 1.385 . S
C2643 C2644 1.389 . S
C2644 C2643 1.389 . S
C2644 C2645 1.387 . S
C2645 H2630 0.930 . S
C2645 C2640 1.390 . S
C2645 C2644 1.387 . S
H2646 C2658 0.930 . S
H2647 C2660 0.930 . S
H2648 C2661 0.930 . S
H2649 C2665 0.959 . S
H2650 C2665 0.959 . S
H2651 C2665 0.961 . S
H2652 C2666 0.960 . S
H2653 C2666 0.961 . S
H2654 C2666 0.959 . S
H2655 C2669 0.929 . S
H2656 C2670 0.931 . S
H2657 C2672 0.930 1_565 S
C2658 H2646 0.930 . S
C2658 C2659 1.399 . S
C2658 C2663 1.399 . S
C2659 C2658 1.399 . S
C2659 C2660 1.376 . S
C2660 H2647 0.930 . S
C2660 C2659 1.376 . S
C2660 C2661 1.388 . S
C2661 H2648 0.930 . S
C2661 C2660 1.388 . S
C2661 C2662 1.390 . S
C2662 C2661 1.390 . S
C2662 C2663 1.394 . S
C2662 C2668 1.465 . S
C2663 C2658 1.399 . S
C2663 C2662 1.394 . S
C2663 C2664 1.515 1_545 S
C2664 C2663 1.515 1_565 S
C2664 C2665 1.501 1_565 S
C2664 C2666 1.563 . S
C2664 C2667 1.526 1_565 S
C2665 H2649 0.959 . S
C2665 H2650 0.959 . S
C2665 H2651 0.961 . S
C2665 C2664 1.501 1_545 S
C2666 H2652 0.960 . S
C2666 H2653 0.961 . S
C2666 H2654 0.959 . S
C2666 C2664 1.563 . S
C2667 C2664 1.526 1_545 S
C2667 C2668 1.396 . S
C2667 C2672 1.390 . S
C2668 C2662 1.465 . S
C2668 C2667 1.396 . S
C2668 C2669 1.399 . S
C2669 H2655 0.929 . S
C2669 C2668 1.399 . S
C2669 C2670 1.385 . S
C2670 H2656 0.931 . S
C2670 C2669 1.385 . S
C2670 C2671 1.389 . S
C2671 C2670 1.389 . S
C2671 C2672 1.387 . S
C2672 H2657 0.930 1_545 S
C2672 C2667 1.390 . S
C2672 C2671 1.387 . S
H2673 C2685 0.930 . S
H2674 C2687 0.930 . S
H2675 C2688 0.930 . S
H2676 C2692 0.959 . S
H2677 C2692 0.959 . S
H2678 C2692 0.961 . S
H2679 C2693 0.960 . S
H2680 C2693 0.961 . S
H2681 C2693 0.959 . S
H2682 C2696 0.929 . S
H2683 C2697 0.931 . S
H2684 C2699 0.930 . S
C2685 H2673 0.930 . S
C2685 C2686 1.399 . S
C2685 C2690 1.399 . S
C2686 C2685 1.399 . S
C2686 C2687 1.376 . S
C2687 H2674 0.930 . S
C2687 C2686 1.376 . S
C2687 C2688 1.388 . S
C2688 H2675 0.930 . S
C2688 C2687 1.388 . S
C2688 C2689 1.390 . S
C2689 C2688 1.390 . S
C2689 C2690 1.394 . S
C2689 C2695 1.465 . S
C2690 C2685 1.399 . S
C2690 C2689 1.394 . S
C2690 C2691 1.516 . S
C2691 C2690 1.516 . S
C2691 C2692 1.502 . S
C2691 C2693 1.561 1_655 S
C2691 C2694 1.526 . S
C2692 H2676 0.959 . S
C2692 H2677 0.959 . S
C2692 H2678 0.961 . S
C2692 C2691 1.502 . S
C2693 H2679 0.960 . S
C2693 H2680 0.961 . S
C2693 H2681 0.959 . S
C2693 C2691 1.561 1_455 S
C2694 C2691 1.526 . S
C2694 C2695 1.396 . S
C2694 C2699 1.390 . S
C2695 C2689 1.465 . S
C2695 C2694 1.396 . S
C2695 C2696 1.399 . S
C2696 H2682 0.929 . S
C2696 C2695 1.399 . S
C2696 C2697 1.385 . S
C2697 H2683 0.931 . S
C2697 C2696 1.385 . S
C2697 C2698 1.389 . S
C2698 C2697 1.389 . S
C2698 C2699 1.387 . S
C2699 H2684 0.930 . S
C2699 C2694 1.390 . S
C2699 C2698 1.387 . S
H2700 C2712 0.930 . S
H2701 C2714 0.930 . S
H2702 C2715 0.930 . S
H2703 C2719 0.959 . S
H2704 C2719 0.959 . S
H2705 C2719 0.961 . S
H2706 C2720 0.960 . S
H2707 C2720 0.961 . S
H2708 C2720 0.959 . S
H2709 C2723 0.929 . S
H2710 C2724 0.931 . S
H2711 C2726 0.930 . S
C2712 H2700 0.930 . S
C2712 C2713 1.399 . S
C2712 C2717 1.399 . S
C2713 C2712 1.399 . S
C2713 C2714 1.376 . S
C2714 H2701 0.930 . S
C2714 C2713 1.376 . S
C2714 C2715 1.388 . S
C2715 H2702 0.930 . S
C2715 C2714 1.388 . S
C2715 C2716 1.390 . S
C2716 C2715 1.390 . S
C2716 C2717 1.394 . S
C2716 C2722 1.465 . S
C2717 C2712 1.399 . S
C2717 C2716 1.394 . S
C2717 C2718 1.516 . S
C2718 C2717 1.516 . S
C2718 C2719 1.502 . S
C2718 C2720 1.561 . S
C2718 C2721 1.526 . S
C2719 H2703 0.959 . S
C2719 H2704 0.959 . S
C2719 H2705 0.961 . S
C2719 C2718 1.502 . S
C2720 H2706 0.960 . S
C2720 H2707 0.961 . S
C2720 H2708 0.959 . S
C2720 C2718 1.561 . S
C2721 C2718 1.526 . S
C2721 C2722 1.396 . S
C2721 C2726 1.390 . S
C2722 C2716 1.465 . S
C2722 C2721 1.396 . S
C2722 C2723 1.399 . S
C2723 H2709 0.929 . S
C2723 C2722 1.399 . S
C2723 C2724 1.385 . S
C2724 H2710 0.931 . S
C2724 C2723 1.385 . S
C2724 C2725 1.389 . S
C2725 C2724 1.389 . S
C2725 C2726 1.387 . S
C2726 H2711 0.930 . S
C2726 C2721 1.390 . S
C2726 C2725 1.387 . S
H2727 C2739 0.930 . S
H2728 C2741 0.930 . S
H2729 C2742 0.930 . S
H2730 C2746 0.959 . S
H2731 C2746 0.959 . S
H2732 C2746 0.961 . S
H2733 C2747 0.960 . S
H2734 C2747 0.961 . S
H2735 C2747 0.959 . S
H2736 C2750 0.929 . S
H2737 C2751 0.931 . S
H2738 C2753 0.930 . S
C2739 H2727 0.930 . S
C2739 C2740 1.399 . S
C2739 C2744 1.399 . S
C2740 C2739 1.399 . S
C2740 C2741 1.376 . S
C2741 H2728 0.930 . S
C2741 C2740 1.376 . S
C2741 C2742 1.388 . S
C2742 H2729 0.930 . S
C2742 C2741 1.388 . S
C2742 C2743 1.390 . S
C2743 C2742 1.390 . S
C2743 C2744 1.394 . S
C2743 C2749 1.465 . S
C2744 C2739 1.399 . S
C2744 C2743 1.394 . S
C2744 C2745 1.516 . S
C2745 C2744 1.516 . S
C2745 C2746 1.502 . S
C2745 C2747 1.561 . S
C2745 C2748 1.526 . S
C2746 H2730 0.959 . S
C2746 H2731 0.959 . S
C2746 H2732 0.961 . S
C2746 C2745 1.502 . S
C2747 H2733 0.960 . S
C2747 H2734 0.961 . S
C2747 H2735 0.959 . S
C2747 C2745 1.561 . S
C2748 C2745 1.526 . S
C2748 C2749 1.396 . S
C2748 C2753 1.390 . S
C2749 C2743 1.465 . S
C2749 C2748 1.396 . S
C2749 C2750 1.399 . S
C2750 H2736 0.929 . S
C2750 C2749 1.399 . S
C2750 C2751 1.385 . S
C2751 H2737 0.931 . S
C2751 C2750 1.385 . S
C2751 C2752 1.389 . S
C2752 C2751 1.389 . S
C2752 C2753 1.387 . S
C2753 H2738 0.930 . S
C2753 C2748 1.390 . S
C2753 C2752 1.387 . S
H2754 C2766 0.930 . S
H2755 C2768 0.930 . S
H2756 C2769 0.930 . S
H2757 C2773 0.959 . S
H2758 C2773 0.959 . S
H2759 C2773 0.961 . S
H2760 C2774 0.960 . S
H2761 C2774 0.961 . S
H2762 C2774 0.959 . S
H2763 C2777 0.929 . S
H2764 C2778 0.931 . S
H2765 C2780 0.930 . S
C2766 H2754 0.930 . S
C2766 C2767 1.399 . S
C2766 C2771 1.399 . S
C2767 C2766 1.399 . S
C2767 C2768 1.376 . S
C2768 H2755 0.930 . S
C2768 C2767 1.376 . S
C2768 C2769 1.388 . S
C2769 H2756 0.930 . S
C2769 C2768 1.388 . S
C2769 C2770 1.390 . S
C2770 C2769 1.390 . S
C2770 C2771 1.394 . S
C2770 C2776 1.465 . S
C2771 C2766 1.399 . S
C2771 C2770 1.394 . S
C2771 C2772 1.516 . S
C2772 C2771 1.516 . S
C2772 C2773 1.502 . S
C2772 C2774 1.561 . S
C2772 C2775 1.526 . S
C2773 H2757 0.959 . S
C2773 H2758 0.959 . S
C2773 H2759 0.961 . S
C2773 C2772 1.502 . S
C2774 H2760 0.960 . S
C2774 H2761 0.961 . S
C2774 H2762 0.959 . S
C2774 C2772 1.561 . S
C2775 C2772 1.526 . S
C2775 C2776 1.396 . S
C2775 C2780 1.390 . S
C2776 C2770 1.465 . S
C2776 C2775 1.396 . S
C2776 C2777 1.399 . S
C2777 H2763 0.929 . S
C2777 C2776 1.399 . S
C2777 C2778 1.385 . S
C2778 H2764 0.931 . S
C2778 C2777 1.385 . S
C2778 C2779 1.389 . S
C2779 C2778 1.389 . S
C2779 C2780 1.387 . S
C2780 H2765 0.930 . S
C2780 C2775 1.390 . S
C2780 C2779 1.387 . S
H2781 C2793 0.930 . S
H2782 C2795 0.930 . S
H2783 C2796 0.930 . S
H2784 C2800 0.959 . S
H2785 C2800 0.959 . S
H2786 C2800 0.961 . S
H2787 C2801 0.960 . S
H2788 C2801 0.961 . S
H2789 C2801 0.959 . S
H2790 C2804 0.929 . S
H2791 C2805 0.931 . S
H2792 C2807 0.930 . S
C2793 H2781 0.930 . S
C2793 C2794 1.399 . S
C2793 C2798 1.399 . S
C2794 C2793 1.399 . S
C2794 C2795 1.376 . S
C2795 H2782 0.930 . S
C2795 C2794 1.376 . S
C2795 C2796 1.388 . S
C2796 H2783 0.930 . S
C2796 C2795 1.388 . S
C2796 C2797 1.390 . S
C2797 C2796 1.390 . S
C2797 C2798 1.394 . S
C2797 C2803 1.465 . S
C2798 C2793 1.399 . S
C2798 C2797 1.394 . S
C2798 C2799 1.516 . S
C2799 C2798 1.516 . S
C2799 C2800 1.502 . S
C2799 C2801 1.561 . S
C2799 C2802 1.526 . S
C2800 H2784 0.959 . S
C2800 H2785 0.959 . S
C2800 H2786 0.961 . S
C2800 C2799 1.502 . S
C2801 H2787 0.960 . S
C2801 H2788 0.961 . S
C2801 H2789 0.959 . S
C2801 C2799 1.561 . S
C2802 C2799 1.526 . S
C2802 C2803 1.396 . S
C2802 C2807 1.390 . S
C2803 C2797 1.465 . S
C2803 C2802 1.396 . S
C2803 C2804 1.399 . S
C2804 H2790 0.929 . S
C2804 C2803 1.399 . S
C2804 C2805 1.385 . S
C2805 H2791 0.931 . S
C2805 C2804 1.385 . S
C2805 C2806 1.389 . S
C2806 C2805 1.389 . S
C2806 C2807 1.387 . S
C2807 H2792 0.930 . S
C2807 C2802 1.390 . S
C2807 C2806 1.387 . S
H2808 C2820 0.930 . S
H2809 C2822 0.930 . S
H2810 C2823 0.930 . S
H2811 C2827 0.959 . S
H2812 C2827 0.959 . S
H2813 C2827 0.961 . S
H2814 C2828 0.960 . S
H2815 C2828 0.961 . S
H2816 C2828 0.959 . S
H2817 C2831 0.929 . S
H2818 C2832 0.931 . S
H2819 C2834 0.930 . S
C2820 H2808 0.930 . S
C2820 C2821 1.399 . S
C2820 C2825 1.399 . S
C2821 C2820 1.399 . S
C2821 C2822 1.376 . S
C2822 H2809 0.930 . S
C2822 C2821 1.376 . S
C2822 C2823 1.388 . S
C2823 H2810 0.930 . S
C2823 C2822 1.388 . S
C2823 C2824 1.390 . S
C2824 C2823 1.390 . S
C2824 C2825 1.394 . S
C2824 C2830 1.465 . S
C2825 C2820 1.399 . S
C2825 C2824 1.394 . S
C2825 C2826 1.516 . S
C2826 C2825 1.516 . S
C2826 C2827 1.502 . S
C2826 C2828 1.561 . S
C2826 C2829 1.526 . S
C2827 H2811 0.959 . S
C2827 H2812 0.959 . S
C2827 H2813 0.961 . S
C2827 C2826 1.502 . S
C2828 H2814 0.960 . S
C2828 H2815 0.961 . S
C2828 H2816 0.959 . S
C2828 C2826 1.561 . S
C2829 C2826 1.526 . S
C2829 C2830 1.396 . S
C2829 C2834 1.390 . S
C2830 C2824 1.465 . S
C2830 C2829 1.396 . S
C2830 C2831 1.399 . S
C2831 H2817 0.929 . S
C2831 C2830 1.399 . S
C2831 C2832 1.385 . S
C2832 H2818 0.931 . S
C2832 C2831 1.385 . S
C2832 C2833 1.389 . S
C2833 C2832 1.389 . S
C2833 C2834 1.387 . S
C2834 H2819 0.930 . S
C2834 C2829 1.390 . S
C2834 C2833 1.387 . S
H2835 C2847 0.930 . S
H2836 C2849 0.930 . S
H2837 C2850 0.930 . S
H2838 C2854 0.959 . S
H2839 C2854 0.959 . S
H2840 C2854 0.961 . S
H2841 C2855 0.960 . S
H2842 C2855 0.961 . S
H2843 C2855 0.959 . S
H2844 C2858 0.929 . S
H2845 C2859 0.931 . S
H2846 C2861 0.930 . S
C2847 H2835 0.930 . S
C2847 C2848 1.399 . S
C2847 C2852 1.399 . S
C2848 C2847 1.399 . S
C2848 C2849 1.376 . S
C2849 H2836 0.930 . S
C2849 C2848 1.376 . S
C2849 C2850 1.388 . S
C2850 H2837 0.930 . S
C2850 C2849 1.388 . S
C2850 C2851 1.390 . S
C2851 C2850 1.390 . S
C2851 C2852 1.394 . S
C2851 C2857 1.465 . S
C2852 C2847 1.399 . S
C2852 C2851 1.394 . S
C2852 C2853 1.516 . S
C2853 C2852 1.516 . S
C2853 C2854 1.502 . S
C2853 C2855 1.561 . S
C2853 C2856 1.526 . S
C2854 H2838 0.959 . S
C2854 H2839 0.959 . S
C2854 H2840 0.961 . S
C2854 C2853 1.502 . S
C2855 H2841 0.960 . S
C2855 H2842 0.961 . S
C2855 H2843 0.959 . S
C2855 C2853 1.561 . S
C2856 C2853 1.526 . S
C2856 C2857 1.396 . S
C2856 C2861 1.390 . S
C2857 C2851 1.465 . S
C2857 C2856 1.396 . S
C2857 C2858 1.399 . S
C2858 H2844 0.929 . S
C2858 C2857 1.399 . S
C2858 C2859 1.385 . S
C2859 H2845 0.931 . S
C2859 C2858 1.385 . S
C2859 C2860 1.389 . S
C2860 C2859 1.389 . S
C2860 C2861 1.387 . S
C2861 H2846 0.930 . S
C2861 C2856 1.390 . S
C2861 C2860 1.387 . S
H2862 C2874 0.930 . S
H2863 C2876 0.930 . S
H2864 C2877 0.930 . S
H2865 C2881 0.959 . S
H2866 C2881 0.959 . S
H2867 C2881 0.961 . S
H2868 C2882 0.960 . S
H2869 C2882 0.961 . S
H2870 C2882 0.959 . S
H2871 C2885 0.929 . S
H2872 C2886 0.931 . S
H2873 C2888 0.930 . S
C2874 H2862 0.930 . S
C2874 C2875 1.399 . S
C2874 C2879 1.399 . S
C2875 C2874 1.399 . S
C2875 C2876 1.376 . S
C2876 H2863 0.930 . S
C2876 C2875 1.376 . S
C2876 C2877 1.388 . S
C2877 H2864 0.930 . S
C2877 C2876 1.388 . S
C2877 C2878 1.390 . S
C2878 C2877 1.390 . S
C2878 C2879 1.394 . S
C2878 C2884 1.465 . S
C2879 C2874 1.399 . S
C2879 C2878 1.394 . S
C2879 C2880 1.516 . S
C2880 C2879 1.516 . S
C2880 C2881 1.502 . S
C2880 C2882 1.561 . S
C2880 C2883 1.526 . S
C2881 H2865 0.959 . S
C2881 H2866 0.959 . S
C2881 H2867 0.961 . S
C2881 C2880 1.502 . S
C2882 H2868 0.960 . S
C2882 H2869 0.961 . S
C2882 H2870 0.959 . S
C2882 C2880 1.561 . S
C2883 C2880 1.526 . S
C2883 C2884 1.396 . S
C2883 C2888 1.390 . S
C2884 C2878 1.465 . S
C2884 C2883 1.396 . S
C2884 C2885 1.399 . S
C2885 H2871 0.929 . S
C2885 C2884 1.399 . S
C2885 C2886 1.385 . S
C2886 H2872 0.931 . S
C2886 C2885 1.385 . S
C2886 C2887 1.389 . S
C2887 C2886 1.389 . S
C2887 C2888 1.387 . S
C2888 H2873 0.930 . S
C2888 C2883 1.390 . S
C2888 C2887 1.387 . S
H2889 C2901 0.928 . S
H2890 C2903 0.930 . S
H2891 C2904 0.930 . S
H2892 C2908 0.959 . S
H2893 C2908 0.959 . S
H2894 C2908 0.961 . S
H2895 C2909 0.960 . S
H2896 C2909 0.961 . S
H2897 C2909 0.959 . S
H2898 C2912 0.929 . S
H2899 C2913 0.931 . S
H2900 C2915 0.942 . S
C2901 H2889 0.928 . S
C2901 C2902 1.399 . S
C2901 C2906 1.399 . S
C2902 C2901 1.399 . S
C2902 C2903 1.376 . S
C2903 H2890 0.930 . S
C2903 C2902 1.376 . S
C2903 C2904 1.388 . S
C2904 H2891 0.930 . S
C2904 C2903 1.388 . S
C2904 C2905 1.390 . S
C2905 C2904 1.390 . S
C2905 C2906 1.394 . S
C2905 C2911 1.465 . S
C2906 C2901 1.399 . S
C2906 C2905 1.394 . S
C2906 C2907 1.535 . S
C2907 C2906 1.535 . S
C2907 C2908 1.472 1_655 S
C2907 C2909 1.595 . S
C2907 C2910 1.509 . S
C2908 H2892 0.959 . S
C2908 H2893 0.959 . S
C2908 H2894 0.961 . S
C2908 C2907 1.472 1_455 S
C2909 H2895 0.960 . S
C2909 H2896 0.961 . S
C2909 H2897 0.959 . S
C2909 C2907 1.595 . S
C2910 C2907 1.509 . S
C2910 C2911 1.396 . S
C2910 C2915 1.364 1_655 S
C2911 C2905 1.465 . S
C2911 C2910 1.396 . S
C2911 C2912 1.399 . S
C2912 H2898 0.929 . S
C2912 C2911 1.399 . S
C2912 C2913 1.385 . S
C2913 H2899 0.931 . S
C2913 C2912 1.385 . S
C2913 C2914 1.389 . S
C2914 C2913 1.389 . S
C2914 C2915 1.403 1_655 S
C2915 H2900 0.942 . S
C2915 C2910 1.364 1_455 S
C2915 C2914 1.403 1_455 S
H2916 C2928 0.930 . S
H2917 C2930 0.930 . S
H2918 C2931 0.930 . S
H2919 C2935 0.959 . S
H2920 C2935 0.959 . S
H2921 C2935 0.961 . S
H2922 C2936 0.960 . S
H2923 C2936 0.961 . S
H2924 C2936 0.959 . S
H2925 C2939 0.929 . S
H2926 C2940 0.931 . S
H2927 C2942 0.930 . S
C2928 H2916 0.930 . S
C2928 C2929 1.399 . S
C2928 C2933 1.399 . S
C2929 C2928 1.399 . S
C2929 C2930 1.376 . S
C2930 H2917 0.930 . S
C2930 C2929 1.376 . S
C2930 C2931 1.388 . S
C2931 H2918 0.930 . S
C2931 C2930 1.388 . S
C2931 C2932 1.390 . S
C2932 C2931 1.390 . S
C2932 C2933 1.394 . S
C2932 C2938 1.465 . S
C2933 C2928 1.399 . S
C2933 C2932 1.394 . S
C2933 C2934 1.516 . S
C2934 C2933 1.516 . S
C2934 C2935 1.502 . S
C2934 C2936 1.561 . S
C2934 C2937 1.526 . S
C2935 H2919 0.959 . S
C2935 H2920 0.959 . S
C2935 H2921 0.961 . S
C2935 C2934 1.502 . S
C2936 H2922 0.960 . S
C2936 H2923 0.961 . S
C2936 H2924 0.959 . S
C2936 C2934 1.561 . S
C2937 C2934 1.526 . S
C2937 C2938 1.396 . S
C2937 C2942 1.390 . S
C2938 C2932 1.465 . S
C2938 C2937 1.396 . S
C2938 C2939 1.399 . S
C2939 H2925 0.929 . S
C2939 C2938 1.399 . S
C2939 C2940 1.385 . S
C2940 H2926 0.931 . S
C2940 C2939 1.385 . S
C2940 C2941 1.389 . S
C2941 C2940 1.389 . S
C2941 C2942 1.387 . S
C2942 H2927 0.930 . S
C2942 C2937 1.390 . S
C2942 C2941 1.387 . S
H2943 C2955 0.930 . S
H2944 C2957 0.930 . S
H2945 C2958 0.930 1_565 S
H2946 C2962 0.959 1_565 S
H2947 C2962 0.959 . S
H2948 C2962 0.961 . S
H2949 C2963 0.960 . S
H2950 C2963 0.961 . S
H2951 C2963 0.959 . S
H2952 C2966 0.929 . S
H2953 C2967 0.931 . S
H2954 C2969 0.930 . S
C2955 H2943 0.930 . S
C2955 C2956 1.399 . S
C2955 C2960 1.399 . S
C2956 C2955 1.399 . S
C2956 C2957 1.376 . S
C2957 H2944 0.930 . S
C2957 C2956 1.376 . S
C2957 C2958 1.388 . S
C2958 H2945 0.930 1_545 S
C2958 C2957 1.388 . S
C2958 C2959 1.390 . S
C2959 C2958 1.390 . S
C2959 C2960 1.394 . S
C2959 C2965 1.465 . S
C2960 C2955 1.399 . S
C2960 C2959 1.394 . S
C2960 C2961 1.516 . S
C2961 C2960 1.516 . S
C2961 C2962 1.502 . S
C2961 C2963 1.561 . S
C2961 C2964 1.526 . S
C2962 H2946 0.959 1_545 S
C2962 H2947 0.959 . S
C2962 H2948 0.961 . S
C2962 C2961 1.502 . S
C2963 H2949 0.960 . S
C2963 H2950 0.961 . S
C2963 H2951 0.959 . S
C2963 C2961 1.561 . S
C2964 C2961 1.526 . S
C2964 C2965 1.396 . S
C2964 C2969 1.390 . S
C2965 C2959 1.465 . S
C2965 C2964 1.396 . S
C2965 C2966 1.399 1_545 S
C2966 H2952 0.929 . S
C2966 C2965 1.399 1_565 S
C2966 C2967 1.385 . S
C2967 H2953 0.931 . S
C2967 C2966 1.385 . S
C2967 C2968 1.379 1_565 S
C2968 C2967 1.379 1_545 S
C2968 C2969 1.377 . S
C2969 H2954 0.930 . S
C2969 C2964 1.390 . S
C2969 C2968 1.377 . S
C1039 C4 1.491 1_655 S
C1051 C854 1.478 1_655 S
C1066 C38 1.640 . S
C1078 C867 1.675 . S
C1105 C896 1.446 1_545 S
C1093 C74 1.526 . S
C1120 C76 1.498 . S
C1132 C909 1.454 . S
C1147 C2 1.625 . S
C1159 C930 1.560 . S
C1174 C40 1.495 . S
C1186 C959 1.440 . S
C1201 C110 1.621 . S
C1213 C938 1.502 . S
C1240 C951 1.396 . S
C1228 C148 1.477 . S
C1267 C917 1.500 . S
C1255 C182 1.593 1_565 S
C1282 C184 1.543 . S
C1294 C888 1.474 1_545 S
C1321 C846 1.461 1_655 S
C1309 C112 1.501 1_655 S
C1336 C146 1.613 . S
C1348 C875 1.534 . S
C1363 C220 1.596 . S
C1375 C980 1.497 . S
C1390 C254 1.693 . S
C1402 C993 1.693 . S
C1429 C1022 1.470 . S
C1417 C290 1.602 . S
C1444 C292 1.507 . S
C1456 C657 1.512 . S
C1471 C218 1.663 . S
C1483 C678 1.626 . S
C1498 C256 1.504 . S
C1510 C707 1.445 . S
C1525 C326 1.651 . S
C1537 C686 1.577 . S
C1552 C364 1.527 . S
C1564 C699 1.425 . S
C1591 C665 1.572 . S
C1579 C398 1.635 . S
C1618 C1014 1.542 . S
C1606 C400 1.605 . S
C1645 C972 1.396 . S
C1633 C328 1.482 . S
C1672 C1001 1.636 . S
C1660 C362 1.617 . S
C1687 C436 1.537 . S
C1699 C728 1.523 . S
C1714 C470 1.710 . S
C1726 C741 1.646 . S
C1741 C506 1.607 . S
C1753 C770 1.524 . S
C1768 C508 1.531 . S
C1780 C783 1.548 . S
C1807 C804 1.637 . S
C1795 C434 1.660 . S
C1834 C833 1.436 . S
C1822 C472 1.560 . S
C1861 C812 1.656 . S
C1849 C542 1.644 . S
C1888 C825 1.509 . S
C1876 C580 1.534 . S
C1903 C614 1.578 . S
C1915 C791 1.602 . S
C1942 C762 1.522 . S
C1930 C616 1.563 . S
C1957 C544 1.492 . S
C1969 C720 1.487 . S
C1996 C749 1.553 . S
C1984 C578 1.626 . S
C2023 C660 1.441 . S
C2011 C14 1.454 . S
C2038 C39 1.469 . S
C2050 C681 1.389 . S
C2077 C709 1.361 . S
C2065 C75 1.458 . S
C2104 C730 1.345 . S
C2092 C86 1.373 . S
C2131 C744 1.418 . S
C2119 C3 1.497 . S
C2158 C772 1.367 . S
C2146 C50 1.417 . S
C2173 C111 1.512 . S
C2185 C765 1.417 . S
C2200 C158 1.395 . S
C2212 C723 1.324 . S
C2227 C183 1.576 . S
C2239 C751 1.541 . S
C2254 C194 1.509 . S
C2266 C688 1.420 . S
C2293 C702 1.232 . S
C2281 C122 1.411 . S
C2308 C147 1.427 . S
C2320 C667 1.361 . S
C2347 C786 1.386 . S
C2335 C230 1.500 . S
C2362 C255 1.535 . S
C2374 C807 1.446 . S
C2389 C291 1.489 . S
C2401 C835 1.304 . S
C2428 C856 1.220 . S
C2416 C302 1.262 . S
C2443 C219 1.502 . S
C2455 C870 1.367 . S
C2470 C266 1.383 . S
C2482 C898 1.394 . S
C2497 C327 1.415 . S
C2509 C891 1.218 . S
C2524 C374 1.406 . S
C2536 C849 1.340 1_655 S
C2563 C877 1.530 . S
C2551 C399 1.562 . S
C2578 C410 1.504 . S
C2590 C814 1.458 . S
C2605 C338 1.464 . S
C2617 C828 1.284 . S
C2644 C793 1.397 . S
C2632 C363 1.490 . S
C2671 C912 1.401 1_545 S
C2659 C446 1.419 . S
C2686 C471 1.443 . S
C2698 C933 1.377 1_655 S
C2713 C507 1.436 . S
C2725 C961 1.383 . S
C2752 C982 1.345 . S
C2740 C518 1.377 . S
C2779 C996 1.403 . S
C2767 C435 1.550 . S
C2794 C482 1.449 . S
C2806 C1024 1.371 . S
C2821 C543 1.492 . S
C2833 C1017 1.268 . S
C2848 C590 1.447 . S
C2860 C975 1.380 . S
C2887 C1003 1.512 . S
C2875 C615 1.601 . S
C2914 C940 1.422 1_655 S
C2902 C626 1.369 . S
C2941 C954 1.301 . S
C2929 C554 1.462 . S
C2956 C579 1.397 . S
C2968 C919 1.379 1_545 S
