# Generated by pormake.
# Topology ctn, (3,4)-cn, num edge types: 1
# Building blocks:
#     Node 0, Type 0, BuildingBlock: VETTIZ_charged_linker_0, # of connection points: 3
#     Node 1, Type 0, BuildingBlock: VETTIZ_charged_linker_0, # of connection points: 3
#     Node 2, Type 0, BuildingBlock: VETTIZ_charged_linker_0, # of connection points: 3
#     Node 3, Type 0, BuildingBlock: VETTIZ_charged_linker_0, # of connection points: 3
#     Node 4, Type 0, BuildingBlock: VETTIZ_charged_linker_0, # of connection points: 3
#     Node 5, Type 0, BuildingBlock: VETTIZ_charged_linker_0, # of connection points: 3
#     Node 6, Type 0, BuildingBlock: VETTIZ_charged_linker_0, # of connection points: 3
#     Node 7, Type 0, BuildingBlock: VETTIZ_charged_linker_0, # of connection points: 3
#     Node 8, Type 0, BuildingBlock: VETTIZ_charged_linker_0, # of connection points: 3
#     Node 9, Type 0, BuildingBlock: VETTIZ_charged_linker_0, # of connection points: 3
#     Node 10, Type 0, BuildingBlock: VETTIZ_charged_linker_0, # of connection points: 3
#     Node 11, Type 0, BuildingBlock: VETTIZ_charged_linker_0, # of connection points: 3
#     Node 12, Type 0, BuildingBlock: VETTIZ_charged_linker_0, # of connection points: 3
#     Node 13, Type 0, BuildingBlock: VETTIZ_charged_linker_0, # of connection points: 3
#     Node 14, Type 0, BuildingBlock: VETTIZ_charged_linker_0, # of connection points: 3
#     Node 15, Type 0, BuildingBlock: VETTIZ_charged_linker_0, # of connection points: 3
#     Node 16, Type 1, BuildingBlock: UXUYUI_clean_sbu_0, # of connection points: 4
#     Node 17, Type 1, BuildingBlock: UXUYUI_clean_sbu_0, # of connection points: 4
#     Node 18, Type 1, BuildingBlock: UXUYUI_clean_sbu_0, # of connection points: 4
#     Node 19, Type 1, BuildingBlock: UXUYUI_clean_sbu_0, # of connection points: 4
#     Node 20, Type 1, BuildingBlock: UXUYUI_clean_sbu_0, # of connection points: 4
#     Node 21, Type 1, BuildingBlock: UXUYUI_clean_sbu_0, # of connection points: 4
#     Node 22, Type 1, BuildingBlock: UXUYUI_clean_sbu_0, # of connection points: 4
#     Node 23, Type 1, BuildingBlock: UXUYUI_clean_sbu_0, # of connection points: 4
#     Node 24, Type 1, BuildingBlock: UXUYUI_clean_sbu_0, # of connection points: 4
#     Node 25, Type 1, BuildingBlock: UXUYUI_clean_sbu_0, # of connection points: 4
#     Node 26, Type 1, BuildingBlock: UXUYUI_clean_sbu_0, # of connection points: 4
#     Node 27, Type 1, BuildingBlock: UXUYUI_clean_sbu_0, # of connection points: 4
#     Edge 28, Type (0, 1), BuildingBlock: TEMPAE_clean_linker_10, # of connection points: 2
#     Edge 29, Type (0, 1), BuildingBlock: TEMPAE_clean_linker_10, # of connection points: 2
#     Edge 30, Type (0, 1), BuildingBlock: TEMPAE_clean_linker_10, # of connection points: 2
#     Edge 31, Type (0, 1), BuildingBlock: TEMPAE_clean_linker_10, # of connection points: 2
#     Edge 32, Type (0, 1), BuildingBlock: TEMPAE_clean_linker_10, # of connection points: 2
#     Edge 33, Type (0, 1), BuildingBlock: TEMPAE_clean_linker_10, # of connection points: 2
#     Edge 34, Type (0, 1), BuildingBlock: TEMPAE_clean_linker_10, # of connection points: 2
#     Edge 35, Type (0, 1), BuildingBlock: TEMPAE_clean_linker_10, # of connection points: 2
#     Edge 36, Type (0, 1), BuildingBlock: TEMPAE_clean_linker_10, # of connection points: 2
#     Edge 37, Type (0, 1), BuildingBlock: TEMPAE_clean_linker_10, # of connection points: 2
#     Edge 38, Type (0, 1), BuildingBlock: TEMPAE_clean_linker_10, # of connection points: 2
#     Edge 39, Type (0, 1), BuildingBlock: TEMPAE_clean_linker_10, # of connection points: 2
#     Edge 40, Type (0, 1), BuildingBlock: TEMPAE_clean_linker_10, # of connection points: 2
#     Edge 41, Type (0, 1), BuildingBlock: TEMPAE_clean_linker_10, # of connection points: 2
#     Edge 42, Type (0, 1), BuildingBlock: TEMPAE_clean_linker_10, # of connection points: 2
#     Edge 43, Type (0, 1), BuildingBlock: TEMPAE_clean_linker_10, # of connection points: 2
#     Edge 44, Type (0, 1), BuildingBlock: TEMPAE_clean_linker_10, # of connection points: 2
#     Edge 45, Type (0, 1), BuildingBlock: TEMPAE_clean_linker_10, # of connection points: 2
#     Edge 46, Type (0, 1), BuildingBlock: TEMPAE_clean_linker_10, # of connection points: 2
#     Edge 47, Type (0, 1), BuildingBlock: TEMPAE_clean_linker_10, # of connection points: 2
#     Edge 48, Type (0, 1), BuildingBlock: TEMPAE_clean_linker_10, # of connection points: 2
#     Edge 49, Type (0, 1), BuildingBlock: TEMPAE_clean_linker_10, # of connection points: 2
#     Edge 50, Type (0, 1), BuildingBlock: TEMPAE_clean_linker_10, # of connection points: 2
#     Edge 51, Type (0, 1), BuildingBlock: TEMPAE_clean_linker_10, # of connection points: 2
#     Edge 52, Type (0, 1), BuildingBlock: TEMPAE_clean_linker_10, # of connection points: 2
#     Edge 53, Type (0, 1), BuildingBlock: TEMPAE_clean_linker_10, # of connection points: 2
#     Edge 54, Type (0, 1), BuildingBlock: TEMPAE_clean_linker_10, # of connection points: 2
#     Edge 55, Type (0, 1), BuildingBlock: TEMPAE_clean_linker_10, # of connection points: 2
#     Edge 56, Type (0, 1), BuildingBlock: TEMPAE_clean_linker_10, # of connection points: 2
#     Edge 57, Type (0, 1), BuildingBlock: TEMPAE_clean_linker_10, # of connection points: 2
#     Edge 58, Type (0, 1), BuildingBlock: TEMPAE_clean_linker_10, # of connection points: 2
#     Edge 59, Type (0, 1), BuildingBlock: TEMPAE_clean_linker_10, # of connection points: 2
#     Edge 60, Type (0, 1), BuildingBlock: TEMPAE_clean_linker_10, # of connection points: 2
#     Edge 61, Type (0, 1), BuildingBlock: TEMPAE_clean_linker_10, # of connection points: 2
#     Edge 62, Type (0, 1), BuildingBlock: TEMPAE_clean_linker_10, # of connection points: 2
#     Edge 63, Type (0, 1), BuildingBlock: TEMPAE_clean_linker_10, # of connection points: 2
#     Edge 64, Type (0, 1), BuildingBlock: TEMPAE_clean_linker_10, # of connection points: 2
#     Edge 65, Type (0, 1), BuildingBlock: TEMPAE_clean_linker_10, # of connection points: 2
#     Edge 66, Type (0, 1), BuildingBlock: TEMPAE_clean_linker_10, # of connection points: 2
#     Edge 67, Type (0, 1), BuildingBlock: TEMPAE_clean_linker_10, # of connection points: 2
#     Edge 68, Type (0, 1), BuildingBlock: TEMPAE_clean_linker_10, # of connection points: 2
#     Edge 69, Type (0, 1), BuildingBlock: TEMPAE_clean_linker_10, # of connection points: 2
#     Edge 70, Type (0, 1), BuildingBlock: TEMPAE_clean_linker_10, # of connection points: 2
#     Edge 71, Type (0, 1), BuildingBlock: TEMPAE_clean_linker_10, # of connection points: 2
#     Edge 72, Type (0, 1), BuildingBlock: TEMPAE_clean_linker_10, # of connection points: 2
#     Edge 73, Type (0, 1), BuildingBlock: TEMPAE_clean_linker_10, # of connection points: 2
#     Edge 74, Type (0, 1), BuildingBlock: TEMPAE_clean_linker_10, # of connection points: 2
#     Edge 75, Type (0, 1), BuildingBlock: TEMPAE_clean_linker_10, # of connection points: 2
# Relax obj value: 0.000
# Max RMSD: 0.002
# Mean RMSD: 0.001
data_MOF--net-ctn--node1-UXUYUI_clean_sbu_0--node2-VETTIZ_charged_linker_0--edge1-TEMPAE_clean_linker_10
_symmetry_space_group_name_H-M    P1
_symmetry_Int_Tables_number       1
_symmetry_cell_setting            triclinic
loop_
_symmetry_equiv_pos_as_xyz
'x, y, z'
_cell_length_a     81.155566
_cell_length_b     81.166257
_cell_length_c     81.16475
_cell_angle_alpha  90.001123
_cell_angle_beta   89.995497
_cell_angle_gamma 89.994219
loop_
_atom_site_label
_atom_site_type_symbol
_atom_site_fract_x
_atom_site_fract_y
_atom_site_fract_z
_atom_type_partial_charge
C0 C 0.0364 0.08179 0.99731 0.0
C1 C 0.02377 0.09352 0.99927 0.0
C2 C 0.01264 0.09172 0.0125 0.0
C3 C 0.02688 0.06708 0.0216 0.0
C4 C 0.03775 0.06878 0.0086 0.0
C5 C 0.05068 0.05548 0.00852 0.0
H6 H 0.08516 0.98888 0.04517 0.0
C7 C 0.03187 0.05244 0.03126 0.0
C8 C 0.04586 0.04561 0.02368 0.0
H9 H 0.10008 0.01298 1.0 0.0
H10 H 0.07771 0.03226 0.00271 0.0
H11 H 0.0767 0.02142 0.06556 0.0
H12 H 0.04624 0.98922 0.03641 0.0
H13 H 0.03497 0.99448 0.05411 0.0
H14 H 0.05409 0.98333 0.05622 0.0
H15 H 0.07115 1.00108 0.07224 0.0
H16 H 0.05809 0.0186 0.07626 0.0
C17 C 0.06775 0.0638 0.01056 0.0
C18 C 0.04871 0.04532 0.99247 0.0
C19 C 0.99916 0.036 0.08216 0.0
C20 C 1.00108 0.02339 0.0939 0.0
C21 C 0.01439 0.01234 0.09224 0.0
C22 C 0.02555 0.01377 0.07912 0.0
C23 C 0.02346 0.02644 0.06749 0.0
C24 C 0.01046 0.03731 0.06915 0.0
C25 C 0.01037 0.05021 0.05583 0.0
C26 C 0.02532 0.04515 0.04577 0.0
C27 C 0.03294 0.03121 0.05264 0.0
C28 C 0.0127 0.06729 0.06405 0.0
C29 C 0.99418 0.04837 0.04589 0.0
C30 C 0.08355 0.99819 0.03576 0.0
C31 C 0.0946 0.99941 0.02242 0.0
C32 C 0.09203 0.0119 0.01059 0.0
C33 C 0.07893 0.02305 0.01211 0.0
C34 C 0.06813 0.02176 0.02558 0.0
C35 C 0.07044 0.00939 0.03704 0.0
C36 C 0.0575 0.00967 0.05033 0.0
C37 C 0.04716 0.02435 0.04505 0.0
C38 C 0.0535 0.03144 0.03058 0.0
C39 C 0.0662 0.01273 0.06705 0.0
C40 C 0.04768 0.99332 0.04941 0.0
H41 H 0.00524 0.07795 0.0334 0.0
H42 H 0.04525 0.08289 0.98738 0.0
H43 H 0.03553 0.04453 0.98875 0.0
H44 H 0.05267 0.03238 0.99388 0.0
H45 H 0.0556 0.05104 0.98212 0.0
H46 H 0.06702 0.07429 0.01936 0.0
H47 H 0.07229 0.0687 0.99861 0.0
H48 H 0.07716 0.05549 0.01578 0.0
H49 H 0.98921 0.04484 0.0832 0.0
H50 H 0.01607 0.00242 0.10101 0.0
H51 H 0.03538 0.00496 0.07855 0.0
H52 H 0.02055 0.06635 0.07526 0.0
H53 H 1.00069 0.07264 0.06786 0.0
H54 H 0.01922 0.07618 0.05606 0.0
H55 H 0.99099 0.03514 0.04423 0.0
H56 H 0.99505 0.0534 0.03329 0.0
H57 H 0.98372 0.05438 0.05237 0.0
H58 H 0.00266 0.10044 0.01417 0.0
C59 C 0.01411 0.07859 0.02363 0.0
C60 C 0.25604 0.66695 0.23115 0.0
C61 C 0.24259 0.66263 0.22106 0.0
C62 C 0.23928 0.67232 0.207 0.0
C63 C 0.26248 0.69009 0.21326 0.0
C64 C 0.2658 0.68058 0.22699 0.0
C65 C 0.28076 0.68654 0.23618 0.0
H66 H 0.34363 0.74098 0.24322 0.0
C67 C 0.27507 0.70326 0.21234 0.0
C68 C 0.28586 0.70119 0.22571 0.0
H69 H 0.3324 0.6994 0.27463 0.0
H70 H 0.30879 0.6929 0.25791 0.0
H71 H 0.30594 0.75329 0.23856 0.0
H72 H 0.33739 0.72209 0.20939 0.0
H73 H 0.32602 0.73425 0.1956 0.0
H74 H 0.3399 0.74404 0.20996 0.0
H75 H 0.32325 0.76103 0.22719 0.0
H76 H 0.30325 0.7588 0.2178 0.0
C77 C 0.27526 0.69186 0.25367 0.0
C78 C 0.29386 0.67264 0.23588 0.0
C79 C 0.2727 0.74573 0.16624 0.0
C80 C 0.28281 0.75918 0.16197 0.0
C81 C 0.29676 0.76256 0.1718 0.0
C82 C 0.30048 0.75289 0.18562 0.0
C83 C 0.29023 0.73956 0.18972 0.0
C84 C 0.27666 0.73611 0.18004 0.0
C85 C 0.26739 0.7212 0.18605 0.0
C86 C 0.27753 0.71641 0.20104 0.0
C87 C 0.29086 0.72724 0.20316 0.0
C88 C 0.24976 0.7267 0.19086 0.0
C89 C 0.26805 0.70785 0.1724 0.0
C90 C 0.33617 0.7304 0.24644 0.0
C91 C 0.33993 0.72076 0.26037 0.0
C92 C 0.32969 0.70722 0.26416 0.0
C93 C 0.31602 0.70337 0.25434 0.0
C94 C 0.31246 0.7131 0.24047 0.0
C95 C 0.32246 0.72636 0.23672 0.0
C96 C 0.31684 0.73524 0.22144 0.0
C97 C 0.30182 0.72513 0.21666 0.0
C98 C 0.29932 0.71219 0.22787 0.0
C99 C 0.31215 0.75308 0.22634 0.0
C100 C 0.33072 0.73402 0.20837 0.0
H101 H 0.2459 0.6928 0.19222 0.0
H102 H 0.2589 0.65995 0.24214 0.0
H103 H 0.29327 0.66558 0.22414 0.0
H104 H 0.30662 0.67735 0.23641 0.0
H105 H 0.29192 0.66379 0.24614 0.0
H106 H 0.26296 0.6979 0.25328 0.0
H107 H 0.27434 0.68108 0.26204 0.0
H108 H 0.28351 0.70112 0.25926 0.0
H109 H 0.26181 0.74279 0.1591 0.0
H110 H 0.30499 0.77259 0.16869 0.0
H111 H 0.31126 0.75614 0.19254 0.0
H112 H 0.25004 0.73887 0.19716 0.0
H113 H 0.24181 0.72794 0.17979 0.0
H114 H 0.24376 0.71828 0.19967 0.0
H115 H 0.27977 0.70861 0.16532 0.0
H116 H 0.26788 0.69518 0.17738 0.0
H117 H 0.25775 0.70934 0.16352 0.0
H118 H 0.22923 0.66917 0.1988 0.0
C119 C 0.24909 0.686 0.20309 0.0
C120 C 0.98231 0.41746 0.00562 0.0
C121 C 0.97233 0.41338 0.99201 0.0
C122 C 0.95841 0.42327 0.98865 0.0
C123 C 0.9646 0.44072 0.0121 0.0
C124 C 0.97819 0.43103 0.01548 0.0
C125 C 0.98723 0.43672 0.03064 0.0
H126 H 0.99333 0.48978 0.09483 0.0
C127 C 0.96365 0.45375 0.02483 0.0
C128 C 0.97685 0.45142 0.03578 0.0
H129 H 0.02521 0.44876 0.08295 0.0
H130 H 0.00874 0.44263 0.05902 0.0
H131 H 0.95969 0.47161 0.08722 0.0
H132 H 0.98992 0.50308 0.05708 0.0
H133 H 0.96929 0.50881 0.05388 0.0
H134 H 0.97812 0.51067 0.07417 0.0
H135 H 0.96055 0.4935 0.09024 0.0
H136 H 0.94631 0.48426 0.07587 0.0
C137 C 0.98661 0.42266 0.04356 0.0
C138 C 0.00485 0.44192 0.02546 0.0
C139 C 0.91789 0.4966 0.02243 0.0
C140 C 0.91361 0.50997 0.03265 0.0
C141 C 0.92334 0.51315 0.04671 0.0
C142 C 0.93705 0.50334 0.05048 0.0
C143 C 0.94115 0.49007 0.04014 0.0
C144 C 0.93159 0.48685 0.02643 0.0
C145 C 0.9376 0.47201 0.01705 0.0
C146 C 0.95243 0.46698 0.02731 0.0
C147 C 0.95447 0.47763 0.0408 0.0
C148 C 0.92384 0.45876 0.01738 0.0
C149 C 0.94266 0.47769 0.99955 0.0
C150 C 0.99685 0.47956 0.08699 0.0
C151 C 0.01059 0.46971 0.09087 0.0
C152 C 0.01457 0.4564 0.08041 0.0
C153 C 0.00502 0.45291 0.06645 0.0
C154 C 0.99127 0.46279 0.06281 0.0
C155 C 0.98742 0.47589 0.07299 0.0
C156 C 0.97234 0.48502 0.06722 0.0
C157 C 0.96777 0.47522 0.05194 0.0
C158 C 0.97891 0.46222 0.04942 0.0
C159 C 0.95898 0.48371 0.0808 0.0
C160 C 0.97753 0.50289 0.06293 0.0
H161 H 0.94378 0.44385 0.99531 0.0
H162 H 0.99319 0.4103 0.00853 0.0
H163 H 0.00472 0.44804 0.01319 0.0
H164 H 0.01039 0.45106 0.03387 0.0
H165 H 0.01314 0.43106 0.02459 0.0
H166 H 0.97472 0.41586 0.04283 0.0
H167 H 0.99668 0.41363 0.04152 0.0
H168 H 0.9872 0.42718 0.05637 0.0
H169 H 0.91083 0.49383 0.01146 0.0
H170 H 0.92021 0.52313 0.05501 0.0
H171 H 0.94387 0.50642 0.06136 0.0
H172 H 0.91658 0.45946 0.029 0.0
H173 H 0.91512 0.46041 0.00696 0.0
H174 H 0.92872 0.44606 0.01716 0.0
H175 H 0.94906 0.48981 1.00006 0.0
H176 H 0.95149 0.46927 0.99355 0.0
H177 H 0.9317 0.4791 0.99148 0.0
H178 H 0.95028 0.42032 0.97849 0.0
C179 C 0.95454 0.43689 0.99855 0.0
C180 C 0.67149 0.78675 0.25423 0.0
C181 C 0.6591 0.77491 0.25172 0.0
C182 C 0.66017 0.76437 0.23797 0.0
C183 C 0.68578 0.77733 0.22964 0.0
C184 C 0.68459 0.78784 0.243 0.0
C185 C 0.69843 0.80017 0.24345 0.0
H186 H 0.76807 0.83105 0.20926 0.0
C187 C 0.70088 0.78168 0.22038 0.0
C188 C 0.70828 0.79514 0.22835 0.0
H189 H 0.74172 0.84887 0.25203 0.0
H190 H 0.72195 0.82691 0.24924 0.0
H191 H 0.7357 0.82393 0.18717 0.0
H192 H 0.76538 0.79285 0.21826 0.0
H193 H 0.75981 0.78103 0.20103 0.0
H194 H 0.77218 0.79931 0.19824 0.0
H195 H 0.75632 0.81788 0.18191 0.0
H196 H 0.73885 0.8052 0.17675 0.0
C197 C 0.6909 0.81764 0.2416 0.0
C198 C 0.70828 0.79748 0.25957 0.0
C199 C 0.71746 0.74809 0.17008 0.0
C200 C 0.731 0.74887 0.15926 0.0
C201 C 0.74302 0.76118 0.16176 0.0
C202 C 0.74158 0.7725 0.17473 0.0
C203 C 0.72798 0.77156 0.18542 0.0
C204 C 0.71624 0.75946 0.18303 0.0
C205 C 0.70274 0.76022 0.19572 0.0
C206 C 0.70834 0.77473 0.20614 0.0
C207 C 0.72309 0.78137 0.2 0.0
C208 C 0.68627 0.76381 0.18674 0.0
C209 C 0.70296 0.74387 0.20558 0.0
C210 C 0.75798 0.8303 0.21796 0.0
C211 C 0.75651 0.84177 0.23089 0.0
C212 C 0.7433 0.84012 0.24208 0.0
C213 C 0.73173 0.82741 0.24036 0.0
C214 C 0.73327 0.81617 0.22728 0.0
C215 C 0.74627 0.81768 0.21639 0.0
C216 C 0.74595 0.8046 0.20325 0.0
C217 C 0.73046 0.79517 0.20789 0.0
C218 C 0.7231 0.80199 0.22199 0.0
C219 C 0.74423 0.81322 0.18631 0.0
C220 C 0.76165 0.79388 0.20511 0.0
H221 H 0.67358 0.75702 0.2168 0.0
H222 H 0.67085 0.79519 0.26455 0.0
H223 H 0.70953 0.7841 0.2623 0.0
H224 H 0.72102 0.80216 0.25887 0.0
H225 H 0.70197 0.80333 0.27021 0.0
H226 H 0.67962 0.81737 0.23382 0.0
H227 H 0.6874 0.82283 0.25377 0.0
H228 H 0.69922 0.82635 0.23525 0.0
H229 H 0.7081 0.73869 0.16864 0.0
H230 H 0.75346 0.7622 0.15351 0.0
H231 H 0.75111 0.78159 0.1759 0.0
H232 H 0.6883 0.77171 0.17571 0.0
H233 H 0.68032 0.75224 0.1825 0.0
H234 H 0.67748 0.77081 0.19441 0.0
H235 H 0.71584 0.73978 0.20789 0.0
H236 H 0.69735 0.74499 0.21791 0.0
H237 H 0.6966 0.7339 0.1987 0.0
H238 H 0.65079 0.75511 0.23584 0.0
C239 C 0.67345 0.76546 0.22697 0.0
C240 C 0.0374 0.91941 0.50579 0.0
C241 C 0.0245 0.90792 0.50426 0.0
C242 C 0.01304 0.90986 0.49134 0.0
C243 C 0.02741 0.93426 0.48176 0.0
C244 C 0.03859 0.93242 0.49448 0.0
C245 C 0.0515 0.94573 0.49441 0.0
H246 H 0.08389 0.01408 0.45903 0.0
C247 C 0.03219 0.94899 0.47212 0.0
C248 C 0.0463 0.95578 0.47951 0.0
H249 H 0.1011 0.98818 0.5023 0.0
H250 H 0.07882 0.96871 0.49976 0.0
H251 H 0.04557 0.01242 0.46811 0.0
H252 H 0.07607 0.98154 0.43762 0.0
H253 H 0.05721 0.98418 0.42733 0.0
H254 H 0.06994 0.0019 0.43154 0.0
H255 H 0.05281 0.01888 0.44824 0.0
H256 H 0.03397 0.00731 0.45058 0.0
C257 C 0.04989 0.95568 0.51063 0.0
C258 C 0.06853 0.93747 0.49185 0.0
C259 C 0.9988 0.96567 0.42169 0.0
C260 C 1.0003 0.97864 0.41027 0.0
C261 C 0.01333 0.99 0.41217 0.0
C262 C 0.02462 0.98849 0.42515 0.0
C263 C 0.02296 0.97547 0.43644 0.0
C264 C 0.01021 0.96433 0.43461 0.0
C265 C 0.01038 0.95129 0.4478 0.0
C266 C 0.02533 0.95644 0.45783 0.0
C267 C 0.03266 0.9706 0.4511 0.0
C268 C 0.99421 0.95276 0.45785 0.0
C269 C 0.01293 0.93436 0.43937 0.0
C270 C 0.08293 0.00413 0.46788 0.0
C271 C 0.09431 0.00271 0.4809 0.0
C272 C 0.09242 0.9897 0.49228 0.0
C273 C 0.07951 0.97833 0.49072 0.0
C274 C 0.06827 0.97991 0.47764 0.0
C275 C 0.07007 0.99268 0.46652 0.0
C276 C 0.05689 0.99249 0.45347 0.0
C277 C 0.04693 0.97749 0.45857 0.0
C278 C 0.05368 0.97014 0.47271 0.0
C279 C 0.04677 0.00862 0.45499 0.0
C280 C 0.06534 0.99002 0.43653 0.0
H281 H 0.00534 0.92364 0.47053 0.0
H282 H 0.04629 0.91842 0.51568 0.0
H283 H 0.06757 0.92694 0.48313 0.0
H284 H 0.07771 0.9458 0.48627 0.0
H285 H 0.07348 0.93264 0.50366 0.0
H286 H 0.03678 0.95658 0.51456 0.0
H287 H 0.05686 0.94972 0.5208 0.0
H288 H 0.05401 0.96859 0.50938 0.0
H289 H 0.98886 0.95682 0.42073 0.0
H290 H 0.01494 0.99996 0.40344 0.0
H291 H 0.03425 0.99751 0.42585 0.0
H292 H 0.99038 0.96587 0.45906 0.0
H293 H 0.98398 0.946 0.45177 0.0
H294 H 0.99548 0.94833 0.47065 0.0
H295 H 0.02153 0.93545 0.42875 0.0
H296 H 0.01866 0.92514 0.44755 0.0
H297 H 1.0011 0.92938 0.43462 0.0
H298 H 0.00309 0.9011 0.48975 0.0
C299 C 0.01442 0.92292 0.48011 0.0
C300 C 0.2564 0.6709 0.78605 0.0
C301 C 0.25506 0.65964 0.7729 0.0
C302 C 0.24229 0.66187 0.7613 0.0
C303 C 0.23233 0.68577 0.77623 0.0
C304 C 0.24501 0.68382 0.78742 0.0
C305 C 0.24479 0.6969 0.80057 0.0
H306 H 0.20792 0.76354 0.83484 0.0
C307 C 0.22239 0.70016 0.78139 0.0
C308 C 0.22967 0.70678 0.79563 0.0
H309 H 0.25281 0.73932 0.8502 0.0
H310 H 0.25028 0.71995 0.8278 0.0
H311 H 0.1876 0.73061 0.82715 0.0
H312 H 0.21606 0.76267 0.79591 0.0
H313 H 0.19792 0.75756 0.78527 0.0
H314 H 0.19655 0.76859 0.8045 0.0
H315 H 0.18023 0.75049 0.82087 0.0
H316 H 0.17691 0.73236 0.80843 0.0
C317 C 0.24245 0.68832 0.81746 0.0
C318 C 0.26084 0.70715 0.79907 0.0
C319 C 0.17101 0.71594 0.74905 0.0
C320 C 0.15883 0.72805 0.7514 0.0
C321 C 0.16021 0.73884 0.76495 0.0
C322 C 0.17349 0.73763 0.77594 0.0
C323 C 0.18553 0.72543 0.77347 0.0
C324 C 0.18413 0.71479 0.76024 0.0
C325 C 0.19783 0.7023 0.75984 0.0
C326 C 0.20776 0.70729 0.7749 0.0
C327 C 0.20054 0.72089 0.78279 0.0
C328 C 0.19008 0.68495 0.7618 0.0
C329 C 0.20769 0.70477 0.74368 0.0
C330 C 0.21713 0.75399 0.83342 0.0
C331 C 0.23059 0.75297 0.84431 0.0
C332 C 0.24243 0.74049 0.84189 0.0
C333 C 0.2409 0.7292 0.8289 0.0
C334 C 0.2274 0.73037 0.81812 0.0
C335 C 0.21584 0.74267 0.82043 0.0
C336 C 0.20249 0.74222 0.80756 0.0
C337 C 0.20797 0.72767 0.79714 0.0
C338 C 0.2225 0.72071 0.80344 0.0
C339 C 0.18586 0.73887 0.81634 0.0
C340 C 0.2031 0.75861 0.79779 0.0
H341 H 0.22153 0.67575 0.75368 0.0
H342 H 0.26595 0.66957 0.79527 0.0
H343 H 0.26516 0.70772 0.78607 0.0
H344 H 0.25914 0.72017 0.80268 0.0
H345 H 0.27093 0.70168 0.80653 0.0
H346 H 0.23338 0.67809 0.81647 0.0
H347 H 0.25425 0.68301 0.82194 0.0
H348 H 0.23745 0.69659 0.82701 0.0
H349 H 0.17019 0.70733 0.73889 0.0
H350 H 0.15108 0.74837 0.76695 0.0
H351 H 0.17383 0.74624 0.78596 0.0
H352 H 0.17937 0.68533 0.77035 0.0
H353 H 0.18563 0.68015 0.74978 0.0
H354 H 0.19859 0.67589 0.76731 0.0
H355 H 0.20845 0.71806 0.74041 0.0
H356 H 0.22064 0.70069 0.74469 0.0
H357 H 0.20174 0.69825 0.73322 0.0
H358 H 0.24111 0.65367 0.75084 0.0
C359 C 0.23095 0.6748 0.7629 0.0
C360 C 0.91484 0.50695 0.47871 0.0
C361 C 0.9114 0.49281 0.46924 0.0
C362 C 0.9225 0.48832 0.45662 0.0
C363 C 0.93972 0.51195 0.4628 0.0
C364 C 0.92903 0.51624 0.47533 0.0
C365 C 0.93459 0.53147 0.48435 0.0
H366 H 0.99065 0.5927 0.49388 0.0
C367 C 0.95317 0.52425 0.46238 0.0
C368 C 0.95028 0.53569 0.47504 0.0
H369 H 0.94652 0.58391 0.52238 0.0
H370 H 0.9401 0.56025 0.50554 0.0
H371 H 0.97418 0.58666 0.4594 0.0
H372 H 0.00191 0.55401 0.49065 0.0
H373 H 0.00902 0.55154 0.47031 0.0
H374 H 0.01088 0.57132 0.4802 0.0
H375 H 0.99623 0.58762 0.46059 0.0
H376 H 0.98588 0.57406 0.4463 0.0
C377 C 0.9212 0.54491 0.4822 0.0
C378 C 0.93812 0.52666 0.50248 0.0
C379 C 0.99771 0.52036 0.41839 0.0
C380 C 0.01137 0.53031 0.41442 0.0
C381 C 0.01468 0.54423 0.42432 0.0
C382 C 0.00463 0.54817 0.43781 0.0
C383 C 0.99098 0.53819 0.44149 0.0
C384 C 0.9877 0.52455 0.43184 0.0
C385 C 0.97247 0.51555 0.43739 0.0
C386 C 0.96709 0.52609 0.4519 0.0
C387 C 0.97802 0.53929 0.45429 0.0
C388 C 0.95978 0.51602 0.42313 0.0
C389 C 0.97758 0.49798 0.44286 0.0
C390 C 0.9797 0.58556 0.49658 0.0
C391 C 0.96911 0.59014 0.50952 0.0
C392 C 0.95481 0.58071 0.51241 0.0
C393 C 0.95115 0.56692 0.50267 0.0
C394 C 0.96186 0.56247 0.4898 0.0
C395 C 0.97581 0.5718 0.48688 0.0
C396 C 0.98551 0.56553 0.47237 0.0
C397 C 0.97526 0.55073 0.46726 0.0
C398 C 0.96144 0.54897 0.47754 0.0
C399 C 0.98563 0.57912 0.45894 0.0
C400 C 0.00281 0.56039 0.47855 0.0
H401 H 0.94446 0.49369 0.44357 0.0
H402 H 0.90658 0.51087 0.48843 0.0
H403 H 0.94361 0.51412 0.50322 0.0
H404 H 0.94722 0.53479 0.50848 0.0
H405 H 0.92661 0.52659 0.50989 0.0
H406 H 0.91555 0.54422 0.46973 0.0
H407 H 0.91117 0.5434 0.49139 0.0
H408 H 0.92616 0.55754 0.48308 0.0
H409 H 0.99486 0.50947 0.41123 0.0
H410 H 0.02491 0.55231 0.42146 0.0
H411 H 0.00781 0.55894 0.44477 0.0
H412 H 0.96015 0.52812 0.4167 0.0
H413 H 0.96243 0.50631 0.41386 0.0
H414 H 0.94693 0.51471 0.42736 0.0
H415 H 0.99008 0.49802 0.44849 0.0
H416 H 0.96946 0.49288 0.45253 0.0
H417 H 0.97785 0.48937 0.43222 0.0
H418 H 0.92043 0.47734 0.44935 0.0
C419 C 0.93657 0.4978 0.45335 0.0
C420 C 0.78594 0.74635 0.83147 0.0
C421 C 0.77311 0.74791 0.84306 0.0
C422 C 0.76191 0.76111 0.84139 0.0
C423 C 0.77629 0.77074 0.81702 0.0
C424 C 0.78731 0.75786 0.81866 0.0
C425 C 0.80037 0.75809 0.8055 0.0
H426 H 0.83328 0.79406 0.73772 0.0
C427 C 0.78117 0.7805 0.8024 0.0
C428 C 0.7953 0.77315 0.79561 0.0
H429 H 0.85087 0.75117 0.76398 0.0
H430 H 0.82835 0.75347 0.78322 0.0
H431 H 0.82476 0.81534 0.7698 0.0
H432 H 0.79471 0.78426 0.73905 0.0
H433 H 0.78295 0.80174 0.74397 0.0
H434 H 0.8018 0.80413 0.73243 0.0
H435 H 0.81867 0.82118 0.74936 0.0
H436 H 0.80581 0.8254 0.76698 0.0
C437 C 0.81732 0.76047 0.81397 0.0
C438 C 0.79881 0.74203 0.7953 0.0
C439 C 0.74767 0.83084 0.78575 0.0
C440 C 0.74904 0.84219 0.7727 0.0
C441 C 0.76194 0.84021 0.76121 0.0
C442 C 0.77327 0.82726 0.7627 0.0
C443 C 0.77176 0.81607 0.77583 0.0
C444 C 0.75908 0.81793 0.78704 0.0
C445 C 0.75931 0.80477 0.80011 0.0
C446 C 0.77427 0.79477 0.79495 0.0
C447 C 0.78154 0.80147 0.78074 0.0
C448 C 0.76189 0.81323 0.81703 0.0
C449 C 0.74316 0.7947 0.79869 0.0
C450 C 0.83219 0.78509 0.74754 0.0
C451 C 0.84392 0.77244 0.74934 0.0
C452 C 0.84214 0.76115 0.76244 0.0
C453 C 0.82899 0.76246 0.77356 0.0
C454 C 0.81745 0.77523 0.77168 0.0
C455 C 0.81916 0.78628 0.75883 0.0
C456 C 0.80583 0.79918 0.75888 0.0
C457 C 0.79587 0.79407 0.77389 0.0
C458 C 0.80271 0.78001 0.78131 0.0
C459 C 0.81407 0.81623 0.76126 0.0
C460 C 0.79579 0.79742 0.74274 0.0
H461 H 0.75451 0.78223 0.82794 0.0
H462 H 0.79468 0.7363 0.83224 0.0
H463 H 0.78565 0.73862 0.79358 0.0
H464 H 0.80381 0.74321 0.7827 0.0
H465 H 0.80503 0.73158 0.80159 0.0
H466 H 0.81618 0.76835 0.82514 0.0
H467 H 0.82262 0.74848 0.8179 0.0
H468 H 0.82633 0.76696 0.8061 0.0
H469 H 0.7378 0.83187 0.79468 0.0
H470 H 0.76342 0.84887 0.75116 0.0
H471 H 0.78282 0.82651 0.75359 0.0
H472 H 0.77028 0.82401 0.81588 0.0
H473 H 0.75003 0.81774 0.82215 0.0
H474 H 0.76789 0.80513 0.82617 0.0
H475 H 0.73941 0.7933 0.78558 0.0
H476 H 0.74439 0.78197 0.80332 0.0
H477 H 0.73289 0.80088 0.8053 0.0
H478 H 0.75208 0.76283 0.85025 0.0
C479 C 0.76341 0.77247 0.82846 0.0
C480 C 0.28541 0.24645 0.33215 0.0
C481 C 0.27244 0.24787 0.34358 0.0
C482 C 0.26094 0.26076 0.34167 0.0
C483 C 0.2754 0.27052 0.31739 0.0
C484 C 0.28661 0.25783 0.3192 0.0
C485 C 0.29956 0.25798 0.30592 0.0
H486 H 0.33243 0.29415 0.23826 0.0
C487 C 0.28017 0.28021 0.30269 0.0
C488 C 0.2943 0.27288 0.29588 0.0
H489 H 0.34913 0.25026 0.26351 0.0
H490 H 0.32683 0.25272 0.28291 0.0
H491 H 0.32361 0.3151 0.27079 0.0
H492 H 0.29416 0.2845 0.23902 0.0
H493 H 0.28199 0.30153 0.24444 0.0
H494 H 0.30079 0.30471 0.233 0.0
H495 H 0.31822 0.32097 0.25016 0.0
H496 H 0.30484 0.32533 0.26733 0.0
C497 C 0.31654 0.26061 0.31423 0.0
C498 C 0.29806 0.24177 0.29594 0.0
C499 C 0.24687 0.3308 0.28638 0.0
C500 C 0.24821 0.34213 0.27332 0.0
C501 C 0.26101 0.34011 0.26173 0.0
C502 C 0.27232 0.32712 0.26316 0.0
C503 C 0.27085 0.31593 0.2763 0.0
C504 C 0.25823 0.31783 0.28758 0.0
C505 C 0.25842 0.30459 0.30057 0.0
C506 C 0.27328 0.29452 0.29529 0.0
C507 C 0.28056 0.30126 0.28111 0.0
C508 C 0.26113 0.31295 0.31752 0.0
C509 C 0.24218 0.29463 0.29918 0.0
C510 C 0.33122 0.28497 0.24787 0.0
C511 C 0.34271 0.27205 0.24935 0.0
C512 C 0.34069 0.26051 0.26221 0.0
C513 C 0.32763 0.26189 0.27344 0.0
C514 C 0.31635 0.27494 0.27186 0.0
C515 C 0.3182 0.28615 0.25918 0.0
C516 C 0.30491 0.29909 0.25931 0.0
C517 C 0.29487 0.29386 0.27422 0.0
C518 C 0.30166 0.27973 0.28154 0.0
C519 C 0.3132 0.31608 0.26192 0.0
C520 C 0.29493 0.29756 0.2431 0.0
H521 H 0.25324 0.28161 0.32797 0.0
H522 H 0.29434 0.23658 0.33313 0.0
H523 H 0.285 0.23767 0.29515 0.0
H524 H 0.30203 0.24313 0.28299 0.0
H525 H 0.30523 0.23168 0.30179 0.0
H526 H 0.31552 0.26943 0.32469 0.0
H527 H 0.32147 0.24885 0.31919 0.0
H528 H 0.32577 0.26612 0.3059 0.0
H529 H 0.23707 0.33188 0.29536 0.0
H530 H 0.26243 0.34875 0.25166 0.0
H531 H 0.2818 0.32633 0.254 0.0
H532 H 0.27003 0.32333 0.31644 0.0
H533 H 0.24941 0.31802 0.32243 0.0
H534 H 0.26657 0.30461 0.32677 0.0
H535 H 0.23803 0.29379 0.28614 0.0
H536 H 0.24354 0.2817 0.3032 0.0
H537 H 0.23213 0.30053 0.30636 0.0
H538 H 0.25095 0.26225 0.35039 0.0
C539 C 0.26235 0.27206 0.32868 0.0
C540 C 0.48149 0.91732 0.50493 0.0
C541 C 0.47198 0.91392 0.49083 0.0
C542 C 0.45876 0.9245 0.48688 0.0
C543 C 0.46452 0.94125 0.51097 0.0
C544 C 0.4776 0.93101 0.51473 0.0
C545 C 0.48659 0.93646 0.53 0.0
H546 H 0.4936 0.98966 0.59397 0.0
C547 C 0.46364 0.95421 0.52377 0.0
C548 C 0.47659 0.9515 0.53493 0.0
H549 H 0.52501 0.94832 0.58199 0.0
H550 H 0.50838 0.94234 0.55812 0.0
H551 H 0.45943 0.97123 0.58639 0.0
H552 H 0.4899 0.003 0.55678 0.0
H553 H 0.46929 0.00881 0.55354 0.0
H554 H 0.47802 0.01043 0.5739 0.0
H555 H 0.46045 0.99306 0.58976 0.0
H556 H 0.44617 0.98416 0.57521 0.0
C557 C 0.4853 0.92251 0.54295 0.0
C558 C 0.50447 0.94107 0.52507 0.0
C559 C 0.41796 0.99717 0.52178 0.0
C560 C 0.41362 0.01036 0.53219 0.0
C561 C 0.42331 0.01336 0.54632 0.0
C562 C 0.43703 0.00351 0.54997 0.0
C563 C 0.44117 0.99039 0.53946 0.0
C564 C 0.43166 0.98737 0.52566 0.0
C565 C 0.43776 0.97274 0.51604 0.0
C566 C 0.45252 0.96751 0.5263 0.0
C567 C 0.45448 0.97793 0.53999 0.0
C568 C 0.42401 0.95949 0.51606 0.0
C569 C 0.44294 0.97873 0.49867 0.0
C570 C 0.49682 0.97925 0.58627 0.0
C571 C 0.51069 0.96947 0.58989 0.0
C572 C 0.51454 0.95617 0.57939 0.0
C573 C 0.5048 0.95266 0.56556 0.0
C574 C 0.49101 0.96255 0.56209 0.0
C575 C 0.48724 0.9756 0.57235 0.0
C576 C 0.47222 0.98487 0.56663 0.0
C577 C 0.46766 0.97526 0.55122 0.0
C578 C 0.47867 0.96216 0.54867 0.0
C579 C 0.45882 0.98344 0.58016 0.0
C580 C 0.47747 0.00277 0.56257 0.0
H581 H 0.44472 0.94559 0.49321 0.0
H582 H 0.49187 0.90958 0.50818 0.0
H583 H 0.50492 0.94621 0.51237 0.0
H584 H 0.50977 0.95084 0.53292 0.0
H585 H 0.51266 0.93011 0.52539 0.0
H586 H 0.47287 0.91674 0.54264 0.0
H587 H 0.49451 0.91267 0.54051 0.0
H588 H 0.48683 0.92691 0.55572 0.0
H589 H 0.41094 0.99456 0.51073 0.0
H590 H 0.42015 0.02321 0.55475 0.0
H591 H 0.44383 0.00645 0.56092 0.0
H592 H 0.41744 0.95931 0.52809 0.0
H593 H 0.41473 0.96201 0.50631 0.0
H594 H 0.42876 0.94685 0.51449 0.0
H595 H 0.44845 0.99127 0.49927 0.0
H596 H 0.45258 0.97096 0.49303 0.0
H597 H 0.43217 0.97933 0.49024 0.0
H598 H 0.45116 0.92209 0.47618 0.0
C599 C 0.45498 0.93809 0.49685 0.0
C600 C 0.1711 0.2867 0.75539 0.0
C601 C 0.1596 0.27379 0.75379 0.0
C602 C 0.16164 0.26238 0.74082 0.0
C603 C 0.18599 0.27687 0.73133 0.0
C604 C 0.18414 0.28797 0.74411 0.0
C605 C 0.19746 0.30087 0.74416 0.0
H606 H 0.26494 0.3344 0.70813 0.0
C607 C 0.20073 0.28172 0.72173 0.0
C608 C 0.20753 0.29576 0.72923 0.0
H609 H 0.24021 0.35025 0.75254 0.0
H610 H 0.22083 0.32781 0.75002 0.0
H611 H 0.23168 0.32537 0.68715 0.0
H612 H 0.26477 0.29667 0.71703 0.0
H613 H 0.25877 0.284 0.70058 0.0
H614 H 0.26999 0.30275 0.69643 0.0
H615 H 0.25255 0.32093 0.68128 0.0
H616 H 0.23598 0.30693 0.67659 0.0
C617 C 0.18921 0.31791 0.7417 0.0
C618 C 0.20739 0.29917 0.76039 0.0
C619 C 0.21724 0.24887 0.6709 0.0
C620 C 0.23038 0.25028 0.65968 0.0
C621 C 0.24188 0.26313 0.66178 0.0
C622 C 0.2403 0.27442 0.67477 0.0
C623 C 0.22711 0.27285 0.68588 0.0
C624 C 0.2159 0.26018 0.68389 0.0
C625 C 0.20289 0.26022 0.69712 0.0
C626 C 0.20812 0.27502 0.70733 0.0
C627 C 0.22225 0.28242 0.70063 0.0
C628 C 0.18595 0.26296 0.68876 0.0
C629 C 0.2043 0.24391 0.70695 0.0
C630 C 0.25525 0.33308 0.71722 0.0
C631 C 0.25402 0.34415 0.7305 0.0
C632 C 0.24145 0.34183 0.74226 0.0
C633 C 0.23017 0.32883 0.74073 0.0
C634 C 0.2315 0.31791 0.72735 0.0
C635 C 0.24398 0.32005 0.71596 0.0
C636 C 0.24386 0.3069 0.70288 0.0
C637 C 0.2291 0.29667 0.70816 0.0
C638 C 0.22184 0.30324 0.72243 0.0
C639 C 0.24098 0.31536 0.68601 0.0
C640 C 0.26019 0.29707 0.70411 0.0
H641 H 0.17552 0.25477 0.72005 0.0
H642 H 0.16989 0.29579 0.76508 0.0
H643 H 0.20785 0.28611 0.76454 0.0
H644 H 0.22044 0.30279 0.759 0.0
H645 H 0.20172 0.30651 0.77045 0.0
H646 H 0.17905 0.31709 0.73253 0.0
H647 H 0.18387 0.32252 0.75343 0.0
H648 H 0.19771 0.32729 0.73675 0.0
H649 H 0.20832 0.239 0.66975 0.0
H650 H 0.25202 0.26459 0.65323 0.0
H651 H 0.24941 0.28394 0.67563 0.0
H652 H 0.18701 0.27198 0.67848 0.0
H653 H 0.1811 0.25128 0.68354 0.0
H654 H 0.17665 0.26826 0.69714 0.0
H655 H 0.21735 0.23975 0.70773 0.0
H656 H 0.20031 0.24516 0.7199 0.0
H657 H 0.19712 0.2339 0.70099 0.0
H658 H 0.15321 0.25213 0.73942 0.0
C659 C 0.17471 0.26386 0.72961 0.0
C660 C 0.75704 0.16589 0.72893 0.0
C661 C 0.74318 0.1622 0.71917 0.0
C662 C 0.73947 0.17248 0.70565 0.0
C663 C 0.76312 0.18969 0.71179 0.0
C664 C 0.76675 0.17966 0.72506 0.0
C665 C 0.78177 0.18544 0.73429 0.0
H666 H 0.84381 0.24072 0.74279 0.0
C667 C 0.77557 0.20301 0.7112 0.0
C668 C 0.78649 0.20062 0.72442 0.0
H669 H 0.83369 0.19792 0.77284 0.0
H670 H 0.81009 0.19141 0.75599 0.0
H671 H 0.80636 0.25276 0.73961 0.0
H672 H 0.83691 0.22297 0.70813 0.0
H673 H 0.82578 0.23649 0.69542 0.0
H674 H 0.83986 0.24476 0.71046 0.0
H675 H 0.82246 0.26143 0.72719 0.0
H676 H 0.8019 0.25849 0.71924 0.0
C677 C 0.77648 0.18987 0.75209 0.0
C678 C 0.79507 0.17178 0.73317 0.0
C679 C 0.77352 0.24585 0.66542 0.0
C680 C 0.7832 0.25982 0.66181 0.0
C681 C 0.79628 0.26388 0.67253 0.0
C682 C 0.79983 0.25415 0.68635 0.0
C683 C 0.79018 0.24016 0.68965 0.0
C684 C 0.77718 0.23631 0.67935 0.0
C685 C 0.768 0.22122 0.68505 0.0
C686 C 0.77782 0.21652 0.70028 0.0
C687 C 0.79084 0.22762 0.70286 0.0
C688 C 0.75013 0.22639 0.68938 0.0
C689 C 0.7693 0.20796 0.67139 0.0
C690 C 0.83642 0.23003 0.74582 0.0
C691 C 0.84065 0.21982 0.75918 0.0
C692 C 0.83083 0.20588 0.76253 0.0
C693 C 0.81706 0.20217 0.75276 0.0
C694 C 0.81303 0.21245 0.73942 0.0
C695 C 0.82267 0.2261 0.73613 0.0
C696 C 0.8167 0.23549 0.72131 0.0
C697 C 0.80186 0.22526 0.71626 0.0
C698 C 0.79974 0.2118 0.72694 0.0
C699 C 0.81167 0.25302 0.72697 0.0
C700 C 0.83048 0.23508 0.70809 0.0
H701 H 0.74588 0.19341 0.69143 0.0
H702 H 0.76015 0.15836 0.7395 0.0
H703 H 0.79456 0.16543 0.72103 0.0
H704 H 0.80775 0.17663 0.73401 0.0
H705 H 0.79323 0.1623 0.74287 0.0
H706 H 0.76407 0.19571 0.75217 0.0
H707 H 0.77586 0.1787 0.75997 0.0
H708 H 0.78466 0.199 0.75796 0.0
H709 H 0.76344 0.24226 0.65746 0.0
H710 H 0.80373 0.27473 0.67035 0.0
H711 H 0.80996 0.25792 0.69394 0.0
H712 H 0.74973 0.23921 0.69423 0.0
H713 H 0.74202 0.22589 0.67836 0.0
H714 H 0.74468 0.21881 0.69929 0.0
H715 H 0.78181 0.20798 0.66579 0.0
H716 H 0.76752 0.19531 0.67604 0.0
H717 H 0.76026 0.21031 0.66138 0.0
H718 H 0.72901 0.16981 0.69781 0.0
C719 C 0.74935 0.18615 0.70191 0.0
C720 C 0.53856 0.58436 0.49928 0.0
C721 C 0.52538 0.5956 0.50039 0.0
C722 C 0.51345 0.59329 0.51283 0.0
C723 C 0.5279 0.56906 0.52272 0.0
C724 C 0.53955 0.57126 0.51049 0.0
C725 C 0.55276 0.55825 0.511 0.0
H726 H 0.58399 0.489 0.5457 0.0
C727 C 0.5326 0.55434 0.53241 0.0
C728 C 0.54717 0.54795 0.52558 0.0
H729 H 0.60358 0.51687 0.5048 0.0
H730 H 0.58124 0.53639 0.5071 0.0
H731 H 0.57668 0.51937 0.56777 0.0
H732 H 0.54466 0.4922 0.53543 0.0
H733 H 0.53432 0.49542 0.55425 0.0
H734 H 0.55326 0.48388 0.55405 0.0
H735 H 0.56747 0.50027 0.57398 0.0
H736 H 0.55712 0.51976 0.57696 0.0
C737 C 0.56949 0.56684 0.51433 0.0
C738 C 0.55204 0.54844 0.49464 0.0
C739 C 0.49763 0.5365 0.58136 0.0
C740 C 0.49932 0.52387 0.59317 0.0
C741 C 0.51285 0.513 0.59182 0.0
C742 C 0.52435 0.51461 0.57903 0.0
C743 C 0.52251 0.52732 0.56744 0.0
C744 C 0.50937 0.53806 0.56877 0.0
C745 C 0.50975 0.55121 0.55569 0.0
C746 C 0.52528 0.54657 0.5463 0.0
C747 C 0.53262 0.53248 0.55317 0.0
C748 C 0.51143 0.56816 0.56433 0.0
C749 C 0.49411 0.54935 0.54491 0.0
C750 C 0.58333 0.49923 0.53716 0.0
C751 C 0.59548 0.50137 0.52499 0.0
C752 C 0.5944 0.51502 0.51432 0.0
C753 C 0.58138 0.5263 0.51564 0.0
C754 C 0.56931 0.52401 0.52786 0.0
C755 C 0.57048 0.51072 0.53844 0.0
C756 C 0.55692 0.51064 0.55109 0.0
C757 C 0.54723 0.52587 0.54614 0.0
C758 C 0.5545 0.53361 0.53247 0.0
C759 C 0.56484 0.51249 0.5684 0.0
C760 C 0.54673 0.49468 0.54876 0.0
H761 H 0.50518 0.57911 0.53314 0.0
H762 H 0.54783 0.58562 0.48977 0.0
H763 H 0.53905 0.54662 0.49064 0.0
H764 H 0.55716 0.53589 0.49571 0.0
H765 H 0.55858 0.55508 0.48462 0.0
H766 H 0.56787 0.57776 0.52246 0.0
H767 H 0.57523 0.57117 0.50268 0.0
H768 H 0.57831 0.55888 0.52096 0.0
H769 H 0.48737 0.54501 0.58183 0.0
H770 H 0.51479 0.50338 0.60085 0.0
H771 H 0.53432 0.50595 0.57876 0.0
H772 H 0.51925 0.56718 0.57555 0.0
H773 H 0.49921 0.57295 0.5682 0.0
H774 H 0.51762 0.57748 0.55661 0.0
H775 H 0.49097 0.53612 0.54313 0.0
H776 H 0.49569 0.55431 0.53235 0.0
H777 H 0.48333 0.55542 0.55079 0.0
H778 H 0.50329 0.60185 0.51413 0.0
C779 C 0.51463 0.58012 0.52395 0.0
C780 C 0.53673 0.42016 0.00507 0.0
C781 C 0.5237 0.4088 0.00362 0.0
C782 C 0.51219 0.41086 0.99074 0.0
C783 C 0.52694 0.43495 0.98094 0.0
C784 C 0.53809 0.43306 0.99366 0.0
C785 C 0.55126 0.44612 0.99343 0.0
H786 H 0.58575 0.51253 0.95643 0.0
C787 C 0.53211 0.44934 0.97099 0.0
C788 C 0.54637 0.45593 0.97825 0.0
H789 H 0.601 0.48834 1.00137 0.0
H790 H 0.57854 0.46905 0.99886 0.0
H791 H 0.54656 0.5116 0.96459 0.0
H792 H 0.57813 0.47984 0.93614 0.0
H793 H 0.55931 0.48113 0.92555 0.0
H794 H 0.57146 0.49952 0.92859 0.0
H795 H 0.55558 0.51772 0.94534 0.0
H796 H 0.53629 0.50678 0.94613 0.0
C797 C 0.54971 0.45645 0.00942 0.0
C798 C 0.56814 0.43749 0.99119 0.0
C799 C 0.49926 0.46572 0.92013 0.0
C800 C 0.50172 0.47772 0.90787 0.0
C801 C 0.51557 0.48814 0.90893 0.0
C802 C 0.52672 0.48675 0.92205 0.0
C803 C 0.52411 0.47472 0.93423 0.0
C804 C 0.51064 0.46434 0.93306 0.0
C805 C 0.5103 0.45176 0.94668 0.0
C806 C 0.52558 0.45651 0.95641 0.0
C807 C 0.53354 0.47005 0.94912 0.0
C808 C 0.49435 0.45439 0.95681 0.0
C809 C 0.51192 0.43442 0.93882 0.0
C810 C 0.58431 0.503 0.96565 0.0
C811 C 0.59519 0.50197 0.97912 0.0
C812 C 0.59271 0.48952 0.99098 0.0
C813 C 0.57969 0.47827 0.98945 0.0
C814 C 0.56892 0.47945 0.97594 0.0
C815 C 0.57127 0.49172 0.96437 0.0
C816 C 0.55841 0.49129 0.95101 0.0
C817 C 0.54794 0.47676 0.9565 0.0
C818 C 0.55423 0.46982 0.97105 0.0
C819 C 0.54869 0.5077 0.95161 0.0
C820 C 0.56717 0.48789 0.93438 0.0
H821 H 0.50463 0.42464 0.96989 0.0
H822 H 0.54564 0.4191 0.01495 0.0
H823 H 0.56714 0.42715 0.98224 0.0
H824 H 0.5777 0.44569 0.98607 0.0
H825 H 0.57262 0.43232 0.00304 0.0
H826 H 0.53668 0.45711 0.01365 0.0
H827 H 0.55708 0.45099 0.01958 0.0
H828 H 0.55341 0.46944 0.00769 0.0
H829 H 0.48886 0.45738 0.91948 0.0
H830 H 0.51766 0.49751 0.89965 0.0
H831 H 0.53696 0.49511 0.92218 0.0
H832 H 0.49172 0.46776 0.95834 0.0
H833 H 0.48357 0.44872 0.95056 0.0
H834 H 0.49521 0.44947 0.96946 0.0
H835 H 0.51963 0.43483 0.92749 0.0
H836 H 0.51822 0.42549 0.94692 0.0
H837 H 0.49967 0.42943 0.9353 0.0
H838 H 0.50213 0.40223 0.98922 0.0
C839 C 0.51374 0.42384 0.97944 0.0
C840 C 0.75573 0.1703 0.2869 0.0
C841 C 0.75508 0.15956 0.27329 0.0
C842 C 0.74275 0.162 0.26128 0.0
C843 C 0.73201 0.18537 0.27653 0.0
C844 C 0.74417 0.18307 0.28823 0.0
C845 C 0.74323 0.19565 0.30184 0.0
H846 H 0.7068 0.26333 0.33457 0.0
C847 C 0.72189 0.19967 0.28162 0.0
C848 C 0.72845 0.20578 0.29643 0.0
H849 H 0.74816 0.23586 0.35377 0.0
H850 H 0.74637 0.21679 0.33099 0.0
H851 H 0.68543 0.2325 0.32643 0.0
H852 H 0.71724 0.26133 0.29535 0.0
H853 H 0.6986 0.25788 0.28478 0.0
H854 H 0.69835 0.26894 0.304 0.0
H855 H 0.67882 0.25172 0.31777 0.0
H856 H 0.67632 0.23249 0.30684 0.0
C857 C 0.73995 0.18646 0.31825 0.0
C858 C 0.75936 0.20585 0.30158 0.0
C859 C 0.67252 0.21705 0.24702 0.0
C860 C 0.66041 0.22935 0.24897 0.0
C861 C 0.66148 0.23995 0.26273 0.0
C862 C 0.67428 0.23839 0.27422 0.0
C863 C 0.68618 0.226 0.27213 0.0
C864 C 0.68514 0.21554 0.25874 0.0
C865 C 0.6986 0.20278 0.25879 0.0
C866 C 0.70783 0.20727 0.27445 0.0
C867 C 0.70056 0.22097 0.28214 0.0
C868 C 0.69045 0.18555 0.26001 0.0
C869 C 0.70933 0.20536 0.24321 0.0
C870 C 0.71554 0.25328 0.33374 0.0
C871 C 0.72771 0.25114 0.34589 0.0
C872 C 0.73865 0.23771 0.34459 0.0
C873 C 0.73762 0.2267 0.33131 0.0
C874 C 0.72544 0.22902 0.31922 0.0
C875 C 0.71456 0.24206 0.32064 0.0
C876 C 0.70198 0.24219 0.30702 0.0
C877 C 0.70735 0.22733 0.29697 0.0
C878 C 0.72115 0.21972 0.30412 0.0
C879 C 0.68469 0.23972 0.3148 0.0
C880 C 0.70397 0.25845 0.29725 0.0
H881 H 0.72216 0.17593 0.2533 0.0
H882 H 0.76515 0.1689 0.29625 0.0
H883 H 0.76347 0.20813 0.2887 0.0
H884 H 0.75794 0.21822 0.30704 0.0
H885 H 0.76946 0.19926 0.30805 0.0
H886 H 0.73198 0.17549 0.31623 0.0
H887 H 0.75163 0.1821 0.3239 0.0
H888 H 0.73318 0.19404 0.3273 0.0
H889 H 0.67227 0.20877 0.23657 0.0
H890 H 0.65222 0.24933 0.26483 0.0
H891 H 0.67433 0.24684 0.28439 0.0
H892 H 0.67942 0.18595 0.26814 0.0
H893 H 0.68639 0.18115 0.24771 0.0
H894 H 0.69857 0.17619 0.26561 0.0
H895 H 0.71041 0.21869 0.24017 0.0
H896 H 0.72216 0.20112 0.24483 0.0
H897 H 0.70386 0.19907 0.23236 0.0
H898 H 0.74184 0.15383 0.25078 0.0
C899 C 0.73125 0.17481 0.26282 0.0
C900 C 0.41719 0.00596 0.98106 0.0
C901 C 0.41272 0.99289 0.97058 0.0
C902 C 0.42234 0.98981 0.95644 0.0
C903 C 0.44036 0.01266 0.96328 0.0
C904 C 0.43094 0.01568 0.97715 0.0
C905 C 0.43709 0.03033 0.98672 0.0
H906 H 0.49071 0.09398 0.99375 0.0
C907 C 0.45363 0.02515 0.96263 0.0
C908 C 0.45174 0.03559 0.97631 0.0
H909 H 0.45076 0.08098 0.02649 0.0
H910 H 0.44429 0.0574 0.00957 0.0
H911 H 0.47132 0.08651 0.95961 0.0
H912 H 0.50413 0.05747 0.98946 0.0
H913 H 0.50875 0.05285 0.96886 0.0
H914 H 0.5115 0.07363 0.97631 0.0
H915 H 0.49295 0.09079 0.96136 0.0
H916 H 0.48515 0.07643 0.94633 0.0
C917 C 0.42331 0.04354 0.98684 0.0
C918 C 0.44244 0.02433 0.00403 0.0
C919 C 0.49554 0.02398 0.91594 0.0
C920 C 0.50916 0.03399 0.91201 0.0
C921 C 0.51292 0.04744 0.92237 0.0
C922 C 0.50332 0.05088 0.93631 0.0
C923 C 0.48976 0.04079 0.94005 0.0
C924 C 0.48608 0.02758 0.92995 0.0
C925 C 0.47119 0.01822 0.93586 0.0
C926 C 0.46666 0.02788 0.95124 0.0
C927 C 0.47757 0.04111 0.95361 0.0
C928 C 0.45766 0.01943 0.92243 0.0
C929 C 0.47664 1.00041 0.93999 0.0
C930 C 0.4805 0.08611 0.99718 0.0
C931 C 0.47119 0.08939 0.01144 0.0
C932 C 0.45819 0.07865 0.01565 0.0
C933 C 0.4544 0.06501 0.00574 0.0
C934 C 0.46371 0.06197 0.99146 0.0
C935 C 0.47661 0.07236 0.98747 0.0
C936 C 0.48544 0.06696 0.97209 0.0
C937 C 0.47555 0.0518 0.96734 0.0
C938 C 0.46278 0.04898 0.97869 0.0
C939 C 0.4838 0.08086 0.95911 0.0
C940 C 0.50344 0.06258 0.97676 0.0
H941 H 0.4429 0.99656 0.94183 0.0
H942 H 0.40996 0.00877 0.99192 0.0
H943 H 0.4479 0.01176 0.00339 0.0
H944 H 0.45219 0.03206 0.00954 0.0
H945 H 0.43177 0.02378 0.01259 0.0
H946 H 0.41669 0.04379 0.97484 0.0
H947 H 0.41408 0.04095 0.99661 0.0
H948 H 0.42804 0.05618 0.98848 0.0
H949 H 0.49217 0.01367 0.90818 0.0
H950 H 0.52345 0.05522 0.91981 0.0
H951 H 0.50687 0.06127 0.94366 0.0
H952 H 0.45827 0.03147 0.91589 0.0
H953 H 0.4591 0.00956 0.91305 0.0
H954 H 0.44506 0.01893 0.92754 0.0
H955 H 0.48899 1.00037 0.94594 0.0
H956 H 0.46842 0.99425 0.9489 0.0
H957 H 0.47746 0.99276 0.92867 0.0
H958 H 0.41928 0.97972 0.94826 0.0
C959 C 0.43611 0.99958 0.95276 0.0
Li960 Li 0.26696 0.88664 0.99987 0.0
Li961 Li 0.25382 0.86567 0.0165 0.0
Li962 Li 0.25021 0.86573 0.98676 0.0
Li963 Li 0.23721 0.88672 0.00346 0.0
C964 C 0.28346 0.85862 0.98864 0.0
N965 N 0.30864 0.85087 0.96706 0.0
C966 C 0.29374 0.84518 0.9918 0.0
C967 C 0.28601 0.86815 0.97453 0.0
C968 C 0.3064 0.84145 0.98074 0.0
C969 C 0.29879 0.86403 0.96377 0.0
C970 C 0.26504 0.89364 0.03315 0.0
C971 C 0.27297 0.91079 0.05608 0.0
N972 N 0.28658 0.90129 0.05839 0.0
C973 C 0.27909 0.88402 0.03577 0.0
C974 C 0.26193 0.90711 0.0434 0.0
C975 C 0.28983 0.8881 0.04858 0.0
C976 C 0.28394 0.91557 0.99059 0.0
N977 N 0.28599 0.90048 0.99754 0.0
C978 C 0.31496 0.90517 1.00033 0.0
C979 C 0.30111 0.89516 0.00242 0.0
C980 C 0.3133 0.92079 0.99301 0.0
C981 C 0.29747 0.92595 0.98815 0.0
H982 H 0.27178 0.91948 0.98679 0.0
H983 H 0.30247 0.88308 0.00786 0.0
C984 C 0.26324 0.83664 0.03306 0.0
N985 N 0.25617 0.85165 0.03535 0.0
C986 C 0.26575 0.82607 0.04643 0.0
C987 C 0.25335 0.84646 0.06423 0.0
C988 C 0.25122 0.8567 0.05055 0.0
C989 C 0.2608 0.83096 0.06228 0.0
H990 H 0.267 0.83291 0.02084 0.0
H991 H 0.24578 0.86876 0.05211 0.0
C992 C 0.23916 0.89383 0.97022 0.0
N993 N 0.21761 0.90177 0.94508 0.0
C994 C 0.22507 0.88429 0.96754 0.0
C995 C 0.24231 0.90737 0.96007 0.0
C996 C 0.21432 0.88851 0.95478 0.0
C997 C 0.23126 0.91119 0.94743 0.0
C998 C 0.22054 0.85871 0.01457 0.0
C999 C 0.21032 0.84523 0.01142 0.0
C1000 C 0.21792 0.86827 0.02866 0.0
C1001 C 0.19765 0.84149 0.02246 0.0
C1002 C 0.20513 0.86413 0.0394 0.0
N1003 N 0.19534 0.85093 0.03611 0.0
C1004 C 0.24116 0.83658 0.97024 0.0
C1005 C 0.25267 0.85683 0.95266 0.0
C1006 C 0.23896 0.82587 0.95694 0.0
N1007 N 0.24787 0.85173 0.96789 0.0
C1008 C 0.25081 0.84648 0.93903 0.0
C1009 C 0.24384 0.83074 0.94103 0.0
H1010 H 0.23744 0.83285 0.98248 0.0
H1011 H 0.25794 0.86896 0.95107 0.0
C1012 C 0.22057 0.91585 0.01261 0.0
N1013 N 0.21832 0.90073 0.00576 0.0
C1014 C 0.2072 0.92649 0.01477 0.0
C1015 C 0.18947 0.90591 0.00259 0.0
C1016 C 0.20315 0.89561 1.0008 0.0
C1017 C 0.19139 0.92158 0.0097 0.0
H1018 H 0.23277 0.91963 0.01639 0.0
H1019 H 0.20163 0.88348 0.99551 0.0
O1020 O 0.27104 0.86238 0.99942 0.0
O1021 O 0.25428 0.88992 0.02071 0.0
O1022 O 0.24991 0.88999 0.98263 0.0
O1023 O 0.23298 0.86248 0.00382 0.0
H1024 H 0.29198 0.83771 0.00271 0.0
H1025 H 0.27826 0.87865 0.9719 0.0
H1026 H 0.31444 0.83108 0.98303 0.0
H1027 H 0.3009 0.8713 0.9528 0.0
H1028 H 0.27071 0.9212 0.0641 0.0
H1029 H 0.28168 0.87349 0.02805 0.0
H1030 H 0.25107 0.91465 0.04158 0.0
H1031 H 0.30075 0.88076 0.05073 0.0
H1032 H 0.32683 0.90073 0.0045 0.0
H1033 H 0.29557 0.93775 0.98224 0.0
H1034 H 0.2714 0.81416 0.04437 0.0
H1035 H 0.24953 0.85078 0.07627 0.0
H1036 H 0.22244 0.87372 0.9752 0.0
H1037 H 0.25319 0.91486 0.96193 0.0
H1038 H 0.20337 0.88124 0.95259 0.0
H1039 H 0.23355 0.92165 0.93949 0.0
H1040 H 0.21213 0.83774 1.00053 0.0
H1041 H 0.22564 0.87879 0.03129 0.0
H1042 H 0.18965 0.83108 0.02017 0.0
H1043 H 0.20298 0.87141 0.05035 0.0
H1044 H 0.2333 0.81398 0.95909 0.0
H1045 H 0.25498 0.85071 0.92709 0.0
H1046 H 0.20924 0.93853 0.02015 0.0
H1047 H 0.17747 0.90157 0.99867 0.0
Li1048 Li 0.11604 0.50301 0.26733 0.0
Li1049 Li 0.13727 0.48595 0.25384 0.0
Li1050 Li 0.13738 0.51638 0.25019 0.0
Li1051 Li 0.11662 0.49937 0.23682 0.0
C1052 C 0.1449 0.51357 0.28353 0.0
N1053 N 0.15425 0.53443 0.30874 0.0
C1054 C 0.15884 0.51 0.29298 0.0
C1055 C 0.13571 0.52774 0.28689 0.0
C1056 C 0.16337 0.5207 0.30568 0.0
C1057 C 0.14064 0.53814 0.29969 0.0
C1058 C 0.10955 0.4665 0.25711 0.0
C1059 C 0.10588 0.43866 0.24736 0.0
N1060 N 0.10286 0.43364 0.26305 0.0
C1061 C 0.10617 0.4611 0.27311 0.0
C1062 C 0.1092 0.45523 0.24409 0.0
C1063 C 0.10291 0.44442 0.27588 0.0
C1064 C 0.08747 0.51263 0.28476 0.0
N1065 N 0.10239 0.50522 0.28641 0.0
C1066 C 0.098 0.50169 0.31534 0.0
C1067 C 0.10777 0.4997 0.30129 0.0
C1068 C 0.08262 0.50955 0.31407 0.0
C1069 C 0.07737 0.51501 0.2985 0.0
H1070 H 0.08343 0.51673 0.27275 0.0
H1071 H 0.11969 0.49382 0.30225 0.0
C1072 C 0.1636 0.46431 0.24579 0.0
N1073 N 0.15116 0.46701 0.2567 0.0
C1074 C 0.17403 0.45073 0.24762 0.0
C1075 C 0.15892 0.44306 0.27208 0.0
C1076 C 0.14887 0.45688 0.26985 0.0
C1077 C 0.1717 0.43983 0.26087 0.0
H1078 H 0.16557 0.47279 0.23573 0.0
H1079 H 0.13938 0.45963 0.27876 0.0
C1080 C 0.10844 0.53275 0.23955 0.0
N1081 N 0.09907 0.55812 0.21886 0.0
C1082 C 0.11807 0.53679 0.22588 0.0
C1083 C 0.09406 0.54168 0.24275 0.0
C1084 C 0.11313 0.54963 0.21555 0.0
C1085 C 0.08952 0.55444 0.23213 0.0
C1086 C 0.14402 0.49446 0.21759 0.0
C1087 C 0.15082 0.50576 0.2065 0.0
C1088 C 0.14034 0.47851 0.21227 0.0
C1089 C 0.15356 0.50097 0.1902 0.0
C1090 C 0.14326 0.47419 0.19587 0.0
N1091 N 0.14973 0.48542 0.18526 0.0
C1092 C 0.16646 0.53318 0.24126 0.0
C1093 C 0.14609 0.55037 0.25319 0.0
C1094 C 0.17685 0.54669 0.23881 0.0
N1095 N 0.15136 0.53526 0.24818 0.0
C1096 C 0.15614 0.5642 0.25113 0.0
C1097 C 0.17169 0.56248 0.24371 0.0
H1098 H 0.17038 0.52101 0.23749 0.0
H1099 H 0.13398 0.55173 0.25859 0.0
C1100 C 0.08902 0.4873 0.21942 0.0
N1101 N 0.10275 0.49675 0.21775 0.0
C1102 C 0.07858 0.4846 0.20598 0.0
C1103 C 0.0964 0.50167 0.18936 0.0
C1104 C 0.10648 0.50402 0.20311 0.0
C1105 C 0.08226 0.49177 0.19064 0.0
H1106 H 0.0862 0.48176 0.2312 0.0
H1107 H 0.11729 0.51166 0.202 0.0
O1108 O 0.14036 0.50322 0.27104 0.0
O1109 O 0.11277 0.48279 0.25418 0.0
O1110 O 0.11309 0.52025 0.24989 0.0
O1111 O 0.14106 0.49897 0.23357 0.0
H1112 H 0.16607 0.49907 0.29051 0.0
H1113 H 0.12488 0.5307 0.27971 0.0
H1114 H 0.17413 0.5181 0.31309 0.0
H1115 H 0.13365 0.54915 0.30242 0.0
H1116 H 0.10565 0.42981 0.2374 0.0
H1117 H 0.10623 0.46965 0.28331 0.0
H1118 H 0.11131 0.45924 0.23157 0.0
H1119 H 0.10042 0.44006 0.28822 0.0
H1120 H 0.10256 0.49741 0.32713 0.0
H1121 H 0.06551 0.52093 0.29694 0.0
H1122 H 0.18373 0.44872 0.23869 0.0
H1123 H 0.15692 0.43517 0.28266 0.0
H1124 H 0.12925 0.53008 0.22326 0.0
H1125 H 0.08649 0.53882 0.25333 0.0
H1126 H 0.12048 0.55285 0.2049 0.0
H1127 H 0.07842 0.56144 0.23445 0.0
H1128 H 0.15384 0.51814 0.21039 0.0
H1129 H 0.13537 0.46955 0.22075 0.0
H1130 H 0.15872 0.50962 0.18147 0.0
H1131 H 0.14041 0.46189 0.19159 0.0
H1132 H 0.18881 0.54481 0.23321 0.0
H1133 H 0.15164 0.57617 0.25494 0.0
H1134 H 0.0679 0.47676 0.20753 0.0
H1135 H 0.09959 0.50768 0.17788 0.0
Li1136 Li 0.73704 0.61546 0.99846 0.0
Li1137 Li 0.75024 0.63756 0.01548 0.0
Li1138 Li 0.75453 0.63612 0.98651 0.0
Li1139 Li 0.76783 0.61602 0.0032 0.0
C1140 C 0.72514 0.64924 0.98687 0.0
N1141 N 0.70981 0.66882 0.96358 0.0
C1142 C 0.72923 0.66593 0.9855 0.0
C1143 C 0.71327 0.64252 0.97634 0.0
C1144 C 0.72135 0.67561 0.97364 0.0
C1145 C 0.70563 0.65263 0.96468 0.0
C1146 C 0.73927 0.609 0.03227 0.0
C1147 C 0.73216 0.5917 0.05536 0.0
N1148 N 0.71814 0.6006 0.05761 0.0
C1149 C 0.72483 0.61802 0.03486 0.0
C1150 C 0.74302 0.59577 0.04263 0.0
C1151 C 0.71429 0.61356 0.04771 0.0
C1152 C 0.72095 0.58597 0.98944 0.0
N1153 N 0.71851 0.6011 0.99617 0.0
C1154 C 0.68976 0.59553 0.9995 0.0
C1155 C 0.70331 0.60601 1.00122 0.0
C1156 C 0.69182 0.57985 0.99242 0.0
C1157 C 0.70772 0.57513 0.98737 0.0
H1158 H 0.73319 0.58235 0.98558 0.0
H1159 H 0.70168 0.61812 0.00652 0.0
C1160 C 0.73941 0.66597 0.03289 0.0
N1161 N 0.74721 0.65126 0.03464 0.0
C1162 C 0.73723 0.67638 0.04643 0.0
C1163 C 0.75086 0.65619 0.06351 0.0
C1164 C 0.75273 0.64616 0.04963 0.0
C1165 C 0.7431 0.67161 0.06201 0.0
H1166 H 0.73479 0.66964 0.021 0.0
H1167 H 0.75862 0.63429 0.05086 0.0
C1168 C 0.76013 0.60985 0.96692 0.0
N1169 N 0.76986 0.60619 0.93452 0.0
C1170 C 0.77604 0.61433 0.96211 0.0
C1171 C 0.74918 0.60341 0.95529 0.0
C1172 C 0.78072 0.61242 0.94566 0.0
C1173 C 0.75434 0.60167 0.93895 0.0
C1174 C 0.78354 0.64382 0.015 0.0
C1175 C 0.79367 0.65763 0.0131 0.0
C1176 C 0.7857 0.63358 0.02868 0.0
C1177 C 0.80577 0.66093 0.02488 0.0
C1178 C 0.79794 0.63729 0.04019 0.0
N1179 N 0.80764 0.65078 0.03807 0.0
C1180 C 0.76834 0.66204 0.96767 0.0
C1181 C 0.74856 0.64639 0.953 0.0
C1182 C 0.77049 0.67251 0.95418 0.0
N1183 N 0.75749 0.64931 0.9669 0.0
C1184 C 0.75041 0.65648 0.93917 0.0
C1185 C 0.76142 0.66982 0.93968 0.0
H1186 H 0.77518 0.6642 0.97887 0.0
H1187 H 0.73975 0.63643 0.95274 0.0
C1188 C 0.78458 0.58721 0.01337 0.0
N1189 N 0.78667 0.6021 0.00599 0.0
C1190 C 0.79808 0.57684 0.016 0.0
C1191 C 0.81559 0.59716 0.00308 0.0
C1192 C 0.80178 0.60719 1.00081 0.0
C1193 C 0.81385 0.58178 0.01084 0.0
H1194 H 0.77241 0.58342 0.01723 0.0
H1195 H 0.80313 0.61913 0.99506 0.0
O1196 O 0.73287 0.63947 0.99825 0.0
O1197 O 0.74984 0.61318 0.01981 0.0
O1198 O 0.75525 0.61181 0.98292 0.0
O1199 O 0.77163 0.64049 0.00349 0.0
H1200 H 0.73873 0.67126 0.99315 0.0
H1201 H 0.71013 0.62961 0.97698 0.0
H1202 H 0.72452 0.68849 0.97235 0.0
H1203 H 0.69647 0.64757 0.95644 0.0
H1204 H 0.73489 0.58148 0.06346 0.0
H1205 H 0.7218 0.6284 0.02709 0.0
H1206 H 0.75421 0.58874 0.0409 0.0
H1207 H 0.70306 0.62043 0.04984 0.0
H1208 H 0.67782 0.59964 0.00381 0.0
H1209 H 0.70992 0.56328 0.98165 0.0
H1210 H 0.73086 0.68798 0.04473 0.0
H1211 H 0.75567 0.65201 0.07523 0.0
H1212 H 0.78459 0.61948 0.97094 0.0
H1213 H 0.73679 0.59997 0.9588 0.0
H1214 H 0.79296 0.61594 0.94174 0.0
H1215 H 0.74598 0.59678 0.9298 0.0
H1216 H 0.79221 0.66574 0.00263 0.0
H1217 H 0.77803 0.62286 0.03048 0.0
H1218 H 0.81368 0.67158 0.02354 0.0
H1219 H 0.79972 0.62945 0.05082 0.0
H1220 H 0.77921 0.68257 0.95506 0.0
H1221 H 0.74299 0.6541 0.92833 0.0
H1222 H 0.79617 0.565 0.02187 0.0
H1223 H 0.82755 0.60151 0.99907 0.0
Li1224 Li 0.86746 0.01676 0.25392 0.0
Li1225 Li 0.88837 0.99913 0.26723 0.0
Li1226 Li 0.88815 0.00374 0.23626 0.0
Li1227 Li 0.86748 0.98577 0.24951 0.0
C1228 C 0.8944 0.03628 0.25702 0.0
N1229 N 0.89909 0.06959 0.26229 0.0
C1230 C 0.8993 0.04199 0.27251 0.0
C1231 C 0.89214 0.04749 0.24415 0.0
C1232 C 0.90155 0.05888 0.27494 0.0
C1233 C 0.89449 0.06428 0.24707 0.0
C1234 C 0.86008 0.9948 0.28607 0.0
C1235 C 0.85768 0.97488 0.30799 0.0
N1236 N 0.85235 0.98697 0.3183 0.0
C1237 C 0.85437 0.00698 0.29681 0.0
C1238 C 0.86157 0.97858 0.29164 0.0
C1239 C 0.85061 0.0028 0.31308 0.0
C1240 C 0.84126 0.03827 0.24566 0.0
N1241 N 0.85361 0.03574 0.2567 0.0
C1242 C 0.84576 0.05993 0.27165 0.0
C1243 C 0.85593 0.04618 0.26961 0.0
C1244 C 0.83294 0.06289 0.2604 0.0
C1245 C 0.83076 0.05182 0.24726 0.0
H1246 H 0.83949 0.0297 0.23563 0.0
H1247 H 0.86556 0.04374 0.27846 0.0
C1248 C 0.91606 0.98694 0.28452 0.0
N1249 N 0.90223 0.99626 0.28618 0.0
C1250 C 0.9266 0.9845 0.29792 0.0
C1251 C 0.90867 0.00153 0.31447 0.0
C1252 C 0.89849 0.00365 0.30074 0.0
C1253 C 0.92296 0.99182 0.31319 0.0
H1254 H 0.91896 0.98143 0.27275 0.0
H1255 H 0.88774 0.01143 0.30167 0.0
C1256 C 0.86096 0.0061 0.21687 0.0
N1257 N 0.85576 0.01051 0.18351 0.0
C1258 C 0.85568 0.99292 0.20711 0.0
C1259 C 0.86334 0.02157 0.2097 0.0
C1260 C 0.85318 0.99539 0.19026 0.0
C1261 C 0.86072 0.02354 0.19281 0.0
C1262 C 0.89597 0.96676 0.24797 0.0
C1263 C 0.90152 0.96009 0.2331 0.0
C1264 C 0.89482 0.9567 0.2619 0.0
C1265 C 0.9055 0.94336 0.23232 0.0
C1266 C 0.89892 0.94003 0.26062 0.0
N1267 N 0.9041 0.93375 0.24597 0.0
C1268 C 0.91439 0.01765 0.21796 0.0
C1269 C 0.89929 0.99736 0.20344 0.0
C1270 C 0.92484 0.01994 0.20447 0.0
N1271 N 0.90186 0.00655 0.2172 0.0
C1272 C 0.90938 0.99931 0.18962 0.0
C1273 C 0.92242 0.01071 0.19 0.0
H1274 H 0.91641 0.02459 0.22914 0.0
H1275 H 0.88947 0.98837 0.2032 0.0
C1276 C 0.84011 0.96533 0.25643 0.0
N1277 N 0.85381 0.96665 0.24688 0.0
C1278 C 0.82972 0.95168 0.25494 0.0
C1279 C 0.84752 0.94109 0.23357 0.0
C1280 C 0.85756 0.95496 0.23548 0.0
C1281 C 0.83336 0.9393 0.24339 0.0
H1282 H 0.83719 0.97492 0.2652 0.0
H1283 H 0.86819 0.9565 0.22764 0.0
O1284 O 0.89198 0.0198 0.25445 0.0
O1285 O 0.86391 0.9987 0.27012 0.0
O1286 O 0.86361 0.00388 0.23337 0.0
O1287 O 0.89195 0.98311 0.24894 0.0
H1288 H 0.90125 0.03349 0.28256 0.0
H1289 H 0.88864 0.04327 0.23202 0.0
H1290 H 0.90523 0.06347 0.2869 0.0
H1291 H 0.89269 0.0731 0.23724 0.0
H1292 H 0.85884 0.96238 0.31247 0.0
H1293 H 0.85296 0.01956 0.29268 0.0
H1294 H 0.86554 0.96892 0.2834 0.0
H1295 H 0.8463 0.01214 0.32156 0.0
H1296 H 0.84773 0.06798 0.28211 0.0
H1297 H 0.82111 0.05368 0.23824 0.0
H1298 H 0.93741 0.97684 0.29636 0.0
H1299 H 0.90555 0.0077 0.32588 0.0
H1300 H 0.85362 0.98091 0.21246 0.0
H1301 H 0.86713 0.03195 0.21711 0.0
H1302 H 0.84921 0.98527 0.18255 0.0
H1303 H 0.8626 0.03543 0.18709 0.0
H1304 H 0.90266 0.96772 0.22225 0.0
H1305 H 0.89098 0.96173 0.2736 0.0
H1306 H 0.90969 0.93802 0.22085 0.0
H1307 H 0.89803 0.9321 0.2713 0.0
H1308 H 0.93491 0.02863 0.20549 0.0
H1309 H 0.90691 0.99202 0.17873 0.0
H1310 H 0.81901 0.95078 0.26285 0.0
H1311 H 0.85064 0.93205 0.22427 0.0
Li1312 Li 0.2497 0.13702 0.51762 0.0
Li1313 Li 0.23639 0.11603 0.50085 0.0
Li1314 Li 0.26687 0.11554 0.5046 0.0
Li1315 Li 0.25344 0.13661 0.48723 0.0
C1316 C 0.23894 0.10846 0.53433 0.0
N1317 N 0.21799 0.0997 0.55972 0.0
C1318 C 0.22515 0.11812 0.53793 0.0
C1319 C 0.24212 0.09437 0.54371 0.0
C1320 C 0.2147 0.11348 0.55078 0.0
C1321 C 0.23137 0.09014 0.55648 0.0
C1322 C 0.2173 0.14351 0.4951 0.0
C1323 C 0.19626 0.14285 0.47413 0.0
N1324 N 0.18536 0.14955 0.48496 0.0
C1325 C 0.20594 0.15054 0.50598 0.0
C1326 C 0.21247 0.13975 0.47902 0.0
C1327 C 0.18984 0.15344 0.50064 0.0
C1328 C 0.24079 0.16637 0.53394 0.0
N1329 N 0.24765 0.15129 0.53628 0.0
C1330 C 0.25107 0.15677 0.56504 0.0
C1331 C 0.25279 0.14634 0.55144 0.0
C1332 C 0.24387 0.17242 0.56307 0.0
C1333 C 0.2387 0.17714 0.54721 0.0
H1334 H 0.23682 0.16999 0.52174 0.0
H1335 H 0.2582 0.13427 0.553 0.0
C1336 C 0.21944 0.08786 0.48963 0.0
N1337 N 0.21742 0.10202 0.49836 0.0
C1338 C 0.20621 0.0771 0.48726 0.0
C1339 C 0.18904 0.09551 0.50312 0.0
C1340 C 0.2026 0.10592 0.50516 0.0
C1341 C 0.19071 0.08087 0.49403 0.0
H1342 H 0.23137 0.08492 0.48448 0.0
H1343 H 0.20124 0.11707 0.51226 0.0
C1344 C 0.28304 0.14456 0.51484 0.0
N1345 N 0.30813 0.15426 0.53568 0.0
C1346 C 0.29238 0.15855 0.51119 0.0
C1347 C 0.28645 0.1355 0.52908 0.0
C1348 C 0.30502 0.16326 0.52188 0.0
C1349 C 0.29919 0.14061 0.53946 0.0
C1350 C 0.25664 0.10828 0.4682 0.0
C1351 C 0.27261 0.10474 0.46282 0.0
C1352 C 0.24353 0.10742 0.45705 0.0
C1353 C 0.27527 0.10081 0.44628 0.0
C1354 C 0.2467 0.10345 0.44061 0.0
N1355 N 0.26237 0.10027 0.4356 0.0
C1356 C 0.28406 0.08692 0.51444 0.0
C1357 C 0.30082 0.10705 0.50155 0.0
C1358 C 0.2977 0.0767 0.51688 0.0
N1359 N 0.28587 0.10181 0.507 0.0
C1360 C 0.31479 0.09717 0.50363 0.0
C1361 C 0.31335 0.0818 0.51148 0.0
H1362 H 0.272 0.08301 0.5185 0.0
H1363 H 0.30191 0.11895 0.49564 0.0
C1364 C 0.24575 0.16324 0.46594 0.0
N1365 N 0.25626 0.15038 0.4682 0.0
C1366 C 0.24751 0.17368 0.45237 0.0
C1367 C 0.27115 0.15775 0.44381 0.0
C1368 C 0.26898 0.14768 0.45762 0.0
C1369 C 0.26031 0.17097 0.44104 0.0
H1370 H 0.23604 0.16552 0.47476 0.0
H1371 H 0.27762 0.13785 0.46002 0.0
O1372 O 0.24938 0.11279 0.52182 0.0
O1373 O 0.23309 0.14042 0.50016 0.0
O1374 O 0.27059 0.13986 0.5045 0.0
O1375 O 0.2538 0.11209 0.48437 0.0
H1376 H 0.22254 0.12908 0.53087 0.0
H1377 H 0.25278 0.08679 0.54118 0.0
H1378 H 0.20397 0.12085 0.55366 0.0
H1379 H 0.23368 0.07926 0.56382 0.0
H1380 H 0.19235 0.13995 0.46173 0.0
H1381 H 0.20947 0.15362 0.51846 0.0
H1382 H 0.22118 0.13462 0.47038 0.0
H1383 H 0.18089 0.15878 0.50895 0.0
H1384 H 0.25549 0.15265 0.57693 0.0
H1385 H 0.23287 0.18895 0.54508 0.0
H1386 H 0.20806 0.06603 0.48004 0.0
H1387 H 0.17743 0.0988 0.50882 0.0
H1388 H 0.28987 0.16569 0.5002 0.0
H1389 H 0.27933 0.12465 0.53211 0.0
H1390 H 0.31236 0.17406 0.51921 0.0
H1391 H 0.30195 0.13372 0.55053 0.0
H1392 H 0.28287 0.10518 0.4713 0.0
H1393 H 0.23103 0.10964 0.46107 0.0
H1394 H 0.2876 0.09819 0.44193 0.0
H1395 H 0.23668 0.10281 0.43184 0.0
H1396 H 0.296 0.06486 0.52279 0.0
H1397 H 0.32663 0.10164 0.4994 0.0
H1398 H 0.23887 0.18372 0.45072 0.0
H1399 H 0.2814 0.15543 0.43559 0.0
Li1400 Li 0.3879 0.49885 0.7669 0.0
Li1401 Li 0.36692 0.51628 0.75363 0.0
Li1402 Li 0.36735 0.48621 0.74962 0.0
Li1403 Li 0.38849 0.50397 0.73697 0.0
C1404 C 0.34986 0.49129 0.77604 0.0
N1405 N 0.32134 0.47537 0.7857 0.0
C1406 C 0.33451 0.49867 0.77345 0.0
C1407 C 0.35069 0.47582 0.78358 0.0
C1408 C 0.32024 0.49043 0.77843 0.0
C1409 C 0.33614 0.46796 0.78834 0.0
C1410 C 0.39202 0.53627 0.75884 0.0
C1411 C 0.39 0.56485 0.75097 0.0
N1412 N 0.39248 0.56934 0.76692 0.0
C1413 C 0.39458 0.54116 0.77516 0.0
C1414 C 0.38976 0.5482 0.74663 0.0
C1415 C 0.39477 0.55794 0.77899 0.0
C1416 C 0.41697 0.50342 0.7855 0.0
N1417 N 0.40178 0.49636 0.78587 0.0
C1418 C 0.40718 0.48498 0.81252 0.0
C1419 C 0.3967 0.48736 0.79906 0.0
C1420 C 0.42291 0.49219 0.8125 0.0
C1421 C 0.42774 0.5016 0.79881 0.0
H1422 H 0.42074 0.51041 0.7748 0.0
H1423 H 0.38458 0.48189 0.79908 0.0
C1424 C 0.3435 0.54035 0.74361 0.0
N1425 N 0.35305 0.53522 0.75636 0.0
C1426 C 0.33326 0.55408 0.74537 0.0
C1427 C 0.34275 0.55695 0.77342 0.0
C1428 C 0.35268 0.54306 0.77116 0.0
C1429 C 0.33282 0.56267 0.76042 0.0
H1430 H 0.34366 0.53367 0.73211 0.0
H1431 H 0.36013 0.53852 0.78123 0.0
C1432 C 0.40533 0.47513 0.75434 0.0
N1433 N 0.43373 0.46127 0.76704 0.0
C1434 C 0.42076 0.48014 0.74855 0.0
C1435 C 0.40435 0.46304 0.76657 0.0
C1436 C 0.43497 0.47297 0.75512 0.0
C1437 C 0.41885 0.4562 0.77285 0.0
C1438 C 0.36313 0.5049 0.71627 0.0
C1439 C 0.35943 0.49089 0.70696 0.0
C1440 C 0.36619 0.51985 0.70829 0.0
C1441 C 0.35892 0.49207 0.68979 0.0
C1442 C 0.3656 0.52052 0.6911 0.0
N1443 N 0.36201 0.50673 0.68229 0.0
C1444 C 0.3378 0.47002 0.74088 0.0
C1445 C 0.35895 0.45199 0.74977 0.0
C1446 C 0.32699 0.45679 0.73877 0.0
N1447 N 0.35342 0.46741 0.74632 0.0
C1448 C 0.34849 0.43841 0.74804 0.0
C1449 C 0.33223 0.44067 0.74246 0.0
H1450 H 0.33373 0.48242 0.7382 0.0
H1451 H 0.3714 0.45023 0.75407 0.0
C1452 C 0.41308 0.51988 0.7177 0.0
N1453 N 0.40248 0.5069 0.71814 0.0
C1454 C 0.42343 0.5222 0.70413 0.0
C1455 C 0.41179 0.49778 0.6917 0.0
C1456 C 0.40189 0.49576 0.70564 0.0
C1457 C 0.42275 0.51113 0.69085 0.0
H1458 H 0.41359 0.52836 0.72795 0.0
H1459 H 0.39374 0.48527 0.70651 0.0
O1460 O 0.36395 0.49896 0.77085 0.0
O1461 O 0.39153 0.5199 0.75487 0.0
O1462 O 0.3913 0.48237 0.74842 0.0
O1463 O 0.36388 0.50395 0.73308 0.0
H1464 H 0.33358 0.51055 0.76752 0.0
H1465 H 0.36241 0.46974 0.78536 0.0
H1466 H 0.30828 0.49597 0.77645 0.0
H1467 H 0.3366 0.45592 0.79404 0.0
H1468 H 0.38818 0.57421 0.74166 0.0
H1469 H 0.39617 0.5321 0.7848 0.0
H1470 H 0.38771 0.54464 0.73396 0.0
H1471 H 0.39666 0.56189 0.79158 0.0
H1472 H 0.40299 0.47773 0.82291 0.0
H1473 H 0.43982 0.50724 0.7983 0.0
H1474 H 0.32556 0.55773 0.73511 0.0
H1475 H 0.34297 0.56319 0.78521 0.0
H1476 H 0.42179 0.48957 0.7392 0.0
H1477 H 0.39255 0.45926 0.77147 0.0
H1478 H 0.44699 0.47677 0.75079 0.0
H1479 H 0.41827 0.44695 0.78243 0.0
H1480 H 0.35718 0.47917 0.71289 0.0
H1481 H 0.36915 0.53079 0.71529 0.0
H1482 H 0.35614 0.48131 0.68243 0.0
H1483 H 0.36804 0.53199 0.68477 0.0
H1484 H 0.3147 0.45919 0.73417 0.0
H1485 H 0.35307 0.42632 0.7513 0.0
H1486 H 0.43176 0.53263 0.70394 0.0
H1487 H 0.41112 0.48884 0.68182 0.0
Li1488 Li 0.76523 0.3867 0.49785 0.0
Li1489 Li 0.75355 0.36612 0.51603 0.0
Li1490 Li 0.74759 0.36542 0.48671 0.0
Li1491 Li 0.73589 0.38683 0.50383 0.0
C1492 C 0.78456 0.35896 0.50398 0.0
N1493 N 0.81531 0.35183 0.51678 0.0
C1494 C 0.79133 0.36888 0.51634 0.0
C1495 C 0.79347 0.34546 0.4981 0.0
C1496 C 0.80687 0.36506 0.52265 0.0
C1497 C 0.80899 0.34204 0.50473 0.0
C1498 C 0.74823 0.39465 0.53461 0.0
C1499 C 0.72971 0.38971 0.55733 0.0
N1500 N 0.73576 0.40326 0.56511 0.0
C1501 C 0.75429 0.4085 0.54284 0.0
C1502 C 0.73586 0.38515 0.54192 0.0
C1503 C 0.74782 0.41266 0.55824 0.0
C1504 C 0.78406 0.41581 0.50071 0.0
N1505 N 0.78393 0.40056 0.4938 0.0
C1506 C 0.81052 0.40518 0.48194 0.0
C1507 C 0.79679 0.39512 0.48454 0.0
C1508 C 0.81112 0.42098 0.48904 0.0
C1509 C 0.7976 0.42625 0.49853 0.0
H1510 H 0.77368 0.41982 0.50803 0.0
H1511 H 0.79646 0.38292 0.47922 0.0
C1512 C 0.75021 0.33739 0.53529 0.0
N1513 N 0.75734 0.35254 0.53498 0.0
C1514 C 0.75237 0.32702 0.54887 0.0
C1515 C 0.76937 0.34794 0.56149 0.0
C1516 C 0.76676 0.35796 0.54773 0.0
C1517 C 0.76209 0.33222 0.56224 0.0
H1518 H 0.74277 0.3334 0.52498 0.0
H1519 H 0.77226 0.37007 0.54725 0.0
C1520 C 0.75292 0.39279 0.46668 0.0
N1521 N 0.76542 0.39949 0.43572 0.0
C1522 C 0.74666 0.40593 0.45747 0.0
C1523 C 0.7655 0.38303 0.4601 0.0
C1524 C 0.75315 0.40913 0.44185 0.0
C1525 C 0.77167 0.38663 0.44445 0.0
C1526 C 0.7166 0.35867 0.49925 0.0
C1527 C 0.7095 0.36807 0.48668 0.0
C1528 C 0.70802 0.34519 0.50566 0.0
C1529 C 0.69396 0.36376 0.48067 0.0
C1530 C 0.6925 0.34128 0.49932 0.0
N1531 N 0.68585 0.35057 0.48706 0.0
C1532 C 0.75201 0.33631 0.46828 0.0
C1533 C 0.73389 0.35545 0.45569 0.0
C1534 C 0.75024 0.32548 0.45502 0.0
N1535 N 0.74394 0.35099 0.46836 0.0
C1536 C 0.73157 0.34487 0.4423 0.0
C1537 C 0.73988 0.32971 0.44182 0.0
H1538 H 0.75987 0.33306 0.47853 0.0
H1539 H 0.7278 0.36729 0.45589 0.0
C1540 C 0.71701 0.41558 0.49914 0.0
N1541 N 0.71726 0.40094 0.50726 0.0
C1542 C 0.70366 0.42631 0.50095 0.0
C1543 C 0.69118 0.40684 0.5197 0.0
C1544 C 0.70466 0.39638 0.51735 0.0
C1545 C 0.69055 0.422 0.51139 0.0
H1546 H 0.72721 0.41892 0.49125 0.0
H1547 H 0.70502 0.38458 0.52351 0.0
O1548 O 0.76936 0.36243 0.49753 0.0
O1549 O 0.75449 0.39047 0.51952 0.0
O1550 O 0.74661 0.38954 0.48198 0.0
O1551 O 0.73179 0.36262 0.5054 0.0
H1552 H 0.78471 0.37945 0.52099 0.0
H1553 H 0.78847 0.3377 0.48848 0.0
H1554 H 0.81224 0.37263 0.53222 0.0
H1555 H 0.81601 0.33162 0.5003 0.0
H1556 H 0.72013 0.38247 0.56311 0.0
H1557 H 0.76391 0.41596 0.53739 0.0
H1558 H 0.73104 0.37435 0.5358 0.0
H1559 H 0.75239 0.42336 0.56474 0.0
H1560 H 0.82049 0.40065 0.47432 0.0
H1561 H 0.79756 0.4382 0.50444 0.0
H1562 H 0.74631 0.31514 0.54895 0.0
H1563 H 0.77716 0.35243 0.57134 0.0
H1564 H 0.73687 0.41356 0.46233 0.0
H1565 H 0.77045 0.37276 0.46696 0.0
H1566 H 0.74843 0.41926 0.4346 0.0
H1567 H 0.78141 0.37918 0.43923 0.0
H1568 H 0.71589 0.37858 0.48159 0.0
H1569 H 0.7133 0.33783 0.51545 0.0
H1570 H 0.68835 0.37092 0.47093 0.0
H1571 H 0.68574 0.33087 0.50416 0.0
H1572 H 0.75677 0.31384 0.45515 0.0
H1573 H 0.7236 0.34864 0.43227 0.0
H1574 H 0.70369 0.43796 0.49443 0.0
H1575 H 0.68123 0.40301 0.52773 0.0
Li1576 Li 0.63726 0.9856 0.75406 0.0
Li1577 Li 0.61644 0.00357 0.76714 0.0
Li1578 Li 0.6163 0.99838 0.73624 0.0
Li1579 Li 0.63703 0.01651 0.74905 0.0
C1580 C 0.60947 0.96633 0.75742 0.0
N1581 N 0.60291 0.93335 0.76281 0.0
C1582 C 0.60452 0.96091 0.773 0.0
C1583 C 0.6108 0.95501 0.74451 0.0
C1584 C 0.60133 0.94418 0.77549 0.0
C1585 C 0.60751 0.93838 0.7475 0.0
C1586 C 0.64437 0.007 0.7861 0.0
C1587 C 0.64567 0.02549 0.80933 0.0
N1588 N 0.65114 0.0129 0.81895 0.0
C1589 C 0.65018 0.99429 0.79617 0.0
C1590 C 0.64226 0.02277 0.79269 0.0
C1591 C 0.65346 0.9975 0.81276 0.0
C1592 C 0.66431 0.96487 0.74668 0.0
N1593 N 0.65117 0.96665 0.75693 0.0
C1594 C 0.65832 0.94177 0.77107 0.0
C1595 C 0.64814 0.95552 0.76908 0.0
C1596 C 0.67189 0.93951 0.76056 0.0
C1597 C 0.67483 0.95133 0.74824 0.0
H1598 H 0.66667 0.97401 0.73729 0.0
H1599 H 0.63796 0.95742 0.77743 0.0
C1600 C 0.58924 0.01668 0.78453 0.0
N1601 N 0.60269 0.00681 0.78614 0.0
C1602 C 0.57881 0.01947 0.79795 0.0
C1603 C 0.59607 0.0017 0.81443 0.0
C1604 C 0.60614 0.99922 0.80068 0.0
C1605 C 0.58218 0.01197 0.81319 0.0
H1606 H 0.58659 0.02238 0.7728 0.0
H1607 H 0.61659 0.99105 0.80159 0.0
C1608 C 0.64378 0.99416 0.7171 0.0
N1609 N 0.64968 0.98619 0.68452 0.0
C1610 C 0.64925 0.00622 0.70608 0.0
C1611 C 0.6416 0.978 0.7116 0.0
C1612 C 0.65209 0.00196 0.68965 0.0
C1613 C 0.64456 0.97422 0.69507 0.0
C1614 C 0.60951 0.03573 0.74679 0.0
C1615 C 0.6046 0.04199 0.73152 0.0
C1616 C 0.61112 0.04637 0.76023 0.0
C1617 C 0.60172 0.05888 0.72987 0.0
C1618 C 0.60813 0.06318 0.75808 0.0
N1619 N 0.60355 0.06904 0.74307 0.0
C1620 C 0.58969 0.9845 0.71838 0.0
C1621 C 0.60561 0.0036 0.70312 0.0
C1622 C 0.57944 0.98176 0.70481 0.0
N1623 N 0.60256 0.99516 0.71727 0.0
C1624 C 0.5957 1.00123 0.68924 0.0
C1625 C 0.58241 0.99014 0.68994 0.0
H1626 H 0.58729 0.97819 0.72985 0.0
H1627 H 0.61569 0.01227 0.70261 0.0
C1628 C 0.663 0.03881 0.75643 0.0
N1629 N 0.65053 0.03563 0.7457 0.0
C1630 C 0.67314 0.05256 0.75419 0.0
C1631 C 0.6576 0.05941 0.72975 0.0
C1632 C 0.64775 0.04556 0.73249 0.0
C1633 C 0.67053 0.06307 0.74068 0.0
H1634 H 0.66523 0.03056 0.76663 0.0
H1635 H 0.63796 0.04265 0.72396 0.0
O1636 O 0.61275 0.98266 0.75479 0.0
O1637 O 0.64098 0.00404 0.76985 0.0
O1638 O 0.64075 0.99814 0.7332 0.0
O1639 O 0.61253 0.01924 0.74861 0.0
H1640 H 0.60324 0.9695 0.78308 0.0
H1641 H 0.61421 0.95902 0.7323 0.0
H1642 H 0.59761 0.93981 0.78752 0.0
H1643 H 0.60857 0.92948 0.73763 0.0
H1644 H 0.64402 0.03762 0.8146 0.0
H1645 H 0.65206 0.98206 0.79126 0.0
H1646 H 0.63813 0.03282 0.78501 0.0
H1647 H 0.65786 0.98776 0.82071 0.0
H1648 H 0.65576 0.93316 0.78094 0.0
H1649 H 0.68508 0.95005 0.73979 0.0
H1650 H 0.56831 0.02757 0.79644 0.0
H1651 H 0.59897 0.99542 0.82584 0.0
H1652 H 0.65121 0.01874 0.71014 0.0
H1653 H 0.63775 0.96845 0.72002 0.0
H1654 H 0.65621 0.0112 0.68097 0.0
H1655 H 0.64285 0.96177 0.69065 0.0
H1656 H 0.60313 0.03392 0.72103 0.0
H1657 H 0.61453 0.04169 0.7722 0.0
H1658 H 0.59803 0.06391 0.71809 0.0
H1659 H 0.60939 0.07156 0.76837 0.0
H1660 H 0.56917 0.97334 0.70604 0.0
H1661 H 0.59855 0.00788 0.67803 0.0
H1662 H 0.68313 0.05474 0.76277 0.0
H1663 H 0.65506 0.06722 0.71924 0.0
Li1664 Li 0.01651 0.25275 0.86562 0.0
Li1665 Li 0.99969 0.26677 0.88672 0.0
Li1666 Li 0.00306 0.23572 0.88606 0.0
Li1667 Li 0.98625 0.24954 0.86535 0.0
C1668 C 0.03627 0.2564 0.89166 0.0
N1669 N 0.06955 0.26304 0.89439 0.0
C1670 C 0.04168 0.27251 0.89446 0.0
C1671 C 0.04776 0.24364 0.8905 0.0
C1672 C 0.05856 0.27562 0.89574 0.0
C1673 C 0.06454 0.24725 0.89185 0.0
C1674 C 0.98939 0.28283 0.85769 0.0
C1675 C 0.9652 0.29958 0.86186 0.0
N1676 N 0.96886 0.30817 0.84795 0.0
C1677 C 0.99292 0.29182 0.84344 0.0
C1678 C 0.97542 0.28673 0.86699 0.0
C1679 C 0.98239 0.30459 0.83872 0.0
C1680 C 0.04024 0.24335 0.84153 0.0
N1681 N 0.03556 0.25562 0.85193 0.0
C1682 C 0.05775 0.27263 0.84256 0.0
C1683 C 0.04385 0.27016 0.85244 0.0
C1684 C 0.06302 0.26011 0.8318 0.0
C1685 C 0.05399 0.24533 0.83135 0.0
H1686 H 0.03318 0.23211 0.84093 0.0
H1687 H 0.03964 0.2799 0.8605 0.0
C1688 C 0.9908 0.2838 0.91576 0.0
N1689 N 0.99762 0.28571 0.90059 0.0
C1690 C 0.98847 0.29743 0.92603 0.0
C1691 C 1.00077 0.31467 0.9051 0.0
C1692 C 0.0027 0.30073 0.89516 0.0
C1693 C 0.99343 0.31314 0.9207 0.0
H1694 H 0.98712 0.27167 0.91986 0.0
H1695 H 0.00818 0.30189 0.88307 0.0
C1696 C 0.00571 0.21592 0.85978 0.0
N1697 N 0.01029 0.18233 0.85639 0.0
C1698 C 0.99281 0.20592 0.85425 0.0
C1699 C 0.02096 0.20882 0.86345 0.0
C1700 C 0.99536 0.18897 0.85264 0.0
C1701 C 0.02303 0.19183 0.86171 0.0
C1702 C 0.96745 0.24327 0.89334 0.0
C1703 C 0.96218 0.22827 0.88677 0.0
C1704 C 0.95675 0.25246 0.90323 0.0
C1705 C 0.94636 0.22255 0.8904 0.0
C1706 C 0.94102 0.24632 0.9066 0.0
N1707 N 0.9362 0.23161 0.90018 0.0
C1708 C 0.01623 0.21805 0.91299 0.0
C1709 C 0.99667 0.20268 0.89778 0.0
C1710 C 0.0187 0.2048 0.92374 0.0
N1711 N 0.00543 0.21677 0.90024 0.0
C1712 C 0.99881 0.18912 0.90815 0.0
C1713 C 0.00993 0.19005 0.92139 0.0
H1714 H 0.02291 0.22942 0.91489 0.0
H1715 H 0.98808 0.20182 0.88771 0.0
C1716 C 0.9692 0.24032 0.83651 0.0
N1717 N 0.96723 0.24785 0.85134 0.0
C1718 C 0.9557 0.23796 0.82607 0.0
C1719 C 0.9385 0.25183 0.846 0.0
C1720 C 0.95231 0.25382 0.85609 0.0
C1721 C 0.94003 0.24362 0.83082 0.0
H1722 H 0.98124 0.23589 0.8329 0.0
H1723 H 0.95102 0.26005 0.86777 0.0
O1724 O 0.01979 0.25316 0.89013 0.0
O1725 O 0.99956 0.27026 0.86241 0.0
O1726 O 0.00343 0.23254 0.86154 0.0
O1727 O 0.98276 0.24925 0.88962 0.0
H1728 H 0.03296 0.28252 0.89546 0.0
H1729 H 0.04379 0.23107 0.88865 0.0
H1730 H 0.06293 0.28804 0.89778 0.0
H1731 H 0.07357 0.2375 0.89089 0.0
H1732 H 0.95434 0.30271 0.86893 0.0
H1733 H 0.00369 0.28893 0.83612 0.0
H1734 H 0.97248 0.27989 0.87804 0.0
H1735 H 0.98496 0.31165 0.82771 0.0
H1736 H 0.06433 0.2842 0.84342 0.0
H1737 H 0.05729 0.23547 0.82299 0.0
H1738 H 0.98297 0.29568 0.93806 0.0
H1739 H 0.00467 0.32657 0.90049 0.0
H1740 H 0.98088 0.21111 0.85142 0.0
H1741 H 0.0311 0.21636 0.86764 0.0
H1742 H 0.98546 0.18109 0.84847 0.0
H1743 H 0.03476 0.18619 0.86458 0.0
H1744 H 0.97004 0.22136 0.87858 0.0
H1745 H 0.96048 0.26426 0.90815 0.0
H1746 H 0.94211 0.21098 0.88534 0.0
H1747 H 0.93262 0.25328 0.91425 0.0
H1748 H 0.0272 0.20621 0.93392 0.0
H1749 H 0.99192 0.17796 0.90569 0.0
H1750 H 0.9575 0.23146 0.81456 0.0
H1751 H 0.92677 0.25671 0.85005 0.0
Li1752 Li 0.51761 0.75348 0.36459 0.0
Li1753 Li 0.49911 0.76645 0.38632 0.0
Li1754 Li 0.50497 0.73716 0.38649 0.0
Li1755 Li 0.48655 0.74814 0.36624 0.0
C1756 C 0.53132 0.75015 0.40041 0.0
N1757 N 0.55144 0.73749 0.42473 0.0
C1758 C 0.52694 0.75184 0.41698 0.0
C1759 C 0.54596 0.74215 0.39619 0.0
C1760 C 0.53727 0.7453 0.4291 0.0
C1761 C 0.55597 0.73581 0.40868 0.0
C1762 C 0.49716 0.78569 0.35923 0.0
C1763 C 0.48113 0.81072 0.35993 0.0
N1764 N 0.49455 0.81936 0.35481 0.0
C1765 C 0.51074 0.7948 0.35383 0.0
C1766 C 0.48219 0.79369 0.36216 0.0
C1767 C 0.50919 0.81181 0.35172 0.0
C1768 C 0.53587 0.74971 0.33517 0.0
N1769 N 0.53602 0.75672 0.35038 0.0
C1770 C 0.5625 0.7686 0.34522 0.0
C1771 C 0.54895 0.76605 0.35556 0.0
C1772 C 0.56281 0.76127 0.32955 0.0
C1773 C 0.54929 0.75169 0.32456 0.0
H1774 H 0.52535 0.7425 0.33132 0.0
H1775 H 0.54868 0.77155 0.36769 0.0
C1776 C 0.4848 0.78541 0.4119 0.0
N1777 N 0.49636 0.78568 0.39978 0.0
C1778 C 0.48237 0.79919 0.42193 0.0
C1779 C 0.50404 0.81319 0.40711 0.0
C1780 C 0.50615 0.79908 0.39746 0.0
C1781 C 0.49196 0.81343 0.41954 0.0
H1782 H 0.47754 0.77444 0.41389 0.0
H1783 H 0.51559 0.79884 0.38808 0.0
C1784 C 0.50815 0.71592 0.36135 0.0
N1785 N 0.51436 0.68247 0.3596 0.0
C1786 C 0.49642 0.70462 0.36694 0.0
C1787 C 0.52304 0.71019 0.35485 0.0
C1788 C 0.49979 0.68777 0.36598 0.0
C1789 C 0.52594 0.69324 0.35406 0.0
C1790 C 0.46708 0.74566 0.39193 0.0
C1791 C 0.46088 0.72991 0.39514 0.0
C1792 C 0.45615 0.75881 0.38986 0.0
C1793 C 0.44385 0.72757 0.39607 0.0
C1794 C 0.43921 0.75597 0.39086 0.0
N1795 N 0.43346 0.74053 0.39391 0.0
C1796 C 0.49953 0.71751 0.41483 0.0
C1797 C 0.52206 0.7084 0.39871 0.0
C1798 C 0.50177 0.70448 0.42585 0.0
N1799 N 0.50937 0.71904 0.40136 0.0
C1800 C 0.52472 0.69515 0.40938 0.0
C1801 C 0.51439 0.69295 0.4231 0.0
H1802 H 0.48989 0.72643 0.41704 0.0
H1803 H 0.53019 0.7102 0.38834 0.0
C1804 C 0.4633 0.75676 0.34157 0.0
N1805 N 0.46742 0.74479 0.35255 0.0
C1806 C 0.44958 0.75489 0.33132 0.0
C1807 C 0.44457 0.72834 0.34374 0.0
C1808 C 0.45844 0.73069 0.35366 0.0
C1809 C 0.43997 0.74052 0.33233 0.0
H1810 H 0.47078 0.76773 0.34062 0.0
H1811 H 0.46194 0.72122 0.36228 0.0
O1812 O 0.52115 0.75605 0.38837 0.0
O1813 O 0.4985 0.76904 0.36155 0.0
O1814 O 0.50509 0.73248 0.36222 0.0
O1815 O 0.48372 0.7482 0.39079 0.0
H1816 H 0.51559 0.75797 0.4204 0.0
H1817 H 0.54944 0.74066 0.3834 0.0
H1818 H 0.534 0.74641 0.44197 0.0
H1819 H 0.5673 0.72949 0.4056 0.0
H1820 H 0.46965 0.81707 0.36226 0.0
H1821 H 0.52239 0.78883 0.35139 0.0
H1822 H 0.4715 0.78683 0.36614 0.0
H1823 H 0.51963 0.81902 0.34764 0.0
H1824 H 0.57273 0.77602 0.34951 0.0
H1825 H 0.54902 0.74598 0.3125 0.0
H1826 H 0.47321 0.79858 0.43161 0.0
H1827 H 0.51169 0.82386 0.40472 0.0
H1828 H 0.48501 0.7088 0.37234 0.0
H1829 H 0.53236 0.71872 0.35064 0.0
H1830 H 0.49087 0.6789 0.37039 0.0
H1831 H 0.53743 0.68865 0.34911 0.0
H1832 H 0.46909 0.71952 0.39662 0.0
H1833 H 0.4607 0.77109 0.3875 0.0
H1834 H 0.4389 0.71542 0.39843 0.0
H1835 H 0.43063 0.76604 0.38922 0.0
H1836 H 0.49351 0.70329 0.43626 0.0
H1837 H 0.53486 0.68681 0.407 0.0
H1838 H 0.44671 0.7645 0.32252 0.0
H1839 H 0.43746 0.71714 0.34513 0.0
Li1840 Li 0.00447 0.76546 0.61707 0.0
Li1841 Li 0.98672 0.75336 0.63654 0.0
Li1842 Li 0.01682 0.74903 0.63898 0.0
Li1843 Li 0.99912 0.73552 0.61573 0.0
C1844 C 0.00551 0.78626 0.64274 0.0
N1845 N 0.00818 0.82009 0.64543 0.0
C1846 C 0.9919 0.7963 0.63955 0.0
C1847 C 0.02044 0.7934 0.64751 0.0
C1848 C 0.99351 0.81338 0.64091 0.0
C1849 C 0.02155 0.81054 0.64875 0.0
C1850 C 0.96723 0.75525 0.60932 0.0
C1851 C 0.941 0.743 0.60256 0.0
N1852 N 0.93384 0.75813 0.60332 0.0
C1853 C 0.95964 0.77069 0.60986 0.0
C1854 C 0.95788 0.74129 0.6055 0.0
C1855 C 0.94273 0.77189 0.60686 0.0
C1856 C 0.99781 0.78618 0.58987 0.0
N1857 N 0.00822 0.78416 0.60284 0.0
C1858 C 0.02333 0.80825 0.59496 0.0
C1859 C 0.02098 0.79474 0.60538 0.0
C1860 C 0.01262 0.81076 0.58161 0.0
C1861 C 0.99978 0.79944 0.57907 0.0
H1862 H 0.98797 0.77745 0.58785 0.0
H1863 H 0.02946 0.79266 0.6154 0.0
C1864 C 0.9683 0.76697 0.66289 0.0
N1865 N 0.96736 0.75613 0.65015 0.0
C1866 C 0.95492 0.76918 0.67351 0.0
C1867 C 0.93983 0.74887 0.65789 0.0
C1868 C 0.95354 0.74699 0.64765 0.0
C1869 C 0.94037 0.76009 0.67107 0.0
H1870 H 0.97956 0.77374 0.66502 0.0
H1871 H 0.9532 0.73797 0.63791 0.0
C1872 C 0.03246 0.75399 0.60468 0.0
N1873 N 0.05521 0.76855 0.58399 0.0
C1874 C 0.03017 0.75351 0.58762 0.0
C1875 C 0.04636 0.76177 0.61123 0.0
C1876 C 0.0418 0.76099 0.57737 0.0
C1877 C 0.05772 0.76908 0.60056 0.0
C1878 C 0.98939 0.7248 0.65189 0.0
C1879 C 0.99134 0.72938 0.66837 0.0
C1880 C 0.97743 0.71319 0.64759 0.0
C1881 C 0.98111 0.72237 0.6803 0.0
C1882 C 0.96746 0.70644 0.6599 0.0
N1883 N 0.96948 0.71115 0.67586 0.0
C1884 C 0.03607 0.75464 0.6675 0.0
C1885 C 0.04666 0.73432 0.64939 0.0
C1886 C 0.04952 0.75265 0.67806 0.0
N1887 N 0.035 0.74565 0.65341 0.0
C1888 C 0.06023 0.73179 0.6597 0.0
C1889 C 0.06184 0.74112 0.67419 0.0
H1890 H 0.02647 0.76338 0.67051 0.0
H1891 H 0.04545 0.72732 0.63811 0.0
C1892 C 0.99097 0.71875 0.58638 0.0
N1893 N 0.99689 0.71669 0.60191 0.0
C1894 C 0.98858 0.70514 0.57611 0.0
C1895 C 0.99894 0.68758 0.59781 0.0
C1896 C 1.00098 0.70153 0.60772 0.0
C1897 C 0.99252 0.68923 0.58177 0.0
H1898 H 0.98784 0.73097 0.58208 0.0
H1899 H 0.00577 0.70028 0.6201 0.0
O1900 O 0.00417 0.76951 0.64142 0.0
O1901 O 0.98381 0.75385 0.61207 0.0
O1902 O 0.02109 0.74703 0.61493 0.0
O1903 O 0.99894 0.73188 0.63998 0.0
H1904 H 0.9802 0.79095 0.63612 0.0
H1905 H 0.03114 0.78583 0.64993 0.0
H1906 H 0.98308 0.8213 0.63841 0.0
H1907 H 0.03307 0.81625 0.65228 0.0
H1908 H 0.93359 0.73229 0.59974 0.0
H1909 H 0.96673 0.78166 0.61245 0.0
H1910 H 0.96351 0.72923 0.60512 0.0
H1911 H 0.93669 0.78376 0.60729 0.0
H1912 H 0.03358 0.8165 0.59719 0.0
H1913 H 0.9912 0.80093 0.56895 0.0
H1914 H 0.9561 0.77768 0.68372 0.0
H1915 H 0.92891 0.74161 0.65545 0.0
H1916 H 0.01943 0.74756 0.5824 0.0
H1917 H 0.04825 0.76233 0.62442 0.0
H1918 H 0.04015 0.76081 0.56415 0.0
H1919 H 0.06849 0.77522 0.60545 0.0
H1920 H 1.00051 0.73842 0.67185 0.0
H1921 H 0.97572 0.7096 0.63485 0.0
H1922 H 0.98238 0.72589 0.6931 0.0
H1923 H 0.95807 0.69752 0.65675 0.0
H1924 H 0.05019 0.75993 0.68923 0.0
H1925 H 0.06952 0.72285 0.65623 0.0
H1926 H 0.98337 0.70707 0.56398 0.0
H1927 H 0.00244 0.67566 0.60265 0.0
Li1928 Li 0.50361 0.26619 0.11628 0.0
Li1929 Li 0.48573 0.25455 0.13657 0.0
Li1930 Li 0.51688 0.24971 0.13767 0.0
Li1931 Li 0.49823 0.2368 0.11604 0.0
C1932 C 0.5071 0.28697 0.14182 0.0
N1933 N 0.51331 0.32036 0.14426 0.0
C1934 C 0.4953 0.29838 0.13661 0.0
C1935 C 0.52205 0.29255 0.1483 0.0
C1936 C 0.49868 0.31521 0.13792 0.0
C1937 C 0.52495 0.30948 0.14944 0.0
C1938 C 0.46581 0.25737 0.11153 0.0
C1939 C 0.43803 0.24695 0.11344 0.0
N1940 N 0.43212 0.26242 0.11088 0.0
C1941 C 0.45945 0.27316 0.10885 0.0
C1942 C 0.45501 0.24415 0.11377 0.0
C1943 C 0.4424 0.27546 0.10858 0.0
C1944 C 0.49755 0.28629 0.08836 0.0
N1945 N 0.50757 0.28462 0.10169 0.0
C1946 C 0.52264 0.30875 0.09386 0.0
C1947 C 0.52021 0.29532 0.10435 0.0
C1948 C 0.51216 0.31106 0.08029 0.0
C1949 C 0.49958 0.29949 0.0775 0.0
H1950 H 0.48796 0.27733 0.08613 0.0
H1951 H 0.52849 0.29341 0.11459 0.0
C1952 C 0.46261 0.24484 0.16091 0.0
N1953 N 0.46673 0.25736 0.15058 0.0
C1954 C 0.44896 0.24623 0.17133 0.0
C1955 C 0.44403 0.27345 0.1604 0.0
C1956 C 0.45783 0.27156 0.15028 0.0
C1957 C 0.43941 0.26069 0.17116 0.0
H1958 H 0.47001 0.23379 0.16122 0.0
H1959 H 0.46133 0.28144 0.14214 0.0
C1960 C 0.52954 0.25356 0.10124 0.0
N1961 N 0.54826 0.2664 0.07591 0.0
C1962 C 0.52436 0.25176 0.08492 0.0
C1963 C 0.54427 0.26176 0.1047 0.0
C1964 C 0.53399 0.25838 0.07228 0.0
C1965 C 0.55356 0.26819 0.0917 0.0
C1966 C 0.49737 0.21701 0.14265 0.0
C1967 C 0.51134 0.20828 0.14767 0.0
C1968 C 0.48268 0.20855 0.13961 0.0
C1969 C 0.51044 0.19116 0.14933 0.0
C1970 C 0.48229 0.19143 0.14138 0.0
N1971 N 0.49606 0.18317 0.14615 0.0
C1972 C 0.53523 0.25262 0.16711 0.0
C1973 C 0.54891 0.23824 0.14571 0.0
C1974 C 0.54878 0.25062 0.17753 0.0
N1975 N 0.53559 0.24656 0.15151 0.0
C1976 C 0.56267 0.23575 0.15579 0.0
C1977 C 0.56279 0.24203 0.17196 0.0
H1978 H 0.52443 0.25916 0.1714 0.0
H1979 H 0.54878 0.23339 0.1333 0.0
C1980 C 0.48353 0.21777 0.09071 0.0
N1981 N 0.49558 0.21773 0.10235 0.0
C1982 C 0.48112 0.20404 0.08061 0.0
C1983 C 0.5038 0.19055 0.09437 0.0
C1984 C 0.50587 0.20462 0.10409 0.0
C1985 C 0.49122 0.19007 0.08244 0.0
H1986 H 0.47585 0.22853 0.08917 0.0
H1987 H 0.51566 0.20505 0.11311 0.0
O1988 O 0.50405 0.27043 0.14062 0.0
O1989 O 0.48249 0.25488 0.11207 0.0
O1990 O 0.52005 0.24759 0.11379 0.0
O1991 O 0.49808 0.23376 0.14077 0.0
H1992 H 0.48384 0.29432 0.13124 0.0
H1993 H 0.53141 0.28393 0.15224 0.0
H1994 H 0.48971 0.32417 0.13381 0.0
H1995 H 0.53649 0.31397 0.15438 0.0
H1996 H 0.42955 0.23683 0.11523 0.0
H1997 H 0.46757 0.2836 0.10727 0.0
H1998 H 0.45968 0.23185 0.11579 0.0
H1999 H 0.43732 0.28763 0.10662 0.0
H2000 H 0.53274 0.31713 0.09625 0.0
H2001 H 0.49122 0.30077 0.06718 0.0
H2002 H 0.4461 0.23618 0.17963 0.0
H2003 H 0.43698 0.28475 0.15968 0.0
H2004 H 0.51293 0.24549 0.08209 0.0
H2005 H 0.54837 0.26334 0.11729 0.0
H2006 H 0.53009 0.2572 0.05959 0.0
H2007 H 0.56494 0.27466 0.09419 0.0
H2008 H 0.52278 0.2146 0.15018 0.0
H2009 H 0.47172 0.21511 0.13586 0.0
H2010 H 0.52118 0.18424 0.15312 0.0
H2011 H 0.47103 0.18473 0.13896 0.0
H2012 H 0.54833 0.25595 0.18974 0.0
H2013 H 0.57299 0.22878 0.151 0.0
H2014 H 0.47156 0.20447 0.07132 0.0
H2015 H 0.51185 0.1801 0.09634 0.0
C2016 C 0.2476 0.77208 0.86164 0.0
C2017 C 0.2323 0.76481 0.85819 0.0
C2018 C 0.24948 0.78308 0.87487 0.0
C2019 C 0.23577 0.78681 0.88499 0.0
C2020 C 0.22027 0.77958 0.88152 0.0
C2021 C 0.21871 0.76873 0.86812 0.0
C2022 C 0.26617 0.79067 0.87804 0.0
C2023 C 0.20538 0.78312 0.8921 0.0
C2024 C 0.24437 0.80246 0.92833 0.0
C2025 C 0.24169 0.81947 0.92665 0.0
C2026 C 0.24235 0.7917 0.91493 0.0
C2027 C 0.23771 0.79808 0.89937 0.0
C2028 C 0.23504 0.81522 0.89754 0.0
C2029 C 0.23698 0.82568 0.9112 0.0
C2030 C 0.24526 0.77349 0.9174 0.0
C2031 C 0.23016 0.82252 0.88114 0.0
H2032 H 0.2581 0.76927 0.85387 0.0
H2033 H 0.20689 0.76302 0.86561 0.0
H2034 H 0.26521 0.80431 0.87779 0.0
H2035 H 0.2706 0.78715 0.89048 0.0
H2036 H 0.2755 0.78677 0.86882 0.0
H2037 H 0.19416 0.77669 0.88762 0.0
H2038 H 0.20781 0.77921 0.90497 0.0
H2039 H 0.20291 0.79656 0.89236 0.0
H2040 H 0.24827 0.79753 0.94011 0.0
H2041 H 0.23461 0.83875 0.90979 0.0
H2042 H 0.25543 0.76926 0.90931 0.0
H2043 H 0.23408 0.76646 0.91387 0.0
H2044 H 0.24843 0.77044 0.93036 0.0
H2045 H 0.23958 0.8195 0.87171 0.0
H2046 H 0.22874 0.83612 0.88171 0.0
H2047 H 0.21834 0.81707 0.87695 0.0
C2048 C 0.03907 0.52885 0.40055 0.0
C2049 C 0.02195 0.52644 0.39988 0.0
C2050 C 0.0491 0.52583 0.38677 0.0
C2051 C 0.0419 0.52007 0.37196 0.0
C2052 C 0.02469 0.5173 0.37127 0.0
C2053 C 0.01492 0.5206 0.38518 0.0
C2054 C 0.0674 0.52899 0.38799 0.0
C2055 C 0.01654 0.51106 0.35575 0.0
C2056 C 0.06459 0.52747 0.33163 0.0
C2057 C 0.07217 0.51218 0.32889 0.0
C2058 C 0.05477 0.53021 0.34561 0.0
C2059 C 0.05232 0.5173 0.35709 0.0
C2060 C 0.05987 0.5018 0.35436 0.0
C2061 C 0.06977 0.49945 0.34034 0.0
C2062 C 0.0471 0.54697 0.34816 0.0
C2063 C 0.05741 0.48767 0.3662 0.0
H2064 H 0.04469 0.53306 0.4119 0.0
H2065 H 0.0017 0.51892 0.38441 0.0
H2066 H 0.07433 0.51756 0.38516 0.0
H2067 H 0.07111 0.53837 0.37877 0.0
H2068 H 0.0711 0.53338 0.40042 0.0
H2069 H 0.00314 0.50885 0.35744 0.0
H2070 H 0.01822 0.52014 0.34567 0.0
H2071 H 0.02244 0.4994 0.35172 0.0
H2072 H 0.06657 0.53741 0.32293 0.0
H2073 H 0.07545 0.48756 0.3382 0.0
H2074 H 0.05132 0.55225 0.36004 0.0
H2075 H 0.0335 0.54583 0.34882 0.0
H2076 H 0.05026 0.55572 0.33812 0.0
H2077 H 0.06181 0.49119 0.37865 0.0
H2078 H 0.06404 0.47636 0.36226 0.0
H2079 H 0.04409 0.48478 0.36728 0.0
C2080 C 0.75585 0.73055 0.86207 0.0
C2081 C 0.77146 0.73595 0.85692 0.0
C2082 C 0.75409 0.71959 0.87535 0.0
C2083 C 0.76828 0.71376 0.88365 0.0
C2084 C 0.78409 0.71896 0.8784 0.0
C2085 C 0.78548 0.73003 0.86516 0.0
C2086 C 0.73702 0.71436 0.88059 0.0
C2087 C 0.79952 0.71298 0.88688 0.0
C2088 C 0.76365 0.69816 0.92759 0.0
C2089 C 0.76324 0.68103 0.92531 0.0
C2090 C 0.76525 0.70893 0.91415 0.0
C2091 C 0.76658 0.70243 0.89801 0.0
C2092 C 0.76622 0.68515 0.89562 0.0
C2093 C 0.76449 0.67466 0.90928 0.0
C2094 C 0.76542 0.72728 0.91721 0.0
C2095 C 0.76774 0.67774 0.87862 0.0
H2096 H 0.74496 0.7348 0.85563 0.0
H2097 H 0.79759 0.73429 0.86146 0.0
H2098 H 0.73589 0.70076 0.87989 0.0
H2099 H 0.73485 0.71794 0.8936 0.0
H2100 H 0.72724 0.71997 0.87283 0.0
H2101 H 0.8109 0.71774 0.88095 0.0
H2102 H 0.79945 0.71693 0.89997 0.0
H2103 H 0.79993 0.69931 0.88678 0.0
H2104 H 0.76246 0.70316 0.93992 0.0
H2105 H 0.76434 0.66143 0.90746 0.0
H2106 H 0.75513 0.73322 0.91045 0.0
H2107 H 0.77704 0.7327 0.91248 0.0
H2108 H 0.76426 0.73035 0.9305 0.0
H2109 H 0.75763 0.6823 0.87063 0.0
H2110 H 0.7673 0.66406 0.87886 0.0
H2111 H 0.77952 0.68164 0.87288 0.0
C2112 C 0.98249 0.99591 0.39175 0.0
C2113 C 0.98843 0.98033 0.39636 0.0
C2114 C 0.97163 0.99776 0.37841 0.0
C2115 C 0.96652 0.98369 0.36944 0.0
C2116 C 0.97231 0.96791 0.37413 0.0
C2117 C 0.9832 0.96642 0.38751 0.0
C2118 C 0.96568 0.01479 0.37385 0.0
C2119 C 0.96718 0.95262 0.36486 0.0
C2120 C 0.92762 0.98698 0.34342 0.0
C2121 C 0.93411 0.98956 0.3276 0.0
C2122 C 0.93801 0.98497 0.35713 0.0
C2123 C 0.95532 0.98554 0.35499 0.0
C2124 C 0.96195 0.98808 0.33905 0.0
C2125 C 0.95128 0.99006 0.32557 0.0
C2126 C 0.93046 0.98223 0.37391 0.0
C2127 C 0.98033 0.98884 0.33626 0.0
H2128 H 0.98626 0.00669 0.39866 0.0
H2129 H 0.98787 0.95437 0.39085 0.0
H2130 H 0.9694 0.01773 0.36103 0.0
H2131 H 0.95203 0.01525 0.37432 0.0
H2132 H 0.97067 0.02444 0.38217 0.0
H2133 H 0.97243 0.94122 0.37032 0.0
H2134 H 0.95355 0.95155 0.36478 0.0
H2135 H 0.97125 0.95351 0.35185 0.0
H2136 H 0.91439 0.98635 0.34508 0.0
H2137 H 0.95641 0.99228 0.31344 0.0
H2138 H 0.93442 0.99213 0.38247 0.0
H2139 H 0.93485 0.97038 0.37912 0.0
H2140 H 0.91678 0.98204 0.3735 0.0
H2141 H 0.9857 0.99913 0.34348 0.0
H2142 H 0.98352 0.99063 0.32307 0.0
H2143 H 0.98621 0.9773 0.34065 0.0
C2144 C 0.2185 0.23416 0.63613 0.0
C2145 C 0.23216 0.23844 0.64581 0.0
C2146 C 0.22011 0.22332 0.62273 0.0
C2147 C 0.23573 0.21646 0.61901 0.0
C2148 C 0.24952 0.22056 0.62889 0.0
C2149 C 0.24758 0.23155 0.64212 0.0
C2150 C 0.20515 0.21939 0.61239 0.0
C2151 C 0.26633 0.21336 0.62548 0.0
C2152 C 0.23741 0.17749 0.59299 0.0
C2153 C 0.24175 0.18371 0.57743 0.0
C2154 C 0.23546 0.18798 0.60662 0.0
C2155 C 0.23771 0.20516 0.60466 0.0
C2156 C 0.24198 0.21156 0.58901 0.0
C2157 C 0.24404 0.20077 0.57563 0.0
C2158 C 0.231 0.18066 0.62314 0.0
C2159 C 0.24442 0.22982 0.58639 0.0
H2160 H 0.20659 0.23957 0.63884 0.0
H2161 H 0.25813 0.23466 0.6497 0.0
H2162 H 0.20731 0.22328 0.59946 0.0
H2163 H 0.20297 0.2059 0.61225 0.0
H2164 H 0.19386 0.2256 0.61701 0.0
H2165 H 0.27571 0.21753 0.63453 0.0
H2166 H 0.26571 0.19971 0.6258 0.0
H2167 H 0.27047 0.21693 0.61295 0.0
H2168 H 0.23533 0.16439 0.5945 0.0
H2169 H 0.24766 0.20572 0.56377 0.0
H2170 H 0.21912 0.18584 0.62747 0.0
H2171 H 0.24048 0.18397 0.63241 0.0
H2172 H 0.22992 0.16703 0.62267 0.0
H2173 H 0.23313 0.23661 0.59007 0.0
H2174 H 0.24731 0.23287 0.57336 0.0
H2175 H 0.25462 0.23432 0.59429 0.0
C2176 C 0.48037 0.53615 0.6145 0.0
C2177 C 0.48729 0.52216 0.60702 0.0
C2178 C 0.46936 0.5347 0.6278 0.0
C2179 C 0.4654 0.5189 0.63402 0.0
C2180 C 0.47225 0.50473 0.62651 0.0
C2181 C 0.48295 0.50652 0.61303 0.0
C2182 C 0.46212 0.55011 0.63531 0.0
C2183 C 0.46847 0.48766 0.63288 0.0
C2184 C 0.45057 0.5158 0.67838 0.0
C2185 C 0.43361 0.51335 0.6763 0.0
C2186 C 0.46106 0.51757 0.66473 0.0
C2187 C 0.45437 0.51718 0.64861 0.0
C2188 C 0.43719 0.51494 0.64646 0.0
C2189 C 0.42703 0.51288 0.66034 0.0
C2190 C 0.47933 0.51963 0.66755 0.0
C2191 C 0.42953 0.51477 0.62951 0.0
H2192 H 0.48377 0.54832 0.6102 0.0
H2193 H 0.4879 0.49559 0.60718 0.0
H2194 H 0.44848 0.54926 0.63552 0.0
H2195 H 0.46631 0.55136 0.64826 0.0
H2196 H 0.46571 0.5614 0.62846 0.0
H2197 H 0.47489 0.47789 0.62574 0.0
H2198 H 0.47222 0.48666 0.64599 0.0
H2199 H 0.45501 0.48533 0.63233 0.0
H2200 H 0.45569 0.51601 0.69072 0.0
H2201 H 0.41389 0.51113 0.65873 0.0
H2202 H 0.48362 0.53138 0.66206 0.0
H2203 H 0.48615 0.50953 0.66133 0.0
H2204 H 0.48259 0.51957 0.68084 0.0
H2205 H 0.43251 0.52638 0.62294 0.0
H2206 H 0.41592 0.51335 0.62997 0.0
H2207 H 0.43474 0.5045 0.62215 0.0
C2208 C 0.79277 0.27686 0.63778 0.0
C2209 C 0.77975 0.27012 0.64698 0.0
C2210 C 0.78978 0.28686 0.62399 0.0
C2211 C 0.77335 0.29007 0.61907 0.0
C2212 C 0.76014 0.28315 0.62813 0.0
C2213 C 0.76349 0.27335 0.64201 0.0
C2214 C 0.80421 0.29407 0.61471 0.0
C2215 C 0.74246 0.28617 0.62321 0.0
C2216 C 0.76532 0.32804 0.5928 0.0
C2217 C 0.76466 0.32135 0.57685 0.0
C2218 C 0.76808 0.31801 0.60663 0.0
C2219 C 0.77003 0.3008 0.60454 0.0
C2220 C 0.76914 0.29391 0.58854 0.0
C2221 C 0.76658 0.30426 0.57491 0.0
C2222 C 0.76905 0.32585 0.62348 0.0
C2223 C 0.77105 0.27561 0.58582 0.0
H2224 H 0.80538 0.27421 0.64128 0.0
H2225 H 0.75333 0.26841 0.64912 0.0
H2226 H 0.80395 0.28991 0.6017 0.0
H2227 H 0.80333 0.30771 0.61463 0.0
H2228 H 0.81623 0.2905 0.62019 0.0
H2229 H 0.73361 0.27951 0.63125 0.0
H2230 H 0.73969 0.29954 0.62382 0.0
H2231 H 0.74046 0.28221 0.61028 0.0
H2232 H 0.76357 0.34116 0.59452 0.0
H2233 H 0.76634 0.29895 0.56266 0.0
H2234 H 0.78123 0.32324 0.62912 0.0
H2235 H 0.75954 0.32047 0.63169 0.0
H2236 H 0.76726 0.33941 0.62302 0.0
H2237 H 0.78346 0.27157 0.58989 0.0
H2238 H 0.76943 0.27211 0.57268 0.0
H2239 H 0.7619 0.26878 0.59333 0.0
C2240 C 0.51387 0.97694 0.61976 0.0
C2241 C 0.52112 0.97306 0.60455 0.0
C2242 C 0.52359 0.97998 0.63377 0.0
C2243 C 0.54098 0.97919 0.63254 0.0
C2244 C 0.54837 0.97545 0.61718 0.0
C2245 C 0.53836 0.97242 0.60339 0.0
C2246 C 0.51524 0.98385 0.64994 0.0
C2247 C 0.56686 0.97461 0.61532 0.0
C2248 C 0.567 1.0006 0.66516 0.0
C2249 C 0.57168 0.98737 0.67528 0.0
C2250 C 0.55699 0.99813 0.65124 0.0
C2251 C 0.55146 0.98205 0.64735 0.0
C2252 C 0.55607 0.96866 0.65754 0.0
C2253 C 0.56613 0.97147 0.67134 0.0
C2254 C 0.55235 0.01273 0.6407 0.0
C2255 C 0.55044 0.95132 0.65381 0.0
H2256 H 0.50056 0.97728 0.6208 0.0
H2257 H 0.54405 0.96966 0.59163 0.0
H2258 H 0.51852 0.97437 0.65922 0.0
H2259 H 0.51962 0.99588 0.65471 0.0
H2260 H 0.5016 0.9843 0.64877 0.0
H2261 H 0.57068 0.97177 0.60248 0.0
H2262 H 0.57247 0.98652 0.619 0.0
H2263 H 0.57194 0.96501 0.62361 0.0
H2264 H 0.57101 0.01296 0.66822 0.0
H2265 H 0.56986 0.96113 0.67893 0.0
H2266 H 0.53875 0.01402 0.64025 0.0
H2267 H 0.55666 0.01077 0.62787 0.0
H2268 H 0.5577 0.02444 0.64537 0.0
H2269 H 0.53679 0.95083 0.65337 0.0
H2270 H 0.55485 0.9423 0.66311 0.0
H2271 H 0.55503 0.9475 0.64151 0.0
C2272 C 0.86617 0.21104 0.77426 0.0
C2273 C 0.85529 0.22362 0.76955 0.0
C2274 C 0.88002 0.21442 0.78407 0.0
C2275 C 0.88305 0.23076 0.78937 0.0
C2276 C 0.87212 0.24352 0.78464 0.0
C2277 C 0.85841 0.23981 0.77475 0.0
C2278 C 0.89144 0.20049 0.78873 0.0
C2279 C 0.87485 0.26108 0.79015 0.0
C2280 C 0.9101 0.23647 0.82721 0.0
C2281 C 0.92533 0.24071 0.82017 0.0
C2282 C 0.89621 0.23341 0.81735 0.0
C2283 C 0.89757 0.23446 0.79999 0.0
C2284 C 0.91286 0.23878 0.79279 0.0
C2285 C 0.92652 0.24192 0.80295 0.0
C2286 C 0.88012 0.22887 0.82551 0.0
C2287 C 0.91482 0.24001 0.77433 0.0
H2288 H 0.86396 0.19855 0.77009 0.0
H2289 H 0.84995 0.24955 0.7713 0.0
H2290 H 0.90411 0.20318 0.78433 0.0
H2291 H 0.89204 0.19931 0.80233 0.0
H2292 H 0.88744 0.1885 0.78348 0.0
H2293 H 0.8653 0.2696 0.78529 0.0
H2294 H 0.87474 0.26173 0.80381 0.0
H2295 H 0.88712 0.26544 0.78599 0.0
H2296 H 0.90908 0.23524 0.84046 0.0
H2297 H 0.93814 0.24543 0.79739 0.0
H2298 H 0.87629 0.21635 0.82158 0.0
H2299 H 0.87029 0.23753 0.82161 0.0
H2300 H 0.88097 0.22908 0.83917 0.0
H2301 H 0.91178 0.228 0.76853 0.0
H2302 H 0.92752 0.24354 0.77066 0.0
H2303 H 0.90608 0.24925 0.76931 0.0
C2304 C 0.47888 0.88396 0.48758 0.0
C2305 C 0.47566 0.89933 0.48036 0.0
C2306 C 0.48186 0.86997 0.47784 0.0
C2307 C 0.48175 0.87139 0.46044 0.0
C2308 C 0.47875 0.88693 0.45309 0.0
C2309 C 0.47568 0.90069 0.46313 0.0
C2310 C 0.48486 0.8536 0.48615 0.0
C2311 C 0.4787 0.889 0.4346 0.0
C2312 C 0.50283 0.83791 0.43523 0.0
C2313 C 0.48938 0.82835 0.42998 0.0
C2314 C 0.50053 0.85198 0.44506 0.0
C2315 C 0.48441 0.85656 0.44993 0.0
C2316 C 0.4708 0.84696 0.44475 0.0
C2317 C 0.47344 0.83306 0.43478 0.0
C2318 C 0.51536 0.86193 0.45027 0.0
C2319 C 0.45342 0.85139 0.44972 0.0
H2320 H 0.47871 0.8828 0.50088 0.0
H2321 H 0.4734 0.91258 0.45749 0.0
H2322 H 0.47518 0.84469 0.48245 0.0
H2323 H 0.49687 0.84843 0.48215 0.0
H2324 H 0.48487 0.85462 0.4998 0.0
H2325 H 0.47659 0.90199 0.43083 0.0
H2326 H 0.49063 0.88482 0.4294 0.0
H2327 H 0.46892 0.88122 0.42908 0.0
H2328 H 0.51522 0.83428 0.43183 0.0
H2329 H 0.46293 0.82596 0.4306 0.0
H2330 H 0.51626 0.86214 0.4639 0.0
H2331 H 0.51398 0.87488 0.4461 0.0
H2332 H 0.52704 0.85692 0.44519 0.0
H2333 H 0.45242 0.85176 0.46335 0.0
H2334 H 0.4442 0.8425 0.4449 0.0
H2335 H 0.45029 0.86386 0.44509 0.0
C2336 C 0.14771 0.27535 0.7824 0.0
C2337 C 0.14555 0.27219 0.76552 0.0
C2338 C 0.13457 0.27377 0.79357 0.0
C2339 C 0.11889 0.26878 0.78778 0.0
C2340 C 0.1166 0.2656 0.77078 0.0
C2341 C 0.12991 0.26742 0.75987 0.0
C2342 C 0.13749 0.27735 0.81159 0.0
C2343 C 0.10008 0.26021 0.76411 0.0
C2344 C 0.08856 0.24943 0.81783 0.0
C2345 C 0.07764 0.2625 0.82089 0.0
C2346 C 0.10207 0.25133 0.80719 0.0
C2347 C 0.10487 0.26673 0.79949 0.0
C2348 C 0.09409 0.28006 0.80271 0.0
C2349 C 0.08058 0.27777 0.8133 0.0
C2350 C 0.11326 0.2368 0.80404 0.0
C2351 C 0.0967 0.2967 0.79481 0.0
H2352 H 0.15977 0.27883 0.78695 0.0
H2353 H 0.128 0.26522 0.74684 0.0
H2354 H 0.12886 0.28704 0.81589 0.0
H2355 H 0.13502 0.26614 0.81901 0.0
H2356 H 0.1503 0.28148 0.81406 0.0
H2357 H 0.10035 0.25815 0.75058 0.0
H2358 H 0.09616 0.24863 0.77021 0.0
H2359 H 0.09061 0.26967 0.7669 0.0
H2360 H 0.08659 0.23766 0.82383 0.0
H2361 H 0.07212 0.28789 0.81537 0.0
H2362 H 0.12612 0.23997 0.80744 0.0
H2363 H 0.11323 0.23372 0.79072 0.0
H2364 H 0.10948 0.2257 0.8111 0.0
H2365 H 0.10925 0.30131 0.79763 0.0
H2366 H 0.08756 0.30596 0.79906 0.0
H2367 H 0.09576 0.29557 0.78122 0.0
C2368 C 0.50879 0.61425 0.4821 0.0
C2369 C 0.5241 0.60972 0.48873 0.0
C2370 C 0.50734 0.6277 0.4713 0.0
C2371 C 0.52155 0.63686 0.46699 0.0
C2372 C 0.53706 0.63229 0.47353 0.0
C2373 C 0.53815 0.61879 0.48432 0.0
C2374 C 0.49058 0.63213 0.46453 0.0
C2375 C 0.5525 0.64175 0.46926 0.0
C2376 C 0.51994 0.66291 0.42803 0.0
C2377 C 0.51666 0.67866 0.43438 0.0
C2378 C 0.52168 0.64923 0.43849 0.0
C2379 C 0.52013 0.65132 0.45574 0.0
C2380 C 0.51698 0.6672 0.46225 0.0
C2381 C 0.51528 0.68066 0.4515 0.0
C2382 C 0.52498 0.63249 0.43106 0.0
C2383 C 0.51532 0.66996 0.48057 0.0
H2384 H 0.49791 0.60717 0.48524 0.0
H2385 H 0.55 0.61551 0.48954 0.0
H2386 H 0.48733 0.6449 0.46815 0.0
H2387 H 0.49081 0.63172 0.45087 0.0
H2388 H 0.48077 0.6237 0.469 0.0
H2389 H 0.56365 0.63647 0.47517 0.0
H2390 H 0.55435 0.64181 0.45571 0.0
H2391 H 0.5512 0.65477 0.47322 0.0
H2392 H 0.52081 0.66121 0.41481 0.0
H2393 H 0.51297 0.69282 0.45652 0.0
H2394 H 0.51481 0.62392 0.43424 0.0
H2395 H 0.53648 0.62724 0.43627 0.0
H2396 H 0.52618 0.63299 0.41744 0.0
H2397 H 0.50495 0.66251 0.48547 0.0
H2398 H 0.51309 0.68311 0.48367 0.0
H2399 H 0.52667 0.66582 0.48696 0.0
C2400 C 0.87394 0.76779 0.74361 0.0
C2401 C 0.85801 0.771 0.7377 0.0
C2402 C 0.88735 0.76623 0.73279 0.0
C2403 C 0.88479 0.76784 0.7156 0.0
C2404 C 0.86875 0.77114 0.70955 0.0
C2405 C 0.85557 0.77273 0.72067 0.0
C2406 C 0.90427 0.76287 0.73975 0.0
C2407 C 0.86549 0.77281 0.69131 0.0
C2408 C 0.9217 0.77774 0.68844 0.0
C2409 C 0.92599 0.76212 0.68234 0.0
C2410 C 0.90833 0.77979 0.69924 0.0
C2411 C 0.89888 0.76591 0.70397 0.0
C2412 C 0.90302 0.75014 0.69777 0.0
C2413 C 0.91655 0.74843 0.68712 0.0
C2414 C 0.90434 0.7968 0.70563 0.0
C2415 C 0.89322 0.73505 0.70249 0.0
H2416 H 0.87595 0.76668 0.75676 0.0
H2417 H 0.84327 0.77504 0.71601 0.0
H2418 H 0.9091 0.75109 0.73477 0.0
H2419 H 0.91293 0.77273 0.73592 0.0
H2420 H 0.90423 0.76214 0.75342 0.0
H2421 H 0.85235 0.77554 0.68861 0.0
H2422 H 0.8732 0.78281 0.68608 0.0
H2423 H 0.86896 0.76125 0.68491 0.0
H2424 H 0.92873 0.78844 0.68464 0.0
H2425 H 0.91989 0.73627 0.68273 0.0
H2426 H 0.90493 0.79689 0.71929 0.0
H2427 H 0.89159 0.80024 0.70211 0.0
H2428 H 0.91293 0.80631 0.70082 0.0
H2429 H 0.89389 0.73312 0.716 0.0
H2430 H 0.89775 0.72374 0.69624 0.0
H2431 H 0.88005 0.73683 0.69929 0.0
C2432 C 0.03699 0.88494 0.52081 0.0
C2433 C 0.023 0.89391 0.51601 0.0
C2434 C 0.03571 0.87148 0.53162 0.0
C2435 C 0.02006 0.86689 0.53786 0.0
C2436 C 0.00592 0.87599 0.53319 0.0
C2437 C 0.00756 0.88936 0.52232 0.0
C2438 C 0.05106 0.86204 0.53623 0.0
C2439 C 0.98904 0.87158 0.53965 0.0
C2440 C 0.01354 0.8231 0.55327 0.0
C2441 C 0.0148 0.8251 0.57039 0.0
C2442 C 0.01538 0.83656 0.54255 0.0
C2443 C 0.01844 0.85245 0.54909 0.0
C2444 C 0.01977 0.85454 0.56637 0.0
C2445 C 0.01799 0.84083 0.5768 0.0
C2446 C 0.01402 0.83379 0.5242 0.0
C2447 C 0.02289 0.87128 0.57384 0.0
H2448 H 0.04894 0.88826 0.51585 0.0
H2449 H 0.99673 0.89637 0.51885 0.0
H2450 H 0.05265 0.86203 0.54981 0.0
H2451 H 0.04986 0.84901 0.53228 0.0
H2452 H 0.06233 0.86732 0.53052 0.0
H2453 H 0.97932 0.88005 0.53504 0.0
H2454 H 0.98583 0.85882 0.53593 0.0
H2455 H 0.98903 0.87194 0.55332 0.0
H2456 H 0.01128 0.81094 0.54824 0.0
H2457 H 0.0188 0.84249 0.59003 0.0
H2458 H 0.02547 0.83793 0.518 0.0
H2459 H 0.00374 0.84123 0.51912 0.0
H2460 H 0.01186 0.82064 0.52107 0.0
H2461 H 0.03453 0.8765 0.56891 0.0
H2462 H 0.02374 0.87081 0.58749 0.0
H2463 H 0.01282 0.87986 0.57038 0.0
C2464 C 0.14723 0.72916 0.72277 0.0
C2465 C 0.14468 0.72944 0.73986 0.0
C2466 C 0.13399 0.73085 0.71175 0.0
C2467 C 0.11778 0.73268 0.71797 0.0
C2468 C 0.11511 0.73273 0.73521 0.0
C2469 C 0.1286 0.7312 0.74594 0.0
C2470 C 0.13736 0.73093 0.69345 0.0
C2471 C 0.09801 0.73443 0.74234 0.0
C2472 C 0.08483 0.75266 0.69128 0.0
C2473 C 0.07631 0.73891 0.68521 0.0
C2474 C 0.09848 0.7508 0.70176 0.0
C2475 C 0.10361 0.73479 0.70646 0.0
C2476 C 0.09505 0.72086 0.70037 0.0
C2477 C 0.08157 0.72308 0.68973 0.0
C2478 C 0.1074 0.76596 0.7078 0.0
C2479 C 0.1 0.70361 0.70526 0.0
H2480 H 0.15966 0.72795 0.71802 0.0
H2481 H 0.12655 0.73122 0.75914 0.0
H2482 H 0.13029 0.72095 0.68735 0.0
H2483 H 0.13318 0.74276 0.68802 0.0
H2484 H 0.15064 0.72926 0.69061 0.0
H2485 H 0.09798 0.7338 0.75601 0.0
H2486 H 0.09254 0.74636 0.73852 0.0
H2487 H 0.08993 0.72453 0.73749 0.0
H2488 H 0.08093 0.76491 0.68766 0.0
H2489 H 0.07492 0.71243 0.68518 0.0
H2490 H 0.12061 0.76528 0.70436 0.0
H2491 H 0.10679 0.76659 0.72144 0.0
H2492 H 0.10212 0.7775 0.70267 0.0
H2493 H 0.11301 0.7013 0.70174 0.0
H2494 H 0.09213 0.69408 0.69939 0.0
H2495 H 0.09917 0.70222 0.71883 0.0
C2496 C 0.98882 0.60713 0.52622 0.0
C2497 C 0.97289 0.60472 0.51995 0.0
C2498 C 0.99248 0.62072 0.53631 0.0
C2499 C 0.97996 0.63229 0.54007 0.0
C2500 C 0.9639 0.62999 0.53364 0.0
C2501 C 0.96054 0.6162 0.52374 0.0
C2502 C 0.0097 0.62262 0.54308 0.0
C2503 C 0.95026 0.64214 0.53718 0.0
C2504 C 0.9841 0.6596 0.57796 0.0
C2505 C 0.98972 0.67448 0.57112 0.0
C2506 C 0.98113 0.64573 0.56804 0.0
C2507 C 0.9836 0.64675 0.55081 0.0
C2508 C 0.9893 0.66167 0.5438 0.0
C2509 C 0.99239 0.67529 0.55403 0.0
C2510 C 0.97519 0.63 0.57601 0.0
C2511 C 0.99199 0.6633 0.52547 0.0
H2512 H 0.99837 0.5982 0.52347 0.0
H2513 H 0.94827 0.6145 0.51876 0.0
H2514 H 0.015 0.63457 0.53912 0.0
H2515 H 0.00933 0.62268 0.55675 0.0
H2516 H 0.01804 0.61256 0.53898 0.0
H2517 H 0.93851 0.63871 0.53105 0.0
H2518 H 0.94808 0.64291 0.55065 0.0
H2519 H 0.95392 0.65462 0.53294 0.0
H2520 H 0.98172 0.65885 0.59107 0.0
H2521 H 0.997 0.68659 0.54861 0.0
H2522 H 0.98355 0.61967 0.5728 0.0
H2523 H 0.96278 0.62679 0.57125 0.0
H2524 H 0.9745 0.63101 0.58964 0.0
H2525 H 1.00116 0.65408 0.52125 0.0
H2526 H 0.9964 0.67577 0.52194 0.0
H2527 H 0.98033 0.66075 0.51881 0.0
C2528 C 0.77426 0.86032 0.2482 0.0
C2529 C 0.76849 0.85558 0.2326 0.0
C2530 C 0.78511 0.87368 0.25004 0.0
C2531 C 0.79038 0.88252 0.23595 0.0
C2532 C 0.78479 0.87766 0.22015 0.0
C2533 C 0.77391 0.86428 0.21867 0.0
C2534 C 0.79083 0.87842 0.2671 0.0
C2535 C 0.7901 0.88677 0.20483 0.0
C2536 C 0.80518 0.92659 0.24184 0.0
C2537 C 0.82237 0.92472 0.24145 0.0
C2538 C 0.79465 0.91298 0.24005 0.0
C2539 C 0.80144 0.89707 0.23779 0.0
C2540 C 0.81877 0.89508 0.23734 0.0
C2541 C 0.82902 0.90891 0.23918 0.0
C2542 C 0.77624 0.91563 0.24055 0.0
C2543 C 0.82649 0.87831 0.23499 0.0
H2544 H 0.77033 0.85353 0.259 0.0
H2545 H 0.76936 0.86084 0.20659 0.0
H2546 H 0.80449 0.87815 0.2677 0.0
H2547 H 0.7869 0.89121 0.26992 0.0
H2548 H 0.78586 0.8701 0.27676 0.0
H2549 H 0.78505 0.88115 0.19342 0.0
H2550 H 0.78594 0.89978 0.2055 0.0
H2551 H 0.80374 0.88692 0.20395 0.0
H2552 H 0.79992 0.93878 0.24333 0.0
H2553 H 0.84228 0.90731 0.23906 0.0
H2554 H 0.77074 0.90826 0.25067 0.0
H2555 H 0.77059 0.91133 0.22887 0.0
H2556 H 0.77292 0.92877 0.24243 0.0
H2557 H 0.8226 0.86995 0.24507 0.0
H2558 H 0.84017 0.87886 0.23479 0.0
H2559 H 0.82217 0.87279 0.22325 0.0
C2560 C 0.77117 0.136 0.2853 0.0
C2561 C 0.76708 0.14578 0.27164 0.0
C2562 C 0.78212 0.12267 0.2838 0.0
C2563 C 0.78922 0.11905 0.26827 0.0
C2564 C 0.78531 0.12901 0.25448 0.0
C2565 C 0.77428 0.14222 0.25633 0.0
C2566 C 0.7859 0.11231 0.29877 0.0
C2567 C 0.79271 0.12563 0.23775 0.0
C2568 C 0.82808 0.0928 0.26681 0.0
C2569 C 0.82176 0.0773 0.26247 0.0
C2570 C 0.81765 0.10649 0.26874 0.0
C2571 C 0.80046 0.10464 0.26636 0.0
C2572 C 0.794 0.08902 0.26206 0.0
C2573 C 0.80471 0.07556 0.26014 0.0
C2574 C 0.82504 0.12296 0.27324 0.0
C2575 C 0.77574 0.08651 0.2595 0.0
H2576 H 0.76552 0.13856 0.29713 0.0
H2577 H 0.77137 0.14986 0.24577 0.0
H2578 H 0.78193 0.09941 0.2966 0.0
H2579 H 0.79938 0.11208 0.30103 0.0
H2580 H 0.77965 0.11697 0.31003 0.0
H2581 H 0.78871 0.13475 0.22836 0.0
H2582 H 0.80635 0.12586 0.23853 0.0
H2583 H 0.7891 0.11315 0.23351 0.0
H2584 H 0.84125 0.09429 0.26845 0.0
H2585 H 0.7997 0.06359 0.25703 0.0
H2586 H 0.81956 0.1275 0.28492 0.0
H2587 H 0.82213 0.13216 0.26356 0.0
H2588 H 0.83863 0.12233 0.27474 0.0
H2589 H 0.76893 0.08992 0.27086 0.0
H2590 H 0.77267 0.07356 0.25628 0.0
H2591 H 0.77127 0.09467 0.24949 0.0
C2592 C 0.38689 0.97846 0.96168 0.0
C2593 C 0.39802 0.98257 0.97425 0.0
C2594 C 0.37302 0.96862 0.96489 0.0
C2595 C 0.37024 0.96263 0.98104 0.0
C2596 C 0.38141 0.96677 0.9938 0.0
C2597 C 0.39513 0.97674 0.99026 0.0
C2598 C 0.36132 0.96465 0.95098 0.0
C2599 C 0.37898 0.9605 0.01114 0.0
C2600 C 0.3269 0.94867 0.99233 0.0
C2601 C 0.32798 0.93152 0.99026 0.0
C2602 C 0.34055 0.95893 0.98944 0.0
C2603 C 0.35574 0.95189 0.98451 0.0
C2604 C 0.35699 0.9346 0.98259 0.0
C2605 C 0.34311 0.92466 0.9854 0.0
C2606 C 0.3387 0.97732 0.99156 0.0
C2607 C 0.37298 0.92661 0.97741 0.0
H2608 H 0.38893 0.98311 0.94933 0.0
H2609 H 0.40377 0.97974 0.99999 0.0
H2610 H 0.36068 0.95112 0.94916 0.0
H2611 H 0.34871 0.96892 0.95412 0.0
H2612 H 0.36509 0.97047 0.93918 0.0
H2613 H 0.38869 0.96496 0.01969 0.0
H2614 H 0.3668 0.96449 0.01589 0.0
H2615 H 0.37906 0.94683 0.01118 0.0
H2616 H 0.31539 0.95411 0.99634 0.0
H2617 H 0.34406 0.91148 0.98349 0.0
H2618 H 0.34156 0.98366 0.9798 0.0
H2619 H 0.34759 0.98187 1.00089 0.0
H2620 H 0.32606 0.98086 0.99547 0.0
H2621 H 0.3766 0.93108 0.96501 0.0
H2622 H 0.37209 0.91296 0.97703 0.0
H2623 H 0.38298 0.93009 0.98606 0.0
C2624 C 0.2321 0.36549 0.28562 0.0
C2625 C 0.23642 0.35608 0.27178 0.0
C2626 C 0.22135 0.379 0.28424 0.0
C2627 C 0.21467 0.38314 0.26866 0.0
C2628 C 0.2188 0.37354 0.25469 0.0
C2629 C 0.22966 0.36017 0.25641 0.0
C2630 C 0.21736 0.389 0.29941 0.0
C2631 C 0.21181 0.37744 0.23789 0.0
C2632 C 0.17612 0.40984 0.26702 0.0
C2633 C 0.1827 0.42533 0.26307 0.0
C2634 C 0.18637 0.396 0.2689 0.0
C2635 C 0.20362 0.39771 0.2669 0.0
C2636 C 0.21034 0.41335 0.26305 0.0
C2637 C 0.1998 0.42694 0.26113 0.0
C2638 C 0.17871 0.37951 0.27285 0.0
C2639 C 0.22868 0.41573 0.26098 0.0
H2640 H 0.23741 0.3625 0.2975 0.0
H2641 H 0.23278 0.35282 0.2457 0.0
H2642 H 0.22148 0.40192 0.29765 0.0
H2643 H 0.20384 0.3893 0.30141 0.0
H2644 H 0.22334 0.384 0.31066 0.0
H2645 H 0.21589 0.36851 0.22836 0.0
H2646 H 0.19814 0.37738 0.23839 0.0
H2647 H 0.21567 0.38998 0.23406 0.0
H2648 H 0.1629 0.40848 0.26837 0.0
H2649 H 0.20498 0.43892 0.25828 0.0
H2650 H 0.18391 0.37462 0.2845 0.0
H2651 H 0.18172 0.37053 0.26299 0.0
H2652 H 0.1651 0.38026 0.27409 0.0
H2653 H 0.23519 0.41188 0.27236 0.0
H2654 H 0.23196 0.42874 0.25825 0.0
H2655 H 0.23327 0.40785 0.25081 0.0
C2656 C 0.1125 0.02085 0.49814 0.0
C2657 C 0.10815 0.01462 0.4826 0.0
C2658 C 0.12574 0.03183 0.49998 0.0
C2659 C 0.13491 0.03671 0.48596 0.0
C2660 C 0.13051 0.03059 0.47023 0.0
C2661 C 0.11718 0.01964 0.46873 0.0
C2662 C 0.12996 0.03817 0.51696 0.0
C2663 C 0.14001 0.03545 0.45499 0.0
C2664 C 0.1606 0.07584 0.48871 0.0
C2665 C 0.17643 0.06954 0.49177 0.0
C2666 C 0.147 0.06532 0.48675 0.0
C2667 C 0.14925 0.04805 0.48781 0.0
C2668 C 0.16518 0.0416 0.4908 0.0
C2669 C 0.17856 0.05241 0.49277 0.0
C2670 C 0.13021 0.07268 0.48356 0.0
C2671 C 0.16809 0.02327 0.49204 0.0
H2672 H 0.10543 0.01722 0.50887 0.0
H2673 H 0.11403 0.01474 0.45672 0.0
H2674 H 0.14275 0.03459 0.52021 0.0
H2675 H 0.12941 0.05183 0.51711 0.0
H2676 H 0.1215 0.03334 0.52657 0.0
H2677 H 0.13482 0.02987 0.44362 0.0
H2678 H 0.13999 0.04904 0.45359 0.0
H2679 H 0.15305 0.03152 0.45622 0.0
H2680 H 0.15887 0.08904 0.48769 0.0
H2681 H 0.19067 0.04742 0.49536 0.0
H2682 H 0.12151 0.06885 0.49338 0.0
H2683 H 0.12525 0.06801 0.47171 0.0
H2684 H 0.13053 0.08635 0.48309 0.0
H2685 H 0.16074 0.01809 0.50234 0.0
H2686 H 0.18127 0.02021 0.49411 0.0
H2687 H 0.16392 0.01709 0.48058 0.0
C2688 C 0.73971 0.13248 0.72709 0.0
C2689 C 0.73261 0.14771 0.723 0.0
C2690 C 0.72986 0.11861 0.73031 0.0
C2691 C 0.71248 0.12 0.7295 0.0
C2692 C 0.70524 0.13538 0.72558 0.0
C2693 C 0.71538 0.14903 0.72235 0.0
C2694 C 0.73806 0.10241 0.73436 0.0
C2695 C 0.68676 0.13741 0.72472 0.0
C2696 C 0.68696 0.08142 0.72195 0.0
C2697 C 0.68135 0.07762 0.73787 0.0
C2698 C 0.69716 0.0951 0.71909 0.0
C2699 C 0.70186 0.1053 0.73244 0.0
C2700 C 0.69628 0.10153 0.74854 0.0
C2701 C 0.68613 0.08773 0.75106 0.0
C2702 C 0.70292 0.09864 0.70175 0.0
C2703 C 0.70094 0.11215 0.76308 0.0
H2704 H 0.75301 0.13133 0.72744 0.0
H2705 H 0.70981 0.16081 0.71943 0.0
H2706 H 0.73362 0.09781 0.74644 0.0
H2707 H 0.73471 0.09305 0.72498 0.0
H2708 H 0.7517 0.10345 0.73482 0.0
H2709 H 0.68307 0.15028 0.72185 0.0
H2710 H 0.68163 0.12916 0.7151 0.0
H2711 H 0.6811 0.13379 0.73662 0.0
H2712 H 0.68353 0.07354 0.71173 0.0
H2713 H 0.6817 0.08499 0.76336 0.0
H2714 H 0.71658 0.0987 0.7013 0.0
H2715 H 0.69867 0.11104 0.69788 0.0
H2716 H 0.69828 0.08943 0.69274 0.0
H2717 H 0.71455 0.11272 0.76428 0.0
H2718 H 0.69571 0.10746 0.77483 0.0
H2719 H 0.69651 0.12493 0.76111 0.0
C2720 C 0.38442 0.01387 0.52233 0.0
C2721 C 0.39899 0.02087 0.52849 0.0
C2722 C 0.37047 0.0236 0.51909 0.0
C2723 C 0.37101 0.04076 0.52221 0.0
C2724 C 0.38568 0.04793 0.52833 0.0
C2725 C 0.3995 0.03794 0.53131 0.0
C2726 C 0.35508 0.01549 0.5125 0.0
C2727 C 0.38676 0.06617 0.53184 0.0
C2728 C 0.33969 0.06893 0.50155 0.0
C2729 C 0.32808 0.0712 0.51415 0.0
C2730 C 0.35365 0.05896 0.50394 0.0
C2731 C 0.35613 0.05117 0.51936 0.0
C2732 C 0.34446 0.05344 0.53214 0.0
C2733 C 0.33056 0.06337 0.52936 0.0
C2734 C 0.36572 0.05672 0.48996 0.0
C2735 C 0.34674 0.04549 0.5488 0.0
H2736 H 0.3838 1.00068 0.52031 0.0
H2737 H 0.41076 0.04354 0.53579 0.0
H2738 H 0.34484 0.01704 0.52142 0.0
H2739 H 0.35124 0.0215 0.50084 0.0
H2740 H 0.35684 0.00212 0.51017 0.0
H2741 H 0.39908 0.06985 0.53653 0.0
H2742 H 0.38411 0.07329 0.52048 0.0
H2743 H 0.37734 0.06968 0.54111 0.0
H2744 H 0.33774 0.07479 0.4897 0.0
H2745 H 0.32175 0.06524 0.53922 0.0
H2746 H 0.36689 0.04345 0.48691 0.0
H2747 H 0.3781 0.06112 0.49374 0.0
H2748 H 0.36193 0.06349 0.47869 0.0
H2749 H 0.34753 0.03191 0.54743 0.0
H2750 H 0.3365 0.04842 0.55741 0.0
H2751 H 0.35849 0.04969 0.55439 0.0
C2752 C 0.62558 0.49516 0.52231 0.0
C2753 C 0.60931 0.48949 0.52344 0.0
C2754 C 0.63879 0.48409 0.5207 0.0
C2755 C 0.63562 0.46695 0.51993 0.0
C2756 C 0.61919 0.46116 0.52105 0.0
C2757 C 0.60624 0.4725 0.52293 0.0
C2758 C 0.65614 0.49075 0.51984 0.0
C2759 C 0.61528 0.443 0.52002 0.0
C2760 C 0.6685 0.44025 0.49985 0.0
C2761 C 0.67631 0.43327 0.51359 0.0
C2762 C 0.65508 0.45101 0.50173 0.0
C2763 C 0.6495 0.45512 0.51775 0.0
C2764 C 0.65737 0.44812 0.53167 0.0
C2765 C 0.67059 0.43717 0.52942 0.0
C2766 C 0.64686 0.45799 0.48657 0.0
C2767 C 0.65197 0.45238 0.54896 0.0
H2768 H 0.62799 0.50828 0.52289 0.0
H2769 H 0.59364 0.4681 0.52367 0.0
H2770 H 0.66377 0.4852 0.52973 0.0
H2771 H 0.66185 0.48732 0.50791 0.0
H2772 H 0.65655 0.50438 0.52111 0.0
H2773 H 0.60186 0.44051 0.52107 0.0
H2774 H 0.61974 0.43797 0.50811 0.0
H2775 H 0.62177 0.43624 0.52996 0.0
H2776 H 0.67279 0.43711 0.48759 0.0
H2777 H 0.6767 0.4319 0.54006 0.0
H2778 H 0.64793 0.47161 0.48655 0.0
H2779 H 0.63352 0.45497 0.48669 0.0
H2780 H 0.65234 0.45316 0.47499 0.0
H2781 H 0.65312 0.46585 0.55098 0.0
H2782 H 0.65935 0.44587 0.55847 0.0
H2783 H 0.6388 0.44914 0.55069 0.0
C2784 C 0.73015 0.25691 0.37611 0.0
C2785 C 0.72901 0.26281 0.35991 0.0
C2786 C 0.73154 0.2678 0.38949 0.0
C2787 C 0.73209 0.285 0.38658 0.0
C2788 C 0.73096 0.29102 0.37023 0.0
C2789 C 0.72929 0.27986 0.35711 0.0
C2790 C 0.73241 0.26089 0.40674 0.0
C2791 C 0.73177 0.30925 0.36659 0.0
C2792 C 0.7221 0.31434 0.42179 0.0
C2793 C 0.73786 0.3184 0.42758 0.0
C2794 C 0.72002 0.30344 0.4085 0.0
C2795 C 0.73406 0.29666 0.40064 0.0
C2796 C 0.75001 0.30091 0.40631 0.0
C2797 C 0.75171 0.31161 0.41981 0.0
C2798 C 0.70281 0.299 0.40301 0.0
C2799 C 0.76529 0.29419 0.39809 0.0
H2800 H 0.72976 0.24374 0.37831 0.0
H2801 H 0.72855 0.28443 0.34458 0.0
H2802 H 0.74428 0.26437 0.41255 0.0
H2803 H 0.72242 0.26622 0.41441 0.0
H2804 H 0.73129 0.24725 0.40694 0.0
H2805 H 0.73075 0.31192 0.35321 0.0
H2806 H 0.72171 0.31578 0.37314 0.0
H2807 H 0.74359 0.31436 0.37118 0.0
H2808 H 0.71137 0.31947 0.42788 0.0
H2809 H 0.76392 0.31487 0.42416 0.0
H2810 H 0.70099 0.28549 0.40393 0.0
H2811 H 0.70106 0.30244 0.3899 0.0
H2812 H 0.6932 0.30524 0.41049 0.0
H2813 H 0.76544 0.28056 0.39897 0.0
H2814 H 0.77679 0.29905 0.40371 0.0
H2815 H 0.76522 0.2974 0.3848 0.0
C2816 C 0.52385 0.01422 0.89321 0.0
C2817 C 0.51948 0.03046 0.89723 0.0
C2818 C 0.53385 0.01079 0.87949 0.0
C2819 C 0.53966 0.0239 0.86955 0.0
C2820 C 0.53519 0.0403 0.87347 0.0
C2821 C 0.52515 0.04338 0.88723 0.0
C2822 C 0.53836 0.99313 0.87573 0.0
C2823 C 0.54106 0.05463 0.86316 0.0
C2824 C 0.57802 0.01739 0.84338 0.0
C2825 C 0.57126 0.0148 0.82767 0.0
C2826 C 0.56788 0.02025 0.85712 0.0
C2827 C 0.55054 0.02052 0.85514 0.0
C2828 C 0.54363 0.01781 0.83935 0.0
C2829 C 0.55406 0.015 0.82582 0.0
C2830 C 0.57573 0.02315 0.87373 0.0
C2831 C 0.52521 0.01792 0.83674 0.0
H2832 H 0.51969 0.00418 0.90097 0.0
H2833 H 0.52163 0.05594 0.89008 0.0
H2834 H 0.53448 0.98992 0.86303 0.0
H2835 H 0.55192 0.99158 0.87634 0.0
H2836 H 0.53255 0.98432 0.88445 0.0
H2837 H 0.53643 0.06664 0.86781 0.0
H2838 H 0.55473 0.05497 0.86302 0.0
H2839 H 0.53692 0.05307 0.85022 0.0
H2840 H 0.59128 0.01746 0.84489 0.0
H2841 H 0.54873 0.01278 0.81378 0.0
H2842 H 0.57106 0.01403 0.88277 0.0
H2843 H 0.57234 0.03556 0.87836 0.0
H2844 H 0.58938 0.02224 0.87326 0.0
H2845 H 0.51932 0.00847 0.84468 0.0
H2846 H 0.52178 0.01545 0.82372 0.0
H2847 H 0.52006 0.03005 0.84038 0.0
C2848 C 0.2555 0.22956 0.36186 0.0
C2849 C 0.27093 0.23604 0.35752 0.0
C2850 C 0.25382 0.21865 0.3752 0.0
C2851 C 0.2679 0.21416 0.38448 0.0
C2852 C 0.28353 0.22055 0.38008 0.0
C2853 C 0.28486 0.23138 0.36663 0.0
C2854 C 0.23696 0.21201 0.37941 0.0
C2855 C 0.29881 0.21615 0.38972 0.0
C2856 C 0.26101 0.19915 0.42834 0.0
C2857 C 0.26247 0.18202 0.42656 0.0
C2858 C 0.26287 0.20974 0.41478 0.0
C2859 C 0.2662 0.20305 0.39901 0.0
C2860 C 0.26773 0.18577 0.39713 0.0
C2861 C 0.26591 0.17547 0.41093 0.0
C2862 C 0.26128 0.2281 0.41734 0.0
C2863 C 0.27115 0.17815 0.38051 0.0
H2864 H 0.24472 0.23292 0.35473 0.0
H2865 H 0.29679 0.23648 0.36346 0.0
H2866 H 0.23714 0.19835 0.37921 0.0
H2867 H 0.23349 0.21584 0.39207 0.0
H2868 H 0.22732 0.2164 0.37074 0.0
H2869 H 0.31009 0.22189 0.38451 0.0
H2870 H 0.29743 0.22022 0.4027 0.0
H2871 H 0.3005 0.20258 0.38989 0.0
H2872 H 0.25859 0.20431 0.44042 0.0
H2873 H 0.26688 0.16223 0.40944 0.0
H2874 H 0.25106 0.23299 0.40969 0.0
H2875 H 0.27273 0.23438 0.4133 0.0
H2876 H 0.25888 0.23135 0.43042 0.0
H2877 H 0.26117 0.18143 0.37176 0.0
H2878 H 0.27212 0.16452 0.38113 0.0
H2879 H 0.28281 0.18313 0.37539 0.0
C2880 C 0.47301 0.48069 0.89694 0.0
C2881 C 0.48997 0.47936 0.89396 0.0
C2882 C 0.46181 0.48274 0.88389 0.0
C2883 C 0.4677 0.48313 0.86746 0.0
C2884 C 0.48481 0.4815 0.86439 0.0
C2885 C 0.49575 0.47979 0.87769 0.0
C2886 C 0.44371 0.48474 0.88769 0.0
C2887 C 0.49156 0.48153 0.84705 0.0
C2888 C 0.4374 0.47406 0.83283 0.0
C2889 C 0.43424 0.48988 0.82666 0.0
C2890 C 0.44832 0.47166 0.84605 0.0
C2891 C 0.45602 0.48546 0.85347 0.0
C2892 C 0.45268 0.50149 0.84741 0.0
C2893 C 0.44196 0.50348 0.83397 0.0
C2894 C 0.45178 0.45436 0.85193 0.0
C2895 C 0.4604 0.51653 0.85516 0.0
H2896 H 0.46855 0.48049 0.90953 0.0
H2897 H 0.50885 0.4786 0.87537 0.0
H2898 H 0.43925 0.49671 0.88284 0.0
H2899 H 0.43651 0.47492 0.88149 0.0
H2900 H 0.44114 0.48423 0.90113 0.0
H2901 H 0.50511 0.47958 0.84674 0.0
H2902 H 0.48555 0.47171 0.83969 0.0
H2903 H 0.48874 0.49345 0.84099 0.0
H2904 H 0.43155 0.46351 0.82708 0.0
H2905 H 0.4394 0.51574 0.82931 0.0
H2906 H 0.44838 0.45313 0.86511 0.0
H2907 H 0.46516 0.45171 0.85094 0.0
H2908 H 0.44491 0.44495 0.84475 0.0
H2909 H 0.45736 0.51698 0.86849 0.0
H2910 H 0.45615 0.52815 0.84931 0.0
H2911 H 0.47401 0.51585 0.85413 0.0
C2912 C 0.71887 0.73295 0.13567 0.0
C2913 C 0.73259 0.737 0.14538 0.0
C2914 C 0.72029 0.72206 0.12229 0.0
C2915 C 0.73581 0.715 0.11853 0.0
C2916 C 0.74966 0.71888 0.1284 0.0
C2917 C 0.74789 0.72984 0.14168 0.0
C2918 C 0.70525 0.71831 0.11201 0.0
C2919 C 0.76638 0.71152 0.12488 0.0
C2920 C 0.7371 0.67628 0.09207 0.0
C2921 C 0.7412 0.68269 0.07654 0.0
C2922 C 0.73532 0.68663 0.10585 0.0
C2923 C 0.73763 0.70383 0.10406 0.0
C2924 C 0.74174 0.71039 0.08843 0.0
C2925 C 0.74352 0.69976 0.07489 0.0
C2926 C 0.73093 0.67916 0.12231 0.0
C2927 C 0.74433 0.72866 0.086 0.0
H2928 H 0.70705 0.73856 0.13834 0.0
H2929 H 0.7585 0.73272 0.14926 0.0
H2930 H 0.70732 0.72238 0.09912 0.0
H2931 H 0.70303 0.70483 0.11169 0.0
H2932 H 0.69401 0.72449 0.11679 0.0
H2933 H 0.77585 0.71553 0.13392 0.0
H2934 H 0.76563 0.69787 0.12511 0.0
H2935 H 0.77051 0.71513 0.11236 0.0
H2936 H 0.73506 0.66316 0.09344 0.0
H2937 H 0.74695 0.70482 0.06302 0.0
H2938 H 0.71913 0.68441 0.1268 0.0
H2939 H 0.74052 0.68226 0.13154 0.0
H2940 H 0.7297 0.66554 0.12168 0.0
H2941 H 0.73309 0.73549 0.08974 0.0
H2942 H 0.74726 0.73182 0.07302 0.0
H2943 H 0.75455 0.733 0.09397 0.0
C2944 C 0.99514 0.0188 0.12389 0.0
C2945 C 0.98933 0.02179 0.10789 0.0
C2946 C 0.98421 0.01718 0.13721 0.0
C2947 C 0.96703 0.01848 0.13447 0.0
C2948 C 0.96108 0.0215 0.11834 0.0
C2949 C 0.9723 0.02318 0.10526 0.0
C2950 C 0.99106 0.01411 0.15423 0.0
C2951 C 0.94285 0.02283 0.11489 0.0
C2952 C 0.93859 0.99903 0.16627 0.0
C2953 C 0.9336 0.01276 0.17554 0.0
C2954 C 0.94929 1.00075 0.15277 0.0
C2955 C 0.95529 0.01655 0.14847 0.0
C2956 C 0.95028 0.03047 0.15772 0.0
C2957 C 0.93946 0.02842 0.17108 0.0
C2958 C 0.9543 0.9856 0.14319 0.0
C2959 C 0.95642 0.04753 0.15356 0.0
H2960 H 0.0083 0.01793 0.12604 0.0
H2961 H 0.96772 0.02531 0.0929 0.0
H2962 H 0.98702 0.02403 0.16273 0.0
H2963 H 0.9862 0.00233 0.15916 0.0
H2964 H 0.00474 0.01357 0.15432 0.0
H2965 H 0.94022 0.02532 0.10168 0.0
H2966 H 0.93659 0.01121 0.11847 0.0
H2967 H 0.93737 0.03285 0.1224 0.0
H2968 H 0.93437 0.98685 0.16973 0.0
H2969 H 0.93549 0.03914 0.17798 0.0
H2970 H 0.96783 0.98385 0.14402 0.0
H2971 H 0.95122 0.98719 0.12997 0.0
H2972 H 0.94815 0.97427 0.14778 0.0
H2973 H 0.97007 0.04786 0.1543 0.0
H2974 H 0.95135 0.05708 0.16194 0.0
H2975 H 0.95299 0.05072 0.14072 0.0
C2976 C 0.28155 0.78671 0.14779 0.0
C2977 C 0.27895 0.76961 0.14732 0.0
C2978 C 0.2784 0.79665 0.13397 0.0
C2979 C 0.27229 0.78938 0.11934 0.0
C2980 C 0.26938 0.77219 0.11883 0.0
C2981 C 0.27283 0.76251 0.13277 0.0
C2982 C 0.28174 0.81492 0.135 0.0
C2983 C 0.26275 0.76399 0.10351 0.0
C2984 C 0.25112 0.8176 0.08844 0.0
C2985 C 0.2636 0.82006 0.07674 0.0
C2986 C 0.25369 0.80747 0.10225 0.0
C2987 C 0.26918 0.79976 0.10451 0.0
C2988 C 0.28182 0.80219 0.09272 0.0
C2989 C 0.27885 0.81223 0.07894 0.0
C2990 C 0.23984 0.80504 0.11442 0.0
C2991 C 0.29857 0.79435 0.09478 0.0
H2992 H 0.28596 0.79241 0.15903 0.0
H2993 H 0.27099 0.7493 0.13215 0.0
H2994 H 0.29083 0.81853 0.12545 0.0
H2995 H 0.27027 0.82192 0.13253 0.0
H2996 H 0.28658 0.81866 0.14725 0.0
H2997 H 0.26057 0.7506 0.1053 0.0
H2998 H 0.251 0.76988 0.09976 0.0
H2999 H 0.27157 0.76563 0.09319 0.0
H3000 H 0.23925 0.82348 0.08669 0.0
H3001 H 0.2886 0.81424 0.07004 0.0
H3002 H 0.24363 0.80955 0.12675 0.0
H3003 H 0.23702 0.79172 0.11567 0.0
H3004 H 0.22842 0.8116 0.11069 0.0
H3005 H 0.30427 0.79861 0.10645 0.0
H3006 H 0.30703 0.79735 0.08444 0.0
H3007 H 0.29732 0.78077 0.0956 0.0
C3008 C 0.0263 0.46027 0.11579 0.0
C3009 C 0.02074 0.4732 0.10575 0.0
C3010 C 0.03609 0.46332 0.12973 0.0
C3011 C 0.04045 0.47972 0.13376 0.0
C3012 C 0.03479 0.49286 0.12376 0.0
C3013 C 0.025 0.48944 0.10989 0.0
C3014 C 0.0418 0.44898 0.14011 0.0
C3015 C 0.03923 0.5105 0.12762 0.0
C3016 C 0.05427 0.48871 0.17767 0.0
C3017 C 0.0715 0.48886 0.17604 0.0
C3018 C 0.04402 0.48584 0.16401 0.0
C3019 C 0.05114 0.48308 0.14832 0.0
C3020 C 0.0685 0.4833 0.14657 0.0
C3021 C 0.07845 0.48616 0.16044 0.0
C3022 C 0.02557 0.48574 0.16638 0.0
C3023 C 0.07657 0.48038 0.13006 0.0
H3024 H 0.02286 0.44771 0.11283 0.0
H3025 H 0.02092 0.49949 0.10211 0.0
H3026 H 0.05546 0.4486 0.14042 0.0
H3027 H 0.0375 0.45054 0.15299 0.0
H3028 H 0.03721 0.43698 0.13539 0.0
H3029 H 0.03357 0.51933 0.11882 0.0
H3030 H 0.03514 0.51371 0.14026 0.0
H3031 H 0.05281 0.51206 0.12724 0.0
H3032 H 0.04878 0.49101 0.18962 0.0
H3033 H 0.09174 0.48601 0.15909 0.0
H3034 H 0.02046 0.47363 0.16262 0.0
H3035 H 0.01979 0.49522 0.15841 0.0
H3036 H 0.02197 0.48816 0.17936 0.0
H3037 H 0.07324 0.46797 0.1254 0.0
H3038 H 0.09021 0.48129 0.13071 0.0
H3039 H 0.07201 0.48949 0.12095 0.0
C3040 C 0.35358 0.7232 0.28805 0.0
C3041 C 0.35452 0.72462 0.27084 0.0
C3042 C 0.36737 0.7262 0.29805 0.0
C3043 C 0.38249 0.73086 0.2907 0.0
C3044 C 0.38347 0.73262 0.27337 0.0
C3045 C 0.3695 0.72943 0.26365 0.0
C3046 C 0.36582 0.7242 0.31648 0.0
C3047 C 0.39935 0.73761 0.26507 0.0
C3048 C 0.41474 0.75136 0.31791 0.0
C3049 C 0.42534 0.73815 0.32146 0.0
C3050 C 0.40084 0.74922 0.30779 0.0
C3051 C 0.39738 0.73347 0.30113 0.0
C3052 C 0.40804 0.72011 0.30462 0.0
C3053 C 0.42189 0.72262 0.31466 0.0
C3054 C 0.3898 0.76378 0.30432 0.0
C3055 C 0.40477 0.70311 0.29778 0.0
H3056 H 0.342 0.71977 0.29375 0.0
H3057 H 0.37042 0.73037 0.25036 0.0
H3058 H 0.37444 0.71452 0.32083 0.0
H3059 H 0.36927 0.73583 0.32277 0.0
H3060 H 0.35312 0.72077 0.3203 0.0
H3061 H 0.39791 0.73906 0.25153 0.0
H3062 H 0.40386 0.74942 0.27028 0.0
H3063 H 0.40898 0.7282 0.26744 0.0
H3064 H 0.41714 0.76335 0.32325 0.0
H3065 H 0.43014 0.7124 0.31708 0.0
H3066 H 0.37722 0.7613 0.30903 0.0
H3067 H 0.38876 0.76575 0.29083 0.0
H3068 H 0.39443 0.7753 0.31008 0.0
H3069 H 0.39253 0.69869 0.30198 0.0
H3070 H 0.41425 0.69403 0.30163 0.0
H3071 H 0.40445 0.70356 0.28412 0.0
C3072 C 0.97362 0.39933 0.96439 0.0
C3073 C 0.97621 0.39879 0.98149 0.0
C3074 C 0.97667 0.38551 0.95441 0.0
C3075 C 0.98268 0.37082 0.96164 0.0
C3076 C 0.98563 0.37026 0.97882 0.0
C3077 C 0.98226 0.38418 0.98854 0.0
C3078 C 0.97328 0.38659 0.93615 0.0
C3079 C 0.99216 0.35487 0.98698 0.0
C3080 C 0.97557 0.33032 0.93913 0.0
C3081 C 0.99078 0.32785 0.9313 0.0
C3082 C 0.97277 0.34426 0.949 0.0
C3083 C 0.98555 0.35593 0.95125 0.0
C3084 C 1.00098 0.35343 0.94349 0.0
C3085 C 0.00337 0.33947 0.93352 0.0
C3086 C 0.95608 0.34658 0.95688 0.0
C3087 C 0.01498 0.36546 0.94577 0.0
H3088 H 0.96926 0.4106 0.95873 0.0
H3089 H 0.98408 0.3835 0.00175 0.0
H3090 H 0.98469 0.38393 0.92911 0.0
H3091 H 0.96403 0.37718 0.93258 0.0
H3092 H 0.96863 0.39892 0.93244 0.0
H3093 H 0.99451 0.35666 1.00034 0.0
H3094 H 0.9832 0.34466 0.98547 0.0
H3095 H 0.00381 0.35096 0.98098 0.0
H3096 H 0.96574 0.32148 0.93729 0.0
H3097 H 0.0152 0.33752 0.92763 0.0
H3098 H 0.95055 0.35836 0.95267 0.0
H3099 H 0.95738 0.34734 0.97046 0.0
H3100 H 0.94744 0.33639 0.95388 0.0
H3101 H 0.01127 0.37783 0.9413 0.0
H3102 H 0.02629 0.36161 0.93908 0.0
H3103 H 0.01795 0.36668 0.95905 0.0
C3104 C 0.62884 0.77307 0.25741 0.0
C3105 C 0.64505 0.77353 0.26335 0.0
C3106 C 0.61542 0.77155 0.26824 0.0
C3107 C 0.61831 0.77014 0.28539 0.0
C3108 C 0.63468 0.7706 0.29144 0.0
C3109 C 0.64785 0.77245 0.28035 0.0
C3110 C 0.59815 0.77142 0.26131 0.0
C3111 C 0.6383 0.76886 0.30961 0.0
C3112 C 0.5833 0.77938 0.31522 0.0
C3113 C 0.57715 0.76356 0.31844 0.0
C3114 C 0.59664 0.78172 0.30443 0.0
C3115 C 0.60421 0.76788 0.29695 0.0
C3116 C 0.59819 0.75186 0.30038 0.0
C3117 C 0.58464 0.74991 0.31096 0.0
C3118 C 0.60249 0.79901 0.30086 0.0
C3119 C 0.6061 0.73677 0.29291 0.0
H3120 H 0.62665 0.77408 0.24427 0.0
H3121 H 0.66039 0.77267 0.28494 0.0
H3122 H 0.59209 0.75951 0.26416 0.0
H3123 H 0.59069 0.78127 0.26717 0.0
H3124 H 0.59798 0.77326 0.24775 0.0
H3125 H 0.6517 0.7695 0.31232 0.0
H3126 H 0.63194 0.77871 0.31662 0.0
H3127 H 0.63348 0.7569 0.31416 0.0
H3128 H 0.57743 0.78995 0.32089 0.0
H3129 H 0.57999 0.73766 0.31357 0.0
H3130 H 0.60159 0.80153 0.28745 0.0
H3131 H 0.61564 0.80032 0.30435 0.0
H3132 H 0.59521 0.80846 0.30758 0.0
H3133 H 0.60519 0.7373 0.27928 0.0
H3134 H 0.60027 0.72517 0.29722 0.0
H3135 H 0.6194 0.73642 0.29607 0.0
C3136 C 0.02383 0.1053 0.97065 0.0
C3137 C 0.02222 0.10766 0.9877 0.0
C3138 C 0.02212 0.11853 0.95961 0.0
C3139 C 0.0188 0.13452 0.96576 0.0
C3140 C 0.01734 0.137 0.98297 0.0
C3141 C 0.01904 0.12355 0.99371 0.0
C3142 C 0.02365 0.11536 0.94134 0.0
C3143 C 0.01394 0.15388 0.99003 0.0
C3144 C 0.02799 0.17167 0.93865 0.0
C3145 C 0.01226 0.17575 0.9327 0.0
C3146 C 0.03031 0.15827 0.94937 0.0
C3147 C 0.0166 0.14863 0.95421 0.0
C3148 C 1.00072 0.15261 0.94819 0.0
C3149 C 0.99873 0.16613 0.93758 0.0
C3150 C 0.04744 0.15445 0.95554 0.0
C3151 C 0.98578 0.14263 0.95305 0.0
H3152 H 0.02613 0.09303 0.96591 0.0
H3153 H 0.01802 0.12551 0.00688 0.0
H3154 H 0.01197 0.1187 0.93506 0.0
H3155 H 0.03349 0.12321 0.93603 0.0
H3156 H 0.02652 0.10227 0.93856 0.0
H3157 H 0.01339 0.15378 0.00371 0.0
H3158 H 0.02368 0.16262 0.98611 0.0
H3159 H 0.00205 0.15862 0.98523 0.0
H3160 H 0.03856 0.17886 0.93478 0.0
H3161 H 0.9865 0.16931 0.93328 0.0
H3162 H 0.05097 0.14175 0.95192 0.0
H3163 H 0.04769 0.15498 0.9692 0.0
H3164 H 0.0568 0.16315 0.95065 0.0
H3165 H 0.98765 0.1295 0.94973 0.0
H3166 H 0.97434 0.14709 0.94698 0.0
H3167 H 0.98403 0.14319 0.96659 0.0
C3168 C 0.35461 0.27377 0.22077 0.0
C3169 C 0.35678 0.27058 0.23763 0.0
C3170 C 0.36778 0.27237 0.20962 0.0
C3171 C 0.38352 0.26756 0.21543 0.0
C3172 C 0.38581 0.26432 0.23242 0.0
C3173 C 0.37245 0.26593 0.2433 0.0
C3174 C 0.36486 0.27598 0.19161 0.0
C3175 C 0.40239 0.25915 0.23911 0.0
C3176 C 0.41434 0.24915 0.18527 0.0
C3177 C 0.42489 0.26253 0.18228 0.0
C3178 C 0.40079 0.25063 0.19594 0.0
C3179 C 0.39762 0.2659 0.20377 0.0
C3180 C 0.40809 0.2795 0.20068 0.0
C3181 C 0.42162 0.27764 0.19004 0.0
C3182 C 0.38993 0.23583 0.19894 0.0
C3183 C 0.40511 0.296 0.20876 0.0
H3184 H 0.34252 0.27716 0.21622 0.0
H3185 H 0.37435 0.26371 0.25633 0.0
H3186 H 0.37326 0.28591 0.18742 0.0
H3187 H 0.36766 0.26489 0.18412 0.0
H3188 H 0.35196 0.2798 0.1891 0.0
H3189 H 0.40209 0.25695 0.25261 0.0
H3190 H 0.40655 0.24771 0.2329 0.0
H3191 H 0.41169 0.26881 0.23647 0.0
H3192 H 0.41659 0.2375 0.17915 0.0
H3193 H 0.42981 0.28799 0.18803 0.0
H3194 H 0.37702 0.23873 0.19549 0.0
H3195 H 0.38995 0.23266 0.21223 0.0
H3196 H 0.394 0.22486 0.19183 0.0
H3197 H 0.3925 0.30041 0.20586 0.0
H3198 H 0.4141 0.30548 0.2047 0.0
H3199 H 0.40593 0.29473 0.22234 0.0
C3200 C 0.53619 0.3857 0.01997 0.0
C3201 C 0.5222 0.39473 0.0153 0.0
C3202 C 0.53492 0.37216 0.03068 0.0
C3203 C 0.51929 0.36754 0.03691 0.0
C3204 C 0.50515 0.37669 0.03237 0.0
C3205 C 0.50677 0.39015 0.02161 0.0
C3206 C 0.55028 0.36268 0.03518 0.0
C3207 C 0.48828 0.37223 0.03882 0.0
C3208 C 0.51299 0.3236 0.05201 0.0
C3209 C 0.51426 0.32548 0.06915 0.0
C3210 C 0.5147 0.33716 0.04139 0.0
C3211 C 0.51769 0.35301 0.04804 0.0
C3212 C 0.51905 0.35498 0.06533 0.0
C3213 C 0.51734 0.3412 0.07566 0.0
C3214 C 0.51328 0.33452 0.02303 0.0
C3215 C 0.52215 0.37168 0.07291 0.0
H3216 H 0.54813 0.38902 0.01499 0.0
H3217 H 0.49594 0.39721 0.01824 0.0
H3218 H 0.55189 0.36255 0.04876 0.0
H3219 H 0.54907 0.34968 0.03113 0.0
H3220 H 0.56154 0.368 0.02949 0.0
H3221 H 0.47855 0.38072 0.03428 0.0
H3222 H 0.48507 0.35949 0.03503 0.0
H3223 H 0.48829 0.3725 0.05249 0.0
H3224 H 0.51083 0.31147 0.04688 0.0
H3225 H 0.51813 0.34278 0.0889 0.0
H3226 H 0.52473 0.33868 0.01682 0.0
H3227 H 0.503 0.34202 0.01803 0.0
H3228 H 0.51108 0.3214 0.01981 0.0
H3229 H 0.53376 0.37696 0.068 0.0
H3230 H 0.52303 0.37112 0.08656 0.0
H3231 H 0.51205 0.38026 0.06954 0.0
C3232 C 0.63928 0.21698 0.22988 0.0
C3233 C 0.64657 0.231 0.23695 0.0
C3234 C 0.62599 0.21837 0.21886 0.0
C3235 C 0.61962 0.23414 0.21498 0.0
C3236 C 0.62694 0.24834 0.22198 0.0
C3237 C 0.64039 0.24661 0.23274 0.0
C3238 C 0.61866 0.20294 0.2115 0.0
C3239 C 0.62043 0.26537 0.21827 0.0
C3240 C 0.59347 0.24013 0.1765 0.0
C3241 C 0.5774 0.23969 0.18294 0.0
C3242 C 0.6073 0.23807 0.18672 0.0
C3243 C 0.60507 0.2358 0.20387 0.0
C3244 C 0.58894 0.23536 0.21047 0.0
C3245 C 0.57533 0.23715 0.19993 0.0
C3246 C 0.6243 0.23843 0.17918 0.0
C3247 C 0.58604 0.23311 0.22872 0.0
H3248 H 0.64374 0.20485 0.23318 0.0
H3249 H 0.64608 0.25756 0.23783 0.0
H3250 H 0.60566 0.20161 0.21553 0.0
H3251 H 0.6186 0.20382 0.19786 0.0
H3252 H 0.62552 0.19168 0.21514 0.0
H3253 H 0.62749 0.27517 0.22473 0.0
H3254 H 0.62096 0.26776 0.20483 0.0
H3255 H 0.60732 0.26625 0.22203 0.0
H3256 H 0.5953 0.24233 0.16346 0.0
H3257 H 0.56302 0.23646 0.20505 0.0
H3258 H 0.63108 0.22699 0.18236 0.0
H3259 H 0.63143 0.24892 0.18428 0.0
H3260 H 0.62392 0.23964 0.16555 0.0
H3261 H 0.59145 0.22127 0.23288 0.0
H3262 H 0.57273 0.23319 0.23193 0.0
H3263 H 0.59227 0.24309 0.23567 0.0
C3264 C 0.47546 0.10264 0.03904 0.0
C3265 C 0.47487 0.10403 0.02183 0.0
C3266 C 0.47856 0.11644 0.04902 0.0
C3267 C 0.48097 0.13206 0.04162 0.0
C3268 C 0.48049 0.13352 0.02423 0.0
C3269 C 0.47753 0.11948 0.01455 0.0
C3270 C 0.47919 0.11432 0.06749 0.0
C3271 C 0.48282 0.14997 0.01587 0.0
C3272 C 0.47265 0.17008 0.06773 0.0
C3273 C 0.48864 0.17516 0.07198 0.0
C3274 C 0.47 0.15617 0.05778 0.0
C3275 C 0.48365 0.14692 0.05208 0.0
C3276 C 0.49981 0.15187 0.0564 0.0
C3277 C 0.50212 0.16595 0.0662 0.0
C3278 C 0.45257 0.15135 0.05339 0.0
C3279 C 0.51468 0.14228 0.05064 0.0
H3280 H 0.47361 0.09069 0.04472 0.0
H3281 H 0.47691 0.12065 1.00126 0.0
H3282 H 0.49118 0.11878 0.0723 0.0
H3283 H 0.46941 0.12185 0.07337 0.0
H3284 H 0.47752 0.10127 0.07129 0.0
H3285 H 0.48237 0.14898 0.00223 0.0
H3286 H 0.47308 0.15865 0.01995 0.0
H3287 H 0.49484 0.1554 0.01946 0.0
H3288 H 0.46213 0.17688 0.07233 0.0
H3289 H 0.51453 0.16987 0.06917 0.0
H3290 H 0.44988 0.13881 0.05811 0.0
H3291 H 0.45112 0.15097 0.0398 0.0
H3292 H 0.44332 0.16003 0.05853 0.0
H3293 H 0.51376 0.12929 0.05481 0.0
H3294 H 0.52641 0.14755 0.05533 0.0
H3295 H 0.51512 0.14213 0.03698 0.0
C3296 C 0.26913 0.36829 0.71858 0.0
C3297 C 0.26577 0.35808 0.73211 0.0
C3298 C 0.27993 0.38174 0.72003 0.0
C3299 C 0.28774 0.38491 0.73531 0.0
C3300 C 0.28456 0.37449 0.74895 0.0
C3301 C 0.27352 0.36128 0.74722 0.0
C3302 C 0.2828 0.3927 0.70528 0.0
C3303 C 0.29286 0.37728 0.76537 0.0
C3304 C 0.32669 0.41102 0.73511 0.0
C3305 C 0.3208 0.42636 0.74057 0.0
C3306 C 0.31612 0.39741 0.73347 0.0
C3307 C 0.29915 0.3992 0.73708 0.0
C3308 C 0.29306 0.41465 0.74244 0.0
C3309 C 0.30397 0.42797 0.74426 0.0
C3310 C 0.32311 0.3811 0.72788 0.0
C3311 C 0.27502 0.41711 0.74628 0.0
H3312 H 0.26304 0.36593 0.70693 0.0
H3313 H 0.27107 0.3533 0.75765 0.0
H3314 H 0.27913 0.40553 0.70825 0.0
H3315 H 0.29609 0.39291 0.70212 0.0
H3316 H 0.27576 0.38857 0.69429 0.0
H3317 H 0.28934 0.36784 0.77464 0.0
H3318 H 0.30644 0.37705 0.76382 0.0
H3319 H 0.28954 0.38961 0.77023 0.0
H3320 H 0.33959 0.40964 0.73194 0.0
H3321 H 0.29928 0.43962 0.74878 0.0
H3322 H 0.31718 0.37725 0.71619 0.0
H3323 H 0.32041 0.37145 0.73717 0.0
H3324 H 0.33665 0.38164 0.72594 0.0
H3325 H 0.26744 0.41381 0.73538 0.0
H3326 H 0.27216 0.43001 0.74984 0.0
H3327 H 0.27126 0.40883 0.75648 0.0
C3328 C 0.28356 0.64754 0.7751 0.0
C3329 C 0.26679 0.64556 0.77131 0.0
C3330 C 0.29468 0.63433 0.77367 0.0
C3331 C 0.28896 0.6188 0.76816 0.0
C3332 C 0.27208 0.61672 0.76428 0.0
C3333 C 0.26121 0.63007 0.766 0.0
C3334 C 0.31257 0.63702 0.77804 0.0
C3335 C 0.2655 0.60038 0.75829 0.0
C3336 C 0.31958 0.58854 0.7496 0.0
C3337 C 0.32191 0.57732 0.76257 0.0
C3338 C 0.30898 0.60212 0.75128 0.0
C3339 C 0.30061 0.60471 0.76636 0.0
C3340 C 0.3031 0.59363 0.7796 0.0
C3341 C 0.31362 0.58004 0.77752 0.0
C3342 C 0.30658 0.6136 0.73683 0.0
C3343 C 0.2945 0.59603 0.79593 0.0
H3344 H 0.28807 0.65948 0.77899 0.0
H3345 H 0.24825 0.62829 0.76334 0.0
H3346 H 0.31637 0.62818 0.78775 0.0
H3347 H 0.32043 0.63465 0.76711 0.0
H3348 H 0.31498 0.64973 0.78249 0.0
H3349 H 0.25209 0.60085 0.75558 0.0
H3350 H 0.27212 0.59658 0.74694 0.0
H3351 H 0.26772 0.59073 0.7677 0.0
H3352 H 0.32612 0.58677 0.73809 0.0
H3353 H 0.3151 0.57136 0.78755 0.0
H3354 H 0.31001 0.62635 0.74037 0.0
H3355 H 0.2934 0.6138 0.7332 0.0
H3356 H 0.31405 0.60992 0.72597 0.0
H3357 H 0.29723 0.60848 0.80088 0.0
H3358 H 0.29827 0.5867 0.80521 0.0
H3359 H 0.28097 0.59524 0.7942 0.0
C3360 C 0.88747 0.47582 0.45931 0.0
C3361 C 0.89636 0.48272 0.47245 0.0
C3362 C 0.87353 0.46596 0.46211 0.0
C3363 C 0.86818 0.46303 0.47845 0.0
C3364 C 0.87693 0.47013 0.49177 0.0
C3365 C 0.89094 0.47981 0.48863 0.0
C3366 C 0.86459 0.45856 0.44756 0.0
C3367 C 0.87155 0.46738 0.50937 0.0
C3368 C 0.82385 0.4489 0.48442 0.0
C3369 C 0.82577 0.43184 0.4866 0.0
C3370 C 0.83755 0.45922 0.482 0.0
C3371 C 0.85357 0.45233 0.48157 0.0
C3372 C 0.85562 0.43515 0.4838 0.0
C3373 C 0.84173 0.42515 0.48638 0.0
C3374 C 0.83485 0.4775 0.47977 0.0
C3375 C 0.87249 0.42731 0.48335 0.0
H3376 H 0.89133 0.47822 0.44676 0.0
H3377 H 0.89781 0.48488 0.49889 0.0
H3378 H 0.86452 0.44493 0.44859 0.0
H3379 H 0.85157 0.46269 0.44749 0.0
H3380 H 0.87034 0.46201 0.43562 0.0
H3381 H 0.87936 0.4742 0.51831 0.0
H3382 H 0.85857 0.47136 0.51097 0.0
H3383 H 0.87211 0.45406 0.51237 0.0
H3384 H 0.8116 0.4542 0.48434 0.0
H3385 H 0.84342 0.41206 0.48835 0.0
H3386 H 0.83925 0.48136 0.46742 0.0
H3387 H 0.84212 0.48446 0.48902 0.0
H3388 H 0.82168 0.481 0.481 0.0
H3389 H 0.87842 0.42975 0.47127 0.0
H3390 H 0.87199 0.41378 0.48531 0.0
H3391 H 0.88047 0.43283 0.49297 0.0
C3392 C 0.73243 0.86522 0.785 0.0
C3393 C 0.73721 0.85611 0.7711 0.0
C3394 C 0.72159 0.87865 0.7836 0.0
C3395 C 0.71532 0.88307 0.76792 0.0
C3396 C 0.71995 0.87381 0.75387 0.0
C3397 C 0.73084 0.86047 0.75563 0.0
C3398 C 0.71701 0.88825 0.79886 0.0
C3399 C 0.71347 0.87806 0.73696 0.0
C3400 C 0.67651 0.90933 0.76569 0.0
C3401 C 0.68301 0.92504 0.76252 0.0
C3402 C 0.68687 0.89557 0.7675 0.0
C3403 C 0.70416 0.89755 0.76616 0.0
C3404 C 0.71079 0.91338 0.76303 0.0
C3405 C 0.70015 0.92691 0.76124 0.0
C3406 C 0.67931 0.87888 0.77075 0.0
C3407 C 0.72915 0.91603 0.7616 0.0
H3408 H 0.73744 0.86205 0.79697 0.0
H3409 H 0.73428 0.85335 0.74487 0.0
H3410 H 0.72104 0.90124 0.79755 0.0
H3411 H 0.70343 0.88836 0.80043 0.0
H3412 H 0.72267 0.88303 0.81018 0.0
H3413 H 0.71802 0.86946 0.72733 0.0
H3414 H 0.6998 0.87777 0.73698 0.0
H3415 H 0.71724 0.89076 0.7336 0.0
H3416 H 0.66328 0.90773 0.7665 0.0
H3417 H 0.70529 0.93904 0.75905 0.0
H3418 H 0.68419 0.87375 0.78244 0.0
H3419 H 0.68275 0.8702 0.76077 0.0
H3420 H 0.66566 0.87943 0.77157 0.0
H3421 H 0.73535 0.91205 0.77311 0.0
H3422 H 0.73235 0.92913 0.75921 0.0
H3423 H 0.73418 0.9084 0.75144 0.0
C3424 C 0.61901 0.51773 0.96725 0.0
C3425 C 0.60909 0.51379 0.98085 0.0
C3426 C 0.63242 0.52856 0.96883 0.0
C3427 C 0.63593 0.53574 0.98435 0.0
C3428 C 0.62583 0.53197 0.99807 0.0
C3429 C 0.61258 0.521 0.99617 0.0
C3430 C 0.64297 0.53216 0.95394 0.0
C3431 C 0.62904 0.5395 0.01477 0.0
C3432 C 0.67925 0.5515 0.99287 0.0
C3433 C 0.67749 0.56852 0.99028 0.0
C3434 C 0.66588 0.5407 0.99086 0.0
C3435 C 0.65028 0.54704 0.98629 0.0
C3436 C 0.64838 0.56419 0.9837 0.0
C3437 C 0.662 0.57469 0.98564 0.0
C3438 C 0.66843 0.52249 0.99369 0.0
C3439 C 0.63193 0.57144 0.97888 0.0
H3440 H 0.61647 0.51206 0.95543 0.0
H3441 H 0.60482 0.51818 0.00666 0.0
H3442 H 0.64319 0.5456 0.95149 0.0
H3443 H 0.65586 0.52827 0.95634 0.0
H3444 H 0.63849 0.52574 0.94271 0.0
H3445 H 0.61987 0.53551 0.02413 0.0
H3446 H 0.64151 0.53601 0.01913 0.0
H3447 H 0.62872 0.55314 0.01388 0.0
H3448 H 0.69107 0.54661 0.9967 0.0
H3449 H 0.66053 0.58776 0.98334 0.0
H3450 H 0.6649 0.51548 0.9825 0.0
H3451 H 0.66037 0.5182 0.00387 0.0
H3452 H 0.6814 0.51947 0.99683 0.0
H3453 H 0.62773 0.56601 0.96706 0.0
H3454 H 0.63245 0.58505 0.9775 0.0
H3455 H 0.62254 0.56836 0.98832 0.0
C3456 C 0.23933 0.63352 0.23127 0.0
C3457 C 0.23218 0.648 0.22503 0.0
C3458 C 0.22969 0.61958 0.23483 0.0
C3459 C 0.2125 0.62001 0.23189 0.0
C3460 C 0.20519 0.63457 0.22565 0.0
C3461 C 0.21508 0.64839 0.2224 0.0
C3462 C 0.23794 0.60434 0.24158 0.0
C3463 C 0.18691 0.6355 0.22228 0.0
C3464 C 0.1901 0.57934 0.22554 0.0
C3465 C 0.18233 0.5771 0.24081 0.0
C3466 C 0.19994 0.59325 0.22248 0.0
C3467 C 0.2022 0.60513 0.23505 0.0
C3468 C 0.19451 0.60287 0.25055 0.0
C3469 C 0.1846 0.58893 0.25322 0.0
C3470 C 0.20775 0.5953 0.20572 0.0
C3471 C 0.19679 0.61515 0.26433 0.0
H3472 H 0.25254 0.63295 0.23313 0.0
H3473 H 0.20936 0.65957 0.21787 0.0
H3474 H 0.23203 0.60062 0.25333 0.0
H3475 H 0.2364 0.59397 0.23281 0.0
H3476 H 0.25132 0.60621 0.24381 0.0
H3477 H 0.18313 0.64771 0.2174 0.0
H3478 H 0.18337 0.62589 0.21321 0.0
H3479 H 0.17991 0.63302 0.23375 0.0
H3480 H 0.18822 0.57035 0.21585 0.0
H3481 H 0.17875 0.58716 0.2651 0.0
H3482 H 0.22134 0.59618 0.20697 0.0
H3483 H 0.20345 0.60695 0.19999 0.0
H3484 H 0.20481 0.58493 0.19729 0.0
H3485 H 0.21009 0.61649 0.26722 0.0
H3486 H 0.19017 0.61147 0.27573 0.0
H3487 H 0.19224 0.62743 0.26043 0.0
C3488 C 0.88444 0.51346 0.02266 0.0
C3489 C 0.89902 0.52049 0.02881 0.0
C3490 C 0.87054 0.52321 0.01926 0.0
C3491 C 0.87111 0.54039 0.02224 0.0
C3492 C 0.88578 0.54758 0.02837 0.0
C3493 C 0.89955 0.53757 0.03148 0.0
C3494 C 0.85516 0.51509 0.01264 0.0
C3495 C 0.88688 0.56584 0.03175 0.0
C3496 C 0.84012 0.56859 1.00116 0.0
C3497 C 0.82843 0.57102 0.01367 0.0
C3498 C 0.85398 0.55853 0.00372 0.0
C3499 C 0.8563 0.55083 0.0192 0.0
C3500 C 0.84454 0.55324 0.03187 0.0
C3501 C 0.83072 0.56324 0.02893 0.0
C3502 C 0.86613 0.55612 0.98984 0.0
C3503 C 0.84665 0.54539 0.04861 0.0
H3504 H 0.88378 0.50027 0.02075 0.0
H3505 H 0.91081 0.54319 0.03594 0.0
H3506 H 0.84487 0.51674 0.02149 0.0
H3507 H 0.85142 0.52102 1.00091 0.0
H3508 H 0.8569 0.50169 0.01042 0.0
H3509 H 0.89917 0.56952 0.03653 0.0
H3510 H 0.88436 0.57287 0.02031 0.0
H3511 H 0.87738 0.56945 0.0409 0.0
H3512 H 0.83831 0.57441 0.98928 0.0
H3513 H 0.82184 0.56523 0.03871 0.0
H3514 H 0.86731 0.54282 0.98693 0.0
H3515 H 0.87849 0.56054 0.99365 0.0
H3516 H 0.86242 0.56278 0.97847 0.0
H3517 H 0.84741 0.53181 0.04734 0.0
H3518 H 0.83635 0.54842 0.05711 0.0
H3519 H 0.85836 0.5496 0.05426 0.0
C3520 C 0.12412 0.9934 0.01512 0.0
C3521 C 0.10877 0.98779 0.02082 0.0
C3522 C 0.13752 0.98259 0.01332 0.0
C3523 C 0.13564 0.96576 0.0175 0.0
C3524 C 0.12026 0.96002 0.02341 0.0
C3525 C 0.107 0.97107 0.02491 0.0
C3526 C 0.15369 0.9892 0.00692 0.0
C3527 C 0.11779 0.94219 0.02808 0.0
C3528 C 0.16564 0.93487 0.99892 0.0
C3529 C 0.17699 0.93274 0.01177 0.0
C3530 C 0.15211 0.94554 1.00063 0.0
C3531 C 0.14978 0.95418 0.01561 0.0
C3532 C 0.16111 0.95195 0.02869 0.0
C3533 C 0.17462 0.94132 0.02659 0.0
C3534 C 0.14041 0.94771 0.98633 0.0
C3535 C 0.15897 0.96079 0.04492 0.0
H3536 H 0.12574 0.00632 0.01221 0.0
H3537 H 0.09517 0.96652 0.0291 0.0
H3538 H 0.16354 0.98722 0.01619 0.0
H3539 H 0.15735 0.98242 0.99562 0.0
H3540 H 0.15307 0.00255 0.00399 0.0
H3541 H 0.10519 0.93976 0.03285 0.0
H3542 H 0.11996 0.93419 0.01721 0.0
H3543 H 0.12687 0.93856 0.03764 0.0
H3544 H 0.16751 0.92841 0.98738 0.0
H3545 H 0.18324 0.93956 0.03664 0.0
H3546 H 0.14025 0.96081 0.98242 0.0
H3547 H 0.1277 0.94447 0.99014 0.0
H3548 H 0.14386 0.93999 0.97557 0.0
H3549 H 0.15928 0.9743 0.04294 0.0
H3550 H 0.16869 0.95747 0.05397 0.0
H3551 H 0.14677 0.95777 0.0503 0.0
loop_
_geom_bond_atom_site_label_1
_geom_bond_atom_site_label_2
_geom_bond_distance
_geom_bond_site_symmetry_2
_ccdc_geom_bond_type
C0 C1 1.391 . S
C0 C4 1.391 . S
C0 H42 0.948 . S
C1 C0 1.391 . S
C1 C2 1.391 1_556 S
C2 C1 1.391 1_554 S
C2 H58 0.947 1_455 S
C2 C59 1.392 . S
C3 C4 1.391 1_554 S
C3 C7 1.397 . S
C3 C59 1.419 . S
C4 C0 1.391 . S
C4 C3 1.391 1_556 S
C4 C5 1.397 1_556 S
C5 C4 1.397 1_554 S
C5 C8 1.422 . S
C5 C17 1.455 . S
C5 C18 1.660 1_554 S
H6 C30 0.948 . S
C7 C3 1.397 . S
C7 C8 1.394 . S
C7 C26 1.723 . S
C8 C5 1.422 . S
C8 C7 1.394 . S
C8 C38 1.723 . S
H9 C32 0.947 1_556 S
H10 C33 0.909 1_556 S
H11 C39 0.982 . S
H12 C40 0.979 . S
H13 C40 0.980 . S
H14 C40 0.983 . S
H15 C39 0.979 1_565 S
H16 C39 0.977 . S
C17 C5 1.455 . S
C17 H46 0.982 . S
C17 H47 0.979 1_554 S
C17 H48 0.977 . S
C18 C5 1.660 1_556 S
C18 H43 0.979 . S
C18 H44 0.980 . S
C18 H45 0.983 . S
C19 C20 1.391 . S
C19 C24 1.391 . S
C19 H49 0.948 . S
C20 C19 1.391 . S
C20 C21 1.391 1_655 S
C21 C20 1.391 1_455 S
C21 C22 1.392 . S
C21 H50 0.947 1_545 S
C22 C21 1.392 . S
C22 C23 1.419 . S
C22 H51 0.909 1_545 S
C23 C22 1.419 . S
C23 C24 1.391 1_455 S
C23 C27 1.397 . S
C24 C19 1.391 . S
C24 C23 1.391 1_655 S
C24 C25 1.397 1_655 S
C25 C24 1.397 1_455 S
C25 C26 1.422 . S
C25 C28 1.455 . S
C25 C29 1.660 1_455 S
C26 C7 1.723 . S
C26 C25 1.422 . S
C26 C27 1.394 . S
C27 C23 1.397 . S
C27 C26 1.394 . S
C27 C37 1.723 . S
C28 C25 1.455 . S
C28 H52 0.982 . S
C28 H53 0.979 1_455 S
C28 H54 0.977 . S
C29 C25 1.660 1_655 S
C29 H55 0.979 . S
C29 H56 0.980 . S
C29 H57 0.983 . S
C30 H6 0.948 . S
C30 C31 1.391 . S
C30 C35 1.391 . S
C31 C30 1.391 . S
C31 C32 1.391 1_565 S
C32 H9 0.947 1_554 S
C32 C31 1.391 1_545 S
C32 C33 1.392 . S
C33 H10 0.909 1_554 S
C33 C32 1.392 . S
C33 C34 1.419 . S
C34 C33 1.419 . S
C34 C35 1.391 1_545 S
C34 C38 1.397 . S
C35 C30 1.391 . S
C35 C34 1.391 1_565 S
C35 C36 1.397 1_565 S
C36 C35 1.397 1_545 S
C36 C37 1.422 . S
C36 C39 1.455 . S
C36 C40 1.660 1_545 S
C37 C27 1.723 . S
C37 C36 1.422 . S
C37 C38 1.394 . S
C38 C8 1.723 . S
C38 C34 1.397 . S
C38 C37 1.394 . S
C39 H11 0.982 . S
C39 H15 0.979 1_545 S
C39 H16 0.977 . S
C39 C36 1.455 . S
C40 H12 0.979 . S
C40 H13 0.980 . S
C40 H14 0.983 . S
C40 C36 1.660 1_565 S
H41 C59 0.909 1_655 S
H42 C0 0.948 . S
H43 C18 0.979 . S
H44 C18 0.980 . S
H45 C18 0.983 . S
H46 C17 0.982 . S
H47 C17 0.979 1_556 S
H48 C17 0.977 . S
H49 C19 0.948 . S
H50 C21 0.947 1_565 S
H51 C22 0.909 1_565 S
H52 C28 0.982 . S
H53 C28 0.979 1_655 S
H54 C28 0.977 . S
H55 C29 0.979 . S
H56 C29 0.980 . S
H57 C29 0.983 . S
H58 C2 0.947 1_655 S
C59 C2 1.392 . S
C59 C3 1.419 . S
C59 H41 0.909 1_455 S
C60 C61 1.391 . S
C60 C64 1.391 . S
C60 H102 0.948 . S
C61 C60 1.391 . S
C61 C62 1.391 . S
C62 C61 1.391 . S
C62 H118 0.947 . S
C62 C119 1.392 . S
C63 C64 1.391 . S
C63 C67 1.397 . S
C63 C119 1.419 . S
C64 C60 1.391 . S
C64 C63 1.391 . S
C64 C65 1.399 . S
C65 C64 1.399 . S
C65 C68 1.396 . S
C65 C77 1.453 . S
C65 C78 1.684 . S
H66 C90 0.948 . S
C67 C63 1.397 . S
C67 C68 1.394 . S
C67 C86 1.723 . S
C68 C65 1.396 . S
C68 C67 1.394 . S
C68 C98 1.723 . S
H69 C92 0.947 . S
H70 C93 0.948 . S
H71 C99 0.982 . S
H72 C100 0.979 . S
H73 C100 0.980 . S
H74 C100 0.983 . S
H75 C99 0.979 . S
H76 C99 0.977 . S
C77 C65 1.453 . S
C77 H106 0.982 . S
C77 H107 0.979 . S
C77 H108 0.977 . S
C78 C65 1.684 . S
C78 H103 0.979 . S
C78 H104 0.980 . S
C78 H105 0.983 . S
C79 C80 1.391 . S
C79 C84 1.391 . S
C79 H109 0.948 . S
C80 C79 1.391 . S
C80 C81 1.391 . S
C81 C80 1.391 . S
C81 C82 1.392 . S
C81 H110 0.947 . S
C82 C81 1.392 . S
C82 C83 1.419 . S
C82 H111 0.948 . S
C83 C82 1.419 . S
C83 C84 1.391 . S
C83 C87 1.397 . S
C84 C79 1.391 . S
C84 C83 1.391 . S
C84 C85 1.399 . S
C85 C84 1.399 . S
C85 C86 1.396 . S
C85 C88 1.453 . S
C85 C89 1.684 . S
C86 C67 1.723 . S
C86 C85 1.396 . S
C86 C87 1.394 . S
C87 C83 1.397 . S
C87 C86 1.394 . S
C87 C97 1.723 . S
C88 C85 1.453 . S
C88 H112 0.982 . S
C88 H113 0.979 . S
C88 H114 0.977 . S
C89 C85 1.684 . S
C89 H115 0.979 . S
C89 H116 0.980 . S
C89 H117 0.983 . S
C90 H66 0.948 . S
C90 C91 1.391 . S
C90 C95 1.391 . S
C91 C90 1.391 . S
C91 C92 1.391 . S
C92 H69 0.947 . S
C92 C91 1.391 . S
C92 C93 1.392 . S
C93 H70 0.948 . S
C93 C92 1.392 . S
C93 C94 1.419 . S
C94 C93 1.419 . S
C94 C95 1.391 . S
C94 C98 1.397 . S
C95 C90 1.391 . S
C95 C94 1.391 . S
C95 C96 1.399 . S
C96 C95 1.399 . S
C96 C97 1.396 . S
C96 C99 1.453 . S
C96 C100 1.684 . S
C97 C87 1.723 . S
C97 C96 1.396 . S
C97 C98 1.394 . S
C98 C68 1.723 . S
C98 C94 1.397 . S
C98 C97 1.394 . S
C99 H71 0.982 . S
C99 H75 0.979 . S
C99 H76 0.977 . S
C99 C96 1.453 . S
C100 H72 0.979 . S
C100 H73 0.980 . S
C100 H74 0.983 . S
C100 C96 1.684 . S
H101 C119 0.948 . S
H102 C60 0.948 . S
H103 C78 0.979 . S
H104 C78 0.980 . S
H105 C78 0.983 . S
H106 C77 0.982 . S
H107 C77 0.979 . S
H108 C77 0.977 . S
H109 C79 0.948 . S
H110 C81 0.947 . S
H111 C82 0.948 . S
H112 C88 0.982 . S
H113 C88 0.979 . S
H114 C88 0.977 . S
H115 C89 0.979 . S
H116 C89 0.980 . S
H117 C89 0.983 . S
H118 C62 0.947 . S
C119 C62 1.392 . S
C119 C63 1.419 . S
C119 H101 0.948 . S
C120 C121 1.392 . S
C120 C124 1.391 1_556 S
C120 H162 0.948 1_556 S
C121 C120 1.392 . S
C121 C122 1.391 . S
C122 C121 1.391 . S
C122 H178 0.947 . S
C122 C179 1.392 . S
C123 C124 1.391 . S
C123 C127 1.397 . S
C123 C179 1.419 1_554 S
C124 C120 1.391 1_554 S
C124 C123 1.391 . S
C124 C125 1.399 . S
C125 C124 1.399 . S
C125 C128 1.396 . S
C125 C137 1.453 . S
C125 C138 1.684 1_655 S
H126 C150 0.948 1_655 S
C127 C123 1.397 . S
C127 C128 1.394 . S
C127 C146 1.723 . S
C128 C125 1.396 . S
C128 C127 1.394 . S
C128 C158 1.723 . S
H129 C152 0.947 . S
H130 C153 0.948 . S
H131 C159 0.982 . S
H132 C160 0.979 . S
H133 C160 0.980 . S
H134 C160 0.983 . S
H135 C159 0.979 . S
H136 C159 0.977 . S
C137 C125 1.453 . S
C137 H166 0.982 . S
C137 H167 0.966 1_655 S
C137 H168 0.977 . S
C138 C125 1.684 1_455 S
C138 H163 0.979 . S
C138 H164 0.980 . S
C138 H165 0.983 . S
C139 C140 1.391 . S
C139 C144 1.391 . S
C139 H169 0.948 . S
C140 C139 1.391 . S
C140 C141 1.391 . S
C141 C140 1.391 . S
C141 C142 1.392 . S
C141 H170 0.947 . S
C142 C141 1.392 . S
C142 C143 1.419 . S
C142 H171 0.948 . S
C143 C142 1.419 . S
C143 C144 1.391 . S
C143 C147 1.397 . S
C144 C139 1.391 . S
C144 C143 1.391 . S
C144 C145 1.399 . S
C145 C144 1.399 . S
C145 C146 1.396 . S
C145 C148 1.453 . S
C145 C149 1.684 1_554 S
C146 C127 1.723 . S
C146 C145 1.396 . S
C146 C147 1.394 . S
C147 C143 1.397 . S
C147 C146 1.394 . S
C147 C157 1.723 . S
C148 C145 1.453 . S
C148 H172 0.982 . S
C148 H173 0.967 1_554 S
C148 H174 0.977 . S
C149 C145 1.684 1_556 S
C149 H175 0.979 . S
C149 H176 0.980 . S
C149 H177 0.983 . S
C150 H126 0.948 1_455 S
C150 C151 1.393 . S
C150 C155 1.390 1_455 S
C151 C150 1.393 . S
C151 C152 1.391 . S
C152 H129 0.947 . S
C152 C151 1.391 . S
C152 C153 1.392 . S
C153 H130 0.948 . S
C153 C152 1.392 . S
C153 C154 1.419 1_455 S
C154 C153 1.419 1_655 S
C154 C155 1.391 . S
C154 C158 1.397 . S
C155 C150 1.390 1_655 S
C155 C154 1.391 . S
C155 C156 1.399 . S
C156 C155 1.399 . S
C156 C157 1.396 . S
C156 C159 1.453 . S
C156 C160 1.684 . S
C157 C147 1.723 . S
C157 C156 1.396 . S
C157 C158 1.394 . S
C158 C128 1.723 . S
C158 C154 1.397 . S
C158 C157 1.394 . S
C159 H131 0.982 . S
C159 H135 0.979 . S
C159 H136 0.977 . S
C159 C156 1.453 . S
C160 H132 0.979 . S
C160 H133 0.980 . S
C160 H134 0.983 . S
C160 C156 1.684 . S
H161 C179 0.948 . S
H162 C120 0.948 1_554 S
H163 C138 0.979 . S
H164 C138 0.980 . S
H165 C138 0.983 . S
H166 C137 0.982 . S
H167 C137 0.966 1_455 S
H168 C137 0.977 . S
H169 C139 0.948 . S
H170 C141 0.947 . S
H171 C142 0.948 . S
H172 C148 0.982 . S
H173 C148 0.967 1_556 S
H174 C148 0.977 . S
H175 C149 0.979 . S
H176 C149 0.980 . S
H177 C149 0.983 . S
H178 C122 0.947 . S
C179 C122 1.392 . S
C179 C123 1.419 1_556 S
C179 H161 0.948 . S
C180 C181 1.391 . S
C180 C184 1.391 . S
C180 H222 0.948 . S
C181 C180 1.391 . S
C181 C182 1.391 . S
C182 C181 1.391 . S
C182 H238 0.947 . S
C182 C239 1.392 . S
C183 C184 1.391 . S
C183 C187 1.397 . S
C183 C239 1.419 . S
C184 C180 1.391 . S
C184 C183 1.391 . S
C184 C185 1.399 . S
C185 C184 1.399 . S
C185 C188 1.396 . S
C185 C197 1.453 . S
C185 C198 1.684 . S
H186 C210 0.948 . S
C187 C183 1.397 . S
C187 C188 1.394 . S
C187 C206 1.723 . S
C188 C185 1.396 . S
C188 C187 1.394 . S
C188 C218 1.723 . S
H189 C212 0.947 . S
H190 C213 0.948 . S
H191 C219 0.982 . S
H192 C220 0.979 . S
H193 C220 0.980 . S
H194 C220 0.983 . S
H195 C219 0.979 . S
H196 C219 0.977 . S
C197 C185 1.453 . S
C197 H226 0.982 . S
C197 H227 0.979 . S
C197 H228 0.977 . S
C198 C185 1.684 . S
C198 H223 0.979 . S
C198 H224 0.980 . S
C198 H225 0.983 . S
C199 C200 1.391 . S
C199 C204 1.391 . S
C199 H229 0.948 . S
C200 C199 1.391 . S
C200 C201 1.391 . S
C201 C200 1.391 . S
C201 C202 1.392 . S
C201 H230 0.947 . S
C202 C201 1.392 . S
C202 C203 1.419 . S
C202 H231 0.948 . S
C203 C202 1.419 . S
C203 C204 1.391 . S
C203 C207 1.397 . S
C204 C199 1.391 . S
C204 C203 1.391 . S
C204 C205 1.399 . S
C205 C204 1.399 . S
C205 C206 1.396 . S
C205 C208 1.453 . S
C205 C209 1.684 . S
C206 C187 1.723 . S
C206 C205 1.396 . S
C206 C207 1.394 . S
C207 C203 1.397 . S
C207 C206 1.394 . S
C207 C217 1.723 . S
C208 C205 1.453 . S
C208 H232 0.982 . S
C208 H233 0.979 . S
C208 H234 0.977 . S
C209 C205 1.684 . S
C209 H235 0.979 . S
C209 H236 0.980 . S
C209 H237 0.983 . S
C210 H186 0.948 . S
C210 C211 1.391 . S
C210 C215 1.391 . S
C211 C210 1.391 . S
C211 C212 1.391 . S
C212 H189 0.947 . S
C212 C211 1.391 . S
C212 C213 1.392 . S
C213 H190 0.948 . S
C213 C212 1.392 . S
C213 C214 1.419 . S
C214 C213 1.419 . S
C214 C215 1.391 . S
C214 C218 1.397 . S
C215 C210 1.391 . S
C215 C214 1.391 . S
C215 C216 1.399 . S
C216 C215 1.399 . S
C216 C217 1.396 . S
C216 C219 1.453 . S
C216 C220 1.684 . S
C217 C207 1.723 . S
C217 C216 1.396 . S
C217 C218 1.394 . S
C218 C188 1.723 . S
C218 C214 1.397 . S
C218 C217 1.394 . S
C219 H191 0.982 . S
C219 H195 0.979 . S
C219 H196 0.977 . S
C219 C216 1.453 . S
C220 H192 0.979 . S
C220 H193 0.980 . S
C220 H194 0.983 . S
C220 C216 1.684 . S
H221 C239 0.948 . S
H222 C180 0.948 . S
H223 C198 0.979 . S
H224 C198 0.980 . S
H225 C198 0.983 . S
H226 C197 0.982 . S
H227 C197 0.979 . S
H228 C197 0.977 . S
H229 C199 0.948 . S
H230 C201 0.947 . S
H231 C202 0.948 . S
H232 C208 0.982 . S
H233 C208 0.979 . S
H234 C208 0.977 . S
H235 C209 0.979 . S
H236 C209 0.980 . S
H237 C209 0.983 . S
H238 C182 0.947 . S
C239 C182 1.392 . S
C239 C183 1.419 . S
C239 H221 0.948 . S
C240 C241 1.391 . S
C240 C244 1.391 . S
C240 H282 0.948 . S
C241 C240 1.391 . S
C241 C242 1.391 . S
C242 C241 1.391 . S
C242 H298 0.930 1_455 S
C242 C299 1.392 . S
C243 C244 1.391 . S
C243 C247 1.397 . S
C243 C299 1.419 . S
C244 C240 1.391 . S
C244 C243 1.391 . S
C244 C245 1.399 . S
C245 C244 1.399 . S
C245 C248 1.396 . S
C245 C257 1.453 . S
C245 C258 1.684 . S
H246 C270 0.948 . S
C247 C243 1.397 . S
C247 C248 1.394 . S
C247 C266 1.723 . S
C248 C245 1.396 . S
C248 C247 1.394 . S
C248 C278 1.723 . S
H249 C272 0.947 . S
H250 C273 0.948 . S
H251 C279 0.982 . S
H252 C280 0.976 1_565 S
H253 C280 0.980 1_565 S
H254 C280 0.986 . S
H255 C279 0.979 . S
H256 C279 0.977 . S
C257 C245 1.453 . S
C257 H286 0.982 . S
C257 H287 0.979 . S
C257 H288 0.977 . S
C258 C245 1.684 . S
C258 H283 0.979 . S
C258 H284 0.980 . S
C258 H285 0.983 . S
C259 C260 1.391 . S
C259 C264 1.391 1_655 S
C259 H289 0.948 . S
C260 C259 1.391 . S
C260 C261 1.391 1_655 S
C261 C260 1.391 1_455 S
C261 C262 1.392 . S
C261 H290 0.930 1_565 S
C262 C261 1.392 . S
C262 C263 1.419 . S
C262 H291 0.948 . S
C263 C262 1.419 . S
C263 C264 1.391 . S
C263 C267 1.397 . S
C264 C259 1.391 1_455 S
C264 C263 1.391 . S
C264 C265 1.399 . S
C265 C264 1.399 . S
C265 C266 1.396 . S
C265 C268 1.453 1_455 S
C265 C269 1.683 1_455 S
C266 C247 1.723 . S
C266 C265 1.396 . S
C266 C267 1.394 . S
C267 C263 1.397 . S
C267 C266 1.394 . S
C267 C277 1.723 . S
C268 C265 1.453 1_655 S
C268 H292 0.982 . S
C268 H293 0.979 . S
C268 H294 0.977 . S
C269 C265 1.683 1_655 S
C269 H295 0.977 1_655 S
C269 H296 0.980 1_655 S
C269 H297 0.985 . S
C270 H246 0.948 . S
C270 C271 1.391 . S
C270 C275 1.391 1_545 S
C271 C270 1.391 . S
C271 C272 1.391 1_545 S
C272 H249 0.947 . S
C272 C271 1.391 1_565 S
C272 C273 1.392 . S
C273 H250 0.948 . S
C273 C272 1.392 . S
C273 C274 1.419 . S
C274 C273 1.419 . S
C274 C275 1.391 . S
C274 C278 1.397 . S
C275 C270 1.391 1_565 S
C275 C274 1.391 . S
C275 C276 1.399 . S
C276 C275 1.399 . S
C276 C277 1.396 . S
C276 C279 1.453 1_565 S
C276 C280 1.683 1_565 S
C277 C267 1.723 . S
C277 C276 1.396 . S
C277 C278 1.394 . S
C278 C248 1.723 . S
C278 C274 1.397 . S
C278 C277 1.394 . S
C279 H251 0.982 . S
C279 H255 0.979 . S
C279 H256 0.977 . S
C279 C276 1.453 1_545 S
C280 H252 0.976 1_545 S
C280 H253 0.980 1_545 S
C280 H254 0.986 . S
C280 C276 1.683 1_545 S
H281 C299 0.948 . S
H282 C240 0.948 . S
H283 C258 0.979 . S
H284 C258 0.980 . S
H285 C258 0.983 . S
H286 C257 0.982 . S
H287 C257 0.979 . S
H288 C257 0.977 . S
H289 C259 0.948 . S
H290 C261 0.930 1_545 S
H291 C262 0.948 . S
H292 C268 0.982 . S
H293 C268 0.979 . S
H294 C268 0.977 . S
H295 C269 0.977 1_455 S
H296 C269 0.980 1_455 S
H297 C269 0.985 . S
H298 C242 0.930 1_655 S
C299 C242 1.392 . S
C299 C243 1.419 . S
C299 H281 0.948 . S
C300 C301 1.391 . S
C300 C304 1.391 . S
C300 H342 0.948 . S
C301 C300 1.391 . S
C301 C302 1.391 . S
C302 C301 1.391 . S
C302 H358 0.947 . S
C302 C359 1.392 . S
C303 C304 1.391 . S
C303 C307 1.397 . S
C303 C359 1.419 . S
C304 C300 1.391 . S
C304 C303 1.391 . S
C304 C305 1.399 . S
C305 C304 1.399 . S
C305 C308 1.396 . S
C305 C317 1.453 . S
C305 C318 1.684 . S
H306 C330 0.948 . S
C307 C303 1.397 . S
C307 C308 1.394 . S
C307 C326 1.723 . S
C308 C305 1.396 . S
C308 C307 1.394 . S
C308 C338 1.723 . S
H309 C332 0.947 . S
H310 C333 0.948 . S
H311 C339 0.982 . S
H312 C340 0.979 . S
H313 C340 0.980 . S
H314 C340 0.983 . S
H315 C339 0.979 . S
H316 C339 0.977 . S
C317 C305 1.453 . S
C317 H346 0.982 . S
C317 H347 0.979 . S
C317 H348 0.977 . S
C318 C305 1.684 . S
C318 H343 0.979 . S
C318 H344 0.980 . S
C318 H345 0.983 . S
C319 C320 1.391 . S
C319 C324 1.391 . S
C319 H349 0.948 . S
C320 C319 1.391 . S
C320 C321 1.391 . S
C321 C320 1.391 . S
C321 C322 1.392 . S
C321 H350 0.947 . S
C322 C321 1.392 . S
C322 C323 1.419 . S
C322 H351 0.948 . S
C323 C322 1.419 . S
C323 C324 1.391 . S
C323 C327 1.397 . S
C324 C319 1.391 . S
C324 C323 1.391 . S
C324 C325 1.399 . S
C325 C324 1.399 . S
C325 C326 1.396 . S
C325 C328 1.453 . S
C325 C329 1.684 . S
C326 C307 1.723 . S
C326 C325 1.396 . S
C326 C327 1.394 . S
C327 C323 1.397 . S
C327 C326 1.394 . S
C327 C337 1.723 . S
C328 C325 1.453 . S
C328 H352 0.982 . S
C328 H353 0.979 . S
C328 H354 0.977 . S
C329 C325 1.684 . S
C329 H355 0.979 . S
C329 H356 0.980 . S
C329 H357 0.983 . S
C330 H306 0.948 . S
C330 C331 1.391 . S
C330 C335 1.391 . S
C331 C330 1.391 . S
C331 C332 1.391 . S
C332 H309 0.947 . S
C332 C331 1.391 . S
C332 C333 1.392 . S
C333 H310 0.948 . S
C333 C332 1.392 . S
C333 C334 1.419 . S
C334 C333 1.419 . S
C334 C335 1.391 . S
C334 C338 1.397 . S
C335 C330 1.391 . S
C335 C334 1.391 . S
C335 C336 1.399 . S
C336 C335 1.399 . S
C336 C337 1.396 . S
C336 C339 1.453 . S
C336 C340 1.684 . S
C337 C327 1.723 . S
C337 C336 1.396 . S
C337 C338 1.394 . S
C338 C308 1.723 . S
C338 C334 1.397 . S
C338 C337 1.394 . S
C339 H311 0.982 . S
C339 H315 0.979 . S
C339 H316 0.977 . S
C339 C336 1.453 . S
C340 H312 0.979 . S
C340 H313 0.980 . S
C340 H314 0.983 . S
C340 C336 1.684 . S
H341 C359 0.948 . S
H342 C300 0.948 . S
H343 C318 0.979 . S
H344 C318 0.980 . S
H345 C318 0.983 . S
H346 C317 0.982 . S
H347 C317 0.979 . S
H348 C317 0.977 . S
H349 C319 0.948 . S
H350 C321 0.947 . S
H351 C322 0.948 . S
H352 C328 0.982 . S
H353 C328 0.979 . S
H354 C328 0.977 . S
H355 C329 0.979 . S
H356 C329 0.980 . S
H357 C329 0.983 . S
H358 C302 0.947 . S
C359 C302 1.392 . S
C359 C303 1.419 . S
C359 H341 0.948 . S
C360 C361 1.391 . S
C360 C364 1.391 . S
C360 H402 0.948 . S
C361 C360 1.391 . S
C361 C362 1.391 . S
C362 C361 1.391 . S
C362 H418 0.947 . S
C362 C419 1.392 . S
C363 C364 1.391 . S
C363 C367 1.397 . S
C363 C419 1.419 . S
C364 C360 1.391 . S
C364 C363 1.391 . S
C364 C365 1.399 . S
C365 C364 1.399 . S
C365 C368 1.396 . S
C365 C377 1.453 . S
C365 C378 1.684 . S
H366 C390 0.948 . S
C367 C363 1.397 . S
C367 C368 1.394 . S
C367 C386 1.723 . S
C368 C365 1.396 . S
C368 C367 1.394 . S
C368 C398 1.723 . S
H369 C392 0.947 . S
H370 C393 0.948 . S
H371 C399 0.982 . S
H372 C400 0.979 . S
H373 C400 0.980 . S
H374 C400 0.983 . S
H375 C399 0.966 1_455 S
H376 C399 0.977 . S
C377 C365 1.453 . S
C377 H406 0.982 . S
C377 H407 0.979 . S
C377 H408 0.977 . S
C378 C365 1.684 . S
C378 H403 0.979 . S
C378 H404 0.980 . S
C378 H405 0.983 . S
C379 C380 1.393 . S
C379 C384 1.390 1_455 S
C379 H409 0.948 1_455 S
C380 C379 1.393 . S
C380 C381 1.391 . S
C381 C380 1.391 . S
C381 C382 1.392 . S
C381 H410 0.947 . S
C382 C381 1.392 . S
C382 C383 1.419 1_455 S
C382 H411 0.948 . S
C383 C382 1.419 1_655 S
C383 C384 1.391 . S
C383 C387 1.397 . S
C384 C379 1.390 1_655 S
C384 C383 1.391 . S
C384 C385 1.399 . S
C385 C384 1.399 . S
C385 C386 1.396 . S
C385 C388 1.453 . S
C385 C389 1.684 . S
C386 C367 1.723 . S
C386 C385 1.396 . S
C386 C387 1.394 . S
C387 C383 1.397 . S
C387 C386 1.394 . S
C387 C397 1.723 . S
C388 C385 1.453 . S
C388 H412 0.982 . S
C388 H413 0.979 . S
C388 H414 0.977 . S
C389 C385 1.684 . S
C389 H415 0.979 . S
C389 H416 0.980 . S
C389 H417 0.983 . S
C390 H366 0.948 . S
C390 C391 1.391 . S
C390 C395 1.391 . S
C391 C390 1.391 . S
C391 C392 1.391 . S
C392 H369 0.947 . S
C392 C391 1.391 . S
C392 C393 1.392 . S
C393 H370 0.948 . S
C393 C392 1.392 . S
C393 C394 1.419 . S
C394 C393 1.419 . S
C394 C395 1.391 . S
C394 C398 1.397 . S
C395 C390 1.391 . S
C395 C394 1.391 . S
C395 C396 1.399 . S
C396 C395 1.399 . S
C396 C397 1.396 . S
C396 C399 1.453 . S
C396 C400 1.684 1_655 S
C397 C387 1.723 . S
C397 C396 1.396 . S
C397 C398 1.394 . S
C398 C368 1.723 . S
C398 C394 1.397 . S
C398 C397 1.394 . S
C399 H371 0.982 . S
C399 H375 0.966 1_655 S
C399 H376 0.977 . S
C399 C396 1.453 . S
C400 H372 0.979 . S
C400 H373 0.980 . S
C400 H374 0.983 . S
C400 C396 1.684 1_455 S
H401 C419 0.948 . S
H402 C360 0.948 . S
H403 C378 0.979 . S
H404 C378 0.980 . S
H405 C378 0.983 . S
H406 C377 0.982 . S
H407 C377 0.979 . S
H408 C377 0.977 . S
H409 C379 0.948 1_655 S
H410 C381 0.947 . S
H411 C382 0.948 . S
H412 C388 0.982 . S
H413 C388 0.979 . S
H414 C388 0.977 . S
H415 C389 0.979 . S
H416 C389 0.980 . S
H417 C389 0.983 . S
H418 C362 0.947 . S
C419 C362 1.392 . S
C419 C363 1.419 . S
C419 H401 0.948 . S
C420 C421 1.391 . S
C420 C424 1.391 . S
C420 H462 0.948 . S
C421 C420 1.391 . S
C421 C422 1.391 . S
C422 C421 1.391 . S
C422 H478 0.947 . S
C422 C479 1.392 . S
C423 C424 1.391 . S
C423 C427 1.397 . S
C423 C479 1.419 . S
C424 C420 1.391 . S
C424 C423 1.391 . S
C424 C425 1.399 . S
C425 C424 1.399 . S
C425 C428 1.396 . S
C425 C437 1.453 . S
C425 C438 1.684 . S
H426 C450 0.948 . S
C427 C423 1.397 . S
C427 C428 1.394 . S
C427 C446 1.723 . S
C428 C425 1.396 . S
C428 C427 1.394 . S
C428 C458 1.723 . S
H429 C452 0.947 . S
H430 C453 0.948 . S
H431 C459 0.982 . S
H432 C460 0.979 . S
H433 C460 0.980 . S
H434 C460 0.983 . S
H435 C459 0.979 . S
H436 C459 0.977 . S
C437 C425 1.453 . S
C437 H466 0.982 . S
C437 H467 0.979 . S
C437 H468 0.977 . S
C438 C425 1.684 . S
C438 H463 0.979 . S
C438 H464 0.980 . S
C438 H465 0.983 . S
C439 C440 1.391 . S
C439 C444 1.391 . S
C439 H469 0.948 . S
C440 C439 1.391 . S
C440 C441 1.391 . S
C441 C440 1.391 . S
C441 C442 1.392 . S
C441 H470 0.947 . S
C442 C441 1.392 . S
C442 C443 1.419 . S
C442 H471 0.948 . S
C443 C442 1.419 . S
C443 C444 1.391 . S
C443 C447 1.397 . S
C444 C439 1.391 . S
C444 C443 1.391 . S
C444 C445 1.399 . S
C445 C444 1.399 . S
C445 C446 1.396 . S
C445 C448 1.453 . S
C445 C449 1.684 . S
C446 C427 1.723 . S
C446 C445 1.396 . S
C446 C447 1.394 . S
C447 C443 1.397 . S
C447 C446 1.394 . S
C447 C457 1.723 . S
C448 C445 1.453 . S
C448 H472 0.982 . S
C448 H473 0.979 . S
C448 H474 0.977 . S
C449 C445 1.684 . S
C449 H475 0.979 . S
C449 H476 0.980 . S
C449 H477 0.983 . S
C450 H426 0.948 . S
C450 C451 1.391 . S
C450 C455 1.391 . S
C451 C450 1.391 . S
C451 C452 1.391 . S
C452 H429 0.947 . S
C452 C451 1.391 . S
C452 C453 1.392 . S
C453 H430 0.948 . S
C453 C452 1.392 . S
C453 C454 1.419 . S
C454 C453 1.419 . S
C454 C455 1.391 . S
C454 C458 1.397 . S
C455 C450 1.391 . S
C455 C454 1.391 . S
C455 C456 1.399 . S
C456 C455 1.399 . S
C456 C457 1.396 . S
C456 C459 1.453 . S
C456 C460 1.684 . S
C457 C447 1.723 . S
C457 C456 1.396 . S
C457 C458 1.394 . S
C458 C428 1.723 . S
C458 C454 1.397 . S
C458 C457 1.394 . S
C459 H431 0.982 . S
C459 H435 0.979 . S
C459 H436 0.977 . S
C459 C456 1.453 . S
C460 H432 0.979 . S
C460 H433 0.980 . S
C460 H434 0.983 . S
C460 C456 1.684 . S
H461 C479 0.948 . S
H462 C420 0.948 . S
H463 C438 0.979 . S
H464 C438 0.980 . S
H465 C438 0.983 . S
H466 C437 0.982 . S
H467 C437 0.979 . S
H468 C437 0.977 . S
H469 C439 0.948 . S
H470 C441 0.947 . S
H471 C442 0.948 . S
H472 C448 0.982 . S
H473 C448 0.979 . S
H474 C448 0.977 . S
H475 C449 0.979 . S
H476 C449 0.980 . S
H477 C449 0.983 . S
H478 C422 0.947 . S
C479 C422 1.392 . S
C479 C423 1.419 . S
C479 H461 0.948 . S
C480 C481 1.391 . S
C480 C484 1.391 . S
C480 H522 0.948 . S
C481 C480 1.391 . S
C481 C482 1.391 . S
C482 C481 1.391 . S
C482 H538 0.947 . S
C482 C539 1.392 . S
C483 C484 1.391 . S
C483 C487 1.397 . S
C483 C539 1.419 . S
C484 C480 1.391 . S
C484 C483 1.391 . S
C484 C485 1.399 . S
C485 C484 1.399 . S
C485 C488 1.396 . S
C485 C497 1.453 . S
C485 C498 1.684 . S
H486 C510 0.948 . S
C487 C483 1.397 . S
C487 C488 1.394 . S
C487 C506 1.723 . S
C488 C485 1.396 . S
C488 C487 1.394 . S
C488 C518 1.723 . S
H489 C512 0.947 . S
H490 C513 0.948 . S
H491 C519 0.982 . S
H492 C520 0.979 . S
H493 C520 0.980 . S
H494 C520 0.983 . S
H495 C519 0.979 . S
H496 C519 0.977 . S
C497 C485 1.453 . S
C497 H526 0.982 . S
C497 H527 0.979 . S
C497 H528 0.977 . S
C498 C485 1.684 . S
C498 H523 0.979 . S
C498 H524 0.980 . S
C498 H525 0.983 . S
C499 C500 1.391 . S
C499 C504 1.391 . S
C499 H529 0.948 . S
C500 C499 1.391 . S
C500 C501 1.391 . S
C501 C500 1.391 . S
C501 C502 1.392 . S
C501 H530 0.947 . S
C502 C501 1.392 . S
C502 C503 1.419 . S
C502 H531 0.948 . S
C503 C502 1.419 . S
C503 C504 1.391 . S
C503 C507 1.397 . S
C504 C499 1.391 . S
C504 C503 1.391 . S
C504 C505 1.399 . S
C505 C504 1.399 . S
C505 C506 1.396 . S
C505 C508 1.453 . S
C505 C509 1.684 . S
C506 C487 1.723 . S
C506 C505 1.396 . S
C506 C507 1.394 . S
C507 C503 1.397 . S
C507 C506 1.394 . S
C507 C517 1.723 . S
C508 C505 1.453 . S
C508 H532 0.982 . S
C508 H533 0.979 . S
C508 H534 0.977 . S
C509 C505 1.684 . S
C509 H535 0.979 . S
C509 H536 0.980 . S
C509 H537 0.983 . S
C510 H486 0.948 . S
C510 C511 1.391 . S
C510 C515 1.391 . S
C511 C510 1.391 . S
C511 C512 1.391 . S
C512 H489 0.947 . S
C512 C511 1.391 . S
C512 C513 1.392 . S
C513 H490 0.948 . S
C513 C512 1.392 . S
C513 C514 1.419 . S
C514 C513 1.419 . S
C514 C515 1.391 . S
C514 C518 1.397 . S
C515 C510 1.391 . S
C515 C514 1.391 . S
C515 C516 1.399 . S
C516 C515 1.399 . S
C516 C517 1.396 . S
C516 C519 1.453 . S
C516 C520 1.684 . S
C517 C507 1.723 . S
C517 C516 1.396 . S
C517 C518 1.394 . S
C518 C488 1.723 . S
C518 C514 1.397 . S
C518 C517 1.394 . S
C519 H491 0.982 . S
C519 H495 0.979 . S
C519 H496 0.977 . S
C519 C516 1.453 . S
C520 H492 0.979 . S
C520 H493 0.980 . S
C520 H494 0.983 . S
C520 C516 1.684 . S
H521 C539 0.948 . S
H522 C480 0.948 . S
H523 C498 0.979 . S
H524 C498 0.980 . S
H525 C498 0.983 . S
H526 C497 0.982 . S
H527 C497 0.979 . S
H528 C497 0.977 . S
H529 C499 0.948 . S
H530 C501 0.947 . S
H531 C502 0.948 . S
H532 C508 0.982 . S
H533 C508 0.979 . S
H534 C508 0.977 . S
H535 C509 0.979 . S
H536 C509 0.980 . S
H537 C509 0.983 . S
H538 C482 0.947 . S
C539 C482 1.392 . S
C539 C483 1.419 . S
C539 H521 0.948 . S
C540 C541 1.391 . S
C540 C544 1.391 . S
C540 H582 0.948 . S
C541 C540 1.391 . S
C541 C542 1.391 . S
C542 C541 1.391 . S
C542 H598 0.947 . S
C542 C599 1.392 . S
C543 C544 1.391 . S
C543 C547 1.397 . S
C543 C599 1.419 . S
C544 C540 1.391 . S
C544 C543 1.391 . S
C544 C545 1.399 . S
C545 C544 1.399 . S
C545 C548 1.396 . S
C545 C557 1.453 . S
C545 C558 1.684 . S
H546 C570 0.948 . S
C547 C543 1.397 . S
C547 C548 1.394 . S
C547 C566 1.723 . S
C548 C545 1.396 . S
C548 C547 1.394 . S
C548 C578 1.723 . S
H549 C572 0.947 . S
H550 C573 0.948 . S
H551 C579 0.982 . S
H552 C580 0.979 . S
H553 C580 0.980 . S
H554 C580 0.983 . S
H555 C579 0.966 1_545 S
H556 C579 0.977 . S
C557 C545 1.453 . S
C557 H586 0.982 . S
C557 H587 0.979 . S
C557 H588 0.977 . S
C558 C545 1.684 . S
C558 H583 0.979 . S
C558 H584 0.980 . S
C558 H585 0.983 . S
C559 C560 1.393 . S
C559 C564 1.390 1_545 S
C559 H589 0.948 1_545 S
C560 C559 1.393 . S
C560 C561 1.391 . S
C561 C560 1.391 . S
C561 C562 1.392 . S
C561 H590 0.947 . S
C562 C561 1.392 . S
C562 C563 1.419 1_545 S
C562 H591 0.948 . S
C563 C562 1.419 1_565 S
C563 C564 1.391 . S
C563 C567 1.397 . S
C564 C559 1.390 1_565 S
C564 C563 1.391 . S
C564 C565 1.399 . S
C565 C564 1.399 . S
C565 C566 1.396 . S
C565 C568 1.453 . S
C565 C569 1.684 . S
C566 C547 1.723 . S
C566 C565 1.396 . S
C566 C567 1.394 . S
C567 C563 1.397 . S
C567 C566 1.394 . S
C567 C577 1.723 . S
C568 C565 1.453 . S
C568 H592 0.982 . S
C568 H593 0.979 . S
C568 H594 0.977 . S
C569 C565 1.684 . S
C569 H595 0.979 . S
C569 H596 0.980 . S
C569 H597 0.983 . S
C570 H546 0.948 . S
C570 C571 1.391 . S
C570 C575 1.391 . S
C571 C570 1.391 . S
C571 C572 1.391 . S
C572 H549 0.947 . S
C572 C571 1.391 . S
C572 C573 1.392 . S
C573 H550 0.948 . S
C573 C572 1.392 . S
C573 C574 1.419 . S
C574 C573 1.419 . S
C574 C575 1.391 . S
C574 C578 1.397 . S
C575 C570 1.391 . S
C575 C574 1.391 . S
C575 C576 1.399 . S
C576 C575 1.399 . S
C576 C577 1.396 . S
C576 C579 1.453 . S
C576 C580 1.684 1_565 S
C577 C567 1.723 . S
C577 C576 1.396 . S
C577 C578 1.394 . S
C578 C548 1.723 . S
C578 C574 1.397 . S
C578 C577 1.394 . S
C579 H551 0.982 . S
C579 H555 0.966 1_565 S
C579 H556 0.977 . S
C579 C576 1.453 . S
C580 H552 0.979 . S
C580 H553 0.980 . S
C580 H554 0.983 . S
C580 C576 1.684 1_545 S
H581 C599 0.948 . S
H582 C540 0.948 . S
H583 C558 0.979 . S
H584 C558 0.980 . S
H585 C558 0.983 . S
H586 C557 0.982 . S
H587 C557 0.979 . S
H588 C557 0.977 . S
H589 C559 0.948 1_565 S
H590 C561 0.947 . S
H591 C562 0.948 . S
H592 C568 0.982 . S
H593 C568 0.979 . S
H594 C568 0.977 . S
H595 C569 0.979 . S
H596 C569 0.980 . S
H597 C569 0.983 . S
H598 C542 0.947 . S
C599 C542 1.392 . S
C599 C543 1.419 . S
C599 H581 0.948 . S
C600 C601 1.391 . S
C600 C604 1.391 . S
C600 H642 0.948 . S
C601 C600 1.391 . S
C601 C602 1.391 . S
C602 C601 1.391 . S
C602 H658 0.947 . S
C602 C659 1.392 . S
C603 C604 1.391 . S
C603 C607 1.397 . S
C603 C659 1.419 . S
C604 C600 1.391 . S
C604 C603 1.391 . S
C604 C605 1.399 . S
C605 C604 1.399 . S
C605 C608 1.396 . S
C605 C617 1.453 . S
C605 C618 1.684 . S
H606 C630 0.948 . S
C607 C603 1.397 . S
C607 C608 1.394 . S
C607 C626 1.723 . S
C608 C605 1.396 . S
C608 C607 1.394 . S
C608 C638 1.723 . S
H609 C632 0.947 . S
H610 C633 0.948 . S
H611 C639 0.982 . S
H612 C640 0.979 . S
H613 C640 0.980 . S
H614 C640 0.983 . S
H615 C639 0.979 . S
H616 C639 0.977 . S
C617 C605 1.453 . S
C617 H646 0.982 . S
C617 H647 0.979 . S
C617 H648 0.977 . S
C618 C605 1.684 . S
C618 H643 0.979 . S
C618 H644 0.980 . S
C618 H645 0.983 . S
C619 C620 1.391 . S
C619 C624 1.391 . S
C619 H649 0.948 . S
C620 C619 1.391 . S
C620 C621 1.391 . S
C621 C620 1.391 . S
C621 C622 1.392 . S
C621 H650 0.947 . S
C622 C621 1.392 . S
C622 C623 1.419 . S
C622 H651 0.948 . S
C623 C622 1.419 . S
C623 C624 1.391 . S
C623 C627 1.397 . S
C624 C619 1.391 . S
C624 C623 1.391 . S
C624 C625 1.399 . S
C625 C624 1.399 . S
C625 C626 1.396 . S
C625 C628 1.453 . S
C625 C629 1.684 . S
C626 C607 1.723 . S
C626 C625 1.396 . S
C626 C627 1.394 . S
C627 C623 1.397 . S
C627 C626 1.394 . S
C627 C637 1.723 . S
C628 C625 1.453 . S
C628 H652 0.982 . S
C628 H653 0.979 . S
C628 H654 0.977 . S
C629 C625 1.684 . S
C629 H655 0.979 . S
C629 H656 0.980 . S
C629 H657 0.983 . S
C630 H606 0.948 . S
C630 C631 1.391 . S
C630 C635 1.391 . S
C631 C630 1.391 . S
C631 C632 1.391 . S
C632 H609 0.947 . S
C632 C631 1.391 . S
C632 C633 1.392 . S
C633 H610 0.948 . S
C633 C632 1.392 . S
C633 C634 1.419 . S
C634 C633 1.419 . S
C634 C635 1.391 . S
C634 C638 1.397 . S
C635 C630 1.391 . S
C635 C634 1.391 . S
C635 C636 1.399 . S
C636 C635 1.399 . S
C636 C637 1.396 . S
C636 C639 1.453 . S
C636 C640 1.684 . S
C637 C627 1.723 . S
C637 C636 1.396 . S
C637 C638 1.394 . S
C638 C608 1.723 . S
C638 C634 1.397 . S
C638 C637 1.394 . S
C639 H611 0.982 . S
C639 H615 0.979 . S
C639 H616 0.977 . S
C639 C636 1.453 . S
C640 H612 0.979 . S
C640 H613 0.980 . S
C640 H614 0.983 . S
C640 C636 1.684 . S
H641 C659 0.948 . S
H642 C600 0.948 . S
H643 C618 0.979 . S
H644 C618 0.980 . S
H645 C618 0.983 . S
H646 C617 0.982 . S
H647 C617 0.979 . S
H648 C617 0.977 . S
H649 C619 0.948 . S
H650 C621 0.947 . S
H651 C622 0.948 . S
H652 C628 0.982 . S
H653 C628 0.979 . S
H654 C628 0.977 . S
H655 C629 0.979 . S
H656 C629 0.980 . S
H657 C629 0.983 . S
H658 C602 0.947 . S
C659 C602 1.392 . S
C659 C603 1.419 . S
C659 H641 0.948 . S
C660 C661 1.391 . S
C660 C664 1.391 . S
C660 H702 0.948 . S
C661 C660 1.391 . S
C661 C662 1.391 . S
C662 C661 1.391 . S
C662 H718 0.947 . S
C662 C719 1.392 . S
C663 C664 1.391 . S
C663 C667 1.397 . S
C663 C719 1.419 . S
C664 C660 1.391 . S
C664 C663 1.391 . S
C664 C665 1.399 . S
C665 C664 1.399 . S
C665 C668 1.396 . S
C665 C677 1.453 . S
C665 C678 1.684 . S
H666 C690 0.948 . S
C667 C663 1.397 . S
C667 C668 1.394 . S
C667 C686 1.723 . S
C668 C665 1.396 . S
C668 C667 1.394 . S
C668 C698 1.723 . S
H669 C692 0.947 . S
H670 C693 0.948 . S
H671 C699 0.982 . S
H672 C700 0.979 . S
H673 C700 0.980 . S
H674 C700 0.983 . S
H675 C699 0.979 . S
H676 C699 0.977 . S
C677 C665 1.453 . S
C677 H706 0.982 . S
C677 H707 0.979 . S
C677 H708 0.977 . S
C678 C665 1.684 . S
C678 H703 0.979 . S
C678 H704 0.980 . S
C678 H705 0.983 . S
C679 C680 1.391 . S
C679 C684 1.391 . S
C679 H709 0.948 . S
C680 C679 1.391 . S
C680 C681 1.391 . S
C681 C680 1.391 . S
C681 C682 1.392 . S
C681 H710 0.947 . S
C682 C681 1.392 . S
C682 C683 1.419 . S
C682 H711 0.948 . S
C683 C682 1.419 . S
C683 C684 1.391 . S
C683 C687 1.397 . S
C684 C679 1.391 . S
C684 C683 1.391 . S
C684 C685 1.399 . S
C685 C684 1.399 . S
C685 C686 1.396 . S
C685 C688 1.453 . S
C685 C689 1.684 . S
C686 C667 1.723 . S
C686 C685 1.396 . S
C686 C687 1.394 . S
C687 C683 1.397 . S
C687 C686 1.394 . S
C687 C697 1.723 . S
C688 C685 1.453 . S
C688 H712 0.982 . S
C688 H713 0.979 . S
C688 H714 0.977 . S
C689 C685 1.684 . S
C689 H715 0.979 . S
C689 H716 0.980 . S
C689 H717 0.983 . S
C690 H666 0.948 . S
C690 C691 1.391 . S
C690 C695 1.391 . S
C691 C690 1.391 . S
C691 C692 1.391 . S
C692 H669 0.947 . S
C692 C691 1.391 . S
C692 C693 1.392 . S
C693 H670 0.948 . S
C693 C692 1.392 . S
C693 C694 1.419 . S
C694 C693 1.419 . S
C694 C695 1.391 . S
C694 C698 1.397 . S
C695 C690 1.391 . S
C695 C694 1.391 . S
C695 C696 1.399 . S
C696 C695 1.399 . S
C696 C697 1.396 . S
C696 C699 1.453 . S
C696 C700 1.684 . S
C697 C687 1.723 . S
C697 C696 1.396 . S
C697 C698 1.394 . S
C698 C668 1.723 . S
C698 C694 1.397 . S
C698 C697 1.394 . S
C699 H671 0.982 . S
C699 H675 0.979 . S
C699 H676 0.977 . S
C699 C696 1.453 . S
C700 H672 0.979 . S
C700 H673 0.980 . S
C700 H674 0.983 . S
C700 C696 1.684 . S
H701 C719 0.948 . S
H702 C660 0.948 . S
H703 C678 0.979 . S
H704 C678 0.980 . S
H705 C678 0.983 . S
H706 C677 0.982 . S
H707 C677 0.979 . S
H708 C677 0.977 . S
H709 C679 0.948 . S
H710 C681 0.947 . S
H711 C682 0.948 . S
H712 C688 0.982 . S
H713 C688 0.979 . S
H714 C688 0.977 . S
H715 C689 0.979 . S
H716 C689 0.980 . S
H717 C689 0.983 . S
H718 C662 0.947 . S
C719 C662 1.392 . S
C719 C663 1.419 . S
C719 H701 0.948 . S
C720 C721 1.391 . S
C720 C724 1.391 . S
C720 H762 0.948 . S
C721 C720 1.391 . S
C721 C722 1.391 . S
C722 C721 1.391 . S
C722 H778 0.947 . S
C722 C779 1.392 . S
C723 C724 1.391 . S
C723 C727 1.397 . S
C723 C779 1.419 . S
C724 C720 1.391 . S
C724 C723 1.391 . S
C724 C725 1.399 . S
C725 C724 1.399 . S
C725 C728 1.396 . S
C725 C737 1.453 . S
C725 C738 1.684 . S
H726 C750 0.948 . S
C727 C723 1.397 . S
C727 C728 1.394 . S
C727 C746 1.723 . S
C728 C725 1.396 . S
C728 C727 1.394 . S
C728 C758 1.723 . S
H729 C752 0.947 . S
H730 C753 0.948 . S
H731 C759 0.982 . S
H732 C760 0.979 . S
H733 C760 0.980 . S
H734 C760 0.983 . S
H735 C759 0.979 . S
H736 C759 0.977 . S
C737 C725 1.453 . S
C737 H766 0.982 . S
C737 H767 0.979 . S
C737 H768 0.977 . S
C738 C725 1.684 . S
C738 H763 0.979 . S
C738 H764 0.980 . S
C738 H765 0.983 . S
C739 C740 1.391 . S
C739 C744 1.391 . S
C739 H769 0.948 . S
C740 C739 1.391 . S
C740 C741 1.391 . S
C741 C740 1.391 . S
C741 C742 1.392 . S
C741 H770 0.947 . S
C742 C741 1.392 . S
C742 C743 1.419 . S
C742 H771 0.948 . S
C743 C742 1.419 . S
C743 C744 1.391 . S
C743 C747 1.397 . S
C744 C739 1.391 . S
C744 C743 1.391 . S
C744 C745 1.399 . S
C745 C744 1.399 . S
C745 C746 1.396 . S
C745 C748 1.453 . S
C745 C749 1.684 . S
C746 C727 1.723 . S
C746 C745 1.396 . S
C746 C747 1.394 . S
C747 C743 1.397 . S
C747 C746 1.394 . S
C747 C757 1.723 . S
C748 C745 1.453 . S
C748 H772 0.982 . S
C748 H773 0.979 . S
C748 H774 0.977 . S
C749 C745 1.684 . S
C749 H775 0.979 . S
C749 H776 0.980 . S
C749 H777 0.983 . S
C750 H726 0.948 . S
C750 C751 1.391 . S
C750 C755 1.391 . S
C751 C750 1.391 . S
C751 C752 1.391 . S
C752 H729 0.947 . S
C752 C751 1.391 . S
C752 C753 1.392 . S
C753 H730 0.948 . S
C753 C752 1.392 . S
C753 C754 1.419 . S
C754 C753 1.419 . S
C754 C755 1.391 . S
C754 C758 1.397 . S
C755 C750 1.391 . S
C755 C754 1.391 . S
C755 C756 1.399 . S
C756 C755 1.399 . S
C756 C757 1.396 . S
C756 C759 1.453 . S
C756 C760 1.684 . S
C757 C747 1.723 . S
C757 C756 1.396 . S
C757 C758 1.394 . S
C758 C728 1.723 . S
C758 C754 1.397 . S
C758 C757 1.394 . S
C759 H731 0.982 . S
C759 H735 0.979 . S
C759 H736 0.977 . S
C759 C756 1.453 . S
C760 H732 0.979 . S
C760 H733 0.980 . S
C760 H734 0.983 . S
C760 C756 1.684 . S
H761 C779 0.948 . S
H762 C720 0.948 . S
H763 C738 0.979 . S
H764 C738 0.980 . S
H765 C738 0.983 . S
H766 C737 0.982 . S
H767 C737 0.979 . S
H768 C737 0.977 . S
H769 C739 0.948 . S
H770 C741 0.947 . S
H771 C742 0.948 . S
H772 C748 0.982 . S
H773 C748 0.979 . S
H774 C748 0.977 . S
H775 C749 0.979 . S
H776 C749 0.980 . S
H777 C749 0.983 . S
H778 C722 0.947 . S
C779 C722 1.392 . S
C779 C723 1.419 . S
C779 H761 0.948 . S
C780 C781 1.391 . S
C780 C784 1.391 1_554 S
C780 H822 0.948 . S
C781 C780 1.391 . S
C781 C782 1.391 1_554 S
C782 C781 1.391 1_556 S
C782 H838 0.947 . S
C782 C839 1.392 . S
C783 C784 1.391 . S
C783 C787 1.397 . S
C783 C839 1.419 . S
C784 C780 1.391 1_556 S
C784 C783 1.391 . S
C784 C785 1.399 . S
C785 C784 1.399 . S
C785 C788 1.396 . S
C785 C797 1.453 1_556 S
C785 C798 1.683 1_556 S
H786 C810 0.948 . S
C787 C783 1.397 . S
C787 C788 1.394 . S
C787 C806 1.723 . S
C788 C785 1.396 . S
C788 C787 1.394 . S
C788 C818 1.723 . S
H789 C812 0.930 1_554 S
H790 C813 0.948 . S
H791 C819 0.982 . S
H792 C820 0.979 . S
H793 C820 0.980 . S
H794 C820 0.983 . S
H795 C819 0.979 . S
H796 C819 0.977 . S
C797 C785 1.453 1_554 S
C797 H826 0.982 . S
C797 H827 0.979 . S
C797 H828 0.977 . S
C798 C785 1.683 1_554 S
C798 H823 0.976 1_554 S
C798 H824 0.980 1_554 S
C798 H825 0.986 . S
C799 C800 1.391 . S
C799 C804 1.391 . S
C799 H829 0.948 . S
C800 C799 1.391 . S
C800 C801 1.391 . S
C801 C800 1.391 . S
C801 C802 1.392 . S
C801 H830 0.947 . S
C802 C801 1.392 . S
C802 C803 1.419 . S
C802 H831 0.948 . S
C803 C802 1.419 . S
C803 C804 1.391 . S
C803 C807 1.397 . S
C804 C799 1.391 . S
C804 C803 1.391 . S
C804 C805 1.399 . S
C805 C804 1.399 . S
C805 C806 1.396 . S
C805 C808 1.453 . S
C805 C809 1.684 . S
C806 C787 1.723 . S
C806 C805 1.396 . S
C806 C807 1.394 . S
C807 C803 1.397 . S
C807 C806 1.394 . S
C807 C817 1.723 . S
C808 C805 1.453 . S
C808 H832 0.982 . S
C808 H833 0.979 . S
C808 H834 0.977 . S
C809 C805 1.684 . S
C809 H835 0.979 . S
C809 H836 0.980 . S
C809 H837 0.983 . S
C810 H786 0.948 . S
C810 C811 1.391 . S
C810 C815 1.391 . S
C811 C810 1.391 . S
C811 C812 1.391 . S
C812 H789 0.930 1_556 S
C812 C811 1.391 . S
C812 C813 1.392 . S
C813 H790 0.948 . S
C813 C812 1.392 . S
C813 C814 1.419 . S
C814 C813 1.419 . S
C814 C815 1.391 . S
C814 C818 1.397 . S
C815 C810 1.391 . S
C815 C814 1.391 . S
C815 C816 1.399 . S
C816 C815 1.399 . S
C816 C817 1.396 . S
C816 C819 1.453 . S
C816 C820 1.684 . S
C817 C807 1.723 . S
C817 C816 1.396 . S
C817 C818 1.394 . S
C818 C788 1.723 . S
C818 C814 1.397 . S
C818 C817 1.394 . S
C819 H791 0.982 . S
C819 H795 0.979 . S
C819 H796 0.977 . S
C819 C816 1.453 . S
C820 H792 0.979 . S
C820 H793 0.980 . S
C820 H794 0.983 . S
C820 C816 1.684 . S
H821 C839 0.948 . S
H822 C780 0.948 . S
H823 C798 0.976 1_556 S
H824 C798 0.980 1_556 S
H825 C798 0.986 . S
H826 C797 0.982 . S
H827 C797 0.979 . S
H828 C797 0.977 . S
H829 C799 0.948 . S
H830 C801 0.947 . S
H831 C802 0.948 . S
H832 C808 0.982 . S
H833 C808 0.979 . S
H834 C808 0.977 . S
H835 C809 0.979 . S
H836 C809 0.980 . S
H837 C809 0.983 . S
H838 C782 0.947 . S
C839 C782 1.392 . S
C839 C783 1.419 . S
C839 H821 0.948 . S
C840 C841 1.391 . S
C840 C844 1.391 . S
C840 H882 0.948 . S
C841 C840 1.391 . S
C841 C842 1.391 . S
C842 C841 1.391 . S
C842 H898 0.947 . S
C842 C899 1.392 . S
C843 C844 1.391 . S
C843 C847 1.397 . S
C843 C899 1.419 . S
C844 C840 1.391 . S
C844 C843 1.391 . S
C844 C845 1.399 . S
C845 C844 1.399 . S
C845 C848 1.396 . S
C845 C857 1.453 . S
C845 C858 1.684 . S
H846 C870 0.948 . S
C847 C843 1.397 . S
C847 C848 1.394 . S
C847 C866 1.723 . S
C848 C845 1.396 . S
C848 C847 1.394 . S
C848 C878 1.723 . S
H849 C872 0.947 . S
H850 C873 0.948 . S
H851 C879 0.982 . S
H852 C880 0.979 . S
H853 C880 0.980 . S
H854 C880 0.983 . S
H855 C879 0.979 . S
H856 C879 0.977 . S
C857 C845 1.453 . S
C857 H886 0.982 . S
C857 H887 0.979 . S
C857 H888 0.977 . S
C858 C845 1.684 . S
C858 H883 0.979 . S
C858 H884 0.980 . S
C858 H885 0.983 . S
C859 C860 1.391 . S
C859 C864 1.391 . S
C859 H889 0.948 . S
C860 C859 1.391 . S
C860 C861 1.391 . S
C861 C860 1.391 . S
C861 C862 1.392 . S
C861 H890 0.947 . S
C862 C861 1.392 . S
C862 C863 1.419 . S
C862 H891 0.948 . S
C863 C862 1.419 . S
C863 C864 1.391 . S
C863 C867 1.397 . S
C864 C859 1.391 . S
C864 C863 1.391 . S
C864 C865 1.399 . S
C865 C864 1.399 . S
C865 C866 1.396 . S
C865 C868 1.453 . S
C865 C869 1.684 . S
C866 C847 1.723 . S
C866 C865 1.396 . S
C866 C867 1.394 . S
C867 C863 1.397 . S
C867 C866 1.394 . S
C867 C877 1.723 . S
C868 C865 1.453 . S
C868 H892 0.982 . S
C868 H893 0.979 . S
C868 H894 0.977 . S
C869 C865 1.684 . S
C869 H895 0.979 . S
C869 H896 0.980 . S
C869 H897 0.983 . S
C870 H846 0.948 . S
C870 C871 1.391 . S
C870 C875 1.391 . S
C871 C870 1.391 . S
C871 C872 1.391 . S
C872 H849 0.947 . S
C872 C871 1.391 . S
C872 C873 1.392 . S
C873 H850 0.948 . S
C873 C872 1.392 . S
C873 C874 1.419 . S
C874 C873 1.419 . S
C874 C875 1.391 . S
C874 C878 1.397 . S
C875 C870 1.391 . S
C875 C874 1.391 . S
C875 C876 1.399 . S
C876 C875 1.399 . S
C876 C877 1.396 . S
C876 C879 1.453 . S
C876 C880 1.684 . S
C877 C867 1.723 . S
C877 C876 1.396 . S
C877 C878 1.394 . S
C878 C848 1.723 . S
C878 C874 1.397 . S
C878 C877 1.394 . S
C879 H851 0.982 . S
C879 H855 0.979 . S
C879 H856 0.977 . S
C879 C876 1.453 . S
C880 H852 0.979 . S
C880 H853 0.980 . S
C880 H854 0.983 . S
C880 C876 1.684 . S
H881 C899 0.948 . S
H882 C840 0.948 . S
H883 C858 0.979 . S
H884 C858 0.980 . S
H885 C858 0.983 . S
H886 C857 0.982 . S
H887 C857 0.979 . S
H888 C857 0.977 . S
H889 C859 0.948 . S
H890 C861 0.947 . S
H891 C862 0.948 . S
H892 C868 0.982 . S
H893 C868 0.979 . S
H894 C868 0.977 . S
H895 C869 0.979 . S
H896 C869 0.980 . S
H897 C869 0.983 . S
H898 C842 0.947 . S
C899 C842 1.392 . S
C899 C843 1.419 . S
C899 H881 0.948 . S
C900 C901 1.392 . S
C900 C904 1.391 1_565 S
C900 H942 0.948 1_565 S
C901 C900 1.392 . S
C901 C902 1.391 . S
C902 C901 1.391 . S
C902 H958 0.947 . S
C902 C959 1.392 . S
C903 C904 1.391 . S
C903 C907 1.397 . S
C903 C959 1.419 1_545 S
C904 C900 1.391 1_545 S
C904 C903 1.391 . S
C904 C905 1.399 . S
C905 C904 1.399 . S
C905 C908 1.396 . S
C905 C917 1.453 . S
C905 C918 1.684 1_556 S
H906 C930 0.948 1_556 S
C907 C903 1.397 . S
C907 C908 1.394 . S
C907 C926 1.723 . S
C908 C905 1.396 . S
C908 C907 1.394 . S
C908 C938 1.723 . S
H909 C932 0.947 . S
H910 C933 0.948 . S
H911 C939 0.982 . S
H912 C940 0.979 . S
H913 C940 0.980 . S
H914 C940 0.983 . S
H915 C939 0.979 . S
H916 C939 0.977 . S
C917 C905 1.453 . S
C917 H946 0.982 . S
C917 H947 0.966 1_556 S
C917 H948 0.977 . S
C918 C905 1.684 1_554 S
C918 H943 0.979 . S
C918 H944 0.980 . S
C918 H945 0.983 . S
C919 C920 1.391 . S
C919 C924 1.391 . S
C919 H949 0.948 . S
C920 C919 1.391 . S
C920 C921 1.391 . S
C921 C920 1.391 . S
C921 C922 1.392 . S
C921 H950 0.947 . S
C922 C921 1.392 . S
C922 C923 1.419 . S
C922 H951 0.948 . S
C923 C922 1.419 . S
C923 C924 1.391 . S
C923 C927 1.397 . S
C924 C919 1.391 . S
C924 C923 1.391 . S
C924 C925 1.399 . S
C925 C924 1.399 . S
C925 C926 1.396 . S
C925 C928 1.453 . S
C925 C929 1.684 1_545 S
C926 C907 1.723 . S
C926 C925 1.396 . S
C926 C927 1.394 . S
C927 C923 1.397 . S
C927 C926 1.394 . S
C927 C937 1.723 . S
C928 C925 1.453 . S
C928 H952 0.982 . S
C928 H953 0.967 1_545 S
C928 H954 0.977 . S
C929 C925 1.684 1_565 S
C929 H955 0.979 . S
C929 H956 0.980 . S
C929 H957 0.983 . S
C930 H906 0.948 1_554 S
C930 C931 1.393 . S
C930 C935 1.390 1_554 S
C931 C930 1.393 . S
C931 C932 1.391 . S
C932 H909 0.947 . S
C932 C931 1.391 . S
C932 C933 1.392 . S
C933 H910 0.948 . S
C933 C932 1.392 . S
C933 C934 1.419 1_554 S
C934 C933 1.419 1_556 S
C934 C935 1.391 . S
C934 C938 1.397 . S
C935 C930 1.390 1_556 S
C935 C934 1.391 . S
C935 C936 1.399 . S
C936 C935 1.399 . S
C936 C937 1.396 . S
C936 C939 1.453 . S
C936 C940 1.684 . S
C937 C927 1.723 . S
C937 C936 1.396 . S
C937 C938 1.394 . S
C938 C908 1.723 . S
C938 C934 1.397 . S
C938 C937 1.394 . S
C939 H911 0.982 . S
C939 H915 0.979 . S
C939 H916 0.977 . S
C939 C936 1.453 . S
C940 H912 0.979 . S
C940 H913 0.980 . S
C940 H914 0.983 . S
C940 C936 1.684 . S
H941 C959 0.948 . S
H942 C900 0.948 1_545 S
H943 C918 0.979 . S
H944 C918 0.980 . S
H945 C918 0.983 . S
H946 C917 0.982 . S
H947 C917 0.966 1_554 S
H948 C917 0.977 . S
H949 C919 0.948 . S
H950 C921 0.947 . S
H951 C922 0.948 . S
H952 C928 0.982 . S
H953 C928 0.967 1_565 S
H954 C928 0.977 . S
H955 C929 0.979 . S
H956 C929 0.980 . S
H957 C929 0.983 . S
H958 C902 0.947 . S
C959 C902 1.392 . S
C959 C903 1.419 1_565 S
C959 H941 0.948 . S
Li960 N977 1.990 . S
Li960 O1020 1.956 . S
Li960 O1021 1.970 1_556 S
Li960 O1022 1.961 . S
Li961 N985 1.990 . S
Li961 O1020 1.970 1_554 S
Li961 O1021 1.956 . S
Li961 O1023 1.961 . S
Li962 N1007 1.990 . S
Li962 O1020 1.961 . S
Li962 O1022 1.956 . S
Li962 O1023 1.970 1_556 S
Li963 N1013 1.990 . S
Li963 O1021 1.961 . S
Li963 O1022 1.970 1_554 S
Li963 O1023 1.956 . S
C964 C966 1.348 1_556 S
C964 C967 1.356 . S
C964 O1020 1.325 . S
N965 C968 1.314 1_556 S
N965 C969 1.279 . S
C966 C964 1.348 1_554 S
C966 C968 1.353 . S
C966 H1024 0.929 . S
C967 C964 1.356 . S
C967 C969 1.358 . S
C967 H1025 0.930 . S
C968 N965 1.314 1_554 S
C968 C966 1.353 . S
C968 H1026 0.930 . S
C969 N965 1.279 . S
C969 C967 1.358 . S
C969 H1027 0.930 . S
C970 C973 1.348 . S
C970 C974 1.356 . S
C970 O1021 1.325 . S
C971 N972 1.279 . S
C971 C974 1.358 . S
C971 H1028 0.930 . S
N972 C971 1.279 . S
N972 C975 1.314 . S
C973 C970 1.348 . S
C973 C975 1.353 . S
C973 H1029 0.929 . S
C974 C970 1.356 . S
C974 C971 1.358 . S
C974 H1030 0.930 . S
C975 N972 1.314 . S
C975 C973 1.353 . S
C975 H1031 0.930 . S
C976 N977 1.314 . S
C976 C981 1.353 . S
C976 H982 0.930 . S
N977 Li960 1.990 . S
N977 C976 1.314 . S
N977 C979 1.279 . S
C978 C979 1.358 . S
C978 C980 1.356 . S
C978 H1032 0.930 . S
C979 N977 1.279 . S
C979 C978 1.358 . S
C979 H983 0.930 . S
C980 C978 1.356 . S
C980 C981 1.348 . S
C981 C976 1.353 . S
C981 C980 1.348 . S
C981 H1033 0.929 . S
H982 C976 0.930 . S
H983 C979 0.930 . S
C984 N985 1.314 . S
C984 C986 1.353 . S
C984 H990 0.930 . S
N985 Li961 1.990 . S
N985 C984 1.314 . S
N985 C988 1.279 . S
C986 C984 1.353 . S
C986 C989 1.348 . S
C986 H1034 0.929 . S
C987 C988 1.358 . S
C987 C989 1.356 . S
C987 H1035 0.930 . S
C988 N985 1.279 . S
C988 C987 1.358 . S
C988 H991 0.930 . S
C989 C986 1.348 . S
C989 C987 1.356 . S
H990 C984 0.930 . S
H991 C988 0.930 . S
C992 C994 1.348 . S
C992 C995 1.356 . S
C992 O1022 1.325 . S
N993 C996 1.314 . S
N993 C997 1.279 . S
C994 C992 1.348 . S
C994 C996 1.353 . S
C994 H1036 0.929 . S
C995 C992 1.356 . S
C995 C997 1.358 . S
C995 H1037 0.930 . S
C996 N993 1.314 . S
C996 C994 1.353 . S
C996 H1038 0.930 . S
C997 N993 1.279 . S
C997 C995 1.358 . S
C997 H1039 0.930 . S
C998 C999 1.348 1_554 S
C998 C1000 1.356 . S
C998 O1023 1.325 . S
C999 C998 1.348 1_556 S
C999 C1001 1.353 . S
C999 H1040 0.929 . S
C1000 C998 1.356 . S
C1000 C1002 1.358 . S
C1000 H1041 0.930 . S
C1001 C999 1.353 . S
C1001 N1003 1.314 1_556 S
C1001 H1042 0.930 . S
C1002 C1000 1.358 . S
C1002 N1003 1.279 . S
C1002 H1043 0.930 . S
N1003 C1001 1.314 1_554 S
N1003 C1002 1.279 . S
C1004 C1006 1.353 . S
C1004 N1007 1.314 . S
C1004 H1010 0.930 . S
C1005 N1007 1.279 . S
C1005 C1008 1.358 . S
C1005 H1011 0.930 . S
C1006 C1004 1.353 . S
C1006 C1009 1.348 . S
C1006 H1044 0.929 . S
N1007 Li962 1.990 . S
N1007 C1004 1.314 . S
N1007 C1005 1.279 . S
C1008 C1005 1.358 . S
C1008 C1009 1.356 . S
C1008 H1045 0.930 . S
C1009 C1006 1.348 . S
C1009 C1008 1.356 . S
H1010 C1004 0.930 . S
H1011 C1005 0.930 . S
C1012 N1013 1.314 . S
C1012 C1014 1.353 . S
C1012 H1018 0.930 . S
N1013 Li963 1.990 . S
N1013 C1012 1.314 . S
N1013 C1016 1.279 . S
C1014 C1012 1.353 . S
C1014 C1017 1.348 . S
C1014 H1046 0.929 . S
C1015 C1016 1.358 . S
C1015 C1017 1.356 . S
C1015 H1047 0.930 . S
C1016 N1013 1.279 . S
C1016 C1015 1.358 . S
C1016 H1019 0.930 . S
C1017 C1014 1.348 . S
C1017 C1015 1.356 . S
H1018 C1012 0.930 . S
H1019 C1016 0.930 . S
O1020 Li960 1.956 . S
O1020 Li961 1.970 1_556 S
O1020 Li962 1.961 . S
O1020 C964 1.325 . S
O1021 Li960 1.970 1_554 S
O1021 Li961 1.956 . S
O1021 Li963 1.961 . S
O1021 C970 1.325 . S
O1022 Li960 1.961 . S
O1022 Li962 1.956 . S
O1022 Li963 1.970 1_556 S
O1022 C992 1.325 . S
O1023 Li961 1.961 . S
O1023 Li962 1.970 1_554 S
O1023 Li963 1.956 . S
O1023 C998 1.325 . S
H1024 C966 0.929 . S
H1025 C967 0.930 . S
H1026 C968 0.930 . S
H1027 C969 0.930 . S
H1028 C971 0.930 . S
H1029 C973 0.929 . S
H1030 C974 0.930 . S
H1031 C975 0.930 . S
H1032 C978 0.930 . S
H1033 C981 0.929 . S
H1034 C986 0.929 . S
H1035 C987 0.930 . S
H1036 C994 0.929 . S
H1037 C995 0.930 . S
H1038 C996 0.930 . S
H1039 C997 0.930 . S
H1040 C999 0.929 . S
H1041 C1000 0.930 . S
H1042 C1001 0.930 . S
H1043 C1002 0.930 . S
H1044 C1006 0.929 . S
H1045 C1008 0.930 . S
H1046 C1014 0.929 . S
H1047 C1015 0.930 . S
Li1048 N1065 1.990 . S
Li1048 O1108 1.956 . S
Li1048 O1109 1.970 . S
Li1048 O1110 1.961 . S
Li1049 N1073 1.990 . S
Li1049 O1108 1.970 . S
Li1049 O1109 1.956 . S
Li1049 O1111 1.961 . S
Li1050 N1095 1.990 . S
Li1050 O1108 1.961 . S
Li1050 O1110 1.956 . S
Li1050 O1111 1.970 . S
Li1051 N1101 1.990 . S
Li1051 O1109 1.961 . S
Li1051 O1110 1.970 . S
Li1051 O1111 1.956 . S
C1052 C1054 1.348 . S
C1052 C1055 1.356 . S
C1052 O1108 1.325 . S
N1053 C1056 1.314 . S
N1053 C1057 1.279 . S
C1054 C1052 1.348 . S
C1054 C1056 1.353 . S
C1054 H1112 0.929 . S
C1055 C1052 1.356 . S
C1055 C1057 1.358 . S
C1055 H1113 0.930 . S
C1056 N1053 1.314 . S
C1056 C1054 1.353 . S
C1056 H1114 0.930 . S
C1057 N1053 1.279 . S
C1057 C1055 1.358 . S
C1057 H1115 0.930 . S
C1058 C1061 1.348 . S
C1058 C1062 1.356 . S
C1058 O1109 1.325 . S
C1059 N1060 1.279 . S
C1059 C1062 1.358 . S
C1059 H1116 0.930 . S
N1060 C1059 1.279 . S
N1060 C1063 1.314 . S
C1061 C1058 1.348 . S
C1061 C1063 1.353 . S
C1061 H1117 0.929 . S
C1062 C1058 1.356 . S
C1062 C1059 1.358 . S
C1062 H1118 0.930 . S
C1063 N1060 1.314 . S
C1063 C1061 1.353 . S
C1063 H1119 0.930 . S
C1064 N1065 1.314 . S
C1064 C1069 1.353 . S
C1064 H1070 0.930 . S
N1065 Li1048 1.990 . S
N1065 C1064 1.314 . S
N1065 C1067 1.279 . S
C1066 C1067 1.358 . S
C1066 C1068 1.356 . S
C1066 H1120 0.930 . S
C1067 N1065 1.279 . S
C1067 C1066 1.358 . S
C1067 H1071 0.930 . S
C1068 C1066 1.356 . S
C1068 C1069 1.348 . S
C1069 C1064 1.353 . S
C1069 C1068 1.348 . S
C1069 H1121 0.929 . S
H1070 C1064 0.930 . S
H1071 C1067 0.930 . S
C1072 N1073 1.314 . S
C1072 C1074 1.353 . S
C1072 H1078 0.930 . S
N1073 Li1049 1.990 . S
N1073 C1072 1.314 . S
N1073 C1076 1.279 . S
C1074 C1072 1.353 . S
C1074 C1077 1.348 . S
C1074 H1122 0.929 . S
C1075 C1076 1.358 . S
C1075 C1077 1.356 . S
C1075 H1123 0.930 . S
C1076 N1073 1.279 . S
C1076 C1075 1.358 . S
C1076 H1079 0.930 . S
C1077 C1074 1.348 . S
C1077 C1075 1.356 . S
H1078 C1072 0.930 . S
H1079 C1076 0.930 . S
C1080 C1082 1.348 . S
C1080 C1083 1.356 . S
C1080 O1110 1.325 . S
N1081 C1084 1.314 . S
N1081 C1085 1.279 . S
C1082 C1080 1.348 . S
C1082 C1084 1.353 . S
C1082 H1124 0.929 . S
C1083 C1080 1.356 . S
C1083 C1085 1.358 . S
C1083 H1125 0.930 . S
C1084 N1081 1.314 . S
C1084 C1082 1.353 . S
C1084 H1126 0.930 . S
C1085 N1081 1.279 . S
C1085 C1083 1.358 . S
C1085 H1127 0.930 . S
C1086 C1087 1.348 . S
C1086 C1088 1.356 . S
C1086 O1111 1.325 . S
C1087 C1086 1.348 . S
C1087 C1089 1.353 . S
C1087 H1128 0.929 . S
C1088 C1086 1.356 . S
C1088 C1090 1.358 . S
C1088 H1129 0.930 . S
C1089 C1087 1.353 . S
C1089 N1091 1.314 . S
C1089 H1130 0.930 . S
C1090 C1088 1.358 . S
C1090 N1091 1.279 . S
C1090 H1131 0.930 . S
N1091 C1089 1.314 . S
N1091 C1090 1.279 . S
C1092 C1094 1.353 . S
C1092 N1095 1.314 . S
C1092 H1098 0.930 . S
C1093 N1095 1.279 . S
C1093 C1096 1.358 . S
C1093 H1099 0.930 . S
C1094 C1092 1.353 . S
C1094 C1097 1.348 . S
C1094 H1132 0.929 . S
N1095 Li1050 1.990 . S
N1095 C1092 1.314 . S
N1095 C1093 1.279 . S
C1096 C1093 1.358 . S
C1096 C1097 1.356 . S
C1096 H1133 0.930 . S
C1097 C1094 1.348 . S
C1097 C1096 1.356 . S
H1098 C1092 0.930 . S
H1099 C1093 0.930 . S
C1100 N1101 1.314 . S
C1100 C1102 1.353 . S
C1100 H1106 0.930 . S
N1101 Li1051 1.990 . S
N1101 C1100 1.314 . S
N1101 C1104 1.279 . S
C1102 C1100 1.353 . S
C1102 C1105 1.348 . S
C1102 H1134 0.929 . S
C1103 C1104 1.358 . S
C1103 C1105 1.356 . S
C1103 H1135 0.930 . S
C1104 N1101 1.279 . S
C1104 C1103 1.358 . S
C1104 H1107 0.930 . S
C1105 C1102 1.348 . S
C1105 C1103 1.356 . S
H1106 C1100 0.930 . S
H1107 C1104 0.930 . S
O1108 Li1048 1.956 . S
O1108 Li1049 1.970 . S
O1108 Li1050 1.961 . S
O1108 C1052 1.325 . S
O1109 Li1048 1.970 . S
O1109 Li1049 1.956 . S
O1109 Li1051 1.961 . S
O1109 C1058 1.325 . S
O1110 Li1048 1.961 . S
O1110 Li1050 1.956 . S
O1110 Li1051 1.970 . S
O1110 C1080 1.325 . S
O1111 Li1049 1.961 . S
O1111 Li1050 1.970 . S
O1111 Li1051 1.956 . S
O1111 C1086 1.325 . S
H1112 C1054 0.929 . S
H1113 C1055 0.930 . S
H1114 C1056 0.930 . S
H1115 C1057 0.930 . S
H1116 C1059 0.930 . S
H1117 C1061 0.929 . S
H1118 C1062 0.930 . S
H1119 C1063 0.930 . S
H1120 C1066 0.930 . S
H1121 C1069 0.929 . S
H1122 C1074 0.929 . S
H1123 C1075 0.930 . S
H1124 C1082 0.929 . S
H1125 C1083 0.930 . S
H1126 C1084 0.930 . S
H1127 C1085 0.930 . S
H1128 C1087 0.929 . S
H1129 C1088 0.930 . S
H1130 C1089 0.930 . S
H1131 C1090 0.930 . S
H1132 C1094 0.929 . S
H1133 C1096 0.930 . S
H1134 C1102 0.929 . S
H1135 C1103 0.930 . S
Li1136 N1153 1.990 . S
Li1136 O1196 1.956 . S
Li1136 O1197 1.970 1_556 S
Li1136 O1198 1.961 . S
Li1137 N1161 1.990 . S
Li1137 O1196 1.970 1_554 S
Li1137 O1197 1.956 . S
Li1137 O1199 1.961 . S
Li1138 N1183 1.990 . S
Li1138 O1196 1.961 . S
Li1138 O1198 1.956 . S
Li1138 O1199 1.970 1_556 S
Li1139 N1189 1.990 . S
Li1139 O1197 1.961 . S
Li1139 O1198 1.970 1_554 S
Li1139 O1199 1.956 . S
C1140 C1142 1.348 1_556 S
C1140 C1143 1.356 . S
C1140 O1196 1.325 . S
N1141 C1144 1.314 1_556 S
N1141 C1145 1.279 . S
C1142 C1140 1.348 1_554 S
C1142 C1144 1.353 . S
C1142 H1200 0.929 . S
C1143 C1140 1.356 . S
C1143 C1145 1.358 . S
C1143 H1201 0.930 . S
C1144 N1141 1.314 1_554 S
C1144 C1142 1.353 . S
C1144 H1202 0.930 . S
C1145 N1141 1.279 . S
C1145 C1143 1.358 . S
C1145 H1203 0.930 . S
C1146 C1149 1.348 . S
C1146 C1150 1.356 . S
C1146 O1197 1.325 . S
C1147 N1148 1.279 . S
C1147 C1150 1.358 . S
C1147 H1204 0.930 . S
N1148 C1147 1.279 . S
N1148 C1151 1.314 . S
C1149 C1146 1.348 . S
C1149 C1151 1.353 . S
C1149 H1205 0.929 . S
C1150 C1146 1.356 . S
C1150 C1147 1.358 . S
C1150 H1206 0.930 . S
C1151 N1148 1.314 . S
C1151 C1149 1.353 . S
C1151 H1207 0.930 . S
C1152 N1153 1.314 . S
C1152 C1157 1.353 . S
C1152 H1158 0.930 . S
N1153 Li1136 1.990 . S
N1153 C1152 1.314 . S
N1153 C1155 1.279 . S
C1154 C1155 1.358 . S
C1154 C1156 1.356 . S
C1154 H1208 0.930 . S
C1155 N1153 1.279 . S
C1155 C1154 1.358 . S
C1155 H1159 0.930 . S
C1156 C1154 1.356 . S
C1156 C1157 1.348 . S
C1157 C1152 1.353 . S
C1157 C1156 1.348 . S
C1157 H1209 0.929 . S
H1158 C1152 0.930 . S
H1159 C1155 0.930 . S
C1160 N1161 1.314 . S
C1160 C1162 1.353 . S
C1160 H1166 0.930 . S
N1161 Li1137 1.990 . S
N1161 C1160 1.314 . S
N1161 C1164 1.279 . S
C1162 C1160 1.353 . S
C1162 C1165 1.348 . S
C1162 H1210 0.929 . S
C1163 C1164 1.358 . S
C1163 C1165 1.356 . S
C1163 H1211 0.930 . S
C1164 N1161 1.279 . S
C1164 C1163 1.358 . S
C1164 H1167 0.930 . S
C1165 C1162 1.348 . S
C1165 C1163 1.356 . S
H1166 C1160 0.930 . S
H1167 C1164 0.930 . S
C1168 C1170 1.348 . S
C1168 C1171 1.356 . S
C1168 O1198 1.325 . S
N1169 C1172 1.314 . S
N1169 C1173 1.279 . S
C1170 C1168 1.348 . S
C1170 C1172 1.353 . S
C1170 H1212 0.929 . S
C1171 C1168 1.356 . S
C1171 C1173 1.358 . S
C1171 H1213 0.930 . S
C1172 N1169 1.314 . S
C1172 C1170 1.353 . S
C1172 H1214 0.930 . S
C1173 N1169 1.279 . S
C1173 C1171 1.358 . S
C1173 H1215 0.930 . S
C1174 C1175 1.348 1_554 S
C1174 C1176 1.356 . S
C1174 O1199 1.325 . S
C1175 C1174 1.348 1_556 S
C1175 C1177 1.353 . S
C1175 H1216 0.929 . S
C1176 C1174 1.356 . S
C1176 C1178 1.358 . S
C1176 H1217 0.930 . S
C1177 C1175 1.353 . S
C1177 N1179 1.314 1_556 S
C1177 H1218 0.930 . S
C1178 C1176 1.358 . S
C1178 N1179 1.279 . S
C1178 H1219 0.930 . S
N1179 C1177 1.314 1_554 S
N1179 C1178 1.279 . S
C1180 C1182 1.353 . S
C1180 N1183 1.314 . S
C1180 H1186 0.930 . S
C1181 N1183 1.279 . S
C1181 C1184 1.358 . S
C1181 H1187 0.930 . S
C1182 C1180 1.353 . S
C1182 C1185 1.348 . S
C1182 H1220 0.929 . S
N1183 Li1138 1.990 . S
N1183 C1180 1.314 . S
N1183 C1181 1.279 . S
C1184 C1181 1.358 . S
C1184 C1185 1.356 . S
C1184 H1221 0.930 . S
C1185 C1182 1.348 . S
C1185 C1184 1.356 . S
H1186 C1180 0.930 . S
H1187 C1181 0.930 . S
C1188 N1189 1.314 . S
C1188 C1190 1.353 . S
C1188 H1194 0.930 . S
N1189 Li1139 1.990 . S
N1189 C1188 1.314 . S
N1189 C1192 1.279 . S
C1190 C1188 1.353 . S
C1190 C1193 1.348 . S
C1190 H1222 0.929 . S
C1191 C1192 1.358 . S
C1191 C1193 1.356 . S
C1191 H1223 0.930 . S
C1192 N1189 1.279 . S
C1192 C1191 1.358 . S
C1192 H1195 0.930 . S
C1193 C1190 1.348 . S
C1193 C1191 1.356 . S
H1194 C1188 0.930 . S
H1195 C1192 0.930 . S
O1196 Li1136 1.956 . S
O1196 Li1137 1.970 1_556 S
O1196 Li1138 1.961 . S
O1196 C1140 1.325 . S
O1197 Li1136 1.970 1_554 S
O1197 Li1137 1.956 . S
O1197 Li1139 1.961 . S
O1197 C1146 1.325 . S
O1198 Li1136 1.961 . S
O1198 Li1138 1.956 . S
O1198 Li1139 1.970 1_556 S
O1198 C1168 1.325 . S
O1199 Li1137 1.961 . S
O1199 Li1138 1.970 1_554 S
O1199 Li1139 1.956 . S
O1199 C1174 1.325 . S
H1200 C1142 0.929 . S
H1201 C1143 0.930 . S
H1202 C1144 0.930 . S
H1203 C1145 0.930 . S
H1204 C1147 0.930 . S
H1205 C1149 0.929 . S
H1206 C1150 0.930 . S
H1207 C1151 0.930 . S
H1208 C1154 0.930 . S
H1209 C1157 0.929 . S
H1210 C1162 0.929 . S
H1211 C1163 0.930 . S
H1212 C1170 0.929 . S
H1213 C1171 0.930 . S
H1214 C1172 0.930 . S
H1215 C1173 0.930 . S
H1216 C1175 0.929 . S
H1217 C1176 0.930 . S
H1218 C1177 0.930 . S
H1219 C1178 0.930 . S
H1220 C1182 0.929 . S
H1221 C1184 0.930 . S
H1222 C1190 0.929 . S
H1223 C1191 0.930 . S
Li1224 N1241 1.990 . S
Li1224 O1284 1.956 . S
Li1224 O1285 1.970 1_545 S
Li1224 O1286 1.961 . S
Li1225 N1249 1.990 . S
Li1225 O1284 1.970 1_565 S
Li1225 O1285 1.956 . S
Li1225 O1287 1.961 . S
Li1226 N1271 1.990 . S
Li1226 O1284 1.961 . S
Li1226 O1286 1.956 . S
Li1226 O1287 1.970 1_545 S
Li1227 N1277 1.990 . S
Li1227 O1285 1.961 . S
Li1227 O1286 1.970 1_565 S
Li1227 O1287 1.956 . S
C1228 C1230 1.348 . S
C1228 C1231 1.356 . S
C1228 O1284 1.325 . S
N1229 C1232 1.314 . S
N1229 C1233 1.279 . S
C1230 C1228 1.348 . S
C1230 C1232 1.353 . S
C1230 H1288 0.929 . S
C1231 C1228 1.356 . S
C1231 C1233 1.358 . S
C1231 H1289 0.930 . S
C1232 N1229 1.314 . S
C1232 C1230 1.353 . S
C1232 H1290 0.930 . S
C1233 N1229 1.279 . S
C1233 C1231 1.358 . S
C1233 H1291 0.930 . S
C1234 C1237 1.348 1_565 S
C1234 C1238 1.356 . S
C1234 O1285 1.325 . S
C1235 N1236 1.279 . S
C1235 C1238 1.358 . S
C1235 H1292 0.930 . S
N1236 C1235 1.279 . S
N1236 C1239 1.314 1_565 S
C1237 C1234 1.348 1_545 S
C1237 C1239 1.353 . S
C1237 H1293 0.929 . S
C1238 C1234 1.356 . S
C1238 C1235 1.358 . S
C1238 H1294 0.930 . S
C1239 N1236 1.314 1_545 S
C1239 C1237 1.353 . S
C1239 H1295 0.930 . S
C1240 N1241 1.314 . S
C1240 C1245 1.353 . S
C1240 H1246 0.930 . S
N1241 Li1224 1.990 . S
N1241 C1240 1.314 . S
N1241 C1243 1.279 . S
C1242 C1243 1.358 . S
C1242 C1244 1.356 . S
C1242 H1296 0.930 . S
C1243 N1241 1.279 . S
C1243 C1242 1.358 . S
C1243 H1247 0.930 . S
C1244 C1242 1.356 . S
C1244 C1245 1.348 . S
C1245 C1240 1.353 . S
C1245 C1244 1.348 . S
C1245 H1297 0.929 . S
H1246 C1240 0.930 . S
H1247 C1243 0.930 . S
C1248 N1249 1.314 . S
C1248 C1250 1.353 . S
C1248 H1254 0.930 . S
N1249 Li1225 1.990 . S
N1249 C1248 1.314 . S
N1249 C1252 1.279 . S
C1250 C1248 1.353 . S
C1250 C1253 1.348 . S
C1250 H1298 0.929 . S
C1251 C1252 1.358 . S
C1251 C1253 1.356 . S
C1251 H1299 0.930 . S
C1252 N1249 1.279 . S
C1252 C1251 1.358 . S
C1252 H1255 0.930 . S
C1253 C1250 1.348 . S
C1253 C1251 1.356 . S
H1254 C1248 0.930 . S
H1255 C1252 0.930 . S
C1256 C1258 1.348 1_545 S
C1256 C1259 1.356 . S
C1256 O1286 1.325 . S
N1257 C1260 1.314 1_545 S
N1257 C1261 1.279 . S
C1258 C1256 1.348 1_565 S
C1258 C1260 1.353 . S
C1258 H1300 0.929 . S
C1259 C1256 1.356 . S
C1259 C1261 1.358 . S
C1259 H1301 0.930 . S
C1260 N1257 1.314 1_565 S
C1260 C1258 1.353 . S
C1260 H1302 0.930 . S
C1261 N1257 1.279 . S
C1261 C1259 1.358 . S
C1261 H1303 0.930 . S
C1262 C1263 1.348 . S
C1262 C1264 1.356 . S
C1262 O1287 1.325 . S
C1263 C1262 1.348 . S
C1263 C1265 1.353 . S
C1263 H1304 0.929 . S
C1264 C1262 1.356 . S
C1264 C1266 1.358 . S
C1264 H1305 0.930 . S
C1265 C1263 1.353 . S
C1265 N1267 1.314 . S
C1265 H1306 0.930 . S
C1266 C1264 1.358 . S
C1266 N1267 1.279 . S
C1266 H1307 0.930 . S
N1267 C1265 1.314 . S
N1267 C1266 1.279 . S
C1268 C1270 1.353 . S
C1268 N1271 1.314 . S
C1268 H1274 0.930 . S
C1269 N1271 1.279 . S
C1269 C1272 1.358 . S
C1269 H1275 0.930 . S
C1270 C1268 1.353 . S
C1270 C1273 1.348 . S
C1270 H1308 0.929 . S
N1271 Li1226 1.990 . S
N1271 C1268 1.314 . S
N1271 C1269 1.279 . S
C1272 C1269 1.358 . S
C1272 C1273 1.356 . S
C1272 H1309 0.930 . S
C1273 C1270 1.348 . S
C1273 C1272 1.356 . S
H1274 C1268 0.930 . S
H1275 C1269 0.930 . S
C1276 N1277 1.314 . S
C1276 C1278 1.353 . S
C1276 H1282 0.930 . S
N1277 Li1227 1.990 . S
N1277 C1276 1.314 . S
N1277 C1280 1.279 . S
C1278 C1276 1.353 . S
C1278 C1281 1.348 . S
C1278 H1310 0.929 . S
C1279 C1280 1.358 . S
C1279 C1281 1.356 . S
C1279 H1311 0.930 . S
C1280 N1277 1.279 . S
C1280 C1279 1.358 . S
C1280 H1283 0.930 . S
C1281 C1278 1.348 . S
C1281 C1279 1.356 . S
H1282 C1276 0.930 . S
H1283 C1280 0.930 . S
O1284 Li1224 1.956 . S
O1284 Li1225 1.970 1_545 S
O1284 Li1226 1.961 . S
O1284 C1228 1.325 . S
O1285 Li1224 1.970 1_565 S
O1285 Li1225 1.956 . S
O1285 Li1227 1.961 . S
O1285 C1234 1.325 . S
O1286 Li1224 1.961 . S
O1286 Li1226 1.956 . S
O1286 Li1227 1.970 1_545 S
O1286 C1256 1.325 . S
O1287 Li1225 1.961 . S
O1287 Li1226 1.970 1_565 S
O1287 Li1227 1.956 . S
O1287 C1262 1.325 . S
H1288 C1230 0.929 . S
H1289 C1231 0.930 . S
H1290 C1232 0.930 . S
H1291 C1233 0.930 . S
H1292 C1235 0.930 . S
H1293 C1237 0.929 . S
H1294 C1238 0.930 . S
H1295 C1239 0.930 . S
H1296 C1242 0.930 . S
H1297 C1245 0.929 . S
H1298 C1250 0.929 . S
H1299 C1251 0.930 . S
H1300 C1258 0.929 . S
H1301 C1259 0.930 . S
H1302 C1260 0.930 . S
H1303 C1261 0.930 . S
H1304 C1263 0.929 . S
H1305 C1264 0.930 . S
H1306 C1265 0.930 . S
H1307 C1266 0.930 . S
H1308 C1270 0.929 . S
H1309 C1272 0.930 . S
H1310 C1278 0.929 . S
H1311 C1279 0.930 . S
Li1312 N1329 1.990 . S
Li1312 O1372 1.956 . S
Li1312 O1373 1.970 . S
Li1312 O1374 1.961 . S
Li1313 N1337 1.990 . S
Li1313 O1372 1.970 . S
Li1313 O1373 1.956 . S
Li1313 O1375 1.961 . S
Li1314 N1359 1.990 . S
Li1314 O1372 1.961 . S
Li1314 O1374 1.956 . S
Li1314 O1375 1.970 . S
Li1315 N1365 1.990 . S
Li1315 O1373 1.961 . S
Li1315 O1374 1.970 . S
Li1315 O1375 1.956 . S
C1316 C1318 1.348 . S
C1316 C1319 1.356 . S
C1316 O1372 1.325 . S
N1317 C1320 1.314 . S
N1317 C1321 1.279 . S
C1318 C1316 1.348 . S
C1318 C1320 1.353 . S
C1318 H1376 0.929 . S
C1319 C1316 1.356 . S
C1319 C1321 1.358 . S
C1319 H1377 0.930 . S
C1320 N1317 1.314 . S
C1320 C1318 1.353 . S
C1320 H1378 0.930 . S
C1321 N1317 1.279 . S
C1321 C1319 1.358 . S
C1321 H1379 0.930 . S
C1322 C1325 1.348 . S
C1322 C1326 1.356 . S
C1322 O1373 1.325 . S
C1323 N1324 1.279 . S
C1323 C1326 1.358 . S
C1323 H1380 0.930 . S
N1324 C1323 1.279 . S
N1324 C1327 1.314 . S
C1325 C1322 1.348 . S
C1325 C1327 1.353 . S
C1325 H1381 0.929 . S
C1326 C1322 1.356 . S
C1326 C1323 1.358 . S
C1326 H1382 0.930 . S
C1327 N1324 1.314 . S
C1327 C1325 1.353 . S
C1327 H1383 0.930 . S
C1328 N1329 1.314 . S
C1328 C1333 1.353 . S
C1328 H1334 0.930 . S
N1329 Li1312 1.990 . S
N1329 C1328 1.314 . S
N1329 C1331 1.279 . S
C1330 C1331 1.358 . S
C1330 C1332 1.356 . S
C1330 H1384 0.930 . S
C1331 N1329 1.279 . S
C1331 C1330 1.358 . S
C1331 H1335 0.930 . S
C1332 C1330 1.356 . S
C1332 C1333 1.348 . S
C1333 C1328 1.353 . S
C1333 C1332 1.348 . S
C1333 H1385 0.929 . S
H1334 C1328 0.930 . S
H1335 C1331 0.930 . S
C1336 N1337 1.314 . S
C1336 C1338 1.353 . S
C1336 H1342 0.930 . S
N1337 Li1313 1.990 . S
N1337 C1336 1.314 . S
N1337 C1340 1.279 . S
C1338 C1336 1.353 . S
C1338 C1341 1.348 . S
C1338 H1386 0.929 . S
C1339 C1340 1.358 . S
C1339 C1341 1.356 . S
C1339 H1387 0.930 . S
C1340 N1337 1.279 . S
C1340 C1339 1.358 . S
C1340 H1343 0.930 . S
C1341 C1338 1.348 . S
C1341 C1339 1.356 . S
H1342 C1336 0.930 . S
H1343 C1340 0.930 . S
C1344 C1346 1.348 . S
C1344 C1347 1.356 . S
C1344 O1374 1.325 . S
N1345 C1348 1.314 . S
N1345 C1349 1.279 . S
C1346 C1344 1.348 . S
C1346 C1348 1.353 . S
C1346 H1388 0.929 . S
C1347 C1344 1.356 . S
C1347 C1349 1.358 . S
C1347 H1389 0.930 . S
C1348 N1345 1.314 . S
C1348 C1346 1.353 . S
C1348 H1390 0.930 . S
C1349 N1345 1.279 . S
C1349 C1347 1.358 . S
C1349 H1391 0.930 . S
C1350 C1351 1.348 . S
C1350 C1352 1.356 . S
C1350 O1375 1.325 . S
C1351 C1350 1.348 . S
C1351 C1353 1.353 . S
C1351 H1392 0.929 . S
C1352 C1350 1.356 . S
C1352 C1354 1.358 . S
C1352 H1393 0.930 . S
C1353 C1351 1.353 . S
C1353 N1355 1.314 . S
C1353 H1394 0.930 . S
C1354 C1352 1.358 . S
C1354 N1355 1.279 . S
C1354 H1395 0.930 . S
N1355 C1353 1.314 . S
N1355 C1354 1.279 . S
C1356 C1358 1.353 . S
C1356 N1359 1.314 . S
C1356 H1362 0.930 . S
C1357 N1359 1.279 . S
C1357 C1360 1.358 . S
C1357 H1363 0.930 . S
C1358 C1356 1.353 . S
C1358 C1361 1.348 . S
C1358 H1396 0.929 . S
N1359 Li1314 1.990 . S
N1359 C1356 1.314 . S
N1359 C1357 1.279 . S
C1360 C1357 1.358 . S
C1360 C1361 1.356 . S
C1360 H1397 0.930 . S
C1361 C1358 1.348 . S
C1361 C1360 1.356 . S
H1362 C1356 0.930 . S
H1363 C1357 0.930 . S
C1364 N1365 1.314 . S
C1364 C1366 1.353 . S
C1364 H1370 0.930 . S
N1365 Li1315 1.990 . S
N1365 C1364 1.314 . S
N1365 C1368 1.279 . S
C1366 C1364 1.353 . S
C1366 C1369 1.348 . S
C1366 H1398 0.929 . S
C1367 C1368 1.358 . S
C1367 C1369 1.356 . S
C1367 H1399 0.930 . S
C1368 N1365 1.279 . S
C1368 C1367 1.358 . S
C1368 H1371 0.930 . S
C1369 C1366 1.348 . S
C1369 C1367 1.356 . S
H1370 C1364 0.930 . S
H1371 C1368 0.930 . S
O1372 Li1312 1.956 . S
O1372 Li1313 1.970 . S
O1372 Li1314 1.961 . S
O1372 C1316 1.325 . S
O1373 Li1312 1.970 . S
O1373 Li1313 1.956 . S
O1373 Li1315 1.961 . S
O1373 C1322 1.325 . S
O1374 Li1312 1.961 . S
O1374 Li1314 1.956 . S
O1374 Li1315 1.970 . S
O1374 C1344 1.325 . S
O1375 Li1313 1.961 . S
O1375 Li1314 1.970 . S
O1375 Li1315 1.956 . S
O1375 C1350 1.325 . S
H1376 C1318 0.929 . S
H1377 C1319 0.930 . S
H1378 C1320 0.930 . S
H1379 C1321 0.930 . S
H1380 C1323 0.930 . S
H1381 C1325 0.929 . S
H1382 C1326 0.930 . S
H1383 C1327 0.930 . S
H1384 C1330 0.930 . S
H1385 C1333 0.929 . S
H1386 C1338 0.929 . S
H1387 C1339 0.930 . S
H1388 C1346 0.929 . S
H1389 C1347 0.930 . S
H1390 C1348 0.930 . S
H1391 C1349 0.930 . S
H1392 C1351 0.929 . S
H1393 C1352 0.930 . S
H1394 C1353 0.930 . S
H1395 C1354 0.930 . S
H1396 C1358 0.929 . S
H1397 C1360 0.930 . S
H1398 C1366 0.929 . S
H1399 C1367 0.930 . S
Li1400 N1417 1.990 . S
Li1400 O1460 1.956 . S
Li1400 O1461 1.970 . S
Li1400 O1462 1.961 . S
Li1401 N1425 1.990 . S
Li1401 O1460 1.970 . S
Li1401 O1461 1.956 . S
Li1401 O1463 1.961 . S
Li1402 N1447 1.990 . S
Li1402 O1460 1.961 . S
Li1402 O1462 1.956 . S
Li1402 O1463 1.970 . S
Li1403 N1453 1.990 . S
Li1403 O1461 1.961 . S
Li1403 O1462 1.970 . S
Li1403 O1463 1.956 . S
C1404 C1406 1.348 . S
C1404 C1407 1.356 . S
C1404 O1460 1.325 . S
N1405 C1408 1.314 . S
N1405 C1409 1.279 . S
C1406 C1404 1.348 . S
C1406 C1408 1.353 . S
C1406 H1464 0.929 . S
C1407 C1404 1.356 . S
C1407 C1409 1.358 . S
C1407 H1465 0.930 . S
C1408 N1405 1.314 . S
C1408 C1406 1.353 . S
C1408 H1466 0.930 . S
C1409 N1405 1.279 . S
C1409 C1407 1.358 . S
C1409 H1467 0.930 . S
C1410 C1413 1.348 . S
C1410 C1414 1.356 . S
C1410 O1461 1.325 . S
C1411 N1412 1.279 . S
C1411 C1414 1.358 . S
C1411 H1468 0.930 . S
N1412 C1411 1.279 . S
N1412 C1415 1.314 . S
C1413 C1410 1.348 . S
C1413 C1415 1.353 . S
C1413 H1469 0.929 . S
C1414 C1410 1.356 . S
C1414 C1411 1.358 . S
C1414 H1470 0.930 . S
C1415 N1412 1.314 . S
C1415 C1413 1.353 . S
C1415 H1471 0.930 . S
C1416 N1417 1.314 . S
C1416 C1421 1.353 . S
C1416 H1422 0.930 . S
N1417 Li1400 1.990 . S
N1417 C1416 1.314 . S
N1417 C1419 1.279 . S
C1418 C1419 1.358 . S
C1418 C1420 1.356 . S
C1418 H1472 0.930 . S
C1419 N1417 1.279 . S
C1419 C1418 1.358 . S
C1419 H1423 0.930 . S
C1420 C1418 1.356 . S
C1420 C1421 1.348 . S
C1421 C1416 1.353 . S
C1421 C1420 1.348 . S
C1421 H1473 0.929 . S
H1422 C1416 0.930 . S
H1423 C1419 0.930 . S
C1424 N1425 1.314 . S
C1424 C1426 1.353 . S
C1424 H1430 0.930 . S
N1425 Li1401 1.990 . S
N1425 C1424 1.314 . S
N1425 C1428 1.279 . S
C1426 C1424 1.353 . S
C1426 C1429 1.348 . S
C1426 H1474 0.929 . S
C1427 C1428 1.358 . S
C1427 C1429 1.356 . S
C1427 H1475 0.930 . S
C1428 N1425 1.279 . S
C1428 C1427 1.358 . S
C1428 H1431 0.930 . S
C1429 C1426 1.348 . S
C1429 C1427 1.356 . S
H1430 C1424 0.930 . S
H1431 C1428 0.930 . S
C1432 C1434 1.348 . S
C1432 C1435 1.356 . S
C1432 O1462 1.325 . S
N1433 C1436 1.314 . S
N1433 C1437 1.279 . S
C1434 C1432 1.348 . S
C1434 C1436 1.353 . S
C1434 H1476 0.929 . S
C1435 C1432 1.356 . S
C1435 C1437 1.358 . S
C1435 H1477 0.930 . S
C1436 N1433 1.314 . S
C1436 C1434 1.353 . S
C1436 H1478 0.930 . S
C1437 N1433 1.279 . S
C1437 C1435 1.358 . S
C1437 H1479 0.930 . S
C1438 C1439 1.348 . S
C1438 C1440 1.356 . S
C1438 O1463 1.325 . S
C1439 C1438 1.348 . S
C1439 C1441 1.353 . S
C1439 H1480 0.929 . S
C1440 C1438 1.356 . S
C1440 C1442 1.358 . S
C1440 H1481 0.930 . S
C1441 C1439 1.353 . S
C1441 N1443 1.314 . S
C1441 H1482 0.930 . S
C1442 C1440 1.358 . S
C1442 N1443 1.279 . S
C1442 H1483 0.930 . S
N1443 C1441 1.314 . S
N1443 C1442 1.279 . S
C1444 C1446 1.353 . S
C1444 N1447 1.314 . S
C1444 H1450 0.930 . S
C1445 N1447 1.279 . S
C1445 C1448 1.358 . S
C1445 H1451 0.930 . S
C1446 C1444 1.353 . S
C1446 C1449 1.348 . S
C1446 H1484 0.929 . S
N1447 Li1402 1.990 . S
N1447 C1444 1.314 . S
N1447 C1445 1.279 . S
C1448 C1445 1.358 . S
C1448 C1449 1.356 . S
C1448 H1485 0.930 . S
C1449 C1446 1.348 . S
C1449 C1448 1.356 . S
H1450 C1444 0.930 . S
H1451 C1445 0.930 . S
C1452 N1453 1.314 . S
C1452 C1454 1.353 . S
C1452 H1458 0.930 . S
N1453 Li1403 1.990 . S
N1453 C1452 1.314 . S
N1453 C1456 1.279 . S
C1454 C1452 1.353 . S
C1454 C1457 1.348 . S
C1454 H1486 0.929 . S
C1455 C1456 1.358 . S
C1455 C1457 1.356 . S
C1455 H1487 0.930 . S
C1456 N1453 1.279 . S
C1456 C1455 1.358 . S
C1456 H1459 0.930 . S
C1457 C1454 1.348 . S
C1457 C1455 1.356 . S
H1458 C1452 0.930 . S
H1459 C1456 0.930 . S
O1460 Li1400 1.956 . S
O1460 Li1401 1.970 . S
O1460 Li1402 1.961 . S
O1460 C1404 1.325 . S
O1461 Li1400 1.970 . S
O1461 Li1401 1.956 . S
O1461 Li1403 1.961 . S
O1461 C1410 1.325 . S
O1462 Li1400 1.961 . S
O1462 Li1402 1.956 . S
O1462 Li1403 1.970 . S
O1462 C1432 1.325 . S
O1463 Li1401 1.961 . S
O1463 Li1402 1.970 . S
O1463 Li1403 1.956 . S
O1463 C1438 1.325 . S
H1464 C1406 0.929 . S
H1465 C1407 0.930 . S
H1466 C1408 0.930 . S
H1467 C1409 0.930 . S
H1468 C1411 0.930 . S
H1469 C1413 0.929 . S
H1470 C1414 0.930 . S
H1471 C1415 0.930 . S
H1472 C1418 0.930 . S
H1473 C1421 0.929 . S
H1474 C1426 0.929 . S
H1475 C1427 0.930 . S
H1476 C1434 0.929 . S
H1477 C1435 0.930 . S
H1478 C1436 0.930 . S
H1479 C1437 0.930 . S
H1480 C1439 0.929 . S
H1481 C1440 0.930 . S
H1482 C1441 0.930 . S
H1483 C1442 0.930 . S
H1484 C1446 0.929 . S
H1485 C1448 0.930 . S
H1486 C1454 0.929 . S
H1487 C1455 0.930 . S
Li1488 N1505 1.990 . S
Li1488 O1548 1.956 . S
Li1488 O1549 1.970 . S
Li1488 O1550 1.961 . S
Li1489 N1513 1.990 . S
Li1489 O1548 1.970 . S
Li1489 O1549 1.956 . S
Li1489 O1551 1.961 . S
Li1490 N1535 1.990 . S
Li1490 O1548 1.961 . S
Li1490 O1550 1.956 . S
Li1490 O1551 1.970 . S
Li1491 N1541 1.990 . S
Li1491 O1549 1.961 . S
Li1491 O1550 1.970 . S
Li1491 O1551 1.956 . S
C1492 C1494 1.348 . S
C1492 C1495 1.356 . S
C1492 O1548 1.325 . S
N1493 C1496 1.314 . S
N1493 C1497 1.279 . S
C1494 C1492 1.348 . S
C1494 C1496 1.353 . S
C1494 H1552 0.929 . S
C1495 C1492 1.356 . S
C1495 C1497 1.358 . S
C1495 H1553 0.930 . S
C1496 N1493 1.314 . S
C1496 C1494 1.353 . S
C1496 H1554 0.930 . S
C1497 N1493 1.279 . S
C1497 C1495 1.358 . S
C1497 H1555 0.930 . S
C1498 C1501 1.348 . S
C1498 C1502 1.356 . S
C1498 O1549 1.325 . S
C1499 N1500 1.279 . S
C1499 C1502 1.358 . S
C1499 H1556 0.930 . S
N1500 C1499 1.279 . S
N1500 C1503 1.314 . S
C1501 C1498 1.348 . S
C1501 C1503 1.353 . S
C1501 H1557 0.929 . S
C1502 C1498 1.356 . S
C1502 C1499 1.358 . S
C1502 H1558 0.930 . S
C1503 N1500 1.314 . S
C1503 C1501 1.353 . S
C1503 H1559 0.930 . S
C1504 N1505 1.314 . S
C1504 C1509 1.353 . S
C1504 H1510 0.930 . S
N1505 Li1488 1.990 . S
N1505 C1504 1.314 . S
N1505 C1507 1.279 . S
C1506 C1507 1.358 . S
C1506 C1508 1.356 . S
C1506 H1560 0.930 . S
C1507 N1505 1.279 . S
C1507 C1506 1.358 . S
C1507 H1511 0.930 . S
C1508 C1506 1.356 . S
C1508 C1509 1.348 . S
C1509 C1504 1.353 . S
C1509 C1508 1.348 . S
C1509 H1561 0.929 . S
H1510 C1504 0.930 . S
H1511 C1507 0.930 . S
C1512 N1513 1.314 . S
C1512 C1514 1.353 . S
C1512 H1518 0.930 . S
N1513 Li1489 1.990 . S
N1513 C1512 1.314 . S
N1513 C1516 1.279 . S
C1514 C1512 1.353 . S
C1514 C1517 1.348 . S
C1514 H1562 0.929 . S
C1515 C1516 1.358 . S
C1515 C1517 1.356 . S
C1515 H1563 0.930 . S
C1516 N1513 1.279 . S
C1516 C1515 1.358 . S
C1516 H1519 0.930 . S
C1517 C1514 1.348 . S
C1517 C1515 1.356 . S
H1518 C1512 0.930 . S
H1519 C1516 0.930 . S
C1520 C1522 1.348 . S
C1520 C1523 1.356 . S
C1520 O1550 1.325 . S
N1521 C1524 1.314 . S
N1521 C1525 1.279 . S
C1522 C1520 1.348 . S
C1522 C1524 1.353 . S
C1522 H1564 0.929 . S
C1523 C1520 1.356 . S
C1523 C1525 1.358 . S
C1523 H1565 0.930 . S
C1524 N1521 1.314 . S
C1524 C1522 1.353 . S
C1524 H1566 0.930 . S
C1525 N1521 1.279 . S
C1525 C1523 1.358 . S
C1525 H1567 0.930 . S
C1526 C1527 1.348 . S
C1526 C1528 1.356 . S
C1526 O1551 1.325 . S
C1527 C1526 1.348 . S
C1527 C1529 1.353 . S
C1527 H1568 0.929 . S
C1528 C1526 1.356 . S
C1528 C1530 1.358 . S
C1528 H1569 0.930 . S
C1529 C1527 1.353 . S
C1529 N1531 1.314 . S
C1529 H1570 0.930 . S
C1530 C1528 1.358 . S
C1530 N1531 1.279 . S
C1530 H1571 0.930 . S
N1531 C1529 1.314 . S
N1531 C1530 1.279 . S
C1532 C1534 1.353 . S
C1532 N1535 1.314 . S
C1532 H1538 0.930 . S
C1533 N1535 1.279 . S
C1533 C1536 1.358 . S
C1533 H1539 0.930 . S
C1534 C1532 1.353 . S
C1534 C1537 1.348 . S
C1534 H1572 0.929 . S
N1535 Li1490 1.990 . S
N1535 C1532 1.314 . S
N1535 C1533 1.279 . S
C1536 C1533 1.358 . S
C1536 C1537 1.356 . S
C1536 H1573 0.930 . S
C1537 C1534 1.348 . S
C1537 C1536 1.356 . S
H1538 C1532 0.930 . S
H1539 C1533 0.930 . S
C1540 N1541 1.314 . S
C1540 C1542 1.353 . S
C1540 H1546 0.930 . S
N1541 Li1491 1.990 . S
N1541 C1540 1.314 . S
N1541 C1544 1.279 . S
C1542 C1540 1.353 . S
C1542 C1545 1.348 . S
C1542 H1574 0.929 . S
C1543 C1544 1.358 . S
C1543 C1545 1.356 . S
C1543 H1575 0.930 . S
C1544 N1541 1.279 . S
C1544 C1543 1.358 . S
C1544 H1547 0.930 . S
C1545 C1542 1.348 . S
C1545 C1543 1.356 . S
H1546 C1540 0.930 . S
H1547 C1544 0.930 . S
O1548 Li1488 1.956 . S
O1548 Li1489 1.970 . S
O1548 Li1490 1.961 . S
O1548 C1492 1.325 . S
O1549 Li1488 1.970 . S
O1549 Li1489 1.956 . S
O1549 Li1491 1.961 . S
O1549 C1498 1.325 . S
O1550 Li1488 1.961 . S
O1550 Li1490 1.956 . S
O1550 Li1491 1.970 . S
O1550 C1520 1.325 . S
O1551 Li1489 1.961 . S
O1551 Li1490 1.970 . S
O1551 Li1491 1.956 . S
O1551 C1526 1.325 . S
H1552 C1494 0.929 . S
H1553 C1495 0.930 . S
H1554 C1496 0.930 . S
H1555 C1497 0.930 . S
H1556 C1499 0.930 . S
H1557 C1501 0.929 . S
H1558 C1502 0.930 . S
H1559 C1503 0.930 . S
H1560 C1506 0.930 . S
H1561 C1509 0.929 . S
H1562 C1514 0.929 . S
H1563 C1515 0.930 . S
H1564 C1522 0.929 . S
H1565 C1523 0.930 . S
H1566 C1524 0.930 . S
H1567 C1525 0.930 . S
H1568 C1527 0.929 . S
H1569 C1528 0.930 . S
H1570 C1529 0.930 . S
H1571 C1530 0.930 . S
H1572 C1534 0.929 . S
H1573 C1536 0.930 . S
H1574 C1542 0.929 . S
H1575 C1543 0.930 . S
Li1576 N1593 1.990 . S
Li1576 O1636 1.956 . S
Li1576 O1637 1.970 1_565 S
Li1576 O1638 1.961 . S
Li1577 N1601 1.990 . S
Li1577 O1636 1.970 1_545 S
Li1577 O1637 1.956 . S
Li1577 O1639 1.961 . S
Li1578 N1623 1.990 . S
Li1578 O1636 1.961 . S
Li1578 O1638 1.956 . S
Li1578 O1639 1.970 1_565 S
Li1579 N1629 1.990 . S
Li1579 O1637 1.961 . S
Li1579 O1638 1.970 1_545 S
Li1579 O1639 1.956 . S
C1580 C1582 1.348 . S
C1580 C1583 1.356 . S
C1580 O1636 1.325 . S
N1581 C1584 1.314 . S
N1581 C1585 1.279 . S
C1582 C1580 1.348 . S
C1582 C1584 1.353 . S
C1582 H1640 0.929 . S
C1583 C1580 1.356 . S
C1583 C1585 1.358 . S
C1583 H1641 0.930 . S
C1584 N1581 1.314 . S
C1584 C1582 1.353 . S
C1584 H1642 0.930 . S
C1585 N1581 1.279 . S
C1585 C1583 1.358 . S
C1585 H1643 0.930 . S
C1586 C1589 1.348 1_545 S
C1586 C1590 1.356 . S
C1586 O1637 1.325 . S
C1587 N1588 1.279 . S
C1587 C1590 1.358 . S
C1587 H1644 0.930 . S
N1588 C1587 1.279 . S
N1588 C1591 1.314 1_545 S
C1589 C1586 1.348 1_565 S
C1589 C1591 1.353 . S
C1589 H1645 0.929 . S
C1590 C1586 1.356 . S
C1590 C1587 1.358 . S
C1590 H1646 0.930 . S
C1591 N1588 1.314 1_565 S
C1591 C1589 1.353 . S
C1591 H1647 0.930 . S
C1592 N1593 1.314 . S
C1592 C1597 1.353 . S
C1592 H1598 0.930 . S
N1593 Li1576 1.990 . S
N1593 C1592 1.314 . S
N1593 C1595 1.279 . S
C1594 C1595 1.358 . S
C1594 C1596 1.356 . S
C1594 H1648 0.930 . S
C1595 N1593 1.279 . S
C1595 C1594 1.358 . S
C1595 H1599 0.930 . S
C1596 C1594 1.356 . S
C1596 C1597 1.348 . S
C1597 C1592 1.353 . S
C1597 C1596 1.348 . S
C1597 H1649 0.929 . S
H1598 C1592 0.930 . S
H1599 C1595 0.930 . S
C1600 N1601 1.314 . S
C1600 C1602 1.353 . S
C1600 H1606 0.930 . S
N1601 Li1577 1.990 . S
N1601 C1600 1.314 . S
N1601 C1604 1.279 . S
C1602 C1600 1.353 . S
C1602 C1605 1.348 . S
C1602 H1650 0.929 . S
C1603 C1604 1.358 . S
C1603 C1605 1.356 . S
C1603 H1651 0.930 . S
C1604 N1601 1.279 . S
C1604 C1603 1.358 . S
C1604 H1607 0.930 . S
C1605 C1602 1.348 . S
C1605 C1603 1.356 . S
H1606 C1600 0.930 . S
H1607 C1604 0.930 . S
C1608 C1610 1.348 1_565 S
C1608 C1611 1.356 . S
C1608 O1638 1.325 . S
N1609 C1612 1.314 1_565 S
N1609 C1613 1.279 . S
C1610 C1608 1.348 1_545 S
C1610 C1612 1.353 . S
C1610 H1652 0.929 . S
C1611 C1608 1.356 . S
C1611 C1613 1.358 . S
C1611 H1653 0.930 . S
C1612 N1609 1.314 1_545 S
C1612 C1610 1.353 . S
C1612 H1654 0.930 . S
C1613 N1609 1.279 . S
C1613 C1611 1.358 . S
C1613 H1655 0.930 . S
C1614 C1615 1.348 . S
C1614 C1616 1.356 . S
C1614 O1639 1.325 . S
C1615 C1614 1.348 . S
C1615 C1617 1.353 . S
C1615 H1656 0.929 . S
C1616 C1614 1.356 . S
C1616 C1618 1.358 . S
C1616 H1657 0.930 . S
C1617 C1615 1.353 . S
C1617 N1619 1.314 . S
C1617 H1658 0.930 . S
C1618 C1616 1.358 . S
C1618 N1619 1.279 . S
C1618 H1659 0.930 . S
N1619 C1617 1.314 . S
N1619 C1618 1.279 . S
C1620 C1622 1.353 . S
C1620 N1623 1.314 . S
C1620 H1626 0.930 . S
C1621 N1623 1.279 . S
C1621 C1624 1.358 . S
C1621 H1627 0.930 . S
C1622 C1620 1.353 . S
C1622 C1625 1.348 . S
C1622 H1660 0.929 . S
N1623 Li1578 1.990 . S
N1623 C1620 1.314 . S
N1623 C1621 1.279 . S
C1624 C1621 1.358 . S
C1624 C1625 1.356 . S
C1624 H1661 0.930 . S
C1625 C1622 1.348 . S
C1625 C1624 1.356 . S
H1626 C1620 0.930 . S
H1627 C1621 0.930 . S
C1628 N1629 1.314 . S
C1628 C1630 1.353 . S
C1628 H1634 0.930 . S
N1629 Li1579 1.990 . S
N1629 C1628 1.314 . S
N1629 C1632 1.279 . S
C1630 C1628 1.353 . S
C1630 C1633 1.348 . S
C1630 H1662 0.929 . S
C1631 C1632 1.358 . S
C1631 C1633 1.356 . S
C1631 H1663 0.930 . S
C1632 N1629 1.279 . S
C1632 C1631 1.358 . S
C1632 H1635 0.930 . S
C1633 C1630 1.348 . S
C1633 C1631 1.356 . S
H1634 C1628 0.930 . S
H1635 C1632 0.930 . S
O1636 Li1576 1.956 . S
O1636 Li1577 1.970 1_565 S
O1636 Li1578 1.961 . S
O1636 C1580 1.325 . S
O1637 Li1576 1.970 1_545 S
O1637 Li1577 1.956 . S
O1637 Li1579 1.961 . S
O1637 C1586 1.325 . S
O1638 Li1576 1.961 . S
O1638 Li1578 1.956 . S
O1638 Li1579 1.970 1_565 S
O1638 C1608 1.325 . S
O1639 Li1577 1.961 . S
O1639 Li1578 1.970 1_545 S
O1639 Li1579 1.956 . S
O1639 C1614 1.325 . S
H1640 C1582 0.929 . S
H1641 C1583 0.930 . S
H1642 C1584 0.930 . S
H1643 C1585 0.930 . S
H1644 C1587 0.930 . S
H1645 C1589 0.929 . S
H1646 C1590 0.930 . S
H1647 C1591 0.930 . S
H1648 C1594 0.930 . S
H1649 C1597 0.929 . S
H1650 C1602 0.929 . S
H1651 C1603 0.930 . S
H1652 C1610 0.929 . S
H1653 C1611 0.930 . S
H1654 C1612 0.930 . S
H1655 C1613 0.930 . S
H1656 C1615 0.929 . S
H1657 C1616 0.930 . S
H1658 C1617 0.930 . S
H1659 C1618 0.930 . S
H1660 C1622 0.929 . S
H1661 C1624 0.930 . S
H1662 C1630 0.929 . S
H1663 C1631 0.930 . S
Li1664 N1681 1.990 . S
Li1664 O1724 1.956 . S
Li1664 O1725 1.970 1_455 S
Li1664 O1726 1.961 . S
Li1665 N1689 1.990 . S
Li1665 O1724 1.970 1_655 S
Li1665 O1725 1.956 . S
Li1665 O1727 1.961 . S
Li1666 N1711 1.990 . S
Li1666 O1724 1.961 . S
Li1666 O1726 1.956 . S
Li1666 O1727 1.970 1_455 S
Li1667 N1717 1.990 . S
Li1667 O1725 1.961 . S
Li1667 O1726 1.970 1_655 S
Li1667 O1727 1.956 . S
C1668 C1670 1.348 . S
C1668 C1671 1.356 . S
C1668 O1724 1.325 . S
N1669 C1672 1.314 . S
N1669 C1673 1.279 . S
C1670 C1668 1.348 . S
C1670 C1672 1.353 . S
C1670 H1728 0.929 . S
C1671 C1668 1.356 . S
C1671 C1673 1.358 . S
C1671 H1729 0.930 . S
C1672 N1669 1.314 . S
C1672 C1670 1.353 . S
C1672 H1730 0.930 . S
C1673 N1669 1.279 . S
C1673 C1671 1.358 . S
C1673 H1731 0.930 . S
C1674 C1677 1.348 1_655 S
C1674 C1678 1.356 . S
C1674 O1725 1.325 . S
C1675 N1676 1.279 . S
C1675 C1678 1.358 . S
C1675 H1732 0.930 . S
N1676 C1675 1.279 . S
N1676 C1679 1.314 1_655 S
C1677 C1674 1.348 1_455 S
C1677 C1679 1.353 . S
C1677 H1733 0.929 . S
C1678 C1674 1.356 . S
C1678 C1675 1.358 . S
C1678 H1734 0.930 . S
C1679 N1676 1.314 1_455 S
C1679 C1677 1.353 . S
C1679 H1735 0.930 . S
C1680 N1681 1.314 . S
C1680 C1685 1.353 . S
C1680 H1686 0.930 . S
N1681 Li1664 1.990 . S
N1681 C1680 1.314 . S
N1681 C1683 1.279 . S
C1682 C1683 1.358 . S
C1682 C1684 1.356 . S
C1682 H1736 0.930 . S
C1683 N1681 1.279 . S
C1683 C1682 1.358 . S
C1683 H1687 0.930 . S
C1684 C1682 1.356 . S
C1684 C1685 1.348 . S
C1685 C1680 1.353 . S
C1685 C1684 1.348 . S
C1685 H1737 0.929 . S
H1686 C1680 0.930 . S
H1687 C1683 0.930 . S
C1688 N1689 1.314 . S
C1688 C1690 1.353 . S
C1688 H1694 0.930 . S
N1689 Li1665 1.990 . S
N1689 C1688 1.314 . S
N1689 C1692 1.279 . S
C1690 C1688 1.353 . S
C1690 C1693 1.348 . S
C1690 H1738 0.929 . S
C1691 C1692 1.358 . S
C1691 C1693 1.356 . S
C1691 H1739 0.930 . S
C1692 N1689 1.279 . S
C1692 C1691 1.358 . S
C1692 H1695 0.930 . S
C1693 C1690 1.348 . S
C1693 C1691 1.356 . S
H1694 C1688 0.930 . S
H1695 C1692 0.930 . S
C1696 C1698 1.348 1_455 S
C1696 C1699 1.356 . S
C1696 O1726 1.325 . S
N1697 C1700 1.314 1_455 S
N1697 C1701 1.279 . S
C1698 C1696 1.348 1_655 S
C1698 C1700 1.353 . S
C1698 H1740 0.929 . S
C1699 C1696 1.356 . S
C1699 C1701 1.358 . S
C1699 H1741 0.930 . S
C1700 N1697 1.314 1_655 S
C1700 C1698 1.353 . S
C1700 H1742 0.930 . S
C1701 N1697 1.279 . S
C1701 C1699 1.358 . S
C1701 H1743 0.930 . S
C1702 C1703 1.348 . S
C1702 C1704 1.356 . S
C1702 O1727 1.325 . S
C1703 C1702 1.348 . S
C1703 C1705 1.353 . S
C1703 H1744 0.929 . S
C1704 C1702 1.356 . S
C1704 C1706 1.358 . S
C1704 H1745 0.930 . S
C1705 C1703 1.353 . S
C1705 N1707 1.314 . S
C1705 H1746 0.930 . S
C1706 C1704 1.358 . S
C1706 N1707 1.279 . S
C1706 H1747 0.930 . S
N1707 C1705 1.314 . S
N1707 C1706 1.279 . S
C1708 C1710 1.353 . S
C1708 N1711 1.314 . S
C1708 H1714 0.930 . S
C1709 N1711 1.279 . S
C1709 C1712 1.358 . S
C1709 H1715 0.930 . S
C1710 C1708 1.353 . S
C1710 C1713 1.348 . S
C1710 H1748 0.929 . S
N1711 Li1666 1.990 . S
N1711 C1708 1.314 . S
N1711 C1709 1.279 . S
C1712 C1709 1.358 . S
C1712 C1713 1.356 . S
C1712 H1749 0.930 . S
C1713 C1710 1.348 . S
C1713 C1712 1.356 . S
H1714 C1708 0.930 . S
H1715 C1709 0.930 . S
C1716 N1717 1.314 . S
C1716 C1718 1.353 . S
C1716 H1722 0.930 . S
N1717 Li1667 1.990 . S
N1717 C1716 1.314 . S
N1717 C1720 1.279 . S
C1718 C1716 1.353 . S
C1718 C1721 1.348 . S
C1718 H1750 0.929 . S
C1719 C1720 1.358 . S
C1719 C1721 1.356 . S
C1719 H1751 0.930 . S
C1720 N1717 1.279 . S
C1720 C1719 1.358 . S
C1720 H1723 0.930 . S
C1721 C1718 1.348 . S
C1721 C1719 1.356 . S
H1722 C1716 0.930 . S
H1723 C1720 0.930 . S
O1724 Li1664 1.956 . S
O1724 Li1665 1.970 1_455 S
O1724 Li1666 1.961 . S
O1724 C1668 1.325 . S
O1725 Li1664 1.970 1_655 S
O1725 Li1665 1.956 . S
O1725 Li1667 1.961 . S
O1725 C1674 1.325 . S
O1726 Li1664 1.961 . S
O1726 Li1666 1.956 . S
O1726 Li1667 1.970 1_455 S
O1726 C1696 1.325 . S
O1727 Li1665 1.961 . S
O1727 Li1666 1.970 1_655 S
O1727 Li1667 1.956 . S
O1727 C1702 1.325 . S
H1728 C1670 0.929 . S
H1729 C1671 0.930 . S
H1730 C1672 0.930 . S
H1731 C1673 0.930 . S
H1732 C1675 0.930 . S
H1733 C1677 0.929 . S
H1734 C1678 0.930 . S
H1735 C1679 0.930 . S
H1736 C1682 0.930 . S
H1737 C1685 0.929 . S
H1738 C1690 0.929 . S
H1739 C1691 0.930 . S
H1740 C1698 0.929 . S
H1741 C1699 0.930 . S
H1742 C1700 0.930 . S
H1743 C1701 0.930 . S
H1744 C1703 0.929 . S
H1745 C1704 0.930 . S
H1746 C1705 0.930 . S
H1747 C1706 0.930 . S
H1748 C1710 0.929 . S
H1749 C1712 0.930 . S
H1750 C1718 0.929 . S
H1751 C1719 0.930 . S
Li1752 N1769 1.990 . S
Li1752 O1812 1.956 . S
Li1752 O1813 1.970 . S
Li1752 O1814 1.961 . S
Li1753 N1777 1.990 . S
Li1753 O1812 1.970 . S
Li1753 O1813 1.956 . S
Li1753 O1815 1.961 . S
Li1754 N1799 1.990 . S
Li1754 O1812 1.961 . S
Li1754 O1814 1.956 . S
Li1754 O1815 1.970 . S
Li1755 N1805 1.990 . S
Li1755 O1813 1.961 . S
Li1755 O1814 1.970 . S
Li1755 O1815 1.956 . S
C1756 C1758 1.348 . S
C1756 C1759 1.356 . S
C1756 O1812 1.325 . S
N1757 C1760 1.314 . S
N1757 C1761 1.279 . S
C1758 C1756 1.348 . S
C1758 C1760 1.353 . S
C1758 H1816 0.929 . S
C1759 C1756 1.356 . S
C1759 C1761 1.358 . S
C1759 H1817 0.930 . S
C1760 N1757 1.314 . S
C1760 C1758 1.353 . S
C1760 H1818 0.930 . S
C1761 N1757 1.279 . S
C1761 C1759 1.358 . S
C1761 H1819 0.930 . S
C1762 C1765 1.348 . S
C1762 C1766 1.356 . S
C1762 O1813 1.325 . S
C1763 N1764 1.279 . S
C1763 C1766 1.358 . S
C1763 H1820 0.930 . S
N1764 C1763 1.279 . S
N1764 C1767 1.314 . S
C1765 C1762 1.348 . S
C1765 C1767 1.353 . S
C1765 H1821 0.929 . S
C1766 C1762 1.356 . S
C1766 C1763 1.358 . S
C1766 H1822 0.930 . S
C1767 N1764 1.314 . S
C1767 C1765 1.353 . S
C1767 H1823 0.930 . S
C1768 N1769 1.314 . S
C1768 C1773 1.353 . S
C1768 H1774 0.930 . S
N1769 Li1752 1.990 . S
N1769 C1768 1.314 . S
N1769 C1771 1.279 . S
C1770 C1771 1.358 . S
C1770 C1772 1.356 . S
C1770 H1824 0.930 . S
C1771 N1769 1.279 . S
C1771 C1770 1.358 . S
C1771 H1775 0.930 . S
C1772 C1770 1.356 . S
C1772 C1773 1.348 . S
C1773 C1768 1.353 . S
C1773 C1772 1.348 . S
C1773 H1825 0.929 . S
H1774 C1768 0.930 . S
H1775 C1771 0.930 . S
C1776 N1777 1.314 . S
C1776 C1778 1.353 . S
C1776 H1782 0.930 . S
N1777 Li1753 1.990 . S
N1777 C1776 1.314 . S
N1777 C1780 1.279 . S
C1778 C1776 1.353 . S
C1778 C1781 1.348 . S
C1778 H1826 0.929 . S
C1779 C1780 1.358 . S
C1779 C1781 1.356 . S
C1779 H1827 0.930 . S
C1780 N1777 1.279 . S
C1780 C1779 1.358 . S
C1780 H1783 0.930 . S
C1781 C1778 1.348 . S
C1781 C1779 1.356 . S
H1782 C1776 0.930 . S
H1783 C1780 0.930 . S
C1784 C1786 1.348 . S
C1784 C1787 1.356 . S
C1784 O1814 1.325 . S
N1785 C1788 1.314 . S
N1785 C1789 1.279 . S
C1786 C1784 1.348 . S
C1786 C1788 1.353 . S
C1786 H1828 0.929 . S
C1787 C1784 1.356 . S
C1787 C1789 1.358 . S
C1787 H1829 0.930 . S
C1788 N1785 1.314 . S
C1788 C1786 1.353 . S
C1788 H1830 0.930 . S
C1789 N1785 1.279 . S
C1789 C1787 1.358 . S
C1789 H1831 0.930 . S
C1790 C1791 1.348 . S
C1790 C1792 1.356 . S
C1790 O1815 1.325 . S
C1791 C1790 1.348 . S
C1791 C1793 1.353 . S
C1791 H1832 0.929 . S
C1792 C1790 1.356 . S
C1792 C1794 1.358 . S
C1792 H1833 0.930 . S
C1793 C1791 1.353 . S
C1793 N1795 1.314 . S
C1793 H1834 0.930 . S
C1794 C1792 1.358 . S
C1794 N1795 1.279 . S
C1794 H1835 0.930 . S
N1795 C1793 1.314 . S
N1795 C1794 1.279 . S
C1796 C1798 1.353 . S
C1796 N1799 1.314 . S
C1796 H1802 0.930 . S
C1797 N1799 1.279 . S
C1797 C1800 1.358 . S
C1797 H1803 0.930 . S
C1798 C1796 1.353 . S
C1798 C1801 1.348 . S
C1798 H1836 0.929 . S
N1799 Li1754 1.990 . S
N1799 C1796 1.314 . S
N1799 C1797 1.279 . S
C1800 C1797 1.358 . S
C1800 C1801 1.356 . S
C1800 H1837 0.930 . S
C1801 C1798 1.348 . S
C1801 C1800 1.356 . S
H1802 C1796 0.930 . S
H1803 C1797 0.930 . S
C1804 N1805 1.314 . S
C1804 C1806 1.353 . S
C1804 H1810 0.930 . S
N1805 Li1755 1.990 . S
N1805 C1804 1.314 . S
N1805 C1808 1.279 . S
C1806 C1804 1.353 . S
C1806 C1809 1.348 . S
C1806 H1838 0.929 . S
C1807 C1808 1.358 . S
C1807 C1809 1.356 . S
C1807 H1839 0.930 . S
C1808 N1805 1.279 . S
C1808 C1807 1.358 . S
C1808 H1811 0.930 . S
C1809 C1806 1.348 . S
C1809 C1807 1.356 . S
H1810 C1804 0.930 . S
H1811 C1808 0.930 . S
O1812 Li1752 1.956 . S
O1812 Li1753 1.970 . S
O1812 Li1754 1.961 . S
O1812 C1756 1.325 . S
O1813 Li1752 1.970 . S
O1813 Li1753 1.956 . S
O1813 Li1755 1.961 . S
O1813 C1762 1.325 . S
O1814 Li1752 1.961 . S
O1814 Li1754 1.956 . S
O1814 Li1755 1.970 . S
O1814 C1784 1.325 . S
O1815 Li1753 1.961 . S
O1815 Li1754 1.970 . S
O1815 Li1755 1.956 . S
O1815 C1790 1.325 . S
H1816 C1758 0.929 . S
H1817 C1759 0.930 . S
H1818 C1760 0.930 . S
H1819 C1761 0.930 . S
H1820 C1763 0.930 . S
H1821 C1765 0.929 . S
H1822 C1766 0.930 . S
H1823 C1767 0.930 . S
H1824 C1770 0.930 . S
H1825 C1773 0.929 . S
H1826 C1778 0.929 . S
H1827 C1779 0.930 . S
H1828 C1786 0.929 . S
H1829 C1787 0.930 . S
H1830 C1788 0.930 . S
H1831 C1789 0.930 . S
H1832 C1791 0.929 . S
H1833 C1792 0.930 . S
H1834 C1793 0.930 . S
H1835 C1794 0.930 . S
H1836 C1798 0.929 . S
H1837 C1800 0.930 . S
H1838 C1806 0.929 . S
H1839 C1807 0.930 . S
Li1840 N1857 1.990 . S
Li1840 O1900 1.956 . S
Li1840 O1901 1.970 1_455 S
Li1840 O1902 1.961 . S
Li1841 N1865 1.990 . S
Li1841 O1900 1.970 1_655 S
Li1841 O1901 1.956 . S
Li1841 O1903 1.961 . S
Li1842 N1887 1.990 . S
Li1842 O1900 1.961 . S
Li1842 O1902 1.956 . S
Li1842 O1903 1.970 1_455 S
Li1843 N1893 1.990 . S
Li1843 O1901 1.961 . S
Li1843 O1902 1.970 1_655 S
Li1843 O1903 1.956 . S
C1844 C1846 1.348 1_455 S
C1844 C1847 1.356 . S
C1844 O1900 1.325 . S
N1845 C1848 1.314 1_455 S
N1845 C1849 1.279 . S
C1846 C1844 1.348 1_655 S
C1846 C1848 1.353 . S
C1846 H1904 0.929 . S
C1847 C1844 1.356 . S
C1847 C1849 1.358 . S
C1847 H1905 0.930 . S
C1848 N1845 1.314 1_655 S
C1848 C1846 1.353 . S
C1848 H1906 0.930 . S
C1849 N1845 1.279 . S
C1849 C1847 1.358 . S
C1849 H1907 0.930 . S
C1850 C1853 1.348 . S
C1850 C1854 1.356 . S
C1850 O1901 1.325 . S
C1851 N1852 1.279 . S
C1851 C1854 1.358 . S
C1851 H1908 0.930 . S
N1852 C1851 1.279 . S
N1852 C1855 1.314 . S
C1853 C1850 1.348 . S
C1853 C1855 1.353 . S
C1853 H1909 0.929 . S
C1854 C1850 1.356 . S
C1854 C1851 1.358 . S
C1854 H1910 0.930 . S
C1855 N1852 1.314 . S
C1855 C1853 1.353 . S
C1855 H1911 0.930 . S
C1856 N1857 1.314 . S
C1856 C1861 1.353 . S
C1856 H1862 0.930 . S
N1857 Li1840 1.990 . S
N1857 C1856 1.314 . S
N1857 C1859 1.279 . S
C1858 C1859 1.358 . S
C1858 C1860 1.356 . S
C1858 H1912 0.930 . S
C1859 N1857 1.279 . S
C1859 C1858 1.358 . S
C1859 H1863 0.930 . S
C1860 C1858 1.356 . S
C1860 C1861 1.348 . S
C1861 C1856 1.353 . S
C1861 C1860 1.348 . S
C1861 H1913 0.929 . S
H1862 C1856 0.930 . S
H1863 C1859 0.930 . S
C1864 N1865 1.314 . S
C1864 C1866 1.353 . S
C1864 H1870 0.930 . S
N1865 Li1841 1.990 . S
N1865 C1864 1.314 . S
N1865 C1868 1.279 . S
C1866 C1864 1.353 . S
C1866 C1869 1.348 . S
C1866 H1914 0.929 . S
C1867 C1868 1.358 . S
C1867 C1869 1.356 . S
C1867 H1915 0.930 . S
C1868 N1865 1.279 . S
C1868 C1867 1.358 . S
C1868 H1871 0.930 . S
C1869 C1866 1.348 . S
C1869 C1867 1.356 . S
H1870 C1864 0.930 . S
H1871 C1868 0.930 . S
C1872 C1874 1.348 . S
C1872 C1875 1.356 . S
C1872 O1902 1.325 . S
N1873 C1876 1.314 . S
N1873 C1877 1.279 . S
C1874 C1872 1.348 . S
C1874 C1876 1.353 . S
C1874 H1916 0.929 . S
C1875 C1872 1.356 . S
C1875 C1877 1.358 . S
C1875 H1917 0.930 . S
C1876 N1873 1.314 . S
C1876 C1874 1.353 . S
C1876 H1918 0.930 . S
C1877 N1873 1.279 . S
C1877 C1875 1.358 . S
C1877 H1919 0.930 . S
C1878 C1879 1.348 1_655 S
C1878 C1880 1.356 . S
C1878 O1903 1.325 . S
C1879 C1878 1.348 1_455 S
C1879 C1881 1.353 . S
C1879 H1920 0.929 . S
C1880 C1878 1.356 . S
C1880 C1882 1.358 . S
C1880 H1921 0.930 . S
C1881 C1879 1.353 . S
C1881 N1883 1.314 1_455 S
C1881 H1922 0.930 . S
C1882 C1880 1.358 . S
C1882 N1883 1.279 . S
C1882 H1923 0.930 . S
N1883 C1881 1.314 1_655 S
N1883 C1882 1.279 . S
C1884 C1886 1.353 . S
C1884 N1887 1.314 . S
C1884 H1890 0.930 . S
C1885 N1887 1.279 . S
C1885 C1888 1.358 . S
C1885 H1891 0.930 . S
C1886 C1884 1.353 . S
C1886 C1889 1.348 . S
C1886 H1924 0.929 . S
N1887 Li1842 1.990 . S
N1887 C1884 1.314 . S
N1887 C1885 1.279 . S
C1888 C1885 1.358 . S
C1888 C1889 1.356 . S
C1888 H1925 0.930 . S
C1889 C1886 1.348 . S
C1889 C1888 1.356 . S
H1890 C1884 0.930 . S
H1891 C1885 0.930 . S
C1892 N1893 1.314 . S
C1892 C1894 1.353 . S
C1892 H1898 0.930 . S
N1893 Li1843 1.990 . S
N1893 C1892 1.314 . S
N1893 C1896 1.279 . S
C1894 C1892 1.353 . S
C1894 C1897 1.348 . S
C1894 H1926 0.929 . S
C1895 C1896 1.358 . S
C1895 C1897 1.356 . S
C1895 H1927 0.930 . S
C1896 N1893 1.279 . S
C1896 C1895 1.358 . S
C1896 H1899 0.930 . S
C1897 C1894 1.348 . S
C1897 C1895 1.356 . S
H1898 C1892 0.930 . S
H1899 C1896 0.930 . S
O1900 Li1840 1.956 . S
O1900 Li1841 1.970 1_455 S
O1900 Li1842 1.961 . S
O1900 C1844 1.325 . S
O1901 Li1840 1.970 1_655 S
O1901 Li1841 1.956 . S
O1901 Li1843 1.961 . S
O1901 C1850 1.325 . S
O1902 Li1840 1.961 . S
O1902 Li1842 1.956 . S
O1902 Li1843 1.970 1_455 S
O1902 C1872 1.325 . S
O1903 Li1841 1.961 . S
O1903 Li1842 1.970 1_655 S
O1903 Li1843 1.956 . S
O1903 C1878 1.325 . S
H1904 C1846 0.929 . S
H1905 C1847 0.930 . S
H1906 C1848 0.930 . S
H1907 C1849 0.930 . S
H1908 C1851 0.930 . S
H1909 C1853 0.929 . S
H1910 C1854 0.930 . S
H1911 C1855 0.930 . S
H1912 C1858 0.930 . S
H1913 C1861 0.929 . S
H1914 C1866 0.929 . S
H1915 C1867 0.930 . S
H1916 C1874 0.929 . S
H1917 C1875 0.930 . S
H1918 C1876 0.930 . S
H1919 C1877 0.930 . S
H1920 C1879 0.929 . S
H1921 C1880 0.930 . S
H1922 C1881 0.930 . S
H1923 C1882 0.930 . S
H1924 C1886 0.929 . S
H1925 C1888 0.930 . S
H1926 C1894 0.929 . S
H1927 C1895 0.930 . S
Li1928 N1945 1.990 . S
Li1928 O1988 1.956 . S
Li1928 O1989 1.970 . S
Li1928 O1990 1.961 . S
Li1929 N1953 1.990 . S
Li1929 O1988 1.970 . S
Li1929 O1989 1.956 . S
Li1929 O1991 1.961 . S
Li1930 N1975 1.990 . S
Li1930 O1988 1.961 . S
Li1930 O1990 1.956 . S
Li1930 O1991 1.970 . S
Li1931 N1981 1.990 . S
Li1931 O1989 1.961 . S
Li1931 O1990 1.970 . S
Li1931 O1991 1.956 . S
C1932 C1934 1.348 . S
C1932 C1935 1.356 . S
C1932 O1988 1.325 . S
N1933 C1936 1.314 . S
N1933 C1937 1.279 . S
C1934 C1932 1.348 . S
C1934 C1936 1.353 . S
C1934 H1992 0.929 . S
C1935 C1932 1.356 . S
C1935 C1937 1.358 . S
C1935 H1993 0.930 . S
C1936 N1933 1.314 . S
C1936 C1934 1.353 . S
C1936 H1994 0.930 . S
C1937 N1933 1.279 . S
C1937 C1935 1.358 . S
C1937 H1995 0.930 . S
C1938 C1941 1.348 . S
C1938 C1942 1.356 . S
C1938 O1989 1.325 . S
C1939 N1940 1.279 . S
C1939 C1942 1.358 . S
C1939 H1996 0.930 . S
N1940 C1939 1.279 . S
N1940 C1943 1.314 . S
C1941 C1938 1.348 . S
C1941 C1943 1.353 . S
C1941 H1997 0.929 . S
C1942 C1938 1.356 . S
C1942 C1939 1.358 . S
C1942 H1998 0.930 . S
C1943 N1940 1.314 . S
C1943 C1941 1.353 . S
C1943 H1999 0.930 . S
C1944 N1945 1.314 . S
C1944 C1949 1.353 . S
C1944 H1950 0.930 . S
N1945 Li1928 1.990 . S
N1945 C1944 1.314 . S
N1945 C1947 1.279 . S
C1946 C1947 1.358 . S
C1946 C1948 1.356 . S
C1946 H2000 0.930 . S
C1947 N1945 1.279 . S
C1947 C1946 1.358 . S
C1947 H1951 0.930 . S
C1948 C1946 1.356 . S
C1948 C1949 1.348 . S
C1949 C1944 1.353 . S
C1949 C1948 1.348 . S
C1949 H2001 0.929 . S
H1950 C1944 0.930 . S
H1951 C1947 0.930 . S
C1952 N1953 1.314 . S
C1952 C1954 1.353 . S
C1952 H1958 0.930 . S
N1953 Li1929 1.990 . S
N1953 C1952 1.314 . S
N1953 C1956 1.279 . S
C1954 C1952 1.353 . S
C1954 C1957 1.348 . S
C1954 H2002 0.929 . S
C1955 C1956 1.358 . S
C1955 C1957 1.356 . S
C1955 H2003 0.930 . S
C1956 N1953 1.279 . S
C1956 C1955 1.358 . S
C1956 H1959 0.930 . S
C1957 C1954 1.348 . S
C1957 C1955 1.356 . S
H1958 C1952 0.930 . S
H1959 C1956 0.930 . S
C1960 C1962 1.348 . S
C1960 C1963 1.356 . S
C1960 O1990 1.325 . S
N1961 C1964 1.314 . S
N1961 C1965 1.279 . S
C1962 C1960 1.348 . S
C1962 C1964 1.353 . S
C1962 H2004 0.929 . S
C1963 C1960 1.356 . S
C1963 C1965 1.358 . S
C1963 H2005 0.930 . S
C1964 N1961 1.314 . S
C1964 C1962 1.353 . S
C1964 H2006 0.930 . S
C1965 N1961 1.279 . S
C1965 C1963 1.358 . S
C1965 H2007 0.930 . S
C1966 C1967 1.348 . S
C1966 C1968 1.356 . S
C1966 O1991 1.325 . S
C1967 C1966 1.348 . S
C1967 C1969 1.353 . S
C1967 H2008 0.929 . S
C1968 C1966 1.356 . S
C1968 C1970 1.358 . S
C1968 H2009 0.930 . S
C1969 C1967 1.353 . S
C1969 N1971 1.314 . S
C1969 H2010 0.930 . S
C1970 C1968 1.358 . S
C1970 N1971 1.279 . S
C1970 H2011 0.930 . S
N1971 C1969 1.314 . S
N1971 C1970 1.279 . S
C1972 C1974 1.353 . S
C1972 N1975 1.314 . S
C1972 H1978 0.930 . S
C1973 N1975 1.279 . S
C1973 C1976 1.358 . S
C1973 H1979 0.930 . S
C1974 C1972 1.353 . S
C1974 C1977 1.348 . S
C1974 H2012 0.929 . S
N1975 Li1930 1.990 . S
N1975 C1972 1.314 . S
N1975 C1973 1.279 . S
C1976 C1973 1.358 . S
C1976 C1977 1.356 . S
C1976 H2013 0.930 . S
C1977 C1974 1.348 . S
C1977 C1976 1.356 . S
H1978 C1972 0.930 . S
H1979 C1973 0.930 . S
C1980 N1981 1.314 . S
C1980 C1982 1.353 . S
C1980 H1986 0.930 . S
N1981 Li1931 1.990 . S
N1981 C1980 1.314 . S
N1981 C1984 1.279 . S
C1982 C1980 1.353 . S
C1982 C1985 1.348 . S
C1982 H2014 0.929 . S
C1983 C1984 1.358 . S
C1983 C1985 1.356 . S
C1983 H2015 0.930 . S
C1984 N1981 1.279 . S
C1984 C1983 1.358 . S
C1984 H1987 0.930 . S
C1985 C1982 1.348 . S
C1985 C1983 1.356 . S
H1986 C1980 0.930 . S
H1987 C1984 0.930 . S
O1988 Li1928 1.956 . S
O1988 Li1929 1.970 . S
O1988 Li1930 1.961 . S
O1988 C1932 1.325 . S
O1989 Li1928 1.970 . S
O1989 Li1929 1.956 . S
O1989 Li1931 1.961 . S
O1989 C1938 1.325 . S
O1990 Li1928 1.961 . S
O1990 Li1930 1.956 . S
O1990 Li1931 1.970 . S
O1990 C1960 1.325 . S
O1991 Li1929 1.961 . S
O1991 Li1930 1.970 . S
O1991 Li1931 1.956 . S
O1991 C1966 1.325 . S
H1992 C1934 0.929 . S
H1993 C1935 0.930 . S
H1994 C1936 0.930 . S
H1995 C1937 0.930 . S
H1996 C1939 0.930 . S
H1997 C1941 0.929 . S
H1998 C1942 0.930 . S
H1999 C1943 0.930 . S
H2000 C1946 0.930 . S
H2001 C1949 0.929 . S
H2002 C1954 0.929 . S
H2003 C1955 0.930 . S
H2004 C1962 0.929 . S
H2005 C1963 0.930 . S
H2006 C1964 0.930 . S
H2007 C1965 0.930 . S
H2008 C1967 0.929 . S
H2009 C1968 0.930 . S
H2010 C1969 0.930 . S
H2011 C1970 0.930 . S
H2012 C1974 0.929 . S
H2013 C1976 0.930 . S
H2014 C1982 0.929 . S
H2015 C1983 0.930 . S
C2016 C2017 1.391 . S
C2016 C2018 1.394 . S
C2016 H2032 0.931 . S
C2017 C2016 1.391 . S
C2017 C2021 1.376 . S
C2018 C2016 1.394 . S
C2018 C2019 1.369 . S
C2018 C2022 1.531 . S
C2019 C2018 1.369 . S
C2019 C2020 1.410 . S
C2019 C2027 1.503 . S
C2020 C2019 1.410 . S
C2020 C2021 1.392 . S
C2020 C2023 1.511 . S
C2021 C2017 1.376 . S
C2021 C2020 1.392 . S
C2021 H2033 0.929 . S
C2022 C2018 1.531 . S
C2022 H2034 0.960 . S
C2022 H2035 0.962 . S
C2022 H2036 0.960 . S
C2023 C2020 1.511 . S
C2023 H2037 0.961 . S
C2023 H2038 0.961 . S
C2023 H2039 0.961 . S
C2024 C2025 1.370 . S
C2024 C2026 1.363 . S
C2024 H2040 0.931 . S
C2025 C2024 1.370 . S
C2025 C2029 1.408 . S
C2026 C2024 1.363 . S
C2026 C2027 1.370 . S
C2026 C2030 1.524 . S
C2027 C2019 1.503 . S
C2027 C2026 1.370 . S
C2027 C2028 1.403 . S
C2028 C2027 1.403 . S
C2028 C2029 1.404 . S
C2028 C2031 1.539 . S
C2029 C2025 1.408 . S
C2029 C2028 1.404 . S
C2029 H2041 0.930 . S
C2030 C2026 1.524 . S
C2030 H2042 0.956 . S
C2030 H2043 0.961 . S
C2030 H2044 0.961 . S
C2031 C2028 1.539 . S
C2031 H2045 0.958 . S
C2031 H2046 0.961 . S
C2031 H2047 0.960 . S
H2032 C2016 0.931 . S
H2033 C2021 0.929 . S
H2034 C2022 0.960 . S
H2035 C2022 0.962 . S
H2036 C2022 0.960 . S
H2037 C2023 0.961 . S
H2038 C2023 0.961 . S
H2039 C2023 0.961 . S
H2040 C2024 0.931 . S
H2041 C2029 0.930 . S
H2042 C2030 0.956 . S
H2043 C2030 0.961 . S
H2044 C2030 0.961 . S
H2045 C2031 0.958 . S
H2046 C2031 0.961 . S
H2047 C2031 0.960 . S
C2048 C2049 1.391 . S
C2048 C2050 1.394 . S
C2048 H2064 0.931 . S
C2049 C2048 1.391 . S
C2049 C2053 1.376 . S
C2050 C2048 1.394 . S
C2050 C2051 1.369 . S
C2050 C2054 1.531 . S
C2051 C2050 1.369 . S
C2051 C2052 1.410 . S
C2051 C2059 1.503 . S
C2052 C2051 1.410 . S
C2052 C2053 1.392 . S
C2052 C2055 1.511 . S
C2053 C2049 1.376 . S
C2053 C2052 1.392 . S
C2053 H2065 0.929 . S
C2054 C2050 1.531 . S
C2054 H2066 0.960 . S
C2054 H2067 0.962 . S
C2054 H2068 0.960 . S
C2055 C2052 1.511 . S
C2055 H2069 0.961 . S
C2055 H2070 0.961 . S
C2055 H2071 0.961 . S
C2056 C2057 1.370 . S
C2056 C2058 1.363 . S
C2056 H2072 0.931 . S
C2057 C2056 1.370 . S
C2057 C2061 1.408 . S
C2058 C2056 1.363 . S
C2058 C2059 1.370 . S
C2058 C2062 1.524 . S
C2059 C2051 1.503 . S
C2059 C2058 1.370 . S
C2059 C2060 1.403 . S
C2060 C2059 1.403 . S
C2060 C2061 1.404 . S
C2060 C2063 1.539 . S
C2061 C2057 1.408 . S
C2061 C2060 1.404 . S
C2061 H2073 0.930 . S
C2062 C2058 1.524 . S
C2062 H2074 0.956 . S
C2062 H2075 0.961 . S
C2062 H2076 0.961 . S
C2063 C2060 1.539 . S
C2063 H2077 0.958 . S
C2063 H2078 0.961 . S
C2063 H2079 0.960 . S
H2064 C2048 0.931 . S
H2065 C2053 0.929 . S
H2066 C2054 0.960 . S
H2067 C2054 0.962 . S
H2068 C2054 0.960 . S
H2069 C2055 0.961 . S
H2070 C2055 0.961 . S
H2071 C2055 0.961 . S
H2072 C2056 0.931 . S
H2073 C2061 0.930 . S
H2074 C2062 0.956 . S
H2075 C2062 0.961 . S
H2076 C2062 0.961 . S
H2077 C2063 0.958 . S
H2078 C2063 0.961 . S
H2079 C2063 0.960 . S
C2080 C2081 1.391 . S
C2080 C2082 1.394 . S
C2080 H2096 0.931 . S
C2081 C2080 1.391 . S
C2081 C2085 1.376 . S
C2082 C2080 1.394 . S
C2082 C2083 1.369 . S
C2082 C2086 1.531 . S
C2083 C2082 1.369 . S
C2083 C2084 1.410 . S
C2083 C2091 1.503 . S
C2084 C2083 1.410 . S
C2084 C2085 1.392 . S
C2084 C2087 1.511 . S
C2085 C2081 1.376 . S
C2085 C2084 1.392 . S
C2085 H2097 0.929 . S
C2086 C2082 1.531 . S
C2086 H2098 0.960 . S
C2086 H2099 0.962 . S
C2086 H2100 0.960 . S
C2087 C2084 1.511 . S
C2087 H2101 0.961 . S
C2087 H2102 0.961 . S
C2087 H2103 0.961 . S
C2088 C2089 1.370 . S
C2088 C2090 1.363 . S
C2088 H2104 0.931 . S
C2089 C2088 1.370 . S
C2089 C2093 1.408 . S
C2090 C2088 1.363 . S
C2090 C2091 1.370 . S
C2090 C2094 1.524 . S
C2091 C2083 1.503 . S
C2091 C2090 1.370 . S
C2091 C2092 1.403 . S
C2092 C2091 1.403 . S
C2092 C2093 1.404 . S
C2092 C2095 1.539 . S
C2093 C2089 1.408 . S
C2093 C2092 1.404 . S
C2093 H2105 0.930 . S
C2094 C2090 1.524 . S
C2094 H2106 0.956 . S
C2094 H2107 0.961 . S
C2094 H2108 0.961 . S
C2095 C2092 1.539 . S
C2095 H2109 0.958 . S
C2095 H2110 0.961 . S
C2095 H2111 0.960 . S
H2096 C2080 0.931 . S
H2097 C2085 0.929 . S
H2098 C2086 0.960 . S
H2099 C2086 0.962 . S
H2100 C2086 0.960 . S
H2101 C2087 0.961 . S
H2102 C2087 0.961 . S
H2103 C2087 0.961 . S
H2104 C2088 0.931 . S
H2105 C2093 0.930 . S
H2106 C2094 0.956 . S
H2107 C2094 0.961 . S
H2108 C2094 0.961 . S
H2109 C2095 0.958 . S
H2110 C2095 0.961 . S
H2111 C2095 0.960 . S
C2112 C2113 1.391 . S
C2112 C2114 1.394 . S
C2112 H2128 0.945 . S
C2113 C2112 1.391 . S
C2113 C2117 1.376 . S
C2114 C2112 1.394 . S
C2114 C2115 1.369 . S
C2114 C2118 1.531 1_565 S
C2115 C2114 1.369 . S
C2115 C2116 1.410 . S
C2115 C2123 1.503 . S
C2116 C2115 1.410 . S
C2116 C2117 1.392 . S
C2116 C2119 1.511 . S
C2117 C2113 1.376 . S
C2117 C2116 1.392 . S
C2117 H2129 0.929 . S
C2118 C2114 1.531 1_545 S
C2118 H2130 0.960 . S
C2118 H2131 0.962 . S
C2118 H2132 0.960 . S
C2119 C2116 1.511 . S
C2119 H2133 0.961 . S
C2119 H2134 0.961 . S
C2119 H2135 0.961 . S
C2120 C2121 1.370 . S
C2120 C2122 1.363 . S
C2120 H2136 0.931 . S
C2121 C2120 1.370 . S
C2121 C2125 1.381 1_565 S
C2122 C2120 1.363 . S
C2122 C2123 1.370 . S
C2122 C2126 1.524 . S
C2123 C2115 1.503 . S
C2123 C2122 1.370 . S
C2123 C2124 1.401 . S
C2124 C2123 1.401 . S
C2124 C2125 1.403 1_565 S
C2124 C2127 1.541 1_565 S
C2125 C2121 1.381 1_545 S
C2125 C2124 1.403 1_545 S
C2125 H2137 0.959 . S
C2126 C2122 1.524 . S
C2126 H2138 0.956 . S
C2126 H2139 0.961 . S
C2126 H2140 0.961 . S
C2127 C2124 1.541 1_545 S
C2127 H2141 0.958 . S
C2127 H2142 0.961 . S
C2127 H2143 0.960 . S
H2128 C2112 0.945 . S
H2129 C2117 0.929 . S
H2130 C2118 0.960 . S
H2131 C2118 0.962 . S
H2132 C2118 0.960 . S
H2133 C2119 0.961 . S
H2134 C2119 0.961 . S
H2135 C2119 0.961 . S
H2136 C2120 0.931 . S
H2137 C2125 0.959 . S
H2138 C2126 0.956 . S
H2139 C2126 0.961 . S
H2140 C2126 0.961 . S
H2141 C2127 0.958 . S
H2142 C2127 0.961 . S
H2143 C2127 0.960 . S
C2144 C2145 1.391 . S
C2144 C2146 1.394 . S
C2144 H2160 0.931 . S
C2145 C2144 1.391 . S
C2145 C2149 1.376 . S
C2146 C2144 1.394 . S
C2146 C2147 1.369 . S
C2146 C2150 1.531 . S
C2147 C2146 1.369 . S
C2147 C2148 1.410 . S
C2147 C2155 1.503 . S
C2148 C2147 1.410 . S
C2148 C2149 1.392 . S
C2148 C2151 1.511 . S
C2149 C2145 1.376 . S
C2149 C2148 1.392 . S
C2149 H2161 0.929 . S
C2150 C2146 1.531 . S
C2150 H2162 0.960 . S
C2150 H2163 0.962 . S
C2150 H2164 0.960 . S
C2151 C2148 1.511 . S
C2151 H2165 0.961 . S
C2151 H2166 0.961 . S
C2151 H2167 0.961 . S
C2152 C2153 1.370 . S
C2152 C2154 1.363 . S
C2152 H2168 0.931 . S
C2153 C2152 1.370 . S
C2153 C2157 1.408 . S
C2154 C2152 1.363 . S
C2154 C2155 1.370 . S
C2154 C2158 1.524 . S
C2155 C2147 1.503 . S
C2155 C2154 1.370 . S
C2155 C2156 1.403 . S
C2156 C2155 1.403 . S
C2156 C2157 1.404 . S
C2156 C2159 1.539 . S
C2157 C2153 1.408 . S
C2157 C2156 1.404 . S
C2157 H2169 0.930 . S
C2158 C2154 1.524 . S
C2158 H2170 0.956 . S
C2158 H2171 0.961 . S
C2158 H2172 0.961 . S
C2159 C2156 1.539 . S
C2159 H2173 0.958 . S
C2159 H2174 0.961 . S
C2159 H2175 0.960 . S
H2160 C2144 0.931 . S
H2161 C2149 0.929 . S
H2162 C2150 0.960 . S
H2163 C2150 0.962 . S
H2164 C2150 0.960 . S
H2165 C2151 0.961 . S
H2166 C2151 0.961 . S
H2167 C2151 0.961 . S
H2168 C2152 0.931 . S
H2169 C2157 0.930 . S
H2170 C2158 0.956 . S
H2171 C2158 0.961 . S
H2172 C2158 0.961 . S
H2173 C2159 0.958 . S
H2174 C2159 0.961 . S
H2175 C2159 0.960 . S
C2176 C2177 1.391 . S
C2176 C2178 1.394 . S
C2176 H2192 0.931 . S
C2177 C2176 1.391 . S
C2177 C2181 1.376 . S
C2178 C2176 1.394 . S
C2178 C2179 1.369 . S
C2178 C2182 1.531 . S
C2179 C2178 1.369 . S
C2179 C2180 1.410 . S
C2179 C2187 1.503 . S
C2180 C2179 1.410 . S
C2180 C2181 1.392 . S
C2180 C2183 1.511 . S
C2181 C2177 1.376 . S
C2181 C2180 1.392 . S
C2181 H2193 0.929 . S
C2182 C2178 1.531 . S
C2182 H2194 0.960 . S
C2182 H2195 0.962 . S
C2182 H2196 0.960 . S
C2183 C2180 1.511 . S
C2183 H2197 0.961 . S
C2183 H2198 0.961 . S
C2183 H2199 0.961 . S
C2184 C2185 1.370 . S
C2184 C2186 1.363 . S
C2184 H2200 0.931 . S
C2185 C2184 1.370 . S
C2185 C2189 1.408 . S
C2186 C2184 1.363 . S
C2186 C2187 1.370 . S
C2186 C2190 1.524 . S
C2187 C2179 1.503 . S
C2187 C2186 1.370 . S
C2187 C2188 1.403 . S
C2188 C2187 1.403 . S
C2188 C2189 1.404 . S
C2188 C2191 1.539 . S
C2189 C2185 1.408 . S
C2189 C2188 1.404 . S
C2189 H2201 0.930 . S
C2190 C2186 1.524 . S
C2190 H2202 0.956 . S
C2190 H2203 0.961 . S
C2190 H2204 0.961 . S
C2191 C2188 1.539 . S
C2191 H2205 0.958 . S
C2191 H2206 0.961 . S
C2191 H2207 0.960 . S
H2192 C2176 0.931 . S
H2193 C2181 0.929 . S
H2194 C2182 0.960 . S
H2195 C2182 0.962 . S
H2196 C2182 0.960 . S
H2197 C2183 0.961 . S
H2198 C2183 0.961 . S
H2199 C2183 0.961 . S
H2200 C2184 0.931 . S
H2201 C2189 0.930 . S
H2202 C2190 0.956 . S
H2203 C2190 0.961 . S
H2204 C2190 0.961 . S
H2205 C2191 0.958 . S
H2206 C2191 0.961 . S
H2207 C2191 0.960 . S
C2208 C2209 1.391 . S
C2208 C2210 1.394 . S
C2208 H2224 0.931 . S
C2209 C2208 1.391 . S
C2209 C2213 1.376 . S
C2210 C2208 1.394 . S
C2210 C2211 1.369 . S
C2210 C2214 1.531 . S
C2211 C2210 1.369 . S
C2211 C2212 1.410 . S
C2211 C2219 1.503 . S
C2212 C2211 1.410 . S
C2212 C2213 1.392 . S
C2212 C2215 1.511 . S
C2213 C2209 1.376 . S
C2213 C2212 1.392 . S
C2213 H2225 0.929 . S
C2214 C2210 1.531 . S
C2214 H2226 0.960 . S
C2214 H2227 0.962 . S
C2214 H2228 0.960 . S
C2215 C2212 1.511 . S
C2215 H2229 0.961 . S
C2215 H2230 0.961 . S
C2215 H2231 0.961 . S
C2216 C2217 1.370 . S
C2216 C2218 1.363 . S
C2216 H2232 0.931 . S
C2217 C2216 1.370 . S
C2217 C2221 1.408 . S
C2218 C2216 1.363 . S
C2218 C2219 1.370 . S
C2218 C2222 1.524 . S
C2219 C2211 1.503 . S
C2219 C2218 1.370 . S
C2219 C2220 1.403 . S
C2220 C2219 1.403 . S
C2220 C2221 1.404 . S
C2220 C2223 1.539 . S
C2221 C2217 1.408 . S
C2221 C2220 1.404 . S
C2221 H2233 0.930 . S
C2222 C2218 1.524 . S
C2222 H2234 0.956 . S
C2222 H2235 0.961 . S
C2222 H2236 0.961 . S
C2223 C2220 1.539 . S
C2223 H2237 0.958 . S
C2223 H2238 0.961 . S
C2223 H2239 0.960 . S
H2224 C2208 0.931 . S
H2225 C2213 0.929 . S
H2226 C2214 0.960 . S
H2227 C2214 0.962 . S
H2228 C2214 0.960 . S
H2229 C2215 0.961 . S
H2230 C2215 0.961 . S
H2231 C2215 0.961 . S
H2232 C2216 0.931 . S
H2233 C2221 0.930 . S
H2234 C2222 0.956 . S
H2235 C2222 0.961 . S
H2236 C2222 0.961 . S
H2237 C2223 0.958 . S
H2238 C2223 0.961 . S
H2239 C2223 0.960 . S
C2240 C2241 1.391 . S
C2240 C2242 1.394 . S
C2240 H2256 0.931 . S
C2241 C2240 1.391 . S
C2241 C2245 1.376 . S
C2242 C2240 1.394 . S
C2242 C2243 1.369 . S
C2242 C2246 1.531 . S
C2243 C2242 1.369 . S
C2243 C2244 1.410 . S
C2243 C2251 1.503 . S
C2244 C2243 1.410 . S
C2244 C2245 1.392 . S
C2244 C2247 1.511 . S
C2245 C2241 1.376 . S
C2245 C2244 1.392 . S
C2245 H2257 0.929 . S
C2246 C2242 1.531 . S
C2246 H2258 0.960 . S
C2246 H2259 0.962 . S
C2246 H2260 0.960 . S
C2247 C2244 1.511 . S
C2247 H2261 0.977 . S
C2247 H2262 0.961 . S
C2247 H2263 0.961 . S
C2248 C2249 1.360 1_545 S
C2248 C2250 1.361 1_545 S
C2248 H2264 0.943 . S
C2249 C2248 1.360 1_565 S
C2249 C2253 1.408 . S
C2250 C2248 1.361 1_565 S
C2250 C2251 1.370 . S
C2250 C2254 1.524 1_565 S
C2251 C2243 1.503 . S
C2251 C2250 1.370 . S
C2251 C2252 1.403 . S
C2252 C2251 1.403 . S
C2252 C2253 1.404 . S
C2252 C2255 1.539 . S
C2253 C2249 1.408 . S
C2253 C2252 1.404 . S
C2253 H2265 0.930 . S
C2254 C2250 1.524 1_545 S
C2254 H2266 0.956 . S
C2254 H2267 0.961 . S
C2254 H2268 0.961 . S
C2255 C2252 1.539 . S
C2255 H2269 0.958 . S
C2255 H2270 0.961 . S
C2255 H2271 0.960 . S
H2256 C2240 0.931 . S
H2257 C2245 0.929 . S
H2258 C2246 0.960 . S
H2259 C2246 0.962 . S
H2260 C2246 0.960 . S
H2261 C2247 0.977 . S
H2262 C2247 0.961 . S
H2263 C2247 0.961 . S
H2264 C2248 0.943 . S
H2265 C2253 0.930 . S
H2266 C2254 0.956 . S
H2267 C2254 0.961 . S
H2268 C2254 0.961 . S
H2269 C2255 0.958 . S
H2270 C2255 0.961 . S
H2271 C2255 0.960 . S
C2272 C2273 1.391 . S
C2272 C2274 1.394 . S
C2272 H2288 0.931 . S
C2273 C2272 1.391 . S
C2273 C2277 1.376 . S
C2274 C2272 1.394 . S
C2274 C2275 1.369 . S
C2274 C2278 1.531 . S
C2275 C2274 1.369 . S
C2275 C2276 1.410 . S
C2275 C2283 1.503 . S
C2276 C2275 1.410 . S
C2276 C2277 1.392 . S
C2276 C2279 1.511 . S
C2277 C2273 1.376 . S
C2277 C2276 1.392 . S
C2277 H2289 0.929 . S
C2278 C2274 1.531 . S
C2278 H2290 0.960 . S
C2278 H2291 0.962 . S
C2278 H2292 0.960 . S
C2279 C2276 1.511 . S
C2279 H2293 0.961 . S
C2279 H2294 0.961 . S
C2279 H2295 0.961 . S
C2280 C2281 1.370 . S
C2280 C2282 1.363 . S
C2280 H2296 0.931 . S
C2281 C2280 1.370 . S
C2281 C2285 1.408 . S
C2282 C2280 1.363 . S
C2282 C2283 1.370 . S
C2282 C2286 1.524 . S
C2283 C2275 1.503 . S
C2283 C2282 1.370 . S
C2283 C2284 1.403 . S
C2284 C2283 1.403 . S
C2284 C2285 1.404 . S
C2284 C2287 1.539 . S
C2285 C2281 1.408 . S
C2285 C2284 1.404 . S
C2285 H2297 0.930 . S
C2286 C2282 1.524 . S
C2286 H2298 0.956 . S
C2286 H2299 0.961 . S
C2286 H2300 0.961 . S
C2287 C2284 1.539 . S
C2287 H2301 0.958 . S
C2287 H2302 0.961 . S
C2287 H2303 0.960 . S
H2288 C2272 0.931 . S
H2289 C2277 0.929 . S
H2290 C2278 0.960 . S
H2291 C2278 0.962 . S
H2292 C2278 0.960 . S
H2293 C2279 0.961 . S
H2294 C2279 0.961 . S
H2295 C2279 0.961 . S
H2296 C2280 0.931 . S
H2297 C2285 0.930 . S
H2298 C2286 0.956 . S
H2299 C2286 0.961 . S
H2300 C2286 0.961 . S
H2301 C2287 0.958 . S
H2302 C2287 0.961 . S
H2303 C2287 0.960 . S
C2304 C2305 1.391 . S
C2304 C2306 1.394 . S
C2304 H2320 0.931 . S
C2305 C2304 1.391 . S
C2305 C2309 1.376 . S
C2306 C2304 1.394 . S
C2306 C2307 1.369 . S
C2306 C2310 1.531 . S
C2307 C2306 1.369 . S
C2307 C2308 1.410 . S
C2307 C2315 1.503 . S
C2308 C2307 1.410 . S
C2308 C2309 1.392 . S
C2308 C2311 1.511 . S
C2309 C2305 1.376 . S
C2309 C2308 1.392 . S
C2309 H2321 0.929 . S
C2310 C2306 1.531 . S
C2310 H2322 0.960 . S
C2310 H2323 0.962 . S
C2310 H2324 0.960 . S
C2311 C2308 1.511 . S
C2311 H2325 0.961 . S
C2311 H2326 0.961 . S
C2311 H2327 0.961 . S
C2312 C2313 1.370 . S
C2312 C2314 1.363 . S
C2312 H2328 0.931 . S
C2313 C2312 1.370 . S
C2313 C2317 1.408 . S
C2314 C2312 1.363 . S
C2314 C2315 1.370 . S
C2314 C2318 1.524 . S
C2315 C2307 1.503 . S
C2315 C2314 1.370 . S
C2315 C2316 1.403 . S
C2316 C2315 1.403 . S
C2316 C2317 1.404 . S
C2316 C2319 1.539 . S
C2317 C2313 1.408 . S
C2317 C2316 1.404 . S
C2317 H2329 0.930 . S
C2318 C2314 1.524 . S
C2318 H2330 0.956 . S
C2318 H2331 0.961 . S
C2318 H2332 0.961 . S
C2319 C2316 1.539 . S
C2319 H2333 0.958 . S
C2319 H2334 0.961 . S
C2319 H2335 0.960 . S
H2320 C2304 0.931 . S
H2321 C2309 0.929 . S
H2322 C2310 0.960 . S
H2323 C2310 0.962 . S
H2324 C2310 0.960 . S
H2325 C2311 0.961 . S
H2326 C2311 0.961 . S
H2327 C2311 0.961 . S
H2328 C2312 0.931 . S
H2329 C2317 0.930 . S
H2330 C2318 0.956 . S
H2331 C2318 0.961 . S
H2332 C2318 0.961 . S
H2333 C2319 0.958 . S
H2334 C2319 0.961 . S
H2335 C2319 0.960 . S
C2336 C2337 1.391 . S
C2336 C2338 1.394 . S
C2336 H2352 0.931 . S
C2337 C2336 1.391 . S
C2337 C2341 1.376 . S
C2338 C2336 1.394 . S
C2338 C2339 1.369 . S
C2338 C2342 1.531 . S
C2339 C2338 1.369 . S
C2339 C2340 1.410 . S
C2339 C2347 1.503 . S
C2340 C2339 1.410 . S
C2340 C2341 1.392 . S
C2340 C2343 1.511 . S
C2341 C2337 1.376 . S
C2341 C2340 1.392 . S
C2341 H2353 0.929 . S
C2342 C2338 1.531 . S
C2342 H2354 0.960 . S
C2342 H2355 0.962 . S
C2342 H2356 0.960 . S
C2343 C2340 1.511 . S
C2343 H2357 0.961 . S
C2343 H2358 0.961 . S
C2343 H2359 0.961 . S
C2344 C2345 1.370 . S
C2344 C2346 1.363 . S
C2344 H2360 0.931 . S
C2345 C2344 1.370 . S
C2345 C2349 1.408 . S
C2346 C2344 1.363 . S
C2346 C2347 1.370 . S
C2346 C2350 1.524 . S
C2347 C2339 1.503 . S
C2347 C2346 1.370 . S
C2347 C2348 1.403 . S
C2348 C2347 1.403 . S
C2348 C2349 1.404 . S
C2348 C2351 1.539 . S
C2349 C2345 1.408 . S
C2349 C2348 1.404 . S
C2349 H2361 0.930 . S
C2350 C2346 1.524 . S
C2350 H2362 0.956 . S
C2350 H2363 0.961 . S
C2350 H2364 0.961 . S
C2351 C2348 1.539 . S
C2351 H2365 0.958 . S
C2351 H2366 0.961 . S
C2351 H2367 0.960 . S
H2352 C2336 0.931 . S
H2353 C2341 0.929 . S
H2354 C2342 0.960 . S
H2355 C2342 0.962 . S
H2356 C2342 0.960 . S
H2357 C2343 0.961 . S
H2358 C2343 0.961 . S
H2359 C2343 0.961 . S
H2360 C2344 0.931 . S
H2361 C2349 0.930 . S
H2362 C2350 0.956 . S
H2363 C2350 0.961 . S
H2364 C2350 0.961 . S
H2365 C2351 0.958 . S
H2366 C2351 0.961 . S
H2367 C2351 0.960 . S
C2368 C2369 1.391 . S
C2368 C2370 1.394 . S
C2368 H2384 0.931 . S
C2369 C2368 1.391 . S
C2369 C2373 1.376 . S
C2370 C2368 1.394 . S
C2370 C2371 1.369 . S
C2370 C2374 1.531 . S
C2371 C2370 1.369 . S
C2371 C2372 1.410 . S
C2371 C2379 1.503 . S
C2372 C2371 1.410 . S
C2372 C2373 1.392 . S
C2372 C2375 1.511 . S
C2373 C2369 1.376 . S
C2373 C2372 1.392 . S
C2373 H2385 0.929 . S
C2374 C2370 1.531 . S
C2374 H2386 0.960 . S
C2374 H2387 0.962 . S
C2374 H2388 0.960 . S
C2375 C2372 1.511 . S
C2375 H2389 0.961 . S
C2375 H2390 0.961 . S
C2375 H2391 0.961 . S
C2376 C2377 1.370 . S
C2376 C2378 1.363 . S
C2376 H2392 0.931 . S
C2377 C2376 1.370 . S
C2377 C2381 1.408 . S
C2378 C2376 1.363 . S
C2378 C2379 1.370 . S
C2378 C2382 1.524 . S
C2379 C2371 1.503 . S
C2379 C2378 1.370 . S
C2379 C2380 1.403 . S
C2380 C2379 1.403 . S
C2380 C2381 1.404 . S
C2380 C2383 1.539 . S
C2381 C2377 1.408 . S
C2381 C2380 1.404 . S
C2381 H2393 0.930 . S
C2382 C2378 1.524 . S
C2382 H2394 0.956 . S
C2382 H2395 0.961 . S
C2382 H2396 0.961 . S
C2383 C2380 1.539 . S
C2383 H2397 0.958 . S
C2383 H2398 0.961 . S
C2383 H2399 0.960 . S
H2384 C2368 0.931 . S
H2385 C2373 0.929 . S
H2386 C2374 0.960 . S
H2387 C2374 0.962 . S
H2388 C2374 0.960 . S
H2389 C2375 0.961 . S
H2390 C2375 0.961 . S
H2391 C2375 0.961 . S
H2392 C2376 0.931 . S
H2393 C2381 0.930 . S
H2394 C2382 0.956 . S
H2395 C2382 0.961 . S
H2396 C2382 0.961 . S
H2397 C2383 0.958 . S
H2398 C2383 0.961 . S
H2399 C2383 0.960 . S
C2400 C2401 1.391 . S
C2400 C2402 1.394 . S
C2400 H2416 0.931 . S
C2401 C2400 1.391 . S
C2401 C2405 1.376 . S
C2402 C2400 1.394 . S
C2402 C2403 1.369 . S
C2402 C2406 1.531 . S
C2403 C2402 1.369 . S
C2403 C2404 1.410 . S
C2403 C2411 1.503 . S
C2404 C2403 1.410 . S
C2404 C2405 1.392 . S
C2404 C2407 1.511 . S
C2405 C2401 1.376 . S
C2405 C2404 1.392 . S
C2405 H2417 0.929 . S
C2406 C2402 1.531 . S
C2406 H2418 0.960 . S
C2406 H2419 0.962 . S
C2406 H2420 0.960 . S
C2407 C2404 1.511 . S
C2407 H2421 0.961 . S
C2407 H2422 0.961 . S
C2407 H2423 0.961 . S
C2408 C2409 1.370 . S
C2408 C2410 1.363 . S
C2408 H2424 0.931 . S
C2409 C2408 1.370 . S
C2409 C2413 1.408 . S
C2410 C2408 1.363 . S
C2410 C2411 1.370 . S
C2410 C2414 1.524 . S
C2411 C2403 1.503 . S
C2411 C2410 1.370 . S
C2411 C2412 1.403 . S
C2412 C2411 1.403 . S
C2412 C2413 1.404 . S
C2412 C2415 1.539 . S
C2413 C2409 1.408 . S
C2413 C2412 1.404 . S
C2413 H2425 0.930 . S
C2414 C2410 1.524 . S
C2414 H2426 0.956 . S
C2414 H2427 0.961 . S
C2414 H2428 0.961 . S
C2415 C2412 1.539 . S
C2415 H2429 0.958 . S
C2415 H2430 0.961 . S
C2415 H2431 0.960 . S
H2416 C2400 0.931 . S
H2417 C2405 0.929 . S
H2418 C2406 0.960 . S
H2419 C2406 0.962 . S
H2420 C2406 0.960 . S
H2421 C2407 0.961 . S
H2422 C2407 0.961 . S
H2423 C2407 0.961 . S
H2424 C2408 0.931 . S
H2425 C2413 0.930 . S
H2426 C2414 0.956 . S
H2427 C2414 0.961 . S
H2428 C2414 0.961 . S
H2429 C2415 0.958 . S
H2430 C2415 0.961 . S
H2431 C2415 0.960 . S
C2432 C2433 1.391 . S
C2432 C2434 1.394 . S
C2432 H2448 0.931 . S
C2433 C2432 1.391 . S
C2433 C2437 1.376 . S
C2434 C2432 1.394 . S
C2434 C2435 1.369 . S
C2434 C2438 1.531 . S
C2435 C2434 1.369 . S
C2435 C2436 1.410 . S
C2435 C2443 1.503 . S
C2436 C2435 1.410 . S
C2436 C2437 1.392 . S
C2436 C2439 1.511 1_455 S
C2437 C2433 1.376 . S
C2437 C2436 1.392 . S
C2437 H2449 0.929 1_455 S
C2438 C2434 1.531 . S
C2438 H2450 0.960 . S
C2438 H2451 0.962 . S
C2438 H2452 0.960 . S
C2439 C2436 1.511 1_655 S
C2439 H2453 0.961 . S
C2439 H2454 0.961 . S
C2439 H2455 0.961 . S
C2440 C2441 1.370 . S
C2440 C2442 1.363 . S
C2440 H2456 0.931 . S
C2441 C2440 1.370 . S
C2441 C2445 1.408 . S
C2442 C2440 1.363 . S
C2442 C2443 1.370 . S
C2442 C2446 1.524 . S
C2443 C2435 1.503 . S
C2443 C2442 1.370 . S
C2443 C2444 1.403 . S
C2444 C2443 1.403 . S
C2444 C2445 1.404 . S
C2444 C2447 1.539 1_455 S
C2445 C2441 1.408 . S
C2445 C2444 1.404 . S
C2445 H2457 0.930 1_455 S
C2446 C2442 1.524 . S
C2446 H2458 0.956 . S
C2446 H2459 0.961 . S
C2446 H2460 0.961 . S
C2447 C2444 1.539 1_655 S
C2447 H2461 0.980 . S
C2447 H2462 0.961 . S
C2447 H2463 0.960 . S
H2448 C2432 0.931 . S
H2449 C2437 0.929 1_655 S
H2450 C2438 0.960 . S
H2451 C2438 0.962 . S
H2452 C2438 0.960 . S
H2453 C2439 0.961 . S
H2454 C2439 0.961 . S
H2455 C2439 0.961 . S
H2456 C2440 0.931 . S
H2457 C2445 0.930 1_655 S
H2458 C2446 0.956 . S
H2459 C2446 0.961 . S
H2460 C2446 0.961 . S
H2461 C2447 0.980 . S
H2462 C2447 0.961 . S
H2463 C2447 0.960 . S
C2464 C2465 1.391 . S
C2464 C2466 1.394 . S
C2464 H2480 0.931 . S
C2465 C2464 1.391 . S
C2465 C2469 1.376 . S
C2466 C2464 1.394 . S
C2466 C2467 1.369 . S
C2466 C2470 1.531 . S
C2467 C2466 1.369 . S
C2467 C2468 1.410 . S
C2467 C2475 1.503 . S
C2468 C2467 1.410 . S
C2468 C2469 1.392 . S
C2468 C2471 1.511 . S
C2469 C2465 1.376 . S
C2469 C2468 1.392 . S
C2469 H2481 0.929 . S
C2470 C2466 1.531 . S
C2470 H2482 0.960 . S
C2470 H2483 0.962 . S
C2470 H2484 0.960 . S
C2471 C2468 1.511 . S
C2471 H2485 0.961 . S
C2471 H2486 0.961 . S
C2471 H2487 0.961 . S
C2472 C2473 1.370 . S
C2472 C2474 1.363 . S
C2472 H2488 0.931 . S
C2473 C2472 1.370 . S
C2473 C2477 1.408 . S
C2474 C2472 1.363 . S
C2474 C2475 1.370 . S
C2474 C2478 1.524 . S
C2475 C2467 1.503 . S
C2475 C2474 1.370 . S
C2475 C2476 1.403 . S
C2476 C2475 1.403 . S
C2476 C2477 1.404 . S
C2476 C2479 1.539 . S
C2477 C2473 1.408 . S
C2477 C2476 1.404 . S
C2477 H2489 0.930 . S
C2478 C2474 1.524 . S
C2478 H2490 0.956 . S
C2478 H2491 0.961 . S
C2478 H2492 0.961 . S
C2479 C2476 1.539 . S
C2479 H2493 0.958 . S
C2479 H2494 0.961 . S
C2479 H2495 0.960 . S
H2480 C2464 0.931 . S
H2481 C2469 0.929 . S
H2482 C2470 0.960 . S
H2483 C2470 0.962 . S
H2484 C2470 0.960 . S
H2485 C2471 0.961 . S
H2486 C2471 0.961 . S
H2487 C2471 0.961 . S
H2488 C2472 0.931 . S
H2489 C2477 0.930 . S
H2490 C2478 0.956 . S
H2491 C2478 0.961 . S
H2492 C2478 0.961 . S
H2493 C2479 0.958 . S
H2494 C2479 0.961 . S
H2495 C2479 0.960 . S
C2496 C2497 1.391 . S
C2496 C2498 1.394 . S
C2496 H2512 0.907 1_655 S
C2497 C2496 1.391 . S
C2497 C2501 1.376 . S
C2498 C2496 1.394 . S
C2498 C2499 1.369 . S
C2498 C2502 1.531 1_655 S
C2499 C2498 1.369 . S
C2499 C2500 1.410 . S
C2499 C2507 1.503 . S
C2500 C2499 1.410 . S
C2500 C2501 1.392 . S
C2500 C2503 1.511 . S
C2501 C2497 1.376 . S
C2501 C2500 1.392 . S
C2501 H2513 0.929 . S
C2502 C2498 1.531 1_455 S
C2502 H2514 0.960 . S
C2502 H2515 0.962 . S
C2502 H2516 0.960 . S
C2503 C2500 1.511 . S
C2503 H2517 0.961 . S
C2503 H2518 0.961 . S
C2503 H2519 0.961 . S
C2504 C2505 1.370 . S
C2504 C2506 1.363 . S
C2504 H2520 0.931 . S
C2505 C2504 1.370 . S
C2505 C2509 1.416 . S
C2506 C2504 1.363 . S
C2506 C2507 1.370 . S
C2506 C2510 1.524 . S
C2507 C2499 1.503 . S
C2507 C2506 1.370 . S
C2507 C2508 1.450 . S
C2508 C2507 1.450 . S
C2508 C2509 1.402 . S
C2508 C2511 1.500 1_655 S
C2509 C2505 1.416 . S
C2509 C2508 1.402 . S
C2509 H2521 0.922 1_655 S
C2510 C2506 1.524 . S
C2510 H2522 0.956 . S
C2510 H2523 0.961 . S
C2510 H2524 0.961 . S
C2511 C2508 1.500 1_455 S
C2511 H2525 0.958 . S
C2511 H2526 0.961 . S
C2511 H2527 0.960 . S
H2512 C2496 0.907 1_455 S
H2513 C2501 0.929 . S
H2514 C2502 0.960 . S
H2515 C2502 0.962 . S
H2516 C2502 0.960 . S
H2517 C2503 0.961 . S
H2518 C2503 0.961 . S
H2519 C2503 0.961 . S
H2520 C2504 0.931 . S
H2521 C2509 0.922 1_455 S
H2522 C2510 0.956 . S
H2523 C2510 0.961 . S
H2524 C2510 0.961 . S
H2525 C2511 0.958 . S
H2526 C2511 0.961 . S
H2527 C2511 0.960 . S
C2528 C2529 1.391 . S
C2528 C2530 1.394 . S
C2528 H2544 0.931 . S
C2529 C2528 1.391 . S
C2529 C2533 1.376 . S
C2530 C2528 1.394 . S
C2530 C2531 1.369 . S
C2530 C2534 1.531 . S
C2531 C2530 1.369 . S
C2531 C2532 1.410 . S
C2531 C2539 1.503 . S
C2532 C2531 1.410 . S
C2532 C2533 1.392 . S
C2532 C2535 1.511 . S
C2533 C2529 1.376 . S
C2533 C2532 1.392 . S
C2533 H2545 0.929 . S
C2534 C2530 1.531 . S
C2534 H2546 0.960 . S
C2534 H2547 0.962 . S
C2534 H2548 0.960 . S
C2535 C2532 1.511 . S
C2535 H2549 0.961 . S
C2535 H2550 0.961 . S
C2535 H2551 0.961 . S
C2536 C2537 1.370 . S
C2536 C2538 1.363 . S
C2536 H2552 0.931 . S
C2537 C2536 1.370 . S
C2537 C2541 1.408 . S
C2538 C2536 1.363 . S
C2538 C2539 1.370 . S
C2538 C2542 1.524 . S
C2539 C2531 1.503 . S
C2539 C2538 1.370 . S
C2539 C2540 1.403 . S
C2540 C2539 1.403 . S
C2540 C2541 1.404 . S
C2540 C2543 1.539 . S
C2541 C2537 1.408 . S
C2541 C2540 1.404 . S
C2541 H2553 0.930 . S
C2542 C2538 1.524 . S
C2542 H2554 0.956 . S
C2542 H2555 0.961 . S
C2542 H2556 0.961 . S
C2543 C2540 1.539 . S
C2543 H2557 0.958 . S
C2543 H2558 0.961 . S
C2543 H2559 0.960 . S
H2544 C2528 0.931 . S
H2545 C2533 0.929 . S
H2546 C2534 0.960 . S
H2547 C2534 0.962 . S
H2548 C2534 0.960 . S
H2549 C2535 0.961 . S
H2550 C2535 0.961 . S
H2551 C2535 0.961 . S
H2552 C2536 0.931 . S
H2553 C2541 0.930 . S
H2554 C2542 0.956 . S
H2555 C2542 0.961 . S
H2556 C2542 0.961 . S
H2557 C2543 0.958 . S
H2558 C2543 0.961 . S
H2559 C2543 0.960 . S
C2560 C2561 1.391 . S
C2560 C2562 1.394 . S
C2560 H2576 0.931 . S
C2561 C2560 1.391 . S
C2561 C2565 1.376 . S
C2562 C2560 1.394 . S
C2562 C2563 1.369 . S
C2562 C2566 1.531 . S
C2563 C2562 1.369 . S
C2563 C2564 1.410 . S
C2563 C2571 1.503 . S
C2564 C2563 1.410 . S
C2564 C2565 1.392 . S
C2564 C2567 1.511 . S
C2565 C2561 1.376 . S
C2565 C2564 1.392 . S
C2565 H2577 0.929 . S
C2566 C2562 1.531 . S
C2566 H2578 0.960 . S
C2566 H2579 0.962 . S
C2566 H2580 0.960 . S
C2567 C2564 1.511 . S
C2567 H2581 0.961 . S
C2567 H2582 0.961 . S
C2567 H2583 0.961 . S
C2568 C2569 1.370 . S
C2568 C2570 1.363 . S
C2568 H2584 0.931 . S
C2569 C2568 1.370 . S
C2569 C2573 1.408 . S
C2570 C2568 1.363 . S
C2570 C2571 1.370 . S
C2570 C2574 1.524 . S
C2571 C2563 1.503 . S
C2571 C2570 1.370 . S
C2571 C2572 1.403 . S
C2572 C2571 1.403 . S
C2572 C2573 1.404 . S
C2572 C2575 1.539 . S
C2573 C2569 1.408 . S
C2573 C2572 1.404 . S
C2573 H2585 0.930 . S
C2574 C2570 1.524 . S
C2574 H2586 0.956 . S
C2574 H2587 0.961 . S
C2574 H2588 0.961 . S
C2575 C2572 1.539 . S
C2575 H2589 0.958 . S
C2575 H2590 0.961 . S
C2575 H2591 0.960 . S
H2576 C2560 0.931 . S
H2577 C2565 0.929 . S
H2578 C2566 0.960 . S
H2579 C2566 0.962 . S
H2580 C2566 0.960 . S
H2581 C2567 0.961 . S
H2582 C2567 0.961 . S
H2583 C2567 0.961 . S
H2584 C2568 0.931 . S
H2585 C2573 0.930 . S
H2586 C2574 0.956 . S
H2587 C2574 0.961 . S
H2588 C2574 0.961 . S
H2589 C2575 0.958 . S
H2590 C2575 0.961 . S
H2591 C2575 0.960 . S
C2592 C2593 1.391 . S
C2592 C2594 1.394 . S
C2592 H2608 0.931 . S
C2593 C2592 1.391 . S
C2593 C2597 1.376 . S
C2594 C2592 1.394 . S
C2594 C2595 1.369 . S
C2594 C2598 1.531 . S
C2595 C2594 1.369 . S
C2595 C2596 1.410 . S
C2595 C2603 1.503 . S
C2596 C2595 1.410 . S
C2596 C2597 1.392 . S
C2596 C2599 1.475 1_556 S
C2597 C2593 1.376 . S
C2597 C2596 1.392 . S
C2597 H2609 0.929 . S
C2598 C2594 1.531 . S
C2598 H2610 0.960 . S
C2598 H2611 0.962 . S
C2598 H2612 0.960 . S
C2599 C2596 1.475 1_554 S
C2599 H2613 1.011 . S
C2599 H2614 0.987 . S
C2599 H2615 0.926 1_554 S
C2600 C2601 1.370 . S
C2600 C2602 1.363 . S
C2600 H2616 0.931 1_556 S
C2601 C2600 1.370 . S
C2601 C2605 1.408 . S
C2602 C2600 1.363 . S
C2602 C2603 1.370 . S
C2602 C2606 1.524 1_556 S
C2603 C2595 1.503 . S
C2603 C2602 1.370 . S
C2603 C2604 1.403 . S
C2604 C2603 1.403 . S
C2604 C2605 1.404 . S
C2604 C2607 1.539 . S
C2605 C2601 1.408 . S
C2605 C2604 1.404 . S
C2605 H2617 0.930 . S
C2606 C2602 1.524 1_554 S
C2606 H2618 0.994 . S
C2606 H2619 0.961 . S
C2606 H2620 0.961 . S
C2607 C2604 1.539 . S
C2607 H2621 0.958 . S
C2607 H2622 0.961 . S
C2607 H2623 0.960 . S
H2608 C2592 0.931 . S
H2609 C2597 0.929 . S
H2610 C2598 0.960 . S
H2611 C2598 0.962 . S
H2612 C2598 0.960 . S
H2613 C2599 1.011 . S
H2614 C2599 0.987 . S
H2615 C2599 0.926 1_556 S
H2616 C2600 0.931 1_554 S
H2617 C2605 0.930 . S
H2618 C2606 0.994 . S
H2619 C2606 0.961 . S
H2620 C2606 0.961 . S
H2621 C2607 0.958 . S
H2622 C2607 0.961 . S
H2623 C2607 0.960 . S
C2624 C2625 1.391 . S
C2624 C2626 1.394 . S
C2624 H2640 0.931 . S
C2625 C2624 1.391 . S
C2625 C2629 1.376 . S
C2626 C2624 1.394 . S
C2626 C2627 1.369 . S
C2626 C2630 1.531 . S
C2627 C2626 1.369 . S
C2627 C2628 1.410 . S
C2627 C2635 1.503 . S
C2628 C2627 1.410 . S
C2628 C2629 1.392 . S
C2628 C2631 1.511 . S
C2629 C2625 1.376 . S
C2629 C2628 1.392 . S
C2629 H2641 0.929 . S
C2630 C2626 1.531 . S
C2630 H2642 0.960 . S
C2630 H2643 0.962 . S
C2630 H2644 0.960 . S
C2631 C2628 1.511 . S
C2631 H2645 0.961 . S
C2631 H2646 0.961 . S
C2631 H2647 0.961 . S
C2632 C2633 1.370 . S
C2632 C2634 1.363 . S
C2632 H2648 0.931 . S
C2633 C2632 1.370 . S
C2633 C2637 1.408 . S
C2634 C2632 1.363 . S
C2634 C2635 1.370 . S
C2634 C2638 1.524 . S
C2635 C2627 1.503 . S
C2635 C2634 1.370 . S
C2635 C2636 1.403 . S
C2636 C2635 1.403 . S
C2636 C2637 1.404 . S
C2636 C2639 1.539 . S
C2637 C2633 1.408 . S
C2637 C2636 1.404 . S
C2637 H2649 0.930 . S
C2638 C2634 1.524 . S
C2638 H2650 0.956 . S
C2638 H2651 0.961 . S
C2638 H2652 0.961 . S
C2639 C2636 1.539 . S
C2639 H2653 0.958 . S
C2639 H2654 0.961 . S
C2639 H2655 0.960 . S
H2640 C2624 0.931 . S
H2641 C2629 0.929 . S
H2642 C2630 0.960 . S
H2643 C2630 0.962 . S
H2644 C2630 0.960 . S
H2645 C2631 0.961 . S
H2646 C2631 0.961 . S
H2647 C2631 0.961 . S
H2648 C2632 0.931 . S
H2649 C2637 0.930 . S
H2650 C2638 0.956 . S
H2651 C2638 0.961 . S
H2652 C2638 0.961 . S
H2653 C2639 0.958 . S
H2654 C2639 0.961 . S
H2655 C2639 0.960 . S
C2656 C2657 1.391 . S
C2656 C2658 1.394 . S
C2656 H2672 0.931 . S
C2657 C2656 1.391 . S
C2657 C2661 1.376 . S
C2658 C2656 1.394 . S
C2658 C2659 1.369 . S
C2658 C2662 1.531 . S
C2659 C2658 1.369 . S
C2659 C2660 1.410 . S
C2659 C2667 1.503 . S
C2660 C2659 1.410 . S
C2660 C2661 1.392 . S
C2660 C2663 1.511 . S
C2661 C2657 1.376 . S
C2661 C2660 1.392 . S
C2661 H2673 0.929 . S
C2662 C2658 1.531 . S
C2662 H2674 0.960 . S
C2662 H2675 0.962 . S
C2662 H2676 0.960 . S
C2663 C2660 1.511 . S
C2663 H2677 0.961 . S
C2663 H2678 0.961 . S
C2663 H2679 0.961 . S
C2664 C2665 1.370 . S
C2664 C2666 1.363 . S
C2664 H2680 0.931 . S
C2665 C2664 1.370 . S
C2665 C2669 1.408 . S
C2666 C2664 1.363 . S
C2666 C2667 1.370 . S
C2666 C2670 1.524 . S
C2667 C2659 1.503 . S
C2667 C2666 1.370 . S
C2667 C2668 1.403 . S
C2668 C2667 1.403 . S
C2668 C2669 1.404 . S
C2668 C2671 1.539 . S
C2669 C2665 1.408 . S
C2669 C2668 1.404 . S
C2669 H2681 0.930 . S
C2670 C2666 1.524 . S
C2670 H2682 0.956 . S
C2670 H2683 0.961 . S
C2670 H2684 0.961 . S
C2671 C2668 1.539 . S
C2671 H2685 0.958 . S
C2671 H2686 0.961 . S
C2671 H2687 0.960 . S
H2672 C2656 0.931 . S
H2673 C2661 0.929 . S
H2674 C2662 0.960 . S
H2675 C2662 0.962 . S
H2676 C2662 0.960 . S
H2677 C2663 0.961 . S
H2678 C2663 0.961 . S
H2679 C2663 0.961 . S
H2680 C2664 0.931 . S
H2681 C2669 0.930 . S
H2682 C2670 0.956 . S
H2683 C2670 0.961 . S
H2684 C2670 0.961 . S
H2685 C2671 0.958 . S
H2686 C2671 0.961 . S
H2687 C2671 0.960 . S
C2688 C2689 1.391 . S
C2688 C2690 1.394 . S
C2688 H2704 0.931 . S
C2689 C2688 1.391 . S
C2689 C2693 1.376 . S
C2690 C2688 1.394 . S
C2690 C2691 1.369 . S
C2690 C2694 1.531 . S
C2691 C2690 1.369 . S
C2691 C2692 1.410 . S
C2691 C2699 1.503 . S
C2692 C2691 1.410 . S
C2692 C2693 1.392 . S
C2692 C2695 1.511 . S
C2693 C2689 1.376 . S
C2693 C2692 1.392 . S
C2693 H2705 0.929 . S
C2694 C2690 1.531 . S
C2694 H2706 0.960 . S
C2694 H2707 0.962 . S
C2694 H2708 0.960 . S
C2695 C2692 1.511 . S
C2695 H2709 0.961 . S
C2695 H2710 0.961 . S
C2695 H2711 0.961 . S
C2696 C2697 1.370 . S
C2696 C2698 1.363 . S
C2696 H2712 0.931 . S
C2697 C2696 1.370 . S
C2697 C2701 1.408 . S
C2698 C2696 1.363 . S
C2698 C2699 1.370 . S
C2698 C2702 1.524 . S
C2699 C2691 1.503 . S
C2699 C2698 1.370 . S
C2699 C2700 1.403 . S
C2700 C2699 1.403 . S
C2700 C2701 1.404 . S
C2700 C2703 1.539 . S
C2701 C2697 1.408 . S
C2701 C2700 1.404 . S
C2701 H2713 0.930 . S
C2702 C2698 1.524 . S
C2702 H2714 0.956 . S
C2702 H2715 0.961 . S
C2702 H2716 0.961 . S
C2703 C2700 1.539 . S
C2703 H2717 0.958 . S
C2703 H2718 0.961 . S
C2703 H2719 0.960 . S
H2704 C2688 0.931 . S
H2705 C2693 0.929 . S
H2706 C2694 0.960 . S
H2707 C2694 0.962 . S
H2708 C2694 0.960 . S
H2709 C2695 0.961 . S
H2710 C2695 0.961 . S
H2711 C2695 0.961 . S
H2712 C2696 0.931 . S
H2713 C2701 0.930 . S
H2714 C2702 0.956 . S
H2715 C2702 0.961 . S
H2716 C2702 0.961 . S
H2717 C2703 0.958 . S
H2718 C2703 0.961 . S
H2719 C2703 0.960 . S
C2720 C2721 1.391 . S
C2720 C2722 1.394 . S
C2720 H2736 0.931 . S
C2721 C2720 1.391 . S
C2721 C2725 1.376 . S
C2722 C2720 1.394 . S
C2722 C2723 1.369 . S
C2722 C2726 1.531 . S
C2723 C2722 1.369 . S
C2723 C2724 1.410 . S
C2723 C2731 1.503 . S
C2724 C2723 1.410 . S
C2724 C2725 1.392 . S
C2724 C2727 1.511 . S
C2725 C2721 1.376 . S
C2725 C2724 1.392 . S
C2725 H2737 0.929 . S
C2726 C2722 1.531 . S
C2726 H2738 0.960 . S
C2726 H2739 0.962 . S
C2726 H2740 0.960 . S
C2727 C2724 1.511 . S
C2727 H2741 0.961 . S
C2727 H2742 0.961 . S
C2727 H2743 0.961 . S
C2728 C2729 1.370 . S
C2728 C2730 1.363 . S
C2728 H2744 0.931 . S
C2729 C2728 1.370 . S
C2729 C2733 1.408 . S
C2730 C2728 1.363 . S
C2730 C2731 1.370 . S
C2730 C2734 1.524 . S
C2731 C2723 1.503 . S
C2731 C2730 1.370 . S
C2731 C2732 1.403 . S
C2732 C2731 1.403 . S
C2732 C2733 1.404 . S
C2732 C2735 1.539 . S
C2733 C2729 1.408 . S
C2733 C2732 1.404 . S
C2733 H2745 0.930 . S
C2734 C2730 1.524 . S
C2734 H2746 0.956 . S
C2734 H2747 0.961 . S
C2734 H2748 0.961 . S
C2735 C2732 1.539 . S
C2735 H2749 0.958 . S
C2735 H2750 0.961 . S
C2735 H2751 0.960 . S
H2736 C2720 0.931 . S
H2737 C2725 0.929 . S
H2738 C2726 0.960 . S
H2739 C2726 0.962 . S
H2740 C2726 0.960 . S
H2741 C2727 0.961 . S
H2742 C2727 0.961 . S
H2743 C2727 0.961 . S
H2744 C2728 0.931 . S
H2745 C2733 0.930 . S
H2746 C2734 0.956 . S
H2747 C2734 0.961 . S
H2748 C2734 0.961 . S
H2749 C2735 0.958 . S
H2750 C2735 0.961 . S
H2751 C2735 0.960 . S
C2752 C2753 1.391 . S
C2752 C2754 1.394 . S
C2752 H2768 0.931 . S
C2753 C2752 1.391 . S
C2753 C2757 1.376 . S
C2754 C2752 1.394 . S
C2754 C2755 1.369 . S
C2754 C2758 1.531 . S
C2755 C2754 1.369 . S
C2755 C2756 1.410 . S
C2755 C2763 1.503 . S
C2756 C2755 1.410 . S
C2756 C2757 1.392 . S
C2756 C2759 1.511 . S
C2757 C2753 1.376 . S
C2757 C2756 1.392 . S
C2757 H2769 0.929 . S
C2758 C2754 1.531 . S
C2758 H2770 0.960 . S
C2758 H2771 0.962 . S
C2758 H2772 0.960 . S
C2759 C2756 1.511 . S
C2759 H2773 0.961 . S
C2759 H2774 0.961 . S
C2759 H2775 0.961 . S
C2760 C2761 1.370 . S
C2760 C2762 1.363 . S
C2760 H2776 0.931 . S
C2761 C2760 1.370 . S
C2761 C2765 1.408 . S
C2762 C2760 1.363 . S
C2762 C2763 1.370 . S
C2762 C2766 1.524 . S
C2763 C2755 1.503 . S
C2763 C2762 1.370 . S
C2763 C2764 1.403 . S
C2764 C2763 1.403 . S
C2764 C2765 1.404 . S
C2764 C2767 1.539 . S
C2765 C2761 1.408 . S
C2765 C2764 1.404 . S
C2765 H2777 0.930 . S
C2766 C2762 1.524 . S
C2766 H2778 0.956 . S
C2766 H2779 0.961 . S
C2766 H2780 0.961 . S
C2767 C2764 1.539 . S
C2767 H2781 0.958 . S
C2767 H2782 0.961 . S
C2767 H2783 0.960 . S
H2768 C2752 0.931 . S
H2769 C2757 0.929 . S
H2770 C2758 0.960 . S
H2771 C2758 0.962 . S
H2772 C2758 0.960 . S
H2773 C2759 0.961 . S
H2774 C2759 0.961 . S
H2775 C2759 0.961 . S
H2776 C2760 0.931 . S
H2777 C2765 0.930 . S
H2778 C2766 0.956 . S
H2779 C2766 0.961 . S
H2780 C2766 0.961 . S
H2781 C2767 0.958 . S
H2782 C2767 0.961 . S
H2783 C2767 0.960 . S
C2784 C2785 1.391 . S
C2784 C2786 1.394 . S
C2784 H2800 0.931 . S
C2785 C2784 1.391 . S
C2785 C2789 1.376 . S
C2786 C2784 1.394 . S
C2786 C2787 1.369 . S
C2786 C2790 1.531 . S
C2787 C2786 1.369 . S
C2787 C2788 1.410 . S
C2787 C2795 1.503 . S
C2788 C2787 1.410 . S
C2788 C2789 1.392 . S
C2788 C2791 1.511 . S
C2789 C2785 1.376 . S
C2789 C2788 1.392 . S
C2789 H2801 0.929 . S
C2790 C2786 1.531 . S
C2790 H2802 0.960 . S
C2790 H2803 0.962 . S
C2790 H2804 0.960 . S
C2791 C2788 1.511 . S
C2791 H2805 0.961 . S
C2791 H2806 0.961 . S
C2791 H2807 0.961 . S
C2792 C2793 1.370 . S
C2792 C2794 1.363 . S
C2792 H2808 0.931 . S
C2793 C2792 1.370 . S
C2793 C2797 1.408 . S
C2794 C2792 1.363 . S
C2794 C2795 1.370 . S
C2794 C2798 1.524 . S
C2795 C2787 1.503 . S
C2795 C2794 1.370 . S
C2795 C2796 1.403 . S
C2796 C2795 1.403 . S
C2796 C2797 1.404 . S
C2796 C2799 1.539 . S
C2797 C2793 1.408 . S
C2797 C2796 1.404 . S
C2797 H2809 0.930 . S
C2798 C2794 1.524 . S
C2798 H2810 0.956 . S
C2798 H2811 0.961 . S
C2798 H2812 0.961 . S
C2799 C2796 1.539 . S
C2799 H2813 0.958 . S
C2799 H2814 0.961 . S
C2799 H2815 0.960 . S
H2800 C2784 0.931 . S
H2801 C2789 0.929 . S
H2802 C2790 0.960 . S
H2803 C2790 0.962 . S
H2804 C2790 0.960 . S
H2805 C2791 0.961 . S
H2806 C2791 0.961 . S
H2807 C2791 0.961 . S
H2808 C2792 0.931 . S
H2809 C2797 0.930 . S
H2810 C2798 0.956 . S
H2811 C2798 0.961 . S
H2812 C2798 0.961 . S
H2813 C2799 0.958 . S
H2814 C2799 0.961 . S
H2815 C2799 0.960 . S
C2816 C2817 1.391 . S
C2816 C2818 1.394 . S
C2816 H2832 0.931 . S
C2817 C2816 1.391 . S
C2817 C2821 1.376 . S
C2818 C2816 1.394 . S
C2818 C2819 1.369 . S
C2818 C2822 1.531 1_545 S
C2819 C2818 1.369 . S
C2819 C2820 1.410 . S
C2819 C2827 1.503 . S
C2820 C2819 1.410 . S
C2820 C2821 1.392 . S
C2820 C2823 1.511 . S
C2821 C2817 1.376 . S
C2821 C2820 1.392 . S
C2821 H2833 0.929 . S
C2822 C2818 1.531 1_565 S
C2822 H2834 0.960 . S
C2822 H2835 0.962 1_565 S
C2822 H2836 0.960 . S
C2823 C2820 1.511 . S
C2823 H2837 0.961 . S
C2823 H2838 0.961 . S
C2823 H2839 0.961 . S
C2824 C2825 1.370 . S
C2824 C2826 1.363 . S
C2824 H2840 0.931 . S
C2825 C2824 1.370 . S
C2825 C2829 1.408 1_545 S
C2826 C2824 1.363 . S
C2826 C2827 1.370 . S
C2826 C2830 1.524 . S
C2827 C2819 1.503 . S
C2827 C2826 1.370 . S
C2827 C2828 1.403 1_545 S
C2828 C2827 1.403 1_565 S
C2828 C2829 1.404 . S
C2828 C2831 1.539 . S
C2829 C2825 1.408 1_565 S
C2829 C2828 1.404 . S
C2829 H2841 0.930 . S
C2830 C2826 1.524 . S
C2830 H2842 0.956 . S
C2830 H2843 0.961 . S
C2830 H2844 0.961 . S
C2831 C2828 1.539 . S
C2831 H2845 0.958 . S
C2831 H2846 0.961 . S
C2831 H2847 0.960 . S
H2832 C2816 0.931 . S
H2833 C2821 0.929 . S
H2834 C2822 0.960 . S
H2835 C2822 0.962 1_545 S
H2836 C2822 0.960 . S
H2837 C2823 0.961 . S
H2838 C2823 0.961 . S
H2839 C2823 0.961 . S
H2840 C2824 0.931 . S
H2841 C2829 0.930 . S
H2842 C2830 0.956 . S
H2843 C2830 0.961 . S
H2844 C2830 0.961 . S
H2845 C2831 0.958 . S
H2846 C2831 0.961 . S
H2847 C2831 0.960 . S
C2848 C2849 1.391 . S
C2848 C2850 1.394 . S
C2848 H2864 0.931 . S
C2849 C2848 1.391 . S
C2849 C2853 1.376 . S
C2850 C2848 1.394 . S
C2850 C2851 1.369 . S
C2850 C2854 1.531 . S
C2851 C2850 1.369 . S
C2851 C2852 1.410 . S
C2851 C2859 1.503 . S
C2852 C2851 1.410 . S
C2852 C2853 1.392 . S
C2852 C2855 1.511 . S
C2853 C2849 1.376 . S
C2853 C2852 1.392 . S
C2853 H2865 0.929 . S
C2854 C2850 1.531 . S
C2854 H2866 0.960 . S
C2854 H2867 0.962 . S
C2854 H2868 0.960 . S
C2855 C2852 1.511 . S
C2855 H2869 0.961 . S
C2855 H2870 0.961 . S
C2855 H2871 0.961 . S
C2856 C2857 1.370 . S
C2856 C2858 1.363 . S
C2856 H2872 0.931 . S
C2857 C2856 1.370 . S
C2857 C2861 1.408 . S
C2858 C2856 1.363 . S
C2858 C2859 1.370 . S
C2858 C2862 1.524 . S
C2859 C2851 1.503 . S
C2859 C2858 1.370 . S
C2859 C2860 1.403 . S
C2860 C2859 1.403 . S
C2860 C2861 1.404 . S
C2860 C2863 1.539 . S
C2861 C2857 1.408 . S
C2861 C2860 1.404 . S
C2861 H2873 0.930 . S
C2862 C2858 1.524 . S
C2862 H2874 0.956 . S
C2862 H2875 0.961 . S
C2862 H2876 0.961 . S
C2863 C2860 1.539 . S
C2863 H2877 0.958 . S
C2863 H2878 0.961 . S
C2863 H2879 0.960 . S
H2864 C2848 0.931 . S
H2865 C2853 0.929 . S
H2866 C2854 0.960 . S
H2867 C2854 0.962 . S
H2868 C2854 0.960 . S
H2869 C2855 0.961 . S
H2870 C2855 0.961 . S
H2871 C2855 0.961 . S
H2872 C2856 0.931 . S
H2873 C2861 0.930 . S
H2874 C2862 0.956 . S
H2875 C2862 0.961 . S
H2876 C2862 0.961 . S
H2877 C2863 0.958 . S
H2878 C2863 0.961 . S
H2879 C2863 0.960 . S
C2880 C2881 1.391 . S
C2880 C2882 1.394 . S
C2880 H2896 0.931 . S
C2881 C2880 1.391 . S
C2881 C2885 1.376 . S
C2882 C2880 1.394 . S
C2882 C2883 1.369 . S
C2882 C2886 1.531 . S
C2883 C2882 1.369 . S
C2883 C2884 1.410 . S
C2883 C2891 1.503 . S
C2884 C2883 1.410 . S
C2884 C2885 1.392 . S
C2884 C2887 1.511 . S
C2885 C2881 1.376 . S
C2885 C2884 1.392 . S
C2885 H2897 0.929 . S
C2886 C2882 1.531 . S
C2886 H2898 0.960 . S
C2886 H2899 0.962 . S
C2886 H2900 0.960 . S
C2887 C2884 1.511 . S
C2887 H2901 0.961 . S
C2887 H2902 0.961 . S
C2887 H2903 0.961 . S
C2888 C2889 1.370 . S
C2888 C2890 1.363 . S
C2888 H2904 0.931 . S
C2889 C2888 1.370 . S
C2889 C2893 1.408 . S
C2890 C2888 1.363 . S
C2890 C2891 1.370 . S
C2890 C2894 1.524 . S
C2891 C2883 1.503 . S
C2891 C2890 1.370 . S
C2891 C2892 1.403 . S
C2892 C2891 1.403 . S
C2892 C2893 1.404 . S
C2892 C2895 1.539 . S
C2893 C2889 1.408 . S
C2893 C2892 1.404 . S
C2893 H2905 0.930 . S
C2894 C2890 1.524 . S
C2894 H2906 0.956 . S
C2894 H2907 0.961 . S
C2894 H2908 0.961 . S
C2895 C2892 1.539 . S
C2895 H2909 0.958 . S
C2895 H2910 0.961 . S
C2895 H2911 0.960 . S
H2896 C2880 0.931 . S
H2897 C2885 0.929 . S
H2898 C2886 0.960 . S
H2899 C2886 0.962 . S
H2900 C2886 0.960 . S
H2901 C2887 0.961 . S
H2902 C2887 0.961 . S
H2903 C2887 0.961 . S
H2904 C2888 0.931 . S
H2905 C2893 0.930 . S
H2906 C2894 0.956 . S
H2907 C2894 0.961 . S
H2908 C2894 0.961 . S
H2909 C2895 0.958 . S
H2910 C2895 0.961 . S
H2911 C2895 0.960 . S
C2912 C2913 1.391 . S
C2912 C2914 1.394 . S
C2912 H2928 0.931 . S
C2913 C2912 1.391 . S
C2913 C2917 1.376 . S
C2914 C2912 1.394 . S
C2914 C2915 1.369 . S
C2914 C2918 1.531 . S
C2915 C2914 1.369 . S
C2915 C2916 1.410 . S
C2915 C2923 1.503 . S
C2916 C2915 1.410 . S
C2916 C2917 1.392 . S
C2916 C2919 1.511 . S
C2917 C2913 1.376 . S
C2917 C2916 1.392 . S
C2917 H2929 0.929 . S
C2918 C2914 1.531 . S
C2918 H2930 0.960 . S
C2918 H2931 0.962 . S
C2918 H2932 0.960 . S
C2919 C2916 1.511 . S
C2919 H2933 0.961 . S
C2919 H2934 0.961 . S
C2919 H2935 0.961 . S
C2920 C2921 1.370 . S
C2920 C2922 1.363 . S
C2920 H2936 0.931 . S
C2921 C2920 1.370 . S
C2921 C2925 1.408 . S
C2922 C2920 1.363 . S
C2922 C2923 1.370 . S
C2922 C2926 1.524 . S
C2923 C2915 1.503 . S
C2923 C2922 1.370 . S
C2923 C2924 1.403 . S
C2924 C2923 1.403 . S
C2924 C2925 1.404 . S
C2924 C2927 1.539 . S
C2925 C2921 1.408 . S
C2925 C2924 1.404 . S
C2925 H2937 0.930 . S
C2926 C2922 1.524 . S
C2926 H2938 0.956 . S
C2926 H2939 0.961 . S
C2926 H2940 0.961 . S
C2927 C2924 1.539 . S
C2927 H2941 0.958 . S
C2927 H2942 0.961 . S
C2927 H2943 0.960 . S
H2928 C2912 0.931 . S
H2929 C2917 0.929 . S
H2930 C2918 0.960 . S
H2931 C2918 0.962 . S
H2932 C2918 0.960 . S
H2933 C2919 0.961 . S
H2934 C2919 0.961 . S
H2935 C2919 0.961 . S
H2936 C2920 0.931 . S
H2937 C2925 0.930 . S
H2938 C2926 0.956 . S
H2939 C2926 0.961 . S
H2940 C2926 0.961 . S
H2941 C2927 0.958 . S
H2942 C2927 0.961 . S
H2943 C2927 0.960 . S
C2944 C2945 1.391 . S
C2944 C2946 1.394 . S
C2944 H2960 0.931 . S
C2945 C2944 1.391 . S
C2945 C2949 1.376 . S
C2946 C2944 1.394 . S
C2946 C2947 1.369 . S
C2946 C2950 1.531 . S
C2947 C2946 1.369 . S
C2947 C2948 1.410 . S
C2947 C2955 1.503 . S
C2948 C2947 1.410 . S
C2948 C2949 1.392 . S
C2948 C2951 1.511 . S
C2949 C2945 1.376 . S
C2949 C2948 1.392 . S
C2949 H2961 0.929 . S
C2950 C2946 1.531 . S
C2950 H2962 0.960 . S
C2950 H2963 0.962 . S
C2950 H2964 0.960 . S
C2951 C2948 1.511 . S
C2951 H2965 0.961 . S
C2951 H2966 0.961 . S
C2951 H2967 0.961 . S
C2952 C2953 1.323 1_565 S
C2952 C2954 1.355 1_565 S
C2952 H2968 0.989 . S
C2953 C2952 1.323 1_545 S
C2953 C2957 1.408 . S
C2954 C2952 1.355 1_545 S
C2954 C2955 1.370 . S
C2954 C2958 1.524 1_545 S
C2955 C2947 1.503 . S
C2955 C2954 1.370 . S
C2955 C2956 1.403 . S
C2956 C2955 1.403 . S
C2956 C2957 1.404 . S
C2956 C2959 1.539 . S
C2957 C2953 1.408 . S
C2957 C2956 1.404 . S
C2957 H2969 0.930 . S
C2958 C2954 1.524 1_565 S
C2958 H2970 0.956 . S
C2958 H2971 0.961 . S
C2958 H2972 0.961 . S
C2959 C2956 1.539 . S
C2959 H2973 0.958 . S
C2959 H2974 0.961 . S
C2959 H2975 0.960 . S
H2960 C2944 0.931 . S
H2961 C2949 0.929 . S
H2962 C2950 0.960 . S
H2963 C2950 0.962 . S
H2964 C2950 0.960 . S
H2965 C2951 0.961 . S
H2966 C2951 0.961 . S
H2967 C2951 0.961 . S
H2968 C2952 0.989 . S
H2969 C2957 0.930 . S
H2970 C2958 0.956 . S
H2971 C2958 0.961 . S
H2972 C2958 0.961 . S
H2973 C2959 0.958 . S
H2974 C2959 0.961 . S
H2975 C2959 0.960 . S
C2976 C2977 1.391 . S
C2976 C2978 1.394 . S
C2976 H2992 0.931 . S
C2977 C2976 1.391 . S
C2977 C2981 1.376 . S
C2978 C2976 1.394 . S
C2978 C2979 1.369 . S
C2978 C2982 1.531 . S
C2979 C2978 1.369 . S
C2979 C2980 1.410 . S
C2979 C2987 1.503 . S
C2980 C2979 1.410 . S
C2980 C2981 1.392 . S
C2980 C2983 1.511 . S
C2981 C2977 1.376 . S
C2981 C2980 1.392 . S
C2981 H2993 0.929 . S
C2982 C2978 1.531 . S
C2982 H2994 0.960 . S
C2982 H2995 0.962 . S
C2982 H2996 0.960 . S
C2983 C2980 1.511 . S
C2983 H2997 0.961 . S
C2983 H2998 0.961 . S
C2983 H2999 0.961 . S
C2984 C2985 1.370 . S
C2984 C2986 1.363 . S
C2984 H3000 0.931 . S
C2985 C2984 1.370 . S
C2985 C2989 1.408 . S
C2986 C2984 1.363 . S
C2986 C2987 1.370 . S
C2986 C2990 1.524 . S
C2987 C2979 1.503 . S
C2987 C2986 1.370 . S
C2987 C2988 1.403 . S
C2988 C2987 1.403 . S
C2988 C2989 1.404 . S
C2988 C2991 1.539 . S
C2989 C2985 1.408 . S
C2989 C2988 1.404 . S
C2989 H3001 0.930 . S
C2990 C2986 1.524 . S
C2990 H3002 0.956 . S
C2990 H3003 0.961 . S
C2990 H3004 0.961 . S
C2991 C2988 1.539 . S
C2991 H3005 0.958 . S
C2991 H3006 0.961 . S
C2991 H3007 0.960 . S
H2992 C2976 0.931 . S
H2993 C2981 0.929 . S
H2994 C2982 0.960 . S
H2995 C2982 0.962 . S
H2996 C2982 0.960 . S
H2997 C2983 0.961 . S
H2998 C2983 0.961 . S
H2999 C2983 0.961 . S
H3000 C2984 0.931 . S
H3001 C2989 0.930 . S
H3002 C2990 0.956 . S
H3003 C2990 0.961 . S
H3004 C2990 0.961 . S
H3005 C2991 0.958 . S
H3006 C2991 0.961 . S
H3007 C2991 0.960 . S
C3008 C3009 1.391 . S
C3008 C3010 1.394 . S
C3008 H3024 0.931 . S
C3009 C3008 1.391 . S
C3009 C3013 1.376 . S
C3010 C3008 1.394 . S
C3010 C3011 1.369 . S
C3010 C3014 1.531 . S
C3011 C3010 1.369 . S
C3011 C3012 1.410 . S
C3011 C3019 1.503 . S
C3012 C3011 1.410 . S
C3012 C3013 1.392 . S
C3012 C3015 1.511 . S
C3013 C3009 1.376 . S
C3013 C3012 1.392 . S
C3013 H3025 0.929 . S
C3014 C3010 1.531 . S
C3014 H3026 0.960 . S
C3014 H3027 0.962 . S
C3014 H3028 0.960 . S
C3015 C3012 1.511 . S
C3015 H3029 0.961 . S
C3015 H3030 0.961 . S
C3015 H3031 0.961 . S
C3016 C3017 1.370 . S
C3016 C3018 1.363 . S
C3016 H3032 0.931 . S
C3017 C3016 1.370 . S
C3017 C3021 1.408 . S
C3018 C3016 1.363 . S
C3018 C3019 1.370 . S
C3018 C3022 1.524 . S
C3019 C3011 1.503 . S
C3019 C3018 1.370 . S
C3019 C3020 1.403 . S
C3020 C3019 1.403 . S
C3020 C3021 1.404 . S
C3020 C3023 1.539 . S
C3021 C3017 1.408 . S
C3021 C3020 1.404 . S
C3021 H3033 0.930 . S
C3022 C3018 1.524 . S
C3022 H3034 0.956 . S
C3022 H3035 0.961 . S
C3022 H3036 0.961 . S
C3023 C3020 1.539 . S
C3023 H3037 0.958 . S
C3023 H3038 0.961 . S
C3023 H3039 0.960 . S
H3024 C3008 0.931 . S
H3025 C3013 0.929 . S
H3026 C3014 0.960 . S
H3027 C3014 0.962 . S
H3028 C3014 0.960 . S
H3029 C3015 0.961 . S
H3030 C3015 0.961 . S
H3031 C3015 0.961 . S
H3032 C3016 0.931 . S
H3033 C3021 0.930 . S
H3034 C3022 0.956 . S
H3035 C3022 0.961 . S
H3036 C3022 0.961 . S
H3037 C3023 0.958 . S
H3038 C3023 0.961 . S
H3039 C3023 0.960 . S
C3040 C3041 1.391 . S
C3040 C3042 1.394 . S
C3040 H3056 0.931 . S
C3041 C3040 1.391 . S
C3041 C3045 1.376 . S
C3042 C3040 1.394 . S
C3042 C3043 1.369 . S
C3042 C3046 1.531 . S
C3043 C3042 1.369 . S
C3043 C3044 1.410 . S
C3043 C3051 1.503 . S
C3044 C3043 1.410 . S
C3044 C3045 1.392 . S
C3044 C3047 1.511 . S
C3045 C3041 1.376 . S
C3045 C3044 1.392 . S
C3045 H3057 0.929 . S
C3046 C3042 1.531 . S
C3046 H3058 0.960 . S
C3046 H3059 0.962 . S
C3046 H3060 0.960 . S
C3047 C3044 1.511 . S
C3047 H3061 0.961 . S
C3047 H3062 0.961 . S
C3047 H3063 0.961 . S
C3048 C3049 1.370 . S
C3048 C3050 1.363 . S
C3048 H3064 0.931 . S
C3049 C3048 1.370 . S
C3049 C3053 1.408 . S
C3050 C3048 1.363 . S
C3050 C3051 1.370 . S
C3050 C3054 1.524 . S
C3051 C3043 1.503 . S
C3051 C3050 1.370 . S
C3051 C3052 1.403 . S
C3052 C3051 1.403 . S
C3052 C3053 1.404 . S
C3052 C3055 1.539 . S
C3053 C3049 1.408 . S
C3053 C3052 1.404 . S
C3053 H3065 0.930 . S
C3054 C3050 1.524 . S
C3054 H3066 0.956 . S
C3054 H3067 0.961 . S
C3054 H3068 0.961 . S
C3055 C3052 1.539 . S
C3055 H3069 0.958 . S
C3055 H3070 0.961 . S
C3055 H3071 0.960 . S
H3056 C3040 0.931 . S
H3057 C3045 0.929 . S
H3058 C3046 0.960 . S
H3059 C3046 0.962 . S
H3060 C3046 0.960 . S
H3061 C3047 0.961 . S
H3062 C3047 0.961 . S
H3063 C3047 0.961 . S
H3064 C3048 0.931 . S
H3065 C3053 0.930 . S
H3066 C3054 0.956 . S
H3067 C3054 0.961 . S
H3068 C3054 0.961 . S
H3069 C3055 0.958 . S
H3070 C3055 0.961 . S
H3071 C3055 0.960 . S
C3072 C3073 1.391 . S
C3072 C3074 1.394 . S
C3072 H3088 0.931 . S
C3073 C3072 1.391 . S
C3073 C3077 1.376 . S
C3074 C3072 1.394 . S
C3074 C3075 1.369 . S
C3074 C3078 1.531 . S
C3075 C3074 1.369 . S
C3075 C3076 1.410 . S
C3075 C3083 1.503 . S
C3076 C3075 1.410 . S
C3076 C3077 1.392 . S
C3076 C3079 1.511 1_655 S
C3077 C3073 1.376 . S
C3077 C3076 1.392 . S
C3077 H3089 0.929 . S
C3078 C3074 1.531 . S
C3078 H3090 0.960 . S
C3078 H3091 0.962 . S
C3078 H3092 0.960 . S
C3079 C3076 1.511 1_455 S
C3079 H3093 0.961 . S
C3079 H3094 0.961 1_455 S
C3079 H3095 0.961 . S
C3080 C3081 1.370 . S
C3080 C3082 1.363 . S
C3080 H3096 0.931 . S
C3081 C3080 1.370 . S
C3081 C3085 1.408 1_655 S
C3082 C3080 1.363 . S
C3082 C3083 1.370 . S
C3082 C3086 1.524 . S
C3083 C3075 1.503 . S
C3083 C3082 1.370 . S
C3083 C3084 1.403 1_655 S
C3084 C3083 1.403 1_455 S
C3084 C3085 1.404 . S
C3084 C3087 1.539 . S
C3085 C3081 1.408 1_455 S
C3085 C3084 1.404 . S
C3085 H3097 0.930 . S
C3086 C3082 1.524 . S
C3086 H3098 0.956 . S
C3086 H3099 0.961 . S
C3086 H3100 0.961 . S
C3087 C3084 1.539 . S
C3087 H3101 0.958 . S
C3087 H3102 0.961 . S
C3087 H3103 0.960 . S
H3088 C3072 0.931 . S
H3089 C3077 0.929 . S
H3090 C3078 0.960 . S
H3091 C3078 0.962 . S
H3092 C3078 0.960 . S
H3093 C3079 0.961 . S
H3094 C3079 0.961 1_655 S
H3095 C3079 0.961 . S
H3096 C3080 0.931 . S
H3097 C3085 0.930 . S
H3098 C3086 0.956 . S
H3099 C3086 0.961 . S
H3100 C3086 0.961 . S
H3101 C3087 0.958 . S
H3102 C3087 0.961 . S
H3103 C3087 0.960 . S
C3104 C3105 1.391 . S
C3104 C3106 1.394 . S
C3104 H3120 0.931 . S
C3105 C3104 1.391 . S
C3105 C3109 1.376 . S
C3106 C3104 1.394 . S
C3106 C3107 1.369 . S
C3106 C3110 1.531 . S
C3107 C3106 1.369 . S
C3107 C3108 1.410 . S
C3107 C3115 1.503 . S
C3108 C3107 1.410 . S
C3108 C3109 1.392 . S
C3108 C3111 1.511 . S
C3109 C3105 1.376 . S
C3109 C3108 1.392 . S
C3109 H3121 0.929 . S
C3110 C3106 1.531 . S
C3110 H3122 0.960 . S
C3110 H3123 0.962 . S
C3110 H3124 0.960 . S
C3111 C3108 1.511 . S
C3111 H3125 0.961 . S
C3111 H3126 0.961 . S
C3111 H3127 0.961 . S
C3112 C3113 1.370 . S
C3112 C3114 1.363 . S
C3112 H3128 0.931 . S
C3113 C3112 1.370 . S
C3113 C3117 1.408 . S
C3114 C3112 1.363 . S
C3114 C3115 1.370 . S
C3114 C3118 1.524 . S
C3115 C3107 1.503 . S
C3115 C3114 1.370 . S
C3115 C3116 1.403 . S
C3116 C3115 1.403 . S
C3116 C3117 1.404 . S
C3116 C3119 1.539 . S
C3117 C3113 1.408 . S
C3117 C3116 1.404 . S
C3117 H3129 0.930 . S
C3118 C3114 1.524 . S
C3118 H3130 0.956 . S
C3118 H3131 0.961 . S
C3118 H3132 0.961 . S
C3119 C3116 1.539 . S
C3119 H3133 0.958 . S
C3119 H3134 0.961 . S
C3119 H3135 0.960 . S
H3120 C3104 0.931 . S
H3121 C3109 0.929 . S
H3122 C3110 0.960 . S
H3123 C3110 0.962 . S
H3124 C3110 0.960 . S
H3125 C3111 0.961 . S
H3126 C3111 0.961 . S
H3127 C3111 0.961 . S
H3128 C3112 0.931 . S
H3129 C3117 0.930 . S
H3130 C3118 0.956 . S
H3131 C3118 0.961 . S
H3132 C3118 0.961 . S
H3133 C3119 0.958 . S
H3134 C3119 0.961 . S
H3135 C3119 0.960 . S
C3136 C3137 1.391 . S
C3136 C3138 1.394 . S
C3136 H3152 0.931 . S
C3137 C3136 1.391 . S
C3137 C3141 1.376 . S
C3138 C3136 1.394 . S
C3138 C3139 1.369 . S
C3138 C3142 1.531 . S
C3139 C3138 1.369 . S
C3139 C3140 1.410 . S
C3139 C3147 1.503 . S
C3140 C3139 1.410 . S
C3140 C3141 1.392 . S
C3140 C3143 1.511 . S
C3141 C3137 1.376 . S
C3141 C3140 1.392 . S
C3141 H3153 0.929 . S
C3142 C3138 1.531 . S
C3142 H3154 0.960 . S
C3142 H3155 0.962 . S
C3142 H3156 0.960 . S
C3143 C3140 1.511 . S
C3143 H3157 0.961 . S
C3143 H3158 0.961 . S
C3143 H3159 0.961 1_455 S
C3144 C3145 1.370 . S
C3144 C3146 1.363 . S
C3144 H3160 0.931 . S
C3145 C3144 1.370 . S
C3145 C3149 1.408 1_455 S
C3146 C3144 1.363 . S
C3146 C3147 1.370 . S
C3146 C3150 1.524 . S
C3147 C3139 1.503 . S
C3147 C3146 1.370 . S
C3147 C3148 1.403 1_455 S
C3148 C3147 1.403 1_655 S
C3148 C3149 1.404 . S
C3148 C3151 1.539 . S
C3149 C3145 1.408 1_655 S
C3149 C3148 1.404 . S
C3149 H3161 0.930 . S
C3150 C3146 1.524 . S
C3150 H3162 0.956 . S
C3150 H3163 0.961 . S
C3150 H3164 0.961 . S
C3151 C3148 1.539 . S
C3151 H3165 0.958 . S
C3151 H3166 0.961 . S
C3151 H3167 0.960 . S
H3152 C3136 0.931 . S
H3153 C3141 0.929 . S
H3154 C3142 0.960 . S
H3155 C3142 0.962 . S
H3156 C3142 0.960 . S
H3157 C3143 0.961 . S
H3158 C3143 0.961 . S
H3159 C3143 0.961 1_655 S
H3160 C3144 0.931 . S
H3161 C3149 0.930 . S
H3162 C3150 0.956 . S
H3163 C3150 0.961 . S
H3164 C3150 0.961 . S
H3165 C3151 0.958 . S
H3166 C3151 0.961 . S
H3167 C3151 0.960 . S
C3168 C3169 1.391 . S
C3168 C3170 1.394 . S
C3168 H3184 0.931 . S
C3169 C3168 1.391 . S
C3169 C3173 1.376 . S
C3170 C3168 1.394 . S
C3170 C3171 1.369 . S
C3170 C3174 1.531 . S
C3171 C3170 1.369 . S
C3171 C3172 1.410 . S
C3171 C3179 1.503 . S
C3172 C3171 1.410 . S
C3172 C3173 1.392 . S
C3172 C3175 1.511 . S
C3173 C3169 1.376 . S
C3173 C3172 1.392 . S
C3173 H3185 0.929 . S
C3174 C3170 1.531 . S
C3174 H3186 0.960 . S
C3174 H3187 0.962 . S
C3174 H3188 0.960 . S
C3175 C3172 1.511 . S
C3175 H3189 0.961 . S
C3175 H3190 0.961 . S
C3175 H3191 0.961 . S
C3176 C3177 1.370 . S
C3176 C3178 1.363 . S
C3176 H3192 0.931 . S
C3177 C3176 1.370 . S
C3177 C3181 1.408 . S
C3178 C3176 1.363 . S
C3178 C3179 1.370 . S
C3178 C3182 1.524 . S
C3179 C3171 1.503 . S
C3179 C3178 1.370 . S
C3179 C3180 1.403 . S
C3180 C3179 1.403 . S
C3180 C3181 1.404 . S
C3180 C3183 1.539 . S
C3181 C3177 1.408 . S
C3181 C3180 1.404 . S
C3181 H3193 0.930 . S
C3182 C3178 1.524 . S
C3182 H3194 0.956 . S
C3182 H3195 0.961 . S
C3182 H3196 0.961 . S
C3183 C3180 1.539 . S
C3183 H3197 0.958 . S
C3183 H3198 0.961 . S
C3183 H3199 0.960 . S
H3184 C3168 0.931 . S
H3185 C3173 0.929 . S
H3186 C3174 0.960 . S
H3187 C3174 0.962 . S
H3188 C3174 0.960 . S
H3189 C3175 0.961 . S
H3190 C3175 0.961 . S
H3191 C3175 0.961 . S
H3192 C3176 0.931 . S
H3193 C3181 0.930 . S
H3194 C3182 0.956 . S
H3195 C3182 0.961 . S
H3196 C3182 0.961 . S
H3197 C3183 0.958 . S
H3198 C3183 0.961 . S
H3199 C3183 0.960 . S
C3200 C3201 1.391 . S
C3200 C3202 1.394 . S
C3200 H3216 0.931 . S
C3201 C3200 1.391 . S
C3201 C3205 1.376 . S
C3202 C3200 1.394 . S
C3202 C3203 1.369 . S
C3202 C3206 1.531 . S
C3203 C3202 1.369 . S
C3203 C3204 1.410 . S
C3203 C3211 1.503 . S
C3204 C3203 1.410 . S
C3204 C3205 1.392 . S
C3204 C3207 1.511 . S
C3205 C3201 1.376 . S
C3205 C3204 1.392 . S
C3205 H3217 0.929 . S
C3206 C3202 1.531 . S
C3206 H3218 0.960 . S
C3206 H3219 0.962 . S
C3206 H3220 0.960 . S
C3207 C3204 1.511 . S
C3207 H3221 0.961 . S
C3207 H3222 0.961 . S
C3207 H3223 0.961 . S
C3208 C3209 1.370 . S
C3208 C3210 1.363 . S
C3208 H3224 0.931 . S
C3209 C3208 1.370 . S
C3209 C3213 1.408 . S
C3210 C3208 1.363 . S
C3210 C3211 1.370 . S
C3210 C3214 1.524 . S
C3211 C3203 1.503 . S
C3211 C3210 1.370 . S
C3211 C3212 1.403 . S
C3212 C3211 1.403 . S
C3212 C3213 1.404 . S
C3212 C3215 1.539 . S
C3213 C3209 1.408 . S
C3213 C3212 1.404 . S
C3213 H3225 0.930 . S
C3214 C3210 1.524 . S
C3214 H3226 0.956 . S
C3214 H3227 0.961 . S
C3214 H3228 0.961 . S
C3215 C3212 1.539 . S
C3215 H3229 0.958 . S
C3215 H3230 0.961 . S
C3215 H3231 0.960 . S
H3216 C3200 0.931 . S
H3217 C3205 0.929 . S
H3218 C3206 0.960 . S
H3219 C3206 0.962 . S
H3220 C3206 0.960 . S
H3221 C3207 0.961 . S
H3222 C3207 0.961 . S
H3223 C3207 0.961 . S
H3224 C3208 0.931 . S
H3225 C3213 0.930 . S
H3226 C3214 0.956 . S
H3227 C3214 0.961 . S
H3228 C3214 0.961 . S
H3229 C3215 0.958 . S
H3230 C3215 0.961 . S
H3231 C3215 0.960 . S
C3232 C3233 1.391 . S
C3232 C3234 1.394 . S
C3232 H3248 0.931 . S
C3233 C3232 1.391 . S
C3233 C3237 1.376 . S
C3234 C3232 1.394 . S
C3234 C3235 1.369 . S
C3234 C3238 1.531 . S
C3235 C3234 1.369 . S
C3235 C3236 1.410 . S
C3235 C3243 1.503 . S
C3236 C3235 1.410 . S
C3236 C3237 1.392 . S
C3236 C3239 1.511 . S
C3237 C3233 1.376 . S
C3237 C3236 1.392 . S
C3237 H3249 0.929 . S
C3238 C3234 1.531 . S
C3238 H3250 0.960 . S
C3238 H3251 0.962 . S
C3238 H3252 0.960 . S
C3239 C3236 1.511 . S
C3239 H3253 0.961 . S
C3239 H3254 0.961 . S
C3239 H3255 0.961 . S
C3240 C3241 1.370 . S
C3240 C3242 1.363 . S
C3240 H3256 0.931 . S
C3241 C3240 1.370 . S
C3241 C3245 1.408 . S
C3242 C3240 1.363 . S
C3242 C3243 1.370 . S
C3242 C3246 1.524 . S
C3243 C3235 1.503 . S
C3243 C3242 1.370 . S
C3243 C3244 1.403 . S
C3244 C3243 1.403 . S
C3244 C3245 1.404 . S
C3244 C3247 1.539 . S
C3245 C3241 1.408 . S
C3245 C3244 1.404 . S
C3245 H3257 0.930 . S
C3246 C3242 1.524 . S
C3246 H3258 0.956 . S
C3246 H3259 0.961 . S
C3246 H3260 0.961 . S
C3247 C3244 1.539 . S
C3247 H3261 0.958 . S
C3247 H3262 0.961 . S
C3247 H3263 0.960 . S
H3248 C3232 0.931 . S
H3249 C3237 0.929 . S
H3250 C3238 0.960 . S
H3251 C3238 0.962 . S
H3252 C3238 0.960 . S
H3253 C3239 0.961 . S
H3254 C3239 0.961 . S
H3255 C3239 0.961 . S
H3256 C3240 0.931 . S
H3257 C3245 0.930 . S
H3258 C3246 0.956 . S
H3259 C3246 0.961 . S
H3260 C3246 0.961 . S
H3261 C3247 0.958 . S
H3262 C3247 0.961 . S
H3263 C3247 0.960 . S
C3264 C3265 1.391 . S
C3264 C3266 1.394 . S
C3264 H3280 0.931 . S
C3265 C3264 1.391 . S
C3265 C3269 1.376 . S
C3266 C3264 1.394 . S
C3266 C3267 1.369 . S
C3266 C3270 1.531 . S
C3267 C3266 1.369 . S
C3267 C3268 1.410 . S
C3267 C3275 1.503 . S
C3268 C3267 1.410 . S
C3268 C3269 1.392 . S
C3268 C3271 1.511 . S
C3269 C3265 1.376 . S
C3269 C3268 1.392 . S
C3269 H3281 0.929 . S
C3270 C3266 1.531 . S
C3270 H3282 0.960 . S
C3270 H3283 0.962 . S
C3270 H3284 0.960 . S
C3271 C3268 1.511 . S
C3271 H3285 0.961 . S
C3271 H3286 0.961 . S
C3271 H3287 0.961 . S
C3272 C3273 1.370 . S
C3272 C3274 1.363 . S
C3272 H3288 0.931 . S
C3273 C3272 1.370 . S
C3273 C3277 1.408 . S
C3274 C3272 1.363 . S
C3274 C3275 1.370 . S
C3274 C3278 1.524 . S
C3275 C3267 1.503 . S
C3275 C3274 1.370 . S
C3275 C3276 1.403 . S
C3276 C3275 1.403 . S
C3276 C3277 1.404 . S
C3276 C3279 1.539 . S
C3277 C3273 1.408 . S
C3277 C3276 1.404 . S
C3277 H3289 0.930 . S
C3278 C3274 1.524 . S
C3278 H3290 0.956 . S
C3278 H3291 0.961 . S
C3278 H3292 0.961 . S
C3279 C3276 1.539 . S
C3279 H3293 0.958 . S
C3279 H3294 0.961 . S
C3279 H3295 0.960 . S
H3280 C3264 0.931 . S
H3281 C3269 0.929 . S
H3282 C3270 0.960 . S
H3283 C3270 0.962 . S
H3284 C3270 0.960 . S
H3285 C3271 0.961 . S
H3286 C3271 0.961 . S
H3287 C3271 0.961 . S
H3288 C3272 0.931 . S
H3289 C3277 0.930 . S
H3290 C3278 0.956 . S
H3291 C3278 0.961 . S
H3292 C3278 0.961 . S
H3293 C3279 0.958 . S
H3294 C3279 0.961 . S
H3295 C3279 0.960 . S
C3296 C3297 1.391 . S
C3296 C3298 1.394 . S
C3296 H3312 0.931 . S
C3297 C3296 1.391 . S
C3297 C3301 1.376 . S
C3298 C3296 1.394 . S
C3298 C3299 1.369 . S
C3298 C3302 1.531 . S
C3299 C3298 1.369 . S
C3299 C3300 1.410 . S
C3299 C3307 1.503 . S
C3300 C3299 1.410 . S
C3300 C3301 1.392 . S
C3300 C3303 1.511 . S
C3301 C3297 1.376 . S
C3301 C3300 1.392 . S
C3301 H3313 0.929 . S
C3302 C3298 1.531 . S
C3302 H3314 0.960 . S
C3302 H3315 0.962 . S
C3302 H3316 0.960 . S
C3303 C3300 1.511 . S
C3303 H3317 0.961 . S
C3303 H3318 0.961 . S
C3303 H3319 0.961 . S
C3304 C3305 1.370 . S
C3304 C3306 1.363 . S
C3304 H3320 0.931 . S
C3305 C3304 1.370 . S
C3305 C3309 1.408 . S
C3306 C3304 1.363 . S
C3306 C3307 1.370 . S
C3306 C3310 1.524 . S
C3307 C3299 1.503 . S
C3307 C3306 1.370 . S
C3307 C3308 1.403 . S
C3308 C3307 1.403 . S
C3308 C3309 1.404 . S
C3308 C3311 1.539 . S
C3309 C3305 1.408 . S
C3309 C3308 1.404 . S
C3309 H3321 0.930 . S
C3310 C3306 1.524 . S
C3310 H3322 0.956 . S
C3310 H3323 0.961 . S
C3310 H3324 0.961 . S
C3311 C3308 1.539 . S
C3311 H3325 0.958 . S
C3311 H3326 0.961 . S
C3311 H3327 0.960 . S
H3312 C3296 0.931 . S
H3313 C3301 0.929 . S
H3314 C3302 0.960 . S
H3315 C3302 0.962 . S
H3316 C3302 0.960 . S
H3317 C3303 0.961 . S
H3318 C3303 0.961 . S
H3319 C3303 0.961 . S
H3320 C3304 0.931 . S
H3321 C3309 0.930 . S
H3322 C3310 0.956 . S
H3323 C3310 0.961 . S
H3324 C3310 0.961 . S
H3325 C3311 0.958 . S
H3326 C3311 0.961 . S
H3327 C3311 0.960 . S
C3328 C3329 1.391 . S
C3328 C3330 1.394 . S
C3328 H3344 0.931 . S
C3329 C3328 1.391 . S
C3329 C3333 1.376 . S
C3330 C3328 1.394 . S
C3330 C3331 1.369 . S
C3330 C3334 1.531 . S
C3331 C3330 1.369 . S
C3331 C3332 1.410 . S
C3331 C3339 1.503 . S
C3332 C3331 1.410 . S
C3332 C3333 1.392 . S
C3332 C3335 1.511 . S
C3333 C3329 1.376 . S
C3333 C3332 1.392 . S
C3333 H3345 0.929 . S
C3334 C3330 1.531 . S
C3334 H3346 0.960 . S
C3334 H3347 0.962 . S
C3334 H3348 0.960 . S
C3335 C3332 1.511 . S
C3335 H3349 0.961 . S
C3335 H3350 0.961 . S
C3335 H3351 0.961 . S
C3336 C3337 1.370 . S
C3336 C3338 1.363 . S
C3336 H3352 0.931 . S
C3337 C3336 1.370 . S
C3337 C3341 1.408 . S
C3338 C3336 1.363 . S
C3338 C3339 1.370 . S
C3338 C3342 1.524 . S
C3339 C3331 1.503 . S
C3339 C3338 1.370 . S
C3339 C3340 1.403 . S
C3340 C3339 1.403 . S
C3340 C3341 1.404 . S
C3340 C3343 1.539 . S
C3341 C3337 1.408 . S
C3341 C3340 1.404 . S
C3341 H3353 0.930 . S
C3342 C3338 1.524 . S
C3342 H3354 0.956 . S
C3342 H3355 0.961 . S
C3342 H3356 0.961 . S
C3343 C3340 1.539 . S
C3343 H3357 0.958 . S
C3343 H3358 0.961 . S
C3343 H3359 0.960 . S
H3344 C3328 0.931 . S
H3345 C3333 0.929 . S
H3346 C3334 0.960 . S
H3347 C3334 0.962 . S
H3348 C3334 0.960 . S
H3349 C3335 0.961 . S
H3350 C3335 0.961 . S
H3351 C3335 0.961 . S
H3352 C3336 0.931 . S
H3353 C3341 0.930 . S
H3354 C3342 0.956 . S
H3355 C3342 0.961 . S
H3356 C3342 0.961 . S
H3357 C3343 0.958 . S
H3358 C3343 0.961 . S
H3359 C3343 0.960 . S
C3360 C3361 1.391 . S
C3360 C3362 1.394 . S
C3360 H3376 0.931 . S
C3361 C3360 1.391 . S
C3361 C3365 1.376 . S
C3362 C3360 1.394 . S
C3362 C3363 1.369 . S
C3362 C3366 1.531 . S
C3363 C3362 1.369 . S
C3363 C3364 1.410 . S
C3363 C3371 1.503 . S
C3364 C3363 1.410 . S
C3364 C3365 1.392 . S
C3364 C3367 1.511 . S
C3365 C3361 1.376 . S
C3365 C3364 1.392 . S
C3365 H3377 0.929 . S
C3366 C3362 1.531 . S
C3366 H3378 0.960 . S
C3366 H3379 0.962 . S
C3366 H3380 0.960 . S
C3367 C3364 1.511 . S
C3367 H3381 0.961 . S
C3367 H3382 0.961 . S
C3367 H3383 0.961 . S
C3368 C3369 1.370 . S
C3368 C3370 1.363 . S
C3368 H3384 0.931 . S
C3369 C3368 1.370 . S
C3369 C3373 1.408 . S
C3370 C3368 1.363 . S
C3370 C3371 1.370 . S
C3370 C3374 1.524 . S
C3371 C3363 1.503 . S
C3371 C3370 1.370 . S
C3371 C3372 1.403 . S
C3372 C3371 1.403 . S
C3372 C3373 1.404 . S
C3372 C3375 1.539 . S
C3373 C3369 1.408 . S
C3373 C3372 1.404 . S
C3373 H3385 0.930 . S
C3374 C3370 1.524 . S
C3374 H3386 0.956 . S
C3374 H3387 0.961 . S
C3374 H3388 0.961 . S
C3375 C3372 1.539 . S
C3375 H3389 0.958 . S
C3375 H3390 0.961 . S
C3375 H3391 0.960 . S
H3376 C3360 0.931 . S
H3377 C3365 0.929 . S
H3378 C3366 0.960 . S
H3379 C3366 0.962 . S
H3380 C3366 0.960 . S
H3381 C3367 0.961 . S
H3382 C3367 0.961 . S
H3383 C3367 0.961 . S
H3384 C3368 0.931 . S
H3385 C3373 0.930 . S
H3386 C3374 0.956 . S
H3387 C3374 0.961 . S
H3388 C3374 0.961 . S
H3389 C3375 0.958 . S
H3390 C3375 0.961 . S
H3391 C3375 0.960 . S
C3392 C3393 1.391 . S
C3392 C3394 1.394 . S
C3392 H3408 0.931 . S
C3393 C3392 1.391 . S
C3393 C3397 1.376 . S
C3394 C3392 1.394 . S
C3394 C3395 1.369 . S
C3394 C3398 1.531 . S
C3395 C3394 1.369 . S
C3395 C3396 1.410 . S
C3395 C3403 1.503 . S
C3396 C3395 1.410 . S
C3396 C3397 1.392 . S
C3396 C3399 1.511 . S
C3397 C3393 1.376 . S
C3397 C3396 1.392 . S
C3397 H3409 0.929 . S
C3398 C3394 1.531 . S
C3398 H3410 0.960 . S
C3398 H3411 0.962 . S
C3398 H3412 0.960 . S
C3399 C3396 1.511 . S
C3399 H3413 0.961 . S
C3399 H3414 0.961 . S
C3399 H3415 0.961 . S
C3400 C3401 1.370 . S
C3400 C3402 1.363 . S
C3400 H3416 0.931 . S
C3401 C3400 1.370 . S
C3401 C3405 1.408 . S
C3402 C3400 1.363 . S
C3402 C3403 1.370 . S
C3402 C3406 1.524 . S
C3403 C3395 1.503 . S
C3403 C3402 1.370 . S
C3403 C3404 1.403 . S
C3404 C3403 1.403 . S
C3404 C3405 1.404 . S
C3404 C3407 1.539 . S
C3405 C3401 1.408 . S
C3405 C3404 1.404 . S
C3405 H3417 0.930 . S
C3406 C3402 1.524 . S
C3406 H3418 0.956 . S
C3406 H3419 0.961 . S
C3406 H3420 0.961 . S
C3407 C3404 1.539 . S
C3407 H3421 0.958 . S
C3407 H3422 0.961 . S
C3407 H3423 0.960 . S
H3408 C3392 0.931 . S
H3409 C3397 0.929 . S
H3410 C3398 0.960 . S
H3411 C3398 0.962 . S
H3412 C3398 0.960 . S
H3413 C3399 0.961 . S
H3414 C3399 0.961 . S
H3415 C3399 0.961 . S
H3416 C3400 0.931 . S
H3417 C3405 0.930 . S
H3418 C3406 0.956 . S
H3419 C3406 0.961 . S
H3420 C3406 0.961 . S
H3421 C3407 0.958 . S
H3422 C3407 0.961 . S
H3423 C3407 0.960 . S
C3424 C3425 1.391 . S
C3424 C3426 1.394 . S
C3424 H3440 0.931 . S
C3425 C3424 1.391 . S
C3425 C3429 1.376 . S
C3426 C3424 1.394 . S
C3426 C3427 1.369 . S
C3426 C3430 1.531 . S
C3427 C3426 1.369 . S
C3427 C3428 1.410 . S
C3427 C3435 1.503 . S
C3428 C3427 1.410 . S
C3428 C3429 1.392 . S
C3428 C3431 1.511 1_556 S
C3429 C3425 1.376 . S
C3429 C3428 1.392 . S
C3429 H3441 0.929 . S
C3430 C3426 1.531 . S
C3430 H3442 0.960 . S
C3430 H3443 0.962 . S
C3430 H3444 0.960 . S
C3431 C3428 1.511 1_554 S
C3431 H3445 0.961 . S
C3431 H3446 0.961 . S
C3431 H3447 0.961 1_554 S
C3432 C3433 1.370 . S
C3432 C3434 1.363 . S
C3432 H3448 0.931 1_556 S
C3433 C3432 1.370 . S
C3433 C3437 1.408 . S
C3434 C3432 1.363 . S
C3434 C3435 1.370 . S
C3434 C3438 1.524 1_556 S
C3435 C3427 1.503 . S
C3435 C3434 1.370 . S
C3435 C3436 1.403 . S
C3436 C3435 1.403 . S
C3436 C3437 1.404 . S
C3436 C3439 1.539 . S
C3437 C3433 1.408 . S
C3437 C3436 1.404 . S
C3437 H3449 0.930 . S
C3438 C3434 1.524 1_554 S
C3438 H3450 0.975 . S
C3438 H3451 0.961 . S
C3438 H3452 0.961 . S
C3439 C3436 1.539 . S
C3439 H3453 0.958 . S
C3439 H3454 0.961 . S
C3439 H3455 0.960 . S
H3440 C3424 0.931 . S
H3441 C3429 0.929 . S
H3442 C3430 0.960 . S
H3443 C3430 0.962 . S
H3444 C3430 0.960 . S
H3445 C3431 0.961 . S
H3446 C3431 0.961 . S
H3447 C3431 0.961 1_556 S
H3448 C3432 0.931 1_554 S
H3449 C3437 0.930 . S
H3450 C3438 0.975 . S
H3451 C3438 0.961 . S
H3452 C3438 0.961 . S
H3453 C3439 0.958 . S
H3454 C3439 0.961 . S
H3455 C3439 0.960 . S
C3456 C3457 1.391 . S
C3456 C3458 1.394 . S
C3456 H3472 0.931 . S
C3457 C3456 1.391 . S
C3457 C3461 1.376 . S
C3458 C3456 1.394 . S
C3458 C3459 1.369 . S
C3458 C3462 1.531 . S
C3459 C3458 1.369 . S
C3459 C3460 1.410 . S
C3459 C3467 1.503 . S
C3460 C3459 1.410 . S
C3460 C3461 1.392 . S
C3460 C3463 1.511 . S
C3461 C3457 1.376 . S
C3461 C3460 1.392 . S
C3461 H3473 0.929 . S
C3462 C3458 1.531 . S
C3462 H3474 0.960 . S
C3462 H3475 0.962 . S
C3462 H3476 0.960 . S
C3463 C3460 1.511 . S
C3463 H3477 0.961 . S
C3463 H3478 0.961 . S
C3463 H3479 0.961 . S
C3464 C3465 1.370 . S
C3464 C3466 1.363 . S
C3464 H3480 0.931 . S
C3465 C3464 1.370 . S
C3465 C3469 1.408 . S
C3466 C3464 1.363 . S
C3466 C3467 1.370 . S
C3466 C3470 1.524 . S
C3467 C3459 1.503 . S
C3467 C3466 1.370 . S
C3467 C3468 1.403 . S
C3468 C3467 1.403 . S
C3468 C3469 1.404 . S
C3468 C3471 1.539 . S
C3469 C3465 1.408 . S
C3469 C3468 1.404 . S
C3469 H3481 0.930 . S
C3470 C3466 1.524 . S
C3470 H3482 0.956 . S
C3470 H3483 0.961 . S
C3470 H3484 0.961 . S
C3471 C3468 1.539 . S
C3471 H3485 0.958 . S
C3471 H3486 0.961 . S
C3471 H3487 0.960 . S
H3472 C3456 0.931 . S
H3473 C3461 0.929 . S
H3474 C3462 0.960 . S
H3475 C3462 0.962 . S
H3476 C3462 0.960 . S
H3477 C3463 0.961 . S
H3478 C3463 0.961 . S
H3479 C3463 0.961 . S
H3480 C3464 0.931 . S
H3481 C3469 0.930 . S
H3482 C3470 0.956 . S
H3483 C3470 0.961 . S
H3484 C3470 0.961 . S
H3485 C3471 0.958 . S
H3486 C3471 0.961 . S
H3487 C3471 0.960 . S
C3488 C3489 1.391 . S
C3488 C3490 1.394 . S
C3488 H3504 0.931 . S
C3489 C3488 1.391 . S
C3489 C3493 1.376 . S
C3490 C3488 1.394 . S
C3490 C3491 1.369 . S
C3490 C3494 1.558 . S
C3491 C3490 1.369 . S
C3491 C3492 1.410 . S
C3491 C3499 1.503 . S
C3492 C3491 1.410 . S
C3492 C3493 1.392 . S
C3492 C3495 1.511 . S
C3493 C3489 1.376 . S
C3493 C3492 1.392 . S
C3493 H3505 0.929 . S
C3494 C3490 1.558 . S
C3494 H3506 0.982 . S
C3494 H3507 0.915 1_554 S
C3494 H3508 0.960 . S
C3495 C3492 1.511 . S
C3495 H3509 0.961 . S
C3495 H3510 0.961 . S
C3495 H3511 0.961 . S
C3496 C3497 1.370 . S
C3496 C3498 1.363 . S
C3496 H3512 0.931 1_554 S
C3497 C3496 1.370 . S
C3497 C3501 1.408 . S
C3498 C3496 1.363 . S
C3498 C3499 1.370 . S
C3498 C3502 1.524 1_554 S
C3499 C3491 1.503 . S
C3499 C3498 1.370 . S
C3499 C3500 1.403 . S
C3500 C3499 1.403 . S
C3500 C3501 1.404 . S
C3500 C3503 1.539 . S
C3501 C3497 1.408 . S
C3501 C3500 1.404 . S
C3501 H3513 0.930 . S
C3502 C3498 1.524 1_556 S
C3502 H3514 0.956 . S
C3502 H3515 0.961 . S
C3502 H3516 0.961 . S
C3503 C3500 1.539 . S
C3503 H3517 0.958 . S
C3503 H3518 0.961 . S
C3503 H3519 0.960 . S
H3504 C3488 0.931 . S
H3505 C3493 0.929 . S
H3506 C3494 0.982 . S
H3507 C3494 0.915 1_556 S
H3508 C3494 0.960 . S
H3509 C3495 0.961 . S
H3510 C3495 0.961 . S
H3511 C3495 0.961 . S
H3512 C3496 0.931 1_556 S
H3513 C3501 0.930 . S
H3514 C3502 0.956 . S
H3515 C3502 0.961 . S
H3516 C3502 0.961 . S
H3517 C3503 0.958 . S
H3518 C3503 0.961 . S
H3519 C3503 0.960 . S
C3520 C3521 1.391 . S
C3520 C3522 1.394 . S
C3520 H3536 0.931 . S
C3521 C3520 1.391 . S
C3521 C3525 1.376 . S
C3522 C3520 1.394 . S
C3522 C3523 1.369 . S
C3522 C3526 1.531 . S
C3523 C3522 1.369 . S
C3523 C3524 1.410 . S
C3523 C3531 1.503 . S
C3524 C3523 1.410 . S
C3524 C3525 1.392 . S
C3524 C3527 1.511 . S
C3525 C3521 1.376 . S
C3525 C3524 1.392 . S
C3525 H3537 0.929 . S
C3526 C3522 1.531 . S
C3526 H3538 0.960 . S
C3526 H3539 0.962 1_554 S
C3526 H3540 0.960 . S
C3527 C3524 1.511 . S
C3527 H3541 0.961 . S
C3527 H3542 0.961 . S
C3527 H3543 0.961 . S
C3528 C3529 1.406 . S
C3528 C3530 1.372 . S
C3528 H3544 0.888 1_554 S
C3529 C3528 1.406 . S
C3529 C3533 1.408 . S
C3530 C3528 1.372 . S
C3530 C3531 1.370 . S
C3530 C3534 1.524 1_554 S
C3531 C3523 1.503 . S
C3531 C3530 1.370 . S
C3531 C3532 1.403 . S
C3532 C3531 1.403 . S
C3532 C3533 1.404 . S
C3532 C3535 1.539 . S
C3533 C3529 1.408 . S
C3533 C3532 1.404 . S
C3533 H3545 0.930 . S
C3534 C3530 1.524 1_556 S
C3534 H3546 0.956 . S
C3534 H3547 0.961 . S
C3534 H3548 0.961 . S
C3535 C3532 1.539 . S
C3535 H3549 0.958 . S
C3535 H3550 0.961 . S
C3535 H3551 0.960 . S
H3536 C3520 0.931 . S
H3537 C3525 0.929 . S
H3538 C3526 0.960 . S
H3539 C3526 0.962 1_556 S
H3540 C3526 0.960 . S
H3541 C3527 0.961 . S
H3542 C3527 0.961 . S
H3543 C3527 0.961 . S
H3544 C3528 0.888 1_556 S
H3545 C3533 0.930 . S
H3546 C3534 0.956 . S
H3547 C3534 0.961 . S
H3548 C3534 0.961 . S
H3549 C3535 0.958 . S
H3550 C3535 0.961 . S
H3551 C3535 0.960 . S
C2025 C1009 1.509 . S
C2017 C331 1.509 . S
C2057 C1068 1.521 . S
C2049 C380 1.510 . S
C2081 C421 1.501 . S
C2089 C1185 1.515 . S
C2121 C1253 1.522 . S
C2113 C260 1.464 . S
C2153 C1332 1.510 . S
C2145 C620 1.473 . S
C2185 C1457 1.519 . S
C2177 C740 1.516 . S
C2209 C680 1.472 . S
C2217 C1517 1.511 . S
C2249 C1625 1.520 . S
C2241 C571 1.484 . S
C2273 C691 1.485 . S
C2281 C1721 1.516 . S
C2313 C1781 1.522 . S
C2305 C541 1.502 . S
C2337 C601 1.506 . S
C2345 C1684 1.504 . S
C2377 C1801 1.522 . S
C2369 C721 1.500 . S
C2401 C451 1.477 . S
C2409 C1869 1.514 . S
C2433 C241 1.500 . S
C2441 C1860 1.519 . S
C2465 C320 1.503 . S
C2473 C1889 1.505 . S
C2497 C391 1.517 . S
C2505 C1897 1.523 . S
C2529 C211 1.483 . S
C2537 C1281 1.514 . S
C2561 C841 1.486 . S
C2569 C1244 1.505 . S
C2601 C980 1.520 . S
C2593 C901 1.482 . S
C2633 C1077 1.511 . S
C2625 C500 1.491 . S
C2657 C271 1.468 . S
C2665 C1341 1.522 . S
C2697 C1633 1.508 . S
C2689 C661 1.492 . S
C2729 C1361 1.520 . S
C2721 C560 1.484 . S
C2761 C1545 1.520 . S
C2753 C751 1.517 . S
C2793 C1537 1.508 . S
C2785 C871 1.470 . S
C2817 C920 1.516 . S
C2825 C1605 1.521 . S
C2849 C481 1.495 . S
C2857 C1369 1.508 . S
C2889 C1420 1.522 . S
C2881 C800 1.469 . S
C2913 C200 1.472 . S
C2921 C1165 1.503 . S
C2953 C1273 1.520 . S
C2945 C20 1.518 . S
C2985 C989 1.511 . S
C2977 C80 1.447 . S
C3017 C1105 1.520 . S
C3009 C151 1.481 . S
C3041 C91 1.449 . S
C3049 C1809 1.511 . S
C3073 C121 1.503 . S
C3081 C1693 1.521 . S
C3105 C181 1.470 . S
C3113 C1772 1.508 . S
C3137 C1 1.483 . S
C3145 C1713 1.520 . S
C3177 C1957 1.511 . S
C3169 C511 1.502 . S
C3209 C1948 1.519 . S
C3201 C781 1.504 . S
C3241 C1977 1.511 . S
C3233 C860 1.486 . S
C3265 C931 1.502 . S
C3273 C1985 1.520 . S
C3297 C631 1.475 . S
C3305 C1449 1.510 . S
C3337 C1429 1.510 . S
C3329 C301 1.506 . S
C3369 C1508 1.520 . S
C3361 C361 1.494 . S
C3401 C1596 1.511 . S
C3393 C440 1.487 . S
C3425 C811 1.503 . S
C3433 C1156 1.520 . S
C3465 C1097 1.508 . S
C3457 C61 1.491 . S
C3489 C140 1.498 . S
C3497 C1193 1.521 . S
C3529 C1017 1.521 . S
C3521 C31 1.510 . S
