# Generated by pormake.
# Topology anh, (6,3)-cn, num edge types: 1
# Building blocks:
#     Node 0, Type 0, BuildingBlock: MIFKUJ_clean_sbu_0, # of connection points: 6
#     Node 1, Type 0, BuildingBlock: MIFKUJ_clean_sbu_0, # of connection points: 6
#     Node 2, Type 0, BuildingBlock: MIFKUJ_clean_sbu_0, # of connection points: 6
#     Node 3, Type 1, BuildingBlock: CUQRIR_clean_linker_1, # of connection points: 3
#     Node 4, Type 1, BuildingBlock: CUQRIR_clean_linker_1, # of connection points: 3
#     Node 5, Type 1, BuildingBlock: CUQRIR_clean_linker_1, # of connection points: 3
#     Node 6, Type 1, BuildingBlock: CUQRIR_clean_linker_1, # of connection points: 3
#     Node 7, Type 1, BuildingBlock: CUQRIR_clean_linker_1, # of connection points: 3
#     Node 8, Type 1, BuildingBlock: CUQRIR_clean_linker_1, # of connection points: 3
#     Edge 9, Type (0, 1), BuildingBlock: EZIPEK_clean_linker_0, # of connection points: 2
#     Edge 10, Type (0, 1), BuildingBlock: EZIPEK_clean_linker_0, # of connection points: 2
#     Edge 11, Type (0, 1), BuildingBlock: EZIPEK_clean_linker_0, # of connection points: 2
#     Edge 12, Type (0, 1), BuildingBlock: EZIPEK_clean_linker_0, # of connection points: 2
#     Edge 13, Type (0, 1), BuildingBlock: EZIPEK_clean_linker_0, # of connection points: 2
#     Edge 14, Type (0, 1), BuildingBlock: EZIPEK_clean_linker_0, # of connection points: 2
#     Edge 15, Type (0, 1), BuildingBlock: EZIPEK_clean_linker_0, # of connection points: 2
#     Edge 16, Type (0, 1), BuildingBlock: EZIPEK_clean_linker_0, # of connection points: 2
#     Edge 17, Type (0, 1), BuildingBlock: EZIPEK_clean_linker_0, # of connection points: 2
#     Edge 18, Type (0, 1), BuildingBlock: EZIPEK_clean_linker_0, # of connection points: 2
#     Edge 19, Type (0, 1), BuildingBlock: EZIPEK_clean_linker_0, # of connection points: 2
#     Edge 20, Type (0, 1), BuildingBlock: EZIPEK_clean_linker_0, # of connection points: 2
#     Edge 21, Type (0, 1), BuildingBlock: EZIPEK_clean_linker_0, # of connection points: 2
#     Edge 22, Type (0, 1), BuildingBlock: EZIPEK_clean_linker_0, # of connection points: 2
#     Edge 23, Type (0, 1), BuildingBlock: EZIPEK_clean_linker_0, # of connection points: 2
#     Edge 24, Type (0, 1), BuildingBlock: EZIPEK_clean_linker_0, # of connection points: 2
#     Edge 25, Type (0, 1), BuildingBlock: EZIPEK_clean_linker_0, # of connection points: 2
#     Edge 26, Type (0, 1), BuildingBlock: EZIPEK_clean_linker_0, # of connection points: 2
# Relax obj value: 0.116
# Max RMSD: 0.218
# Mean RMSD: 0.155
data_MOF--net-anh--node1-MIFKUJ_clean_sbu_0--node2-CUQRIR_clean_linker_1--edge1-EZIPEK_clean_linker_0
_symmetry_space_group_name_H-M    P1
_symmetry_Int_Tables_number       1
_symmetry_cell_setting            triclinic
loop_
_symmetry_equiv_pos_as_xyz
'x, y, z'
_cell_length_a     22.395844
_cell_length_b     21.885324
_cell_length_c     30.695329
_cell_angle_alpha  88.356561
_cell_angle_beta   90.259355
_cell_angle_gamma 120.46641
loop_
_atom_site_label
_atom_site_type_symbol
_atom_site_fract_x
_atom_site_fract_y
_atom_site_fract_z
_atom_type_partial_charge
Zn0 Zn 0.09792 0.55088 0.16725 0.0
Zn1 Zn 0.87203 0.44147 0.14977 0.0
C2 C 0.19956 0.51862 0.19664 0.0
O3 O 0.19023 0.54427 0.23248 0.0
C4 C 0.78146 0.49318 0.11497 0.0
O5 O 0.80836 0.49303 0.07706 0.0
O6 O 0.16391 0.65576 0.15977 0.0
O7 O 0.01915 0.51091 0.12644 0.0
O8 O 0.9231 0.46392 0.09045 0.0
C9 C 0.20168 0.68182 0.12573 0.0
O10 O 0.18871 0.64227 0.09166 0.0
O11 O 0.16022 0.50893 0.16428 0.0
C12 C 0.76102 0.31615 0.18842 0.0
O13 O 0.76052 0.36463 0.2124 0.0
O14 O 0.80712 0.33514 0.15867 0.0
O15 O 0.94166 0.47712 0.20107 0.0
O16 O 0.04997 0.53001 0.22539 0.0
O17 O 0.80477 0.47959 0.14965 0.0
C18 C -0.01102 0.4966 0.09013 0.0
C19 C -0.01523 0.49919 0.23247 0.0
Zn20 Zn 0.62787 0.1169 0.49389 0.0
Zn21 Zn 0.51989 0.89599 0.49745 0.0
C22 C 0.76582 0.22434 0.51728 0.0
O23 O 0.74046 0.21067 0.55718 0.0
C24 C 0.39029 0.78644 0.46753 0.0
O25 O 0.42734 0.80058 0.4317 0.0
O26 O 0.59124 0.18262 0.49637 0.0
O27 O 0.592 0.06651 0.43842 0.0
O28 O 0.53296 0.94875 0.44057 0.0
C29 C 0.59423 0.21848 0.46234 0.0
O30 O 0.61609 0.20789 0.42526 0.0
O31 O 0.72956 0.18546 0.48653 0.0
C32 C 0.55451 0.79652 0.5252 0.0
O33 O 0.51661 0.79523 0.55812 0.0
O34 O 0.56857 0.84105 0.49393 0.0
O35 O 0.54515 0.94618 0.55393 0.0
O36 O 0.60357 0.0642 0.55183 0.0
O37 O 0.41792 0.82196 0.5013 0.0
C38 C 0.5582 0.00777 0.41987 0.0
C39 C 0.57436 0.00507 0.57278 0.0
Zn40 Zn 0.61359 0.53475 0.82502 0.0
Zn41 Zn 0.47692 0.60347 0.8267 0.0
C42 C 0.57918 0.38774 0.81092 0.0
O43 O 0.63862 0.41892 0.78988 0.0
C44 C 0.49014 0.73384 0.79417 0.0
O45 O 0.43801 0.68859 0.77065 0.0
O46 O 0.71524 0.56128 0.82896 0.0
O47 O 0.59899 0.59004 0.77432 0.0
O48 O 0.48904 0.56141 0.77047 0.0
C49 C 0.75842 0.57146 0.79877 0.0
O50 O 0.74115 0.5711 0.75785 0.0
O51 O 0.55482 0.42492 0.82518 0.0
C52 C 0.34455 0.55956 0.87257 0.0
O53 O 0.37653 0.55603 0.90768 0.0
O54 O 0.37475 0.57266 0.8355 0.0
O55 O 0.51066 0.58262 0.88369 0.0
O56 O 0.59337 0.55446 0.8839 0.0
O57 O 0.52036 0.71085 0.81932 0.0
C58 C 0.54346 0.56807 0.75257 0.0
C59 C 0.5525 0.5686 0.90358 0.0
C60 C 0.49094 0.99474 0.1677 0.0
N61 N 0.52831 0.03062 0.20266 0.0
N62 N 0.43305 0.93412 0.18069 0.0
C63 C 0.50982 0.01956 0.12103 0.0
C64 C 0.43638 0.93367 0.22459 0.0
N65 N 0.49444 0.99173 0.23807 0.0
C66 C 0.38227 0.87693 0.25444 0.0
H67 H 0.48395 0.04943 0.1109 0.0
H68 H 0.49162 0.9737 0.0995 0.0
H69 H 0.56665 0.05504 0.11703 0.0
H70 H 0.34898 0.82726 0.23705 0.0
H71 H 0.3491 0.89651 0.2675 0.0
H72 H 0.40655 0.86528 0.28254 0.0
C73 C 0.57451 0.50687 0.50349 0.0
N74 N 0.56679 0.54352 0.53558 0.0
N75 N 0.55848 0.44169 0.51851 0.0
C76 C 0.59772 0.53453 0.45756 0.0
C77 C 0.54077 0.43973 0.56075 0.0
N78 N 0.5468 0.50223 0.57157 0.0
C79 C 0.52154 0.37797 0.59188 0.0
H80 H 0.55144 0.51525 0.43665 0.0
H81 H 0.63029 0.51444 0.44431 0.0
H82 H 0.62705 0.59337 0.45594 0.0
H83 H 0.56902 0.37678 0.60082 0.0
H84 H 0.48605 0.32741 0.576 0.0
H85 H 0.49629 0.38174 0.62187 0.0
C86 C 0.0628 0.58349 0.84374 0.0
N87 N 0.09373 0.57289 0.87907 0.0
N88 N 0.00839 0.58996 0.85613 0.0
C89 C 0.08373 0.58528 0.79709 0.0
C90 C 0.00768 0.5842 0.90005 0.0
N91 N 0.05958 0.57456 0.91426 0.0
C92 C 0.95248 0.58202 0.92922 0.0
H93 H 0.13885 0.60005 0.79431 0.0
H94 H 0.07497 0.62333 0.77745 0.0
H95 H 0.05089 0.53203 0.78344 0.0
H96 H 0.92536 0.53031 0.94743 0.0
H97 H 0.91407 0.58991 0.91085 0.0
H98 H 0.97678 0.62423 0.95344 0.0
C99 C 0.06334 0.51447 0.46923 0.0
N100 N 0.0048 0.47198 0.44722 0.0
N101 N 0.11405 0.56008 0.4416 0.0
C102 C 0.07113 0.50995 0.51772 0.0
C103 C 0.08471 0.54372 0.40188 0.0
N104 N 0.01743 0.49033 0.40485 0.0
C105 C 0.12228 0.58089 0.36016 0.0
H106 H 0.02686 0.50854 0.53477 0.0
H107 H 0.1203 0.55519 0.52926 0.0
H108 H 0.06999 0.45976 0.52629 0.0
H109 H 0.17832 0.59931 0.36275 0.0
H110 H 0.11702 0.62815 0.35403 0.0
H111 H 0.10042 0.54537 0.33216 0.0
C112 C 0.53325 0.06049 0.81893 0.0
N113 N 0.54089 0.01993 0.7892 0.0
N114 N 0.54737 0.12352 0.80031 0.0
C115 C 0.50837 0.03746 0.86514 0.0
C116 C 0.56504 0.12048 0.75874 0.0
N117 N 0.56133 0.058 0.75195 0.0
C118 C 0.58027 0.17633 0.72374 0.0
H119 H 0.4529 0.02156 0.86742 0.0
H120 H 0.53698 0.08205 0.88735 0.0
H121 H 0.51428 0.99202 0.87595 0.0
H122 H 0.60267 0.22958 0.73786 0.0
H123 H 0.53118 0.16358 0.70736 0.0
H124 H 0.61651 0.17765 0.69877 0.0
C125 C 0.49223 0.5042 0.1565 0.0
N126 N 0.53365 0.51316 0.12177 0.0
N127 N 0.44063 0.51621 0.14439 0.0
C128 C 0.50129 0.48231 0.20163 0.0
C129 C 0.45179 0.53261 0.10143 0.0
N130 N 0.50724 0.52958 0.08742 0.0
C131 C 0.40615 0.54828 0.0727 0.0
H132 H 0.51275 0.43866 0.20004 0.0
H133 H 0.45443 0.46518 0.22212 0.0
H134 H 0.54616 0.52783 0.21693 0.0
H135 H 0.38667 0.5782 0.09052 0.0
H136 H 0.36073 0.49739 0.06299 0.0
H137 H 0.43421 0.57908 0.04281 0.0
C138 C 0.25818 0.44902 0.18176 0.0
C139 C 0.26338 0.51476 0.19087 0.0
C140 C 0.39019 0.57424 0.1848 0.0
C141 C 0.38381 0.51124 0.1692 0.0
N142 N 0.31432 0.38867 0.15211 0.0
N143 N 0.3341 0.6419 0.19812 0.0
C144 C 0.31848 0.44822 0.16818 0.0
C145 C 0.32949 0.57786 0.19247 0.0
N146 N 0.19585 0.38755 0.18673 0.0
N147 N 0.45491 0.63119 0.19057 0.0
H148 H 0.29115 0.64793 0.20168 0.0
H149 H 0.3802 0.69034 0.19582 0.0
H150 H 0.49962 0.6293 0.18399 0.0
H151 H 0.46453 0.67763 0.20516 0.0
H152 H 0.18963 0.33729 0.18437 0.0
H153 H 0.15093 0.38665 0.19673 0.0
H154 H 0.26785 0.34279 0.14545 0.0
H155 H 0.35832 0.38659 0.14363 0.0
C156 C 0.88648 0.28347 0.48664 0.0
C157 C 0.83253 0.28951 0.50625 0.0
C158 C 0.89446 0.41734 0.48842 0.0
C159 C 0.94596 0.41022 0.4667 0.0
N160 N 0.00251 0.34343 0.45519 0.0
N161 N 0.79249 0.36431 0.53526 0.0
C162 C 0.94601 0.34548 0.46974 0.0
C163 C 0.83898 0.35725 0.51035 0.0
N164 N 0.87982 0.21815 0.4832 0.0
N165 N 0.8988 0.48188 0.48753 0.0
H166 H 0.7482 0.32167 0.54927 0.0
H167 H 0.79951 0.41294 0.5443 0.0
H168 H 0.94145 0.52731 0.47426 0.0
H169 H 0.85999 0.49054 0.49861 0.0
H170 H 0.91273 0.2087 0.46442 0.0
H171 H 0.83929 0.17232 0.49792 0.0
H172 H 0.00921 0.30005 0.4601 0.0
H173 H 0.04495 0.38713 0.44015 0.0
C174 C 0.45023 0.82049 0.80718 0.0
C175 C 0.50496 0.80819 0.79656 0.0
C176 C 0.58507 0.9367 0.79201 0.0
C177 C 0.52866 0.94843 0.79524 0.0
N178 N 0.40576 0.90082 0.8035 0.0
N179 N 0.62377 0.85519 0.77389 0.0
C180 C 0.46069 0.89012 0.80233 0.0
C181 C 0.57242 0.86651 0.78779 0.0
N182 N 0.3891 0.76619 0.8238 0.0
N183 N 0.65087 0.99275 0.7951 0.0
H184 H 0.61636 0.80461 0.77005 0.0
H185 H 0.67184 0.89595 0.76265 0.0
H186 H 0.66051 0.04337 0.80192 0.0
H187 H 0.69457 0.98752 0.79624 0.0
H188 H 0.35006 0.77338 0.83634 0.0
H189 H 0.38003 0.71495 0.82928 0.0
H190 H 0.35436 0.85977 0.80292 0.0
H191 H 0.41132 0.95099 0.80221 0.0
C192 C 0.71895 0.55609 0.13889 0.0
C193 C 0.71796 0.49924 0.11689 0.0
C194 C 0.59294 0.44693 0.10494 0.0
C195 C 0.59557 0.50756 0.12179 0.0
N196 N 0.65993 0.62056 0.15529 0.0
N197 N 0.65451 0.39362 0.07459 0.0
C198 C 0.65833 0.56226 0.13914 0.0
C199 C 0.65525 0.44599 0.09823 0.0
N200 N 0.7778 0.60404 0.15958 0.0
N201 N 0.53 0.38778 0.09884 0.0
H202 H 0.6968 0.38632 0.07183 0.0
H203 H 0.61255 0.35937 0.05574 0.0
H204 H 0.48416 0.38503 0.10849 0.0
H205 H 0.52363 0.3392 0.09009 0.0
H206 H 0.78012 0.64188 0.18037 0.0
H207 H 0.82422 0.60392 0.15773 0.0
H208 H 0.70505 0.66617 0.16416 0.0
H209 H 0.61582 0.6249 0.15772 0.0
C210 C 0.30018 0.6584 0.47653 0.0
C211 C 0.31689 0.72931 0.46785 0.0
C212 C 0.19586 0.68787 0.45011 0.0
C213 C 0.18203 0.61716 0.4522 0.0
N214 N 0.22093 0.53395 0.4634 0.0
N215 N 0.28246 0.81317 0.44511 0.0
C216 C 0.23416 0.60202 0.46456 0.0
C217 C 0.26509 0.74464 0.45452 0.0
N218 N 0.34683 0.64529 0.4972 0.0
N219 N 0.14225 0.70019 0.44494 0.0
H220 H 0.33215 0.85619 0.4498 0.0
H221 H 0.2488 0.82713 0.43058 0.0
H222 H 0.09106 0.65915 0.44223 0.0
H223 H 0.1475 0.75007 0.44709 0.0
H224 H 0.33591 0.59483 0.50741 0.0
H225 H 0.39407 0.68601 0.50828 0.0
H226 H 0.25883 0.52021 0.46779 0.0
H227 H 0.1728 0.49178 0.45465 0.0
C228 C 0.49494 0.25928 0.79782 0.0
C229 C 0.54833 0.31164 0.82307 0.0
C230 C 0.58745 0.22965 0.84467 0.0
C231 C 0.53732 0.17857 0.81715 0.0
N232 N 0.42998 0.13479 0.77935 0.0
N233 N 0.62253 0.33633 0.8847 0.0
C234 C 0.48573 0.18994 0.79826 0.0
C235 C 0.58652 0.29288 0.8516 0.0
N236 N 0.45635 0.27709 0.77164 0.0
N237 N 0.63937 0.22074 0.86098 0.0
H238 H 0.62035 0.38195 0.89057 0.0
H239 H 0.64793 0.32319 0.90841 0.0
H240 H 0.64263 0.17579 0.85519 0.0
H241 H 0.68155 0.26016 0.87744 0.0
H242 H 0.42162 0.24345 0.74877 0.0
H243 H 0.46131 0.32715 0.77204 0.0
H244 H 0.38819 0.13791 0.76702 0.0
H245 H 0.4234 0.084 0.77969 0.0
C246 C 0.61553 0.73309 0.55096 0.0
C247 C 0.56913 0.73838 0.52165 0.0
C248 C 0.52113 0.61512 0.50247 0.0
C249 C 0.5694 0.61039 0.53015 0.0
N250 N 0.67485 0.6695 0.57058 0.0
N251 N 0.49487 0.69185 0.45914 0.0
C252 C 0.6205 0.67092 0.55146 0.0
C253 C 0.52777 0.68198 0.49381 0.0
N254 N 0.65435 0.78708 0.57829 0.0
N255 N 0.46655 0.55514 0.48636 0.0
H256 H 0.4988 0.74028 0.4513 0.0
H257 H 0.46926 0.65372 0.43574 0.0
H258 H 0.45792 0.50448 0.49372 0.0
H259 H 0.42592 0.55508 0.46963 0.0
H260 H 0.68342 0.78288 0.60355 0.0
H261 H 0.65467 0.83496 0.5769 0.0
H262 H 0.71678 0.71373 0.58394 0.0
H263 H 0.68106 0.62558 0.56875 0.0
C264 C 0.88933 0.63974 0.80008 0.0
C265 C 0.8255 0.57625 0.80962 0.0
C266 C 0.8896 0.51754 0.83199 0.0
C267 C 0.95172 0.58335 0.83033 0.0
N268 N 0.01288 0.70842 0.81475 0.0
N269 N 0.76693 0.45909 0.84438 0.0
C270 C 0.95243 0.64482 0.8142 0.0
C271 C 0.82601 0.51596 0.82785 0.0
N272 N 0.88959 0.69551 0.77876 0.0
N273 N 0.89172 0.45703 0.84006 0.0
H274 H 0.72081 0.45892 0.84707 0.0
H275 H 0.76597 0.41648 0.86107 0.0
H276 H 0.93831 0.45778 0.84434 0.0
H277 H 0.84842 0.40639 0.83801 0.0
H278 H 0.93465 0.74028 0.76722 0.0
H279 H 0.84433 0.69536 0.7704 0.0
H280 H 0.01612 0.75692 0.80806 0.0
H281 H 0.05955 0.7124 0.82419 0.0
C282 C 0.25583 0.81144 0.1396 0.0
C283 C 0.26393 0.75392 0.1272 0.0
C284 C 0.38909 0.82498 0.13961 0.0
C285 C 0.37986 0.87996 0.15481 0.0
N286 N 0.31111 0.93438 0.16156 0.0
N287 N 0.34043 0.71184 0.10502 0.0
C288 C 0.31512 0.87605 0.15183 0.0
C289 C 0.33138 0.76296 0.12319 0.0
N290 N 0.1911 0.80319 0.14059 0.0
N291 N 0.45223 0.83018 0.1442 0.0
H292 H 0.3001 0.66297 0.09561 0.0
H293 H 0.38871 0.71929 0.09665 0.0
H294 H 0.49549 0.87553 0.15559 0.0
H295 H 0.46134 0.78877 0.13914 0.0
H296 H 0.17975 0.83954 0.1536 0.0
H297 H 0.14766 0.75851 0.12868 0.0
H298 H 0.2668 0.938 0.15806 0.0
H299 H 0.35454 0.9817 0.17068 0.0
C300 C 0.51658 0.26809 0.47247 0.0
C301 C 0.58424 0.27941 0.46684 0.0
C302 C 0.63504 0.40085 0.491 0.0
C303 C 0.56759 0.38964 0.49687 0.0
N304 N 0.44548 0.32105 0.48438 0.0
N305 N 0.70702 0.36125 0.45816 0.0
C306 C 0.50864 0.32578 0.4845 0.0
C307 C 0.64326 0.34756 0.47172 0.0
N308 N 0.46038 0.20196 0.46736 0.0
N309 N 0.69083 0.46065 0.50627 0.0
H310 H 0.71568 0.32282 0.44528 0.0
H311 H 0.75018 0.41218 0.45619 0.0
H312 H 0.68651 0.50038 0.52126 0.0
H313 H 0.74073 0.46862 0.50694 0.0
H314 H 0.40995 0.18827 0.47551 0.0
H315 H 0.46476 0.15965 0.45645 0.0
H316 H 0.40075 0.27813 0.47241 0.0
H317 H 0.43925 0.36318 0.49331 0.0
C318 C 0.27833 0.6179 0.89577 0.0
C319 C 0.27827 0.55947 0.87666 0.0
C320 C 0.15407 0.50682 0.86094 0.0
C321 C 0.15548 0.56704 0.87849 0.0
N322 N 0.2243 0.68946 0.8958 0.0
N323 N 0.21865 0.45151 0.83699 0.0
C324 C 0.21896 0.62498 0.89178 0.0
C325 C 0.21672 0.50473 0.85806 0.0
N326 N 0.33575 0.6682 0.91652 0.0
N327 N 0.09298 0.45207 0.84662 0.0
H328 H 0.2624 0.44627 0.83644 0.0
H329 H 0.17839 0.41433 0.81831 0.0
H330 H 0.04794 0.45465 0.84439 0.0
H331 H 0.0858 0.40306 0.83833 0.0
H332 H 0.33535 0.70698 0.93523 0.0
H333 H 0.38262 0.66897 0.91736 0.0
H334 H 0.27047 0.73575 0.90244 0.0
H335 H 0.18455 0.69826 0.88612 0.0
C336 C 0.71157 0.18685 0.20877 0.0
C337 C 0.70189 0.24216 0.19189 0.0
C338 C 0.5767 0.15912 0.18769 0.0
C339 C 0.58683 0.1026 0.20151 0.0
N340 N 0.66505 0.05996 0.21574 0.0
N341 N 0.62763 0.27902 0.15769 0.0
C342 C 0.65464 0.11579 0.20977 0.0
C343 C 0.63501 0.2278 0.17938 0.0
N344 N 0.77484 0.20236 0.22437 0.0
N345 N 0.51099 0.14709 0.18278 0.0
H346 H 0.66912 0.32992 0.1509 0.0
H347 H 0.58177 0.26953 0.14307 0.0
H348 H 0.46705 0.09702 0.18685 0.0
H349 H 0.49964 0.18737 0.17783 0.0
H350 H 0.78334 0.16564 0.24136 0.0
H351 H 0.81791 0.25355 0.22318 0.0
H352 H 0.71375 0.06522 0.21871 0.0
H353 H 0.62498 0.00785 0.21285 0.0
C354 C 0.0591 0.59279 0.03417 0.0
C355 C 0.02819 0.52079 0.04829 0.0
C356 C 0.0363 0.48689 0.97436 0.0
C357 C 0.06655 0.55869 0.95956 0.0
N358 N 0.11781 0.68162 0.97655 0.0
N359 N 0.00785 0.40398 0.03568 0.0
C360 C 0.08334 0.61224 0.99032 0.0
C361 C 0.02451 0.46964 0.01965 0.0
N362 N 0.06015 0.64152 0.06156 0.0
N363 N 0.01117 0.43429 0.94496 0.0
H364 H -0.00143 0.39019 0.06883 0.0
H365 H 0.01025 0.36633 0.01691 0.0
H366 H 0.01308 0.44485 0.91172 0.0
H367 H -0.0179 0.38055 0.95363 0.0
H368 H 0.07399 0.69301 0.05178 0.0
H369 H 0.04394 0.62953 0.09406 0.0
H370 H 0.13885 0.72389 -0.00241 0.0
H371 H 0.12806 0.69669 0.94379 0.0
C372 C 0.5688 0.97353 0.34455 0.0
C373 C 0.54595 0.0081 0.37253 0.0
C374 C 0.49931 0.04199 0.30991 0.0
C375 C 0.51792 0.0032 0.28254 0.0
N376 N 0.55289 0.91623 0.27594 0.0
N377 N 0.4786 0.06448 0.38367 0.0
C378 C 0.54814 0.96479 0.30041 0.0
C379 C 0.50883 0.04023 0.3557 0.0
N380 N 0.61158 0.95038 0.35985 0.0
N381 N 0.47011 0.07832 0.29206 0.0
H382 H 0.48215 0.06173 0.41747 0.0
H383 H 0.44508 0.08196 0.37387 0.0
H384 H 0.4568 0.07476 0.25935 0.0
H385 H 0.46226 0.1143 0.30891 0.0
H386 H 0.63535 0.93124 0.3397 0.0
H387 H 0.62864 0.95644 0.39197 0.0
H388 H 0.5664 0.8804 0.28886 0.0
H389 H 0.53725 0.90722 0.24358 0.0
C390 C 0.58462 0.52507 0.69024 0.0
C391 C 0.54425 0.55396 0.70489 0.0
C392 C 0.50075 0.54468 0.63016 0.0
C393 C 0.54858 0.52532 0.61554 0.0
N394 N 0.6508 0.51859 0.63091 0.0
N395 N 0.47853 0.61013 0.6835 0.0
C396 C 0.59581 0.52341 0.6453 0.0
C397 C 0.50629 0.56936 0.67335 0.0
N398 N 0.60726 0.4929 0.71878 0.0
N399 N 0.44858 0.53694 0.60364 0.0
H400 H 0.48686 0.63482 0.71321 0.0
H401 H 0.45501 0.62669 0.6604 0.0
H402 H 0.44135 0.51507 0.573 0.0
H403 H 0.40899 0.54515 0.61398 0.0
H404 H 0.63095 0.46498 0.70885 0.0
H405 H 0.59354 0.48603 0.75144 0.0
H406 H 0.68957 0.52272 0.65171 0.0
H407 H 0.66111 0.5176 0.59794 0.0
C408 C 0.5046 0.97813 0.64186 0.0
C409 C 0.57012 0.00579 0.62087 0.0
C410 C 0.62924 0.05697 0.68918 0.0
C411 C 0.56404 0.03253 0.70959 0.0
N412 N 0.441 0.98187 0.70426 0.0
N413 N 0.69352 0.05616 0.6259 0.0
C414 C 0.5019 0.99464 0.68594 0.0
C415 C 0.63214 0.0405 0.64506 0.0
N416 N 0.44482 0.93759 0.61952 0.0
N417 N 0.68826 0.10123 0.71103 0.0
H418 H 0.69696 0.04382 0.59376 0.0
H419 H 0.73988 0.07548 0.64262 0.0
H420 H 0.68736 0.11657 0.74272 0.0
H421 H 0.7375 0.12764 0.69689 0.0
H422 H 0.39643 0.90761 0.63452 0.0
H423 H 0.44315 0.92989 0.58614 0.0
H424 H 0.39439 0.96148 0.68774 0.0
H425 H 0.43828 -0.00163 0.73521 0.0
C426 C 0.48959 0.49174 0.9684 0.0
C427 C 0.54556 0.55631 0.95123 0.0
C428 C 0.58196 0.59935 0.02485 0.0
C429 C 0.52695 0.53462 0.04223 0.0
N430 N 0.43091 0.41694 0.03206 0.0
N431 N 0.65283 0.6655 0.9619 0.0
C432 C 0.48205 0.47979 0.01429 0.0
C433 C 0.59461 0.60799 0.97914 0.0
N434 N 0.44258 0.4429 0.94071 0.0
N435 N 0.61829 0.65453 0.05182 0.0
H436 H 0.66228 0.67477 0.92842 0.0
H437 H 0.69402 0.70113 0.98072 0.0
H438 H 0.60755 0.6504 0.08507 0.0
H439 H 0.65444 0.70572 0.04093 0.0
H440 H 0.39623 0.3984 0.95073 0.0
H441 H 0.4482 0.4481 0.90687 0.0
H442 H 0.4011 0.37145 0.01449 0.0
H443 H 0.4198 0.40915 0.06532 0.0
C444 C 0.95198 0.41982 0.29864 0.0
C445 C 0.96064 0.48259 0.27829 0.0
C446 C 0.96471 0.53145 0.34969 0.0
C447 C 0.9679 0.47376 0.36964 0.0
N448 N 0.91885 0.34802 0.36477 0.0
N449 N 0.95603 0.58941 0.28279 0.0
C450 C 0.94798 0.41303 0.34473 0.0
C451 C 0.95933 0.5351 0.30345 0.0
N452 N 0.94925 0.36745 0.27404 0.0
N453 N 0.97397 0.5856 0.37511 0.0
H454 H 0.95248 0.59238 0.24895 0.0
H455 H 0.9524 0.62867 0.29878 0.0
H456 H 0.97777 0.58254 0.40884 0.0
H457 H -0.02081 0.63311 0.36334 0.0
H458 H 0.95128 0.32423 0.2874 0.0
H459 H 0.94812 0.36909 0.24005 0.0
H460 H 0.90058 0.30101 0.34823 0.0
H461 H 0.8995 0.34062 0.39617 0.0
loop_
_geom_bond_atom_site_label_1
_geom_bond_atom_site_label_2
_geom_bond_distance
_geom_bond_site_symmetry_2
_ccdc_geom_bond_type
Zn0 O6 1.969 . S
Zn0 O7 1.965 . S
Zn0 O11 2.024 . S
Zn0 O16 1.969 . S
Zn1 O8 1.969 . S
Zn1 O14 1.969 . S
Zn1 O15 1.965 . S
Zn1 O17 2.024 . S
C2 O3 1.229 . S
C2 O11 1.058 . S
O3 C2 1.229 . S
C4 O5 1.229 . S
C4 O17 1.058 . S
O5 C4 1.229 . S
O6 Zn0 1.969 . S
O6 C9 1.267 . S
O7 Zn0 1.965 . S
O7 C18 1.253 1_455 S
O8 Zn1 1.969 . S
O8 C18 1.271 . S
C9 O6 1.267 . S
C9 O10 1.228 . S
O10 C9 1.228 . S
O11 Zn0 2.024 . S
O11 C2 1.058 . S
C12 O13 1.228 . S
C12 O14 1.267 . S
O13 C12 1.228 . S
O14 Zn1 1.969 . S
O14 C12 1.267 . S
O15 Zn1 1.965 . S
O15 C19 1.260 1_655 S
O16 Zn0 1.969 . S
O16 C19 1.258 . S
O17 Zn1 2.024 . S
O17 C4 1.058 . S
C18 O7 1.253 1_655 S
C18 O8 1.271 . S
C19 O15 1.260 1_455 S
C19 O16 1.258 . S
Zn20 O26 1.969 . S
Zn20 O27 1.965 . S
Zn20 O31 2.024 . S
Zn20 O36 1.969 . S
Zn21 O28 1.969 . S
Zn21 O34 1.969 . S
Zn21 O35 1.965 . S
Zn21 O37 2.024 . S
C22 O23 1.229 . S
C22 O31 1.058 . S
O23 C22 1.229 . S
C24 O25 1.229 . S
C24 O37 1.058 . S
O25 C24 1.229 . S
O26 Zn20 1.969 . S
O26 C29 1.267 . S
O27 Zn20 1.965 . S
O27 C38 1.260 . S
O28 Zn21 1.969 . S
O28 C38 1.258 1_565 S
C29 O26 1.267 . S
C29 O30 1.228 . S
O30 C29 1.228 . S
O31 Zn20 2.024 . S
O31 C22 1.058 . S
C32 O33 1.228 . S
C32 O34 1.267 . S
O33 C32 1.228 . S
O34 Zn21 1.969 . S
O34 C32 1.267 . S
O35 Zn21 1.965 . S
O35 C39 1.260 1_565 S
O36 Zn20 1.969 . S
O36 C39 1.258 . S
O37 Zn21 2.024 . S
O37 C24 1.058 . S
C38 O27 1.260 . S
C38 O28 1.258 1_545 S
C39 O35 1.260 1_545 S
C39 O36 1.258 . S
Zn40 O46 1.969 . S
Zn40 O47 1.965 . S
Zn40 O51 2.024 . S
Zn40 O56 1.969 . S
Zn41 O48 1.969 . S
Zn41 O54 1.969 . S
Zn41 O55 1.965 . S
Zn41 O57 2.024 . S
C42 O43 1.229 . S
C42 O51 1.058 . S
O43 C42 1.229 . S
C44 O45 1.229 . S
C44 O57 1.058 . S
O45 C44 1.229 . S
O46 Zn40 1.969 . S
O46 C49 1.267 . S
O47 Zn40 1.965 . S
O47 C58 1.260 . S
O48 Zn41 1.969 . S
O48 C58 1.258 . S
C49 O46 1.267 . S
C49 O50 1.228 . S
O50 C49 1.228 . S
O51 Zn40 2.024 . S
O51 C42 1.058 . S
C52 O53 1.228 . S
C52 O54 1.267 . S
O53 C52 1.228 . S
O54 Zn41 1.969 . S
O54 C52 1.267 . S
O55 Zn41 1.965 . S
O55 C59 1.260 . S
O56 Zn40 1.969 . S
O56 C59 1.258 . S
O57 Zn41 2.024 . S
O57 C44 1.058 . S
C58 O47 1.260 . S
C58 O48 1.258 . S
C59 O55 1.260 . S
C59 O56 1.258 . S
C60 N61 1.317 . S
C60 N62 1.348 1_545 S
C60 C63 1.485 . S
N61 C60 1.317 . S
N61 N65 1.370 . S
N62 C60 1.348 1_565 S
N62 C64 1.346 . S
C63 C60 1.485 . S
C63 H67 0.960 . S
C63 H68 0.961 1_545 S
C63 H69 0.960 . S
C64 N62 1.346 . S
C64 N65 1.307 1_565 S
C64 C66 1.486 . S
N65 N61 1.370 . S
N65 C64 1.307 1_545 S
C66 C64 1.486 . S
C66 H70 0.960 . S
C66 H71 0.960 . S
C66 H72 0.959 . S
H67 C63 0.960 . S
H68 C63 0.961 1_565 S
H69 C63 0.960 . S
H70 C66 0.960 . S
H71 C66 0.960 . S
H72 C66 0.959 . S
C73 N74 1.317 . S
C73 N75 1.348 . S
C73 C76 1.485 . S
N74 C73 1.317 . S
N74 N78 1.370 . S
N75 C73 1.348 . S
N75 C77 1.346 . S
C76 C73 1.485 . S
C76 H80 0.960 . S
C76 H81 0.961 . S
C76 H82 0.960 . S
C77 N75 1.346 . S
C77 N78 1.307 . S
C77 C79 1.486 . S
N78 N74 1.370 . S
N78 C77 1.307 . S
C79 C77 1.486 . S
C79 H83 0.960 . S
C79 H84 0.960 . S
C79 H85 0.959 . S
H80 C76 0.960 . S
H81 C76 0.961 . S
H82 C76 0.960 . S
H83 C79 0.960 . S
H84 C79 0.960 . S
H85 C79 0.959 . S
C86 N87 1.317 . S
C86 N88 1.348 1_455 S
C86 C89 1.485 . S
N87 C86 1.317 . S
N87 N91 1.370 . S
N88 C86 1.348 1_655 S
N88 C90 1.346 . S
C89 C86 1.485 . S
C89 H93 0.960 . S
C89 H94 0.961 . S
C89 H95 0.960 . S
C90 N88 1.346 . S
C90 N91 1.307 1_655 S
C90 C92 1.486 . S
N91 N87 1.370 . S
N91 C90 1.307 1_455 S
C92 C90 1.486 . S
C92 H96 0.960 . S
C92 H97 0.960 . S
C92 H98 0.959 . S
H93 C89 0.960 . S
H94 C89 0.961 . S
H95 C89 0.960 . S
H96 C92 0.960 . S
H97 C92 0.960 . S
H98 C92 0.959 . S
C99 N100 1.317 . S
C99 N101 1.348 . S
C99 C102 1.485 . S
N100 C99 1.317 . S
N100 N104 1.370 . S
N101 C99 1.348 . S
N101 C103 1.346 . S
C102 C99 1.485 . S
C102 H106 0.960 . S
C102 H107 0.961 . S
C102 H108 0.960 . S
C103 N101 1.346 . S
C103 N104 1.307 . S
C103 C105 1.486 . S
N104 N100 1.370 . S
N104 C103 1.307 . S
C105 C103 1.486 . S
C105 H109 0.960 . S
C105 H110 0.960 . S
C105 H111 0.959 . S
H106 C102 0.960 . S
H107 C102 0.961 . S
H108 C102 0.960 . S
H109 C105 0.960 . S
H110 C105 0.960 . S
H111 C105 0.959 . S
C112 N113 1.317 . S
C112 N114 1.348 . S
C112 C115 1.485 . S
N113 C112 1.317 . S
N113 N117 1.370 . S
N114 C112 1.348 . S
N114 C116 1.346 . S
C115 C112 1.485 . S
C115 H119 0.960 . S
C115 H120 0.961 . S
C115 H121 0.960 . S
C116 N114 1.346 . S
C116 N117 1.307 . S
C116 C118 1.486 . S
N117 N113 1.370 . S
N117 C116 1.307 . S
C118 C116 1.486 . S
C118 H122 0.960 . S
C118 H123 0.960 . S
C118 H124 0.959 . S
H119 C115 0.960 . S
H120 C115 0.961 . S
H121 C115 0.960 . S
H122 C118 0.960 . S
H123 C118 0.960 . S
H124 C118 0.959 . S
C125 N126 1.317 . S
C125 N127 1.348 . S
C125 C128 1.485 . S
N126 C125 1.317 . S
N126 N130 1.370 . S
N127 C125 1.348 . S
N127 C129 1.346 . S
C128 C125 1.485 . S
C128 H132 0.960 . S
C128 H133 0.961 . S
C128 H134 0.960 . S
C129 N127 1.346 . S
C129 N130 1.307 . S
C129 C131 1.486 . S
N130 N126 1.370 . S
N130 C129 1.307 . S
C131 C129 1.486 . S
C131 H135 0.960 . S
C131 H136 0.960 . S
C131 H137 0.959 . S
H132 C128 0.960 . S
H133 C128 0.961 . S
H134 C128 0.960 . S
H135 C131 0.960 . S
H136 C131 0.960 . S
H137 C131 0.959 . S
C138 C139 1.363 . S
C138 C144 1.379 . S
C138 N146 1.356 . S
C139 C138 1.363 . S
C139 C145 1.363 . S
C140 C141 1.363 . S
C140 C145 1.379 . S
C140 N147 1.356 . S
C141 C140 1.363 . S
C141 C144 1.363 . S
N142 C144 1.356 . S
N142 H154 0.984 . S
N142 H155 0.985 . S
N143 C145 1.356 . S
N143 H148 0.984 . S
N143 H149 0.985 . S
C144 C138 1.379 . S
C144 C141 1.363 . S
C144 N142 1.356 . S
C145 C139 1.363 . S
C145 C140 1.379 . S
C145 N143 1.356 . S
N146 C138 1.356 . S
N146 H152 0.984 . S
N146 H153 0.984 . S
N147 C140 1.356 . S
N147 H150 0.984 . S
N147 H151 0.985 . S
H148 N143 0.984 . S
H149 N143 0.985 . S
H150 N147 0.984 . S
H151 N147 0.985 . S
H152 N146 0.984 . S
H153 N146 0.984 . S
H154 N142 0.984 . S
H155 N142 0.985 . S
C156 C157 1.363 . S
C156 C162 1.379 . S
C156 N164 1.356 . S
C157 C156 1.363 . S
C157 C163 1.363 . S
C158 C159 1.363 . S
C158 C163 1.379 . S
C158 N165 1.356 . S
C159 C158 1.363 . S
C159 C162 1.363 . S
N160 C162 1.356 1_455 S
N160 H172 0.984 . S
N160 H173 0.985 . S
N161 C163 1.356 . S
N161 H166 0.984 . S
N161 H167 0.985 . S
C162 C156 1.379 . S
C162 C159 1.363 . S
C162 N160 1.356 1_655 S
C163 C157 1.363 . S
C163 C158 1.379 . S
C163 N161 1.356 . S
N164 C156 1.356 . S
N164 H170 0.984 . S
N164 H171 0.984 . S
N165 C158 1.356 . S
N165 H168 0.984 . S
N165 H169 0.985 . S
H166 N161 0.984 . S
H167 N161 0.985 . S
H168 N165 0.984 . S
H169 N165 0.985 . S
H170 N164 0.984 . S
H171 N164 0.984 . S
H172 N160 0.984 . S
H173 N160 0.985 . S
C174 C175 1.363 . S
C174 C180 1.379 . S
C174 N182 1.356 . S
C175 C174 1.363 . S
C175 C181 1.363 . S
C176 C177 1.363 . S
C176 C181 1.379 . S
C176 N183 1.356 . S
C177 C176 1.363 . S
C177 C180 1.363 . S
N178 C180 1.356 . S
N178 H190 0.984 . S
N178 H191 0.985 . S
N179 C181 1.356 . S
N179 H184 0.984 . S
N179 H185 0.985 . S
C180 C174 1.379 . S
C180 C177 1.363 . S
C180 N178 1.356 . S
C181 C175 1.363 . S
C181 C176 1.379 . S
C181 N179 1.356 . S
N182 C174 1.356 . S
N182 H188 0.984 . S
N182 H189 0.984 . S
N183 C176 1.356 . S
N183 H186 0.984 1_565 S
N183 H187 0.985 . S
H184 N179 0.984 . S
H185 N179 0.985 . S
H186 N183 0.984 1_545 S
H187 N183 0.985 . S
H188 N182 0.984 . S
H189 N182 0.984 . S
H190 N178 0.984 . S
H191 N178 0.985 . S
C192 C193 1.363 . S
C192 C198 1.379 . S
C192 N200 1.356 . S
C193 C192 1.363 . S
C193 C199 1.363 . S
C194 C195 1.363 . S
C194 C199 1.379 . S
C194 N201 1.356 . S
C195 C194 1.363 . S
C195 C198 1.363 . S
N196 C198 1.356 . S
N196 H208 0.984 . S
N196 H209 0.985 . S
N197 C199 1.356 . S
N197 H202 0.984 . S
N197 H203 0.985 . S
C198 C192 1.379 . S
C198 C195 1.363 . S
C198 N196 1.356 . S
C199 C193 1.363 . S
C199 C194 1.379 . S
C199 N197 1.356 . S
N200 C192 1.356 . S
N200 H206 0.984 . S
N200 H207 0.984 . S
N201 C194 1.356 . S
N201 H204 0.984 . S
N201 H205 0.985 . S
H202 N197 0.984 . S
H203 N197 0.985 . S
H204 N201 0.984 . S
H205 N201 0.985 . S
H206 N200 0.984 . S
H207 N200 0.984 . S
H208 N196 0.984 . S
H209 N196 0.985 . S
C210 C211 1.363 . S
C210 C216 1.379 . S
C210 N218 1.356 . S
C211 C210 1.363 . S
C211 C217 1.363 . S
C212 C213 1.363 . S
C212 C217 1.379 . S
C212 N219 1.356 . S
C213 C212 1.363 . S
C213 C216 1.363 . S
N214 C216 1.356 . S
N214 H226 0.984 . S
N214 H227 0.985 . S
N215 C217 1.356 . S
N215 H220 0.984 . S
N215 H221 0.985 . S
C216 C210 1.379 . S
C216 C213 1.363 . S
C216 N214 1.356 . S
C217 C211 1.363 . S
C217 C212 1.379 . S
C217 N215 1.356 . S
N218 C210 1.356 . S
N218 H224 0.984 . S
N218 H225 0.984 . S
N219 C212 1.356 . S
N219 H222 0.984 . S
N219 H223 0.985 . S
H220 N215 0.984 . S
H221 N215 0.985 . S
H222 N219 0.984 . S
H223 N219 0.985 . S
H224 N218 0.984 . S
H225 N218 0.984 . S
H226 N214 0.984 . S
H227 N214 0.985 . S
C228 C229 1.363 . S
C228 C234 1.379 . S
C228 N236 1.356 . S
C229 C228 1.363 . S
C229 C235 1.363 . S
C230 C231 1.363 . S
C230 C235 1.379 . S
C230 N237 1.356 . S
C231 C230 1.363 . S
C231 C234 1.363 . S
N232 C234 1.356 . S
N232 H244 0.984 . S
N232 H245 0.985 . S
N233 C235 1.356 . S
N233 H238 0.984 . S
N233 H239 0.985 . S
C234 C228 1.379 . S
C234 C231 1.363 . S
C234 N232 1.356 . S
C235 C229 1.363 . S
C235 C230 1.379 . S
C235 N233 1.356 . S
N236 C228 1.356 . S
N236 H242 0.984 . S
N236 H243 0.984 . S
N237 C230 1.356 . S
N237 H240 0.984 . S
N237 H241 0.985 . S
H238 N233 0.984 . S
H239 N233 0.985 . S
H240 N237 0.984 . S
H241 N237 0.985 . S
H242 N236 0.984 . S
H243 N236 0.984 . S
H244 N232 0.984 . S
H245 N232 0.985 . S
C246 C247 1.363 . S
C246 C252 1.379 . S
C246 N254 1.356 . S
C247 C246 1.363 . S
C247 C253 1.363 . S
C248 C249 1.363 . S
C248 C253 1.379 . S
C248 N255 1.356 . S
C249 C248 1.363 . S
C249 C252 1.363 . S
N250 C252 1.356 . S
N250 H262 0.984 . S
N250 H263 0.985 . S
N251 C253 1.356 . S
N251 H256 0.984 . S
N251 H257 0.985 . S
C252 C246 1.379 . S
C252 C249 1.363 . S
C252 N250 1.356 . S
C253 C247 1.363 . S
C253 C248 1.379 . S
C253 N251 1.356 . S
N254 C246 1.356 . S
N254 H260 0.984 . S
N254 H261 0.984 . S
N255 C248 1.356 . S
N255 H258 0.984 . S
N255 H259 0.985 . S
H256 N251 0.984 . S
H257 N251 0.985 . S
H258 N255 0.984 . S
H259 N255 0.985 . S
H260 N254 0.984 . S
H261 N254 0.984 . S
H262 N250 0.984 . S
H263 N250 0.985 . S
C264 C265 1.363 . S
C264 C270 1.379 . S
C264 N272 1.356 . S
C265 C264 1.363 . S
C265 C271 1.363 . S
C266 C267 1.363 . S
C266 C271 1.379 . S
C266 N273 1.356 . S
C267 C266 1.363 . S
C267 C270 1.363 . S
N268 C270 1.356 1_455 S
N268 H280 0.984 . S
N268 H281 0.985 . S
N269 C271 1.356 . S
N269 H274 0.984 . S
N269 H275 0.985 . S
C270 C264 1.379 . S
C270 C267 1.363 . S
C270 N268 1.356 1_655 S
C271 C265 1.363 . S
C271 C266 1.379 . S
C271 N269 1.356 . S
N272 C264 1.356 . S
N272 H278 0.984 . S
N272 H279 0.984 . S
N273 C266 1.356 . S
N273 H276 0.984 . S
N273 H277 0.985 . S
H274 N269 0.984 . S
H275 N269 0.985 . S
H276 N273 0.984 . S
H277 N273 0.985 . S
H278 N272 0.984 . S
H279 N272 0.984 . S
H280 N268 0.984 . S
H281 N268 0.985 . S
C282 C283 1.363 . S
C282 C288 1.379 . S
C282 N290 1.356 . S
C283 C282 1.363 . S
C283 C289 1.363 . S
C284 C285 1.363 . S
C284 C289 1.379 . S
C284 N291 1.356 . S
C285 C284 1.363 . S
C285 C288 1.363 . S
N286 C288 1.356 . S
N286 H298 0.984 . S
N286 H299 0.985 . S
N287 C289 1.356 . S
N287 H292 0.984 . S
N287 H293 0.985 . S
C288 C282 1.379 . S
C288 C285 1.363 . S
C288 N286 1.356 . S
C289 C283 1.363 . S
C289 C284 1.379 . S
C289 N287 1.356 . S
N290 C282 1.356 . S
N290 H296 0.984 . S
N290 H297 0.984 . S
N291 C284 1.356 . S
N291 H294 0.984 . S
N291 H295 0.985 . S
H292 N287 0.984 . S
H293 N287 0.985 . S
H294 N291 0.984 . S
H295 N291 0.985 . S
H296 N290 0.984 . S
H297 N290 0.984 . S
H298 N286 0.984 . S
H299 N286 0.985 . S
C300 C301 1.363 . S
C300 C306 1.379 . S
C300 N308 1.356 . S
C301 C300 1.363 . S
C301 C307 1.363 . S
C302 C303 1.363 . S
C302 C307 1.379 . S
C302 N309 1.356 . S
C303 C302 1.363 . S
C303 C306 1.363 . S
N304 C306 1.356 . S
N304 H316 0.984 . S
N304 H317 0.985 . S
N305 C307 1.356 . S
N305 H310 0.984 . S
N305 H311 0.985 . S
C306 C300 1.379 . S
C306 C303 1.363 . S
C306 N304 1.356 . S
C307 C301 1.363 . S
C307 C302 1.379 . S
C307 N305 1.356 . S
N308 C300 1.356 . S
N308 H314 0.984 . S
N308 H315 0.984 . S
N309 C302 1.356 . S
N309 H312 0.984 . S
N309 H313 0.985 . S
H310 N305 0.984 . S
H311 N305 0.985 . S
H312 N309 0.984 . S
H313 N309 0.985 . S
H314 N308 0.984 . S
H315 N308 0.984 . S
H316 N304 0.984 . S
H317 N304 0.985 . S
C318 C319 1.363 . S
C318 C324 1.379 . S
C318 N326 1.356 . S
C319 C318 1.363 . S
C319 C325 1.363 . S
C320 C321 1.363 . S
C320 C325 1.379 . S
C320 N327 1.356 . S
C321 C320 1.363 . S
C321 C324 1.363 . S
N322 C324 1.356 . S
N322 H334 0.984 . S
N322 H335 0.985 . S
N323 C325 1.356 . S
N323 H328 0.984 . S
N323 H329 0.985 . S
C324 C318 1.379 . S
C324 C321 1.363 . S
C324 N322 1.356 . S
C325 C319 1.363 . S
C325 C320 1.379 . S
C325 N323 1.356 . S
N326 C318 1.356 . S
N326 H332 0.984 . S
N326 H333 0.984 . S
N327 C320 1.356 . S
N327 H330 0.984 . S
N327 H331 0.985 . S
H328 N323 0.984 . S
H329 N323 0.985 . S
H330 N327 0.984 . S
H331 N327 0.985 . S
H332 N326 0.984 . S
H333 N326 0.984 . S
H334 N322 0.984 . S
H335 N322 0.985 . S
C336 C337 1.363 . S
C336 C342 1.379 . S
C336 N344 1.356 . S
C337 C336 1.363 . S
C337 C343 1.363 . S
C338 C339 1.363 . S
C338 C343 1.379 . S
C338 N345 1.356 . S
C339 C338 1.363 . S
C339 C342 1.363 . S
N340 C342 1.356 . S
N340 H352 0.984 . S
N340 H353 0.985 . S
N341 C343 1.356 . S
N341 H346 0.984 . S
N341 H347 0.985 . S
C342 C336 1.379 . S
C342 C339 1.363 . S
C342 N340 1.356 . S
C343 C337 1.363 . S
C343 C338 1.379 . S
C343 N341 1.356 . S
N344 C336 1.356 . S
N344 H350 0.984 . S
N344 H351 0.984 . S
N345 C338 1.356 . S
N345 H348 0.984 . S
N345 H349 0.985 . S
H346 N341 0.984 . S
H347 N341 0.985 . S
H348 N345 0.984 . S
H349 N345 0.985 . S
H350 N344 0.984 . S
H351 N344 0.984 . S
H352 N340 0.984 . S
H353 N340 0.985 . S
C354 C355 1.363 . S
C354 C360 1.379 1_554 S
C354 N362 1.356 . S
C355 C354 1.363 . S
C355 C361 1.363 . S
C356 C357 1.363 . S
C356 C361 1.379 1_556 S
C356 N363 1.356 . S
C357 C356 1.363 . S
C357 C360 1.363 . S
N358 C360 1.356 . S
N358 H370 0.984 . S
N358 H371 0.985 . S
N359 C361 1.356 . S
N359 H364 0.984 1_455 S
N359 H365 0.986 1_455 S
C360 C354 1.379 1_556 S
C360 C357 1.363 . S
C360 N358 1.356 . S
C361 C355 1.363 . S
C361 C356 1.379 1_554 S
C361 N359 1.356 . S
N362 C354 1.356 . S
N362 H368 0.984 . S
N362 H369 0.984 . S
N363 C356 1.356 . S
N363 H366 0.984 . S
N363 H367 0.985 . S
H364 N359 0.984 1_655 S
H365 N359 0.986 1_655 S
H366 N363 0.984 . S
H367 N363 0.985 . S
H368 N362 0.984 . S
H369 N362 0.984 . S
H370 N358 0.984 . S
H371 N358 0.985 . S
C372 C373 1.363 1_565 S
C372 C378 1.379 . S
C372 N380 1.356 . S
C373 C372 1.363 1_545 S
C373 C379 1.363 . S
C374 C375 1.363 . S
C374 C379 1.379 . S
C374 N381 1.356 . S
C375 C374 1.363 . S
C375 C378 1.363 1_545 S
N376 C378 1.356 . S
N376 H388 0.984 . S
N376 H389 0.985 . S
N377 C379 1.356 . S
N377 H382 0.984 . S
N377 H383 0.985 . S
C378 C372 1.379 . S
C378 C375 1.363 1_565 S
C378 N376 1.356 . S
C379 C373 1.363 . S
C379 C374 1.379 . S
C379 N377 1.356 . S
N380 C372 1.356 . S
N380 H386 0.984 . S
N380 H387 0.984 . S
N381 C374 1.356 . S
N381 H384 0.984 . S
N381 H385 0.985 . S
H382 N377 0.984 . S
H383 N377 0.985 . S
H384 N381 0.984 . S
H385 N381 0.985 . S
H386 N380 0.984 . S
H387 N380 0.984 . S
H388 N376 0.984 . S
H389 N376 0.985 . S
C390 C391 1.363 . S
C390 C396 1.379 . S
C390 N398 1.356 . S
C391 C390 1.363 . S
C391 C397 1.363 . S
C392 C393 1.363 . S
C392 C397 1.379 . S
C392 N399 1.356 . S
C393 C392 1.363 . S
C393 C396 1.363 . S
N394 C396 1.356 . S
N394 H406 0.984 . S
N394 H407 0.985 . S
N395 C397 1.356 . S
N395 H400 0.984 . S
N395 H401 0.985 . S
C396 C390 1.379 . S
C396 C393 1.363 . S
C396 N394 1.356 . S
C397 C391 1.363 . S
C397 C392 1.379 . S
C397 N395 1.356 . S
N398 C390 1.356 . S
N398 H404 0.984 . S
N398 H405 0.984 . S
N399 C392 1.356 . S
N399 H402 0.984 . S
N399 H403 0.985 . S
H400 N395 0.984 . S
H401 N395 0.985 . S
H402 N399 0.984 . S
H403 N399 0.985 . S
H404 N398 0.984 . S
H405 N398 0.984 . S
H406 N394 0.984 . S
H407 N394 0.985 . S
C408 C409 1.363 1_565 S
C408 C414 1.379 . S
C408 N416 1.356 . S
C409 C408 1.363 1_545 S
C409 C415 1.363 . S
C410 C411 1.363 . S
C410 C415 1.379 . S
C410 N417 1.356 . S
C411 C410 1.363 . S
C411 C414 1.363 1_545 S
N412 C414 1.356 . S
N412 H424 0.984 . S
N412 H425 0.985 . S
N413 C415 1.356 . S
N413 H418 0.984 . S
N413 H419 0.985 . S
C414 C408 1.379 . S
C414 C411 1.363 1_565 S
C414 N412 1.356 . S
C415 C409 1.363 . S
C415 C410 1.379 . S
C415 N413 1.356 . S
N416 C408 1.356 . S
N416 H422 0.984 . S
N416 H423 0.984 . S
N417 C410 1.356 . S
N417 H420 0.984 . S
N417 H421 0.985 . S
H418 N413 0.984 . S
H419 N413 0.985 . S
H420 N417 0.984 . S
H421 N417 0.985 . S
H422 N416 0.984 . S
H423 N416 0.984 . S
H424 N412 0.984 . S
H425 N412 0.985 . S
C426 C427 1.363 . S
C426 C432 1.379 1_556 S
C426 N434 1.356 . S
C427 C426 1.363 . S
C427 C433 1.363 . S
C428 C429 1.363 . S
C428 C433 1.379 1_554 S
C428 N435 1.356 . S
C429 C428 1.363 . S
C429 C432 1.363 . S
N430 C432 1.356 . S
N430 H442 0.984 . S
N430 H443 0.985 . S
N431 C433 1.356 . S
N431 H436 0.984 . S
N431 H437 0.985 . S
C432 C426 1.379 1_554 S
C432 C429 1.363 . S
C432 N430 1.356 . S
C433 C427 1.363 . S
C433 C428 1.379 1_556 S
C433 N431 1.356 . S
N434 C426 1.356 . S
N434 H440 0.984 . S
N434 H441 0.984 . S
N435 C428 1.356 . S
N435 H438 0.984 . S
N435 H439 0.985 . S
H436 N431 0.984 . S
H437 N431 0.985 . S
H438 N435 0.984 . S
H439 N435 0.985 . S
H440 N434 0.984 . S
H441 N434 0.984 . S
H442 N430 0.984 . S
H443 N430 0.985 . S
C444 C445 1.363 1_655 S
C444 C450 1.379 . S
C444 N452 1.356 . S
C445 C444 1.363 1_455 S
C445 C451 1.363 . S
C446 C447 1.363 . S
C446 C451 1.379 . S
C446 N453 1.356 . S
C447 C446 1.363 . S
C447 C450 1.363 1_455 S
N448 C450 1.356 . S
N448 H460 0.984 . S
N448 H461 0.985 . S
N449 C451 1.356 . S
N449 H454 0.984 . S
N449 H455 0.985 . S
C450 C444 1.379 . S
C450 C447 1.363 1_655 S
C450 N448 1.356 . S
C451 C445 1.363 . S
C451 C446 1.379 . S
C451 N449 1.356 . S
N452 C444 1.356 . S
N452 H458 0.984 . S
N452 H459 0.984 . S
N453 C446 1.356 . S
N453 H456 0.984 . S
N453 H457 0.985 . S
H454 N449 0.984 . S
H455 N449 0.985 . S
H456 N453 0.984 . S
H457 N453 0.985 . S
H458 N452 0.984 . S
H459 N452 0.984 . S
H460 N448 0.984 . S
H461 N448 0.985 . S
C139 C2 1.258 . S
C141 N127 1.361 . S
C157 C22 1.356 . S
C159 N100 1.489 1_655 S
C175 C44 1.364 . S
C177 N113 1.483 1_565 S
C193 C4 1.698 . S
C195 N126 1.805 . S
C213 N101 1.655 . S
C211 C24 1.588 . S
C231 N114 1.639 . S
C229 C42 1.551 . S
C247 C32 1.231 . S
C249 N74 1.283 . S
C265 C49 1.122 . S
C267 N88 1.148 . S
C283 C9 1.374 . S
C285 N62 1.394 . S
C303 N75 1.388 . S
C301 C29 1.338 . S
C321 N87 1.499 . S
C319 C52 1.436 . S
C337 C12 1.212 . S
C339 N61 1.281 . S
C357 N91 1.476 . S
C355 C18 1.524 1_455 S
C373 C38 1.496 . S
C375 N65 1.520 . S
C391 C58 1.500 . S
C393 N78 1.489 . S
C411 N117 1.600 . S
C409 C39 1.583 . S
C429 N130 1.518 . S
C427 C59 1.512 . S
C445 C19 1.527 . S
C447 N104 1.555 . S
