# Generated by pormake.
# Topology csq, (4,8)-cn, num edge types: 1
# Building blocks:
#     Node 0, Type 0, BuildingBlock: KUFVIS_clean_linker_0, # of connection points: 4
#     Node 1, Type 0, BuildingBlock: KUFVIS_clean_linker_0, # of connection points: 4
#     Node 2, Type 0, BuildingBlock: KUFVIS_clean_linker_0, # of connection points: 4
#     Node 3, Type 0, BuildingBlock: KUFVIS_clean_linker_0, # of connection points: 4
#     Node 4, Type 0, BuildingBlock: KUFVIS_clean_linker_0, # of connection points: 4
#     Node 5, Type 0, BuildingBlock: KUFVIS_clean_linker_0, # of connection points: 4
#     Node 6, Type 1, BuildingBlock: TAGTUT_clean_sbu_3, # of connection points: 8
#     Node 7, Type 1, BuildingBlock: TAGTUT_clean_sbu_3, # of connection points: 8
#     Node 8, Type 1, BuildingBlock: TAGTUT_clean_sbu_3, # of connection points: 8
#     Edge 9, Type (0, 1), BuildingBlock: XUDNAN_clean_linker_2, # of connection points: 2
#     Edge 10, Type (0, 1), BuildingBlock: XUDNAN_clean_linker_2, # of connection points: 2
#     Edge 11, Type (0, 1), BuildingBlock: XUDNAN_clean_linker_2, # of connection points: 2
#     Edge 12, Type (0, 1), BuildingBlock: XUDNAN_clean_linker_2, # of connection points: 2
#     Edge 13, Type (0, 1), BuildingBlock: XUDNAN_clean_linker_2, # of connection points: 2
#     Edge 14, Type (0, 1), BuildingBlock: XUDNAN_clean_linker_2, # of connection points: 2
#     Edge 15, Type (0, 1), BuildingBlock: XUDNAN_clean_linker_2, # of connection points: 2
#     Edge 16, Type (0, 1), BuildingBlock: XUDNAN_clean_linker_2, # of connection points: 2
#     Edge 17, Type (0, 1), BuildingBlock: XUDNAN_clean_linker_2, # of connection points: 2
#     Edge 18, Type (0, 1), BuildingBlock: XUDNAN_clean_linker_2, # of connection points: 2
#     Edge 19, Type (0, 1), BuildingBlock: XUDNAN_clean_linker_2, # of connection points: 2
#     Edge 20, Type (0, 1), BuildingBlock: XUDNAN_clean_linker_2, # of connection points: 2
#     Edge 21, Type (0, 1), BuildingBlock: XUDNAN_clean_linker_2, # of connection points: 2
#     Edge 22, Type (0, 1), BuildingBlock: XUDNAN_clean_linker_2, # of connection points: 2
#     Edge 23, Type (0, 1), BuildingBlock: XUDNAN_clean_linker_2, # of connection points: 2
#     Edge 24, Type (0, 1), BuildingBlock: XUDNAN_clean_linker_2, # of connection points: 2
#     Edge 25, Type (0, 1), BuildingBlock: XUDNAN_clean_linker_2, # of connection points: 2
#     Edge 26, Type (0, 1), BuildingBlock: XUDNAN_clean_linker_2, # of connection points: 2
#     Edge 27, Type (0, 1), BuildingBlock: XUDNAN_clean_linker_2, # of connection points: 2
#     Edge 28, Type (0, 1), BuildingBlock: XUDNAN_clean_linker_2, # of connection points: 2
#     Edge 29, Type (0, 1), BuildingBlock: XUDNAN_clean_linker_2, # of connection points: 2
#     Edge 30, Type (0, 1), BuildingBlock: XUDNAN_clean_linker_2, # of connection points: 2
#     Edge 31, Type (0, 1), BuildingBlock: XUDNAN_clean_linker_2, # of connection points: 2
#     Edge 32, Type (0, 1), BuildingBlock: XUDNAN_clean_linker_2, # of connection points: 2
# Relax obj value: 0.036
# Max RMSD: 0.112
# Mean RMSD: 0.086
data_MOF--net-csq--node1-TAGTUT_clean_sbu_3--node2-KUFVIS_clean_linker_0--edge1-XUDNAN_clean_linker_2
_symmetry_space_group_name_H-M    P1
_symmetry_Int_Tables_number       1
_symmetry_cell_setting            triclinic
loop_
_symmetry_equiv_pos_as_xyz
'x, y, z'
_cell_length_a     54.357228
_cell_length_b     53.855296
_cell_length_c     17.994229
_cell_angle_alpha  92.532508
_cell_angle_beta   92.419727
_cell_angle_gamma 119.85354
loop_
_atom_site_label
_atom_site_type_symbol
_atom_site_fract_x
_atom_site_fract_y
_atom_site_fract_z
_atom_type_partial_charge
H0 H 0.34413 0.50662 0.18336 0.0
H1 H 0.26687 0.48748 0.2806 0.0
H2 H 0.27383 0.49664 0.04226 0.0
H3 H 0.22633 0.46523 0.03968 0.0
H4 H 0.1563 0.46576 0.13851 0.0
H5 H 0.23722 0.50491 0.26285 0.0
C6 C 0.32231 0.50219 0.17657 0.0
C7 C 0.31059 0.50163 0.10591 0.0
C8 C 0.30679 0.49768 0.23895 0.0
C9 C 0.27866 0.49176 0.23125 0.0
C10 C 0.26599 0.49118 0.16032 0.0
C11 C 0.28244 0.49628 0.09727 0.0
C12 C 0.23576 0.48499 0.15322 0.0
C13 C 0.21815 0.47094 0.0873 0.0
C14 C 0.18964 0.46417 0.08237 0.0
C15 C 0.17826 0.47061 0.14347 0.0
C16 C 0.19524 0.48516 0.20857 0.0
C17 C 0.22408 0.49283 0.21293 0.0
H18 H 0.67932 0.18546 0.10169 0.0
H19 H 0.75224 0.25073 0.23327 0.0
H20 H 0.74652 0.25077 0.99134 0.0
H21 H 0.77653 0.29663 0.0109 0.0
H22 H 0.86016 0.3464 0.12027 0.0
H23 H 0.79753 0.27542 0.22587 0.0
C24 C 0.69958 0.20539 0.10578 0.0
C25 C 0.71078 0.21796 0.04052 0.0
C26 C 0.71475 0.21667 0.17486 0.0
C27 C 0.74136 0.24197 0.17877 0.0
C28 C 0.75353 0.25536 0.11313 0.0
C29 C 0.7378 0.24255 0.04353 0.0
C30 C 0.78281 0.28162 0.11672 0.0
C31 C 0.79141 0.30002 0.05732 0.0
C32 C 0.81926 0.32343 0.05778 0.0
C33 C 0.83838 0.32891 0.11921 0.0
C34 C 0.83011 0.31241 0.1804 0.0
C35 C 0.80268 0.28853 0.17893 0.0
H36 H 0.52545 0.85306 0.10159 0.0
H37 H 0.53556 0.78563 0.18468 0.0
H38 H 0.53029 0.7927 0.94675 0.0
H39 H 0.55217 0.7665 0.94739 0.0
H40 H 0.53343 0.68541 0.02767 0.0
H41 H 0.51086 0.73905 0.15345 0.0
C42 C 0.52791 0.83455 0.09006 0.0
C43 C 0.52942 0.82596 0.01627 0.0
C44 C 0.53018 0.82011 0.1503 0.0
C45 C 0.53281 0.79584 0.13706 0.0
C46 C 0.53159 0.78467 0.06375 0.0
C47 C 0.5304 0.80032 0.0034 0.0
C48 C 0.53166 0.75686 0.05199 0.0
C49 C 0.54313 0.75101 0.98883 0.0
C50 C 0.54392 0.72534 0.98006 0.0
C51 C 0.53316 0.7054 0.03435 0.0
C52 C 0.52184 0.71062 0.09713 0.0
C53 C 0.52066 0.73599 0.10545 0.0
H54 H 0.85639 0.52046 0.01675 0.0
H55 H 0.79126 0.5193 0.14396 0.0
H56 H 0.78341 0.51524 0.90187 0.0
H57 H 0.73774 0.48894 0.91827 0.0
H58 H 0.67829 0.50434 0.02875 0.0
H59 H 0.76226 0.53771 0.13278 0.0
C60 C 0.83536 0.51807 0.01814 0.0
C61 C 0.82033 0.51598 0.95138 0.0
C62 C 0.82529 0.51991 0.08688 0.0
C63 C 0.79887 0.51842 0.08985 0.0
C64 C 0.78261 0.5157 0.0234 0.0
C65 C 0.79424 0.51549 0.95397 0.0
C66 C 0.75371 0.5129 0.02636 0.0
C67 C 0.73311 0.49837 0.96616 0.0
C68 C 0.70647 0.49647 0.96542 0.0
C69 C 0.69927 0.50678 0.02861 0.0
C70 C 0.71918 0.52211 0.08896 0.0
C71 C 0.74651 0.5251 0.08757 0.0
H72 H 0.32492 0.8776 0.03733 0.0
H73 H 0.2839 0.81698 0.19927 0.0
H74 H 0.23955 0.81054 0.98597 0.0
H75 H 0.2227 0.76504 0.98982 0.0
H76 H 0.17433 0.70168 0.13955 0.0
H77 H 0.24124 0.78404 0.22859 0.0
C78 C 0.30618 0.85877 0.05402 0.0
C79 C 0.28193 0.84542 0.0052 0.0
C80 C 0.30602 0.85047 0.12634 0.0
C81 C 0.28303 0.82426 0.14474 0.0
C82 C 0.25915 0.80809 0.09238 0.0
C83 C 0.25836 0.8202 0.02423 0.0
C84 C 0.23526 0.7788 0.10707 0.0
C85 C 0.21839 0.75914 0.0463 0.0
C86 C 0.19578 0.73168 0.05701 0.0
C87 C 0.19084 0.72322 0.12988 0.0
C88 C 0.20732 0.74193 0.19119 0.0
C89 C 0.22927 0.76976 0.18016 0.0
H90 H 0.48142 0.33126 0.15972 0.0
H91 H 0.48776 0.26827 0.283 0.0
H92 H 0.49803 0.27068 0.04529 0.0
H93 H 0.52623 0.25403 0.07291 0.0
H94 H 0.51478 0.17795 0.16806 0.0
H95 H 0.47753 0.22363 0.26647 0.0
C96 C 0.48436 0.31281 0.16103 0.0
C97 C 0.49056 0.30285 0.09546 0.0
C98 C 0.48231 0.29985 0.22813 0.0
C99 C 0.48793 0.2771 0.23015 0.0
C100 C 0.49405 0.26616 0.16502 0.0
C101 C 0.49438 0.27887 0.09705 0.0
C102 C 0.50062 0.24208 0.16834 0.0
C103 C 0.51698 0.23859 0.11421 0.0
C104 C 0.52139 0.215 0.11182 0.0
C105 C 0.51147 0.19615 0.16866 0.0
C106 C 0.49633 0.19952 0.22542 0.0
C107 C 0.49054 0.22223 0.22453 0.0
C108 C 0.05735 0.49864 0.51641 0.0
C109 C 0.04213 0.46008 0.77274 0.0
C110 C 0.95818 0.45422 0.74678 0.0
Mg111 Mg 0.03283 0.53429 0.43163 0.0
Mg112 Mg 0.01935 0.57817 0.5305 0.0
O113 O 0.01045 0.54006 0.50942 0.0
Mg114 Mg 0.01718 0.52074 0.59236 0.0
O115 O 0.02461 0.49937 0.66915 0.0
Mg116 Mg 1.00467 0.45947 0.61858 0.0
Mg117 Mg 0.02004 0.50362 0.77018 0.0
C118 C 0.97707 0.54694 0.65448 0.0
O119 O 0.04937 0.56255 0.66122 0.0
O120 O 0.00922 0.55031 0.35184 0.0
O121 O 0.04266 0.55047 0.78048 0.0
O122 O 0.0715 0.5807 0.45276 0.0
O123 O 1.00268 0.5813 0.42518 0.0
O124 O 0.06419 0.60766 0.53651 0.0
O125 O 0.98567 0.47724 0.5322 0.0
O126 O 0.99556 0.48742 0.41432 0.0
C127 C 0.98153 0.46973 0.4624 0.0
C128 C 0.99979 0.56785 0.36213 0.0
O129 O 0.98174 0.52561 0.65135 0.0
O130 O 0.02833 0.4478 0.70974 0.0
O131 O 0.99186 0.56979 0.62074 0.0
O132 O 0.96577 0.44524 0.68992 0.0
O133 O 0.04222 0.4819 0.80457 0.0
O134 O 0.97539 0.47766 0.7848 0.0
O135 O 0.05142 0.51875 0.52534 0.0
O136 O 0.04329 0.47498 0.54715 0.0
C137 C 0.0803 0.60411 0.49318 0.0
C138 C 0.05402 0.5691 0.732 0.0
C139 C 0.50457 0.05436 0.49684 0.0
C140 C 0.59465 0.04868 0.43364 0.0
C141 C 0.54515 0.96096 0.50737 0.0
Mg142 Mg 0.46137 0.023 0.62214 0.0
Mg143 Mg 0.48011 1.00284 0.77574 0.0
O144 O 0.477 1.00025 0.67063 0.0
Mg145 Mg 0.5116 0.01321 0.61392 0.0
O146 O 0.54454 0.0264 0.55204 0.0
Mg147 Mg 0.52416 0.00776 0.45263 0.0
Mg148 Mg 0.57487 0.02086 0.5835 0.0
C149 C 0.51403 0.96991 0.73729 0.0
O150 O 0.54375 0.04628 0.70554 0.0
O151 O 0.42101 0.99577 0.68378 0.0
O152 O 0.58367 0.04386 0.69263 0.0
O153 O 0.48095 0.05879 0.71587 0.0
O154 O 0.43455 0.98191 0.78671 0.0
O155 O 0.50081 0.04808 0.81079 0.0
O156 O 0.48309 0.98273 0.51479 0.0
O157 O 0.44545 0.98856 0.5269 0.0
C158 C 0.45796 0.97705 0.4931 0.0
C159 C 0.41535 0.98199 0.74284 0.0
O160 O 0.51779 0.97837 0.67069 0.0
O161 O 0.56859 0.03691 0.40695 0.0
O162 O 0.5027 0.9786 0.7859 0.0
O163 O 0.53299 0.97058 0.46448 0.0
O164 O 0.60164 0.04448 0.49874 0.0
O165 O 0.56151 0.97605 0.56419 0.0
O166 O 0.50282 0.04655 0.5635 0.0
O167 O 0.51335 0.04383 0.44619 0.0
C168 C 0.49601 0.0659 0.77772 0.0
C169 C 0.56978 0.05414 0.72559 0.0
C170 C 0.54272 0.57673 0.70598 0.0
C171 C 0.45935 0.49557 0.84163 0.0
C172 C 0.49359 0.44182 0.75904 0.0
Mg173 Mg 0.56912 0.57108 0.55366 0.0
Mg174 Mg 0.53136 0.51831 0.42409 0.0
O175 O 0.5455 0.52886 0.52431 0.0
Mg176 Mg 0.51942 0.51663 0.60724 0.0
O177 O 0.49515 0.50625 0.69267 0.0
Mg178 Mg 0.52395 0.51516 0.777 0.0
Mg179 Mg 0.46259 0.46943 0.68659 0.0
C180 C 0.49809 0.45822 0.49832 0.0
O181 O 0.48111 0.51262 0.53902 0.0
O182 O 0.59947 0.57119 0.46495 0.0
O183 O 0.44416 0.47325 0.58048 0.0
O184 O 0.54485 0.58359 0.46691 0.0
O185 O 0.5728 0.53421 0.37979 0.0
O186 O 0.51382 0.54505 0.39355 0.0
O187 O 0.55508 0.51865 0.68474 0.0
O188 O 0.59075 0.55683 0.6387 0.0
C189 C 0.58174 0.5363 0.68208 0.0
C190 C 0.59686 0.55535 0.40608 0.0
O191 O 0.50372 0.47031 0.56471 0.0
O192 O 0.4868 0.5105 0.85055 0.0
O193 O 0.50432 0.47233 0.43939 0.0
O194 O 0.51057 0.46715 0.78874 0.0
O195 O 0.44618 0.47789 0.78472 0.0
O196 O 0.47436 0.43734 0.70836 0.0
O197 O 0.5366 0.56404 0.64065 0.0
O198 O 0.53854 0.56267 0.76413 0.0
C199 C 0.52471 0.57158 0.41512 0.0
C200 C 0.45452 0.49374 0.53656 0.0
H201 H 0.14899 0.44954 0.28115 0.0
H202 H 0.21105 0.53927 0.26703 0.0
H203 H 0.18303 0.55308 0.34704 0.0
H204 H 0.08871 0.45607 0.26785 0.0
H205 H 0.06931 0.42995 0.33323 0.0
H206 H 0.09568 0.42715 0.28212 0.0
H207 H 0.12232 0.42768 0.40562 0.0
H208 H 0.09568 0.42987 0.4572 0.0
H209 H 0.13269 0.45642 0.47681 0.0
H210 H 0.14452 0.55662 0.41589 0.0
H211 H 0.10262 0.54964 0.4814 0.0
H212 H 0.06698 0.45736 0.45305 0.0
C213 C 0.15707 0.47207 0.29686 0.0
C214 C 0.18229 0.49339 0.26885 0.0
C215 C 0.19205 0.52267 0.28923 0.0
C216 C 0.17612 0.53065 0.33399 0.0
C217 C 0.15073 0.50905 0.35855 0.0
C218 C 0.14164 0.48033 0.34196 0.0
C219 C 0.11328 0.46121 0.37305 0.0
C220 C 0.09041 0.4425 0.31031 0.0
C221 C 0.11618 0.44271 0.43167 0.0
C222 C 0.10744 0.48358 0.4085 0.0
C223 C 0.12915 0.51108 0.39931 0.0
C224 C 0.12765 0.53516 0.42432 0.0
C225 C 0.10365 0.531 0.46093 0.0
C226 C 0.08158 0.50298 0.47275 0.0
C227 C 0.0836 0.47907 0.44566 0.0
H228 H 0.66038 0.19045 0.21726 0.0
H229 H 0.74363 0.20099 0.27227 0.0
H230 H 0.72178 0.15896 0.34773 0.0
H231 H 0.62709 0.15999 0.39407 0.0
H232 H 0.59364 0.13555 0.34307 0.0
H233 H 0.61675 0.17006 0.30914 0.0
H234 H 0.61553 0.14444 0.18266 0.0
H235 H 0.59348 0.10982 0.21697 0.0
H236 H 0.62692 0.1182 0.18042 0.0
H237 H 0.69008 0.11181 0.40152 0.0
H238 H 0.65145 0.0666 0.44346 0.0
H239 H 0.58887 0.08487 0.34218 0.0
C240 C 0.67412 0.18458 0.24768 0.0
C241 C 0.70369 0.19899 0.23924 0.0
C242 C 0.72101 0.19057 0.27908 0.0
C243 C 0.70871 0.16647 0.32119 0.0
C244 C 0.67917 0.15122 0.32277 0.0
C245 C 0.66214 0.16028 0.28824 0.0
C246 C 0.63087 0.13873 0.29187 0.0
C247 C 0.61623 0.15186 0.33727 0.0
C248 C 0.61584 0.12712 0.21331 0.0
C249 C 0.63292 0.11578 0.33251 0.0
C250 C 0.66092 0.12347 0.35043 0.0
C251 C 0.66808 0.10567 0.38824 0.0
C252 C 0.64603 0.07992 0.41111 0.0
C253 C 0.61719 0.07206 0.39519 0.0
C254 C 0.61067 0.08996 0.35375 0.0
H255 H 0.55151 0.71244 0.22471 0.0
H256 H 0.47222 0.65968 0.09174 0.0
H257 H 0.46108 0.61929 0.17054 0.0
H258 H 0.56936 0.66023 0.23852 0.0
H259 H 0.58546 0.67063 0.33261 0.0
H260 H 0.58458 0.69691 0.27609 0.0
H261 H 0.55889 0.70937 0.37661 0.0
H262 H 0.55996 0.68328 0.43407 0.0
H263 H 0.52648 0.6812 0.40907 0.0
H264 H 0.46224 0.58274 0.25132 0.0
H265 H 0.47505 0.55343 0.32857 0.0
H266 H 0.5538 0.63008 0.40936 0.0
C267 C 0.53123 0.69278 0.2147 0.0
C268 C 0.51221 0.68929 0.15399 0.0
C269 C 0.48655 0.66287 0.13955 0.0
C270 C 0.48016 0.63985 0.18382 0.0
C271 C 0.49973 0.64362 0.24222 0.0
C272 C 0.52464 0.66956 0.25822 0.0
C273 C 0.54354 0.66713 0.31847 0.0
C274 C 0.57243 0.67413 0.28966 0.0
C275 C 0.54744 0.68639 0.38873 0.0
C276 C 0.52585 0.63562 0.33222 0.0
C277 C 0.50052 0.62247 0.28828 0.0
C278 C 0.48178 0.59295 0.28693 0.0
C279 C 0.48929 0.57643 0.33077 0.0
C280 C 0.51534 0.58943 0.37544 0.0
C281 C 0.53349 0.61953 0.377 0.0
H282 H 0.84986 0.49005 0.1373 0.0
H283 H 0.84817 0.56911 0.17605 0.0
H284 H 0.89564 0.59151 0.24389 0.0
H285 H 0.89145 0.49584 0.3164 0.0
H286 H 0.91013 0.48073 0.26923 0.0
H287 H 0.8742 0.47014 0.23712 0.0
H288 H 0.89126 0.4849 0.10524 0.0
H289 H 0.92738 0.4965 0.13799 0.0
H290 H 0.91897 0.52107 0.09398 0.0
H291 H 0.94576 0.6074 0.28769 0.0
H292 H 0.99096 0.6123 0.33815 0.0
H293 H 0.96041 0.52294 0.26843 0.0
C294 C 0.85887 0.51152 0.16395 0.0
C295 C 0.84541 0.52785 0.15268 0.0
C296 C 0.85798 0.55617 0.18582 0.0
C297 C 0.88514 0.56919 0.22299 0.0
C298 C 0.89902 0.55335 0.22684 0.0
C299 C 0.88597 0.52482 0.20068 0.0
C300 C 0.90603 0.51305 0.20846 0.0
C301 C 0.8948 0.48851 0.26096 0.0
C302 C 0.91122 0.50332 0.13187 0.0
C303 C 0.93251 0.5395 0.2428 0.0
C304 C 0.92808 0.56259 0.25174 0.0
C305 C 0.94936 0.5894 0.28199 0.0
C306 C 0.9751 0.59209 0.30941 0.0
C307 C 0.97913 0.56802 0.30704 0.0
C308 C 0.95814 0.54183 0.26975 0.0
H309 H 0.33848 0.84266 0.23937 0.0
H310 H 0.32466 0.90723 0.13979 0.0
H311 H 0.36836 0.94529 0.20535 0.0
H312 H 0.36136 0.88352 0.42137 0.0
H313 H 0.38667 0.87229 0.44567 0.0
H314 H 0.35571 0.84929 0.3841 0.0
H315 H 0.38861 0.8479 0.28572 0.0
H316 H 0.41962 0.87171 0.34648 0.0
H317 H 0.41586 0.88107 0.25348 0.0
H318 H 0.41368 0.97651 0.27202 0.0
H319 H 0.45031 1.00132 0.37551 0.0
H320 H 0.4333 0.91933 0.45155 0.0
C321 C 0.34463 0.8648 0.23205 0.0
C322 C 0.32894 0.87187 0.18095 0.0
C323 C 0.33709 0.90118 0.1754 0.0
C324 C 0.362 0.92307 0.21211 0.0
C325 C 0.37809 0.91557 0.25756 0.0
C326 C 0.3692 0.88739 0.2713 0.0
C327 C 0.38877 0.88624 0.33237 0.0
C328 C 0.37214 0.87201 0.3999 0.0
C329 C 0.40411 0.8708 0.30268 0.0
C330 C 0.40956 0.91815 0.35049 0.0
C331 C 0.40345 0.93436 0.30383 0.0
C332 C 0.41876 0.9642 0.30928 0.0
C333 C 0.43969 0.9781 0.36761 0.0
C334 C 0.44467 0.96216 0.42028 0.0
C335 C 0.43028 0.93184 0.41041 0.0
H336 H 0.44587 0.32077 0.23684 0.0
H337 H 0.50569 0.30761 0.37252 0.0
H338 H 0.50383 0.33817 0.47539 0.0
H339 H 0.48282 0.39066 0.26826 0.0
H340 H 0.45363 0.39764 0.26691 0.0
H341 H 0.44935 0.36595 0.21771 0.0
H342 H 0.40574 0.3343 0.29134 0.0
H343 H 0.40979 0.36615 0.34079 0.0
H344 H 0.40908 0.33778 0.39189 0.0
H345 H 0.5045 0.37824 0.55151 0.0
H346 H 0.51294 0.42696 0.58487 0.0
H347 H 0.45999 0.42022 0.38959 0.0
C348 C 0.45803 0.32367 0.28891 0.0
C349 C 0.47607 0.31189 0.29616 0.0
C350 C 0.49133 0.31594 0.3656 0.0
C351 C 0.49041 0.33337 0.42454 0.0
C352 C 0.47433 0.34674 0.41298 0.0
C353 C 0.45845 0.3421 0.34641 0.0
C354 C 0.44891 0.364 0.3396 0.0
C355 C 0.45933 0.38053 0.26904 0.0
C356 C 0.41645 0.34969 0.34103 0.0
C357 C 0.46371 0.38303 0.41 0.0
C358 C 0.47689 0.37185 0.45371 0.0
C359 C 0.49388 0.38691 0.51837 0.0
C360 C 0.49858 0.41457 0.53686 0.0
C361 C 0.48718 0.42715 0.48924 0.0
C362 C 0.46875 0.41083 0.4268 0.0
H363 H 0.5523 0.88479 0.02436 0.0
H364 H 0.50781 0.80947 0.86777 0.0
H365 H 0.50541 0.84006 0.77248 0.0
H366 H 0.50649 0.91082 0.98047 0.0
H367 H 0.53366 0.94809 -0.00449 0.0
H368 H 0.53692 0.92147 0.04507 0.0
H369 H 0.58629 0.93836 0.99412 0.0
H370 H 0.58309 0.96496 0.9439 0.0
H371 H 0.58961 0.93912 0.89487 0.0
H372 H 0.5056 0.87965 0.69581 0.0
H373 H 0.50241 0.92121 0.65313 0.0
H374 H 0.53946 0.96732 0.86858 0.0
C375 C 0.54176 0.8743 0.97049 0.0
C376 C 0.52998 0.8443 0.95478 0.0
C377 C 0.5174 0.8323 0.88185 0.0
C378 C 0.51582 0.84957 0.82718 0.0
C379 C 0.52664 0.8788 0.8462 0.0
C380 C 0.53905 0.89088 0.91667 0.0
C381 C 0.54589 0.92178 0.92721 0.0
C382 C 0.52977 0.92576 0.99079 0.0
C383 C 0.57814 0.94226 0.94081 0.0
C384 C 0.53486 0.92524 0.85208 0.0
C385 C 0.52468 0.90059 0.80501 0.0
C386 C 0.51347 0.89894 0.73248 0.0
C387 C 0.51186 0.92269 0.70856 0.0
C388 C 0.52059 0.94736 0.75777 0.0
C389 C 0.53262 0.9487 0.8299 0.0
H390 H 0.64797 0.46661 0.94311 0.0
H391 H 0.72507 0.51456 0.8295 0.0
H392 H 0.69813 0.523 0.73143 0.0
H393 H 0.59464 0.44129 0.76228 0.0
H394 H 0.57004 0.4452 0.81896 0.0
H395 H 0.59351 0.43377 0.8588 0.0
H396 H 0.60995 0.47626 0.96175 0.0
H397 H 0.58842 0.48852 0.91583 0.0
H398 H 0.6262 0.51242 0.93325 0.0
H399 H 0.66872 0.53987 0.67247 0.0
H400 H 0.63507 0.55568 0.63715 0.0
H401 H 0.57559 0.49821 0.78788 0.0
C402 C 0.65883 0.47764 0.89555 0.0
C403 C 0.6887 0.4902 0.89457 0.0
C404 C 0.70222 0.50443 0.83145 0.0
C405 C 0.68707 0.5096 0.77554 0.0
C406 C 0.65837 0.49998 0.78296 0.0
C407 C 0.64401 0.4834 0.83985 0.0
C408 C 0.61435 0.47947 0.84119 0.0
C409 C 0.59175 0.44807 0.81899 0.0
C410 C 0.60948 0.48979 0.91751 0.0
C411 C 0.61544 0.49873 0.78116 0.0
C412 C 0.64083 0.5098 0.74743 0.0
C413 C 0.64835 0.53058 0.69647 0.0
C414 C 0.62916 0.53977 0.67779 0.0
C415 C 0.60255 0.52816 0.70975 0.0
C416 C 0.59562 0.50728 0.76209 0.0
H417 H 0.13846 0.6925 0.05196 0.0
H418 H 0.2108 0.72496 0.91547 0.0
H419 H 0.17984 0.69156 0.8104 0.0
H420 H 0.11249 0.62034 0.99319 0.0
H421 H 0.07557 0.61009 -0.00294 0.0
H422 H 0.10227 0.63982 0.05688 0.0
H423 H 0.08444 0.67265 0.00462 0.0
H424 H 0.05783 0.64299 0.94391 0.0
H425 H 0.08278 0.67586 0.90547 0.0
H426 H 0.14151 0.6524 0.72197 0.0
H427 H 0.10118 0.60689 0.66455 0.0
H428 H 0.05583 0.59726 0.86363 0.0
C429 C 0.148 0.69273 0.00022 0.0
C430 C 0.1772 0.71181 0.99242 0.0
C431 C 0.18842 0.71129 0.9229 0.0
C432 C 0.17099 0.69226 0.86269 0.0
C433 C 0.14243 0.67363 0.87287 0.0
C434 C 0.13114 0.67348 0.9403 0.0
C435 C 0.10072 0.64923 0.93991 0.0
C436 C 0.0976 0.62866 0.0003 0.0
C437 C 0.08024 0.66089 0.949 0.0
C438 C 0.09688 0.63524 0.86232 0.0
C439 C 0.12087 0.65009 0.82366 0.0
C440 C 0.12256 0.64069 0.75158 0.0
C441 C 0.09951 0.61492 0.71926 0.0
C442 C 0.07547 0.59864 0.75981 0.0
C443 C 0.07395 0.60935 0.83142 0.0
H444 H 0.55163 0.18615 0.10537 0.0
H445 H 0.51431 0.22442 0.96554 0.0
H446 H 0.51685 0.19763 0.85604 0.0
H447 H 0.59011 0.16786 0.95544 0.0
H448 H 0.57887 0.13338 0.99127 0.0
H449 H 0.58693 0.16397 0.05403 0.0
H450 H 0.53724 0.13619 0.10436 0.0
H451 H 0.52856 0.10547 0.04259 0.0
H452 H 0.50601 0.12117 0.04024 0.0
H453 H 0.50903 0.15788 0.77052 0.0
H454 H 0.49245 0.10931 0.71516 0.0
H455 H 0.52754 0.09042 0.91177 0.0
C456 C 0.54465 0.18953 0.0515 0.0
C457 C 0.53224 0.20715 0.04507 0.0
C458 C 0.52425 0.21149 0.97295 0.0
C459 C 0.52547 0.19611 0.90986 0.0
C460 C 0.53449 0.17629 0.91957 0.0
C461 C 0.54427 0.17311 0.98866 0.0
C462 C 0.54623 0.14592 0.98782 0.0
C463 C 0.57739 0.15322 -0.00227 0.0
C464 C 0.52844 0.12604 0.04719 0.0
C465 C 0.53359 0.13311 0.90954 0.0
C466 C 0.52822 0.15163 0.87026 0.0
C467 C 0.51378 0.1435 0.79994 0.0
C468 C 0.50414 0.11564 0.76933 0.0
C469 C 0.50847 0.09589 0.80944 0.0
C470 C 0.52402 0.10505 0.8797 0.0
H471 H 0.31414 0.46223 0.01408 0.0
H472 H 0.35217 0.55347 0.07034 0.0
H473 H 0.39569 0.56207 0.01103 0.0
H474 H 0.37314 0.45734 0.05486 0.0
H475 H 0.36796 0.43166 0.97944 0.0
H476 H 0.33782 0.43258 0.01397 0.0
H477 H 0.32255 0.43989 0.8822 0.0
H478 H 0.35192 0.4377 0.84639 0.0
H479 H 0.34801 0.46843 0.83078 0.0
H480 H 0.43796 0.55956 0.96547 0.0
H481 H 0.47196 0.54744 0.90993 0.0
H482 H 0.40579 0.45794 0.87988 0.0
C483 C 0.33095 0.48412 0.0096 0.0
C484 C 0.3295 0.50731 0.04447 0.0
C485 C 0.35254 0.53559 0.04142 0.0
C486 C 0.37752 0.54059 0.00907 0.0
C487 C 0.379 0.51706 0.97933 0.0
C488 C 0.35597 0.48947 0.97695 0.0
C489 C 0.36351 0.46781 0.94484 0.0
C490 C 0.36042 0.44608 0.00169 0.0
C491 C 0.34543 0.45257 0.87169 0.0
C492 C 0.39447 0.48742 0.93099 0.0
C493 C 0.40315 0.51571 0.9521 0.0
C494 C 0.43124 0.53751 0.94757 0.0
C495 C 0.45055 0.53038 0.91712 0.0
C496 C 0.44157 0.50176 0.89089 0.0
C497 C 0.4133 0.48002 0.89961 0.0
H498 H 0.85631 0.38134 0.06494 0.0
H499 H 0.80649 0.30772 0.90661 0.0
H500 H 0.83155 0.33724 0.80387 0.0
H501 H 0.87006 0.44059 0.94858 0.0
H502 H 0.90639 0.46086 0.98884 0.0
H503 H 0.87873 0.43589 0.04265 0.0
H504 H 0.90886 0.41147 0.06566 0.0
H505 H 0.93559 0.43579 0.0087 0.0
H506 H 0.91897 0.3976 0.98689 0.0
H507 H 0.86797 0.37224 0.72214 0.0
H508 H 0.91218 0.40809 0.67028 0.0
H509 H 0.94048 0.45683 0.88549 0.0
C510 C 0.85023 0.37137 0.00861 0.0
C511 C 0.82947 0.34206 0.99419 0.0
C512 C 0.822 0.3302 0.91929 0.0
C513 C 0.83628 0.34681 0.86054 0.0
C514 C 0.85803 0.37513 0.87775 0.0
C515 C 0.86496 0.38717 0.95027 0.0
C516 C 0.89205 0.41595 0.95693 0.0
C517 C 0.88644 0.43977 0.98576 0.0
C518 C 0.91521 0.41513 0.00748 0.0
C519 C 0.89939 0.41858 0.87646 0.0
C520 C 0.87944 0.39492 0.8314 0.0
C521 C 0.88341 0.39109 0.7566 0.0
C522 C 0.90866 0.41152 0.72771 0.0
C523 C 0.92974 0.4354 0.77365 0.0
C524 C 0.92456 0.43921 0.84841 0.0
H525 H 0.84524 0.4849 0.9098 0.0
H526 H 0.8297 0.55215 0.83981 0.0
H527 H 0.86593 0.56471 0.74772 0.0
H528 H 0.91964 0.52701 0.91007 0.0
H529 H 0.92318 0.49623 0.88505 0.0
H530 H 0.89308 0.49214 0.93336 0.0
H531 H 0.86139 0.45349 0.82277 0.0
H532 H 0.89218 0.46126 0.77277 0.0
H533 H 0.86387 0.46497 0.72945 0.0
H534 H 0.90982 0.57584 0.68261 0.0
H535 H 0.95368 0.58102 0.63554 0.0
H536 H 0.94193 0.50687 0.74993 0.0
C537 C 0.84864 0.5015 0.87284 0.0
C538 C 0.83448 0.51741 0.88141 0.0
C539 C 0.83984 0.53932 0.83318 0.0
C540 C 0.86065 0.54679 0.78136 0.0
C541 C 0.87571 0.53202 0.77842 0.0
C542 C 0.86963 0.50951 0.82206 0.0
C543 C 0.89097 0.49933 0.81496 0.0
C544 C 0.9077 0.50388 0.89026 0.0
C545 C 0.87622 0.46789 0.78317 0.0
C546 C 0.9101 0.51951 0.76024 0.0
C547 C 0.90104 0.53837 0.74051 0.0
C548 C 0.91671 0.56079 0.69645 0.0
C549 C 0.9419 0.56369 0.67071 0.0
C550 C 0.95144 0.54427 0.68867 0.0
C551 C 0.93519 0.52188 0.73433 0.0
H552 H 0.29317 0.89959 -0.00139 0.0
H553 H 0.27585 0.8243 0.86002 0.0
H554 H 0.29912 0.8548 0.7574 0.0
H555 H 0.30101 0.95123 0.84385 0.0
H556 H 0.33115 0.97987 0.89867 0.0
H557 H 0.30168 0.95282 0.94424 0.0
H558 H 0.33675 0.94271 0.02048 0.0
H559 H 0.36611 0.96874 0.974 0.0
H560 H 0.35889 0.9322 0.97204 0.0
H561 H 0.33545 0.89291 0.68646 0.0
H562 H 0.38185 0.9332 0.65721 0.0
H563 H 0.38295 0.98331 0.85319 0.0
C564 C 0.29265 0.88952 0.94464 0.0
C565 C 0.28257 0.85974 0.93645 0.0
C566 C 0.28292 0.84701 0.86659 0.0
C567 C 0.29635 0.86433 0.80829 0.0
C568 C 0.30943 0.89418 0.82146 0.0
C569 C 0.30751 0.90668 0.88825 0.0
C570 C 0.32945 0.93842 0.89809 0.0
C571 C 0.31495 0.95666 0.89605 0.0
C572 C 0.34893 0.9459 0.97033 0.0
C573 C 0.34551 0.94145 0.82943 0.0
C574 C 0.33273 0.91613 0.78396 0.0
C575 C 0.34516 0.91298 0.72068 0.0
C576 C 0.37151 0.93588 0.7046 0.0
C577 C 0.38551 0.96118 0.75288 0.0
C578 C 0.37218 0.96425 0.81506 0.0
H579 H 0.51928 0.36084 0.08484 0.0
H580 H 0.46726 0.28044 0.95192 0.0
H581 H 0.46618 0.30749 0.84473 0.0
H582 H 0.48184 0.3942 0.02308 0.0
H583 H 0.51283 0.42949 0.02581 0.0
H584 H 0.51214 0.40368 0.08701 0.0
H585 H 0.55839 0.41034 0.03648 0.0
H586 H 0.55916 0.43516 0.9714 0.0
H587 H 0.55963 0.40323 0.93848 0.0
H588 H 0.46607 0.34412 0.75732 0.0
H589 H 0.4683 0.38585 0.69832 0.0
H590 H 0.52047 0.44153 0.89086 0.0
C591 C 0.50794 0.34883 0.03288 0.0
C592 C 0.49328 0.31846 0.02688 0.0
C593 C 0.4789 0.30368 0.95765 0.0
C594 C 0.47804 0.31891 0.89666 0.0
C595 C 0.49185 0.34889 0.9057 0.0
C596 C 0.50667 0.3636 0.97222 0.0
C597 C 0.51815 0.39555 0.97038 0.0
C598 C 0.50548 0.40635 0.03008 0.0
C599 C 0.55079 0.41208 0.97968 0.0
C600 C 0.50729 0.39675 0.89252 0.0
C601 C 0.49214 0.36968 0.8558 0.0
C602 C 0.47827 0.3654 0.78529 0.0
C603 C 0.47959 0.38925 0.75223 0.0
C604 C 0.49472 0.41709 0.78952 0.0
C605 C 0.50912 0.42071 0.86003 0.0
H606 H 0.18751 0.49837 0.98291 0.0
H607 H 0.14972 0.40939 0.03118 0.0
H608 H 0.10952 0.39663 0.93801 0.0
H609 H 0.12806 0.50035 0.99007 0.0
H610 H 0.13383 0.52474 0.91863 0.0
H611 H 0.16369 0.52572 0.96811 0.0
H612 H 0.18212 0.51753 0.84421 0.0
H613 H 0.15271 0.51739 0.79361 0.0
H614 H 0.1587 0.48754 0.7794 0.0
H615 H 0.06944 0.39547 0.85605 0.0
H616 H 0.03388 0.40629 0.79716 0.0
H617 H 0.09683 0.49685 0.81657 0.0
C618 C 0.17166 0.47598 0.96998 0.0
C619 C 0.17207 0.45463 0.01131 0.0
C620 C 0.15015 0.42574 -0.00257 0.0
C621 C 0.1272 0.41842 0.94509 0.0
C622 C 0.12649 0.44036 0.90815 0.0
C623 C 0.14839 0.46859 0.91975 0.0
C624 C 0.14054 0.48899 0.88503 0.0
C625 C 0.14158 0.51122 0.94399 0.0
C626 C 0.15965 0.50372 0.82178 0.0
C627 C 0.11043 0.46811 0.85494 0.0
C628 C 0.10281 0.44006 0.86654 0.0
C629 C 0.07535 0.41734 0.84596 0.0
C630 C 0.05528 0.42361 0.81303 0.0
C631 C 0.06269 0.45237 0.80371 0.0
C632 C 0.09063 0.47468 0.82409 0.0
H633 H 0.70815 0.17157 0.96924 0.0
H634 H 0.67273 0.22782 0.96393 0.0
H635 H 0.63171 0.19126 0.88153 0.0
H636 H 0.68143 0.1363 0.77472 0.0
H637 H 0.67484 0.10226 0.80553 0.0
H638 H 0.70346 0.13518 0.85076 0.0
H639 H 0.68215 0.11859 0.97753 0.0
H640 H 0.65275 0.08625 0.93257 0.0
H641 H 0.64618 0.11036 0.98987 0.0
H642 H 0.59084 0.14518 0.81853 0.0
H643 H 0.55827 0.09733 0.75569 0.0
H644 H 0.62008 0.07078 0.80663 0.0
C645 C 0.69252 0.17672 0.94705 0.0
C646 C 0.69388 0.20273 0.9705 0.0
C647 C 0.67241 0.20836 0.94412 0.0
C648 C 0.64881 0.18749 0.89867 0.0
C649 C 0.64708 0.16116 0.88088 0.0
C650 C 0.66878 0.15604 0.90248 0.0
C651 C 0.66105 0.12543 0.88036 0.0
C652 C 0.68139 0.12476 0.82449 0.0
C653 C 0.6605 0.10922 0.9492 0.0
C654 C 0.63144 0.11393 0.84395 0.0
C655 C 0.62364 0.13475 0.84526 0.0
C656 C 0.5969 0.12884 0.81656 0.0
C657 C 0.57827 0.10136 0.78229 0.0
C658 C 0.58641 0.08013 0.77713 0.0
C659 C 0.61314 0.08646 0.81002 0.0
H660 H 0.58207 0.7071 0.98001 0.0
H661 H 0.52829 0.72431 0.83267 0.0
H662 H 0.53389 0.69613 0.72925 0.0
H663 H 0.62653 0.69674 0.83059 0.0
H664 H 0.6252 0.66763 0.87941 0.0
H665 H 0.62677 0.69795 0.93091 0.0
H666 H 0.5813 0.66334 0.99397 0.0
H667 H 0.57924 0.63314 0.94227 0.0
H668 H 0.54942 0.63912 0.93647 0.0
H669 H 0.53424 0.65605 0.6541 0.0
H670 H 0.52783 0.60817 0.61827 0.0
H671 H 0.5779 0.61415 0.81892 0.0
C672 C 0.57277 0.70613 0.92477 0.0
C673 C 0.55491 0.71788 0.91386 0.0
C674 C 0.54248 0.71586 0.84166 0.0
C675 C 0.54551 0.69979 0.7827 0.0
C676 C 0.56123 0.68618 0.79702 0.0
C677 C 0.57503 0.6896 0.86643 0.0
C678 C 0.58522 0.66823 0.87352 0.0
C679 C 0.61787 0.68356 0.87889 0.0
C680 C 0.57304 0.64988 0.9404 0.0
C681 C 0.57291 0.65061 0.79997 0.0
C682 C 0.56025 0.66196 0.75502 0.0
C683 C 0.54472 0.64743 0.688 0.0
C684 C 0.54116 0.62023 0.66802 0.0
C685 C 0.55238 0.60764 0.71613 0.0
C686 C 0.56933 0.62353 0.78109 0.0
H687 H 0.47177 0.14125 0.20622 0.0
H688 H 0.50239 0.21107 0.37792 0.0
H689 H 0.49993 0.17806 0.4729 0.0
H690 H 0.42793 0.07952 0.32122 0.0
H691 H 0.43991 0.05766 0.27417 0.0
H692 H 0.43612 0.08416 0.22502 0.0
H693 H 0.48852 0.10691 0.19157 0.0
H694 H 0.49269 0.08091 0.24128 0.0
H695 H 0.51634 0.11868 0.26527 0.0
H696 H 0.50161 0.1389 0.54551 0.0
H697 H 0.50898 0.09944 0.58567 0.0
H698 H 0.48271 0.05817 0.36177 0.0
C699 C 0.47709 0.14942 0.2642 0.0
C700 C 0.48728 0.17877 0.28466 0.0
C701 C 0.49411 0.1886 0.36105 0.0
C702 C 0.49294 0.16999 0.41528 0.0
C703 C 0.48485 0.14165 0.39211 0.0
C704 C 0.47688 0.13145 0.3181 0.0
C705 C 0.47355 0.10196 0.30446 0.0
C706 C 0.44253 0.0795 0.27978 0.0
C707 C 0.494 0.10216 0.24733 0.0
C708 C 0.48185 0.09742 0.38172 0.0
C709 C 0.48751 0.12006 0.43227 0.0
C710 C 0.49686 0.12096 0.50642 0.0
C711 C 0.50097 0.09847 0.52883 0.0
C712 C 0.49646 0.07584 0.47674 0.0
C713 C 0.48631 0.0752 0.4028 0.0
H714 H 0.30988 0.45584 0.30973 0.0
H715 H 0.34049 0.54713 0.32139 0.0
H716 H 0.38178 0.55589 0.40432 0.0
H717 H 0.33776 0.45465 0.50974 0.0
H718 H 0.34612 0.42762 0.4785 0.0
H719 H 0.31606 0.42835 0.43477 0.0
H720 H 0.33674 0.4302 0.30683 0.0
H721 H 0.36755 0.43093 0.35005 0.0
H722 H 0.37182 0.45912 0.29229 0.0
H723 H 0.42468 0.5556 0.45518 0.0
H724 H 0.46141 0.54565 0.50615 0.0
H725 H 0.402 0.45408 0.47067 0.0
C726 C 0.32426 0.47737 0.33425 0.0
C727 C 0.32187 0.50081 0.31126 0.0
C728 C 0.34171 0.52897 0.34068 0.0
C729 C 0.36539 0.53413 0.38678 0.0
C730 C 0.36841 0.51077 0.40383 0.0
C731 C 0.34783 0.48281 0.3813 0.0
C732 C 0.35735 0.46184 0.40285 0.0
C733 C 0.33819 0.44194 0.45989 0.0
C734 C 0.35842 0.44452 0.33388 0.0
C735 C 0.38692 0.48249 0.43782 0.0
C736 C 0.39296 0.51061 0.43686 0.0
C737 C 0.41989 0.53365 0.4588 0.0
C738 C 0.44075 0.52777 0.48643 0.0
C739 C 0.43438 0.49909 0.49284 0.0
C740 C 0.40726 0.47619 0.4671 0.0
H741 H 0.83197 0.3443 0.30295 0.0
H742 H 0.87654 0.30624 0.19717 0.0
H743 H 0.91996 0.33853 0.27775 0.0
H744 H 0.8827 0.41132 0.3012 0.0
H745 H 0.87874 0.4254 0.3898 0.0
H746 H 0.849 0.39413 0.34252 0.0
H747 H 0.84338 0.36506 0.45775 0.0
H748 H 0.87276 0.39654 0.50666 0.0
H749 H 0.8735 0.36346 0.49765 0.0
H750 H 0.96061 0.3826 0.34152 0.0
H751 H 0.9944 0.43174 0.39674 0.0
H752 H 0.924 0.4411 0.46616 0.0
C753 C 0.85033 0.3415 0.30084 0.0
C754 C 0.8508 0.32222 0.24599 0.0
C755 C 0.87562 0.3202 0.24085 0.0
C756 C 0.90041 0.33865 0.28598 0.0
C757 C 0.89991 0.35882 0.33635 0.0
C758 C 0.87528 0.35989 0.34555 0.0
C759 C 0.88135 0.38612 0.39527 0.0
C760 C 0.87243 0.40536 0.35473 0.0
C761 C 0.86689 0.37726 0.4687 0.0
C762 C 0.91338 0.40056 0.40856 0.0
C763 C 0.92366 0.38431 0.37478 0.0
C764 C 0.95278 0.395 0.37056 0.0
C765 C 0.9718 0.42292 0.40149 0.0
C766 C 0.96161 0.43965 0.43664 0.0
C767 C 0.93215 0.42819 0.44142 0.0
H768 H 0.49311 0.83499 0.20495 0.0
H769 H 0.56951 0.83221 0.26669 0.0
H770 H 0.57574 0.86034 0.38549 0.0
H771 H 0.51867 0.90378 0.25444 0.0
H772 H 0.48689 0.90101 0.28967 0.0
H773 H 0.48414 0.87429 0.22155 0.0
H774 H 0.45553 0.83476 0.30987 0.0
H775 H 0.45866 0.86142 0.37982 0.0
H776 H 0.47048 0.83665 0.40273 0.0
H777 H 0.57943 0.89738 0.48196 0.0
H778 H 0.58063 0.93994 0.54396 0.0
H779 H 0.5018 0.91839 0.41867 0.0
C780 C 0.51056 0.83947 0.24486 0.0
C781 C 0.53078 0.83146 0.22719 0.0
C782 C 0.55357 0.83786 0.27994 0.0
C783 C 0.55723 0.85379 0.34751 0.0
C784 C 0.53763 0.86267 0.36176 0.0
C785 C 0.51446 0.85532 0.31216 0.0
C786 C 0.49883 0.87083 0.33434 0.0
C787 C 0.49708 0.88853 0.27131 0.0
C788 C 0.46911 0.84964 0.35809 0.0
C789 C 0.51813 0.88983 0.40049 0.0
C790 C 0.53988 0.88423 0.41724 0.0
C791 C 0.5621 0.90146 0.47067 0.0
C792 C 0.56263 0.92559 0.50566 0.0
C793 C 0.54137 0.93244 0.48577 0.0
C794 C 0.51829 0.91357 0.43512 0.0
H795 H 0.6847 0.54592 0.07708 0.0
H796 H 0.73375 0.52816 0.2411 0.0
H797 H 0.71273 0.54265 0.34191 0.0
H798 H 0.67989 0.60305 0.18253 0.0
H799 H 0.64326 0.5888 0.1493 0.0
H800 H 0.66715 0.58401 0.09173 0.0
H801 H 0.63291 0.52898 0.0813 0.0
H802 H 0.60895 0.53353 0.13864 0.0
H803 H 0.62234 0.51032 0.16515 0.0
H804 H 0.68227 0.55478 0.4247 0.0
H805 H 0.64278 0.55789 0.47986 0.0
H806 H 0.60851 0.55885 0.25901 0.0
C807 C 0.69125 0.54501 0.13405 0.0
C808 C 0.71075 0.53539 0.15065 0.0
C809 C 0.71914 0.53563 0.22645 0.0
C810 C 0.70717 0.54373 0.28416 0.0
C811 C 0.68667 0.55131 0.26521 0.0
C812 C 0.67869 0.55175 0.19168 0.0
C813 C 0.65337 0.55634 0.18471 0.0
C814 C 0.66141 0.58474 0.15002 0.0
C815 C 0.6279 0.53077 0.13984 0.0
C816 C 0.64778 0.55782 0.26594 0.0
C817 C 0.66778 0.55588 0.31182 0.0
C818 C 0.66667 0.55645 0.38916 0.0
C819 C 0.64426 0.55836 0.42002 0.0
C820 C 0.62281 0.55879 0.37354 0.0
C821 C 0.62481 0.5588 0.29567 0.0
H822 H 0.1664 0.73972 0.27626 0.0
H823 H 0.23152 0.71614 0.2666 0.0
H824 H 0.21026 0.6834 0.36671 0.0
H825 H 0.15604 0.73099 0.48723 0.0
H826 H 0.11832 0.7167 0.46948 0.0
H827 H 0.14295 0.74367 0.41279 0.0
H828 H 0.11636 0.71008 0.29429 0.0
H829 H 0.09203 0.68291 0.35016 0.0
H830 H 0.11211 0.67463 0.28646 0.0
H831 H 0.175 0.64437 0.43883 0.0
H832 H 0.13134 0.60597 0.4877 0.0
H833 H 0.09042 0.65663 0.45949 0.0
C834 C 0.17709 0.72898 0.29886 0.0
C835 C 0.20102 0.73098 0.26586 0.0
C836 C 0.21373 0.7155 0.29325 0.0
C837 C 0.20167 0.69676 0.34974 0.0
C838 C 0.17712 0.69408 0.37883 0.0
C839 C 0.16538 0.71036 0.35569 0.0
C840 C 0.13698 0.70078 0.38812 0.0
C841 C 0.13869 0.72445 0.44267 0.0
C842 C 0.11298 0.69155 0.32606 0.0
C843 C 0.13368 0.67541 0.42895 0.0
C844 C 0.15717 0.67201 0.42359 0.0
C845 C 0.15702 0.64746 0.44623 0.0
C846 C 0.13217 0.62572 0.47374 0.0
C847 C 0.10802 0.6289 0.47947 0.0
C848 C 0.10913 0.65438 0.4588 0.0
loop_
_geom_bond_atom_site_label_1
_geom_bond_atom_site_label_2
_geom_bond_distance
_geom_bond_site_symmetry_2
_ccdc_geom_bond_type
H0 C6 0.930 . S
H1 C9 0.931 . S
H2 C11 0.931 . S
H3 C13 0.930 . S
H4 C15 0.930 . S
H5 C17 0.931 . S
C6 H0 0.930 . S
C6 C7 1.380 . S
C6 C8 1.394 . S
C7 C6 1.380 . S
C7 C11 1.382 . S
C8 C6 1.394 . S
C8 C9 1.400 . S
C9 H1 0.931 . S
C9 C8 1.400 . S
C9 C10 1.375 . S
C10 C9 1.375 . S
C10 C11 1.415 . S
C10 C12 1.501 . S
C11 H2 0.931 . S
C11 C7 1.382 . S
C11 C10 1.415 . S
C12 C10 1.501 . S
C12 C13 1.384 . S
C12 C17 1.408 . S
C13 H3 0.930 . S
C13 C12 1.384 . S
C13 C14 1.389 . S
C14 C13 1.389 . S
C14 C15 1.405 . S
C15 H4 0.930 . S
C15 C14 1.405 . S
C15 C16 1.364 . S
C16 C15 1.364 . S
C16 C17 1.400 . S
C17 H5 0.931 . S
C17 C12 1.408 . S
C17 C16 1.400 . S
H18 C24 0.930 . S
H19 C27 0.931 . S
H20 C29 0.931 1_556 S
H21 C31 0.930 1_556 S
H22 C33 0.930 . S
H23 C35 0.931 . S
C24 H18 0.930 . S
C24 C25 1.380 . S
C24 C26 1.394 . S
C25 C24 1.380 . S
C25 C29 1.382 . S
C26 C24 1.394 . S
C26 C27 1.400 . S
C27 H19 0.931 . S
C27 C26 1.400 . S
C27 C28 1.375 . S
C28 C27 1.375 . S
C28 C29 1.415 . S
C28 C30 1.501 . S
C29 H20 0.931 1_554 S
C29 C25 1.382 . S
C29 C28 1.415 . S
C30 C28 1.501 . S
C30 C31 1.384 . S
C30 C35 1.408 . S
C31 H21 0.930 1_554 S
C31 C30 1.384 . S
C31 C32 1.389 . S
C32 C31 1.389 . S
C32 C33 1.405 . S
C33 H22 0.930 . S
C33 C32 1.405 . S
C33 C34 1.364 . S
C34 C33 1.364 . S
C34 C35 1.400 . S
C35 H23 0.931 . S
C35 C30 1.408 . S
C35 C34 1.400 . S
H36 C42 0.930 . S
H37 C45 0.931 . S
H38 C47 0.931 . S
H39 C49 0.930 . S
H40 C51 0.930 . S
H41 C53 0.931 . S
C42 H36 0.930 . S
C42 C43 1.380 1_554 S
C42 C44 1.394 . S
C43 C42 1.380 1_556 S
C43 C47 1.382 . S
C44 C42 1.394 . S
C44 C45 1.400 . S
C45 H37 0.931 . S
C45 C44 1.400 . S
C45 C46 1.375 . S
C46 C45 1.375 . S
C46 C47 1.415 1_554 S
C46 C48 1.501 . S
C47 H38 0.931 . S
C47 C43 1.382 . S
C47 C46 1.415 1_556 S
C48 C46 1.501 . S
C48 C49 1.384 1_554 S
C48 C53 1.408 . S
C49 H39 0.930 . S
C49 C48 1.384 1_556 S
C49 C50 1.389 . S
C50 C49 1.389 . S
C50 C51 1.405 1_556 S
C51 H40 0.930 . S
C51 C50 1.405 1_554 S
C51 C52 1.364 . S
C52 C51 1.364 . S
C52 C53 1.400 . S
C53 H41 0.931 . S
C53 C48 1.408 . S
C53 C52 1.400 . S
H54 C60 0.930 . S
H55 C63 0.931 . S
H56 C65 0.931 . S
H57 C67 0.930 . S
H58 C69 0.930 . S
H59 C71 0.931 . S
C60 H54 0.930 . S
C60 C61 1.380 1_554 S
C60 C62 1.394 . S
C61 C60 1.380 1_556 S
C61 C65 1.382 . S
C62 C60 1.394 . S
C62 C63 1.400 . S
C63 H55 0.931 . S
C63 C62 1.400 . S
C63 C64 1.375 . S
C64 C63 1.375 . S
C64 C65 1.415 1_554 S
C64 C66 1.501 . S
C65 H56 0.931 . S
C65 C61 1.382 . S
C65 C64 1.415 1_556 S
C66 C64 1.501 . S
C66 C67 1.384 1_554 S
C66 C71 1.408 . S
C67 H57 0.930 . S
C67 C66 1.384 1_556 S
C67 C68 1.389 . S
C68 C67 1.389 . S
C68 C69 1.405 1_556 S
C69 H58 0.930 . S
C69 C68 1.405 1_554 S
C69 C70 1.364 . S
C70 C69 1.364 . S
C70 C71 1.400 . S
C71 H59 0.931 . S
C71 C66 1.408 . S
C71 C70 1.400 . S
H72 C78 0.930 . S
H73 C81 0.931 . S
H74 C83 0.931 . S
H75 C85 0.930 . S
H76 C87 0.930 . S
H77 C89 0.931 . S
C78 H72 0.930 . S
C78 C79 1.380 . S
C78 C80 1.394 . S
C79 C78 1.380 . S
C79 C83 1.382 . S
C80 C78 1.394 . S
C80 C81 1.400 . S
C81 H73 0.931 . S
C81 C80 1.400 . S
C81 C82 1.375 . S
C82 C81 1.375 . S
C82 C83 1.415 . S
C82 C84 1.501 . S
C83 H74 0.931 . S
C83 C79 1.382 . S
C83 C82 1.415 . S
C84 C82 1.501 . S
C84 C85 1.384 . S
C84 C89 1.408 . S
C85 H75 0.930 . S
C85 C84 1.384 . S
C85 C86 1.389 . S
C86 C85 1.389 . S
C86 C87 1.405 . S
C87 H76 0.930 . S
C87 C86 1.405 . S
C87 C88 1.364 . S
C88 C87 1.364 . S
C88 C89 1.400 . S
C89 H77 0.931 . S
C89 C84 1.408 . S
C89 C88 1.400 . S
H90 C96 0.930 . S
H91 C99 0.931 . S
H92 C101 0.931 . S
H93 C103 0.930 . S
H94 C105 0.930 . S
H95 C107 0.931 . S
C96 H90 0.930 . S
C96 C97 1.380 . S
C96 C98 1.394 . S
C97 C96 1.380 . S
C97 C101 1.382 . S
C98 C96 1.394 . S
C98 C99 1.400 . S
C99 H91 0.931 . S
C99 C98 1.400 . S
C99 C100 1.375 . S
C100 C99 1.375 . S
C100 C101 1.415 . S
C100 C102 1.501 . S
C101 H92 0.931 . S
C101 C97 1.382 . S
C101 C100 1.415 . S
C102 C100 1.501 . S
C102 C103 1.384 . S
C102 C107 1.408 . S
C103 H93 0.930 . S
C103 C102 1.384 . S
C103 C104 1.389 . S
C104 C103 1.389 . S
C104 C105 1.405 . S
C105 H94 0.930 . S
C105 C104 1.405 . S
C105 C106 1.364 . S
C106 C105 1.364 . S
C106 C107 1.400 . S
C107 H95 0.931 . S
C107 C102 1.408 . S
C107 C106 1.400 . S
C108 O135 1.312 . S
C108 O136 1.208 . S
C109 O130 1.331 . S
C109 O133 1.244 . S
C110 O132 1.264 . S
C110 O134 1.273 . S
Mg111 O113 1.936 1_455 S
Mg111 O120 2.081 1_455 S
Mg111 O122 2.023 . S
Mg111 O126 2.031 1_455 S
Mg111 O135 2.291 . S
Mg112 O113 1.963 . S
Mg112 O123 1.942 . S
Mg112 O124 1.955 1_655 S
Mg112 O131 1.986 . S
O113 Mg111 1.936 1_655 S
O113 Mg112 1.963 . S
O113 Mg114 1.915 1_655 S
Mg114 O113 1.915 1_455 S
Mg114 O115 1.915 . S
Mg114 O119 2.013 . S
Mg114 O125 2.114 1_455 S
Mg114 O129 2.013 1_455 S
Mg114 O135 2.114 . S
O115 Mg114 1.915 . S
O115 Mg116 1.936 . S
O115 Mg117 1.963 . S
Mg116 O115 1.936 . S
Mg116 O125 2.291 1_455 S
Mg116 O130 2.081 . S
Mg116 O132 2.023 1_455 S
Mg116 O136 2.031 . S
Mg117 O115 1.963 . S
Mg117 O121 1.986 . S
Mg117 O133 1.942 . S
Mg117 O134 1.955 1_455 S
C118 O129 1.191 . S
C118 O131 1.307 . S
O119 Mg114 2.013 . S
O119 C138 1.191 . S
O120 Mg111 2.081 1_655 S
O120 C128 1.331 . S
O121 Mg117 1.986 . S
O121 C138 1.307 . S
O122 Mg111 2.023 . S
O122 C137 1.264 . S
O123 Mg112 1.942 . S
O123 C128 1.244 . S
O124 Mg112 1.955 1_455 S
O124 C137 1.273 . S
O125 Mg114 2.114 1_655 S
O125 Mg116 2.291 1_655 S
O125 C127 1.312 . S
O126 Mg111 2.031 1_655 S
O126 C127 1.208 . S
C127 O125 1.312 . S
C127 O126 1.208 . S
C128 O120 1.331 . S
C128 O123 1.244 . S
O129 Mg114 2.013 1_655 S
O129 C118 1.191 . S
O130 C109 1.331 . S
O130 Mg116 2.081 . S
O131 Mg112 1.986 . S
O131 C118 1.307 . S
O132 C110 1.264 . S
O132 Mg116 2.023 1_655 S
O133 C109 1.244 . S
O133 Mg117 1.942 . S
O134 C110 1.273 . S
O134 Mg117 1.955 1_655 S
O135 C108 1.312 . S
O135 Mg111 2.291 . S
O135 Mg114 2.114 . S
O136 C108 1.208 . S
O136 Mg116 2.031 . S
C137 O122 1.264 . S
C137 O124 1.273 . S
C138 O119 1.191 . S
C138 O121 1.307 . S
C139 O166 1.312 . S
C139 O167 1.208 . S
C140 O161 1.331 . S
C140 O164 1.244 . S
C141 O163 1.264 . S
C141 O165 1.273 . S
Mg142 O144 1.963 . S
Mg142 O151 2.081 1_545 S
Mg142 O153 2.023 . S
Mg142 O157 2.031 1_545 S
Mg142 O166 2.291 . S
Mg143 O144 1.957 . S
Mg143 O154 1.942 1_545 S
Mg143 O155 1.955 . S
Mg143 O162 1.986 1_545 S
O144 Mg142 1.963 . S
O144 Mg143 1.957 . S
O144 Mg145 1.913 . S
Mg145 O144 1.913 . S
Mg145 O146 1.915 . S
Mg145 O150 2.013 . S
Mg145 O156 2.114 1_545 S
Mg145 O160 2.013 1_545 S
Mg145 O166 2.114 . S
O146 Mg145 1.915 . S
O146 Mg147 1.936 . S
O146 Mg148 1.963 . S
Mg147 O146 1.936 . S
Mg147 O156 2.291 1_545 S
Mg147 O161 2.081 . S
Mg147 O163 2.023 1_545 S
Mg147 O167 2.031 . S
Mg148 O146 1.963 . S
Mg148 O152 1.986 . S
Mg148 O164 1.942 . S
Mg148 O165 1.955 1_545 S
C149 O160 1.191 . S
C149 O162 1.307 . S
O150 Mg145 2.013 . S
O150 C169 1.191 . S
O151 Mg142 2.081 1_565 S
O151 C159 1.331 . S
O152 Mg148 1.986 . S
O152 C169 1.307 . S
O153 Mg142 2.023 . S
O153 C168 1.264 . S
O154 Mg143 1.942 1_565 S
O154 C159 1.244 . S
O155 Mg143 1.955 . S
O155 C168 1.273 . S
O156 Mg145 2.114 1_565 S
O156 Mg147 2.291 1_565 S
O156 C158 1.312 . S
O157 Mg142 2.031 1_565 S
O157 C158 1.208 . S
C158 O156 1.312 . S
C158 O157 1.208 . S
C159 O151 1.331 . S
C159 O154 1.244 . S
O160 Mg145 2.013 1_565 S
O160 C149 1.191 . S
O161 C140 1.331 . S
O161 Mg147 2.081 . S
O162 Mg143 1.986 1_565 S
O162 C149 1.307 . S
O163 C141 1.264 . S
O163 Mg147 2.023 1_565 S
O164 C140 1.244 . S
O164 Mg148 1.942 . S
O165 C141 1.273 . S
O165 Mg148 1.955 1_565 S
O166 C139 1.312 . S
O166 Mg142 2.291 . S
O166 Mg145 2.114 . S
O167 C139 1.208 . S
O167 Mg147 2.031 . S
C168 O153 1.264 . S
C168 O155 1.273 . S
C169 O150 1.191 . S
C169 O152 1.307 . S
C170 O197 1.312 . S
C170 O198 1.208 . S
C171 O192 1.331 . S
C171 O195 1.244 . S
C172 O194 1.264 . S
C172 O196 1.273 . S
Mg173 O175 1.936 . S
Mg173 O182 2.081 . S
Mg173 O184 2.023 . S
Mg173 O188 2.031 . S
Mg173 O197 2.291 . S
Mg174 O175 1.963 . S
Mg174 O185 1.942 . S
Mg174 O186 1.955 . S
Mg174 O193 1.986 . S
O175 Mg173 1.936 . S
O175 Mg174 1.963 . S
O175 Mg176 1.915 . S
Mg176 O175 1.915 . S
Mg176 O177 1.915 . S
Mg176 O181 2.013 . S
Mg176 O187 2.114 . S
Mg176 O191 2.013 . S
Mg176 O197 2.114 . S
O177 Mg176 1.915 . S
O177 Mg178 1.936 . S
O177 Mg179 1.963 . S
Mg178 O177 1.936 . S
Mg178 O187 2.291 . S
Mg178 O192 2.081 . S
Mg178 O194 2.023 . S
Mg178 O198 2.031 . S
Mg179 O177 1.963 . S
Mg179 O183 1.986 . S
Mg179 O195 1.942 . S
Mg179 O196 1.955 . S
C180 O191 1.191 . S
C180 O193 1.307 . S
O181 Mg176 2.013 . S
O181 C200 1.191 . S
O182 Mg173 2.081 . S
O182 C190 1.331 . S
O183 Mg179 1.986 . S
O183 C200 1.307 . S
O184 Mg173 2.023 . S
O184 C199 1.264 . S
O185 Mg174 1.942 . S
O185 C190 1.244 . S
O186 Mg174 1.955 . S
O186 C199 1.273 . S
O187 Mg176 2.114 . S
O187 Mg178 2.291 . S
O187 C189 1.312 . S
O188 Mg173 2.031 . S
O188 C189 1.208 . S
C189 O187 1.312 . S
C189 O188 1.208 . S
C190 O182 1.331 . S
C190 O185 1.244 . S
O191 Mg176 2.013 . S
O191 C180 1.191 . S
O192 C171 1.331 . S
O192 Mg178 2.081 . S
O193 Mg174 1.986 . S
O193 C180 1.307 . S
O194 C172 1.264 . S
O194 Mg178 2.023 . S
O195 C171 1.244 . S
O195 Mg179 1.942 . S
O196 C172 1.273 . S
O196 Mg179 1.955 . S
O197 C170 1.312 . S
O197 Mg173 2.291 . S
O197 Mg176 2.114 . S
O198 C170 1.208 . S
O198 Mg178 2.031 . S
C199 O184 1.264 . S
C199 O186 1.273 . S
C200 O181 1.191 . S
C200 O183 1.307 . S
H201 C213 0.930 . S
H202 C215 0.930 . S
H203 C216 0.930 . S
H204 C220 0.959 . S
H205 C220 0.959 . S
H206 C220 0.961 . S
H207 C221 0.960 . S
H208 C221 0.961 . S
H209 C221 0.959 . S
H210 C224 0.929 . S
H211 C225 0.931 . S
H212 C227 0.930 . S
C213 H201 0.930 . S
C213 C214 1.399 . S
C213 C218 1.399 . S
C214 C213 1.399 . S
C214 C215 1.376 . S
C215 H202 0.930 . S
C215 C214 1.376 . S
C215 C216 1.388 . S
C216 H203 0.930 . S
C216 C215 1.388 . S
C216 C217 1.390 . S
C217 C216 1.390 . S
C217 C218 1.394 . S
C217 C223 1.465 . S
C218 C213 1.399 . S
C218 C217 1.394 . S
C218 C219 1.516 . S
C219 C218 1.516 . S
C219 C220 1.502 . S
C219 C221 1.561 . S
C219 C222 1.526 . S
C220 H204 0.959 . S
C220 H205 0.959 . S
C220 H206 0.961 . S
C220 C219 1.502 . S
C221 H207 0.960 . S
C221 H208 0.961 . S
C221 H209 0.959 . S
C221 C219 1.561 . S
C222 C219 1.526 . S
C222 C223 1.396 . S
C222 C227 1.390 . S
C223 C217 1.465 . S
C223 C222 1.396 . S
C223 C224 1.399 . S
C224 H210 0.929 . S
C224 C223 1.399 . S
C224 C225 1.385 . S
C225 H211 0.931 . S
C225 C224 1.385 . S
C225 C226 1.389 . S
C226 C225 1.389 . S
C226 C227 1.387 . S
C227 H212 0.930 . S
C227 C222 1.390 . S
C227 C226 1.387 . S
H228 C240 0.930 . S
H229 C242 0.930 . S
H230 C243 0.930 . S
H231 C247 0.959 . S
H232 C247 0.959 . S
H233 C247 0.961 . S
H234 C248 0.960 . S
H235 C248 0.961 . S
H236 C248 0.959 . S
H237 C251 0.929 . S
H238 C252 0.931 . S
H239 C254 0.930 . S
C240 H228 0.930 . S
C240 C241 1.399 . S
C240 C245 1.399 . S
C241 C240 1.399 . S
C241 C242 1.376 . S
C242 H229 0.930 . S
C242 C241 1.376 . S
C242 C243 1.388 . S
C243 H230 0.930 . S
C243 C242 1.388 . S
C243 C244 1.390 . S
C244 C243 1.390 . S
C244 C245 1.394 . S
C244 C250 1.465 . S
C245 C240 1.399 . S
C245 C244 1.394 . S
C245 C246 1.516 . S
C246 C245 1.516 . S
C246 C247 1.502 . S
C246 C248 1.561 . S
C246 C249 1.526 . S
C247 H231 0.959 . S
C247 H232 0.959 . S
C247 H233 0.961 . S
C247 C246 1.502 . S
C248 H234 0.960 . S
C248 H235 0.961 . S
C248 H236 0.959 . S
C248 C246 1.561 . S
C249 C246 1.526 . S
C249 C250 1.396 . S
C249 C254 1.390 . S
C250 C244 1.465 . S
C250 C249 1.396 . S
C250 C251 1.399 . S
C251 H237 0.929 . S
C251 C250 1.399 . S
C251 C252 1.385 . S
C252 H238 0.931 . S
C252 C251 1.385 . S
C252 C253 1.389 . S
C253 C252 1.389 . S
C253 C254 1.387 . S
C254 H239 0.930 . S
C254 C249 1.390 . S
C254 C253 1.387 . S
H255 C267 0.930 . S
H256 C269 0.930 . S
H257 C270 0.930 . S
H258 C274 0.959 . S
H259 C274 0.959 . S
H260 C274 0.961 . S
H261 C275 0.960 . S
H262 C275 0.961 . S
H263 C275 0.959 . S
H264 C278 0.929 . S
H265 C279 0.931 . S
H266 C281 0.930 . S
C267 H255 0.930 . S
C267 C268 1.399 . S
C267 C272 1.399 . S
C268 C267 1.399 . S
C268 C269 1.376 . S
C269 H256 0.930 . S
C269 C268 1.376 . S
C269 C270 1.388 . S
C270 H257 0.930 . S
C270 C269 1.388 . S
C270 C271 1.390 . S
C271 C270 1.390 . S
C271 C272 1.394 . S
C271 C277 1.465 . S
C272 C267 1.399 . S
C272 C271 1.394 . S
C272 C273 1.516 . S
C273 C272 1.516 . S
C273 C274 1.502 . S
C273 C275 1.561 . S
C273 C276 1.526 . S
C274 H258 0.959 . S
C274 H259 0.959 . S
C274 H260 0.961 . S
C274 C273 1.502 . S
C275 H261 0.960 . S
C275 H262 0.961 . S
C275 H263 0.959 . S
C275 C273 1.561 . S
C276 C273 1.526 . S
C276 C277 1.396 . S
C276 C281 1.390 . S
C277 C271 1.465 . S
C277 C276 1.396 . S
C277 C278 1.399 . S
C278 H264 0.929 . S
C278 C277 1.399 . S
C278 C279 1.385 . S
C279 H265 0.931 . S
C279 C278 1.385 . S
C279 C280 1.389 . S
C280 C279 1.389 . S
C280 C281 1.387 . S
C281 H266 0.930 . S
C281 C276 1.390 . S
C281 C280 1.387 . S
H282 C294 0.930 . S
H283 C296 0.930 . S
H284 C297 0.930 . S
H285 C301 0.959 . S
H286 C301 0.959 . S
H287 C301 0.961 . S
H288 C302 0.960 . S
H289 C302 0.961 . S
H290 C302 0.959 . S
H291 C305 0.929 . S
H292 C306 0.931 . S
H293 C308 0.930 . S
C294 H282 0.930 . S
C294 C295 1.399 . S
C294 C299 1.399 . S
C295 C294 1.399 . S
C295 C296 1.376 . S
C296 H283 0.930 . S
C296 C295 1.376 . S
C296 C297 1.388 . S
C297 H284 0.930 . S
C297 C296 1.388 . S
C297 C298 1.390 . S
C298 C297 1.390 . S
C298 C299 1.394 . S
C298 C304 1.465 . S
C299 C294 1.399 . S
C299 C298 1.394 . S
C299 C300 1.516 . S
C300 C299 1.516 . S
C300 C301 1.502 . S
C300 C302 1.561 . S
C300 C303 1.526 . S
C301 H285 0.959 . S
C301 H286 0.959 . S
C301 H287 0.961 . S
C301 C300 1.502 . S
C302 H288 0.960 . S
C302 H289 0.961 . S
C302 H290 0.959 . S
C302 C300 1.561 . S
C303 C300 1.526 . S
C303 C304 1.396 . S
C303 C308 1.390 . S
C304 C298 1.465 . S
C304 C303 1.396 . S
C304 C305 1.399 . S
C305 H291 0.929 . S
C305 C304 1.399 . S
C305 C306 1.385 . S
C306 H292 0.931 . S
C306 C305 1.385 . S
C306 C307 1.389 . S
C307 C306 1.389 . S
C307 C308 1.387 . S
C308 H293 0.930 . S
C308 C303 1.390 . S
C308 C307 1.387 . S
H309 C321 0.930 . S
H310 C323 0.930 . S
H311 C324 0.930 . S
H312 C328 0.959 . S
H313 C328 0.959 . S
H314 C328 0.961 . S
H315 C329 0.960 . S
H316 C329 0.961 . S
H317 C329 0.959 . S
H318 C332 0.929 . S
H319 C333 0.931 . S
H320 C335 0.930 . S
C321 H309 0.930 . S
C321 C322 1.399 . S
C321 C326 1.399 . S
C322 C321 1.399 . S
C322 C323 1.376 . S
C323 H310 0.930 . S
C323 C322 1.376 . S
C323 C324 1.388 . S
C324 H311 0.930 . S
C324 C323 1.388 . S
C324 C325 1.390 . S
C325 C324 1.390 . S
C325 C326 1.394 . S
C325 C331 1.465 . S
C326 C321 1.399 . S
C326 C325 1.394 . S
C326 C327 1.516 . S
C327 C326 1.516 . S
C327 C328 1.502 . S
C327 C329 1.561 . S
C327 C330 1.526 . S
C328 H312 0.959 . S
C328 H313 0.959 . S
C328 H314 0.961 . S
C328 C327 1.502 . S
C329 H315 0.960 . S
C329 H316 0.961 . S
C329 H317 0.959 . S
C329 C327 1.561 . S
C330 C327 1.526 . S
C330 C331 1.396 . S
C330 C335 1.390 . S
C331 C325 1.465 . S
C331 C330 1.396 . S
C331 C332 1.399 . S
C332 H318 0.929 . S
C332 C331 1.399 . S
C332 C333 1.385 . S
C333 H319 0.931 . S
C333 C332 1.385 . S
C333 C334 1.389 . S
C334 C333 1.389 . S
C334 C335 1.387 . S
C335 H320 0.930 . S
C335 C330 1.390 . S
C335 C334 1.387 . S
H336 C348 0.930 . S
H337 C350 0.930 . S
H338 C351 0.930 . S
H339 C355 0.959 . S
H340 C355 0.959 . S
H341 C355 0.961 . S
H342 C356 0.960 . S
H343 C356 0.961 . S
H344 C356 0.959 . S
H345 C359 0.929 . S
H346 C360 0.931 . S
H347 C362 0.930 . S
C348 H336 0.930 . S
C348 C349 1.399 . S
C348 C353 1.399 . S
C349 C348 1.399 . S
C349 C350 1.376 . S
C350 H337 0.930 . S
C350 C349 1.376 . S
C350 C351 1.388 . S
C351 H338 0.930 . S
C351 C350 1.388 . S
C351 C352 1.390 . S
C352 C351 1.390 . S
C352 C353 1.394 . S
C352 C358 1.465 . S
C353 C348 1.399 . S
C353 C352 1.394 . S
C353 C354 1.516 . S
C354 C353 1.516 . S
C354 C355 1.502 . S
C354 C356 1.561 . S
C354 C357 1.526 . S
C355 H339 0.959 . S
C355 H340 0.959 . S
C355 H341 0.961 . S
C355 C354 1.502 . S
C356 H342 0.960 . S
C356 H343 0.961 . S
C356 H344 0.959 . S
C356 C354 1.561 . S
C357 C354 1.526 . S
C357 C358 1.396 . S
C357 C362 1.390 . S
C358 C352 1.465 . S
C358 C357 1.396 . S
C358 C359 1.399 . S
C359 H345 0.929 . S
C359 C358 1.399 . S
C359 C360 1.385 . S
C360 H346 0.931 . S
C360 C359 1.385 . S
C360 C361 1.389 . S
C361 C360 1.389 . S
C361 C362 1.387 . S
C362 H347 0.930 . S
C362 C357 1.390 . S
C362 C361 1.387 . S
H363 C375 0.930 . S
H364 C377 0.930 1_554 S
H365 C378 0.930 . S
H366 C382 0.959 . S
H367 C382 0.959 . S
H368 C382 0.961 . S
H369 C383 0.960 . S
H370 C383 0.961 . S
H371 C383 0.959 . S
H372 C386 0.929 . S
H373 C387 0.931 . S
H374 C389 0.930 . S
C375 H363 0.930 . S
C375 C376 1.399 . S
C375 C380 1.399 . S
C376 C375 1.399 . S
C376 C377 1.376 . S
C377 H364 0.930 1_556 S
C377 C376 1.376 . S
C377 C378 1.388 . S
C378 H365 0.930 . S
C378 C377 1.388 . S
C378 C379 1.390 . S
C379 C378 1.390 . S
C379 C380 1.394 . S
C379 C385 1.465 . S
C380 C375 1.399 . S
C380 C379 1.394 . S
C380 C381 1.516 . S
C381 C380 1.516 . S
C381 C382 1.502 . S
C381 C383 1.561 . S
C381 C384 1.526 . S
C382 H366 0.959 . S
C382 H367 0.959 . S
C382 H368 0.961 . S
C382 C381 1.502 . S
C383 H369 0.960 . S
C383 H370 0.961 . S
C383 H371 0.959 . S
C383 C381 1.561 . S
C384 C381 1.526 . S
C384 C385 1.396 . S
C384 C389 1.390 . S
C385 C379 1.465 . S
C385 C384 1.396 . S
C385 C386 1.399 . S
C386 H372 0.929 . S
C386 C385 1.399 . S
C386 C387 1.385 . S
C387 H373 0.931 . S
C387 C386 1.385 . S
C387 C388 1.389 . S
C388 C387 1.389 . S
C388 C389 1.387 . S
C389 H374 0.930 . S
C389 C384 1.390 . S
C389 C388 1.387 . S
H390 C402 0.930 . S
H391 C404 0.930 . S
H392 C405 0.930 . S
H393 C409 0.959 . S
H394 C409 0.959 . S
H395 C409 0.961 . S
H396 C410 0.960 . S
H397 C410 0.961 . S
H398 C410 0.959 . S
H399 C413 0.929 . S
H400 C414 0.931 . S
H401 C416 0.930 . S
C402 H390 0.930 . S
C402 C403 1.399 . S
C402 C407 1.399 . S
C403 C402 1.399 . S
C403 C404 1.376 . S
C404 H391 0.930 . S
C404 C403 1.376 . S
C404 C405 1.388 . S
C405 H392 0.930 . S
C405 C404 1.388 . S
C405 C406 1.390 . S
C406 C405 1.390 . S
C406 C407 1.394 . S
C406 C412 1.465 . S
C407 C402 1.399 . S
C407 C406 1.394 . S
C407 C408 1.516 . S
C408 C407 1.516 . S
C408 C409 1.502 . S
C408 C410 1.561 . S
C408 C411 1.526 . S
C409 H393 0.959 . S
C409 H394 0.959 . S
C409 H395 0.961 . S
C409 C408 1.502 . S
C410 H396 0.960 . S
C410 H397 0.961 . S
C410 H398 0.959 . S
C410 C408 1.561 . S
C411 C408 1.526 . S
C411 C412 1.396 . S
C411 C416 1.390 . S
C412 C406 1.465 . S
C412 C411 1.396 . S
C412 C413 1.399 . S
C413 H399 0.929 . S
C413 C412 1.399 . S
C413 C414 1.385 . S
C414 H400 0.931 . S
C414 C413 1.385 . S
C414 C415 1.389 . S
C415 C414 1.389 . S
C415 C416 1.387 . S
C416 H401 0.930 . S
C416 C411 1.390 . S
C416 C415 1.387 . S
H417 C429 0.930 . S
H418 C431 0.930 . S
H419 C432 0.930 1_554 S
H420 C436 0.959 . S
H421 C436 0.959 . S
H422 C436 0.961 . S
H423 C437 0.960 . S
H424 C437 0.961 . S
H425 C437 0.959 . S
H426 C440 0.929 . S
H427 C441 0.931 . S
H428 C443 0.930 . S
C429 H417 0.930 . S
C429 C430 1.399 . S
C429 C434 1.399 . S
C430 C429 1.399 . S
C430 C431 1.376 1_556 S
C431 H418 0.930 . S
C431 C430 1.376 1_554 S
C431 C432 1.388 1_554 S
C432 H419 0.930 1_556 S
C432 C431 1.388 1_556 S
C432 C433 1.390 . S
C433 C432 1.390 . S
C433 C434 1.394 . S
C433 C439 1.465 . S
C434 C429 1.399 . S
C434 C433 1.394 . S
C434 C435 1.516 . S
C435 C434 1.516 . S
C435 C436 1.502 . S
C435 C437 1.561 . S
C435 C438 1.526 . S
C436 H420 0.959 . S
C436 H421 0.959 . S
C436 H422 0.961 . S
C436 C435 1.502 . S
C437 H423 0.960 . S
C437 H424 0.961 . S
C437 H425 0.959 . S
C437 C435 1.561 . S
C438 C435 1.526 . S
C438 C439 1.396 . S
C438 C443 1.390 . S
C439 C433 1.465 . S
C439 C438 1.396 . S
C439 C440 1.399 . S
C440 H426 0.929 . S
C440 C439 1.399 . S
C440 C441 1.385 . S
C441 H427 0.931 . S
C441 C440 1.385 . S
C441 C442 1.389 . S
C442 C441 1.389 . S
C442 C443 1.387 . S
C443 H428 0.930 . S
C443 C438 1.390 . S
C443 C442 1.387 . S
H444 C456 0.927 1_556 S
H445 C458 0.930 . S
H446 C459 0.930 . S
H447 C463 0.959 . S
H448 C463 0.959 . S
H449 C463 0.961 . S
H450 C464 0.960 . S
H451 C464 0.961 . S
H452 C464 0.952 1_554 S
H453 C467 0.929 . S
H454 C468 0.931 . S
H455 C470 0.930 . S
C456 H444 0.927 1_554 S
C456 C457 1.399 . S
C456 C461 1.399 1_554 S
C457 C456 1.399 . S
C457 C458 1.376 . S
C458 H445 0.930 . S
C458 C457 1.376 . S
C458 C459 1.388 . S
C459 H446 0.930 . S
C459 C458 1.388 . S
C459 C460 1.390 1_554 S
C460 C459 1.390 1_556 S
C460 C461 1.394 . S
C460 C466 1.465 . S
C461 C456 1.399 1_556 S
C461 C460 1.394 . S
C461 C462 1.516 . S
C462 C461 1.516 . S
C462 C463 1.502 . S
C462 C464 1.561 . S
C462 C465 1.526 . S
C463 H447 0.959 . S
C463 H448 0.959 . S
C463 H449 0.961 . S
C463 C462 1.502 . S
C464 H450 0.960 . S
C464 H451 0.961 . S
C464 H452 0.952 1_556 S
C464 C462 1.561 . S
C465 C462 1.526 . S
C465 C466 1.396 . S
C465 C470 1.390 . S
C466 C460 1.465 . S
C466 C465 1.396 . S
C466 C467 1.399 . S
C467 H453 0.929 . S
C467 C466 1.399 . S
C467 C468 1.385 . S
C468 H454 0.931 . S
C468 C467 1.385 . S
C468 C469 1.389 . S
C469 C468 1.389 . S
C469 C470 1.387 . S
C470 H455 0.930 . S
C470 C465 1.390 . S
C470 C469 1.387 . S
H471 C483 0.930 . S
H472 C485 0.930 . S
H473 C486 0.930 . S
H474 C490 0.959 1_554 S
H475 C490 0.959 . S
H476 C490 0.961 1_554 S
H477 C491 0.960 . S
H478 C491 0.961 . S
H479 C491 0.959 . S
H480 C494 0.929 . S
H481 C495 0.931 . S
H482 C497 0.930 . S
C483 H471 0.930 . S
C483 C484 1.399 . S
C483 C488 1.399 1_554 S
C484 C483 1.399 . S
C484 C485 1.376 . S
C485 H472 0.930 . S
C485 C484 1.376 . S
C485 C486 1.388 . S
C486 H473 0.930 . S
C486 C485 1.388 . S
C486 C487 1.390 1_554 S
C487 C486 1.390 1_556 S
C487 C488 1.394 . S
C487 C493 1.465 . S
C488 C483 1.399 1_556 S
C488 C487 1.394 . S
C488 C489 1.516 . S
C489 C488 1.516 . S
C489 C490 1.502 . S
C489 C491 1.561 . S
C489 C492 1.526 . S
C490 H474 0.959 1_556 S
C490 H475 0.959 . S
C490 H476 0.961 1_556 S
C490 C489 1.502 . S
C491 H477 0.960 . S
C491 H478 0.961 . S
C491 H479 0.959 . S
C491 C489 1.561 . S
C492 C489 1.526 . S
C492 C493 1.396 . S
C492 C497 1.390 . S
C493 C487 1.465 . S
C493 C492 1.396 . S
C493 C494 1.399 . S
C494 H480 0.929 . S
C494 C493 1.399 . S
C494 C495 1.385 . S
C495 H481 0.931 . S
C495 C494 1.385 . S
C495 C496 1.389 . S
C496 C495 1.389 . S
C496 C497 1.387 . S
C497 H482 0.930 . S
C497 C492 1.390 . S
C497 C496 1.387 . S
H498 C510 0.930 . S
H499 C512 0.930 . S
H500 C513 0.930 . S
H501 C517 0.959 . S
H502 C517 0.959 . S
H503 C517 0.961 . S
H504 C518 0.960 . S
H505 C518 0.961 . S
H506 C518 0.959 . S
H507 C521 0.929 . S
H508 C522 0.931 . S
H509 C524 0.930 . S
C510 H498 0.930 . S
C510 C511 1.399 . S
C510 C515 1.399 . S
C511 C510 1.399 . S
C511 C512 1.376 1_556 S
C512 H499 0.930 . S
C512 C511 1.376 1_554 S
C512 C513 1.388 1_554 S
C513 H500 0.930 . S
C513 C512 1.388 1_556 S
C513 C514 1.390 . S
C514 C513 1.390 . S
C514 C515 1.394 . S
C514 C520 1.465 . S
C515 C510 1.399 . S
C515 C514 1.394 . S
C515 C516 1.516 . S
C516 C515 1.516 . S
C516 C517 1.502 . S
C516 C518 1.561 . S
C516 C519 1.526 . S
C517 H501 0.959 . S
C517 H502 0.959 . S
C517 H503 0.961 . S
C517 C516 1.502 . S
C518 H504 0.960 . S
C518 H505 0.961 . S
C518 H506 0.959 . S
C518 C516 1.561 . S
C519 C516 1.526 . S
C519 C520 1.396 . S
C519 C524 1.390 . S
C520 C514 1.465 . S
C520 C519 1.396 . S
C520 C521 1.399 . S
C521 H507 0.929 . S
C521 C520 1.399 . S
C521 C522 1.385 . S
C522 H508 0.931 . S
C522 C521 1.385 . S
C522 C523 1.389 . S
C523 C522 1.389 . S
C523 C524 1.387 . S
C524 H509 0.930 . S
C524 C519 1.390 . S
C524 C523 1.387 . S
H525 C537 0.930 . S
H526 C539 0.930 . S
H527 C540 0.930 . S
H528 C544 0.959 . S
H529 C544 0.959 . S
H530 C544 0.961 . S
H531 C545 0.960 . S
H532 C545 0.961 . S
H533 C545 0.959 . S
H534 C548 0.929 . S
H535 C549 0.931 . S
H536 C551 0.930 . S
C537 H525 0.930 . S
C537 C538 1.399 . S
C537 C542 1.399 . S
C538 C537 1.399 . S
C538 C539 1.376 . S
C539 H526 0.930 . S
C539 C538 1.376 . S
C539 C540 1.388 . S
C540 H527 0.930 . S
C540 C539 1.388 . S
C540 C541 1.390 . S
C541 C540 1.390 . S
C541 C542 1.394 . S
C541 C547 1.465 . S
C542 C537 1.399 . S
C542 C541 1.394 . S
C542 C543 1.516 . S
C543 C542 1.516 . S
C543 C544 1.502 . S
C543 C545 1.561 . S
C543 C546 1.526 . S
C544 H528 0.959 . S
C544 H529 0.959 . S
C544 H530 0.961 . S
C544 C543 1.502 . S
C545 H531 0.960 . S
C545 H532 0.961 . S
C545 H533 0.959 . S
C545 C543 1.561 . S
C546 C543 1.526 . S
C546 C547 1.396 . S
C546 C551 1.390 . S
C547 C541 1.465 . S
C547 C546 1.396 . S
C547 C548 1.399 . S
C548 H534 0.929 . S
C548 C547 1.399 . S
C548 C549 1.385 . S
C549 H535 0.931 . S
C549 C548 1.385 . S
C549 C550 1.389 . S
C550 C549 1.389 . S
C550 C551 1.387 . S
C551 H536 0.930 . S
C551 C546 1.390 . S
C551 C550 1.387 . S
H552 C564 0.930 . S
H553 C566 0.930 . S
H554 C567 0.930 . S
H555 C571 0.959 . S
H556 C571 0.959 . S
H557 C571 0.961 . S
H558 C572 0.960 . S
H559 C572 0.961 . S
H560 C572 0.959 . S
H561 C575 0.929 . S
H562 C576 0.931 . S
H563 C578 0.930 . S
C564 H552 0.930 . S
C564 C565 1.399 1_556 S
C564 C569 1.399 . S
C565 C564 1.399 1_554 S
C565 C566 1.376 . S
C566 H553 0.930 . S
C566 C565 1.376 . S
C566 C567 1.388 1_554 S
C567 H554 0.930 . S
C567 C566 1.388 1_556 S
C567 C568 1.390 . S
C568 C567 1.390 . S
C568 C569 1.394 . S
C568 C574 1.465 . S
C569 C564 1.399 . S
C569 C568 1.394 . S
C569 C570 1.516 . S
C570 C569 1.516 . S
C570 C571 1.502 . S
C570 C572 1.561 . S
C570 C573 1.526 . S
C571 H555 0.959 . S
C571 H556 0.959 . S
C571 H557 0.961 . S
C571 C570 1.502 . S
C572 H558 0.960 . S
C572 H559 0.961 . S
C572 H560 0.959 . S
C572 C570 1.561 . S
C573 C570 1.526 . S
C573 C574 1.396 . S
C573 C578 1.390 . S
C574 C568 1.465 . S
C574 C573 1.396 . S
C574 C575 1.399 . S
C575 H561 0.929 . S
C575 C574 1.399 . S
C575 C576 1.385 . S
C576 H562 0.931 . S
C576 C575 1.385 . S
C576 C577 1.389 . S
C577 C576 1.389 . S
C577 C578 1.387 . S
C578 H563 0.930 . S
C578 C573 1.390 . S
C578 C577 1.387 . S
H579 C591 0.930 . S
H580 C593 0.930 . S
H581 C594 0.930 . S
H582 C598 0.963 . S
H583 C598 0.959 . S
H584 C598 0.961 . S
H585 C599 0.960 . S
H586 C599 0.961 . S
H587 C599 0.959 . S
H588 C602 0.929 . S
H589 C603 0.931 . S
H590 C605 0.930 . S
C591 H579 0.930 . S
C591 C592 1.399 . S
C591 C596 1.399 . S
C592 C591 1.399 . S
C592 C593 1.376 1_554 S
C593 H580 0.930 . S
C593 C592 1.376 1_556 S
C593 C594 1.388 . S
C594 H581 0.930 . S
C594 C593 1.388 . S
C594 C595 1.390 . S
C595 C594 1.390 . S
C595 C596 1.394 1_556 S
C595 C601 1.465 . S
C596 C591 1.399 . S
C596 C595 1.394 1_554 S
C596 C597 1.516 . S
C597 C596 1.516 . S
C597 C598 1.502 . S
C597 C599 1.561 . S
C597 C600 1.526 1_554 S
C598 H582 0.963 . S
C598 H583 0.959 . S
C598 H584 0.961 . S
C598 C597 1.502 . S
C599 H585 0.960 . S
C599 H586 0.961 . S
C599 H587 0.959 . S
C599 C597 1.561 . S
C600 C597 1.526 1_556 S
C600 C601 1.396 . S
C600 C605 1.390 . S
C601 C595 1.465 . S
C601 C600 1.396 . S
C601 C602 1.399 . S
C602 H588 0.929 . S
C602 C601 1.399 . S
C602 C603 1.385 . S
C603 H589 0.931 . S
C603 C602 1.385 . S
C603 C604 1.389 . S
C604 C603 1.389 . S
C604 C605 1.387 . S
C605 H590 0.930 . S
C605 C600 1.390 . S
C605 C604 1.387 . S
H606 C618 0.930 . S
H607 C620 0.930 . S
H608 C621 0.930 . S
H609 C625 0.959 . S
H610 C625 0.959 . S
H611 C625 0.961 . S
H612 C626 0.960 . S
H613 C626 0.961 . S
H614 C626 0.959 . S
H615 C629 0.929 . S
H616 C630 0.931 . S
H617 C632 0.930 . S
C618 H606 0.930 . S
C618 C619 1.399 . S
C618 C623 1.399 . S
C619 C618 1.399 . S
C619 C620 1.376 . S
C620 H607 0.930 . S
C620 C619 1.376 . S
C620 C621 1.388 1_554 S
C621 H608 0.930 . S
C621 C620 1.388 1_556 S
C621 C622 1.390 . S
C622 C621 1.390 . S
C622 C623 1.394 1_556 S
C622 C628 1.465 . S
C623 C618 1.399 . S
C623 C622 1.394 1_554 S
C623 C624 1.516 1_554 S
C624 C623 1.516 1_556 S
C624 C625 1.502 1_556 S
C624 C626 1.561 . S
C624 C627 1.526 . S
C625 H609 0.959 . S
C625 H610 0.959 . S
C625 H611 0.961 . S
C625 C624 1.502 1_554 S
C626 H612 0.960 . S
C626 H613 0.961 . S
C626 H614 0.959 . S
C626 C624 1.561 . S
C627 C624 1.526 . S
C627 C628 1.396 . S
C627 C632 1.390 . S
C628 C622 1.465 . S
C628 C627 1.396 . S
C628 C629 1.399 . S
C629 H615 0.929 . S
C629 C628 1.399 . S
C629 C630 1.385 . S
C630 H616 0.931 . S
C630 C629 1.385 . S
C630 C631 1.389 . S
C631 C630 1.389 . S
C631 C632 1.387 . S
C632 H617 0.930 . S
C632 C627 1.390 . S
C632 C631 1.387 . S
H633 C645 0.930 1_554 S
H634 C647 0.930 . S
H635 C648 0.930 . S
H636 C652 0.959 . S
H637 C652 0.959 . S
H638 C652 0.961 . S
H639 C653 0.960 1_554 S
H640 C653 0.961 . S
H641 C653 0.959 . S
H642 C656 0.929 . S
H643 C657 0.931 . S
H644 C659 0.930 . S
C645 H633 0.930 1_556 S
C645 C646 1.399 . S
C645 C650 1.399 . S
C646 C645 1.399 . S
C646 C647 1.376 . S
C647 H634 0.930 . S
C647 C646 1.376 . S
C647 C648 1.388 . S
C648 H635 0.930 . S
C648 C647 1.388 . S
C648 C649 1.390 . S
C649 C648 1.390 . S
C649 C650 1.394 . S
C649 C655 1.465 . S
C650 C645 1.399 . S
C650 C649 1.394 . S
C650 C651 1.516 . S
C651 C650 1.516 . S
C651 C652 1.502 . S
C651 C653 1.561 . S
C651 C654 1.526 . S
C652 H636 0.959 . S
C652 H637 0.959 . S
C652 H638 0.961 . S
C652 C651 1.502 . S
C653 H639 0.960 1_556 S
C653 H640 0.961 . S
C653 H641 0.959 . S
C653 C651 1.561 . S
C654 C651 1.526 . S
C654 C655 1.396 . S
C654 C659 1.390 . S
C655 C649 1.465 . S
C655 C654 1.396 . S
C655 C656 1.399 . S
C656 H642 0.929 . S
C656 C655 1.399 . S
C656 C657 1.385 . S
C657 H643 0.931 . S
C657 C656 1.385 . S
C657 C658 1.389 . S
C658 C657 1.389 . S
C658 C659 1.387 . S
C659 H644 0.930 . S
C659 C654 1.390 . S
C659 C658 1.387 . S
H660 C672 0.930 . S
H661 C674 0.930 1_554 S
H662 C675 0.930 . S
H663 C679 0.959 . S
H664 C679 0.959 . S
H665 C679 0.961 . S
H666 C680 0.960 . S
H667 C680 0.961 . S
H668 C680 0.959 . S
H669 C683 0.929 . S
H670 C684 0.931 . S
H671 C686 0.930 . S
C672 H660 0.930 . S
C672 C673 1.399 . S
C672 C677 1.399 . S
C673 C672 1.399 . S
C673 C674 1.376 . S
C674 H661 0.930 1_556 S
C674 C673 1.376 . S
C674 C675 1.388 . S
C675 H662 0.930 . S
C675 C674 1.388 . S
C675 C676 1.390 . S
C676 C675 1.390 . S
C676 C677 1.394 . S
C676 C682 1.465 . S
C677 C672 1.399 . S
C677 C676 1.394 . S
C677 C678 1.516 . S
C678 C677 1.516 . S
C678 C679 1.502 . S
C678 C680 1.561 . S
C678 C681 1.526 . S
C679 H663 0.959 . S
C679 H664 0.959 . S
C679 H665 0.961 . S
C679 C678 1.502 . S
C680 H666 0.960 . S
C680 H667 0.961 . S
C680 H668 0.959 . S
C680 C678 1.561 . S
C681 C678 1.526 . S
C681 C682 1.396 . S
C681 C686 1.390 . S
C682 C676 1.465 . S
C682 C681 1.396 . S
C682 C683 1.399 . S
C683 H669 0.929 . S
C683 C682 1.399 . S
C683 C684 1.385 . S
C684 H670 0.931 . S
C684 C683 1.385 . S
C684 C685 1.389 . S
C685 C684 1.389 . S
C685 C686 1.387 . S
C686 H671 0.930 . S
C686 C681 1.390 . S
C686 C685 1.387 . S
H687 C699 0.930 . S
H688 C701 0.930 . S
H689 C702 0.930 . S
H690 C706 0.959 . S
H691 C706 0.959 . S
H692 C706 0.961 . S
H693 C707 0.960 . S
H694 C707 0.961 . S
H695 C707 0.959 . S
H696 C710 0.929 . S
H697 C711 0.931 . S
H698 C713 0.930 . S
C699 H687 0.930 . S
C699 C700 1.399 . S
C699 C704 1.399 . S
C700 C699 1.399 . S
C700 C701 1.376 . S
C701 H688 0.930 . S
C701 C700 1.376 . S
C701 C702 1.388 . S
C702 H689 0.930 . S
C702 C701 1.388 . S
C702 C703 1.390 . S
C703 C702 1.390 . S
C703 C704 1.394 . S
C703 C709 1.465 . S
C704 C699 1.399 . S
C704 C703 1.394 . S
C704 C705 1.516 . S
C705 C704 1.516 . S
C705 C706 1.502 . S
C705 C707 1.561 . S
C705 C708 1.526 . S
C706 H690 0.959 . S
C706 H691 0.959 . S
C706 H692 0.961 . S
C706 C705 1.502 . S
C707 H693 0.960 . S
C707 H694 0.961 . S
C707 H695 0.959 . S
C707 C705 1.561 . S
C708 C705 1.526 . S
C708 C709 1.396 . S
C708 C713 1.390 . S
C709 C703 1.465 . S
C709 C708 1.396 . S
C709 C710 1.399 . S
C710 H696 0.929 . S
C710 C709 1.399 . S
C710 C711 1.385 . S
C711 H697 0.931 . S
C711 C710 1.385 . S
C711 C712 1.389 . S
C712 C711 1.389 . S
C712 C713 1.387 . S
C713 H698 0.930 . S
C713 C708 1.390 . S
C713 C712 1.387 . S
H714 C726 0.930 . S
H715 C728 0.930 . S
H716 C729 0.930 . S
H717 C733 0.959 . S
H718 C733 0.959 . S
H719 C733 0.961 . S
H720 C734 0.960 . S
H721 C734 0.961 . S
H722 C734 0.959 . S
H723 C737 0.929 . S
H724 C738 0.931 . S
H725 C740 0.930 . S
C726 H714 0.930 . S
C726 C727 1.399 . S
C726 C731 1.399 . S
C727 C726 1.399 . S
C727 C728 1.376 . S
C728 H715 0.930 . S
C728 C727 1.376 . S
C728 C729 1.388 . S
C729 H716 0.930 . S
C729 C728 1.388 . S
C729 C730 1.390 . S
C730 C729 1.390 . S
C730 C731 1.394 . S
C730 C736 1.465 . S
C731 C726 1.399 . S
C731 C730 1.394 . S
C731 C732 1.516 . S
C732 C731 1.516 . S
C732 C733 1.502 . S
C732 C734 1.561 . S
C732 C735 1.526 . S
C733 H717 0.959 . S
C733 H718 0.959 . S
C733 H719 0.961 . S
C733 C732 1.502 . S
C734 H720 0.960 . S
C734 H721 0.961 . S
C734 H722 0.959 . S
C734 C732 1.561 . S
C735 C732 1.526 . S
C735 C736 1.396 . S
C735 C740 1.390 . S
C736 C730 1.465 . S
C736 C735 1.396 . S
C736 C737 1.399 . S
C737 H723 0.929 . S
C737 C736 1.399 . S
C737 C738 1.385 . S
C738 H724 0.931 . S
C738 C737 1.385 . S
C738 C739 1.389 . S
C739 C738 1.389 . S
C739 C740 1.387 . S
C740 H725 0.930 . S
C740 C735 1.390 . S
C740 C739 1.387 . S
H741 C753 0.930 . S
H742 C755 0.930 . S
H743 C756 0.930 . S
H744 C760 0.959 . S
H745 C760 0.959 . S
H746 C760 0.961 . S
H747 C761 0.960 . S
H748 C761 0.961 . S
H749 C761 0.959 . S
H750 C764 0.929 . S
H751 C765 0.931 . S
H752 C767 0.930 . S
C753 H741 0.930 . S
C753 C754 1.399 . S
C753 C758 1.399 . S
C754 C753 1.399 . S
C754 C755 1.376 . S
C755 H742 0.930 . S
C755 C754 1.376 . S
C755 C756 1.388 . S
C756 H743 0.930 . S
C756 C755 1.388 . S
C756 C757 1.390 . S
C757 C756 1.390 . S
C757 C758 1.394 . S
C757 C763 1.465 . S
C758 C753 1.399 . S
C758 C757 1.394 . S
C758 C759 1.516 . S
C759 C758 1.516 . S
C759 C760 1.502 . S
C759 C761 1.561 . S
C759 C762 1.526 . S
C760 H744 0.959 . S
C760 H745 0.959 . S
C760 H746 0.961 . S
C760 C759 1.502 . S
C761 H747 0.960 . S
C761 H748 0.961 . S
C761 H749 0.959 . S
C761 C759 1.561 . S
C762 C759 1.526 . S
C762 C763 1.396 . S
C762 C767 1.390 . S
C763 C757 1.465 . S
C763 C762 1.396 . S
C763 C764 1.399 . S
C764 H750 0.929 . S
C764 C763 1.399 . S
C764 C765 1.385 . S
C765 H751 0.931 . S
C765 C764 1.385 . S
C765 C766 1.389 . S
C766 C765 1.389 . S
C766 C767 1.387 . S
C767 H752 0.930 . S
C767 C762 1.390 . S
C767 C766 1.387 . S
H768 C780 0.930 . S
H769 C782 0.930 . S
H770 C783 0.930 . S
H771 C787 0.959 . S
H772 C787 0.959 . S
H773 C787 0.961 . S
H774 C788 0.960 . S
H775 C788 0.961 . S
H776 C788 0.959 . S
H777 C791 0.929 . S
H778 C792 0.931 . S
H779 C794 0.930 . S
C780 H768 0.930 . S
C780 C781 1.399 . S
C780 C785 1.399 . S
C781 C780 1.399 . S
C781 C782 1.376 . S
C782 H769 0.930 . S
C782 C781 1.376 . S
C782 C783 1.388 . S
C783 H770 0.930 . S
C783 C782 1.388 . S
C783 C784 1.390 . S
C784 C783 1.390 . S
C784 C785 1.394 . S
C784 C790 1.465 . S
C785 C780 1.399 . S
C785 C784 1.394 . S
C785 C786 1.516 . S
C786 C785 1.516 . S
C786 C787 1.502 . S
C786 C788 1.561 . S
C786 C789 1.526 . S
C787 H771 0.959 . S
C787 H772 0.959 . S
C787 H773 0.961 . S
C787 C786 1.502 . S
C788 H774 0.960 . S
C788 H775 0.961 . S
C788 H776 0.959 . S
C788 C786 1.561 . S
C789 C786 1.526 . S
C789 C790 1.396 . S
C789 C794 1.390 . S
C790 C784 1.465 . S
C790 C789 1.396 . S
C790 C791 1.399 . S
C791 H777 0.929 . S
C791 C790 1.399 . S
C791 C792 1.385 . S
C792 H778 0.931 . S
C792 C791 1.385 . S
C792 C793 1.389 . S
C793 C792 1.389 . S
C793 C794 1.387 . S
C794 H779 0.930 . S
C794 C789 1.390 . S
C794 C793 1.387 . S
H795 C807 0.930 . S
H796 C809 0.930 . S
H797 C810 0.930 . S
H798 C814 0.959 . S
H799 C814 0.959 . S
H800 C814 0.961 . S
H801 C815 0.960 . S
H802 C815 0.961 . S
H803 C815 0.959 . S
H804 C818 0.929 . S
H805 C819 0.931 . S
H806 C821 0.930 . S
C807 H795 0.930 . S
C807 C808 1.399 . S
C807 C812 1.399 . S
C808 C807 1.399 . S
C808 C809 1.376 . S
C809 H796 0.930 . S
C809 C808 1.376 . S
C809 C810 1.388 . S
C810 H797 0.930 . S
C810 C809 1.388 . S
C810 C811 1.390 . S
C811 C810 1.390 . S
C811 C812 1.394 . S
C811 C817 1.465 . S
C812 C807 1.399 . S
C812 C811 1.394 . S
C812 C813 1.516 . S
C813 C812 1.516 . S
C813 C814 1.502 . S
C813 C815 1.561 . S
C813 C816 1.526 . S
C814 H798 0.959 . S
C814 H799 0.959 . S
C814 H800 0.961 . S
C814 C813 1.502 . S
C815 H801 0.960 . S
C815 H802 0.961 . S
C815 H803 0.959 . S
C815 C813 1.561 . S
C816 C813 1.526 . S
C816 C817 1.396 . S
C816 C821 1.390 . S
C817 C811 1.465 . S
C817 C816 1.396 . S
C817 C818 1.399 . S
C818 H804 0.929 . S
C818 C817 1.399 . S
C818 C819 1.385 . S
C819 H805 0.931 . S
C819 C818 1.385 . S
C819 C820 1.389 . S
C820 C819 1.389 . S
C820 C821 1.387 . S
C821 H806 0.930 . S
C821 C816 1.390 . S
C821 C820 1.387 . S
H822 C834 0.930 . S
H823 C836 0.930 . S
H824 C837 0.930 . S
H825 C841 0.959 . S
H826 C841 0.959 . S
H827 C841 0.961 . S
H828 C842 0.960 . S
H829 C842 0.961 . S
H830 C842 0.959 . S
H831 C845 0.929 . S
H832 C846 0.931 . S
H833 C848 0.930 . S
C834 H822 0.930 . S
C834 C835 1.399 . S
C834 C839 1.399 . S
C835 C834 1.399 . S
C835 C836 1.376 . S
C836 H823 0.930 . S
C836 C835 1.376 . S
C836 C837 1.388 . S
C837 H824 0.930 . S
C837 C836 1.388 . S
C837 C838 1.390 . S
C838 C837 1.390 . S
C838 C839 1.394 . S
C838 C844 1.465 . S
C839 C834 1.399 . S
C839 C838 1.394 . S
C839 C840 1.516 . S
C840 C839 1.516 . S
C840 C841 1.502 . S
C840 C842 1.561 . S
C840 C843 1.526 . S
C841 H825 0.959 . S
C841 H826 0.959 . S
C841 H827 0.961 . S
C841 C840 1.502 . S
C842 H828 0.960 . S
C842 H829 0.961 . S
C842 H830 0.959 . S
C842 C840 1.561 . S
C843 C840 1.526 . S
C843 C844 1.396 . S
C843 C848 1.390 . S
C844 C838 1.465 . S
C844 C843 1.396 . S
C844 C845 1.399 . S
C845 H831 0.929 . S
C845 C844 1.399 . S
C845 C846 1.385 . S
C846 H832 0.931 . S
C846 C845 1.385 . S
C846 C847 1.389 . S
C847 C846 1.389 . S
C847 C848 1.387 . S
C848 H833 0.930 . S
C848 C843 1.390 . S
C848 C847 1.387 . S
C214 C16 1.713 . S
C226 C108 1.779 . S
C241 C26 1.536 . S
C253 C140 1.524 . S
C280 C199 1.889 . S
C268 C52 1.840 . S
C307 C128 1.402 . S
C295 C62 1.442 . S
C322 C80 1.630 . S
C334 C158 1.599 . S
C361 C180 1.336 . S
C349 C98 1.313 . S
C388 C149 1.717 . S
C376 C43 1.638 . S
C403 C68 1.387 . S
C415 C189 1.307 . S
C442 C138 1.600 . S
C430 C86 1.572 1_556 S
C457 C104 1.492 . S
C469 C168 1.483 . S
C484 C7 1.796 . S
C496 C171 1.838 . S
C523 C110 1.601 . S
C511 C32 1.577 1_556 S
C550 C118 1.627 . S
C538 C61 1.676 . S
C577 C159 1.518 . S
C565 C79 1.470 . S
C604 C172 1.895 . S
C592 C97 1.903 . S
C631 C109 1.434 . S
C619 C14 1.463 . S
C658 C169 1.564 . S
C646 C25 1.570 1_556 S
C673 C50 1.203 . S
C685 C170 1.238 . S
C712 C139 1.682 . S
C700 C106 1.678 . S
C739 C200 1.306 . S
C727 C8 1.194 . S
C766 C127 1.501 . S
C754 C34 1.571 . S
C793 C141 1.539 . S
C781 C44 1.534 . S
C808 C70 1.781 . S
C820 C190 1.779 . S
C835 C88 1.595 . S
C847 C137 1.627 . S
