# Generated by pormake.
# Topology dag, (6,3)-cn, num edge types: 1
# Building blocks:
#     Node 0, Type 0, BuildingBlock: MIDCAF_clean_sbu_0, # of connection points: 6
#     Node 1, Type 0, BuildingBlock: MIDCAF_clean_sbu_0, # of connection points: 6
#     Node 2, Type 0, BuildingBlock: MIDCAF_clean_sbu_0, # of connection points: 6
#     Node 3, Type 0, BuildingBlock: MIDCAF_clean_sbu_0, # of connection points: 6
#     Node 4, Type 1, BuildingBlock: ESEHIV_clean_linker_0, # of connection points: 3
#     Node 5, Type 1, BuildingBlock: ESEHIV_clean_linker_0, # of connection points: 3
#     Node 6, Type 1, BuildingBlock: ESEHIV_clean_linker_0, # of connection points: 3
#     Node 7, Type 1, BuildingBlock: ESEHIV_clean_linker_0, # of connection points: 3
#     Node 8, Type 1, BuildingBlock: ESEHIV_clean_linker_0, # of connection points: 3
#     Node 9, Type 1, BuildingBlock: ESEHIV_clean_linker_0, # of connection points: 3
#     Node 10, Type 1, BuildingBlock: ESEHIV_clean_linker_0, # of connection points: 3
#     Node 11, Type 1, BuildingBlock: ESEHIV_clean_linker_0, # of connection points: 3
#     Edge 12, Type (0, 1), BuildingBlock: ZUJKAS_clean_linker_0, # of connection points: 2
#     Edge 13, Type (0, 1), BuildingBlock: ZUJKAS_clean_linker_0, # of connection points: 2
#     Edge 14, Type (0, 1), BuildingBlock: ZUJKAS_clean_linker_0, # of connection points: 2
#     Edge 15, Type (0, 1), BuildingBlock: ZUJKAS_clean_linker_0, # of connection points: 2
#     Edge 16, Type (0, 1), BuildingBlock: ZUJKAS_clean_linker_0, # of connection points: 2
#     Edge 17, Type (0, 1), BuildingBlock: ZUJKAS_clean_linker_0, # of connection points: 2
#     Edge 18, Type (0, 1), BuildingBlock: ZUJKAS_clean_linker_0, # of connection points: 2
#     Edge 19, Type (0, 1), BuildingBlock: ZUJKAS_clean_linker_0, # of connection points: 2
#     Edge 20, Type (0, 1), BuildingBlock: ZUJKAS_clean_linker_0, # of connection points: 2
#     Edge 21, Type (0, 1), BuildingBlock: ZUJKAS_clean_linker_0, # of connection points: 2
#     Edge 22, Type (0, 1), BuildingBlock: ZUJKAS_clean_linker_0, # of connection points: 2
#     Edge 23, Type (0, 1), BuildingBlock: ZUJKAS_clean_linker_0, # of connection points: 2
#     Edge 24, Type (0, 1), BuildingBlock: ZUJKAS_clean_linker_0, # of connection points: 2
#     Edge 25, Type (0, 1), BuildingBlock: ZUJKAS_clean_linker_0, # of connection points: 2
#     Edge 26, Type (0, 1), BuildingBlock: ZUJKAS_clean_linker_0, # of connection points: 2
#     Edge 27, Type (0, 1), BuildingBlock: ZUJKAS_clean_linker_0, # of connection points: 2
#     Edge 28, Type (0, 1), BuildingBlock: ZUJKAS_clean_linker_0, # of connection points: 2
#     Edge 29, Type (0, 1), BuildingBlock: ZUJKAS_clean_linker_0, # of connection points: 2
#     Edge 30, Type (0, 1), BuildingBlock: ZUJKAS_clean_linker_0, # of connection points: 2
#     Edge 31, Type (0, 1), BuildingBlock: ZUJKAS_clean_linker_0, # of connection points: 2
#     Edge 32, Type (0, 1), BuildingBlock: ZUJKAS_clean_linker_0, # of connection points: 2
#     Edge 33, Type (0, 1), BuildingBlock: ZUJKAS_clean_linker_0, # of connection points: 2
#     Edge 34, Type (0, 1), BuildingBlock: ZUJKAS_clean_linker_0, # of connection points: 2
#     Edge 35, Type (0, 1), BuildingBlock: ZUJKAS_clean_linker_0, # of connection points: 2
# Relax obj value: 0.305
# Max RMSD: 0.190
# Mean RMSD: 0.179
data_MOF--net-dag--node1-MIDCAF_clean_sbu_0--node2-ESEHIV_clean_linker_0--edge1-ZUJKAS_clean_linker_0
_symmetry_space_group_name_H-M    P1
_symmetry_Int_Tables_number       1
_symmetry_cell_setting            triclinic
loop_
_symmetry_equiv_pos_as_xyz
'x, y, z'
_cell_length_a     49.07768
_cell_length_b     50.51252
_cell_length_c     37.415621
_cell_angle_alpha  94.225082
_cell_angle_beta   89.934674
_cell_angle_gamma 89.962586
loop_
_atom_site_label
_atom_site_type_symbol
_atom_site_fract_x
_atom_site_fract_y
_atom_site_fract_z
_atom_type_partial_charge
Zn0 Zn 0.14041 0.84154 0.07293 0.0
Zn1 Zn 0.19208 0.8229 0.97221 0.0
Zn2 Zn 0.16739 0.82363 0.02948 0.0
C3 C 0.17439 0.8754 0.98975 0.0
C4 C 0.1493 0.78481 0.96503 0.0
O5 O 0.18426 0.80716 0.07742 0.0
O6 O 0.14348 0.80848 0.10176 0.0
C7 C 0.19195 0.85928 0.08814 0.0
O8 O 0.16467 0.86387 0.01607 0.0
O9 O 0.18744 0.86199 0.96547 0.0
O10 O 0.16746 0.79548 0.94681 0.0
O11 O 0.1461 0.7926 0.99818 0.0
O12 O 0.16852 0.86969 0.08629 0.0
O13 O 0.19594 0.83567 0.07357 0.0
O14 O 0.12612 0.806 0.02729 0.0
O15 O 0.10719 0.84468 0.04221 0.0
C16 C 0.10469 0.8207 0.03027 0.0
O17 O 0.20589 0.80785 0.04837 0.0
O18 O 0.22597 0.81006 0.99566 0.0
C19 C 0.16749 0.79921 0.10098 0.0
C20 C 0.22691 0.8042 0.02798 0.0
Zn21 Zn 0.62887 0.6795 0.38121 0.0
Zn22 Zn 0.63898 0.63715 0.53616 0.0
Zn23 Zn 0.64482 0.65488 0.47908 0.0
C24 C 0.64679 0.59244 0.4977 0.0
C25 C 0.59738 0.67275 0.53166 0.0
O26 O 0.67661 0.68407 0.4714 0.0
O27 O 0.65118 0.67875 0.42516 0.0
C28 C 0.65507 0.62446 0.4099 0.0
O29 O 0.65374 0.61088 0.47736 0.0
O30 O 0.63438 0.59849 0.52667 0.0
O31 O 0.60816 0.65889 0.55445 0.0
O32 O 0.60653 0.67174 0.49944 0.0
O33 O 0.64506 0.64551 0.39904 0.0
O34 O 0.65616 0.6219 0.44361 0.0
O35 O 0.60302 0.6674 0.45851 0.0
O36 O 0.59187 0.68154 0.40409 0.0
C37 C 0.58534 0.67537 0.43554 0.0
O38 O 0.67556 0.67747 0.50832 0.0
O39 O 0.6755 0.651 0.5527 0.0
C40 C 0.67102 0.69071 0.44015 0.0
C41 C 0.68563 0.6704 0.53774 0.0
Zn42 Zn 0.86658 0.15611 0.94127 0.0
Zn43 Zn 0.81859 0.17137 0.06861 0.0
Zn44 Zn 0.84213 0.16353 0.00348 0.0
C45 C 0.87482 0.17782 0.07824 0.0
C46 C 0.81005 0.11825 0.04267 0.0
O47 O 0.81985 0.18752 0.96566 0.0
O48 O 0.83765 0.17287 0.91352 0.0
C49 C 0.9033 0.1833 0.98701 0.0
O50 O 0.87405 0.17474 0.0437 0.0
O51 O 0.85308 0.17726 0.09628 0.0
O52 O 0.8014 0.13508 0.06671 0.0
O53 O 0.82635 0.12525 0.01809 0.0
O54 O 0.90024 0.17634 0.95414 0.0
O55 O 0.88428 0.17878 0.00956 0.0
O56 O 0.84002 0.12089 0.98503 0.0
O57 O 0.86823 0.11689 0.93878 0.0
C58 C 0.85259 0.10639 0.96047 0.0
O59 O 0.80844 0.19233 -0.00018 0.0
O60 O 0.79644 0.20223 0.05631 0.0
C61 C 0.8203 0.18691 0.93118 0.0
C62 C 0.79407 0.20592 0.02344 0.0
Zn63 Zn 0.36289 0.33824 0.61273 0.0
Zn64 Zn 0.30568 0.34261 0.49498 0.0
Zn65 Zn 0.33326 0.33923 0.55454 0.0
C66 C 0.35972 0.3339 0.4754 0.0
C67 C 0.29801 0.39028 0.53366 0.0
O68 O 0.31208 0.31197 0.58878 0.0
O69 O 0.33482 0.31954 0.63956 0.0
C70 C 0.39536 0.31691 0.55828 0.0
O71 O 0.36107 0.32966 0.5089 0.0
O72 O 0.33801 0.34264 0.46248 0.0
O73 O 0.28665 0.3767 0.50824 0.0
O74 O 0.317 0.38009 0.55211 0.0
O75 O 0.39477 0.31843 0.59207 0.0
O76 O 0.37507 0.32514 0.54027 0.0
O77 O 0.33388 0.37972 0.58242 0.0
O78 O 0.36625 0.37722 0.62316 0.0
C79 C 0.34908 0.39082 0.60732 0.0
O80 O 0.30073 0.30876 0.55471 0.0
O81 O 0.28596 0.30868 0.49878 0.0
C82 C 0.31512 0.30876 0.62237 0.0
C83 C 0.28586 0.29876 0.52877 0.0
H84 H 0.11631 0.08273 0.24352 0.0
H85 H 0.17108 0.08688 0.33299 0.0
H86 H 0.10666 0.14452 0.32805 0.0
C87 C 0.12247 0.09209 0.26924 0.0
C88 C 0.10827 0.11451 0.28395 0.0
C89 C 0.14518 0.08211 0.28667 0.0
C90 C 0.15385 0.09487 0.31923 0.0
C91 C 0.14015 0.11748 0.33445 0.0
C92 C 0.1173 0.12709 0.31663 0.0
H93 H 0.41699 0.65348 0.73174 0.0
H94 H 0.36808 0.64194 0.82432 0.0
H95 H 0.43 0.70263 0.82903 0.0
C96 C 0.41177 0.65906 0.75943 0.0
C97 C 0.42594 0.67983 0.77837 0.0
C98 C 0.39127 0.64501 0.77604 0.0
C99 C 0.38446 0.65231 0.81186 0.0
C100 C 0.39798 0.67341 0.83115 0.0
C101 C 0.41884 0.68694 0.81416 0.0
H102 H 0.82366 0.84782 0.07509 0.0
H103 H 0.83248 0.79089 0.15467 0.0
H104 H 0.76821 0.84899 0.1637 0.0
C105 C 0.8166 0.83909 0.09903 0.0
C106 C 0.79429 0.85057 0.1177 0.0
C107 C 0.83106 0.8179 0.11244 0.0
C108 C 0.82151 0.80706 0.14374 0.0
C109 C 0.79836 0.8177 0.16185 0.0
C110 C 0.78509 0.83968 0.14885 0.0
H111 H 0.66453 0.33116 0.5549 0.0
H112 H 0.66576 0.2789 0.64008 0.0
H113 H 0.72033 0.34609 0.64219 0.0
C114 C 0.67368 0.32499 0.57932 0.0
C115 C 0.69445 0.34042 0.59595 0.0
C116 C 0.66277 0.30329 0.59565 0.0
C117 C 0.6739 0.29612 0.62813 0.0
C118 C 0.69507 0.3111 0.64518 0.0
C119 C 0.70493 0.33355 0.62894 0.0
H120 H 0.57128 0.38702 0.25634 0.0
H121 H 0.62694 0.38156 0.16784 0.0
H122 H 0.5715 0.31712 0.18342 0.0
C123 C 0.57897 0.37634 0.2322 0.0
C124 C 0.56818 0.35132 0.22138 0.0
C125 C 0.60042 0.38713 0.21335 0.0
C126 C 0.61082 0.37285 0.18294 0.0
C127 C 0.60074 0.3475 0.1719 0.0
C128 C 0.57928 0.33675 0.19132 0.0
H129 H 0.15723 0.16457 0.99212 0.0
H130 H 0.17031 0.22661 0.92155 0.0
H131 H 0.20877 0.15054 0.8998 0.0
C132 C 0.16784 0.17199 0.96949 0.0
C133 C 0.18407 0.15456 0.9476 0.0
C134 C 0.16286 0.19806 0.96044 0.0
C135 C 0.17486 0.20685 0.92934 0.0
C136 C 0.19122 0.18972 0.90708 0.0
C137 C 0.19606 0.16377 0.91675 0.0
H138 H 0.29765 0.65341 0.49625 0.0
H139 H 0.29431 0.71511 0.42317 0.0
H140 H 0.23157 0.65552 0.42184 0.0
C141 C 0.28693 0.66385 0.47623 0.0
C142 C 0.26228 0.65335 0.46265 0.0
C143 C 0.29923 0.68558 0.46137 0.0
C144 C 0.28544 0.69783 0.43416 0.0
C145 C 0.26129 0.68696 0.41921 0.0
C146 C 0.24964 0.66474 0.43384 0.0
H147 H 0.90117 0.82402 0.883 0.0
H148 H 0.87946 0.76496 0.7995 0.0
H149 H 0.83182 0.83647 0.81641 0.0
C150 C 0.88756 0.817 0.86155 0.0
C151 C 0.86529 0.83268 0.85271 0.0
C152 C 0.89291 0.79272 0.84204 0.0
C153 C 0.8755 0.78395 0.81399 0.0
C154 C 0.85317 0.79945 0.80468 0.0
C155 C 0.84827 0.8238 0.82423 0.0
H156 H 0.19497 0.85909 0.15967 0.0
H157 H 0.20525 0.89928 0.19727 0.0
H158 H 0.24242 0.93353 0.1069 0.0
H159 H 0.23069 0.89367 0.06877 0.0
H160 H 0.24187 0.93848 0.21925 0.0
H161 H 0.1705 0.97253 0.11616 0.0
H162 H 0.17981 0.93818 0.11774 0.0
H163 H 0.20322 0.96127 0.10003 0.0
C164 C 0.20685 0.87454 0.1484 0.0
C165 C 0.21185 0.87352 0.11141 0.0
C166 C 0.21257 0.89765 0.16986 0.0
C167 C 0.22357 0.91983 0.15451 0.0
C168 C 0.23318 0.9169 0.11902 0.0
H169 H 0.20031 0.07522 0.27793 0.0
H170 H 0.2239 0.03727 0.24685 0.0
C171 C 0.22693 0.89393 0.09735 0.0
C172 C 0.21856 0.94658 0.17259 0.0
H173 H 0.17757 0.00081 0.16699 0.0
C174 C 0.22824 0.9524 0.20764 0.0
C175 C 0.20026 0.9645 0.1576 0.0
C176 C 0.18762 0.95885 0.12099 0.0
C177 C 0.21927 0.97507 0.22856 0.0
C178 C 0.20048 0.99248 0.21376 0.0
C179 C 0.19195 0.98736 0.1782 0.0
C180 C 0.1871 0.01467 0.23532 0.0
C181 C 0.22867 0.97941 0.2669 0.0
C182 C 0.15863 0.01461 0.23907 0.0
C183 C 0.14515 0.03625 0.25638 0.0
C184 C 0.15987 0.05846 0.27045 0.0
C185 C 0.18848 0.05825 0.26762 0.0
C186 C 0.20199 0.03657 0.24998 0.0
H187 H 0.23936 0.96175 0.2761 0.0
H188 H 0.24294 -0.00353 0.26934 0.0
H189 H 0.21111 0.9842 0.28497 0.0
H190 H 0.14673 -0.00211 0.22802 0.0
H191 H 0.12315 0.0357 0.25855 0.0
H192 H 0.6076 0.72435 0.54948 0.0
H193 H 0.58307 0.75109 0.5967 0.0
H194 H 0.51964 0.69199 0.5944 0.0
H195 H 0.54504 0.66458 0.54974 0.0
H196 H 0.5041 0.75194 0.61149 0.0
H197 H 0.58565 0.70839 0.69278 0.0
H198 H 0.59389 0.72761 0.65545 0.0
H199 H 0.57983 0.69496 0.64745 0.0
C200 C 0.58761 0.71793 0.55762 0.0
C201 C 0.57765 0.69281 0.54517 0.0
C202 C 0.57377 0.73312 0.58475 0.0
C203 C 0.54957 0.72348 0.5989 0.0
C204 C 0.53812 0.6999 0.58344 0.0
H205 H 0.46569 0.65728 0.7355 0.0
H206 H 0.4996 0.67944 0.70095 0.0
C207 C 0.55239 0.68437 0.55741 0.0
C208 C 0.53896 0.73374 0.6342 0.0
H209 H 0.54259 0.71475 0.71956 0.0
C210 C 0.51287 0.74502 0.63571 0.0
C211 C 0.55077 0.725 0.66574 0.0
C212 C 0.5791 0.71334 0.66564 0.0
C213 C 0.49672 0.74421 0.66663 0.0
C214 C 0.50707 0.73157 0.69632 0.0
C215 C 0.53461 0.72407 0.69654 0.0
C216 C 0.48843 0.7192 0.72142 0.0
C217 C 0.4677 0.75396 0.66574 0.0
C218 C 0.47116 0.73415 0.74507 0.0
C219 C 0.45125 0.72141 0.76455 0.0
C220 C 0.44845 0.69358 0.76064 0.0
C221 C 0.46682 0.67875 0.73843 0.0
C222 C 0.48648 0.69141 0.719 0.0
H223 H 0.46276 0.76284 0.64023 0.0
H224 H 0.45341 0.7373 0.6692 0.0
H225 H 0.46427 0.76924 0.68814 0.0
H226 H 0.47258 0.75559 0.74772 0.0
H227 H 0.43745 0.73338 0.78159 0.0
H228 H 0.75919 0.09688 0.0415 0.0
H229 H 0.74709 0.05007 0.04615 0.0
H230 H 0.8324 0.03043 0.05435 0.0
H231 H 0.8444 0.07686 0.04759 0.0
H232 H 0.80741 0.99355 0.01396 0.0
H233 H 0.74603 0.01479 0.13758 0.0
H234 H 0.73349 0.0306 0.09951 0.0
H235 H 0.76619 0.03987 0.11824 0.0
C236 C 0.77523 0.0824 0.0441 0.0
C237 C 0.80265 0.09021 0.0443 0.0
C238 C 0.76835 0.05577 0.047 0.0
C239 C 0.78878 0.03677 0.05147 0.0
C240 C 0.81624 0.04468 0.05108 0.0
H241 H 0.79494 0.89673 0.15878 0.0
H242 H 0.78774 0.94121 0.13925 0.0
C243 C 0.82311 0.07116 0.04737 0.0
C244 C 0.78191 0.0088 0.05758 0.0
H245 H 0.74922 0.97019 0.11537 0.0
C246 C 0.79455 0.98842 0.03601 0.0
C247 C 0.76515 0.00211 0.08644 0.0
C248 C 0.75213 0.02296 0.11198 0.0
C249 C 0.79208 0.96169 0.04353 0.0
C250 C 0.77552 0.95501 0.07259 0.0
C251 C 0.76174 0.97529 0.09299 0.0
C252 C 0.77533 0.92781 0.08535 0.0
C253 C 0.8087 0.94119 0.02166 0.0
C254 C 0.76962 0.90533 0.06213 0.0
C255 C 0.77444 0.87983 0.07308 0.0
C256 C 0.78398 0.8765 0.10783 0.0
C257 C 0.78736 0.89884 0.13195 0.0
C258 C 0.78326 0.92426 0.12075 0.0
H259 H 0.82526 0.95046 0.00688 0.0
H260 H 0.81805 0.92671 0.0389 0.0
H261 H 0.79536 0.9303 0.00169 0.0
H262 H 0.76264 0.9075 0.03507 0.0
H263 H 0.77161 0.86279 0.05413 0.0
H264 H 0.43816 0.34697 0.54225 0.0
H265 H 0.48406 0.33146 0.52733 0.0
H266 H 0.45537 0.25038 0.51954 0.0
H267 H 0.40956 0.26618 0.53689 0.0
H268 H 0.49478 0.25202 0.56041 0.0
H269 H 0.53087 0.30558 0.44803 0.0
H270 H 0.51659 0.33018 0.47937 0.0
H271 H 0.49509 0.30423 0.45892 0.0
C272 C 0.44159 0.32592 0.53617 0.0
C273 C 0.42057 0.30772 0.54039 0.0
C274 C 0.4678 0.31699 0.52721 0.0
C275 C 0.47337 0.28965 0.52168 0.0
C276 C 0.45172 0.27154 0.52354 0.0
H277 H 0.65165 0.28439 0.52653 0.0
H278 H 0.60692 0.27142 0.50169 0.0
C279 C 0.42556 0.28051 0.5333 0.0
C280 C 0.50221 0.28034 0.52092 0.0
H281 H 0.56542 0.30023 0.49632 0.0
C282 C 0.51014 0.26199 0.54544 0.0
C283 C 0.52257 0.2922 0.50057 0.0
C284 C 0.51568 0.30885 0.46996 0.0
C285 C 0.53768 0.25777 0.55319 0.0
C286 C 0.55779 0.27324 0.53738 0.0
C287 C 0.55009 0.28904 0.50965 0.0
C288 C 0.58575 0.2763 0.5526 0.0
C289 C 0.54473 0.23739 0.57923 0.0
C290 C 0.58902 0.28283 0.58954 0.0
C291 C 0.61453 0.28965 0.60376 0.0
C292 C 0.63732 0.29083 0.58126 0.0
C293 C 0.63437 0.28354 0.54446 0.0
C294 C 0.60883 0.27621 0.53027 0.0
H295 H 0.53085 0.22003 0.57555 0.0
H296 H 0.56607 0.23031 0.57593 0.0
H297 H 0.54182 0.24617 0.60704 0.0
H298 H 0.57156 0.28414 0.60728 0.0
H299 H 0.61606 0.29576 0.63206 0.0
H300 H 0.63322 0.61463 0.3438 0.0
H301 H 0.63711 0.57372 0.30526 0.0
H302 H 0.69543 0.54331 0.37817 0.0
H303 H 0.6915 0.58449 0.41697 0.0
H304 H 0.67911 0.54189 0.27102 0.0
H305 H 0.62865 0.49439 0.38376 0.0
H306 H 0.63056 0.52995 0.38235 0.0
H307 H 0.66026 0.51146 0.39322 0.0
C308 C 0.6473 0.59946 0.35126 0.0
C309 C 0.66132 0.60208 0.384 0.0
C310 C 0.6496 0.57618 0.32914 0.0
C311 C 0.6661 0.55537 0.33935 0.0
C312 C 0.68214 0.559 0.37032 0.0
H313 H 0.65463 0.39907 0.21947 0.0
H314 H 0.67502 0.43973 0.24758 0.0
C315 C 0.67967 0.58226 0.39261 0.0
C316 C 0.66303 0.52895 0.32038 0.0
H317 H 0.63214 0.46933 0.32896 0.0
C318 C 0.66938 0.52575 0.28373 0.0
C319 C 0.64996 0.50821 0.33717 0.0
C320 C 0.64174 0.51103 0.37621 0.0
C321 C 0.66199 0.50257 0.26303 0.0
C322 C 0.64806 0.48233 0.27963 0.0
C323 C 0.64285 0.48504 0.31653 0.0
C324 C 0.63639 0.45916 0.25891 0.0
C325 C 0.66772 0.50037 0.22333 0.0
C326 C 0.60801 0.45696 0.25579 0.0
C327 C 0.59633 0.43393 0.23977 0.0
C328 C 0.61287 0.41265 0.22678 0.0
C329 C 0.6414 0.41529 0.22887 0.0
C330 C 0.65308 0.43841 0.24493 0.0
H331 H 0.67674 0.51884 0.21406 0.0
H332 H 0.68211 0.48374 0.21686 0.0
H333 H 0.64862 0.49586 0.20822 0.0
H334 H 0.59488 0.47289 0.26652 0.0
H335 H 0.57433 0.43256 0.23812 0.0
H336 H 0.95211 0.17449 0.95501 0.0
H337 H -0.00345 0.19085 0.97505 0.0
H338 H 0.95953 0.23382 0.06643 0.0
H339 H 0.91429 0.21776 0.0459 0.0
H340 H 0.00368 0.26147 0.01854 0.0
H341 H 0.03321 0.16667 0.07264 0.0
H342 H 0.01748 0.16196 0.02934 0.0
H343 H -0.00192 0.17625 0.06669 0.0
C344 C 0.95327 0.18759 0.97923 0.0
C345 C 0.92977 0.19453 0.9992 0.0
C346 C 0.97869 0.19682 0.99071 0.0
C347 C 0.98125 0.21326 0.02234 0.0
C348 C 0.95786 0.22099 0.04203 0.0
H349 H 0.15522 0.2055 0.03318 0.0
H350 H 0.11307 0.22036 0.06352 0.0
C351 C 0.93217 0.21167 0.03045 0.0
C352 C 0.00889 0.22153 0.03395 0.0
H353 H 0.0699 0.19205 0.04754 0.0
C354 C 0.0182 0.24672 0.02622 0.0
C355 C 0.02767 0.20249 0.04467 0.0
C356 C 0.01857 0.17538 0.05416 0.0
C357 C 0.04625 0.2521 0.0245 0.0
C358 C 0.06511 0.23161 0.03014 0.0
C359 C 0.05559 0.20778 0.04275 0.0
C360 C 0.09317 0.23153 0.01526 0.0
C361 C 0.05534 0.27901 0.01426 0.0
C362 C 0.09656 0.23407 0.97838 0.0
C363 C 0.12051 0.22552 0.96104 0.0
C364 C 0.14149 0.21402 0.9802 0.0
C365 C 0.13921 0.21396 0.01769 0.0
C366 C 0.11522 0.22261 0.03508 0.0
H367 H 0.04175 0.29477 0.02656 0.0
H368 H 0.07665 0.28338 0.02271 0.0
H369 H 0.05391 0.27973 0.98475 0.0
H370 H 0.07972 0.24016 0.9622 0.0
H371 H 0.12142 0.22559 0.93212 0.0
H372 H 0.33099 0.43321 0.53233 0.0
H373 H 0.31684 0.47961 0.53185 0.0
H374 H 0.23339 0.4567 0.54949 0.0
H375 H 0.2475 0.41008 0.54759 0.0
H376 H 0.23381 0.48554 0.49791 0.0
H377 H 0.29731 0.53846 0.60133 0.0
H378 H 0.31871 0.51919 0.57066 0.0
H379 H 0.29436 0.50283 0.59769 0.0
C380 C 0.30975 0.43828 0.53689 0.0
C381 C 0.29029 0.41832 0.54018 0.0
C382 C 0.30165 0.46484 0.53697 0.0
C383 C 0.27402 0.4719 0.54121 0.0
C384 C 0.2548 0.45187 0.54623 0.0
H385 H 0.24815 0.64253 0.5304 0.0
H386 H 0.24331 0.59841 0.55297 0.0
C387 C 0.26283 0.42529 0.54527 0.0
C388 C 0.26482 0.49941 0.53569 0.0
H389 H 0.28168 0.56453 0.55334 0.0
C390 C 0.24392 0.50281 0.51073 0.0
C391 C 0.27739 0.52217 0.55277 0.0
C392 C 0.29796 0.52045 0.5824 0.0
C393 C 0.23646 0.52807 0.50085 0.0
C394 C 0.25103 0.55054 0.5152 0.0
C395 C 0.27072 0.54734 0.54179 0.0
C396 C 0.24812 0.57709 0.50095 0.0
C397 C 0.21319 0.53024 0.4749 0.0
C398 C 0.25143 0.57989 0.46408 0.0
C399 C 0.25346 0.60505 0.45115 0.0
C400 C 0.25289 0.62781 0.47496 0.0
C401 C 0.24835 0.62517 0.51157 0.0
C402 C 0.24577 0.60001 0.52444 0.0
H403 H 0.19781 0.51448 0.47825 0.0
H404 H 0.20294 0.54986 0.47849 0.0
H405 H 0.22109 0.52741 0.44708 0.0
H406 H 0.25422 0.56265 0.44548 0.0
H407 H 0.25759 0.60662 0.42293 0.0
H408 H 0.14383 0.77252 0.89279 0.0
H409 H 0.1022 0.75684 0.86258 0.0
H410 H 0.06591 0.74347 0.96473 0.0
H411 H 0.1087 0.75651 0.99461 0.0
H412 H 0.04283 0.71174 0.91143 0.0
H413 H 0.04713 0.81605 0.87336 0.0
H414 H 0.07465 0.79576 0.85562 0.0
H415 H 0.07145 0.80289 0.90333 0.0
C416 C 0.12738 0.76532 0.90877 0.0
C417 C 0.12866 0.76746 0.94643 0.0
C418 C 0.10351 0.75651 0.89144 0.0
C419 C 0.08048 0.75049 0.91159 0.0
C420 C 0.08318 0.7488 0.94868 0.0
H421 H 0.91139 0.77785 0.9063 0.0
H422 H 0.95662 0.75989 0.91889 0.0
C423 C 0.10738 0.75677 0.96586 0.0
C424 C 0.05295 0.75067 0.89543 0.0
H425 H 0.0084 0.79159 0.85621 0.0
C426 C 0.03538 0.72904 0.89895 0.0
C427 C 0.04305 0.77355 0.87983 0.0
C428 C 0.0599 0.79848 0.87808 0.0
C429 C 0.00812 0.72985 0.88751 0.0
C430 C -0.00154 0.7527 0.87203 0.0
C431 C 0.01616 0.77393 0.86761 0.0
C432 C 0.96949 0.75669 0.86346 0.0
C433 C 0.98963 0.70661 0.89257 0.0
C434 C 0.96173 0.76024 0.82807 0.0
C435 C 0.93604 0.77046 0.82089 0.0
C436 C 0.91796 0.77769 0.8491 0.0
C437 C 0.92517 0.77268 0.88426 0.0
C438 C 0.95077 0.76216 0.89138 0.0
H439 H 0.00131 0.68849 0.898 0.0
H440 H 0.97588 0.71164 0.91566 0.0
H441 H 0.97673 0.70228 0.86848 0.0
H442 H 0.9761 0.75647 0.80628 0.0
H443 H 0.93099 0.77428 0.79356 0.0
H444 H 0.80636 0.07681 0.96697 0.0
H445 H 0.80257 0.0281 0.95934 0.0
H446 H 0.88891 0.02257 0.93814 0.0
H447 H 0.8928 0.07076 0.94654 0.0
H448 H 0.8161 -0.00321 0.89706 0.0
H449 H 0.87795 0.96734 0.01088 0.0
H450 H 0.86405 0.00032 0.00899 0.0
H451 H 0.89526 0.99122 0.98586 0.0
C452 C 0.82454 0.06502 0.96151 0.0
C453 C 0.84994 0.07733 0.95794 0.0
C454 C 0.82235 0.03733 0.95695 0.0
C455 C 0.84558 0.02175 0.94891 0.0
C456 C 0.87088 0.03416 0.94533 0.0
H457 H 0.90279 0.87156 0.86842 0.0
H458 H 0.89458 0.9165 0.89513 0.0
C459 C 0.87304 0.06167 0.94978 0.0
C460 C 0.84355 0.9927 0.94112 0.0
H461 H 0.87354 0.93464 0.96089 0.0
C462 C 0.82814 0.98302 0.91143 0.0
C463 C 0.85938 0.97493 0.95989 0.0
C464 C 0.87487 0.98395 0.99341 0.0
C465 C 0.82958 0.95625 0.89853 0.0
C466 C 0.84648 0.9387 0.91635 0.0
C467 C 0.86083 0.94819 0.94706 0.0
C468 C 0.8512 0.91097 0.90205 0.0
C469 C 0.81438 0.9474 0.86469 0.0
C470 C 0.82962 0.89281 0.89778 0.0
C471 C 0.83427 0.86715 0.88237 0.0
C472 C 0.86063 0.85915 0.87147 0.0
C473 C 0.88233 0.8771 0.87691 0.0
C474 C 0.87764 0.90278 0.89203 0.0
H475 H 0.80726 0.96448 0.8501 0.0
H476 H 0.82741 0.93453 0.84639 0.0
H477 H 0.79622 0.93575 0.87167 0.0
H478 H 0.80918 0.89854 0.9061 0.0
H479 H 0.81724 0.85358 0.87882 0.0
H480 H 0.39602 0.29273 0.47223 0.0
H481 H 0.4364 0.28699 0.43315 0.0
H482 H 0.41657 0.35984 0.38572 0.0
H483 H 0.37681 0.36582 0.42502 0.0
H484 H 0.43422 0.28832 0.3498 0.0
H485 H 0.50004 0.36342 0.42229 0.0
H486 H 0.47131 0.34829 0.44317 0.0
H487 H 0.466 0.3749 0.41462 0.0
C488 C 0.40078 0.30772 0.454 0.0
C489 C 0.38382 0.32999 0.45211 0.0
C490 C 0.42352 0.30427 0.43144 0.0
C491 C 0.42947 0.32314 0.40687 0.0
C492 C 0.41238 0.34522 0.40479 0.0
H493 H 0.52075 0.37561 0.24106 0.0
H494 H 0.48872 0.36292 0.28681 0.0
C495 C 0.38967 0.34856 0.42709 0.0
C496 C 0.45311 0.32002 0.38246 0.0
H497 H 0.51084 0.35244 0.36005 0.0
C498 C 0.45143 0.30178 0.35237 0.0
C499 C 0.47543 0.33762 0.3861 0.0
C500 C 0.47852 0.35702 0.41847 0.0
C501 C 0.47056 0.30212 0.32439 0.0
C502 C 0.49175 0.32106 0.32693 0.0
C503 C 0.49444 0.33801 0.35817 0.0
C504 C 0.50923 0.32613 0.29595 0.0
C505 C 0.46705 0.2836 0.29126 0.0
C506 C 0.53086 0.30915 0.2852 0.0
C507 C 0.5492 0.31634 0.25881 0.0
C508 C 0.54613 0.34066 0.24322 0.0
C509 C 0.52358 0.35681 0.25276 0.0
C510 C 0.50535 0.34963 0.27891 0.0
H511 H 0.44901 0.27048 0.29307 0.0
H512 H 0.46477 0.29528 0.26742 0.0
H513 H 0.4855 0.27104 0.28708 0.0
H514 H 0.53422 0.291 0.29829 0.0
H515 H 0.56661 0.30372 0.25217 0.0
H516 H 0.18306 0.90441 0.93227 0.0
H517 H 0.18313 0.95273 0.9311 0.0
H518 H 0.16157 0.96074 0.04308 0.0
H519 H 0.16123 0.91225 0.04457 0.0
H520 H 0.13527 0.99094 0.9594 0.0
H521 H 0.23707 0.00422 0.02437 0.0
H522 H 0.22779 0.97345 -0.00029 0.0
H523 H 0.2124 0.98231 0.04233 0.0
C524 C 0.17812 0.9164 0.95662 0.0
C525 C 0.17215 0.9045 0.98851 0.0
C526 C 0.17818 0.94397 0.95587 0.0
C527 C 0.17257 0.96013 0.98705 0.0
C528 C 0.16608 0.94846 0.01883 0.0
H529 H 0.18959 0.13307 0.01254 0.0
H530 H 0.18593 0.0862 0.02464 0.0
C531 C 0.16575 0.9208 0.01954 0.0
C532 C 0.17397 0.98924 0.98602 0.0
H533 H 0.2164 0.04211 0.00332 0.0
C534 C 0.15285 0.00224 0.96925 0.0
C535 C 0.19687 0.00377 0.99921 0.0
C536 C 0.21997 0.99039 0.0174 0.0
C537 C 0.15426 0.02951 0.96467 0.0
C538 C 0.17781 0.04389 0.97625 0.0
C539 C 0.19851 0.031 0.99418 0.0
C540 C 0.18161 0.07207 0.96893 0.0
C541 C 0.13046 0.04265 0.94755 0.0
C542 C 0.18137 0.07954 0.93355 0.0
C543 C 0.18318 0.10624 0.92657 0.0
C544 C 0.18563 0.12604 0.95486 0.0
C545 C 0.18728 0.11835 0.9902 0.0
C546 C 0.1853 0.09159 0.99716 0.0
H547 H 0.1113 0.03132 0.95059 0.0
H548 H 0.1274 0.06325 0.95939 0.0
H549 H 0.13446 0.04342 0.91845 0.0
H550 H 0.17923 0.06471 0.9113 0.0
H551 H 0.18158 0.11138 0.89906 0.0
H552 H 0.55821 0.64783 0.4852 0.0
H553 H 0.51025 0.6519 0.50227 0.0
H554 H 0.49761 0.70638 0.42024 0.0
H555 H 0.54589 0.70438 0.40555 0.0
H556 H 0.47419 0.72511 0.4778 0.0
H557 H 0.44548 0.61862 0.45797 0.0
H558 H 0.47149 0.62501 0.49101 0.0
H559 H 0.47833 0.63049 0.44481 0.0
C560 C 0.54536 0.66128 0.47156 0.0
C561 C 0.55612 0.67666 0.44514 0.0
C562 C 0.51775 0.66305 0.48071 0.0
C563 C 0.5002 0.67941 0.46255 0.0
C564 C 0.51076 0.69389 0.43506 0.0
H565 H 0.33839 0.70047 0.41478 0.0
H566 H 0.38715 0.70302 0.42455 0.0
C567 C 0.5384 0.69264 0.42656 0.0
C568 C 0.471 0.68239 0.47244 0.0
H569 H 0.41123 0.64847 0.47912 0.0
C570 C 0.46052 0.70828 0.4783 0.0
C571 C 0.45311 0.66043 0.47356 0.0
C572 C 0.4626 0.63211 0.4662 0.0
C573 C 0.43256 0.71284 0.48314 0.0
C574 C 0.41474 0.691 0.48296 0.0
C575 C 0.42522 0.66512 0.47951 0.0
C576 C 0.38504 0.6944 0.48018 0.0
C577 C 0.42203 0.74096 0.48673 0.0
C578 C 0.36771 0.68954 0.50873 0.0
C579 C 0.33947 0.68874 0.50358 0.0
C580 C 0.32827 0.69214 0.46953 0.0
C581 C 0.34591 0.6983 0.44159 0.0
C582 C 0.37395 0.69955 0.44697 0.0
H583 H 0.43852 0.75547 0.49375 0.0
H584 H 0.41297 0.74582 0.46083 0.0
H585 H 0.40581 0.74313 0.50747 0.0
H586 H 0.37607 0.68549 0.53456 0.0
H587 H 0.32653 0.68439 0.52586 0.0
H588 H 0.30317 0.42148 0.61583 0.0
H589 H 0.30071 0.46862 0.63693 0.0
H590 H 0.38835 0.47097 0.64587 0.0
H591 H 0.39077 0.42427 0.62444 0.0
H592 H 0.31504 0.49352 0.69813 0.0
H593 H 0.3759 0.53566 0.59304 0.0
H594 H 0.36464 0.50157 0.58897 0.0
H595 H 0.39582 0.51063 0.61227 0.0
C596 C 0.32187 0.43238 0.62133 0.0
C597 C 0.34719 0.41951 0.61763 0.0
C598 C 0.32048 0.45926 0.63352 0.0
C599 C 0.34443 0.47373 0.64176 0.0
C600 C 0.36965 0.46063 0.63841 0.0
H601 H 0.38378 0.59545 0.79843 0.0
H602 H 0.36645 0.55622 0.76378 0.0
C603 C 0.37102 0.43386 0.62647 0.0
C604 C 0.34346 0.50189 0.65648 0.0
H605 H 0.37659 0.56088 0.65171 0.0
C606 C 0.32806 0.50842 0.68755 0.0
C607 C 0.35972 0.52172 0.64222 0.0
C608 C 0.37466 0.51704 0.60704 0.0
C609 C 0.33033 0.53348 0.70634 0.0
C610 C 0.3491 0.5522 0.69433 0.0
C611 C 0.36266 0.54643 0.66159 0.0
C612 C 0.35681 0.57676 0.71652 0.0
C613 C 0.31284 0.53938 0.73913 0.0
C614 C 0.35777 0.60144 0.70147 0.0
C615 C 0.36826 0.62382 0.72109 0.0
C616 C 0.37784 0.62201 0.75624 0.0
C617 C 0.37614 0.59753 0.77163 0.0
C618 C 0.36603 0.5751 0.75186 0.0
H619 H 0.2931 0.52865 0.73647 0.0
H620 H 0.32344 0.5324 0.76288 0.0
H621 H 0.30866 0.56095 0.74396 0.0
H622 H 0.35095 0.60326 0.67424 0.0
H623 H 0.36921 0.64249 0.70863 0.0
H624 H 0.06029 0.84547 0.0054 0.0
H625 H 0.01284 0.8315 0.00956 0.0
H626 H 0.03892 0.75703 0.04777 0.0
H627 H 0.08635 0.77192 0.04629 0.0
H628 H 0.98003 0.7922 0.98424 0.0
H629 H 0.99459 0.78622 0.13109 0.0
H630 H 0.02061 0.79889 0.10301 0.0
H631 H 0.01494 0.7637 0.10299 0.0
C632 C 0.0559 0.82592 0.01406 0.0
C633 C 0.07702 0.80964 0.02508 0.0
C634 C 0.02878 0.81788 0.01631 0.0
C635 C 0.02221 0.79341 0.02969 0.0
C636 C 0.04341 0.77623 0.0381 0.0
H637 H 0.85283 0.7673 0.10348 0.0
H638 H 0.89804 0.75458 0.0795 0.0
C639 C 0.07058 0.7845 0.03647 0.0
C640 C 0.99331 0.7877 0.03833 0.0
H641 H 0.95016 0.78249 0.10932 0.0
C642 C 0.97354 0.7896 0.01148 0.0
C643 C 0.98476 0.78429 0.07396 0.0
C644 C 0.00475 0.78336 0.10452 0.0
C645 C 0.9456 0.78991 0.01973 0.0
C646 C 0.93724 0.78779 0.05551 0.0
C647 C 0.95678 0.78387 0.08185 0.0
C648 C 0.9091 0.79435 0.06729 0.0
C649 C 0.92513 0.79378 0.99057 0.0
C650 C 0.90068 0.82088 0.06879 0.0
C651 C 0.87532 0.82828 0.08299 0.0
C652 C 0.85756 0.80925 0.09582 0.0
C653 C 0.86598 0.7825 0.09399 0.0
C654 C 0.89167 0.77514 0.08005 0.0
H655 H 0.93449 0.79128 0.96355 0.0
H656 H 0.90802 0.77952 0.99217 0.0
H657 H 0.91654 0.81413 0.99417 0.0
H658 H 0.91415 0.83609 0.05992 0.0
H659 H 0.87009 0.84916 0.08493 0.0
H660 H 0.6972 0.57527 0.47662 0.0
H661 H 0.7152 0.53005 0.478 0.0
H662 H 0.636 0.50294 0.50957 0.0
H663 H 0.6179 0.54779 0.50691 0.0
H664 H 0.71785 0.50494 0.53847 0.0
H665 H 0.65874 0.44254 0.4396 0.0
H666 H 0.66033 0.47819 0.43883 0.0
H667 H 0.63628 0.46305 0.4675 0.0
C668 C 0.68335 0.55932 0.48179 0.0
C669 C 0.65599 0.56479 0.49053 0.0
C670 C 0.69373 0.53359 0.48317 0.0
C671 C 0.67688 0.51296 0.49336 0.0
C672 C 0.64925 0.51828 0.50065 0.0
H673 H 0.69427 0.39017 0.62898 0.0
H674 H 0.69749 0.43194 0.60038 0.0
C675 C 0.63892 0.54394 0.49928 0.0
C676 C 0.68853 0.48691 0.50133 0.0
H677 H 0.67523 0.42059 0.49116 0.0
C678 C 0.70901 0.48642 0.5275 0.0
C679 C 0.67751 0.46268 0.48656 0.0
C680 C 0.65721 0.46163 0.45627 0.0
C681 C 0.71715 0.46253 0.54128 0.0
C682 C 0.70396 0.43862 0.52921 0.0
C683 C 0.6851 0.4389 0.50098 0.0
C684 C 0.70708 0.41368 0.5476 0.0
C685 C 0.73937 0.46334 0.56915 0.0
C686 C 0.71146 0.38938 0.52766 0.0
C687 C 0.70908 0.36544 0.54392 0.0
C688 C 0.70251 0.3654 0.58047 0.0
C689 C 0.69981 0.38969 0.6009 0.0
C690 C 0.70179 0.41361 0.58454 0.0
H691 H 0.7542 0.47941 0.56482 0.0
H692 H 0.73022 0.46768 0.59609 0.0
H693 H 0.75052 0.44419 0.56886 0.0
H694 H 0.71548 0.38888 0.49914 0.0
H695 H 0.71123 0.34691 0.52764 0.0
H696 H 0.92264 0.15393 0.05705 0.0
H697 H 0.9635 0.14904 0.09346 0.0
H698 H 0.92716 0.19824 0.17976 0.0
H699 H 0.88596 0.20279 0.14371 0.0
H700 H 0.00041 0.18757 0.13169 0.0
H701 H 0.94167 0.1251 0.22093 0.0
H702 H 0.92926 0.13289 0.17755 0.0
H703 H 0.92776 0.15739 0.21479 0.0
C704 C 0.92364 0.1643 0.08341 0.0
C705 C 0.90116 0.17884 0.0975 0.0
C706 C 0.947 0.16148 0.10418 0.0
C707 C 0.94831 0.17319 0.13934 0.0
C708 C 0.92646 0.18886 0.15279 0.0
H709 H 0.09403 0.16648 0.27574 0.0
H710 H 0.05525 0.18276 0.24256 0.0
C711 C 0.903 0.1915 0.13216 0.0
C712 C 0.97146 0.16707 0.16282 0.0
H713 H 0.98772 0.13299 0.23535 0.0
C714 C -0.00228 0.17562 0.15433 0.0
C715 C 0.96782 0.15149 0.19236 0.0
C716 C 0.94018 0.14095 0.20195 0.0
C717 C 0.02057 0.16864 0.1743 0.0
C718 C 0.01689 0.15312 0.20399 0.0
C719 C 0.99052 0.14496 0.21272 0.0
C720 C 0.04017 0.14367 0.22508 0.0
C721 C 0.04848 0.17714 0.16267 0.0
C722 C 0.04403 0.11633 0.22754 0.0
C723 C 0.06578 0.10699 0.24711 0.0
C724 C 0.08432 0.12476 0.26465 0.0
C725 C 0.08011 0.15221 0.26275 0.0
C726 C 0.05816 0.16156 0.24331 0.0
H727 H 0.04837 0.18362 0.13493 0.0
H728 H 0.05549 0.19412 0.18082 0.0
H729 H 0.06342 0.16073 0.16408 0.0
H730 H 0.03027 0.10213 0.21402 0.0
H731 H 0.06802 0.08576 0.24853 0.0
H732 H 0.21996 0.78896 0.12017 0.0
H733 H 0.23518 0.76618 0.17209 0.0
H734 H 0.15152 0.75277 0.20122 0.0
H735 H 0.13618 0.77469 0.14881 0.0
H736 H 0.22356 0.78283 0.24192 0.0
H737 H 0.18535 0.68031 0.21152 0.0
H738 H 0.188 0.704 0.17783 0.0
H739 H 0.15968 0.70537 0.20846 0.0
C740 C 0.20484 0.78046 0.13702 0.0
C741 C 0.17689 0.78335 0.13019 0.0
C742 C 0.21355 0.76765 0.16683 0.0
C743 C 0.19448 0.75747 0.19022 0.0
C744 C 0.16659 0.75992 0.18309 0.0
H745 H 0.20781 0.69542 0.40119 0.0
H746 H 0.19066 0.71248 0.34559 0.0
C747 C 0.15786 0.77265 0.15327 0.0
C748 C 0.20365 0.74633 0.22365 0.0
H749 H 0.20069 0.69122 0.27121 0.0
C750 C 0.21872 0.76274 0.24821 0.0
C751 C 0.19708 0.72019 0.23189 0.0
C752 C 0.18185 0.70134 0.20591 0.0
C753 C 0.2272 0.75382 0.28099 0.0
C754 C 0.22067 0.7277 0.2892 0.0
C755 C 0.20548 0.7113 0.26481 0.0
C756 C 0.23064 0.71675 0.32229 0.0
C757 C 0.24284 0.77249 0.3068 0.0
C758 C 0.25864 0.71307 0.32703 0.0
C759 C 0.2684 0.70331 0.35842 0.0
C760 C 0.25035 0.69706 0.38582 0.0
C761 C 0.22218 0.70014 0.38063 0.0
C762 C 0.21239 0.7099 0.349 0.0
H763 H 0.24043 0.79351 0.30048 0.0
H764 H 0.23605 0.77053 0.3348 0.0
H765 H 0.26483 0.76745 0.30508 0.0
H766 H 0.27296 0.71771 0.30634 0.0
H767 H 0.29016 0.70041 0.36106 0.0
H768 H 0.72235 0.65329 0.58471 0.0
H769 H 0.75042 0.68085 0.62631 0.0
H770 H 0.72328 0.751 0.57747 0.0
H771 H 0.69564 0.72331 0.53482 0.0
H772 H 0.77719 0.75354 0.59638 0.0
H773 H 0.71444 0.72372 0.70945 0.0
H774 H 0.72853 0.69539 0.68422 0.0
H775 H 0.70467 0.7165 0.66328 0.0
C776 C 0.72283 0.67454 0.58236 0.0
C777 C 0.70671 0.68628 0.55692 0.0
C778 C 0.73862 0.69025 0.60631 0.0
C779 C 0.73811 0.71794 0.60563 0.0
C780 C 0.72359 0.72963 0.5786 0.0
H781 H 0.7979 0.80574 0.79874 0.0
H782 H 0.76887 0.79112 0.74829 0.0
C783 C 0.70801 0.71383 0.55418 0.0
C784 C 0.75205 0.73447 0.63406 0.0
H785 H 0.75786 0.74327 0.72483 0.0
C786 C 0.77279 0.75164 0.6245 0.0
C787 C 0.74562 0.73251 0.67063 0.0
C788 C 0.72188 0.71626 0.6825 0.0
C789 C 0.78844 0.76579 0.65073 0.0
C790 C 0.78363 0.76195 0.6873 0.0
C791 C 0.76184 0.74591 0.69678 0.0
C792 C 0.80165 0.77317 0.71618 0.0
C793 C 0.80993 0.78462 0.63888 0.0
C794 C 0.82972 0.76797 0.71486 0.0
C795 C 0.84651 0.77692 0.74323 0.0
C796 C 0.83543 0.7906 0.774 0.0
C797 C 0.80723 0.79567 0.77527 0.0
C798 C 0.79055 0.78716 0.74655 0.0
H799 H 0.8043 0.79265 0.61303 0.0
H800 H 0.81316 0.80149 0.65917 0.0
H801 H 0.82945 0.77372 0.63466 0.0
H802 H 0.83864 0.75652 0.69218 0.0
H803 H 0.86816 0.77303 0.741 0.0
H804 H 0.78354 0.25437 0.05528 0.0
H805 H 0.74148 0.27951 0.05084 0.0
H806 H 0.71399 0.22413 0.96514 0.0
H807 H 0.75651 0.1987 0.96963 0.0
H808 H 0.70864 0.30279 0.99645 0.0
H809 H 0.6621 0.21329 0.0511 0.0
H810 H 0.69862 0.2169 0.04952 0.0
H811 H 0.67976 0.21031 0.00878 0.0
C812 C 0.76896 0.24809 0.03463 0.0
C813 C 0.77303 0.22457 0.01302 0.0
C814 C 0.74497 0.26249 0.03201 0.0
C815 C 0.72445 0.25342 0.00807 0.0
C816 C 0.72951 0.23129 0.98399 0.0
H817 H 0.57641 0.31704 0.11655 0.0
H818 H 0.5992 0.29404 0.06432 0.0
C819 C 0.75382 0.21692 0.98641 0.0
C820 C 0.69683 0.26472 0.01375 0.0
H821 H 0.64169 0.25433 0.06656 0.0
C822 C 0.69334 0.292 0.01045 0.0
C823 C 0.67672 0.25057 0.03173 0.0
C824 C 0.67928 0.22115 0.03566 0.0
C825 C 0.67217 0.30603 0.02851 0.0
C826 C 0.6544 0.29242 0.05059 0.0
C827 C 0.65558 0.26468 0.04985 0.0
C828 C 0.63969 0.30676 0.08062 0.0
C829 C 0.67049 0.33568 0.0265 0.0
C830 C 0.65504 0.32052 0.10751 0.0
C831 C 0.64232 0.33305 0.13735 0.0
C832 C 0.61383 0.33232 0.14098 0.0
C833 C 0.59839 0.31794 0.11446 0.0
C834 C 0.6113 0.30508 0.0845 0.0
H835 H 0.67798 0.34156 0.00019 0.0
H836 H 0.64929 0.34297 0.0307 0.0
H837 H 0.68361 0.34554 0.04765 0.0
H838 H 0.67707 0.32123 0.10568 0.0
H839 H 0.6549 0.34327 0.15774 0.0
H840 H 0.29014 0.26126 0.60224 0.0
H841 H 0.2605 0.2354 0.64003 0.0
H842 H 0.26675 0.29726 0.72549 0.0
H843 H 0.2959 0.32285 0.6882 0.0
H844 H 0.27825 0.21914 0.70926 0.0
H845 H 0.18448 0.27985 0.72158 0.0
H846 H 0.20818 0.28163 0.6848 0.0
H847 H 0.21479 0.29957 0.72726 0.0
C848 C 0.28447 0.26951 0.62872 0.0
C849 C 0.29505 0.29403 0.64235 0.0
C850 C 0.26775 0.25473 0.65029 0.0
C851 C 0.26115 0.26466 0.68532 0.0
C852 C 0.27113 0.2895 0.69832 0.0
H853 H 0.21336 0.23763 0.89328 0.0
H854 H 0.22782 0.2522 0.83527 0.0
C855 C 0.28795 0.30399 0.67711 0.0
C856 C 0.24637 0.24846 0.71034 0.0
H857 H 0.19456 0.25332 0.77129 0.0
C858 C 0.25951 0.22605 0.72221 0.0
C859 C 0.222 0.25765 0.72714 0.0
C860 C 0.20639 0.28086 0.7143 0.0
C861 C 0.25008 0.21389 0.75244 0.0
C862 C 0.22678 0.22433 0.77078 0.0
C863 C 0.21261 0.24558 0.75737 0.0
C864 C 0.21813 0.21502 0.80557 0.0
C865 C 0.26609 0.19118 0.766 0.0
C866 C 0.20789 0.18933 0.80794 0.0
C867 C 0.19957 0.18097 0.84102 0.0
C868 C 0.20129 0.19822 0.87228 0.0
C869 C 0.21162 0.22395 0.8697 0.0
C870 C 0.21991 0.23228 0.83663 0.0
H871 H 0.28584 0.18804 0.75177 0.0
H872 H 0.27013 0.19482 0.79515 0.0
H873 H 0.254 0.17264 0.76202 0.0
H874 H 0.20598 0.17589 0.78415 0.0
H875 H 0.19117 0.16121 0.84196 0.0
H876 H 0.72322 0.70849 0.45312 0.0
H877 H 0.75005 0.7371 0.4158 0.0
H878 H 0.68007 0.7461 0.34812 0.0
H879 H 0.65334 0.71856 0.38537 0.0
H880 H 0.75998 0.72402 0.34328 0.0
H881 H 0.7085 0.82146 0.36 0.0
H882 H 0.70415 0.7963 0.39146 0.0
H883 H 0.6847 0.79496 0.35057 0.0
C884 C 0.7135 0.71713 0.43075 0.0
C885 C 0.68634 0.7109 0.42176 0.0
C886 C 0.72881 0.73338 0.40946 0.0
C887 C 0.71697 0.74392 0.37937 0.0
C888 C 0.68952 0.73864 0.37153 0.0
H889 H 0.74623 0.80579 0.17972 0.0
H890 H 0.72986 0.78941 0.23577 0.0
C891 C 0.67434 0.72248 0.3926 0.0
C892 C 0.73361 0.7578 0.35347 0.0
H893 H 0.73332 0.81221 0.30457 0.0
C894 C 0.75466 0.74358 0.33532 0.0
C895 C 0.72648 0.78324 0.34306 0.0
C896 C 0.70489 0.79997 0.36257 0.0
C897 C 0.76748 0.75331 0.30538 0.0
C898 C 0.75937 0.77819 0.29384 0.0
C899 C 0.73937 0.79305 0.31327 0.0
C900 C 0.76978 0.78825 0.26017 0.0
C901 C 0.78834 0.73612 0.28508 0.0
C902 C 0.79765 0.79311 0.25531 0.0
C903 C 0.80708 0.80221 0.2231 0.0
C904 C 0.78872 0.80698 0.19547 0.0
C905 C 0.76081 0.80236 0.2006 0.0
C906 C 0.75145 0.79305 0.2326 0.0
H907 H 0.78782 0.71529 0.29275 0.0
H908 H 0.785 0.73606 0.25572 0.0
H909 H 0.809 0.74414 0.29109 0.0
H910 H 0.81208 0.79011 0.27651 0.0
H911 H 0.82863 0.80609 0.22011 0.0
H912 H 0.78983 0.16852 0.87502 0.0
H913 H 0.76511 0.19467 0.83326 0.0
H914 H 0.78384 0.2663 0.89856 0.0
H915 H 0.80777 0.23978 0.94151 0.0
H916 H 0.73296 0.26853 0.86604 0.0
H917 H 0.81172 0.23543 0.76678 0.0
H918 H 0.79434 0.20783 0.7839 0.0
H919 H 0.81453 0.22958 0.8136 0.0
C920 C 0.78806 0.18978 0.8809 0.0
C921 C 0.80084 0.20226 0.91112 0.0
C922 C 0.77413 0.20471 0.85694 0.0
C923 C 0.77347 0.23249 0.86215 0.0
C924 C 0.78441 0.2449 0.89383 0.0
H925 H 0.74787 0.31592 0.66942 0.0
H926 H 0.76663 0.30214 0.72533 0.0
C927 C 0.79799 0.2298 0.91833 0.0
C928 C 0.76349 0.24829 0.83292 0.0
H929 H 0.77192 0.25521 0.74362 0.0
C930 C 0.7416 0.26589 0.83932 0.0
C931 C 0.77532 0.24545 0.79831 0.0
C932 C 0.80047 0.22878 0.79031 0.0
C933 C 0.73041 0.27978 0.81155 0.0
C934 C 0.74093 0.27529 0.77629 0.0
C935 C 0.76355 0.25851 0.77042 0.0
C936 C 0.72854 0.28692 0.74467 0.0
C937 C 0.70768 0.29928 0.82048 0.0
C938 C 0.70075 0.28338 0.73691 0.0
C939 C 0.68973 0.29198 0.70532 0.0
C940 C 0.70641 0.30363 0.68011 0.0
C941 C 0.73421 0.30741 0.68821 0.0
C942 C 0.74507 0.29931 0.72016 0.0
H943 H 0.709 0.30755 0.84878 0.0
H944 H 0.70804 0.31596 0.80276 0.0
H945 H 0.68783 0.28889 0.81716 0.0
H946 H 0.68762 0.27326 0.75475 0.0
H947 H 0.66814 0.28919 0.70061 0.0
H948 H 0.29534 0.25179 0.49322 0.0
H949 H 0.26305 0.21536 0.48309 0.0
H950 H 0.20747 0.25477 0.55906 0.0
H951 H 0.24008 0.29171 0.56898 0.0
H952 H 0.2329 0.17968 0.52252 0.0
H953 H 0.1671 0.25516 0.46296 0.0
H954 H 0.20186 0.26249 0.47569 0.0
H955 H 0.17614 0.26028 0.50951 0.0
C956 C 0.27664 0.2522 0.5087 0.0
C957 C 0.27005 0.27438 0.53178 0.0
C958 C 0.25819 0.2314 0.50294 0.0
C959 C 0.23263 0.23256 0.5198 0.0
C960 C 0.22693 0.25367 0.54539 0.0
H961 H 0.11045 0.14006 0.39141 0.0
H962 H 0.12788 0.16504 0.44531 0.0
C963 C 0.24558 0.2746 0.55127 0.0
C964 C 0.21128 0.21377 0.50581 0.0
H965 H 0.1589 0.2107 0.44563 0.0
C966 C 0.21619 0.18642 0.50654 0.0
C967 C 0.18935 0.22254 0.48508 0.0
C968 C 0.18319 0.25168 0.48295 0.0
C969 C 0.20126 0.16781 0.48479 0.0
C970 C 0.18122 0.17683 0.46142 0.0
C971 C 0.17446 0.20388 0.46337 0.0
C972 C 0.17032 0.15951 0.431 0.0
C973 C 0.20803 0.13874 0.4857 0.0
C974 C 0.18836 0.14843 0.40489 0.0
C975 C 0.17853 0.13456 0.37395 0.0
C976 C 0.15035 0.13144 0.36829 0.0
C977 C 0.13226 0.14231 0.39471 0.0
C978 C 0.14216 0.15636 0.42569 0.0
H979 H 0.21578 0.13426 0.51249 0.0
H980 H 0.18998 0.12608 0.47903 0.0
H981 H 0.22429 0.13347 0.4658 0.0
H982 H 0.21014 0.15134 0.40781 0.0
H983 H 0.19307 0.12701 0.35391 0.0
H984 H 0.27853 0.81825 0.0143 0.0
H985 H 0.31656 0.78752 0.00786 0.0
H986 H 0.27015 0.7292 0.06068 0.0
H987 H 0.23117 0.75973 0.06526 0.0
H988 H 0.35033 0.75444 0.03853 0.0
H989 H 0.27084 0.69616 0.96031 0.0
H990 H 0.26381 0.7288 0.98072 0.0
H991 H 0.26606 0.7009 0.00787 0.0
C992 C 0.27682 0.79929 0.02591 0.0
C993 C 0.25183 0.79113 0.03963 0.0
C994 C 0.29863 0.78166 0.02226 0.0
C995 C 0.29582 0.7556 0.03239 0.0
C996 C 0.27241 0.74892 0.05154 0.0
H997 H 0.38265 0.64211 0.88484 0.0
H998 H 0.36288 0.65671 0.94311 0.0
C999 C 0.2503 0.76655 0.05478 0.0
C1000 C 0.31456 0.73505 0.0158 0.0
H1001 H 0.31585 0.68739 0.94614 0.0
C1002 C 0.34281 0.73922 0.01905 0.0
C1003 C 0.30482 0.71509 0.99026 0.0
C1004 C 0.27478 0.70994 0.98428 0.0
C1005 C 0.36127 0.7258 0.99536 0.0
C1006 C 0.3512 0.7077 0.96797 0.0
C1007 C 0.32341 0.70141 0.96716 0.0
C1008 C 0.36781 0.69858 0.93634 0.0
C1009 C 0.3912 0.73221 0.99853 0.0
C1010 C 0.37725 0.71729 0.91332 0.0
C1011 C 0.388 0.70908 0.87976 0.0
C1012 C 0.38954 0.68193 0.86848 0.0
C1013 C 0.38129 0.66318 0.89238 0.0
C1014 C 0.37031 0.67145 0.92588 0.0
H1015 H 0.39672 0.73877 0.02658 0.0
H1016 H 0.40393 0.71481 0.98942 0.0
H1017 H 0.396 0.74869 0.98151 0.0
H1018 H 0.3748 0.73834 0.9204 0.0
H1019 H 0.39373 0.7241 0.86196 0.0
loop_
_geom_bond_atom_site_label_1
_geom_bond_atom_site_label_2
_geom_bond_distance
_geom_bond_site_symmetry_2
_ccdc_geom_bond_type
Zn0 O6 1.920 . S
Zn0 O12 1.898 . S
Zn0 O15 1.905 . S
Zn1 O9 1.905 . S
Zn1 O10 1.898 . S
Zn1 O18 1.920 . S
Zn2 O5 2.080 . S
Zn2 O8 2.114 . S
Zn2 O11 2.120 . S
Zn2 O13 2.120 . S
Zn2 O14 2.114 . S
Zn2 O17 2.080 . S
C3 O8 1.166 . S
C3 O9 1.182 1_554 S
C4 O10 1.167 . S
C4 O11 1.299 1_556 S
O5 Zn2 2.080 . S
O5 C19 1.305 . S
O6 Zn0 1.920 . S
O6 C19 1.234 . S
C7 O12 1.167 . S
C7 O13 1.299 . S
O8 Zn2 2.114 . S
O8 C3 1.166 . S
O9 Zn1 1.905 . S
O9 C3 1.182 1_556 S
O10 Zn1 1.898 . S
O10 C4 1.167 . S
O11 Zn2 2.120 . S
O11 C4 1.299 1_554 S
O12 Zn0 1.898 . S
O12 C7 1.167 . S
O13 Zn2 2.120 . S
O13 C7 1.299 . S
O14 Zn2 2.114 . S
O14 C16 1.166 . S
O15 Zn0 1.905 . S
O15 C16 1.182 . S
C16 O14 1.166 . S
C16 O15 1.182 . S
O17 Zn2 2.080 . S
O17 C20 1.305 . S
O18 Zn1 1.920 . S
O18 C20 1.234 1_556 S
C19 O5 1.305 . S
C19 O6 1.234 . S
C20 O17 1.305 . S
C20 O18 1.234 1_554 S
Zn21 O27 1.920 . S
Zn21 O33 1.898 . S
Zn21 O36 1.905 . S
Zn22 O30 1.905 . S
Zn22 O31 1.898 . S
Zn22 O39 1.920 . S
Zn23 O26 2.080 . S
Zn23 O29 2.114 . S
Zn23 O32 2.120 . S
Zn23 O34 2.120 . S
Zn23 O35 2.114 . S
Zn23 O38 2.080 . S
C24 O29 1.166 . S
C24 O30 1.182 . S
C25 O31 1.167 . S
C25 O32 1.299 . S
O26 Zn23 2.080 . S
O26 C40 1.305 . S
O27 Zn21 1.920 . S
O27 C40 1.234 . S
C28 O33 1.167 . S
C28 O34 1.299 . S
O29 Zn23 2.114 . S
O29 C24 1.166 . S
O30 Zn22 1.905 . S
O30 C24 1.182 . S
O31 Zn22 1.898 . S
O31 C25 1.167 . S
O32 Zn23 2.120 . S
O32 C25 1.299 . S
O33 Zn21 1.898 . S
O33 C28 1.167 . S
O34 Zn23 2.120 . S
O34 C28 1.299 . S
O35 Zn23 2.114 . S
O35 C37 1.166 . S
O36 Zn21 1.905 . S
O36 C37 1.182 . S
C37 O35 1.166 . S
C37 O36 1.182 . S
O38 Zn23 2.080 . S
O38 C41 1.305 . S
O39 Zn22 1.920 . S
O39 C41 1.234 . S
C40 O26 1.305 . S
C40 O27 1.234 . S
C41 O38 1.305 . S
C41 O39 1.234 . S
Zn42 O48 1.920 . S
Zn42 O54 1.898 . S
Zn42 O57 1.905 . S
Zn43 O51 1.905 . S
Zn43 O52 1.898 . S
Zn43 O60 1.920 . S
Zn44 O47 2.079 1_554 S
Zn44 O50 2.115 . S
Zn44 O53 2.120 . S
Zn44 O55 2.119 1_554 S
Zn44 O56 2.113 1_554 S
Zn44 O59 2.081 . S
C45 O50 1.166 . S
C45 O51 1.182 . S
C46 O52 1.167 . S
C46 O53 1.299 . S
O47 Zn44 2.079 1_556 S
O47 C61 1.305 . S
O48 Zn42 1.920 . S
O48 C61 1.234 . S
C49 O54 1.167 . S
C49 O55 1.299 . S
O50 Zn44 2.115 . S
O50 C45 1.166 . S
O51 Zn43 1.905 . S
O51 C45 1.182 . S
O52 Zn43 1.898 . S
O52 C46 1.167 . S
O53 Zn44 2.120 . S
O53 C46 1.299 . S
O54 Zn42 1.898 . S
O54 C49 1.167 . S
O55 Zn44 2.119 1_556 S
O55 C49 1.299 . S
O56 Zn44 2.113 1_556 S
O56 C58 1.166 . S
O57 Zn42 1.905 . S
O57 C58 1.182 . S
C58 O56 1.166 . S
C58 O57 1.182 . S
O59 Zn44 2.081 . S
O59 C62 1.305 . S
O60 Zn43 1.920 . S
O60 C62 1.234 . S
C61 O47 1.305 . S
C61 O48 1.234 . S
C62 O59 1.305 . S
C62 O60 1.234 . S
Zn63 O69 1.920 . S
Zn63 O75 1.898 . S
Zn63 O78 1.905 . S
Zn64 O72 1.905 . S
Zn64 O73 1.898 . S
Zn64 O81 1.920 . S
Zn65 O68 2.080 . S
Zn65 O71 2.114 . S
Zn65 O74 2.120 . S
Zn65 O76 2.120 . S
Zn65 O77 2.114 . S
Zn65 O80 2.080 . S
C66 O71 1.166 . S
C66 O72 1.182 . S
C67 O73 1.167 . S
C67 O74 1.299 . S
O68 Zn65 2.080 . S
O68 C82 1.305 . S
O69 Zn63 1.920 . S
O69 C82 1.234 . S
C70 O75 1.167 . S
C70 O76 1.299 . S
O71 Zn65 2.114 . S
O71 C66 1.166 . S
O72 Zn64 1.905 . S
O72 C66 1.182 . S
O73 Zn64 1.898 . S
O73 C67 1.167 . S
O74 Zn65 2.120 . S
O74 C67 1.299 . S
O75 Zn63 1.898 . S
O75 C70 1.167 . S
O76 Zn65 2.120 . S
O76 C70 1.299 . S
O77 Zn65 2.114 . S
O77 C79 1.166 . S
O78 Zn63 1.905 . S
O78 C79 1.182 . S
C79 O77 1.166 . S
C79 O78 1.182 . S
O80 Zn65 2.080 . S
O80 C83 1.305 . S
O81 Zn64 1.920 . S
O81 C83 1.234 . S
C82 O68 1.305 . S
C82 O69 1.234 . S
C83 O80 1.305 . S
C83 O81 1.234 . S
H84 C87 0.931 . S
H85 C90 0.928 . S
H86 C92 0.930 . S
C87 H84 0.931 . S
C87 C88 1.413 . S
C87 C89 1.360 . S
C88 C87 1.413 . S
C88 C92 1.429 . S
C89 C87 1.360 . S
C89 C90 1.372 . S
C90 H85 0.928 . S
C90 C89 1.372 . S
C90 C91 1.404 . S
C91 C90 1.404 . S
C91 C92 1.391 . S
C92 H86 0.930 . S
C92 C88 1.429 . S
C92 C91 1.391 . S
H93 C96 0.931 . S
H94 C99 0.928 . S
H95 C101 0.930 . S
C96 H93 0.931 . S
C96 C97 1.413 . S
C96 C98 1.360 . S
C97 C96 1.413 . S
C97 C101 1.429 . S
C98 C96 1.360 . S
C98 C99 1.372 . S
C99 H94 0.928 . S
C99 C98 1.372 . S
C99 C100 1.404 . S
C100 C99 1.404 . S
C100 C101 1.391 . S
C101 H95 0.930 . S
C101 C97 1.429 . S
C101 C100 1.391 . S
H102 C105 0.931 . S
H103 C108 0.928 . S
H104 C110 0.930 . S
C105 H102 0.931 . S
C105 C106 1.413 . S
C105 C107 1.360 . S
C106 C105 1.413 . S
C106 C110 1.429 . S
C107 C105 1.360 . S
C107 C108 1.372 . S
C108 H103 0.928 . S
C108 C107 1.372 . S
C108 C109 1.404 . S
C109 C108 1.404 . S
C109 C110 1.391 . S
C110 H104 0.930 . S
C110 C106 1.429 . S
C110 C109 1.391 . S
H111 C114 0.931 . S
H112 C117 0.928 . S
H113 C119 0.930 . S
C114 H111 0.931 . S
C114 C115 1.413 . S
C114 C116 1.360 . S
C115 C114 1.413 . S
C115 C119 1.429 . S
C116 C114 1.360 . S
C116 C117 1.372 . S
C117 H112 0.928 . S
C117 C116 1.372 . S
C117 C118 1.404 . S
C118 C117 1.404 . S
C118 C119 1.391 . S
C119 H113 0.930 . S
C119 C115 1.429 . S
C119 C118 1.391 . S
H120 C123 0.931 . S
H121 C126 0.928 . S
H122 C128 0.930 . S
C123 H120 0.931 . S
C123 C124 1.413 . S
C123 C125 1.360 . S
C124 C123 1.413 . S
C124 C128 1.429 . S
C125 C123 1.360 . S
C125 C126 1.372 . S
C126 H121 0.928 . S
C126 C125 1.372 . S
C126 C127 1.404 . S
C127 C126 1.404 . S
C127 C128 1.391 . S
C128 H122 0.930 . S
C128 C124 1.429 . S
C128 C127 1.391 . S
H129 C132 0.931 . S
H130 C135 0.928 . S
H131 C137 0.930 . S
C132 H129 0.931 . S
C132 C133 1.413 . S
C132 C134 1.360 . S
C133 C132 1.413 . S
C133 C137 1.429 . S
C134 C132 1.360 . S
C134 C135 1.372 . S
C135 H130 0.928 . S
C135 C134 1.372 . S
C135 C136 1.404 . S
C136 C135 1.404 . S
C136 C137 1.391 . S
C137 H131 0.930 . S
C137 C133 1.429 . S
C137 C136 1.391 . S
H138 C141 0.931 . S
H139 C144 0.928 . S
H140 C146 0.930 . S
C141 H138 0.931 . S
C141 C142 1.413 . S
C141 C143 1.360 . S
C142 C141 1.413 . S
C142 C146 1.429 . S
C143 C141 1.360 . S
C143 C144 1.372 . S
C144 H139 0.928 . S
C144 C143 1.372 . S
C144 C145 1.404 . S
C145 C144 1.404 . S
C145 C146 1.391 . S
C146 H140 0.930 . S
C146 C142 1.429 . S
C146 C145 1.391 . S
H147 C150 0.931 . S
H148 C153 0.928 . S
H149 C155 0.930 . S
C150 H147 0.931 . S
C150 C151 1.413 . S
C150 C152 1.360 . S
C151 C150 1.413 . S
C151 C155 1.429 . S
C152 C150 1.360 . S
C152 C153 1.372 . S
C153 H148 0.928 . S
C153 C152 1.372 . S
C153 C154 1.404 . S
C154 C153 1.404 . S
C154 C155 1.391 . S
C155 H149 0.930 . S
C155 C151 1.429 . S
C155 C154 1.391 . S
H156 C164 0.929 . S
H157 C166 0.930 . S
H158 C168 0.930 . S
H159 C171 0.929 . S
H160 C174 0.930 . S
H161 C176 0.960 . S
H162 C176 0.960 . S
H163 C176 0.960 . S
C164 H156 0.929 . S
C164 C165 1.377 . S
C164 C166 1.384 . S
C165 C164 1.377 . S
C165 C171 1.390 . S
C166 H157 0.930 . S
C166 C164 1.384 . S
C166 C167 1.372 . S
C167 C166 1.372 . S
C167 C168 1.400 . S
C167 C172 1.490 . S
C168 H158 0.930 . S
C168 C167 1.400 . S
C168 C171 1.386 . S
H169 C185 0.930 . S
H170 C186 0.931 . S
C171 H159 0.929 . S
C171 C165 1.390 . S
C171 C168 1.386 . S
C172 C167 1.490 . S
C172 C174 1.395 . S
C172 C175 1.403 . S
H173 C179 0.924 1_545 S
C174 H160 0.930 . S
C174 C172 1.395 . S
C174 C177 1.403 . S
C175 C172 1.403 . S
C175 C176 1.524 . S
C175 C179 1.408 . S
C176 H161 0.960 . S
C176 H162 0.960 . S
C176 H163 0.960 . S
C176 C175 1.524 . S
C177 C174 1.403 . S
C177 C178 1.392 1_565 S
C177 C181 1.495 . S
C178 C177 1.392 1_545 S
C178 C179 1.383 1_545 S
C178 C180 1.478 . S
C179 H173 0.924 1_565 S
C179 C175 1.408 . S
C179 C178 1.383 1_565 S
C180 C178 1.478 . S
C180 C182 1.381 . S
C180 C186 1.383 . S
C181 C177 1.495 . S
C181 H187 0.959 . S
C181 H188 0.961 1_565 S
C181 H189 0.960 . S
C182 C180 1.381 . S
C182 C183 1.394 . S
C182 H190 0.930 . S
C183 C182 1.394 . S
C183 C184 1.383 . S
C183 H191 0.929 . S
C184 C183 1.383 . S
C184 C185 1.377 . S
C185 H169 0.930 . S
C185 C184 1.377 . S
C185 C186 1.379 . S
C186 H170 0.931 . S
C186 C180 1.383 . S
C186 C185 1.379 . S
H187 C181 0.959 . S
H188 C181 0.961 1_545 S
H189 C181 0.960 . S
H190 C182 0.930 . S
H191 C183 0.929 . S
H192 C200 0.929 . S
H193 C202 0.930 . S
H194 C204 0.930 . S
H195 C207 0.929 . S
H196 C210 0.930 . S
H197 C212 0.960 . S
H198 C212 0.960 . S
H199 C212 0.960 . S
C200 H192 0.929 . S
C200 C201 1.377 . S
C200 C202 1.384 . S
C201 C200 1.377 . S
C201 C207 1.390 . S
C202 H193 0.930 . S
C202 C200 1.384 . S
C202 C203 1.372 . S
C203 C202 1.372 . S
C203 C204 1.400 . S
C203 C208 1.490 . S
C204 H194 0.930 . S
C204 C203 1.400 . S
C204 C207 1.386 . S
H205 C221 0.930 . S
H206 C222 0.931 . S
C207 H195 0.929 . S
C207 C201 1.390 . S
C207 C204 1.386 . S
C208 C203 1.490 . S
C208 C210 1.395 . S
C208 C211 1.403 . S
H209 C215 0.930 . S
C210 H196 0.930 . S
C210 C208 1.395 . S
C210 C213 1.403 . S
C211 C208 1.403 . S
C211 C212 1.524 . S
C211 C215 1.400 . S
C212 H197 0.960 . S
C212 H198 0.960 . S
C212 H199 0.960 . S
C212 C211 1.524 . S
C213 C210 1.403 . S
C213 C214 1.392 . S
C213 C217 1.495 . S
C214 C213 1.392 . S
C214 C215 1.385 . S
C214 C216 1.478 . S
C215 H209 0.930 . S
C215 C211 1.400 . S
C215 C214 1.385 . S
C216 C214 1.478 . S
C216 C218 1.381 . S
C216 C222 1.383 . S
C217 C213 1.495 . S
C217 H223 0.959 . S
C217 H224 0.961 . S
C217 H225 0.960 . S
C218 C216 1.381 . S
C218 C219 1.394 . S
C218 H226 0.930 . S
C219 C218 1.394 . S
C219 C220 1.383 . S
C219 H227 0.929 . S
C220 C219 1.383 . S
C220 C221 1.377 . S
C221 H205 0.930 . S
C221 C220 1.377 . S
C221 C222 1.379 . S
C222 H206 0.931 . S
C222 C216 1.383 . S
C222 C221 1.379 . S
H223 C217 0.959 . S
H224 C217 0.961 . S
H225 C217 0.960 . S
H226 C218 0.930 . S
H227 C219 0.929 . S
H228 C236 0.929 . S
H229 C238 0.930 . S
H230 C240 0.930 . S
H231 C243 0.929 . S
H232 C246 0.930 . S
H233 C248 0.960 . S
H234 C248 0.960 . S
H235 C248 0.960 . S
C236 H228 0.929 . S
C236 C237 1.377 . S
C236 C238 1.384 . S
C237 C236 1.377 . S
C237 C243 1.390 . S
C238 H229 0.930 . S
C238 C236 1.384 . S
C238 C239 1.372 . S
C239 C238 1.372 . S
C239 C240 1.400 . S
C239 C244 1.490 . S
C240 H230 0.930 . S
C240 C239 1.400 . S
C240 C243 1.386 . S
H241 C257 0.930 . S
H242 C258 0.931 . S
C243 H231 0.929 . S
C243 C237 1.390 . S
C243 C240 1.386 . S
C244 C239 1.490 . S
C244 C246 1.395 . S
C244 C247 1.403 . S
H245 C251 0.930 . S
C246 H232 0.930 . S
C246 C244 1.395 . S
C246 C249 1.403 1_545 S
C247 C244 1.403 . S
C247 C248 1.524 . S
C247 C251 1.400 1_545 S
C248 H233 0.960 . S
C248 H234 0.960 . S
C248 H235 0.960 . S
C248 C247 1.524 . S
C249 C246 1.403 1_565 S
C249 C250 1.392 . S
C249 C253 1.495 . S
C250 C249 1.392 . S
C250 C251 1.385 . S
C250 C252 1.478 . S
C251 H245 0.930 . S
C251 C247 1.400 1_565 S
C251 C250 1.385 . S
C252 C250 1.478 . S
C252 C254 1.381 . S
C252 C258 1.383 . S
C253 C249 1.495 . S
C253 H259 0.959 . S
C253 H260 0.961 . S
C253 H261 0.960 . S
C254 C252 1.381 . S
C254 C255 1.394 . S
C254 H262 0.930 . S
C255 C254 1.394 . S
C255 C256 1.383 . S
C255 H263 0.929 . S
C256 C255 1.383 . S
C256 C257 1.377 . S
C257 H241 0.930 . S
C257 C256 1.377 . S
C257 C258 1.379 . S
C258 H242 0.931 . S
C258 C252 1.383 . S
C258 C257 1.379 . S
H259 C253 0.959 . S
H260 C253 0.961 . S
H261 C253 0.960 . S
H262 C254 0.930 . S
H263 C255 0.929 . S
H264 C272 0.929 . S
H265 C274 0.930 . S
H266 C276 0.930 . S
H267 C279 0.929 . S
H268 C282 0.930 . S
H269 C284 0.960 . S
H270 C284 0.960 . S
H271 C284 0.960 . S
C272 H264 0.929 . S
C272 C273 1.377 . S
C272 C274 1.384 . S
C273 C272 1.377 . S
C273 C279 1.390 . S
C274 H265 0.930 . S
C274 C272 1.384 . S
C274 C275 1.372 . S
C275 C274 1.372 . S
C275 C276 1.400 . S
C275 C280 1.490 . S
C276 H266 0.930 . S
C276 C275 1.400 . S
C276 C279 1.386 . S
H277 C293 0.930 . S
H278 C294 0.931 . S
C279 H267 0.929 . S
C279 C273 1.390 . S
C279 C276 1.386 . S
C280 C275 1.490 . S
C280 C282 1.395 . S
C280 C283 1.403 . S
H281 C287 0.930 . S
C282 H268 0.930 . S
C282 C280 1.395 . S
C282 C285 1.403 . S
C283 C280 1.403 . S
C283 C284 1.524 . S
C283 C287 1.400 . S
C284 H269 0.960 . S
C284 H270 0.960 . S
C284 H271 0.960 . S
C284 C283 1.524 . S
C285 C282 1.403 . S
C285 C286 1.392 . S
C285 C289 1.495 . S
C286 C285 1.392 . S
C286 C287 1.385 . S
C286 C288 1.478 . S
C287 H281 0.930 . S
C287 C283 1.400 . S
C287 C286 1.385 . S
C288 C286 1.478 . S
C288 C290 1.381 . S
C288 C294 1.383 . S
C289 C285 1.495 . S
C289 H295 0.959 . S
C289 H296 0.961 . S
C289 H297 0.960 . S
C290 C288 1.381 . S
C290 C291 1.394 . S
C290 H298 0.930 . S
C291 C290 1.394 . S
C291 C292 1.383 . S
C291 H299 0.929 . S
C292 C291 1.383 . S
C292 C293 1.377 . S
C293 H277 0.930 . S
C293 C292 1.377 . S
C293 C294 1.379 . S
C294 H278 0.931 . S
C294 C288 1.383 . S
C294 C293 1.379 . S
H295 C289 0.959 . S
H296 C289 0.961 . S
H297 C289 0.960 . S
H298 C290 0.930 . S
H299 C291 0.929 . S
H300 C308 0.929 . S
H301 C310 0.930 . S
H302 C312 0.930 . S
H303 C315 0.929 . S
H304 C318 0.930 . S
H305 C320 0.960 . S
H306 C320 0.960 . S
H307 C320 0.960 . S
C308 H300 0.929 . S
C308 C309 1.377 . S
C308 C310 1.384 . S
C309 C308 1.377 . S
C309 C315 1.390 . S
C310 H301 0.930 . S
C310 C308 1.384 . S
C310 C311 1.372 . S
C311 C310 1.372 . S
C311 C312 1.400 . S
C311 C316 1.490 . S
C312 H302 0.930 . S
C312 C311 1.400 . S
C312 C315 1.386 . S
H313 C329 0.930 . S
H314 C330 0.931 . S
C315 H303 0.929 . S
C315 C309 1.390 . S
C315 C312 1.386 . S
C316 C311 1.490 . S
C316 C318 1.395 . S
C316 C319 1.403 . S
H317 C323 0.930 . S
C318 H304 0.930 . S
C318 C316 1.395 . S
C318 C321 1.403 . S
C319 C316 1.403 . S
C319 C320 1.524 . S
C319 C323 1.400 . S
C320 H305 0.960 . S
C320 H306 0.960 . S
C320 H307 0.960 . S
C320 C319 1.524 . S
C321 C318 1.403 . S
C321 C322 1.392 . S
C321 C325 1.495 . S
C322 C321 1.392 . S
C322 C323 1.385 . S
C322 C324 1.478 . S
C323 H317 0.930 . S
C323 C319 1.400 . S
C323 C322 1.385 . S
C324 C322 1.478 . S
C324 C326 1.381 . S
C324 C330 1.383 . S
C325 C321 1.495 . S
C325 H331 0.959 . S
C325 H332 0.961 . S
C325 H333 0.960 . S
C326 C324 1.381 . S
C326 C327 1.394 . S
C326 H334 0.930 . S
C327 C326 1.394 . S
C327 C328 1.383 . S
C327 H335 0.929 . S
C328 C327 1.383 . S
C328 C329 1.377 . S
C329 H313 0.930 . S
C329 C328 1.377 . S
C329 C330 1.379 . S
C330 H314 0.931 . S
C330 C324 1.383 . S
C330 C329 1.379 . S
H331 C325 0.959 . S
H332 C325 0.961 . S
H333 C325 0.960 . S
H334 C326 0.930 . S
H335 C327 0.929 . S
H336 C344 0.929 . S
H337 C346 0.930 . S
H338 C348 0.930 1_554 S
H339 C351 0.929 1_554 S
H340 C354 0.930 1_655 S
H341 C356 0.960 . S
H342 C356 0.960 1_655 S
H343 C356 0.960 1_655 S
C344 H336 0.929 . S
C344 C345 1.377 . S
C344 C346 1.384 . S
C345 C344 1.377 . S
C345 C351 1.390 . S
C346 H337 0.930 . S
C346 C344 1.384 . S
C346 C347 1.372 . S
C347 C346 1.372 . S
C347 C348 1.400 . S
C347 C352 1.490 . S
C348 H338 0.930 1_556 S
C348 C347 1.400 . S
C348 C351 1.386 . S
H349 C365 0.930 . S
H350 C366 0.931 . S
C351 H339 0.929 1_556 S
C351 C345 1.390 . S
C351 C348 1.386 . S
C352 C347 1.490 . S
C352 C354 1.395 1_655 S
C352 C355 1.403 1_655 S
H353 C359 0.930 . S
C354 H340 0.930 1_455 S
C354 C352 1.395 1_455 S
C354 C357 1.403 . S
C355 C352 1.403 1_455 S
C355 C356 1.524 . S
C355 C359 1.400 . S
C356 H341 0.960 . S
C356 H342 0.960 1_455 S
C356 H343 0.960 1_455 S
C356 C355 1.524 . S
C357 C354 1.403 . S
C357 C358 1.392 . S
C357 C361 1.495 . S
C358 C357 1.392 . S
C358 C359 1.385 . S
C358 C360 1.478 . S
C359 H353 0.930 . S
C359 C355 1.400 . S
C359 C358 1.385 . S
C360 C358 1.478 . S
C360 C362 1.381 . S
C360 C366 1.383 . S
C361 C357 1.495 . S
C361 H367 0.959 . S
C361 H368 0.961 . S
C361 H369 0.960 . S
C362 C360 1.381 . S
C362 C363 1.394 . S
C362 H370 0.930 . S
C363 C362 1.394 . S
C363 C364 1.383 . S
C363 H371 0.929 . S
C364 C363 1.383 . S
C364 C365 1.377 . S
C365 H349 0.930 . S
C365 C364 1.377 . S
C365 C366 1.379 . S
C366 H350 0.931 . S
C366 C360 1.383 . S
C366 C365 1.379 . S
H367 C361 0.959 . S
H368 C361 0.961 . S
H369 C361 0.960 . S
H370 C362 0.930 . S
H371 C363 0.929 . S
H372 C380 0.929 . S
H373 C382 0.930 . S
H374 C384 0.930 . S
H375 C387 0.929 . S
H376 C390 0.930 . S
H377 C392 0.960 . S
H378 C392 0.960 . S
H379 C392 0.960 . S
C380 H372 0.929 . S
C380 C381 1.377 . S
C380 C382 1.384 . S
C381 C380 1.377 . S
C381 C387 1.390 . S
C382 H373 0.930 . S
C382 C380 1.384 . S
C382 C383 1.372 . S
C383 C382 1.372 . S
C383 C384 1.400 . S
C383 C388 1.490 . S
C384 H374 0.930 . S
C384 C383 1.400 . S
C384 C387 1.386 . S
H385 C401 0.930 . S
H386 C402 0.931 . S
C387 H375 0.929 . S
C387 C381 1.390 . S
C387 C384 1.386 . S
C388 C383 1.490 . S
C388 C390 1.395 . S
C388 C391 1.403 . S
H389 C395 0.930 . S
C390 H376 0.930 . S
C390 C388 1.395 . S
C390 C393 1.403 . S
C391 C388 1.403 . S
C391 C392 1.524 . S
C391 C395 1.400 . S
C392 H377 0.960 . S
C392 H378 0.960 . S
C392 H379 0.960 . S
C392 C391 1.524 . S
C393 C390 1.403 . S
C393 C394 1.392 . S
C393 C397 1.495 . S
C394 C393 1.392 . S
C394 C395 1.385 . S
C394 C396 1.478 . S
C395 H389 0.930 . S
C395 C391 1.400 . S
C395 C394 1.385 . S
C396 C394 1.478 . S
C396 C398 1.381 . S
C396 C402 1.383 . S
C397 C393 1.495 . S
C397 H403 0.959 . S
C397 H404 0.961 . S
C397 H405 0.960 . S
C398 C396 1.381 . S
C398 C399 1.394 . S
C398 H406 0.930 . S
C399 C398 1.394 . S
C399 C400 1.383 . S
C399 H407 0.929 . S
C400 C399 1.383 . S
C400 C401 1.377 . S
C401 H385 0.930 . S
C401 C400 1.377 . S
C401 C402 1.379 . S
C402 H386 0.931 . S
C402 C396 1.383 . S
C402 C401 1.379 . S
H403 C397 0.959 . S
H404 C397 0.961 . S
H405 C397 0.960 . S
H406 C398 0.930 . S
H407 C399 0.929 . S
H408 C416 0.929 . S
H409 C418 0.930 . S
H410 C420 0.930 . S
H411 C423 0.929 . S
H412 C426 0.930 . S
H413 C428 0.960 . S
H414 C428 0.960 . S
H415 C428 0.960 . S
C416 H408 0.929 . S
C416 C417 1.377 . S
C416 C418 1.384 . S
C417 C416 1.377 . S
C417 C423 1.390 . S
C418 H409 0.930 . S
C418 C416 1.384 . S
C418 C419 1.372 . S
C419 C418 1.372 . S
C419 C420 1.400 . S
C419 C424 1.490 . S
C420 H410 0.930 . S
C420 C419 1.400 . S
C420 C423 1.386 . S
H421 C437 0.930 . S
H422 C438 0.931 . S
C423 H411 0.929 . S
C423 C417 1.390 . S
C423 C420 1.386 . S
C424 C419 1.490 . S
C424 C426 1.395 . S
C424 C427 1.403 . S
H425 C431 0.930 . S
C426 H412 0.930 . S
C426 C424 1.395 . S
C426 C429 1.403 . S
C427 C424 1.403 . S
C427 C428 1.524 . S
C427 C431 1.400 . S
C428 H413 0.960 . S
C428 H414 0.960 . S
C428 H415 0.960 . S
C428 C427 1.524 . S
C429 C426 1.403 . S
C429 C430 1.392 . S
C429 C433 1.495 . S
C430 C429 1.392 . S
C430 C431 1.385 . S
C430 C432 1.478 . S
C431 H425 0.930 . S
C431 C427 1.400 . S
C431 C430 1.385 . S
C432 C430 1.478 . S
C432 C434 1.381 . S
C432 C438 1.383 1_455 S
C433 C429 1.495 . S
C433 H439 0.959 . S
C433 H440 0.961 1_455 S
C433 H441 0.960 . S
C434 C432 1.381 . S
C434 C435 1.394 1_455 S
C434 H442 0.930 . S
C435 C434 1.394 1_655 S
C435 C436 1.383 . S
C435 H443 0.929 . S
C436 C435 1.383 . S
C436 C437 1.377 . S
C437 H421 0.930 . S
C437 C436 1.377 . S
C437 C438 1.379 . S
C438 H422 0.931 . S
C438 C432 1.383 1_655 S
C438 C437 1.379 . S
H439 C433 0.959 . S
H440 C433 0.961 1_655 S
H441 C433 0.960 . S
H442 C434 0.930 . S
H443 C435 0.929 . S
H444 C452 0.929 . S
H445 C454 0.930 . S
H446 C456 0.930 . S
H447 C459 0.929 . S
H448 C462 0.930 . S
H449 C464 0.960 . S
H450 C464 0.960 . S
H451 C464 0.960 . S
C452 H444 0.929 . S
C452 C453 1.377 . S
C452 C454 1.384 . S
C453 C452 1.377 . S
C453 C459 1.390 . S
C454 H445 0.930 . S
C454 C452 1.384 . S
C454 C455 1.372 . S
C455 C454 1.372 . S
C455 C456 1.400 . S
C455 C460 1.490 . S
C456 H446 0.930 . S
C456 C455 1.400 . S
C456 C459 1.386 . S
H457 C473 0.930 . S
H458 C474 0.931 . S
C459 H447 0.929 . S
C459 C453 1.390 . S
C459 C456 1.386 . S
C460 C455 1.490 . S
C460 C462 1.395 . S
C460 C463 1.403 1_545 S
H461 C467 0.930 . S
C462 H448 0.930 . S
C462 C460 1.395 . S
C462 C465 1.403 1_545 S
C463 C460 1.403 1_565 S
C463 C464 1.524 . S
C463 C467 1.400 . S
C464 H449 0.960 . S
C464 H450 0.960 . S
C464 H451 0.960 . S
C464 C463 1.524 . S
C465 C462 1.403 1_565 S
C465 C466 1.392 . S
C465 C469 1.495 . S
C466 C465 1.392 . S
C466 C467 1.385 . S
C466 C468 1.478 . S
C467 H461 0.930 . S
C467 C463 1.400 . S
C467 C466 1.385 . S
C468 C466 1.478 . S
C468 C470 1.381 . S
C468 C474 1.383 . S
C469 C465 1.495 . S
C469 H475 0.959 . S
C469 H476 0.961 . S
C469 H477 0.960 . S
C470 C468 1.381 . S
C470 C471 1.394 . S
C470 H478 0.930 . S
C471 C470 1.394 . S
C471 C472 1.383 . S
C471 H479 0.929 . S
C472 C471 1.383 . S
C472 C473 1.377 . S
C473 H457 0.930 . S
C473 C472 1.377 . S
C473 C474 1.379 . S
C474 H458 0.931 . S
C474 C468 1.383 . S
C474 C473 1.379 . S
H475 C469 0.959 . S
H476 C469 0.961 . S
H477 C469 0.960 . S
H478 C470 0.930 . S
H479 C471 0.929 . S
H480 C488 0.929 . S
H481 C490 0.930 . S
H482 C492 0.930 . S
H483 C495 0.929 . S
H484 C498 0.930 . S
H485 C500 0.960 . S
H486 C500 0.960 . S
H487 C500 0.960 . S
C488 H480 0.929 . S
C488 C489 1.377 . S
C488 C490 1.384 . S
C489 C488 1.377 . S
C489 C495 1.390 . S
C490 H481 0.930 . S
C490 C488 1.384 . S
C490 C491 1.372 . S
C491 C490 1.372 . S
C491 C492 1.400 . S
C491 C496 1.490 . S
C492 H482 0.930 . S
C492 C491 1.400 . S
C492 C495 1.386 . S
H493 C509 0.930 . S
H494 C510 0.931 . S
C495 H483 0.929 . S
C495 C489 1.390 . S
C495 C492 1.386 . S
C496 C491 1.490 . S
C496 C498 1.395 . S
C496 C499 1.403 . S
H497 C503 0.930 . S
C498 H484 0.930 . S
C498 C496 1.395 . S
C498 C501 1.403 . S
C499 C496 1.403 . S
C499 C500 1.524 . S
C499 C503 1.400 . S
C500 H485 0.960 . S
C500 H486 0.960 . S
C500 H487 0.960 . S
C500 C499 1.524 . S
C501 C498 1.403 . S
C501 C502 1.392 . S
C501 C505 1.495 . S
C502 C501 1.392 . S
C502 C503 1.385 . S
C502 C504 1.478 . S
C503 H497 0.930 . S
C503 C499 1.400 . S
C503 C502 1.385 . S
C504 C502 1.478 . S
C504 C506 1.381 . S
C504 C510 1.383 . S
C505 C501 1.495 . S
C505 H511 0.959 . S
C505 H512 0.961 . S
C505 H513 0.960 . S
C506 C504 1.381 . S
C506 C507 1.394 . S
C506 H514 0.930 . S
C507 C506 1.394 . S
C507 C508 1.383 . S
C507 H515 0.929 . S
C508 C507 1.383 . S
C508 C509 1.377 . S
C509 H493 0.930 . S
C509 C508 1.377 . S
C509 C510 1.379 . S
C510 H494 0.931 . S
C510 C504 1.383 . S
C510 C509 1.379 . S
H511 C505 0.959 . S
H512 C505 0.961 . S
H513 C505 0.960 . S
H514 C506 0.930 . S
H515 C507 0.929 . S
H516 C524 0.929 . S
H517 C526 0.930 . S
H518 C528 0.930 . S
H519 C531 0.929 . S
H520 C534 0.930 . S
H521 C536 0.960 . S
H522 C536 0.960 1_565 S
H523 C536 0.960 1_554 S
C524 H516 0.929 . S
C524 C525 1.377 1_556 S
C524 C526 1.384 . S
C525 C524 1.377 1_554 S
C525 C531 1.390 . S
C526 H517 0.930 . S
C526 C524 1.384 . S
C526 C527 1.372 . S
C527 C526 1.372 . S
C527 C528 1.400 1_556 S
C527 C532 1.490 1_565 S
C528 H518 0.930 . S
C528 C527 1.400 1_554 S
C528 C531 1.386 . S
H529 C545 0.930 . S
H530 C546 0.931 1_554 S
C531 H519 0.929 . S
C531 C525 1.390 . S
C531 C528 1.386 . S
C532 C527 1.490 1_545 S
C532 C534 1.395 . S
C532 C535 1.403 . S
H533 C539 0.930 . S
C534 H520 0.930 . S
C534 C532 1.395 . S
C534 C537 1.403 . S
C535 C532 1.403 . S
C535 C536 1.524 . S
C535 C539 1.400 . S
C536 H521 0.960 . S
C536 H522 0.960 1_545 S
C536 H523 0.960 1_556 S
C536 C535 1.524 . S
C537 C534 1.403 . S
C537 C538 1.392 . S
C537 C541 1.495 . S
C538 C537 1.392 . S
C538 C539 1.385 . S
C538 C540 1.478 . S
C539 H533 0.930 . S
C539 C535 1.400 . S
C539 C538 1.385 . S
C540 C538 1.478 . S
C540 C542 1.381 . S
C540 C546 1.383 . S
C541 C537 1.495 . S
C541 H547 0.959 . S
C541 H548 0.961 . S
C541 H549 0.960 . S
C542 C540 1.381 . S
C542 C543 1.394 . S
C542 H550 0.930 . S
C543 C542 1.394 . S
C543 C544 1.383 . S
C543 H551 0.929 . S
C544 C543 1.383 . S
C544 C545 1.377 . S
C545 H529 0.930 . S
C545 C544 1.377 . S
C545 C546 1.379 . S
C546 H530 0.931 1_556 S
C546 C540 1.383 . S
C546 C545 1.379 . S
H547 C541 0.959 . S
H548 C541 0.961 . S
H549 C541 0.960 . S
H550 C542 0.930 . S
H551 C543 0.929 . S
H552 C560 0.929 . S
H553 C562 0.930 . S
H554 C564 0.930 . S
H555 C567 0.929 . S
H556 C570 0.930 . S
H557 C572 0.960 . S
H558 C572 0.960 . S
H559 C572 0.960 . S
C560 H552 0.929 . S
C560 C561 1.377 . S
C560 C562 1.384 . S
C561 C560 1.377 . S
C561 C567 1.390 . S
C562 H553 0.930 . S
C562 C560 1.384 . S
C562 C563 1.372 . S
C563 C562 1.372 . S
C563 C564 1.400 . S
C563 C568 1.490 . S
C564 H554 0.930 . S
C564 C563 1.400 . S
C564 C567 1.386 . S
H565 C581 0.930 . S
H566 C582 0.931 . S
C567 H555 0.929 . S
C567 C561 1.390 . S
C567 C564 1.386 . S
C568 C563 1.490 . S
C568 C570 1.395 . S
C568 C571 1.403 . S
H569 C575 0.930 . S
C570 H556 0.930 . S
C570 C568 1.395 . S
C570 C573 1.403 . S
C571 C568 1.403 . S
C571 C572 1.524 . S
C571 C575 1.400 . S
C572 H557 0.960 . S
C572 H558 0.960 . S
C572 H559 0.960 . S
C572 C571 1.524 . S
C573 C570 1.403 . S
C573 C574 1.392 . S
C573 C577 1.495 . S
C574 C573 1.392 . S
C574 C575 1.385 . S
C574 C576 1.478 . S
C575 H569 0.930 . S
C575 C571 1.400 . S
C575 C574 1.385 . S
C576 C574 1.478 . S
C576 C578 1.381 . S
C576 C582 1.383 . S
C577 C573 1.495 . S
C577 H583 0.959 . S
C577 H584 0.961 . S
C577 H585 0.960 . S
C578 C576 1.381 . S
C578 C579 1.394 . S
C578 H586 0.930 . S
C579 C578 1.394 . S
C579 C580 1.383 . S
C579 H587 0.929 . S
C580 C579 1.383 . S
C580 C581 1.377 . S
C581 H565 0.930 . S
C581 C580 1.377 . S
C581 C582 1.379 . S
C582 H566 0.931 . S
C582 C576 1.383 . S
C582 C581 1.379 . S
H583 C577 0.959 . S
H584 C577 0.961 . S
H585 C577 0.960 . S
H586 C578 0.930 . S
H587 C579 0.929 . S
H588 C596 0.929 . S
H589 C598 0.930 . S
H590 C600 0.930 . S
H591 C603 0.929 . S
H592 C606 0.930 . S
H593 C608 0.960 . S
H594 C608 0.960 . S
H595 C608 0.960 . S
C596 H588 0.929 . S
C596 C597 1.377 . S
C596 C598 1.384 . S
C597 C596 1.377 . S
C597 C603 1.390 . S
C598 H589 0.930 . S
C598 C596 1.384 . S
C598 C599 1.372 . S
C599 C598 1.372 . S
C599 C600 1.400 . S
C599 C604 1.490 . S
C600 H590 0.930 . S
C600 C599 1.400 . S
C600 C603 1.386 . S
H601 C617 0.930 . S
H602 C618 0.931 . S
C603 H591 0.929 . S
C603 C597 1.390 . S
C603 C600 1.386 . S
C604 C599 1.490 . S
C604 C606 1.395 . S
C604 C607 1.403 . S
H605 C611 0.930 . S
C606 H592 0.930 . S
C606 C604 1.395 . S
C606 C609 1.403 . S
C607 C604 1.403 . S
C607 C608 1.524 . S
C607 C611 1.400 . S
C608 H593 0.960 . S
C608 H594 0.960 . S
C608 H595 0.960 . S
C608 C607 1.524 . S
C609 C606 1.403 . S
C609 C610 1.392 . S
C609 C613 1.495 . S
C610 C609 1.392 . S
C610 C611 1.385 . S
C610 C612 1.478 . S
C611 H605 0.930 . S
C611 C607 1.400 . S
C611 C610 1.385 . S
C612 C610 1.478 . S
C612 C614 1.381 . S
C612 C618 1.383 . S
C613 C609 1.495 . S
C613 H619 0.959 . S
C613 H620 0.961 . S
C613 H621 0.960 . S
C614 C612 1.381 . S
C614 C615 1.394 . S
C614 H622 0.930 . S
C615 C614 1.394 . S
C615 C616 1.383 . S
C615 H623 0.929 . S
C616 C615 1.383 . S
C616 C617 1.377 . S
C617 H601 0.930 . S
C617 C616 1.377 . S
C617 C618 1.379 . S
C618 H602 0.931 . S
C618 C612 1.383 . S
C618 C617 1.379 . S
H619 C613 0.959 . S
H620 C613 0.961 . S
H621 C613 0.960 . S
H622 C614 0.930 . S
H623 C615 0.929 . S
H624 C632 0.929 . S
H625 C634 0.930 . S
H626 C636 0.930 . S
H627 C639 0.929 . S
H628 C642 0.930 . S
H629 C644 0.960 . S
H630 C644 0.960 . S
H631 C644 0.960 . S
C632 H624 0.929 . S
C632 C633 1.377 . S
C632 C634 1.384 . S
C633 C632 1.377 . S
C633 C639 1.390 . S
C634 H625 0.930 . S
C634 C632 1.384 . S
C634 C635 1.372 . S
C635 C634 1.372 . S
C635 C636 1.400 . S
C635 C640 1.490 1_455 S
C636 H626 0.930 . S
C636 C635 1.400 . S
C636 C639 1.386 . S
H637 C653 0.930 . S
H638 C654 0.931 . S
C639 H627 0.929 . S
C639 C633 1.390 . S
C639 C636 1.386 . S
C640 C635 1.490 1_655 S
C640 C642 1.395 . S
C640 C643 1.403 . S
H641 C647 0.930 . S
C642 H628 0.930 . S
C642 C640 1.395 . S
C642 C645 1.403 . S
C643 C640 1.403 . S
C643 C644 1.524 . S
C643 C647 1.400 . S
C644 H629 0.960 . S
C644 H630 0.960 . S
C644 H631 0.960 . S
C644 C643 1.524 . S
C645 C642 1.403 . S
C645 C646 1.392 . S
C645 C649 1.495 . S
C646 C645 1.392 . S
C646 C647 1.385 . S
C646 C648 1.478 . S
C647 H641 0.930 . S
C647 C643 1.400 . S
C647 C646 1.385 . S
C648 C646 1.478 . S
C648 C650 1.381 . S
C648 C654 1.383 . S
C649 C645 1.495 . S
C649 H655 0.959 . S
C649 H656 0.961 . S
C649 H657 0.960 . S
C650 C648 1.381 . S
C650 C651 1.394 . S
C650 H658 0.930 . S
C651 C650 1.394 . S
C651 C652 1.383 . S
C651 H659 0.929 . S
C652 C651 1.383 . S
C652 C653 1.377 . S
C653 H637 0.930 . S
C653 C652 1.377 . S
C653 C654 1.379 . S
C654 H638 0.931 . S
C654 C648 1.383 . S
C654 C653 1.379 . S
H655 C649 0.959 . S
H656 C649 0.961 . S
H657 C649 0.960 . S
H658 C650 0.930 . S
H659 C651 0.929 . S
H660 C668 0.929 . S
H661 C670 0.930 . S
H662 C672 0.930 . S
H663 C675 0.929 . S
H664 C678 0.930 . S
H665 C680 0.960 . S
H666 C680 0.960 . S
H667 C680 0.960 . S
C668 H660 0.929 . S
C668 C669 1.377 . S
C668 C670 1.384 . S
C669 C668 1.377 . S
C669 C675 1.390 . S
C670 H661 0.930 . S
C670 C668 1.384 . S
C670 C671 1.372 . S
C671 C670 1.372 . S
C671 C672 1.400 . S
C671 C676 1.490 . S
C672 H662 0.930 . S
C672 C671 1.400 . S
C672 C675 1.386 . S
H673 C689 0.930 . S
H674 C690 0.931 . S
C675 H663 0.929 . S
C675 C669 1.390 . S
C675 C672 1.386 . S
C676 C671 1.490 . S
C676 C678 1.395 . S
C676 C679 1.403 . S
H677 C683 0.930 . S
C678 H664 0.930 . S
C678 C676 1.395 . S
C678 C681 1.403 . S
C679 C676 1.403 . S
C679 C680 1.524 . S
C679 C683 1.400 . S
C680 H665 0.960 . S
C680 H666 0.960 . S
C680 H667 0.960 . S
C680 C679 1.524 . S
C681 C678 1.403 . S
C681 C682 1.392 . S
C681 C685 1.495 . S
C682 C681 1.392 . S
C682 C683 1.385 . S
C682 C684 1.478 . S
C683 H677 0.930 . S
C683 C679 1.400 . S
C683 C682 1.385 . S
C684 C682 1.478 . S
C684 C686 1.381 . S
C684 C690 1.383 . S
C685 C681 1.495 . S
C685 H691 0.959 . S
C685 H692 0.961 . S
C685 H693 0.960 . S
C686 C684 1.381 . S
C686 C687 1.394 . S
C686 H694 0.930 . S
C687 C686 1.394 . S
C687 C688 1.383 . S
C687 H695 0.929 . S
C688 C687 1.383 . S
C688 C689 1.377 . S
C689 H673 0.930 . S
C689 C688 1.377 . S
C689 C690 1.379 . S
C690 H674 0.931 . S
C690 C684 1.383 . S
C690 C689 1.379 . S
H691 C685 0.959 . S
H692 C685 0.961 . S
H693 C685 0.960 . S
H694 C686 0.930 . S
H695 C687 0.929 . S
H696 C704 0.929 . S
H697 C706 0.930 . S
H698 C708 0.930 . S
H699 C711 0.929 . S
H700 C714 0.930 . S
H701 C716 0.960 . S
H702 C716 0.960 . S
H703 C716 0.960 . S
C704 H696 0.929 . S
C704 C705 1.377 . S
C704 C706 1.384 . S
C705 C704 1.377 . S
C705 C711 1.390 . S
C706 H697 0.930 . S
C706 C704 1.384 . S
C706 C707 1.372 . S
C707 C706 1.372 . S
C707 C708 1.400 . S
C707 C712 1.490 . S
C708 H698 0.930 . S
C708 C707 1.400 . S
C708 C711 1.386 . S
H709 C725 0.930 . S
H710 C726 0.931 . S
C711 H699 0.929 . S
C711 C705 1.390 . S
C711 C708 1.386 . S
C712 C707 1.490 . S
C712 C714 1.395 . S
C712 C715 1.403 . S
H713 C719 0.930 . S
C714 H700 0.930 . S
C714 C712 1.395 . S
C714 C717 1.403 1_655 S
C715 C712 1.403 . S
C715 C716 1.524 . S
C715 C719 1.400 . S
C716 H701 0.960 . S
C716 H702 0.960 . S
C716 H703 0.960 . S
C716 C715 1.524 . S
C717 C714 1.403 1_455 S
C717 C718 1.392 . S
C717 C721 1.495 . S
C718 C717 1.392 . S
C718 C719 1.385 1_455 S
C718 C720 1.478 . S
C719 H713 0.930 . S
C719 C715 1.400 . S
C719 C718 1.385 1_655 S
C720 C718 1.478 . S
C720 C722 1.381 . S
C720 C726 1.383 . S
C721 C717 1.495 . S
C721 H727 0.959 . S
C721 H728 0.961 . S
C721 H729 0.960 . S
C722 C720 1.381 . S
C722 C723 1.394 . S
C722 H730 0.930 . S
C723 C722 1.394 . S
C723 C724 1.383 . S
C723 H731 0.929 . S
C724 C723 1.383 . S
C724 C725 1.377 . S
C725 H709 0.930 . S
C725 C724 1.377 . S
C725 C726 1.379 . S
C726 H710 0.931 . S
C726 C720 1.383 . S
C726 C725 1.379 . S
H727 C721 0.959 . S
H728 C721 0.961 . S
H729 C721 0.960 . S
H730 C722 0.930 . S
H731 C723 0.929 . S
H732 C740 0.929 . S
H733 C742 0.930 . S
H734 C744 0.930 . S
H735 C747 0.929 . S
H736 C750 0.930 . S
H737 C752 0.960 . S
H738 C752 0.960 . S
H739 C752 0.960 . S
C740 H732 0.929 . S
C740 C741 1.377 . S
C740 C742 1.384 . S
C741 C740 1.377 . S
C741 C747 1.390 . S
C742 H733 0.930 . S
C742 C740 1.384 . S
C742 C743 1.372 . S
C743 C742 1.372 . S
C743 C744 1.400 . S
C743 C748 1.490 . S
C744 H734 0.930 . S
C744 C743 1.400 . S
C744 C747 1.386 . S
H745 C761 0.930 . S
H746 C762 0.931 . S
C747 H735 0.929 . S
C747 C741 1.390 . S
C747 C744 1.386 . S
C748 C743 1.490 . S
C748 C750 1.395 . S
C748 C751 1.403 . S
H749 C755 0.930 . S
C750 H736 0.930 . S
C750 C748 1.395 . S
C750 C753 1.403 . S
C751 C748 1.403 . S
C751 C752 1.524 . S
C751 C755 1.400 . S
C752 H737 0.960 . S
C752 H738 0.960 . S
C752 H739 0.960 . S
C752 C751 1.524 . S
C753 C750 1.403 . S
C753 C754 1.392 . S
C753 C757 1.495 . S
C754 C753 1.392 . S
C754 C755 1.385 . S
C754 C756 1.478 . S
C755 H749 0.930 . S
C755 C751 1.400 . S
C755 C754 1.385 . S
C756 C754 1.478 . S
C756 C758 1.381 . S
C756 C762 1.383 . S
C757 C753 1.495 . S
C757 H763 0.959 . S
C757 H764 0.961 . S
C757 H765 0.960 . S
C758 C756 1.381 . S
C758 C759 1.394 . S
C758 H766 0.930 . S
C759 C758 1.394 . S
C759 C760 1.383 . S
C759 H767 0.929 . S
C760 C759 1.383 . S
C760 C761 1.377 . S
C761 H745 0.930 . S
C761 C760 1.377 . S
C761 C762 1.379 . S
C762 H746 0.931 . S
C762 C756 1.383 . S
C762 C761 1.379 . S
H763 C757 0.959 . S
H764 C757 0.961 . S
H765 C757 0.960 . S
H766 C758 0.930 . S
H767 C759 0.929 . S
H768 C776 0.929 . S
H769 C778 0.930 . S
H770 C780 0.930 . S
H771 C783 0.929 . S
H772 C786 0.930 . S
H773 C788 0.960 . S
H774 C788 0.960 . S
H775 C788 0.960 . S
C776 H768 0.929 . S
C776 C777 1.377 . S
C776 C778 1.384 . S
C777 C776 1.377 . S
C777 C783 1.390 . S
C778 H769 0.930 . S
C778 C776 1.384 . S
C778 C779 1.372 . S
C779 C778 1.372 . S
C779 C780 1.400 . S
C779 C784 1.490 . S
C780 H770 0.930 . S
C780 C779 1.400 . S
C780 C783 1.386 . S
H781 C797 0.930 . S
H782 C798 0.931 . S
C783 H771 0.929 . S
C783 C777 1.390 . S
C783 C780 1.386 . S
C784 C779 1.490 . S
C784 C786 1.395 . S
C784 C787 1.403 . S
H785 C791 0.930 . S
C786 H772 0.930 . S
C786 C784 1.395 . S
C786 C789 1.403 . S
C787 C784 1.403 . S
C787 C788 1.524 . S
C787 C791 1.400 . S
C788 H773 0.960 . S
C788 H774 0.960 . S
C788 H775 0.960 . S
C788 C787 1.524 . S
C789 C786 1.403 . S
C789 C790 1.392 . S
C789 C793 1.495 . S
C790 C789 1.392 . S
C790 C791 1.385 . S
C790 C792 1.478 . S
C791 H785 0.930 . S
C791 C787 1.400 . S
C791 C790 1.385 . S
C792 C790 1.478 . S
C792 C794 1.381 . S
C792 C798 1.383 . S
C793 C789 1.495 . S
C793 H799 0.959 . S
C793 H800 0.961 . S
C793 H801 0.960 . S
C794 C792 1.381 . S
C794 C795 1.394 . S
C794 H802 0.930 . S
C795 C794 1.394 . S
C795 C796 1.383 . S
C795 H803 0.929 . S
C796 C795 1.383 . S
C796 C797 1.377 . S
C797 H781 0.930 . S
C797 C796 1.377 . S
C797 C798 1.379 . S
C798 H782 0.931 . S
C798 C792 1.383 . S
C798 C797 1.379 . S
H799 C793 0.959 . S
H800 C793 0.961 . S
H801 C793 0.960 . S
H802 C794 0.930 . S
H803 C795 0.929 . S
H804 C812 0.929 . S
H805 C814 0.930 . S
H806 C816 0.930 . S
H807 C819 0.929 . S
H808 C822 0.930 . S
H809 C824 0.960 . S
H810 C824 0.960 . S
H811 C824 0.960 . S
C812 H804 0.929 . S
C812 C813 1.377 . S
C812 C814 1.384 . S
C813 C812 1.377 . S
C813 C819 1.390 . S
C814 H805 0.930 . S
C814 C812 1.384 . S
C814 C815 1.372 . S
C815 C814 1.372 . S
C815 C816 1.400 . S
C815 C820 1.490 . S
C816 H806 0.930 . S
C816 C815 1.400 . S
C816 C819 1.386 . S
H817 C833 0.930 . S
H818 C834 0.931 . S
C819 H807 0.929 . S
C819 C813 1.390 . S
C819 C816 1.386 . S
C820 C815 1.490 . S
C820 C822 1.395 . S
C820 C823 1.403 . S
H821 C827 0.930 . S
C822 H808 0.930 . S
C822 C820 1.395 . S
C822 C825 1.403 . S
C823 C820 1.403 . S
C823 C824 1.524 . S
C823 C827 1.400 . S
C824 H809 0.960 . S
C824 H810 0.960 . S
C824 H811 0.960 . S
C824 C823 1.524 . S
C825 C822 1.403 . S
C825 C826 1.392 . S
C825 C829 1.495 . S
C826 C825 1.392 . S
C826 C827 1.385 . S
C826 C828 1.478 . S
C827 H821 0.930 . S
C827 C823 1.400 . S
C827 C826 1.385 . S
C828 C826 1.478 . S
C828 C830 1.381 . S
C828 C834 1.383 . S
C829 C825 1.495 . S
C829 H835 0.959 . S
C829 H836 0.961 . S
C829 H837 0.960 . S
C830 C828 1.381 . S
C830 C831 1.394 . S
C830 H838 0.930 . S
C831 C830 1.394 . S
C831 C832 1.383 . S
C831 H839 0.929 . S
C832 C831 1.383 . S
C832 C833 1.377 . S
C833 H817 0.930 . S
C833 C832 1.377 . S
C833 C834 1.379 . S
C834 H818 0.931 . S
C834 C828 1.383 . S
C834 C833 1.379 . S
H835 C829 0.959 . S
H836 C829 0.961 . S
H837 C829 0.960 . S
H838 C830 0.930 . S
H839 C831 0.929 . S
H840 C848 0.929 . S
H841 C850 0.930 . S
H842 C852 0.930 . S
H843 C855 0.929 . S
H844 C858 0.930 . S
H845 C860 0.960 . S
H846 C860 0.960 . S
H847 C860 0.960 . S
C848 H840 0.929 . S
C848 C849 1.377 . S
C848 C850 1.384 . S
C849 C848 1.377 . S
C849 C855 1.390 . S
C850 H841 0.930 . S
C850 C848 1.384 . S
C850 C851 1.372 . S
C851 C850 1.372 . S
C851 C852 1.400 . S
C851 C856 1.490 . S
C852 H842 0.930 . S
C852 C851 1.400 . S
C852 C855 1.386 . S
H853 C869 0.930 . S
H854 C870 0.931 . S
C855 H843 0.929 . S
C855 C849 1.390 . S
C855 C852 1.386 . S
C856 C851 1.490 . S
C856 C858 1.395 . S
C856 C859 1.403 . S
H857 C863 0.930 . S
C858 H844 0.930 . S
C858 C856 1.395 . S
C858 C861 1.403 . S
C859 C856 1.403 . S
C859 C860 1.524 . S
C859 C863 1.400 . S
C860 H845 0.960 . S
C860 H846 0.960 . S
C860 H847 0.960 . S
C860 C859 1.524 . S
C861 C858 1.403 . S
C861 C862 1.392 . S
C861 C865 1.495 . S
C862 C861 1.392 . S
C862 C863 1.385 . S
C862 C864 1.478 . S
C863 H857 0.930 . S
C863 C859 1.400 . S
C863 C862 1.385 . S
C864 C862 1.478 . S
C864 C866 1.381 . S
C864 C870 1.383 . S
C865 C861 1.495 . S
C865 H871 0.959 . S
C865 H872 0.961 . S
C865 H873 0.960 . S
C866 C864 1.381 . S
C866 C867 1.394 . S
C866 H874 0.930 . S
C867 C866 1.394 . S
C867 C868 1.383 . S
C867 H875 0.929 . S
C868 C867 1.383 . S
C868 C869 1.377 . S
C869 H853 0.930 . S
C869 C868 1.377 . S
C869 C870 1.379 . S
C870 H854 0.931 . S
C870 C864 1.383 . S
C870 C869 1.379 . S
H871 C865 0.959 . S
H872 C865 0.961 . S
H873 C865 0.960 . S
H874 C866 0.930 . S
H875 C867 0.929 . S
H876 C884 0.929 . S
H877 C886 0.930 . S
H878 C888 0.930 . S
H879 C891 0.929 . S
H880 C894 0.930 . S
H881 C896 0.960 . S
H882 C896 0.960 . S
H883 C896 0.960 . S
C884 H876 0.929 . S
C884 C885 1.377 . S
C884 C886 1.384 . S
C885 C884 1.377 . S
C885 C891 1.390 . S
C886 H877 0.930 . S
C886 C884 1.384 . S
C886 C887 1.372 . S
C887 C886 1.372 . S
C887 C888 1.400 . S
C887 C892 1.490 . S
C888 H878 0.930 . S
C888 C887 1.400 . S
C888 C891 1.386 . S
H889 C905 0.930 . S
H890 C906 0.931 . S
C891 H879 0.929 . S
C891 C885 1.390 . S
C891 C888 1.386 . S
C892 C887 1.490 . S
C892 C894 1.395 . S
C892 C895 1.403 . S
H893 C899 0.930 . S
C894 H880 0.930 . S
C894 C892 1.395 . S
C894 C897 1.403 . S
C895 C892 1.403 . S
C895 C896 1.524 . S
C895 C899 1.400 . S
C896 H881 0.960 . S
C896 H882 0.960 . S
C896 H883 0.960 . S
C896 C895 1.524 . S
C897 C894 1.403 . S
C897 C898 1.392 . S
C897 C901 1.495 . S
C898 C897 1.392 . S
C898 C899 1.385 . S
C898 C900 1.478 . S
C899 H893 0.930 . S
C899 C895 1.400 . S
C899 C898 1.385 . S
C900 C898 1.478 . S
C900 C902 1.381 . S
C900 C906 1.383 . S
C901 C897 1.495 . S
C901 H907 0.959 . S
C901 H908 0.961 . S
C901 H909 0.960 . S
C902 C900 1.381 . S
C902 C903 1.394 . S
C902 H910 0.930 . S
C903 C902 1.394 . S
C903 C904 1.383 . S
C903 H911 0.929 . S
C904 C903 1.383 . S
C904 C905 1.377 . S
C905 H889 0.930 . S
C905 C904 1.377 . S
C905 C906 1.379 . S
C906 H890 0.931 . S
C906 C900 1.383 . S
C906 C905 1.379 . S
H907 C901 0.959 . S
H908 C901 0.961 . S
H909 C901 0.960 . S
H910 C902 0.930 . S
H911 C903 0.929 . S
H912 C920 0.929 . S
H913 C922 0.930 . S
H914 C924 0.930 . S
H915 C927 0.929 . S
H916 C930 0.930 . S
H917 C932 0.960 . S
H918 C932 0.960 . S
H919 C932 0.960 . S
C920 H912 0.929 . S
C920 C921 1.377 . S
C920 C922 1.384 . S
C921 C920 1.377 . S
C921 C927 1.390 . S
C922 H913 0.930 . S
C922 C920 1.384 . S
C922 C923 1.372 . S
C923 C922 1.372 . S
C923 C924 1.400 . S
C923 C928 1.490 . S
C924 H914 0.930 . S
C924 C923 1.400 . S
C924 C927 1.386 . S
H925 C941 0.930 . S
H926 C942 0.931 . S
C927 H915 0.929 . S
C927 C921 1.390 . S
C927 C924 1.386 . S
C928 C923 1.490 . S
C928 C930 1.395 . S
C928 C931 1.403 . S
H929 C935 0.930 . S
C930 H916 0.930 . S
C930 C928 1.395 . S
C930 C933 1.403 . S
C931 C928 1.403 . S
C931 C932 1.524 . S
C931 C935 1.400 . S
C932 H917 0.960 . S
C932 H918 0.960 . S
C932 H919 0.960 . S
C932 C931 1.524 . S
C933 C930 1.403 . S
C933 C934 1.392 . S
C933 C937 1.495 . S
C934 C933 1.392 . S
C934 C935 1.385 . S
C934 C936 1.478 . S
C935 H929 0.930 . S
C935 C931 1.400 . S
C935 C934 1.385 . S
C936 C934 1.478 . S
C936 C938 1.381 . S
C936 C942 1.383 . S
C937 C933 1.495 . S
C937 H943 0.959 . S
C937 H944 0.961 . S
C937 H945 0.960 . S
C938 C936 1.381 . S
C938 C939 1.394 . S
C938 H946 0.930 . S
C939 C938 1.394 . S
C939 C940 1.383 . S
C939 H947 0.929 . S
C940 C939 1.383 . S
C940 C941 1.377 . S
C941 H925 0.930 . S
C941 C940 1.377 . S
C941 C942 1.379 . S
C942 H926 0.931 . S
C942 C936 1.383 . S
C942 C941 1.379 . S
H943 C937 0.959 . S
H944 C937 0.961 . S
H945 C937 0.960 . S
H946 C938 0.930 . S
H947 C939 0.929 . S
H948 C956 0.929 . S
H949 C958 0.930 . S
H950 C960 0.930 . S
H951 C963 0.929 . S
H952 C966 0.930 . S
H953 C968 0.960 . S
H954 C968 0.960 . S
H955 C968 0.960 . S
C956 H948 0.929 . S
C956 C957 1.377 . S
C956 C958 1.384 . S
C957 C956 1.377 . S
C957 C963 1.390 . S
C958 H949 0.930 . S
C958 C956 1.384 . S
C958 C959 1.372 . S
C959 C958 1.372 . S
C959 C960 1.400 . S
C959 C964 1.490 . S
C960 H950 0.930 . S
C960 C959 1.400 . S
C960 C963 1.386 . S
H961 C977 0.930 . S
H962 C978 0.931 . S
C963 H951 0.929 . S
C963 C957 1.390 . S
C963 C960 1.386 . S
C964 C959 1.490 . S
C964 C966 1.395 . S
C964 C967 1.403 . S
H965 C971 0.930 . S
C966 H952 0.930 . S
C966 C964 1.395 . S
C966 C969 1.403 . S
C967 C964 1.403 . S
C967 C968 1.524 . S
C967 C971 1.400 . S
C968 H953 0.960 . S
C968 H954 0.960 . S
C968 H955 0.960 . S
C968 C967 1.524 . S
C969 C966 1.403 . S
C969 C970 1.392 . S
C969 C973 1.495 . S
C970 C969 1.392 . S
C970 C971 1.385 . S
C970 C972 1.478 . S
C971 H965 0.930 . S
C971 C967 1.400 . S
C971 C970 1.385 . S
C972 C970 1.478 . S
C972 C974 1.381 . S
C972 C978 1.383 . S
C973 C969 1.495 . S
C973 H979 0.959 . S
C973 H980 0.961 . S
C973 H981 0.960 . S
C974 C972 1.381 . S
C974 C975 1.394 . S
C974 H982 0.930 . S
C975 C974 1.394 . S
C975 C976 1.383 . S
C975 H983 0.929 . S
C976 C975 1.383 . S
C976 C977 1.377 . S
C977 H961 0.930 . S
C977 C976 1.377 . S
C977 C978 1.379 . S
C978 H962 0.931 . S
C978 C972 1.383 . S
C978 C977 1.379 . S
H979 C973 0.959 . S
H980 C973 0.961 . S
H981 C973 0.960 . S
H982 C974 0.930 . S
H983 C975 0.929 . S
H984 C992 0.929 . S
H985 C994 0.930 . S
H986 C996 0.930 . S
H987 C999 0.929 . S
H988 C1002 0.930 . S
H989 C1004 0.960 . S
H990 C1004 0.960 . S
H991 C1004 0.960 . S
C992 H984 0.929 . S
C992 C993 1.377 1_556 S
C992 C994 1.384 . S
C993 C992 1.377 1_554 S
C993 C999 1.390 . S
C994 H985 0.930 . S
C994 C992 1.384 . S
C994 C995 1.372 . S
C995 C994 1.372 . S
C995 C996 1.400 1_556 S
C995 C1000 1.490 . S
C996 H986 0.930 . S
C996 C995 1.400 1_554 S
C996 C999 1.386 . S
H997 C1013 0.930 . S
H998 C1014 0.931 . S
C999 H987 0.929 . S
C999 C993 1.390 . S
C999 C996 1.386 . S
C1000 C995 1.490 . S
C1000 C1002 1.395 . S
C1000 C1003 1.403 . S
H1001 C1007 0.930 . S
C1002 H988 0.930 . S
C1002 C1000 1.395 . S
C1002 C1005 1.403 . S
C1003 C1000 1.403 . S
C1003 C1004 1.524 . S
C1003 C1007 1.400 . S
C1004 H989 0.960 . S
C1004 H990 0.960 . S
C1004 H991 0.960 . S
C1004 C1003 1.524 . S
C1005 C1002 1.403 . S
C1005 C1006 1.392 . S
C1005 C1009 1.495 . S
C1006 C1005 1.392 . S
C1006 C1007 1.385 . S
C1006 C1008 1.478 . S
C1007 H1001 0.930 . S
C1007 C1003 1.400 . S
C1007 C1006 1.385 . S
C1008 C1006 1.478 . S
C1008 C1010 1.381 . S
C1008 C1014 1.383 . S
C1009 C1005 1.495 . S
C1009 H1015 0.959 . S
C1009 H1016 0.961 . S
C1009 H1017 0.960 . S
C1010 C1008 1.381 . S
C1010 C1011 1.394 . S
C1010 H1018 0.930 . S
C1011 C1010 1.394 . S
C1011 C1012 1.383 . S
C1011 H1019 0.929 . S
C1012 C1011 1.383 . S
C1012 C1013 1.377 . S
C1013 H997 0.930 . S
C1013 C1012 1.377 . S
C1013 C1014 1.379 . S
C1014 H998 0.931 . S
C1014 C1008 1.383 . S
C1014 C1013 1.379 . S
H1015 C1009 0.959 . S
H1016 C1009 0.961 . S
H1017 C1009 0.960 . S
H1018 C1010 0.930 . S
H1019 C1011 0.929 . S
C165 C7 0.619 . S
C184 C89 0.595 . S
C201 C25 0.656 . S
C220 C97 0.570 . S
C237 C46 0.690 . S
C256 C106 0.703 . S
C292 C116 0.679 . S
C273 C70 0.687 . S
C328 C125 0.602 . S
C309 C28 0.624 . S
C345 C49 0.678 . S
C364 C134 0.726 . S
C381 C67 0.703 . S
C400 C142 0.673 . S
C417 C4 0.642 . S
C436 C152 0.626 . S
C453 C58 1.653 . S
C472 C151 1.768 . S
C508 C124 1.479 . S
C489 C66 1.408 . S
C544 C133 1.660 . S
C525 C3 1.649 . S
C561 C37 1.675 . S
C580 C143 1.772 . S
C616 C98 1.756 . S
C597 C79 1.653 . S
C633 C16 1.673 . S
C652 C107 1.769 . S
C688 C115 1.687 . S
C669 C24 1.655 . S
C724 C88 1.450 . S
C705 C45 1.397 . S
C760 C145 1.346 . S
C741 C19 1.186 . S
C796 C154 1.239 . S
C777 C41 1.108 . S
C813 C62 0.973 . S
C832 C127 1.062 . S
C868 C136 1.208 . S
C849 C82 1.101 . S
C904 C109 1.330 . S
C885 C40 1.186 . S
C921 C61 1.089 . S
C940 C118 1.194 . S
C976 C91 1.062 . S
C957 C83 0.974 . S
C1012 C100 1.241 . S
C993 C20 1.103 . S
