# Generated by pormake.
# Topology tsx, (6,3)-cn, num edge types: 1
# Building blocks:
#     Node 0, Type 0, BuildingBlock: FUNLAD_clean_sbu_0, # of connection points: 6
#     Node 1, Type 0, BuildingBlock: FUNLAD_clean_sbu_0, # of connection points: 6
#     Node 2, Type 1, BuildingBlock: MIDCAF_clean_linker_0, # of connection points: 3
#     Node 3, Type 1, BuildingBlock: MIDCAF_clean_linker_0, # of connection points: 3
#     Node 4, Type 1, BuildingBlock: MIDCAF_clean_linker_0, # of connection points: 3
#     Node 5, Type 1, BuildingBlock: MIDCAF_clean_linker_0, # of connection points: 3
#     Edge 6, Type (0, 1), BuildingBlock: XUDNAN_clean_linker_2, # of connection points: 2
#     Edge 7, Type (0, 1), BuildingBlock: XUDNAN_clean_linker_2, # of connection points: 2
#     Edge 8, Type (0, 1), BuildingBlock: XUDNAN_clean_linker_2, # of connection points: 2
#     Edge 9, Type (0, 1), BuildingBlock: XUDNAN_clean_linker_2, # of connection points: 2
#     Edge 10, Type (0, 1), BuildingBlock: XUDNAN_clean_linker_2, # of connection points: 2
#     Edge 11, Type (0, 1), BuildingBlock: XUDNAN_clean_linker_2, # of connection points: 2
#     Edge 12, Type (0, 1), BuildingBlock: XUDNAN_clean_linker_2, # of connection points: 2
#     Edge 13, Type (0, 1), BuildingBlock: XUDNAN_clean_linker_2, # of connection points: 2
#     Edge 14, Type (0, 1), BuildingBlock: XUDNAN_clean_linker_2, # of connection points: 2
#     Edge 15, Type (0, 1), BuildingBlock: XUDNAN_clean_linker_2, # of connection points: 2
#     Edge 16, Type (0, 1), BuildingBlock: XUDNAN_clean_linker_2, # of connection points: 2
#     Edge 17, Type (0, 1), BuildingBlock: XUDNAN_clean_linker_2, # of connection points: 2
# Relax obj value: 0.165
# Max RMSD: 0.155
# Mean RMSD: 0.089
data_MOF--net-tsx--node1-FUNLAD_clean_sbu_0--node2-MIDCAF_clean_linker_0--edge1-XUDNAN_clean_linker_2
_symmetry_space_group_name_H-M    P1
_symmetry_Int_Tables_number       1
_symmetry_cell_setting            triclinic
loop_
_symmetry_equiv_pos_as_xyz
'x, y, z'
_cell_length_a     23.027367
_cell_length_b     25.543651
_cell_length_c     49.699524
_cell_angle_alpha  91.103576
_cell_angle_beta   92.115695
_cell_angle_gamma 89.63534
loop_
_atom_site_label
_atom_site_type_symbol
_atom_site_fract_x
_atom_site_fract_y
_atom_site_fract_z
_atom_type_partial_charge
C0 C 0.93147 0.96342 0.00408 0.0
N1 N 0.01331 0.04491 0.0694 0.0
C2 C 0.96555 0.0378 0.08424 0.0
C3 C 0.97001 0.04057 0.11238 0.0
C4 C 0.02403 0.05121 0.12532 0.0
C5 C 0.0728 0.05685 0.1095 0.0
C6 C 0.06648 0.05341 0.08149 0.0
Zn7 Zn 0.00557 0.04763 0.02822 0.0
C8 C 0.09854 0.98649 0.00154 0.0
N9 N 0.99149 0.05715 0.94218 0.0
C10 C 0.9379 0.05657 0.92965 0.0
C11 C 0.04044 0.06159 0.92786 0.0
C12 C 0.0366 0.06575 0.89986 0.0
C13 C 0.98185 0.06619 0.88651 0.0
C14 C 0.93205 0.06146 0.90173 0.0
Zn15 Zn 0.99874 0.05312 0.98336 0.0
O16 O 0.95053 0.9816 0.0267 0.0
C17 C 0.9062 0.11524 0.01013 0.0
O18 O 0.94512 0.98577 0.98256 0.0
H19 H 0.08261 0.06248 0.93817 0.0
H20 H 0.92364 0.03127 0.07423 0.0
H21 H 0.89954 0.05268 0.94135 0.0
O22 O 0.93231 0.09812 0.03118 0.0
O23 O 0.9246 0.10209 0.98714 0.0
H24 H 0.10396 0.05871 0.06936 0.0
O25 O 0.05277 0.1195 0.9846 0.0
O26 O 0.06058 0.11427 0.02871 0.0
O27 O 0.07321 0.00506 0.98066 0.0
O28 O 0.07906 0.99686 0.02465 0.0
C29 C 0.07315 0.13667 0.0071 0.0
H30 H 0.93126 0.0363 0.12383 0.0
H31 H 0.11541 0.06432 0.11869 0.0
H32 H 0.07598 0.0698 0.88883 0.0
H33 H 0.88907 0.06117 0.89211 0.0
C34 C 0.43655 0.38744 0.49149 0.0
N35 N 0.4745 0.47431 0.56158 0.0
C36 C 0.41849 0.46498 0.56783 0.0
C37 C 0.40338 0.46129 0.59469 0.0
C38 C 0.44621 0.46768 0.61533 0.0
C39 C 0.50332 0.47869 0.60831 0.0
C40 C 0.51661 0.48163 0.5812 0.0
Zn41 Zn 0.49706 0.47304 0.52211 0.0
C42 C 0.60091 0.40549 0.51326 0.0
N43 N 0.54417 0.46701 0.43963 0.0
C44 C 0.50203 0.46425 0.41972 0.0
C45 C 0.6015 0.46471 0.43387 0.0
C46 C 0.61826 0.45761 0.40732 0.0
C47 C 0.57564 0.45393 0.38649 0.0
C48 C 0.51692 0.45818 0.39284 0.0
Zn49 Zn 0.52109 0.47026 0.47907 0.0
O50 O 0.44436 0.40844 0.51466 0.0
C51 C 0.41763 0.53761 0.48726 0.0
O52 O 0.4639 0.40497 0.47183 0.0
H53 H 0.63439 0.46737 0.44993 0.0
H54 H 0.38562 0.45939 0.55194 0.0
H55 H 0.45673 0.46563 0.4247 0.0
O56 O 0.4257 0.52382 0.5116 0.0
O57 O 0.45219 0.52126 0.46958 0.0
H58 H 0.56094 0.48863 0.57582 0.0
O59 O 0.57731 0.53607 0.48705 0.0
O60 O 0.54936 0.53803 0.52886 0.0
O61 O 0.58939 0.4192 0.48925 0.0
O62 O 0.569 0.42217 0.53197 0.0
C63 C 0.57918 0.55713 0.5105 0.0
H64 H 0.3587 0.4533 0.59925 0.0
H65 H 0.53778 0.48331 0.62358 0.0
H66 H 0.66401 0.45491 0.40311 0.0
H67 H 0.48287 0.45512 0.37727 0.0
C68 C 0.96335 0.16959 0.48119 0.0
C69 C 0.92277 0.15657 0.50041 0.0
C70 C 0.91622 0.10364 0.50696 0.0
C71 C 0.94562 0.0644 0.49278 0.0
H72 H 0.10759 0.92799 0.48577 0.0
H73 H 0.15927 0.84515 0.49271 0.0
H74 H 0.05249 0.77289 0.42911 0.0
H75 H 0.00371 0.85635 0.4213 0.0
H76 H 0.03258 0.93948 0.36627 0.0
H77 H 0.03645 0.95798 0.31851 0.0
H78 H 0.00594 0.12202 0.33565 0.0
H79 H 0.00271 0.10386 0.38355 0.0
H80 H 0.02044 0.14157 0.45103 0.0
H81 H 0.97066 0.21007 0.47623 0.0
H82 H 0.88535 0.0922 0.52164 0.0
H83 H 0.93715 0.02379 0.49706 0.0
N84 N 0.0176 0.98838 0.46178 0.0
N85 N 0.03175 0.9608 0.4171 0.0
N86 N 0.00276 0.047 0.42621 0.0
C87 C 0.03241 0.95029 0.44379 0.0
C88 C 0.01721 0.00909 0.40811 0.0
C89 C 0.00244 0.03685 0.45297 0.0
C90 C 0.05258 0.89848 0.45271 0.0
C91 C 0.09438 0.89391 0.47382 0.0
C92 C 0.12384 0.84638 0.47779 0.0
C93 C 0.11113 0.80263 0.46096 0.0
C94 C 0.06481 0.80622 0.44181 0.0
C95 C 0.03648 0.85384 0.43745 0.0
C96 C 0.01761 0.0202 0.37889 0.0
C97 C 0.02656 0.97955 0.35994 0.0
C98 C 0.02837 0.99004 0.33249 0.0
C99 C 0.0216 0.04146 0.32329 0.0
C100 C 0.01198 0.08205 0.34214 0.0
C101 C 0.00983 0.07155 0.3696 0.0
C102 C 0.98154 0.07754 0.47173 0.0
C103 C 0.99192 0.13046 0.46678 0.0
C104 C 0.90874 0.82339 0.57066 0.0
C105 C 0.87859 0.82237 0.54562 0.0
C106 C 0.8925 0.85886 0.52614 0.0
C107 C 0.93176 0.8992 0.53272 0.0
H108 H 0.08961 0.01041 0.51557 0.0
H109 H 0.14755 0.07116 0.4903 0.0
H110 H 0.08006 0.20057 0.53713 0.0
H111 H 0.02377 0.13983 0.5628 0.0
H112 H 0.01345 0.10875 0.62894 0.0
H113 H 0.00607 0.13026 0.67687 0.0
H114 H 0.9884 0.96617 0.69388 0.0
H115 H 0.99555 0.94449 0.64616 0.0
H116 H 0.96744 0.86495 0.59735 0.0
H117 H 0.89927 0.79507 0.58583 0.0
H118 H 0.86971 0.85865 0.50668 0.0
H119 H 0.93862 0.92917 0.51806 0.0
N120 N 0.00698 0.98673 0.55096 0.0
N121 N 0.02689 0.04615 0.58683 0.0
N122 N 0.98604 0.96479 0.59518 0.0
C123 C 0.02777 0.03374 0.5601 0.0
C124 C 0.00643 0.0116 0.60454 0.0
C125 C 0.98582 0.95213 0.56851 0.0
C126 C 0.0536 0.07048 0.54155 0.0
C127 C 0.08644 0.05196 0.52004 0.0
C128 C 0.11928 0.08673 0.50548 0.0
C129 C 0.11927 0.14042 0.51218 0.0
C130 C 0.08198 0.1592 0.532 0.0
C131 C 0.0499 0.12451 0.54672 0.0
C132 C 0.00486 0.02491 0.63368 0.0
C133 C 0.00841 0.07723 0.64292 0.0
C134 C 0.00388 0.0896 0.67032 0.0
C135 C 0.99662 0.04988 0.68907 0.0
C136 C 0.99446 0.99756 0.67992 0.0
C137 C 0.99817 0.98523 0.65253 0.0
C138 C 0.95709 0.90338 0.55888 0.0
C139 C 0.9476 0.8635 0.57724 0.0
C140 C 0.38045 0.69747 0.93794 0.0
C141 C 0.37185 0.70607 0.96549 0.0
C142 C 0.38443 0.66532 0.98348 0.0
C143 C 0.40512 0.61685 0.97395 0.0
H144 H 0.5483 0.49197 0.98397 0.0
H145 H 0.61381 0.42896 0.00611 0.0
H146 H 0.53859 0.30428 0.95664 0.0
H147 H 0.47425 0.36717 0.93415 0.0
H148 H 0.4483 0.40515 0.87022 0.0
H149 H 0.43847 0.38978 0.8216 0.0
H150 H 0.39785 0.55331 0.81041 0.0
H151 H 0.40768 0.56898 0.85882 0.0
H152 H 0.40581 0.6442 0.90699 0.0
H153 H 0.37028 0.72772 0.92349 0.0
H154 H 0.37824 0.67094 0.00484 0.0
H155 H 0.41399 0.58594 0.98818 0.0
N156 N 0.45764 0.52024 0.95131 0.0
N157 N 0.46333 0.46252 0.91402 0.0
N158 N 0.42133 0.54535 0.9087 0.0
C159 C 0.47381 0.47304 0.94068 0.0
C160 C 0.43726 0.4986 0.89786 0.0
C161 C 0.43084 0.55648 0.93533 0.0
C162 C 0.5066 0.43452 0.95716 0.0
C163 C 0.54506 0.45096 0.97821 0.0
C164 C 0.58242 0.41489 0.99094 0.0
C165 C 0.58165 0.36181 0.98292 0.0
C166 C 0.5408 0.34508 0.96294 0.0
C167 C 0.50389 0.38106 0.95012 0.0
C168 C 0.42892 0.48834 0.86849 0.0
C169 C 0.43708 0.43784 0.85743 0.0
C170 C 0.43117 0.42892 0.8296 0.0
C171 C 0.41762 0.47039 0.81223 0.0
C172 C 0.40895 0.52071 0.82328 0.0
C173 C 0.41424 0.52955 0.85108 0.0
C174 C 0.41257 0.60817 0.94624 0.0
C175 C 0.40038 0.64925 0.92844 0.0
C176 C 0.44471 0.34089 0.04466 0.0
C177 C 0.40522 0.36912 0.02822 0.0
C178 C 0.41816 0.421 0.02184 0.0
C179 C 0.46823 0.44503 0.03282 0.0
H180 H 0.59421 0.56375 0.02145 0.0
H181 H 0.64242 0.63928 0.00313 0.0
H182 H 0.77092 0.635 0.0687 0.0
H183 H 0.7219 0.56108 0.08742 0.0
H184 H 0.64927 0.52888 0.14472 0.0
H185 H 0.65621 0.51623 0.1933 0.0
H186 H 0.59437 0.358 0.18194 0.0
H187 H 0.58616 0.37069 0.1332 0.0
H188 H 0.52287 0.34308 0.06937 0.0
H189 H 0.4356 0.30097 0.05007 0.0
H190 H 0.3886 0.44346 0.00905 0.0
H191 H 0.47605 0.48571 0.02843 0.0
N192 N 0.58149 0.48545 0.05394 0.0
N193 N 0.63541 0.50021 0.0943 0.0
N194 N 0.56696 0.43277 0.0913 0.0
C195 C 0.62321 0.51261 0.06824 0.0
C196 C 0.60747 0.46046 0.106 0.0
C197 C 0.55372 0.44512 0.06531 0.0
C198 C 0.65381 0.55664 0.05607 0.0
C199 C 0.63283 0.57889 0.03191 0.0
C200 C 0.66064 0.62208 0.02133 0.0
C201 C 0.71027 0.64364 0.03457 0.0
C202 C 0.732 0.62034 0.05831 0.0
C203 C 0.704 0.57762 0.06899 0.0
C204 C 0.617 0.4508 0.1351 0.0
C205 C 0.63774 0.49115 0.15248 0.0
C206 C 0.64141 0.48411 0.18029 0.0
C207 C 0.62559 0.43627 0.19123 0.0
C208 C 0.60696 0.3952 0.17389 0.0
C209 C 0.60212 0.40256 0.14607 0.0
C210 C 0.50584 0.4177 0.05055 0.0
C211 C 0.49433 0.36509 0.05589 0.0
H212 H 0.18654 0.13499 0.99453 0.0
H213 H 0.04951 0.23666 0.02272 0.0
H214 H 0.11843 0.31103 0.02592 0.0
H215 H 0.29532 0.18411 0.03926 0.0
H216 H 0.35332 0.17808 0.01599 0.0
H217 H 0.29167 0.13525 0.01259 0.0
H218 H 0.27366 0.16432 0.9633 0.0
H219 H 0.33525 0.20749 0.96659 0.0
H220 H 0.2649 0.23294 0.95625 0.0
H221 H 0.20306 0.37236 0.02818 0.0
H222 H 0.29903 0.41449 0.03405 0.0
H223 H 0.38232 0.27148 0.00649 0.0
C224 C 0.17117 0.17328 1.0009 0.0
C225 C 0.11309 0.18098 0.00805 0.0
C226 C 0.09404 0.23076 0.01697 0.0
C227 C 0.13271 0.27301 0.0187 0.0
C228 C 0.1901 0.26432 0.01162 0.0
C229 C 0.20942 0.21556 0.00313 0.0
C230 C 0.27433 0.21537 0.99922 0.0
C231 C 0.30547 0.17588 0.01789 0.0
C232 C 0.28781 0.20439 0.96957 0.0
C233 C 0.28879 0.27127 0.00746 0.0
C234 C 0.2394 0.29916 0.01394 0.0
C235 C 0.24197 0.35109 0.02294 0.0
C236 C 0.2966 0.37478 0.02606 0.0
C237 C 0.3479 0.34627 0.02057 0.0
C238 C 0.3437 0.29416 0.01071 0.0
H239 H 0.12163 0.88931 0.0217 0.0
H240 H 0.19267 0.01177 0.97379 0.0
H241 H 0.27919 0.95679 0.96555 0.0
H242 H 0.26201 0.8351 0.04974 0.0
H243 H 0.23718 0.76846 0.0462 0.0
H244 H 0.18599 0.82056 0.05256 0.0
H245 H 0.12485 0.79243 0.00996 0.0
H246 H 0.17561 0.74029 0.00357 0.0
H247 H 0.15919 0.78776 0.97797 0.0
H248 H 0.35267 0.887 0.95907 0.0
H249 H 0.40415 0.8037 0.95073 0.0
H250 H 0.28295 0.72314 1.00013 0.0
C251 C 0.15636 0.90481 0.01014 0.0
C252 C 0.1515 0.95485 0.99871 0.0
C253 C 0.1963 0.97357 0.98284 0.0
C254 C 0.24561 0.94281 0.97823 0.0
C255 C 0.24896 0.89318 0.98936 0.0
C256 C 0.20535 0.87397 0.00478 0.0
C257 C 0.2161 0.81685 0.01129 0.0
C258 C 0.22591 0.80985 0.04176 0.0
C259 C 0.16598 0.78232 1.00001 0.0
C260 C 0.27159 0.80663 0.99647 0.0
C261 C 0.29042 0.85161 0.98454 0.0
C262 C 0.33867 0.8516 0.96848 0.0
C263 C 0.36745 0.80407 0.96375 0.0
C264 C 0.34744 0.75698 0.97471 0.0
C265 C 0.29985 0.75866 0.9919 0.0
H266 H 0.88776 0.91056 0.04624 0.0
H267 H 0.89248 0.90889 0.95896 0.0
H268 H 0.83404 0.82804 0.95697 0.0
H269 H 0.90147 0.77329 0.05463 0.0
H270 H 0.85258 0.7711 0.08208 0.0
H271 H 0.8931 0.82971 0.07654 0.0
H272 H 0.7973 0.88352 0.07373 0.0
H273 H 0.75647 0.82508 0.07937 0.0
H274 H 0.74006 0.86368 0.05005 0.0
H275 H 0.77826 0.74502 0.96477 0.0
H276 H 0.72843 0.66756 0.98174 0.0
H277 H 0.75766 0.72625 0.06369 0.0
C278 C 0.87632 0.8934 0.02667 0.0
C279 C 0.89476 0.91605 0.00276 0.0
C280 C 0.87877 0.8923 0.97757 0.0
C281 C 0.84561 0.84636 0.97622 0.0
C282 C 0.8285 0.82487 1.00022 0.0
C283 C 0.84307 0.8478 0.02495 0.0
C284 C 0.81988 0.81669 0.04777 0.0
C285 C 0.86974 0.7965 0.06634 0.0
C286 C 0.7758 0.84918 0.06366 0.0
C287 C 0.79056 0.77233 0.03205 0.0
C288 C 0.79589 0.77768 0.00465 0.0
C289 C 0.77337 0.74067 0.98618 0.0
C290 C 0.74486 0.69693 0.99601 0.0
C291 C 0.73906 0.69064 0.02407 0.0
C292 C 0.76195 0.72932 0.04216 0.0
H293 H 0.83397 0.14999 0.96921 0.0
H294 H 0.86426 0.16161 0.05585 0.0
H295 H 0.78215 0.22407 0.05892 0.0
H296 H 0.7989 0.28344 0.95886 0.0
H297 H 0.74355 0.2701 0.93309 0.0
H298 H 0.8032 0.22503 0.93805 0.0
H299 H 0.73058 0.1496 0.94458 0.0
H300 H 0.67063 0.19446 0.93964 0.0
H301 H 0.67661 0.15643 0.9698 0.0
H302 H 0.69927 0.28948 0.0519 0.0
H303 H 0.621 0.34919 0.03543 0.0
H304 H 0.64529 0.2923 0.95379 0.0
C305 C 0.82323 0.16539 0.98888 0.0
C306 C 0.85564 0.15098 0.01228 0.0
C307 C 0.84 0.17203 0.03762 0.0
C308 C 0.79345 0.20755 0.03958 0.0
C309 C 0.76271 0.22126 0.01604 0.0
C310 C 0.77681 0.2005 0.99121 0.0
C311 C 0.73767 0.22191 0.96889 0.0
C312 C 0.77295 0.25191 0.94853 0.0
C313 C 0.70174 0.17798 0.95491 0.0
C314 C 0.69972 0.25848 0.98495 0.0
C315 C 0.71469 0.25773 0.01212 0.0
C316 C 0.68685 0.28998 0.03069 0.0
C317 C 0.64264 0.32385 0.02118 0.0
C318 C 0.62659 0.32484 0.99341 0.0
C319 C 0.65561 0.29154 0.97522 0.0
H320 H 0.67381 0.59395 0.48396 0.0
H321 H 0.56507 0.62521 0.55212 0.0
H322 H 0.62658 0.69977 0.56595 0.0
H323 H 0.80714 0.62019 0.51848 0.0
H324 H 0.84099 0.65144 0.49092 0.0
H325 H 0.78531 0.60328 0.48421 0.0
H326 H 0.72578 0.67006 0.45575 0.0
H327 H 0.78147 0.71843 0.46228 0.0
H328 H 0.70736 0.7328 0.47044 0.0
H329 H 0.70159 0.76514 0.57492 0.0
H330 H 0.78837 0.82085 0.57846 0.0
H331 H 0.85146 0.75013 0.50493 0.0
C332 C 0.66252 0.61718 0.50148 0.0
C333 C 0.61466 0.60385 0.51696 0.0
C334 C 0.60165 0.63455 0.54002 0.0
C335 C 0.63614 0.67717 0.548 0.0
C336 C 0.68355 0.68872 0.53272 0.0
C337 C 0.69695 0.66001 0.50991 0.0
C338 C 0.75277 0.67948 0.49827 0.0
C339 C 0.79929 0.636 0.49796 0.0
C340 C 0.74113 0.70151 0.47001 0.0
C341 C 0.769 0.72266 0.51853 0.0
C342 C 0.72794 0.72729 0.53804 0.0
C343 C 0.73389 0.76234 0.55968 0.0
C344 C 0.78343 0.79348 0.56161 0.0
C345 C 0.82645 0.78935 0.54207 0.0
C346 C 0.81886 0.75405 0.52 0.0
H347 H 0.68273 0.37519 0.47809 0.0
H348 H 0.63304 0.3568 0.56075 0.0
H349 H 0.71591 0.29555 0.56826 0.0
H350 H 0.71998 0.24454 0.46546 0.0
H351 H 0.77982 0.25974 0.44462 0.0
H352 H 0.71967 0.30459 0.44696 0.0
H353 H 0.79059 0.37888 0.46206 0.0
H354 H 0.85109 0.3341 0.4599 0.0
H355 H 0.83919 0.36974 0.49088 0.0
H356 H 0.80142 0.23067 0.56503 0.0
H357 H 0.87966 0.16952 0.55141 0.0
H358 H 0.86977 0.23305 0.47103 0.0
C359 C 0.68931 0.35874 0.4979 0.0
C360 C 0.65132 0.37065 0.51882 0.0
C361 C 0.66171 0.34823 0.54442 0.0
C362 C 0.70869 0.31352 0.54887 0.0
C363 C 0.74498 0.30223 0.52759 0.0
C364 C 0.73573 0.32453 0.50267 0.0
C365 C 0.77879 0.3048 0.48263 0.0
C366 C 0.7477 0.27674 0.45851 0.0
C367 C 0.81719 0.34955 0.47333 0.0
C368 C 0.81324 0.2669 0.49991 0.0
C369 C 0.79367 0.26598 0.52585 0.0
C370 C 0.81742 0.23158 0.54485 0.0
C371 C 0.86164 0.19688 0.53693 0.0
C372 C 0.88146 0.19692 0.51026 0.0
C373 C 0.8571 0.23297 0.49179 0.0
H374 H 0.37213 0.34643 0.53033 0.0
H375 H 0.40076 0.33482 0.44457 0.0
H376 H 0.32141 0.26949 0.43956 0.0
H377 H 0.33962 0.21139 0.54061 0.0
H378 H 0.2855 0.22698 0.56484 0.0
H379 H 0.34586 0.2703 0.56105 0.0
H380 H 0.27401 0.34721 0.55226 0.0
H381 H 0.21336 0.30405 0.55567 0.0
H382 H 0.21936 0.34125 0.52546 0.0
H383 H 0.23597 0.2053 0.44488 0.0
H384 H 0.1556 0.14965 0.46001 0.0
H385 H 0.18616 0.2083 0.54173 0.0
C386 C 0.3624 0.32999 0.51043 0.0
C387 C 0.39282 0.34557 0.48784 0.0
C388 C 0.37816 0.32316 0.4622 0.0
C389 C 0.3331 0.28621 0.45917 0.0
C390 C 0.30334 0.27248 0.48196 0.0
C391 C 0.31781 0.2938 0.50707 0.0
C392 C 0.2792 0.27419 0.52848 0.0
C393 C 0.31467 0.2439 0.55 0.0
C394 C 0.24443 0.31937 0.5412 0.0
C395 C 0.24033 0.23832 0.51163 0.0
C396 C 0.2546 0.23739 0.48485 0.0
C397 C 0.22447 0.20595 0.4658 0.0
C398 C 0.17902 0.17453 0.47452 0.0
C399 C 0.16414 0.17538 0.50193 0.0
C400 C 0.19539 0.20781 0.52051 0.0
H401 H 0.34902 0.59976 0.51946 0.0
H402 H 0.37486 0.55244 0.4363 0.0
H403 H 0.29463 0.61022 0.42148 0.0
H404 H 0.18996 0.61248 0.51371 0.0
H405 H 0.18807 0.66978 0.53541 0.0
H406 H 0.24497 0.62167 0.54011 0.0
H407 H 0.3225 0.69373 0.53565 0.0
H408 H 0.2659 0.742 0.53094 0.0
H409 H 0.32055 0.73377 0.50614 0.0
H410 H 0.21675 0.67539 0.41502 0.0
H411 H 0.14628 0.74751 0.41687 0.0
H412 H 0.16783 0.75416 0.50414 0.0
C413 C 0.33724 0.60117 0.49819 0.0
C414 C 0.36813 0.5715 0.47904 0.0
C415 C 0.35199 0.57489 0.45134 0.0
C416 C 0.30626 0.60741 0.4427 0.0
C417 C 0.27706 0.63644 0.46198 0.0
C418 C 0.29177 0.63393 0.48913 0.0
C419 C 0.25504 0.67172 0.50532 0.0
C420 C 0.21726 0.64213 0.52479 0.0
C421 C 0.29329 0.71274 0.52039 0.0
C422 C 0.21821 0.6963 0.48292 0.0
C423 C 0.23143 0.67479 0.45817 0.0
C424 C 0.20524 0.69207 0.4343 0.0
C425 C 0.16474 0.73288 0.43563 0.0
C426 C 0.15044 0.75616 0.4607 0.0
C427 C 0.17748 0.73718 0.48468 0.0
H428 H 0.9763 0.99151 0.16435 0.0
H429 H 0.08341 0.12809 0.15337 0.0
H430 H 0.09282 0.14129 0.20265 0.0
H431 H 0.89949 0.04263 0.22155 0.0
H432 H 0.89858 0.98068 0.23829 0.0
H433 H 0.89942 0.98233 0.20209 0.0
H434 H 0.99176 0.9238 0.20274 0.0
H435 H 0.99122 0.92198 0.23894 0.0
H436 H 0.055 0.94411 0.22264 0.0
H437 H 0.09069 0.13989 0.25297 0.0
H438 H 0.08008 0.12201 0.30118 0.0
H439 H 0.97443 0.98632 0.27971 0.0
C440 C 0.00138 0.02438 0.17234 0.0
C441 C 0.02929 0.0587 0.15502 0.0
C442 C 0.06229 0.10093 0.16626 0.0
C443 C 0.06758 0.10895 0.19421 0.0
C444 C 0.03973 0.07435 0.21071 0.0
C445 C 0.00744 0.03279 0.20025 0.0
C446 C 0.98297 0.00074 0.2225 0.0
C447 C 0.91615 0.00167 0.22101 0.0
C448 C 0.00667 0.94432 0.22165 0.0
C449 C 0.00669 0.03073 0.24708 0.0
C450 C 0.039 0.07323 0.2398 0.0
C451 C 0.06535 0.10681 0.25894 0.0
C452 C 0.05879 0.09652 0.28626 0.0
C453 C 0.02634 0.05287 0.29424 0.0
C454 C -0.00011 0.01974 0.27427 0.0
H455 H 0.04167 0.01304 0.8478 0.0
H456 H 0.91026 0.13325 0.85856 0.0
H457 H 0.90214 0.14448 0.80923 0.0
H458 H 0.11234 0.07162 0.79212 0.0
H459 H 0.12476 0.00994 0.77499 0.0
H460 H 0.12147 0.01258 0.81115 0.0
H461 H 0.03999 0.94293 0.80897 0.0
H462 H 0.04311 0.94 0.77283 0.0
H463 H 0.9752 0.95433 0.78839 0.0
H464 H 0.90921 0.1431 0.75875 0.0
H465 H 0.92576 0.12477 0.71058 0.0
H466 H 0.05047 0.00365 0.73276 0.0
C467 C 0.01152 0.04197 0.83974 0.0
C468 C 0.97671 0.07246 0.85692 0.0
C469 C 0.93705 0.10933 0.84568 0.0
C470 C 0.9324 0.11617 0.81774 0.0
C471 C 0.96741 0.08552 0.80134 0.0
C472 C 0.00585 0.04884 0.81189 0.0
C473 C 0.03687 0.01953 0.78982 0.0
C474 C 0.10276 0.02901 0.79217 0.0
C475 C 0.02293 0.96072 0.79002 0.0
C476 C 0.00982 0.0454 0.76518 0.0
C477 C 0.97031 0.08374 0.77227 0.0
C478 C 0.94004 0.11316 0.75297 0.0
C479 C 0.94993 0.1027 0.72569 0.0
C480 C 0.98932 0.06282 0.71799 0.0
C481 C 0.01979 0.03411 0.73808 0.0
H482 H 0.48159 0.52853 0.65895 0.0
H483 H 0.37951 0.3913 0.63638 0.0
H484 H 0.3594 0.37771 0.68424 0.0
H485 H 0.54732 0.47737 0.71904 0.0
H486 H 0.54476 0.5386 0.73762 0.0
H487 H 0.54942 0.53845 0.70153 0.0
H488 H 0.45647 0.59598 0.69773 0.0
H489 H 0.45157 0.59639 0.73382 0.0
H490 H 0.39089 0.57433 0.71272 0.0
H491 H 0.35446 0.37674 0.73486 0.0
H492 H 0.361 0.39124 0.78426 0.0
H493 H 0.46555 0.52943 0.77347 0.0
C494 C 0.45499 0.49563 0.66409 0.0
C495 C 0.43204 0.46099 0.64395 0.0
C496 C 0.39694 0.4187 0.65145 0.0
C497 C 0.38556 0.41049 0.67858 0.0
C498 C 0.40929 0.44512 0.69794 0.0
C499 C 0.44291 0.48707 0.69102 0.0
C500 C 0.46345 0.51842 0.71569 0.0
C501 C 0.5302 0.51816 0.71864 0.0
C502 C 0.43912 0.5746 0.71494 0.0
C503 C 0.43659 0.48727 0.73759 0.0
C504 C 0.40566 0.44504 0.72698 0.0
C505 C 0.37828 0.40985 0.74339 0.0
C506 C 0.38247 0.41821 0.77139 0.0
C507 C 0.4135 0.46156 0.78264 0.0
C508 C 0.4408 0.4964 0.76542 0.0
H509 H 0.54084 0.50812 0.3417 0.0
H510 H 0.64746 0.37695 0.36805 0.0
H511 H 0.67238 0.35772 0.32082 0.0
H512 H 0.4842 0.45 0.28033 0.0
H513 H 0.48711 0.50944 0.26148 0.0
H514 H 0.47786 0.51269 0.29729 0.0
H515 H 0.56846 0.5721 0.30319 0.0
H516 H 0.57792 0.56913 0.26737 0.0
H517 H 0.63666 0.55011 0.29017 0.0
H518 H 0.6812 0.35026 0.27036 0.0
H519 H 0.67984 0.35975 0.22076 0.0
H520 H 0.57204 0.49867 0.22797 0.0
C521 C 0.56943 0.47539 0.33745 0.0
C522 C 0.59218 0.44385 0.35837 0.0
C523 C 0.62994 0.40168 0.35222 0.0
C524 C 0.64408 0.39037 0.3255 0.0
C525 C 0.62067 0.42208 0.30528 0.0
C526 C 0.58473 0.46412 0.31097 0.0
C527 C 0.5663 0.49274 0.28565 0.0
C528 C 0.49994 0.49109 0.28092 0.0
C529 C 0.58869 0.54937 0.28666 0.0
C530 C 0.59698 0.45994 0.26478 0.0
C531 C 0.62772 0.41907 0.27644 0.0
C532 C 0.65777 0.38241 0.26103 0.0
C533 C 0.65664 0.38794 0.23296 0.0
C534 C 0.62635 0.43016 0.22076 0.0
C535 C 0.59625 0.46651 0.23692 0.0
loop_
_geom_bond_atom_site_label_1
_geom_bond_atom_site_label_2
_geom_bond_distance
_geom_bond_site_symmetry_2
_ccdc_geom_bond_type
C0 O16 1.251 . S
C0 O18 1.254 1_554 S
N1 C2 1.333 1_445 S
N1 C6 1.307 . S
N1 Zn7 2.020 . S
C2 N1 1.333 1_665 S
C2 C3 1.379 . S
C2 H20 0.952 . S
C3 C2 1.379 . S
C3 C4 1.390 1_665 S
C3 H30 0.949 . S
C4 C3 1.390 1_445 S
C4 C5 1.357 . S
C5 C4 1.357 . S
C5 C6 1.370 . S
C5 H31 0.950 . S
C6 N1 1.307 . S
C6 C5 1.370 . S
C6 H24 0.948 . S
Zn7 N1 2.020 . S
Zn7 O16 2.039 1_445 S
Zn7 O22 2.034 1_455 S
Zn7 O26 2.025 . S
Zn7 O28 2.024 1_545 S
C8 O27 1.246 1_554 S
C8 O28 1.249 . S
N9 C10 1.307 1_445 S
N9 C11 1.333 . S
N9 Zn15 2.020 . S
C10 N9 1.307 1_665 S
C10 C14 1.370 . S
C10 H21 0.948 . S
C11 N9 1.333 . S
C11 C12 1.379 . S
C11 H19 0.952 . S
C12 C11 1.379 . S
C12 C13 1.390 . S
C12 H32 0.949 . S
C13 C12 1.390 . S
C13 C14 1.357 1_445 S
C14 C10 1.370 . S
C14 C13 1.357 1_665 S
C14 H33 0.950 . S
Zn15 N9 2.020 . S
Zn15 O18 2.025 1_445 S
Zn15 O23 2.024 1_455 S
Zn15 O25 2.039 . S
Zn15 O27 2.034 1_545 S
O16 C0 1.251 . S
O16 Zn7 2.039 1_665 S
C17 O22 1.246 . S
C17 O23 1.249 1_554 S
O18 C0 1.254 1_556 S
O18 Zn15 2.025 1_665 S
H19 C11 0.952 . S
H20 C2 0.952 . S
H21 C10 0.948 . S
O22 Zn7 2.034 1_655 S
O22 C17 1.246 . S
O23 Zn15 2.024 1_655 S
O23 C17 1.249 1_556 S
H24 C6 0.948 . S
O25 Zn15 2.039 . S
O25 C29 1.251 1_556 S
O26 Zn7 2.025 . S
O26 C29 1.254 . S
O27 C8 1.246 1_556 S
O27 Zn15 2.034 1_565 S
O28 Zn7 2.024 1_565 S
O28 C8 1.249 . S
C29 O25 1.251 1_554 S
C29 O26 1.254 . S
H30 C3 0.949 . S
H31 C5 0.950 . S
H32 C12 0.949 . S
H33 C14 0.950 . S
C34 O50 1.251 . S
C34 O52 1.254 . S
N35 C36 1.333 . S
N35 C40 1.307 . S
N35 Zn41 2.020 . S
C36 N35 1.333 . S
C36 C37 1.379 . S
C36 H54 0.952 . S
C37 C36 1.379 . S
C37 C38 1.390 . S
C37 H64 0.949 . S
C38 C37 1.390 . S
C38 C39 1.357 . S
C39 C38 1.357 . S
C39 C40 1.370 . S
C39 H65 0.950 . S
C40 N35 1.307 . S
C40 C39 1.370 . S
C40 H58 0.948 . S
Zn41 N35 2.020 . S
Zn41 O50 2.039 . S
Zn41 O56 2.034 . S
Zn41 O60 2.025 . S
Zn41 O62 2.024 . S
C42 O61 1.246 . S
C42 O62 1.249 . S
N43 C44 1.307 . S
N43 C45 1.333 . S
N43 Zn49 2.020 . S
C44 N43 1.307 . S
C44 C48 1.370 . S
C44 H55 0.948 . S
C45 N43 1.333 . S
C45 C46 1.379 . S
C45 H53 0.952 . S
C46 C45 1.379 . S
C46 C47 1.390 . S
C46 H66 0.949 . S
C47 C46 1.390 . S
C47 C48 1.357 . S
C48 C44 1.370 . S
C48 C47 1.357 . S
C48 H67 0.950 . S
Zn49 N43 2.020 . S
Zn49 O52 2.025 . S
Zn49 O57 2.024 . S
Zn49 O59 2.039 . S
Zn49 O61 2.034 . S
O50 C34 1.251 . S
O50 Zn41 2.039 . S
C51 O56 1.246 . S
C51 O57 1.249 . S
O52 C34 1.254 . S
O52 Zn49 2.025 . S
H53 C45 0.952 . S
H54 C36 0.952 . S
H55 C44 0.948 . S
O56 Zn41 2.034 . S
O56 C51 1.246 . S
O57 Zn49 2.024 . S
O57 C51 1.249 . S
H58 C40 0.948 . S
O59 Zn49 2.039 . S
O59 C63 1.251 . S
O60 Zn41 2.025 . S
O60 C63 1.254 . S
O61 C42 1.246 . S
O61 Zn49 2.034 . S
O62 Zn41 2.024 . S
O62 C42 1.249 . S
C63 O59 1.251 . S
C63 O60 1.254 . S
H64 C37 0.949 . S
H65 C39 0.950 . S
H66 C46 0.949 . S
H67 C48 0.950 . S
C68 C69 1.384 . S
C68 H81 0.947 . S
C68 C103 1.382 . S
C69 C68 1.384 . S
C69 C70 1.378 . S
C70 C69 1.378 . S
C70 C71 1.378 . S
C70 H82 0.952 . S
C71 C70 1.378 . S
C71 H83 0.950 . S
C71 C102 1.383 . S
H72 C91 0.947 . S
H73 C92 0.946 . S
H74 C94 0.953 . S
H75 C95 0.945 . S
H76 C97 0.952 . S
H77 C98 0.949 . S
H78 C100 0.950 . S
H79 C101 0.948 . S
H80 C103 0.951 . S
H81 C68 0.947 . S
H82 C70 0.952 . S
H83 C71 0.950 . S
N84 C87 1.382 1_545 S
N84 C89 1.363 1_455 S
N85 C87 1.371 . S
N85 C88 1.372 1_565 S
N86 C88 1.361 1_655 S
N86 C89 1.377 . S
C87 N84 1.382 1_565 S
C87 N85 1.371 . S
C87 C90 1.480 . S
C88 N85 1.372 1_545 S
C88 N86 1.361 1_455 S
C88 C96 1.457 . S
C89 N84 1.363 1_655 S
C89 N86 1.377 . S
C89 C102 1.479 . S
C90 C87 1.480 . S
C90 C91 1.383 . S
C90 C95 1.385 . S
C91 H72 0.947 . S
C91 C90 1.383 . S
C91 C92 1.388 . S
C92 H73 0.946 . S
C92 C91 1.388 . S
C92 C93 1.384 . S
C93 C92 1.384 . S
C93 C94 1.377 . S
C94 H74 0.953 . S
C94 C93 1.377 . S
C94 C95 1.369 . S
C95 H75 0.945 . S
C95 C90 1.385 . S
C95 C94 1.369 . S
C96 C88 1.457 . S
C96 C97 1.372 1_545 S
C96 C101 1.364 1_455 S
C97 H76 0.952 . S
C97 C96 1.372 1_565 S
C97 C98 1.389 . S
C98 H77 0.949 . S
C98 C97 1.389 . S
C98 C99 1.387 1_565 S
C99 C98 1.387 1_545 S
C99 C100 1.372 1_455 S
C100 H78 0.950 . S
C100 C99 1.372 1_655 S
C100 C101 1.379 . S
C101 H79 0.948 . S
C101 C96 1.364 1_655 S
C101 C100 1.379 . S
C102 C71 1.383 . S
C102 C89 1.479 . S
C102 C103 1.398 . S
C103 C68 1.382 . S
C103 H80 0.951 . S
C103 C102 1.398 . S
C104 C105 1.384 . S
C104 H117 0.947 . S
C104 C139 1.382 . S
C105 C104 1.384 . S
C105 C106 1.378 . S
C106 C105 1.378 . S
C106 C107 1.378 . S
C106 H118 0.952 . S
C107 C106 1.378 . S
C107 H119 0.950 . S
C107 C138 1.383 . S
H108 C127 0.947 . S
H109 C128 0.946 . S
H110 C130 0.953 . S
H111 C131 0.945 . S
H112 C133 0.952 . S
H113 C134 0.949 . S
H114 C136 0.950 . S
H115 C137 0.956 . S
H116 C139 0.951 . S
H117 C104 0.947 . S
H118 C106 0.952 . S
H119 C107 0.950 . S
N120 C123 1.371 1_565 S
N120 C125 1.375 1_455 S
N121 C123 1.371 . S
N121 C124 1.376 . S
N122 C124 1.357 1_665 S
N122 C125 1.377 . S
C123 N120 1.371 1_545 S
C123 N121 1.371 . S
C123 C126 1.480 . S
C124 N121 1.376 . S
C124 N122 1.357 1_445 S
C124 C132 1.457 . S
C125 N120 1.375 1_655 S
C125 N122 1.377 . S
C125 C138 1.479 . S
C126 C123 1.480 . S
C126 C127 1.383 . S
C126 C131 1.385 . S
C127 H108 0.947 . S
C127 C126 1.383 . S
C127 C128 1.388 . S
C128 H109 0.946 . S
C128 C127 1.388 . S
C128 C129 1.384 . S
C129 C128 1.384 . S
C129 C130 1.377 . S
C130 H110 0.953 . S
C130 C129 1.377 . S
C130 C131 1.369 . S
C131 H111 0.945 . S
C131 C126 1.385 . S
C131 C130 1.369 . S
C132 C124 1.457 . S
C132 C133 1.373 . S
C132 C137 1.354 1_445 S
C133 H112 0.952 . S
C133 C132 1.373 . S
C133 C134 1.389 . S
C134 H113 0.949 . S
C134 C133 1.389 . S
C134 C135 1.387 . S
C135 C134 1.387 . S
C135 C136 1.372 1_445 S
C136 H114 0.950 . S
C136 C135 1.372 1_665 S
C136 C137 1.380 . S
C137 H115 0.956 . S
C137 C132 1.354 1_665 S
C137 C136 1.380 . S
C138 C107 1.383 . S
C138 C125 1.479 . S
C138 C139 1.398 . S
C139 C104 1.382 . S
C139 H116 0.951 . S
C139 C138 1.398 . S
C140 C141 1.384 . S
C140 H153 0.947 . S
C140 C175 1.382 . S
C141 C140 1.384 . S
C141 C142 1.378 1_556 S
C142 C141 1.378 1_554 S
C142 C143 1.378 1_554 S
C142 H154 0.952 . S
C143 C142 1.378 1_556 S
C143 H155 0.950 1_556 S
C143 C174 1.383 . S
H144 C163 0.925 1_554 S
H145 C164 0.946 . S
H146 C166 0.953 . S
H147 C167 0.945 . S
H148 C169 0.952 . S
H149 C170 0.949 . S
H150 C172 0.950 . S
H151 C173 0.948 . S
H152 C175 0.951 . S
H153 C140 0.947 . S
H154 C142 0.952 . S
H155 C143 0.950 1_554 S
N156 C159 1.382 . S
N156 C161 1.363 . S
N157 C159 1.371 . S
N157 C160 1.372 . S
N158 C160 1.361 . S
N158 C161 1.377 . S
C159 N156 1.382 . S
C159 N157 1.371 . S
C159 C162 1.480 . S
C160 N157 1.372 . S
C160 N158 1.361 . S
C160 C168 1.457 . S
C161 N156 1.363 . S
C161 N158 1.377 . S
C161 C174 1.479 . S
C162 C159 1.480 . S
C162 C163 1.383 . S
C162 C167 1.385 . S
C163 H144 0.925 1_556 S
C163 C162 1.383 . S
C163 C164 1.388 1_556 S
C164 H145 0.946 . S
C164 C163 1.388 1_554 S
C164 C165 1.384 1_554 S
C165 C164 1.384 1_556 S
C165 C166 1.377 . S
C166 H146 0.953 . S
C166 C165 1.377 . S
C166 C167 1.369 . S
C167 H147 0.945 . S
C167 C162 1.385 . S
C167 C166 1.369 . S
C168 C160 1.457 . S
C168 C169 1.372 . S
C168 C173 1.364 . S
C169 H148 0.952 . S
C169 C168 1.372 . S
C169 C170 1.389 . S
C170 H149 0.949 . S
C170 C169 1.389 . S
C170 C171 1.387 . S
C171 C170 1.387 . S
C171 C172 1.372 . S
C172 H150 0.950 . S
C172 C171 1.372 . S
C172 C173 1.379 . S
C173 H151 0.948 . S
C173 C168 1.364 . S
C173 C172 1.379 . S
C174 C143 1.383 . S
C174 C161 1.479 . S
C174 C175 1.398 . S
C175 C140 1.382 . S
C175 H152 0.951 . S
C175 C174 1.398 . S
C176 C177 1.384 . S
C176 H189 0.947 . S
C176 C211 1.382 . S
C177 C176 1.384 . S
C177 C178 1.378 1_554 S
C178 C177 1.378 1_556 S
C178 C179 1.378 1_556 S
C178 H190 0.952 . S
C179 C178 1.378 1_554 S
C179 H191 0.950 . S
C179 C210 1.383 . S
H180 C199 0.947 . S
H181 C200 0.946 1_556 S
H182 C202 0.953 . S
H183 C203 0.945 . S
H184 C205 0.952 . S
H185 C206 0.949 . S
H186 C208 0.950 . S
H187 C209 0.948 . S
H188 C211 0.951 . S
H189 C176 0.947 . S
H190 C178 0.952 . S
H191 C179 0.950 . S
N192 C195 1.382 . S
N192 C197 1.363 . S
N193 C195 1.371 . S
N193 C196 1.372 . S
N194 C196 1.361 . S
N194 C197 1.377 . S
C195 N192 1.382 . S
C195 N193 1.371 . S
C195 C198 1.480 . S
C196 N193 1.372 . S
C196 N194 1.361 . S
C196 C204 1.457 . S
C197 N192 1.363 . S
C197 N194 1.377 . S
C197 C210 1.479 . S
C198 C195 1.480 . S
C198 C199 1.383 . S
C198 C203 1.385 . S
C199 H180 0.947 . S
C199 C198 1.383 . S
C199 C200 1.388 . S
C200 H181 0.946 1_554 S
C200 C199 1.388 . S
C200 C201 1.384 . S
C201 C200 1.384 . S
C201 C202 1.377 . S
C202 H182 0.953 . S
C202 C201 1.377 . S
C202 C203 1.369 . S
C203 H183 0.945 . S
C203 C198 1.385 . S
C203 C202 1.369 . S
C204 C196 1.457 . S
C204 C205 1.372 . S
C204 C209 1.364 . S
C205 H184 0.952 . S
C205 C204 1.372 . S
C205 C206 1.389 . S
C206 H185 0.949 . S
C206 C205 1.389 . S
C206 C207 1.387 . S
C207 C206 1.387 . S
C207 C208 1.372 . S
C208 H186 0.950 . S
C208 C207 1.372 . S
C208 C209 1.379 . S
C209 H187 0.948 . S
C209 C204 1.364 . S
C209 C208 1.379 . S
C210 C179 1.383 . S
C210 C197 1.479 . S
C210 C211 1.398 . S
C211 C176 1.382 . S
C211 H188 0.951 . S
C211 C210 1.398 . S
H212 C224 0.930 . S
H213 C226 0.930 . S
H214 C227 0.930 . S
H215 C231 0.959 . S
H216 C231 0.959 . S
H217 C231 0.961 . S
H218 C232 0.960 . S
H219 C232 0.961 . S
H220 C232 0.959 . S
H221 C235 0.929 . S
H222 C236 0.931 . S
H223 C238 0.930 . S
C224 H212 0.930 . S
C224 C225 1.399 1_556 S
C224 C229 1.399 . S
C225 C224 1.399 1_554 S
C225 C226 1.376 . S
C226 H213 0.930 . S
C226 C225 1.376 . S
C226 C227 1.388 . S
C227 H214 0.930 . S
C227 C226 1.388 . S
C227 C228 1.390 . S
C228 C227 1.390 . S
C228 C229 1.394 1_554 S
C228 C234 1.465 . S
C229 C224 1.399 . S
C229 C228 1.394 1_556 S
C229 C230 1.516 . S
C230 C229 1.516 . S
C230 C231 1.502 . S
C230 C232 1.561 . S
C230 C233 1.526 . S
C231 H215 0.959 . S
C231 H216 0.959 . S
C231 H217 0.961 . S
C231 C230 1.502 . S
C232 H218 0.960 . S
C232 H219 0.961 . S
C232 H220 0.959 . S
C232 C230 1.561 . S
C233 C230 1.526 . S
C233 C234 1.396 1_556 S
C233 C238 1.390 . S
C234 C228 1.465 . S
C234 C233 1.396 1_554 S
C234 C235 1.399 . S
C235 H221 0.929 . S
C235 C234 1.399 . S
C235 C236 1.385 . S
C236 H222 0.931 . S
C236 C235 1.385 . S
C236 C237 1.389 . S
C237 C236 1.389 . S
C237 C238 1.387 1_554 S
C238 H223 0.930 . S
C238 C233 1.390 . S
C238 C237 1.387 1_556 S
H239 C251 0.930 . S
H240 C253 0.930 . S
H241 C254 0.930 . S
H242 C258 0.959 . S
H243 C258 0.959 . S
H244 C258 0.961 . S
H245 C259 0.960 . S
H246 C259 0.961 . S
H247 C259 0.959 . S
H248 C262 0.929 . S
H249 C263 0.931 . S
H250 C265 0.930 . S
C251 H239 0.930 . S
C251 C252 1.376 1_554 S
C251 C256 1.399 . S
C252 C251 1.376 1_556 S
C252 C253 1.408 . S
C253 H240 0.930 . S
C253 C252 1.408 . S
C253 C254 1.388 . S
C254 H241 0.930 . S
C254 C253 1.388 . S
C254 C255 1.390 . S
C255 C254 1.390 . S
C255 C256 1.394 1_556 S
C255 C261 1.465 . S
C256 C251 1.399 . S
C256 C255 1.394 1_554 S
C256 C257 1.516 . S
C257 C256 1.516 . S
C257 C258 1.502 . S
C257 C259 1.561 . S
C257 C260 1.526 . S
C258 H242 0.959 . S
C258 H243 0.959 . S
C258 H244 0.961 . S
C258 C257 1.502 . S
C259 H245 0.960 . S
C259 H246 0.961 . S
C259 H247 0.959 . S
C259 C257 1.561 . S
C260 C257 1.526 . S
C260 C261 1.396 1_554 S
C260 C265 1.390 . S
C261 C255 1.465 . S
C261 C260 1.396 1_556 S
C261 C262 1.399 . S
C262 H248 0.929 . S
C262 C261 1.399 . S
C262 C263 1.385 . S
C263 H249 0.931 . S
C263 C262 1.385 . S
C263 C264 1.389 . S
C264 C263 1.389 . S
C264 C265 1.387 1_556 S
C265 H250 0.930 . S
C265 C260 1.390 . S
C265 C264 1.387 1_554 S
H266 C278 0.930 . S
H267 C280 0.930 . S
H268 C281 0.930 . S
H269 C285 0.959 . S
H270 C285 0.959 . S
H271 C285 0.961 . S
H272 C286 0.960 . S
H273 C286 0.961 . S
H274 C286 0.959 . S
H275 C289 0.929 . S
H276 C290 0.931 . S
H277 C292 0.930 . S
C278 H266 0.930 . S
C278 C279 1.399 . S
C278 C283 1.399 . S
C279 C278 1.399 . S
C279 C280 1.376 1_554 S
C280 H267 0.930 . S
C280 C279 1.376 1_556 S
C280 C281 1.388 . S
C281 H268 0.930 . S
C281 C280 1.388 . S
C281 C282 1.390 . S
C282 C281 1.390 . S
C282 C283 1.394 1_556 S
C282 C288 1.465 . S
C283 C278 1.399 . S
C283 C282 1.394 1_554 S
C283 C284 1.516 . S
C284 C283 1.516 . S
C284 C285 1.502 . S
C284 C286 1.561 . S
C284 C287 1.526 . S
C285 H269 0.959 . S
C285 H270 0.959 . S
C285 H271 0.961 . S
C285 C284 1.502 . S
C286 H272 0.960 . S
C286 H273 0.961 . S
C286 H274 0.959 . S
C286 C284 1.561 . S
C287 C284 1.526 . S
C287 C288 1.396 1_554 S
C287 C292 1.390 . S
C288 C282 1.465 . S
C288 C287 1.396 1_556 S
C288 C289 1.399 . S
C289 H275 0.929 . S
C289 C288 1.399 . S
C289 C290 1.385 . S
C290 H276 0.931 . S
C290 C289 1.385 . S
C290 C291 1.389 1_556 S
C291 C290 1.389 1_554 S
C291 C292 1.387 . S
C292 H277 0.930 . S
C292 C287 1.390 . S
C292 C291 1.387 . S
H293 C305 0.930 . S
H294 C307 0.930 . S
H295 C308 0.930 . S
H296 C312 0.959 1_554 S
H297 C312 0.959 . S
H298 C312 0.961 . S
H299 C313 0.960 . S
H300 C313 0.961 . S
H301 C313 0.959 . S
H302 C316 0.929 . S
H303 C317 0.931 . S
H304 C319 0.930 . S
C305 H293 0.930 . S
C305 C306 1.399 1_556 S
C305 C310 1.399 . S
C306 C305 1.399 1_554 S
C306 C307 1.376 . S
C307 H294 0.930 . S
C307 C306 1.376 . S
C307 C308 1.388 . S
C308 H295 0.930 . S
C308 C307 1.388 . S
C308 C309 1.390 . S
C309 C308 1.390 . S
C309 C310 1.394 1_554 S
C309 C315 1.465 . S
C310 C305 1.399 . S
C310 C309 1.394 1_556 S
C310 C311 1.516 . S
C311 C310 1.516 . S
C311 C312 1.502 . S
C311 C313 1.561 . S
C311 C314 1.526 . S
C312 H296 0.959 1_556 S
C312 H297 0.959 . S
C312 H298 0.961 . S
C312 C311 1.502 . S
C313 H299 0.960 . S
C313 H300 0.961 . S
C313 H301 0.959 . S
C313 C311 1.561 . S
C314 C311 1.526 . S
C314 C315 1.396 1_556 S
C314 C319 1.390 . S
C315 C309 1.465 . S
C315 C314 1.396 1_554 S
C315 C316 1.399 . S
C316 H302 0.929 . S
C316 C315 1.399 . S
C316 C317 1.385 . S
C317 H303 0.931 . S
C317 C316 1.385 . S
C317 C318 1.407 . S
C318 C317 1.407 . S
C318 C319 1.372 1_554 S
C319 H304 0.930 . S
C319 C314 1.390 . S
C319 C318 1.372 1_556 S
H320 C332 0.930 . S
H321 C334 0.930 . S
H322 C335 0.930 . S
H323 C339 0.959 . S
H324 C339 0.959 . S
H325 C339 0.961 . S
H326 C340 0.960 . S
H327 C340 0.961 . S
H328 C340 0.959 . S
H329 C343 0.929 . S
H330 C344 0.931 . S
H331 C346 0.930 . S
C332 H320 0.930 . S
C332 C333 1.399 . S
C332 C337 1.399 . S
C333 C332 1.399 . S
C333 C334 1.376 . S
C334 H321 0.930 . S
C334 C333 1.376 . S
C334 C335 1.388 . S
C335 H322 0.930 . S
C335 C334 1.388 . S
C335 C336 1.390 . S
C336 C335 1.390 . S
C336 C337 1.394 . S
C336 C342 1.465 . S
C337 C332 1.399 . S
C337 C336 1.394 . S
C337 C338 1.516 . S
C338 C337 1.516 . S
C338 C339 1.502 . S
C338 C340 1.561 . S
C338 C341 1.526 . S
C339 H323 0.959 . S
C339 H324 0.959 . S
C339 H325 0.961 . S
C339 C338 1.502 . S
C340 H326 0.960 . S
C340 H327 0.961 . S
C340 H328 0.959 . S
C340 C338 1.561 . S
C341 C338 1.526 . S
C341 C342 1.396 . S
C341 C346 1.390 . S
C342 C336 1.465 . S
C342 C341 1.396 . S
C342 C343 1.399 . S
C343 H329 0.929 . S
C343 C342 1.399 . S
C343 C344 1.385 . S
C344 H330 0.931 . S
C344 C343 1.385 . S
C344 C345 1.389 . S
C345 C344 1.389 . S
C345 C346 1.387 . S
C346 H331 0.930 . S
C346 C341 1.390 . S
C346 C345 1.387 . S
H347 C359 0.930 . S
H348 C361 0.930 . S
H349 C362 0.930 . S
H350 C366 0.959 . S
H351 C366 0.959 . S
H352 C366 0.961 . S
H353 C367 0.960 . S
H354 C367 0.961 . S
H355 C367 0.959 . S
H356 C370 0.929 . S
H357 C371 0.931 . S
H358 C373 0.930 . S
C359 H347 0.930 . S
C359 C360 1.399 . S
C359 C364 1.399 . S
C360 C359 1.399 . S
C360 C361 1.376 . S
C361 H348 0.930 . S
C361 C360 1.376 . S
C361 C362 1.388 . S
C362 H349 0.930 . S
C362 C361 1.388 . S
C362 C363 1.390 . S
C363 C362 1.390 . S
C363 C364 1.394 . S
C363 C369 1.465 . S
C364 C359 1.399 . S
C364 C363 1.394 . S
C364 C365 1.516 . S
C365 C364 1.516 . S
C365 C366 1.502 . S
C365 C367 1.561 . S
C365 C368 1.526 . S
C366 H350 0.959 . S
C366 H351 0.959 . S
C366 H352 0.961 . S
C366 C365 1.502 . S
C367 H353 0.960 . S
C367 H354 0.961 . S
C367 H355 0.959 . S
C367 C365 1.561 . S
C368 C365 1.526 . S
C368 C369 1.396 . S
C368 C373 1.390 . S
C369 C363 1.465 . S
C369 C368 1.396 . S
C369 C370 1.399 . S
C370 H356 0.929 . S
C370 C369 1.399 . S
C370 C371 1.385 . S
C371 H357 0.931 . S
C371 C370 1.385 . S
C371 C372 1.389 . S
C372 C371 1.389 . S
C372 C373 1.387 . S
C373 H358 0.930 . S
C373 C368 1.390 . S
C373 C372 1.387 . S
H374 C386 0.930 . S
H375 C388 0.930 . S
H376 C389 0.930 . S
H377 C393 0.959 . S
H378 C393 0.959 . S
H379 C393 0.961 . S
H380 C394 0.960 . S
H381 C394 0.961 . S
H382 C394 0.959 . S
H383 C397 0.929 . S
H384 C398 0.931 . S
H385 C400 0.930 . S
C386 H374 0.930 . S
C386 C387 1.399 . S
C386 C391 1.399 . S
C387 C386 1.399 . S
C387 C388 1.376 . S
C388 H375 0.930 . S
C388 C387 1.376 . S
C388 C389 1.388 . S
C389 H376 0.930 . S
C389 C388 1.388 . S
C389 C390 1.390 . S
C390 C389 1.390 . S
C390 C391 1.394 . S
C390 C396 1.465 . S
C391 C386 1.399 . S
C391 C390 1.394 . S
C391 C392 1.516 . S
C392 C391 1.516 . S
C392 C393 1.502 . S
C392 C394 1.561 . S
C392 C395 1.526 . S
C393 H377 0.959 . S
C393 H378 0.959 . S
C393 H379 0.961 . S
C393 C392 1.502 . S
C394 H380 0.960 . S
C394 H381 0.961 . S
C394 H382 0.959 . S
C394 C392 1.561 . S
C395 C392 1.526 . S
C395 C396 1.396 . S
C395 C400 1.390 . S
C396 C390 1.465 . S
C396 C395 1.396 . S
C396 C397 1.399 . S
C397 H383 0.929 . S
C397 C396 1.399 . S
C397 C398 1.385 . S
C398 H384 0.931 . S
C398 C397 1.385 . S
C398 C399 1.389 . S
C399 C398 1.389 . S
C399 C400 1.387 . S
C400 H385 0.930 . S
C400 C395 1.390 . S
C400 C399 1.387 . S
H401 C413 0.930 . S
H402 C415 0.930 . S
H403 C416 0.930 . S
H404 C420 0.959 . S
H405 C420 0.959 . S
H406 C420 0.961 . S
H407 C421 0.960 . S
H408 C421 0.961 . S
H409 C421 0.959 . S
H410 C424 0.929 . S
H411 C425 0.931 . S
H412 C427 0.930 . S
C413 H401 0.930 . S
C413 C414 1.399 . S
C413 C418 1.399 . S
C414 C413 1.399 . S
C414 C415 1.376 . S
C415 H402 0.930 . S
C415 C414 1.376 . S
C415 C416 1.388 . S
C416 H403 0.930 . S
C416 C415 1.388 . S
C416 C417 1.390 . S
C417 C416 1.390 . S
C417 C418 1.394 . S
C417 C423 1.465 . S
C418 C413 1.399 . S
C418 C417 1.394 . S
C418 C419 1.516 . S
C419 C418 1.516 . S
C419 C420 1.502 . S
C419 C421 1.561 . S
C419 C422 1.526 . S
C420 H404 0.959 . S
C420 H405 0.959 . S
C420 H406 0.961 . S
C420 C419 1.502 . S
C421 H407 0.960 . S
C421 H408 0.961 . S
C421 H409 0.959 . S
C421 C419 1.561 . S
C422 C419 1.526 . S
C422 C423 1.396 . S
C422 C427 1.390 . S
C423 C417 1.465 . S
C423 C422 1.396 . S
C423 C424 1.399 . S
C424 H410 0.929 . S
C424 C423 1.399 . S
C424 C425 1.385 . S
C425 H411 0.931 . S
C425 C424 1.385 . S
C425 C426 1.389 . S
C426 C425 1.389 . S
C426 C427 1.387 . S
C427 H412 0.930 . S
C427 C422 1.390 . S
C427 C426 1.387 . S
H428 C440 0.930 . S
H429 C442 0.930 . S
H430 C443 0.930 . S
H431 C447 0.959 . S
H432 C447 0.959 . S
H433 C447 0.961 . S
H434 C448 0.960 . S
H435 C448 0.961 . S
H436 C448 0.959 . S
H437 C451 0.929 . S
H438 C452 0.931 . S
H439 C454 0.930 . S
C440 H428 0.930 . S
C440 C441 1.399 1_665 S
C440 C445 1.399 . S
C441 C440 1.399 1_445 S
C441 C442 1.376 . S
C442 H429 0.930 . S
C442 C441 1.376 . S
C442 C443 1.388 . S
C443 H430 0.930 . S
C443 C442 1.388 . S
C443 C444 1.390 . S
C444 C443 1.390 . S
C444 C445 1.394 1_445 S
C444 C450 1.465 . S
C445 C440 1.399 . S
C445 C444 1.394 1_665 S
C445 C446 1.516 . S
C446 C445 1.516 . S
C446 C447 1.502 . S
C446 C448 1.561 1_655 S
C446 C449 1.526 . S
C447 H431 0.959 . S
C447 H432 0.959 . S
C447 H433 0.961 . S
C447 C446 1.502 . S
C448 H434 0.960 . S
C448 H435 0.961 . S
C448 H436 0.959 . S
C448 C446 1.561 1_455 S
C449 C446 1.526 . S
C449 C450 1.396 1_665 S
C449 C454 1.390 . S
C450 C444 1.465 . S
C450 C449 1.396 1_445 S
C450 C451 1.399 . S
C451 H437 0.929 . S
C451 C450 1.399 . S
C451 C452 1.385 . S
C452 H438 0.931 . S
C452 C451 1.385 . S
C452 C453 1.389 . S
C453 C452 1.389 . S
C453 C454 1.387 1_445 S
C454 H439 0.930 . S
C454 C449 1.390 . S
C454 C453 1.387 1_665 S
H455 C467 0.930 . S
H456 C469 0.929 1_655 S
H457 C470 0.930 . S
H458 C474 0.959 . S
H459 C474 0.959 . S
H460 C474 0.961 . S
H461 C475 0.960 . S
H462 C475 0.961 . S
H463 C475 0.959 . S
H464 C478 0.929 1_655 S
H465 C479 0.931 . S
H466 C481 0.930 . S
C467 H455 0.930 . S
C467 C468 1.399 1_565 S
C467 C472 1.399 . S
C468 C467 1.399 1_545 S
C468 C469 1.378 . S
C469 H456 0.929 1_455 S
C469 C468 1.378 . S
C469 C470 1.388 1_455 S
C470 H457 0.930 . S
C470 C469 1.388 1_655 S
C470 C471 1.390 1_655 S
C471 C470 1.390 1_455 S
C471 C472 1.394 1_545 S
C471 C477 1.465 . S
C472 C467 1.399 . S
C472 C471 1.394 1_565 S
C472 C473 1.516 . S
C473 C472 1.516 . S
C473 C474 1.502 . S
C473 C475 1.561 1_455 S
C473 C476 1.526 . S
C474 H458 0.959 . S
C474 H459 0.959 . S
C474 H460 0.961 . S
C474 C473 1.502 . S
C475 H461 0.960 . S
C475 H462 0.961 . S
C475 H463 0.959 . S
C475 C473 1.561 1_655 S
C476 C473 1.526 . S
C476 C477 1.396 1_565 S
C476 C481 1.390 . S
C477 C471 1.465 . S
C477 C476 1.396 1_545 S
C477 C478 1.399 . S
C478 H464 0.929 1_455 S
C478 C477 1.399 . S
C478 C479 1.385 . S
C479 H465 0.931 . S
C479 C478 1.385 . S
C479 C480 1.389 . S
C480 C479 1.389 . S
C480 C481 1.387 1_545 S
C481 H466 0.930 . S
C481 C476 1.390 . S
C481 C480 1.387 1_565 S
H482 C494 0.930 . S
H483 C496 0.930 . S
H484 C497 0.930 . S
H485 C501 0.959 . S
H486 C501 0.959 . S
H487 C501 0.961 . S
H488 C502 0.960 . S
H489 C502 0.961 . S
H490 C502 0.959 . S
H491 C505 0.929 . S
H492 C506 0.931 . S
H493 C508 0.930 . S
C494 H482 0.930 . S
C494 C495 1.399 . S
C494 C499 1.399 . S
C495 C494 1.399 . S
C495 C496 1.376 . S
C496 H483 0.930 . S
C496 C495 1.376 . S
C496 C497 1.388 . S
C497 H484 0.930 . S
C497 C496 1.388 . S
C497 C498 1.390 . S
C498 C497 1.390 . S
C498 C499 1.394 . S
C498 C504 1.465 . S
C499 C494 1.399 . S
C499 C498 1.394 . S
C499 C500 1.516 . S
C500 C499 1.516 . S
C500 C501 1.502 . S
C500 C502 1.561 . S
C500 C503 1.526 . S
C501 H485 0.959 . S
C501 H486 0.959 . S
C501 H487 0.961 . S
C501 C500 1.502 . S
C502 H488 0.960 . S
C502 H489 0.961 . S
C502 H490 0.959 . S
C502 C500 1.561 . S
C503 C500 1.526 . S
C503 C504 1.396 . S
C503 C508 1.390 . S
C504 C498 1.465 . S
C504 C503 1.396 . S
C504 C505 1.399 . S
C505 H491 0.929 . S
C505 C504 1.399 . S
C505 C506 1.385 . S
C506 H492 0.931 . S
C506 C505 1.385 . S
C506 C507 1.389 . S
C507 C506 1.389 . S
C507 C508 1.387 . S
C508 H493 0.930 . S
C508 C503 1.390 . S
C508 C507 1.387 . S
H509 C521 0.930 . S
H510 C523 0.930 . S
H511 C524 0.930 . S
H512 C528 0.959 . S
H513 C528 0.959 . S
H514 C528 0.961 . S
H515 C529 0.960 . S
H516 C529 0.961 . S
H517 C529 0.959 . S
H518 C532 0.929 . S
H519 C533 0.931 . S
H520 C535 0.930 . S
C521 H509 0.930 . S
C521 C522 1.399 . S
C521 C526 1.399 . S
C522 C521 1.399 . S
C522 C523 1.376 . S
C523 H510 0.930 . S
C523 C522 1.376 . S
C523 C524 1.388 . S
C524 H511 0.930 . S
C524 C523 1.388 . S
C524 C525 1.390 . S
C525 C524 1.390 . S
C525 C526 1.394 . S
C525 C531 1.465 . S
C526 C521 1.399 . S
C526 C525 1.394 . S
C526 C527 1.516 . S
C527 C526 1.516 . S
C527 C528 1.502 . S
C527 C529 1.561 . S
C527 C530 1.526 . S
C528 H512 0.959 . S
C528 H513 0.959 . S
C528 H514 0.961 . S
C528 C527 1.502 . S
C529 H515 0.960 . S
C529 H516 0.961 . S
C529 H517 0.959 . S
C529 C527 1.561 . S
C530 C527 1.526 . S
C530 C531 1.396 . S
C530 C535 1.390 . S
C531 C525 1.465 . S
C531 C530 1.396 . S
C531 C532 1.399 . S
C532 H518 0.929 . S
C532 C531 1.399 . S
C532 C533 1.385 . S
C533 H519 0.931 . S
C533 C532 1.385 . S
C533 C534 1.389 . S
C534 C533 1.389 . S
C534 C535 1.387 . S
C535 H520 0.930 . S
C535 C530 1.390 . S
C535 C534 1.387 . S
C237 C177 1.427 . S
C225 C29 1.494 . S
C252 C8 1.475 1_556 S
C264 C141 1.410 . S
C279 C0 1.467 . S
C291 C201 1.450 . S
C306 C17 1.473 . S
C318 C165 1.433 1_554 S
C333 C63 1.494 . S
C345 C105 1.431 . S
C360 C42 1.472 . S
C372 C69 1.467 . S
C399 C129 1.449 . S
C387 C34 1.467 . S
C426 C93 1.378 . S
C414 C51 1.488 . S
C441 C4 1.471 . S
C453 C99 1.463 . S
C468 C13 1.479 . S
C480 C135 1.486 . S
C507 C171 1.486 . S
C495 C38 1.485 . S
C522 C47 1.476 . S
C534 C207 1.465 . S
