# Generated by pormake.
# Topology pyr, (3,6)-cn, num edge types: 1
# Building blocks:
#     Node 0, Type 0, BuildingBlock: MIDCAF_clean_linker_0, # of connection points: 3
#     Node 1, Type 0, BuildingBlock: MIDCAF_clean_linker_0, # of connection points: 3
#     Node 2, Type 0, BuildingBlock: MIDCAF_clean_linker_0, # of connection points: 3
#     Node 3, Type 0, BuildingBlock: MIDCAF_clean_linker_0, # of connection points: 3
#     Node 4, Type 0, BuildingBlock: MIDCAF_clean_linker_0, # of connection points: 3
#     Node 5, Type 0, BuildingBlock: MIDCAF_clean_linker_0, # of connection points: 3
#     Node 6, Type 0, BuildingBlock: MIDCAF_clean_linker_0, # of connection points: 3
#     Node 7, Type 0, BuildingBlock: MIDCAF_clean_linker_0, # of connection points: 3
#     Node 8, Type 1, BuildingBlock: PAMTUU_clean_sbu_0, # of connection points: 6
#     Node 9, Type 1, BuildingBlock: PAMTUU_clean_sbu_0, # of connection points: 6
#     Node 10, Type 1, BuildingBlock: PAMTUU_clean_sbu_0, # of connection points: 6
#     Node 11, Type 1, BuildingBlock: PAMTUU_clean_sbu_0, # of connection points: 6
#     Edge 12, Type (0, 1), BuildingBlock: ZUJKAS_clean_linker_0, # of connection points: 2
#     Edge 13, Type (0, 1), BuildingBlock: ZUJKAS_clean_linker_0, # of connection points: 2
#     Edge 14, Type (0, 1), BuildingBlock: ZUJKAS_clean_linker_0, # of connection points: 2
#     Edge 15, Type (0, 1), BuildingBlock: ZUJKAS_clean_linker_0, # of connection points: 2
#     Edge 16, Type (0, 1), BuildingBlock: ZUJKAS_clean_linker_0, # of connection points: 2
#     Edge 17, Type (0, 1), BuildingBlock: ZUJKAS_clean_linker_0, # of connection points: 2
#     Edge 18, Type (0, 1), BuildingBlock: ZUJKAS_clean_linker_0, # of connection points: 2
#     Edge 19, Type (0, 1), BuildingBlock: ZUJKAS_clean_linker_0, # of connection points: 2
#     Edge 20, Type (0, 1), BuildingBlock: ZUJKAS_clean_linker_0, # of connection points: 2
#     Edge 21, Type (0, 1), BuildingBlock: ZUJKAS_clean_linker_0, # of connection points: 2
#     Edge 22, Type (0, 1), BuildingBlock: ZUJKAS_clean_linker_0, # of connection points: 2
#     Edge 23, Type (0, 1), BuildingBlock: ZUJKAS_clean_linker_0, # of connection points: 2
#     Edge 24, Type (0, 1), BuildingBlock: ZUJKAS_clean_linker_0, # of connection points: 2
#     Edge 25, Type (0, 1), BuildingBlock: ZUJKAS_clean_linker_0, # of connection points: 2
#     Edge 26, Type (0, 1), BuildingBlock: ZUJKAS_clean_linker_0, # of connection points: 2
#     Edge 27, Type (0, 1), BuildingBlock: ZUJKAS_clean_linker_0, # of connection points: 2
#     Edge 28, Type (0, 1), BuildingBlock: ZUJKAS_clean_linker_0, # of connection points: 2
#     Edge 29, Type (0, 1), BuildingBlock: ZUJKAS_clean_linker_0, # of connection points: 2
#     Edge 30, Type (0, 1), BuildingBlock: ZUJKAS_clean_linker_0, # of connection points: 2
#     Edge 31, Type (0, 1), BuildingBlock: ZUJKAS_clean_linker_0, # of connection points: 2
#     Edge 32, Type (0, 1), BuildingBlock: ZUJKAS_clean_linker_0, # of connection points: 2
#     Edge 33, Type (0, 1), BuildingBlock: ZUJKAS_clean_linker_0, # of connection points: 2
#     Edge 34, Type (0, 1), BuildingBlock: ZUJKAS_clean_linker_0, # of connection points: 2
#     Edge 35, Type (0, 1), BuildingBlock: ZUJKAS_clean_linker_0, # of connection points: 2
# Relax obj value: 0.064
# Max RMSD: 0.112
# Mean RMSD: 0.048
data_MOF--net-pyr--node1-PAMTUU_clean_sbu_0--node2-MIDCAF_clean_linker_0--edge1-ZUJKAS_clean_linker_0
_symmetry_space_group_name_H-M    P1
_symmetry_Int_Tables_number       1
_symmetry_cell_setting            triclinic
loop_
_symmetry_equiv_pos_as_xyz
'x, y, z'
_cell_length_a     58.088767
_cell_length_b     58.094854
_cell_length_c     56.543734
_cell_angle_alpha  89.66525
_cell_angle_beta   89.443704
_cell_angle_gamma 98.616766
loop_
_atom_site_label
_atom_site_type_symbol
_atom_site_fract_x
_atom_site_fract_y
_atom_site_fract_z
_atom_type_partial_charge
C0 C 0.26108 0.2621 0.29605 0.0
C1 C 0.26652 0.24193 0.30714 0.0
C2 C 0.28576 0.23215 0.29886 0.0
C3 C 0.29837 0.24147 0.27898 0.0
H4 H 0.34772 0.22731 0.23177 0.0
H5 H 0.3709 0.20109 0.21264 0.0
H6 H 0.36351 0.23493 0.1455 0.0
H7 H 0.34065 0.26152 0.16463 0.0
H8 H 0.29946 0.293 0.16009 0.0
H9 H 0.27564 0.3161 0.13732 0.0
H10 H 0.25589 0.34812 0.20174 0.0
H11 H 0.27902 0.32452 0.22452 0.0
H12 H 0.26841 0.28649 0.26758 0.0
H13 H 0.24658 0.27025 0.30229 0.0
H14 H 0.29032 0.21651 0.30692 0.0
H15 H 0.31243 0.23284 0.27247 0.0
N16 N 0.31848 0.2562 0.23354 0.0
N17 N 0.31765 0.27774 0.19842 0.0
N18 N 0.29446 0.28501 0.23091 0.0
C19 C 0.32622 0.26096 0.21103 0.0
C20 C 0.30192 0.28999 0.20837 0.0
C21 C 0.30262 0.26815 0.24364 0.0
C22 C 0.3421 0.24645 0.19973 0.0
C23 C 0.35116 0.22935 0.21296 0.0
C24 C 0.36437 0.2142 0.20198 0.0
C25 C 0.36884 0.21576 0.17752 0.0
C26 C 0.36052 0.23338 0.16442 0.0
C27 C 0.34732 0.24858 0.1754 0.0
C28 C 0.29083 0.30667 0.19415 0.0
C29 C 0.29034 0.30525 0.16934 0.0
C30 C 0.27672 0.31855 0.15627 0.0
C31 C 0.26352 0.33366 0.16775 0.0
C32 C 0.26533 0.33618 0.1924 0.0
C33 C 0.27871 0.32274 0.20546 0.0
C34 C 0.29199 0.26077 0.26693 0.0
C35 C 0.27369 0.27145 0.2762 0.0
C36 C 0.1472 0.82697 0.69783 0.0
C37 C 0.14069 0.82186 0.67435 0.0
C38 C 0.14942 0.80349 0.6629 0.0
C39 C 0.16478 0.79093 0.67448 0.0
H40 H 0.20983 0.74281 0.66264 0.0
H41 H 0.23235 0.71761 0.64067 0.0
H42 H 0.27388 0.71075 0.70257 0.0
H43 H 0.25123 0.73521 0.72461 0.0
H44 H 0.24971 0.7672 0.76706 0.0
H45 H 0.26884 0.78526 0.80179 0.0
H46 H 0.21984 0.83428 0.80396 0.0
H47 H 0.20085 0.81655 0.76893 0.0
H48 H 0.16744 0.81927 0.72732 0.0
H49 H 0.14108 0.8412 0.70708 0.0
H50 H 0.1445 0.7989 0.64492 0.0
H51 H 0.17146 0.77716 0.66499 0.0
N52 N 0.19947 0.768 0.69804 0.0
N53 N 0.22394 0.76511 0.73031 0.0
N54 N 0.1971 0.79134 0.73145 0.0
C55 C 0.21665 0.7581 0.7084 0.0
C56 C 0.21426 0.78165 0.74199 0.0
C57 C 0.1895 0.78458 0.70954 0.0
C58 C 0.22876 0.74122 0.69539 0.0
C59 C 0.22357 0.73568 0.67165 0.0
C60 C 0.23656 0.72134 0.659 0.0
C61 C 0.25496 0.71219 0.66982 0.0
C62 C 0.25963 0.71717 0.69374 0.0
C63 C 0.24669 0.73143 0.70636 0.0
C64 C 0.2239 0.79061 0.76492 0.0
C65 C 0.24277 0.78165 0.77506 0.0
C66 C 0.25369 0.79191 0.7951 0.0
C67 C 0.246 0.81134 0.80549 0.0
C68 C 0.22641 0.81956 0.7961 0.0
C69 C 0.21547 0.80931 0.77606 0.0
C70 C 0.17179 0.7965 0.69776 0.0
C71 C 0.1625 0.81444 0.70939 0.0
C72 C 0.64651 0.28944 0.89568 0.0
C73 C 0.62474 0.27813 0.88809 0.0
C74 C 0.614 0.28819 0.86917 0.0
C75 C 0.62465 0.30904 0.85836 0.0
H76 H 0.61686 0.36066 0.80619 0.0
H77 H 0.60091 0.37772 0.77155 0.0
H78 H 0.6654 0.42455 0.76194 0.0
H79 H 0.68142 0.40754 0.79654 0.0
H80 H 0.72251 0.40902 0.83719 0.0
H81 H 0.75868 0.42672 0.85573 0.0
H82 H 0.74118 0.38361 0.91776 0.0
H83 H 0.7058 0.36547 0.89901 0.0
H84 H 0.67383 0.31816 0.89152 0.0
H85 H 0.65566 0.28211 0.90979 0.0
H86 H 0.59715 0.28018 0.86291 0.0
H87 H 0.61579 0.3163 0.84399 0.0
N88 N 0.64916 0.35213 0.83571 0.0
N89 N 0.68049 0.38303 0.83554 0.0
N90 N 0.67797 0.35386 0.86467 0.0
C91 C 0.66031 0.3723 0.82572 0.0
C92 C 0.68936 0.37396 0.85515 0.0
C93 C 0.65799 0.3427 0.85517 0.0
C94 C 0.65051 0.38263 0.80435 0.0
C95 C 0.62772 0.37457 0.79673 0.0
C96 C 0.61847 0.38448 0.77688 0.0
C97 C 0.63181 0.40257 0.76385 0.0
C98 C 0.65465 0.41052 0.77135 0.0
C99 C 0.66381 0.40081 0.79135 0.0
C100 C 0.71118 0.38564 0.86644 0.0
C101 C 0.72641 0.40333 0.85478 0.0
C102 C 0.74716 0.41359 0.86552 0.0
C103 C 0.75318 0.40657 0.8883 0.0
C104 C 0.73765 0.38917 0.90002 0.0
C105 C 0.71712 0.37881 0.88925 0.0
C106 C 0.64633 0.32041 0.8662 0.0
C107 C 0.65707 0.3102 0.88499 0.0
C108 C 0.77975 0.65541 0.39616 0.0
C109 C 0.76738 0.63488 0.38676 0.0
C110 C 0.7764 0.62551 0.36633 0.0
C111 C 0.79705 0.63652 0.3555 0.0
H112 H 0.84804 0.62811 0.30481 0.0
H113 H 0.86415 0.61133 0.27014 0.0
H114 H 0.91138 0.67522 0.25852 0.0
H115 H 0.8952 0.69218 0.29326 0.0
H116 H 0.89984 0.73191 0.33603 0.0
H117 H 0.91703 0.76892 0.35347 0.0
H118 H 0.8654 0.75904 0.40952 0.0
H119 H 0.84803 0.72269 0.39203 0.0
H120 H 0.80918 0.68217 0.39327 0.0
H121 H 0.77367 0.66296 0.41208 0.0
H122 H 0.76728 0.60986 0.35842 0.0
H123 H 0.80331 0.62889 0.33971 0.0
N124 N 0.84043 0.66044 0.33389 0.0
N125 N 0.8705 0.6925 0.33247 0.0
N126 N 0.84167 0.68992 0.36212 0.0
C127 C 0.86016 0.67182 0.32331 0.0
C128 C 0.86135 0.70165 0.35199 0.0
C129 C 0.83103 0.6694 0.3533 0.0
C130 C 0.87024 0.6616 0.30201 0.0
C131 C 0.86185 0.63868 0.29493 0.0
C132 C 0.87122 0.62894 0.27505 0.0
C133 C 0.88913 0.64185 0.26145 0.0
C134 C 0.89747 0.66481 0.26841 0.0
C135 C 0.88825 0.6745 0.28847 0.0
C136 C 0.87241 0.72418 0.36246 0.0
C137 C 0.89213 0.73765 0.35206 0.0
C138 C 0.90208 0.75887 0.36215 0.0
C139 C 0.89257 0.76719 0.3829 0.0
C140 C 0.873 0.75358 0.39332 0.0
C141 C 0.86308 0.73249 0.38328 0.0
C142 C 0.80926 0.6572 0.36483 0.0
C143 C 0.80031 0.66639 0.38538 0.0
C144 C 0.64799 0.82862 0.86085 0.0
C145 C 0.64695 0.82767 0.88567 0.0
C146 C 0.65831 0.81139 0.89762 0.0
C147 C 0.67102 0.79681 0.88502 0.0
H148 H 0.70648 0.73986 0.89168 0.0
H149 H 0.72901 0.71422 0.9128 0.0
H150 H 0.77096 0.70938 0.84998 0.0
H151 H 0.74819 0.73417 0.82878 0.0
H152 H 0.74585 0.76612 0.7865 0.0
H153 H 0.76463 0.78452 0.75122 0.0
H154 H 0.71458 0.83251 0.74964 0.0
H155 H 0.69601 0.81448 0.78533 0.0
H156 H 0.66174 0.81584 0.82918 0.0
H157 H 0.63956 0.84111 0.85116 0.0
H158 H 0.65757 0.81012 0.91674 0.0
H159 H 0.68001 0.78484 0.89481 0.0
N160 N 0.69799 0.76777 0.85784 0.0
N161 N 0.71995 0.76319 0.82366 0.0
N162 N 0.69487 0.79115 0.82439 0.0
C163 C 0.71367 0.75667 0.8462 0.0
C164 C 0.71062 0.78034 0.81258 0.0
C165 C 0.68839 0.78494 0.84697 0.0
C166 C 0.7256 0.73928 0.85855 0.0
C167 C 0.7203 0.73305 0.88228 0.0
C168 C 0.7333 0.71844 0.89445 0.0
C169 C 0.75188 0.70979 0.88315 0.0
C170 C 0.75656 0.71537 0.85919 0.0
C171 C 0.74355 0.72983 0.84704 0.0
C172 C 0.71962 0.78905 0.78905 0.0
C173 C 0.73857 0.78037 0.77849 0.0
C174 C 0.74929 0.79084 0.75811 0.0
C175 C 0.74127 0.81016 0.74776 0.0
C176 C 0.72145 0.81792 0.75746 0.0
C177 C 0.71075 0.8075 0.77788 0.0
C178 C 0.67283 0.7984 0.86022 0.0
C179 C 0.66083 0.8142 0.84827 0.0
C180 C 0.79402 0.21873 0.2388 0.0
C181 C 0.77697 0.22969 0.22771 0.0
C182 C 0.77063 0.24986 0.23794 0.0
C183 C 0.78014 0.25812 0.25942 0.0
H184 H 0.76813 0.30118 0.31298 0.0
H185 H 0.74385 0.32412 0.33518 0.0
H186 H 0.77637 0.30711 0.40006 0.0
H187 H 0.80055 0.28368 0.37788 0.0
H188 H 0.84214 0.25329 0.37464 0.0
H189 H 0.86748 0.23027 0.39537 0.0
H190 H 0.87199 0.18881 0.33278 0.0
H191 H 0.84721 0.21206 0.31186 0.0
H192 H 0.81603 0.2176 0.26872 0.0
H193 H 0.79915 0.20304 0.23151 0.0
H194 H 0.75785 0.25896 0.22962 0.0
H195 H 0.77429 0.2733 0.2671 0.0
N196 N 0.79364 0.26923 0.30741 0.0
N197 N 0.81523 0.26334 0.34114 0.0
N198 N 0.82006 0.24252 0.30647 0.0
C199 C 0.79913 0.27437 0.33027 0.0
C200 C 0.82588 0.24748 0.3293 0.0
C201 C 0.80403 0.25338 0.29536 0.0
C202 C 0.7862 0.29035 0.34362 0.0
C203 C 0.77033 0.30243 0.33195 0.0
C204 C 0.75648 0.31577 0.34468 0.0
C205 C 0.75811 0.31739 0.36941 0.0
C206 C 0.77451 0.30597 0.38104 0.0
C207 C 0.78846 0.29265 0.36829 0.0
C208 C 0.84247 0.2345 0.34157 0.0
C209 C 0.84867 0.23939 0.3652 0.0
C210 C 0.86311 0.22611 0.37716 0.0
C211 C 0.87168 0.20761 0.36579 0.0
C212 C 0.86595 0.2031 0.342 0.0
C213 C 0.85158 0.2164 0.33003 0.0
C214 C 0.79628 0.24643 0.27116 0.0
C215 C 0.8036 0.22702 0.26026 0.0
C216 C 0.27244 0.62247 0.18051 0.0
C217 C 0.2632 0.63268 0.16074 0.0
C218 C 0.27512 0.65397 0.15207 0.0
C219 C 0.29544 0.66483 0.16286 0.0
H220 H 0.33811 0.7258 0.16211 0.0
H221 H 0.3554 0.7627 0.14459 0.0
H222 H 0.41696 0.76199 0.18655 0.0
H223 H 0.39965 0.72468 0.20419 0.0
H224 H 0.39478 0.68622 0.24835 0.0
H225 H 0.41098 0.66955 0.28295 0.0
H226 H 0.35637 0.61039 0.28058 0.0
H227 H 0.33987 0.62725 0.2463 0.0
H228 H 0.29933 0.62506 0.20661 0.0
H229 H 0.26369 0.60619 0.18785 0.0
H230 H 0.26891 0.66222 0.13665 0.0
H231 H 0.30393 0.68119 0.15547 0.0
N232 N 0.33684 0.68763 0.18528 0.0
N233 N 0.36594 0.68947 0.21396 0.0
N234 N 0.33586 0.65742 0.2131 0.0
C235 C 0.35657 0.69913 0.19496 0.0
C236 C 0.35568 0.6686 0.22323 0.0
C237 C 0.32633 0.66681 0.19405 0.0
C238 C 0.36741 0.72206 0.18467 0.0
C239 C 0.35534 0.73339 0.16773 0.0
C240 C 0.36522 0.75474 0.15772 0.0
C241 C 0.38757 0.76546 0.16416 0.0
C242 C 0.39977 0.75417 0.18103 0.0
C243 C 0.38977 0.73282 0.19126 0.0
C244 C 0.36589 0.6582 0.24433 0.0
C245 C 0.38616 0.66965 0.25514 0.0
C246 C 0.39559 0.65997 0.27502 0.0
C247 C 0.38508 0.63853 0.28478 0.0
C248 C 0.36484 0.62707 0.27392 0.0
C249 C 0.35542 0.63673 0.25404 0.0
C250 C 0.30464 0.65479 0.18273 0.0
C251 C 0.29286 0.63338 0.19137 0.0
C252 C 0.1453 0.28406 0.65372 0.0
C253 C 0.12312 0.27336 0.66134 0.0
C254 C 0.11204 0.284 0.67971 0.0
C255 C 0.12277 0.30488 0.68992 0.0
H256 H 0.11435 0.35802 0.74005 0.0
H257 H 0.09829 0.37599 0.77424 0.0
H258 H 0.16334 0.4219 0.78216 0.0
H259 H 0.17943 0.40405 0.74807 0.0
H260 H 0.2124 0.41302 0.69843 0.0
H261 H 0.24797 0.43137 0.67839 0.0
H262 H 0.25031 0.36833 0.63887 0.0
H263 H 0.21461 0.35037 0.6582 0.0
H264 H 0.17304 0.31233 0.65729 0.0
H265 H 0.15469 0.27624 0.64003 0.0
H266 H 0.09488 0.27643 0.68596 0.0
H267 H 0.11363 0.31264 0.70384 0.0
N268 N 0.14721 0.34817 0.71109 0.0
N269 N 0.17871 0.37886 0.71015 0.0
N270 N 0.17694 0.34866 0.68265 0.0
C271 C 0.15826 0.36857 0.72023 0.0
C272 C 0.18817 0.36901 0.69129 0.0
C273 C 0.15653 0.33805 0.69227 0.0
C274 C 0.14826 0.37951 0.74113 0.0
C275 C 0.12528 0.37194 0.74905 0.0
C276 C 0.11599 0.38235 0.76862 0.0
C277 C 0.1295 0.40042 0.78105 0.0
C278 C 0.15248 0.40789 0.77322 0.0
C279 C 0.16168 0.3977 0.7535 0.0
C280 C 0.21041 0.38021 0.67992 0.0
C281 C 0.22051 0.40307 0.68548 0.0
C282 C 0.24104 0.41357 0.67403 0.0
C283 C 0.25209 0.40147 0.65678 0.0
C284 C 0.24214 0.37848 0.65158 0.0
C285 C 0.22162 0.36807 0.66287 0.0
C286 C 0.14486 0.31566 0.68202 0.0
C287 C 0.15595 0.30483 0.66383 0.0
Tb288 Tb 0.03058 0.02119 0.50753 0.0
Tb289 Tb 0.98479 1.01649 0.54255 0.0
C290 C 0.98909 0.98018 0.50182 0.0
C291 C 0.08029 0.04443 0.46797 0.0
C292 C 0.10886 0.08062 0.44382 0.0
C293 C 0.11051 0.05721 0.43891 0.0
C294 C 0.09635 0.03927 0.45093 0.0
C295 C 0.07821 0.06773 0.47266 0.0
C296 C 0.09246 0.08571 0.46073 0.0
C297 C 0.06631 0.02539 0.48113 0.0
O298 O 1.00446 0.03706 0.48859 0.0
O299 O 0.98308 0.04665 0.52033 0.0
O300 O 0.01168 0.04198 0.55849 0.0
O301 O 0.03289 0.05461 0.52528 0.0
O302 O 0.94887 1.01648 0.54683 0.0
O303 O 0.97081 1.01327 0.57695 0.0
O304 O 1.00249 0.98743 0.55168 0.0
O305 O 0.03902 1.00412 0.54 0.0
O306 O 0.0118 0.98643 0.50141 0.0
O307 O 0.9753 0.99231 0.51346 0.0
C308 C 0.98914 0.04891 0.49795 0.0
O309 O 0.06693 0.02711 0.50408 0.0
O310 O 0.04521 0.01892 0.47362 0.0
C311 C 0.02672 0.05765 0.54733 0.0
C312 C 0.93234 0.99391 0.579 0.0
C313 C 0.89929 0.95817 0.59824 0.0
C314 C 0.8978 0.98167 0.6029 0.0
C315 C 0.91419 0.99936 0.59335 0.0
C316 C 0.93392 0.97056 0.57408 0.0
C317 C 0.91751 0.95278 0.58368 0.0
C318 C 0.94956 1.0128 0.56956 0.0
C319 C 0.02516 0.98835 0.55217 0.0
H320 H 0.12316 0.05275 0.42618 0.0
H321 H 0.09816 0.02136 0.44716 0.0
H322 H 0.06577 0.07198 0.48572 0.0
H323 H 0.09063 0.10357 0.46468 0.0
H324 H 0.88423 0.98638 0.61436 0.0
H325 H 0.91282 1.01733 0.59734 0.0
H326 H 0.94786 0.96611 0.56293 0.0
H327 H 0.91902 0.93487 0.57963 0.0
Tb328 Tb 0.52585 0.02625 0.04813 0.0
Tb329 Tb 0.48555 0.01943 1.0074 0.0
C330 C 0.53017 0.99624 1.00336 0.0
C331 C 0.57813 0.04799 0.08463 0.0
C332 C 0.61745 0.08036 0.09582 0.0
C333 C 0.60902 0.07888 0.07256 0.0
C334 C 0.58934 0.06286 0.06701 0.0
C335 C 0.58701 0.04888 0.10757 0.0
C336 C 0.60648 0.06493 0.11314 0.0
C337 C 0.55617 0.03275 0.08014 0.0
O338 O 0.53187 0.05854 0.02745 0.0
O339 O 0.5127 0.04622 0.99328 0.0
O340 O 0.4809 0.04908 0.02894 0.0
O341 O 0.4934 0.03442 0.06286 0.0
O342 O 0.47555 1.01443 0.97204 0.0
O343 O 0.45041 0.01962 0.99926 0.0
O344 O 0.47341 0.9929 0.03425 0.0
O345 O 0.50722 0.99143 0.05492 0.0
O346 O 0.54096 1.01281 1.0167 0.0
O347 O 0.50744 0.99295 1.00146 0.0
C348 C 0.52718 0.06159 1.00499 0.0
O349 O 0.53785 0.04315 0.07925 0.0
O350 O 0.55622 1.01737 0.06347 0.0
C351 C 0.48128 0.04845 0.05203 0.0
C352 C 0.43675 0.99588 0.96732 0.0
C353 C 0.40377 0.96092 0.9476 0.0
C354 C 0.39872 0.98369 0.95043 0.0
C355 C 0.41508 1.00099 0.96012 0.0
C356 C 0.4418 0.97311 0.96508 0.0
C357 C 0.42544 0.95576 0.95522 0.0
C358 C 0.45362 1.01465 0.97713 0.0
C359 C 0.48564 0.98276 0.04966 0.0
H360 H 0.61709 0.09067 0.05893 0.0
H361 H 0.58252 0.06248 0.04923 0.0
H362 H 0.5785 0.03755 0.12136 0.0
H363 H 0.6128 0.0655 0.13113 0.0
H364 H 0.38204 0.98817 0.94523 0.0
H365 H 0.41083 0.01843 0.96196 0.0
H366 H 0.45842 0.96879 0.97073 0.0
H367 H 0.42996 0.93846 0.95314 0.0
Tb368 Tb 0.51041 0.49476 0.50753 0.0
Tb369 Tb 0.50926 0.54307 0.5367 0.0
C370 C 0.4866 0.53589 0.48681 0.0
C371 C 0.53251 0.44497 0.47977 0.0
C372 C 0.57033 0.42223 0.46702 0.0
C373 C 0.54787 0.41445 0.45837 0.0
C374 C 0.52913 0.42578 0.46467 0.0
C375 C 0.5547 0.45245 0.48895 0.0
C376 C 0.57346 0.44118 0.48264 0.0
C377 C 0.51328 0.45804 0.48463 0.0
O378 O 0.54603 0.51288 0.50609 0.0
O379 O 0.53859 0.55008 0.51197 0.0
O380 O 0.53425 0.52549 0.55577 0.0
O381 O 0.52192 0.48815 0.5433 0.0
O382 O 0.51106 0.57942 0.53613 0.0
O383 O 0.5059 0.56019 0.56893 0.0
O384 O 0.48111 0.51778 0.55116 0.0
O385 O 0.47443 0.49278 0.51992 0.0
O386 O 0.49991 0.51997 0.48251 0.0
O387 O 0.48388 0.54319 0.50846 0.0
C388 C 0.55228 0.53552 0.50442 0.0
O389 O 0.50618 0.45817 0.50654 0.0
O390 O 0.51568 0.47875 0.4752 0.0
C391 C 0.53335 0.50282 0.55827 0.0
C392 C 0.48539 0.59168 0.5642 0.0
C393 C 0.44578 0.61173 0.57672 0.0
C394 C 0.46605 0.61577 0.59044 0.0
C395 C 0.48572 0.60584 0.58418 0.0
C396 C 0.46523 0.58765 0.55041 0.0
C397 C 0.44564 0.5977 0.55654 0.0
C398 C 0.5056 0.58017 0.55849 0.0
C399 C 0.46784 0.50101 0.5401 0.0
H400 H 0.5448 0.3997 0.4466 0.0
H401 H 0.5121 0.41982 0.45742 0.0
H402 H 0.55761 0.46735 0.50057 0.0
H403 H 0.59054 0.44778 0.48941 0.0
H404 H 0.46669 0.62665 0.60599 0.0
H405 H 0.50109 0.609 0.59509 0.0
H406 H 0.46451 0.57649 0.53508 0.0
H407 H 0.43019 0.59403 0.54582 0.0
Tb408 Tb 0.00992 0.54473 1.00779 0.0
Tb409 Tb 0.00933 0.49573 0.03674 0.0
C410 C 0.03262 0.50383 0.98583 0.0
C411 C 0.98817 0.59483 0.9805 0.0
C412 C 0.94821 0.61491 0.96938 0.0
C413 C 0.96225 0.60758 0.95133 0.0
C414 C 0.98207 0.59775 0.95685 0.0
C415 C 0.97447 0.60258 0.99857 0.0
C416 C 0.95476 0.61259 0.99306 0.0
C417 C 0.00782 0.58232 0.98598 0.0
O418 O 0.98041 0.52098 0.99425 0.0
O419 O 0.9736 0.49434 0.02466 0.0
O420 O 0.99788 0.52015 0.06195 0.0
O421 O 0.98454 0.54568 0.0363 0.0
O422 O 1.00303 0.45916 0.03787 0.0
O423 O 0.01602 0.47891 0.06832 0.0
O424 O 0.04525 0.51324 0.03768 0.0
O425 O 0.03844 0.55074 0.03291 0.0
O426 O 0.03445 0.52651 0.98852 0.0
O427 O 0.02041 0.4893 1.00073 0.0
C428 C 0.96706 0.50373 1.00507 0.0
O429 O 0.01353 0.58122 1.00816 0.0
O430 O 0.00753 0.56235 0.97554 0.0
C431 C 0.98596 0.53725 0.05775 0.0
C432 C 0.03189 0.44524 0.06035 0.0
C433 C 0.0722 0.42454 0.06697 0.0
C434 C 0.05277 0.41898 0.08214 0.0
C435 C 0.03277 0.42931 0.07887 0.0
C436 C 0.05091 0.45026 0.04471 0.0
C437 C 0.07086 0.43995 0.04794 0.0
C438 C 0.01232 0.45841 0.05869 0.0
C439 C 0.05176 0.53574 0.04005 0.0
H440 H 0.95759 0.60881 0.93292 0.0
H441 H 0.9923 0.59183 0.94262 0.0
H442 H 0.97868 0.60059 1.01701 0.0
H443 H 0.9446 0.61842 1.00738 0.0
H444 H 0.05336 0.40741 0.09714 0.0
H445 H 0.01833 0.42548 0.09124 0.0
H446 H 0.05059 0.46268 0.03039 0.0
H447 H 0.08541 0.44437 0.0358 0.0
H448 H 0.2191 0.23398 0.30742 0.0
H449 H 0.19334 0.21011 0.33521 0.0
H450 H 0.25261 0.19779 0.37619 0.0
H451 H 0.27863 0.2217 0.34826 0.0
H452 H 0.22473 0.15786 0.36511 0.0
H453 H 0.17091 0.22037 0.40172 0.0
H454 H 0.17138 0.22057 0.37 0.0
H455 H 0.19789 0.22959 0.38587 0.0
C456 C 0.22664 0.22675 0.32269 0.0
C457 C 0.25091 0.2298 0.3257 0.0
C458 C 0.21186 0.21311 0.3386 0.0
C459 C 0.22101 0.20246 0.35797 0.0
C460 C 0.24519 0.20597 0.36141 0.0
H461 H 0.13261 0.12001 0.46341 0.0
H462 H 0.16043 0.15012 0.44378 0.0
C463 C 0.26002 0.21956 0.34543 0.0
C464 C 0.20552 0.18586 0.37316 0.0
H465 H 0.15536 0.17977 0.40607 0.0
C466 C 0.20974 0.16272 0.37432 0.0
C467 C 0.18609 0.19227 0.38535 0.0
C468 C 0.18141 0.21711 0.3859 0.0
C469 C 0.19458 0.14562 0.38663 0.0
C470 C 0.17442 0.15176 0.39765 0.0
C471 C 0.17066 0.17506 0.39729 0.0
C472 C 0.15688 0.1341 0.4093 0.0
C473 C 0.20031 0.12114 0.3877 0.0
C474 C 0.14527 0.11549 0.39626 0.0
C475 C 0.1294 0.09831 0.40739 0.0
C476 C 0.12468 0.09957 0.43174 0.0
C477 C 0.13577 0.11866 0.4446 0.0
C478 C 0.15173 0.1358 0.43345 0.0
H479 H 0.21916 0.12081 0.38449 0.0
H480 H 0.19536 0.11286 0.40513 0.0
H481 H 0.19049 0.11054 0.3738 0.0
H482 H 0.14857 0.11419 0.37746 0.0
H483 H 0.1208 0.08404 0.39694 0.0
H484 H 0.25749 0.85832 0.81001 0.0
H485 H 0.28239 0.87949 0.83962 0.0
H486 H 0.29044 0.81473 0.87395 0.0
H487 H 0.26541 0.79328 0.84424 0.0
H488 H 0.27854 0.88098 0.88884 0.0
H489 H 0.35774 0.8447 0.86024 0.0
H490 H 0.33165 0.8417 0.84276 0.0
H491 H 0.33292 0.82383 0.8686 0.0
C492 C 0.26421 0.84856 0.82407 0.0
C493 C 0.25951 0.82411 0.82475 0.0
C494 C 0.27854 0.86069 0.84091 0.0
C495 C 0.28852 0.84865 0.85875 0.0
C496 C 0.28328 0.8243 0.86002 0.0
H497 H 0.39249 0.91463 0.95966 0.0
H498 H 0.3638 0.88534 0.94077 0.0
C499 C 0.26896 0.8121 0.84308 0.0
C500 C 0.30486 0.86186 0.87547 0.0
H501 H 0.36228 0.87259 0.89045 0.0
C502 C 0.2968 0.87897 0.8894 0.0
C503 C 0.32866 0.85914 0.87618 0.0
C504 C 0.33841 0.84149 0.86106 0.0
C505 C 0.31204 0.89393 0.90349 0.0
C506 C 0.33597 0.89184 0.90343 0.0
C507 C 0.34389 0.87407 0.89039 0.0
C508 C 0.35328 0.90928 0.91502 0.0
C509 C 0.30255 0.91218 0.91797 0.0
C510 C 0.35711 0.93221 0.90641 0.0
C511 C 0.3736 0.94885 0.9169 0.0
C512 C 0.38658 0.9429 0.93629 0.0
C513 C 0.38291 0.91976 0.94467 0.0
C514 C 0.36644 0.90304 0.93403 0.0
H515 H 0.28349 0.90762 0.92109 0.0
H516 H 0.31138 0.9145 0.93532 0.0
H517 H 0.30572 0.92907 0.90833 0.0
H518 H 0.34747 0.9372 0.89139 0.0
H519 H 0.37635 0.96634 0.90961 0.0
H520 H 0.58813 0.41466 0.75845 0.0
H521 H 0.57219 0.43197 0.72386 0.0
H522 H 0.63701 0.43151 0.6862 0.0
H523 H 0.65321 0.41469 0.72097 0.0
H524 H 0.62184 0.47114 0.67795 0.0
H525 H 0.54777 0.40086 0.66475 0.0
H526 H 0.54719 0.41339 0.6936 0.0
H527 H 0.57074 0.39803 0.68528 0.0
C528 C 0.59895 0.41803 0.74274 0.0
C529 C 0.62196 0.41309 0.74256 0.0
C530 C 0.58975 0.42789 0.72285 0.0
C531 C 0.60312 0.43268 0.70201 0.0
C532 C 0.62619 0.42798 0.7019 0.0
H533 H 0.54318 0.45846 0.56465 0.0
H534 H 0.56096 0.44236 0.59878 0.0
C535 C 0.63549 0.41836 0.72188 0.0
C536 C 0.59328 0.44294 0.68054 0.0
H537 H 0.54724 0.4357 0.64253 0.0
C538 C 0.60556 0.46329 0.67018 0.0
C539 C 0.57221 0.43265 0.66994 0.0
C540 C 0.55884 0.4099 0.6788 0.0
C541 C 0.59732 0.47371 0.64995 0.0
C542 C 0.57574 0.46398 0.63998 0.0
C543 C 0.56362 0.44346 0.65016 0.0
C544 C 0.5656 0.47437 0.61875 0.0
C545 C 0.61225 0.49469 0.63913 0.0
C546 C 0.56208 0.49784 0.61829 0.0
C547 C 0.55216 0.50723 0.59853 0.0
C548 C 0.54503 0.49329 0.57885 0.0
C549 C 0.5484 0.46978 0.57941 0.0
C550 C 0.55857 0.46049 0.59903 0.0
H551 H 0.63084 0.49537 0.64394 0.0
H552 H 0.611 0.49469 0.61955 0.0
H553 H 0.60634 0.51073 0.6459 0.0
H554 H 0.56662 0.50887 0.63341 0.0
H555 H 0.54959 0.52531 0.59892 0.0
H556 H 0.90066 0.6621 0.21794 0.0
H557 H 0.91584 0.64444 0.18295 0.0
H558 H 0.91576 0.58037 0.22183 0.0
H559 H 0.90023 0.59776 0.25665 0.0
H560 H 0.95504 0.6273 0.17431 0.0
H561 H 0.88166 0.55559 0.16414 0.0
H562 H 0.88027 0.57944 0.18411 0.0
H563 H 0.89463 0.55534 0.19276 0.0
C564 C 0.90391 0.64425 0.21907 0.0
C565 C 0.89897 0.63133 0.24015 0.0
C566 C 0.91254 0.63412 0.19897 0.0
C567 C 0.91651 0.61081 0.1994 0.0
C568 C 0.91216 0.59809 0.22063 0.0
H569 H 0.98002 0.52116 0.10352 0.0
H570 H 0.96292 0.53934 0.13705 0.0
C571 C 0.90334 0.60812 0.24064 0.0
C572 C 0.92569 0.60003 0.17789 0.0
H573 H 0.91588 0.55286 0.14124 0.0
C574 C 0.94632 0.61113 0.16701 0.0
C575 C 0.91439 0.57891 0.16812 0.0
C576 C 0.89139 0.56675 0.17773 0.0
C577 C 0.95618 0.60148 0.14719 0.0
C578 C 0.94512 0.58017 0.13779 0.0
C579 C 0.92444 0.56913 0.1485 0.0
C580 C 0.95495 0.56893 0.11705 0.0
C581 C 0.97869 0.61386 0.13673 0.0
C582 C 0.95583 0.57925 0.09445 0.0
C583 C 0.96544 0.56878 0.07512 0.0
C584 C 0.97453 0.54777 0.07796 0.0
C585 C 0.9733 0.53734 0.1006 0.0
C586 C 0.96349 0.54771 0.11984 0.0
H587 H 0.98725 0.62772 0.14854 0.0
H588 H 0.99096 0.60133 0.13317 0.0
H589 H 0.97508 0.62204 0.11965 0.0
H590 H 0.9491 0.59546 0.09176 0.0
H591 H 0.96606 0.57737 0.05803 0.0
H592 H 0.40226 0.22345 0.14262 0.0
H593 H 0.42116 0.19434 0.12181 0.0
H594 H 0.38273 0.13999 0.16495 0.0
H595 H 0.36326 0.16879 0.18533 0.0
H596 H 0.44842 0.16199 0.14025 0.0
H597 H 0.36844 0.11819 0.09677 0.0
H598 H 0.37015 0.14651 0.11021 0.0
H599 H 0.36602 0.12067 0.12832 0.0
C600 C 0.39772 0.20528 0.14755 0.0
C601 C 0.38121 0.19842 0.16556 0.0
C602 C 0.40863 0.18872 0.13576 0.0
C603 C 0.40308 0.16503 0.14166 0.0
C604 C 0.38697 0.15817 0.15991 0.0
H605 H 0.47988 0.05358 0.10014 0.0
H606 H 0.46083 0.08158 0.12244 0.0
C607 C 0.37607 0.17469 0.17171 0.0
C608 C 0.41414 0.14747 0.1287 0.0
H609 H 0.40224 0.10009 0.09301 0.0
C610 C 0.43837 0.14845 0.1299 0.0
C611 C 0.40094 0.13002 0.11503 0.0
C612 C 0.37497 0.12882 0.11226 0.0
C613 C 0.44979 0.13224 0.11794 0.0
C614 C 0.43652 0.11445 0.10475 0.0
C615 C 0.41231 0.11362 0.10336 0.0
C616 C 0.44752 0.09704 0.0915 0.0
C617 C 0.47598 0.13457 0.11912 0.0
C618 C 0.44573 0.09604 0.06681 0.0
C619 C 0.45643 0.08001 0.05404 0.0
C620 C 0.46904 0.06459 0.06576 0.0
C621 C 0.47038 0.06529 0.09058 0.0
C622 C 0.45965 0.08136 0.10334 0.0
H623 H 0.48388 0.15208 0.1253 0.0
H624 H 0.48082 0.12143 0.13172 0.0
H625 H 0.48356 0.13141 0.10155 0.0
H626 H 0.43633 0.10793 0.05737 0.0
H627 H 0.455 0.07991 0.03496 0.0
H628 H 0.1454 0.83769 0.62859 0.0
H629 H 0.12298 0.86438 0.60871 0.0
H630 H 0.08043 0.86641 0.67133 0.0
H631 H 0.10248 0.83936 0.69128 0.0
H632 H 0.07309 0.861 0.60082 0.0
H633 H 0.10912 0.93557 0.65742 0.0
H634 H 0.12227 0.90939 0.65532 0.0
H635 H 0.0963 0.90951 0.67277 0.0
C636 C 0.13101 0.84344 0.63802 0.0
C637 C 0.12584 0.83649 0.6616 0.0
C638 C 0.1183 0.85879 0.62666 0.0
C639 C 0.1003 0.86757 0.6387 0.0
C640 C 0.09453 0.86009 0.66191 0.0
H641 H 1.00227 0.95051 0.57631 0.0
H642 H 0.01952 0.92078 0.5979 0.0
C643 C 0.10718 0.84469 0.67328 0.0
C644 C 0.08812 0.88515 0.62715 0.0
H645 H 0.08098 0.94238 0.62943 0.0
C646 C 0.07468 0.87877 0.6071 0.0
C647 C 0.09052 0.90835 0.6353 0.0
C648 C 0.10546 0.91629 0.65627 0.0
C649 C 0.0635 0.89503 0.59495 0.0
C650 C 0.06573 0.91818 0.60324 0.0
C651 C 0.07918 0.92455 0.62328 0.0
C652 C 0.05513 0.93633 0.5907 0.0
C653 C 0.04989 0.88754 0.57301 0.0
C654 C 0.06947 0.95516 0.58 0.0
C655 C 0.05972 0.97218 0.5677 0.0
C656 C 0.0354 0.97077 0.56603 0.0
C657 C 0.02106 0.9521 0.5772 0.0
C658 C 0.03087 0.93502 0.58944 0.0
H659 H 0.05362 0.87049 0.56641 0.0
H660 H 0.03098 0.88586 0.57711 0.0
H661 H 0.05391 0.90074 0.5587 0.0
H662 H 0.08824 0.9565 0.58089 0.0
H663 H 0.07128 0.98634 0.55938 0.0
H664 H 0.7815 0.38519 0.91738 0.0
H665 H 0.81656 0.40254 0.93776 0.0
H666 H 0.81193 0.46877 0.90483 0.0
H667 H 0.77594 0.4519 0.88546 0.0
H668 H 0.85798 0.42157 0.92235 0.0
H669 H 0.81994 0.48893 0.97201 0.0
H670 H 0.8022 0.46593 0.95635 0.0
H671 H 0.8164 0.49129 0.94067 0.0
C672 C 0.78757 0.40358 0.91475 0.0
C673 C 0.77544 0.41712 0.89991 0.0
C674 C 0.80788 0.41346 0.92631 0.0
C675 C 0.81679 0.43716 0.92335 0.0
C676 C 0.80516 0.45061 0.90803 0.0
H677 H 0.94418 0.52319 0.96971 0.0
H678 H 0.9078 0.50698 0.95052 0.0
C679 C 0.78469 0.44079 0.8966 0.0
C680 C 0.83849 0.44746 0.93592 0.0
H681 H 0.86122 0.4915 0.97282 0.0
C682 C 0.85857 0.43678 0.93349 0.0
C683 C 0.83944 0.46732 0.95059 0.0
C684 C 0.81829 0.4789 0.95528 0.0
C685 C 0.87948 0.44551 0.94492 0.0
C686 C 0.88045 0.46546 0.95932 0.0
C687 C 0.86048 0.47623 0.96175 0.0
C688 C 0.90217 0.47553 0.97173 0.0
C689 C 0.90057 0.43359 0.94121 0.0
C690 C 0.91097 0.46345 0.99039 0.0
C691 C 0.93174 0.47277 1.00159 0.0
C692 C 0.94427 0.49432 0.99426 0.0
C693 C 0.93515 0.50651 0.97579 0.0
C694 C 0.91429 0.49729 0.96478 0.0
H695 H 0.89825 0.42105 0.92636 0.0
H696 H 0.91627 0.44661 0.93761 0.0
H697 H 0.90375 0.42392 0.95755 0.0
H698 H 0.9018 0.44674 0.99623 0.0
H699 H 0.93819 0.46287 1.0157 0.0
H700 H 0.73249 0.65591 0.40638 0.0
H701 H 0.69686 0.63759 0.42631 0.0
H702 H 0.71541 0.56983 0.41231 0.0
H703 H 0.75158 0.58805 0.39305 0.0
H704 H 0.66009 0.60716 0.40925 0.0
H705 H 0.70157 0.56572 0.48302 0.0
H706 H 0.71761 0.58767 0.46401 0.0
H707 H 0.7108 0.55812 0.45407 0.0
C708 C 0.72922 0.63711 0.40779 0.0
C709 C 0.74516 0.62352 0.39824 0.0
C710 C 0.70869 0.62664 0.41907 0.0
C711 C 0.70355 0.60231 0.42123 0.0
C712 C 0.71917 0.58864 0.41135 0.0
H713 H 0.58499 0.51121 0.48515 0.0
H714 H 0.62139 0.52693 0.46471 0.0
C715 C 0.73975 0.5991 0.40005 0.0
C716 C 0.68164 0.59142 0.43342 0.0
H717 H 0.66056 0.55668 0.48025 0.0
C718 C 0.66022 0.59616 0.4248 0.0
C719 C 0.68173 0.57697 0.45369 0.0
C720 C 0.70414 0.57194 0.46442 0.0
C721 C 0.63897 0.58677 0.43572 0.0
C722 C 0.63907 0.57256 0.45616 0.0
C723 C 0.66046 0.56758 0.46463 0.0
C724 C 0.61718 0.56303 0.46915 0.0
C725 C 0.61657 0.59187 0.42501 0.0
C726 C 0.60286 0.57804 0.47895 0.0
C727 C 0.58202 0.56913 0.49066 0.0
C728 C 0.57504 0.54494 0.49301 0.0
C729 C 0.58972 0.52992 0.48367 0.0
C730 C 0.61058 0.53888 0.47195 0.0
H731 H 0.61901 0.59731 0.40617 0.0
H732 H 0.6028 0.57641 0.42615 0.0
H733 H 0.61041 0.6063 0.43483 0.0
H734 H 0.60779 0.59673 0.47753 0.0
H735 H 0.57132 0.58126 0.49771 0.0
H736 H 0.2686 0.35384 0.12342 0.0
H737 H 0.23955 0.37175 0.10142 0.0
H738 H 0.19124 0.3577 0.15992 0.0
H739 H 0.21969 0.33941 0.18171 0.0
H740 H 0.19235 0.35015 0.08962 0.0
H741 H 0.19414 0.4285 0.14556 0.0
H742 H 0.21736 0.41099 0.14532 0.0
H743 H 0.19109 0.40164 0.16201 0.0
C744 C 0.25178 0.35454 0.13157 0.0
C745 C 0.24659 0.34542 0.15445 0.0
C746 C 0.23527 0.36483 0.11902 0.0
C747 C 0.21345 0.36632 0.12925 0.0
C748 C 0.20819 0.35714 0.15195 0.0
H749 H 0.07795 0.38051 0.08091 0.0
H750 H 0.11416 0.36706 0.09264 0.0
C751 C 0.22455 0.3468 0.16442 0.0
C752 C 0.19569 0.37682 0.11618 0.0
H753 H 0.16127 0.4193 0.1204 0.0
C754 C 0.18574 0.36547 0.09608 0.0
C755 C 0.18734 0.39694 0.12454 0.0
C756 C 0.19816 0.41039 0.14542 0.0
C757 C 0.1668 0.37311 0.08478 0.0
C758 C 0.15753 0.39238 0.09406 0.0
C759 C 0.16827 0.40439 0.11345 0.0
C760 C 0.13605 0.3998 0.08478 0.0
C761 C 0.15672 0.36036 0.0632 0.0
C762 C 0.13635 0.42271 0.0767 0.0
C763 C 0.11568 0.4305 0.07027 0.0
C764 C 0.09429 0.41556 0.07193 0.0
C765 C 0.09412 0.39246 0.07957 0.0
C766 C 0.11483 0.38468 0.086 0.0
H767 H 0.16963 0.35086 0.05438 0.0
H768 H 0.14154 0.34739 0.06861 0.0
H769 H 0.15071 0.37254 0.05024 0.0
H770 H 0.15253 0.43471 0.07588 0.0
H771 H 0.11637 0.4485 0.06481 0.0
H772 H 0.59927 0.23929 0.86801 0.0
H773 H 0.58195 0.20299 0.88761 0.0
H774 H 0.60846 0.22988 0.95449 0.0
H775 H 0.62486 0.26646 0.93534 0.0
H776 H 0.60255 0.17104 0.91165 0.0
H777 H 0.54174 0.20699 0.97227 0.0
H778 H 0.55625 0.22366 0.94797 0.0
H779 H 0.57127 0.22089 0.9753 0.0
C780 C 0.60107 0.2377 0.88696 0.0
C781 C 0.61352 0.25601 0.89999 0.0
C782 C 0.59129 0.21679 0.89814 0.0
C783 C 0.59354 0.21368 0.92266 0.0
C784 C 0.60598 0.23189 0.93568 0.0
H785 H 0.55552 0.09934 0.02342 0.0
H786 H 0.57192 0.13559 1.00315 0.0
C787 C 0.61569 0.25279 0.92456 0.0
C788 C 0.58358 0.19121 0.93451 0.0
H789 H 0.54779 0.16795 0.97984 0.0
C790 C 0.59044 0.17038 0.92644 0.0
C791 C 0.56778 0.19019 0.9539 0.0
C792 C 0.55863 0.21159 0.96274 0.0
C793 C 0.58239 0.1488 0.93746 0.0
C794 C 0.56677 0.14785 0.95696 0.0
C795 C 0.55985 0.16863 0.965 0.0
C796 C 0.5572 0.12546 0.9691 0.0
C797 C 0.59111 0.12725 0.92847 0.0
C798 C 0.5433 0.10765 0.95683 0.0
C799 C 0.53383 0.08689 0.96837 0.0
C800 C 0.53797 0.08341 0.99256 0.0
C801 C 0.55197 0.10129 1.0048 0.0
C802 C 0.56135 0.12209 0.99324 0.0
H803 H 0.60725 0.13161 0.91762 0.0
H804 H 0.59466 0.11578 0.94336 0.0
H805 H 0.5776 0.11735 0.91721 0.0
H806 H 0.53945 0.10993 0.93833 0.0
H807 H 0.52307 0.07366 0.95832 0.0
H808 H 0.86961 0.80001 0.40378 0.0
H809 H 0.88625 0.83607 0.42319 0.0
H810 H 0.95536 0.82229 0.40628 0.0
H811 H 0.93888 0.78594 0.38704 0.0
H812 H 0.91621 0.8419 0.46171 0.0
H813 H 0.95727 0.88942 0.38299 0.0
H814 H 0.93585 0.86361 0.38065 0.0
H815 H 0.96551 0.86117 0.38764 0.0
C816 C 0.88837 0.80451 0.40423 0.0
C817 C 0.90285 0.78987 0.3938 0.0
C818 C 0.89786 0.82527 0.41527 0.0
C819 C 0.92207 0.83212 0.41603 0.0
C820 C 0.93661 0.81768 0.40554 0.0
H821 H 0.01214 0.94978 0.47732 0.0
H822 H 0.99564 0.91404 0.45723 0.0
C823 C 0.92713 0.79685 0.3945 0.0
C824 C 0.93198 0.85398 0.42843 0.0
H825 H 0.96575 0.90702 0.42024 0.0
C826 C 0.92697 0.85617 0.45261 0.0
C827 C 0.94608 0.87264 0.41663 0.0
C828 C 0.95137 0.87178 0.3905 0.0
C829 C 0.93596 0.87623 0.46536 0.0
C830 C 0.94999 0.89496 0.45354 0.0
C831 C 0.95501 0.89274 0.42935 0.0
C832 C 0.95984 0.91685 0.46596 0.0
C833 C 0.93084 0.87688 0.49154 0.0
C834 C 0.94527 0.93066 0.47742 0.0
C835 C 0.95468 0.95116 0.48906 0.0
C836 C 0.97891 0.95849 0.48934 0.0
C837 C 0.99342 0.94476 0.47757 0.0
C838 C 0.984 0.92426 0.466 0.0
H839 H 0.92564 0.85912 0.49904 0.0
H840 H 0.9462 0.88554 0.50132 0.0
H841 H 0.91622 0.88684 0.49457 0.0
H842 H 0.92654 0.9257 0.47722 0.0
H843 H 0.94292 0.96129 0.49778 0.0
H844 H 0.27165 0.72035 0.62458 0.0
H845 H 0.30034 0.70084 0.60386 0.0
H846 H 0.3028 0.65514 0.66388 0.0
H847 H 0.27336 0.67374 0.6842 0.0
H848 H 0.34405 0.70049 0.61806 0.0
H849 H 0.3005 0.60948 0.61066 0.0
H850 H 0.28478 0.63306 0.61801 0.0
H851 H 0.3001 0.61958 0.64053 0.0
C852 C 0.27775 0.70568 0.63308 0.0
C853 C 0.27024 0.69865 0.6561 0.0
C854 C 0.29429 0.69466 0.62128 0.0
C855 C 0.30355 0.67636 0.6322 0.0
C856 C 0.29556 0.66887 0.65486 0.0
H857 H 0.42635 0.61243 0.62081 0.0
H858 H 0.39115 0.62835 0.63229 0.0
C859 C 0.27895 0.67976 0.66661 0.0
C860 C 0.32315 0.66663 0.621 0.0
H861 H 0.34239 0.61561 0.60694 0.0
C862 C 0.34354 0.68197 0.61525 0.0
C863 C 0.32247 0.64245 0.61732 0.0
C864 C 0.30068 0.62524 0.62173 0.0
C865 C 0.36354 0.67367 0.60685 0.0
C866 C 0.36311 0.64948 0.60416 0.0
C867 C 0.34262 0.63416 0.60924 0.0
C868 C 0.38415 0.63977 0.59697 0.0
C869 C 0.38531 0.69067 0.60165 0.0
C870 C 0.3917 0.64096 0.57332 0.0
C871 C 0.41177 0.63189 0.56671 0.0
C872 C 0.42464 0.62163 0.58371 0.0
C873 C 0.41696 0.62051 0.6074 0.0
C874 C 0.39681 0.62941 0.61395 0.0
H875 H 0.38334 0.70879 0.60645 0.0
H876 H 0.40022 0.68554 0.6115 0.0
H877 H 0.3896 0.69025 0.5825 0.0
H878 H 0.38206 0.6489 0.56001 0.0
H879 H 0.41736 0.63313 0.54835 0.0
H880 H 0.75143 0.85732 0.74285 0.0
H881 H 0.77682 0.87936 0.71342 0.0
H882 H 0.7885 0.8154 0.68026 0.0
H883 H 0.76244 0.79311 0.70931 0.0
H884 H 0.82397 0.87458 0.70743 0.0
H885 H 0.7744 0.85711 0.62414 0.0
H886 H 0.7609 0.85245 0.65303 0.0
H887 H 0.77831 0.83197 0.6415 0.0
C888 C 0.75885 0.84791 0.72894 0.0
C889 C 0.75482 0.82343 0.72838 0.0
C890 C 0.77353 0.86054 0.71225 0.0
C891 C 0.7844 0.84901 0.69461 0.0
C892 C 0.78001 0.82463 0.69356 0.0
H893 H 0.90794 0.91748 0.61859 0.0
H894 H 0.88034 0.8886 0.64008 0.0
C895 C 0.7653 0.81193 0.71029 0.0
C896 C 0.80159 0.86259 0.6785 0.0
H897 H 0.81219 0.8788 0.62082 0.0
C898 C 0.82147 0.87544 0.68848 0.0
C899 C 0.79815 0.8637 0.65384 0.0
C900 C 0.77672 0.85074 0.6424 0.0
C901 C 0.83792 0.88965 0.67448 0.0
C902 C 0.83457 0.89071 0.64978 0.0
C903 C 0.81478 0.87772 0.63974 0.0
C904 C 0.85071 0.90645 0.63443 0.0
C905 C 0.85836 0.90401 0.68634 0.0
C906 C 0.84294 0.92549 0.62338 0.0
C907 C 0.85859 0.94188 0.61094 0.0
C908 C 0.88229 0.93949 0.60929 0.0
C909 C 0.88979 0.91978 0.61946 0.0
C910 C 0.8741 0.90337 0.6319 0.0
H911 H 0.85578 0.90487 0.70579 0.0
H912 H 0.87428 0.89605 0.68297 0.0
H913 H 0.86136 0.92202 0.67907 0.0
H914 H 0.82491 0.92808 0.62504 0.0
H915 H 0.8522 0.95666 0.60294 0.0
H916 H 0.79482 0.20932 0.1892 0.0
H917 H 0.77293 0.18809 0.15717 0.0
H918 H 0.70883 0.20395 0.18762 0.0
H919 H 0.73038 0.22498 0.21946 0.0
H920 H 0.74069 0.1497 0.16272 0.0
H921 H 0.69951 0.21788 0.11877 0.0
H922 H 0.72382 0.22468 0.1385 0.0
H923 H 0.69453 0.21808 0.15009 0.0
C924 C 0.77608 0.20851 0.18887 0.0
C925 C 0.76436 0.21896 0.20682 0.0
C926 C 0.76363 0.19648 0.17051 0.0
C927 C 0.73929 0.19483 0.16973 0.0
C928 C 0.72765 0.20562 0.18739 0.0
H929 H 0.61877 0.10932 0.13341 0.0
H930 H 0.65124 0.13803 0.1463 0.0
C931 C 0.74003 0.21763 0.20566 0.0
C932 C 0.72558 0.17981 0.15218 0.0
H933 H 0.67887 0.17821 0.11573 0.0
C934 C 0.72763 0.15603 0.15188 0.0
C935 C 0.70863 0.1881 0.13795 0.0
C936 C 0.70667 0.21365 0.13615 0.0
C937 C 0.71191 0.14007 0.13926 0.0
C938 C 0.69383 0.14817 0.12663 0.0
C939 C 0.69273 0.17209 0.12558 0.0
C940 C 0.67411 0.13182 0.1174 0.0
C941 C 0.71364 0.11445 0.1408 0.0
C942 C 0.67624 0.11909 0.09668 0.0
C943 C 0.65763 0.10264 0.08922 0.0
C944 C 0.63684 0.09861 0.10257 0.0
C945 C 0.63471 0.11182 0.12299 0.0
C946 C 0.65315 0.12831 0.13028 0.0
H947 H 0.72849 0.11093 0.1518 0.0
H948 H 0.69729 0.10481 0.14845 0.0
H949 H 0.71584 0.10756 0.12278 0.0
H950 H 0.69234 0.12165 0.08654 0.0
H951 H 0.65969 0.09265 0.07343 0.0
H952 H 0.36176 0.61452 0.32226 0.0
H953 H 0.37812 0.59763 0.35685 0.0
H954 H 0.44745 0.62202 0.33067 0.0
H955 H 0.43127 0.63882 0.29594 0.0
H956 H 0.40615 0.564 0.36055 0.0
H957 H 0.45139 0.6463 0.39789 0.0
H958 H 0.43019 0.64573 0.3747 0.0
H959 H 0.45961 0.64169 0.3678 0.0
C960 C 0.3805 0.61622 0.32371 0.0
C961 C 0.3951 0.62821 0.30614 0.0
C962 C 0.38986 0.60661 0.34365 0.0
C963 C 0.41408 0.60881 0.34673 0.0
C964 C 0.42872 0.62054 0.32914 0.0
H965 H 0.48809 0.52488 0.43971 0.0
H966 H 0.47007 0.54226 0.40653 0.0
C967 C 0.41939 0.63017 0.3092 0.0
C968 C 0.42396 0.59836 0.368 0.0
H969 H 0.46018 0.6112 0.41512 0.0
C970 C 0.4179 0.57437 0.3725 0.0
C971 C 0.43906 0.61182 0.38394 0.0
C972 C 0.44529 0.63785 0.38104 0.0
C973 C 0.42685 0.56347 0.39202 0.0
C974 C 0.44265 0.57678 0.40744 0.0
C975 C 0.44829 0.60086 0.40326 0.0
C976 C 0.45356 0.56605 0.4279 0.0
C977 C 0.41896 0.53781 0.39614 0.0
C978 C 0.45087 0.57387 0.45112 0.0
C979 C 0.46131 0.56398 0.47026 0.0
C980 C 0.47488 0.54611 0.46664 0.0
C981 C 0.47766 0.53844 0.44332 0.0
C982 C 0.46721 0.54832 0.42425 0.0
H983 H 0.4022 0.53173 0.38723 0.0
H984 H 0.43223 0.52787 0.38878 0.0
H985 H 0.41684 0.53371 0.41532 0.0
H986 H 0.44056 0.58759 0.45449 0.0
H987 H 0.45883 0.57047 0.48788 0.0
H988 H 0.08623 0.41367 0.78631 0.0
H989 H 0.07059 0.43231 0.8204 0.0
H990 H 0.13457 0.4301 0.8578 0.0
H991 H 0.15047 0.41202 0.82357 0.0
H992 H 0.06084 0.41884 0.864 0.0
H993 H 0.12829 0.49666 0.86783 0.0
H994 H 0.12621 0.47683 0.84326 0.0
H995 H 0.14064 0.47025 0.86999 0.0
C996 C 0.09699 0.41716 0.80179 0.0
C997 C 0.11972 0.41147 0.80204 0.0
C998 C 0.08803 0.4279 0.82131 0.0
C999 C 0.1015 0.43319 0.84168 0.0
C1000 C 0.12401 0.42702 0.84214 0.0
H1001 H 0.04171 0.45929 0.9799 0.0
H1002 H 0.05859 0.44269 0.9454 0.0
C1003 C 0.13308 0.41653 0.82253 0.0
C1004 C 0.09172 0.44446 0.86257 0.0
H1005 H 0.10288 0.48974 0.90139 0.0
C1006 C 0.07003 0.43442 0.87205 0.0
C1007 C 0.10335 0.46509 0.87302 0.0
C1008 C 0.12578 0.47798 0.86285 0.0
C1009 C 0.05994 0.44403 0.89174 0.0
C1010 C 0.07213 0.46396 0.90293 0.0
C1011 C 0.09359 0.4743 0.89317 0.0
C1012 C 0.06282 0.47446 0.92456 0.0
C1013 C 0.03599 0.43297 0.8999 0.0
C1014 C 0.06056 0.49825 0.9251 0.0
C1015 C 0.05131 0.50797 0.94513 0.0
C1016 C 0.04398 0.49411 0.9651 0.0
C1017 C 0.04683 0.47046 0.96475 0.0
C1018 C 0.05634 0.46085 0.94487 0.0
H1019 H 0.02621 0.42319 0.88541 0.0
H1020 H 0.0377 0.42042 0.91442 0.0
H1021 H 0.02563 0.44621 0.90654 0.0
H1022 H 0.06557 0.50926 0.90982 0.0
H1023 H 0.0494 0.52623 0.94472 0.0
H1024 H 0.60443 0.84046 0.8768 0.0
H1025 H 0.58596 0.87002 0.89725 0.0
H1026 H 0.64412 0.88258 0.9447 0.0
H1027 H 0.66259 0.85287 0.92447 0.0
H1028 H 0.60218 0.88014 0.96781 0.0
H1029 H 0.60545 0.93983 0.89059 0.0
H1030 H 0.59087 0.91105 0.88449 0.0
H1031 H 0.62139 0.91546 0.8914 0.0
C1032 C 0.61328 0.84956 0.89156 0.0
C1033 C 0.635 0.84445 0.89896 0.0
C1034 C 0.60277 0.8665 0.90316 0.0
C1035 C 0.61393 0.87885 0.92214 0.0
C1036 C 0.6353 0.87334 0.92999 0.0
H1037 H 0.57617 0.99198 1.00885 0.0
H1038 H 0.59772 0.96408 0.98936 0.0
C1039 C 0.64576 0.85629 0.9185 0.0
C1040 C 0.60321 0.89739 0.93392 0.0
H1041 H 0.58222 0.94834 0.92353 0.0
C1042 C 0.59801 0.89516 0.9582 0.0
C1043 C 0.59794 0.91706 0.92133 0.0
C1044 C 0.60441 0.92117 0.89557 0.0
C1045 C 0.58698 0.91171 0.97006 0.0
C1046 C 0.58117 0.93098 0.95731 0.0
C1047 C 0.58667 0.93344 0.93316 0.0
C1048 C 0.56854 0.94831 0.9686 0.0
C1049 C 0.58102 0.90825 0.996 0.0
C1050 C 0.5452 0.94885 0.96297 0.0
C1051 C 0.53283 0.96464 0.97407 0.0
C1052 C 0.5437 0.98035 0.99083 0.0
C1053 C 0.5673 0.98012 0.99601 0.0
C1054 C 0.57961 0.96416 0.985 0.0
H1055 H 0.58384 0.89082 1.00252 0.0
H1056 H 0.59211 0.9217 1.00638 0.0
H1057 H 0.56258 0.91033 0.99933 0.0
H1058 H 0.53644 0.93676 0.95026 0.0
H1059 H 0.51471 0.96442 0.96959 0.0
H1060 H 0.9099 0.18928 0.35006 0.0
H1061 H 0.93102 0.16201 0.37091 0.0
H1062 H 0.88681 0.16487 0.4322 0.0
H1063 H 0.86506 0.19137 0.41125 0.0
H1064 H 0.95546 0.16651 0.41331 0.0
H1065 H 0.88058 0.09519 0.41915 0.0
H1066 H 0.88071 0.12019 0.40001 0.0
H1067 H 0.87436 0.12218 0.43107 0.0
C1068 C 0.90456 0.18397 0.36792 0.0
C1069 C 0.88566 0.19238 0.37891 0.0
C1070 C 0.91674 0.16851 0.37984 0.0
C1071 C 0.9102 0.1611 0.40292 0.0
C1072 C 0.89184 0.17001 0.41421 0.0
H1073 H 0.95497 0.07408 0.51068 0.0
H1074 H 0.93718 0.1013 0.48639 0.0
C1075 C 0.87962 0.1854 0.4023 0.0
C1076 C 0.92247 0.14401 0.41524 0.0
H1077 H 0.91362 0.09074 0.44241 0.0
C1078 C 0.9464 0.14984 0.4195 0.0
C1079 C 0.9106 0.12223 0.42314 0.0
C1080 C 0.8852 0.11443 0.41793 0.0
C1081 C 0.9586 0.1348 0.43225 0.0
C1082 C 0.94655 0.11333 0.44068 0.0
C1083 C 0.92275 0.10729 0.43599 0.0
C1084 C 0.95802 0.0972 0.45524 0.0
C1085 C 0.98407 0.14226 0.43729 0.0
C1086 C 0.97558 0.08577 0.44567 0.0
C1087 C 0.98582 0.0701 0.45951 0.0
C1088 C 0.97861 0.0656 0.48314 0.0
C1089 C 0.96101 0.07714 0.49259 0.0
C1090 C 0.95078 0.09271 0.47874 0.0
H1091 H 0.98969 0.16104 0.43339 0.0
H1092 H 0.98784 0.13881 0.45609 0.0
H1093 H 0.99462 0.13206 0.42613 0.0
H1094 H 0.98116 0.08878 0.42743 0.0
H1095 H 0.9993 0.06148 0.45168 0.0
H1096 H 0.24862 0.58599 0.15246 0.0
H1097 H 0.21353 0.56811 0.13187 0.0
H1098 H 0.19304 0.63576 0.12196 0.0
H1099 H 0.22778 0.65371 0.14265 0.0
H1100 H 0.16602 0.56872 0.14137 0.0
H1101 H 0.1912 0.6104 0.05464 0.0
H1102 H 0.21162 0.60993 0.07844 0.0
H1103 H 0.1916 0.63074 0.07847 0.0
C1104 C 0.23657 0.59708 0.1461 0.0
C1105 C 0.24131 0.6214 0.14906 0.0
C1106 C 0.21653 0.58681 0.13419 0.0
C1107 C 0.20082 0.6006 0.12487 0.0
C1108 C 0.20516 0.62477 0.12838 0.0
H1109 H 0.07066 0.58101 0.04881 0.0
H1110 H 0.10677 0.59532 0.06932 0.0
C1111 C 0.22513 0.63503 0.14025 0.0
C1112 C 0.17979 0.58984 0.11163 0.0
H1113 H 0.15214 0.59135 0.05859 0.0
C1114 C 0.16308 0.57351 0.1232 0.0
C1115 C 0.17588 0.59604 0.08789 0.0
C1116 C 0.19361 0.61256 0.07402 0.0
C1117 C 0.14229 0.56386 0.11201 0.0
C1118 C 0.13822 0.57033 0.08837 0.0
C1119 C 0.15513 0.58639 0.0767 0.0
C1120 C 0.11631 0.56124 0.07562 0.0
C1121 C 0.1245 0.54743 0.12591 0.0
C1122 C 0.10967 0.53726 0.07186 0.0
C1123 C 0.08892 0.52896 0.0601 0.0
C1124 C 0.07436 0.54447 0.05165 0.0
C1125 C 0.08133 0.5685 0.05504 0.0
C1126 C 0.10203 0.57675 0.06681 0.0
H1127 H 0.12746 0.54891 0.14526 0.0
H1128 H 0.10657 0.55083 0.12219 0.0
H1129 H 0.12573 0.52926 0.12072 0.0
H1130 H 0.12059 0.52492 0.07796 0.0
H1131 H 0.08425 0.51036 0.05775 0.0
H1132 H 0.28898 0.4317 0.67452 0.0
H1133 H 0.3245 0.44936 0.65379 0.0
H1134 H 0.30076 0.41324 0.59013 0.0
H1135 H 0.26478 0.39649 0.61026 0.0
H1136 H 0.35861 0.42926 0.63378 0.0
H1137 H 0.31905 0.47797 0.56441 0.0
H1138 H 0.30271 0.46525 0.58977 0.0
H1139 H 0.30768 0.44752 0.56477 0.0
C1140 C 0.29106 0.42783 0.65598 0.0
C1141 C 0.27381 0.41263 0.64415 0.0
C1142 C 0.31153 0.43782 0.64418 0.0
C1143 C 0.31527 0.43298 0.62022 0.0
C1144 C 0.29817 0.41774 0.60842 0.0
H1145 H 0.43362 0.46765 0.52244 0.0
H1146 H 0.39673 0.45094 0.54163 0.0
C1147 C 0.27767 0.40785 0.62014 0.0
C1148 C 0.33739 0.44316 0.60788 0.0
H1149 H 0.35926 0.47495 0.55932 0.0
C1150 C 0.3587 0.43936 0.61758 0.0
C1151 C 0.33765 0.45635 0.58666 0.0
C1152 C 0.31556 0.46223 0.5759 0.0
C1153 C 0.38011 0.44803 0.60655 0.0
C1154 C 0.38033 0.46107 0.5853 0.0
C1155 C 0.35908 0.46484 0.57552 0.0
C1156 C 0.40252 0.47147 0.57339 0.0
C1157 C 0.40235 0.44285 0.61754 0.0
C1158 C 0.41787 0.48885 0.58465 0.0
C1159 C 0.43886 0.4985 0.57372 0.0
C1160 C 0.44509 0.491 0.5512 0.0
C1161 C 0.4295 0.47379 0.53979 0.0
C1162 C 0.40838 0.46423 0.55073 0.0
H1163 H 0.39909 0.42822 0.63047 0.0
H1164 H 0.41472 0.4385 0.60376 0.0
H1165 H 0.41078 0.45851 0.62702 0.0
H1166 H 0.41358 0.49501 0.60196 0.0
H1167 H 0.45028 0.51177 0.58308 0.0
H1168 H 0.76752 0.71691 0.92854 0.0
H1169 H 0.79737 0.69854 0.94825 0.0
H1170 H 0.80266 0.65532 0.88727 0.0
H1171 H 0.77187 0.67256 0.86799 0.0
H1172 H 0.80687 0.63173 0.92802 0.0
H1173 H 0.86474 0.71704 0.92886 0.0
H1174 H 0.83773 0.71671 0.94462 0.0
H1175 H 0.83762 0.71262 0.91311 0.0
C1176 C 0.77456 0.70306 0.91954 0.0
C1177 C 0.76754 0.69648 0.89648 0.0
C1178 C 0.79187 0.69281 0.93073 0.0
C1179 C 0.8027 0.67607 0.91894 0.0
C1180 C 0.79472 0.66842 0.89658 0.0
H1181 H 0.94104 0.64387 0.93263 0.0
H1182 H 0.90487 0.65776 0.92198 0.0
C1183 C 0.77726 0.67845 0.88549 0.0
C1184 C 0.82328 0.66748 0.92907 0.0
H1185 H 0.87942 0.68517 0.94581 0.0
C1186 C 0.82271 0.64339 0.93206 0.0
C1187 C 0.84403 0.68275 0.93395 0.0
C1188 C 0.84624 0.70869 0.92979 0.0
C1189 C 0.84243 0.63411 0.93948 0.0
C1190 C 0.86308 0.64942 0.94461 0.0
C1191 C 0.86351 0.67351 0.942 0.0
C1192 C 0.88487 0.64083 0.9514 0.0
C1193 C 0.84122 0.608 0.94081 0.0
C1194 C 0.88571 0.62693 0.97164 0.0
C1195 C 0.90628 0.61861 0.97756 0.0
C1196 C 0.92651 0.62433 0.96353 0.0
C1197 C 0.92571 0.63876 0.94359 0.0
C1198 C 0.90509 0.64688 0.93758 0.0
H1199 H 0.82638 0.59889 0.93057 0.0
H1200 H 0.85755 0.60254 0.93401 0.0
H1201 H 0.83878 0.60224 0.95953 0.0
H1202 H 0.87046 0.62247 0.98285 0.0
H1203 H 0.90619 0.60737 0.99292 0.0
H1204 H 0.36624 0.80366 0.15523 0.0
H1205 H 0.38263 0.84024 0.13563 0.0
H1206 H 0.44883 0.81582 0.12863 0.0
H1207 H 0.43248 0.779 0.14801 0.0
H1208 H 0.42197 0.87353 0.14887 0.0
H1209 H 0.43394 0.83584 0.0603 0.0
H1210 H 0.41535 0.82055 0.08291 0.0
H1211 H 0.44638 0.82199 0.08457 0.0
C1212 C 0.38426 0.80597 0.14941 0.0
C1213 C 0.39797 0.78823 0.15311 0.0
C1214 C 0.39365 0.82698 0.1383 0.0
C1215 C 0.41689 0.83073 0.13034 0.0
C1216 C 0.43075 0.81324 0.13429 0.0
H1217 H 0.50247 0.96053 0.08723 0.0
H1218 H 0.48533 0.92416 0.10657 0.0
C1219 C 0.42143 0.79226 0.1456 0.0
C1220 C 0.42657 0.85301 0.1181 0.0
H1221 H 0.44897 0.87573 0.06525 0.0
C1222 C 0.42787 0.874 0.13059 0.0
C1223 C 0.43402 0.85372 0.09414 0.0
C1224 C 0.43223 0.83188 0.07955 0.0
C1225 C 0.43678 0.89553 0.11994 0.0
C1226 C 0.44471 0.89618 0.09615 0.0
C1227 C 0.44302 0.87525 0.08352 0.0
C1228 C 0.45505 0.9184 0.08423 0.0
C1229 C 0.43742 0.9175 0.13415 0.0
C1230 C 0.44393 0.92723 0.06493 0.0
C1231 C 0.45366 0.9482 0.05382 0.0
C1232 C 0.47491 0.96065 0.06156 0.0
C1233 C 0.48608 0.95155 0.08075 0.0
C1234 C 0.47625 0.93074 0.09194 0.0
H1235 H 0.42611 0.91471 0.15019 0.0
H1236 H 0.45554 0.92344 0.13991 0.0
H1237 H 0.43181 0.9316 0.12327 0.0
H1238 H 0.42761 0.91798 0.05858 0.0
H1239 H 0.44461 0.95453 0.03904 0.0
H1240 H 0.0964 0.23523 0.68236 0.0
H1241 H 0.07955 0.1986 0.66376 0.0
H1242 H 0.10751 0.22451 0.59623 0.0
H1243 H 0.12401 0.26121 0.61446 0.0
H1244 H 0.04764 0.19003 0.6254 0.0
H1245 H 0.13259 0.16218 0.60356 0.0
H1246 H 0.12981 0.18504 0.62442 0.0
H1247 H 0.1296 0.19085 0.59317 0.0
C1248 C 0.09879 0.23328 0.66351 0.0
C1249 C 0.11186 0.25124 0.65004 0.0
C1250 C 0.08923 0.21223 0.65291 0.0
C1251 C 0.09263 0.20857 0.62866 0.0
C1252 C 0.10511 0.22664 0.61507 0.0
H1253 H 0.05568 0.09552 0.52923 0.0
H1254 H 0.07084 0.13174 0.54931 0.0
C1255 C 0.1146 0.24767 0.62559 0.0
C1256 C 0.08309 0.18596 0.61745 0.0
H1257 H 0.09903 0.13989 0.58723 0.0
C1258 C 0.05887 0.17898 0.61719 0.0
C1259 C 0.09771 0.17155 0.60663 0.0
C1260 C 0.12389 0.17761 0.60708 0.0
C1261 C 0.04888 0.15835 0.60591 0.0
C1262 C 0.06352 0.14392 0.59504 0.0
C1263 C 0.08775 0.15087 0.59548 0.0
C1264 C 0.05411 0.1217 0.58294 0.0
C1265 C 0.0227 0.15262 0.6051 0.0
C1266 C 0.03988 0.10368 0.59515 0.0
C1267 C 0.03106 0.08293 0.58366 0.0
C1268 C 0.03646 0.07954 0.55972 0.0
C1269 C 0.05107 0.09745 0.54765 0.0
C1270 C 0.05979 0.11823 0.55913 0.0
H1271 H 0.01421 0.16829 0.60805 0.0
H1272 H 0.01688 0.14488 0.58785 0.0
H1273 H 0.01659 0.13981 0.61929 0.0
H1274 H 0.03569 0.10559 0.61367 0.0
H1275 H 0.02003 0.06951 0.59362 0.0
H1276 H 0.73494 0.30354 0.41065 0.0
H1277 H 0.705 0.32195 0.4307 0.0
H1278 H 0.71357 0.37705 0.37851 0.0
H1279 H 0.744 0.35913 0.35869 0.0
H1280 H 0.70863 0.39234 0.42596 0.0
H1281 H 0.63972 0.31954 0.4015 0.0
H1282 H 0.66395 0.3112 0.41721 0.0
H1283 H 0.66836 0.32364 0.38806 0.0
C1284 C 0.7308 0.31982 0.40369 0.0
C1285 C 0.74172 0.32978 0.38295 0.0
C1286 C 0.71353 0.33018 0.41505 0.0
C1287 C 0.70682 0.35062 0.40583 0.0
C1288 C 0.7184 0.36118 0.38579 0.0
H1289 H 0.5797 0.40796 0.42243 0.0
H1290 H 0.61325 0.39056 0.40902 0.0
C1291 C 0.73566 0.35084 0.37441 0.0
C1292 C 0.68702 0.36045 0.41636 0.0
H1293 H 0.62815 0.34926 0.42505 0.0
C1294 C 0.69104 0.38292 0.4259 0.0
C1295 C 0.66407 0.34818 0.41593 0.0
C1296 C 0.65861 0.32438 0.40496 0.0
C1297 C 0.67265 0.39348 0.43505 0.0
C1298 C 0.64975 0.38109 0.43484 0.0
C1299 C 0.64577 0.35861 0.42534 0.0
C1300 C 0.62948 0.39152 0.44335 0.0
C1301 C 0.67775 0.41803 0.44424 0.0
C1302 C 0.62735 0.39754 0.46718 0.0
C1303 C 0.60808 0.40736 0.47496 0.0
C1304 C 0.59054 0.41122 0.45905 0.0
C1305 C 0.59268 0.40492 0.43523 0.0
C1306 C 0.61192 0.39511 0.42749 0.0
H1307 H 0.69527 0.42682 0.43858 0.0
H1308 H 0.6645 0.42855 0.43806 0.0
H1309 H 0.67715 0.41759 0.46386 0.0
H1310 H 0.64051 0.39449 0.47978 0.0
H1311 H 0.6068 0.41172 0.49347 0.0
loop_
_geom_bond_atom_site_label_1
_geom_bond_atom_site_label_2
_geom_bond_distance
_geom_bond_site_symmetry_2
_ccdc_geom_bond_type
C0 C1 1.384 . S
C0 H13 0.947 . S
C0 C35 1.382 . S
C1 C0 1.384 . S
C1 C2 1.378 . S
C2 C1 1.378 . S
C2 C3 1.378 . S
C2 H14 0.952 . S
C3 C2 1.378 . S
C3 H15 0.950 . S
C3 C34 1.383 . S
H4 C23 0.947 . S
H5 C24 0.946 . S
H6 C26 0.953 . S
H7 C27 0.945 . S
H8 C29 0.952 . S
H9 C30 0.949 . S
H10 C32 0.950 . S
H11 C33 0.948 . S
H12 C35 0.951 . S
H13 C0 0.947 . S
H14 C2 0.952 . S
H15 C3 0.950 . S
N16 C19 1.382 . S
N16 C21 1.363 . S
N17 C19 1.371 . S
N17 C20 1.372 . S
N18 C20 1.361 . S
N18 C21 1.377 . S
C19 N16 1.382 . S
C19 N17 1.371 . S
C19 C22 1.480 . S
C20 N17 1.372 . S
C20 N18 1.361 . S
C20 C28 1.457 . S
C21 N16 1.363 . S
C21 N18 1.377 . S
C21 C34 1.479 . S
C22 C19 1.480 . S
C22 C23 1.383 . S
C22 C27 1.385 . S
C23 H4 0.947 . S
C23 C22 1.383 . S
C23 C24 1.388 . S
C24 H5 0.946 . S
C24 C23 1.388 . S
C24 C25 1.384 . S
C25 C24 1.384 . S
C25 C26 1.377 . S
C26 H6 0.953 . S
C26 C25 1.377 . S
C26 C27 1.369 . S
C27 H7 0.945 . S
C27 C22 1.385 . S
C27 C26 1.369 . S
C28 C20 1.457 . S
C28 C29 1.372 . S
C28 C33 1.364 . S
C29 H8 0.952 . S
C29 C28 1.372 . S
C29 C30 1.389 . S
C30 H9 0.949 . S
C30 C29 1.389 . S
C30 C31 1.387 . S
C31 C30 1.387 . S
C31 C32 1.372 . S
C32 H10 0.950 . S
C32 C31 1.372 . S
C32 C33 1.379 . S
C33 H11 0.948 . S
C33 C28 1.364 . S
C33 C32 1.379 . S
C34 C3 1.383 . S
C34 C21 1.479 . S
C34 C35 1.398 . S
C35 C0 1.382 . S
C35 H12 0.951 . S
C35 C34 1.398 . S
C36 C37 1.384 . S
C36 H49 0.947 . S
C36 C71 1.382 . S
C37 C36 1.384 . S
C37 C38 1.378 . S
C38 C37 1.378 . S
C38 C39 1.378 . S
C38 H50 0.952 . S
C39 C38 1.378 . S
C39 H51 0.950 . S
C39 C70 1.383 . S
H40 C59 0.947 . S
H41 C60 0.946 . S
H42 C62 0.953 . S
H43 C63 0.945 . S
H44 C65 0.952 . S
H45 C66 0.949 . S
H46 C68 0.950 . S
H47 C69 0.948 . S
H48 C71 0.951 . S
H49 C36 0.947 . S
H50 C38 0.952 . S
H51 C39 0.950 . S
N52 C55 1.382 . S
N52 C57 1.363 . S
N53 C55 1.371 . S
N53 C56 1.372 . S
N54 C56 1.361 . S
N54 C57 1.377 . S
C55 N52 1.382 . S
C55 N53 1.371 . S
C55 C58 1.480 . S
C56 N53 1.372 . S
C56 N54 1.361 . S
C56 C64 1.457 . S
C57 N52 1.363 . S
C57 N54 1.377 . S
C57 C70 1.479 . S
C58 C55 1.480 . S
C58 C59 1.383 . S
C58 C63 1.385 . S
C59 H40 0.947 . S
C59 C58 1.383 . S
C59 C60 1.388 . S
C60 H41 0.946 . S
C60 C59 1.388 . S
C60 C61 1.384 . S
C61 C60 1.384 . S
C61 C62 1.377 . S
C62 H42 0.953 . S
C62 C61 1.377 . S
C62 C63 1.369 . S
C63 H43 0.945 . S
C63 C58 1.385 . S
C63 C62 1.369 . S
C64 C56 1.457 . S
C64 C65 1.372 . S
C64 C69 1.364 . S
C65 H44 0.952 . S
C65 C64 1.372 . S
C65 C66 1.389 . S
C66 H45 0.949 . S
C66 C65 1.389 . S
C66 C67 1.387 . S
C67 C66 1.387 . S
C67 C68 1.372 . S
C68 H46 0.950 . S
C68 C67 1.372 . S
C68 C69 1.379 . S
C69 H47 0.948 . S
C69 C64 1.364 . S
C69 C68 1.379 . S
C70 C39 1.383 . S
C70 C57 1.479 . S
C70 C71 1.398 . S
C71 C36 1.382 . S
C71 H48 0.951 . S
C71 C70 1.398 . S
C72 C73 1.384 . S
C72 H85 0.947 . S
C72 C107 1.382 . S
C73 C72 1.384 . S
C73 C74 1.378 . S
C74 C73 1.378 . S
C74 C75 1.378 . S
C74 H86 0.952 . S
C75 C74 1.378 . S
C75 H87 0.950 . S
C75 C106 1.383 . S
H76 C95 0.947 . S
H77 C96 0.946 . S
H78 C98 0.953 . S
H79 C99 0.945 . S
H80 C101 0.952 . S
H81 C102 0.949 . S
H82 C104 0.950 . S
H83 C105 0.948 . S
H84 C107 0.951 . S
H85 C72 0.947 . S
H86 C74 0.952 . S
H87 C75 0.950 . S
N88 C91 1.382 . S
N88 C93 1.363 . S
N89 C91 1.371 . S
N89 C92 1.372 . S
N90 C92 1.361 . S
N90 C93 1.377 . S
C91 N88 1.382 . S
C91 N89 1.371 . S
C91 C94 1.480 . S
C92 N89 1.372 . S
C92 N90 1.361 . S
C92 C100 1.457 . S
C93 N88 1.363 . S
C93 N90 1.377 . S
C93 C106 1.479 . S
C94 C91 1.480 . S
C94 C95 1.383 . S
C94 C99 1.385 . S
C95 H76 0.947 . S
C95 C94 1.383 . S
C95 C96 1.388 . S
C96 H77 0.946 . S
C96 C95 1.388 . S
C96 C97 1.384 . S
C97 C96 1.384 . S
C97 C98 1.377 . S
C98 H78 0.953 . S
C98 C97 1.377 . S
C98 C99 1.369 . S
C99 H79 0.945 . S
C99 C94 1.385 . S
C99 C98 1.369 . S
C100 C92 1.457 . S
C100 C101 1.372 . S
C100 C105 1.364 . S
C101 H80 0.952 . S
C101 C100 1.372 . S
C101 C102 1.389 . S
C102 H81 0.949 . S
C102 C101 1.389 . S
C102 C103 1.387 . S
C103 C102 1.387 . S
C103 C104 1.372 . S
C104 H82 0.950 . S
C104 C103 1.372 . S
C104 C105 1.379 . S
C105 H83 0.948 . S
C105 C100 1.364 . S
C105 C104 1.379 . S
C106 C75 1.383 . S
C106 C93 1.479 . S
C106 C107 1.398 . S
C107 C72 1.382 . S
C107 H84 0.951 . S
C107 C106 1.398 . S
C108 C109 1.384 . S
C108 H121 0.947 . S
C108 C143 1.382 . S
C109 C108 1.384 . S
C109 C110 1.378 . S
C110 C109 1.378 . S
C110 C111 1.378 . S
C110 H122 0.952 . S
C111 C110 1.378 . S
C111 H123 0.950 . S
C111 C142 1.383 . S
H112 C131 0.947 . S
H113 C132 0.946 . S
H114 C134 0.953 . S
H115 C135 0.945 . S
H116 C137 0.952 . S
H117 C138 0.949 . S
H118 C140 0.950 . S
H119 C141 0.948 . S
H120 C143 0.951 . S
H121 C108 0.947 . S
H122 C110 0.952 . S
H123 C111 0.950 . S
N124 C127 1.382 . S
N124 C129 1.363 . S
N125 C127 1.371 . S
N125 C128 1.372 . S
N126 C128 1.361 . S
N126 C129 1.377 . S
C127 N124 1.382 . S
C127 N125 1.371 . S
C127 C130 1.480 . S
C128 N125 1.372 . S
C128 N126 1.361 . S
C128 C136 1.457 . S
C129 N124 1.363 . S
C129 N126 1.377 . S
C129 C142 1.479 . S
C130 C127 1.480 . S
C130 C131 1.383 . S
C130 C135 1.385 . S
C131 H112 0.947 . S
C131 C130 1.383 . S
C131 C132 1.388 . S
C132 H113 0.946 . S
C132 C131 1.388 . S
C132 C133 1.384 . S
C133 C132 1.384 . S
C133 C134 1.377 . S
C134 H114 0.953 . S
C134 C133 1.377 . S
C134 C135 1.369 . S
C135 H115 0.945 . S
C135 C130 1.385 . S
C135 C134 1.369 . S
C136 C128 1.457 . S
C136 C137 1.372 . S
C136 C141 1.364 . S
C137 H116 0.952 . S
C137 C136 1.372 . S
C137 C138 1.389 . S
C138 H117 0.949 . S
C138 C137 1.389 . S
C138 C139 1.387 . S
C139 C138 1.387 . S
C139 C140 1.372 . S
C140 H118 0.950 . S
C140 C139 1.372 . S
C140 C141 1.379 . S
C141 H119 0.948 . S
C141 C136 1.364 . S
C141 C140 1.379 . S
C142 C111 1.383 . S
C142 C129 1.479 . S
C142 C143 1.398 . S
C143 C108 1.382 . S
C143 H120 0.951 . S
C143 C142 1.398 . S
C144 C145 1.384 . S
C144 H157 0.947 . S
C144 C179 1.382 . S
C145 C144 1.384 . S
C145 C146 1.378 . S
C146 C145 1.378 . S
C146 C147 1.378 . S
C146 H158 0.952 . S
C147 C146 1.378 . S
C147 H159 0.950 . S
C147 C178 1.383 . S
H148 C167 0.947 . S
H149 C168 0.946 . S
H150 C170 0.953 . S
H151 C171 0.945 . S
H152 C173 0.952 . S
H153 C174 0.949 . S
H154 C176 0.950 . S
H155 C177 0.948 . S
H156 C179 0.951 . S
H157 C144 0.947 . S
H158 C146 0.952 . S
H159 C147 0.950 . S
N160 C163 1.382 . S
N160 C165 1.363 . S
N161 C163 1.371 . S
N161 C164 1.372 . S
N162 C164 1.361 . S
N162 C165 1.377 . S
C163 N160 1.382 . S
C163 N161 1.371 . S
C163 C166 1.480 . S
C164 N161 1.372 . S
C164 N162 1.361 . S
C164 C172 1.457 . S
C165 N160 1.363 . S
C165 N162 1.377 . S
C165 C178 1.479 . S
C166 C163 1.480 . S
C166 C167 1.383 . S
C166 C171 1.385 . S
C167 H148 0.947 . S
C167 C166 1.383 . S
C167 C168 1.388 . S
C168 H149 0.946 . S
C168 C167 1.388 . S
C168 C169 1.384 . S
C169 C168 1.384 . S
C169 C170 1.377 . S
C170 H150 0.953 . S
C170 C169 1.377 . S
C170 C171 1.369 . S
C171 H151 0.945 . S
C171 C166 1.385 . S
C171 C170 1.369 . S
C172 C164 1.457 . S
C172 C173 1.372 . S
C172 C177 1.364 . S
C173 H152 0.952 . S
C173 C172 1.372 . S
C173 C174 1.389 . S
C174 H153 0.949 . S
C174 C173 1.389 . S
C174 C175 1.387 . S
C175 C174 1.387 . S
C175 C176 1.372 . S
C176 H154 0.950 . S
C176 C175 1.372 . S
C176 C177 1.379 . S
C177 H155 0.948 . S
C177 C172 1.364 . S
C177 C176 1.379 . S
C178 C147 1.383 . S
C178 C165 1.479 . S
C178 C179 1.398 . S
C179 C144 1.382 . S
C179 H156 0.951 . S
C179 C178 1.398 . S
C180 C181 1.384 . S
C180 H193 0.947 . S
C180 C215 1.382 . S
C181 C180 1.384 . S
C181 C182 1.378 . S
C182 C181 1.378 . S
C182 C183 1.378 . S
C182 H194 0.952 . S
C183 C182 1.378 . S
C183 H195 0.950 . S
C183 C214 1.383 . S
H184 C203 0.947 . S
H185 C204 0.946 . S
H186 C206 0.953 . S
H187 C207 0.945 . S
H188 C209 0.952 . S
H189 C210 0.949 . S
H190 C212 0.950 . S
H191 C213 0.948 . S
H192 C215 0.951 . S
H193 C180 0.947 . S
H194 C182 0.952 . S
H195 C183 0.950 . S
N196 C199 1.382 . S
N196 C201 1.363 . S
N197 C199 1.371 . S
N197 C200 1.372 . S
N198 C200 1.361 . S
N198 C201 1.377 . S
C199 N196 1.382 . S
C199 N197 1.371 . S
C199 C202 1.480 . S
C200 N197 1.372 . S
C200 N198 1.361 . S
C200 C208 1.457 . S
C201 N196 1.363 . S
C201 N198 1.377 . S
C201 C214 1.479 . S
C202 C199 1.480 . S
C202 C203 1.383 . S
C202 C207 1.385 . S
C203 H184 0.947 . S
C203 C202 1.383 . S
C203 C204 1.388 . S
C204 H185 0.946 . S
C204 C203 1.388 . S
C204 C205 1.384 . S
C205 C204 1.384 . S
C205 C206 1.377 . S
C206 H186 0.953 . S
C206 C205 1.377 . S
C206 C207 1.369 . S
C207 H187 0.945 . S
C207 C202 1.385 . S
C207 C206 1.369 . S
C208 C200 1.457 . S
C208 C209 1.372 . S
C208 C213 1.364 . S
C209 H188 0.952 . S
C209 C208 1.372 . S
C209 C210 1.389 . S
C210 H189 0.949 . S
C210 C209 1.389 . S
C210 C211 1.387 . S
C211 C210 1.387 . S
C211 C212 1.372 . S
C212 H190 0.950 . S
C212 C211 1.372 . S
C212 C213 1.379 . S
C213 H191 0.948 . S
C213 C208 1.364 . S
C213 C212 1.379 . S
C214 C183 1.383 . S
C214 C201 1.479 . S
C214 C215 1.398 . S
C215 C180 1.382 . S
C215 H192 0.951 . S
C215 C214 1.398 . S
C216 C217 1.384 . S
C216 H229 0.947 . S
C216 C251 1.382 . S
C217 C216 1.384 . S
C217 C218 1.378 . S
C218 C217 1.378 . S
C218 C219 1.378 . S
C218 H230 0.952 . S
C219 C218 1.378 . S
C219 H231 0.950 . S
C219 C250 1.383 . S
H220 C239 0.947 . S
H221 C240 0.946 . S
H222 C242 0.953 . S
H223 C243 0.945 . S
H224 C245 0.952 . S
H225 C246 0.949 . S
H226 C248 0.950 . S
H227 C249 0.948 . S
H228 C251 0.951 . S
H229 C216 0.947 . S
H230 C218 0.952 . S
H231 C219 0.950 . S
N232 C235 1.382 . S
N232 C237 1.363 . S
N233 C235 1.371 . S
N233 C236 1.372 . S
N234 C236 1.361 . S
N234 C237 1.377 . S
C235 N232 1.382 . S
C235 N233 1.371 . S
C235 C238 1.480 . S
C236 N233 1.372 . S
C236 N234 1.361 . S
C236 C244 1.457 . S
C237 N232 1.363 . S
C237 N234 1.377 . S
C237 C250 1.479 . S
C238 C235 1.480 . S
C238 C239 1.383 . S
C238 C243 1.385 . S
C239 H220 0.947 . S
C239 C238 1.383 . S
C239 C240 1.388 . S
C240 H221 0.946 . S
C240 C239 1.388 . S
C240 C241 1.384 . S
C241 C240 1.384 . S
C241 C242 1.377 . S
C242 H222 0.953 . S
C242 C241 1.377 . S
C242 C243 1.369 . S
C243 H223 0.945 . S
C243 C238 1.385 . S
C243 C242 1.369 . S
C244 C236 1.457 . S
C244 C245 1.372 . S
C244 C249 1.364 . S
C245 H224 0.952 . S
C245 C244 1.372 . S
C245 C246 1.389 . S
C246 H225 0.949 . S
C246 C245 1.389 . S
C246 C247 1.387 . S
C247 C246 1.387 . S
C247 C248 1.372 . S
C248 H226 0.950 . S
C248 C247 1.372 . S
C248 C249 1.379 . S
C249 H227 0.948 . S
C249 C244 1.364 . S
C249 C248 1.379 . S
C250 C219 1.383 . S
C250 C237 1.479 . S
C250 C251 1.398 . S
C251 C216 1.382 . S
C251 H228 0.951 . S
C251 C250 1.398 . S
C252 C253 1.384 . S
C252 H265 0.947 . S
C252 C287 1.382 . S
C253 C252 1.384 . S
C253 C254 1.378 . S
C254 C253 1.378 . S
C254 C255 1.378 . S
C254 H266 0.952 . S
C255 C254 1.378 . S
C255 H267 0.950 . S
C255 C286 1.383 . S
H256 C275 0.947 . S
H257 C276 0.946 . S
H258 C278 0.953 . S
H259 C279 0.945 . S
H260 C281 0.952 . S
H261 C282 0.949 . S
H262 C284 0.950 . S
H263 C285 0.948 . S
H264 C287 0.951 . S
H265 C252 0.947 . S
H266 C254 0.952 . S
H267 C255 0.950 . S
N268 C271 1.382 . S
N268 C273 1.363 . S
N269 C271 1.371 . S
N269 C272 1.372 . S
N270 C272 1.361 . S
N270 C273 1.377 . S
C271 N268 1.382 . S
C271 N269 1.371 . S
C271 C274 1.480 . S
C272 N269 1.372 . S
C272 N270 1.361 . S
C272 C280 1.457 . S
C273 N268 1.363 . S
C273 N270 1.377 . S
C273 C286 1.479 . S
C274 C271 1.480 . S
C274 C275 1.383 . S
C274 C279 1.385 . S
C275 H256 0.947 . S
C275 C274 1.383 . S
C275 C276 1.388 . S
C276 H257 0.946 . S
C276 C275 1.388 . S
C276 C277 1.384 . S
C277 C276 1.384 . S
C277 C278 1.377 . S
C278 H258 0.953 . S
C278 C277 1.377 . S
C278 C279 1.369 . S
C279 H259 0.945 . S
C279 C274 1.385 . S
C279 C278 1.369 . S
C280 C272 1.457 . S
C280 C281 1.372 . S
C280 C285 1.364 . S
C281 H260 0.952 . S
C281 C280 1.372 . S
C281 C282 1.389 . S
C282 H261 0.949 . S
C282 C281 1.389 . S
C282 C283 1.387 . S
C283 C282 1.387 . S
C283 C284 1.372 . S
C284 H262 0.950 . S
C284 C283 1.372 . S
C284 C285 1.379 . S
C285 H263 0.948 . S
C285 C280 1.364 . S
C285 C284 1.379 . S
C286 C255 1.383 . S
C286 C273 1.479 . S
C286 C287 1.398 . S
C287 C252 1.382 . S
C287 H264 0.951 . S
C287 C286 1.398 . S
Tb288 C297 2.764 . S
Tb288 O298 2.325 1_455 S
Tb288 O301 2.303 . S
Tb288 O305 2.322 1_545 S
Tb288 O306 2.349 1_545 S
Tb288 O309 2.415 . S
Tb288 O310 2.399 . S
Tb289 O299 2.342 . S
Tb289 O300 2.373 . S
Tb289 O302 2.390 1_545 S
Tb289 O303 2.396 1_545 S
Tb289 O304 2.309 1_645 S
Tb289 O307 2.285 1_545 S
Tb289 C318 2.748 1_545 S
C290 O306 1.261 1_655 S
C290 O307 1.257 . S
C291 C294 1.358 . S
C291 C295 1.332 . S
C291 C297 1.504 . S
C292 C293 1.373 . S
C292 C296 1.308 . S
C293 C292 1.373 . S
C293 C294 1.429 . S
C293 H320 0.932 . S
C294 C291 1.358 . S
C294 C293 1.429 . S
C294 H321 0.930 . S
C295 C291 1.332 . S
C295 C296 1.394 . S
C295 H322 0.932 . S
C296 C292 1.308 . S
C296 C295 1.394 . S
C296 H323 0.929 . S
C297 Tb288 2.764 . S
C297 C291 1.504 . S
C297 O309 1.239 . S
C297 O310 1.263 . S
O298 Tb288 2.325 1_655 S
O298 C308 1.236 . S
O299 Tb289 2.342 . S
O299 C308 1.257 . S
O300 Tb289 2.373 . S
O300 C311 1.261 1_655 S
O301 Tb288 2.303 . S
O301 C311 1.257 . S
O302 Tb289 2.390 1_565 S
O302 C318 1.239 . S
O303 Tb289 2.396 1_565 S
O303 C318 1.263 . S
O304 Tb289 2.309 1_465 S
O304 C319 1.236 . S
O305 Tb288 2.322 1_565 S
O305 C319 1.257 . S
O306 Tb288 2.349 1_565 S
O306 C290 1.261 1_455 S
O307 Tb289 2.285 1_565 S
O307 C290 1.257 . S
C308 O298 1.236 . S
C308 O299 1.257 . S
O309 Tb288 2.415 . S
O309 C297 1.239 . S
O310 Tb288 2.399 . S
O310 C297 1.263 . S
C311 O300 1.261 1_455 S
C311 O301 1.257 . S
C312 C315 1.358 . S
C312 C316 1.332 . S
C312 C318 1.504 . S
C313 C314 1.373 . S
C313 C317 1.308 . S
C314 C313 1.373 . S
C314 C315 1.429 . S
C314 H324 0.932 . S
C315 C312 1.358 . S
C315 C314 1.429 . S
C315 H325 0.930 . S
C316 C312 1.332 . S
C316 C317 1.394 . S
C316 H326 0.932 . S
C317 C313 1.308 . S
C317 C316 1.394 . S
C317 H327 0.929 . S
C318 Tb289 2.748 1_565 S
C318 O302 1.239 . S
C318 O303 1.263 . S
C318 C312 1.504 . S
C319 O304 1.236 . S
C319 O305 1.257 . S
H320 C293 0.932 . S
H321 C294 0.930 . S
H322 C295 0.932 . S
H323 C296 0.929 . S
H324 C314 0.932 . S
H325 C315 0.930 . S
H326 C316 0.932 . S
H327 C317 0.929 . S
Tb328 C337 2.764 . S
Tb328 O338 2.325 1_554 S
Tb328 O341 2.303 . S
Tb328 O345 2.322 1_545 S
Tb328 O346 2.370 1_545 S
Tb328 O349 2.415 . S
Tb328 O350 2.399 . S
Tb329 O339 2.290 1_565 S
Tb329 O340 2.319 1_566 S
Tb329 O342 2.449 . S
Tb329 O343 2.411 . S
Tb329 O344 2.354 1_556 S
Tb329 O347 2.321 . S
Tb329 C358 2.789 . S
C330 O346 1.234 1_556 S
C330 O347 1.257 . S
C331 C334 1.358 . S
C331 C335 1.332 . S
C331 C337 1.504 . S
C332 C333 1.373 . S
C332 C336 1.308 . S
C333 C332 1.373 . S
C333 C334 1.429 . S
C333 H360 0.932 . S
C334 C331 1.358 . S
C334 C333 1.429 . S
C334 H361 0.930 . S
C335 C331 1.332 . S
C335 C336 1.394 . S
C335 H362 0.932 . S
C336 C332 1.308 . S
C336 C335 1.394 . S
C336 H363 0.929 . S
C337 Tb328 2.764 . S
C337 C331 1.504 . S
C337 O349 1.239 . S
C337 O350 1.263 . S
O338 Tb328 2.325 1_556 S
O338 C348 1.236 . S
O339 Tb329 2.290 1_545 S
O339 C348 1.257 . S
O340 Tb329 2.319 1_544 S
O340 C351 1.270 . S
O341 Tb328 2.303 . S
O341 C351 1.257 . S
O342 Tb329 2.449 . S
O342 C358 1.239 . S
O343 Tb329 2.411 . S
O343 C358 1.263 . S
O344 Tb329 2.354 1_554 S
O344 C359 1.236 . S
O345 Tb328 2.322 1_565 S
O345 C359 1.257 . S
O346 Tb328 2.370 1_565 S
O346 C330 1.234 1_554 S
O347 Tb329 2.321 . S
O347 C330 1.257 . S
C348 O338 1.236 . S
C348 O339 1.257 . S
O349 Tb328 2.415 . S
O349 C337 1.239 . S
O350 Tb328 2.399 . S
O350 C337 1.263 . S
C351 O340 1.270 . S
C351 O341 1.257 . S
C352 C355 1.358 . S
C352 C356 1.332 . S
C352 C358 1.504 . S
C353 C354 1.373 . S
C353 C357 1.308 . S
C354 C353 1.373 . S
C354 C355 1.429 . S
C354 H364 0.932 . S
C355 C352 1.358 . S
C355 C354 1.429 . S
C355 H365 0.930 . S
C356 C352 1.332 . S
C356 C357 1.394 . S
C356 H366 0.932 . S
C357 C353 1.308 . S
C357 C356 1.394 . S
C357 H367 0.929 . S
C358 Tb329 2.789 . S
C358 O342 1.239 . S
C358 O343 1.263 . S
C358 C352 1.504 . S
C359 O344 1.236 . S
C359 O345 1.257 . S
H360 C333 0.932 . S
H361 C334 0.930 . S
H362 C335 0.932 . S
H363 C336 0.929 . S
H364 C354 0.932 . S
H365 C355 0.930 . S
H366 C356 0.932 . S
H367 C357 0.929 . S
Tb368 C377 2.764 . S
Tb368 O378 2.325 . S
Tb368 O381 2.303 . S
Tb368 O385 2.322 . S
Tb368 O386 2.349 . S
Tb368 O389 2.415 . S
Tb368 O390 2.399 . S
Tb369 O379 2.322 . S
Tb369 O380 2.349 . S
Tb369 O382 2.415 . S
Tb369 O383 2.399 . S
Tb369 O384 2.325 . S
Tb369 O387 2.303 . S
Tb369 C398 2.764 . S
C370 O386 1.261 . S
C370 O387 1.257 . S
C371 C374 1.358 . S
C371 C375 1.332 . S
C371 C377 1.504 . S
C372 C373 1.373 . S
C372 C376 1.308 . S
C373 C372 1.373 . S
C373 C374 1.429 . S
C373 H400 0.932 . S
C374 C371 1.358 . S
C374 C373 1.429 . S
C374 H401 0.930 . S
C375 C371 1.332 . S
C375 C376 1.394 . S
C375 H402 0.932 . S
C376 C372 1.308 . S
C376 C375 1.394 . S
C376 H403 0.929 . S
C377 Tb368 2.764 . S
C377 C371 1.504 . S
C377 O389 1.239 . S
C377 O390 1.263 . S
O378 Tb368 2.325 . S
O378 C388 1.236 . S
O379 Tb369 2.322 . S
O379 C388 1.257 . S
O380 Tb369 2.349 . S
O380 C391 1.261 . S
O381 Tb368 2.303 . S
O381 C391 1.257 . S
O382 Tb369 2.415 . S
O382 C398 1.239 . S
O383 Tb369 2.399 . S
O383 C398 1.263 . S
O384 Tb369 2.325 . S
O384 C399 1.236 . S
O385 Tb368 2.322 . S
O385 C399 1.257 . S
O386 Tb368 2.349 . S
O386 C370 1.261 . S
O387 Tb369 2.303 . S
O387 C370 1.257 . S
C388 O378 1.236 . S
C388 O379 1.257 . S
O389 Tb368 2.415 . S
O389 C377 1.239 . S
O390 Tb368 2.399 . S
O390 C377 1.263 . S
C391 O380 1.261 . S
C391 O381 1.257 . S
C392 C395 1.358 . S
C392 C396 1.332 . S
C392 C398 1.504 . S
C393 C394 1.373 . S
C393 C397 1.308 . S
C394 C393 1.373 . S
C394 C395 1.429 . S
C394 H404 0.932 . S
C395 C392 1.358 . S
C395 C394 1.429 . S
C395 H405 0.930 . S
C396 C392 1.332 . S
C396 C397 1.394 . S
C396 H406 0.932 . S
C397 C393 1.308 . S
C397 C396 1.394 . S
C397 H407 0.929 . S
C398 Tb369 2.764 . S
C398 O382 1.239 . S
C398 O383 1.263 . S
C398 C392 1.504 . S
C399 O384 1.236 . S
C399 O385 1.257 . S
H400 C373 0.932 . S
H401 C374 0.930 . S
H402 C375 0.932 . S
H403 C376 0.929 . S
H404 C394 0.932 . S
H405 C395 0.930 . S
H406 C396 0.932 . S
H407 C397 0.929 . S
Tb408 C417 2.776 . S
Tb408 O418 2.336 . S
Tb408 O421 2.306 1_556 S
Tb408 O425 2.291 1_656 S
Tb408 O426 2.342 1_655 S
Tb408 O429 2.429 . S
Tb408 O430 2.407 . S
Tb409 O419 2.322 1_455 S
Tb409 O420 2.349 1_455 S
Tb409 O422 2.415 . S
Tb409 O423 2.399 . S
Tb409 O424 2.325 . S
Tb409 O427 2.303 1_554 S
Tb409 C438 2.764 . S
C410 O426 1.261 . S
C410 O427 1.257 . S
C411 C414 1.358 . S
C411 C415 1.332 . S
C411 C417 1.504 . S
C412 C413 1.373 . S
C412 C416 1.308 . S
C413 C412 1.373 . S
C413 C414 1.429 . S
C413 H440 0.932 . S
C414 C411 1.358 . S
C414 C413 1.429 . S
C414 H441 0.930 . S
C415 C411 1.332 . S
C415 C416 1.394 . S
C415 H442 0.932 . S
C416 C412 1.308 . S
C416 C415 1.394 . S
C416 H443 0.929 . S
C417 Tb408 2.776 . S
C417 C411 1.504 . S
C417 O429 1.239 . S
C417 O430 1.263 . S
O418 Tb408 2.336 . S
O418 C428 1.236 . S
O419 Tb409 2.322 1_655 S
O419 C428 1.257 1_554 S
O420 Tb409 2.349 1_655 S
O420 C431 1.261 . S
O421 Tb408 2.306 1_554 S
O421 C431 1.257 . S
O422 Tb409 2.415 . S
O422 C438 1.239 . S
O423 Tb409 2.399 . S
O423 C438 1.263 . S
O424 Tb409 2.325 . S
O424 C439 1.236 . S
O425 Tb408 2.291 1_454 S
O425 C439 1.285 . S
O426 Tb408 2.342 1_455 S
O426 C410 1.261 . S
O427 Tb409 2.303 1_556 S
O427 C410 1.257 . S
C428 O418 1.236 . S
C428 O419 1.257 1_556 S
O429 Tb408 2.429 . S
O429 C417 1.239 . S
O430 Tb408 2.407 . S
O430 C417 1.263 . S
C431 O420 1.261 . S
C431 O421 1.257 . S
C432 C435 1.358 . S
C432 C436 1.332 . S
C432 C438 1.504 . S
C433 C434 1.373 . S
C433 C437 1.308 . S
C434 C433 1.373 . S
C434 C435 1.429 . S
C434 H444 0.932 . S
C435 C432 1.358 . S
C435 C434 1.429 . S
C435 H445 0.930 . S
C436 C432 1.332 . S
C436 C437 1.394 . S
C436 H446 0.932 . S
C437 C433 1.308 . S
C437 C436 1.394 . S
C437 H447 0.929 . S
C438 Tb409 2.764 . S
C438 O422 1.239 . S
C438 O423 1.263 . S
C438 C432 1.504 . S
C439 O424 1.236 . S
C439 O425 1.285 . S
H440 C413 0.932 . S
H441 C414 0.930 . S
H442 C415 0.932 . S
H443 C416 0.929 . S
H444 C434 0.932 . S
H445 C435 0.930 . S
H446 C436 0.932 . S
H447 C437 0.929 . S
H448 C456 0.929 . S
H449 C458 0.930 . S
H450 C460 0.930 . S
H451 C463 0.929 . S
H452 C466 0.930 . S
H453 C468 0.960 . S
H454 C468 0.960 . S
H455 C468 0.960 . S
C456 H448 0.929 . S
C456 C457 1.377 . S
C456 C458 1.384 . S
C457 C456 1.377 . S
C457 C463 1.390 . S
C458 H449 0.930 . S
C458 C456 1.384 . S
C458 C459 1.372 . S
C459 C458 1.372 . S
C459 C460 1.400 . S
C459 C464 1.490 . S
C460 H450 0.930 . S
C460 C459 1.400 . S
C460 C463 1.386 . S
H461 C477 0.930 . S
H462 C478 0.931 . S
C463 H451 0.929 . S
C463 C457 1.390 . S
C463 C460 1.386 . S
C464 C459 1.490 . S
C464 C466 1.395 . S
C464 C467 1.403 . S
H465 C471 0.930 . S
C466 H452 0.930 . S
C466 C464 1.395 . S
C466 C469 1.403 . S
C467 C464 1.403 . S
C467 C468 1.524 . S
C467 C471 1.400 . S
C468 H453 0.960 . S
C468 H454 0.960 . S
C468 H455 0.960 . S
C468 C467 1.524 . S
C469 C466 1.403 . S
C469 C470 1.392 . S
C469 C473 1.495 . S
C470 C469 1.392 . S
C470 C471 1.385 . S
C470 C472 1.478 . S
C471 H465 0.930 . S
C471 C467 1.400 . S
C471 C470 1.385 . S
C472 C470 1.478 . S
C472 C474 1.381 . S
C472 C478 1.383 . S
C473 C469 1.495 . S
C473 H479 0.959 . S
C473 H480 0.961 . S
C473 H481 0.960 . S
C474 C472 1.381 . S
C474 C475 1.394 . S
C474 H482 0.930 . S
C475 C474 1.394 . S
C475 C476 1.383 . S
C475 H483 0.929 . S
C476 C475 1.383 . S
C476 C477 1.377 . S
C477 H461 0.930 . S
C477 C476 1.377 . S
C477 C478 1.379 . S
C478 H462 0.931 . S
C478 C472 1.383 . S
C478 C477 1.379 . S
H479 C473 0.959 . S
H480 C473 0.961 . S
H481 C473 0.960 . S
H482 C474 0.930 . S
H483 C475 0.929 . S
H484 C492 0.929 . S
H485 C494 0.930 . S
H486 C496 0.930 . S
H487 C499 0.929 . S
H488 C502 0.930 . S
H489 C504 0.960 . S
H490 C504 0.960 . S
H491 C504 0.960 . S
C492 H484 0.929 . S
C492 C493 1.377 . S
C492 C494 1.384 . S
C493 C492 1.377 . S
C493 C499 1.390 . S
C494 H485 0.930 . S
C494 C492 1.384 . S
C494 C495 1.372 . S
C495 C494 1.372 . S
C495 C496 1.400 . S
C495 C500 1.490 . S
C496 H486 0.930 . S
C496 C495 1.400 . S
C496 C499 1.386 . S
H497 C513 0.930 . S
H498 C514 0.931 . S
C499 H487 0.929 . S
C499 C493 1.390 . S
C499 C496 1.386 . S
C500 C495 1.490 . S
C500 C502 1.395 . S
C500 C503 1.403 . S
H501 C507 0.930 . S
C502 H488 0.930 . S
C502 C500 1.395 . S
C502 C505 1.403 . S
C503 C500 1.403 . S
C503 C504 1.524 . S
C503 C507 1.400 . S
C504 H489 0.960 . S
C504 H490 0.960 . S
C504 H491 0.960 . S
C504 C503 1.524 . S
C505 C502 1.403 . S
C505 C506 1.392 . S
C505 C509 1.495 . S
C506 C505 1.392 . S
C506 C507 1.385 . S
C506 C508 1.478 . S
C507 H501 0.930 . S
C507 C503 1.400 . S
C507 C506 1.385 . S
C508 C506 1.478 . S
C508 C510 1.381 . S
C508 C514 1.383 . S
C509 C505 1.495 . S
C509 H515 0.959 . S
C509 H516 0.961 . S
C509 H517 0.960 . S
C510 C508 1.381 . S
C510 C511 1.394 . S
C510 H518 0.930 . S
C511 C510 1.394 . S
C511 C512 1.383 . S
C511 H519 0.929 . S
C512 C511 1.383 . S
C512 C513 1.377 . S
C513 H497 0.930 . S
C513 C512 1.377 . S
C513 C514 1.379 . S
C514 H498 0.931 . S
C514 C508 1.383 . S
C514 C513 1.379 . S
H515 C509 0.959 . S
H516 C509 0.961 . S
H517 C509 0.960 . S
H518 C510 0.930 . S
H519 C511 0.929 . S
H520 C528 0.929 . S
H521 C530 0.930 . S
H522 C532 0.930 . S
H523 C535 0.929 . S
H524 C538 0.930 . S
H525 C540 0.960 . S
H526 C540 0.960 . S
H527 C540 0.960 . S
C528 H520 0.929 . S
C528 C529 1.377 . S
C528 C530 1.384 . S
C529 C528 1.377 . S
C529 C535 1.390 . S
C530 H521 0.930 . S
C530 C528 1.384 . S
C530 C531 1.372 . S
C531 C530 1.372 . S
C531 C532 1.400 . S
C531 C536 1.490 . S
C532 H522 0.930 . S
C532 C531 1.400 . S
C532 C535 1.386 . S
H533 C549 0.930 . S
H534 C550 0.931 . S
C535 H523 0.929 . S
C535 C529 1.390 . S
C535 C532 1.386 . S
C536 C531 1.490 . S
C536 C538 1.395 . S
C536 C539 1.403 . S
H537 C543 0.930 . S
C538 H524 0.930 . S
C538 C536 1.395 . S
C538 C541 1.403 . S
C539 C536 1.403 . S
C539 C540 1.524 . S
C539 C543 1.400 . S
C540 H525 0.960 . S
C540 H526 0.960 . S
C540 H527 0.960 . S
C540 C539 1.524 . S
C541 C538 1.403 . S
C541 C542 1.392 . S
C541 C545 1.495 . S
C542 C541 1.392 . S
C542 C543 1.385 . S
C542 C544 1.478 . S
C543 H537 0.930 . S
C543 C539 1.400 . S
C543 C542 1.385 . S
C544 C542 1.478 . S
C544 C546 1.381 . S
C544 C550 1.383 . S
C545 C541 1.495 . S
C545 H551 0.959 . S
C545 H552 0.961 . S
C545 H553 0.960 . S
C546 C544 1.381 . S
C546 C547 1.394 . S
C546 H554 0.930 . S
C547 C546 1.394 . S
C547 C548 1.383 . S
C547 H555 0.929 . S
C548 C547 1.383 . S
C548 C549 1.377 . S
C549 H533 0.930 . S
C549 C548 1.377 . S
C549 C550 1.379 . S
C550 H534 0.931 . S
C550 C544 1.383 . S
C550 C549 1.379 . S
H551 C545 0.959 . S
H552 C545 0.961 . S
H553 C545 0.960 . S
H554 C546 0.930 . S
H555 C547 0.929 . S
H556 C564 0.929 . S
H557 C566 0.930 . S
H558 C568 0.930 . S
H559 C571 0.929 . S
H560 C574 0.930 . S
H561 C576 0.960 . S
H562 C576 0.960 . S
H563 C576 0.960 . S
C564 H556 0.929 . S
C564 C565 1.377 . S
C564 C566 1.384 . S
C565 C564 1.377 . S
C565 C571 1.390 . S
C566 H557 0.930 . S
C566 C564 1.384 . S
C566 C567 1.372 . S
C567 C566 1.372 . S
C567 C568 1.400 . S
C567 C572 1.490 . S
C568 H558 0.930 . S
C568 C567 1.400 . S
C568 C571 1.386 . S
H569 C585 0.930 . S
H570 C586 0.931 . S
C571 H559 0.929 . S
C571 C565 1.390 . S
C571 C568 1.386 . S
C572 C567 1.490 . S
C572 C574 1.395 . S
C572 C575 1.403 . S
H573 C579 0.930 . S
C574 H560 0.930 . S
C574 C572 1.395 . S
C574 C577 1.403 . S
C575 C572 1.403 . S
C575 C576 1.524 . S
C575 C579 1.400 . S
C576 H561 0.960 . S
C576 H562 0.960 . S
C576 H563 0.960 . S
C576 C575 1.524 . S
C577 C574 1.403 . S
C577 C578 1.392 . S
C577 C581 1.495 . S
C578 C577 1.392 . S
C578 C579 1.385 . S
C578 C580 1.478 . S
C579 H573 0.930 . S
C579 C575 1.400 . S
C579 C578 1.385 . S
C580 C578 1.478 . S
C580 C582 1.381 . S
C580 C586 1.383 . S
C581 C577 1.495 . S
C581 H587 0.959 . S
C581 H588 0.961 . S
C581 H589 0.960 . S
C582 C580 1.381 . S
C582 C583 1.394 . S
C582 H590 0.930 . S
C583 C582 1.394 . S
C583 C584 1.383 . S
C583 H591 0.929 . S
C584 C583 1.383 . S
C584 C585 1.377 . S
C585 H569 0.930 . S
C585 C584 1.377 . S
C585 C586 1.379 . S
C586 H570 0.931 . S
C586 C580 1.383 . S
C586 C585 1.379 . S
H587 C581 0.959 . S
H588 C581 0.961 . S
H589 C581 0.960 . S
H590 C582 0.930 . S
H591 C583 0.929 . S
H592 C600 0.929 . S
H593 C602 0.930 . S
H594 C604 0.930 . S
H595 C607 0.929 . S
H596 C610 0.930 . S
H597 C612 0.960 . S
H598 C612 0.960 . S
H599 C612 0.960 . S
C600 H592 0.929 . S
C600 C601 1.377 . S
C600 C602 1.384 . S
C601 C600 1.377 . S
C601 C607 1.390 . S
C602 H593 0.930 . S
C602 C600 1.384 . S
C602 C603 1.372 . S
C603 C602 1.372 . S
C603 C604 1.400 . S
C603 C608 1.490 . S
C604 H594 0.930 . S
C604 C603 1.400 . S
C604 C607 1.386 . S
H605 C621 0.930 . S
H606 C622 0.931 . S
C607 H595 0.929 . S
C607 C601 1.390 . S
C607 C604 1.386 . S
C608 C603 1.490 . S
C608 C610 1.395 . S
C608 C611 1.403 . S
H609 C615 0.930 . S
C610 H596 0.930 . S
C610 C608 1.395 . S
C610 C613 1.403 . S
C611 C608 1.403 . S
C611 C612 1.524 . S
C611 C615 1.400 . S
C612 H597 0.960 . S
C612 H598 0.960 . S
C612 H599 0.960 . S
C612 C611 1.524 . S
C613 C610 1.403 . S
C613 C614 1.392 . S
C613 C617 1.495 . S
C614 C613 1.392 . S
C614 C615 1.385 . S
C614 C616 1.478 . S
C615 H609 0.930 . S
C615 C611 1.400 . S
C615 C614 1.385 . S
C616 C614 1.478 . S
C616 C618 1.381 . S
C616 C622 1.383 . S
C617 C613 1.495 . S
C617 H623 0.959 . S
C617 H624 0.961 . S
C617 H625 0.960 . S
C618 C616 1.381 . S
C618 C619 1.394 . S
C618 H626 0.930 . S
C619 C618 1.394 . S
C619 C620 1.383 . S
C619 H627 0.929 . S
C620 C619 1.383 . S
C620 C621 1.377 . S
C621 H605 0.930 . S
C621 C620 1.377 . S
C621 C622 1.379 . S
C622 H606 0.931 . S
C622 C616 1.383 . S
C622 C621 1.379 . S
H623 C617 0.959 . S
H624 C617 0.961 . S
H625 C617 0.960 . S
H626 C618 0.930 . S
H627 C619 0.929 . S
H628 C636 0.929 . S
H629 C638 0.930 . S
H630 C640 0.930 . S
H631 C643 0.929 . S
H632 C646 0.930 . S
H633 C648 0.960 . S
H634 C648 0.960 . S
H635 C648 0.960 . S
C636 H628 0.929 . S
C636 C637 1.377 . S
C636 C638 1.384 . S
C637 C636 1.377 . S
C637 C643 1.390 . S
C638 H629 0.930 . S
C638 C636 1.384 . S
C638 C639 1.372 . S
C639 C638 1.372 . S
C639 C640 1.400 . S
C639 C644 1.490 . S
C640 H630 0.930 . S
C640 C639 1.400 . S
C640 C643 1.386 . S
H641 C657 0.930 . S
H642 C658 0.931 . S
C643 H631 0.929 . S
C643 C637 1.390 . S
C643 C640 1.386 . S
C644 C639 1.490 . S
C644 C646 1.395 . S
C644 C647 1.403 . S
H645 C651 0.930 . S
C646 H632 0.930 . S
C646 C644 1.395 . S
C646 C649 1.403 . S
C647 C644 1.403 . S
C647 C648 1.524 . S
C647 C651 1.400 . S
C648 H633 0.960 . S
C648 H634 0.960 . S
C648 H635 0.960 . S
C648 C647 1.524 . S
C649 C646 1.403 . S
C649 C650 1.392 . S
C649 C653 1.495 . S
C650 C649 1.392 . S
C650 C651 1.385 . S
C650 C652 1.478 . S
C651 H645 0.930 . S
C651 C647 1.400 . S
C651 C650 1.385 . S
C652 C650 1.478 . S
C652 C654 1.381 . S
C652 C658 1.383 . S
C653 C649 1.495 . S
C653 H659 0.959 . S
C653 H660 0.961 . S
C653 H661 0.960 . S
C654 C652 1.381 . S
C654 C655 1.394 . S
C654 H662 0.930 . S
C655 C654 1.394 . S
C655 C656 1.383 . S
C655 H663 0.929 . S
C656 C655 1.383 . S
C656 C657 1.377 . S
C657 H641 0.930 . S
C657 C656 1.377 . S
C657 C658 1.379 . S
C658 H642 0.931 . S
C658 C652 1.383 . S
C658 C657 1.379 . S
H659 C653 0.959 . S
H660 C653 0.961 . S
H661 C653 0.960 . S
H662 C654 0.930 . S
H663 C655 0.929 . S
H664 C672 0.929 . S
H665 C674 0.930 . S
H666 C676 0.930 . S
H667 C679 0.929 . S
H668 C682 0.930 . S
H669 C684 0.960 . S
H670 C684 0.960 . S
H671 C684 0.960 . S
C672 H664 0.929 . S
C672 C673 1.377 . S
C672 C674 1.384 . S
C673 C672 1.377 . S
C673 C679 1.390 . S
C674 H665 0.930 . S
C674 C672 1.384 . S
C674 C675 1.372 . S
C675 C674 1.372 . S
C675 C676 1.400 . S
C675 C680 1.490 . S
C676 H666 0.930 . S
C676 C675 1.400 . S
C676 C679 1.386 . S
H677 C693 0.930 . S
H678 C694 0.931 . S
C679 H667 0.929 . S
C679 C673 1.390 . S
C679 C676 1.386 . S
C680 C675 1.490 . S
C680 C682 1.395 . S
C680 C683 1.403 . S
H681 C687 0.930 . S
C682 H668 0.930 . S
C682 C680 1.395 . S
C682 C685 1.403 . S
C683 C680 1.403 . S
C683 C684 1.524 . S
C683 C687 1.400 . S
C684 H669 0.960 . S
C684 H670 0.960 . S
C684 H671 0.960 . S
C684 C683 1.524 . S
C685 C682 1.403 . S
C685 C686 1.392 . S
C685 C689 1.495 . S
C686 C685 1.392 . S
C686 C687 1.385 . S
C686 C688 1.478 . S
C687 H681 0.930 . S
C687 C683 1.400 . S
C687 C686 1.385 . S
C688 C686 1.478 . S
C688 C690 1.381 . S
C688 C694 1.383 . S
C689 C685 1.495 . S
C689 H695 0.959 . S
C689 H696 0.961 . S
C689 H697 0.960 . S
C690 C688 1.381 . S
C690 C691 1.394 . S
C690 H698 0.930 . S
C691 C690 1.394 . S
C691 C692 1.383 . S
C691 H699 0.929 . S
C692 C691 1.383 . S
C692 C693 1.377 . S
C693 H677 0.930 . S
C693 C692 1.377 . S
C693 C694 1.379 . S
C694 H678 0.931 . S
C694 C688 1.383 . S
C694 C693 1.379 . S
H695 C689 0.959 . S
H696 C689 0.961 . S
H697 C689 0.960 . S
H698 C690 0.930 . S
H699 C691 0.929 . S
H700 C708 0.929 . S
H701 C710 0.930 . S
H702 C712 0.930 . S
H703 C715 0.929 . S
H704 C718 0.930 . S
H705 C720 0.960 . S
H706 C720 0.960 . S
H707 C720 0.960 . S
C708 H700 0.929 . S
C708 C709 1.377 . S
C708 C710 1.384 . S
C709 C708 1.377 . S
C709 C715 1.390 . S
C710 H701 0.930 . S
C710 C708 1.384 . S
C710 C711 1.372 . S
C711 C710 1.372 . S
C711 C712 1.400 . S
C711 C716 1.490 . S
C712 H702 0.930 . S
C712 C711 1.400 . S
C712 C715 1.386 . S
H713 C729 0.930 . S
H714 C730 0.931 . S
C715 H703 0.929 . S
C715 C709 1.390 . S
C715 C712 1.386 . S
C716 C711 1.490 . S
C716 C718 1.395 . S
C716 C719 1.403 . S
H717 C723 0.930 . S
C718 H704 0.930 . S
C718 C716 1.395 . S
C718 C721 1.403 . S
C719 C716 1.403 . S
C719 C720 1.524 . S
C719 C723 1.400 . S
C720 H705 0.960 . S
C720 H706 0.960 . S
C720 H707 0.960 . S
C720 C719 1.524 . S
C721 C718 1.403 . S
C721 C722 1.392 . S
C721 C725 1.495 . S
C722 C721 1.392 . S
C722 C723 1.385 . S
C722 C724 1.478 . S
C723 H717 0.930 . S
C723 C719 1.400 . S
C723 C722 1.385 . S
C724 C722 1.478 . S
C724 C726 1.381 . S
C724 C730 1.383 . S
C725 C721 1.495 . S
C725 H731 0.959 . S
C725 H732 0.961 . S
C725 H733 0.960 . S
C726 C724 1.381 . S
C726 C727 1.394 . S
C726 H734 0.930 . S
C727 C726 1.394 . S
C727 C728 1.383 . S
C727 H735 0.929 . S
C728 C727 1.383 . S
C728 C729 1.377 . S
C729 H713 0.930 . S
C729 C728 1.377 . S
C729 C730 1.379 . S
C730 H714 0.931 . S
C730 C724 1.383 . S
C730 C729 1.379 . S
H731 C725 0.959 . S
H732 C725 0.961 . S
H733 C725 0.960 . S
H734 C726 0.930 . S
H735 C727 0.929 . S
H736 C744 0.929 . S
H737 C746 0.930 . S
H738 C748 0.930 . S
H739 C751 0.929 . S
H740 C754 0.930 . S
H741 C756 0.960 . S
H742 C756 0.960 . S
H743 C756 0.960 . S
C744 H736 0.929 . S
C744 C745 1.377 . S
C744 C746 1.384 . S
C745 C744 1.377 . S
C745 C751 1.390 . S
C746 H737 0.930 . S
C746 C744 1.384 . S
C746 C747 1.372 . S
C747 C746 1.372 . S
C747 C748 1.400 . S
C747 C752 1.490 . S
C748 H738 0.930 . S
C748 C747 1.400 . S
C748 C751 1.386 . S
H749 C765 0.930 . S
H750 C766 0.931 . S
C751 H739 0.929 . S
C751 C745 1.390 . S
C751 C748 1.386 . S
C752 C747 1.490 . S
C752 C754 1.395 . S
C752 C755 1.403 . S
H753 C759 0.930 . S
C754 H740 0.930 . S
C754 C752 1.395 . S
C754 C757 1.403 . S
C755 C752 1.403 . S
C755 C756 1.524 . S
C755 C759 1.400 . S
C756 H741 0.960 . S
C756 H742 0.960 . S
C756 H743 0.960 . S
C756 C755 1.524 . S
C757 C754 1.403 . S
C757 C758 1.392 . S
C757 C761 1.495 . S
C758 C757 1.392 . S
C758 C759 1.385 . S
C758 C760 1.478 . S
C759 H753 0.930 . S
C759 C755 1.400 . S
C759 C758 1.385 . S
C760 C758 1.478 . S
C760 C762 1.381 . S
C760 C766 1.383 . S
C761 C757 1.495 . S
C761 H767 0.959 . S
C761 H768 0.961 . S
C761 H769 0.960 . S
C762 C760 1.381 . S
C762 C763 1.394 . S
C762 H770 0.930 . S
C763 C762 1.394 . S
C763 C764 1.383 . S
C763 H771 0.929 . S
C764 C763 1.383 . S
C764 C765 1.377 . S
C765 H749 0.930 . S
C765 C764 1.377 . S
C765 C766 1.379 . S
C766 H750 0.931 . S
C766 C760 1.383 . S
C766 C765 1.379 . S
H767 C761 0.959 . S
H768 C761 0.961 . S
H769 C761 0.960 . S
H770 C762 0.930 . S
H771 C763 0.929 . S
H772 C780 0.929 . S
H773 C782 0.930 . S
H774 C784 0.930 . S
H775 C787 0.929 . S
H776 C790 0.930 . S
H777 C792 0.960 . S
H778 C792 0.960 . S
H779 C792 0.960 . S
C780 H772 0.929 . S
C780 C781 1.377 . S
C780 C782 1.384 . S
C781 C780 1.377 . S
C781 C787 1.390 . S
C782 H773 0.930 . S
C782 C780 1.384 . S
C782 C783 1.372 . S
C783 C782 1.372 . S
C783 C784 1.400 . S
C783 C788 1.490 . S
C784 H774 0.930 . S
C784 C783 1.400 . S
C784 C787 1.386 . S
H785 C801 0.930 1_554 S
H786 C802 0.931 . S
C787 H775 0.929 . S
C787 C781 1.390 . S
C787 C784 1.386 . S
C788 C783 1.490 . S
C788 C790 1.395 . S
C788 C791 1.403 . S
H789 C795 0.930 . S
C790 H776 0.930 . S
C790 C788 1.395 . S
C790 C793 1.403 . S
C791 C788 1.403 . S
C791 C792 1.524 . S
C791 C795 1.400 . S
C792 H777 0.960 . S
C792 H778 0.960 . S
C792 H779 0.960 . S
C792 C791 1.524 . S
C793 C790 1.403 . S
C793 C794 1.392 . S
C793 C797 1.495 . S
C794 C793 1.392 . S
C794 C795 1.385 . S
C794 C796 1.478 . S
C795 H789 0.930 . S
C795 C791 1.400 . S
C795 C794 1.385 . S
C796 C794 1.478 . S
C796 C798 1.381 . S
C796 C802 1.383 . S
C797 C793 1.495 . S
C797 H803 0.959 . S
C797 H804 0.961 . S
C797 H805 0.960 . S
C798 C796 1.381 . S
C798 C799 1.394 . S
C798 H806 0.930 . S
C799 C798 1.394 . S
C799 C800 1.383 . S
C799 H807 0.929 . S
C800 C799 1.383 . S
C800 C801 1.377 . S
C801 H785 0.930 1_556 S
C801 C800 1.377 . S
C801 C802 1.379 . S
C802 H786 0.931 . S
C802 C796 1.383 . S
C802 C801 1.379 . S
H803 C797 0.959 . S
H804 C797 0.961 . S
H805 C797 0.960 . S
H806 C798 0.930 . S
H807 C799 0.929 . S
H808 C816 0.929 . S
H809 C818 0.930 . S
H810 C820 0.930 . S
H811 C823 0.929 . S
H812 C826 0.930 . S
H813 C828 0.960 . S
H814 C828 0.960 . S
H815 C828 0.960 . S
C816 H808 0.929 . S
C816 C817 1.377 . S
C816 C818 1.384 . S
C817 C816 1.377 . S
C817 C823 1.390 . S
C818 H809 0.930 . S
C818 C816 1.384 . S
C818 C819 1.372 . S
C819 C818 1.372 . S
C819 C820 1.400 . S
C819 C824 1.490 . S
C820 H810 0.930 . S
C820 C819 1.400 . S
C820 C823 1.386 . S
H821 C837 0.930 . S
H822 C838 0.931 . S
C823 H811 0.929 . S
C823 C817 1.390 . S
C823 C820 1.386 . S
C824 C819 1.490 . S
C824 C826 1.395 . S
C824 C827 1.403 . S
H825 C831 0.930 . S
C826 H812 0.930 . S
C826 C824 1.395 . S
C826 C829 1.403 . S
C827 C824 1.403 . S
C827 C828 1.524 . S
C827 C831 1.400 . S
C828 H813 0.960 . S
C828 H814 0.960 . S
C828 H815 0.960 . S
C828 C827 1.524 . S
C829 C826 1.403 . S
C829 C830 1.392 . S
C829 C833 1.495 . S
C830 C829 1.392 . S
C830 C831 1.385 . S
C830 C832 1.478 . S
C831 H825 0.930 . S
C831 C827 1.400 . S
C831 C830 1.385 . S
C832 C830 1.478 . S
C832 C834 1.381 . S
C832 C838 1.383 . S
C833 C829 1.495 . S
C833 H839 0.959 . S
C833 H840 0.961 . S
C833 H841 0.960 . S
C834 C832 1.381 . S
C834 C835 1.394 . S
C834 H842 0.930 . S
C835 C834 1.394 . S
C835 C836 1.383 . S
C835 H843 0.929 . S
C836 C835 1.383 . S
C836 C837 1.377 . S
C837 H821 0.930 . S
C837 C836 1.377 . S
C837 C838 1.379 . S
C838 H822 0.931 . S
C838 C832 1.383 . S
C838 C837 1.379 . S
H839 C833 0.959 . S
H840 C833 0.961 . S
H841 C833 0.960 . S
H842 C834 0.930 . S
H843 C835 0.929 . S
H844 C852 0.929 . S
H845 C854 0.930 . S
H846 C856 0.930 . S
H847 C859 0.929 . S
H848 C862 0.930 . S
H849 C864 0.960 . S
H850 C864 0.960 . S
H851 C864 0.960 . S
C852 H844 0.929 . S
C852 C853 1.377 . S
C852 C854 1.384 . S
C853 C852 1.377 . S
C853 C859 1.390 . S
C854 H845 0.930 . S
C854 C852 1.384 . S
C854 C855 1.372 . S
C855 C854 1.372 . S
C855 C856 1.400 . S
C855 C860 1.490 . S
C856 H846 0.930 . S
C856 C855 1.400 . S
C856 C859 1.386 . S
H857 C873 0.930 . S
H858 C874 0.931 . S
C859 H847 0.929 . S
C859 C853 1.390 . S
C859 C856 1.386 . S
C860 C855 1.490 . S
C860 C862 1.395 . S
C860 C863 1.403 . S
H861 C867 0.930 . S
C862 H848 0.930 . S
C862 C860 1.395 . S
C862 C865 1.403 . S
C863 C860 1.403 . S
C863 C864 1.524 . S
C863 C867 1.400 . S
C864 H849 0.960 . S
C864 H850 0.960 . S
C864 H851 0.960 . S
C864 C863 1.524 . S
C865 C862 1.403 . S
C865 C866 1.392 . S
C865 C869 1.495 . S
C866 C865 1.392 . S
C866 C867 1.385 . S
C866 C868 1.478 . S
C867 H861 0.930 . S
C867 C863 1.400 . S
C867 C866 1.385 . S
C868 C866 1.478 . S
C868 C870 1.381 . S
C868 C874 1.383 . S
C869 C865 1.495 . S
C869 H875 0.959 . S
C869 H876 0.961 . S
C869 H877 0.960 . S
C870 C868 1.381 . S
C870 C871 1.394 . S
C870 H878 0.930 . S
C871 C870 1.394 . S
C871 C872 1.383 . S
C871 H879 0.929 . S
C872 C871 1.383 . S
C872 C873 1.377 . S
C873 H857 0.930 . S
C873 C872 1.377 . S
C873 C874 1.379 . S
C874 H858 0.931 . S
C874 C868 1.383 . S
C874 C873 1.379 . S
H875 C869 0.959 . S
H876 C869 0.961 . S
H877 C869 0.960 . S
H878 C870 0.930 . S
H879 C871 0.929 . S
H880 C888 0.929 . S
H881 C890 0.930 . S
H882 C892 0.930 . S
H883 C895 0.929 . S
H884 C898 0.930 . S
H885 C900 0.960 . S
H886 C900 0.960 . S
H887 C900 0.960 . S
C888 H880 0.929 . S
C888 C889 1.377 . S
C888 C890 1.384 . S
C889 C888 1.377 . S
C889 C895 1.390 . S
C890 H881 0.930 . S
C890 C888 1.384 . S
C890 C891 1.372 . S
C891 C890 1.372 . S
C891 C892 1.400 . S
C891 C896 1.490 . S
C892 H882 0.930 . S
C892 C891 1.400 . S
C892 C895 1.386 . S
H893 C909 0.930 . S
H894 C910 0.931 . S
C895 H883 0.929 . S
C895 C889 1.390 . S
C895 C892 1.386 . S
C896 C891 1.490 . S
C896 C898 1.395 . S
C896 C899 1.403 . S
H897 C903 0.930 . S
C898 H884 0.930 . S
C898 C896 1.395 . S
C898 C901 1.403 . S
C899 C896 1.403 . S
C899 C900 1.524 . S
C899 C903 1.400 . S
C900 H885 0.960 . S
C900 H886 0.960 . S
C900 H887 0.960 . S
C900 C899 1.524 . S
C901 C898 1.403 . S
C901 C902 1.392 . S
C901 C905 1.495 . S
C902 C901 1.392 . S
C902 C903 1.385 . S
C902 C904 1.478 . S
C903 H897 0.930 . S
C903 C899 1.400 . S
C903 C902 1.385 . S
C904 C902 1.478 . S
C904 C906 1.381 . S
C904 C910 1.383 . S
C905 C901 1.495 . S
C905 H911 0.959 . S
C905 H912 0.961 . S
C905 H913 0.960 . S
C906 C904 1.381 . S
C906 C907 1.394 . S
C906 H914 0.930 . S
C907 C906 1.394 . S
C907 C908 1.383 . S
C907 H915 0.929 . S
C908 C907 1.383 . S
C908 C909 1.377 . S
C909 H893 0.930 . S
C909 C908 1.377 . S
C909 C910 1.379 . S
C910 H894 0.931 . S
C910 C904 1.383 . S
C910 C909 1.379 . S
H911 C905 0.959 . S
H912 C905 0.961 . S
H913 C905 0.960 . S
H914 C906 0.930 . S
H915 C907 0.929 . S
H916 C924 0.929 . S
H917 C926 0.930 . S
H918 C928 0.930 . S
H919 C931 0.929 . S
H920 C934 0.930 . S
H921 C936 0.960 . S
H922 C936 0.960 . S
H923 C936 0.960 . S
C924 H916 0.929 . S
C924 C925 1.377 . S
C924 C926 1.384 . S
C925 C924 1.377 . S
C925 C931 1.390 . S
C926 H917 0.930 . S
C926 C924 1.384 . S
C926 C927 1.372 . S
C927 C926 1.372 . S
C927 C928 1.400 . S
C927 C932 1.490 . S
C928 H918 0.930 . S
C928 C927 1.400 . S
C928 C931 1.386 . S
H929 C945 0.930 . S
H930 C946 0.931 . S
C931 H919 0.929 . S
C931 C925 1.390 . S
C931 C928 1.386 . S
C932 C927 1.490 . S
C932 C934 1.395 . S
C932 C935 1.403 . S
H933 C939 0.930 . S
C934 H920 0.930 . S
C934 C932 1.395 . S
C934 C937 1.403 . S
C935 C932 1.403 . S
C935 C936 1.524 . S
C935 C939 1.400 . S
C936 H921 0.960 . S
C936 H922 0.960 . S
C936 H923 0.960 . S
C936 C935 1.524 . S
C937 C934 1.403 . S
C937 C938 1.392 . S
C937 C941 1.495 . S
C938 C937 1.392 . S
C938 C939 1.385 . S
C938 C940 1.478 . S
C939 H933 0.930 . S
C939 C935 1.400 . S
C939 C938 1.385 . S
C940 C938 1.478 . S
C940 C942 1.381 . S
C940 C946 1.383 . S
C941 C937 1.495 . S
C941 H947 0.959 . S
C941 H948 0.961 . S
C941 H949 0.960 . S
C942 C940 1.381 . S
C942 C943 1.394 . S
C942 H950 0.930 . S
C943 C942 1.394 . S
C943 C944 1.383 . S
C943 H951 0.929 . S
C944 C943 1.383 . S
C944 C945 1.377 . S
C945 H929 0.930 . S
C945 C944 1.377 . S
C945 C946 1.379 . S
C946 H930 0.931 . S
C946 C940 1.383 . S
C946 C945 1.379 . S
H947 C941 0.959 . S
H948 C941 0.961 . S
H949 C941 0.960 . S
H950 C942 0.930 . S
H951 C943 0.929 . S
H952 C960 0.929 . S
H953 C962 0.930 . S
H954 C964 0.930 . S
H955 C967 0.929 . S
H956 C970 0.930 . S
H957 C972 0.960 . S
H958 C972 0.960 . S
H959 C972 0.960 . S
C960 H952 0.929 . S
C960 C961 1.377 . S
C960 C962 1.384 . S
C961 C960 1.377 . S
C961 C967 1.390 . S
C962 H953 0.930 . S
C962 C960 1.384 . S
C962 C963 1.372 . S
C963 C962 1.372 . S
C963 C964 1.400 . S
C963 C968 1.490 . S
C964 H954 0.930 . S
C964 C963 1.400 . S
C964 C967 1.386 . S
H965 C981 0.930 . S
H966 C982 0.931 . S
C967 H955 0.929 . S
C967 C961 1.390 . S
C967 C964 1.386 . S
C968 C963 1.490 . S
C968 C970 1.395 . S
C968 C971 1.403 . S
H969 C975 0.930 . S
C970 H956 0.930 . S
C970 C968 1.395 . S
C970 C973 1.403 . S
C971 C968 1.403 . S
C971 C972 1.524 . S
C971 C975 1.400 . S
C972 H957 0.960 . S
C972 H958 0.960 . S
C972 H959 0.960 . S
C972 C971 1.524 . S
C973 C970 1.403 . S
C973 C974 1.392 . S
C973 C977 1.495 . S
C974 C973 1.392 . S
C974 C975 1.385 . S
C974 C976 1.478 . S
C975 H969 0.930 . S
C975 C971 1.400 . S
C975 C974 1.385 . S
C976 C974 1.478 . S
C976 C978 1.381 . S
C976 C982 1.383 . S
C977 C973 1.495 . S
C977 H983 0.959 . S
C977 H984 0.961 . S
C977 H985 0.960 . S
C978 C976 1.381 . S
C978 C979 1.394 . S
C978 H986 0.930 . S
C979 C978 1.394 . S
C979 C980 1.383 . S
C979 H987 0.929 . S
C980 C979 1.383 . S
C980 C981 1.377 . S
C981 H965 0.930 . S
C981 C980 1.377 . S
C981 C982 1.379 . S
C982 H966 0.931 . S
C982 C976 1.383 . S
C982 C981 1.379 . S
H983 C977 0.959 . S
H984 C977 0.961 . S
H985 C977 0.960 . S
H986 C978 0.930 . S
H987 C979 0.929 . S
H988 C996 0.929 . S
H989 C998 0.930 . S
H990 C1000 0.930 . S
H991 C1003 0.929 . S
H992 C1006 0.930 . S
H993 C1008 0.960 . S
H994 C1008 0.960 . S
H995 C1008 0.960 . S
C996 H988 0.929 . S
C996 C997 1.377 . S
C996 C998 1.384 . S
C997 C996 1.377 . S
C997 C1003 1.390 . S
C998 H989 0.930 . S
C998 C996 1.384 . S
C998 C999 1.372 . S
C999 C998 1.372 . S
C999 C1000 1.400 . S
C999 C1004 1.490 . S
C1000 H990 0.930 . S
C1000 C999 1.400 . S
C1000 C1003 1.386 . S
H1001 C1017 0.930 . S
H1002 C1018 0.931 . S
C1003 H991 0.929 . S
C1003 C997 1.390 . S
C1003 C1000 1.386 . S
C1004 C999 1.490 . S
C1004 C1006 1.395 . S
C1004 C1007 1.403 . S
H1005 C1011 0.930 . S
C1006 H992 0.930 . S
C1006 C1004 1.395 . S
C1006 C1009 1.403 . S
C1007 C1004 1.403 . S
C1007 C1008 1.524 . S
C1007 C1011 1.400 . S
C1008 H993 0.960 . S
C1008 H994 0.960 . S
C1008 H995 0.960 . S
C1008 C1007 1.524 . S
C1009 C1006 1.403 . S
C1009 C1010 1.392 . S
C1009 C1013 1.495 . S
C1010 C1009 1.392 . S
C1010 C1011 1.385 . S
C1010 C1012 1.478 . S
C1011 H1005 0.930 . S
C1011 C1007 1.400 . S
C1011 C1010 1.385 . S
C1012 C1010 1.478 . S
C1012 C1014 1.381 . S
C1012 C1018 1.383 . S
C1013 C1009 1.495 . S
C1013 H1019 0.959 . S
C1013 H1020 0.961 . S
C1013 H1021 0.960 . S
C1014 C1012 1.381 . S
C1014 C1015 1.394 . S
C1014 H1022 0.930 . S
C1015 C1014 1.394 . S
C1015 C1016 1.383 . S
C1015 H1023 0.929 . S
C1016 C1015 1.383 . S
C1016 C1017 1.377 . S
C1017 H1001 0.930 . S
C1017 C1016 1.377 . S
C1017 C1018 1.379 . S
C1018 H1002 0.931 . S
C1018 C1012 1.383 . S
C1018 C1017 1.379 . S
H1019 C1013 0.959 . S
H1020 C1013 0.961 . S
H1021 C1013 0.960 . S
H1022 C1014 0.930 . S
H1023 C1015 0.929 . S
H1024 C1032 0.929 . S
H1025 C1034 0.930 . S
H1026 C1036 0.930 . S
H1027 C1039 0.929 . S
H1028 C1042 0.930 . S
H1029 C1044 0.960 . S
H1030 C1044 0.960 . S
H1031 C1044 0.960 . S
C1032 H1024 0.929 . S
C1032 C1033 1.377 . S
C1032 C1034 1.384 . S
C1033 C1032 1.377 . S
C1033 C1039 1.390 . S
C1034 H1025 0.930 . S
C1034 C1032 1.384 . S
C1034 C1035 1.372 . S
C1035 C1034 1.372 . S
C1035 C1036 1.400 . S
C1035 C1040 1.490 . S
C1036 H1026 0.930 . S
C1036 C1035 1.400 . S
C1036 C1039 1.386 . S
H1037 C1053 0.930 . S
H1038 C1054 0.931 . S
C1039 H1027 0.929 . S
C1039 C1033 1.390 . S
C1039 C1036 1.386 . S
C1040 C1035 1.490 . S
C1040 C1042 1.395 . S
C1040 C1043 1.403 . S
H1041 C1047 0.930 . S
C1042 H1028 0.930 . S
C1042 C1040 1.395 . S
C1042 C1045 1.403 . S
C1043 C1040 1.403 . S
C1043 C1044 1.524 . S
C1043 C1047 1.400 . S
C1044 H1029 0.960 . S
C1044 H1030 0.960 . S
C1044 H1031 0.960 . S
C1044 C1043 1.524 . S
C1045 C1042 1.403 . S
C1045 C1046 1.392 . S
C1045 C1049 1.495 . S
C1046 C1045 1.392 . S
C1046 C1047 1.385 . S
C1046 C1048 1.478 . S
C1047 H1041 0.930 . S
C1047 C1043 1.400 . S
C1047 C1046 1.385 . S
C1048 C1046 1.478 . S
C1048 C1050 1.381 . S
C1048 C1054 1.383 . S
C1049 C1045 1.495 . S
C1049 H1055 0.959 . S
C1049 H1056 0.961 . S
C1049 H1057 0.960 . S
C1050 C1048 1.381 . S
C1050 C1051 1.394 . S
C1050 H1058 0.930 . S
C1051 C1050 1.394 . S
C1051 C1052 1.383 . S
C1051 H1059 0.929 . S
C1052 C1051 1.383 . S
C1052 C1053 1.377 . S
C1053 H1037 0.930 . S
C1053 C1052 1.377 . S
C1053 C1054 1.379 . S
C1054 H1038 0.931 . S
C1054 C1048 1.383 . S
C1054 C1053 1.379 . S
H1055 C1049 0.959 . S
H1056 C1049 0.961 . S
H1057 C1049 0.960 . S
H1058 C1050 0.930 . S
H1059 C1051 0.929 . S
H1060 C1068 0.929 . S
H1061 C1070 0.930 . S
H1062 C1072 0.930 . S
H1063 C1075 0.929 . S
H1064 C1078 0.930 . S
H1065 C1080 0.960 . S
H1066 C1080 0.960 . S
H1067 C1080 0.960 . S
C1068 H1060 0.929 . S
C1068 C1069 1.377 . S
C1068 C1070 1.384 . S
C1069 C1068 1.377 . S
C1069 C1075 1.390 . S
C1070 H1061 0.930 . S
C1070 C1068 1.384 . S
C1070 C1071 1.372 . S
C1071 C1070 1.372 . S
C1071 C1072 1.400 . S
C1071 C1076 1.490 . S
C1072 H1062 0.930 . S
C1072 C1071 1.400 . S
C1072 C1075 1.386 . S
H1073 C1089 0.930 . S
H1074 C1090 0.931 . S
C1075 H1063 0.929 . S
C1075 C1069 1.390 . S
C1075 C1072 1.386 . S
C1076 C1071 1.490 . S
C1076 C1078 1.395 . S
C1076 C1079 1.403 . S
H1077 C1083 0.930 . S
C1078 H1064 0.930 . S
C1078 C1076 1.395 . S
C1078 C1081 1.403 . S
C1079 C1076 1.403 . S
C1079 C1080 1.524 . S
C1079 C1083 1.400 . S
C1080 H1065 0.960 . S
C1080 H1066 0.960 . S
C1080 H1067 0.960 . S
C1080 C1079 1.524 . S
C1081 C1078 1.403 . S
C1081 C1082 1.392 . S
C1081 C1085 1.495 . S
C1082 C1081 1.392 . S
C1082 C1083 1.385 . S
C1082 C1084 1.478 . S
C1083 H1077 0.930 . S
C1083 C1079 1.400 . S
C1083 C1082 1.385 . S
C1084 C1082 1.478 . S
C1084 C1086 1.381 . S
C1084 C1090 1.383 . S
C1085 C1081 1.495 . S
C1085 H1091 0.959 . S
C1085 H1092 0.961 . S
C1085 H1093 0.960 . S
C1086 C1084 1.381 . S
C1086 C1087 1.394 . S
C1086 H1094 0.930 . S
C1087 C1086 1.394 . S
C1087 C1088 1.383 . S
C1087 H1095 0.929 . S
C1088 C1087 1.383 . S
C1088 C1089 1.377 . S
C1089 H1073 0.930 . S
C1089 C1088 1.377 . S
C1089 C1090 1.379 . S
C1090 H1074 0.931 . S
C1090 C1084 1.383 . S
C1090 C1089 1.379 . S
H1091 C1085 0.959 . S
H1092 C1085 0.961 . S
H1093 C1085 0.960 . S
H1094 C1086 0.930 . S
H1095 C1087 0.929 . S
H1096 C1104 0.929 . S
H1097 C1106 0.930 . S
H1098 C1108 0.930 . S
H1099 C1111 0.929 . S
H1100 C1114 0.930 . S
H1101 C1116 0.960 . S
H1102 C1116 0.960 . S
H1103 C1116 0.960 . S
C1104 H1096 0.929 . S
C1104 C1105 1.377 . S
C1104 C1106 1.384 . S
C1105 C1104 1.377 . S
C1105 C1111 1.390 . S
C1106 H1097 0.930 . S
C1106 C1104 1.384 . S
C1106 C1107 1.372 . S
C1107 C1106 1.372 . S
C1107 C1108 1.400 . S
C1107 C1112 1.490 . S
C1108 H1098 0.930 . S
C1108 C1107 1.400 . S
C1108 C1111 1.386 . S
H1109 C1125 0.930 . S
H1110 C1126 0.931 . S
C1111 H1099 0.929 . S
C1111 C1105 1.390 . S
C1111 C1108 1.386 . S
C1112 C1107 1.490 . S
C1112 C1114 1.395 . S
C1112 C1115 1.403 . S
H1113 C1119 0.930 . S
C1114 H1100 0.930 . S
C1114 C1112 1.395 . S
C1114 C1117 1.403 . S
C1115 C1112 1.403 . S
C1115 C1116 1.524 . S
C1115 C1119 1.400 . S
C1116 H1101 0.960 . S
C1116 H1102 0.960 . S
C1116 H1103 0.960 . S
C1116 C1115 1.524 . S
C1117 C1114 1.403 . S
C1117 C1118 1.392 . S
C1117 C1121 1.495 . S
C1118 C1117 1.392 . S
C1118 C1119 1.385 . S
C1118 C1120 1.478 . S
C1119 H1113 0.930 . S
C1119 C1115 1.400 . S
C1119 C1118 1.385 . S
C1120 C1118 1.478 . S
C1120 C1122 1.381 . S
C1120 C1126 1.383 . S
C1121 C1117 1.495 . S
C1121 H1127 0.959 . S
C1121 H1128 0.961 . S
C1121 H1129 0.960 . S
C1122 C1120 1.381 . S
C1122 C1123 1.394 . S
C1122 H1130 0.930 . S
C1123 C1122 1.394 . S
C1123 C1124 1.383 . S
C1123 H1131 0.929 . S
C1124 C1123 1.383 . S
C1124 C1125 1.377 . S
C1125 H1109 0.930 . S
C1125 C1124 1.377 . S
C1125 C1126 1.379 . S
C1126 H1110 0.931 . S
C1126 C1120 1.383 . S
C1126 C1125 1.379 . S
H1127 C1121 0.959 . S
H1128 C1121 0.961 . S
H1129 C1121 0.960 . S
H1130 C1122 0.930 . S
H1131 C1123 0.929 . S
H1132 C1140 0.929 . S
H1133 C1142 0.930 . S
H1134 C1144 0.930 . S
H1135 C1147 0.929 . S
H1136 C1150 0.930 . S
H1137 C1152 0.960 . S
H1138 C1152 0.960 . S
H1139 C1152 0.960 . S
C1140 H1132 0.929 . S
C1140 C1141 1.377 . S
C1140 C1142 1.384 . S
C1141 C1140 1.377 . S
C1141 C1147 1.390 . S
C1142 H1133 0.930 . S
C1142 C1140 1.384 . S
C1142 C1143 1.372 . S
C1143 C1142 1.372 . S
C1143 C1144 1.400 . S
C1143 C1148 1.490 . S
C1144 H1134 0.930 . S
C1144 C1143 1.400 . S
C1144 C1147 1.386 . S
H1145 C1161 0.930 . S
H1146 C1162 0.931 . S
C1147 H1135 0.929 . S
C1147 C1141 1.390 . S
C1147 C1144 1.386 . S
C1148 C1143 1.490 . S
C1148 C1150 1.395 . S
C1148 C1151 1.403 . S
H1149 C1155 0.930 . S
C1150 H1136 0.930 . S
C1150 C1148 1.395 . S
C1150 C1153 1.403 . S
C1151 C1148 1.403 . S
C1151 C1152 1.524 . S
C1151 C1155 1.400 . S
C1152 H1137 0.960 . S
C1152 H1138 0.960 . S
C1152 H1139 0.960 . S
C1152 C1151 1.524 . S
C1153 C1150 1.403 . S
C1153 C1154 1.392 . S
C1153 C1157 1.495 . S
C1154 C1153 1.392 . S
C1154 C1155 1.385 . S
C1154 C1156 1.478 . S
C1155 H1149 0.930 . S
C1155 C1151 1.400 . S
C1155 C1154 1.385 . S
C1156 C1154 1.478 . S
C1156 C1158 1.381 . S
C1156 C1162 1.383 . S
C1157 C1153 1.495 . S
C1157 H1163 0.959 . S
C1157 H1164 0.961 . S
C1157 H1165 0.960 . S
C1158 C1156 1.381 . S
C1158 C1159 1.394 . S
C1158 H1166 0.930 . S
C1159 C1158 1.394 . S
C1159 C1160 1.383 . S
C1159 H1167 0.929 . S
C1160 C1159 1.383 . S
C1160 C1161 1.377 . S
C1161 H1145 0.930 . S
C1161 C1160 1.377 . S
C1161 C1162 1.379 . S
C1162 H1146 0.931 . S
C1162 C1156 1.383 . S
C1162 C1161 1.379 . S
H1163 C1157 0.959 . S
H1164 C1157 0.961 . S
H1165 C1157 0.960 . S
H1166 C1158 0.930 . S
H1167 C1159 0.929 . S
H1168 C1176 0.929 . S
H1169 C1178 0.930 . S
H1170 C1180 0.930 . S
H1171 C1183 0.929 . S
H1172 C1186 0.930 . S
H1173 C1188 0.960 . S
H1174 C1188 0.960 . S
H1175 C1188 0.960 . S
C1176 H1168 0.929 . S
C1176 C1177 1.377 . S
C1176 C1178 1.384 . S
C1177 C1176 1.377 . S
C1177 C1183 1.390 . S
C1178 H1169 0.930 . S
C1178 C1176 1.384 . S
C1178 C1179 1.372 . S
C1179 C1178 1.372 . S
C1179 C1180 1.400 . S
C1179 C1184 1.490 . S
C1180 H1170 0.930 . S
C1180 C1179 1.400 . S
C1180 C1183 1.386 . S
H1181 C1197 0.930 . S
H1182 C1198 0.931 . S
C1183 H1171 0.929 . S
C1183 C1177 1.390 . S
C1183 C1180 1.386 . S
C1184 C1179 1.490 . S
C1184 C1186 1.395 . S
C1184 C1187 1.403 . S
H1185 C1191 0.930 . S
C1186 H1172 0.930 . S
C1186 C1184 1.395 . S
C1186 C1189 1.403 . S
C1187 C1184 1.403 . S
C1187 C1188 1.524 . S
C1187 C1191 1.400 . S
C1188 H1173 0.960 . S
C1188 H1174 0.960 . S
C1188 H1175 0.960 . S
C1188 C1187 1.524 . S
C1189 C1186 1.403 . S
C1189 C1190 1.392 . S
C1189 C1193 1.495 . S
C1190 C1189 1.392 . S
C1190 C1191 1.385 . S
C1190 C1192 1.478 . S
C1191 H1185 0.930 . S
C1191 C1187 1.400 . S
C1191 C1190 1.385 . S
C1192 C1190 1.478 . S
C1192 C1194 1.381 . S
C1192 C1198 1.383 . S
C1193 C1189 1.495 . S
C1193 H1199 0.959 . S
C1193 H1200 0.961 . S
C1193 H1201 0.960 . S
C1194 C1192 1.381 . S
C1194 C1195 1.394 . S
C1194 H1202 0.930 . S
C1195 C1194 1.394 . S
C1195 C1196 1.383 . S
C1195 H1203 0.929 . S
C1196 C1195 1.383 . S
C1196 C1197 1.377 . S
C1197 H1181 0.930 . S
C1197 C1196 1.377 . S
C1197 C1198 1.379 . S
C1198 H1182 0.931 . S
C1198 C1192 1.383 . S
C1198 C1197 1.379 . S
H1199 C1193 0.959 . S
H1200 C1193 0.961 . S
H1201 C1193 0.960 . S
H1202 C1194 0.930 . S
H1203 C1195 0.929 . S
H1204 C1212 0.929 . S
H1205 C1214 0.930 . S
H1206 C1216 0.930 . S
H1207 C1219 0.929 . S
H1208 C1222 0.930 . S
H1209 C1224 0.960 . S
H1210 C1224 0.960 . S
H1211 C1224 0.960 . S
C1212 H1204 0.929 . S
C1212 C1213 1.377 . S
C1212 C1214 1.384 . S
C1213 C1212 1.377 . S
C1213 C1219 1.390 . S
C1214 H1205 0.930 . S
C1214 C1212 1.384 . S
C1214 C1215 1.372 . S
C1215 C1214 1.372 . S
C1215 C1216 1.400 . S
C1215 C1220 1.490 . S
C1216 H1206 0.930 . S
C1216 C1215 1.400 . S
C1216 C1219 1.386 . S
H1217 C1233 0.930 . S
H1218 C1234 0.931 . S
C1219 H1207 0.929 . S
C1219 C1213 1.390 . S
C1219 C1216 1.386 . S
C1220 C1215 1.490 . S
C1220 C1222 1.395 . S
C1220 C1223 1.403 . S
H1221 C1227 0.930 . S
C1222 H1208 0.930 . S
C1222 C1220 1.395 . S
C1222 C1225 1.403 . S
C1223 C1220 1.403 . S
C1223 C1224 1.524 . S
C1223 C1227 1.400 . S
C1224 H1209 0.960 . S
C1224 H1210 0.960 . S
C1224 H1211 0.960 . S
C1224 C1223 1.524 . S
C1225 C1222 1.403 . S
C1225 C1226 1.392 . S
C1225 C1229 1.495 . S
C1226 C1225 1.392 . S
C1226 C1227 1.385 . S
C1226 C1228 1.478 . S
C1227 H1221 0.930 . S
C1227 C1223 1.400 . S
C1227 C1226 1.385 . S
C1228 C1226 1.478 . S
C1228 C1230 1.381 . S
C1228 C1234 1.383 . S
C1229 C1225 1.495 . S
C1229 H1235 0.959 . S
C1229 H1236 0.961 . S
C1229 H1237 0.960 . S
C1230 C1228 1.381 . S
C1230 C1231 1.394 . S
C1230 H1238 0.930 . S
C1231 C1230 1.394 . S
C1231 C1232 1.383 . S
C1231 H1239 0.929 . S
C1232 C1231 1.383 . S
C1232 C1233 1.377 . S
C1233 H1217 0.930 . S
C1233 C1232 1.377 . S
C1233 C1234 1.379 . S
C1234 H1218 0.931 . S
C1234 C1228 1.383 . S
C1234 C1233 1.379 . S
H1235 C1229 0.959 . S
H1236 C1229 0.961 . S
H1237 C1229 0.960 . S
H1238 C1230 0.930 . S
H1239 C1231 0.929 . S
H1240 C1248 0.929 . S
H1241 C1250 0.930 . S
H1242 C1252 0.930 . S
H1243 C1255 0.929 . S
H1244 C1258 0.930 . S
H1245 C1260 0.960 . S
H1246 C1260 0.960 . S
H1247 C1260 0.960 . S
C1248 H1240 0.929 . S
C1248 C1249 1.377 . S
C1248 C1250 1.384 . S
C1249 C1248 1.377 . S
C1249 C1255 1.390 . S
C1250 H1241 0.930 . S
C1250 C1248 1.384 . S
C1250 C1251 1.372 . S
C1251 C1250 1.372 . S
C1251 C1252 1.400 . S
C1251 C1256 1.490 . S
C1252 H1242 0.930 . S
C1252 C1251 1.400 . S
C1252 C1255 1.386 . S
H1253 C1269 0.930 . S
H1254 C1270 0.931 . S
C1255 H1243 0.929 . S
C1255 C1249 1.390 . S
C1255 C1252 1.386 . S
C1256 C1251 1.490 . S
C1256 C1258 1.395 . S
C1256 C1259 1.403 . S
H1257 C1263 0.930 . S
C1258 H1244 0.930 . S
C1258 C1256 1.395 . S
C1258 C1261 1.403 . S
C1259 C1256 1.403 . S
C1259 C1260 1.524 . S
C1259 C1263 1.400 . S
C1260 H1245 0.960 . S
C1260 H1246 0.960 . S
C1260 H1247 0.960 . S
C1260 C1259 1.524 . S
C1261 C1258 1.403 . S
C1261 C1262 1.392 . S
C1261 C1265 1.495 . S
C1262 C1261 1.392 . S
C1262 C1263 1.385 . S
C1262 C1264 1.478 . S
C1263 H1257 0.930 . S
C1263 C1259 1.400 . S
C1263 C1262 1.385 . S
C1264 C1262 1.478 . S
C1264 C1266 1.381 . S
C1264 C1270 1.383 . S
C1265 C1261 1.495 . S
C1265 H1271 0.959 . S
C1265 H1272 0.961 . S
C1265 H1273 0.960 . S
C1266 C1264 1.381 . S
C1266 C1267 1.394 . S
C1266 H1274 0.930 . S
C1267 C1266 1.394 . S
C1267 C1268 1.383 . S
C1267 H1275 0.929 . S
C1268 C1267 1.383 . S
C1268 C1269 1.377 . S
C1269 H1253 0.930 . S
C1269 C1268 1.377 . S
C1269 C1270 1.379 . S
C1270 H1254 0.931 . S
C1270 C1264 1.383 . S
C1270 C1269 1.379 . S
H1271 C1265 0.959 . S
H1272 C1265 0.961 . S
H1273 C1265 0.960 . S
H1274 C1266 0.930 . S
H1275 C1267 0.929 . S
H1276 C1284 0.929 . S
H1277 C1286 0.930 . S
H1278 C1288 0.930 . S
H1279 C1291 0.929 . S
H1280 C1294 0.930 . S
H1281 C1296 0.960 . S
H1282 C1296 0.960 . S
H1283 C1296 0.960 . S
C1284 H1276 0.929 . S
C1284 C1285 1.377 . S
C1284 C1286 1.384 . S
C1285 C1284 1.377 . S
C1285 C1291 1.390 . S
C1286 H1277 0.930 . S
C1286 C1284 1.384 . S
C1286 C1287 1.372 . S
C1287 C1286 1.372 . S
C1287 C1288 1.400 . S
C1287 C1292 1.490 . S
C1288 H1278 0.930 . S
C1288 C1287 1.400 . S
C1288 C1291 1.386 . S
H1289 C1305 0.930 . S
H1290 C1306 0.931 . S
C1291 H1279 0.929 . S
C1291 C1285 1.390 . S
C1291 C1288 1.386 . S
C1292 C1287 1.490 . S
C1292 C1294 1.395 . S
C1292 C1295 1.403 . S
H1293 C1299 0.930 . S
C1294 H1280 0.930 . S
C1294 C1292 1.395 . S
C1294 C1297 1.403 . S
C1295 C1292 1.403 . S
C1295 C1296 1.524 . S
C1295 C1299 1.400 . S
C1296 H1281 0.960 . S
C1296 H1282 0.960 . S
C1296 H1283 0.960 . S
C1296 C1295 1.524 . S
C1297 C1294 1.403 . S
C1297 C1298 1.392 . S
C1297 C1301 1.495 . S
C1298 C1297 1.392 . S
C1298 C1299 1.385 . S
C1298 C1300 1.478 . S
C1299 H1293 0.930 . S
C1299 C1295 1.400 . S
C1299 C1298 1.385 . S
C1300 C1298 1.478 . S
C1300 C1302 1.381 . S
C1300 C1306 1.383 . S
C1301 C1297 1.495 . S
C1301 H1307 0.959 . S
C1301 H1308 0.961 . S
C1301 H1309 0.960 . S
C1302 C1300 1.381 . S
C1302 C1303 1.394 . S
C1302 H1310 0.930 . S
C1303 C1302 1.394 . S
C1303 C1304 1.383 . S
C1303 H1311 0.929 . S
C1304 C1303 1.383 . S
C1304 C1305 1.377 . S
C1305 H1289 0.930 . S
C1305 C1304 1.377 . S
C1305 C1306 1.379 . S
C1306 H1290 0.931 . S
C1306 C1300 1.383 . S
C1306 C1305 1.379 . S
H1307 C1301 0.959 . S
H1308 C1301 0.961 . S
H1309 C1301 0.960 . S
H1310 C1302 0.930 . S
H1311 C1303 0.929 . S
C457 C1 0.846 . S
C476 C292 0.863 . S
C493 C67 1.226 . S
C512 C353 1.234 . S
C548 C391 2.462 . S
C529 C97 2.525 . S
C565 C133 2.294 . S
C584 C431 2.242 . S
C620 C351 1.254 . S
C601 C25 1.248 . S
C656 C319 2.125 . S
C637 C37 2.086 . S
C692 C428 1.664 . S
C673 C103 1.674 . S
C728 C388 1.776 . S
C709 C109 1.804 . S
C745 C31 0.981 . S
C764 C433 0.969 . S
C800 C348 2.378 . S
C781 C73 2.374 . S
C817 C139 2.152 . S
C836 C290 2.127 . S
C853 C61 1.493 . S
C872 C393 1.527 . S
C908 C313 0.870 . S
C889 C175 0.845 . S
C925 C181 1.209 . S
C944 C332 1.227 . S
C961 C247 2.567 . S
C980 C370 2.497 . S
C997 C277 2.281 . S
C1016 C410 2.232 . S
C1033 C145 1.212 . S
C1052 C330 1.214 . S
C1088 C308 2.129 . S
C1069 C211 2.092 . S
C1124 C439 1.656 . S
C1105 C217 1.667 . S
C1160 C399 1.802 . S
C1141 C283 1.823 . S
C1177 C169 0.958 . S
C1196 C412 0.966 . S
C1232 C359 2.384 . S
C1213 C241 2.396 . S
C1268 C311 2.085 . S
C1249 C253 2.139 . S
C1285 C205 1.509 . S
C1304 C372 1.508 . S
