# Generated by pormake.
# Topology zzz, (3,6)-cn, num edge types: 1
# Building blocks:
#     Node 0, Type 0, BuildingBlock: QEWDON_clean_linker_0, # of connection points: 3
#     Node 1, Type 0, BuildingBlock: QEWDON_clean_linker_0, # of connection points: 3
#     Node 2, Type 0, BuildingBlock: QEWDON_clean_linker_0, # of connection points: 3
#     Node 3, Type 0, BuildingBlock: QEWDON_clean_linker_0, # of connection points: 3
#     Node 4, Type 0, BuildingBlock: QEWDON_clean_linker_0, # of connection points: 3
#     Node 5, Type 0, BuildingBlock: QEWDON_clean_linker_0, # of connection points: 3
#     Node 6, Type 0, BuildingBlock: QEWDON_clean_linker_0, # of connection points: 3
#     Node 7, Type 0, BuildingBlock: QEWDON_clean_linker_0, # of connection points: 3
#     Node 8, Type 1, BuildingBlock: KUMBUR_clean_sbu_0, # of connection points: 6
#     Node 9, Type 1, BuildingBlock: KUMBUR_clean_sbu_0, # of connection points: 6
#     Node 10, Type 1, BuildingBlock: KUMBUR_clean_sbu_0, # of connection points: 6
#     Node 11, Type 1, BuildingBlock: KUMBUR_clean_sbu_0, # of connection points: 6
#     Edge 12, Type (0, 1), BuildingBlock: UVAHIK_clean_linker_0, # of connection points: 2
#     Edge 13, Type (0, 1), BuildingBlock: UVAHIK_clean_linker_0, # of connection points: 2
#     Edge 14, Type (0, 1), BuildingBlock: UVAHIK_clean_linker_0, # of connection points: 2
#     Edge 15, Type (0, 1), BuildingBlock: UVAHIK_clean_linker_0, # of connection points: 2
#     Edge 16, Type (0, 1), BuildingBlock: UVAHIK_clean_linker_0, # of connection points: 2
#     Edge 17, Type (0, 1), BuildingBlock: UVAHIK_clean_linker_0, # of connection points: 2
#     Edge 18, Type (0, 1), BuildingBlock: UVAHIK_clean_linker_0, # of connection points: 2
#     Edge 19, Type (0, 1), BuildingBlock: UVAHIK_clean_linker_0, # of connection points: 2
#     Edge 20, Type (0, 1), BuildingBlock: UVAHIK_clean_linker_0, # of connection points: 2
#     Edge 21, Type (0, 1), BuildingBlock: UVAHIK_clean_linker_0, # of connection points: 2
#     Edge 22, Type (0, 1), BuildingBlock: UVAHIK_clean_linker_0, # of connection points: 2
#     Edge 23, Type (0, 1), BuildingBlock: UVAHIK_clean_linker_0, # of connection points: 2
#     Edge 24, Type (0, 1), BuildingBlock: UVAHIK_clean_linker_0, # of connection points: 2
#     Edge 25, Type (0, 1), BuildingBlock: UVAHIK_clean_linker_0, # of connection points: 2
#     Edge 26, Type (0, 1), BuildingBlock: UVAHIK_clean_linker_0, # of connection points: 2
#     Edge 27, Type (0, 1), BuildingBlock: UVAHIK_clean_linker_0, # of connection points: 2
#     Edge 28, Type (0, 1), BuildingBlock: UVAHIK_clean_linker_0, # of connection points: 2
#     Edge 29, Type (0, 1), BuildingBlock: UVAHIK_clean_linker_0, # of connection points: 2
#     Edge 30, Type (0, 1), BuildingBlock: UVAHIK_clean_linker_0, # of connection points: 2
#     Edge 31, Type (0, 1), BuildingBlock: UVAHIK_clean_linker_0, # of connection points: 2
#     Edge 32, Type (0, 1), BuildingBlock: UVAHIK_clean_linker_0, # of connection points: 2
#     Edge 33, Type (0, 1), BuildingBlock: UVAHIK_clean_linker_0, # of connection points: 2
#     Edge 34, Type (0, 1), BuildingBlock: UVAHIK_clean_linker_0, # of connection points: 2
#     Edge 35, Type (0, 1), BuildingBlock: UVAHIK_clean_linker_0, # of connection points: 2
# Relax obj value: 0.092
# Max RMSD: 0.141
# Mean RMSD: 0.071
data_MOF--net-zzz--node1-KUMBUR_clean_sbu_0--node2-QEWDON_clean_linker_0--edge1-UVAHIK_clean_linker_0
_symmetry_space_group_name_H-M    P1
_symmetry_Int_Tables_number       1
_symmetry_cell_setting            triclinic
loop_
_symmetry_equiv_pos_as_xyz
'x, y, z'
_cell_length_a     69.662523
_cell_length_b     69.460889
_cell_length_c     18.265273
_cell_angle_alpha  90.944199
_cell_angle_beta   90.093931
_cell_angle_gamma 89.902964
loop_
_atom_site_label
_atom_site_type_symbol
_atom_site_fract_x
_atom_site_fract_y
_atom_site_fract_z
_atom_type_partial_charge
H0 H 0.76013 0.5478 0.04527 0.0
C1 C 0.77103 0.54448 0.0854 0.0
C2 C 0.79022 0.54771 0.06699 0.0
C3 C 0.76596 0.53759 0.15487 0.0
H4 H 0.81945 0.54724 0.10393 0.0
C5 C 0.80467 0.54446 0.11879 0.0
C6 C 0.80043 0.53733 0.18841 0.0
C7 C 0.78096 0.53391 0.20607 0.0
C8 C 0.74508 0.53485 0.17369 0.0
H9 H 0.77768 0.52796 0.25894 0.0
C10 C 0.73089 0.53107 0.11897 0.0
C11 C 0.71123 0.52956 0.13723 0.0
C12 C 0.73895 0.53689 0.24686 0.0
H13 H 0.74896 0.5404 0.29037 0.0
C14 C 0.71963 0.53502 0.26521 0.0
H15 H 0.73498 0.52899 0.06228 0.0
C16 C 0.7059 0.53143 0.21115 0.0
H17 H 0.69097 0.53056 0.22717 0.0
H18 H 0.71522 0.5367 0.32175 0.0
H19 H 0.98786 0.76629 0.0708 0.0
C20 C 0.99101 0.77698 0.11278 0.0
C21 C 0.98472 0.79585 0.10168 0.0
C22 C 1.00089 0.772 0.17719 0.0
H23 H 0.98291 0.82464 0.14616 0.0
C24 C 0.98766 0.81001 0.15587 0.0
C25 C 0.99774 0.80592 0.22012 0.0
C26 C 1.00471 0.78697 0.22995 0.0
C27 C 1.00635 0.7512 0.18993 0.0
H28 H 0.0129 0.78405 0.27887 0.0
C29 C 1.00883 0.73748 0.13139 0.0
C30 C 0.01283 0.71784 0.14539 0.0
C31 C 1.00806 0.74457 0.26213 0.0
H32 H 1.00562 0.75402 0.30881 0.0
C33 C 0.01231 0.72536 0.27598 0.0
H34 H 1.008 0.7419 0.075 0.0
C35 C 0.01463 0.71214 0.21854 0.0
H36 H 0.01743 0.69725 0.23164 0.0
H37 H 0.01347 0.72059 0.33194 0.0
H38 H 0.7649 0.99582 0.04456 0.0
C39 C 0.75479 0.99935 0.08771 0.0
C40 C 0.73522 1.00021 0.07002 0.0
C41 C 0.76123 1.0025 0.16018 0.0
H42 H 0.70666 1.00492 0.11193 0.0
C43 C 0.72179 1.00397 0.12556 0.0
C44 C 0.72752 1.00685 0.19839 0.0
C45 C 0.74726 1.00617 0.21559 0.0
C46 C 0.78239 1.00162 0.17737 0.0
H47 H 0.75159 1.00904 0.27163 0.0
C48 C 0.7966 1.00603 0.12425 0.0
C49 C 0.8164 1.00462 0.14064 0.0
C50 C 0.78863 0.99579 0.24698 0.0
H51 H 0.77851 0.99164 0.28865 0.0
C52 C 0.80815 0.99472 0.26368 0.0
H53 H 0.79245 1.0109 0.07054 0.0
C54 C 0.82191 0.99908 0.21123 0.0
H55 H 0.83694 0.99769 0.22548 0.0
H56 H 0.81265 0.99018 0.31747 0.0
H57 H 0.54547 0.77874 0.0728 0.0
C58 C 0.54194 0.76838 0.11425 0.0
C59 C 0.53862 0.74935 0.09191 0.0
C60 C 0.54083 0.77393 0.18872 0.0
H61 H 0.53367 0.72045 0.126 0.0
C62 C 0.53518 0.7353 0.14431 0.0
C63 C 0.5345 0.73997 0.21937 0.0
C64 C 0.53704 0.75945 0.24107 0.0
C65 C 0.54425 0.79463 0.21099 0.0
H66 H 0.53577 0.76323 0.29854 0.0
C67 C 0.54063 0.80998 0.1622 0.0
C68 C 0.54536 0.82922 0.18113 0.0
C69 C 0.55209 0.7992 0.28021 0.0
H70 H 0.55566 0.7881 0.31876 0.0
C71 C 0.55602 0.81824 0.30037 0.0
H72 H 0.53446 0.80706 0.10884 0.0
C73 C 0.55277 0.8331 0.25147 0.0
H74 H 0.55611 0.84769 0.26895 0.0
H75 H 0.56196 0.82148 0.35397 0.0
H76 H 0.2726 0.50014 0.19173 0.0
C77 C 0.2624 0.50326 0.14881 0.0
C78 C 0.24324 0.50631 0.16855 0.0
C79 C 0.26828 0.50414 0.07514 0.0
H80 H 0.2145 0.51077 0.13029 0.0
C81 C 0.22941 0.50931 0.1142 0.0
C82 C 0.23439 0.50968 0.03979 0.0
C83 C 0.25396 0.50734 0.02071 0.0
C84 C 0.28916 0.50113 0.05601 0.0
H85 H 0.25791 0.50838 0.96367 0.0
C86 C 0.30416 0.50509 0.10729 0.0
C87 C 0.32356 0.50075 0.09087 0.0
C88 C 0.29428 0.49335 0.9871 0.0
H89 H 0.28353 0.4895 0.94671 0.0
C90 C 0.31345 0.48984 0.96946 0.0
H91 H 0.30085 0.51124 0.16053 0.0
C92 C 0.32793 0.49344 0.02059 0.0
H93 H 0.34263 0.49046 1.00482 0.0
H94 H 0.31709 0.48397 0.91599 0.0
H95 H 0.03399 0.26918 0.20368 0.0
C96 C 0.03123 0.25915 0.15904 0.0
C97 C 0.02794 0.23983 0.17592 0.0
C98 C 0.03117 0.26541 0.08596 0.0
H99 H 0.02333 0.21122 0.13223 0.0
C100 C 0.02519 0.22627 0.11911 0.0
C101 C 0.02555 0.23162 0.04557 0.0
C102 C 0.02836 0.25126 0.02917 0.0
C103 C 0.0348 0.28645 0.06991 0.0
H104 H 0.02797 0.25533 0.97232 0.0
C105 C 0.03123 0.30152 0.12251 0.0
C106 C 0.03614 0.32094 0.10828 0.0
C107 C 0.04283 0.29159 1.00229 0.0
H108 H 0.04649 0.28086 0.9611 0.0
C109 C 0.04685 0.31073 0.98681 0.0
H110 H 0.02494 0.29831 0.17493 0.0
C111 C 0.04358 0.32522 0.03892 0.0
H112 H 0.04695 0.3399 0.02459 0.0
H113 H 0.05287 0.31435 0.9342 0.0
H114 H 0.26531 0.05514 0.14121 0.0
C115 C 0.27567 0.05081 0.10006 0.0
C116 C 0.29519 0.05206 0.1179 0.0
C117 C 0.26973 0.0446 0.02954 0.0
H118 H 0.32417 0.04814 0.07999 0.0
C119 C 0.30908 0.04724 0.06549 0.0
C120 C 0.30383 0.04098 0.99517 0.0
C121 C 0.28417 0.03958 0.97734 0.0
C122 C 0.24865 0.04399 0.01014 0.0
H123 H 0.28034 0.03416 0.92342 0.0
C124 C 0.23407 0.04181 0.06405 0.0
C125 C 0.21434 0.04253 0.04511 0.0
C126 C 0.24285 0.04645 0.93693 0.0
H127 H 0.25318 0.04889 0.89394 0.0
C128 C 0.2235 0.04634 0.91765 0.0
H129 H 0.2379 0.03986 0.12081 0.0
C130 C 0.2094 0.04439 0.97088 0.0
H131 H 0.19452 0.0444 0.95365 0.0
H132 H 0.21938 0.04807 0.86096 0.0
H133 H 0.48778 0.26468 0.14813 0.0
C134 C 0.49143 0.27505 0.1069 0.0
C135 C 0.49473 0.29408 0.12952 0.0
C136 C 0.49275 0.26955 0.0324 0.0
H137 H 0.49981 0.32298 0.09586 0.0
C138 C 0.49831 0.30815 0.07739 0.0
C139 C 0.49919 0.30352 1.00235 0.0
C140 C 0.49671 0.28406 0.98038 0.0
C141 C 0.4895 0.24885 0.00963 0.0
H142 H 0.49818 0.28033 0.92295 0.0
C143 C 0.493 0.23346 0.05834 0.0
C144 C 0.48867 0.21418 0.03842 0.0
C145 C 0.48209 0.24431 0.93969 0.0
H146 H 0.47858 0.25544 0.90115 0.0
C147 C 0.47856 0.22526 0.91862 0.0
H148 H 0.49878 0.23638 0.1123 0.0
C149 C 0.48178 0.21034 0.96726 0.0
H150 H 0.47883 0.19575 0.94888 0.0
H151 H 0.473 0.22205 0.86442 0.0
Tb152 Tb 0.03188 0.01814 0.68488 0.0
C153 C 0.96496 1.00214 0.47926 0.0
C154 C 0.97495 0.97537 0.40189 0.0
C155 C 0.94115 0.97979 0.43057 0.0
C156 C 0.9794 0.99166 0.44582 0.0
C157 C 0.94562 0.99656 0.47109 0.0
C158 C 0.9558 0.96922 0.39591 0.0
C159 C 0.93652 0.02542 0.53816 0.0
N160 N 0.96988 0.0183 0.51743 0.0
C161 C 0.95591 0.03042 0.5442 0.0
C162 C 0.93136 1.00829 0.50223 0.0
Tb163 Tb 1.00208 0.02493 0.5262 0.0
N164 N 0.99769 0.9981 0.45294 0.0
C165 C 0.01201 0.98984 0.41181 0.0
C166 C 0.98978 0.96617 0.36339 0.0
C167 C 1.00834 0.97363 0.36747 0.0
H168 H 0.95972 0.04363 0.57251 0.0
H169 H 0.01987 0.96687 0.33677 0.0
H170 H 0.95213 0.95662 0.36313 0.0
H171 H 0.92558 0.03477 0.56126 0.0
H172 H 0.02647 0.99538 0.41436 0.0
H173 H 1.00423 0.06073 0.91459 0.0
H174 H 0.98698 0.95362 0.32902 0.0
H175 H 0.07826 1.00738 0.66582 0.0
H176 H 1.00587 0.03233 0.83349 0.0
H177 H 0.1094 0.02419 0.68 0.0
H178 H 0.92639 0.97516 0.42413 0.0
H179 H 0.03032 0.08486 0.91342 0.0
H180 H 0.06359 0.09341 0.87107 0.0
H181 H 0.91632 1.00449 0.49735 0.0
H182 H 0.09297 0.08315 0.80629 0.0
N183 N 0.0306 0.04185 0.77543 0.0
C184 C 0.01648 0.04342 0.82729 0.0
C185 C 0.03065 0.07276 0.87521 0.0
C186 C 0.04649 0.06951 0.82986 0.0
C187 C 0.01588 0.05924 0.87576 0.0
C188 C 0.0461 0.05356 0.78098 0.0
H189 H 0.11048 0.05681 0.7367 0.0
N190 N 0.06185 0.03092 0.70791 0.0
C191 C 0.09627 0.03118 0.6977 0.0
C192 C 0.06245 0.04788 0.74511 0.0
C193 C 0.07864 0.02174 0.68952 0.0
C194 C 0.0968 0.04962 0.72935 0.0
C195 C 0.07984 0.05788 0.75625 0.0
O196 O 0.04783 1.00125 0.7581 0.0
O197 O 0.01669 1.00437 0.59481 0.0
O198 O 0.98475 1.01142 0.6108 0.0
O199 O 1.00113 0.02308 0.713 0.0
O200 O 0.04372 0.99457 0.61731 0.0
O201 O 0.01778 0.99641 0.74336 0.0
O202 O 0.99112 0.04971 0.47625 0.0
O203 O 0.01906 0.03853 0.61245 0.0
O204 O 0.05085 0.02789 0.59607 0.0
O205 O 0.03228 0.02435 0.49006 0.0
O206 O 0.99406 0.05184 0.58433 0.0
O207 O 1.00953 0.02988 0.41691 0.0
C208 C 0.02878 0.99144 0.57735 0.0
C209 C 0.03738 0.96882 0.74804 0.0
C210 C 0.02465 0.9366 0.72338 0.0
C211 C 0.02221 0.95554 0.75017 0.0
C212 C 0.04246 0.93105 0.69381 0.0
C213 C 0.05528 0.96276 0.72022 0.0
C214 C 0.05769 0.94405 0.69278 0.0
C215 C 0.98525 0.0164 0.68095 0.0
C216 C 0.03378 0.9893 0.76746 0.0
C217 C 0.07987 0.075 0.79832 0.0
C218 C 0.06315 0.08083 0.83524 0.0
C219 C 1.00882 0.05319 0.62616 0.0
C220 C 0.0131 0.06248 0.39124 0.0
C221 C 0.02035 0.07658 0.44002 0.0
C222 C 0.03196 0.09158 0.41436 0.0
C223 C 0.03664 0.0918 0.33922 0.0
C224 C 0.01799 0.06301 0.31698 0.0
C225 C 0.02982 0.07755 0.29128 0.0
C226 C 0.04885 0.02754 0.52378 0.0
C227 C 1.00113 0.04661 0.41691 0.0
H228 H 1.00836 0.96007 0.77141 0.0
H229 H 0.04479 0.91651 0.67342 0.0
H230 H 0.06728 0.97261 0.71751 0.0
H231 H 0.07142 0.93961 0.6705 0.0
H232 H 0.01691 0.07591 0.49762 0.0
H233 H 0.04507 0.10334 0.31654 0.0
H234 H 0.01272 0.0521 0.27895 0.0
H235 H 0.03348 0.07795 0.23375 0.0
Tb236 Tb 0.521 0.03656 0.6832 0.0
C237 C 0.55012 0.98468 0.4676 0.0
C238 C 0.56383 1.0053 0.37616 0.0
C239 C 0.57984 0.97542 0.40587 0.0
C240 C 0.5495 1.00144 0.42875 0.0
C241 C 0.56504 0.97118 0.45505 0.0
C242 C 0.5792 0.99245 0.36628 0.0
C243 C 0.54817 0.949 0.5312 0.0
N244 N 0.5354 0.98097 0.51374 0.0
C245 C 0.53358 0.96265 0.54041 0.0
C246 C 0.56424 0.95346 0.48978 0.0
Tb247 Tb 0.51266 1.00525 0.53074 0.0
N248 N 0.5345 0.01362 0.44041 0.0
C249 C 0.532 0.02873 0.39377 0.0
C250 C 0.56211 0.02176 0.33392 0.0
C251 C 0.5459 0.03331 0.34183 0.0
H252 H 0.52072 0.9581 0.5681 0.0
H253 H 0.54386 0.04556 0.30674 0.0
H254 H 0.59044 0.99535 0.32703 0.0
H255 H 0.54677 0.93487 0.55472 0.0
H256 H 0.51909 0.03712 0.39298 0.0
H257 H 0.5074 0.99557 0.9299 0.0
H258 H 0.57281 0.02527 0.29328 0.0
H259 H 0.50026 0.07943 0.63706 0.0
H260 H 0.5269 1.00802 0.83149 0.0
H261 H 0.47055 0.09642 0.66035 0.0
H262 H 0.59151 0.96536 0.39637 0.0
H263 H 0.4749 1.00858 0.95195 0.0
H264 H 0.45026 0.03343 0.92302 0.0
H265 H 0.57541 0.94276 0.48171 0.0
H266 H 0.44038 0.06118 0.85039 0.0
N267 N 0.50457 0.02529 0.78474 0.0
C268 C 0.51219 0.01271 0.83437 0.0
C269 C 0.48315 0.0135 0.90563 0.0
C270 C 0.4764 0.02827 0.86155 0.0
C271 C 0.50138 1.00604 0.89305 0.0
C272 C 0.48768 0.03408 0.80141 0.0
H273 H 0.44777 0.08465 0.75254 0.0
N274 N 0.4939 0.05539 0.70586 0.0
C275 C 0.4734 0.08305 0.68806 0.0
C276 C 0.48224 0.04973 0.76105 0.0
C277 C 0.49019 0.0727 0.67306 0.0
C278 C 0.46068 0.07648 0.74046 0.0
C279 C 0.46527 0.05998 0.77932 0.0
O280 O 0.52961 0.06303 0.73063 0.0
O281 O 0.53477 0.01859 0.59859 0.0
O282 O 0.51475 0.98704 0.62685 0.0
O283 O 0.53131 1.00707 0.70727 0.0
O284 O 0.54444 0.04636 0.61441 0.0
O285 O 0.54258 0.03645 0.76355 0.0
O286 O 0.50032 0.98116 0.47755 0.0
O287 O 0.49903 0.02343 0.61469 0.0
O288 O 0.51805 0.05524 0.58905 0.0
O289 O 0.50376 0.03488 0.50264 0.0
O290 O 0.48848 0.99605 0.59748 0.0
O291 O 0.4937 1.00981 0.44313 0.0
C292 C 0.54746 0.03053 0.57886 0.0
C293 C 0.56295 0.06346 0.75194 0.0
C294 C 0.59637 0.05983 0.71245 0.0
C295 C 0.5782 0.05187 0.72628 0.0
C296 C 0.59886 0.07982 0.72245 0.0
C297 C 0.56584 0.08329 0.76183 0.0
C298 C 0.58367 0.09142 0.7466 0.0
C299 C 0.5244 0.98995 0.68798 0.0
C300 C 0.5438 0.05514 0.76542 0.0
C301 C 0.45356 0.05367 0.83652 0.0
C302 C 0.45913 0.03783 0.87763 0.0
C303 C 0.486 1.01184 0.63416 0.0
C304 C 0.46867 0.98683 0.43941 0.0
C305 C 0.45499 0.99987 0.46794 0.0
C306 C 0.43527 0.99535 0.4667 0.0
C307 C 0.42968 0.97711 0.43907 0.0
C308 C 0.46269 0.96882 0.41263 0.0
C309 C 0.44331 0.96394 0.41311 0.0
C310 C 0.50946 0.05219 0.52556 0.0
C311 C 0.48922 0.99168 0.4375 0.0
H312 H 0.57594 0.0366 0.71698 0.0
H313 H 0.61271 0.08647 0.71404 0.0
H314 H 0.55426 0.09251 0.78091 0.0
H315 H 0.58581 0.10674 0.75457 0.0
H316 H 0.45975 0.01359 0.49018 0.0
H317 H 0.41471 0.97312 0.43473 0.0
H318 H 0.47304 0.95854 0.39105 0.0
H319 H 0.43876 0.95005 0.39171 0.0
Tb320 Tb 0.53393 0.51474 0.54066 0.0
C321 C 0.46025 0.51262 0.72885 0.0
C322 C 0.43608 0.52892 0.65782 0.0
C323 C 0.42661 0.50419 0.74304 0.0
C324 C 0.45547 0.52586 0.67683 0.0
C325 C 0.44589 0.50186 0.76388 0.0
C326 C 0.42171 0.5177 0.68999 0.0
C327 C 0.47054 0.48854 0.84116 0.0
N328 N 0.47898 0.51093 0.74749 0.0
C329 C 0.48423 0.49955 0.80477 0.0
C330 C 0.4513 0.4895 0.82 0.0
Tb331 Tb 0.5006 0.52889 0.68293 0.0
N332 N 0.4698 0.5364 0.64749 0.0
C333 C 0.46541 0.55143 0.60282 0.0
C334 C 0.4317 0.5435 0.60865 0.0
C335 C 0.44642 0.555 0.58193 0.0
H336 H 0.49905 0.49847 0.82136 0.0
H337 H 0.44317 0.56657 0.54488 0.0
H338 H 0.40676 0.5197 0.67558 0.0
H339 H 0.47486 0.47925 0.88525 0.0
H340 H 0.47648 0.56045 0.58083 0.0
H341 H 0.59158 0.47662 0.67551 0.0
H342 H 0.417 0.54629 0.59237 0.0
H343 H 0.5353 0.54536 0.40294 0.0
H344 H 0.55822 0.48272 0.63991 0.0
H345 H 0.5594 0.56485 0.33957 0.0
H346 H 0.41537 0.49594 0.76879 0.0
H347 H 0.61762 0.49735 0.62976 0.0
H348 H 0.62771 0.52436 0.54822 0.0
H349 H 0.44072 0.48098 0.8483 0.0
H350 H 0.61896 0.54835 0.456 0.0
N351 N 0.56477 0.5072 0.57542 0.0
C352 C 0.56924 0.49193 0.61876 0.0
C353 C 0.60291 0.50013 0.61368 0.0
C354 C 0.59844 0.51492 0.56553 0.0
C355 C 0.58826 0.48837 0.6394 0.0
C356 C 0.57903 0.51796 0.54675 0.0
H357 H 0.59354 0.5633 0.37674 0.0
N358 N 0.55544 0.53293 0.47658 0.0
C359 C 0.56377 0.55552 0.38347 0.0
C360 C 0.57418 0.53132 0.49526 0.0
C361 C 0.55013 0.54435 0.41952 0.0
C362 C 0.583 0.55466 0.40476 0.0
C363 C 0.58848 0.54223 0.4606 0.0
O364 O 0.52871 0.50616 0.4314 0.0
O365 O 0.50432 0.5188 0.57229 0.0
O366 O 0.49601 0.49806 0.66121 0.0
O367 O 0.5258 0.4902 0.61065 0.0
O368 O 0.51163 0.52681 0.4695 0.0
O369 O 0.53914 0.4859 0.5102 0.0
O370 O 0.50602 0.53769 0.79183 0.0
O371 O 0.53025 0.52467 0.65166 0.0
O372 O 0.53858 0.54555 0.56303 0.0
O373 O 0.5087 0.55334 0.61257 0.0
O374 O 0.52266 0.51663 0.75429 0.0
O375 O 0.49533 0.55776 0.71283 0.0
C376 C 0.49745 0.52531 0.51374 0.0
C377 C 0.51381 0.47555 0.43337 0.0
C378 C 0.49628 0.44597 0.45959 0.0
C379 C 0.5131 0.45711 0.46378 0.0
C380 C 0.4801 0.45351 0.42378 0.0
C381 C 0.49756 0.48256 0.39639 0.0
C382 C 0.48082 0.47162 0.3921 0.0
C383 C 0.50936 0.48525 0.64226 0.0
C384 C 0.53068 0.48804 0.44713 0.0
C385 C 0.60776 0.53998 0.48143 0.0
C386 C 0.61274 0.52633 0.53393 0.0
C387 C 0.53691 0.51796 0.71033 0.0
C388 C 0.52079 0.56835 0.78841 0.0
C389 C 0.52122 0.58681 0.75808 0.0
C390 C 0.53798 0.59805 0.76116 0.0
C391 C 0.55438 0.59061 0.79583 0.0
C392 C 0.53726 0.56141 0.82412 0.0
C393 C 0.55394 0.57247 0.82737 0.0
C394 C 0.52517 0.55834 0.58144 0.0
C395 C 0.50394 0.55577 0.77566 0.0
H396 H 0.52558 0.45157 0.492 0.0
H397 H 0.46704 0.44517 0.41814 0.0
H398 H 0.49759 0.49667 0.37207 0.0
H399 H 0.46834 0.47723 0.36416 0.0
H400 H 0.50857 0.59225 0.73069 0.0
H401 H 0.5674 0.59904 0.80065 0.0
H402 H 0.53746 0.54728 0.84826 0.0
H403 H 0.56659 0.56694 0.85442 0.0
Tb404 Tb 0.02258 0.53675 0.55045 0.0
C405 C 0.02845 0.46342 0.73379 0.0
C406 C 0.01259 0.43847 0.66271 0.0
C407 C 0.03825 0.43003 0.74663 0.0
C408 C 0.01503 0.45806 0.68216 0.0
C409 C 0.03994 0.44947 0.7681 0.0
C410 C 0.02459 0.42454 0.69391 0.0
C411 C 0.05254 0.47473 0.84672 0.0
N412 N 0.02949 0.48228 0.75318 0.0
C413 C 0.0408 0.488 0.81105 0.0
C414 C 0.05232 0.45541 0.82443 0.0
Tb415 Tb 1.01003 0.50316 0.69094 0.0
N416 N 1.00372 0.47198 0.65373 0.0
C417 C 0.98856 0.46694 0.60963 0.0
C418 C 0.99784 0.43344 0.61415 0.0
C419 C 0.98559 0.44772 0.58838 0.0
H420 H 0.04126 0.50293 0.82832 0.0
H421 H 0.9739 0.44397 0.55179 0.0
H422 H 0.02308 0.40945 0.67909 0.0
H423 H 0.0618 0.47944 0.89113 0.0
H424 H 0.97896 0.47764 0.5884 0.0
H425 H 0.0567 0.59797 0.68411 0.0
H426 H 0.99551 0.41858 0.59757 0.0
H427 H 0.99235 0.5352 0.40897 0.0
H428 H 0.05271 0.56391 0.65076 0.0
H429 H 0.97167 0.55759 0.34212 0.0
H430 H 0.04708 0.41911 0.77177 0.0
H431 H 0.03454 0.62238 0.63455 0.0
H432 H 1.00721 0.63014 0.54979 0.0
H433 H 0.06139 0.44515 0.85221 0.0
H434 H 0.98412 0.61915 0.45584 0.0
N435 N 0.02802 0.56839 0.58371 0.0
C436 C 0.04289 0.57419 0.62795 0.0
C437 C 0.0327 0.60734 0.61944 0.0
C438 C 0.01833 0.60155 0.57039 0.0
C439 C 0.04525 0.59362 0.64731 0.0
C440 C 0.01652 0.58177 0.55288 0.0
H441 H 0.97102 0.59215 0.37697 0.0
N442 N 1.00335 0.55667 0.48266 0.0
C443 C 0.98058 0.56288 0.38666 0.0
C444 C 1.00371 0.57568 0.50022 0.0
C445 C 0.99244 0.55021 0.42479 0.0
C446 C 0.98019 0.58236 0.40663 0.0
C447 C 0.99207 0.58905 0.46336 0.0
O448 O 0.03213 0.53104 0.44293 0.0
O449 O 0.02007 0.50686 0.58124 0.0
O450 O 0.04115 0.50036 0.67141 0.0
O451 O 0.04703 0.53074 0.62465 0.0
O452 O 0.0119 0.51353 0.47791 0.0
O453 O 0.05107 0.54357 0.5238 0.0
O454 O 1.00228 0.50643 0.80145 0.0
O455 O 0.01263 0.53304 0.6608 0.0
O456 O 0.99172 0.54021 0.57002 0.0
O457 O 0.98505 0.51022 0.61953 0.0
O458 O 0.02036 0.5262 0.76475 0.0
O459 O 0.98151 0.4973 0.7204 0.0
C460 C 0.01394 0.4995 0.522 0.0
C461 C 0.0635 0.51805 0.45161 0.0
C462 C 0.09369 0.50257 0.48605 0.0
C463 C 0.0816 0.51881 0.48557 0.0
C464 C 0.08748 0.48549 0.451 0.0
C465 C 0.05781 0.50092 0.41559 0.0
C466 C 0.06971 0.48476 0.4157 0.0
C467 C 0.05305 0.51462 0.65562 0.0
C468 C 0.04992 0.5343 0.46134 0.0
C469 C 0.99306 0.60866 0.483 0.0
C470 C 1.00619 0.61491 0.5365 0.0
C471 C 0.01847 0.54027 0.72081 0.0
C472 C 0.97115 0.51936 0.81302 0.0
C473 C 0.95505 0.52489 0.77162 0.0
C474 C 0.94274 0.53967 0.79666 0.0
C475 C 0.94709 0.5491 0.86363 0.0
C476 C 0.97507 0.52899 0.87951 0.0
C477 C 0.96319 0.54386 0.90421 0.0
C478 C 0.97952 0.52629 0.58651 0.0
C479 C 0.98415 0.50389 0.78694 0.0
H480 H 0.08609 0.53197 0.51316 0.0
H481 H 0.09657 0.47284 0.44883 0.0
H482 H 0.04398 0.49981 0.38871 0.0
H483 H 0.06513 0.47159 0.38844 0.0
H484 H 0.95208 0.51762 0.72009 0.0
H485 H 0.93776 0.56013 0.8864 0.0
H486 H 0.98737 0.52504 0.91243 0.0
H487 H 0.96628 0.55116 0.95571 0.0
C488 C 0.19954 0.02955 0.1617 0.0
C489 C 0.19867 0.04192 0.10148 0.0
C490 C 0.18413 0.02843 0.21122 0.0
C491 C 0.13904 0.05432 0.26983 0.0
H492 H 0.1251 1.00471 0.34757 0.0
C493 C 0.06596 0.04076 0.41426 0.0
C494 C 0.06632 0.02968 0.47791 0.0
C495 C 0.08247 0.04264 0.37089 0.0
C496 C 0.12888 0.01873 0.32692 0.0
H497 H 0.18102 0.06348 0.04891 0.0
H498 H 0.15424 0.06106 0.13255 0.0
H499 H 0.15337 1.0074 0.26979 0.0
H500 H 0.08404 1.01093 0.54306 0.0
H501 H 0.11282 0.01436 0.46877 0.0
H502 H 0.11428 0.06553 0.32586 0.0
C503 C 0.16682 0.0523 0.14258 0.0
C504 C 0.1452 0.0203 0.28237 0.0
C505 C 0.18217 0.05348 0.09358 0.0
C506 C 0.08345 0.02016 0.4962 0.0
C507 C 0.09988 0.02185 0.45261 0.0
C508 C 0.12265 0.05271 0.31381 0.0
C509 C 0.16742 0.03969 0.20203 0.0
C510 C 0.1505 0.03811 0.25268 0.0
C511 C 0.09968 0.03316 0.38939 0.0
C512 C 0.11727 0.03489 0.34281 0.0
H513 H 0.21193 0.02039 0.16968 0.0
H514 H 0.18535 0.01873 0.25677 0.0
H515 H 0.14276 0.06839 0.24963 0.0
H516 H 0.05295 0.04812 0.39833 0.0
H517 H 0.08166 0.05128 0.32215 0.0
C518 C 0.47725 0.18291 0.09172 0.0
C519 C 0.49068 0.19806 0.09172 0.0
C520 C 0.47911 0.16754 0.13987 0.0
C521 C 0.51455 0.14309 0.26098 0.0
H522 H 0.46896 0.11842 0.33667 0.0
C523 C 0.51781 0.08568 0.48733 0.0
C524 C 0.50643 0.0691 0.47771 0.0
C525 C 0.51571 0.10144 0.44121 0.0
C526 C 0.48183 0.12503 0.3155 0.0
H527 H 0.5166 0.20874 0.14417 0.0
H528 H 0.51945 0.18235 0.22998 0.0
H529 H 0.46572 0.14613 0.25738 0.0
H530 H 0.4837 0.05627 0.41226 0.0
H531 H 0.47986 0.08396 0.33197 0.0
H532 H 0.53062 0.12213 0.32051 0.0
C533 C 0.50766 0.18213 0.1913 0.0
C534 C 0.48 0.14095 0.26973 0.0
C535 C 0.50587 0.19748 0.14258 0.0
C536 C 0.4927 0.0688 0.42118 0.0
C537 C 0.49044 0.0847 0.3754 0.0
C538 C 0.51637 0.12729 0.30735 0.0
C539 C 0.49434 0.16686 0.19048 0.0
C540 C 0.49633 0.15019 0.24133 0.0
C541 C 0.50204 0.10117 0.3845 0.0
C542 C 0.50004 0.118 0.33502 0.0
H543 H 0.46512 0.18291 0.05459 0.0
H544 H 0.46867 0.15604 0.13643 0.0
H545 H 0.52748 0.14948 0.23945 0.0
H546 H 0.52861 0.0864 0.53001 0.0
H547 H 0.52473 0.11393 0.45037 0.0
C548 C 0.35443 0.48969 0.1497 0.0
C549 C 0.33934 0.50319 0.1466 0.0
C550 C 0.36976 0.49215 0.19865 0.0
C551 C 0.39477 0.52962 0.31195 0.0
H552 H 0.42164 0.48526 0.38787 0.0
C553 C 0.47169 0.5355 0.42824 0.0
C554 C 0.47746 0.52369 0.4859 0.0
C555 C 0.45361 0.53335 0.39571 0.0
C556 C 0.41422 0.49788 0.3682 0.0
H557 H 0.32858 0.52976 0.19525 0.0
H558 H 0.35503 0.53378 0.28221 0.0
H559 H 0.39217 0.48072 0.31806 0.0
H560 H 0.46901 0.49972 0.5528 0.0
H561 H 0.43709 0.4962 0.49749 0.0
H562 H 0.41661 0.5468 0.3634 0.0
C563 C 0.3552 0.52142 0.24533 0.0
C564 C 0.39737 0.49525 0.32693 0.0
C565 C 0.33983 0.51899 0.19588 0.0
C566 C 0.46476 0.50942 0.50989 0.0
C567 C 0.44655 0.50725 0.47732 0.0
C568 C 0.41154 0.53226 0.35361 0.0
C569 C 0.37052 0.50811 0.24705 0.0
C570 C 0.38756 0.51105 0.29681 0.0
C571 C 0.44073 0.51916 0.41938 0.0
C572 C 0.42177 0.51641 0.38116 0.0
H573 H 0.35448 0.4771 0.11393 0.0
H574 H 0.38127 0.48166 0.19708 0.0
H575 H 0.38783 0.5422 0.28969 0.0
H576 H 0.48134 0.54636 0.4076 0.0
H577 H 0.45 0.54251 0.35032 0.0
C578 C 0.01825 0.33836 0.212 0.0
C579 C 0.03418 0.33692 0.16479 0.0
C580 C 0.0161 0.35426 0.26038 0.0
C581 C 0.04314 0.39681 0.34166 0.0
H582 H 0.99215 0.41761 0.37268 0.0
C583 C 0.03035 0.4668 0.51785 0.0
C584 C 0.01579 0.47929 0.49416 0.0
C585 C 0.03242 0.44829 0.48595 0.0
C586 C 1.00656 0.41215 0.36432 0.0
H587 H 0.06086 0.35091 0.13546 0.0
H588 H 0.05684 0.37852 0.21644 0.0
H589 H 0.99618 0.3879 0.3021 0.0
H590 H 0.99265 0.48251 0.41624 0.0
H591 H 0.99633 0.45072 0.36015 0.0
H592 H 0.05358 0.42158 0.40082 0.0
C593 C 0.04599 0.3674 0.21729 0.0
C594 C 1.00886 0.39481 0.32448 0.0
C595 C 0.04815 0.35155 0.1695 0.0
C596 C 1.00372 0.47305 0.43687 0.0
C597 C 1.00578 0.45467 0.40502 0.0
C598 C 0.04085 0.41424 0.38102 0.0
C599 C 0.02985 0.36922 0.26322 0.0
C600 C 0.02722 0.38695 0.3113 0.0
C601 C 0.02014 0.4419 0.42884 0.0
C602 C 0.02254 0.42241 0.39204 0.0
H603 H 1.00714 0.32747 0.21023 0.0
H604 H 1.00359 0.35483 0.29539 0.0
H605 H 0.05752 0.39119 0.33454 0.0
H606 H 0.04026 0.47141 0.56033 0.0
H607 H 0.04363 0.43899 0.50637 0.0
C608 C 0.83083 0.99939 0.01489 0.0
C609 C 0.83157 1.00828 0.08462 0.0
C610 C 0.84629 1.00098 0.96592 0.0
C611 C 0.88968 0.03006 0.92537 0.0
H612 H 0.90866 0.98333 0.83172 0.0
C613 C 0.96419 0.02761 0.78541 0.0
C614 C 0.96705 0.01554 0.72387 0.0
C615 C 0.94703 0.02701 0.8253 0.0
C616 C 0.90344 0.99662 0.85625 0.0
H617 H 0.84881 0.02651 0.15605 0.0
H618 H 0.87552 0.02952 0.07067 0.0
H619 H 0.87961 0.9823 0.90595 0.0
H620 H 0.95365 0.99376 0.65471 0.0
H621 H 0.92351 0.99309 0.72267 0.0
H622 H 0.91327 0.04448 0.87546 0.0
C623 C 0.86309 0.02121 0.05374 0.0
C624 C 0.88673 0.996 0.89909 0.0
C625 C 0.8478 0.01941 0.10293 0.0
C626 C 0.95205 1.00313 0.70231 0.0
C627 C 0.93477 1.00265 0.74182 0.0
C628 C 0.90626 0.03073 0.882 0.0
C629 C 0.86273 1.01176 0.98502 0.0
C630 C 0.87975 0.01267 0.93506 0.0
C631 C 0.93198 0.01454 0.80425 0.0
C632 C 0.91361 0.01397 0.84751 0.0
H633 H 0.81862 0.9906 0.99927 0.0
H634 H 0.84542 0.99365 0.91322 0.0
H635 H 0.88458 0.04324 0.95126 0.0
H636 H 0.97501 0.03789 0.80215 0.0
H637 H 0.94568 0.03631 0.87317 0.0
C638 C 0.55723 0.85991 0.12471 0.0
C639 C 0.54331 0.84524 0.12749 0.0
C640 C 0.55534 0.87521 0.0763 0.0
C641 C 0.53125 0.89009 0.90515 0.0
H642 H 0.54364 0.94164 0.97477 0.0
C643 C 0.51465 0.95753 0.73326 0.0
C644 C 0.52747 0.97314 0.73627 0.0
C645 C 0.51687 0.94185 0.77975 0.0
C646 C 0.54038 0.92733 0.95387 0.0
H647 H 0.51647 0.83533 0.07994 0.0
H648 H 0.51328 0.86197 0.99477 0.0
H649 H 0.54666 0.91458 0.05722 0.0
H650 H 0.55299 0.98427 0.7898 0.0
H651 H 0.55709 0.95679 0.87049 0.0
H652 H 0.52512 0.90278 0.80162 0.0
C653 C 0.52574 0.86152 0.03024 0.0
C654 C 0.54207 0.91177 1.0014 0.0
C655 C 0.52759 0.8462 0.07911 0.0
C656 C 0.54275 0.97257 0.78654 0.0
C657 C 0.54503 0.95682 0.83304 0.0
C658 C 0.52965 0.90565 0.85746 0.0
C659 C 0.53954 0.87632 0.02859 0.0
C660 C 0.53752 0.89292 0.97778 0.0
C661 C 0.53207 0.94123 0.83055 0.0
C662 C 0.53416 0.92454 0.88109 0.0
H663 H 0.5698 0.8595 0.15959 0.0
H664 H 0.56646 0.88609 0.07564 0.0
H665 H 0.52789 0.87577 0.88464 0.0
H666 H 0.50257 0.95757 0.69582 0.0
H667 H 0.50638 0.93039 0.7768 0.0
C668 C 0.69508 0.53797 0.01736 0.0
C669 C 0.69593 0.52659 0.08039 0.0
C670 C 0.67914 0.53695 0.9699 0.0
C671 C 0.6277 0.52214 0.97211 0.0
H672 H 0.62996 0.52736 0.76124 0.0
C673 C 0.56187 0.50558 0.79412 0.0
C674 C 0.55691 0.51839 0.73855 0.0
C675 C 0.57965 0.50682 0.82933 0.0
C676 C 0.62909 0.52607 0.82016 0.0
H677 H 0.68129 0.50424 0.13972 0.0
H678 H 0.65396 0.50211 0.05696 0.0
H679 H 0.65968 0.52851 0.8338 0.0
H680 H 0.56661 0.54293 0.67718 0.0
H681 H 0.5981 0.54503 0.73856 0.0
H682 H 0.59729 0.5196 0.95901 0.0
C683 C 0.66518 0.51235 0.04507 0.0
C684 C 0.64613 0.52672 0.86186 0.0
C685 C 0.68097 0.51347 0.09249 0.0
C686 C 0.57027 0.53252 0.71847 0.0
C687 C 0.58824 0.53375 0.75386 0.0
C688 C 0.6108 0.52142 0.93068 0.0
C689 C 0.6637 0.52445 0.98416 0.0
C690 C 0.6457 0.52447 0.9385 0.0
C691 C 0.59299 0.52111 0.81084 0.0
C692 C 0.61122 0.5231 0.85405 0.0
H693 H 0.7063 0.54832 0.0066 0.0
H694 H 0.67857 0.54654 0.9238 0.0
H695 H 0.62657 0.52097 0.03098 0.0
H696 H 0.5518 0.49466 0.81115 0.0
H697 H 0.58287 0.49665 0.87198 0.0
C698 C 0.02938 0.68883 0.08973 0.0
C699 C 0.01475 0.70278 0.0857 0.0
C700 C 0.02965 0.67279 0.04222 0.0
C701 C 1.00974 0.65108 0.86936 0.0
H702 H 0.02245 0.60347 0.96612 0.0
C703 C 1.00378 0.57381 0.72963 0.0
C704 C 0.01826 0.56057 0.74813 0.0
C705 C 1.0029 0.59209 0.76461 0.0
C706 C 0.0191 0.6166 0.93756 0.0
H707 H 0.98943 0.71111 0.02496 0.0
H708 H 0.98989 0.683 0.94136 0.0
H709 H 0.02219 0.63347 0.03579 0.0
H710 H 0.04298 0.55608 0.81756 0.0
H711 H 0.0418 0.58768 0.87663 0.0
H712 H 1.0067 0.63388 0.77071 0.0
C713 C 1.00122 0.68455 0.98168 0.0
C714 C 0.01896 0.63393 0.97783 0.0
C715 C 1.00097 0.70073 0.02953 0.0
C716 C 0.03175 0.56601 0.80171 0.0
C717 C 0.03095 0.58413 0.83613 0.0
C718 C 1.00995 0.6336 0.82868 0.0
C719 C 0.01525 0.67002 0.98884 0.0
C720 C 0.01457 0.65153 0.94445 0.0
C721 C 0.01632 0.59738 0.81948 0.0
C722 C 0.01493 0.61611 0.86206 0.0
H723 H 0.04044 0.69005 0.13131 0.0
H724 H 0.04103 0.6623 0.04836 0.0
H725 H 1.00628 0.66429 0.84155 0.0
H726 H 0.9929 0.56984 0.68979 0.0
H727 H 0.99136 0.60179 0.75045 0.0
C728 C 0.04247 0.23879 0.3022 0.0
C729 C 0.02783 0.23337 0.25297 0.0
C730 C 0.04386 0.23014 0.37078 0.0
C731 C 0.01922 0.19346 0.48831 0.0
H732 H 0.07091 0.17384 0.50831 0.0
C733 C 0.02494 0.11544 0.51645 0.0
C734 C 0.03764 0.10803 0.46314 0.0
C735 C 0.02765 0.13393 0.54617 0.0
C736 C 0.05631 0.17901 0.50337 0.0
H737 H 1.00213 0.2162 0.23953 0.0
H738 H 1.00482 0.20063 0.35618 0.0
H739 H 0.06559 0.20362 0.44495 0.0
H740 H 0.06528 0.11253 0.41192 0.0
H741 H 0.0691 0.1449 0.45684 0.0
H742 H 1.00954 0.16779 0.5369 0.0
C743 C 0.01519 0.21168 0.34371 0.0
C744 C 0.05328 0.19647 0.46807 0.0
C745 C 0.01378 0.22036 0.27578 0.0
C746 C 0.05458 0.11825 0.44936 0.0
C747 C 0.05694 0.13693 0.47693 0.0
C748 C 0.02218 0.17568 0.52094 0.0
C749 C 0.03065 0.21587 0.39121 0.0
C750 C 0.03449 0.2029 0.45391 0.0
C751 C 0.04258 0.14572 0.52054 0.0
C752 C 0.04062 0.16724 0.52171 0.0
H753 H 0.05347 0.24888 0.28616 0.0
H754 H 0.05578 0.23397 0.40619 0.0
H755 H 1.00463 0.19864 0.48256 0.0
H756 H 0.01198 0.1078 0.53073 0.0
H757 H 0.01695 0.13952 0.5838 0.0
C758 C 0.31293 0.07383 0.20358 0.0
C759 C 0.30166 0.05734 0.19243 0.0
C760 C 0.32389 0.07598 0.26728 0.0
C761 C 0.35908 0.064 0.34819 0.0
H762 H 0.35191 0.03825 0.5327 0.0
C763 C 0.4236 0.02976 0.47148 0.0
C764 C 0.42042 1.01017 0.48587 0.0
C765 C 0.40832 0.04279 0.47078 0.0
C766 C 0.35418 0.04558 0.48159 0.0
H767 H 0.29147 0.03106 0.24065 0.0
H768 H 0.31107 0.03434 0.35086 0.0
H769 H 0.32392 0.04863 0.46259 0.0
H770 H 0.39912 0.98995 0.52463 0.0
H771 H 0.37236 1.012 0.51624 0.0
H772 H 0.38897 0.05971 0.36271 0.0
C773 C 0.31121 0.04593 0.3119 0.0
C774 C 0.33812 0.05158 0.44154 0.0
C775 C 0.30001 0.04396 0.24863 0.0
C776 C 0.40201 1.00463 0.50908 0.0
C777 C 0.38661 0.0175 0.5059 0.0
C778 C 0.37502 0.05792 0.38765 0.0
C779 C 0.32415 0.06139 0.31988 0.0
C780 C 0.34041 0.05999 0.37256 0.0
C781 C 0.38939 0.03642 0.48168 0.0
C782 C 0.37282 0.0477 0.45299 0.0
H783 H 0.31433 0.08433 0.16071 0.0
H784 H 0.33335 0.08828 0.27247 0.0
H785 H 0.36153 0.07021 0.29504 0.0
H786 H 0.43753 0.03492 0.45464 0.0
H787 H 0.41117 0.05749 0.45529 0.0
C788 C 0.51006 0.30947 0.23852 0.0
C789 C 0.49433 0.29969 0.20789 0.0
C790 C 0.50878 0.31783 0.3082 0.0
C791 C 0.47256 0.34228 0.41257 0.0
H792 H 0.51687 0.35525 0.53209 0.0
C793 C 0.47936 0.41815 0.51806 0.0
C794 C 0.49603 0.42594 0.48686 0.0
C795 C 0.47775 0.39829 0.52779 0.0
C796 C 0.5042 0.35161 0.50036 0.0
H797 H 0.46543 0.28962 0.22737 0.0
H798 H 0.46297 0.30465 0.34964 0.0
H799 H 0.51646 0.32503 0.46181 0.0
H800 H 0.52489 0.41922 0.44981 0.0
H801 H 0.52213 0.38495 0.46643 0.0
H802 H 0.46105 0.36955 0.44496 0.0
C803 C 0.47634 0.30574 0.31983 0.0
C804 C 0.50396 0.33431 0.46015 0.0
C805 C 0.47773 0.29716 0.2501 0.0
C806 C 0.51182 0.41377 0.47379 0.0
C807 C 0.51024 0.39399 0.48375 0.0
C808 C 0.47282 0.35957 0.45253 0.0
C809 C 0.49163 0.31677 0.34846 0.0
C810 C 0.48878 0.33023 0.4115 0.0
C811 C 0.49281 0.3859 0.50669 0.0
C812 C 0.48931 0.3651 0.49209 0.0
H813 H 0.52305 0.31147 0.20698 0.0
H814 H 0.52074 0.32642 0.32786 0.0
H815 H 0.46059 0.33958 0.37592 0.0
H816 H 0.46717 0.42728 0.53106 0.0
H817 H 0.46427 0.39251 0.54701 0.0
C818 C 0.22647 0.52158 0.27486 0.0
C819 C 0.23734 0.50621 0.24628 0.0
C820 C 0.2185 0.52055 0.34458 0.0
C821 C 0.19739 0.48416 0.45432 0.0
H822 H 0.18243 0.52917 0.56891 0.0
C823 C 0.12181 0.48796 0.55207 0.0
C824 C 0.11334 0.50383 0.51757 0.0
C825 C 0.14157 0.48764 0.56572 0.0
C826 C 0.18666 0.51631 0.53869 0.0
H827 H 0.24957 0.47828 0.26943 0.0
H828 H 0.23519 0.47624 0.39165 0.0
H829 H 0.21208 0.52969 0.49787 0.0
H830 H 0.11857 0.53276 0.47925 0.0
H831 H 0.15261 0.5322 0.50242 0.0
H832 H 0.17118 0.47143 0.48852 0.0
C833 C 0.23298 0.48914 0.36019 0.0
C834 C 0.20363 0.51661 0.498 0.0
C835 C 0.24117 0.49029 0.29045 0.0
C836 C 0.12456 0.52024 0.50556 0.0
C837 C 0.14422 0.51995 0.51942 0.0
C838 C 0.18041 0.48388 0.49466 0.0
C839 C 0.22105 0.50401 0.387 0.0
C840 C 0.20831 0.5011 0.45091 0.0
C841 C 0.15316 0.50318 0.5451 0.0
C842 C 0.17407 0.50056 0.53221 0.0
H843 H 0.22349 0.53408 0.24196 0.0
H844 H 0.20916 0.53214 0.36287 0.0
H845 H 0.20062 0.4719 0.41899 0.0
H846 H 0.11338 0.47535 0.56459 0.0
H847 H 0.14797 0.47468 0.5872 0.0
C848 C 0.95921 0.81042 0.02364 0.0
C849 C 0.97728 0.8017 0.02983 0.0
C850 C 0.95439 0.82048 0.96048 0.0
C851 C 0.95674 0.85587 0.87008 0.0
H852 H 0.99113 0.85455 0.70387 0.0
C853 C 0.99954 0.92076 0.79827 0.0
C854 C 1.00914 0.92222 0.73123 0.0
C855 C 0.98713 0.90547 0.81072 0.0
C856 C 0.98095 0.85523 0.74852 0.0
H857 H 1.00386 0.79513 0.974 0.0
H858 H 0.9963 0.81347 0.86671 0.0
H859 H 0.98312 0.82493 0.764 0.0
H860 H 0.01205 0.90976 0.62239 0.0
H861 H 0.98977 0.88333 0.64285 0.0
H862 H 0.95404 0.88606 0.85293 0.0
C863 C 0.98527 0.81223 0.90795 0.0
C864 C 0.97663 0.83814 0.78424 0.0
C865 C 0.98979 0.80172 0.97002 0.0
C866 C 1.00499 0.90884 0.67489 0.0
C867 C 0.99227 0.89365 0.68687 0.0
C868 C 0.96048 0.8728 0.83271 0.0
C869 C 0.96792 0.8227 0.90387 0.0
C870 C 0.96599 0.83853 0.84976 0.0
C871 C 0.98375 0.89132 0.75604 0.0
C872 C 0.97407 0.87299 0.77593 0.0
H873 H 0.94929 0.81037 0.06925 0.0
H874 H 0.94058 0.8276 0.95857 0.0
H875 H 0.94809 0.85702 0.91905 0.0
H876 H 1.0026 0.93072 0.84304 0.0
H877 H 0.98132 0.90415 0.8653 0.0
C878 C 0.71197 0.98754 0.97653 0.0
C879 C 0.72856 0.9982 0.99304 0.0
C880 C 0.7033 0.98881 0.90789 0.0
C881 C 0.69731 0.0258 0.77223 0.0
H882 H 0.66007 0.98901 0.69745 0.0
C883 C 0.62831 0.05359 0.65125 0.0
C884 C 0.61309 0.04716 0.69513 0.0
C885 C 0.64571 0.04351 0.64889 0.0
C886 C 0.6706 0.99939 0.71656 0.0
H887 H 0.75021 0.01702 0.94832 0.0
H888 H 0.7352 0.01907 0.82768 0.0
H889 H 0.6874 0.97775 0.76907 0.0
H890 H 0.60369 0.02381 0.76426 0.0
H891 H 0.63355 1.00631 0.7591 0.0
H892 H 0.67987 0.04756 0.72465 0.0
C893 C 0.72869 1.00997 0.86831 0.0
C894 C 0.68621 0.99297 0.75781 0.0
C895 C 0.73736 1.00871 0.93725 0.0
C896 C 0.61496 0.0293 0.72964 0.0
C897 C 0.6322 0.01914 0.72655 0.0
C898 C 0.68178 0.03219 0.73081 0.0
C899 C 0.71106 1.00077 0.85401 0.0
C900 C 0.69897 1.00627 0.79042 0.0
C901 C 0.64812 0.02667 0.68959 0.0
C902 C 0.66754 0.0192 0.70704 0.0
H903 H 0.70507 0.97903 0.01811 0.0
H904 H 0.68969 0.9816 0.89943 0.0
H905 H 0.70679 0.03651 0.79627 0.0
H906 H 0.62715 0.06695 0.62183 0.0
H907 H 0.65764 0.04946 0.6188 0.0
C908 C 0.52328 0.73367 0.9834 0.0
C909 C 0.53891 0.74371 0.01355 0.0
C910 C 0.52449 0.72548 0.91343 0.0
C911 C 0.5291 0.70953 0.76061 0.0
H912 H 0.57251 0.67483 0.77333 0.0
C913 C 0.52211 0.63011 0.74773 0.0
C914 C 0.53796 0.61808 0.73385 0.0
C915 C 0.52346 0.64989 0.73745 0.0
C916 C 0.56059 0.68467 0.76641 0.0
H917 H 0.56754 0.75439 0.99294 0.0
H918 H 0.56989 0.73963 0.87019 0.0
H919 H 0.57278 0.70472 0.8429 0.0
H920 H 0.56665 0.61698 0.68798 0.0
H921 H 0.56915 0.65176 0.67154 0.0
H922 H 0.51625 0.68851 0.68885 0.0
C923 C 0.55665 0.73822 0.90061 0.0
C924 C 0.56075 0.70191 0.80667 0.0
C925 C 0.55532 0.74664 0.97063 0.0
C926 C 0.55443 0.626 0.70162 0.0
C927 C 0.55581 0.64587 0.69158 0.0
C928 C 0.52898 0.69228 0.72006 0.0
C929 C 0.54148 0.72698 0.87237 0.0
C930 C 0.54436 0.71372 0.80874 0.0
C931 C 0.54071 0.65813 0.71337 0.0
C932 C 0.54405 0.67897 0.72756 0.0
H933 H 0.51043 0.73138 0.01545 0.0
H934 H 0.51264 0.7167 0.89406 0.0
H935 H 0.51647 0.71864 0.75972 0.0
H936 H 0.50919 0.62457 0.77253 0.0
H937 H 0.51155 0.65883 0.75534 0.0
C938 C 0.80888 0.56794 0.98059 0.0
C939 C 0.79565 0.55307 0.99173 0.0
C940 C 0.81781 0.56984 0.91278 0.0
C941 C 0.83632 0.53616 0.78354 0.0
H942 H 0.86115 0.58152 0.70792 0.0
C943 C 0.91396 0.52949 0.72143 0.0
C944 C 0.92448 0.54414 0.75738 0.0
C945 C 0.89484 0.53252 0.70138 0.0
C946 C 0.8544 0.56864 0.72818 0.0
H947 H 0.77979 0.52986 0.93923 0.0
H948 H 0.79567 0.53299 0.82063 0.0
H949 H 0.8303 0.58461 0.7701 0.0
H950 H 0.92412 0.57452 0.78708 0.0
H951 H 0.89068 0.57926 0.75937 0.0
H952 H 0.86094 0.52037 0.75066 0.0
C953 C 0.79908 0.5432 0.86418 0.0
C954 C 0.8366 0.57043 0.7631 0.0
C955 C 0.79 0.54142 0.93195 0.0
C956 C 0.91618 0.56255 0.76343 0.0
C957 C 0.89691 0.5654 0.7456 0.0
C958 C 0.85422 0.53441 0.75019 0.0
C959 C 0.81382 0.55675 0.8552 0.0
C960 C 0.82805 0.55437 0.79543 0.0
C961 C 0.88557 0.55 0.71926 0.0
C962 C 0.86421 0.55086 0.72709 0.0
H963 H 0.81331 0.57722 0.02577 0.0
H964 H 0.8292 0.58035 0.90794 0.0
H965 H 0.83013 0.52346 0.80774 0.0
H966 H 0.91979 0.51515 0.71404 0.0
H967 H 0.88693 0.52053 0.67782 0.0
C968 C 0.03773 0.21217 0.93617 0.0
C969 C 0.02324 0.2161 0.98797 0.0
C970 C 0.03698 0.19544 0.89126 0.0
C971 C 1.00359 0.15713 0.82149 0.0
H972 H 0.04929 0.12558 0.80109 0.0
C973 C 0.99826 0.07854 0.71533 0.0
C974 C 0.01296 0.07066 0.67171 0.0
C975 C 1.00042 0.09652 0.75037 0.0
C976 C 0.03641 0.13428 0.80519 0.0
H977 H 0.99634 0.20574 0.03128 0.0
H978 H 0.99475 0.17708 0.95252 0.0
H979 H 0.05111 0.15685 0.86464 0.0
H980 H 0.04117 0.07602 0.62729 0.0
H981 H 0.04505 0.10763 0.68812 0.0
H982 H 0.98885 0.13484 0.76199 0.0
C983 C 1.00676 0.18679 0.94622 0.0
C984 C 0.03747 0.1523 0.8418 0.0
C985 C 1.00765 0.20328 0.99157 0.0
C986 C 0.02987 0.08141 0.6628 0.0
C987 C 0.03201 0.09959 0.6975 0.0
C988 C 1.00256 0.13926 0.78459 0.0
C989 C 0.02156 0.18235 0.8962 0.0
C990 C 0.02098 0.16387 0.85165 0.0
C991 C 0.0172 0.10756 0.74138 0.0
C992 C 0.01885 0.1273 0.77693 0.0
H993 H 0.05007 0.22157 0.93269 0.0
H994 H 0.04857 0.19266 0.8531 0.0
H995 H 0.99064 0.1657 0.82643 0.0
H996 H 0.98491 0.07077 0.72195 0.0
H997 H 0.9888 0.10176 0.78456 0.0
C998 C 0.33236 0.02095 0.96031 0.0
C999 C 0.31942 0.03569 0.94265 0.0
C1000 C 0.34922 0.01813 0.9199 0.0
C1001 C 0.37562 0.03171 0.74912 0.0
H1002 H 0.41972 0.01819 0.86737 0.0
C1003 C 0.45528 0.03119 0.64161 0.0
C1004 C 0.467 0.01618 0.66687 0.0
C1005 C 0.43659 0.03376 0.66952 0.0
C1006 C 0.40758 0.02182 0.83315 0.0
H1007 H 0.31374 0.05872 0.86739 0.0
H1008 H 0.34342 0.05404 0.79689 0.0
H1009 H 0.38858 0.02197 0.92467 0.0
H1010 H 0.46784 0.99112 0.73537 0.0
H1011 H 0.43567 0.99574 0.7852 0.0
H1012 H 0.39508 0.03193 0.65772 0.0
C1013 C 0.3404 0.04438 0.8413 0.0
C1014 C 0.38957 0.02389 0.86611 0.0
C1015 C 0.32334 0.04707 0.88153 0.0
C1016 C 0.45936 1.00324 0.71719 0.0
C1017 C 0.44091 1.00591 0.74563 0.0
C1018 C 0.3938 0.02977 0.71606 0.0
C1019 C 0.35389 0.03021 0.86127 0.0
C1020 C 0.37318 0.02857 0.82468 0.0
C1021 C 0.4293 0.02135 0.72314 0.0
C1022 C 0.40999 0.02451 0.75756 0.0
H1023 H 0.32972 1.012 0.00724 0.0
H1024 H 0.35884 1.00669 0.93598 0.0
H1025 H 0.36342 0.03528 0.71508 0.0
H1026 H 0.46056 0.04088 0.6004 0.0
H1027 H 0.42806 0.04572 0.65044 0.0
C1028 C 0.49158 0.32001 0.88239 0.0
C1029 C 0.502 0.31942 0.94859 0.0
C1030 C 0.4921 0.33645 0.8383 0.0
C1031 C 0.49607 0.38811 0.85696 0.0
H1032 H 0.51138 0.39068 0.65336 0.0
C1033 C 0.48925 0.45846 0.69384 0.0
C1034 C 0.50654 0.46467 0.6623 0.0
C1035 C 0.48738 0.43965 0.71961 0.0
C1036 C 0.5069 0.39013 0.71001 0.0
H1037 H 0.52248 0.33525 0.01612 0.0
H1038 H 0.52267 0.36392 0.94124 0.0
H1039 H 0.51116 0.35944 0.71522 0.0
H1040 H 0.53492 0.45519 0.62819 0.0
H1041 H 0.53137 0.42229 0.671 0.0
H1042 H 0.49169 0.41861 0.85224 0.0
C1043 C 0.514 0.35174 0.92384 0.0
C1044 C 0.50675 0.37227 0.74529 0.0
C1045 C 0.51378 0.33528 0.96695 0.0
C1046 C 0.52144 0.45111 0.65285 0.0
C1047 C 0.51941 0.43216 0.67714 0.0
C1048 C 0.49578 0.4058 0.82136 0.0
C1049 C 0.50285 0.35271 0.85996 0.0
C1050 C 0.50166 0.37116 0.81959 0.0
C1051 C 0.50256 0.42636 0.71274 0.0
C1052 C 0.50144 0.40711 0.74778 0.0
H1053 H 0.4823 0.30818 0.86639 0.0
H1054 H 0.48339 0.33682 0.78918 0.0
H1055 H 0.49203 0.38767 0.91416 0.0
H1056 H 0.47723 0.46823 0.70003 0.0
H1057 H 0.4741 0.43554 0.74582 0.0
C1058 C 0.20333 0.52476 0.99829 0.0
C1059 C 0.21874 0.51212 0.98383 0.0
C1060 C 0.18722 0.52527 0.9524 0.0
C1061 C 0.16104 0.49626 0.8092 0.0
H1062 H 0.13086 0.54301 0.79883 0.0
C1063 C 0.08143 0.49644 0.70811 0.0
C1064 C 0.07369 0.51335 0.67845 0.0
C1065 C 0.10034 0.49602 0.73526 0.0
C1066 C 0.13912 0.52981 0.79963 0.0
H1067 H 0.22942 0.49069 0.90662 0.0
H1068 H 0.20159 0.49206 0.82461 0.0
H1069 H 0.16166 0.54366 0.85981 0.0
H1070 H 0.0807 0.54262 0.64879 0.0
H1071 H 0.11356 0.54162 0.69201 0.0
H1072 H 0.13865 0.48261 0.74652 0.0
C1073 C 0.20175 0.50126 0.87303 0.0
C1074 C 0.15683 0.53011 0.83623 0.0
C1075 C 0.21791 0.50066 0.91956 0.0
C1076 C 0.08585 0.52942 0.67261 0.0
C1077 C 0.10481 0.5289 0.6983 0.0
C1078 C 0.14336 0.49601 0.77164 0.0
C1079 C 0.18595 0.51336 0.88939 0.0
C1080 C 0.16794 0.51327 0.84328 0.0
C1081 C 0.11227 0.5124 0.7322 0.0
C1082 C 0.13191 0.51272 0.76731 0.0
H1083 H 0.20347 0.53404 0.04654 0.0
H1084 H 0.17545 0.53463 0.96823 0.0
H1085 H 0.16899 0.48292 0.81329 0.0
H1086 H 0.07279 0.48356 0.71152 0.0
H1087 H 0.10534 0.48297 0.76068 0.0
C1088 C 0.01956 0.82856 0.29176 0.0
C1089 C 1.00099 0.82206 0.27432 0.0
C1090 C 0.02232 0.84591 0.33159 0.0
C1091 C 0.99595 0.89169 0.38345 0.0
H1092 H 0.04077 0.90111 0.50453 0.0
C1093 C 1.00646 0.96317 0.55263 0.0
C1094 C 0.02472 0.97169 0.54785 0.0
C1095 C 1.00323 0.94444 0.52447 0.0
C1096 C 0.02821 0.89878 0.47052 0.0
H1097 H 0.97076 0.82826 0.28812 0.0
H1098 H 0.97539 0.85773 0.36005 0.0
H1099 H 0.03591 0.86935 0.44842 0.0
H1100 H 0.05414 0.96667 0.51492 0.0
H1101 H 0.04862 0.93414 0.46652 0.0
H1102 H 0.98819 0.9211 0.40664 0.0
C1103 C 0.98798 0.85 0.34112 0.0
C1104 C 0.02542 0.88049 0.43793 0.0
C1105 C 0.98527 0.83286 0.30062 0.0
C1106 C 0.03982 0.96067 0.51799 0.0
C1107 C 0.03667 0.94194 0.49064 0.0
C1108 C 0.99864 0.90989 0.41674 0.0
C1109 C 1.00655 0.85719 0.35574 0.0
C1110 C 1.00931 0.87661 0.3932 0.0
C1111 C 0.01828 0.93359 0.4925 0.0
C1112 C 0.0149 0.9138 0.46018 0.0
H1113 H 0.03197 0.82076 0.2713 0.0
H1114 H 0.03687 0.85084 0.34062 0.0
H1115 H 0.98355 0.88968 0.34846 0.0
H1116 H 0.99467 0.97102 0.57764 0.0
H1117 H 0.98896 0.9384 0.52821 0.0
C1118 C 0.6998 0.0265 0.24472 0.0
C1119 C 0.71237 1.01092 0.25434 0.0
C1120 C 0.68326 0.02855 0.28762 0.0
C1121 C 0.65735 1.01074 0.45343 0.0
H1122 H 0.61302 0.02856 0.34515 0.0
C1123 C 0.57783 1.01064 0.56487 0.0
C1124 C 0.56664 0.02673 0.54647 0.0
C1125 C 0.59644 1.00828 0.53576 0.0
C1126 C 0.62526 0.02374 0.37666 0.0
H1127 H 0.71778 0.98557 0.31844 0.0
H1128 H 0.68866 0.98893 0.39332 0.0
H1129 H 0.64379 0.02563 0.28413 0.0
H1130 H 0.56676 0.05379 0.48965 0.0
H1131 H 0.59878 0.04964 0.43826 0.0
H1132 H 0.63832 1.00845 0.54565 0.0
C1133 C 0.69173 0.9998 0.35318 0.0
C1134 C 0.64304 0.02212 0.3416 0.0
C1135 C 0.70847 0.99786 0.31042 0.0
C1136 C 0.5748 0.04089 0.50243 0.0
C1137 C 0.59318 0.0385 0.47303 0.0
C1138 C 0.63939 1.01223 0.48855 0.0
C1139 C 0.67855 0.01487 0.34085 0.0
C1140 C 0.65949 0.01592 0.37949 0.0
C1141 C 0.60416 0.02199 0.48791 0.0
C1142 C 0.62317 0.01911 0.45089 0.0
H1143 H 0.70245 0.0368 0.20198 0.0
H1144 H 0.6739 0.04068 0.27763 0.0
H1145 H 0.66961 1.00591 0.48471 0.0
H1146 H 0.57217 0.9999 0.60131 0.0
H1147 H 0.60453 0.99547 0.54896 0.0
C1148 C 0.54237 0.72355 0.33934 0.0
C1149 C 0.53184 0.72407 0.27336 0.0
C1150 C 0.54198 0.70713 0.3836 0.0
C1151 C 0.53854 0.65552 0.36609 0.0
H1152 H 0.52215 0.65281 0.56838 0.0
C1153 C 0.54525 0.58523 0.5302 0.0
C1154 C 0.52791 0.57892 0.56108 0.0
C1155 C 0.54705 0.60403 0.50413 0.0
C1156 C 0.52695 0.6534 0.51214 0.0
H1157 H 0.51132 0.70811 0.20645 0.0
H1158 H 0.51138 0.67948 0.28155 0.0
H1159 H 0.52232 0.68402 0.50641 0.0
H1160 H 0.49937 0.58822 0.59374 0.0
H1161 H 0.50277 0.62108 0.55044 0.0
H1162 H 0.54329 0.62508 0.37131 0.0
C1163 C 0.52002 0.69171 0.29865 0.0
C1164 C 0.52707 0.67125 0.47679 0.0
C1165 C 0.52011 0.70814 0.2554 0.0
C1166 C 0.51288 0.59238 0.56957 0.0
C1167 C 0.51484 0.6113 0.54499 0.0
C1168 C 0.53888 0.63784 0.40181 0.0
C1169 C 0.53126 0.69082 0.36232 0.0
C1170 C 0.53254 0.67241 0.40292 0.0
C1171 C 0.53174 0.61721 0.51004 0.0
C1172 C 0.53283 0.63647 0.47494 0.0
H1173 H 0.55163 0.73542 0.35505 0.0
H1174 H 0.55076 0.70683 0.43256 0.0
H1175 H 0.54287 0.656 0.30919 0.0
H1176 H 0.55737 0.57555 0.52481 0.0
H1177 H 0.56038 0.60822 0.47851 0.0
C1178 C 0.81568 0.53881 0.31544 0.0
C1179 C 0.81671 0.53357 0.24064 0.0
C1180 C 0.83202 0.53757 0.36093 0.0
C1181 C 0.88473 0.53954 0.34851 0.0
H1182 H 0.88611 0.51717 0.54143 0.0
C1183 C 0.95236 0.54546 0.53168 0.0
C1184 C 0.95912 0.52813 0.56128 0.0
C1185 C 0.93402 0.54663 0.5002 0.0
C1186 C 0.88594 0.52354 0.48777 0.0
H1187 H 0.83556 0.52133 0.15745 0.0
H1188 H 0.86378 0.51971 0.23555 0.0
H1189 H 0.85585 0.51767 0.47209 0.0
H1190 H 0.95091 0.49882 0.58582 0.0
H1191 H 0.91882 0.501 0.53224 0.0
H1192 H 0.91466 0.54549 0.36363 0.0
C1193 C 0.8505 0.52511 0.25889 0.0
C1194 C 0.86857 0.5239 0.44819 0.0
C1195 C 0.83424 0.52609 0.21398 0.0
C1196 C 0.94643 0.51235 0.56273 0.0
C1197 C 0.92793 0.51361 0.53221 0.0
C1198 C 0.90193 0.53951 0.38846 0.0
C1199 C 0.84978 0.53122 0.33253 0.0
C1200 C 0.86781 0.53167 0.37752 0.0
C1201 C 0.92166 0.53062 0.49868 0.0
C1202 C 0.90287 0.53136 0.45839 0.0
H1203 H 0.80251 0.54465 0.33808 0.0
H1204 H 0.83095 0.54236 0.41752 0.0
H1205 H 0.88467 0.54578 0.29455 0.0
H1206 H 0.96139 0.55813 0.5315 0.0
H1207 H 0.92956 0.56009 0.47629 0.0
loop_
_geom_bond_atom_site_label_1
_geom_bond_atom_site_label_2
_geom_bond_distance
_geom_bond_site_symmetry_2
_ccdc_geom_bond_type
H0 C1 0.949 . S
C1 H0 0.949 . S
C1 C2 1.395 . S
C1 C3 1.391 . S
C2 C1 1.395 . S
C2 C5 1.390 . S
C3 C1 1.391 . S
C3 C7 1.387 . S
C3 C8 1.491 . S
H4 C5 0.950 . S
C5 C2 1.390 . S
C5 H4 0.950 . S
C5 C6 1.378 . S
C6 C5 1.378 . S
C6 C7 1.409 . S
C7 C3 1.387 . S
C7 C6 1.409 . S
C7 H9 0.951 . S
C8 C3 1.491 . S
C8 C10 1.382 . S
C8 C12 1.404 . S
H9 C7 0.951 . S
C10 C8 1.382 . S
C10 C11 1.390 . S
C10 H15 0.949 . S
C11 C10 1.390 . S
C11 C16 1.399 . S
C12 C8 1.404 . S
C12 H13 0.950 . S
C12 C14 1.375 . S
H13 C12 0.950 . S
C14 C12 1.375 . S
C14 C16 1.382 . S
C14 H18 0.950 . S
H15 C10 0.949 . S
C16 C11 1.399 . S
C16 C14 1.382 . S
C16 H17 0.952 . S
H17 C16 0.952 . S
H18 C14 0.950 . S
H19 C20 0.949 . S
C20 H19 0.949 . S
C20 C21 1.395 . S
C20 C22 1.391 . S
C21 C20 1.395 . S
C21 C24 1.390 . S
C22 C20 1.391 . S
C22 C26 1.387 . S
C22 C27 1.491 . S
H23 C24 0.950 . S
C24 C21 1.390 . S
C24 H23 0.950 . S
C24 C25 1.378 . S
C25 C24 1.378 . S
C25 C26 1.409 . S
C26 C22 1.387 . S
C26 C25 1.409 . S
C26 H28 0.951 . S
C27 C22 1.491 . S
C27 C29 1.382 . S
C27 C31 1.404 . S
H28 C26 0.951 . S
C29 C27 1.382 . S
C29 C30 1.390 . S
C29 H34 0.949 . S
C30 C29 1.390 . S
C30 C35 1.399 . S
C31 C27 1.404 . S
C31 H32 0.950 . S
C31 C33 1.375 . S
H32 C31 0.950 . S
C33 C31 1.375 . S
C33 C35 1.382 . S
C33 H37 0.950 . S
H34 C29 0.949 . S
C35 C30 1.399 . S
C35 C33 1.382 . S
C35 H36 0.952 . S
H36 C35 0.952 . S
H37 C33 0.950 . S
H38 C39 0.949 . S
C39 H38 0.949 . S
C39 C40 1.395 . S
C39 C41 1.391 . S
C40 C39 1.395 . S
C40 C43 1.390 . S
C41 C39 1.391 . S
C41 C45 1.387 . S
C41 C46 1.491 . S
H42 C43 0.950 . S
C43 C40 1.390 . S
C43 H42 0.950 . S
C43 C44 1.378 . S
C44 C43 1.378 . S
C44 C45 1.409 . S
C45 C41 1.387 . S
C45 C44 1.409 . S
C45 H47 0.951 . S
C46 C41 1.491 . S
C46 C48 1.382 . S
C46 C50 1.404 . S
H47 C45 0.951 . S
C48 C46 1.382 . S
C48 C49 1.390 . S
C48 H53 0.949 . S
C49 C48 1.390 . S
C49 C54 1.399 . S
C50 C46 1.404 . S
C50 H51 0.950 . S
C50 C52 1.375 . S
H51 C50 0.950 . S
C52 C50 1.375 . S
C52 C54 1.382 . S
C52 H56 0.950 . S
H53 C48 0.949 . S
C54 C49 1.399 . S
C54 C52 1.382 . S
C54 H55 0.952 . S
H55 C54 0.952 . S
H56 C52 0.950 . S
H57 C58 0.949 . S
C58 H57 0.949 . S
C58 C59 1.395 . S
C58 C60 1.391 . S
C59 C58 1.395 . S
C59 C62 1.390 . S
C60 C58 1.391 . S
C60 C64 1.387 . S
C60 C65 1.491 . S
H61 C62 0.950 . S
C62 C59 1.390 . S
C62 H61 0.950 . S
C62 C63 1.378 . S
C63 C62 1.378 . S
C63 C64 1.409 . S
C64 C60 1.387 . S
C64 C63 1.409 . S
C64 H66 0.951 . S
C65 C60 1.491 . S
C65 C67 1.382 . S
C65 C69 1.404 . S
H66 C64 0.951 . S
C67 C65 1.382 . S
C67 C68 1.390 . S
C67 H72 0.949 . S
C68 C67 1.390 . S
C68 C73 1.399 . S
C69 C65 1.404 . S
C69 H70 0.950 . S
C69 C71 1.375 . S
H70 C69 0.950 . S
C71 C69 1.375 . S
C71 C73 1.382 . S
C71 H75 0.950 . S
H72 C67 0.949 . S
C73 C68 1.399 . S
C73 C71 1.382 . S
C73 H74 0.952 . S
H74 C73 0.952 . S
H75 C71 0.950 . S
H76 C77 0.949 . S
C77 H76 0.949 . S
C77 C78 1.395 . S
C77 C79 1.391 1_554 S
C78 C77 1.395 . S
C78 C81 1.390 1_554 S
C79 C77 1.391 1_556 S
C79 C83 1.387 . S
C79 C84 1.491 . S
H80 C81 0.950 . S
C81 C78 1.390 1_556 S
C81 H80 0.950 . S
C81 C82 1.378 . S
C82 C81 1.378 . S
C82 C83 1.409 . S
C83 C79 1.387 . S
C83 C82 1.409 . S
C83 H85 0.951 . S
C84 C79 1.491 . S
C84 C86 1.382 1_556 S
C84 C88 1.404 . S
H85 C83 0.951 . S
C86 C84 1.382 1_554 S
C86 C87 1.390 . S
C86 H91 0.949 . S
C87 C86 1.390 . S
C87 C92 1.399 1_554 S
C88 C84 1.404 . S
C88 H89 0.950 . S
C88 C90 1.375 . S
H89 C88 0.950 . S
C90 C88 1.375 . S
C90 C92 1.382 . S
C90 H94 0.950 . S
H91 C86 0.949 . S
C92 C87 1.399 1_556 S
C92 C90 1.382 . S
C92 H93 0.951 1_556 S
H93 C92 0.951 1_554 S
H94 C90 0.950 . S
H95 C96 0.949 . S
C96 H95 0.949 . S
C96 C97 1.395 . S
C96 C98 1.391 1_554 S
C97 C96 1.395 . S
C97 C100 1.390 1_554 S
C98 C96 1.391 1_556 S
C98 C102 1.387 . S
C98 C103 1.491 . S
H99 C100 0.950 . S
C100 C97 1.390 1_556 S
C100 H99 0.950 . S
C100 C101 1.378 . S
C101 C100 1.378 . S
C101 C102 1.409 . S
C102 C98 1.387 . S
C102 C101 1.409 . S
C102 H104 0.951 . S
C103 C98 1.491 . S
C103 C105 1.382 1_556 S
C103 C107 1.404 . S
H104 C102 0.951 . S
C105 C103 1.382 1_554 S
C105 C106 1.390 . S
C105 H110 0.949 . S
C106 C105 1.390 . S
C106 C111 1.399 1_554 S
C107 C103 1.404 . S
C107 H108 0.950 . S
C107 C109 1.375 . S
H108 C107 0.950 . S
C109 C107 1.375 . S
C109 C111 1.382 . S
C109 H113 0.950 . S
H110 C105 0.949 . S
C111 C106 1.399 1_556 S
C111 C109 1.382 . S
C111 H112 0.952 . S
H112 C111 0.952 . S
H113 C109 0.950 . S
H114 C115 0.949 . S
C115 H114 0.949 . S
C115 C116 1.395 . S
C115 C117 1.391 1_554 S
C116 C115 1.395 . S
C116 C119 1.390 1_554 S
C117 C115 1.391 1_556 S
C117 C121 1.387 . S
C117 C122 1.491 . S
H118 C119 0.950 . S
C119 C116 1.390 1_556 S
C119 H118 0.950 . S
C119 C120 1.378 . S
C120 C119 1.378 . S
C120 C121 1.409 . S
C121 C117 1.387 . S
C121 C120 1.409 . S
C121 H123 0.951 . S
C122 C117 1.491 . S
C122 C124 1.382 1_556 S
C122 C126 1.404 . S
H123 C121 0.951 . S
C124 C122 1.382 1_554 S
C124 C125 1.390 . S
C124 H129 0.949 . S
C125 C124 1.390 . S
C125 C130 1.399 1_554 S
C126 C122 1.404 . S
C126 H127 0.950 . S
C126 C128 1.375 . S
H127 C126 0.950 . S
C128 C126 1.375 . S
C128 C130 1.382 . S
C128 H132 0.950 . S
H129 C124 0.949 . S
C130 C125 1.399 1_556 S
C130 C128 1.382 . S
C130 H131 0.952 . S
H131 C130 0.952 . S
H132 C128 0.950 . S
H133 C134 0.949 . S
C134 H133 0.949 . S
C134 C135 1.395 . S
C134 C136 1.391 1_554 S
C135 C134 1.395 . S
C135 C138 1.390 1_554 S
C136 C134 1.391 1_556 S
C136 C140 1.387 . S
C136 C141 1.491 . S
H137 C138 0.950 . S
C138 C135 1.390 1_556 S
C138 H137 0.950 . S
C138 C139 1.378 . S
C139 C138 1.378 . S
C139 C140 1.409 . S
C140 C136 1.387 . S
C140 C139 1.409 . S
C140 H142 0.951 . S
C141 C136 1.491 . S
C141 C143 1.382 1_556 S
C141 C145 1.404 . S
H142 C140 0.951 . S
C143 C141 1.382 1_554 S
C143 C144 1.390 . S
C143 H148 0.949 . S
C144 C143 1.390 . S
C144 C149 1.393 1_554 S
C145 C141 1.404 . S
C145 H146 0.950 . S
C145 C147 1.375 . S
H146 C145 0.950 . S
C147 C145 1.375 . S
C147 C149 1.389 . S
C147 H151 0.950 . S
H148 C143 0.949 . S
C149 C144 1.393 1_556 S
C149 C147 1.389 . S
C149 H150 0.951 1_556 S
H150 C149 0.951 1_554 S
H151 C147 0.950 . S
Tb152 N183 2.660 1_565 S
Tb152 N190 2.600 1_565 S
Tb152 O196 2.546 . S
Tb152 O197 2.610 1_455 S
Tb152 O199 2.320 1_465 S
Tb152 O200 2.552 . S
Tb152 O201 2.413 . S
Tb152 O203 2.362 1_565 S
Tb152 O204 2.420 . S
Tb152 C216 2.833 . S
C153 C156 1.434 1_545 S
C153 C157 1.414 . S
C153 N160 1.359 . S
C154 C156 1.413 . S
C154 C158 1.432 . S
C154 C166 1.410 . S
C155 C157 1.444 1_565 S
C155 C158 1.317 . S
C155 H178 0.929 . S
C156 C153 1.434 1_565 S
C156 C154 1.413 . S
C156 N164 1.361 1_565 S
C157 C153 1.414 . S
C157 C155 1.444 1_545 S
C157 C162 1.385 . S
C158 C154 1.432 . S
C158 C155 1.317 . S
C158 H170 0.930 . S
C159 C161 1.392 . S
C159 C162 1.370 . S
C159 H171 0.931 . S
N160 C153 1.359 . S
N160 C161 1.327 . S
N160 Tb163 2.600 . S
C161 C159 1.392 . S
C161 N160 1.327 . S
C161 H168 0.930 . S
C162 C157 1.385 . S
C162 C159 1.370 . S
C162 H181 0.930 . S
Tb163 N160 2.600 . S
Tb163 N164 2.660 . S
Tb163 O197 2.362 1_545 S
Tb163 O198 2.421 . S
Tb163 O202 2.546 . S
Tb163 O203 2.610 1_655 S
Tb163 O205 2.320 1_655 S
Tb163 O206 2.552 1_655 S
Tb163 O207 2.413 1_655 S
Tb163 C227 2.833 . S
N164 C156 1.361 1_545 S
N164 Tb163 2.660 . S
N164 C165 1.305 1_645 S
C165 N164 1.305 1_465 S
C165 C167 1.407 . S
C165 H172 0.930 . S
C166 C154 1.410 . S
C166 C167 1.345 1_655 S
C166 H174 0.930 . S
C167 C165 1.407 . S
C167 C166 1.345 1_455 S
C167 H169 0.930 . S
H168 C161 0.930 . S
H169 C167 0.930 . S
H170 C158 0.930 . S
H171 C159 0.931 . S
H172 C165 0.930 . S
H173 C187 0.885 1_655 S
H174 C166 0.930 . S
H175 C193 0.930 . S
H176 C184 0.930 1_655 S
H177 C191 0.931 . S
H178 C155 0.929 . S
H179 C185 0.930 . S
H180 C218 0.930 . S
H181 C162 0.930 . S
H182 C217 0.929 . S
N183 Tb152 2.660 1_545 S
N183 C184 1.305 . S
N183 C188 1.360 . S
C184 H176 0.930 1_455 S
C184 N183 1.305 . S
C184 C187 1.411 . S
C185 H179 0.930 . S
C185 C186 1.410 . S
C185 C187 1.388 . S
C186 C185 1.410 . S
C186 C188 1.417 . S
C186 C218 1.432 . S
C187 H173 0.885 1_455 S
C187 C184 1.411 . S
C187 C185 1.388 . S
C188 N183 1.360 . S
C188 C186 1.417 . S
C188 C192 1.432 . S
H189 C194 0.930 . S
N190 Tb152 2.600 1_545 S
N190 C192 1.359 . S
N190 C193 1.327 1_545 S
C191 H177 0.931 . S
C191 C193 1.392 . S
C191 C194 1.370 1_565 S
C192 C188 1.432 . S
C192 N190 1.359 . S
C192 C195 1.414 . S
C193 H175 0.930 . S
C193 N190 1.327 1_565 S
C193 C191 1.392 . S
C194 H189 0.930 . S
C194 C191 1.370 1_545 S
C194 C195 1.385 . S
C195 C192 1.414 . S
C195 C194 1.385 . S
C195 C217 1.444 . S
O196 Tb152 2.546 . S
O196 C216 1.251 . S
O197 Tb152 2.610 1_655 S
O197 Tb163 2.362 1_565 S
O197 C208 1.283 . S
O198 Tb163 2.421 . S
O198 C215 1.262 . S
O199 Tb152 2.320 1_645 S
O199 C215 1.260 . S
O200 Tb152 2.552 . S
O200 C208 1.243 1_455 S
O201 Tb152 2.413 . S
O201 C216 1.256 . S
O202 Tb163 2.546 . S
O202 C227 1.251 . S
O203 Tb152 2.362 1_545 S
O203 Tb163 2.610 1_455 S
O203 C219 1.283 . S
O204 Tb152 2.420 . S
O204 C226 1.266 1_565 S
O205 Tb163 2.320 1_455 S
O205 C226 1.260 . S
O206 Tb163 2.552 1_455 S
O206 C219 1.243 . S
O207 Tb163 2.413 1_455 S
O207 C227 1.256 1_455 S
C208 O197 1.283 . S
C208 O200 1.243 1_655 S
C209 C211 1.382 . S
C209 C213 1.393 . S
C209 C216 1.500 . S
C210 C211 1.400 . S
C210 C212 1.384 . S
C211 C209 1.382 . S
C211 C210 1.400 . S
C211 H228 0.930 1_455 S
C212 C210 1.384 . S
C212 C214 1.392 . S
C212 H229 0.931 . S
C213 C209 1.393 . S
C213 C214 1.401 . S
C213 H230 0.930 . S
C214 C212 1.392 . S
C214 C213 1.401 . S
C214 H231 0.930 . S
C215 O198 1.262 . S
C215 O199 1.260 . S
C216 Tb152 2.833 . S
C216 O196 1.251 . S
C216 O201 1.256 . S
C216 C209 1.500 . S
C217 H182 0.929 . S
C217 C195 1.444 . S
C217 C218 1.317 . S
C218 H180 0.930 . S
C218 C186 1.432 . S
C218 C217 1.317 . S
C219 O203 1.283 . S
C219 O206 1.243 . S
C220 C221 1.382 1_655 S
C220 C224 1.393 . S
C220 C227 1.500 . S
C221 C220 1.382 1_455 S
C221 C222 1.400 . S
C221 H232 0.930 . S
C222 C221 1.400 . S
C222 C223 1.384 1_455 S
C223 C222 1.384 1_655 S
C223 C225 1.392 . S
C223 H233 0.931 . S
C224 C220 1.393 . S
C224 C225 1.401 . S
C224 H234 0.930 . S
C225 C223 1.392 . S
C225 C224 1.401 . S
C225 H235 0.930 . S
C226 O204 1.266 1_545 S
C226 O205 1.260 . S
C227 Tb163 2.833 . S
C227 O202 1.251 . S
C227 O207 1.256 1_655 S
C227 C220 1.500 . S
H228 C211 0.930 1_655 S
H229 C212 0.931 . S
H230 C213 0.930 . S
H231 C214 0.930 . S
H232 C221 0.930 . S
H233 C223 0.931 . S
H234 C224 0.930 . S
H235 C225 0.930 . S
Tb236 N267 2.660 . S
Tb236 N274 2.600 . S
Tb236 O280 2.546 . S
Tb236 O281 2.610 . S
Tb236 O283 2.320 1_545 S
Tb236 O284 2.552 . S
Tb236 O285 2.413 . S
Tb236 O287 2.362 . S
Tb236 O288 2.421 . S
Tb236 C300 2.833 . S
C237 C240 1.432 . S
C237 C241 1.414 . S
C237 N244 1.359 . S
C238 C240 1.417 . S
C238 C242 1.432 . S
C238 C250 1.437 . S
C239 C241 1.444 . S
C239 C242 1.317 . S
C239 H262 0.929 . S
C240 C237 1.432 . S
C240 C238 1.417 . S
C240 N248 1.360 . S
C241 C237 1.414 . S
C241 C239 1.444 . S
C241 C246 1.385 . S
C242 C238 1.432 . S
C242 C239 1.317 . S
C242 H254 0.930 . S
C243 C245 1.392 . S
C243 C246 1.370 . S
C243 H255 0.931 . S
N244 C237 1.359 . S
N244 C245 1.327 . S
N244 Tb247 2.600 . S
C245 C243 1.392 . S
C245 N244 1.327 . S
C245 H252 0.930 . S
C246 C241 1.385 . S
C246 C243 1.370 . S
C246 H265 0.930 . S
Tb247 N244 2.600 . S
Tb247 N248 2.660 . S
Tb247 O281 2.362 1_565 S
Tb247 O282 2.421 . S
Tb247 O286 2.546 . S
Tb247 O287 2.610 1_565 S
Tb247 O289 2.320 1_565 S
Tb247 O290 2.552 1_565 S
Tb247 O291 2.413 1_565 S
Tb247 C311 2.833 . S
N248 C240 1.360 . S
N248 Tb247 2.660 . S
N248 C249 1.305 1_565 S
C249 N248 1.305 1_545 S
C249 C251 1.407 . S
C249 H256 0.930 . S
C250 C238 1.437 . S
C250 C251 1.320 1_565 S
C250 H258 0.929 1_565 S
C251 C249 1.407 . S
C251 C250 1.320 1_545 S
C251 H253 0.930 . S
H252 C245 0.930 . S
H253 C251 0.930 . S
H254 C242 0.930 . S
H255 C243 0.931 . S
H256 C249 0.930 . S
H257 C271 0.930 1_565 S
H258 C250 0.929 1_545 S
H259 C277 0.930 . S
H260 C268 0.930 1_565 S
H261 C275 0.931 . S
H262 C239 0.929 . S
H263 C269 0.930 . S
H264 C302 0.930 . S
H265 C246 0.930 . S
H266 C301 0.929 . S
N267 Tb236 2.660 . S
N267 C268 1.305 . S
N267 C272 1.360 . S
C268 H260 0.930 1_545 S
C268 N267 1.305 . S
C268 C271 1.407 . S
C269 H263 0.930 . S
C269 C270 1.410 . S
C269 C271 1.345 . S
C270 C269 1.410 . S
C270 C272 1.417 . S
C270 C302 1.432 . S
C271 H257 0.930 1_545 S
C271 C268 1.407 . S
C271 C269 1.345 . S
C272 N267 1.360 . S
C272 C270 1.417 . S
C272 C276 1.432 . S
H273 C278 0.930 . S
N274 Tb236 2.600 . S
N274 C276 1.359 . S
N274 C277 1.327 . S
C275 H261 0.931 . S
C275 C277 1.392 . S
C275 C278 1.370 . S
C276 C272 1.432 . S
C276 N274 1.359 . S
C276 C279 1.414 . S
C277 H259 0.930 . S
C277 N274 1.327 . S
C277 C275 1.392 . S
C278 H273 0.930 . S
C278 C275 1.370 . S
C278 C279 1.385 . S
C279 C276 1.414 . S
C279 C278 1.385 . S
C279 C301 1.444 . S
O280 Tb236 2.546 . S
O280 C300 1.251 . S
O281 Tb236 2.610 . S
O281 Tb247 2.362 1_545 S
O281 C292 1.283 . S
O282 Tb247 2.421 . S
O282 C299 1.262 . S
O283 Tb236 2.320 1_565 S
O283 C299 1.260 . S
O284 Tb236 2.552 . S
O284 C292 1.243 . S
O285 Tb236 2.413 . S
O285 C300 1.256 . S
O286 Tb247 2.546 . S
O286 C311 1.251 . S
O287 Tb236 2.362 . S
O287 Tb247 2.610 1_545 S
O287 C303 1.283 . S
O288 Tb236 2.421 . S
O288 C310 1.262 . S
O289 Tb247 2.320 1_545 S
O289 C310 1.260 . S
O290 Tb247 2.552 1_545 S
O290 C303 1.243 . S
O291 Tb247 2.413 1_545 S
O291 C311 1.256 1_545 S
C292 O281 1.283 . S
C292 O284 1.243 . S
C293 C295 1.382 . S
C293 C297 1.393 . S
C293 C300 1.500 . S
C294 C295 1.400 . S
C294 C296 1.384 . S
C295 C293 1.382 . S
C295 C294 1.400 . S
C295 H312 0.930 . S
C296 C294 1.384 . S
C296 C298 1.392 . S
C296 H313 0.931 . S
C297 C293 1.393 . S
C297 C298 1.401 . S
C297 H314 0.930 . S
C298 C296 1.392 . S
C298 C297 1.401 . S
C298 H315 0.930 . S
C299 O282 1.262 . S
C299 O283 1.260 . S
C300 Tb236 2.833 . S
C300 O280 1.251 . S
C300 O285 1.256 . S
C300 C293 1.500 . S
C301 H266 0.929 . S
C301 C279 1.444 . S
C301 C302 1.317 . S
C302 H264 0.930 . S
C302 C270 1.432 . S
C302 C301 1.317 . S
C303 O287 1.283 . S
C303 O290 1.243 . S
C304 C305 1.382 1_565 S
C304 C308 1.393 . S
C304 C311 1.500 . S
C305 C304 1.382 1_545 S
C305 C306 1.400 . S
C305 H316 0.930 . S
C306 C305 1.400 . S
C306 C307 1.384 1_545 S
C307 C306 1.384 1_565 S
C307 C309 1.392 . S
C307 H317 0.931 . S
C308 C304 1.393 . S
C308 C309 1.401 . S
C308 H318 0.930 . S
C309 C307 1.392 . S
C309 C308 1.401 . S
C309 H319 0.930 . S
C310 O288 1.262 . S
C310 O289 1.260 . S
C311 Tb247 2.833 . S
C311 O286 1.251 . S
C311 O291 1.256 1_565 S
C311 C304 1.500 . S
H312 C295 0.930 . S
H313 C296 0.931 . S
H314 C297 0.930 . S
H315 C298 0.930 . S
H316 C305 0.930 . S
H317 C307 0.931 . S
H318 C308 0.930 . S
H319 C309 0.930 . S
Tb320 N351 2.660 . S
Tb320 N358 2.600 . S
Tb320 O364 2.546 . S
Tb320 O365 2.610 . S
Tb320 O367 2.320 . S
Tb320 O368 2.552 . S
Tb320 O369 2.413 . S
Tb320 O371 2.362 . S
Tb320 O372 2.421 . S
Tb320 C384 2.833 . S
C321 C324 1.432 . S
C321 C325 1.414 . S
C321 N328 1.359 . S
C322 C324 1.417 . S
C322 C326 1.432 . S
C322 C334 1.410 . S
C323 C325 1.444 . S
C323 C326 1.317 . S
C323 H346 0.929 . S
C324 C321 1.432 . S
C324 C322 1.417 . S
C324 N332 1.360 . S
C325 C321 1.414 . S
C325 C323 1.444 . S
C325 C330 1.385 . S
C326 C322 1.432 . S
C326 C323 1.317 . S
C326 H338 0.930 . S
C327 C329 1.392 . S
C327 C330 1.370 . S
C327 H339 0.931 . S
N328 C321 1.359 . S
N328 C329 1.327 . S
N328 Tb331 2.600 . S
C329 C327 1.392 . S
C329 N328 1.327 . S
C329 H336 0.930 . S
C330 C325 1.385 . S
C330 C327 1.370 . S
C330 H349 0.930 . S
Tb331 N328 2.600 . S
Tb331 N332 2.660 . S
Tb331 O365 2.362 . S
Tb331 O366 2.421 . S
Tb331 O370 2.546 . S
Tb331 O371 2.610 . S
Tb331 O373 2.320 . S
Tb331 O374 2.552 . S
Tb331 O375 2.413 . S
Tb331 C395 2.833 . S
N332 C324 1.360 . S
N332 Tb331 2.660 . S
N332 C333 1.305 . S
C333 N332 1.305 . S
C333 C335 1.407 . S
C333 H340 0.930 . S
C334 C322 1.410 . S
C334 C335 1.345 . S
C334 H342 0.930 . S
C335 C333 1.407 . S
C335 C334 1.345 . S
C335 H337 0.930 . S
H336 C329 0.930 . S
H337 C335 0.930 . S
H338 C326 0.930 . S
H339 C327 0.931 . S
H340 C333 0.930 . S
H341 C355 0.930 . S
H342 C334 0.930 . S
H343 C361 0.930 . S
H344 C352 0.930 . S
H345 C359 0.931 . S
H346 C323 0.929 . S
H347 C353 0.930 . S
H348 C386 0.930 . S
H349 C330 0.930 . S
H350 C385 0.929 . S
N351 Tb320 2.660 . S
N351 C352 1.305 . S
N351 C356 1.360 . S
C352 H344 0.930 . S
C352 N351 1.305 . S
C352 C355 1.407 . S
C353 H347 0.930 . S
C353 C354 1.410 . S
C353 C355 1.345 . S
C354 C353 1.410 . S
C354 C356 1.417 . S
C354 C386 1.432 . S
C355 H341 0.930 . S
C355 C352 1.407 . S
C355 C353 1.345 . S
C356 N351 1.360 . S
C356 C354 1.417 . S
C356 C360 1.432 . S
H357 C362 0.930 . S
N358 Tb320 2.600 . S
N358 C360 1.359 . S
N358 C361 1.327 . S
C359 H345 0.931 . S
C359 C361 1.392 . S
C359 C362 1.370 . S
C360 C356 1.432 . S
C360 N358 1.359 . S
C360 C363 1.414 . S
C361 H343 0.930 . S
C361 N358 1.327 . S
C361 C359 1.392 . S
C362 H357 0.930 . S
C362 C359 1.370 . S
C362 C363 1.385 . S
C363 C360 1.414 . S
C363 C362 1.385 . S
C363 C385 1.444 . S
O364 Tb320 2.546 . S
O364 C384 1.251 . S
O365 Tb320 2.610 . S
O365 Tb331 2.362 . S
O365 C376 1.283 . S
O366 Tb331 2.421 . S
O366 C383 1.262 . S
O367 Tb320 2.320 . S
O367 C383 1.260 . S
O368 Tb320 2.552 . S
O368 C376 1.243 . S
O369 Tb320 2.413 . S
O369 C384 1.256 . S
O370 Tb331 2.546 . S
O370 C395 1.251 . S
O371 Tb320 2.362 . S
O371 Tb331 2.610 . S
O371 C387 1.283 . S
O372 Tb320 2.421 . S
O372 C394 1.262 . S
O373 Tb331 2.320 . S
O373 C394 1.260 . S
O374 Tb331 2.552 . S
O374 C387 1.243 . S
O375 Tb331 2.413 . S
O375 C395 1.256 . S
C376 O365 1.283 . S
C376 O368 1.243 . S
C377 C379 1.382 . S
C377 C381 1.393 . S
C377 C384 1.500 . S
C378 C379 1.400 . S
C378 C380 1.384 . S
C379 C377 1.382 . S
C379 C378 1.400 . S
C379 H396 0.930 . S
C380 C378 1.384 . S
C380 C382 1.392 . S
C380 H397 0.931 . S
C381 C377 1.393 . S
C381 C382 1.401 . S
C381 H398 0.930 . S
C382 C380 1.392 . S
C382 C381 1.401 . S
C382 H399 0.930 . S
C383 O366 1.262 . S
C383 O367 1.260 . S
C384 Tb320 2.833 . S
C384 O364 1.251 . S
C384 O369 1.256 . S
C384 C377 1.500 . S
C385 H350 0.929 . S
C385 C363 1.444 . S
C385 C386 1.317 . S
C386 H348 0.930 . S
C386 C354 1.432 . S
C386 C385 1.317 . S
C387 O371 1.283 . S
C387 O374 1.243 . S
C388 C389 1.382 . S
C388 C392 1.393 . S
C388 C395 1.500 . S
C389 C388 1.382 . S
C389 C390 1.400 . S
C389 H400 0.930 . S
C390 C389 1.400 . S
C390 C391 1.384 . S
C391 C390 1.384 . S
C391 C393 1.392 . S
C391 H401 0.931 . S
C392 C388 1.393 . S
C392 C393 1.401 . S
C392 H402 0.930 . S
C393 C391 1.392 . S
C393 C392 1.401 . S
C393 H403 0.930 1_556 S
C394 O372 1.262 . S
C394 O373 1.260 . S
C395 Tb331 2.833 . S
C395 O370 1.251 . S
C395 O375 1.256 . S
C395 C388 1.500 . S
H396 C379 0.930 . S
H397 C380 0.931 . S
H398 C381 0.930 . S
H399 C382 0.930 . S
H400 C389 0.930 . S
H401 C391 0.931 . S
H402 C392 0.930 . S
H403 C393 0.930 1_554 S
Tb404 N435 2.660 . S
Tb404 N442 2.600 . S
Tb404 O448 2.546 . S
Tb404 O449 2.610 . S
Tb404 O451 2.320 . S
Tb404 O452 2.552 . S
Tb404 O453 2.413 . S
Tb404 O455 2.362 . S
Tb404 O456 2.421 1_455 S
Tb404 C468 2.833 . S
C405 C408 1.432 . S
C405 C409 1.414 . S
C405 N412 1.359 . S
C406 C408 1.417 . S
C406 C410 1.432 . S
C406 C418 1.410 . S
C407 C409 1.444 . S
C407 C410 1.317 . S
C407 H430 0.929 . S
C408 C405 1.432 . S
C408 C406 1.417 . S
C408 N416 1.360 . S
C409 C405 1.414 . S
C409 C407 1.444 . S
C409 C414 1.385 1_655 S
C410 C406 1.432 . S
C410 C407 1.317 . S
C410 H422 0.930 . S
C411 C413 1.392 . S
C411 C414 1.370 . S
C411 H423 0.931 . S
N412 C405 1.359 . S
N412 C413 1.327 1_655 S
N412 Tb415 2.600 . S
C413 C411 1.392 . S
C413 N412 1.327 1_455 S
C413 H420 0.930 . S
C414 C409 1.385 1_455 S
C414 C411 1.370 . S
C414 H433 0.930 . S
Tb415 N412 2.600 . S
Tb415 N416 2.660 . S
Tb415 O449 2.362 1_655 S
Tb415 O450 2.421 1_655 S
Tb415 O454 2.546 . S
Tb415 O455 2.610 1_655 S
Tb415 O457 2.320 . S
Tb415 O458 2.552 . S
Tb415 O459 2.413 . S
Tb415 C479 2.833 . S
N416 C408 1.360 . S
N416 Tb415 2.660 . S
N416 C417 1.305 . S
C417 N416 1.305 . S
C417 C419 1.407 . S
C417 H424 0.930 . S
C418 C406 1.410 . S
C418 C419 1.345 . S
C418 H426 0.930 . S
C419 C417 1.407 . S
C419 C418 1.345 . S
C419 H421 0.930 . S
H420 C413 0.930 . S
H421 C419 0.930 . S
H422 C410 0.930 . S
H423 C411 0.931 . S
H424 C417 0.930 . S
H425 C439 0.930 . S
H426 C418 0.930 . S
H427 C445 0.930 1_655 S
H428 C436 0.930 . S
H429 C443 0.931 1_655 S
H430 C407 0.929 . S
H431 C437 0.930 . S
H432 C470 0.930 . S
H433 C414 0.930 . S
H434 C469 0.929 . S
N435 Tb404 2.660 . S
N435 C436 1.305 . S
N435 C440 1.360 . S
C436 H428 0.930 . S
C436 N435 1.305 . S
C436 C439 1.407 . S
C437 H431 0.930 . S
C437 C438 1.410 . S
C437 C439 1.345 . S
C438 C437 1.410 . S
C438 C440 1.417 . S
C438 C470 1.432 . S
C439 H425 0.930 . S
C439 C436 1.407 . S
C439 C437 1.345 . S
C440 N435 1.360 . S
C440 C438 1.417 . S
C440 C444 1.432 . S
H441 C446 0.930 . S
N442 Tb404 2.600 . S
N442 C444 1.359 . S
N442 C445 1.327 . S
C443 H429 0.931 1_455 S
C443 C445 1.392 . S
C443 C446 1.370 . S
C444 C440 1.432 . S
C444 N442 1.359 . S
C444 C447 1.414 . S
C445 H427 0.930 1_455 S
C445 N442 1.327 . S
C445 C443 1.392 . S
C446 H441 0.930 . S
C446 C443 1.370 . S
C446 C447 1.385 . S
C447 C444 1.414 . S
C447 C446 1.385 . S
C447 C469 1.444 . S
O448 Tb404 2.546 . S
O448 C468 1.251 . S
O449 Tb404 2.610 . S
O449 Tb415 2.362 1_455 S
O449 C460 1.283 . S
O450 Tb415 2.421 1_455 S
O450 C467 1.262 . S
O451 Tb404 2.320 . S
O451 C467 1.260 . S
O452 Tb404 2.552 . S
O452 C460 1.243 . S
O453 Tb404 2.413 . S
O453 C468 1.256 . S
O454 Tb415 2.546 . S
O454 C479 1.251 . S
O455 Tb404 2.362 . S
O455 Tb415 2.610 1_455 S
O455 C471 1.283 1_455 S
O456 Tb404 2.421 1_655 S
O456 C478 1.262 . S
O457 Tb415 2.320 . S
O457 C478 1.260 . S
O458 Tb415 2.552 . S
O458 C471 1.243 . S
O459 Tb415 2.413 . S
O459 C479 1.256 . S
C460 O449 1.283 . S
C460 O452 1.243 . S
C461 C463 1.382 . S
C461 C465 1.393 . S
C461 C468 1.500 . S
C462 C463 1.400 . S
C462 C464 1.384 . S
C463 C461 1.382 . S
C463 C462 1.400 . S
C463 H480 0.930 . S
C464 C462 1.384 . S
C464 C466 1.392 . S
C464 H481 0.931 . S
C465 C461 1.393 . S
C465 C466 1.401 . S
C465 H482 0.930 . S
C466 C464 1.392 . S
C466 C465 1.401 . S
C466 H483 0.930 . S
C467 O450 1.262 . S
C467 O451 1.260 . S
C468 Tb404 2.833 . S
C468 O448 1.251 . S
C468 O453 1.256 . S
C468 C461 1.500 . S
C469 H434 0.929 . S
C469 C447 1.444 . S
C469 C470 1.317 . S
C470 H432 0.930 . S
C470 C438 1.432 . S
C470 C469 1.317 . S
C471 O455 1.283 1_655 S
C471 O458 1.243 . S
C472 C473 1.382 . S
C472 C476 1.393 . S
C472 C479 1.500 . S
C473 C472 1.382 . S
C473 C474 1.400 . S
C473 H484 0.930 . S
C474 C473 1.400 . S
C474 C475 1.384 . S
C475 C474 1.384 . S
C475 C477 1.392 . S
C475 H485 0.931 . S
C476 C472 1.393 . S
C476 C477 1.401 . S
C476 H486 0.930 . S
C477 C475 1.392 . S
C477 C476 1.401 . S
C477 H487 0.930 1_556 S
C478 O456 1.262 . S
C478 O457 1.260 . S
C479 Tb415 2.833 . S
C479 O454 1.251 . S
C479 O459 1.256 . S
C479 C472 1.500 . S
H480 C463 0.930 . S
H481 C464 0.931 . S
H482 C465 0.930 . S
H483 C466 0.930 . S
H484 C473 0.930 . S
H485 C475 0.931 . S
H486 C476 0.930 . S
H487 C477 0.930 1_554 S
C488 C489 1.349 . S
C488 C490 1.327 . S
C488 H513 0.950 . S
C489 C488 1.349 . S
C489 C505 1.349 . S
C490 C488 1.327 . S
C490 C509 1.429 . S
C490 H514 0.950 . S
C491 C508 1.574 . S
C491 C510 1.368 . S
C491 H515 0.949 . S
H492 C496 0.949 . S
C493 C494 1.349 . S
C493 C495 1.327 . S
C493 H516 0.950 . S
C494 C493 1.349 . S
C494 C506 1.349 . S
C495 C493 1.327 . S
C495 C511 1.429 . S
C495 H517 0.950 . S
C496 H492 0.949 . S
C496 C504 1.574 . S
C496 C512 1.368 . S
H497 C505 0.950 . S
H498 C503 0.950 . S
H499 C504 0.949 . S
H500 C506 0.950 1_565 S
H501 C507 0.950 . S
H502 C508 0.949 . S
C503 H498 0.950 . S
C503 C505 1.327 . S
C503 C509 1.429 . S
C504 C496 1.574 . S
C504 H499 0.949 . S
C504 C510 1.368 . S
C505 C489 1.349 . S
C505 H497 0.950 . S
C505 C503 1.327 . S
C506 C494 1.349 . S
C506 H500 0.950 1_545 S
C506 C507 1.327 . S
C507 H501 0.950 . S
C507 C506 1.327 . S
C507 C511 1.429 . S
C508 C491 1.574 . S
C508 H502 0.949 . S
C508 C512 1.368 . S
C509 C490 1.429 . S
C509 C503 1.429 . S
C509 C510 1.523 . S
C510 C491 1.368 . S
C510 C504 1.368 . S
C510 C509 1.523 . S
C511 C495 1.429 . S
C511 C507 1.429 . S
C511 C512 1.523 . S
C512 C496 1.368 . S
C512 C508 1.368 . S
C512 C511 1.523 . S
H513 C488 0.950 . S
H514 C490 0.950 . S
H515 C491 0.949 . S
H516 C493 0.950 . S
H517 C495 0.950 . S
C518 C519 1.349 . S
C518 C520 1.327 . S
C518 H543 0.950 . S
C519 C518 1.349 . S
C519 C535 1.349 . S
C520 C518 1.327 . S
C520 C539 1.429 . S
C520 H544 0.950 . S
C521 C538 1.574 . S
C521 C540 1.368 . S
C521 H545 0.949 . S
H522 C526 0.949 . S
C523 C524 1.349 . S
C523 C525 1.327 . S
C523 H546 0.950 . S
C524 C523 1.349 . S
C524 C536 1.349 . S
C525 C523 1.327 . S
C525 C541 1.429 . S
C525 H547 0.950 . S
C526 H522 0.949 . S
C526 C534 1.574 . S
C526 C542 1.368 . S
H527 C535 0.950 . S
H528 C533 0.950 . S
H529 C534 0.949 . S
H530 C536 0.950 . S
H531 C537 0.950 . S
H532 C538 0.949 . S
C533 H528 0.950 . S
C533 C535 1.327 . S
C533 C539 1.429 . S
C534 C526 1.574 . S
C534 H529 0.949 . S
C534 C540 1.368 . S
C535 C519 1.349 . S
C535 H527 0.950 . S
C535 C533 1.327 . S
C536 C524 1.349 . S
C536 H530 0.950 . S
C536 C537 1.327 . S
C537 H531 0.950 . S
C537 C536 1.327 . S
C537 C541 1.429 . S
C538 C521 1.574 . S
C538 H532 0.949 . S
C538 C542 1.368 . S
C539 C520 1.429 . S
C539 C533 1.429 . S
C539 C540 1.523 . S
C540 C521 1.368 . S
C540 C534 1.368 . S
C540 C539 1.523 . S
C541 C525 1.429 . S
C541 C537 1.429 . S
C541 C542 1.523 . S
C542 C526 1.368 . S
C542 C538 1.368 . S
C542 C541 1.523 . S
H543 C518 0.950 . S
H544 C520 0.950 . S
H545 C521 0.949 . S
H546 C523 0.950 . S
H547 C525 0.950 . S
C548 C549 1.349 . S
C548 C550 1.327 . S
C548 H573 0.950 . S
C549 C548 1.349 . S
C549 C565 1.349 . S
C550 C548 1.327 . S
C550 C569 1.429 . S
C550 H574 0.950 . S
C551 C568 1.574 . S
C551 C570 1.368 . S
C551 H575 0.949 . S
H552 C556 0.949 . S
C553 C554 1.349 . S
C553 C555 1.327 . S
C553 H576 0.950 . S
C554 C553 1.349 . S
C554 C566 1.349 . S
C555 C553 1.327 . S
C555 C571 1.429 . S
C555 H577 0.950 . S
C556 H552 0.949 . S
C556 C564 1.574 . S
C556 C572 1.368 . S
H557 C565 0.950 . S
H558 C563 0.950 . S
H559 C564 0.949 . S
H560 C566 0.950 . S
H561 C567 0.950 . S
H562 C568 0.949 . S
C563 H558 0.950 . S
C563 C565 1.327 . S
C563 C569 1.429 . S
C564 C556 1.574 . S
C564 H559 0.949 . S
C564 C570 1.368 . S
C565 C549 1.349 . S
C565 H557 0.950 . S
C565 C563 1.327 . S
C566 C554 1.349 . S
C566 H560 0.950 . S
C566 C567 1.327 . S
C567 H561 0.950 . S
C567 C566 1.327 . S
C567 C571 1.429 . S
C568 C551 1.574 . S
C568 H562 0.949 . S
C568 C572 1.368 . S
C569 C550 1.429 . S
C569 C563 1.429 . S
C569 C570 1.523 . S
C570 C551 1.368 . S
C570 C564 1.368 . S
C570 C569 1.523 . S
C571 C555 1.429 . S
C571 C567 1.429 . S
C571 C572 1.523 . S
C572 C556 1.368 . S
C572 C568 1.368 . S
C572 C571 1.523 . S
H573 C548 0.950 . S
H574 C550 0.950 . S
H575 C551 0.949 . S
H576 C553 0.950 . S
H577 C555 0.950 . S
C578 C579 1.349 . S
C578 C580 1.327 . S
C578 H603 0.950 . S
C579 C578 1.349 . S
C579 C595 1.349 . S
C580 C578 1.327 . S
C580 C599 1.429 . S
C580 H604 0.950 . S
C581 C598 1.574 . S
C581 C600 1.368 . S
C581 H605 0.949 . S
H582 C586 0.949 . S
C583 C584 1.349 . S
C583 C585 1.327 . S
C583 H606 0.950 . S
C584 C583 1.349 . S
C584 C596 1.349 . S
C585 C583 1.327 . S
C585 C601 1.429 . S
C585 H607 0.950 . S
C586 H582 0.949 . S
C586 C594 1.574 . S
C586 C602 1.368 . S
H587 C595 0.950 . S
H588 C593 0.950 . S
H589 C594 0.949 . S
H590 C596 0.950 1_655 S
H591 C597 0.950 . S
H592 C598 0.949 . S
C593 H588 0.950 . S
C593 C595 1.327 . S
C593 C599 1.429 . S
C594 C586 1.574 . S
C594 H589 0.949 . S
C594 C600 1.368 . S
C595 C579 1.349 . S
C595 H587 0.950 . S
C595 C593 1.327 . S
C596 C584 1.349 . S
C596 H590 0.950 1_455 S
C596 C597 1.327 . S
C597 H591 0.950 . S
C597 C596 1.327 . S
C597 C601 1.429 . S
C598 C581 1.574 . S
C598 H592 0.949 . S
C598 C602 1.368 . S
C599 C580 1.429 . S
C599 C593 1.429 . S
C599 C600 1.523 . S
C600 C581 1.368 . S
C600 C594 1.368 . S
C600 C599 1.523 . S
C601 C585 1.429 . S
C601 C597 1.429 . S
C601 C602 1.523 . S
C602 C586 1.368 . S
C602 C598 1.368 . S
C602 C601 1.523 . S
H603 C578 0.950 . S
H604 C580 0.950 . S
H605 C581 0.949 . S
H606 C583 0.950 . S
H607 C585 0.950 . S
C608 C609 1.349 . S
C608 C610 1.327 1_554 S
C608 H633 0.950 . S
C609 C608 1.349 . S
C609 C625 1.349 . S
C610 C608 1.327 1_556 S
C610 C629 1.429 1_556 S
C610 H634 0.950 . S
C611 C628 1.574 . S
C611 C630 1.368 . S
C611 H635 0.949 1_556 S
H612 C616 0.949 . S
C613 C614 1.349 1_545 S
C613 C615 1.319 1_545 S
C613 H636 0.950 . S
C614 C613 1.349 1_565 S
C614 C626 1.349 . S
C615 C613 1.319 1_565 S
C615 C631 1.455 . S
C615 H637 0.934 1_565 S
C616 H612 0.949 . S
C616 C624 1.574 . S
C616 C632 1.368 . S
H617 C625 0.950 . S
H618 C623 0.950 . S
H619 C624 0.949 . S
H620 C626 0.950 . S
H621 C627 0.950 . S
H622 C628 0.949 . S
C623 H618 0.950 . S
C623 C625 1.327 . S
C623 C629 1.429 . S
C624 C616 1.574 . S
C624 H619 0.949 . S
C624 C630 1.368 . S
C625 C609 1.349 . S
C625 H617 0.950 . S
C625 C623 1.327 . S
C626 C614 1.349 . S
C626 H620 0.950 . S
C626 C627 1.327 . S
C627 H621 0.950 . S
C627 C626 1.327 . S
C627 C631 1.429 . S
C628 C611 1.574 . S
C628 H622 0.949 . S
C628 C632 1.368 . S
C629 C610 1.429 1_554 S
C629 C623 1.429 . S
C629 C630 1.523 1_554 S
C630 C611 1.368 . S
C630 C624 1.368 . S
C630 C629 1.523 1_556 S
C631 C615 1.455 . S
C631 C627 1.429 . S
C631 C632 1.523 . S
C632 C616 1.368 . S
C632 C628 1.368 . S
C632 C631 1.523 . S
H633 C608 0.950 . S
H634 C610 0.950 . S
H635 C611 0.949 1_554 S
H636 C613 0.950 . S
H637 C615 0.934 1_545 S
C638 C639 1.349 . S
C638 C640 1.327 . S
C638 H663 0.950 . S
C639 C638 1.349 . S
C639 C655 1.349 . S
C640 C638 1.327 . S
C640 C659 1.429 . S
C640 H664 0.950 . S
C641 C658 1.574 . S
C641 C660 1.368 . S
C641 H665 0.949 . S
H642 C646 0.949 . S
C643 C644 1.349 . S
C643 C645 1.327 . S
C643 H666 0.950 . S
C644 C643 1.349 . S
C644 C656 1.349 . S
C645 C643 1.327 . S
C645 C661 1.429 . S
C645 H667 0.950 . S
C646 H642 0.949 . S
C646 C654 1.574 . S
C646 C662 1.368 . S
H647 C655 0.950 . S
H648 C653 0.955 . S
H649 C654 0.949 1_554 S
H650 C656 0.950 . S
H651 C657 0.950 . S
H652 C658 0.949 . S
C653 H648 0.955 . S
C653 C655 1.322 1_556 S
C653 C659 1.428 1_556 S
C654 C646 1.574 . S
C654 H649 0.949 1_556 S
C654 C660 1.368 . S
C655 C639 1.349 . S
C655 H647 0.950 . S
C655 C653 1.322 1_554 S
C656 C644 1.349 . S
C656 H650 0.950 . S
C656 C657 1.327 . S
C657 H651 0.950 . S
C657 C656 1.327 . S
C657 C661 1.429 . S
C658 C641 1.574 . S
C658 H652 0.949 . S
C658 C662 1.368 . S
C659 C640 1.429 . S
C659 C653 1.428 1_554 S
C659 C660 1.523 1_554 S
C660 C641 1.368 . S
C660 C654 1.368 . S
C660 C659 1.523 1_556 S
C661 C645 1.429 . S
C661 C657 1.429 . S
C661 C662 1.523 . S
C662 C646 1.368 . S
C662 C658 1.368 . S
C662 C661 1.523 . S
H663 C638 0.950 . S
H664 C640 0.950 . S
H665 C641 0.949 . S
H666 C643 0.950 . S
H667 C645 0.950 . S
C668 C669 1.349 . S
C668 C670 1.327 1_554 S
C668 H693 0.950 . S
C669 C668 1.349 . S
C669 C685 1.349 . S
C670 C668 1.327 1_556 S
C670 C689 1.429 1_556 S
C670 H694 0.950 . S
C671 C688 1.574 . S
C671 C690 1.368 . S
C671 H695 0.949 1_556 S
H672 C676 0.949 . S
C673 C674 1.349 . S
C673 C675 1.327 . S
C673 H696 0.950 . S
C674 C673 1.349 . S
C674 C686 1.349 . S
C675 C673 1.327 . S
C675 C691 1.429 . S
C675 H697 0.950 . S
C676 H672 0.949 . S
C676 C684 1.574 . S
C676 C692 1.368 . S
H677 C685 0.950 . S
H678 C683 0.950 . S
H679 C684 0.949 . S
H680 C686 0.950 . S
H681 C687 0.950 . S
H682 C688 0.949 . S
C683 H678 0.950 . S
C683 C685 1.327 . S
C683 C689 1.429 . S
C684 C676 1.574 . S
C684 H679 0.949 . S
C684 C690 1.368 . S
C685 C669 1.349 . S
C685 H677 0.950 . S
C685 C683 1.327 . S
C686 C674 1.349 . S
C686 H680 0.950 . S
C686 C687 1.327 . S
C687 H681 0.950 . S
C687 C686 1.327 . S
C687 C691 1.429 . S
C688 C671 1.574 . S
C688 H682 0.949 . S
C688 C692 1.368 . S
C689 C670 1.429 1_554 S
C689 C683 1.429 . S
C689 C690 1.523 1_554 S
C690 C671 1.368 . S
C690 C684 1.368 . S
C690 C689 1.523 1_556 S
C691 C675 1.429 . S
C691 C687 1.429 . S
C691 C692 1.523 . S
C692 C676 1.368 . S
C692 C688 1.368 . S
C692 C691 1.523 . S
H693 C668 0.950 . S
H694 C670 0.950 . S
H695 C671 0.949 1_554 S
H696 C673 0.950 . S
H697 C675 0.950 . S
C698 C699 1.349 . S
C698 C700 1.327 . S
C698 H723 0.950 . S
C699 C698 1.349 . S
C699 C715 1.349 . S
C700 C698 1.327 . S
C700 C719 1.429 . S
C700 H724 0.950 . S
C701 C718 1.574 . S
C701 C720 1.368 . S
C701 H725 0.949 . S
H702 C706 0.949 . S
C703 C704 1.349 . S
C703 C705 1.327 . S
C703 H726 0.950 1_655 S
C704 C703 1.349 . S
C704 C716 1.349 . S
C705 C703 1.327 . S
C705 C721 1.429 . S
C705 H727 0.950 . S
C706 H702 0.949 . S
C706 C714 1.574 . S
C706 C722 1.368 . S
H707 C715 0.950 . S
H708 C713 0.950 . S
H709 C714 0.949 1_554 S
H710 C716 0.950 . S
H711 C717 0.950 . S
H712 C718 0.949 . S
C713 H708 0.950 . S
C713 C715 1.327 1_556 S
C713 C719 1.429 1_556 S
C714 C706 1.574 . S
C714 H709 0.949 1_556 S
C714 C720 1.368 . S
C715 C699 1.349 . S
C715 H707 0.950 . S
C715 C713 1.327 1_554 S
C716 C704 1.349 . S
C716 H710 0.950 . S
C716 C717 1.327 . S
C717 H711 0.950 . S
C717 C716 1.327 . S
C717 C721 1.429 . S
C718 C701 1.574 . S
C718 H712 0.949 . S
C718 C722 1.368 . S
C719 C700 1.429 . S
C719 C713 1.429 1_554 S
C719 C720 1.523 1_554 S
C720 C701 1.368 . S
C720 C714 1.368 . S
C720 C719 1.523 1_556 S
C721 C705 1.429 . S
C721 C717 1.429 . S
C721 C722 1.523 . S
C722 C706 1.368 . S
C722 C718 1.368 . S
C722 C721 1.523 . S
H723 C698 0.950 . S
H724 C700 0.950 . S
H725 C701 0.949 . S
H726 C703 0.950 1_455 S
H727 C705 0.950 . S
C728 C729 1.349 . S
C728 C730 1.327 . S
C728 H753 0.950 1_554 S
C729 C728 1.349 . S
C729 C745 1.349 . S
C730 C728 1.327 . S
C730 C749 1.429 . S
C730 H754 0.950 . S
C731 C748 1.574 . S
C731 C750 1.368 . S
C731 H755 0.949 . S
H732 C736 0.949 . S
C733 C734 1.349 . S
C733 C735 1.327 . S
C733 H756 0.950 . S
C734 C733 1.349 . S
C734 C746 1.349 . S
C735 C733 1.327 . S
C735 C751 1.429 . S
C735 H757 0.950 . S
C736 H732 0.949 . S
C736 C744 1.574 . S
C736 C752 1.368 . S
H737 C745 0.950 . S
H738 C743 0.950 . S
H739 C744 0.949 . S
H740 C746 0.950 . S
H741 C747 0.950 . S
H742 C748 0.949 . S
C743 H738 0.950 . S
C743 C745 1.327 . S
C743 C749 1.429 . S
C744 C736 1.574 . S
C744 H739 0.949 . S
C744 C750 1.368 . S
C745 C729 1.349 . S
C745 H737 0.950 . S
C745 C743 1.327 . S
C746 C734 1.349 . S
C746 H740 0.950 . S
C746 C747 1.327 . S
C747 H741 0.950 . S
C747 C746 1.327 . S
C747 C751 1.429 . S
C748 C731 1.574 . S
C748 H742 0.949 . S
C748 C752 1.368 . S
C749 C730 1.429 . S
C749 C743 1.429 . S
C749 C750 1.523 . S
C750 C731 1.368 . S
C750 C744 1.368 . S
C750 C749 1.523 . S
C751 C735 1.429 . S
C751 C747 1.429 . S
C751 C752 1.523 . S
C752 C736 1.368 . S
C752 C748 1.368 . S
C752 C751 1.523 . S
H753 C728 0.950 1_556 S
H754 C730 0.950 . S
H755 C731 0.949 . S
H756 C733 0.950 . S
H757 C735 0.950 . S
C758 C759 1.349 . S
C758 C760 1.327 . S
C758 H783 0.950 . S
C759 C758 1.349 . S
C759 C775 1.349 . S
C760 C758 1.327 . S
C760 C779 1.429 . S
C760 H784 0.950 . S
C761 C778 1.574 . S
C761 C780 1.368 . S
C761 H785 0.949 . S
H762 C766 0.949 . S
C763 C764 1.349 . S
C763 C765 1.327 . S
C763 H786 0.950 1_545 S
C764 C763 1.349 . S
C764 C776 1.349 . S
C765 C763 1.327 . S
C765 C781 1.429 . S
C765 H787 0.950 . S
C766 H762 0.949 . S
C766 C774 1.574 . S
C766 C782 1.368 . S
H767 C775 0.950 1_556 S
H768 C773 0.950 . S
H769 C774 0.949 . S
H770 C776 0.950 . S
H771 C777 0.950 . S
H772 C778 0.949 . S
C773 H768 0.950 . S
C773 C775 1.327 . S
C773 C779 1.429 . S
C774 C766 1.574 . S
C774 H769 0.949 . S
C774 C780 1.368 . S
C775 C759 1.349 . S
C775 H767 0.950 1_554 S
C775 C773 1.327 . S
C776 C764 1.349 . S
C776 H770 0.950 . S
C776 C777 1.327 . S
C777 H771 0.950 . S
C777 C776 1.327 . S
C777 C781 1.429 . S
C778 C761 1.574 . S
C778 H772 0.949 . S
C778 C782 1.368 . S
C779 C760 1.429 . S
C779 C773 1.429 . S
C779 C780 1.523 . S
C780 C761 1.368 . S
C780 C774 1.368 . S
C780 C779 1.523 . S
C781 C765 1.429 . S
C781 C777 1.429 . S
C781 C782 1.523 . S
C782 C766 1.368 . S
C782 C778 1.368 . S
C782 C781 1.523 . S
H783 C758 0.950 . S
H784 C760 0.950 . S
H785 C761 0.949 . S
H786 C763 0.950 1_565 S
H787 C765 0.950 . S
C788 C789 1.349 . S
C788 C790 1.327 . S
C788 H813 0.950 . S
C789 C788 1.349 . S
C789 C805 1.349 . S
C790 C788 1.327 . S
C790 C809 1.429 . S
C790 H814 0.950 . S
C791 C808 1.574 . S
C791 C810 1.368 . S
C791 H815 0.949 . S
H792 C796 0.949 . S
C793 C794 1.349 . S
C793 C795 1.327 . S
C793 H816 0.950 . S
C794 C793 1.349 . S
C794 C806 1.349 . S
C795 C793 1.327 . S
C795 C811 1.429 . S
C795 H817 0.950 . S
C796 H792 0.949 . S
C796 C804 1.574 . S
C796 C812 1.368 . S
H797 C805 0.950 1_556 S
H798 C803 0.950 . S
H799 C804 0.949 . S
H800 C806 0.950 . S
H801 C807 0.950 . S
H802 C808 0.949 . S
C803 H798 0.950 . S
C803 C805 1.327 . S
C803 C809 1.429 . S
C804 C796 1.574 . S
C804 H799 0.949 . S
C804 C810 1.368 . S
C805 C789 1.349 . S
C805 H797 0.950 1_554 S
C805 C803 1.327 . S
C806 C794 1.349 . S
C806 H800 0.950 . S
C806 C807 1.327 . S
C807 H801 0.950 . S
C807 C806 1.327 . S
C807 C811 1.429 . S
C808 C791 1.574 . S
C808 H802 0.949 . S
C808 C812 1.368 . S
C809 C790 1.429 . S
C809 C803 1.429 . S
C809 C810 1.523 . S
C810 C791 1.368 . S
C810 C804 1.368 . S
C810 C809 1.523 . S
C811 C795 1.429 . S
C811 C807 1.429 . S
C811 C812 1.523 . S
C812 C796 1.368 . S
C812 C808 1.368 . S
C812 C811 1.523 . S
H813 C788 0.950 . S
H814 C790 0.950 . S
H815 C791 0.949 . S
H816 C793 0.950 . S
H817 C795 0.950 . S
C818 C819 1.349 . S
C818 C820 1.327 . S
C818 H843 0.950 . S
C819 C818 1.349 . S
C819 C835 1.349 . S
C820 C818 1.327 . S
C820 C839 1.429 . S
C820 H844 0.950 . S
C821 C838 1.574 . S
C821 C840 1.368 . S
C821 H845 0.949 . S
H822 C826 0.949 . S
C823 C824 1.349 . S
C823 C825 1.327 . S
C823 H846 0.950 . S
C824 C823 1.349 . S
C824 C836 1.349 . S
C825 C823 1.327 . S
C825 C841 1.429 . S
C825 H847 0.950 . S
C826 H822 0.949 . S
C826 C834 1.574 . S
C826 C842 1.368 . S
H827 C835 0.950 . S
H828 C833 0.950 . S
H829 C834 0.949 . S
H830 C836 0.950 . S
H831 C837 0.950 . S
H832 C838 0.949 . S
C833 H828 0.950 . S
C833 C835 1.327 . S
C833 C839 1.429 . S
C834 C826 1.574 . S
C834 H829 0.949 . S
C834 C840 1.368 . S
C835 C819 1.349 . S
C835 H827 0.950 . S
C835 C833 1.327 . S
C836 C824 1.349 . S
C836 H830 0.950 . S
C836 C837 1.327 . S
C837 H831 0.950 . S
C837 C836 1.327 . S
C837 C841 1.429 . S
C838 C821 1.574 . S
C838 H832 0.949 . S
C838 C842 1.368 . S
C839 C820 1.429 . S
C839 C833 1.429 . S
C839 C840 1.523 . S
C840 C821 1.368 . S
C840 C834 1.368 . S
C840 C839 1.523 . S
C841 C825 1.429 . S
C841 C837 1.429 . S
C841 C842 1.523 . S
C842 C826 1.368 . S
C842 C838 1.368 . S
C842 C841 1.523 . S
H843 C818 0.950 . S
H844 C820 0.950 . S
H845 C821 0.949 . S
H846 C823 0.950 . S
H847 C825 0.950 . S
C848 C849 1.349 . S
C848 C850 1.327 . S
C848 H873 0.950 . S
C849 C848 1.349 . S
C849 C865 1.349 . S
C850 C848 1.327 . S
C850 C869 1.429 . S
C850 H874 0.950 1_554 S
C851 C868 1.574 . S
C851 C870 1.368 . S
C851 H875 0.949 . S
H852 C856 0.949 . S
C853 C854 1.349 . S
C853 C855 1.327 1_455 S
C853 H876 0.950 . S
C854 C853 1.349 . S
C854 C866 1.349 1_455 S
C855 C853 1.327 1_655 S
C855 C871 1.429 . S
C855 H877 0.950 1_556 S
C856 H852 0.949 . S
C856 C864 1.574 . S
C856 C872 1.368 . S
H857 C865 0.950 . S
H858 C863 0.950 . S
H859 C864 0.949 . S
H860 C866 0.950 . S
H861 C867 0.950 . S
H862 C868 0.949 . S
C863 H858 0.950 . S
C863 C865 1.327 . S
C863 C869 1.429 . S
C864 C856 1.574 . S
C864 H859 0.949 . S
C864 C870 1.368 1_556 S
C865 C849 1.349 . S
C865 H857 0.950 . S
C865 C863 1.327 . S
C866 C854 1.349 1_655 S
C866 H860 0.950 . S
C866 C867 1.327 . S
C867 H861 0.950 . S
C867 C866 1.327 . S
C867 C871 1.429 . S
C868 C851 1.574 . S
C868 H862 0.949 . S
C868 C872 1.368 1_554 S
C869 C850 1.429 . S
C869 C863 1.429 . S
C869 C870 1.523 . S
C870 C851 1.368 . S
C870 C864 1.368 1_554 S
C870 C869 1.523 . S
C871 C855 1.429 . S
C871 C867 1.429 . S
C871 C872 1.523 . S
C872 C856 1.368 . S
C872 C868 1.368 1_556 S
C872 C871 1.523 . S
H873 C848 0.950 . S
H874 C850 0.950 1_556 S
H875 C851 0.949 . S
H876 C853 0.950 . S
H877 C855 0.950 1_554 S
C878 C879 1.349 . S
C878 C880 1.327 . S
C878 H903 0.950 . S
C879 C878 1.349 . S
C879 C895 1.349 . S
C880 C878 1.327 . S
C880 C899 1.429 . S
C880 H904 0.950 . S
C881 C898 1.574 1_564 S
C881 C900 1.368 . S
C881 H905 0.949 1_565 S
H882 C886 0.949 . S
C883 C884 1.349 . S
C883 C885 1.327 . S
C883 H906 0.950 . S
C884 C883 1.349 . S
C884 C896 1.349 1_545 S
C885 C883 1.327 . S
C885 C901 1.429 1_545 S
C885 H907 0.950 . S
C886 H882 0.949 . S
C886 C894 1.574 1_556 S
C886 C902 1.368 . S
H887 C895 0.950 . S
H888 C893 0.950 . S
H889 C894 0.949 . S
H890 C896 0.950 . S
H891 C897 0.950 . S
H892 C898 0.949 . S
C893 H888 0.950 . S
C893 C895 1.327 . S
C893 C899 1.429 . S
C894 C886 1.574 1_554 S
C894 H889 0.949 . S
C894 C900 1.368 . S
C895 C879 1.349 . S
C895 H887 0.950 . S
C895 C893 1.327 . S
C896 C884 1.349 1_565 S
C896 H890 0.950 . S
C896 C897 1.327 . S
C897 H891 0.950 . S
C897 C896 1.327 . S
C897 C901 1.429 . S
C898 C881 1.574 1_546 S
C898 H892 0.949 . S
C898 C902 1.368 1_545 S
C899 C880 1.429 . S
C899 C893 1.429 . S
C899 C900 1.523 . S
C900 C881 1.368 . S
C900 C894 1.368 . S
C900 C899 1.523 . S
C901 C885 1.429 1_565 S
C901 C897 1.429 . S
C901 C902 1.523 . S
C902 C886 1.368 . S
C902 C898 1.368 1_565 S
C902 C901 1.523 . S
H903 C878 0.950 . S
H904 C880 0.950 . S
H905 C881 0.949 1_545 S
H906 C883 0.950 . S
H907 C885 0.950 . S
C908 C909 1.349 . S
C908 C910 1.327 . S
C908 H933 0.950 . S
C909 C908 1.349 . S
C909 C925 1.349 . S
C910 C908 1.327 . S
C910 C929 1.429 . S
C910 H934 0.950 . S
C911 C928 1.574 . S
C911 C930 1.368 1_556 S
C911 H935 0.949 . S
H912 C916 0.949 . S
C913 C914 1.349 . S
C913 C915 1.327 . S
C913 H936 0.950 . S
C914 C913 1.349 . S
C914 C926 1.349 . S
C915 C913 1.327 . S
C915 C931 1.429 . S
C915 H937 0.950 . S
C916 H912 0.949 . S
C916 C924 1.574 . S
C916 C932 1.368 1_554 S
H917 C925 0.950 . S
H918 C923 0.950 1_556 S
H919 C924 0.949 . S
H920 C926 0.950 . S
H921 C927 0.950 1_554 S
H922 C928 0.949 . S
C923 H918 0.950 1_554 S
C923 C925 1.327 . S
C923 C929 1.429 . S
C924 C916 1.574 . S
C924 H919 0.949 . S
C924 C930 1.368 . S
C925 C909 1.349 . S
C925 H917 0.950 . S
C925 C923 1.327 . S
C926 C914 1.349 . S
C926 H920 0.950 . S
C926 C927 1.327 . S
C927 H921 0.950 1_556 S
C927 C926 1.327 . S
C927 C931 1.429 . S
C928 C911 1.574 . S
C928 H922 0.949 . S
C928 C932 1.368 . S
C929 C910 1.429 . S
C929 C923 1.429 . S
C929 C930 1.523 . S
C930 C911 1.368 1_554 S
C930 C924 1.368 . S
C930 C929 1.523 . S
C931 C915 1.429 . S
C931 C927 1.429 . S
C931 C932 1.523 . S
C932 C916 1.368 1_556 S
C932 C928 1.368 . S
C932 C931 1.523 . S
H933 C908 0.950 . S
H934 C910 0.950 . S
H935 C911 0.949 . S
H936 C913 0.950 . S
H937 C915 0.950 . S
C938 C939 1.349 . S
C938 C940 1.327 . S
C938 H963 0.950 . S
C939 C938 1.349 . S
C939 C955 1.349 . S
C940 C938 1.327 . S
C940 C959 1.429 . S
C940 H964 0.950 . S
C941 C958 1.574 . S
C941 C960 1.368 . S
C941 H965 0.949 . S
H942 C946 0.949 . S
C943 C944 1.349 . S
C943 C945 1.327 . S
C943 H966 0.950 . S
C944 C943 1.349 . S
C944 C956 1.349 . S
C945 C943 1.327 . S
C945 C961 1.429 . S
C945 H967 0.950 . S
C946 H942 0.949 . S
C946 C954 1.574 1_556 S
C946 C962 1.368 . S
H947 C955 0.950 . S
H948 C953 0.950 . S
H949 C954 0.949 . S
H950 C956 0.950 . S
H951 C957 0.950 . S
H952 C958 0.949 . S
C953 H948 0.950 . S
C953 C955 1.327 . S
C953 C959 1.429 . S
C954 C946 1.574 1_554 S
C954 H949 0.949 . S
C954 C960 1.368 . S
C955 C939 1.349 . S
C955 H947 0.950 . S
C955 C953 1.327 . S
C956 C944 1.349 . S
C956 H950 0.950 . S
C956 C957 1.327 . S
C957 H951 0.950 . S
C957 C956 1.327 . S
C957 C961 1.429 . S
C958 C941 1.574 . S
C958 H952 0.949 . S
C958 C962 1.368 1_554 S
C959 C940 1.429 . S
C959 C953 1.429 . S
C959 C960 1.523 . S
C960 C941 1.368 . S
C960 C954 1.368 . S
C960 C959 1.523 . S
C961 C945 1.429 . S
C961 C957 1.429 . S
C961 C962 1.523 . S
C962 C946 1.368 . S
C962 C958 1.368 1_556 S
C962 C961 1.523 . S
H963 C938 0.950 . S
H964 C940 0.950 . S
H965 C941 0.949 . S
H966 C943 0.950 . S
H967 C945 0.950 . S
C968 C969 1.349 . S
C968 C970 1.327 . S
C968 H993 0.950 . S
C969 C968 1.349 . S
C969 C985 1.349 . S
C970 C968 1.327 . S
C970 C989 1.429 . S
C970 H994 0.950 . S
C971 C988 1.574 . S
C971 C990 1.368 . S
C971 H995 0.949 . S
H972 C976 0.949 . S
C973 C974 1.349 . S
C973 C975 1.327 . S
C973 H996 0.950 . S
C974 C973 1.349 . S
C974 C986 1.349 . S
C975 C973 1.327 . S
C975 C991 1.429 . S
C975 H997 0.950 . S
C976 H972 0.949 . S
C976 C984 1.574 . S
C976 C992 1.368 . S
H977 C985 0.950 . S
H978 C983 0.950 . S
H979 C984 0.949 . S
H980 C986 0.950 . S
H981 C987 0.950 . S
H982 C988 0.949 . S
C983 H978 0.950 . S
C983 C985 1.327 . S
C983 C989 1.429 . S
C984 C976 1.574 . S
C984 H979 0.949 . S
C984 C990 1.368 . S
C985 C969 1.349 . S
C985 H977 0.950 . S
C985 C983 1.327 . S
C986 C974 1.349 . S
C986 H980 0.950 . S
C986 C987 1.327 . S
C987 H981 0.950 . S
C987 C986 1.327 . S
C987 C991 1.429 . S
C988 C971 1.574 . S
C988 H982 0.949 . S
C988 C992 1.368 . S
C989 C970 1.429 . S
C989 C983 1.429 . S
C989 C990 1.523 . S
C990 C971 1.368 . S
C990 C984 1.368 . S
C990 C989 1.523 . S
C991 C975 1.429 . S
C991 C987 1.429 . S
C991 C992 1.523 . S
C992 C976 1.368 . S
C992 C988 1.368 . S
C992 C991 1.523 . S
H993 C968 0.950 . S
H994 C970 0.950 . S
H995 C971 0.949 . S
H996 C973 0.950 . S
H997 C975 0.950 . S
C998 C999 1.349 . S
C998 C1000 1.327 . S
C998 H1023 0.950 . S
C999 C998 1.349 . S
C999 C1015 1.349 . S
C1000 C998 1.327 . S
C1000 C1019 1.429 . S
C1000 H1024 0.950 . S
C1001 C1018 1.574 . S
C1001 C1020 1.368 . S
C1001 H1025 0.949 . S
H1002 C1006 0.949 . S
C1003 C1004 1.349 . S
C1003 C1005 1.327 . S
C1003 H1026 0.950 . S
C1004 C1003 1.349 . S
C1004 C1016 1.349 . S
C1005 C1003 1.327 . S
C1005 C1021 1.429 . S
C1005 H1027 0.950 . S
C1006 H1002 0.949 . S
C1006 C1014 1.574 . S
C1006 C1022 1.368 . S
H1007 C1015 0.950 . S
H1008 C1013 0.950 . S
H1009 C1014 0.949 . S
H1010 C1016 0.950 . S
H1011 C1017 0.950 . S
H1012 C1018 0.949 . S
C1013 H1008 0.950 . S
C1013 C1015 1.327 . S
C1013 C1019 1.429 . S
C1014 C1006 1.574 . S
C1014 H1009 0.949 . S
C1014 C1020 1.368 . S
C1015 C999 1.349 . S
C1015 H1007 0.950 . S
C1015 C1013 1.327 . S
C1016 C1004 1.349 . S
C1016 H1010 0.950 . S
C1016 C1017 1.327 . S
C1017 H1011 0.950 . S
C1017 C1016 1.327 . S
C1017 C1021 1.429 . S
C1018 C1001 1.574 . S
C1018 H1012 0.949 . S
C1018 C1022 1.368 . S
C1019 C1000 1.429 . S
C1019 C1013 1.429 . S
C1019 C1020 1.523 . S
C1020 C1001 1.368 . S
C1020 C1014 1.368 . S
C1020 C1019 1.523 . S
C1021 C1005 1.429 . S
C1021 C1017 1.429 . S
C1021 C1022 1.523 . S
C1022 C1006 1.368 . S
C1022 C1018 1.368 . S
C1022 C1021 1.523 . S
H1023 C998 0.950 . S
H1024 C1000 0.950 . S
H1025 C1001 0.949 . S
H1026 C1003 0.950 . S
H1027 C1005 0.950 . S
C1028 C1029 1.349 . S
C1028 C1030 1.327 . S
C1028 H1053 0.950 . S
C1029 C1028 1.349 . S
C1029 C1045 1.349 . S
C1030 C1028 1.327 . S
C1030 C1049 1.429 . S
C1030 H1054 0.950 . S
C1031 C1048 1.574 . S
C1031 C1050 1.368 . S
C1031 H1055 0.949 . S
H1032 C1036 0.949 . S
C1033 C1034 1.349 . S
C1033 C1035 1.327 . S
C1033 H1056 0.950 . S
C1034 C1033 1.349 . S
C1034 C1046 1.349 . S
C1035 C1033 1.327 . S
C1035 C1051 1.429 . S
C1035 H1057 0.950 . S
C1036 H1032 0.949 . S
C1036 C1044 1.574 . S
C1036 C1052 1.368 . S
H1037 C1045 0.950 . S
H1038 C1043 0.950 . S
H1039 C1044 0.949 . S
H1040 C1046 0.950 . S
H1041 C1047 0.950 . S
H1042 C1048 0.949 . S
C1043 H1038 0.950 . S
C1043 C1045 1.327 . S
C1043 C1049 1.429 . S
C1044 C1036 1.574 . S
C1044 H1039 0.949 . S
C1044 C1050 1.368 . S
C1045 C1029 1.349 . S
C1045 H1037 0.950 . S
C1045 C1043 1.327 . S
C1046 C1034 1.349 . S
C1046 H1040 0.950 . S
C1046 C1047 1.327 . S
C1047 H1041 0.950 . S
C1047 C1046 1.327 . S
C1047 C1051 1.429 . S
C1048 C1031 1.574 . S
C1048 H1042 0.949 . S
C1048 C1052 1.368 . S
C1049 C1030 1.429 . S
C1049 C1043 1.429 . S
C1049 C1050 1.523 . S
C1050 C1031 1.368 . S
C1050 C1044 1.368 . S
C1050 C1049 1.523 . S
C1051 C1035 1.429 . S
C1051 C1047 1.429 . S
C1051 C1052 1.523 . S
C1052 C1036 1.368 . S
C1052 C1048 1.368 . S
C1052 C1051 1.523 . S
H1053 C1028 0.950 . S
H1054 C1030 0.950 . S
H1055 C1031 0.949 . S
H1056 C1033 0.950 . S
H1057 C1035 0.950 . S
C1058 C1059 1.349 . S
C1058 C1060 1.327 . S
C1058 H1083 0.950 . S
C1059 C1058 1.349 . S
C1059 C1075 1.349 . S
C1060 C1058 1.327 . S
C1060 C1079 1.429 . S
C1060 H1084 0.950 . S
C1061 C1078 1.574 . S
C1061 C1080 1.368 . S
C1061 H1085 0.949 . S
H1062 C1066 0.949 . S
C1063 C1064 1.349 . S
C1063 C1065 1.327 . S
C1063 H1086 0.950 . S
C1064 C1063 1.349 . S
C1064 C1076 1.349 . S
C1065 C1063 1.327 . S
C1065 C1081 1.429 . S
C1065 H1087 0.950 . S
C1066 H1062 0.949 . S
C1066 C1074 1.574 . S
C1066 C1082 1.368 . S
H1067 C1075 0.950 . S
H1068 C1073 0.950 . S
H1069 C1074 0.949 . S
H1070 C1076 0.950 . S
H1071 C1077 0.950 . S
H1072 C1078 0.949 . S
C1073 H1068 0.950 . S
C1073 C1075 1.327 . S
C1073 C1079 1.429 . S
C1074 C1066 1.574 . S
C1074 H1069 0.949 . S
C1074 C1080 1.368 . S
C1075 C1059 1.349 . S
C1075 H1067 0.950 . S
C1075 C1073 1.327 . S
C1076 C1064 1.349 . S
C1076 H1070 0.950 . S
C1076 C1077 1.327 . S
C1077 H1071 0.950 . S
C1077 C1076 1.327 . S
C1077 C1081 1.429 . S
C1078 C1061 1.574 . S
C1078 H1072 0.949 . S
C1078 C1082 1.368 . S
C1079 C1060 1.429 . S
C1079 C1073 1.429 . S
C1079 C1080 1.523 . S
C1080 C1061 1.368 . S
C1080 C1074 1.368 . S
C1080 C1079 1.523 . S
C1081 C1065 1.429 . S
C1081 C1077 1.429 . S
C1081 C1082 1.523 . S
C1082 C1066 1.368 . S
C1082 C1078 1.368 . S
C1082 C1081 1.523 . S
H1083 C1058 0.950 . S
H1084 C1060 0.950 . S
H1085 C1061 0.949 . S
H1086 C1063 0.950 . S
H1087 C1065 0.950 . S
C1088 C1089 1.349 . S
C1088 C1090 1.327 . S
C1088 H1113 0.950 . S
C1089 C1088 1.349 . S
C1089 C1105 1.349 . S
C1090 C1088 1.327 . S
C1090 C1109 1.429 . S
C1090 H1114 0.950 . S
C1091 C1108 1.574 . S
C1091 C1110 1.368 . S
C1091 H1115 0.949 . S
H1092 C1096 0.949 . S
C1093 C1094 1.349 . S
C1093 C1095 1.327 . S
C1093 H1116 0.950 . S
C1094 C1093 1.349 . S
C1094 C1106 1.349 . S
C1095 C1093 1.327 . S
C1095 C1111 1.429 . S
C1095 H1117 0.950 . S
C1096 H1092 0.949 . S
C1096 C1104 1.574 . S
C1096 C1112 1.368 . S
H1097 C1105 0.950 . S
H1098 C1103 0.950 . S
H1099 C1104 0.949 . S
H1100 C1106 0.950 1_455 S
H1101 C1107 0.950 . S
H1102 C1108 0.949 . S
C1103 H1098 0.950 . S
C1103 C1105 1.327 . S
C1103 C1109 1.429 . S
C1104 C1096 1.574 . S
C1104 H1099 0.949 . S
C1104 C1110 1.368 . S
C1105 C1089 1.349 . S
C1105 H1097 0.950 . S
C1105 C1103 1.327 . S
C1106 C1094 1.349 . S
C1106 H1100 0.950 1_655 S
C1106 C1107 1.327 . S
C1107 H1101 0.950 . S
C1107 C1106 1.327 . S
C1107 C1111 1.429 . S
C1108 C1091 1.574 . S
C1108 H1102 0.949 . S
C1108 C1112 1.368 . S
C1109 C1090 1.429 . S
C1109 C1103 1.429 . S
C1109 C1110 1.523 . S
C1110 C1091 1.368 . S
C1110 C1104 1.368 . S
C1110 C1109 1.523 . S
C1111 C1095 1.429 . S
C1111 C1107 1.429 . S
C1111 C1112 1.523 . S
C1112 C1096 1.368 . S
C1112 C1108 1.368 . S
C1112 C1111 1.523 . S
H1113 C1088 0.950 . S
H1114 C1090 0.950 . S
H1115 C1091 0.949 . S
H1116 C1093 0.950 . S
H1117 C1095 0.950 . S
C1118 C1119 1.349 . S
C1118 C1120 1.327 . S
C1118 H1143 0.950 . S
C1119 C1118 1.349 . S
C1119 C1135 1.349 . S
C1120 C1118 1.327 . S
C1120 C1139 1.429 . S
C1120 H1144 0.950 . S
C1121 C1138 1.574 . S
C1121 C1140 1.368 . S
C1121 H1145 0.949 . S
H1122 C1126 0.949 . S
C1123 C1124 1.349 . S
C1123 C1125 1.327 . S
C1123 H1146 0.950 . S
C1124 C1123 1.349 . S
C1124 C1136 1.349 . S
C1125 C1123 1.327 . S
C1125 C1141 1.429 . S
C1125 H1147 0.950 . S
C1126 H1122 0.949 . S
C1126 C1134 1.574 . S
C1126 C1142 1.368 . S
H1127 C1135 0.950 . S
H1128 C1133 0.950 . S
H1129 C1134 0.949 . S
H1130 C1136 0.950 1_545 S
H1131 C1137 0.950 . S
H1132 C1138 0.949 . S
C1133 H1128 0.950 . S
C1133 C1135 1.327 . S
C1133 C1139 1.429 . S
C1134 C1126 1.574 . S
C1134 H1129 0.949 . S
C1134 C1140 1.368 . S
C1135 C1119 1.349 . S
C1135 H1127 0.950 . S
C1135 C1133 1.327 . S
C1136 C1124 1.349 . S
C1136 H1130 0.950 1_565 S
C1136 C1137 1.327 . S
C1137 H1131 0.950 . S
C1137 C1136 1.327 . S
C1137 C1141 1.429 . S
C1138 C1121 1.574 . S
C1138 H1132 0.949 . S
C1138 C1142 1.368 . S
C1139 C1120 1.429 . S
C1139 C1133 1.429 . S
C1139 C1140 1.523 . S
C1140 C1121 1.368 . S
C1140 C1134 1.368 . S
C1140 C1139 1.523 . S
C1141 C1125 1.429 . S
C1141 C1137 1.429 . S
C1141 C1142 1.523 . S
C1142 C1126 1.368 . S
C1142 C1138 1.368 . S
C1142 C1141 1.523 . S
H1143 C1118 0.950 . S
H1144 C1120 0.950 . S
H1145 C1121 0.949 . S
H1146 C1123 0.950 . S
H1147 C1125 0.950 . S
C1148 C1149 1.349 . S
C1148 C1150 1.327 . S
C1148 H1173 0.950 . S
C1149 C1148 1.349 . S
C1149 C1165 1.349 . S
C1150 C1148 1.327 . S
C1150 C1169 1.429 . S
C1150 H1174 0.950 . S
C1151 C1168 1.574 . S
C1151 C1170 1.368 . S
C1151 H1175 0.949 . S
H1152 C1156 0.949 . S
C1153 C1154 1.349 . S
C1153 C1155 1.327 . S
C1153 H1176 0.950 . S
C1154 C1153 1.349 . S
C1154 C1166 1.349 . S
C1155 C1153 1.327 . S
C1155 C1171 1.429 . S
C1155 H1177 0.950 . S
C1156 H1152 0.949 . S
C1156 C1164 1.574 . S
C1156 C1172 1.368 . S
H1157 C1165 0.950 . S
H1158 C1163 0.950 . S
H1159 C1164 0.949 . S
H1160 C1166 0.950 . S
H1161 C1167 0.950 . S
H1162 C1168 0.949 . S
C1163 H1158 0.950 . S
C1163 C1165 1.327 . S
C1163 C1169 1.429 . S
C1164 C1156 1.574 . S
C1164 H1159 0.949 . S
C1164 C1170 1.368 . S
C1165 C1149 1.349 . S
C1165 H1157 0.950 . S
C1165 C1163 1.327 . S
C1166 C1154 1.349 . S
C1166 H1160 0.950 . S
C1166 C1167 1.327 . S
C1167 H1161 0.950 . S
C1167 C1166 1.327 . S
C1167 C1171 1.429 . S
C1168 C1151 1.574 . S
C1168 H1162 0.949 . S
C1168 C1172 1.368 . S
C1169 C1150 1.429 . S
C1169 C1163 1.429 . S
C1169 C1170 1.523 . S
C1170 C1151 1.368 . S
C1170 C1164 1.368 . S
C1170 C1169 1.523 . S
C1171 C1155 1.429 . S
C1171 C1167 1.429 . S
C1171 C1172 1.523 . S
C1172 C1156 1.368 . S
C1172 C1168 1.368 . S
C1172 C1171 1.523 . S
H1173 C1148 0.950 . S
H1174 C1150 0.950 . S
H1175 C1151 0.949 . S
H1176 C1153 0.950 . S
H1177 C1155 0.950 . S
C1178 C1179 1.349 . S
C1178 C1180 1.327 . S
C1178 H1203 0.950 . S
C1179 C1178 1.349 . S
C1179 C1195 1.349 . S
C1180 C1178 1.327 . S
C1180 C1199 1.429 . S
C1180 H1204 0.950 . S
C1181 C1198 1.574 . S
C1181 C1200 1.368 . S
C1181 H1205 0.949 . S
H1182 C1186 0.949 . S
C1183 C1184 1.349 . S
C1183 C1185 1.327 . S
C1183 H1206 0.950 . S
C1184 C1183 1.349 . S
C1184 C1196 1.349 . S
C1185 C1183 1.327 . S
C1185 C1201 1.429 . S
C1185 H1207 0.950 . S
C1186 H1182 0.949 . S
C1186 C1194 1.574 . S
C1186 C1202 1.368 . S
H1187 C1195 0.950 . S
H1188 C1193 0.950 . S
H1189 C1194 0.949 . S
H1190 C1196 0.950 . S
H1191 C1197 0.950 . S
H1192 C1198 0.949 . S
C1193 H1188 0.950 . S
C1193 C1195 1.327 . S
C1193 C1199 1.429 . S
C1194 C1186 1.574 . S
C1194 H1189 0.949 . S
C1194 C1200 1.368 . S
C1195 C1179 1.349 . S
C1195 H1187 0.950 . S
C1195 C1193 1.327 . S
C1196 C1184 1.349 . S
C1196 H1190 0.950 . S
C1196 C1197 1.327 . S
C1197 H1191 0.950 . S
C1197 C1196 1.327 . S
C1197 C1201 1.429 . S
C1198 C1181 1.574 . S
C1198 H1192 0.949 . S
C1198 C1202 1.368 . S
C1199 C1180 1.429 . S
C1199 C1193 1.429 . S
C1199 C1200 1.523 . S
C1200 C1181 1.368 . S
C1200 C1194 1.368 . S
C1200 C1199 1.523 . S
C1201 C1185 1.429 . S
C1201 C1197 1.429 . S
C1201 C1202 1.523 . S
C1202 C1186 1.368 . S
C1202 C1198 1.368 . S
C1202 C1201 1.523 . S
H1203 C1178 0.950 . S
H1204 C1180 0.950 . S
H1205 C1181 0.949 . S
H1206 C1183 0.950 . S
H1207 C1185 0.950 . S
C489 C125 1.822 . S
C494 C226 1.878 . S
C524 C310 1.912 . S
C519 C144 1.844 . S
C554 C376 1.936 . S
C549 C87 1.958 . S
C584 C460 1.906 . S
C579 C106 1.938 . S
C614 C215 1.878 1_565 S
C609 C49 1.917 . S
C639 C68 1.949 . S
C644 C299 1.912 . S
C669 C11 2.072 . S
C674 C387 1.936 . S
C699 C30 2.043 . S
C704 C471 1.906 . S
C734 C222 0.585 . S
C729 C97 0.571 . S
C764 C306 0.564 . S
C759 C116 0.541 . S
C794 C378 0.540 . S
C789 C135 0.527 . S
C819 C78 0.553 . S
C824 C462 0.561 . S
C849 C21 0.570 . S
C854 C210 0.586 . S
C884 C294 0.564 . S
C879 C40 0.540 . S
C914 C390 0.540 . S
C909 C59 0.524 . S
C939 C2 0.551 . S
C944 C474 0.561 . S
C969 C101 1.989 . S
C974 C219 2.014 . S
C999 C120 1.950 . S
C1004 C303 1.973 . S
C1034 C383 1.974 . S
C1029 C139 1.847 . S
C1064 C467 2.011 . S
C1059 C82 1.882 . S
C1089 C25 1.994 . S
C1094 C208 2.013 . S
C1124 C292 1.973 1_565 S
C1119 C44 1.955 . S
C1154 C394 1.974 . S
C1149 C63 1.852 . S
C1179 C6 1.888 . S
C1184 C478 2.011 . S
