# Generated by pormake.
# Topology sqc, (4,8)-cn, num edge types: 1
# Building blocks:
#     Node 0, Type 0, BuildingBlock: MIFKUJ_clean_linker_1, # of connection points: 4
#     Node 1, Type 0, BuildingBlock: MIFKUJ_clean_linker_1, # of connection points: 4
#     Node 2, Type 0, BuildingBlock: MIFKUJ_clean_linker_1, # of connection points: 4
#     Node 3, Type 0, BuildingBlock: MIFKUJ_clean_linker_1, # of connection points: 4
#     Node 4, Type 0, BuildingBlock: MIFKUJ_clean_linker_1, # of connection points: 4
#     Node 5, Type 0, BuildingBlock: MIFKUJ_clean_linker_1, # of connection points: 4
#     Node 6, Type 0, BuildingBlock: MIFKUJ_clean_linker_1, # of connection points: 4
#     Node 7, Type 0, BuildingBlock: MIFKUJ_clean_linker_1, # of connection points: 4
#     Node 8, Type 1, BuildingBlock: VETTIZ_charged_sbu_0, # of connection points: 8
#     Node 9, Type 1, BuildingBlock: VETTIZ_charged_sbu_0, # of connection points: 8
#     Node 10, Type 1, BuildingBlock: VETTIZ_charged_sbu_0, # of connection points: 8
#     Node 11, Type 1, BuildingBlock: VETTIZ_charged_sbu_0, # of connection points: 8
#     Edge 12, Type (0, 1), BuildingBlock: UVAHIK_clean_linker_0, # of connection points: 2
#     Edge 13, Type (0, 1), BuildingBlock: UVAHIK_clean_linker_0, # of connection points: 2
#     Edge 14, Type (0, 1), BuildingBlock: UVAHIK_clean_linker_0, # of connection points: 2
#     Edge 15, Type (0, 1), BuildingBlock: UVAHIK_clean_linker_0, # of connection points: 2
#     Edge 16, Type (0, 1), BuildingBlock: UVAHIK_clean_linker_0, # of connection points: 2
#     Edge 17, Type (0, 1), BuildingBlock: UVAHIK_clean_linker_0, # of connection points: 2
#     Edge 18, Type (0, 1), BuildingBlock: UVAHIK_clean_linker_0, # of connection points: 2
#     Edge 19, Type (0, 1), BuildingBlock: UVAHIK_clean_linker_0, # of connection points: 2
#     Edge 20, Type (0, 1), BuildingBlock: UVAHIK_clean_linker_0, # of connection points: 2
#     Edge 21, Type (0, 1), BuildingBlock: UVAHIK_clean_linker_0, # of connection points: 2
#     Edge 22, Type (0, 1), BuildingBlock: UVAHIK_clean_linker_0, # of connection points: 2
#     Edge 23, Type (0, 1), BuildingBlock: UVAHIK_clean_linker_0, # of connection points: 2
#     Edge 24, Type (0, 1), BuildingBlock: UVAHIK_clean_linker_0, # of connection points: 2
#     Edge 25, Type (0, 1), BuildingBlock: UVAHIK_clean_linker_0, # of connection points: 2
#     Edge 26, Type (0, 1), BuildingBlock: UVAHIK_clean_linker_0, # of connection points: 2
#     Edge 27, Type (0, 1), BuildingBlock: UVAHIK_clean_linker_0, # of connection points: 2
#     Edge 28, Type (0, 1), BuildingBlock: UVAHIK_clean_linker_0, # of connection points: 2
#     Edge 29, Type (0, 1), BuildingBlock: UVAHIK_clean_linker_0, # of connection points: 2
#     Edge 30, Type (0, 1), BuildingBlock: UVAHIK_clean_linker_0, # of connection points: 2
#     Edge 31, Type (0, 1), BuildingBlock: UVAHIK_clean_linker_0, # of connection points: 2
#     Edge 32, Type (0, 1), BuildingBlock: UVAHIK_clean_linker_0, # of connection points: 2
#     Edge 33, Type (0, 1), BuildingBlock: UVAHIK_clean_linker_0, # of connection points: 2
#     Edge 34, Type (0, 1), BuildingBlock: UVAHIK_clean_linker_0, # of connection points: 2
#     Edge 35, Type (0, 1), BuildingBlock: UVAHIK_clean_linker_0, # of connection points: 2
#     Edge 36, Type (0, 1), BuildingBlock: UVAHIK_clean_linker_0, # of connection points: 2
#     Edge 37, Type (0, 1), BuildingBlock: UVAHIK_clean_linker_0, # of connection points: 2
#     Edge 38, Type (0, 1), BuildingBlock: UVAHIK_clean_linker_0, # of connection points: 2
#     Edge 39, Type (0, 1), BuildingBlock: UVAHIK_clean_linker_0, # of connection points: 2
#     Edge 40, Type (0, 1), BuildingBlock: UVAHIK_clean_linker_0, # of connection points: 2
#     Edge 41, Type (0, 1), BuildingBlock: UVAHIK_clean_linker_0, # of connection points: 2
#     Edge 42, Type (0, 1), BuildingBlock: UVAHIK_clean_linker_0, # of connection points: 2
#     Edge 43, Type (0, 1), BuildingBlock: UVAHIK_clean_linker_0, # of connection points: 2
# Relax obj value: 0.137
# Max RMSD: 0.270
# Mean RMSD: 0.176
data_MOF--net-sqc--node1-VETTIZ_charged_sbu_0--node2-MIFKUJ_clean_linker_1--edge1-UVAHIK_clean_linker_0
_symmetry_space_group_name_H-M    P1
_symmetry_Int_Tables_number       1
_symmetry_cell_setting            triclinic
loop_
_symmetry_equiv_pos_as_xyz
'x, y, z'
_cell_length_a     35.021896
_cell_length_b     35.100677
_cell_length_c     100.97597
_cell_angle_alpha  89.986449
_cell_angle_beta   90.011803
_cell_angle_gamma 89.8119
loop_
_atom_site_label
_atom_site_type_symbol
_atom_site_fract_x
_atom_site_fract_y
_atom_site_fract_z
_atom_type_partial_charge
H0 H 0.9002 0.98679 0.50457 0.0
H1 H 0.83894 0.9735 0.49401 0.0
H2 H 0.86313 0.05845 0.46416 0.0
H3 H 0.92481 0.07088 0.47466 0.0
H4 H 0.98496 0.01832 0.47958 0.0
H5 H 0.94125 0.01844 0.53374 0.0
H6 H 0.88391 0.02665 0.54723 0.0
H7 H 0.83924 0.10663 0.51855 0.0
H8 H 0.89667 0.09811 0.50507 0.0
H9 H 0.0865 0.0902 0.49752 0.0
H10 H 0.14809 0.10459 0.50766 0.0
H11 H 0.11347 0.04489 0.54311 0.0
H12 H 0.05289 0.02886 0.53265 0.0
H13 H 0.99606 0.068 0.52538 0.0
H14 H 0.04388 0.05026 0.46948 0.0
H15 H 0.09487 0.02098 0.45643 0.0
H16 H 0.13098 0.957 0.49084 0.0
H17 H 0.07881 0.9847 0.50358 0.0
C18 C 0.91689 0.03002 0.49045 0.0
C19 C 0.89216 0.00269 0.4958 0.0
C20 C 0.85703 0.99528 0.48977 0.0
C21 C 0.84592 0.01504 0.47825 0.0
C22 C 0.8709 0.04238 0.47292 0.0
C23 C 0.9061 0.04965 0.47893 0.0
C24 C 0.95434 0.03775 0.49674 0.0
C25 C 0.98761 0.02998 0.48949 0.0
C26 C 0.95743 0.05072 0.50996 0.0
C27 C 0.92319 0.05745 0.51835 0.0
C28 C 0.91923 0.03796 0.53041 0.0
C29 C 0.88641 0.04271 0.53811 0.0
C30 C 0.85685 0.06719 0.53395 0.0
C31 C 0.86112 0.08706 0.52194 0.0
C32 C 0.89402 0.08235 0.51424 0.0
C33 C 0.06501 0.05807 0.51425 0.0
C34 C 0.09239 0.07967 0.5074 0.0
C35 C 0.12751 0.08831 0.51329 0.0
C36 C 0.13595 0.07591 0.52622 0.0
C37 C 0.10838 0.05439 0.53306 0.0
C38 C 0.07342 0.04555 0.52714 0.0
C39 C 0.0273 0.04937 0.50811 0.0
C40 C 0.99383 0.05683 0.5154 0.0
C41 C 0.02405 0.03454 0.49509 0.0
C42 C 0.05757 0.01999 0.48756 0.0
C43 C 0.06291 0.03004 0.47422 0.0
C44 C 0.09229 0.01346 0.46679 0.0
C45 C 0.11697 0.98642 0.47254 0.0
C46 C 0.11215 0.9772 0.486 0.0
C47 C 0.08263 0.99354 0.49339 0.0
H48 H 0.26946 0.80752 0.79853 0.0
H49 H 0.24852 0.86371 0.81082 0.0
H50 H 0.20864 0.91467 0.77433 0.0
H51 H 0.22702 0.85735 0.76235 0.0
H52 H 0.23284 0.75553 0.78473 0.0
H53 H 0.33083 0.84981 0.77323 0.0
H54 H 0.35199 0.91158 0.76447 0.0
H55 H 0.29508 0.88725 0.72747 0.0
H56 H 0.27371 0.82624 0.73628 0.0
H57 H 0.27954 0.71834 0.73084 0.0
H58 H 0.30025 0.66396 0.71748 0.0
H59 H 0.33607 0.60512 0.75291 0.0
H60 H 0.31713 0.66036 0.76626 0.0
H61 H 0.3151 0.76588 0.74496 0.0
H62 H 0.21959 0.67239 0.75477 0.0
H63 H 0.19647 0.6104 0.76217 0.0
H64 H 0.24046 0.63316 0.8014 0.0
H65 H 0.26565 0.69384 0.79368 0.0
C66 C 0.2505 0.82827 0.77945 0.0
C67 C 0.25591 0.83069 0.7932 0.0
C68 C 0.2443 0.86317 0.80021 0.0
C69 C 0.22709 0.8942 0.79362 0.0
C70 C 0.22135 0.89141 0.77984 0.0
C71 C 0.23245 0.85872 0.77289 0.0
C72 C 0.26354 0.79388 0.77199 0.0
C73 C 0.25128 0.75771 0.77614 0.0
C74 C 0.28678 0.79661 0.76056 0.0
C75 C 0.3005 0.83363 0.75541 0.0
C76 C 0.32287 0.85797 0.76325 0.0
C77 C 0.33506 0.89307 0.75824 0.0
C78 C 0.32486 0.90434 0.74535 0.0
C79 C 0.30282 0.87965 0.73752 0.0
C80 C 0.29088 0.84463 0.74249 0.0
C81 C 0.29628 0.69351 0.74963 0.0
C82 C 0.29212 0.69393 0.73577 0.0
C83 C 0.30389 0.66283 0.72813 0.0
C84 C 0.31959 0.63034 0.73418 0.0
C85 C 0.32366 0.6297 0.74802 0.0
C86 C 0.31265 0.6612 0.75566 0.0
C87 C 0.28423 0.72733 0.7576 0.0
C88 C 0.29681 0.76347 0.75358 0.0
C89 C 0.26081 0.72447 0.76903 0.0
C90 C 0.24501 0.68752 0.7736 0.0
C91 C 0.22468 0.66377 0.76492 0.0
C92 C 0.21107 0.62846 0.76922 0.0
C93 C 0.21682 0.61648 0.78238 0.0
C94 C 0.23628 0.6409 0.79112 0.0
C95 C 0.2503 0.67592 0.78677 0.0
H96 H 0.43371 0.01596 0.04243 0.0
H97 H 0.37256 0.99284 0.05066 0.0
H98 H 0.35027 0.94071 0.01263 0.0
H99 H 0.41258 0.96167 0.00482 0.0
H100 H 0.49584 0.98163 0.03466 0.0
H101 H 0.40586 0.06689 0.01326 0.0
H102 H 0.35132 0.08579 0.99959 0.0
H103 H 0.40059 0.026 0.96627 0.0
H104 H 0.45521 0.00777 0.97994 0.0
H105 H 0.57267 0.00575 0.9861 0.0
H106 H 0.63298 0.02852 0.97708 0.0
H107 H 0.6453 0.10444 0.01056 0.0
H108 H 0.58564 0.07989 0.01981 0.0
H109 H 0.50729 0.05126 0.9921 0.0
H110 H 0.59606 0.96638 0.0126 0.0
H111 H 0.6533 0.94945 0.02509 0.0
H112 H 0.60699 0.00582 0.05961 0.0
H113 H 0.55032 0.02398 0.04685 0.0
C114 C 0.42763 0.99108 0.02294 0.0
C115 C 0.41576 0.99931 0.0359 0.0
C116 C 0.38047 0.98644 0.04053 0.0
C117 C 0.3561 0.96516 0.03228 0.0
C118 C 0.36828 0.9567 0.01933 0.0
C119 C 0.40379 0.96915 0.01477 0.0
C120 C 0.46504 0.00517 0.01801 0.0
C121 C 0.49821 0.9974 0.02546 0.0
C122 C 0.46836 0.02495 0.00582 0.0
C123 C 0.43459 0.03573 0.99766 0.0
C124 C 0.40475 0.05763 0.00304 0.0
C125 C 0.3735 0.06832 0.9952 0.0
C126 C 0.37148 0.05748 0.98179 0.0
C127 C 0.4014 0.0354 0.97648 0.0
C128 C 0.43263 0.0248 0.9843 0.0
C129 C 0.57479 0.04117 0.00359 0.0
C130 C 0.58852 0.02718 0.9915 0.0
C131 C 0.62291 0.0405 0.98632 0.0
C132 C 0.64394 0.06877 0.99299 0.0
C133 C 0.63019 0.08242 0.00521 0.0
C134 C 0.59599 0.06861 0.01048 0.0
C135 C 0.53765 0.02776 0.00875 0.0
C136 C 0.50468 0.0357 1.00134 0.0
C137 C 0.53459 0.00811 0.02092 0.0
C138 C 0.56902 0.99697 0.02871 0.0
C139 C 0.59838 0.97551 0.02281 0.0
C140 C 0.63099 0.96546 0.03003 0.0
C141 C 0.63492 0.97629 0.04338 0.0
C142 C 0.60526 0.99747 0.0493 0.0
C143 C 0.57264 0.00758 0.04205 0.0
H144 H 0.19964 0.2179 0.30326 0.0
H145 H 0.22527 0.16259 0.31514 0.0
H146 H 0.29179 0.13215 0.28068 0.0
H147 H 0.26636 0.1873 0.26893 0.0
H148 H 0.23588 0.27715 0.29475 0.0
H149 H 0.15755 0.18526 0.2746 0.0
H150 H 0.13848 0.12656 0.26345 0.0
H151 H 0.20379 0.15973 0.22904 0.0
H152 H 0.22405 0.21748 0.24045 0.0
H153 H 0.24776 0.32869 0.24244 0.0
H154 H 0.24085 0.38464 0.22829 0.0
H155 H 0.15348 0.42861 0.25447 0.0
H156 H 0.16154 0.37288 0.26881 0.0
H157 H 0.18948 0.2766 0.24838 0.0
H158 H 0.2714 0.36763 0.27159 0.0
H159 H 0.28847 0.42381 0.28463 0.0
H160 H 0.20578 0.39181 0.31433 0.0
H161 H 0.1889 0.33576 0.30127 0.0
C162 C 0.23072 0.20656 0.28515 0.0
C163 C 0.21946 0.19907 0.29824 0.0
C164 C 0.23422 0.16757 0.30503 0.0
C165 C 0.26053 0.14301 0.29884 0.0
C166 C 0.27109 0.15013 0.28564 0.0
C167 C 0.25649 0.18167 0.2789 0.0
C168 C 0.21835 0.24201 0.27835 0.0
C169 C 0.22488 0.27701 0.28471 0.0
C170 C 0.20408 0.24174 0.26523 0.0
C171 C 0.19259 0.2058 0.25845 0.0
C172 C 0.16819 0.17967 0.26472 0.0
C173 C 0.15692 0.14625 0.25826 0.0
C174 C 0.16959 0.13826 0.24533 0.0
C175 C 0.19391 0.16457 0.23906 0.0
C176 C 0.20524 0.19789 0.24554 0.0
C177 C 0.20514 0.34667 0.25664 0.0
C178 C 0.22731 0.35056 0.24516 0.0
C179 C 0.22316 0.38249 0.23705 0.0
C180 C 0.19634 0.41104 0.24015 0.0
C181 C 0.17472 0.40743 0.25185 0.0
C182 C 0.17913 0.37552 0.26003 0.0
C183 C 0.20838 0.31145 0.26464 0.0
C184 C 0.19991 0.27655 0.2585 0.0
C185 C 0.21991 0.31183 0.27807 0.0
C186 C 0.22857 0.34759 0.28537 0.0
C187 C 0.25643 0.37309 0.28078 0.0
C188 C 0.26621 0.4052 0.28827 0.0
C189 C 0.24859 0.41228 0.30056 0.0
C190 C 0.22031 0.38697 0.30501 0.0
C191 C 0.21049 0.35499 0.29752 0.0
H192 H 0.79803 0.30235 0.24273 0.0
H193 H 0.81726 0.3606 0.23141 0.0
H194 H 0.87568 0.39802 0.26677 0.0
H195 H 0.85741 0.33891 0.27792 0.0
H196 H 0.83512 0.24547 0.25178 0.0
H197 H 0.74974 0.33222 0.2697 0.0
H198 H 0.7198 0.38668 0.28054 0.0
H199 H 0.77891 0.35883 0.31687 0.0
H200 H 0.81005 0.30509 0.30578 0.0
H201 H 0.82432 0.18596 0.30421 0.0
H202 H 0.80521 0.12998 0.31692 0.0
H203 H 0.7276 0.09804 0.28558 0.0
H204 H 0.74718 0.1541 0.27285 0.0
H205 H 0.77692 0.24432 0.29648 0.0
H206 H 0.85077 0.14396 0.27411 0.0
H207 H 0.86044 0.08739 0.2602 0.0
H208 H 0.79827 0.14172 0.22846 0.0
H209 H 0.78714 0.19733 0.24246 0.0
C210 C 0.82606 0.31616 0.26122 0.0
C211 C 0.8151 0.32298 0.24805 0.0
C212 C 0.82583 0.35656 0.24162 0.0
C213 C 0.84788 0.38419 0.24819 0.0
C214 C 0.85896 0.37727 0.26137 0.0
C215 C 0.84818 0.34362 0.26781 0.0
C216 C 0.81497 0.28002 0.26794 0.0
C217 C 0.82203 0.24524 0.26151 0.0
C218 C 0.79757 0.27961 0.28058 0.0
C219 C 0.78251 0.31477 0.28687 0.0
C220 C 0.75704 0.33835 0.2799 0.0
C221 C 0.7395 0.36919 0.28617 0.0
C222 C 0.74671 0.3769 0.2996 0.0
C223 C 0.773 0.35386 0.30648 0.0
C224 C 0.79064 0.32302 0.30018 0.0
C225 C 0.78744 0.17412 0.28753 0.0
C226 C 0.80337 0.16676 0.30004 0.0
C227 C 0.79225 0.13483 0.30732 0.0
C228 C 0.7647 0.10956 0.30232 0.0
C229 C 0.74921 0.11663 0.28967 0.0
C230 C 0.76036 0.14869 0.28238 0.0
C231 C 0.79759 0.20975 0.28041 0.0
C232 C 0.79037 0.24456 0.2868 0.0
C233 C 0.81262 0.21011 0.26738 0.0
C234 C 0.81796 0.17493 0.25939 0.0
C235 C 0.83851 0.14342 0.26427 0.0
C236 C 0.84417 0.1112 0.25632 0.0
C237 C 0.83019 0.11043 0.24328 0.0
C238 C 0.80957 0.1418 0.23845 0.0
C239 C 0.8033 0.17358 0.24644 0.0
H240 H 0.656 0.8228 0.75327 0.0
H241 H 0.63711 0.87739 0.73972 0.0
H242 H 0.75529 0.89538 0.72907 0.0
H243 H 0.7739 0.84153 0.74299 0.0
H244 H 0.69301 0.75638 0.74626 0.0
H245 H 0.71233 0.86016 0.77554 0.0
H246 H 0.73543 0.92265 0.78237 0.0
H247 H 0.85182 0.88351 0.77777 0.0
H248 H 0.82839 0.82129 0.77046 0.0
H249 H 0.82275 0.69909 0.77377 0.0
H250 H 0.84216 0.64124 0.78572 0.0
H251 H 0.72648 0.62669 0.79953 0.0
H252 H 0.70706 0.68414 0.78736 0.0
H253 H 0.78617 0.76821 0.78306 0.0
H254 H 0.76643 0.66496 0.75341 0.0
H255 H 0.7432 0.60502 0.74433 0.0
H256 H 0.62693 0.64451 0.74894 0.0
H257 H 0.65042 0.70389 0.75862 0.0
C258 C 0.71637 0.82822 0.74922 0.0
C259 C 0.67779 0.83857 0.74801 0.0
C260 C 0.66705 0.86973 0.74018 0.0
C261 C 0.69461 0.89099 0.73323 0.0
C262 C 0.73327 0.88028 0.73443 0.0
C263 C 0.744 0.84931 0.74235 0.0
C264 C 0.72772 0.79504 0.75753 0.0
C265 C 0.71281 0.75908 0.75447 0.0
C266 C 0.75433 0.79843 0.76802 0.0
C267 C 0.76863 0.83616 0.77237 0.0
C268 C 0.74283 0.86515 0.77586 0.0
C269 C 0.75608 0.90077 0.77987 0.0
C270 C 0.79548 0.90809 0.78061 0.0
C271 C 0.8213 0.87897 0.77713 0.0
C272 C 0.80798 0.84329 0.77309 0.0
C273 C 0.76347 0.69587 0.77966 0.0
C274 C 0.80164 0.68355 0.77943 0.0
C275 C 0.81262 0.65041 0.78618 0.0
C276 C 0.78578 0.62945 0.79351 0.0
C277 C 0.74777 0.64237 0.79399 0.0
C278 C 0.73666 0.6751 0.78704 0.0
C279 C 0.75132 0.72956 0.77178 0.0
C280 C 0.76612 0.76559 0.77492 0.0
C281 C 0.72445 0.7263 0.76137 0.0
C282 C 0.71016 0.6888 0.75682 0.0
C283 C 0.73592 0.66035 0.75281 0.0
C284 C 0.72259 0.62625 0.74746 0.0
C285 C 0.68321 0.62009 0.74583 0.0
C286 C 0.65741 0.64818 0.7502 0.0
C287 C 0.67079 0.68226 0.75562 0.0
H288 H 0.44267 0.41502 0.00552 0.0
H289 H 0.38165 0.39129 0.99729 0.0
H290 H 0.33848 0.50677 0.99563 0.0
H291 H 0.40026 0.53033 0.00305 0.0
H292 H 0.49281 0.45997 0.99341 0.0
H293 H 0.42403 0.46847 0.03619 0.0
H294 H 0.36747 0.48733 0.04906 0.0
H295 H 0.38002 0.60302 0.03529 0.0
H296 H 0.43714 0.58426 0.02273 0.0
H297 H 0.56206 0.58669 0.02206 0.0
H298 H 0.62396 0.60573 0.03101 0.0
H299 H 0.66014 0.48784 0.03126 0.0
H300 H 0.59762 0.46892 0.02293 0.0
H301 H 0.50761 0.54443 0.03244 0.0
H302 H 0.58832 0.53627 0.99455 0.0
H303 H 0.64321 0.51675 0.98133 0.0
H304 H 0.60456 0.39992 0.98298 0.0
H305 H 0.55153 0.4193 0.99704 0.0
C306 C 0.42598 0.47443 0.00504 0.0
C307 C 0.42002 0.43519 0.00338 0.0
C308 C 0.38493 0.42164 0.99881 0.0
C309 C 0.35503 0.44708 0.99581 0.0
C310 C 0.36096 0.48636 0.99768 0.0
C311 C 0.39617 0.49988 0.00212 0.0
C312 C 0.46384 0.4887 0.00935 0.0
C313 C 0.49629 0.47795 0.00206 0.0
C314 C 0.46796 0.51339 0.02032 0.0
C315 C 0.43473 0.525 0.02852 0.0
C316 C 0.41476 0.49794 0.03605 0.0
C317 C 0.38255 0.50872 0.04338 0.0
C318 C 0.36936 0.54657 0.0431 0.0
C319 C 0.38947 0.57361 0.03559 0.0
C320 C 0.42216 0.56301 0.0285 0.0
C321 C 0.57523 0.52641 0.02173 0.0
C322 C 0.58333 0.56497 0.02406 0.0
C323 C 0.61893 0.57584 0.02904 0.0
C324 C 0.64715 0.54834 0.03182 0.0
C325 C 0.63899 0.50975 0.02937 0.0
C326 C 0.60334 0.4989 0.02447 0.0
C327 C 0.53712 0.5148 0.01671 0.0
C328 C 0.50447 0.52633 0.02381 0.0
C329 C 0.53294 0.49082 0.0055 0.0
C330 C 0.56597 0.47924 0.99705 0.0
C331 C 0.59202 0.50634 0.99227 0.0
C332 C 0.6232 0.49514 0.9845 0.0
C333 C 0.62868 0.45662 0.98105 0.0
C334 C 0.602 0.4297 0.98562 0.0
C335 C 0.57121 0.44084 0.99356 0.0
H336 H 0.96347 0.47123 0.46889 0.0
H337 H 0.91216 0.50096 0.45612 0.0
H338 H 0.87481 0.56108 0.49119 0.0
H339 H 0.9273 0.53288 0.50369 0.0
H340 H 0.02175 0.50298 0.4794 0.0
H341 H 0.92088 0.42885 0.49599 0.0
H342 H 0.85928 0.41261 0.50563 0.0
H343 H 0.89337 0.46543 0.54245 0.0
H344 H 0.95387 0.48384 0.53243 0.0
H345 H 0.0671 0.49584 0.53341 0.0
H346 H 0.12502 0.48536 0.54646 0.0
H347 H 0.16812 0.40986 0.5161 0.0
H348 H 0.10954 0.41944 0.50334 0.0
H349 H 0.01122 0.44747 0.52442 0.0
H350 H 0.1071 0.53135 0.50452 0.0
H351 H 0.16829 0.54526 0.49399 0.0
H352 H 0.14312 0.46315 0.4633 0.0
H353 H 0.08151 0.45024 0.47374 0.0
C354 C 0.94921 0.49957 0.48729 0.0
C355 C 0.94412 0.49072 0.47383 0.0
C356 C 0.91455 0.50753 0.46656 0.0
C357 C 0.88939 0.5336 0.47259 0.0
C358 C 0.89398 0.54163 0.48616 0.0
C359 C 0.92371 0.52504 0.49339 0.0
C360 C 0.98285 0.48466 0.49468 0.0
C361 C 0.01922 0.49013 0.48914 0.0
C362 C 0.97972 0.46816 0.50746 0.0
C363 C 0.94206 0.45808 0.51339 0.0
C364 C 0.91487 0.43758 0.50606 0.0
C365 C 0.87973 0.42779 0.51168 0.0
C366 C 0.87109 0.43762 0.52486 0.0
C367 C 0.89853 0.45791 0.53221 0.0
C368 C 0.93348 0.46809 0.52653 0.0
C369 C 0.08407 0.45866 0.51736 0.0
C370 C 0.08888 0.47674 0.52964 0.0
C371 C 0.12223 0.47107 0.53701 0.0
C372 C 0.15142 0.44702 0.53228 0.0
C373 C 0.14616 0.42837 0.52008 0.0
C374 C 0.11277 0.43401 0.51273 0.0
C375 C 0.04963 0.46679 0.50922 0.0
C376 C 0.01329 0.45998 0.51462 0.0
C377 C 0.05254 0.48144 0.49622 0.0
C378 C 0.08991 0.48962 0.48995 0.0
C379 C 0.11491 0.51626 0.49555 0.0
C380 C 0.14999 0.524 0.48955 0.0
C381 C 0.16083 0.50521 0.4778 0.0
C382 C 0.13559 0.47852 0.47223 0.0
C383 C 0.10041 0.47097 0.47821 0.0
Fe384 Fe 1.00257 0.76078 0.15294 0.0
O385 O 0.03069 0.7851 0.138 0.0
Fe386 Fe 0.91704 0.73321 0.13889 0.0
Fe387 Fe 0.08679 0.7864 0.13741 0.0
O388 O 0.973 0.73522 0.13863 0.0
O389 O 0.9729 0.7352 0.1373 0.0
O390 O 0.03065 0.78496 0.13667 0.0
Fe391 Fe 1.00075 0.75967 0.12221 0.0
C392 C 0.0615 0.8198 0.16373 0.0
O393 O 0.03938 0.71578 0.15309 0.0
O394 O 0.09473 0.74616 0.15232 0.0
O395 O 0.965 0.72926 0.10918 0.0
O396 O 0.92385 0.69652 0.12304 0.0
O397 O 0.9274 0.69566 0.15407 0.0
O398 O 0.96996 0.72962 0.16691 0.0
O399 O 0.09414 0.74389 0.12368 0.0
O400 O 0.03821 0.71404 0.12136 0.0
C401 C 0.94561 0.70196 0.16505 0.0
O402 O 0.96295 0.80523 0.12164 0.0
O403 O 0.90773 0.77488 0.12498 0.0
O404 O 0.03684 0.79279 0.16614 0.0
O405 O 0.07873 0.82495 0.15248 0.0
C406 C 0.07486 0.71716 0.15543 0.0
C407 C 0.0744 0.7154 0.12006 0.0
C408 C 0.06119 0.81501 0.1102 0.0
O409 O 0.07839 0.82223 0.12136 0.0
O410 O 0.03499 0.78908 0.10846 0.0
C411 C 0.9397 0.70291 0.1116 0.0
O412 O 0.91078 0.77394 0.15367 0.0
O413 O 0.96542 0.80577 0.15314 0.0
C414 C 0.92659 0.80354 0.12094 0.0
C415 C 0.93034 0.80366 0.1561 0.0
Fe416 Fe 0.50318 0.76078 0.41992 0.0
O417 O 0.49628 0.7576 0.40087 0.0
Fe418 Fe 0.50213 0.80807 0.38868 0.0
Fe419 Fe 0.50501 0.71357 0.38868 0.0
O420 O 0.51054 0.764 0.4009 0.0
O421 O 0.49658 0.76341 0.37657 0.0
O422 O 0.51088 0.75826 0.37659 0.0
Fe423 Fe 0.50401 0.76085 0.35755 0.0
C424 C 0.57374 0.71786 0.40892 0.0
O425 O 0.47605 0.70853 0.42023 0.0
O426 O 0.49043 0.67236 0.4023 0.0
O427 O 0.4704 0.80977 0.35733 0.0
O428 O 0.48553 0.84752 0.37478 0.0
O429 O 0.44629 0.80842 0.39681 0.0
O430 O 0.45163 0.78914 0.41854 0.0
O431 O 0.44969 0.70943 0.38034 0.0
O432 O 0.45657 0.7262 0.35851 0.0
C433 C 0.4329 0.80374 0.4087 0.0
O434 O 0.55143 0.79549 0.35868 0.0
O435 O 0.55767 0.81222 0.38053 0.0
O436 O 0.55475 0.73241 0.41869 0.0
O437 O 0.56064 0.71323 0.39698 0.0
C438 C 0.47587 0.67693 0.41385 0.0
C439 C 0.43815 0.71021 0.3681 0.0
C440 C 0.53834 0.67988 0.36364 0.0
O441 O 0.52193 0.67416 0.37483 0.0
O442 O 0.53763 0.71191 0.35744 0.0
C443 C 0.46942 0.84178 0.36354 0.0
O444 O 0.51639 0.84926 0.40236 0.0
O445 O 0.53032 0.81301 0.42031 0.0
C446 C 0.56957 0.81145 0.36834 0.0
C447 C 0.53071 0.84463 0.41395 0.0
Fe448 Fe 0.50494 0.26145 0.64993 0.0
O449 O 0.53591 0.28215 0.63505 0.0
Fe450 Fe 0.41723 0.24332 0.63568 0.0
Fe451 Fe 0.59174 0.27787 0.63481 0.0
O452 O 0.47307 0.23898 0.63559 0.0
O453 O 0.47307 0.23886 0.63426 0.0
O454 O 0.53584 0.28211 0.63372 0.0
Fe455 Fe 0.50398 0.25971 0.61921 0.0
C456 C 0.56853 0.31434 0.66083 0.0
O457 O 0.53674 0.21243 0.65046 0.0
O458 O 0.59479 0.23746 0.64988 0.0
O459 O 0.46526 0.23296 0.60615 0.0
O460 O 0.42022 0.20548 0.61997 0.0
O461 O 0.42284 0.20556 0.65112 0.0
O462 O 0.46883 0.23515 0.66384 0.0
O463 O 0.59503 0.23457 0.62125 0.0
O464 O 0.53644 0.21043 0.61869 0.0
C465 C 0.44158 0.21043 0.66209 0.0
O466 O 0.47152 0.30895 0.61832 0.0
O467 O 0.41315 0.28503 0.62154 0.0
O468 O 0.54187 0.28937 0.66318 0.0
O469 O 0.58679 0.31754 0.64969 0.0
C470 C 0.5722 0.21041 0.65291 0.0
C471 C 0.57264 0.20815 0.61755 0.0
C472 C 0.57058 0.30817 0.60736 0.0
O473 O 0.58783 0.31389 0.61861 0.0
O474 O 0.54186 0.28503 0.60552 0.0
C475 C 0.43683 0.20991 0.60854 0.0
O476 O 0.41513 0.28521 0.65025 0.0
O477 O 0.47308 0.31055 0.64998 0.0
C478 C 0.43527 0.31108 0.61736 0.0
C479 C 0.43785 0.31251 0.65282 0.0
Fe480 Fe 1.00214 0.25859 0.90082 0.0
O481 O 0.98042 0.22874 0.88581 0.0
Fe482 Fe 0.0211 0.34668 0.88666 0.0
Fe483 Fe 0.98393 0.173 0.88493 0.0
O484 O 0.02438 0.29089 0.88653 0.0
O485 O 0.02457 0.29093 0.88522 0.0
O486 O 0.98032 0.22891 0.88448 0.0
Fe487 Fe 1.00313 0.26087 0.87011 0.0
C488 C 0.05297 0.19068 0.90283 0.0
O489 O 0.97458 0.22106 0.91399 0.0
O490 O 0.94566 0.17719 0.90032 0.0
O491 O 0.95436 0.29435 0.86932 0.0
O492 O 0.97986 0.35199 0.87236 0.0
O493 O 0.97823 0.3492 0.9009 0.0
O494 O 0.95347 0.29088 0.90142 0.0
O495 O 0.94649 0.17905 0.86923 0.0
O496 O 0.97662 0.22448 0.85631 0.0
C497 C 0.95123 0.32634 0.90378 0.0
O498 O 0.03067 0.29899 0.85721 0.0
O499 O 0.05938 0.34308 0.87106 0.0
O500 O 0.05086 0.22634 0.90091 0.0
O501 O 0.02606 0.1683 0.89942 0.0
C502 C 0.94959 0.19444 0.91161 0.0
C503 C 0.95209 0.19698 0.85811 0.0
C504 C 0.05282 0.19168 0.86743 0.0
O505 O 0.02547 0.16989 0.87064 0.0
O506 O 0.05207 0.22749 0.86949 0.0
C507 C 0.9531 0.33056 0.86832 0.0
O508 O 0.05856 0.34021 0.90224 0.0
O509 O 0.02915 0.29383 0.91479 0.0
C510 C 0.05464 0.32657 0.85962 0.0
C511 C 0.05379 0.32121 0.91316 0.0
C512 C 0.16755 0.9866 0.45473 0.0
C513 C 0.14677 0.96684 0.46448 0.0
C514 C 0.19576 0.96797 0.44731 0.0
C515 C 0.26117 0.88656 0.44919 0.0
H516 H 0.27121 0.89821 0.41115 0.0
C517 C 0.37207 0.79873 0.42129 0.0
C518 C 0.39405 0.81767 0.41173 0.0
C519 C 0.33866 0.81521 0.42619 0.0
C520 C 0.26901 0.89492 0.42179 0.0
H521 H 0.13847 0.91148 0.47361 0.0
H522 H 0.18805 0.87942 0.4609 0.0
H523 H 0.21986 0.93154 0.42291 0.0
H524 H 0.39731 0.86769 0.39923 0.0
H525 H 0.33928 0.89723 0.40806 0.0
H526 H 0.31055 0.851 0.4483 0.0
C527 C 0.18282 0.90942 0.45912 0.0
C528 C 0.23959 0.91399 0.4285 0.0
C529 C 0.15452 0.9279 0.46645 0.0
C530 C 0.38073 0.8524 0.40655 0.0
C531 C 0.34748 0.86929 0.41163 0.0
C532 C 0.29063 0.86784 0.44253 0.0
C533 C 0.20395 0.92928 0.44954 0.0
C534 C 0.23526 0.90976 0.44227 0.0
C535 C 0.32678 0.85145 0.42185 0.0
C536 C 0.29482 0.87145 0.42873 0.0
H537 H 0.1626 0.01667 0.45302 0.0
H538 H 0.21184 0.98408 0.44007 0.0
H539 H 0.25905 0.88334 0.45984 0.0
H540 H 0.38144 0.77166 0.42533 0.0
H541 H 0.32281 0.80002 0.43372 0.0
C542 C 0.37532 0.9536 0.74101 0.0
C543 C 0.33725 0.94144 0.73983 0.0
C544 C 0.38772 0.98632 0.73436 0.0
C545 C 0.36376 0.04044 0.70463 0.0
H546 H 0.4306 0.11889 0.71843 0.0
C547 C 0.39264 0.17326 0.67426 0.0
C548 C 0.43053 0.18582 0.67328 0.0
C549 C 0.38235 0.14652 0.68378 0.0
C550 C 0.41222 0.09697 0.71443 0.0
H551 H 0.28168 0.95553 0.7317 0.0
H552 H 0.30323 0.01241 0.72013 0.0
H553 H 0.41042 0.0663 0.73285 0.0
H554 H 0.48714 0.18158 0.68184 0.0
H555 H 0.46922 0.13375 0.69843 0.0
H556 H 0.36575 0.07015 0.68624 0.0
C557 C 0.32371 0.99629 0.72592 0.0
C558 C 0.40066 0.06698 0.72267 0.0
C559 C 0.31138 0.96374 0.73254 0.0
C560 C 0.45768 0.17241 0.68243 0.0
C561 C 0.44741 0.14511 0.69192 0.0
C562 C 0.37537 0.07008 0.69644 0.0
C563 C 0.36221 0.0073 0.72643 0.0
C564 C 0.37582 0.03877 0.71787 0.0
C565 C 0.4098 0.13116 0.69243 0.0
C566 C 0.39921 0.09906 0.70127 0.0
H567 H 0.39589 0.93687 0.74655 0.0
H568 H 0.41758 0.99412 0.73489 0.0
H569 H 0.34548 0.01856 0.70054 0.0
H570 H 0.37097 0.18363 0.66749 0.0
H571 H 0.35291 0.1372 0.68415 0.0
C572 C 0.34467 0.0807 0.96008 0.0
C573 C 0.3387 0.06963 0.97331 0.0
C574 C 0.3141 0.09239 0.95212 0.0
C575 C 0.2083 0.08894 0.94943 0.0
H576 H 0.22322 0.17374 0.9254 0.0
C577 C 0.09204 0.13599 0.91181 0.0
C578 C 0.08671 0.17541 0.91007 0.0
C579 C 0.12315 0.12206 0.91911 0.0
C580 C 0.21843 0.15016 0.93211 0.0
H581 H 0.29548 0.0618 0.98844 0.0
H582 H 0.24232 0.0831 0.97467 0.0
H583 H 0.27593 0.15208 0.9392 0.0
H584 H 0.11021 0.23106 0.91469 0.0
H585 H 0.16377 0.20688 0.92747 0.0
H586 H 0.15041 0.08781 0.94259 0.0
C587 C 0.27065 0.08226 0.97039 0.0
C588 C 0.24886 0.13741 0.93993 0.0
C589 C 0.30126 0.0705 0.97835 0.0
C590 C 0.11345 0.20049 0.91571 0.0
C591 C 0.14439 0.18659 0.92302 0.0
C592 C 0.1778 0.10175 0.94161 0.0
C593 C 0.27668 0.09347 0.95717 0.0
C594 C 0.24422 0.10669 0.94873 0.0
C595 C 0.14965 0.1472 0.92486 0.0
C596 C 0.18241 0.13266 0.93289 0.0
H597 H 0.37312 0.08086 0.95588 0.0
H598 H 0.31983 0.10036 0.94195 0.0
H599 H 0.20374 0.06493 0.95597 0.0
H600 H 0.07211 0.11585 0.90758 0.0
H601 H 0.12656 0.09154 0.92016 0.0
C602 C 0.18304 0.08294 0.23014 0.0
C603 C 0.15732 0.1029 0.23831 0.0
C604 C 0.17127 0.05081 0.22308 0.0
C605 C 0.09746 0.9758 0.2212 0.0
H606 H 0.13082 0.96943 0.18467 0.0
C607 C 0.04438 0.86019 0.18356 0.0
C608 C 0.07157 0.84701 0.17439 0.0
C609 C 0.05347 0.89 0.19231 0.0
C610 C 0.12161 0.97039 0.1949 0.0
H611 H 0.09899 0.10403 0.24555 0.0
H612 H 0.07859 0.04764 0.23329 0.0
H613 H 0.14941 0.02374 0.19805 0.0
H614 H 0.1302 0.85271 0.16782 0.0
H615 H 0.14625 0.90333 0.18317 0.0
H616 H 0.06978 0.92206 0.21797 0.0
C617 C 0.10797 0.05687 0.23244 0.0
C618 C 0.13227 1.00165 0.20258 0.0
C619 C 0.11971 0.0892 0.23948 0.0
C620 C 0.10842 0.86266 0.17462 0.0
C621 C 0.11755 0.89193 0.18338 0.0
C622 C 0.08686 0.94425 0.21349 0.0
C623 C 0.13349 0.0376 0.22401 0.0
C624 C 0.12076 0.00459 0.21586 0.0
C625 C 0.08995 0.90686 0.19206 0.0
C626 C 0.09929 0.94093 0.20028 0.0
H627 H 0.21242 0.09208 0.22922 0.0
H628 H 0.19188 0.0362 0.21689 0.0
H629 H 0.0882 0.97717 0.23142 0.0
H630 H 0.01567 0.84879 0.18355 0.0
H631 H 0.03149 0.90083 0.19886 0.0
C632 C 0.18948 0.12207 0.53081 0.0
C633 C 0.17287 0.08599 0.53272 0.0
C634 C 0.223 0.13219 0.53749 0.0
C635 C 0.27525 0.11065 0.56794 0.0
H636 H 0.35888 0.16538 0.55157 0.0
C637 C 0.40423 0.15301 0.59921 0.0
C638 C 0.41865 0.18987 0.59735 0.0
C639 C 0.37965 0.13684 0.5899 0.0
C640 C 0.33566 0.15039 0.55633 0.0
H641 H 0.17989 0.03169 0.54273 0.0
H642 H 0.23775 0.0497 0.55457 0.0
H643 H 0.30483 0.14456 0.53806 0.0
H644 H 0.42023 0.23812 0.58401 0.0
H645 H 0.37625 0.21052 0.56789 0.0
H646 H 0.30468 0.11758 0.58626 0.0
C647 C 0.22456 0.07025 0.54798 0.0
C648 C 0.30474 0.1384 0.54857 0.0
C649 C 0.19126 0.06001 0.54123 0.0
C650 C 0.40985 0.20943 0.5856 0.0
C651 C 0.38456 0.19355 0.57637 0.0
C652 C 0.30581 0.12295 0.57571 0.0
C653 C 0.24056 0.1066 0.54631 0.0
C654 C 0.27418 0.11842 0.55431 0.0
C655 C 0.36804 0.15755 0.57864 0.0
C656 C 0.33652 0.14301 0.57004 0.0
H657 H 0.17595 0.14304 0.52448 0.0
H658 H 0.2344 0.16056 0.5361 0.0
H659 H 0.25183 0.09597 0.57272 0.0
H660 H 0.41078 0.13724 0.60816 0.0
H661 H 0.36863 0.10859 0.5918 0.0
C662 C 0.23608 0.94233 0.81202 0.0
C663 C 0.21499 0.92914 0.80105 0.0
C664 C 0.22448 0.97484 0.81901 0.0
C665 C 0.16746 0.06277 0.81596 0.0
H666 H 0.15812 0.05704 0.85416 0.0
C667 C 0.07409 0.16724 0.84573 0.0
C668 C 0.08266 0.17475 0.85903 0.0
C669 C 0.09666 0.14211 0.83836 0.0
C670 C 0.16134 0.05965 0.84353 0.0
H671 H 0.1646 0.94021 0.78908 0.0
H672 H 0.14525 0.99731 0.80103 0.0
H673 H 0.1848 0.00331 0.84196 0.0
H674 H 0.12181 0.16294 0.87507 0.0
H675 H 0.16259 0.1201 0.86206 0.0
H676 H 0.14419 0.11903 0.81745 0.0
C677 C 0.17091 0.98248 0.80414 0.0
C678 C 0.17647 0.02863 0.83653 0.0
C679 C 0.18216 0.94971 0.79725 0.0
C680 C 0.11525 0.15818 0.86472 0.0
C681 C 0.13811 0.13315 0.85731 0.0
C682 C 0.1528 0.09398 0.82296 0.0
C683 C 0.19183 0.99535 0.81512 0.0
C684 C 0.17893 0.02953 0.82265 0.0
C685 C 0.12838 0.12375 0.84414 0.0
C686 C 0.14868 0.09258 0.83684 0.0
H687 H 0.2619 0.92785 0.81513 0.0
H688 H 0.24136 0.98424 0.82738 0.0
H689 H 0.16959 0.06454 0.80528 0.0
H690 H 0.04843 0.17893 0.84128 0.0
H691 H 0.08765 0.13531 0.82839 0.0
C692 C 0.30428 0.91557 0.03352 0.0
C693 C 0.31845 0.95147 0.03726 0.0
C694 C 0.26968 0.90218 0.0386 0.0
C695 C 0.18261 0.93268 0.0574 0.0
H696 H 0.18023 0.82631 0.06769 0.0
C697 C 0.09205 0.87158 0.09984 0.0
C698 C 0.07638 0.835 0.09847 0.0
C699 C 0.1139 0.88745 0.0897 0.0
C700 C 0.18007 0.8559 0.06464 0.0
H701 H 0.30619 1.00196 0.04893 0.0
H702 H 0.24716 0.97792 0.05828 0.0
H703 H 0.23445 0.85043 0.05528 0.0
H704 H 0.06941 0.78722 0.0851 0.0
H705 H 0.10823 0.81484 0.06737 0.0
H706 H 0.12906 0.9383 0.06753 0.0
C707 C 0.2623 0.96032 0.0512 0.0
C708 C 0.21121 0.86982 0.0575 0.0
C709 C 0.29665 0.97389 0.04601 0.0
C710 C 0.08091 0.81559 0.0864 0.0
C711 C 0.10336 0.83123 0.0763 0.0
C712 C 0.15167 0.91882 0.06469 0.0
C713 C 0.24848 0.92412 0.04767 0.0
C714 C 0.21333 0.90859 0.05401 0.0
C715 C 0.12103 0.86681 0.07804 0.0
C716 C 0.15046 0.88044 0.0686 0.0
H717 H 0.32033 0.89728 0.02691 0.0
H718 H 0.25976 0.87441 0.03548 0.0
H719 H 0.18275 0.96249 0.05463 0.0
H720 H 0.08894 0.88719 0.10904 0.0
H721 H 0.12732 0.9148 0.09136 0.0
C722 C 0.29173 0.11668 0.31928 0.0
C723 C 0.27854 0.11118 0.30627 0.0
C724 C 0.31135 0.08765 0.32591 0.0
C725 C 0.36819 1.00125 0.31923 0.0
H726 H 0.35231 0.98022 0.35653 0.0
C727 C 0.43211 0.86915 0.3446 0.0
C728 C 0.44791 0.87357 0.35732 0.0
C729 C 0.41153 0.89869 0.3387 0.0
C730 C 0.35737 0.98608 0.34615 0.0
H731 H 0.27414 0.07038 0.29023 0.0
H732 H 0.30816 0.01963 0.30181 0.0
H733 H 0.31492 0.03015 0.34568 0.0
H734 H 0.45416 0.91277 0.3738 0.0
H735 H 0.41832 0.96453 0.3634 0.0
H736 H 0.41052 0.95724 0.31966 0.0
C737 C 0.30404 0.04666 0.30679 0.0
C738 C 0.33593 0.01462 0.33993 0.0
C739 C 0.28448 0.07568 0.30017 0.0
C740 C 0.44249 0.90836 0.36399 0.0
C741 C 0.42174 0.93795 0.35807 0.0
C742 C 0.38955 0.97276 0.32543 0.0
C743 C 0.31819 0.05249 0.31967 0.0
C744 C 0.34095 0.02236 0.32638 0.0
C745 C 0.40613 0.93343 0.34534 0.0
C746 C 0.38423 0.96467 0.33894 0.0
H747 H 0.28805 0.14388 0.32418 0.0
H748 H 0.32223 0.09319 0.33576 0.0
H749 H 0.37335 0.00704 0.30885 0.0
H750 H 0.43554 0.84278 0.33915 0.0
H751 H 0.3994 0.8941 0.32896 0.0
C752 C 0.7856 0.07471 0.53632 0.0
C753 C 0.82195 0.07226 0.5422 0.0
C754 C 0.75295 0.08014 0.5441 0.0
C755 C 0.7176 0.07424 0.57882 0.0
H756 H 0.6449 0.15099 0.56737 0.0
C757 C 0.62634 0.16294 0.61431 0.0
C758 C 0.59026 0.17615 0.61031 0.0
C759 C 0.64831 0.14021 0.60591 0.0
C760 C 0.66435 0.12881 0.5706 0.0
H761 H 0.85236 0.07383 0.5609 0.0
H762 H 0.79567 0.08344 0.57443 0.0
H763 H 0.69637 0.13171 0.55258 0.0
H764 H 0.54766 0.17404 0.59479 0.0
H765 H 0.5863 0.13412 0.57996 0.0
H766 H 0.68642 0.07257 0.59706 0.0
C767 C 0.79221 0.0804 0.56383 0.0
C768 C 0.69399 0.11782 0.56212 0.0
C769 C 0.82479 0.07498 0.55606 0.0
C770 C 0.57528 0.1639 0.59815 0.0
C771 C 0.59756 0.14145 0.58962 0.0
C772 C 0.68801 0.08528 0.5873 0.0
C773 C 0.75587 0.08323 0.55796 0.0
C774 C 0.72162 0.0912 0.56627 0.0
C775 C 0.63487 0.13052 0.59323 0.0
C776 C 0.66167 0.11349 0.58344 0.0
H777 H 0.78232 0.07214 0.52569 0.0
H778 H 0.72539 0.08178 0.53927 0.0
H779 H 0.73789 0.05304 0.58222 0.0
H780 H 0.63852 0.17209 0.62364 0.0
H781 H 0.67696 0.13261 0.60899 0.0
C782 C 0.74504 0.08115 0.32414 0.0
C783 C 0.75137 0.07676 0.31047 0.0
C784 C 0.73182 0.05073 0.33181 0.0
C785 C 0.7216 0.94548 0.33212 0.0
H786 H 0.64065 0.96606 0.35733 0.0
C787 C 0.6198 0.8303 0.35198 0.0
C788 C 0.60349 0.83447 0.36464 0.0
C789 C 0.64499 0.85756 0.34701 0.0
C790 C 0.66381 0.95981 0.35056 0.0
H791 H 0.74928 0.03652 0.2942 0.0
H792 H 0.72557 0.98359 0.30752 0.0
H793 H 0.66943 0.01849 0.34519 0.0
H794 H 0.60386 0.86889 0.38243 0.0
H795 H 0.6483 0.91634 0.37384 0.0
H796 H 0.71535 0.88663 0.3373 0.0
C797 C 0.73125 0.01053 0.31235 0.0
C798 C 0.68026 0.98995 0.34354 0.0
C799 C 0.74441 0.04101 0.30467 0.0
C800 C 0.61565 0.86488 0.37264 0.0
C801 C 0.64083 0.89232 0.36764 0.0
C802 C 0.70518 0.91531 0.33916 0.0
C803 C 0.72457 0.01507 0.32601 0.0
C804 C 0.70894 0.98313 0.33408 0.0
C805 C 0.65463 0.88975 0.35457 0.0
C806 C 0.67562 0.92201 0.34831 0.0
H807 H 0.74966 0.10836 0.32892 0.0
H808 H 0.72731 0.05518 0.3423 0.0
H809 H 0.7441 0.93927 0.32508 0.0
H810 H 0.6114 0.80708 0.34555 0.0
H811 H 0.65487 0.85458 0.3369 0.0
C812 C 0.68617 0.92883 0.04946 0.0
C813 C 0.66957 0.96508 0.05111 0.0
C814 C 0.71836 0.91804 0.05678 0.0
C815 C 0.76978 0.93962 0.08777 0.0
H816 H 0.84825 0.87554 0.07221 0.0
C817 C 0.86676 0.84124 0.11844 0.0
C818 C 0.90447 0.83418 0.11435 0.0
C819 C 0.84263 0.86458 0.11099 0.0
C820 C 0.82697 0.89394 0.07668 0.0
H821 H 0.67465 0.01869 0.06163 0.0
H822 H 0.73066 0.99976 0.07447 0.0
H823 H 0.79756 0.9015 0.05825 0.0
H824 H 0.9471 0.84754 0.09955 0.0
H825 H 0.90465 0.88859 0.08638 0.0
H826 H 0.79891 0.93165 0.10623 0.0
C827 C 0.71846 0.97951 0.06759 0.0
C828 C 0.79758 0.90841 0.06871 0.0
C829 C 0.68625 0.99034 0.06024 0.0
C830 C 0.91824 0.85268 0.10298 0.0
C831 C 0.89381 0.87582 0.09538 0.0
C832 C 0.7991 0.92507 0.09575 0.0
C833 C 0.73488 0.94316 0.06599 0.0
C834 C 0.76814 0.93078 0.0742 0.0
C835 C 0.85542 0.88129 0.09915 0.0
C836 C 0.82761 0.90135 0.09037 0.0
H837 H 0.67379 0.90835 0.0427 0.0
H838 H 0.72972 0.88956 0.05546 0.0
H839 H 0.74756 0.95657 0.09237 0.0
H840 H 0.85538 0.82744 0.12719 0.0
H841 H 0.81324 0.86779 0.11415 0.0
C842 C 0.79166 0.96346 0.79623 0.0
C843 C 0.80947 0.94556 0.78542 0.0
C844 C 0.80531 0.99805 0.80108 0.0
C845 C 0.89264 0.05525 0.80283 0.0
H846 H 0.8235 0.13052 0.81765 0.0
C847 C 0.94859 0.18072 0.83397 0.0
C848 C 0.93127 0.18202 0.84652 0.0
C849 C 0.93192 0.1597 0.82371 0.0
C850 C 0.84317 0.10988 0.81348 0.0
H851 H 0.85505 0.95055 0.77099 0.0
H852 H 0.87907 0.01108 0.77953 0.0
H853 H 0.79795 0.07756 0.80478 0.0
H854 H 0.88165 0.16504 0.85788 0.0
H855 H 0.85246 0.12895 0.84003 0.0
H856 H 0.93773 0.08688 0.81193 0.0
C857 C 0.85471 0.99807 0.78432 0.0
C858 C 0.82856 0.07947 0.80616 0.0
C859 C 0.84102 0.96337 0.77945 0.0
C860 C 0.89573 0.16436 0.84833 0.0
C861 C 0.87888 0.14388 0.83806 0.0
C862 C 0.90727 0.08576 0.81012 0.0
C863 C 0.83714 0.01569 0.79525 0.0
C864 C 0.85302 0.05108 0.80115 0.0
C865 C 0.89738 0.14022 0.82578 0.0
C866 C 0.88257 0.11268 0.81589 0.0
H867 H 0.76774 0.95022 0.80121 0.0
H868 H 0.7916 0.01036 0.8097 0.0
H869 H 0.91227 0.03377 0.7992 0.0
H870 H 0.97609 0.19394 0.83232 0.0
H871 H 0.94666 0.15756 0.8143 0.0
C872 C 0.80596 0.00517 0.45779 0.0
C873 C 0.80881 0.00646 0.47169 0.0
C874 C 0.77164 0.995 0.45166 0.0
C875 C 0.68641 0.93839 0.45789 0.0
H876 H 0.64549 0.98783 0.42657 0.0
C877 C 0.55171 0.8796 0.43406 0.0
C878 C 0.55199 0.87608 0.42021 0.0
C879 C 0.57816 0.9028 0.44046 0.0
C880 C 0.65666 0.97353 0.43526 0.0
H881 H 0.77703 0.99986 0.48999 0.0
H882 H 0.71749 0.98136 0.47929 0.0
H883 H 0.70206 0.01403 0.43747 0.0
H884 H 0.57812 0.89628 0.40214 0.0
H885 H 0.62568 0.93567 0.41329 0.0
H886 H 0.64263 0.89699 0.4555 0.0
C887 C 0.74197 0.98791 0.47316 0.0
C888 C 0.68901 0.98861 0.44151 0.0
C889 C 0.77616 0.99834 0.47928 0.0
C890 C 0.57738 0.89846 0.41282 0.0
C891 C 0.60457 0.92111 0.41925 0.0
C892 C 0.65448 0.92313 0.4516 0.0
C893 C 0.73948 0.98562 0.45929 0.0
C894 C 0.70424 0.97109 0.45288 0.0
C895 C 0.60627 0.9223 0.43319 0.0
C896 C 0.6391 0.9404 0.44018 0.0
H897 H 0.83059 0.01078 0.45161 0.0
H898 H 0.7707 0.99305 0.44096 0.0
H899 H 0.6979 0.92379 0.46647 0.0
H900 H 0.53204 0.86302 0.43999 0.0
H901 H 0.5776 0.90408 0.45117 0.0
C902 C 0.82844 0.04052 0.23823 0.0
C903 C 0.83809 0.07773 0.23446 0.0
C904 C 0.83453 0.01004 0.22954 0.0
C905 C 0.85479 0.98941 0.19386 0.0
H906 H 0.88529 0.89052 0.20742 0.0
C907 C 0.92887 0.87193 0.16301 0.0
C908 C 0.91337 0.83512 0.16385 0.0
C909 C 0.91533 0.90108 0.17117 0.0
C910 C 0.87638 0.91792 0.20353 0.0
H911 H 0.86277 0.11235 0.21895 0.0
H912 H 0.87511 0.05931 0.20404 0.0
H913 H 0.87153 0.94222 0.22286 0.0
H914 H 0.8713 0.80004 0.17377 0.0
H915 H 0.84827 0.85109 0.18833 0.0
H916 H 0.8617 0.96526 0.1745 0.0
C917 C 0.86139 0.05347 0.21342 0.0
C918 C 0.86833 0.94756 0.21236 0.0
C919 C 0.85466 0.08391 0.222 0.0
C920 C 0.88357 0.82821 0.17285 0.0
C921 C 0.87057 0.85724 0.18122 0.0
C922 C 0.86354 0.95998 0.18505 0.0
C923 C 0.85103 0.01612 0.21698 0.0
C924 C 0.85779 0.98387 0.20764 0.0
C925 C 0.88656 0.89382 0.1805 0.0
C926 C 0.87465 0.92409 0.18981 0.0
H927 H 0.81535 0.03517 0.24777 0.0
H928 H 0.82569 0.98185 0.23259 0.0
H929 H 0.8458 0.01656 0.18982 0.0
H930 H 0.95185 0.87807 0.15616 0.0
H931 H 0.92824 0.92903 0.1705 0.0
C932 C 0.68228 0.08869 0.97317 0.0
C933 C 0.67951 0.08434 0.98699 0.0
C934 C 0.71594 0.10163 0.96738 0.0
C935 C 0.79482 0.16097 0.96877 0.0
H936 H 0.84895 0.08599 0.94764 0.0
C937 C 0.92469 0.19908 0.93508 0.0
C938 C 0.92347 0.18239 0.92241 0.0
C939 C 0.89929 0.18732 0.94501 0.0
C940 C 0.83419 0.10733 0.95347 0.0
H941 H 0.71013 0.09133 0.00555 0.0
H942 H 0.7688 0.11533 0.99528 0.0
H943 H 0.79513 0.06626 0.96132 0.0
H944 H 0.89403 0.14044 0.91031 0.0
H945 H 0.85006 0.12083 0.92732 0.0
H946 H 0.83227 0.20256 0.96026 0.0
C947 C 0.74465 0.10819 0.98906 0.0
C948 C 0.80365 0.09592 0.96136 0.0
C949 C 0.71103 0.09461 0.9949 0.0
C950 C 0.89627 0.15386 0.91993 0.0
C951 C 0.87108 0.14227 0.92978 0.0
C952 C 0.82523 0.17257 0.96072 0.0
C953 C 0.74737 0.11124 0.97526 0.0
C954 C 0.78321 0.12276 0.9688 0.0
C955 C 0.87232 0.1586 0.94246 0.0
C956 C 0.84444 0.146 0.95265 0.0
H957 H 0.65839 0.08214 0.96676 0.0
H958 H 0.71752 0.10409 0.95669 0.0
H959 H 0.77912 0.18208 0.97441 0.0
H960 H 0.94515 0.22123 0.93733 0.0
H961 H 0.90095 0.20046 0.9547 0.0
C962 C 0.70616 0.95657 0.72376 0.0
C963 C 0.68309 0.92391 0.7247 0.0
C964 C 0.69549 0.98722 0.71567 0.0
C965 C 0.6307 0.01286 0.68766 0.0
H966 H 0.6516 0.11624 0.69901 0.0
C967 C 0.56297 0.14534 0.66274 0.0
C968 C 0.58685 0.17675 0.6603 0.0
C969 C 0.57602 0.11425 0.67016 0.0
C970 C 0.64591 0.08752 0.69564 0.0
H971 H 0.63062 0.89815 0.71765 0.0
H972 H 0.61131 0.95198 0.70406 0.0
H973 H 0.67118 0.06291 0.71295 0.0
H974 H 0.64342 0.19977 0.66374 0.0
H975 H 0.66606 0.1455 0.67677 0.0
H976 H 0.60456 0.03774 0.67051 0.0
C977 C 0.63812 0.95368 0.70936 0.0
C978 C 0.65723 0.05685 0.70362 0.0
C979 C 0.64894 0.92292 0.71736 0.0
C980 C 0.62425 0.17609 0.6654 0.0
C981 C 0.63717 0.1451 0.67293 0.0
C982 C 0.61906 0.04354 0.67976 0.0
C983 C 0.66128 0.98626 0.70836 0.0
C984 C 0.6497 0.01905 0.69977 0.0
C985 C 0.61316 0.11387 0.67543 0.0
C986 C 0.62645 0.08123 0.68367 0.0
H987 H 0.7324 0.95871 0.72938 0.0
H988 H 0.71436 0.01153 0.71507 0.0
H989 H 0.62506 0.98425 0.68419 0.0
H990 H 0.53396 0.14482 0.65902 0.0
H991 H 0.55669 0.09082 0.67201 0.0
C992 C 0.6762 0.46821 0.96263 0.0
C993 C 0.66191 0.44448 0.97273 0.0
C994 C 0.70715 0.45661 0.95481 0.0
C995 C 0.75618 0.37161 0.94252 0.0
H996 H 0.8436 0.43753 0.93751 0.0
C997 C 0.89474 0.31589 0.91851 0.0
C998 C 0.91708 0.34082 0.91088 0.0
C999 C 0.86323 0.32937 0.92561 0.0
C1000 C 0.81919 0.41894 0.93857 0.0
H1001 H 0.67017 0.39005 0.9826 0.0
H1002 H 0.72305 0.36946 0.96865 0.0
H1003 H 0.7893 0.45974 0.95058 0.0
H1004 H 0.9233 0.3994 0.9045 0.0
H1005 H 0.8674 0.42281 0.91646 0.0
H1006 H 0.78514 0.33114 0.9303 0.0
C1007 C 0.71009 0.39703 0.96681 0.0
C1008 C 0.78815 0.43168 0.94614 0.0
C1009 C 0.67958 0.40883 0.97476 0.0
C1010 C 0.90683 0.37953 0.91037 0.0
C1011 C 0.87486 0.39296 0.91731 0.0
C1012 C 0.78688 0.35909 0.93479 0.0
C1013 C 0.72421 0.42077 0.95675 0.0
C1014 C 0.75654 0.40797 0.94831 0.0
C1015 C 0.8527 0.3681 0.92511 0.0
C1016 C 0.8191 0.38235 0.93283 0.0
H1017 H 0.66309 0.49554 0.96056 0.0
H1018 H 0.71727 0.47535 0.94705 0.0
H1019 H 0.73192 0.35294 0.94387 0.0
H1020 H 0.90209 0.28595 0.91925 0.0
H1021 H 0.84762 0.30939 0.9317 0.0
C1022 C 0.83359 0.43846 0.2327 0.0
C1023 C 0.85936 0.41983 0.24121 0.0
C1024 C 0.84473 0.47068 0.22557 0.0
C1025 C 0.91622 0.548 0.22367 0.0
H1026 H 0.88379 0.55143 0.18698 0.0
C1027 C 0.96514 0.66345 0.1851 0.0
C1028 C 0.937 0.67539 0.17605 0.0
C1029 C 0.95748 0.63382 0.19408 0.0
C1030 C 0.89278 0.55122 0.19725 0.0
H1031 H 0.91699 0.4212 0.24908 0.0
H1032 H 0.93639 0.4777 0.23662 0.0
H1033 H 0.86694 0.49702 0.2006 0.0
H1034 H 0.87807 0.66782 0.17003 0.0
H1035 H 0.86456 0.61743 0.18576 0.0
H1036 H 0.94202 0.60259 0.22019 0.0
C1037 C 0.90744 0.46738 0.23555 0.0
C1038 C 0.88308 0.51995 0.20507 0.0
C1039 C 0.89629 0.435 0.24269 0.0
C1040 C 0.90059 0.65882 0.17671 0.0
C1041 C 0.8929 0.62971 0.18568 0.0
C1042 C 0.92593 0.57953 0.2158 0.0
C1043 C 0.88195 0.48524 0.22674 0.0
C1044 C 0.89412 0.51813 0.21843 0.0
C1045 C 0.92151 0.61591 0.19419 0.0
C1046 C 0.91371 0.58177 0.20255 0.0
H1047 H 0.80467 0.42815 0.23153 0.0
H1048 H 0.82408 0.48422 0.21909 0.0
H1049 H 0.92513 0.54749 0.23394 0.0
H1050 H 0.9935 0.67563 0.18478 0.0
H1051 H 0.98014 0.62387 0.20052 0.0
C1052 C 0.85099 0.59204 0.46705 0.0
C1053 C 0.85935 0.55341 0.4647 0.0
C1054 C 0.82264 0.61076 0.4598 0.0
C1055 C 0.76706 0.60779 0.42887 0.0
H1056 H 0.69489 0.66899 0.44879 0.0
C1057 C 0.62619 0.6695 0.40675 0.0
C1058 C 0.61252 0.70391 0.41206 0.0
C1059 C 0.65935 0.65253 0.41187 0.0
C1060 C 0.71516 0.65265 0.443 0.0
H1061 H 0.84444 0.50433 0.45271 0.0
H1062 H 0.79513 0.53732 0.43992 0.0
H1063 H 0.74624 0.63634 0.46033 0.0
H1064 H 0.62444 0.74931 0.42598 0.0
H1065 H 0.68289 0.72081 0.43447 0.0
H1066 H 0.73591 0.62436 0.41149 0.0
C1067 C 0.81079 0.55304 0.44737 0.0
C1068 C 0.74453 0.63376 0.44965 0.0
C1069 C 0.83904 0.53418 0.45471 0.0
C1070 C 0.63407 0.72248 0.42183 0.0
C1071 C 0.66738 0.70592 0.42678 0.0
C1072 C 0.73773 0.62701 0.42216 0.0
C1073 C 0.80207 0.59144 0.44993 0.0
C1074 C 0.77087 0.61119 0.44268 0.0
C1075 C 0.67961 0.66998 0.42227 0.0
C1076 C 0.71147 0.64983 0.42915 0.0
H1077 H 0.86663 0.60806 0.47442 0.0
H1078 H 0.81699 0.64054 0.46185 0.0
H1079 H 0.78714 0.59076 0.42323 0.0
H1080 H 0.60996 0.65449 0.39926 0.0
H1081 H 0.66784 0.62482 0.40817 0.0
C1082 C 0.68845 0.5737 0.72713 0.0
C1083 C 0.66935 0.58597 0.73861 0.0
C1084 C 0.67453 0.54322 0.71976 0.0
C1085 C 0.61272 0.4589 0.72075 0.0
H1086 H 0.61473 0.47174 0.6826 0.0
C1087 C 0.55432 0.34827 0.68229 0.0
C1088 C 0.57853 0.34191 0.67137 0.0
C1089 C 0.5626 0.37709 0.69146 0.0
C1090 C 0.61413 0.46765 0.69324 0.0
H1091 H 0.62114 0.57511 0.75153 0.0
H1092 H 0.59647 0.52174 0.73847 0.0
H1093 H 0.63411 0.5241 0.69683 0.0
H1094 H 0.63141 0.35954 0.66197 0.0
H1095 H 0.64565 0.40919 0.67787 0.0
H1096 H 0.59296 0.40202 0.717 0.0
C1097 C 0.62236 0.5358 0.73527 0.0
C1098 C 0.62528 0.49761 0.70138 0.0
C1099 C 0.6363 0.5665 0.74267 0.0
C1100 C 0.61179 0.36393 0.67012 0.0
C1101 C 0.61994 0.39254 0.67922 0.0
C1102 C 0.60143 0.42875 0.71254 0.0
C1103 C 0.64106 0.52428 0.72362 0.0
C1104 C 0.62564 0.4933 0.71521 0.0
C1105 C 0.59509 0.40001 0.68981 0.0
C1106 C 0.60299 0.43262 0.6987 0.0
H1107 H 0.71367 0.58832 0.72361 0.0
H1108 H 0.68993 0.53463 0.71094 0.0
H1109 H 0.61272 0.45479 0.73138 0.0
H1110 H 0.52841 0.33188 0.68352 0.0
H1111 H 0.54297 0.38231 0.69955 0.0
C1112 C 0.70273 0.59339 0.03394 0.0
C1113 C 0.68422 0.55968 0.03784 0.0
C1114 C 0.73619 0.6052 0.04029 0.0
C1115 C 0.78518 0.59446 0.07226 0.0
H1116 H 0.8702 0.64353 0.0546 0.0
C1117 C 0.91238 0.643 0.10262 0.0
C1118 C 0.92426 0.68062 0.10044 0.0
C1119 C 0.88953 0.62443 0.09336 0.0
C1120 C 0.84661 0.62998 0.05966 0.0
H1121 H 0.68706 0.51155 0.05131 0.0
H1122 H 0.74566 0.53158 0.0621 0.0
H1123 H 0.81703 0.61847 0.04148 0.0
H1124 H 0.92399 0.72745 0.08647 0.0
H1125 H 0.88317 0.69524 0.07033 0.0
H1126 H 0.8138 0.60655 0.0904 0.0
C1127 C 0.73406 0.54921 0.05426 0.0
C1128 C 0.81616 0.61568 0.05215 0.0
C1129 C 0.70064 0.53748 0.04795 0.0
C1130 C 0.91538 0.69832 0.08835 0.0
C1131 C 0.89196 0.67986 0.07911 0.0
C1132 C 0.81543 0.60868 0.07971 0.0
C1133 C 0.75185 0.58357 0.05069 0.0
C1134 C 0.78507 0.59779 0.0584 0.0
C1135 C 0.87743 0.64331 0.08181 0.0
C1136 C 0.84655 0.62663 0.07354 0.0
H1137 H 0.69116 0.61089 0.02606 0.0
H1138 H 0.74904 0.63192 0.03735 0.0
H1139 H 0.76132 0.58174 0.07743 0.0
H1140 H 0.91922 0.62856 0.11181 0.0
H1141 H 0.87977 0.59587 0.09557 0.0
C1142 C 0.74394 0.43159 0.31568 0.0
C1143 C 0.72552 0.40773 0.30652 0.0
C1144 C 0.72364 0.46037 0.32221 0.0
C1145 C 0.63667 0.51911 0.31923 0.0
H1146 H 0.65288 0.53897 0.3566 0.0
C1147 C 0.57613 0.65246 0.34483 0.0
C1148 C 0.55972 0.64797 0.35745 0.0
C1149 C 0.59628 0.62266 0.33891 0.0
C1150 C 0.64786 0.53356 0.34618 0.0
H1151 H 0.67107 0.39469 0.29734 0.0
H1152 H 0.63583 0.44491 0.30865 0.0
H1153 H 0.6881 0.48747 0.34576 0.0
H1154 H 0.55204 0.60841 0.37376 0.0
H1155 H 0.58713 0.55623 0.36333 0.0
H1156 H 0.59614 0.56477 0.31966 0.0
C1157 C 0.66609 0.44184 0.31062 0.0
C1158 C 0.66832 0.50437 0.33994 0.0
C1159 C 0.68632 0.4131 0.30412 0.0
C1160 C 0.56421 0.61289 0.36403 0.0
C1161 C 0.58452 0.58305 0.3581 0.0
C1162 C 0.61633 0.5483 0.32545 0.0
C1163 C 0.68451 0.46588 0.3197 0.0
C1164 C 0.66294 0.49685 0.3264 0.0
C1165 C 0.60063 0.5876 0.34544 0.0
C1166 C 0.62177 0.55595 0.33898 0.0
H1167 H 0.77418 0.42839 0.31765 0.0
H1168 H 0.73873 0.47874 0.32903 0.0
H1169 H 0.63214 0.51428 0.30876 0.0
H1170 H 0.57345 0.67904 0.33945 0.0
H1171 H 0.60884 0.62725 0.32924 0.0
C1172 C 0.81564 0.45001 0.54025 0.0
C1173 C 0.83404 0.42619 0.53102 0.0
C1174 C 0.78181 0.43859 0.54644 0.0
C1175 C 0.72569 0.35165 0.5542 0.0
H1176 H 0.64954 0.42554 0.56523 0.0
C1177 C 0.59215 0.30659 0.5837 0.0
C1178 C 0.58835 0.3265 0.5957 0.0
C1179 C 0.61637 0.32029 0.57374 0.0
C1180 C 0.6705 0.40457 0.56216 0.0
H1181 H 0.83047 0.3716 0.52099 0.0
H1182 H 0.77084 0.35253 0.5313 0.0
H1183 H 0.70346 0.44605 0.55171 0.0
H1184 H 0.60457 0.37763 0.6063 0.0
H1185 H 0.64595 0.40193 0.58884 0.0
H1186 H 0.69267 0.31026 0.56472 0.0
C1187 C 0.78302 0.37975 0.53401 0.0
C1188 C 0.70161 0.41633 0.55449 0.0
C1189 C 0.81707 0.39099 0.52793 0.0
C1190 C 0.60696 0.36167 0.59715 0.0
C1191 C 0.63059 0.37565 0.58713 0.0
C1192 C 0.69436 0.33985 0.56173 0.0
C1193 C 0.76511 0.40318 0.54348 0.0
C1194 C 0.73011 0.39018 0.55063 0.0
C1195 C 0.63663 0.35447 0.57551 0.0
C1196 C 0.66682 0.36629 0.56602 0.0
H1197 H 0.82737 0.47758 0.54276 0.0
H1198 H 0.7693 0.45729 0.55379 0.0
H1199 H 0.7472 0.33069 0.55164 0.0
H1200 H 0.57845 0.27923 0.58236 0.0
H1201 H 0.62028 0.30352 0.56483 0.0
C1202 C 0.788 0.5888 0.81398 0.0
C1203 C 0.79737 0.59409 0.80059 0.0
C1204 C 0.79962 0.55586 0.82071 0.0
C1205 C 0.86869 0.47454 0.81821 0.0
H1206 H 0.80975 0.43578 0.84777 0.0
C1207 C 0.91647 0.34128 0.84746 0.0
C1208 C 0.92203 0.34937 0.86093 0.0
C1209 C 0.89518 0.36627 0.83949 0.0
C1210 C 0.82637 0.44619 0.83948 0.0
H1211 H 0.82512 0.56855 0.78361 0.0
H1212 H 0.84408 0.51041 0.79511 0.0
H1213 H 0.785 0.48903 0.83476 0.0
H1214 H 0.90819 0.38829 0.87685 0.0
H1215 H 0.86963 0.43099 0.8631 0.0
H1216 H 0.90978 0.43123 0.82293 0.0
C1217 C 0.82897 0.53215 0.80064 0.0
C1218 C 0.81243 0.47701 0.83208 0.0
C1219 C 0.81796 0.56543 0.79399 0.0
C1220 C 0.90378 0.38121 0.86651 0.0
C1221 C 0.88183 0.40567 0.85864 0.0
C1222 C 0.88223 0.44331 0.82546 0.0
C1223 C 0.82033 0.52695 0.81416 0.0
C1224 C 0.83373 0.4922 0.82148 0.0
C1225 C 0.87855 0.39929 0.84495 0.0
C1226 C 0.86155 0.4292 0.83631 0.0
H1227 H 0.77242 0.6106 0.81933 0.0
H1228 H 0.793 0.55358 0.83115 0.0
H1229 H 0.88645 0.48557 0.81033 0.0
H1230 H 0.93094 0.31731 0.84289 0.0
H1231 H 0.893 0.36065 0.82897 0.0
C1232 C 0.30449 0.57684 0.04419 0.0
C1233 C 0.33464 0.55788 0.05058 0.0
C1234 C 0.27191 0.58793 0.05126 0.0
C1235 C 0.22226 0.57515 0.08404 0.0
H1236 H 0.17202 0.66923 0.07381 0.0
C1237 C 0.1291 0.67048 0.11815 0.0
C1238 C 0.09487 0.68497 0.1129 0.0
C1239 C 0.1535 0.64832 0.11033 0.0
C1240 C 0.18541 0.6426 0.07667 0.0
H1241 H 0.35462 0.53578 0.06935 0.0
H1242 H 0.2989 0.55672 0.08188 0.0
H1243 H 0.22508 0.64529 0.06066 0.0
H1244 H 0.05867 0.68706 0.09555 0.0
H1245 H 0.10203 0.64898 0.08167 0.0
H1246 H 0.18373 0.57428 0.10059 0.0
C1247 C 0.29939 0.56192 0.07132 0.0
C1248 C 0.21587 0.62867 0.0691 0.0
C1249 C 0.3316 0.55013 0.06417 0.0
C1250 C 0.0846 0.6756 0.09986 0.0
C1251 C 0.10952 0.65419 0.09192 0.0
C1252 C 0.19228 0.58957 0.09176 0.0
C1253 C 0.26899 0.58109 0.06499 0.0
C1254 C 0.23507 0.59486 0.07272 0.0
C1255 C 0.14462 0.64111 0.097 0.0
C1256 C 0.17373 0.62356 0.08819 0.0
H1257 H 0.30596 0.58274 0.03367 0.0
H1258 H 0.24897 0.60172 0.04589 0.0
H1259 H 0.23547 0.5486 0.08705 0.0
H1260 H 0.13776 0.67774 0.12814 0.0
H1261 H 0.18046 0.63885 0.11446 0.0
C1262 C 0.22323 0.55754 0.79637 0.0
C1263 C 0.20235 0.57895 0.78707 0.0
C1264 C 0.20866 0.52358 0.80146 0.0
C1265 C 0.11676 0.47377 0.80635 0.0
H1266 H 0.18327 0.39299 0.81898 0.0
C1267 C 0.05857 0.34592 0.83581 0.0
C1268 C 0.07569 0.34321 0.84837 0.0
C1269 C 0.0755 0.36785 0.82585 0.0
C1270 C 0.16436 0.41521 0.8154 0.0
H1271 H 0.15008 0.58042 0.77552 0.0
H1272 H 0.12549 0.5204 0.78394 0.0
H1273 H 0.2098 0.44469 0.80571 0.0
H1274 H 0.12511 0.35888 0.86007 0.0
H1275 H 0.15505 0.39635 0.84259 0.0
H1276 H 0.07143 0.44426 0.81615 0.0
C1277 C 0.15275 0.5304 0.78758 0.0
C1278 C 0.17953 0.44501 0.80789 0.0
C1279 C 0.16714 0.56466 0.7826 0.0
C1280 C 0.11123 0.36061 0.85049 0.0
C1281 C 0.12846 0.38187 0.84047 0.0
C1282 C 0.10153 0.44369 0.81368 0.0
C1283 C 0.173 0.50973 0.79726 0.0
C1284 C 0.15614 0.47532 0.80361 0.0
C1285 C 0.11018 0.38671 0.82821 0.0
C1286 C 0.12536 0.4147 0.81859 0.0
H1287 H 0.25081 0.56715 0.79985 0.0
H1288 H 0.22497 0.50888 0.80902 0.0
H1289 H 0.09785 0.49673 0.80342 0.0
H1290 H 0.03103 0.33302 0.83394 0.0
H1291 H 0.06092 0.37109 0.81645 0.0
C1292 C 0.20442 0.47186 0.54675 0.0
C1293 C 0.18707 0.44123 0.54009 0.0
C1294 C 0.23735 0.46615 0.55436 0.0
C1295 C 0.31647 0.39738 0.56037 0.0
H1296 H 0.31864 0.44234 0.59543 0.0
C1297 C 0.4329 0.35479 0.59776 0.0
C1298 C 0.41724 0.34226 0.60979 0.0
C1299 C 0.41075 0.37654 0.58897 0.0
C1300 C 0.31864 0.42981 0.58562 0.0
H1301 H 0.19093 0.38055 0.53626 0.0
H1302 H 0.24815 0.37059 0.54952 0.0
H1303 H 0.26757 0.45945 0.58009 0.0
H1304 H 0.3678 0.34533 0.62263 0.0
H1305 H 0.32953 0.3834 0.6075 0.0
H1306 H 0.36633 0.36616 0.56615 0.0
C1307 C 0.23672 0.39919 0.54867 0.0
C1308 C 0.28951 0.43982 0.57679 0.0
C1309 C 0.20381 0.40489 0.54108 0.0
C1310 C 0.3805 0.35459 0.61339 0.0
C1311 C 0.35863 0.37658 0.60472 0.0
C1312 C 0.34563 0.38741 0.56919 0.0
C1313 C 0.25379 0.42969 0.55548 0.0
C1314 C 0.28744 0.42287 0.56419 0.0
C1315 C 0.37285 0.38649 0.59217 0.0
C1316 C 0.34642 0.40265 0.58207 0.0
H1317 H 0.19266 0.50036 0.54601 0.0
H1318 H 0.25 0.49034 0.55934 0.0
H1319 H 0.31609 0.38429 0.55066 0.0
H1320 H 0.46107 0.34542 0.59471 0.0
H1321 H 0.42265 0.38412 0.57943 0.0
C1322 C 0.26819 0.48087 0.30327 0.0
C1323 C 0.26056 0.4451 0.30894 0.0
C1324 C 0.28038 0.51132 0.31115 0.0
C1325 C 0.32825 0.53168 0.34288 0.0
H1326 H 0.2938 0.63504 0.33631 0.0
C1327 C 0.3919 0.65679 0.37222 0.0
C1328 C 0.40434 0.68719 0.36427 0.0
C1329 C 0.36687 0.62936 0.36713 0.0
C1330 C 0.30379 0.60636 0.33826 0.0
H1331 H 0.2599 0.41341 0.32739 0.0
H1332 H 0.28072 0.46656 0.34112 0.0
H1333 H 0.26586 0.58244 0.32385 0.0
H1334 H 0.39712 0.71455 0.34514 0.0
H1335 H 0.354 0.66704 0.33631 0.0
H1336 H 0.36699 0.55551 0.35697 0.0
C1337 C 0.27744 0.47104 0.33057 0.0
C1338 C 0.28782 0.57621 0.33109 0.0
C1339 C 0.26512 0.44066 0.3227 0.0
C1340 C 0.38849 0.69134 0.35154 0.0
C1341 C 0.36348 0.66407 0.34647 0.0
C1342 C 0.34429 0.5618 0.35002 0.0
C1343 C 0.28542 0.50671 0.32489 0.0
C1344 C 0.3003 0.53856 0.33316 0.0
C1345 C 0.35354 0.6319 0.35399 0.0
C1346 C 0.33277 0.59964 0.34765 0.0
H1347 H 0.26467 0.48538 0.29273 0.0
H1348 H 0.28667 0.53828 0.30642 0.0
H1349 H 0.33889 0.50311 0.34463 0.0
H1350 H 0.40334 0.65279 0.38207 0.0
H1351 H 0.35916 0.60536 0.3733 0.0
C1352 C 0.29995 0.4535 0.98007 0.0
C1353 C 0.31847 0.43293 0.99016 0.0
C1354 C 0.26644 0.4398 0.97436 0.0
C1355 C 0.21509 0.35187 0.96741 0.0
H1356 H 0.13325 0.42162 0.95813 0.0
C1357 C 0.08544 0.307 0.93502 0.0
C1358 C 0.07809 0.33228 0.92451 0.0
C1359 C 0.11029 0.31743 0.94528 0.0
C1360 C 0.15584 0.40176 0.96067 0.0
H1361 H 0.31562 0.38198 0.00232 0.0
H1362 H 0.25729 0.35765 0.99207 0.0
H1363 H 0.18556 0.44358 0.97209 0.0
H1364 H 0.09015 0.38867 0.91674 0.0
H1365 H 0.13312 0.40659 0.93446 0.0
H1366 H 0.18603 0.31048 0.95554 0.0
C1367 C 0.26895 0.38443 0.98863 0.0
C1368 C 0.18576 0.41434 0.96865 0.0
C1369 C 0.30241 0.39833 0.99445 0.0
C1370 C 0.09529 0.3684 0.92464 0.0
C1371 C 0.11968 0.37887 0.93488 0.0
C1372 C 0.18512 0.33928 0.95937 0.0
C1373 C 0.2507 0.40503 0.9785 0.0
C1374 C 0.2163 0.3899 0.97176 0.0
C1375 C 0.12772 0.35349 0.94528 0.0
C1376 C 0.15584 0.3645 0.95558 0.0
H1377 H 0.31186 0.47978 0.9763 0.0
H1378 H 0.25347 0.45595 0.96639 0.0
H1379 H 0.23834 0.33245 0.96961 0.0
H1380 H 0.07275 0.2789 0.93516 0.0
H1381 H 0.11594 0.29732 0.95318 0.0
C1382 C 0.35653 0.60289 0.71516 0.0
C1383 C 0.33198 0.59742 0.72599 0.0
C1384 C 0.36798 0.57201 0.70733 0.0
C1385 C 0.3385 0.47842 0.69596 0.0
H1386 H 0.44595 0.46024 0.68918 0.0
C1387 C 0.39054 0.34368 0.66809 0.0
C1388 C 0.42387 0.34601 0.66039 0.0
C1389 C 0.37897 0.37437 0.67601 0.0
C1390 C 0.41575 0.46517 0.69072 0.0
H1391 H 0.29983 0.55556 0.73707 0.0
H1392 H 0.31907 0.50153 0.72312 0.0
H1393 H 0.42662 0.51375 0.70303 0.0
H1394 H 0.47051 0.38292 0.65464 0.0
H1395 H 0.44949 0.43694 0.66786 0.0
H1396 H 0.32721 0.43099 0.6833 0.0
C1397 C 0.32973 0.52969 0.7208 0.0
C1398 C 0.40477 0.49575 0.69877 0.0
C1399 C 0.31893 0.56048 0.72881 0.0
C1400 C 0.44481 0.38009 0.66053 0.0
C1401 C 0.43288 0.41102 0.66824 0.0
C1402 C 0.3494 0.44826 0.68769 0.0
C1403 C 0.35447 0.53516 0.71001 0.0
C1404 C 0.36606 0.50259 0.70151 0.0
C1405 C 0.40005 0.40851 0.67626 0.0
C1406 C 0.38824 0.44105 0.68496 0.0
H1407 H 0.36712 0.63106 0.71281 0.0
H1408 H 0.38692 0.57702 0.69903 0.0
H1409 H 0.30841 0.48333 0.69781 0.0
H1410 H 0.37396 0.31769 0.66833 0.0
H1411 H 0.35395 0.37083 0.68217 0.0
C1412 C 0.20063 0.51625 0.45738 0.0
C1413 C 0.19791 0.51408 0.47127 0.0
C1414 C 0.23498 0.52652 0.45129 0.0
C1415 C 0.32063 0.5821 0.45775 0.0
H1416 H 0.36097 0.5337 0.42616 0.0
C1417 C 0.45504 0.64156 0.4339 0.0
C1418 C 0.4546 0.64539 0.42007 0.0
C1419 C 0.42866 0.6182 0.44027 0.0
C1420 C 0.34996 0.54771 0.43492 0.0
H1421 H 0.22994 0.51931 0.48958 0.0
H1422 H 0.28951 0.53807 0.47896 0.0
H1423 H 0.30439 0.50736 0.437 0.0
H1424 H 0.42824 0.62567 0.40197 0.0
H1425 H 0.38079 0.58605 0.41307 0.0
H1426 H 0.36454 0.62341 0.4555 0.0
C1427 C 0.2649 0.53207 0.47281 0.0
C1428 C 0.31762 0.53255 0.44114 0.0
C1429 C 0.2307 0.52151 0.47889 0.0
C1430 C 0.4291 0.62322 0.41265 0.0
C1431 C 0.40198 0.60043 0.41905 0.0
C1432 C 0.35255 0.59747 0.45149 0.0
C1433 C 0.26729 0.53514 0.45895 0.0
C1434 C 0.30258 0.5497 0.4526 0.0
C1435 C 0.40046 0.59889 0.43299 0.0
C1436 C 0.36771 0.5806 0.43997 0.0
H1437 H 0.17591 0.51123 0.45119 0.0
H1438 H 0.23583 0.5291 0.44061 0.0
H1439 H 0.30929 0.5964 0.46641 0.0
H1440 H 0.47479 0.65799 0.43985 0.0
H1441 H 0.42938 0.61665 0.45098 0.0
C1442 C 0.19014 0.4373 0.21712 0.0
C1443 C 0.18978 0.4434 0.23088 0.0
C1444 C 0.1825 0.4671 0.20835 0.0
C1445 C 0.17515 0.57248 0.2058 0.0
H1446 H 0.10921 0.54877 0.17609 0.0
C1447 C 0.13109 0.6853 0.16647 0.0
C1448 C 0.09231 0.68505 0.16284 0.0
C1449 C 0.14643 0.65557 0.17409 0.0
C1450 C 0.12757 0.55593 0.18435 0.0
H1451 H 0.18205 0.48613 0.24618 0.0
H1452 H 0.16748 0.53796 0.23086 0.0
H1453 H 0.12921 0.49822 0.19102 0.0
H1454 H 0.03944 0.653 0.16428 0.0
H1455 H 0.06596 0.60201 0.17757 0.0
H1456 H 0.17212 0.63059 0.19936 0.0
C1457 C 0.17428 0.51014 0.22685 0.0
C1458 C 0.13944 0.52683 0.19284 0.0
C1459 C 0.18212 0.4803 0.23565 0.0
C1460 C 0.06948 0.6542 0.16682 0.0
C1461 C 0.08474 0.62469 0.17441 0.0
C1462 C 0.16317 0.60169 0.1973 0.0
C1463 C 0.17397 0.50379 0.2131 0.0
C1464 C 0.16307 0.53475 0.20375 0.0
C1465 C 0.12335 0.62501 0.17818 0.0
C1466 C 0.1388 0.59379 0.18659 0.0
H1467 H 0.19544 0.40921 0.21307 0.0
H1468 H 0.18301 0.46128 0.19782 0.0
H1469 H 0.19372 0.57949 0.21402 0.0
H1470 H 0.14946 0.70857 0.16356 0.0
H1471 H 0.17639 0.65646 0.17674 0.0
loop_
_geom_bond_atom_site_label_1
_geom_bond_atom_site_label_2
_geom_bond_distance
_geom_bond_site_symmetry_2
_ccdc_geom_bond_type
H0 C19 0.949 . S
H1 C20 0.950 . S
H2 C22 0.950 . S
H3 C23 0.950 . S
H4 C25 0.950 . S
H5 C28 0.950 1_565 S
H6 C29 0.950 . S
H7 C31 0.951 . S
H8 C32 0.949 . S
H9 C34 0.949 . S
H10 C35 0.950 . S
H11 C37 0.950 . S
H12 C38 0.950 1_565 S
H13 C40 0.950 . S
H14 C43 0.950 . S
H15 C44 0.950 1_545 S
H16 C46 0.951 . S
H17 C47 0.949 . S
C18 C19 1.376 . S
C18 C23 1.386 1_565 S
C18 C24 1.483 1_565 S
C19 H0 0.949 . S
C19 C18 1.376 . S
C19 C20 1.397 . S
C20 H1 0.950 . S
C20 C19 1.397 . S
C20 C21 1.391 . S
C21 C20 1.391 . S
C21 C22 1.405 1_565 S
C22 H2 0.950 . S
C22 C21 1.405 1_545 S
C22 C23 1.367 . S
C23 H3 0.950 . S
C23 C18 1.386 1_545 S
C23 C22 1.367 . S
C24 C18 1.483 1_545 S
C24 C25 1.382 1_545 S
C24 C26 1.403 . S
C25 H4 0.950 . S
C25 C24 1.382 1_565 S
C25 C41 1.408 1_665 S
C26 C24 1.403 . S
C26 C27 1.489 . S
C26 C40 1.411 1_655 S
C27 C26 1.489 . S
C27 C28 1.383 . S
C27 C32 1.382 . S
C28 H5 0.950 1_545 S
C28 C27 1.383 . S
C28 C29 1.395 . S
C29 H6 0.950 . S
C29 C28 1.395 . S
C29 C30 1.288 . S
C30 C29 1.288 . S
C30 C31 1.392 . S
C31 H7 0.951 . S
C31 C30 1.392 . S
C31 C32 1.392 . S
C32 H8 0.949 . S
C32 C27 1.382 . S
C32 C31 1.392 . S
C33 C34 1.376 . S
C33 C38 1.386 . S
C33 C39 1.483 . S
C34 H9 0.949 . S
C34 C33 1.376 . S
C34 C35 1.397 . S
C35 H10 0.950 . S
C35 C34 1.397 . S
C35 C36 1.391 . S
C36 C35 1.391 . S
C36 C37 1.405 . S
C37 H11 0.950 . S
C37 C36 1.405 . S
C37 C38 1.367 . S
C38 H12 0.950 1_545 S
C38 C33 1.386 . S
C38 C37 1.367 . S
C39 C33 1.483 . S
C39 C40 1.382 . S
C39 C41 1.410 . S
C40 H13 0.950 . S
C40 C26 1.411 1_455 S
C40 C39 1.382 . S
C41 C25 1.408 1_445 S
C41 C39 1.410 . S
C41 C42 1.485 1_545 S
C42 C41 1.485 1_565 S
C42 C43 1.383 1_565 S
C42 C47 1.382 . S
C43 H14 0.950 . S
C43 C42 1.383 1_545 S
C43 C44 1.395 1_545 S
C44 H15 0.950 1_565 S
C44 C43 1.395 1_565 S
C44 C45 1.288 . S
C45 C44 1.288 . S
C45 C46 1.392 . S
C46 H16 0.951 . S
C46 C45 1.392 . S
C46 C47 1.392 . S
C47 H17 0.949 . S
C47 C42 1.382 . S
C47 C46 1.392 . S
H48 C67 0.949 . S
H49 C68 0.950 . S
H50 C70 0.950 . S
H51 C71 0.950 . S
H52 C73 0.950 . S
H53 C76 0.950 . S
H54 C77 0.950 . S
H55 C79 0.951 . S
H56 C80 0.949 . S
H57 C82 0.949 . S
H58 C83 0.950 . S
H59 C85 0.950 . S
H60 C86 0.950 . S
H61 C88 0.950 . S
H62 C91 0.950 . S
H63 C92 0.950 . S
H64 C94 0.951 . S
H65 C95 0.949 . S
C66 C67 1.376 . S
C66 C71 1.386 . S
C66 C72 1.483 . S
C67 H48 0.949 . S
C67 C66 1.376 . S
C67 C68 1.397 . S
C68 H49 0.950 . S
C68 C67 1.397 . S
C68 C69 1.391 . S
C69 C68 1.391 . S
C69 C70 1.405 . S
C70 H50 0.950 . S
C70 C69 1.405 . S
C70 C71 1.367 . S
C71 H51 0.950 . S
C71 C66 1.386 . S
C71 C70 1.367 . S
C72 C66 1.483 . S
C72 C73 1.382 . S
C72 C74 1.403 . S
C73 H52 0.950 . S
C73 C72 1.382 . S
C73 C89 1.411 . S
C74 C72 1.403 . S
C74 C75 1.489 . S
C74 C88 1.411 . S
C75 C74 1.489 . S
C75 C76 1.383 . S
C75 C80 1.382 . S
C76 H53 0.950 . S
C76 C75 1.383 . S
C76 C77 1.395 . S
C77 H54 0.950 . S
C77 C76 1.395 . S
C77 C78 1.288 . S
C78 C77 1.288 . S
C78 C79 1.392 . S
C79 H55 0.951 . S
C79 C78 1.392 . S
C79 C80 1.392 . S
C80 H56 0.949 . S
C80 C75 1.382 . S
C80 C79 1.392 . S
C81 C82 1.376 . S
C81 C86 1.386 . S
C81 C87 1.483 . S
C82 H57 0.949 . S
C82 C81 1.376 . S
C82 C83 1.397 . S
C83 H58 0.950 . S
C83 C82 1.397 . S
C83 C84 1.391 . S
C84 C83 1.391 . S
C84 C85 1.405 . S
C85 H59 0.950 . S
C85 C84 1.405 . S
C85 C86 1.367 . S
C86 H60 0.950 . S
C86 C81 1.386 . S
C86 C85 1.367 . S
C87 C81 1.483 . S
C87 C88 1.382 . S
C87 C89 1.403 . S
C88 H61 0.950 . S
C88 C74 1.411 . S
C88 C87 1.382 . S
C89 C73 1.411 . S
C89 C87 1.403 . S
C89 C90 1.489 . S
C90 C89 1.489 . S
C90 C91 1.383 . S
C90 C95 1.382 . S
C91 H62 0.950 . S
C91 C90 1.383 . S
C91 C92 1.395 . S
C92 H63 0.950 . S
C92 C91 1.395 . S
C92 C93 1.288 . S
C93 C92 1.288 . S
C93 C94 1.392 . S
C94 H64 0.951 . S
C94 C93 1.392 . S
C94 C95 1.392 . S
C95 H65 0.949 . S
C95 C90 1.382 . S
C95 C94 1.392 . S
H96 C115 0.949 1_545 S
H97 C116 0.950 . S
H98 C118 0.950 . S
H99 C119 0.950 . S
H100 C121 0.950 . S
H101 C124 0.950 . S
H102 C125 0.938 1_554 S
H103 C127 0.951 . S
H104 C128 0.965 . S
H105 C130 0.949 1_565 S
H106 C131 0.950 . S
H107 C133 0.950 1_554 S
H108 C134 0.950 . S
H109 C136 0.950 . S
H110 C139 0.950 . S
H111 C140 0.950 . S
H112 C142 0.951 . S
H113 C143 0.954 . S
C114 C115 1.376 . S
C114 C119 1.386 . S
C114 C120 1.483 . S
C115 H96 0.949 1_565 S
C115 C114 1.376 . S
C115 C116 1.397 . S
C116 H97 0.950 . S
C116 C115 1.397 . S
C116 C117 1.391 . S
C117 C116 1.391 . S
C117 C118 1.405 . S
C118 H98 0.950 . S
C118 C117 1.405 . S
C118 C119 1.367 . S
C119 H99 0.950 . S
C119 C114 1.386 . S
C119 C118 1.367 . S
C120 C114 1.483 . S
C120 C121 1.382 . S
C120 C122 1.403 1_565 S
C121 H100 0.950 . S
C121 C120 1.382 . S
C121 C137 1.411 . S
C122 C120 1.403 1_545 S
C122 C123 1.489 1_554 S
C122 C136 1.411 1_554 S
C123 C122 1.489 1_556 S
C123 C124 1.383 1_556 S
C123 C128 1.382 . S
C124 H101 0.950 . S
C124 C123 1.383 1_554 S
C124 C125 1.395 1_554 S
C125 H102 0.938 1_556 S
C125 C124 1.395 1_556 S
C125 C126 1.288 . S
C126 C125 1.288 . S
C126 C127 1.392 . S
C127 H103 0.951 . S
C127 C126 1.392 . S
C127 C128 1.392 . S
C128 H104 0.965 . S
C128 C123 1.382 . S
C128 C127 1.392 . S
C129 C130 1.376 . S
C129 C134 1.386 1_556 S
C129 C135 1.483 1_556 S
C130 H105 0.949 1_545 S
C130 C129 1.376 . S
C130 C131 1.397 . S
C131 H106 0.950 . S
C131 C130 1.397 . S
C131 C132 1.391 . S
C132 C131 1.391 . S
C132 C133 1.405 . S
C133 H107 0.950 1_556 S
C133 C132 1.405 . S
C133 C134 1.367 1_556 S
C134 H108 0.950 . S
C134 C129 1.386 1_554 S
C134 C133 1.367 1_554 S
C135 C129 1.483 1_554 S
C135 C136 1.382 1_554 S
C135 C137 1.403 1_545 S
C136 H109 0.950 . S
C136 C122 1.411 1_556 S
C136 C135 1.382 1_556 S
C137 C121 1.411 . S
C137 C135 1.403 1_565 S
C137 C138 1.489 . S
C138 C137 1.489 . S
C138 C139 1.383 . S
C138 C143 1.382 . S
C139 H110 0.950 . S
C139 C138 1.383 . S
C139 C140 1.395 . S
C140 H111 0.950 . S
C140 C139 1.395 . S
C140 C141 1.288 . S
C141 C140 1.288 . S
C141 C142 1.392 . S
C142 H112 0.951 . S
C142 C141 1.392 . S
C142 C143 1.392 . S
C143 H113 0.954 . S
C143 C138 1.382 . S
C143 C142 1.392 . S
H144 C163 0.949 . S
H145 C164 0.950 . S
H146 C166 0.950 . S
H147 C167 0.950 . S
H148 C169 0.950 . S
H149 C172 0.950 . S
H150 C173 0.950 . S
H151 C175 0.951 . S
H152 C176 0.949 . S
H153 C178 0.949 . S
H154 C179 0.950 . S
H155 C181 0.950 . S
H156 C182 0.950 . S
H157 C184 0.950 . S
H158 C187 0.950 . S
H159 C188 0.950 . S
H160 C190 0.951 . S
H161 C191 0.949 . S
C162 C163 1.376 . S
C162 C167 1.386 . S
C162 C168 1.483 . S
C163 H144 0.949 . S
C163 C162 1.376 . S
C163 C164 1.397 . S
C164 H145 0.950 . S
C164 C163 1.397 . S
C164 C165 1.391 . S
C165 C164 1.391 . S
C165 C166 1.405 . S
C166 H146 0.950 . S
C166 C165 1.405 . S
C166 C167 1.367 . S
C167 H147 0.950 . S
C167 C162 1.386 . S
C167 C166 1.367 . S
C168 C162 1.483 . S
C168 C169 1.382 . S
C168 C170 1.403 . S
C169 H148 0.950 . S
C169 C168 1.382 . S
C169 C185 1.411 . S
C170 C168 1.403 . S
C170 C171 1.489 . S
C170 C184 1.411 . S
C171 C170 1.489 . S
C171 C172 1.383 . S
C171 C176 1.382 . S
C172 H149 0.950 . S
C172 C171 1.383 . S
C172 C173 1.395 . S
C173 H150 0.950 . S
C173 C172 1.395 . S
C173 C174 1.288 . S
C174 C173 1.288 . S
C174 C175 1.392 . S
C175 H151 0.951 . S
C175 C174 1.392 . S
C175 C176 1.392 . S
C176 H152 0.949 . S
C176 C171 1.382 . S
C176 C175 1.392 . S
C177 C178 1.376 . S
C177 C182 1.386 . S
C177 C183 1.483 . S
C178 H153 0.949 . S
C178 C177 1.376 . S
C178 C179 1.397 . S
C179 H154 0.950 . S
C179 C178 1.397 . S
C179 C180 1.391 . S
C180 C179 1.391 . S
C180 C181 1.405 . S
C181 H155 0.950 . S
C181 C180 1.405 . S
C181 C182 1.367 . S
C182 H156 0.950 . S
C182 C177 1.386 . S
C182 C181 1.367 . S
C183 C177 1.483 . S
C183 C184 1.382 . S
C183 C185 1.403 . S
C184 H157 0.950 . S
C184 C170 1.411 . S
C184 C183 1.382 . S
C185 C169 1.411 . S
C185 C183 1.403 . S
C185 C186 1.489 . S
C186 C185 1.489 . S
C186 C187 1.383 . S
C186 C191 1.382 . S
C187 H158 0.950 . S
C187 C186 1.383 . S
C187 C188 1.395 . S
C188 H159 0.950 . S
C188 C187 1.395 . S
C188 C189 1.288 . S
C189 C188 1.288 . S
C189 C190 1.392 . S
C190 H160 0.951 . S
C190 C189 1.392 . S
C190 C191 1.392 . S
C191 H161 0.949 . S
C191 C186 1.382 . S
C191 C190 1.392 . S
H192 C211 0.949 . S
H193 C212 0.950 . S
H194 C214 0.950 . S
H195 C215 0.950 . S
H196 C217 0.950 . S
H197 C220 0.950 . S
H198 C221 0.950 . S
H199 C223 0.951 . S
H200 C224 0.949 . S
H201 C226 0.949 . S
H202 C227 0.950 . S
H203 C229 0.950 . S
H204 C230 0.950 . S
H205 C232 0.950 . S
H206 C235 0.950 . S
H207 C236 0.950 . S
H208 C238 0.951 . S
H209 C239 0.949 . S
C210 C211 1.376 . S
C210 C215 1.386 . S
C210 C216 1.483 . S
C211 H192 0.949 . S
C211 C210 1.376 . S
C211 C212 1.397 . S
C212 H193 0.950 . S
C212 C211 1.397 . S
C212 C213 1.391 . S
C213 C212 1.391 . S
C213 C214 1.405 . S
C214 H194 0.950 . S
C214 C213 1.405 . S
C214 C215 1.367 . S
C215 H195 0.950 . S
C215 C210 1.386 . S
C215 C214 1.367 . S
C216 C210 1.483 . S
C216 C217 1.382 . S
C216 C218 1.403 . S
C217 H196 0.950 . S
C217 C216 1.382 . S
C217 C233 1.411 . S
C218 C216 1.403 . S
C218 C219 1.489 . S
C218 C232 1.411 . S
C219 C218 1.489 . S
C219 C220 1.383 . S
C219 C224 1.382 . S
C220 H197 0.950 . S
C220 C219 1.383 . S
C220 C221 1.395 . S
C221 H198 0.950 . S
C221 C220 1.395 . S
C221 C222 1.288 . S
C222 C221 1.288 . S
C222 C223 1.392 . S
C223 H199 0.951 . S
C223 C222 1.392 . S
C223 C224 1.392 . S
C224 H200 0.949 . S
C224 C219 1.382 . S
C224 C223 1.392 . S
C225 C226 1.376 . S
C225 C230 1.386 . S
C225 C231 1.483 . S
C226 H201 0.949 . S
C226 C225 1.376 . S
C226 C227 1.397 . S
C227 H202 0.950 . S
C227 C226 1.397 . S
C227 C228 1.391 . S
C228 C227 1.391 . S
C228 C229 1.405 . S
C229 H203 0.950 . S
C229 C228 1.405 . S
C229 C230 1.367 . S
C230 H204 0.950 . S
C230 C225 1.386 . S
C230 C229 1.367 . S
C231 C225 1.483 . S
C231 C232 1.382 . S
C231 C233 1.403 . S
C232 H205 0.950 . S
C232 C218 1.411 . S
C232 C231 1.382 . S
C233 C217 1.411 . S
C233 C231 1.403 . S
C233 C234 1.489 . S
C234 C233 1.489 . S
C234 C235 1.383 . S
C234 C239 1.382 . S
C235 H206 0.950 . S
C235 C234 1.383 . S
C235 C236 1.395 . S
C236 H207 0.950 . S
C236 C235 1.395 . S
C236 C237 1.288 . S
C237 C236 1.288 . S
C237 C238 1.392 . S
C238 H208 0.951 . S
C238 C237 1.392 . S
C238 C239 1.392 . S
C239 H209 0.949 . S
C239 C234 1.382 . S
C239 C238 1.392 . S
H240 C259 0.949 . S
H241 C260 0.950 . S
H242 C262 0.950 . S
H243 C263 0.950 . S
H244 C265 0.950 . S
H245 C268 0.950 . S
H246 C269 0.950 . S
H247 C271 0.951 . S
H248 C272 0.949 . S
H249 C274 0.949 . S
H250 C275 0.950 . S
H251 C277 0.950 . S
H252 C278 0.950 . S
H253 C280 0.950 . S
H254 C283 0.950 . S
H255 C284 0.950 . S
H256 C286 0.951 . S
H257 C287 0.949 . S
C258 C259 1.376 . S
C258 C263 1.386 . S
C258 C264 1.483 . S
C259 H240 0.949 . S
C259 C258 1.376 . S
C259 C260 1.397 . S
C260 H241 0.950 . S
C260 C259 1.397 . S
C260 C261 1.391 . S
C261 C260 1.391 . S
C261 C262 1.405 . S
C262 H242 0.950 . S
C262 C261 1.405 . S
C262 C263 1.367 . S
C263 H243 0.950 . S
C263 C258 1.386 . S
C263 C262 1.367 . S
C264 C258 1.483 . S
C264 C265 1.382 . S
C264 C266 1.403 . S
C265 H244 0.950 . S
C265 C264 1.382 . S
C265 C281 1.411 . S
C266 C264 1.403 . S
C266 C267 1.489 . S
C266 C280 1.411 . S
C267 C266 1.489 . S
C267 C268 1.383 . S
C267 C272 1.382 . S
C268 H245 0.950 . S
C268 C267 1.383 . S
C268 C269 1.395 . S
C269 H246 0.950 . S
C269 C268 1.395 . S
C269 C270 1.288 . S
C270 C269 1.288 . S
C270 C271 1.392 . S
C271 H247 0.951 . S
C271 C270 1.392 . S
C271 C272 1.392 . S
C272 H248 0.949 . S
C272 C267 1.382 . S
C272 C271 1.392 . S
C273 C274 1.376 . S
C273 C278 1.386 . S
C273 C279 1.483 . S
C274 H249 0.949 . S
C274 C273 1.376 . S
C274 C275 1.397 . S
C275 H250 0.950 . S
C275 C274 1.397 . S
C275 C276 1.391 . S
C276 C275 1.391 . S
C276 C277 1.405 . S
C277 H251 0.950 . S
C277 C276 1.405 . S
C277 C278 1.367 . S
C278 H252 0.950 . S
C278 C273 1.386 . S
C278 C277 1.367 . S
C279 C273 1.483 . S
C279 C280 1.382 . S
C279 C281 1.403 . S
C280 H253 0.950 . S
C280 C266 1.411 . S
C280 C279 1.382 . S
C281 C265 1.411 . S
C281 C279 1.403 . S
C281 C282 1.489 . S
C282 C281 1.489 . S
C282 C283 1.383 . S
C282 C287 1.382 . S
C283 H254 0.950 . S
C283 C282 1.383 . S
C283 C284 1.395 . S
C284 H255 0.950 . S
C284 C283 1.395 . S
C284 C285 1.288 . S
C285 C284 1.288 . S
C285 C286 1.392 . S
C286 H256 0.951 . S
C286 C285 1.392 . S
C286 C287 1.392 . S
C287 H257 0.949 . S
C287 C282 1.382 . S
C287 C286 1.392 . S
H288 C307 0.949 1_554 S
H289 C308 0.950 . S
H290 C310 0.950 . S
H291 C311 0.950 . S
H292 C313 0.952 1_556 S
H293 C316 0.950 . S
H294 C317 0.950 . S
H295 C319 0.951 . S
H296 C320 0.949 . S
H297 C322 0.949 . S
H298 C323 0.950 . S
H299 C325 0.950 . S
H300 C326 0.950 . S
H301 C328 0.950 . S
H302 C331 0.950 . S
H303 C332 0.950 . S
H304 C334 0.951 . S
H305 C335 0.949 . S
C306 C307 1.376 . S
C306 C311 1.386 . S
C306 C312 1.483 1_556 S
C307 H288 0.949 1_556 S
C307 C306 1.376 . S
C307 C308 1.397 . S
C308 H289 0.950 . S
C308 C307 1.397 . S
C308 C309 1.391 . S
C309 C308 1.391 . S
C309 C310 1.405 . S
C310 H290 0.950 . S
C310 C309 1.405 . S
C310 C311 1.367 . S
C311 H291 0.950 . S
C311 C306 1.386 . S
C311 C310 1.367 . S
C312 C306 1.483 1_554 S
C312 C313 1.381 . S
C312 C314 1.403 . S
C313 H292 0.952 1_554 S
C313 C312 1.381 . S
C313 C329 1.410 . S
C314 C312 1.403 . S
C314 C315 1.489 . S
C314 C328 1.411 . S
C315 C314 1.489 . S
C315 C316 1.383 . S
C315 C320 1.382 . S
C316 H293 0.950 . S
C316 C315 1.383 . S
C316 C317 1.395 . S
C317 H294 0.950 . S
C317 C316 1.395 . S
C317 C318 1.288 . S
C318 C317 1.288 . S
C318 C319 1.392 . S
C319 H295 0.951 . S
C319 C318 1.392 . S
C319 C320 1.392 . S
C320 H296 0.949 . S
C320 C315 1.382 . S
C320 C319 1.392 . S
C321 C322 1.376 . S
C321 C326 1.386 . S
C321 C327 1.483 . S
C322 H297 0.949 . S
C322 C321 1.376 . S
C322 C323 1.397 . S
C323 H298 0.950 . S
C323 C322 1.397 . S
C323 C324 1.391 . S
C324 C323 1.391 . S
C324 C325 1.405 . S
C325 H299 0.950 . S
C325 C324 1.405 . S
C325 C326 1.367 . S
C326 H300 0.950 . S
C326 C321 1.386 . S
C326 C325 1.367 . S
C327 C321 1.483 . S
C327 C328 1.382 . S
C327 C329 1.403 . S
C328 H301 0.950 . S
C328 C314 1.411 . S
C328 C327 1.382 . S
C329 C313 1.410 . S
C329 C327 1.403 . S
C329 C330 1.489 1_554 S
C330 C329 1.489 1_556 S
C330 C331 1.383 . S
C330 C335 1.382 . S
C331 H302 0.950 . S
C331 C330 1.383 . S
C331 C332 1.395 . S
C332 H303 0.950 . S
C332 C331 1.395 . S
C332 C333 1.288 . S
C333 C332 1.288 . S
C333 C334 1.392 . S
C334 H304 0.951 . S
C334 C333 1.392 . S
C334 C335 1.392 . S
C335 H305 0.949 . S
C335 C330 1.382 . S
C335 C334 1.392 . S
H336 C355 0.949 . S
H337 C356 0.950 . S
H338 C358 0.950 . S
H339 C359 0.950 . S
H340 C361 0.950 . S
H341 C364 0.950 . S
H342 C365 0.950 . S
H343 C367 0.951 . S
H344 C368 0.949 . S
H345 C370 0.949 . S
H346 C371 0.950 . S
H347 C373 0.950 . S
H348 C374 0.950 . S
H349 C376 0.950 . S
H350 C379 0.950 . S
H351 C380 0.950 . S
H352 C382 0.951 . S
H353 C383 0.949 . S
C354 C355 1.376 . S
C354 C359 1.386 . S
C354 C360 1.483 . S
C355 H336 0.949 . S
C355 C354 1.376 . S
C355 C356 1.397 . S
C356 H337 0.950 . S
C356 C355 1.397 . S
C356 C357 1.391 . S
C357 C356 1.391 . S
C357 C358 1.405 . S
C358 H338 0.950 . S
C358 C357 1.405 . S
C358 C359 1.367 . S
C359 H339 0.950 . S
C359 C354 1.386 . S
C359 C358 1.367 . S
C360 C354 1.483 . S
C360 C361 1.382 . S
C360 C362 1.403 . S
C361 H340 0.950 . S
C361 C360 1.382 . S
C361 C377 1.411 1_655 S
C362 C360 1.403 . S
C362 C363 1.489 . S
C362 C376 1.411 1_655 S
C363 C362 1.489 . S
C363 C364 1.383 . S
C363 C368 1.382 . S
C364 H341 0.950 . S
C364 C363 1.383 . S
C364 C365 1.395 . S
C365 H342 0.950 . S
C365 C364 1.395 . S
C365 C366 1.288 . S
C366 C365 1.288 . S
C366 C367 1.392 . S
C367 H343 0.951 . S
C367 C366 1.392 . S
C367 C368 1.392 . S
C368 H344 0.949 . S
C368 C363 1.382 . S
C368 C367 1.392 . S
C369 C370 1.376 . S
C369 C374 1.386 . S
C369 C375 1.483 . S
C370 H345 0.949 . S
C370 C369 1.376 . S
C370 C371 1.397 . S
C371 H346 0.950 . S
C371 C370 1.397 . S
C371 C372 1.391 . S
C372 C371 1.391 . S
C372 C373 1.405 . S
C373 H347 0.950 . S
C373 C372 1.405 . S
C373 C374 1.367 . S
C374 H348 0.950 . S
C374 C369 1.386 . S
C374 C373 1.367 . S
C375 C369 1.483 . S
C375 C376 1.382 . S
C375 C377 1.403 . S
C376 H349 0.950 . S
C376 C362 1.411 1_455 S
C376 C375 1.382 . S
C377 C361 1.411 1_455 S
C377 C375 1.403 . S
C377 C378 1.489 . S
C378 C377 1.489 . S
C378 C379 1.383 . S
C378 C383 1.382 . S
C379 H350 0.950 . S
C379 C378 1.383 . S
C379 C380 1.395 . S
C380 H351 0.950 . S
C380 C379 1.395 . S
C380 C381 1.288 . S
C381 C380 1.288 . S
C381 C382 1.392 . S
C382 H352 0.951 . S
C382 C381 1.392 . S
C382 C383 1.392 . S
C383 H353 0.949 . S
C383 C378 1.382 . S
C383 C382 1.392 . S
Fe384 O385 1.886 . S
Fe384 O388 1.715 1_455 S
Fe384 O393 2.077 . S
Fe384 O398 1.935 1_455 S
Fe384 O404 2.077 . S
Fe384 O413 1.935 1_455 S
O385 Fe384 1.886 . S
O385 Fe387 1.715 . S
Fe386 O388 1.886 . S
Fe386 O389 1.715 . S
Fe386 O396 1.935 . S
Fe386 O397 2.077 . S
Fe386 O403 1.935 . S
Fe386 O412 2.077 . S
Fe387 O385 1.715 . S
Fe387 O390 1.886 . S
Fe387 O394 1.935 . S
Fe387 O399 2.077 . S
Fe387 O405 1.935 . S
Fe387 O409 2.077 . S
O388 Fe384 1.715 1_655 S
O388 Fe386 1.886 . S
O389 Fe386 1.715 . S
O389 Fe391 1.901 . S
O390 Fe387 1.886 . S
O390 Fe391 1.699 1_455 S
Fe391 O389 1.901 . S
Fe391 O390 1.699 1_655 S
Fe391 O395 2.091 . S
Fe391 O400 1.923 1_655 S
Fe391 O402 2.091 . S
Fe391 O410 1.923 1_655 S
C392 O404 1.381 . S
C392 O405 1.421 . S
O393 Fe384 2.077 . S
O393 C406 1.381 . S
O394 Fe387 1.935 . S
O394 C406 1.421 . S
O395 Fe391 2.091 . S
O395 C411 1.381 . S
O396 Fe386 1.935 . S
O396 C411 1.421 . S
O397 Fe386 2.077 . S
O397 C401 1.381 . S
O398 Fe384 1.935 1_655 S
O398 C401 1.421 . S
O399 Fe387 2.077 . S
O399 C407 1.381 . S
O400 Fe391 1.923 1_455 S
O400 C407 1.421 . S
C401 O397 1.381 . S
C401 O398 1.421 . S
O402 Fe391 2.091 . S
O402 C414 1.381 . S
O403 Fe386 1.935 . S
O403 C414 1.421 . S
O404 Fe384 2.077 . S
O404 C392 1.381 . S
O405 Fe387 1.935 . S
O405 C392 1.421 . S
C406 O393 1.381 . S
C406 O394 1.421 . S
C407 O399 1.381 . S
C407 O400 1.421 . S
C408 O409 1.381 . S
C408 O410 1.421 . S
O409 Fe387 2.077 . S
O409 C408 1.381 . S
O410 Fe391 1.923 1_455 S
O410 C408 1.421 . S
C411 O395 1.381 . S
C411 O396 1.421 . S
O412 Fe386 2.077 . S
O412 C415 1.381 . S
O413 Fe384 1.935 1_655 S
O413 C415 1.421 . S
C414 O402 1.381 . S
C414 O403 1.421 . S
C415 O412 1.381 . S
C415 O413 1.421 . S
Fe416 O417 1.886 . S
Fe416 O420 1.715 . S
Fe416 O425 2.077 . S
Fe416 O430 1.935 . S
Fe416 O436 2.077 . S
Fe416 O445 1.935 . S
O417 Fe416 1.886 . S
O417 Fe419 1.715 . S
Fe418 O420 1.886 . S
Fe418 O421 1.715 . S
Fe418 O428 1.935 . S
Fe418 O429 2.077 . S
Fe418 O435 1.935 . S
Fe418 O444 2.077 . S
Fe419 O417 1.715 . S
Fe419 O422 1.886 . S
Fe419 O426 1.935 . S
Fe419 O431 2.077 . S
Fe419 O437 1.935 . S
Fe419 O441 2.077 . S
O420 Fe416 1.715 . S
O420 Fe418 1.886 . S
O421 Fe418 1.715 . S
O421 Fe423 1.886 . S
O422 Fe419 1.886 . S
O422 Fe423 1.715 . S
Fe423 O421 1.886 . S
Fe423 O422 1.715 . S
Fe423 O427 2.077 . S
Fe423 O432 1.935 . S
Fe423 O434 2.077 . S
Fe423 O442 1.935 . S
C424 O436 1.381 . S
C424 O437 1.421 . S
O425 Fe416 2.077 . S
O425 C438 1.381 . S
O426 Fe419 1.935 . S
O426 C438 1.421 . S
O427 Fe423 2.077 . S
O427 C443 1.381 . S
O428 Fe418 1.935 . S
O428 C443 1.421 . S
O429 Fe418 2.077 . S
O429 C433 1.381 . S
O430 Fe416 1.935 . S
O430 C433 1.421 . S
O431 Fe419 2.077 . S
O431 C439 1.381 . S
O432 Fe423 1.935 . S
O432 C439 1.421 . S
C433 O429 1.381 . S
C433 O430 1.421 . S
O434 Fe423 2.077 . S
O434 C446 1.381 . S
O435 Fe418 1.935 . S
O435 C446 1.421 . S
O436 Fe416 2.077 . S
O436 C424 1.381 . S
O437 Fe419 1.935 . S
O437 C424 1.421 . S
C438 O425 1.381 . S
C438 O426 1.421 . S
C439 O431 1.381 . S
C439 O432 1.421 . S
C440 O441 1.381 . S
C440 O442 1.421 . S
O441 Fe419 2.077 . S
O441 C440 1.381 . S
O442 Fe423 1.935 . S
O442 C440 1.421 . S
C443 O427 1.381 . S
C443 O428 1.421 . S
O444 Fe418 2.077 . S
O444 C447 1.381 . S
O445 Fe416 1.935 . S
O445 C447 1.421 . S
C446 O434 1.381 . S
C446 O435 1.421 . S
C447 O444 1.381 . S
C447 O445 1.421 . S
Fe448 O449 1.886 . S
Fe448 O452 1.715 . S
Fe448 O457 2.077 . S
Fe448 O462 1.935 . S
Fe448 O468 2.077 . S
Fe448 O477 1.935 . S
O449 Fe448 1.886 . S
O449 Fe451 1.715 . S
Fe450 O452 1.886 . S
Fe450 O453 1.715 . S
Fe450 O460 1.935 . S
Fe450 O461 2.077 . S
Fe450 O467 1.935 . S
Fe450 O476 2.077 . S
Fe451 O449 1.715 . S
Fe451 O454 1.886 . S
Fe451 O458 1.935 . S
Fe451 O463 2.077 . S
Fe451 O469 1.935 . S
Fe451 O473 2.077 . S
O452 Fe448 1.715 . S
O452 Fe450 1.886 . S
O453 Fe450 1.715 . S
O453 Fe455 1.886 . S
O454 Fe451 1.886 . S
O454 Fe455 1.715 . S
Fe455 O453 1.886 . S
Fe455 O454 1.715 . S
Fe455 O459 2.077 . S
Fe455 O464 1.935 . S
Fe455 O466 2.077 . S
Fe455 O474 1.935 . S
C456 O468 1.381 . S
C456 O469 1.421 . S
O457 Fe448 2.077 . S
O457 C470 1.381 . S
O458 Fe451 1.935 . S
O458 C470 1.421 . S
O459 Fe455 2.077 . S
O459 C475 1.381 . S
O460 Fe450 1.935 . S
O460 C475 1.421 . S
O461 Fe450 2.077 . S
O461 C465 1.381 . S
O462 Fe448 1.935 . S
O462 C465 1.421 . S
O463 Fe451 2.077 . S
O463 C471 1.381 . S
O464 Fe455 1.935 . S
O464 C471 1.421 . S
C465 O461 1.381 . S
C465 O462 1.421 . S
O466 Fe455 2.077 . S
O466 C478 1.381 . S
O467 Fe450 1.935 . S
O467 C478 1.421 . S
O468 Fe448 2.077 . S
O468 C456 1.381 . S
O469 Fe451 1.935 . S
O469 C456 1.421 . S
C470 O457 1.381 . S
C470 O458 1.421 . S
C471 O463 1.381 . S
C471 O464 1.421 . S
C472 O473 1.381 . S
C472 O474 1.421 . S
O473 Fe451 2.077 . S
O473 C472 1.381 . S
O474 Fe455 1.935 . S
O474 C472 1.421 . S
C475 O459 1.381 . S
C475 O460 1.421 . S
O476 Fe450 2.077 . S
O476 C479 1.381 . S
O477 Fe448 1.935 . S
O477 C479 1.421 . S
C478 O466 1.381 . S
C478 O467 1.421 . S
C479 O476 1.381 . S
C479 O477 1.421 . S
Fe480 O481 1.886 . S
Fe480 O484 1.715 . S
Fe480 O489 2.077 1_455 S
Fe480 O494 1.935 1_455 S
Fe480 O500 2.077 . S
Fe480 O509 1.936 . S
O481 Fe480 1.886 . S
O481 Fe483 1.715 . S
Fe482 O484 1.886 . S
Fe482 O485 1.715 . S
Fe482 O492 1.935 1_455 S
Fe482 O493 2.077 1_455 S
Fe482 O499 1.935 . S
Fe482 O508 2.077 . S
Fe483 O481 1.715 . S
Fe483 O486 1.886 . S
Fe483 O490 1.935 1_455 S
Fe483 O495 2.077 1_455 S
Fe483 O501 1.935 . S
Fe483 O505 2.077 . S
O484 Fe480 1.715 . S
O484 Fe482 1.886 . S
O485 Fe482 1.715 . S
O485 Fe487 1.886 . S
O486 Fe483 1.886 . S
O486 Fe487 1.715 . S
Fe487 O485 1.886 . S
Fe487 O486 1.715 . S
Fe487 O491 2.077 1_455 S
Fe487 O496 1.936 1_455 S
Fe487 O498 2.077 . S
Fe487 O506 1.935 . S
C488 O500 1.381 . S
C488 O501 1.421 . S
O489 Fe480 2.077 1_655 S
O489 C502 1.381 . S
O490 Fe483 1.935 1_655 S
O490 C502 1.421 . S
O491 Fe487 2.077 1_655 S
O491 C507 1.381 . S
O492 Fe482 1.935 1_655 S
O492 C507 1.421 . S
O493 Fe482 2.077 1_655 S
O493 C497 1.381 . S
O494 Fe480 1.935 1_655 S
O494 C497 1.421 . S
O495 Fe483 2.077 1_655 S
O495 C503 1.381 . S
O496 Fe487 1.936 1_655 S
O496 C503 1.421 . S
C497 O493 1.381 . S
C497 O494 1.421 . S
O498 Fe487 2.077 . S
O498 C510 1.381 . S
O499 Fe482 1.935 . S
O499 C510 1.421 . S
O500 Fe480 2.077 . S
O500 C488 1.381 . S
O501 Fe483 1.935 . S
O501 C488 1.421 . S
C502 O489 1.381 . S
C502 O490 1.421 . S
C503 O495 1.381 . S
C503 O496 1.421 . S
C504 O505 1.381 . S
C504 O506 1.421 . S
O505 Fe483 2.077 . S
O505 C504 1.381 . S
O506 Fe487 1.935 . S
O506 C504 1.421 . S
C507 O491 1.381 . S
C507 O492 1.421 . S
O508 Fe482 2.077 . S
O508 C511 1.381 . S
O509 Fe480 1.936 . S
O509 C511 1.421 . S
C510 O498 1.381 . S
C510 O499 1.421 . S
C511 O508 1.381 . S
C511 O509 1.421 . S
C512 C513 1.349 . S
C512 C514 1.327 . S
C512 H537 0.961 . S
C513 C512 1.349 . S
C513 C529 1.349 . S
C514 C512 1.327 . S
C514 C533 1.429 . S
C514 H538 0.950 . S
C515 C532 1.574 . S
C515 C534 1.368 . S
C515 H539 0.949 . S
H516 C520 0.949 . S
C517 C518 1.349 . S
C517 C519 1.327 . S
C517 H540 0.950 . S
C518 C517 1.349 . S
C518 C530 1.349 . S
C519 C517 1.327 . S
C519 C535 1.429 . S
C519 H541 0.950 . S
C520 H516 0.949 . S
C520 C528 1.574 . S
C520 C536 1.368 . S
H521 C529 0.950 . S
H522 C527 0.950 . S
H523 C528 0.949 . S
H524 C530 0.950 . S
H525 C531 0.950 . S
H526 C532 0.949 . S
C527 H522 0.950 . S
C527 C529 1.327 . S
C527 C533 1.429 . S
C528 C520 1.574 . S
C528 H523 0.949 . S
C528 C534 1.368 . S
C529 C513 1.349 . S
C529 H521 0.950 . S
C529 C527 1.327 . S
C530 C518 1.349 . S
C530 H524 0.950 . S
C530 C531 1.327 . S
C531 H525 0.950 . S
C531 C530 1.327 . S
C531 C535 1.429 . S
C532 C515 1.574 . S
C532 H526 0.949 . S
C532 C536 1.368 . S
C533 C514 1.429 . S
C533 C527 1.429 . S
C533 C534 1.523 . S
C534 C515 1.368 . S
C534 C528 1.368 . S
C534 C533 1.523 . S
C535 C519 1.429 . S
C535 C531 1.429 . S
C535 C536 1.523 . S
C536 C520 1.368 . S
C536 C532 1.368 . S
C536 C535 1.523 . S
H537 C512 0.961 . S
H538 C514 0.950 . S
H539 C515 0.949 . S
H540 C517 0.950 . S
H541 C519 0.950 . S
C542 C543 1.349 . S
C542 C544 1.327 . S
C542 H567 0.950 . S
C543 C542 1.349 . S
C543 C559 1.349 . S
C544 C542 1.327 . S
C544 C563 1.429 . S
C544 H568 0.950 . S
C545 C562 1.574 . S
C545 C564 1.368 . S
C545 H569 0.949 . S
H546 C550 0.949 . S
C547 C548 1.349 . S
C547 C549 1.327 . S
C547 H570 0.950 . S
C548 C547 1.349 . S
C548 C560 1.349 . S
C549 C547 1.327 . S
C549 C565 1.429 . S
C549 H571 0.950 . S
C550 H546 0.949 . S
C550 C558 1.574 . S
C550 C566 1.368 . S
H551 C559 0.950 . S
H552 C557 0.950 . S
H553 C558 0.949 . S
H554 C560 0.950 . S
H555 C561 0.950 . S
H556 C562 0.949 . S
C557 H552 0.950 . S
C557 C559 1.327 . S
C557 C563 1.429 . S
C558 C550 1.574 . S
C558 H553 0.949 . S
C558 C564 1.368 . S
C559 C543 1.349 . S
C559 H551 0.950 . S
C559 C557 1.327 . S
C560 C548 1.349 . S
C560 H554 0.950 . S
C560 C561 1.327 . S
C561 H555 0.950 . S
C561 C560 1.327 . S
C561 C565 1.429 . S
C562 C545 1.574 . S
C562 H556 0.949 . S
C562 C566 1.368 . S
C563 C544 1.429 . S
C563 C557 1.429 . S
C563 C564 1.523 1_565 S
C564 C545 1.368 . S
C564 C558 1.368 . S
C564 C563 1.523 1_545 S
C565 C549 1.429 . S
C565 C561 1.429 . S
C565 C566 1.523 . S
C566 C550 1.368 . S
C566 C562 1.368 . S
C566 C565 1.523 . S
H567 C542 0.950 . S
H568 C544 0.950 . S
H569 C545 0.949 . S
H570 C547 0.950 . S
H571 C549 0.950 . S
C572 C573 1.349 . S
C572 C574 1.327 . S
C572 H597 0.950 . S
C573 C572 1.349 . S
C573 C589 1.349 . S
C574 C572 1.327 . S
C574 C593 1.429 . S
C574 H598 0.950 . S
C575 C592 1.574 . S
C575 C594 1.368 . S
C575 H599 0.949 . S
H576 C580 0.949 . S
C577 C578 1.349 . S
C577 C579 1.327 . S
C577 H600 0.950 . S
C578 C577 1.349 . S
C578 C590 1.349 . S
C579 C577 1.327 . S
C579 C595 1.429 . S
C579 H601 0.950 . S
C580 H576 0.949 . S
C580 C588 1.574 . S
C580 C596 1.368 . S
H581 C589 0.950 . S
H582 C587 0.950 . S
H583 C588 0.949 . S
H584 C590 0.950 . S
H585 C591 0.950 . S
H586 C592 0.949 . S
C587 H582 0.950 . S
C587 C589 1.327 . S
C587 C593 1.429 . S
C588 C580 1.574 . S
C588 H583 0.949 . S
C588 C594 1.368 . S
C589 C573 1.349 . S
C589 H581 0.950 . S
C589 C587 1.327 . S
C590 C578 1.349 . S
C590 H584 0.950 . S
C590 C591 1.327 . S
C591 H585 0.950 . S
C591 C590 1.327 . S
C591 C595 1.429 . S
C592 C575 1.574 . S
C592 H586 0.949 . S
C592 C596 1.368 . S
C593 C574 1.429 . S
C593 C587 1.429 . S
C593 C594 1.523 . S
C594 C575 1.368 . S
C594 C588 1.368 . S
C594 C593 1.523 . S
C595 C579 1.429 . S
C595 C591 1.429 . S
C595 C596 1.523 . S
C596 C580 1.368 . S
C596 C592 1.368 . S
C596 C595 1.523 . S
H597 C572 0.950 . S
H598 C574 0.950 . S
H599 C575 0.949 . S
H600 C577 0.950 . S
H601 C579 0.950 . S
C602 C603 1.349 . S
C602 C604 1.327 . S
C602 H627 0.950 . S
C603 C602 1.349 . S
C603 C619 1.349 . S
C604 C602 1.327 . S
C604 C623 1.429 . S
C604 H628 0.950 . S
C605 C622 1.574 . S
C605 C624 1.368 . S
C605 H629 0.949 . S
H606 C610 0.949 . S
C607 C608 1.349 . S
C607 C609 1.327 . S
C607 H630 0.950 . S
C608 C607 1.349 . S
C608 C620 1.349 . S
C609 C607 1.327 . S
C609 C625 1.429 . S
C609 H631 0.950 . S
C610 H606 0.949 . S
C610 C618 1.574 . S
C610 C626 1.368 . S
H611 C619 0.950 . S
H612 C617 0.950 . S
H613 C618 0.949 . S
H614 C620 0.950 . S
H615 C621 0.950 . S
H616 C622 0.949 . S
C617 H612 0.950 . S
C617 C619 1.327 . S
C617 C623 1.429 . S
C618 C610 1.574 . S
C618 H613 0.949 . S
C618 C624 1.368 . S
C619 C603 1.349 . S
C619 H611 0.950 . S
C619 C617 1.327 . S
C620 C608 1.349 . S
C620 H614 0.950 . S
C620 C621 1.327 . S
C621 H615 0.950 . S
C621 C620 1.327 . S
C621 C625 1.429 . S
C622 C605 1.574 . S
C622 H616 0.949 . S
C622 C626 1.368 . S
C623 C604 1.429 . S
C623 C617 1.429 . S
C623 C624 1.523 1_545 S
C624 C605 1.368 . S
C624 C618 1.368 . S
C624 C623 1.523 1_565 S
C625 C609 1.429 . S
C625 C621 1.429 . S
C625 C626 1.523 . S
C626 C610 1.368 . S
C626 C622 1.368 . S
C626 C625 1.523 . S
H627 C602 0.950 . S
H628 C604 0.950 . S
H629 C605 0.949 . S
H630 C607 0.950 . S
H631 C609 0.950 . S
C632 C633 1.349 . S
C632 C634 1.327 . S
C632 H657 0.950 . S
C633 C632 1.349 . S
C633 C649 1.349 . S
C634 C632 1.327 . S
C634 C653 1.429 . S
C634 H658 0.950 . S
C635 C652 1.574 . S
C635 C654 1.368 . S
C635 H659 0.949 . S
H636 C640 0.949 . S
C637 C638 1.349 . S
C637 C639 1.327 . S
C637 H660 0.950 . S
C638 C637 1.349 . S
C638 C650 1.349 . S
C639 C637 1.327 . S
C639 C655 1.429 . S
C639 H661 0.950 . S
C640 H636 0.949 . S
C640 C648 1.574 . S
C640 C656 1.368 . S
H641 C649 0.950 . S
H642 C647 0.950 . S
H643 C648 0.949 . S
H644 C650 0.950 . S
H645 C651 0.950 . S
H646 C652 0.949 . S
C647 H642 0.950 . S
C647 C649 1.327 . S
C647 C653 1.429 . S
C648 C640 1.574 . S
C648 H643 0.949 . S
C648 C654 1.368 . S
C649 C633 1.349 . S
C649 H641 0.950 . S
C649 C647 1.327 . S
C650 C638 1.349 . S
C650 H644 0.950 . S
C650 C651 1.327 . S
C651 H645 0.950 . S
C651 C650 1.327 . S
C651 C655 1.429 . S
C652 C635 1.574 . S
C652 H646 0.949 . S
C652 C656 1.368 . S
C653 C634 1.429 . S
C653 C647 1.429 . S
C653 C654 1.523 . S
C654 C635 1.368 . S
C654 C648 1.368 . S
C654 C653 1.523 . S
C655 C639 1.429 . S
C655 C651 1.429 . S
C655 C656 1.523 . S
C656 C640 1.368 . S
C656 C652 1.368 . S
C656 C655 1.523 . S
H657 C632 0.950 . S
H658 C634 0.950 . S
H659 C635 0.949 . S
H660 C637 0.950 . S
H661 C639 0.950 . S
C662 C663 1.349 . S
C662 C664 1.327 . S
C662 H687 0.950 . S
C663 C662 1.349 . S
C663 C679 1.349 . S
C664 C662 1.327 . S
C664 C683 1.429 . S
C664 H688 0.950 . S
C665 C682 1.574 . S
C665 C684 1.368 . S
C665 H689 0.949 . S
H666 C670 0.949 . S
C667 C668 1.349 . S
C667 C669 1.327 . S
C667 H690 0.950 . S
C668 C667 1.349 . S
C668 C680 1.349 . S
C669 C667 1.327 . S
C669 C685 1.429 . S
C669 H691 0.950 . S
C670 H666 0.949 . S
C670 C678 1.574 . S
C670 C686 1.368 . S
H671 C679 0.950 . S
H672 C677 0.950 . S
H673 C678 0.949 . S
H674 C680 0.950 . S
H675 C681 0.950 . S
H676 C682 0.949 . S
C677 H672 0.950 . S
C677 C679 1.327 . S
C677 C683 1.429 . S
C678 C670 1.574 . S
C678 H673 0.949 . S
C678 C684 1.368 . S
C679 C663 1.349 . S
C679 H671 0.950 . S
C679 C677 1.327 . S
C680 C668 1.349 . S
C680 H674 0.950 . S
C680 C681 1.327 . S
C681 H675 0.950 . S
C681 C680 1.327 . S
C681 C685 1.429 . S
C682 C665 1.574 . S
C682 H676 0.949 . S
C682 C686 1.368 . S
C683 C664 1.429 . S
C683 C677 1.429 . S
C683 C684 1.523 1_565 S
C684 C665 1.368 . S
C684 C678 1.368 . S
C684 C683 1.523 1_545 S
C685 C669 1.429 . S
C685 C681 1.429 . S
C685 C686 1.523 . S
C686 C670 1.368 . S
C686 C682 1.368 . S
C686 C685 1.523 . S
H687 C662 0.950 . S
H688 C664 0.950 . S
H689 C665 0.949 . S
H690 C667 0.950 . S
H691 C669 0.950 . S
C692 C693 1.349 . S
C692 C694 1.327 . S
C692 H717 0.950 . S
C693 C692 1.349 . S
C693 C709 1.349 . S
C694 C692 1.327 . S
C694 C713 1.429 . S
C694 H718 0.950 . S
C695 C712 1.574 . S
C695 C714 1.368 . S
C695 H719 0.949 . S
H696 C700 0.949 . S
C697 C698 1.349 . S
C697 C699 1.327 . S
C697 H720 0.950 . S
C698 C697 1.349 . S
C698 C710 1.349 . S
C699 C697 1.327 . S
C699 C715 1.429 . S
C699 H721 0.950 . S
C700 H696 0.949 . S
C700 C708 1.574 . S
C700 C716 1.368 . S
H701 C709 0.950 . S
H702 C707 0.950 . S
H703 C708 0.949 . S
H704 C710 0.950 . S
H705 C711 0.950 . S
H706 C712 0.949 . S
C707 H702 0.950 . S
C707 C709 1.327 . S
C707 C713 1.429 . S
C708 C700 1.574 . S
C708 H703 0.949 . S
C708 C714 1.368 . S
C709 C693 1.349 . S
C709 H701 0.950 . S
C709 C707 1.327 . S
C710 C698 1.349 . S
C710 H704 0.950 . S
C710 C711 1.327 . S
C711 H705 0.950 . S
C711 C710 1.327 . S
C711 C715 1.429 . S
C712 C695 1.574 . S
C712 H706 0.949 . S
C712 C716 1.368 . S
C713 C694 1.429 . S
C713 C707 1.429 . S
C713 C714 1.523 . S
C714 C695 1.368 . S
C714 C708 1.368 . S
C714 C713 1.523 . S
C715 C699 1.429 . S
C715 C711 1.429 . S
C715 C716 1.523 . S
C716 C700 1.368 . S
C716 C712 1.368 . S
C716 C715 1.523 . S
H717 C692 0.950 . S
H718 C694 0.950 . S
H719 C695 0.949 . S
H720 C697 0.950 . S
H721 C699 0.950 . S
C722 C723 1.349 . S
C722 C724 1.327 . S
C722 H747 0.950 . S
C723 C722 1.349 . S
C723 C739 1.349 . S
C724 C722 1.327 . S
C724 C743 1.429 . S
C724 H748 0.950 . S
C725 C742 1.574 . S
C725 C744 1.368 . S
C725 H749 0.949 . S
H726 C730 0.949 . S
C727 C728 1.349 . S
C727 C729 1.327 . S
C727 H750 0.950 . S
C728 C727 1.349 . S
C728 C740 1.349 . S
C729 C727 1.327 . S
C729 C745 1.429 . S
C729 H751 0.950 . S
C730 H726 0.949 . S
C730 C738 1.574 1_565 S
C730 C746 1.368 . S
H731 C739 0.950 . S
H732 C737 0.950 . S
H733 C738 0.949 . S
H734 C740 0.950 . S
H735 C741 0.950 . S
H736 C742 0.949 . S
C737 H732 0.950 . S
C737 C739 1.327 . S
C737 C743 1.429 . S
C738 C730 1.574 1_545 S
C738 H733 0.949 . S
C738 C744 1.368 1_545 S
C739 C723 1.349 . S
C739 H731 0.950 . S
C739 C737 1.327 . S
C740 C728 1.349 . S
C740 H734 0.950 . S
C740 C741 1.327 . S
C741 H735 0.950 . S
C741 C740 1.327 . S
C741 C745 1.429 . S
C742 C725 1.574 . S
C742 H736 0.949 . S
C742 C746 1.368 . S
C743 C724 1.429 . S
C743 C737 1.429 . S
C743 C744 1.523 1_545 S
C744 C725 1.368 . S
C744 C738 1.368 1_565 S
C744 C743 1.523 1_565 S
C745 C729 1.429 . S
C745 C741 1.429 . S
C745 C746 1.523 . S
C746 C730 1.368 . S
C746 C742 1.368 . S
C746 C745 1.523 . S
H747 C722 0.950 . S
H748 C724 0.950 . S
H749 C725 0.949 . S
H750 C727 0.950 . S
H751 C729 0.950 . S
C752 C753 1.349 . S
C752 C754 1.327 . S
C752 H777 0.950 . S
C753 C752 1.349 . S
C753 C769 1.349 . S
C754 C752 1.327 . S
C754 C773 1.429 . S
C754 H778 0.950 . S
C755 C772 1.574 . S
C755 C774 1.368 . S
C755 H779 0.949 . S
H756 C760 0.949 . S
C757 C758 1.349 . S
C757 C759 1.327 . S
C757 H780 0.950 . S
C758 C757 1.349 . S
C758 C770 1.349 . S
C759 C757 1.327 . S
C759 C775 1.429 . S
C759 H781 0.950 . S
C760 H756 0.949 . S
C760 C768 1.574 . S
C760 C776 1.368 . S
H761 C769 0.950 . S
H762 C767 0.950 . S
H763 C768 0.949 . S
H764 C770 0.950 . S
H765 C771 0.950 . S
H766 C772 0.949 . S
C767 H762 0.950 . S
C767 C769 1.327 . S
C767 C773 1.429 . S
C768 C760 1.574 . S
C768 H763 0.949 . S
C768 C774 1.368 . S
C769 C753 1.349 . S
C769 H761 0.950 . S
C769 C767 1.327 . S
C770 C758 1.349 . S
C770 H764 0.950 . S
C770 C771 1.327 . S
C771 H765 0.950 . S
C771 C770 1.327 . S
C771 C775 1.429 . S
C772 C755 1.574 . S
C772 H766 0.949 . S
C772 C776 1.368 . S
C773 C754 1.429 . S
C773 C767 1.429 . S
C773 C774 1.523 . S
C774 C755 1.368 . S
C774 C768 1.368 . S
C774 C773 1.523 . S
C775 C759 1.429 . S
C775 C771 1.429 . S
C775 C776 1.523 . S
C776 C760 1.368 . S
C776 C772 1.368 . S
C776 C775 1.523 . S
H777 C752 0.950 . S
H778 C754 0.950 . S
H779 C755 0.949 . S
H780 C757 0.950 . S
H781 C759 0.950 . S
C782 C783 1.349 . S
C782 C784 1.327 . S
C782 H807 0.950 . S
C783 C782 1.349 . S
C783 C799 1.349 . S
C784 C782 1.327 . S
C784 C803 1.429 . S
C784 H808 0.950 . S
C785 C802 1.574 . S
C785 C804 1.368 . S
C785 H809 0.949 . S
H786 C790 0.949 . S
C787 C788 1.349 . S
C787 C789 1.327 . S
C787 H810 0.950 . S
C788 C787 1.349 . S
C788 C800 1.349 . S
C789 C787 1.327 . S
C789 C805 1.429 . S
C789 H811 0.950 . S
C790 H786 0.949 . S
C790 C798 1.574 1_565 S
C790 C806 1.368 . S
H791 C799 0.950 . S
H792 C797 0.973 . S
H793 C798 0.949 . S
H794 C800 0.950 . S
H795 C801 0.950 . S
H796 C802 0.949 . S
C797 H792 0.973 . S
C797 C799 1.327 . S
C797 C803 1.429 . S
C798 C790 1.574 1_545 S
C798 H793 0.949 . S
C798 C804 1.368 1_545 S
C799 C783 1.349 . S
C799 H791 0.950 . S
C799 C797 1.327 . S
C800 C788 1.349 . S
C800 H794 0.950 . S
C800 C801 1.327 . S
C801 H795 0.950 . S
C801 C800 1.327 . S
C801 C805 1.429 . S
C802 C785 1.574 . S
C802 H796 0.949 . S
C802 C806 1.368 . S
C803 C784 1.429 . S
C803 C797 1.429 . S
C803 C804 1.523 1_545 S
C804 C785 1.368 . S
C804 C798 1.368 1_565 S
C804 C803 1.523 1_565 S
C805 C789 1.429 . S
C805 C801 1.429 . S
C805 C806 1.523 . S
C806 C790 1.368 . S
C806 C802 1.368 . S
C806 C805 1.523 . S
H807 C782 0.950 . S
H808 C784 0.950 . S
H809 C785 0.949 . S
H810 C787 0.950 . S
H811 C789 0.950 . S
C812 C813 1.349 . S
C812 C814 1.327 . S
C812 H837 0.950 . S
C813 C812 1.349 . S
C813 C829 1.349 . S
C814 C812 1.327 . S
C814 C833 1.429 . S
C814 H838 0.950 . S
C815 C832 1.574 . S
C815 C834 1.368 . S
C815 H839 0.949 . S
H816 C820 0.949 . S
C817 C818 1.349 . S
C817 C819 1.327 . S
C817 H840 0.950 . S
C818 C817 1.349 . S
C818 C830 1.349 . S
C819 C817 1.327 . S
C819 C835 1.429 . S
C819 H841 0.950 . S
C820 H816 0.949 . S
C820 C828 1.574 . S
C820 C836 1.368 . S
H821 C829 0.950 . S
H822 C827 0.950 . S
H823 C828 0.949 . S
H824 C830 0.950 . S
H825 C831 0.950 . S
H826 C832 0.949 . S
C827 H822 0.950 . S
C827 C829 1.327 . S
C827 C833 1.429 . S
C828 C820 1.574 . S
C828 H823 0.949 . S
C828 C834 1.368 . S
C829 C813 1.349 . S
C829 H821 0.950 . S
C829 C827 1.327 . S
C830 C818 1.349 . S
C830 H824 0.950 . S
C830 C831 1.327 . S
C831 H825 0.950 . S
C831 C830 1.327 . S
C831 C835 1.429 . S
C832 C815 1.574 . S
C832 H826 0.949 . S
C832 C836 1.368 . S
C833 C814 1.429 . S
C833 C827 1.429 . S
C833 C834 1.523 . S
C834 C815 1.368 . S
C834 C828 1.368 . S
C834 C833 1.523 . S
C835 C819 1.429 . S
C835 C831 1.429 . S
C835 C836 1.523 . S
C836 C820 1.368 . S
C836 C832 1.368 . S
C836 C835 1.523 . S
H837 C812 0.950 . S
H838 C814 0.950 . S
H839 C815 0.949 . S
H840 C817 0.950 . S
H841 C819 0.950 . S
C842 C843 1.349 . S
C842 C844 1.327 . S
C842 H867 0.950 . S
C843 C842 1.349 . S
C843 C859 1.349 . S
C844 C842 1.327 . S
C844 C863 1.429 . S
C844 H868 0.950 . S
C845 C862 1.574 . S
C845 C864 1.368 . S
C845 H869 0.949 . S
H846 C850 0.949 . S
C847 C848 1.349 . S
C847 C849 1.327 . S
C847 H870 0.950 . S
C848 C847 1.349 . S
C848 C860 1.349 . S
C849 C847 1.327 . S
C849 C865 1.429 . S
C849 H871 0.950 . S
C850 H846 0.949 . S
C850 C858 1.574 . S
C850 C866 1.368 . S
H851 C859 0.950 . S
H852 C857 0.950 . S
H853 C858 0.949 . S
H854 C860 0.950 . S
H855 C861 0.950 . S
H856 C862 0.949 . S
C857 H852 0.950 . S
C857 C859 1.327 . S
C857 C863 1.429 . S
C858 C850 1.574 . S
C858 H853 0.949 . S
C858 C864 1.368 . S
C859 C843 1.349 . S
C859 H851 0.950 . S
C859 C857 1.327 . S
C860 C848 1.349 . S
C860 H854 0.950 . S
C860 C861 1.327 . S
C861 H855 0.950 . S
C861 C860 1.327 . S
C861 C865 1.429 . S
C862 C845 1.574 . S
C862 H856 0.949 . S
C862 C866 1.368 . S
C863 C844 1.429 . S
C863 C857 1.429 . S
C863 C864 1.523 1_565 S
C864 C845 1.368 . S
C864 C858 1.368 . S
C864 C863 1.523 1_545 S
C865 C849 1.429 . S
C865 C861 1.429 . S
C865 C866 1.523 . S
C866 C850 1.368 . S
C866 C862 1.368 . S
C866 C865 1.523 . S
H867 C842 0.950 . S
H868 C844 0.950 . S
H869 C845 0.949 . S
H870 C847 0.950 . S
H871 C849 0.950 . S
C872 C873 1.349 . S
C872 C874 1.327 . S
C872 H897 0.950 . S
C873 C872 1.349 . S
C873 C889 1.349 . S
C874 C872 1.327 . S
C874 C893 1.429 . S
C874 H898 0.950 . S
C875 C892 1.574 . S
C875 C894 1.368 . S
C875 H899 0.949 . S
H876 C880 0.949 . S
C877 C878 1.349 . S
C877 C879 1.327 . S
C877 H900 0.950 . S
C878 C877 1.349 . S
C878 C890 1.349 . S
C879 C877 1.327 . S
C879 C895 1.429 . S
C879 H901 0.950 . S
C880 H876 0.949 . S
C880 C888 1.574 . S
C880 C896 1.368 . S
H881 C889 0.950 . S
H882 C887 0.950 . S
H883 C888 0.949 . S
H884 C890 0.950 . S
H885 C891 0.950 . S
H886 C892 0.949 . S
C887 H882 0.950 . S
C887 C889 1.327 . S
C887 C893 1.429 . S
C888 C880 1.574 . S
C888 H883 0.949 . S
C888 C894 1.368 . S
C889 C873 1.349 . S
C889 H881 0.950 . S
C889 C887 1.327 . S
C890 C878 1.349 . S
C890 H884 0.950 . S
C890 C891 1.327 . S
C891 H885 0.950 . S
C891 C890 1.327 . S
C891 C895 1.429 . S
C892 C875 1.574 . S
C892 H886 0.949 . S
C892 C896 1.368 . S
C893 C874 1.429 . S
C893 C887 1.429 . S
C893 C894 1.523 . S
C894 C875 1.368 . S
C894 C888 1.368 . S
C894 C893 1.523 . S
C895 C879 1.429 . S
C895 C891 1.429 . S
C895 C896 1.523 . S
C896 C880 1.368 . S
C896 C892 1.368 . S
C896 C895 1.523 . S
H897 C872 0.950 . S
H898 C874 0.950 . S
H899 C875 0.949 . S
H900 C877 0.950 . S
H901 C879 0.950 . S
C902 C903 1.349 . S
C902 C904 1.327 . S
C902 H927 0.950 . S
C903 C902 1.349 . S
C903 C919 1.349 . S
C904 C902 1.327 . S
C904 C923 1.429 . S
C904 H928 0.931 1_545 S
C905 C922 1.574 1_545 S
C905 C924 1.368 1_545 S
C905 H929 0.949 . S
H906 C910 0.949 . S
C907 C908 1.349 . S
C907 C909 1.327 . S
C907 H930 0.950 . S
C908 C907 1.349 . S
C908 C920 1.349 . S
C909 C907 1.327 . S
C909 C925 1.429 . S
C909 H931 0.950 . S
C910 H906 0.949 . S
C910 C918 1.574 . S
C910 C926 1.368 . S
H911 C919 0.950 . S
H912 C917 0.950 . S
H913 C918 0.949 . S
H914 C920 0.950 . S
H915 C921 0.950 . S
H916 C922 0.949 . S
C917 H912 0.950 . S
C917 C919 1.327 . S
C917 C923 1.429 . S
C918 C910 1.574 . S
C918 H913 0.949 . S
C918 C924 1.368 . S
C919 C903 1.349 . S
C919 H911 0.950 . S
C919 C917 1.327 . S
C920 C908 1.349 . S
C920 H914 0.950 . S
C920 C921 1.327 . S
C921 H915 0.950 . S
C921 C920 1.327 . S
C921 C925 1.429 . S
C922 C905 1.574 1_565 S
C922 H916 0.949 . S
C922 C926 1.368 . S
C923 C904 1.429 . S
C923 C917 1.429 . S
C923 C924 1.523 1_545 S
C924 C905 1.368 1_565 S
C924 C918 1.368 . S
C924 C923 1.523 1_565 S
C925 C909 1.429 . S
C925 C921 1.429 . S
C925 C926 1.523 . S
C926 C910 1.368 . S
C926 C922 1.368 . S
C926 C925 1.523 . S
H927 C902 0.950 . S
H928 C904 0.931 1_565 S
H929 C905 0.949 . S
H930 C907 0.950 . S
H931 C909 0.950 . S
C932 C933 1.349 . S
C932 C934 1.327 . S
C932 H957 0.950 . S
C933 C932 1.349 . S
C933 C949 1.349 . S
C934 C932 1.327 . S
C934 C953 1.429 . S
C934 H958 0.950 . S
C935 C952 1.574 . S
C935 C954 1.368 . S
C935 H959 0.949 . S
H936 C940 0.949 . S
C937 C938 1.349 . S
C937 C939 1.327 . S
C937 H960 0.950 . S
C938 C937 1.349 . S
C938 C950 1.349 . S
C939 C937 1.327 . S
C939 C955 1.429 . S
C939 H961 0.950 . S
C940 H936 0.949 . S
C940 C948 1.574 . S
C940 C956 1.368 . S
H941 C949 0.950 . S
H942 C947 0.950 . S
H943 C948 0.949 . S
H944 C950 0.950 . S
H945 C951 0.950 . S
H946 C952 0.949 . S
C947 H942 0.950 . S
C947 C949 1.327 . S
C947 C953 1.429 . S
C948 C940 1.574 . S
C948 H943 0.949 . S
C948 C954 1.368 . S
C949 C933 1.349 . S
C949 H941 0.950 . S
C949 C947 1.327 . S
C950 C938 1.349 . S
C950 H944 0.950 . S
C950 C951 1.327 . S
C951 H945 0.950 . S
C951 C950 1.327 . S
C951 C955 1.429 . S
C952 C935 1.574 . S
C952 H946 0.949 . S
C952 C956 1.368 . S
C953 C934 1.429 . S
C953 C947 1.429 . S
C953 C954 1.523 . S
C954 C935 1.368 . S
C954 C948 1.368 . S
C954 C953 1.523 . S
C955 C939 1.429 . S
C955 C951 1.429 . S
C955 C956 1.523 . S
C956 C940 1.368 . S
C956 C952 1.368 . S
C956 C955 1.523 . S
H957 C932 0.950 . S
H958 C934 0.950 . S
H959 C935 0.949 . S
H960 C937 0.950 . S
H961 C939 0.950 . S
C962 C963 1.349 . S
C962 C964 1.327 . S
C962 H987 0.950 . S
C963 C962 1.349 . S
C963 C979 1.349 . S
C964 C962 1.327 . S
C964 C983 1.429 . S
C964 H988 0.950 1_565 S
C965 C982 1.574 . S
C965 C984 1.368 . S
C965 H989 0.949 1_545 S
H966 C970 0.949 . S
C967 C968 1.349 . S
C967 C969 1.327 . S
C967 H990 0.950 . S
C968 C967 1.349 . S
C968 C980 1.349 . S
C969 C967 1.327 . S
C969 C985 1.429 . S
C969 H991 0.950 . S
C970 H966 0.949 . S
C970 C978 1.574 . S
C970 C986 1.368 . S
H971 C979 0.950 . S
H972 C977 0.950 . S
H973 C978 0.949 . S
H974 C980 0.950 . S
H975 C981 0.950 . S
H976 C982 0.949 . S
C977 H972 0.950 . S
C977 C979 1.327 . S
C977 C983 1.429 . S
C978 C970 1.574 . S
C978 H973 0.949 . S
C978 C984 1.368 . S
C979 C963 1.349 . S
C979 H971 0.950 . S
C979 C977 1.327 . S
C980 C968 1.349 . S
C980 H974 0.950 . S
C980 C981 1.327 . S
C981 H975 0.950 . S
C981 C980 1.327 . S
C981 C985 1.429 . S
C982 C965 1.574 . S
C982 H976 0.949 . S
C982 C986 1.368 . S
C983 C964 1.429 . S
C983 C977 1.429 . S
C983 C984 1.523 1_565 S
C984 C965 1.368 . S
C984 C978 1.368 . S
C984 C983 1.523 1_545 S
C985 C969 1.429 . S
C985 C981 1.429 . S
C985 C986 1.523 . S
C986 C970 1.368 . S
C986 C982 1.368 . S
C986 C985 1.523 . S
H987 C962 0.950 . S
H988 C964 0.950 1_545 S
H989 C965 0.949 1_565 S
H990 C967 0.950 . S
H991 C969 0.950 . S
C992 C993 1.349 . S
C992 C994 1.327 . S
C992 H1017 0.950 . S
C993 C992 1.349 . S
C993 C1009 1.349 . S
C994 C992 1.327 . S
C994 C1013 1.429 . S
C994 H1018 0.950 . S
C995 C1012 1.574 . S
C995 C1014 1.368 . S
C995 H1019 0.949 . S
H996 C1000 0.949 . S
C997 C998 1.349 . S
C997 C999 1.327 . S
C997 H1020 0.950 . S
C998 C997 1.349 . S
C998 C1010 1.349 . S
C999 C997 1.327 . S
C999 C1015 1.429 . S
C999 H1021 0.950 . S
C1000 H996 0.949 . S
C1000 C1008 1.574 . S
C1000 C1016 1.368 . S
H1001 C1009 0.950 . S
H1002 C1007 0.950 . S
H1003 C1008 0.949 . S
H1004 C1010 0.950 . S
H1005 C1011 0.950 . S
H1006 C1012 0.949 . S
C1007 H1002 0.950 . S
C1007 C1009 1.327 . S
C1007 C1013 1.429 . S
C1008 C1000 1.574 . S
C1008 H1003 0.949 . S
C1008 C1014 1.368 . S
C1009 C993 1.349 . S
C1009 H1001 0.950 . S
C1009 C1007 1.327 . S
C1010 C998 1.349 . S
C1010 H1004 0.950 . S
C1010 C1011 1.327 . S
C1011 H1005 0.950 . S
C1011 C1010 1.327 . S
C1011 C1015 1.429 . S
C1012 C995 1.574 . S
C1012 H1006 0.949 . S
C1012 C1016 1.368 . S
C1013 C994 1.429 . S
C1013 C1007 1.429 . S
C1013 C1014 1.523 . S
C1014 C995 1.368 . S
C1014 C1008 1.368 . S
C1014 C1013 1.523 . S
C1015 C999 1.429 . S
C1015 C1011 1.429 . S
C1015 C1016 1.523 . S
C1016 C1000 1.368 . S
C1016 C1012 1.368 . S
C1016 C1015 1.523 . S
H1017 C992 0.950 . S
H1018 C994 0.950 . S
H1019 C995 0.949 . S
H1020 C997 0.950 . S
H1021 C999 0.950 . S
C1022 C1023 1.349 . S
C1022 C1024 1.327 . S
C1022 H1047 0.950 . S
C1023 C1022 1.349 . S
C1023 C1039 1.349 . S
C1024 C1022 1.327 . S
C1024 C1043 1.429 . S
C1024 H1048 0.950 . S
C1025 C1042 1.574 . S
C1025 C1044 1.368 . S
C1025 H1049 0.949 . S
H1026 C1030 0.949 . S
C1027 C1028 1.349 . S
C1027 C1029 1.327 . S
C1027 H1050 0.950 . S
C1028 C1027 1.349 . S
C1028 C1040 1.349 . S
C1029 C1027 1.327 . S
C1029 C1045 1.429 . S
C1029 H1051 0.950 . S
C1030 H1026 0.949 . S
C1030 C1038 1.574 . S
C1030 C1046 1.368 . S
H1031 C1039 0.950 . S
H1032 C1037 0.950 . S
H1033 C1038 0.949 . S
H1034 C1040 0.950 . S
H1035 C1041 0.950 . S
H1036 C1042 0.949 . S
C1037 H1032 0.950 . S
C1037 C1039 1.327 . S
C1037 C1043 1.429 . S
C1038 C1030 1.574 . S
C1038 H1033 0.949 . S
C1038 C1044 1.368 . S
C1039 C1023 1.349 . S
C1039 H1031 0.950 . S
C1039 C1037 1.327 . S
C1040 C1028 1.349 . S
C1040 H1034 0.950 . S
C1040 C1041 1.327 . S
C1041 H1035 0.950 . S
C1041 C1040 1.327 . S
C1041 C1045 1.429 . S
C1042 C1025 1.574 . S
C1042 H1036 0.949 . S
C1042 C1046 1.368 . S
C1043 C1024 1.429 . S
C1043 C1037 1.429 . S
C1043 C1044 1.523 . S
C1044 C1025 1.368 . S
C1044 C1038 1.368 . S
C1044 C1043 1.523 . S
C1045 C1029 1.429 . S
C1045 C1041 1.429 . S
C1045 C1046 1.523 . S
C1046 C1030 1.368 . S
C1046 C1042 1.368 . S
C1046 C1045 1.523 . S
H1047 C1022 0.950 . S
H1048 C1024 0.950 . S
H1049 C1025 0.949 . S
H1050 C1027 0.950 . S
H1051 C1029 0.950 . S
C1052 C1053 1.349 . S
C1052 C1054 1.327 . S
C1052 H1077 0.950 . S
C1053 C1052 1.349 . S
C1053 C1069 1.349 . S
C1054 C1052 1.327 . S
C1054 C1073 1.429 . S
C1054 H1078 0.950 . S
C1055 C1072 1.574 . S
C1055 C1074 1.368 . S
C1055 H1079 0.949 . S
H1056 C1060 0.949 . S
C1057 C1058 1.349 . S
C1057 C1059 1.327 . S
C1057 H1080 0.950 . S
C1058 C1057 1.349 . S
C1058 C1070 1.349 . S
C1059 C1057 1.327 . S
C1059 C1075 1.429 . S
C1059 H1081 0.950 . S
C1060 H1056 0.949 . S
C1060 C1068 1.574 . S
C1060 C1076 1.368 . S
H1061 C1069 0.950 . S
H1062 C1067 0.950 . S
H1063 C1068 0.949 . S
H1064 C1070 0.950 . S
H1065 C1071 0.950 . S
H1066 C1072 0.949 . S
C1067 H1062 0.950 . S
C1067 C1069 1.327 . S
C1067 C1073 1.429 . S
C1068 C1060 1.574 . S
C1068 H1063 0.949 . S
C1068 C1074 1.368 . S
C1069 C1053 1.349 . S
C1069 H1061 0.950 . S
C1069 C1067 1.327 . S
C1070 C1058 1.349 . S
C1070 H1064 0.950 . S
C1070 C1071 1.327 . S
C1071 H1065 0.950 . S
C1071 C1070 1.327 . S
C1071 C1075 1.429 . S
C1072 C1055 1.574 . S
C1072 H1066 0.949 . S
C1072 C1076 1.368 . S
C1073 C1054 1.429 . S
C1073 C1067 1.429 . S
C1073 C1074 1.523 . S
C1074 C1055 1.368 . S
C1074 C1068 1.368 . S
C1074 C1073 1.523 . S
C1075 C1059 1.429 . S
C1075 C1071 1.429 . S
C1075 C1076 1.523 . S
C1076 C1060 1.368 . S
C1076 C1072 1.368 . S
C1076 C1075 1.523 . S
H1077 C1052 0.950 . S
H1078 C1054 0.950 . S
H1079 C1055 0.949 . S
H1080 C1057 0.950 . S
H1081 C1059 0.950 . S
C1082 C1083 1.349 . S
C1082 C1084 1.327 . S
C1082 H1107 0.950 . S
C1083 C1082 1.349 . S
C1083 C1099 1.349 . S
C1084 C1082 1.327 . S
C1084 C1103 1.429 . S
C1084 H1108 0.950 . S
C1085 C1102 1.574 . S
C1085 C1104 1.368 . S
C1085 H1109 0.949 . S
H1086 C1090 0.949 . S
C1087 C1088 1.349 . S
C1087 C1089 1.327 . S
C1087 H1110 0.950 . S
C1088 C1087 1.349 . S
C1088 C1100 1.349 . S
C1089 C1087 1.327 . S
C1089 C1105 1.429 . S
C1089 H1111 0.950 . S
C1090 H1086 0.949 . S
C1090 C1098 1.574 . S
C1090 C1106 1.368 . S
H1091 C1099 0.950 . S
H1092 C1097 0.950 . S
H1093 C1098 0.949 . S
H1094 C1100 0.950 . S
H1095 C1101 0.950 . S
H1096 C1102 0.949 . S
C1097 H1092 0.950 . S
C1097 C1099 1.327 . S
C1097 C1103 1.429 . S
C1098 C1090 1.574 . S
C1098 H1093 0.949 . S
C1098 C1104 1.368 . S
C1099 C1083 1.349 . S
C1099 H1091 0.950 . S
C1099 C1097 1.327 . S
C1100 C1088 1.349 . S
C1100 H1094 0.950 . S
C1100 C1101 1.327 . S
C1101 H1095 0.950 . S
C1101 C1100 1.327 . S
C1101 C1105 1.429 . S
C1102 C1085 1.574 . S
C1102 H1096 0.949 . S
C1102 C1106 1.368 . S
C1103 C1084 1.429 . S
C1103 C1097 1.429 . S
C1103 C1104 1.523 . S
C1104 C1085 1.368 . S
C1104 C1098 1.368 . S
C1104 C1103 1.523 . S
C1105 C1089 1.429 . S
C1105 C1101 1.429 . S
C1105 C1106 1.523 . S
C1106 C1090 1.368 . S
C1106 C1102 1.368 . S
C1106 C1105 1.523 . S
H1107 C1082 0.950 . S
H1108 C1084 0.950 . S
H1109 C1085 0.949 . S
H1110 C1087 0.950 . S
H1111 C1089 0.950 . S
C1112 C1113 1.349 . S
C1112 C1114 1.327 . S
C1112 H1137 0.950 . S
C1113 C1112 1.349 . S
C1113 C1129 1.349 . S
C1114 C1112 1.327 . S
C1114 C1133 1.429 . S
C1114 H1138 0.950 . S
C1115 C1132 1.574 . S
C1115 C1134 1.368 . S
C1115 H1139 0.949 . S
H1116 C1120 0.949 . S
C1117 C1118 1.349 . S
C1117 C1119 1.327 . S
C1117 H1140 0.950 . S
C1118 C1117 1.349 . S
C1118 C1130 1.349 . S
C1119 C1117 1.327 . S
C1119 C1135 1.429 . S
C1119 H1141 0.950 . S
C1120 H1116 0.949 . S
C1120 C1128 1.574 . S
C1120 C1136 1.368 . S
H1121 C1129 0.950 . S
H1122 C1127 0.950 . S
H1123 C1128 0.949 . S
H1124 C1130 0.950 . S
H1125 C1131 0.950 . S
H1126 C1132 0.949 . S
C1127 H1122 0.950 . S
C1127 C1129 1.327 . S
C1127 C1133 1.429 . S
C1128 C1120 1.574 . S
C1128 H1123 0.949 . S
C1128 C1134 1.368 . S
C1129 C1113 1.349 . S
C1129 H1121 0.950 . S
C1129 C1127 1.327 . S
C1130 C1118 1.349 . S
C1130 H1124 0.950 . S
C1130 C1131 1.327 . S
C1131 H1125 0.950 . S
C1131 C1130 1.327 . S
C1131 C1135 1.429 . S
C1132 C1115 1.574 . S
C1132 H1126 0.949 . S
C1132 C1136 1.368 . S
C1133 C1114 1.429 . S
C1133 C1127 1.429 . S
C1133 C1134 1.523 . S
C1134 C1115 1.368 . S
C1134 C1128 1.368 . S
C1134 C1133 1.523 . S
C1135 C1119 1.429 . S
C1135 C1131 1.429 . S
C1135 C1136 1.523 . S
C1136 C1120 1.368 . S
C1136 C1132 1.368 . S
C1136 C1135 1.523 . S
H1137 C1112 0.950 . S
H1138 C1114 0.950 . S
H1139 C1115 0.949 . S
H1140 C1117 0.950 . S
H1141 C1119 0.950 . S
C1142 C1143 1.349 . S
C1142 C1144 1.327 . S
C1142 H1167 0.950 . S
C1143 C1142 1.349 . S
C1143 C1159 1.349 . S
C1144 C1142 1.327 . S
C1144 C1163 1.429 . S
C1144 H1168 0.950 . S
C1145 C1162 1.574 . S
C1145 C1164 1.368 . S
C1145 H1169 0.949 . S
H1146 C1150 0.949 . S
C1147 C1148 1.349 . S
C1147 C1149 1.327 . S
C1147 H1170 0.950 . S
C1148 C1147 1.349 . S
C1148 C1160 1.349 . S
C1149 C1147 1.327 . S
C1149 C1165 1.429 . S
C1149 H1171 0.950 . S
C1150 H1146 0.949 . S
C1150 C1158 1.574 . S
C1150 C1166 1.368 . S
H1151 C1159 0.950 . S
H1152 C1157 0.950 . S
H1153 C1158 0.949 . S
H1154 C1160 0.950 . S
H1155 C1161 0.950 . S
H1156 C1162 0.949 . S
C1157 H1152 0.950 . S
C1157 C1159 1.327 . S
C1157 C1163 1.429 . S
C1158 C1150 1.574 . S
C1158 H1153 0.949 . S
C1158 C1164 1.368 . S
C1159 C1143 1.349 . S
C1159 H1151 0.950 . S
C1159 C1157 1.327 . S
C1160 C1148 1.349 . S
C1160 H1154 0.950 . S
C1160 C1161 1.327 . S
C1161 H1155 0.950 . S
C1161 C1160 1.327 . S
C1161 C1165 1.429 . S
C1162 C1145 1.574 . S
C1162 H1156 0.949 . S
C1162 C1166 1.368 . S
C1163 C1144 1.429 . S
C1163 C1157 1.429 . S
C1163 C1164 1.523 . S
C1164 C1145 1.368 . S
C1164 C1158 1.368 . S
C1164 C1163 1.523 . S
C1165 C1149 1.429 . S
C1165 C1161 1.429 . S
C1165 C1166 1.523 . S
C1166 C1150 1.368 . S
C1166 C1162 1.368 . S
C1166 C1165 1.523 . S
H1167 C1142 0.950 . S
H1168 C1144 0.950 . S
H1169 C1145 0.949 . S
H1170 C1147 0.950 . S
H1171 C1149 0.950 . S
C1172 C1173 1.349 . S
C1172 C1174 1.327 . S
C1172 H1197 0.950 . S
C1173 C1172 1.349 . S
C1173 C1189 1.349 . S
C1174 C1172 1.327 . S
C1174 C1193 1.429 . S
C1174 H1198 0.950 . S
C1175 C1192 1.574 . S
C1175 C1194 1.368 . S
C1175 H1199 0.949 . S
H1176 C1180 0.949 . S
C1177 C1178 1.349 . S
C1177 C1179 1.327 . S
C1177 H1200 0.950 . S
C1178 C1177 1.349 . S
C1178 C1190 1.349 . S
C1179 C1177 1.327 . S
C1179 C1195 1.429 . S
C1179 H1201 0.950 . S
C1180 H1176 0.949 . S
C1180 C1188 1.574 . S
C1180 C1196 1.368 . S
H1181 C1189 0.950 . S
H1182 C1187 0.950 . S
H1183 C1188 0.949 . S
H1184 C1190 0.950 . S
H1185 C1191 0.950 . S
H1186 C1192 0.949 . S
C1187 H1182 0.950 . S
C1187 C1189 1.327 . S
C1187 C1193 1.429 . S
C1188 C1180 1.574 . S
C1188 H1183 0.949 . S
C1188 C1194 1.368 . S
C1189 C1173 1.349 . S
C1189 H1181 0.950 . S
C1189 C1187 1.327 . S
C1190 C1178 1.349 . S
C1190 H1184 0.950 . S
C1190 C1191 1.327 . S
C1191 H1185 0.950 . S
C1191 C1190 1.327 . S
C1191 C1195 1.429 . S
C1192 C1175 1.574 . S
C1192 H1186 0.949 . S
C1192 C1196 1.368 . S
C1193 C1174 1.429 . S
C1193 C1187 1.429 . S
C1193 C1194 1.523 . S
C1194 C1175 1.368 . S
C1194 C1188 1.368 . S
C1194 C1193 1.523 . S
C1195 C1179 1.429 . S
C1195 C1191 1.429 . S
C1195 C1196 1.523 . S
C1196 C1180 1.368 . S
C1196 C1192 1.368 . S
C1196 C1195 1.523 . S
H1197 C1172 0.950 . S
H1198 C1174 0.950 . S
H1199 C1175 0.949 . S
H1200 C1177 0.950 . S
H1201 C1179 0.950 . S
C1202 C1203 1.349 . S
C1202 C1204 1.327 . S
C1202 H1227 0.950 . S
C1203 C1202 1.349 . S
C1203 C1219 1.349 . S
C1204 C1202 1.327 . S
C1204 C1223 1.429 . S
C1204 H1228 0.950 . S
C1205 C1222 1.574 . S
C1205 C1224 1.368 . S
C1205 H1229 0.949 . S
H1206 C1210 0.949 . S
C1207 C1208 1.349 . S
C1207 C1209 1.327 . S
C1207 H1230 0.950 . S
C1208 C1207 1.349 . S
C1208 C1220 1.349 . S
C1209 C1207 1.327 . S
C1209 C1225 1.429 . S
C1209 H1231 0.950 . S
C1210 H1206 0.949 . S
C1210 C1218 1.574 . S
C1210 C1226 1.368 . S
H1211 C1219 0.950 . S
H1212 C1217 0.950 . S
H1213 C1218 0.949 . S
H1214 C1220 0.950 . S
H1215 C1221 0.950 . S
H1216 C1222 0.949 . S
C1217 H1212 0.950 . S
C1217 C1219 1.327 . S
C1217 C1223 1.429 . S
C1218 C1210 1.574 . S
C1218 H1213 0.949 . S
C1218 C1224 1.368 . S
C1219 C1203 1.349 . S
C1219 H1211 0.950 . S
C1219 C1217 1.327 . S
C1220 C1208 1.349 . S
C1220 H1214 0.950 . S
C1220 C1221 1.327 . S
C1221 H1215 0.950 . S
C1221 C1220 1.327 . S
C1221 C1225 1.429 . S
C1222 C1205 1.574 . S
C1222 H1216 0.949 . S
C1222 C1226 1.368 . S
C1223 C1204 1.429 . S
C1223 C1217 1.429 . S
C1223 C1224 1.523 . S
C1224 C1205 1.368 . S
C1224 C1218 1.368 . S
C1224 C1223 1.523 . S
C1225 C1209 1.429 . S
C1225 C1221 1.429 . S
C1225 C1226 1.523 . S
C1226 C1210 1.368 . S
C1226 C1222 1.368 . S
C1226 C1225 1.523 . S
H1227 C1202 0.950 . S
H1228 C1204 0.950 . S
H1229 C1205 0.949 . S
H1230 C1207 0.950 . S
H1231 C1209 0.950 . S
C1232 C1233 1.349 . S
C1232 C1234 1.327 . S
C1232 H1257 0.950 . S
C1233 C1232 1.349 . S
C1233 C1249 1.349 . S
C1234 C1232 1.327 . S
C1234 C1253 1.429 . S
C1234 H1258 0.950 . S
C1235 C1252 1.574 . S
C1235 C1254 1.368 . S
C1235 H1259 0.949 . S
H1236 C1240 0.949 . S
C1237 C1238 1.349 . S
C1237 C1239 1.327 . S
C1237 H1260 0.950 . S
C1238 C1237 1.349 . S
C1238 C1250 1.349 . S
C1239 C1237 1.327 . S
C1239 C1255 1.429 . S
C1239 H1261 0.950 . S
C1240 H1236 0.949 . S
C1240 C1248 1.574 . S
C1240 C1256 1.368 . S
H1241 C1249 0.950 . S
H1242 C1247 0.950 . S
H1243 C1248 0.949 . S
H1244 C1250 0.950 . S
H1245 C1251 0.950 . S
H1246 C1252 0.949 . S
C1247 H1242 0.950 . S
C1247 C1249 1.327 . S
C1247 C1253 1.429 . S
C1248 C1240 1.574 . S
C1248 H1243 0.949 . S
C1248 C1254 1.368 . S
C1249 C1233 1.349 . S
C1249 H1241 0.950 . S
C1249 C1247 1.327 . S
C1250 C1238 1.349 . S
C1250 H1244 0.950 . S
C1250 C1251 1.327 . S
C1251 H1245 0.950 . S
C1251 C1250 1.327 . S
C1251 C1255 1.429 . S
C1252 C1235 1.574 . S
C1252 H1246 0.949 . S
C1252 C1256 1.368 . S
C1253 C1234 1.429 . S
C1253 C1247 1.429 . S
C1253 C1254 1.523 . S
C1254 C1235 1.368 . S
C1254 C1248 1.368 . S
C1254 C1253 1.523 . S
C1255 C1239 1.429 . S
C1255 C1251 1.429 . S
C1255 C1256 1.523 . S
C1256 C1240 1.368 . S
C1256 C1252 1.368 . S
C1256 C1255 1.523 . S
H1257 C1232 0.950 . S
H1258 C1234 0.950 . S
H1259 C1235 0.949 . S
H1260 C1237 0.950 . S
H1261 C1239 0.950 . S
C1262 C1263 1.349 . S
C1262 C1264 1.327 . S
C1262 H1287 0.950 . S
C1263 C1262 1.349 . S
C1263 C1279 1.349 . S
C1264 C1262 1.327 . S
C1264 C1283 1.429 . S
C1264 H1288 0.950 . S
C1265 C1282 1.574 . S
C1265 C1284 1.368 . S
C1265 H1289 0.949 . S
H1266 C1270 0.949 . S
C1267 C1268 1.349 . S
C1267 C1269 1.327 . S
C1267 H1290 0.950 . S
C1268 C1267 1.349 . S
C1268 C1280 1.349 . S
C1269 C1267 1.327 . S
C1269 C1285 1.429 . S
C1269 H1291 0.950 . S
C1270 H1266 0.949 . S
C1270 C1278 1.574 . S
C1270 C1286 1.368 . S
H1271 C1279 0.950 . S
H1272 C1277 0.950 . S
H1273 C1278 0.949 . S
H1274 C1280 0.950 . S
H1275 C1281 0.950 . S
H1276 C1282 0.949 . S
C1277 H1272 0.950 . S
C1277 C1279 1.327 . S
C1277 C1283 1.429 . S
C1278 C1270 1.574 . S
C1278 H1273 0.949 . S
C1278 C1284 1.368 . S
C1279 C1263 1.349 . S
C1279 H1271 0.950 . S
C1279 C1277 1.327 . S
C1280 C1268 1.349 . S
C1280 H1274 0.950 . S
C1280 C1281 1.327 . S
C1281 H1275 0.950 . S
C1281 C1280 1.327 . S
C1281 C1285 1.429 . S
C1282 C1265 1.574 . S
C1282 H1276 0.949 . S
C1282 C1286 1.368 . S
C1283 C1264 1.429 . S
C1283 C1277 1.429 . S
C1283 C1284 1.523 . S
C1284 C1265 1.368 . S
C1284 C1278 1.368 . S
C1284 C1283 1.523 . S
C1285 C1269 1.429 . S
C1285 C1281 1.429 . S
C1285 C1286 1.523 . S
C1286 C1270 1.368 . S
C1286 C1282 1.368 . S
C1286 C1285 1.523 . S
H1287 C1262 0.950 . S
H1288 C1264 0.950 . S
H1289 C1265 0.949 . S
H1290 C1267 0.950 . S
H1291 C1269 0.950 . S
C1292 C1293 1.349 . S
C1292 C1294 1.327 . S
C1292 H1317 0.950 . S
C1293 C1292 1.349 . S
C1293 C1309 1.349 . S
C1294 C1292 1.327 . S
C1294 C1313 1.429 . S
C1294 H1318 0.950 . S
C1295 C1312 1.574 . S
C1295 C1314 1.368 . S
C1295 H1319 0.949 . S
H1296 C1300 0.949 . S
C1297 C1298 1.349 . S
C1297 C1299 1.327 . S
C1297 H1320 0.950 . S
C1298 C1297 1.349 . S
C1298 C1310 1.349 . S
C1299 C1297 1.327 . S
C1299 C1315 1.429 . S
C1299 H1321 0.950 . S
C1300 H1296 0.949 . S
C1300 C1308 1.574 . S
C1300 C1316 1.368 . S
H1301 C1309 0.950 . S
H1302 C1307 0.950 . S
H1303 C1308 0.949 . S
H1304 C1310 0.950 . S
H1305 C1311 0.950 . S
H1306 C1312 0.949 . S
C1307 H1302 0.950 . S
C1307 C1309 1.327 . S
C1307 C1313 1.429 . S
C1308 C1300 1.574 . S
C1308 H1303 0.949 . S
C1308 C1314 1.368 . S
C1309 C1293 1.349 . S
C1309 H1301 0.950 . S
C1309 C1307 1.327 . S
C1310 C1298 1.349 . S
C1310 H1304 0.950 . S
C1310 C1311 1.327 . S
C1311 H1305 0.950 . S
C1311 C1310 1.327 . S
C1311 C1315 1.429 . S
C1312 C1295 1.574 . S
C1312 H1306 0.949 . S
C1312 C1316 1.368 . S
C1313 C1294 1.429 . S
C1313 C1307 1.429 . S
C1313 C1314 1.523 . S
C1314 C1295 1.368 . S
C1314 C1308 1.368 . S
C1314 C1313 1.523 . S
C1315 C1299 1.429 . S
C1315 C1311 1.429 . S
C1315 C1316 1.523 . S
C1316 C1300 1.368 . S
C1316 C1312 1.368 . S
C1316 C1315 1.523 . S
H1317 C1292 0.950 . S
H1318 C1294 0.950 . S
H1319 C1295 0.949 . S
H1320 C1297 0.950 . S
H1321 C1299 0.950 . S
C1322 C1323 1.349 . S
C1322 C1324 1.327 . S
C1322 H1347 0.950 . S
C1323 C1322 1.349 . S
C1323 C1339 1.349 . S
C1324 C1322 1.327 . S
C1324 C1343 1.429 . S
C1324 H1348 0.950 . S
C1325 C1342 1.574 . S
C1325 C1344 1.368 . S
C1325 H1349 0.949 . S
H1326 C1330 0.949 . S
C1327 C1328 1.349 . S
C1327 C1329 1.327 . S
C1327 H1350 0.950 . S
C1328 C1327 1.349 . S
C1328 C1340 1.349 . S
C1329 C1327 1.327 . S
C1329 C1345 1.429 . S
C1329 H1351 0.950 . S
C1330 H1326 0.949 . S
C1330 C1338 1.574 . S
C1330 C1346 1.368 . S
H1331 C1339 0.950 . S
H1332 C1337 0.950 . S
H1333 C1338 0.949 . S
H1334 C1340 0.950 . S
H1335 C1341 0.950 . S
H1336 C1342 0.949 . S
C1337 H1332 0.950 . S
C1337 C1339 1.327 . S
C1337 C1343 1.429 . S
C1338 C1330 1.574 . S
C1338 H1333 0.949 . S
C1338 C1344 1.368 . S
C1339 C1323 1.349 . S
C1339 H1331 0.950 . S
C1339 C1337 1.327 . S
C1340 C1328 1.349 . S
C1340 H1334 0.950 . S
C1340 C1341 1.327 . S
C1341 H1335 0.950 . S
C1341 C1340 1.327 . S
C1341 C1345 1.429 . S
C1342 C1325 1.574 . S
C1342 H1336 0.949 . S
C1342 C1346 1.368 . S
C1343 C1324 1.429 . S
C1343 C1337 1.429 . S
C1343 C1344 1.523 . S
C1344 C1325 1.368 . S
C1344 C1338 1.368 . S
C1344 C1343 1.523 . S
C1345 C1329 1.429 . S
C1345 C1341 1.429 . S
C1345 C1346 1.523 . S
C1346 C1330 1.368 . S
C1346 C1342 1.368 . S
C1346 C1345 1.523 . S
H1347 C1322 0.950 . S
H1348 C1324 0.950 . S
H1349 C1325 0.949 . S
H1350 C1327 0.950 . S
H1351 C1329 0.950 . S
C1352 C1353 1.349 . S
C1352 C1354 1.327 . S
C1352 H1377 0.950 . S
C1353 C1352 1.349 . S
C1353 C1369 1.349 . S
C1354 C1352 1.327 . S
C1354 C1373 1.429 . S
C1354 H1378 0.950 . S
C1355 C1372 1.574 . S
C1355 C1374 1.368 . S
C1355 H1379 0.949 . S
H1356 C1360 0.949 . S
C1357 C1358 1.349 . S
C1357 C1359 1.327 . S
C1357 H1380 0.950 . S
C1358 C1357 1.349 . S
C1358 C1370 1.349 . S
C1359 C1357 1.327 . S
C1359 C1375 1.429 . S
C1359 H1381 0.950 . S
C1360 H1356 0.949 . S
C1360 C1368 1.574 . S
C1360 C1376 1.368 . S
H1361 C1369 0.950 . S
H1362 C1367 0.950 . S
H1363 C1368 0.949 . S
H1364 C1370 0.950 . S
H1365 C1371 0.950 . S
H1366 C1372 0.949 . S
C1367 H1362 0.950 . S
C1367 C1369 1.327 . S
C1367 C1373 1.429 . S
C1368 C1360 1.574 . S
C1368 H1363 0.949 . S
C1368 C1374 1.368 . S
C1369 C1353 1.349 . S
C1369 H1361 0.950 . S
C1369 C1367 1.327 . S
C1370 C1358 1.349 . S
C1370 H1364 0.950 . S
C1370 C1371 1.327 . S
C1371 H1365 0.950 . S
C1371 C1370 1.327 . S
C1371 C1375 1.429 . S
C1372 C1355 1.574 . S
C1372 H1366 0.949 . S
C1372 C1376 1.368 . S
C1373 C1354 1.429 . S
C1373 C1367 1.429 . S
C1373 C1374 1.523 . S
C1374 C1355 1.368 . S
C1374 C1368 1.368 . S
C1374 C1373 1.523 . S
C1375 C1359 1.429 . S
C1375 C1371 1.429 . S
C1375 C1376 1.523 . S
C1376 C1360 1.368 . S
C1376 C1372 1.368 . S
C1376 C1375 1.523 . S
H1377 C1352 0.950 . S
H1378 C1354 0.950 . S
H1379 C1355 0.949 . S
H1380 C1357 0.950 . S
H1381 C1359 0.950 . S
C1382 C1383 1.349 . S
C1382 C1384 1.327 . S
C1382 H1407 0.950 . S
C1383 C1382 1.349 . S
C1383 C1399 1.349 . S
C1384 C1382 1.327 . S
C1384 C1403 1.429 . S
C1384 H1408 0.950 . S
C1385 C1402 1.574 . S
C1385 C1404 1.368 . S
C1385 H1409 0.949 . S
H1386 C1390 0.949 . S
C1387 C1388 1.349 . S
C1387 C1389 1.327 . S
C1387 H1410 0.950 . S
C1388 C1387 1.349 . S
C1388 C1400 1.349 . S
C1389 C1387 1.327 . S
C1389 C1405 1.429 . S
C1389 H1411 0.950 . S
C1390 H1386 0.949 . S
C1390 C1398 1.574 . S
C1390 C1406 1.368 . S
H1391 C1399 0.950 . S
H1392 C1397 0.950 . S
H1393 C1398 0.949 . S
H1394 C1400 0.950 . S
H1395 C1401 0.950 . S
H1396 C1402 0.949 . S
C1397 H1392 0.950 . S
C1397 C1399 1.327 . S
C1397 C1403 1.429 . S
C1398 C1390 1.574 . S
C1398 H1393 0.949 . S
C1398 C1404 1.368 . S
C1399 C1383 1.349 . S
C1399 H1391 0.950 . S
C1399 C1397 1.327 . S
C1400 C1388 1.349 . S
C1400 H1394 0.950 . S
C1400 C1401 1.327 . S
C1401 H1395 0.950 . S
C1401 C1400 1.327 . S
C1401 C1405 1.429 . S
C1402 C1385 1.574 . S
C1402 H1396 0.949 . S
C1402 C1406 1.368 . S
C1403 C1384 1.429 . S
C1403 C1397 1.429 . S
C1403 C1404 1.523 . S
C1404 C1385 1.368 . S
C1404 C1398 1.368 . S
C1404 C1403 1.523 . S
C1405 C1389 1.429 . S
C1405 C1401 1.429 . S
C1405 C1406 1.523 . S
C1406 C1390 1.368 . S
C1406 C1402 1.368 . S
C1406 C1405 1.523 . S
H1407 C1382 0.950 . S
H1408 C1384 0.950 . S
H1409 C1385 0.949 . S
H1410 C1387 0.950 . S
H1411 C1389 0.950 . S
C1412 C1413 1.349 . S
C1412 C1414 1.327 . S
C1412 H1437 0.950 . S
C1413 C1412 1.349 . S
C1413 C1429 1.349 . S
C1414 C1412 1.327 . S
C1414 C1433 1.429 . S
C1414 H1438 0.950 . S
C1415 C1432 1.574 . S
C1415 C1434 1.368 . S
C1415 H1439 0.949 . S
H1416 C1420 0.949 . S
C1417 C1418 1.349 . S
C1417 C1419 1.327 . S
C1417 H1440 0.950 . S
C1418 C1417 1.349 . S
C1418 C1430 1.349 . S
C1419 C1417 1.327 . S
C1419 C1435 1.429 . S
C1419 H1441 0.950 . S
C1420 H1416 0.949 . S
C1420 C1428 1.574 . S
C1420 C1436 1.368 . S
H1421 C1429 0.950 . S
H1422 C1427 0.950 . S
H1423 C1428 0.949 . S
H1424 C1430 0.950 . S
H1425 C1431 0.950 . S
H1426 C1432 0.949 . S
C1427 H1422 0.950 . S
C1427 C1429 1.327 . S
C1427 C1433 1.429 . S
C1428 C1420 1.574 . S
C1428 H1423 0.949 . S
C1428 C1434 1.368 . S
C1429 C1413 1.349 . S
C1429 H1421 0.950 . S
C1429 C1427 1.327 . S
C1430 C1418 1.349 . S
C1430 H1424 0.950 . S
C1430 C1431 1.327 . S
C1431 H1425 0.950 . S
C1431 C1430 1.327 . S
C1431 C1435 1.429 . S
C1432 C1415 1.574 . S
C1432 H1426 0.949 . S
C1432 C1436 1.368 . S
C1433 C1414 1.429 . S
C1433 C1427 1.429 . S
C1433 C1434 1.523 . S
C1434 C1415 1.368 . S
C1434 C1428 1.368 . S
C1434 C1433 1.523 . S
C1435 C1419 1.429 . S
C1435 C1431 1.429 . S
C1435 C1436 1.523 . S
C1436 C1420 1.368 . S
C1436 C1432 1.368 . S
C1436 C1435 1.523 . S
H1437 C1412 0.950 . S
H1438 C1414 0.950 . S
H1439 C1415 0.949 . S
H1440 C1417 0.950 . S
H1441 C1419 0.950 . S
C1442 C1443 1.349 . S
C1442 C1444 1.327 . S
C1442 H1467 0.950 . S
C1443 C1442 1.349 . S
C1443 C1459 1.349 . S
C1444 C1442 1.327 . S
C1444 C1463 1.429 . S
C1444 H1468 0.950 . S
C1445 C1462 1.574 . S
C1445 C1464 1.368 . S
C1445 H1469 0.949 . S
H1446 C1450 0.949 . S
C1447 C1448 1.349 . S
C1447 C1449 1.327 . S
C1447 H1470 0.950 . S
C1448 C1447 1.349 . S
C1448 C1460 1.349 . S
C1449 C1447 1.327 . S
C1449 C1465 1.429 . S
C1449 H1471 0.950 . S
C1450 H1446 0.949 . S
C1450 C1458 1.574 . S
C1450 C1466 1.368 . S
H1451 C1459 0.950 . S
H1452 C1457 0.950 . S
H1453 C1458 0.949 . S
H1454 C1460 0.950 . S
H1455 C1461 0.950 . S
H1456 C1462 0.949 . S
C1457 H1452 0.950 . S
C1457 C1459 1.327 . S
C1457 C1463 1.429 . S
C1458 C1450 1.574 . S
C1458 H1453 0.949 . S
C1458 C1464 1.368 . S
C1459 C1443 1.349 . S
C1459 H1451 0.950 . S
C1459 C1457 1.327 . S
C1460 C1448 1.349 . S
C1460 H1454 0.950 . S
C1460 C1461 1.327 . S
C1461 H1455 0.950 . S
C1461 C1460 1.327 . S
C1461 C1465 1.429 . S
C1462 C1445 1.574 . S
C1462 H1456 0.949 . S
C1462 C1466 1.368 . S
C1463 C1444 1.429 . S
C1463 C1457 1.429 . S
C1463 C1464 1.523 . S
C1464 C1445 1.368 . S
C1464 C1458 1.368 . S
C1464 C1463 1.523 . S
C1465 C1449 1.429 . S
C1465 C1461 1.429 . S
C1465 C1466 1.523 . S
C1466 C1450 1.368 . S
C1466 C1462 1.368 . S
C1466 C1465 1.523 . S
H1467 C1442 0.950 . S
H1468 C1444 0.950 . S
H1469 C1445 0.949 . S
H1470 C1447 0.950 . S
H1471 C1449 0.950 . S
C518 C433 1.492 . S
C513 C45 1.506 . S
C543 C78 1.500 . S
C548 C465 1.490 . S
C573 C126 1.500 . S
C578 C488 1.500 . S
C608 C392 1.502 . S
C603 C174 1.502 . S
C638 C475 1.346 . S
C633 C36 1.469 . S
C668 C504 1.358 . S
C663 C69 1.468 . S
C698 C408 1.359 . S
C693 C117 1.469 . S
C728 C443 1.346 . S
C723 C165 1.466 . S
C753 C30 1.464 . S
C758 C471 1.356 . S
C783 C228 1.467 . S
C788 C446 1.347 . S
C813 C141 1.453 . S
C818 C414 1.344 . S
C848 C503 1.353 . S
C843 C270 1.460 . S
C878 C447 1.493 . S
C873 C21 1.514 . S
C903 C237 1.503 . S
C908 C415 1.492 . S
C933 C132 1.514 . S
C938 C502 1.505 . S
C968 C470 1.505 . S
C963 C261 1.516 . S
C993 C333 1.504 . S
C998 C497 1.490 . S
C1023 C213 1.512 . S
C1028 C401 1.492 . S
C1053 C357 1.512 . S
C1058 C424 1.503 . S
C1083 C285 1.504 . S
C1088 C456 1.500 . S
C1118 C411 1.348 . S
C1113 C324 1.472 . S
C1143 C222 1.455 . S
C1148 C440 1.356 . S
C1173 C366 1.455 . S
C1178 C472 1.356 . S
C1208 C507 1.348 . S
C1203 C276 1.472 . S
C1233 C318 1.461 . S
C1238 C407 1.354 . S
C1263 C93 1.453 . S
C1268 C510 1.343 . S
C1293 C372 1.466 . S
C1298 C478 1.346 . S
C1328 C439 1.356 . S
C1323 C189 1.455 . S
C1358 C511 1.496 . S
C1353 C309 1.516 . S
C1388 C479 1.495 . S
C1383 C84 1.515 . S
C1418 C438 1.502 . S
C1413 C381 1.502 . S
C1448 C406 1.503 . S
C1443 C180 1.512 . S
