# Generated by pormake.
# Topology tbo, (3,4)-cn, num edge types: 1
# Building blocks:
#     Node 0, Type 0, BuildingBlock: BETDAH_clean_linker_0, # of connection points: 3
#     Node 1, Type 0, BuildingBlock: BETDAH_clean_linker_0, # of connection points: 3
#     Node 2, Type 0, BuildingBlock: BETDAH_clean_linker_0, # of connection points: 3
#     Node 3, Type 0, BuildingBlock: BETDAH_clean_linker_0, # of connection points: 3
#     Node 4, Type 0, BuildingBlock: BETDAH_clean_linker_0, # of connection points: 3
#     Node 5, Type 0, BuildingBlock: BETDAH_clean_linker_0, # of connection points: 3
#     Node 6, Type 0, BuildingBlock: BETDAH_clean_linker_0, # of connection points: 3
#     Node 7, Type 0, BuildingBlock: BETDAH_clean_linker_0, # of connection points: 3
#     Node 8, Type 0, BuildingBlock: BETDAH_clean_linker_0, # of connection points: 3
#     Node 9, Type 0, BuildingBlock: BETDAH_clean_linker_0, # of connection points: 3
#     Node 10, Type 0, BuildingBlock: BETDAH_clean_linker_0, # of connection points: 3
#     Node 11, Type 0, BuildingBlock: BETDAH_clean_linker_0, # of connection points: 3
#     Node 12, Type 0, BuildingBlock: BETDAH_clean_linker_0, # of connection points: 3
#     Node 13, Type 0, BuildingBlock: BETDAH_clean_linker_0, # of connection points: 3
#     Node 14, Type 0, BuildingBlock: BETDAH_clean_linker_0, # of connection points: 3
#     Node 15, Type 0, BuildingBlock: BETDAH_clean_linker_0, # of connection points: 3
#     Node 16, Type 0, BuildingBlock: BETDAH_clean_linker_0, # of connection points: 3
#     Node 17, Type 0, BuildingBlock: BETDAH_clean_linker_0, # of connection points: 3
#     Node 18, Type 0, BuildingBlock: BETDAH_clean_linker_0, # of connection points: 3
#     Node 19, Type 0, BuildingBlock: BETDAH_clean_linker_0, # of connection points: 3
#     Node 20, Type 0, BuildingBlock: BETDAH_clean_linker_0, # of connection points: 3
#     Node 21, Type 0, BuildingBlock: BETDAH_clean_linker_0, # of connection points: 3
#     Node 22, Type 0, BuildingBlock: BETDAH_clean_linker_0, # of connection points: 3
#     Node 23, Type 0, BuildingBlock: BETDAH_clean_linker_0, # of connection points: 3
#     Node 24, Type 0, BuildingBlock: BETDAH_clean_linker_0, # of connection points: 3
#     Node 25, Type 0, BuildingBlock: BETDAH_clean_linker_0, # of connection points: 3
#     Node 26, Type 0, BuildingBlock: BETDAH_clean_linker_0, # of connection points: 3
#     Node 27, Type 0, BuildingBlock: BETDAH_clean_linker_0, # of connection points: 3
#     Node 28, Type 0, BuildingBlock: BETDAH_clean_linker_0, # of connection points: 3
#     Node 29, Type 0, BuildingBlock: BETDAH_clean_linker_0, # of connection points: 3
#     Node 30, Type 0, BuildingBlock: BETDAH_clean_linker_0, # of connection points: 3
#     Node 31, Type 0, BuildingBlock: BETDAH_clean_linker_0, # of connection points: 3
#     Node 32, Type 1, BuildingBlock: ESEHIV_clean_sbu_0, # of connection points: 4
#     Node 33, Type 1, BuildingBlock: ESEHIV_clean_sbu_0, # of connection points: 4
#     Node 34, Type 1, BuildingBlock: ESEHIV_clean_sbu_0, # of connection points: 4
#     Node 35, Type 1, BuildingBlock: ESEHIV_clean_sbu_0, # of connection points: 4
#     Node 36, Type 1, BuildingBlock: ESEHIV_clean_sbu_0, # of connection points: 4
#     Node 37, Type 1, BuildingBlock: ESEHIV_clean_sbu_0, # of connection points: 4
#     Node 38, Type 1, BuildingBlock: ESEHIV_clean_sbu_0, # of connection points: 4
#     Node 39, Type 1, BuildingBlock: ESEHIV_clean_sbu_0, # of connection points: 4
#     Node 40, Type 1, BuildingBlock: ESEHIV_clean_sbu_0, # of connection points: 4
#     Node 41, Type 1, BuildingBlock: ESEHIV_clean_sbu_0, # of connection points: 4
#     Node 42, Type 1, BuildingBlock: ESEHIV_clean_sbu_0, # of connection points: 4
#     Node 43, Type 1, BuildingBlock: ESEHIV_clean_sbu_0, # of connection points: 4
#     Node 44, Type 1, BuildingBlock: ESEHIV_clean_sbu_0, # of connection points: 4
#     Node 45, Type 1, BuildingBlock: ESEHIV_clean_sbu_0, # of connection points: 4
#     Node 46, Type 1, BuildingBlock: ESEHIV_clean_sbu_0, # of connection points: 4
#     Node 47, Type 1, BuildingBlock: ESEHIV_clean_sbu_0, # of connection points: 4
#     Node 48, Type 1, BuildingBlock: ESEHIV_clean_sbu_0, # of connection points: 4
#     Node 49, Type 1, BuildingBlock: ESEHIV_clean_sbu_0, # of connection points: 4
#     Node 50, Type 1, BuildingBlock: ESEHIV_clean_sbu_0, # of connection points: 4
#     Node 51, Type 1, BuildingBlock: ESEHIV_clean_sbu_0, # of connection points: 4
#     Node 52, Type 1, BuildingBlock: ESEHIV_clean_sbu_0, # of connection points: 4
#     Node 53, Type 1, BuildingBlock: ESEHIV_clean_sbu_0, # of connection points: 4
#     Node 54, Type 1, BuildingBlock: ESEHIV_clean_sbu_0, # of connection points: 4
#     Node 55, Type 1, BuildingBlock: ESEHIV_clean_sbu_0, # of connection points: 4
#     Edge 56, Type (0, 1), BuildingBlock: OJICUG_clean_linker_0, # of connection points: 2
#     Edge 57, Type (0, 1), BuildingBlock: OJICUG_clean_linker_0, # of connection points: 2
#     Edge 58, Type (0, 1), BuildingBlock: OJICUG_clean_linker_0, # of connection points: 2
#     Edge 59, Type (0, 1), BuildingBlock: OJICUG_clean_linker_0, # of connection points: 2
#     Edge 60, Type (0, 1), BuildingBlock: OJICUG_clean_linker_0, # of connection points: 2
#     Edge 61, Type (0, 1), BuildingBlock: OJICUG_clean_linker_0, # of connection points: 2
#     Edge 62, Type (0, 1), BuildingBlock: OJICUG_clean_linker_0, # of connection points: 2
#     Edge 63, Type (0, 1), BuildingBlock: OJICUG_clean_linker_0, # of connection points: 2
#     Edge 64, Type (0, 1), BuildingBlock: OJICUG_clean_linker_0, # of connection points: 2
#     Edge 65, Type (0, 1), BuildingBlock: OJICUG_clean_linker_0, # of connection points: 2
#     Edge 66, Type (0, 1), BuildingBlock: OJICUG_clean_linker_0, # of connection points: 2
#     Edge 67, Type (0, 1), BuildingBlock: OJICUG_clean_linker_0, # of connection points: 2
#     Edge 68, Type (0, 1), BuildingBlock: OJICUG_clean_linker_0, # of connection points: 2
#     Edge 69, Type (0, 1), BuildingBlock: OJICUG_clean_linker_0, # of connection points: 2
#     Edge 70, Type (0, 1), BuildingBlock: OJICUG_clean_linker_0, # of connection points: 2
#     Edge 71, Type (0, 1), BuildingBlock: OJICUG_clean_linker_0, # of connection points: 2
#     Edge 72, Type (0, 1), BuildingBlock: OJICUG_clean_linker_0, # of connection points: 2
#     Edge 73, Type (0, 1), BuildingBlock: OJICUG_clean_linker_0, # of connection points: 2
#     Edge 74, Type (0, 1), BuildingBlock: OJICUG_clean_linker_0, # of connection points: 2
#     Edge 75, Type (0, 1), BuildingBlock: OJICUG_clean_linker_0, # of connection points: 2
#     Edge 76, Type (0, 1), BuildingBlock: OJICUG_clean_linker_0, # of connection points: 2
#     Edge 77, Type (0, 1), BuildingBlock: OJICUG_clean_linker_0, # of connection points: 2
#     Edge 78, Type (0, 1), BuildingBlock: OJICUG_clean_linker_0, # of connection points: 2
#     Edge 79, Type (0, 1), BuildingBlock: OJICUG_clean_linker_0, # of connection points: 2
#     Edge 80, Type (0, 1), BuildingBlock: OJICUG_clean_linker_0, # of connection points: 2
#     Edge 81, Type (0, 1), BuildingBlock: OJICUG_clean_linker_0, # of connection points: 2
#     Edge 82, Type (0, 1), BuildingBlock: OJICUG_clean_linker_0, # of connection points: 2
#     Edge 83, Type (0, 1), BuildingBlock: OJICUG_clean_linker_0, # of connection points: 2
#     Edge 84, Type (0, 1), BuildingBlock: OJICUG_clean_linker_0, # of connection points: 2
#     Edge 85, Type (0, 1), BuildingBlock: OJICUG_clean_linker_0, # of connection points: 2
#     Edge 86, Type (0, 1), BuildingBlock: OJICUG_clean_linker_0, # of connection points: 2
#     Edge 87, Type (0, 1), BuildingBlock: OJICUG_clean_linker_0, # of connection points: 2
#     Edge 88, Type (0, 1), BuildingBlock: OJICUG_clean_linker_0, # of connection points: 2
#     Edge 89, Type (0, 1), BuildingBlock: OJICUG_clean_linker_0, # of connection points: 2
#     Edge 90, Type (0, 1), BuildingBlock: OJICUG_clean_linker_0, # of connection points: 2
#     Edge 91, Type (0, 1), BuildingBlock: OJICUG_clean_linker_0, # of connection points: 2
#     Edge 92, Type (0, 1), BuildingBlock: OJICUG_clean_linker_0, # of connection points: 2
#     Edge 93, Type (0, 1), BuildingBlock: OJICUG_clean_linker_0, # of connection points: 2
#     Edge 94, Type (0, 1), BuildingBlock: OJICUG_clean_linker_0, # of connection points: 2
#     Edge 95, Type (0, 1), BuildingBlock: OJICUG_clean_linker_0, # of connection points: 2
#     Edge 96, Type (0, 1), BuildingBlock: OJICUG_clean_linker_0, # of connection points: 2
#     Edge 97, Type (0, 1), BuildingBlock: OJICUG_clean_linker_0, # of connection points: 2
#     Edge 98, Type (0, 1), BuildingBlock: OJICUG_clean_linker_0, # of connection points: 2
#     Edge 99, Type (0, 1), BuildingBlock: OJICUG_clean_linker_0, # of connection points: 2
#     Edge 100, Type (0, 1), BuildingBlock: OJICUG_clean_linker_0, # of connection points: 2
#     Edge 101, Type (0, 1), BuildingBlock: OJICUG_clean_linker_0, # of connection points: 2
#     Edge 102, Type (0, 1), BuildingBlock: OJICUG_clean_linker_0, # of connection points: 2
#     Edge 103, Type (0, 1), BuildingBlock: OJICUG_clean_linker_0, # of connection points: 2
#     Edge 104, Type (0, 1), BuildingBlock: OJICUG_clean_linker_0, # of connection points: 2
#     Edge 105, Type (0, 1), BuildingBlock: OJICUG_clean_linker_0, # of connection points: 2
#     Edge 106, Type (0, 1), BuildingBlock: OJICUG_clean_linker_0, # of connection points: 2
#     Edge 107, Type (0, 1), BuildingBlock: OJICUG_clean_linker_0, # of connection points: 2
#     Edge 108, Type (0, 1), BuildingBlock: OJICUG_clean_linker_0, # of connection points: 2
#     Edge 109, Type (0, 1), BuildingBlock: OJICUG_clean_linker_0, # of connection points: 2
#     Edge 110, Type (0, 1), BuildingBlock: OJICUG_clean_linker_0, # of connection points: 2
#     Edge 111, Type (0, 1), BuildingBlock: OJICUG_clean_linker_0, # of connection points: 2
#     Edge 112, Type (0, 1), BuildingBlock: OJICUG_clean_linker_0, # of connection points: 2
#     Edge 113, Type (0, 1), BuildingBlock: OJICUG_clean_linker_0, # of connection points: 2
#     Edge 114, Type (0, 1), BuildingBlock: OJICUG_clean_linker_0, # of connection points: 2
#     Edge 115, Type (0, 1), BuildingBlock: OJICUG_clean_linker_0, # of connection points: 2
#     Edge 116, Type (0, 1), BuildingBlock: OJICUG_clean_linker_0, # of connection points: 2
#     Edge 117, Type (0, 1), BuildingBlock: OJICUG_clean_linker_0, # of connection points: 2
#     Edge 118, Type (0, 1), BuildingBlock: OJICUG_clean_linker_0, # of connection points: 2
#     Edge 119, Type (0, 1), BuildingBlock: OJICUG_clean_linker_0, # of connection points: 2
#     Edge 120, Type (0, 1), BuildingBlock: OJICUG_clean_linker_0, # of connection points: 2
#     Edge 121, Type (0, 1), BuildingBlock: OJICUG_clean_linker_0, # of connection points: 2
#     Edge 122, Type (0, 1), BuildingBlock: OJICUG_clean_linker_0, # of connection points: 2
#     Edge 123, Type (0, 1), BuildingBlock: OJICUG_clean_linker_0, # of connection points: 2
#     Edge 124, Type (0, 1), BuildingBlock: OJICUG_clean_linker_0, # of connection points: 2
#     Edge 125, Type (0, 1), BuildingBlock: OJICUG_clean_linker_0, # of connection points: 2
#     Edge 126, Type (0, 1), BuildingBlock: OJICUG_clean_linker_0, # of connection points: 2
#     Edge 127, Type (0, 1), BuildingBlock: OJICUG_clean_linker_0, # of connection points: 2
#     Edge 128, Type (0, 1), BuildingBlock: OJICUG_clean_linker_0, # of connection points: 2
#     Edge 129, Type (0, 1), BuildingBlock: OJICUG_clean_linker_0, # of connection points: 2
#     Edge 130, Type (0, 1), BuildingBlock: OJICUG_clean_linker_0, # of connection points: 2
#     Edge 131, Type (0, 1), BuildingBlock: OJICUG_clean_linker_0, # of connection points: 2
#     Edge 132, Type (0, 1), BuildingBlock: OJICUG_clean_linker_0, # of connection points: 2
#     Edge 133, Type (0, 1), BuildingBlock: OJICUG_clean_linker_0, # of connection points: 2
#     Edge 134, Type (0, 1), BuildingBlock: OJICUG_clean_linker_0, # of connection points: 2
#     Edge 135, Type (0, 1), BuildingBlock: OJICUG_clean_linker_0, # of connection points: 2
#     Edge 136, Type (0, 1), BuildingBlock: OJICUG_clean_linker_0, # of connection points: 2
#     Edge 137, Type (0, 1), BuildingBlock: OJICUG_clean_linker_0, # of connection points: 2
#     Edge 138, Type (0, 1), BuildingBlock: OJICUG_clean_linker_0, # of connection points: 2
#     Edge 139, Type (0, 1), BuildingBlock: OJICUG_clean_linker_0, # of connection points: 2
#     Edge 140, Type (0, 1), BuildingBlock: OJICUG_clean_linker_0, # of connection points: 2
#     Edge 141, Type (0, 1), BuildingBlock: OJICUG_clean_linker_0, # of connection points: 2
#     Edge 142, Type (0, 1), BuildingBlock: OJICUG_clean_linker_0, # of connection points: 2
#     Edge 143, Type (0, 1), BuildingBlock: OJICUG_clean_linker_0, # of connection points: 2
#     Edge 144, Type (0, 1), BuildingBlock: OJICUG_clean_linker_0, # of connection points: 2
#     Edge 145, Type (0, 1), BuildingBlock: OJICUG_clean_linker_0, # of connection points: 2
#     Edge 146, Type (0, 1), BuildingBlock: OJICUG_clean_linker_0, # of connection points: 2
#     Edge 147, Type (0, 1), BuildingBlock: OJICUG_clean_linker_0, # of connection points: 2
#     Edge 148, Type (0, 1), BuildingBlock: OJICUG_clean_linker_0, # of connection points: 2
#     Edge 149, Type (0, 1), BuildingBlock: OJICUG_clean_linker_0, # of connection points: 2
#     Edge 150, Type (0, 1), BuildingBlock: OJICUG_clean_linker_0, # of connection points: 2
#     Edge 151, Type (0, 1), BuildingBlock: OJICUG_clean_linker_0, # of connection points: 2
# Relax obj value: 0.027
# Max RMSD: 0.144
# Mean RMSD: 0.105
data_MOF--net-tbo--node1-ESEHIV_clean_sbu_0--node2-BETDAH_clean_linker_0--edge1-OJICUG_clean_linker_0
_symmetry_space_group_name_H-M    P1
_symmetry_Int_Tables_number       1
_symmetry_cell_setting            triclinic
loop_
_symmetry_equiv_pos_as_xyz
'x, y, z'
_cell_length_a     51.131675
_cell_length_b     51.857662
_cell_length_c     54.728485
_cell_angle_alpha  90.869078
_cell_angle_beta   94.75433
_cell_angle_gamma 99.630202
loop_
_atom_site_label
_atom_site_type_symbol
_atom_site_fract_x
_atom_site_fract_y
_atom_site_fract_z
_atom_type_partial_charge
H0 H 0.2584 0.13672 0.20535 0.0
H1 H 0.18844 0.14105 0.24294 0.0
H2 H 0.20488 0.18861 0.18073 0.0
C3 C 0.24027 0.1446 0.20683 0.0
C4 C 0.23383 0.16359 0.19032 0.0
C5 C 0.2239 0.13589 0.22561 0.0
C6 C 0.20125 0.14753 0.22866 0.0
C7 C 0.19467 0.16687 0.21257 0.0
C8 C 0.21075 0.17437 0.19341 0.0
N9 N 0.17175 0.17889 0.21429 0.0
C10 C 0.15484 0.17684 0.23319 0.0
H11 H 0.89046 0.19456 0.20792 0.0
H12 H 0.90201 0.27026 0.17561 0.0
H13 H 0.8266 0.21859 0.16267 0.0
C14 C 0.88291 0.20894 0.19634 0.0
C15 C 0.85662 0.20366 0.1857 0.0
C16 C 0.89939 0.23281 0.19274 0.0
C17 C 0.88943 0.25167 0.17811 0.0
C18 C 0.86313 0.24636 0.16694 0.0
C19 C 0.84696 0.22238 0.17085 0.0
N20 N 0.85187 0.26474 0.15224 0.0
C21 C 0.8661 0.28724 0.14313 0.0
H22 H 0.90177 0.83002 0.1819 0.0
H23 H 0.92566 0.89203 0.23657 0.0
H24 H 0.86544 0.8994 0.17911 0.0
C25 C 0.90015 0.84902 0.18955 0.0
C26 C 0.88217 0.86368 0.17751 0.0
C27 C 0.91551 0.8585 0.21149 0.0
C28 C 0.91307 0.8834 0.22064 0.0
C29 C 0.89479 0.89789 0.20961 0.0
C30 C 0.879 0.88787 0.18815 0.0
N31 N 0.89478 0.92328 0.21986 0.0
C32 C 0.87346 0.93689 0.21939 0.0
H33 H 0.14426 0.84861 0.22137 0.0
H34 H 0.20839 0.8703 0.17534 0.0
H35 H 0.15045 0.80079 0.15813 0.0
C36 C 0.15445 0.84516 0.20534 0.0
C37 C 0.14479 0.82301 0.19013 0.0
C38 C 0.17765 0.86229 0.20041 0.0
C39 C 0.19071 0.85712 0.17971 0.0
C40 C 0.18105 0.83519 0.16428 0.0
C41 C 0.1581 0.81798 0.1697 0.0
N42 N 0.19493 0.83112 0.14354 0.0
C43 C 0.1875 0.81009 0.12697 0.0
H44 H 0.16747 0.89019 0.81476 0.0
H45 H 0.17053 0.84088 0.87741 0.0
H46 H 0.21978 0.91642 0.87911 0.0
C47 C 0.17504 0.88692 0.83333 0.0
C48 C 0.19446 0.90617 0.84559 0.0
C49 C 0.16631 0.8631 0.84449 0.0
C50 C 0.17736 0.85885 0.86833 0.0
C51 C 0.19682 0.87805 0.88071 0.0
C52 C 0.20496 0.90161 0.86935 0.0
N53 N 0.20865 0.87456 0.9046 0.0
C54 C 0.20737 0.85071 0.91613 0.0
H55 H 0.28286 0.17433 0.92497 0.0
H56 H 0.22446 0.22531 0.91378 0.0
H57 H 0.23442 0.17137 0.85645 0.0
C58 C 0.2672 0.18111 0.91354 0.0
C59 C 0.26029 0.17036 0.88953 0.0
C60 C 0.25474 0.20147 0.92231 0.0
C61 C 0.23446 0.2101 0.90711 0.0
C62 C 0.22702 0.1991 0.88344 0.0
C63 C 0.24022 0.17965 0.8748 0.0
N64 N 0.2065 0.20697 0.86758 0.0
C65 C 0.19037 0.22508 0.87312 0.0
H66 H 0.91217 0.15889 0.8545 0.0
H67 H 0.89922 0.22257 0.90089 0.0
H68 H 0.83977 0.15375 0.89064 0.0
C69 C 0.89964 0.16741 0.86625 0.0
C70 C 0.87498 0.15294 0.87145 0.0
C71 C 0.90861 0.19259 0.8768 0.0
C72 C 0.89268 0.2031 0.89288 0.0
C73 C 0.86795 0.18888 0.89796 0.0
C74 C 0.85917 0.16419 0.88695 0.0
N75 N 0.85115 0.19878 0.91383 0.0
C76 C 0.85947 0.21978 0.93026 0.0
H77 H 0.92226 0.79738 0.89197 0.0
H78 H 0.92343 0.85579 0.83671 0.0
H79 H 0.89146 0.86805 0.90535 0.0
C80 C 0.9176 0.81598 0.88585 0.0
C81 C 0.90562 0.83128 0.90161 0.0
C82 C 0.9244 0.82457 0.86255 0.0
C83 C 0.91804 0.84872 0.85444 0.0
C84 C 0.90566 0.86422 0.86978 0.0
C85 C 0.89997 0.85552 0.89333 0.0
N86 N 0.9014 0.88988 0.8635 0.0
C87 C 0.89183 0.89783 0.84063 0.0
H88 H 0.2745 0.64329 0.65202 0.0
H89 H 0.24334 0.64452 0.72271 0.0
H90 H 0.22821 0.70196 0.67049 0.0
C91 C 0.26241 0.65125 0.66457 0.0
C92 C 0.25089 0.67338 0.65777 0.0
C93 C 0.25989 0.64034 0.68792 0.0
C94 C 0.24545 0.65209 0.70452 0.0
C95 C 0.23393 0.67406 0.69824 0.0
C96 C 0.2366 0.68459 0.6749 0.0
N97 N 0.22429 0.68816 0.71701 0.0
C98 C 0.19749 0.68871 0.71951 0.0
H99 H 0.89624 0.6744 0.71133 0.0
H100 H 0.92156 0.70442 0.64294 0.0
H101 H 0.84105 0.66505 0.64657 0.0
C102 C 0.8915 0.67799 0.69214 0.0
C103 C 0.86592 0.66834 0.68087 0.0
C104 C 0.91154 0.69131 0.67872 0.0
C105 C 0.90599 0.6949 0.65364 0.0
C106 C 0.88057 0.68563 0.6421 0.0
C107 C 0.8605 0.67258 0.65573 0.0
N108 N 0.87628 0.68771 0.61637 0.0
C109 C 0.85531 0.69846 0.60536 0.0
H110 H 0.92451 0.34598 0.71429 0.0
H111 H 0.90967 0.41338 0.75448 0.0
H112 H 0.87341 0.39613 0.68108 0.0
C113 C 0.91509 0.36317 0.71506 0.0
C114 C 0.89833 0.36873 0.69478 0.0
C115 C 0.91954 0.37918 0.7366 0.0
C116 C 0.90621 0.4008 0.73815 0.0
C117 C 0.88949 0.40688 0.71808 0.0
C118 C 0.88587 0.39091 0.69658 0.0
N119 N 0.87696 0.4295 0.71812 0.0
C120 C 0.8729 0.44451 0.7385 0.0
H121 H 0.16637 0.38127 0.74942 0.0
H122 H 0.19887 0.37086 0.68065 0.0
H123 H 0.12568 0.323 0.69629 0.0
C124 C 0.16524 0.37132 0.73174 0.0
C125 C 0.14383 0.35091 0.72506 0.0
C126 C 0.18512 0.37899 0.71574 0.0
C127 C 0.1834 0.36565 0.69291 0.0
C128 C 0.1619 0.34555 0.68588 0.0
C129 C 0.14229 0.33836 0.70196 0.0
N130 N 0.15934 0.33224 0.66272 0.0
C131 C 0.17902 0.33558 0.64647 0.0
H132 H 0.15857 0.37122 0.3123 0.0
H133 H 0.18131 0.31859 0.3673 0.0
H134 H 0.24042 0.37756 0.34097 0.0
C135 C 0.17368 0.36462 0.32457 0.0
C136 C 0.2003 0.37703 0.32465 0.0
C137 C 0.16651 0.34341 0.3398 0.0
C138 C 0.18633 0.33523 0.35584 0.0
C139 C 0.21297 0.34757 0.35612 0.0
C140 C 0.21979 0.36813 0.34041 0.0
N141 N 0.23361 0.33921 0.3713 0.0
C142 C 0.22991 0.32684 0.39339 0.0
H143 H 0.29008 0.644 0.37846 0.0
H144 H 0.22197 0.67579 0.39972 0.0
H145 H 0.21509 0.62814 0.33438 0.0
C146 C 0.26947 0.64647 0.37518 0.0
C147 C 0.25428 0.63475 0.35395 0.0
C148 C 0.25827 0.66186 0.39181 0.0
C149 C 0.23143 0.66518 0.38677 0.0
C150 C 0.21603 0.65326 0.36594 0.0
C151 C 0.2275 0.63806 0.34989 0.0
N152 N 0.18796 0.65213 0.3633 0.0
C153 C 0.17491 0.67298 0.35698 0.0
H154 H 0.88406 0.64574 0.32428 0.0
H155 H 0.90934 0.729 0.32178 0.0
H156 H 0.84346 0.69867 0.36247 0.0
C157 C 0.88175 0.66543 0.3295 0.0
C158 C 0.86105 0.66949 0.3439 0.0
C159 C 0.89911 0.68685 0.32127 0.0
C160 C 0.89578 0.71233 0.32766 0.0
C161 C 0.8763 0.71671 0.34287 0.0
C162 C 0.8588 0.69528 0.35089 0.0
N163 N 0.87506 0.74295 0.34974 0.0
C164 C 0.86475 0.75025 0.371 0.0
H165 H 0.89012 0.29503 0.43134 0.0
H166 H 0.91806 0.34695 0.37497 0.0
H167 H 0.87105 0.37314 0.42855 0.0
C168 C 0.89105 0.31371 0.42255 0.0
C169 C 0.87859 0.3334 0.43255 0.0
C170 C 0.90516 0.31825 0.40152 0.0
C171 C 0.9067 0.34275 0.39073 0.0
C172 C 0.89446 0.36245 0.40011 0.0
C173 C 0.88035 0.35783 0.42107 0.0
N174 N 0.89796 0.38674 0.38809 0.0
C175 C 0.88517 0.40797 0.39174 0.0
H176 H 0.79256 0.14212 0.66973 0.0
H177 H 0.72322 0.12425 0.71028 0.0
H178 H 0.72304 0.17759 0.65165 0.0
C179 C 0.77253 0.14475 0.67288 0.0
C180 C 0.75991 0.16253 0.65862 0.0
C181 C 0.75959 0.13077 0.69172 0.0
C182 C 0.73387 0.13515 0.69638 0.0
C183 C 0.72099 0.15224 0.68205 0.0
C184 C 0.73383 0.16534 0.66312 0.0
N185 N 0.6939 0.15407 0.6842 0.0
C186 C 0.68393 0.1621 0.70545 0.0
H187 H 0.41755 0.17296 0.71703 0.0
H188 H 0.44744 0.21781 0.65683 0.0
H189 H 0.36622 0.1778 0.65152 0.0
C190 C 0.41449 0.18007 0.69866 0.0
C191 C 0.3895 0.17311 0.68542 0.0
C192 C 0.43546 0.19634 0.68866 0.0
C193 C 0.43128 0.20565 0.66499 0.0
C194 C 0.40633 0.19929 0.65166 0.0
C195 C 0.38532 0.18326 0.66203 0.0
N196 N 0.40327 0.20847 0.62752 0.0
C197 C 0.37964 0.2151 0.61722 0.0
H198 H 0.40772 0.8388 0.7026 0.0
H199 H 0.39334 0.90283 0.74777 0.0
H200 H 0.35336 0.88863 0.67519 0.0
C201 C 0.3977 0.85536 0.70506 0.0
C202 C 0.38008 0.8618 0.68591 0.0
C203 C 0.40259 0.8699 0.72742 0.0
C204 C 0.38967 0.89157 0.73064 0.0
C205 C 0.37164 0.89823 0.71184 0.0
C206 C 0.36699 0.88323 0.68968 0.0
N207 N 0.35774 0.91975 0.7142 0.0
C208 C 0.35892 0.93685 0.73448 0.0
H209 H 0.65132 0.86701 0.72953 0.0
H210 H 0.68514 0.87208 0.66019 0.0
H211 H 0.62282 0.80804 0.67316 0.0
C212 C 0.65199 0.85914 0.71116 0.0
C213 C 0.63524 0.8357 0.70346 0.0
C214 C 0.66993 0.87243 0.69574 0.0
C215 C 0.67121 0.86195 0.67214 0.0
C216 C 0.65387 0.83883 0.66384 0.0
C217 C 0.63578 0.82603 0.67948 0.0
N218 N 0.65406 0.82789 0.63995 0.0
C219 C 0.67509 0.83368 0.62531 0.0
H220 H 0.64571 0.89386 0.31426 0.0
H221 H 0.66993 0.83879 0.36583 0.0
H222 H 0.72724 0.90295 0.34502 0.0
C223 C 0.66114 0.8872 0.32609 0.0
C224 C 0.6872 0.90144 0.32799 0.0
C225 C 0.65474 0.86465 0.33978 0.0
C226 C 0.67462 0.85648 0.35565 0.0
C227 C 0.70074 0.87039 0.35763 0.0
C228 C 0.70689 0.89263 0.34369 0.0
N229 N 0.72138 0.86227 0.37308 0.0
C230 C 0.71716 0.84333 0.39073 0.0
H231 H 0.78465 0.16177 0.38384 0.0
H232 H 0.72586 0.20134 0.41316 0.0
H233 H 0.70906 0.163 0.34258 0.0
C234 C 0.7652 0.16755 0.38224 0.0
C235 C 0.74782 0.16012 0.36089 0.0
C236 C 0.75789 0.18301 0.40118 0.0
C237 C 0.7325 0.19042 0.39852 0.0
C238 C 0.71525 0.18397 0.37722 0.0
C239 C 0.72299 0.16891 0.35847 0.0
N240 N 0.68948 0.1912 0.37632 0.0
C241 C 0.6749 0.19843 0.35553 0.0
H242 H 0.42115 0.16924 0.35389 0.0
H243 H 0.42142 0.22263 0.415 0.0
H244 H 0.36299 0.15261 0.40648 0.0
C245 C 0.41302 0.17441 0.3706 0.0
C246 C 0.39078 0.15798 0.37856 0.0
C247 C 0.42426 0.19786 0.38358 0.0
C248 C 0.41273 0.20488 0.40462 0.0
C249 C 0.39056 0.18858 0.41278 0.0
C250 C 0.37991 0.16519 0.39985 0.0
N251 N 0.37869 0.19495 0.4341 0.0
C252 C 0.38188 0.22004 0.44444 0.0
H253 H 0.38083 0.78905 0.41813 0.0
H254 H 0.403 0.84018 0.35927 0.0
H255 H 0.34929 0.8609 0.40937 0.0
C256 C 0.37917 0.8066 0.40804 0.0
C257 C 0.36321 0.82424 0.41631 0.0
C258 C 0.39349 0.81191 0.38718 0.0
C259 C 0.39152 0.83516 0.37482 0.0
C260 C 0.37541 0.85257 0.38233 0.0
C261 C 0.36124 0.84713 0.40312 0.0
N262 N 0.37557 0.87603 0.36919 0.0
C263 C 0.3561 0.89192 0.36811 0.0
H264 H 0.78337 0.67981 0.20332 0.0
H265 H 0.71374 0.67283 0.24371 0.0
H266 H 0.71609 0.71366 0.17596 0.0
C267 C 0.76323 0.68314 0.20492 0.0
C268 C 0.75128 0.69713 0.18664 0.0
C269 C 0.7498 0.67345 0.22522 0.0
C270 C 0.72448 0.68003 0.22828 0.0
C271 C 0.71257 0.6951 0.21068 0.0
C272 C 0.72588 0.70304 0.18984 0.0
N273 N 0.68684 0.70184 0.21237 0.0
C274 C 0.67186 0.69996 0.2327 0.0
H275 H 0.39111 0.66733 0.20674 0.0
H276 H 0.42117 0.73032 0.16118 0.0
H277 H 0.34599 0.68089 0.13975 0.0
C278 C 0.38891 0.67857 0.19037 0.0
C279 C 0.36619 0.67168 0.17389 0.0
C280 C 0.40891 0.69955 0.18601 0.0
C281 C 0.40585 0.71407 0.16485 0.0
C282 C 0.38323 0.70765 0.14815 0.0
C283 C 0.36342 0.68622 0.15261 0.0
N284 N 0.38143 0.72304 0.12701 0.0
C285 C 0.35846 0.72267 0.11142 0.0
H286 H 0.41857 0.3061 0.17728 0.0
H287 H 0.43707 0.35288 0.24385 0.0
H288 H 0.37212 0.36576 0.19293 0.0
C289 C 0.41475 0.32185 0.18899 0.0
C290 C 0.39335 0.3351 0.18225 0.0
C291 C 0.43046 0.32783 0.21132 0.0
C292 C 0.42493 0.34783 0.22671 0.0
C293 C 0.40437 0.36196 0.22014 0.0
C294 C 0.38834 0.35533 0.19796 0.0
N295 N 0.40063 0.38235 0.23667 0.0
C296 C 0.38342 0.40049 0.23298 0.0
H297 H 0.71079 0.41346 0.25651 0.0
H298 H 0.78997 0.406 0.23949 0.0
H299 H 0.72564 0.34218 0.22316 0.0
C300 C 0.72433 0.40234 0.24863 0.0
C301 C 0.7148 0.37664 0.23975 0.0
C302 C 0.75139 0.41328 0.24872 0.0
C303 C 0.76884 0.3984 0.23885 0.0
C304 C 0.75943 0.37307 0.22917 0.0
C305 C 0.73251 0.36218 0.22975 0.0
N306 N 0.77774 0.3574 0.22196 0.0
C307 C 0.7818 0.35339 0.19752 0.0
H308 H 0.68222 0.39209 0.84133 0.0
H309 H 0.69927 0.32864 0.88635 0.0
H310 H 0.74934 0.4037 0.89598 0.0
C311 C 0.69426 0.38463 0.85593 0.0
C312 C 0.71665 0.40105 0.86771 0.0
C313 C 0.68752 0.35853 0.86276 0.0
C314 C 0.70368 0.34894 0.88129 0.0
C315 C 0.72558 0.36506 0.89356 0.0
C316 C 0.73211 0.39121 0.88679 0.0
N317 N 0.74095 0.35372 0.91191 0.0
C318 C 0.75777 0.36719 0.93086 0.0
H319 H 0.78587 0.69033 0.92296 0.0
H320 H 0.7214 0.73345 0.90675 0.0
H321 H 0.73542 0.67482 0.85563 0.0
C322 C 0.76907 0.69418 0.911 0.0
C323 C 0.76257 0.68021 0.88834 0.0
C324 C 0.75465 0.71395 0.91765 0.0
C325 C 0.73287 0.71871 0.90174 0.0
C326 C 0.72587 0.70441 0.87947 0.0
C327 C 0.74098 0.68566 0.8729 0.0
N328 N 0.70399 0.70811 0.86286 0.0
C329 C 0.68535 0.72429 0.86634 0.0
H330 H 0.39683 0.64457 0.82516 0.0
H331 H 0.36721 0.71549 0.84007 0.0
H332 H 0.31558 0.64171 0.84282 0.0
C333 C 0.38072 0.65425 0.83007 0.0
C334 C 0.35548 0.63947 0.83335 0.0
C335 C 0.38532 0.68164 0.83309 0.0
C336 C 0.36418 0.69432 0.83834 0.0
C337 C 0.33922 0.68005 0.84196 0.0
C338 C 0.33498 0.65264 0.83986 0.0
N339 N 0.31859 0.6939 0.84712 0.0
C340 C 0.29912 0.68486 0.86261 0.0
H341 H 0.4333 0.27501 0.91031 0.0
H342 H 0.4319 0.33613 0.85801 0.0
H343 H 0.3871 0.33562 0.9211 0.0
C344 C 0.42661 0.2929 0.9046 0.0
C345 C 0.40927 0.30375 0.91877 0.0
C346 C 0.43563 0.30469 0.88312 0.0
C347 C 0.4252 0.32681 0.87448 0.0
C348 C 0.40723 0.33766 0.88815 0.0
C349 C 0.39996 0.32635 0.91031 0.0
N350 N 0.39721 0.36089 0.88153 0.0
C351 C 0.39573 0.37213 0.85854 0.0
Cu352 Cu 0.32607 0.24651 0.06015 0.0
N353 N 0.35426 0.24443 0.04075 0.0
N354 N 0.37818 0.25477 1.0087 0.0
C355 C 0.36278 0.26311 1.02498 0.0
C356 C 0.37996 0.22996 1.01474 0.0
C357 C 0.36496 0.22353 0.03438 0.0
O358 O 0.29504 0.24029 0.03603 0.0
C359 C 0.32596 0.28573 0.09838 0.0
O360 O 0.30276 0.27263 0.10313 0.0
H361 H 0.35655 0.28203 1.0245 0.0
H362 H 0.36047 0.20438 0.04206 0.0
N363 N 0.32093 0.2199 0.08312 0.0
N364 N 0.3023 0.19647 0.11324 0.0
C365 C 0.29937 0.21438 0.096 0.0
C366 C 0.33806 0.20476 0.09245 0.0
C367 C 0.32654 0.19015 0.1109 0.0
C368 C 0.29282 0.25346 1.01671 0.0
O369 O 0.30666 0.27713 1.01618 0.0
H370 H 0.28205 0.22379 0.09316 0.0
H371 H 0.35796 0.20511 0.08699 0.0
O372 O 0.33631 0.27967 0.07911 0.0
H373 H 0.38958 0.21678 1.00447 0.0
H374 H 0.33581 0.17691 0.12251 0.0
Cu375 Cu 0.86326 0.35397 0.04902 0.0
N376 N 0.8395 0.33783 0.07062 0.0
N377 N 0.81622 0.33298 0.10364 0.0
C378 C 0.83042 0.35 0.08925 0.0
C379 C 0.81609 0.30913 0.09327 0.0
C380 C 0.83044 0.31219 0.07293 0.0
O381 O 0.89028 0.37992 0.06713 0.0
C382 C 0.82072 0.3746 1.02213 0.0
O383 O 0.80846 0.37229 0.04233 0.0
H384 H 0.83508 0.37094 0.09255 0.0
H385 H 0.83504 0.29673 0.0614 0.0
N386 N 0.8797 0.32984 0.03312 0.0
N387 N 0.88465 0.29922 1.00551 0.0
C388 C 0.8673 0.30999 1.01807 0.0
C389 C 0.90574 0.33197 0.02976 0.0
C390 C 0.90891 0.31289 1.013 0.0
C391 C 0.90075 0.3783 0.08897 0.0
O392 O 0.91696 0.39868 0.0991 0.0
H393 H 0.84587 0.30439 1.01565 0.0
H394 H 0.92117 0.34717 0.03803 0.0
O395 O 0.84423 0.36948 1.0223 0.0
H396 H 0.80752 0.29062 0.10052 0.0
H397 H 0.92743 0.31034 1.00583 0.0
Cu398 Cu 0.82865 0.77838 0.04881 0.0
N399 N 0.85654 0.77829 0.02842 0.0
N400 N 0.8792 0.78873 0.99548 0.0
C401 C 0.86352 0.79666 1.01181 0.0
C402 C 0.8827 0.76458 1.00244 0.0
C403 C 0.86855 0.75812 1.02256 0.0
O404 O 0.7965 0.76885 0.02615 0.0
C405 C 0.82455 0.81601 0.08738 0.0
O406 O 0.80067 0.80285 0.08968 0.0
H407 H 0.85608 0.81499 1.01092 0.0
H408 H 0.86556 0.73928 0.03103 0.0
N409 N 0.82665 0.75201 0.07203 0.0
N410 N 0.81118 0.72913 0.10379 0.0
C411 C 0.80576 0.74514 0.0855 0.0
C412 C 0.84596 0.73975 0.08205 0.0
C413 C 0.83639 0.72545 0.1015 0.0
C414 C 0.79295 0.77895 1.00528 0.0
O415 O 0.80591 0.80241 1.0015 0.0
H416 H 0.78721 0.75252 0.08248 0.0
H417 H 0.86604 0.74222 0.07657 0.0
O418 O 0.83678 0.81106 0.06888 0.0
H419 H 0.89302 0.75169 0.99257 0.0
H420 H 0.84768 0.71451 0.11391 0.0
Cu421 Cu 0.23238 0.72298 1.00267 0.0
N422 N 0.20439 0.71863 1.0227 0.0
N423 N 0.18273 0.73183 0.0531 0.0
C424 C 0.19612 0.73895 0.0334 0.0
C425 C 0.18193 0.70573 0.05444 0.0
C426 C 0.19535 0.69763 0.03562 0.0
O427 O 0.26509 0.72291 1.02351 0.0
C428 C 0.21196 0.75802 0.97147 0.0
O429 O 0.19177 0.73854 0.96924 0.0
H430 H 0.20303 0.75906 0.02887 0.0
H431 H 0.20057 0.67844 0.03323 0.0
N432 N 0.22951 0.69621 0.97909 0.0
N433 N 0.23809 0.67765 0.94423 0.0
C434 C 0.2364 0.70018 0.95612 0.0
C435 C 0.22659 0.67018 0.98194 0.0
C436 C 0.23195 0.65863 0.96039 0.0
C437 C 0.2704 0.73641 0.04346 0.0
O438 O 0.25448 0.75255 0.04919 0.0
H439 H 0.24246 0.71946 0.94907 0.0
H440 H 0.22277 0.6605 0.99895 0.0
O441 O 0.23242 0.75566 0.98568 0.0
H442 H 0.17432 0.69378 0.06916 0.0
H443 H 0.23269 0.63811 0.95732 0.0
Cu444 Cu 0.0203 0.24534 0.30542 0.0
N445 N 0.03755 0.21659 0.30042 0.0
N446 N 0.06813 0.19429 0.2874 0.0
C447 C 0.06132 0.21811 0.29099 0.0
C448 C 0.04774 0.17711 0.29504 0.0
C449 C 0.02897 0.1909 0.30308 0.0
O450 O 0.04838 0.27533 0.31053 0.0
C451 C 0.99561 0.23893 0.25611 0.0
O452 O 1.01288 0.22348 0.25242 0.0
H453 H 0.07281 0.23637 0.28582 0.0
H454 H 1.01011 0.18275 0.30978 0.0
N455 N 0.9999 0.24261 0.33262 0.0
N456 N 0.97139 0.2531 0.35869 0.0
C457 C 0.98224 0.25831 0.33719 0.0
C458 C 1.00027 0.22677 0.35186 0.0
C459 C 0.98278 0.23326 0.36801 0.0
C460 C 0.06261 0.27842 0.3309 0.0
O461 O 0.05655 0.2623 0.34863 0.0
H462 H 0.9781 0.27386 0.32526 0.0
H463 H 1.01274 0.21192 0.35421 0.0
O464 O 0.99631 0.25032 0.27698 0.0
H465 H 0.04627 0.15605 0.29461 0.0
H466 H 0.97885 0.22412 0.38527 0.0
Cu467 Cu 0.77896 0.04827 0.25639 0.0
N468 N 0.78033 0.06969 0.22922 0.0
N469 N 0.79398 0.10535 0.20808 0.0
C470 C 0.79683 0.09275 0.2293 0.0
C471 C 0.77499 0.08921 0.19391 0.0
C472 C 0.76662 0.0672 0.20701 0.0
O473 O 0.78207 0.07185 0.28535 0.0
C474 C 0.80242 1.00969 0.23605 0.0
O475 O 0.7813 1.00939 0.22058 0.0
H476 H 0.8108 0.09992 0.2448 0.0
H477 H 0.75163 0.05066 0.20074 0.0
N478 N 0.74685 0.02542 0.25743 0.0
N479 N 0.71908 0.99207 0.27133 0.0
C480 C 0.74362 1.0066 0.27403 0.0
C481 C 0.72344 0.02292 0.24366 0.0
C482 C 0.70625 1.00213 0.25213 0.0
C483 C 0.7654 0.08773 0.28414 0.0
O484 O 0.74842 0.08641 0.26459 0.0
H485 H 0.75932 1.00336 0.28756 0.0
H486 H 0.7191 0.03525 0.22865 0.0
O487 O 0.80626 0.02609 0.25422 0.0
H488 H 0.76739 0.09308 0.17553 0.0
H489 H 0.68588 0.99518 0.24494 0.0
Cu490 Cu 0.03618 0.74644 0.27303 0.0
N491 N 0.02074 0.77694 0.27412 0.0
N492 N 0.99322 0.80523 0.26375 0.0
C493 C 0.99907 0.78114 0.25984 0.0
C494 C 1.01169 0.81654 0.28148 0.0
C495 C 0.02871 0.79912 0.28774 0.0
O496 O 1.00582 0.71809 0.26957 0.0
C497 C 0.05361 0.76065 0.2262 0.0
O498 O 0.02969 0.76617 0.22101 0.0
H499 H 0.9879 0.76684 0.24663 0.0
H500 H 0.04597 0.8026 0.30093 0.0
N501 N 0.05892 0.74293 0.30129 0.0
N502 N 0.0922 0.73046 0.32534 0.0
C503 C 0.07993 0.73013 0.30237 0.0
C504 C 0.05782 0.75178 0.32434 0.0
C505 C 0.07823 0.74417 0.33915 0.0
C506 C 1.00116 0.70042 0.2853 0.0
O507 O 0.0204 0.69679 0.30165 0.0
H508 H 0.08561 0.72019 0.28662 0.0
H509 H 0.04306 0.76279 0.33003 0.0
O510 O 0.05872 0.74932 0.24605 0.0
H511 H 1.01327 0.8363 0.28883 0.0
H512 H 0.08236 0.7485 0.35862 0.0
Cu513 Cu 0.28141 1.00691 0.29553 0.0
N514 N 0.31473 0.03056 0.3053 0.0
N515 N 0.34423 0.06383 0.3227 0.0
C516 C 0.31878 0.051 0.32144 0.0
C517 C 0.35643 0.05075 0.30671 0.0
C518 C 0.33819 0.03029 0.29602 0.0
O519 O 0.26728 0.03644 0.27707 0.0
C520 C 0.30139 0.97481 0.33518 0.0
O521 O 0.29751 0.99362 0.35012 0.0
H522 H 0.30337 0.05627 0.33195 0.0
H523 H 0.34161 0.01646 0.28214 0.0
N524 N 0.24842 0.98314 0.28526 0.0
N525 N 0.21997 0.95066 0.26548 0.0
C526 C 0.24521 0.96393 0.26794 0.0
C527 C 0.22459 0.98219 0.29417 0.0
C528 C 0.20694 0.96216 0.28197 0.0
C529 C 0.25512 0.05316 0.2865 0.0
O530 O 0.25103 0.05204 0.30987 0.0
H531 H 0.26109 0.95996 0.25731 0.0
H532 H 0.22043 0.99499 0.30861 0.0
O533 O 0.29607 0.97659 0.31217 0.0
H534 H 0.37689 0.05595 0.30245 0.0
H535 H 0.18628 0.95625 0.28536 0.0
Cu536 Cu 0.04621 0.75004 0.7718 0.0
N537 N 0.06806 0.7241 0.77116 0.0
N538 N 0.10138 0.70463 0.75965 0.0
C539 C 0.08707 0.72408 0.75546 0.0
C540 C 0.09077 0.69186 0.77882 0.0
C541 C 0.07035 0.70392 0.78591 0.0
O542 O 0.07093 0.78268 0.77849 0.0
C543 C 1.01021 0.72254 0.73837 0.0
O544 O 1.01574 0.70506 0.75425 0.0
H545 H 0.09047 0.73843 0.74143 0.0
H546 H 0.05866 0.6988 0.80122 0.0
N547 N 0.02277 0.74826 0.79661 0.0
N548 N 0.99162 0.76139 0.81821 0.0
C549 C 1.01024 0.76823 0.80226 0.0
C550 C 1.01172 0.72795 0.80942 0.0
C551 C 0.99264 0.73601 0.82283 0.0
C552 C 0.08547 0.78146 0.79841 0.0
O553 O 0.08133 0.76009 0.81113 0.0
H554 H 1.01394 0.78708 0.79382 0.0
H555 H 1.01633 0.70841 0.80838 0.0
O556 O 0.02285 0.74591 0.74147 0.0
H557 H 0.09788 0.67558 0.78778 0.0
H558 H 0.98026 0.72392 0.83478 0.0
Cu559 Cu 0.29774 0.05957 0.79291 0.0
N560 N 0.2963 0.07957 0.76502 0.0
N561 N 0.31165 0.1055 0.73529 0.0
C562 C 0.31798 0.09155 0.75489 0.0
C563 C 0.28478 0.1022 0.73308 0.0
C564 C 0.27534 0.08609 0.75146 0.0
O565 O 0.30486 0.08557 0.82044 0.0
C566 C 0.32918 0.01624 0.79655 0.0
O567 O 0.32009 1.01033 0.81788 0.0
H568 H 0.33807 0.09054 0.76227 0.0
H569 H 0.25473 0.07981 0.7548 0.0
N570 N 0.26445 0.03897 0.79542 0.0
N571 N 0.2345 1.00451 0.80409 0.0
C572 C 0.25946 0.01291 0.79798 0.0
C573 C 0.24158 0.04734 0.79937 0.0
C574 C 0.22302 0.0261 0.8047 0.0
C575 C 0.29427 0.08295 0.84082 0.0
O576 O 0.28236 0.05967 0.84658 0.0
H577 H 0.27411 1.0004 0.7963 0.0
H578 H 0.23915 0.06766 0.79995 0.0
O579 O 0.32389 0.03682 0.78602 0.0
H580 H 0.2728 0.11071 0.71919 0.0
H581 H 0.20335 0.0268 0.81035 0.0
Cu582 Cu 0.03869 0.29527 0.82989 0.0
N583 N 0.0195 0.3231 0.83003 0.0
N584 N 0.99167 0.34828 0.81307 0.0
C585 C 1.007 0.33008 0.80918 0.0
C586 C 0.99451 0.35289 0.8376 0.0
C587 C 1.01176 0.3373 0.84805 0.0
O588 O 1.01277 0.26378 0.8335 0.0
C589 C 0.07005 0.32061 0.79791 0.0
O590 O 0.07143 0.33766 0.81618 0.0
H591 H 1.0082 0.32089 0.79152 0.0
H592 H 1.01743 0.33579 0.86739 0.0
N593 N 0.06742 0.29582 0.85372 0.0
N594 N 0.10555 0.28425 0.86944 0.0
C595 C 0.08739 0.28271 0.8499 0.0
C596 C 0.0731 0.30627 0.87662 0.0
C597 C 0.09659 0.29898 0.88645 0.0
C598 C 1.00439 0.26151 0.85479 0.0
O599 O 1.01483 0.27916 0.87188 0.0
H600 H 0.08811 0.27155 0.83317 0.0
H601 H 0.06088 0.31792 0.88567 0.0
O602 O 0.05552 0.29822 0.79928 0.0
H603 H 0.98456 0.3662 0.84735 0.0
H604 H 0.1063 0.30412 0.90461 0.0
Cu605 Cu 0.80886 1.00323 0.76914 0.0
N606 N 0.81484 0.02011 0.79985 0.0
N607 N 0.83112 0.0512 0.82843 0.0
C608 C 0.82742 0.04484 0.80423 0.0
C609 C 0.82048 0.02932 0.83966 0.0
C610 C 0.81059 1.01015 0.82197 0.0
O611 O 0.80957 0.03155 0.74503 0.0
C612 C 0.82799 0.9564 0.7803 0.0
O613 O 0.80309 0.94948 0.78502 0.0
H614 H 0.83377 0.05777 0.78977 0.0
H615 H 0.80151 0.99021 0.82501 0.0
N616 N 0.77433 0.98421 0.76475 0.0
N617 N 0.73839 0.95752 0.74774 0.0
C618 C 0.76411 0.96791 0.74566 0.0
C619 C 0.75446 0.98425 0.77937 0.0
C620 C 0.73227 0.9678 0.76894 0.0
C621 C 0.79273 0.04661 0.74894 0.0
O622 O 0.77781 0.0413 0.76725 0.0
H623 H 0.77537 0.96384 0.73058 0.0
H624 H 0.75603 0.99542 0.79642 0.0
O625 O 0.83497 0.97876 0.77087 0.0
H626 H 0.82031 0.02697 0.85924 0.0
H627 H 0.7133 0.96328 0.7767 0.0
Cu628 Cu 0.31491 0.7571 0.54048 0.0
N629 N 0.34311 0.77205 0.56351 0.0
N630 N 0.36316 0.79636 0.59654 0.0
C631 C 0.33993 0.78732 0.58293 0.0
C632 C 0.38164 0.78604 0.58496 0.0
C633 C 0.36929 0.77118 0.56473 0.0
O634 O 0.28652 0.74233 0.56115 0.0
C635 C 0.32555 0.80237 0.51187 0.0
O636 O 0.34458 0.81086 0.52911 0.0
H637 H 0.32072 0.79178 0.58671 0.0
H638 H 0.3788 0.76077 0.55172 0.0
N639 N 0.32129 0.73072 0.51876 0.0
N640 N 0.31342 0.7062 0.48381 0.0
C641 C 0.30478 0.72374 0.49836 0.0
C642 C 0.34126 0.71698 0.51729 0.0
C643 C 0.33635 0.7017 0.49581 0.0
C644 C 0.28436 0.71824 0.56676 0.0
O645 O 0.29821 0.70323 0.5556 0.0
H646 H 0.28674 0.73174 0.49421 0.0
H647 H 0.35836 0.71827 0.53054 0.0
O648 O 0.30763 0.78308 0.51621 0.0
H649 H 0.40274 0.78895 0.59044 0.0
H650 H 0.3491 0.6889 0.48924 0.0
Cu651 Cu 0.77465 0.78453 0.50651 0.0
N652 N 0.80406 0.7934 0.48871 0.0
N653 N 0.82962 0.78988 0.45807 0.0
C654 C 0.80651 0.7808 0.46762 0.0
C655 C 0.84234 0.80902 0.47396 0.0
C656 C 0.82642 0.81119 0.4929 0.0
O657 O 0.74574 0.77492 0.48095 0.0
C658 C 0.79922 0.76434 0.54638 0.0
O659 O 0.8093 0.78934 0.54909 0.0
H660 H 0.79175 0.76476 0.45979 0.0
H661 H 0.83088 0.82459 0.50861 0.0
N662 N 0.76798 0.81257 0.52545 0.0
N663 N 0.74961 0.83268 0.55431 0.0
C664 C 0.75525 0.8098 0.54602 0.0
C665 C 0.77071 0.83817 0.5205 0.0
C666 C 0.75925 0.85067 0.53829 0.0
C667 C 0.72609 0.78711 0.4784 0.0
O668 O 0.71869 0.79822 0.49781 0.0
H669 H 0.74869 0.79099 0.55379 0.0
H670 H 0.77922 0.84686 0.50448 0.0
O671 O 0.78228 0.75683 0.52819 0.0
H672 H 0.86163 0.8207 0.472 0.0
H673 H 0.75742 0.87115 0.53895 0.0
Cu674 Cu 0.83198 0.26178 0.55192 0.0
N675 N 0.83655 0.23751 0.52738 0.0
N676 N 0.82439 0.21605 0.49111 0.0
C677 C 0.81772 0.23197 0.50843 0.0
C678 C 0.84848 0.21092 0.49972 0.0
C679 C 0.85606 0.22437 0.52207 0.0
O680 O 0.82217 0.2894 0.53064 0.0
C681 C 0.81294 0.22255 0.58201 0.0
O682 O 0.83523 0.21575 0.57595 0.0
H683 H 0.79946 0.24001 0.50725 0.0
H684 H 0.87465 0.225 0.53322 0.0
N685 N 0.86106 0.27623 0.57426 0.0
N686 N 0.88155 0.30076 0.60695 0.0
C687 C 0.85803 0.29005 0.59468 0.0
C688 C 0.8875 0.27792 0.57352 0.0
C689 C 0.90015 0.29295 0.59361 0.0
C690 C 0.83904 0.30989 0.52722 0.0
O691 O 0.85716 0.31887 0.54509 0.0
H692 H 0.8387 0.29251 0.60005 0.0
H693 H 0.89692 0.26958 0.55904 0.0
O694 O 0.80594 0.2431 0.57268 0.0
H695 H 0.86021 0.19911 0.49018 0.0
H696 H 0.92147 0.29834 0.59751 0.0
Cu697 Cu 0.29263 0.30218 0.52944 0.0
N698 N 0.28063 0.32631 0.54944 0.0
N699 N 0.25706 0.34065 0.57771 0.0
C700 C 0.26213 0.31967 0.56529 0.0
C701 C 0.27286 0.36146 0.56913 0.0
C702 C 0.28753 0.35249 0.55168 0.0
O703 O 0.29873 0.27199 0.54838 0.0
C704 C 0.24917 0.30516 0.49389 0.0
O705 O 0.242 0.32128 0.50978 0.0
H706 H 0.25242 0.29972 0.56743 0.0
H707 H 0.30217 0.36415 0.54141 0.0
N708 N 0.3255 0.31466 0.51815 0.0
N709 N 0.35869 0.30584 0.49702 0.0
C710 C 0.33217 0.30449 0.4973 0.0
C711 C 0.34868 0.3235 0.53146 0.0
C712 C 0.36925 0.31805 0.51843 0.0
C713 C 0.30951 0.2762 0.57024 0.0
O714 O 0.31342 0.30009 0.57971 0.0
H715 H 0.31772 0.29241 0.48454 0.0
H716 H 0.35038 0.33006 0.55047 0.0
O717 O 0.26845 0.29324 0.50004 0.0
H718 H 0.27402 0.38159 0.57526 0.0
H719 H 0.38998 0.32019 0.52535 0.0
Cu720 Cu 0.801 0.55998 0.80411 0.0
N721 N 0.79397 0.57372 0.77337 0.0
N722 N 0.80113 0.59851 0.7407 0.0
C723 C 0.80893 0.59469 0.76437 0.0
C724 C 0.78036 0.57914 0.73459 0.0
C725 C 0.77595 0.5639 0.75481 0.0
O726 O 0.80869 0.59051 0.8272 0.0
C727 C 0.81991 0.51672 0.78665 0.0
O728 O 0.79475 0.51192 0.77813 0.0
H729 H 0.82614 0.60605 0.77464 0.0
H730 H 0.76131 0.54635 0.75562 0.0
N731 N 0.77076 0.53812 0.81336 0.0
N732 N 0.74616 0.50336 0.8288 0.0
C733 C 0.77097 0.51641 0.82647 0.0
C734 C 0.74496 0.53929 0.80747 0.0
C735 C 0.72972 0.51786 0.81692 0.0
C736 C 0.80079 0.59058 0.84878 0.0
O737 O 0.79184 0.56816 0.85849 0.0
H738 H 0.78917 0.51023 0.83372 0.0
H739 H 0.73777 0.55426 0.79653 0.0
O740 O 0.82837 0.53777 0.79955 0.0
H741 H 0.76952 0.57587 0.71667 0.0
H742 H 0.70824 0.51296 0.81439 0.0
Cu743 Cu 0.31685 0.49483 0.76625 0.0
N744 N 0.34423 0.47464 0.77089 0.0
N745 N 0.36729 0.44506 0.78773 0.0
C746 C 0.3445 0.45522 0.78704 0.0
C747 C 0.3819 0.45871 0.77125 0.0
C748 C 0.36763 0.47684 0.76087 0.0
O749 O 0.28323 0.47065 0.7613 0.0
C750 C 0.34028 0.53065 0.80344 0.0
O751 O 0.36214 0.52315 0.79717 0.0
H752 H 0.32857 0.44931 0.79867 0.0
H753 H 0.37414 0.49101 0.7474 0.0
N754 N 0.31911 0.51781 0.73986 0.0
N755 N 0.30929 0.55132 0.71731 0.0
C756 C 0.30701 0.53906 0.73884 0.0
C757 C 0.32971 0.51669 0.71823 0.0
C758 C 0.32354 0.53724 0.70423 0.0
C759 C 0.27652 0.46028 0.73997 0.0
O760 O 0.29227 0.4664 0.72243 0.0
H761 H 0.29583 0.54483 0.75333 0.0
H762 H 0.34042 0.50157 0.7127 0.0
O763 O 0.31786 0.51843 0.79424 0.0
H764 H 0.40156 0.45593 0.76703 0.0
H765 H 0.32896 0.54139 0.68582 0.0
Cu766 Cu 0.29547 0.5227 0.25496 0.0
N767 N 0.2631 0.50029 0.25578 0.0
N768 N 0.23455 0.46623 0.26731 0.0
C769 C 0.26024 0.4778 0.26788 0.0
C770 C 0.2206 0.48213 0.25437 0.0
C771 C 0.23836 0.50316 0.24714 0.0
O772 O 0.32268 0.49979 0.25493 0.0
C773 C 0.28161 0.56426 0.28049 0.0
O774 O 0.26579 0.56295 0.26018 0.0
H775 H 0.27666 0.47061 0.27775 0.0
H776 H 0.23352 0.51962 0.23685 0.0
N777 N 0.29618 0.54172 0.22615 0.0
N778 N 0.30588 0.57536 0.20153 0.0
C779 C 0.30992 0.56597 0.22415 0.0
C780 C 0.28302 0.53541 0.20396 0.0
C781 C 0.28913 0.55611 0.18864 0.0
C782 C 0.31934 0.48221 0.23773 0.0
O783 O 0.29903 0.48149 0.22123 0.0
H784 H 0.32265 0.57651 0.23911 0.0
H785 H 0.26968 0.5172 0.19933 0.0
O786 O 0.29775 0.5479 0.28292 0.0
H787 H 0.19917 0.47891 0.25061 0.0
H788 H 0.28145 0.55712 0.16971 0.0
Cu789 Cu 0.80431 0.54951 0.33664 0.0
N790 N 0.83382 0.53633 0.35078 0.0
N791 N 0.85606 0.50625 0.36752 0.0
C792 C 0.83205 0.51198 0.35947 0.0
C793 C 0.87367 0.52803 0.36373 0.0
C794 C 0.85992 0.54649 0.35332 0.0
O795 O 0.7841 0.5205 0.31689 0.0
C796 C 0.78472 0.58192 0.37201 0.0
O797 O 0.76737 0.58582 0.38747 0.0
H798 H 0.81338 0.49863 0.35957 0.0
H799 H 0.86847 0.56575 0.34771 0.0
N800 N 0.81191 0.57755 0.31574 0.0
N801 N 0.80409 0.60878 0.2898 0.0
C802 C 0.79382 0.59161 0.30615 0.0
C803 C 0.83437 0.58607 0.30496 0.0
C804 C 0.82955 0.60531 0.28886 0.0
C805 C 0.79446 0.51255 0.29842 0.0
O806 O 0.81753 0.52521 0.29275 0.0
H807 H 0.7732 0.58847 0.31027 0.0
H808 H 0.85258 0.57812 0.30775 0.0
O809 O 0.78324 0.55914 0.36229 0.0
H810 H 0.89506 0.53022 0.36738 0.0
H811 H 0.84341 0.61543 0.27686 0.0
Cu812 Cu 0.56656 0.24637 0.79021 0.0
N813 N 0.54361 0.24311 0.81555 0.0
N814 N 0.5137 0.25425 0.83968 0.0
C815 C 0.52494 0.2583 0.81828 0.0
C816 C 0.52562 0.23562 0.85072 0.0
C817 C 0.54402 0.22881 0.83585 0.0
O818 O 0.54331 0.24419 0.75999 0.0
C819 C 0.60369 0.27933 0.81844 0.0
O820 O 0.5995 0.25825 0.83153 0.0
H821 H 0.52076 0.27305 0.80543 0.0
H822 H 0.55766 0.21544 0.84028 0.0
N823 N 0.58745 0.21979 0.7882 0.0
N824 N 0.61672 0.19736 0.77288 0.0
C825 C 0.60665 0.21993 0.7727 0.0
C826 C 0.58529 0.19631 0.79871 0.0
C827 C 0.6033 0.18254 0.78939 0.0
C828 C 0.52907 0.2216 0.75634 0.0
O829 O 0.53219 0.20348 0.77232 0.0
H830 H 0.61251 0.23617 0.76105 0.0
H831 H 0.57073 0.18903 0.81123 0.0
O832 O 0.59115 0.2791 0.79728 0.0
H833 H 0.52183 0.22792 0.8686 0.0
H834 H 0.60526 0.16259 0.79359 0.0
Cu835 Cu 0.52768 0.77998 0.80637 0.0
N836 N 0.5536 0.77878 0.83265 0.0
N837 N 0.59115 0.76974 0.85225 0.0
C838 C 0.57522 0.76733 0.83109 0.0
C839 C 0.57886 0.78306 0.86792 0.0
C840 C 0.55576 0.78873 0.85574 0.0
O841 O 0.54601 0.78139 0.7766 0.0
C842 C 0.48624 0.74961 0.82616 0.0
O843 O 0.49366 0.76821 0.8431 0.0
H844 H 0.57915 0.75737 0.81461 0.0
H845 H 0.54172 0.79954 0.86314 0.0
N846 N 0.51123 0.80965 0.8067 0.0
N847 N 0.48231 0.8357 0.7939 0.0
C848 C 0.48943 0.81186 0.79186 0.0
C849 C 0.51838 0.83294 0.81867 0.0
C850 C 0.50056 0.84908 0.81078 0.0
C851 C 0.56636 0.79936 0.77745 0.0
O852 O 0.57223 0.81472 0.79714 0.0
H853 H 0.47965 0.79645 0.77905 0.0
H854 H 0.53565 0.83804 0.8317 0.0
O855 O 0.4994 0.74997 0.80737 0.0
H856 H 0.58629 0.78877 0.88666 0.0
H857 H 0.50121 0.86916 0.81684 0.0
Cu858 Cu 0.52508 0.74822 0.30305 0.0
N859 N 0.50228 0.74424 0.32866 0.0
N860 N 0.47072 0.75344 0.35213 0.0
C861 C 0.48242 0.75808 0.33095 0.0
C862 C 0.48381 0.73586 0.3636 0.0
C863 C 0.5032 0.73021 0.34912 0.0
O864 O 0.50285 0.74437 0.27228 0.0
C865 C 0.55813 0.78957 0.32763 0.0
O866 O 0.55326 0.77407 0.34607 0.0
H867 H 0.47746 0.77218 0.31771 0.0
H868 H 0.5175 0.71748 0.35363 0.0
N869 N 0.54983 0.72502 0.30238 0.0
N870 N 0.58529 0.70901 0.29065 0.0
C871 C 0.5717 0.72931 0.28976 0.0
C872 C 0.54955 0.70113 0.31172 0.0
C873 C 0.57131 0.6912 0.30449 0.0
C874 C 0.49264 0.72131 0.26462 0.0
O875 O 0.49799 0.70141 0.27755 0.0
H876 H 0.57694 0.74671 0.27934 0.0
H877 H 0.53423 0.69125 0.32241 0.0
O878 O 0.54653 0.78265 0.30653 0.0
H879 H 0.47993 0.72784 0.38134 0.0
H880 H 0.57626 0.67224 0.30894 0.0
Cu881 Cu 0.55622 0.27493 0.28786 0.0
N882 N 0.5413 0.27654 0.31756 0.0
N883 N 0.51312 0.26317 0.34562 0.0
C884 C 0.524 0.25659 0.32532 0.0
C885 C 0.52411 0.28837 0.35093 0.0
C886 C 0.54164 0.29658 0.33357 0.0
O887 O 0.52485 0.27002 0.26379 0.0
C888 C 0.59983 0.25519 0.30756 0.0
O889 O 0.60258 0.27826 0.31864 0.0
H890 H 0.51839 0.23802 0.31537 0.0
H891 H 0.55302 0.31597 0.33225 0.0
N892 N 0.57737 0.30656 0.28134 0.0
N893 N 0.61105 0.33406 0.26767 0.0
C894 C 0.60082 0.30889 0.27144 0.0
C895 C 0.57226 0.33105 0.28362 0.0
C896 C 0.59309 0.34811 0.27527 0.0
C897 C 0.52355 0.28274 0.24403 0.0
O898 O 0.54572 0.29408 0.23545 0.0
H899 H 0.60993 0.2923 0.26672 0.0
H900 H 0.55452 0.33608 0.29058 0.0
O901 O 0.57967 0.24825 0.29195 0.0
H902 H 0.5194 0.30016 0.36592 0.0
H903 H 0.595 0.36921 0.27515 0.0
C904 C 0.26502 0.15431 0.15874 0.0
C905 C 0.25113 0.17199 0.16993 0.0
H906 H 0.2922 0.14828 0.13214 0.0
C907 C 0.25415 0.19781 0.16154 0.0
H908 H 0.26288 0.13411 0.16408 0.0
C909 C 0.27046 0.20564 0.14268 0.0
C910 C 0.28461 0.18805 0.13195 0.0
H911 H 0.24437 0.21227 0.16984 0.0
H912 H 0.2726 0.22572 0.13696 0.0
C913 C 0.28174 0.16232 0.14023 0.0
C914 C 0.88819 0.30782 0.10843 0.0
C915 C 0.87776 0.31033 0.13103 0.0
H916 H 0.90454 0.32762 0.07778 0.0
C917 C 0.87648 0.33529 0.14055 0.0
H918 H 0.88945 0.28867 0.10088 0.0
C919 C 0.88474 0.35751 0.1271 0.0
C920 C 0.89375 0.35494 0.10375 0.0
H921 H 0.86835 0.33755 0.15798 0.0
H922 H 0.88305 0.37661 0.13447 0.0
C923 C 0.8963 0.33001 0.09497 0.0
C924 C 0.83956 0.85174 0.14975 0.0
C925 C 0.86739 0.85382 0.15352 0.0
H926 H 0.80416 0.83815 0.12598 0.0
C927 C 0.88111 0.84558 0.13438 0.0
H928 H 0.82841 0.85789 0.16413 0.0
C929 C 0.86734 0.83489 0.1123 0.0
C930 C 0.83937 0.83162 0.10892 0.0
H931 H 0.90257 0.84713 0.13661 0.0
H932 H 0.87858 0.82807 0.09832 0.0
C933 C 0.82569 0.84048 0.12785 0.0
C934 C 0.17468 0.79415 0.08451 0.0
C935 C 0.18179 0.78897 0.10895 0.0
H936 H 0.16866 0.77937 0.04734 0.0
C937 C 0.18575 0.76377 0.11531 0.0
H938 H 0.17152 0.81356 0.07935 0.0
C939 C 0.18411 0.74421 0.09708 0.0
C940 C 0.17865 0.74974 0.07226 0.0
H941 H 0.19133 0.75954 0.13418 0.0
H942 H 0.18884 0.72536 0.10228 0.0
C943 C 0.17307 0.77465 0.06628 0.0
C944 C 0.23097 0.82555 0.94575 0.0
C945 C 0.20849 0.82726 0.92975 0.0
H946 H 0.24978 0.80229 0.97159 0.0
C947 C 0.18719 0.80634 0.92744 0.0
H948 H 0.2476 0.84163 0.94776 0.0
C949 C 0.18834 0.78386 0.94105 0.0
C950 C 0.21085 0.78197 0.9572 0.0
H951 H 0.16966 0.80739 0.91517 0.0
H952 H 0.17156 0.76797 0.93889 0.0
C953 C 0.23218 0.80308 0.95937 0.0
C954 C 0.26707 0.19993 0.96794 0.0
C955 C 0.26327 0.21455 0.9469 0.0
H956 H 0.27854 0.20062 1.00659 0.0
C957 C 0.26758 0.24204 0.94946 0.0
H958 H 0.26371 0.17875 0.96666 0.0
C959 C 0.27611 0.2546 0.97228 0.0
C960 C 0.28024 0.24004 0.9933 0.0
H961 H 0.26504 0.25393 0.93362 0.0
H962 H 0.28 0.27579 0.97334 0.0
C963 C 0.27525 0.21251 0.99089 0.0
C964 C 0.89131 0.24444 0.96193 0.0
C965 C 0.86637 0.24053 0.94855 0.0
H966 H 0.91661 0.26612 0.99099 0.0
C967 C 0.84754 0.25605 0.95383 0.0
H968 H 0.90599 0.23241 0.95812 0.0
C969 C 0.85351 0.2753 0.97252 0.0
C970 C 0.87844 0.27928 0.98626 0.0
H971 H 0.82814 0.25318 0.94362 0.0
H972 H 0.83866 0.2872 0.97597 0.0
C973 C 0.89734 0.26371 0.98065 0.0
C974 C 0.91668 0.80764 0.94031 0.0
C975 C 0.89959 0.82192 0.92673 0.0
H976 H 0.92366 0.78608 0.97268 0.0
C977 C 0.87632 0.82632 0.93707 0.0
H978 H 0.93514 0.80437 0.93344 0.0
C979 C 0.87003 0.81614 0.9599 0.0
C980 C 0.88672 0.80113 0.97297 0.0
H981 H 0.86248 0.83692 0.92718 0.0
H982 H 0.85156 0.81922 0.96688 0.0
C983 C 0.91023 0.79724 0.96296 0.0
C984 C 0.13592 0.20291 0.26318 0.0
C985 C 0.13462 0.17939 0.2498 0.0
H986 H 0.11603 0.22598 0.28595 0.0
C987 C 0.11188 0.16011 0.25012 0.0
H988 H 0.15318 0.21819 0.26298 0.0
C989 C 0.09042 0.16459 0.26313 0.0
C990 C 0.09117 0.18859 0.27587 0.0
H991 H 0.11028 0.14197 0.23959 0.0
H992 H 0.07282 0.14967 0.2623 0.0
C993 C 0.11449 0.20746 0.2761 0.0
C994 C 0.82484 0.16249 0.17229 0.0
C995 C 0.83915 0.17899 0.19116 0.0
H996 H 0.79966 0.12584 0.16275 0.0
C997 C 0.83735 0.17153 0.21556 0.0
H998 H 0.82597 0.16783 0.1533 0.0
C999 C 0.82206 0.1478 0.22104 0.0
C1000 C 0.80843 0.13063 0.20223 0.0
H1001 H 0.84781 0.18413 0.23048 0.0
H1002 H 0.82104 0.14305 0.24013 0.0
C1003 C 0.80974 0.13846 0.17776 0.0
C1004 C 0.93953 0.84579 0.25072 0.0
C1005 C 0.93441 0.8431 0.22496 0.0
H1006 H 0.96233 0.83623 0.28302 0.0
C1007 C 0.94824 0.82634 0.21245 0.0
H1008 H 0.92882 0.85766 0.26134 0.0
C1009 C 0.96695 0.81334 0.22523 0.0
C1010 C 0.9727 0.8171 0.25076 0.0
H1011 H 0.94526 0.82381 0.1927 0.0
H1012 H 0.97764 0.80105 0.21504 0.0
C1013 C 0.95863 0.83332 0.26333 0.0
C1014 C 0.216 0.89149 0.22382 0.0
C1015 C 0.18851 0.88522 0.21705 0.0
H1016 H 0.24747 0.91672 0.24478 0.0
C1017 C 0.17153 0.90089 0.22645 0.0
H1018 H 0.22958 0.87957 0.21723 0.0
C1019 C 0.18181 0.92234 0.24222 0.0
C1020 C 0.20933 0.92861 0.24906 0.0
H1021 H 0.15029 0.89678 0.22135 0.0
H1022 H 0.16818 0.93419 0.24877 0.0
C1023 C 0.22627 0.91286 0.23964 0.0
C1024 C 0.1248 0.84887 0.81569 0.0
C1025 C 0.14616 0.84245 0.83111 0.0
H1026 H 0.08884 0.83456 0.79279 0.0
C1027 C 0.1481 0.81594 0.83387 0.0
H1028 H 0.12253 0.86908 0.81325 0.0
C1029 C 0.1287 0.79641 0.82252 0.0
C1030 C 0.10702 0.80276 0.80773 0.0
H1031 H 0.16461 0.81016 0.84491 0.0
H1032 H 0.13058 0.77616 0.82552 0.0
C1033 C 0.10548 0.82917 0.80395 0.0
C1034 C 0.28392 0.15219 0.85629 0.0
C1035 C 0.27343 0.14933 0.87928 0.0
H1036 H 0.29936 0.13393 0.82647 0.0
C1037 C 0.27286 0.12522 0.89079 0.0
H1038 H 0.28467 0.17054 0.84694 0.0
C1039 C 0.28095 0.104 0.87887 0.0
C1040 C 0.29028 0.10651 0.85533 0.0
H1041 H 0.26475 0.12233 0.9084 0.0
H1042 H 0.27896 0.08533 0.88774 0.0
C1043 C 0.29245 0.13118 0.84458 0.0
C1044 C 0.95143 0.22241 0.88987 0.0
C1045 C 0.9345 0.2081 0.87111 0.0
H1046 H 0.98681 0.24999 0.89945 0.0
C1047 C 0.94197 0.2097 0.8469 0.0
H1048 H 0.94657 0.2212 0.90876 0.0
C1049 C 0.96529 0.22624 0.84149 0.0
C1050 C 0.98154 0.24142 0.86021 0.0
H1051 H 0.92927 0.19895 0.83202 0.0
H1052 H 0.97006 0.22783 0.82259 0.0
C1053 C 0.97462 0.23883 0.8845 0.0
C1054 C 0.85378 0.89894 0.8099 0.0
C1055 C 0.87886 0.91062 0.82063 0.0
H1056 H 0.81839 0.90417 0.78812 0.0
C1057 C 0.88893 0.93656 0.81485 0.0
H1058 H 0.84543 0.87911 0.81426 0.0
C1059 C 0.87345 0.95108 0.79973 0.0
C1060 C 0.84748 0.93994 0.79039 0.0
H1061 H 0.90812 0.94613 0.82321 0.0
H1062 H 0.88102 0.9715 0.79692 0.0
C1063 C 0.8383 0.9134 0.79496 0.0
C1064 C 0.22803 0.11458 0.26683 0.0
C1065 C 0.23055 0.11419 0.24141 0.0
H1066 H 0.23388 0.09574 0.30105 0.0
C1067 C 0.24027 0.09304 0.23102 0.0
H1068 H 0.22078 0.13059 0.27549 0.0
C1069 C 0.248 0.07329 0.24564 0.0
C1070 C 0.24605 0.07391 0.27109 0.0
H1071 H 0.24193 0.0917 0.21146 0.0
H1072 H 0.25558 0.05752 0.2369 0.0
C1073 C 0.23568 0.09465 0.2815 0.0
C1074 C 0.18699 0.94558 0.82145 0.0
C1075 C 0.20456 0.9308 0.8335 0.0
H1076 H 0.18285 0.98081 0.80251 0.0
C1077 C 0.23205 0.94003 0.83457 0.0
H1078 H 0.16568 0.93892 0.82041 0.0
C1079 C 0.24181 0.96381 0.82438 0.0
C1080 C 0.22431 0.97904 0.8129 0.0
H1081 H 0.24608 0.92891 0.84349 0.0
H1082 H 0.26309 0.97059 0.82625 0.0
C1083 C 0.19678 0.96957 0.81136 0.0
C1084 C 0.15901 0.2474 0.89481 0.0
C1085 C 0.17099 0.24251 0.87344 0.0
H1086 H 0.1286 0.2649 0.91035 0.0
C1087 C 0.16246 0.25294 0.85131 0.0
H1088 H 0.16524 0.23934 0.91205 0.0
C1089 C 0.14162 0.26733 0.85027 0.0
C1090 C 0.12881 0.27166 0.87137 0.0
H1091 H 0.17143 0.24934 0.8346 0.0
H1092 H 0.13526 0.27479 0.8328 0.0
C1093 C 0.13814 0.26204 0.89382 0.0
C1094 C 0.86909 0.12001 0.83638 0.0
C1095 C 0.86536 0.12615 0.86077 0.0
H1096 H 0.86184 0.09153 0.80714 0.0
C1097 C 0.85138 0.10674 0.87472 0.0
H1098 H 0.87964 0.1345 0.82505 0.0
C1099 C 0.8405 0.08217 0.86427 0.0
C1100 C 0.84355 0.07617 0.83964 0.0
H1101 H 0.84861 0.11058 0.89375 0.0
H1102 H 0.82925 0.06816 0.87549 0.0
C1103 C 0.85845 0.09533 0.82598 0.0
C1104 C 0.93291 0.78127 0.84643 0.0
C1105 C 0.93985 0.80871 0.84801 0.0
H1106 H 0.94352 0.74485 0.83565 0.0
C1107 C 0.96337 0.82043 0.83818 0.0
H1108 H 0.91477 0.7716 0.85354 0.0
C1109 C 0.9801 0.805 0.82805 0.0
C1110 C 0.9737 0.77745 0.82743 0.0
H1111 H 0.9695 0.84147 0.83937 0.0
H1112 H 0.99851 0.81469 0.82153 0.0
C1113 C 0.94956 0.76588 0.83632 0.0
C1114 C 0.86046 0.97216 0.24399 0.0
C1115 C 0.85515 0.95471 0.2236 0.0
H1116 H 0.84808 1.0033 0.26404 0.0
C1117 C 0.83261 0.95529 0.20745 0.0
H1118 H 0.87788 0.97203 0.25666 0.0
C1119 C 0.81557 0.97316 0.21161 0.0
C1120 C 0.82079 0.99084 0.23201 0.0
H1121 H 0.82821 0.94204 0.19158 0.0
H1122 H 0.7983 0.97312 0.19874 0.0
C1123 C 0.84345 0.99007 0.24819 0.0
C1124 C 0.12368 0.78194 0.20856 0.0
C1125 C 0.12098 0.80487 0.19608 0.0
H1126 H 0.10415 0.74954 0.22774 0.0
C1127 C 0.09565 0.81138 0.19088 0.0
H1128 H 0.14317 0.77668 0.21267 0.0
C1129 C 0.07329 0.79571 0.19905 0.0
C1130 C 0.07606 0.77358 0.21296 0.0
H1131 H 0.0933 0.82905 0.18123 0.0
H1132 H 0.05411 0.80186 0.19572 0.0
C1133 C 0.10139 0.76645 0.21707 0.0
C1134 C 0.93308 0.25762 0.224 0.0
C1135 C 0.92641 0.23787 0.20565 0.0
H1136 H 0.96029 0.27341 0.25457 0.0
C1137 C 0.94408 0.22036 0.20233 0.0
H1138 H 0.91959 0.27115 0.22704 0.0
C1139 C 0.96742 0.22172 0.21786 0.0
C1140 C 0.97328 0.24033 0.23734 0.0
H1141 H 0.93924 0.20489 0.18834 0.0
H1142 H 0.98009 0.20728 0.21538 0.0
C1143 C 0.95625 0.25874 0.23983 0.0
C1144 C 0.25591 0.66954 0.61245 0.0
C1145 C 0.25542 0.68547 0.63338 0.0
H1146 H 0.26486 0.66744 0.57504 0.0
C1147 C 0.26104 0.71288 0.63102 0.0
H1148 H 0.25109 0.64844 0.61327 0.0
C1149 C 0.26854 0.72388 0.60877 0.0
C1150 C 0.27073 0.70772 0.58843 0.0
H1151 H 0.26106 0.72585 0.64671 0.0
H1152 H 0.27421 0.74491 0.60798 0.0
C1153 C 0.26357 0.68048 0.59039 0.0
C1154 C 0.83714 0.73891 0.60026 0.0
C1155 C 0.83713 0.71309 0.59258 0.0
H1156 H 0.82474 0.7753 0.59169 0.0
C1157 C 0.8222 0.70307 0.57082 0.0
H1158 H 0.84871 0.74697 0.61695 0.0
C1159 C 0.80832 0.71925 0.55626 0.0
C1160 C 0.80963 0.74568 0.56322 0.0
H1161 H 0.82223 0.68315 0.56455 0.0
H1162 H 0.79785 0.7115 0.539 0.0
C1163 C 0.82353 0.75509 0.58572 0.0
C1164 C 0.86912 0.34617 0.65818 0.0
C1165 C 0.89408 0.35145 0.67188 0.0
H1166 H 0.84555 0.32655 0.62717 0.0
C1167 C 0.91486 0.33974 0.66361 0.0
H1168 H 0.85246 0.35446 0.66394 0.0
C1169 C 0.91078 0.32322 0.64255 0.0
C1170 C 0.88579 0.31785 0.62887 0.0
H1171 H 0.93452 0.34351 0.67329 0.0
H1172 H 0.92733 0.31455 0.63717 0.0
C1173 C 0.86505 0.32972 0.63707 0.0
C1174 C 0.21325 0.31678 0.6271 0.0
C1175 C 0.19961 0.3377 0.62991 0.0
H1176 H 0.24277 0.30157 0.60856 0.0
C1177 C 0.2058 0.36026 0.61632 0.0
H1178 H 0.20881 0.29931 0.63767 0.0
C1179 C 0.22519 0.3616 0.59953 0.0
C1180 C 0.23845 0.34031 0.59612 0.0
H1181 H 0.19541 0.37663 0.61842 0.0
H1182 H 0.22923 0.37891 0.58875 0.0
C1183 C 0.23253 0.31806 0.61037 0.0
C1184 C 0.24706 0.29918 0.42482 0.0
C1185 C 0.23006 0.3168 0.41778 0.0
H1186 H 0.26609 0.28109 0.45463 0.0
C1187 C 0.21634 0.32752 0.43541 0.0
H1188 H 0.25793 0.29086 0.41137 0.0
C1189 C 0.22096 0.32203 0.46018 0.0
C1190 C 0.23954 0.30588 0.46764 0.0
H1191 H 0.20322 0.34129 0.43022 0.0
H1192 H 0.21116 0.3317 0.47358 0.0
C1193 C 0.2517 0.29364 0.44957 0.0
C1194 C 0.29142 0.66027 0.42881 0.0
C1195 C 0.27399 0.67385 0.41482 0.0
H1196 H 0.31738 0.65968 0.46169 0.0
C1197 C 0.27088 0.69874 0.42355 0.0
H1198 H 0.2942 0.64096 0.42289 0.0
C1199 C 0.28408 0.70938 0.44581 0.0
C1200 C 0.3009 0.69554 0.46017 0.0
H1201 H 0.25817 0.71011 0.41313 0.0
H1202 H 0.2811 0.7286 0.4517 0.0
C1203 C 0.30471 0.67098 0.45115 0.0
C1204 C 0.82863 0.758 0.39577 0.0
C1205 C 0.85584 0.75994 0.39311 0.0
H1206 H 0.79888 0.7666 0.41838 0.0
C1207 C 0.87447 0.77219 0.41171 0.0
H1208 H 0.814 0.74881 0.38143 0.0
C1209 C 0.86594 0.78234 0.43294 0.0
C1210 C 0.83861 0.78032 0.43587 0.0
H1211 H 0.89562 0.77394 0.40982 0.0
H1212 H 0.88071 0.79136 0.44719 0.0
C1213 C 0.82006 0.76811 0.41696 0.0
C1214 C 0.87077 0.34744 0.47524 0.0
C1215 C 0.86509 0.32886 0.45571 0.0
H1216 H 0.86675 0.35613 0.51305 0.0
C1217 C 0.84773 0.30534 0.4591 0.0
H1218 H 0.88413 0.36571 0.47331 0.0
C1219 C 0.83731 0.30006 0.48179 0.0
C1220 C 0.84441 0.31793 0.50181 0.0
H1221 H 0.84271 0.29073 0.44435 0.0
H1222 H 0.82496 0.28132 0.48401 0.0
C1223 C 0.86075 0.34196 0.49803 0.0
C1224 C 0.16284 0.71578 0.72483 0.0
C1225 C 0.17146 0.69157 0.72679 0.0
H1226 H 0.13405 0.73909 0.73385 0.0
C1227 C 0.1562 0.67128 0.73862 0.0
H1228 H 0.17458 0.73184 0.71611 0.0
C1229 C 0.13288 0.67533 0.74884 0.0
C1230 C 0.12442 0.69984 0.74758 0.0
H1231 H 0.16268 0.65251 0.74056 0.0
H1232 H 0.12168 0.65931 0.758 0.0
C1233 C 0.13955 0.71987 0.73504 0.0
C1234 C 0.83096 0.62861 0.68513 0.0
C1235 C 0.84603 0.65213 0.6952 0.0
H1236 H 0.80494 0.59299 0.69177 0.0
C1237 C 0.8439 0.65873 0.7199 0.0
H1238 H 0.83233 0.62276 0.66627 0.0
C1239 C 0.8284 0.64157 0.73454 0.0
C1240 C 0.81447 0.61744 0.72483 0.0
H1241 H 0.85479 0.67693 0.72813 0.0
H1242 H 0.82772 0.64696 0.75363 0.0
C1243 C 0.8153 0.61148 0.69978 0.0
C1244 C 0.96325 0.36656 0.75151 0.0
C1245 C 0.93889 0.37346 0.75695 0.0
H1246 H 0.99927 0.35393 0.76501 0.0
C1247 C 0.93307 0.37397 0.78164 0.0
H1248 H 0.96871 0.3666 0.7328 0.0
C1249 C 0.95072 0.36655 0.80027 0.0
C1250 C 0.97457 0.35855 0.79459 0.0
H1251 H 0.91447 0.37918 0.78644 0.0
H1252 H 0.94523 0.36616 0.81895 0.0
C1253 C 0.98081 0.35927 0.77003 0.0
C1254 C 0.21913 0.40496 0.74699 0.0
C1255 C 0.20758 0.40091 0.72263 0.0
H1256 H 0.24981 0.4272 0.77171 0.0
C1257 C 0.21804 0.41779 0.70462 0.0
H1258 H 0.21187 0.39226 0.76135 0.0
C1259 C 0.24008 0.4373 0.7105 0.0
C1260 C 0.25192 0.44092 0.73465 0.0
H1261 H 0.2093 0.41591 0.68584 0.0
H1262 H 0.24792 0.44957 0.69604 0.0
C1263 C 0.24094 0.42493 0.75297 0.0
C1264 C 0.12702 0.31863 0.35883 0.0
C1265 C 0.13873 0.32885 0.33789 0.0
H1266 H 0.09367 0.29484 0.37305 0.0
C1267 C 0.12415 0.32392 0.31485 0.0
H1268 H 0.13746 0.32243 0.3769 0.0
C1269 C 0.09887 0.30853 0.31272 0.0
C1270 C 0.08771 0.29743 0.33352 0.0
H1271 H 0.13265 0.3311 0.29827 0.0
H1272 H 0.08857 0.30445 0.29462 0.0
C1273 C 0.10184 0.30298 0.35665 0.0
C1274 C 0.26003 0.62252 0.31053 0.0
C1275 C 0.26555 0.61881 0.33567 0.0
H1276 H 0.26117 0.60869 0.2738 0.0
C1277 C 0.27954 0.59847 0.34269 0.0
H1278 H 0.24978 0.63825 0.30441 0.0
C1279 C 0.28624 0.58125 0.32488 0.0
C1280 C 0.27906 0.58414 0.29979 0.0
H1281 H 0.28407 0.59506 0.36193 0.0
H1282 H 0.29582 0.56502 0.3308 0.0
C1283 C 0.26663 0.6055 0.29293 0.0
C1284 C 0.94203 0.6704 0.31842 0.0
C1285 C 0.92225 0.68346 0.30768 0.0
H1286 H 0.9828 0.66524 0.31949 0.0
C1287 C 0.92716 0.69757 0.28636 0.0
H1288 H 0.93873 0.65946 0.33492 0.0
C1289 C 0.95228 0.7008 0.27741 0.0
C1290 C 0.97311 0.69028 0.28984 0.0
H1291 H 0.91212 0.70768 0.27766 0.0
H1292 H 0.95588 0.71337 0.26199 0.0
C1293 C 0.96731 0.67384 0.30962 0.0
C1294 C 0.89235 0.4559 0.39742 0.0
C1295 C 0.87549 0.43256 0.38963 0.0
H1296 H 0.89923 0.49777 0.3968 0.0
C1297 C 0.85135 0.43367 0.37592 0.0
H1298 H 0.91131 0.45541 0.40769 0.0
C1299 C 0.84452 0.45786 0.36938 0.0
C1300 C 0.86186 0.48142 0.37626 0.0
H1301 H 0.83835 0.41583 0.36928 0.0
H1302 H 0.82626 0.45796 0.35793 0.0
C1303 C 0.88558 0.48011 0.39087 0.0
C1304 C 0.28328 0.61504 0.71985 0.0
C1305 C 0.27317 0.61747 0.69535 0.0
H1306 H 0.30256 0.59231 0.74593 0.0
C1307 C 0.27591 0.59778 0.67812 0.0
H1308 H 0.28239 0.62995 0.73366 0.0
C1309 C 0.28817 0.57642 0.68518 0.0
C1310 C 0.29768 0.57387 0.70973 0.0
H1311 H 0.26814 0.59853 0.65919 0.0
H1312 H 0.28958 0.56151 0.67152 0.0
C1313 C 0.2951 0.59348 0.72694 0.0
C1314 C 0.19207 0.41872 0.30467 0.0
C1315 C 0.20794 0.39916 0.30828 0.0
H1316 H 0.18816 0.45554 0.28866 0.0
C1317 C 0.2317 0.40127 0.29668 0.0
H1318 H 0.17377 0.41782 0.3135 0.0
C1319 C 0.23996 0.42291 0.28269 0.0
C1320 C 0.22458 0.44286 0.27976 0.0
H1321 H 0.24407 0.38625 0.29854 0.0
H1322 H 0.25854 0.42415 0.27427 0.0
C1323 C 0.20027 0.44032 0.29045 0.0
C1324 C 0.13989 0.69838 0.36632 0.0
C1325 C 0.15637 0.6904 0.34948 0.0
H1326 H 0.10655 0.71705 0.372 0.0
C1327 C 0.15229 0.69666 0.32476 0.0
H1328 H 0.14238 0.69338 0.38543 0.0
C1329 C 0.13169 0.71027 0.31691 0.0
C1330 C 0.11455 0.71779 0.33362 0.0
H1331 H 0.16458 0.69042 0.31137 0.0
H1332 H 0.12908 0.71463 0.29769 0.0
C1333 C 0.11929 0.71196 0.35853 0.0
C1334 C 0.81427 0.64841 0.35028 0.0
C1335 C 0.84159 0.64699 0.35147 0.0
H1336 H 0.77491 0.62881 0.35588 0.0
C1337 C 0.85007 0.62404 0.36004 0.0
H1338 H 0.80703 0.66569 0.34356 0.0
C1339 C 0.83159 0.60297 0.36704 0.0
C1340 C 0.80434 0.60425 0.3652 0.0
H1341 H 0.871 0.62252 0.36166 0.0
H1342 H 0.83854 0.58581 0.37422 0.0
C1343 C 0.79586 0.62733 0.35726 0.0
C1344 C 0.91885 0.29496 0.36526 0.0
C1345 C 0.91944 0.29834 0.39089 0.0
H1346 H 0.93454 0.27787 0.33504 0.0
C1347 C 0.93582 0.28463 0.40583 0.0
H1348 H 0.90609 0.30479 0.35317 0.0
C1349 C 0.95225 0.26908 0.39534 0.0
C1350 C 0.9527 0.26695 0.36967 0.0
H1351 H 0.93691 0.28691 0.42561 0.0
H1352 H 0.96544 0.25968 0.40736 0.0
C1353 C 0.93527 0.27958 0.35483 0.0
C1354 C 0.83879 0.45326 0.76526 0.0
C1355 C 0.86322 0.46172 0.75568 0.0
H1356 H 0.80631 0.46411 0.78303 0.0
C1357 C 0.87542 0.48805 0.75955 0.0
H1358 H 0.82884 0.43316 0.7623 0.0
C1359 C 0.86257 0.50594 0.77172 0.0
C1360 C 0.83716 0.49775 0.77977 0.0
H1361 H 0.89412 0.49512 0.75198 0.0
H1362 H 0.87158 0.52641 0.77316 0.0
C1363 C 0.82589 0.47104 0.77708 0.0
C1364 C 0.11373 0.36175 0.7561 0.0
C1365 C 0.12308 0.34279 0.7422 0.0
H1366 H 0.08941 0.36947 0.78427 0.0
C1367 C 0.11297 0.31615 0.74529 0.0
H1368 H 0.12053 0.38241 0.75374 0.0
C1369 C 0.09467 0.30867 0.76265 0.0
C1370 C 0.0864 0.32772 0.77727 0.0
H1371 H 0.11988 0.30104 0.73493 0.0
H1372 H 0.0879 0.28805 0.7653 0.0
C1373 C 0.09572 0.3543 0.77347 0.0
C1374 C 0.9515 0.68087 0.7029 0.0
C1375 C 0.93868 0.69954 0.69089 0.0
H1376 H 0.98439 0.67348 0.72659 0.0
C1377 C 0.95109 0.72593 0.69218 0.0
H1378 H 0.94248 0.66038 0.70191 0.0
C1379 C 0.97525 0.73367 0.70665 0.0
C1380 C 0.9873 0.71501 0.71978 0.0
H1381 H 0.94148 0.74065 0.68298 0.0
H1382 H 0.9838 0.75424 0.7084 0.0
C1383 C 0.97555 0.68847 0.71703 0.0
C1384 C 0.79054 0.16722 0.62431 0.0
C1385 C 0.77331 0.17795 0.63874 0.0
H1386 H 0.81609 0.17266 0.59511 0.0
C1387 C 0.7685 0.20349 0.63362 0.0
H1388 H 0.79444 0.14756 0.62721 0.0
C1389 C 0.78049 0.21774 0.61468 0.0
C1390 C 0.79796 0.20703 0.6006 0.0
H1391 H 0.75578 0.21277 0.64453 0.0
H1392 H 0.77667 0.2374 0.61156 0.0
C1393 C 0.80276 0.18158 0.60564 0.0
C1394 C 0.34769 0.24499 0.62 0.0
C1395 C 0.35753 0.22617 0.60651 0.0
H1396 H 0.32409 0.27538 0.61901 0.0
C1397 C 0.34845 0.22113 0.58175 0.0
H1398 H 0.35464 0.24916 0.63913 0.0
C1399 C 0.33082 0.23601 0.57016 0.0
C1400 C 0.32247 0.2563 0.58322 0.0
H1401 H 0.35609 0.20673 0.57105 0.0
H1402 H 0.32529 0.23286 0.55067 0.0
C1403 C 0.33029 0.25996 0.60845 0.0
C1404 C 0.39707 0.83722 0.65193 0.0
C1405 C 0.37565 0.84596 0.66222 0.0
H1406 H 0.41027 0.81518 0.62361 0.0
C1407 C 0.35005 0.8386 0.65011 0.0
H1408 H 0.41717 0.84277 0.66041 0.0
C1409 C 0.34594 0.82255 0.6287 0.0
C1410 C 0.36735 0.8134 0.61853 0.0
H1411 H 0.33299 0.84472 0.65753 0.0
H1412 H 0.32581 0.81725 0.62038 0.0
C1413 C 0.39303 0.82129 0.63053 0.0
C1414 C 0.69679 0.85378 0.58992 0.0
C1415 C 0.69623 0.8363 0.60922 0.0
H1416 H 0.71465 0.86647 0.5571 0.0
C1417 C 0.71491 0.81943 0.61154 0.0
H1418 H 0.68233 0.86683 0.58785 0.0
C1419 C 0.7333 0.81917 0.59408 0.0
C1420 C 0.73327 0.83578 0.57401 0.0
H1421 H 0.7147 0.80579 0.62637 0.0
H1422 H 0.74712 0.80547 0.59591 0.0
C1423 C 0.71531 0.85362 0.57245 0.0
C1424 C 0.69949 0.82922 0.42974 0.0
C1425 C 0.71508 0.82534 0.4106 0.0
H1426 H 0.6901 0.81944 0.46622 0.0
C1427 C 0.73101 0.80584 0.41225 0.0
H1428 H 0.68705 0.84423 0.4287 0.0
C1429 C 0.73274 0.79151 0.43361 0.0
C1430 C 0.71875 0.79672 0.45376 0.0
H1431 H 0.74319 0.80262 0.39758 0.0
H1432 H 0.74641 0.77763 0.43489 0.0
C1433 C 0.70122 0.81495 0.45115 0.0
C1434 C 0.77702 0.21657 0.43467 0.0
C1435 C 0.77647 0.19173 0.42368 0.0
H1436 H 0.79255 0.24371 0.46419 0.0
C1437 C 0.79335 0.17547 0.43474 0.0
H1438 H 0.76507 0.23009 0.42649 0.0
C1439 C 0.8096 0.18359 0.45649 0.0
C1440 C 0.80922 0.20805 0.46784 0.0
H1441 H 0.79348 0.15616 0.42701 0.0
H1442 H 0.82182 0.1704 0.46483 0.0
C1443 C 0.79295 0.2245 0.45639 0.0
C1444 C 0.3661 0.26216 0.44431 0.0
C1445 C 0.38142 0.24514 0.45586 0.0
H1446 H 0.34737 0.29578 0.44859 0.0
C1447 C 0.393 0.25097 0.47982 0.0
H1448 H 0.35695 0.25785 0.4258 0.0
C1449 C 0.38768 0.27271 0.49281 0.0
C1450 C 0.37047 0.28865 0.48199 0.0
H1451 H 0.40477 0.23786 0.48902 0.0
H1452 H 0.39519 0.27569 0.5119 0.0
C1453 C 0.36069 0.28381 0.45728 0.0
C1454 C 0.35462 0.83919 0.45839 0.0
C1455 C 0.35018 0.81967 0.43967 0.0
H1456 H 0.35017 0.84904 0.49587 0.0
C1457 C 0.33455 0.79545 0.44406 0.0
H1458 H 0.36668 0.858 0.45562 0.0
C1459 C 0.32442 0.79057 0.46695 0.0
C1460 C 0.33027 0.80957 0.48617 0.0
H1461 H 0.33066 0.78008 0.42996 0.0
H1462 H 0.31343 0.77135 0.47003 0.0
C1463 C 0.34507 0.83409 0.48142 0.0
C1464 C 0.65733 0.19417 0.71878 0.0
C1465 C 0.66932 0.17226 0.72393 0.0
H1466 H 0.63114 0.21922 0.72991 0.0
C1467 C 0.66499 0.15933 0.7459 0.0
H1468 H 0.66024 0.20427 0.70176 0.0
C1469 C 0.64834 0.16797 0.7623 0.0
C1470 C 0.63554 0.18959 0.75692 0.0
H1471 H 0.67399 0.14227 0.75014 0.0
H1472 H 0.64531 0.15749 0.77904 0.0
C1473 C 0.64066 0.20277 0.73504 0.0
C1474 C 0.34228 0.15978 0.69633 0.0
C1475 C 0.36838 0.1546 0.69611 0.0
H1476 H 0.30371 0.14833 0.70929 0.0
C1477 C 0.37477 0.13201 0.70733 0.0
H1478 H 0.33683 0.17709 0.68785 0.0
C1479 C 0.35592 0.11557 0.71943 0.0
C1480 C 0.33015 0.1213 0.72075 0.0
H1481 H 0.39456 0.12719 0.70699 0.0
H1482 H 0.36167 0.09844 0.72796 0.0
C1483 C 0.32334 0.1433 0.70859 0.0
C1484 C 0.44236 0.88015 0.75869 0.0
C1485 C 0.42138 0.86195 0.74705 0.0
H1486 H 0.47847 0.8861 0.78253 0.0
C1487 C 0.41963 0.83543 0.75281 0.0
H1488 H 0.4443 0.9007 0.75453 0.0
C1489 C 0.43903 0.82708 0.76883 0.0
C1490 C 0.46088 0.84498 0.7795 0.0
H1491 H 0.40343 0.82098 0.7445 0.0
H1492 H 0.43706 0.80645 0.77255 0.0
C1493 C 0.46195 0.87175 0.77472 0.0
C1494 C 0.71533 0.89946 0.70476 0.0
C1495 C 0.6876 0.89672 0.70526 0.0
H1496 H 0.75342 0.92092 0.71826 0.0
C1497 C 0.67691 0.91587 0.71773 0.0
H1498 H 0.72407 0.88486 0.69541 0.0
C1499 C 0.69359 0.93639 0.73081 0.0
C1500 C 0.72138 0.93827 0.73172 0.0
H1501 H 0.65556 0.91441 0.71811 0.0
H1502 H 0.6847 0.95044 0.74071 0.0
C1503 C 0.7321 0.92007 0.7179 0.0
C1504 C 0.6157 0.83789 0.35732 0.0
C1505 C 0.6277 0.84872 0.33679 0.0
H1506 H 0.58401 0.81098 0.3705 0.0
C1507 C 0.61471 0.84239 0.31328 0.0
H1508 H 0.62499 0.84282 0.37569 0.0
C1509 C 0.59108 0.82425 0.31029 0.0
C1510 C 0.5801 0.8121 0.33076 0.0
H1511 H 0.62355 0.85035 0.29711 0.0
H1512 H 0.58223 0.81876 0.29188 0.0
C1513 C 0.59217 0.81975 0.35434 0.0
C1514 C 0.74753 0.14662 0.31646 0.0
C1515 C 0.75512 0.14281 0.34125 0.0
H1516 H 0.74503 0.13249 0.27935 0.0
C1517 C 0.76848 0.12164 0.34697 0.0
H1518 H 0.7379 0.163 0.31115 0.0
C1519 C 0.77303 0.10418 0.32845 0.0
C1520 C 0.7641 0.10741 0.30388 0.0
H1521 H 0.77452 0.11795 0.36584 0.0
H1522 H 0.78251 0.08761 0.33348 0.0
C1523 C 0.7518 0.12913 0.29814 0.0
C1524 C 0.4685 0.20392 0.36572 0.0
C1525 C 0.44797 0.21497 0.37511 0.0
H1526 H 0.50554 0.2107 0.34939 0.0
C1527 C 0.45014 0.24241 0.37602 0.0
H1528 H 0.46781 0.18293 0.36527 0.0
C1529 C 0.47199 0.25833 0.36717 0.0
C1530 C 0.49201 0.24716 0.35705 0.0
H1531 H 0.43458 0.25158 0.3829 0.0
H1532 H 0.4727 0.27931 0.36737 0.0
C1533 C 0.49019 0.21982 0.35674 0.0
C1534 C 0.32731 0.91031 0.33733 0.0
C1535 C 0.33906 0.9108 0.36142 0.0
H1536 H 0.30615 0.93004 0.31015 0.0
C1537 C 0.33711 0.93161 0.37746 0.0
H1538 H 0.3289 0.89457 0.32458 0.0
C1539 C 0.32408 0.95207 0.36923 0.0
C1540 C 0.31312 0.95216 0.34475 0.0
H1541 H 0.34641 0.93251 0.39604 0.0
H1542 H 0.32341 0.96822 0.38182 0.0
C1543 C 0.31447 0.93075 0.32905 0.0
C1544 C 0.78466 0.09221 0.69539 0.0
C1545 C 0.77221 0.11121 0.70645 0.0
H1546 H 0.80121 0.05669 0.70002 0.0
C1547 C 0.76993 0.11018 0.73182 0.0
H1548 H 0.78673 0.09238 0.67586 0.0
C1549 C 0.77814 0.08997 0.74545 0.0
C1550 C 0.78901 0.07 0.73429 0.0
H1551 H 0.76105 0.12471 0.74112 0.0
H1552 H 0.77513 0.08958 0.76482 0.0
C1553 C 0.793 0.07176 0.7092 0.0
C1554 C 0.71153 0.94722 0.32424 0.0
C1555 C 0.69402 0.92541 0.3136 0.0
H1556 H 0.73282 0.98562 0.31924 0.0
C1557 C 0.68362 0.92655 0.28908 0.0
H1558 H 0.71941 0.94729 0.34324 0.0
C1559 C 0.69118 0.94873 0.27535 0.0
C1560 C 0.70942 0.9701 0.28582 0.0
H1561 H 0.67025 0.91001 0.28024 0.0
H1562 H 0.6835 0.94878 0.25632 0.0
C1563 C 0.71918 0.96923 0.31051 0.0
C1564 C 0.63161 0.19763 0.3305 0.0
C1565 C 0.65753 0.2104 0.33834 0.0
H1566 H 0.59278 0.20164 0.31383 0.0
C1567 C 0.66501 0.23674 0.33283 0.0
H1568 H 0.62526 0.17737 0.33489 0.0
C1569 C 0.64652 0.25058 0.32112 0.0
C1570 C 0.62008 0.2384 0.31446 0.0
H1571 H 0.68474 0.24712 0.3389 0.0
H1572 H 0.6526 0.27129 0.31833 0.0
C1573 C 0.61304 0.21148 0.31842 0.0
C1574 C 0.35096 0.12671 0.35983 0.0
C1575 C 0.37874 0.13347 0.36451 0.0
H1576 H 0.31823 0.0997 0.3426 0.0
C1577 C 0.39493 0.11674 0.35556 0.0
H1578 H 0.33795 0.13937 0.36621 0.0
C1579 C 0.38362 0.09382 0.34218 0.0
C1580 C 0.35582 0.08713 0.33721 0.0
H1581 H 0.41638 0.1212 0.35917 0.0
H1582 H 0.39677 0.08129 0.33591 0.0
C1583 C 0.33964 0.10387 0.3463 0.0
C1584 C 0.42865 0.78306 0.39501 0.0
C1585 C 0.41148 0.79424 0.37846 0.0
H1586 H 0.46108 0.76163 0.39973 0.0
C1587 C 0.41307 0.79011 0.35315 0.0
H1588 H 0.42822 0.78598 0.41459 0.0
C1589 C 0.43201 0.77633 0.34463 0.0
C1590 C 0.44992 0.76605 0.36111 0.0
H1591 H 0.39983 0.79789 0.3398 0.0
H1592 H 0.43269 0.77387 0.32504 0.0
C1593 C 0.4476 0.76912 0.38644 0.0
C1594 C 0.34728 0.95134 0.77532 0.0
C1595 C 0.35567 0.95736 0.75198 0.0
H1596 H 0.33278 0.96524 0.80794 0.0
C1597 C 0.35771 0.98331 0.74441 0.0
H1598 H 0.34525 0.9314 0.78148 0.0
C1599 C 0.35046 1.00271 0.75941 0.0
C1600 C 0.34095 0.99664 0.78244 0.0
H1601 H 0.36389 0.98843 0.72638 0.0
H1602 H 0.35138 0.02228 0.75252 0.0
C1603 C 0.34013 0.97078 0.79045 0.0
C1604 C 0.62815 0.8197 0.7455 0.0
C1605 C 0.61785 0.82157 0.72111 0.0
H1606 H 0.61969 0.81105 0.78234 0.0
C1607 C 0.59068 0.81211 0.71464 0.0
H1608 H 0.64913 0.82611 0.75093 0.0
C1609 C 0.57379 0.80291 0.73273 0.0
C1610 C 0.58395 0.80334 0.75741 0.0
H1611 H 0.58223 0.81326 0.69595 0.0
H1612 H 0.55265 0.79714 0.72771 0.0
C1613 C 0.61135 0.81096 0.76347 0.0
C1614 C 0.47269 0.18326 0.71527 0.0
C1615 C 0.46163 0.20305 0.70315 0.0
H1616 H 0.50283 0.17365 0.74109 0.0
C1617 C 0.47471 0.22914 0.70654 0.0
H1618 H 0.46333 0.16295 0.71266 0.0
C1619 C 0.49756 0.23541 0.723 0.0
C1620 C 0.50762 0.21562 0.73619 0.0
H1621 H 0.46654 0.24477 0.69738 0.0
H1622 H 0.50659 0.25574 0.72618 0.0
C1623 C 0.49538 0.18945 0.73154 0.0
C1624 C 0.78158 0.68864 0.15425 0.0
C1625 C 0.76547 0.70499 0.16426 0.0
H1626 H 0.80865 0.68351 0.12735 0.0
C1627 C 0.76375 0.72899 0.15305 0.0
H1628 H 0.78293 0.66968 0.1618 0.0
C1629 C 0.77819 0.73662 0.13287 0.0
C1630 C 0.79492 0.72058 0.12351 0.0
H1631 H 0.75186 0.74227 0.16026 0.0
H1632 H 0.77695 0.7555 0.12511 0.0
C1633 C 0.79627 0.69644 0.13436 0.0
C1634 C 0.33124 0.71129 0.07216 0.0
C1635 C 0.33577 0.72517 0.09469 0.0
H1636 H 0.30699 0.70401 0.03809 0.0
C1637 C 0.31903 0.74279 0.10034 0.0
H1638 H 0.34417 0.69774 0.06746 0.0
C1639 C 0.29792 0.74656 0.08359 0.0
C1640 C 0.29323 0.73278 0.06087 0.0
H1641 H 0.32242 0.75382 0.11761 0.0
H1642 H 0.28529 0.7603 0.0885 0.0
C1643 C 0.31009 0.71501 0.05536 0.0
C1644 C 0.3866 0.32121 0.13748 0.0
C1645 C 0.37568 0.32659 0.1594 0.0
H1646 H 0.37957 0.30481 0.10089 0.0
C1647 C 0.34783 0.32142 0.15987 0.0
H1648 H 0.40795 0.32522 0.13641 0.0
C1649 C 0.33148 0.30954 0.1395 0.0
C1650 C 0.34255 0.30283 0.11803 0.0
H1651 H 0.33875 0.32521 0.17646 0.0
H1652 H 0.31025 0.30462 0.14098 0.0
C1653 C 0.37026 0.30965 0.11703 0.0
C1654 C 0.77838 0.32549 0.16005 0.0
C1655 C 0.78875 0.34898 0.17298 0.0
H1656 H 0.77861 0.3021 0.12756 0.0
C1657 C 0.80739 0.36755 0.16264 0.0
H1658 H 0.76401 0.31088 0.16789 0.0
C1659 C 0.81596 0.36257 0.1397 0.0
C1660 C 0.80611 0.33879 0.12668 0.0
H1661 H 0.81578 0.38571 0.17252 0.0
H1662 H 0.83091 0.37712 0.13267 0.0
C1663 C 0.78694 0.32044 0.13707 0.0
C1664 C 0.80202 0.37485 0.95367 0.0
C1665 C 0.77465 0.37522 0.95303 0.0
H1666 H 0.83832 0.37484 0.97614 0.0
C1667 C 0.76314 0.37876 0.97492 0.0
H1668 H 0.81116 0.3718 0.93692 0.0
C1669 C 0.77856 0.38036 0.99743 0.0
C1670 C 0.80571 0.37825 0.99837 0.0
H1671 H 0.74193 0.37876 0.97476 0.0
H1672 H 0.76885 0.3818 1.01413 0.0
C1673 C 0.81748 0.37648 0.97615 0.0
C1674 C 0.76472 0.75775 0.94018 0.0
C1675 C 0.76272 0.73034 0.94067 0.0
H1676 H 0.77561 0.79447 0.96006 0.0
C1677 C 0.76879 0.71897 0.96316 0.0
H1678 H 0.76038 0.7672 0.92316 0.0
C1679 C 0.77706 0.73463 0.98449 0.0
C1680 C 0.77993 0.76212 0.9838 0.0
H1681 H 0.76725 0.69794 0.96424 0.0
H1682 H 0.78221 0.72522 1.00133 0.0
C1683 C 0.77341 0.77341 0.96138 0.0
C1684 C 0.2828 0.66018 0.89801 0.0
C1685 C 0.28023 0.67941 0.8807 0.0
H1686 H 0.27087 0.64428 0.93209 0.0
C1687 C 0.26137 0.69579 0.88292 0.0
H1688 H 0.29751 0.64753 0.89659 0.0
C1689 C 0.24623 0.694 0.90309 0.0
C1690 C 0.24978 0.67584 0.92136 0.0
H1691 H 0.25925 0.71082 0.8697 0.0
H1692 H 0.23253 0.70759 0.90499 0.0
C1693 C 0.26753 0.65828 0.9182 0.0
C1694 C 0.37612 0.29248 0.95061 0.0
C1695 C 0.40141 0.29165 0.94245 0.0
H1696 H 0.34904 0.28153 0.97807 0.0
C1697 C 0.41906 0.2788 0.95708 0.0
H1698 H 0.36167 0.30163 0.93984 0.0
C1699 C 0.41143 0.26667 0.9787 0.0
C1700 C 0.38627 0.26767 0.9867 0.0
H1701 H 0.43897 0.27821 0.952 0.0
H1702 H 0.42532 0.25678 0.9894 0.0
C1703 C 0.36877 0.28086 0.97253 0.0
C1704 C 0.6477 0.72639 0.25787 0.0
C1705 C 0.65226 0.70171 0.25021 0.0
H1706 H 0.62314 0.74811 0.27696 0.0
C1707 C 0.6354 0.6793 0.25712 0.0
H1708 H 0.66028 0.74399 0.25253 0.0
C1709 C 0.61392 0.6816 0.27102 0.0
C1710 C 0.60868 0.70641 0.27805 0.0
H1711 H 0.63828 0.66006 0.25109 0.0
H1712 H 0.60082 0.66397 0.2754 0.0
C1713 C 0.62621 0.72874 0.27163 0.0
C1714 C 0.33833 0.62792 0.16195 0.0
C1715 C 0.34627 0.64865 0.17924 0.0
H1716 H 0.31927 0.58795 0.15564 0.0
C1717 C 0.33798 0.64576 0.20303 0.0
H1718 H 0.34459 0.62958 0.14353 0.0
C1719 C 0.32379 0.62206 0.20997 0.0
C1720 C 0.31742 0.60067 0.19327 0.0
H1721 H 0.34348 0.66157 0.21663 0.0
H1722 H 0.31838 0.62026 0.22865 0.0
C1723 C 0.32396 0.60409 0.16891 0.0
C1724 C 0.45524 0.30294 0.24212 0.0
C1725 C 0.4528 0.31345 0.21864 0.0
H1726 H 0.47894 0.28421 0.26826 0.0
C1727 C 0.47257 0.31123 0.2027 0.0
H1728 H 0.44025 0.30416 0.25477 0.0
C1729 C 0.49495 0.30008 0.21052 0.0
C1730 C 0.49783 0.29029 0.23429 0.0
H1731 H 0.47131 0.31917 0.18453 0.0
H1732 H 0.51041 0.2998 0.19818 0.0
C1733 C 0.47731 0.29126 0.24975 0.0
C1734 C 0.78176 0.45696 0.25093 0.0
C1735 C 0.76161 0.43937 0.26077 0.0
H1736 H 0.80776 0.49394 0.255 0.0
C1737 C 0.75166 0.44663 0.28263 0.0
H1738 H 0.78964 0.45216 0.23399 0.0
C1739 C 0.76172 0.47073 0.29445 0.0
C1740 C 0.78222 0.48803 0.28487 0.0
H1741 H 0.73654 0.4334 0.29106 0.0
H1742 H 0.75394 0.47545 0.31148 0.0
C1743 C 0.79201 0.48098 0.2629 0.0
C1744 C 0.65798 0.3394 0.82521 0.0
C1745 C 0.66379 0.34088 0.85087 0.0
H1746 H 0.63405 0.31865 0.79452 0.0
C1747 C 0.64769 0.32394 0.8654 0.0
H1748 H 0.67006 0.35222 0.81354 0.0
C1749 C 0.62752 0.30481 0.85461 0.0
C1750 C 0.62263 0.30223 0.82899 0.0
H1751 H 0.65114 0.32501 0.88522 0.0
H1752 H 0.6161 0.29156 0.86644 0.0
C1753 C 0.63744 0.32022 0.81432 0.0
C1754 C 0.78629 0.65973 0.85657 0.0
C1755 C 0.77746 0.65949 0.88029 0.0
H1756 H 0.80117 0.63865 0.82824 0.0
C1757 C 0.77978 0.63766 0.8947 0.0
H1758 H 0.78485 0.67631 0.84502 0.0
C1759 C 0.78889 0.61584 0.88496 0.0
C1760 C 0.79626 0.61546 0.86069 0.0
H1761 H 0.77301 0.63678 0.91295 0.0
H1762 H 0.78903 0.59879 0.89612 0.0
C1763 C 0.79575 0.63813 0.84697 0.0
C1764 C 0.42248 0.71613 0.85026 0.0
C1765 C 0.41223 0.69731 0.83171 0.0
H1766 H 0.4538 0.74694 0.86318 0.0
C1767 C 0.42734 0.6945 0.8118 0.0
H1768 H 0.41146 0.71846 0.866 0.0
C1769 C 0.45181 0.71104 0.81005 0.0
C1770 C 0.46161 0.73043 0.82834 0.0
H1771 H 0.41985 0.68013 0.79724 0.0
H1772 H 0.46273 0.709 0.7942 0.0
C1773 C 0.44685 0.7324 0.84864 0.0
C1774 C 0.36244 0.38797 0.82999 0.0
C1775 C 0.38925 0.38798 0.83792 0.0
H1776 H 0.33442 0.40583 0.80767 0.0
C1777 C 0.40894 0.40609 0.82817 0.0
H1778 H 0.34687 0.37439 0.83751 0.0
C1779 C 0.40184 0.4243 0.81113 0.0
C1780 C 0.37486 0.42498 0.80375 0.0
H1781 H 0.42974 0.40679 0.83436 0.0
H1782 H 0.41745 0.43852 0.80453 0.0
C1783 C 0.35531 0.40621 0.81312 0.0
C1784 C 0.77837 0.63882 0.23305 0.0
C1785 C 0.76245 0.65585 0.24229 0.0
H1786 H 0.80445 0.61116 0.24101 0.0
C1787 C 0.75966 0.65618 0.2677 0.0
H1788 H 0.78029 0.63704 0.21357 0.0
C1789 C 0.77301 0.64043 0.28335 0.0
C1790 C 0.78978 0.62452 0.27396 0.0
H1791 H 0.74771 0.66898 0.27559 0.0
H1792 H 0.77083 0.64114 0.30285 0.0
C1793 C 0.79216 0.62378 0.2487 0.0
C1794 C 0.70545 0.44446 0.85481 0.0
C1795 C 0.72448 0.42806 0.85923 0.0
H1796 H 0.69744 0.48141 0.84235 0.0
C1797 C 0.7509 0.43715 0.85437 0.0
H1798 H 0.68497 0.43802 0.85863 0.0
C1799 C 0.75804 0.46185 0.84469 0.0
C1800 C 0.73897 0.47827 0.83985 0.0
H1801 H 0.76592 0.42478 0.85729 0.0
H1802 H 0.77842 0.46761 0.84043 0.0
C1803 C 0.71263 0.46932 0.84537 0.0
C1804 C 0.65535 0.74723 0.84094 0.0
C1805 C 0.66324 0.73853 0.86406 0.0
H1806 H 0.62643 0.76431 0.81911 0.0
C1807 C 0.64795 0.7414 0.88375 0.0
H1808 H 0.66682 0.74505 0.82547 0.0
C1809 C 0.62464 0.75238 0.88012 0.0
C1810 C 0.61613 0.7603 0.85667 0.0
H1811 H 0.6536 0.73452 0.9017 0.0
H1812 H 0.61276 0.75378 0.89541 0.0
C1813 C 0.63207 0.75799 0.83726 0.0
C1814 C 0.37012 0.59541 0.83493 0.0
C1815 C 0.35022 0.61055 0.82891 0.0
H1816 H 0.3824 0.55805 0.83188 0.0
C1817 C 0.32567 0.59803 0.81729 0.0
H1818 H 0.38901 0.60417 0.84442 0.0
C1819 C 0.32165 0.57142 0.81074 0.0
C1820 C 0.34221 0.55679 0.8153 0.0
H1821 H 0.30996 0.60901 0.81206 0.0
H1822 H 0.30301 0.56278 0.8007 0.0
C1823 C 0.36622 0.56888 0.82803 0.0
C1824 C 0.45607 0.29039 0.84543 0.0
C1825 C 0.45693 0.29404 0.87104 0.0
H1826 H 0.4735 0.27457 0.81528 0.0
C1827 C 0.47785 0.28594 0.88572 0.0
H1828 H 0.44028 0.2964 0.83359 0.0
C1829 C 0.49643 0.27324 0.87537 0.0
C1830 C 0.49503 0.26856 0.84994 0.0
H1831 H 0.47969 0.28911 0.90545 0.0
H1832 H 0.51201 0.26708 0.88736 0.0
C1833 C 0.47502 0.27782 0.83497 0.0
C1834 C 0.34708 0.42292 0.21565 0.0
C1835 C 0.36776 0.42143 0.2337 0.0
H1836 H 0.31579 0.44328 0.20272 0.0
C1837 C 0.37303 0.44033 0.25298 0.0
H1838 H 0.34264 0.40858 0.20063 0.0
C1839 C 0.35768 0.46034 0.25431 0.0
C1840 C 0.33671 0.46182 0.23635 0.0
H1841 H 0.38894 0.43951 0.26716 0.0
H1842 H 0.36207 0.47445 0.2695 0.0
C1843 C 0.33175 0.44288 0.21694 0.0
C1844 C 0.68243 0.33942 0.25397 0.0
C1845 C 0.6872 0.36428 0.24377 0.0
H1846 H 0.65471 0.31058 0.27002 0.0
C1847 C 0.666 0.37831 0.24006 0.0
H1848 H 0.69844 0.32832 0.25747 0.0
C1849 C 0.64086 0.36817 0.24735 0.0
C1850 C 0.63637 0.34377 0.25849 0.0
H1851 H 0.66902 0.39741 0.23198 0.0
H1852 H 0.62504 0.37957 0.24451 0.0
C1853 C 0.65732 0.32929 0.26126 0.0
C1854 C 0.44488 0.68574 0.21401 0.0
C1855 C 0.4327 0.70597 0.20391 0.0
H1856 H 0.47335 0.67477 0.24091 0.0
C1857 C 0.44212 0.73185 0.21242 0.0
H1858 H 0.43844 0.66567 0.20749 0.0
C1859 C 0.46238 0.73714 0.23161 0.0
C1860 C 0.47348 0.71663 0.24257 0.0
H1861 H 0.43305 0.74782 0.20503 0.0
H1862 H 0.4686 0.75712 0.23843 0.0
C1863 C 0.46495 0.69098 0.23314 0.0
loop_
_geom_bond_atom_site_label_1
_geom_bond_atom_site_label_2
_geom_bond_distance
_geom_bond_site_symmetry_2
_ccdc_geom_bond_type
H0 C3 0.929 . S
H1 C6 0.929 . S
H2 C8 0.930 . S
C3 H0 0.929 . S
C3 C4 1.398 . S
C3 C5 1.396 . S
C4 C3 1.398 . S
C4 C8 1.407 . S
C5 C3 1.396 . S
C5 C6 1.394 . S
C6 H1 0.929 . S
C6 C5 1.394 . S
C6 C7 1.382 . S
C7 C6 1.382 . S
C7 C8 1.392 . S
C7 N9 1.420 . S
C8 H2 0.930 . S
C8 C4 1.407 . S
C8 C7 1.392 . S
N9 C7 1.420 . S
N9 C10 1.244 . S
C10 N9 1.244 . S
H11 C14 0.929 . S
H12 C17 0.929 . S
H13 C19 0.930 . S
C14 H11 0.929 . S
C14 C15 1.398 . S
C14 C16 1.396 . S
C15 C14 1.398 . S
C15 C19 1.407 . S
C16 C14 1.396 . S
C16 C17 1.394 . S
C17 H12 0.929 . S
C17 C16 1.394 . S
C17 C18 1.382 . S
C18 C17 1.382 . S
C18 C19 1.392 . S
C18 N20 1.420 . S
C19 H13 0.930 . S
C19 C15 1.407 . S
C19 C18 1.392 . S
N20 C18 1.420 . S
N20 C21 1.244 . S
C21 N20 1.244 . S
H22 C25 0.929 . S
H23 C28 0.929 . S
H24 C30 0.930 . S
C25 H22 0.929 . S
C25 C26 1.398 . S
C25 C27 1.396 . S
C26 C25 1.398 . S
C26 C30 1.407 . S
C27 C25 1.396 . S
C27 C28 1.394 . S
C28 H23 0.929 . S
C28 C27 1.394 . S
C28 C29 1.382 . S
C29 C28 1.382 . S
C29 C30 1.392 . S
C29 N31 1.420 . S
C30 H24 0.930 . S
C30 C26 1.407 . S
C30 C29 1.392 . S
N31 C29 1.420 . S
N31 C32 1.244 . S
C32 N31 1.244 . S
H33 C36 0.929 . S
H34 C39 0.929 . S
H35 C41 0.930 . S
C36 H33 0.929 . S
C36 C37 1.398 . S
C36 C38 1.396 . S
C37 C36 1.398 . S
C37 C41 1.407 . S
C38 C36 1.396 . S
C38 C39 1.394 . S
C39 H34 0.929 . S
C39 C38 1.394 . S
C39 C40 1.382 . S
C40 C39 1.382 . S
C40 C41 1.392 . S
C40 N42 1.420 . S
C41 H35 0.930 . S
C41 C37 1.407 . S
C41 C40 1.392 . S
N42 C40 1.420 . S
N42 C43 1.244 . S
C43 N42 1.244 . S
H44 C47 0.929 . S
H45 C50 0.929 . S
H46 C52 0.930 . S
C47 H44 0.929 . S
C47 C48 1.398 . S
C47 C49 1.396 . S
C48 C47 1.398 . S
C48 C52 1.407 . S
C49 C47 1.396 . S
C49 C50 1.394 . S
C50 H45 0.929 . S
C50 C49 1.394 . S
C50 C51 1.382 . S
C51 C50 1.382 . S
C51 C52 1.392 . S
C51 N53 1.420 . S
C52 H46 0.930 . S
C52 C48 1.407 . S
C52 C51 1.392 . S
N53 C51 1.420 . S
N53 C54 1.244 . S
C54 N53 1.244 . S
H55 C58 0.929 . S
H56 C61 0.929 . S
H57 C63 0.930 . S
C58 H55 0.929 . S
C58 C59 1.398 . S
C58 C60 1.396 . S
C59 C58 1.398 . S
C59 C63 1.407 . S
C60 C58 1.396 . S
C60 C61 1.394 . S
C61 H56 0.929 . S
C61 C60 1.394 . S
C61 C62 1.382 . S
C62 C61 1.382 . S
C62 C63 1.392 . S
C62 N64 1.420 . S
C63 H57 0.930 . S
C63 C59 1.407 . S
C63 C62 1.392 . S
N64 C62 1.420 . S
N64 C65 1.244 . S
C65 N64 1.244 . S
H66 C69 0.929 . S
H67 C72 0.929 . S
H68 C74 0.930 . S
C69 H66 0.929 . S
C69 C70 1.398 . S
C69 C71 1.396 . S
C70 C69 1.398 . S
C70 C74 1.407 . S
C71 C69 1.396 . S
C71 C72 1.394 . S
C72 H67 0.929 . S
C72 C71 1.394 . S
C72 C73 1.382 . S
C73 C72 1.382 . S
C73 C74 1.392 . S
C73 N75 1.420 . S
C74 H68 0.930 . S
C74 C70 1.407 . S
C74 C73 1.392 . S
N75 C73 1.420 . S
N75 C76 1.244 . S
C76 N75 1.244 . S
H77 C80 0.929 . S
H78 C83 0.929 . S
H79 C85 0.930 . S
C80 H77 0.929 . S
C80 C81 1.398 . S
C80 C82 1.396 . S
C81 C80 1.398 . S
C81 C85 1.407 . S
C82 C80 1.396 . S
C82 C83 1.394 . S
C83 H78 0.929 . S
C83 C82 1.394 . S
C83 C84 1.382 . S
C84 C83 1.382 . S
C84 C85 1.392 . S
C84 N86 1.420 . S
C85 H79 0.930 . S
C85 C81 1.407 . S
C85 C84 1.392 . S
N86 C84 1.420 . S
N86 C87 1.244 . S
C87 N86 1.244 . S
H88 C91 0.929 . S
H89 C94 0.929 . S
H90 C96 0.930 . S
C91 H88 0.929 . S
C91 C92 1.398 . S
C91 C93 1.396 . S
C92 C91 1.398 . S
C92 C96 1.407 . S
C93 C91 1.396 . S
C93 C94 1.394 . S
C94 H89 0.929 . S
C94 C93 1.394 . S
C94 C95 1.382 . S
C95 C94 1.382 . S
C95 C96 1.392 . S
C95 N97 1.420 . S
C96 H90 0.930 . S
C96 C92 1.407 . S
C96 C95 1.392 . S
N97 C95 1.420 . S
N97 C98 1.244 . S
C98 N97 1.244 . S
H99 C102 0.929 . S
H100 C105 0.929 . S
H101 C107 0.930 . S
C102 H99 0.929 . S
C102 C103 1.398 . S
C102 C104 1.396 . S
C103 C102 1.398 . S
C103 C107 1.407 . S
C104 C102 1.396 . S
C104 C105 1.394 . S
C105 H100 0.929 . S
C105 C104 1.394 . S
C105 C106 1.382 . S
C106 C105 1.382 . S
C106 C107 1.392 . S
C106 N108 1.420 . S
C107 H101 0.930 . S
C107 C103 1.407 . S
C107 C106 1.392 . S
N108 C106 1.420 . S
N108 C109 1.244 . S
C109 N108 1.244 . S
H110 C113 0.929 . S
H111 C116 0.929 . S
H112 C118 0.930 . S
C113 H110 0.929 . S
C113 C114 1.398 . S
C113 C115 1.396 . S
C114 C113 1.398 . S
C114 C118 1.407 . S
C115 C113 1.396 . S
C115 C116 1.394 . S
C116 H111 0.929 . S
C116 C115 1.394 . S
C116 C117 1.382 . S
C117 C116 1.382 . S
C117 C118 1.392 . S
C117 N119 1.420 . S
C118 H112 0.930 . S
C118 C114 1.407 . S
C118 C117 1.392 . S
N119 C117 1.420 . S
N119 C120 1.244 . S
C120 N119 1.244 . S
H121 C124 0.929 . S
H122 C127 0.929 . S
H123 C129 0.930 . S
C124 H121 0.929 . S
C124 C125 1.398 . S
C124 C126 1.396 . S
C125 C124 1.398 . S
C125 C129 1.407 . S
C126 C124 1.396 . S
C126 C127 1.394 . S
C127 H122 0.929 . S
C127 C126 1.394 . S
C127 C128 1.382 . S
C128 C127 1.382 . S
C128 C129 1.392 . S
C128 N130 1.420 . S
C129 H123 0.930 . S
C129 C125 1.407 . S
C129 C128 1.392 . S
N130 C128 1.420 . S
N130 C131 1.244 . S
C131 N130 1.244 . S
H132 C135 0.929 . S
H133 C138 0.929 . S
H134 C140 0.930 . S
C135 H132 0.929 . S
C135 C136 1.398 . S
C135 C137 1.396 . S
C136 C135 1.398 . S
C136 C140 1.407 . S
C137 C135 1.396 . S
C137 C138 1.394 . S
C138 H133 0.929 . S
C138 C137 1.394 . S
C138 C139 1.382 . S
C139 C138 1.382 . S
C139 C140 1.392 . S
C139 N141 1.420 . S
C140 H134 0.930 . S
C140 C136 1.407 . S
C140 C139 1.392 . S
N141 C139 1.420 . S
N141 C142 1.244 . S
C142 N141 1.244 . S
H143 C146 0.929 . S
H144 C149 0.929 . S
H145 C151 0.930 . S
C146 H143 0.929 . S
C146 C147 1.398 . S
C146 C148 1.396 . S
C147 C146 1.398 . S
C147 C151 1.407 . S
C148 C146 1.396 . S
C148 C149 1.394 . S
C149 H144 0.929 . S
C149 C148 1.394 . S
C149 C150 1.382 . S
C150 C149 1.382 . S
C150 C151 1.392 . S
C150 N152 1.420 . S
C151 H145 0.930 . S
C151 C147 1.407 . S
C151 C150 1.392 . S
N152 C150 1.420 . S
N152 C153 1.244 . S
C153 N152 1.244 . S
H154 C157 0.929 . S
H155 C160 0.929 . S
H156 C162 0.930 . S
C157 H154 0.929 . S
C157 C158 1.398 . S
C157 C159 1.396 . S
C158 C157 1.398 . S
C158 C162 1.407 . S
C159 C157 1.396 . S
C159 C160 1.394 . S
C160 H155 0.929 . S
C160 C159 1.394 . S
C160 C161 1.382 . S
C161 C160 1.382 . S
C161 C162 1.392 . S
C161 N163 1.420 . S
C162 H156 0.930 . S
C162 C158 1.407 . S
C162 C161 1.392 . S
N163 C161 1.420 . S
N163 C164 1.244 . S
C164 N163 1.244 . S
H165 C168 0.929 . S
H166 C171 0.929 . S
H167 C173 0.930 . S
C168 H165 0.929 . S
C168 C169 1.398 . S
C168 C170 1.396 . S
C169 C168 1.398 . S
C169 C173 1.407 . S
C170 C168 1.396 . S
C170 C171 1.394 . S
C171 H166 0.929 . S
C171 C170 1.394 . S
C171 C172 1.382 . S
C172 C171 1.382 . S
C172 C173 1.392 . S
C172 N174 1.420 . S
C173 H167 0.930 . S
C173 C169 1.407 . S
C173 C172 1.392 . S
N174 C172 1.420 . S
N174 C175 1.244 . S
C175 N174 1.244 . S
H176 C179 0.929 . S
H177 C182 0.929 . S
H178 C184 0.930 . S
C179 H176 0.929 . S
C179 C180 1.398 . S
C179 C181 1.396 . S
C180 C179 1.398 . S
C180 C184 1.407 . S
C181 C179 1.396 . S
C181 C182 1.394 . S
C182 H177 0.929 . S
C182 C181 1.394 . S
C182 C183 1.382 . S
C183 C182 1.382 . S
C183 C184 1.392 . S
C183 N185 1.420 . S
C184 H178 0.930 . S
C184 C180 1.407 . S
C184 C183 1.392 . S
N185 C183 1.420 . S
N185 C186 1.244 . S
C186 N185 1.244 . S
H187 C190 0.929 . S
H188 C193 0.929 . S
H189 C195 0.930 . S
C190 H187 0.929 . S
C190 C191 1.398 . S
C190 C192 1.396 . S
C191 C190 1.398 . S
C191 C195 1.407 . S
C192 C190 1.396 . S
C192 C193 1.394 . S
C193 H188 0.929 . S
C193 C192 1.394 . S
C193 C194 1.382 . S
C194 C193 1.382 . S
C194 C195 1.392 . S
C194 N196 1.420 . S
C195 H189 0.930 . S
C195 C191 1.407 . S
C195 C194 1.392 . S
N196 C194 1.420 . S
N196 C197 1.244 . S
C197 N196 1.244 . S
H198 C201 0.929 . S
H199 C204 0.929 . S
H200 C206 0.930 . S
C201 H198 0.929 . S
C201 C202 1.398 . S
C201 C203 1.396 . S
C202 C201 1.398 . S
C202 C206 1.407 . S
C203 C201 1.396 . S
C203 C204 1.394 . S
C204 H199 0.929 . S
C204 C203 1.394 . S
C204 C205 1.382 . S
C205 C204 1.382 . S
C205 C206 1.392 . S
C205 N207 1.420 . S
C206 H200 0.930 . S
C206 C202 1.407 . S
C206 C205 1.392 . S
N207 C205 1.420 . S
N207 C208 1.244 . S
C208 N207 1.244 . S
H209 C212 0.929 . S
H210 C215 0.929 . S
H211 C217 0.930 . S
C212 H209 0.929 . S
C212 C213 1.398 . S
C212 C214 1.396 . S
C213 C212 1.398 . S
C213 C217 1.407 . S
C214 C212 1.396 . S
C214 C215 1.394 . S
C215 H210 0.929 . S
C215 C214 1.394 . S
C215 C216 1.382 . S
C216 C215 1.382 . S
C216 C217 1.392 . S
C216 N218 1.420 . S
C217 H211 0.930 . S
C217 C213 1.407 . S
C217 C216 1.392 . S
N218 C216 1.420 . S
N218 C219 1.244 . S
C219 N218 1.244 . S
H220 C223 0.929 . S
H221 C226 0.929 . S
H222 C228 0.930 . S
C223 H220 0.929 . S
C223 C224 1.398 . S
C223 C225 1.396 . S
C224 C223 1.398 . S
C224 C228 1.407 . S
C225 C223 1.396 . S
C225 C226 1.394 . S
C226 H221 0.929 . S
C226 C225 1.394 . S
C226 C227 1.382 . S
C227 C226 1.382 . S
C227 C228 1.392 . S
C227 N229 1.420 . S
C228 H222 0.930 . S
C228 C224 1.407 . S
C228 C227 1.392 . S
N229 C227 1.420 . S
N229 C230 1.244 . S
C230 N229 1.244 . S
H231 C234 0.929 . S
H232 C237 0.929 . S
H233 C239 0.930 . S
C234 H231 0.929 . S
C234 C235 1.398 . S
C234 C236 1.396 . S
C235 C234 1.398 . S
C235 C239 1.407 . S
C236 C234 1.396 . S
C236 C237 1.394 . S
C237 H232 0.929 . S
C237 C236 1.394 . S
C237 C238 1.382 . S
C238 C237 1.382 . S
C238 C239 1.392 . S
C238 N240 1.420 . S
C239 H233 0.930 . S
C239 C235 1.407 . S
C239 C238 1.392 . S
N240 C238 1.420 . S
N240 C241 1.244 . S
C241 N240 1.244 . S
H242 C245 0.929 . S
H243 C248 0.929 . S
H244 C250 0.930 . S
C245 H242 0.929 . S
C245 C246 1.398 . S
C245 C247 1.396 . S
C246 C245 1.398 . S
C246 C250 1.407 . S
C247 C245 1.396 . S
C247 C248 1.394 . S
C248 H243 0.929 . S
C248 C247 1.394 . S
C248 C249 1.382 . S
C249 C248 1.382 . S
C249 C250 1.392 . S
C249 N251 1.420 . S
C250 H244 0.930 . S
C250 C246 1.407 . S
C250 C249 1.392 . S
N251 C249 1.420 . S
N251 C252 1.244 . S
C252 N251 1.244 . S
H253 C256 0.929 . S
H254 C259 0.929 . S
H255 C261 0.930 . S
C256 H253 0.929 . S
C256 C257 1.398 . S
C256 C258 1.396 . S
C257 C256 1.398 . S
C257 C261 1.407 . S
C258 C256 1.396 . S
C258 C259 1.394 . S
C259 H254 0.929 . S
C259 C258 1.394 . S
C259 C260 1.382 . S
C260 C259 1.382 . S
C260 C261 1.392 . S
C260 N262 1.420 . S
C261 H255 0.930 . S
C261 C257 1.407 . S
C261 C260 1.392 . S
N262 C260 1.420 . S
N262 C263 1.244 . S
C263 N262 1.244 . S
H264 C267 0.929 . S
H265 C270 0.929 . S
H266 C272 0.930 . S
C267 H264 0.929 . S
C267 C268 1.398 . S
C267 C269 1.396 . S
C268 C267 1.398 . S
C268 C272 1.407 . S
C269 C267 1.396 . S
C269 C270 1.394 . S
C270 H265 0.929 . S
C270 C269 1.394 . S
C270 C271 1.382 . S
C271 C270 1.382 . S
C271 C272 1.392 . S
C271 N273 1.420 . S
C272 H266 0.930 . S
C272 C268 1.407 . S
C272 C271 1.392 . S
N273 C271 1.420 . S
N273 C274 1.244 . S
C274 N273 1.244 . S
H275 C278 0.929 . S
H276 C281 0.929 . S
H277 C283 0.930 . S
C278 H275 0.929 . S
C278 C279 1.398 . S
C278 C280 1.396 . S
C279 C278 1.398 . S
C279 C283 1.407 . S
C280 C278 1.396 . S
C280 C281 1.394 . S
C281 H276 0.929 . S
C281 C280 1.394 . S
C281 C282 1.382 . S
C282 C281 1.382 . S
C282 C283 1.392 . S
C282 N284 1.420 . S
C283 H277 0.930 . S
C283 C279 1.407 . S
C283 C282 1.392 . S
N284 C282 1.420 . S
N284 C285 1.244 . S
C285 N284 1.244 . S
H286 C289 0.929 . S
H287 C292 0.929 . S
H288 C294 0.930 . S
C289 H286 0.929 . S
C289 C290 1.398 . S
C289 C291 1.396 . S
C290 C289 1.398 . S
C290 C294 1.407 . S
C291 C289 1.396 . S
C291 C292 1.394 . S
C292 H287 0.929 . S
C292 C291 1.394 . S
C292 C293 1.382 . S
C293 C292 1.382 . S
C293 C294 1.392 . S
C293 N295 1.420 . S
C294 H288 0.930 . S
C294 C290 1.407 . S
C294 C293 1.392 . S
N295 C293 1.420 . S
N295 C296 1.244 . S
C296 N295 1.244 . S
H297 C300 0.929 . S
H298 C303 0.929 . S
H299 C305 0.930 . S
C300 H297 0.929 . S
C300 C301 1.398 . S
C300 C302 1.396 . S
C301 C300 1.398 . S
C301 C305 1.407 . S
C302 C300 1.396 . S
C302 C303 1.394 . S
C303 H298 0.929 . S
C303 C302 1.394 . S
C303 C304 1.382 . S
C304 C303 1.382 . S
C304 C305 1.392 . S
C304 N306 1.420 . S
C305 H299 0.930 . S
C305 C301 1.407 . S
C305 C304 1.392 . S
N306 C304 1.420 . S
N306 C307 1.244 . S
C307 N306 1.244 . S
H308 C311 0.929 . S
H309 C314 0.929 . S
H310 C316 0.930 . S
C311 H308 0.929 . S
C311 C312 1.398 . S
C311 C313 1.396 . S
C312 C311 1.398 . S
C312 C316 1.407 . S
C313 C311 1.396 . S
C313 C314 1.394 . S
C314 H309 0.929 . S
C314 C313 1.394 . S
C314 C315 1.382 . S
C315 C314 1.382 . S
C315 C316 1.392 . S
C315 N317 1.420 . S
C316 H310 0.930 . S
C316 C312 1.407 . S
C316 C315 1.392 . S
N317 C315 1.420 . S
N317 C318 1.244 . S
C318 N317 1.244 . S
H319 C322 0.929 . S
H320 C325 0.929 . S
H321 C327 0.930 . S
C322 H319 0.929 . S
C322 C323 1.398 . S
C322 C324 1.396 . S
C323 C322 1.398 . S
C323 C327 1.407 . S
C324 C322 1.396 . S
C324 C325 1.394 . S
C325 H320 0.929 . S
C325 C324 1.394 . S
C325 C326 1.382 . S
C326 C325 1.382 . S
C326 C327 1.392 . S
C326 N328 1.420 . S
C327 H321 0.930 . S
C327 C323 1.407 . S
C327 C326 1.392 . S
N328 C326 1.420 . S
N328 C329 1.244 . S
C329 N328 1.244 . S
H330 C333 0.929 . S
H331 C336 0.929 . S
H332 C338 0.930 . S
C333 H330 0.929 . S
C333 C334 1.398 . S
C333 C335 1.396 . S
C334 C333 1.398 . S
C334 C338 1.407 . S
C335 C333 1.396 . S
C335 C336 1.394 . S
C336 H331 0.929 . S
C336 C335 1.394 . S
C336 C337 1.382 . S
C337 C336 1.382 . S
C337 C338 1.392 . S
C337 N339 1.420 . S
C338 H332 0.930 . S
C338 C334 1.407 . S
C338 C337 1.392 . S
N339 C337 1.420 . S
N339 C340 1.244 . S
C340 N339 1.244 . S
H341 C344 0.929 . S
H342 C347 0.929 . S
H343 C349 0.930 . S
C344 H341 0.929 . S
C344 C345 1.398 . S
C344 C346 1.396 . S
C345 C344 1.398 . S
C345 C349 1.407 . S
C346 C344 1.396 . S
C346 C347 1.394 . S
C347 H342 0.929 . S
C347 C346 1.394 . S
C347 C348 1.382 . S
C348 C347 1.382 . S
C348 C349 1.392 . S
C348 N350 1.420 . S
C349 H343 0.930 . S
C349 C345 1.407 . S
C349 C348 1.392 . S
N350 C348 1.420 . S
N350 C351 1.244 . S
C351 N350 1.244 . S
Cu352 N353 1.999 . S
Cu352 O358 1.974 1_554 S
Cu352 N363 1.985 . S
Cu352 O372 1.959 . S
N353 Cu352 1.999 . S
N353 C355 1.263 1_554 S
N353 C357 1.389 . S
N354 C355 1.358 . S
N354 C356 1.400 . S
C355 N353 1.263 1_556 S
C355 N354 1.358 . S
C355 H361 0.930 . S
C356 N354 1.400 . S
C356 C357 1.351 1_556 S
C356 H373 0.930 . S
C357 N353 1.389 . S
C357 C356 1.351 1_554 S
C357 H362 0.930 . S
O358 Cu352 1.974 1_556 S
O358 C368 1.282 . S
C359 O360 1.261 . S
C359 O372 1.251 . S
O360 C359 1.261 . S
H361 C355 0.930 . S
H362 C357 0.930 . S
N363 Cu352 1.985 . S
N363 C365 1.335 . S
N363 C366 1.390 . S
N364 C365 1.345 . S
N364 C367 1.336 . S
C365 N363 1.335 . S
C365 N364 1.345 . S
C365 H370 0.930 . S
C366 N363 1.390 . S
C366 C367 1.346 . S
C366 H371 0.930 . S
C367 N364 1.336 . S
C367 C366 1.346 . S
C367 H374 0.929 . S
C368 O358 1.282 . S
C368 O369 1.216 . S
O369 C368 1.216 . S
H370 C365 0.930 . S
H371 C366 0.930 . S
O372 Cu352 1.959 . S
O372 C359 1.251 . S
H373 C356 0.930 . S
H374 C367 0.929 . S
Cu375 N376 1.999 . S
Cu375 O381 1.974 . S
Cu375 N386 1.985 . S
Cu375 O395 1.959 1_554 S
N376 Cu375 1.999 . S
N376 C378 1.263 . S
N376 C380 1.389 . S
N377 C378 1.358 . S
N377 C379 1.400 . S
C378 N376 1.263 . S
C378 N377 1.358 . S
C378 H384 0.930 . S
C379 N377 1.400 . S
C379 C380 1.351 . S
C379 H396 0.930 . S
C380 N376 1.389 . S
C380 C379 1.351 . S
C380 H385 0.930 . S
O381 Cu375 1.974 . S
O381 C391 1.282 . S
C382 O383 1.262 1_556 S
C382 O395 1.251 . S
O383 C382 1.262 1_554 S
H384 C378 0.930 . S
H385 C380 0.930 . S
N386 Cu375 1.985 . S
N386 C388 1.335 1_554 S
N386 C389 1.390 . S
N387 C388 1.345 . S
N387 C390 1.336 . S
C388 N386 1.335 1_556 S
C388 N387 1.345 . S
C388 H393 0.930 . S
C389 N386 1.390 . S
C389 C390 1.346 1_554 S
C389 H394 0.930 . S
C390 N387 1.336 . S
C390 C389 1.346 1_556 S
C390 H397 0.929 . S
C391 O381 1.282 . S
C391 O392 1.216 . S
O392 C391 1.216 . S
H393 C388 0.930 . S
H394 C389 0.930 . S
O395 Cu375 1.959 1_556 S
O395 C382 1.251 . S
H396 C379 0.930 . S
H397 C390 0.929 . S
Cu398 N399 1.999 1_554 S
Cu398 O404 1.974 1_554 S
Cu398 N409 1.985 . S
Cu398 O418 1.959 . S
N399 Cu398 1.999 1_556 S
N399 C401 1.263 . S
N399 C403 1.389 . S
N400 C401 1.358 . S
N400 C402 1.400 . S
C401 N399 1.263 . S
C401 N400 1.358 . S
C401 H407 0.930 . S
C402 N400 1.400 . S
C402 C403 1.351 . S
C402 H419 0.930 . S
C403 N399 1.389 . S
C403 C402 1.351 . S
C403 H408 0.930 1_556 S
O404 Cu398 1.974 1_556 S
O404 C414 1.282 . S
C405 O406 1.261 . S
C405 O418 1.251 . S
O406 C405 1.261 . S
H407 C401 0.930 . S
H408 C403 0.930 1_554 S
N409 Cu398 1.985 . S
N409 C411 1.335 . S
N409 C412 1.390 . S
N410 C411 1.345 . S
N410 C413 1.336 . S
C411 N409 1.335 . S
C411 N410 1.345 . S
C411 H416 0.930 . S
C412 N409 1.390 . S
C412 C413 1.346 . S
C412 H417 0.930 . S
C413 N410 1.336 . S
C413 C412 1.346 . S
C413 H420 0.929 . S
C414 O404 1.282 . S
C414 O415 1.216 . S
O415 C414 1.216 . S
H416 C411 0.930 . S
H417 C412 0.930 . S
O418 Cu398 1.959 . S
O418 C405 1.251 . S
H419 C402 0.930 . S
H420 C413 0.929 . S
Cu421 N422 1.999 . S
Cu421 O427 1.974 . S
Cu421 N432 1.985 1_554 S
Cu421 O441 1.959 1_554 S
N422 Cu421 1.999 . S
N422 C424 1.263 . S
N422 C426 1.389 . S
N423 C424 1.358 . S
N423 C425 1.400 . S
C424 N422 1.263 . S
C424 N423 1.358 . S
C424 H430 0.930 . S
C425 N423 1.400 . S
C425 C426 1.351 . S
C425 H442 0.930 . S
C426 N422 1.389 . S
C426 C425 1.351 . S
C426 H431 0.930 . S
O427 Cu421 1.974 . S
O427 C437 1.282 . S
C428 O429 1.261 . S
C428 O441 1.251 . S
O429 C428 1.261 . S
H430 C424 0.930 . S
H431 C426 0.930 . S
N432 Cu421 1.985 1_556 S
N432 C434 1.335 . S
N432 C435 1.390 . S
N433 C434 1.345 . S
N433 C436 1.336 . S
C434 N432 1.335 . S
C434 N433 1.345 . S
C434 H439 0.930 . S
C435 N432 1.390 . S
C435 C436 1.346 . S
C435 H440 0.930 1_556 S
C436 N433 1.336 . S
C436 C435 1.346 . S
C436 H443 0.929 . S
C437 O427 1.282 . S
C437 O438 1.216 . S
O438 C437 1.216 . S
H439 C434 0.930 . S
H440 C435 0.930 1_554 S
O441 Cu421 1.959 1_556 S
O441 C428 1.251 . S
H442 C425 0.930 . S
H443 C436 0.929 . S
Cu444 N445 1.999 . S
Cu444 O450 1.974 . S
Cu444 N455 1.985 . S
Cu444 O464 1.959 1_455 S
N445 Cu444 1.999 . S
N445 C447 1.263 . S
N445 C449 1.389 . S
N446 C447 1.358 . S
N446 C448 1.400 . S
C447 N445 1.263 . S
C447 N446 1.358 . S
C447 H453 0.930 . S
C448 N446 1.400 . S
C448 C449 1.351 . S
C448 H465 0.930 . S
C449 N445 1.389 . S
C449 C448 1.351 . S
C449 H454 0.930 . S
O450 Cu444 1.974 . S
O450 C460 1.282 . S
C451 O452 1.261 . S
C451 O464 1.251 . S
O452 C451 1.261 . S
H453 C447 0.930 . S
H454 C449 0.930 . S
N455 Cu444 1.985 . S
N455 C457 1.335 1_455 S
N455 C458 1.390 . S
N456 C457 1.345 . S
N456 C459 1.336 . S
C457 N455 1.335 1_655 S
C457 N456 1.345 . S
C457 H462 0.930 . S
C458 N455 1.390 . S
C458 C459 1.346 1_455 S
C458 H463 0.930 . S
C459 N456 1.336 . S
C459 C458 1.346 1_655 S
C459 H466 0.929 . S
C460 O450 1.282 . S
C460 O461 1.216 . S
O461 C460 1.216 . S
H462 C457 0.930 . S
H463 C458 0.930 . S
O464 Cu444 1.959 1_655 S
O464 C451 1.251 . S
H465 C448 0.930 . S
H466 C459 0.929 . S
Cu467 N468 1.999 . S
Cu467 O473 1.974 . S
Cu467 N478 1.985 1_545 S
Cu467 O487 1.959 1_545 S
N468 Cu467 1.999 . S
N468 C470 1.263 . S
N468 C472 1.389 . S
N469 C470 1.358 . S
N469 C471 1.400 . S
C470 N468 1.263 . S
C470 N469 1.358 . S
C470 H476 0.930 . S
C471 N469 1.400 . S
C471 C472 1.351 . S
C471 H488 0.930 . S
C472 N468 1.389 . S
C472 C471 1.351 . S
C472 H477 0.930 . S
O473 Cu467 1.974 . S
O473 C483 1.282 . S
C474 O475 1.261 . S
C474 O487 1.251 . S
O475 C474 1.261 . S
H476 C470 0.930 . S
H477 C472 0.930 . S
N478 Cu467 1.985 1_565 S
N478 C480 1.335 . S
N478 C481 1.390 . S
N479 C480 1.345 . S
N479 C482 1.336 . S
C480 N478 1.335 . S
C480 N479 1.345 . S
C480 H485 0.930 . S
C481 N478 1.390 . S
C481 C482 1.346 . S
C481 H486 0.918 1_565 S
C482 N479 1.336 . S
C482 C481 1.346 . S
C482 H489 0.929 . S
C483 O473 1.282 . S
C483 O484 1.216 . S
O484 C483 1.216 . S
H485 C480 0.930 . S
H486 C481 0.918 1_545 S
O487 Cu467 1.959 1_565 S
O487 C474 1.251 . S
H488 C471 0.930 . S
H489 C482 0.929 . S
Cu490 N491 1.999 . S
Cu490 O496 1.974 . S
Cu490 N501 1.985 1_655 S
Cu490 O510 1.959 1_655 S
N491 Cu490 1.999 . S
N491 C493 1.263 . S
N491 C495 1.389 . S
N492 C493 1.358 . S
N492 C494 1.400 . S
C493 N491 1.263 . S
C493 N492 1.358 . S
C493 H499 0.930 . S
C494 N492 1.400 . S
C494 C495 1.351 . S
C494 H511 0.930 . S
C495 N491 1.389 . S
C495 C494 1.351 . S
C495 H500 0.930 . S
O496 Cu490 1.974 . S
O496 C506 1.282 . S
C497 O498 1.261 . S
C497 O510 1.251 . S
O498 C497 1.261 . S
H499 C493 0.930 . S
H500 C495 0.930 . S
N501 Cu490 1.985 1_455 S
N501 C503 1.335 . S
N501 C504 1.390 . S
N502 C503 1.345 . S
N502 C505 1.336 . S
C503 N501 1.335 . S
C503 N502 1.345 . S
C503 H508 0.930 . S
C504 N501 1.390 . S
C504 C505 1.346 . S
C504 H509 0.900 1_455 S
C505 N502 1.336 . S
C505 C504 1.346 . S
C505 H512 0.929 . S
C506 O496 1.282 . S
C506 O507 1.216 . S
O507 C506 1.216 . S
H508 C503 0.930 . S
H509 C504 0.900 1_655 S
O510 Cu490 1.959 1_455 S
O510 C497 1.251 . S
H511 C494 0.930 . S
H512 C505 0.929 . S
Cu513 N514 1.999 . S
Cu513 O519 1.974 . S
Cu513 N524 1.985 1_545 S
Cu513 O533 1.959 1_545 S
N514 Cu513 1.999 . S
N514 C516 1.263 . S
N514 C518 1.389 . S
N515 C516 1.358 . S
N515 C517 1.400 . S
C516 N514 1.263 . S
C516 N515 1.358 . S
C516 H522 0.930 . S
C517 N515 1.400 . S
C517 C518 1.351 . S
C517 H534 0.930 . S
C518 N514 1.389 . S
C518 C517 1.351 . S
C518 H523 0.930 . S
O519 Cu513 1.974 . S
O519 C529 1.282 . S
C520 O521 1.261 . S
C520 O533 1.251 . S
O521 C520 1.261 . S
H522 C516 0.930 . S
H523 C518 0.930 . S
N524 Cu513 1.985 1_565 S
N524 C526 1.335 . S
N524 C527 1.390 . S
N525 C526 1.345 . S
N525 C528 1.336 . S
C526 N524 1.335 . S
C526 N525 1.345 . S
C526 H531 0.930 . S
C527 N524 1.390 . S
C527 C528 1.346 . S
C527 H532 0.930 . S
C528 N525 1.336 . S
C528 C527 1.346 . S
C528 H535 0.929 . S
C529 O519 1.282 . S
C529 O530 1.216 . S
O530 C529 1.216 . S
H531 C526 0.930 . S
H532 C527 0.930 . S
O533 Cu513 1.959 1_565 S
O533 C520 1.251 . S
H534 C517 0.930 . S
H535 C528 0.929 . S
Cu536 N537 1.999 . S
Cu536 O542 1.974 . S
Cu536 N547 1.985 . S
Cu536 O556 1.959 1_455 S
N537 Cu536 1.999 . S
N537 C539 1.263 . S
N537 C541 1.389 . S
N538 C539 1.358 . S
N538 C540 1.400 . S
C539 N537 1.263 . S
C539 N538 1.358 . S
C539 H545 0.930 . S
C540 N538 1.400 . S
C540 C541 1.351 . S
C540 H557 0.930 . S
C541 N537 1.389 . S
C541 C540 1.351 . S
C541 H546 0.930 . S
O542 Cu536 1.974 . S
O542 C552 1.282 . S
C543 O544 1.261 . S
C543 O556 1.251 . S
O544 C543 1.261 . S
H545 C539 0.930 . S
H546 C541 0.930 . S
N547 Cu536 1.985 . S
N547 C549 1.335 1_455 S
N547 C550 1.390 . S
N548 C549 1.345 . S
N548 C551 1.336 . S
C549 N547 1.335 1_655 S
C549 N548 1.345 . S
C549 H554 0.930 . S
C550 N547 1.390 . S
C550 C551 1.346 1_455 S
C550 H555 0.930 . S
C551 N548 1.336 . S
C551 C550 1.346 1_655 S
C551 H558 0.929 . S
C552 O542 1.282 . S
C552 O553 1.216 . S
O553 C552 1.216 . S
H554 C549 0.930 . S
H555 C550 0.930 . S
O556 Cu536 1.959 1_655 S
O556 C543 1.251 . S
H557 C540 0.930 . S
H558 C551 0.929 . S
Cu559 N560 1.999 . S
Cu559 O565 1.974 . S
Cu559 N570 1.985 1_545 S
Cu559 O579 1.959 1_545 S
N560 Cu559 1.999 . S
N560 C562 1.263 . S
N560 C564 1.389 . S
N561 C562 1.358 . S
N561 C563 1.400 . S
C562 N560 1.263 . S
C562 N561 1.358 . S
C562 H568 0.930 . S
C563 N561 1.400 . S
C563 C564 1.351 . S
C563 H580 0.930 . S
C564 N560 1.389 . S
C564 C563 1.351 . S
C564 H569 0.930 . S
O565 Cu559 1.974 . S
O565 C575 1.282 . S
C566 O567 1.261 1_565 S
C566 O579 1.251 . S
O567 C566 1.261 1_545 S
H568 C562 0.930 . S
H569 C564 0.930 . S
N570 Cu559 1.985 1_565 S
N570 C572 1.335 . S
N570 C573 1.390 . S
N571 C572 1.345 . S
N571 C574 1.336 . S
C572 N570 1.335 . S
C572 N571 1.345 . S
C572 H577 0.930 . S
C573 N570 1.390 . S
C573 C574 1.346 . S
C573 H578 0.930 1_565 S
C574 N571 1.336 . S
C574 C573 1.346 . S
C574 H581 0.929 . S
C575 O565 1.282 . S
C575 O576 1.216 . S
O576 C575 1.216 . S
H577 C572 0.930 . S
H578 C573 0.930 1_545 S
O579 Cu559 1.959 1_565 S
O579 C566 1.251 . S
H580 C563 0.930 . S
H581 C574 0.929 . S
Cu582 N583 1.999 . S
Cu582 O588 1.974 . S
Cu582 N593 1.985 . S
Cu582 O602 1.959 . S
N583 Cu582 1.999 . S
N583 C585 1.263 1_455 S
N583 C587 1.389 . S
N584 C585 1.358 . S
N584 C586 1.400 1_655 S
C585 N583 1.263 1_655 S
C585 N584 1.358 . S
C585 H591 0.930 . S
C586 N584 1.400 1_455 S
C586 C587 1.351 . S
C586 H603 0.930 1_455 S
C587 N583 1.389 . S
C587 C586 1.351 . S
C587 H592 0.930 . S
O588 Cu582 1.974 . S
O588 C598 1.295 . S
C589 O590 1.261 . S
C589 O602 1.251 . S
O590 C589 1.261 . S
H591 C585 0.930 . S
H592 C587 0.930 . S
N593 Cu582 1.985 . S
N593 C595 1.335 . S
N593 C596 1.390 . S
N594 C595 1.345 . S
N594 C597 1.336 . S
C595 N593 1.335 . S
C595 N594 1.345 . S
C595 H600 0.930 . S
C596 N593 1.390 . S
C596 C597 1.346 . S
C596 H601 0.930 . S
C597 N594 1.336 . S
C597 C596 1.346 . S
C597 H604 0.929 . S
C598 O588 1.295 . S
C598 O599 1.226 . S
O599 C598 1.226 . S
H600 C595 0.930 . S
H601 C596 0.930 . S
O602 Cu582 1.959 . S
O602 C589 1.251 . S
H603 C586 0.930 1_655 S
H604 C597 0.929 . S
Cu605 N606 1.999 . S
Cu605 O611 1.974 . S
Cu605 N616 1.999 . S
Cu605 O625 1.959 . S
N606 Cu605 1.999 . S
N606 C608 1.263 . S
N606 C610 1.389 . S
N607 C608 1.358 . S
N607 C609 1.400 . S
C608 N606 1.263 . S
C608 N607 1.358 . S
C608 H614 0.930 . S
C609 N607 1.400 . S
C609 C610 1.351 . S
C609 H626 0.930 . S
C610 N606 1.389 . S
C610 C609 1.351 . S
C610 H615 0.930 . S
O611 Cu605 1.974 . S
O611 C621 1.282 . S
C612 O613 1.261 1_565 S
C612 O625 1.251 1_565 S
O613 C612 1.261 1_545 S
H614 C608 0.930 . S
H615 C610 0.930 . S
N616 Cu605 1.999 . S
N616 C618 1.313 1_545 S
N616 C619 1.387 . S
N617 C618 1.345 . S
N617 C620 1.336 . S
C618 N616 1.313 1_565 S
C618 N617 1.345 . S
C618 H623 0.930 . S
C619 N616 1.387 . S
C619 C620 1.315 1_545 S
C619 H624 0.964 . S
C620 N617 1.336 . S
C620 C619 1.315 1_565 S
C620 H627 0.929 . S
C621 O611 1.282 . S
C621 O622 1.216 . S
O622 C621 1.216 . S
H623 C618 0.930 . S
H624 C619 0.964 . S
O625 Cu605 1.959 . S
O625 C612 1.251 1_545 S
H626 C609 0.930 . S
H627 C620 0.929 . S
Cu628 N629 1.999 . S
Cu628 O634 1.974 . S
Cu628 N639 1.985 . S
Cu628 O648 1.959 . S
N629 Cu628 1.999 . S
N629 C631 1.263 . S
N629 C633 1.389 . S
N630 C631 1.358 . S
N630 C632 1.400 . S
C631 N629 1.263 . S
C631 N630 1.358 . S
C631 H637 0.930 . S
C632 N630 1.400 . S
C632 C633 1.351 . S
C632 H649 0.930 . S
C633 N629 1.389 . S
C633 C632 1.351 . S
C633 H638 0.930 . S
O634 Cu628 1.974 . S
O634 C644 1.282 . S
C635 O636 1.261 . S
C635 O648 1.251 . S
O636 C635 1.261 . S
H637 C631 0.930 . S
H638 C633 0.930 . S
N639 Cu628 1.985 . S
N639 C641 1.335 . S
N639 C642 1.390 . S
N640 C641 1.345 . S
N640 C643 1.336 . S
C641 N639 1.335 . S
C641 N640 1.345 . S
C641 H646 0.930 . S
C642 N639 1.390 . S
C642 C643 1.346 . S
C642 H647 0.930 . S
C643 N640 1.336 . S
C643 C642 1.346 . S
C643 H650 0.929 . S
C644 O634 1.282 . S
C644 O645 1.216 . S
O645 C644 1.216 . S
H646 C641 0.930 . S
H647 C642 0.930 . S
O648 Cu628 1.959 . S
O648 C635 1.251 . S
H649 C632 0.930 . S
H650 C643 0.929 . S
Cu651 N652 1.999 . S
Cu651 O657 1.974 . S
Cu651 N662 1.985 . S
Cu651 O671 1.959 . S
N652 Cu651 1.999 . S
N652 C654 1.263 . S
N652 C656 1.389 . S
N653 C654 1.358 . S
N653 C655 1.400 . S
C654 N652 1.263 . S
C654 N653 1.358 . S
C654 H660 0.930 . S
C655 N653 1.400 . S
C655 C656 1.351 . S
C655 H672 0.930 . S
C656 N652 1.389 . S
C656 C655 1.351 . S
C656 H661 0.930 . S
O657 Cu651 1.974 . S
O657 C667 1.282 . S
C658 O659 1.261 . S
C658 O671 1.251 . S
O659 C658 1.261 . S
H660 C654 0.930 . S
H661 C656 0.930 . S
N662 Cu651 1.985 . S
N662 C664 1.335 . S
N662 C665 1.390 . S
N663 C664 1.345 . S
N663 C666 1.336 . S
C664 N662 1.335 . S
C664 N663 1.345 . S
C664 H669 0.930 . S
C665 N662 1.390 . S
C665 C666 1.346 . S
C665 H670 0.930 . S
C666 N663 1.336 . S
C666 C665 1.346 . S
C666 H673 0.929 . S
C667 O657 1.282 . S
C667 O668 1.216 . S
O668 C667 1.216 . S
H669 C664 0.930 . S
H670 C665 0.930 . S
O671 Cu651 1.959 . S
O671 C658 1.251 . S
H672 C655 0.930 . S
H673 C666 0.929 . S
Cu674 N675 1.999 . S
Cu674 O680 1.974 . S
Cu674 N685 1.985 . S
Cu674 O694 1.959 . S
N675 Cu674 1.999 . S
N675 C677 1.263 . S
N675 C679 1.389 . S
N676 C677 1.358 . S
N676 C678 1.400 . S
C677 N675 1.263 . S
C677 N676 1.358 . S
C677 H683 0.930 . S
C678 N676 1.400 . S
C678 C679 1.351 . S
C678 H695 0.930 . S
C679 N675 1.389 . S
C679 C678 1.351 . S
C679 H684 0.930 . S
O680 Cu674 1.974 . S
O680 C690 1.282 . S
C681 O682 1.261 . S
C681 O694 1.251 . S
O682 C681 1.261 . S
H683 C677 0.930 . S
H684 C679 0.930 . S
N685 Cu674 1.985 . S
N685 C687 1.335 . S
N685 C688 1.390 . S
N686 C687 1.345 . S
N686 C689 1.336 . S
C687 N685 1.335 . S
C687 N686 1.345 . S
C687 H692 0.930 . S
C688 N685 1.390 . S
C688 C689 1.346 . S
C688 H693 0.930 . S
C689 N686 1.336 . S
C689 C688 1.346 . S
C689 H696 0.929 . S
C690 O680 1.282 . S
C690 O691 1.216 . S
O691 C690 1.216 . S
H692 C687 0.930 . S
H693 C688 0.930 . S
O694 Cu674 1.959 . S
O694 C681 1.251 . S
H695 C678 0.930 . S
H696 C689 0.929 . S
Cu697 N698 1.999 . S
Cu697 O703 1.974 . S
Cu697 N708 1.985 . S
Cu697 O717 1.959 . S
N698 Cu697 1.999 . S
N698 C700 1.263 . S
N698 C702 1.389 . S
N699 C700 1.358 . S
N699 C701 1.400 . S
C700 N698 1.263 . S
C700 N699 1.358 . S
C700 H706 0.930 . S
C701 N699 1.400 . S
C701 C702 1.351 . S
C701 H718 0.930 . S
C702 N698 1.389 . S
C702 C701 1.351 . S
C702 H707 0.930 . S
O703 Cu697 1.974 . S
O703 C713 1.282 . S
C704 O705 1.261 . S
C704 O717 1.251 . S
O705 C704 1.261 . S
H706 C700 0.930 . S
H707 C702 0.930 . S
N708 Cu697 1.985 . S
N708 C710 1.335 . S
N708 C711 1.390 . S
N709 C710 1.345 . S
N709 C712 1.336 . S
C710 N708 1.335 . S
C710 N709 1.345 . S
C710 H715 0.930 . S
C711 N708 1.390 . S
C711 C712 1.346 . S
C711 H716 0.930 . S
C712 N709 1.336 . S
C712 C711 1.346 . S
C712 H719 0.929 . S
C713 O703 1.282 . S
C713 O714 1.216 . S
O714 C713 1.216 . S
H715 C710 0.930 . S
H716 C711 0.930 . S
O717 Cu697 1.959 . S
O717 C704 1.251 . S
H718 C701 0.930 . S
H719 C712 0.929 . S
Cu720 N721 1.999 . S
Cu720 O726 1.974 . S
Cu720 N731 1.985 . S
Cu720 O740 1.959 . S
N721 Cu720 1.999 . S
N721 C723 1.263 . S
N721 C725 1.389 . S
N722 C723 1.358 . S
N722 C724 1.400 . S
C723 N721 1.263 . S
C723 N722 1.358 . S
C723 H729 0.930 . S
C724 N722 1.400 . S
C724 C725 1.351 . S
C724 H741 0.930 . S
C725 N721 1.389 . S
C725 C724 1.351 . S
C725 H730 0.930 . S
O726 Cu720 1.974 . S
O726 C736 1.282 . S
C727 O728 1.261 . S
C727 O740 1.251 . S
O728 C727 1.261 . S
H729 C723 0.930 . S
H730 C725 0.930 . S
N731 Cu720 1.985 . S
N731 C733 1.335 . S
N731 C734 1.390 . S
N732 C733 1.345 . S
N732 C735 1.336 . S
C733 N731 1.335 . S
C733 N732 1.345 . S
C733 H738 0.930 . S
C734 N731 1.390 . S
C734 C735 1.346 . S
C734 H739 0.930 . S
C735 N732 1.336 . S
C735 C734 1.346 . S
C735 H742 0.929 . S
C736 O726 1.282 . S
C736 O737 1.216 . S
O737 C736 1.216 . S
H738 C733 0.930 . S
H739 C734 0.930 . S
O740 Cu720 1.959 . S
O740 C727 1.251 . S
H741 C724 0.930 . S
H742 C735 0.929 . S
Cu743 N744 1.999 . S
Cu743 O749 1.974 . S
Cu743 N754 1.985 . S
Cu743 O763 1.959 . S
N744 Cu743 1.999 . S
N744 C746 1.263 . S
N744 C748 1.389 . S
N745 C746 1.358 . S
N745 C747 1.400 . S
C746 N744 1.263 . S
C746 N745 1.358 . S
C746 H752 0.930 . S
C747 N745 1.400 . S
C747 C748 1.351 . S
C747 H764 0.930 . S
C748 N744 1.389 . S
C748 C747 1.351 . S
C748 H753 0.930 . S
O749 Cu743 1.974 . S
O749 C759 1.282 . S
C750 O751 1.261 . S
C750 O763 1.251 . S
O751 C750 1.261 . S
H752 C746 0.930 . S
H753 C748 0.930 . S
N754 Cu743 1.985 . S
N754 C756 1.335 . S
N754 C757 1.390 . S
N755 C756 1.345 . S
N755 C758 1.336 . S
C756 N754 1.335 . S
C756 N755 1.345 . S
C756 H761 0.930 . S
C757 N754 1.390 . S
C757 C758 1.346 . S
C757 H762 0.930 . S
C758 N755 1.336 . S
C758 C757 1.346 . S
C758 H765 0.929 . S
C759 O749 1.282 . S
C759 O760 1.216 . S
O760 C759 1.216 . S
H761 C756 0.930 . S
H762 C757 0.930 . S
O763 Cu743 1.959 . S
O763 C750 1.251 . S
H764 C747 0.930 . S
H765 C758 0.929 . S
Cu766 N767 1.999 . S
Cu766 O772 1.974 . S
Cu766 N777 1.985 . S
Cu766 O786 1.959 . S
N767 Cu766 1.999 . S
N767 C769 1.263 . S
N767 C771 1.389 . S
N768 C769 1.358 . S
N768 C770 1.400 . S
C769 N767 1.263 . S
C769 N768 1.358 . S
C769 H775 0.930 . S
C770 N768 1.400 . S
C770 C771 1.351 . S
C770 H787 0.930 . S
C771 N767 1.389 . S
C771 C770 1.351 . S
C771 H776 0.930 . S
O772 Cu766 1.974 . S
O772 C782 1.282 . S
C773 O774 1.261 . S
C773 O786 1.251 . S
O774 C773 1.261 . S
H775 C769 0.930 . S
H776 C771 0.930 . S
N777 Cu766 1.985 . S
N777 C779 1.335 . S
N777 C780 1.390 . S
N778 C779 1.345 . S
N778 C781 1.336 . S
C779 N777 1.335 . S
C779 N778 1.345 . S
C779 H784 0.930 . S
C780 N777 1.390 . S
C780 C781 1.346 . S
C780 H785 0.930 . S
C781 N778 1.336 . S
C781 C780 1.346 . S
C781 H788 0.929 . S
C782 O772 1.282 . S
C782 O783 1.216 . S
O783 C782 1.216 . S
H784 C779 0.930 . S
H785 C780 0.930 . S
O786 Cu766 1.959 . S
O786 C773 1.251 . S
H787 C770 0.930 . S
H788 C781 0.929 . S
Cu789 N790 1.999 . S
Cu789 O795 1.974 . S
Cu789 N800 1.985 . S
Cu789 O809 1.959 . S
N790 Cu789 1.999 . S
N790 C792 1.263 . S
N790 C794 1.389 . S
N791 C792 1.358 . S
N791 C793 1.400 . S
C792 N790 1.263 . S
C792 N791 1.358 . S
C792 H798 0.930 . S
C793 N791 1.400 . S
C793 C794 1.351 . S
C793 H810 0.930 . S
C794 N790 1.389 . S
C794 C793 1.351 . S
C794 H799 0.930 . S
O795 Cu789 1.974 . S
O795 C805 1.282 . S
C796 O797 1.261 . S
C796 O809 1.251 . S
O797 C796 1.261 . S
H798 C792 0.930 . S
H799 C794 0.930 . S
N800 Cu789 1.985 . S
N800 C802 1.335 . S
N800 C803 1.390 . S
N801 C802 1.345 . S
N801 C804 1.336 . S
C802 N800 1.335 . S
C802 N801 1.345 . S
C802 H807 0.930 . S
C803 N800 1.390 . S
C803 C804 1.346 . S
C803 H808 0.930 . S
C804 N801 1.336 . S
C804 C803 1.346 . S
C804 H811 0.929 . S
C805 O795 1.282 . S
C805 O806 1.216 . S
O806 C805 1.216 . S
H807 C802 0.930 . S
H808 C803 0.930 . S
O809 Cu789 1.959 . S
O809 C796 1.251 . S
H810 C793 0.930 . S
H811 C804 0.929 . S
Cu812 N813 1.999 . S
Cu812 O818 1.974 . S
Cu812 N823 1.985 . S
Cu812 O832 1.959 . S
N813 Cu812 1.999 . S
N813 C815 1.263 . S
N813 C817 1.389 . S
N814 C815 1.358 . S
N814 C816 1.400 . S
C815 N813 1.263 . S
C815 N814 1.358 . S
C815 H821 0.930 . S
C816 N814 1.400 . S
C816 C817 1.351 . S
C816 H833 0.930 . S
C817 N813 1.389 . S
C817 C816 1.351 . S
C817 H822 0.930 . S
O818 Cu812 1.974 . S
O818 C828 1.282 . S
C819 O820 1.261 . S
C819 O832 1.251 . S
O820 C819 1.261 . S
H821 C815 0.930 . S
H822 C817 0.930 . S
N823 Cu812 1.985 . S
N823 C825 1.335 . S
N823 C826 1.390 . S
N824 C825 1.345 . S
N824 C827 1.336 . S
C825 N823 1.335 . S
C825 N824 1.345 . S
C825 H830 0.930 . S
C826 N823 1.390 . S
C826 C827 1.346 . S
C826 H831 0.930 . S
C827 N824 1.336 . S
C827 C826 1.346 . S
C827 H834 0.929 . S
C828 O818 1.282 . S
C828 O829 1.216 . S
O829 C828 1.216 . S
H830 C825 0.930 . S
H831 C826 0.930 . S
O832 Cu812 1.959 . S
O832 C819 1.251 . S
H833 C816 0.930 . S
H834 C827 0.929 . S
Cu835 N836 1.999 . S
Cu835 O841 1.974 . S
Cu835 N846 1.985 . S
Cu835 O855 1.959 . S
N836 Cu835 1.999 . S
N836 C838 1.263 . S
N836 C840 1.389 . S
N837 C838 1.358 . S
N837 C839 1.400 . S
C838 N836 1.263 . S
C838 N837 1.358 . S
C838 H844 0.930 . S
C839 N837 1.400 . S
C839 C840 1.351 . S
C839 H856 0.930 . S
C840 N836 1.389 . S
C840 C839 1.351 . S
C840 H845 0.930 . S
O841 Cu835 1.974 . S
O841 C851 1.282 . S
C842 O843 1.261 . S
C842 O855 1.251 . S
O843 C842 1.261 . S
H844 C838 0.930 . S
H845 C840 0.930 . S
N846 Cu835 1.985 . S
N846 C848 1.335 . S
N846 C849 1.390 . S
N847 C848 1.345 . S
N847 C850 1.336 . S
C848 N846 1.335 . S
C848 N847 1.345 . S
C848 H853 0.930 . S
C849 N846 1.390 . S
C849 C850 1.346 . S
C849 H854 0.930 . S
C850 N847 1.336 . S
C850 C849 1.346 . S
C850 H857 0.929 . S
C851 O841 1.282 . S
C851 O852 1.216 . S
O852 C851 1.216 . S
H853 C848 0.930 . S
H854 C849 0.930 . S
O855 Cu835 1.959 . S
O855 C842 1.251 . S
H856 C839 0.930 . S
H857 C850 0.929 . S
Cu858 N859 1.999 . S
Cu858 O864 1.974 . S
Cu858 N869 1.985 . S
Cu858 O878 1.959 . S
N859 Cu858 1.999 . S
N859 C861 1.263 . S
N859 C863 1.389 . S
N860 C861 1.358 . S
N860 C862 1.400 . S
C861 N859 1.263 . S
C861 N860 1.358 . S
C861 H867 0.930 . S
C862 N860 1.400 . S
C862 C863 1.351 . S
C862 H879 0.930 . S
C863 N859 1.389 . S
C863 C862 1.351 . S
C863 H868 0.930 . S
O864 Cu858 1.974 . S
O864 C874 1.282 . S
C865 O866 1.261 . S
C865 O878 1.251 . S
O866 C865 1.261 . S
H867 C861 0.930 . S
H868 C863 0.930 . S
N869 Cu858 1.985 . S
N869 C871 1.335 . S
N869 C872 1.390 . S
N870 C871 1.345 . S
N870 C873 1.336 . S
C871 N869 1.335 . S
C871 N870 1.345 . S
C871 H876 0.930 . S
C872 N869 1.390 . S
C872 C873 1.346 . S
C872 H877 0.930 . S
C873 N870 1.336 . S
C873 C872 1.346 . S
C873 H880 0.929 . S
C874 O864 1.282 . S
C874 O875 1.216 . S
O875 C874 1.216 . S
H876 C871 0.930 . S
H877 C872 0.930 . S
O878 Cu858 1.959 . S
O878 C865 1.251 . S
H879 C862 0.930 . S
H880 C873 0.929 . S
Cu881 N882 1.999 . S
Cu881 O887 1.974 . S
Cu881 N892 1.985 . S
Cu881 O901 1.959 . S
N882 Cu881 1.999 . S
N882 C884 1.263 . S
N882 C886 1.389 . S
N883 C884 1.358 . S
N883 C885 1.400 . S
C884 N882 1.263 . S
C884 N883 1.358 . S
C884 H890 0.930 . S
C885 N883 1.400 . S
C885 C886 1.351 . S
C885 H902 0.930 . S
C886 N882 1.389 . S
C886 C885 1.351 . S
C886 H891 0.930 . S
O887 Cu881 1.974 . S
O887 C897 1.282 . S
C888 O889 1.261 . S
C888 O901 1.251 . S
O889 C888 1.261 . S
H890 C884 0.930 . S
H891 C886 0.930 . S
N892 Cu881 1.985 . S
N892 C894 1.335 . S
N892 C895 1.390 . S
N893 C894 1.345 . S
N893 C896 1.336 . S
C894 N892 1.335 . S
C894 N893 1.345 . S
C894 H899 0.930 . S
C895 N892 1.390 . S
C895 C896 1.346 . S
C895 H900 0.930 . S
C896 N893 1.336 . S
C896 C895 1.346 . S
C896 H903 0.929 . S
C897 O887 1.282 . S
C897 O898 1.216 . S
O898 C897 1.216 . S
H899 C894 0.930 . S
H900 C895 0.930 . S
O901 Cu881 1.959 . S
O901 C888 1.251 . S
H902 C885 0.930 . S
H903 C896 0.929 . S
C904 C905 1.387 . S
C904 H908 0.950 . S
C904 C913 1.390 . S
C905 C904 1.387 . S
C905 C907 1.387 . S
H906 C913 0.950 . S
C907 C905 1.387 . S
C907 C909 1.390 . S
C907 H911 0.950 . S
H908 C904 0.950 . S
C909 C907 1.390 . S
C909 C910 1.387 . S
C909 H912 0.950 . S
C910 C909 1.387 . S
C910 C913 1.387 . S
H911 C907 0.950 . S
H912 C909 0.950 . S
C913 C904 1.390 . S
C913 H906 0.950 . S
C913 C910 1.387 . S
C914 C915 1.387 . S
C914 H918 0.950 . S
C914 C923 1.390 . S
C915 C914 1.387 . S
C915 C917 1.387 . S
H916 C923 0.950 . S
C917 C915 1.387 . S
C917 C919 1.390 . S
C917 H921 0.950 . S
H918 C914 0.950 . S
C919 C917 1.390 . S
C919 C920 1.387 . S
C919 H922 0.950 . S
C920 C919 1.387 . S
C920 C923 1.387 . S
H921 C917 0.950 . S
H922 C919 0.950 . S
C923 C914 1.390 . S
C923 H916 0.950 . S
C923 C920 1.387 . S
C924 C925 1.387 . S
C924 H928 0.950 . S
C924 C933 1.390 . S
C925 C924 1.387 . S
C925 C927 1.387 . S
H926 C933 0.950 . S
C927 C925 1.387 . S
C927 C929 1.390 . S
C927 H931 0.950 . S
H928 C924 0.950 . S
C929 C927 1.390 . S
C929 C930 1.387 . S
C929 H932 0.950 . S
C930 C929 1.387 . S
C930 C933 1.387 . S
H931 C927 0.950 . S
H932 C929 0.950 . S
C933 C924 1.390 . S
C933 H926 0.950 . S
C933 C930 1.387 . S
C934 C935 1.387 . S
C934 H938 0.950 . S
C934 C943 1.390 . S
C935 C934 1.387 . S
C935 C937 1.387 . S
H936 C943 0.950 . S
C937 C935 1.387 . S
C937 C939 1.390 . S
C937 H941 0.950 . S
H938 C934 0.950 . S
C939 C937 1.390 . S
C939 C940 1.387 . S
C939 H942 0.950 . S
C940 C939 1.387 . S
C940 C943 1.387 . S
H941 C937 0.950 . S
H942 C939 0.950 . S
C943 C934 1.390 . S
C943 H936 0.950 . S
C943 C940 1.387 . S
C944 C945 1.387 . S
C944 H948 0.950 . S
C944 C953 1.390 . S
C945 C944 1.387 . S
C945 C947 1.387 . S
H946 C953 0.950 . S
C947 C945 1.387 . S
C947 C949 1.390 . S
C947 H951 0.950 . S
H948 C944 0.950 . S
C949 C947 1.390 . S
C949 C950 1.387 . S
C949 H952 0.950 . S
C950 C949 1.387 . S
C950 C953 1.387 . S
H951 C947 0.950 . S
H952 C949 0.950 . S
C953 C944 1.390 . S
C953 H946 0.950 . S
C953 C950 1.387 . S
C954 C955 1.387 . S
C954 H958 0.950 . S
C954 C963 1.390 . S
C955 C954 1.387 . S
C955 C957 1.387 . S
H956 C963 0.950 . S
C957 C955 1.387 . S
C957 C959 1.390 . S
C957 H961 0.950 . S
H958 C954 0.950 . S
C959 C957 1.390 . S
C959 C960 1.387 . S
C959 H962 0.950 . S
C960 C959 1.387 . S
C960 C963 1.387 . S
H961 C957 0.950 . S
H962 C959 0.950 . S
C963 C954 1.390 . S
C963 H956 0.950 . S
C963 C960 1.387 . S
C964 C965 1.387 . S
C964 H968 0.950 . S
C964 C973 1.390 . S
C965 C964 1.387 . S
C965 C967 1.387 . S
H966 C973 0.950 . S
C967 C965 1.387 . S
C967 C969 1.390 . S
C967 H971 0.950 . S
H968 C964 0.950 . S
C969 C967 1.390 . S
C969 C970 1.387 . S
C969 H972 0.950 . S
C970 C969 1.387 . S
C970 C973 1.387 . S
H971 C967 0.950 . S
H972 C969 0.950 . S
C973 C964 1.390 . S
C973 H966 0.950 . S
C973 C970 1.387 . S
C974 C975 1.387 . S
C974 H978 0.950 . S
C974 C983 1.390 . S
C975 C974 1.387 . S
C975 C977 1.387 . S
H976 C983 0.950 . S
C977 C975 1.387 . S
C977 C979 1.390 . S
C977 H981 0.950 . S
H978 C974 0.950 . S
C979 C977 1.390 . S
C979 C980 1.387 . S
C979 H982 0.950 . S
C980 C979 1.387 . S
C980 C983 1.387 . S
H981 C977 0.950 . S
H982 C979 0.950 . S
C983 C974 1.390 . S
C983 H976 0.950 . S
C983 C980 1.387 . S
C984 C985 1.387 . S
C984 H988 0.950 . S
C984 C993 1.390 . S
C985 C984 1.387 . S
C985 C987 1.387 . S
H986 C993 0.950 . S
C987 C985 1.387 . S
C987 C989 1.390 . S
C987 H991 0.950 . S
H988 C984 0.950 . S
C989 C987 1.390 . S
C989 C990 1.387 . S
C989 H992 0.950 . S
C990 C989 1.387 . S
C990 C993 1.387 . S
H991 C987 0.950 . S
H992 C989 0.950 . S
C993 C984 1.390 . S
C993 H986 0.950 . S
C993 C990 1.387 . S
C994 C995 1.387 . S
C994 H998 0.950 . S
C994 C1003 1.390 . S
C995 C994 1.387 . S
C995 C997 1.387 . S
H996 C1003 0.950 . S
C997 C995 1.387 . S
C997 C999 1.390 . S
C997 H1001 0.950 . S
H998 C994 0.950 . S
C999 C997 1.390 . S
C999 C1000 1.387 . S
C999 H1002 0.950 . S
C1000 C999 1.387 . S
C1000 C1003 1.387 . S
H1001 C997 0.950 . S
H1002 C999 0.950 . S
C1003 C994 1.390 . S
C1003 H996 0.950 . S
C1003 C1000 1.387 . S
C1004 C1005 1.387 . S
C1004 H1008 0.950 . S
C1004 C1013 1.390 . S
C1005 C1004 1.387 . S
C1005 C1007 1.387 . S
H1006 C1013 0.950 . S
C1007 C1005 1.387 . S
C1007 C1009 1.390 . S
C1007 H1011 0.950 . S
H1008 C1004 0.950 . S
C1009 C1007 1.390 . S
C1009 C1010 1.387 . S
C1009 H1012 0.950 . S
C1010 C1009 1.387 . S
C1010 C1013 1.387 . S
H1011 C1007 0.950 . S
H1012 C1009 0.950 . S
C1013 C1004 1.390 . S
C1013 H1006 0.950 . S
C1013 C1010 1.387 . S
C1014 C1015 1.387 . S
C1014 H1018 0.950 . S
C1014 C1023 1.390 . S
C1015 C1014 1.387 . S
C1015 C1017 1.387 . S
H1016 C1023 0.950 . S
C1017 C1015 1.387 . S
C1017 C1019 1.390 . S
C1017 H1021 0.950 . S
H1018 C1014 0.950 . S
C1019 C1017 1.390 . S
C1019 C1020 1.387 . S
C1019 H1022 0.950 . S
C1020 C1019 1.387 . S
C1020 C1023 1.387 . S
H1021 C1017 0.950 . S
H1022 C1019 0.950 . S
C1023 C1014 1.390 . S
C1023 H1016 0.950 . S
C1023 C1020 1.387 . S
C1024 C1025 1.387 . S
C1024 H1028 0.950 . S
C1024 C1033 1.390 . S
C1025 C1024 1.387 . S
C1025 C1027 1.387 . S
H1026 C1033 0.950 . S
C1027 C1025 1.387 . S
C1027 C1029 1.390 . S
C1027 H1031 0.950 . S
H1028 C1024 0.950 . S
C1029 C1027 1.390 . S
C1029 C1030 1.387 . S
C1029 H1032 0.950 . S
C1030 C1029 1.387 . S
C1030 C1033 1.387 . S
H1031 C1027 0.950 . S
H1032 C1029 0.950 . S
C1033 C1024 1.390 . S
C1033 H1026 0.950 . S
C1033 C1030 1.387 . S
C1034 C1035 1.387 . S
C1034 H1038 0.950 . S
C1034 C1043 1.390 . S
C1035 C1034 1.387 . S
C1035 C1037 1.387 . S
H1036 C1043 0.950 . S
C1037 C1035 1.387 . S
C1037 C1039 1.390 . S
C1037 H1041 0.950 . S
H1038 C1034 0.950 . S
C1039 C1037 1.390 . S
C1039 C1040 1.387 . S
C1039 H1042 0.950 . S
C1040 C1039 1.387 . S
C1040 C1043 1.387 . S
H1041 C1037 0.950 . S
H1042 C1039 0.950 . S
C1043 C1034 1.390 . S
C1043 H1036 0.950 . S
C1043 C1040 1.387 . S
C1044 C1045 1.387 . S
C1044 H1048 0.950 . S
C1044 C1053 1.390 . S
C1045 C1044 1.387 . S
C1045 C1047 1.387 . S
H1046 C1053 0.950 . S
C1047 C1045 1.387 . S
C1047 C1049 1.390 . S
C1047 H1051 0.950 . S
H1048 C1044 0.950 . S
C1049 C1047 1.390 . S
C1049 C1050 1.387 . S
C1049 H1052 0.950 . S
C1050 C1049 1.387 . S
C1050 C1053 1.387 . S
H1051 C1047 0.950 . S
H1052 C1049 0.950 . S
C1053 C1044 1.390 . S
C1053 H1046 0.950 . S
C1053 C1050 1.387 . S
C1054 C1055 1.387 . S
C1054 H1058 0.950 . S
C1054 C1063 1.390 . S
C1055 C1054 1.387 . S
C1055 C1057 1.387 . S
H1056 C1063 0.950 . S
C1057 C1055 1.387 . S
C1057 C1059 1.390 . S
C1057 H1061 0.950 . S
H1058 C1054 0.950 . S
C1059 C1057 1.390 . S
C1059 C1060 1.387 . S
C1059 H1062 0.950 . S
C1060 C1059 1.387 . S
C1060 C1063 1.387 . S
H1061 C1057 0.950 . S
H1062 C1059 0.950 . S
C1063 C1054 1.390 . S
C1063 H1056 0.950 . S
C1063 C1060 1.387 . S
C1064 C1065 1.387 . S
C1064 H1068 0.950 . S
C1064 C1073 1.390 . S
C1065 C1064 1.387 . S
C1065 C1067 1.387 . S
H1066 C1073 0.950 . S
C1067 C1065 1.387 . S
C1067 C1069 1.390 . S
C1067 H1071 0.950 . S
H1068 C1064 0.950 . S
C1069 C1067 1.390 . S
C1069 C1070 1.387 . S
C1069 H1072 0.950 . S
C1070 C1069 1.387 . S
C1070 C1073 1.387 . S
H1071 C1067 0.950 . S
H1072 C1069 0.950 . S
C1073 C1064 1.390 . S
C1073 H1066 0.950 . S
C1073 C1070 1.387 . S
C1074 C1075 1.387 . S
C1074 H1078 0.950 . S
C1074 C1083 1.390 . S
C1075 C1074 1.387 . S
C1075 C1077 1.387 . S
H1076 C1083 0.950 . S
C1077 C1075 1.387 . S
C1077 C1079 1.390 . S
C1077 H1081 0.950 . S
H1078 C1074 0.950 . S
C1079 C1077 1.390 . S
C1079 C1080 1.387 . S
C1079 H1082 0.950 . S
C1080 C1079 1.387 . S
C1080 C1083 1.387 . S
H1081 C1077 0.950 . S
H1082 C1079 0.950 . S
C1083 C1074 1.390 . S
C1083 H1076 0.950 . S
C1083 C1080 1.387 . S
C1084 C1085 1.387 . S
C1084 H1088 0.950 . S
C1084 C1093 1.390 . S
C1085 C1084 1.387 . S
C1085 C1087 1.387 . S
H1086 C1093 0.950 . S
C1087 C1085 1.387 . S
C1087 C1089 1.390 . S
C1087 H1091 0.950 . S
H1088 C1084 0.950 . S
C1089 C1087 1.390 . S
C1089 C1090 1.387 . S
C1089 H1092 0.950 . S
C1090 C1089 1.387 . S
C1090 C1093 1.387 . S
H1091 C1087 0.950 . S
H1092 C1089 0.950 . S
C1093 C1084 1.390 . S
C1093 H1086 0.950 . S
C1093 C1090 1.387 . S
C1094 C1095 1.387 . S
C1094 H1098 0.950 . S
C1094 C1103 1.390 . S
C1095 C1094 1.387 . S
C1095 C1097 1.387 . S
H1096 C1103 0.950 . S
C1097 C1095 1.387 . S
C1097 C1099 1.390 . S
C1097 H1101 0.950 . S
H1098 C1094 0.950 . S
C1099 C1097 1.390 . S
C1099 C1100 1.387 . S
C1099 H1102 0.950 . S
C1100 C1099 1.387 . S
C1100 C1103 1.387 . S
H1101 C1097 0.950 . S
H1102 C1099 0.950 . S
C1103 C1094 1.390 . S
C1103 H1096 0.950 . S
C1103 C1100 1.387 . S
C1104 C1105 1.387 . S
C1104 H1108 0.950 . S
C1104 C1113 1.390 . S
C1105 C1104 1.387 . S
C1105 C1107 1.387 . S
H1106 C1113 0.950 . S
C1107 C1105 1.387 . S
C1107 C1109 1.390 . S
C1107 H1111 0.950 . S
H1108 C1104 0.950 . S
C1109 C1107 1.390 . S
C1109 C1110 1.387 . S
C1109 H1112 0.950 . S
C1110 C1109 1.387 . S
C1110 C1113 1.387 . S
H1111 C1107 0.950 . S
H1112 C1109 0.950 . S
C1113 C1104 1.390 . S
C1113 H1106 0.950 . S
C1113 C1110 1.387 . S
C1114 C1115 1.387 . S
C1114 H1118 0.950 . S
C1114 C1123 1.390 . S
C1115 C1114 1.387 . S
C1115 C1117 1.387 . S
H1116 C1123 0.950 . S
C1117 C1115 1.387 . S
C1117 C1119 1.390 . S
C1117 H1121 0.950 . S
H1118 C1114 0.950 . S
C1119 C1117 1.390 . S
C1119 C1120 1.387 . S
C1119 H1122 0.950 . S
C1120 C1119 1.387 . S
C1120 C1123 1.387 . S
H1121 C1117 0.950 . S
H1122 C1119 0.950 . S
C1123 C1114 1.390 . S
C1123 H1116 0.950 . S
C1123 C1120 1.387 . S
C1124 C1125 1.387 . S
C1124 H1128 0.950 . S
C1124 C1133 1.390 . S
C1125 C1124 1.387 . S
C1125 C1127 1.387 . S
H1126 C1133 0.950 . S
C1127 C1125 1.387 . S
C1127 C1129 1.390 . S
C1127 H1131 0.950 . S
H1128 C1124 0.950 . S
C1129 C1127 1.390 . S
C1129 C1130 1.387 . S
C1129 H1132 0.950 . S
C1130 C1129 1.387 . S
C1130 C1133 1.387 . S
H1131 C1127 0.950 . S
H1132 C1129 0.950 . S
C1133 C1124 1.390 . S
C1133 H1126 0.950 . S
C1133 C1130 1.387 . S
C1134 C1135 1.387 . S
C1134 H1138 0.950 . S
C1134 C1143 1.390 . S
C1135 C1134 1.387 . S
C1135 C1137 1.387 . S
H1136 C1143 0.950 . S
C1137 C1135 1.387 . S
C1137 C1139 1.390 . S
C1137 H1141 0.950 . S
H1138 C1134 0.950 . S
C1139 C1137 1.390 . S
C1139 C1140 1.387 . S
C1139 H1142 0.950 . S
C1140 C1139 1.387 . S
C1140 C1143 1.387 . S
H1141 C1137 0.950 . S
H1142 C1139 0.950 . S
C1143 C1134 1.390 . S
C1143 H1136 0.950 . S
C1143 C1140 1.387 . S
C1144 C1145 1.387 . S
C1144 H1148 0.950 . S
C1144 C1153 1.390 . S
C1145 C1144 1.387 . S
C1145 C1147 1.387 . S
H1146 C1153 0.950 . S
C1147 C1145 1.387 . S
C1147 C1149 1.390 . S
C1147 H1151 0.950 . S
H1148 C1144 0.950 . S
C1149 C1147 1.390 . S
C1149 C1150 1.387 . S
C1149 H1152 0.950 . S
C1150 C1149 1.387 . S
C1150 C1153 1.387 . S
H1151 C1147 0.950 . S
H1152 C1149 0.950 . S
C1153 C1144 1.390 . S
C1153 H1146 0.950 . S
C1153 C1150 1.387 . S
C1154 C1155 1.387 . S
C1154 H1158 0.950 . S
C1154 C1163 1.390 . S
C1155 C1154 1.387 . S
C1155 C1157 1.387 . S
H1156 C1163 0.950 . S
C1157 C1155 1.387 . S
C1157 C1159 1.390 . S
C1157 H1161 0.950 . S
H1158 C1154 0.950 . S
C1159 C1157 1.390 . S
C1159 C1160 1.387 . S
C1159 H1162 0.950 . S
C1160 C1159 1.387 . S
C1160 C1163 1.387 . S
H1161 C1157 0.950 . S
H1162 C1159 0.950 . S
C1163 C1154 1.390 . S
C1163 H1156 0.950 . S
C1163 C1160 1.387 . S
C1164 C1165 1.387 . S
C1164 H1168 0.950 . S
C1164 C1173 1.390 . S
C1165 C1164 1.387 . S
C1165 C1167 1.387 . S
H1166 C1173 0.950 . S
C1167 C1165 1.387 . S
C1167 C1169 1.390 . S
C1167 H1171 0.950 . S
H1168 C1164 0.950 . S
C1169 C1167 1.390 . S
C1169 C1170 1.387 . S
C1169 H1172 0.950 . S
C1170 C1169 1.387 . S
C1170 C1173 1.387 . S
H1171 C1167 0.950 . S
H1172 C1169 0.950 . S
C1173 C1164 1.390 . S
C1173 H1166 0.950 . S
C1173 C1170 1.387 . S
C1174 C1175 1.387 . S
C1174 H1178 0.950 . S
C1174 C1183 1.390 . S
C1175 C1174 1.387 . S
C1175 C1177 1.387 . S
H1176 C1183 0.950 . S
C1177 C1175 1.387 . S
C1177 C1179 1.390 . S
C1177 H1181 0.950 . S
H1178 C1174 0.950 . S
C1179 C1177 1.390 . S
C1179 C1180 1.387 . S
C1179 H1182 0.950 . S
C1180 C1179 1.387 . S
C1180 C1183 1.387 . S
H1181 C1177 0.950 . S
H1182 C1179 0.950 . S
C1183 C1174 1.390 . S
C1183 H1176 0.950 . S
C1183 C1180 1.387 . S
C1184 C1185 1.387 . S
C1184 H1188 0.950 . S
C1184 C1193 1.390 . S
C1185 C1184 1.387 . S
C1185 C1187 1.387 . S
H1186 C1193 0.950 . S
C1187 C1185 1.387 . S
C1187 C1189 1.390 . S
C1187 H1191 0.950 . S
H1188 C1184 0.950 . S
C1189 C1187 1.390 . S
C1189 C1190 1.387 . S
C1189 H1192 0.950 . S
C1190 C1189 1.387 . S
C1190 C1193 1.387 . S
H1191 C1187 0.950 . S
H1192 C1189 0.950 . S
C1193 C1184 1.390 . S
C1193 H1186 0.950 . S
C1193 C1190 1.387 . S
C1194 C1195 1.387 . S
C1194 H1198 0.950 . S
C1194 C1203 1.390 . S
C1195 C1194 1.387 . S
C1195 C1197 1.387 . S
H1196 C1203 0.950 . S
C1197 C1195 1.387 . S
C1197 C1199 1.390 . S
C1197 H1201 0.950 . S
H1198 C1194 0.950 . S
C1199 C1197 1.390 . S
C1199 C1200 1.387 . S
C1199 H1202 0.950 . S
C1200 C1199 1.387 . S
C1200 C1203 1.387 . S
H1201 C1197 0.950 . S
H1202 C1199 0.950 . S
C1203 C1194 1.390 . S
C1203 H1196 0.950 . S
C1203 C1200 1.387 . S
C1204 C1205 1.387 . S
C1204 H1208 0.950 . S
C1204 C1213 1.390 . S
C1205 C1204 1.387 . S
C1205 C1207 1.387 . S
H1206 C1213 0.950 . S
C1207 C1205 1.387 . S
C1207 C1209 1.390 . S
C1207 H1211 0.950 . S
H1208 C1204 0.950 . S
C1209 C1207 1.390 . S
C1209 C1210 1.387 . S
C1209 H1212 0.950 . S
C1210 C1209 1.387 . S
C1210 C1213 1.387 . S
H1211 C1207 0.950 . S
H1212 C1209 0.950 . S
C1213 C1204 1.390 . S
C1213 H1206 0.950 . S
C1213 C1210 1.387 . S
C1214 C1215 1.387 . S
C1214 H1218 0.950 . S
C1214 C1223 1.390 . S
C1215 C1214 1.387 . S
C1215 C1217 1.387 . S
H1216 C1223 0.950 . S
C1217 C1215 1.387 . S
C1217 C1219 1.390 . S
C1217 H1221 0.950 . S
H1218 C1214 0.950 . S
C1219 C1217 1.390 . S
C1219 C1220 1.387 . S
C1219 H1222 0.950 . S
C1220 C1219 1.387 . S
C1220 C1223 1.387 . S
H1221 C1217 0.950 . S
H1222 C1219 0.950 . S
C1223 C1214 1.390 . S
C1223 H1216 0.950 . S
C1223 C1220 1.387 . S
C1224 C1225 1.387 . S
C1224 H1228 0.950 . S
C1224 C1233 1.390 . S
C1225 C1224 1.387 . S
C1225 C1227 1.387 . S
H1226 C1233 0.950 . S
C1227 C1225 1.387 . S
C1227 C1229 1.390 . S
C1227 H1231 0.950 . S
H1228 C1224 0.950 . S
C1229 C1227 1.390 . S
C1229 C1230 1.387 . S
C1229 H1232 0.950 . S
C1230 C1229 1.387 . S
C1230 C1233 1.387 . S
H1231 C1227 0.950 . S
H1232 C1229 0.950 . S
C1233 C1224 1.390 . S
C1233 H1226 0.950 . S
C1233 C1230 1.387 . S
C1234 C1235 1.387 . S
C1234 H1238 0.950 . S
C1234 C1243 1.390 . S
C1235 C1234 1.387 . S
C1235 C1237 1.387 . S
H1236 C1243 0.950 . S
C1237 C1235 1.387 . S
C1237 C1239 1.390 . S
C1237 H1241 0.950 . S
H1238 C1234 0.950 . S
C1239 C1237 1.390 . S
C1239 C1240 1.387 . S
C1239 H1242 0.950 . S
C1240 C1239 1.387 . S
C1240 C1243 1.387 . S
H1241 C1237 0.950 . S
H1242 C1239 0.950 . S
C1243 C1234 1.390 . S
C1243 H1236 0.950 . S
C1243 C1240 1.387 . S
C1244 C1245 1.387 . S
C1244 H1248 0.950 . S
C1244 C1253 1.390 . S
C1245 C1244 1.387 . S
C1245 C1247 1.387 . S
H1246 C1253 0.950 . S
C1247 C1245 1.387 . S
C1247 C1249 1.390 . S
C1247 H1251 0.950 . S
H1248 C1244 0.950 . S
C1249 C1247 1.390 . S
C1249 C1250 1.387 . S
C1249 H1252 0.950 . S
C1250 C1249 1.387 . S
C1250 C1253 1.387 . S
H1251 C1247 0.950 . S
H1252 C1249 0.950 . S
C1253 C1244 1.390 . S
C1253 H1246 0.950 . S
C1253 C1250 1.387 . S
C1254 C1255 1.387 . S
C1254 H1258 0.950 . S
C1254 C1263 1.390 . S
C1255 C1254 1.387 . S
C1255 C1257 1.387 . S
H1256 C1263 0.950 . S
C1257 C1255 1.387 . S
C1257 C1259 1.390 . S
C1257 H1261 0.950 . S
H1258 C1254 0.950 . S
C1259 C1257 1.390 . S
C1259 C1260 1.387 . S
C1259 H1262 0.950 . S
C1260 C1259 1.387 . S
C1260 C1263 1.387 . S
H1261 C1257 0.950 . S
H1262 C1259 0.950 . S
C1263 C1254 1.390 . S
C1263 H1256 0.950 . S
C1263 C1260 1.387 . S
C1264 C1265 1.387 . S
C1264 H1268 0.950 . S
C1264 C1273 1.390 . S
C1265 C1264 1.387 . S
C1265 C1267 1.387 . S
H1266 C1273 0.950 . S
C1267 C1265 1.387 . S
C1267 C1269 1.390 . S
C1267 H1271 0.950 . S
H1268 C1264 0.950 . S
C1269 C1267 1.390 . S
C1269 C1270 1.387 . S
C1269 H1272 0.950 . S
C1270 C1269 1.387 . S
C1270 C1273 1.387 . S
H1271 C1267 0.950 . S
H1272 C1269 0.950 . S
C1273 C1264 1.390 . S
C1273 H1266 0.950 . S
C1273 C1270 1.387 . S
C1274 C1275 1.387 . S
C1274 H1278 0.950 . S
C1274 C1283 1.390 . S
C1275 C1274 1.387 . S
C1275 C1277 1.387 . S
H1276 C1283 0.950 . S
C1277 C1275 1.387 . S
C1277 C1279 1.390 . S
C1277 H1281 0.950 . S
H1278 C1274 0.950 . S
C1279 C1277 1.390 . S
C1279 C1280 1.387 . S
C1279 H1282 0.950 . S
C1280 C1279 1.387 . S
C1280 C1283 1.387 . S
H1281 C1277 0.950 . S
H1282 C1279 0.950 . S
C1283 C1274 1.390 . S
C1283 H1276 0.950 . S
C1283 C1280 1.387 . S
C1284 C1285 1.387 . S
C1284 H1288 0.950 . S
C1284 C1293 1.390 . S
C1285 C1284 1.387 . S
C1285 C1287 1.387 . S
H1286 C1293 0.950 . S
C1287 C1285 1.387 . S
C1287 C1289 1.390 . S
C1287 H1291 0.950 . S
H1288 C1284 0.950 . S
C1289 C1287 1.390 . S
C1289 C1290 1.387 . S
C1289 H1292 0.950 . S
C1290 C1289 1.387 . S
C1290 C1293 1.387 . S
H1291 C1287 0.950 . S
H1292 C1289 0.950 . S
C1293 C1284 1.390 . S
C1293 H1286 0.950 . S
C1293 C1290 1.387 . S
C1294 C1295 1.387 . S
C1294 H1298 0.950 . S
C1294 C1303 1.390 . S
C1295 C1294 1.387 . S
C1295 C1297 1.387 . S
H1296 C1303 0.950 . S
C1297 C1295 1.387 . S
C1297 C1299 1.390 . S
C1297 H1301 0.950 . S
H1298 C1294 0.950 . S
C1299 C1297 1.390 . S
C1299 C1300 1.387 . S
C1299 H1302 0.950 . S
C1300 C1299 1.387 . S
C1300 C1303 1.387 . S
H1301 C1297 0.950 . S
H1302 C1299 0.950 . S
C1303 C1294 1.390 . S
C1303 H1296 0.950 . S
C1303 C1300 1.387 . S
C1304 C1305 1.387 . S
C1304 H1308 0.950 . S
C1304 C1313 1.390 . S
C1305 C1304 1.387 . S
C1305 C1307 1.387 . S
H1306 C1313 0.950 . S
C1307 C1305 1.387 . S
C1307 C1309 1.390 . S
C1307 H1311 0.950 . S
H1308 C1304 0.950 . S
C1309 C1307 1.390 . S
C1309 C1310 1.387 . S
C1309 H1312 0.950 . S
C1310 C1309 1.387 . S
C1310 C1313 1.387 . S
H1311 C1307 0.950 . S
H1312 C1309 0.950 . S
C1313 C1304 1.390 . S
C1313 H1306 0.950 . S
C1313 C1310 1.387 . S
C1314 C1315 1.387 . S
C1314 H1318 0.950 . S
C1314 C1323 1.390 . S
C1315 C1314 1.387 . S
C1315 C1317 1.387 . S
H1316 C1323 0.950 . S
C1317 C1315 1.387 . S
C1317 C1319 1.390 . S
C1317 H1321 0.950 . S
H1318 C1314 0.950 . S
C1319 C1317 1.390 . S
C1319 C1320 1.387 . S
C1319 H1322 0.950 . S
C1320 C1319 1.387 . S
C1320 C1323 1.387 . S
H1321 C1317 0.950 . S
H1322 C1319 0.950 . S
C1323 C1314 1.390 . S
C1323 H1316 0.950 . S
C1323 C1320 1.387 . S
C1324 C1325 1.387 . S
C1324 H1328 0.950 . S
C1324 C1333 1.390 . S
C1325 C1324 1.387 . S
C1325 C1327 1.387 . S
H1326 C1333 0.950 . S
C1327 C1325 1.387 . S
C1327 C1329 1.390 . S
C1327 H1331 0.950 . S
H1328 C1324 0.950 . S
C1329 C1327 1.390 . S
C1329 C1330 1.387 . S
C1329 H1332 0.950 . S
C1330 C1329 1.387 . S
C1330 C1333 1.387 . S
H1331 C1327 0.950 . S
H1332 C1329 0.950 . S
C1333 C1324 1.390 . S
C1333 H1326 0.950 . S
C1333 C1330 1.387 . S
C1334 C1335 1.387 . S
C1334 H1338 0.950 . S
C1334 C1343 1.390 . S
C1335 C1334 1.387 . S
C1335 C1337 1.387 . S
H1336 C1343 0.950 . S
C1337 C1335 1.387 . S
C1337 C1339 1.390 . S
C1337 H1341 0.950 . S
H1338 C1334 0.950 . S
C1339 C1337 1.390 . S
C1339 C1340 1.387 . S
C1339 H1342 0.950 . S
C1340 C1339 1.387 . S
C1340 C1343 1.387 . S
H1341 C1337 0.950 . S
H1342 C1339 0.950 . S
C1343 C1334 1.390 . S
C1343 H1336 0.950 . S
C1343 C1340 1.387 . S
C1344 C1345 1.387 . S
C1344 H1348 0.950 . S
C1344 C1353 1.390 . S
C1345 C1344 1.387 . S
C1345 C1347 1.387 . S
H1346 C1353 0.950 . S
C1347 C1345 1.387 . S
C1347 C1349 1.390 . S
C1347 H1351 0.950 . S
H1348 C1344 0.950 . S
C1349 C1347 1.390 . S
C1349 C1350 1.387 . S
C1349 H1352 0.950 . S
C1350 C1349 1.387 . S
C1350 C1353 1.387 . S
H1351 C1347 0.950 . S
H1352 C1349 0.950 . S
C1353 C1344 1.390 . S
C1353 H1346 0.950 . S
C1353 C1350 1.387 . S
C1354 C1355 1.387 . S
C1354 H1358 0.950 . S
C1354 C1363 1.390 . S
C1355 C1354 1.387 . S
C1355 C1357 1.387 . S
H1356 C1363 0.950 . S
C1357 C1355 1.387 . S
C1357 C1359 1.390 . S
C1357 H1361 0.950 . S
H1358 C1354 0.950 . S
C1359 C1357 1.390 . S
C1359 C1360 1.387 . S
C1359 H1362 0.950 . S
C1360 C1359 1.387 . S
C1360 C1363 1.387 . S
H1361 C1357 0.950 . S
H1362 C1359 0.950 . S
C1363 C1354 1.390 . S
C1363 H1356 0.950 . S
C1363 C1360 1.387 . S
C1364 C1365 1.387 . S
C1364 H1368 0.950 . S
C1364 C1373 1.390 . S
C1365 C1364 1.387 . S
C1365 C1367 1.387 . S
H1366 C1373 0.950 . S
C1367 C1365 1.387 . S
C1367 C1369 1.390 . S
C1367 H1371 0.950 . S
H1368 C1364 0.950 . S
C1369 C1367 1.390 . S
C1369 C1370 1.387 . S
C1369 H1372 0.950 . S
C1370 C1369 1.387 . S
C1370 C1373 1.387 . S
H1371 C1367 0.950 . S
H1372 C1369 0.950 . S
C1373 C1364 1.390 . S
C1373 H1366 0.950 . S
C1373 C1370 1.387 . S
C1374 C1375 1.387 . S
C1374 H1378 0.950 . S
C1374 C1383 1.390 . S
C1375 C1374 1.387 . S
C1375 C1377 1.387 . S
H1376 C1383 0.950 . S
C1377 C1375 1.387 . S
C1377 C1379 1.390 . S
C1377 H1381 0.950 . S
H1378 C1374 0.950 . S
C1379 C1377 1.390 . S
C1379 C1380 1.387 . S
C1379 H1382 0.950 . S
C1380 C1379 1.387 . S
C1380 C1383 1.387 . S
H1381 C1377 0.950 . S
H1382 C1379 0.950 . S
C1383 C1374 1.390 . S
C1383 H1376 0.950 . S
C1383 C1380 1.387 . S
C1384 C1385 1.387 . S
C1384 H1388 0.950 . S
C1384 C1393 1.390 . S
C1385 C1384 1.387 . S
C1385 C1387 1.387 . S
H1386 C1393 0.950 . S
C1387 C1385 1.387 . S
C1387 C1389 1.390 . S
C1387 H1391 0.950 . S
H1388 C1384 0.950 . S
C1389 C1387 1.390 . S
C1389 C1390 1.387 . S
C1389 H1392 0.950 . S
C1390 C1389 1.387 . S
C1390 C1393 1.387 . S
H1391 C1387 0.950 . S
H1392 C1389 0.950 . S
C1393 C1384 1.390 . S
C1393 H1386 0.950 . S
C1393 C1390 1.387 . S
C1394 C1395 1.387 . S
C1394 H1398 0.950 . S
C1394 C1403 1.390 . S
C1395 C1394 1.387 . S
C1395 C1397 1.387 . S
H1396 C1403 0.950 . S
C1397 C1395 1.387 . S
C1397 C1399 1.390 . S
C1397 H1401 0.950 . S
H1398 C1394 0.950 . S
C1399 C1397 1.390 . S
C1399 C1400 1.387 . S
C1399 H1402 0.950 . S
C1400 C1399 1.387 . S
C1400 C1403 1.387 . S
H1401 C1397 0.950 . S
H1402 C1399 0.950 . S
C1403 C1394 1.390 . S
C1403 H1396 0.950 . S
C1403 C1400 1.387 . S
C1404 C1405 1.387 . S
C1404 H1408 0.950 . S
C1404 C1413 1.390 . S
C1405 C1404 1.387 . S
C1405 C1407 1.387 . S
H1406 C1413 0.950 . S
C1407 C1405 1.387 . S
C1407 C1409 1.390 . S
C1407 H1411 0.950 . S
H1408 C1404 0.950 . S
C1409 C1407 1.390 . S
C1409 C1410 1.387 . S
C1409 H1412 0.950 . S
C1410 C1409 1.387 . S
C1410 C1413 1.387 . S
H1411 C1407 0.950 . S
H1412 C1409 0.950 . S
C1413 C1404 1.390 . S
C1413 H1406 0.950 . S
C1413 C1410 1.387 . S
C1414 C1415 1.387 . S
C1414 H1418 0.950 . S
C1414 C1423 1.390 . S
C1415 C1414 1.387 . S
C1415 C1417 1.387 . S
H1416 C1423 0.950 . S
C1417 C1415 1.387 . S
C1417 C1419 1.390 . S
C1417 H1421 0.950 . S
H1418 C1414 0.950 . S
C1419 C1417 1.390 . S
C1419 C1420 1.387 . S
C1419 H1422 0.950 . S
C1420 C1419 1.387 . S
C1420 C1423 1.387 . S
H1421 C1417 0.950 . S
H1422 C1419 0.950 . S
C1423 C1414 1.390 . S
C1423 H1416 0.950 . S
C1423 C1420 1.387 . S
C1424 C1425 1.387 . S
C1424 H1428 0.950 . S
C1424 C1433 1.390 . S
C1425 C1424 1.387 . S
C1425 C1427 1.387 . S
H1426 C1433 0.950 . S
C1427 C1425 1.387 . S
C1427 C1429 1.390 . S
C1427 H1431 0.950 . S
H1428 C1424 0.950 . S
C1429 C1427 1.390 . S
C1429 C1430 1.387 . S
C1429 H1432 0.950 . S
C1430 C1429 1.387 . S
C1430 C1433 1.387 . S
H1431 C1427 0.950 . S
H1432 C1429 0.950 . S
C1433 C1424 1.390 . S
C1433 H1426 0.950 . S
C1433 C1430 1.387 . S
C1434 C1435 1.387 . S
C1434 H1438 0.950 . S
C1434 C1443 1.390 . S
C1435 C1434 1.387 . S
C1435 C1437 1.387 . S
H1436 C1443 0.950 . S
C1437 C1435 1.387 . S
C1437 C1439 1.390 . S
C1437 H1441 0.950 . S
H1438 C1434 0.950 . S
C1439 C1437 1.390 . S
C1439 C1440 1.387 . S
C1439 H1442 0.950 . S
C1440 C1439 1.387 . S
C1440 C1443 1.387 . S
H1441 C1437 0.950 . S
H1442 C1439 0.950 . S
C1443 C1434 1.390 . S
C1443 H1436 0.950 . S
C1443 C1440 1.387 . S
C1444 C1445 1.387 . S
C1444 H1448 0.950 . S
C1444 C1453 1.390 . S
C1445 C1444 1.387 . S
C1445 C1447 1.387 . S
H1446 C1453 0.950 . S
C1447 C1445 1.387 . S
C1447 C1449 1.390 . S
C1447 H1451 0.950 . S
H1448 C1444 0.950 . S
C1449 C1447 1.390 . S
C1449 C1450 1.387 . S
C1449 H1452 0.950 . S
C1450 C1449 1.387 . S
C1450 C1453 1.387 . S
H1451 C1447 0.950 . S
H1452 C1449 0.950 . S
C1453 C1444 1.390 . S
C1453 H1446 0.950 . S
C1453 C1450 1.387 . S
C1454 C1455 1.387 . S
C1454 H1458 0.950 . S
C1454 C1463 1.390 . S
C1455 C1454 1.387 . S
C1455 C1457 1.387 . S
H1456 C1463 0.950 . S
C1457 C1455 1.387 . S
C1457 C1459 1.390 . S
C1457 H1461 0.950 . S
H1458 C1454 0.950 . S
C1459 C1457 1.390 . S
C1459 C1460 1.387 . S
C1459 H1462 0.950 . S
C1460 C1459 1.387 . S
C1460 C1463 1.387 . S
H1461 C1457 0.950 . S
H1462 C1459 0.950 . S
C1463 C1454 1.390 . S
C1463 H1456 0.950 . S
C1463 C1460 1.387 . S
C1464 C1465 1.387 . S
C1464 H1468 0.950 . S
C1464 C1473 1.390 . S
C1465 C1464 1.387 . S
C1465 C1467 1.387 . S
H1466 C1473 0.950 . S
C1467 C1465 1.387 . S
C1467 C1469 1.390 . S
C1467 H1471 0.950 . S
H1468 C1464 0.950 . S
C1469 C1467 1.390 . S
C1469 C1470 1.387 . S
C1469 H1472 0.950 . S
C1470 C1469 1.387 . S
C1470 C1473 1.387 . S
H1471 C1467 0.950 . S
H1472 C1469 0.950 . S
C1473 C1464 1.390 . S
C1473 H1466 0.950 . S
C1473 C1470 1.387 . S
C1474 C1475 1.387 . S
C1474 H1478 0.950 . S
C1474 C1483 1.390 . S
C1475 C1474 1.387 . S
C1475 C1477 1.387 . S
H1476 C1483 0.950 . S
C1477 C1475 1.387 . S
C1477 C1479 1.390 . S
C1477 H1481 0.950 . S
H1478 C1474 0.950 . S
C1479 C1477 1.390 . S
C1479 C1480 1.387 . S
C1479 H1482 0.950 . S
C1480 C1479 1.387 . S
C1480 C1483 1.387 . S
H1481 C1477 0.950 . S
H1482 C1479 0.950 . S
C1483 C1474 1.390 . S
C1483 H1476 0.950 . S
C1483 C1480 1.387 . S
C1484 C1485 1.387 . S
C1484 H1488 0.950 . S
C1484 C1493 1.390 . S
C1485 C1484 1.387 . S
C1485 C1487 1.387 . S
H1486 C1493 0.950 . S
C1487 C1485 1.387 . S
C1487 C1489 1.390 . S
C1487 H1491 0.950 . S
H1488 C1484 0.950 . S
C1489 C1487 1.390 . S
C1489 C1490 1.387 . S
C1489 H1492 0.950 . S
C1490 C1489 1.387 . S
C1490 C1493 1.387 . S
H1491 C1487 0.950 . S
H1492 C1489 0.950 . S
C1493 C1484 1.390 . S
C1493 H1486 0.950 . S
C1493 C1490 1.387 . S
C1494 C1495 1.387 . S
C1494 H1498 0.950 . S
C1494 C1503 1.390 . S
C1495 C1494 1.387 . S
C1495 C1497 1.387 . S
H1496 C1503 0.950 . S
C1497 C1495 1.387 . S
C1497 C1499 1.390 . S
C1497 H1501 0.950 . S
H1498 C1494 0.950 . S
C1499 C1497 1.390 . S
C1499 C1500 1.387 . S
C1499 H1502 0.950 . S
C1500 C1499 1.387 . S
C1500 C1503 1.387 . S
H1501 C1497 0.950 . S
H1502 C1499 0.950 . S
C1503 C1494 1.390 . S
C1503 H1496 0.950 . S
C1503 C1500 1.387 . S
C1504 C1505 1.387 . S
C1504 H1508 0.950 . S
C1504 C1513 1.390 . S
C1505 C1504 1.387 . S
C1505 C1507 1.387 . S
H1506 C1513 0.950 . S
C1507 C1505 1.387 . S
C1507 C1509 1.390 . S
C1507 H1511 0.950 . S
H1508 C1504 0.950 . S
C1509 C1507 1.390 . S
C1509 C1510 1.387 . S
C1509 H1512 0.950 . S
C1510 C1509 1.387 . S
C1510 C1513 1.387 . S
H1511 C1507 0.950 . S
H1512 C1509 0.950 . S
C1513 C1504 1.390 . S
C1513 H1506 0.950 . S
C1513 C1510 1.387 . S
C1514 C1515 1.387 . S
C1514 H1518 0.950 . S
C1514 C1523 1.390 . S
C1515 C1514 1.387 . S
C1515 C1517 1.387 . S
H1516 C1523 0.950 . S
C1517 C1515 1.387 . S
C1517 C1519 1.390 . S
C1517 H1521 0.950 . S
H1518 C1514 0.950 . S
C1519 C1517 1.390 . S
C1519 C1520 1.387 . S
C1519 H1522 0.950 . S
C1520 C1519 1.387 . S
C1520 C1523 1.387 . S
H1521 C1517 0.950 . S
H1522 C1519 0.950 . S
C1523 C1514 1.390 . S
C1523 H1516 0.950 . S
C1523 C1520 1.387 . S
C1524 C1525 1.387 . S
C1524 H1528 0.950 . S
C1524 C1533 1.390 . S
C1525 C1524 1.387 . S
C1525 C1527 1.387 . S
H1526 C1533 0.950 . S
C1527 C1525 1.387 . S
C1527 C1529 1.390 . S
C1527 H1531 0.950 . S
H1528 C1524 0.950 . S
C1529 C1527 1.390 . S
C1529 C1530 1.387 . S
C1529 H1532 0.950 . S
C1530 C1529 1.387 . S
C1530 C1533 1.387 . S
H1531 C1527 0.950 . S
H1532 C1529 0.950 . S
C1533 C1524 1.390 . S
C1533 H1526 0.950 . S
C1533 C1530 1.387 . S
C1534 C1535 1.387 . S
C1534 H1538 0.950 . S
C1534 C1543 1.390 . S
C1535 C1534 1.387 . S
C1535 C1537 1.387 . S
H1536 C1543 0.950 . S
C1537 C1535 1.387 . S
C1537 C1539 1.390 . S
C1537 H1541 0.950 . S
H1538 C1534 0.950 . S
C1539 C1537 1.390 . S
C1539 C1540 1.387 . S
C1539 H1542 0.950 . S
C1540 C1539 1.387 . S
C1540 C1543 1.387 . S
H1541 C1537 0.950 . S
H1542 C1539 0.950 . S
C1543 C1534 1.390 . S
C1543 H1536 0.950 . S
C1543 C1540 1.387 . S
C1544 C1545 1.387 . S
C1544 H1548 0.950 . S
C1544 C1553 1.390 . S
C1545 C1544 1.387 . S
C1545 C1547 1.387 . S
H1546 C1553 0.950 . S
C1547 C1545 1.387 . S
C1547 C1549 1.390 . S
C1547 H1551 0.950 . S
H1548 C1544 0.950 . S
C1549 C1547 1.390 . S
C1549 C1550 1.387 . S
C1549 H1552 0.950 . S
C1550 C1549 1.387 . S
C1550 C1553 1.387 . S
H1551 C1547 0.950 . S
H1552 C1549 0.950 . S
C1553 C1544 1.390 . S
C1553 H1546 0.950 . S
C1553 C1550 1.387 . S
C1554 C1555 1.387 . S
C1554 H1558 0.950 . S
C1554 C1563 1.390 . S
C1555 C1554 1.387 . S
C1555 C1557 1.387 . S
H1556 C1563 0.950 . S
C1557 C1555 1.387 . S
C1557 C1559 1.390 . S
C1557 H1561 0.950 . S
H1558 C1554 0.950 . S
C1559 C1557 1.390 . S
C1559 C1560 1.387 . S
C1559 H1562 0.950 . S
C1560 C1559 1.387 . S
C1560 C1563 1.387 . S
H1561 C1557 0.950 . S
H1562 C1559 0.950 . S
C1563 C1554 1.390 . S
C1563 H1556 0.950 . S
C1563 C1560 1.387 . S
C1564 C1565 1.387 . S
C1564 H1568 0.950 . S
C1564 C1573 1.390 . S
C1565 C1564 1.387 . S
C1565 C1567 1.387 . S
H1566 C1573 0.950 . S
C1567 C1565 1.387 . S
C1567 C1569 1.390 . S
C1567 H1571 0.950 . S
H1568 C1564 0.950 . S
C1569 C1567 1.390 . S
C1569 C1570 1.387 . S
C1569 H1572 0.950 . S
C1570 C1569 1.387 . S
C1570 C1573 1.387 . S
H1571 C1567 0.950 . S
H1572 C1569 0.950 . S
C1573 C1564 1.390 . S
C1573 H1566 0.950 . S
C1573 C1570 1.387 . S
C1574 C1575 1.387 . S
C1574 H1578 0.950 . S
C1574 C1583 1.390 . S
C1575 C1574 1.387 . S
C1575 C1577 1.387 . S
H1576 C1583 0.950 . S
C1577 C1575 1.387 . S
C1577 C1579 1.390 . S
C1577 H1581 0.950 . S
H1578 C1574 0.950 . S
C1579 C1577 1.390 . S
C1579 C1580 1.387 . S
C1579 H1582 0.950 . S
C1580 C1579 1.387 . S
C1580 C1583 1.387 . S
H1581 C1577 0.950 . S
H1582 C1579 0.950 . S
C1583 C1574 1.390 . S
C1583 H1576 0.950 . S
C1583 C1580 1.387 . S
C1584 C1585 1.387 . S
C1584 H1588 0.950 . S
C1584 C1593 1.390 . S
C1585 C1584 1.387 . S
C1585 C1587 1.387 . S
H1586 C1593 0.950 . S
C1587 C1585 1.387 . S
C1587 C1589 1.390 . S
C1587 H1591 0.950 . S
H1588 C1584 0.950 . S
C1589 C1587 1.390 . S
C1589 C1590 1.387 . S
C1589 H1592 0.950 . S
C1590 C1589 1.387 . S
C1590 C1593 1.387 . S
H1591 C1587 0.950 . S
H1592 C1589 0.950 . S
C1593 C1584 1.390 . S
C1593 H1586 0.950 . S
C1593 C1590 1.387 . S
C1594 C1595 1.387 . S
C1594 H1598 0.950 . S
C1594 C1603 1.390 . S
C1595 C1594 1.387 . S
C1595 C1597 1.387 . S
H1596 C1603 0.950 . S
C1597 C1595 1.387 . S
C1597 C1599 1.390 . S
C1597 H1601 0.950 . S
H1598 C1594 0.950 . S
C1599 C1597 1.390 . S
C1599 C1600 1.387 . S
C1599 H1602 0.950 . S
C1600 C1599 1.387 . S
C1600 C1603 1.387 . S
H1601 C1597 0.950 . S
H1602 C1599 0.950 . S
C1603 C1594 1.390 . S
C1603 H1596 0.950 . S
C1603 C1600 1.387 . S
C1604 C1605 1.387 . S
C1604 H1608 0.950 . S
C1604 C1613 1.390 . S
C1605 C1604 1.387 . S
C1605 C1607 1.387 . S
H1606 C1613 0.950 . S
C1607 C1605 1.387 . S
C1607 C1609 1.390 . S
C1607 H1611 0.950 . S
H1608 C1604 0.950 . S
C1609 C1607 1.390 . S
C1609 C1610 1.387 . S
C1609 H1612 0.950 . S
C1610 C1609 1.387 . S
C1610 C1613 1.387 . S
H1611 C1607 0.950 . S
H1612 C1609 0.950 . S
C1613 C1604 1.390 . S
C1613 H1606 0.950 . S
C1613 C1610 1.387 . S
C1614 C1615 1.387 . S
C1614 H1618 0.950 . S
C1614 C1623 1.390 . S
C1615 C1614 1.387 . S
C1615 C1617 1.387 . S
H1616 C1623 0.950 . S
C1617 C1615 1.387 . S
C1617 C1619 1.390 . S
C1617 H1621 0.950 . S
H1618 C1614 0.950 . S
C1619 C1617 1.390 . S
C1619 C1620 1.387 . S
C1619 H1622 0.950 . S
C1620 C1619 1.387 . S
C1620 C1623 1.387 . S
H1621 C1617 0.950 . S
H1622 C1619 0.950 . S
C1623 C1614 1.390 . S
C1623 H1616 0.950 . S
C1623 C1620 1.387 . S
C1624 C1625 1.387 . S
C1624 H1628 0.950 . S
C1624 C1633 1.390 . S
C1625 C1624 1.387 . S
C1625 C1627 1.387 . S
H1626 C1633 0.950 . S
C1627 C1625 1.387 . S
C1627 C1629 1.390 . S
C1627 H1631 0.950 . S
H1628 C1624 0.950 . S
C1629 C1627 1.390 . S
C1629 C1630 1.387 . S
C1629 H1632 0.950 . S
C1630 C1629 1.387 . S
C1630 C1633 1.387 . S
H1631 C1627 0.950 . S
H1632 C1629 0.950 . S
C1633 C1624 1.390 . S
C1633 H1626 0.950 . S
C1633 C1630 1.387 . S
C1634 C1635 1.387 . S
C1634 H1638 0.950 . S
C1634 C1643 1.390 . S
C1635 C1634 1.387 . S
C1635 C1637 1.387 . S
H1636 C1643 0.950 . S
C1637 C1635 1.387 . S
C1637 C1639 1.390 . S
C1637 H1641 0.950 . S
H1638 C1634 0.950 . S
C1639 C1637 1.390 . S
C1639 C1640 1.387 . S
C1639 H1642 0.950 . S
C1640 C1639 1.387 . S
C1640 C1643 1.387 . S
H1641 C1637 0.950 . S
H1642 C1639 0.950 . S
C1643 C1634 1.390 . S
C1643 H1636 0.950 . S
C1643 C1640 1.387 . S
C1644 C1645 1.387 . S
C1644 H1648 0.950 . S
C1644 C1653 1.390 . S
C1645 C1644 1.387 . S
C1645 C1647 1.387 . S
H1646 C1653 0.950 . S
C1647 C1645 1.387 . S
C1647 C1649 1.390 . S
C1647 H1651 0.950 . S
H1648 C1644 0.950 . S
C1649 C1647 1.390 . S
C1649 C1650 1.387 . S
C1649 H1652 0.950 . S
C1650 C1649 1.387 . S
C1650 C1653 1.387 . S
H1651 C1647 0.950 . S
H1652 C1649 0.950 . S
C1653 C1644 1.390 . S
C1653 H1646 0.950 . S
C1653 C1650 1.387 . S
C1654 C1655 1.387 . S
C1654 H1658 0.950 . S
C1654 C1663 1.390 . S
C1655 C1654 1.387 . S
C1655 C1657 1.387 . S
H1656 C1663 0.950 . S
C1657 C1655 1.387 . S
C1657 C1659 1.390 . S
C1657 H1661 0.950 . S
H1658 C1654 0.950 . S
C1659 C1657 1.390 . S
C1659 C1660 1.387 . S
C1659 H1662 0.950 . S
C1660 C1659 1.387 . S
C1660 C1663 1.387 . S
H1661 C1657 0.950 . S
H1662 C1659 0.950 . S
C1663 C1654 1.390 . S
C1663 H1656 0.950 . S
C1663 C1660 1.387 . S
C1664 C1665 1.387 . S
C1664 H1668 0.950 . S
C1664 C1673 1.390 . S
C1665 C1664 1.387 . S
C1665 C1667 1.387 . S
H1666 C1673 0.950 . S
C1667 C1665 1.387 . S
C1667 C1669 1.390 . S
C1667 H1671 0.950 . S
H1668 C1664 0.950 . S
C1669 C1667 1.390 . S
C1669 C1670 1.387 . S
C1669 H1672 0.950 . S
C1670 C1669 1.387 . S
C1670 C1673 1.387 . S
H1671 C1667 0.950 . S
H1672 C1669 0.950 . S
C1673 C1664 1.390 . S
C1673 H1666 0.950 . S
C1673 C1670 1.387 . S
C1674 C1675 1.387 . S
C1674 H1678 0.950 . S
C1674 C1683 1.390 . S
C1675 C1674 1.387 . S
C1675 C1677 1.387 . S
H1676 C1683 0.950 . S
C1677 C1675 1.387 . S
C1677 C1679 1.390 . S
C1677 H1681 0.950 . S
H1678 C1674 0.950 . S
C1679 C1677 1.390 . S
C1679 C1680 1.387 . S
C1679 H1682 0.950 . S
C1680 C1679 1.387 . S
C1680 C1683 1.387 . S
H1681 C1677 0.950 . S
H1682 C1679 0.950 . S
C1683 C1674 1.390 . S
C1683 H1676 0.950 . S
C1683 C1680 1.387 . S
C1684 C1685 1.387 . S
C1684 H1688 0.950 . S
C1684 C1693 1.390 . S
C1685 C1684 1.387 . S
C1685 C1687 1.387 . S
H1686 C1693 0.950 . S
C1687 C1685 1.387 . S
C1687 C1689 1.390 . S
C1687 H1691 0.950 . S
H1688 C1684 0.950 . S
C1689 C1687 1.390 . S
C1689 C1690 1.387 . S
C1689 H1692 0.950 . S
C1690 C1689 1.387 . S
C1690 C1693 1.387 . S
H1691 C1687 0.950 . S
H1692 C1689 0.950 . S
C1693 C1684 1.390 . S
C1693 H1686 0.950 . S
C1693 C1690 1.387 . S
C1694 C1695 1.387 . S
C1694 H1698 0.950 . S
C1694 C1703 1.390 . S
C1695 C1694 1.387 . S
C1695 C1697 1.387 . S
H1696 C1703 0.950 . S
C1697 C1695 1.387 . S
C1697 C1699 1.390 . S
C1697 H1701 0.950 . S
H1698 C1694 0.950 . S
C1699 C1697 1.390 . S
C1699 C1700 1.387 . S
C1699 H1702 0.950 . S
C1700 C1699 1.387 . S
C1700 C1703 1.387 . S
H1701 C1697 0.950 . S
H1702 C1699 0.950 . S
C1703 C1694 1.390 . S
C1703 H1696 0.950 . S
C1703 C1700 1.387 . S
C1704 C1705 1.387 . S
C1704 H1708 0.950 . S
C1704 C1713 1.390 . S
C1705 C1704 1.387 . S
C1705 C1707 1.387 . S
H1706 C1713 0.950 . S
C1707 C1705 1.387 . S
C1707 C1709 1.390 . S
C1707 H1711 0.950 . S
H1708 C1704 0.950 . S
C1709 C1707 1.390 . S
C1709 C1710 1.387 . S
C1709 H1712 0.950 . S
C1710 C1709 1.387 . S
C1710 C1713 1.387 . S
H1711 C1707 0.950 . S
H1712 C1709 0.950 . S
C1713 C1704 1.390 . S
C1713 H1706 0.950 . S
C1713 C1710 1.387 . S
C1714 C1715 1.387 . S
C1714 H1718 0.950 . S
C1714 C1723 1.390 . S
C1715 C1714 1.387 . S
C1715 C1717 1.387 . S
H1716 C1723 0.950 . S
C1717 C1715 1.387 . S
C1717 C1719 1.390 . S
C1717 H1721 0.950 . S
H1718 C1714 0.950 . S
C1719 C1717 1.390 . S
C1719 C1720 1.387 . S
C1719 H1722 0.950 . S
C1720 C1719 1.387 . S
C1720 C1723 1.387 . S
H1721 C1717 0.950 . S
H1722 C1719 0.950 . S
C1723 C1714 1.390 . S
C1723 H1716 0.950 . S
C1723 C1720 1.387 . S
C1724 C1725 1.387 . S
C1724 H1728 0.950 . S
C1724 C1733 1.390 . S
C1725 C1724 1.387 . S
C1725 C1727 1.387 . S
H1726 C1733 0.950 . S
C1727 C1725 1.387 . S
C1727 C1729 1.390 . S
C1727 H1731 0.950 . S
H1728 C1724 0.950 . S
C1729 C1727 1.390 . S
C1729 C1730 1.387 . S
C1729 H1732 0.950 . S
C1730 C1729 1.387 . S
C1730 C1733 1.387 . S
H1731 C1727 0.950 . S
H1732 C1729 0.950 . S
C1733 C1724 1.390 . S
C1733 H1726 0.950 . S
C1733 C1730 1.387 . S
C1734 C1735 1.387 . S
C1734 H1738 0.950 . S
C1734 C1743 1.390 . S
C1735 C1734 1.387 . S
C1735 C1737 1.387 . S
H1736 C1743 0.950 . S
C1737 C1735 1.387 . S
C1737 C1739 1.390 . S
C1737 H1741 0.950 . S
H1738 C1734 0.950 . S
C1739 C1737 1.390 . S
C1739 C1740 1.387 . S
C1739 H1742 0.950 . S
C1740 C1739 1.387 . S
C1740 C1743 1.387 . S
H1741 C1737 0.950 . S
H1742 C1739 0.950 . S
C1743 C1734 1.390 . S
C1743 H1736 0.950 . S
C1743 C1740 1.387 . S
C1744 C1745 1.387 . S
C1744 H1748 0.950 . S
C1744 C1753 1.390 . S
C1745 C1744 1.387 . S
C1745 C1747 1.387 . S
H1746 C1753 0.950 . S
C1747 C1745 1.387 . S
C1747 C1749 1.390 . S
C1747 H1751 0.950 . S
H1748 C1744 0.950 . S
C1749 C1747 1.390 . S
C1749 C1750 1.387 . S
C1749 H1752 0.950 . S
C1750 C1749 1.387 . S
C1750 C1753 1.387 . S
H1751 C1747 0.950 . S
H1752 C1749 0.950 . S
C1753 C1744 1.390 . S
C1753 H1746 0.950 . S
C1753 C1750 1.387 . S
C1754 C1755 1.387 . S
C1754 H1758 0.950 . S
C1754 C1763 1.390 . S
C1755 C1754 1.387 . S
C1755 C1757 1.387 . S
H1756 C1763 0.950 . S
C1757 C1755 1.387 . S
C1757 C1759 1.390 . S
C1757 H1761 0.950 . S
H1758 C1754 0.950 . S
C1759 C1757 1.390 . S
C1759 C1760 1.387 . S
C1759 H1762 0.950 . S
C1760 C1759 1.387 . S
C1760 C1763 1.387 . S
H1761 C1757 0.950 . S
H1762 C1759 0.950 . S
C1763 C1754 1.390 . S
C1763 H1756 0.950 . S
C1763 C1760 1.387 . S
C1764 C1765 1.387 . S
C1764 H1768 0.950 . S
C1764 C1773 1.390 . S
C1765 C1764 1.387 . S
C1765 C1767 1.387 . S
H1766 C1773 0.950 . S
C1767 C1765 1.387 . S
C1767 C1769 1.390 . S
C1767 H1771 0.950 . S
H1768 C1764 0.950 . S
C1769 C1767 1.390 . S
C1769 C1770 1.387 . S
C1769 H1772 0.950 . S
C1770 C1769 1.387 . S
C1770 C1773 1.387 . S
H1771 C1767 0.950 . S
H1772 C1769 0.950 . S
C1773 C1764 1.390 . S
C1773 H1766 0.950 . S
C1773 C1770 1.387 . S
C1774 C1775 1.387 . S
C1774 H1778 0.950 . S
C1774 C1783 1.390 . S
C1775 C1774 1.387 . S
C1775 C1777 1.387 . S
H1776 C1783 0.950 . S
C1777 C1775 1.387 . S
C1777 C1779 1.390 . S
C1777 H1781 0.950 . S
H1778 C1774 0.950 . S
C1779 C1777 1.390 . S
C1779 C1780 1.387 . S
C1779 H1782 0.950 . S
C1780 C1779 1.387 . S
C1780 C1783 1.387 . S
H1781 C1777 0.950 . S
H1782 C1779 0.950 . S
C1783 C1774 1.390 . S
C1783 H1776 0.950 . S
C1783 C1780 1.387 . S
C1784 C1785 1.387 . S
C1784 H1788 0.950 . S
C1784 C1793 1.390 . S
C1785 C1784 1.387 . S
C1785 C1787 1.387 . S
H1786 C1793 0.950 . S
C1787 C1785 1.387 . S
C1787 C1789 1.390 . S
C1787 H1791 0.950 . S
H1788 C1784 0.950 . S
C1789 C1787 1.390 . S
C1789 C1790 1.387 . S
C1789 H1792 0.950 . S
C1790 C1789 1.387 . S
C1790 C1793 1.387 . S
H1791 C1787 0.950 . S
H1792 C1789 0.950 . S
C1793 C1784 1.390 . S
C1793 H1786 0.950 . S
C1793 C1790 1.387 . S
C1794 C1795 1.387 . S
C1794 H1798 0.950 . S
C1794 C1803 1.390 . S
C1795 C1794 1.387 . S
C1795 C1797 1.387 . S
H1796 C1803 0.950 . S
C1797 C1795 1.387 . S
C1797 C1799 1.390 . S
C1797 H1801 0.950 . S
H1798 C1794 0.950 . S
C1799 C1797 1.390 . S
C1799 C1800 1.387 . S
C1799 H1802 0.950 . S
C1800 C1799 1.387 . S
C1800 C1803 1.387 . S
H1801 C1797 0.950 . S
H1802 C1799 0.950 . S
C1803 C1794 1.390 . S
C1803 H1796 0.950 . S
C1803 C1800 1.387 . S
C1804 C1805 1.387 . S
C1804 H1808 0.950 . S
C1804 C1813 1.390 . S
C1805 C1804 1.387 . S
C1805 C1807 1.387 . S
H1806 C1813 0.950 . S
C1807 C1805 1.387 . S
C1807 C1809 1.390 . S
C1807 H1811 0.950 . S
H1808 C1804 0.950 . S
C1809 C1807 1.390 . S
C1809 C1810 1.387 . S
C1809 H1812 0.950 . S
C1810 C1809 1.387 . S
C1810 C1813 1.387 . S
H1811 C1807 0.950 . S
H1812 C1809 0.950 . S
C1813 C1804 1.390 . S
C1813 H1806 0.950 . S
C1813 C1810 1.387 . S
C1814 C1815 1.387 . S
C1814 H1818 0.950 . S
C1814 C1823 1.390 . S
C1815 C1814 1.387 . S
C1815 C1817 1.387 . S
H1816 C1823 0.950 . S
C1817 C1815 1.387 . S
C1817 C1819 1.390 . S
C1817 H1821 0.950 . S
H1818 C1814 0.950 . S
C1819 C1817 1.390 . S
C1819 C1820 1.387 . S
C1819 H1822 0.950 . S
C1820 C1819 1.387 . S
C1820 C1823 1.387 . S
H1821 C1817 0.950 . S
H1822 C1819 0.950 . S
C1823 C1814 1.390 . S
C1823 H1816 0.950 . S
C1823 C1820 1.387 . S
C1824 C1825 1.387 . S
C1824 H1828 0.950 . S
C1824 C1833 1.390 . S
C1825 C1824 1.387 . S
C1825 C1827 1.387 . S
H1826 C1833 0.950 . S
C1827 C1825 1.387 . S
C1827 C1829 1.390 . S
C1827 H1831 0.950 . S
H1828 C1824 0.950 . S
C1829 C1827 1.390 . S
C1829 C1830 1.387 . S
C1829 H1832 0.950 . S
C1830 C1829 1.387 . S
C1830 C1833 1.387 . S
H1831 C1827 0.950 . S
H1832 C1829 0.950 . S
C1833 C1824 1.390 . S
C1833 H1826 0.950 . S
C1833 C1830 1.387 . S
C1834 C1835 1.387 . S
C1834 H1838 0.950 . S
C1834 C1843 1.390 . S
C1835 C1834 1.387 . S
C1835 C1837 1.387 . S
H1836 C1843 0.950 . S
C1837 C1835 1.387 . S
C1837 C1839 1.390 . S
C1837 H1841 0.950 . S
H1838 C1834 0.950 . S
C1839 C1837 1.390 . S
C1839 C1840 1.387 . S
C1839 H1842 0.950 . S
C1840 C1839 1.387 . S
C1840 C1843 1.387 . S
H1841 C1837 0.950 . S
H1842 C1839 0.950 . S
C1843 C1834 1.390 . S
C1843 H1836 0.950 . S
C1843 C1840 1.387 . S
C1844 C1845 1.387 . S
C1844 H1848 0.950 . S
C1844 C1853 1.390 . S
C1845 C1844 1.387 . S
C1845 C1847 1.387 . S
H1846 C1853 0.950 . S
C1847 C1845 1.387 . S
C1847 C1849 1.390 . S
C1847 H1851 0.950 . S
H1848 C1844 0.950 . S
C1849 C1847 1.390 . S
C1849 C1850 1.387 . S
C1849 H1852 0.950 . S
C1850 C1849 1.387 . S
C1850 C1853 1.387 . S
H1851 C1847 0.950 . S
H1852 C1849 0.950 . S
C1853 C1844 1.390 . S
C1853 H1846 0.950 . S
C1853 C1850 1.387 . S
C1854 C1855 1.387 . S
C1854 H1858 0.950 . S
C1854 C1863 1.390 . S
C1855 C1854 1.387 . S
C1855 C1857 1.387 . S
H1856 C1863 0.950 . S
C1857 C1855 1.387 . S
C1857 C1859 1.390 . S
C1857 H1861 0.950 . S
H1858 C1854 0.950 . S
C1859 C1857 1.390 . S
C1859 C1860 1.387 . S
C1859 H1862 0.950 . S
C1860 C1859 1.387 . S
C1860 C1863 1.387 . S
H1861 C1857 0.950 . S
H1862 C1859 0.950 . S
C1863 C1854 1.390 . S
C1863 H1856 0.950 . S
C1863 C1860 1.387 . S
C910 N364 1.833 . S
C905 C4 1.907 . S
C920 C391 1.366 . S
C915 C21 1.354 . S
C925 C26 1.818 . S
C930 C405 1.813 . S
C940 N423 1.224 . S
C935 C43 1.238 . S
C945 C54 1.173 . S
C950 C428 1.173 . S
C955 C60 1.824 . S
C960 C368 1.788 . S
C965 C76 1.170 . S
C970 N387 1.178 . S
C980 N400 1.982 . S
C975 C81 1.971 . S
C990 N446 1.587 . S
C985 C10 1.657 . S
C995 C15 1.439 . S
C1000 N469 1.419 . S
C1005 C27 1.662 . S
C1010 N492 1.637 . S
C1020 N525 1.412 . S
C1015 C38 1.483 . S
C1025 C49 1.398 . S
C1030 C552 1.398 . S
C1040 C575 1.771 . S
C1035 C59 1.763 . S
C1045 C71 1.304 . S
C1050 C598 1.276 1_655 S
C1060 C612 1.682 . S
C1055 C87 1.676 . S
C1065 C5 1.720 . S
C1070 C529 1.719 . S
C1075 C48 1.412 . S
C1080 N571 1.390 . S
C1090 N594 1.568 . S
C1085 C65 1.636 . S
C1095 C70 1.403 . S
C1100 N607 1.386 . S
C1110 N548 1.655 . S
C1105 C82 1.703 . S
C1120 C474 1.820 . S
C1115 C32 1.805 . S
C1125 C37 1.337 . S
C1130 C497 1.337 . S
C1140 C451 1.467 . S
C1135 C16 1.446 . S
C1150 C644 1.953 . S
C1145 C92 1.936 . S
C1155 C109 1.266 . S
C1160 C658 1.262 . S
C1165 C114 1.777 . S
C1170 N686 1.743 . S
C1180 N699 1.087 . S
C1175 C131 1.115 . S
C1185 C142 1.252 . S
C1190 C704 1.245 . S
C1195 C148 1.738 . S
C1200 N640 1.714 . S
C1205 C164 1.292 . S
C1210 N653 1.298 . S
C1215 C169 1.869 . S
C1220 C690 1.888 . S
C1230 N538 1.640 . S
C1225 C98 1.685 . S
C1235 C103 1.361 . S
C1240 N722 1.327 . S
C1250 N584 1.605 . S
C1245 C115 1.619 . S
C1255 C126 1.500 . S
C1260 C759 1.492 . S
C1265 C137 1.590 . S
C1270 C460 1.583 . S
C1280 C773 1.845 . S
C1275 C147 1.833 . S
C1285 C159 1.397 . S
C1290 C506 1.400 . S
C1300 N791 1.604 . S
C1295 C175 1.655 . S
C1305 C93 1.676 . S
C1310 N755 1.652 . S
C1320 N768 1.346 . S
C1315 C136 1.391 . S
C1325 C153 1.628 . S
C1330 N502 1.582 . S
C1340 C796 1.265 . S
C1335 C158 1.264 . S
C1345 C170 1.675 . S
C1350 N456 1.654 . S
C1355 C120 1.713 . S
C1360 C727 1.726 . S
C1365 C125 1.393 . S
C1370 C589 1.392 . S
C1375 C104 1.399 . S
C1380 C543 1.432 . S
C1385 C180 1.946 . S
C1390 C681 1.942 . S
C1400 C713 1.253 . S
C1395 C197 1.248 . S
C1405 C202 1.769 . S
C1410 N630 1.682 . S
C1415 C219 1.193 . S
C1420 N663 1.153 . S
C1425 C230 1.196 . S
C1430 C667 1.190 . S
C1435 C236 1.873 . S
C1440 N676 1.778 . S
C1450 N709 1.118 . S
C1445 C252 1.121 . S
C1455 C257 2.017 . S
C1460 C635 1.993 . S
C1470 N824 1.647 . S
C1465 C186 1.702 . S
C1475 C191 1.340 . S
C1480 N561 1.309 . S
C1490 N847 1.520 . S
C1485 C203 1.562 . S
C1495 C214 1.524 . S
C1500 N617 1.450 . S
C1505 C225 1.436 . S
C1510 C865 1.433 . S
C1515 C235 1.848 . S
C1520 C483 1.852 . S
C1530 N883 1.259 . S
C1525 C247 1.301 . S
C1535 C263 1.705 . S
C1540 C520 1.711 . S
C1550 C621 1.752 . S
C1545 C181 1.753 . S
C1560 N479 1.398 . S
C1555 C224 1.436 . S
C1565 C241 1.732 . S
C1570 C888 1.726 . S
C1575 C246 1.300 . S
C1580 N515 1.287 . S
C1590 N860 1.671 . S
C1585 C258 1.711 . S
C1600 C566 1.735 . S
C1595 C208 1.708 . S
C1610 C851 1.415 . S
C1605 C213 1.409 . S
C1620 C828 1.435 . S
C1615 C192 1.389 . S
C1625 C268 1.888 . S
C1630 N410 1.806 . S
C1635 C285 1.252 . S
C1640 C437 1.233 . S
C1650 C359 1.823 . S
C1645 C290 1.834 . S
C1660 N377 1.059 . S
C1655 C307 1.097 . S
C1670 C382 1.355 . S
C1665 C318 1.384 . S
C1680 C414 1.721 . S
C1675 C324 1.757 . S
C1690 N433 1.321 . S
C1685 C340 1.361 . S
C1695 C345 1.932 . S
C1700 N354 1.945 . S
C1705 C274 1.623 . S
C1710 N870 1.570 . S
C1720 N778 1.303 . S
C1715 C279 1.332 . S
C1730 C897 1.781 . S
C1725 C291 1.763 . S
C1740 C805 1.243 . S
C1735 C302 1.245 . S
C1745 C313 1.569 . S
C1750 C819 1.560 . S
C1760 C736 1.781 . S
C1755 C323 1.775 . S
C1770 C842 1.499 . S
C1765 C335 1.518 . S
C1775 C351 1.680 . S
C1780 N745 1.623 . S
C1790 N801 1.609 . S
C1785 C269 1.630 . S
C1800 N732 1.334 . S
C1795 C312 1.352 . S
C1810 N837 1.535 . S
C1805 C329 1.575 . S
C1815 C334 1.355 . S
C1820 C750 1.345 . S
C1825 C346 1.690 . S
C1830 N814 1.654 . S
C1835 C296 1.842 . S
C1840 C782 1.850 . S
C1845 C301 1.350 . S
C1850 N893 1.326 . S
C1860 C874 1.417 . S
C1855 C280 1.383 . S
