# Generated by pormake.
# Topology dag, (6,3)-cn, num edge types: 1
# Building blocks:
#     Node 0, Type 0, BuildingBlock: OJICUG_clean_sbu_0, # of connection points: 6
#     Node 1, Type 0, BuildingBlock: OJICUG_clean_sbu_0, # of connection points: 6
#     Node 2, Type 0, BuildingBlock: OJICUG_clean_sbu_0, # of connection points: 6
#     Node 3, Type 0, BuildingBlock: OJICUG_clean_sbu_0, # of connection points: 6
#     Node 4, Type 1, BuildingBlock: CUQRIR_clean_linker_1, # of connection points: 3
#     Node 5, Type 1, BuildingBlock: CUQRIR_clean_linker_1, # of connection points: 3
#     Node 6, Type 1, BuildingBlock: CUQRIR_clean_linker_1, # of connection points: 3
#     Node 7, Type 1, BuildingBlock: CUQRIR_clean_linker_1, # of connection points: 3
#     Node 8, Type 1, BuildingBlock: CUQRIR_clean_linker_1, # of connection points: 3
#     Node 9, Type 1, BuildingBlock: CUQRIR_clean_linker_1, # of connection points: 3
#     Node 10, Type 1, BuildingBlock: CUQRIR_clean_linker_1, # of connection points: 3
#     Node 11, Type 1, BuildingBlock: CUQRIR_clean_linker_1, # of connection points: 3
#     Edge 12, Type (0, 1), BuildingBlock: EZIPEK_clean_linker_0, # of connection points: 2
#     Edge 13, Type (0, 1), BuildingBlock: EZIPEK_clean_linker_0, # of connection points: 2
#     Edge 14, Type (0, 1), BuildingBlock: EZIPEK_clean_linker_0, # of connection points: 2
#     Edge 15, Type (0, 1), BuildingBlock: EZIPEK_clean_linker_0, # of connection points: 2
#     Edge 16, Type (0, 1), BuildingBlock: EZIPEK_clean_linker_0, # of connection points: 2
#     Edge 17, Type (0, 1), BuildingBlock: EZIPEK_clean_linker_0, # of connection points: 2
#     Edge 18, Type (0, 1), BuildingBlock: EZIPEK_clean_linker_0, # of connection points: 2
#     Edge 19, Type (0, 1), BuildingBlock: EZIPEK_clean_linker_0, # of connection points: 2
#     Edge 20, Type (0, 1), BuildingBlock: EZIPEK_clean_linker_0, # of connection points: 2
#     Edge 21, Type (0, 1), BuildingBlock: EZIPEK_clean_linker_0, # of connection points: 2
#     Edge 22, Type (0, 1), BuildingBlock: EZIPEK_clean_linker_0, # of connection points: 2
#     Edge 23, Type (0, 1), BuildingBlock: EZIPEK_clean_linker_0, # of connection points: 2
#     Edge 24, Type (0, 1), BuildingBlock: EZIPEK_clean_linker_0, # of connection points: 2
#     Edge 25, Type (0, 1), BuildingBlock: EZIPEK_clean_linker_0, # of connection points: 2
#     Edge 26, Type (0, 1), BuildingBlock: EZIPEK_clean_linker_0, # of connection points: 2
#     Edge 27, Type (0, 1), BuildingBlock: EZIPEK_clean_linker_0, # of connection points: 2
#     Edge 28, Type (0, 1), BuildingBlock: EZIPEK_clean_linker_0, # of connection points: 2
#     Edge 29, Type (0, 1), BuildingBlock: EZIPEK_clean_linker_0, # of connection points: 2
#     Edge 30, Type (0, 1), BuildingBlock: EZIPEK_clean_linker_0, # of connection points: 2
#     Edge 31, Type (0, 1), BuildingBlock: EZIPEK_clean_linker_0, # of connection points: 2
#     Edge 32, Type (0, 1), BuildingBlock: EZIPEK_clean_linker_0, # of connection points: 2
#     Edge 33, Type (0, 1), BuildingBlock: EZIPEK_clean_linker_0, # of connection points: 2
#     Edge 34, Type (0, 1), BuildingBlock: EZIPEK_clean_linker_0, # of connection points: 2
#     Edge 35, Type (0, 1), BuildingBlock: EZIPEK_clean_linker_0, # of connection points: 2
# Relax obj value: 0.082
# Max RMSD: 0.091
# Mean RMSD: 0.081
data_MOF--net-dag--node1-OJICUG_clean_sbu_0--node2-CUQRIR_clean_linker_1--edge1-EZIPEK_clean_linker_0
_symmetry_space_group_name_H-M    P1
_symmetry_Int_Tables_number       1
_symmetry_cell_setting            triclinic
loop_
_symmetry_equiv_pos_as_xyz
'x, y, z'
_cell_length_a     25.158619
_cell_length_b     25.789035
_cell_length_c     26.527961
_cell_angle_alpha  92.494554
_cell_angle_beta   89.900869
_cell_angle_gamma 89.879245
loop_
_atom_site_label
_atom_site_type_symbol
_atom_site_fract_x
_atom_site_fract_y
_atom_site_fract_z
_atom_type_partial_charge
Sc0 Sc 0.06536 0.91713 0.00628 0.0
Sc1 Sc 0.09541 0.78415 0.00468 0.0
Sc2 Sc 0.19216 0.87598 0.04104 0.0
O3 O 0.11766 0.85897 0.01715 0.0
C4 C 0.16879 0.96447 0.96286 0.0
C5 C 0.03726 0.83561 0.91539 0.0
C6 C 0.21439 0.78595 0.96066 0.0
C7 C 0.99306 0.8365 0.05892 0.0
C8 C 0.12802 0.95825 0.10524 0.0
C9 C 0.16492 0.77541 0.10197 0.0
O10 O 0.11952 0.95519 0.95805 0.0
O11 O 0.06457 0.79852 0.93156 0.0
O12 O 0.22717 0.8294 0.9813 0.0
O13 O 0.0076 0.88311 0.05397 0.0
O14 O 0.16309 0.92294 0.10317 0.0
O15 O 0.1241 0.76227 0.07663 0.0
O16 O 0.09326 0.96377 0.07104 0.0
O17 O 0.01812 0.79725 0.03997 0.0
O18 O 0.19518 0.81266 0.09117 0.0
O19 O 0.03084 0.87874 0.93984 0.0
O20 O 0.19867 0.94241 0.99414 0.0
O21 O 0.1702 0.76341 0.9681 0.0
Sc22 Sc 0.69625 0.61642 0.46515 0.0
Sc23 Sc 0.58544 0.69569 0.50053 0.0
Sc24 Sc 0.57448 0.56017 0.49603 0.0
O25 O 0.6188 0.62425 0.48683 0.0
C26 C 0.6394 0.52921 0.39648 0.0
C27 C 0.65865 0.71383 0.40454 0.0
C28 C 0.49051 0.63591 0.44602 0.0
C29 C 0.70104 0.7088 0.54809 0.0
C30 C 0.68619 0.52401 0.53972 0.0
C31 C 0.53787 0.63139 0.59066 0.0
O32 O 0.6783 0.55878 0.40739 0.0
O33 O 0.62124 0.7272 0.4346 0.0
O34 O 0.50473 0.59195 0.46126 0.0
O35 O 0.72224 0.67327 0.52028 0.0
O36 O 0.63665 0.52005 0.53262 0.0
O37 O 0.54357 0.67352 0.56802 0.0
O38 O 0.71446 0.55761 0.51859 0.0
O39 O 0.65189 0.72069 0.54704 0.0
O40 O 0.55131 0.58787 0.57033 0.0
O41 O 0.68766 0.67406 0.4097 0.0
O42 O 0.59751 0.52659 0.42327 0.0
O43 O 0.51697 0.67722 0.45478 0.0
Sc44 Sc 0.90473 0.20243 0.00743 0.0
Sc45 Sc 0.80913 0.11018 0.96654 0.0
Sc46 Sc 0.93697 0.06924 0.00241 0.0
O47 O 0.88363 0.12724 0.99215 0.0
C48 C 0.00669 0.15563 0.95067 0.0
C49 C 0.83426 0.21206 0.90824 0.0
C50 C 0.87769 0.02665 0.90349 0.0
C51 C 0.78655 0.20018 0.04966 0.0
C52 C 0.96639 0.14616 0.09489 0.0
C53 C 0.82969 0.02257 0.04543 0.0
O54 O 0.97625 0.1936 0.96294 0.0
O55 O 0.81209 0.16792 0.91013 0.0
O56 O 0.91753 0.0285 0.93267 0.0
O57 O 0.83408 0.21705 0.05235 0.0
O58 O 0.96451 0.10119 0.07374 0.0
O59 O 0.79875 0.05142 0.02106 0.0
O60 O 0.94729 0.18621 0.07542 0.0
O61 O 0.7719 0.16353 0.01953 0.0
O62 O 0.88012 0.02448 0.04251 0.0
O63 O 0.86658 0.22974 0.94132 0.0
O64 O 0.99809 0.10918 0.96279 0.0
O65 O 0.83607 0.0537 0.91066 0.0
Sc66 Sc 0.42018 0.43297 0.52147 0.0
Sc67 Sc 0.29956 0.37377 0.5446 0.0
Sc68 Sc 0.41356 0.29833 0.51771 0.0
O69 O 0.37741 0.36809 0.52733 0.0
C70 C 0.47046 0.35784 0.43416 0.0
C71 C 0.3174 0.46366 0.46626 0.0
C72 C 0.29967 0.28124 0.46505 0.0
C73 C 0.34325 0.46338 0.61409 0.0
C74 C 0.49724 0.36547 0.58319 0.0
C75 C 0.33908 0.27895 0.60909 0.0
O76 O 0.47002 0.40029 0.46061 0.0
O77 O 0.28809 0.43932 0.49658 0.0
O78 O 0.34546 0.26492 0.4777 0.0
O79 O 0.37744 0.47514 0.58116 0.0
O80 O 0.48597 0.32428 0.55697 0.0
O81 O 0.30306 0.30945 0.59421 0.0
O82 O 0.47192 0.40755 0.57881 0.0
O83 O 0.31396 0.42364 0.60957 0.0
O84 O 0.38402 0.27326 0.58794 0.0
O85 O 0.36777 0.46095 0.46574 0.0
O86 O 0.44583 0.31759 0.4466 0.0
O87 O 0.27931 0.32351 0.48196 0.0
C88 C 0.12339 0.19087 0.29903 0.0
N89 N 0.1069 0.15631 0.26265 0.0
N90 N 0.16505 0.17131 0.32433 0.0
C91 C 0.10275 0.24527 0.30639 0.0
C92 C 0.17295 0.1236 0.30251 0.0
N93 N 0.13809 0.11482 0.26446 0.0
C94 C 0.21726 0.08765 0.3159 0.0
H95 H 0.12636 0.27107 0.2826 0.0
H96 H 0.10709 0.25911 0.34637 0.0
H97 H 0.06047 0.24756 0.29484 0.0
H98 H 0.22261 0.0884 0.35745 0.0
H99 H 0.25481 0.10128 0.29899 0.0
H100 H 0.20931 0.04737 0.30154 0.0
C101 C 0.34316 0.62847 0.81116 0.0
N102 N 0.37798 0.60912 0.77645 0.0
N103 N 0.35787 0.67616 0.82777 0.0
C104 C 0.28971 0.60507 0.82223 0.0
C105 C 0.40277 0.68618 0.8016 0.0
N106 N 0.41776 0.64337 0.77221 0.0
C107 C 0.42103 0.74128 0.79552 0.0
H108 H 0.26027 0.61921 0.79489 0.0
H109 H 0.27613 0.61701 0.86084 0.0
H110 H 0.29077 0.56216 0.8184 0.0
H111 H 0.45229 0.75146 0.8236 0.0
H112 H 0.38799 0.76905 0.80316 0.0
H113 H 0.43507 0.74752 0.75669 0.0
C114 C 0.7314 0.85553 0.21034 0.0
N115 N 0.76968 0.86361 0.17586 0.0
N116 N 0.74047 0.8105 0.23318 0.0
C117 C 0.68756 0.89306 0.22416 0.0
C118 C 0.78541 0.79138 0.21126 0.0
N119 N 0.80354 0.82407 0.17671 0.0
C120 C 0.81296 0.74264 0.22597 0.0
H121 H 0.70244 0.92159 0.25329 0.0
H122 H 0.65297 0.87254 0.2399 0.0
H123 H 0.67508 0.91457 0.19083 0.0
H124 H 0.78337 0.7114 0.23083 0.0
H125 H 0.83302 0.75007 0.26279 0.0
H126 H 0.84296 0.72968 0.1974 0.0
C127 C 0.76321 0.36765 0.72176 0.0
N128 N 0.72039 0.38585 0.69722 0.0
N129 N 0.74952 0.32679 0.74861 0.0
C130 C 0.81909 0.38778 0.71799 0.0
C131 C 0.69756 0.31885 0.73849 0.0
N132 N 0.6781 0.35705 0.7093 0.0
C133 C 0.67249 0.26687 0.7473 0.0
H134 H 0.8481 0.35562 0.72115 0.0
H135 H 0.82633 0.4162 0.74981 0.0
H136 H 0.8258 0.40722 0.68206 0.0
H137 H 0.65167 0.26793 0.78417 0.0
H138 H 0.70342 0.23641 0.7496 0.0
H139 H 0.64589 0.2541 0.71601 0.0
C140 C 0.60922 0.2899 0.22442 0.0
N141 N 0.60048 0.33017 0.25778 0.0
N142 N 0.64762 0.30224 0.19114 0.0
C143 C 0.58402 0.23748 0.22705 0.0
C144 C 0.66125 0.35144 0.20492 0.0
N145 N 0.6332 0.36802 0.24583 0.0
C146 C 0.70554 0.38106 0.18137 0.0
H147 H 0.60689 0.21424 0.25381 0.0
H148 H 0.58455 0.21683 0.18946 0.0
H149 H 0.54258 0.24123 0.24117 0.0
H150 H 0.70344 0.37619 0.13966 0.0
H151 H 0.7442 0.36498 0.19343 0.0
H152 H 0.70373 0.42294 0.19277 0.0
C153 C 0.21326 0.19557 0.79694 0.0
N154 N 0.19582 0.16444 0.83293 0.0
N155 N 0.26054 0.1784 0.77869 0.0
C156 C 0.18251 0.2401 0.77674 0.0
C157 C 0.27139 0.13575 0.80469 0.0
N158 N 0.23141 0.12672 0.83724 0.0
C159 C 0.31968 0.10218 0.79644 0.0
H160 H 0.15379 0.25627 0.80507 0.0
H161 H 0.1601 0.22595 0.7429 0.0
H162 H 0.20997 0.27106 0.7652 0.0
H163 H 0.35542 0.1269 0.79283 0.0
H164 H 0.31516 0.07898 0.7605 0.0
H165 H 0.32525 0.07554 0.82775 0.0
C166 C 0.22173 0.63237 0.30023 0.0
N167 N 0.25942 0.61887 0.33347 0.0
N168 N 0.23839 0.67328 0.27426 0.0
C169 C 0.16955 0.60531 0.29192 0.0
C170 C 0.28693 0.68479 0.29327 0.0
N171 N 0.29947 0.65204 0.32969 0.0
C172 C 0.32321 0.72552 0.27375 0.0
H173 H 0.17072 0.58315 0.25513 0.0
H174 H 0.13722 0.6345 0.28993 0.0
H175 H 0.16092 0.57837 0.32236 0.0
H176 H 0.29998 0.76022 0.26379 0.0
H177 H 0.343 0.7097 0.23895 0.0
H178 H 0.35417 0.73684 0.30181 0.0
C179 C 0.83286 0.86129 0.7093 0.0
N180 N 0.86973 0.86972 0.74547 0.0
N181 N 0.84272 0.81591 0.68371 0.0
C182 C 0.78412 0.89404 0.70278 0.0
C183 C 0.88718 0.79726 0.70513 0.0
N184 N 0.90302 0.82961 0.74364 0.0
C185 C 0.91279 0.74628 0.69004 0.0
H186 H 0.75327 0.8821 0.72985 0.0
H187 H 0.76811 0.88866 0.66395 0.0
H188 H 0.79306 0.93565 0.71095 0.0
H189 H 0.95142 0.74137 0.70939 0.0
H190 H 0.91885 0.74389 0.64856 0.0
H191 H 0.8857 0.7142 0.69948 0.0
C192 C 0.09052 0.00075 0.18444 0.0
C193 C 0.13129 -0.00265 0.14737 0.0
C194 C 0.17809 0.07035 0.18922 0.0
C195 C 0.13851 0.07244 0.22722 0.0
N196 N 0.06348 0.03494 0.26743 0.0
N197 N 0.21829 0.02314 0.11833 0.0
C198 C 0.09646 0.03621 0.22659 0.0
C199 C 0.17654 0.03025 0.15107 0.0
N200 N 0.04639 0.97011 0.17937 0.0
N201 N 0.21582 0.10829 0.18829 0.0
H202 H 0.21791 -0.00315 0.08741 0.0
H203 H 0.255 0.04114 0.12342 0.0
H204 H 0.21921 0.13745 0.21637 0.0
H205 H 0.24128 0.11336 0.15794 0.0
H206 H 0.01277 0.97459 0.20207 0.0
H207 H 0.04206 0.94168 0.1505 0.0
H208 H 0.0343 0.00695 0.27185 0.0
H209 H 0.06858 0.05974 0.29919 0.0
C210 C 0.48795 0.58813 0.66074 0.0
C211 C 0.51535 0.63242 0.64317 0.0
C212 C 0.50185 0.67401 0.72808 0.0
C213 C 0.4631 0.63612 0.73717 0.0
N214 N 0.47485 0.54429 0.73777 0.0
N215 N 0.55961 0.71377 0.66803 0.0
C216 C 0.47246 0.58833 0.71162 0.0
C217 C 0.52577 0.67458 0.6791 0.0
N218 N 0.47345 0.54707 0.62965 0.0
N219 N 0.52461 0.69986 0.76832 0.0
H220 H 0.58512 0.71233 0.63712 0.0
H221 H 0.56224 0.74799 0.6903 0.0
H222 H 0.5148 0.69052 0.80511 0.0
H223 H 0.55733 0.72427 0.76549 0.0
H224 H 0.4537 0.5151 0.64346 0.0
H225 H 0.47423 0.54756 0.59045 0.0
H226 H 0.4865 0.50867 0.72097 0.0
H227 H 0.4703 0.54575 0.77696 0.0
C228 C 0.77194 0.94585 0.06332 0.0
C229 C 0.80642 0.98628 0.08097 0.0
C230 C 0.8095 0.94948 0.16445 0.0
C231 C 0.77649 0.90861 0.14632 0.0
N232 N 0.71478 0.87432 0.08491 0.0
N233 N 0.84656 0.03447 0.15096 0.0
C234 C 0.75385 0.90907 0.09772 0.0
C235 C 0.8218 0.99048 0.13247 0.0
N236 N 0.75882 0.94084 0.01336 0.0
N237 N 0.82963 0.94834 0.21211 0.0
H238 H 0.8547 0.06586 0.12872 0.0
H239 H 0.85479 0.04202 0.189 0.0
H240 H 0.81764 0.92085 0.2374 0.0
H241 H 0.85943 0.97303 0.22589 0.0
H242 H 0.73962 0.90847 -0.00273 0.0
H243 H 0.76997 0.96749 0.98695 0.0
H244 H 0.69278 0.87535 0.05177 0.0
H245 H 0.70132 0.84692 0.10975 0.0
C246 C 0.57196 0.41091 0.63069 0.0
C247 C 0.54039 0.36532 0.6217 0.0
C248 C 0.58184 0.32982 0.69637 0.0
C249 C 0.62331 0.3658 0.69215 0.0
N250 N 0.62225 0.45827 0.69531 0.0
N251 N 0.51082 0.28318 0.65485 0.0
C252 C 0.60796 0.41263 0.67158 0.0
C253 C 0.54419 0.32481 0.65675 0.0
N254 N 0.57018 0.45144 0.59941 0.0
N255 N 0.56919 0.31307 0.74281 0.0
H256 H 0.47895 0.27904 0.6302 0.0
H257 H 0.51642 0.25176 0.6778 0.0
H258 H 0.58898 0.32781 0.77491 0.0
H259 H 0.53518 0.29141 0.74976 0.0
H260 H 0.59247 0.48493 0.6063 0.0
H261 H 0.55149 0.44964 0.56437 0.0
H262 H 0.60767 0.4942 0.68506 0.0
H263 H 0.64378 0.45853 0.72896 0.0
C264 C 0.61373 0.499 0.30927 0.0
C265 C 0.64534 0.49274 0.35266 0.0
C266 C 0.68185 0.412 0.31552 0.0
C267 C 0.64291 0.41363 0.27729 0.0
N268 N 0.57416 0.45829 0.23423 0.0
N269 N 0.71253 0.44549 0.39689 0.0
C270 C 0.60984 0.45738 0.27286 0.0
C271 C 0.68104 0.45028 0.35538 0.0
N272 N 0.5896 0.5455 0.30208 0.0
N273 N 0.71962 0.37386 0.31335 0.0
H274 H 0.71591 0.47434 0.4254 0.0
H275 H 0.73366 0.41199 0.40444 0.0
H276 H 0.72044 0.34472 0.285 0.0
H277 H 0.75247 0.37316 0.33708 0.0
H278 H 0.56978 0.55432 0.26911 0.0
H279 H 0.59387 0.57702 0.32766 0.0
H280 H 0.54428 0.48607 0.23193 0.0
H281 H 0.57349 0.42955 0.2053 0.0
C282 C 0.05466 0.13746 0.86952 0.0
C283 C 0.05252 0.16457 0.91725 0.0
C284 C 0.14085 0.20088 0.90282 0.0
C285 C 0.1457 0.16794 0.85906 0.0
N286 N 0.10847 0.10724 0.79806 0.0
N287 N 0.09274 0.22258 0.9801 0.0
C288 C 0.10274 0.13705 0.84153 0.0
C289 C 0.09508 0.19712 0.93387 0.0
N290 N 0.00992 0.114 0.85031 0.0
N291 N 0.18001 0.2361 0.91406 0.0
H292 H 0.05898 0.22308 0.00287 0.0
H293 H 0.12504 0.24126 -0.00276 0.0
H294 H 0.2143 0.23882 0.89219 0.0
H295 H 0.17707 0.26499 0.94255 0.0
H296 H 0.00725 0.09711 0.81407 0.0
H297 H 0.97356 0.11533 0.86924 0.0
H298 H 0.08171 0.07862 0.78597 0.0
H299 H 0.14157 0.11017 0.77468 0.0
C300 C 0.28406 0.55265 0.45111 0.0
C301 C 0.29258 0.50083 0.43299 0.0
C302 C 0.26954 0.52491 0.34766 0.0
C303 C 0.25938 0.57623 0.36669 0.0
N304 N 0.23964 0.63406 0.43721 0.0
N305 N 0.28376 0.43458 0.36666 0.0
C306 C 0.26032 0.58809 0.41892 0.0
C307 C 0.28166 0.48581 0.38206 0.0
N308 N 0.30244 0.56915 0.49742 0.0
N309 N 0.27079 0.51436 0.29682 0.0
H310 H 0.29361 0.40535 0.39103 0.0
H311 H 0.27172 0.42072 0.33104 0.0
H312 H 0.26189 0.5421 0.27074 0.0
H313 H 0.28398 0.47922 0.28044 0.0
H314 H 0.30173 0.60794 0.5102 0.0
H315 H 0.32367 0.54497 0.5206 0.0
H316 H 0.23599 0.64358 0.47565 0.0
H317 H 0.22145 0.66007 0.41352 0.0
C318 C 0.96525 0.79107 0.86491 0.0
C319 C 0.00834 0.82678 0.86744 0.0
C320 C 0.98865 0.85357 0.7824 0.0
C321 C 0.94343 0.82125 0.78093 0.0
N322 N 0.89322 0.75196 0.81586 0.0
N323 N 0.0642 0.88823 0.82483 0.0
C324 C 0.93367 0.78709 0.82041 0.0
C325 C 0.02111 0.85638 0.82531 0.0
N326 N 0.95212 0.76396 0.90636 0.0
N327 N 0.0018 0.88267 0.74273 0.0
H328 H 0.0913 0.89239 0.85448 0.0
H329 H 0.0913 0.89239 0.85448 0.0
H330 H 0.98069 0.88161 0.70885 0.0
H331 H 0.98069 0.88161 0.70885 0.0
H332 H 0.91746 0.74247 0.90964 0.0
H333 H 0.97442 0.76504 0.93943 0.0
H334 H 0.8876 0.72168 0.83993 0.0
H335 H 0.86613 0.75142 0.7863 0.0
C336 C 0.86182 0.93541 0.87307 0.0
C337 C 0.87701 0.98675 0.86234 0.0
C338 C 0.88693 0.96093 0.7729 0.0
C339 C 0.86946 0.91062 0.78395 0.0
N340 N 0.83321 0.85117 0.84034 0.0
N341 N 0.89565 0.05114 0.8015 0.0
C342 C 0.85445 0.8987 0.83299 0.0
C343 C 0.8872 0.00042 0.81197 0.0
N344 N 0.85395 0.92023 0.92106 0.0
N345 N 0.9043 0.97025 0.72538 0.0
H346 H 0.89632 0.08071 0.82949 0.0
H347 H 0.89831 0.06446 0.76511 0.0
H348 H 0.90281 0.94213 0.69594 0.0
H349 H 0.92294 0.00445 0.7158 0.0
H350 H 0.8598 0.94409 0.95334 0.0
H351 H 0.8598 0.94409 0.95334 0.0
H352 H 0.8209 0.83893 0.87551 0.0
H353 H 0.8209 0.83893 0.87551 0.0
C354 C 0.48126 0.35978 0.34032 0.0
C355 C 0.50408 0.35312 0.38852 0.0
C356 C 0.5867 0.32159 0.34903 0.0
C357 C 0.56575 0.3323 0.3012 0.0
N358 N 0.49505 0.3626 0.24965 0.0
N359 N 0.58011 0.33434 0.43991 0.0
C360 C 0.51338 0.35156 0.2964 0.0
C361 C 0.55736 0.33596 0.39321 0.0
N362 N 0.4288 0.37314 0.33676 0.0
N363 N 0.63418 0.29623 0.35177 0.0
H364 H 0.55962 0.34422 0.47319 0.0
H365 H 0.62033 0.32719 0.4456 0.0
H366 H 0.65555 0.28447 0.31962 0.0
H367 H 0.65001 0.28279 0.38499 0.0
H368 H 0.40803 0.37372 0.30292 0.0
H369 H 0.40498 0.38161 0.36832 0.0
H370 H 0.45956 0.38199 0.24325 0.0
H371 H 0.51694 0.35395 0.2169 0.0
C372 C 0.20237 0.05448 0.9525 0.0
C373 C 0.19192 0.00414 0.9313 0.0
C374 C 0.21231 0.03338 0.84711 0.0
C375 C 0.22489 0.08309 0.86874 0.0
N376 N 0.24684 0.1365 0.94183 0.0
N377 N 0.19849 0.94207 0.86103 0.0
C378 C 0.22485 0.09205 0.92156 0.0
C379 C 0.20069 0.99239 0.87932 0.0
N380 N 0.18816 0.06725 0.00121 0.0
N381 N 0.20894 0.02598 0.79598 0.0
H382 H 0.19027 0.91122 0.88397 0.0
H383 H 0.20939 0.93045 0.82436 0.0
H384 H 0.21754 0.05499 0.77119 0.0
H385 H 0.19388 0.99232 0.77826 0.0
H386 H 0.19008 0.10495 0.01688 0.0
H387 H 0.16977 0.0411 0.02448 0.0
H388 H 0.25171 0.14376 0.98049 0.0
H389 H 0.26503 0.16359 0.91936 0.0
C390 C 0.4358 0.60993 0.36965 0.0
C391 C 0.44091 0.63918 0.41613 0.0
C392 C 0.3555 0.68174 0.40138 0.0
C393 C 0.34872 0.64986 0.3572 0.0
N394 N 0.3795 0.58288 0.29893 0.0
N395 N 0.40117 0.69511 0.48115 0.0
C396 C 0.38808 0.61357 0.34137 0.0
C397 C 0.39961 0.6732 0.43329 0.0
N398 N 0.47742 0.58052 0.35149 0.0
N399 N 0.31987 0.72064 0.41231 0.0
H400 H 0.432 0.6884 0.50631 0.0
H401 H 0.36964 0.71583 0.49767 0.0
H402 H 0.28672 0.72707 0.38984 0.0
H403 H 0.32527 0.74883 0.44114 0.0
H404 H 0.4783 0.56212 0.31583 0.0
H405 H 0.513 0.57692 0.37094 0.0
H406 H 0.40272 0.55082 0.28822 0.0
H407 H 0.34719 0.58844 0.27519 0.0
C408 C 0.32385 0.54927 0.65528 0.0
C409 C 0.33928 0.49721 0.66019 0.0
C410 C 0.36491 0.51734 0.74767 0.0
C411 C 0.36189 0.5709 0.73805 0.0
N412 N 0.33858 0.6386 0.6819 0.0
N413 N 0.37519 0.43027 0.71106 0.0
C414 C 0.34099 0.58717 0.69168 0.0
C415 C 0.35893 0.48042 0.70682 0.0
N416 N 0.29094 0.56178 0.61686 0.0
N417 N 0.37605 0.50222 0.79518 0.0
H418 H 0.37087 0.40223 0.68195 0.0
H419 H 0.39574 0.41731 0.74217 0.0
H420 H 0.38392 0.52887 0.82495 0.0
H421 H 0.37405 0.4638 0.8056 0.0
H422 H 0.27487 0.5987 0.61326 0.0
H423 H 0.27461 0.53322 0.59247 0.0
H424 H 0.32907 0.65199 0.64652 0.0
H425 H 0.34995 0.66775 0.7079 0.0
C426 C 0.9489 0.83188 0.14297 0.0
C427 C 0.94518 0.82787 0.0896 0.0
C428 C 0.85019 0.80945 0.09578 0.0
C429 C 0.85247 0.82038 0.14834 0.0
N430 N 0.90248 0.84545 0.22265 0.0
N431 N 0.89138 0.82054 0.01444 0.0
C432 C 0.90155 0.83217 0.17228 0.0
C433 C 0.89559 0.81846 0.06566 0.0
N434 N 0.99772 0.83473 0.16549 0.0
N435 N 0.80467 0.78938 0.0751 0.0
H436 H 0.92377 0.82809 0.99132 0.0
H437 H 0.85518 0.81933 -0.00457 0.0
H438 H 0.77164 0.78102 0.09716 0.0
H439 H 0.80153 0.77653 0.03746 0.0
H440 H 0.00349 0.83266 0.2042 0.0
H441 H 0.03312 0.83509 0.14498 0.0
H442 H 0.93578 0.8605 0.24129 0.0
H443 H 0.86873 0.84456 0.24538 0.0
C444 C 0.70215 0.43341 0.56703 0.0
C445 C 0.70997 0.48776 0.57558 0.0
C446 C 0.73404 0.47358 0.66366 0.0
C447 C 0.72363 0.41986 0.65523 0.0
N448 N 0.71576 0.34675 0.59685 0.0
N449 N 0.74467 0.55839 0.62872 0.0
C450 C 0.71385 0.39924 0.606 0.0
C451 C 0.73052 0.50735 0.62261 0.0
N452 N 0.68096 0.41461 0.52252 0.0
N453 N 0.74275 0.49269 0.71178 0.0
H454 H 0.74017 0.58514 0.60078 0.0
H455 H 0.76468 0.57374 0.66024 0.0
H456 H 0.74355 0.469 0.74263 0.0
H457 H 0.74484 0.53203 0.72203 0.0
H458 H 0.66772 0.37661 0.51673 0.0
H459 H 0.67343 0.43786 0.49224 0.0
H460 H 0.71365 0.32908 0.56086 0.0
H461 H 0.72479 0.32112 0.625 0.0
C462 C 0.05552 0.16334 0.13236 0.0
C463 C 0.00066 0.15354 0.13966 0.0
C464 C 0.01457 0.15294 0.23102 0.0
C465 C 0.06885 0.16438 0.22323 0.0
N466 N 0.13674 0.19676 0.16974 0.0
N467 N 0.92568 0.14681 0.19552 0.0
C468 C 0.08783 0.17496 0.1748 0.0
C469 C 0.97931 0.15101 0.18903 0.0
N470 N 0.07735 0.1591 0.08516 0.0
N471 N 0.99752 0.14242 0.27834 0.0
H472 H 0.89944 0.14432 0.16518 0.0
H473 H 0.90697 0.14913 0.23057 0.0
H474 H 0.0225 0.14575 0.30968 0.0
H475 H 0.95984 0.12826 0.28623 0.0
H476 H 0.11815 0.16051 0.07854 0.0
H477 H 0.05523 0.14918 0.05301 0.0
H478 H 0.15139 0.20933 0.13561 0.0
H479 H 0.15998 0.20731 0.20098 0.0
C480 C 0.16718 0.7679 0.19537 0.0
C481 C 0.17827 0.746 0.14644 0.0
C482 C 0.22558 0.67358 0.18252 0.0
C483 C 0.21409 0.69517 0.23123 0.0
N484 N 0.16864 0.75684 0.28598 0.0
N485 N 0.20993 0.67481 0.09237 0.0
C486 C 0.18292 0.7405 0.23818 0.0
C487 C 0.20473 0.69758 0.13968 0.0
N488 N 0.14284 0.81533 0.20063 0.0
N489 N 0.25845 0.63141 0.17756 0.0
H490 H 0.1966 0.69214 0.05991 0.0
H491 H 0.22419 0.63729 0.08531 0.0
H492 H 0.27339 0.61258 0.20852 0.0
H493 H 0.27353 0.61682 0.14325 0.0
H494 H 0.13816 0.83595 0.23493 0.0
H495 H 0.12919 0.83559 0.17001 0.0
H496 H 0.14224 0.78714 0.29424 0.0
H497 H 0.18078 0.73746 0.31773 0.0
C498 C 0.73233 0.72973 0.63569 0.0
C499 C 0.73638 0.73755 0.58327 0.0
C500 C 0.81402 0.79341 0.59738 0.0
C501 C 0.80739 0.78856 0.64974 0.0
N502 N 0.75828 0.75808 0.72038 0.0
N503 N 0.77808 0.77855 0.5133 0.0
C504 C 0.76587 0.75844 0.6694 0.0
C505 C 0.77656 0.76981 0.56377 0.0
N506 N 0.69851 0.69291 0.65284 0.0
N507 N 0.85683 0.82006 0.58026 0.0
H508 H 0.75251 0.76033 0.4873 0.0
H509 H 0.8026 0.80577 0.49723 0.0
H510 H 0.88387 0.83877 0.60463 0.0
H511 H 0.86756 0.82125 0.54244 0.0
H512 H 0.69777 0.68148 0.68998 0.0
H513 H 0.6739 0.67045 0.62905 0.0
H514 H 0.72523 0.74174 0.73714 0.0
H515 H 0.78343 0.77737 0.7461 0.0
C516 C 0.75389 0.21357 0.13792 0.0
C517 C 0.74673 0.22142 0.08586 0.0
C518 C 0.66467 0.27002 0.10441 0.0
C519 C 0.67652 0.26866 0.15627 0.0
N520 N 0.73251 0.24177 0.22369 0.0
N521 N 0.69492 0.25537 0.01809 0.0
C522 C 0.72089 0.24067 0.17344 0.0
C523 C 0.70151 0.24858 0.06852 0.0
N524 N 0.79079 0.17856 0.15314 0.0
N525 N 0.61802 0.29215 0.09007 0.0
H526 H 0.71979 0.23842 0.99059 0.0
H527 H 0.66628 0.27953 0.00329 0.0
H528 H 0.59109 0.30841 0.11629 0.0
H529 H 0.60407 0.29121 0.05315 0.0
H530 H 0.79441 0.16731 0.1902 0.0
H531 H 0.81446 0.15679 0.12776 0.0
H532 H 0.768 0.22794 0.23821 0.0
H533 H 0.70762 0.25924 0.25079 0.0
C534 C 0.34718 0.26106 0.70056 0.0
C535 C 0.32698 0.2469 0.65202 0.0
C536 C 0.27143 0.17983 0.6869 0.0
C537 C 0.28801 0.19689 0.73575 0.0
N538 N 0.34099 0.25111 0.79124 0.0
N539 N 0.28323 0.18442 0.59642 0.0
C540 C 0.32659 0.23619 0.74313 0.0
C541 C 0.29306 0.20359 0.64437 0.0
N542 N 0.38616 0.29777 0.7055 0.0
N543 N 0.23302 0.14263 0.68177 0.0
H544 H 0.30039 0.20015 0.56469 0.0
H545 H 0.26217 0.15048 0.588 0.0
H546 H 0.21764 0.12367 0.71245 0.0
H547 H 0.21437 0.13229 0.64785 0.0
H548 H 0.40545 0.30786 0.73912 0.0
H549 H 0.40174 0.31655 0.6748 0.0
H550 H 0.36545 0.28248 0.80061 0.0
H551 H 0.32676 0.23243 0.82266 0.0
C552 C 0.69936 0.7915 0.36727 0.0
C553 C 0.66925 0.74542 0.36059 0.0
C554 C 0.67652 0.75011 0.26882 0.0
C555 C 0.71341 0.79096 0.27608 0.0
N556 N 0.76356 0.84902 0.33091 0.0
N557 N 0.62437 0.68254 0.30637 0.0
C558 C 0.72535 0.81174 0.32497 0.0
C559 C 0.65603 0.7254 0.31157 0.0
N560 N 0.70257 0.81603 0.41384 0.0
N561 N 0.66132 0.73555 0.22087 0.0
H562 H 0.60539 0.6667 0.33712 0.0
H563 H 0.61741 0.66226 0.27228 0.0
H564 H 0.67651 0.75325 0.18928 0.0
H565 H 0.63174 0.70849 0.21229 0.0
H566 H 0.7203 0.85214 0.42037 0.0
H567 H 0.68282 0.80264 0.44529 0.0
H568 H 0.77848 0.86184 0.36583 0.0
H569 H 0.78333 0.86446 0.30046 0.0
C570 C 0.83277 0.23083 0.81638 0.0
C571 C 0.81954 0.24594 0.86694 0.0
C572 C 0.77278 0.32248 0.83796 0.0
C573 C 0.77934 0.30312 0.78769 0.0
N574 N 0.81448 0.24034 0.72725 0.0
N575 N 0.77687 0.30588 0.92696 0.0
C576 C 0.80967 0.25795 0.77633 0.0
C577 C 0.79026 0.29223 0.87816 0.0
N578 N 0.86855 0.19162 0.80705 0.0
N579 N 0.74961 0.36999 0.84687 0.0
H580 H 0.79039 0.28608 0.95783 0.0
H581 H 0.74991 0.33517 0.93709 0.0
H582 H 0.73524 0.3923 0.81799 0.0
H583 H 0.74825 0.38925 0.88214 0.0
H584 H 0.88314 0.18109 0.77132 0.0
H585 H 0.88734 0.17251 0.83596 0.0
H586 H 0.83122 0.2047 0.71619 0.0
H587 H 0.79889 0.26073 0.69749 0.0
C588 C 0.22137 0.22412 0.44685 0.0
C589 C 0.26743 0.2496 0.42922 0.0
C590 C 0.24373 0.22592 0.34192 0.0
C591 C 0.19947 0.19821 0.35974 0.0
N592 N 0.14879 0.16454 0.42742 0.0
N593 N 0.32617 0.27121 0.36132 0.0
C594 C 0.18914 0.19542 0.41182 0.0
C595 C 0.27993 0.24917 0.37708 0.0
N596 N 0.20782 0.22852 0.49682 0.0
N597 N 0.24986 0.23128 0.29127 0.0
H598 H 0.35246 0.29068 0.38583 0.0
H599 H 0.34039 0.2677 0.32448 0.0
H600 H 0.22396 0.21435 0.2649 0.0
H601 H 0.27794 0.25524 0.27539 0.0
H602 H 0.17197 0.21556 0.51123 0.0
H603 H 0.23117 0.24805 0.5239 0.0
H604 H 0.14215 0.15608 0.4649 0.0
H605 H 0.12375 0.14443 0.4021 0.0
C606 C 0.29764 0.73443 0.94619 0.0
C607 C 0.25323 0.76052 0.92609 0.0
C608 C 0.28218 0.73666 0.84009 0.0
C609 C 0.32654 0.71066 0.86012 0.0
N610 N 0.38202 0.6905 0.92987 0.0
N611 N 0.20671 0.79417 0.85513 0.0
C612 C 0.33606 0.71169 0.91261 0.0
C613 C 0.24652 0.76395 0.87329 0.0
N614 N 0.30179 0.72979 -0.00278 0.0
N615 N 0.27363 0.73367 0.78926 0.0
H616 H 0.17898 0.81354 0.87843 0.0
H617 H 0.20284 0.80286 0.81738 0.0
H618 H 0.30091 0.71647 0.76416 0.0
H619 H 0.239 0.74609 0.77208 0.0
H620 H 0.33012 0.70697 0.01429 0.0
H621 H 0.27465 0.74654 0.0229 0.0
H622 H 0.39432 0.69339 0.9673 0.0
H623 H 0.41006 0.67286 0.90565 0.0
loop_
_geom_bond_atom_site_label_1
_geom_bond_atom_site_label_2
_geom_bond_distance
_geom_bond_site_symmetry_2
_ccdc_geom_bond_type
Sc0 O3 2.025 . S
Sc0 O10 2.105 1_554 S
Sc0 O13 2.105 . S
Sc0 O16 2.105 . S
Sc0 O19 2.105 1_554 S
Sc1 O3 2.025 . S
Sc1 O11 2.105 1_554 S
Sc1 O15 2.105 . S
Sc1 O17 2.105 . S
Sc1 O21 2.105 1_554 S
Sc2 O3 2.025 . S
Sc2 O12 2.105 1_554 S
Sc2 O14 2.105 . S
Sc2 O18 2.105 . S
Sc2 O20 2.105 1_554 S
O3 Sc0 2.025 . S
O3 Sc1 2.025 . S
O3 Sc2 2.025 . S
C4 O10 1.268 . S
C4 O20 1.268 . S
C5 O11 1.268 . S
C5 O19 1.268 . S
C6 O12 1.268 . S
C6 O21 1.268 . S
C7 O13 1.268 . S
C7 O17 1.268 . S
C8 O14 1.268 . S
C8 O16 1.268 . S
C9 O15 1.268 . S
C9 O18 1.268 . S
O10 Sc0 2.105 1_556 S
O10 C4 1.268 . S
O11 Sc1 2.105 1_556 S
O11 C5 1.268 . S
O12 Sc2 2.105 1_556 S
O12 C6 1.268 . S
O13 Sc0 2.105 . S
O13 C7 1.268 . S
O14 Sc2 2.105 . S
O14 C8 1.268 . S
O15 Sc1 2.105 . S
O15 C9 1.268 . S
O16 Sc0 2.105 . S
O16 C8 1.268 . S
O17 Sc1 2.105 . S
O17 C7 1.268 . S
O18 Sc2 2.105 . S
O18 C9 1.268 . S
O19 Sc0 2.105 1_556 S
O19 C5 1.268 . S
O20 Sc2 2.105 1_556 S
O20 C4 1.268 . S
O21 Sc1 2.105 1_556 S
O21 C6 1.268 . S
Sc22 O25 2.025 . S
Sc22 O32 2.105 . S
Sc22 O35 2.105 . S
Sc22 O38 2.105 . S
Sc22 O41 2.105 . S
Sc23 O25 2.025 . S
Sc23 O33 2.105 . S
Sc23 O37 2.105 . S
Sc23 O39 2.105 . S
Sc23 O43 2.105 . S
Sc24 O25 2.025 . S
Sc24 O34 2.105 . S
Sc24 O36 2.105 . S
Sc24 O40 2.105 . S
Sc24 O42 2.105 . S
O25 Sc22 2.025 . S
O25 Sc23 2.025 . S
O25 Sc24 2.025 . S
C26 O32 1.268 . S
C26 O42 1.268 . S
C27 O33 1.268 . S
C27 O41 1.268 . S
C28 O34 1.268 . S
C28 O43 1.268 . S
C29 O35 1.268 . S
C29 O39 1.268 . S
C30 O36 1.268 . S
C30 O38 1.268 . S
C31 O37 1.268 . S
C31 O40 1.268 . S
O32 Sc22 2.105 . S
O32 C26 1.268 . S
O33 Sc23 2.105 . S
O33 C27 1.268 . S
O34 Sc24 2.105 . S
O34 C28 1.268 . S
O35 Sc22 2.105 . S
O35 C29 1.268 . S
O36 Sc24 2.105 . S
O36 C30 1.268 . S
O37 Sc23 2.105 . S
O37 C31 1.268 . S
O38 Sc22 2.105 . S
O38 C30 1.268 . S
O39 Sc23 2.105 . S
O39 C29 1.268 . S
O40 Sc24 2.105 . S
O40 C31 1.268 . S
O41 Sc22 2.105 . S
O41 C27 1.268 . S
O42 Sc24 2.105 . S
O42 C26 1.268 . S
O43 Sc23 2.105 . S
O43 C28 1.268 . S
Sc44 O47 2.025 . S
Sc44 O54 2.105 1_554 S
Sc44 O57 2.105 . S
Sc44 O60 2.105 . S
Sc44 O63 2.105 1_554 S
Sc45 O47 2.025 1_556 S
Sc45 O55 2.105 . S
Sc45 O59 2.105 1_556 S
Sc45 O61 2.105 1_556 S
Sc45 O65 2.105 . S
Sc46 O47 2.025 . S
Sc46 O56 2.105 1_554 S
Sc46 O58 2.105 . S
Sc46 O62 2.105 . S
Sc46 O64 2.105 1_554 S
O47 Sc44 2.025 . S
O47 Sc45 2.025 1_554 S
O47 Sc46 2.025 . S
C48 O54 1.268 . S
C48 O64 1.268 . S
C49 O55 1.268 . S
C49 O63 1.268 . S
C50 O56 1.268 . S
C50 O65 1.268 . S
C51 O57 1.268 . S
C51 O61 1.268 . S
C52 O58 1.268 . S
C52 O60 1.268 . S
C53 O59 1.268 . S
C53 O62 1.268 . S
O54 Sc44 2.105 1_556 S
O54 C48 1.268 . S
O55 Sc45 2.105 . S
O55 C49 1.268 . S
O56 Sc46 2.105 1_556 S
O56 C50 1.268 . S
O57 Sc44 2.105 . S
O57 C51 1.268 . S
O58 Sc46 2.105 . S
O58 C52 1.268 . S
O59 Sc45 2.105 1_554 S
O59 C53 1.268 . S
O60 Sc44 2.105 . S
O60 C52 1.268 . S
O61 Sc45 2.105 1_554 S
O61 C51 1.268 . S
O62 Sc46 2.105 . S
O62 C53 1.268 . S
O63 Sc44 2.105 1_556 S
O63 C49 1.268 . S
O64 Sc46 2.105 1_556 S
O64 C48 1.268 . S
O65 Sc45 2.105 . S
O65 C50 1.268 . S
Sc66 O69 2.025 . S
Sc66 O76 2.105 . S
Sc66 O79 2.105 . S
Sc66 O82 2.105 . S
Sc66 O85 2.105 . S
Sc67 O69 2.025 . S
Sc67 O77 2.105 . S
Sc67 O81 2.105 . S
Sc67 O83 2.105 . S
Sc67 O87 2.105 . S
Sc68 O69 2.025 . S
Sc68 O78 2.105 . S
Sc68 O80 2.105 . S
Sc68 O84 2.105 . S
Sc68 O86 2.105 . S
O69 Sc66 2.025 . S
O69 Sc67 2.025 . S
O69 Sc68 2.025 . S
C70 O76 1.268 . S
C70 O86 1.268 . S
C71 O77 1.268 . S
C71 O85 1.268 . S
C72 O78 1.268 . S
C72 O87 1.268 . S
C73 O79 1.268 . S
C73 O83 1.268 . S
C74 O80 1.268 . S
C74 O82 1.268 . S
C75 O81 1.268 . S
C75 O84 1.268 . S
O76 Sc66 2.105 . S
O76 C70 1.268 . S
O77 Sc67 2.105 . S
O77 C71 1.268 . S
O78 Sc68 2.105 . S
O78 C72 1.268 . S
O79 Sc66 2.105 . S
O79 C73 1.268 . S
O80 Sc68 2.105 . S
O80 C74 1.268 . S
O81 Sc67 2.105 . S
O81 C75 1.268 . S
O82 Sc66 2.105 . S
O82 C74 1.268 . S
O83 Sc67 2.105 . S
O83 C73 1.268 . S
O84 Sc68 2.105 . S
O84 C75 1.268 . S
O85 Sc66 2.105 . S
O85 C71 1.268 . S
O86 Sc68 2.105 . S
O86 C70 1.268 . S
O87 Sc67 2.105 . S
O87 C72 1.268 . S
C88 N89 1.317 . S
C88 N90 1.348 . S
C88 C91 1.485 . S
N89 C88 1.317 . S
N89 N93 1.370 . S
N90 C88 1.348 . S
N90 C92 1.346 . S
C91 C88 1.485 . S
C91 H95 0.960 . S
C91 H96 0.961 . S
C91 H97 0.960 . S
C92 N90 1.346 . S
C92 N93 1.307 . S
C92 C94 1.486 . S
N93 N89 1.370 . S
N93 C92 1.307 . S
C94 C92 1.486 . S
C94 H98 0.960 . S
C94 H99 0.960 . S
C94 H100 0.959 . S
H95 C91 0.960 . S
H96 C91 0.961 . S
H97 C91 0.960 . S
H98 C94 0.960 . S
H99 C94 0.960 . S
H100 C94 0.959 . S
C101 N102 1.317 . S
C101 N103 1.348 . S
C101 C104 1.485 . S
N102 C101 1.317 . S
N102 N106 1.370 . S
N103 C101 1.348 . S
N103 C105 1.346 . S
C104 C101 1.485 . S
C104 H108 0.960 . S
C104 H109 0.961 . S
C104 H110 0.960 . S
C105 N103 1.346 . S
C105 N106 1.307 . S
C105 C107 1.486 . S
N106 N102 1.370 . S
N106 C105 1.307 . S
C107 C105 1.486 . S
C107 H111 0.960 . S
C107 H112 0.960 . S
C107 H113 0.959 . S
H108 C104 0.960 . S
H109 C104 0.961 . S
H110 C104 0.960 . S
H111 C107 0.960 . S
H112 C107 0.960 . S
H113 C107 0.959 . S
C114 N115 1.317 . S
C114 N116 1.348 . S
C114 C117 1.485 . S
N115 C114 1.317 . S
N115 N119 1.370 . S
N116 C114 1.348 . S
N116 C118 1.346 . S
C117 C114 1.485 . S
C117 H121 0.960 . S
C117 H122 0.961 . S
C117 H123 0.960 . S
C118 N116 1.346 . S
C118 N119 1.307 . S
C118 C120 1.486 . S
N119 N115 1.370 . S
N119 C118 1.307 . S
C120 C118 1.486 . S
C120 H124 0.960 . S
C120 H125 0.960 . S
C120 H126 0.959 . S
H121 C117 0.960 . S
H122 C117 0.961 . S
H123 C117 0.960 . S
H124 C120 0.960 . S
H125 C120 0.960 . S
H126 C120 0.959 . S
C127 N128 1.317 . S
C127 N129 1.348 . S
C127 C130 1.485 . S
N128 C127 1.317 . S
N128 N132 1.370 . S
N129 C127 1.348 . S
N129 C131 1.346 . S
C130 C127 1.485 . S
C130 H134 0.960 . S
C130 H135 0.961 . S
C130 H136 0.960 . S
C131 N129 1.346 . S
C131 N132 1.307 . S
C131 C133 1.486 . S
N132 N128 1.370 . S
N132 C131 1.307 . S
C133 C131 1.486 . S
C133 H137 0.960 . S
C133 H138 0.960 . S
C133 H139 0.959 . S
H134 C130 0.960 . S
H135 C130 0.961 . S
H136 C130 0.960 . S
H137 C133 0.960 . S
H138 C133 0.960 . S
H139 C133 0.959 . S
C140 N141 1.317 . S
C140 N142 1.348 . S
C140 C143 1.485 . S
N141 C140 1.317 . S
N141 N145 1.370 . S
N142 C140 1.348 . S
N142 C144 1.346 . S
C143 C140 1.485 . S
C143 H147 0.960 . S
C143 H148 0.961 . S
C143 H149 0.960 . S
C144 N142 1.346 . S
C144 N145 1.307 . S
C144 C146 1.486 . S
N145 N141 1.370 . S
N145 C144 1.307 . S
C146 C144 1.486 . S
C146 H150 0.960 . S
C146 H151 0.960 . S
C146 H152 0.959 . S
H147 C143 0.960 . S
H148 C143 0.961 . S
H149 C143 0.960 . S
H150 C146 0.960 . S
H151 C146 0.960 . S
H152 C146 0.959 . S
C153 N154 1.317 . S
C153 N155 1.348 . S
C153 C156 1.485 . S
N154 C153 1.317 . S
N154 N158 1.370 . S
N155 C153 1.348 . S
N155 C157 1.346 . S
C156 C153 1.485 . S
C156 H160 0.960 . S
C156 H161 0.961 . S
C156 H162 0.960 . S
C157 N155 1.346 . S
C157 N158 1.307 . S
C157 C159 1.486 . S
N158 N154 1.370 . S
N158 C157 1.307 . S
C159 C157 1.486 . S
C159 H163 0.960 . S
C159 H164 0.960 . S
C159 H165 0.959 . S
H160 C156 0.960 . S
H161 C156 0.961 . S
H162 C156 0.960 . S
H163 C159 0.960 . S
H164 C159 0.960 . S
H165 C159 0.959 . S
C166 N167 1.317 . S
C166 N168 1.348 . S
C166 C169 1.485 . S
N167 C166 1.317 . S
N167 N171 1.370 . S
N168 C166 1.348 . S
N168 C170 1.346 . S
C169 C166 1.485 . S
C169 H173 0.960 . S
C169 H174 0.961 . S
C169 H175 0.960 . S
C170 N168 1.346 . S
C170 N171 1.307 . S
C170 C172 1.486 . S
N171 N167 1.370 . S
N171 C170 1.307 . S
C172 C170 1.486 . S
C172 H176 0.960 . S
C172 H177 0.960 . S
C172 H178 0.959 . S
H173 C169 0.960 . S
H174 C169 0.961 . S
H175 C169 0.960 . S
H176 C172 0.960 . S
H177 C172 0.960 . S
H178 C172 0.959 . S
C179 N180 1.317 . S
C179 N181 1.348 . S
C179 C182 1.485 . S
N180 C179 1.317 . S
N180 N184 1.370 . S
N181 C179 1.348 . S
N181 C183 1.346 . S
C182 C179 1.485 . S
C182 H186 0.960 . S
C182 H187 0.961 . S
C182 H188 0.960 . S
C183 N181 1.346 . S
C183 N184 1.307 . S
C183 C185 1.486 . S
N184 N180 1.370 . S
N184 C183 1.307 . S
C185 C183 1.486 . S
C185 H189 0.960 . S
C185 H190 0.960 . S
C185 H191 0.959 . S
H186 C182 0.960 . S
H187 C182 0.961 . S
H188 C182 0.960 . S
H189 C185 0.960 . S
H190 C185 0.960 . S
H191 C185 0.959 . S
C192 C193 1.363 . S
C192 C198 1.379 1_565 S
C192 N200 1.356 . S
C193 C192 1.363 . S
C193 C199 1.363 1_565 S
C194 C195 1.363 . S
C194 C199 1.379 . S
C194 N201 1.356 . S
C195 C194 1.363 . S
C195 C198 1.363 . S
N196 C198 1.356 . S
N196 H208 0.984 . S
N196 H209 0.985 . S
N197 C199 1.356 . S
N197 H202 0.984 . S
N197 H203 0.985 . S
C198 C192 1.379 1_545 S
C198 C195 1.363 . S
C198 N196 1.356 . S
C199 C193 1.363 1_545 S
C199 C194 1.379 . S
C199 N197 1.356 . S
N200 C192 1.356 . S
N200 H206 0.984 . S
N200 H207 0.984 . S
N201 C194 1.356 . S
N201 H204 0.984 . S
N201 H205 0.985 . S
H202 N197 0.984 . S
H203 N197 0.985 . S
H204 N201 0.984 . S
H205 N201 0.985 . S
H206 N200 0.984 . S
H207 N200 0.984 . S
H208 N196 0.984 . S
H209 N196 0.985 . S
C210 C211 1.363 . S
C210 C216 1.379 . S
C210 N218 1.356 . S
C211 C210 1.363 . S
C211 C217 1.363 . S
C212 C213 1.363 . S
C212 C217 1.379 . S
C212 N219 1.356 . S
C213 C212 1.363 . S
C213 C216 1.363 . S
N214 C216 1.356 . S
N214 H226 0.984 . S
N214 H227 0.985 . S
N215 C217 1.356 . S
N215 H220 0.984 . S
N215 H221 0.985 . S
C216 C210 1.379 . S
C216 C213 1.363 . S
C216 N214 1.356 . S
C217 C211 1.363 . S
C217 C212 1.379 . S
C217 N215 1.356 . S
N218 C210 1.356 . S
N218 H224 0.984 . S
N218 H225 0.984 . S
N219 C212 1.356 . S
N219 H222 0.984 . S
N219 H223 0.985 . S
H220 N215 0.984 . S
H221 N215 0.985 . S
H222 N219 0.984 . S
H223 N219 0.985 . S
H224 N218 0.984 . S
H225 N218 0.984 . S
H226 N214 0.984 . S
H227 N214 0.985 . S
C228 C229 1.371 . S
C228 C234 1.379 . S
C228 N236 1.356 . S
C229 C228 1.371 . S
C229 C235 1.363 1_565 S
C230 C231 1.363 . S
C230 C235 1.379 1_565 S
C230 N237 1.356 . S
C231 C230 1.363 . S
C231 C234 1.363 . S
N232 C234 1.356 . S
N232 H244 0.984 . S
N232 H245 0.985 . S
N233 C235 1.356 . S
N233 H238 0.984 . S
N233 H239 0.985 . S
C234 C228 1.379 . S
C234 C231 1.363 . S
C234 N232 1.356 . S
C235 C229 1.363 1_545 S
C235 C230 1.379 1_545 S
C235 N233 1.356 . S
N236 C228 1.356 . S
N236 H242 0.984 . S
N236 H243 0.980 1_565 S
N237 C230 1.356 . S
N237 H240 0.984 . S
N237 H241 0.985 . S
H238 N233 0.984 . S
H239 N233 0.985 . S
H240 N237 0.984 . S
H241 N237 0.985 . S
H242 N236 0.984 . S
H243 N236 0.980 1_545 S
H244 N232 0.984 . S
H245 N232 0.985 . S
C246 C247 1.363 . S
C246 C252 1.379 . S
C246 N254 1.356 . S
C247 C246 1.363 . S
C247 C253 1.363 . S
C248 C249 1.363 . S
C248 C253 1.379 . S
C248 N255 1.356 . S
C249 C248 1.363 . S
C249 C252 1.363 . S
N250 C252 1.356 . S
N250 H262 0.984 . S
N250 H263 0.985 . S
N251 C253 1.356 . S
N251 H256 0.984 . S
N251 H257 0.985 . S
C252 C246 1.379 . S
C252 C249 1.363 . S
C252 N250 1.356 . S
C253 C247 1.363 . S
C253 C248 1.379 . S
C253 N251 1.356 . S
N254 C246 1.356 . S
N254 H260 0.984 . S
N254 H261 0.984 . S
N255 C248 1.356 . S
N255 H258 0.984 . S
N255 H259 0.985 . S
H256 N251 0.984 . S
H257 N251 0.985 . S
H258 N255 0.984 . S
H259 N255 0.985 . S
H260 N254 0.984 . S
H261 N254 0.984 . S
H262 N250 0.984 . S
H263 N250 0.985 . S
C264 C265 1.363 . S
C264 C270 1.379 . S
C264 N272 1.356 . S
C265 C264 1.363 . S
C265 C271 1.363 . S
C266 C267 1.363 . S
C266 C271 1.379 . S
C266 N273 1.356 . S
C267 C266 1.363 . S
C267 C270 1.363 . S
N268 C270 1.356 . S
N268 H280 0.984 . S
N268 H281 0.985 . S
N269 C271 1.356 . S
N269 H274 0.984 . S
N269 H275 0.985 . S
C270 C264 1.379 . S
C270 C267 1.363 . S
C270 N268 1.356 . S
C271 C265 1.363 . S
C271 C266 1.379 . S
C271 N269 1.356 . S
N272 C264 1.356 . S
N272 H278 0.984 . S
N272 H279 0.984 . S
N273 C266 1.356 . S
N273 H276 0.984 . S
N273 H277 0.985 . S
H274 N269 0.984 . S
H275 N269 0.985 . S
H276 N273 0.984 . S
H277 N273 0.985 . S
H278 N272 0.984 . S
H279 N272 0.984 . S
H280 N268 0.984 . S
H281 N268 0.985 . S
C282 C283 1.363 . S
C282 C288 1.379 . S
C282 N290 1.356 . S
C283 C282 1.363 . S
C283 C289 1.363 . S
C284 C285 1.363 . S
C284 C289 1.379 . S
C284 N291 1.356 . S
C285 C284 1.363 . S
C285 C288 1.363 . S
N286 C288 1.356 . S
N286 H298 0.984 . S
N286 H299 0.985 . S
N287 C289 1.356 1_655 S
N287 H292 0.984 . S
N287 H293 0.985 . S
C288 C282 1.379 . S
C288 C285 1.363 . S
C288 N286 1.356 . S
C289 C283 1.363 . S
C289 C284 1.379 . S
C289 N287 1.356 1_455 S
N290 C282 1.356 . S
N290 H296 0.984 . S
N290 H297 0.984 1_455 S
N291 C284 1.356 . S
N291 H294 0.984 . S
N291 H295 0.985 . S
H292 N287 0.984 . S
H293 N287 0.985 . S
H294 N291 0.984 . S
H295 N291 0.985 . S
H296 N290 0.984 . S
H297 N290 0.984 1_655 S
H298 N286 0.984 . S
H299 N286 0.985 . S
C300 C301 1.363 . S
C300 C306 1.379 . S
C300 N308 1.356 . S
C301 C300 1.363 . S
C301 C307 1.363 . S
C302 C303 1.363 . S
C302 C307 1.379 . S
C302 N309 1.356 . S
C303 C302 1.363 . S
C303 C306 1.363 . S
N304 C306 1.356 . S
N304 H316 0.984 . S
N304 H317 0.985 . S
N305 C307 1.356 . S
N305 H310 0.984 . S
N305 H311 0.985 . S
C306 C300 1.379 . S
C306 C303 1.363 . S
C306 N304 1.356 . S
C307 C301 1.363 . S
C307 C302 1.379 . S
C307 N305 1.356 . S
N308 C300 1.356 . S
N308 H314 0.984 . S
N308 H315 0.984 . S
N309 C302 1.356 . S
N309 H312 0.984 . S
N309 H313 0.985 . S
H310 N305 0.984 . S
H311 N305 0.985 . S
H312 N309 0.984 . S
H313 N309 0.985 . S
H314 N308 0.984 . S
H315 N308 0.984 . S
H316 N304 0.984 . S
H317 N304 0.985 . S
C318 C319 1.363 . S
C318 C324 1.379 1_455 S
C318 N326 1.356 . S
C319 C318 1.363 . S
C319 C325 1.363 1_455 S
C320 C321 1.363 . S
C320 C325 1.379 . S
C320 N327 1.356 . S
C321 C320 1.363 . S
C321 C324 1.363 . S
N322 C324 1.356 . S
N322 H334 0.984 . S
N322 H335 0.985 . S
N323 C325 1.356 . S
N323 H328 0.984 1_655 S
N323 H329 0.985 . S
C324 C318 1.379 1_655 S
C324 C321 1.363 . S
C324 N322 1.356 . S
C325 C319 1.363 1_655 S
C325 C320 1.379 . S
C325 N323 1.356 . S
N326 C318 1.356 . S
N326 H332 0.984 . S
N326 H333 0.984 . S
N327 C320 1.356 . S
N327 H330 0.984 . S
N327 H331 0.985 . S
H328 N323 0.984 1_455 S
H329 N323 0.985 . S
H330 N327 0.984 . S
H331 N327 0.985 . S
H332 N326 0.984 . S
H333 N326 0.984 . S
H334 N322 0.984 . S
H335 N322 0.985 . S
C336 C337 1.363 1_565 S
C336 C342 1.379 . S
C336 N344 1.356 . S
C337 C336 1.363 1_545 S
C337 C343 1.363 . S
C338 C339 1.363 . S
C338 C343 1.376 1_565 S
C338 N345 1.356 . S
C339 C338 1.363 . S
C339 C342 1.363 . S
N340 C342 1.356 . S
N340 H352 0.984 . S
N340 H353 0.985 . S
N341 C343 1.359 . S
N341 H346 0.984 . S
N341 H347 0.985 . S
C342 C336 1.379 . S
C342 C339 1.363 . S
C342 N340 1.356 . S
C343 C337 1.363 . S
C343 C338 1.376 1_545 S
C343 N341 1.359 . S
N344 C336 1.356 . S
N344 H350 0.984 . S
N344 H351 0.984 1_565 S
N345 C338 1.356 . S
N345 H348 0.984 . S
N345 H349 0.985 . S
H346 N341 0.984 . S
H347 N341 0.985 . S
H348 N345 0.984 . S
H349 N345 0.985 . S
H350 N344 0.984 . S
H351 N344 0.984 1_545 S
H352 N340 0.984 . S
H353 N340 0.985 . S
C354 C355 1.363 . S
C354 C360 1.379 . S
C354 N362 1.356 . S
C355 C354 1.363 . S
C355 C361 1.363 . S
C356 C357 1.363 . S
C356 C361 1.379 . S
C356 N363 1.356 . S
C357 C356 1.363 . S
C357 C360 1.363 . S
N358 C360 1.356 . S
N358 H370 0.984 . S
N358 H371 0.985 . S
N359 C361 1.356 . S
N359 H364 0.984 . S
N359 H365 0.985 . S
C360 C354 1.379 . S
C360 C357 1.363 . S
C360 N358 1.356 . S
C361 C355 1.363 . S
C361 C356 1.379 . S
C361 N359 1.356 . S
N362 C354 1.356 . S
N362 H368 0.984 . S
N362 H369 0.984 . S
N363 C356 1.356 . S
N363 H366 0.984 . S
N363 H367 0.985 . S
H364 N359 0.984 . S
H365 N359 0.985 . S
H366 N363 0.984 . S
H367 N363 0.985 . S
H368 N362 0.984 . S
H369 N362 0.984 . S
H370 N358 0.984 . S
H371 N358 0.985 . S
C372 C373 1.376 . S
C372 C378 1.379 . S
C372 N380 1.356 . S
C373 C372 1.376 . S
C373 C379 1.364 1_545 S
C374 C375 1.363 . S
C374 C379 1.363 1_545 S
C374 N381 1.356 . S
C375 C374 1.363 . S
C375 C378 1.363 . S
N376 C378 1.356 . S
N376 H388 0.984 . S
N376 H389 0.985 . S
N377 C379 1.374 . S
N377 H382 0.984 . S
N377 H383 0.985 . S
C378 C372 1.379 . S
C378 C375 1.363 . S
C378 N376 1.356 . S
C379 C373 1.364 1_565 S
C379 C374 1.363 1_565 S
C379 N377 1.374 . S
N380 C372 1.356 . S
N380 H386 0.984 1_556 S
N380 H387 0.984 1_545 S
N381 C374 1.356 . S
N381 H384 0.984 . S
N381 H385 0.985 . S
H382 N377 0.984 . S
H383 N377 0.985 . S
H384 N381 0.984 . S
H385 N381 0.985 . S
H386 N380 0.984 1_554 S
H387 N380 0.984 1_565 S
H388 N376 0.984 . S
H389 N376 0.985 . S
C390 C391 1.363 . S
C390 C396 1.379 . S
C390 N398 1.356 . S
C391 C390 1.363 . S
C391 C397 1.363 . S
C392 C393 1.363 . S
C392 C397 1.379 . S
C392 N399 1.356 . S
C393 C392 1.363 . S
C393 C396 1.363 . S
N394 C396 1.356 . S
N394 H406 0.984 . S
N394 H407 0.985 . S
N395 C397 1.356 . S
N395 H400 0.984 . S
N395 H401 0.985 . S
C396 C390 1.379 . S
C396 C393 1.363 . S
C396 N394 1.356 . S
C397 C391 1.363 . S
C397 C392 1.379 . S
C397 N395 1.356 . S
N398 C390 1.356 . S
N398 H404 0.984 . S
N398 H405 0.984 . S
N399 C392 1.356 . S
N399 H402 0.984 . S
N399 H403 0.985 . S
H400 N395 0.984 . S
H401 N395 0.985 . S
H402 N399 0.984 . S
H403 N399 0.985 . S
H404 N398 0.984 . S
H405 N398 0.984 . S
H406 N394 0.984 . S
H407 N394 0.985 . S
C408 C409 1.363 . S
C408 C414 1.379 . S
C408 N416 1.356 . S
C409 C408 1.363 . S
C409 C415 1.363 . S
C410 C411 1.363 . S
C410 C415 1.379 . S
C410 N417 1.356 . S
C411 C410 1.363 . S
C411 C414 1.363 . S
N412 C414 1.356 . S
N412 H424 0.984 . S
N412 H425 0.985 . S
N413 C415 1.356 . S
N413 H418 0.984 . S
N413 H419 0.985 . S
C414 C408 1.379 . S
C414 C411 1.363 . S
C414 N412 1.356 . S
C415 C409 1.363 . S
C415 C410 1.379 . S
C415 N413 1.356 . S
N416 C408 1.356 . S
N416 H422 0.984 . S
N416 H423 0.984 . S
N417 C410 1.356 . S
N417 H420 0.984 . S
N417 H421 0.985 . S
H418 N413 0.984 . S
H419 N413 0.985 . S
H420 N417 0.984 . S
H421 N417 0.985 . S
H422 N416 0.984 . S
H423 N416 0.984 . S
H424 N412 0.984 . S
H425 N412 0.985 . S
C426 C427 1.363 . S
C426 C432 1.379 . S
C426 N434 1.356 1_655 S
C427 C426 1.363 . S
C427 C433 1.363 . S
C428 C429 1.363 . S
C428 C433 1.379 . S
C428 N435 1.356 . S
C429 C428 1.363 . S
C429 C432 1.363 . S
N430 C432 1.356 . S
N430 H442 0.984 . S
N430 H443 0.985 . S
N431 C433 1.356 . S
N431 H436 0.984 1_655 S
N431 H437 0.985 . S
C432 C426 1.379 . S
C432 C429 1.363 . S
C432 N430 1.356 . S
C433 C427 1.363 . S
C433 C428 1.379 . S
C433 N431 1.356 . S
N434 C426 1.356 1_455 S
N434 H440 0.984 . S
N434 H441 0.984 . S
N435 C428 1.356 . S
N435 H438 0.984 . S
N435 H439 0.985 . S
H436 N431 0.984 1_455 S
H437 N431 0.985 . S
H438 N435 0.984 . S
H439 N435 0.985 . S
H440 N434 0.984 . S
H441 N434 0.984 . S
H442 N430 0.984 . S
H443 N430 0.985 . S
C444 C445 1.363 . S
C444 C450 1.379 . S
C444 N452 1.356 . S
C445 C444 1.363 . S
C445 C451 1.363 . S
C446 C447 1.363 . S
C446 C451 1.379 . S
C446 N453 1.356 . S
C447 C446 1.363 . S
C447 C450 1.363 . S
N448 C450 1.356 . S
N448 H460 0.984 . S
N448 H461 0.985 . S
N449 C451 1.356 . S
N449 H454 0.984 . S
N449 H455 0.985 . S
C450 C444 1.379 . S
C450 C447 1.363 . S
C450 N448 1.356 . S
C451 C445 1.363 . S
C451 C446 1.379 . S
C451 N449 1.356 . S
N452 C444 1.356 . S
N452 H458 0.984 . S
N452 H459 0.984 . S
N453 C446 1.356 . S
N453 H456 0.984 . S
N453 H457 0.985 . S
H454 N449 0.984 . S
H455 N449 0.985 . S
H456 N453 0.984 . S
H457 N453 0.985 . S
H458 N452 0.984 . S
H459 N452 0.984 . S
H460 N448 0.984 . S
H461 N448 0.985 . S
C462 C463 1.363 1_455 S
C462 C468 1.379 . S
C462 N470 1.356 . S
C463 C462 1.363 1_655 S
C463 C469 1.363 . S
C464 C465 1.363 . S
C464 C469 1.379 1_455 S
C464 N471 1.356 . S
C465 C464 1.363 . S
C465 C468 1.363 . S
N466 C468 1.356 . S
N466 H478 0.984 . S
N466 H479 0.985 . S
N467 C469 1.356 . S
N467 H472 0.984 . S
N467 H473 0.985 . S
C468 C462 1.379 . S
C468 C465 1.363 . S
C468 N466 1.356 . S
C469 C463 1.363 . S
C469 C464 1.379 1_655 S
C469 N467 1.356 . S
N470 C462 1.356 . S
N470 H476 0.984 . S
N470 H477 0.984 1_455 S
N471 C464 1.356 . S
N471 H474 0.984 . S
N471 H475 0.985 1_455 S
H472 N467 0.984 . S
H473 N467 0.985 . S
H474 N471 0.984 . S
H475 N471 0.985 1_655 S
H476 N470 0.984 . S
H477 N470 0.984 1_655 S
H478 N466 0.984 . S
H479 N466 0.985 . S
C480 C481 1.363 . S
C480 C486 1.379 . S
C480 N488 1.356 . S
C481 C480 1.363 . S
C481 C487 1.363 . S
C482 C483 1.363 . S
C482 C487 1.379 . S
C482 N489 1.356 . S
C483 C482 1.363 . S
C483 C486 1.363 . S
N484 C486 1.356 . S
N484 H496 0.984 . S
N484 H497 0.985 . S
N485 C487 1.356 . S
N485 H490 0.984 . S
N485 H491 0.985 . S
C486 C480 1.379 . S
C486 C483 1.363 . S
C486 N484 1.356 . S
C487 C481 1.363 . S
C487 C482 1.379 . S
C487 N485 1.356 . S
N488 C480 1.356 . S
N488 H494 0.984 . S
N488 H495 0.984 . S
N489 C482 1.356 . S
N489 H492 0.984 . S
N489 H493 0.985 . S
H490 N485 0.984 . S
H491 N485 0.985 . S
H492 N489 0.984 . S
H493 N489 0.985 . S
H494 N488 0.984 . S
H495 N488 0.984 . S
H496 N484 0.984 . S
H497 N484 0.985 . S
C498 C499 1.363 . S
C498 C504 1.379 . S
C498 N506 1.356 . S
C499 C498 1.363 . S
C499 C505 1.363 . S
C500 C501 1.363 . S
C500 C505 1.379 . S
C500 N507 1.356 . S
C501 C500 1.363 . S
C501 C504 1.363 . S
N502 C504 1.356 . S
N502 H514 0.984 . S
N502 H515 0.985 . S
N503 C505 1.356 . S
N503 H508 0.984 . S
N503 H509 0.985 . S
C504 C498 1.379 . S
C504 C501 1.363 . S
C504 N502 1.356 . S
C505 C499 1.363 . S
C505 C500 1.379 . S
C505 N503 1.356 . S
N506 C498 1.356 . S
N506 H512 0.984 . S
N506 H513 0.984 . S
N507 C500 1.356 . S
N507 H510 0.984 . S
N507 H511 0.985 . S
H508 N503 0.984 . S
H509 N503 0.985 . S
H510 N507 0.984 . S
H511 N507 0.985 . S
H512 N506 0.984 . S
H513 N506 0.984 . S
H514 N502 0.984 . S
H515 N502 0.985 . S
C516 C517 1.363 . S
C516 C522 1.379 . S
C516 N524 1.356 . S
C517 C516 1.363 . S
C517 C523 1.363 . S
C518 C519 1.363 . S
C518 C523 1.379 . S
C518 N525 1.356 . S
C519 C518 1.363 . S
C519 C522 1.363 . S
N520 C522 1.356 . S
N520 H532 0.984 . S
N520 H533 0.985 . S
N521 C523 1.356 . S
N521 H526 0.984 . S
N521 H527 0.985 . S
C522 C516 1.379 . S
C522 C519 1.363 . S
C522 N520 1.356 . S
C523 C517 1.363 . S
C523 C518 1.379 . S
C523 N521 1.356 . S
N524 C516 1.356 . S
N524 H530 0.984 . S
N524 H531 0.984 . S
N525 C518 1.356 . S
N525 H528 0.984 . S
N525 H529 0.985 . S
H526 N521 0.984 . S
H527 N521 0.985 . S
H528 N525 0.984 . S
H529 N525 0.985 . S
H530 N524 0.984 . S
H531 N524 0.984 . S
H532 N520 0.984 . S
H533 N520 0.985 . S
C534 C535 1.363 . S
C534 C540 1.379 . S
C534 N542 1.356 . S
C535 C534 1.363 . S
C535 C541 1.363 . S
C536 C537 1.363 . S
C536 C541 1.379 . S
C536 N543 1.356 . S
C537 C536 1.363 . S
C537 C540 1.363 . S
N538 C540 1.356 . S
N538 H550 0.984 . S
N538 H551 0.985 . S
N539 C541 1.356 . S
N539 H544 0.984 . S
N539 H545 0.985 . S
C540 C534 1.379 . S
C540 C537 1.363 . S
C540 N538 1.356 . S
C541 C535 1.363 . S
C541 C536 1.379 . S
C541 N539 1.356 . S
N542 C534 1.356 . S
N542 H548 0.984 . S
N542 H549 0.984 . S
N543 C536 1.356 . S
N543 H546 0.984 . S
N543 H547 0.985 . S
H544 N539 0.984 . S
H545 N539 0.985 . S
H546 N543 0.984 . S
H547 N543 0.985 . S
H548 N542 0.984 . S
H549 N542 0.984 . S
H550 N538 0.984 . S
H551 N538 0.985 . S
C552 C553 1.363 . S
C552 C558 1.379 . S
C552 N560 1.356 . S
C553 C552 1.363 . S
C553 C559 1.363 . S
C554 C555 1.363 . S
C554 C559 1.379 . S
C554 N561 1.356 . S
C555 C554 1.363 . S
C555 C558 1.363 . S
N556 C558 1.356 . S
N556 H568 0.984 . S
N556 H569 0.985 . S
N557 C559 1.356 . S
N557 H562 0.984 . S
N557 H563 0.985 . S
C558 C552 1.379 . S
C558 C555 1.363 . S
C558 N556 1.356 . S
C559 C553 1.363 . S
C559 C554 1.379 . S
C559 N557 1.356 . S
N560 C552 1.356 . S
N560 H566 0.984 . S
N560 H567 0.984 . S
N561 C554 1.356 . S
N561 H564 0.984 . S
N561 H565 0.985 . S
H562 N557 0.984 . S
H563 N557 0.985 . S
H564 N561 0.984 . S
H565 N561 0.985 . S
H566 N560 0.984 . S
H567 N560 0.984 . S
H568 N556 0.984 . S
H569 N556 0.985 . S
C570 C571 1.363 . S
C570 C576 1.379 . S
C570 N578 1.356 . S
C571 C570 1.363 . S
C571 C577 1.363 . S
C572 C573 1.363 . S
C572 C577 1.379 . S
C572 N579 1.356 . S
C573 C572 1.363 . S
C573 C576 1.363 . S
N574 C576 1.356 . S
N574 H586 0.984 . S
N574 H587 0.985 . S
N575 C577 1.356 . S
N575 H580 0.984 . S
N575 H581 0.985 . S
C576 C570 1.379 . S
C576 C573 1.363 . S
C576 N574 1.356 . S
C577 C571 1.363 . S
C577 C572 1.379 . S
C577 N575 1.356 . S
N578 C570 1.356 . S
N578 H584 0.984 . S
N578 H585 0.984 . S
N579 C572 1.356 . S
N579 H582 0.984 . S
N579 H583 0.985 . S
H580 N575 0.984 . S
H581 N575 0.985 . S
H582 N579 0.984 . S
H583 N579 0.985 . S
H584 N578 0.984 . S
H585 N578 0.984 . S
H586 N574 0.984 . S
H587 N574 0.985 . S
C588 C589 1.363 . S
C588 C594 1.379 . S
C588 N596 1.356 . S
C589 C588 1.363 . S
C589 C595 1.363 . S
C590 C591 1.363 . S
C590 C595 1.379 . S
C590 N597 1.356 . S
C591 C590 1.363 . S
C591 C594 1.363 . S
N592 C594 1.356 . S
N592 H604 0.984 . S
N592 H605 0.985 . S
N593 C595 1.356 . S
N593 H598 0.984 . S
N593 H599 0.985 . S
C594 C588 1.379 . S
C594 C591 1.363 . S
C594 N592 1.356 . S
C595 C589 1.363 . S
C595 C590 1.379 . S
C595 N593 1.356 . S
N596 C588 1.356 . S
N596 H602 0.984 . S
N596 H603 0.984 . S
N597 C590 1.356 . S
N597 H600 0.984 . S
N597 H601 0.985 . S
H598 N593 0.984 . S
H599 N593 0.985 . S
H600 N597 0.984 . S
H601 N597 0.985 . S
H602 N596 0.984 . S
H603 N596 0.984 . S
H604 N592 0.984 . S
H605 N592 0.985 . S
C606 C607 1.363 . S
C606 C612 1.379 . S
C606 N614 1.356 . S
C607 C606 1.363 . S
C607 C613 1.363 . S
C608 C609 1.363 . S
C608 C613 1.379 . S
C608 N615 1.356 . S
C609 C608 1.363 . S
C609 C612 1.363 . S
N610 C612 1.356 . S
N610 H622 0.984 . S
N610 H623 0.985 . S
N611 C613 1.356 . S
N611 H616 0.984 . S
N611 H617 0.985 . S
C612 C606 1.379 . S
C612 C609 1.363 . S
C612 N610 1.356 . S
C613 C607 1.363 . S
C613 C608 1.379 . S
C613 N611 1.356 . S
N614 C606 1.356 . S
N614 H620 0.984 1_556 S
N614 H621 0.981 1_556 S
N615 C608 1.356 . S
N615 H618 0.984 . S
N615 H619 0.985 . S
H616 N611 0.984 . S
H617 N611 0.985 . S
H618 N615 0.984 . S
H619 N615 0.985 . S
H620 N614 0.984 1_554 S
H621 N614 0.981 1_554 S
H622 N610 0.984 . S
H623 N610 0.985 . S
C193 C8 1.402 . S
C195 N93 1.418 . S
C211 C31 1.356 . S
C213 N106 1.371 . S
C229 C53 1.359 1_565 S
C231 N115 1.397 . S
C249 N132 1.418 . S
C247 C74 1.386 . S
C267 N145 1.418 . S
C265 C26 1.401 . S
C283 C48 1.385 1_455 S
C285 N154 1.422 . S
C301 C71 1.365 . S
C303 N167 1.396 . S
C319 C5 1.358 . S
C321 N184 1.373 . S
C337 C50 1.399 . S
C339 N180 1.420 . S
C357 N141 1.372 . S
C355 C70 1.352 . S
C375 N158 1.397 . S
C373 C4 1.357 1_545 S
C391 C28 1.386 . S
C393 N171 1.420 . S
C411 N102 1.420 . S
C409 C73 1.398 . S
C427 C7 1.388 1_655 S
C429 N119 1.422 . S
C447 N128 1.385 . S
C445 C30 1.364 . S
C465 N89 1.375 . S
C463 C52 1.355 . S
C483 N168 1.424 . S
C481 C9 1.426 . S
C501 N181 1.415 . S
C499 C29 1.402 . S
C517 C51 1.399 . S
C519 N142 1.413 . S
C537 N155 1.423 . S
C535 C75 1.428 . S
C555 N116 1.426 . S
C553 C27 1.428 . S
C571 C49 1.424 . S
C573 N129 1.414 . S
C591 N90 1.416 . S
C589 C72 1.401 . S
C609 N103 1.413 . S
C607 C6 1.401 . S
