# Generated by pormake.
# Topology llj, (12,3)-cn, num edge types: 1
# Building blocks:
#     Node 0, Type 0, BuildingBlock: QEWDON_clean_sbu_0, # of connection points: 12
#     Node 1, Type 0, BuildingBlock: QEWDON_clean_sbu_0, # of connection points: 12
#     Node 2, Type 1, BuildingBlock: ESEHIV_clean_linker_0, # of connection points: 3
#     Node 3, Type 1, BuildingBlock: ESEHIV_clean_linker_0, # of connection points: 3
#     Node 4, Type 1, BuildingBlock: ESEHIV_clean_linker_0, # of connection points: 3
#     Node 5, Type 1, BuildingBlock: ESEHIV_clean_linker_0, # of connection points: 3
#     Node 6, Type 1, BuildingBlock: ESEHIV_clean_linker_0, # of connection points: 3
#     Node 7, Type 1, BuildingBlock: ESEHIV_clean_linker_0, # of connection points: 3
#     Node 8, Type 1, BuildingBlock: ESEHIV_clean_linker_0, # of connection points: 3
#     Node 9, Type 1, BuildingBlock: ESEHIV_clean_linker_0, # of connection points: 3
#     Edge 10, Type (0, 1), BuildingBlock: XIVTED_clean_linker_0, # of connection points: 2
#     Edge 11, Type (0, 1), BuildingBlock: XIVTED_clean_linker_0, # of connection points: 2
#     Edge 12, Type (0, 1), BuildingBlock: XIVTED_clean_linker_0, # of connection points: 2
#     Edge 13, Type (0, 1), BuildingBlock: XIVTED_clean_linker_0, # of connection points: 2
#     Edge 14, Type (0, 1), BuildingBlock: XIVTED_clean_linker_0, # of connection points: 2
#     Edge 15, Type (0, 1), BuildingBlock: XIVTED_clean_linker_0, # of connection points: 2
#     Edge 16, Type (0, 1), BuildingBlock: XIVTED_clean_linker_0, # of connection points: 2
#     Edge 17, Type (0, 1), BuildingBlock: XIVTED_clean_linker_0, # of connection points: 2
#     Edge 18, Type (0, 1), BuildingBlock: XIVTED_clean_linker_0, # of connection points: 2
#     Edge 19, Type (0, 1), BuildingBlock: XIVTED_clean_linker_0, # of connection points: 2
#     Edge 20, Type (0, 1), BuildingBlock: XIVTED_clean_linker_0, # of connection points: 2
#     Edge 21, Type (0, 1), BuildingBlock: XIVTED_clean_linker_0, # of connection points: 2
#     Edge 22, Type (0, 1), BuildingBlock: XIVTED_clean_linker_0, # of connection points: 2
#     Edge 23, Type (0, 1), BuildingBlock: XIVTED_clean_linker_0, # of connection points: 2
#     Edge 24, Type (0, 1), BuildingBlock: XIVTED_clean_linker_0, # of connection points: 2
#     Edge 25, Type (0, 1), BuildingBlock: XIVTED_clean_linker_0, # of connection points: 2
#     Edge 26, Type (0, 1), BuildingBlock: XIVTED_clean_linker_0, # of connection points: 2
#     Edge 27, Type (0, 1), BuildingBlock: XIVTED_clean_linker_0, # of connection points: 2
#     Edge 28, Type (0, 1), BuildingBlock: XIVTED_clean_linker_0, # of connection points: 2
#     Edge 29, Type (0, 1), BuildingBlock: XIVTED_clean_linker_0, # of connection points: 2
#     Edge 30, Type (0, 1), BuildingBlock: XIVTED_clean_linker_0, # of connection points: 2
#     Edge 31, Type (0, 1), BuildingBlock: XIVTED_clean_linker_0, # of connection points: 2
#     Edge 32, Type (0, 1), BuildingBlock: XIVTED_clean_linker_0, # of connection points: 2
#     Edge 33, Type (0, 1), BuildingBlock: XIVTED_clean_linker_0, # of connection points: 2
# Relax obj value: 0.011
# Max RMSD: 0.055
# Mean RMSD: 0.051
data_MOF--net-llj--node1-QEWDON_clean_sbu_0--node2-ESEHIV_clean_linker_0--edge1-XIVTED_clean_linker_0
_symmetry_space_group_name_H-M    P1
_symmetry_Int_Tables_number       1
_symmetry_cell_setting            triclinic
loop_
_symmetry_equiv_pos_as_xyz
'x, y, z'
_cell_length_a     35.858574
_cell_length_b     35.865836
_cell_length_c     25.015494
_cell_angle_alpha  89.8181
_cell_angle_beta   89.929089
_cell_angle_gamma 89.815391
loop_
_atom_site_label
_atom_site_type_symbol
_atom_site_fract_x
_atom_site_fract_y
_atom_site_fract_z
_atom_type_partial_charge
Zn0 Zn 0.93821 0.04721 0.958 0.0
Zn1 Zn 0.93903 0.05003 0.08524 0.0
O2 O 0.97132 0.03894 0.02231 0.0
H3 H 0.9935 0.02363 0.02249 0.0
C4 C 0.88548 0.96906 0.88064 0.0
O5 O 0.86098 0.96502 0.91931 0.0
Zn6 Zn 0.05702 0.93735 0.07752 0.0
Zn7 Zn 0.06131 0.94491 0.95314 0.0
O8 O 0.02438 0.94575 0.01454 0.0
H9 H 0.00041 0.95808 0.01361 0.0
Zn10 Zn 0.92507 0.92484 0.95557 0.0
O11 O 0.91574 0.95999 0.01653 0.0
Zn12 Zn 0.9204 0.92511 0.07793 0.0
H13 H 0.89913 0.98118 0.01367 0.0
Zn14 Zn 0.0717 0.06799 0.94735 0.0
O15 O 0.07186 0.03297 0.00936 0.0
H16 H 0.06117 0.00844 0.00614 0.0
Zn17 Zn 0.07259 0.06594 0.07264 0.0
C18 C 0.1028 0.01255 0.88062 0.0
O19 O 0.11933 0.00578 0.92649 0.0
O20 O 0.89524 0.08314 0.97495 0.0
O21 O 0.8977 0.0868 0.06376 0.0
O22 O 0.10671 0.91092 0.96815 0.0
O23 O 0.0997 0.90238 0.0558 0.0
O24 O 0.90023 0.87391 0.96997 0.0
O25 O 0.89574 0.87592 0.05877 0.0
C26 C 0.00521 0.07479 0.13874 0.0
O27 O 0.09798 0.11712 0.96474 0.0
O28 O 0.09797 0.11539 0.05383 0.0
O29 O 0.0352 0.94011 0.88024 0.0
C30 C 0.88348 0.09657 0.01897 0.0
O31 O 0.96584 0.0571 0.88694 0.0
C32 C 0.99128 0.91332 0.13539 0.0
O33 O 0.91656 0.95218 0.88409 0.0
C34 C 0.11678 0.89567 0.01195 0.0
O35 O 0.08103 0.04039 0.87678 0.0
C36 C 0.90145 0.98462 0.14481 0.0
O37 O 0.97062 0.06929 0.14613 0.0
O38 O 0.01846 0.0719 0.09191 0.0
C39 C 0.89004 0.85942 0.01431 0.0
O40 O 0.02638 0.91726 0.13944 0.0
O41 O 0.97567 0.91913 0.09062 0.0
C42 C 0.09477 0.00355 0.13476 0.0
O43 O 0.89635 0.94962 0.14244 0.0
O44 O 0.91912 -0.00017 0.10654 0.0
C45 C 0.10613 0.1316 0.00971 0.0
O46 O 0.09919 0.0387 0.13285 0.0
O47 O 0.07609 0.98844 0.09754 0.0
C48 C 0.01099 0.91439 0.87911 0.0
O49 O 0.00653 0.89332 0.9217 0.0
C50 C 0.99091 0.08201 0.88838 0.0
O51 O 0.99742 0.09917 0.93374 0.0
Zn52 Zn 0.43386 0.56078 0.44715 0.0
Zn53 Zn 0.43606 0.55927 0.57294 0.0
O54 O 0.46908 0.55393 0.50947 0.0
H55 H 0.49088 0.53811 0.50756 0.0
C56 C 0.39244 0.48736 0.37762 0.0
O57 O 0.37827 0.49562 0.42459 0.0
Zn58 Zn 0.56062 0.44109 0.57564 0.0
Zn59 Zn 0.55889 0.43947 0.44936 0.0
O60 O 0.52683 0.44935 0.51383 0.0
H61 H 0.50661 0.46717 0.51397 0.0
Zn62 Zn 0.42212 0.42887 0.44276 0.0
O63 O 0.42859 0.46236 0.50564 0.0
Zn64 Zn 0.42668 0.42943 0.56984 0.0
H65 H 0.44251 0.48518 0.50165 0.0
Zn66 Zn 0.58286 0.57503 0.44292 0.0
O67 O 0.5717 0.54039 0.50427 0.0
H68 H 0.55848 0.5172 0.49989 0.0
Zn69 Zn 0.57046 0.57221 0.56884 0.0
C70 C 0.61287 0.51586 0.37811 0.0
O71 O 0.60946 0.4984 0.42406 0.0
O72 O 0.38677 0.5907 0.46687 0.0
O73 O 0.3921 0.59315 0.55555 0.0
O74 O 0.60306 0.40479 0.46568 0.0
O75 O 0.60383 0.40632 0.55465 0.0
O76 O 0.3936 0.38117 0.46263 0.0
O77 O 0.39784 0.3819 0.55162 0.0
C78 C 0.50091 0.58079 0.6319 0.0
O79 O 0.6032 0.62603 0.46605 0.0
O80 O 0.59568 0.62229 0.55431 0.0
O81 O 0.52967 0.43153 0.37964 0.0
C82 C 0.37522 0.60193 0.5123 0.0
O83 O 0.4601 0.57205 0.37532 0.0
C84 C 0.49576 0.41535 0.63277 0.0
O85 O 0.412 0.45794 0.37279 0.0
C86 C 0.61699 0.39455 0.51023 0.0
O87 O 0.60372 0.55003 0.37494 0.0
C88 C 0.40502 0.49281 0.62971 0.0
O89 O 0.46587 0.57667 0.63679 0.0
O90 O 0.51568 0.57765 0.58602 0.0
C91 C 0.38665 0.36674 0.50827 0.0
O92 O 0.53071 0.42004 0.63771 0.0
O93 O 0.48088 0.42072 0.58736 0.0
C94 C 0.59491 0.50969 0.63115 0.0
O95 O 0.40281 0.4575 0.63204 0.0
O96 O 0.41934 0.50736 0.5884 0.0
C97 C 0.60659 0.63988 0.51264 0.0
O98 O 0.59702 0.54503 0.62894 0.0
O99 O 0.57736 0.49317 0.59405 0.0
C100 C 0.50293 0.40844 0.38173 0.0
O101 O 0.49637 0.39066 0.42676 0.0
C102 C 0.49065 0.58972 0.37879 0.0
O103 O 0.50244 0.60013 0.42614 0.0
H104 H 0.38708 0.39133 0.01104 0.0
H105 H 0.29948 0.3344 0.09455 0.0
H106 H 0.29526 0.34581 0.92329 0.0
C107 C 0.36015 0.37776 0.01049 0.0
C108 C 0.34301 0.37026 0.96134 0.0
C109 C 0.34419 0.36576 0.05882 0.0
C110 C 0.31102 0.34501 0.05753 0.0
C111 C 0.29353 0.33676 0.00865 0.0
C112 C 0.30913 0.35077 0.96102 0.0
H113 H 0.66634 0.41769 0.00346 0.0
H114 H 0.72302 0.33074 0.08937 0.0
H115 H 0.71359 0.32557 0.91767 0.0
C116 C 0.68208 0.39184 0.00348 0.0
C117 C 0.68977 0.37415 0.95485 0.0
C118 C 0.69371 0.37628 0.05211 0.0
C119 C 0.71285 0.34209 0.05193 0.0
C120 C 0.7201 0.32327 0.00369 0.0
C121 C 0.7082 0.33954 0.95522 0.0
H122 H 0.61156 0.59538 0.00207 0.0
H123 H 0.70684 0.64154 0.92259 0.0
H124 H 0.68922 0.66211 0.09021 0.0
C125 C 0.63724 0.6111 0.00362 0.0
C126 C 0.64875 0.62663 0.05232 0.0
C127 C 0.65732 0.61744 0.95636 0.0
C128 C 0.69068 0.63766 0.95878 0.0
C129 C 0.70251 0.65418 0.00675 0.0
C130 C 0.68143 0.64823 0.05352 0.0
H131 H 0.36888 0.6006 0.00294 0.0
H132 H 0.31431 0.68781 0.09013 0.0
H133 H 0.3098 0.68692 0.91822 0.0
C134 C 0.3535 0.62664 0.00313 0.0
C135 C 0.34232 0.64278 0.95441 0.0
C136 C 0.34339 0.64252 0.05221 0.0
C137 C 0.32146 0.67495 0.05234 0.0
C138 C 0.30836 0.69077 0.00436 0.0
C139 C 0.31949 0.67483 0.95542 0.0
H140 H 0.88512 0.89929 0.51328 0.0
H141 H 0.79583 0.85234 0.6055 0.0
H142 H 0.79401 0.84572 0.43366 0.0
C143 C 0.85803 0.88605 0.51508 0.0
C144 C 0.84047 0.87533 0.46746 0.0
C145 C 0.84241 0.87745 0.565 0.0
C146 C 0.80834 0.85834 0.567 0.0
C147 C 0.79081 0.84611 0.51997 0.0
C148 C 0.80692 0.85522 0.47024 0.0
H149 H 0.132 0.90102 0.51116 0.0
H150 H 0.17237 0.80587 0.59833 0.0
H151 H 0.19435 0.81607 0.42965 0.0
C152 C 0.14644 0.87445 0.51192 0.0
C153 C 0.16154 0.86016 0.46445 0.0
C154 C 0.15074 0.85534 0.5605 0.0
C155 C 0.16972 0.82109 0.56105 0.0
C156 C 0.18589 0.80669 0.51424 0.0
C157 C 0.18125 0.82626 0.46584 0.0
H158 H 0.11177 0.09532 0.51149 0.0
H159 H 0.20296 0.14883 0.43189 0.0
H160 H 0.183 0.16976 0.59871 0.0
C161 C 0.13582 0.11343 0.51301 0.0
C162 C 0.14563 0.1305 0.56151 0.0
C163 C 0.1555 0.12098 0.46577 0.0
C164 C 0.18696 0.144 0.46801 0.0
C165 C 0.19715 0.16189 0.51568 0.0
C166 C 0.17639 0.15483 0.5624 0.0
H167 H 0.85926 0.09141 0.52063 0.0
H168 H 0.8022 0.17919 0.60366 0.0
H169 H 0.80213 0.17629 0.4312 0.0
C170 C 0.84304 0.11697 0.51962 0.0
C171 C 0.83147 0.13157 0.47038 0.0
C172 C 0.83289 0.13417 0.56768 0.0
C173 C 0.811 0.16667 0.56635 0.0
C174 C 0.79977 0.18243 0.51725 0.0
C175 C 0.81061 0.16477 0.46937 0.0
H176 H 0.12621 0.17469 0.09601 0.0
H177 H 0.27789 0.28469 0.93194 0.0
H178 H 0.13583 0.16832 0.92407 0.0
H179 H 0.23577 0.32815 0.08141 0.0
H180 H 0.22767 0.2397 0.93112 0.0
H181 H 0.16779 0.22894 0.09491 0.0
C182 C 0.13673 0.18484 0.05806 0.0
C183 C 0.12783 0.16662 0.01012 0.0
C184 C 0.22916 0.25935 0.96384 0.0
C185 C 0.17547 0.22817 0.00881 0.0
C186 C 0.25777 0.28541 0.96421 0.0
C187 C 0.26122 0.31073 0.00667 0.0
C188 C 0.20405 0.25777 0.00676 0.0
C189 C 0.23472 0.30895 0.04818 0.0
C190 C 0.16032 0.21582 0.05751 0.0
C191 C 0.14209 0.18117 0.9621 0.0
N192 N 0.20745 0.28264 0.04749 0.0
N193 N 0.16554 0.21073 0.96279 0.0
H194 H 0.84373 0.12714 0.10239 0.0
H195 H 0.77154 0.29824 0.93037 0.0
H196 H 0.85827 0.13427 0.9312 0.0
H197 H 0.71742 0.26638 0.07802 0.0
H198 H 0.80723 0.24044 0.93306 0.0
H199 H 0.80069 0.18041 0.09786 0.0
C200 C 0.83769 0.13966 0.06389 0.0
C201 C 0.85481 0.12632 0.01716 0.0
C202 C 0.78734 0.24603 0.96468 0.0
C203 C 0.8062 0.18733 0.01192 0.0
C204 C 0.76671 0.27899 0.96305 0.0
C205 C 0.74123 0.28742 0.004 0.0
C206 C 0.78306 0.22144 0.00798 0.0
C207 C 0.73716 0.26154 0.04602 0.0
C208 C 0.81311 0.16996 0.06135 0.0
C209 C 0.84584 0.14357 0.96832 0.0
N210 N 0.75809 0.22987 0.04717 0.0
N211 N 0.82251 0.17341 0.96708 0.0
H212 H 0.86801 0.81631 0.09973 0.0
H213 H 0.72252 0.7034 0.92769 0.0
H214 H 0.86252 0.82259 0.92743 0.0
H215 H 0.75503 0.66653 0.08562 0.0
H216 H 0.77284 0.74833 0.92859 0.0
H217 H 0.82619 0.76243 0.09751 0.0
C218 C 0.85836 0.80618 0.06143 0.0
C219 C 0.86851 0.82428 0.01371 0.0
C220 C 0.76927 0.73015 0.96286 0.0
C221 C 0.82048 0.76303 0.01109 0.0
C222 C 0.74059 0.70414 0.9623 0.0
C223 C 0.7345 0.68063 0.0065 0.0
C224 C 0.79182 0.73346 0.00833 0.0
C225 C 0.7583 0.68424 0.05084 0.0
C226 C 0.83457 0.7754 0.06024 0.0
C227 C 0.85532 0.80975 0.96527 0.0
N228 N 0.78574 0.71039 0.05082 0.0
N229 N 0.83166 0.7803 0.96528 0.0
H230 H 0.16532 0.87992 0.92995 0.0
H231 H 0.25152 0.70212 0.07578 0.0
H232 H 0.13893 0.84875 0.09255 0.0
H233 H 0.30303 0.75166 0.93657 0.0
H234 H 0.20772 0.75388 0.0792 0.0
H235 H 0.21369 0.83161 0.92838 0.0
C236 C 0.16977 0.86308 0.96541 0.0
C237 C 0.14783 0.8683 0.0114 0.0
C238 C 0.22874 0.7536 0.04807 0.0
C239 C 0.20292 0.81282 0.00955 0.0
C240 C 0.25401 0.72408 0.04621 0.0
C241 C 0.28148 0.72255 0.00613 0.0
C242 C 0.23033 0.78175 0.00913 0.0
C243 C 0.28224 0.7514 0.96795 0.0
C244 C 0.19745 0.83556 0.96446 0.0
C245 C 0.15504 0.84573 0.05618 0.0
N246 N 0.25696 0.77977 0.97029 0.0
N247 N 0.18172 0.81881 0.05395 0.0
H248 H 0.63754 0.66931 0.60322 0.0
H249 H 0.73009 0.84283 0.45222 0.0
H250 H 0.62111 0.692 0.43523 0.0
H251 H 0.77603 0.79163 0.59437 0.0
H252 H 0.67975 0.79691 0.4537 0.0
H253 H 0.67741 0.7244 0.60896 0.0
C254 C 0.64183 0.68616 0.56773 0.0
C255 C 0.62638 0.67575 0.51849 0.0
C256 C 0.70072 0.79614 0.48481 0.0
C257 C 0.67182 0.73874 0.52491 0.0
C258 C 0.72961 0.82218 0.48387 0.0
C259 C 0.75771 0.82113 0.52301 0.0
C260 C 0.69962 0.76912 0.52548 0.0
C261 C 0.75491 0.79412 0.56373 0.0
C262 C 0.66471 0.71747 0.57101 0.0
C263 C 0.63286 0.69872 0.47385 0.0
N264 N 0.72652 0.76918 0.56376 0.0
N265 N 0.65527 0.72904 0.47805 0.0
H266 H 0.32777 0.62111 0.43088 0.0
H267 H 0.2346 0.78659 0.59362 0.0
H268 H 0.34852 0.64071 0.59852 0.0
H269 H 0.19272 0.74993 0.44075 0.0
H270 H 0.27603 0.73288 0.59602 0.0
H271 H 0.27787 0.66756 0.43334 0.0
C272 C 0.3217 0.63499 0.46831 0.0
C273 C 0.3427 0.62732 0.51444 0.0
C274 C 0.25754 0.73634 0.56216 0.0
C275 C 0.28575 0.68065 0.51733 0.0
C276 C 0.23362 0.76697 0.56085 0.0
C277 C 0.20991 0.77287 0.51693 0.0
C278 C 0.25832 0.71157 0.51892 0.0
C279 C 0.21082 0.74685 0.47508 0.0
C280 C 0.29313 0.66144 0.46967 0.0
C281 C 0.3333 0.64591 0.56189 0.0
N282 N 0.23484 0.71747 0.47693 0.0
N283 N 0.30578 0.672 0.56194 0.0
H284 H 0.36641 0.32545 0.59675 0.0
H285 H 0.21273 0.21258 0.43685 0.0
H286 H 0.35232 0.33137 0.42542 0.0
H287 H 0.24969 0.17721 0.59337 0.0
H288 H 0.26174 0.25896 0.43515 0.0
H289 H 0.32228 0.27332 0.59948 0.0
C290 C 0.35433 0.31567 0.55971 0.0
C291 C 0.3629 0.33308 0.5108 0.0
C292 C 0.2594 0.24089 0.46976 0.0
C293 C 0.31229 0.27388 0.51387 0.0
C294 C 0.23148 0.21411 0.47067 0.0
C295 C 0.22729 0.19036 0.51502 0.0
C296 C 0.28319 0.24466 0.51384 0.0
C297 C 0.25172 0.19496 0.55843 0.0
C298 C 0.3292 0.28592 0.56135 0.0
C299 C 0.34648 0.31908 0.4641 0.0
N300 N 0.2786 0.22169 0.55685 0.0
N301 N 0.32178 0.29061 0.4669 0.0
H302 H 0.64187 0.3533 0.42579 0.0
H303 H 0.80012 0.2432 0.5848 0.0
H304 H 0.66135 0.37165 0.59404 0.0
H305 H 0.74294 0.19866 0.44716 0.0
H306 H 0.75775 0.29688 0.58331 0.0
H307 H 0.68848 0.30373 0.42691 0.0
C308 C 0.65614 0.34716 0.46294 0.0
C309 C 0.64741 0.36654 0.51005 0.0
C310 C 0.75474 0.27532 0.55343 0.0
C311 C 0.70099 0.30972 0.51134 0.0
C312 C 0.77874 0.24454 0.55433 0.0
C313 C 0.7753 0.21612 0.516 0.0
C314 C 0.72747 0.27803 0.51347 0.0
C315 C 0.74742 0.22002 0.47689 0.0
C316 C 0.68264 0.31871 0.46352 0.0
C317 C 0.66699 0.35726 0.55691 0.0
N318 N 0.72473 0.25037 0.47658 0.0
N319 N 0.69291 0.32945 0.5564 0.0
H320 H 0.06332 0.12284 0.14674 0.0
H321 H 0.12212 0.05425 0.43924 0.0
H322 H 0.00333 0.03846 0.23433 0.0
H323 H 0.15282 0.16124 0.3729 0.0
H324 H 0.08797 0.04057 0.35687 0.0
H325 H 0.10546 0.13025 0.22298 0.0
C326 C 0.05927 0.10579 0.18202 0.0
C327 C 0.03008 0.08005 0.18458 0.0
C328 C 0.10252 0.06687 0.36041 0.0
C329 C 0.07778 0.08822 0.27153 0.0
C330 C 0.122 0.07472 0.40731 0.0
C331 C 0.14011 0.10913 0.41337 0.0
C332 C 0.10133 0.09354 0.31926 0.0
C333 C 0.13966 0.13421 0.37008 0.0
C334 C 0.08313 0.11005 0.22547 0.0
C335 C 0.02546 0.05883 0.23125 0.0
N336 N 0.12036 0.12601 0.32508 0.0
N337 N 0.04921 0.06329 0.27299 0.0
H338 H 0.8741 0.95772 0.23935 0.0
H339 H 0.85542 0.15934 0.37381 0.0
H340 H 0.89845 0.06059 0.15714 0.0
H341 H 0.82608 0.05658 0.45345 0.0
H342 H 0.87036 0.1238 0.29314 0.0
H343 H 0.85546 0.99352 0.31788 0.0
C344 C 0.87566 0.98784 0.23775 0.0
C345 C 0.88862 0.00616 0.19171 0.0
C346 C 0.86061 0.10905 0.32829 0.0
C347 C 0.86709 0.04739 0.28138 0.0
C348 C 0.85193 0.12935 0.37421 0.0
C349 C 0.83981 0.11087 0.42052 0.0
C350 C 0.85706 0.07002 0.32872 0.0
C351 C 0.83604 0.07191 0.41896 0.0
C352 C 0.86497 0.00828 0.28261 0.0
C353 C 0.88954 0.04524 0.19183 0.0
N354 N 0.84473 0.0528 0.37391 0.0
N355 N 0.87908 0.06455 0.23596 0.0
H356 H 0.93432 0.86395 0.14729 0.0
H357 H 0.87759 0.93845 0.43614 0.0
H358 H 0.99703 0.94739 0.23171 0.0
H359 H 0.84626 0.82915 0.38018 0.0
H360 H 0.91397 0.94756 0.35456 0.0
H361 H 0.89466 0.8556 0.22652 0.0
C362 C 0.93958 0.88049 0.18257 0.0
C363 C 0.96865 0.90645 0.18329 0.0
C364 C 0.89902 0.92164 0.36018 0.0
C365 C 0.92374 0.89731 0.27334 0.0
C366 C 0.87827 0.91639 0.40669 0.0
C367 C 0.85911 0.8828 0.41541 0.0
C368 C 0.90035 0.89332 0.3217 0.0
C369 C 0.86028 0.8556 0.37512 0.0
C370 C 0.91717 0.87564 0.22769 0.0
C371 C 0.97491 0.92695 0.22996 0.0
N372 N 0.88067 0.86142 0.33004 0.0
N373 N 0.95239 0.92216 0.2731 0.0
H374 H 0.0982 0.92754 0.14692 0.0
H375 H 0.16977 0.93529 0.44831 0.0
H376 H 0.12537 0.0299 0.22739 0.0
H377 H 0.14348 0.8333 0.36558 0.0
H378 H 0.15724 0.97032 0.36638 0.0
H379 H 0.11835 0.89251 0.2247 0.0
C380 C 0.10826 0.94274 0.18083 0.0
C381 C 0.10932 0.98177 0.18059 0.0
C382 C 0.15445 0.94027 0.36602 0.0
C383 C 0.13294 0.94173 0.27055 0.0
C384 C 0.16139 0.92026 0.41283 0.0
C385 C 0.15721 0.88134 0.41387 0.0
C386 C 0.14321 0.92123 0.31987 0.0
C387 C 0.14713 0.86324 0.36648 0.0
C388 C 0.12 0.92264 0.22544 0.0
C389 C 0.12358 -0.00018 0.22588 0.0
N390 N 0.14021 0.88337 0.32149 0.0
N391 N 0.13458 0.97967 0.26922 0.0
H392 H 0.14789 0.95126 0.87601 0.0
H393 H 0.08663 0.89548 0.58007 0.0
H394 H 0.06814 0.01452 0.78316 0.0
H395 H 0.18749 0.8561 0.65616 0.0
H396 H 0.07193 0.9313 0.66052 0.0
H397 H 0.15529 0.90833 0.80132 0.0
C398 C 0.13201 0.9562 0.83985 0.0
C399 C 0.10774 0.98679 0.83546 0.0
C400 C 0.09709 0.91452 0.65959 0.0
C401 C 0.11581 0.93756 0.7502 0.0
C402 C 0.10555 0.89414 0.61375 0.0
C403 C 0.13855 0.87301 0.61112 0.0
C404 C 0.1217 0.91356 0.70313 0.0
C405 C 0.16159 0.87167 0.65643 0.0
C406 C 0.13618 0.93162 0.79732 0.0
C407 C 0.0875 0.99154 0.78793 0.0
N408 N 0.15284 0.89188 0.70042 0.0
N409 N 0.09205 0.96717 0.747 0.0
H410 H 0.05201 0.12713 0.88128 0.0
H411 H 0.06946 0.12151 0.56739 0.0
H412 H 0.98028 0.05749 0.78587 0.0
H413 H 0.16774 0.12688 0.66703 0.0
H414 H 0.03194 0.10933 0.64665 0.0
H415 H 0.09042 0.13908 0.80215 0.0
C416 C 0.04428 0.11442 0.84374 0.0
C417 C 0.01315 0.09091 0.84032 0.0
C418 C 0.06175 0.11309 0.65093 0.0
C419 C 0.05633 0.10531 0.74974 0.0
C420 C 0.08338 0.11975 0.60568 0.0
C421 C 0.1222 0.12459 0.61007 0.0
C422 C 0.0787 0.11225 0.70126 0.0
C423 C 0.13802 0.12359 0.66147 0.0
C424 C 0.06626 0.12119 0.79877 0.0
C425 C 0.00418 0.07556 0.79043 0.0
N426 N 0.11617 0.11769 0.70514 0.0
N427 N 0.02556 0.08324 0.74692 0.0
H428 H 0.82009 0.00471 0.85733 0.0
H429 H 0.90088 0.10644 0.59738 0.0
H430 H 0.93415 0.99396 0.80413 0.0
H431 H 0.78783 0.11981 0.6535 0.0
H432 H 0.91482 0.06839 0.67612 0.0
H433 H 0.80861 0.04933 0.78537 0.0
C434 C 0.8427 0.01159 0.83033 0.0
C435 C 0.878 0.99515 0.83622 0.0
C436 C 0.88705 0.07991 0.67152 0.0
C437 C 0.86512 0.04644 0.75398 0.0
C438 C 0.87911 0.10163 0.62665 0.0
C439 C 0.84309 0.11603 0.61885 0.0
C440 C 0.85868 0.07232 0.70867 0.0
C441 C 0.81601 0.10939 0.65818 0.0
C442 C 0.83615 0.03718 0.78935 0.0
C443 C 0.90631 0.00534 0.80034 0.0
N444 N 0.82426 0.08768 0.70118 0.0
N445 N 0.89923 0.03027 0.76064 0.0
H446 H 0.0092 0.95582 0.78672 0.0
H447 H 0.84996 0.83258 0.65308 0.0
H448 H 0.95653 0.86241 0.8654 0.0
H449 H 0.88427 0.93926 0.58965 0.0
H450 H 0.88985 0.84255 0.73033 0.0
H451 H 0.96599 0.94875 0.71183 0.0
C452 C 0.98873 0.93369 0.78811 0.0
C453 C 0.98652 0.9096 0.8323 0.0
C454 C 0.88845 0.86393 0.69973 0.0
C455 C 0.93691 0.90159 0.74713 0.0
C456 C 0.86537 0.85842 0.65575 0.0
C457 C 0.86371 0.88511 0.61465 0.0
C458 C 0.9104 0.89619 0.70255 0.0
C459 C 0.88508 0.91767 0.61997 0.0
C460 C 0.96394 0.92982 0.74552 0.0
C461 C 0.95932 0.88157 0.83211 0.0
N462 N 0.90776 0.92219 0.66293 0.0
N463 N 0.9356 0.87835 0.7902 0.0
H464 H 0.49617 0.54292 0.72609 0.0
H465 H 0.65777 0.65887 0.86443 0.0
H466 H 0.55897 0.62817 0.64462 0.0
H467 H 0.61733 0.55465 0.92899 0.0
H468 H 0.6219 0.64803 0.78372 0.0
H469 H 0.53845 0.54808 0.8028 0.0
C470 C 0.51879 0.56287 0.72467 0.0
C471 C 0.52448 0.58508 0.67926 0.0
C472 C 0.62118 0.6273 0.81527 0.0
C473 C 0.57262 0.59115 0.76609 0.0
C474 C 0.64204 0.63324 0.8613 0.0
C475 C 0.64049 0.60774 0.90396 0.0
C476 C 0.59808 0.59591 0.81197 0.0
C477 C 0.61881 0.57546 0.89765 0.0
C478 C 0.54304 0.56557 0.76806 0.0
C479 C 0.55415 0.6103 0.67881 0.0
N480 N 0.59807 0.57069 0.85277 0.0
N481 N 0.57709 0.61278 0.72172 0.0
H482 H 0.36024 0.55429 0.63071 0.0
H483 H 0.40861 0.6083 0.92994 0.0
H484 H 0.42677 0.48385 0.73277 0.0
H485 H 0.30132 0.63564 0.86147 0.0
H486 H 0.42364 0.57247 0.85002 0.0
H487 H 0.34579 0.59417 0.70795 0.0
C488 C 0.37197 0.54748 0.66937 0.0
C489 C 0.39481 0.51602 0.67576 0.0
C490 C 0.39688 0.58647 0.85258 0.0
C491 C 0.37885 0.5612 0.76341 0.0
C492 C 0.38814 0.60684 0.89824 0.0
C493 C 0.35328 0.62461 0.90317 0.0
C494 C 0.371 0.58439 0.81082 0.0
C495 C 0.32857 0.62268 0.85963 0.0
C496 C 0.36355 0.56997 0.71329 0.0
C497 C 0.40886 0.50775 0.7266 0.0
N498 N 0.33789 0.60285 0.81525 0.0
N499 N 0.40095 0.53043 0.76852 0.0
H500 H 0.43341 0.37254 0.63957 0.0
H501 H 0.38471 0.43257 0.9377 0.0
H502 H 0.50612 0.44157 0.73375 0.0
H503 H 0.34606 0.32931 0.86887 0.0
H504 H 0.4217 0.44385 0.85705 0.0
H505 H 0.3934 0.36355 0.71803 0.0
C506 C 0.44068 0.38601 0.6767 0.0
C507 C 0.47258 0.40827 0.68019 0.0
C508 C 0.40495 0.41883 0.85976 0.0
C509 C 0.42748 0.39798 0.76981 0.0
C510 C 0.38387 0.41231 0.90572 0.0
C511 C 0.36235 0.37977 0.91045 0.0
C512 C 0.40417 0.39291 0.81794 0.0
C513 C 0.36174 0.35501 0.86699 0.0
C514 C 0.4181 0.38068 0.72145 0.0
C515 C 0.48163 0.42423 0.72956 0.0
N516 N 0.38239 0.36208 0.82261 0.0
N517 N 0.45899 0.419 0.7725 0.0
H518 H 0.62672 0.53926 0.72043 0.0
H519 H 0.65785 0.34273 0.86583 0.0
H520 H 0.60116 0.43385 0.64699 0.0
H521 H 0.69669 0.44769 0.92839 0.0
H522 H 0.63666 0.37519 0.78503 0.0
H523 H 0.65159 0.506 0.79763 0.0
C524 C 0.62618 0.50908 0.72044 0.0
C525 C 0.61111 0.48934 0.67722 0.0
C526 C 0.64996 0.39105 0.81641 0.0
C527 C 0.64004 0.45093 0.76549 0.0
C528 C 0.66223 0.37251 0.86236 0.0
C529 C 0.67874 0.39259 0.90409 0.0
C530 C 0.65422 0.42991 0.8123 0.0
C531 C 0.68342 0.43121 0.89766 0.0
C532 C 0.64054 0.49008 0.76455 0.0
C533 C 0.61169 0.45027 0.67944 0.0
N534 N 0.67106 0.4486 0.85284 0.0
N535 N 0.62577 0.43232 0.72287 0.0
H536 H 0.6289 0.54453 0.27922 0.0
H537 H 0.67069 0.34644 0.14773 0.0
H538 H 0.628 0.44145 0.36903 0.0
H539 H 0.69801 0.45118 0.07185 0.0
H540 H 0.65305 0.38037 0.2286 0.0
H541 H 0.65129 0.51039 0.20114 0.0
C542 C 0.63351 0.51474 0.28256 0.0
C543 C 0.6267 0.49579 0.33071 0.0
C544 C 0.6631 0.39587 0.19429 0.0
C545 C 0.65215 0.45659 0.24158 0.0
C546 C 0.67337 0.37651 0.14826 0.0
C547 C 0.68553 0.39602 0.10279 0.0
C548 C 0.66479 0.43498 0.19469 0.0
C549 C 0.68804 0.43504 0.10556 0.0
C550 C 0.64638 0.49528 0.23804 0.0
C551 C 0.63302 0.45718 0.33274 0.0
N552 N 0.6775 0.45325 0.15058 0.0
N553 N 0.64527 0.4388 0.2887 0.0
H554 H 0.5599 0.62106 0.37431 0.0
H555 H 0.57225 0.62725 0.05858 0.0
H556 H 0.47354 0.5754 0.27401 0.0
H557 H 0.67079 0.61713 0.15693 0.0
H558 H 0.53369 0.61809 0.1377 0.0
H559 H 0.59898 0.62998 0.29525 0.0
C560 C 0.54913 0.6129 0.33571 0.0
C561 C 0.51359 0.597 0.33086 0.0
C562 C 0.56376 0.61774 0.14181 0.0
C563 C 0.55782 0.60797 0.24032 0.0
C564 C 0.58591 0.62271 0.09663 0.0
C565 C 0.62502 0.62237 0.10077 0.0
C566 C 0.58069 0.61319 0.19182 0.0
C567 C 0.64084 0.61782 0.15175 0.0
C568 C 0.57149 0.61798 0.2907 0.0
C569 C 0.50087 0.58749 0.27966 0.0
N570 N 0.61859 0.6135 0.19537 0.0
N571 N 0.52295 0.59329 0.23626 0.0
H572 H 0.34281 0.54505 0.36952 0.0
H573 H 0.40921 0.60704 0.07766 0.0
H574 H 0.4296 0.48808 0.28205 0.0
H575 H 0.30105 0.63467 0.14301 0.0
H576 H 0.42308 0.57138 0.15877 0.0
H577 H 0.33327 0.58641 0.29283 0.0
C578 C 0.35982 0.54118 0.33415 0.0
C579 C 0.38662 0.51264 0.33173 0.0
C580 C 0.39641 0.58545 0.15531 0.0
C581 C 0.37615 0.56011 0.2443 0.0
C582 C 0.38839 0.60571 0.10901 0.0
C583 C 0.35375 0.6237 0.10317 0.0
C584 C 0.36974 0.58339 0.19629 0.0
C585 C 0.32826 0.62166 0.14578 0.0
C586 C 0.35435 0.56479 0.29045 0.0
C587 C 0.40816 0.5092 0.28514 0.0
N588 N 0.33672 0.60176 0.19042 0.0
N589 N 0.40246 0.53266 0.24319 0.0
H590 H 0.50457 0.4455 0.28608 0.0
H591 H 0.35289 0.31862 0.14501 0.0
H592 H 0.44623 0.35813 0.37059 0.0
H593 H 0.38096 0.42911 0.08908 0.0
H594 H 0.38981 0.32965 0.22545 0.0
H595 H 0.46362 0.43607 0.20945 0.0
C596 C 0.48324 0.42425 0.28848 0.0
C597 C 0.47885 0.40251 0.33475 0.0
C598 C 0.3876 0.35153 0.19567 0.0
C599 C 0.43186 0.39172 0.24731 0.0
C600 C 0.36632 0.34538 0.14988 0.0
C601 C 0.36392 0.37292 0.10996 0.0
C602 C 0.40699 0.38521 0.20124 0.0
C603 C 0.38259 0.4068 0.11823 0.0
C604 C 0.45976 0.41902 0.24483 0.0
C605 C 0.4506 0.37549 0.33568 0.0
N606 N 0.40359 0.41185 0.16268 0.0
N607 N 0.42822 0.37075 0.29247 0.0
loop_
_geom_bond_atom_site_label_1
_geom_bond_atom_site_label_2
_geom_bond_distance
_geom_bond_site_symmetry_2
_ccdc_geom_bond_type
Zn0 O2 1.933 1_556 S
Zn0 O20 1.985 . S
Zn0 O31 1.955 . S
Zn1 O2 1.911 . S
Zn1 O21 1.970 . S
Zn1 O37 1.945 . S
Zn1 O44 1.981 . S
O2 Zn0 1.933 1_554 S
O2 Zn1 1.911 . S
O2 H3 0.841 1_655 S
H3 O2 0.841 1_455 S
C4 O5 1.246 . S
C4 O33 1.276 1_545 S
O5 C4 1.246 . S
Zn6 O8 1.911 . S
Zn6 O23 1.970 . S
Zn6 O40 1.945 . S
Zn6 O47 1.981 . S
Zn7 O8 1.933 1_556 S
Zn7 O22 1.985 . S
Zn7 O29 1.955 . S
O8 Zn6 1.911 . S
O8 Zn7 1.933 1_554 S
O8 H9 0.841 1_455 S
H9 O8 0.841 1_655 S
Zn10 O11 1.933 1_556 S
Zn10 O24 1.985 . S
Zn10 O33 1.955 . S
O11 Zn10 1.933 1_554 S
O11 Zn12 1.911 . S
O11 H13 0.841 1_565 S
Zn12 O11 1.911 . S
Zn12 O25 1.970 . S
Zn12 O41 1.981 . S
Zn12 O43 1.945 . S
H13 O11 0.841 1_545 S
Zn14 O15 1.933 1_556 S
Zn14 O27 1.985 . S
Zn14 O35 1.955 . S
O15 Zn14 1.933 1_554 S
O15 H16 0.841 1_545 S
O15 Zn17 1.911 . S
H16 O15 0.841 1_565 S
Zn17 O15 1.911 . S
Zn17 O28 1.970 . S
Zn17 O38 1.981 . S
Zn17 O46 1.945 . S
C18 O19 1.246 . S
C18 O35 1.276 1_565 S
O19 C18 1.246 . S
O20 Zn0 1.985 . S
O20 C30 1.245 1_556 S
O21 Zn1 1.970 . S
O21 C30 1.263 . S
O22 Zn7 1.985 . S
O22 C34 1.245 1_556 S
O23 Zn6 1.970 . S
O23 C34 1.263 . S
O24 Zn10 1.985 . S
O24 C39 1.245 1_556 S
O25 Zn12 1.970 . S
O25 C39 1.263 . S
C26 O37 1.262 1_455 S
C26 O38 1.245 . S
O27 Zn14 1.985 . S
O27 C45 1.245 1_556 S
O28 Zn17 1.970 . S
O28 C45 1.263 . S
O29 Zn7 1.955 . S
O29 C48 1.276 1_455 S
C30 O20 1.245 1_554 S
C30 O21 1.263 . S
O31 Zn0 1.955 . S
O31 C50 1.276 1_655 S
C32 O40 1.262 1_655 S
C32 O41 1.245 . S
O33 C4 1.276 1_565 S
O33 Zn10 1.955 . S
C34 O22 1.245 1_554 S
C34 O23 1.263 . S
O35 Zn14 1.955 . S
O35 C18 1.276 1_545 S
C36 O43 1.262 1_545 S
C36 O44 1.245 . S
O37 Zn1 1.945 . S
O37 C26 1.262 1_655 S
O38 Zn17 1.981 . S
O38 C26 1.245 . S
C39 O24 1.245 1_554 S
C39 O25 1.263 . S
O40 Zn6 1.945 . S
O40 C32 1.262 1_455 S
O41 Zn12 1.981 . S
O41 C32 1.245 . S
C42 O46 1.262 1_565 S
C42 O47 1.245 . S
O43 Zn12 1.945 . S
O43 C36 1.262 1_565 S
O44 Zn1 1.981 . S
O44 C36 1.245 . S
C45 O27 1.245 1_554 S
C45 O28 1.263 . S
O46 Zn17 1.945 . S
O46 C42 1.262 1_545 S
O47 Zn6 1.981 . S
O47 C42 1.245 . S
C48 O29 1.276 1_655 S
C48 O49 1.246 . S
O49 C48 1.246 . S
C50 O31 1.276 1_455 S
C50 O51 1.246 . S
O51 C50 1.246 . S
Zn52 O54 1.933 . S
Zn52 O72 1.985 . S
Zn52 O83 1.955 . S
Zn53 O54 1.911 . S
Zn53 O73 1.970 . S
Zn53 O89 1.945 . S
Zn53 O96 1.981 . S
O54 Zn52 1.933 . S
O54 Zn53 1.911 . S
O54 H55 0.841 . S
H55 O54 0.841 . S
C56 O57 1.246 . S
C56 O85 1.276 . S
O57 C56 1.246 . S
Zn58 O60 1.911 . S
Zn58 O75 1.970 . S
Zn58 O92 1.945 . S
Zn58 O99 1.981 . S
Zn59 O60 1.933 . S
Zn59 O74 1.985 . S
Zn59 O81 1.955 . S
O60 Zn58 1.911 . S
O60 Zn59 1.933 . S
O60 H61 0.841 . S
H61 O60 0.841 . S
Zn62 O63 1.933 . S
Zn62 O76 1.985 . S
Zn62 O85 1.955 . S
O63 Zn62 1.933 . S
O63 Zn64 1.911 . S
O63 H65 0.841 . S
Zn64 O63 1.911 . S
Zn64 O77 1.970 . S
Zn64 O93 1.981 . S
Zn64 O95 1.945 . S
H65 O63 0.841 . S
Zn66 O67 1.933 . S
Zn66 O79 1.985 . S
Zn66 O87 1.955 . S
O67 Zn66 1.933 . S
O67 H68 0.841 . S
O67 Zn69 1.911 . S
H68 O67 0.841 . S
Zn69 O67 1.911 . S
Zn69 O80 1.970 . S
Zn69 O90 1.981 . S
Zn69 O98 1.945 . S
C70 O71 1.246 . S
C70 O87 1.276 . S
O71 C70 1.246 . S
O72 Zn52 1.985 . S
O72 C82 1.245 . S
O73 Zn53 1.970 . S
O73 C82 1.263 . S
O74 Zn59 1.985 . S
O74 C86 1.245 . S
O75 Zn58 1.970 . S
O75 C86 1.263 . S
O76 Zn62 1.985 . S
O76 C91 1.245 . S
O77 Zn64 1.970 . S
O77 C91 1.263 . S
C78 O89 1.262 . S
C78 O90 1.245 . S
O79 Zn66 1.985 . S
O79 C97 1.245 . S
O80 Zn69 1.970 . S
O80 C97 1.263 . S
O81 Zn59 1.955 . S
O81 C100 1.276 . S
C82 O72 1.245 . S
C82 O73 1.263 . S
O83 Zn52 1.955 . S
O83 C102 1.276 . S
C84 O92 1.262 . S
C84 O93 1.245 . S
O85 C56 1.276 . S
O85 Zn62 1.955 . S
C86 O74 1.245 . S
C86 O75 1.263 . S
O87 Zn66 1.955 . S
O87 C70 1.276 . S
C88 O95 1.262 . S
C88 O96 1.245 . S
O89 Zn53 1.945 . S
O89 C78 1.262 . S
O90 Zn69 1.981 . S
O90 C78 1.245 . S
C91 O76 1.245 . S
C91 O77 1.263 . S
O92 Zn58 1.945 . S
O92 C84 1.262 . S
O93 Zn64 1.981 . S
O93 C84 1.245 . S
C94 O98 1.262 . S
C94 O99 1.245 . S
O95 Zn64 1.945 . S
O95 C88 1.262 . S
O96 Zn53 1.981 . S
O96 C88 1.245 . S
C97 O79 1.245 . S
C97 O80 1.263 . S
O98 Zn69 1.945 . S
O98 C94 1.262 . S
O99 Zn58 1.981 . S
O99 C94 1.245 . S
C100 O81 1.276 . S
C100 O101 1.246 . S
O101 C100 1.246 . S
C102 O83 1.276 . S
C102 O103 1.246 . S
O103 C102 1.246 . S
H104 C107 0.931 . S
H105 C110 0.928 . S
H106 C112 0.930 . S
C107 H104 0.931 . S
C107 C108 1.413 1_554 S
C107 C109 1.360 . S
C108 C107 1.413 1_556 S
C108 C112 1.429 . S
C109 C107 1.360 . S
C109 C110 1.372 . S
C110 H105 0.928 . S
C110 C109 1.372 . S
C110 C111 1.404 . S
C111 C110 1.404 . S
C111 C112 1.391 1_554 S
C112 H106 0.930 . S
C112 C108 1.429 . S
C112 C111 1.391 1_556 S
H113 C116 0.931 . S
H114 C119 0.928 . S
H115 C121 0.930 . S
C116 H113 0.931 . S
C116 C117 1.413 1_554 S
C116 C118 1.360 . S
C117 C116 1.413 1_556 S
C117 C121 1.429 . S
C118 C116 1.360 . S
C118 C119 1.372 . S
C119 H114 0.928 . S
C119 C118 1.372 . S
C119 C120 1.404 . S
C120 C119 1.404 . S
C120 C121 1.391 1_554 S
C121 H115 0.930 . S
C121 C117 1.429 . S
C121 C120 1.391 1_556 S
H122 C125 0.931 . S
H123 C128 0.928 . S
H124 C130 0.930 . S
C125 H122 0.931 . S
C125 C126 1.413 . S
C125 C127 1.360 1_554 S
C126 C125 1.413 . S
C126 C130 1.429 . S
C127 C125 1.360 1_556 S
C127 C128 1.372 . S
C128 H123 0.928 . S
C128 C127 1.372 . S
C128 C129 1.404 1_556 S
C129 C128 1.404 1_554 S
C129 C130 1.391 . S
C130 H124 0.930 . S
C130 C126 1.429 . S
C130 C129 1.391 . S
H131 C134 0.931 . S
H132 C137 0.928 . S
H133 C139 0.930 . S
C134 H131 0.931 . S
C134 C135 1.413 1_554 S
C134 C136 1.360 . S
C135 C134 1.413 1_556 S
C135 C139 1.429 . S
C136 C134 1.360 . S
C136 C137 1.372 . S
C137 H132 0.928 . S
C137 C136 1.372 . S
C137 C138 1.404 . S
C138 C137 1.404 . S
C138 C139 1.391 1_554 S
C139 H133 0.930 . S
C139 C135 1.429 . S
C139 C138 1.391 1_556 S
H140 C143 0.931 . S
H141 C146 0.928 . S
H142 C148 0.930 . S
C143 H140 0.931 . S
C143 C144 1.413 . S
C143 C145 1.360 . S
C144 C143 1.413 . S
C144 C148 1.429 . S
C145 C143 1.360 . S
C145 C146 1.372 . S
C146 H141 0.928 . S
C146 C145 1.372 . S
C146 C147 1.404 . S
C147 C146 1.404 . S
C147 C148 1.391 . S
C148 H142 0.930 . S
C148 C144 1.429 . S
C148 C147 1.391 . S
H149 C152 0.931 . S
H150 C155 0.928 . S
H151 C157 0.930 . S
C152 H149 0.931 . S
C152 C153 1.413 . S
C152 C154 1.360 . S
C153 C152 1.413 . S
C153 C157 1.429 . S
C154 C152 1.360 . S
C154 C155 1.372 . S
C155 H150 0.928 . S
C155 C154 1.372 . S
C155 C156 1.404 . S
C156 C155 1.404 . S
C156 C157 1.391 . S
C157 H151 0.930 . S
C157 C153 1.429 . S
C157 C156 1.391 . S
H158 C161 0.931 . S
H159 C164 0.928 . S
H160 C166 0.930 . S
C161 H158 0.931 . S
C161 C162 1.413 . S
C161 C163 1.360 . S
C162 C161 1.413 . S
C162 C166 1.429 . S
C163 C161 1.360 . S
C163 C164 1.372 . S
C164 H159 0.928 . S
C164 C163 1.372 . S
C164 C165 1.404 . S
C165 C164 1.404 . S
C165 C166 1.391 . S
C166 H160 0.930 . S
C166 C162 1.429 . S
C166 C165 1.391 . S
H167 C170 0.931 . S
H168 C173 0.928 . S
H169 C175 0.930 . S
C170 H167 0.931 . S
C170 C171 1.413 . S
C170 C172 1.360 . S
C171 C170 1.413 . S
C171 C175 1.429 . S
C172 C170 1.360 . S
C172 C173 1.372 . S
C173 H168 0.928 . S
C173 C172 1.372 . S
C173 C174 1.404 . S
C174 C173 1.404 . S
C174 C175 1.391 . S
C175 H169 0.930 . S
C175 C171 1.429 . S
C175 C174 1.391 . S
H176 C182 0.930 . S
H177 C186 0.930 . S
H178 C191 0.929 . S
H179 C189 0.929 . S
H180 C184 0.929 . S
H181 C190 0.929 . S
C182 H176 0.930 . S
C182 C183 1.367 . S
C182 C190 1.378 . S
C183 C182 1.367 . S
C183 C191 1.433 1_554 S
C184 H180 0.929 . S
C184 C186 1.378 . S
C184 C188 1.350 1_556 S
C185 C188 1.463 . S
C185 C190 1.350 . S
C185 N193 1.427 1_554 S
C186 H177 0.930 . S
C186 C184 1.378 . S
C186 C187 1.367 1_556 S
C187 C186 1.367 1_554 S
C187 C189 1.433 . S
C188 C184 1.350 1_554 S
C188 C185 1.463 . S
C188 N192 1.427 . S
C189 H179 0.929 . S
C189 C187 1.433 . S
C189 N192 1.384 . S
C190 H181 0.929 . S
C190 C182 1.378 . S
C190 C185 1.350 . S
C191 H178 0.929 . S
C191 C183 1.433 1_556 S
C191 N193 1.384 . S
N192 C188 1.427 . S
N192 C189 1.384 . S
N193 C185 1.427 1_556 S
N193 C191 1.384 . S
H194 C200 0.930 . S
H195 C204 0.930 . S
H196 C209 0.929 . S
H197 C207 0.929 . S
H198 C202 0.929 . S
H199 C208 0.929 . S
C200 H194 0.930 . S
C200 C201 1.367 . S
C200 C208 1.378 . S
C201 C200 1.367 . S
C201 C209 1.433 1_554 S
C202 H198 0.929 . S
C202 C204 1.378 . S
C202 C206 1.350 1_556 S
C203 C206 1.463 . S
C203 C208 1.350 . S
C203 N211 1.427 1_554 S
C204 H195 0.930 . S
C204 C202 1.378 . S
C204 C205 1.367 1_556 S
C205 C204 1.367 1_554 S
C205 C207 1.433 . S
C206 C202 1.350 1_554 S
C206 C203 1.463 . S
C206 N210 1.427 . S
C207 H197 0.929 . S
C207 C205 1.433 . S
C207 N210 1.384 . S
C208 H199 0.929 . S
C208 C200 1.378 . S
C208 C203 1.350 . S
C209 H196 0.929 . S
C209 C201 1.433 1_556 S
C209 N211 1.384 . S
N210 C206 1.427 . S
N210 C207 1.384 . S
N211 C203 1.427 1_556 S
N211 C209 1.384 . S
H212 C218 0.930 . S
H213 C222 0.930 . S
H214 C227 0.929 . S
H215 C225 0.929 . S
H216 C220 0.929 . S
H217 C226 0.929 . S
C218 H212 0.930 . S
C218 C219 1.367 . S
C218 C226 1.378 . S
C219 C218 1.367 . S
C219 C227 1.433 1_554 S
C220 H216 0.929 . S
C220 C222 1.378 . S
C220 C224 1.350 1_556 S
C221 C224 1.463 . S
C221 C226 1.350 . S
C221 N229 1.427 1_554 S
C222 H213 0.930 . S
C222 C220 1.378 . S
C222 C223 1.367 1_556 S
C223 C222 1.367 1_554 S
C223 C225 1.433 . S
C224 C220 1.350 1_554 S
C224 C221 1.463 . S
C224 N228 1.427 . S
C225 H215 0.929 . S
C225 C223 1.433 . S
C225 N228 1.384 . S
C226 H217 0.929 . S
C226 C218 1.378 . S
C226 C221 1.350 . S
C227 H214 0.929 . S
C227 C219 1.433 1_556 S
C227 N229 1.384 . S
N228 C224 1.427 . S
N228 C225 1.384 . S
N229 C221 1.427 1_556 S
N229 C227 1.384 . S
H230 C236 0.930 . S
H231 C240 0.930 . S
H232 C245 0.929 . S
H233 C243 0.929 . S
H234 C238 0.929 . S
H235 C244 0.929 . S
C236 H230 0.930 . S
C236 C237 1.367 1_556 S
C236 C244 1.378 . S
C237 C236 1.367 1_554 S
C237 C245 1.433 . S
C238 H234 0.929 . S
C238 C240 1.378 . S
C238 C242 1.350 . S
C239 C242 1.463 . S
C239 C244 1.350 1_554 S
C239 N247 1.427 . S
C240 H231 0.930 . S
C240 C238 1.378 . S
C240 C241 1.367 . S
C241 C240 1.367 . S
C241 C243 1.433 1_554 S
C242 C238 1.350 . S
C242 C239 1.463 . S
C242 N246 1.427 1_554 S
C243 H233 0.929 . S
C243 C241 1.433 1_556 S
C243 N246 1.384 . S
C244 H235 0.929 . S
C244 C236 1.378 . S
C244 C239 1.350 1_556 S
C245 H232 0.929 . S
C245 C237 1.433 . S
C245 N247 1.384 . S
N246 C242 1.427 1_556 S
N246 C243 1.384 . S
N247 C239 1.427 . S
N247 C245 1.384 . S
H248 C254 0.930 . S
H249 C258 0.930 . S
H250 C263 0.929 . S
H251 C261 0.929 . S
H252 C256 0.929 . S
H253 C262 0.929 . S
C254 H248 0.930 . S
C254 C255 1.367 . S
C254 C262 1.378 . S
C255 C254 1.367 . S
C255 C263 1.433 . S
C256 H252 0.929 . S
C256 C258 1.378 . S
C256 C260 1.350 . S
C257 C260 1.463 . S
C257 C262 1.350 . S
C257 N265 1.427 . S
C258 H249 0.930 . S
C258 C256 1.378 . S
C258 C259 1.367 . S
C259 C258 1.367 . S
C259 C261 1.433 . S
C260 C256 1.350 . S
C260 C257 1.463 . S
C260 N264 1.427 . S
C261 H251 0.929 . S
C261 C259 1.433 . S
C261 N264 1.384 . S
C262 H253 0.929 . S
C262 C254 1.378 . S
C262 C257 1.350 . S
C263 H250 0.929 . S
C263 C255 1.433 . S
C263 N265 1.384 . S
N264 C260 1.427 . S
N264 C261 1.384 . S
N265 C257 1.427 . S
N265 C263 1.384 . S
H266 C272 0.930 . S
H267 C276 0.930 . S
H268 C281 0.929 . S
H269 C279 0.929 . S
H270 C274 0.929 . S
H271 C280 0.929 . S
C272 H266 0.930 . S
C272 C273 1.367 . S
C272 C280 1.378 . S
C273 C272 1.367 . S
C273 C281 1.433 . S
C274 H270 0.929 . S
C274 C276 1.378 . S
C274 C278 1.350 . S
C275 C278 1.463 . S
C275 C280 1.350 . S
C275 N283 1.427 . S
C276 H267 0.930 . S
C276 C274 1.378 . S
C276 C277 1.367 . S
C277 C276 1.367 . S
C277 C279 1.433 . S
C278 C274 1.350 . S
C278 C275 1.463 . S
C278 N282 1.427 . S
C279 H269 0.929 . S
C279 C277 1.433 . S
C279 N282 1.384 . S
C280 H271 0.929 . S
C280 C272 1.378 . S
C280 C275 1.350 . S
C281 H268 0.929 . S
C281 C273 1.433 . S
C281 N283 1.384 . S
N282 C278 1.427 . S
N282 C279 1.384 . S
N283 C275 1.427 . S
N283 C281 1.384 . S
H284 C290 0.930 . S
H285 C294 0.930 . S
H286 C299 0.929 . S
H287 C297 0.929 . S
H288 C292 0.929 . S
H289 C298 0.929 . S
C290 H284 0.930 . S
C290 C291 1.367 . S
C290 C298 1.378 . S
C291 C290 1.367 . S
C291 C299 1.433 . S
C292 H288 0.929 . S
C292 C294 1.378 . S
C292 C296 1.350 . S
C293 C296 1.463 . S
C293 C298 1.350 . S
C293 N301 1.427 . S
C294 H285 0.930 . S
C294 C292 1.378 . S
C294 C295 1.367 . S
C295 C294 1.367 . S
C295 C297 1.433 . S
C296 C292 1.350 . S
C296 C293 1.463 . S
C296 N300 1.427 . S
C297 H287 0.929 . S
C297 C295 1.433 . S
C297 N300 1.384 . S
C298 H289 0.929 . S
C298 C290 1.378 . S
C298 C293 1.350 . S
C299 H286 0.929 . S
C299 C291 1.433 . S
C299 N301 1.384 . S
N300 C296 1.427 . S
N300 C297 1.384 . S
N301 C293 1.427 . S
N301 C299 1.384 . S
H302 C308 0.930 . S
H303 C312 0.930 . S
H304 C317 0.929 . S
H305 C315 0.929 . S
H306 C310 0.929 . S
H307 C316 0.929 . S
C308 H302 0.930 . S
C308 C309 1.367 . S
C308 C316 1.378 . S
C309 C308 1.367 . S
C309 C317 1.433 . S
C310 H306 0.929 . S
C310 C312 1.378 . S
C310 C314 1.350 . S
C311 C314 1.463 . S
C311 C316 1.350 . S
C311 N319 1.427 . S
C312 H303 0.930 . S
C312 C310 1.378 . S
C312 C313 1.367 . S
C313 C312 1.367 . S
C313 C315 1.433 . S
C314 C310 1.350 . S
C314 C311 1.463 . S
C314 N318 1.427 . S
C315 H305 0.929 . S
C315 C313 1.433 . S
C315 N318 1.384 . S
C316 H307 0.929 . S
C316 C308 1.378 . S
C316 C311 1.350 . S
C317 H304 0.929 . S
C317 C309 1.433 . S
C317 N319 1.384 . S
N318 C314 1.427 . S
N318 C315 1.384 . S
N319 C311 1.427 . S
N319 C317 1.384 . S
H320 C326 0.930 . S
H321 C330 0.930 . S
H322 C335 0.929 . S
H323 C333 0.929 . S
H324 C328 0.929 . S
H325 C334 0.929 . S
C326 H320 0.930 . S
C326 C327 1.367 . S
C326 C334 1.378 . S
C327 C326 1.367 . S
C327 C335 1.433 . S
C328 H324 0.929 . S
C328 C330 1.378 . S
C328 C332 1.350 . S
C329 C332 1.463 . S
C329 C334 1.350 . S
C329 N337 1.427 . S
C330 H321 0.930 . S
C330 C328 1.378 . S
C330 C331 1.367 . S
C331 C330 1.367 . S
C331 C333 1.433 . S
C332 C328 1.350 . S
C332 C329 1.463 . S
C332 N336 1.427 . S
C333 H323 0.929 . S
C333 C331 1.433 . S
C333 N336 1.384 . S
C334 H325 0.929 . S
C334 C326 1.378 . S
C334 C329 1.350 . S
C335 H322 0.929 . S
C335 C327 1.433 . S
C335 N337 1.384 . S
N336 C332 1.427 . S
N336 C333 1.384 . S
N337 C329 1.427 . S
N337 C335 1.384 . S
H338 C344 0.930 1_565 S
H339 C348 0.930 . S
H340 C353 0.929 . S
H341 C351 0.929 . S
H342 C346 0.929 . S
H343 C352 0.929 . S
C344 H338 0.930 1_545 S
C344 C345 1.367 . S
C344 C352 1.378 . S
C345 C344 1.367 . S
C345 C353 1.433 . S
C346 H342 0.929 . S
C346 C348 1.378 . S
C346 C350 1.350 . S
C347 C350 1.463 . S
C347 C352 1.350 . S
C347 N355 1.427 . S
C348 H339 0.930 . S
C348 C346 1.378 . S
C348 C349 1.367 . S
C349 C348 1.367 . S
C349 C351 1.433 . S
C350 C346 1.350 . S
C350 C347 1.463 . S
C350 N354 1.427 . S
C351 H341 0.929 . S
C351 C349 1.433 . S
C351 N354 1.384 . S
C352 H343 0.929 . S
C352 C344 1.378 . S
C352 C347 1.350 . S
C353 H340 0.929 . S
C353 C345 1.433 . S
C353 N355 1.384 . S
N354 C350 1.427 . S
N354 C351 1.384 . S
N355 C347 1.427 . S
N355 C353 1.384 . S
H356 C362 0.930 . S
H357 C366 0.930 . S
H358 C371 0.929 . S
H359 C369 0.929 . S
H360 C364 0.929 . S
H361 C370 0.929 . S
C362 H356 0.930 . S
C362 C363 1.367 . S
C362 C370 1.378 . S
C363 C362 1.367 . S
C363 C371 1.433 . S
C364 H360 0.929 . S
C364 C366 1.378 . S
C364 C368 1.350 . S
C365 C368 1.463 . S
C365 C370 1.350 . S
C365 N373 1.427 . S
C366 H357 0.930 . S
C366 C364 1.378 . S
C366 C367 1.367 . S
C367 C366 1.367 . S
C367 C369 1.433 . S
C368 C364 1.350 . S
C368 C365 1.463 . S
C368 N372 1.427 . S
C369 H359 0.929 . S
C369 C367 1.433 . S
C369 N372 1.384 . S
C370 H361 0.929 . S
C370 C362 1.378 . S
C370 C365 1.350 . S
C371 H358 0.929 . S
C371 C363 1.433 . S
C371 N373 1.384 . S
N372 C368 1.427 . S
N372 C369 1.384 . S
N373 C365 1.427 . S
N373 C371 1.384 . S
H374 C380 0.930 . S
H375 C384 0.930 . S
H376 C389 0.917 1_545 S
H377 C387 0.929 . S
H378 C382 0.929 . S
H379 C388 0.929 . S
C380 H374 0.930 . S
C380 C381 1.367 . S
C380 C388 1.378 . S
C381 C380 1.367 . S
C381 C389 1.433 . S
C382 H378 0.929 . S
C382 C384 1.378 . S
C382 C386 1.350 . S
C383 C386 1.463 . S
C383 C388 1.350 . S
C383 N391 1.427 . S
C384 H375 0.930 . S
C384 C382 1.378 . S
C384 C385 1.367 . S
C385 C384 1.367 . S
C385 C387 1.433 . S
C386 C382 1.350 . S
C386 C383 1.463 . S
C386 N390 1.427 . S
C387 H377 0.929 . S
C387 C385 1.433 . S
C387 N390 1.384 . S
C388 H379 0.929 . S
C388 C380 1.378 . S
C388 C383 1.350 . S
C389 H376 0.917 1_565 S
C389 C381 1.433 . S
C389 N391 1.384 . S
N390 C386 1.427 . S
N390 C387 1.384 . S
N391 C383 1.427 . S
N391 C389 1.384 . S
H392 C398 0.930 . S
H393 C402 0.930 . S
H394 C407 0.929 . S
H395 C405 0.929 . S
H396 C400 0.929 . S
H397 C406 0.929 . S
C398 H392 0.930 . S
C398 C399 1.367 . S
C398 C406 1.378 . S
C399 C398 1.367 . S
C399 C407 1.433 . S
C400 H396 0.929 . S
C400 C402 1.378 . S
C400 C404 1.350 . S
C401 C404 1.463 . S
C401 C406 1.350 . S
C401 N409 1.427 . S
C402 H393 0.930 . S
C402 C400 1.378 . S
C402 C403 1.367 . S
C403 C402 1.367 . S
C403 C405 1.433 . S
C404 C400 1.350 . S
C404 C401 1.463 . S
C404 N408 1.427 . S
C405 H395 0.929 . S
C405 C403 1.433 . S
C405 N408 1.384 . S
C406 H397 0.929 . S
C406 C398 1.378 . S
C406 C401 1.350 . S
C407 H394 0.929 . S
C407 C399 1.433 . S
C407 N409 1.384 . S
N408 C404 1.427 . S
N408 C405 1.384 . S
N409 C401 1.427 . S
N409 C407 1.384 . S
H410 C416 0.930 . S
H411 C420 0.930 . S
H412 C425 0.936 . S
H413 C423 0.929 . S
H414 C418 0.929 . S
H415 C424 0.929 . S
C416 H410 0.930 . S
C416 C417 1.367 . S
C416 C424 1.378 . S
C417 C416 1.367 . S
C417 C425 1.433 . S
C418 H414 0.929 . S
C418 C420 1.378 . S
C418 C422 1.350 . S
C419 C422 1.463 . S
C419 C424 1.350 . S
C419 N427 1.427 . S
C420 H411 0.930 . S
C420 C418 1.378 . S
C420 C421 1.367 . S
C421 C420 1.367 . S
C421 C423 1.433 . S
C422 C418 1.350 . S
C422 C419 1.463 . S
C422 N426 1.427 . S
C423 H413 0.929 . S
C423 C421 1.433 . S
C423 N426 1.384 . S
C424 H415 0.929 . S
C424 C416 1.378 . S
C424 C419 1.350 . S
C425 H412 0.936 . S
C425 C417 1.433 . S
C425 N427 1.384 . S
N426 C422 1.427 . S
N426 C423 1.384 . S
N427 C419 1.427 . S
N427 C425 1.384 . S
H428 C434 0.930 . S
H429 C438 0.930 . S
H430 C443 0.929 . S
H431 C441 0.929 . S
H432 C436 0.929 . S
H433 C442 0.929 . S
C434 H428 0.930 . S
C434 C435 1.367 . S
C434 C442 1.378 . S
C435 C434 1.367 . S
C435 C443 1.433 . S
C436 H432 0.929 . S
C436 C438 1.378 . S
C436 C440 1.350 . S
C437 C440 1.463 . S
C437 C442 1.350 . S
C437 N445 1.427 . S
C438 H429 0.930 . S
C438 C436 1.378 . S
C438 C439 1.367 . S
C439 C438 1.367 . S
C439 C441 1.433 . S
C440 C436 1.350 . S
C440 C437 1.463 . S
C440 N444 1.427 . S
C441 H431 0.929 . S
C441 C439 1.433 . S
C441 N444 1.384 . S
C442 H433 0.929 . S
C442 C434 1.378 . S
C442 C437 1.350 . S
C443 H430 0.929 . S
C443 C435 1.433 . S
C443 N445 1.384 . S
N444 C440 1.427 . S
N444 C441 1.384 . S
N445 C437 1.427 . S
N445 C443 1.384 . S
H446 C452 0.930 . S
H447 C456 0.930 . S
H448 C461 0.929 . S
H449 C459 0.929 . S
H450 C454 0.929 . S
H451 C460 0.929 . S
C452 H446 0.930 . S
C452 C453 1.367 . S
C452 C460 1.378 . S
C453 C452 1.367 . S
C453 C461 1.433 . S
C454 H450 0.929 . S
C454 C456 1.378 . S
C454 C458 1.350 . S
C455 C458 1.463 . S
C455 C460 1.350 . S
C455 N463 1.427 . S
C456 H447 0.930 . S
C456 C454 1.378 . S
C456 C457 1.367 . S
C457 C456 1.367 . S
C457 C459 1.433 . S
C458 C454 1.350 . S
C458 C455 1.463 . S
C458 N462 1.427 . S
C459 H449 0.929 . S
C459 C457 1.433 . S
C459 N462 1.384 . S
C460 H451 0.929 . S
C460 C452 1.378 . S
C460 C455 1.350 . S
C461 H448 0.929 . S
C461 C453 1.433 . S
C461 N463 1.384 . S
N462 C458 1.427 . S
N462 C459 1.384 . S
N463 C455 1.427 . S
N463 C461 1.384 . S
H464 C470 0.930 . S
H465 C474 0.930 . S
H466 C479 0.929 . S
H467 C477 0.929 . S
H468 C472 0.929 . S
H469 C478 0.929 . S
C470 H464 0.930 . S
C470 C471 1.367 . S
C470 C478 1.378 . S
C471 C470 1.367 . S
C471 C479 1.433 . S
C472 H468 0.929 . S
C472 C474 1.378 . S
C472 C476 1.350 . S
C473 C476 1.463 . S
C473 C478 1.350 . S
C473 N481 1.427 . S
C474 H465 0.930 . S
C474 C472 1.378 . S
C474 C475 1.367 . S
C475 C474 1.367 . S
C475 C477 1.433 . S
C476 C472 1.350 . S
C476 C473 1.463 . S
C476 N480 1.427 . S
C477 H467 0.929 . S
C477 C475 1.433 . S
C477 N480 1.384 . S
C478 H469 0.929 . S
C478 C470 1.378 . S
C478 C473 1.350 . S
C479 H466 0.929 . S
C479 C471 1.433 . S
C479 N481 1.384 . S
N480 C476 1.427 . S
N480 C477 1.384 . S
N481 C473 1.427 . S
N481 C479 1.384 . S
H482 C488 0.930 . S
H483 C492 0.930 . S
H484 C497 0.929 . S
H485 C495 0.929 . S
H486 C490 0.929 . S
H487 C496 0.929 . S
C488 H482 0.930 . S
C488 C489 1.367 . S
C488 C496 1.378 . S
C489 C488 1.367 . S
C489 C497 1.433 . S
C490 H486 0.929 . S
C490 C492 1.378 . S
C490 C494 1.350 . S
C491 C494 1.463 . S
C491 C496 1.350 . S
C491 N499 1.427 . S
C492 H483 0.930 . S
C492 C490 1.378 . S
C492 C493 1.367 . S
C493 C492 1.367 . S
C493 C495 1.433 . S
C494 C490 1.350 . S
C494 C491 1.463 . S
C494 N498 1.427 . S
C495 H485 0.929 . S
C495 C493 1.433 . S
C495 N498 1.384 . S
C496 H487 0.929 . S
C496 C488 1.378 . S
C496 C491 1.350 . S
C497 H484 0.929 . S
C497 C489 1.433 . S
C497 N499 1.384 . S
N498 C494 1.427 . S
N498 C495 1.384 . S
N499 C491 1.427 . S
N499 C497 1.384 . S
H500 C506 0.930 . S
H501 C510 0.930 . S
H502 C515 0.929 . S
H503 C513 0.929 . S
H504 C508 0.929 . S
H505 C514 0.929 . S
C506 H500 0.930 . S
C506 C507 1.367 . S
C506 C514 1.378 . S
C507 C506 1.367 . S
C507 C515 1.433 . S
C508 H504 0.929 . S
C508 C510 1.378 . S
C508 C512 1.350 . S
C509 C512 1.463 . S
C509 C514 1.350 . S
C509 N517 1.427 . S
C510 H501 0.930 . S
C510 C508 1.378 . S
C510 C511 1.367 . S
C511 C510 1.367 . S
C511 C513 1.433 . S
C512 C508 1.350 . S
C512 C509 1.463 . S
C512 N516 1.427 . S
C513 H503 0.929 . S
C513 C511 1.433 . S
C513 N516 1.384 . S
C514 H505 0.929 . S
C514 C506 1.378 . S
C514 C509 1.350 . S
C515 H502 0.929 . S
C515 C507 1.433 . S
C515 N517 1.384 . S
N516 C512 1.427 . S
N516 C513 1.384 . S
N517 C509 1.427 . S
N517 C515 1.384 . S
H518 C524 0.930 . S
H519 C528 0.930 . S
H520 C533 0.929 . S
H521 C531 0.929 . S
H522 C526 0.929 . S
H523 C532 0.929 . S
C524 H518 0.930 . S
C524 C525 1.367 . S
C524 C532 1.378 . S
C525 C524 1.367 . S
C525 C533 1.433 . S
C526 H522 0.929 . S
C526 C528 1.378 . S
C526 C530 1.350 . S
C527 C530 1.463 . S
C527 C532 1.350 . S
C527 N535 1.427 . S
C528 H519 0.930 . S
C528 C526 1.378 . S
C528 C529 1.367 . S
C529 C528 1.367 . S
C529 C531 1.433 . S
C530 C526 1.350 . S
C530 C527 1.463 . S
C530 N534 1.427 . S
C531 H521 0.929 . S
C531 C529 1.433 . S
C531 N534 1.384 . S
C532 H523 0.929 . S
C532 C524 1.378 . S
C532 C527 1.350 . S
C533 H520 0.929 . S
C533 C525 1.433 . S
C533 N535 1.384 . S
N534 C530 1.427 . S
N534 C531 1.384 . S
N535 C527 1.427 . S
N535 C533 1.384 . S
H536 C542 0.930 . S
H537 C546 0.930 . S
H538 C551 0.929 . S
H539 C549 0.929 . S
H540 C544 0.929 . S
H541 C550 0.929 . S
C542 H536 0.930 . S
C542 C543 1.367 . S
C542 C550 1.378 . S
C543 C542 1.367 . S
C543 C551 1.433 . S
C544 H540 0.929 . S
C544 C546 1.378 . S
C544 C548 1.350 . S
C545 C548 1.463 . S
C545 C550 1.350 . S
C545 N553 1.427 . S
C546 H537 0.930 . S
C546 C544 1.378 . S
C546 C547 1.367 . S
C547 C546 1.367 . S
C547 C549 1.433 . S
C548 C544 1.350 . S
C548 C545 1.463 . S
C548 N552 1.427 . S
C549 H539 0.929 . S
C549 C547 1.433 . S
C549 N552 1.384 . S
C550 H541 0.929 . S
C550 C542 1.378 . S
C550 C545 1.350 . S
C551 H538 0.929 . S
C551 C543 1.433 . S
C551 N553 1.384 . S
N552 C548 1.427 . S
N552 C549 1.384 . S
N553 C545 1.427 . S
N553 C551 1.384 . S
H554 C560 0.930 . S
H555 C564 0.930 . S
H556 C569 0.929 . S
H557 C567 0.929 . S
H558 C562 0.929 . S
H559 C568 0.929 . S
C560 H554 0.930 . S
C560 C561 1.367 . S
C560 C568 1.378 . S
C561 C560 1.367 . S
C561 C569 1.433 . S
C562 H558 0.929 . S
C562 C564 1.378 . S
C562 C566 1.350 . S
C563 C566 1.463 . S
C563 C568 1.350 . S
C563 N571 1.427 . S
C564 H555 0.930 . S
C564 C562 1.378 . S
C564 C565 1.367 . S
C565 C564 1.367 . S
C565 C567 1.433 . S
C566 C562 1.350 . S
C566 C563 1.463 . S
C566 N570 1.427 . S
C567 H557 0.929 . S
C567 C565 1.433 . S
C567 N570 1.384 . S
C568 H559 0.929 . S
C568 C560 1.378 . S
C568 C563 1.350 . S
C569 H556 0.929 . S
C569 C561 1.433 . S
C569 N571 1.384 . S
N570 C566 1.427 . S
N570 C567 1.384 . S
N571 C563 1.427 . S
N571 C569 1.384 . S
H572 C578 0.930 . S
H573 C582 0.930 . S
H574 C587 0.929 . S
H575 C585 0.929 . S
H576 C580 0.929 . S
H577 C586 0.929 . S
C578 H572 0.930 . S
C578 C579 1.367 . S
C578 C586 1.378 . S
C579 C578 1.367 . S
C579 C587 1.433 . S
C580 H576 0.929 . S
C580 C582 1.378 . S
C580 C584 1.350 . S
C581 C584 1.463 . S
C581 C586 1.350 . S
C581 N589 1.427 . S
C582 H573 0.930 . S
C582 C580 1.378 . S
C582 C583 1.367 . S
C583 C582 1.367 . S
C583 C585 1.433 . S
C584 C580 1.350 . S
C584 C581 1.463 . S
C584 N588 1.427 . S
C585 H575 0.929 . S
C585 C583 1.433 . S
C585 N588 1.384 . S
C586 H577 0.929 . S
C586 C578 1.378 . S
C586 C581 1.350 . S
C587 H574 0.929 . S
C587 C579 1.433 . S
C587 N589 1.384 . S
N588 C584 1.427 . S
N588 C585 1.384 . S
N589 C581 1.427 . S
N589 C587 1.384 . S
H590 C596 0.930 . S
H591 C600 0.930 . S
H592 C605 0.929 . S
H593 C603 0.929 . S
H594 C598 0.929 . S
H595 C604 0.929 . S
C596 H590 0.930 . S
C596 C597 1.367 . S
C596 C604 1.378 . S
C597 C596 1.367 . S
C597 C605 1.433 . S
C598 H594 0.929 . S
C598 C600 1.378 . S
C598 C602 1.350 . S
C599 C602 1.463 . S
C599 C604 1.350 . S
C599 N607 1.427 . S
C600 H591 0.930 . S
C600 C598 1.378 . S
C600 C601 1.367 . S
C601 C600 1.367 . S
C601 C603 1.433 . S
C602 C598 1.350 . S
C602 C599 1.463 . S
C602 N606 1.427 . S
C603 H593 0.929 . S
C603 C601 1.433 . S
C603 N606 1.384 . S
C604 H595 0.929 . S
C604 C596 1.378 . S
C604 C599 1.350 . S
C605 H592 0.929 . S
C605 C597 1.433 . S
C605 N607 1.384 . S
N606 C602 1.427 . S
N606 C603 1.384 . S
N607 C599 1.427 . S
N607 C605 1.384 . S
C183 C45 1.546 . S
C187 C111 1.556 . S
C201 C30 1.547 . S
C205 C120 1.556 . S
C219 C39 1.548 . S
C223 C129 1.555 . S
C241 C138 1.556 . S
C237 C34 1.547 . S
C255 C97 1.545 . S
C259 C147 1.556 . S
C277 C156 1.558 . S
C273 C82 1.549 . S
C295 C165 1.555 . S
C291 C91 1.549 . S
C313 C174 1.555 . S
C309 C86 1.545 . S
C331 C163 1.462 . S
C327 C26 1.422 . S
C349 C171 1.465 . S
C345 C36 1.422 . S
C367 C144 1.466 . S
C363 C32 1.423 . S
C385 C153 1.467 . S
C381 C42 1.428 . S
C399 C18 1.481 . S
C403 C154 1.541 . S
C421 C162 1.538 . S
C417 C50 1.486 . S
C435 C4 1.485 . S
C439 C172 1.542 . S
C453 C48 1.495 . S
C457 C145 1.547 . S
C475 C127 1.470 . S
C471 C78 1.437 . S
C489 C88 1.421 . S
C493 C135 1.464 . S
C511 C108 1.465 . S
C507 C84 1.422 . S
C529 C117 1.465 . S
C525 C94 1.423 . S
C547 C118 1.545 . S
C543 C70 1.489 . S
C565 C126 1.538 . S
C561 C102 1.485 . S
C579 C56 1.483 . S
C583 C136 1.541 . S
C597 C100 1.494 . S
C601 C109 1.546 . S
