# Generated by pormake.
# Topology zzz, (3,6)-cn, num edge types: 1
# Building blocks:
#     Node 0, Type 0, BuildingBlock: VETTIZ_charged_linker_0, # of connection points: 3
#     Node 1, Type 0, BuildingBlock: VETTIZ_charged_linker_0, # of connection points: 3
#     Node 2, Type 0, BuildingBlock: VETTIZ_charged_linker_0, # of connection points: 3
#     Node 3, Type 0, BuildingBlock: VETTIZ_charged_linker_0, # of connection points: 3
#     Node 4, Type 0, BuildingBlock: VETTIZ_charged_linker_0, # of connection points: 3
#     Node 5, Type 0, BuildingBlock: VETTIZ_charged_linker_0, # of connection points: 3
#     Node 6, Type 0, BuildingBlock: VETTIZ_charged_linker_0, # of connection points: 3
#     Node 7, Type 0, BuildingBlock: VETTIZ_charged_linker_0, # of connection points: 3
#     Node 8, Type 1, BuildingBlock: JUFBIX_clean_sbu_0, # of connection points: 6
#     Node 9, Type 1, BuildingBlock: JUFBIX_clean_sbu_0, # of connection points: 6
#     Node 10, Type 1, BuildingBlock: JUFBIX_clean_sbu_0, # of connection points: 6
#     Node 11, Type 1, BuildingBlock: JUFBIX_clean_sbu_0, # of connection points: 6
#     Edge 12, Type (0, 1), BuildingBlock: TEMPAE_clean_linker_10, # of connection points: 2
#     Edge 13, Type (0, 1), BuildingBlock: TEMPAE_clean_linker_10, # of connection points: 2
#     Edge 14, Type (0, 1), BuildingBlock: TEMPAE_clean_linker_10, # of connection points: 2
#     Edge 15, Type (0, 1), BuildingBlock: TEMPAE_clean_linker_10, # of connection points: 2
#     Edge 16, Type (0, 1), BuildingBlock: TEMPAE_clean_linker_10, # of connection points: 2
#     Edge 17, Type (0, 1), BuildingBlock: TEMPAE_clean_linker_10, # of connection points: 2
#     Edge 18, Type (0, 1), BuildingBlock: TEMPAE_clean_linker_10, # of connection points: 2
#     Edge 19, Type (0, 1), BuildingBlock: TEMPAE_clean_linker_10, # of connection points: 2
#     Edge 20, Type (0, 1), BuildingBlock: TEMPAE_clean_linker_10, # of connection points: 2
#     Edge 21, Type (0, 1), BuildingBlock: TEMPAE_clean_linker_10, # of connection points: 2
#     Edge 22, Type (0, 1), BuildingBlock: TEMPAE_clean_linker_10, # of connection points: 2
#     Edge 23, Type (0, 1), BuildingBlock: TEMPAE_clean_linker_10, # of connection points: 2
#     Edge 24, Type (0, 1), BuildingBlock: TEMPAE_clean_linker_10, # of connection points: 2
#     Edge 25, Type (0, 1), BuildingBlock: TEMPAE_clean_linker_10, # of connection points: 2
#     Edge 26, Type (0, 1), BuildingBlock: TEMPAE_clean_linker_10, # of connection points: 2
#     Edge 27, Type (0, 1), BuildingBlock: TEMPAE_clean_linker_10, # of connection points: 2
#     Edge 28, Type (0, 1), BuildingBlock: TEMPAE_clean_linker_10, # of connection points: 2
#     Edge 29, Type (0, 1), BuildingBlock: TEMPAE_clean_linker_10, # of connection points: 2
#     Edge 30, Type (0, 1), BuildingBlock: TEMPAE_clean_linker_10, # of connection points: 2
#     Edge 31, Type (0, 1), BuildingBlock: TEMPAE_clean_linker_10, # of connection points: 2
#     Edge 32, Type (0, 1), BuildingBlock: TEMPAE_clean_linker_10, # of connection points: 2
#     Edge 33, Type (0, 1), BuildingBlock: TEMPAE_clean_linker_10, # of connection points: 2
#     Edge 34, Type (0, 1), BuildingBlock: TEMPAE_clean_linker_10, # of connection points: 2
#     Edge 35, Type (0, 1), BuildingBlock: TEMPAE_clean_linker_10, # of connection points: 2
# Relax obj value: 0.298
# Max RMSD: 0.228
# Mean RMSD: 0.191
data_MOF--net-zzz--node1-JUFBIX_clean_sbu_0--node2-VETTIZ_charged_linker_0--edge1-TEMPAE_clean_linker_10
_symmetry_space_group_name_H-M    P1
_symmetry_Int_Tables_number       1
_symmetry_cell_setting            triclinic
loop_
_symmetry_equiv_pos_as_xyz
'x, y, z'
_cell_length_a     57.332915
_cell_length_b     59.140529
_cell_length_c     22.888506
_cell_angle_alpha  82.778858
_cell_angle_beta   90.017604
_cell_angle_gamma 86.446159
loop_
_atom_site_label
_atom_site_type_symbol
_atom_site_fract_x
_atom_site_fract_y
_atom_site_fract_z
_atom_type_partial_charge
C0 C 0.81266 0.56091 0.41555 0.0
C1 C 0.83493 0.56996 0.41909 0.0
C2 C 0.84153 0.58666 0.37352 0.0
C3 C 0.8089 0.57906 0.31503 0.0
C4 C 0.79954 0.56632 0.36268 0.0
C5 C 0.77494 0.56037 0.34801 0.0
H6 H 0.69783 0.55027 0.12418 0.0
C7 C 0.79438 0.5783 0.26327 0.0
C8 C 0.77346 0.56854 0.28164 0.0
H9 H 0.68292 0.53849 0.30968 0.0
H10 H 0.72219 0.5494 0.33264 0.0
H11 H 0.72418 0.59681 0.1228 0.0
H12 H 0.74199 0.52597 0.12835 0.0
H13 H 0.7688 0.5372 0.10793 0.0
H14 H 0.74349 0.54421 0.06054 0.0
H15 H 0.72146 0.57967 0.06397 0.0
H16 H 0.74782 0.59385 0.07433 0.0
C17 C 0.75762 0.57437 0.38307 0.0
C18 C 0.77289 0.5344 0.36175 0.0
C19 C 0.8378 0.57095 0.07456 0.0
C20 C 0.83053 0.5635 0.02215 0.0
C21 C 0.80663 0.56419 0.00842 0.0
C22 C 0.79001 0.57052 0.04907 0.0
C23 C 0.79748 0.57502 0.10478 0.0
C24 C 0.821 0.57636 0.1158 0.0
C25 C 0.82575 0.58095 0.17777 0.0
C26 C 0.80108 0.58023 0.20335 0.0
C27 C 0.78494 0.5761 0.16071 0.0
C28 C 0.83599 0.60473 0.17537 0.0
C29 C 0.84252 0.56144 0.20817 0.0
C30 C 0.70288 0.55029 0.16985 0.0
C31 C 0.68749 0.54362 0.21508 0.0
C32 C 0.69463 0.5437 0.27409 0.0
C33 C 0.71726 0.55015 0.2872 0.0
C34 C 0.73256 0.55675 0.24073 0.0
C35 C 0.725 0.5567 0.18333 0.0
C36 C 0.74321 0.56303 0.13871 0.0
C37 C 0.76261 0.56878 0.17799 0.0
C38 C 0.75671 0.56479 0.2381 0.0
C39 C 0.73374 0.58439 0.09731 0.0
C40 C 0.74974 0.54169 0.10696 0.0
H41 H 0.83359 0.60444 0.28833 0.0
H42 H 0.80622 0.54932 0.45145 0.0
H43 H 0.78696 0.52508 0.33924 0.0
H44 H 0.75603 0.52906 0.34667 0.0
H45 H 0.77451 0.52886 0.40986 0.0
H46 H 0.76289 0.59221 0.38197 0.0
H47 H 0.7571 0.56673 0.42993 0.0
H48 H 0.73977 0.57583 0.36456 0.0
H49 H 0.85625 0.57061 0.08516 0.0
H50 H 0.80086 0.55866 0.96773 0.0
H51 H 0.77201 0.57045 0.03682 0.0
H52 H 0.84174 0.61136 0.13039 0.0
H53 H 0.85181 0.60407 0.20368 0.0
H54 H 0.8229 0.61766 0.18901 0.0
H55 H 0.83499 0.5446 0.20727 0.0
H56 H 0.8462 0.56338 0.25451 0.0
H57 H 0.85972 0.56106 0.18591 0.0
H58 H 0.85744 0.5954 0.37699 0.0
C59 C 0.82835 0.59148 0.32183 0.0
C60 C 0.01218 0.83016 0.02802 0.0
C61 C 0.01059 0.85395 0.02753 0.0
C62 C 0.00274 0.8634 0.07797 0.0
C63 C 0.99902 0.8256 0.12936 0.0
C64 C 0.00602 0.81636 0.07929 0.0
C65 C 0.00595 0.79077 0.08762 0.0
H66 H 0.98208 0.69227 0.25282 0.0
C67 C 0.99484 0.80667 0.17571 0.0
C68 C 0.99846 0.78625 0.15168 0.0
H69 H 0.00364 0.70458 0.07112 0.0
H70 H 0.00709 0.74396 0.07956 0.0
H71 H 0.02235 0.7304 0.29895 0.0
H72 H 0.94793 0.74145 0.25969 0.0
H73 H 0.95631 0.74798 0.33041 0.0
H74 H 0.95877 0.71891 0.31508 0.0
H75 H 1.00147 0.71337 0.33988 0.0
H76 H 0.00581 0.74193 0.35488 0.0
C77 C 0.0313 0.78106 0.07885 0.0
C78 C 0.98753 0.78383 0.04437 0.0
C79 C 0.97969 0.82714 0.37871 0.0
C80 C 0.97779 0.81499 0.43457 0.0
C81 C 0.97702 0.79096 0.43966 0.0
C82 C 0.9791 0.77935 0.38894 0.0
C83 C 0.98203 0.79198 0.33307 0.0
C84 C 0.98199 0.81554 0.32954 0.0
C85 C 0.98606 0.8269 0.26898 0.0
C86 C 0.98928 0.80648 0.23587 0.0
C87 C 0.98666 0.78574 0.27243 0.0
C88 C 0.00874 0.84001 0.27038 0.0
C89 C 0.96364 0.84197 0.24863 0.0
C90 C 0.98751 0.70371 0.21531 0.0
C91 C 0.99236 0.69549 0.16072 0.0
C92 C 0.9997 0.7106 0.1131 0.0
C93 C 1.00159 0.73357 0.11808 0.0
C94 C 0.9961 0.74189 0.17141 0.0
C95 C 0.98968 0.72721 0.21975 0.0
C96 C 0.98585 0.73995 0.27323 0.0
C97 C 0.98927 0.76468 0.24708 0.0
C98 C 0.99536 0.76525 0.18723 0.0
C99 C 0.0048 0.73094 0.31961 0.0
C100 C 0.96085 0.73691 0.29617 0.0
H101 H 0.99149 0.85777 0.16576 0.0
H102 H 0.01797 0.82253 0.98947 0.0
H103 H 0.97416 0.79799 0.03095 0.0
H104 H 0.97725 0.76965 0.06441 0.0
H105 H 0.99583 0.779 0.00351 0.0
H106 H 0.04421 0.79176 0.09673 0.0
H107 H 0.03517 0.78071 0.03141 0.0
H108 H 0.03504 0.7638 0.10279 0.0
H109 H 0.98015 0.84559 0.37342 0.0
H110 H 0.9754 0.78122 0.48263 0.0
H111 H 0.97861 0.76108 0.39488 0.0
H112 H 0.02136 0.83122 0.30402 0.0
H113 H 0.00484 0.85761 0.28135 0.0
H114 H 0.0186 0.8409 0.22883 0.0
H115 H 0.94774 0.83493 0.26996 0.0
H116 H 0.96011 0.84266 0.20087 0.0
H117 H 0.96461 0.85962 0.25986 0.0
H118 H 1.00166 0.88173 0.07863 0.0
C119 C 0.99693 0.8494 0.12873 0.0
C120 C 0.83834 0.97255 0.17586 0.0
C121 C 0.85037 0.96449 0.12756 0.0
C122 C 0.84024 0.94821 0.09722 0.0
C123 C 0.80516 0.95182 0.15336 0.0
C124 C 0.81572 0.96516 0.18932 0.0
C125 C 0.80022 0.96868 0.24207 0.0
H126 H 0.6948 0.94481 0.37536 0.0
C127 C 0.7819 0.94753 0.17465 0.0
C128 C 0.77888 0.95547 0.22936 0.0
H129 H 0.74636 0.9862 0.43792 0.0
H130 H 0.77179 0.97893 0.35532 0.0
H131 H 0.68763 0.96325 0.27309 0.0
H132 H 0.7291 0.90474 0.322 0.0
H133 H 0.71443 0.90233 0.25505 0.0
H134 H 0.69795 0.91074 0.31662 0.0
H135 H 0.68226 0.94018 0.23473 0.0
H136 H 0.70011 0.96271 0.20273 0.0
C137 C 0.79384 0.99443 0.24077 0.0
C138 C 0.81321 0.95803 0.29879 0.0
C139 C 0.71556 0.95163 0.03117 0.0
C140 C 0.69184 0.94752 0.04015 0.0
C141 C 0.68532 0.93343 0.09108 0.0
C142 C 0.70164 0.92639 0.13614 0.0
C143 C 0.72414 0.93423 0.13048 0.0
C144 C 0.73159 0.94435 0.07683 0.0
C145 C 0.75726 0.94816 0.07787 0.0
C146 C 0.76278 0.94107 0.14343 0.0
C147 C 0.74254 0.93529 0.17433 0.0
C148 C 0.76127 0.97363 0.059 0.0
C149 C 0.76987 0.93283 0.03637 0.0
C150 C 0.71182 0.9519 0.37209 0.0
C151 C 0.71885 0.96556 0.41359 0.0
C152 C 0.74072 0.97532 0.40664 0.0
C153 C 0.75536 0.97114 0.35878 0.0
C154 C 0.74764 0.95775 0.31663 0.0
C155 C 0.72585 0.9489 0.32349 0.0
C156 C 0.71839 0.93796 0.27163 0.0
C157 C 0.73986 0.94047 0.23306 0.0
C158 C 0.75733 0.95174 0.25973 0.0
C159 C 0.69607 0.95159 0.24382 0.0
C160 C 0.71463 0.91256 0.29226 0.0
H161 H 0.81114 0.9277 0.09073 0.0
H162 H 0.84632 0.98404 0.20205 0.0
H163 H 0.81996 0.94027 0.29455 0.0
H164 H 0.80179 0.95703 0.33765 0.0
H165 H 0.8283 0.96807 0.3075 0.0
H166 H 0.78725 1.00187 0.19633 0.0
H167 H 0.8094 1.00356 0.25112 0.0
H168 H 0.77993 0.99798 0.27219 0.0
H169 H 0.7211 0.96146 0.99101 0.0
H170 H 0.66729 0.92934 0.09803 0.0
H171 H 0.69616 0.91599 0.1749 0.0
H172 H 0.75134 0.9846 0.08767 0.0
H173 H 0.75565 0.97897 0.01262 0.0
H174 H 0.78006 0.97688 0.06196 0.0
H175 H 0.75926 0.93206 0.99606 0.0
H176 H 0.77321 0.91509 0.05849 0.0
H177 H 0.7865 0.9398 0.02009 0.0
H178 H 0.84966 0.9409 0.06231 0.0
C179 C 0.81783 0.94145 0.11099 0.0
C180 C 0.50044 0.70632 0.37133 0.0
C181 C 0.49415 0.68415 0.39431 0.0
C182 C 0.47858 0.67294 0.3624 0.0
C183 C 0.47722 0.70421 0.2834 0.0
C184 C 0.49146 0.71619 0.31546 0.0
C185 C 0.49533 0.73962 0.28219 0.0
H186 H 0.47765 0.81163 0.02273 0.0
C187 C 0.47216 0.71765 0.22567 0.0
C188 C 0.48232 0.73878 0.22399 0.0
H189 H 0.51169 0.82787 0.17914 0.0
H190 H 0.50575 0.7896 0.22836 0.0
H191 H 0.50198 0.76335 0.02483 0.0
H192 H 0.43516 0.78672 0.08708 0.0
H193 H 0.43075 0.76284 0.0506 0.0
H194 H 0.44234 0.78779 0.01047 0.0
H195 H 0.4775 0.77081 0.97598 0.0
H196 H 0.48297 0.74222 0.0134 0.0
C197 C 0.52176 0.74182 0.27283 0.0
C198 C 0.48397 0.7579 0.31751 0.0
C199 C 0.43614 0.67732 0.06919 0.0
C200 C 0.43284 0.68297 0.00819 0.0
C201 C 0.43575 0.70563 0.98289 0.0
C202 C 0.44327 0.72188 0.01734 0.0
C203 C 0.44811 0.71539 0.07765 0.0
C204 C 0.44391 0.69358 0.10263 0.0
C205 C 0.451 0.68907 0.16624 0.0
C206 C 0.46097 0.71157 0.17517 0.0
C207 C 0.45915 0.72693 0.12348 0.0
C208 C 0.46995 0.6689 0.17291 0.0
C209 C 0.42855 0.68481 0.20302 0.0
C210 C 0.48354 0.80726 0.06795 0.0
C211 C 0.49473 0.8231 0.09715 0.0
C212 C 0.50289 0.8161 0.15543 0.0
C213 C 0.49926 0.79395 0.18414 0.0
C214 C 0.48741 0.77856 0.15432 0.0
C215 C 0.47998 0.78551 0.09692 0.0
C216 C 0.46811 0.76739 0.07033 0.0
C217 C 0.46859 0.74859 0.1216 0.0
C218 C 0.48011 0.75479 0.17127 0.0
C219 C 0.48319 0.76058 0.01817 0.0
C220 C 0.44278 0.77655 0.0532 0.0
H221 H 0.45869 0.67291 0.28562 0.0
H222 H 0.51213 0.71545 0.39568 0.0
H223 H 0.46618 0.75328 0.3321 0.0
H224 H 0.48169 0.77484 0.29127 0.0
H225 H 0.49455 0.75939 0.35737 0.0
H226 H 0.52966 0.72659 0.25445 0.0
H227 H 0.53075 0.74311 0.31518 0.0
H228 H 0.52554 0.75684 0.24143 0.0
H229 H 0.43456 0.66002 0.09012 0.0
H230 H 0.43309 0.71052 0.93604 0.0
H231 H 0.44578 0.73865 0.99521 0.0
H232 H 0.48132 0.66948 0.1334 0.0
H233 H 0.46187 0.65218 0.17816 0.0
H234 H 0.48222 0.66925 0.20983 0.0
H235 H 0.41261 0.6929 0.17931 0.0
H236 H 0.42871 0.69257 0.24464 0.0
H237 H 0.42595 0.66628 0.21316 0.0
H238 H 0.47337 0.65608 0.37955 0.0
C239 C 0.47006 0.68281 0.30764 0.0
C240 C 0.3045 0.4722 0.31944 0.0
C241 C 0.31866 0.46529 0.37013 0.0
C242 C 0.31059 0.44922 0.41514 0.0
C243 C 0.27332 0.45139 0.36678 0.0
C244 C 0.28185 0.46411 0.318 0.0
C245 C 0.26419 0.46632 0.26751 0.0
H246 H 0.15244 0.44596 0.18735 0.0
C247 C 0.24923 0.4471 0.35642 0.0
C248 C 0.24365 0.45395 0.29708 0.0
H249 H 0.20361 0.47979 0.07516 0.0
H250 H 0.23227 0.47271 0.15514 0.0
H251 H 0.18691 0.40535 0.26311 0.0
H252 H 0.15138 0.46711 0.27498 0.0
H253 H 0.16734 0.46704 0.34109 0.0
H254 H 0.14674 0.4456 0.33327 0.0
H255 H 0.15656 0.41371 0.27252 0.0
H256 H 0.17563 0.40556 0.33519 0.0
C257 C 0.2749 0.45385 0.21768 0.0
C258 C 0.25773 0.49187 0.24844 0.0
C259 C 0.19166 0.45714 0.51718 0.0
C260 C 0.16755 0.45416 0.52019 0.0
C261 C 0.15744 0.44046 0.48212 0.0
C262 C 0.17058 0.4324 0.43665 0.0
C263 C 0.19358 0.43872 0.42875 0.0
C264 C 0.20452 0.44872 0.47166 0.0
C265 C 0.23011 0.45073 0.45935 0.0
C266 C 0.23158 0.44263 0.39828 0.0
C267 C 0.20953 0.43779 0.37889 0.0
C268 C 0.24423 0.4351 0.50775 0.0
C269 C 0.23627 0.47589 0.45743 0.0
C270 C 0.16977 0.45197 0.17959 0.0
C271 C 0.17553 0.46372 0.12497 0.0
C272 C 0.19861 0.47064 0.11679 0.0
C273 C 0.21518 0.46666 0.16333 0.0
C274 C 0.20852 0.45593 0.21875 0.0
C275 C 0.18598 0.44901 0.22586 0.0
C276 C 0.18062 0.43994 0.28817 0.0
C277 C 0.20407 0.44163 0.31767 0.0
C278 C 0.22062 0.45075 0.27684 0.0
C279 C 0.17447 0.41478 0.29008 0.0
C280 C 0.16062 0.4556 0.3109 0.0
H281 H 0.28265 0.4285 0.44544 0.0
H282 H 0.31083 0.48351 0.28279 0.0
H283 H 0.25292 0.50059 0.28744 0.0
H284 H 0.24261 0.49469 0.21807 0.0
H285 H 0.27274 0.50036 0.2265 0.0
H286 H 0.28308 0.43687 0.23585 0.0
H287 H 0.28864 0.46387 0.19438 0.0
H288 H 0.26176 0.45051 0.18521 0.0
H289 H 0.19992 0.46677 0.54777 0.0
H290 H 0.13902 0.43734 0.48494 0.0
H291 H 0.16238 0.42222 0.40793 0.0
H292 H 0.23562 0.43491 0.55133 0.0
H293 H 0.26173 0.44139 0.51431 0.0
H294 H 0.24604 0.41722 0.49737 0.0
H295 H 0.22546 0.48707 0.42374 0.0
H296 H 0.25494 0.47788 0.44655 0.0
H297 H 0.2333 0.48206 0.50084 0.0
H298 H 0.32157 0.44285 0.45293 0.0
C299 C 0.28803 0.44187 0.4129 0.0
C300 C 0.93975 0.20147 0.4652 0.0
C301 C 0.93358 0.17985 0.45358 0.0
C302 C 0.9313 0.17557 0.39484 0.0
C303 C 0.94591 0.21251 0.36106 0.0
C304 C 0.94579 0.21753 0.41833 0.0
C305 C 0.95477 0.24057 0.42315 0.0
H306 H 0.01072 0.3325 0.30449 0.0
C307 C 0.95741 0.23093 0.32437 0.0
C308 C 0.96246 0.24751 0.36014 0.0
H309 H 0.97808 0.31972 0.47467 0.0
H310 H 0.96576 0.28403 0.45112 0.0
H311 H 0.03144 0.27677 0.30313 0.0
H312 H 0.96807 0.31174 0.22398 0.0
H313 H 0.98565 0.29791 0.17341 0.0
H314 H 0.9965 0.32155 0.20485 0.0
H315 H 0.03265 0.30006 0.2448 0.0
H316 H 0.02753 0.27164 0.22952 0.0
C317 C 0.97576 0.23732 0.46684 0.0
C318 C 0.93404 0.25633 0.4413 0.0
C319 C 0.98021 0.21706 0.11886 0.0
C320 C 0.99578 0.2267 0.07721 0.0
C321 C 0.00662 0.24658 0.08836 0.0
C322 C 1.00175 0.25661 0.14045 0.0
C323 C 0.98643 0.24625 0.1825 0.0
C324 C 0.9762 0.22666 0.17089 0.0
C325 C 0.96276 0.21591 0.22181 0.0
C326 C 0.9659 0.23243 0.26601 0.0
C327 C 0.97946 0.25059 0.24322 0.0
C328 C 0.97455 0.19176 0.24223 0.0
C329 C 0.93684 0.21599 0.20248 0.0
C330 C 1.00083 0.32185 0.33614 0.0
C331 C 0.99523 0.32883 0.39164 0.0
C332 C 0.98246 0.31467 0.43188 0.0
C333 C 0.97522 0.29395 0.41795 0.0
C334 C 0.98077 0.28699 0.36302 0.0
C335 C 0.99323 0.30075 0.32256 0.0
C336 C 0.99711 0.28985 0.26633 0.0
C337 C 0.9838 0.26812 0.27914 0.0
C338 C 0.97488 0.26657 0.33671 0.0
C339 C 0.02359 0.28433 0.26006 0.0
C340 C 0.98634 0.30611 0.21401 0.0
H341 H 0.93637 0.18719 0.30475 0.0
H342 H 0.94132 0.20518 0.51015 0.0
H343 H 0.9168 0.24956 0.43318 0.0
H344 H 0.93334 0.27348 0.41517 0.0
H345 H 0.9349 0.25829 0.48888 0.0
H346 H 0.98727 0.22215 0.4591 0.0
H347 H 0.9697 0.23464 0.51314 0.0
H348 H 0.98717 0.25177 0.46216 0.0
H349 H 0.97228 0.20134 0.11276 0.0
H350 H 0.01894 0.25419 0.05707 0.0
H351 H 0.01039 0.27172 0.14671 0.0
H352 H 0.993 0.19015 0.22739 0.0
H353 H 0.96516 0.1782 0.22448 0.0
H354 H 0.97585 0.18784 0.29068 0.0
H355 H 0.9314 0.23217 0.17421 0.0
H356 H 0.92466 0.21511 0.24001 0.0
H357 H 0.93405 0.20166 0.17673 0.0
H358 H 0.92656 0.15899 0.38504 0.0
C359 C 0.93737 0.19185 0.34841 0.0
C360 C 0.28302 0.06257 0.14135 0.0
C361 C 0.30424 0.07227 0.12261 0.0
C362 C 0.31284 0.08938 0.15293 0.0
C363 C 0.28421 0.08185 0.22807 0.0
C364 C 0.27268 0.06856 0.19387 0.0
C365 C 0.24906 0.0632 0.22093 0.0
H366 H 0.18679 0.05364 0.47912 0.0
C367 C 0.27303 0.08112 0.28521 0.0
C368 C 0.2514 0.07141 0.28164 0.0
H369 H 0.15903 0.04672 0.30754 0.0
H370 H 0.19702 0.05499 0.26337 0.0
H371 H 0.231 0.02683 0.46832 0.0
H372 H 0.21423 0.09848 0.44377 0.0
H373 H 0.24077 0.09373 0.48387 0.0
H374 H 0.21518 0.0802 0.51274 0.0
H375 H 0.23568 0.04354 0.52646 0.0
H376 H 0.2585 0.03771 0.47502 0.0
C377 C 0.24583 0.03739 0.22564 0.0
C378 C 0.23009 0.07768 0.18257 0.0
C379 C 0.32902 0.0737 0.45742 0.0
C380 C 0.32607 0.06564 0.517 0.0
C381 C 0.30342 0.0646 0.54024 0.0
C382 C 0.28387 0.07004 0.50339 0.0
C383 C 0.28709 0.07566 0.44252 0.0
C384 C 0.30935 0.07826 0.4207 0.0
C385 C 0.3096 0.08342 0.35471 0.0
C386 C 0.28365 0.08229 0.34051 0.0
C387 C 0.27086 0.07719 0.39199 0.0
C388 C 0.32492 0.06435 0.32991 0.0
C389 C 0.31878 0.1075 0.33781 0.0
C390 C 0.18873 0.05403 0.4319 0.0
C391 C 0.17 0.04953 0.39686 0.0
C392 C 0.17325 0.05031 0.33543 0.0
C393 C 0.19514 0.0553 0.30987 0.0
C394 C 0.21366 0.06005 0.34602 0.0
C395 C 0.21004 0.05934 0.40599 0.0
C396 C 0.23123 0.06431 0.43894 0.0
C397 C 0.24774 0.07024 0.38864 0.0
C398 C 0.23783 0.06726 0.33393 0.0
C399 C 0.23958 0.04212 0.47947 0.0
C400 C 0.22514 0.0852 0.47203 0.0
H401 H 0.30932 0.10768 0.22723 0.0
H402 H 0.27517 0.05054 0.1166 0.0
H403 H 0.23552 0.09536 0.17 0.0
H404 H 0.2134 0.07957 0.20576 0.0
H405 H 0.22697 0.07013 0.14139 0.0
H406 H 0.26061 0.02763 0.25072 0.0
H407 H 0.24519 0.03173 0.18122 0.0
H408 H 0.2295 0.03284 0.24858 0.0
H409 H 0.34638 0.07473 0.43903 0.0
H410 H 0.3009 0.05877 0.58648 0.0
H411 H 0.26705 0.06868 0.52335 0.0
H412 H 0.31809 0.04734 0.34394 0.0
H413 H 0.34328 0.06401 0.34558 0.0
H414 H 0.3257 0.06672 0.28145 0.0
H415 H 0.32669 0.11429 0.37589 0.0
H416 H 0.30449 0.12013 0.32059 0.0
H417 H 0.3328 0.10726 0.3044 0.0
H418 H 0.3284 0.09784 0.138 0.0
C419 C 0.30258 0.0945 0.20522 0.0
C420 C 0.50994 0.32315 0.18681 0.0
C421 C 0.51502 0.34572 0.16418 0.0
C422 C 0.52985 0.35767 0.19621 0.0
C423 C 0.53275 0.32626 0.27478 0.0
C424 C 0.51932 0.31359 0.24253 0.0
C425 C 0.5167 0.28985 0.27545 0.0
H426 H 0.53806 0.21797 0.53363 0.0
C427 C 0.53839 0.31294 0.33234 0.0
C428 C 0.52947 0.29125 0.3337 0.0
H429 H 0.50533 0.20034 0.37701 0.0
H430 H 0.50903 0.23915 0.32849 0.0
H431 H 0.57889 0.2456 0.46972 0.0
H432 H 0.51087 0.26491 0.53268 0.0
H433 H 0.52842 0.28717 0.54432 0.0
H434 H 0.53557 0.25879 0.58136 0.0
H435 H 0.5716 0.24377 0.54639 0.0
H436 H 0.58173 0.26958 0.50698 0.0
C437 C 0.52913 0.27225 0.23981 0.0
C438 C 0.49051 0.28623 0.28479 0.0
C439 C 0.57166 0.35485 0.48949 0.0
C440 C 0.57516 0.34922 0.55042 0.0
C441 C 0.57334 0.32636 0.57549 0.0
C442 C 0.56677 0.30978 0.54083 0.0
C443 C 0.56177 0.31616 0.48055 0.0
C444 C 0.56483 0.33826 0.45584 0.0
C445 C 0.5577 0.34254 0.39224 0.0
C446 C 0.54904 0.31951 0.38299 0.0
C447 C 0.55156 0.30412 0.4345 0.0
C448 C 0.57991 0.34803 0.35552 0.0
C449 C 0.53775 0.36177 0.38582 0.0
C450 C 0.53199 0.22218 0.48851 0.0
C451 C 0.52185 0.2058 0.45898 0.0
C452 C 0.51337 0.21254 0.40089 0.0
C453 C 0.5157 0.23501 0.3726 0.0
C454 C 0.52654 0.25097 0.4027 0.0
C455 C 0.53425 0.24425 0.45998 0.0
C456 C 0.5449 0.26298 0.48695 0.0
C457 C 0.54342 0.28192 0.43602 0.0
C458 C 0.53244 0.27522 0.3862 0.0
C459 C 0.5706 0.25519 0.50392 0.0
C460 C 0.52936 0.26879 0.5393 0.0
H461 H 0.5495 0.35854 0.27298 0.0
H462 H 0.49885 0.31346 0.16233 0.0
H463 H 0.48174 0.30101 0.30337 0.0
H464 H 0.48752 0.27092 0.31602 0.0
H465 H 0.48174 0.28453 0.2424 0.0
H466 H 0.5466 0.27785 0.22525 0.0
H467 H 0.51878 0.27028 0.19991 0.0
H468 H 0.53231 0.25534 0.2658 0.0
H469 H 0.5724 0.37229 0.46877 0.0
H470 H 0.57617 0.32149 0.62229 0.0
H471 H 0.56511 0.29282 0.56275 0.0
H472 H 0.59616 0.34073 0.37919 0.0
H473 H 0.58149 0.36674 0.34556 0.0
H474 H 0.5803 0.34032 0.31381 0.0
H475 H 0.52635 0.3605 0.42531 0.0
H476 H 0.52568 0.36089 0.34881 0.0
H477 H 0.54489 0.37893 0.38089 0.0
H478 H 0.53414 0.37487 0.1793 0.0
C479 C 0.53877 0.34811 0.25083 0.0
Co480 Co 0.01778 0.03223 0.79911 0.0
C481 C 0.982 1.00214 0.8516 0.0
Co482 Co 0.00261 0.9952 0.73582 0.0
C483 C 0.02045 0.07896 0.83552 0.0
C484 C 0.0374 0.05204 0.89453 0.0
N485 N 0.02645 0.05611 0.84158 0.0
N486 N 0.02721 0.08885 0.8827 0.0
C487 C 0.03807 0.07188 0.91922 0.0
H488 H 0.00993 0.08785 0.7995 0.0
H489 H 0.04326 0.03546 0.91662 0.0
C490 C 0.03668 0.02594 0.67918 0.0
N491 N 0.983 0.98271 0.68528 0.0
C492 C 0.98595 0.9603 0.67895 0.0
C493 C 0.96563 0.99092 0.64722 0.0
N494 N 0.97136 0.95403 0.6383 0.0
C495 C 0.95851 0.97335 0.61822 0.0
C496 C 0.98127 0.04421 0.7272 0.0
O497 O 0.03663 0.03784 0.72454 0.0
O498 O 0.02402 0.00821 0.67636 0.0
O499 O 0.98467 0.0239 0.71546 0.0
O500 O 0.9939 0.05137 0.76474 0.0
O501 O 0.98257 0.99066 0.80587 0.0
H502 H 0.95876 0.00848 0.64005 0.0
H503 H 0.99924 0.94894 0.70257 0.0
O504 O 0.99534 0.01902 0.85711 0.0
O505 O 0.04454 0.01229 0.83953 0.0
O506 O 0.02212 1.00159 0.78017 0.0
C507 C 0.03885 0.99609 0.81409 0.0
H508 H 0.04502 0.07348 0.96241 0.0
H509 H 0.94499 0.97477 0.58472 0.0
Co510 Co 0.50366 0.02285 0.81409 0.0
C511 C 0.50962 0.97543 0.84276 0.0
Co512 Co 0.52081 0.0054 0.74348 0.0
C513 C 0.46436 0.03126 0.8889 0.0
C514 C 0.49017 0.0555 0.89485 0.0
N515 N 0.48589 0.03676 0.8697 0.0
N516 N 0.45486 0.04595 0.92435 0.0
C517 C 0.47121 0.06115 0.92848 0.0
H518 H 0.45564 0.0169 0.87617 0.0
H519 H 0.5057 0.06493 0.88749 0.0
C520 C 0.51469 0.05282 0.71473 0.0
N521 N 0.5385 0.99155 0.68737 0.0
C522 C 0.56034 0.99637 0.66913 0.0
C523 C 0.53299 0.97424 0.65784 0.0
N524 N 0.56872 0.98276 0.62975 0.0
C525 C 0.55145 0.96888 0.6223 0.0
C526 C 0.47399 0.00944 0.72824 0.0
O527 O 0.50588 0.05192 0.76611 0.0
O528 O 0.52263 0.03435 0.69674 0.0
O529 O 0.49225 1.00147 0.70448 0.0
O530 O 0.47594 0.01879 0.7747 0.0
O531 O 0.51868 0.97629 0.79164 0.0
H532 H 0.51676 0.96582 0.66254 0.0
H533 H 0.56994 0.00973 0.68432 0.0
O534 O 0.50166 0.99392 0.86059 0.0
O535 O 0.53202 0.02665 0.85346 0.0
O536 O 0.54867 0.00967 0.78288 0.0
C537 C 0.55038 0.01892 0.82967 0.0
H538 H 0.46926 0.07591 0.95202 0.0
H539 H 0.55233 0.95538 0.59436 0.0
Co540 Co 0.51843 0.51914 0.80498 0.0
C541 C 0.49775 0.48106 0.86054 0.0
Co542 Co 0.4864 0.51164 0.75849 0.0
C543 C 0.55096 0.52587 0.89888 0.0
C544 C 0.56609 0.52999 0.813 0.0
N545 N 0.54601 0.52536 0.8412 0.0
N546 N 0.5734 0.53073 0.90767 0.0
C547 C 0.58287 0.53323 0.85343 0.0
H548 H 0.53829 0.52284 0.93356 0.0
H549 H 0.56846 0.5307 0.76593 0.0
C550 C 0.50716 0.54967 0.70274 0.0
N551 N 0.45865 0.50538 0.72294 0.0
C552 C 0.45337 0.50349 0.6661 0.0
C553 C 0.43858 0.50183 0.75229 0.0
N554 N 0.43074 0.49879 0.65911 0.0
C555 C 0.42151 0.4979 0.71351 0.0
C556 C 0.4792 0.54225 0.84112 0.0
O557 O 0.52184 0.54471 0.74496 0.0
O558 O 0.49023 0.53692 0.69925 0.0
O559 O 0.4693 0.53171 0.80389 0.0
O560 O 0.50108 0.53875 0.85004 0.0
O561 O 0.48299 0.48607 0.81856 0.0
H562 H 0.43646 0.50219 0.79913 0.0
H563 H 0.46594 0.50526 0.63083 0.0
O564 O 0.51463 0.49383 0.86398 0.0
O565 O 0.53559 0.49916 0.75946 0.0
O566 O 0.50376 0.49198 0.71354 0.0
C567 C 0.52567 0.48858 0.72231 0.0
H568 H 0.60085 0.53664 0.84343 0.0
H569 H 0.40353 0.49496 0.72474 0.0
Co570 Co 0.00285 0.52929 0.7905 0.0
C571 C 0.03663 0.49928 0.84891 0.0
Co572 Co 1.0023 0.49418 0.76531 0.0
C573 C 1.00118 0.56352 0.87148 0.0
C574 C 0.99979 0.57854 0.78138 0.0
N575 N 1.00167 0.55824 0.81551 0.0
N576 N 0.99905 0.58634 0.87372 0.0
C577 C 0.99818 0.59576 0.81679 0.0
H578 H 1.00232 0.55076 0.90981 0.0
H579 H 0.99916 0.58068 0.73376 0.0
C580 C 0.96855 0.52433 0.70661 0.0
N581 N 0.00335 0.46514 0.74094 0.0
C582 C 0.00371 0.45939 0.68542 0.0
C583 C 0.00424 0.44505 0.7761 0.0
N584 N 0.00466 0.43649 0.68462 0.0
C585 C 0.005 0.42749 0.74181 0.0
C586 C 0.97254 0.50077 0.85489 0.0
O587 O 0.97748 0.5387 0.7358 0.0
O588 O 0.97741 0.50392 0.71172 0.0
O589 O 0.97978 0.48571 0.8231 0.0
O590 O 0.98091 0.52027 0.84833 0.0
O591 O 0.02766 0.48474 0.82035 0.0
H592 H 0.00444 0.44328 0.82372 0.0
H593 H 0.00301 0.47181 0.64636 0.0
O594 O 0.02775 0.51966 0.84352 0.0
O595 O 0.02534 0.53784 0.73232 0.0
O596 O 0.02429 0.50313 0.70768 0.0
C597 C 0.03258 0.52268 0.70073 0.0
H598 H 0.99591 0.61382 0.80143 0.0
H599 H 0.00606 0.40945 0.75792 0.0
C600 C 0.14759 0.02756 0.47582 0.0
C601 C 0.14751 0.04421 0.42641 0.0
C602 C 0.12796 0.02509 0.51213 0.0
C603 C 0.1076 0.03968 0.49899 0.0
C604 C 0.10698 0.05579 0.44742 0.0
C605 C 0.12697 0.05785 0.41162 0.0
C606 C 0.12941 0.00751 0.56612 0.0
C607 C 0.08562 0.07158 0.43165 0.0
C608 C 0.05308 0.0198 0.58004 0.0
C609 C 0.05316 0.03162 0.6297 0.0
C610 C 0.07 0.02304 0.53579 0.0
C611 C 0.08754 0.0385 0.54093 0.0
C612 C 0.08711 0.05128 0.58943 0.0
C613 C 0.06996 0.04771 0.63312 0.0
C614 C 0.0697 0.00912 0.48486 0.0
C615 C 0.10542 0.06802 0.59656 0.0
H616 H 0.16345 0.01697 0.48731 0.0
H617 H 0.12694 0.07092 0.37389 0.0
H618 H 0.12809 0.01619 0.60635 0.0
H619 H 0.11459 0.99628 0.56657 0.0
H620 H 0.146 0.99668 0.56837 0.0
H621 H 0.08703 0.08156 0.38744 0.0
H622 H 0.06975 0.06173 0.43249 0.0
H623 H 0.08321 0.08368 0.46478 0.0
H624 H 0.04013 0.00746 0.57628 0.0
H625 H 0.07022 0.05704 0.67093 0.0
H626 H 0.08504 0.99662 0.48826 0.0
H627 H 0.07105 0.0203 0.44245 0.0
H628 H 0.0536 0.99964 0.48393 0.0
H629 H 0.12273 0.05866 0.60468 0.0
H630 H 0.10155 0.07803 0.63372 0.0
H631 H 0.10678 0.08003 0.55555 0.0
C632 C 0.50015 0.1701 0.48864 0.0
C633 C 0.52055 0.182 0.48989 0.0
C634 C 0.4983 0.14869 0.52295 0.0
C635 C 0.51728 0.13891 0.55942 0.0
C636 C 0.53814 0.15054 0.55931 0.0
C637 C 0.53954 0.17176 0.52453 0.0
C638 C 0.47582 0.1368 0.52128 0.0
C639 C 0.55889 0.14081 0.59702 0.0
C640 C 0.50734 0.09564 0.69469 0.0
C641 C 0.51504 0.0749 0.67509 0.0
C642 C 0.50751 0.11648 0.65724 0.0
C643 C 0.51545 0.1167 0.59846 0.0
C644 C 0.52291 0.09578 0.5782 0.0
C645 C 0.52269 0.07523 0.61664 0.0
C646 C 0.49954 0.13834 0.6809 0.0
C647 C 0.53142 0.09511 0.51599 0.0
H648 H 0.48534 0.17786 0.46238 0.0
H649 H 0.55557 0.18054 0.52503 0.0
H650 H 0.47945 0.11916 0.51043 0.0
H651 H 0.46761 0.13543 0.56536 0.0
H652 H 0.46314 0.14598 0.48852 0.0
H653 H 0.57398 0.15178 0.59127 0.0
H654 H 0.5539 0.13887 0.64414 0.0
H655 H 0.56454 0.12358 0.58602 0.0
H656 H 0.5013 0.09564 0.73956 0.0
H657 H 0.52854 0.05935 0.60068 0.0
H658 H 0.48537 0.14753 0.6526 0.0
H659 H 0.51423 0.14974 0.67995 0.0
H660 H 0.49308 0.13527 0.72679 0.0
H661 H 0.518 0.10349 0.48412 0.0
H662 H 0.53553 0.0774 0.50603 0.0
H663 H 0.54738 0.10477 0.50895 0.0
C664 C 0.36146 0.46138 0.39013 0.0
C665 C 0.3409 0.47552 0.38133 0.0
C666 C 0.38002 0.46737 0.42407 0.0
C667 C 0.37767 0.48773 0.45085 0.0
C668 C 0.35807 0.50325 0.43624 0.0
C669 C 0.33993 0.49698 0.40134 0.0
C670 C 0.40081 0.45056 0.43702 0.0
C671 C 0.35475 0.52514 0.46356 0.0
C672 C 0.39848 0.48267 0.6097 0.0
C673 C 0.41851 0.49527 0.60588 0.0
C674 C 0.38528 0.48015 0.55964 0.0
C675 C 0.3924 0.4901 0.50345 0.0
C676 C 0.41302 0.50222 0.49865 0.0
C677 C 0.42578 0.50477 0.54996 0.0
C678 C 0.36347 0.46698 0.56722 0.0
C679 C 0.42138 0.51279 0.43955 0.0
H680 H 0.36212 0.44468 0.37512 0.0
H681 H 0.3239 0.50777 0.39531 0.0
H682 H 0.41719 0.45953 0.43853 0.0
H683 H 0.39859 0.4405 0.48075 0.0
H684 H 0.40261 0.43849 0.40358 0.0
H685 H 0.3413 0.53716 0.43962 0.0
H686 H 0.34903 0.52114 0.50984 0.0
H687 H 0.37138 0.53372 0.46428 0.0
H688 H 0.39298 0.47468 0.65216 0.0
H689 H 0.44115 0.5146 0.54633 0.0
H690 H 0.365 0.45214 0.54195 0.0
H691 H 0.34805 0.47801 0.54966 0.0
H692 H 0.36017 0.4606 0.61405 0.0
H693 H 0.42205 0.50007 0.40777 0.0
H694 H 0.43895 0.51954 0.44245 0.0
H695 H 0.40888 0.52703 0.42158 0.0
C696 C 0.98513 0.36869 0.4106 0.0
C697 C 1.00206 0.35055 0.41079 0.0
C698 C 0.98734 0.38578 0.44754 0.0
C699 C 0.00688 0.38455 0.48608 0.0
C700 C 0.02504 0.36739 0.48234 0.0
C701 C 0.02235 0.35052 0.44495 0.0
C702 C 0.96759 0.40375 0.44954 0.0
C703 C 0.04626 0.36544 0.52207 0.0
C704 C 0.01496 0.43272 0.58051 0.0
C705 C 0.00495 0.42398 0.63404 0.0
C706 C 0.01583 0.42018 0.53186 0.0
C707 C 0.00633 0.39846 0.53662 0.0
C708 C 0.99602 0.38972 0.59039 0.0
C709 C 0.99549 0.40252 0.63815 0.0
C710 C 0.0271 0.43008 0.4756 0.0
C711 C 0.98548 0.36674 0.59764 0.0
H712 H 0.96918 0.36845 0.38523 0.0
H713 H 0.0352 0.33621 0.4462 0.0
H714 H 0.95715 0.39949 0.4898 0.0
H715 H 0.97444 0.42076 0.45171 0.0
H716 H 0.9558 0.40482 0.41063 0.0
H717 H 0.06045 0.35395 0.50696 0.0
H718 H 0.05308 0.38246 0.52437 0.0
H719 H 0.04132 0.35846 0.56734 0.0
H720 H 0.02252 0.44916 0.57701 0.0
H721 H 0.98738 0.39575 0.67881 0.0
H722 H 0.01443 0.4314 0.43849 0.0
H723 H 0.04207 0.41856 0.4649 0.0
H724 H 0.03346 0.44726 0.47864 0.0
H725 H 0.9714 0.36659 0.56447 0.0
H726 H 0.97806 0.36242 0.64218 0.0
H727 H 0.99897 0.35318 0.58999 0.0
C728 C 0.87294 0.99385 0.06881 0.0
C729 C 0.87292 0.97298 0.10528 0.0
C730 C 0.89208 0.99926 0.03226 0.0
C731 C 0.91179 0.98349 0.03264 0.0
C732 C 0.91249 0.96312 0.07267 0.0
C733 C 0.89293 0.95798 0.10794 0.0
C734 C 0.89042 0.02106 0.99 0.0
C735 C 0.93326 0.94602 0.07556 0.0
C736 C 0.94602 0.98302 0.88964 0.0
C737 C 0.96486 0.99618 0.8993 0.0
C738 C 0.9288 0.97867 0.93276 0.0
C739 C 0.93057 0.98734 0.98753 0.0
C740 C 0.94993 1.00002 0.9983 0.0
C741 C 0.96671 0.00443 0.95403 0.0
C742 C 0.90838 0.9652 0.91909 0.0
C743 C 0.95281 0.00914 0.0564 0.0
H744 H 0.85725 0.00518 0.06562 0.0
H745 H 0.89274 0.94163 0.13529 0.0
H746 H 0.90641 0.03052 0.99269 0.0
H747 H 0.88905 0.01687 0.94424 0.0
H748 H 0.875 0.03242 0.99876 0.0
H749 H 0.93251 0.93271 0.11423 0.0
H750 H 0.9338 0.93749 0.03505 0.0
H751 H 0.94978 0.95472 0.07774 0.0
H752 H 0.94433 0.97658 0.84765 0.0
H753 H 0.98127 0.01445 0.96236 0.0
H754 H 0.89181 0.97575 0.92175 0.0
H755 H 0.90748 0.94988 0.95215 0.0
H756 H 0.90956 0.9596 0.87458 0.0
H757 H 0.93807 0.02162 0.06284 0.0
H758 H 0.96944 0.01765 0.05911 0.0
H759 H 0.95236 0.99504 0.09319 0.0
C760 C 0.47911 0.85775 0.03022 0.0
C761 C 0.49744 0.84664 0.06579 0.0
C762 C 0.48175 0.87877 0.99543 0.0
C763 C 0.50321 0.88935 0.9963 0.0
C764 C 0.52158 0.87867 0.03356 0.0
C765 C 0.51849 0.85748 0.06782 0.0
C766 C 0.46161 0.88946 0.95684 0.0
C767 C 0.54467 0.88944 0.03632 0.0
C768 C 0.51563 0.93244 0.86233 0.0
C769 C 0.50864 0.95333 0.88213 0.0
C770 C 0.51446 0.91158 0.89933 0.0
C771 C 0.50625 0.91149 0.95785 0.0
C772 C 0.49959 0.93256 0.97837 0.0
C773 C 0.50078 0.95312 0.94038 0.0
C774 C 0.52159 0.88955 0.87539 0.0
C775 C 0.49084 0.93338 0.04032 0.0
H776 H 0.46259 0.84984 0.02911 0.0
H777 H 0.53281 0.84906 0.09477 0.0
H778 H 0.4566 0.9068 0.9681 0.0
H779 H 0.46698 0.89137 0.91 0.0
H780 H 0.446 0.87916 0.96144 0.0
H781 H 0.55685 0.87957 0.06923 0.0
H782 H 0.55308 0.89063 0.99248 0.0
H783 H 0.54185 0.9071 0.04766 0.0
H784 H 0.52179 0.93234 0.81759 0.0
H785 H 0.49547 0.9691 0.95651 0.0
H786 H 0.50633 0.8789 0.87518 0.0
H787 H 0.53517 0.87964 0.90421 0.0
H788 H 0.52849 0.8925 0.8299 0.0
H789 H 0.47433 0.92456 0.04635 0.0
H790 H 0.48758 0.95116 0.05069 0.0
H791 H 0.50372 0.92425 0.07255 0.0
C792 C 0.64497 0.55212 0.19406 0.0
C793 C 0.66447 0.53652 0.19742 0.0
C794 C 0.62597 0.54984 0.1566 0.0
C795 C 0.6268 0.53177 0.12119 0.0
C796 C 0.64536 0.51469 0.12946 0.0
C797 C 0.66393 0.51727 0.16757 0.0
C798 C 0.60626 0.56811 0.1504 0.0
C799 C 0.64713 0.49514 0.09283 0.0
C800 C 0.57775 0.52116 0.01643 0.0
C801 C 0.58535 0.53241 0.96266 0.0
C802 C 0.59043 0.52151 0.06915 0.0
C803 C 0.61135 0.53313 0.06799 0.0
C804 C 0.61864 0.54509 0.01425 0.0
C805 C 0.6055 0.54475 0.96271 0.0
C806 C 0.58184 0.50886 0.12561 0.0
C807 C 0.64082 0.55774 0.01061 0.0
H808 H 0.6455 0.56719 0.21644 0.0
H809 H 0.67918 0.50537 0.16959 0.0
H810 H 0.609 0.58029 0.11036 0.0
H811 H 0.58923 0.5606 0.14533 0.0
H812 H 0.60541 0.57782 0.18895 0.0
H813 H 0.66039 0.48155 0.11083 0.0
H814 H 0.63004 0.48751 0.09021 0.0
H815 H 0.65221 0.50164 0.04729 0.0
H816 H 0.56228 0.51153 0.01718 0.0
H817 H 0.61124 0.55406 0.92207 0.0
H818 H 0.58234 0.51965 0.16187 0.0
H819 H 0.59348 0.49336 0.13855 0.0
H820 H 0.56374 0.50356 0.12106 0.0
H821 H 0.64009 0.57069 0.04177 0.0
H822 H 0.64386 0.5665 0.96566 0.0
H823 H 0.65606 0.54562 0.02345 0.0
C824 C 0.96929 0.66732 0.11869 0.0
C825 C 0.98949 0.67175 0.14873 0.0
C826 C 0.96952 0.64978 0.08235 0.0
C827 C 0.99049 0.63632 0.07593 0.0
C828 C 0.01012 0.63908 0.11153 0.0
C829 C 0.00943 0.65689 0.14715 0.0
C830 C 0.94812 0.64755 0.04561 0.0
C831 C 0.03271 0.62493 0.10719 0.0
C832 C 0.98997 0.58765 0.97989 0.0
C833 C 0.9975 0.59836 0.92534 0.0
C834 C 0.98784 0.59956 0.02959 0.0
C835 C 0.99321 0.62279 0.0248 0.0
C836 C 1.00101 0.63358 0.97009 0.0
C837 C 0.00315 0.62127 0.92148 0.0
C838 C 0.97962 0.58735 0.08704 0.0
C839 C 0.00695 0.65832 0.96258 0.0
H840 H 0.95402 0.67911 0.11867 0.0
H841 H 0.02525 0.66057 0.16922 0.0
H842 H 0.95092 0.65556 0.99985 0.0
H843 H 0.94496 0.62934 0.04378 0.0
H844 H 0.93227 0.65611 0.06299 0.0
H845 H 0.04451 0.62588 0.14519 0.0
H846 H 0.02935 0.60679 0.1049 0.0
H847 H 0.04185 0.63132 0.06625 0.0
H848 H 0.98532 0.57007 0.98362 0.0
H849 H 0.00942 0.62969 0.88028 0.0
H850 H 0.96284 0.59566 0.09982 0.0
H851 H 0.99247 0.58859 0.12259 0.0
H852 H 0.97708 0.56904 0.08438 0.0
H853 H 0.99152 0.66931 0.97311 0.0
H854 H 0.01262 0.66425 0.91712 0.0
H855 H 0.02116 0.66078 0.99364 0.0
C856 C 0.95469 0.15583 0.53527 0.0
C857 C 0.93423 0.16064 0.50147 0.0
C858 C 0.95779 0.13581 0.57468 0.0
C859 C 0.93968 0.12048 0.58156 0.0
C860 C 0.91839 0.12587 0.55002 0.0
C861 C 0.91608 0.14577 0.50926 0.0
C862 C 0.98098 0.13055 0.60656 0.0
C863 C 0.89844 0.11033 0.55785 0.0
C864 C 0.96497 0.06074 0.62987 0.0
C865 C 0.96525 0.06059 0.69103 0.0
C866 C 0.95479 0.07951 0.59318 0.0
C867 C 0.94418 0.09819 0.61866 0.0
C868 C 0.94219 0.09687 0.68061 0.0
C869 C 0.95321 0.07824 0.71621 0.0
C870 C 0.95775 0.0804 0.52739 0.0
C871 C 0.93023 0.11602 0.70938 0.0
H872 H 0.96887 0.16718 0.52844 0.0
H873 H 0.90028 0.14955 0.48289 0.0
H874 H 0.97827 0.12811 0.65485 0.0
H875 H 0.98938 0.1144 0.59434 0.0
H876 H 0.9932 0.14432 0.59609 0.0
H877 H 0.88189 0.11884 0.53847 0.0
H878 H 0.90266 0.09489 0.53602 0.0
H879 H 0.89567 0.10458 0.60525 0.0
H880 H 0.97455 0.04719 0.61049 0.0
H881 H 0.95334 0.07798 0.76368 0.0
H882 H 0.97101 0.09272 0.51246 0.0
H883 H 0.94117 0.08643 0.50394 0.0
H884 H 0.96358 0.06348 0.5144 0.0
H885 H 0.94213 0.13012 0.70935 0.0
H886 H 0.92554 0.11028 0.75574 0.0
H887 H 0.91417 0.12297 0.68466 0.0
C888 C 0.36632 0.06789 0.55569 0.0
C889 C 0.34646 0.05554 0.55216 0.0
C890 C 0.38659 0.05762 0.58432 0.0
C891 C 0.38701 0.03436 0.60875 0.0
C892 C 0.367 0.02179 0.60498 0.0
C893 C 0.34682 0.03264 0.57708 0.0
C894 C 0.40748 0.0717 0.58879 0.0
C895 C 0.36701 0.99688 0.62965 0.0
C896 C 0.44828 0.00786 0.64049 0.0
C897 C 0.45077 0.01084 0.69985 0.0
C898 C 0.42697 0.01411 0.61074 0.0
C899 C 0.40805 0.02373 0.64117 0.0
C900 C 0.41004 0.02524 0.70201 0.0
C901 C 0.43127 0.01849 0.73075 0.0
C902 C 0.42518 0.01179 0.546 0.0
C903 C 0.3903 0.03555 0.73589 0.0
H904 H 0.36595 0.08556 0.53593 0.0
H905 H 0.33153 0.02301 0.57303 0.0
H906 H 0.41205 0.07207 0.63577 0.0
H907 H 0.42285 0.06382 0.56781 0.0
H908 H 0.40424 0.08955 0.56744 0.0
H909 H 0.35018 0.98941 0.62152 0.0
H910 H 0.3813 0.98702 0.60956 0.0
H911 H 0.37038 0.99478 0.6778 0.0
H912 H 0.46325 1.00187 0.61652 0.0
H913 H 0.43295 0.02049 0.77696 0.0
H914 H 0.42514 0.02895 0.52002 0.0
H915 H 0.40856 1.00431 0.53618 0.0
H916 H 0.44 1.00099 0.53111 0.0
H917 H 0.38623 0.05359 0.71707 0.0
H918 H 0.39462 0.03515 0.78328 0.0
H919 H 0.37426 0.02628 0.73201 0.0
C920 C 0.58896 0.38728 0.56724 0.0
C921 C 0.57683 0.36795 0.58751 0.0
C922 C 0.58509 0.40771 0.59192 0.0
C923 C 0.56902 0.40863 0.63855 0.0
C924 C 0.55884 0.38847 0.66358 0.0
C925 C 0.56277 0.36837 0.63753 0.0
C926 C 0.59648 0.42877 0.56437 0.0
C927 C 0.54203 0.38863 0.71433 0.0
C928 C 0.55976 0.46025 0.72092 0.0
C929 C 0.53883 0.47042 0.69514 0.0
C930 C 0.57043 0.44053 0.70161 0.0
C931 C 0.56002 0.43101 0.65508 0.0
C932 C 0.53967 0.44204 0.62661 0.0
C933 C 0.52924 0.46152 0.64728 0.0
C934 C 0.59199 0.42919 0.7333 0.0
C935 C 0.52827 0.43264 0.57602 0.0
H936 H 0.60029 0.3869 0.52941 0.0
H937 H 0.55326 0.35358 0.65351 0.0
H938 H 0.58341 0.43995 0.53676 0.0
H939 H 0.60274 0.43869 0.59863 0.0
H940 H 0.61142 0.42445 0.53605 0.0
H941 H 0.53849 0.37108 0.73432 0.0
H942 H 0.54897 0.39798 0.74898 0.0
H943 H 0.52521 0.3976 0.6984 0.0
H944 H 0.5672 0.46699 0.75821 0.0
H945 H 0.51315 0.46942 0.62699 0.0
H946 H 0.6053 0.42411 0.70147 0.0
H947 H 0.58727 0.41341 0.76108 0.0
H948 H 0.59991 0.44048 0.7621 0.0
H949 H 0.54132 0.42976 0.54151 0.0
H950 H 0.51368 0.44424 0.55573 0.0
H951 H 0.52129 0.4159 0.59191 0.0
C952 C 0.15266 0.49184 0.5465 0.0
C953 C 0.15231 0.46796 0.55584 0.0
C954 C 0.13533 0.50568 0.57029 0.0
C955 C 0.11756 0.4953 0.60489 0.0
C956 C 0.11816 0.47118 0.6179 0.0
C957 C 0.13539 0.45776 0.59247 0.0
C958 C 0.13508 0.53126 0.55475 0.0
C959 C 0.0998 0.45948 0.65592 0.0
C960 C 0.07503 0.52551 0.69953 0.0
C961 C 0.05429 0.52476 0.66772 0.0
C962 C 0.09643 0.51747 0.67779 0.0
C963 C 0.09691 0.5092 0.62236 0.0
C964 C 0.07637 0.51113 0.58718 0.0
C965 C 0.05514 0.51851 0.61088 0.0
C966 C 0.11778 0.5153 0.71719 0.0
C967 C 0.07628 0.50311 0.52711 0.0
H968 H 0.16561 0.49969 0.5174 0.0
H969 H 0.13522 0.4393 0.5996 0.0
H970 H 0.12067 0.53699 0.52291 0.0
H971 H 0.13178 0.54002 0.59432 0.0
H972 H 0.15177 0.53675 0.53459 0.0
H973 H 0.10438 0.44093 0.66757 0.0
H974 H 0.09743 0.4674 0.69715 0.0
H975 H 0.08279 0.46156 0.63212 0.0
H976 H 0.07417 0.52981 0.74423 0.0
H977 H 0.03896 0.51762 0.58693 0.0
H978 H 0.13366 0.51966 0.69165 0.0
H979 H 0.12054 0.49733 0.73795 0.0
H980 H 0.11575 0.52641 0.75282 0.0
H981 H 0.09167 0.50892 0.50135 0.0
H982 H 0.06015 0.50941 0.50172 0.0
H983 H 0.0773 0.48416 0.53218 0.0
C984 C 0.04068 0.86682 0.95432 0.0
C985 C 0.018 0.86936 0.97635 0.0
C986 C 0.04982 0.88447 0.91606 0.0
C987 C 0.03589 0.90494 0.90054 0.0
C988 C 0.01222 0.90656 0.91832 0.0
C989 C 0.00356 0.88863 0.95588 0.0
C990 C 0.07484 0.88177 0.8965 0.0
C991 C 0.99654 0.92798 0.9019 0.0
C992 C 0.05451 0.9646 0.88778 0.0
C993 C 0.04705 0.97218 0.83016 0.0
C994 C 0.05407 0.94147 0.90992 0.0
C995 C 0.04626 0.9259 0.87295 0.0
C996 C 0.04255 0.933 0.81226 0.0
C997 C 0.04273 0.95627 0.79154 0.0
C998 C 0.05869 0.93437 0.97476 0.0
C999 C 0.03547 0.91659 0.77102 0.0
H1000 H 0.05181 0.85181 0.97017 0.0
H1001 H 0.98587 0.89028 0.97236 0.0
H1002 H 0.07765 0.89174 0.85295 0.0
H1003 H 0.08642 0.888 0.92907 0.0
H1004 H 0.0802 0.86354 0.89409 0.0
H1005 H 0.00343 0.9424 0.92189 0.0
H1006 H 0.99618 0.93276 0.85347 0.0
H1007 H 0.9783 0.92592 0.9171 0.0
H1008 H 0.05813 0.97695 0.91731 0.0
H1009 H 0.03756 0.96221 0.74635 0.0
H1010 H 0.0692 0.91787 0.98197 0.0
H1011 H 0.0418 0.93202 0.99777 0.0
H1012 H 0.06802 0.94738 0.99505 0.0
H1013 H 0.03842 0.92335 0.72427 0.0
H1014 H 0.01661 0.91375 0.77657 0.0
H1015 H 0.0453 0.8998 0.78121 0.0
C1016 C 0.65462 0.94983 0.98233 0.0
C1017 C 0.67365 0.9606 1.00203 0.0
C1018 C 0.63582 0.96268 0.95283 0.0
C1019 C 0.63597 0.98682 0.94393 0.0
C1020 C 0.65539 0.99773 0.96259 0.0
C1021 C 0.67409 0.98445 0.99119 0.0
C1022 C 0.6156 0.95044 0.93213 0.0
C1023 C 0.65611 0.02341 0.95366 0.0
C1024 C 0.59346 0.01359 0.82595 0.0
C1025 C 0.57333 0.01715 0.85918 0.0
C1026 C 0.61463 0.00532 0.85326 0.0
C1027 C 0.6156 1.00048 0.91528 0.0
C1028 C 0.59597 0.00626 0.9493 0.0
C1029 C 0.57495 0.01461 0.92069 0.0
C1030 C 0.63513 0.99981 0.81502 0.0
C1031 C 0.59658 1.00182 0.01569 0.0
H1032 H 0.65434 0.9314 0.99077 0.0
H1033 H 0.68865 0.99281 0.00739 0.0
H1034 H 0.59935 0.95564 0.95455 0.0
H1035 H 0.61277 0.95528 0.88411 0.0
H1036 H 0.61853 0.93157 0.94099 0.0
H1037 H 0.67278 0.0292 0.96952 0.0
H1038 H 0.65383 0.02996 0.90628 0.0
H1039 H 0.64145 0.03118 0.97751 0.0
H1040 H 0.59231 0.01584 0.77824 0.0
H1041 H 0.5594 0.01737 0.94647 0.0
H1042 H 0.63491 0.98171 0.80685 0.0
H1043 H 0.65206 1.00209 0.83624 0.0
H1044 H 0.63404 0.01072 0.77179 0.0
H1045 H 0.59662 0.98316 0.02976 0.0
H1046 H 0.58124 0.01028 0.03562 0.0
H1047 H 0.61278 0.0079 0.03325 0.0
C1048 C 0.41751 0.64547 0.99179 0.0
C1049 C 0.43038 0.66429 0.97133 0.0
C1050 C 0.42075 0.62484 0.96778 0.0
C1051 C 0.43691 0.62319 0.92162 0.0
C1052 C 0.44776 0.6429 0.89616 0.0
C1053 C 0.44446 0.66321 0.92155 0.0
C1054 C 0.40863 0.60429 0.9957 0.0
C1055 C 0.46467 0.64199 0.8458 0.0
C1056 C 0.47566 0.56945 0.91578 0.0
C1057 C 0.46611 0.56056 0.86786 0.0
C1058 C 0.46546 0.58918 0.93568 0.0
C1059 C 0.44542 0.60047 0.90634 0.0
C1060 C 0.43497 0.59092 0.85991 0.0
C1061 C 0.44539 0.57094 0.84139 0.0
C1062 C 0.47688 0.5986 0.98622 0.0
C1063 C 0.41372 0.60251 0.82733 0.0
H1064 H 0.40614 0.64638 0.02937 0.0
H1065 H 0.45452 0.67759 0.90537 0.0
H1066 H 0.40227 0.59429 0.96172 0.0
H1067 H 0.42127 0.59294 0.02427 0.0
H1068 H 0.39364 0.60922 0.02317 0.0
H1069 H 0.46872 0.65932 0.82525 0.0
H1070 H 0.48124 0.63267 0.86234 0.0
H1071 H 0.45752 0.63262 0.81146 0.0
H1072 H 0.49157 0.56137 0.9366 0.0
H1073 H 0.43799 0.5642 0.80407 0.0
H1074 H 0.46373 0.60201 0.02009 0.0
H1075 H 0.48436 0.61506 0.96998 0.0
H1076 H 0.49111 0.58675 0.0074 0.0
H1077 H 0.40549 0.59109 0.79945 0.0
H1078 H 0.41893 0.61784 0.79846 0.0
H1079 H 0.40052 0.60836 0.85848 0.0
C1080 C 0.84903 0.52696 0.99924 0.0
C1081 C 0.8476 0.55084 0.98894 0.0
C1082 C 0.86782 0.51424 0.97781 0.0
C1083 C 0.88524 0.52581 0.94461 0.0
C1084 C 0.88303 0.54994 0.93111 0.0
C1085 C 0.86433 0.56225 0.9544 0.0
C1086 C 0.86984 0.48865 0.99404 0.0
C1087 C 0.90101 0.56282 0.89454 0.0
C1088 C 0.94877 0.50564 0.94257 0.0
C1089 C 0.95051 0.49875 0.88648 0.0
C1090 C 0.92702 0.51241 0.96462 0.0
C1091 C 0.90688 0.51315 0.92839 0.0
C1092 C 0.90837 0.50448 0.87354 0.0
C1093 C 0.93026 0.49698 0.85361 0.0
C1094 C 0.926 0.52083 0.02423 0.0
C1095 C 0.88746 0.50556 0.83292 0.0
H1096 H 0.83612 0.51833 0.02696 0.0
H1097 H 0.86315 0.58077 0.94722 0.0
H1098 H 0.8738 0.47997 0.95467 0.0
H1099 H 0.88452 0.48397 0.02573 0.0
H1100 H 0.85362 0.48209 0.01451 0.0
H1101 H 0.8953 0.58111 0.8824 0.0
H1102 H 0.91768 0.56186 0.91963 0.0
H1103 H 0.9046 0.555 0.8536 0.0
H1104 H 0.96459 0.50731 0.9673 0.0
H1105 H 0.93181 0.49222 0.80944 0.0
H1106 H 0.91075 0.51433 0.04943 0.0
H1107 H 0.92394 0.53976 0.0184 0.0
H1108 H 0.94214 0.5155 0.05057 0.0
H1109 H 0.89054 0.49465 0.7972 0.0
H1110 H 0.88381 0.52345 0.81235 0.0
H1111 H 0.87165 0.50024 0.85753 0.0
C1112 C 0.98375 0.20677 0.99296 0.0
C1113 C 1.00176 0.21407 0.02627 0.0
C1114 C 0.98791 0.18921 0.95744 0.0
C1115 C 0.01065 0.17852 0.95537 0.0
C1116 C 0.02933 0.18744 0.98417 0.0
C1117 C 0.02466 0.20514 0.01928 0.0
C1118 C 0.96747 0.18058 0.92719 0.0
C1119 C 0.05388 0.17677 0.98285 0.0
C1120 C 0.01462 0.11412 0.95578 0.0
C1121 C 0.02115 0.11149 0.89783 0.0
C1122 C 0.01095 0.13575 0.97433 0.0
C1123 C 0.01387 0.15557 0.93402 0.0
C1124 C 0.01977 0.15315 0.87474 0.0
C1125 C 0.02325 0.13108 0.85723 0.0
C1126 C 0.00429 0.13731 0.03767 0.0
C1127 C 0.02303 0.17379 0.83039 0.0
H1128 H 0.96601 0.21368 0.99811 0.0
H1129 H 0.03862 0.21057 0.04521 0.0
H1130 H 0.97228 0.17666 0.88246 0.0
H1131 H 0.96223 0.16453 0.95289 0.0
H1132 H 0.95214 0.19314 0.92356 0.0
H1133 H 0.06692 0.18793 0.99806 0.0
H1134 H 0.05506 0.16029 0.01216 0.0
H1135 H 0.05847 0.17311 0.93776 0.0
H1136 H 0.01256 0.09904 0.98706 0.0
H1137 H 0.0284 0.12911 0.81252 0.0
H1138 H 0.98754 0.14763 0.03948 0.0
H1139 H 0.0178 0.14602 0.05959 0.0
H1140 H 1.00238 0.12026 0.06315 0.0
H1141 H 0.00777 0.18627 0.83047 0.0
H1142 H 0.02545 0.1692 0.78508 0.0
H1143 H 0.03862 0.18243 0.84267 0.0
C1144 C 0.32715 0.07889 0.03001 0.0
C1145 C 0.31954 0.06359 0.07693 0.0
C1146 C 0.34753 0.07374 0.9988 0.0
C1147 C 0.36087 0.05295 0.01559 0.0
C1148 C 0.35209 0.03661 0.05943 0.0
C1149 C 0.33145 0.0421 0.08945 0.0
C1150 C 0.35581 0.09139 0.95124 0.0
C1151 C 0.36553 0.01413 0.07819 0.0
C1152 C 0.41295 0.03763 0.92039 0.0
C1153 C 0.4315 0.04649 0.94864 0.0
C1154 C 0.38996 0.03912 0.94203 0.0
C1155 C 0.38529 0.04979 0.99324 0.0
C1156 C 0.40404 0.05827 0.02269 0.0
C1157 C 0.42679 0.05657 1.00003 0.0
C1158 C 0.37065 0.03 0.90865 0.0
C1159 C 0.40001 0.06946 0.07793 0.0
H1160 H 0.3181 0.09561 0.02064 0.0
H1161 H 0.32586 0.03039 0.12634 0.0
H1162 H 0.3713 0.09919 0.9674 0.0
H1163 H 0.36122 0.08329 0.91179 0.0
H1164 H 0.3421 0.10519 0.93806 0.0
H1165 H 0.35503 1.00216 0.10704 0.0
H1166 H 0.37119 0.0059 0.03914 0.0
H1167 H 0.38151 0.01719 0.10268 0.0
H1168 H 0.41624 0.03004 0.88033 0.0
H1169 H 0.44098 0.06314 0.02274 0.0
H1170 H 0.36149 0.04437 0.88002 0.0
H1171 H 0.35758 0.02196 0.93892 0.0
H1172 H 0.37758 0.01727 0.88023 0.0
H1173 H 0.38812 0.08501 0.06809 0.0
H1174 H 0.41653 0.07438 0.09686 0.0
H1175 H 0.39142 0.05769 0.1117 0.0
C1176 C 0.51801 0.3597 0.05733 0.0
C1177 C 0.50485 0.35844 0.10909 0.0
C1178 C 0.51409 0.37803 0.01202 0.0
C1179 C 0.49685 0.39574 0.01915 0.0
C1180 C 0.48226 0.39348 0.06928 0.0
C1181 C 0.48645 0.37487 0.11356 0.0
C1182 C 0.52982 0.37945 0.95903 0.0
C1183 C 0.46373 0.41184 0.0791 0.0
C1184 C 0.51072 0.45589 0.95295 0.0
C1185 C 0.49633 0.45975 0.90262 0.0
C1186 C 0.51079 0.43531 0.99125 0.0
C1187 C 0.4963 0.41787 0.97889 0.0
C1188 C 0.48157 0.42171 0.92841 0.0
C1189 C 0.48166 0.44261 0.89112 0.0
C1190 C 0.52659 0.43217 0.04485 0.0
C1191 C 0.46605 0.40357 0.9132 0.0
H1192 H 0.53265 0.34738 0.05441 0.0
H1193 H 0.47667 0.37428 0.15422 0.0
H1194 H 0.51955 0.38477 0.91798 0.0
H1195 H 0.54264 0.39252 0.96272 0.0
H1196 H 0.5396 0.36289 0.95526 0.0
H1197 H 0.4517 0.40606 0.11523 0.0
H1198 H 0.47224 0.42704 0.09078 0.0
H1199 H 0.45332 0.41728 0.03836 0.0
H1200 H 0.52211 0.46896 0.96238 0.0
H1201 H 0.47061 0.4453 0.85213 0.0
H1202 H 0.53941 0.41748 0.04244 0.0
H1203 H 0.51616 0.42825 0.08529 0.0
H1204 H 0.53633 0.44756 0.04912 0.0
H1205 H 0.47692 0.38807 0.90542 0.0
H1206 H 0.45516 0.40937 0.87334 0.0
H1207 H 0.45435 0.39855 0.95058 0.0
C1208 C 0.16073 0.46815 0.01948 0.0
C1209 C 0.15672 0.46975 0.07937 0.0
C1210 C 0.14235 0.47253 0.97775 0.0
C1211 C 0.11942 0.47844 0.99647 0.0
C1212 C 0.11543 0.48044 0.05662 0.0
C1213 C 0.13408 0.4764 0.09691 0.0
C1214 C 0.14738 0.47068 0.91376 0.0
C1215 C 0.09135 0.48675 0.07871 0.0
C1216 C 0.07275 0.51075 0.89526 0.0
C1217 C 0.05829 0.49338 0.88457 0.0
C1218 C 0.09335 0.50592 0.92886 0.0
C1219 C 0.0995 0.48319 0.95363 0.0
C1220 C 0.08525 0.46546 0.94195 0.0
C1221 C 0.06494 0.47074 0.90698 0.0
C1222 C 0.10819 0.5253 0.93914 0.0
C1223 C 0.091 0.44105 0.96822 0.0
H1224 H 0.1781 0.46303 0.00541 0.0
H1225 H 0.13084 0.47841 0.14268 0.0
H1226 H 0.13726 0.45707 0.89872 0.0
H1227 H 0.1417 0.4869 0.88628 0.0
H1228 H 0.16623 0.46674 0.90592 0.0
H1229 H 0.09102 0.48678 0.12723 0.0
H1230 H 0.08514 0.50397 0.05747 0.0
H1231 H 0.07878 0.47453 0.06674 0.0
H1232 H 0.06801 0.52825 0.87707 0.0
H1233 H 0.05393 0.45723 0.89853 0.0
H1234 H 0.12674 0.52102 0.92895 0.0
H1235 H 0.10741 0.528 0.98621 0.0
H1236 H 0.10232 0.54155 0.91195 0.0
H1237 H 0.10926 0.43568 0.95789 0.0
H1238 H 0.07911 0.42906 0.95186 0.0
H1239 H 0.08963 0.43966 0.01689 0.0
C1240 C 0.99766 0.84069 0.49362 0.0
C1241 C 0.97797 0.82844 0.48532 0.0
C1242 C 0.99641 0.85933 0.52625 0.0
C1243 C 0.97495 0.86592 0.55182 0.0
C1244 C 0.95552 0.85239 0.54779 0.0
C1245 C 0.9572 0.8339 0.51413 0.0
C1246 C 0.01758 0.87317 0.52878 0.0
C1247 C 0.93244 0.85846 0.57525 0.0
C1248 C 0.97745 0.91174 0.65559 0.0
C1249 C 0.97091 0.93179 0.61796 0.0
C1250 C 0.97806 0.89011 0.63552 0.0
C1251 C 0.97227 0.88839 0.57609 0.0
C1252 C 0.9653 0.90855 0.53821 0.0
C1253 C 0.96458 0.92988 0.55963 0.0
C1254 C 0.98527 0.86913 0.67769 0.0
C1255 C 0.95929 0.90769 0.47431 0.0
H1256 H 0.01363 0.83674 0.47055 0.0
H1257 H 0.94183 0.8248 0.50691 0.0
H1258 H 0.01431 0.88993 0.5014 0.0
H1259 H 0.02091 0.87656 0.5745 0.0
H1260 H 0.03354 0.86446 0.51234 0.0
H1261 H 0.92042 0.84437 0.5768 0.0
H1262 H 0.93509 0.86263 0.62062 0.0
H1263 H 0.92392 0.87383 0.54911 0.0
H1264 H 0.98204 0.91295 0.70094 0.0
H1265 H 0.95977 0.94521 0.52998 0.0
H1266 H 1.00181 0.86102 0.66281 0.0
H1267 H 0.97181 0.8564 0.67819 0.0
H1268 H 0.98786 0.87314 0.72329 0.0
H1269 H 0.97476 0.90092 0.45138 0.0
H1270 H 0.95356 0.92476 0.45103 0.0
H1271 H 0.94516 0.89594 0.47082 0.0
C1272 C 0.6907 0.99248 0.45814 0.0
C1273 C 0.70183 0.97062 0.45994 0.0
C1274 C 0.67009 0.9961 0.49022 0.0
C1275 C 0.66049 0.97743 0.52513 0.0
C1276 C 0.67271 0.95569 0.53031 0.0
C1277 C 0.69307 0.95252 0.49732 0.0
C1278 C 0.65772 0.01956 0.48349 0.0
C1279 C 0.6635 0.93541 0.56795 0.0
C1280 C 0.61142 0.98734 0.63416 0.0
C1281 C 0.59162 0.98241 0.60301 0.0
C1282 C 0.63392 0.98592 0.60949 0.0
C1283 C 0.6367 0.97998 0.55168 0.0
C1284 C 0.61668 0.9755 0.51963 0.0
C1285 C 0.5945 0.97658 0.5458 0.0
C1286 C 0.65473 0.99061 0.64549 0.0
C1287 C 0.61871 0.96928 0.45776 0.0
H1288 H 0.69717 0.0064 0.42843 0.0
H1289 H 0.70152 0.93555 0.49828 0.0
H1290 H 0.6411 0.01924 0.45881 0.0
H1291 H 0.65322 0.02468 0.52729 0.0
H1292 H 0.66847 0.03267 0.45956 0.0
H1293 H 0.67623 0.92034 0.57231 0.0
H1294 H 0.65919 0.93981 0.61258 0.0
H1295 H 0.64715 0.93061 0.54809 0.0
H1296 H 0.6094 0.99169 0.67855 0.0
H1297 H 0.57928 0.97302 0.52124 0.0
H1298 H 0.66117 0.00741 0.62796 0.0
H1299 H 0.66925 0.97751 0.64257 0.0
H1300 H 0.6503 0.99092 0.69256 0.0
H1301 H 0.62766 0.98263 0.42935 0.0
H1302 H 0.60141 0.96727 0.43782 0.0
H1303 H 0.62949 0.95302 0.45802 0.0
C1304 C 0.52141 0.65392 0.44577 0.0
C1305 C 0.50372 0.67111 0.44968 0.0
C1306 C 0.52486 0.63539 0.49061 0.0
C1307 C 0.51024 0.63398 0.54072 0.0
C1308 C 0.49371 0.65237 0.54712 0.0
C1309 C 0.49051 0.67061 0.50129 0.0
C1310 C 0.54267 0.61628 0.48154 0.0
C1311 C 0.47796 0.65184 0.60001 0.0
C1312 C 0.49446 0.57475 0.60985 0.0
C1313 C 0.50891 0.57078 0.66009 0.0
C1314 C 0.49496 0.59508 0.57069 0.0
C1315 C 0.51009 0.61214 0.58203 0.0
C1316 C 0.52483 0.60821 0.63248 0.0
C1317 C 0.52416 0.58758 0.67066 0.0
C1318 C 0.47909 0.59833 0.5172 0.0
C1319 C 0.54106 0.62595 0.64659 0.0
H1320 H 0.5312 0.65393 0.40522 0.0
H1321 H 0.4764 0.68353 0.50377 0.0
H1322 H 0.55302 0.61078 0.52234 0.0
H1323 H 0.53351 0.60132 0.4708 0.0
H1324 H 0.55481 0.62133 0.44507 0.0
H1325 H 0.46874 0.66874 0.60298 0.0
H1326 H 0.46468 0.63917 0.59694 0.0
H1327 H 0.48812 0.64648 0.64123 0.0
H1328 H 0.48263 0.56195 0.60111 0.0
H1329 H 0.53529 0.58481 0.7095 0.0
H1330 H 0.48958 0.60154 0.4766 0.0
H1331 H 0.46683 0.6135 0.51887 0.0
H1332 H 0.46875 0.58326 0.51389 0.0
H1333 H 0.55173 0.62018 0.68684 0.0
H1334 H 0.53076 0.64193 0.65314 0.0
H1335 H 0.55297 0.63014 0.60916 0.0
C1336 C 0.84658 0.55804 0.52616 0.0
C1337 C 0.85246 0.56147 0.46634 0.0
C1338 C 0.864 0.5516 0.56986 0.0
C1339 C 0.88774 0.54856 0.55318 0.0
C1340 C 0.89355 0.55141 0.49278 0.0
C1341 C 0.87591 0.55758 0.45042 0.0
C1342 C 0.8571 0.54839 0.63381 0.0
C1343 C 0.91852 0.54825 0.47269 0.0
C1344 C 0.93909 0.55363 0.65566 0.0
C1345 C 0.94726 0.53073 0.66953 0.0
C1346 C 0.91911 0.55965 0.61992 0.0
C1347 C 0.9068 0.54236 0.59805 0.0
C1348 C 0.91448 0.51918 0.61383 0.0
C1349 C 0.93463 0.51367 0.64896 0.0
C1350 C 0.91168 0.58459 0.60371 0.0
C1351 C 0.90182 0.50017 0.59206 0.0
H1352 H 0.82855 0.56094 0.53886 0.0
H1353 H 0.88058 0.55956 0.40424 0.0
H1354 H 0.86363 0.53126 0.655 0.0
H1355 H 0.86528 0.56118 0.65742 0.0
H1356 H 0.83786 0.55022 0.63948 0.0
H1357 H 0.92012 0.55129 0.42401 0.0
H1358 H 0.92954 0.56018 0.49223 0.0
H1359 H 0.92568 0.53066 0.48812 0.0
H1360 H 0.9486 0.56692 0.67172 0.0
H1361 H 0.94053 0.49588 0.66019 0.0
H1362 H 0.89285 0.58771 0.61298 0.0
H1363 H 0.91412 0.58945 0.55578 0.0
H1364 H 0.92187 0.59584 0.628 0.0
H1365 H 0.88282 0.50234 0.60061 0.0
H1366 H 0.90847 0.48305 0.61324 0.0
H1367 H 0.904 0.50079 0.54373 0.0
loop_
_geom_bond_atom_site_label_1
_geom_bond_atom_site_label_2
_geom_bond_distance
_geom_bond_site_symmetry_2
_ccdc_geom_bond_type
C0 C1 1.391 . S
C0 C4 1.391 . S
C0 H42 0.948 . S
C1 C0 1.391 . S
C1 C2 1.391 . S
C2 C1 1.391 . S
C2 H58 0.947 . S
C2 C59 1.392 . S
C3 C4 1.391 . S
C3 C7 1.397 . S
C3 C59 1.419 . S
C4 C0 1.391 . S
C4 C3 1.391 . S
C4 C5 1.399 . S
C5 C4 1.399 . S
C5 C8 1.396 . S
C5 C17 1.453 . S
C5 C18 1.684 . S
H6 C30 0.948 . S
C7 C3 1.397 . S
C7 C8 1.394 . S
C7 C26 1.723 . S
C8 C5 1.396 . S
C8 C7 1.394 . S
C8 C38 1.723 . S
H9 C32 0.947 . S
H10 C33 0.948 . S
H11 C39 0.982 1_554 S
H12 C40 0.979 . S
H13 C40 0.980 . S
H14 C40 0.983 . S
H15 C39 0.979 . S
H16 C39 0.977 . S
C17 C5 1.453 . S
C17 H46 0.982 . S
C17 H47 0.979 . S
C17 H48 0.977 . S
C18 C5 1.684 . S
C18 H43 0.979 . S
C18 H44 0.980 . S
C18 H45 0.983 . S
C19 C20 1.391 1_554 S
C19 C24 1.391 . S
C19 H49 0.948 . S
C20 C19 1.391 1_556 S
C20 C21 1.391 . S
C21 C20 1.391 . S
C21 C22 1.392 . S
C21 H50 0.947 . S
C22 C21 1.392 . S
C22 C23 1.419 1_556 S
C22 H51 0.948 . S
C23 C22 1.419 1_554 S
C23 C24 1.391 . S
C23 C27 1.397 . S
C24 C19 1.391 . S
C24 C23 1.391 . S
C24 C25 1.399 . S
C25 C24 1.399 . S
C25 C26 1.396 . S
C25 C28 1.453 . S
C25 C29 1.684 . S
C26 C7 1.723 . S
C26 C25 1.396 . S
C26 C27 1.394 . S
C27 C23 1.397 . S
C27 C26 1.394 . S
C27 C37 1.723 . S
C28 C25 1.453 . S
C28 H52 0.982 . S
C28 H53 0.979 . S
C28 H54 0.977 . S
C29 C25 1.684 . S
C29 H55 0.979 . S
C29 H56 0.980 . S
C29 H57 0.983 . S
C30 H6 0.948 . S
C30 C31 1.391 . S
C30 C35 1.391 . S
C31 C30 1.391 . S
C31 C32 1.391 . S
C32 H9 0.947 . S
C32 C31 1.391 . S
C32 C33 1.392 . S
C33 H10 0.948 . S
C33 C32 1.392 . S
C33 C34 1.419 . S
C34 C33 1.419 . S
C34 C35 1.391 . S
C34 C38 1.397 . S
C35 C30 1.391 . S
C35 C34 1.391 . S
C35 C36 1.399 . S
C36 C35 1.399 . S
C36 C37 1.396 . S
C36 C39 1.453 1_554 S
C36 C40 1.684 1_554 S
C37 C27 1.723 . S
C37 C36 1.396 . S
C37 C38 1.394 . S
C38 C8 1.723 . S
C38 C34 1.397 . S
C38 C37 1.394 . S
C39 H11 0.982 1_556 S
C39 H15 0.979 . S
C39 H16 0.977 . S
C39 C36 1.453 1_556 S
C40 H12 0.979 . S
C40 H13 0.980 . S
C40 H14 0.983 . S
C40 C36 1.684 1_556 S
H41 C59 0.948 . S
H42 C0 0.948 . S
H43 C18 0.979 . S
H44 C18 0.980 . S
H45 C18 0.983 . S
H46 C17 0.982 . S
H47 C17 0.979 . S
H48 C17 0.977 . S
H49 C19 0.948 . S
H50 C21 0.947 . S
H51 C22 0.948 . S
H52 C28 0.982 . S
H53 C28 0.979 . S
H54 C28 0.977 . S
H55 C29 0.979 . S
H56 C29 0.980 . S
H57 C29 0.983 . S
H58 C2 0.947 . S
C59 C2 1.392 . S
C59 C3 1.419 . S
C59 H41 0.948 . S
C60 C61 1.391 . S
C60 C64 1.391 . S
C60 H102 0.948 . S
C61 C60 1.391 . S
C61 C62 1.391 1_556 S
C62 C61 1.391 1_554 S
C62 H118 0.947 . S
C62 C119 1.392 . S
C63 C64 1.391 1_554 S
C63 C67 1.397 1_655 S
C63 C119 1.419 . S
C64 C60 1.391 . S
C64 C63 1.391 1_556 S
C64 C65 1.399 . S
C65 C64 1.399 . S
C65 C68 1.396 1_656 S
C65 C77 1.453 1_655 S
C65 C78 1.684 . S
H66 C90 0.948 . S
C67 C63 1.397 1_455 S
C67 C68 1.394 . S
C67 C86 1.723 . S
C68 C65 1.396 1_454 S
C68 C67 1.394 . S
C68 C98 1.723 . S
H69 C92 0.947 1_556 S
H70 C93 0.948 1_556 S
H71 C99 0.982 . S
H72 C100 0.979 . S
H73 C100 0.980 . S
H74 C100 0.983 . S
H75 C99 0.979 . S
H76 C99 0.977 . S
C77 C65 1.453 1_455 S
C77 H106 0.982 . S
C77 H107 0.979 . S
C77 H108 0.977 . S
C78 C65 1.684 . S
C78 H103 0.979 . S
C78 H104 0.980 . S
C78 H105 0.983 . S
C79 C80 1.391 . S
C79 C84 1.391 . S
C79 H109 0.948 . S
C80 C79 1.391 . S
C80 C81 1.391 . S
C81 C80 1.391 . S
C81 C82 1.392 . S
C81 H110 0.947 . S
C82 C81 1.392 . S
C82 C83 1.419 . S
C82 H111 0.948 . S
C83 C82 1.419 . S
C83 C84 1.391 . S
C83 C87 1.397 1_655 S
C84 C79 1.391 . S
C84 C83 1.391 . S
C84 C85 1.399 . S
C85 C84 1.399 . S
C85 C86 1.396 1_655 S
C85 C88 1.453 1_655 S
C85 C89 1.684 . S
C86 C67 1.723 . S
C86 C85 1.396 1_455 S
C86 C87 1.394 . S
C87 C83 1.397 1_455 S
C87 C86 1.394 . S
C87 C97 1.723 . S
C88 C85 1.453 1_455 S
C88 H112 0.982 . S
C88 H113 0.979 . S
C88 H114 0.977 . S
C89 C85 1.684 . S
C89 H115 0.979 . S
C89 H116 0.980 . S
C89 H117 0.983 . S
C90 H66 0.948 . S
C90 C91 1.391 . S
C90 C95 1.391 . S
C91 C90 1.391 . S
C91 C92 1.391 . S
C92 H69 0.947 1_554 S
C92 C91 1.391 . S
C92 C93 1.392 . S
C93 H70 0.948 1_554 S
C93 C92 1.392 . S
C93 C94 1.419 . S
C94 C93 1.419 . S
C94 C95 1.391 . S
C94 C98 1.397 1_655 S
C95 C90 1.391 . S
C95 C94 1.391 . S
C95 C96 1.399 . S
C96 C95 1.399 . S
C96 C97 1.396 1_655 S
C96 C99 1.453 1_655 S
C96 C100 1.684 . S
C97 C87 1.723 . S
C97 C96 1.396 1_455 S
C97 C98 1.394 . S
C98 C68 1.723 . S
C98 C94 1.397 1_455 S
C98 C97 1.394 . S
C99 H71 0.982 . S
C99 H75 0.979 . S
C99 H76 0.977 . S
C99 C96 1.453 1_455 S
C100 H72 0.979 . S
C100 H73 0.980 . S
C100 H74 0.983 . S
C100 C96 1.684 . S
H101 C119 0.948 . S
H102 C60 0.948 . S
H103 C78 0.979 . S
H104 C78 0.980 . S
H105 C78 0.983 . S
H106 C77 0.982 . S
H107 C77 0.979 . S
H108 C77 0.977 . S
H109 C79 0.948 . S
H110 C81 0.947 . S
H111 C82 0.948 . S
H112 C88 0.982 . S
H113 C88 0.979 . S
H114 C88 0.977 . S
H115 C89 0.979 . S
H116 C89 0.980 . S
H117 C89 0.983 . S
H118 C62 0.947 . S
C119 C62 1.392 . S
C119 C63 1.419 . S
C119 H101 0.948 . S
C120 C121 1.391 . S
C120 C124 1.391 . S
C120 H162 0.948 . S
C121 C120 1.391 . S
C121 C122 1.391 1_554 S
C122 C121 1.391 1_556 S
C122 H178 0.947 . S
C122 C179 1.392 1_556 S
C123 C124 1.391 . S
C123 C127 1.397 . S
C123 C179 1.419 . S
C124 C120 1.391 . S
C124 C123 1.391 . S
C124 C125 1.399 . S
C125 C124 1.399 . S
C125 C128 1.396 . S
C125 C137 1.453 . S
C125 C138 1.684 . S
H126 C150 0.948 . S
C127 C123 1.397 . S
C127 C128 1.394 . S
C127 C146 1.723 . S
C128 C125 1.396 . S
C128 C127 1.394 . S
C128 C158 1.723 . S
H129 C152 0.947 . S
H130 C153 0.948 . S
H131 C159 0.982 . S
H132 C160 0.979 . S
H133 C160 0.980 . S
H134 C160 0.983 . S
H135 C159 0.979 . S
H136 C159 0.977 . S
C137 C125 1.453 . S
C137 H166 0.982 . S
C137 H167 0.979 . S
C137 H168 0.977 . S
C138 C125 1.684 . S
C138 H163 0.979 . S
C138 H164 0.980 . S
C138 H165 0.983 . S
C139 C140 1.391 . S
C139 C144 1.391 . S
C139 H169 0.948 . S
C140 C139 1.391 . S
C140 C141 1.391 . S
C141 C140 1.391 . S
C141 C142 1.392 1_556 S
C141 H170 0.950 . S
C142 C141 1.392 1_554 S
C142 C143 1.419 . S
C142 H171 0.948 . S
C143 C142 1.419 . S
C143 C144 1.391 1_554 S
C143 C147 1.397 . S
C144 C139 1.391 . S
C144 C143 1.391 1_556 S
C144 C145 1.399 . S
C145 C144 1.399 . S
C145 C146 1.396 1_556 S
C145 C148 1.453 . S
C145 C149 1.684 . S
C146 C127 1.723 . S
C146 C145 1.396 1_554 S
C146 C147 1.394 . S
C147 C143 1.397 . S
C147 C146 1.394 . S
C147 C157 1.723 . S
C148 C145 1.453 . S
C148 H172 0.982 . S
C148 H173 0.979 . S
C148 H174 0.977 . S
C149 C145 1.684 . S
C149 H175 0.979 . S
C149 H176 0.980 . S
C149 H177 0.983 . S
C150 H126 0.948 . S
C150 C151 1.391 . S
C150 C155 1.391 . S
C151 C150 1.391 . S
C151 C152 1.391 . S
C152 H129 0.947 . S
C152 C151 1.391 . S
C152 C153 1.392 . S
C153 H130 0.948 . S
C153 C152 1.392 . S
C153 C154 1.419 . S
C154 C153 1.419 . S
C154 C155 1.391 . S
C154 C158 1.397 . S
C155 C150 1.391 . S
C155 C154 1.391 . S
C155 C156 1.399 . S
C156 C155 1.399 . S
C156 C157 1.396 . S
C156 C159 1.453 . S
C156 C160 1.684 . S
C157 C147 1.723 . S
C157 C156 1.396 . S
C157 C158 1.394 . S
C158 C128 1.723 . S
C158 C154 1.397 . S
C158 C157 1.394 . S
C159 H131 0.982 . S
C159 H135 0.979 . S
C159 H136 0.977 . S
C159 C156 1.453 . S
C160 H132 0.979 . S
C160 H133 0.980 . S
C160 H134 0.983 . S
C160 C156 1.684 . S
H161 C179 0.948 1_556 S
H162 C120 0.948 . S
H163 C138 0.979 . S
H164 C138 0.980 . S
H165 C138 0.983 . S
H166 C137 0.982 . S
H167 C137 0.979 . S
H168 C137 0.977 . S
H169 C139 0.948 . S
H170 C141 0.950 . S
H171 C142 0.948 . S
H172 C148 0.982 . S
H173 C148 0.979 . S
H174 C148 0.977 . S
H175 C149 0.979 . S
H176 C149 0.980 . S
H177 C149 0.983 . S
H178 C122 0.947 . S
C179 C122 1.392 1_554 S
C179 C123 1.419 . S
C179 H161 0.948 1_554 S
C180 C181 1.391 . S
C180 C184 1.391 . S
C180 H222 0.948 . S
C181 C180 1.391 . S
C181 C182 1.391 . S
C182 C181 1.391 . S
C182 H238 0.947 . S
C182 C239 1.392 . S
C183 C184 1.391 . S
C183 C187 1.397 . S
C183 C239 1.419 . S
C184 C180 1.391 . S
C184 C183 1.391 . S
C184 C185 1.399 . S
C185 C184 1.399 . S
C185 C188 1.396 . S
C185 C197 1.453 . S
C185 C198 1.684 . S
H186 C210 0.948 1_556 S
C187 C183 1.397 . S
C187 C188 1.394 . S
C187 C206 1.723 . S
C188 C185 1.396 . S
C188 C187 1.394 . S
C188 C218 1.723 . S
H189 C212 0.947 . S
H190 C213 0.948 . S
H191 C219 0.982 1_554 S
H192 C220 0.979 . S
H193 C220 0.980 . S
H194 C220 0.983 . S
H195 C219 0.979 . S
H196 C219 0.977 . S
C197 C185 1.453 . S
C197 H226 0.982 . S
C197 H227 0.979 . S
C197 H228 0.977 . S
C198 C185 1.684 . S
C198 H223 0.979 . S
C198 H224 0.980 . S
C198 H225 0.983 . S
C199 C200 1.391 1_554 S
C199 C204 1.391 . S
C199 H229 0.948 . S
C200 C199 1.391 1_556 S
C200 C201 1.391 . S
C201 C200 1.391 . S
C201 C202 1.392 . S
C201 H230 0.947 . S
C202 C201 1.392 . S
C202 C203 1.419 1_556 S
C202 H231 0.948 . S
C203 C202 1.419 1_554 S
C203 C204 1.391 . S
C203 C207 1.397 . S
C204 C199 1.391 . S
C204 C203 1.391 . S
C204 C205 1.399 . S
C205 C204 1.399 . S
C205 C206 1.396 . S
C205 C208 1.453 . S
C205 C209 1.684 . S
C206 C187 1.723 . S
C206 C205 1.396 . S
C206 C207 1.394 . S
C207 C203 1.397 . S
C207 C206 1.394 . S
C207 C217 1.723 . S
C208 C205 1.453 . S
C208 H232 0.982 . S
C208 H233 0.979 . S
C208 H234 0.977 . S
C209 C205 1.684 . S
C209 H235 0.979 . S
C209 H236 0.980 . S
C209 H237 0.983 . S
C210 H186 0.948 1_554 S
C210 C211 1.391 . S
C210 C215 1.391 . S
C211 C210 1.391 . S
C211 C212 1.391 . S
C212 H189 0.947 . S
C212 C211 1.391 . S
C212 C213 1.392 . S
C213 H190 0.948 . S
C213 C212 1.392 . S
C213 C214 1.419 . S
C214 C213 1.419 . S
C214 C215 1.391 . S
C214 C218 1.397 . S
C215 C210 1.391 . S
C215 C214 1.391 . S
C215 C216 1.399 . S
C216 C215 1.399 . S
C216 C217 1.396 . S
C216 C219 1.453 1_554 S
C216 C220 1.684 1_554 S
C217 C207 1.723 . S
C217 C216 1.396 . S
C217 C218 1.394 . S
C218 C188 1.723 . S
C218 C214 1.397 . S
C218 C217 1.394 . S
C219 H191 0.982 1_556 S
C219 H195 0.979 . S
C219 H196 0.977 . S
C219 C216 1.453 1_556 S
C220 H192 0.979 . S
C220 H193 0.980 . S
C220 H194 0.983 . S
C220 C216 1.684 1_556 S
H221 C239 0.948 . S
H222 C180 0.948 . S
H223 C198 0.979 . S
H224 C198 0.980 . S
H225 C198 0.983 . S
H226 C197 0.982 . S
H227 C197 0.979 . S
H228 C197 0.977 . S
H229 C199 0.948 . S
H230 C201 0.947 . S
H231 C202 0.948 . S
H232 C208 0.982 . S
H233 C208 0.979 . S
H234 C208 0.977 . S
H235 C209 0.979 . S
H236 C209 0.980 . S
H237 C209 0.983 . S
H238 C182 0.947 . S
C239 C182 1.392 . S
C239 C183 1.419 . S
C239 H221 0.948 . S
C240 C241 1.391 . S
C240 C244 1.391 . S
C240 H282 0.948 . S
C241 C240 1.391 . S
C241 C242 1.391 . S
C242 C241 1.391 . S
C242 H298 0.947 . S
C242 C299 1.392 . S
C243 C244 1.391 . S
C243 C247 1.397 . S
C243 C299 1.419 . S
C244 C240 1.391 . S
C244 C243 1.391 . S
C244 C245 1.399 . S
C245 C244 1.399 . S
C245 C248 1.396 . S
C245 C257 1.453 . S
C245 C258 1.684 . S
H246 C270 0.948 . S
C247 C243 1.397 . S
C247 C248 1.394 . S
C247 C266 1.723 . S
C248 C245 1.396 . S
C248 C247 1.394 . S
C248 C278 1.723 . S
H249 C272 0.947 . S
H250 C273 0.948 . S
H251 C279 0.982 . S
H252 C280 0.979 . S
H253 C280 0.980 . S
H254 C280 0.983 . S
H255 C279 0.979 . S
H256 C279 0.977 . S
C257 C245 1.453 . S
C257 H286 0.982 . S
C257 H287 0.979 . S
C257 H288 0.977 . S
C258 C245 1.684 . S
C258 H283 0.979 . S
C258 H284 0.980 . S
C258 H285 0.983 . S
C259 C260 1.391 . S
C259 C264 1.391 . S
C259 H289 0.948 . S
C260 C259 1.391 . S
C260 C261 1.391 . S
C261 C260 1.391 . S
C261 C262 1.392 . S
C261 H290 0.947 . S
C262 C261 1.392 . S
C262 C263 1.419 . S
C262 H291 0.948 . S
C263 C262 1.419 . S
C263 C264 1.391 . S
C263 C267 1.397 . S
C264 C259 1.391 . S
C264 C263 1.391 . S
C264 C265 1.399 . S
C265 C264 1.399 . S
C265 C266 1.396 . S
C265 C268 1.453 . S
C265 C269 1.684 . S
C266 C247 1.723 . S
C266 C265 1.396 . S
C266 C267 1.394 . S
C267 C263 1.397 . S
C267 C266 1.394 . S
C267 C277 1.723 . S
C268 C265 1.453 . S
C268 H292 0.982 . S
C268 H293 0.979 . S
C268 H294 0.977 . S
C269 C265 1.684 . S
C269 H295 0.979 . S
C269 H296 0.980 . S
C269 H297 0.983 . S
C270 H246 0.948 . S
C270 C271 1.391 . S
C270 C275 1.391 . S
C271 C270 1.391 . S
C271 C272 1.391 . S
C272 H249 0.947 . S
C272 C271 1.391 . S
C272 C273 1.392 . S
C273 H250 0.948 . S
C273 C272 1.392 . S
C273 C274 1.419 . S
C274 C273 1.419 . S
C274 C275 1.391 . S
C274 C278 1.397 . S
C275 C270 1.391 . S
C275 C274 1.391 . S
C275 C276 1.399 . S
C276 C275 1.399 . S
C276 C277 1.396 . S
C276 C279 1.453 . S
C276 C280 1.684 . S
C277 C267 1.723 . S
C277 C276 1.396 . S
C277 C278 1.394 . S
C278 C248 1.723 . S
C278 C274 1.397 . S
C278 C277 1.394 . S
C279 H251 0.982 . S
C279 H255 0.979 . S
C279 H256 0.977 . S
C279 C276 1.453 . S
C280 H252 0.979 . S
C280 H253 0.980 . S
C280 H254 0.983 . S
C280 C276 1.684 . S
H281 C299 0.948 . S
H282 C240 0.948 . S
H283 C258 0.979 . S
H284 C258 0.980 . S
H285 C258 0.983 . S
H286 C257 0.982 . S
H287 C257 0.979 . S
H288 C257 0.977 . S
H289 C259 0.948 . S
H290 C261 0.947 . S
H291 C262 0.948 . S
H292 C268 0.982 . S
H293 C268 0.979 . S
H294 C268 0.977 . S
H295 C269 0.979 . S
H296 C269 0.980 . S
H297 C269 0.983 . S
H298 C242 0.947 . S
C299 C242 1.392 . S
C299 C243 1.419 . S
C299 H281 0.948 . S
C300 C301 1.391 . S
C300 C304 1.391 . S
C300 H342 0.948 . S
C301 C300 1.391 . S
C301 C302 1.391 . S
C302 C301 1.391 . S
C302 H358 0.947 . S
C302 C359 1.392 . S
C303 C304 1.391 . S
C303 C307 1.396 1_655 S
C303 C359 1.419 . S
C304 C300 1.391 . S
C304 C303 1.391 . S
C304 C305 1.399 . S
C305 C304 1.399 . S
C305 C308 1.396 1_655 S
C305 C317 1.453 1_655 S
C305 C318 1.684 . S
H306 C330 0.948 . S
C307 C303 1.396 1_455 S
C307 C308 1.395 . S
C307 C326 1.723 . S
C308 C305 1.396 1_455 S
C308 C307 1.395 . S
C308 C338 1.723 . S
H309 C332 0.947 . S
H310 C333 0.948 . S
H311 C339 0.982 . S
H312 C340 0.979 . S
H313 C340 0.980 . S
H314 C340 0.983 . S
H315 C339 0.979 . S
H316 C339 0.977 . S
C317 C305 1.453 1_455 S
C317 H346 0.982 . S
C317 H347 0.979 . S
C317 H348 0.977 . S
C318 C305 1.684 . S
C318 H343 0.979 . S
C318 H344 0.980 . S
C318 H345 0.983 . S
C319 C320 1.391 . S
C319 C324 1.391 . S
C319 H349 0.948 . S
C320 C319 1.391 . S
C320 C321 1.391 . S
C321 C320 1.391 . S
C321 C322 1.392 . S
C321 H350 0.947 . S
C322 C321 1.392 . S
C322 C323 1.419 . S
C322 H351 0.948 . S
C323 C322 1.419 . S
C323 C324 1.391 . S
C323 C327 1.396 1_655 S
C324 C319 1.391 . S
C324 C323 1.391 . S
C324 C325 1.399 . S
C325 C324 1.399 . S
C325 C326 1.396 1_655 S
C325 C328 1.453 1_655 S
C325 C329 1.684 . S
C326 C307 1.723 . S
C326 C325 1.396 1_455 S
C326 C327 1.394 . S
C327 C323 1.396 1_455 S
C327 C326 1.394 . S
C327 C337 1.724 . S
C328 C325 1.453 1_455 S
C328 H352 0.982 . S
C328 H353 0.979 . S
C328 H354 0.977 . S
C329 C325 1.684 . S
C329 H355 0.979 . S
C329 H356 0.980 . S
C329 H357 0.983 . S
C330 H306 0.948 . S
C330 C331 1.391 . S
C330 C335 1.391 . S
C331 C330 1.391 . S
C331 C332 1.391 . S
C332 H309 0.947 . S
C332 C331 1.391 . S
C332 C333 1.392 . S
C333 H310 0.948 . S
C333 C332 1.392 . S
C333 C334 1.419 . S
C334 C333 1.419 . S
C334 C335 1.391 . S
C334 C338 1.397 1_655 S
C335 C330 1.391 . S
C335 C334 1.391 . S
C335 C336 1.399 . S
C336 C335 1.399 . S
C336 C337 1.396 1_655 S
C336 C339 1.453 1_655 S
C336 C340 1.684 . S
C337 C327 1.724 . S
C337 C336 1.396 1_455 S
C337 C338 1.395 . S
C338 C308 1.723 . S
C338 C334 1.397 1_455 S
C338 C337 1.395 . S
C339 H311 0.982 . S
C339 H315 0.979 . S
C339 H316 0.977 . S
C339 C336 1.453 1_455 S
C340 H312 0.979 . S
C340 H313 0.980 . S
C340 H314 0.983 . S
C340 C336 1.684 . S
H341 C359 0.948 . S
H342 C300 0.948 . S
H343 C318 0.979 . S
H344 C318 0.980 . S
H345 C318 0.983 . S
H346 C317 0.982 . S
H347 C317 0.979 . S
H348 C317 0.977 . S
H349 C319 0.948 . S
H350 C321 0.947 . S
H351 C322 0.948 . S
H352 C328 0.982 . S
H353 C328 0.979 . S
H354 C328 0.977 . S
H355 C329 0.979 . S
H356 C329 0.980 . S
H357 C329 0.983 . S
H358 C302 0.947 . S
C359 C302 1.392 . S
C359 C303 1.419 . S
C359 H341 0.948 . S
C360 C361 1.391 . S
C360 C364 1.391 . S
C360 H402 0.948 . S
C361 C360 1.391 . S
C361 C362 1.391 . S
C362 C361 1.391 . S
C362 H418 0.947 . S
C362 C419 1.392 . S
C363 C364 1.391 . S
C363 C367 1.397 . S
C363 C419 1.419 . S
C364 C360 1.391 . S
C364 C363 1.391 . S
C364 C365 1.399 . S
C365 C364 1.399 . S
C365 C368 1.396 . S
C365 C377 1.453 . S
C365 C378 1.684 . S
H366 C390 0.948 . S
C367 C363 1.397 . S
C367 C368 1.394 . S
C367 C386 1.723 . S
C368 C365 1.396 . S
C368 C367 1.394 . S
C368 C398 1.723 . S
H369 C392 0.947 . S
H370 C393 0.948 . S
H371 C399 0.982 . S
H372 C400 0.979 . S
H373 C400 0.980 . S
H374 C400 0.983 . S
H375 C399 0.979 . S
H376 C399 0.977 . S
C377 C365 1.453 . S
C377 H406 0.982 . S
C377 H407 0.979 . S
C377 H408 0.977 . S
C378 C365 1.684 . S
C378 H403 0.979 . S
C378 H404 0.980 . S
C378 H405 0.983 . S
C379 C380 1.391 . S
C379 C384 1.391 . S
C379 H409 0.948 . S
C380 C379 1.391 . S
C380 C381 1.391 . S
C381 C380 1.391 . S
C381 C382 1.392 . S
C381 H410 0.947 . S
C382 C381 1.392 . S
C382 C383 1.419 . S
C382 H411 0.948 . S
C383 C382 1.419 . S
C383 C384 1.391 . S
C383 C387 1.397 . S
C384 C379 1.391 . S
C384 C383 1.391 . S
C384 C385 1.399 . S
C385 C384 1.399 . S
C385 C386 1.396 . S
C385 C388 1.453 . S
C385 C389 1.684 . S
C386 C367 1.723 . S
C386 C385 1.396 . S
C386 C387 1.394 . S
C387 C383 1.397 . S
C387 C386 1.394 . S
C387 C397 1.723 . S
C388 C385 1.453 . S
C388 H412 0.982 . S
C388 H413 0.979 . S
C388 H414 0.977 . S
C389 C385 1.684 . S
C389 H415 0.979 . S
C389 H416 0.980 . S
C389 H417 0.983 . S
C390 H366 0.948 . S
C390 C391 1.391 . S
C390 C395 1.391 . S
C391 C390 1.391 . S
C391 C392 1.391 . S
C392 H369 0.947 . S
C392 C391 1.391 . S
C392 C393 1.392 . S
C393 H370 0.948 . S
C393 C392 1.392 . S
C393 C394 1.419 . S
C394 C393 1.419 . S
C394 C395 1.391 . S
C394 C398 1.397 . S
C395 C390 1.391 . S
C395 C394 1.391 . S
C395 C396 1.399 . S
C396 C395 1.399 . S
C396 C397 1.396 . S
C396 C399 1.453 . S
C396 C400 1.684 . S
C397 C387 1.723 . S
C397 C396 1.396 . S
C397 C398 1.394 . S
C398 C368 1.723 . S
C398 C394 1.397 . S
C398 C397 1.394 . S
C399 H371 0.982 . S
C399 H375 0.979 . S
C399 H376 0.977 . S
C399 C396 1.453 . S
C400 H372 0.979 . S
C400 H373 0.980 . S
C400 H374 0.983 . S
C400 C396 1.684 . S
H401 C419 0.948 . S
H402 C360 0.948 . S
H403 C378 0.979 . S
H404 C378 0.980 . S
H405 C378 0.983 . S
H406 C377 0.982 . S
H407 C377 0.979 . S
H408 C377 0.977 . S
H409 C379 0.948 . S
H410 C381 0.947 . S
H411 C382 0.948 . S
H412 C388 0.982 . S
H413 C388 0.979 . S
H414 C388 0.977 . S
H415 C389 0.979 . S
H416 C389 0.980 . S
H417 C389 0.983 . S
H418 C362 0.947 . S
C419 C362 1.392 . S
C419 C363 1.419 . S
C419 H401 0.948 . S
C420 C421 1.391 . S
C420 C424 1.391 . S
C420 H462 0.948 . S
C421 C420 1.391 . S
C421 C422 1.391 . S
C422 C421 1.391 . S
C422 H478 0.947 . S
C422 C479 1.392 . S
C423 C424 1.391 . S
C423 C427 1.397 . S
C423 C479 1.419 . S
C424 C420 1.391 . S
C424 C423 1.391 . S
C424 C425 1.399 . S
C425 C424 1.399 . S
C425 C428 1.396 . S
C425 C437 1.453 . S
C425 C438 1.684 . S
H426 C450 0.948 . S
C427 C423 1.397 . S
C427 C428 1.394 . S
C427 C446 1.723 . S
C428 C425 1.396 . S
C428 C427 1.394 . S
C428 C458 1.723 . S
H429 C452 0.947 . S
H430 C453 0.948 . S
H431 C459 0.982 . S
H432 C460 0.979 . S
H433 C460 0.980 . S
H434 C460 0.983 . S
H435 C459 0.979 . S
H436 C459 0.977 . S
C437 C425 1.453 . S
C437 H466 0.982 . S
C437 H467 0.979 . S
C437 H468 0.977 . S
C438 C425 1.684 . S
C438 H463 0.979 . S
C438 H464 0.980 . S
C438 H465 0.983 . S
C439 C440 1.391 . S
C439 C444 1.391 . S
C439 H469 0.948 . S
C440 C439 1.391 . S
C440 C441 1.391 . S
C441 C440 1.391 . S
C441 C442 1.392 . S
C441 H470 0.947 . S
C442 C441 1.392 . S
C442 C443 1.419 . S
C442 H471 0.948 . S
C443 C442 1.419 . S
C443 C444 1.391 . S
C443 C447 1.397 . S
C444 C439 1.391 . S
C444 C443 1.391 . S
C444 C445 1.399 . S
C445 C444 1.399 . S
C445 C446 1.396 . S
C445 C448 1.453 . S
C445 C449 1.684 . S
C446 C427 1.723 . S
C446 C445 1.396 . S
C446 C447 1.394 . S
C447 C443 1.397 . S
C447 C446 1.394 . S
C447 C457 1.723 . S
C448 C445 1.453 . S
C448 H472 0.982 . S
C448 H473 0.979 . S
C448 H474 0.977 . S
C449 C445 1.684 . S
C449 H475 0.979 . S
C449 H476 0.980 . S
C449 H477 0.983 . S
C450 H426 0.948 . S
C450 C451 1.391 . S
C450 C455 1.391 . S
C451 C450 1.391 . S
C451 C452 1.391 . S
C452 H429 0.947 . S
C452 C451 1.391 . S
C452 C453 1.392 . S
C453 H430 0.948 . S
C453 C452 1.392 . S
C453 C454 1.419 . S
C454 C453 1.419 . S
C454 C455 1.391 . S
C454 C458 1.397 . S
C455 C450 1.391 . S
C455 C454 1.391 . S
C455 C456 1.399 . S
C456 C455 1.399 . S
C456 C457 1.396 . S
C456 C459 1.453 . S
C456 C460 1.684 . S
C457 C447 1.723 . S
C457 C456 1.396 . S
C457 C458 1.394 . S
C458 C428 1.723 . S
C458 C454 1.397 . S
C458 C457 1.394 . S
C459 H431 0.982 . S
C459 H435 0.979 . S
C459 H436 0.977 . S
C459 C456 1.453 . S
C460 H432 0.979 . S
C460 H433 0.980 . S
C460 H434 0.983 . S
C460 C456 1.684 . S
H461 C479 0.948 . S
H462 C420 0.948 . S
H463 C438 0.979 . S
H464 C438 0.980 . S
H465 C438 0.983 . S
H466 C437 0.982 . S
H467 C437 0.979 . S
H468 C437 0.977 . S
H469 C439 0.948 . S
H470 C441 0.947 . S
H471 C442 0.948 . S
H472 C448 0.982 . S
H473 C448 0.979 . S
H474 C448 0.977 . S
H475 C449 0.979 . S
H476 C449 0.980 . S
H477 C449 0.983 . S
H478 C422 0.947 . S
C479 C422 1.392 . S
C479 C423 1.419 . S
C479 H461 0.948 . S
Co480 N485 2.057 . S
Co480 O497 2.021 . S
Co480 O500 2.062 1_455 S
Co480 O504 2.117 1_455 S
Co480 O505 2.020 1_545 S
C481 O501 1.259 1_545 S
C481 O504 1.258 . S
Co482 N491 2.057 . S
Co482 O498 2.117 1_665 S
Co482 O499 2.020 1_565 S
Co482 O501 2.021 . S
Co482 O506 2.062 1_655 S
C483 N485 1.316 . S
C483 N486 1.347 . S
C483 H488 0.931 . S
C484 N485 1.375 1_655 S
C484 C487 1.350 . S
C484 H489 0.930 . S
N485 Co480 2.057 . S
N485 C483 1.316 . S
N485 C484 1.375 1_455 S
N486 C483 1.347 . S
N486 C487 1.373 1_455 S
C487 C484 1.350 . S
C487 N486 1.373 1_655 S
C487 H508 0.931 . S
H488 C483 0.931 . S
H489 C484 0.930 . S
C490 O497 1.259 . S
C490 O498 1.258 . S
N491 Co482 2.057 . S
N491 C492 1.316 . S
N491 C493 1.375 1_655 S
C492 N491 1.316 . S
C492 N494 1.347 . S
C492 H503 0.931 . S
C493 N491 1.375 1_455 S
C493 C495 1.350 . S
C493 H502 0.930 . S
N494 C492 1.347 . S
N494 C495 1.373 1_655 S
C495 C493 1.350 . S
C495 N494 1.373 1_455 S
C495 H509 0.931 . S
C496 O499 1.256 . S
C496 O500 1.255 . S
O497 Co480 2.021 . S
O497 C490 1.259 . S
O498 Co482 2.117 1_445 S
O498 C490 1.258 . S
O499 Co482 2.020 1_545 S
O499 C496 1.256 . S
O500 Co480 2.062 1_655 S
O500 C496 1.255 . S
O501 C481 1.259 1_565 S
O501 Co482 2.021 . S
H502 C493 0.930 . S
H503 C492 0.931 . S
O504 Co480 2.117 1_655 S
O504 C481 1.258 . S
O505 Co480 2.020 1_565 S
O505 C507 1.256 . S
O506 Co482 2.062 1_455 S
O506 C507 1.255 . S
C507 O505 1.256 . S
C507 O506 1.255 . S
H508 C487 0.931 . S
H509 C495 0.931 . S
Co510 N515 2.057 . S
Co510 O527 2.021 . S
Co510 O530 2.062 . S
Co510 O534 2.117 1_545 S
Co510 O535 2.020 . S
C511 O531 1.259 . S
C511 O534 1.258 . S
Co512 N521 2.056 1_545 S
Co512 O528 2.124 . S
Co512 O529 2.020 . S
Co512 O531 2.014 1_545 S
Co512 O536 2.062 1_545 S
C513 N515 1.316 . S
C513 N516 1.347 . S
C513 H518 0.931 . S
C514 N515 1.375 . S
C514 C517 1.350 . S
C514 H519 0.930 1_545 S
N515 Co510 2.057 . S
N515 C513 1.316 . S
N515 C514 1.375 . S
N516 C513 1.347 . S
N516 C517 1.373 . S
C517 C514 1.350 . S
C517 N516 1.373 . S
C517 H538 0.941 . S
H518 C513 0.931 . S
H519 C514 0.930 1_565 S
C520 O527 1.259 . S
C520 O528 1.258 . S
N521 Co512 2.056 1_565 S
N521 C522 1.316 . S
N521 C523 1.375 1_565 S
C522 N521 1.316 . S
C522 N524 1.347 . S
C522 H533 0.931 . S
C523 N521 1.375 1_545 S
C523 C525 1.350 . S
C523 H532 0.930 . S
N524 C522 1.347 . S
N524 C525 1.373 1_565 S
C525 C523 1.350 . S
C525 N524 1.373 1_545 S
C525 H539 0.931 . S
C526 O529 1.256 . S
C526 O530 1.255 . S
O527 Co510 2.021 . S
O527 C520 1.259 . S
O528 Co512 2.124 . S
O528 C520 1.258 . S
O529 Co512 2.020 . S
O529 C526 1.256 . S
O530 Co510 2.062 . S
O530 C526 1.255 . S
O531 C511 1.259 . S
O531 Co512 2.014 1_565 S
H532 C523 0.930 . S
H533 C522 0.931 . S
O534 Co510 2.117 1_565 S
O534 C511 1.258 . S
O535 Co510 2.020 . S
O535 C537 1.256 . S
O536 Co512 2.062 1_565 S
O536 C537 1.255 1_565 S
C537 O535 1.256 . S
C537 O536 1.255 1_545 S
H538 C517 0.941 . S
H539 C525 0.931 . S
Co540 N545 2.057 . S
Co540 O557 2.021 . S
Co540 O560 2.062 . S
Co540 O564 2.117 . S
Co540 O565 2.020 . S
C541 O561 1.259 . S
C541 O564 1.258 . S
Co542 N551 2.057 . S
Co542 O558 2.117 . S
Co542 O559 2.020 . S
Co542 O561 2.021 . S
Co542 O566 2.062 . S
C543 N545 1.316 . S
C543 N546 1.347 . S
C543 H548 0.931 . S
C544 N545 1.375 . S
C544 C547 1.350 . S
C544 H549 0.930 . S
N545 Co540 2.057 . S
N545 C543 1.316 . S
N545 C544 1.375 . S
N546 C543 1.347 . S
N546 C547 1.373 . S
C547 C544 1.350 . S
C547 N546 1.373 . S
C547 H568 0.931 . S
H548 C543 0.931 . S
H549 C544 0.930 . S
C550 O557 1.259 . S
C550 O558 1.258 . S
N551 Co542 2.057 . S
N551 C552 1.316 . S
N551 C553 1.375 . S
C552 N551 1.316 . S
C552 N554 1.347 . S
C552 H563 0.931 . S
C553 N551 1.375 . S
C553 C555 1.350 . S
C553 H562 0.930 . S
N554 C552 1.347 . S
N554 C555 1.373 . S
C555 C553 1.350 . S
C555 N554 1.373 . S
C555 H569 0.931 . S
C556 O559 1.256 . S
C556 O560 1.255 . S
O557 Co540 2.021 . S
O557 C550 1.259 . S
O558 Co542 2.117 . S
O558 C550 1.258 . S
O559 Co542 2.020 . S
O559 C556 1.256 . S
O560 Co540 2.062 . S
O560 C556 1.255 . S
O561 C541 1.259 . S
O561 Co542 2.021 . S
H562 C553 0.930 . S
H563 C552 0.931 . S
O564 Co540 2.117 . S
O564 C541 1.258 . S
O565 Co540 2.020 . S
O565 C567 1.256 . S
O566 Co542 2.062 . S
O566 C567 1.255 . S
C567 O565 1.256 . S
C567 O566 1.255 . S
H568 C547 0.931 . S
H569 C555 0.931 . S
Co570 N575 2.057 . S
Co570 O587 2.021 1_455 S
Co570 O590 2.062 1_455 S
Co570 O594 2.117 . S
Co570 O595 2.020 . S
C571 O591 1.259 . S
C571 O594 1.258 . S
Co572 N581 2.057 . S
Co572 O588 2.117 . S
Co572 O589 2.020 . S
Co572 O591 2.021 1_655 S
Co572 O596 2.062 1_655 S
C573 N575 1.316 . S
C573 N576 1.347 . S
C573 H578 0.931 1_455 S
C574 N575 1.375 . S
C574 C577 1.350 . S
C574 H579 0.930 . S
N575 Co570 2.057 . S
N575 C573 1.316 . S
N575 C574 1.375 . S
N576 C573 1.347 . S
N576 C577 1.373 . S
C577 C574 1.350 . S
C577 N576 1.373 . S
C577 H598 0.931 . S
H578 C573 0.931 1_655 S
H579 C574 0.930 . S
C580 O587 1.259 . S
C580 O588 1.258 . S
N581 Co572 2.057 . S
N581 C582 1.316 . S
N581 C583 1.375 . S
C582 N581 1.316 . S
C582 N584 1.347 . S
C582 H593 0.931 1_655 S
C583 N581 1.375 . S
C583 C585 1.350 . S
C583 H592 0.930 . S
N584 C582 1.347 . S
N584 C585 1.373 . S
C585 C583 1.350 . S
C585 N584 1.373 . S
C585 H599 0.931 . S
C586 O589 1.256 . S
C586 O590 1.255 . S
O587 Co570 2.021 1_655 S
O587 C580 1.259 . S
O588 Co572 2.117 . S
O588 C580 1.258 . S
O589 Co572 2.020 . S
O589 C586 1.256 . S
O590 Co570 2.062 1_655 S
O590 C586 1.255 . S
O591 C571 1.259 . S
O591 Co572 2.021 1_455 S
H592 C583 0.930 . S
H593 C582 0.931 1_455 S
O594 Co570 2.117 . S
O594 C571 1.258 . S
O595 Co570 2.020 . S
O595 C597 1.256 . S
O596 Co572 2.062 1_455 S
O596 C597 1.255 . S
C597 O595 1.256 . S
C597 O596 1.255 . S
H598 C577 0.931 . S
H599 C585 0.931 . S
C600 C601 1.391 . S
C600 C602 1.394 . S
C600 H616 0.931 . S
C601 C600 1.391 . S
C601 C605 1.376 . S
C602 C600 1.394 . S
C602 C603 1.369 . S
C602 C606 1.531 . S
C603 C602 1.369 . S
C603 C604 1.410 . S
C603 C611 1.503 . S
C604 C603 1.410 . S
C604 C605 1.392 . S
C604 C607 1.511 . S
C605 C601 1.376 . S
C605 C604 1.392 . S
C605 H617 0.929 . S
C606 C602 1.531 . S
C606 H618 0.960 . S
C606 H619 0.962 . S
C606 H620 0.960 . S
C607 C604 1.511 . S
C607 H621 0.961 . S
C607 H622 0.961 . S
C607 H623 0.961 . S
C608 C609 1.370 . S
C608 C610 1.363 . S
C608 H624 0.931 . S
C609 C608 1.370 . S
C609 C613 1.408 . S
C610 C608 1.363 . S
C610 C611 1.370 . S
C610 C614 1.524 . S
C611 C603 1.503 . S
C611 C610 1.370 . S
C611 C612 1.403 . S
C612 C611 1.403 . S
C612 C613 1.404 . S
C612 C615 1.539 . S
C613 C609 1.408 . S
C613 C612 1.404 . S
C613 H625 0.930 . S
C614 C610 1.524 . S
C614 H626 0.956 . S
C614 H627 0.961 . S
C614 H628 0.961 . S
C615 C612 1.539 . S
C615 H629 0.958 . S
C615 H630 0.961 . S
C615 H631 0.960 . S
H616 C600 0.931 . S
H617 C605 0.929 . S
H618 C606 0.960 . S
H619 C606 0.962 . S
H620 C606 0.960 . S
H621 C607 0.961 . S
H622 C607 0.961 . S
H623 C607 0.961 . S
H624 C608 0.931 . S
H625 C613 0.930 . S
H626 C614 0.956 . S
H627 C614 0.961 . S
H628 C614 0.961 . S
H629 C615 0.958 . S
H630 C615 0.961 . S
H631 C615 0.960 . S
C632 C633 1.391 . S
C632 C634 1.394 . S
C632 H648 0.931 . S
C633 C632 1.391 . S
C633 C637 1.376 . S
C634 C632 1.394 . S
C634 C635 1.369 . S
C634 C638 1.531 . S
C635 C634 1.369 . S
C635 C636 1.410 . S
C635 C643 1.503 . S
C636 C635 1.410 . S
C636 C637 1.392 . S
C636 C639 1.511 . S
C637 C633 1.376 . S
C637 C636 1.392 . S
C637 H649 0.929 . S
C638 C634 1.531 . S
C638 H650 0.960 . S
C638 H651 0.962 . S
C638 H652 0.960 . S
C639 C636 1.511 . S
C639 H653 0.961 . S
C639 H654 0.961 . S
C639 H655 0.961 . S
C640 C641 1.370 . S
C640 C642 1.363 . S
C640 H656 0.931 . S
C641 C640 1.370 . S
C641 C645 1.408 . S
C642 C640 1.363 . S
C642 C643 1.370 . S
C642 C646 1.524 . S
C643 C635 1.503 . S
C643 C642 1.370 . S
C643 C644 1.403 . S
C644 C643 1.403 . S
C644 C645 1.404 . S
C644 C647 1.539 . S
C645 C641 1.408 . S
C645 C644 1.404 . S
C645 H657 0.930 . S
C646 C642 1.524 . S
C646 H658 0.956 . S
C646 H659 0.961 . S
C646 H660 0.961 . S
C647 C644 1.539 . S
C647 H661 0.958 . S
C647 H662 0.961 . S
C647 H663 0.960 . S
H648 C632 0.931 . S
H649 C637 0.929 . S
H650 C638 0.960 . S
H651 C638 0.962 . S
H652 C638 0.960 . S
H653 C639 0.961 . S
H654 C639 0.961 . S
H655 C639 0.961 . S
H656 C640 0.931 . S
H657 C645 0.930 . S
H658 C646 0.956 . S
H659 C646 0.961 . S
H660 C646 0.961 . S
H661 C647 0.958 . S
H662 C647 0.961 . S
H663 C647 0.960 . S
C664 C665 1.391 . S
C664 C666 1.394 . S
C664 H680 0.931 . S
C665 C664 1.391 . S
C665 C669 1.376 . S
C666 C664 1.394 . S
C666 C667 1.369 . S
C666 C670 1.531 . S
C667 C666 1.369 . S
C667 C668 1.410 . S
C667 C675 1.503 . S
C668 C667 1.410 . S
C668 C669 1.392 . S
C668 C671 1.511 . S
C669 C665 1.376 . S
C669 C668 1.392 . S
C669 H681 0.929 . S
C670 C666 1.531 . S
C670 H682 0.960 . S
C670 H683 0.962 . S
C670 H684 0.960 . S
C671 C668 1.511 . S
C671 H685 0.961 . S
C671 H686 0.961 . S
C671 H687 0.961 . S
C672 C673 1.370 . S
C672 C674 1.363 . S
C672 H688 0.931 . S
C673 C672 1.370 . S
C673 C677 1.408 . S
C674 C672 1.363 . S
C674 C675 1.370 . S
C674 C678 1.524 . S
C675 C667 1.503 . S
C675 C674 1.370 . S
C675 C676 1.403 . S
C676 C675 1.403 . S
C676 C677 1.404 . S
C676 C679 1.539 . S
C677 C673 1.408 . S
C677 C676 1.404 . S
C677 H689 0.930 . S
C678 C674 1.524 . S
C678 H690 0.956 . S
C678 H691 0.961 . S
C678 H692 0.961 . S
C679 C676 1.539 . S
C679 H693 0.958 . S
C679 H694 0.961 . S
C679 H695 0.960 . S
H680 C664 0.931 . S
H681 C669 0.929 . S
H682 C670 0.960 . S
H683 C670 0.962 . S
H684 C670 0.960 . S
H685 C671 0.961 . S
H686 C671 0.961 . S
H687 C671 0.961 . S
H688 C672 0.931 . S
H689 C677 0.930 . S
H690 C678 0.956 . S
H691 C678 0.961 . S
H692 C678 0.961 . S
H693 C679 0.958 . S
H694 C679 0.961 . S
H695 C679 0.960 . S
C696 C697 1.434 . S
C696 C698 1.394 . S
C696 H712 0.931 . S
C697 C696 1.434 . S
C697 C701 1.337 1_655 S
C698 C696 1.394 . S
C698 C699 1.369 . S
C698 C702 1.531 . S
C699 C698 1.369 . S
C699 C700 1.410 1_655 S
C699 C707 1.503 . S
C700 C699 1.410 1_455 S
C700 C701 1.392 . S
C700 C703 1.511 . S
C701 C697 1.337 1_455 S
C701 C700 1.392 . S
C701 H713 0.929 . S
C702 C698 1.531 . S
C702 H714 0.960 . S
C702 H715 0.962 . S
C702 H716 0.960 . S
C703 C700 1.511 . S
C703 H717 0.961 . S
C703 H718 0.961 . S
C703 H719 0.961 . S
C704 C705 1.370 . S
C704 C706 1.363 . S
C704 H720 0.931 . S
C705 C704 1.370 . S
C705 C709 1.408 . S
C706 C704 1.363 . S
C706 C707 1.370 . S
C706 C710 1.524 . S
C707 C699 1.503 . S
C707 C706 1.370 . S
C707 C708 1.403 . S
C708 C707 1.403 . S
C708 C709 1.404 . S
C708 C711 1.539 . S
C709 C705 1.408 . S
C709 C708 1.404 . S
C709 H721 0.930 . S
C710 C706 1.524 . S
C710 H722 0.956 . S
C710 H723 0.961 1_655 S
C710 H724 0.961 . S
C711 C708 1.539 . S
C711 H725 0.958 . S
C711 H726 0.961 1_655 S
C711 H727 0.960 1_655 S
H712 C696 0.931 . S
H713 C701 0.929 . S
H714 C702 0.960 . S
H715 C702 0.962 . S
H716 C702 0.960 . S
H717 C703 0.961 . S
H718 C703 0.961 . S
H719 C703 0.961 . S
H720 C704 0.931 . S
H721 C709 0.930 . S
H722 C710 0.956 . S
H723 C710 0.961 1_455 S
H724 C710 0.961 . S
H725 C711 0.958 . S
H726 C711 0.961 1_455 S
H727 C711 0.960 1_455 S
C728 C729 1.391 . S
C728 C730 1.394 1_554 S
C728 H744 0.931 . S
C729 C728 1.391 . S
C729 C733 1.376 1_554 S
C730 C728 1.394 1_556 S
C730 C731 1.369 . S
C730 C734 1.531 . S
C731 C730 1.369 . S
C731 C732 1.410 . S
C731 C739 1.503 . S
C732 C731 1.410 . S
C732 C733 1.392 . S
C732 C735 1.511 . S
C733 C729 1.376 1_556 S
C733 C732 1.392 . S
C733 H745 0.929 . S
C734 C730 1.531 . S
C734 H746 0.960 . S
C734 H747 0.962 1_565 S
C734 H748 0.955 1_566 S
C735 C732 1.511 . S
C735 H749 0.961 . S
C735 H750 0.961 . S
C735 H751 0.961 . S
C736 C737 1.370 . S
C736 C738 1.363 . S
C736 H752 0.931 1_565 S
C737 C736 1.370 . S
C737 C741 1.408 . S
C738 C736 1.363 . S
C738 C739 1.370 . S
C738 C742 1.524 . S
C739 C731 1.503 . S
C739 C738 1.370 . S
C739 C740 1.403 . S
C740 C739 1.403 . S
C740 C741 1.404 . S
C740 C743 1.539 . S
C741 C737 1.408 . S
C741 C740 1.404 . S
C741 H753 0.930 . S
C742 C738 1.524 . S
C742 H754 0.956 . S
C742 H755 0.961 . S
C742 H756 0.961 . S
C743 C740 1.539 . S
C743 H757 0.958 1_556 S
C743 H758 0.961 . S
C743 H759 0.960 . S
H744 C728 0.931 . S
H745 C733 0.929 . S
H746 C734 0.960 . S
H747 C734 0.962 1_545 S
H748 C734 0.955 1_544 S
H749 C735 0.961 . S
H750 C735 0.961 . S
H751 C735 0.961 . S
H752 C736 0.931 1_545 S
H753 C741 0.930 . S
H754 C742 0.956 . S
H755 C742 0.961 . S
H756 C742 0.961 . S
H757 C743 0.958 1_554 S
H758 C743 0.961 . S
H759 C743 0.960 . S
C760 C761 1.391 . S
C760 C762 1.394 1_554 S
C760 H776 0.931 . S
C761 C760 1.391 . S
C761 C765 1.376 1_554 S
C762 C760 1.394 1_556 S
C762 C763 1.369 . S
C762 C766 1.531 1_556 S
C763 C762 1.369 . S
C763 C764 1.410 . S
C763 C771 1.503 . S
C764 C763 1.410 . S
C764 C765 1.392 . S
C764 C767 1.511 . S
C765 C761 1.376 1_556 S
C765 C764 1.392 . S
C765 H777 0.929 . S
C766 C762 1.531 1_554 S
C766 H778 0.960 1_554 S
C766 H779 0.962 1_554 S
C766 H780 0.960 . S
C767 C764 1.511 . S
C767 H781 0.961 . S
C767 H782 0.961 . S
C767 H783 0.961 . S
C768 C769 1.370 . S
C768 C770 1.363 . S
C768 H784 0.931 . S
C769 C768 1.370 . S
C769 C773 1.408 . S
C770 C768 1.363 . S
C770 C771 1.370 . S
C770 C774 1.524 . S
C771 C763 1.503 . S
C771 C770 1.370 . S
C771 C772 1.403 . S
C772 C771 1.403 . S
C772 C773 1.404 . S
C772 C775 1.539 . S
C773 C769 1.408 . S
C773 C772 1.404 . S
C773 H785 0.930 . S
C774 C770 1.524 . S
C774 H786 0.956 . S
C774 H787 0.961 . S
C774 H788 0.961 . S
C775 C772 1.539 . S
C775 H789 0.958 1_556 S
C775 H790 0.961 . S
C775 H791 0.960 1_556 S
H776 C760 0.931 . S
H777 C765 0.929 . S
H778 C766 0.960 1_556 S
H779 C766 0.962 1_556 S
H780 C766 0.960 . S
H781 C767 0.961 . S
H782 C767 0.961 . S
H783 C767 0.961 . S
H784 C768 0.931 . S
H785 C773 0.930 . S
H786 C774 0.956 . S
H787 C774 0.961 . S
H788 C774 0.961 . S
H789 C775 0.958 1_554 S
H790 C775 0.961 . S
H791 C775 0.960 1_554 S
C792 C793 1.391 . S
C792 C794 1.394 1_554 S
C792 H808 0.931 . S
C793 C792 1.391 . S
C793 C797 1.376 . S
C794 C792 1.394 1_556 S
C794 C795 1.369 . S
C794 C798 1.531 . S
C795 C794 1.369 . S
C795 C796 1.410 . S
C795 C803 1.503 . S
C796 C795 1.410 . S
C796 C797 1.392 1_556 S
C796 C799 1.511 . S
C797 C793 1.376 . S
C797 C796 1.392 1_554 S
C797 H809 0.929 . S
C798 C794 1.531 . S
C798 H810 0.960 . S
C798 H811 0.962 . S
C798 H812 0.960 . S
C799 C796 1.511 . S
C799 H813 0.961 . S
C799 H814 0.961 . S
C799 H815 0.961 . S
C800 C801 1.370 . S
C800 C802 1.363 . S
C800 H816 0.931 . S
C801 C800 1.370 . S
C801 C805 1.408 . S
C802 C800 1.363 . S
C802 C803 1.370 . S
C802 C806 1.524 1_556 S
C803 C795 1.503 . S
C803 C802 1.370 . S
C803 C804 1.403 . S
C804 C803 1.403 . S
C804 C805 1.404 . S
C804 C807 1.539 . S
C805 C801 1.408 . S
C805 C804 1.404 . S
C805 H817 0.930 . S
C806 C802 1.524 1_554 S
C806 H818 0.956 . S
C806 H819 0.961 . S
C806 H820 0.961 . S
C807 C804 1.539 . S
C807 H821 0.958 . S
C807 H822 0.961 . S
C807 H823 0.960 . S
H808 C792 0.931 . S
H809 C797 0.929 . S
H810 C798 0.960 . S
H811 C798 0.962 . S
H812 C798 0.960 . S
H813 C799 0.961 . S
H814 C799 0.961 . S
H815 C799 0.961 . S
H816 C800 0.931 . S
H817 C805 0.930 . S
H818 C806 0.956 . S
H819 C806 0.961 . S
H820 C806 0.961 . S
H821 C807 0.958 . S
H822 C807 0.961 . S
H823 C807 0.960 . S
C824 C825 1.391 1_655 S
C824 C826 1.394 1_554 S
C824 H840 0.931 . S
C825 C824 1.391 1_455 S
C825 C829 1.376 . S
C826 C824 1.394 1_556 S
C826 C827 1.369 1_655 S
C826 C830 1.531 . S
C827 C826 1.369 1_455 S
C827 C828 1.410 1_556 S
C827 C835 1.503 . S
C828 C827 1.410 1_554 S
C828 C829 1.392 . S
C828 C831 1.511 . S
C829 C825 1.376 . S
C829 C828 1.392 . S
C829 H841 0.929 . S
C830 C826 1.531 . S
C830 H842 0.960 . S
C830 H843 0.962 . S
C830 H844 0.960 . S
C831 C828 1.511 . S
C831 H845 0.961 . S
C831 H846 0.961 1_554 S
C831 H847 0.961 1_554 S
C832 C833 1.370 . S
C832 C834 1.363 . S
C832 H848 0.931 1_455 S
C833 C832 1.370 . S
C833 C837 1.408 . S
C834 C832 1.363 . S
C834 C835 1.370 . S
C834 C838 1.524 1_455 S
C835 C827 1.503 . S
C835 C834 1.370 . S
C835 C836 1.403 . S
C836 C835 1.403 . S
C836 C837 1.404 . S
C836 C839 1.539 . S
C837 C833 1.408 . S
C837 C836 1.404 . S
C837 H849 0.930 . S
C838 C834 1.524 1_655 S
C838 H850 0.956 . S
C838 H851 0.961 1_556 S
C838 H852 0.961 . S
C839 C836 1.539 . S
C839 H853 0.958 . S
C839 H854 0.961 . S
C839 H855 0.960 . S
H840 C824 0.931 . S
H841 C829 0.929 . S
H842 C830 0.960 . S
H843 C830 0.962 . S
H844 C830 0.960 . S
H845 C831 0.961 . S
H846 C831 0.961 1_556 S
H847 C831 0.961 1_556 S
H848 C832 0.931 1_655 S
H849 C837 0.930 . S
H850 C838 0.956 . S
H851 C838 0.961 1_554 S
H852 C838 0.961 . S
H853 C839 0.958 . S
H854 C839 0.961 . S
H855 C839 0.960 . S
C856 C857 1.396 . S
C856 C858 1.393 1_455 S
C856 H872 0.931 . S
C857 C856 1.396 . S
C857 C861 1.362 1_455 S
C858 C856 1.393 1_655 S
C858 C859 1.370 . S
C858 C862 1.530 1_655 S
C859 C858 1.370 . S
C859 C860 1.410 . S
C859 C867 1.503 . S
C860 C859 1.410 . S
C860 C861 1.392 . S
C860 C863 1.511 . S
C861 C857 1.362 1_655 S
C861 C860 1.392 . S
C861 H873 0.929 . S
C862 C858 1.530 1_455 S
C862 H874 0.960 1_455 S
C862 H875 0.962 . S
C862 H876 0.960 . S
C863 C860 1.511 . S
C863 H877 0.961 . S
C863 H878 0.961 . S
C863 H879 0.961 . S
C864 C865 1.370 1_455 S
C864 C866 1.363 . S
C864 H880 0.931 . S
C865 C864 1.370 1_655 S
C865 C869 1.408 . S
C866 C864 1.363 . S
C866 C867 1.370 1_455 S
C866 C870 1.524 . S
C867 C859 1.503 . S
C867 C866 1.370 1_655 S
C867 C868 1.403 . S
C868 C867 1.403 . S
C868 C869 1.404 . S
C868 C871 1.539 . S
C869 C865 1.408 . S
C869 C868 1.404 . S
C869 H881 0.930 . S
C870 C866 1.524 . S
C870 H882 0.956 . S
C870 H883 0.961 . S
C870 H884 0.961 . S
C871 C868 1.539 . S
C871 H885 0.958 . S
C871 H886 0.961 . S
C871 H887 0.960 . S
H872 C856 0.931 . S
H873 C861 0.929 . S
H874 C862 0.960 1_655 S
H875 C862 0.962 . S
H876 C862 0.960 . S
H877 C863 0.961 . S
H878 C863 0.961 . S
H879 C863 0.961 . S
H880 C864 0.931 . S
H881 C869 0.930 . S
H882 C870 0.956 . S
H883 C870 0.961 . S
H884 C870 0.961 . S
H885 C871 0.958 . S
H886 C871 0.961 . S
H887 C871 0.960 . S
C888 C889 1.391 . S
C888 C890 1.394 . S
C888 H904 0.931 . S
C889 C888 1.391 . S
C889 C893 1.376 . S
C890 C888 1.394 . S
C890 C891 1.369 . S
C890 C894 1.531 . S
C891 C890 1.369 . S
C891 C892 1.410 . S
C891 C899 1.503 . S
C892 C891 1.410 . S
C892 C893 1.392 . S
C892 C895 1.511 . S
C893 C889 1.376 . S
C893 C892 1.392 . S
C893 H905 0.929 . S
C894 C890 1.531 . S
C894 H906 0.960 . S
C894 H907 0.962 . S
C894 H908 0.960 . S
C895 C892 1.511 . S
C895 H909 0.961 . S
C895 H910 0.961 . S
C895 H911 0.961 . S
C896 C897 1.370 . S
C896 C898 1.363 . S
C896 H912 0.931 . S
C897 C896 1.370 . S
C897 C901 1.408 . S
C898 C896 1.363 . S
C898 C899 1.370 . S
C898 C902 1.524 . S
C899 C891 1.503 . S
C899 C898 1.370 . S
C899 C900 1.403 . S
C900 C899 1.403 . S
C900 C901 1.404 . S
C900 C903 1.539 . S
C901 C897 1.408 . S
C901 C900 1.404 . S
C901 H913 0.930 1_545 S
C902 C898 1.524 . S
C902 H914 0.956 . S
C902 H915 0.961 . S
C902 H916 0.961 . S
C903 C900 1.539 . S
C903 H917 0.958 . S
C903 H918 0.961 1_545 S
C903 H919 0.960 . S
H904 C888 0.931 . S
H905 C893 0.929 . S
H906 C894 0.960 . S
H907 C894 0.962 . S
H908 C894 0.960 . S
H909 C895 0.961 . S
H910 C895 0.961 . S
H911 C895 0.961 . S
H912 C896 0.931 . S
H913 C901 0.930 1_565 S
H914 C902 0.956 . S
H915 C902 0.961 . S
H916 C902 0.961 . S
H917 C903 0.958 . S
H918 C903 0.961 1_565 S
H919 C903 0.960 . S
C920 C921 1.391 . S
C920 C922 1.394 . S
C920 H936 0.931 . S
C921 C920 1.391 . S
C921 C925 1.376 . S
C922 C920 1.394 . S
C922 C923 1.369 . S
C922 C926 1.531 . S
C923 C922 1.369 . S
C923 C924 1.410 . S
C923 C931 1.503 . S
C924 C923 1.410 . S
C924 C925 1.392 . S
C924 C927 1.511 . S
C925 C921 1.376 . S
C925 C924 1.392 . S
C925 H937 0.929 . S
C926 C922 1.531 . S
C926 H938 0.960 . S
C926 H939 0.962 . S
C926 H940 0.960 . S
C927 C924 1.511 . S
C927 H941 0.961 . S
C927 H942 0.961 . S
C927 H943 0.961 . S
C928 C929 1.370 . S
C928 C930 1.363 . S
C928 H944 0.931 . S
C929 C928 1.370 . S
C929 C933 1.408 . S
C930 C928 1.363 . S
C930 C931 1.370 . S
C930 C934 1.524 . S
C931 C923 1.503 . S
C931 C930 1.370 . S
C931 C932 1.403 . S
C932 C931 1.403 . S
C932 C933 1.404 . S
C932 C935 1.539 . S
C933 C929 1.408 . S
C933 C932 1.404 . S
C933 H945 0.930 . S
C934 C930 1.524 . S
C934 H946 0.956 . S
C934 H947 0.961 . S
C934 H948 0.961 . S
C935 C932 1.539 . S
C935 H949 0.958 . S
C935 H950 0.961 . S
C935 H951 0.960 . S
H936 C920 0.931 . S
H937 C925 0.929 . S
H938 C926 0.960 . S
H939 C926 0.962 . S
H940 C926 0.960 . S
H941 C927 0.961 . S
H942 C927 0.961 . S
H943 C927 0.961 . S
H944 C928 0.931 . S
H945 C933 0.930 . S
H946 C934 0.956 . S
H947 C934 0.961 . S
H948 C934 0.961 . S
H949 C935 0.958 . S
H950 C935 0.961 . S
H951 C935 0.960 . S
C952 C953 1.391 . S
C952 C954 1.394 . S
C952 H968 0.931 . S
C953 C952 1.391 . S
C953 C957 1.376 . S
C954 C952 1.394 . S
C954 C955 1.369 . S
C954 C958 1.531 . S
C955 C954 1.369 . S
C955 C956 1.410 . S
C955 C963 1.503 . S
C956 C955 1.410 . S
C956 C957 1.392 . S
C956 C959 1.511 . S
C957 C953 1.376 . S
C957 C956 1.392 . S
C957 H969 0.929 . S
C958 C954 1.531 . S
C958 H970 0.960 . S
C958 H971 0.962 . S
C958 H972 0.960 . S
C959 C956 1.511 . S
C959 H973 0.961 . S
C959 H974 0.961 . S
C959 H975 0.961 . S
C960 C961 1.370 . S
C960 C962 1.363 . S
C960 H976 0.931 . S
C961 C960 1.370 . S
C961 C965 1.408 . S
C962 C960 1.363 . S
C962 C963 1.370 . S
C962 C966 1.524 . S
C963 C955 1.503 . S
C963 C962 1.370 . S
C963 C964 1.403 . S
C964 C963 1.403 . S
C964 C965 1.404 . S
C964 C967 1.539 . S
C965 C961 1.408 . S
C965 C964 1.404 . S
C965 H977 0.930 . S
C966 C962 1.524 . S
C966 H978 0.956 . S
C966 H979 0.961 . S
C966 H980 0.961 . S
C967 C964 1.539 . S
C967 H981 0.958 . S
C967 H982 0.961 . S
C967 H983 0.960 . S
H968 C952 0.931 . S
H969 C957 0.929 . S
H970 C958 0.960 . S
H971 C958 0.962 . S
H972 C958 0.960 . S
H973 C959 0.961 . S
H974 C959 0.961 . S
H975 C959 0.961 . S
H976 C960 0.931 . S
H977 C965 0.930 . S
H978 C966 0.956 . S
H979 C966 0.961 . S
H980 C966 0.961 . S
H981 C967 0.958 . S
H982 C967 0.961 . S
H983 C967 0.960 . S
C984 C985 1.391 1_455 S
C984 C986 1.394 . S
C984 H1000 0.931 . S
C985 C984 1.391 1_655 S
C985 C989 1.376 . S
C986 C984 1.394 . S
C986 C987 1.369 . S
C986 C990 1.531 . S
C987 C986 1.369 . S
C987 C988 1.410 1_455 S
C987 C995 1.503 . S
C988 C987 1.410 1_655 S
C988 C989 1.392 . S
C988 C991 1.511 . S
C989 C985 1.376 . S
C989 C988 1.392 . S
C989 H1001 0.929 . S
C990 C986 1.531 . S
C990 H1002 0.960 . S
C990 H1003 0.962 . S
C990 H1004 0.960 . S
C991 C988 1.511 . S
C991 H1005 0.961 . S
C991 H1006 0.961 . S
C991 H1007 0.961 . S
C992 C993 1.370 . S
C992 C994 1.363 . S
C992 H1008 0.931 . S
C993 C992 1.370 . S
C993 C997 1.408 . S
C994 C992 1.363 . S
C994 C995 1.370 . S
C994 C998 1.524 . S
C995 C987 1.503 . S
C995 C994 1.370 . S
C995 C996 1.403 . S
C996 C995 1.403 . S
C996 C997 1.404 . S
C996 C999 1.539 1_455 S
C997 C993 1.408 . S
C997 C996 1.404 . S
C997 H1009 0.930 . S
C998 C994 1.524 . S
C998 H1010 0.956 . S
C998 H1011 0.961 . S
C998 H1012 0.961 . S
C999 C996 1.539 1_655 S
C999 H1013 0.958 1_655 S
C999 H1014 0.961 . S
C999 H1015 0.960 . S
H1000 C984 0.931 . S
H1001 C989 0.929 . S
H1002 C990 0.960 . S
H1003 C990 0.962 . S
H1004 C990 0.960 . S
H1005 C991 0.961 . S
H1006 C991 0.961 . S
H1007 C991 0.961 . S
H1008 C992 0.931 . S
H1009 C997 0.930 . S
H1010 C998 0.956 . S
H1011 C998 0.961 . S
H1012 C998 0.961 . S
H1013 C999 0.958 1_455 S
H1014 C999 0.961 . S
H1015 C999 0.960 . S
C1016 C1017 1.391 . S
C1016 C1018 1.394 . S
C1016 H1032 0.931 . S
C1017 C1016 1.391 . S
C1017 C1021 1.376 . S
C1018 C1016 1.394 . S
C1018 C1019 1.369 . S
C1018 C1022 1.531 . S
C1019 C1018 1.369 . S
C1019 C1020 1.410 . S
C1019 C1027 1.503 . S
C1020 C1019 1.410 . S
C1020 C1021 1.392 . S
C1020 C1023 1.511 . S
C1021 C1017 1.376 . S
C1021 C1020 1.392 . S
C1021 H1033 0.929 . S
C1022 C1018 1.531 . S
C1022 H1034 0.960 . S
C1022 H1035 0.962 . S
C1022 H1036 0.960 . S
C1023 C1020 1.511 . S
C1023 H1037 0.961 . S
C1023 H1038 0.967 . S
C1023 H1039 0.961 1_565 S
C1024 C1025 1.370 1_565 S
C1024 C1026 1.363 . S
C1024 H1040 0.931 . S
C1025 C1024 1.370 1_545 S
C1025 C1029 1.408 . S
C1026 C1024 1.363 . S
C1026 C1027 1.370 . S
C1026 C1030 1.524 . S
C1027 C1019 1.503 . S
C1027 C1026 1.370 . S
C1027 C1028 1.403 . S
C1028 C1027 1.403 . S
C1028 C1029 1.404 1_565 S
C1028 C1031 1.539 . S
C1029 C1025 1.408 . S
C1029 C1028 1.404 1_545 S
C1029 H1041 0.930 . S
C1030 C1026 1.524 . S
C1030 H1042 0.956 . S
C1030 H1043 0.961 . S
C1030 H1044 0.961 . S
C1031 C1028 1.539 . S
C1031 H1045 0.958 1_556 S
C1031 H1046 0.961 1_565 S
C1031 H1047 0.960 . S
H1032 C1016 0.931 . S
H1033 C1021 0.929 . S
H1034 C1022 0.960 . S
H1035 C1022 0.962 . S
H1036 C1022 0.960 . S
H1037 C1023 0.961 . S
H1038 C1023 0.967 . S
H1039 C1023 0.961 1_545 S
H1040 C1024 0.931 . S
H1041 C1029 0.930 . S
H1042 C1030 0.956 . S
H1043 C1030 0.961 . S
H1044 C1030 0.961 . S
H1045 C1031 0.958 1_554 S
H1046 C1031 0.961 1_545 S
H1047 C1031 0.960 . S
C1048 C1049 1.391 . S
C1048 C1050 1.394 . S
C1048 H1064 0.931 . S
C1049 C1048 1.391 . S
C1049 C1053 1.376 . S
C1050 C1048 1.394 . S
C1050 C1051 1.369 . S
C1050 C1054 1.531 . S
C1051 C1050 1.369 . S
C1051 C1052 1.410 . S
C1051 C1059 1.503 . S
C1052 C1051 1.410 . S
C1052 C1053 1.392 . S
C1052 C1055 1.511 . S
C1053 C1049 1.376 . S
C1053 C1052 1.392 . S
C1053 H1065 0.929 . S
C1054 C1050 1.531 . S
C1054 H1066 0.960 . S
C1054 H1067 0.962 . S
C1054 H1068 0.960 . S
C1055 C1052 1.511 . S
C1055 H1069 0.961 . S
C1055 H1070 0.961 . S
C1055 H1071 0.961 . S
C1056 C1057 1.370 . S
C1056 C1058 1.363 . S
C1056 H1072 0.931 . S
C1057 C1056 1.370 . S
C1057 C1061 1.408 . S
C1058 C1056 1.363 . S
C1058 C1059 1.370 . S
C1058 C1062 1.524 . S
C1059 C1051 1.503 . S
C1059 C1058 1.370 . S
C1059 C1060 1.403 . S
C1060 C1059 1.403 . S
C1060 C1061 1.404 . S
C1060 C1063 1.539 . S
C1061 C1057 1.408 . S
C1061 C1060 1.404 . S
C1061 H1073 0.930 . S
C1062 C1058 1.524 . S
C1062 H1074 0.956 . S
C1062 H1075 0.961 . S
C1062 H1076 0.961 1_556 S
C1063 C1060 1.539 . S
C1063 H1077 0.958 . S
C1063 H1078 0.961 . S
C1063 H1079 0.960 . S
H1064 C1048 0.931 . S
H1065 C1053 0.929 . S
H1066 C1054 0.960 . S
H1067 C1054 0.962 . S
H1068 C1054 0.960 . S
H1069 C1055 0.961 . S
H1070 C1055 0.961 . S
H1071 C1055 0.961 . S
H1072 C1056 0.931 . S
H1073 C1061 0.930 . S
H1074 C1062 0.956 . S
H1075 C1062 0.961 . S
H1076 C1062 0.961 1_554 S
H1077 C1063 0.958 . S
H1078 C1063 0.961 . S
H1079 C1063 0.960 . S
C1080 C1081 1.391 . S
C1080 C1082 1.394 . S
C1080 H1096 0.931 . S
C1081 C1080 1.391 . S
C1081 C1085 1.376 . S
C1082 C1080 1.394 . S
C1082 C1083 1.369 . S
C1082 C1086 1.531 . S
C1083 C1082 1.369 . S
C1083 C1084 1.410 . S
C1083 C1091 1.503 . S
C1084 C1083 1.410 . S
C1084 C1085 1.392 . S
C1084 C1087 1.511 . S
C1085 C1081 1.376 . S
C1085 C1084 1.392 . S
C1085 H1097 0.929 . S
C1086 C1082 1.531 . S
C1086 H1098 0.960 . S
C1086 H1099 0.962 . S
C1086 H1100 0.960 . S
C1087 C1084 1.511 . S
C1087 H1101 0.961 1_556 S
C1087 H1102 0.961 . S
C1087 H1103 0.961 . S
C1088 C1089 1.370 . S
C1088 C1090 1.363 . S
C1088 H1104 0.931 . S
C1089 C1088 1.370 . S
C1089 C1093 1.408 . S
C1090 C1088 1.363 . S
C1090 C1091 1.370 . S
C1090 C1094 1.524 . S
C1091 C1083 1.503 . S
C1091 C1090 1.370 . S
C1091 C1092 1.403 . S
C1092 C1091 1.403 . S
C1092 C1093 1.404 . S
C1092 C1095 1.539 . S
C1093 C1089 1.408 . S
C1093 C1092 1.404 . S
C1093 H1105 0.930 . S
C1094 C1090 1.524 . S
C1094 H1106 0.956 . S
C1094 H1107 0.961 . S
C1094 H1108 0.961 . S
C1095 C1092 1.539 . S
C1095 H1109 0.958 . S
C1095 H1110 0.961 . S
C1095 H1111 0.960 . S
H1096 C1080 0.931 . S
H1097 C1085 0.929 . S
H1098 C1086 0.960 . S
H1099 C1086 0.962 . S
H1100 C1086 0.960 . S
H1101 C1087 0.961 1_554 S
H1102 C1087 0.961 . S
H1103 C1087 0.961 . S
H1104 C1088 0.931 . S
H1105 C1093 0.930 . S
H1106 C1094 0.956 . S
H1107 C1094 0.961 . S
H1108 C1094 0.961 . S
H1109 C1095 0.958 . S
H1110 C1095 0.961 . S
H1111 C1095 0.960 . S
C1112 C1113 1.391 1_655 S
C1112 C1114 1.394 1_655 S
C1112 H1128 0.931 . S
C1113 C1112 1.391 1_455 S
C1113 C1117 1.376 . S
C1114 C1112 1.394 1_455 S
C1114 C1115 1.368 . S
C1114 C1118 1.531 1_454 S
C1115 C1114 1.368 . S
C1115 C1116 1.410 . S
C1115 C1123 1.503 . S
C1116 C1115 1.410 . S
C1116 C1117 1.392 . S
C1116 C1119 1.511 . S
C1117 C1113 1.376 . S
C1117 C1116 1.392 . S
C1117 H1129 0.929 . S
C1118 C1114 1.531 1_656 S
C1118 H1130 0.960 1_655 S
C1118 H1131 0.962 . S
C1118 H1132 0.960 . S
C1119 C1116 1.511 . S
C1119 H1133 0.961 . S
C1119 H1134 0.961 . S
C1119 H1135 0.961 . S
C1120 C1121 1.370 1_654 S
C1120 C1122 1.363 . S
C1120 H1136 0.931 . S
C1121 C1120 1.370 1_456 S
C1121 C1125 1.408 . S
C1122 C1120 1.363 . S
C1122 C1123 1.370 1_655 S
C1122 C1126 1.524 . S
C1123 C1115 1.503 . S
C1123 C1122 1.370 1_455 S
C1123 C1124 1.403 . S
C1124 C1123 1.403 . S
C1124 C1125 1.404 1_554 S
C1124 C1127 1.539 . S
C1125 C1121 1.408 . S
C1125 C1124 1.404 1_556 S
C1125 H1137 0.930 . S
C1126 C1122 1.524 . S
C1126 H1138 0.956 . S
C1126 H1139 0.961 . S
C1126 H1140 0.961 . S
C1127 C1124 1.539 . S
C1127 H1141 0.943 1_554 S
C1127 H1142 0.959 1_554 S
C1127 H1143 0.978 . S
H1128 C1112 0.931 . S
H1129 C1117 0.929 . S
H1130 C1118 0.960 1_455 S
H1131 C1118 0.962 . S
H1132 C1118 0.960 . S
H1133 C1119 0.961 . S
H1134 C1119 0.961 . S
H1135 C1119 0.961 . S
H1136 C1120 0.931 . S
H1137 C1125 0.930 . S
H1138 C1126 0.956 . S
H1139 C1126 0.961 . S
H1140 C1126 0.961 . S
H1141 C1127 0.943 1_556 S
H1142 C1127 0.959 1_556 S
H1143 C1127 0.978 . S
C1144 C1145 1.391 . S
C1144 C1146 1.394 . S
C1144 H1160 0.931 . S
C1145 C1144 1.391 . S
C1145 C1149 1.376 . S
C1146 C1144 1.394 . S
C1146 C1147 1.369 . S
C1146 C1150 1.531 1_554 S
C1147 C1146 1.369 . S
C1147 C1148 1.410 . S
C1147 C1155 1.503 . S
C1148 C1147 1.410 . S
C1148 C1149 1.392 . S
C1148 C1151 1.511 . S
C1149 C1145 1.376 . S
C1149 C1148 1.392 . S
C1149 H1161 0.929 . S
C1150 C1146 1.531 1_556 S
C1150 H1162 0.960 . S
C1150 H1163 0.962 . S
C1150 H1164 0.960 . S
C1151 C1148 1.511 . S
C1151 H1165 0.961 . S
C1151 H1166 0.961 . S
C1151 H1167 0.961 . S
C1152 C1153 1.370 1_554 S
C1152 C1154 1.363 . S
C1152 H1168 0.931 . S
C1153 C1152 1.370 1_556 S
C1153 C1157 1.408 1_556 S
C1154 C1152 1.363 . S
C1154 C1155 1.370 . S
C1154 C1158 1.524 . S
C1155 C1147 1.503 . S
C1155 C1154 1.370 . S
C1155 C1156 1.403 . S
C1156 C1155 1.403 . S
C1156 C1157 1.404 . S
C1156 C1159 1.539 . S
C1157 C1153 1.408 1_554 S
C1157 C1156 1.404 . S
C1157 H1169 0.930 1_554 S
C1158 C1154 1.524 . S
C1158 H1170 0.956 . S
C1158 H1171 0.961 . S
C1158 H1172 0.961 . S
C1159 C1156 1.539 . S
C1159 H1173 0.958 . S
C1159 H1174 0.961 . S
C1159 H1175 0.960 . S
H1160 C1144 0.931 . S
H1161 C1149 0.929 . S
H1162 C1150 0.960 . S
H1163 C1150 0.962 . S
H1164 C1150 0.960 . S
H1165 C1151 0.961 . S
H1166 C1151 0.961 . S
H1167 C1151 0.961 . S
H1168 C1152 0.931 . S
H1169 C1157 0.930 1_556 S
H1170 C1158 0.956 . S
H1171 C1158 0.961 . S
H1172 C1158 0.961 . S
H1173 C1159 0.958 . S
H1174 C1159 0.961 . S
H1175 C1159 0.960 . S
C1176 C1177 1.391 . S
C1176 C1178 1.394 . S
C1176 H1192 0.931 . S
C1177 C1176 1.391 . S
C1177 C1181 1.376 . S
C1178 C1176 1.394 . S
C1178 C1179 1.369 . S
C1178 C1182 1.531 1_554 S
C1179 C1178 1.369 . S
C1179 C1180 1.410 . S
C1179 C1187 1.503 1_554 S
C1180 C1179 1.410 . S
C1180 C1181 1.392 . S
C1180 C1183 1.511 . S
C1181 C1177 1.376 . S
C1181 C1180 1.392 . S
C1181 H1193 0.929 . S
C1182 C1178 1.531 1_556 S
C1182 H1194 0.960 . S
C1182 H1195 0.962 1_556 S
C1182 H1196 0.960 . S
C1183 C1180 1.511 . S
C1183 H1197 0.961 . S
C1183 H1198 0.961 . S
C1183 H1199 0.961 . S
C1184 C1185 1.370 . S
C1184 C1186 1.363 1_556 S
C1184 H1200 0.931 . S
C1185 C1184 1.370 . S
C1185 C1189 1.408 . S
C1186 C1184 1.363 1_554 S
C1186 C1187 1.370 1_554 S
C1186 C1190 1.524 . S
C1187 C1179 1.503 1_556 S
C1187 C1186 1.370 1_556 S
C1187 C1188 1.403 . S
C1188 C1187 1.403 . S
C1188 C1189 1.404 . S
C1188 C1191 1.539 . S
C1189 C1185 1.408 . S
C1189 C1188 1.404 . S
C1189 H1201 0.930 . S
C1190 C1186 1.524 . S
C1190 H1202 0.956 . S
C1190 H1203 0.961 . S
C1190 H1204 0.961 . S
C1191 C1188 1.539 . S
C1191 H1205 0.958 . S
C1191 H1206 0.961 . S
C1191 H1207 0.960 . S
H1192 C1176 0.931 . S
H1193 C1181 0.929 . S
H1194 C1182 0.960 . S
H1195 C1182 0.962 1_554 S
H1196 C1182 0.960 . S
H1197 C1183 0.961 . S
H1198 C1183 0.961 . S
H1199 C1183 0.961 . S
H1200 C1184 0.931 . S
H1201 C1189 0.930 . S
H1202 C1190 0.956 . S
H1203 C1190 0.961 . S
H1204 C1190 0.961 . S
H1205 C1191 0.958 . S
H1206 C1191 0.961 . S
H1207 C1191 0.960 . S
C1208 C1209 1.391 . S
C1208 C1210 1.394 . S
C1208 H1224 0.931 . S
C1209 C1208 1.391 . S
C1209 C1213 1.376 . S
C1210 C1208 1.394 . S
C1210 C1211 1.369 . S
C1210 C1214 1.531 1_554 S
C1211 C1210 1.369 . S
C1211 C1212 1.410 . S
C1211 C1219 1.503 1_554 S
C1212 C1211 1.410 . S
C1212 C1213 1.392 . S
C1212 C1215 1.511 . S
C1213 C1209 1.376 . S
C1213 C1212 1.392 . S
C1213 H1225 0.929 . S
C1214 C1210 1.531 1_556 S
C1214 H1226 0.960 . S
C1214 H1227 0.962 . S
C1214 H1228 0.960 . S
C1215 C1212 1.511 . S
C1215 H1229 0.961 . S
C1215 H1230 0.961 . S
C1215 H1231 0.961 . S
C1216 C1217 1.370 . S
C1216 C1218 1.363 . S
C1216 H1232 0.931 . S
C1217 C1216 1.370 . S
C1217 C1221 1.408 . S
C1218 C1216 1.363 . S
C1218 C1219 1.370 . S
C1218 C1222 1.524 . S
C1219 C1211 1.503 1_556 S
C1219 C1218 1.370 . S
C1219 C1220 1.403 . S
C1220 C1219 1.403 . S
C1220 C1221 1.404 . S
C1220 C1223 1.539 1_556 S
C1221 C1217 1.408 . S
C1221 C1220 1.404 . S
C1221 H1233 0.930 . S
C1222 C1218 1.524 . S
C1222 H1234 0.956 . S
C1222 H1235 0.961 1_556 S
C1222 H1236 0.961 . S
C1223 C1220 1.539 1_554 S
C1223 H1237 0.958 1_554 S
C1223 H1238 0.961 . S
C1223 H1239 0.960 . S
H1224 C1208 0.931 . S
H1225 C1213 0.929 . S
H1226 C1214 0.960 . S
H1227 C1214 0.962 . S
H1228 C1214 0.960 . S
H1229 C1215 0.961 . S
H1230 C1215 0.961 . S
H1231 C1215 0.961 . S
H1232 C1216 0.931 . S
H1233 C1221 0.930 . S
H1234 C1222 0.956 . S
H1235 C1222 0.961 1_554 S
H1236 C1222 0.961 . S
H1237 C1223 0.958 1_556 S
H1238 C1223 0.961 . S
H1239 C1223 0.960 . S
C1240 C1241 1.391 1_455 S
C1240 C1242 1.394 . S
C1240 H1256 0.931 . S
C1241 C1240 1.391 1_655 S
C1241 C1245 1.376 . S
C1242 C1240 1.394 . S
C1242 C1243 1.369 1_455 S
C1242 C1246 1.531 . S
C1243 C1242 1.369 1_655 S
C1243 C1244 1.410 . S
C1243 C1251 1.503 . S
C1244 C1243 1.410 . S
C1244 C1245 1.392 . S
C1244 C1247 1.511 . S
C1245 C1241 1.376 . S
C1245 C1244 1.392 . S
C1245 H1257 0.929 . S
C1246 C1242 1.531 . S
C1246 H1258 0.960 . S
C1246 H1259 0.962 . S
C1246 H1260 0.960 . S
C1247 C1244 1.511 . S
C1247 H1261 0.961 . S
C1247 H1262 0.961 . S
C1247 H1263 0.961 . S
C1248 C1249 1.370 1_455 S
C1248 C1250 1.363 . S
C1248 H1264 0.931 . S
C1249 C1248 1.370 1_655 S
C1249 C1253 1.408 . S
C1250 C1248 1.363 . S
C1250 C1251 1.370 1_455 S
C1250 C1254 1.524 . S
C1251 C1243 1.503 . S
C1251 C1250 1.370 1_655 S
C1251 C1252 1.403 . S
C1252 C1251 1.403 . S
C1252 C1253 1.404 . S
C1252 C1255 1.539 . S
C1253 C1249 1.408 . S
C1253 C1252 1.404 . S
C1253 H1265 0.930 . S
C1254 C1250 1.524 . S
C1254 H1266 0.956 . S
C1254 H1267 0.961 . S
C1254 H1268 0.961 . S
C1255 C1252 1.539 . S
C1255 H1269 0.958 . S
C1255 H1270 0.961 . S
C1255 H1271 0.960 . S
H1256 C1240 0.931 . S
H1257 C1245 0.929 . S
H1258 C1246 0.960 . S
H1259 C1246 0.962 . S
H1260 C1246 0.960 . S
H1261 C1247 0.961 . S
H1262 C1247 0.961 . S
H1263 C1247 0.961 . S
H1264 C1248 0.931 . S
H1265 C1253 0.930 . S
H1266 C1254 0.956 . S
H1267 C1254 0.961 . S
H1268 C1254 0.961 . S
H1269 C1255 0.958 . S
H1270 C1255 0.961 . S
H1271 C1255 0.960 . S
C1272 C1273 1.391 . S
C1272 C1274 1.394 . S
C1272 H1288 0.931 . S
C1273 C1272 1.391 . S
C1273 C1277 1.376 . S
C1274 C1272 1.394 . S
C1274 C1275 1.369 . S
C1274 C1278 1.531 . S
C1275 C1274 1.369 . S
C1275 C1276 1.410 . S
C1275 C1283 1.503 . S
C1276 C1275 1.410 . S
C1276 C1277 1.392 . S
C1276 C1279 1.511 . S
C1277 C1273 1.376 . S
C1277 C1276 1.392 . S
C1277 H1289 0.929 . S
C1278 C1274 1.531 . S
C1278 H1290 0.960 . S
C1278 H1291 0.962 . S
C1278 H1292 0.960 . S
C1279 C1276 1.511 . S
C1279 H1293 0.961 . S
C1279 H1294 0.961 . S
C1279 H1295 0.961 . S
C1280 C1281 1.370 . S
C1280 C1282 1.363 . S
C1280 H1296 0.931 . S
C1281 C1280 1.370 . S
C1281 C1285 1.408 . S
C1282 C1280 1.363 . S
C1282 C1283 1.370 . S
C1282 C1286 1.524 . S
C1283 C1275 1.503 . S
C1283 C1282 1.370 . S
C1283 C1284 1.403 . S
C1284 C1283 1.403 . S
C1284 C1285 1.404 . S
C1284 C1287 1.527 1_565 S
C1285 C1281 1.408 . S
C1285 C1284 1.404 . S
C1285 H1297 0.930 1_565 S
C1286 C1282 1.524 . S
C1286 H1298 0.956 . S
C1286 H1299 0.961 . S
C1286 H1300 0.961 . S
C1287 C1284 1.527 1_545 S
C1287 H1301 0.973 . S
C1287 H1302 0.970 . S
C1287 H1303 0.949 1_545 S
H1288 C1272 0.931 . S
H1289 C1277 0.929 . S
H1290 C1278 0.960 . S
H1291 C1278 0.962 . S
H1292 C1278 0.960 . S
H1293 C1279 0.961 . S
H1294 C1279 0.961 . S
H1295 C1279 0.961 . S
H1296 C1280 0.931 . S
H1297 C1285 0.930 1_545 S
H1298 C1286 0.956 . S
H1299 C1286 0.961 . S
H1300 C1286 0.961 . S
H1301 C1287 0.973 . S
H1302 C1287 0.970 . S
H1303 C1287 0.949 1_565 S
C1304 C1305 1.391 . S
C1304 C1306 1.394 . S
C1304 H1320 0.931 . S
C1305 C1304 1.391 . S
C1305 C1309 1.376 . S
C1306 C1304 1.394 . S
C1306 C1307 1.369 . S
C1306 C1310 1.531 . S
C1307 C1306 1.369 . S
C1307 C1308 1.410 . S
C1307 C1315 1.503 . S
C1308 C1307 1.410 . S
C1308 C1309 1.392 . S
C1308 C1311 1.511 . S
C1309 C1305 1.376 . S
C1309 C1308 1.392 . S
C1309 H1321 0.929 . S
C1310 C1306 1.531 . S
C1310 H1322 0.960 . S
C1310 H1323 0.962 . S
C1310 H1324 0.960 . S
C1311 C1308 1.511 . S
C1311 H1325 0.961 . S
C1311 H1326 0.961 . S
C1311 H1327 0.961 . S
C1312 C1313 1.370 . S
C1312 C1314 1.363 . S
C1312 H1328 0.931 . S
C1313 C1312 1.370 . S
C1313 C1317 1.408 . S
C1314 C1312 1.363 . S
C1314 C1315 1.370 . S
C1314 C1318 1.524 . S
C1315 C1307 1.503 . S
C1315 C1314 1.370 . S
C1315 C1316 1.403 . S
C1316 C1315 1.403 . S
C1316 C1317 1.404 . S
C1316 C1319 1.539 . S
C1317 C1313 1.408 . S
C1317 C1316 1.404 . S
C1317 H1329 0.930 . S
C1318 C1314 1.524 . S
C1318 H1330 0.956 . S
C1318 H1331 0.961 . S
C1318 H1332 0.961 . S
C1319 C1316 1.539 . S
C1319 H1333 0.958 . S
C1319 H1334 0.961 . S
C1319 H1335 0.960 . S
H1320 C1304 0.931 . S
H1321 C1309 0.929 . S
H1322 C1310 0.960 . S
H1323 C1310 0.962 . S
H1324 C1310 0.960 . S
H1325 C1311 0.961 . S
H1326 C1311 0.961 . S
H1327 C1311 0.961 . S
H1328 C1312 0.931 . S
H1329 C1317 0.930 . S
H1330 C1318 0.956 . S
H1331 C1318 0.961 . S
H1332 C1318 0.961 . S
H1333 C1319 0.958 . S
H1334 C1319 0.961 . S
H1335 C1319 0.960 . S
C1336 C1337 1.391 . S
C1336 C1338 1.394 . S
C1336 H1352 0.931 . S
C1337 C1336 1.391 . S
C1337 C1341 1.376 . S
C1338 C1336 1.394 . S
C1338 C1339 1.369 . S
C1338 C1342 1.531 . S
C1339 C1338 1.369 . S
C1339 C1340 1.410 . S
C1339 C1347 1.503 . S
C1340 C1339 1.410 . S
C1340 C1341 1.392 . S
C1340 C1343 1.511 . S
C1341 C1337 1.376 . S
C1341 C1340 1.392 . S
C1341 H1353 0.929 . S
C1342 C1338 1.531 . S
C1342 H1354 0.960 . S
C1342 H1355 0.962 . S
C1342 H1356 0.960 . S
C1343 C1340 1.511 . S
C1343 H1357 0.961 . S
C1343 H1358 0.961 . S
C1343 H1359 0.961 . S
C1344 C1345 1.370 . S
C1344 C1346 1.363 . S
C1344 H1360 0.931 . S
C1345 C1344 1.370 . S
C1345 C1349 1.408 . S
C1346 C1344 1.363 . S
C1346 C1347 1.370 . S
C1346 C1350 1.524 . S
C1347 C1339 1.503 . S
C1347 C1346 1.370 . S
C1347 C1348 1.403 . S
C1348 C1347 1.403 . S
C1348 C1349 1.404 . S
C1348 C1351 1.539 . S
C1349 C1345 1.408 . S
C1349 C1348 1.404 . S
C1349 H1361 0.930 . S
C1350 C1346 1.524 . S
C1350 H1362 0.956 . S
C1350 H1363 0.961 . S
C1350 H1364 0.961 . S
C1351 C1348 1.539 . S
C1351 H1365 0.958 . S
C1351 H1366 0.961 . S
C1351 H1367 0.960 . S
H1352 C1336 0.931 . S
H1353 C1341 0.929 . S
H1354 C1342 0.960 . S
H1355 C1342 0.962 . S
H1356 C1342 0.960 . S
H1357 C1343 0.961 . S
H1358 C1343 0.961 . S
H1359 C1343 0.961 . S
H1360 C1344 0.931 . S
H1361 C1349 0.930 . S
H1362 C1350 0.956 . S
H1363 C1350 0.961 . S
H1364 C1350 0.961 . S
H1365 C1351 0.958 . S
H1366 C1351 0.961 . S
H1367 C1351 0.960 . S
C601 C391 1.885 . S
C609 C490 1.861 . S
C641 C520 1.743 . S
C633 C451 1.741 . S
C673 N554 1.757 . S
C665 C241 1.636 . S
C705 N584 1.371 . S
C697 C331 1.255 . S
C737 C481 1.857 1_565 S
C729 C121 1.824 . S
C761 C211 1.748 . S
C769 C511 1.739 . S
C793 C31 1.743 . S
C801 N546 1.767 . S
C825 C91 1.274 1_455 S
C833 N576 1.364 . S
C865 C496 0.500 . S
C857 C301 0.801 1_455 S
C897 C526 0.675 . S
C889 C380 0.600 . S
C929 C567 0.557 . S
C921 C440 0.536 . S
C953 C260 0.569 . S
C961 C597 0.642 . S
C985 C61 0.833 . S
C993 C507 0.434 . S
C1025 C537 0.678 . S
C1017 C140 0.580 . S
C1057 C556 0.517 . S
C1049 C200 0.552 . S
C1081 C20 0.775 . S
C1089 C586 0.582 . S
C1113 C320 1.716 1_455 S
C1121 N486 1.708 . S
C1145 C361 1.660 . S
C1153 N516 1.855 . S
C1185 C541 1.892 . S
C1177 C421 1.711 . S
C1217 C571 2.151 . S
C1209 C271 2.064 . S
C1241 C80 1.666 . S
C1249 N494 1.708 . S
C1281 N524 1.842 . S
C1273 C151 1.844 . S
C1313 C550 1.891 . S
C1305 C181 1.748 . S
C1337 C1 1.854 . S
C1345 C580 2.157 . S
