# Generated by pormake.
# Topology pyr, (3,6)-cn, num edge types: 1
# Building blocks:
#     Node 0, Type 0, BuildingBlock: BELTOD_clean_linker_0, # of connection points: 3
#     Node 1, Type 0, BuildingBlock: BELTOD_clean_linker_0, # of connection points: 3
#     Node 2, Type 0, BuildingBlock: BELTOD_clean_linker_0, # of connection points: 3
#     Node 3, Type 0, BuildingBlock: BELTOD_clean_linker_0, # of connection points: 3
#     Node 4, Type 0, BuildingBlock: BELTOD_clean_linker_0, # of connection points: 3
#     Node 5, Type 0, BuildingBlock: BELTOD_clean_linker_0, # of connection points: 3
#     Node 6, Type 0, BuildingBlock: BELTOD_clean_linker_0, # of connection points: 3
#     Node 7, Type 0, BuildingBlock: BELTOD_clean_linker_0, # of connection points: 3
#     Node 8, Type 1, BuildingBlock: LEVNOQ01_clean_sbu_1, # of connection points: 6
#     Node 9, Type 1, BuildingBlock: LEVNOQ01_clean_sbu_1, # of connection points: 6
#     Node 10, Type 1, BuildingBlock: LEVNOQ01_clean_sbu_1, # of connection points: 6
#     Node 11, Type 1, BuildingBlock: LEVNOQ01_clean_sbu_1, # of connection points: 6
#     Edge 12, Type (0, 1), BuildingBlock: KIFKEQ_clean_linker_1, # of connection points: 2
#     Edge 13, Type (0, 1), BuildingBlock: KIFKEQ_clean_linker_1, # of connection points: 2
#     Edge 14, Type (0, 1), BuildingBlock: KIFKEQ_clean_linker_1, # of connection points: 2
#     Edge 15, Type (0, 1), BuildingBlock: KIFKEQ_clean_linker_1, # of connection points: 2
#     Edge 16, Type (0, 1), BuildingBlock: KIFKEQ_clean_linker_1, # of connection points: 2
#     Edge 17, Type (0, 1), BuildingBlock: KIFKEQ_clean_linker_1, # of connection points: 2
#     Edge 18, Type (0, 1), BuildingBlock: KIFKEQ_clean_linker_1, # of connection points: 2
#     Edge 19, Type (0, 1), BuildingBlock: KIFKEQ_clean_linker_1, # of connection points: 2
#     Edge 20, Type (0, 1), BuildingBlock: KIFKEQ_clean_linker_1, # of connection points: 2
#     Edge 21, Type (0, 1), BuildingBlock: KIFKEQ_clean_linker_1, # of connection points: 2
#     Edge 22, Type (0, 1), BuildingBlock: KIFKEQ_clean_linker_1, # of connection points: 2
#     Edge 23, Type (0, 1), BuildingBlock: KIFKEQ_clean_linker_1, # of connection points: 2
#     Edge 24, Type (0, 1), BuildingBlock: KIFKEQ_clean_linker_1, # of connection points: 2
#     Edge 25, Type (0, 1), BuildingBlock: KIFKEQ_clean_linker_1, # of connection points: 2
#     Edge 26, Type (0, 1), BuildingBlock: KIFKEQ_clean_linker_1, # of connection points: 2
#     Edge 27, Type (0, 1), BuildingBlock: KIFKEQ_clean_linker_1, # of connection points: 2
#     Edge 28, Type (0, 1), BuildingBlock: KIFKEQ_clean_linker_1, # of connection points: 2
#     Edge 29, Type (0, 1), BuildingBlock: KIFKEQ_clean_linker_1, # of connection points: 2
#     Edge 30, Type (0, 1), BuildingBlock: KIFKEQ_clean_linker_1, # of connection points: 2
#     Edge 31, Type (0, 1), BuildingBlock: KIFKEQ_clean_linker_1, # of connection points: 2
#     Edge 32, Type (0, 1), BuildingBlock: KIFKEQ_clean_linker_1, # of connection points: 2
#     Edge 33, Type (0, 1), BuildingBlock: KIFKEQ_clean_linker_1, # of connection points: 2
#     Edge 34, Type (0, 1), BuildingBlock: KIFKEQ_clean_linker_1, # of connection points: 2
#     Edge 35, Type (0, 1), BuildingBlock: KIFKEQ_clean_linker_1, # of connection points: 2
# Relax obj value: 0.036
# Max RMSD: 0.108
# Mean RMSD: 0.051
data_MOF--net-pry--node1-LEVNOQ01_clean_sbu_1--node2-BELTOD_clean_linker_0--edge1-KIFKEQ_clean_linker_1
_symmetry_space_group_name_H-M    P1
_symmetry_Int_Tables_number       1
_symmetry_cell_setting            triclinic
loop_
_symmetry_equiv_pos_as_xyz
'x, y, z'
_cell_length_a     43.167465
_cell_length_b     41.899904
_cell_length_c     41.396059
_cell_angle_alpha  92.273996
_cell_angle_beta   91.428576
_cell_angle_gamma 94.026857
loop_
_atom_site_label
_atom_site_type_symbol
_atom_site_fract_x
_atom_site_fract_y
_atom_site_fract_z
_atom_type_partial_charge
P0 P 0.16808 0.16856 0.15472 0.0
H1 H 0.21662 0.18122 0.1088 0.0
H2 H 0.25134 0.14711 0.08043 0.0
H3 H 0.2008 0.06333 0.1157 0.0
H4 H 0.16666 0.09799 0.14494 0.0
H5 H 0.12933 0.21843 0.17586 0.0
H6 H 0.098 0.255 0.14745 0.0
H7 H 0.11623 0.20642 0.05652 0.0
H8 H 0.14852 0.17032 0.0854 0.0
H9 H 0.19133 0.15143 0.21797 0.0
H10 H 0.10471 0.13938 0.16335 0.0
O11 O 0.19454 0.19543 0.17176 0.0
H12 H 0.16687 0.12553 0.26369 0.0
H13 H 0.07989 0.11355 0.20917 0.0
C14 C 0.18928 0.14223 0.12925 0.0
C15 C 0.21274 0.15548 0.11006 0.0
C16 C 0.23251 0.13581 0.09362 0.0
C17 C 0.22914 0.10227 0.09579 0.0
C18 C 0.20451 0.08901 0.11386 0.0
C19 C 0.18477 0.10882 0.13045 0.0
C20 C 0.14115 0.19154 0.13288 0.0
C21 C 0.12622 0.21532 0.14985 0.0
C22 C 0.10814 0.2362 0.13346 0.0
C23 C 0.10434 0.23376 0.09953 0.0
C24 C 0.11885 0.20932 0.08257 0.0
C25 C 0.13713 0.18842 0.09911 0.0
C26 C 0.1497 0.14786 0.18748 0.0
C27 C 0.16697 0.14329 0.21586 0.0
C28 C 0.15291 0.12859 0.24208 0.0
C29 C 0.12131 0.11774 0.24031 0.0
C30 C 0.10429 0.12152 0.21136 0.0
C31 C 0.11839 0.13642 0.18517 0.0
P32 P 0.38833 0.90516 0.59139 0.0
H33 H 0.44562 0.93284 0.62279 0.0
H34 H 0.45924 0.95151 0.67827 0.0
H35 H 0.36602 0.92307 0.70688 0.0
H36 H 0.35247 0.90501 0.65101 0.0
H37 H 0.40911 0.87208 0.53354 0.0
H38 H 0.4227 0.81712 0.52213 0.0
H39 H 0.40381 0.79429 0.62087 0.0
H40 H 0.39017 0.84936 0.63213 0.0
H41 H 0.34846 0.95777 0.59972 0.0
H42 H 0.33931 0.86065 0.56019 0.0
O43 O 0.40878 0.92924 0.56736 0.0
H44 H 0.29455 0.96465 0.58354 0.0
H45 H 0.28564 0.86753 0.54344 0.0
C46 C 0.39787 0.91826 0.63266 0.0
C47 C 0.42806 0.93082 0.64098 0.0
C48 C 0.43588 0.94126 0.67281 0.0
C49 C 0.41367 0.93904 0.69709 0.0
C50 C 0.38351 0.92577 0.68871 0.0
C51 C 0.37575 0.91532 0.65679 0.0
C52 C 0.39927 0.86493 0.58383 0.0
C53 C 0.40814 0.85532 0.5528 0.0
C54 C 0.4157 0.82388 0.54625 0.0
C55 C 0.41449 0.8015 0.57067 0.0
C56 C 0.40542 0.81119 0.60174 0.0
C57 C 0.39759 0.84261 0.60819 0.0
C58 C 0.34784 0.90866 0.58151 0.0
C59 C 0.33479 0.93788 0.5877 0.0
C60 C 0.30407 0.94186 0.57814 0.0
C61 C 0.28583 0.91669 0.56199 0.0
C62 C 0.29895 0.88729 0.55608 0.0
C63 C 0.32973 0.88336 0.56564 0.0
P64 P 0.6654 0.3487 0.83595 0.0
H65 H 0.719 0.33384 0.87389 0.0
H66 H 0.75044 0.36321 0.91633 0.0
H67 H 0.6932 0.44327 0.90914 0.0
H68 H 0.661 0.41317 0.86663 0.0
H69 H 0.61117 0.31031 0.8084 0.0
H70 H 0.58153 0.2632 0.82836 0.0
H71 H 0.63026 0.2776 0.92058 0.0
H72 H 0.659 0.32472 0.90125 0.0
H73 H 0.6915 0.38042 0.78104 0.0
H74 H 0.60462 0.37597 0.83043 0.0
O75 O 0.68935 0.32636 0.81541 0.0
H76 H 0.66994 0.41449 0.74088 0.0
H77 H 0.58263 0.40977 0.78999 0.0
C78 C 0.68806 0.37152 0.86686 0.0
C79 C 0.71309 0.35765 0.88143 0.0
C80 C 0.73078 0.3743 0.90594 0.0
C81 C 0.72389 0.40528 0.91624 0.0
C82 C 0.69874 0.41931 0.90168 0.0
C83 C 0.68056 0.40225 0.87736 0.0
C84 C 0.63725 0.32118 0.85329 0.0
C85 C 0.6146 0.30403 0.8333 0.0
C86 C 0.5978 0.27713 0.84461 0.0
C87 C 0.60406 0.26679 0.87577 0.0
C88 C 0.62529 0.28511 0.89635 0.0
C89 C 0.64168 0.31214 0.88524 0.0
C90 C 0.64926 0.37495 0.80796 0.0
C91 C 0.6677 0.38673 0.78313 0.0
C92 C 0.65542 0.4062 0.76025 0.0
C93 C 0.62454 0.41447 0.76211 0.0
C94 C 0.60656 0.40387 0.78803 0.0
C95 C 0.61892 0.38429 0.81092 0.0
P96 P 0.84483 0.6374 0.38197 0.0
H97 H 0.87952 0.69524 0.36419 0.0
H98 H 0.9176 0.73224 0.3929 0.0
H99 H 0.91566 0.67131 0.4748 0.0
H100 H 0.87722 0.63411 0.4456 0.0
H101 H 0.8142 0.59579 0.33103 0.0
H102 H 0.83232 0.5758 0.27882 0.0
H103 H 0.92588 0.61163 0.30615 0.0
H104 H 0.90799 0.6308 0.35834 0.0
H105 H 0.81003 0.65666 0.43668 0.0
H106 H 0.82921 0.56764 0.388 0.0
O107 O 0.82071 0.66211 0.36565 0.0
H108 H 0.77278 0.62847 0.47016 0.0
H109 H 0.79206 0.53869 0.42217 0.0
C110 C 0.87514 0.66234 0.40299 0.0
C111 C 0.88747 0.68967 0.38821 0.0
C112 C 0.90953 0.71064 0.40458 0.0
C113 C 0.91976 0.70469 0.43618 0.0
C114 C 0.90808 0.67663 0.45059 0.0
C115 C 0.8861 0.65542 0.43395 0.0
C116 C 0.85965 0.61489 0.34854 0.0
C117 C 0.83876 0.5984 0.32617 0.0
C118 C 0.84908 0.58712 0.29635 0.0
C119 C 0.88036 0.59273 0.28836 0.0
C120 C 0.90154 0.60749 0.3116 0.0
C121 C 0.89129 0.61834 0.34152 0.0
C122 C 0.82214 0.61432 0.40976 0.0
C123 C 0.80669 0.63082 0.43377 0.0
C124 C 0.78553 0.61452 0.45315 0.0
C125 C 0.77933 0.58117 0.44901 0.0
C126 C 0.79604 0.5644 0.42581 0.0
C127 C 0.81734 0.5809 0.4063 0.0
P128 P 0.88028 0.8897 0.90016 0.0
H129 H 0.85388 0.90374 0.96283 0.0
H130 H 0.80375 0.92232 0.97898 0.0
H131 H 0.77179 0.91559 0.87906 0.0
H132 H 0.82178 0.8969 0.86317 0.0
H133 H 0.93927 0.86206 0.91194 0.0
H134 H 0.95314 0.80961 0.92877 0.0
H135 H 0.85563 0.77925 0.93413 0.0
H136 H 0.84209 0.83152 0.91616 0.0
H137 H 0.87555 0.94378 0.85911 0.0
H138 H 0.89794 0.84541 0.84701 0.0
O139 O 0.9053 0.91664 0.9193 0.0
H140 H 0.88533 0.95187 0.80207 0.0
H141 H 0.90783 0.85334 0.78976 0.0
C142 C 0.84183 0.89945 0.91178 0.0
C143 C 0.83596 0.90602 0.94445 0.0
C144 C 0.80726 0.91658 0.95365 0.0
C145 C 0.78387 0.92091 0.93027 0.0
C146 C 0.78951 0.91318 0.89762 0.0
C147 C 0.81812 0.90235 0.8885 0.0
C148 C 0.88968 0.8508 0.91315 0.0
C149 C 0.9209 0.8441 0.91688 0.0
C150 C 0.92879 0.81411 0.92677 0.0
C151 C 0.90557 0.79006 0.93313 0.0
C152 C 0.8742 0.79696 0.92921 0.0
C153 C 0.86636 0.82697 0.91912 0.0
C154 C 0.88581 0.89401 0.85735 0.0
C155 C 0.8823 0.92382 0.84407 0.0
C156 C 0.88777 0.92835 0.81138 0.0
C157 C 0.89721 0.90319 0.79123 0.0
C158 C 0.90074 0.87325 0.80463 0.0
C159 C 0.89496 0.86867 0.83739 0.0
P160 P 0.66423 0.17216 0.36943 0.0
H161 H 0.67489 0.22606 0.41527 0.0
H162 H 0.63997 0.26155 0.44165 0.0
H163 H 0.56103 0.20096 0.4041 0.0
H164 H 0.59627 0.16556 0.37756 0.0
H165 H 0.71296 0.13289 0.34904 0.0
H166 H 0.753 0.10632 0.37813 0.0
H167 H 0.71714 0.13931 0.46906 0.0
H168 H 0.67667 0.16567 0.43971 0.0
H169 H 0.63372 0.18492 0.30853 0.0
H170 H 0.64911 0.10213 0.36381 0.0
O171 O 0.68519 0.19981 0.34982 0.0
H172 H 0.61075 0.15023 0.26417 0.0
H173 H 0.62667 0.06708 0.31909 0.0
C174 C 0.63819 0.19342 0.39424 0.0
C175 C 0.65008 0.22 0.41337 0.0
C176 C 0.63005 0.24017 0.42862 0.0
C177 C 0.59767 0.23419 0.42482 0.0
C178 C 0.58586 0.20638 0.40718 0.0
C179 C 0.60599 0.18609 0.39205 0.0
C180 C 0.69167 0.15095 0.39214 0.0
C181 C 0.71344 0.1341 0.37524 0.0
C182 C 0.7363 0.11895 0.39189 0.0
C183 C 0.73807 0.12067 0.42586 0.0
C184 C 0.71635 0.13777 0.44287 0.0
C185 C 0.69315 0.1527 0.42609 0.0
C186 C 0.64387 0.14607 0.33903 0.0
C187 C 0.63212 0.15923 0.3111 0.0
C188 C 0.61916 0.13935 0.2857 0.0
C189 C 0.61756 0.10585 0.2878 0.0
C190 C 0.62772 0.09277 0.31667 0.0
C191 C 0.64071 0.11278 0.34216 0.0
P192 P 0.39214 0.6329 0.11175 0.0
H193 H 0.36333 0.61724 0.04756 0.0
H194 H 0.30955 0.60058 0.03002 0.0
H195 H 0.28085 0.61064 0.12889 0.0
H196 H 0.3341 0.62726 0.14614 0.0
H197 H 0.44018 0.67624 0.08515 0.0
H198 H 0.44987 0.7343 0.08869 0.0
H199 H 0.36904 0.74185 0.14741 0.0
H200 H 0.35909 0.68365 0.143 0.0
H201 H 0.37768 0.56995 0.13727 0.0
H202 H 0.41919 0.66166 0.17314 0.0
O203 O 0.41646 0.61635 0.0864 0.0
H204 H 0.37963 0.5501 0.1921 0.0
H205 H 0.42135 0.64201 0.22758 0.0
C206 C 0.35274 0.62257 0.09823 0.0
C207 C 0.34537 0.6159 0.06536 0.0
C208 C 0.31473 0.60662 0.05536 0.0
C209 C 0.29127 0.60391 0.07821 0.0
C210 C 0.29864 0.61197 0.11089 0.0
C211 C 0.32906 0.62144 0.12075 0.0
C212 C 0.39869 0.67575 0.1134 0.0
C213 C 0.42446 0.69038 0.09863 0.0
C214 C 0.43018 0.72359 0.10107 0.0
C215 C 0.41036 0.74274 0.11862 0.0
C216 C 0.38459 0.72785 0.13353 0.0
C217 C 0.37883 0.69461 0.13094 0.0
C218 C 0.39763 0.61745 0.15124 0.0
C219 C 0.38739 0.58572 0.15689 0.0
C220 C 0.38848 0.57443 0.18818 0.0
C221 C 0.40001 0.59474 0.21423 0.0
C222 C 0.41147 0.62611 0.20815 0.0
C223 C 0.41042 0.63731 0.17691 0.0
P224 P 0.14417 0.36765 0.63116 0.0
H225 H 0.16267 0.32129 0.58382 0.0
H226 H 0.13474 0.27826 0.55165 0.0
H227 H 0.04813 0.30551 0.59112 0.0
H228 H 0.07639 0.35 0.62201 0.0
H229 H 0.19959 0.40948 0.64556 0.0
H230 H 0.23601 0.43825 0.61101 0.0
H231 H 0.17452 0.4143 0.5283 0.0
H232 H 0.138 0.38569 0.56317 0.0
H233 H 0.10497 0.34269 0.68118 0.0
H234 H 0.13684 0.43566 0.649 0.0
O235 O 0.16976 0.3474 0.65141 0.0
H236 H 0.0845 0.3675 0.72949 0.0
H237 H 0.11583 0.46093 0.69715 0.0
C238 C 0.1217 0.33839 0.60571 0.0
C239 C 0.13761 0.31827 0.58524 0.0
C240 C 0.12157 0.29353 0.567 0.0
C241 C 0.08921 0.28789 0.56932 0.0
C242 C 0.07303 0.30914 0.58873 0.0
C243 C 0.08921 0.33438 0.60673 0.0
C244 C 0.16649 0.39493 0.60682 0.0
C245 C 0.19362 0.41107 0.62013 0.0
C246 C 0.21433 0.42765 0.60035 0.0
C247 C 0.20826 0.42825 0.56684 0.0
C248 C 0.17997 0.41387 0.55396 0.0
C249 C 0.1591 0.39753 0.57389 0.0
C250 C 0.1223 0.38727 0.66147 0.0
C251 C 0.1067 0.36857 0.68407 0.0
C252 C 0.09497 0.38287 0.71173 0.0
C253 C 0.09875 0.41627 0.71742 0.0
C254 C 0.113 0.43511 0.69379 0.0
C255 C 0.12477 0.4207 0.66606 0.0
O256 O -0.0028 0.00683 0.59632 0.0
Mg257 Mg 0.03227 0.02797 0.56892 0.0
O258 O 0.97875 0.97538 0.55481 0.0
Mg259 Mg -0.00179 0.99615 0.5056 0.0
O260 O 0.01349 0.04567 0.5282 0.0
O261 O 0.03633 0.07694 0.56798 0.0
O262 O 0.0167 0.01659 0.45604 0.0
O263 O 0.94912 0.01698 0.49877 0.0
Mg264 Mg 0.95929 0.96439 0.4458 0.0
O265 O 0.98292 0.94622 0.48327 0.0
O266 O 0.98867 0.9915 0.41584 0.0
O267 O 0.92037 0.98579 0.46342 0.0
O268 O 0.9585 0.91548 0.44392 0.0
C269 C 0.07023 0.98055 0.53369 0.0
C270 C 0.97934 0.98363 0.585 0.0
C271 C 0.0218 0.07403 0.54029 0.0
C272 C 0.01026 0.01189 0.42572 0.0
C273 C 0.92313 0.00889 0.48419 0.0
C274 C 0.97437 0.91801 0.47083 0.0
O275 O 0.06974 0.00018 0.55774 0.0
O276 O 0.04743 0.97627 0.51329 0.0
O277 O 0.44062 0.05871 0.03718 0.0
Mg278 Mg 0.48845 0.06886 0.04057 0.0
O279 O 0.44657 0.00896 0.01932 0.0
Mg280 Mg 0.49954 0.00352 0.00534 0.0
O281 O 0.51061 0.05768 -0.00105 0.0
O282 O 0.50708 0.1079 0.0185 0.0
O283 O 0.55191 0.99615 0.99114 0.0
O284 O 0.48232 0.00055 0.9504 0.0
Mg285 Mg 0.50717 0.93242 0.97015 0.0
O286 O 0.48853 0.95065 0.01066 0.0
O287 O 0.55514 0.94577 0.97252 0.0
O288 O 0.48262 0.95007 0.93102 0.0
O289 O 0.48622 0.8985 -0.00058 0.0
C290 C 0.52027 0.02592 0.08398 0.0
C291 C 0.42929 0.0308 0.02924 0.0
C292 C 0.51625 0.08833 -0.00352 0.0
C293 C 0.56775 0.9733 0.98057 0.0
C294 C 0.47658 0.97897 0.92779 0.0
C295 C 0.47957 0.92205 0.01837 0.0
O296 O 0.51078 0.05366 0.08187 0.0
O297 O 0.51792 0.00558 0.05999 0.0
O298 O 0.43996 0.54988 0.54184 0.0
Mg299 Mg 0.45473 0.50224 0.54633 0.0
O300 O 0.48302 0.56205 0.51665 0.0
Mg301 Mg 0.48967 0.50971 0.5009 0.0
O302 O 0.50026 0.49578 0.55547 0.0
O303 O 0.46363 0.49579 0.59317 0.0
O304 O 0.49744 0.45705 0.48501 0.0
O305 O 0.54426 0.52059 0.50768 0.0
Mg306 Mg 0.52509 0.51517 0.44528 0.0
O307 O 0.48001 0.52534 0.44788 0.0
O308 O 0.53104 0.46542 0.44622 0.0
O309 O 0.55801 0.54903 0.46667 0.0
O310 O 0.50811 0.5292 0.40289 0.0
C311 C 0.41806 0.47474 0.50235 0.0
C312 C 0.45892 0.57079 0.53056 0.0
C313 C 0.49199 0.49266 0.58531 0.0
C314 C 0.5157 0.4464 0.46399 0.0
C315 C 0.56427 0.53908 0.49417 0.0
C316 C 0.48242 0.53209 0.41762 0.0
O317 O 0.42808 0.4617 0.52693 0.0
O318 O 0.43455 0.49827 0.49174 0.0
O319 O -0.00238 0.43799 0.0611 0.0
Mg320 Mg 0.01314 0.48629 0.06515 0.0
O321 O 0.01283 0.45062 0.01316 0.0
Mg322 Mg -0.00047 0.50548 0.00736 0.0
O323 O 0.98178 0.52003 0.06006 0.0
O324 O -0.00024 0.5034 0.10777 0.0
O325 O 0.98727 0.55825 -0.00321 0.0
O326 O 0.9464 0.48657 0.00336 0.0
Mg327 Mg 0.97226 0.49926 0.95285 0.0
O328 O 0.01902 0.49459 0.95411 0.0
O329 O 0.95469 0.54493 0.95624 0.0
O330 O 0.94235 0.4583 0.95806 0.0
O331 O 0.98938 0.49696 0.90868 0.0
C332 C 0.06951 0.51931 0.03982 0.0
C333 C 0.00674 0.42929 0.03378 0.0
C334 C 0.98178 0.52053 0.09159 0.0
C335 C 0.96742 0.56617 0.97573 0.0
C336 C 0.93097 0.46619 0.98462 0.0
C337 C 0.01584 0.49363 0.92264 0.0
O338 O 0.06048 0.50102 0.06182 0.0
O339 O 0.05075 0.52568 0.01713 0.0
H340 H 0.12799 0.13662 0.3046 0.0
H341 H 0.08066 0.06457 0.24015 0.0
H342 H 0.10225 0.11268 0.3506 0.0
H343 H 0.0555 0.04023 0.28594 0.0
H344 H 0.98908 0.02345 0.36551 0.0
H345 H 0.01628 0.04977 0.32248 0.0
H346 H 0.09762 0.06793 0.38528 0.0
H347 H 0.06949 0.04224 0.42932 0.0
C348 C 0.11233 0.11545 0.30028 0.0
C349 C 0.10622 0.10268 0.26858 0.0
C350 C 0.09761 0.10165 0.32672 0.0
C351 C 0.07647 0.07462 0.32217 0.0
C352 C 0.07096 0.0615 0.29048 0.0
C353 C 0.08547 0.07542 0.2641 0.0
C354 C 0.01277 0.03308 0.37033 0.0
C355 C 0.02721 0.03035 0.40084 0.0
C356 C 0.02853 0.04804 0.34542 0.0
C357 C 0.05949 0.06045 0.34994 0.0
C358 C 0.07377 0.05871 0.38084 0.0
C359 C 0.05772 0.04394 0.4061 0.0
H360 H 0.46781 0.93197 0.73114 0.0
H361 H 0.37855 0.97169 0.73993 0.0
H362 H 0.48161 0.95017 0.78652 0.0
H363 H 0.39232 0.98958 0.7957 0.0
H364 H 0.41751 0.96815 0.90477 0.0
H365 H 0.40129 0.96352 0.84765 0.0
H366 H 0.49321 -0.00086 0.8214 0.0
H367 H 0.5092 0.00367 0.87868 0.0
C368 C 0.45127 0.94498 0.74471 0.0
C369 C 0.42206 0.95037 0.73098 0.0
C370 C 0.45923 0.95551 0.77649 0.0
C371 C 0.43817 0.97162 0.79545 0.0
C372 C 0.409 0.97713 0.78176 0.0
C373 C 0.40106 0.9667 0.74987 0.0
C374 C 0.43371 0.97636 0.88678 0.0
C375 C 0.46433 0.98689 0.89595 0.0
C376 C 0.42454 0.97352 0.85408 0.0
C377 C 0.44608 0.98059 0.82997 0.0
C378 C 0.47618 0.99318 0.8394 0.0
C379 C 0.48522 0.9963 0.87213 0.0
H380 H 0.58737 0.46447 0.76786 0.0
H381 H 0.62982 0.404 0.69722 0.0
H382 H 0.55928 0.48893 0.72447 0.0
H383 H 0.60147 0.42799 0.65396 0.0
H384 H 0.55498 0.48805 0.5804 0.0
H385 H 0.59156 0.47512 0.62335 0.0
H386 H 0.51624 0.46775 0.69012 0.0
H387 H 0.48025 0.48119 0.64803 0.0
C388 C 0.59084 0.45661 0.74304 0.0
C389 C 0.61047 0.43212 0.73591 0.0
C390 C 0.57481 0.47058 0.71822 0.0
C391 C 0.57788 0.46009 0.68582 0.0
C392 C 0.59884 0.43684 0.67861 0.0
C393 C 0.61501 0.42301 0.70342 0.0
C394 C 0.54639 0.48384 0.60434 0.0
C395 C 0.51472 0.48552 0.61077 0.0
C396 C 0.56729 0.47645 0.62888 0.0
C397 C 0.55681 0.47065 0.66018 0.0
C398 C 0.52523 0.47278 0.66652 0.0
C399 C 0.50449 0.48018 0.64219 0.0
H400 H 0.87087 0.53671 0.25203 0.0
H401 H 0.91217 0.63337 0.2497 0.0
H402 H 0.89054 0.52492 0.19825 0.0
H403 H 0.93087 0.62218 0.19566 0.0
H404 H 0.0002 0.57074 0.13107 0.0
H405 H 0.97112 0.59186 0.17557 0.0
H406 H 0.88918 0.53411 0.14076 0.0
H407 H 0.91904 0.5126 0.0962 0.0
C408 C 0.88376 0.55552 0.23973 0.0
C409 C 0.89054 0.58573 0.25513 0.0
C410 C 0.89476 0.54893 0.20883 0.0
C411 C 0.9124 0.57261 0.19264 0.0
C412 C 0.91786 0.60324 0.20763 0.0
C413 C 0.90724 0.60965 0.23859 0.0
C414 C 0.97562 0.56369 0.13222 0.0
C415 C 0.96162 0.54053 0.11019 0.0
C416 C 0.9589 0.57567 0.15778 0.0
C417 C 0.92784 0.56444 0.16198 0.0
C418 C 0.91318 0.54293 0.13841 0.0
C419 C 0.93001 0.53104 0.11262 0.0
H420 H 0.25291 0.04866 0.12022 0.0
H421 H 0.25918 0.10944 0.03839 0.0
H422 H 0.29599 0.01983 0.10023 0.0
H423 H 0.30353 0.08213 0.01964 0.0
H424 H 0.38112 0.02875 0.98512 0.0
H425 H 0.32707 0.03727 -0.00225 0.0
H426 H 0.34987 0.03148 0.09959 0.0
H427 H 0.40306 0.02192 0.08654 0.0
C428 C 0.26308 0.05562 0.09768 0.0
C429 C 0.25267 0.08181 0.08124 0.0
C430 C 0.28816 0.03927 0.0864 0.0
C431 C 0.30376 0.0488 0.0585 0.0
C432 C 0.29215 0.07377 0.04105 0.0
C433 C 0.2669 0.08989 0.05216 0.0
C434 C 0.37398 0.02771 0.00999 0.0
C435 C 0.39598 0.02415 0.03485 0.0
C436 C 0.34319 0.0332 0.01737 0.0
C437 C 0.334 0.03567 0.0498 0.0
C438 C 0.35567 0.02943 0.07434 0.0
C439 C 0.38628 0.02382 0.06691 0.0
H440 H 0.23449 0.87489 0.56642 0.0
H441 H 0.26348 0.9687 0.53376 0.0
H442 H 0.18052 0.88402 0.55273 0.0
H443 H 0.20952 0.97805 0.52077 0.0
H444 H 0.11057 0.98071 0.48394 0.0
H445 H 0.16269 0.96048 0.48515 0.0
H446 H 0.14458 0.92104 0.57824 0.0
H447 H 0.0931 0.94157 0.57704 0.0
C448 C 0.22942 0.89727 0.55592 0.0
C449 C 0.25326 0.92121 0.55151 0.0
C450 C 0.19849 0.90254 0.54822 0.0
C451 C 0.19076 0.93176 0.53571 0.0
C452 C 0.21474 0.95515 0.53003 0.0
C453 C 0.24561 0.94997 0.53792 0.0
C454 C 0.11755 0.96683 0.50407 0.0
C455 C 0.09801 0.96245 0.53033 0.0
C456 C 0.14738 0.95554 0.50495 0.0
C457 C 0.15777 0.9393 0.53187 0.0
C458 C 0.13722 0.93316 0.55704 0.0
C459 C 0.10777 0.94492 0.55641 0.0
H460 H 0.75495 0.46349 0.91034 0.0
H461 H 0.7415 0.38594 0.97527 0.0
H462 H 0.80272 0.48247 0.9404 0.0
H463 H 0.78948 0.40462 0.0049 0.0
H464 H 0.8891 0.50534 0.00948 0.0
H465 H 0.83228 0.49684 0.0041 0.0
H466 H 0.8416 0.40134 0.96434 0.0
H467 H 0.89812 0.4102 0.96842 0.0
C468 C 0.76137 0.45153 0.93199 0.0
C469 C 0.74501 0.42301 0.94029 0.0
C470 C 0.78864 0.46236 0.94917 0.0
C471 C 0.79968 0.4447 0.97464 0.0
C472 C 0.7813 0.4185 0.98529 0.0
C473 C 0.754 0.40783 0.96832 0.0
C474 C 0.87889 0.48219 0.00061 0.0
C475 C 0.89778 0.4583 0.98939 0.0
C476 C 0.84653 0.47747 -0.00257 0.0
C477 C 0.83286 0.44844 0.98405 0.0
C478 C 0.85175 0.42377 0.97516 0.0
C479 C 0.88398 0.42879 0.97745 0.0
H480 H 0.7619 0.59266 0.51155 0.0
H481 H 0.7365 0.53404 0.42536 0.0
H482 H 0.71136 0.57773 0.53396 0.0
H483 H 0.6868 0.51806 0.44862 0.0
H484 H 0.60031 0.48963 0.50206 0.0
H485 H 0.6572 0.49267 0.49982 0.0
H486 H 0.65895 0.59586 0.50497 0.0
H487 H 0.6022 0.59274 0.5058 0.0
C488 C 0.74594 0.57597 0.49772 0.0
C489 C 0.75301 0.56523 0.46626 0.0
C490 C 0.71716 0.56726 0.51073 0.0
C491 C 0.69523 0.54699 0.4929 0.0
C492 C 0.70347 0.53354 0.46297 0.0
C493 C 0.73204 0.54269 0.44968 0.0
C494 C 0.61304 0.51289 0.5042 0.0
C495 C 0.59713 0.54102 0.50449 0.0
C496 C 0.64547 0.51459 0.50263 0.0
C497 C 0.66233 0.54447 0.50226 0.0
C498 C 0.64649 0.57254 0.50564 0.0
C499 C 0.61409 0.57082 0.50623 0.0
H500 H 0.05123 0.2603 0.11884 0.0
H501 H 0.11616 0.2613 0.04112 0.0
H502 H 0.02577 0.30379 0.09546 0.0
H503 H 0.08909 0.30365 0.01615 0.0
H504 H 0.06204 0.41 0.01255 0.0
H505 H 0.08336 0.35875 0.02262 0.0
H506 H 0.99405 0.3225 0.05616 0.0
H507 H 0.97375 0.37446 0.04808 0.0
C508 C 0.05992 0.26954 0.09648 0.0
C509 C 0.0862 0.25747 0.08231 0.0
C510 C 0.04485 0.2943 0.0826 0.0
C511 C 0.05518 0.3076 0.05369 0.0
C512 C 0.08062 0.2945 0.03863 0.0
C513 C 0.09595 0.26982 0.05277 0.0
C514 C 0.0468 0.39067 0.0211 0.0
C515 C 0.0163 0.39619 0.02966 0.0
C516 C 0.05901 0.36118 0.027 0.0
C517 C 0.04078 0.33644 0.04113 0.0
C518 C 0.00927 0.34117 0.04644 0.0
C519 C -0.00263 0.37082 0.0413 0.0
H520 H 0.63722 0.21729 0.89153 0.0
H521 H 0.54328 0.24524 0.88213 0.0
H522 H 0.61824 0.16604 0.91212 0.0
H523 H 0.52401 0.19437 0.90415 0.0
H524 H 0.49407 0.0973 0.93594 0.0
H525 H 0.51655 0.13639 0.89896 0.0
H526 H 0.59761 0.15208 0.96267 0.0
H527 H 0.57526 0.11289 -0.00125 0.0
C528 C 0.61243 0.21226 0.89385 0.0
C529 C 0.59165 0.23512 0.88574 0.0
C530 C 0.60155 0.18299 0.90564 0.0
C531 C 0.56964 0.17616 0.91009 0.0
C532 C 0.5487 0.19863 0.90061 0.0
C533 C 0.55964 0.22784 0.88831 0.0
C534 C 0.51733 0.1081 0.94098 0.0
C535 C 0.53333 0.10193 0.96968 0.0
C536 C 0.52997 0.13082 0.9202 0.0
C537 C 0.55872 0.14766 0.92802 0.0
C538 C 0.57563 0.13937 0.95558 0.0
C539 C 0.56296 0.11682 0.97627 0.0
H540 H 0.97065 0.73898 0.41453 0.0
H541 H 0.9152 0.72659 0.49906 0.0
H542 H 0.99429 0.78887 0.43802 0.0
H543 H 0.94029 0.77588 0.52376 0.0
H544 H 0.93365 0.8858 0.50733 0.0
H545 H 0.93029 0.82821 0.51145 0.0
H546 H 0.02268 0.825 0.47375 0.0
H547 H 0.02498 0.88302 0.46829 0.0
C548 C 0.96423 0.74648 0.43865 0.0
C549 C 0.94033 0.7294 0.45445 0.0
C550 C 0.97818 0.77499 0.45248 0.0
C551 C 0.96875 0.78702 0.48265 0.0
C552 C 0.94758 0.76781 0.50015 0.0
C553 C 0.93337 0.73934 0.48612 0.0
C554 C 0.95385 0.8729 0.50159 0.0
C555 C 0.97948 0.88857 0.48742 0.0
C556 C 0.95201 0.8397 0.50389 0.0
C557 C 0.97585 0.8216 0.49194 0.0
C558 C 0.00348 0.83805 0.48225 0.0
C559 C 0.0051 0.87133 0.47959 0.0
H560 H 0.45205 0.76538 0.60608 0.0
H561 H 0.39421 0.76218 0.5192 0.0
H562 H 0.46401 0.70979 0.59457 0.0
H563 H 0.406 0.70658 0.50794 0.0
H564 H 0.40306 0.59688 0.53264 0.0
H565 H 0.39335 0.65347 0.54076 0.0
H566 H 0.49212 0.67834 0.5463 0.0
H567 H 0.50192 0.62173 0.53721 0.0
C568 C 0.4419 0.75277 0.58458 0.0
C569 C 0.42217 0.76804 0.56355 0.0
C570 C 0.44892 0.72114 0.5779 0.0
C571 C 0.43591 0.70407 0.55039 0.0
C572 C 0.41622 0.71928 0.52935 0.0
C573 C 0.40962 0.75106 0.53572 0.0
C574 C 0.42267 0.61447 0.53541 0.0
C575 C 0.45322 0.60503 0.53432 0.0
C576 C 0.41712 0.64677 0.53991 0.0
C577 C 0.44201 0.6701 0.5442 0.0
C578 C 0.47258 0.66071 0.54314 0.0
C579 C 0.47815 0.62845 0.5378 0.0
H580 H 0.86391 0.93583 0.74801 0.0
H581 H 0.94609 0.88328 0.75622 0.0
H582 H 0.87801 0.95029 0.69357 0.0
H583 H 0.96029 0.89788 0.70165 0.0
H584 H 0.9716 0.9191 0.59501 0.0
H585 H 0.94738 0.8944 0.64208 0.0
H586 H 0.91941 0.98696 0.67497 0.0
H587 H 0.94343 0.01112 0.62854 0.0
C588 C 0.88492 0.9272 0.73812 0.0
C589 C 0.90407 0.90875 0.75668 0.0
C590 C 0.89296 0.93542 0.70686 0.0
C591 C 0.92042 0.92547 0.69329 0.0
C592 C 0.9388 0.90564 0.71118 0.0
C593 C 0.9307 0.89735 0.74253 0.0
C594 C 0.95936 0.93377 0.61186 0.0
C595 C 0.95912 0.96692 0.60814 0.0
C596 C 0.94586 0.91979 0.63896 0.0
C597 C 0.9315 0.93872 0.66237 0.0
C598 C 0.92985 0.97154 0.65734 0.0
C599 C 0.94365 0.98544 0.63073 0.0
H600 H 0.57777 0.05151 0.28645 0.0
H601 H 0.63242 0.11285 0.22484 0.0
H602 H 0.55709 0.01975 0.23868 0.0
H603 H 0.61148 0.08179 0.17745 0.0
H604 H 0.58156 0.01872 0.09499 0.0
H605 H 0.60893 0.02958 0.14726 0.0
H606 H 0.52081 0.0323 0.19416 0.0
H607 H 0.49381 0.02148 0.14203 0.0
C608 C 0.58566 0.05795 0.26279 0.0
C609 C 0.60641 0.08495 0.25938 0.0
C610 C 0.57378 0.03983 0.23546 0.0
C611 C 0.58274 0.04813 0.20425 0.0
C612 C 0.60445 0.07435 0.20109 0.0
C613 C 0.61608 0.09252 0.22827 0.0
C614 C 0.56819 0.01997 0.11676 0.0
C615 C 0.53567 0.01904 0.1147 0.0
C616 C 0.58379 0.02665 0.14661 0.0
C617 C 0.56703 0.03237 0.17478 0.0
C618 C 0.53445 0.02789 0.17304 0.0
C619 C 0.51893 0.02156 0.1432 0.0
H620 H 0.38433 0.62661 0.26962 0.0
H621 H 0.41744 0.53715 0.23425 0.0
H622 H 0.39228 0.6108 0.3252 0.0
H623 H 0.42534 0.52136 0.28962 0.0
H624 H 0.43537 0.49412 0.38945 0.0
H625 H 0.40392 0.50809 0.34266 0.0
H626 H 0.44176 0.60626 0.35476 0.0
H627 H 0.47278 0.59208 0.4013 0.0
C628 C 0.39299 0.60343 0.27374 0.0
C629 C 0.40078 0.58333 0.24763 0.0
C630 C 0.39733 0.59433 0.30552 0.0
C631 C 0.40953 0.56493 0.31179 0.0
C632 C 0.41543 0.54397 0.28563 0.0
C633 C 0.41108 0.55307 0.25386 0.0
C634 C 0.43562 0.51893 0.38291 0.0
C635 C 0.45607 0.5422 0.39882 0.0
C636 C 0.41797 0.52686 0.35601 0.0
C637 C 0.42071 0.55816 0.34479 0.0
C638 C 0.43888 0.58201 0.36292 0.0
C639 C 0.45662 0.57399 0.38961 0.0
H640 H 0.04769 0.40008 0.75288 0.0
H641 H 0.13011 0.46509 0.75372 0.0
H642 H 0.03637 0.4197 0.80719 0.0
H643 H 0.11786 0.48553 0.80775 0.0
H644 H 0.04555 0.53297 0.88168 0.0
H645 H 0.07087 0.51528 0.8325 0.0
H646 H 0.06437 0.41827 0.86446 0.0
H647 H 0.03963 0.43623 0.91394 0.0
C648 C 0.06344 0.41849 0.76461 0.0
C649 C 0.08998 0.43075 0.74898 0.0
C650 C 0.05698 0.42963 0.79574 0.0
C651 C 0.07666 0.45358 0.81182 0.0
C652 C 0.10251 0.46684 0.79589 0.0
C653 C 0.10926 0.45536 0.76484 0.0
C654 C 0.05116 0.50822 0.87891 0.0
C655 C 0.04122 0.48596 0.9016 0.0
C656 C 0.06535 0.49806 0.85072 0.0
C657 C 0.06905 0.46538 0.8446 0.0
C658 C 0.06151 0.44358 0.86862 0.0
C659 C 0.04784 0.45386 0.89709 0.0
H660 H 0.74785 0.90543 0.98192 0.0
H661 H 0.7523 0.96632 0.90022 0.0
H662 H 0.69799 0.92547 0.99603 0.0
H663 H 0.70276 0.98679 0.91455 0.0
H664 H 0.59547 0.97602 0.9233 0.0
H665 H 0.64957 0.96767 0.91271 0.0
H666 H 0.66996 0.96988 0.01558 0.0
H667 H 0.61517 0.97773 0.02589 0.0
C668 C 0.73839 0.92344 0.96722 0.0
C669 C 0.75395 0.93399 0.93972 0.0
C670 C 0.70984 0.93511 0.97542 0.0
C671 C 0.69616 0.95779 0.95644 0.0
C672 C 0.71223 0.96897 0.92946 0.0
C673 C 0.74065 0.95717 0.92117 0.0
C674 C 0.61182 0.97592 0.94359 0.0
C675 C 0.60138 0.97813 0.97535 0.0
C676 C 0.64288 0.97102 0.93758 0.0
C677 C 0.66429 0.96783 0.96326 0.0
C678 C 0.65408 0.97181 0.99519 0.0
C679 C 0.62287 0.97687 0.00118 0.0
H680 H 0.75427 0.05999 0.41462 0.0
H681 H 0.77751 0.14485 0.47534 0.0
H682 H 0.79791 0.03459 0.4379 0.0
H683 H 0.82132 0.11896 0.49954 0.0
H684 H 0.91987 0.07392 0.4876 0.0
H685 H 0.8724 0.10221 0.48106 0.0
H686 H 0.8172 0.01257 0.48666 0.0
H687 H 0.86446 0.98448 0.49175 0.0
C688 C 0.76858 0.07304 0.4333 0.0
C689 C 0.76265 0.10442 0.44301 0.0
C690 C 0.79342 0.05838 0.44697 0.0
C691 C 0.81304 0.07467 0.47078 0.0
C692 C 0.80667 0.10584 0.48119 0.0
C693 C 0.78152 0.12053 0.46755 0.0
C694 C 0.8975 0.06057 0.48843 0.0
C695 C 0.89565 0.02707 0.48967 0.0
C696 C 0.87032 0.0767 0.4847 0.0
C697 C 0.84107 0.05948 0.48254 0.0
C698 C 0.8394 0.02639 0.48732 0.0
C699 C 0.86641 0.01033 0.49047 0.0
H700 H 0.25742 0.55635 0.10607 0.0
H701 H 0.25364 0.62247 0.02897 0.0
H702 H 0.20391 0.53708 0.0939 0.0
H703 H 0.1992 0.6037 0.0171 0.0
H704 H 0.1087 0.53695 0.99114 0.0
H705 H 0.16326 0.55796 -0.00235 0.0
H706 H 0.15485 0.55866 0.10152 0.0
H707 H 0.10156 0.53669 0.09498 0.0
C708 C 0.24497 0.56685 0.08657 0.0
C709 C 0.25941 0.59119 0.06877 0.0
C710 C 0.21428 0.55593 0.07964 0.0
C711 C 0.19707 0.56935 0.05497 0.0
C712 C 0.21186 0.59289 0.03624 0.0
C713 C 0.2429 0.60367 0.04304 0.0
C714 C 0.1187 0.54179 0.01524 0.0
C715 C 0.10128 0.53459 0.04255 0.0
C716 C 0.14979 0.55388 0.019 0.0
C717 C 0.16357 0.55926 0.05011 0.0
C718 C 0.14533 0.55374 0.07722 0.0
C719 C 0.11473 0.54127 0.07349 0.0
H720 H 0.24619 0.48331 0.57482 0.0
H721 H 0.22696 0.39994 0.51086 0.0
H722 H 0.29374 0.49678 0.54617 0.0
H723 H 0.27425 0.41374 0.48184 0.0
H724 H 0.38433 0.4178 0.49897 0.0
H725 H 0.32826 0.40994 0.50375 0.0
H726 H 0.32033 0.5114 0.49458 0.0
H727 H 0.37676 0.51913 0.4894 0.0
C728 C 0.25171 0.46837 0.5541 0.0
C729 C 0.23304 0.4404 0.54533 0.0
C730 C 0.27877 0.47625 0.53745 0.0
C731 C 0.2878 0.45619 0.51183 0.0
C732 C 0.26793 0.42953 0.50157 0.0
C733 C 0.24075 0.42177 0.51809 0.0
C734 C 0.37043 0.43817 0.49651 0.0
C735 C 0.38476 0.46902 0.49388 0.0
C736 C 0.33829 0.43372 0.49924 0.0
C737 C 0.31993 0.46014 0.49992 0.0
C738 C 0.33398 0.49066 0.49434 0.0
C739 C 0.36619 0.49504 0.49103 0.0
H740 H 0.87622 0.73165 0.91523 0.0
H741 H 0.95432 0.77471 0.97263 0.0
H742 H 0.89078 0.67891 0.92883 0.0
H743 H 0.97012 0.72152 0.9846 0.0
H744 H 0.97458 0.6177 0.02005 0.0
H745 H 0.95906 0.67232 0.01238 0.0
H746 H 0.92943 0.64496 0.91406 0.0
H747 H 0.9436 0.59105 0.92206 0.0
C748 C 0.89642 0.72997 0.93094 0.0
C749 C 0.91409 0.75766 0.94266 0.0
C750 C 0.9051 0.69956 0.93838 0.0
C751 C 0.93198 0.69576 0.95744 0.0
C752 C 0.94925 0.72342 0.96994 0.0
C753 C 0.9404 0.75397 0.96267 0.0
C754 C 0.96471 0.62354 -0.00311 0.0
C755 C 0.9599 0.59989 0.97187 0.0
C756 C 0.9559 0.65482 0.99241 0.0
C757 C 0.94241 0.66303 0.96273 0.0
C758 C 0.93871 0.63946 0.93758 0.0
C759 C 0.94708 0.60843 0.94214 0.0
H760 H 0.36745 0.78771 0.11377 0.0
H761 H 0.46592 0.77796 0.12633 0.0
H762 H 0.37772 0.84454 0.10484 0.0
H763 H 0.47635 0.83397 0.11551 0.0
H764 H 0.49853 0.92524 0.08158 0.0
H765 H 0.47548 0.89047 0.12206 0.0
H766 H 0.39696 0.86561 0.05668 0.0
H767 H 0.41969 0.90073 0.01734 0.0
C768 C 0.39125 0.79782 0.11542 0.0
C769 C 0.41596 0.77814 0.11979 0.0
C770 C 0.39715 0.83041 0.11013 0.0
C771 C 0.42787 0.84383 0.1087 0.0
C772 C 0.45234 0.82474 0.11648 0.0
C773 C 0.44643 0.79231 0.12206 0.0
C774 C 0.47548 0.91376 0.07693 0.0
C775 C 0.46085 0.91518 0.0465 0.0
C776 C 0.46242 0.89354 0.09985 0.0
C777 C 0.4349 0.87431 0.09221 0.0
C778 C 0.41817 0.87982 0.06359 0.0
C779 C 0.43118 0.90001 0.04086 0.0
H780 H 0.11115 0.22874 0.56519 0.0
H781 H 0.03085 0.27951 0.5395 0.0
H782 H 0.08601 0.17966 0.54169 0.0
H783 H 0.00481 0.22899 0.51702 0.0
H784 H 0.98056 0.11672 0.55669 0.0
H785 H 0.99073 0.17418 0.55085 0.0
H786 H 0.06289 0.15564 0.48381 0.0
H787 H 0.05244 0.09808 0.48954 0.0
C788 C 0.08842 0.22969 0.55375 0.0
C789 C 0.07332 0.25834 0.55375 0.0
C790 C 0.07401 0.20145 0.5402 0.0
C791 C 0.04384 0.20077 0.52671 0.0
C792 C 0.02834 0.22915 0.52675 0.0
C793 C 0.04311 0.25785 0.53993 0.0
C794 C -0.00294 0.12493 0.53898 0.0
C795 C 0.01593 0.10328 0.52373 0.0
C796 C 0.00291 0.15783 0.53566 0.0
C797 C 0.02802 0.1692 0.51744 0.0
C798 C 0.04348 0.14733 0.49811 0.0
C799 C 0.03741 0.1144 0.50124 0.0
H800 H 0.54855 0.25536 0.39129 0.0
H801 H 0.60031 0.27011 0.48197 0.0
H802 H 0.52128 0.30316 0.4034 0.0
H803 H 0.57333 0.3185 0.49372 0.0
H804 H 0.5078 0.39998 0.50883 0.0
H805 H 0.52082 0.34387 0.50267 0.0
H806 H 0.54623 0.35946 0.404 0.0
H807 H 0.53364 0.41488 0.41012 0.0
C808 C 0.55346 0.26822 0.41427 0.0
C809 C 0.57684 0.25909 0.43553 0.0
C810 C 0.53799 0.29576 0.42106 0.0
C811 C 0.54547 0.31471 0.4493 0.0
C812 C 0.56703 0.30427 0.47182 0.0
C813 C 0.58266 0.27675 0.46495 0.0
C814 C 0.5157 0.39114 0.48574 0.0
C815 C 0.51989 0.41179 0.46001 0.0
C816 C 0.52324 0.35917 0.48227 0.0
C817 C 0.53437 0.34732 0.45282 0.0
C818 C 0.53728 0.36775 0.42684 0.0
C819 C 0.5303 0.3996 0.43044 0.0
loop_
_geom_bond_atom_site_label_1
_geom_bond_atom_site_label_2
_geom_bond_distance
_geom_bond_site_symmetry_2
_ccdc_geom_bond_type
P0 O11 1.490 . S
P0 C14 1.812 . S
P0 C20 1.803 . S
P0 C26 1.819 . S
H1 C15 0.941 . S
H2 C16 0.939 . S
H3 C18 0.940 . S
H4 C19 0.940 . S
H5 C21 0.939 . S
H6 C22 0.942 . S
H7 C24 0.940 . S
H8 C25 0.939 . S
H9 C27 0.941 . S
H10 C31 0.939 . S
O11 P0 1.490 . S
H12 C28 0.939 . S
H13 C30 0.940 . S
C14 P0 1.812 . S
C14 C15 1.389 . S
C14 C19 1.391 . S
C15 H1 0.941 . S
C15 C14 1.389 . S
C15 C16 1.397 . S
C16 H2 0.939 . S
C16 C15 1.397 . S
C16 C17 1.378 . S
C17 C16 1.378 . S
C17 C18 1.378 . S
C18 H3 0.940 . S
C18 C17 1.378 . S
C18 C19 1.396 . S
C19 H4 0.940 . S
C19 C14 1.391 . S
C19 C18 1.396 . S
C20 P0 1.803 . S
C20 C21 1.378 . S
C20 C25 1.400 . S
C21 H5 0.939 . S
C21 C20 1.378 . S
C21 C22 1.361 . S
C22 H6 0.942 . S
C22 C21 1.361 . S
C22 C23 1.369 . S
C23 C22 1.369 . S
C23 C24 1.404 . S
C24 H7 0.940 . S
C24 C23 1.404 . S
C24 C25 1.389 . S
C25 H8 0.939 . S
C25 C20 1.400 . S
C25 C24 1.389 . S
C26 P0 1.819 . S
C26 C27 1.391 . S
C26 C31 1.391 . S
C27 H9 0.941 . S
C27 C26 1.391 . S
C27 C28 1.396 . S
C28 H12 0.939 . S
C28 C27 1.396 . S
C28 C29 1.397 . S
C29 C28 1.397 . S
C29 C30 1.385 . S
C30 H13 0.940 . S
C30 C29 1.385 . S
C30 C31 1.388 . S
C31 H10 0.939 . S
C31 C26 1.391 . S
C31 C30 1.388 . S
P32 O43 1.490 . S
P32 C46 1.812 . S
P32 C52 1.803 . S
P32 C58 1.819 . S
H33 C47 0.941 . S
H34 C48 0.939 . S
H35 C50 0.940 . S
H36 C51 0.940 . S
H37 C53 0.939 . S
H38 C54 0.942 . S
H39 C56 0.940 . S
H40 C57 0.939 . S
H41 C59 0.941 . S
H42 C63 0.939 . S
O43 P32 1.490 . S
H44 C60 0.939 . S
H45 C62 0.940 . S
C46 P32 1.812 . S
C46 C47 1.389 . S
C46 C51 1.391 . S
C47 H33 0.941 . S
C47 C46 1.389 . S
C47 C48 1.397 . S
C48 H34 0.939 . S
C48 C47 1.397 . S
C48 C49 1.378 . S
C49 C48 1.378 . S
C49 C50 1.378 . S
C50 H35 0.940 . S
C50 C49 1.378 . S
C50 C51 1.396 . S
C51 H36 0.940 . S
C51 C46 1.391 . S
C51 C50 1.396 . S
C52 P32 1.803 . S
C52 C53 1.378 . S
C52 C57 1.400 . S
C53 H37 0.939 . S
C53 C52 1.378 . S
C53 C54 1.361 . S
C54 H38 0.942 . S
C54 C53 1.361 . S
C54 C55 1.369 . S
C55 C54 1.369 . S
C55 C56 1.404 . S
C56 H39 0.940 . S
C56 C55 1.404 . S
C56 C57 1.389 . S
C57 H40 0.939 . S
C57 C52 1.400 . S
C57 C56 1.389 . S
C58 P32 1.819 . S
C58 C59 1.391 . S
C58 C63 1.391 . S
C59 H41 0.941 . S
C59 C58 1.391 . S
C59 C60 1.396 . S
C60 H44 0.939 . S
C60 C59 1.396 . S
C60 C61 1.397 . S
C61 C60 1.397 . S
C61 C62 1.385 . S
C62 H45 0.940 . S
C62 C61 1.385 . S
C62 C63 1.388 . S
C63 H42 0.939 . S
C63 C58 1.391 . S
C63 C62 1.388 . S
P64 O75 1.490 . S
P64 C78 1.812 . S
P64 C84 1.803 . S
P64 C90 1.819 . S
H65 C79 0.941 . S
H66 C80 0.939 . S
H67 C82 0.940 . S
H68 C83 0.940 . S
H69 C85 0.939 . S
H70 C86 0.942 . S
H71 C88 0.940 . S
H72 C89 0.939 . S
H73 C91 0.941 . S
H74 C95 0.939 . S
O75 P64 1.490 . S
H76 C92 0.939 . S
H77 C94 0.940 . S
C78 P64 1.812 . S
C78 C79 1.389 . S
C78 C83 1.391 . S
C79 H65 0.941 . S
C79 C78 1.389 . S
C79 C80 1.397 . S
C80 H66 0.939 . S
C80 C79 1.397 . S
C80 C81 1.378 . S
C81 C80 1.378 . S
C81 C82 1.378 . S
C82 H67 0.940 . S
C82 C81 1.378 . S
C82 C83 1.396 . S
C83 H68 0.940 . S
C83 C78 1.391 . S
C83 C82 1.396 . S
C84 P64 1.803 . S
C84 C85 1.378 . S
C84 C89 1.400 . S
C85 H69 0.939 . S
C85 C84 1.378 . S
C85 C86 1.361 . S
C86 H70 0.942 . S
C86 C85 1.361 . S
C86 C87 1.369 . S
C87 C86 1.369 . S
C87 C88 1.404 . S
C88 H71 0.940 . S
C88 C87 1.404 . S
C88 C89 1.389 . S
C89 H72 0.939 . S
C89 C84 1.400 . S
C89 C88 1.389 . S
C90 P64 1.819 . S
C90 C91 1.391 . S
C90 C95 1.391 . S
C91 H73 0.941 . S
C91 C90 1.391 . S
C91 C92 1.396 . S
C92 H76 0.939 . S
C92 C91 1.396 . S
C92 C93 1.397 . S
C93 C92 1.397 . S
C93 C94 1.385 . S
C94 H77 0.940 . S
C94 C93 1.385 . S
C94 C95 1.388 . S
C95 H74 0.939 . S
C95 C90 1.391 . S
C95 C94 1.388 . S
P96 O107 1.490 . S
P96 C110 1.812 . S
P96 C116 1.803 . S
P96 C122 1.819 . S
H97 C111 0.941 . S
H98 C112 0.939 . S
H99 C114 0.940 . S
H100 C115 0.940 . S
H101 C117 0.939 . S
H102 C118 0.942 . S
H103 C120 0.940 . S
H104 C121 0.939 . S
H105 C123 0.941 . S
H106 C127 0.939 . S
O107 P96 1.490 . S
H108 C124 0.939 . S
H109 C126 0.940 . S
C110 P96 1.812 . S
C110 C111 1.389 . S
C110 C115 1.391 . S
C111 H97 0.941 . S
C111 C110 1.389 . S
C111 C112 1.397 . S
C112 H98 0.939 . S
C112 C111 1.397 . S
C112 C113 1.378 . S
C113 C112 1.378 . S
C113 C114 1.378 . S
C114 H99 0.940 . S
C114 C113 1.378 . S
C114 C115 1.396 . S
C115 H100 0.940 . S
C115 C110 1.391 . S
C115 C114 1.396 . S
C116 P96 1.803 . S
C116 C117 1.378 . S
C116 C121 1.400 . S
C117 H101 0.939 . S
C117 C116 1.378 . S
C117 C118 1.361 . S
C118 H102 0.942 . S
C118 C117 1.361 . S
C118 C119 1.369 . S
C119 C118 1.369 . S
C119 C120 1.404 . S
C120 H103 0.940 . S
C120 C119 1.404 . S
C120 C121 1.389 . S
C121 H104 0.939 . S
C121 C116 1.400 . S
C121 C120 1.389 . S
C122 P96 1.819 . S
C122 C123 1.391 . S
C122 C127 1.391 . S
C123 H105 0.941 . S
C123 C122 1.391 . S
C123 C124 1.396 . S
C124 H108 0.939 . S
C124 C123 1.396 . S
C124 C125 1.397 . S
C125 C124 1.397 . S
C125 C126 1.385 . S
C126 H109 0.940 . S
C126 C125 1.385 . S
C126 C127 1.388 . S
C127 H106 0.939 . S
C127 C122 1.391 . S
C127 C126 1.388 . S
P128 O139 1.490 . S
P128 C142 1.812 . S
P128 C148 1.803 . S
P128 C154 1.819 . S
H129 C143 0.941 . S
H130 C144 0.939 . S
H131 C146 0.940 . S
H132 C147 0.940 . S
H133 C149 0.939 . S
H134 C150 0.942 . S
H135 C152 0.940 . S
H136 C153 0.939 . S
H137 C155 0.941 . S
H138 C159 0.939 . S
O139 P128 1.490 . S
H140 C156 0.939 . S
H141 C158 0.940 . S
C142 P128 1.812 . S
C142 C143 1.389 . S
C142 C147 1.391 . S
C143 H129 0.941 . S
C143 C142 1.389 . S
C143 C144 1.397 . S
C144 H130 0.939 . S
C144 C143 1.397 . S
C144 C145 1.378 . S
C145 C144 1.378 . S
C145 C146 1.378 . S
C146 H131 0.940 . S
C146 C145 1.378 . S
C146 C147 1.396 . S
C147 H132 0.940 . S
C147 C142 1.391 . S
C147 C146 1.396 . S
C148 P128 1.803 . S
C148 C149 1.378 . S
C148 C153 1.400 . S
C149 H133 0.939 . S
C149 C148 1.378 . S
C149 C150 1.361 . S
C150 H134 0.942 . S
C150 C149 1.361 . S
C150 C151 1.369 . S
C151 C150 1.369 . S
C151 C152 1.404 . S
C152 H135 0.940 . S
C152 C151 1.404 . S
C152 C153 1.389 . S
C153 H136 0.939 . S
C153 C148 1.400 . S
C153 C152 1.389 . S
C154 P128 1.819 . S
C154 C155 1.391 . S
C154 C159 1.391 . S
C155 H137 0.941 . S
C155 C154 1.391 . S
C155 C156 1.396 . S
C156 H140 0.939 . S
C156 C155 1.396 . S
C156 C157 1.397 . S
C157 C156 1.397 . S
C157 C158 1.385 . S
C158 H141 0.940 . S
C158 C157 1.385 . S
C158 C159 1.388 . S
C159 H138 0.939 . S
C159 C154 1.391 . S
C159 C158 1.388 . S
P160 O171 1.490 . S
P160 C174 1.812 . S
P160 C180 1.803 . S
P160 C186 1.819 . S
H161 C175 0.941 . S
H162 C176 0.939 . S
H163 C178 0.940 . S
H164 C179 0.940 . S
H165 C181 0.939 . S
H166 C182 0.942 . S
H167 C184 0.940 . S
H168 C185 0.939 . S
H169 C187 0.941 . S
H170 C191 0.939 . S
O171 P160 1.490 . S
H172 C188 0.939 . S
H173 C190 0.940 . S
C174 P160 1.812 . S
C174 C175 1.389 . S
C174 C179 1.391 . S
C175 H161 0.941 . S
C175 C174 1.389 . S
C175 C176 1.397 . S
C176 H162 0.939 . S
C176 C175 1.397 . S
C176 C177 1.378 . S
C177 C176 1.378 . S
C177 C178 1.378 . S
C178 H163 0.940 . S
C178 C177 1.378 . S
C178 C179 1.396 . S
C179 H164 0.940 . S
C179 C174 1.391 . S
C179 C178 1.396 . S
C180 P160 1.803 . S
C180 C181 1.378 . S
C180 C185 1.400 . S
C181 H165 0.939 . S
C181 C180 1.378 . S
C181 C182 1.361 . S
C182 H166 0.942 . S
C182 C181 1.361 . S
C182 C183 1.369 . S
C183 C182 1.369 . S
C183 C184 1.404 . S
C184 H167 0.940 . S
C184 C183 1.404 . S
C184 C185 1.389 . S
C185 H168 0.939 . S
C185 C180 1.400 . S
C185 C184 1.389 . S
C186 P160 1.819 . S
C186 C187 1.391 . S
C186 C191 1.391 . S
C187 H169 0.941 . S
C187 C186 1.391 . S
C187 C188 1.396 . S
C188 H172 0.939 . S
C188 C187 1.396 . S
C188 C189 1.397 . S
C189 C188 1.397 . S
C189 C190 1.385 . S
C190 H173 0.940 . S
C190 C189 1.385 . S
C190 C191 1.388 . S
C191 H170 0.939 . S
C191 C186 1.391 . S
C191 C190 1.388 . S
P192 O203 1.490 . S
P192 C206 1.812 . S
P192 C212 1.803 . S
P192 C218 1.819 . S
H193 C207 0.941 . S
H194 C208 0.939 . S
H195 C210 0.940 . S
H196 C211 0.940 . S
H197 C213 0.939 . S
H198 C214 0.942 . S
H199 C216 0.940 . S
H200 C217 0.939 . S
H201 C219 0.941 . S
H202 C223 0.939 . S
O203 P192 1.490 . S
H204 C220 0.939 . S
H205 C222 0.940 . S
C206 P192 1.812 . S
C206 C207 1.389 . S
C206 C211 1.391 . S
C207 H193 0.941 . S
C207 C206 1.389 . S
C207 C208 1.397 . S
C208 H194 0.939 . S
C208 C207 1.397 . S
C208 C209 1.378 . S
C209 C208 1.378 . S
C209 C210 1.378 . S
C210 H195 0.940 . S
C210 C209 1.378 . S
C210 C211 1.396 . S
C211 H196 0.940 . S
C211 C206 1.391 . S
C211 C210 1.396 . S
C212 P192 1.803 . S
C212 C213 1.378 . S
C212 C217 1.400 . S
C213 H197 0.939 . S
C213 C212 1.378 . S
C213 C214 1.361 . S
C214 H198 0.942 . S
C214 C213 1.361 . S
C214 C215 1.369 . S
C215 C214 1.369 . S
C215 C216 1.404 . S
C216 H199 0.940 . S
C216 C215 1.404 . S
C216 C217 1.389 . S
C217 H200 0.939 . S
C217 C212 1.400 . S
C217 C216 1.389 . S
C218 P192 1.819 . S
C218 C219 1.391 . S
C218 C223 1.391 . S
C219 H201 0.941 . S
C219 C218 1.391 . S
C219 C220 1.396 . S
C220 H204 0.939 . S
C220 C219 1.396 . S
C220 C221 1.397 . S
C221 C220 1.397 . S
C221 C222 1.385 . S
C222 H205 0.940 . S
C222 C221 1.385 . S
C222 C223 1.388 . S
C223 H202 0.939 . S
C223 C218 1.391 . S
C223 C222 1.388 . S
P224 O235 1.490 . S
P224 C238 1.812 . S
P224 C244 1.803 . S
P224 C250 1.819 . S
H225 C239 0.941 . S
H226 C240 0.939 . S
H227 C242 0.940 . S
H228 C243 0.940 . S
H229 C245 0.939 . S
H230 C246 0.942 . S
H231 C248 0.940 . S
H232 C249 0.939 . S
H233 C251 0.941 . S
H234 C255 0.939 . S
O235 P224 1.490 . S
H236 C252 0.939 . S
H237 C254 0.940 . S
C238 P224 1.812 . S
C238 C239 1.389 . S
C238 C243 1.391 . S
C239 H225 0.941 . S
C239 C238 1.389 . S
C239 C240 1.397 . S
C240 H226 0.939 . S
C240 C239 1.397 . S
C240 C241 1.378 . S
C241 C240 1.378 . S
C241 C242 1.378 . S
C242 H227 0.940 . S
C242 C241 1.378 . S
C242 C243 1.396 . S
C243 H228 0.940 . S
C243 C238 1.391 . S
C243 C242 1.396 . S
C244 P224 1.803 . S
C244 C245 1.378 . S
C244 C249 1.400 . S
C245 H229 0.939 . S
C245 C244 1.378 . S
C245 C246 1.361 . S
C246 H230 0.942 . S
C246 C245 1.361 . S
C246 C247 1.369 . S
C247 C246 1.369 . S
C247 C248 1.404 . S
C248 H231 0.940 . S
C248 C247 1.404 . S
C248 C249 1.389 . S
C249 H232 0.939 . S
C249 C244 1.400 . S
C249 C248 1.389 . S
C250 P224 1.819 . S
C250 C251 1.391 . S
C250 C255 1.391 . S
C251 H233 0.941 . S
C251 C250 1.391 . S
C251 C252 1.396 . S
C252 H236 0.939 . S
C252 C251 1.396 . S
C252 C253 1.397 . S
C253 C252 1.397 . S
C253 C254 1.385 . S
C254 H237 0.940 . S
C254 C253 1.385 . S
C254 C255 1.388 . S
C255 H234 0.939 . S
C255 C250 1.391 . S
C255 C254 1.388 . S
O256 Mg257 1.990 . S
O256 C270 1.253 1_445 S
Mg257 O256 1.990 . S
Mg257 O260 2.180 . S
Mg257 O261 2.117 . S
Mg257 O275 2.030 1_545 S
O258 Mg259 2.072 1_665 S
O258 C270 1.260 . S
Mg259 O258 2.072 1_445 S
Mg259 O260 2.099 . S
Mg259 O262 2.079 . S
Mg259 O263 2.072 1_455 S
Mg259 O265 2.099 1_445 S
Mg259 O276 2.079 1_545 S
O260 Mg257 2.180 . S
O260 Mg259 2.099 . S
O260 C271 1.279 . S
O261 Mg257 2.117 . S
O261 C271 1.250 . S
O262 Mg259 2.079 . S
O262 C272 1.264 . S
O263 Mg259 2.072 1_655 S
O263 C273 1.260 . S
Mg264 O265 2.180 . S
Mg264 O266 2.030 1_565 S
Mg264 O267 1.990 1_565 S
Mg264 O268 2.117 . S
O265 Mg259 2.099 1_665 S
O265 Mg264 2.180 . S
O265 C274 1.279 . S
O266 Mg264 2.030 1_545 S
O266 C272 1.248 1_655 S
O267 Mg264 1.990 1_545 S
O267 C273 1.253 . S
O268 Mg264 2.117 . S
O268 C274 1.250 . S
C269 O275 1.248 . S
C269 O276 1.264 . S
C270 O256 1.253 1_665 S
C270 O258 1.260 . S
C271 O260 1.279 . S
C271 O261 1.250 . S
C272 O262 1.264 . S
C272 O266 1.248 1_455 S
C273 O263 1.260 . S
C273 O267 1.253 . S
C274 O265 1.279 . S
C274 O268 1.250 . S
O275 Mg257 2.030 1_565 S
O275 C269 1.248 . S
O276 Mg259 2.079 1_565 S
O276 C269 1.264 . S
O277 Mg278 1.990 . S
O277 C291 1.253 . S
Mg278 O277 1.990 . S
Mg278 O281 2.180 . S
Mg278 O282 2.117 1_554 S
Mg278 O296 2.030 . S
O279 Mg280 2.072 . S
O279 C291 1.260 . S
Mg280 O279 2.072 . S
Mg280 O281 2.099 . S
Mg280 O283 2.079 1_554 S
Mg280 O284 2.072 1_554 S
Mg280 O286 2.099 1_545 S
Mg280 O297 2.079 . S
O281 Mg278 2.180 . S
O281 Mg280 2.099 . S
O281 C292 1.279 1_554 S
O282 Mg278 2.117 1_556 S
O282 C292 1.250 . S
O283 Mg280 2.079 1_556 S
O283 C293 1.264 1_545 S
O284 Mg280 2.072 1_556 S
O284 C294 1.260 1_545 S
Mg285 O286 2.180 1_556 S
Mg285 O287 2.030 . S
Mg285 O288 1.990 . S
Mg285 O289 2.117 1_556 S
O286 Mg280 2.099 1_565 S
O286 Mg285 2.180 1_554 S
O286 C295 1.279 . S
O287 Mg285 2.030 . S
O287 C293 1.248 . S
O288 Mg285 1.990 . S
O288 C294 1.253 . S
O289 Mg285 2.117 1_554 S
O289 C295 1.250 . S
C290 O296 1.248 . S
C290 O297 1.264 . S
C291 O277 1.253 . S
C291 O279 1.260 . S
C292 O281 1.279 1_556 S
C292 O282 1.250 . S
C293 O283 1.264 1_565 S
C293 O287 1.248 . S
C294 O284 1.260 1_565 S
C294 O288 1.253 . S
C295 O286 1.279 . S
C295 O289 1.250 . S
O296 Mg278 2.030 . S
O296 C290 1.248 . S
O297 Mg280 2.079 . S
O297 C290 1.264 . S
O298 Mg299 1.990 . S
O298 C312 1.253 . S
Mg299 O298 1.990 . S
Mg299 O302 2.180 . S
Mg299 O303 2.117 . S
Mg299 O317 2.030 . S
O300 Mg301 2.072 . S
O300 C312 1.260 . S
Mg301 O300 2.072 . S
Mg301 O302 2.099 . S
Mg301 O304 2.079 . S
Mg301 O305 2.072 . S
Mg301 O307 2.099 . S
Mg301 O318 2.079 . S
O302 Mg299 2.180 . S
O302 Mg301 2.099 . S
O302 C313 1.279 . S
O303 Mg299 2.117 . S
O303 C313 1.250 . S
O304 Mg301 2.079 . S
O304 C314 1.264 . S
O305 Mg301 2.072 . S
O305 C315 1.260 . S
Mg306 O307 2.180 . S
Mg306 O308 2.030 . S
Mg306 O309 1.990 . S
Mg306 O310 2.117 . S
O307 Mg301 2.099 . S
O307 Mg306 2.180 . S
O307 C316 1.279 . S
O308 Mg306 2.030 . S
O308 C314 1.248 . S
O309 Mg306 1.990 . S
O309 C315 1.253 . S
O310 Mg306 2.117 . S
O310 C316 1.250 . S
C311 O317 1.248 . S
C311 O318 1.264 . S
C312 O298 1.253 . S
C312 O300 1.260 . S
C313 O302 1.279 . S
C313 O303 1.250 . S
C314 O304 1.264 . S
C314 O308 1.248 . S
C315 O305 1.260 . S
C315 O309 1.253 . S
C316 O307 1.279 . S
C316 O310 1.250 . S
O317 Mg299 2.030 . S
O317 C311 1.248 . S
O318 Mg301 2.079 . S
O318 C311 1.264 . S
O319 Mg320 1.990 . S
O319 C333 1.253 . S
Mg320 O319 1.990 . S
Mg320 O323 2.180 1_455 S
Mg320 O324 2.117 1_455 S
Mg320 O338 2.030 . S
O321 Mg322 2.072 . S
O321 C333 1.260 . S
Mg322 O321 2.072 . S
Mg322 O323 2.099 1_455 S
Mg322 O325 2.079 1_454 S
Mg322 O326 2.072 1_455 S
Mg322 O328 2.099 1_554 S
Mg322 O339 2.079 . S
O323 Mg320 2.180 1_655 S
O323 Mg322 2.099 1_655 S
O323 C334 1.279 . S
O324 Mg320 2.117 1_655 S
O324 C334 1.250 . S
O325 Mg322 2.079 1_656 S
O325 C335 1.264 . S
O326 Mg322 2.072 1_655 S
O326 C336 1.260 1_554 S
Mg327 O328 2.180 1_655 S
Mg327 O329 2.030 . S
Mg327 O330 1.990 . S
Mg327 O331 2.117 . S
O328 Mg322 2.099 1_556 S
O328 Mg327 2.180 1_455 S
O328 C337 1.279 . S
O329 Mg327 2.030 . S
O329 C335 1.248 . S
O330 Mg327 1.990 . S
O330 C336 1.253 . S
O331 Mg327 2.117 . S
O331 C337 1.250 1_655 S
C332 O338 1.248 . S
C332 O339 1.264 . S
C333 O319 1.253 . S
C333 O321 1.260 . S
C334 O323 1.279 . S
C334 O324 1.250 . S
C335 O325 1.264 . S
C335 O329 1.248 . S
C336 O326 1.260 1_556 S
C336 O330 1.253 . S
C337 O328 1.279 . S
C337 O331 1.250 1_455 S
O338 Mg320 2.030 . S
O338 C332 1.248 . S
O339 Mg322 2.079 . S
O339 C332 1.264 . S
H340 C348 0.950 . S
H341 C353 0.950 . S
H342 C350 0.950 . S
H343 C352 0.950 . S
H344 C354 0.950 . S
H345 C356 0.950 . S
H346 C358 0.950 . S
H347 C359 0.950 . S
C348 H340 0.950 . S
C348 C349 1.386 . S
C348 C350 1.391 . S
C349 C348 1.386 . S
C349 C353 1.393 . S
C350 H342 0.950 . S
C350 C348 1.391 . S
C350 C351 1.400 . S
C351 C350 1.400 . S
C351 C352 1.398 . S
C351 C357 1.491 . S
C352 H343 0.950 . S
C352 C351 1.398 . S
C352 C353 1.391 . S
C353 H341 0.950 . S
C353 C349 1.393 . S
C353 C352 1.391 . S
C354 H344 0.950 . S
C354 C355 1.386 . S
C354 C356 1.391 . S
C355 C354 1.386 . S
C355 C359 1.393 . S
C356 H345 0.950 . S
C356 C354 1.391 . S
C356 C357 1.400 . S
C357 C351 1.491 . S
C357 C356 1.400 . S
C357 C358 1.398 . S
C358 H346 0.950 . S
C358 C357 1.398 . S
C358 C359 1.391 . S
C359 H347 0.950 . S
C359 C355 1.393 . S
C359 C358 1.391 . S
H360 C368 0.950 . S
H361 C373 0.950 . S
H362 C370 0.950 . S
H363 C372 0.950 . S
H364 C374 0.950 1_545 S
H365 C376 0.950 . S
H366 C378 0.950 . S
H367 C379 0.950 . S
C368 H360 0.950 . S
C368 C369 1.386 . S
C368 C370 1.391 . S
C369 C368 1.386 . S
C369 C373 1.393 . S
C370 H362 0.950 . S
C370 C368 1.391 . S
C370 C371 1.400 . S
C371 C370 1.400 . S
C371 C372 1.398 . S
C371 C377 1.491 . S
C372 H363 0.950 . S
C372 C371 1.398 . S
C372 C373 1.391 . S
C373 H361 0.950 . S
C373 C369 1.393 . S
C373 C372 1.391 . S
C374 H364 0.950 1_565 S
C374 C375 1.386 . S
C374 C376 1.391 . S
C375 C374 1.386 . S
C375 C379 1.393 . S
C376 H365 0.950 . S
C376 C374 1.391 . S
C376 C377 1.400 . S
C377 C371 1.491 . S
C377 C376 1.400 . S
C377 C378 1.398 . S
C378 H366 0.950 . S
C378 C377 1.398 . S
C378 C379 1.391 . S
C379 H367 0.950 . S
C379 C375 1.393 . S
C379 C378 1.391 . S
H380 C388 0.950 . S
H381 C393 0.950 . S
H382 C390 0.950 . S
H383 C392 0.950 . S
H384 C394 0.950 . S
H385 C396 0.950 . S
H386 C398 0.950 . S
H387 C399 0.950 . S
C388 H380 0.950 . S
C388 C389 1.386 . S
C388 C390 1.391 . S
C389 C388 1.386 . S
C389 C393 1.393 . S
C390 H382 0.950 . S
C390 C388 1.391 . S
C390 C391 1.400 . S
C391 C390 1.400 . S
C391 C392 1.398 . S
C391 C397 1.491 . S
C392 H383 0.950 . S
C392 C391 1.398 . S
C392 C393 1.391 . S
C393 H381 0.950 . S
C393 C389 1.393 . S
C393 C392 1.391 . S
C394 H384 0.950 . S
C394 C395 1.386 . S
C394 C396 1.391 . S
C395 C394 1.386 . S
C395 C399 1.393 . S
C396 H385 0.950 . S
C396 C394 1.391 . S
C396 C397 1.400 . S
C397 C391 1.491 . S
C397 C396 1.400 . S
C397 C398 1.398 . S
C398 H386 0.950 . S
C398 C397 1.398 . S
C398 C399 1.391 . S
C399 H387 0.950 . S
C399 C395 1.393 . S
C399 C398 1.391 . S
H400 C408 0.950 . S
H401 C413 0.950 . S
H402 C410 0.950 . S
H403 C412 0.950 . S
H404 C414 0.950 1_455 S
H405 C416 0.950 . S
H406 C418 0.950 . S
H407 C419 0.950 . S
C408 H400 0.950 . S
C408 C409 1.386 . S
C408 C410 1.391 . S
C409 C408 1.386 . S
C409 C413 1.393 . S
C410 H402 0.950 . S
C410 C408 1.391 . S
C410 C411 1.400 . S
C411 C410 1.400 . S
C411 C412 1.398 . S
C411 C417 1.491 . S
C412 H403 0.950 . S
C412 C411 1.398 . S
C412 C413 1.391 . S
C413 H401 0.950 . S
C413 C409 1.393 . S
C413 C412 1.391 . S
C414 H404 0.950 1_655 S
C414 C415 1.386 . S
C414 C416 1.391 . S
C415 C414 1.386 . S
C415 C419 1.393 . S
C416 H405 0.950 . S
C416 C414 1.391 . S
C416 C417 1.400 . S
C417 C411 1.491 . S
C417 C416 1.400 . S
C417 C418 1.398 . S
C418 H406 0.950 . S
C418 C417 1.398 . S
C418 C419 1.391 . S
C419 H407 0.950 . S
C419 C415 1.393 . S
C419 C418 1.391 . S
H420 C428 0.950 . S
H421 C433 0.950 . S
H422 C430 0.950 . S
H423 C432 0.950 . S
H424 C434 0.972 . S
H425 C436 0.950 . S
H426 C438 0.950 . S
H427 C439 0.950 . S
C428 H420 0.950 . S
C428 C429 1.386 . S
C428 C430 1.391 . S
C429 C428 1.386 . S
C429 C433 1.393 . S
C430 H422 0.950 . S
C430 C428 1.391 . S
C430 C431 1.400 . S
C431 C430 1.400 . S
C431 C432 1.398 . S
C431 C437 1.491 . S
C432 H423 0.950 . S
C432 C431 1.398 . S
C432 C433 1.391 . S
C433 H421 0.950 . S
C433 C429 1.393 . S
C433 C432 1.391 . S
C434 H424 0.972 . S
C434 C435 1.386 . S
C434 C436 1.391 . S
C435 C434 1.386 . S
C435 C439 1.393 . S
C436 H425 0.950 . S
C436 C434 1.391 . S
C436 C437 1.400 . S
C437 C431 1.491 . S
C437 C436 1.400 . S
C437 C438 1.398 . S
C438 H426 0.950 . S
C438 C437 1.398 . S
C438 C439 1.391 . S
C439 H427 0.950 . S
C439 C435 1.393 . S
C439 C438 1.391 . S
H440 C448 0.950 . S
H441 C453 0.950 . S
H442 C450 0.950 . S
H443 C452 0.950 . S
H444 C454 0.950 1_545 S
H445 C456 0.950 . S
H446 C458 0.950 . S
H447 C459 0.950 . S
C448 H440 0.950 . S
C448 C449 1.386 . S
C448 C450 1.391 . S
C449 C448 1.386 . S
C449 C453 1.393 . S
C450 H442 0.950 . S
C450 C448 1.391 . S
C450 C451 1.400 . S
C451 C450 1.400 . S
C451 C452 1.398 . S
C451 C457 1.491 . S
C452 H443 0.950 . S
C452 C451 1.398 . S
C452 C453 1.391 . S
C453 H441 0.950 . S
C453 C449 1.393 . S
C453 C452 1.391 . S
C454 H444 0.950 1_565 S
C454 C455 1.386 . S
C454 C456 1.391 . S
C455 C454 1.386 . S
C455 C459 1.393 . S
C456 H445 0.950 . S
C456 C454 1.391 . S
C456 C457 1.400 . S
C457 C451 1.491 . S
C457 C456 1.400 . S
C457 C458 1.398 . S
C458 H446 0.950 . S
C458 C457 1.398 . S
C458 C459 1.391 . S
C459 H447 0.950 . S
C459 C455 1.393 . S
C459 C458 1.391 . S
H460 C468 0.950 . S
H461 C473 0.950 . S
H462 C470 0.950 . S
H463 C472 0.950 . S
H464 C474 0.950 1_554 S
H465 C476 0.950 . S
H466 C478 0.950 . S
H467 C479 0.950 . S
C468 H460 0.950 . S
C468 C469 1.386 . S
C468 C470 1.391 . S
C469 C468 1.386 . S
C469 C473 1.393 . S
C470 H462 0.950 . S
C470 C468 1.391 . S
C470 C471 1.400 . S
C471 C470 1.400 . S
C471 C472 1.398 . S
C471 C477 1.491 . S
C472 H463 0.950 . S
C472 C471 1.398 . S
C472 C473 1.391 . S
C473 H461 0.950 . S
C473 C469 1.393 . S
C473 C472 1.391 . S
C474 H464 0.950 1_556 S
C474 C475 1.386 . S
C474 C476 1.391 . S
C475 C474 1.386 . S
C475 C479 1.393 . S
C476 H465 0.950 . S
C476 C474 1.391 . S
C476 C477 1.400 . S
C477 C471 1.491 . S
C477 C476 1.400 . S
C477 C478 1.398 . S
C478 H466 0.950 . S
C478 C477 1.398 . S
C478 C479 1.391 . S
C479 H467 0.950 . S
C479 C475 1.393 . S
C479 C478 1.391 . S
H480 C488 0.950 . S
H481 C493 0.950 . S
H482 C490 0.950 . S
H483 C492 0.950 . S
H484 C494 0.950 . S
H485 C496 0.950 . S
H486 C498 0.950 . S
H487 C499 0.950 . S
C488 H480 0.950 . S
C488 C489 1.386 . S
C488 C490 1.391 . S
C489 C488 1.386 . S
C489 C493 1.393 . S
C490 H482 0.950 . S
C490 C488 1.391 . S
C490 C491 1.400 . S
C491 C490 1.400 . S
C491 C492 1.398 . S
C491 C497 1.491 . S
C492 H483 0.950 . S
C492 C491 1.398 . S
C492 C493 1.391 . S
C493 H481 0.950 . S
C493 C489 1.393 . S
C493 C492 1.391 . S
C494 H484 0.950 . S
C494 C495 1.386 . S
C494 C496 1.391 . S
C495 C494 1.386 . S
C495 C499 1.393 . S
C496 H485 0.950 . S
C496 C494 1.391 . S
C496 C497 1.400 . S
C497 C491 1.491 . S
C497 C496 1.400 . S
C497 C498 1.398 . S
C498 H486 0.950 . S
C498 C497 1.398 . S
C498 C499 1.391 . S
C499 H487 0.950 . S
C499 C495 1.393 . S
C499 C498 1.391 . S
H500 C508 0.950 . S
H501 C513 0.950 . S
H502 C510 0.950 . S
H503 C512 0.950 . S
H504 C514 0.950 1_556 S
H505 C516 0.950 . S
H506 C518 0.950 . S
H507 C519 0.950 . S
C508 H500 0.950 . S
C508 C509 1.386 . S
C508 C510 1.391 . S
C509 C508 1.386 . S
C509 C513 1.393 . S
C510 H502 0.950 . S
C510 C508 1.391 . S
C510 C511 1.400 . S
C511 C510 1.400 . S
C511 C512 1.398 . S
C511 C517 1.491 . S
C512 H503 0.950 . S
C512 C511 1.398 . S
C512 C513 1.391 . S
C513 H501 0.950 . S
C513 C509 1.393 . S
C513 C512 1.391 . S
C514 H504 0.950 1_554 S
C514 C515 1.386 . S
C514 C516 1.391 . S
C515 C514 1.386 . S
C515 C519 1.393 . S
C516 H505 0.950 . S
C516 C514 1.391 . S
C516 C517 1.400 . S
C517 C511 1.491 . S
C517 C516 1.400 . S
C517 C518 1.398 . S
C518 H506 0.950 . S
C518 C517 1.398 . S
C518 C519 1.391 . S
C519 H507 0.950 . S
C519 C515 1.393 . S
C519 C518 1.391 . S
H520 C528 0.950 . S
H521 C533 0.950 . S
H522 C530 0.950 . S
H523 C532 0.950 . S
H524 C534 0.950 . S
H525 C536 0.950 . S
H526 C538 0.950 . S
H527 C539 0.950 . S
C528 H520 0.950 . S
C528 C529 1.386 . S
C528 C530 1.391 . S
C529 C528 1.386 . S
C529 C533 1.393 . S
C530 H522 0.950 . S
C530 C528 1.391 . S
C530 C531 1.400 . S
C531 C530 1.400 . S
C531 C532 1.398 . S
C531 C537 1.491 . S
C532 H523 0.950 . S
C532 C531 1.398 . S
C532 C533 1.391 . S
C533 H521 0.950 . S
C533 C529 1.393 . S
C533 C532 1.391 . S
C534 H524 0.950 . S
C534 C535 1.386 . S
C534 C536 1.391 . S
C535 C534 1.386 . S
C535 C539 1.393 . S
C536 H525 0.950 . S
C536 C534 1.391 . S
C536 C537 1.400 . S
C537 C531 1.491 . S
C537 C536 1.400 . S
C537 C538 1.398 . S
C538 H526 0.950 . S
C538 C537 1.398 . S
C538 C539 1.391 . S
C539 H527 0.950 . S
C539 C535 1.393 . S
C539 C538 1.391 . S
H540 C548 0.950 . S
H541 C553 0.950 . S
H542 C550 0.950 . S
H543 C552 0.950 . S
H544 C554 0.950 . S
H545 C556 0.950 . S
H546 C558 0.950 . S
H547 C559 0.950 1_455 S
C548 H540 0.950 . S
C548 C549 1.386 . S
C548 C550 1.391 . S
C549 C548 1.386 . S
C549 C553 1.393 . S
C550 H542 0.950 . S
C550 C548 1.391 . S
C550 C551 1.400 . S
C551 C550 1.400 . S
C551 C552 1.398 . S
C551 C557 1.491 . S
C552 H543 0.950 . S
C552 C551 1.398 . S
C552 C553 1.391 . S
C553 H541 0.950 . S
C553 C549 1.393 . S
C553 C552 1.391 . S
C554 H544 0.950 . S
C554 C555 1.386 . S
C554 C556 1.391 . S
C555 C554 1.386 . S
C555 C559 1.393 . S
C556 H545 0.950 . S
C556 C554 1.391 . S
C556 C557 1.400 . S
C557 C551 1.491 . S
C557 C556 1.400 . S
C557 C558 1.398 . S
C558 H546 0.950 . S
C558 C557 1.398 . S
C558 C559 1.391 . S
C559 H547 0.950 1_655 S
C559 C555 1.393 . S
C559 C558 1.391 . S
H560 C568 0.950 . S
H561 C573 0.950 . S
H562 C570 0.950 . S
H563 C572 0.950 . S
H564 C574 0.950 . S
H565 C576 0.950 . S
H566 C578 0.950 . S
H567 C579 0.950 . S
C568 H560 0.950 . S
C568 C569 1.386 . S
C568 C570 1.391 . S
C569 C568 1.386 . S
C569 C573 1.393 . S
C570 H562 0.950 . S
C570 C568 1.391 . S
C570 C571 1.400 . S
C571 C570 1.400 . S
C571 C572 1.398 . S
C571 C577 1.491 . S
C572 H563 0.950 . S
C572 C571 1.398 . S
C572 C573 1.391 . S
C573 H561 0.950 . S
C573 C569 1.393 . S
C573 C572 1.391 . S
C574 H564 0.950 . S
C574 C575 1.386 . S
C574 C576 1.391 . S
C575 C574 1.386 . S
C575 C579 1.393 . S
C576 H565 0.950 . S
C576 C574 1.391 . S
C576 C577 1.400 . S
C577 C571 1.491 . S
C577 C576 1.400 . S
C577 C578 1.398 . S
C578 H566 0.950 . S
C578 C577 1.398 . S
C578 C579 1.391 . S
C579 H567 0.950 . S
C579 C575 1.393 . S
C579 C578 1.391 . S
H580 C588 0.950 . S
H581 C593 0.950 . S
H582 C590 0.950 . S
H583 C592 0.950 . S
H584 C594 0.950 1_455 S
H585 C596 0.950 . S
H586 C598 0.950 . S
H587 C599 0.950 . S
C588 H580 0.950 . S
C588 C589 1.386 . S
C588 C590 1.391 . S
C589 C588 1.386 . S
C589 C593 1.393 . S
C590 H582 0.950 . S
C590 C588 1.391 . S
C590 C591 1.400 . S
C591 C590 1.400 . S
C591 C592 1.398 . S
C591 C597 1.491 . S
C592 H583 0.950 . S
C592 C591 1.398 . S
C592 C593 1.391 . S
C593 H581 0.950 . S
C593 C589 1.393 . S
C593 C592 1.391 . S
C594 H584 0.950 1_655 S
C594 C595 1.386 . S
C594 C596 1.391 . S
C595 C594 1.386 . S
C595 C599 1.393 . S
C596 H585 0.950 . S
C596 C594 1.391 . S
C596 C597 1.400 . S
C597 C591 1.491 . S
C597 C596 1.400 . S
C597 C598 1.398 . S
C598 H586 0.950 . S
C598 C597 1.398 . S
C598 C599 1.391 . S
C599 H587 0.950 . S
C599 C595 1.393 . S
C599 C598 1.391 . S
H600 C608 0.950 . S
H601 C613 0.950 . S
H602 C610 0.950 . S
H603 C612 0.950 . S
H604 C614 0.950 . S
H605 C616 0.950 . S
H606 C618 0.950 . S
H607 C619 0.950 . S
C608 H600 0.950 . S
C608 C609 1.386 . S
C608 C610 1.391 . S
C609 C608 1.386 . S
C609 C613 1.393 . S
C610 H602 0.950 . S
C610 C608 1.391 . S
C610 C611 1.400 . S
C611 C610 1.400 . S
C611 C612 1.398 . S
C611 C617 1.491 . S
C612 H603 0.950 . S
C612 C611 1.398 . S
C612 C613 1.391 . S
C613 H601 0.950 . S
C613 C609 1.393 . S
C613 C612 1.391 . S
C614 H604 0.950 . S
C614 C615 1.386 . S
C614 C616 1.391 . S
C615 C614 1.386 . S
C615 C619 1.393 . S
C616 H605 0.950 . S
C616 C614 1.391 . S
C616 C617 1.400 . S
C617 C611 1.491 . S
C617 C616 1.400 . S
C617 C618 1.398 . S
C618 H606 0.950 . S
C618 C617 1.398 . S
C618 C619 1.391 . S
C619 H607 0.950 . S
C619 C615 1.393 . S
C619 C618 1.391 . S
H620 C628 0.950 . S
H621 C633 0.950 . S
H622 C630 0.950 . S
H623 C632 0.950 . S
H624 C634 0.950 . S
H625 C636 0.950 . S
H626 C638 0.950 . S
H627 C639 0.950 . S
C628 H620 0.950 . S
C628 C629 1.386 . S
C628 C630 1.391 . S
C629 C628 1.386 . S
C629 C633 1.393 . S
C630 H622 0.950 . S
C630 C628 1.391 . S
C630 C631 1.400 . S
C631 C630 1.400 . S
C631 C632 1.398 . S
C631 C637 1.491 . S
C632 H623 0.950 . S
C632 C631 1.398 . S
C632 C633 1.391 . S
C633 H621 0.950 . S
C633 C629 1.393 . S
C633 C632 1.391 . S
C634 H624 0.950 . S
C634 C635 1.386 . S
C634 C636 1.391 . S
C635 C634 1.386 . S
C635 C639 1.393 . S
C636 H625 0.950 . S
C636 C634 1.391 . S
C636 C637 1.400 . S
C637 C631 1.491 . S
C637 C636 1.400 . S
C637 C638 1.398 . S
C638 H626 0.950 . S
C638 C637 1.398 . S
C638 C639 1.391 . S
C639 H627 0.950 . S
C639 C635 1.393 . S
C639 C638 1.391 . S
H640 C648 0.950 . S
H641 C653 0.950 . S
H642 C650 0.950 . S
H643 C652 0.950 . S
H644 C654 0.950 . S
H645 C656 0.950 . S
H646 C658 0.950 . S
H647 C659 0.950 1_655 S
C648 H640 0.950 . S
C648 C649 1.386 . S
C648 C650 1.391 . S
C649 C648 1.386 . S
C649 C653 1.393 . S
C650 H642 0.950 . S
C650 C648 1.391 . S
C650 C651 1.400 . S
C651 C650 1.400 . S
C651 C652 1.398 . S
C651 C657 1.491 . S
C652 H643 0.950 . S
C652 C651 1.398 . S
C652 C653 1.391 . S
C653 H641 0.950 . S
C653 C649 1.393 . S
C653 C652 1.391 . S
C654 H644 0.950 . S
C654 C655 1.386 . S
C654 C656 1.391 . S
C655 C654 1.386 . S
C655 C659 1.393 . S
C656 H645 0.950 . S
C656 C654 1.391 . S
C656 C657 1.400 . S
C657 C651 1.491 . S
C657 C656 1.400 . S
C657 C658 1.398 . S
C658 H646 0.950 . S
C658 C657 1.398 . S
C658 C659 1.391 . S
C659 H647 0.950 1_455 S
C659 C655 1.393 . S
C659 C658 1.391 . S
H660 C668 0.950 . S
H661 C673 0.950 . S
H662 C670 0.950 . S
H663 C672 0.950 . S
H664 C674 0.950 . S
H665 C676 0.950 . S
H666 C678 0.950 . S
H667 C679 0.950 1_554 S
C668 H660 0.950 . S
C668 C669 1.386 . S
C668 C670 1.391 . S
C669 C668 1.386 . S
C669 C673 1.393 . S
C670 H662 0.950 . S
C670 C668 1.391 . S
C670 C671 1.400 . S
C671 C670 1.400 . S
C671 C672 1.398 . S
C671 C677 1.491 . S
C672 H663 0.950 . S
C672 C671 1.398 . S
C672 C673 1.391 . S
C673 H661 0.950 . S
C673 C669 1.393 . S
C673 C672 1.391 . S
C674 H664 0.950 . S
C674 C675 1.386 . S
C674 C676 1.391 . S
C675 C674 1.386 . S
C675 C679 1.393 . S
C676 H665 0.950 . S
C676 C674 1.391 . S
C676 C677 1.400 . S
C677 C671 1.491 . S
C677 C676 1.400 . S
C677 C678 1.398 . S
C678 H666 0.950 . S
C678 C677 1.398 . S
C678 C679 1.391 . S
C679 H667 0.950 1_556 S
C679 C675 1.393 . S
C679 C678 1.391 . S
H680 C688 0.950 . S
H681 C693 0.950 . S
H682 C690 0.950 . S
H683 C692 0.950 . S
H684 C694 0.950 . S
H685 C696 0.950 . S
H686 C698 0.950 . S
H687 C699 0.955 . S
C688 H680 0.950 . S
C688 C689 1.386 . S
C688 C690 1.391 . S
C689 C688 1.386 . S
C689 C693 1.393 . S
C690 H682 0.950 . S
C690 C688 1.391 . S
C690 C691 1.400 . S
C691 C690 1.400 . S
C691 C692 1.398 . S
C691 C697 1.491 . S
C692 H683 0.950 . S
C692 C691 1.398 . S
C692 C693 1.391 . S
C693 H681 0.950 . S
C693 C689 1.393 . S
C693 C692 1.391 . S
C694 H684 0.950 . S
C694 C695 1.386 . S
C694 C696 1.391 . S
C695 C694 1.386 . S
C695 C699 1.393 . S
C696 H685 0.950 . S
C696 C694 1.391 . S
C696 C697 1.400 . S
C697 C691 1.491 . S
C697 C696 1.400 . S
C697 C698 1.398 . S
C698 H686 0.950 . S
C698 C697 1.398 . S
C698 C699 1.391 . S
C699 H687 0.955 . S
C699 C695 1.393 . S
C699 C698 1.391 . S
H700 C708 0.950 . S
H701 C713 0.950 . S
H702 C710 0.950 . S
H703 C712 0.950 . S
H704 C714 0.950 1_556 S
H705 C716 0.950 . S
H706 C718 0.950 . S
H707 C719 0.950 . S
C708 H700 0.950 . S
C708 C709 1.386 . S
C708 C710 1.391 . S
C709 C708 1.386 . S
C709 C713 1.393 . S
C710 H702 0.950 . S
C710 C708 1.391 . S
C710 C711 1.400 . S
C711 C710 1.400 . S
C711 C712 1.398 . S
C711 C717 1.491 . S
C712 H703 0.950 . S
C712 C711 1.398 . S
C712 C713 1.391 . S
C713 H701 0.950 . S
C713 C709 1.393 . S
C713 C712 1.391 . S
C714 H704 0.950 1_554 S
C714 C715 1.386 . S
C714 C716 1.391 . S
C715 C714 1.386 . S
C715 C719 1.393 . S
C716 H705 0.950 . S
C716 C714 1.391 . S
C716 C717 1.400 . S
C717 C711 1.491 . S
C717 C716 1.400 . S
C717 C718 1.398 . S
C718 H706 0.950 . S
C718 C717 1.398 . S
C718 C719 1.391 . S
C719 H707 0.950 . S
C719 C715 1.393 . S
C719 C718 1.391 . S
H720 C728 0.950 . S
H721 C733 0.950 . S
H722 C730 0.950 . S
H723 C732 0.950 . S
H724 C734 0.950 . S
H725 C736 0.950 . S
H726 C738 0.950 . S
H727 C739 0.950 . S
C728 H720 0.950 . S
C728 C729 1.386 . S
C728 C730 1.391 . S
C729 C728 1.386 . S
C729 C733 1.393 . S
C730 H722 0.950 . S
C730 C728 1.391 . S
C730 C731 1.400 . S
C731 C730 1.400 . S
C731 C732 1.398 . S
C731 C737 1.491 . S
C732 H723 0.950 . S
C732 C731 1.398 . S
C732 C733 1.391 . S
C733 H721 0.950 . S
C733 C729 1.393 . S
C733 C732 1.391 . S
C734 H724 0.950 . S
C734 C735 1.386 . S
C734 C736 1.391 . S
C735 C734 1.386 . S
C735 C739 1.393 . S
C736 H725 0.950 . S
C736 C734 1.391 . S
C736 C737 1.400 . S
C737 C731 1.491 . S
C737 C736 1.400 . S
C737 C738 1.398 . S
C738 H726 0.950 . S
C738 C737 1.398 . S
C738 C739 1.391 . S
C739 H727 0.950 . S
C739 C735 1.393 . S
C739 C738 1.391 . S
H740 C748 0.950 . S
H741 C753 0.950 . S
H742 C750 0.950 . S
H743 C752 0.950 . S
H744 C754 0.950 1_554 S
H745 C756 0.950 1_554 S
H746 C758 0.950 . S
H747 C759 0.950 . S
C748 H740 0.950 . S
C748 C749 1.386 . S
C748 C750 1.391 . S
C749 C748 1.386 . S
C749 C753 1.393 . S
C750 H742 0.950 . S
C750 C748 1.391 . S
C750 C751 1.400 . S
C751 C750 1.400 . S
C751 C752 1.398 . S
C751 C757 1.491 . S
C752 H743 0.950 . S
C752 C751 1.398 . S
C752 C753 1.391 . S
C753 H741 0.950 . S
C753 C749 1.393 . S
C753 C752 1.391 . S
C754 H744 0.950 1_556 S
C754 C755 1.386 . S
C754 C756 1.391 . S
C755 C754 1.386 . S
C755 C759 1.393 . S
C756 H745 0.950 1_556 S
C756 C754 1.391 . S
C756 C757 1.400 . S
C757 C751 1.491 . S
C757 C756 1.400 . S
C757 C758 1.398 . S
C758 H746 0.950 . S
C758 C757 1.398 . S
C758 C759 1.391 . S
C759 H747 0.950 . S
C759 C755 1.393 . S
C759 C758 1.391 . S
H760 C768 0.950 . S
H761 C773 0.950 . S
H762 C770 0.950 . S
H763 C772 0.950 . S
H764 C774 0.950 . S
H765 C776 0.950 . S
H766 C778 0.950 . S
H767 C779 0.950 . S
C768 H760 0.950 . S
C768 C769 1.386 . S
C768 C770 1.391 . S
C769 C768 1.386 . S
C769 C773 1.393 . S
C770 H762 0.950 . S
C770 C768 1.391 . S
C770 C771 1.400 . S
C771 C770 1.400 . S
C771 C772 1.398 . S
C771 C777 1.491 . S
C772 H763 0.950 . S
C772 C771 1.398 . S
C772 C773 1.391 . S
C773 H761 0.950 . S
C773 C769 1.393 . S
C773 C772 1.391 . S
C774 H764 0.950 . S
C774 C775 1.386 . S
C774 C776 1.391 . S
C775 C774 1.386 . S
C775 C779 1.393 . S
C776 H765 0.950 . S
C776 C774 1.391 . S
C776 C777 1.400 . S
C777 C771 1.491 . S
C777 C776 1.400 . S
C777 C778 1.398 . S
C778 H766 0.950 . S
C778 C777 1.398 . S
C778 C779 1.391 . S
C779 H767 0.950 . S
C779 C775 1.393 . S
C779 C778 1.391 . S
H780 C788 0.950 . S
H781 C793 0.950 . S
H782 C790 0.950 . S
H783 C792 0.950 . S
H784 C794 0.950 1_655 S
H785 C796 0.936 1_655 S
H786 C798 0.950 . S
H787 C799 0.950 . S
C788 H780 0.950 . S
C788 C789 1.386 . S
C788 C790 1.391 . S
C789 C788 1.386 . S
C789 C793 1.393 . S
C790 H782 0.950 . S
C790 C788 1.391 . S
C790 C791 1.400 . S
C791 C790 1.400 . S
C791 C792 1.398 . S
C791 C797 1.491 . S
C792 H783 0.950 . S
C792 C791 1.398 . S
C792 C793 1.391 . S
C793 H781 0.950 . S
C793 C789 1.393 . S
C793 C792 1.391 . S
C794 H784 0.950 1_455 S
C794 C795 1.386 . S
C794 C796 1.391 . S
C795 C794 1.386 . S
C795 C799 1.393 . S
C796 H785 0.936 1_455 S
C796 C794 1.391 . S
C796 C797 1.400 . S
C797 C791 1.491 . S
C797 C796 1.400 . S
C797 C798 1.398 . S
C798 H786 0.950 . S
C798 C797 1.398 . S
C798 C799 1.391 . S
C799 H787 0.950 . S
C799 C795 1.393 . S
C799 C798 1.391 . S
H800 C808 0.950 . S
H801 C813 0.950 . S
H802 C810 0.950 . S
H803 C812 0.950 . S
H804 C814 0.950 . S
H805 C816 0.950 . S
H806 C818 0.950 . S
H807 C819 0.950 . S
C808 H800 0.950 . S
C808 C809 1.386 . S
C808 C810 1.391 . S
C809 C808 1.386 . S
C809 C813 1.393 . S
C810 H802 0.950 . S
C810 C808 1.391 . S
C810 C811 1.400 . S
C811 C810 1.400 . S
C811 C812 1.398 . S
C811 C817 1.491 . S
C812 H803 0.950 . S
C812 C811 1.398 . S
C812 C813 1.391 . S
C813 H801 0.950 . S
C813 C809 1.393 . S
C813 C812 1.391 . S
C814 H804 0.950 . S
C814 C815 1.386 . S
C814 C816 1.391 . S
C815 C814 1.386 . S
C815 C819 1.393 . S
C816 H805 0.950 . S
C816 C814 1.391 . S
C816 C817 1.400 . S
C817 C811 1.491 . S
C817 C816 1.400 . S
C817 C818 1.398 . S
C818 H806 0.950 . S
C818 C817 1.398 . S
C818 C819 1.391 . S
C819 H807 0.950 . S
C819 C815 1.393 . S
C819 C818 1.391 . S
C349 C29 1.577 . S
C355 C272 1.601 . S
C369 C49 1.455 . S
C375 C294 1.390 . S
C395 C313 1.233 . S
C389 C93 1.421 . S
C409 C119 1.639 . S
C415 C334 1.412 . S
C435 C291 1.718 . S
C429 C17 1.726 . S
C455 C269 1.689 . S
C449 C61 1.741 . S
C475 C336 1.299 . S
C469 C81 1.313 . S
C495 C315 1.455 . S
C489 C125 1.403 . S
C509 C23 1.629 . S
C515 C333 1.650 . S
C535 C292 1.319 . S
C529 C87 1.521 . S
C549 C113 1.584 . S
C555 C274 1.521 . S
C569 C55 1.516 . S
C575 C312 1.487 . S
C595 C270 1.557 . S
C589 C157 1.600 . S
C609 C189 1.280 . S
C615 C290 1.305 . S
C629 C221 1.506 . S
C635 C316 1.263 . S
C649 C253 1.600 . S
C655 C337 1.375 . S
C669 C145 1.758 . S
C675 C293 1.710 . S
C695 C273 1.662 . S
C689 C183 1.646 . S
C715 C332 1.227 . S
C709 C209 1.277 . S
C735 C311 1.495 . S
C729 C247 1.448 . S
C749 C151 1.540 . S
C755 C335 1.505 . S
C775 C295 1.220 . S
C769 C215 1.497 . S
C795 C271 1.346 . S
C789 C241 1.427 . S
C809 C177 1.415 . S
C815 C314 1.432 . S
