# Generated by pormake.
# Topology pyr, (3,6)-cn, num edge types: 1
# Building blocks:
#     Node 0, Type 0, BuildingBlock: MIDCAF_clean_linker_0, # of connection points: 3
#     Node 1, Type 0, BuildingBlock: MIDCAF_clean_linker_0, # of connection points: 3
#     Node 2, Type 0, BuildingBlock: MIDCAF_clean_linker_0, # of connection points: 3
#     Node 3, Type 0, BuildingBlock: MIDCAF_clean_linker_0, # of connection points: 3
#     Node 4, Type 0, BuildingBlock: MIDCAF_clean_linker_0, # of connection points: 3
#     Node 5, Type 0, BuildingBlock: MIDCAF_clean_linker_0, # of connection points: 3
#     Node 6, Type 0, BuildingBlock: MIDCAF_clean_linker_0, # of connection points: 3
#     Node 7, Type 0, BuildingBlock: MIDCAF_clean_linker_0, # of connection points: 3
#     Node 8, Type 1, BuildingBlock: FUNLAD_clean_sbu_0, # of connection points: 6
#     Node 9, Type 1, BuildingBlock: FUNLAD_clean_sbu_0, # of connection points: 6
#     Node 10, Type 1, BuildingBlock: FUNLAD_clean_sbu_0, # of connection points: 6
#     Node 11, Type 1, BuildingBlock: FUNLAD_clean_sbu_0, # of connection points: 6
#     Edge 12, Type (0, 1), None
#     Edge 13, Type (0, 1), None
#     Edge 14, Type (0, 1), None
#     Edge 15, Type (0, 1), None
#     Edge 16, Type (0, 1), None
#     Edge 17, Type (0, 1), None
#     Edge 18, Type (0, 1), None
#     Edge 19, Type (0, 1), None
#     Edge 20, Type (0, 1), None
#     Edge 21, Type (0, 1), None
#     Edge 22, Type (0, 1), None
#     Edge 23, Type (0, 1), None
#     Edge 24, Type (0, 1), None
#     Edge 25, Type (0, 1), None
#     Edge 26, Type (0, 1), None
#     Edge 27, Type (0, 1), None
#     Edge 28, Type (0, 1), None
#     Edge 29, Type (0, 1), None
#     Edge 30, Type (0, 1), None
#     Edge 31, Type (0, 1), None
#     Edge 32, Type (0, 1), None
#     Edge 33, Type (0, 1), None
#     Edge 34, Type (0, 1), None
#     Edge 35, Type (0, 1), None
# Relax obj value: 0.165
# Max RMSD: 0.091
# Mean RMSD: 0.047
data_MOF--net-pry--node1-FUNLAD_clean_sbu_0--node2-MIDCAF_clean_linker_0--edge1-none
_symmetry_space_group_name_H-M    P1
_symmetry_Int_Tables_number       1
_symmetry_cell_setting            triclinic
loop_
_symmetry_equiv_pos_as_xyz
'x, y, z'
_cell_length_a     23.66622
_cell_length_b     25.58156
_cell_length_c     25.412187
_cell_angle_alpha  89.937528
_cell_angle_beta   90.120004
_cell_angle_gamma 81.67205
loop_
_atom_site_label
_atom_site_type_symbol
_atom_site_fract_x
_atom_site_fract_y
_atom_site_fract_z
_atom_type_partial_charge
C0 C 0.05103 0.14077 0.38044 0.0
C1 C 0.06273 0.08558 0.38905 0.0
C2 C 0.08923 0.05435 0.348 0.0
C3 C 0.1049 0.07755 0.30076 0.0
H4 H 0.25052 0.05725 0.19849 0.0
H5 H 0.34233 1.02141 0.15866 0.0
H6 H 0.32684 0.15363 0.05122 0.0
H7 H 0.23609 0.18883 0.08985 0.0
H8 H 0.10468 0.24466 0.06976 0.0
H9 H 0.07724 0.32915 1.02516 0.0
H10 H 0.02214 0.40038 0.1737 0.0
H11 H 0.0494 0.31544 0.2184 0.0
H12 H 0.05604 0.20633 0.32795 0.0
H13 H 0.03042 0.16639 0.41082 0.0
H14 H 0.09898 1.01192 0.35274 0.0
H15 H 0.12621 0.05194 0.27073 0.0
N16 N 0.1612 0.13122 0.2179 0.0
N17 N 0.15323 0.19593 0.15224 0.0
N18 N 0.08643 0.20339 0.22108 0.0
C19 C 0.18152 0.15092 0.17311 0.0
C20 C 0.10601 0.22263 0.17496 0.0
C21 C 0.11366 0.15672 0.24237 0.0
C22 C 0.23568 0.12615 0.1478 0.0
C23 C 0.26651 0.07837 0.16609 0.0
C24 C 0.31907 0.05777 0.14316 0.0
C25 C 0.34209 0.08481 0.10188 0.0
C26 C 0.31065 0.13184 0.08304 0.0
C27 C 0.25824 0.15203 0.10541 0.0
C28 C 0.07941 0.27281 0.14811 0.0
C29 C 0.08591 0.27816 0.09304 0.0
C30 C 0.07023 0.3268 0.06715 0.0
C31 C 0.04808 0.37219 0.09547 0.0
C32 C 0.03954 0.36652 0.15029 0.0
C33 C 0.05463 0.31756 0.17616 0.0
C34 C 0.09335 0.13273 0.29211 0.0
C35 C 0.06541 0.16386 0.3326 0.0
C36 C 0.20109 1.00844 0.64146 0.0
C37 C 0.17833 0.98041 0.6007 0.0
C38 C 0.20961 0.93274 0.58357 0.0
C39 C 0.26181 0.91307 0.60695 0.0
H40 H 0.41921 0.82562 0.57142 0.0
H41 H 0.4473 0.74149 0.52668 0.0
H42 H 0.50074 0.66924 0.67559 0.0
H43 H 0.47268 0.75376 0.72043 0.0
H44 H 0.46406 0.86147 0.82999 0.0
H45 H 0.48949 0.90087 0.91322 0.0
H46 H 0.41782 0.0553 0.85657 0.0
H47 H 0.39072 1.01577 0.77422 0.0
H48 H 0.26923 1.01039 0.69721 0.0
H49 H 0.17792 0.0453 0.65571 0.0
H50 H 0.19351 0.91016 0.55231 0.0
H51 H 0.28398 0.87579 0.59268 0.0
N52 N 0.3681 0.87214 0.65368 0.0
N53 N 0.43422 0.8654 0.72327 0.0
N54 N 0.35789 0.93619 0.71984 0.0
C55 C 0.41562 0.84623 0.67675 0.0
C56 C 0.40572 0.91133 0.74467 0.0
C57 C 0.33854 0.91639 0.67459 0.0
C58 C 0.44348 0.79679 0.64993 0.0
C59 C 0.43786 0.79197 0.59472 0.0
C60 C 0.45391 0.74358 0.56876 0.0
C61 C 0.47563 0.69803 0.59719 0.0
C62 C 0.48368 0.70327 0.65213 0.0
C63 C 0.46813 0.75197 0.67808 0.0
C64 C 0.4252 0.9351 0.79487 0.0
C65 C 0.45387 0.90381 0.83508 0.0
C66 C 0.46814 0.92656 0.88312 0.0
C67 C 0.45561 0.98158 0.89217 0.0
C68 C 0.4282 1.01297 0.85146 0.0
C69 C 0.41261 0.99008 0.80403 0.0
C70 C 0.28423 0.94016 0.64865 0.0
C71 C 0.25336 0.98838 0.66539 0.0
C72 C 0.57382 0.32298 0.07523 0.0
C73 C 0.5274 0.31288 0.04375 0.0
C74 C 0.48875 0.35596 1.02561 0.0
C75 C 0.5 0.40736 1.03323 0.0
H76 H 0.46499 0.52767 0.94098 0.0
H77 H 0.44982 0.52347 0.84653 0.0
H78 H 0.61056 0.58263 0.82194 0.0
H79 H 0.62117 0.59269 0.91393 0.0
H80 H 0.72163 0.51312 0.95037 0.0
H81 H 0.82395 0.51682 0.94887 0.0
H82 H 0.82729 0.51336 0.11888 0.0
H83 H 0.72437 0.50818 0.12018 0.0
H84 H 0.62501 0.3803 0.10158 0.0
H85 H 0.60273 0.29096 0.09271 0.0
H86 H 0.45199 0.35032 1.00206 0.0
H87 H 0.471 0.43919 1.01547 0.0
N88 N 0.54471 0.49951 1.00986 0.0
N89 N 0.6229 0.54384 0.99903 0.0
N90 N 0.62883 0.47217 0.05733 0.0
C91 C 0.56865 0.53816 0.98627 0.0
C92 C 0.65315 0.51159 1.03447 0.0
C93 C 0.5737 0.46661 0.04565 0.0
C94 C 0.54572 0.55819 0.93495 0.0
C95 C 0.49548 0.54213 0.91495 0.0
C96 C 0.4876 0.53835 0.86064 0.0
C97 C 0.53015 0.54999 0.82567 0.0
C98 C 0.57623 0.57288 0.8463 0.0
C99 C 0.58274 0.57862 0.90008 0.0
C100 C 0.71535 0.51093 1.03554 0.0
C101 C 0.74437 0.51291 0.98746 0.0
C102 C 0.80289 0.51476 0.98648 0.0
C103 C 0.83334 0.51586 1.03363 0.0
C104 C 0.80453 0.51302 0.08187 0.0
C105 C 0.74595 0.50985 0.08279 0.0
C106 C 0.55131 0.41675 0.05729 0.0
C107 C 0.58606 0.37441 0.08143 0.0
C108 C 0.71616 0.5533 0.58239 0.0
C109 C 0.68687 0.54997 0.53439 0.0
C110 C 0.71684 0.55028 0.48702 0.0
C111 C 0.77532 0.55223 0.48754 0.0
H112 H 0.89781 0.47812 0.41156 0.0
H113 H 0.9086 0.48866 0.31956 0.0
H114 H 0.06908 0.54797 0.34524 0.0
H115 H 0.05403 0.54294 0.43972 0.0
H116 H 0.04598 0.63183 0.51309 0.0
H117 H 0.06291 0.72078 0.49901 0.0
H118 H 0.91335 0.77804 0.5917 0.0
H119 H 0.89261 0.68819 0.60046 0.0
H120 H 0.79665 0.55901 0.62002 0.0
H121 H 0.69374 0.55358 0.61953 0.0
H122 H 0.69537 0.54785 0.44959 0.0
H123 H 0.7976 0.55173 0.45028 0.0
N124 N 0.89711 0.52429 0.49793 0.0
N125 N 0.9741 0.57024 0.50838 0.0
N126 N 0.89028 0.59569 0.55648 0.0
C127 C 0.95083 0.53126 0.48476 0.0
C128 C 0.94488 0.6025 0.54436 0.0
C129 C 0.86673 0.55573 0.53378 0.0
C130 C 0.97344 0.51222 0.43315 0.0
C131 C 0.93627 0.49224 0.39799 0.0
C132 C 0.94284 0.49826 0.34427 0.0
C133 C 0.98903 0.52111 0.32399 0.0
C134 C 0.0314 0.53286 0.35919 0.0
C135 C 0.02355 0.52866 0.41345 0.0
C136 C 0.96615 0.65293 0.55563 0.0
C137 C 0.01669 0.66321 0.53104 0.0
C138 C 0.02677 0.71484 0.52309 0.0
C139 C 0.98798 0.7575 0.54174 0.0
C140 C 0.9423 0.74656 0.57365 0.0
C141 C 0.93101 0.69479 0.57992 0.0
C142 C 0.80477 0.55512 0.53536 0.0
C143 C 0.77471 0.55662 0.58283 0.0
C144 C 0.70114 1.0129 0.94192 0.0
C145 C 0.67865 0.9868 0.98417 0.0
C146 C 0.71019 0.94002 1.00348 0.0
C147 C 0.76204 0.91905 0.98055 0.0
H148 H 0.91236 0.82194 1.01327 0.0
H149 H 0.93946 0.73706 0.05718 0.0
H150 H 0.99328 0.66662 0.90796 0.0
H151 H 0.96641 0.75198 0.86395 0.0
H152 H 0.96102 0.86027 0.7555 0.0
H153 H 0.98763 0.8995 0.6726 0.0
H154 H 0.92127 0.05474 0.73016 0.0
H155 H 0.89308 1.01547 0.8122 0.0
H156 H 0.76866 1.01183 0.88522 0.0
H157 H 0.67779 0.04903 0.92602 0.0
H158 H 0.69443 0.91896 1.03607 0.0
H159 H 0.78422 0.88244 0.9965 0.0
N160 N 0.8648 0.87246 0.93156 0.0
N161 N 0.93063 0.86374 0.86195 0.0
N162 N 0.85752 0.93727 0.866 0.0
C163 C 0.91114 0.84488 0.90824 0.0
C164 C 0.90422 0.91085 0.84098 0.0
C165 C 0.83728 0.918 0.91106 0.0
C166 C 0.93702 0.79423 0.93464 0.0
C167 C 0.93072 0.78853 0.98968 0.0
C168 C 0.94622 0.73966 1.01517 0.0
C169 C 0.96797 0.6944 0.98646 0.0
C170 C 0.9762 0.70038 0.93165 0.0
C171 C 0.96132 0.74957 0.90618 0.0
C172 C 0.92472 0.93434 0.79106 0.0
C173 C 0.9523 0.90275 0.75071 0.0
C174 C 0.96726 0.92543 0.70286 0.0
C175 C 0.95652 0.98063 0.69413 0.0
C176 C 0.9303 1.01228 0.73502 0.0
C177 C 0.91406 0.98952 0.78227 0.0
C178 C 0.78397 0.94386 0.9371 0.0
C179 C 0.75316 0.99151 0.91843 0.0
C180 C 0.59158 0.05929 0.23571 0.0
C181 C 0.56514 0.09063 0.19453 0.0
C182 C 0.55348 0.14581 0.2031 0.0
C183 C 0.56775 0.16874 0.25108 0.0
H184 H 0.55018 0.31938 0.36543 0.0
H185 H 0.52208 0.40419 0.40986 0.0
H186 H 0.57671 0.33298 0.55891 0.0
H187 H 0.60499 0.24865 0.51458 0.0
H188 H 0.73803 0.19337 0.4947 0.0
H189 H 0.82828 0.15716 0.53444 0.0
H190 H 0.84128 1.0236 0.42916 0.0
H191 H 0.75019 0.06037 0.38833 0.0
H192 H 0.62832 0.0566 0.31322 0.0
H193 H 0.60126 1.01686 0.23102 0.0
H194 H 0.53287 0.1715 0.17264 0.0
H195 H 0.55834 0.21118 0.25574 0.0
N196 N 0.588 0.20776 0.36294 0.0
N197 N 0.65417 0.20002 0.4326 0.0
N198 N 0.66273 0.1356 0.3668 0.0
C199 C 0.60713 0.22679 0.40936 0.0
C200 C 0.68265 0.15509 0.41192 0.0
C201 C 0.61545 0.16122 0.3418 0.0
C202 C 0.5801 0.27681 0.436 0.0
C203 C 0.55512 0.32147 0.40772 0.0
C204 C 0.53949 0.37035 0.43343 0.0
C205 C 0.54766 0.37598 0.48832 0.0
C206 C 0.56991 0.33064 0.51687 0.0
C207 C 0.58613 0.28209 0.49113 0.0
C208 C 0.73653 0.13003 0.43783 0.0
C209 C 0.75957 0.15606 0.47991 0.0
C210 C 0.81165 0.13529 0.5029 0.0
C211 C 0.84223 0.08755 0.48501 0.0
C212 C 0.81871 0.06048 0.44399 0.0
C213 C 0.76655 0.08163 0.42046 0.0
C214 C 0.59552 0.13745 0.29174 0.0
C215 C 0.60713 0.08232 0.28307 0.0
C216 C 0.21223 0.55481 0.09558 0.0
C217 C 0.1827 0.55172 0.04817 0.0
C218 C 0.21209 0.55413 1.00018 0.0
C219 C 0.27034 0.55893 0.99981 0.0
H220 H 0.38572 0.69531 0.98724 0.0
H221 H 0.40947 0.78411 0.99682 0.0
H222 H 0.56652 0.72084 0.07625 0.0
H223 H 0.54558 0.6327 0.06212 0.0
H224 H 0.55043 0.54642 0.14273 0.0
H225 H 0.56749 0.55135 0.23698 0.0
H226 H 0.40494 0.497 0.26527 0.0
H227 H 0.39197 0.48648 0.1735 0.0
H228 H 0.29239 0.55971 0.1325 0.0
H229 H 0.19073 0.5532 0.13303 0.0
H230 H 0.19006 0.55231 0.96296 0.0
H231 H 0.29242 0.56021 0.96263 0.0
N232 N 0.38573 0.60041 1.02605 0.0
N233 N 0.4695 0.5752 0.07471 0.0
N234 N 0.39231 0.52962 0.08555 0.0
C235 C 0.44047 0.60707 1.03814 0.0
C236 C 0.44608 0.53653 0.09875 0.0
C237 C 0.36199 0.56078 0.04926 0.0
C238 C 0.46247 0.65697 1.02584 0.0
C239 C 0.42629 0.70027 1.00492 0.0
C240 C 0.43944 0.75137 1.01159 0.0
C241 C 0.48835 0.76011 0.04028 0.0
C242 C 0.52794 0.71625 0.05492 0.0
C243 C 0.51563 0.66527 0.04686 0.0
C244 C 0.46876 0.51791 0.15059 0.0
C245 C 0.51986 0.53318 0.16953 0.0
C246 C 0.52892 0.53733 0.22365 0.0
C247 C 0.48675 0.5268 0.2595 0.0
C248 C 0.43914 0.50548 0.24 0.0
C249 C 0.43132 0.49947 0.18643 0.0
C250 C 0.30002 0.55999 0.04741 0.0
C251 C 0.27039 0.55835 0.09518 0.0
C252 C 0.10948 0.31759 0.5567 0.0
C253 C 0.05333 0.30539 0.5551 0.0
C254 C 0.00865 0.34536 0.54082 0.0
C255 C 0.01968 0.39674 0.53123 0.0
H256 H 0.96715 0.51631 0.64015 0.0
H257 H 0.94982 0.51199 0.73415 0.0
H258 H 0.09989 0.58777 0.76181 0.0
H259 H 0.1116 0.59776 0.67031 0.0
H260 H 0.22 0.54456 0.63249 0.0
H261 H 0.32297 0.54597 0.63411 0.0
H262 H 0.33136 0.51077 0.46793 0.0
H263 H 0.2283 0.50717 0.46671 0.0
H264 H 0.16403 0.37639 0.54944 0.0
H265 H 0.1451 0.28875 0.56897 0.0
H266 H 0.96507 0.33739 0.53793 0.0
H267 H 0.98415 0.42758 0.52394 0.0
N268 N 0.05202 0.49342 0.57493 0.0
N269 N 0.12064 0.54955 0.5849 0.0
N270 N 0.13839 0.47647 0.52899 0.0
C271 C 0.06872 0.53661 0.59738 0.0
C272 C 0.15543 0.52018 0.55047 0.0
C273 C 0.08615 0.46334 0.5406 0.0
C274 C 0.04244 0.55514 0.64785 0.0
C275 C 0.99456 0.53422 0.66679 0.0
C276 C 0.98561 0.53044 0.72096 0.0
C277 C 0.02492 0.54673 0.75694 0.0
C278 C 0.06797 0.57416 0.73702 0.0
C279 C 0.07522 0.57992 0.68335 0.0
C280 C 0.21625 0.52649 0.54916 0.0
C281 C 0.24375 0.53767 0.59614 0.0
C282 C 0.30267 0.53781 0.59736 0.0
C283 C 0.33482 0.52826 0.5513 0.0
C284 C 0.30725 0.51827 0.50401 0.0
C285 C 0.24849 0.51645 0.50315 0.0
C286 C 0.07572 0.40862 0.53403 0.0
C287 C 0.12062 0.36814 0.54509 0.0
C288 C 0.04731 0.06165 0.44061 0.0
N289 N 0.0224 0.14703 0.57885 0.0
C290 C 0.07392 0.15711 0.56107 0.0
C291 C 0.08451 0.20826 0.55394 0.0
C292 C 0.04258 0.25069 0.56669 0.0
C293 C 0.99069 0.23964 0.58831 0.0
C294 C 0.98111 0.18699 0.59347 0.0
Zn295 Zn 0.01012 0.07204 0.56066 0.0
C296 C 0.89958 0.06808 0.5073 0.0
N297 N 1.0022 0.91786 0.50444 0.0
C298 C 0.04954 0.88085 0.50121 0.0
C299 C 0.94979 0.90341 0.51266 0.0
C300 C 0.94415 0.8509 0.52216 0.0
C301 C 0.99303 0.81269 0.52553 0.0
C302 C 0.04613 0.82805 0.51277 0.0
Zn303 Zn 0.01059 0.99408 0.52327 0.0
O304 O 0.03859 0.09078 0.48119 0.0
C305 C 0.12115 0.99912 0.5778 0.0
O306 O 0.04092 1.01313 0.44508 0.0
H307 H 0.91245 0.93277 0.51643 0.0
H308 H 0.10557 0.12566 0.54704 0.0
H309 H 0.09091 0.89253 0.49408 0.0
O310 O 0.09522 0.04471 0.58833 0.0
O311 O 0.09612 0.9689 0.54923 0.0
H312 H 0.93985 0.1783 0.60613 0.0
O313 O 0.98121 0.97497 0.60204 0.0
O314 O 0.97978 0.05268 0.63848 0.0
O315 O 0.92478 1.02196 0.49673 0.0
O316 O 0.92533 0.0984 0.53534 0.0
C317 C 0.97268 1.00424 0.64268 0.0
H318 H 0.1243 0.21389 0.53539 0.0
H319 H 0.95724 0.27107 0.5995 0.0
H320 H 0.9018 0.84111 0.52897 0.0
H321 H 0.08537 0.80057 0.51438 0.0
C322 C 0.62128 1.00582 1.00635 0.0
N323 N 0.51386 0.15281 1.00512 0.0
C324 C 0.56621 0.16842 1.01039 0.0
C325 C 0.57126 0.22092 1.02026 0.0
C326 C 0.52206 0.25807 1.02688 0.0
C327 C 0.46868 0.24199 1.01681 0.0
C328 C 0.46563 0.18907 1.00509 0.0
Zn329 Zn 0.50973 0.07531 1.0244 0.0
C330 C 0.47155 1.00536 0.9436 0.0
N331 N 0.50679 0.91865 0.08137 0.0
C332 C 0.55447 0.88192 0.07774 0.0
C333 C 0.45391 0.90355 0.07939 0.0
C334 C 0.44747 0.85149 0.06867 0.0
C335 C 0.49561 0.81425 0.05801 0.0
C336 C 0.54987 0.82952 0.06509 0.0
Zn337 Zn 0.51121 0.99657 0.06222 0.0
O338 O 0.59513 0.05142 0.99555 0.0
C339 C 0.54929 0.06667 0.14311 0.0
O340 O 0.5964 0.97535 1.03476 0.0
H341 H 0.4158 0.93202 0.08151 0.0
H342 H 0.60449 0.14002 1.01175 0.0
H343 H 0.59644 0.89352 0.08033 0.0
O344 O 0.54025 0.09578 0.10231 0.0
O345 O 0.54259 1.01808 0.13925 0.0
H346 H 0.4242 0.17668 1.00037 0.0
O347 O 0.42584 1.0206 0.09065 0.0
O348 O 0.42462 0.09688 0.05194 0.0
O349 O 0.48084 0.97611 0.98429 0.0
O350 O 0.47812 0.05396 0.94756 0.0
C351 C 0.39969 0.06621 0.08004 0.0
H352 H 0.61362 0.23155 1.02496 0.0
H353 H 0.42931 0.26903 1.02072 0.0
H354 H 0.40468 0.84135 0.06655 0.0
H355 H 0.58858 0.80232 0.05817 0.0
C356 C 0.53541 0.42947 0.51409 0.0
N357 N 0.52881 0.51229 0.66186 0.0
C358 C 0.49966 0.4846 0.69544 0.0
C359 C 0.5002 0.49513 0.74964 0.0
C360 C 0.52886 0.53613 0.76872 0.0
C361 C 0.55867 0.56308 0.73256 0.0
C362 C 0.55988 0.54924 0.68016 0.0
Zn363 Zn 0.51544 0.5206 0.58287 0.0
C364 C 0.62553 0.54555 0.53389 0.0
N365 N 0.49341 0.56209 0.42348 0.0
C366 C 0.4624 0.5249 0.40558 0.0
C367 C 0.52145 0.59035 0.38947 0.0
C368 C 0.51938 0.58049 0.33518 0.0
C369 C 0.49023 0.5397 0.31646 0.0
C370 C 0.46202 0.51185 0.35304 0.0
Zn371 Zn 0.507 0.55388 0.50251 0.0
O372 O 0.53403 0.43622 0.56394 0.0
C373 C 0.39659 0.53029 0.55176 0.0
O374 O 0.52694 0.47017 0.48498 0.0
H375 H 0.54706 0.61884 0.40441 0.0
H376 H 0.47411 0.45623 0.68014 0.0
H377 H 0.44165 0.50118 0.43243 0.0
O378 O 0.42741 0.51481 0.59135 0.0
O379 O 0.41933 0.54794 0.5117 0.0
H380 H 0.58154 0.57248 0.65355 0.0
O381 O 0.48807 0.63807 0.52142 0.0
O382 O 0.49624 0.60401 0.60032 0.0
O383 O 0.59436 0.56073 0.49442 0.0
O384 O 0.60339 0.52659 0.57362 0.0
C385 C 0.48744 0.6447 0.57127 0.0
H386 H 0.47753 0.47206 0.77576 0.0
H387 H 0.57946 0.59641 0.74347 0.0
H388 H 0.54107 0.60397 0.30862 0.0
H389 H 0.44109 0.47858 0.34214 0.0
C390 C 0.9805 0.64082 1.01215 0.0
N391 N 0.99084 0.55756 0.15994 0.0
C392 C 0.01871 0.58643 0.19353 0.0
C393 C 0.01815 0.57621 0.24783 0.0
C394 C 0.99071 0.53447 0.26698 0.0
C395 C 0.96245 0.50613 0.23082 0.0
C396 C 0.96126 0.51951 0.17829 0.0
Zn397 Zn 1.0035 0.54981 0.08082 0.0
C398 C 0.89443 0.52146 1.03277 0.0
N399 N 0.02516 0.50888 0.92124 0.0
C400 C 0.05391 0.54748 0.90291 0.0
C401 C 0.99763 0.47979 0.8876 0.0
C402 C 0.99771 0.49034 0.83332 0.0
C403 C 0.02388 0.53295 0.81413 0.0
C404 C 0.05172 0.56152 0.85052 0.0
Zn405 Zn 0.01271 0.51665 1.00053 0.0
O406 O 0.98194 0.63392 0.06198 0.0
C407 C 0.12177 0.54528 0.0487 0.0
O408 O 0.98996 0.60027 0.98303 0.0
H409 H 0.97386 0.45004 0.90286 0.0
H410 H 0.04315 0.61565 0.17822 0.0
H411 H 0.07447 0.57166 0.92948 0.0
O412 O 0.09049 0.55914 0.08831 0.0
O413 O 0.10014 0.52574 1.00896 0.0
H414 H 0.94067 0.49533 0.15176 0.0
O415 O 0.03454 0.43243 1.01961 0.0
O416 O 0.02587 0.4663 0.09844 0.0
O417 O 0.92554 0.50716 0.99316 0.0
O418 O 0.91629 0.54113 0.07227 0.0
C419 C 0.0356 0.42567 0.06948 0.0
H420 H 0.03972 0.60015 0.27405 0.0
H421 H 0.94276 0.4722 0.242 0.0
H422 H 0.97662 0.46588 0.80728 0.0
H423 H 0.07035 0.59617 0.83997 0.0
loop_
_geom_bond_atom_site_label_1
_geom_bond_atom_site_label_2
_geom_bond_distance
_geom_bond_site_symmetry_2
_ccdc_geom_bond_type
C0 C1 1.384 . S
C0 H13 0.947 1_455 S
C0 C35 1.382 . S
C1 C0 1.384 . S
C1 C2 1.378 . S
C2 C1 1.378 . S
C2 C3 1.378 . S
C2 H14 0.962 . S
C3 C2 1.378 . S
C3 H15 0.950 . S
C3 C34 1.383 . S
H4 C23 0.947 . S
H5 C24 0.946 1_565 S
H6 C26 0.953 . S
H7 C27 0.945 . S
H8 C29 0.952 . S
H9 C30 0.949 . S
H10 C32 0.950 1_655 S
H11 C33 0.948 . S
H12 C35 0.951 . S
H13 C0 0.947 1_655 S
H14 C2 0.962 . S
H15 C3 0.950 . S
N16 C19 1.382 . S
N16 C21 1.363 . S
N17 C19 1.371 . S
N17 C20 1.372 . S
N18 C20 1.361 . S
N18 C21 1.377 . S
C19 N16 1.382 . S
C19 N17 1.371 . S
C19 C22 1.480 . S
C20 N17 1.372 . S
C20 N18 1.361 . S
C20 C28 1.457 . S
C21 N16 1.363 . S
C21 N18 1.377 . S
C21 C34 1.479 . S
C22 C19 1.480 . S
C22 C23 1.383 . S
C22 C27 1.385 . S
C23 H4 0.947 . S
C23 C22 1.383 . S
C23 C24 1.388 . S
C24 H5 0.946 1_545 S
C24 C23 1.388 . S
C24 C25 1.384 . S
C25 C24 1.384 . S
C25 C26 1.377 . S
C26 H6 0.953 . S
C26 C25 1.377 . S
C26 C27 1.369 . S
C27 H7 0.945 . S
C27 C22 1.385 . S
C27 C26 1.369 . S
C28 C20 1.457 . S
C28 C29 1.372 . S
C28 C33 1.364 . S
C29 H8 0.952 . S
C29 C28 1.372 . S
C29 C30 1.389 . S
C30 H9 0.949 . S
C30 C29 1.389 . S
C30 C31 1.387 . S
C31 C30 1.387 . S
C31 C32 1.372 . S
C32 H10 0.950 1_455 S
C32 C31 1.372 . S
C32 C33 1.379 . S
C33 H11 0.948 . S
C33 C28 1.364 . S
C33 C32 1.379 . S
C34 C3 1.383 . S
C34 C21 1.479 . S
C34 C35 1.398 . S
C35 C0 1.382 . S
C35 H12 0.951 . S
C35 C34 1.398 . S
C36 C37 1.384 . S
C36 H49 0.947 1_565 S
C36 C71 1.382 . S
C37 C36 1.384 . S
C37 C38 1.378 . S
C38 C37 1.378 . S
C38 C39 1.378 . S
C38 H50 0.952 . S
C39 C38 1.378 . S
C39 H51 0.950 . S
C39 C70 1.383 . S
H40 C59 0.947 . S
H41 C60 0.946 . S
H42 C62 0.953 . S
H43 C63 0.945 . S
H44 C65 0.952 . S
H45 C66 0.949 . S
H46 C68 0.950 1_545 S
H47 C69 0.948 . S
H48 C71 0.951 . S
H49 C36 0.947 1_545 S
H50 C38 0.952 . S
H51 C39 0.950 . S
N52 C55 1.382 . S
N52 C57 1.363 . S
N53 C55 1.371 . S
N53 C56 1.372 . S
N54 C56 1.361 . S
N54 C57 1.377 . S
C55 N52 1.382 . S
C55 N53 1.371 . S
C55 C58 1.480 . S
C56 N53 1.372 . S
C56 N54 1.361 . S
C56 C64 1.457 . S
C57 N52 1.363 . S
C57 N54 1.377 . S
C57 C70 1.479 . S
C58 C55 1.480 . S
C58 C59 1.383 . S
C58 C63 1.385 . S
C59 H40 0.947 . S
C59 C58 1.383 . S
C59 C60 1.388 . S
C60 H41 0.946 . S
C60 C59 1.388 . S
C60 C61 1.384 . S
C61 C60 1.384 . S
C61 C62 1.377 . S
C62 H42 0.953 . S
C62 C61 1.377 . S
C62 C63 1.369 . S
C63 H43 0.945 . S
C63 C58 1.385 . S
C63 C62 1.369 . S
C64 C56 1.457 . S
C64 C65 1.372 . S
C64 C69 1.364 . S
C65 H44 0.952 . S
C65 C64 1.372 . S
C65 C66 1.389 . S
C66 H45 0.949 . S
C66 C65 1.389 . S
C66 C67 1.387 . S
C67 C66 1.387 . S
C67 C68 1.372 . S
C68 H46 0.950 1_565 S
C68 C67 1.372 . S
C68 C69 1.379 . S
C69 H47 0.948 . S
C69 C64 1.364 . S
C69 C68 1.379 . S
C70 C39 1.383 . S
C70 C57 1.479 . S
C70 C71 1.398 . S
C71 C36 1.382 . S
C71 H48 0.951 . S
C71 C70 1.398 . S
C72 C73 1.384 1_554 S
C72 H85 0.947 . S
C72 C107 1.382 1_554 S
C73 C72 1.384 1_556 S
C73 C74 1.378 . S
C74 C73 1.378 . S
C74 C75 1.378 . S
C74 H86 0.952 . S
C75 C74 1.378 . S
C75 H87 0.950 . S
C75 C106 1.383 . S
H76 C95 0.947 . S
H77 C96 0.946 . S
H78 C98 0.953 . S
H79 C99 0.945 . S
H80 C101 0.952 . S
H81 C102 0.949 . S
H82 C104 0.950 . S
H83 C105 0.948 1_554 S
H84 C107 0.951 1_554 S
H85 C72 0.947 . S
H86 C74 0.952 . S
H87 C75 0.950 . S
N88 C91 1.382 . S
N88 C93 1.363 . S
N89 C91 1.371 . S
N89 C92 1.372 . S
N90 C92 1.361 . S
N90 C93 1.377 . S
C91 N88 1.382 . S
C91 N89 1.371 . S
C91 C94 1.480 . S
C92 N89 1.372 . S
C92 N90 1.361 . S
C92 C100 1.457 . S
C93 N88 1.363 . S
C93 N90 1.377 . S
C93 C106 1.479 . S
C94 C91 1.480 . S
C94 C95 1.383 . S
C94 C99 1.385 . S
C95 H76 0.947 . S
C95 C94 1.383 . S
C95 C96 1.388 . S
C96 H77 0.946 . S
C96 C95 1.388 . S
C96 C97 1.384 . S
C97 C96 1.384 . S
C97 C98 1.377 . S
C98 H78 0.953 . S
C98 C97 1.377 . S
C98 C99 1.369 . S
C99 H79 0.945 . S
C99 C94 1.385 . S
C99 C98 1.369 . S
C100 C92 1.457 . S
C100 C101 1.372 . S
C100 C105 1.364 . S
C101 H80 0.952 . S
C101 C100 1.372 . S
C101 C102 1.389 . S
C102 H81 0.949 . S
C102 C101 1.389 . S
C102 C103 1.387 1_556 S
C103 C102 1.387 1_554 S
C103 C104 1.372 . S
C104 H82 0.950 . S
C104 C103 1.372 . S
C104 C105 1.379 1_554 S
C105 H83 0.948 1_556 S
C105 C100 1.364 . S
C105 C104 1.379 1_556 S
C106 C75 1.383 . S
C106 C93 1.479 . S
C106 C107 1.398 . S
C107 C72 1.382 1_556 S
C107 H84 0.951 1_556 S
C107 C106 1.398 . S
C108 C109 1.384 . S
C108 H121 0.947 . S
C108 C143 1.382 . S
C109 C108 1.384 . S
C109 C110 1.378 . S
C110 C109 1.378 . S
C110 C111 1.378 . S
C110 H122 0.952 . S
C111 C110 1.378 . S
C111 H123 0.950 . S
C111 C142 1.383 . S
H112 C131 0.947 . S
H113 C132 0.946 . S
H114 C134 0.953 . S
H115 C135 0.945 . S
H116 C137 0.952 . S
H117 C138 0.949 . S
H118 C140 0.950 . S
H119 C141 0.948 . S
H120 C143 0.951 . S
H121 C108 0.947 . S
H122 C110 0.952 . S
H123 C111 0.950 . S
N124 C127 1.382 . S
N124 C129 1.363 . S
N125 C127 1.371 . S
N125 C128 1.372 . S
N126 C128 1.361 . S
N126 C129 1.377 . S
C127 N124 1.382 . S
C127 N125 1.371 . S
C127 C130 1.480 . S
C128 N125 1.372 . S
C128 N126 1.361 . S
C128 C136 1.457 . S
C129 N124 1.363 . S
C129 N126 1.377 . S
C129 C142 1.479 . S
C130 C127 1.480 . S
C130 C131 1.383 . S
C130 C135 1.385 . S
C131 H112 0.947 . S
C131 C130 1.383 . S
C131 C132 1.388 . S
C132 H113 0.946 . S
C132 C131 1.388 . S
C132 C133 1.384 . S
C133 C132 1.384 . S
C133 C134 1.377 . S
C134 H114 0.953 . S
C134 C133 1.377 . S
C134 C135 1.369 . S
C135 H115 0.945 . S
C135 C130 1.385 . S
C135 C134 1.369 . S
C136 C128 1.457 . S
C136 C137 1.372 . S
C136 C141 1.364 . S
C137 H116 0.952 . S
C137 C136 1.372 . S
C137 C138 1.389 . S
C138 H117 0.949 . S
C138 C137 1.389 . S
C138 C139 1.387 . S
C139 C138 1.387 . S
C139 C140 1.372 . S
C140 H118 0.950 . S
C140 C139 1.372 . S
C140 C141 1.379 . S
C141 H119 0.948 . S
C141 C136 1.364 . S
C141 C140 1.379 . S
C142 C111 1.383 . S
C142 C129 1.479 . S
C142 C143 1.398 . S
C143 C108 1.382 . S
C143 H120 0.951 . S
C143 C142 1.398 . S
C144 C145 1.384 . S
C144 H157 0.947 1_565 S
C144 C179 1.382 . S
C145 C144 1.384 . S
C145 C146 1.378 . S
C146 C145 1.378 . S
C146 C147 1.378 . S
C146 H158 0.952 1_556 S
C147 C146 1.378 . S
C147 H159 0.950 . S
C147 C178 1.383 . S
H148 C167 0.947 . S
H149 C168 0.946 . S
H150 C170 0.953 . S
H151 C171 0.945 1_455 S
H152 C173 0.952 . S
H153 C174 0.949 1_455 S
H154 C176 0.950 1_545 S
H155 C177 0.948 . S
H156 C179 0.951 . S
H157 C144 0.947 1_545 S
H158 C146 0.952 1_554 S
H159 C147 0.950 . S
N160 C163 1.382 . S
N160 C165 1.363 . S
N161 C163 1.371 . S
N161 C164 1.372 . S
N162 C164 1.361 . S
N162 C165 1.377 . S
C163 N160 1.382 . S
C163 N161 1.371 . S
C163 C166 1.480 . S
C164 N161 1.372 . S
C164 N162 1.361 . S
C164 C172 1.457 . S
C165 N160 1.363 . S
C165 N162 1.377 . S
C165 C178 1.479 . S
C166 C163 1.480 . S
C166 C167 1.383 . S
C166 C171 1.385 . S
C167 H148 0.947 . S
C167 C166 1.383 . S
C167 C168 1.388 . S
C168 H149 0.946 . S
C168 C167 1.388 . S
C168 C169 1.384 . S
C169 C168 1.384 . S
C169 C170 1.377 1_655 S
C170 H150 0.953 . S
C170 C169 1.377 1_455 S
C170 C171 1.369 1_455 S
C171 H151 0.945 1_655 S
C171 C166 1.385 . S
C171 C170 1.369 1_655 S
C172 C164 1.457 . S
C172 C173 1.372 . S
C172 C177 1.364 . S
C173 H152 0.952 . S
C173 C172 1.372 . S
C173 C174 1.389 . S
C174 H153 0.949 1_655 S
C174 C173 1.389 . S
C174 C175 1.387 . S
C175 C174 1.387 . S
C175 C176 1.372 . S
C176 H154 0.950 1_565 S
C176 C175 1.372 . S
C176 C177 1.379 . S
C177 H155 0.948 . S
C177 C172 1.364 . S
C177 C176 1.379 . S
C178 C147 1.383 . S
C178 C165 1.479 . S
C178 C179 1.398 . S
C179 C144 1.382 . S
C179 H156 0.951 . S
C179 C178 1.398 . S
C180 C181 1.384 . S
C180 H193 0.947 1_545 S
C180 C215 1.382 . S
C181 C180 1.384 . S
C181 C182 1.378 . S
C182 C181 1.378 . S
C182 C183 1.378 . S
C182 H194 0.952 . S
C183 C182 1.378 . S
C183 H195 0.950 . S
C183 C214 1.383 . S
H184 C203 0.947 . S
H185 C204 0.946 . S
H186 C206 0.953 . S
H187 C207 0.945 . S
H188 C209 0.952 . S
H189 C210 0.949 . S
H190 C212 0.950 1_565 S
H191 C213 0.948 . S
H192 C215 0.951 . S
H193 C180 0.947 1_565 S
H194 C182 0.952 . S
H195 C183 0.950 . S
N196 C199 1.382 . S
N196 C201 1.363 . S
N197 C199 1.371 . S
N197 C200 1.372 . S
N198 C200 1.361 . S
N198 C201 1.377 . S
C199 N196 1.382 . S
C199 N197 1.371 . S
C199 C202 1.480 . S
C200 N197 1.372 . S
C200 N198 1.361 . S
C200 C208 1.457 . S
C201 N196 1.363 . S
C201 N198 1.377 . S
C201 C214 1.479 . S
C202 C199 1.480 . S
C202 C203 1.383 . S
C202 C207 1.385 . S
C203 H184 0.947 . S
C203 C202 1.383 . S
C203 C204 1.388 . S
C204 H185 0.946 . S
C204 C203 1.388 . S
C204 C205 1.384 . S
C205 C204 1.384 . S
C205 C206 1.377 . S
C206 H186 0.953 . S
C206 C205 1.377 . S
C206 C207 1.369 . S
C207 H187 0.945 . S
C207 C202 1.385 . S
C207 C206 1.369 . S
C208 C200 1.457 . S
C208 C209 1.372 . S
C208 C213 1.364 . S
C209 H188 0.952 . S
C209 C208 1.372 . S
C209 C210 1.389 . S
C210 H189 0.949 . S
C210 C209 1.389 . S
C210 C211 1.387 . S
C211 C210 1.387 . S
C211 C212 1.372 . S
C212 H190 0.950 1_545 S
C212 C211 1.372 . S
C212 C213 1.379 . S
C213 H191 0.948 . S
C213 C208 1.364 . S
C213 C212 1.379 . S
C214 C183 1.383 . S
C214 C201 1.479 . S
C214 C215 1.398 . S
C215 C180 1.382 . S
C215 H192 0.951 . S
C215 C214 1.398 . S
C216 C217 1.384 1_554 S
C216 H229 0.947 . S
C216 C251 1.382 . S
C217 C216 1.384 1_556 S
C217 C218 1.378 . S
C218 C217 1.378 . S
C218 C219 1.378 . S
C218 H230 0.952 . S
C219 C218 1.378 . S
C219 H231 0.950 . S
C219 C250 1.383 1_556 S
H220 C239 0.947 1_556 S
H221 C240 0.946 . S
H222 C242 0.953 . S
H223 C243 0.945 . S
H224 C245 0.952 . S
H225 C246 0.949 . S
H226 C248 0.950 . S
H227 C249 0.948 . S
H228 C251 0.951 . S
H229 C216 0.947 . S
H230 C218 0.952 . S
H231 C219 0.950 . S
N232 C235 1.382 . S
N232 C237 1.363 . S
N233 C235 1.371 . S
N233 C236 1.372 . S
N234 C236 1.361 . S
N234 C237 1.377 . S
C235 N232 1.382 . S
C235 N233 1.371 . S
C235 C238 1.480 . S
C236 N233 1.372 . S
C236 N234 1.361 . S
C236 C244 1.457 . S
C237 N232 1.363 . S
C237 N234 1.377 . S
C237 C250 1.479 . S
C238 C235 1.480 . S
C238 C239 1.383 . S
C238 C243 1.385 . S
C239 H220 0.947 1_554 S
C239 C238 1.383 . S
C239 C240 1.388 1_554 S
C240 H221 0.946 . S
C240 C239 1.388 1_556 S
C240 C241 1.384 1_556 S
C241 C240 1.384 1_554 S
C241 C242 1.377 . S
C242 H222 0.953 . S
C242 C241 1.377 . S
C242 C243 1.369 . S
C243 H223 0.945 . S
C243 C238 1.385 . S
C243 C242 1.369 . S
C244 C236 1.457 . S
C244 C245 1.372 . S
C244 C249 1.364 . S
C245 H224 0.952 . S
C245 C244 1.372 . S
C245 C246 1.389 . S
C246 H225 0.949 . S
C246 C245 1.389 . S
C246 C247 1.387 . S
C247 C246 1.387 . S
C247 C248 1.372 . S
C248 H226 0.950 . S
C248 C247 1.372 . S
C248 C249 1.379 . S
C249 H227 0.948 . S
C249 C244 1.364 . S
C249 C248 1.379 . S
C250 C219 1.383 1_554 S
C250 C237 1.479 . S
C250 C251 1.398 . S
C251 C216 1.382 . S
C251 H228 0.951 . S
C251 C250 1.398 . S
C252 C253 1.384 . S
C252 H265 0.947 . S
C252 C287 1.382 . S
C253 C252 1.384 . S
C253 C254 1.378 . S
C254 C253 1.378 . S
C254 C255 1.378 . S
C254 H266 0.952 . S
C255 C254 1.378 . S
C255 H267 0.950 . S
C255 C286 1.383 . S
H256 C275 0.947 . S
H257 C276 0.946 . S
H258 C278 0.953 . S
H259 C279 0.945 . S
H260 C281 0.952 . S
H261 C282 0.949 . S
H262 C284 0.950 . S
H263 C285 0.948 . S
H264 C287 0.951 . S
H265 C252 0.947 . S
H266 C254 0.952 . S
H267 C255 0.950 . S
N268 C271 1.382 . S
N268 C273 1.363 . S
N269 C271 1.371 . S
N269 C272 1.372 . S
N270 C272 1.361 . S
N270 C273 1.377 . S
C271 N268 1.382 . S
C271 N269 1.371 . S
C271 C274 1.480 . S
C272 N269 1.372 . S
C272 N270 1.361 . S
C272 C280 1.457 . S
C273 N268 1.363 . S
C273 N270 1.377 . S
C273 C286 1.479 . S
C274 C271 1.480 . S
C274 C275 1.383 . S
C274 C279 1.385 . S
C275 H256 0.947 . S
C275 C274 1.383 . S
C275 C276 1.388 . S
C276 H257 0.946 . S
C276 C275 1.388 . S
C276 C277 1.384 . S
C277 C276 1.384 . S
C277 C278 1.377 . S
C278 H258 0.953 . S
C278 C277 1.377 . S
C278 C279 1.369 . S
C279 H259 0.945 . S
C279 C274 1.385 . S
C279 C278 1.369 . S
C280 C272 1.457 . S
C280 C281 1.372 . S
C280 C285 1.364 . S
C281 H260 0.952 . S
C281 C280 1.372 . S
C281 C282 1.389 . S
C282 H261 0.949 . S
C282 C281 1.389 . S
C282 C283 1.387 . S
C283 C282 1.387 . S
C283 C284 1.372 . S
C284 H262 0.950 . S
C284 C283 1.372 . S
C284 C285 1.379 . S
C285 H263 0.948 . S
C285 C280 1.364 . S
C285 C284 1.379 . S
C286 C255 1.383 . S
C286 C273 1.479 . S
C286 C287 1.398 . S
C287 C252 1.382 . S
C287 H264 0.951 . S
C287 C286 1.398 . S
C288 O304 1.251 . S
C288 O306 1.254 1_545 S
N289 C290 1.333 . S
N289 C294 1.307 . S
N289 Zn295 2.020 . S
C290 N289 1.333 . S
C290 C291 1.379 . S
C290 H308 0.952 . S
C291 C290 1.379 . S
C291 C292 1.390 . S
C291 H318 0.949 . S
C292 C291 1.390 . S
C292 C293 1.357 . S
C293 C292 1.357 . S
C293 C294 1.370 . S
C293 H319 0.950 . S
C294 N289 1.307 . S
C294 C293 1.370 . S
C294 H312 0.948 1_455 S
Zn295 N289 2.020 . S
Zn295 O304 2.039 . S
Zn295 O310 2.034 . S
Zn295 O314 2.025 1_455 S
Zn295 O316 2.024 1_455 S
C296 O315 1.246 1_545 S
C296 O316 1.249 . S
N297 C298 1.307 . S
N297 C299 1.333 . S
N297 Zn303 2.020 . S
C298 N297 1.307 . S
C298 C302 1.370 . S
C298 H309 0.948 1_655 S
C299 N297 1.333 . S
C299 C300 1.379 . S
C299 H307 0.952 . S
C300 C299 1.379 . S
C300 C301 1.390 . S
C300 H320 0.949 . S
C301 C300 1.390 . S
C301 C302 1.357 . S
C302 C298 1.370 . S
C302 C301 1.357 . S
C302 H321 0.943 1_655 S
Zn303 N297 2.020 . S
Zn303 O306 2.025 1_655 S
Zn303 O311 2.024 1_655 S
Zn303 O313 2.039 . S
Zn303 O315 2.034 . S
O304 C288 1.251 . S
O304 Zn295 2.039 . S
C305 O310 1.246 1_565 S
C305 O311 1.249 . S
O306 C288 1.254 1_565 S
O306 Zn303 2.025 1_455 S
H307 C299 0.952 . S
H308 C290 0.952 . S
H309 C298 0.948 1_455 S
O310 Zn295 2.034 . S
O310 C305 1.246 1_545 S
O311 Zn303 2.024 1_455 S
O311 C305 1.249 . S
H312 C294 0.948 1_655 S
O313 Zn303 2.039 . S
O313 C317 1.251 . S
O314 Zn295 2.025 1_655 S
O314 C317 1.254 1_545 S
O315 C296 1.246 1_565 S
O315 Zn303 2.034 . S
O316 Zn295 2.024 1_655 S
O316 C296 1.249 . S
C317 O313 1.251 . S
C317 O314 1.254 1_565 S
H318 C291 0.949 . S
H319 C293 0.950 . S
H320 C300 0.949 . S
H321 C302 0.943 1_455 S
C322 O338 1.251 1_565 S
C322 O340 1.254 . S
N323 C324 1.333 . S
N323 C328 1.307 . S
N323 Zn329 2.020 . S
C324 N323 1.333 . S
C324 C325 1.379 . S
C324 H342 0.952 . S
C325 C324 1.379 . S
C325 C326 1.390 . S
C325 H352 0.949 . S
C326 C325 1.390 . S
C326 C327 1.357 . S
C327 C326 1.357 . S
C327 C328 1.370 . S
C327 H353 0.950 . S
C328 N323 1.307 . S
C328 C327 1.370 . S
C328 H346 0.948 . S
Zn329 N323 2.020 . S
Zn329 O338 2.039 . S
Zn329 O344 2.034 1_556 S
Zn329 O348 2.025 1_556 S
Zn329 O350 2.024 . S
C330 O349 1.246 . S
C330 O350 1.249 1_565 S
N331 C332 1.307 . S
N331 C333 1.333 . S
N331 Zn337 2.020 . S
C332 N331 1.307 . S
C332 C336 1.370 . S
C332 H343 0.948 . S
C333 N331 1.333 . S
C333 C334 1.379 . S
C333 H341 0.952 . S
C334 C333 1.379 . S
C334 C335 1.390 . S
C334 H354 0.949 . S
C335 C334 1.390 . S
C335 C336 1.357 . S
C336 C332 1.370 . S
C336 C335 1.357 . S
C336 H355 0.950 . S
Zn337 N331 2.020 . S
Zn337 O340 2.025 1_554 S
Zn337 O345 2.024 . S
Zn337 O347 2.039 . S
Zn337 O349 2.034 1_554 S
O338 C322 1.251 1_545 S
O338 Zn329 2.039 . S
C339 O344 1.246 . S
C339 O345 1.249 1_545 S
O340 C322 1.254 . S
O340 Zn337 2.025 1_556 S
H341 C333 0.952 . S
H342 C324 0.952 . S
H343 C332 0.948 . S
O344 Zn329 2.034 1_554 S
O344 C339 1.246 . S
O345 Zn337 2.024 . S
O345 C339 1.249 1_565 S
H346 C328 0.948 . S
O347 Zn337 2.039 . S
O347 C351 1.251 1_565 S
O348 Zn329 2.025 1_554 S
O348 C351 1.254 . S
O349 C330 1.246 . S
O349 Zn337 2.034 1_556 S
O350 Zn329 2.024 . S
O350 C330 1.249 1_545 S
C351 O347 1.251 1_545 S
C351 O348 1.254 . S
H352 C325 0.949 . S
H353 C327 0.950 . S
H354 C334 0.949 . S
H355 C336 0.950 . S
C356 O372 1.251 . S
C356 O374 1.254 . S
N357 C358 1.333 . S
N357 C362 1.307 . S
N357 Zn363 2.020 . S
C358 N357 1.333 . S
C358 C359 1.379 . S
C358 H376 0.952 . S
C359 C358 1.379 . S
C359 C360 1.390 . S
C359 H386 0.949 . S
C360 C359 1.390 . S
C360 C361 1.357 . S
C361 C360 1.357 . S
C361 C362 1.370 . S
C361 H387 0.950 . S
C362 N357 1.307 . S
C362 C361 1.370 . S
C362 H380 0.948 . S
Zn363 N357 2.020 . S
Zn363 O372 2.039 . S
Zn363 O378 2.034 . S
Zn363 O382 2.025 . S
Zn363 O384 2.024 . S
C364 O383 1.246 . S
C364 O384 1.249 . S
N365 C366 1.307 . S
N365 C367 1.333 . S
N365 Zn371 2.020 . S
C366 N365 1.307 . S
C366 C370 1.370 . S
C366 H377 0.948 . S
C367 N365 1.333 . S
C367 C368 1.379 . S
C367 H375 0.952 . S
C368 C367 1.379 . S
C368 C369 1.390 . S
C368 H388 0.949 . S
C369 C368 1.390 . S
C369 C370 1.357 . S
C370 C366 1.370 . S
C370 C369 1.357 . S
C370 H389 0.950 . S
Zn371 N365 2.020 . S
Zn371 O374 2.025 . S
Zn371 O379 2.024 . S
Zn371 O381 2.039 . S
Zn371 O383 2.034 . S
O372 C356 1.251 . S
O372 Zn363 2.039 . S
C373 O378 1.246 . S
C373 O379 1.249 . S
O374 C356 1.254 . S
O374 Zn371 2.025 . S
H375 C367 0.952 . S
H376 C358 0.952 . S
H377 C366 0.948 . S
O378 Zn363 2.034 . S
O378 C373 1.246 . S
O379 Zn371 2.024 . S
O379 C373 1.249 . S
H380 C362 0.948 . S
O381 Zn371 2.039 . S
O381 C385 1.251 . S
O382 Zn363 2.025 . S
O382 C385 1.254 . S
O383 C364 1.246 . S
O383 Zn371 2.034 . S
O384 Zn363 2.024 . S
O384 C364 1.249 . S
C385 O381 1.251 . S
C385 O382 1.254 . S
H386 C359 0.949 . S
H387 C361 0.950 . S
H388 C368 0.949 . S
H389 C370 0.950 . S
C390 O406 1.251 1_556 S
C390 O408 1.254 . S
N391 C392 1.333 . S
N391 C396 1.307 . S
N391 Zn397 2.020 . S
C392 N391 1.333 . S
C392 C393 1.379 . S
C392 H410 0.952 . S
C393 C392 1.379 . S
C393 C394 1.390 . S
C393 H420 0.949 . S
C394 C393 1.390 . S
C394 C395 1.357 . S
C395 C394 1.357 . S
C395 C396 1.370 . S
C395 H421 0.950 . S
C396 N391 1.307 . S
C396 C395 1.370 . S
C396 H414 0.948 . S
Zn397 N391 2.020 . S
Zn397 O406 2.039 . S
Zn397 O412 2.034 1_655 S
Zn397 O416 2.025 1_655 S
Zn397 O418 2.024 . S
C398 O417 1.246 . S
C398 O418 1.249 1_556 S
N399 C400 1.307 . S
N399 C401 1.333 . S
N399 Zn405 2.020 . S
C400 N399 1.307 . S
C400 C404 1.370 . S
C400 H411 0.948 . S
C401 N399 1.333 . S
C401 C402 1.379 . S
C401 H409 0.952 . S
C402 C401 1.379 . S
C402 C403 1.390 . S
C402 H422 0.949 . S
C403 C402 1.390 . S
C403 C404 1.357 . S
C404 C400 1.370 . S
C404 C403 1.357 . S
C404 H423 0.950 . S
Zn405 N399 2.020 . S
Zn405 O408 2.025 1_455 S
Zn405 O413 2.024 . S
Zn405 O415 2.039 . S
Zn405 O417 2.034 1_455 S
O406 C390 1.251 1_554 S
O406 Zn397 2.039 . S
C407 O412 1.246 . S
C407 O413 1.249 1_554 S
O408 C390 1.254 . S
O408 Zn405 2.025 1_655 S
H409 C401 0.952 . S
H410 C392 0.952 . S
H411 C400 0.948 . S
O412 Zn397 2.034 1_455 S
O412 C407 1.246 . S
O413 Zn405 2.024 . S
O413 C407 1.249 1_556 S
H414 C396 0.948 . S
O415 Zn405 2.039 . S
O415 C419 1.251 1_556 S
O416 Zn397 2.025 1_455 S
O416 C419 1.254 . S
O417 C398 1.246 . S
O417 Zn405 2.034 1_655 S
O418 Zn397 2.024 . S
O418 C398 1.249 1_554 S
C419 O415 1.251 1_554 S
C419 O416 1.254 . S
H420 C393 0.949 . S
H421 C395 0.950 . S
H422 C402 0.949 . S
H423 C404 0.950 . S
C1 C288 3.204 . S
C67 C330 3.186 . S
C360 C97 1.611 . S
C133 C394 1.853 . S
C351 C25 2.310 . S
C305 C37 2.343 . S
C398 C103 1.766 1_556 S
C364 C109 2.058 . S
C31 C419 3.067 . S
C326 C73 1.840 . S
C139 C301 2.051 . S
C61 C385 3.020 . S
C317 C175 3.297 . S
C181 C339 3.183 . S
C247 C369 1.786 . S
C277 C403 1.946 . S
C145 C322 2.417 . S
C296 C211 2.347 . S
C407 C217 1.921 1_554 S
C373 C283 2.087 . S
C169 C390 3.154 . S
C335 C241 1.905 . S
C292 C253 1.989 . S
C205 C356 2.995 . S
