# Generated by pormake.
# Topology pyr, (3,6)-cn, num edge types: 1
# Building blocks:
#     Node 0, Type 0, BuildingBlock: QEWDON_clean_linker_0, # of connection points: 3
#     Node 1, Type 0, BuildingBlock: QEWDON_clean_linker_0, # of connection points: 3
#     Node 2, Type 0, BuildingBlock: QEWDON_clean_linker_0, # of connection points: 3
#     Node 3, Type 0, BuildingBlock: QEWDON_clean_linker_0, # of connection points: 3
#     Node 4, Type 0, BuildingBlock: QEWDON_clean_linker_0, # of connection points: 3
#     Node 5, Type 0, BuildingBlock: QEWDON_clean_linker_0, # of connection points: 3
#     Node 6, Type 0, BuildingBlock: QEWDON_clean_linker_0, # of connection points: 3
#     Node 7, Type 0, BuildingBlock: QEWDON_clean_linker_0, # of connection points: 3
#     Node 8, Type 1, BuildingBlock: JUFBIX_clean_sbu_0, # of connection points: 6
#     Node 9, Type 1, BuildingBlock: JUFBIX_clean_sbu_0, # of connection points: 6
#     Node 10, Type 1, BuildingBlock: JUFBIX_clean_sbu_0, # of connection points: 6
#     Node 11, Type 1, BuildingBlock: JUFBIX_clean_sbu_0, # of connection points: 6
#     Edge 12, Type (0, 1), BuildingBlock: TEMPAE_clean_linker_10, # of connection points: 2
#     Edge 13, Type (0, 1), BuildingBlock: TEMPAE_clean_linker_10, # of connection points: 2
#     Edge 14, Type (0, 1), BuildingBlock: TEMPAE_clean_linker_10, # of connection points: 2
#     Edge 15, Type (0, 1), BuildingBlock: TEMPAE_clean_linker_10, # of connection points: 2
#     Edge 16, Type (0, 1), BuildingBlock: TEMPAE_clean_linker_10, # of connection points: 2
#     Edge 17, Type (0, 1), BuildingBlock: TEMPAE_clean_linker_10, # of connection points: 2
#     Edge 18, Type (0, 1), BuildingBlock: TEMPAE_clean_linker_10, # of connection points: 2
#     Edge 19, Type (0, 1), BuildingBlock: TEMPAE_clean_linker_10, # of connection points: 2
#     Edge 20, Type (0, 1), BuildingBlock: TEMPAE_clean_linker_10, # of connection points: 2
#     Edge 21, Type (0, 1), BuildingBlock: TEMPAE_clean_linker_10, # of connection points: 2
#     Edge 22, Type (0, 1), BuildingBlock: TEMPAE_clean_linker_10, # of connection points: 2
#     Edge 23, Type (0, 1), BuildingBlock: TEMPAE_clean_linker_10, # of connection points: 2
#     Edge 24, Type (0, 1), BuildingBlock: TEMPAE_clean_linker_10, # of connection points: 2
#     Edge 25, Type (0, 1), BuildingBlock: TEMPAE_clean_linker_10, # of connection points: 2
#     Edge 26, Type (0, 1), BuildingBlock: TEMPAE_clean_linker_10, # of connection points: 2
#     Edge 27, Type (0, 1), BuildingBlock: TEMPAE_clean_linker_10, # of connection points: 2
#     Edge 28, Type (0, 1), BuildingBlock: TEMPAE_clean_linker_10, # of connection points: 2
#     Edge 29, Type (0, 1), BuildingBlock: TEMPAE_clean_linker_10, # of connection points: 2
#     Edge 30, Type (0, 1), BuildingBlock: TEMPAE_clean_linker_10, # of connection points: 2
#     Edge 31, Type (0, 1), BuildingBlock: TEMPAE_clean_linker_10, # of connection points: 2
#     Edge 32, Type (0, 1), BuildingBlock: TEMPAE_clean_linker_10, # of connection points: 2
#     Edge 33, Type (0, 1), BuildingBlock: TEMPAE_clean_linker_10, # of connection points: 2
#     Edge 34, Type (0, 1), BuildingBlock: TEMPAE_clean_linker_10, # of connection points: 2
#     Edge 35, Type (0, 1), BuildingBlock: TEMPAE_clean_linker_10, # of connection points: 2
# Relax obj value: 0.181
# Max RMSD: 0.286
# Mean RMSD: 0.183
data_MOF--net-pyr--node1-JUFBIX_clean_sbu_0--node2-QEWDON_clean_linker_0--edge1-TEMPAE_clean_linker_10
_symmetry_space_group_name_H-M    P1
_symmetry_Int_Tables_number       1
_symmetry_cell_setting            triclinic
loop_
_symmetry_equiv_pos_as_xyz
'x, y, z'
_cell_length_a     37.765809
_cell_length_b     35.898178
_cell_length_c     40.179962
_cell_angle_alpha  84.923731
_cell_angle_beta   89.971555
_cell_angle_gamma 100.73999
loop_
_atom_site_label
_atom_site_type_symbol
_atom_site_fract_x
_atom_site_fract_y
_atom_site_fract_z
_atom_type_partial_charge
H0 H 0.2722 0.24909 0.18635 0.0
C1 C 0.25809 0.233 0.20801 0.0
C2 C 0.26873 0.1987 0.22155 0.0
C3 C 0.23041 0.24823 0.22283 0.0
H4 H 0.25818 0.15437 0.26283 0.0
C5 C 0.24993 0.17961 0.2511 0.0
C6 C 0.22213 0.1942 0.26699 0.0
C7 C 0.21272 0.22822 0.2519 0.0
C8 C 0.22852 0.28999 0.21552 0.0
H9 H 0.19244 0.24058 0.26374 0.0
C10 C 0.20489 0.30584 0.19238 0.0
C11 C 0.20544 0.34629 0.1887 0.0
C12 C 0.25149 0.31482 0.23457 0.0
H13 H 0.26948 0.3039 0.25235 0.0
C14 C 0.25142 0.35363 0.23168 0.0
H15 H 0.18693 0.28726 0.17737 0.0
C16 C 0.22876 0.36906 0.20937 0.0
H17 H 0.22947 0.39944 0.2085 0.0
H18 H 0.2691 0.37203 0.24705 0.0
H19 H 0.36292 0.84239 0.82641 0.0
C20 C 0.3794 0.8312 0.80906 0.0
C21 C 0.41709 0.83882 0.81145 0.0
C22 C 0.36283 0.81072 0.7835 0.0
H23 H 0.46735 0.83115 0.78969 0.0
C24 C 0.43822 0.82521 0.78808 0.0
C25 C 0.42159 0.8043 0.7624 0.0
C26 C 0.38384 0.79734 0.76029 0.0
C27 C 0.32367 0.80607 0.77943 0.0
H28 H 0.37068 0.78143 0.74055 0.0
C29 C 0.30961 0.83375 0.75965 0.0
C30 C 0.27225 0.83019 0.75545 0.0
C31 C 0.30039 0.77455 0.79531 0.0
H32 H 0.31101 0.75299 0.81071 0.0
C33 C 0.26318 0.77081 0.79135 0.0
H34 H 0.32788 0.85832 0.74788 0.0
C35 C 0.24909 0.79845 0.77157 0.0
H36 H 0.22019 0.79474 0.76854 0.0
H37 H 0.2452 0.74641 0.80357 0.0
H38 H 0.73731 0.50673 0.93365 0.0
C39 C 0.72287 0.47761 0.93779 0.0
C40 C 0.74105 0.44847 0.94973 0.0
C41 C 0.68598 0.46975 0.93119 0.0
H42 H 0.73467 0.38864 0.96608 0.0
C43 C 0.72121 0.41123 0.95614 0.0
C44 C 0.68384 0.40315 0.95062 0.0
C45 C 0.66661 0.43252 0.93735 0.0
C46 C 0.66805 0.50083 0.91761 0.0
H47 H 0.63798 0.42664 0.93238 0.0
C48 C 0.65184 0.4992 0.88624 0.0
C49 C 0.63827 0.53053 0.87131 0.0
C50 C 0.66944 0.53338 0.93483 0.0
H51 H 0.68196 0.53513 0.95904 0.0
C52 C 0.65497 0.56405 0.92075 0.0
H53 H 0.65086 0.47392 0.87312 0.0
C54 C 0.63979 0.56287 0.8891 0.0
H55 H 0.63022 0.58779 0.87824 0.0
H56 H 0.65627 0.58918 0.93407 0.0
H57 H 0.93961 0.83805 0.35052 0.0
C58 C 0.9211 0.81522 0.36438 0.0
C59 C 0.92849 0.80336 0.39749 0.0
C60 C 0.88962 0.79813 0.34911 0.0
H61 H 0.90799 0.76705 0.44151 0.0
C62 C 0.90376 0.77424 0.41523 0.0
C63 C 0.87195 0.75706 0.40028 0.0
C64 C 0.86572 0.76844 0.36678 0.0
C65 C 0.88078 0.81214 0.31507 0.0
H66 H 0.84136 0.75545 0.35481 0.0
C67 C 0.87452 0.78688 0.29022 0.0
C68 C 0.867 0.79971 0.2574 0.0
C69 C 0.87864 0.85054 0.30724 0.0
H70 H 0.88319 0.87047 0.32622 0.0
C71 C 0.87025 0.86333 0.27484 0.0
H72 H 0.87741 0.75753 0.29616 0.0
C73 C 0.86471 0.83816 0.2499 0.0
H74 H 0.8592 0.84876 0.22472 0.0
H75 H 0.86856 0.89295 0.26893 0.0
H76 H 0.86639 0.8768 0.92694 0.0
C77 C 0.87999 0.8909 0.90423 0.0
C78 C 0.91202 0.87963 0.89326 0.0
C79 C 0.86438 0.91893 0.88533 0.0
H80 H 0.95211 0.88824 0.85345 0.0
C81 C 0.92811 0.897 0.86231 0.0
C82 C 0.91317 0.9246 0.84217 0.0
C83 C 0.88158 0.93541 0.85449 0.0
C84 C 0.82567 0.92338 0.89222 0.0
H85 H 0.86882 0.95515 0.83893 0.0
C86 C 0.81322 0.94225 0.91907 0.0
C87 C 0.7756 0.94468 0.92226 0.0
C88 C 0.80001 0.90753 0.86966 0.0
H89 H 0.8081 0.89302 0.8492 0.0
C90 C 0.76377 0.90969 0.8729 0.0
H91 H 0.83229 0.95487 0.93686 0.0
C92 C 0.75177 0.9279 0.89869 0.0
H93 H 0.72333 0.92903 0.90017 0.0
H94 H 0.74468 0.89709 0.8551 0.0
H95 H 0.70667 0.20738 0.50735 0.0
C96 C 0.69553 0.2024 0.48291 0.0
C97 C 0.71304 0.18338 0.46089 0.0
C98 C 0.66285 0.21359 0.47414 0.0
H99 H 0.71187 0.16191 0.41263 0.0
C100 C 0.69779 0.17599 0.42979 0.0
C101 C 0.66484 0.18663 0.42064 0.0
C102 C 0.64768 0.20594 0.44298 0.0
C103 C 0.64274 0.2292 0.49932 0.0
H104 H 0.6218 0.21346 0.43691 0.0
C105 C 0.63978 0.26784 0.49658 0.0
C106 C 0.62209 0.28251 0.52196 0.0
C107 C 0.62745 0.20514 0.52708 0.0
H108 H 0.62961 0.17535 0.52953 0.0
C109 C 0.6092 0.21929 0.55181 0.0
H110 H 0.65217 0.28651 0.47539 0.0
C111 C 0.60653 0.25764 0.54936 0.0
H112 H 0.59204 0.26782 0.56889 0.0
H113 H 0.59723 0.2005 0.57305 0.0
H114 H 0.42738 0.72945 0.22984 0.0
C115 C 0.40218 0.72384 0.21663 0.0
C116 C 0.39055 0.75351 0.19717 0.0
C117 C 0.38203 0.68669 0.21815 0.0
H118 H 0.35071 0.76846 0.16297 0.0
C119 C 0.3585 0.74578 0.17928 0.0
C120 C 0.33757 0.70892 0.18088 0.0
C121 C 0.34965 0.67949 0.2006 0.0
C122 C 0.39624 0.65491 0.23602 0.0
H123 H 0.33394 0.65085 0.20251 0.0
C124 C 0.40655 0.65622 0.2696 0.0
C125 C 0.42195 0.6268 0.286 0.0
C126 C 0.40083 0.62372 0.21888 0.0
H127 H 0.39324 0.62226 0.19296 0.0
C128 C 0.41636 0.59474 0.23469 0.0
H129 H 0.40192 0.67988 0.28289 0.0
C130 C 0.42717 0.59636 0.2678 0.0
H131 H 0.44005 0.57385 0.27889 0.0
H132 H 0.42044 0.57112 0.22109 0.0
H133 H 0.18446 0.43856 0.70106 0.0
C134 C 0.16328 0.42163 0.68767 0.0
C135 C 0.15724 0.43241 0.65395 0.0
C136 C 0.14552 0.38664 0.70312 0.0
H137 H 0.12651 0.4168 0.61049 0.0
C138 C 0.13106 0.40886 0.63657 0.0
C139 C 0.11365 0.37329 0.65155 0.0
C140 C 0.12078 0.36268 0.68504 0.0
C141 C 0.15607 0.37349 0.73691 0.0
H142 H 0.10882 0.33472 0.69658 0.0
C143 C 0.15593 0.39672 0.76307 0.0
C144 C 0.1673 0.38544 0.79499 0.0
C145 C 0.16768 0.33854 0.7429 0.0
H146 H 0.1683 0.32026 0.72294 0.0
C147 C 0.17953 0.32746 0.77458 0.0
H148 H 0.14691 0.42368 0.75856 0.0
C149 C 0.17955 0.3509 0.80058 0.0
H150 H 0.18846 0.34182 0.82509 0.0
H151 H 0.18874 0.30067 0.77898 0.0
Co152 Co 0.03201 0.0564 0.53882 0.0
C153 C 0.05258 0.98697 0.53472 0.0
Co154 Co 0.08484 0.05303 0.56056 0.0
C155 C 0.96247 0.07804 0.52492 0.0
C156 C 0.97932 0.04469 0.48837 0.0
N157 N 0.98872 0.05887 0.51778 0.0
N158 N 0.93748 0.07676 0.50079 0.0
C159 C 0.94795 0.05569 0.47786 0.0
H160 H 0.96264 0.0942 0.54645 0.0
H161 H 0.99506 0.02859 0.47475 0.0
C162 C 0.0632 0.12234 0.56468 0.0
N163 N 0.12812 0.05007 0.58074 0.0
C164 C 0.13523 0.01957 0.59967 0.0
C165 C 0.15889 0.07615 0.58023 0.0
N166 N 0.16923 0.02525 0.61094 0.0
C167 C 0.18427 0.06096 0.59893 0.0
C168 C 0.0923 0.08021 0.49226 0.0
O169 O 0.0361 0.10688 0.54896 0.0
O170 O 0.08782 0.10356 0.57271 0.0
O171 O 0.11012 0.07284 0.51822 0.0
O172 O 0.05794 0.07462 0.49548 0.0
O173 O 0.08152 1.00228 0.54795 0.0
H174 H 0.16263 0.10422 0.56699 0.0
H175 H 0.11556 0.9937 0.60536 0.0
O176 O 0.02778 0.00589 0.52898 0.0
O177 O 1.00686 0.03817 0.58227 0.0
O178 O 0.05942 0.03336 0.60316 0.0
C179 C 0.02535 0.02935 0.60752 0.0
H180 H 0.93422 0.04931 0.45482 0.0
H181 H 0.21177 0.07481 0.60285 0.0
Co182 Co 0.52003 0.07359 0.06045 0.0
C183 C 0.51449 0.01478 0.11176 0.0
Co184 Co 0.55403 0.08701 0.10393 0.0
C185 C 0.49126 0.02863 1.00829 0.0
C186 C 0.47031 0.08017 1.00649 0.0
N187 N 0.49157 0.06003 0.02447 0.0
N188 N 0.47117 0.02846 0.98051 0.0
C189 C 0.45768 0.06082 0.97944 0.0
H190 H 0.50617 0.00662 1.01653 0.0
H191 H 0.46545 0.10777 1.01197 0.0
C192 C 0.56009 0.14576 0.05252 0.0
N193 N 0.58423 0.10113 0.13922 0.0
C194 C 0.57635 0.10853 0.17057 0.0
C195 C 0.62052 0.10951 0.13698 0.0
N196 N 0.60636 0.12131 0.1878 0.0
C197 C 0.63409 0.12147 0.16662 0.0
C198 C 0.58976 0.05436 0.05359 0.0
O199 O 0.53666 0.12261 0.03828 0.0
O200 O 0.57092 0.13565 0.08125 0.0
O201 O 0.59332 0.06681 0.08246 0.0
O202 O 0.55972 0.05497 0.03933 0.0
O203 O 0.53711 0.03835 0.12651 0.0
H204 H 0.63642 0.10812 0.11491 0.0
H205 H 0.54913 0.10576 0.18015 0.0
O206 O 0.50384 0.02468 0.08285 0.0
O207 O 0.48016 0.0923 0.0817 0.0
O208 O 0.51398 0.10646 0.12463 0.0
C209 C 0.48352 0.10549 0.11035 0.0
H210 H 0.44112 0.07068 0.95984 0.0
H211 H 0.66241 0.12974 0.1719 0.0
Co212 Co 0.56131 0.60665 0.57155 0.0
C213 C 0.51028 0.6096 0.52212 0.0
Co214 Co 0.5089 0.56954 0.58412 0.0
C215 C 0.63705 0.63036 0.55393 0.0
C216 C 0.61048 0.6776 0.55747 0.0
N217 N 0.60479 0.6392 0.561 0.0
N218 N 0.66247 0.6617 0.5462 0.0
C219 C 0.64585 0.69145 0.54852 0.0
H220 H 0.64177 0.60156 0.55377 0.0
H221 H 0.59003 0.69465 0.56002 0.0
C222 C 0.55993 0.5667 0.63345 0.0
N223 N 0.46578 0.53743 0.59475 0.0
C224 C 0.43249 0.54599 0.59436 0.0
C225 C 0.46095 0.50018 0.60552 0.0
N226 N 0.40701 0.51556 0.60469 0.0
C227 C 0.42487 0.48664 0.61158 0.0
C228 C 0.55646 0.53431 0.55094 0.0
O229 O 0.57962 0.59122 0.61327 0.0
O230 O 0.52806 0.55275 0.62524 0.0
O231 O 0.52489 0.53045 0.56317 0.0
O232 O 0.5778 0.56608 0.5518 0.0
O233 O 0.48998 0.58659 0.54299 0.0
H234 H 0.48235 0.484 0.60896 0.0
H235 H 0.42724 0.57424 0.58736 0.0
O236 O 0.5428 0.62201 0.52957 0.0
O237 O 0.54416 0.64639 0.59203 0.0
O238 O 0.49298 0.60837 0.60539 0.0
C239 C 0.51334 0.64059 0.60627 0.0
H240 H 0.6579 0.72107 0.54231 0.0
H241 H 0.41277 0.45765 0.62022 0.0
Co242 Co 0.05958 0.59818 1.01714 0.0
C243 C 0.98892 0.55977 0.02157 0.0
Co244 Co 0.03248 0.60283 0.06455 0.0
C245 C 0.10936 0.57592 0.97204 0.0
C246 C 0.07307 0.60705 0.94618 0.0
N247 N 0.08239 0.5948 0.97708 0.0
N248 N 0.11673 0.57516 0.93931 0.0
C249 C 0.09415 0.59508 0.92296 0.0
H250 H 0.12232 0.56139 0.9919 0.0
H251 H 0.05091 0.6217 0.94068 0.0
C252 C 0.10315 0.64016 0.06142 0.0
N253 N 1.00982 0.60599 0.10459 0.0
C254 C 0.98089 0.62198 0.10954 0.0
C255 C 0.01998 0.59476 0.13546 0.0
N256 N 0.97285 0.62172 0.14227 0.0
C257 C 0.99729 0.60433 0.15865 0.0
C258 C 0.06919 0.5398 0.06715 0.0
O259 O 0.10254 0.62912 0.03214 0.0
O260 O 0.07459 0.63262 0.07927 0.0
O261 O 0.04951 0.55695 0.08389 0.0
O262 O 0.07636 0.55258 0.03682 0.0
O263 O 0.99019 0.57275 0.04999 0.0
H264 H 0.04315 0.58167 0.14089 0.0
H265 H 0.96709 0.63532 0.08957 0.0
O266 O 1.01684 0.56692 1.0027 0.0
O267 O 0.0422 0.64363 0.99768 0.0
O268 O 1.01588 0.64901 0.04481 0.0
C269 C 0.02274 0.66121 1.01423 0.0
H270 H 0.09102 0.59808 0.89612 0.0
H271 H 0.9994 0.59985 0.18551 0.0
C272 C 0.19478 0.19854 0.32484 0.0
C273 C 0.20413 0.1759 0.30038 0.0
C274 C 0.17694 0.1826 0.35543 0.0
C275 C 0.16775 0.14248 0.36284 0.0
C276 C 0.1775 0.11932 0.33858 0.0
C277 C 0.19544 0.13608 0.30808 0.0
C278 C 0.16785 0.20902 0.37999 0.0
C279 C 0.16861 0.07655 0.34474 0.0
C280 C 0.14941 0.10278 0.45586 0.0
C281 C 0.11145 0.09536 0.45888 0.0
C282 C 0.16777 0.11741 0.42513 0.0
C283 C 0.14822 0.12514 0.39584 0.0
C284 C 0.10988 0.1174 0.39865 0.0
C285 C 0.09218 0.10283 0.42974 0.0
C286 C 0.20842 0.12498 0.42415 0.0
C287 C 0.08735 0.12484 0.36869 0.0
H288 H 0.2018 0.22923 0.32033 0.0
H289 H 0.20202 0.11778 0.28988 0.0
H290 H 0.13834 0.20343 0.3849 0.0
H291 H 0.18099 0.20363 0.40417 0.0
H292 H 0.17657 0.23948 0.37085 0.0
H293 H 0.17811 0.06223 0.32396 0.0
H294 H 0.18112 0.06717 0.36823 0.0
H295 H 0.13903 0.06702 0.34792 0.0
H296 H 0.16504 0.09735 0.47777 0.0
H297 H 0.063 0.09739 0.43118 0.0
H298 H 0.2188 0.15569 0.4172 0.0
H299 H 0.21824 0.10902 0.40476 0.0
H300 H 0.21994 0.11675 0.44854 0.0
H301 H 0.09341 0.15556 0.35984 0.0
H302 H 0.058 0.11643 0.37431 0.0
H303 H 0.09423 0.10895 0.34788 0.0
C304 C 0.42226 0.85404 0.87075 0.0
C305 C 0.43352 0.86316 0.83731 0.0
C306 C 0.43208 0.88003 0.89471 0.0
C307 C 0.45318 0.91624 0.88482 0.0
C308 C 0.4662 0.92481 0.8514 0.0
C309 C 0.45635 0.89798 0.82803 0.0
C310 C 0.41821 0.86951 0.93019 0.0
C311 C 0.48853 0.96318 0.83983 0.0
C312 C 0.43714 0.9964 0.9352 0.0
C313 C 0.46708 1.00077 0.9561 0.0
C314 C 0.43274 0.96952 0.91148 0.0
C315 C 0.45876 0.94613 0.90872 0.0
C316 C 0.48921 0.95055 0.92948 0.0
C317 C 0.49309 0.9779 0.95278 0.0
C318 C 0.39996 0.96584 0.88963 0.0
C319 C 0.51748 0.92608 0.92736 0.0
H320 H 0.40462 0.82702 0.87786 0.0
H321 H 0.4647 0.90514 0.80206 0.0
H322 H 0.44048 0.87567 0.94806 0.0
H323 H 0.39793 0.88695 0.93575 0.0
H324 H 0.40544 0.83896 0.93459 0.0
H325 H 0.49971 0.96389 0.81415 0.0
H326 H 0.47155 0.98528 0.84006 0.0
H327 H 0.51112 0.97086 0.85707 0.0
H328 H 0.41675 0.01359 0.93771 0.0
H329 H 0.51676 0.9815 0.9682 0.0
H330 H 0.38317 0.93704 0.89466 0.0
H331 H 0.40834 0.96921 0.86289 0.0
H332 H 0.38308 0.9873 0.89387 0.0
H333 H 0.50509 0.89572 0.93362 0.0
H334 H 0.54014 0.93387 0.94457 0.0
H335 H 0.52847 0.92873 0.90148 0.0
C336 C 0.64186 0.51426 0.81203 0.0
C337 C 0.62468 0.53053 0.83654 0.0
C338 C 0.63096 0.51633 0.77866 0.0
C339 C 0.60276 0.53589 0.76939 0.0
C340 C 0.58475 0.55165 0.79402 0.0
C341 C 0.59568 0.54843 0.82733 0.0
C342 C 0.6504 0.49864 0.75316 0.0
C343 C 0.55472 0.57303 0.785 0.0
C344 C 0.60155 0.58113 0.68064 0.0
C345 C 0.57287 0.55677 0.66713 0.0
C346 C 0.61185 0.57432 0.71379 0.0
C347 C 0.59347 0.54196 0.73367 0.0
C348 C 0.56545 0.5164 0.71976 0.0
C349 C 0.55521 0.52433 0.6867 0.0
C350 C 0.64156 0.60251 0.72788 0.0
C351 C 0.54583 0.48115 0.73999 0.0
H352 H 0.66465 0.50088 0.81863 0.0
H353 H 0.58175 0.56043 0.84613 0.0
H354 H 0.63074 0.48038 0.7382 0.0
H355 H 0.66607 0.52134 0.73559 0.0
H356 H 0.6692 0.48118 0.76494 0.0
H357 H 0.54279 0.58264 0.80726 0.0
H358 H 0.56518 0.59837 0.76747 0.0
H359 H 0.53307 0.5548 0.77203 0.0
H360 H 0.61514 0.60636 0.66568 0.0
H361 H 0.53315 0.5053 0.67626 0.0
H362 H 0.66316 0.58783 0.73797 0.0
H363 H 0.63073 0.61531 0.74892 0.0
H364 H 0.65368 0.62577 0.70888 0.0
H365 H 0.56541 0.46427 0.75105 0.0
H366 H 0.52653 0.46277 0.72474 0.0
H367 H 0.53073 0.4894 0.76098 0.0
C368 C 0.88962 0.78493 0.20292 0.0
C369 C 0.86664 0.77369 0.23082 0.0
C370 C 0.89893 0.75777 0.18326 0.0
C371 C 0.88483 0.71872 0.19189 0.0
C372 C 0.8578 0.70789 0.21709 0.0
C373 C 0.84905 0.73563 0.23641 0.0
C374 C 0.92734 0.77053 0.15611 0.0
C375 C 0.84134 0.66665 0.22635 0.0
C376 C 0.91741 0.64905 0.13879 0.0
C377 C 0.94795 0.64207 0.15644 0.0
C378 C 0.89539 0.6727 0.1506 0.0
C379 C 0.90441 0.68987 0.18056 0.0
C380 C 0.93423 0.68152 0.19921 0.0
C381 C 0.95555 0.65772 0.18693 0.0
C382 C 0.86354 0.68049 0.13028 0.0
C383 C 0.94474 0.69914 0.23145 0.0
H384 H 0.90316 0.81437 0.19843 0.0
H385 H 0.83061 0.72707 0.25758 0.0
H386 H 0.95356 0.76445 0.16535 0.0
H387 H 0.92049 0.75476 0.13376 0.0
H388 H 0.93071 0.80154 0.14856 0.0
H389 H 0.81561 0.66366 0.24062 0.0
H390 H 0.8363 0.6509 0.20376 0.0
H391 H 0.86036 0.65313 0.24219 0.0
H392 H 0.91108 0.63655 0.11545 0.0
H393 H 0.97925 0.65291 0.20052 0.0
H394 H 0.87074 0.7088 0.11597 0.0
H395 H 0.84003 0.68111 0.14665 0.0
H396 H 0.8555 0.65885 0.11222 0.0
H397 H 0.95231 0.73053 0.22646 0.0
H398 H 0.96782 0.68844 0.24352 0.0
H399 H 0.9216 0.69301 0.24936 0.0
C400 C 0.30286 0.14531 0.20771 0.0
C401 C 0.3006 0.18434 0.20582 0.0
C402 C 0.3321 0.13196 0.19302 0.0
C403 C 0.36059 0.15775 0.1753 0.0
C404 C 0.3586 0.19708 0.17335 0.0
C405 C 0.32934 0.20969 0.18856 0.0
C406 C 0.33241 0.08985 0.19641 0.0
C407 C 0.38763 0.22621 0.15497 0.0
C408 C 0.45393 0.12929 0.16018 0.0
C409 C 0.45214 0.11898 0.12702 0.0
C410 C 0.42469 0.14135 0.17607 0.0
C411 C 0.39215 0.14385 0.15876 0.0
C412 C 0.39026 0.13359 0.12525 0.0
C413 C 0.41976 0.12128 0.11008 0.0
C414 C 0.42869 0.15137 0.2117 0.0
C415 C 0.35692 0.13585 0.10513 0.0
H416 H 0.28137 0.12474 0.22036 0.0
H417 H 0.32951 0.23996 0.18716 0.0
H418 H 0.33157 0.07912 0.17131 0.0
H419 H 0.35779 0.08452 0.20817 0.0
H420 H 0.30925 0.07332 0.21164 0.0
H421 H 0.38224 0.2556 0.15487 0.0
H422 H 0.41406 0.22528 0.16672 0.0
H423 H 0.38992 0.21944 0.12873 0.0
H424 H 0.47831 0.12772 0.17401 0.0
H425 H 0.41742 0.1136 0.08458 0.0
H426 H 0.40673 0.13356 0.22755 0.0
H427 H 0.42619 0.1815 0.21307 0.0
H428 H 0.45501 0.14723 0.22225 0.0
H429 H 0.33313 0.11732 0.11794 0.0
H430 H 0.35924 0.12708 0.07951 0.0
H431 H 0.3518 0.16541 0.10322 0.0
C432 C 0.27446 0.87455 0.70349 0.0
C433 C 0.25771 0.85962 0.73423 0.0
C434 C 0.26138 0.90269 0.68327 0.0
C435 C 0.23075 0.91612 0.69402 0.0
C436 C 0.21378 0.9013 0.72507 0.0
C437 C 0.22747 0.87318 0.74482 0.0
C438 C 0.28007 0.91769 0.65023 0.0
C439 C 0.18104 0.91498 0.73732 0.0
C440 C 0.21232 0.01041 0.65406 0.0
C441 C 0.18564 0.99818 0.63113 0.0
C442 C 0.2274 0.98402 0.6747 0.0
C443 C 0.21557 0.94457 0.67215 0.0
C444 C 0.18904 0.93212 0.6487 0.0
C445 C 0.17443 0.95907 0.62849 0.0
C446 C 0.25564 0.99829 0.69948 0.0
C447 C 0.17596 0.89029 0.64503 0.0
H448 H 0.29757 0.86382 0.69498 0.0
H449 H 0.21475 0.86211 0.76875 0.0
H450 H 0.26118 0.91122 0.62949 0.0
H451 H 0.28835 0.9491 0.64907 0.0
H452 H 0.30431 0.90517 0.64606 0.0
H453 H 0.17157 0.90126 0.76242 0.0
H454 H 0.18726 0.94628 0.73849 0.0
H455 H 0.15871 0.90885 0.7195 0.0
H456 H 0.22083 0.04059 0.65635 0.0
H457 H 0.15433 0.94949 0.61036 0.0
H458 H 0.28068 0.98737 0.69499 0.0
H459 H 0.24601 0.98741 0.72524 0.0
H460 H 0.26227 0.02988 0.69801 0.0
H461 H 0.19895 0.87683 0.63869 0.0
H462 H 0.15536 0.88538 0.62537 0.0
H463 H 0.16412 0.87569 0.66908 0.0
C464 C 0.80317 0.48596 0.93634 0.0
C465 C 0.7803 0.45775 0.9568 0.0
C466 C 0.83887 0.49922 0.94523 0.0
C467 C 0.85252 0.48295 0.97471 0.0
C468 C 0.83062 0.45234 0.99401 0.0
C469 C 0.7946 0.44046 0.98512 0.0
C470 C 0.86112 0.53237 0.92424 0.0
C471 C 0.84457 0.43354 0.02512 0.0
C472 C 0.95345 0.51076 0.98785 0.0
C473 C 0.95445 0.53889 1.01005 0.0
C474 C 0.92035 0.49123 0.97688 0.0
C475 C 0.88784 0.50119 0.9875 0.0
C476 C 0.8889 0.52982 1.00975 0.0
C477 C 0.92216 0.54787 0.02114 0.0
C478 C 0.92011 0.46001 0.95403 0.0
C479 C 0.85495 0.54204 0.02098 0.0
H480 H 0.7928 0.49869 0.91383 0.0
H481 H 0.77732 0.4188 1.00128 0.0
H482 H 0.8661 0.55768 0.93877 0.0
H483 H 0.88776 0.52591 0.91786 0.0
H484 H 0.84756 0.53981 0.90072 0.0
H485 H 0.82656 0.40633 0.03399 0.0
H486 H 0.87195 0.42783 0.02048 0.0
H487 H 0.84663 0.45288 0.04537 0.0
H488 H 0.97848 0.50368 0.97948 0.0
H489 H 0.92296 0.56991 0.03808 0.0
H490 H 0.90871 0.46795 0.92956 0.0
H491 H 0.90259 0.43339 0.96489 0.0
H492 H 0.94755 0.4542 0.94969 0.0
H493 H 0.84043 0.55199 0.99891 0.0
H494 H 0.86059 0.5653 0.03782 0.0
H495 H 0.83661 0.51754 0.03431 0.0
C496 C 0.80725 0.73645 0.41734 0.0
C497 C 0.84309 0.73166 0.42105 0.0
C498 C 0.78016 0.71716 0.43961 0.0
C499 C 0.78909 0.69273 0.46663 0.0
C500 C 0.82473 0.68597 0.46954 0.0
C501 C 0.85139 0.70555 0.44664 0.0
C502 C 0.74235 0.72497 0.43542 0.0
C503 C 0.8352 0.65987 0.49783 0.0
C504 C 0.7252 0.69464 0.5378 0.0
C505 C 0.69791 0.66374 0.53233 0.0
C506 C 0.75716 0.70219 0.51873 0.0
C507 C 0.76169 0.67831 0.49345 0.0
C508 C 0.7359 0.6448 0.49026 0.0
C509 C 0.70417 0.63785 0.50984 0.0
C510 C 0.78434 0.73784 0.52342 0.0
C511 C 0.74006 0.61829 0.464 0.0
H512 H 0.80055 0.75699 0.39811 0.0
H513 H 0.87894 0.70128 0.4494 0.0
H514 H 0.72255 0.69787 0.43623 0.0
H515 H 0.73552 0.7408 0.4563 0.0
H516 H 0.73925 0.74203 0.41151 0.0
H517 H 0.8614 0.65146 0.4927 0.0
H518 H 0.83773 0.67471 0.52103 0.0
H519 H 0.81424 0.6338 0.50256 0.0
H520 H 0.72061 0.71412 0.55576 0.0
H521 H 0.68315 0.61383 0.50562 0.0
H522 H 0.78265 0.75957 0.50234 0.0
H523 H 0.81213 0.7319 0.52339 0.0
H524 H 0.77953 0.75005 0.54711 0.0
H525 H 0.73258 0.63081 0.43935 0.0
H526 H 0.72239 0.58997 0.46948 0.0
H527 H 0.76841 0.6144 0.46198 0.0
C528 C 0.19966 0.40245 0.14732 0.0
C529 C 0.18321 0.3673 0.16428 0.0
C530 C 0.17959 0.42783 0.13059 0.0
C531 C 0.14149 0.41803 0.12922 0.0
C532 C 0.12471 0.38142 0.14418 0.0
C533 C 0.14554 0.35681 0.16169 0.0
C534 C 0.19933 0.46622 0.11578 0.0
C535 C 0.08446 0.36867 0.14259 0.0
C536 C 0.08945 0.50176 0.11798 0.0
C537 C 0.0852 0.50679 0.08314 0.0
C538 C 0.10684 0.47284 0.13315 0.0
C539 C 0.11974 0.44693 0.11345 0.0
C540 C 0.11431 0.45104 0.07834 0.0
C541 C 0.09786 0.48101 0.06371 0.0
C542 C 0.11262 0.47097 0.17035 0.0
C543 C 0.12642 0.42409 0.05594 0.0
H544 H 0.22868 0.41109 0.1484 0.0
H545 H 0.13209 0.33012 0.17457 0.0
H546 H 0.19344 0.47034 0.08882 0.0
H547 H 0.18985 0.4891 0.12816 0.0
H548 H 0.22899 0.46967 0.11862 0.0
H549 H 0.07585 0.33807 0.15133 0.0
H550 H 0.07086 0.38569 0.15847 0.0
H551 H 0.07521 0.37358 0.11663 0.0
H552 H 0.08025 0.52141 0.13347 0.0
H553 H 0.09487 0.48419 0.03684 0.0
H554 H 0.14195 0.47599 0.17538 0.0
H555 H 0.10084 0.44222 0.18212 0.0
H556 H 0.10045 0.49235 0.18247 0.0
H557 H 0.15624 0.43022 0.0536 0.0
H558 H 0.11513 0.42675 0.0305 0.0
H559 H 0.11823 0.3942 0.06686 0.0
C560 C 0.62973 0.36093 0.97837 0.0
C561 C 0.66252 0.36469 0.96082 0.0
C562 C 0.61081 0.32509 0.99101 0.0
C563 C 0.62512 0.29221 0.98614 0.0
C564 C 0.6575 0.29563 0.96738 0.0
C565 C 0.67581 0.33186 0.95491 0.0
C566 C 0.57636 0.32259 1.01087 0.0
C567 C 0.67352 0.26118 0.96158 0.0
C568 C 0.60217 0.20833 0.05158 0.0
C569 C 0.57573 0.18358 0.03563 0.0
C570 C 0.61835 0.24372 0.0357 0.0
C571 C 0.60785 0.25473 1.00303 0.0
C572 C 0.581 0.23008 0.98683 0.0
C573 C 0.56522 0.19473 1.00334 0.0
C574 C 0.64688 0.26925 0.05384 0.0
C575 C 0.5691 0.24097 0.95203 0.0
H576 H 0.6195 0.38619 0.98341 0.0
H577 H 0.70086 0.33455 0.94094 0.0
H578 H 0.5546 0.30107 1.00145 0.0
H579 H 0.5806 0.31326 0.0374 0.0
H580 H 0.56716 0.35031 1.00981 0.0
H581 H 0.6973 0.26833 0.94434 0.0
H582 H 0.68198 0.24843 0.98576 0.0
H583 H 0.65306 0.23918 0.95107 0.0
H584 H 0.61049 0.19996 0.07652 0.0
H585 H 0.54484 0.17574 0.99083 0.0
H586 H 0.63861 0.29698 0.05627 0.0
H587 H 0.67258 0.27517 0.03925 0.0
H588 H 0.65189 0.25648 0.0792 0.0
H589 H 0.55881 0.26801 0.95152 0.0
H590 H 0.54769 0.21872 0.94301 0.0
H591 H 0.59244 0.24591 0.93437 0.0
C592 C 0.9659 0.86451 0.41169 0.0
C593 C 0.95916 0.82464 0.41523 0.0
C594 C 0.98998 0.88544 0.4326 0.0
C595 C 1.00771 0.86599 0.45777 0.0
C596 C 1.00348 0.82588 0.45957 0.0
C597 C 0.97904 0.80559 0.43832 0.0
C598 C 0.99383 0.92829 0.42964 0.0
C599 C 0.02252 0.80415 0.48549 0.0
C600 C 0.07148 0.93904 0.50108 0.0
C601 C 0.04735 0.94849 0.52393 0.0
C602 C 0.06049 0.90851 0.4815 0.0
C603 C 0.0248 0.88754 0.48523 0.0
C604 C 1.00238 0.89398 0.51156 0.0
C605 C 1.0139 0.92468 0.53045 0.0
C606 C 0.08551 0.90172 0.45437 0.0
C607 C 0.96441 0.87178 0.51698 0.0
H608 H 0.95048 0.87946 0.39414 0.0
H609 H 0.97439 0.77473 0.44072 0.0
H610 H 0.98076 0.93714 0.45162 0.0
H611 H 0.02267 0.94207 0.42932 0.0
H612 H 0.98122 0.93914 0.40669 0.0
H613 H 0.02481 0.77573 0.47774 0.0
H614 H 0.04987 0.8201 0.49026 0.0
H615 H 1.00689 0.79976 0.50935 0.0
H616 H 0.09739 0.95765 0.49613 0.0
H617 H 0.99549 0.93207 0.54843 0.0
H618 H 0.07921 0.91685 0.43046 0.0
H619 H 0.08205 0.87098 0.45073 0.0
H620 H 0.11414 0.9126 0.46016 0.0
H621 H 0.94706 0.88091 0.49672 0.0
H622 H 0.95268 0.87642 0.5413 0.0
H623 H 0.96374 0.84088 0.51614 0.0
C624 C 0.43593 0.79412 0.70362 0.0
C625 C 0.44286 0.78876 0.73782 0.0
C626 C 0.45096 0.77431 0.68038 0.0
C627 C 0.47312 0.74821 0.69171 0.0
C628 C 0.482 0.74448 0.72597 0.0
C629 C 0.46686 0.765 0.74865 0.0
C630 C 0.44124 0.77956 0.64404 0.0
C631 C 0.50543 0.71684 0.73906 0.0
C632 C 0.46941 0.66116 0.64386 0.0
C633 C 0.50232 0.66958 0.62607 0.0
C634 C 0.45967 0.68662 0.66511 0.0
C635 C 0.48326 0.72161 0.66857 0.0
C636 C 0.51616 0.73078 0.65011 0.0
C637 C 0.52537 0.70458 0.62912 0.0
C638 C 0.42431 0.67572 0.68435 0.0
C639 C 0.5418 0.76797 0.65292 0.0
H640 H 0.41764 0.81283 0.69521 0.0
H641 H 0.47207 0.76071 0.77512 0.0
H642 H 0.46565 0.78345 0.6278 0.0
H643 H 0.42271 0.75367 0.63724 0.0
H644 H 0.42779 0.80439 0.63866 0.0
H645 H 0.51314 0.72047 0.76542 0.0
H646 H 0.49065 0.68727 0.73763 0.0
H647 H 0.5303 0.72043 0.72349 0.0
H648 H 0.45142 0.63419 0.64172 0.0
H649 H 0.55088 0.7113 0.61551 0.0
H650 H 0.40727 0.69736 0.67825 0.0
H651 H 0.42934 0.67494 0.71158 0.0
H652 H 0.40899 0.64748 0.67877 0.0
H653 H 0.52771 0.79219 0.64702 0.0
H654 H 0.56562 0.77147 0.63591 0.0
H655 H 0.55132 0.76954 0.67896 0.0
C656 C 0.94214 0.91695 0.78576 0.0
C657 C 0.92937 0.94049 0.80754 0.0
C658 C 0.95669 0.93101 0.75336 0.0
C659 C 0.95956 0.9701 0.74172 0.0
C660 C 0.94693 0.99408 0.76363 0.0
C661 C 0.93186 0.97912 0.79569 0.0
C662 C 0.96884 0.90368 0.73136 0.0
C663 C 0.94974 0.03597 0.75333 0.0
C664 C 0.0293 0.0123 0.67048 0.0
C665 C 1.00803 0.01462 0.64176 0.0
C666 C 1.01405 0.99861 0.70268 0.0
C667 C 0.9762 0.98584 0.70711 0.0
C668 C 0.95455 0.98789 0.67818 0.0
C669 C 0.97048 1.00241 0.6463 0.0
C670 C 0.0387 0.99797 0.73217 0.0
C671 C 0.91432 0.97424 0.6808 0.0
H672 H 0.94012 0.88701 0.7938 0.0
H673 H 0.92257 0.99806 0.81185 0.0
H674 H 0.95442 0.90416 0.70732 0.0
H675 H 0.99805 0.91264 0.72546 0.0
H676 H 0.96396 0.87401 0.74327 0.0
H677 H 0.93922 0.05115 0.77296 0.0
H678 H 0.97832 0.04928 0.74778 0.0
H679 H 0.93451 0.03999 0.73011 0.0
H680 H 0.05824 0.02158 0.66791 0.0
H681 H 0.9534 0.00367 0.62472 0.0
H682 H 0.03695 0.96831 0.74339 0.0
H683 H 0.03005 0.01453 0.75172 0.0
H684 H 0.06727 0.00995 0.72516 0.0
H685 H 0.90826 0.94393 0.69095 0.0
H686 H 0.90104 0.97706 0.65628 0.0
H687 H 0.90238 0.99072 0.69846 0.0
C688 C 0.63139 0.20189 0.36835 0.0
C689 C 0.64838 0.1764 0.38815 0.0
C690 C 0.61884 0.19359 0.33637 0.0
C691 C 0.62398 0.15934 0.32371 0.0
C692 C 0.63951 0.13276 0.3442 0.0
C693 C 0.65106 0.1414 0.37623 0.0
C694 C 0.60163 0.22225 0.31558 0.0
C695 C 0.64578 0.09604 0.33165 0.0
C696 C 0.58079 0.12129 0.24483 0.0
C697 C 0.609 0.13344 0.22127 0.0
C698 C 0.58442 0.13111 0.27798 0.0
C699 C 0.61723 0.15302 0.28793 0.0
C700 C 0.64522 0.1665 0.26403 0.0
C701 C 0.64058 0.15697 0.23106 0.0
C702 C 0.55363 0.117 0.30258 0.0
C703 C 0.68077 0.18976 0.27354 0.0
H704 H 0.6291 0.22897 0.37728 0.0
H705 H 0.66303 0.12093 0.39171 0.0
H706 H 0.62063 0.23672 0.29536 0.0
H707 H 0.577 0.20787 0.30355 0.0
H708 H 0.59438 0.24425 0.33072 0.0
H709 H 0.65615 0.07739 0.35138 0.0
H710 H 0.62043 0.08009 0.32203 0.0
H711 H 0.66563 0.10251 0.31058 0.0
H712 H 0.55623 0.10322 0.23771 0.0
H713 H 0.66214 0.16774 0.21304 0.0
H714 H 0.54861 0.1404 0.31718 0.0
H715 H 0.5607 0.09439 0.32057 0.0
H716 H 0.52835 0.10516 0.29001 0.0
H717 H 0.67624 0.21535 0.28525 0.0
H718 H 0.69937 0.1991 0.25172 0.0
H719 H 0.69417 0.17267 0.29225 0.0
C720 C 0.43072 0.59356 0.34238 0.0
C721 C 0.43281 0.62767 0.32177 0.0
C722 C 0.44298 0.59346 0.37531 0.0
C723 C 0.45635 0.62842 0.38867 0.0
C724 C 0.45706 0.66308 0.3687 0.0
C725 C 0.44592 0.66229 0.33535 0.0
C726 C 0.4424 0.5558 0.39554 0.0
C727 C 0.47008 0.70097 0.38242 0.0
C728 C 0.46058 0.61997 0.48342 0.0
C729 C 0.49712 0.61896 0.48842 0.0
C730 C 0.44727 0.62538 0.45106 0.0
C731 C 0.47084 0.62831 0.42311 0.0
C732 C 0.50793 0.6281 0.42815 0.0
C733 C 0.52072 0.62408 0.4608 0.0
C734 C 0.40784 0.62685 0.44677 0.0
C735 C 0.53375 0.62998 0.39907 0.0
H736 H 0.41964 0.56664 0.33279 0.0
H737 H 0.4482 0.68889 0.31982 0.0
H738 H 0.47003 0.55369 0.40388 0.0
H739 H 0.42528 0.55381 0.41828 0.0
H740 H 0.43201 0.53111 0.38117 0.0
H741 H 0.46547 0.72525 0.36489 0.0
H742 H 0.45612 0.7021 0.40652 0.0
H743 H 0.49933 0.70453 0.38742 0.0
H744 H 0.44237 0.61626 0.50483 0.0
H745 H 0.54893 0.62293 0.46465 0.0
H746 H 0.39393 0.60076 0.43598 0.0
H747 H 0.40461 0.65152 0.42911 0.0
H748 H 0.39425 0.62904 0.47086 0.0
H749 H 0.52558 0.60462 0.38496 0.0
H750 H 0.56199 0.63097 0.40722 0.0
H751 H 0.53281 0.65545 0.38158 0.0
C752 C 0.19618 0.42417 0.83983 0.0
C753 C 0.16533 0.40985 0.82226 0.0
C754 C 0.19503 0.45113 0.86291 0.0
C755 C 0.16221 0.46348 0.86846 0.0
C756 C 0.13065 0.44753 0.85187 0.0
C757 C 0.13269 0.42103 0.82885 0.0
C758 C 0.22913 0.46759 0.88014 0.0
C759 C 0.09495 0.45949 0.85747 0.0
C760 C 0.13738 0.51391 0.94072 0.0
C761 C 0.1367 0.55014 0.9247 0.0
C762 C 0.14918 0.48601 0.92363 0.0
C763 C 0.16054 0.4947 0.88984 0.0
C764 C 0.16352 0.53235 0.87476 0.0
C765 C 0.1514 0.55963 0.8924 0.0
C766 C 0.14583 0.44628 0.94069 0.0
C767 C 0.17616 0.54291 0.83894 0.0
H768 H 0.22143 0.41548 0.83448 0.0
H769 H 0.10884 0.40952 0.81537 0.0
H770 H 0.23857 0.49753 0.86988 0.0
H771 H 0.22402 0.46787 0.9073 0.0
H772 H 0.25101 0.45141 0.8766 0.0
H773 H 0.07264 0.44267 0.84403 0.0
H774 H 0.08791 0.45612 0.88451 0.0
H775 H 0.09698 0.49002 0.84871 0.0
H776 H 0.12599 0.50628 0.96568 0.0
H777 H 0.15153 0.58786 0.8803 0.0
H778 H 0.16888 0.43313 0.93393 0.0
H779 H 0.12085 0.42825 0.93238 0.0
H780 H 0.14433 0.44614 0.96832 0.0
H781 H 0.20037 0.53084 0.83377 0.0
H782 H 0.18261 0.57426 0.83284 0.0
H783 H 0.15464 0.53082 0.82203 0.0
C784 C 0.75605 1.00262 0.9439 0.0
C785 C 0.75841 0.9638 0.94885 0.0
C786 C 0.73099 0.01853 0.96222 0.0
C787 C 0.70675 0.99533 0.98622 0.0
C788 C 0.71 0.95642 0.99213 0.0
C789 C 0.73524 0.94132 0.97346 0.0
C790 C 0.7292 0.06 0.95455 0.0
C791 C 0.68535 0.92999 1.0171 0.0
C792 C 0.6543 0.04082 0.05075 0.0
C793 C 0.61994 0.03941 0.03656 0.0
C794 C 0.68249 0.02704 0.03482 0.0
C795 C 0.6769 0.01097 1.00362 0.0
C796 C 0.64221 0.00942 0.98927 0.0
C797 C 0.61461 0.02353 1.00563 0.0
C798 C 0.71848 0.02966 0.05155 0.0
C799 C 0.63407 0.99261 0.9564 0.0
H800 H 0.77247 0.02024 0.92422 0.0
H801 H 0.7355 0.91107 0.97688 0.0
H802 H 0.70331 0.06253 0.94233 0.0
H803 H 0.73 0.07431 0.97798 0.0
H804 H 0.75167 0.07522 0.93777 0.0
H805 H 0.69301 0.90154 0.02115 0.0
H806 H 0.68572 0.94244 0.04143 0.0
H807 H 0.65725 0.92624 1.00808 0.0
H808 H 0.65932 0.05288 0.07447 0.0
H809 H 0.58852 0.02192 0.99405 0.0
H810 H 0.74002 0.04644 0.03463 0.0
H811 H 0.72487 1.00078 0.05667 0.0
H812 H 0.71907 0.04315 0.07544 0.0
H813 H 0.65297 0.00857 0.9367 0.0
H814 H 0.60602 0.99321 0.94834 0.0
H815 H 0.63812 0.96267 0.95845 0.0
C816 C 0.77622 0.19406 0.48211 0.0
C817 C 0.74634 0.16937 0.47082 0.0
C818 C 0.80853 0.18125 0.48968 0.0
C819 C 0.81061 0.14274 0.48641 0.0
C820 C 0.77999 0.11744 0.47619 0.0
C821 C 0.74834 0.13115 0.46826 0.0
C822 C 0.84077 0.2092 0.49996 0.0
C823 C 0.78091 0.07605 0.47285 0.0
C824 C 0.8989 0.11287 0.46708 0.0
C825 C 0.90744 0.0962 0.49816 0.0
C826 C 0.86834 0.12969 0.46331 0.0
C827 C 0.84536 0.12923 0.49124 0.0
C828 C 0.85442 0.11342 0.52297 0.0
C829 C 0.88564 0.09737 0.52612 0.0
C830 C 0.86009 0.14691 0.42917 0.0
C831 C 0.83034 0.11197 0.55322 0.0
H832 H 0.77465 0.22365 0.48398 0.0
H833 H 0.72504 0.11195 0.45994 0.0
H834 H 0.85179 0.19808 0.52359 0.0
H835 H 0.86239 0.21297 0.48057 0.0
H836 H 0.83408 0.23748 0.5034 0.0
H837 H 0.75404 0.05954 0.46711 0.0
H838 H 0.8001 0.07378 0.45254 0.0
H839 H 0.79056 0.0628 0.49628 0.0
H840 H 0.91616 0.11255 0.4456 0.0
H841 H 0.89226 0.08435 0.5501 0.0
H842 H 0.85529 0.17627 0.43072 0.0
H843 H 0.83511 0.12996 0.41975 0.0
H844 H 0.88225 0.14784 0.41074 0.0
H845 H 0.82457 0.14064 0.55642 0.0
H846 H 0.84249 0.1013 0.5765 0.0
H847 H 0.80415 0.09295 0.54959 0.0
C848 C 0.28199 0.72897 0.15624 0.0
C849 C 0.30381 0.70128 0.16126 0.0
C850 C 0.2505 0.7225 0.13744 0.0
C851 C 0.2397 0.68695 0.12431 0.0
C852 C 0.2614 0.65881 0.12923 0.0
C853 C 0.29343 0.66653 0.14716 0.0
C854 C 0.22841 0.75348 0.1322 0.0
C855 C 0.25032 0.62016 0.1163 0.0
C856 C 0.14 0.65275 0.11178 0.0
C857 C 0.1375 0.65626 0.07683 0.0
C858 C 0.17304 0.66292 0.12744 0.0
C859 C 0.20432 0.67801 0.10775 0.0
C860 C 0.20179 0.68323 0.0725 0.0
C861 C 0.16843 0.67172 0.05737 0.0
C862 C 0.17467 0.65602 0.16502 0.0
C863 C 0.23443 0.7003 0.05081 0.0
H864 H 0.28915 0.75567 0.16742 0.0
H865 H 0.31032 0.6452 0.15006 0.0
H866 H 0.22212 0.7582 0.10536 0.0
H867 H 0.20239 0.74467 0.1461 0.0
H868 H 0.24249 0.78085 0.14083 0.0
H869 H 0.27041 0.60156 0.12188 0.0
H870 H 0.22402 0.60572 0.12774 0.0
H871 H 0.24666 0.6233 0.08888 0.0
H872 H 0.11631 0.64038 0.12702 0.0
H873 H 0.1666 0.67447 0.03037 0.0
H874 H 0.18588 0.68293 0.17598 0.0
H875 H 0.19292 0.63571 0.17171 0.0
H876 H 0.14777 0.64429 0.17669 0.0
H877 H 0.24793 0.72767 0.05979 0.0
H878 H 0.22739 0.70542 0.02417 0.0
H879 H 0.25418 0.68092 0.05249 0.0
C880 C 0.2006 0.45325 0.6064 0.0
C881 C 0.18461 0.46213 0.63551 0.0
C882 C 0.23497 0.47246 0.59576 0.0
C883 C 0.25361 0.50099 0.61479 0.0
C884 C 0.23515 0.51439 0.64055 0.0
C885 C 0.20068 0.49466 0.65073 0.0
C886 C 0.25328 0.45812 0.56739 0.0
C887 C 0.25355 0.54611 0.66029 0.0
C888 C 0.34875 0.48721 0.63183 0.0
C889 C 0.36888 0.51424 0.60854 0.0
C890 C 0.31139 0.48373 0.63474 0.0
C891 C 0.29358 0.50825 0.61406 0.0
C892 C 0.31385 0.53688 0.59158 0.0
C893 C 0.35133 0.53937 0.58889 0.0
C894 C 0.2909 0.45285 0.65933 0.0
C895 C 0.29609 0.56393 0.5694 0.0
H896 H 0.18839 0.4284 0.59416 0.0
H897 H 0.18792 0.50239 0.67263 0.0
H898 H 0.26957 0.48211 0.55158 0.0
H899 H 0.27179 0.43955 0.57779 0.0
H900 H 0.2335 0.44132 0.55142 0.0
H901 H 0.23366 0.55924 0.67327 0.0
H902 H 0.27072 0.53448 0.67945 0.0
H903 H 0.27121 0.56848 0.64385 0.0
H904 H 0.36221 0.46847 0.64774 0.0
H905 H 0.36668 0.56029 0.57074 0.0
H906 H 0.27171 0.43241 0.64581 0.0
H907 H 0.27496 0.46543 0.67705 0.0
H908 H 0.309 0.43678 0.67398 0.0
H909 H 0.28697 0.55048 0.5463 0.0
H910 H 0.31524 0.59084 0.56193 0.0
H911 H 0.27219 0.57082 0.58184 0.0
C912 C 0.96528 0.85259 0.91865 0.0
C913 C 0.92794 0.84836 0.91298 0.0
C914 C 0.98071 0.82339 0.93608 0.0
C915 C 0.95881 0.78791 0.94776 0.0
C916 C 0.9211 0.78342 0.94201 0.0
C917 C 0.90624 0.81351 0.92529 0.0
C918 C 0.02074 0.83063 0.94204 0.0
C919 C 0.89634 0.74628 0.95287 0.0
C920 C 1.00508 0.69986 0.96242 0.0
C921 C 1.00698 0.69419 0.99751 0.0
C922 C 0.98926 0.72947 0.94622 0.0
C923 C 0.97541 0.75545 0.96511 0.0
C924 C 0.97768 0.75019 1.00057 0.0
C925 C 0.9928 0.71966 1.01618 0.0
C926 C 0.98693 0.73258 0.90863 0.0
C927 C 0.96434 0.77714 0.02218 0.0
H928 H 0.9826 0.87917 0.90969 0.0
H929 H 0.87751 0.80926 0.92094 0.0
H930 H 0.0259 0.82536 0.96908 0.0
H931 H 0.03354 0.81062 0.92878 0.0
H932 H 0.03391 0.8602 0.93333 0.0
H933 H 0.8678 0.74685 0.94657 0.0
H934 H 0.90494 0.72281 0.94064 0.0
H935 H 0.89804 0.7396 0.98023 0.0
H936 H 1.01541 0.6805 0.9474 0.0
H937 H 0.99388 0.71601 0.0432 0.0
H938 H 1.00236 0.76046 0.89802 0.0
H939 H 0.95847 0.73124 0.90115 0.0
H940 H 0.99759 0.70962 0.89741 0.0
H941 H 0.97829 0.80677 1.01479 0.0
H942 H 0.96885 0.77025 0.04917 0.0
H943 H 0.93511 0.77617 0.01843 0.0
C944 C 0.44931 0.79752 0.18387 0.0
C945 C 0.41282 0.79226 0.19315 0.0
C946 C 0.4691 0.83408 0.17445 0.0
C947 C 0.45191 0.86593 0.17453 0.0
C948 C 0.4158 0.86092 0.18616 0.0
C949 C 0.39664 0.82409 0.19521 0.0
C950 C 0.50754 0.83827 0.16218 0.0
C951 C 0.39664 0.8942 0.18696 0.0
C952 C 0.50584 0.96688 0.16185 0.0
C953 C 0.50014 0.97628 0.12788 0.0
C954 C 0.4908 0.93079 0.17744 0.0
C955 C 0.46989 0.90356 0.15849 0.0
C956 C 0.4648 0.91266 0.12403 0.0
C957 C 0.47987 0.94891 0.1092 0.0
C958 C 0.49661 0.92208 0.21425 0.0
C959 C 0.44287 0.88429 0.10288 0.0
H960 H 0.4618 0.7729 0.18209 0.0
H961 H 0.36851 0.82 0.20279 0.0
H962 H 0.5088 0.84531 0.1347 0.0
H963 H 0.52517 0.86194 0.1735 0.0
H964 H 0.51842 0.81176 0.16794 0.0
H965 H 0.37027 0.88614 0.20047 0.0
H966 H 0.41354 0.91771 0.1991 0.0
H967 H 0.39182 0.90527 0.16102 0.0
H968 H 0.52146 0.98795 0.17642 0.0
H969 H 0.47558 0.95584 0.08288 0.0
H970 H 0.50787 0.89568 0.21852 0.0
H971 H 0.47039 0.91701 0.22794 0.0
H972 H 0.5151 0.94561 0.22504 0.0
H973 H 0.45378 0.85756 0.10451 0.0
H974 H 0.44272 0.89536 0.07618 0.0
H975 H 0.41462 0.87699 0.1124 0.0
C976 C 0.1097 0.33846 0.6003 0.0
C977 C 0.09442 0.34387 0.63094 0.0
C978 C 0.09884 0.30464 0.58517 0.0
C979 C 0.07257 0.27546 0.60139 0.0
C980 C 0.05419 0.28243 0.63023 0.0
C981 C 0.06516 0.31683 0.64453 0.0
C982 C 0.11845 0.29861 0.5539 0.0
C983 C 0.0258 0.25208 0.64812 0.0
C984 C 0.04192 0.18436 0.55992 0.0
C985 C 0.06556 0.16155 0.57384 0.0
C986 C 0.04368 0.22161 0.56862 0.0
C987 C 0.06942 0.23605 0.592 0.0
C988 C 0.09315 0.21304 0.60631 0.0
C989 C 0.09108 0.17612 0.59687 0.0
C990 C 0.01837 0.2456 0.55257 0.0
C991 C 0.12081 0.22742 0.63162 0.0
H992 H 0.13242 0.35903 0.58956 0.0
H993 H 0.0527 0.3213 0.6678 0.0
H994 H 0.13884 0.28074 0.56065 0.0
H995 H 0.09956 0.28347 0.53628 0.0
H996 H 0.13255 0.32598 0.54093 0.0
H997 H 1.00963 0.2641 0.6661 0.0
H998 H 1.00736 0.23703 0.63012 0.0
H999 H 0.03913 0.23065 0.66218 0.0
H1000 H 0.02219 0.17321 0.54198 0.0
H1001 H 0.10924 0.15852 0.60781 0.0
H1002 H 0.0341 0.27093 0.53789 0.0
H1003 H 1.00292 0.25617 0.57202 0.0
H1004 H 0.99905 0.2296 0.53571 0.0
H1005 H 0.13998 0.25255 0.6202 0.0
H1006 H 0.13642 0.20546 0.64111 0.0
H1007 H 0.10735 0.23668 0.65316 0.0
C1008 C 0.61015 0.34292 0.49102 0.0
C1009 C 0.61971 0.32353 0.52053 0.0
C1010 C 0.60354 0.38025 0.49085 0.0
C1011 C 0.60639 0.39837 0.52093 0.0
C1012 C 0.61816 0.37972 0.55022 0.0
C1013 C 0.62482 0.34268 0.5496 0.0
C1014 C 0.59157 0.39941 0.459 0.0
C1015 C 0.62165 0.39796 0.58283 0.0
C1016 C 0.60425 0.50305 0.5276 0.0
C1017 C 0.56857 0.50097 0.53852 0.0
C1018 C 0.61662 0.47017 0.51975 0.0
C1019 C 0.59282 0.43447 0.52325 0.0
C1020 C 0.55636 0.43264 0.5326 0.0
C1021 C 0.54468 0.46585 0.53995 0.0
C1022 C 0.65552 0.47338 0.50928 0.0
C1023 C 0.53004 0.3952 0.53674 0.0
H1024 H 0.6062 0.32834 0.46843 0.0
H1025 H 0.63311 0.3282 0.57228 0.0
H1026 H 0.56234 0.39979 0.4609 0.0
H1027 H 0.60593 0.42941 0.455 0.0
H1028 H 0.59631 0.38441 0.43685 0.0
H1029 H 0.63392 0.38102 0.60258 0.0
H1030 H 0.63834 0.42695 0.57922 0.0
H1031 H 0.59459 0.40091 0.59178 0.0
H1032 H 0.62283 0.5301 0.52619 0.0
H1033 H 0.51698 0.46392 0.5481 0.0
H1034 H 0.65763 0.45684 0.48754 0.0
H1035 H 0.67042 0.46127 0.53007 0.0
H1036 H 0.66888 0.50343 0.50269 0.0
H1037 H 0.53008 0.37992 0.51394 0.0
H1038 H 0.50208 0.39901 0.54183 0.0
H1039 H 0.53838 0.3768 0.55782 0.0
loop_
_geom_bond_atom_site_label_1
_geom_bond_atom_site_label_2
_geom_bond_distance
_geom_bond_site_symmetry_2
_ccdc_geom_bond_type
H0 C1 0.949 . S
C1 H0 0.949 . S
C1 C2 1.395 . S
C1 C3 1.391 . S
C2 C1 1.395 . S
C2 C5 1.390 . S
C3 C1 1.391 . S
C3 C7 1.387 . S
C3 C8 1.491 . S
H4 C5 0.950 . S
C5 C2 1.390 . S
C5 H4 0.950 . S
C5 C6 1.378 . S
C6 C5 1.378 . S
C6 C7 1.409 . S
C7 C3 1.387 . S
C7 C6 1.409 . S
C7 H9 0.951 . S
C8 C3 1.491 . S
C8 C10 1.382 . S
C8 C12 1.404 . S
H9 C7 0.951 . S
C10 C8 1.382 . S
C10 C11 1.390 . S
C10 H15 0.949 . S
C11 C10 1.390 . S
C11 C16 1.399 . S
C12 C8 1.404 . S
C12 H13 0.950 . S
C12 C14 1.375 . S
H13 C12 0.950 . S
C14 C12 1.375 . S
C14 C16 1.382 . S
C14 H18 0.950 . S
H15 C10 0.949 . S
C16 C11 1.399 . S
C16 C14 1.382 . S
C16 H17 0.952 . S
H17 C16 0.952 . S
H18 C14 0.950 . S
H19 C20 0.949 . S
C20 H19 0.949 . S
C20 C21 1.395 . S
C20 C22 1.391 . S
C21 C20 1.395 . S
C21 C24 1.390 . S
C22 C20 1.391 . S
C22 C26 1.387 . S
C22 C27 1.491 . S
H23 C24 0.950 . S
C24 C21 1.390 . S
C24 H23 0.950 . S
C24 C25 1.378 . S
C25 C24 1.378 . S
C25 C26 1.409 . S
C26 C22 1.387 . S
C26 C25 1.409 . S
C26 H28 0.951 . S
C27 C22 1.491 . S
C27 C29 1.382 . S
C27 C31 1.404 . S
H28 C26 0.951 . S
C29 C27 1.382 . S
C29 C30 1.390 . S
C29 H34 0.949 . S
C30 C29 1.390 . S
C30 C35 1.399 . S
C31 C27 1.404 . S
C31 H32 0.950 . S
C31 C33 1.375 . S
H32 C31 0.950 . S
C33 C31 1.375 . S
C33 C35 1.382 . S
C33 H37 0.950 . S
H34 C29 0.949 . S
C35 C30 1.399 . S
C35 C33 1.382 . S
C35 H36 0.952 . S
H36 C35 0.952 . S
H37 C33 0.950 . S
H38 C39 0.949 . S
C39 H38 0.949 . S
C39 C40 1.395 . S
C39 C41 1.391 . S
C40 C39 1.395 . S
C40 C43 1.390 . S
C41 C39 1.391 . S
C41 C45 1.387 . S
C41 C46 1.491 . S
H42 C43 0.950 . S
C43 C40 1.390 . S
C43 H42 0.950 . S
C43 C44 1.378 . S
C44 C43 1.378 . S
C44 C45 1.409 . S
C45 C41 1.387 . S
C45 C44 1.409 . S
C45 H47 0.951 . S
C46 C41 1.491 . S
C46 C48 1.382 . S
C46 C50 1.404 . S
H47 C45 0.951 . S
C48 C46 1.382 . S
C48 C49 1.390 . S
C48 H53 0.949 . S
C49 C48 1.390 . S
C49 C54 1.399 . S
C50 C46 1.404 . S
C50 H51 0.950 . S
C50 C52 1.375 . S
H51 C50 0.950 . S
C52 C50 1.375 . S
C52 C54 1.382 . S
C52 H56 0.950 . S
H53 C48 0.949 . S
C54 C49 1.399 . S
C54 C52 1.382 . S
C54 H55 0.952 . S
H55 C54 0.952 . S
H56 C52 0.950 . S
H57 C58 0.949 . S
C58 H57 0.949 . S
C58 C59 1.395 . S
C58 C60 1.391 . S
C59 C58 1.395 . S
C59 C62 1.390 . S
C60 C58 1.391 . S
C60 C64 1.387 . S
C60 C65 1.491 . S
H61 C62 0.950 . S
C62 C59 1.390 . S
C62 H61 0.950 . S
C62 C63 1.378 . S
C63 C62 1.378 . S
C63 C64 1.409 . S
C64 C60 1.387 . S
C64 C63 1.409 . S
C64 H66 0.951 . S
C65 C60 1.491 . S
C65 C67 1.382 . S
C65 C69 1.404 . S
H66 C64 0.951 . S
C67 C65 1.382 . S
C67 C68 1.390 . S
C67 H72 0.949 . S
C68 C67 1.390 . S
C68 C73 1.399 . S
C69 C65 1.404 . S
C69 H70 0.950 . S
C69 C71 1.375 . S
H70 C69 0.950 . S
C71 C69 1.375 . S
C71 C73 1.382 . S
C71 H75 0.950 . S
H72 C67 0.949 . S
C73 C68 1.399 . S
C73 C71 1.382 . S
C73 H74 0.952 . S
H74 C73 0.952 . S
H75 C71 0.950 . S
H76 C77 0.949 . S
C77 H76 0.949 . S
C77 C78 1.395 . S
C77 C79 1.391 . S
C78 C77 1.395 . S
C78 C81 1.390 . S
C79 C77 1.391 . S
C79 C83 1.387 . S
C79 C84 1.491 . S
H80 C81 0.950 . S
C81 C78 1.390 . S
C81 H80 0.950 . S
C81 C82 1.378 . S
C82 C81 1.378 . S
C82 C83 1.409 . S
C83 C79 1.387 . S
C83 C82 1.409 . S
C83 H85 0.951 . S
C84 C79 1.491 . S
C84 C86 1.382 . S
C84 C88 1.404 . S
H85 C83 0.951 . S
C86 C84 1.382 . S
C86 C87 1.390 . S
C86 H91 0.949 . S
C87 C86 1.390 . S
C87 C92 1.399 . S
C88 C84 1.404 . S
C88 H89 0.950 . S
C88 C90 1.375 . S
H89 C88 0.950 . S
C90 C88 1.375 . S
C90 C92 1.382 . S
C90 H94 0.950 . S
H91 C86 0.949 . S
C92 C87 1.399 . S
C92 C90 1.382 . S
C92 H93 0.952 . S
H93 C92 0.952 . S
H94 C90 0.950 . S
H95 C96 0.949 . S
C96 H95 0.949 . S
C96 C97 1.395 . S
C96 C98 1.391 . S
C97 C96 1.395 . S
C97 C100 1.390 . S
C98 C96 1.391 . S
C98 C102 1.387 . S
C98 C103 1.491 . S
H99 C100 0.950 . S
C100 C97 1.390 . S
C100 H99 0.950 . S
C100 C101 1.378 . S
C101 C100 1.378 . S
C101 C102 1.409 . S
C102 C98 1.387 . S
C102 C101 1.409 . S
C102 H104 0.951 . S
C103 C98 1.491 . S
C103 C105 1.382 . S
C103 C107 1.404 . S
H104 C102 0.951 . S
C105 C103 1.382 . S
C105 C106 1.390 . S
C105 H110 0.949 . S
C106 C105 1.390 . S
C106 C111 1.399 . S
C107 C103 1.404 . S
C107 H108 0.950 . S
C107 C109 1.375 . S
H108 C107 0.950 . S
C109 C107 1.375 . S
C109 C111 1.382 . S
C109 H113 0.950 . S
H110 C105 0.949 . S
C111 C106 1.399 . S
C111 C109 1.382 . S
C111 H112 0.952 . S
H112 C111 0.952 . S
H113 C109 0.950 . S
H114 C115 0.949 . S
C115 H114 0.949 . S
C115 C116 1.395 . S
C115 C117 1.391 . S
C116 C115 1.395 . S
C116 C119 1.390 . S
C117 C115 1.391 . S
C117 C121 1.387 . S
C117 C122 1.491 . S
H118 C119 0.950 . S
C119 C116 1.390 . S
C119 H118 0.950 . S
C119 C120 1.378 . S
C120 C119 1.378 . S
C120 C121 1.409 . S
C121 C117 1.387 . S
C121 C120 1.409 . S
C121 H123 0.951 . S
C122 C117 1.491 . S
C122 C124 1.382 . S
C122 C126 1.404 . S
H123 C121 0.951 . S
C124 C122 1.382 . S
C124 C125 1.390 . S
C124 H129 0.949 . S
C125 C124 1.390 . S
C125 C130 1.399 . S
C126 C122 1.404 . S
C126 H127 0.950 . S
C126 C128 1.375 . S
H127 C126 0.950 . S
C128 C126 1.375 . S
C128 C130 1.382 . S
C128 H132 0.950 . S
H129 C124 0.949 . S
C130 C125 1.399 . S
C130 C128 1.382 . S
C130 H131 0.952 . S
H131 C130 0.952 . S
H132 C128 0.950 . S
H133 C134 0.949 . S
C134 H133 0.949 . S
C134 C135 1.395 . S
C134 C136 1.391 . S
C135 C134 1.395 . S
C135 C138 1.390 . S
C136 C134 1.391 . S
C136 C140 1.387 . S
C136 C141 1.491 . S
H137 C138 0.950 . S
C138 C135 1.390 . S
C138 H137 0.950 . S
C138 C139 1.378 . S
C139 C138 1.378 . S
C139 C140 1.409 . S
C140 C136 1.387 . S
C140 C139 1.409 . S
C140 H142 0.951 . S
C141 C136 1.491 . S
C141 C143 1.382 . S
C141 C145 1.404 . S
H142 C140 0.951 . S
C143 C141 1.382 . S
C143 C144 1.390 . S
C143 H148 0.949 . S
C144 C143 1.390 . S
C144 C149 1.399 . S
C145 C141 1.404 . S
C145 H146 0.950 . S
C145 C147 1.375 . S
H146 C145 0.950 . S
C147 C145 1.375 . S
C147 C149 1.382 . S
C147 H151 0.950 . S
H148 C143 0.949 . S
C149 C144 1.399 . S
C149 C147 1.382 . S
C149 H150 0.952 . S
H150 C149 0.952 . S
H151 C147 0.950 . S
Co152 N157 2.057 . S
Co152 O169 2.017 1_655 S
Co152 O172 2.062 1_655 S
Co152 O176 2.117 . S
Co152 O177 2.020 . S
C153 O173 1.259 1_655 S
C153 O176 1.258 1_565 S
Co154 N163 2.057 . S
Co154 O170 2.117 . S
Co154 O171 2.020 . S
Co154 O173 2.021 1_545 S
Co154 O178 2.062 . S
C155 N157 1.316 . S
C155 N158 1.347 . S
C155 H160 0.931 . S
C156 N157 1.375 . S
C156 C159 1.350 . S
C156 H161 0.930 . S
N157 Co152 2.057 . S
N157 C155 1.316 . S
N157 C156 1.375 . S
N158 C155 1.347 . S
N158 C159 1.373 . S
C159 C156 1.350 . S
C159 N158 1.373 . S
C159 H180 0.931 . S
H160 C155 0.931 . S
H161 C156 0.930 . S
C162 O169 1.281 . S
C162 O170 1.258 . S
N163 Co154 2.057 . S
N163 C164 1.316 . S
N163 C165 1.375 . S
C164 N163 1.316 . S
C164 N166 1.347 . S
C164 H175 0.931 1_545 S
C165 N163 1.375 . S
C165 C167 1.350 . S
C165 H174 0.930 . S
N166 C164 1.347 . S
N166 C167 1.373 . S
C167 C165 1.350 . S
C167 N166 1.373 . S
C167 H181 0.931 . S
C168 O171 1.256 . S
C168 O172 1.255 . S
O169 Co152 2.017 1_455 S
O169 C162 1.281 . S
O170 Co154 2.117 . S
O170 C162 1.258 . S
O171 Co154 2.020 . S
O171 C168 1.256 . S
O172 Co152 2.062 1_455 S
O172 C168 1.255 . S
O173 C153 1.259 1_455 S
O173 Co154 2.021 1_565 S
H174 C165 0.930 . S
H175 C164 0.931 1_565 S
O176 Co152 2.117 . S
O176 C153 1.258 1_545 S
O177 Co152 2.020 . S
O177 C179 1.256 . S
O178 Co154 2.062 . S
O178 C179 1.255 1_455 S
C179 O177 1.256 . S
C179 O178 1.255 1_655 S
H180 C159 0.931 . S
H181 C167 0.931 . S
Co182 N187 2.057 1_554 S
Co182 O199 2.021 . S
Co182 O202 2.062 . S
Co182 O206 2.117 1_545 S
Co182 O207 2.020 . S
C183 O203 1.269 . S
C183 O206 1.258 . S
Co184 N193 2.057 . S
Co184 O200 2.117 . S
Co184 O201 2.020 . S
Co184 O203 2.005 1_545 S
Co184 O208 2.062 . S
C185 N187 1.316 . S
C185 N188 1.347 1_545 S
C185 H190 0.931 . S
C186 N187 1.375 1_565 S
C186 C189 1.350 . S
C186 H191 0.930 1_556 S
N187 Co182 2.057 1_556 S
N187 C185 1.316 . S
N187 C186 1.375 1_545 S
N188 C185 1.347 1_565 S
N188 C189 1.373 . S
C189 C186 1.350 . S
C189 N188 1.373 . S
C189 H210 0.931 . S
H190 C185 0.931 . S
H191 C186 0.930 1_554 S
C192 O199 1.259 . S
C192 O200 1.258 . S
N193 Co184 2.057 . S
N193 C194 1.316 . S
N193 C195 1.375 . S
C194 N193 1.316 . S
C194 N196 1.347 . S
C194 H205 0.931 . S
C195 N193 1.375 . S
C195 C197 1.350 . S
C195 H204 0.930 . S
N196 C194 1.347 . S
N196 C197 1.373 . S
C197 C195 1.350 . S
C197 N196 1.373 . S
C197 H211 0.931 . S
C198 O201 1.256 . S
C198 O202 1.255 . S
O199 Co182 2.021 . S
O199 C192 1.259 . S
O200 Co184 2.117 . S
O200 C192 1.258 . S
O201 Co184 2.020 . S
O201 C198 1.256 . S
O202 Co182 2.062 . S
O202 C198 1.255 . S
O203 C183 1.269 . S
O203 Co184 2.005 1_565 S
H204 C195 0.930 . S
H205 C194 0.931 . S
O206 Co182 2.117 1_565 S
O206 C183 1.258 . S
O207 Co182 2.020 . S
O207 C209 1.256 . S
O208 Co184 2.062 . S
O208 C209 1.255 . S
C209 O207 1.256 . S
C209 O208 1.255 . S
H210 C189 0.931 . S
H211 C197 0.931 . S
Co212 N217 2.057 . S
Co212 O229 2.021 . S
Co212 O232 2.062 . S
Co212 O236 2.117 . S
Co212 O237 2.020 . S
C213 O233 1.259 . S
C213 O236 1.258 . S
Co214 N223 2.057 . S
Co214 O230 2.117 . S
Co214 O231 2.020 . S
Co214 O233 2.021 . S
Co214 O238 2.062 . S
C215 N217 1.316 . S
C215 N218 1.347 . S
C215 H220 0.931 . S
C216 N217 1.375 . S
C216 C219 1.350 . S
C216 H221 0.930 . S
N217 Co212 2.057 . S
N217 C215 1.316 . S
N217 C216 1.375 . S
N218 C215 1.347 . S
N218 C219 1.373 . S
C219 C216 1.350 . S
C219 N218 1.373 . S
C219 H240 0.931 . S
H220 C215 0.931 . S
H221 C216 0.930 . S
C222 O229 1.259 . S
C222 O230 1.258 . S
N223 Co214 2.057 . S
N223 C224 1.316 . S
N223 C225 1.375 . S
C224 N223 1.316 . S
C224 N226 1.347 . S
C224 H235 0.931 . S
C225 N223 1.375 . S
C225 C227 1.350 . S
C225 H234 0.930 . S
N226 C224 1.347 . S
N226 C227 1.373 . S
C227 C225 1.350 . S
C227 N226 1.373 . S
C227 H241 0.931 . S
C228 O231 1.256 . S
C228 O232 1.255 . S
O229 Co212 2.021 . S
O229 C222 1.259 . S
O230 Co214 2.117 . S
O230 C222 1.258 . S
O231 Co214 2.020 . S
O231 C228 1.256 . S
O232 Co212 2.062 . S
O232 C228 1.255 . S
O233 C213 1.259 . S
O233 Co214 2.021 . S
H234 C225 0.930 . S
H235 C224 0.931 . S
O236 Co212 2.117 . S
O236 C213 1.258 . S
O237 Co212 2.020 . S
O237 C239 1.256 . S
O238 Co214 2.062 . S
O238 C239 1.255 . S
C239 O237 1.256 . S
C239 O238 1.255 . S
H240 C219 0.931 . S
H241 C227 0.931 . S
Co242 N247 2.057 . S
Co242 O259 2.021 1_556 S
Co242 O262 2.062 1_556 S
Co242 O266 2.117 1_455 S
Co242 O267 2.020 . S
C243 O263 1.259 . S
C243 O266 1.258 1_554 S
Co244 N253 2.057 . S
Co244 O260 2.117 . S
Co244 O261 2.020 . S
Co244 O263 2.021 1_455 S
Co244 O268 2.062 . S
C245 N247 1.316 . S
C245 N248 1.347 . S
C245 H250 0.931 . S
C246 N247 1.375 . S
C246 C249 1.350 . S
C246 H251 0.930 1_455 S
N247 Co242 2.057 . S
N247 C245 1.316 . S
N247 C246 1.375 . S
N248 C245 1.347 . S
N248 C249 1.373 . S
C249 C246 1.350 . S
C249 N248 1.373 . S
C249 H270 0.931 . S
H250 C245 0.931 . S
H251 C246 0.930 1_655 S
C252 O259 1.259 . S
C252 O260 1.258 . S
N253 Co244 2.057 . S
N253 C254 1.316 1_455 S
N253 C255 1.375 . S
C254 N253 1.316 1_655 S
C254 N256 1.347 . S
C254 H265 0.931 . S
C255 N253 1.375 . S
C255 C257 1.350 . S
C255 H264 0.930 . S
N256 C254 1.347 . S
N256 C257 1.373 1_655 S
C257 C255 1.350 . S
C257 N256 1.373 1_455 S
C257 H271 0.931 . S
C258 O261 1.256 . S
C258 O262 1.255 . S
O259 Co242 2.021 1_554 S
O259 C252 1.259 . S
O260 Co244 2.117 . S
O260 C252 1.258 . S
O261 Co244 2.020 . S
O261 C258 1.256 . S
O262 Co242 2.062 1_554 S
O262 C258 1.255 . S
O263 C243 1.259 . S
O263 Co244 2.021 1_655 S
H264 C255 0.930 . S
H265 C254 0.931 . S
O266 Co242 2.117 1_655 S
O266 C243 1.258 1_556 S
O267 Co242 2.020 . S
O267 C269 1.256 1_556 S
O268 Co244 2.062 . S
O268 C269 1.255 . S
C269 O267 1.256 1_554 S
C269 O268 1.255 . S
H270 C249 0.931 . S
H271 C257 0.931 . S
C272 C273 1.391 . S
C272 C274 1.394 . S
C272 H288 0.931 . S
C273 C272 1.391 . S
C273 C277 1.376 . S
C274 C272 1.394 . S
C274 C275 1.369 . S
C274 C278 1.531 . S
C275 C274 1.369 . S
C275 C276 1.410 . S
C275 C283 1.503 . S
C276 C275 1.410 . S
C276 C277 1.392 . S
C276 C279 1.511 . S
C277 C273 1.376 . S
C277 C276 1.392 . S
C277 H289 0.929 . S
C278 C274 1.531 . S
C278 H290 0.960 . S
C278 H291 0.962 . S
C278 H292 0.960 . S
C279 C276 1.511 . S
C279 H293 0.961 . S
C279 H294 0.961 . S
C279 H295 0.961 . S
C280 C281 1.370 . S
C280 C282 1.363 . S
C280 H296 0.931 . S
C281 C280 1.370 . S
C281 C285 1.408 . S
C282 C280 1.363 . S
C282 C283 1.370 . S
C282 C286 1.524 . S
C283 C275 1.503 . S
C283 C282 1.370 . S
C283 C284 1.403 . S
C284 C283 1.403 . S
C284 C285 1.404 . S
C284 C287 1.539 . S
C285 C281 1.408 . S
C285 C284 1.404 . S
C285 H297 0.930 . S
C286 C282 1.524 . S
C286 H298 0.956 . S
C286 H299 0.961 . S
C286 H300 0.961 . S
C287 C284 1.539 . S
C287 H301 0.958 . S
C287 H302 0.961 . S
C287 H303 0.960 . S
H288 C272 0.931 . S
H289 C277 0.929 . S
H290 C278 0.960 . S
H291 C278 0.962 . S
H292 C278 0.960 . S
H293 C279 0.961 . S
H294 C279 0.961 . S
H295 C279 0.961 . S
H296 C280 0.931 . S
H297 C285 0.930 . S
H298 C286 0.956 . S
H299 C286 0.961 . S
H300 C286 0.961 . S
H301 C287 0.958 . S
H302 C287 0.961 . S
H303 C287 0.960 . S
C304 C305 1.391 . S
C304 C306 1.394 . S
C304 H320 0.931 . S
C305 C304 1.391 . S
C305 C309 1.376 . S
C306 C304 1.394 . S
C306 C307 1.369 . S
C306 C310 1.531 . S
C307 C306 1.369 . S
C307 C308 1.410 . S
C307 C315 1.503 . S
C308 C307 1.410 . S
C308 C309 1.392 . S
C308 C311 1.511 1_565 S
C309 C305 1.376 . S
C309 C308 1.392 . S
C309 H321 0.929 . S
C310 C306 1.531 . S
C310 H322 0.960 . S
C310 H323 0.962 . S
C310 H324 0.960 . S
C311 C308 1.511 1_545 S
C311 H325 0.961 . S
C311 H326 0.961 . S
C311 H327 0.961 . S
C312 C313 1.370 . S
C312 C314 1.363 . S
C312 H328 0.931 . S
C313 C312 1.370 . S
C313 C317 1.408 1_565 S
C314 C312 1.363 . S
C314 C315 1.370 . S
C314 C318 1.524 . S
C315 C307 1.503 . S
C315 C314 1.370 . S
C315 C316 1.403 1_565 S
C316 C315 1.403 1_545 S
C316 C317 1.404 . S
C316 C319 1.539 . S
C317 C313 1.408 1_545 S
C317 C316 1.404 . S
C317 H329 0.930 . S
C318 C314 1.524 . S
C318 H330 0.956 . S
C318 H331 0.961 . S
C318 H332 0.961 . S
C319 C316 1.539 . S
C319 H333 0.958 . S
C319 H334 0.961 . S
C319 H335 0.960 . S
H320 C304 0.931 . S
H321 C309 0.929 . S
H322 C310 0.960 . S
H323 C310 0.962 . S
H324 C310 0.960 . S
H325 C311 0.961 . S
H326 C311 0.961 . S
H327 C311 0.961 . S
H328 C312 0.931 . S
H329 C317 0.930 . S
H330 C318 0.956 . S
H331 C318 0.961 . S
H332 C318 0.961 . S
H333 C319 0.958 . S
H334 C319 0.961 . S
H335 C319 0.960 . S
C336 C337 1.391 . S
C336 C338 1.394 . S
C336 H352 0.931 . S
C337 C336 1.391 . S
C337 C341 1.376 . S
C338 C336 1.394 . S
C338 C339 1.369 . S
C338 C342 1.531 . S
C339 C338 1.369 . S
C339 C340 1.410 . S
C339 C347 1.503 . S
C340 C339 1.410 . S
C340 C341 1.392 . S
C340 C343 1.511 . S
C341 C337 1.376 . S
C341 C340 1.392 . S
C341 H353 0.929 . S
C342 C338 1.531 . S
C342 H354 0.960 . S
C342 H355 0.962 . S
C342 H356 0.960 . S
C343 C340 1.511 . S
C343 H357 0.961 . S
C343 H358 0.961 . S
C343 H359 0.961 . S
C344 C345 1.370 . S
C344 C346 1.363 . S
C344 H360 0.931 . S
C345 C344 1.370 . S
C345 C349 1.408 . S
C346 C344 1.363 . S
C346 C347 1.370 . S
C346 C350 1.524 . S
C347 C339 1.503 . S
C347 C346 1.370 . S
C347 C348 1.403 . S
C348 C347 1.403 . S
C348 C349 1.404 . S
C348 C351 1.539 . S
C349 C345 1.408 . S
C349 C348 1.404 . S
C349 H361 0.930 . S
C350 C346 1.524 . S
C350 H362 0.956 . S
C350 H363 0.961 . S
C350 H364 0.961 . S
C351 C348 1.539 . S
C351 H365 0.958 . S
C351 H366 0.961 . S
C351 H367 0.960 . S
H352 C336 0.931 . S
H353 C341 0.929 . S
H354 C342 0.960 . S
H355 C342 0.962 . S
H356 C342 0.960 . S
H357 C343 0.961 . S
H358 C343 0.961 . S
H359 C343 0.961 . S
H360 C344 0.931 . S
H361 C349 0.930 . S
H362 C350 0.956 . S
H363 C350 0.961 . S
H364 C350 0.961 . S
H365 C351 0.958 . S
H366 C351 0.961 . S
H367 C351 0.960 . S
C368 C369 1.391 . S
C368 C370 1.394 . S
C368 H384 0.931 . S
C369 C368 1.391 . S
C369 C373 1.376 . S
C370 C368 1.394 . S
C370 C371 1.369 . S
C370 C374 1.531 . S
C371 C370 1.369 . S
C371 C372 1.412 . S
C371 C379 1.503 . S
C372 C371 1.412 . S
C372 C373 1.393 . S
C372 C375 1.508 1_655 S
C373 C369 1.376 . S
C373 C372 1.393 . S
C373 H385 0.929 1_655 S
C374 C370 1.531 . S
C374 H386 0.960 . S
C374 H387 0.962 . S
C374 H388 0.960 . S
C375 C372 1.508 1_455 S
C375 H389 0.961 . S
C375 H390 0.961 . S
C375 H391 0.961 . S
C376 C377 1.370 . S
C376 C378 1.363 . S
C376 H392 0.931 . S
C377 C376 1.370 . S
C377 C381 1.408 1_655 S
C378 C376 1.363 . S
C378 C379 1.370 . S
C378 C382 1.524 . S
C379 C371 1.503 . S
C379 C378 1.370 . S
C379 C380 1.403 1_655 S
C380 C379 1.403 1_455 S
C380 C381 1.404 . S
C380 C383 1.539 . S
C381 C377 1.408 1_455 S
C381 C380 1.404 . S
C381 H393 0.930 . S
C382 C378 1.524 . S
C382 H394 0.956 . S
C382 H395 0.961 . S
C382 H396 0.961 . S
C383 C380 1.539 . S
C383 H397 0.958 . S
C383 H398 0.961 . S
C383 H399 0.960 . S
H384 C368 0.931 . S
H385 C373 0.929 1_455 S
H386 C374 0.960 . S
H387 C374 0.962 . S
H388 C374 0.960 . S
H389 C375 0.961 . S
H390 C375 0.961 . S
H391 C375 0.961 . S
H392 C376 0.931 . S
H393 C381 0.930 . S
H394 C382 0.956 . S
H395 C382 0.961 . S
H396 C382 0.961 . S
H397 C383 0.958 . S
H398 C383 0.961 . S
H399 C383 0.960 . S
C400 C401 1.391 . S
C400 C402 1.394 . S
C400 H416 0.931 . S
C401 C400 1.391 . S
C401 C405 1.376 . S
C402 C400 1.394 . S
C402 C403 1.369 . S
C402 C406 1.531 . S
C403 C402 1.369 . S
C403 C404 1.410 . S
C403 C411 1.503 . S
C404 C403 1.410 . S
C404 C405 1.392 . S
C404 C407 1.511 . S
C405 C401 1.376 . S
C405 C404 1.392 . S
C405 H417 0.929 . S
C406 C402 1.531 . S
C406 H418 0.960 . S
C406 H419 0.962 . S
C406 H420 0.960 . S
C407 C404 1.511 . S
C407 H421 0.961 . S
C407 H422 0.961 . S
C407 H423 0.961 . S
C408 C409 1.370 . S
C408 C410 1.363 . S
C408 H424 0.931 . S
C409 C408 1.370 . S
C409 C413 1.408 . S
C410 C408 1.363 . S
C410 C411 1.370 . S
C410 C414 1.524 . S
C411 C403 1.503 . S
C411 C410 1.370 . S
C411 C412 1.403 . S
C412 C411 1.403 . S
C412 C413 1.404 . S
C412 C415 1.539 . S
C413 C409 1.408 . S
C413 C412 1.404 . S
C413 H425 0.930 . S
C414 C410 1.524 . S
C414 H426 0.956 . S
C414 H427 0.961 . S
C414 H428 0.961 . S
C415 C412 1.539 . S
C415 H429 0.958 . S
C415 H430 0.961 . S
C415 H431 0.960 . S
H416 C400 0.931 . S
H417 C405 0.929 . S
H418 C406 0.960 . S
H419 C406 0.962 . S
H420 C406 0.960 . S
H421 C407 0.961 . S
H422 C407 0.961 . S
H423 C407 0.961 . S
H424 C408 0.931 . S
H425 C413 0.930 . S
H426 C414 0.956 . S
H427 C414 0.961 . S
H428 C414 0.961 . S
H429 C415 0.958 . S
H430 C415 0.961 . S
H431 C415 0.960 . S
C432 C433 1.391 . S
C432 C434 1.394 . S
C432 H448 0.931 . S
C433 C432 1.391 . S
C433 C437 1.376 . S
C434 C432 1.394 . S
C434 C435 1.369 . S
C434 C438 1.531 . S
C435 C434 1.369 . S
C435 C436 1.410 . S
C435 C443 1.503 . S
C436 C435 1.410 . S
C436 C437 1.392 . S
C436 C439 1.511 . S
C437 C433 1.376 . S
C437 C436 1.392 . S
C437 H449 0.929 . S
C438 C434 1.531 . S
C438 H450 0.960 . S
C438 H451 0.962 1_565 S
C438 H452 0.960 . S
C439 C436 1.511 . S
C439 H453 0.961 . S
C439 H454 0.961 . S
C439 H455 0.961 . S
C440 C441 1.370 . S
C440 C442 1.363 . S
C440 H456 0.931 . S
C441 C440 1.370 . S
C441 C445 1.408 1_545 S
C442 C440 1.363 . S
C442 C443 1.370 1_545 S
C442 C446 1.524 . S
C443 C435 1.503 . S
C443 C442 1.370 1_565 S
C443 C444 1.403 . S
C444 C443 1.403 . S
C444 C445 1.404 . S
C444 C447 1.539 . S
C445 C441 1.408 1_565 S
C445 C444 1.404 . S
C445 H457 0.930 . S
C446 C442 1.524 . S
C446 H458 0.956 . S
C446 H459 0.961 . S
C446 H460 0.961 . S
C447 C444 1.539 . S
C447 H461 0.958 . S
C447 H462 0.961 . S
C447 H463 0.960 . S
H448 C432 0.931 . S
H449 C437 0.929 . S
H450 C438 0.960 . S
H451 C438 0.962 1_545 S
H452 C438 0.960 . S
H453 C439 0.961 . S
H454 C439 0.961 . S
H455 C439 0.961 . S
H456 C440 0.931 . S
H457 C445 0.930 . S
H458 C446 0.956 . S
H459 C446 0.961 . S
H460 C446 0.961 . S
H461 C447 0.958 . S
H462 C447 0.961 . S
H463 C447 0.960 . S
C464 C465 1.391 . S
C464 C466 1.394 . S
C464 H480 0.931 . S
C465 C464 1.391 . S
C465 C469 1.376 . S
C466 C464 1.394 . S
C466 C467 1.369 . S
C466 C470 1.531 . S
C467 C466 1.369 . S
C467 C468 1.410 1_556 S
C467 C475 1.503 . S
C468 C467 1.410 1_554 S
C468 C469 1.392 1_554 S
C468 C471 1.511 . S
C469 C465 1.376 . S
C469 C468 1.392 1_556 S
C469 H481 0.929 1_556 S
C470 C466 1.531 . S
C470 H482 0.960 . S
C470 H483 0.962 . S
C470 H484 0.960 . S
C471 C468 1.511 . S
C471 H485 0.961 . S
C471 H486 0.961 . S
C471 H487 0.961 . S
C472 C473 1.370 1_556 S
C472 C474 1.363 . S
C472 H488 0.931 . S
C473 C472 1.370 1_554 S
C473 C477 1.409 . S
C474 C472 1.363 . S
C474 C475 1.370 . S
C474 C478 1.524 . S
C475 C467 1.503 . S
C475 C474 1.370 . S
C475 C476 1.403 1_556 S
C476 C475 1.403 1_554 S
C476 C477 1.404 . S
C476 C479 1.539 . S
C477 C473 1.409 . S
C477 C476 1.404 . S
C477 H489 0.930 . S
C478 C474 1.524 . S
C478 H490 0.956 . S
C478 H491 0.961 . S
C478 H492 0.961 . S
C479 C476 1.539 . S
C479 H493 0.970 . S
C479 H494 0.961 . S
C479 H495 0.960 . S
H480 C464 0.931 . S
H481 C469 0.929 1_554 S
H482 C470 0.960 . S
H483 C470 0.962 . S
H484 C470 0.960 . S
H485 C471 0.961 . S
H486 C471 0.961 . S
H487 C471 0.961 . S
H488 C472 0.931 . S
H489 C477 0.930 . S
H490 C478 0.956 . S
H491 C478 0.961 . S
H492 C478 0.961 . S
H493 C479 0.970 . S
H494 C479 0.961 . S
H495 C479 0.960 . S
C496 C497 1.391 . S
C496 C498 1.394 . S
C496 H512 0.931 . S
C497 C496 1.391 . S
C497 C501 1.376 . S
C498 C496 1.394 . S
C498 C499 1.369 . S
C498 C502 1.531 . S
C499 C498 1.369 . S
C499 C500 1.410 . S
C499 C507 1.503 . S
C500 C499 1.410 . S
C500 C501 1.392 . S
C500 C503 1.511 . S
C501 C497 1.376 . S
C501 C500 1.392 . S
C501 H513 0.929 . S
C502 C498 1.531 . S
C502 H514 0.960 . S
C502 H515 0.962 . S
C502 H516 0.960 . S
C503 C500 1.511 . S
C503 H517 0.961 . S
C503 H518 0.961 . S
C503 H519 0.961 . S
C504 C505 1.370 . S
C504 C506 1.363 . S
C504 H520 0.931 . S
C505 C504 1.370 . S
C505 C509 1.408 . S
C506 C504 1.363 . S
C506 C507 1.370 . S
C506 C510 1.524 . S
C507 C499 1.503 . S
C507 C506 1.370 . S
C507 C508 1.403 . S
C508 C507 1.403 . S
C508 C509 1.404 . S
C508 C511 1.539 . S
C509 C505 1.408 . S
C509 C508 1.404 . S
C509 H521 0.930 . S
C510 C506 1.524 . S
C510 H522 0.956 . S
C510 H523 0.961 . S
C510 H524 0.961 . S
C511 C508 1.539 . S
C511 H525 0.958 . S
C511 H526 0.961 . S
C511 H527 0.960 . S
H512 C496 0.931 . S
H513 C501 0.929 . S
H514 C502 0.960 . S
H515 C502 0.962 . S
H516 C502 0.960 . S
H517 C503 0.961 . S
H518 C503 0.961 . S
H519 C503 0.961 . S
H520 C504 0.931 . S
H521 C509 0.930 . S
H522 C510 0.956 . S
H523 C510 0.961 . S
H524 C510 0.961 . S
H525 C511 0.958 . S
H526 C511 0.961 . S
H527 C511 0.960 . S
C528 C529 1.391 . S
C528 C530 1.394 . S
C528 H544 0.931 . S
C529 C528 1.391 . S
C529 C533 1.376 . S
C530 C528 1.394 . S
C530 C531 1.369 . S
C530 C534 1.531 . S
C531 C530 1.369 . S
C531 C532 1.410 . S
C531 C539 1.503 . S
C532 C531 1.410 . S
C532 C533 1.392 . S
C532 C535 1.511 . S
C533 C529 1.376 . S
C533 C532 1.392 . S
C533 H545 0.929 . S
C534 C530 1.531 . S
C534 H546 0.960 . S
C534 H547 0.962 . S
C534 H548 0.960 . S
C535 C532 1.511 . S
C535 H549 0.961 . S
C535 H550 0.961 . S
C535 H551 0.961 . S
C536 C537 1.370 . S
C536 C538 1.363 . S
C536 H552 0.931 . S
C537 C536 1.370 . S
C537 C541 1.408 . S
C538 C536 1.363 . S
C538 C539 1.370 . S
C538 C542 1.524 . S
C539 C531 1.503 . S
C539 C538 1.370 . S
C539 C540 1.403 . S
C540 C539 1.403 . S
C540 C541 1.404 . S
C540 C543 1.539 . S
C541 C537 1.408 . S
C541 C540 1.404 . S
C541 H553 0.930 . S
C542 C538 1.524 . S
C542 H554 0.956 . S
C542 H555 0.961 . S
C542 H556 0.961 . S
C543 C540 1.539 . S
C543 H557 0.958 1_554 S
C543 H558 0.961 . S
C543 H559 0.960 . S
H544 C528 0.931 . S
H545 C533 0.929 . S
H546 C534 0.960 . S
H547 C534 0.962 . S
H548 C534 0.960 . S
H549 C535 0.961 . S
H550 C535 0.961 . S
H551 C535 0.961 . S
H552 C536 0.931 . S
H553 C541 0.930 . S
H554 C542 0.956 . S
H555 C542 0.961 . S
H556 C542 0.961 . S
H557 C543 0.958 1_556 S
H558 C543 0.961 . S
H559 C543 0.960 . S
C560 C561 1.391 1_554 S
C560 C562 1.394 . S
C560 H576 0.931 . S
C561 C560 1.391 1_556 S
C561 C565 1.376 . S
C562 C560 1.394 . S
C562 C563 1.369 . S
C562 C566 1.531 . S
C563 C562 1.369 . S
C563 C564 1.410 1_554 S
C563 C571 1.503 . S
C564 C563 1.410 1_556 S
C564 C565 1.392 . S
C564 C567 1.511 . S
C565 C561 1.376 . S
C565 C564 1.392 . S
C565 H577 0.929 . S
C566 C562 1.531 . S
C566 H578 0.960 . S
C566 H579 0.962 . S
C566 H580 0.960 . S
C567 C564 1.511 . S
C567 H581 0.961 . S
C567 H582 0.961 . S
C567 H583 0.961 . S
C568 C569 1.370 . S
C568 C570 1.363 . S
C568 H584 0.931 . S
C569 C568 1.370 . S
C569 C573 1.408 . S
C570 C568 1.363 . S
C570 C571 1.370 . S
C570 C574 1.524 . S
C571 C563 1.503 . S
C571 C570 1.370 . S
C571 C572 1.403 . S
C572 C571 1.403 . S
C572 C573 1.404 . S
C572 C575 1.539 . S
C573 C569 1.408 . S
C573 C572 1.404 . S
C573 H585 0.930 . S
C574 C570 1.524 . S
C574 H586 0.956 . S
C574 H587 0.961 1_554 S
C574 H588 0.961 . S
C575 C572 1.539 . S
C575 H589 0.958 . S
C575 H590 0.961 . S
C575 H591 0.960 . S
H576 C560 0.931 . S
H577 C565 0.929 . S
H578 C566 0.960 . S
H579 C566 0.962 . S
H580 C566 0.960 . S
H581 C567 0.961 . S
H582 C567 0.961 . S
H583 C567 0.961 . S
H584 C568 0.931 . S
H585 C573 0.930 . S
H586 C574 0.956 . S
H587 C574 0.961 1_556 S
H588 C574 0.961 . S
H589 C575 0.958 . S
H590 C575 0.961 . S
H591 C575 0.960 . S
C592 C593 1.391 . S
C592 C594 1.394 . S
C592 H608 0.931 . S
C593 C592 1.391 . S
C593 C597 1.376 . S
C594 C592 1.394 . S
C594 C595 1.369 . S
C594 C598 1.531 . S
C595 C594 1.369 . S
C595 C596 1.410 . S
C595 C603 1.503 . S
C596 C595 1.410 . S
C596 C597 1.392 . S
C596 C599 1.511 . S
C597 C593 1.376 . S
C597 C596 1.392 . S
C597 H609 0.929 . S
C598 C594 1.531 . S
C598 H610 0.960 . S
C598 H611 0.962 . S
C598 H612 0.960 . S
C599 C596 1.511 . S
C599 H613 0.961 . S
C599 H614 0.961 . S
C599 H615 0.961 . S
C600 C601 1.370 1_455 S
C600 C602 1.363 1_455 S
C600 H616 0.931 . S
C601 C600 1.370 1_655 S
C601 C605 1.408 . S
C602 C600 1.363 1_655 S
C602 C603 1.370 . S
C602 C606 1.524 1_655 S
C603 C595 1.503 . S
C603 C602 1.370 . S
C603 C604 1.403 . S
C604 C603 1.403 . S
C604 C605 1.404 . S
C604 C607 1.539 . S
C605 C601 1.408 . S
C605 C604 1.404 . S
C605 H617 0.930 . S
C606 C602 1.524 1_455 S
C606 H618 0.956 . S
C606 H619 0.961 . S
C606 H620 0.961 . S
C607 C604 1.539 . S
C607 H621 0.958 . S
C607 H622 0.961 . S
C607 H623 0.960 . S
H608 C592 0.931 . S
H609 C597 0.929 . S
H610 C598 0.960 . S
H611 C598 0.962 . S
H612 C598 0.960 . S
H613 C599 0.961 . S
H614 C599 0.961 . S
H615 C599 0.961 . S
H616 C600 0.931 . S
H617 C605 0.930 . S
H618 C606 0.956 . S
H619 C606 0.961 . S
H620 C606 0.961 . S
H621 C607 0.958 . S
H622 C607 0.961 . S
H623 C607 0.960 . S
C624 C625 1.391 . S
C624 C626 1.394 . S
C624 H640 0.931 . S
C625 C624 1.391 . S
C625 C629 1.376 . S
C626 C624 1.394 . S
C626 C627 1.369 . S
C626 C630 1.531 . S
C627 C626 1.369 . S
C627 C628 1.410 . S
C627 C635 1.503 . S
C628 C627 1.410 . S
C628 C629 1.392 . S
C628 C631 1.511 . S
C629 C625 1.376 . S
C629 C628 1.392 . S
C629 H641 0.929 . S
C630 C626 1.531 . S
C630 H642 0.960 . S
C630 H643 0.962 . S
C630 H644 0.960 . S
C631 C628 1.511 . S
C631 H645 0.961 . S
C631 H646 0.961 . S
C631 H647 0.961 . S
C632 C633 1.370 . S
C632 C634 1.363 . S
C632 H648 0.931 . S
C633 C632 1.370 . S
C633 C637 1.408 . S
C634 C632 1.363 . S
C634 C635 1.370 . S
C634 C638 1.524 . S
C635 C627 1.503 . S
C635 C634 1.370 . S
C635 C636 1.403 . S
C636 C635 1.403 . S
C636 C637 1.404 . S
C636 C639 1.539 . S
C637 C633 1.408 . S
C637 C636 1.404 . S
C637 H649 0.930 . S
C638 C634 1.524 . S
C638 H650 0.956 . S
C638 H651 0.961 . S
C638 H652 0.961 . S
C639 C636 1.539 . S
C639 H653 0.958 . S
C639 H654 0.961 . S
C639 H655 0.960 . S
H640 C624 0.931 . S
H641 C629 0.929 . S
H642 C630 0.960 . S
H643 C630 0.962 . S
H644 C630 0.960 . S
H645 C631 0.961 . S
H646 C631 0.961 . S
H647 C631 0.961 . S
H648 C632 0.931 . S
H649 C637 0.930 . S
H650 C638 0.956 . S
H651 C638 0.961 . S
H652 C638 0.961 . S
H653 C639 0.958 . S
H654 C639 0.961 . S
H655 C639 0.960 . S
C656 C657 1.391 . S
C656 C658 1.394 . S
C656 H672 0.931 . S
C657 C656 1.391 . S
C657 C661 1.376 . S
C658 C656 1.394 . S
C658 C659 1.369 . S
C658 C662 1.531 1_655 S
C659 C658 1.369 . S
C659 C660 1.410 . S
C659 C667 1.503 . S
C660 C659 1.410 . S
C660 C661 1.392 . S
C660 C663 1.511 1_565 S
C661 C657 1.376 . S
C661 C660 1.392 . S
C661 H673 0.929 . S
C662 C658 1.531 1_455 S
C662 H674 0.960 . S
C662 H675 0.962 . S
C662 H676 0.960 . S
C663 C660 1.511 1_545 S
C663 H677 0.961 . S
C663 H678 0.961 . S
C663 H679 0.961 1_545 S
C664 C665 1.370 . S
C664 C666 1.363 . S
C664 H680 0.931 1_655 S
C665 C664 1.370 . S
C665 C669 1.408 1_545 S
C666 C664 1.363 . S
C666 C667 1.370 1_545 S
C666 C670 1.524 1_655 S
C667 C659 1.503 . S
C667 C666 1.370 1_565 S
C667 C668 1.403 . S
C668 C667 1.403 . S
C668 C669 1.404 . S
C668 C671 1.539 . S
C669 C665 1.408 1_565 S
C669 C668 1.404 . S
C669 H681 0.930 . S
C670 C666 1.524 1_455 S
C670 H682 0.956 . S
C670 H683 0.961 1_455 S
C670 H684 0.961 . S
C671 C668 1.539 . S
C671 H685 0.958 . S
C671 H686 0.961 . S
C671 H687 0.960 . S
H672 C656 0.931 . S
H673 C661 0.929 . S
H674 C662 0.960 . S
H675 C662 0.962 . S
H676 C662 0.960 . S
H677 C663 0.961 . S
H678 C663 0.961 . S
H679 C663 0.961 1_565 S
H680 C664 0.931 1_455 S
H681 C669 0.930 . S
H682 C670 0.956 . S
H683 C670 0.961 1_655 S
H684 C670 0.961 . S
H685 C671 0.958 . S
H686 C671 0.961 . S
H687 C671 0.960 . S
C688 C689 1.391 . S
C688 C690 1.394 . S
C688 H704 0.931 . S
C689 C688 1.391 . S
C689 C693 1.376 . S
C690 C688 1.394 . S
C690 C691 1.369 . S
C690 C694 1.531 . S
C691 C690 1.369 . S
C691 C692 1.410 . S
C691 C699 1.503 . S
C692 C691 1.410 . S
C692 C693 1.392 . S
C692 C695 1.511 . S
C693 C689 1.376 . S
C693 C692 1.392 . S
C693 H705 0.929 . S
C694 C690 1.531 . S
C694 H706 0.960 . S
C694 H707 0.962 . S
C694 H708 0.960 . S
C695 C692 1.511 . S
C695 H709 0.961 . S
C695 H710 0.961 . S
C695 H711 0.961 . S
C696 C697 1.370 . S
C696 C698 1.363 . S
C696 H712 0.931 . S
C697 C696 1.370 . S
C697 C701 1.408 . S
C698 C696 1.363 . S
C698 C699 1.370 . S
C698 C702 1.524 . S
C699 C691 1.503 . S
C699 C698 1.370 . S
C699 C700 1.403 . S
C700 C699 1.403 . S
C700 C701 1.404 . S
C700 C703 1.539 . S
C701 C697 1.408 . S
C701 C700 1.404 . S
C701 H713 0.930 . S
C702 C698 1.524 . S
C702 H714 0.956 . S
C702 H715 0.961 . S
C702 H716 0.961 . S
C703 C700 1.539 . S
C703 H717 0.958 . S
C703 H718 0.961 . S
C703 H719 0.960 . S
H704 C688 0.931 . S
H705 C693 0.929 . S
H706 C694 0.960 . S
H707 C694 0.962 . S
H708 C694 0.960 . S
H709 C695 0.961 . S
H710 C695 0.961 . S
H711 C695 0.961 . S
H712 C696 0.931 . S
H713 C701 0.930 . S
H714 C702 0.956 . S
H715 C702 0.961 . S
H716 C702 0.961 . S
H717 C703 0.958 . S
H718 C703 0.961 . S
H719 C703 0.960 . S
C720 C721 1.391 . S
C720 C722 1.394 . S
C720 H736 0.931 . S
C721 C720 1.391 . S
C721 C725 1.376 . S
C722 C720 1.394 . S
C722 C723 1.369 . S
C722 C726 1.531 . S
C723 C722 1.369 . S
C723 C724 1.410 . S
C723 C731 1.503 . S
C724 C723 1.410 . S
C724 C725 1.392 . S
C724 C727 1.511 . S
C725 C721 1.376 . S
C725 C724 1.392 . S
C725 H737 0.929 . S
C726 C722 1.531 . S
C726 H738 0.960 . S
C726 H739 0.962 . S
C726 H740 0.960 . S
C727 C724 1.511 . S
C727 H741 0.961 . S
C727 H742 0.961 . S
C727 H743 0.961 . S
C728 C729 1.370 . S
C728 C730 1.363 . S
C728 H744 0.931 . S
C729 C728 1.370 . S
C729 C733 1.408 . S
C730 C728 1.363 . S
C730 C731 1.370 . S
C730 C734 1.524 . S
C731 C723 1.503 . S
C731 C730 1.370 . S
C731 C732 1.403 . S
C732 C731 1.403 . S
C732 C733 1.404 . S
C732 C735 1.539 . S
C733 C729 1.408 . S
C733 C732 1.404 . S
C733 H745 0.930 . S
C734 C730 1.524 . S
C734 H746 0.956 . S
C734 H747 0.961 . S
C734 H748 0.961 . S
C735 C732 1.539 . S
C735 H749 0.958 . S
C735 H750 0.961 . S
C735 H751 0.960 . S
H736 C720 0.931 . S
H737 C725 0.929 . S
H738 C726 0.960 . S
H739 C726 0.962 . S
H740 C726 0.960 . S
H741 C727 0.961 . S
H742 C727 0.961 . S
H743 C727 0.961 . S
H744 C728 0.931 . S
H745 C733 0.930 . S
H746 C734 0.956 . S
H747 C734 0.961 . S
H748 C734 0.961 . S
H749 C735 0.958 . S
H750 C735 0.961 . S
H751 C735 0.960 . S
C752 C753 1.391 . S
C752 C754 1.394 . S
C752 H768 0.931 . S
C753 C752 1.391 . S
C753 C757 1.376 . S
C754 C752 1.394 . S
C754 C755 1.369 . S
C754 C758 1.531 . S
C755 C754 1.369 . S
C755 C756 1.410 . S
C755 C763 1.503 . S
C756 C755 1.410 . S
C756 C757 1.392 . S
C756 C759 1.511 . S
C757 C753 1.376 . S
C757 C756 1.392 . S
C757 H769 0.929 . S
C758 C754 1.531 . S
C758 H770 0.960 . S
C758 H771 0.962 . S
C758 H772 0.960 . S
C759 C756 1.511 . S
C759 H773 0.961 . S
C759 H774 0.961 . S
C759 H775 0.950 1_455 S
C760 C761 1.370 . S
C760 C762 1.363 . S
C760 H776 0.931 . S
C761 C760 1.370 . S
C761 C765 1.408 . S
C762 C760 1.363 . S
C762 C763 1.370 . S
C762 C766 1.524 . S
C763 C755 1.503 . S
C763 C762 1.370 . S
C763 C764 1.403 . S
C764 C763 1.403 . S
C764 C765 1.404 . S
C764 C767 1.539 . S
C765 C761 1.408 . S
C765 C764 1.404 . S
C765 H777 0.930 . S
C766 C762 1.524 . S
C766 H778 0.956 . S
C766 H779 0.961 . S
C766 H780 0.961 . S
C767 C764 1.539 . S
C767 H781 0.958 . S
C767 H782 0.961 . S
C767 H783 0.960 . S
H768 C752 0.931 . S
H769 C757 0.929 . S
H770 C758 0.960 . S
H771 C758 0.962 . S
H772 C758 0.960 . S
H773 C759 0.961 . S
H774 C759 0.961 . S
H775 C759 0.950 1_655 S
H776 C760 0.931 . S
H777 C765 0.930 . S
H778 C766 0.956 . S
H779 C766 0.961 . S
H780 C766 0.961 . S
H781 C767 0.958 . S
H782 C767 0.961 . S
H783 C767 0.960 . S
C784 C785 1.391 1_544 S
C784 C786 1.394 . S
C784 H800 0.931 . S
C785 C784 1.391 1_566 S
C785 C789 1.376 . S
C786 C784 1.394 . S
C786 C787 1.369 . S
C786 C790 1.531 . S
C787 C786 1.369 . S
C787 C788 1.403 1_544 S
C787 C795 1.503 . S
C788 C787 1.403 1_566 S
C788 C789 1.399 . S
C788 C791 1.511 . S
C789 C785 1.376 . S
C789 C788 1.399 . S
C789 H801 0.929 . S
C790 C786 1.531 . S
C790 H802 0.960 . S
C790 H803 0.962 . S
C790 H804 0.960 . S
C791 C788 1.511 . S
C791 H805 0.961 . S
C791 H806 0.961 . S
C791 H807 0.961 1_565 S
C792 C793 1.370 1_565 S
C792 C794 1.363 . S
C792 H808 0.931 . S
C793 C792 1.370 1_545 S
C793 C797 1.408 . S
C794 C792 1.363 . S
C794 C795 1.370 1_565 S
C794 C798 1.524 . S
C795 C787 1.503 . S
C795 C794 1.370 1_545 S
C795 C796 1.403 . S
C796 C795 1.403 . S
C796 C797 1.404 . S
C796 C799 1.539 1_554 S
C797 C793 1.408 . S
C797 C796 1.404 . S
C797 H809 0.930 . S
C798 C794 1.524 . S
C798 H810 0.956 . S
C798 H811 0.961 . S
C798 H812 0.961 . S
C799 C796 1.539 1_556 S
C799 H813 0.958 1_556 S
C799 H814 0.961 . S
C799 H815 0.960 . S
H800 C784 0.931 . S
H801 C789 0.929 . S
H802 C790 0.960 . S
H803 C790 0.962 . S
H804 C790 0.960 . S
H805 C791 0.961 . S
H806 C791 0.961 . S
H807 C791 0.961 1_545 S
H808 C792 0.931 . S
H809 C797 0.930 . S
H810 C798 0.956 . S
H811 C798 0.961 . S
H812 C798 0.961 . S
H813 C799 0.958 1_554 S
H814 C799 0.961 . S
H815 C799 0.960 . S
C816 C817 1.391 . S
C816 C818 1.394 . S
C816 H832 0.931 . S
C817 C816 1.391 . S
C817 C821 1.376 . S
C818 C816 1.394 . S
C818 C819 1.369 . S
C818 C822 1.531 . S
C819 C818 1.369 . S
C819 C820 1.410 . S
C819 C827 1.503 . S
C820 C819 1.410 . S
C820 C821 1.392 . S
C820 C823 1.511 . S
C821 C817 1.376 . S
C821 C820 1.392 . S
C821 H833 0.929 . S
C822 C818 1.531 . S
C822 H834 0.960 . S
C822 H835 0.962 . S
C822 H836 0.960 . S
C823 C820 1.511 . S
C823 H837 0.961 . S
C823 H838 0.961 . S
C823 H839 0.961 . S
C824 C825 1.370 . S
C824 C826 1.363 . S
C824 H840 0.931 . S
C825 C824 1.370 . S
C825 C829 1.408 . S
C826 C824 1.363 . S
C826 C827 1.370 . S
C826 C830 1.524 . S
C827 C819 1.503 . S
C827 C826 1.370 . S
C827 C828 1.403 . S
C828 C827 1.403 . S
C828 C829 1.404 . S
C828 C831 1.539 . S
C829 C825 1.408 . S
C829 C828 1.404 . S
C829 H841 0.930 . S
C830 C826 1.524 . S
C830 H842 0.956 . S
C830 H843 0.961 . S
C830 H844 0.961 . S
C831 C828 1.539 . S
C831 H845 0.958 . S
C831 H846 0.961 . S
C831 H847 0.960 . S
H832 C816 0.931 . S
H833 C821 0.929 . S
H834 C822 0.960 . S
H835 C822 0.962 . S
H836 C822 0.960 . S
H837 C823 0.961 . S
H838 C823 0.961 . S
H839 C823 0.961 . S
H840 C824 0.931 . S
H841 C829 0.930 . S
H842 C830 0.956 . S
H843 C830 0.961 . S
H844 C830 0.961 . S
H845 C831 0.958 . S
H846 C831 0.961 . S
H847 C831 0.960 . S
C848 C849 1.391 . S
C848 C850 1.394 . S
C848 H864 0.931 . S
C849 C848 1.391 . S
C849 C853 1.376 . S
C850 C848 1.394 . S
C850 C851 1.369 . S
C850 C854 1.531 . S
C851 C850 1.369 . S
C851 C852 1.410 . S
C851 C859 1.503 . S
C852 C851 1.410 . S
C852 C853 1.392 . S
C852 C855 1.511 . S
C853 C849 1.376 . S
C853 C852 1.392 . S
C853 H865 0.929 . S
C854 C850 1.531 . S
C854 H866 0.960 . S
C854 H867 0.962 . S
C854 H868 0.960 . S
C855 C852 1.511 . S
C855 H869 0.961 . S
C855 H870 0.961 . S
C855 H871 0.961 . S
C856 C857 1.370 . S
C856 C858 1.363 . S
C856 H872 0.931 . S
C857 C856 1.370 . S
C857 C861 1.408 . S
C858 C856 1.363 . S
C858 C859 1.370 . S
C858 C862 1.524 . S
C859 C851 1.503 . S
C859 C858 1.370 . S
C859 C860 1.403 . S
C860 C859 1.403 . S
C860 C861 1.404 . S
C860 C863 1.539 . S
C861 C857 1.408 . S
C861 C860 1.404 . S
C861 H873 0.930 . S
C862 C858 1.524 . S
C862 H874 0.956 . S
C862 H875 0.961 . S
C862 H876 0.961 . S
C863 C860 1.539 . S
C863 H877 0.958 . S
C863 H878 0.961 . S
C863 H879 0.960 . S
H864 C848 0.931 . S
H865 C853 0.929 . S
H866 C854 0.960 . S
H867 C854 0.962 . S
H868 C854 0.960 . S
H869 C855 0.961 . S
H870 C855 0.961 . S
H871 C855 0.961 . S
H872 C856 0.931 . S
H873 C861 0.930 . S
H874 C862 0.956 . S
H875 C862 0.961 . S
H876 C862 0.961 . S
H877 C863 0.958 . S
H878 C863 0.961 . S
H879 C863 0.960 . S
C880 C881 1.391 . S
C880 C882 1.394 . S
C880 H896 0.931 . S
C881 C880 1.391 . S
C881 C885 1.376 . S
C882 C880 1.394 . S
C882 C883 1.369 . S
C882 C886 1.531 . S
C883 C882 1.369 . S
C883 C884 1.410 . S
C883 C891 1.503 . S
C884 C883 1.410 . S
C884 C885 1.392 . S
C884 C887 1.511 . S
C885 C881 1.376 . S
C885 C884 1.392 . S
C885 H897 0.929 . S
C886 C882 1.531 . S
C886 H898 0.960 . S
C886 H899 0.962 . S
C886 H900 0.960 . S
C887 C884 1.511 . S
C887 H901 0.961 . S
C887 H902 0.961 . S
C887 H903 0.961 . S
C888 C889 1.370 . S
C888 C890 1.363 . S
C888 H904 0.931 . S
C889 C888 1.370 . S
C889 C893 1.408 . S
C890 C888 1.363 . S
C890 C891 1.370 . S
C890 C894 1.524 . S
C891 C883 1.503 . S
C891 C890 1.370 . S
C891 C892 1.403 . S
C892 C891 1.403 . S
C892 C893 1.404 . S
C892 C895 1.539 . S
C893 C889 1.408 . S
C893 C892 1.404 . S
C893 H905 0.930 . S
C894 C890 1.524 . S
C894 H906 0.956 . S
C894 H907 0.961 . S
C894 H908 0.961 . S
C895 C892 1.539 . S
C895 H909 0.958 . S
C895 H910 0.961 . S
C895 H911 0.960 . S
H896 C880 0.931 . S
H897 C885 0.929 . S
H898 C886 0.960 . S
H899 C886 0.962 . S
H900 C886 0.960 . S
H901 C887 0.961 . S
H902 C887 0.961 . S
H903 C887 0.961 . S
H904 C888 0.931 . S
H905 C893 0.930 . S
H906 C894 0.956 . S
H907 C894 0.961 . S
H908 C894 0.961 . S
H909 C895 0.958 . S
H910 C895 0.961 . S
H911 C895 0.960 . S
C912 C913 1.391 . S
C912 C914 1.394 . S
C912 H928 0.931 . S
C913 C912 1.391 . S
C913 C917 1.376 . S
C914 C912 1.394 . S
C914 C915 1.369 . S
C914 C918 1.531 1_655 S
C915 C914 1.369 . S
C915 C916 1.410 . S
C915 C923 1.503 . S
C916 C915 1.410 . S
C916 C917 1.392 . S
C916 C919 1.511 . S
C917 C913 1.376 . S
C917 C916 1.392 . S
C917 H929 0.929 . S
C918 C914 1.531 1_455 S
C918 H930 0.960 1_556 S
C918 H931 0.962 . S
C918 H932 0.960 1_556 S
C919 C916 1.511 . S
C919 H933 0.961 . S
C919 H934 0.961 . S
C919 H935 0.961 . S
C920 C921 1.370 . S
C920 C922 1.363 . S
C920 H936 0.931 . S
C921 C920 1.370 . S
C921 C925 1.408 1_456 S
C922 C920 1.363 . S
C922 C923 1.370 1_455 S
C922 C926 1.524 . S
C923 C915 1.503 . S
C923 C922 1.370 1_655 S
C923 C924 1.403 1_556 S
C924 C923 1.403 1_554 S
C924 C925 1.404 . S
C924 C927 1.539 . S
C925 C921 1.408 1_654 S
C925 C924 1.404 . S
C925 H937 0.930 . S
C926 C922 1.524 . S
C926 H938 0.956 . S
C926 H939 0.961 1_455 S
C926 H940 0.961 . S
C927 C924 1.539 . S
C927 H941 0.958 . S
C927 H942 0.961 . S
C927 H943 0.960 . S
H928 C912 0.931 . S
H929 C917 0.929 . S
H930 C918 0.960 1_554 S
H931 C918 0.962 . S
H932 C918 0.960 1_554 S
H933 C919 0.961 . S
H934 C919 0.961 . S
H935 C919 0.961 . S
H936 C920 0.931 . S
H937 C925 0.930 . S
H938 C926 0.956 . S
H939 C926 0.961 1_655 S
H940 C926 0.961 . S
H941 C927 0.958 . S
H942 C927 0.961 . S
H943 C927 0.960 . S
C944 C945 1.391 . S
C944 C946 1.394 . S
C944 H960 0.931 . S
C945 C944 1.391 . S
C945 C949 1.376 . S
C946 C944 1.394 . S
C946 C947 1.369 . S
C946 C950 1.531 . S
C947 C946 1.369 . S
C947 C948 1.410 . S
C947 C955 1.503 . S
C948 C947 1.410 . S
C948 C949 1.392 . S
C948 C951 1.511 . S
C949 C945 1.376 . S
C949 C948 1.392 . S
C949 H961 0.929 . S
C950 C946 1.531 . S
C950 H962 0.960 . S
C950 H963 0.962 . S
C950 H964 0.960 . S
C951 C948 1.511 . S
C951 H965 0.961 . S
C951 H966 0.961 . S
C951 H967 0.961 . S
C952 C953 1.370 . S
C952 C954 1.363 . S
C952 H968 0.931 . S
C953 C952 1.370 . S
C953 C957 1.408 . S
C954 C952 1.363 . S
C954 C955 1.370 . S
C954 C958 1.524 . S
C955 C947 1.503 . S
C955 C954 1.370 . S
C955 C956 1.403 . S
C956 C955 1.403 . S
C956 C957 1.404 . S
C956 C959 1.539 . S
C957 C953 1.408 . S
C957 C956 1.404 . S
C957 H969 0.930 . S
C958 C954 1.524 . S
C958 H970 0.956 . S
C958 H971 0.961 . S
C958 H972 0.961 . S
C959 C956 1.539 . S
C959 H973 0.958 . S
C959 H974 0.961 . S
C959 H975 0.960 . S
H960 C944 0.931 . S
H961 C949 0.929 . S
H962 C950 0.960 . S
H963 C950 0.962 . S
H964 C950 0.960 . S
H965 C951 0.961 . S
H966 C951 0.961 . S
H967 C951 0.961 . S
H968 C952 0.931 . S
H969 C957 0.930 . S
H970 C958 0.956 . S
H971 C958 0.961 . S
H972 C958 0.961 . S
H973 C959 0.958 . S
H974 C959 0.961 . S
H975 C959 0.960 . S
C976 C977 1.391 . S
C976 C978 1.394 . S
C976 H992 0.931 . S
C977 C976 1.391 . S
C977 C981 1.376 . S
C978 C976 1.394 . S
C978 C979 1.369 . S
C978 C982 1.531 . S
C979 C978 1.369 . S
C979 C980 1.410 . S
C979 C987 1.503 . S
C980 C979 1.410 . S
C980 C981 1.392 . S
C980 C983 1.511 . S
C981 C977 1.376 . S
C981 C980 1.392 . S
C981 H993 0.929 . S
C982 C978 1.531 . S
C982 H994 0.960 . S
C982 H995 0.962 . S
C982 H996 0.960 . S
C983 C980 1.511 . S
C983 H997 0.961 . S
C983 H998 0.961 . S
C983 H999 0.964 . S
C984 C985 1.370 . S
C984 C986 1.363 . S
C984 H1000 0.931 . S
C985 C984 1.370 . S
C985 C989 1.408 . S
C986 C984 1.363 . S
C986 C987 1.370 . S
C986 C990 1.524 . S
C987 C979 1.503 . S
C987 C986 1.370 . S
C987 C988 1.403 . S
C988 C987 1.403 . S
C988 C989 1.404 . S
C988 C991 1.539 . S
C989 C985 1.408 . S
C989 C988 1.404 . S
C989 H1001 0.930 . S
C990 C986 1.524 . S
C990 H1002 0.956 . S
C990 H1003 0.961 . S
C990 H1004 0.961 . S
C991 C988 1.539 . S
C991 H1005 0.958 . S
C991 H1006 0.961 . S
C991 H1007 0.960 . S
H992 C976 0.931 . S
H993 C981 0.929 . S
H994 C982 0.960 . S
H995 C982 0.962 . S
H996 C982 0.960 . S
H997 C983 0.961 . S
H998 C983 0.961 . S
H999 C983 0.964 . S
H1000 C984 0.931 . S
H1001 C989 0.930 . S
H1002 C990 0.956 . S
H1003 C990 0.961 . S
H1004 C990 0.961 . S
H1005 C991 0.958 . S
H1006 C991 0.961 . S
H1007 C991 0.960 . S
C1008 C1009 1.391 . S
C1008 C1010 1.394 . S
C1008 H1024 0.931 . S
C1009 C1008 1.391 . S
C1009 C1013 1.376 . S
C1010 C1008 1.394 . S
C1010 C1011 1.369 . S
C1010 C1014 1.531 . S
C1011 C1010 1.369 . S
C1011 C1012 1.410 . S
C1011 C1019 1.503 . S
C1012 C1011 1.410 . S
C1012 C1013 1.392 . S
C1012 C1015 1.511 . S
C1013 C1009 1.376 . S
C1013 C1012 1.392 . S
C1013 H1025 0.929 . S
C1014 C1010 1.531 . S
C1014 H1026 0.960 . S
C1014 H1027 0.962 . S
C1014 H1028 0.960 . S
C1015 C1012 1.511 . S
C1015 H1029 0.961 . S
C1015 H1030 0.961 . S
C1015 H1031 0.961 . S
C1016 C1017 1.370 . S
C1016 C1018 1.363 . S
C1016 H1032 0.931 . S
C1017 C1016 1.370 . S
C1017 C1021 1.408 . S
C1018 C1016 1.363 . S
C1018 C1019 1.370 . S
C1018 C1022 1.524 . S
C1019 C1011 1.503 . S
C1019 C1018 1.370 . S
C1019 C1020 1.403 . S
C1020 C1019 1.403 . S
C1020 C1021 1.404 . S
C1020 C1023 1.539 . S
C1021 C1017 1.408 . S
C1021 C1020 1.404 . S
C1021 H1033 0.930 . S
C1022 C1018 1.524 . S
C1022 H1034 0.956 . S
C1022 H1035 0.961 . S
C1022 H1036 0.961 . S
C1023 C1020 1.539 . S
C1023 H1037 0.958 . S
C1023 H1038 0.961 . S
C1023 H1039 0.960 . S
H1024 C1008 0.931 . S
H1025 C1013 0.929 . S
H1026 C1014 0.960 . S
H1027 C1014 0.962 . S
H1028 C1014 0.960 . S
H1029 C1015 0.961 . S
H1030 C1015 0.961 . S
H1031 C1015 0.961 . S
H1032 C1016 0.931 . S
H1033 C1021 0.930 . S
H1034 C1022 0.956 . S
H1035 C1022 0.961 . S
H1036 C1022 0.961 . S
H1037 C1023 0.958 . S
H1038 C1023 0.961 . S
H1039 C1023 0.960 . S
C273 C6 2.404 . S
C281 C168 2.454 . S
C305 C21 1.623 . S
C313 N188 1.620 . S
C345 C222 1.392 . S
C337 C49 1.309 . S
C369 C68 1.030 . S
C377 N256 1.051 . S
C409 C209 3.057 . S
C401 C2 3.032 . S
C441 N166 0.934 . S
C433 C30 0.774 . S
C473 C243 1.728 . S
C465 C40 1.732 . S
C505 N218 0.915 . S
C497 C63 0.934 . S
C529 C11 1.633 . S
C537 C258 1.856 . S
C569 C192 1.824 . S
C561 C44 1.808 . S
C593 C59 0.955 . S
C601 C153 1.020 . S
C625 C25 1.709 . S
C633 C239 1.751 . S
C665 C179 2.636 . S
C657 C82 2.601 . S
C689 C101 1.312 . S
C697 N196 1.297 . S
C721 C125 1.726 . S
C729 C213 1.801 . S
C753 C144 0.927 . S
C761 N248 0.845 . S
C785 C87 1.840 . S
C793 C198 2.063 . S
C825 N158 1.747 . S
C817 C97 1.770 . S
C857 C252 1.750 . S
C849 C120 1.733 . S
C889 N226 0.978 . S
C881 C135 0.997 . S
C913 C78 2.158 . S
C921 C269 2.167 1_556 S
C953 C183 1.314 . S
C945 C116 1.277 . S
C985 C162 1.573 . S
C977 C139 1.535 . S
C1009 C106 1.338 . S
C1017 C228 1.455 . S
