# Generated by pormake.
# Topology eea, (3,6)-cn, num edge types: 1
# Building blocks:
#     Node 0, Type 0, BuildingBlock: BETDAH_clean_linker_0, # of connection points: 3
#     Node 1, Type 0, BuildingBlock: BETDAH_clean_linker_0, # of connection points: 3
#     Node 2, Type 0, BuildingBlock: BETDAH_clean_linker_0, # of connection points: 3
#     Node 3, Type 0, BuildingBlock: BETDAH_clean_linker_0, # of connection points: 3
#     Node 4, Type 0, BuildingBlock: BETDAH_clean_linker_0, # of connection points: 3
#     Node 5, Type 0, BuildingBlock: BETDAH_clean_linker_0, # of connection points: 3
#     Node 6, Type 0, BuildingBlock: BETDAH_clean_linker_0, # of connection points: 3
#     Node 7, Type 0, BuildingBlock: BETDAH_clean_linker_0, # of connection points: 3
#     Node 8, Type 0, BuildingBlock: BETDAH_clean_linker_0, # of connection points: 3
#     Node 9, Type 0, BuildingBlock: BETDAH_clean_linker_0, # of connection points: 3
#     Node 10, Type 0, BuildingBlock: BETDAH_clean_linker_0, # of connection points: 3
#     Node 11, Type 0, BuildingBlock: BETDAH_clean_linker_0, # of connection points: 3
#     Node 12, Type 0, BuildingBlock: BETDAH_clean_linker_0, # of connection points: 3
#     Node 13, Type 0, BuildingBlock: BETDAH_clean_linker_0, # of connection points: 3
#     Node 14, Type 0, BuildingBlock: BETDAH_clean_linker_0, # of connection points: 3
#     Node 15, Type 0, BuildingBlock: BETDAH_clean_linker_0, # of connection points: 3
#     Node 16, Type 0, BuildingBlock: BETDAH_clean_linker_0, # of connection points: 3
#     Node 17, Type 0, BuildingBlock: BETDAH_clean_linker_0, # of connection points: 3
#     Node 18, Type 1, BuildingBlock: NUHQIS_clean_sbu_0, # of connection points: 6
#     Node 19, Type 1, BuildingBlock: NUHQIS_clean_sbu_0, # of connection points: 6
#     Node 20, Type 1, BuildingBlock: NUHQIS_clean_sbu_0, # of connection points: 6
#     Node 21, Type 1, BuildingBlock: NUHQIS_clean_sbu_0, # of connection points: 6
#     Node 22, Type 1, BuildingBlock: NUHQIS_clean_sbu_0, # of connection points: 6
#     Node 23, Type 1, BuildingBlock: NUHQIS_clean_sbu_0, # of connection points: 6
#     Node 24, Type 1, BuildingBlock: NUHQIS_clean_sbu_0, # of connection points: 6
#     Node 25, Type 1, BuildingBlock: NUHQIS_clean_sbu_0, # of connection points: 6
#     Node 26, Type 1, BuildingBlock: NUHQIS_clean_sbu_0, # of connection points: 6
#     Edge 27, Type (0, 1), BuildingBlock: AJUNOK_clean_linker_0, # of connection points: 2
#     Edge 28, Type (0, 1), BuildingBlock: AJUNOK_clean_linker_0, # of connection points: 2
#     Edge 29, Type (0, 1), BuildingBlock: AJUNOK_clean_linker_0, # of connection points: 2
#     Edge 30, Type (0, 1), BuildingBlock: AJUNOK_clean_linker_0, # of connection points: 2
#     Edge 31, Type (0, 1), BuildingBlock: AJUNOK_clean_linker_0, # of connection points: 2
#     Edge 32, Type (0, 1), BuildingBlock: AJUNOK_clean_linker_0, # of connection points: 2
#     Edge 33, Type (0, 1), BuildingBlock: AJUNOK_clean_linker_0, # of connection points: 2
#     Edge 34, Type (0, 1), BuildingBlock: AJUNOK_clean_linker_0, # of connection points: 2
#     Edge 35, Type (0, 1), BuildingBlock: AJUNOK_clean_linker_0, # of connection points: 2
#     Edge 36, Type (0, 1), BuildingBlock: AJUNOK_clean_linker_0, # of connection points: 2
#     Edge 37, Type (0, 1), BuildingBlock: AJUNOK_clean_linker_0, # of connection points: 2
#     Edge 38, Type (0, 1), BuildingBlock: AJUNOK_clean_linker_0, # of connection points: 2
#     Edge 39, Type (0, 1), BuildingBlock: AJUNOK_clean_linker_0, # of connection points: 2
#     Edge 40, Type (0, 1), BuildingBlock: AJUNOK_clean_linker_0, # of connection points: 2
#     Edge 41, Type (0, 1), BuildingBlock: AJUNOK_clean_linker_0, # of connection points: 2
#     Edge 42, Type (0, 1), BuildingBlock: AJUNOK_clean_linker_0, # of connection points: 2
#     Edge 43, Type (0, 1), BuildingBlock: AJUNOK_clean_linker_0, # of connection points: 2
#     Edge 44, Type (0, 1), BuildingBlock: AJUNOK_clean_linker_0, # of connection points: 2
#     Edge 45, Type (0, 1), BuildingBlock: AJUNOK_clean_linker_0, # of connection points: 2
#     Edge 46, Type (0, 1), BuildingBlock: AJUNOK_clean_linker_0, # of connection points: 2
#     Edge 47, Type (0, 1), BuildingBlock: AJUNOK_clean_linker_0, # of connection points: 2
#     Edge 48, Type (0, 1), BuildingBlock: AJUNOK_clean_linker_0, # of connection points: 2
#     Edge 49, Type (0, 1), BuildingBlock: AJUNOK_clean_linker_0, # of connection points: 2
#     Edge 50, Type (0, 1), BuildingBlock: AJUNOK_clean_linker_0, # of connection points: 2
#     Edge 51, Type (0, 1), BuildingBlock: AJUNOK_clean_linker_0, # of connection points: 2
#     Edge 52, Type (0, 1), BuildingBlock: AJUNOK_clean_linker_0, # of connection points: 2
#     Edge 53, Type (0, 1), BuildingBlock: AJUNOK_clean_linker_0, # of connection points: 2
#     Edge 54, Type (0, 1), BuildingBlock: AJUNOK_clean_linker_0, # of connection points: 2
#     Edge 55, Type (0, 1), BuildingBlock: AJUNOK_clean_linker_0, # of connection points: 2
#     Edge 56, Type (0, 1), BuildingBlock: AJUNOK_clean_linker_0, # of connection points: 2
#     Edge 57, Type (0, 1), BuildingBlock: AJUNOK_clean_linker_0, # of connection points: 2
#     Edge 58, Type (0, 1), BuildingBlock: AJUNOK_clean_linker_0, # of connection points: 2
#     Edge 59, Type (0, 1), BuildingBlock: AJUNOK_clean_linker_0, # of connection points: 2
#     Edge 60, Type (0, 1), BuildingBlock: AJUNOK_clean_linker_0, # of connection points: 2
#     Edge 61, Type (0, 1), BuildingBlock: AJUNOK_clean_linker_0, # of connection points: 2
#     Edge 62, Type (0, 1), BuildingBlock: AJUNOK_clean_linker_0, # of connection points: 2
#     Edge 63, Type (0, 1), BuildingBlock: AJUNOK_clean_linker_0, # of connection points: 2
#     Edge 64, Type (0, 1), BuildingBlock: AJUNOK_clean_linker_0, # of connection points: 2
#     Edge 65, Type (0, 1), BuildingBlock: AJUNOK_clean_linker_0, # of connection points: 2
#     Edge 66, Type (0, 1), BuildingBlock: AJUNOK_clean_linker_0, # of connection points: 2
#     Edge 67, Type (0, 1), BuildingBlock: AJUNOK_clean_linker_0, # of connection points: 2
#     Edge 68, Type (0, 1), BuildingBlock: AJUNOK_clean_linker_0, # of connection points: 2
#     Edge 69, Type (0, 1), BuildingBlock: AJUNOK_clean_linker_0, # of connection points: 2
#     Edge 70, Type (0, 1), BuildingBlock: AJUNOK_clean_linker_0, # of connection points: 2
#     Edge 71, Type (0, 1), BuildingBlock: AJUNOK_clean_linker_0, # of connection points: 2
#     Edge 72, Type (0, 1), BuildingBlock: AJUNOK_clean_linker_0, # of connection points: 2
#     Edge 73, Type (0, 1), BuildingBlock: AJUNOK_clean_linker_0, # of connection points: 2
#     Edge 74, Type (0, 1), BuildingBlock: AJUNOK_clean_linker_0, # of connection points: 2
#     Edge 75, Type (0, 1), BuildingBlock: AJUNOK_clean_linker_0, # of connection points: 2
#     Edge 76, Type (0, 1), BuildingBlock: AJUNOK_clean_linker_0, # of connection points: 2
#     Edge 77, Type (0, 1), BuildingBlock: AJUNOK_clean_linker_0, # of connection points: 2
#     Edge 78, Type (0, 1), BuildingBlock: AJUNOK_clean_linker_0, # of connection points: 2
#     Edge 79, Type (0, 1), BuildingBlock: AJUNOK_clean_linker_0, # of connection points: 2
#     Edge 80, Type (0, 1), BuildingBlock: AJUNOK_clean_linker_0, # of connection points: 2
# Relax obj value: 0.059
# Max RMSD: 0.224
# Mean RMSD: 0.160
data_MOF--net-eea--node1-NUHQIS_clean_sbu_0--node2-BETDAH_clean_linker_0--edge1-AJUNOK_clean_linker_0
_symmetry_space_group_name_H-M    P1
_symmetry_Int_Tables_number       1
_symmetry_cell_setting            triclinic
loop_
_symmetry_equiv_pos_as_xyz
'x, y, z'
_cell_length_a     40.285844
_cell_length_b     40.264835
_cell_length_c     53.441193
_cell_angle_alpha  92.546402
_cell_angle_beta   93.041099
_cell_angle_gamma 120.02942
loop_
_atom_site_label
_atom_site_type_symbol
_atom_site_fract_x
_atom_site_fract_y
_atom_site_fract_z
_atom_type_partial_charge
H0 H 0.26819 0.07503 0.44441 0.0
H1 H 0.29627 0.19245 0.4371 0.0
H2 H 0.25939 0.11289 0.37175 0.0
C3 C 0.2704 0.09751 0.43298 0.0
C4 C 0.26023 0.08901 0.40696 0.0
C5 C 0.2842 0.13497 0.44418 0.0
C6 C 0.28654 0.16361 0.42894 0.0
C7 C 0.2779 0.15551 0.40283 0.0
C8 C 0.26522 0.11853 0.39199 0.0
N9 N 0.28457 0.18476 0.3868 0.0
C10 C 0.26975 0.20899 0.39002 0.0
H11 H 0.96825 0.21428 0.44334 0.0
H12 H 0.87505 0.09693 0.43354 0.0
H13 H 0.95975 0.13955 0.38 0.0
C14 C 0.95333 0.18664 0.43247 0.0
C15 C 0.96821 0.18098 0.41042 0.0
C16 C 0.91919 0.15673 0.44065 0.0
C17 C 0.9006 0.12046 0.42696 0.0
C18 C 0.91559 0.11434 0.40521 0.0
C19 C 0.949 0.14456 0.39709 0.0
N20 N 0.89829 0.07815 0.39104 0.0
C21 C 0.86218 0.04718 0.39416 0.0
H22 H 0.82348 0.76632 0.4604 0.0
H23 H 0.91664 0.74636 0.44606 0.0
H24 H 0.8656 0.77951 0.38708 0.0
C25 C 0.84365 0.76611 0.44785 0.0
C26 C 0.84187 0.77518 0.4229 0.0
C27 C 0.86995 0.75491 0.45636 0.0
C28 C 0.89625 0.75506 0.43994 0.0
C29 C 0.89485 0.76439 0.41508 0.0
C30 C 0.86755 0.77405 0.40664 0.0
N31 N 0.91647 0.75836 0.39732 0.0
C32 C 0.95607 0.78141 0.39726 0.0
H33 H 0.06492 0.25552 0.60175 0.0
H34 H 0.15164 0.22258 0.60718 0.0
H35 H 0.0606 0.17834 0.65625 0.0
C36 C 0.07692 0.23964 0.61054 0.0
C37 C 0.0591 0.21758 0.63057 0.0
C38 C 0.11027 0.24167 0.60182 0.0
C39 C 0.12647 0.22195 0.61393 0.0
C40 C 0.10861 0.19946 0.63381 0.0
C41 C 0.07481 0.19691 0.64156 0.0
N42 N 0.1221 0.17698 0.64562 0.0
C43 C 0.15992 0.18463 0.64774 0.0
H44 H 0.76415 0.81919 0.61295 0.0
H45 H 0.75741 0.92177 0.62688 0.0
H46 H 0.7943 0.87722 0.6871 0.0
C47 C 0.76801 0.84285 0.62563 0.0
C48 C 0.78084 0.84527 0.65097 0.0
C49 C 0.7595 0.87035 0.61669 0.0
C50 C 0.76413 0.9006 0.63351 0.0
C51 C 0.77684 0.90303 0.65894 0.0
C52 C 0.78499 0.87538 0.66742 0.0
N53 N 0.78085 0.93214 0.67682 0.0
C54 C 0.78254 0.96611 0.67091 0.0
H55 H 0.19998 0.95041 0.60473 0.0
H56 H 0.10192 0.8387 0.61292 0.0
H57 H 0.15807 0.91987 0.67733 0.0
C58 C 0.17876 0.93032 0.61629 0.0
C59 C 0.18169 0.94026 0.64217 0.0
C60 C 0.14994 0.89388 0.60543 0.0
C61 C 0.12368 0.86717 0.62087 0.0
C62 C 0.12686 0.8768 0.64685 0.0
C63 C 0.15587 0.91298 0.65725 0.0
N64 N 0.10413 0.84972 0.6636 0.0
C65 C 0.06471 0.82451 0.65977 0.0
H66 H 0.92711 0.3998 0.77444 0.0
H67 H 0.96081 0.5198 0.77662 0.0
H68 H 0.92989 0.45261 0.70579 0.0
C69 C 0.9321 0.42487 0.76486 0.0
C70 C 0.92667 0.42192 0.73851 0.0
C71 C 0.94488 0.46015 0.77885 0.0
C72 C 0.95023 0.49214 0.76622 0.0
C73 C 0.94448 0.48919 0.73992 0.0
C74 C 0.93296 0.45425 0.72616 0.0
N75 N 0.95429 0.5222 0.72696 0.0
C76 C 0.93174 0.53922 0.72656 0.0
H77 H 0.6228 0.54954 0.7796 0.0
H78 H 0.51119 0.44982 0.75845 0.0
H79 H 0.59705 0.49035 0.70585 0.0
C80 C 0.60309 0.52637 0.76592 0.0
C81 C 0.61496 0.52311 0.74202 0.0
C82 C 0.56559 0.50005 0.77212 0.0
C83 C 0.54025 0.46991 0.75418 0.0
C84 C 0.55175 0.46703 0.73021 0.0
C85 C 0.58868 0.49351 0.72435 0.0
N86 N 0.52645 0.43911 0.71094 0.0
C87 C 0.4978 0.40224 0.71491 0.0
H88 H 0.48927 0.09849 0.79133 0.0
H89 H 0.5838 0.07774 0.7935 0.0
H90 H 0.56848 0.13717 0.73327 0.0
C91 C 0.51495 0.10202 0.78339 0.0
C92 C 0.52603 0.12007 0.76079 0.0
C93 C 0.53557 0.08679 0.79537 0.0
C94 C 0.56763 0.08951 0.78452 0.0
C95 C 0.57967 0.10753 0.76231 0.0
C96 C 0.5592 0.12337 0.75051 0.0
N97 N 0.61021 0.1055 0.75159 0.0
C98 C 0.63755 0.13185 0.73704 0.0
H99 H 0.72328 0.59813 0.93073 0.0
H100 H 0.82921 0.59943 0.95025 0.0
H101 H 0.74225 0.56213 1.00204 0.0
C102 C 0.7406 0.59149 0.94345 0.0
C103 C 0.72717 0.57737 0.96665 0.0
C104 C 0.77706 0.59885 0.93703 0.0
C105 C 0.80069 0.59297 0.95454 0.0
C106 C 0.78807 0.58036 0.97811 0.0
C107 C 0.75155 0.57241 0.98386 0.0
N108 N 0.81261 0.57916 0.99754 0.0
C109 C 0.83629 0.56365 0.99474 0.0
H110 H 0.42543 0.14616 0.95225 0.0
H111 H 0.42475 0.2521 0.96501 0.0
H112 H 0.46983 0.21251 1.02373 0.0
C113 C 0.432 0.17122 0.96451 0.0
C114 C 0.44918 0.17604 0.98902 0.0
C115 C 0.42334 0.19863 0.95559 0.0
C116 C 0.4316 0.23101 0.97164 0.0
C117 C 0.44774 0.23539 0.99644 0.0
C118 C 0.45652 0.20812 1.00479 0.0
N119 N 0.45535 0.26644 1.01388 0.0
C120 C 0.45353 0.29877 1.00821 0.0
H121 H 0.85686 0.28323 0.93319 0.0
H122 H 0.77897 0.16173 0.93283 0.0
H123 H 0.79377 0.23613 0.99772 0.0
C124 C 0.83565 0.25905 0.94236 0.0
C125 C 0.82717 0.26482 0.96689 0.0
C126 C 0.81795 0.22215 0.92972 0.0
C127 C 0.79182 0.19055 0.94198 0.0
C128 C 0.78276 0.1955 0.96627 0.0
C129 C 0.80014 0.23263 0.97867 0.0
N130 N 0.76009 0.16224 0.97892 0.0
C131 C 0.72677 0.15471 0.98991 0.0
H132 H 0.5868 0.72594 0.10876 0.0
H133 H 0.63407 0.84887 0.11432 0.0
H134 H 0.5913 0.78425 0.04244 0.0
C135 C 0.59364 0.75225 0.10012 0.0
C136 C 0.58614 0.75095 0.07406 0.0
C137 C 0.61103 0.7875 0.11489 0.0
C138 C 0.6198 0.8213 0.10333 0.0
C139 C 0.61242 0.82001 0.0773 0.0
C140 C 0.59576 0.78491 0.06269 0.0
N141 N 0.62544 0.85447 0.06543 0.0
C142 C 0.60375 0.87236 0.06386 0.0
H143 H 0.29234 0.87184 0.11575 0.0
H144 H 0.20346 0.75247 0.11163 0.0
H145 H 0.29181 0.79023 0.06069 0.0
C146 C 0.27893 0.84287 0.10683 0.0
C147 C 0.29525 0.83526 0.08621 0.0
C148 C 0.24593 0.81313 0.11632 0.0
C149 C 0.22893 0.77554 0.10462 0.0
C150 C 0.24541 0.76751 0.08439 0.0
C151 C 0.2787 0.79718 0.07571 0.0
N152 N 0.23014 0.72977 0.07275 0.0
C153 C 0.19244 0.70007 0.0735 0.0
H154 H 0.14531 0.41858 0.11835 0.0
H155 H 0.26852 0.46793 0.12543 0.0
H156 H 0.21522 0.49916 0.06688 0.0
C157 C 0.17321 0.43682 0.11156 0.0
C158 C 0.17572 0.4573 0.09043 0.0
C159 C 0.20639 0.44072 0.12467 0.0
C160 C 0.24247 0.46355 0.11526 0.0
C161 C 0.24526 0.48372 0.09389 0.0
C162 C 0.21213 0.4812 0.0821 0.0
N163 N 0.28141 0.51147 0.08631 0.0
C164 C 0.30938 0.50344 0.07887 0.0
H165 H 0.39303 0.92363 0.27537 0.0
H166 H 0.47141 0.88057 0.27064 0.0
H167 H 0.38525 0.8372 0.32317 0.0
C168 C 0.40344 0.90507 0.28181 0.0
C169 C 0.38614 0.88151 0.30137 0.0
C170 C 0.43378 0.90447 0.27025 0.0
C171 C 0.44825 0.88152 0.27943 0.0
C172 C 0.43077 0.85757 0.29875 0.0
C173 C 0.39947 0.85713 0.30912 0.0
N174 N 0.44191 0.83134 0.30695 0.0
C175 C 0.47972 0.83946 0.30993 0.0
H176 H 0.09335 0.48283 0.28464 0.0
H177 H 0.06177 0.56919 0.29842 0.0
H178 H 0.11732 0.54219 0.35813 0.0
C179 C 0.09285 0.50436 0.29723 0.0
C180 C 0.10836 0.51042 0.32235 0.0
C181 C 0.07585 0.52528 0.28834 0.0
C182 C 0.07528 0.55324 0.30479 0.0
C183 C 0.08991 0.5588 0.33001 0.0
C184 C 0.10606 0.53734 0.33862 0.0
N185 N 0.08617 0.58362 0.34769 0.0
C186 C 0.09521 0.62083 0.34345 0.0
H187 H 0.53216 0.61437 0.26791 0.0
H188 H 0.45064 0.49427 0.27248 0.0
H189 H 0.48469 0.57321 0.338 0.0
C190 C 0.51276 0.59114 0.27861 0.0
C191 C 0.51057 0.59872 0.30426 0.0
C192 C 0.49142 0.55357 0.26693 0.0
C193 C 0.46709 0.52351 0.28108 0.0
C194 C 0.46407 0.53078 0.30647 0.0
C195 C 0.48571 0.56828 0.31803 0.0
N196 N 0.44288 0.4995 0.32095 0.0
C197 C 0.40745 0.49107 0.32889 0.0
Tb198 Tb 0.49436 0.99353 1.00824 0.0
Eu199 Eu 0.51835 0.02957 0.0682 0.0
C200 C 0.52944 0.96106 0.04737 0.0
C201 C 0.43622 0.95652 0.04983 0.0
C202 C 0.48312 0.986 0.93815 0.0
C203 C 0.46718 0.97945 0.89302 0.0
C204 C 0.46091 0.96364 0.91631 0.0
C205 C 0.51107 0.0247 0.93652 0.0
C206 C 0.51745 0.04053 0.91325 0.0
C207 C 0.49601 0.01789 0.89116 0.0
C208 C 0.47773 0.9684 0.96232 0.0
O209 O 0.47264 0.03272 1.01261 0.0
O210 O 0.51028 0.07282 0.04732 0.0
O211 O 0.57277 0.05744 0.04829 0.0
O212 O 0.54618 0.04975 1.00779 0.0
C213 C 0.48746 0.0652 0.02674 0.0
O214 O 0.50811 0.05362 0.10242 0.0
O215 O 0.55544 0.04256 0.10282 0.0
O216 O 0.51636 0.97273 0.06566 0.0
O217 O 0.53026 0.97282 1.0248 0.0
O218 O 0.45036 0.95017 0.02967 0.0
O219 O 0.45471 0.98896 0.06404 0.0
C220 C 0.57594 0.0661 1.02475 0.0
O221 O 0.50903 0.97525 0.9754 0.0
O222 O 0.45398 0.97163 0.97647 0.0
C223 C 0.521 0.02968 0.13882 0.0
C224 C 0.49346 0.98863 0.18168 0.0
C225 C 0.51869 0.02871 0.18418 0.0
C226 C 0.53223 0.04909 0.16289 0.0
C227 C 0.49652 0.98958 0.13628 0.0
C228 C 0.48288 0.96924 0.1575 0.0
C229 C 0.53425 0.05108 0.11632 0.0
H230 H 0.44956 0.96154 0.87645 0.0
H231 H 0.43899 0.93379 0.91721 0.0
H232 H 0.52837 0.04242 0.9532 0.0
H233 H 0.53982 0.07022 0.91244 0.0
H234 H 0.5273 0.04436 0.20257 0.0
H235 H 0.55118 0.08002 0.16521 0.0
H236 H 0.48781 0.97404 0.11784 0.0
H237 H 0.46411 0.9383 0.15501 0.0
Tb238 Tb 0.00782 0.49595 1.00643 0.0
Eu239 Eu 0.97604 0.47999 0.06352 0.0
C240 C 0.04832 0.55875 0.05162 0.0
C241 C 0.04499 0.4677 0.0485 0.0
C242 C 0.01905 0.50061 0.93729 0.0
C243 C 0.03179 0.50357 0.89338 0.0
C244 C 0.0451 0.51166 0.91879 0.0
C245 C 0.97936 0.48143 0.93015 0.0
C246 C 0.96597 0.47335 0.90464 0.0
C247 C 0.99211 0.48411 0.88603 0.0
C248 C 0.03404 0.50988 0.96382 0.0
O249 O 0.96325 0.43551 1.00294 0.0
O250 O 0.93068 0.42897 0.03854 0.0
O251 O 0.94929 0.5098 0.04331 0.0
O252 O 0.9537 0.49554 1.0019 0.0
C253 C 0.93383 0.4161 1.01625 0.0
O254 O 0.95295 0.44504 0.09512 0.0
O255 O 0.96397 0.50366 0.09709 0.0
O256 O 0.03559 0.53212 0.06757 0.0
O257 O 0.03287 0.5512 0.02837 0.0
O258 O 0.05016 0.4892 0.0296 0.0
O259 O 0.01454 0.45502 0.0612 0.0
C260 C 0.93882 0.5069 1.01924 0.0
O261 O 0.02522 0.53203 0.97688 0.0
O262 O 0.03059 0.48129 0.97619 0.0
C263 C 0.97352 0.48075 0.13521 0.0
C264 C 0.00764 0.49546 0.18497 0.0
C265 C 0.01167 0.47072 0.16761 0.0
C266 C 0.99488 0.46351 0.14292 0.0
C267 C 0.96976 0.50568 0.15254 0.0
C268 C 0.98685 0.51316 0.17715 0.0
C269 C 0.95505 0.47338 0.10934 0.0
H270 H 0.05257 0.5129 0.87943 0.0
H271 H 0.07583 0.52673 0.92401 0.0
H272 H 0.95888 0.47281 0.94427 0.0
H273 H 0.93526 0.45837 0.89943 0.0
H274 H 0.02802 0.45714 0.17312 0.0
H275 H 0.99863 0.44446 0.12993 0.0
H276 H 0.95347 0.51934 0.14703 0.0
H277 H 0.98328 0.53227 0.19021 0.0
Tb278 Tb 0.52768 0.53108 0.04379 0.0
Eu279 Eu 0.49098 0.5272 0.98585 0.0
C280 C 0.48317 0.45386 1.01036 0.0
C281 C 0.57692 0.54096 0.99777 0.0
C282 C 0.541 0.53267 0.11387 0.0
C283 C 0.5542 0.5338 0.15885 0.0
C284 C 0.56498 0.5342 0.13439 0.0
C285 C 0.50554 0.52975 0.11803 0.0
C286 C 0.49477 0.52949 0.14253 0.0
C287 C 0.51916 0.53184 0.16321 0.0
C288 C 0.55498 0.5377 0.08867 0.0
O289 O 0.55505 0.58739 0.02945 0.0
O290 O 0.50262 0.58182 1.00759 0.0
O291 O 0.44096 0.50622 1.01015 0.0
O292 O 0.4751 0.53242 0.04877 0.0
C293 C 0.5349 0.60279 1.02171 0.0
O294 O 0.49213 0.557 0.95249 0.0
O295 O 0.45169 0.49588 0.9525 0.0
O296 O 0.49303 0.47303 0.99027 0.0
O297 O 0.48579 0.47124 0.03235 0.0
O298 O 0.56881 0.52845 1.02024 0.0
O299 O 0.55392 0.54777 0.98331 0.0
C300 C 0.44257 0.51593 0.03428 0.0
O301 O 0.54247 0.50678 0.07349 0.0
O302 O 0.55482 0.56554 0.07728 0.0
C303 C 0.47971 0.51925 0.91451 0.0
C304 C 0.50787 0.51288 0.86822 0.0
C305 C 0.48584 0.53098 0.87028 0.0
C306 C 0.47203 0.53424 0.89322 0.0
C307 C 0.50097 0.50041 0.91245 0.0
C308 C 0.51472 0.49706 0.88948 0.0
C309 C 0.46744 0.52542 0.93899 0.0
H310 H 0.57393 0.53644 0.17443 0.0
H311 H 0.59263 0.53688 0.13154 0.0
H312 H 0.48671 0.52871 0.10239 0.0
H313 H 0.46763 0.52796 0.14537 0.0
H314 H 0.47922 0.54261 0.85412 0.0
H315 H 0.45569 0.54888 0.89442 0.0
H316 H 0.50737 0.48876 0.9287 0.0
H317 H 0.53144 0.48282 0.88846 0.0
Tb318 Tb 0.17296 0.34171 0.33843 0.0
Eu319 Eu 0.19122 0.37304 0.39928 0.0
C320 C 0.20513 0.30715 0.37774 0.0
C321 C 0.11058 0.30261 0.37657 0.0
C322 C 0.17049 0.33975 0.26805 0.0
C323 C 0.21571 0.37843 0.23826 0.0
C324 C 0.20847 0.36183 0.2613 0.0
C325 C 0.14007 0.33485 0.25125 0.0
C326 C 0.14734 0.35162 0.22829 0.0
C327 C 0.1852 0.37335 0.22144 0.0
C328 C 0.16207 0.32059 0.29193 0.0
O329 O 0.15055 0.38037 0.34292 0.0
O330 O 0.18469 0.41789 0.37942 0.0
O331 O 0.24743 0.4024 0.38133 0.0
O332 O 0.22402 0.39843 0.34055 0.0
C333 C 0.16342 0.4115 0.35825 0.0
O334 O 0.17625 0.39143 0.43391 0.0
O335 O 0.2269 0.3858 0.43454 0.0
O336 O 0.18932 0.31623 0.39559 0.0
O337 O 0.20885 0.32181 0.35595 0.0
O338 O 0.12773 0.29648 0.35809 0.0
O339 O 0.12749 0.33479 0.39105 0.0
C340 C 0.25268 0.41268 0.35818 0.0
O341 O 0.19138 0.32552 0.30653 0.0
O342 O 0.13634 0.32241 0.30482 0.0
C343 C 0.19167 0.36887 0.47027 0.0
C344 C 0.16879 0.32674 0.51322 0.0
C345 C 0.19162 0.36715 0.51572 0.0
C346 C 0.20299 0.38799 0.49442 0.0
C347 C 0.16897 0.32855 0.46764 0.0
C348 C 0.15756 0.30769 0.48891 0.0
C349 C 0.20354 0.39104 0.44794 0.0
H350 H 0.24522 0.39559 0.23371 0.0
H351 H 0.23268 0.36626 0.27376 0.0
H352 H 0.11054 0.3178 0.25581 0.0
H353 H 0.12323 0.34715 0.2157 0.0
H354 H 0.20005 0.38274 0.53412 0.0
H355 H 0.2204 0.4191 0.49682 0.0
H356 H 0.15997 0.31325 0.44912 0.0
H357 H 0.14001 0.27661 0.48637 0.0
Tb358 Tb 0.68976 0.83189 0.33909 0.0
Eu359 Eu 0.65455 0.82142 0.39426 0.0
C360 C 0.72405 0.9 0.38057 0.0
C361 C 0.72534 0.80946 0.38393 0.0
C362 C 0.69866 0.82803 0.27038 0.0
C363 C 0.70661 0.82626 0.22578 0.0
C364 C 0.72253 0.83614 0.25072 0.0
C365 C 0.65861 0.80942 0.26493 0.0
C366 C 0.64266 0.79979 0.23997 0.0
C367 C 0.66656 0.80819 0.22018 0.0
C368 C 0.71587 0.84061 0.29639 0.0
O369 O 0.65191 0.77032 0.34089 0.0
O370 O 0.6107 0.76924 0.36937 0.0
O371 O 0.62622 0.84633 0.37 0.0
O372 O 0.63288 0.82443 0.33133 0.0
C373 C 0.61888 0.75246 0.35098 0.0
O374 O 0.63138 0.78825 0.42664 0.0
O375 O 0.63989 0.84577 0.42615 0.0
O376 O 0.71268 0.87546 0.39787 0.0
O377 O 0.70951 0.8888 0.3572 0.0
O378 O 0.73303 0.83231 0.36561 0.0
O379 O 0.69262 0.79555 0.3942 0.0
C380 C 0.61621 0.83798 0.34572 0.0
O381 O 0.70838 0.86482 0.30811 0.0
O382 O 0.71244 0.81368 0.31049 0.0
C383 C 0.65163 0.82656 0.46511 0.0
C384 C 0.68918 0.84378 0.51402 0.0
C385 C 0.6493 0.818 0.50982 0.0
C386 C 0.63072 0.80945 0.48557 0.0
C387 C 0.69139 0.85246 0.46919 0.0
C388 C 0.70996 0.86118 0.49345 0.0
C389 C 0.63196 0.81681 0.43959 0.0
H390 H 0.72568 0.83362 0.21084 0.0
H391 H 0.75351 0.85068 0.25463 0.0
H392 H 0.63983 0.80283 0.27997 0.0
H393 H 0.61172 0.78587 0.2361 0.0
H394 H 0.63257 0.80402 0.52527 0.0
H395 H 0.60004 0.78929 0.48275 0.0
H396 H 0.70807 0.86597 0.45361 0.0
H397 H 0.74053 0.88175 0.49612 0.0
Tb398 Tb 0.19519 0.86035 0.38469 0.0
Eu399 Eu 0.16627 0.86029 0.32513 0.0
C400 C 0.15114 0.78415 0.35015 0.0
C401 C 0.24866 0.8691 0.34121 0.0
C402 C 0.19905 0.86011 0.45483 0.0
C403 C 0.20484 0.85791 0.50016 0.0
C404 C 0.21807 0.85707 0.47657 0.0
C405 C 0.16557 0.86234 0.45686 0.0
C406 C 0.15238 0.8633 0.48047 0.0
C407 C 0.17248 0.8621 0.50243 0.0
C408 C 0.2166 0.86495 0.43075 0.0
O409 O 0.22566 0.91736 0.37172 0.0
O410 O 0.17701 0.91461 0.34691 0.0
O411 O 0.11352 0.83998 0.34596 0.0
O412 O 0.14104 0.86016 0.38685 0.0
C413 C 0.20752 0.93419 0.36286 0.0
O414 O 0.17336 0.89141 0.29159 0.0
O415 O 0.12944 0.83126 0.29049 0.0
O416 O 0.16333 0.80352 0.33024 0.0
O417 O 0.15263 0.8016 0.37183 0.0
O418 O 0.23703 0.85492 0.36293 0.0
O419 O 0.229 0.87958 0.32649 0.0
C420 C 0.11124 0.84653 0.36995 0.0
O421 O 0.20483 0.83421 0.41551 0.0
O422 O 0.21979 0.89378 0.41882 0.0
C423 C 0.16131 0.85339 0.25377 0.0
C424 C 0.18807 0.84115 0.20837 0.0
C425 C 0.15809 0.8496 0.20809 0.0
C426 C 0.145 0.85587 0.23061 0.0
C427 C 0.19067 0.84426 0.25416 0.0
C428 C 0.20401 0.83831 0.2317 0.0
C429 C 0.14811 0.86085 0.27744 0.0
H430 H 0.22097 0.85703 0.51675 0.0
H431 H 0.24403 0.85549 0.47541 0.0
H432 H 0.15043 0.86471 0.44031 0.0
H433 H 0.12699 0.86588 0.48161 0.0
H434 H 0.14445 0.85097 0.19046 0.0
H435 H 0.1221 0.86261 0.22994 0.0
H436 H 0.20332 0.84187 0.27189 0.0
H437 H 0.22711 0.83187 0.23261 0.0
Tb438 Tb 0.82448 0.66144 0.66885 0.0
Eu439 Eu 0.85141 0.69932 0.72801 0.0
C440 C 0.85626 0.62639 0.70894 0.0
C441 C 0.76692 0.62752 0.7109 0.0
C442 C 0.81848 0.65523 0.59905 0.0
C443 C 0.80913 0.65113 0.55353 0.0
C444 C 0.79858 0.63436 0.57629 0.0
C445 C 0.84883 0.6933 0.59885 0.0
C446 C 0.85952 0.71007 0.57609 0.0
C447 C 0.84003 0.68901 0.55315 0.0
C448 C 0.80776 0.63695 0.62282 0.0
O449 O 0.80073 0.69849 0.67542 0.0
O450 O 0.84568 0.74258 0.70545 0.0
O451 O 0.90471 0.71941 0.70758 0.0
O452 O 0.8781 0.71599 0.66793 0.0
C453 C 0.81831 0.73285 0.68734 0.0
O454 O 0.84313 0.72664 0.76149 0.0
O455 O 0.89021 0.71514 0.76205 0.0
O456 O 0.84612 0.64108 0.72733 0.0
O457 O 0.85625 0.63654 0.68593 0.0
O458 O 0.77866 0.61999 0.68996 0.0
O459 O 0.78775 0.65916 0.72563 0.0
C460 C 0.90834 0.72838 0.68417 0.0
O461 O 0.83555 0.63767 0.63683 0.0
O462 O 0.78669 0.64577 0.63609 0.0
C463 C 0.85789 0.70609 0.79885 0.0
C464 C 0.83224 0.66935 0.84344 0.0
C465 C 0.84938 0.70958 0.84338 0.0
C466 C 0.86205 0.72777 0.82126 0.0
C467 C 0.84114 0.66599 0.79887 0.0
C468 C 0.82871 0.64782 0.82098 0.0
C469 C 0.86986 0.72505 0.77538 0.0
H470 H 0.79284 0.63455 0.53624 0.0
H471 H 0.77489 0.60505 0.57611 0.0
H472 H 0.86437 0.7099 0.61627 0.0
H473 H 0.88331 0.73933 0.57639 0.0
H474 H 0.85238 0.72692 0.86037 0.0
H475 H 0.87474 0.75872 0.82158 0.0
H476 H 0.83752 0.6487 0.78172 0.0
H477 H 0.81646 0.61693 0.8205 0.0
Tb478 Tb 0.36443 0.16227 0.67035 0.0
Eu479 Eu 0.33744 0.16138 0.7283 0.0
C480 C 0.39673 0.23819 0.70577 0.0
C481 C 0.41154 0.15355 0.7165 0.0
C482 C 0.36803 0.16166 0.60021 0.0
C483 C 0.37923 0.16982 0.55612 0.0
C484 C 0.39274 0.17082 0.58095 0.0
C485 C 0.32976 0.15212 0.5944 0.0
C486 C 0.31632 0.15163 0.56963 0.0
C487 C 0.34081 0.16021 0.55013 0.0
C488 C 0.38162 0.15892 0.62574 0.0
O489 O 0.33474 0.10379 0.68145 0.0
O490 O 0.29184 0.10857 0.70492 0.0
O491 O 0.30494 0.18259 0.70467 0.0
O492 O 0.30995 0.16196 0.66481 0.0
C493 C 0.30053 0.08843 0.68959 0.0
O494 O 0.31445 0.12965 0.76115 0.0
O495 O 0.32753 0.18886 0.76092 0.0
O496 O 0.39079 0.2184 0.72555 0.0
O497 O 0.38161 0.22115 0.6832 0.0
O498 O 0.41238 0.16664 0.69425 0.0
O499 O 0.38285 0.1443 0.73063 0.0
C500 C 0.29434 0.17551 0.68038 0.0
O501 O 0.39842 0.1902 0.64089 0.0
O502 O 0.35761 0.12934 0.63705 0.0
C503 C 0.33263 0.16641 0.80032 0.0
C504 C 0.36174 0.17812 0.85113 0.0
C505 C 0.32253 0.16476 0.84476 0.0
C506 C 0.30813 0.1589 0.81959 0.0
C507 C 0.37194 0.18037 0.8065 0.0
C508 C 0.38643 0.18632 0.83175 0.0
C509 C 0.31636 0.15899 0.77401 0.0
H510 H 0.39856 0.17525 0.54152 0.0
H511 H 0.42219 0.17754 0.585 0.0
H512 H 0.31004 0.14393 0.60891 0.0
H513 H 0.28656 0.14388 0.56566 0.0
H514 H 0.30298 0.15892 0.85928 0.0
H515 H 0.27775 0.14831 0.81516 0.0
H516 H 0.39128 0.18634 0.79182 0.0
H517 H 0.41676 0.19663 0.83613 0.0
Tb518 Tb 0.86416 0.19865 0.70694 0.0
Eu519 Eu 0.83669 0.20154 0.64806 0.0
C520 C 0.8203 0.12389 0.67118 0.0
C521 C 0.91751 0.20522 0.66375 0.0
C522 C 0.87123 0.19814 0.77759 0.0
C523 C 0.8781 0.18948 0.82189 0.0
C524 C 0.88807 0.18826 0.79733 0.0
C525 C 0.843 0.20773 0.78253 0.0
C526 C 0.83311 0.20909 0.80713 0.0
C527 C 0.85133 0.20098 0.82717 0.0
C528 C 0.88621 0.20192 0.75268 0.0
O529 O 0.89783 0.25525 0.69388 0.0
O530 O 0.85038 0.2564 0.67046 0.0
O531 O 0.78341 0.18086 0.66901 0.0
O532 O 0.81239 0.20295 0.70924 0.0
C533 C 0.88149 0.27428 0.68601 0.0
O534 O 0.84599 0.23413 0.61505 0.0
O535 O 0.79917 0.17504 0.61341 0.0
O536 O 0.83294 0.14434 0.65181 0.0
O537 O 0.8212 0.14018 0.69323 0.0
O538 O 0.90543 0.19194 0.68557 0.0
O539 O 0.89852 0.21591 0.64848 0.0
C540 C 0.78178 0.18867 0.69296 0.0
O541 O 0.87213 0.17091 0.73739 0.0
O542 O 0.89024 0.23134 0.74111 0.0
C543 C 0.83256 0.19611 0.57713 0.0
C544 C 0.85923 0.18235 0.53222 0.0
C545 C 0.83697 0.20037 0.5321 0.0
C546 C 0.8237 0.20712 0.55438 0.0
C547 C 0.85493 0.17832 0.5774 0.0
C548 C 0.86818 0.17153 0.55515 0.0
C549 C 0.81972 0.2045 0.60065 0.0
H550 H 0.89186 0.18207 0.83683 0.0
H551 H 0.90983 0.18069 0.79388 0.0
H552 H 0.82961 0.21544 0.76754 0.0
H553 H 0.81229 0.21791 0.81062 0.0
H554 H 0.83035 0.20985 0.51486 0.0
H555 H 0.80685 0.22129 0.55388 0.0
H556 H 0.8623 0.16986 0.59487 0.0
H557 H 0.88525 0.15761 0.55584 0.0
C558 C 0.36127 0.89398 0.09299 0.0
C559 C 0.33044 0.86661 0.07626 0.0
C560 C 0.39509 0.92298 0.08418 0.0
C561 C 0.39981 0.92555 0.05827 0.0
H562 H 0.35963 0.89266 0.11312 0.0
H563 H 0.41803 0.94316 0.09786 0.0
S564 S 0.32695 0.86317 1.00648 0.0
N565 N 0.30599 0.84586 0.03233 0.0
N566 N 0.3703 0.89945 1.01594 0.0
C567 C 0.36927 0.8987 0.04129 0.0
C568 C 0.33445 0.86951 0.05023 0.0
C569 C 0.11478 0.45903 0.09433 0.0
C570 C 0.14095 0.45688 0.07881 0.0
C571 C 0.08322 0.46124 0.08422 0.0
C572 C 0.07679 0.46206 0.05819 0.0
H573 H 0.11927 0.4602 0.11459 0.0
H574 H 0.06449 0.46373 0.09706 0.0
S575 S 0.13432 0.45362 1.00905 0.0
N576 N 0.15621 0.45245 0.03574 0.0
N577 N 0.0977 0.45834 1.0169 0.0
C578 C 0.10211 0.45917 0.04234 0.0
C579 C 0.13396 0.45618 0.0526 0.0
C580 C 0.5988 0.70384 0.05157 0.0
C581 C 0.57226 0.71469 0.05848 0.0
C582 C 0.58641 0.66818 0.0385 0.0
C583 C 0.54706 0.64228 0.03179 0.0
H584 H 0.62927 0.7227 0.05688 0.0
H585 H 0.60775 0.66042 0.03416 0.0
S586 S 0.46632 0.65773 0.04571 0.0
N587 N 0.50529 0.6976 0.0577 0.0
N588 N 0.48165 0.63024 0.03297 0.0
C589 C 0.5203 0.65337 0.03801 0.0
C590 C 0.53301 0.6897 0.05148 0.0
C591 C 0.86542 0.30828 1.00561 0.0
C592 C 0.84947 0.3039 0.98069 0.0
C593 C 0.89135 0.34489 1.01763 0.0
C594 C 0.90272 0.37829 1.00498 0.0
H595 H 0.85931 0.28322 1.01553 0.0
H596 H 0.90403 0.34692 0.03643 0.0
S597 S 0.86534 0.38361 0.94136 0.0
N598 N 0.84329 0.33712 0.94529 0.0
N599 N 0.89356 0.4054 0.96741 0.0
C600 C 0.88571 0.37461 0.98067 0.0
C601 C 0.85869 0.33758 0.96865 0.0
C602 C 0.68386 0.57858 0.99839 0.0
C603 C 0.68841 0.56885 0.97362 0.0
C604 C 0.64762 0.56891 1.00605 0.0
C605 C 0.61453 0.55003 0.98913 0.0
H606 H 0.70855 0.59391 1.01206 0.0
H607 H 0.64559 0.5769 0.02531 0.0
S608 S 0.60987 0.5174 0.92244 0.0
N609 N 0.65588 0.53786 0.93243 0.0
N610 N 0.58807 0.52174 0.94663 0.0
C611 C 0.61845 0.54071 0.96425 0.0
C612 C 0.65529 0.54969 0.95653 0.0
C613 C 0.45281 0.13666 1.02317 0.0
C614 C 0.45967 0.14795 0.99844 0.0
C615 C 0.46306 0.1108 0.0327 0.0
C616 C 0.47972 0.09475 1.01763 0.0
H617 H 0.43894 0.14749 0.0352 0.0
H618 H 0.45688 0.10247 0.05165 0.0
S619 S 0.5065 0.11637 0.95258 0.0
N620 N 0.4872 0.14289 0.95995 0.0
N621 N 0.50415 0.09257 0.97742 0.0
C622 C 0.48704 0.10581 0.99307 0.0
C623 C 0.47752 0.13277 0.98355 0.0
C624 C 0.68487 0.12344 1.02357 0.0
C625 C 0.68968 0.13853 1.00002 0.0
C626 C 0.64804 0.10151 0.0319 0.0
C627 C 0.61467 0.09353 1.01681 0.0
H628 H 0.70959 0.12728 0.03521 0.0
H629 H 0.64573 0.08935 0.04984 0.0
S630 S 0.61295 0.12999 0.95433 0.0
N631 N 0.65905 0.14649 0.96234 0.0
N632 N 0.58979 0.10571 0.97786 0.0
C633 C 0.61957 0.1102 0.99363 0.0
C634 C 0.65711 0.13256 0.98525 0.0
C635 C 0.88682 0.54915 0.98283 0.0
C636 C 0.85956 0.54621 0.99923 0.0
C637 C 0.9116 0.53494 0.98889 0.0
C638 C 0.9101 0.51806 1.01169 0.0
H639 H 0.88956 0.56317 0.9656 0.0
H640 H 0.93295 0.53848 0.97612 0.0
S641 S 0.8412 0.50125 0.05971 0.0
N642 N 0.83061 0.52335 0.03811 0.0
N643 N 0.87709 0.49703 0.04969 0.0
C644 C 0.88193 0.51402 0.02771 0.0
C645 C 0.85667 0.52806 1.02141 0.0
C646 C 0.47377 0.35867 0.98757 0.0
C647 C 0.45554 0.3353 1.00686 0.0
C648 C 0.48118 0.39667 0.98829 0.0
C649 C 0.47102 0.41247 1.00852 0.0
H650 H 0.48354 0.34799 0.97233 0.0
H651 H 0.49641 0.4142 0.97342 0.0
S652 S 0.41958 0.3609 0.06253 0.0
N653 N 0.42524 0.32893 0.04573 0.0
N654 N 0.43906 0.40029 0.04733 0.0
C655 C 0.45127 0.3885 0.02738 0.0
C656 C 0.44357 0.34985 0.02648 0.0
C657 C 0.1438 0.63592 0.08503 0.0
C658 C 0.154 0.66713 0.07037 0.0
C659 C 0.10856 0.60144 0.07962 0.0
C660 C 0.08269 0.59703 0.05916 0.0
H661 H 0.16372 0.63764 0.10018 0.0
H662 H 0.10241 0.57758 0.09084 0.0
S663 S 0.09552 0.67231 1.01656 0.0
N664 N 0.1352 0.69295 0.03584 0.0
N665 N 0.06902 0.62843 0.02545 0.0
C666 C 0.09219 0.62894 0.04509 0.0
C667 C 0.1279 0.66397 0.05075 0.0
C668 C 0.37827 0.52413 0.08101 0.0
C669 C 0.3413 0.50213 0.06865 0.0
C670 C 0.41059 0.52782 0.06986 0.0
C671 C 0.40719 0.50986 0.04579 0.0
H672 H 0.38242 0.53951 0.09913 0.0
H673 H 0.43856 0.54578 0.08004 0.0
S674 S 0.31554 0.44749 1.00634 0.0
N675 N 0.30231 0.46116 0.03171 0.0
N676 N 0.36284 0.4677 1.01058 0.0
C677 C 0.36993 0.48696 0.03355 0.0
C678 C 0.33703 0.48321 0.04503 0.0
C679 C 0.57688 0.90136 0.03613 0.0
C680 C 0.58274 0.89225 0.06031 0.0
C681 C 0.5587 0.92277 0.03214 0.0
C682 C 0.5458 0.9359 0.05227 0.0
H683 H 0.58698 0.89243 1.02021 0.0
H684 H 0.55536 0.92954 1.01312 0.0
S685 S 0.55344 0.91756 0.11932 0.0
N686 N 0.57369 0.89624 0.10459 0.0
N687 N 0.53933 0.93663 0.09741 0.0
C688 C 0.55081 0.92594 0.0766 0.0
C689 C 0.56941 0.90409 0.08056 0.0
C690 C 0.03172 0.20468 0.39199 0.0
C691 C 1.00392 0.21253 0.40117 0.0
C692 C 0.06544 0.23361 0.38299 0.0
C693 C 0.07298 0.27164 0.38321 0.0
H694 H 0.02778 0.17604 0.39218 0.0
H695 H 0.08637 0.22643 0.37667 0.0
S696 S 0.00864 0.30711 0.40311 0.0
N697 N 0.98526 0.26092 0.4079 0.0
N698 N 0.04945 0.31553 0.3921 0.0
C699 C 0.04538 0.27991 0.39193 0.0
C700 C 0.01071 0.25035 0.40066 0.0
C701 C 0.82156 0.81542 0.39919 0.0
C702 C 0.81173 0.78354 0.41329 0.0
C703 C 0.79347 0.82349 0.38961 0.0
C704 C 0.75448 0.80002 0.39383 0.0
H705 H 0.85128 0.83448 0.39572 0.0
H706 H 0.8025 0.84858 0.37909 0.0
S707 S 0.71335 0.71115 0.4278 0.0
N708 N 0.76 0.727 0.42961 0.0
N709 N 0.70732 0.74237 0.41207 0.0
C710 C 0.74423 0.76774 0.40764 0.0
C711 C 0.7728 0.75946 0.41725 0.0
C712 C 0.26713 0.03117 0.39999 0.0
C713 C 0.24619 0.04977 0.39513 0.0
C714 C 0.2548 0.9943 0.38888 0.0
C715 C 0.22085 0.97438 0.37251 0.0
H716 H 0.29349 0.04536 0.41237 0.0
H717 H 0.27199 0.98127 0.39341 0.0
S718 S 0.15522 0.01053 0.35417 0.0
N719 N 0.18973 0.04578 0.37319 0.0
N720 N 0.16637 0.97628 0.3522 0.0
C721 C 0.19973 0.99283 0.36738 0.0
C722 C 0.2124 0.03054 0.3787 0.0
C723 C 0.57655 0.65578 0.31338 0.0
C724 C 0.53715 0.6376 0.31699 0.0
C725 C 0.60256 0.69245 0.32483 0.0
C726 C 0.59039 0.71265 0.3405 0.0
H727 H 0.58751 0.64142 0.30165 0.0
H728 H 0.63254 0.70502 0.32127 0.0
S729 S 0.48988 0.67796 0.35567 0.0
N730 N 0.48689 0.6425 0.33709 0.0
N731 N 0.53585 0.7116 0.35883 0.0
C732 C 0.55103 0.69466 0.3445 0.0
C733 C 0.52443 0.65713 0.33273 0.0
C734 C 0.32234 0.87802 0.29654 0.0
C735 C 0.35233 0.88009 0.31243 0.0
C736 C 0.28928 0.87468 0.30616 0.0
C737 C 0.28445 0.8728 0.33209 0.0
H738 H 0.32399 0.87819 0.27637 0.0
H739 H 0.26707 0.87302 0.29298 0.0
S740 S 0.35582 0.88006 0.38204 0.0
N741 N 0.37629 0.88259 0.35568 0.0
N742 N 0.31343 0.87515 0.37368 0.0
C743 C 0.31438 0.8753 0.3483 0.0
C744 C 0.34843 0.87922 0.33851 0.0
C745 C 0.11671 0.47252 0.35573 0.0
C746 C 0.12534 0.48755 0.33204 0.0
C747 C 0.1309 0.4495 0.36489 0.0
C748 C 0.15365 0.44025 0.35048 0.0
H749 H 0.09785 0.47755 0.36701 0.0
H750 H 0.12264 0.43749 0.38279 0.0
S751 S 0.18779 0.47462 0.28863 0.0
N752 N 0.16138 0.49404 0.29557 0.0
N753 N 0.18611 0.44898 0.31231 0.0
C754 C 0.16335 0.45564 0.32718 0.0
C755 C 0.14964 0.47971 0.31805 0.0
C756 C 0.36191 0.46659 0.36142 0.0
C757 C 0.36933 0.47708 0.33681 0.0
C758 C 0.32415 0.44759 0.36855 0.0
C759 C 0.29249 0.43817 0.3512 0.0
H760 H 0.38529 0.4718 0.37502 0.0
H761 H 0.31978 0.43883 0.38753 0.0
S762 S 0.29808 0.46306 0.28475 0.0
N763 N 0.34325 0.47942 0.29545 0.0
N764 N 0.27212 0.44395 0.30856 0.0
C765 C 0.30008 0.45043 0.32674 0.0
C766 C 0.33859 0.46978 0.31959 0.0
C767 C 0.53587 0.86146 0.3403 0.0
C768 C 0.5167 0.84347 0.31674 0.0
C769 C 0.56876 0.86056 0.34917 0.0
C770 C 0.5835 0.84147 0.33477 0.0
H771 H 0.52466 0.87523 0.35233 0.0
H772 H 0.58214 0.87419 0.36772 0.0
S773 S 0.54349 0.79102 0.27108 0.0
N774 N 0.51459 0.80717 0.27871 0.0
N775 N 0.5764 0.80519 0.29509 0.0
C776 C 0.56496 0.82441 0.31068 0.0
C777 C 0.53146 0.82542 0.30174 0.0
C778 C 0.11715 0.68178 0.32322 0.0
C779 C 0.10718 0.66111 0.34465 0.0
C780 C 0.13103 0.72162 0.32504 0.0
C781 C 0.1354 0.74185 0.34838 0.0
H782 H 0.11465 0.66724 0.30506 0.0
H783 H 0.13865 0.73662 0.30808 0.0
S784 S 0.11287 0.69925 0.40997 0.0
N785 N 0.10222 0.66259 0.38958 0.0
N786 N 0.12817 0.73708 0.3934 0.0
C787 C 0.12504 0.72085 0.36989 0.0
C788 C 0.11098 0.68052 0.3679 0.0
C789 C 0.81869 0.98406 0.40953 0.0
C790 C 0.82493 0.01293 0.3935 0.0
C791 C 0.78469 0.94806 0.40623 0.0
C792 C 0.75632 0.93985 0.38655 0.0
H793 H 0.84081 0.98876 0.42402 0.0
H794 H 0.7816 0.92593 0.4183 0.0
S795 S 0.75809 0.008 0.34132 0.0
N796 N 0.79942 0.03266 0.3588 0.0
N797 N 0.73558 0.96514 0.35234 0.0
C798 C 0.76166 0.96947 0.37128 0.0
C799 C 0.79606 0.00605 0.37482 0.0
C800 C 0.02499 0.80458 0.40876 0.0
C801 C 0.99597 0.80293 0.39213 0.0
C802 C 0.06301 0.82087 0.40206 0.0
C803 C 0.07284 0.8354 0.37837 0.0
H804 H 0.01804 0.79203 0.42662 0.0
H805 H 0.0843 0.82022 0.41496 0.0
S806 S 0.0072 0.84062 0.32933 0.0
N807 N 0.97957 0.81934 0.35204 0.0
N808 N 0.05069 0.84968 0.33924 0.0
C809 C 0.04412 0.83531 0.36215 0.0
C810 C 1.00569 0.81908 0.36909 0.0
C811 C 0.25085 0.24651 0.36475 0.0
C812 C 0.25346 0.23349 0.38818 0.0
C813 C 0.23477 0.26992 0.36167 0.0
C814 C 0.22065 0.28117 0.38199 0.0
H815 H 0.26131 0.23853 0.34859 0.0
H816 H 0.23355 0.27924 0.34311 0.0
S817 S 0.22086 0.25362 0.44743 0.0
N818 N 0.24074 0.23246 0.43207 0.0
N819 N 0.21035 0.27683 0.42659 0.0
C820 C 0.22295 0.26791 0.40565 0.0
C821 C 0.23946 0.24395 0.40869 0.0
C822 C 0.65906 0.5639 0.71055 0.0
C823 C 0.65433 0.5504 0.73481 0.0
C824 C 0.69567 0.58773 0.70254 0.0
C825 C 0.72889 0.59968 0.71867 0.0
H826 H 0.6342 0.55619 0.69762 0.0
H827 H 0.69795 0.59773 0.68387 0.0
S828 S 0.73334 0.57175 0.78334 0.0
N829 N 0.68687 0.5496 0.7743 0.0
N830 N 0.75552 0.59613 0.75959 0.0
C831 C 0.7249 0.5868 0.74291 0.0
C832 C 0.68768 0.56183 0.75093 0.0
C833 C 0.4849 0.15073 0.76261 0.0
C834 C 0.5012 0.13339 0.74801 0.0
C835 C 0.45662 0.15786 0.75212 0.0
C836 C 0.44406 0.14898 0.72641 0.0
H837 H 0.49327 0.15793 0.78259 0.0
H838 H 0.44417 0.17008 0.76436 0.0
S839 S 0.47825 0.10505 0.67941 0.0
N840 N 0.50273 0.10823 0.70607 0.0
N841 N 0.45101 0.12355 0.68623 0.0
C842 C 0.46137 0.13357 0.71123 0.0
C843 C 0.48964 0.12543 0.72202 0.0
C844 C 0.88423 0.36727 0.70652 0.0
C845 C 0.91691 0.3857 0.72387 0.0
C846 C 0.87364 0.33183 0.69354 0.0
C847 C 0.89561 0.31385 0.69735 0.0
H848 H 0.86614 0.3798 0.70353 0.0
H849 H 0.84749 0.31798 0.68102 0.0
S850 S 0.98666 0.35339 0.73865 0.0
N851 N 0.97295 0.38548 0.74267 0.0
N852 N 0.95366 0.31929 0.71829 0.0
C853 C 0.92947 0.33315 0.71384 0.0
C854 C 0.93994 0.36895 0.72712 0.0
C855 C 0.23408 0.98106 0.67617 0.0
C856 C 0.21236 0.97852 0.65381 0.0
C857 C 0.26255 0.01682 0.68788 0.0
C858 C 0.27012 0.05112 0.67765 0.0
H859 H 0.22927 0.95519 0.68458 0.0
H860 H 0.2788 0.01763 0.70495 0.0
S861 S 0.22168 0.0609 0.61992 0.0
N862 N 0.20043 0.014 0.62227 0.0
N863 N 0.25435 0.08097 0.64418 0.0
C864 C 0.24894 0.04921 0.6554 0.0
C865 C 0.21997 0.01293 0.64346 0.0
C866 C 0.9933 0.20966 0.62216 0.0
C867 C 0.02349 0.21518 0.63955 0.0
C868 C 0.95926 0.20654 0.63016 0.0
C869 C 0.9538 0.20843 0.6559 0.0
H870 H 0.99571 0.20718 0.60216 0.0
H871 H 0.93682 0.20206 0.61602 0.0
S872 S 0.02509 0.22576 0.70909 0.0
N873 N 0.04655 0.22498 0.68378 0.0
N874 N 0.98227 0.21804 0.69874 0.0
C875 C 0.98384 0.2143 0.6735 0.0
C876 C 0.0187 0.21794 0.66536 0.0
C877 C 0.82441 0.82784 0.67491 0.0
C878 C 0.78945 0.81614 0.66056 0.0
C879 C 0.83321 0.80079 0.68411 0.0
C880 C 0.80736 0.76107 0.67925 0.0
H881 H 0.84542 0.85817 0.6787 0.0
H882 H 0.86083 0.81112 0.69457 0.0
S883 S 0.71023 0.71573 0.64477 0.0
N884 N 0.72772 0.7624 0.64352 0.0
N885 N 0.74409 0.71148 0.66052 0.0
C886 C 0.77183 0.74906 0.66547 0.0
C887 C 0.76293 0.7766 0.65617 0.0
C888 C 0.01666 0.7758 0.68388 0.0
C889 C 0.02485 0.7983 0.66335 0.0
C890 C 0.97886 0.75317 0.6902 0.0
C891 C 0.94771 0.75209 0.67615 0.0
H892 H 0.0398 0.77633 0.69556 0.0
H893 H 0.97414 0.7365 0.70637 0.0
S894 S 0.95448 0.80598 0.62019 0.0
N895 N 0.99952 0.81838 0.62869 0.0
N896 N 0.92797 0.77552 0.64033 0.0
C897 C 0.95559 0.77403 0.65513 0.0
C898 C 0.99435 0.79732 0.6488 0.0
C899 C 0.20923 0.19234 0.68023 0.0
C900 C 0.19629 0.18695 0.6547 0.0
C901 C 0.24148 0.18962 0.68815 0.0
C902 C 0.26203 0.18113 0.67085 0.0
H903 H 0.19362 0.19759 0.6943 0.0
H904 H 0.24961 0.1932 0.70816 0.0
S905 S 0.24045 0.16713 0.60139 0.0
N906 N 0.20668 0.17453 0.61193 0.0
N907 N 0.26765 0.16977 0.62651 0.0
C908 C 0.24983 0.17698 0.64505 0.0
C909 C 0.21685 0.17976 0.63705 0.0
C910 C 0.7788 0.02111 0.68849 0.0
C911 C 0.78757 1.00378 0.66862 0.0
C912 C 0.78822 0.05962 0.68863 0.0
C913 C 0.80684 0.08213 0.66888 0.0
H914 H 0.76569 0.00518 0.70445 0.0
H915 H 0.78169 0.07202 0.70469 0.0
S916 S 0.83398 0.04844 0.61178 0.0
N917 N 0.81418 0.01045 0.6283 0.0
N918 N 0.83198 0.08304 0.62821 0.0
C919 C 0.81436 0.06434 0.64835 0.0
C920 C 0.80477 0.02506 0.64834 0.0
C921 C 0.47207 0.33915 0.73239 0.0
C922 C 0.46941 0.36202 0.71427 0.0
C923 C 0.44767 0.29903 0.72988 0.0
C924 C 0.42038 0.28069 0.70896 0.0
H925 H 0.49376 0.35218 0.74818 0.0
H926 H 0.4511 0.28222 0.74399 0.0
S927 S 0.40104 0.32923 0.65737 0.0
N928 N 0.43671 0.36461 0.67566 0.0
N929 N 0.39083 0.28934 0.67069 0.0
C930 C 0.41691 0.30378 0.69115 0.0
C931 C 0.44151 0.3445 0.69388 0.0
C932 C 0.70741 0.17627 0.73854 0.0
C933 C 0.67223 0.15269 0.72423 0.0
C934 C 0.74259 0.18938 0.72791 0.0
C935 C 0.744 0.17914 0.70253 0.0
H936 H 0.70784 0.18303 0.75846 0.0
H937 H 0.76887 0.20639 0.74004 0.0
S938 S 0.65888 0.11981 0.65677 0.0
N939 N 0.64027 0.12117 0.68334 0.0
N940 N 0.70605 0.14575 0.66303 0.0
C941 C 0.70863 0.1571 0.68772 0.0
C942 C 0.67283 0.1438 0.69868 0.0
C943 C 0.90195 0.56497 0.69849 0.0
C944 C 0.9097 0.55803 0.72292 0.0
C945 C 0.88328 0.58582 0.6942 0.0
C946 C 0.87181 0.60064 0.71425 0.0
H947 H 0.91113 0.55493 0.68258 0.0
H948 H 0.87874 0.5911 0.67497 0.0
S949 S 0.88368 0.58737 0.78189 0.0
N950 N 0.9033 0.56521 0.76738 0.0
N951 N 0.86799 0.60459 0.75961 0.0
C952 C 0.8783 0.59248 0.73884 0.0
C953 C 0.89741 0.57116 0.74312 0.0
C954 C 0.48834 0.95089 0.24643 0.0
C955 C 0.44862 0.92598 0.24764 0.0
C956 C 0.50264 0.97136 0.22518 0.0
C957 C 0.47778 0.96717 0.20418 0.0
H958 H 0.50847 0.95485 0.26213 0.0
H959 H 0.53341 0.99024 0.22504 0.0
S960 S 0.37143 0.90506 0.19775 0.0
N961 N 0.38474 0.8979 0.22581 0.0
N962 N 0.41151 0.9364 0.18607 0.0
C963 C 0.43804 0.94222 0.20514 0.0
C964 C 0.4235 0.92166 0.2268 0.0
C965 C 0.06546 0.5475 0.24696 0.0
C966 C 0.05778 0.5171 0.26208 0.0
C967 C 0.04911 0.54033 0.22205 0.0
C968 C 0.02467 0.5025 0.21132 0.0
H969 H 0.08465 0.57705 0.25432 0.0
H970 H 0.05601 0.56453 0.21099 0.0
S971 S 0.99239 0.413 0.24353 0.0
N972 N 0.0217 0.4478 0.26495 0.0
N973 N 0.99174 0.43447 0.21805 0.0
C974 C 0.01627 0.47191 0.2263 0.0
C975 C 0.03261 0.47916 0.25169 0.0
C976 C 0.4932 0.56801 0.22169 0.0
C977 C 0.49619 0.54576 0.2403 0.0
C978 C 0.49946 0.56246 0.19666 0.0
C979 C 0.50939 0.53475 0.18935 0.0
H980 H 0.4862 0.59006 0.22657 0.0
H981 H 0.49762 0.58077 0.18307 0.0
S982 S 0.52004 0.46849 0.2307 0.0
N983 N 0.50924 0.49461 0.24961 0.0
N984 N 0.5206 0.48394 0.20253 0.0
C985 C 0.51183 0.51188 0.20767 0.0
C986 C 0.50527 0.5174 0.23313 0.0
C987 C 0.94205 0.48187 0.82309 0.0
C988 C 0.95557 0.46431 0.80631 0.0
C989 C 0.95307 0.48718 0.84899 0.0
C990 C 0.97837 0.47558 0.85894 0.0
H991 H 0.92292 0.49164 0.81612 0.0
H992 H 0.94251 0.50135 0.86124 0.0
S993 S 0.02146 0.42779 0.82308 0.0
N994 N 0.99549 0.43526 0.80156 0.0
N995 N 0.0156 0.4447 0.85018 0.0
C996 C 0.99162 0.45753 0.84241 0.0
C997 C 0.98036 0.45202 0.81613 0.0
C998 C 0.53289 0.47224 0.81104 0.0
C999 C 0.5523 0.50437 0.79699 0.0
C1000 C 0.51907 0.4753 0.83413 0.0
C1001 C 0.52373 0.51054 0.844 0.0
H1002 H 0.5284 0.44445 0.80416 0.0
H1003 H 0.50401 0.4497 0.84412 0.0
S1004 S 0.573 0.60349 0.81488 0.0
N1005 N 0.57545 0.57262 0.79475 0.0
N1006 N 0.55027 0.57853 0.83828 0.0
C1007 C 0.54343 0.54297 0.83028 0.0
C1008 C 0.55756 0.53987 0.80681 0.0
C1009 C 0.51743 0.08676 0.83965 0.0
C1010 C 0.52359 0.06781 0.8192 0.0
C1011 C 0.50827 0.07037 0.86277 0.0
C1012 C 0.50448 0.0342 0.86624 0.0
H1013 H 0.52054 0.11488 0.83794 0.0
H1014 H 0.50412 0.08615 0.87806 0.0
S1015 S 0.51653 0.97227 0.81834 0.0
N1016 N 0.52397 0.01035 0.80369 0.0
N1017 N 0.50749 0.97991 0.84714 0.0
C1018 C 0.50998 0.01471 0.8458 0.0
C1019 C 0.51939 0.03143 0.82232 0.0
C1020 C 0.10194 0.2569 0.5577 0.0
C1021 C 0.12658 0.26295 0.57927 0.0
C1022 C 0.11595 0.27715 0.5364 0.0
C1023 C 0.15519 0.30457 0.53579 0.0
H1024 H 0.07145 0.23623 0.55725 0.0
H1025 H 0.0957 0.2718 0.52043 0.0
S1026 S 0.23204 0.33049 0.58701 0.0
N1027 N 0.19234 0.29801 0.59851 0.0
N1028 N 0.21877 0.33576 0.55837 0.0
C1029 C 0.18028 0.31058 0.55709 0.0
C1030 C 0.16601 0.28979 0.57878 0.0
C1031 C 0.7101 0.86787 0.58486 0.0
C1032 C 0.74375 0.86609 0.59014 0.0
C1033 C 0.69292 0.861 0.56021 0.0
C1034 C 0.70882 0.8523 0.53985 0.0
H1035 H 0.69633 0.87362 0.59997 0.0
H1036 H 0.66688 0.86241 0.5571 0.0
S1037 S 0.79747 0.84548 0.54348 0.0
N1038 N 0.79323 0.8565 0.57282 0.0
N1039 N 0.76044 0.84265 0.52663 0.0
C1040 C 0.74286 0.85112 0.54481 0.0
C1041 C 0.76038 0.85816 0.5699 0.0
C1042 C 0.1522 0.8504 0.57129 0.0
C1043 C 0.1499 0.88322 0.5784 0.0
C1044 C 0.15824 0.84302 0.54649 0.0
C1045 C 0.16168 0.8679 0.52781 0.0
H1046 H 0.15113 0.83125 0.58524 0.0
H1047 H 0.16108 0.8181 0.54201 0.0
S1048 S 0.15525 0.95643 0.53648 0.0
N1049 N 0.14939 0.93961 0.56452 0.0
N1050 N 0.16092 0.92594 0.51804 0.0
C1051 C 0.15781 0.89993 0.53448 0.0
C1052 C 0.15192 0.90754 0.55973 0.0
C1053 C 0.61312 0.80936 0.15987 0.0
C1054 C 0.62284 0.78971 0.14196 0.0
C1055 C 0.62627 0.81405 0.18533 0.0
C1056 C 0.65006 0.79973 0.19367 0.0
H1057 H 0.59553 0.82152 0.15411 0.0
H1058 H 0.61878 0.83003 0.19845 0.0
S1059 S 0.68286 0.74523 0.15445 0.0
N1060 N 0.65703 0.75518 0.13443 0.0
N1061 N 0.68153 0.76386 0.18228 0.0
C1062 C 0.65933 0.77937 0.17605 0.0
C1063 C 0.64573 0.77435 0.1502 0.0
C1064 C 0.22169 0.79616 0.15889 0.0
C1065 C 0.23037 0.8207 0.13926 0.0
C1066 C 0.20803 0.80297 0.18102 0.0
C1067 C 0.20233 0.83457 0.18449 0.0
H1068 H 0.22603 0.77171 0.15731 0.0
H1069 H 0.20165 0.78311 0.19549 0.0
S1070 S 0.22049 0.90752 0.13884 0.0
N1071 N 0.23154 0.87755 0.12459 0.0
N1072 N 0.20697 0.89101 0.16646 0.0
C1073 C 0.21081 0.85934 0.16501 0.0
C1074 C 0.22464 0.85232 0.1424 0.0
C1075 C 0.18042 0.4289 0.167 0.0
C1076 C 0.203 0.42412 0.1495 0.0
C1077 C 0.1752 0.41271 0.19017 0.0
C1078 C 0.19254 0.39123 0.197 0.0
H1079 H 0.16662 0.44545 0.16278 0.0
H1080 H 0.15751 0.41721 0.20291 0.0
S1081 S 0.2539 0.36948 0.15799 0.0
N1082 N 0.24255 0.39587 0.14061 0.0
N1083 N 0.233 0.36566 0.18433 0.0
C1084 C 0.21564 0.38658 0.17991 0.0
C1085 C 0.22084 0.40299 0.15617 0.0
C1086 C 0.82821 0.64734 0.91218 0.0
C1087 C 0.79122 0.61499 0.91268 0.0
C1088 C 0.84129 0.66456 0.88975 0.0
C1089 C 0.81797 0.65004 0.86689 0.0
H1090 H 0.84694 0.66004 0.92937 0.0
H1091 H 0.86992 0.68948 0.89032 0.0
S1092 S 0.719 0.56549 0.8579 0.0
N1093 N 0.73189 0.56839 0.88812 0.0
N1094 N 0.75597 0.60145 0.84621 0.0
C1095 C 0.78107 0.61748 0.86708 0.0
C1096 C 0.76781 0.59985 0.88989 0.0
C1097 C 0.42348 0.22307 0.91313 0.0
C1098 C 0.40621 0.19344 0.92933 0.0
C1099 C 0.40912 0.21788 0.88784 0.0
C1100 C 0.37667 0.18305 0.87792 0.0
H1101 H 0.44875 0.25019 0.91992 0.0
H1102 H 0.42338 0.24137 0.876 0.0
S1103 S 0.32055 0.09682 0.91265 0.0
N1104 N 0.35447 0.12837 0.93377 0.0
N1105 N 0.32779 0.11848 0.88631 0.0
C1106 C 0.35893 0.15338 0.89401 0.0
C1107 C 0.37363 0.15859 0.91967 0.0
C1108 C 0.79738 0.19498 0.88478 0.0
C1109 C 0.82722 0.21641 0.90386 0.0
C1110 C 0.80535 0.19 0.86008 0.0
C1111 C 0.84346 0.20594 0.85356 0.0
H1112 H 0.76761 0.18243 0.88891 0.0
H1113 H 0.78148 0.17341 0.84599 0.0
S1114 S 0.93195 0.26405 0.89664 0.0
N1115 N 0.89637 0.25293 0.91466 0.0
N1116 N 0.91135 0.24434 0.86821 0.0
C1117 C 0.87355 0.22721 0.87251 0.0
C1118 C 0.86544 0.23231 0.89763 0.0
C1119 C 0.27631 0.11817 0.48902 0.0
C1120 C 0.29771 0.14405 0.47147 0.0
C1121 C 0.28999 0.12417 0.51444 0.0
C1122 C 0.3256 0.15643 0.52346 0.0
H1123 H 0.24894 0.09267 0.483 0.0
H1124 H 0.27298 0.10266 0.52696 0.0
S1125 S 0.3918 0.23426 0.48568 0.0
N1126 N 0.35612 0.20377 0.46514 0.0
N1127 N 0.38077 0.21601 0.51311 0.0
C1128 C 0.34665 0.18331 0.50633 0.0
C1129 C 0.33294 0.17698 0.48035 0.0
C1130 C 0.92729 0.18039 0.4861 0.0
C1131 C 0.90327 0.16322 0.4637 0.0
C1132 C 0.91279 0.18625 0.50815 0.0
C1133 C 0.87377 0.17548 0.50862 0.0
H1134 H 0.95748 0.18897 0.48668 0.0
H1135 H 0.93241 0.19969 0.52491 0.0
S1136 S 0.79888 0.12962 0.45495 0.0
N1137 N 0.83862 0.13601 0.44327 0.0
N1138 N 0.81127 0.14636 0.48477 0.0
C1139 C 0.84946 0.15836 0.48633 0.0
C1140 C 0.8642 0.15232 0.46391 0.0
C1141 C 0.86352 0.75949 0.50269 0.0
C1142 C 0.8669 0.73963 0.48152 0.0
C1143 C 0.85597 0.74345 0.52596 0.0
C1144 C 0.8512 0.70679 0.5289 0.0
H1145 H 0.86598 0.78736 0.50114 0.0
H1146 H 0.85256 0.75935 0.54153 0.0
S1147 S 0.8593 0.64377 0.47976 0.0
N1148 N 0.86596 0.68174 0.46527 0.0
N1149 N 0.85281 0.65213 0.5091 0.0
C1150 C 0.85579 0.68719 0.50813 0.0
C1151 C 0.86346 0.7035 0.48445 0.0
loop_
_geom_bond_atom_site_label_1
_geom_bond_atom_site_label_2
_geom_bond_distance
_geom_bond_site_symmetry_2
_ccdc_geom_bond_type
H0 C3 0.929 . S
H1 C6 0.929 . S
H2 C8 0.930 . S
C3 H0 0.929 . S
C3 C4 1.398 . S
C3 C5 1.396 . S
C4 C3 1.398 . S
C4 C8 1.407 . S
C5 C3 1.396 . S
C5 C6 1.394 . S
C6 H1 0.929 . S
C6 C5 1.394 . S
C6 C7 1.382 . S
C7 C6 1.382 . S
C7 C8 1.392 . S
C7 N9 1.420 . S
C8 H2 0.930 . S
C8 C4 1.407 . S
C8 C7 1.392 . S
N9 C7 1.420 . S
N9 C10 1.244 . S
C10 N9 1.244 . S
H11 C14 0.929 . S
H12 C17 0.929 . S
H13 C19 0.930 . S
C14 H11 0.929 . S
C14 C15 1.398 . S
C14 C16 1.396 . S
C15 C14 1.398 . S
C15 C19 1.407 . S
C16 C14 1.396 . S
C16 C17 1.394 . S
C17 H12 0.929 . S
C17 C16 1.394 . S
C17 C18 1.382 . S
C18 C17 1.382 . S
C18 C19 1.392 . S
C18 N20 1.420 . S
C19 H13 0.930 . S
C19 C15 1.407 . S
C19 C18 1.392 . S
N20 C18 1.420 . S
N20 C21 1.244 . S
C21 N20 1.244 . S
H22 C25 0.929 . S
H23 C28 0.929 . S
H24 C30 0.930 . S
C25 H22 0.929 . S
C25 C26 1.398 . S
C25 C27 1.396 . S
C26 C25 1.398 . S
C26 C30 1.407 . S
C27 C25 1.396 . S
C27 C28 1.394 . S
C28 H23 0.929 . S
C28 C27 1.394 . S
C28 C29 1.382 . S
C29 C28 1.382 . S
C29 C30 1.392 . S
C29 N31 1.420 . S
C30 H24 0.930 . S
C30 C26 1.407 . S
C30 C29 1.392 . S
N31 C29 1.420 . S
N31 C32 1.244 . S
C32 N31 1.244 . S
H33 C36 0.929 . S
H34 C39 0.929 . S
H35 C41 0.930 . S
C36 H33 0.929 . S
C36 C37 1.398 . S
C36 C38 1.396 . S
C37 C36 1.398 . S
C37 C41 1.407 . S
C38 C36 1.396 . S
C38 C39 1.394 . S
C39 H34 0.929 . S
C39 C38 1.394 . S
C39 C40 1.382 . S
C40 C39 1.382 . S
C40 C41 1.392 . S
C40 N42 1.420 . S
C41 H35 0.930 . S
C41 C37 1.407 . S
C41 C40 1.392 . S
N42 C40 1.420 . S
N42 C43 1.244 . S
C43 N42 1.244 . S
H44 C47 0.929 . S
H45 C50 0.929 . S
H46 C52 0.930 . S
C47 H44 0.929 . S
C47 C48 1.398 . S
C47 C49 1.396 . S
C48 C47 1.398 . S
C48 C52 1.407 . S
C49 C47 1.396 . S
C49 C50 1.394 . S
C50 H45 0.929 . S
C50 C49 1.394 . S
C50 C51 1.382 . S
C51 C50 1.382 . S
C51 C52 1.392 . S
C51 N53 1.420 . S
C52 H46 0.930 . S
C52 C48 1.407 . S
C52 C51 1.392 . S
N53 C51 1.420 . S
N53 C54 1.244 . S
C54 N53 1.244 . S
H55 C58 0.929 . S
H56 C61 0.929 . S
H57 C63 0.930 . S
C58 H55 0.929 . S
C58 C59 1.398 . S
C58 C60 1.396 . S
C59 C58 1.398 . S
C59 C63 1.407 . S
C60 C58 1.396 . S
C60 C61 1.394 . S
C61 H56 0.929 . S
C61 C60 1.394 . S
C61 C62 1.382 . S
C62 C61 1.382 . S
C62 C63 1.392 . S
C62 N64 1.420 . S
C63 H57 0.930 . S
C63 C59 1.407 . S
C63 C62 1.392 . S
N64 C62 1.420 . S
N64 C65 1.244 . S
C65 N64 1.244 . S
H66 C69 0.929 . S
H67 C72 0.929 . S
H68 C74 0.930 . S
C69 H66 0.929 . S
C69 C70 1.398 . S
C69 C71 1.396 . S
C70 C69 1.398 . S
C70 C74 1.407 . S
C71 C69 1.396 . S
C71 C72 1.394 . S
C72 H67 0.929 . S
C72 C71 1.394 . S
C72 C73 1.382 . S
C73 C72 1.382 . S
C73 C74 1.392 . S
C73 N75 1.420 . S
C74 H68 0.930 . S
C74 C70 1.407 . S
C74 C73 1.392 . S
N75 C73 1.420 . S
N75 C76 1.244 . S
C76 N75 1.244 . S
H77 C80 0.929 . S
H78 C83 0.929 . S
H79 C85 0.930 . S
C80 H77 0.929 . S
C80 C81 1.398 . S
C80 C82 1.396 . S
C81 C80 1.398 . S
C81 C85 1.407 . S
C82 C80 1.396 . S
C82 C83 1.394 . S
C83 H78 0.929 . S
C83 C82 1.394 . S
C83 C84 1.382 . S
C84 C83 1.382 . S
C84 C85 1.392 . S
C84 N86 1.420 . S
C85 H79 0.930 . S
C85 C81 1.407 . S
C85 C84 1.392 . S
N86 C84 1.420 . S
N86 C87 1.244 . S
C87 N86 1.244 . S
H88 C91 0.929 . S
H89 C94 0.929 . S
H90 C96 0.930 . S
C91 H88 0.929 . S
C91 C92 1.398 . S
C91 C93 1.396 . S
C92 C91 1.398 . S
C92 C96 1.407 . S
C93 C91 1.396 . S
C93 C94 1.394 . S
C94 H89 0.929 . S
C94 C93 1.394 . S
C94 C95 1.382 . S
C95 C94 1.382 . S
C95 C96 1.392 . S
C95 N97 1.420 . S
C96 H90 0.930 . S
C96 C92 1.407 . S
C96 C95 1.392 . S
N97 C95 1.420 . S
N97 C98 1.244 . S
C98 N97 1.244 . S
H99 C102 0.929 . S
H100 C105 0.929 . S
H101 C107 0.930 . S
C102 H99 0.929 . S
C102 C103 1.398 . S
C102 C104 1.396 . S
C103 C102 1.398 . S
C103 C107 1.407 . S
C104 C102 1.396 . S
C104 C105 1.394 . S
C105 H100 0.929 . S
C105 C104 1.394 . S
C105 C106 1.382 . S
C106 C105 1.382 . S
C106 C107 1.392 . S
C106 N108 1.420 . S
C107 H101 0.930 . S
C107 C103 1.407 . S
C107 C106 1.392 . S
N108 C106 1.420 . S
N108 C109 1.244 . S
C109 N108 1.244 . S
H110 C113 0.929 . S
H111 C116 0.929 . S
H112 C118 0.930 1_554 S
C113 H110 0.929 . S
C113 C114 1.398 . S
C113 C115 1.396 . S
C114 C113 1.398 . S
C114 C118 1.407 . S
C115 C113 1.396 . S
C115 C116 1.394 . S
C116 H111 0.929 . S
C116 C115 1.394 . S
C116 C117 1.382 . S
C117 C116 1.382 . S
C117 C118 1.392 . S
C117 N119 1.420 . S
C118 H112 0.930 1_556 S
C118 C114 1.407 . S
C118 C117 1.392 . S
N119 C117 1.420 . S
N119 C120 1.244 . S
C120 N119 1.244 . S
H121 C124 0.929 . S
H122 C127 0.929 . S
H123 C129 0.930 . S
C124 H121 0.929 . S
C124 C125 1.398 . S
C124 C126 1.396 . S
C125 C124 1.398 . S
C125 C129 1.407 . S
C126 C124 1.396 . S
C126 C127 1.394 . S
C127 H122 0.929 . S
C127 C126 1.394 . S
C127 C128 1.382 . S
C128 C127 1.382 . S
C128 C129 1.392 . S
C128 N130 1.420 . S
C129 H123 0.930 . S
C129 C125 1.407 . S
C129 C128 1.392 . S
N130 C128 1.420 . S
N130 C131 1.244 . S
C131 N130 1.244 . S
H132 C135 0.929 . S
H133 C138 0.929 . S
H134 C140 0.930 . S
C135 H132 0.929 . S
C135 C136 1.398 . S
C135 C137 1.396 . S
C136 C135 1.398 . S
C136 C140 1.407 . S
C137 C135 1.396 . S
C137 C138 1.394 . S
C138 H133 0.929 . S
C138 C137 1.394 . S
C138 C139 1.382 . S
C139 C138 1.382 . S
C139 C140 1.392 . S
C139 N141 1.420 . S
C140 H134 0.930 . S
C140 C136 1.407 . S
C140 C139 1.392 . S
N141 C139 1.420 . S
N141 C142 1.244 . S
C142 N141 1.244 . S
H143 C146 0.929 . S
H144 C149 0.929 . S
H145 C151 0.930 . S
C146 H143 0.929 . S
C146 C147 1.398 . S
C146 C148 1.396 . S
C147 C146 1.398 . S
C147 C151 1.407 . S
C148 C146 1.396 . S
C148 C149 1.394 . S
C149 H144 0.929 . S
C149 C148 1.394 . S
C149 C150 1.382 . S
C150 C149 1.382 . S
C150 C151 1.392 . S
C150 N152 1.420 . S
C151 H145 0.930 . S
C151 C147 1.407 . S
C151 C150 1.392 . S
N152 C150 1.420 . S
N152 C153 1.244 . S
C153 N152 1.244 . S
H154 C157 0.929 . S
H155 C160 0.929 . S
H156 C162 0.930 . S
C157 H154 0.929 . S
C157 C158 1.398 . S
C157 C159 1.396 . S
C158 C157 1.398 . S
C158 C162 1.407 . S
C159 C157 1.396 . S
C159 C160 1.394 . S
C160 H155 0.929 . S
C160 C159 1.394 . S
C160 C161 1.382 . S
C161 C160 1.382 . S
C161 C162 1.392 . S
C161 N163 1.420 . S
C162 H156 0.930 . S
C162 C158 1.407 . S
C162 C161 1.392 . S
N163 C161 1.420 . S
N163 C164 1.244 . S
C164 N163 1.244 . S
H165 C168 0.929 . S
H166 C171 0.929 . S
H167 C173 0.930 . S
C168 H165 0.929 . S
C168 C169 1.398 . S
C168 C170 1.396 . S
C169 C168 1.398 . S
C169 C173 1.407 . S
C170 C168 1.396 . S
C170 C171 1.394 . S
C171 H166 0.929 . S
C171 C170 1.394 . S
C171 C172 1.382 . S
C172 C171 1.382 . S
C172 C173 1.392 . S
C172 N174 1.420 . S
C173 H167 0.930 . S
C173 C169 1.407 . S
C173 C172 1.392 . S
N174 C172 1.420 . S
N174 C175 1.244 . S
C175 N174 1.244 . S
H176 C179 0.929 . S
H177 C182 0.929 . S
H178 C184 0.930 . S
C179 H176 0.929 . S
C179 C180 1.398 . S
C179 C181 1.396 . S
C180 C179 1.398 . S
C180 C184 1.407 . S
C181 C179 1.396 . S
C181 C182 1.394 . S
C182 H177 0.929 . S
C182 C181 1.394 . S
C182 C183 1.382 . S
C183 C182 1.382 . S
C183 C184 1.392 . S
C183 N185 1.420 . S
C184 H178 0.930 . S
C184 C180 1.407 . S
C184 C183 1.392 . S
N185 C183 1.420 . S
N185 C186 1.244 . S
C186 N185 1.244 . S
H187 C190 0.929 . S
H188 C193 0.929 . S
H189 C195 0.930 . S
C190 H187 0.929 . S
C190 C191 1.398 . S
C190 C192 1.396 . S
C191 C190 1.398 . S
C191 C195 1.407 . S
C192 C190 1.396 . S
C192 C193 1.394 . S
C193 H188 0.929 . S
C193 C192 1.394 . S
C193 C194 1.382 . S
C194 C193 1.382 . S
C194 C195 1.392 . S
C194 N196 1.420 . S
C195 H189 0.930 . S
C195 C191 1.407 . S
C195 C194 1.392 . S
N196 C194 1.420 . S
N196 C197 1.244 . S
C197 N196 1.244 . S
Tb198 C208 2.825 1_565 S
Tb198 O209 2.347 1_565 S
Tb198 O212 2.366 1_565 S
Tb198 O217 2.418 . S
Tb198 O218 2.384 . S
Tb198 O221 2.479 . S
Tb198 O222 2.471 1_565 S
Eu199 O210 2.418 . S
Eu199 O211 2.384 . S
Eu199 O214 2.479 . S
Eu199 O215 2.471 1_545 S
Eu199 O216 2.347 1_545 S
Eu199 O219 2.366 1_545 S
Eu199 C229 2.825 . S
C200 O216 1.259 . S
C200 O217 1.265 1_554 S
C201 O218 1.255 1_554 S
C201 O219 1.265 . S
C202 C204 1.380 1_545 S
C202 C205 1.374 . S
C202 C208 1.507 . S
C203 C204 1.384 1_545 S
C203 C207 1.387 . S
C203 H230 0.930 1_545 S
C204 C202 1.380 1_565 S
C204 C203 1.384 1_565 S
C204 H231 0.931 . S
C205 C202 1.374 . S
C205 C206 1.390 . S
C205 H232 0.930 . S
C206 C205 1.390 . S
C206 C207 1.391 . S
C206 H233 0.930 . S
C207 C203 1.387 . S
C207 C206 1.391 . S
C208 Tb198 2.825 1_545 S
C208 C202 1.507 . S
C208 O221 1.238 1_545 S
C208 O222 1.247 . S
O209 Tb198 2.347 1_545 S
O209 C213 1.259 1_556 S
O210 Eu199 2.418 . S
O210 C213 1.265 . S
O211 Eu199 2.384 . S
O211 C220 1.255 1_554 S
O212 Tb198 2.366 1_545 S
O212 C220 1.265 . S
C213 O209 1.259 1_554 S
C213 O210 1.265 . S
O214 Eu199 2.479 . S
O214 C229 1.238 . S
O215 Eu199 2.471 1_565 S
O215 C229 1.247 1_565 S
O216 Eu199 2.347 1_565 S
O216 C200 1.259 . S
O217 Tb198 2.418 . S
O217 C200 1.265 1_556 S
O218 Tb198 2.384 . S
O218 C201 1.255 1_556 S
O219 Eu199 2.366 1_565 S
O219 C201 1.265 . S
C220 O211 1.255 1_556 S
C220 O212 1.265 . S
O221 Tb198 2.479 . S
O221 C208 1.238 1_565 S
O222 Tb198 2.471 1_545 S
O222 C208 1.247 . S
C223 C226 1.380 1_565 S
C223 C227 1.374 . S
C223 C229 1.507 1_565 S
C224 C225 1.387 1_565 S
C224 C228 1.391 . S
C225 C224 1.387 1_545 S
C225 C226 1.384 . S
C225 H234 0.930 . S
C226 C223 1.380 1_545 S
C226 C225 1.384 . S
C226 H235 0.931 . S
C227 C223 1.374 . S
C227 C228 1.390 . S
C227 H236 0.930 . S
C228 C224 1.391 . S
C228 C227 1.390 . S
C228 H237 0.930 . S
C229 Eu199 2.825 . S
C229 O214 1.238 . S
C229 O215 1.247 1_545 S
C229 C223 1.507 1_545 S
H230 C203 0.930 1_565 S
H231 C204 0.931 . S
H232 C205 0.930 . S
H233 C206 0.930 . S
H234 C225 0.930 . S
H235 C226 0.931 . S
H236 C227 0.930 . S
H237 C228 0.930 . S
Tb238 C248 2.829 . S
Tb238 O249 2.347 1_455 S
Tb238 O252 2.366 1_455 S
Tb238 O257 2.418 . S
Tb238 O258 2.384 1_556 S
Tb238 O261 2.479 . S
Tb238 O262 2.471 1_455 S
Eu239 O250 2.418 . S
Eu239 O251 2.384 . S
Eu239 O254 2.479 . S
Eu239 O255 2.471 1_655 S
Eu239 O256 2.347 1_655 S
Eu239 O259 2.366 1_655 S
Eu239 C269 2.825 1_655 S
C240 O256 1.259 . S
C240 O257 1.265 1_554 S
C241 O258 1.255 . S
C241 O259 1.265 . S
C242 C244 1.380 1_655 S
C242 C245 1.374 . S
C242 C248 1.502 1_655 S
C243 C244 1.384 1_655 S
C243 C247 1.387 . S
C243 H270 0.930 1_655 S
C244 C242 1.380 1_455 S
C244 C243 1.384 1_455 S
C244 H271 0.931 . S
C245 C242 1.374 . S
C245 C246 1.390 . S
C245 H272 0.930 . S
C246 C245 1.390 . S
C246 C247 1.391 . S
C246 H273 0.930 . S
C247 C243 1.387 . S
C247 C246 1.391 . S
C248 Tb238 2.829 . S
C248 C242 1.502 1_455 S
C248 O261 1.244 . S
C248 O262 1.246 1_455 S
O249 Tb238 2.347 1_655 S
O249 C253 1.259 . S
O250 Eu239 2.418 . S
O250 C253 1.265 1_554 S
O251 Eu239 2.384 . S
O251 C260 1.255 1_554 S
O252 Tb238 2.366 1_655 S
O252 C260 1.265 . S
C253 O249 1.259 . S
C253 O250 1.265 1_556 S
O254 Eu239 2.479 . S
O254 C269 1.238 1_655 S
O255 Eu239 2.471 1_455 S
O255 C269 1.247 . S
O256 Eu239 2.347 1_455 S
O256 C240 1.259 . S
O257 Tb238 2.418 . S
O257 C240 1.265 1_556 S
O258 Tb238 2.384 1_554 S
O258 C241 1.255 . S
O259 Eu239 2.366 1_455 S
O259 C241 1.265 . S
C260 O251 1.255 1_556 S
C260 O252 1.265 . S
O261 Tb238 2.479 . S
O261 C248 1.244 . S
O262 Tb238 2.471 1_655 S
O262 C248 1.246 1_655 S
C263 C266 1.380 1_455 S
C263 C267 1.374 . S
C263 C269 1.507 . S
C264 C265 1.387 . S
C264 C268 1.391 . S
C265 C264 1.387 . S
C265 C266 1.384 1_455 S
C265 H274 0.930 1_455 S
C266 C263 1.380 1_655 S
C266 C265 1.384 1_655 S
C266 H275 0.931 . S
C267 C263 1.374 . S
C267 C268 1.390 . S
C267 H276 0.930 . S
C268 C264 1.391 . S
C268 C267 1.390 . S
C268 H277 0.930 . S
C269 Eu239 2.825 1_455 S
C269 O254 1.238 1_455 S
C269 O255 1.247 . S
C269 C263 1.507 . S
H270 C243 0.930 1_455 S
H271 C244 0.931 . S
H272 C245 0.930 . S
H273 C246 0.930 . S
H274 C265 0.930 1_655 S
H275 C266 0.931 . S
H276 C267 0.930 . S
H277 C268 0.930 . S
Tb278 C288 2.825 . S
Tb278 O289 2.347 . S
Tb278 O292 2.366 . S
Tb278 O297 2.418 . S
Tb278 O298 2.384 . S
Tb278 O301 2.479 . S
Tb278 O302 2.471 . S
Eu279 O290 2.418 . S
Eu279 O291 2.384 1_556 S
Eu279 O294 2.479 . S
Eu279 O295 2.471 . S
Eu279 O296 2.347 . S
Eu279 O299 2.366 . S
Eu279 C309 2.825 . S
C280 O296 1.259 1_554 S
C280 O297 1.265 . S
C281 O298 1.255 1_556 S
C281 O299 1.265 . S
C282 C284 1.380 . S
C282 C285 1.374 . S
C282 C288 1.507 . S
C283 C284 1.384 . S
C283 C287 1.387 . S
C283 H310 0.930 . S
C284 C282 1.380 . S
C284 C283 1.384 . S
C284 H311 0.931 . S
C285 C282 1.374 . S
C285 C286 1.390 . S
C285 H312 0.930 . S
C286 C285 1.390 . S
C286 C287 1.391 . S
C286 H313 0.930 . S
C287 C283 1.387 . S
C287 C286 1.391 . S
C288 Tb278 2.825 . S
C288 C282 1.507 . S
C288 O301 1.238 . S
C288 O302 1.247 . S
O289 Tb278 2.347 . S
O289 C293 1.259 . S
O290 Eu279 2.418 . S
O290 C293 1.265 1_556 S
O291 Eu279 2.384 1_554 S
O291 C300 1.255 . S
O292 Tb278 2.366 . S
O292 C300 1.265 . S
C293 O289 1.259 . S
C293 O290 1.265 1_554 S
O294 Eu279 2.479 . S
O294 C309 1.238 . S
O295 Eu279 2.471 . S
O295 C309 1.247 . S
O296 Eu279 2.347 . S
O296 C280 1.259 1_556 S
O297 Tb278 2.418 . S
O297 C280 1.265 . S
O298 Tb278 2.384 . S
O298 C281 1.255 1_554 S
O299 Eu279 2.366 . S
O299 C281 1.265 . S
C300 O291 1.255 . S
C300 O292 1.265 . S
O301 Tb278 2.479 . S
O301 C288 1.238 . S
O302 Tb278 2.471 . S
O302 C288 1.247 . S
C303 C306 1.380 . S
C303 C307 1.374 . S
C303 C309 1.507 . S
C304 C305 1.387 . S
C304 C308 1.391 . S
C305 C304 1.387 . S
C305 C306 1.384 . S
C305 H314 0.930 . S
C306 C303 1.380 . S
C306 C305 1.384 . S
C306 H315 0.931 . S
C307 C303 1.374 . S
C307 C308 1.390 . S
C307 H316 0.930 . S
C308 C304 1.391 . S
C308 C307 1.390 . S
C308 H317 0.930 . S
C309 Eu279 2.825 . S
C309 O294 1.238 . S
C309 O295 1.247 . S
C309 C303 1.507 . S
H310 C283 0.930 . S
H311 C284 0.931 . S
H312 C285 0.930 . S
H313 C286 0.930 . S
H314 C305 0.930 . S
H315 C306 0.931 . S
H316 C307 0.930 . S
H317 C308 0.930 . S
Tb318 C328 2.825 . S
Tb318 O329 2.347 . S
Tb318 O332 2.366 . S
Tb318 O337 2.418 . S
Tb318 O338 2.384 . S
Tb318 O341 2.479 . S
Tb318 O342 2.471 . S
Eu319 O330 2.418 . S
Eu319 O331 2.384 . S
Eu319 O334 2.479 . S
Eu319 O335 2.471 . S
Eu319 O336 2.347 . S
Eu319 O339 2.366 . S
Eu319 C349 2.825 . S
C320 O336 1.259 . S
C320 O337 1.265 . S
C321 O338 1.255 . S
C321 O339 1.265 . S
C322 C324 1.380 . S
C322 C325 1.374 . S
C322 C328 1.507 . S
C323 C324 1.384 . S
C323 C327 1.387 . S
C323 H350 0.930 . S
C324 C322 1.380 . S
C324 C323 1.384 . S
C324 H351 0.931 . S
C325 C322 1.374 . S
C325 C326 1.390 . S
C325 H352 0.930 . S
C326 C325 1.390 . S
C326 C327 1.391 . S
C326 H353 0.930 . S
C327 C323 1.387 . S
C327 C326 1.391 . S
C328 Tb318 2.825 . S
C328 C322 1.507 . S
C328 O341 1.238 . S
C328 O342 1.247 . S
O329 Tb318 2.347 . S
O329 C333 1.259 . S
O330 Eu319 2.418 . S
O330 C333 1.265 . S
O331 Eu319 2.384 . S
O331 C340 1.255 . S
O332 Tb318 2.366 . S
O332 C340 1.265 . S
C333 O329 1.259 . S
C333 O330 1.265 . S
O334 Eu319 2.479 . S
O334 C349 1.238 . S
O335 Eu319 2.471 . S
O335 C349 1.247 . S
O336 Eu319 2.347 . S
O336 C320 1.259 . S
O337 Tb318 2.418 . S
O337 C320 1.265 . S
O338 Tb318 2.384 . S
O338 C321 1.255 . S
O339 Eu319 2.366 . S
O339 C321 1.265 . S
C340 O331 1.255 . S
C340 O332 1.265 . S
O341 Tb318 2.479 . S
O341 C328 1.238 . S
O342 Tb318 2.471 . S
O342 C328 1.247 . S
C343 C346 1.380 . S
C343 C347 1.374 . S
C343 C349 1.507 . S
C344 C345 1.387 . S
C344 C348 1.391 . S
C345 C344 1.387 . S
C345 C346 1.384 . S
C345 H354 0.930 . S
C346 C343 1.380 . S
C346 C345 1.384 . S
C346 H355 0.931 . S
C347 C343 1.374 . S
C347 C348 1.390 . S
C347 H356 0.930 . S
C348 C344 1.391 . S
C348 C347 1.390 . S
C348 H357 0.930 . S
C349 Eu319 2.825 . S
C349 O334 1.238 . S
C349 O335 1.247 . S
C349 C343 1.507 . S
H350 C323 0.930 . S
H351 C324 0.931 . S
H352 C325 0.930 . S
H353 C326 0.930 . S
H354 C345 0.930 . S
H355 C346 0.931 . S
H356 C347 0.930 . S
H357 C348 0.930 . S
Tb358 C368 2.825 . S
Tb358 O369 2.347 . S
Tb358 O372 2.366 . S
Tb358 O377 2.418 . S
Tb358 O378 2.384 . S
Tb358 O381 2.479 . S
Tb358 O382 2.471 . S
Eu359 O370 2.418 . S
Eu359 O371 2.384 . S
Eu359 O374 2.479 . S
Eu359 O375 2.471 . S
Eu359 O376 2.347 . S
Eu359 O379 2.366 . S
Eu359 C389 2.825 . S
C360 O376 1.259 . S
C360 O377 1.265 . S
C361 O378 1.255 . S
C361 O379 1.265 . S
C362 C364 1.380 . S
C362 C365 1.374 . S
C362 C368 1.507 . S
C363 C364 1.384 . S
C363 C367 1.387 . S
C363 H390 0.930 . S
C364 C362 1.380 . S
C364 C363 1.384 . S
C364 H391 0.931 . S
C365 C362 1.374 . S
C365 C366 1.390 . S
C365 H392 0.930 . S
C366 C365 1.390 . S
C366 C367 1.391 . S
C366 H393 0.930 . S
C367 C363 1.387 . S
C367 C366 1.391 . S
C368 Tb358 2.825 . S
C368 C362 1.507 . S
C368 O381 1.238 . S
C368 O382 1.247 . S
O369 Tb358 2.347 . S
O369 C373 1.259 . S
O370 Eu359 2.418 . S
O370 C373 1.265 . S
O371 Eu359 2.384 . S
O371 C380 1.255 . S
O372 Tb358 2.366 . S
O372 C380 1.265 . S
C373 O369 1.259 . S
C373 O370 1.265 . S
O374 Eu359 2.479 . S
O374 C389 1.238 . S
O375 Eu359 2.471 . S
O375 C389 1.247 . S
O376 Eu359 2.347 . S
O376 C360 1.259 . S
O377 Tb358 2.418 . S
O377 C360 1.265 . S
O378 Tb358 2.384 . S
O378 C361 1.255 . S
O379 Eu359 2.366 . S
O379 C361 1.265 . S
C380 O371 1.255 . S
C380 O372 1.265 . S
O381 Tb358 2.479 . S
O381 C368 1.238 . S
O382 Tb358 2.471 . S
O382 C368 1.247 . S
C383 C386 1.380 . S
C383 C387 1.374 . S
C383 C389 1.507 . S
C384 C385 1.387 . S
C384 C388 1.391 . S
C385 C384 1.387 . S
C385 C386 1.384 . S
C385 H394 0.930 . S
C386 C383 1.380 . S
C386 C385 1.384 . S
C386 H395 0.931 . S
C387 C383 1.374 . S
C387 C388 1.390 . S
C387 H396 0.930 . S
C388 C384 1.391 . S
C388 C387 1.390 . S
C388 H397 0.930 . S
C389 Eu359 2.825 . S
C389 O374 1.238 . S
C389 O375 1.247 . S
C389 C383 1.507 . S
H390 C363 0.930 . S
H391 C364 0.931 . S
H392 C365 0.930 . S
H393 C366 0.930 . S
H394 C385 0.930 . S
H395 C386 0.931 . S
H396 C387 0.930 . S
H397 C388 0.930 . S
Tb398 C408 2.825 . S
Tb398 O409 2.347 . S
Tb398 O412 2.366 . S
Tb398 O417 2.418 . S
Tb398 O418 2.384 . S
Tb398 O421 2.479 . S
Tb398 O422 2.471 . S
Eu399 O410 2.418 . S
Eu399 O411 2.384 . S
Eu399 O414 2.479 . S
Eu399 O415 2.471 . S
Eu399 O416 2.347 . S
Eu399 O419 2.366 . S
Eu399 C429 2.825 . S
C400 O416 1.259 . S
C400 O417 1.265 . S
C401 O418 1.255 . S
C401 O419 1.265 . S
C402 C404 1.380 . S
C402 C405 1.374 . S
C402 C408 1.507 . S
C403 C404 1.384 . S
C403 C407 1.387 . S
C403 H430 0.930 . S
C404 C402 1.380 . S
C404 C403 1.384 . S
C404 H431 0.931 . S
C405 C402 1.374 . S
C405 C406 1.390 . S
C405 H432 0.930 . S
C406 C405 1.390 . S
C406 C407 1.391 . S
C406 H433 0.930 . S
C407 C403 1.387 . S
C407 C406 1.391 . S
C408 Tb398 2.825 . S
C408 C402 1.507 . S
C408 O421 1.238 . S
C408 O422 1.247 . S
O409 Tb398 2.347 . S
O409 C413 1.259 . S
O410 Eu399 2.418 . S
O410 C413 1.265 . S
O411 Eu399 2.384 . S
O411 C420 1.255 . S
O412 Tb398 2.366 . S
O412 C420 1.265 . S
C413 O409 1.259 . S
C413 O410 1.265 . S
O414 Eu399 2.479 . S
O414 C429 1.238 . S
O415 Eu399 2.471 . S
O415 C429 1.247 . S
O416 Eu399 2.347 . S
O416 C400 1.259 . S
O417 Tb398 2.418 . S
O417 C400 1.265 . S
O418 Tb398 2.384 . S
O418 C401 1.255 . S
O419 Eu399 2.366 . S
O419 C401 1.265 . S
C420 O411 1.255 . S
C420 O412 1.265 . S
O421 Tb398 2.479 . S
O421 C408 1.238 . S
O422 Tb398 2.471 . S
O422 C408 1.247 . S
C423 C426 1.380 . S
C423 C427 1.374 . S
C423 C429 1.507 . S
C424 C425 1.387 . S
C424 C428 1.391 . S
C425 C424 1.387 . S
C425 C426 1.384 . S
C425 H434 0.930 . S
C426 C423 1.380 . S
C426 C425 1.384 . S
C426 H435 0.931 . S
C427 C423 1.374 . S
C427 C428 1.390 . S
C427 H436 0.930 . S
C428 C424 1.391 . S
C428 C427 1.390 . S
C428 H437 0.930 . S
C429 Eu399 2.825 . S
C429 O414 1.238 . S
C429 O415 1.247 . S
C429 C423 1.507 . S
H430 C403 0.930 . S
H431 C404 0.931 . S
H432 C405 0.930 . S
H433 C406 0.930 . S
H434 C425 0.930 . S
H435 C426 0.931 . S
H436 C427 0.930 . S
H437 C428 0.930 . S
Tb438 C448 2.825 . S
Tb438 O449 2.347 . S
Tb438 O452 2.366 . S
Tb438 O457 2.418 . S
Tb438 O458 2.384 . S
Tb438 O461 2.479 . S
Tb438 O462 2.471 . S
Eu439 O450 2.418 . S
Eu439 O451 2.384 . S
Eu439 O454 2.479 . S
Eu439 O455 2.471 . S
Eu439 O456 2.347 . S
Eu439 O459 2.366 . S
Eu439 C469 2.825 . S
C440 O456 1.259 . S
C440 O457 1.265 . S
C441 O458 1.255 . S
C441 O459 1.265 . S
C442 C444 1.380 . S
C442 C445 1.374 . S
C442 C448 1.507 . S
C443 C444 1.384 . S
C443 C447 1.387 . S
C443 H470 0.930 . S
C444 C442 1.380 . S
C444 C443 1.384 . S
C444 H471 0.931 . S
C445 C442 1.374 . S
C445 C446 1.390 . S
C445 H472 0.930 . S
C446 C445 1.390 . S
C446 C447 1.391 . S
C446 H473 0.930 . S
C447 C443 1.387 . S
C447 C446 1.391 . S
C448 Tb438 2.825 . S
C448 C442 1.507 . S
C448 O461 1.238 . S
C448 O462 1.247 . S
O449 Tb438 2.347 . S
O449 C453 1.259 . S
O450 Eu439 2.418 . S
O450 C453 1.265 . S
O451 Eu439 2.384 . S
O451 C460 1.255 . S
O452 Tb438 2.366 . S
O452 C460 1.265 . S
C453 O449 1.259 . S
C453 O450 1.265 . S
O454 Eu439 2.479 . S
O454 C469 1.238 . S
O455 Eu439 2.471 . S
O455 C469 1.247 . S
O456 Eu439 2.347 . S
O456 C440 1.259 . S
O457 Tb438 2.418 . S
O457 C440 1.265 . S
O458 Tb438 2.384 . S
O458 C441 1.255 . S
O459 Eu439 2.366 . S
O459 C441 1.265 . S
C460 O451 1.255 . S
C460 O452 1.265 . S
O461 Tb438 2.479 . S
O461 C448 1.238 . S
O462 Tb438 2.471 . S
O462 C448 1.247 . S
C463 C466 1.380 . S
C463 C467 1.374 . S
C463 C469 1.507 . S
C464 C465 1.387 . S
C464 C468 1.391 . S
C465 C464 1.387 . S
C465 C466 1.384 . S
C465 H474 0.930 . S
C466 C463 1.380 . S
C466 C465 1.384 . S
C466 H475 0.931 . S
C467 C463 1.374 . S
C467 C468 1.390 . S
C467 H476 0.930 . S
C468 C464 1.391 . S
C468 C467 1.390 . S
C468 H477 0.930 . S
C469 Eu439 2.825 . S
C469 O454 1.238 . S
C469 O455 1.247 . S
C469 C463 1.507 . S
H470 C443 0.930 . S
H471 C444 0.931 . S
H472 C445 0.930 . S
H473 C446 0.930 . S
H474 C465 0.930 . S
H475 C466 0.931 . S
H476 C467 0.930 . S
H477 C468 0.930 . S
Tb478 C488 2.825 . S
Tb478 O489 2.347 . S
Tb478 O492 2.366 . S
Tb478 O497 2.418 . S
Tb478 O498 2.384 . S
Tb478 O501 2.479 . S
Tb478 O502 2.471 . S
Eu479 O490 2.418 . S
Eu479 O491 2.384 . S
Eu479 O494 2.479 . S
Eu479 O495 2.471 . S
Eu479 O496 2.347 . S
Eu479 O499 2.366 . S
Eu479 C509 2.825 . S
C480 O496 1.259 . S
C480 O497 1.265 . S
C481 O498 1.255 . S
C481 O499 1.265 . S
C482 C484 1.380 . S
C482 C485 1.374 . S
C482 C488 1.507 . S
C483 C484 1.384 . S
C483 C487 1.387 . S
C483 H510 0.930 . S
C484 C482 1.380 . S
C484 C483 1.384 . S
C484 H511 0.931 . S
C485 C482 1.374 . S
C485 C486 1.390 . S
C485 H512 0.930 . S
C486 C485 1.390 . S
C486 C487 1.391 . S
C486 H513 0.930 . S
C487 C483 1.387 . S
C487 C486 1.391 . S
C488 Tb478 2.825 . S
C488 C482 1.507 . S
C488 O501 1.238 . S
C488 O502 1.247 . S
O489 Tb478 2.347 . S
O489 C493 1.259 . S
O490 Eu479 2.418 . S
O490 C493 1.265 . S
O491 Eu479 2.384 . S
O491 C500 1.255 . S
O492 Tb478 2.366 . S
O492 C500 1.265 . S
C493 O489 1.259 . S
C493 O490 1.265 . S
O494 Eu479 2.479 . S
O494 C509 1.238 . S
O495 Eu479 2.471 . S
O495 C509 1.247 . S
O496 Eu479 2.347 . S
O496 C480 1.259 . S
O497 Tb478 2.418 . S
O497 C480 1.265 . S
O498 Tb478 2.384 . S
O498 C481 1.255 . S
O499 Eu479 2.366 . S
O499 C481 1.265 . S
C500 O491 1.255 . S
C500 O492 1.265 . S
O501 Tb478 2.479 . S
O501 C488 1.238 . S
O502 Tb478 2.471 . S
O502 C488 1.247 . S
C503 C506 1.380 . S
C503 C507 1.374 . S
C503 C509 1.507 . S
C504 C505 1.387 . S
C504 C508 1.391 . S
C505 C504 1.387 . S
C505 C506 1.384 . S
C505 H514 0.930 . S
C506 C503 1.380 . S
C506 C505 1.384 . S
C506 H515 0.931 . S
C507 C503 1.374 . S
C507 C508 1.390 . S
C507 H516 0.930 . S
C508 C504 1.391 . S
C508 C507 1.390 . S
C508 H517 0.930 . S
C509 Eu479 2.825 . S
C509 O494 1.238 . S
C509 O495 1.247 . S
C509 C503 1.507 . S
H510 C483 0.930 . S
H511 C484 0.931 . S
H512 C485 0.930 . S
H513 C486 0.930 . S
H514 C505 0.930 . S
H515 C506 0.931 . S
H516 C507 0.930 . S
H517 C508 0.930 . S
Tb518 C528 2.825 . S
Tb518 O529 2.347 . S
Tb518 O532 2.366 . S
Tb518 O537 2.418 . S
Tb518 O538 2.384 . S
Tb518 O541 2.479 . S
Tb518 O542 2.471 . S
Eu519 O530 2.418 . S
Eu519 O531 2.384 . S
Eu519 O534 2.479 . S
Eu519 O535 2.471 . S
Eu519 O536 2.347 . S
Eu519 O539 2.366 . S
Eu519 C549 2.825 . S
C520 O536 1.259 . S
C520 O537 1.265 . S
C521 O538 1.255 . S
C521 O539 1.265 . S
C522 C524 1.380 . S
C522 C525 1.374 . S
C522 C528 1.507 . S
C523 C524 1.384 . S
C523 C527 1.387 . S
C523 H550 0.930 . S
C524 C522 1.380 . S
C524 C523 1.384 . S
C524 H551 0.931 . S
C525 C522 1.374 . S
C525 C526 1.390 . S
C525 H552 0.930 . S
C526 C525 1.390 . S
C526 C527 1.391 . S
C526 H553 0.930 . S
C527 C523 1.387 . S
C527 C526 1.391 . S
C528 Tb518 2.825 . S
C528 C522 1.507 . S
C528 O541 1.238 . S
C528 O542 1.247 . S
O529 Tb518 2.347 . S
O529 C533 1.259 . S
O530 Eu519 2.418 . S
O530 C533 1.265 . S
O531 Eu519 2.384 . S
O531 C540 1.255 . S
O532 Tb518 2.366 . S
O532 C540 1.265 . S
C533 O529 1.259 . S
C533 O530 1.265 . S
O534 Eu519 2.479 . S
O534 C549 1.238 . S
O535 Eu519 2.471 . S
O535 C549 1.247 . S
O536 Eu519 2.347 . S
O536 C520 1.259 . S
O537 Tb518 2.418 . S
O537 C520 1.265 . S
O538 Tb518 2.384 . S
O538 C521 1.255 . S
O539 Eu519 2.366 . S
O539 C521 1.265 . S
C540 O531 1.255 . S
C540 O532 1.265 . S
O541 Tb518 2.479 . S
O541 C528 1.238 . S
O542 Tb518 2.471 . S
O542 C528 1.247 . S
C543 C546 1.380 . S
C543 C547 1.374 . S
C543 C549 1.507 . S
C544 C545 1.387 . S
C544 C548 1.391 . S
C545 C544 1.387 . S
C545 C546 1.384 . S
C545 H554 0.930 . S
C546 C543 1.380 . S
C546 C545 1.384 . S
C546 H555 0.931 . S
C547 C543 1.374 . S
C547 C548 1.390 . S
C547 H556 0.930 . S
C548 C544 1.391 . S
C548 C547 1.390 . S
C548 H557 0.930 . S
C549 Eu519 2.825 . S
C549 O534 1.238 . S
C549 O535 1.247 . S
C549 C543 1.507 . S
H550 C523 0.930 . S
H551 C524 0.931 . S
H552 C525 0.930 . S
H553 C526 0.930 . S
H554 C545 0.930 . S
H555 C546 0.931 . S
H556 C547 0.930 . S
H557 C548 0.930 . S
C558 C559 1.369 . S
C558 C560 1.419 . S
C558 H562 0.930 . S
C559 C558 1.369 . S
C559 C568 1.429 . S
C560 C558 1.419 . S
C560 C561 1.363 . S
C560 H563 0.929 . S
C561 C560 1.363 . S
C561 C567 1.428 . S
H562 C558 0.930 . S
H563 C560 0.929 . S
S564 N565 1.613 1_556 S
S564 N566 1.610 . S
N565 S564 1.613 1_554 S
N565 C568 1.350 . S
N566 S564 1.610 . S
N566 C567 1.351 1_556 S
C567 C561 1.428 . S
C567 N566 1.351 1_554 S
C567 C568 1.434 . S
C568 C559 1.429 . S
C568 N565 1.350 . S
C568 C567 1.434 . S
C569 C570 1.369 . S
C569 C571 1.419 . S
C569 H573 0.930 . S
C570 C569 1.369 . S
C570 C579 1.429 . S
C571 C569 1.419 . S
C571 C572 1.363 . S
C571 H574 0.929 . S
C572 C571 1.363 . S
C572 C578 1.428 . S
H573 C569 0.930 . S
H574 C571 0.929 . S
S575 N576 1.613 1_556 S
S575 N577 1.610 . S
N576 S575 1.613 1_554 S
N576 C579 1.350 . S
N577 S575 1.610 . S
N577 C578 1.351 1_556 S
C578 C572 1.428 . S
C578 N577 1.351 1_554 S
C578 C579 1.434 . S
C579 C570 1.429 . S
C579 N576 1.350 . S
C579 C578 1.434 . S
C580 C581 1.369 . S
C580 C582 1.419 . S
C580 H584 0.930 1_554 S
C581 C580 1.369 . S
C581 C590 1.429 . S
C582 C580 1.419 . S
C582 C583 1.363 . S
C582 H585 0.929 1_554 S
C583 C582 1.363 . S
C583 C589 1.428 . S
H584 C580 0.930 1_556 S
H585 C582 0.929 1_556 S
S586 N587 1.613 . S
S586 N588 1.610 . S
N587 S586 1.613 . S
N587 C590 1.350 . S
N588 S586 1.610 . S
N588 C589 1.351 . S
C589 C583 1.428 . S
C589 N588 1.351 . S
C589 C590 1.434 . S
C590 C581 1.429 . S
C590 N587 1.350 . S
C590 C589 1.434 . S
C591 C592 1.369 . S
C591 C593 1.418 1_556 S
C591 H595 0.930 1_556 S
C592 C591 1.369 . S
C592 C601 1.429 . S
C593 C591 1.418 1_554 S
C593 C594 1.359 1_554 S
C593 H596 0.935 . S
C594 C593 1.359 1_556 S
C594 C600 1.428 . S
H595 C591 0.930 1_554 S
H596 C593 0.935 . S
S597 N598 1.613 . S
S597 N599 1.610 . S
N598 S597 1.613 . S
N598 C601 1.350 . S
N599 S597 1.610 . S
N599 C600 1.351 . S
C600 C594 1.428 . S
C600 N599 1.351 . S
C600 C601 1.434 . S
C601 C592 1.429 . S
C601 N598 1.350 . S
C601 C600 1.434 . S
C602 C603 1.369 . S
C602 C604 1.419 . S
C602 H606 0.930 . S
C603 C602 1.369 . S
C603 C612 1.429 . S
C604 C602 1.419 . S
C604 C605 1.363 . S
C604 H607 0.929 1_556 S
C605 C604 1.363 . S
C605 C611 1.428 . S
H606 C602 0.930 . S
H607 C604 0.929 1_554 S
S608 N609 1.613 . S
S608 N610 1.610 . S
N609 S608 1.613 . S
N609 C612 1.350 . S
N610 S608 1.610 . S
N610 C611 1.351 . S
C611 C605 1.428 . S
C611 N610 1.351 . S
C611 C612 1.434 . S
C612 C603 1.429 . S
C612 N609 1.350 . S
C612 C611 1.434 . S
C613 C614 1.376 . S
C613 C615 1.417 1_556 S
C613 H617 0.925 1_556 S
C614 C613 1.376 . S
C614 C623 1.429 . S
C615 C613 1.417 1_554 S
C615 C616 1.363 1_554 S
C615 H618 0.929 . S
C616 C615 1.363 1_556 S
C616 C622 1.428 . S
H617 C613 0.925 1_554 S
H618 C615 0.929 . S
S619 N620 1.613 . S
S619 N621 1.610 . S
N620 S619 1.613 . S
N620 C623 1.350 . S
N621 S619 1.610 . S
N621 C622 1.351 . S
C622 C616 1.428 . S
C622 N621 1.351 . S
C622 C623 1.434 . S
C623 C614 1.429 . S
C623 N620 1.350 . S
C623 C622 1.434 . S
C624 C625 1.369 . S
C624 C626 1.419 . S
C624 H628 0.958 . S
C625 C624 1.369 . S
C625 C634 1.429 . S
C626 C624 1.419 . S
C626 C627 1.363 . S
C626 H629 0.929 1_556 S
C627 C626 1.363 . S
C627 C633 1.428 . S
H628 C624 0.958 . S
H629 C626 0.929 1_554 S
S630 N631 1.613 . S
S630 N632 1.610 . S
N631 S630 1.613 . S
N631 C634 1.350 . S
N632 S630 1.610 . S
N632 C633 1.351 . S
C633 C627 1.428 . S
C633 N632 1.351 . S
C633 C634 1.434 . S
C634 C625 1.429 . S
C634 N631 1.350 . S
C634 C633 1.434 . S
C635 C636 1.369 . S
C635 C637 1.419 . S
C635 H639 0.930 . S
C636 C635 1.369 . S
C636 C645 1.429 . S
C637 C635 1.419 . S
C637 C638 1.363 . S
C637 H640 0.929 . S
C638 C637 1.363 . S
C638 C644 1.428 . S
H639 C635 0.930 . S
H640 C637 0.929 . S
S641 N642 1.613 . S
S641 N643 1.610 . S
N642 S641 1.613 . S
N642 C645 1.350 1_554 S
N643 S641 1.610 . S
N643 C644 1.351 1_554 S
C644 C638 1.428 . S
C644 N643 1.351 1_556 S
C644 C645 1.434 . S
C645 C636 1.429 . S
C645 N642 1.350 1_556 S
C645 C644 1.434 . S
C646 C647 1.369 . S
C646 C648 1.419 . S
C646 H650 0.930 . S
C647 C646 1.369 . S
C647 C656 1.429 1_556 S
C648 C646 1.419 . S
C648 C649 1.363 . S
C648 H651 0.929 . S
C649 C648 1.363 . S
C649 C655 1.428 1_556 S
H650 C646 0.930 . S
H651 C648 0.929 . S
S652 N653 1.613 . S
S652 N654 1.610 . S
N653 S652 1.613 . S
N653 C656 1.350 . S
N654 S652 1.610 . S
N654 C655 1.351 . S
C655 C649 1.428 1_554 S
C655 N654 1.351 . S
C655 C656 1.434 . S
C656 C647 1.429 1_554 S
C656 N653 1.350 . S
C656 C655 1.434 . S
C657 C658 1.369 . S
C657 C659 1.419 . S
C657 H661 0.930 . S
C658 C657 1.369 . S
C658 C667 1.429 . S
C659 C657 1.419 . S
C659 C660 1.363 . S
C659 H662 0.929 . S
C660 C659 1.363 . S
C660 C666 1.428 . S
H661 C657 0.930 . S
H662 C659 0.929 . S
S663 N664 1.613 . S
S663 N665 1.610 . S
N664 S663 1.613 . S
N664 C667 1.350 1_556 S
N665 S663 1.610 . S
N665 C666 1.351 1_556 S
C666 C660 1.428 . S
C666 N665 1.351 1_554 S
C666 C667 1.434 . S
C667 C658 1.429 . S
C667 N664 1.350 1_554 S
C667 C666 1.434 . S
C668 C669 1.369 . S
C668 C670 1.419 . S
C668 H672 0.930 . S
C669 C668 1.369 . S
C669 C678 1.429 . S
C670 C668 1.419 . S
C670 C671 1.363 . S
C670 H673 0.929 . S
C671 C670 1.363 . S
C671 C677 1.428 . S
H672 C668 0.930 . S
H673 C670 0.929 . S
S674 N675 1.613 . S
S674 N676 1.610 . S
N675 S674 1.613 . S
N675 C678 1.350 . S
N676 S674 1.610 . S
N676 C677 1.351 . S
C677 C671 1.428 . S
C677 N676 1.351 . S
C677 C678 1.434 . S
C678 C669 1.429 . S
C678 N675 1.350 . S
C678 C677 1.434 . S
C679 C680 1.337 1_556 S
C679 C681 1.425 . S
C679 H683 0.958 . S
C680 C679 1.337 1_554 S
C680 C689 1.429 . S
C681 C679 1.425 . S
C681 C682 1.363 1_556 S
C681 H684 0.929 . S
C682 C681 1.363 1_554 S
C682 C688 1.428 . S
H683 C679 0.958 . S
H684 C681 0.929 . S
S685 N686 1.613 . S
S685 N687 1.610 . S
N686 S685 1.613 . S
N686 C689 1.350 . S
N687 S685 1.610 . S
N687 C688 1.351 . S
C688 C682 1.428 . S
C688 N687 1.351 . S
C688 C689 1.434 . S
C689 C680 1.429 . S
C689 N686 1.350 . S
C689 C688 1.434 . S
C690 C691 1.369 . S
C690 C692 1.419 1_655 S
C690 H694 0.930 . S
C691 C690 1.369 . S
C691 C700 1.429 . S
C692 C690 1.419 1_455 S
C692 C693 1.363 . S
C692 H695 0.929 . S
C693 C692 1.363 . S
C693 C699 1.428 1_455 S
H694 C690 0.930 . S
H695 C692 0.929 . S
S696 N697 1.613 . S
S696 N698 1.610 . S
N697 S696 1.613 . S
N697 C700 1.350 . S
N698 S696 1.610 . S
N698 C699 1.351 . S
C699 C693 1.428 1_655 S
C699 N698 1.351 . S
C699 C700 1.434 . S
C700 C691 1.429 . S
C700 N697 1.350 . S
C700 C699 1.434 . S
C701 C702 1.369 . S
C701 C703 1.419 . S
C701 H705 0.930 . S
C702 C701 1.369 . S
C702 C711 1.429 . S
C703 C701 1.419 . S
C703 C704 1.363 . S
C703 H706 0.929 . S
C704 C703 1.363 . S
C704 C710 1.428 . S
H705 C701 0.930 . S
H706 C703 0.929 . S
S707 N708 1.613 . S
S707 N709 1.610 . S
N708 S707 1.613 . S
N708 C711 1.350 . S
N709 S707 1.610 . S
N709 C710 1.351 . S
C710 C704 1.428 . S
C710 N709 1.351 . S
C710 C711 1.434 . S
C711 C702 1.429 . S
C711 N708 1.350 . S
C711 C710 1.434 . S
C712 C713 1.369 . S
C712 C714 1.419 . S
C712 H716 0.930 . S
C713 C712 1.369 . S
C713 C722 1.429 . S
C714 C712 1.419 . S
C714 C715 1.363 1_545 S
C714 H717 0.929 . S
C715 C714 1.363 1_565 S
C715 C721 1.419 1_565 S
H716 C712 0.930 . S
H717 C714 0.929 . S
S718 N719 1.613 . S
S718 N720 1.610 1_545 S
N719 S718 1.613 . S
N719 C722 1.350 . S
N720 S718 1.610 1_565 S
N720 C721 1.350 1_565 S
C721 C715 1.419 1_545 S
C721 N720 1.350 1_545 S
C721 C722 1.446 . S
C722 C713 1.429 . S
C722 N719 1.350 . S
C722 C721 1.446 . S
C723 C724 1.369 . S
C723 C725 1.419 . S
C723 H727 0.930 . S
C724 C723 1.369 . S
C724 C733 1.429 . S
C725 C723 1.419 . S
C725 C726 1.363 . S
C725 H728 0.929 . S
C726 C725 1.363 . S
C726 C732 1.428 . S
H727 C723 0.930 . S
H728 C725 0.929 . S
S729 N730 1.613 . S
S729 N731 1.610 . S
N730 S729 1.613 . S
N730 C733 1.350 . S
N731 S729 1.610 . S
N731 C732 1.351 . S
C732 C726 1.428 . S
C732 N731 1.351 . S
C732 C733 1.434 . S
C733 C724 1.429 . S
C733 N730 1.350 . S
C733 C732 1.434 . S
C734 C735 1.369 . S
C734 C736 1.419 . S
C734 H738 0.930 . S
C735 C734 1.369 . S
C735 C744 1.429 . S
C736 C734 1.419 . S
C736 C737 1.363 . S
C736 H739 0.929 . S
C737 C736 1.363 . S
C737 C743 1.428 . S
H738 C734 0.930 . S
H739 C736 0.929 . S
S740 N741 1.613 . S
S740 N742 1.610 . S
N741 S740 1.613 . S
N741 C744 1.350 . S
N742 S740 1.610 . S
N742 C743 1.351 . S
C743 C737 1.428 . S
C743 N742 1.351 . S
C743 C744 1.434 . S
C744 C735 1.429 . S
C744 N741 1.350 . S
C744 C743 1.434 . S
C745 C746 1.369 . S
C745 C747 1.419 . S
C745 H749 0.930 . S
C746 C745 1.369 . S
C746 C755 1.429 . S
C747 C745 1.419 . S
C747 C748 1.363 . S
C747 H750 0.929 . S
C748 C747 1.363 . S
C748 C754 1.428 . S
H749 C745 0.930 . S
H750 C747 0.929 . S
S751 N752 1.613 . S
S751 N753 1.610 . S
N752 S751 1.613 . S
N752 C755 1.350 . S
N753 S751 1.610 . S
N753 C754 1.351 . S
C754 C748 1.428 . S
C754 N753 1.351 . S
C754 C755 1.434 . S
C755 C746 1.429 . S
C755 N752 1.350 . S
C755 C754 1.434 . S
C756 C757 1.369 . S
C756 C758 1.419 . S
C756 H760 0.930 . S
C757 C756 1.369 . S
C757 C766 1.429 . S
C758 C756 1.419 . S
C758 C759 1.363 . S
C758 H761 0.929 . S
C759 C758 1.363 . S
C759 C765 1.428 . S
H760 C756 0.930 . S
H761 C758 0.929 . S
S762 N763 1.613 . S
S762 N764 1.610 . S
N763 S762 1.613 . S
N763 C766 1.350 . S
N764 S762 1.610 . S
N764 C765 1.351 . S
C765 C759 1.428 . S
C765 N764 1.351 . S
C765 C766 1.434 . S
C766 C757 1.429 . S
C766 N763 1.350 . S
C766 C765 1.434 . S
C767 C768 1.369 . S
C767 C769 1.419 . S
C767 H771 0.930 . S
C768 C767 1.369 . S
C768 C777 1.429 . S
C769 C767 1.419 . S
C769 C770 1.363 . S
C769 H772 0.929 . S
C770 C769 1.363 . S
C770 C776 1.428 . S
H771 C767 0.930 . S
H772 C769 0.929 . S
S773 N774 1.613 . S
S773 N775 1.610 . S
N774 S773 1.613 . S
N774 C777 1.350 . S
N775 S773 1.610 . S
N775 C776 1.351 . S
C776 C770 1.428 . S
C776 N775 1.351 . S
C776 C777 1.434 . S
C777 C768 1.429 . S
C777 N774 1.350 . S
C777 C776 1.434 . S
C778 C779 1.369 . S
C778 C780 1.419 . S
C778 H782 0.930 . S
C779 C778 1.369 . S
C779 C788 1.429 . S
C780 C778 1.419 . S
C780 C781 1.363 . S
C780 H783 0.929 . S
C781 C780 1.363 . S
C781 C787 1.428 . S
H782 C778 0.930 . S
H783 C780 0.929 . S
S784 N785 1.613 . S
S784 N786 1.610 . S
N785 S784 1.613 . S
N785 C788 1.350 . S
N786 S784 1.610 . S
N786 C787 1.351 . S
C787 C781 1.428 . S
C787 N786 1.351 . S
C787 C788 1.434 . S
C788 C779 1.429 . S
C788 N785 1.350 . S
C788 C787 1.434 . S
C789 C790 1.369 1_565 S
C789 C791 1.419 . S
C789 H793 0.930 . S
C790 C789 1.369 1_545 S
C790 C799 1.429 1_545 S
C791 C789 1.419 . S
C791 C792 1.363 . S
C791 H794 0.929 . S
C792 C791 1.363 . S
C792 C798 1.428 . S
H793 C789 0.930 . S
H794 C791 0.929 . S
S795 N796 1.613 . S
S795 N797 1.610 . S
N796 S795 1.613 . S
N796 C799 1.350 . S
N797 S795 1.610 . S
N797 C798 1.351 . S
C798 C792 1.428 . S
C798 N797 1.351 . S
C798 C799 1.434 . S
C799 C790 1.429 1_565 S
C799 N796 1.350 . S
C799 C798 1.434 . S
C800 C801 1.369 . S
C800 C802 1.419 . S
C800 H804 0.930 . S
C801 C800 1.369 . S
C801 C810 1.429 . S
C802 C800 1.419 . S
C802 C803 1.363 . S
C802 H805 0.929 . S
C803 C802 1.363 . S
C803 C809 1.428 . S
H804 C800 0.930 . S
H805 C802 0.929 . S
S806 N807 1.613 . S
S806 N808 1.610 . S
N807 S806 1.613 . S
N807 C810 1.350 . S
N808 S806 1.610 . S
N808 C809 1.351 . S
C809 C803 1.428 . S
C809 N808 1.351 . S
C809 C810 1.434 . S
C810 C801 1.429 . S
C810 N807 1.350 . S
C810 C809 1.434 . S
C811 C812 1.369 . S
C811 C813 1.419 . S
C811 H815 0.930 . S
C812 C811 1.369 . S
C812 C821 1.429 . S
C813 C811 1.419 . S
C813 C814 1.363 . S
C813 H816 0.929 . S
C814 C813 1.363 . S
C814 C820 1.428 . S
H815 C811 0.930 . S
H816 C813 0.929 . S
S817 N818 1.613 . S
S817 N819 1.610 . S
N818 S817 1.613 . S
N818 C821 1.350 . S
N819 S817 1.610 . S
N819 C820 1.351 . S
C820 C814 1.428 . S
C820 N819 1.351 . S
C820 C821 1.434 . S
C821 C812 1.429 . S
C821 N818 1.350 . S
C821 C820 1.434 . S
C822 C823 1.369 . S
C822 C824 1.419 . S
C822 H826 0.930 . S
C823 C822 1.369 . S
C823 C832 1.429 . S
C824 C822 1.419 . S
C824 C825 1.363 . S
C824 H827 0.929 . S
C825 C824 1.363 . S
C825 C831 1.428 . S
H826 C822 0.930 . S
H827 C824 0.929 . S
S828 N829 1.613 . S
S828 N830 1.610 . S
N829 S828 1.613 . S
N829 C832 1.350 . S
N830 S828 1.610 . S
N830 C831 1.351 . S
C831 C825 1.428 . S
C831 N830 1.351 . S
C831 C832 1.434 . S
C832 C823 1.429 . S
C832 N829 1.350 . S
C832 C831 1.434 . S
C833 C834 1.369 . S
C833 C835 1.419 . S
C833 H837 0.930 . S
C834 C833 1.369 . S
C834 C843 1.429 . S
C835 C833 1.419 . S
C835 C836 1.363 . S
C835 H838 0.929 . S
C836 C835 1.363 . S
C836 C842 1.428 . S
H837 C833 0.930 . S
H838 C835 0.929 . S
S839 N840 1.613 . S
S839 N841 1.610 . S
N840 S839 1.613 . S
N840 C843 1.350 . S
N841 S839 1.610 . S
N841 C842 1.351 . S
C842 C836 1.428 . S
C842 N841 1.351 . S
C842 C843 1.434 . S
C843 C834 1.429 . S
C843 N840 1.350 . S
C843 C842 1.434 . S
C844 C845 1.369 . S
C844 C846 1.419 . S
C844 H848 0.930 . S
C845 C844 1.369 . S
C845 C854 1.429 . S
C846 C844 1.419 . S
C846 C847 1.363 . S
C846 H849 0.929 . S
C847 C846 1.363 . S
C847 C853 1.428 . S
H848 C844 0.930 . S
H849 C846 0.929 . S
S850 N851 1.613 1_455 S
S850 N852 1.610 1_455 S
N851 S850 1.613 1_655 S
N851 C854 1.350 . S
N852 S850 1.610 1_655 S
N852 C853 1.351 . S
C853 C847 1.428 . S
C853 N852 1.351 . S
C853 C854 1.434 . S
C854 C845 1.429 . S
C854 N851 1.350 . S
C854 C853 1.434 . S
C855 C856 1.369 . S
C855 C857 1.402 1_565 S
C855 H859 0.930 . S
C856 C855 1.369 . S
C856 C865 1.429 . S
C857 C855 1.402 1_545 S
C857 C858 1.375 . S
C857 H860 0.934 . S
C858 C857 1.375 . S
C858 C864 1.428 . S
H859 C855 0.930 . S
H860 C857 0.934 . S
S861 N862 1.613 . S
S861 N863 1.610 1_565 S
N862 S861 1.613 . S
N862 C865 1.350 . S
N863 S861 1.610 1_545 S
N863 C864 1.351 . S
C864 C858 1.428 . S
C864 N863 1.351 . S
C864 C865 1.434 1_545 S
C865 C856 1.429 . S
C865 N862 1.350 . S
C865 C864 1.434 1_565 S
C866 C867 1.369 . S
C866 C868 1.419 1_455 S
C866 H870 0.930 . S
C867 C866 1.369 . S
C867 C876 1.429 . S
C868 C866 1.419 1_655 S
C868 C869 1.363 . S
C868 H871 0.929 . S
C869 C868 1.363 . S
C869 C875 1.428 1_655 S
H870 C866 0.930 . S
H871 C868 0.929 . S
S872 N873 1.613 . S
S872 N874 1.610 . S
N873 S872 1.613 . S
N873 C876 1.350 . S
N874 S872 1.610 . S
N874 C875 1.351 . S
C875 C869 1.428 1_455 S
C875 N874 1.351 . S
C875 C876 1.434 . S
C876 C867 1.429 . S
C876 N873 1.350 . S
C876 C875 1.434 . S
C877 C878 1.369 . S
C877 C879 1.419 . S
C877 H881 0.930 . S
C878 C877 1.369 . S
C878 C887 1.429 . S
C879 C877 1.419 . S
C879 C880 1.363 . S
C879 H882 0.929 . S
C880 C879 1.363 . S
C880 C886 1.428 . S
H881 C877 0.930 . S
H882 C879 0.929 . S
S883 N884 1.613 . S
S883 N885 1.610 . S
N884 S883 1.613 . S
N884 C887 1.350 . S
N885 S883 1.610 . S
N885 C886 1.351 . S
C886 C880 1.428 . S
C886 N885 1.351 . S
C886 C887 1.434 . S
C887 C878 1.429 . S
C887 N884 1.350 . S
C887 C886 1.434 . S
C888 C889 1.370 1_655 S
C888 C890 1.419 . S
C888 H892 0.930 1_655 S
C889 C888 1.370 1_455 S
C889 C898 1.431 1_455 S
C890 C888 1.419 . S
C890 C891 1.363 . S
C890 H893 0.929 . S
C891 C890 1.363 . S
C891 C897 1.428 . S
H892 C888 0.930 1_455 S
H893 C890 0.929 . S
S894 N895 1.613 . S
S894 N896 1.610 . S
N895 S894 1.613 . S
N895 C898 1.350 . S
N896 S894 1.610 . S
N896 C897 1.351 . S
C897 C891 1.428 . S
C897 N896 1.351 . S
C897 C898 1.434 . S
C898 C889 1.431 1_655 S
C898 N895 1.350 . S
C898 C897 1.434 . S
C899 C900 1.369 . S
C899 C901 1.419 . S
C899 H903 0.930 . S
C900 C899 1.369 . S
C900 C909 1.429 . S
C901 C899 1.419 . S
C901 C902 1.363 . S
C901 H904 0.929 . S
C902 C901 1.363 . S
C902 C908 1.428 . S
H903 C899 0.930 . S
H904 C901 0.929 . S
S905 N906 1.613 . S
S905 N907 1.610 . S
N906 S905 1.613 . S
N906 C909 1.350 . S
N907 S905 1.610 . S
N907 C908 1.351 . S
C908 C902 1.428 . S
C908 N907 1.351 . S
C908 C909 1.434 . S
C909 C900 1.429 . S
C909 N906 1.350 . S
C909 C908 1.434 . S
C910 C911 1.381 . S
C910 C912 1.419 . S
C910 H914 0.930 . S
C911 C910 1.381 . S
C911 C920 1.433 . S
C912 C910 1.419 . S
C912 C913 1.363 . S
C912 H915 0.929 . S
C913 C912 1.363 . S
C913 C919 1.428 . S
H914 C910 0.930 . S
H915 C912 0.929 . S
S916 N917 1.613 . S
S916 N918 1.610 . S
N917 S916 1.613 . S
N917 C920 1.350 . S
N918 S916 1.610 . S
N918 C919 1.351 . S
C919 C913 1.428 . S
C919 N918 1.351 . S
C919 C920 1.434 . S
C920 C911 1.433 . S
C920 N917 1.350 . S
C920 C919 1.434 . S
C921 C922 1.369 . S
C921 C923 1.419 . S
C921 H925 0.930 . S
C922 C921 1.369 . S
C922 C931 1.429 . S
C923 C921 1.419 . S
C923 C924 1.363 . S
C923 H926 0.929 . S
C924 C923 1.363 . S
C924 C930 1.428 . S
H925 C921 0.930 . S
H926 C923 0.929 . S
S927 N928 1.613 . S
S927 N929 1.610 . S
N928 S927 1.613 . S
N928 C931 1.350 . S
N929 S927 1.610 . S
N929 C930 1.351 . S
C930 C924 1.428 . S
C930 N929 1.351 . S
C930 C931 1.434 . S
C931 C922 1.429 . S
C931 N928 1.350 . S
C931 C930 1.434 . S
C932 C933 1.369 . S
C932 C934 1.419 . S
C932 H936 0.930 . S
C933 C932 1.369 . S
C933 C942 1.429 . S
C934 C932 1.419 . S
C934 C935 1.363 . S
C934 H937 0.929 . S
C935 C934 1.363 . S
C935 C941 1.428 . S
H936 C932 0.930 . S
H937 C934 0.929 . S
S938 N939 1.613 . S
S938 N940 1.610 . S
N939 S938 1.613 . S
N939 C942 1.350 . S
N940 S938 1.610 . S
N940 C941 1.351 . S
C941 C935 1.428 . S
C941 N940 1.351 . S
C941 C942 1.434 . S
C942 C933 1.429 . S
C942 N939 1.350 . S
C942 C941 1.434 . S
C943 C944 1.369 . S
C943 C945 1.419 . S
C943 H947 0.930 . S
C944 C943 1.369 . S
C944 C953 1.429 . S
C945 C943 1.419 . S
C945 C946 1.363 . S
C945 H948 0.929 . S
C946 C945 1.363 . S
C946 C952 1.428 . S
H947 C943 0.930 . S
H948 C945 0.929 . S
S949 N950 1.613 . S
S949 N951 1.610 . S
N950 S949 1.613 . S
N950 C953 1.350 . S
N951 S949 1.610 . S
N951 C952 1.351 . S
C952 C946 1.428 . S
C952 N951 1.351 . S
C952 C953 1.434 . S
C953 C944 1.429 . S
C953 N950 1.350 . S
C953 C952 1.434 . S
C954 C955 1.369 . S
C954 C956 1.419 . S
C954 H958 0.930 . S
C955 C954 1.369 . S
C955 C964 1.429 . S
C956 C954 1.419 . S
C956 C957 1.363 . S
C956 H959 0.929 1_565 S
C957 C956 1.363 . S
C957 C963 1.428 . S
H958 C954 0.930 . S
H959 C956 0.929 1_545 S
S960 N961 1.613 . S
S960 N962 1.610 . S
N961 S960 1.613 . S
N961 C964 1.350 . S
N962 S960 1.610 . S
N962 C963 1.351 . S
C963 C957 1.428 . S
C963 N962 1.351 . S
C963 C964 1.434 . S
C964 C955 1.429 . S
C964 N961 1.350 . S
C964 C963 1.434 . S
C965 C966 1.369 . S
C965 C967 1.419 . S
C965 H969 0.930 . S
C966 C965 1.369 . S
C966 C975 1.429 . S
C967 C965 1.419 . S
C967 C968 1.363 . S
C967 H970 0.929 . S
C968 C967 1.363 . S
C968 C974 1.428 . S
H969 C965 0.930 . S
H970 C967 0.929 . S
S971 N972 1.613 . S
S971 N973 1.610 . S
N972 S971 1.613 . S
N972 C975 1.350 1_655 S
N973 S971 1.610 . S
N973 C974 1.351 1_655 S
C974 C968 1.428 . S
C974 N973 1.351 1_455 S
C974 C975 1.434 . S
C975 C966 1.429 . S
C975 N972 1.350 1_455 S
C975 C974 1.434 . S
C976 C977 1.369 . S
C976 C978 1.419 . S
C976 H980 0.930 . S
C977 C976 1.369 . S
C977 C986 1.429 . S
C978 C976 1.419 . S
C978 C979 1.363 . S
C978 H981 0.929 . S
C979 C978 1.363 . S
C979 C985 1.428 . S
H980 C976 0.930 . S
H981 C978 0.929 . S
S982 N983 1.613 . S
S982 N984 1.610 . S
N983 S982 1.613 . S
N983 C986 1.350 . S
N984 S982 1.610 . S
N984 C985 1.351 . S
C985 C979 1.428 . S
C985 N984 1.351 . S
C985 C986 1.434 . S
C986 C977 1.429 . S
C986 N983 1.350 . S
C986 C985 1.434 . S
C987 C988 1.369 . S
C987 C989 1.419 . S
C987 H991 0.930 . S
C988 C987 1.369 . S
C988 C997 1.429 . S
C989 C987 1.419 . S
C989 C990 1.363 . S
C989 H992 0.929 . S
C990 C989 1.363 . S
C990 C996 1.428 . S
H991 C987 0.930 . S
H992 C989 0.929 . S
S993 N994 1.613 . S
S993 N995 1.610 . S
N994 S993 1.613 . S
N994 C997 1.350 1_455 S
N995 S993 1.610 . S
N995 C996 1.351 1_455 S
C996 C990 1.428 . S
C996 N995 1.351 1_655 S
C996 C997 1.434 . S
C997 C988 1.429 . S
C997 N994 1.350 1_655 S
C997 C996 1.434 . S
C998 C999 1.369 . S
C998 C1000 1.419 . S
C998 H1002 0.930 . S
C999 C998 1.369 . S
C999 C1008 1.429 . S
C1000 C998 1.419 . S
C1000 C1001 1.363 . S
C1000 H1003 0.929 . S
C1001 C1000 1.363 . S
C1001 C1007 1.428 . S
H1002 C998 0.930 . S
H1003 C1000 0.929 . S
S1004 N1005 1.613 . S
S1004 N1006 1.610 . S
N1005 S1004 1.613 . S
N1005 C1008 1.350 . S
N1006 S1004 1.610 . S
N1006 C1007 1.351 . S
C1007 C1001 1.428 . S
C1007 N1006 1.351 . S
C1007 C1008 1.434 . S
C1008 C999 1.429 . S
C1008 N1005 1.350 . S
C1008 C1007 1.434 . S
C1009 C1010 1.369 . S
C1009 C1011 1.419 . S
C1009 H1013 0.930 . S
C1010 C1009 1.369 . S
C1010 C1019 1.429 . S
C1011 C1009 1.419 . S
C1011 C1012 1.363 . S
C1011 H1014 0.929 . S
C1012 C1011 1.363 . S
C1012 C1018 1.428 . S
H1013 C1009 0.930 . S
H1014 C1011 0.929 . S
S1015 N1016 1.613 . S
S1015 N1017 1.610 . S
N1016 S1015 1.613 . S
N1016 C1019 1.350 . S
N1017 S1015 1.610 . S
N1017 C1018 1.351 . S
C1018 C1012 1.428 . S
C1018 N1017 1.351 . S
C1018 C1019 1.434 . S
C1019 C1010 1.429 . S
C1019 N1016 1.350 . S
C1019 C1018 1.434 . S
C1020 C1021 1.369 . S
C1020 C1022 1.419 . S
C1020 H1024 0.930 . S
C1021 C1020 1.369 . S
C1021 C1030 1.429 . S
C1022 C1020 1.419 . S
C1022 C1023 1.363 . S
C1022 H1025 0.929 . S
C1023 C1022 1.363 . S
C1023 C1029 1.428 . S
H1024 C1020 0.930 . S
H1025 C1022 0.929 . S
S1026 N1027 1.613 . S
S1026 N1028 1.610 . S
N1027 S1026 1.613 . S
N1027 C1030 1.350 . S
N1028 S1026 1.610 . S
N1028 C1029 1.351 . S
C1029 C1023 1.428 . S
C1029 N1028 1.351 . S
C1029 C1030 1.434 . S
C1030 C1021 1.429 . S
C1030 N1027 1.350 . S
C1030 C1029 1.434 . S
C1031 C1032 1.369 . S
C1031 C1033 1.419 . S
C1031 H1035 0.930 . S
C1032 C1031 1.369 . S
C1032 C1041 1.429 . S
C1033 C1031 1.419 . S
C1033 C1034 1.363 . S
C1033 H1036 0.929 . S
C1034 C1033 1.363 . S
C1034 C1040 1.428 . S
H1035 C1031 0.930 . S
H1036 C1033 0.929 . S
S1037 N1038 1.613 . S
S1037 N1039 1.610 . S
N1038 S1037 1.613 . S
N1038 C1041 1.350 . S
N1039 S1037 1.610 . S
N1039 C1040 1.351 . S
C1040 C1034 1.428 . S
C1040 N1039 1.351 . S
C1040 C1041 1.434 . S
C1041 C1032 1.429 . S
C1041 N1038 1.350 . S
C1041 C1040 1.434 . S
C1042 C1043 1.369 . S
C1042 C1044 1.419 . S
C1042 H1046 0.930 . S
C1043 C1042 1.369 . S
C1043 C1052 1.429 . S
C1044 C1042 1.419 . S
C1044 C1045 1.363 . S
C1044 H1047 0.929 . S
C1045 C1044 1.363 . S
C1045 C1051 1.428 . S
H1046 C1042 0.930 . S
H1047 C1044 0.929 . S
S1048 N1049 1.613 . S
S1048 N1050 1.610 . S
N1049 S1048 1.613 . S
N1049 C1052 1.350 . S
N1050 S1048 1.610 . S
N1050 C1051 1.351 . S
C1051 C1045 1.428 . S
C1051 N1050 1.351 . S
C1051 C1052 1.434 . S
C1052 C1043 1.429 . S
C1052 N1049 1.350 . S
C1052 C1051 1.434 . S
C1053 C1054 1.369 . S
C1053 C1055 1.419 . S
C1053 H1057 0.930 . S
C1054 C1053 1.369 . S
C1054 C1063 1.429 . S
C1055 C1053 1.419 . S
C1055 C1056 1.363 . S
C1055 H1058 0.929 . S
C1056 C1055 1.363 . S
C1056 C1062 1.428 . S
H1057 C1053 0.930 . S
H1058 C1055 0.929 . S
S1059 N1060 1.613 . S
S1059 N1061 1.610 . S
N1060 S1059 1.613 . S
N1060 C1063 1.350 . S
N1061 S1059 1.610 . S
N1061 C1062 1.351 . S
C1062 C1056 1.428 . S
C1062 N1061 1.351 . S
C1062 C1063 1.434 . S
C1063 C1054 1.429 . S
C1063 N1060 1.350 . S
C1063 C1062 1.434 . S
C1064 C1065 1.369 . S
C1064 C1066 1.419 . S
C1064 H1068 0.930 . S
C1065 C1064 1.369 . S
C1065 C1074 1.429 . S
C1066 C1064 1.419 . S
C1066 C1067 1.363 . S
C1066 H1069 0.929 . S
C1067 C1066 1.363 . S
C1067 C1073 1.428 . S
H1068 C1064 0.930 . S
H1069 C1066 0.929 . S
S1070 N1071 1.613 . S
S1070 N1072 1.610 . S
N1071 S1070 1.613 . S
N1071 C1074 1.350 . S
N1072 S1070 1.610 . S
N1072 C1073 1.351 . S
C1073 C1067 1.428 . S
C1073 N1072 1.351 . S
C1073 C1074 1.434 . S
C1074 C1065 1.429 . S
C1074 N1071 1.350 . S
C1074 C1073 1.434 . S
C1075 C1076 1.369 . S
C1075 C1077 1.419 . S
C1075 H1079 0.930 . S
C1076 C1075 1.369 . S
C1076 C1085 1.429 . S
C1077 C1075 1.419 . S
C1077 C1078 1.363 . S
C1077 H1080 0.929 . S
C1078 C1077 1.363 . S
C1078 C1084 1.428 . S
H1079 C1075 0.930 . S
H1080 C1077 0.929 . S
S1081 N1082 1.613 . S
S1081 N1083 1.610 . S
N1082 S1081 1.613 . S
N1082 C1085 1.350 . S
N1083 S1081 1.610 . S
N1083 C1084 1.351 . S
C1084 C1078 1.428 . S
C1084 N1083 1.351 . S
C1084 C1085 1.434 . S
C1085 C1076 1.429 . S
C1085 N1082 1.350 . S
C1085 C1084 1.434 . S
C1086 C1087 1.369 . S
C1086 C1088 1.419 . S
C1086 H1090 0.930 . S
C1087 C1086 1.369 . S
C1087 C1096 1.429 . S
C1088 C1086 1.419 . S
C1088 C1089 1.363 . S
C1088 H1091 0.929 . S
C1089 C1088 1.363 . S
C1089 C1095 1.428 . S
H1090 C1086 0.930 . S
H1091 C1088 0.929 . S
S1092 N1093 1.613 . S
S1092 N1094 1.610 . S
N1093 S1092 1.613 . S
N1093 C1096 1.350 . S
N1094 S1092 1.610 . S
N1094 C1095 1.351 . S
C1095 C1089 1.428 . S
C1095 N1094 1.351 . S
C1095 C1096 1.434 . S
C1096 C1087 1.429 . S
C1096 N1093 1.350 . S
C1096 C1095 1.434 . S
C1097 C1098 1.369 . S
C1097 C1099 1.419 . S
C1097 H1101 0.930 . S
C1098 C1097 1.369 . S
C1098 C1107 1.429 . S
C1099 C1097 1.419 . S
C1099 C1100 1.363 . S
C1099 H1102 0.929 . S
C1100 C1099 1.363 . S
C1100 C1106 1.428 . S
H1101 C1097 0.930 . S
H1102 C1099 0.929 . S
S1103 N1104 1.613 . S
S1103 N1105 1.610 . S
N1104 S1103 1.613 . S
N1104 C1107 1.350 . S
N1105 S1103 1.610 . S
N1105 C1106 1.351 . S
C1106 C1100 1.428 . S
C1106 N1105 1.351 . S
C1106 C1107 1.434 . S
C1107 C1098 1.429 . S
C1107 N1104 1.350 . S
C1107 C1106 1.434 . S
C1108 C1109 1.369 . S
C1108 C1110 1.419 . S
C1108 H1112 0.930 . S
C1109 C1108 1.369 . S
C1109 C1118 1.429 . S
C1110 C1108 1.419 . S
C1110 C1111 1.363 . S
C1110 H1113 0.929 . S
C1111 C1110 1.363 . S
C1111 C1117 1.428 . S
H1112 C1108 0.930 . S
H1113 C1110 0.929 . S
S1114 N1115 1.613 . S
S1114 N1116 1.610 . S
N1115 S1114 1.613 . S
N1115 C1118 1.350 . S
N1116 S1114 1.610 . S
N1116 C1117 1.351 . S
C1117 C1111 1.428 . S
C1117 N1116 1.351 . S
C1117 C1118 1.434 . S
C1118 C1109 1.429 . S
C1118 N1115 1.350 . S
C1118 C1117 1.434 . S
C1119 C1120 1.369 . S
C1119 C1121 1.419 . S
C1119 H1123 0.930 . S
C1120 C1119 1.369 . S
C1120 C1129 1.429 . S
C1121 C1119 1.419 . S
C1121 C1122 1.363 . S
C1121 H1124 0.929 . S
C1122 C1121 1.363 . S
C1122 C1128 1.428 . S
H1123 C1119 0.930 . S
H1124 C1121 0.929 . S
S1125 N1126 1.613 . S
S1125 N1127 1.610 . S
N1126 S1125 1.613 . S
N1126 C1129 1.350 . S
N1127 S1125 1.610 . S
N1127 C1128 1.351 . S
C1128 C1122 1.428 . S
C1128 N1127 1.351 . S
C1128 C1129 1.434 . S
C1129 C1120 1.429 . S
C1129 N1126 1.350 . S
C1129 C1128 1.434 . S
C1130 C1131 1.369 . S
C1130 C1132 1.419 . S
C1130 H1134 0.930 . S
C1131 C1130 1.369 . S
C1131 C1140 1.429 . S
C1132 C1130 1.419 . S
C1132 C1133 1.363 . S
C1132 H1135 0.929 . S
C1133 C1132 1.363 . S
C1133 C1139 1.428 . S
H1134 C1130 0.930 . S
H1135 C1132 0.929 . S
S1136 N1137 1.613 . S
S1136 N1138 1.610 . S
N1137 S1136 1.613 . S
N1137 C1140 1.350 . S
N1138 S1136 1.610 . S
N1138 C1139 1.351 . S
C1139 C1133 1.428 . S
C1139 N1138 1.351 . S
C1139 C1140 1.434 . S
C1140 C1131 1.429 . S
C1140 N1137 1.350 . S
C1140 C1139 1.434 . S
C1141 C1142 1.369 . S
C1141 C1143 1.419 . S
C1141 H1145 0.930 . S
C1142 C1141 1.369 . S
C1142 C1151 1.429 . S
C1143 C1141 1.419 . S
C1143 C1144 1.363 . S
C1143 H1146 0.929 . S
C1144 C1143 1.363 . S
C1144 C1150 1.428 . S
H1145 C1141 0.930 . S
H1146 C1143 0.929 . S
S1147 N1148 1.613 . S
S1147 N1149 1.610 . S
N1148 S1147 1.613 . S
N1148 C1151 1.350 . S
N1149 S1147 1.610 . S
N1149 C1150 1.351 . S
C1150 C1144 1.428 . S
C1150 N1149 1.351 . S
C1150 C1151 1.434 . S
C1151 C1142 1.429 . S
C1151 N1148 1.350 . S
C1151 C1150 1.434 . S
C559 C147 1.656 . S
C561 C201 1.665 . S
C570 C158 1.751 . S
C572 C241 1.746 . S
C581 C136 1.585 . S
C583 C293 1.583 . S
C592 C125 1.490 . S
C594 C253 1.475 . S
C605 C281 1.518 . S
C603 C103 1.521 . S
C614 C114 1.399 . S
C616 C213 1.403 1_556 S
C627 C220 1.673 . S
C625 C131 1.647 . S
C638 C260 1.647 . S
C636 C109 1.641 . S
C647 C120 1.645 . S
C649 C280 1.670 1_556 S
C658 C153 1.520 . S
C660 C240 1.529 . S
C669 C164 1.485 . S
C671 C300 1.486 . S
C682 C200 1.526 . S
C680 C142 1.490 . S
C693 C321 1.665 . S
C691 C15 1.656 . S
C702 C26 1.750 . S
C704 C361 1.748 . S
C713 C4 1.587 . S
C715 C413 1.580 . S
C724 C191 1.491 . S
C726 C373 1.473 . S
C735 C169 1.521 . S
C737 C401 1.518 . S
C746 C180 1.399 . S
C748 C333 1.403 . S
C757 C197 1.649 . S
C759 C340 1.673 . S
C768 C175 1.637 . S
C770 C380 1.650 . S
C781 C400 1.670 . S
C779 C186 1.643 . S
C790 C21 1.521 . S
C792 C360 1.529 . S
C803 C420 1.488 . S
C801 C32 1.482 1_455 S
C812 C10 1.490 . S
C814 C320 1.526 . S
C825 C441 1.665 . S
C823 C81 1.652 . S
C834 C92 1.751 . S
C836 C481 1.746 . S
C847 C533 1.580 . S
C845 C70 1.591 . S
C858 C493 1.476 . S
C856 C59 1.491 . S
C869 C521 1.518 . S
C867 C37 1.521 . S
C878 C48 1.404 . S
C880 C453 1.400 . S
C889 C65 1.644 . S
C891 C460 1.673 . S
C900 C43 1.637 . S
C902 C500 1.649 . S
C913 C520 1.675 . S
C911 C54 1.620 1_545 S
C922 C87 1.521 . S
C924 C480 1.530 . S
C933 C98 1.485 . S
C935 C540 1.486 . S
C944 C76 1.492 . S
C946 C440 1.524 . S
C955 C170 1.593 . S
C957 C224 1.555 . S
C968 C264 1.867 . S
C966 C181 1.913 . S
C977 C192 1.555 . S
C979 C287 1.569 . S
C988 C71 1.731 . S
C990 C247 1.723 . S
C999 C82 1.675 . S
C1001 C304 1.653 . S
C1012 C207 1.369 . S
C1010 C93 1.362 . S
C1021 C38 1.589 . S
C1023 C344 1.558 . S
C1032 C49 1.911 . S
C1034 C384 1.869 . S
C1043 C60 1.549 . S
C1045 C407 1.572 . S
C1054 C137 1.730 . S
C1056 C367 1.724 . S
C1067 C424 1.655 . S
C1065 C148 1.674 . S
C1076 C159 1.360 . S
C1078 C327 1.369 . S
C1087 C104 1.594 . S
C1089 C464 1.555 . S
C1098 C115 1.911 . S
C1100 C504 1.868 . S
C1111 C527 1.571 . S
C1109 C126 1.549 . S
C1120 C5 1.734 . S
C1122 C487 1.723 . S
C1131 C16 1.677 . S
C1133 C544 1.652 . S
C1142 C27 1.362 . S
C1144 C447 1.370 . S
