# Generated by pormake.
# Topology ssc, (4,4)-cn, num edge types: 1
# Building blocks:
#     Node 0, Type 0, BuildingBlock: GALJAG_clean_sbu_0, # of connection points: 4
#     Node 1, Type 0, BuildingBlock: GALJAG_clean_sbu_0, # of connection points: 4
#     Node 2, Type 0, BuildingBlock: GALJAG_clean_sbu_0, # of connection points: 4
#     Node 3, Type 0, BuildingBlock: GALJAG_clean_sbu_0, # of connection points: 4
#     Node 4, Type 0, BuildingBlock: GALJAG_clean_sbu_0, # of connection points: 4
#     Node 5, Type 0, BuildingBlock: GALJAG_clean_sbu_0, # of connection points: 4
#     Node 6, Type 0, BuildingBlock: GALJAG_clean_sbu_0, # of connection points: 4
#     Node 7, Type 0, BuildingBlock: GALJAG_clean_sbu_0, # of connection points: 4
#     Node 8, Type 0, BuildingBlock: GALJAG_clean_sbu_0, # of connection points: 4
#     Node 9, Type 0, BuildingBlock: GALJAG_clean_sbu_0, # of connection points: 4
#     Node 10, Type 0, BuildingBlock: GALJAG_clean_sbu_0, # of connection points: 4
#     Node 11, Type 0, BuildingBlock: GALJAG_clean_sbu_0, # of connection points: 4
#     Node 12, Type 1, BuildingBlock: GIZVER_clean_linker_0, # of connection points: 4
#     Node 13, Type 1, BuildingBlock: GIZVER_clean_linker_0, # of connection points: 4
#     Node 14, Type 1, BuildingBlock: GIZVER_clean_linker_0, # of connection points: 4
#     Node 15, Type 1, BuildingBlock: GIZVER_clean_linker_0, # of connection points: 4
#     Node 16, Type 1, BuildingBlock: GIZVER_clean_linker_0, # of connection points: 4
#     Node 17, Type 1, BuildingBlock: GIZVER_clean_linker_0, # of connection points: 4
#     Node 18, Type 1, BuildingBlock: GIZVER_clean_linker_0, # of connection points: 4
#     Node 19, Type 1, BuildingBlock: GIZVER_clean_linker_0, # of connection points: 4
#     Node 20, Type 1, BuildingBlock: GIZVER_clean_linker_0, # of connection points: 4
#     Node 21, Type 1, BuildingBlock: GIZVER_clean_linker_0, # of connection points: 4
#     Node 22, Type 1, BuildingBlock: GIZVER_clean_linker_0, # of connection points: 4
#     Node 23, Type 1, BuildingBlock: GIZVER_clean_linker_0, # of connection points: 4
#     Edge 24, Type (0, 1), BuildingBlock: OJICUG_clean_linker_0, # of connection points: 2
#     Edge 25, Type (0, 1), BuildingBlock: OJICUG_clean_linker_0, # of connection points: 2
#     Edge 26, Type (0, 1), BuildingBlock: OJICUG_clean_linker_0, # of connection points: 2
#     Edge 27, Type (0, 1), BuildingBlock: OJICUG_clean_linker_0, # of connection points: 2
#     Edge 28, Type (0, 1), BuildingBlock: OJICUG_clean_linker_0, # of connection points: 2
#     Edge 29, Type (0, 1), BuildingBlock: OJICUG_clean_linker_0, # of connection points: 2
#     Edge 30, Type (0, 1), BuildingBlock: OJICUG_clean_linker_0, # of connection points: 2
#     Edge 31, Type (0, 1), BuildingBlock: OJICUG_clean_linker_0, # of connection points: 2
#     Edge 32, Type (0, 1), BuildingBlock: OJICUG_clean_linker_0, # of connection points: 2
#     Edge 33, Type (0, 1), BuildingBlock: OJICUG_clean_linker_0, # of connection points: 2
#     Edge 34, Type (0, 1), BuildingBlock: OJICUG_clean_linker_0, # of connection points: 2
#     Edge 35, Type (0, 1), BuildingBlock: OJICUG_clean_linker_0, # of connection points: 2
#     Edge 36, Type (0, 1), BuildingBlock: OJICUG_clean_linker_0, # of connection points: 2
#     Edge 37, Type (0, 1), BuildingBlock: OJICUG_clean_linker_0, # of connection points: 2
#     Edge 38, Type (0, 1), BuildingBlock: OJICUG_clean_linker_0, # of connection points: 2
#     Edge 39, Type (0, 1), BuildingBlock: OJICUG_clean_linker_0, # of connection points: 2
#     Edge 40, Type (0, 1), BuildingBlock: OJICUG_clean_linker_0, # of connection points: 2
#     Edge 41, Type (0, 1), BuildingBlock: OJICUG_clean_linker_0, # of connection points: 2
#     Edge 42, Type (0, 1), BuildingBlock: OJICUG_clean_linker_0, # of connection points: 2
#     Edge 43, Type (0, 1), BuildingBlock: OJICUG_clean_linker_0, # of connection points: 2
#     Edge 44, Type (0, 1), BuildingBlock: OJICUG_clean_linker_0, # of connection points: 2
#     Edge 45, Type (0, 1), BuildingBlock: OJICUG_clean_linker_0, # of connection points: 2
#     Edge 46, Type (0, 1), BuildingBlock: OJICUG_clean_linker_0, # of connection points: 2
#     Edge 47, Type (0, 1), BuildingBlock: OJICUG_clean_linker_0, # of connection points: 2
#     Edge 48, Type (0, 1), BuildingBlock: OJICUG_clean_linker_0, # of connection points: 2
#     Edge 49, Type (0, 1), BuildingBlock: OJICUG_clean_linker_0, # of connection points: 2
#     Edge 50, Type (0, 1), BuildingBlock: OJICUG_clean_linker_0, # of connection points: 2
#     Edge 51, Type (0, 1), BuildingBlock: OJICUG_clean_linker_0, # of connection points: 2
#     Edge 52, Type (0, 1), BuildingBlock: OJICUG_clean_linker_0, # of connection points: 2
#     Edge 53, Type (0, 1), BuildingBlock: OJICUG_clean_linker_0, # of connection points: 2
#     Edge 54, Type (0, 1), BuildingBlock: OJICUG_clean_linker_0, # of connection points: 2
#     Edge 55, Type (0, 1), BuildingBlock: OJICUG_clean_linker_0, # of connection points: 2
#     Edge 56, Type (0, 1), BuildingBlock: OJICUG_clean_linker_0, # of connection points: 2
#     Edge 57, Type (0, 1), BuildingBlock: OJICUG_clean_linker_0, # of connection points: 2
#     Edge 58, Type (0, 1), BuildingBlock: OJICUG_clean_linker_0, # of connection points: 2
#     Edge 59, Type (0, 1), BuildingBlock: OJICUG_clean_linker_0, # of connection points: 2
#     Edge 60, Type (0, 1), BuildingBlock: OJICUG_clean_linker_0, # of connection points: 2
#     Edge 61, Type (0, 1), BuildingBlock: OJICUG_clean_linker_0, # of connection points: 2
#     Edge 62, Type (0, 1), BuildingBlock: OJICUG_clean_linker_0, # of connection points: 2
#     Edge 63, Type (0, 1), BuildingBlock: OJICUG_clean_linker_0, # of connection points: 2
#     Edge 64, Type (0, 1), BuildingBlock: OJICUG_clean_linker_0, # of connection points: 2
#     Edge 65, Type (0, 1), BuildingBlock: OJICUG_clean_linker_0, # of connection points: 2
#     Edge 66, Type (0, 1), BuildingBlock: OJICUG_clean_linker_0, # of connection points: 2
#     Edge 67, Type (0, 1), BuildingBlock: OJICUG_clean_linker_0, # of connection points: 2
#     Edge 68, Type (0, 1), BuildingBlock: OJICUG_clean_linker_0, # of connection points: 2
#     Edge 69, Type (0, 1), BuildingBlock: OJICUG_clean_linker_0, # of connection points: 2
#     Edge 70, Type (0, 1), BuildingBlock: OJICUG_clean_linker_0, # of connection points: 2
#     Edge 71, Type (0, 1), BuildingBlock: OJICUG_clean_linker_0, # of connection points: 2
# Relax obj value: 0.069
# Max RMSD: 0.293
# Mean RMSD: 0.243
data_MOF--net-ssc--node1-GALJAG_clean_sbu_0--node2-GIZVER_clean_linker_0--edge1-OJICUG_clean_linker_0
_symmetry_space_group_name_H-M    P1
_symmetry_Int_Tables_number       1
_symmetry_cell_setting            triclinic
loop_
_symmetry_equiv_pos_as_xyz
'x, y, z'
_cell_length_a     23.337436
_cell_length_b     23.365198
_cell_length_c     23.335798
_cell_angle_alpha  90.219149
_cell_angle_beta   90.015829
_cell_angle_gamma 91.105093
loop_
_atom_site_label
_atom_site_type_symbol
_atom_site_fract_x
_atom_site_fract_y
_atom_site_fract_z
_atom_type_partial_charge
In0 In 0.043 0.32946 0.10039 0.0
O1 O 0.13033 0.32843 0.14765 0.0
O2 O 0.0538 0.33656 0.19594 0.0
C3 C 0.07001 0.25244 0.01764 0.0
C4 C 0.93998 0.29336 0.14168 0.0
C5 C 0.04911 0.43005 0.04339 0.0
O6 O 0.05891 0.30397 0.00801 0.0
O7 O 0.07022 0.23953 0.07022 0.0
O8 O 0.00371 0.39969 0.04535 0.0
O9 O 0.08905 0.41214 0.0746 0.0
C10 C 0.10743 0.33353 0.1964 0.0
O11 O 0.95942 0.34348 0.15079 0.0
O12 O 0.97019 0.26391 0.10832 0.0
In13 In 0.96728 0.81786 0.40534 0.0
O14 O 0.92711 0.79279 0.49082 0.0
O15 O 0.97151 0.72911 0.44546 0.0
C16 C 0.89288 0.80223 0.31841 0.0
C17 C 0.9668 0.91185 0.47242 0.0
C18 C 0.06855 0.8126 0.34832 0.0
O19 O 0.92385 0.76259 0.33641 0.0
O20 O 0.89647 0.84805 0.34688 0.0
O21 O 0.02935 0.84613 0.33367 0.0
O22 O 0.05856 0.7861 0.39436 0.0
C23 C 0.94637 0.74308 0.49105 0.0
O24 O 0.01179 0.88402 0.46277 0.0
O25 O 0.92368 0.89539 0.44356 0.0
In26 In 0.4554 0.68296 0.60902 0.0
O27 O 0.50316 0.61391 0.55958 0.0
O28 O 0.41221 0.60768 0.56311 0.0
C29 C 0.55649 0.69402 0.66693 0.0
C30 C 0.44169 0.76118 0.52421 0.0
C31 C 0.37508 0.68636 0.69293 0.0
O32 O 0.51651 0.66075 0.68326 0.0
O33 O 0.5469 0.71807 0.61971 0.0
O34 O 0.40543 0.72949 0.67966 0.0
O35 O 0.38257 0.64328 0.66151 0.0
C36 C 0.45797 0.58843 0.54232 0.0
O37 O 0.42873 0.70911 0.51882 0.0
O38 O 0.45608 0.77532 0.57447 0.0
In39 In 0.54354 0.18003 0.8892 0.0
O40 O 0.59911 0.21713 0.81669 0.0
O41 O 0.60544 0.12864 0.83448 0.0
C42 C 0.57547 0.26036 0.968 0.0
C43 C 0.44316 0.20286 0.8362 0.0
C44 C 0.52697 0.09082 0.96121 0.0
O45 O 0.55384 0.27317 0.92039 0.0
O46 O 0.58643 0.20816 0.97265 0.0
O47 O 0.48652 0.12291 0.94663 0.0
O48 O 0.5738 0.10134 0.93602 0.0
C49 C 0.62088 0.16997 0.80333 0.0
O50 O 0.47566 0.16398 0.81834 0.0
O51 O 0.45955 0.22635 0.88219 0.0
In52 In 0.09321 0.04809 0.21957 0.0
O53 O 0.18008 0.01114 0.24614 0.0
O54 O 0.13424 0.97066 0.17866 0.0
C55 C 0.01985 0.99613 0.29318 0.0
C56 C 0.14645 0.14786 0.25021 0.0
C57 C 0.02055 0.0658 0.13053 0.0
O58 O 0.03173 0.97518 0.24498 0.0
O59 O 0.04814 0.041 0.30557 0.0
O60 O 0.00885 0.08002 0.18134 0.0
O61 O 0.07139 0.04954 0.12391 0.0
C62 C 0.1786 0.97174 0.20925 0.0
O63 O 0.15092 0.12679 0.20039 0.0
O64 O 0.11242 0.12059 0.28254 0.0
In65 In 0.32098 0.88174 0.39274 0.0
O66 O 0.31381 0.84012 0.30492 0.0
O67 O 0.39398 0.83652 0.34797 0.0
C68 C 0.22422 0.94315 0.37797 0.0
C69 C 0.30502 0.79723 0.47106 0.0
C70 C 0.39007 0.96943 0.42419 0.0
O71 O 0.27146 0.95695 0.35556 0.0
O72 O 0.22463 0.8959 0.40369 0.0
O73 O 0.35454 0.94618 0.45814 0.0
O74 O 0.39408 0.94514 0.37597 0.0
C75 C 0.36448 0.82183 0.30484 0.0
O76 O 0.32972 0.8442 0.48364 0.0
O77 O 0.28936 0.79312 0.41954 0.0
In78 In 0.37512 0.98024 0.70511 0.0
O79 O 0.30763 0.91534 0.67282 0.0
O80 O 0.34324 0.90261 0.75552 0.0
C81 C 0.44548 0.95654 0.61734 0.0
C82 C 0.29685 0.064 0.70521 0.0
C83 C 0.46226 0.01731 0.77212 0.0
O84 O 0.44844 0.9305 0.66448 0.0
O85 O 0.40288 0.98879 0.61272 0.0
O86 O 0.42646 0.97932 0.78798 0.0
O87 O 0.45065 0.04032 0.72501 0.0
C88 C 0.30737 0.886 0.71815 0.0
O89 O 0.3008 0.02923 0.74614 0.0
O90 O 0.33366 0.0578 0.66632 0.0
In91 In 0.20368 0.07706 0.91829 0.0
O92 O 0.18618 0.15191 0.97812 0.0
O93 O 0.242 0.08802 0.00761 0.0
C94 C 0.10911 0.01157 0.92757 0.0
C95 C 0.20504 0.16138 0.84131 0.0
C96 C 0.28763 0.00351 0.89101 0.0
O97 O 0.14296 0.01969 0.96925 0.0
O98 O 0.12222 0.03843 0.88238 0.0
O99 O 0.29692 0.05376 0.90869 0.0
O100 O 0.23537 0.99106 0.88362 0.0
C101 C 0.22005 0.13606 0.01666 0.0
O102 O 0.25002 0.14064 0.86166 0.0
O103 O 0.15916 0.13643 0.85636 0.0
In104 In 0.69798 0.40418 0.10519 0.0
O105 O 0.72483 0.3423 0.17505 0.0
O106 O 0.63583 0.35367 0.16172 0.0
C107 C 0.78868 0.47429 0.12806 0.0
C108 C 0.7206 0.34089 0.01098 0.0
C109 C 0.6115 0.47552 0.08529 0.0
O110 O 0.73768 0.49002 0.1334 0.0
O111 O 0.79344 0.42157 0.11822 0.0
O112 O 0.64328 0.45818 0.04525 0.0
O113 O 0.62209 0.45476 0.13393 0.0
C114 C 0.67421 0.32717 0.18795 0.0
O115 O 0.68936 0.3228 0.05122 0.0
O116 O 0.73718 0.39216 0.01647 0.0
In117 In 0.889 0.54842 0.2871 0.0
O118 O 0.80694 0.5051 0.25347 0.0
O119 O 0.85386 0.46069 0.31611 0.0
C120 C 0.96753 0.52238 0.20654 0.0
C121 C 0.82079 0.63938 0.27648 0.0
C122 C 0.95999 0.57299 0.3761 0.0
O123 O 0.95912 0.49149 0.25003 0.0
O124 O 0.93377 0.56362 0.20221 0.0
O125 O 0.96593 0.59582 0.3276 0.0
O126 O 0.91562 0.54154 0.38073 0.0
C127 C 0.80975 0.46166 0.2849 0.0
O128 O 0.82267 0.61077 0.32227 0.0
O129 O 0.85573 0.62408 0.23838 0.0
In130 In 0.82004 0.60605 0.61139 0.0
O131 O 0.80245 0.64695 0.69824 0.0
O132 O 0.88727 0.65229 0.66485 0.0
C133 C 0.72442 0.53765 0.61349 0.0
C134 C 0.80717 0.69801 0.54217 0.0
C135 C 0.89882 0.52646 0.58795 0.0
O136 O 0.76802 0.5277 0.64325 0.0
O137 O 0.72771 0.58373 0.58591 0.0
O138 O 0.86658 0.54638 0.54954 0.0
O139 O 0.89391 0.54981 0.63647 0.0
C140 C 0.85312 0.66639 0.70416 0.0
O141 O 0.78957 0.69508 0.593 0.0
O142 O 0.83204 0.65354 0.52462 0.0
In143 In 0.60694 0.44629 0.77055 0.0
O144 O 0.66617 0.37356 0.79813 0.0
O145 O 0.63468 0.37372 0.71275 0.0
C146 C 0.53498 0.43163 0.86112 0.0
C147 C 0.69205 0.52635 0.77564 0.0
C148 C 0.53399 0.48298 0.68959 0.0
O149 O 0.52461 0.41052 0.81232 0.0
O150 O 0.58423 0.45433 0.86562 0.0
O151 O 0.54887 0.51393 0.73153 0.0
O152 O 0.55848 0.43547 0.68715 0.0
C153 C 0.66717 0.35078 0.74883 0.0
O154 O 0.64546 0.53131 0.80218 0.0
O155 O 0.69469 0.48235 0.74468 0.0
H156 H 0.03112 0.15728 0.64276 0.0
H157 H 0.99802 0.09629 0.47074 0.0
H158 H 0.16934 0.10098 0.53669 0.0
H159 H 0.9214 0.1409 0.52199 0.0
H160 H 0.92663 0.10348 0.58819 0.0
H161 H 0.85559 0.15665 0.63968 0.0
H162 H 0.88297 0.33567 0.67195 0.0
H163 H 0.98852 0.25018 0.54929 0.0
C164 C 0.04638 0.14234 0.60159 0.0
C165 C 0.10504 0.13305 0.5938 0.0
C166 C 0.00752 0.13174 0.55621 0.0
C167 C 0.02792 0.10768 0.50451 0.0
C168 C 0.08664 0.09721 0.4971 0.0
C169 C 0.12446 0.11143 0.54138 0.0
C170 C 0.94374 0.14095 0.56409 0.0
C171 C 0.92886 0.19538 0.59614 0.0
C172 C 0.88134 0.19531 0.63384 0.0
C173 C 0.86532 0.24597 0.66164 0.0
C174 C 0.89733 0.2961 0.65254 0.0
C175 C 0.94081 0.29837 0.61136 0.0
C176 C 0.95644 0.24804 0.58282 0.0
H177 H 0.12818 0.66854 0.80741 0.0
H178 H 0.00477 0.74304 0.92219 0.0
H179 H 0.09759 0.84854 0.8032 0.0
H180 H 0.05871 0.60597 0.85668 0.0
H181 H 0.07855 0.63339 0.92548 0.0
H182 H 0.95333 0.6366 0.82231 0.0
H183 H 0.82873 0.60729 0.95465 0.0
H184 H 0.0076 0.61384 0.99714 0.0
C185 C 0.10333 0.70483 0.8212 0.0
C186 C 0.11598 0.75935 0.79879 0.0
C187 C 0.06054 0.69784 0.86365 0.0
C188 C 0.03355 0.74662 0.8859 0.0
C189 C 0.04588 0.80077 0.86323 0.0
C190 C 0.08519 0.80614 0.8182 0.0
C191 C 0.04867 0.63928 0.88896 0.0
C192 C 0.98717 0.63068 0.9082 0.0
C193 C 0.94296 0.63166 0.86731 0.0
C194 C 0.88568 0.62419 0.88417 0.0
C195 C 0.87275 0.6165 0.94218 0.0
C196 C 0.91618 0.61154 0.98303 0.0
C197 C 0.97366 0.61893 0.96601 0.0
H198 H 0.50219 0.74552 0.07994 0.0
H199 H 0.61756 0.832 0.19844 0.0
H200 H 0.61277 0.64904 0.18763 0.0
H201 H 0.53667 0.88447 0.15785 0.0
H202 H 0.56464 0.86997 0.08882 0.0
H203 H 0.49997 0.85879 0.00984 0.0
H204 H 0.31953 0.86746 0.03977 0.0
H205 H 0.43477 0.85581 0.18243 0.0
C206 C 0.53279 0.74455 0.11478 0.0
C207 C 0.55343 0.69176 0.13268 0.0
C208 C 0.55331 0.79566 0.14096 0.0
C209 C 0.59758 0.79297 0.18203 0.0
C210 C 0.61856 0.73997 0.19908 0.0
C211 C 0.59456 0.68989 0.17611 0.0
C212 C 0.53387 0.8537 0.1216 0.0
C213 C 0.47359 0.85352 0.09855 0.0
C214 C 0.46396 0.85612 0.03912 0.0
C215 C 0.40807 0.85999 0.01776 0.0
C216 C 0.36205 0.85952 0.05627 0.0
C217 C 0.37082 0.85946 0.11572 0.0
C218 C 0.42694 0.85503 0.13666 0.0
H219 H 0.54654 0.34617 0.32741 0.0
H220 H 0.50356 0.38608 0.50187 0.0
H221 H 0.67952 0.37726 0.45138 0.0
H222 H 0.43041 0.38534 0.43143 0.0
H223 H 0.45182 0.38731 0.35773 0.0
H224 H 0.35397 0.34357 0.34168 0.0
H225 H 0.33553 0.16329 0.37111 0.0
H226 H 0.48443 0.25266 0.4354 0.0
C227 C 0.55973 0.35243 0.37149 0.0
C228 C 0.61839 0.35769 0.38497 0.0
C229 C 0.51779 0.35998 0.4142 0.0
C230 C 0.53541 0.37531 0.47018 0.0
C231 C 0.59399 0.38111 0.48389 0.0
C232 C 0.6346 0.36916 0.44175 0.0
C233 C 0.45479 0.36225 0.39789 0.0
C234 C 0.42447 0.30494 0.38783 0.0
C235 C 0.37092 0.30429 0.35881 0.0
C236 C 0.3386 0.25317 0.35348 0.0
C237 C 0.36015 0.20299 0.37602 0.0
C238 C 0.41232 0.20258 0.40516 0.0
C239 C 0.44467 0.25341 0.41152 0.0
H240 H 0.60309 0.94632 0.19307 0.0
H241 H 0.67375 0.0712 0.30937 0.0
H242 H 0.54769 0.1201 0.18631 0.0
H243 H 0.69061 0.92843 0.24202 0.0
H244 H 0.72332 0.98306 0.28566 0.0
H245 H 0.57341 0.92547 0.31597 0.0
H246 H 0.63031 0.82115 0.45474 0.0
H247 H 0.75454 0.91191 0.35299 0.0
C248 C 0.60141 0.98853 0.21202 0.0
C249 C 0.56754 0.03053 0.18652 0.0
C250 C 0.63824 0.00232 0.25797 0.0
C251 C 0.64159 0.05915 0.27786 0.0
C252 C 0.60905 0.10184 0.25182 0.0
C253 C 0.56963 0.08641 0.20889 0.0
C254 C 0.68228 0.95958 0.27705 0.0
C255 C 0.6658 0.92545 0.32971 0.0
C256 C 0.6082 0.91003 0.34205 0.0
C257 C 0.59569 0.87302 0.38768 0.0
C258 C 0.64028 0.8508 0.42025 0.0
C259 C 0.69746 0.86387 0.40752 0.0
C260 C 0.71017 0.90167 0.3627 0.0
H261 H 0.23592 0.28417 0.65243 0.0
H262 H 0.26871 0.44599 0.56685 0.0
H263 H 0.37444 0.39484 0.70626 0.0
H264 H 0.18608 0.30756 0.56062 0.0
H265 H 0.15263 0.36183 0.60028 0.0
H266 H 0.21601 0.32391 0.46185 0.0
H267 H 0.15915 0.47531 0.37823 0.0
H268 H 0.14078 0.4588 0.5602 0.0
C269 C 0.26024 0.32383 0.6479 0.0
C270 C 0.30689 0.33516 0.68469 0.0
C271 C 0.24403 0.36458 0.60632 0.0
C272 C 0.27748 0.41523 0.6001 0.0
C273 C 0.32386 0.42597 0.63659 0.0
C274 C 0.33688 0.38696 0.67962 0.0
C275 C 0.1898 0.35385 0.57173 0.0
C276 C 0.18451 0.38981 0.51804 0.0
C277 C 0.20065 0.36729 0.46464 0.0
C278 C 0.19124 0.3983 0.41424 0.0
C279 C 0.16966 0.45362 0.4178 0.0
C280 C 0.14967 0.47549 0.46998 0.0
C281 C 0.15817 0.44361 0.52021 0.0
H282 H 0.8861 0.05022 0.71719 0.0
H283 H 0.84921 0.91579 0.83879 0.0
H284 H 0.94324 0.87961 0.68546 0.0
H285 H 0.79255 0.03659 0.79395 0.0
H286 H 0.8169 0.00718 0.85991 0.0
H287 H 0.94726 0.05549 0.84006 0.0
H288 H 0.92183 0.22652 0.90033 0.0
H289 H 0.7775 0.12416 0.84637 0.0
C290 C 0.89162 0.00667 0.73176 0.0
C291 C 0.92056 0.96752 0.69702 0.0
C292 C 0.86778 0.98867 0.7844 0.0
C293 C 0.87061 0.93069 0.80023 0.0
C294 C 0.89782 0.8911 0.76472 0.0
C295 C 0.92432 0.91041 0.71441 0.0
C296 C 0.83158 0.0283 0.81971 0.0
C297 C 0.85967 0.08503 0.83578 0.0
C298 C 0.91913 0.09128 0.84613 0.0
C299 C 0.94181 0.14353 0.86686 0.0
C300 C 0.90459 0.18824 0.87972 0.0
C301 C 0.84522 0.18132 0.87389 0.0
C302 C 0.82337 0.13017 0.85037 0.0
H303 H 0.26789 0.73624 0.14742 0.0
H304 H 0.23088 0.56933 0.07413 0.0
H305 H 0.13009 0.63278 0.21359 0.0
H306 H 0.32019 0.70578 0.06308 0.0
H307 H 0.34854 0.64825 0.10132 0.0
H308 H 0.27968 0.69194 0.96585 0.0
H309 H 0.34145 0.54697 0.87326 0.0
H310 H 0.36222 0.55536 0.05583 0.0
C311 C 0.24264 0.69707 0.14624 0.0
C312 C 0.19775 0.68917 0.18573 0.0
C313 C 0.25741 0.65294 0.10747 0.0
C314 C 0.22285 0.60265 0.10531 0.0
C315 C 0.17674 0.59601 0.1434 0.0
C316 C 0.16629 0.63807 0.18467 0.0
C317 C 0.31232 0.65971 0.07292 0.0
C318 C 0.31541 0.625 0.01792 0.0
C319 C 0.29721 0.64931 0.96598 0.0
C320 C 0.30636 0.62091 0.91372 0.0
C321 C 0.33125 0.5669 0.91399 0.0
C322 C 0.35284 0.54328 0.96448 0.0
C323 C 0.34399 0.57215 0.01676 0.0
H324 H 0.75333 0.8019 0.06715 0.0
H325 H 0.79302 0.95151 0.96483 0.0
H326 H 0.89897 0.90732 0.10829 0.0
H327 H 0.69759 0.81554 0.98684 0.0
H328 H 0.68015 0.88705 3e-05 0.0
H329 H 0.71634 0.78149 0.89085 0.0
H330 H 0.65102 0.89097 0.76027 0.0
H331 H 0.68978 0.95981 0.92643 0.0
C332 C 0.78186 0.83719 0.0558 0.0
C333 C 0.82845 0.84999 0.09137 0.0
C334 C 0.76937 0.87201 0.00833 0.0
C335 C 0.80397 0.92172 -0.00169 0.0
C336 C 0.85148 0.93386 0.03424 0.0
C337 C 0.86391 0.89677 0.0792 0.0
C338 C 0.71261 0.86023 0.97834 0.0
C339 C 0.7098 0.87096 0.91443 0.0
C340 C 0.70729 0.82418 0.87573 0.0
C341 C 0.68736 0.83151 0.81922 0.0
C342 C 0.67138 0.8863 0.80172 0.0
C343 C 0.6702 0.93219 0.84053 0.0
C344 C 0.69303 0.92516 0.8956 0.0
H345 H 0.45286 0.43655 0.16176 0.0
H346 H 0.28357 0.36104 0.17362 0.0
H347 H 0.42063 0.26473 0.10342 0.0
H348 H 0.32452 0.48147 0.1551 0.0
H349 H 0.30157 0.45103 0.22062 0.0
H350 H 0.39288 0.4404 0.29718 0.0
H351 H 0.4583 0.61116 0.32524 0.0
H352 H 0.36405 0.57167 0.17228 0.0
C353 C 0.42419 0.39993 0.15801 0.0
C354 C 0.44429 0.34867 0.13424 0.0
C355 C 0.36618 0.4041 0.17447 0.0
C356 C 0.32861 0.35732 0.16422 0.0
C357 C 0.34798 0.30683 0.1389 0.0
C358 C 0.40599 0.30255 0.12572 0.0
C359 C 0.34038 0.4598 0.19422 0.0
C360 C 0.37958 0.49977 0.22787 0.0
C361 C 0.40173 0.48315 0.28138 0.0
C362 C 0.43188 0.52308 0.31578 0.0
C363 C 0.43891 0.57952 0.2967 0.0
C364 C 0.41326 0.59785 0.24615 0.0
C365 C 0.38496 0.55745 0.211 0.0
H366 H 0.73704 0.17568 0.54114 0.0
H367 H 0.64966 0.05078 0.43564 0.0
H368 H 0.66211 0.02554 0.61711 0.0
H369 H 0.66747 0.15379 0.40609 0.0
H370 H 0.71979 0.19667 0.44359 0.0
H371 H 0.75319 0.2152 0.34246 0.0
H372 H 0.86345 0.08959 0.2696 0.0
H373 H 0.76888 0.04874 0.42109 0.0
C374 C 0.71773 0.13342 0.53616 0.0
C375 C 0.70338 0.1015 0.58522 0.0
C376 C 0.70144 0.11368 0.48125 0.0
C377 C 0.66854 0.06263 0.47658 0.0
C378 C 0.65433 0.03058 0.52564 0.0
C379 C 0.67652 0.04787 0.57883 0.0
C380 C 0.70901 0.15223 0.42938 0.0
C381 C 0.75387 0.13369 0.38635 0.0
C382 C 0.7708 0.17266 0.343 0.0
C383 C 0.80971 0.15672 0.29999 0.0
C384 C 0.83091 0.10124 0.30052 0.0
C385 C 0.81643 0.06266 0.34418 0.0
C386 C 0.77791 0.0787 0.38692 0.0
H387 H 0.05471 0.56696 0.67995 0.0
H388 H 0.23431 0.57186 0.63917 0.0
H389 H 0.13306 0.72014 0.61278 0.0
H390 H 0.10681 0.48086 0.65712 0.0
H391 H 0.18306 0.48354 0.64804 0.0
H392 H 0.11103 0.54935 0.779 0.0
H393 H 0.15614 0.407 0.88412 0.0
H394 H 0.18787 0.40028 0.7041 0.0
C395 C 0.09303 0.59148 0.66885 0.0
C396 C 0.08779 0.64731 0.64844 0.0
C397 C 0.14606 0.56432 0.66711 0.0
C398 C 0.19454 0.59416 0.64592 0.0
C399 C 0.19031 0.65124 0.62846 0.0
C400 C 0.13723 0.67804 0.63165 0.0
C401 C 0.14723 0.50043 0.67415 0.0
C402 C 0.15384 0.47972 0.73486 0.0
C403 C 0.13161 0.50851 0.78329 0.0
C404 C 0.13431 0.48263 0.83751 0.0
C405 C 0.15747 0.42818 0.84278 0.0
C406 C 0.17588 0.39803 0.79486 0.0
C407 C 0.17471 0.4242 0.74136 0.0
C408 C 0.11573 0.49667 0.99151 0.0
C409 C 0.06121 0.47031 0.99579 0.0
H410 H 0.18183 0.52625 0.93477 0.0
C411 C 0.0251 0.47021 0.94751 0.0
H412 H 0.14482 0.49715 0.02765 0.0
C413 C 0.04638 0.48751 0.89423 0.0
C414 C 0.10425 0.50391 0.88854 0.0
H415 H 0.98296 0.45001 0.94908 0.0
H416 H 0.02044 0.47922 0.85646 0.0
C417 C 0.13692 0.51398 0.93821 0.0
C418 C 0.89565 0.77519 0.21554 0.0
C419 C 0.86652 0.80091 0.26133 0.0
H420 H 0.90597 0.77094 0.12413 0.0
C421 C 0.81901 0.8348 0.25002 0.0
H422 H 0.93314 0.74968 0.22328 0.0
C423 C 0.80283 0.84579 0.19368 0.0
C424 C 0.83447 0.82353 0.14792 0.0
H425 H 0.79651 0.85536 0.28458 0.0
H426 H 0.76828 0.87507 0.1858 0.0
C427 C 0.88026 0.78722 0.15901 0.0
C428 C 0.50451 0.55142 0.45381 0.0
C429 C 0.45707 0.55118 0.49085 0.0
H430 H 0.53478 0.53698 0.3686 0.0
C431 C 0.40537 0.52538 0.47215 0.0
H432 H 0.5447 0.57172 0.46649 0.0
C433 C 0.39949 0.50627 0.41548 0.0
C434 C 0.44522 0.51292 0.37681 0.0
H435 H 0.36787 0.52497 0.49952 0.0
H436 H 0.35739 0.49297 0.40031 0.0
C437 C 0.49902 0.53109 0.39775 0.0
C438 C 0.63449 0.18897 0.69974 0.0
C439 C 0.65253 0.16123 0.7495 0.0
H440 H 0.63819 0.19235 0.60822 0.0
C441 C 0.69446 0.11918 0.74527 0.0
H442 H 0.60118 0.22059 0.70169 0.0
C443 C 0.71675 0.10377 0.69178 0.0
C444 C 0.6966 0.12971 0.64161 0.0
H445 H 0.70721 0.09576 0.78286 0.0
H446 H 0.74627 0.06864 0.68914 0.0
C447 C 0.65606 0.17313 0.64629 0.0
C448 C 0.97873 0.74707 0.59161 0.0
C449 C 0.95892 0.71394 0.54497 0.0
H450 H 0.0371 0.75129 0.66248 0.0
C451 C 0.96835 0.6551 0.54433 0.0
H452 H 0.97187 0.7928 0.59309 0.0
C453 C 0.00421 0.63108 0.58505 0.0
C454 C 0.03217 0.66616 0.62586 0.0
H455 H 0.95257 0.62906 0.50911 0.0
H456 H 0.01567 0.58669 0.5799 0.0
C457 C 0.01627 0.72351 0.63124 0.0
C458 C 0.64586 0.7523 0.68419 0.0
C459 C 0.60375 0.71403 0.70519 0.0
H460 H 0.70744 0.81848 0.70442 0.0
C461 C 0.6006 0.70479 0.76468 0.0
H462 H 0.65004 0.75983 0.63858 0.0
C463 C 0.63349 0.73874 0.80258 0.0
C464 C 0.67023 0.78226 0.78156 0.0
H465 H 0.56886 0.67531 0.78223 0.0
H466 H 0.62574 0.73475 0.84816 0.0
C467 C 0.6788 0.78596 0.72195 0.0
C468 C 0.54583 0.35186 0.01354 0.0
C469 C 0.56764 0.29663 0.01933 0.0
H470 H 0.48931 0.41408 0.04887 0.0
C471 C 0.56554 0.27041 0.07339 0.0
H472 H 0.54866 0.37347 0.97284 0.0
C473 C 0.53204 0.2936 0.11682 0.0
C474 C 0.50121 0.34371 0.1071 0.0
H475 H 0.58289 0.22822 0.07977 0.0
H476 H 0.5234 0.26801 0.15453 0.0
C477 C 0.51256 0.37538 0.05731 0.0
C478 C 0.88119 0.28741 0.23172 0.0
C479 C 0.8942 0.26613 0.17681 0.0
H480 H 0.84529 0.26857 0.31451 0.0
C481 C 0.87154 0.21249 0.16033 0.0
H482 H 0.89841 0.32849 0.24582 0.0
C483 C 0.84087 0.17869 0.19936 0.0
C484 C 0.83216 0.19757 0.25601 0.0
H485 H 0.88032 0.1952 0.11815 0.0
H486 H 0.82559 0.13671 0.18581 0.0
C487 C 0.85071 0.2532 0.27111 0.0
C488 C 0.91879 0.96161 0.28985 0.0
C489 C 0.96534 0.98283 0.32232 0.0
H490 H 0.82913 0.96964 0.27356 0.0
C491 C 0.95457 0.0088 0.37532 0.0
H492 H 0.92565 0.94083 0.2489 0.0
C493 C 0.89898 0.02251 0.39091 0.0
C494 C 0.8544 0.01375 0.35152 0.0
H495 H 0.98927 0.02606 0.40068 0.0
H496 H 0.89323 0.05016 0.4278 0.0
C497 C 0.86314 0.9773 0.3044 0.0
C498 C 0.26469 0.70067 0.4954 0.0
C499 C 0.28912 0.75307 0.51384 0.0
H500 H 0.21528 0.62605 0.51863 0.0
C501 C 0.29141 0.76509 0.57292 0.0
H502 H 0.26287 0.68986 0.45024 0.0
C503 C 0.26423 0.72814 0.61201 0.0
C504 C 0.23512 0.67871 0.5927 0.0
H505 H 0.31063 0.80475 0.58851 0.0
H506 H 0.26299 0.73958 0.65688 0.0
C507 C 0.23799 0.66378 0.53453 0.0
C508 C 0.56783 0.02232 0.75838 0.0
C509 C 0.52067 0.01932 0.79585 0.0
H510 H 0.65448 0.99702 0.74376 0.0
C511 C 0.52935 0.00235 0.8524 0.0
H512 H 0.56233 0.03497 0.71411 0.0
C513 C 0.58199 0.98143 0.86958 0.0
C514 C 0.6271 0.97676 0.8301 0.0
H515 H 0.49403 0.00017 0.88189 0.0
H516 H 0.58457 0.96206 0.91152 0.0
C517 C 0.62069 0.00066 0.77531 0.0
C518 C 0.29112 0.16119 0.09267 0.0
C519 C 0.24316 0.17624 0.06011 0.0
H520 H 0.36162 0.19081 0.14403 0.0
C521 C 0.22495 0.23321 0.06119 0.0
H522 H 0.30613 0.1176 0.09281 0.0
C523 C 0.25679 0.27525 0.09043 0.0
C524 C 0.30768 0.26109 0.1188 0.0
H525 H 0.18868 0.24621 0.03587 0.0
H526 H 0.24381 0.31937 0.08708 0.0
C527 C 0.3233 0.20325 0.12141 0.0
C528 C 0.91706 0.06172 0.10067 0.0
C529 C 0.97483 0.05122 0.08819 0.0
H530 H 0.82981 0.03368 0.08898 0.0
C531 C 0.98727 0.01442 0.04234 0.0
H532 H 0.90602 0.08925 0.13618 0.0
C533 C 0.94353 0.98308 0.01463 0.0
C534 C 0.88653 0.98736 0.03295 0.0
H535 H 0.03129 0.00554 0.03193 0.0
H536 H 0.95503 0.9496 0.98482 0.0
C537 C 0.8732 0.03033 0.07297 0.0
C538 C 0.33859 0.73734 0.24617 0.0
C539 C 0.3816 0.77382 0.26785 0.0
H540 H 0.31497 0.65137 0.22408 0.0
C541 C 0.43863 0.75588 0.26642 0.0
H542 H 0.29463 0.75051 0.24685 0.0
C543 C 0.45089 0.69933 0.25147 0.0
C544 C 0.40607 0.66024 0.23819 0.0
H545 H 0.47291 0.7839 0.28148 0.0
H546 H 0.49441 0.68474 0.25605 0.0
C547 C 0.35044 0.68074 0.23233 0.0
C548 C 0.49913 0.01132 0.54386 0.0
C549 C 0.49562 0.96301 0.57906 0.0
H550 H 0.55179 0.06769 0.4947 0.0
C551 C 0.54417 0.92873 0.58484 0.0
H552 H 0.46448 0.04096 0.54251 0.0
C553 C 0.59632 0.94572 0.55949 0.0
C554 C 0.60015 0.99684 0.52775 0.0
H555 H 0.54303 0.89161 0.61251 0.0
H556 H 0.63467 0.92237 0.56951 0.0
C557 C 0.55004 0.02706 0.51698 0.0
C558 C 0.17102 0.23746 0.77567 0.0
C559 C 0.20467 0.22051 0.822 0.0
H560 H 0.13713 0.30812 0.72924 0.0
C561 C 0.23124 0.26183 0.8572 0.0
H562 H 0.14853 0.20601 0.74954 0.0
C563 C 0.22306 0.3196 0.84729 0.0
C564 C 0.18974 0.33711 0.80082 0.0
H565 H 0.25605 0.24942 0.89427 0.0
H566 H 0.24269 0.35067 0.87618 0.0
C567 C 0.16446 0.29564 0.7644 0.0
C568 C 0.31555 0.90136 0.89814 0.0
C569 C 0.3317 0.95956 0.89667 0.0
H570 H 0.33094 0.8203 0.93717 0.0
C571 C 0.38598 0.97626 0.91729 0.0
H572 H 0.27404 0.88719 0.8822 0.0
C573 C 0.41865 0.93792 0.9484 0.0
C574 C 0.39681 0.88287 0.95993 0.0
H575 H 0.39983 0.02078 0.91614 0.0
H576 H 0.456 0.95441 0.97108 0.0
C577 C 0.34839 0.86287 0.92933 0.0
C578 C 0.82319 0.57403 0.1084 0.0
C579 C 0.83504 0.51539 0.11288 0.0
H580 H 0.84172 0.65227 0.06361 0.0
C581 C 0.88473 0.4946 0.08684 0.0
H582 H 0.78532 0.59138 0.12828 0.0
C583 C 0.91604 0.52915 0.04917 0.0
C584 C 0.89978 0.58553 0.03853 0.0
H585 H 0.89552 0.44982 0.08998 0.0
H586 H 0.94976 0.51024 0.02453 0.0
C587 C 0.85541 0.60893 0.07134 0.0
C588 C 0.72886 0.68793 0.30182 0.0
C589 C 0.77445 0.67948 0.26342 0.0
H590 H 0.64214 0.71616 0.3116 0.0
C591 C 0.77088 0.70212 0.20799 0.0
H592 H 0.73003 0.67008 0.34455 0.0
C593 C 0.72198 0.73006 0.19019 0.0
C594 C 0.67475 0.73449 0.22676 0.0
H595 H 0.80423 0.69476 0.17676 0.0
H596 H 0.71872 0.74279 0.14575 0.0
C597 C 0.67894 0.71488 0.28337 0.0
C598 C 0.69577 0.43542 0.5978 0.0
C599 C 0.68066 0.49337 0.59938 0.0
H600 H 0.67967 0.35349 0.55845 0.0
C601 C 0.62888 0.50956 0.57434 0.0
H602 H 0.7358 0.42177 0.61634 0.0
C603 C 0.59631 0.46992 0.54271 0.0
C604 C 0.61467 0.41369 0.53502 0.0
H605 H 0.616 0.55387 0.57511 0.0
H606 H 0.55919 0.48431 0.52018 0.0
C607 C 0.66343 0.39608 0.5651 0.0
C608 C 0.28267 0.94832 0.21669 0.0
C609 C 0.22716 0.93413 0.19742 0.0
H610 H 0.37254 0.93498 0.20625 0.0
C611 C 0.21933 0.8877 0.15995 0.0
H612 H 0.28995 0.98448 0.2451 0.0
C613 C 0.26621 0.85842 0.13886 0.0
C614 C 0.32234 0.87611 0.15325 0.0
H615 H 0.17711 0.87641 0.1438 0.0
H616 H 0.25856 0.8254 0.10696 0.0
C617 C 0.33001 0.91963 0.19462 0.0
C618 C 0.12655 0.96721 0.41253 0.0
C619 C 0.17903 0.98532 0.38883 0.0
H620 H 0.05563 0.99016 0.4649 0.0
C621 C 0.19338 0.04406 0.38947 0.0
H622 H 0.11449 0.92222 0.41289 0.0
C623 C 0.15963 0.08246 0.42007 0.0
C624 C 0.1098 0.06338 0.44854 0.0
H625 H 0.23393 0.05936 0.3722 0.0
H626 H 0.17565 0.12572 0.42668 0.0
C627 C 0.09251 0.00602 0.44212 0.0
C628 C 0.76643 0.37274 0.32684 0.0
C629 C 0.76038 0.42198 0.29338 0.0
H630 H 0.7243 0.3103 0.3797 0.0
C631 C 0.70505 0.43852 0.27722 0.0
H632 H 0.80851 0.35917 0.33995 0.0
C633 C 0.65672 0.4112 0.30086 0.0
C634 C 0.66314 0.36664 0.34049 0.0
H635 H 0.69902 0.4761 0.25103 0.0
H636 H 0.615 0.42923 0.29314 0.0
C637 C 0.71815 0.34464 0.34938 0.0
C638 C 0.73746 0.61141 0.82313 0.0
C639 C 0.74292 0.56199 0.78935 0.0
H640 H 0.77991 0.67162 0.87892 0.0
C641 C 0.79785 0.54137 0.77747 0.0
H642 H 0.69561 0.62828 0.8327 0.0
C643 C 0.84599 0.56633 0.8036 0.0
C644 C 0.83978 0.61206 0.84212 0.0
H645 H 0.80331 0.50313 0.75182 0.0
H646 H 0.8872 0.54655 0.79771 0.0
C647 C 0.78559 0.63624 0.84943 0.0
C648 C 0.46798 0.85497 0.47977 0.0
C649 C 0.45941 0.79571 0.47423 0.0
H650 H 0.51728 0.9283 0.45211 0.0
C651 C 0.4826 0.76756 0.42644 0.0
H652 H 0.44885 0.87751 0.5152 0.0
C653 C 0.52199 0.79614 0.39119 0.0
C654 C 0.53708 0.85353 0.40214 0.0
H655 H 0.47645 0.72181 0.42067 0.0
H656 H 0.54569 0.77164 0.35992 0.0
C657 C 0.50647 0.88392 0.44354 0.0
C658 C 0.38544 0.20855 0.74505 0.0
C659 C 0.39692 0.22781 0.80119 0.0
H660 H 0.34872 0.22915 0.66336 0.0
C661 C 0.37128 0.27827 0.82039 0.0
H662 H 0.40559 0.17049 0.72856 0.0
C663 C 0.33901 0.31119 0.78313 0.0
C664 C 0.32891 0.29329 0.72654 0.0
H665 H 0.37951 0.29473 0.86312 0.0
H666 H 0.32453 0.35256 0.79766 0.0
C667 C 0.35196 0.24137 0.70795 0.0
C668 C 0.06538 0.22876 0.91389 0.0
C669 C 0.06595 0.20961 0.97095 0.0
H670 H 0.02542 0.21904 0.83181 0.0
C671 C 0.0451 0.15417 0.98291 0.0
H672 H 0.08278 0.27066 0.90299 0.0
C673 C 0.0128 0.12431 0.94157 0.0
C674 C 0.00106 0.14994 0.88874 0.0
H675 H 0.04623 0.13772 0.02616 0.0
H676 H 0.98896 0.08637 0.95416 0.0
C677 C 0.03309 0.19882 0.87275 0.0
C678 C 0.11146 0.8079 0.24984 0.0
C679 C 0.11461 0.79463 0.30855 0.0
H680 H 0.13557 0.7837 0.16434 0.0
C681 C 0.15469 0.75423 0.32652 0.0
H682 H 0.08068 0.8384 0.23449 0.0
C683 C 0.18654 0.72367 0.28629 0.0
C684 C 0.17973 0.7335 0.22732 0.0
H685 H 0.15814 0.74286 0.37135 0.0
H686 H 0.21345 0.68941 0.30098 0.0
C687 C 0.14322 0.777 0.20957 0.0
C688 C 0.5727 0.02197 0.02744 0.0
C689 C 0.5249 0.05471 0.01316 0.0
H690 H 0.62261 0.98627 0.09453 0.0
C691 C 0.48249 0.06337 0.0549 0.0
H692 H 0.60616 0.0145 0.99634 0.0
C693 C 0.49236 0.0477 0.1119 0.0
C694 C 0.54443 0.02267 0.12757 0.0
H695 H 0.4449 0.08801 0.0451 0.0
H696 H 0.46231 0.06086 0.14455 0.0
C697 C 0.58211 0.00558 0.08406 0.0
C698 C 0.18808 0.37456 0.25492 0.0
C699 C 0.13922 0.33896 0.2505 0.0
H700 H 0.24486 0.42081 0.31192 0.0
C701 C 0.11458 0.31595 0.30028 0.0
H702 H 0.20552 0.39515 0.21722 0.0
C703 C 0.13673 0.3303 0.35393 0.0
C704 C 0.18356 0.36853 0.35888 0.0
H705 H 0.07639 0.2889 0.29786 0.0
H706 H 0.11439 0.31497 0.39177 0.0
C707 C 0.21017 0.38946 0.30894 0.0
C708 C 0.90678 0.96974 0.5389 0.0
C709 C 0.96086 0.94884 0.52372 0.0
H710 H 0.85172 0.99439 0.60787 0.0
C711 C 0.00549 0.95212 0.56418 0.0
H712 H 0.87156 0.96805 0.50865 0.0
C713 C 0.99425 0.96823 0.62068 0.0
C714 C 0.93814 0.98063 0.63766 0.0
H715 H 0.04766 0.9364 0.55399 0.0
H716 H 0.02773 0.96397 0.65249 0.0
C717 C 0.89544 0.98537 0.59566 0.0
C718 C 0.36237 0.71316 0.79552 0.0
C719 C 0.34325 0.68191 0.74746 0.0
H720 H 0.36299 0.71954 0.88707 0.0
C721 C 0.30118 0.63885 0.75478 0.0
H722 H 0.39529 0.74619 0.79122 0.0
C723 C 0.28205 0.624 0.80961 0.0
C724 C 0.30557 0.65141 0.85818 0.0
H725 H 0.28657 0.6136 0.71862 0.0
H726 H 0.25341 0.58725 0.81442 0.0
C727 C 0.34339 0.69828 0.85045 0.0
C728 C 0.43198 0.42571 0.89172 0.0
C729 C 0.48867 0.44383 0.90279 0.0
H730 H 0.34291 0.44177 0.90549 0.0
C731 C 0.49879 0.48358 0.9472 0.0
H732 H 0.42275 0.39507 0.85789 0.0
C733 C 0.4531 0.51034 0.97462 0.0
C734 C 0.3964 0.498 0.95777 0.0
H735 H 0.54202 0.49797 0.9569 0.0
H736 H 0.4625 0.54541 0.00385 0.0
C737 C 0.38621 0.45232 0.91925 0.0
C738 C 0.60657 0.26304 0.24298 0.0
C739 C 0.6612 0.27414 0.21976 0.0
H740 H 0.54693 0.19877 0.27355 0.0
C741 C 0.70044 0.22985 0.21696 0.0
H742 H 0.57509 0.2964 0.24428 0.0
C743 C 0.68465 0.17453 0.23335 0.0
C744 C 0.62916 0.1623 0.25343 0.0
H745 H 0.74136 0.23692 0.19638 0.0
H746 H 0.71416 0.14024 0.2251 0.0
C747 C 0.59056 0.20738 0.25976 0.0
C748 C 0.06325 0.58966 0.40233 0.0
C749 C 0.00829 0.56882 0.41691 0.0
H750 H 0.15369 0.57755 0.41089 0.0
C751 C 0.00265 0.53159 0.46348 0.0
H752 H 0.06907 0.61925 0.36708 0.0
C753 C 0.0508 0.50772 0.48866 0.0
C754 C 0.10566 0.52064 0.46707 0.0
H755 H 0.96075 0.51617 0.47588 0.0
H756 H 0.04428 0.47347 0.51923 0.0
C757 C 0.11178 0.56589 0.42761 0.0
C758 C 0.8236 0.74819 0.76492 0.0
C759 C 0.86753 0.71408 0.74345 0.0
H760 H 0.7996 0.83276 0.78898 0.0
C761 C 0.92435 0.73447 0.74682 0.0
H762 H 0.77958 0.73296 0.76384 0.0
C763 C 0.93577 0.79166 0.76083 0.0
C764 C 0.89053 0.82856 0.77327 0.0
H765 H 0.95924 0.70801 0.73286 0.0
H766 H 0.97906 0.80832 0.75595 0.0
C767 C 0.83508 0.80524 0.7797 0.0
C768 C 0.43684 0.52382 0.68107 0.0
C769 C 0.48158 0.49282 0.65635 0.0
H770 H 0.34579 0.52725 0.6917 0.0
C771 C 0.46978 0.45775 0.60879 0.0
H772 H 0.44461 0.55101 0.71808 0.0
C773 C 0.4137 0.44814 0.5907 0.0
C774 C 0.36856 0.46887 0.62379 0.0
H775 H 0.50249 0.43116 0.59093 0.0
H776 H 0.40571 0.41499 0.55885 0.0
C777 C 0.38013 0.5112 0.66527 0.0
C778 C 0.72863 0.24424 0.9662 0.0
C779 C 0.74474 0.3024 0.96739 0.0
H780 H 0.74704 0.16054 0.9353 0.0
C781 C 0.79026 0.32154 0.93267 0.0
H782 H 0.69489 0.228 0.99381 0.0
C783 C 0.82141 0.28263 0.90024 0.0
C784 C 0.80672 0.22393 0.90054 0.0
H785 H 0.80392 0.36612 0.93292 0.0
H786 H 0.85766 0.2985 0.87563 0.0
C787 C 0.75886 0.20549 0.93268 0.0
C788 C 0.02784 0.55894 0.12679 0.0
C789 C 0.02066 0.52047 0.17233 0.0
H790 H 0.08642 0.60813 0.0763 0.0
C791 C 0.06888 0.49199 0.19335 0.0
H792 H 0.99255 0.58395 0.11177 0.0
C793 C 0.12391 0.5092 0.17557 0.0
C794 C 0.13059 0.55325 0.1352 0.0
H795 H 0.06481 0.46235 0.22877 0.0
H796 H 0.16073 0.49393 0.19882 0.0
C797 C 0.08222 0.5733 0.10669 0.0
C798 C 0.77005 0.79653 0.53208 0.0
C799 C 0.79364 0.74795 0.50601 0.0
H800 H 0.72202 0.87277 0.52043 0.0
C801 C 0.79694 0.74557 0.44589 0.0
H802 H 0.76777 0.80021 0.57833 0.0
C803 C 0.77131 0.78808 0.41271 0.0
C804 C 0.74212 0.83307 0.43929 0.0
H805 H 0.81548 0.70903 0.42462 0.0
H806 H 0.76989 0.78315 0.36661 0.0
C807 C 0.74435 0.83851 0.49906 0.0
C808 C 0.9668 0.45389 0.62452 0.0
C809 C 0.92954 0.4721 0.5812 0.0
H810 H 0.00276 0.38173 0.66691 0.0
C811 C 0.91288 0.43316 0.53799 0.0
H812 H 0.98071 0.48311 0.65812 0.0
C813 C 0.92723 0.37557 0.54205 0.0
C814 C 0.9568 0.3559 0.59028 0.0
H815 H 0.88408 0.44588 0.50412 0.0
H816 H 0.90799 0.34535 0.51202 0.0
C817 C 0.98032 0.39603 0.62908 0.0
C818 C 0.45439 0.05171 0.39693 0.0
C819 C 0.41268 0.02796 0.43375 0.0
H820 H 0.48951 0.12902 0.36072 0.0
C821 C 0.38431 0.06385 0.47244 0.0
H822 H 0.47674 0.02488 0.36663 0.0
C823 C 0.39364 0.12288 0.47077 0.0
C824 C 0.42933 0.14712 0.4286 0.0
H825 H 0.35184 0.04685 0.50122 0.0
H826 H 0.36687 0.14992 0.49696 0.0
C827 C 0.4626 0.11115 0.39429 0.0
C828 C 0.24992 0.14329 0.65475 0.0
C829 C 0.24639 0.0997 0.69573 0.0
H830 H 0.2052 0.19261 0.59309 0.0
C831 C 0.19214 0.08142 0.71543 0.0
H832 H 0.29091 0.15667 0.63745 0.0
C833 C 0.14259 0.09966 0.68744 0.0
C834 C 0.14726 0.13743 0.64086 0.0
H835 H 0.18825 0.04773 0.74706 0.0
H836 H 0.10191 0.0789 0.69741 0.0
C837 C 0.20059 0.16345 0.62889 0.0
C838 C 0.03309 0.95597 0.87727 0.0
C839 C 0.06775 0.96341 0.92587 0.0
H840 H 0.99763 0.89526 0.81872 0.0
C841 C 0.07393 0.91758 0.96408 0.0
H842 H 0.02728 0.99074 0.84738 0.0
C843 C 0.05478 0.8628 0.94831 0.0
C844 C 0.03081 0.85373 0.89377 0.0
H845 H 0.09979 0.92242 0.00243 0.0
H846 H 0.06739 0.8269 0.97439 0.0
C847 C 0.01475 0.90122 0.86127 0.0
C848 C 0.71432 0.29264 0.67308 0.0
C849 C 0.71115 0.30943 0.73078 0.0
H850 H 0.76527 0.25615 0.60655 0.0
C851 C 0.75545 0.29401 0.76796 0.0
H852 H 0.6805 0.30313 0.64355 0.0
C853 C 0.80411 0.26648 0.74684 0.0
C854 C 0.80848 0.25292 0.68835 0.0
H855 H 0.75426 0.30742 0.81221 0.0
H856 H 0.84029 0.26009 0.77495 0.0
C857 C 0.76224 0.26445 0.65214 0.0
C858 C 0.58926 0.56954 0.04141 0.0
C859 C 0.57466 0.52558 0.08002 0.0
H860 H 0.59047 0.66014 0.02711 0.0
C861 C 0.5355 0.53659 0.12397 0.0
H862 H 0.6197 0.5622 0.00724 0.0
C863 C 0.51856 0.5923 0.13476 0.0
C864 C 0.54077 0.63771 0.10224 0.0
H865 H 0.5245 0.50388 0.15494 0.0
H866 H 0.49677 0.601 0.17428 0.0
C867 C 0.57208 0.62561 0.05242 0.0
C868 C 0.26697 0.80835 0.78015 0.0
C869 C 0.26318 0.84139 0.73029 0.0
H870 H 0.22346 0.7526 0.83908 0.0
C871 C 0.21326 0.83678 0.6967 0.0
H872 H 0.30419 0.81232 0.80759 0.0
C873 C 0.16657 0.80305 0.71515 0.0
C874 C 0.16934 0.7728 0.76703 0.0
H875 H 0.20876 0.86217 0.65827 0.0
H876 H 0.12666 0.80461 0.69159 0.0
C877 C 0.22093 0.77365 0.79788 0.0
C878 C 0.18662 0.20524 0.33197 0.0
C879 C 0.18692 0.19205 0.27324 0.0
H880 H 0.23507 0.23677 0.40386 0.0
C881 C 0.23237 0.21314 0.23963 0.0
H882 H 0.15115 0.19146 0.35868 0.0
C883 C 0.27982 0.24086 0.26525 0.0
C884 C 0.28211 0.24844 0.32479 0.0
H885 H 0.2331 0.20368 0.19442 0.0
H886 H 0.31727 0.25074 0.2397 0.0
C887 C 0.23401 0.23252 0.35764 0.0
loop_
_geom_bond_atom_site_label_1
_geom_bond_atom_site_label_2
_geom_bond_distance
_geom_bond_site_symmetry_2
_ccdc_geom_bond_type
In0 O1 2.294 . S
In0 O2 2.326 . S
In0 O6 2.266 . S
In0 O7 2.326 1_455 S
In0 O8 2.266 1_455 S
In0 O9 2.326 . S
In0 O11 2.294 1_455 S
In0 O12 2.326 1_455 S
O1 In0 2.294 . S
O1 C10 1.240 . S
O2 In0 2.326 . S
O2 C10 1.252 . S
C3 O6 1.252 1_655 S
C3 O7 1.260 . S
C4 O11 1.240 . S
C4 O12 1.252 . S
C5 O8 1.252 1_455 S
C5 O9 1.260 . S
O6 In0 2.266 . S
O6 C3 1.252 1_455 S
O7 In0 2.326 1_655 S
O7 C3 1.260 . S
O8 In0 2.266 1_655 S
O8 C5 1.252 1_655 S
O9 In0 2.326 . S
O9 C5 1.260 . S
C10 O1 1.240 . S
C10 O2 1.252 . S
O11 In0 2.294 1_655 S
O11 C4 1.240 . S
O12 In0 2.326 1_655 S
O12 C4 1.252 . S
In13 O14 2.294 1_455 S
In13 O15 2.326 . S
In13 O19 2.266 1_455 S
In13 O20 2.326 1_455 S
In13 O21 2.266 . S
In13 O22 2.326 . S
In13 O24 2.294 . S
In13 O25 2.326 1_455 S
O14 In13 2.294 1_655 S
O14 C23 1.240 1_655 S
O15 In13 2.326 . S
O15 C23 1.252 . S
C16 O19 1.252 . S
C16 O20 1.260 . S
C17 O24 1.240 1_655 S
C17 O25 1.252 . S
C18 O21 1.252 . S
C18 O22 1.260 . S
O19 In13 2.266 1_655 S
O19 C16 1.252 . S
O20 In13 2.326 1_655 S
O20 C16 1.260 . S
O21 In13 2.266 . S
O21 C18 1.252 . S
O22 In13 2.326 . S
O22 C18 1.260 . S
C23 O14 1.240 1_455 S
C23 O15 1.252 . S
O24 In13 2.294 . S
O24 C17 1.240 1_455 S
O25 In13 2.326 1_655 S
O25 C17 1.252 . S
In26 O27 2.294 . S
In26 O28 2.326 . S
In26 O32 2.266 . S
In26 O33 2.326 . S
In26 O34 2.266 . S
In26 O35 2.326 . S
In26 O37 2.294 . S
In26 O38 2.326 . S
O27 In26 2.294 . S
O27 C36 1.240 . S
O28 In26 2.326 . S
O28 C36 1.252 . S
C29 O32 1.252 . S
C29 O33 1.260 . S
C30 O37 1.240 . S
C30 O38 1.252 . S
C31 O34 1.252 . S
C31 O35 1.260 . S
O32 In26 2.266 . S
O32 C29 1.252 . S
O33 In26 2.326 . S
O33 C29 1.260 . S
O34 In26 2.266 . S
O34 C31 1.252 . S
O35 In26 2.326 . S
O35 C31 1.260 . S
C36 O27 1.240 . S
C36 O28 1.252 . S
O37 In26 2.294 . S
O37 C30 1.240 . S
O38 In26 2.326 . S
O38 C30 1.252 . S
In39 O40 2.294 . S
In39 O41 2.326 . S
In39 O45 2.266 . S
In39 O46 2.326 . S
In39 O47 2.266 . S
In39 O48 2.326 . S
In39 O50 2.294 . S
In39 O51 2.326 . S
O40 In39 2.294 . S
O40 C49 1.240 . S
O41 In39 2.326 . S
O41 C49 1.252 . S
C42 O45 1.252 . S
C42 O46 1.260 . S
C43 O50 1.240 . S
C43 O51 1.252 . S
C44 O47 1.252 . S
C44 O48 1.260 . S
O45 In39 2.266 . S
O45 C42 1.252 . S
O46 In39 2.326 . S
O46 C42 1.260 . S
O47 In39 2.266 . S
O47 C44 1.252 . S
O48 In39 2.326 . S
O48 C44 1.260 . S
C49 O40 1.240 . S
C49 O41 1.252 . S
O50 In39 2.294 . S
O50 C43 1.240 . S
O51 In39 2.326 . S
O51 C43 1.252 . S
In52 O53 2.294 1_545 S
In52 O54 2.326 1_545 S
In52 O58 2.266 1_545 S
In52 O59 2.326 . S
In52 O60 2.266 . S
In52 O61 2.326 1_545 S
In52 O63 2.294 . S
In52 O64 2.326 . S
O53 In52 2.294 1_565 S
O53 C62 1.240 . S
O54 In52 2.326 1_565 S
O54 C62 1.252 . S
C55 O58 1.252 1_545 S
C55 O59 1.260 . S
C56 O63 1.240 . S
C56 O64 1.252 . S
C57 O60 1.252 1_565 S
C57 O61 1.260 . S
O58 In52 2.266 1_565 S
O58 C55 1.252 1_565 S
O59 In52 2.326 . S
O59 C55 1.260 . S
O60 In52 2.266 . S
O60 C57 1.252 1_545 S
O61 In52 2.326 1_565 S
O61 C57 1.260 . S
C62 O53 1.240 . S
C62 O54 1.252 . S
O63 In52 2.294 . S
O63 C56 1.240 . S
O64 In52 2.326 . S
O64 C56 1.252 . S
In65 O66 2.294 . S
In65 O67 2.326 . S
In65 O71 2.266 . S
In65 O72 2.326 . S
In65 O73 2.266 . S
In65 O74 2.326 . S
In65 O76 2.294 . S
In65 O77 2.326 . S
O66 In65 2.294 . S
O66 C75 1.240 . S
O67 In65 2.326 . S
O67 C75 1.252 . S
C68 O71 1.252 . S
C68 O72 1.260 . S
C69 O76 1.240 . S
C69 O77 1.252 . S
C70 O73 1.252 . S
C70 O74 1.260 . S
O71 In65 2.266 . S
O71 C68 1.252 . S
O72 In65 2.326 . S
O72 C68 1.260 . S
O73 In65 2.266 . S
O73 C70 1.252 . S
O74 In65 2.326 . S
O74 C70 1.260 . S
C75 O66 1.240 . S
C75 O67 1.252 . S
O76 In65 2.294 . S
O76 C69 1.240 . S
O77 In65 2.326 . S
O77 C69 1.252 . S
In78 O79 2.294 1_545 S
In78 O80 2.326 1_545 S
In78 O84 2.266 1_545 S
In78 O85 2.326 . S
In78 O86 2.266 . S
In78 O87 2.326 1_545 S
In78 O89 2.294 . S
In78 O90 2.326 . S
O79 In78 2.294 1_565 S
O79 C88 1.240 . S
O80 In78 2.326 1_565 S
O80 C88 1.252 . S
C81 O84 1.252 1_545 S
C81 O85 1.260 . S
C82 O89 1.240 . S
C82 O90 1.252 . S
C83 O86 1.252 1_565 S
C83 O87 1.260 . S
O84 In78 2.266 1_565 S
O84 C81 1.252 1_565 S
O85 In78 2.326 . S
O85 C81 1.260 . S
O86 In78 2.266 . S
O86 C83 1.252 1_545 S
O87 In78 2.326 1_565 S
O87 C83 1.260 . S
C88 O79 1.240 . S
C88 O80 1.252 . S
O89 In78 2.294 . S
O89 C82 1.240 . S
O90 In78 2.326 . S
O90 C82 1.252 . S
In91 O92 2.294 . S
In91 O93 2.326 . S
In91 O97 2.266 . S
In91 O98 2.326 1_554 S
In91 O99 2.266 1_554 S
In91 O100 2.326 . S
In91 O102 2.294 1_554 S
In91 O103 2.326 1_554 S
O92 In91 2.294 . S
O92 C101 1.240 . S
O93 In91 2.326 . S
O93 C101 1.252 . S
C94 O97 1.252 1_556 S
C94 O98 1.260 . S
C95 O102 1.240 . S
C95 O103 1.252 . S
C96 O99 1.252 1_554 S
C96 O100 1.260 . S
O97 In91 2.266 . S
O97 C94 1.252 1_554 S
O98 In91 2.326 1_556 S
O98 C94 1.260 . S
O99 In91 2.266 1_556 S
O99 C96 1.252 1_556 S
O100 In91 2.326 . S
O100 C96 1.260 . S
C101 O92 1.240 . S
C101 O93 1.252 . S
O102 In91 2.294 1_556 S
O102 C95 1.240 . S
O103 In91 2.326 1_556 S
O103 C95 1.252 . S
In104 O105 2.294 . S
In104 O106 2.326 . S
In104 O110 2.266 . S
In104 O111 2.326 1_554 S
In104 O112 2.266 1_554 S
In104 O113 2.326 . S
In104 O115 2.294 1_554 S
In104 O116 2.326 1_554 S
O105 In104 2.294 . S
O105 C114 1.240 . S
O106 In104 2.326 . S
O106 C114 1.252 . S
C107 O110 1.252 1_556 S
C107 O111 1.260 . S
C108 O115 1.240 . S
C108 O116 1.252 . S
C109 O112 1.252 1_554 S
C109 O113 1.260 . S
O110 In104 2.266 . S
O110 C107 1.252 1_554 S
O111 In104 2.326 1_556 S
O111 C107 1.260 . S
O112 In104 2.266 1_556 S
O112 C109 1.252 1_556 S
O113 In104 2.326 . S
O113 C109 1.260 . S
C114 O105 1.240 . S
C114 O106 1.252 . S
O115 In104 2.294 1_556 S
O115 C108 1.240 . S
O116 In104 2.326 1_556 S
O116 C108 1.252 . S
In117 O118 2.294 . S
In117 O119 2.326 . S
In117 O123 2.266 . S
In117 O124 2.326 . S
In117 O125 2.266 . S
In117 O126 2.326 . S
In117 O128 2.294 . S
In117 O129 2.326 . S
O118 In117 2.294 . S
O118 C127 1.240 . S
O119 In117 2.326 . S
O119 C127 1.252 . S
C120 O123 1.252 . S
C120 O124 1.260 . S
C121 O128 1.240 . S
C121 O129 1.252 . S
C122 O125 1.252 . S
C122 O126 1.260 . S
O123 In117 2.266 . S
O123 C120 1.252 . S
O124 In117 2.326 . S
O124 C120 1.260 . S
O125 In117 2.266 . S
O125 C122 1.252 . S
O126 In117 2.326 . S
O126 C122 1.260 . S
C127 O118 1.240 . S
C127 O119 1.252 . S
O128 In117 2.294 . S
O128 C121 1.240 . S
O129 In117 2.326 . S
O129 C121 1.252 . S
In130 O131 2.294 . S
In130 O132 2.326 . S
In130 O136 2.266 . S
In130 O137 2.326 . S
In130 O138 2.266 . S
In130 O139 2.326 . S
In130 O141 2.294 . S
In130 O142 2.326 . S
O131 In130 2.294 . S
O131 C140 1.240 . S
O132 In130 2.326 . S
O132 C140 1.252 . S
C133 O136 1.252 . S
C133 O137 1.260 . S
C134 O141 1.240 . S
C134 O142 1.252 . S
C135 O138 1.252 . S
C135 O139 1.260 . S
O136 In130 2.266 . S
O136 C133 1.252 . S
O137 In130 2.326 . S
O137 C133 1.260 . S
O138 In130 2.266 . S
O138 C135 1.252 . S
O139 In130 2.326 . S
O139 C135 1.260 . S
C140 O131 1.240 . S
C140 O132 1.252 . S
O141 In130 2.294 . S
O141 C134 1.240 . S
O142 In130 2.326 . S
O142 C134 1.252 . S
In143 O144 2.294 . S
In143 O145 2.326 . S
In143 O149 2.266 . S
In143 O150 2.326 . S
In143 O151 2.266 . S
In143 O152 2.326 . S
In143 O154 2.294 . S
In143 O155 2.326 . S
O144 In143 2.294 . S
O144 C153 1.240 . S
O145 In143 2.326 . S
O145 C153 1.252 . S
C146 O149 1.252 . S
C146 O150 1.260 . S
C147 O154 1.240 . S
C147 O155 1.252 . S
C148 O151 1.252 . S
C148 O152 1.260 . S
O149 In143 2.266 . S
O149 C146 1.252 . S
O150 In143 2.326 . S
O150 C146 1.260 . S
O151 In143 2.266 . S
O151 C148 1.252 . S
O152 In143 2.326 . S
O152 C148 1.260 . S
C153 O144 1.240 . S
C153 O145 1.252 . S
O154 In143 2.294 . S
O154 C147 1.240 . S
O155 In143 2.326 . S
O155 C147 1.252 . S
H156 C164 0.930 . S
H157 C167 0.930 . S
H158 C169 0.930 . S
H159 C170 0.970 . S
H160 C170 0.970 . S
H161 C172 0.930 . S
H162 C174 0.930 . S
H163 C176 0.930 . S
C164 H156 0.930 . S
C164 C165 1.382 . S
C164 C166 1.426 . S
C165 C164 1.382 . S
C165 C169 1.389 . S
C166 C164 1.426 . S
C166 C167 1.375 . S
C166 C170 1.532 . S
C167 H157 0.930 . S
C167 C166 1.375 . S
C167 C168 1.416 . S
C168 C167 1.416 . S
C168 C169 1.371 . S
C169 H158 0.930 . S
C169 C165 1.389 . S
C169 C168 1.371 . S
C170 H159 0.970 . S
C170 H160 0.970 . S
C170 C166 1.532 . S
C170 C171 1.499 . S
C171 C170 1.499 . S
C171 C172 1.370 1_455 S
C171 C176 1.415 1_455 S
C172 H161 0.930 . S
C172 C171 1.370 1_655 S
C172 C173 1.407 . S
C173 C172 1.407 . S
C173 C174 1.365 . S
C174 H162 0.930 . S
C174 C173 1.365 . S
C174 C175 1.393 . S
C175 C174 1.393 . S
C175 C176 1.387 . S
C176 H163 0.930 . S
C176 C171 1.415 1_655 S
C176 C175 1.387 . S
H177 C185 0.930 . S
H178 C188 0.930 . S
H179 C190 0.930 . S
H180 C191 0.970 . S
H181 C191 0.970 . S
H182 C193 0.930 . S
H183 C195 0.930 . S
H184 C197 0.930 1_455 S
C185 H177 0.930 . S
C185 C186 1.382 . S
C185 C187 1.426 . S
C186 C185 1.382 . S
C186 C190 1.389 . S
C187 C185 1.426 . S
C187 C188 1.375 . S
C187 C191 1.532 . S
C188 H178 0.930 . S
C188 C187 1.375 . S
C188 C189 1.416 . S
C189 C188 1.416 . S
C189 C190 1.371 . S
C190 H179 0.930 . S
C190 C186 1.389 . S
C190 C189 1.371 . S
C191 H180 0.970 . S
C191 H181 0.970 . S
C191 C187 1.532 . S
C191 C192 1.499 . S
C192 C191 1.499 . S
C192 C193 1.370 1_455 S
C192 C197 1.415 1_455 S
C193 H182 0.930 . S
C193 C192 1.370 1_655 S
C193 C194 1.407 . S
C194 C193 1.407 . S
C194 C195 1.365 . S
C195 H183 0.930 . S
C195 C194 1.365 . S
C195 C196 1.393 . S
C196 C195 1.393 . S
C196 C197 1.387 . S
C197 H184 0.930 1_655 S
C197 C192 1.415 1_655 S
C197 C196 1.387 . S
H198 C206 0.930 . S
H199 C209 0.930 . S
H200 C211 0.930 . S
H201 C212 0.970 . S
H202 C212 0.970 . S
H203 C214 0.930 . S
H204 C216 0.930 . S
H205 C218 0.930 . S
C206 H198 0.930 . S
C206 C207 1.382 . S
C206 C208 1.426 . S
C207 C206 1.382 . S
C207 C211 1.389 . S
C208 C206 1.426 . S
C208 C209 1.375 . S
C208 C212 1.532 . S
C209 H199 0.930 . S
C209 C208 1.375 . S
C209 C210 1.416 . S
C210 C209 1.416 . S
C210 C211 1.371 . S
C211 H200 0.930 . S
C211 C207 1.389 . S
C211 C210 1.371 . S
C212 H201 0.970 . S
C212 H202 0.970 . S
C212 C208 1.532 . S
C212 C213 1.499 . S
C213 C212 1.499 . S
C213 C214 1.370 . S
C213 C218 1.415 . S
C214 H203 0.930 . S
C214 C213 1.370 . S
C214 C215 1.407 . S
C215 C214 1.407 . S
C215 C216 1.365 . S
C216 H204 0.930 . S
C216 C215 1.365 . S
C216 C217 1.393 . S
C217 C216 1.393 . S
C217 C218 1.387 . S
C218 H205 0.930 . S
C218 C213 1.415 . S
C218 C217 1.387 . S
H219 C227 0.930 . S
H220 C230 0.930 . S
H221 C232 0.930 . S
H222 C233 0.970 . S
H223 C233 0.970 . S
H224 C235 0.930 . S
H225 C237 0.930 . S
H226 C239 0.930 . S
C227 H219 0.930 . S
C227 C228 1.382 . S
C227 C229 1.426 . S
C228 C227 1.382 . S
C228 C232 1.389 . S
C229 C227 1.426 . S
C229 C230 1.375 . S
C229 C233 1.532 . S
C230 H220 0.930 . S
C230 C229 1.375 . S
C230 C231 1.416 . S
C231 C230 1.416 . S
C231 C232 1.371 . S
C232 H221 0.930 . S
C232 C228 1.389 . S
C232 C231 1.371 . S
C233 H222 0.970 . S
C233 H223 0.970 . S
C233 C229 1.532 . S
C233 C234 1.499 . S
C234 C233 1.499 . S
C234 C235 1.370 . S
C234 C239 1.415 . S
C235 H224 0.930 . S
C235 C234 1.370 . S
C235 C236 1.407 . S
C236 C235 1.407 . S
C236 C237 1.365 . S
C237 H225 0.930 . S
C237 C236 1.365 . S
C237 C238 1.393 . S
C238 C237 1.393 . S
C238 C239 1.387 . S
C239 H226 0.930 . S
C239 C234 1.415 . S
C239 C238 1.387 . S
H240 C248 0.930 . S
H241 C251 0.930 . S
H242 C253 0.930 . S
H243 C254 0.970 . S
H244 C254 0.970 . S
H245 C256 0.930 . S
H246 C258 0.930 . S
H247 C260 0.930 . S
C248 H240 0.930 . S
C248 C249 1.382 . S
C248 C250 1.426 1_545 S
C249 C248 1.382 . S
C249 C253 1.389 . S
C250 C248 1.426 1_565 S
C250 C251 1.375 1_565 S
C250 C254 1.532 . S
C251 H241 0.930 . S
C251 C250 1.375 1_545 S
C251 C252 1.416 . S
C252 C251 1.416 . S
C252 C253 1.371 . S
C253 H242 0.930 . S
C253 C249 1.389 . S
C253 C252 1.371 . S
C254 H243 0.970 . S
C254 H244 0.970 . S
C254 C250 1.532 . S
C254 C255 1.499 . S
C255 C254 1.499 . S
C255 C256 1.370 . S
C255 C260 1.415 . S
C256 H245 0.930 . S
C256 C255 1.370 . S
C256 C257 1.407 . S
C257 C256 1.407 . S
C257 C258 1.365 . S
C258 H246 0.930 . S
C258 C257 1.365 . S
C258 C259 1.393 . S
C259 C258 1.393 . S
C259 C260 1.387 . S
C260 H247 0.930 . S
C260 C255 1.415 . S
C260 C259 1.387 . S
H261 C269 0.930 . S
H262 C272 0.930 . S
H263 C274 0.930 . S
H264 C275 0.970 . S
H265 C275 0.970 . S
H266 C277 0.930 . S
H267 C279 0.930 . S
H268 C281 0.930 . S
C269 H261 0.930 . S
C269 C270 1.382 . S
C269 C271 1.426 . S
C270 C269 1.382 . S
C270 C274 1.389 . S
C271 C269 1.426 . S
C271 C272 1.375 . S
C271 C275 1.532 . S
C272 H262 0.930 . S
C272 C271 1.375 . S
C272 C273 1.416 . S
C273 C272 1.416 . S
C273 C274 1.371 . S
C274 H263 0.930 . S
C274 C270 1.389 . S
C274 C273 1.371 . S
C275 H264 0.970 . S
C275 H265 0.970 . S
C275 C271 1.532 . S
C275 C276 1.499 . S
C276 C275 1.499 . S
C276 C277 1.370 . S
C276 C281 1.415 . S
C277 H266 0.930 . S
C277 C276 1.370 . S
C277 C278 1.407 . S
C278 C277 1.407 . S
C278 C279 1.365 . S
C279 H267 0.930 . S
C279 C278 1.365 . S
C279 C280 1.393 . S
C280 C279 1.393 . S
C280 C281 1.387 . S
C281 H268 0.930 . S
C281 C276 1.415 . S
C281 C280 1.387 . S
H282 C290 0.930 . S
H283 C293 0.930 . S
H284 C295 0.930 . S
H285 C296 0.970 . S
H286 C296 0.970 . S
H287 C298 0.930 . S
H288 C300 0.930 . S
H289 C302 0.930 . S
C290 H282 0.930 . S
C290 C291 1.382 . S
C290 C292 1.426 1_565 S
C291 C290 1.382 . S
C291 C295 1.389 . S
C292 C290 1.426 1_545 S
C292 C293 1.375 1_545 S
C292 C296 1.532 . S
C293 H283 0.930 . S
C293 C292 1.375 1_565 S
C293 C294 1.416 . S
C294 C293 1.416 . S
C294 C295 1.371 . S
C295 H284 0.930 . S
C295 C291 1.389 . S
C295 C294 1.371 . S
C296 H285 0.970 . S
C296 H286 0.970 . S
C296 C292 1.532 . S
C296 C297 1.499 . S
C297 C296 1.499 . S
C297 C298 1.370 . S
C297 C302 1.415 . S
C298 H287 0.930 . S
C298 C297 1.370 . S
C298 C299 1.407 . S
C299 C298 1.407 . S
C299 C300 1.365 . S
C300 H288 0.930 . S
C300 C299 1.365 . S
C300 C301 1.393 . S
C301 C300 1.393 . S
C301 C302 1.387 . S
C302 H289 0.930 . S
C302 C297 1.415 . S
C302 C301 1.387 . S
H303 C311 0.930 . S
H304 C314 0.930 . S
H305 C316 0.930 . S
H306 C317 0.970 . S
H307 C317 0.970 . S
H308 C319 0.930 . S
H309 C321 0.930 . S
H310 C323 0.930 . S
C311 H303 0.930 . S
C311 C312 1.382 . S
C311 C313 1.426 . S
C312 C311 1.382 . S
C312 C316 1.389 . S
C313 C311 1.426 . S
C313 C314 1.375 . S
C313 C317 1.532 . S
C314 H304 0.930 . S
C314 C313 1.375 . S
C314 C315 1.416 . S
C315 C314 1.416 . S
C315 C316 1.371 . S
C316 H305 0.930 . S
C316 C312 1.389 . S
C316 C315 1.371 . S
C317 H306 0.970 . S
C317 H307 0.970 . S
C317 C313 1.532 . S
C317 C318 1.499 . S
C318 C317 1.499 . S
C318 C319 1.370 1_554 S
C318 C323 1.415 1_554 S
C319 H308 0.930 . S
C319 C318 1.370 1_556 S
C319 C320 1.407 . S
C320 C319 1.407 . S
C320 C321 1.365 . S
C321 H309 0.930 . S
C321 C320 1.365 . S
C321 C322 1.393 . S
C322 C321 1.393 . S
C322 C323 1.387 . S
C323 H310 0.930 . S
C323 C318 1.415 1_556 S
C323 C322 1.387 . S
H324 C332 0.930 . S
H325 C335 0.930 . S
H326 C337 0.930 . S
H327 C338 0.970 . S
H328 C338 0.970 . S
H329 C340 0.930 . S
H330 C342 0.930 . S
H331 C344 0.930 . S
C332 H324 0.930 . S
C332 C333 1.382 . S
C332 C334 1.426 . S
C333 C332 1.382 . S
C333 C337 1.389 . S
C334 C332 1.426 . S
C334 C335 1.375 . S
C334 C338 1.532 . S
C335 H325 0.930 . S
C335 C334 1.375 . S
C335 C336 1.416 . S
C336 C335 1.416 . S
C336 C337 1.371 . S
C337 H326 0.930 . S
C337 C333 1.389 . S
C337 C336 1.371 . S
C338 H327 0.970 . S
C338 H328 0.970 . S
C338 C334 1.532 . S
C338 C339 1.499 . S
C339 C338 1.499 . S
C339 C340 1.370 1_554 S
C339 C344 1.415 1_554 S
C340 H329 0.930 . S
C340 C339 1.370 1_556 S
C340 C341 1.407 . S
C341 C340 1.407 . S
C341 C342 1.365 . S
C342 H330 0.930 . S
C342 C341 1.365 . S
C342 C343 1.393 . S
C343 C342 1.393 . S
C343 C344 1.387 . S
C344 H331 0.930 . S
C344 C339 1.415 1_556 S
C344 C343 1.387 . S
H345 C353 0.930 . S
H346 C356 0.930 . S
H347 C358 0.930 . S
H348 C359 0.970 . S
H349 C359 0.970 . S
H350 C361 0.930 . S
H351 C363 0.930 . S
H352 C365 0.930 . S
C353 H345 0.930 . S
C353 C354 1.382 . S
C353 C355 1.426 . S
C354 C353 1.382 . S
C354 C358 1.389 . S
C355 C353 1.426 . S
C355 C356 1.375 . S
C355 C359 1.532 . S
C356 H346 0.930 . S
C356 C355 1.375 . S
C356 C357 1.416 . S
C357 C356 1.416 . S
C357 C358 1.371 . S
C358 H347 0.930 . S
C358 C354 1.389 . S
C358 C357 1.371 . S
C359 H348 0.970 . S
C359 H349 0.970 . S
C359 C355 1.532 . S
C359 C360 1.499 . S
C360 C359 1.499 . S
C360 C361 1.370 . S
C360 C365 1.415 . S
C361 H350 0.930 . S
C361 C360 1.370 . S
C361 C362 1.407 . S
C362 C361 1.407 . S
C362 C363 1.365 . S
C363 H351 0.930 . S
C363 C362 1.365 . S
C363 C364 1.393 . S
C364 C363 1.393 . S
C364 C365 1.387 . S
C365 H352 0.930 . S
C365 C360 1.415 . S
C365 C364 1.387 . S
H366 C374 0.930 . S
H367 C377 0.930 . S
H368 C379 0.930 . S
H369 C380 0.970 . S
H370 C380 0.970 . S
H371 C382 0.930 . S
H372 C384 0.930 . S
H373 C386 0.930 . S
C374 H366 0.930 . S
C374 C375 1.382 . S
C374 C376 1.426 . S
C375 C374 1.382 . S
C375 C379 1.389 . S
C376 C374 1.426 . S
C376 C377 1.375 . S
C376 C380 1.532 . S
C377 H367 0.930 . S
C377 C376 1.375 . S
C377 C378 1.416 . S
C378 C377 1.416 . S
C378 C379 1.371 . S
C379 H368 0.930 . S
C379 C375 1.389 . S
C379 C378 1.371 . S
C380 H369 0.970 . S
C380 H370 0.970 . S
C380 C376 1.532 . S
C380 C381 1.499 . S
C381 C380 1.499 . S
C381 C382 1.370 . S
C381 C386 1.415 . S
C382 H371 0.930 . S
C382 C381 1.370 . S
C382 C383 1.407 . S
C383 C382 1.407 . S
C383 C384 1.365 . S
C384 H372 0.930 . S
C384 C383 1.365 . S
C384 C385 1.393 . S
C385 C384 1.393 . S
C385 C386 1.387 . S
C386 H373 0.930 . S
C386 C381 1.415 . S
C386 C385 1.387 . S
H387 C395 0.930 . S
H388 C398 0.930 . S
H389 C400 0.930 . S
H390 C401 0.970 . S
H391 C401 0.970 . S
H392 C403 0.930 . S
H393 C405 0.930 . S
H394 C407 0.930 . S
C395 H387 0.930 . S
C395 C396 1.382 . S
C395 C397 1.426 . S
C396 C395 1.382 . S
C396 C400 1.389 . S
C397 C395 1.426 . S
C397 C398 1.375 . S
C397 C401 1.532 . S
C398 H388 0.930 . S
C398 C397 1.375 . S
C398 C399 1.416 . S
C399 C398 1.416 . S
C399 C400 1.371 . S
C400 H389 0.930 . S
C400 C396 1.389 . S
C400 C399 1.371 . S
C401 H390 0.970 . S
C401 H391 0.970 . S
C401 C397 1.532 . S
C401 C402 1.499 . S
C402 C401 1.499 . S
C402 C403 1.370 . S
C402 C407 1.415 . S
C403 H392 0.930 . S
C403 C402 1.370 . S
C403 C404 1.407 . S
C404 C403 1.407 . S
C404 C405 1.365 . S
C405 H393 0.930 . S
C405 C404 1.365 . S
C405 C406 1.393 . S
C406 C405 1.393 . S
C406 C407 1.387 . S
C407 H394 0.930 . S
C407 C402 1.415 . S
C407 C406 1.387 . S
C408 C409 1.387 . S
C408 H412 0.950 1_556 S
C408 C417 1.390 . S
C409 C408 1.387 . S
C409 C411 1.387 1_455 S
H410 C417 0.950 . S
C411 C409 1.387 1_655 S
C411 C413 1.390 . S
C411 H415 0.950 . S
H412 C408 0.950 1_554 S
C413 C411 1.390 . S
C413 C414 1.387 1_655 S
C413 H416 0.950 . S
C414 C413 1.387 1_455 S
C414 C417 1.387 . S
H415 C411 0.950 . S
H416 C413 0.950 . S
C417 C408 1.390 . S
C417 H410 0.950 . S
C417 C414 1.387 . S
C418 C419 1.387 . S
C418 H422 0.950 . S
C418 C427 1.390 . S
C419 C418 1.387 . S
C419 C421 1.387 . S
H420 C427 0.950 . S
C421 C419 1.387 . S
C421 C423 1.390 . S
C421 H425 0.950 . S
H422 C418 0.950 . S
C423 C421 1.390 . S
C423 C424 1.387 . S
C423 H426 0.950 . S
C424 C423 1.387 . S
C424 C427 1.387 . S
H425 C421 0.950 . S
H426 C423 0.950 . S
C427 C418 1.390 . S
C427 H420 0.950 . S
C427 C424 1.387 . S
C428 C429 1.387 . S
C428 H432 0.950 . S
C428 C437 1.390 . S
C429 C428 1.387 . S
C429 C431 1.387 . S
H430 C437 0.950 . S
C431 C429 1.387 . S
C431 C433 1.390 . S
C431 H435 0.950 . S
H432 C428 0.950 . S
C433 C431 1.390 . S
C433 C434 1.387 . S
C433 H436 0.950 . S
C434 C433 1.387 . S
C434 C437 1.387 . S
H435 C431 0.950 . S
H436 C433 0.950 . S
C437 C428 1.390 . S
C437 H430 0.950 . S
C437 C434 1.387 . S
C438 C439 1.387 . S
C438 H442 0.950 . S
C438 C447 1.390 . S
C439 C438 1.387 . S
C439 C441 1.387 . S
H440 C447 0.950 . S
C441 C439 1.387 . S
C441 C443 1.390 . S
C441 H445 0.950 . S
H442 C438 0.950 . S
C443 C441 1.390 . S
C443 C444 1.387 . S
C443 H446 0.950 . S
C444 C443 1.387 . S
C444 C447 1.387 . S
H445 C441 0.950 . S
H446 C443 0.950 . S
C447 C438 1.390 . S
C447 H440 0.950 . S
C447 C444 1.387 . S
C448 C449 1.387 . S
C448 H452 0.950 . S
C448 C457 1.390 . S
C449 C448 1.387 . S
C449 C451 1.387 . S
H450 C457 0.950 . S
C451 C449 1.387 . S
C451 C453 1.390 . S
C451 H455 0.950 . S
H452 C448 0.950 . S
C453 C451 1.390 . S
C453 C454 1.387 . S
C453 H456 0.950 . S
C454 C453 1.387 . S
C454 C457 1.387 . S
H455 C451 0.950 . S
H456 C453 0.950 . S
C457 C448 1.390 . S
C457 H450 0.950 . S
C457 C454 1.387 . S
C458 C459 1.387 . S
C458 H462 0.950 . S
C458 C467 1.390 . S
C459 C458 1.387 . S
C459 C461 1.387 . S
H460 C467 0.950 . S
C461 C459 1.387 . S
C461 C463 1.390 . S
C461 H465 0.950 . S
H462 C458 0.950 . S
C463 C461 1.390 . S
C463 C464 1.387 . S
C463 H466 0.950 . S
C464 C463 1.387 . S
C464 C467 1.387 . S
H465 C461 0.950 . S
H466 C463 0.950 . S
C467 C458 1.390 . S
C467 H460 0.950 . S
C467 C464 1.387 . S
C468 C469 1.387 . S
C468 H472 0.950 1_554 S
C468 C477 1.390 . S
C469 C468 1.387 . S
C469 C471 1.387 . S
H470 C477 0.950 . S
C471 C469 1.387 . S
C471 C473 1.390 . S
C471 H475 0.950 . S
H472 C468 0.950 1_556 S
C473 C471 1.390 . S
C473 C474 1.387 . S
C473 H476 0.950 . S
C474 C473 1.387 . S
C474 C477 1.387 . S
H475 C471 0.950 . S
H476 C473 0.950 . S
C477 C468 1.390 . S
C477 H470 0.950 . S
C477 C474 1.387 . S
C478 C479 1.387 . S
C478 H482 0.950 . S
C478 C487 1.390 . S
C479 C478 1.387 . S
C479 C481 1.387 . S
H480 C487 0.950 . S
C481 C479 1.387 . S
C481 C483 1.390 . S
C481 H485 0.950 . S
H482 C478 0.950 . S
C483 C481 1.390 . S
C483 C484 1.387 . S
C483 H486 0.950 . S
C484 C483 1.387 . S
C484 C487 1.387 . S
H485 C481 0.950 . S
H486 C483 0.950 . S
C487 C478 1.390 . S
C487 H480 0.950 . S
C487 C484 1.387 . S
C488 C489 1.387 . S
C488 H492 0.950 . S
C488 C497 1.390 . S
C489 C488 1.387 . S
C489 C491 1.387 1_545 S
H490 C497 0.950 . S
C491 C489 1.387 1_565 S
C491 C493 1.390 . S
C491 H495 0.950 . S
H492 C488 0.950 . S
C493 C491 1.390 . S
C493 C494 1.387 1_565 S
C493 H496 0.950 . S
C494 C493 1.387 1_545 S
C494 C497 1.387 . S
H495 C491 0.950 . S
H496 C493 0.950 . S
C497 C488 1.390 . S
C497 H490 0.950 . S
C497 C494 1.387 . S
C498 C499 1.387 . S
C498 H502 0.950 . S
C498 C507 1.390 . S
C499 C498 1.387 . S
C499 C501 1.387 . S
H500 C507 0.950 . S
C501 C499 1.387 . S
C501 C503 1.390 . S
C501 H505 0.950 . S
H502 C498 0.950 . S
C503 C501 1.390 . S
C503 C504 1.387 . S
C503 H506 0.950 . S
C504 C503 1.387 . S
C504 C507 1.387 . S
H505 C501 0.950 . S
H506 C503 0.950 . S
C507 C498 1.390 . S
C507 H500 0.950 . S
C507 C504 1.387 . S
C508 C509 1.387 . S
C508 H512 0.950 . S
C508 C517 1.390 . S
C509 C508 1.387 . S
C509 C511 1.387 1_565 S
H510 C517 0.950 . S
C511 C509 1.387 1_545 S
C511 C513 1.390 1_545 S
C511 H515 0.950 . S
H512 C508 0.950 . S
C513 C511 1.390 1_565 S
C513 C514 1.387 . S
C513 H516 0.950 1_565 S
C514 C513 1.387 . S
C514 C517 1.387 . S
H515 C511 0.950 . S
H516 C513 0.950 1_545 S
C517 C508 1.390 . S
C517 H510 0.950 . S
C517 C514 1.387 . S
C518 C519 1.387 . S
C518 H522 0.950 . S
C518 C527 1.390 . S
C519 C518 1.387 . S
C519 C521 1.387 . S
H520 C527 0.950 . S
C521 C519 1.387 . S
C521 C523 1.390 . S
C521 H525 0.950 . S
H522 C518 0.950 . S
C523 C521 1.390 . S
C523 C524 1.387 . S
C523 H526 0.950 . S
C524 C523 1.387 . S
C524 C527 1.387 . S
H525 C521 0.950 . S
H526 C523 0.950 . S
C527 C518 1.390 . S
C527 H520 0.950 . S
C527 C524 1.387 . S
C528 C529 1.387 1_545 S
C528 H532 0.950 . S
C528 C537 1.390 . S
C529 C528 1.387 1_565 S
C529 C531 1.387 . S
H530 C537 0.950 . S
C531 C529 1.387 . S
C531 C533 1.390 . S
C531 H535 0.950 . S
H532 C528 0.950 . S
C533 C531 1.390 . S
C533 C534 1.387 . S
C533 H536 0.950 . S
C534 C533 1.387 . S
C534 C537 1.387 1_565 S
H535 C531 0.950 . S
H536 C533 0.950 . S
C537 C528 1.390 . S
C537 H530 0.950 . S
C537 C534 1.387 1_545 S
C538 C539 1.387 . S
C538 H542 0.950 . S
C538 C547 1.390 . S
C539 C538 1.387 . S
C539 C541 1.387 . S
H540 C547 0.950 . S
C541 C539 1.387 . S
C541 C543 1.390 . S
C541 H545 0.950 . S
H542 C538 0.950 . S
C543 C541 1.390 . S
C543 C544 1.387 . S
C543 H546 0.950 . S
C544 C543 1.387 . S
C544 C547 1.387 . S
H545 C541 0.950 . S
H546 C543 0.950 . S
C547 C538 1.390 . S
C547 H540 0.950 . S
C547 C544 1.387 . S
C548 C549 1.387 . S
C548 H552 0.950 . S
C548 C557 1.390 . S
C549 C548 1.387 . S
C549 C551 1.387 1_545 S
H550 C557 0.950 . S
C551 C549 1.387 1_565 S
C551 C553 1.390 . S
C551 H555 0.950 . S
H552 C548 0.950 . S
C553 C551 1.390 . S
C553 C554 1.387 1_565 S
C553 H556 0.950 . S
C554 C553 1.387 1_545 S
C554 C557 1.387 . S
H555 C551 0.950 . S
H556 C553 0.950 . S
C557 C548 1.390 . S
C557 H550 0.950 . S
C557 C554 1.387 . S
C558 C559 1.387 . S
C558 H562 0.950 . S
C558 C567 1.390 . S
C559 C558 1.387 . S
C559 C561 1.387 . S
H560 C567 0.950 . S
C561 C559 1.387 . S
C561 C563 1.390 . S
C561 H565 0.950 . S
H562 C558 0.950 . S
C563 C561 1.390 . S
C563 C564 1.387 . S
C563 H566 0.950 . S
C564 C563 1.387 . S
C564 C567 1.387 . S
H565 C561 0.950 . S
H566 C563 0.950 . S
C567 C558 1.390 . S
C567 H560 0.950 . S
C567 C564 1.387 . S
C568 C569 1.387 . S
C568 H572 0.950 . S
C568 C577 1.390 . S
C569 C568 1.387 . S
C569 C571 1.387 1_554 S
H570 C577 0.950 . S
C571 C569 1.387 1_556 S
C571 C573 1.390 . S
C571 H575 0.950 . S
H572 C568 0.950 . S
C573 C571 1.390 . S
C573 C574 1.387 1_556 S
C573 H576 0.950 . S
C574 C573 1.387 1_554 S
C574 C577 1.387 . S
H575 C571 0.950 . S
H576 C573 0.950 . S
C577 C568 1.390 . S
C577 H570 0.950 . S
C577 C574 1.387 . S
C578 C579 1.387 1_554 S
C578 H582 0.950 . S
C578 C587 1.390 . S
C579 C578 1.387 1_556 S
C579 C581 1.387 . S
H580 C587 0.950 . S
C581 C579 1.387 . S
C581 C583 1.390 . S
C581 H585 0.950 . S
H582 C578 0.950 . S
C583 C581 1.390 . S
C583 C584 1.387 . S
C583 H586 0.950 . S
C584 C583 1.387 . S
C584 C587 1.387 1_556 S
H585 C581 0.950 . S
H586 C583 0.950 . S
C587 C578 1.390 . S
C587 H580 0.950 . S
C587 C584 1.387 1_554 S
C588 C589 1.387 . S
C588 H592 0.950 . S
C588 C597 1.390 . S
C589 C588 1.387 . S
C589 C591 1.387 . S
H590 C597 0.950 . S
C591 C589 1.387 . S
C591 C593 1.390 . S
C591 H595 0.950 . S
H592 C588 0.950 . S
C593 C591 1.390 . S
C593 C594 1.387 . S
C593 H596 0.950 . S
C594 C593 1.387 . S
C594 C597 1.387 . S
H595 C591 0.950 . S
H596 C593 0.950 . S
C597 C588 1.390 . S
C597 H590 0.950 . S
C597 C594 1.387 . S
C598 C599 1.387 . S
C598 H602 0.950 . S
C598 C607 1.390 . S
C599 C598 1.387 . S
C599 C601 1.387 . S
H600 C607 0.950 . S
C601 C599 1.387 . S
C601 C603 1.390 . S
C601 H605 0.950 . S
H602 C598 0.950 . S
C603 C601 1.390 . S
C603 C604 1.387 . S
C603 H606 0.950 . S
C604 C603 1.387 . S
C604 C607 1.387 . S
H605 C601 0.950 . S
H606 C603 0.950 . S
C607 C598 1.390 . S
C607 H600 0.950 . S
C607 C604 1.387 . S
C608 C609 1.387 . S
C608 H612 0.950 . S
C608 C617 1.390 . S
C609 C608 1.387 . S
C609 C611 1.387 . S
H610 C617 0.950 . S
C611 C609 1.387 . S
C611 C613 1.390 . S
C611 H615 0.950 . S
H612 C608 0.950 . S
C613 C611 1.390 . S
C613 C614 1.387 . S
C613 H616 0.950 . S
C614 C613 1.387 . S
C614 C617 1.387 . S
H615 C611 0.950 . S
H616 C613 0.950 . S
C617 C608 1.390 . S
C617 H610 0.950 . S
C617 C614 1.387 . S
C618 C619 1.387 . S
C618 H622 0.950 . S
C618 C627 1.390 . S
C619 C618 1.387 . S
C619 C621 1.387 . S
H620 C627 0.950 . S
C621 C619 1.387 . S
C621 C623 1.390 . S
C621 H625 0.950 . S
H622 C618 0.950 . S
C623 C621 1.390 . S
C623 C624 1.387 . S
C623 H626 0.950 . S
C624 C623 1.387 . S
C624 C627 1.387 . S
H625 C621 0.950 . S
H626 C623 0.950 . S
C627 C618 1.390 . S
C627 H620 0.950 . S
C627 C624 1.387 . S
C628 C629 1.387 . S
C628 H632 0.950 . S
C628 C637 1.390 . S
C629 C628 1.387 . S
C629 C631 1.387 . S
H630 C637 0.950 . S
C631 C629 1.387 . S
C631 C633 1.390 . S
C631 H635 0.950 . S
H632 C628 0.950 . S
C633 C631 1.390 . S
C633 C634 1.387 . S
C633 H636 0.950 . S
C634 C633 1.387 . S
C634 C637 1.387 . S
H635 C631 0.950 . S
H636 C633 0.950 . S
C637 C628 1.390 . S
C637 H630 0.950 . S
C637 C634 1.387 . S
C638 C639 1.387 . S
C638 H642 0.950 . S
C638 C647 1.390 . S
C639 C638 1.387 . S
C639 C641 1.387 . S
H640 C647 0.950 . S
C641 C639 1.387 . S
C641 C643 1.390 . S
C641 H645 0.950 . S
H642 C638 0.950 . S
C643 C641 1.390 . S
C643 C644 1.387 . S
C643 H646 0.950 . S
C644 C643 1.387 . S
C644 C647 1.387 . S
H645 C641 0.950 . S
H646 C643 0.950 . S
C647 C638 1.390 . S
C647 H640 0.950 . S
C647 C644 1.387 . S
C648 C649 1.387 . S
C648 H652 0.950 . S
C648 C657 1.390 . S
C649 C648 1.387 . S
C649 C651 1.387 . S
H650 C657 0.950 . S
C651 C649 1.387 . S
C651 C653 1.390 . S
C651 H655 0.950 . S
H652 C648 0.950 . S
C653 C651 1.390 . S
C653 C654 1.387 . S
C653 H656 0.950 . S
C654 C653 1.387 . S
C654 C657 1.387 . S
H655 C651 0.950 . S
H656 C653 0.950 . S
C657 C648 1.390 . S
C657 H650 0.950 . S
C657 C654 1.387 . S
C658 C659 1.387 . S
C658 H662 0.950 . S
C658 C667 1.390 . S
C659 C658 1.387 . S
C659 C661 1.387 . S
H660 C667 0.950 . S
C661 C659 1.387 . S
C661 C663 1.390 . S
C661 H665 0.950 . S
H662 C658 0.950 . S
C663 C661 1.390 . S
C663 C664 1.387 . S
C663 H666 0.950 . S
C664 C663 1.387 . S
C664 C667 1.387 . S
H665 C661 0.950 . S
H666 C663 0.950 . S
C667 C658 1.390 . S
C667 H660 0.950 . S
C667 C664 1.387 . S
C668 C669 1.387 1_455 S
C668 H672 0.950 . S
C668 C677 1.391 . S
C669 C668 1.387 1_655 S
C669 C671 1.387 . S
H670 C677 0.952 . S
C671 C669 1.387 . S
C671 C673 1.390 . S
C671 H675 0.950 1_556 S
H672 C668 0.950 . S
C673 C671 1.390 . S
C673 C674 1.387 . S
C673 H676 0.950 . S
C674 C673 1.387 . S
C674 C677 1.385 1_655 S
H675 C671 0.950 1_554 S
H676 C673 0.950 . S
C677 C668 1.391 . S
C677 H670 0.952 . S
C677 C674 1.385 1_455 S
C678 C679 1.387 . S
C678 H682 0.950 . S
C678 C687 1.390 . S
C679 C678 1.387 . S
C679 C681 1.387 . S
H680 C687 0.950 . S
C681 C679 1.387 . S
C681 C683 1.390 . S
C681 H685 0.950 . S
H682 C678 0.950 . S
C683 C681 1.390 . S
C683 C684 1.387 . S
C683 H686 0.950 . S
C684 C683 1.387 . S
C684 C687 1.387 . S
H685 C681 0.950 . S
H686 C683 0.950 . S
C687 C678 1.390 . S
C687 H680 0.950 . S
C687 C684 1.387 . S
C688 C689 1.387 . S
C688 H692 0.950 1_554 S
C688 C697 1.390 . S
C689 C688 1.387 . S
C689 C691 1.387 . S
H690 C697 0.950 . S
C691 C689 1.387 . S
C691 C693 1.390 . S
C691 H695 0.950 . S
H692 C688 0.950 1_556 S
C693 C691 1.390 . S
C693 C694 1.387 . S
C693 H696 0.950 . S
C694 C693 1.387 . S
C694 C697 1.387 . S
H695 C691 0.950 . S
H696 C693 0.950 . S
C697 C688 1.390 . S
C697 H690 0.950 . S
C697 C694 1.387 . S
C698 C699 1.387 . S
C698 H702 0.950 . S
C698 C707 1.390 . S
C699 C698 1.387 . S
C699 C701 1.387 . S
H700 C707 0.950 . S
C701 C699 1.387 . S
C701 C703 1.390 . S
C701 H705 0.950 . S
H702 C698 0.950 . S
C703 C701 1.390 . S
C703 C704 1.387 . S
C703 H706 0.950 . S
C704 C703 1.387 . S
C704 C707 1.387 . S
H705 C701 0.950 . S
H706 C703 0.950 . S
C707 C698 1.390 . S
C707 H700 0.950 . S
C707 C704 1.387 . S
C708 C709 1.387 . S
C708 H712 0.950 . S
C708 C717 1.390 . S
C709 C708 1.387 . S
C709 C711 1.387 1_655 S
H710 C717 0.950 . S
C711 C709 1.387 1_455 S
C711 C713 1.390 . S
C711 H715 0.950 . S
H712 C708 0.950 . S
C713 C711 1.390 . S
C713 C714 1.387 1_455 S
C713 H716 0.950 . S
C714 C713 1.387 1_655 S
C714 C717 1.387 . S
H715 C711 0.950 . S
H716 C713 0.950 . S
C717 C708 1.390 . S
C717 H710 0.950 . S
C717 C714 1.387 . S
C718 C719 1.387 . S
C718 H722 0.950 . S
C718 C727 1.390 . S
C719 C718 1.387 . S
C719 C721 1.387 . S
H720 C727 0.950 . S
C721 C719 1.387 . S
C721 C723 1.390 . S
C721 H725 0.950 . S
H722 C718 0.950 . S
C723 C721 1.390 . S
C723 C724 1.387 . S
C723 H726 0.950 . S
C724 C723 1.387 . S
C724 C727 1.387 . S
H725 C721 0.950 . S
H726 C723 0.950 . S
C727 C718 1.390 . S
C727 H720 0.950 . S
C727 C724 1.387 . S
C728 C729 1.387 . S
C728 H732 0.950 . S
C728 C737 1.390 . S
C729 C728 1.387 . S
C729 C731 1.387 . S
H730 C737 0.950 . S
C731 C729 1.387 . S
C731 C733 1.390 . S
C731 H735 0.950 . S
H732 C728 0.950 . S
C733 C731 1.390 . S
C733 C734 1.387 . S
C733 H736 0.950 . S
C734 C733 1.387 . S
C734 C737 1.387 . S
H735 C731 0.950 . S
H736 C733 0.950 . S
C737 C728 1.390 . S
C737 H730 0.950 . S
C737 C734 1.387 . S
C738 C739 1.387 . S
C738 H742 0.950 . S
C738 C747 1.390 . S
C739 C738 1.387 . S
C739 C741 1.387 . S
H740 C747 0.950 . S
C741 C739 1.387 . S
C741 C743 1.390 . S
C741 H745 0.950 . S
H742 C738 0.950 . S
C743 C741 1.390 . S
C743 C744 1.387 . S
C743 H746 0.950 . S
C744 C743 1.387 . S
C744 C747 1.387 . S
H745 C741 0.950 . S
H746 C743 0.950 . S
C747 C738 1.390 . S
C747 H740 0.950 . S
C747 C744 1.387 . S
C748 C749 1.387 . S
C748 H752 0.950 . S
C748 C757 1.390 . S
C749 C748 1.387 . S
C749 C751 1.387 . S
H750 C757 0.950 . S
C751 C749 1.387 . S
C751 C753 1.390 . S
C751 H755 0.950 . S
H752 C748 0.950 . S
C753 C751 1.390 . S
C753 C754 1.387 . S
C753 H756 0.950 . S
C754 C753 1.387 . S
C754 C757 1.387 . S
H755 C751 0.950 . S
H756 C753 0.950 . S
C757 C748 1.390 . S
C757 H750 0.950 . S
C757 C754 1.387 . S
C758 C759 1.387 . S
C758 H762 0.950 . S
C758 C767 1.390 . S
C759 C758 1.387 . S
C759 C761 1.387 . S
H760 C767 0.950 . S
C761 C759 1.387 . S
C761 C763 1.390 . S
C761 H765 0.950 . S
H762 C758 0.950 . S
C763 C761 1.390 . S
C763 C764 1.387 . S
C763 H766 0.950 . S
C764 C763 1.387 . S
C764 C767 1.387 . S
H765 C761 0.950 . S
H766 C763 0.950 . S
C767 C758 1.390 . S
C767 H760 0.950 . S
C767 C764 1.387 . S
C768 C769 1.387 . S
C768 H772 0.950 . S
C768 C777 1.390 . S
C769 C768 1.387 . S
C769 C771 1.387 . S
H770 C777 0.950 . S
C771 C769 1.387 . S
C771 C773 1.390 . S
C771 H775 0.950 . S
H772 C768 0.950 . S
C773 C771 1.390 . S
C773 C774 1.387 . S
C773 H776 0.950 . S
C774 C773 1.387 . S
C774 C777 1.387 . S
H775 C771 0.950 . S
H776 C773 0.950 . S
C777 C768 1.390 . S
C777 H770 0.950 . S
C777 C774 1.387 . S
C778 C779 1.387 . S
C778 H782 0.950 . S
C778 C787 1.390 . S
C779 C778 1.387 . S
C779 C781 1.387 . S
H780 C787 0.950 . S
C781 C779 1.387 . S
C781 C783 1.390 . S
C781 H785 0.950 . S
H782 C778 0.950 . S
C783 C781 1.390 . S
C783 C784 1.387 . S
C783 H786 0.950 . S
C784 C783 1.387 . S
C784 C787 1.387 . S
H785 C781 0.950 . S
H786 C783 0.950 . S
C787 C778 1.390 . S
C787 H780 0.950 . S
C787 C784 1.387 . S
C788 C789 1.387 . S
C788 H792 0.950 . S
C788 C797 1.390 . S
C789 C788 1.387 . S
C789 C791 1.387 . S
H790 C797 0.950 . S
C791 C789 1.387 . S
C791 C793 1.390 . S
C791 H795 0.950 . S
H792 C788 0.950 . S
C793 C791 1.390 . S
C793 C794 1.387 . S
C793 H796 0.950 . S
C794 C793 1.387 . S
C794 C797 1.387 . S
H795 C791 0.950 . S
H796 C793 0.950 . S
C797 C788 1.390 . S
C797 H790 0.950 . S
C797 C794 1.387 . S
C798 C799 1.387 . S
C798 H802 0.950 . S
C798 C807 1.390 . S
C799 C798 1.387 . S
C799 C801 1.387 . S
H800 C807 0.950 . S
C801 C799 1.387 . S
C801 C803 1.390 . S
C801 H805 0.950 . S
H802 C798 0.950 . S
C803 C801 1.390 . S
C803 C804 1.387 . S
C803 H806 0.950 . S
C804 C803 1.387 . S
C804 C807 1.387 . S
H805 C801 0.950 . S
H806 C803 0.950 . S
C807 C798 1.390 . S
C807 H800 0.950 . S
C807 C804 1.387 . S
C808 C809 1.387 . S
C808 H812 0.950 . S
C808 C817 1.390 . S
C809 C808 1.387 . S
C809 C811 1.387 . S
H810 C817 0.950 . S
C811 C809 1.387 . S
C811 C813 1.390 . S
C811 H815 0.950 . S
H812 C808 0.950 . S
C813 C811 1.390 . S
C813 C814 1.387 . S
C813 H816 0.950 . S
C814 C813 1.387 . S
C814 C817 1.387 . S
H815 C811 0.950 . S
H816 C813 0.950 . S
C817 C808 1.390 . S
C817 H810 0.950 . S
C817 C814 1.387 . S
C818 C819 1.387 . S
C818 H822 0.950 . S
C818 C827 1.390 . S
C819 C818 1.387 . S
C819 C821 1.387 . S
H820 C827 0.950 . S
C821 C819 1.387 . S
C821 C823 1.390 . S
C821 H825 0.950 . S
H822 C818 0.950 . S
C823 C821 1.390 . S
C823 C824 1.387 . S
C823 H826 0.950 . S
C824 C823 1.387 . S
C824 C827 1.387 . S
H825 C821 0.950 . S
H826 C823 0.950 . S
C827 C818 1.390 . S
C827 H820 0.950 . S
C827 C824 1.387 . S
C828 C829 1.387 . S
C828 H832 0.950 . S
C828 C837 1.390 . S
C829 C828 1.387 . S
C829 C831 1.387 . S
H830 C837 0.950 . S
C831 C829 1.387 . S
C831 C833 1.390 . S
C831 H835 0.950 . S
H832 C828 0.950 . S
C833 C831 1.390 . S
C833 C834 1.387 . S
C833 H836 0.950 . S
C834 C833 1.387 . S
C834 C837 1.387 . S
H835 C831 0.950 . S
H836 C833 0.950 . S
C837 C828 1.390 . S
C837 H830 0.950 . S
C837 C834 1.387 . S
C838 C839 1.387 1_554 S
C838 H842 0.950 . S
C838 C847 1.390 . S
C839 C838 1.387 1_556 S
C839 C841 1.387 . S
H840 C847 0.950 . S
C841 C839 1.387 . S
C841 C843 1.390 . S
C841 H845 0.950 . S
H842 C838 0.950 . S
C843 C841 1.390 . S
C843 C844 1.387 . S
C843 H846 0.950 . S
C844 C843 1.387 . S
C844 C847 1.387 1_556 S
H845 C841 0.950 . S
H846 C843 0.950 . S
C847 C838 1.390 . S
C847 H840 0.950 . S
C847 C844 1.387 1_554 S
C848 C849 1.387 . S
C848 H852 0.950 . S
C848 C857 1.390 . S
C849 C848 1.387 . S
C849 C851 1.387 . S
H850 C857 0.950 . S
C851 C849 1.387 . S
C851 C853 1.390 . S
C851 H855 0.950 . S
H852 C848 0.950 . S
C853 C851 1.390 . S
C853 C854 1.387 . S
C853 H856 0.950 . S
C854 C853 1.387 . S
C854 C857 1.387 . S
H855 C851 0.950 . S
H856 C853 0.950 . S
C857 C848 1.390 . S
C857 H850 0.950 . S
C857 C854 1.387 . S
C858 C859 1.387 1_556 S
C858 H862 0.950 . S
C858 C867 1.390 . S
C859 C858 1.387 1_554 S
C859 C861 1.387 . S
H860 C867 0.950 . S
C861 C859 1.387 . S
C861 C863 1.390 . S
C861 H865 0.950 . S
H862 C858 0.950 . S
C863 C861 1.390 . S
C863 C864 1.387 . S
C863 H866 0.950 . S
C864 C863 1.387 . S
C864 C867 1.387 1_554 S
H865 C861 0.950 . S
H866 C863 0.950 . S
C867 C858 1.390 . S
C867 H860 0.950 . S
C867 C864 1.387 1_556 S
C868 C869 1.387 . S
C868 H872 0.950 . S
C868 C877 1.390 . S
C869 C868 1.387 . S
C869 C871 1.387 . S
H870 C877 0.950 . S
C871 C869 1.387 . S
C871 C873 1.390 . S
C871 H875 0.950 . S
H872 C868 0.950 . S
C873 C871 1.390 . S
C873 C874 1.387 . S
C873 H876 0.950 . S
C874 C873 1.387 . S
C874 C877 1.387 . S
H875 C871 0.950 . S
H876 C873 0.950 . S
C877 C868 1.390 . S
C877 H870 0.950 . S
C877 C874 1.387 . S
C878 C879 1.387 . S
C878 H882 0.950 . S
C878 C887 1.390 . S
C879 C878 1.387 . S
C879 C881 1.387 . S
H880 C887 0.950 . S
C881 C879 1.387 . S
C881 C883 1.390 . S
C881 H885 0.950 . S
H882 C878 0.950 . S
C883 C881 1.390 . S
C883 C884 1.387 . S
C883 H886 0.950 . S
C884 C883 1.387 . S
C884 C887 1.387 . S
H885 C881 0.950 . S
H886 C883 0.950 . S
C887 C878 1.390 . S
C887 H880 0.950 . S
C887 C884 1.387 . S
C414 C404 1.259 . S
C409 C5 1.383 1_556 S
C419 C16 1.383 . S
C424 C333 1.175 . S
C429 C36 1.371 . S
C434 C362 1.256 . S
C444 C375 1.163 . S
C439 C49 1.371 . S
C449 C23 1.370 . S
C454 C396 1.149 . S
C464 C341 1.267 . S
C459 C29 1.383 . S
C474 C354 1.151 . S
C469 C42 1.376 1_554 S
C484 C383 1.268 . S
C479 C4 1.379 . S
C489 C55 1.376 1_655 S
C494 C385 1.173 . S
C504 C399 1.284 . S
C499 C69 1.384 . S
C514 C343 1.176 . S
C509 C83 1.370 . S
C524 C357 1.275 . S
C519 C101 1.374 . S
C529 C57 1.365 1_655 S
C534 C336 1.267 . S
C539 C75 1.381 . S
C544 C364 1.199 . S
C549 C81 1.374 . S
C554 C378 1.263 . S
C564 C406 1.193 . S
C559 C95 1.380 . S
C574 C215 1.246 . S
C569 C96 1.380 1_565 S
C584 C196 1.166 . S
C579 C107 1.354 . S
C594 C210 1.267 . S
C589 C121 1.371 . S
C604 C231 1.262 . S
C599 C133 1.365 . S
C609 C62 1.377 . S
C614 C217 1.180 . S
C619 C68 1.382 1_545 S
C624 C168 1.261 . S
C629 C127 1.387 . S
C634 C228 1.188 . S
C639 C147 1.378 . S
C644 C194 1.278 . S
C654 C257 1.248 . S
C649 C30 1.372 . S
C664 C270 1.168 . S
C659 C43 1.370 . S
C669 C3 1.381 1_556 S
C674 C299 1.258 . S
C679 C18 1.378 . S
C684 C312 1.163 . S
C694 C249 1.150 . S
C689 C44 1.381 1_554 S
C704 C278 1.272 . S
C699 C10 1.376 . S
C709 C17 1.374 . S
C714 C291 1.156 . S
C724 C320 1.270 . S
C719 C31 1.382 . S
C729 C146 1.387 . S
C734 C322 1.185 . S
C739 C114 1.364 . S
C744 C252 1.267 . S
C754 C280 1.183 . S
C749 C122 1.383 1_455 S
C759 C140 1.367 . S
C764 C294 1.281 . S
C774 C273 1.271 . S
C769 C148 1.385 . S
C779 C108 1.364 . S
C784 C301 1.183 . S
C794 C315 1.272 . S
C789 C120 1.386 1_455 S
C804 C259 1.191 . S
C799 C134 1.375 . S
C814 C175 1.174 . S
C809 C135 1.392 . S
C824 C238 1.195 . S
C819 C70 1.388 1_545 S
C829 C82 1.381 . S
C834 C165 1.167 . S
C844 C189 1.271 . S
C839 C94 1.379 1_565 S
C854 C173 1.259 . S
C849 C153 1.380 . S
C859 C109 1.383 . S
C864 C207 1.149 . S
C869 C88 1.356 . S
C874 C186 1.160 . S
C879 C56 1.362 . S
C884 C236 1.268 . S
