# Generated by pormake.
# Topology ctn, (3,4)-cn, num edge types: 1
# Building blocks:
#     Node 0, Type 0, BuildingBlock: VETTIZ_charged_linker_0, # of connection points: 3
#     Node 1, Type 0, BuildingBlock: VETTIZ_charged_linker_0, # of connection points: 3
#     Node 2, Type 0, BuildingBlock: VETTIZ_charged_linker_0, # of connection points: 3
#     Node 3, Type 0, BuildingBlock: VETTIZ_charged_linker_0, # of connection points: 3
#     Node 4, Type 0, BuildingBlock: VETTIZ_charged_linker_0, # of connection points: 3
#     Node 5, Type 0, BuildingBlock: VETTIZ_charged_linker_0, # of connection points: 3
#     Node 6, Type 0, BuildingBlock: VETTIZ_charged_linker_0, # of connection points: 3
#     Node 7, Type 0, BuildingBlock: VETTIZ_charged_linker_0, # of connection points: 3
#     Node 8, Type 0, BuildingBlock: VETTIZ_charged_linker_0, # of connection points: 3
#     Node 9, Type 0, BuildingBlock: VETTIZ_charged_linker_0, # of connection points: 3
#     Node 10, Type 0, BuildingBlock: VETTIZ_charged_linker_0, # of connection points: 3
#     Node 11, Type 0, BuildingBlock: VETTIZ_charged_linker_0, # of connection points: 3
#     Node 12, Type 0, BuildingBlock: VETTIZ_charged_linker_0, # of connection points: 3
#     Node 13, Type 0, BuildingBlock: VETTIZ_charged_linker_0, # of connection points: 3
#     Node 14, Type 0, BuildingBlock: VETTIZ_charged_linker_0, # of connection points: 3
#     Node 15, Type 0, BuildingBlock: VETTIZ_charged_linker_0, # of connection points: 3
#     Node 16, Type 1, BuildingBlock: UXUYUI_clean_sbu_0, # of connection points: 4
#     Node 17, Type 1, BuildingBlock: UXUYUI_clean_sbu_0, # of connection points: 4
#     Node 18, Type 1, BuildingBlock: UXUYUI_clean_sbu_0, # of connection points: 4
#     Node 19, Type 1, BuildingBlock: UXUYUI_clean_sbu_0, # of connection points: 4
#     Node 20, Type 1, BuildingBlock: UXUYUI_clean_sbu_0, # of connection points: 4
#     Node 21, Type 1, BuildingBlock: UXUYUI_clean_sbu_0, # of connection points: 4
#     Node 22, Type 1, BuildingBlock: UXUYUI_clean_sbu_0, # of connection points: 4
#     Node 23, Type 1, BuildingBlock: UXUYUI_clean_sbu_0, # of connection points: 4
#     Node 24, Type 1, BuildingBlock: UXUYUI_clean_sbu_0, # of connection points: 4
#     Node 25, Type 1, BuildingBlock: UXUYUI_clean_sbu_0, # of connection points: 4
#     Node 26, Type 1, BuildingBlock: UXUYUI_clean_sbu_0, # of connection points: 4
#     Node 27, Type 1, BuildingBlock: UXUYUI_clean_sbu_0, # of connection points: 4
#     Edge 28, Type (0, 1), BuildingBlock: AJUNOK_clean_linker_0, # of connection points: 2
#     Edge 29, Type (0, 1), BuildingBlock: AJUNOK_clean_linker_0, # of connection points: 2
#     Edge 30, Type (0, 1), BuildingBlock: AJUNOK_clean_linker_0, # of connection points: 2
#     Edge 31, Type (0, 1), BuildingBlock: AJUNOK_clean_linker_0, # of connection points: 2
#     Edge 32, Type (0, 1), BuildingBlock: AJUNOK_clean_linker_0, # of connection points: 2
#     Edge 33, Type (0, 1), BuildingBlock: AJUNOK_clean_linker_0, # of connection points: 2
#     Edge 34, Type (0, 1), BuildingBlock: AJUNOK_clean_linker_0, # of connection points: 2
#     Edge 35, Type (0, 1), BuildingBlock: AJUNOK_clean_linker_0, # of connection points: 2
#     Edge 36, Type (0, 1), BuildingBlock: AJUNOK_clean_linker_0, # of connection points: 2
#     Edge 37, Type (0, 1), BuildingBlock: AJUNOK_clean_linker_0, # of connection points: 2
#     Edge 38, Type (0, 1), BuildingBlock: AJUNOK_clean_linker_0, # of connection points: 2
#     Edge 39, Type (0, 1), BuildingBlock: AJUNOK_clean_linker_0, # of connection points: 2
#     Edge 40, Type (0, 1), BuildingBlock: AJUNOK_clean_linker_0, # of connection points: 2
#     Edge 41, Type (0, 1), BuildingBlock: AJUNOK_clean_linker_0, # of connection points: 2
#     Edge 42, Type (0, 1), BuildingBlock: AJUNOK_clean_linker_0, # of connection points: 2
#     Edge 43, Type (0, 1), BuildingBlock: AJUNOK_clean_linker_0, # of connection points: 2
#     Edge 44, Type (0, 1), BuildingBlock: AJUNOK_clean_linker_0, # of connection points: 2
#     Edge 45, Type (0, 1), BuildingBlock: AJUNOK_clean_linker_0, # of connection points: 2
#     Edge 46, Type (0, 1), BuildingBlock: AJUNOK_clean_linker_0, # of connection points: 2
#     Edge 47, Type (0, 1), BuildingBlock: AJUNOK_clean_linker_0, # of connection points: 2
#     Edge 48, Type (0, 1), BuildingBlock: AJUNOK_clean_linker_0, # of connection points: 2
#     Edge 49, Type (0, 1), BuildingBlock: AJUNOK_clean_linker_0, # of connection points: 2
#     Edge 50, Type (0, 1), BuildingBlock: AJUNOK_clean_linker_0, # of connection points: 2
#     Edge 51, Type (0, 1), BuildingBlock: AJUNOK_clean_linker_0, # of connection points: 2
#     Edge 52, Type (0, 1), BuildingBlock: AJUNOK_clean_linker_0, # of connection points: 2
#     Edge 53, Type (0, 1), BuildingBlock: AJUNOK_clean_linker_0, # of connection points: 2
#     Edge 54, Type (0, 1), BuildingBlock: AJUNOK_clean_linker_0, # of connection points: 2
#     Edge 55, Type (0, 1), BuildingBlock: AJUNOK_clean_linker_0, # of connection points: 2
#     Edge 56, Type (0, 1), BuildingBlock: AJUNOK_clean_linker_0, # of connection points: 2
#     Edge 57, Type (0, 1), BuildingBlock: AJUNOK_clean_linker_0, # of connection points: 2
#     Edge 58, Type (0, 1), BuildingBlock: AJUNOK_clean_linker_0, # of connection points: 2
#     Edge 59, Type (0, 1), BuildingBlock: AJUNOK_clean_linker_0, # of connection points: 2
#     Edge 60, Type (0, 1), BuildingBlock: AJUNOK_clean_linker_0, # of connection points: 2
#     Edge 61, Type (0, 1), BuildingBlock: AJUNOK_clean_linker_0, # of connection points: 2
#     Edge 62, Type (0, 1), BuildingBlock: AJUNOK_clean_linker_0, # of connection points: 2
#     Edge 63, Type (0, 1), BuildingBlock: AJUNOK_clean_linker_0, # of connection points: 2
#     Edge 64, Type (0, 1), BuildingBlock: AJUNOK_clean_linker_0, # of connection points: 2
#     Edge 65, Type (0, 1), BuildingBlock: AJUNOK_clean_linker_0, # of connection points: 2
#     Edge 66, Type (0, 1), BuildingBlock: AJUNOK_clean_linker_0, # of connection points: 2
#     Edge 67, Type (0, 1), BuildingBlock: AJUNOK_clean_linker_0, # of connection points: 2
#     Edge 68, Type (0, 1), BuildingBlock: AJUNOK_clean_linker_0, # of connection points: 2
#     Edge 69, Type (0, 1), BuildingBlock: AJUNOK_clean_linker_0, # of connection points: 2
#     Edge 70, Type (0, 1), BuildingBlock: AJUNOK_clean_linker_0, # of connection points: 2
#     Edge 71, Type (0, 1), BuildingBlock: AJUNOK_clean_linker_0, # of connection points: 2
#     Edge 72, Type (0, 1), BuildingBlock: AJUNOK_clean_linker_0, # of connection points: 2
#     Edge 73, Type (0, 1), BuildingBlock: AJUNOK_clean_linker_0, # of connection points: 2
#     Edge 74, Type (0, 1), BuildingBlock: AJUNOK_clean_linker_0, # of connection points: 2
#     Edge 75, Type (0, 1), BuildingBlock: AJUNOK_clean_linker_0, # of connection points: 2
# Relax obj value: 0.000
# Max RMSD: 0.002
# Mean RMSD: 0.001
data_MOF--net-ctn--node1-UXUYUI_clean_sbu_0--node2-VETTIZ_charged_linker_0--edge1-AJUNOK_clean_linker_0
_symmetry_space_group_name_H-M    P1
_symmetry_Int_Tables_number       1
_symmetry_cell_setting            triclinic
loop_
_symmetry_equiv_pos_as_xyz
'x, y, z'
_cell_length_a     65.268249
_cell_length_b     65.289848
_cell_length_c     65.26591
_cell_angle_alpha  89.978639
_cell_angle_beta   89.989527
_cell_angle_gamma 90.015406
loop_
_atom_site_label
_atom_site_type_symbol
_atom_site_fract_x
_atom_site_fract_y
_atom_site_fract_z
_atom_type_partial_charge
C0 C 0.0453 0.09789 0.99316 0.0
C1 C 0.02988 0.11276 0.99541 0.0
C2 C 0.01583 0.11084 0.01172 0.0
C3 C 0.03297 0.08001 0.02341 0.0
C4 C 0.04665 0.08184 0.00735 0.0
C5 C 0.06256 0.06517 0.00751 0.0
H6 H 0.10327 0.9812 0.05292 0.0
C7 C 0.03877 0.06173 0.0355 0.0
C8 C 0.05615 0.05301 0.02628 0.0
H9 H 0.12437 0.01252 0.99853 0.0
H10 H 0.09644 0.03658 1.00119 0.0
H11 H 0.09308 0.0213 0.07874 0.0
H12 H 0.05505 0.98279 0.04108 0.0
H13 H 0.04067 0.98929 0.06287 0.0
H14 H 0.06409 0.9749 0.06582 0.0
H15 H 0.0852 0.99616 0.08661 0.0
H16 H 0.06957 0.01841 0.0915 0.0
C17 C 0.08385 0.07532 0.01032 0.0
C18 C 0.06025 0.05252 0.98756 0.0
C19 C 0.99716 0.04168 0.09837 0.0
C20 C 0.99922 0.02587 0.11284 0.0
C21 C 0.01522 0.01157 0.11057 0.0
C22 C 0.02914 0.01313 0.0943 0.0
C23 C 0.02709 0.02917 0.08008 0.0
C24 C 0.01128 0.0431 0.08222 0.0
C25 C 0.01164 0.05926 0.06578 0.0
C26 C 0.03019 0.05266 0.05336 0.0
C27 C 0.03917 0.03503 0.06181 0.0
C28 C 0.01495 0.08035 0.07617 0.0
C29 C 0.99155 0.05752 0.05327 0.0
C30 C 0.10176 0.99321 0.04156 0.0
C31 C 0.11617 0.99518 0.02567 0.0
C32 C 0.11371 0.01098 0.01116 0.0
C33 C 0.09741 0.02487 0.01268 0.0
C34 C 0.08335 0.02298 0.02889 0.0
C35 C 0.08558 0.00726 0.04291 0.0
C36 C 0.06917 0.00766 0.05911 0.0
C37 C 0.05683 0.02627 0.05257 0.0
C38 C 0.06521 0.03518 0.03487 0.0
C39 C 0.07964 0.01091 0.08017 0.0
C40 C 0.05658 0.98761 0.05737 0.0
H41 H 1.00618 0.09406 0.03781 0.0
H42 H 0.05607 0.09862 0.98055 0.0
H43 H 0.04384 0.05113 0.98312 0.0
H44 H 0.06566 0.03658 0.98918 0.0
H45 H 0.06848 0.0599 0.97462 0.0
H46 H 0.0828 0.08894 0.02052 0.0
H47 H 0.09019 0.08054 0.99541 0.0
H48 H 0.09509 0.06519 0.01787 0.0
H49 H 0.98502 0.05291 0.09978 0.0
H50 H 0.01687 0.99905 0.12135 0.0
H51 H 0.041 1.00178 0.09346 0.0
H52 H 0.02494 0.07888 0.08991 0.0
H53 H 1.00017 0.08708 0.08124 0.0
H54 H 0.02298 0.09143 0.06621 0.0
H55 H 0.98717 0.04119 0.05112 0.0
H56 H 0.99292 0.06379 0.03763 0.0
H57 H 0.97869 0.0653 0.06125 0.0
H58 H 1.00384 0.12212 0.01383 0.0
C59 C 0.01728 0.09458 0.02569 0.0
C60 C 0.25482 0.65847 0.23857 0.0
C61 C 0.2377 0.65388 0.22632 0.0
C62 C 0.23281 0.66695 0.20983 0.0
C63 C 0.26224 0.68831 0.21756 0.0
C64 C 0.26682 0.67568 0.23393 0.0
C65 C 0.28556 0.68269 0.24537 0.0
H66 H 0.36444 0.74954 0.2547 0.0
C67 C 0.27794 0.70466 0.21672 0.0
C68 C 0.29163 0.70146 0.23302 0.0
H69 H 0.34949 0.69841 0.29406 0.0
H70 H 0.32026 0.69034 0.27288 0.0
H71 H 0.31788 0.7658 0.25017 0.0
H72 H 0.35555 0.727 0.21249 0.0
H73 H 0.34154 0.74283 0.19587 0.0
H74 H 0.35926 0.7542 0.21379 0.0
H75 H 0.33901 0.77543 0.23544 0.0
H76 H 0.31373 0.773 0.22457 0.0
C77 C 0.27906 0.68833 0.26751 0.0
C78 C 0.3019 0.66554 0.24401 0.0
C79 C 0.27543 0.75832 0.16015 0.0
C80 C 0.2882 0.77495 0.15515 0.0
C81 C 0.30557 0.77887 0.16736 0.0
C82 C 0.31008 0.76657 0.18437 0.0
C83 C 0.29715 0.75005 0.18925 0.0
C84 C 0.2802 0.74611 0.17718 0.0
C85 C 0.26842 0.72768 0.18449 0.0
C86 C 0.28103 0.72129 0.20299 0.0
C87 C 0.29781 0.73448 0.20572 0.0
C88 C 0.24662 0.73477 0.19066 0.0
C89 C 0.26893 0.71131 0.16731 0.0
C90 C 0.35471 0.73678 0.25891 0.0
C91 C 0.35918 0.72471 0.2762 0.0
C92 C 0.34642 0.70789 0.28079 0.0
C93 C 0.32939 0.70329 0.26851 0.0
C94 C 0.32502 0.7156 0.25138 0.0
C95 C 0.33758 0.73204 0.24685 0.0
C96 C 0.33052 0.74351 0.22815 0.0
C97 C 0.31161 0.73131 0.22225 0.0
C98 C 0.3085 0.71494 0.23586 0.0
C99 C 0.32509 0.76566 0.23472 0.0
C100 C 0.34756 0.74203 0.21166 0.0
H101 H 0.24053 0.69333 0.19253 0.0
H102 H 0.25873 0.64895 0.25159 0.0
H103 H 0.30174 0.65827 0.22859 0.0
H104 H 0.31769 0.67123 0.246 0.0
H105 H 0.29893 0.65334 0.2555 0.0
H106 H 0.26329 0.69481 0.26778 0.0
H107 H 0.27917 0.67466 0.27763 0.0
H108 H 0.28877 0.70039 0.27435 0.0
H109 H 0.26219 0.7547 0.15083 0.0
H110 H 0.31558 0.79162 0.16381 0.0
H111 H 0.32349 0.77041 0.19305 0.0
H112 H 0.24707 0.75024 0.1978 0.0
H113 H 0.2364 0.73566 0.17708 0.0
H114 H 0.23948 0.72482 0.20233 0.0
H115 H 0.28395 0.71145 0.15924 0.0
H116 H 0.26731 0.69553 0.17315 0.0
H117 H 0.25682 0.71421 0.15572 0.0
H118 H 0.21971 0.6637 0.20019 0.0
C119 C 0.24498 0.68409 0.20537 0.0
C120 C 0.98845 0.40867 1.00305 0.0
C121 C 0.97636 0.40457 0.98567 0.0
C122 C 0.96059 0.41836 0.98043 0.0
C123 C 0.96828 0.43912 0.01025 0.0
C124 C 0.98415 0.42596 0.01506 0.0
C125 C 0.99545 0.43255 0.03406 0.0
H126 H 1.00529 0.49874 0.11351 0.0
C127 C 0.96744 0.45522 0.02618 0.0
C128 C 0.98337 0.45149 0.04016 0.0
H129 H 0.04392 0.44719 0.09832 0.0
H130 H 0.02279 0.43965 0.06893 0.0
H131 H 0.96299 0.4761 0.10505 0.0
H132 H 0.99961 0.5153 0.0666 0.0
H133 H 0.97384 0.523 0.06457 0.0
H134 H 0.98645 0.52423 0.08906 0.0
H135 H 0.96318 0.5034 0.10823 0.0
H136 H 0.94591 0.49096 0.09055 0.0
C137 C 0.99352 0.41528 0.05021 0.0
C138 C 0.01779 0.43784 0.02794 0.0
C139 C 0.91128 0.50912 0.02367 0.0
C140 C 0.90518 0.52471 0.03727 0.0
C141 C 0.91682 0.52796 0.0552 0.0
C142 C 0.93401 0.51583 0.05961 0.0
C143 C 0.93965 0.5001 0.04603 0.0
C144 C 0.92823 0.49687 0.0285 0.0
C145 C 0.9358 0.4788 0.01637 0.0
C146 C 0.95379 0.47187 0.02938 0.0
C147 C 0.95612 0.48452 0.04662 0.0
C148 C 0.91844 0.46259 0.01578 0.0
C149 C 0.94278 0.48655 0.99505 0.0
C150 C 0.00912 0.48581 0.10384 0.0
C151 C 0.02643 0.4737 0.10805 0.0
C152 C 0.03091 0.457 0.09513 0.0
C153 C 0.01855 0.45258 0.07813 0.0
C154 C 1.00145 0.46497 0.07395 0.0
C155 C 0.99696 0.48126 0.08671 0.0
C156 C 0.97821 0.4928 0.07981 0.0
C157 C 0.97241 0.48095 0.06063 0.0
C158 C 0.98601 0.4646 0.05735 0.0
C159 C 0.96166 0.49094 0.09675 0.0
C160 C 0.98467 0.51507 0.07482 0.0
H161 H 0.94418 0.44535 0.98783 0.0
H162 H 1.00079 0.39846 0.00739 0.0
H163 H 0.01854 0.44394 0.01203 0.0
H164 H 0.02451 0.45007 0.03751 0.0
H165 H 0.02778 0.42408 0.02863 0.0
H166 H 0.97783 0.40859 0.05002 0.0
H167 H 1.00455 0.40271 0.04707 0.0
H168 H 0.9958 0.42071 0.06606 0.0
H169 H 0.90308 0.50644 0.00951 0.0
H170 H 0.91245 0.53974 0.06604 0.0
H171 H 0.94214 0.51905 0.07352 0.0
H172 H 0.90954 0.46262 0.03033 0.0
H173 H 0.90754 0.46572 1.00309 0.0
H174 H 0.92419 0.44676 0.01435 0.0
H175 H 0.95011 0.50189 0.99626 0.0
H176 H 0.95455 0.47667 0.98797 0.0
H177 H 0.92957 0.48796 0.98441 0.0
H178 H 0.95147 0.41593 0.96678 0.0
C179 C 0.95646 0.43554 0.99262 0.0
C180 C 0.66611 0.79044 0.27076 0.0
C181 C 0.65217 0.77416 0.26865 0.0
C182 C 0.65446 0.76051 0.25207 0.0
C183 C 0.68434 0.77923 0.24028 0.0
C184 C 0.68203 0.79263 0.25651 0.0
C185 C 0.69825 0.80901 0.25665 0.0
H186 H 0.78104 0.85297 0.21211 0.0
C187 C 0.70241 0.78583 0.22826 0.0
C188 C 0.71064 0.80327 0.23782 0.0
H189 H 0.74988 0.87136 0.26758 0.0
H190 H 0.7263 0.84316 0.26403 0.0
H191 H 0.74035 0.84168 0.18606 0.0
H192 H 0.78143 0.80535 0.22266 0.0
H193 H 0.77451 0.79028 0.20151 0.0
H194 H 0.78818 0.81398 0.19744 0.0
H195 H 0.76619 0.83609 0.17845 0.0
H196 H 0.74539 0.81891 0.1726 0.0
C197 C 0.68749 0.83002 0.25411 0.0
C198 C 0.7109 0.80678 0.27663 0.0
C199 C 0.7232 0.74657 0.16414 0.0
C200 C 0.73917 0.74913 0.14989 0.0
C201 C 0.75331 0.76521 0.15281 0.0
C202 C 0.75135 0.77873 0.16936 0.0
C203 C 0.73515 0.77616 0.18332 0.0
C204 C 0.72148 0.7602 0.18066 0.0
C205 C 0.7054 0.75967 0.1972 0.0
C206 C 0.71165 0.77796 0.21017 0.0
C207 C 0.72904 0.78759 0.20191 0.0
C208 C 0.6842 0.76287 0.187 0.0
C209 C 0.70762 0.73923 0.20905 0.0
C210 C 0.76915 0.85086 0.2235 0.0
C211 C 0.76708 0.86465 0.23993 0.0
C212 C 0.75146 0.8613 0.25448 0.0
C213 C 0.73787 0.8448 0.25247 0.0
C214 C 0.73991 0.83135 0.23579 0.0
C215 C 0.75546 0.83441 0.22173 0.0
C216 C 0.75551 0.81835 0.20519 0.0
C217 C 0.73732 0.80528 0.21154 0.0
C218 C 0.72821 0.81301 0.22942 0.0
C219 C 0.75181 0.82918 0.18439 0.0
C220 C 0.77597 0.80637 0.20654 0.0
H221 H 0.67133 0.75206 0.22563 0.0
H222 H 0.66477 0.80114 0.28337 0.0
H223 H 0.71211 0.79043 0.28131 0.0
H224 H 0.72693 0.81192 0.27488 0.0
H225 H 0.70367 0.81528 0.28947 0.0
H226 H 0.67443 0.82884 0.24321 0.0
H227 H 0.68133 0.83556 0.26897 0.0
H228 H 0.69757 0.8419 0.24755 0.0
H229 H 0.71213 0.73433 0.16236 0.0
H230 H 0.76605 0.76719 0.14237 0.0
H231 H 0.76258 0.79066 0.17066 0.0
H232 H 0.68528 0.77403 0.17416 0.0
H233 H 0.67819 0.74827 0.18067 0.0
H234 H 0.67272 0.76944 0.19752 0.0
H235 H 0.724 0.73468 0.2103 0.0
H236 H 0.70218 0.74022 0.22503 0.0
H237 H 0.69935 0.72663 0.20114 0.0
H238 H 0.64368 0.74807 0.24991 0.0
C239 C 0.67045 0.76293 0.23792 0.0
C240 C 0.04265 0.9141 0.51795 0.0
C241 C 0.02709 0.89943 0.51522 0.0
C242 C 0.01454 0.90072 0.49766 0.0
C243 C 0.03213 0.93158 0.4868 0.0
C244 C 0.04492 0.92994 0.50359 0.0
C245 C 0.06085 0.94662 0.50405 0.0
H246 H 0.10069 0.03288 0.46205 0.0
C247 C 0.0381 0.95012 0.4752 0.0
C248 C 0.05498 0.95897 0.4852 0.0
H249 H 0.1234 0.9987 0.51397 0.0
H250 H 0.09567 0.97438 0.51044 0.0
H251 H 0.05397 0.03083 0.47388 0.0
H252 H 0.09023 0.99298 0.43394 0.0
H253 H 0.06714 0.99891 0.42133 0.0
H254 H 0.08419 0.01928 0.42862 0.0
H255 H 0.06017 0.03869 0.44829 0.0
H256 H 0.03774 0.02341 0.45378 0.0
C257 C 0.05796 0.9591 0.524 0.0
C258 C 0.08225 0.93656 0.5018 0.0
C259 C 0.99776 0.97126 0.41184 0.0
C260 C 0.99879 0.98844 0.39883 0.0
C261 C 0.01323 1.00393 0.4032 0.0
C262 C 0.0269 1.00198 0.41964 0.0
C263 C 0.02602 0.9845 0.43215 0.0
C264 C 0.01135 0.9697 0.42842 0.0
C265 C 0.01191 0.95279 0.44411 0.0
C266 C 0.02963 0.95967 0.45755 0.0
C267 C 0.03796 0.97814 0.45032 0.0
C268 C 0.99125 0.95297 0.45582 0.0
C269 C 0.01669 0.93242 0.43293 0.0
C270 C 0.09953 0.02025 0.47276 0.0
C271 C 0.1141 0.01774 0.48841 0.0
C272 C 0.11235 1.00089 0.50178 0.0
C273 C 0.09623 0.98682 0.49971 0.0
C274 C 0.08177 0.9895 0.48397 0.0
C275 C 0.08362 1.00598 0.47078 0.0
C276 C 0.06712 1.00616 0.45469 0.0
C277 C 0.05525 0.98693 0.4602 0.0
C278 C 0.0638 0.97731 0.47745 0.0
C279 C 0.05407 0.0258 0.45759 0.0
C280 C 0.07756 1.00437 0.43344 0.0
H281 H 1.00678 0.91687 0.47059 0.0
H282 H 0.05272 0.91344 0.53113 0.0
H283 H 0.08138 0.92203 0.49294 0.0
H284 H 0.09313 0.94619 0.49308 0.0
H285 H 0.08897 0.93288 0.517 0.0
H286 H 0.04141 0.96191 0.52696 0.0
H287 H 0.06429 0.95073 0.5374 0.0
H288 H 0.06508 0.97441 0.52332 0.0
H289 H 0.98672 0.95918 0.40911 0.0
H290 H 0.01385 0.01773 0.39401 0.0
H291 H 0.0376 0.01423 0.42199 0.0
H292 H 0.98558 0.96891 0.4579 0.0
H293 H 0.9793 0.94433 0.44731 0.0
H294 H 0.99244 0.94675 0.4715 0.0
H295 H 0.02767 0.93496 0.42013 0.0
H296 H 0.02423 0.92103 0.44292 0.0
H297 H 1.00257 0.92557 0.42635 0.0
H298 H 1.00294 0.88923 0.49474 0.0
C299 C 0.0169 0.91673 0.48354 0.0
C300 C 0.2695 0.66415 0.79188 0.0
C301 C 0.26773 0.65012 0.77563 0.0
C302 C 0.25213 0.65301 0.76097 0.0
C303 C 0.24008 0.68308 0.77913 0.0
C304 C 0.25556 0.68043 0.79333 0.0
C305 C 0.25519 0.69662 0.80974 0.0
H306 H 0.21132 0.78146 0.85041 0.0
C307 C 0.22813 0.70139 0.78513 0.0
C308 C 0.23696 0.70943 0.80302 0.0
H309 H 0.26349 0.74761 0.87304 0.0
H310 H 0.26083 0.72399 0.84472 0.0
H311 H 0.1844 0.74206 0.83917 0.0
H312 H 0.22412 0.77979 0.80239 0.0
H313 H 0.20224 0.77433 0.78769 0.0
H314 H 0.19959 0.78847 0.81128 0.0
H315 H 0.17747 0.76751 0.83143 0.0
H316 H 0.17234 0.74561 0.8154 0.0
C317 C 0.25134 0.68594 0.8306 0.0
C318 C 0.27553 0.70881 0.80852 0.0
C319 C 0.16613 0.72279 0.74301 0.0
C320 C 0.15211 0.73906 0.74471 0.0
C321 C 0.15446 0.75321 0.76086 0.0
C322 C 0.17049 0.75124 0.77503 0.0
C323 C 0.18437 0.7349 0.77314 0.0
C324 C 0.18211 0.72107 0.75727 0.0
C325 C 0.19838 0.70475 0.75757 0.0
C326 C 0.21065 0.71095 0.77634 0.0
C327 C 0.20235 0.72859 0.78543 0.0
C328 C 0.18771 0.68375 0.76051 0.0
C329 C 0.21112 0.70662 0.7376 0.0
C330 C 0.2222 0.769 0.84913 0.0
C331 C 0.23753 0.76624 0.86401 0.0
C332 C 0.25137 0.74982 0.86191 0.0
C333 C 0.24985 0.73619 0.8454 0.0
C334 C 0.23429 0.73894 0.83078 0.0
C335 C 0.22079 0.75514 0.83277 0.0
C336 C 0.20502 0.75543 0.81594 0.0
C337 C 0.21133 0.7368 0.8035 0.0
C338 C 0.22851 0.72724 0.81225 0.0
C339 C 0.18361 0.75266 0.82584 0.0
C340 C 0.20765 0.77557 0.80367 0.0
H341 H 0.22675 0.67064 0.75103 0.0
H342 H 0.28133 0.66234 0.80338 0.0
H343 H 0.28053 0.71068 0.79232 0.0
H344 H 0.27415 0.72458 0.81446 0.0
H345 H 0.28799 0.7008 0.81688 0.0
H346 H 0.24094 0.67255 0.82877 0.0
H347 H 0.26588 0.68027 0.83738 0.0
H348 H 0.24353 0.69591 0.8418 0.0
H349 H 0.16456 0.71145 0.73101 0.0
H350 H 0.14393 0.76594 0.76244 0.0
H351 H 0.17142 0.76254 0.78693 0.0
H352 H 0.17468 0.68507 0.77142 0.0
H353 H 0.18154 0.67792 0.74576 0.0
H354 H 0.19787 0.67203 0.76723 0.0
H355 H 0.21223 0.72286 0.73253 0.0
H356 H 0.22718 0.70165 0.73955 0.0
H357 H 0.20402 0.69776 0.72493 0.0
H358 H 0.25073 0.6427 0.74805 0.0
C359 C 0.2383 0.66935 0.76265 0.0
C360 C 0.90974 0.50708 0.48872 0.0
C361 C 0.90383 0.49109 0.4755 0.0
C362 C 0.91569 0.48731 0.45783 0.0
C363 C 0.9385 0.51534 0.46653 0.0
C364 C 0.92688 0.51908 0.48383 0.0
C365 C 0.9346 0.53724 0.49574 0.0
H366 H 1.00315 0.61454 0.50604 0.0
C367 C 0.95522 0.53065 0.46587 0.0
C368 C 0.95294 0.5436 0.48289 0.0
H369 H 0.951 0.60086 0.54447 0.0
H370 H 0.94267 0.5717 0.52327 0.0
H371 H 0.98032 0.60674 0.46344 0.0
H372 H 0.01821 0.56768 0.50069 0.0
H373 H 0.02481 0.56299 0.47504 0.0
H374 H 0.02862 0.58822 0.48567 0.0
H375 H 0.00749 0.61031 0.46575 0.0
H376 H 0.9967 0.59326 0.44689 0.0
C377 C 0.91758 0.55383 0.49581 0.0
C378 C 0.9411 0.52976 0.5173 0.0
C379 C 0.00783 0.52851 0.4083 0.0
C380 C 0.02504 0.54064 0.40368 0.0
C381 C 0.03029 0.55683 0.41698 0.0
C382 C 0.01843 0.56111 0.43436 0.0
C383 C 1.00111 0.54904 0.43863 0.0
C384 C 0.99612 0.53299 0.42575 0.0
C385 C 0.97724 0.52175 0.43278 0.0
C386 C 0.97173 0.53371 0.45198 0.0
C387 C 0.98575 0.5497 0.4553 0.0
C388 C 0.96063 0.52386 0.41594 0.0
C389 C 0.9834 0.49939 0.43775 0.0
C390 C 0.99009 0.60509 0.50999 0.0
C391 C 0.97779 0.60987 0.52702 0.0
C392 C 0.96065 0.59748 0.53139 0.0
C393 C 0.95587 0.58055 0.51908 0.0
C394 C 0.96825 0.57599 0.50205 0.0
C395 C 0.98503 0.58818 0.49775 0.0
C396 C 0.99623 0.58121 0.47883 0.0
C397 C 0.98333 0.56293 0.47242 0.0
C398 C 0.967 0.55991 0.48612 0.0
C399 C 0.99536 0.59873 0.46283 0.0
C400 C 0.01819 0.57479 0.48519 0.0
H401 H 0.94125 0.49564 0.43959 0.0
H402 H 0.9013 0.51018 0.50266 0.0
H403 H 0.94898 0.51468 0.5163 0.0
H404 H 0.95219 0.54006 0.52482 0.0
H405 H 0.92756 0.52786 0.52745 0.0
H406 H 0.90825 0.55315 0.48155 0.0
H407 H 0.90699 0.55173 0.50897 0.0
H408 H 0.92375 0.56958 0.49608 0.0
H409 H 1.00343 0.51596 0.39838 0.0
H410 H 0.04375 0.56609 0.41402 0.0
H411 H 0.02323 0.57366 0.44381 0.0
H412 H 0.96181 0.53891 0.40803 0.0
H413 H 0.96227 0.51171 0.40414 0.0
H414 H 0.94488 0.52349 0.42213 0.0
H415 H 0.99866 0.49888 0.44534 0.0
H416 H 0.97286 0.49185 0.44861 0.0
H417 H 0.98436 0.49003 0.42358 0.0
H418 H 0.91144 0.47521 0.44731 0.0
C419 C 0.93296 0.49928 0.4533 0.0
C420 C 0.79307 0.74432 0.85148 0.0
C421 C 0.77695 0.7463 0.86567 0.0
C422 C 0.76232 0.76191 0.86272 0.0
C423 C 0.78035 0.7737 0.83244 0.0
C424 C 0.79447 0.75815 0.83507 0.0
C425 C 0.8107 0.7583 0.81867 0.0
H426 H 0.85136 0.80253 0.73392 0.0
C427 C 0.78634 0.78562 0.8141 0.0
C428 C 0.8041 0.77663 0.80593 0.0
H429 H 0.8725 0.74843 0.76572 0.0
H430 H 0.84497 0.75176 0.79022 0.0
H431 H 0.84124 0.82885 0.7737 0.0
H432 H 0.80341 0.7906 0.73561 0.0
H433 H 0.78912 0.8126 0.74151 0.0
H434 H 0.81271 0.81511 0.72734 0.0
H435 H 0.83313 0.83657 0.74859 0.0
H436 H 0.8176 0.84138 0.77096 0.0
C437 C 0.83172 0.76186 0.82909 0.0
C438 C 0.80909 0.73799 0.80649 0.0
C439 C 0.74429 0.84769 0.79252 0.0
C440 C 0.74623 0.86181 0.77634 0.0
C441 C 0.76282 0.85983 0.76266 0.0
C442 C 0.77707 0.84392 0.76482 0.0
C443 C 0.77482 0.82979 0.78092 0.0
C444 C 0.75868 0.83185 0.79448 0.0
C445 C 0.75886 0.81549 0.81075 0.0
C446 C 0.77772 0.80327 0.80468 0.0
C447 C 0.78699 0.81171 0.78719 0.0
C448 C 0.76156 0.82609 0.83181 0.0
C449 C 0.73895 0.80272 0.80866 0.0
C450 C 0.84989 0.79123 0.74599 0.0
C451 C 0.86401 0.77505 0.74775 0.0
C452 C 0.86185 0.76104 0.76405 0.0
C453 C 0.84579 0.76296 0.77822 0.0
C454 C 0.83168 0.7791 0.77614 0.0
C455 C 0.83387 0.79288 0.7602 0.0
C456 C 0.81739 0.80898 0.76028 0.0
C457 C 0.80491 0.80258 0.77885 0.0
C458 C 0.81339 0.78511 0.78813 0.0
C459 C 0.82772 0.83013 0.76339 0.0
C460 C 0.80499 0.80695 0.74013 0.0
H461 H 0.75235 0.78718 0.84496 0.0
H462 H 0.80452 0.73245 0.85328 0.0
H463 H 0.79288 0.73283 0.80534 0.0
H464 H 0.81426 0.7395 0.79045 0.0
H465 H 0.81791 0.72557 0.81407 0.0
H466 H 0.8303 0.77304 0.84187 0.0
H467 H 0.83788 0.74737 0.83555 0.0
H468 H 0.84323 0.76856 0.81867 0.0
H469 H 0.73172 0.84882 0.8033 0.0
H470 H 0.76493 0.87079 0.75037 0.0
H471 H 0.78932 0.84329 0.75389 0.0
H472 H 0.77219 0.83937 0.83059 0.0
H473 H 0.74669 0.83191 0.83769 0.0
H474 H 0.76853 0.81603 0.84347 0.0
H475 H 0.73433 0.80129 0.79231 0.0
H476 H 0.74074 0.78678 0.81404 0.0
H477 H 0.72606 0.81001 0.81704 0.0
H478 H 0.74946 0.76343 0.8731 0.0
C479 C 0.76395 0.77562 0.84627 0.0
C480 C 0.29312 0.24367 0.34991 0.0
C481 C 0.27648 0.24455 0.36361 0.0
C482 C 0.26151 0.25988 0.3608 0.0
C483 C 0.27972 0.27291 0.33113 0.0
C484 C 0.29431 0.25779 0.33375 0.0
C485 C 0.3106 0.25853 0.31744 0.0
H486 H 0.35 0.30382 0.23267 0.0
C487 C 0.28549 0.28517 0.31294 0.0
C488 C 0.3035 0.27671 0.30475 0.0
H489 H 0.37259 0.2504 0.26465 0.0
H490 H 0.34502 0.25307 0.28914 0.0
H491 H 0.33921 0.3299 0.27285 0.0
H492 H 0.30239 0.29094 0.23444 0.0
H493 H 0.28751 0.31249 0.24057 0.0
H494 H 0.31097 0.31577 0.22632 0.0
H495 H 0.33129 0.33735 0.24759 0.0
H496 H 0.31538 0.34197 0.26971 0.0
C497 C 0.33145 0.26271 0.32798 0.0
C498 C 0.30969 0.23822 0.30516 0.0
C499 C 0.24274 0.34713 0.29262 0.0
C500 C 0.24434 0.36148 0.27661 0.0
C501 C 0.26057 0.35959 0.26248 0.0
C502 C 0.27491 0.34369 0.26419 0.0
C503 C 0.27309 0.32945 0.28025 0.0
C504 C 0.25716 0.33128 0.29409 0.0
C505 C 0.2576 0.31468 0.3101 0.0
C506 C 0.2765 0.30271 0.30369 0.0
C507 C 0.28553 0.31146 0.28621 0.0
C508 C 0.2604 0.32495 0.3313 0.0
C509 C 0.23776 0.30178 0.30798 0.0
C510 C 0.34884 0.29254 0.24479 0.0
C511 C 0.36341 0.27676 0.24661 0.0
C512 C 0.36161 0.26273 0.26295 0.0
C513 C 0.34552 0.26425 0.2771 0.0
C514 C 0.33099 0.27999 0.27498 0.0
C515 C 0.3328 0.2938 0.25903 0.0
C516 C 0.31594 0.30953 0.2592 0.0
C517 C 0.30364 0.30278 0.27778 0.0
C518 C 0.31257 0.28551 0.287 0.0
C519 C 0.32581 0.33089 0.26235 0.0
C520 C 0.30354 0.3073 0.23908 0.0
H521 H 0.25115 0.2853 0.34345 0.0
H522 H 0.30513 0.23239 0.35179 0.0
H523 H 0.2937 0.23238 0.30416 0.0
H524 H 0.31459 0.24002 0.28906 0.0
H525 H 0.31911 0.22614 0.31256 0.0
H526 H 0.32962 0.27385 0.34075 0.0
H527 H 0.33798 0.24841 0.3345 0.0
H528 H 0.34282 0.26973 0.31763 0.0
H529 H 0.23068 0.34834 0.30396 0.0
H530 H 0.26209 0.37037 0.24995 0.0
H531 H 0.28686 0.34311 0.25292 0.0
H532 H 0.27149 0.33786 0.33031 0.0
H533 H 0.24566 0.33122 0.33705 0.0
H534 H 0.26681 0.31453 0.34296 0.0
H535 H 0.23252 0.3012 0.29177 0.0
H536 H 0.23997 0.28558 0.31234 0.0
H537 H 0.2251 0.30838 0.31724 0.0
H538 H 0.24843 0.26083 0.37098 0.0
C539 C 0.26305 0.27404 0.34471 0.0
C540 C 0.48654 0.90817 0.5051 0.0
C541 C 0.47387 0.90375 0.48824 0.0
C542 C 0.45738 0.91697 0.4838 0.0
C543 C 0.46593 0.93812 0.51313 0.0
C544 C 0.48228 0.92533 0.51731 0.0
C545 C 0.49411 0.93212 0.5359 0.0
H546 H 0.50478 0.99762 0.61573 0.0
C547 C 0.46562 0.95445 0.52885 0.0
C548 C 0.48212 0.95103 0.54223 0.0
H549 H 0.54345 0.94637 0.59955 0.0
H550 H 0.5223 0.93937 0.5701 0.0
H551 H 0.46131 0.97601 0.60523 0.0
H552 H 0.50139 0.01498 0.57022 0.0
H553 H 0.47623 0.02215 0.56405 0.0
H554 H 0.48517 0.02488 0.59008 0.0
H555 H 0.46496 1.00267 0.61091 0.0
H556 H 0.4461 0.9943 0.59258 0.0
C557 C 0.49276 0.9149 0.55219 0.0
C558 C 0.51622 0.93749 0.52908 0.0
C559 C 0.40989 0.00895 0.52712 0.0
C560 C 0.40586 0.02617 0.5394 0.0
C561 C 0.41873 0.03031 0.55623 0.0
C562 C 0.43543 0.01756 0.56072 0.0
C563 C 0.43937 1.00045 0.54825 0.0
C564 C 0.42673 0.99643 0.53173 0.0
C565 C 0.43348 0.9778 0.51996 0.0
C566 C 0.45221 0.97129 0.53214 0.0
C567 C 0.45552 0.98455 0.54876 0.0
C568 C 0.41611 0.96167 0.52111 0.0
C569 C 0.43916 0.9846 0.49791 0.0
C570 C 0.50869 0.98491 0.60581 0.0
C571 C 0.52556 0.97226 0.61026 0.0
C572 C 0.5302 0.95597 0.59685 0.0
C573 C 0.51798 0.95203 0.57962 0.0
C574 C 0.50097 0.96459 0.57557 0.0
C575 C 0.49669 0.98083 0.58846 0.0
C576 C 0.47832 0.99288 0.58144 0.0
C577 C 0.47216 0.98105 0.56237 0.0
C578 C 0.48543 0.96444 0.55906 0.0
C579 C 0.46175 0.99161 0.59838 0.0
C580 C 0.48545 0.01494 0.57628 0.0
H581 H 0.44051 0.94346 0.49197 0.0
H582 H 0.49936 0.89832 0.50887 0.0
H583 H 0.51638 0.94393 0.51329 0.0
H584 H 0.52332 0.9495 0.53867 0.0
H585 H 0.52619 0.92371 0.52911 0.0
H586 H 0.47721 0.90791 0.55229 0.0
H587 H 0.50397 0.90253 0.54894 0.0
H588 H 0.49515 0.92046 0.56796 0.0
H589 H 0.4003 1.00547 0.51403 0.0
H590 H 0.41573 0.04333 0.56606 0.0
H591 H 0.4446 0.02151 0.57377 0.0
H592 H 0.40876 0.96178 0.5365 0.0
H593 H 0.40401 0.96487 0.50958 0.0
H594 H 0.42162 0.94582 0.51905 0.0
H595 H 0.44594 1.00024 0.49789 0.0
H596 H 0.451 0.9748 0.49083 0.0
H597 H 0.42544 0.98492 0.48786 0.0
H598 H 0.44769 0.91418 0.47062 0.0
C599 C 0.45332 0.93406 0.49615 0.0
C600 C 0.1669 0.29241 0.76932 0.0
C601 C 0.15257 0.27645 0.7673 0.0
C602 C 0.1551 0.26211 0.75136 0.0
C603 C 0.18549 0.27998 0.73955 0.0
C604 C 0.18311 0.29391 0.75532 0.0
C605 C 0.19947 0.31014 0.75516 0.0
H606 H 0.2845 0.35076 0.71156 0.0
C607 C 0.20387 0.28596 0.72765 0.0
C608 C 0.21213 0.30361 0.73677 0.0
H609 H 0.25087 0.37312 0.76399 0.0
H610 H 0.22711 0.3449 0.7612 0.0
H611 H 0.24508 0.34018 0.68468 0.0
H612 H 0.28274 0.3029 0.72389 0.0
H613 H 0.27681 0.28809 0.70224 0.0
H614 H 0.2912 0.3115 0.69918 0.0
H615 H 0.27046 0.33231 0.67762 0.0
H616 H 0.2484 0.31655 0.6723 0.0
C617 C 0.18899 0.33117 0.75172 0.0
C618 C 0.21175 0.30845 0.77541 0.0
C619 C 0.225 0.24479 0.66484 0.0
C620 C 0.24113 0.2469 0.6507 0.0
C621 C 0.25563 0.26264 0.65361 0.0
C622 C 0.25383 0.27636 0.67001 0.0
C623 C 0.23738 0.27436 0.68376 0.0
C624 C 0.22339 0.25866 0.68117 0.0
C625 C 0.20702 0.25884 0.69742 0.0
C626 C 0.21337 0.27734 0.71004 0.0
C627 C 0.23114 0.28637 0.70193 0.0
C628 C 0.18606 0.26214 0.68678 0.0
C629 C 0.20865 0.23866 0.70982 0.0
C630 C 0.27207 0.34944 0.72248 0.0
C631 C 0.26941 0.36419 0.73793 0.0
C632 C 0.25301 0.36206 0.7518 0.0
C633 C 0.23928 0.34563 0.75018 0.0
C634 C 0.24192 0.33114 0.73447 0.0
C635 C 0.25811 0.33318 0.72096 0.0
C636 C 0.25826 0.31657 0.70499 0.0
C637 C 0.23953 0.30421 0.71117 0.0
C638 C 0.23005 0.31279 0.72847 0.0
C639 C 0.25556 0.32677 0.68371 0.0
C640 C 0.27831 0.3041 0.70747 0.0
H641 H 0.17242 0.25247 0.72562 0.0
H642 H 0.16563 0.30345 0.78164 0.0
H643 H 0.21364 0.29214 0.78001 0.0
H644 H 0.22751 0.31445 0.77412 0.0
H645 H 0.20377 0.31649 0.78811 0.0
H646 H 0.17541 0.32963 0.74154 0.0
H647 H 0.18365 0.33785 0.76643 0.0
H648 H 0.19899 0.34233 0.74386 0.0
H649 H 0.21366 0.2328 0.66303 0.0
H650 H 0.26846 0.26426 0.64321 0.0
H651 H 0.26531 0.28804 0.67129 0.0
H652 H 0.18753 0.27313 0.67383 0.0
H653 H 0.18001 0.24753 0.6805 0.0
H654 H 0.17444 0.26895 0.69699 0.0
H655 H 0.22492 0.23378 0.71137 0.0
H656 H 0.20309 0.24021 0.72572 0.0
H657 H 0.20019 0.22605 0.70215 0.0
H658 H 0.14423 0.24971 0.74946 0.0
C659 C 0.17144 0.26379 0.73748 0.0
C660 C 0.7549 0.16051 0.73752 0.0
C661 C 0.73795 0.15587 0.72504 0.0
C662 C 0.73383 0.16836 0.70791 0.0
C663 C 0.76312 0.18979 0.716 0.0
C664 C 0.76719 0.17747 0.73275 0.0
C665 C 0.78586 0.18444 0.74435 0.0
H666 H 0.86479 0.25113 0.75438 0.0
C667 C 0.7789 0.20606 0.71526 0.0
C668 C 0.79227 0.20299 0.73186 0.0
H669 H 0.85051 0.19889 0.7925 0.0
H670 H 0.82073 0.1916 0.77179 0.0
H671 H 0.81871 0.26729 0.74967 0.0
H672 H 0.8561 0.22853 0.71167 0.0
H673 H 0.84259 0.24501 0.69527 0.0
H674 H 0.86025 0.25562 0.71368 0.0
H675 H 0.83945 0.27711 0.73451 0.0
H676 H 0.81398 0.27433 0.72413 0.0
C677 C 0.7791 0.19043 0.7663 0.0
C678 C 0.80205 0.1671 0.74344 0.0
C679 C 0.77755 0.25924 0.65818 0.0
C680 C 0.7904 0.27585 0.65333 0.0
C681 C 0.8071 0.2803 0.66627 0.0
C682 C 0.81117 0.26823 0.68355 0.0
C683 C 0.79841 0.25147 0.68804 0.0
C684 C 0.78187 0.24726 0.67549 0.0
C685 C 0.77002 0.22881 0.68265 0.0
C686 C 0.78219 0.22263 0.70151 0.0
C687 C 0.7988 0.23597 0.70457 0.0
C688 C 0.74804 0.23583 0.68822 0.0
C689 C 0.77104 0.2123 0.66563 0.0
C690 C 0.85536 0.23799 0.75812 0.0
C691 C 0.86013 0.22543 0.77498 0.0
C692 C 0.84714 0.20881 0.77963 0.0
C693 C 0.82991 0.20455 0.76751 0.0
C694 C 0.82552 0.21706 0.75053 0.0
C695 C 0.83814 0.23349 0.74613 0.0
C696 C 0.83119 0.24507 0.72745 0.0
C697 C 0.81235 0.23286 0.72133 0.0
C698 C 0.8091 0.21648 0.7349 0.0
C699 C 0.82564 0.26718 0.73409 0.0
C700 C 0.84837 0.24371 0.71111 0.0
H701 H 0.74227 0.19421 0.69015 0.0
H702 H 0.7587 0.15098 0.75056 0.0
H703 H 0.80149 0.15905 0.72843 0.0
H704 H 0.81793 0.1728 0.74468 0.0
H705 H 0.79933 0.15553 0.75562 0.0
H706 H 0.76376 0.19788 0.7661 0.0
H707 H 0.77804 0.17673 0.77635 0.0
H708 H 0.78934 0.20179 0.77351 0.0
H709 H 0.76461 0.25545 0.6485 0.0
H710 H 0.81696 0.29327 0.66308 0.0
H711 H 0.82414 0.27241 0.69273 0.0
H712 H 0.74826 0.25126 0.69545 0.0
H713 H 0.73822 0.23677 0.67435 0.0
H714 H 0.74057 0.2258 0.69961 0.0
H715 H 0.78618 0.21259 0.65778 0.0
H716 H 0.76958 0.19655 0.6716 0.0
H717 H 0.75907 0.21491 0.65382 0.0
H718 H 0.72084 0.16511 0.69812 0.0
C719 C 0.74626 0.18529 0.70336 0.0
C720 C 0.54391 0.59956 0.4947 0.0
C721 C 0.52794 0.61389 0.49654 0.0
C722 C 0.51407 0.61205 0.513 0.0
C723 C 0.53184 0.58173 0.52509 0.0
C724 C 0.54554 0.58368 0.50905 0.0
C725 C 0.56163 0.5672 0.50926 0.0
H726 H 0.6005 0.48103 0.55193 0.0
C727 C 0.53781 0.56351 0.53721 0.0
C728 C 0.55527 0.55495 0.52799 0.0
H729 H 0.62363 0.51507 0.5 0.0
H730 H 0.59635 0.53963 0.5036 0.0
H731 H 0.59231 0.52074 0.5796 0.0
H732 H 0.55242 0.4851 0.54104 0.0
H733 H 0.53899 0.49069 0.56371 0.0
H734 H 0.56218 0.47575 0.56499 0.0
H735 H 0.5831 0.49594 0.58706 0.0
H736 H 0.56867 0.51893 0.59228 0.0
C737 C 0.58284 0.57753 0.51217 0.0
C738 C 0.55949 0.5546 0.48927 0.0
C739 C 0.49645 0.54314 0.60014 0.0
C740 C 0.4985 0.5272 0.61449 0.0
C741 C 0.51432 0.51274 0.6119 0.0
C742 C 0.52811 0.51431 0.5955 0.0
C743 C 0.52609 0.5305 0.58145 0.0
C744 C 0.51041 0.54454 0.58386 0.0
C745 C 0.51071 0.56078 0.56748 0.0
C746 C 0.52921 0.55426 0.55496 0.0
C747 C 0.53813 0.53648 0.5632 0.0
C748 C 0.51407 0.58181 0.57795 0.0
C749 C 0.49055 0.5591 0.55506 0.0
C750 C 0.59967 0.4938 0.54137 0.0
C751 C 0.61398 0.49582 0.52536 0.0
C752 C 0.61245 0.51278 0.51206 0.0
C753 C 0.59667 0.52715 0.51429 0.0
C754 C 0.58229 0.52474 0.53012 0.0
C755 C 0.58404 0.5084 0.54347 0.0
C756 C 0.5677 0.50869 0.55975 0.0
C757 C 0.55575 0.52777 0.55383 0.0
C758 C 0.56432 0.53703 0.5364 0.0
C759 C 0.57834 0.51105 0.58085 0.0
C760 C 0.55463 0.48902 0.55749 0.0
H761 H 0.50481 0.59546 0.53936 0.0
H762 H 0.55507 0.60082 0.48248 0.0
H763 H 0.54306 0.55232 0.48532 0.0
H764 H 0.5659 0.53901 0.49051 0.0
H765 H 0.56689 0.56258 0.47618 0.0
H766 H 0.58154 0.59175 0.52146 0.0
H767 H 0.58973 0.58179 0.4972 0.0
H768 H 0.59375 0.56783 0.52076 0.0
H769 H 0.48444 0.55447 0.60176 0.0
H770 H 0.51595 0.5001 0.62253 0.0
H771 H 0.53982 0.50284 0.59442 0.0
H772 H 0.52459 0.58035 0.59129 0.0
H773 H 0.49938 0.58824 0.58365 0.0
H774 H 0.5215 0.59313 0.56781 0.0
H775 H 0.48589 0.54281 0.55325 0.0
H776 H 0.492 0.56498 0.53927 0.0
H777 H 0.47784 0.56726 0.56289 0.0
H778 H 0.50165 0.62292 0.51472 0.0
C779 C 0.5159 0.59605 0.52724 0.0
C780 C 0.54345 0.41359 0.01999 0.0
C781 C 0.5274 0.39932 0.01807 0.0
C782 C 0.5139 0.40101 1.00128 0.0
C783 C 0.53188 0.43125 0.9893 0.0
C784 C 0.5454 0.42934 1.00549 0.0
C785 C 0.56165 0.4457 1.00519 0.0
H786 H 0.60158 0.53087 0.96105 0.0
C787 C 0.538 0.44936 0.97711 0.0
C788 C 0.55552 0.45785 0.9863 0.0
H789 H 0.62403 0.49825 0.01408 0.0
H790 H 0.59668 0.47348 0.01077 0.0
H791 H 0.55335 0.52765 0.97288 0.0
H792 H 0.59273 0.49164 0.9342 0.0
H793 H 0.56892 0.49302 0.92179 0.0
H794 H 0.58321 0.51624 0.92645 0.0
H795 H 0.56304 0.53678 0.94881 0.0
H796 H 0.53968 0.52212 0.95036 0.0
C797 C 0.55956 0.45853 0.02504 0.0
C798 C 0.58277 0.43518 1.0025 0.0
C799 C 0.49548 0.47103 0.91537 0.0
C800 C 0.4972 0.48735 0.90139 0.0
C801 C 0.51381 0.50103 0.90328 0.0
C802 C 0.52821 0.49878 0.91904 0.0
C803 C 0.52611 0.4826 0.9331 0.0
C804 C 0.51003 0.46898 0.93106 0.0
C805 C 0.51044 0.45257 0.94727 0.0
C806 C 0.52934 0.45868 0.95942 0.0
C807 C 0.53841 0.47631 0.95107 0.0
C808 C 0.49061 0.45446 0.96018 0.0
C809 C 0.5132 0.43158 0.93653 0.0
C810 C 0.60043 0.51851 0.97206 0.0
C811 C 0.6148 0.5166 0.98799 0.0
C812 C 0.61312 0.5 1.0017 0.0
C813 C 0.5972 0.48569 0.99977 0.0
C814 C 0.58281 0.4879 0.98388 0.0
C815 C 0.58466 0.50405 0.9703 0.0
C816 C 0.56823 0.5038 0.95415 0.0
C817 C 0.55616 0.48488 0.9603 0.0
C818 C 0.56471 0.47567 0.97778 0.0
C819 C 0.55539 0.52363 0.95643 0.0
C820 C 0.57866 0.50119 0.93296 0.0
H821 H 0.50518 0.41735 0.97461 0.0
H822 H 0.55416 0.41265 0.03263 0.0
H823 H 0.58144 0.42118 0.99286 0.0
H824 H 0.59399 0.44491 0.99438 0.0
H825 H 0.58926 0.43049 0.01751 0.0
H826 H 0.54314 0.46104 0.02888 0.0
H827 H 0.56681 0.45061 0.03824 0.0
H828 H 0.56617 0.47403 0.02365 0.0
H829 H 0.48293 0.46022 0.91426 0.0
H830 H 0.5158 0.51339 0.89239 0.0
H831 H 0.54044 0.50974 0.91963 0.0
H832 H 0.48669 0.47084 0.96282 0.0
H833 H 0.47743 0.44721 0.95222 0.0
H834 H 0.49205 0.44775 0.97562 0.0
H835 H 0.52265 0.43311 0.92242 0.0
H836 H 0.52155 0.42036 0.94607 0.0
H837 H 0.49819 0.42498 0.93198 0.0
H838 H 0.5018 0.38988 0.99906 0.0
C839 C 0.516 0.41689 0.98697 0.0
C840 C 0.77315 0.16467 0.29005 0.0
C841 C 0.77144 0.15103 0.27349 0.0
C842 C 0.7552 0.15352 0.25947 0.0
C843 C 0.74281 0.18293 0.2785 0.0
C844 C 0.75879 0.18049 0.2922 0.0
C845 C 0.75859 0.1965 0.30876 0.0
H846 H 0.71268 0.27812 0.35335 0.0
C847 C 0.73051 0.20076 0.2852 0.0
C848 C 0.73973 0.20881 0.30289 0.0
H849 H 0.76888 0.24798 0.3712 0.0
H850 H 0.76562 0.22453 0.3429 0.0
H851 H 0.68738 0.23721 0.34173 0.0
H852 H 0.72325 0.27893 0.30531 0.0
H853 H 0.70162 0.27228 0.29078 0.0
H854 H 0.69831 0.28552 0.31482 0.0
H855 H 0.67904 0.26276 0.33593 0.0
H856 H 0.67396 0.24169 0.31882 0.0
C857 C 0.75583 0.18549 0.32961 0.0
C858 C 0.7785 0.20934 0.30696 0.0
C859 C 0.66653 0.22106 0.24549 0.0
C860 C 0.65175 0.23646 0.24838 0.0
C861 C 0.65398 0.25013 0.26494 0.0
C862 C 0.67048 0.24834 0.27858 0.0
C863 C 0.68501 0.23273 0.27566 0.0
C864 C 0.68292 0.21944 0.2593 0.0
C865 C 0.69978 0.20373 0.25866 0.0
C866 C 0.71236 0.20981 0.27728 0.0
C867 C 0.70362 0.22681 0.28718 0.0
C868 C 0.68996 0.18227 0.26121 0.0
C869 C 0.71189 0.20667 0.23845 0.0
C870 C 0.72428 0.26648 0.35111 0.0
C871 C 0.74083 0.26463 0.36481 0.0
C872 C 0.75567 0.24935 0.36126 0.0
C873 C 0.75384 0.23585 0.34468 0.0
C874 C 0.73706 0.23766 0.33131 0.0
C875 C 0.72272 0.2529 0.33453 0.0
C876 C 0.70621 0.25282 0.31842 0.0
C877 C 0.71295 0.23496 0.3051 0.0
C878 C 0.73096 0.22608 0.31282 0.0
C879 C 0.68546 0.24855 0.32914 0.0
C880 C 0.70716 0.27346 0.30672 0.0
H881 H 0.72888 0.17041 0.25072 0.0
H882 H 0.78554 0.16318 0.30099 0.0
H883 H 0.78386 0.21019 0.29079 0.0
H884 H 0.77633 0.22549 0.31156 0.0
H885 H 0.79108 0.20254 0.31618 0.0
H886 H 0.74462 0.17271 0.32823 0.0
H887 H 0.77056 0.17889 0.33502 0.0
H888 H 0.74959 0.19553 0.34168 0.0
H889 H 0.6652 0.21031 0.23292 0.0
H890 H 0.64301 0.26236 0.26725 0.0
H891 H 0.67127 0.2592 0.29088 0.0
H892 H 0.67682 0.18285 0.27206 0.0
H893 H 0.68412 0.1764 0.24635 0.0
H894 H 0.70055 0.17089 0.26787 0.0
H895 H 0.71294 0.22318 0.23433 0.0
H896 H 0.72795 0.20147 0.23955 0.0
H897 H 0.7043 0.19861 0.22553 0.0
H898 H 0.75341 0.143 0.24677 0.0
C899 C 0.74091 0.16937 0.26188 0.0
C900 C 0.40965 1.00685 0.98632 0.0
C901 C 0.40461 0.99032 0.97343 0.0
C902 C 0.41741 0.9859 0.95661 0.0
C903 C 0.43941 0.01455 0.96527 0.0
C904 C 0.42703 0.01874 0.98194 0.0
C905 C 0.43453 0.03695 0.99394 0.0
H906 H 0.50252 0.11479 1.00437 0.0
C907 C 0.45613 0.02984 0.9649 0.0
C908 C 0.45339 0.04302 0.98168 0.0
H909 H 0.45171 0.09946 0.04406 0.0
H910 H 0.44325 0.07068 0.02247 0.0
H911 H 0.47974 0.10553 0.96127 0.0
H912 H 0.51856 0.06892 1.00005 0.0
H913 H 0.525 0.06292 0.97466 0.0
H914 H 0.52868 0.08872 0.9839 0.0
H915 H 0.50658 0.11054 0.96461 0.0
H916 H 0.49753 0.09273 0.94558 0.0
C917 C 0.41773 0.05368 0.99321 0.0
C918 C 0.44015 0.02963 0.01582 0.0
C919 C 0.50957 0.02727 0.90824 0.0
C920 C 0.52719 0.03897 0.90404 0.0
C921 C 0.53197 0.0556 0.91699 0.0
C922 C 0.5196 0.06033 0.93392 0.0
C923 C 0.5022 0.04832 0.93806 0.0
C924 C 0.49748 0.03208 0.92532 0.0
C925 C 0.47863 0.02077 0.93224 0.0
C926 C 0.47281 0.03287 0.95123 0.0
C927 C 0.4866 0.04906 0.95451 0.0
C928 C 0.46223 0.02264 0.91517 0.0
C929 C 0.48489 0.99847 0.93751 0.0
C930 C 0.48975 0.10507 0.0086 0.0
C931 C 0.47787 0.10937 0.02609 0.0
C932 C 0.46105 0.09658 0.03064 0.0
C933 C 0.45621 0.0798 0.01812 0.0
C934 C 0.46831 0.07565 1.0008 0.0
C935 C 0.48484 0.08813 0.99636 0.0
C936 C 0.4963 0.0811 0.97763 0.0
C937 C 0.48379 0.06249 0.97142 0.0
C938 C 0.46734 0.05943 0.98498 0.0
C939 C 0.49519 0.09833 0.96136 0.0
C940 C 0.51835 0.0752 0.9842 0.0
H941 H 0.44375 0.99375 0.93937 0.0
H942 H 0.40014 0.01059 0.9994 0.0
H943 H 0.44645 0.01379 0.01552 0.0
H944 H 0.45233 0.03895 0.02296 0.0
H945 H 0.42649 0.02955 0.02597 0.0
H946 H 0.41042 0.05423 0.97782 0.0
H947 H 0.4055 0.05056 1.00464 0.0
H948 H 0.42376 0.06926 0.99574 0.0
H949 H 0.50515 0.0147 0.89838 0.0
H950 H 0.54547 0.06482 0.91414 0.0
H951 H 0.52412 0.07313 0.94318 0.0
H952 H 0.46281 0.03803 0.90788 0.0
H953 H 0.46475 0.01106 0.90297 0.0
H954 H 0.44642 0.02118 0.92098 0.0
H955 H 0.50069 0.9979 0.9439 0.0
H956 H 0.47518 0.99153 0.94951 0.0
H957 H 0.48459 0.98857 0.92367 0.0
H958 H 0.41416 0.97295 0.94676 0.0
C959 C 0.4347 0.99792 0.95244 0.0
Li960 Li 0.2785 0.89417 1.00341 0.0
Li961 Li 0.26258 0.86859 0.02629 0.0
Li962 Li 0.25601 0.86763 0.98808 0.0
Li963 Li 0.24036 0.89376 0.01026 0.0
C964 C 0.30144 0.85826 0.99734 0.0
N965 N 0.34038 0.84701 0.98505 0.0
C966 C 0.31551 0.85076 0.01164 0.0
C967 C 0.30708 0.85969 0.97673 0.0
C968 C 0.33515 0.84526 1.00515 0.0
C969 C 0.32685 0.85402 0.97083 0.0
C970 C 0.26843 0.90204 0.04961 0.0
C971 C 0.25927 0.90183 0.08542 0.0
N972 N 0.27867 0.90764 0.0903 0.0
C973 C 0.28822 0.90819 0.05497 0.0
C974 C 0.25377 0.89901 0.06493 0.0
C975 C 0.29312 0.91088 0.07564 0.0
C976 C 0.29811 0.92977 0.98902 0.0
N977 N 0.30164 0.91167 0.99873 0.0
C978 C 0.3374 0.91939 1.00124 0.0
C979 C 0.32077 0.90646 1.00514 0.0
C980 C 0.33429 0.9379 0.99073 0.0
C981 C 0.31428 0.94316 0.98483 0.0
H982 H 0.28268 0.9338 0.98451 0.0
H983 H 0.32316 0.89237 0.01343 0.0
C984 C 0.25276 0.83728 0.05467 0.0
N985 N 0.26685 0.85191 0.05006 0.0
C986 C 0.25542 0.82467 0.07177 0.0
C987 C 0.28713 0.8423 0.07904 0.0
C988 C 0.28391 0.85449 0.06174 0.0
C989 C 0.27274 0.82719 0.0843 0.0
H990 H 0.23953 0.83522 0.04492 0.0
H991 H 0.29511 0.86594 0.05757 0.0
C992 C 0.25466 0.90281 0.9636 0.0
N993 N 0.25354 0.91296 0.92249 0.0
C994 C 0.23628 0.909 0.95452 0.0
C995 C 0.27254 0.90216 0.95184 0.0
C996 C 0.236 0.91395 0.9337 0.0
C997 C 0.27165 0.90726 0.93107 0.0
C998 C 0.21595 0.86114 0.01437 0.0
C999 C 0.20326 0.85481 0.99833 0.0
C1000 C 0.20747 0.86514 0.03362 0.0
C1001 C 0.18221 0.85292 1.00173 0.0
C1002 C 0.18635 0.8631 0.03641 0.0
N1003 N 0.17425 0.8571 0.02054 0.0
C1004 C 0.26361 0.83251 0.96416 0.0
C1005 C 0.23789 0.85408 0.95039 0.0
C1006 C 0.26128 0.81877 0.94794 0.0
N1007 N 0.25212 0.84985 0.96503 0.0
C1008 C 0.23496 0.84068 0.93394 0.0
C1009 C 0.24666 0.82267 0.93263 0.0
H1010 H 0.27455 0.82926 0.97615 0.0
H1011 H 0.22851 0.86763 0.95168 0.0
C1012 C 0.21808 0.92598 0.02846 0.0
N1013 N 0.21698 0.91105 0.01398 0.0
C1014 C 0.20181 0.93959 0.03122 0.0
C1015 C 0.18343 0.92216 1.00424 0.0
C1016 C 0.20009 0.90891 1.00196 0.0
C1017 C 0.1843 0.93791 0.01884 0.0
H1018 H 0.23172 0.92751 0.0377 0.0
H1019 H 0.19966 0.8971 0.99037 0.0
O1020 O 0.28218 0.86382 1.00347 0.0
O1021 O 0.2634 0.89915 0.02947 0.0
O1022 O 0.25519 0.8979 0.98399 0.0
O1023 O 0.23657 0.86329 0.01127 0.0
H1024 H 0.31137 0.84932 0.02761 0.0
H1025 H 0.29624 0.86487 0.96536 0.0
H1026 H 0.34623 0.83957 0.01608 0.0
H1027 H 0.33142 0.85512 0.95494 0.0
H1028 H 0.2481 0.89941 0.09743 0.0
H1029 H 0.29972 0.91075 0.04333 0.0
H1030 H 0.23832 0.8945 0.06104 0.0
H1031 H 0.30842 0.91552 0.08001 0.0
H1032 H 0.35257 0.91484 1.00619 0.0
H1033 H 0.31112 0.95755 0.97721 0.0
H1034 H 0.24422 0.81284 0.07494 0.0
H1035 H 0.30072 0.84473 0.08825 0.0
H1036 H 0.22234 0.90983 0.96341 0.0
H1037 H 0.28701 0.89801 0.95869 0.0
H1038 H 0.22184 0.9186 0.92645 0.0
H1039 H 0.28537 0.90676 0.92179 0.0
H1040 H 0.20957 0.85148 0.98339 0.0
H1041 H 0.21709 0.8698 0.04625 0.0
H1042 H 0.1722 0.84815 0.98942 0.0
H1043 H 0.17957 0.86627 0.0512 0.0
H1044 H 0.2709 0.80528 0.94734 0.0
H1045 H 0.22339 0.84417 0.92257 0.0
H1046 H 0.20294 0.95134 0.04287 0.0
H1047 H 0.17022 0.92043 0.99434 0.0
Li1048 Li 0.11821 0.50926 0.27566 0.0
Li1049 Li 0.14413 0.48682 0.25965 0.0
Li1050 Li 0.14402 0.52512 0.25281 0.0
Li1051 Li 0.11828 0.50218 0.23751 0.0
C1052 C 0.15407 0.51519 0.29853 0.0
N1053 N 0.16497 0.52563 0.3381 0.0
C1054 C 0.16143 0.50025 0.31199 0.0
C1055 C 0.15261 0.53551 0.30511 0.0
C1056 C 0.16677 0.50581 0.33196 0.0
C1057 C 0.15809 0.54046 0.32519 0.0
C1058 C 0.11097 0.4628 0.26589 0.0
C1059 C 0.11149 0.42697 0.25687 0.0
N1060 N 0.10588 0.42209 0.27634 0.0
C1061 C 0.10501 0.45743 0.28575 0.0
C1062 C 0.11404 0.44747 0.25127 0.0
C1063 C 0.10258 0.43676 0.29075 0.0
C1064 C 0.08332 0.52446 0.29609 0.0
N1065 N 0.10105 0.51395 0.2991 0.0
C1066 C 0.09386 0.51105 0.33495 0.0
C1067 C 0.10631 0.50693 0.31801 0.0
C1068 C 0.0758 0.52244 0.33238 0.0
C1069 C 0.07043 0.52893 0.31258 0.0
H1070 H 0.0792 0.52944 0.28083 0.0
H1071 H 0.12008 0.49803 0.31999 0.0
C1072 C 0.1767 0.46023 0.24957 0.0
N1073 N 0.16156 0.46345 0.26353 0.0
C1074 C 0.18991 0.44352 0.25158 0.0
C1075 C 0.17192 0.43376 0.28242 0.0
C1076 C 0.1591 0.45073 0.27987 0.0
C1077 C 0.18753 0.42996 0.26811 0.0
H1078 H 0.1786 0.47071 0.2369 0.0
H1079 H 0.14732 0.45383 0.29105 0.0
C1080 C 0.1087 0.54878 0.2515 0.0
N1081 N 0.09876 0.58991 0.24996 0.0
C1082 C 0.10163 0.55749 0.23326 0.0
C1083 C 0.11036 0.56093 0.26905 0.0
C1084 C 0.09679 0.57833 0.23276 0.0
C1085 C 0.10535 0.5817 0.26795 0.0
C1086 C 0.15104 0.49825 0.213 0.0
C1087 C 0.15709 0.51402 0.19984 0.0
C1088 C 0.14743 0.47869 0.2051 0.0
C1089 C 0.15902 0.51004 0.17889 0.0
C1090 C 0.14949 0.47533 0.18407 0.0
N1091 N 0.15517 0.49095 0.1715 0.0
C1092 C 0.17784 0.55133 0.26024 0.0
C1093 C 0.15614 0.56235 0.23333 0.0
C1094 C 0.19064 0.56825 0.25734 0.0
N1095 N 0.16089 0.54877 0.2484 0.0
C1096 C 0.16856 0.57945 0.22983 0.0
C1097 C 0.18614 0.58252 0.24186 0.0
H1098 H 0.18152 0.54016 0.27189 0.0
H1099 H 0.14292 0.55974 0.22374 0.0
C1100 C 0.08716 0.48257 0.21436 0.0
N1101 N 0.10134 0.49784 0.21393 0.0
C1102 C 0.07489 0.47872 0.19724 0.0
C1103 C 0.09178 0.50656 0.17963 0.0
C1104 C 0.10365 0.50993 0.19711 0.0
C1105 C 0.07729 0.49066 0.1795 0.0
H1106 H 0.0854 0.47334 0.228 0.0
H1107 H 0.11477 0.52219 0.19725 0.0
O1108 O 0.14867 0.50998 0.27895 0.0
O1109 O 0.1136 0.48295 0.26077 0.0
O1110 O 0.11363 0.52841 0.25223 0.0
O1111 O 0.14873 0.50194 0.23352 0.0
H1112 H 0.1629 0.48451 0.30712 0.0
H1113 H 0.14752 0.54738 0.29477 0.0
H1114 H 0.17234 0.49436 0.34257 0.0
H1115 H 0.15697 0.55612 0.33049 0.0
H1116 H 0.11395 0.41495 0.24573 0.0
H1117 H 0.10239 0.46907 0.29721 0.0
H1118 H 0.11836 0.45134 0.23576 0.0
H1119 H 0.09809 0.43239 0.3061 0.0
H1120 H 0.09846 0.50562 0.34994 0.0
H1121 H 0.05634 0.53725 0.30985 0.0
H1122 H 0.2018 0.44114 0.24025 0.0
H1123 H 0.16987 0.42393 0.29563 0.0
H1124 H 0.1 0.5483 0.21959 0.0
H1125 H 0.11524 0.55436 0.28342 0.0
H1126 H 0.09145 0.58529 0.2187 0.0
H1127 H 0.10663 0.59127 0.28141 0.0
H1128 H 0.16016 0.52919 0.20569 0.0
H1129 H 0.14304 0.46625 0.2151 0.0
H1130 H 0.16356 0.52214 0.16851 0.0
H1131 H 0.14659 0.46029 0.17773 0.0
H1132 H 0.20384 0.5702 0.26719 0.0
H1133 H 0.16466 0.58995 0.2176 0.0
H1134 H 0.06383 0.46635 0.19775 0.0
H1135 H 0.09378 0.51639 0.16641 0.0
Li1136 Li 0.73767 0.61949 1.0069 0.0
Li1137 Li 0.75411 0.64539 0.02691 0.0
Li1138 Li 0.75867 0.64525 0.99011 0.0
Li1139 Li 0.7764 0.61893 0.01277 0.0
C1140 C 0.71251 0.65039 1.00175 0.0
N1141 N 0.67088 0.65109 0.99395 0.0
C1142 C 0.69861 0.65399 0.01765 0.0
C1143 C 0.70521 0.64732 0.98185 0.0
C1144 C 0.67763 0.65426 0.0134 0.0
C1145 C 0.68412 0.64767 0.97823 0.0
C1146 C 0.7505 0.61454 0.05344 0.0
C1147 C 0.76266 0.60686 0.08751 0.0
N1148 N 0.74443 0.61321 0.09534 0.0
C1149 C 0.73189 0.62096 0.06185 0.0
C1150 C 0.76604 0.60744 0.06637 0.0
C1151 C 0.72912 0.6202 0.08306 0.0
C1152 C 0.71539 0.58735 0.9881 0.0
N1153 N 0.71457 0.60144 1.00344 0.0
C1154 C 0.6815 0.58921 0.01358 0.0
C1155 C 0.69815 0.60239 0.01625 0.0
C1156 C 0.68187 0.57469 0.99774 0.0
C1157 C 0.69916 0.57373 0.98499 0.0
H1158 H 0.72874 0.58655 0.97835 0.0
H1159 H 0.6979 0.61331 0.02862 0.0
C1160 C 0.73869 0.68013 0.04774 0.0
N1161 N 0.7517 0.664 0.0498 0.0
C1162 C 0.73639 0.6943 0.0636 0.0
C1163 C 0.76141 0.67545 0.08327 0.0
C1164 C 0.76322 0.66163 0.06703 0.0
C1165 C 0.74787 0.69207 0.08165 0.0
H1166 H 0.73021 0.68213 0.03367 0.0
H1167 H 0.77403 0.64917 0.06809 0.0
C1168 C 0.76532 0.61195 0.96668 0.0
N1169 N 0.77581 0.60713 0.92593 0.0
C1170 C 0.78533 0.60659 0.96127 0.0
C1171 C 0.75058 0.61459 0.95136 0.0
C1172 C 0.79035 0.60428 0.94059 0.0
C1173 C 0.7562 0.61217 0.93085 0.0
C1174 C 0.78959 0.66428 0.02144 0.0
C1175 C 0.7838 0.68452 0.01758 0.0
C1176 C 0.80443 0.66008 0.03628 0.0
C1177 C 0.79283 0.70029 0.0289 0.0
C1178 C 0.81312 0.67628 0.04724 0.0
N1179 N 0.80716 0.69587 0.04337 0.0
C1180 C 0.74808 0.67728 0.96309 0.0
C1181 C 0.77927 0.66079 0.95458 0.0
C1182 C 0.75042 0.69091 0.94676 0.0
N1183 N 0.76232 0.6625 0.9666 0.0
C1184 C 0.78215 0.67403 0.93796 0.0
C1185 C 0.76769 0.68946 0.93403 0.0
H1186 H 0.73504 0.67874 0.97317 0.0
H1187 H 0.79073 0.64937 0.95807 0.0
C1188 C 0.79718 0.58331 0.0253 0.0
N1189 N 0.79984 0.60195 0.01644 0.0
C1190 C 0.81393 0.57041 0.02857 0.0
C1191 C 0.83579 0.59583 0.01287 0.0
C1192 C 0.81866 0.60844 0.01029 0.0
C1193 C 0.83357 0.57647 0.02208 0.0
H1194 H 0.78203 0.57856 0.03005 0.0
H1195 H 0.8203 0.62334 1.00321 0.0
O1196 O 0.73313 0.64982 1.00562 0.0
O1197 O 0.75353 0.61523 0.0327 0.0
O1198 O 0.76017 0.61449 0.98685 0.0
O1199 O 0.7805 0.64862 0.01097 0.0
H1200 H 0.70389 0.65622 0.03319 0.0
H1201 H 0.71571 0.64471 0.96934 0.0
H1202 H 0.66672 0.65688 0.02559 0.0
H1203 H 0.67828 0.64523 0.96291 0.0
H1204 H 0.77457 0.60146 0.09768 0.0
H1205 H 0.71989 0.62691 0.05217 0.0
H1206 H 0.78065 0.60266 0.06022 0.0
H1207 H 0.71483 0.62527 0.08976 0.0
H1208 H 0.66863 0.59012 0.02402 0.0
H1209 H 0.70004 0.56264 0.97268 0.0
H1210 H 0.72562 0.70679 0.06179 0.0
H1211 H 0.77074 0.67335 0.09683 0.0
H1212 H 0.7969 0.60435 0.97289 0.0
H1213 H 0.73496 0.61843 0.95526 0.0
H1214 H 0.80581 0.60024 0.93619 0.0
H1215 H 0.74497 0.61427 0.91885 0.0
H1216 H 0.77228 0.68797 1.00616 0.0
H1217 H 0.80897 0.64446 0.03949 0.0
H1218 H 0.78839 0.71602 0.02622 0.0
H1219 H 0.82452 0.67327 0.05888 0.0
H1220 H 0.73884 0.7025 0.94414 0.0
H1221 H 0.79578 0.67257 0.92859 0.0
H1222 H 0.81151 0.55598 0.03637 0.0
H1223 H 0.8506 0.60113 0.00756 0.0
Li1224 Li 0.87029 0.0248 0.25673 0.0
Li1225 Li 0.89721 1.00277 0.27427 0.0
Li1226 Li 0.89593 0.00824 0.23548 0.0
Li1227 Li 0.87055 0.98805 0.25261 0.0
C1228 C 0.90324 0.04883 0.26236 0.0
N1229 N 0.90741 0.08986 0.27194 0.0
C1230 C 0.90889 0.05475 0.28215 0.0
C1231 C 0.89998 0.06379 0.24738 0.0
C1232 C 0.91087 0.07556 0.28671 0.0
C1233 C 0.90208 0.08444 0.25254 0.0
C1234 C 0.85303 0.99281 0.28881 0.0
C1235 C 0.84384 0.96612 0.31262 0.0
N1236 N 0.82374 0.96901 0.30793 0.0
C1237 C 0.83229 0.99567 0.28434 0.0
C1238 C 0.85889 0.97802 0.30313 0.0
C1239 C 0.81771 0.98341 0.29412 0.0
C1240 C 0.8387 0.05216 0.24564 0.0
N1241 N 0.85312 0.04833 0.26016 0.0
C1242 C 0.84235 0.07762 0.27939 0.0
C1243 C 0.85489 0.06041 0.27705 0.0
C1244 C 0.82768 0.08226 0.26433 0.0
C1245 C 0.82578 0.0691 0.24741 0.0
H1246 H 0.83704 0.04192 0.23275 0.0
H1247 H 0.86601 0.05668 0.28873 0.0
C1248 C 0.93362 0.9912 0.29393 0.0
N1249 N 0.91493 0.99973 0.29721 0.0
C1250 C 0.94741 0.98883 0.31011 0.0
C1251 C 0.92266 1.00456 0.3327 0.0
C1252 C 0.90916 1.00625 0.31613 0.0
C1253 C 0.94218 0.9959 0.32977 0.0
H1254 H 0.9378 0.98617 0.2787 0.0
H1255 H 0.8942 0.01305 0.31827 0.0
C1256 C 0.86453 0.01204 0.21067 0.0
N1257 N 0.8628 0.01815 0.16879 0.0
C1258 C 0.86066 0.99558 0.19752 0.0
C1259 C 0.86737 0.03162 0.2025 0.0
C1260 C 0.85986 0.99898 0.1764 0.0
C1261 C 0.8665 0.03439 0.18129 0.0
C1262 C 0.90197 0.96201 0.24849 0.0
C1263 C 0.89568 0.95349 0.22989 0.0
C1264 C 0.90951 0.94926 0.26396 0.0
C1265 C 0.89699 0.93232 0.22708 0.0
C1266 C 0.91062 0.92816 0.26054 0.0
N1267 N 0.90438 0.9202 0.24233 0.0
C1268 C 0.92788 0.02711 0.21336 0.0
C1269 C 0.91288 0.99922 0.19568 0.0
C1270 C 0.94178 0.03024 0.19738 0.0
N1271 N 0.91376 0.01182 0.21226 0.0
C1272 C 0.92639 1.00189 0.17928 0.0
C1273 C 0.94121 0.01744 0.18013 0.0
H1274 H 0.92857 0.03675 0.22677 0.0
H1275 H 0.90186 0.98694 0.19517 0.0
C1276 C 0.83542 0.96711 0.23851 0.0
N1277 N 0.85217 0.96495 0.2507 0.0
C1278 C 0.82125 0.9512 0.23661 0.0
C1279 C 0.84139 0.93126 0.26039 0.0
C1280 C 0.85519 0.94756 0.26181 0.0
C1281 C 0.82413 0.93299 0.24768 0.0
H1282 H 0.83293 0.98131 0.23037 0.0
H1283 H 0.86812 0.94642 0.27205 0.0
O1284 O 0.90098 0.02852 0.25768 0.0
O1285 O 0.86755 1.00422 0.27896 0.0
O1286 O 0.86552 0.00901 0.23142 0.0
O1287 O 0.90076 0.98271 0.25155 0.0
H1288 H 0.9116 0.04342 0.29391 0.0
H1289 H 0.89588 0.0595 0.23193 0.0
H1290 H 0.91512 0.08035 0.30199 0.0
H1291 H 0.89949 0.09617 0.24112 0.0
H1292 H 0.84815 0.9545 0.32363 0.0
H1293 H 0.82756 1.00704 0.27323 0.0
H1294 H 0.87491 0.97557 0.30665 0.0
H1295 H 0.80161 0.98531 0.29069 0.0
H1296 H 0.84418 0.08725 0.29277 0.0
H1297 H 0.8142 0.07169 0.23582 0.0
H1298 H 0.96197 0.98143 0.30721 0.0
H1299 H 0.91799 0.01026 0.34756 0.0
H1300 H 0.8586 0.98027 0.20348 0.0
H1301 H 0.87022 0.04455 0.2124 0.0
H1302 H 0.85701 0.98636 0.16606 0.0
H1303 H 0.86874 0.04946 0.17478 0.0
H1304 H 0.88948 0.96305 0.21791 0.0
H1305 H 0.91421 0.95551 0.27856 0.0
H1306 H 0.89204 0.92552 0.2128 0.0
H1307 H 0.91636 0.91811 0.2724 0.0
H1308 H 0.95286 0.04254 0.19851 0.0
H1309 H 0.92558 0.99162 0.16627 0.0
H1310 H 0.80826 0.95309 0.22647 0.0
H1311 H 0.844 0.91757 0.2694 0.0
Li1312 Li 0.25392 0.14497 0.52635 0.0
Li1313 Li 0.23852 0.11891 0.50566 0.0
Li1314 Li 0.2771 0.11922 0.51177 0.0
Li1315 Li 0.25896 0.14515 0.48959 0.0
C1316 C 0.25152 0.11298 0.55211 0.0
N1317 N 0.24623 0.10951 0.59398 0.0
C1318 C 0.23349 0.11998 0.56131 0.0
C1319 C 0.26678 0.10406 0.56418 0.0
C1320 C 0.23114 0.11816 0.58251 0.0
C1321 C 0.26383 0.10247 0.58533 0.0
C1322 C 0.21239 0.14852 0.50114 0.0
C1323 C 0.18396 0.14299 0.47814 0.0
N1324 N 0.1707 0.14645 0.49382 0.0
C1325 C 0.19845 0.15207 0.51702 0.0
C1326 C 0.20507 0.14401 0.48152 0.0
C1327 C 0.17745 0.15096 0.51301 0.0
C1328 C 0.23803 0.17882 0.54825 0.0
N1329 N 0.25143 0.16294 0.54955 0.0
C1330 C 0.26216 0.17395 0.58283 0.0
C1331 C 0.26367 0.16049 0.56625 0.0
C1332 C 0.24826 0.19034 0.58198 0.0
C1333 C 0.23606 0.19266 0.56442 0.0
H1334 H 0.22908 0.18095 0.53449 0.0
H1335 H 0.27475 0.14819 0.56662 0.0
C1336 C 0.21581 0.08686 0.48671 0.0
N1337 N 0.21576 0.10043 0.50253 0.0
C1338 C 0.19936 0.07342 0.48391 0.0
C1339 C 0.18323 0.0879 0.5139 0.0
C1340 C 0.20006 0.10088 0.51624 0.0
C1341 C 0.1827 0.07405 0.49749 0.0
H1342 H 0.22866 0.08639 0.47629 0.0
H1343 H 0.20051 0.11136 0.52898 0.0
C1344 C 0.28641 0.16832 0.51727 0.0
N1345 N 0.29773 0.20668 0.53115 0.0
C1346 C 0.27509 0.1856 0.51161 0.0
C1347 C 0.30351 0.17057 0.52996 0.0
C1348 C 0.28105 0.20485 0.51879 0.0
C1349 C 0.30898 0.19009 0.53681 0.0
C1350 C 0.26676 0.11366 0.46539 0.0
C1351 C 0.28738 0.11196 0.45987 0.0
C1352 C 0.25179 0.11465 0.4501 0.0
C1353 C 0.2927 0.11137 0.43914 0.0
C1354 C 0.25772 0.11406 0.42954 0.0
N1355 N 0.27788 0.11245 0.42453 0.0
C1356 C 0.30328 0.08507 0.50526 0.0
C1357 C 0.31459 0.10835 0.53069 0.0
C1358 C 0.3205 0.07272 0.5084 0.0
N1359 N 0.30082 0.10265 0.51615 0.0
C1360 C 0.33193 0.09637 0.53446 0.0
C1361 C 0.33519 0.0784 0.52307 0.0
H1362 H 0.29186 0.08065 0.49409 0.0
H1363 H 0.31189 0.12199 0.53964 0.0
C1364 C 0.24686 0.17484 0.46008 0.0
N1365 N 0.26256 0.16251 0.46604 0.0
C1366 C 0.24916 0.18799 0.44334 0.0
C1367 C 0.28383 0.17572 0.43922 0.0
C1368 C 0.28097 0.16304 0.45626 0.0
C1369 C 0.26776 0.18836 0.43259 0.0
H1370 H 0.23264 0.17478 0.46853 0.0
H1371 H 0.29351 0.1538 0.46182 0.0
O1372 O 0.25422 0.11475 0.5314 0.0
O1373 O 0.23305 0.1492 0.50479 0.0
O1374 O 0.28029 0.14926 0.51103 0.0
O1375 O 0.26127 0.11453 0.48563 0.0
H1376 H 0.22169 0.12725 0.55228 0.0
H1377 H 0.28075 0.0984 0.55731 0.0
H1378 H 0.21736 0.12371 0.58984 0.0
H1379 H 0.27554 0.09564 0.59486 0.0
H1380 H 0.17813 0.13942 0.46304 0.0
H1381 H 0.20371 0.15525 0.53239 0.0
H1382 H 0.21558 0.14121 0.46905 0.0
H1383 H 0.16651 0.15354 0.5252 0.0
H1384 H 0.27201 0.17182 0.59601 0.0
H1385 H 0.22507 0.20503 0.56321 0.0
H1386 H 0.19955 0.0628 0.47117 0.0
H1387 H 0.17087 0.0885 0.52496 0.0
H1388 H 0.26158 0.18413 0.50215 0.0
H1389 H 0.31242 0.15741 0.53456 0.0
H1390 H 0.27234 0.21832 0.51465 0.0
H1391 H 0.32215 0.19204 0.54669 0.0
H1392 H 0.29923 0.11157 0.47143 0.0
H1393 H 0.23576 0.11589 0.45403 0.0
H1394 H 0.30861 0.11021 0.43467 0.0
H1395 H 0.24629 0.11489 0.41757 0.0
H1396 H 0.32235 0.05895 0.49934 0.0
H1397 H 0.34247 0.10096 0.54642 0.0
H1398 H 0.23651 0.19771 0.43878 0.0
H1399 H 0.29855 0.17596 0.43156 0.0
Li1400 Li 0.39631 0.50511 0.7768 0.0
Li1401 Li 0.37057 0.527 0.75973 0.0
Li1402 Li 0.37063 0.48863 0.75427 0.0
Li1403 Li 0.39662 0.51092 0.73844 0.0
C1404 C 0.36022 0.49929 0.79931 0.0
N1405 N 0.34868 0.48855 0.83862 0.0
C1406 C 0.35201 0.514 0.81253 0.0
C1407 C 0.36223 0.47906 0.80599 0.0
C1408 C 0.34636 0.50829 0.83237 0.0
C1409 C 0.3564 0.47394 0.82594 0.0
C1410 C 0.40332 0.55128 0.76542 0.0
C1411 C 0.4027 0.58669 0.75488 0.0
N1412 N 0.40778 0.59243 0.77426 0.0
C1413 C 0.40872 0.55752 0.78518 0.0
C1414 C 0.40047 0.56596 0.75009 0.0
C1415 C 0.41084 0.5784 0.78936 0.0
C1416 C 0.43152 0.49173 0.79792 0.0
N1417 N 0.41332 0.50153 0.80048 0.0
C1418 C 0.42049 0.50671 0.83606 0.0
C1419 C 0.40768 0.50907 0.81907 0.0
C1420 C 0.43944 0.49676 0.83383 0.0
C1421 C 0.44483 0.48907 0.81448 0.0
H1422 H 0.43581 0.48614 0.78292 0.0
H1423 H 0.39342 0.51725 0.82069 0.0
C1424 C 0.33813 0.55311 0.74847 0.0
N1425 N 0.35293 0.55024 0.76285 0.0
C1426 C 0.32426 0.56929 0.75027 0.0
C1427 C 0.34109 0.57941 0.78164 0.0
C1428 C 0.35461 0.56297 0.77927 0.0
C1429 C 0.32552 0.58257 0.76713 0.0
H1430 H 0.33691 0.54266 0.73569 0.0
H1431 H 0.36621 0.56018 0.79073 0.0
C1432 C 0.40591 0.46476 0.7537 0.0
N1433 N 0.4159 0.42364 0.75277 0.0
C1434 C 0.41215 0.45561 0.73537 0.0
C1435 C 0.40513 0.45308 0.77162 0.0
C1436 C 0.41702 0.43478 0.73519 0.0
C1437 C 0.41014 0.4323 0.77083 0.0
C1438 C 0.36414 0.51369 0.71338 0.0
C1439 C 0.35818 0.49726 0.70103 0.0
C1440 C 0.36778 0.53283 0.7045 0.0
C1441 C 0.3563 0.50017 0.6799 0.0
C1442 C 0.36577 0.53512 0.68331 0.0
N1443 N 0.36014 0.51888 0.67155 0.0
C1444 C 0.33586 0.4646 0.76243 0.0
C1445 C 0.35743 0.45035 0.73696 0.0
C1446 C 0.32216 0.4483 0.76049 0.0
N1447 N 0.35318 0.46528 0.75087 0.0
C1448 C 0.34404 0.43382 0.7344 0.0
C1449 C 0.32603 0.43274 0.74615 0.0
H1450 H 0.33257 0.47682 0.77308 0.0
H1451 H 0.37095 0.45148 0.72751 0.0
C1452 C 0.42912 0.5291 0.71642 0.0
N1453 N 0.41427 0.51453 0.71524 0.0
C1454 C 0.44282 0.53195 0.70023 0.0
C1455 C 0.42568 0.50485 0.68176 0.0
C1456 C 0.41235 0.50246 0.69836 0.0
C1457 C 0.44131 0.5196 0.68269 0.0
H1458 H 0.43047 0.53838 0.73006 0.0
H1459 H 0.40063 0.49079 0.69785 0.0
O1460 O 0.36593 0.50466 0.77985 0.0
O1461 O 0.40102 0.53091 0.76108 0.0
O1462 O 0.40104 0.48515 0.75413 0.0
O1463 O 0.36625 0.51108 0.73407 0.0
H1464 H 0.35013 0.52968 0.80757 0.0
H1465 H 0.36801 0.46737 0.79581 0.0
H1466 H 0.34012 0.51955 0.8428 0.0
H1467 H 0.35793 0.45834 0.83131 0.0
H1468 H 0.40043 0.59821 0.74319 0.0
H1469 H 0.41114 0.54639 0.79719 0.0
H1470 H 0.39658 0.56139 0.73467 0.0
H1471 H 0.4149 0.58345 0.80461 0.0
H1472 H 0.4156 0.51262 0.85077 0.0
H1473 H 0.45937 0.48144 0.81209 0.0
H1474 H 0.31266 0.57138 0.7386 0.0
H1475 H 0.34248 0.58926 0.79492 0.0
H1476 H 0.41307 0.46444 0.7214 0.0
H1477 H 0.40093 0.46001 0.78604 0.0
H1478 H 0.42171 0.42747 0.72108 0.0
H1479 H 0.40953 0.42307 0.78458 0.0
H1480 H 0.35513 0.4824 0.70765 0.0
H1481 H 0.37213 0.54576 0.71386 0.0
H1482 H 0.35182 0.48756 0.67014 0.0
H1483 H 0.36866 0.54982 0.67623 0.0
H1484 H 0.30868 0.44789 0.77015 0.0
H1485 H 0.34751 0.42224 0.72304 0.0
H1486 H 0.45448 0.5437 0.70141 0.0
H1487 H 0.42409 0.49496 0.66853 0.0
Li1488 Li 0.77645 0.39553 0.50163 0.0
Li1489 Li 0.76032 0.36861 0.52479 0.0
Li1490 Li 0.75513 0.36804 0.48809 0.0
Li1491 Li 0.7377 0.39353 0.50813 0.0
C1492 C 0.79186 0.35178 0.49189 0.0
N1493 N 0.81111 0.323 0.46761 0.0
C1494 C 0.78828 0.33092 0.49511 0.0
C1495 C 0.80534 0.35803 0.47647 0.0
C1496 C 0.79812 0.3166 0.48261 0.0
C1497 C 0.81491 0.34323 0.46434 0.0
C1498 C 0.76395 0.40396 0.54774 0.0
C1499 C 0.75195 0.40806 0.58245 0.0
N1500 N 0.77127 0.41309 0.58843 0.0
C1501 C 0.78363 0.40944 0.55417 0.0
C1502 C 0.74792 0.40349 0.56194 0.0
C1503 C 0.78704 0.4139 0.57483 0.0
C1504 C 0.79653 0.43116 0.48739 0.0
N1505 N 0.79926 0.41326 0.49766 0.0
C1506 C 0.83487 0.42056 0.50223 0.0
C1507 C 0.81794 0.40775 0.50503 0.0
C1508 C 0.83259 0.43916 0.49159 0.0
C1509 C 0.8131 0.44428 0.48396 0.0
H1510 H 0.78149 0.43516 0.48172 0.0
H1511 H 0.81964 0.3934 0.51316 0.0
C1512 C 0.75272 0.33625 0.55297 0.0
N1513 N 0.76543 0.35218 0.54856 0.0
C1514 C 0.75655 0.3237 0.5699 0.0
C1515 C 0.78675 0.34381 0.57718 0.0
C1516 C 0.78236 0.35594 0.56009 0.0
C1517 C 0.77381 0.32735 0.5822 0.0
H1518 H 0.73978 0.33305 0.54317 0.0
H1519 H 0.79263 0.36821 0.55588 0.0
C1520 C 0.74704 0.39891 0.46211 0.0
N1521 N 0.73485 0.40029 0.4216 0.0
C1522 C 0.72791 0.39122 0.45637 0.0
C1523 C 0.75998 0.40733 0.44726 0.0
C1524 C 0.72203 0.39203 0.43581 0.0
C1525 C 0.75353 0.4079 0.42685 0.0
C1526 C 0.7149 0.35973 0.5159 0.0
C1527 C 0.70021 0.35299 0.50184 0.0
C1528 C 0.70926 0.363 0.53629 0.0
C1529 C 0.68008 0.34982 0.5084 0.0
C1530 C 0.68897 0.35966 0.54226 0.0
N1531 N 0.67492 0.3532 0.5283 0.0
C1532 C 0.74135 0.33235 0.46789 0.0
C1533 C 0.76297 0.353 0.44733 0.0
C1534 C 0.73911 0.31823 0.45198 0.0
N1535 N 0.75288 0.34949 0.46524 0.0
C1536 C 0.76124 0.33923 0.43104 0.0
C1537 C 0.7492 0.32154 0.43327 0.0
H1538 H 0.73399 0.32954 0.48245 0.0
H1539 H 0.77259 0.36637 0.44575 0.0
C1540 C 0.71642 0.42813 0.52285 0.0
N1541 N 0.71407 0.41078 0.51156 0.0
C1542 C 0.70006 0.44172 0.5254 0.0
C1543 C 0.67906 0.41931 0.50479 0.0
C1544 C 0.69587 0.40628 0.50247 0.0
C1545 C 0.6811 0.43746 0.51615 0.0
H1546 H 0.73112 0.43161 0.52963 0.0
H1547 H 0.69432 0.39272 0.49323 0.0
O1548 O 0.78192 0.36603 0.50354 0.0
O1549 O 0.76036 0.39942 0.5276 0.0
O1550 O 0.75314 0.39806 0.48214 0.0
O1551 O 0.73468 0.36303 0.50974 0.0
H1552 H 0.77782 0.32589 0.50696 0.0
H1553 H 0.80815 0.37414 0.47373 0.0
H1554 H 0.79538 0.30041 0.48479 0.0
H1555 H 0.82528 0.34783 0.45225 0.0
H1556 H 0.7397 0.40766 0.59361 0.0
H1557 H 0.79617 0.41005 0.54338 0.0
H1558 H 0.73251 0.39981 0.55715 0.0
H1559 H 0.80223 0.41799 0.58005 0.0
H1560 H 0.84958 0.41602 0.50842 0.0
H1561 H 0.81069 0.45813 0.47516 0.0
H1562 H 0.74635 0.311 0.57309 0.0
H1563 H 0.80012 0.34728 0.58637 0.0
H1564 H 0.71791 0.38431 0.4676 0.0
H1565 H 0.77494 0.41316 0.45138 0.0
H1566 H 0.70731 0.38601 0.43113 0.0
H1567 H 0.7634 0.41431 0.41518 0.0
H1568 H 0.70417 0.35061 0.48592 0.0
H1569 H 0.72045 0.36794 0.54743 0.0
H1570 H 0.66853 0.34475 0.49764 0.0
H1571 H 0.68442 0.36216 0.55799 0.0
H1572 H 0.72946 0.30493 0.45428 0.0
H1573 H 0.76947 0.34224 0.41694 0.0
H1574 H 0.70234 0.45561 0.53417 0.0
H1575 H 0.66462 0.4152 0.49773 0.0
Li1576 Li 0.64689 0.98785 0.75965 0.0
Li1577 Li 0.62103 0.01028 0.77572 0.0
Li1578 Li 0.62022 1.00295 0.73747 0.0
Li1579 Li 0.64604 0.02609 0.75259 0.0
C1580 C 0.61239 0.96363 0.76431 0.0
N1581 N 0.604 0.92266 0.77088 0.0
C1582 C 0.60715 0.95671 0.78389 0.0
C1583 C 0.61302 0.94977 0.74801 0.0
C1584 C 0.60305 0.93593 0.78692 0.0
C1585 C 0.60882 0.92911 0.75166 0.0
C1586 C 0.65575 0.01551 0.79877 0.0
C1587 C 0.65644 0.03914 0.82716 0.0
N1588 N 0.66398 0.02406 0.83941 0.0
C1589 C 0.6637 1.00031 0.81158 0.0
C1590 C 0.65226 0.03514 0.80655 0.0
C1591 C 0.66769 1.00491 0.8321 0.0
C1592 C 0.68034 0.96207 0.75017 0.0
N1593 N 0.66441 0.96452 0.76337 0.0
C1594 C 0.67383 0.9339 0.78125 0.0
C1595 C 0.66114 0.951 0.77891 0.0
C1596 C 0.69004 0.93071 0.76748 0.0
C1597 C 0.69335 0.94518 0.75191 0.0
H1598 H 0.68304 0.97331 0.73832 0.0
H1599 H 0.64879 0.95355 0.78962 0.0
C1600 C 0.58757 0.02696 0.79751 0.0
N1601 N 0.60427 0.01466 0.79947 0.0
C1602 C 0.57483 0.03069 0.81432 0.0
C1603 C 0.59665 0.009 0.83489 0.0
C1604 C 0.60885 1.00555 0.81764 0.0
C1605 C 0.57927 0.02161 0.83333 0.0
H1606 H 0.58406 0.0338 0.78284 0.0
H1607 H 0.62195 0.99552 0.81879 0.0
C1608 C 0.65482 0.99744 0.71353 0.0
N1609 N 0.66326 0.98642 0.67353 0.0
C1610 C 0.66235 0.01197 0.69971 0.0
C1611 C 0.65188 0.97725 0.70709 0.0
C1612 C 0.66644 1.00611 0.67953 0.0
C1613 C 0.65615 0.97199 0.68679 0.0
C1614 C 0.61158 0.04935 0.74852 0.0
C1615 C 0.60529 0.05556 0.72901 0.0
C1616 C 0.61359 0.06387 0.76411 0.0
C1617 C 0.60152 0.07631 0.72533 0.0
C1618 C 0.6097 0.08447 0.75982 0.0
N1619 N 0.60382 0.09021 0.74067 0.0
C1620 C 0.5858 0.98623 0.71727 0.0
C1621 C 0.60713 1.00618 0.69571 0.0
C1622 C 0.57277 0.9818 0.70086 0.0
N1623 N 0.60275 0.998 0.71438 0.0
C1624 C 0.59461 1.00201 0.67885 0.0
C1625 C 0.57728 0.98947 0.68125 0.0
H1626 H 0.58236 0.98031 0.73235 0.0
H1627 H 0.62031 0.016 0.69388 0.0
C1628 C 0.67797 0.05431 0.76102 0.0
N1629 N 0.66249 0.04994 0.74777 0.0
C1630 C 0.69025 0.07159 0.75802 0.0
C1631 C 0.67071 0.07942 0.72758 0.0
C1632 C 0.65885 0.06196 0.73114 0.0
C1633 C 0.68658 0.08451 0.74119 0.0
H1634 H 0.68093 0.04426 0.77384 0.0
H1635 H 0.64682 0.05793 0.72053 0.0
O1636 O 0.61652 0.98393 0.76108 0.0
O1637 O 0.65158 0.01122 0.77868 0.0
O1638 O 0.65056 1.00295 0.73331 0.0
O1639 O 0.6155 0.02913 0.75236 0.0
H1640 H 0.60639 0.96724 0.79664 0.0
H1641 H 0.61653 0.95492 0.73268 0.0
H1642 H 0.59913 0.93034 0.80203 0.0
H1643 H 0.60933 0.91821 0.73919 0.0
H1644 H 0.65371 0.05424 0.83341 0.0
H1645 H 0.66668 0.9851 0.80577 0.0
H1646 H 0.64645 0.04716 0.79679 0.0
H1647 H 0.67373 0.99326 0.84221 0.0
H1648 H 0.67088 0.92319 0.79358 0.0
H1649 H 0.70604 0.9436 0.74133 0.0
H1650 H 0.56152 0.0404 0.81241 0.0
H1651 H 0.60091 1.00202 0.84932 0.0
H1652 H 0.66493 0.02761 0.70447 0.0
H1653 H 0.6465 0.96573 0.71767 0.0
H1654 H 0.67216 0.01723 0.66864 0.0
H1655 H 0.65387 0.95643 0.68158 0.0
H1656 H 0.60348 0.04452 0.71681 0.0
H1657 H 0.61804 0.05928 0.77938 0.0
H1658 H 0.59679 0.08135 0.71026 0.0
H1659 H 0.6113 0.09587 0.77173 0.0
H1660 H 0.55922 0.97262 0.70356 0.0
H1661 H 0.59858 0.00836 0.66404 0.0
H1662 H 0.70269 0.07462 0.76856 0.0
H1663 H 0.66744 0.08891 0.71437 0.0
Li1664 Li 0.0274 0.25892 0.86769 0.0
Li1665 Li 1.00501 0.27534 0.89333 0.0
Li1666 Li 0.01165 0.23703 0.8941 0.0
Li1667 Li 0.98907 0.25246 0.86803 0.0
C1668 C 0.05132 0.2635 0.90232 0.0
N1669 N 0.09225 0.2701 0.91092 0.0
C1670 C 0.05825 0.28313 0.9073 0.0
C1671 C 0.06515 0.24716 0.90207 0.0
C1672 C 0.07901 0.28617 0.91151 0.0
C1673 C 0.08579 0.25082 0.90636 0.0
C1674 C 1.00006 0.29839 0.85843 0.0
C1675 C 0.97626 0.32662 0.85714 0.0
N1676 N 0.99141 0.33892 0.84981 0.0
C1677 C 0.01533 0.31125 0.85068 0.0
C1678 C 0.98031 0.30607 0.8615 0.0
C1679 C 0.01067 0.33171 0.84649 0.0
C1680 C 0.0534 0.24926 0.83439 0.0
N1681 N 0.05082 0.26248 0.85028 0.0
C1682 C 0.08091 0.281 0.84043 0.0
C1683 C 0.0641 0.27823 0.85341 0.0
C1684 C 0.08396 0.26754 0.82393 0.0
C1685 C 0.07002 0.25143 0.82106 0.0
H1686 H 0.04241 0.23714 0.83188 0.0
H1687 H 0.0615 0.28887 0.8658 0.0
C1688 C 0.98876 0.29668 0.92709 0.0
N1689 N 1.00071 0.299 0.91018 0.0
C1690 C 0.98464 0.31338 0.93982 0.0
C1691 C 1.00559 0.33453 0.91782 0.0
C1692 C 0.00941 0.31738 0.90558 0.0
C1693 C 0.99284 0.3327 0.93507 0.0
H1694 H 0.98243 0.28182 0.93072 0.0
H1695 H 0.01935 0.31877 0.89244 0.0
C1696 C 0.01727 0.21294 0.85985 0.0
N1697 N 0.02785 0.1727 0.85214 0.0
C1698 C 1.00269 0.19926 0.85219 0.0
C1699 C 0.0373 0.20623 0.8633 0.0
C1700 C 0.00832 0.17895 0.84846 0.0
C1701 C 0.04233 0.18581 0.85939 0.0
C1702 C 0.96531 0.2493 0.90248 0.0
C1703 C 0.95829 0.23 0.90855 0.0
C1704 C 0.95147 0.26554 0.90083 0.0
C1705 C 0.93743 0.22718 0.91245 0.0
C1706 C 0.93074 0.26211 0.90487 0.0
N1707 N 0.92419 0.24315 0.91051 0.0
C1708 C 0.02713 0.2166 0.92891 0.0
C1709 C 1.00666 0.19564 0.9075 0.0
C1710 C 0.0302 0.20034 0.9425 0.0
N1711 N 0.01564 0.21395 0.91173 0.0
C1712 C 0.00944 0.17893 0.92059 0.0
C1713 C 0.02143 0.18113 0.93833 0.0
H1714 H 0.03371 0.23144 0.93219 0.0
H1715 H 0.99708 0.19403 0.89412 0.0
C1716 C 0.96155 0.26093 0.83551 0.0
N1717 N 0.96543 0.24787 0.85128 0.0
C1718 C 0.94458 0.25786 0.82283 0.0
C1719 C 0.93594 0.22785 0.8427 0.0
C1720 C 0.95311 0.23147 0.85496 0.0
C1721 C 0.93158 0.24108 0.82631 0.0
H1722 H 0.97173 0.27367 0.83266 0.0
H1723 H 0.95678 0.22099 0.86723 0.0
O1724 O 0.03105 0.26025 0.89812 0.0
O1725 O 1.00439 0.27835 0.86278 0.0
O1726 O 0.01197 0.23283 0.86378 0.0
O1727 O 0.98567 0.25231 0.89847 0.0
H1728 H 0.04774 0.29591 0.90776 0.0
H1729 H 0.05999 0.23179 0.89877 0.0
H1730 H 0.08461 0.30132 0.91522 0.0
H1731 H 0.09667 0.23833 0.90614 0.0
H1732 H 0.96106 0.33278 0.85954 0.0
H1733 H 0.03063 0.30553 0.848 0.0
H1734 H 0.96823 0.29625 0.8671 0.0
H1735 H 0.02238 0.34187 0.8406 0.0
H1736 H 0.09143 0.2935 0.84331 0.0
H1737 H 0.07172 0.24084 0.8084 0.0
H1738 H 0.97527 0.31113 0.95333 0.0
H1739 H 0.01234 0.34911 0.9137 0.0
H1740 H 0.98717 0.20423 0.84923 0.0
H1741 H 0.04885 0.2167 0.86882 0.0
H1742 H 0.99716 0.16817 0.84265 0.0
H1743 H 0.05777 0.1804 0.86206 0.0
H1744 H 0.96879 0.2173 0.91009 0.0
H1745 H 0.9567 0.28067 0.89662 0.0
H1746 H 0.93176 0.21229 0.91701 0.0
H1747 H 0.91985 0.27454 0.90357 0.0
H1748 H 0.03901 0.20291 0.95631 0.0
H1749 H 1.0023 0.16443 0.91686 0.0
H1750 H 0.94161 0.26855 0.8105 0.0
H1751 H 0.92639 0.21463 0.84576 0.0
Li1752 Li 0.52651 0.75922 0.36884 0.0
Li1753 Li 0.50407 0.77612 0.39421 0.0
Li1754 Li 0.51063 0.73793 0.39515 0.0
Li1755 Li 0.48814 0.75287 0.36887 0.0
C1756 C 0.55026 0.76596 0.4024 0.0
N1757 N 0.59093 0.77604 0.40852 0.0
C1758 C 0.55572 0.786 0.40759 0.0
C1759 C 0.56545 0.75099 0.40063 0.0
C1760 C 0.57637 0.79081 0.41056 0.0
C1761 C 0.58593 0.75641 0.40368 0.0
C1762 C 0.49905 0.79837 0.35793 0.0
C1763 C 0.47465 0.82573 0.3533 0.0
N1764 N 0.48995 0.83808 0.3464 0.0
C1765 C 0.51448 0.81126 0.35055 0.0
C1766 C 0.47892 0.80559 0.35911 0.0
C1767 C 0.50959 0.83131 0.34488 0.0
C1768 C 0.55279 0.74813 0.33639 0.0
N1769 N 0.55004 0.76226 0.35145 0.0
C1770 C 0.58032 0.7801 0.34094 0.0
C1771 C 0.56329 0.77818 0.35379 0.0
C1772 C 0.58371 0.76555 0.32547 0.0
C1773 C 0.56958 0.74948 0.32318 0.0
H1774 H 0.54182 0.73589 0.33449 0.0
H1775 H 0.56058 0.78953 0.36551 0.0
C1776 C 0.48929 0.79677 0.42896 0.0
N1777 N 0.4995 0.7998 0.41104 0.0
C1778 C 0.48492 0.81326 0.44188 0.0
C1779 C 0.50223 0.83569 0.41807 0.0
C1780 C 0.50627 0.81875 0.4056 0.0
C1781 C 0.49119 0.83308 0.43635 0.0
H1782 H 0.4845 0.7815 0.43322 0.0
H1783 H 0.51494 0.82077 0.39167 0.0
C1784 C 0.51518 0.7127 0.36295 0.0
N1785 N 0.52334 0.67131 0.35956 0.0
C1786 C 0.49975 0.69915 0.35689 0.0
C1787 C 0.53484 0.70524 0.36697 0.0
C1788 C 0.50416 0.67827 0.35534 0.0
C1789 C 0.53864 0.68426 0.36527 0.0
C1790 C 0.46414 0.75278 0.40383 0.0
C1791 C 0.45502 0.7348 0.41104 0.0
C1792 C 0.45231 0.77049 0.40169 0.0
C1793 C 0.43409 0.73471 0.41554 0.0
C1794 C 0.43144 0.7698 0.40637 0.0
N1795 N 0.42283 0.75207 0.41311 0.0
C1796 C 0.52874 0.71576 0.42779 0.0
C1797 C 0.50204 0.69812 0.41065 0.0
C1798 C 0.53153 0.69926 0.44115 0.0
N1799 N 0.51424 0.71486 0.41285 0.0
C1800 C 0.50437 0.68125 0.4236 0.0
C1801 C 0.51932 0.68168 0.43906 0.0
H1802 H 0.53803 0.72936 0.42945 0.0
H1803 H 0.49034 0.69794 0.39894 0.0
C1804 C 0.46145 0.76004 0.3353 0.0
N1805 N 0.4645 0.74818 0.35216 0.0
C1806 C 0.44431 0.75694 0.32284 0.0
C1807 C 0.43405 0.72908 0.34496 0.0
C1808 C 0.45133 0.73278 0.35703 0.0
C1809 C 0.4303 0.74135 0.3277 0.0
H1810 H 0.47242 0.77181 0.3314 0.0
H1811 H 0.45436 0.72319 0.37017 0.0
O1812 O 0.53012 0.761 0.39934 0.0
O1813 O 0.5036 0.77871 0.36363 0.0
O1814 O 0.51108 0.73317 0.36486 0.0
O1815 O 0.4846 0.7531 0.3992 0.0
H1816 H 0.54418 0.79775 0.40918 0.0
H1817 H 0.56149 0.73535 0.39697 0.0
H1818 H 0.58083 0.80628 0.41445 0.0
H1819 H 0.59785 0.74499 0.40225 0.0
H1820 H 0.45914 0.83152 0.35421 0.0
H1821 H 0.53009 0.8059 0.34932 0.0
H1822 H 0.46669 0.7957 0.36425 0.0
H1823 H 0.52142 0.84148 0.33928 0.0
H1824 H 0.59079 0.79279 0.34314 0.0
H1825 H 0.57129 0.73826 0.31109 0.0
H1826 H 0.47689 0.81048 0.45613 0.0
H1827 H 0.50749 0.8507 0.41335 0.0
H1828 H 0.48452 0.70467 0.35351 0.0
H1829 H 0.54702 0.71554 0.37135 0.0
H1830 H 0.49233 0.66759 0.35079 0.0
H1831 H 0.55376 0.67827 0.36846 0.0
H1832 H 0.46396 0.72101 0.41301 0.0
H1833 H 0.4592 0.78467 0.39667 0.0
H1834 H 0.42681 0.72085 0.42098 0.0
H1835 H 0.4221 0.78339 0.40472 0.0
H1836 H 0.54317 0.70019 0.45295 0.0
H1837 H 0.49433 0.66817 0.42179 0.0
H1838 H 0.44222 0.7664 0.30937 0.0
H1839 H 0.42366 0.71683 0.34914 0.0
Li1840 Li 0.00885 0.77781 0.62019 0.0
Li1841 Li 0.98882 0.76093 0.64604 0.0
Li1842 Li 0.02567 0.75668 0.64609 0.0
Li1843 Li 1.00321 0.73892 0.61964 0.0
C1844 C 0.01513 0.8023 0.65249 0.0
N1845 N 0.02572 0.84314 0.65612 0.0
C1846 C 1.0004 0.81679 0.65814 0.0
C1847 C 0.03526 0.80859 0.64881 0.0
C1848 C 1.00606 0.83736 0.65987 0.0
C1849 C 0.04031 0.8293 0.65068 0.0
C1850 C 0.96296 0.76637 0.61452 0.0
C1851 C 0.9284 0.7572 0.60523 0.0
N1852 N 0.92174 0.77568 0.61217 0.0
C1853 C 0.9558 0.7853 0.62147 0.0
C1854 C 0.94919 0.7522 0.60628 0.0
C1855 C 0.9349 0.7897 0.6202 0.0
C1856 C 0.02483 0.79865 0.58578 0.0
N1857 N 0.01207 0.80086 0.60211 0.0
C1858 C 1.00387 0.83504 0.59167 0.0
C1859 C 1.00153 0.81857 0.60514 0.0
C1860 C 0.01673 0.83311 0.57452 0.0
C1861 C 0.02741 0.81463 0.57175 0.0
H1862 H 0.03281 0.78433 0.58347 0.0
H1863 H 0.99118 0.81998 0.61793 0.0
C1864 C 0.96704 0.77557 0.68069 0.0
N1865 N 0.96552 0.76306 0.6641 0.0
C1866 C 0.95058 0.77767 0.69422 0.0
C1867 C 0.93154 0.75334 0.67387 0.0
C1868 C 0.94835 0.75174 0.66072 0.0
C1869 C 0.93243 0.76666 0.69074 0.0
H1870 H 0.98112 0.7838 0.68352 0.0
H1871 H 0.94776 0.74127 0.64793 0.0
C1872 C 0.04904 0.75076 0.61171 0.0
N1873 N 0.08968 0.74132 0.60457 0.0
C1874 C 0.05476 0.73065 0.60713 0.0
C1875 C 0.06393 0.76613 0.61232 0.0
C1876 C 0.0754 0.72617 0.60365 0.0
C1877 C 0.08441 0.76103 0.60877 0.0
C1878 C 0.99465 0.72592 0.66535 0.0
C1879 C 0.99888 0.73197 0.68544 0.0
C1880 C 0.97959 0.71117 0.66163 0.0
C1881 C 0.98776 0.72328 0.70154 0.0
C1882 C 0.96883 0.70282 0.67814 0.0
N1883 N 0.97308 0.70901 0.69758 0.0
C1884 C 0.05282 0.76701 0.67827 0.0
C1885 C 0.06174 0.73661 0.6606 0.0
C1886 C 0.06968 0.76484 0.69126 0.0
N1887 N 0.04935 0.75318 0.66308 0.0
C1888 C 0.07886 0.73389 0.6732 0.0
C1889 C 0.08304 0.7482 0.6887 0.0
H1890 H 0.04236 0.77963 0.68047 0.0
H1891 H 0.05818 0.72532 0.64905 0.0
C1892 C 0.99176 0.71792 0.58366 0.0
N1893 N 0.99967 0.71545 0.60277 0.0
C1894 C 0.98862 0.70094 0.57101 0.0
C1895 C 1.00217 0.67925 0.59781 0.0
C1896 C 1.00489 0.69663 0.61001 0.0
C1897 C 0.99392 0.68131 0.57804 0.0
H1898 H 0.9878 0.73309 0.57831 0.0
H1899 H 0.01113 0.69514 0.6253 0.0
O1900 O 0.00987 0.78209 0.65058 0.0
O1901 O 0.98333 0.76166 0.61587 0.0
O1902 O 0.02892 0.75539 0.61532 0.0
O1903 O 1.00495 0.73469 0.64938 0.0
H1904 H 0.98467 0.81231 0.66079 0.0
H1905 H 0.04688 0.79759 0.64462 0.0
H1906 H 0.99478 0.84874 0.66409 0.0
H1907 H 0.05584 0.83436 0.64784 0.0
H1908 H 0.91755 0.74636 0.59896 0.0
H1909 H 0.96621 0.79627 0.62819 0.0
H1910 H 0.95446 0.73743 0.60093 0.0
H1911 H 0.92912 0.80423 0.62568 0.0
H1912 H 0.99571 0.84914 0.59473 0.0
H1913 H 0.03738 0.81242 0.55867 0.0
H1914 H 0.95197 0.78793 0.70718 0.0
H1915 H 0.9181 0.74404 0.67102 0.0
H1916 H 0.04343 0.71859 0.60647 0.0
H1917 H 0.05973 0.78184 0.61539 0.0
H1918 H 0.08007 0.71065 0.60024 0.0
H1919 H 0.09611 0.77276 0.60929 0.0
H1920 H 0.01045 0.74345 0.68853 0.0
H1921 H 0.97608 0.70644 0.64613 0.0
H1922 H 0.99074 0.72791 0.71717 0.0
H1923 H 0.95704 0.69148 0.6755 0.0
H1924 H 0.07228 0.77611 0.70316 0.0
H1925 H 0.08846 0.72053 0.67111 0.0
H1926 H 0.98224 0.70313 0.55584 0.0
H1927 H 1.00614 0.66433 0.60387 0.0
Li1928 Li 0.51113 0.27567 0.12067 0.0
Li1929 Li 0.48902 0.25947 0.14678 0.0
Li1930 Li 0.52745 0.25375 0.14682 0.0
Li1931 Li 0.50514 0.2372 0.12108 0.0
C1932 C 0.51667 0.2993 0.1555 0.0
N1933 N 0.52693 0.33938 0.16443 0.0
C1934 C 0.50195 0.31265 0.16347 0.0
C1935 C 0.53667 0.30625 0.15236 0.0
C1936 C 0.50742 0.33288 0.1678 0.0
C1937 C 0.54154 0.32659 0.15689 0.0
C1938 C 0.46488 0.26299 0.11293 0.0
C1939 C 0.43024 0.25019 0.11141 0.0
N1940 N 0.42354 0.26924 0.10628 0.0
C1941 C 0.45768 0.28238 0.10741 0.0
C1942 C 0.4511 0.24671 0.11473 0.0
C1943 C 0.43671 0.28525 0.1042 0.0
C1944 C 0.52561 0.2967 0.08566 0.0
N1945 N 0.51462 0.29904 0.1032 0.0
C1946 C 0.50781 0.33409 0.09489 0.0
C1947 C 0.50571 0.31726 0.10795 0.0
C1948 C 0.51886 0.33207 0.07652 0.0
C1949 C 0.52799 0.3131 0.07207 0.0
H1950 H 0.53232 0.28199 0.08206 0.0
H1951 H 0.49665 0.31869 0.12172 0.0
C1952 C 0.46254 0.24967 0.17961 0.0
N1953 N 0.46553 0.26318 0.16403 0.0
C1954 C 0.44579 0.25181 0.19276 0.0
C1955 C 0.43558 0.28193 0.17386 0.0
C1956 C 0.45258 0.27924 0.1611 0.0
C1957 C 0.43198 0.26804 0.1899 0.0
H1958 H 0.47327 0.2373 0.18197 0.0
H1959 H 0.4556 0.29017 0.14905 0.0
C1960 C 0.55125 0.25028 0.11189 0.0
N1961 N 0.59226 0.24509 0.10276 0.0
C1962 C 0.55873 0.23093 0.10661 0.0
C1963 C 0.56455 0.26705 0.11217 0.0
C1964 C 0.57953 0.2286 0.10214 0.0
C1965 C 0.58525 0.2641 0.10761 0.0
C1966 C 0.50119 0.21363 0.15572 0.0
C1967 C 0.51689 0.20121 0.16331 0.0
C1968 C 0.4817 0.20533 0.1526 0.0
C1969 C 0.51291 0.18056 0.16731 0.0
C1970 C 0.47833 0.18461 0.15676 0.0
N1971 N 0.49388 0.17275 0.16395 0.0
C1972 C 0.55241 0.26307 0.18082 0.0
C1973 C 0.56497 0.23549 0.1609 0.0
C1974 C 0.56869 0.26106 0.19456 0.0
N1975 N 0.55087 0.25045 0.16432 0.0
C1976 C 0.58151 0.2329 0.17428 0.0
C1977 C 0.58341 0.24568 0.19149 0.0
H1978 H 0.54084 0.2746 0.18348 0.0
H1979 H 0.56315 0.22523 0.14807 0.0
C1980 C 0.48892 0.21554 0.08734 0.0
N1981 N 0.50124 0.21357 0.10402 0.0
C1982 C 0.48545 0.19884 0.07439 0.0
C1983 C 0.50744 0.17835 0.09596 0.0
C1984 C 0.51065 0.1955 0.10836 0.0
C1985 C 0.49478 0.17991 0.0786 0.0
H1986 H 0.48183 0.23013 0.08403 0.0
H1987 H 0.52071 0.19435 0.12144 0.0
O1988 O 0.51154 0.27949 0.15102 0.0
O1989 O 0.48533 0.25993 0.11631 0.0
O1990 O 0.53092 0.25282 0.11634 0.0
O1991 O 0.50485 0.23384 0.15157 0.0
H1992 H 0.48644 0.30748 0.16617 0.0
H1993 H 0.54833 0.29602 0.14661 0.0
H1994 H 0.49615 0.34341 0.17386 0.0
H1995 H 0.55695 0.33218 0.15446 0.0
H1996 H 0.4194 0.23774 0.11285 0.0
H1997 H 0.46813 0.29511 0.10578 0.0
H1998 H 0.45645 0.23152 0.11856 0.0
H1999 H 0.43091 0.30021 0.10007 0.0
H2000 H 0.50084 0.34852 0.09915 0.0
H2001 H 0.53652 0.31084 0.05802 0.0
H2002 H 0.4436 0.24081 0.20501 0.0
H2003 H 0.42559 0.29495 0.17146 0.0
H2004 H 0.54862 0.21782 0.10614 0.0
H2005 H 0.55893 0.2822 0.11571 0.0
H2006 H 0.58556 0.21368 0.09819 0.0
H2007 H 0.59573 0.27693 0.10784 0.0
H2008 H 0.53201 0.20741 0.166 0.0
H2009 H 0.4693 0.21479 0.14708 0.0
H2010 H 0.52495 0.17075 0.17308 0.0
H2011 H 0.46335 0.17797 0.15432 0.0
H2012 H 0.56975 0.27144 0.20745 0.0
H2013 H 0.59243 0.22074 0.17147 0.0
H2014 H 0.4757 0.20078 0.0611 0.0
H2015 H 0.51461 0.16398 0.10008 0.0
C2016 C 0.24027 0.80169 0.87855 0.0
C2017 C 0.23915 0.78041 0.88173 0.0
C2018 C 0.24253 0.81526 0.89508 0.0
C2019 C 0.24365 0.80805 0.9154 0.0
H2020 H 0.23983 0.80785 0.86315 0.0
H2021 H 0.2438 0.83149 0.8919 0.0
S2022 S 0.23905 0.75384 0.93195 0.0
N2023 N 0.23784 0.75285 0.9067 0.0
N2024 N 0.24178 0.77829 0.93777 0.0
C2025 C 0.24192 0.78682 0.91877 0.0
C2026 C 0.23974 0.77303 0.90194 0.0
C2027 C 0.04459 0.51629 0.38129 0.0
C2028 C 0.03763 0.53631 0.3852 0.0
C2029 C 0.05693 0.51194 0.36422 0.0
C2030 C 0.06261 0.5274 0.3503 0.0
H2031 H 0.0407 0.50393 0.39167 0.0
H2032 H 0.06196 0.49631 0.36183 0.0
S2033 S 0.04811 0.58226 0.35341 0.0
N2034 N 0.03697 0.57166 0.3735 0.0
N2035 N 0.0604 0.56355 0.34164 0.0
C2036 C 0.05563 0.54745 0.35395 0.0
C2037 C 0.04313 0.55189 0.37135 0.0
C2038 C 0.77701 0.71078 0.88054 0.0
C2039 C 0.77527 0.73208 0.88343 0.0
C2040 C 0.77481 0.69709 0.897 0.0
C2041 C 0.77071 0.7042 0.91693 0.0
H2042 H 0.7797 0.70461 0.86537 0.0
H2043 H 0.7759 0.6808 0.89403 0.0
S2044 S 0.76707 0.75854 0.93307 0.0
N2045 N 0.77087 0.75964 0.90808 0.0
N2046 N 0.76656 0.73393 0.93891 0.0
C2047 C 0.76948 0.72545 0.92012 0.0
C2048 C 0.77179 0.73938 0.90341 0.0
C2049 C 0.96376 0.98562 0.38306 0.0
C2050 C 0.98471 0.99034 0.38094 0.0
C2051 C 0.95016 0.9875 0.36652 0.0
C2052 C 0.95693 0.99421 0.34715 0.0
H2053 H 0.95774 0.98063 0.3977 0.0
H2054 H 0.93424 0.98348 0.36889 0.0
S2055 S 0.01029 0.00852 0.33346 0.0
N2056 N 0.01165 1.00151 0.35772 0.0
N2057 N 0.98597 1.00608 0.32699 0.0
C2058 C 0.97782 0.99908 0.34484 0.0
C2059 C 0.99171 0.99694 0.36163 0.0
C2060 C 0.24195 0.21143 0.63594 0.0
C2061 C 0.24288 0.23276 0.63295 0.0
C2062 C 0.24391 0.19781 0.61942 0.0
C2063 C 0.2466 0.20503 0.59927 0.0
H2064 H 0.23994 0.20522 0.6512 0.0
H2065 H 0.24306 0.1815 0.62239 0.0
S2066 S 0.2499 0.25944 0.58323 0.0
N2067 N 0.24643 0.26044 0.60827 0.0
N2068 N 0.25036 0.23486 0.5773 0.0
C2069 C 0.24751 0.22631 0.59608 0.0
C2070 C 0.24561 0.24016 0.61289 0.0
C2071 C 0.46288 0.52592 0.62888 0.0
C2072 C 0.48419 0.52561 0.63213 0.0
C2073 C 0.44911 0.52391 0.64529 0.0
C2074 C 0.45615 0.52181 0.66556 0.0
H2075 H 0.45681 0.52742 0.6135 0.0
H2076 H 0.43282 0.52415 0.6421 0.0
S2077 S 0.51047 0.52047 0.68226 0.0
N2078 N 0.51167 0.52339 0.65716 0.0
N2079 N 0.48583 0.51946 0.68794 0.0
C2080 C 0.47742 0.52166 0.66901 0.0
C2081 C 0.49142 0.52356 0.65232 0.0
C2082 C 0.76675 0.29666 0.63131 0.0
C2083 C 0.78641 0.28859 0.63488 0.0
C2084 C 0.76278 0.30912 0.61423 0.0
C2085 C 0.77833 0.31394 0.60007 0.0
H2086 H 0.75441 0.2936 0.64199 0.0
H2087 H 0.7475 0.31527 0.61226 0.0
S2088 S 0.83188 0.2949 0.60136 0.0
N2089 N 0.82123 0.28518 0.62215 0.0
N2090 N 0.81379 0.30847 0.59003 0.0
C2091 C 0.79794 0.30559 0.60324 0.0
C2092 C 0.80198 0.29295 0.62063 0.0
C2093 C 0.54527 0.99627 0.63293 0.0
C2094 C 0.53849 0.97626 0.62863 0.0
C2095 C 0.55777 1.00039 0.64993 0.0
C2096 C 0.56391 0.98468 0.66339 0.0
H2097 H 0.54111 0.00883 0.62292 0.0
H2098 H 0.56254 0.01605 0.65264 0.0
S2099 S 0.55012 0.92969 0.65912 0.0
N2100 N 0.53845 0.94064 0.63954 0.0
N2101 N 0.5624 0.94827 0.6711 0.0
C2102 C 0.55718 0.96461 0.65931 0.0
C2103 C 0.54441 0.96043 0.64202 0.0
C2104 C 0.87702 0.22978 0.80924 0.0
C2105 C 0.87856 0.22957 0.78772 0.0
C2106 C 0.89421 0.23354 0.82158 0.0
C2107 C 0.91358 0.23726 0.81289 0.0
H2108 H 0.86236 0.22723 0.81659 0.0
H2109 H 0.89227 0.23373 0.83807 0.0
S2110 S 0.92616 0.23676 0.75746 0.0
N2111 N 0.90127 0.23232 0.75831 0.0
N2112 N 0.93352 0.23947 0.78151 0.0
C2113 C 0.91539 0.23689 0.79142 0.0
C2114 C 0.8979 0.23302 0.77885 0.0
C2115 C 0.4978 0.88183 0.46764 0.0
C2116 C 0.47795 0.88552 0.4752 0.0
C2117 C 0.50193 0.86492 0.45502 0.0
C2118 C 0.48641 0.85094 0.44966 0.0
H2119 H 0.5102 0.89224 0.4713 0.0
H2120 H 0.51745 0.86267 0.44958 0.0
S2121 S 0.43191 0.85356 0.46564 0.0
N2122 N 0.44269 0.8736 0.47669 0.0
N2123 N 0.45037 0.84205 0.45273 0.0
C2124 C 0.46652 0.85442 0.45718 0.0
C2125 C 0.4623 0.87165 0.46997 0.0
C2126 C 0.13051 0.25563 0.79093 0.0
C2127 C 0.13507 0.27463 0.7818 0.0
C2128 C 0.11403 0.2535 0.80457 0.0
C2129 C 0.1015 0.27028 0.80964 0.0
H2130 H 0.13988 0.24233 0.78765 0.0
H2131 H 0.11119 0.23862 0.81136 0.0
S2132 S 0.10596 0.32294 0.78873 0.0
N2133 N 0.12506 0.3103 0.77801 0.0
N2134 N 0.09415 0.30629 0.80368 0.0
C2135 C 0.10577 0.28932 0.80049 0.0
C2136 C 0.12252 0.29149 0.78657 0.0
C2137 C 0.52375 0.65118 0.48848 0.0
C2138 C 0.52584 0.63088 0.48155 0.0
C2139 C 0.52187 0.66751 0.47465 0.0
C2140 C 0.52178 0.66414 0.45335 0.0
H2141 H 0.52376 0.65448 0.50475 0.0
H2142 H 0.52021 0.68288 0.48067 0.0
S2143 S 0.52677 0.6139 0.42731 0.0
N2144 N 0.52759 0.60831 0.45198 0.0
N2145 N 0.52423 0.63903 0.42598 0.0
C2146 C 0.52386 0.64393 0.44621 0.0
C2147 C 0.52589 0.62731 0.46029 0.0
C2148 C 0.90125 0.7696 0.73993 0.0
C2149 C 0.88114 0.77287 0.73285 0.0
C2150 C 0.91771 0.76768 0.72624 0.0
C2151 C 0.9147 0.7688 0.70491 0.0
H2152 H 0.90434 0.76875 0.75622 0.0
H2153 H 0.9329 0.7651 0.73241 0.0
S2154 S 0.86505 0.77704 0.67847 0.0
N2155 N 0.85911 0.77681 0.70306 0.0
N2156 N 0.8901 0.77365 0.67737 0.0
C2157 C 0.89467 0.77203 0.69762 0.0
C2158 C 0.87791 0.774 0.71156 0.0
C2159 C 0.041 0.87175 0.53808 0.0
C2160 C 0.02406 0.88274 0.5305 0.0
C2161 C 0.0385 0.85578 0.55226 0.0
C2162 C 0.01896 0.85017 0.5595 0.0
H2163 H 0.05633 0.87536 0.53283 0.0
H2164 H 0.05202 0.84786 0.55772 0.0
S2165 S 0.9696 0.87422 0.5446 0.0
N2166 N 0.98709 0.88722 0.53174 0.0
N2167 N 0.98231 0.85672 0.5577 0.0
C2168 C 1.00188 0.86104 0.55204 0.0
C2169 C 1.00445 0.87739 0.53771 0.0
C2170 C 0.11484 0.7448 0.73739 0.0
C2171 C 0.13479 0.74115 0.73003 0.0
C2172 C 0.09824 0.74699 0.72393 0.0
C2173 C 0.1009 0.74556 0.70259 0.0
H2174 H 0.11199 0.74578 0.75371 0.0
H2175 H 0.08314 0.74963 0.73031 0.0
S2176 S 0.15015 0.7375 0.67541 0.0
N2177 N 0.15637 0.73711 0.69993 0.0
N2178 N 0.12512 0.74109 0.67466 0.0
C2179 C 0.12075 0.74202 0.695 0.0
C2180 C 0.13769 0.73985 0.7087 0.0
C2181 C 0.96696 0.64246 0.54409 0.0
C2182 C 0.9824 0.62799 0.53997 0.0
C2183 C 0.97089 0.65974 0.55624 0.0
C2184 C 0.99032 0.66306 0.56494 0.0
H2185 H 0.95176 0.64049 0.53772 0.0
H2186 H 0.95853 0.67046 0.55905 0.0
S2187 S 0.03597 0.62979 0.55884 0.0
N2188 N 0.01786 0.61812 0.54557 0.0
N2189 N 0.02524 0.65061 0.5684 0.0
C2190 C 1.00589 0.64872 0.56097 0.0
C2191 C 1.00194 0.63121 0.54844 0.0
C2192 C 0.80258 0.87938 0.24022 0.0
C2193 C 0.78129 0.88233 0.24199 0.0
C2194 C 0.81631 0.89579 0.24225 0.0
C2195 C 0.80927 0.91582 0.24595 0.0
H2196 H 0.8087 0.86421 0.23743 0.0
H2197 H 0.83256 0.89281 0.24066 0.0
S2198 S 0.75503 0.93177 0.25184 0.0
N2199 N 0.75382 0.9069 0.24743 0.0
N2200 N 0.77963 0.93763 0.25168 0.0
C2201 C 0.78803 0.91899 0.24779 0.0
C2202 C 0.77406 0.90228 0.24574 0.0
C2203 C 0.79048 0.12076 0.28746 0.0
C2204 C 0.78635 0.13403 0.27099 0.0
C2205 C 0.80402 0.10421 0.28526 0.0
C2206 C 0.814 0.10036 0.26653 0.0
H2207 H 0.78285 0.12293 0.30205 0.0
H2208 H 0.80636 0.0941 0.29822 0.0
S2209 S 0.81011 0.13199 0.21942 0.0
N2210 N 0.79436 0.14312 0.23579 0.0
N2211 N 0.81997 0.11219 0.23169 0.0
C2212 C 0.81043 0.1139 0.25012 0.0
C2213 C 0.79658 0.13067 0.25234 0.0
C2214 C 0.38287 0.9695 0.99737 0.0
C2215 C 0.38624 0.97751 0.97763 0.0
C2216 C 0.36606 0.95673 1.00148 0.0
C2217 C 0.35186 0.95165 0.98606 0.0
H2218 H 0.39352 0.97285 0.00966 0.0
H2219 H 0.3641 0.95087 0.01689 0.0
S2220 S 0.35349 0.96902 0.93194 0.0
N2221 N 0.37368 0.97987 0.94264 0.0
N2222 N 0.34233 0.95561 0.95026 0.0
C2223 C 0.35495 0.95972 0.96631 0.0
C2224 C 0.37208 0.97267 0.96212 0.0
C2225 C 0.23658 0.39873 0.27135 0.0
C2226 C 0.22946 0.37866 0.27474 0.0
C2227 C 0.22293 0.41519 0.26928 0.0
C2228 C 0.20161 0.41224 0.27058 0.0
H2229 H 0.25287 0.4018 0.27048 0.0
H2230 H 0.22913 0.43039 0.26684 0.0
S2231 S 0.175 0.36258 0.27793 0.0
N2232 N 0.1996 0.35666 0.27837 0.0
N2233 N 0.17397 0.38764 0.27463 0.0
C2234 C 0.19426 0.39226 0.27386 0.0
C2235 C 0.20816 0.37548 0.27591 0.0
C2236 C 0.15163 0.02521 0.49137 0.0
C2237 C 0.13133 0.03242 0.49061 0.0
C2238 C 0.16818 0.03879 0.49328 0.0
C2239 C 0.165 0.06004 0.49482 0.0
H2240 H 0.15474 0.00895 0.49029 0.0
H2241 H 0.18357 0.0326 0.49388 0.0
S2242 S 0.11486 0.08671 0.4936 0.0
N2243 N 0.10898 0.06219 0.49151 0.0
N2244 N 0.1401 0.0877 0.49515 0.0
C2245 C 0.1448 0.06745 0.49407 0.0
C2246 C 0.12796 0.05365 0.49192 0.0
C2247 C 0.71995 0.12382 0.71396 0.0
C2248 C 0.72476 0.13787 0.72959 0.0
C2249 C 0.7076 0.10667 0.71785 0.0
C2250 C 0.69955 0.1029 0.7375 0.0
H2251 H 0.72601 0.12596 0.69866 0.0
H2252 H 0.70456 0.09612 0.70541 0.0
S2253 S 0.70624 0.13592 0.78329 0.0
N2254 N 0.71968 0.14744 0.7652 0.0
N2255 N 0.69639 0.11527 0.7725 0.0
C2256 C 0.70402 0.11698 0.7532 0.0
C2257 C 0.71663 0.13443 0.74925 0.0
C2258 C 0.36846 0.03138 0.53248 0.0
C2259 C 0.38818 0.03973 0.53479 0.0
C2260 C 0.35145 0.04396 0.52861 0.0
C2261 C 0.35355 0.06536 0.52679 0.0
H2262 H 0.36609 0.01503 0.53404 0.0
H2263 H 0.33649 0.03688 0.52738 0.0
S2264 S 0.40234 0.09448 0.52952 0.0
N2265 N 0.4091 0.07048 0.53376 0.0
N2266 N 0.37726 0.09411 0.52618 0.0
C2267 C 0.37332 0.07381 0.52859 0.0
C2268 C 0.39059 0.06101 0.53266 0.0
C2269 C 0.64243 0.47425 0.53967 0.0
C2270 C 0.63066 0.48052 0.52271 0.0
C2271 C 0.65865 0.46033 0.53743 0.0
C2272 C 0.66368 0.45204 0.51816 0.0
H2273 H 0.63928 0.48041 0.55476 0.0
H2274 H 0.66727 0.45595 0.55092 0.0
S2275 S 0.6374 0.46321 0.46897 0.0
N2276 N 0.6248 0.47689 0.4861 0.0
N2277 N 0.65565 0.45128 0.48177 0.0
C2278 C 0.65196 0.45809 0.5011 0.0
C2279 C 0.63541 0.4722 0.5034 0.0
C2280 C 0.74045 0.30004 0.37978 0.0
C2281 C 0.7428 0.27879 0.38257 0.0
C2282 C 0.74265 0.31373 0.3962 0.0
C2283 C 0.74715 0.30671 0.41609 0.0
H2284 H 0.73713 0.30618 0.36472 0.0
H2285 H 0.74062 0.32995 0.39334 0.0
S2286 S 0.75465 0.25254 0.43161 0.0
N2287 N 0.74949 0.25135 0.40688 0.0
N2288 N 0.75417 0.2771 0.43758 0.0
C2289 C 0.74951 0.2855 0.41911 0.0
C2290 C 0.74724 0.27156 0.4024 0.0
C2291 C 0.54716 0.04982 0.87301 0.0
C2292 C 0.54048 0.03407 0.88615 0.0
C2293 C 0.55959 0.04564 0.85599 0.0
C2294 C 0.56593 0.02554 0.85144 0.0
H2295 H 0.54257 0.06553 0.87578 0.0
H2296 H 0.56445 0.05831 0.84643 0.0
S2297 S 0.5527 0.97878 0.881 0.0
N2298 N 0.54146 0.99759 0.89362 0.0
N2299 N 0.56424 0.98965 0.86128 0.0
C2300 C 0.55933 0.00963 0.86442 0.0
C2301 C 0.54673 0.0139 0.8818 0.0
C2302 C 0.26904 0.23691 0.40058 0.0
C2303 C 0.27471 0.22982 0.381 0.0
C2304 C 0.26685 0.22342 0.41716 0.0
C2305 C 0.27048 0.20232 0.41488 0.0
H2306 H 0.26638 0.25308 0.40319 0.0
H2307 H 0.26246 0.22955 0.43195 0.0
S2308 S 0.28453 0.17561 0.36681 0.0
N2309 N 0.28294 0.19998 0.3602 0.0
N2310 N 0.27939 0.17478 0.39157 0.0
C2311 C 0.27618 0.19496 0.39548 0.0
C2312 C 0.27818 0.20866 0.37851 0.0
C2313 C 0.47658 0.47326 0.87217 0.0
C2314 C 0.48194 0.48997 0.88468 0.0
C2315 C 0.4628 0.47556 0.85582 0.0
C2316 C 0.4537 0.49463 0.85148 0.0
H2317 H 0.48338 0.45835 0.8748 0.0
H2318 H 0.45919 0.46229 0.84654 0.0
S2319 S 0.46225 0.54308 0.87995 0.0
N2320 N 0.47662 0.5261 0.89198 0.0
N2321 N 0.45108 0.53052 0.86105 0.0
C2322 C 0.45877 0.51141 0.86402 0.0
C2323 C 0.47281 0.50907 0.88063 0.0
C2324 C 0.74042 0.7136 0.13531 0.0
C2325 C 0.74127 0.73492 0.1322 0.0
C2326 C 0.7427 0.69988 0.11892 0.0
C2327 C 0.74573 0.70695 0.09877 0.0
H2328 H 0.73821 0.70746 0.15057 0.0
H2329 H 0.74187 0.68359 0.12202 0.0
S2330 S 0.74901 0.76128 0.08241 0.0
N2331 N 0.74506 0.76244 0.10737 0.0
N2332 N 0.74974 0.73666 0.07667 0.0
C2333 C 0.74658 0.72822 0.09545 0.0
C2334 C 0.74429 0.74218 0.11213 0.0
C2335 C 0.96343 0.02383 0.12664 0.0
C2336 C 0.98468 0.02419 0.13025 0.0
C2337 C 0.94946 0.0216 0.14284 0.0
C2338 C 0.95623 0.01998 0.16325 0.0
H2339 H 0.95759 0.02493 0.11114 0.0
H2340 H 0.93322 0.02126 0.1394 0.0
S2341 S 0.01026 0.02055 0.18086 0.0
N2342 N 0.01181 0.02313 0.15574 0.0
N2343 N 0.98557 0.01889 0.18615 0.0
C2344 C 0.97743 0.02056 0.16706 0.0
C2345 C 0.99164 0.02265 0.15058 0.0
C2346 C 0.29922 0.79227 0.12273 0.0
C2347 C 0.28372 0.78809 0.13712 0.0
C2348 C 0.2955 0.80485 0.10572 0.0
C2349 C 0.27615 0.8138 0.10245 0.0
H2350 H 0.31431 0.78561 0.12455 0.0
H2351 H 0.30785 0.80742 0.09492 0.0
S2352 S 0.23081 0.80879 0.13641 0.0
N2353 N 0.24854 0.79452 0.14746 0.0
N2354 N 0.24158 0.81833 0.11559 0.0
C2355 C 0.26056 0.80988 0.11683 0.0
C2356 C 0.26434 0.79699 0.13412 0.0
C2357 C 0.03095 0.4809 0.14552 0.0
C2358 C 0.03969 0.47834 0.12597 0.0
C2359 C 0.04321 0.4848 0.16275 0.0
C2360 C 0.06463 0.48656 0.16103 0.0
H2361 H 0.01453 0.47958 0.14755 0.0
H2362 H 0.03584 0.48661 0.17751 0.0
S2363 S 0.095 0.4815 0.11325 0.0
N2364 N 0.07103 0.4782 0.10585 0.0
N2365 N 0.09406 0.48537 0.13823 0.0
C2366 C 0.07354 0.4842 0.14155 0.0
C2367 C 0.06108 0.4801 0.12404 0.0
C2368 C 0.39065 0.71362 0.29527 0.0
C2369 C 0.3772 0.72941 0.28934 0.0
C2370 C 0.40773 0.71761 0.30768 0.0
C2371 C 0.41207 0.73755 0.3146 0.0
H2372 H 0.38808 0.69807 0.29008 0.0
H2373 H 0.41777 0.70502 0.31168 0.0
S2374 S 0.38087 0.784 0.30475 0.0
N2375 N 0.36883 0.76558 0.29227 0.0
N2376 N 0.40103 0.77308 0.31545 0.0
C2377 C 0.39867 0.75345 0.30896 0.0
C2378 C 0.38123 0.74938 0.29638 0.0
C2379 C 1.00026 0.38117 0.96669 0.0
C2380 C 0.98022 0.38603 0.97299 0.0
C2381 C 1.0042 0.36396 0.95441 0.0
C2382 C 0.98827 0.35086 0.94809 0.0
H2383 H 0.01299 0.39088 0.97106 0.0
H2384 H 0.01988 0.3608 0.94999 0.0
S2385 S 0.93311 0.35665 0.96066 0.0
N2386 N 0.94432 0.37606 0.97237 0.0
N2387 N 0.95164 0.34409 0.94889 0.0
C2388 C 0.96817 0.35552 0.95435 0.0
C2389 C 0.96417 0.37301 0.96685 0.0
C2390 C 0.62249 0.78844 0.28841 0.0
C2391 C 0.63508 0.77165 0.28349 0.0
C2392 C 0.60604 0.78637 0.3021 0.0
C2393 C 0.60156 0.76744 0.31142 0.0
H2394 H 0.62517 0.80322 0.28135 0.0
H2395 H 0.59653 0.79963 0.30512 0.0
S2396 S 0.6311 0.71928 0.3052 0.0
N2397 N 0.64276 0.73581 0.28999 0.0
N2398 N 0.61191 0.73194 0.31577 0.0
C2399 C 0.6143 0.75064 0.30696 0.0
C2400 C 0.63103 0.75274 0.29299 0.0
C2401 C 0.00907 0.13549 0.97244 0.0
C2402 C 0.02824 0.13018 0.98077 0.0
C2403 C 1.00706 0.15185 0.95866 0.0
C2404 C 0.02412 0.16363 0.95271 0.0
H2405 H 0.99551 0.12682 0.97648 0.0
H2406 H 0.99195 0.15545 0.95282 0.0
S2407 S 0.07775 0.15606 0.97005 0.0
N2408 N 0.0646 0.13823 0.98226 0.0
N2409 N 0.06092 0.16856 0.9559 0.0
C2410 C 0.0434 0.15845 0.96085 0.0
C2411 C 0.04544 0.14181 0.97494 0.0
C2412 C 0.40074 0.27197 0.23892 0.0
C2413 C 0.38062 0.27495 0.23176 0.0
C2414 C 0.41722 0.26984 0.2253 0.0
C2415 C 0.41425 0.27066 0.20396 0.0
H2416 H 0.40382 0.27142 0.25523 0.0
H2417 H 0.43245 0.26771 0.23153 0.0
S2418 S 0.36446 0.27688 0.17728 0.0
N2419 N 0.35856 0.27775 0.20187 0.0
N2420 N 0.38956 0.27387 0.17628 0.0
C2421 C 0.39422 0.27356 0.19657 0.0
C2422 C 0.37742 0.27568 0.21045 0.0
C2423 C 0.54192 0.37075 0.03937 0.0
C2424 C 0.5249 0.38255 0.03334 0.0
C2425 C 0.53984 0.35451 0.05332 0.0
C2426 C 0.52069 0.34951 0.06192 0.0
H2427 H 0.55693 0.37388 0.03301 0.0
H2428 H 0.55337 0.34587 0.05751 0.0
S2429 S 0.4714 0.37588 0.05144 0.0
N2430 N 0.48835 0.38844 0.03749 0.0
N2431 N 0.48434 0.35761 0.06321 0.0
C2432 C 0.50357 0.36127 0.0561 0.0
C2433 C 0.5057 0.37782 0.04193 0.0
C2434 C 0.63728 0.23872 0.21281 0.0
C2435 C 0.63407 0.23834 0.23413 0.0
C2436 C 0.62084 0.24096 0.19912 0.0
C2437 C 0.60056 0.24287 0.20624 0.0
H2438 H 0.65267 0.23764 0.20667 0.0
H2439 H 0.62406 0.24154 0.18284 0.0
S2440 S 0.58378 0.24057 0.26053 0.0
N2441 N 0.60898 0.23861 0.26164 0.0
N2442 N 0.5781 0.24272 0.23597 0.0
C2443 C 0.59712 0.24201 0.22751 0.0
C2444 C 0.61385 0.23977 0.24143 0.0
C2445 C 0.46689 0.14034 0.04606 0.0
C2446 C 0.48271 0.12725 0.03944 0.0
C2447 C 0.47096 0.1573 0.05861 0.0
C2448 C 0.49101 0.16188 0.06511 0.0
H2449 H 0.45122 0.13757 0.04136 0.0
H2450 H 0.45823 0.16678 0.06343 0.0
S2451 S 0.53793 0.13251 0.05202 0.0
N2452 N 0.51922 0.11988 0.04063 0.0
N2453 N 0.52695 0.15215 0.06356 0.0
C2454 C 0.507 0.14898 0.05853 0.0
C2455 C 0.50284 0.13163 0.04583 0.0
C2456 C 0.30489 0.37865 0.74063 0.0
C2457 C 0.28361 0.38186 0.73952 0.0
C2458 C 0.31851 0.39517 0.74263 0.0
C2459 C 0.31135 0.4155 0.74347 0.0
H2460 H 0.31101 0.36323 0.74032 0.0
H2461 H 0.33475 0.39197 0.74388 0.0
S2462 S 0.25715 0.43209 0.73883 0.0
N2463 N 0.25609 0.40684 0.73798 0.0
N2464 N 0.28164 0.4379 0.74139 0.0
C2465 C 0.29012 0.4189 0.74178 0.0
C2466 C 0.27628 0.40208 0.73989 0.0
C2467 C 0.30343 0.63583 0.77559 0.0
C2468 C 0.28217 0.6326 0.77386 0.0
C2469 C 0.31735 0.61957 0.77355 0.0
C2470 C 0.31053 0.59949 0.76968 0.0
H2471 H 0.30938 0.6511 0.7782 0.0
H2472 H 0.3336 0.62278 0.77467 0.0
S2473 S 0.25639 0.58257 0.76598 0.0
N2474 N 0.25494 0.60756 0.76954 0.0
N2475 N 0.28108 0.57707 0.76562 0.0
C2476 C 0.28931 0.59599 0.76838 0.0
C2477 C 0.27515 0.61252 0.77049 0.0
C2478 C 0.88648 0.45684 0.47779 0.0
C2479 C 0.88547 0.47826 0.48003 0.0
C2480 C 0.86941 0.44438 0.48169 0.0
C2481 C 0.85058 0.45279 0.48803 0.0
H2482 H 0.90063 0.44958 0.47306 0.0
H2483 H 0.87092 0.42801 0.47943 0.0
S2484 S 0.83987 0.508 0.49652 0.0
N2485 N 0.86395 0.50739 0.4888 0.0
N2486 N 0.83218 0.48392 0.49701 0.0
C2487 C 0.84941 0.47418 0.49056 0.0
C2488 C 0.86676 0.4869 0.48641 0.0
C2489 C 0.72596 0.89112 0.79079 0.0
C2490 C 0.73123 0.87879 0.77391 0.0
C2491 C 0.71244 0.90772 0.78866 0.0
C2492 C 0.7037 0.9126 0.76956 0.0
H2493 H 0.73268 0.8882 0.80569 0.0
H2494 H 0.70916 0.91705 0.80198 0.0
S2495 S 0.71073 0.88374 0.72112 0.0
N2496 N 0.7254 0.87167 0.73782 0.0
N2497 N 0.70008 0.90285 0.73381 0.0
C2498 C 0.70841 0.90006 0.75269 0.0
C2499 C 0.72214 0.88317 0.75486 0.0
C2500 C 0.65205 0.52502 0.99189 0.0
C2501 C 0.63164 0.53174 0.99026 0.0
C2502 C 0.66823 0.53902 0.99402 0.0
C2503 C 0.66455 0.56023 0.99488 0.0
H2504 H 0.65557 0.50881 0.99135 0.0
H2505 H 0.68371 0.53318 0.99531 0.0
S2506 S 0.61389 0.5857 0.99128 0.0
N2507 N 0.60863 0.561 0.98967 0.0
N2508 N 0.63903 0.58731 0.99363 0.0
C2509 C 0.64422 0.56715 0.99325 0.0
C2510 C 0.62777 0.55292 0.99091 0.0
C2511 C 0.20349 0.6373 0.23191 0.0
C2512 C 0.22493 0.63552 0.23059 0.0
C2513 C 0.1911 0.62014 0.23565 0.0
C2514 C 0.19967 0.60051 0.23817 0.0
H2515 H 0.19624 0.65213 0.2302 0.0
H2516 H 0.17468 0.62229 0.23675 0.0
S2517 S 0.2549 0.58742 0.23452 0.0
N2518 N 0.25415 0.61247 0.23116 0.0
N2519 N 0.2309 0.58019 0.23802 0.0
C2520 C 0.22109 0.5985 0.23668 0.0
C2521 C 0.2337 0.61599 0.23293 0.0
C2522 C 0.88741 0.55885 0.03624 0.0
C2523 C 0.88676 0.53754 0.03295 0.0
C2524 C 0.87027 0.57126 0.03255 0.0
C2525 C 0.85172 0.56294 0.02532 0.0
H2526 H 0.90135 0.56606 0.04164 0.0
H2527 H 0.8715 0.5875 0.03568 0.0
S2528 S 0.84197 0.50807 0.01387 0.0
N2529 N 0.86579 0.50861 0.02231 0.0
N2530 N 0.83401 0.53205 0.01428 0.0
C2531 C 0.85092 0.54168 0.02169 0.0
C2532 C 0.86831 0.52899 0.02571 0.0
C2533 C 0.13049 0.95955 0.02468 0.0
C2534 C 0.13378 0.98084 0.02422 0.0
C2535 C 0.14689 0.94575 0.02287 0.0
C2536 C 0.16718 0.95276 0.02083 0.0
H2537 H 0.1151 0.95351 0.02615 0.0
H2538 H 0.14368 0.92947 0.02323 0.0
S2539 S 0.18396 1.00704 0.01914 0.0
N2540 N 0.15885 0.00828 0.02192 0.0
N2541 N 0.18961 0.9824 0.01834 0.0
C2542 C 0.17066 0.97402 0.02051 0.0
C2543 C 0.15398 0.98804 0.02222 0.0
loop_
_geom_bond_atom_site_label_1
_geom_bond_atom_site_label_2
_geom_bond_distance
_geom_bond_site_symmetry_2
_ccdc_geom_bond_type
C0 C1 1.391 . S
C0 C4 1.391 . S
C0 H42 0.948 . S
C1 C0 1.391 . S
C1 C2 1.418 . S
C2 C1 1.418 . S
C2 H58 0.918 1_455 S
C2 C59 1.395 1_556 S
C3 C4 1.391 1_554 S
C3 C7 1.397 . S
C3 C59 1.419 . S
C4 C0 1.391 . S
C4 C3 1.391 1_556 S
C4 C5 1.399 . S
C5 C4 1.399 . S
C5 C8 1.396 1_556 S
C5 C17 1.453 . S
C5 C18 1.684 . S
H6 C30 0.948 . S
C7 C3 1.397 . S
C7 C8 1.394 . S
C7 C26 1.723 . S
C8 C5 1.396 1_554 S
C8 C7 1.394 . S
C8 C38 1.723 . S
H9 C32 0.918 1_556 S
H10 C33 0.948 1_556 S
H11 C39 0.982 1_545 S
H12 C40 0.979 . S
H13 C40 0.980 . S
H14 C40 0.983 . S
H15 C39 0.979 . S
H16 C39 0.977 . S
C17 C5 1.453 . S
C17 H46 0.982 1_556 S
C17 H47 0.979 . S
C17 H48 0.977 . S
C18 C5 1.684 . S
C18 H43 0.979 . S
C18 H44 0.980 . S
C18 H45 0.983 . S
C19 C20 1.391 . S
C19 C24 1.391 . S
C19 H49 0.948 . S
C20 C19 1.391 . S
C20 C21 1.418 . S
C21 C20 1.418 . S
C21 C22 1.395 1_655 S
C21 H50 0.918 1_545 S
C22 C21 1.395 1_455 S
C22 C23 1.419 . S
C22 H51 0.948 1_545 S
C23 C22 1.419 . S
C23 C24 1.391 1_455 S
C23 C27 1.397 . S
C24 C19 1.391 . S
C24 C23 1.391 1_655 S
C24 C25 1.399 . S
C25 C24 1.399 . S
C25 C26 1.396 1_655 S
C25 C28 1.453 . S
C25 C29 1.684 . S
C26 C7 1.723 . S
C26 C25 1.396 1_455 S
C26 C27 1.394 . S
C27 C23 1.397 . S
C27 C26 1.394 . S
C27 C37 1.723 . S
C28 C25 1.453 . S
C28 H52 0.982 1_655 S
C28 H53 0.979 . S
C28 H54 0.977 . S
C29 C25 1.684 . S
C29 H55 0.979 . S
C29 H56 0.980 . S
C29 H57 0.983 . S
C30 H6 0.948 . S
C30 C31 1.391 . S
C30 C35 1.391 . S
C31 C30 1.391 . S
C31 C32 1.418 . S
C32 H9 0.918 1_554 S
C32 C31 1.418 . S
C32 C33 1.395 1_565 S
C33 H10 0.948 1_554 S
C33 C32 1.395 1_545 S
C33 C34 1.419 . S
C34 C33 1.419 . S
C34 C35 1.391 1_545 S
C34 C38 1.397 . S
C35 C30 1.391 . S
C35 C34 1.391 1_565 S
C35 C36 1.399 . S
C36 C35 1.399 . S
C36 C37 1.396 1_565 S
C36 C39 1.453 . S
C36 C40 1.684 . S
C37 C27 1.723 . S
C37 C36 1.396 1_545 S
C37 C38 1.394 . S
C38 C8 1.723 . S
C38 C34 1.397 . S
C38 C37 1.394 . S
C39 H11 0.982 1_565 S
C39 H15 0.979 . S
C39 H16 0.977 . S
C39 C36 1.453 . S
C40 H12 0.979 . S
C40 H13 0.980 . S
C40 H14 0.983 . S
C40 C36 1.684 . S
H41 C59 0.948 1_655 S
H42 C0 0.948 . S
H43 C18 0.979 . S
H44 C18 0.980 . S
H45 C18 0.983 . S
H46 C17 0.982 1_554 S
H47 C17 0.979 . S
H48 C17 0.977 . S
H49 C19 0.948 . S
H50 C21 0.918 1_565 S
H51 C22 0.948 1_565 S
H52 C28 0.982 1_455 S
H53 C28 0.979 . S
H54 C28 0.977 . S
H55 C29 0.979 . S
H56 C29 0.980 . S
H57 C29 0.983 . S
H58 C2 0.918 1_655 S
C59 C2 1.395 1_554 S
C59 C3 1.419 . S
C59 H41 0.948 1_455 S
C60 C61 1.391 . S
C60 C64 1.391 . S
C60 H102 0.948 . S
C61 C60 1.391 . S
C61 C62 1.391 . S
C62 C61 1.391 . S
C62 H118 0.947 . S
C62 C119 1.392 . S
C63 C64 1.391 . S
C63 C67 1.397 . S
C63 C119 1.419 . S
C64 C60 1.391 . S
C64 C63 1.391 . S
C64 C65 1.399 . S
C65 C64 1.399 . S
C65 C68 1.396 . S
C65 C77 1.453 . S
C65 C78 1.684 . S
H66 C90 0.948 . S
C67 C63 1.397 . S
C67 C68 1.394 . S
C67 C86 1.723 . S
C68 C65 1.396 . S
C68 C67 1.394 . S
C68 C98 1.723 . S
H69 C92 0.947 . S
H70 C93 0.948 . S
H71 C99 0.982 . S
H72 C100 0.979 . S
H73 C100 0.980 . S
H74 C100 0.983 . S
H75 C99 0.979 . S
H76 C99 0.977 . S
C77 C65 1.453 . S
C77 H106 0.982 . S
C77 H107 0.979 . S
C77 H108 0.977 . S
C78 C65 1.684 . S
C78 H103 0.979 . S
C78 H104 0.980 . S
C78 H105 0.983 . S
C79 C80 1.391 . S
C79 C84 1.391 . S
C79 H109 0.948 . S
C80 C79 1.391 . S
C80 C81 1.391 . S
C81 C80 1.391 . S
C81 C82 1.392 . S
C81 H110 0.947 . S
C82 C81 1.392 . S
C82 C83 1.419 . S
C82 H111 0.948 . S
C83 C82 1.419 . S
C83 C84 1.391 . S
C83 C87 1.397 . S
C84 C79 1.391 . S
C84 C83 1.391 . S
C84 C85 1.399 . S
C85 C84 1.399 . S
C85 C86 1.396 . S
C85 C88 1.453 . S
C85 C89 1.684 . S
C86 C67 1.723 . S
C86 C85 1.396 . S
C86 C87 1.394 . S
C87 C83 1.397 . S
C87 C86 1.394 . S
C87 C97 1.723 . S
C88 C85 1.453 . S
C88 H112 0.982 . S
C88 H113 0.979 . S
C88 H114 0.977 . S
C89 C85 1.684 . S
C89 H115 0.979 . S
C89 H116 0.980 . S
C89 H117 0.983 . S
C90 H66 0.948 . S
C90 C91 1.391 . S
C90 C95 1.391 . S
C91 C90 1.391 . S
C91 C92 1.391 . S
C92 H69 0.947 . S
C92 C91 1.391 . S
C92 C93 1.392 . S
C93 H70 0.948 . S
C93 C92 1.392 . S
C93 C94 1.419 . S
C94 C93 1.419 . S
C94 C95 1.391 . S
C94 C98 1.397 . S
C95 C90 1.391 . S
C95 C94 1.391 . S
C95 C96 1.399 . S
C96 C95 1.399 . S
C96 C97 1.396 . S
C96 C99 1.453 . S
C96 C100 1.684 . S
C97 C87 1.723 . S
C97 C96 1.396 . S
C97 C98 1.394 . S
C98 C68 1.723 . S
C98 C94 1.397 . S
C98 C97 1.394 . S
C99 H71 0.982 . S
C99 H75 0.979 . S
C99 H76 0.977 . S
C99 C96 1.453 . S
C100 H72 0.979 . S
C100 H73 0.980 . S
C100 H74 0.983 . S
C100 C96 1.684 . S
H101 C119 0.948 . S
H102 C60 0.948 . S
H103 C78 0.979 . S
H104 C78 0.980 . S
H105 C78 0.983 . S
H106 C77 0.982 . S
H107 C77 0.979 . S
H108 C77 0.977 . S
H109 C79 0.948 . S
H110 C81 0.947 . S
H111 C82 0.948 . S
H112 C88 0.982 . S
H113 C88 0.979 . S
H114 C88 0.977 . S
H115 C89 0.979 . S
H116 C89 0.980 . S
H117 C89 0.983 . S
H118 C62 0.947 . S
C119 C62 1.392 . S
C119 C63 1.419 . S
C119 H101 0.948 . S
C120 C121 1.391 . S
C120 C124 1.391 1_556 S
C120 H162 0.948 1_655 S
C121 C120 1.391 . S
C121 C122 1.391 . S
C122 C121 1.391 . S
C122 H178 0.947 . S
C122 C179 1.392 . S
C123 C124 1.391 . S
C123 C127 1.397 . S
C123 C179 1.419 1_554 S
C124 C120 1.391 1_554 S
C124 C123 1.391 . S
C124 C125 1.399 . S
C125 C124 1.399 . S
C125 C128 1.396 . S
C125 C137 1.458 . S
C125 C138 1.684 1_655 S
H126 C150 0.948 . S
C127 C123 1.397 . S
C127 C128 1.394 . S
C127 C146 1.723 . S
C128 C125 1.396 . S
C128 C127 1.394 . S
C128 C158 1.723 . S
H129 C152 0.947 . S
H130 C153 0.948 . S
H131 C159 0.982 . S
H132 C160 0.979 . S
H133 C160 0.980 . S
H134 C160 0.983 . S
H135 C159 0.979 . S
H136 C159 0.977 . S
C137 C125 1.458 . S
C137 H166 1.019 . S
C137 H167 0.957 1_655 S
C137 H168 0.960 1_655 S
C138 C125 1.684 1_455 S
C138 H163 0.979 . S
C138 H164 0.980 . S
C138 H165 0.983 . S
C139 C140 1.391 . S
C139 C144 1.391 . S
C139 H169 0.948 1_554 S
C140 C139 1.391 . S
C140 C141 1.391 . S
C141 C140 1.391 . S
C141 C142 1.392 . S
C141 H170 0.947 . S
C142 C141 1.392 . S
C142 C143 1.419 . S
C142 H171 0.948 . S
C143 C142 1.419 . S
C143 C144 1.391 . S
C143 C147 1.397 . S
C144 C139 1.391 . S
C144 C143 1.391 . S
C144 C145 1.399 . S
C145 C144 1.399 . S
C145 C146 1.396 . S
C145 C148 1.458 . S
C145 C149 1.684 1_554 S
C146 C127 1.723 . S
C146 C145 1.396 . S
C146 C147 1.394 . S
C147 C143 1.397 . S
C147 C146 1.394 . S
C147 C157 1.723 . S
C148 C145 1.458 . S
C148 H172 1.019 . S
C148 H173 0.956 1_554 S
C148 H174 0.959 1_554 S
C149 C145 1.684 1_556 S
C149 H175 0.979 . S
C149 H176 0.980 . S
C149 H177 0.983 . S
C150 H126 0.948 . S
C150 C151 1.391 . S
C150 C155 1.391 1_455 S
C151 C150 1.391 . S
C151 C152 1.391 . S
C152 H129 0.947 . S
C152 C151 1.391 . S
C152 C153 1.392 . S
C153 H130 0.948 . S
C153 C152 1.392 . S
C153 C154 1.419 1_455 S
C154 C153 1.419 1_655 S
C154 C155 1.391 . S
C154 C158 1.397 . S
C155 C150 1.391 1_655 S
C155 C154 1.391 . S
C155 C156 1.399 . S
C156 C155 1.399 . S
C156 C157 1.396 . S
C156 C159 1.453 . S
C156 C160 1.684 . S
C157 C147 1.723 . S
C157 C156 1.396 . S
C157 C158 1.394 . S
C158 C128 1.723 . S
C158 C154 1.397 . S
C158 C157 1.394 . S
C159 H131 0.982 . S
C159 H135 0.979 . S
C159 H136 0.977 . S
C159 C156 1.453 . S
C160 H132 0.979 . S
C160 H133 0.980 . S
C160 H134 0.983 . S
C160 C156 1.684 . S
H161 C179 0.948 . S
H162 C120 0.948 1_455 S
H163 C138 0.979 . S
H164 C138 0.980 . S
H165 C138 0.983 . S
H166 C137 1.019 . S
H167 C137 0.957 1_455 S
H168 C137 0.960 1_455 S
H169 C139 0.948 1_556 S
H170 C141 0.947 . S
H171 C142 0.948 . S
H172 C148 1.019 . S
H173 C148 0.956 1_556 S
H174 C148 0.959 1_556 S
H175 C149 0.979 . S
H176 C149 0.980 . S
H177 C149 0.983 . S
H178 C122 0.947 . S
C179 C122 1.392 . S
C179 C123 1.419 1_556 S
C179 H161 0.948 . S
C180 C181 1.391 . S
C180 C184 1.391 . S
C180 H222 0.948 . S
C181 C180 1.391 . S
C181 C182 1.391 . S
C182 C181 1.391 . S
C182 H238 0.947 . S
C182 C239 1.392 . S
C183 C184 1.391 . S
C183 C187 1.397 . S
C183 C239 1.419 . S
C184 C180 1.391 . S
C184 C183 1.391 . S
C184 C185 1.399 . S
C185 C184 1.399 . S
C185 C188 1.396 . S
C185 C197 1.453 . S
C185 C198 1.684 . S
H186 C210 0.948 . S
C187 C183 1.397 . S
C187 C188 1.394 . S
C187 C206 1.723 . S
C188 C185 1.396 . S
C188 C187 1.394 . S
C188 C218 1.723 . S
H189 C212 0.947 . S
H190 C213 0.948 . S
H191 C219 0.982 . S
H192 C220 0.979 . S
H193 C220 0.980 . S
H194 C220 0.983 . S
H195 C219 0.979 . S
H196 C219 0.977 . S
C197 C185 1.453 . S
C197 H226 0.982 . S
C197 H227 0.979 . S
C197 H228 0.977 . S
C198 C185 1.684 . S
C198 H223 0.979 . S
C198 H224 0.980 . S
C198 H225 0.983 . S
C199 C200 1.391 . S
C199 C204 1.391 . S
C199 H229 0.948 . S
C200 C199 1.391 . S
C200 C201 1.391 . S
C201 C200 1.391 . S
C201 C202 1.392 . S
C201 H230 0.947 . S
C202 C201 1.392 . S
C202 C203 1.419 . S
C202 H231 0.948 . S
C203 C202 1.419 . S
C203 C204 1.391 . S
C203 C207 1.397 . S
C204 C199 1.391 . S
C204 C203 1.391 . S
C204 C205 1.399 . S
C205 C204 1.399 . S
C205 C206 1.396 . S
C205 C208 1.453 . S
C205 C209 1.684 . S
C206 C187 1.723 . S
C206 C205 1.396 . S
C206 C207 1.394 . S
C207 C203 1.397 . S
C207 C206 1.394 . S
C207 C217 1.723 . S
C208 C205 1.453 . S
C208 H232 0.982 . S
C208 H233 0.979 . S
C208 H234 0.977 . S
C209 C205 1.684 . S
C209 H235 0.979 . S
C209 H236 0.980 . S
C209 H237 0.983 . S
C210 H186 0.948 . S
C210 C211 1.391 . S
C210 C215 1.391 . S
C211 C210 1.391 . S
C211 C212 1.391 . S
C212 H189 0.947 . S
C212 C211 1.391 . S
C212 C213 1.392 . S
C213 H190 0.948 . S
C213 C212 1.392 . S
C213 C214 1.419 . S
C214 C213 1.419 . S
C214 C215 1.391 . S
C214 C218 1.397 . S
C215 C210 1.391 . S
C215 C214 1.391 . S
C215 C216 1.399 . S
C216 C215 1.399 . S
C216 C217 1.396 . S
C216 C219 1.453 . S
C216 C220 1.684 . S
C217 C207 1.723 . S
C217 C216 1.396 . S
C217 C218 1.394 . S
C218 C188 1.723 . S
C218 C214 1.397 . S
C218 C217 1.394 . S
C219 H191 0.982 . S
C219 H195 0.979 . S
C219 H196 0.977 . S
C219 C216 1.453 . S
C220 H192 0.979 . S
C220 H193 0.980 . S
C220 H194 0.983 . S
C220 C216 1.684 . S
H221 C239 0.948 . S
H222 C180 0.948 . S
H223 C198 0.979 . S
H224 C198 0.980 . S
H225 C198 0.983 . S
H226 C197 0.982 . S
H227 C197 0.979 . S
H228 C197 0.977 . S
H229 C199 0.948 . S
H230 C201 0.947 . S
H231 C202 0.948 . S
H232 C208 0.982 . S
H233 C208 0.979 . S
H234 C208 0.977 . S
H235 C209 0.979 . S
H236 C209 0.980 . S
H237 C209 0.983 . S
H238 C182 0.947 . S
C239 C182 1.392 . S
C239 C183 1.419 . S
C239 H221 0.948 . S
C240 C241 1.391 . S
C240 C244 1.391 . S
C240 H282 0.948 . S
C241 C240 1.391 . S
C241 C242 1.391 . S
C242 C241 1.391 . S
C242 H298 0.947 1_455 S
C242 C299 1.392 . S
C243 C244 1.391 . S
C243 C247 1.397 . S
C243 C299 1.419 . S
C244 C240 1.391 . S
C244 C243 1.391 . S
C244 C245 1.399 . S
C245 C244 1.399 . S
C245 C248 1.396 . S
C245 C257 1.453 . S
C245 C258 1.684 . S
H246 C270 0.948 . S
C247 C243 1.397 . S
C247 C248 1.394 . S
C247 C266 1.723 . S
C248 C245 1.396 . S
C248 C247 1.394 . S
C248 C278 1.723 . S
H249 C272 0.953 . S
H250 C273 0.948 . S
H251 C279 0.982 . S
H252 C280 0.979 1_565 S
H253 C280 0.980 . S
H254 C280 0.983 . S
H255 C279 0.979 . S
H256 C279 0.977 . S
C257 C245 1.453 . S
C257 H286 0.982 . S
C257 H287 0.979 . S
C257 H288 0.977 . S
C258 C245 1.684 . S
C258 H283 0.979 . S
C258 H284 0.980 . S
C258 H285 0.983 . S
C259 C260 1.391 . S
C259 C264 1.391 . S
C259 H289 0.948 . S
C260 C259 1.391 . S
C260 C261 1.391 . S
C261 C260 1.391 . S
C261 C262 1.392 1_655 S
C261 H290 0.953 1_565 S
C262 C261 1.392 1_455 S
C262 C263 1.419 . S
C262 H291 0.948 1_565 S
C263 C262 1.419 . S
C263 C264 1.391 1_455 S
C263 C267 1.397 . S
C264 C259 1.391 . S
C264 C263 1.391 1_655 S
C264 C265 1.399 . S
C265 C264 1.399 . S
C265 C266 1.396 1_655 S
C265 C268 1.453 . S
C265 C269 1.684 . S
C266 C247 1.723 . S
C266 C265 1.396 1_455 S
C266 C267 1.394 . S
C267 C263 1.397 . S
C267 C266 1.394 . S
C267 C277 1.723 . S
C268 C265 1.453 . S
C268 H292 0.982 . S
C268 H293 0.979 . S
C268 H294 0.977 . S
C269 C265 1.684 . S
C269 H295 0.979 1_655 S
C269 H296 0.980 . S
C269 H297 0.983 . S
C270 H246 0.948 . S
C270 C271 1.391 . S
C270 C275 1.391 . S
C271 C270 1.391 . S
C271 C272 1.391 . S
C272 H249 0.953 . S
C272 C271 1.391 . S
C272 C273 1.392 1_545 S
C273 H250 0.948 . S
C273 C272 1.392 1_565 S
C273 C274 1.419 . S
C274 C273 1.419 . S
C274 C275 1.391 1_565 S
C274 C278 1.397 . S
C275 C270 1.391 . S
C275 C274 1.391 1_545 S
C275 C276 1.399 . S
C276 C275 1.399 . S
C276 C277 1.396 1_545 S
C276 C279 1.453 . S
C276 C280 1.684 . S
C277 C267 1.723 . S
C277 C276 1.396 1_565 S
C277 C278 1.394 . S
C278 C248 1.723 . S
C278 C274 1.397 . S
C278 C277 1.394 . S
C279 H251 0.982 . S
C279 H255 0.979 . S
C279 H256 0.977 . S
C279 C276 1.453 . S
C280 H252 0.979 1_545 S
C280 H253 0.980 . S
C280 H254 0.983 . S
C280 C276 1.684 . S
H281 C299 0.948 1_655 S
H282 C240 0.948 . S
H283 C258 0.979 . S
H284 C258 0.980 . S
H285 C258 0.983 . S
H286 C257 0.982 . S
H287 C257 0.979 . S
H288 C257 0.977 . S
H289 C259 0.948 . S
H290 C261 0.953 1_545 S
H291 C262 0.948 1_545 S
H292 C268 0.982 . S
H293 C268 0.979 . S
H294 C268 0.977 . S
H295 C269 0.979 1_455 S
H296 C269 0.980 . S
H297 C269 0.983 . S
H298 C242 0.947 1_655 S
C299 C242 1.392 . S
C299 C243 1.419 . S
C299 H281 0.948 1_455 S
C300 C301 1.391 . S
C300 C304 1.391 . S
C300 H342 0.948 . S
C301 C300 1.391 . S
C301 C302 1.391 . S
C302 C301 1.391 . S
C302 H358 0.947 . S
C302 C359 1.392 . S
C303 C304 1.391 . S
C303 C307 1.397 . S
C303 C359 1.419 . S
C304 C300 1.391 . S
C304 C303 1.391 . S
C304 C305 1.399 . S
C305 C304 1.399 . S
C305 C308 1.396 . S
C305 C317 1.453 . S
C305 C318 1.684 . S
H306 C330 0.948 . S
C307 C303 1.397 . S
C307 C308 1.394 . S
C307 C326 1.723 . S
C308 C305 1.396 . S
C308 C307 1.394 . S
C308 C338 1.723 . S
H309 C332 0.947 . S
H310 C333 0.948 . S
H311 C339 0.982 . S
H312 C340 0.979 . S
H313 C340 0.980 . S
H314 C340 0.983 . S
H315 C339 0.979 . S
H316 C339 0.977 . S
C317 C305 1.453 . S
C317 H346 0.982 . S
C317 H347 0.979 . S
C317 H348 0.977 . S
C318 C305 1.684 . S
C318 H343 0.979 . S
C318 H344 0.980 . S
C318 H345 0.983 . S
C319 C320 1.391 . S
C319 C324 1.391 . S
C319 H349 0.948 . S
C320 C319 1.391 . S
C320 C321 1.391 . S
C321 C320 1.391 . S
C321 C322 1.392 . S
C321 H350 0.947 . S
C322 C321 1.392 . S
C322 C323 1.419 . S
C322 H351 0.948 . S
C323 C322 1.419 . S
C323 C324 1.391 . S
C323 C327 1.397 . S
C324 C319 1.391 . S
C324 C323 1.391 . S
C324 C325 1.399 . S
C325 C324 1.399 . S
C325 C326 1.396 . S
C325 C328 1.453 . S
C325 C329 1.684 . S
C326 C307 1.723 . S
C326 C325 1.396 . S
C326 C327 1.394 . S
C327 C323 1.397 . S
C327 C326 1.394 . S
C327 C337 1.723 . S
C328 C325 1.453 . S
C328 H352 0.982 . S
C328 H353 0.979 . S
C328 H354 0.977 . S
C329 C325 1.684 . S
C329 H355 0.979 . S
C329 H356 0.980 . S
C329 H357 0.983 . S
C330 H306 0.948 . S
C330 C331 1.391 . S
C330 C335 1.391 . S
C331 C330 1.391 . S
C331 C332 1.391 . S
C332 H309 0.947 . S
C332 C331 1.391 . S
C332 C333 1.392 . S
C333 H310 0.948 . S
C333 C332 1.392 . S
C333 C334 1.419 . S
C334 C333 1.419 . S
C334 C335 1.391 . S
C334 C338 1.397 . S
C335 C330 1.391 . S
C335 C334 1.391 . S
C335 C336 1.399 . S
C336 C335 1.399 . S
C336 C337 1.396 . S
C336 C339 1.453 . S
C336 C340 1.684 . S
C337 C327 1.723 . S
C337 C336 1.396 . S
C337 C338 1.394 . S
C338 C308 1.723 . S
C338 C334 1.397 . S
C338 C337 1.394 . S
C339 H311 0.982 . S
C339 H315 0.979 . S
C339 H316 0.977 . S
C339 C336 1.453 . S
C340 H312 0.979 . S
C340 H313 0.980 . S
C340 H314 0.983 . S
C340 C336 1.684 . S
H341 C359 0.948 . S
H342 C300 0.948 . S
H343 C318 0.979 . S
H344 C318 0.980 . S
H345 C318 0.983 . S
H346 C317 0.982 . S
H347 C317 0.979 . S
H348 C317 0.977 . S
H349 C319 0.948 . S
H350 C321 0.947 . S
H351 C322 0.948 . S
H352 C328 0.982 . S
H353 C328 0.979 . S
H354 C328 0.977 . S
H355 C329 0.979 . S
H356 C329 0.980 . S
H357 C329 0.983 . S
H358 C302 0.947 . S
C359 C302 1.392 . S
C359 C303 1.419 . S
C359 H341 0.948 . S
C360 C361 1.391 . S
C360 C364 1.391 . S
C360 H402 0.948 . S
C361 C360 1.391 . S
C361 C362 1.391 . S
C362 C361 1.391 . S
C362 H418 0.947 . S
C362 C419 1.392 . S
C363 C364 1.391 . S
C363 C367 1.397 . S
C363 C419 1.419 . S
C364 C360 1.391 . S
C364 C363 1.391 . S
C364 C365 1.399 . S
C365 C364 1.399 . S
C365 C368 1.396 . S
C365 C377 1.453 . S
C365 C378 1.684 . S
H366 C390 0.948 1_455 S
C367 C363 1.397 . S
C367 C368 1.394 . S
C367 C386 1.723 . S
C368 C365 1.396 . S
C368 C367 1.394 . S
C368 C398 1.723 . S
H369 C392 0.947 . S
H370 C393 0.948 . S
H371 C399 1.019 . S
H372 C400 0.979 . S
H373 C400 0.980 . S
H374 C400 0.983 . S
H375 C399 0.957 1_455 S
H376 C399 0.960 1_455 S
C377 C365 1.453 . S
C377 H406 0.982 . S
C377 H407 0.979 . S
C377 H408 0.977 . S
C378 C365 1.684 . S
C378 H403 0.979 . S
C378 H404 0.980 . S
C378 H405 0.983 . S
C379 C380 1.391 . S
C379 C384 1.391 1_455 S
C379 H409 0.948 . S
C380 C379 1.391 . S
C380 C381 1.391 . S
C381 C380 1.391 . S
C381 C382 1.392 . S
C381 H410 0.947 . S
C382 C381 1.392 . S
C382 C383 1.419 1_455 S
C382 H411 0.948 . S
C383 C382 1.419 1_655 S
C383 C384 1.391 . S
C383 C387 1.397 . S
C384 C379 1.391 1_655 S
C384 C383 1.391 . S
C384 C385 1.399 . S
C385 C384 1.399 . S
C385 C386 1.396 . S
C385 C388 1.453 . S
C385 C389 1.684 . S
C386 C367 1.723 . S
C386 C385 1.396 . S
C386 C387 1.394 . S
C387 C383 1.397 . S
C387 C386 1.394 . S
C387 C397 1.723 . S
C388 C385 1.453 . S
C388 H412 0.982 . S
C388 H413 0.979 . S
C388 H414 0.977 . S
C389 C385 1.684 . S
C389 H415 0.979 . S
C389 H416 0.980 . S
C389 H417 0.983 . S
C390 H366 0.948 1_655 S
C390 C391 1.391 . S
C390 C395 1.391 . S
C391 C390 1.391 . S
C391 C392 1.391 . S
C392 H369 0.947 . S
C392 C391 1.391 . S
C392 C393 1.392 . S
C393 H370 0.948 . S
C393 C392 1.392 . S
C393 C394 1.419 . S
C394 C393 1.419 . S
C394 C395 1.391 . S
C394 C398 1.397 . S
C395 C390 1.391 . S
C395 C394 1.391 . S
C395 C396 1.399 . S
C396 C395 1.399 . S
C396 C397 1.396 . S
C396 C399 1.458 . S
C396 C400 1.684 1_655 S
C397 C387 1.723 . S
C397 C396 1.396 . S
C397 C398 1.394 . S
C398 C368 1.723 . S
C398 C394 1.397 . S
C398 C397 1.394 . S
C399 H371 1.019 . S
C399 H375 0.957 1_655 S
C399 H376 0.960 1_655 S
C399 C396 1.458 . S
C400 H372 0.979 . S
C400 H373 0.980 . S
C400 H374 0.983 . S
C400 C396 1.684 1_455 S
H401 C419 0.948 . S
H402 C360 0.948 . S
H403 C378 0.979 . S
H404 C378 0.980 . S
H405 C378 0.983 . S
H406 C377 0.982 . S
H407 C377 0.979 . S
H408 C377 0.977 . S
H409 C379 0.948 . S
H410 C381 0.947 . S
H411 C382 0.948 . S
H412 C388 0.982 . S
H413 C388 0.979 . S
H414 C388 0.977 . S
H415 C389 0.979 . S
H416 C389 0.980 . S
H417 C389 0.983 . S
H418 C362 0.947 . S
C419 C362 1.392 . S
C419 C363 1.419 . S
C419 H401 0.948 . S
C420 C421 1.391 . S
C420 C424 1.391 . S
C420 H462 0.948 . S
C421 C420 1.391 . S
C421 C422 1.391 . S
C422 C421 1.391 . S
C422 H478 0.947 . S
C422 C479 1.392 . S
C423 C424 1.391 . S
C423 C427 1.397 . S
C423 C479 1.419 . S
C424 C420 1.391 . S
C424 C423 1.391 . S
C424 C425 1.399 . S
C425 C424 1.399 . S
C425 C428 1.396 . S
C425 C437 1.453 . S
C425 C438 1.684 . S
H426 C450 0.948 . S
C427 C423 1.397 . S
C427 C428 1.394 . S
C427 C446 1.723 . S
C428 C425 1.396 . S
C428 C427 1.394 . S
C428 C458 1.723 . S
H429 C452 0.947 . S
H430 C453 0.948 . S
H431 C459 0.982 . S
H432 C460 0.979 . S
H433 C460 0.980 . S
H434 C460 0.983 . S
H435 C459 0.979 . S
H436 C459 0.977 . S
C437 C425 1.453 . S
C437 H466 0.982 . S
C437 H467 0.979 . S
C437 H468 0.977 . S
C438 C425 1.684 . S
C438 H463 0.979 . S
C438 H464 0.980 . S
C438 H465 0.983 . S
C439 C440 1.391 . S
C439 C444 1.391 . S
C439 H469 0.948 . S
C440 C439 1.391 . S
C440 C441 1.391 . S
C441 C440 1.391 . S
C441 C442 1.392 . S
C441 H470 0.947 . S
C442 C441 1.392 . S
C442 C443 1.419 . S
C442 H471 0.948 . S
C443 C442 1.419 . S
C443 C444 1.391 . S
C443 C447 1.397 . S
C444 C439 1.391 . S
C444 C443 1.391 . S
C444 C445 1.399 . S
C445 C444 1.399 . S
C445 C446 1.396 . S
C445 C448 1.453 . S
C445 C449 1.684 . S
C446 C427 1.723 . S
C446 C445 1.396 . S
C446 C447 1.394 . S
C447 C443 1.397 . S
C447 C446 1.394 . S
C447 C457 1.723 . S
C448 C445 1.453 . S
C448 H472 0.982 . S
C448 H473 0.979 . S
C448 H474 0.977 . S
C449 C445 1.684 . S
C449 H475 0.979 . S
C449 H476 0.980 . S
C449 H477 0.983 . S
C450 H426 0.948 . S
C450 C451 1.391 . S
C450 C455 1.391 . S
C451 C450 1.391 . S
C451 C452 1.391 . S
C452 H429 0.947 . S
C452 C451 1.391 . S
C452 C453 1.392 . S
C453 H430 0.948 . S
C453 C452 1.392 . S
C453 C454 1.419 . S
C454 C453 1.419 . S
C454 C455 1.391 . S
C454 C458 1.397 . S
C455 C450 1.391 . S
C455 C454 1.391 . S
C455 C456 1.399 . S
C456 C455 1.399 . S
C456 C457 1.396 . S
C456 C459 1.453 . S
C456 C460 1.684 . S
C457 C447 1.723 . S
C457 C456 1.396 . S
C457 C458 1.394 . S
C458 C428 1.723 . S
C458 C454 1.397 . S
C458 C457 1.394 . S
C459 H431 0.982 . S
C459 H435 0.979 . S
C459 H436 0.977 . S
C459 C456 1.453 . S
C460 H432 0.979 . S
C460 H433 0.980 . S
C460 H434 0.983 . S
C460 C456 1.684 . S
H461 C479 0.948 . S
H462 C420 0.948 . S
H463 C438 0.979 . S
H464 C438 0.980 . S
H465 C438 0.983 . S
H466 C437 0.982 . S
H467 C437 0.979 . S
H468 C437 0.977 . S
H469 C439 0.948 . S
H470 C441 0.947 . S
H471 C442 0.948 . S
H472 C448 0.982 . S
H473 C448 0.979 . S
H474 C448 0.977 . S
H475 C449 0.979 . S
H476 C449 0.980 . S
H477 C449 0.983 . S
H478 C422 0.947 . S
C479 C422 1.392 . S
C479 C423 1.419 . S
C479 H461 0.948 . S
C480 C481 1.391 . S
C480 C484 1.391 . S
C480 H522 0.948 . S
C481 C480 1.391 . S
C481 C482 1.391 . S
C482 C481 1.391 . S
C482 H538 0.947 . S
C482 C539 1.392 . S
C483 C484 1.391 . S
C483 C487 1.397 . S
C483 C539 1.419 . S
C484 C480 1.391 . S
C484 C483 1.391 . S
C484 C485 1.399 . S
C485 C484 1.399 . S
C485 C488 1.396 . S
C485 C497 1.453 . S
C485 C498 1.684 . S
H486 C510 0.948 . S
C487 C483 1.397 . S
C487 C488 1.394 . S
C487 C506 1.723 . S
C488 C485 1.396 . S
C488 C487 1.394 . S
C488 C518 1.723 . S
H489 C512 0.947 . S
H490 C513 0.948 . S
H491 C519 0.982 . S
H492 C520 0.979 . S
H493 C520 0.980 . S
H494 C520 0.983 . S
H495 C519 0.979 . S
H496 C519 0.977 . S
C497 C485 1.453 . S
C497 H526 0.982 . S
C497 H527 0.979 . S
C497 H528 0.977 . S
C498 C485 1.684 . S
C498 H523 0.979 . S
C498 H524 0.980 . S
C498 H525 0.983 . S
C499 C500 1.391 . S
C499 C504 1.391 . S
C499 H529 0.948 . S
C500 C499 1.391 . S
C500 C501 1.391 . S
C501 C500 1.391 . S
C501 C502 1.392 . S
C501 H530 0.947 . S
C502 C501 1.392 . S
C502 C503 1.419 . S
C502 H531 0.948 . S
C503 C502 1.419 . S
C503 C504 1.391 . S
C503 C507 1.397 . S
C504 C499 1.391 . S
C504 C503 1.391 . S
C504 C505 1.399 . S
C505 C504 1.399 . S
C505 C506 1.396 . S
C505 C508 1.453 . S
C505 C509 1.684 . S
C506 C487 1.723 . S
C506 C505 1.396 . S
C506 C507 1.394 . S
C507 C503 1.397 . S
C507 C506 1.394 . S
C507 C517 1.723 . S
C508 C505 1.453 . S
C508 H532 0.982 . S
C508 H533 0.979 . S
C508 H534 0.977 . S
C509 C505 1.684 . S
C509 H535 0.979 . S
C509 H536 0.980 . S
C509 H537 0.983 . S
C510 H486 0.948 . S
C510 C511 1.391 . S
C510 C515 1.391 . S
C511 C510 1.391 . S
C511 C512 1.391 . S
C512 H489 0.947 . S
C512 C511 1.391 . S
C512 C513 1.392 . S
C513 H490 0.948 . S
C513 C512 1.392 . S
C513 C514 1.419 . S
C514 C513 1.419 . S
C514 C515 1.391 . S
C514 C518 1.397 . S
C515 C510 1.391 . S
C515 C514 1.391 . S
C515 C516 1.399 . S
C516 C515 1.399 . S
C516 C517 1.396 . S
C516 C519 1.453 . S
C516 C520 1.684 . S
C517 C507 1.723 . S
C517 C516 1.396 . S
C517 C518 1.394 . S
C518 C488 1.723 . S
C518 C514 1.397 . S
C518 C517 1.394 . S
C519 H491 0.982 . S
C519 H495 0.979 . S
C519 H496 0.977 . S
C519 C516 1.453 . S
C520 H492 0.979 . S
C520 H493 0.980 . S
C520 H494 0.983 . S
C520 C516 1.684 . S
H521 C539 0.948 . S
H522 C480 0.948 . S
H523 C498 0.979 . S
H524 C498 0.980 . S
H525 C498 0.983 . S
H526 C497 0.982 . S
H527 C497 0.979 . S
H528 C497 0.977 . S
H529 C499 0.948 . S
H530 C501 0.947 . S
H531 C502 0.948 . S
H532 C508 0.982 . S
H533 C508 0.979 . S
H534 C508 0.977 . S
H535 C509 0.979 . S
H536 C509 0.980 . S
H537 C509 0.983 . S
H538 C482 0.947 . S
C539 C482 1.392 . S
C539 C483 1.419 . S
C539 H521 0.948 . S
C540 C541 1.391 . S
C540 C544 1.391 . S
C540 H582 0.948 . S
C541 C540 1.391 . S
C541 C542 1.391 . S
C542 C541 1.391 . S
C542 H598 0.947 . S
C542 C599 1.392 . S
C543 C544 1.391 . S
C543 C547 1.397 . S
C543 C599 1.419 . S
C544 C540 1.391 . S
C544 C543 1.391 . S
C544 C545 1.399 . S
C545 C544 1.399 . S
C545 C548 1.396 . S
C545 C557 1.453 . S
C545 C558 1.684 . S
H546 C570 0.948 1_545 S
C547 C543 1.397 . S
C547 C548 1.394 . S
C547 C566 1.723 . S
C548 C545 1.396 . S
C548 C547 1.394 . S
C548 C578 1.723 . S
H549 C572 0.947 . S
H550 C573 0.948 . S
H551 C579 1.019 . S
H552 C580 0.979 . S
H553 C580 0.980 . S
H554 C580 0.983 . S
H555 C579 0.957 1_545 S
H556 C579 0.960 1_545 S
C557 C545 1.453 . S
C557 H586 0.982 . S
C557 H587 0.979 . S
C557 H588 0.977 . S
C558 C545 1.684 . S
C558 H583 0.979 . S
C558 H584 0.980 . S
C558 H585 0.983 . S
C559 C560 1.391 . S
C559 C564 1.391 1_545 S
C559 H589 0.948 . S
C560 C559 1.391 . S
C560 C561 1.391 . S
C561 C560 1.391 . S
C561 C562 1.392 . S
C561 H590 0.947 . S
C562 C561 1.392 . S
C562 C563 1.419 1_545 S
C562 H591 0.948 . S
C563 C562 1.419 1_565 S
C563 C564 1.391 . S
C563 C567 1.397 . S
C564 C559 1.391 1_565 S
C564 C563 1.391 . S
C564 C565 1.399 . S
C565 C564 1.399 . S
C565 C566 1.396 . S
C565 C568 1.453 . S
C565 C569 1.684 . S
C566 C547 1.723 . S
C566 C565 1.396 . S
C566 C567 1.394 . S
C567 C563 1.397 . S
C567 C566 1.394 . S
C567 C577 1.723 . S
C568 C565 1.453 . S
C568 H592 0.982 . S
C568 H593 0.979 . S
C568 H594 0.977 . S
C569 C565 1.684 . S
C569 H595 0.979 . S
C569 H596 0.980 . S
C569 H597 0.983 . S
C570 H546 0.948 1_565 S
C570 C571 1.391 . S
C570 C575 1.391 . S
C571 C570 1.391 . S
C571 C572 1.391 . S
C572 H549 0.947 . S
C572 C571 1.391 . S
C572 C573 1.392 . S
C573 H550 0.948 . S
C573 C572 1.392 . S
C573 C574 1.419 . S
C574 C573 1.419 . S
C574 C575 1.391 . S
C574 C578 1.397 . S
C575 C570 1.391 . S
C575 C574 1.391 . S
C575 C576 1.399 . S
C576 C575 1.399 . S
C576 C577 1.396 . S
C576 C579 1.458 . S
C576 C580 1.684 1_565 S
C577 C567 1.723 . S
C577 C576 1.396 . S
C577 C578 1.394 . S
C578 C548 1.723 . S
C578 C574 1.397 . S
C578 C577 1.394 . S
C579 H551 1.019 . S
C579 H555 0.957 1_565 S
C579 H556 0.960 1_565 S
C579 C576 1.458 . S
C580 H552 0.979 . S
C580 H553 0.980 . S
C580 H554 0.983 . S
C580 C576 1.684 1_545 S
H581 C599 0.948 . S
H582 C540 0.948 . S
H583 C558 0.979 . S
H584 C558 0.980 . S
H585 C558 0.983 . S
H586 C557 0.982 . S
H587 C557 0.979 . S
H588 C557 0.977 . S
H589 C559 0.948 . S
H590 C561 0.947 . S
H591 C562 0.948 . S
H592 C568 0.982 . S
H593 C568 0.979 . S
H594 C568 0.977 . S
H595 C569 0.979 . S
H596 C569 0.980 . S
H597 C569 0.983 . S
H598 C542 0.947 . S
C599 C542 1.392 . S
C599 C543 1.419 . S
C599 H581 0.948 . S
C600 C601 1.391 . S
C600 C604 1.391 . S
C600 H642 0.948 . S
C601 C600 1.391 . S
C601 C602 1.391 . S
C602 C601 1.391 . S
C602 H658 0.947 . S
C602 C659 1.392 . S
C603 C604 1.391 . S
C603 C607 1.397 . S
C603 C659 1.419 . S
C604 C600 1.391 . S
C604 C603 1.391 . S
C604 C605 1.399 . S
C605 C604 1.399 . S
C605 C608 1.396 . S
C605 C617 1.453 . S
C605 C618 1.684 . S
H606 C630 0.948 . S
C607 C603 1.397 . S
C607 C608 1.394 . S
C607 C626 1.723 . S
C608 C605 1.396 . S
C608 C607 1.394 . S
C608 C638 1.723 . S
H609 C632 0.947 . S
H610 C633 0.948 . S
H611 C639 0.982 . S
H612 C640 0.979 . S
H613 C640 0.980 . S
H614 C640 0.983 . S
H615 C639 0.979 . S
H616 C639 0.977 . S
C617 C605 1.453 . S
C617 H646 0.982 . S
C617 H647 0.979 . S
C617 H648 0.977 . S
C618 C605 1.684 . S
C618 H643 0.979 . S
C618 H644 0.980 . S
C618 H645 0.983 . S
C619 C620 1.391 . S
C619 C624 1.391 . S
C619 H649 0.948 . S
C620 C619 1.391 . S
C620 C621 1.391 . S
C621 C620 1.391 . S
C621 C622 1.392 . S
C621 H650 0.947 . S
C622 C621 1.392 . S
C622 C623 1.419 . S
C622 H651 0.948 . S
C623 C622 1.419 . S
C623 C624 1.391 . S
C623 C627 1.397 . S
C624 C619 1.391 . S
C624 C623 1.391 . S
C624 C625 1.399 . S
C625 C624 1.399 . S
C625 C626 1.396 . S
C625 C628 1.453 . S
C625 C629 1.684 . S
C626 C607 1.723 . S
C626 C625 1.396 . S
C626 C627 1.394 . S
C627 C623 1.397 . S
C627 C626 1.394 . S
C627 C637 1.723 . S
C628 C625 1.453 . S
C628 H652 0.982 . S
C628 H653 0.979 . S
C628 H654 0.977 . S
C629 C625 1.684 . S
C629 H655 0.979 . S
C629 H656 0.980 . S
C629 H657 0.983 . S
C630 H606 0.948 . S
C630 C631 1.391 . S
C630 C635 1.391 . S
C631 C630 1.391 . S
C631 C632 1.391 . S
C632 H609 0.947 . S
C632 C631 1.391 . S
C632 C633 1.392 . S
C633 H610 0.948 . S
C633 C632 1.392 . S
C633 C634 1.419 . S
C634 C633 1.419 . S
C634 C635 1.391 . S
C634 C638 1.397 . S
C635 C630 1.391 . S
C635 C634 1.391 . S
C635 C636 1.399 . S
C636 C635 1.399 . S
C636 C637 1.396 . S
C636 C639 1.453 . S
C636 C640 1.684 . S
C637 C627 1.723 . S
C637 C636 1.396 . S
C637 C638 1.394 . S
C638 C608 1.723 . S
C638 C634 1.397 . S
C638 C637 1.394 . S
C639 H611 0.982 . S
C639 H615 0.979 . S
C639 H616 0.977 . S
C639 C636 1.453 . S
C640 H612 0.979 . S
C640 H613 0.980 . S
C640 H614 0.983 . S
C640 C636 1.684 . S
H641 C659 0.948 . S
H642 C600 0.948 . S
H643 C618 0.979 . S
H644 C618 0.980 . S
H645 C618 0.983 . S
H646 C617 0.982 . S
H647 C617 0.979 . S
H648 C617 0.977 . S
H649 C619 0.948 . S
H650 C621 0.947 . S
H651 C622 0.948 . S
H652 C628 0.982 . S
H653 C628 0.979 . S
H654 C628 0.977 . S
H655 C629 0.979 . S
H656 C629 0.980 . S
H657 C629 0.983 . S
H658 C602 0.947 . S
C659 C602 1.392 . S
C659 C603 1.419 . S
C659 H641 0.948 . S
C660 C661 1.391 . S
C660 C664 1.391 . S
C660 H702 0.948 . S
C661 C660 1.391 . S
C661 C662 1.391 . S
C662 C661 1.391 . S
C662 H718 0.947 . S
C662 C719 1.392 . S
C663 C664 1.391 . S
C663 C667 1.397 . S
C663 C719 1.419 . S
C664 C660 1.391 . S
C664 C663 1.391 . S
C664 C665 1.399 . S
C665 C664 1.399 . S
C665 C668 1.396 . S
C665 C677 1.453 . S
C665 C678 1.684 . S
H666 C690 0.948 . S
C667 C663 1.397 . S
C667 C668 1.394 . S
C667 C686 1.723 . S
C668 C665 1.396 . S
C668 C667 1.394 . S
C668 C698 1.723 . S
H669 C692 0.947 . S
H670 C693 0.948 . S
H671 C699 0.982 . S
H672 C700 0.979 . S
H673 C700 0.980 . S
H674 C700 0.983 . S
H675 C699 0.979 . S
H676 C699 0.977 . S
C677 C665 1.453 . S
C677 H706 0.982 . S
C677 H707 0.979 . S
C677 H708 0.977 . S
C678 C665 1.684 . S
C678 H703 0.979 . S
C678 H704 0.980 . S
C678 H705 0.983 . S
C679 C680 1.391 . S
C679 C684 1.391 . S
C679 H709 0.948 . S
C680 C679 1.391 . S
C680 C681 1.391 . S
C681 C680 1.391 . S
C681 C682 1.392 . S
C681 H710 0.947 . S
C682 C681 1.392 . S
C682 C683 1.419 . S
C682 H711 0.948 . S
C683 C682 1.419 . S
C683 C684 1.391 . S
C683 C687 1.397 . S
C684 C679 1.391 . S
C684 C683 1.391 . S
C684 C685 1.399 . S
C685 C684 1.399 . S
C685 C686 1.396 . S
C685 C688 1.453 . S
C685 C689 1.684 . S
C686 C667 1.723 . S
C686 C685 1.396 . S
C686 C687 1.394 . S
C687 C683 1.397 . S
C687 C686 1.394 . S
C687 C697 1.723 . S
C688 C685 1.453 . S
C688 H712 0.982 . S
C688 H713 0.979 . S
C688 H714 0.977 . S
C689 C685 1.684 . S
C689 H715 0.979 . S
C689 H716 0.980 . S
C689 H717 0.983 . S
C690 H666 0.948 . S
C690 C691 1.391 . S
C690 C695 1.391 . S
C691 C690 1.391 . S
C691 C692 1.391 . S
C692 H669 0.947 . S
C692 C691 1.391 . S
C692 C693 1.392 . S
C693 H670 0.948 . S
C693 C692 1.392 . S
C693 C694 1.419 . S
C694 C693 1.419 . S
C694 C695 1.391 . S
C694 C698 1.397 . S
C695 C690 1.391 . S
C695 C694 1.391 . S
C695 C696 1.399 . S
C696 C695 1.399 . S
C696 C697 1.396 . S
C696 C699 1.453 . S
C696 C700 1.684 . S
C697 C687 1.723 . S
C697 C696 1.396 . S
C697 C698 1.394 . S
C698 C668 1.723 . S
C698 C694 1.397 . S
C698 C697 1.394 . S
C699 H671 0.982 . S
C699 H675 0.979 . S
C699 H676 0.977 . S
C699 C696 1.453 . S
C700 H672 0.979 . S
C700 H673 0.980 . S
C700 H674 0.983 . S
C700 C696 1.684 . S
H701 C719 0.948 . S
H702 C660 0.948 . S
H703 C678 0.979 . S
H704 C678 0.980 . S
H705 C678 0.983 . S
H706 C677 0.982 . S
H707 C677 0.979 . S
H708 C677 0.977 . S
H709 C679 0.948 . S
H710 C681 0.947 . S
H711 C682 0.948 . S
H712 C688 0.982 . S
H713 C688 0.979 . S
H714 C688 0.977 . S
H715 C689 0.979 . S
H716 C689 0.980 . S
H717 C689 0.983 . S
H718 C662 0.947 . S
C719 C662 1.392 . S
C719 C663 1.419 . S
C719 H701 0.948 . S
C720 C721 1.391 . S
C720 C724 1.391 . S
C720 H762 0.948 . S
C721 C720 1.391 . S
C721 C722 1.391 . S
C722 C721 1.391 . S
C722 H778 0.947 . S
C722 C779 1.392 . S
C723 C724 1.391 . S
C723 C727 1.397 . S
C723 C779 1.419 . S
C724 C720 1.391 . S
C724 C723 1.391 . S
C724 C725 1.399 . S
C725 C724 1.399 . S
C725 C728 1.396 . S
C725 C737 1.453 . S
C725 C738 1.684 . S
H726 C750 0.948 . S
C727 C723 1.397 . S
C727 C728 1.394 . S
C727 C746 1.723 . S
C728 C725 1.396 . S
C728 C727 1.394 . S
C728 C758 1.723 . S
H729 C752 0.947 . S
H730 C753 0.948 . S
H731 C759 0.982 . S
H732 C760 0.979 . S
H733 C760 0.980 . S
H734 C760 0.983 . S
H735 C759 0.979 . S
H736 C759 0.977 . S
C737 C725 1.453 . S
C737 H766 0.982 . S
C737 H767 0.979 . S
C737 H768 0.977 . S
C738 C725 1.684 . S
C738 H763 0.979 . S
C738 H764 0.980 . S
C738 H765 0.983 . S
C739 C740 1.391 . S
C739 C744 1.391 . S
C739 H769 0.948 . S
C740 C739 1.391 . S
C740 C741 1.391 . S
C741 C740 1.391 . S
C741 C742 1.392 . S
C741 H770 0.947 . S
C742 C741 1.392 . S
C742 C743 1.419 . S
C742 H771 0.948 . S
C743 C742 1.419 . S
C743 C744 1.391 . S
C743 C747 1.397 . S
C744 C739 1.391 . S
C744 C743 1.391 . S
C744 C745 1.399 . S
C745 C744 1.399 . S
C745 C746 1.396 . S
C745 C748 1.453 . S
C745 C749 1.684 . S
C746 C727 1.723 . S
C746 C745 1.396 . S
C746 C747 1.394 . S
C747 C743 1.397 . S
C747 C746 1.394 . S
C747 C757 1.723 . S
C748 C745 1.453 . S
C748 H772 0.982 . S
C748 H773 0.979 . S
C748 H774 0.977 . S
C749 C745 1.684 . S
C749 H775 0.979 . S
C749 H776 0.980 . S
C749 H777 0.983 . S
C750 H726 0.948 . S
C750 C751 1.391 . S
C750 C755 1.391 . S
C751 C750 1.391 . S
C751 C752 1.391 . S
C752 H729 0.947 . S
C752 C751 1.391 . S
C752 C753 1.392 . S
C753 H730 0.948 . S
C753 C752 1.392 . S
C753 C754 1.419 . S
C754 C753 1.419 . S
C754 C755 1.391 . S
C754 C758 1.397 . S
C755 C750 1.391 . S
C755 C754 1.391 . S
C755 C756 1.399 . S
C756 C755 1.399 . S
C756 C757 1.396 . S
C756 C759 1.453 . S
C756 C760 1.684 . S
C757 C747 1.723 . S
C757 C756 1.396 . S
C757 C758 1.394 . S
C758 C728 1.723 . S
C758 C754 1.397 . S
C758 C757 1.394 . S
C759 H731 0.982 . S
C759 H735 0.979 . S
C759 H736 0.977 . S
C759 C756 1.453 . S
C760 H732 0.979 . S
C760 H733 0.980 . S
C760 H734 0.983 . S
C760 C756 1.684 . S
H761 C779 0.948 . S
H762 C720 0.948 . S
H763 C738 0.979 . S
H764 C738 0.980 . S
H765 C738 0.983 . S
H766 C737 0.982 . S
H767 C737 0.979 . S
H768 C737 0.977 . S
H769 C739 0.948 . S
H770 C741 0.947 . S
H771 C742 0.948 . S
H772 C748 0.982 . S
H773 C748 0.979 . S
H774 C748 0.977 . S
H775 C749 0.979 . S
H776 C749 0.980 . S
H777 C749 0.983 . S
H778 C722 0.947 . S
C779 C722 1.392 . S
C779 C723 1.419 . S
C779 H761 0.948 . S
C780 C781 1.391 . S
C780 C784 1.391 . S
C780 H822 0.948 . S
C781 C780 1.391 . S
C781 C782 1.391 . S
C782 C781 1.391 . S
C782 H838 0.953 . S
C782 C839 1.392 1_554 S
C783 C784 1.391 1_556 S
C783 C787 1.397 . S
C783 C839 1.419 . S
C784 C780 1.391 . S
C784 C783 1.391 1_554 S
C784 C785 1.399 . S
C785 C784 1.399 . S
C785 C788 1.396 1_554 S
C785 C797 1.453 . S
C785 C798 1.684 . S
H786 C810 0.948 . S
C787 C783 1.397 . S
C787 C788 1.394 . S
C787 C806 1.723 . S
C788 C785 1.396 1_556 S
C788 C787 1.394 . S
C788 C818 1.723 . S
H789 C812 0.947 1_554 S
H790 C813 0.948 1_554 S
H791 C819 0.982 . S
H792 C820 0.979 . S
H793 C820 0.980 . S
H794 C820 0.983 . S
H795 C819 0.979 . S
H796 C819 0.977 . S
C797 C785 1.453 . S
C797 H826 0.982 . S
C797 H827 0.979 . S
C797 H828 0.977 . S
C798 C785 1.684 . S
C798 H823 0.979 1_554 S
C798 H824 0.980 . S
C798 H825 0.983 . S
C799 C800 1.391 . S
C799 C804 1.391 . S
C799 H829 0.948 . S
C800 C799 1.391 . S
C800 C801 1.391 . S
C801 C800 1.391 . S
C801 C802 1.392 . S
C801 H830 0.947 . S
C802 C801 1.392 . S
C802 C803 1.419 . S
C802 H831 0.948 . S
C803 C802 1.419 . S
C803 C804 1.391 . S
C803 C807 1.397 . S
C804 C799 1.391 . S
C804 C803 1.391 . S
C804 C805 1.399 . S
C805 C804 1.399 . S
C805 C806 1.396 . S
C805 C808 1.453 . S
C805 C809 1.684 . S
C806 C787 1.723 . S
C806 C805 1.396 . S
C806 C807 1.394 . S
C807 C803 1.397 . S
C807 C806 1.394 . S
C807 C817 1.723 . S
C808 C805 1.453 . S
C808 H832 0.982 . S
C808 H833 0.979 . S
C808 H834 0.977 . S
C809 C805 1.684 . S
C809 H835 0.979 . S
C809 H836 0.980 . S
C809 H837 0.983 . S
C810 H786 0.948 . S
C810 C811 1.391 . S
C810 C815 1.391 . S
C811 C810 1.391 . S
C811 C812 1.391 . S
C812 H789 0.947 1_556 S
C812 C811 1.391 . S
C812 C813 1.392 . S
C813 H790 0.948 1_556 S
C813 C812 1.392 . S
C813 C814 1.419 . S
C814 C813 1.419 . S
C814 C815 1.391 . S
C814 C818 1.397 . S
C815 C810 1.391 . S
C815 C814 1.391 . S
C815 C816 1.399 . S
C816 C815 1.399 . S
C816 C817 1.396 . S
C816 C819 1.453 . S
C816 C820 1.684 . S
C817 C807 1.723 . S
C817 C816 1.396 . S
C817 C818 1.394 . S
C818 C788 1.723 . S
C818 C814 1.397 . S
C818 C817 1.394 . S
C819 H791 0.982 . S
C819 H795 0.979 . S
C819 H796 0.977 . S
C819 C816 1.453 . S
C820 H792 0.979 . S
C820 H793 0.980 . S
C820 H794 0.983 . S
C820 C816 1.684 . S
H821 C839 0.948 . S
H822 C780 0.948 . S
H823 C798 0.979 1_556 S
H824 C798 0.980 . S
H825 C798 0.983 . S
H826 C797 0.982 . S
H827 C797 0.979 . S
H828 C797 0.977 . S
H829 C799 0.948 . S
H830 C801 0.947 . S
H831 C802 0.948 . S
H832 C808 0.982 . S
H833 C808 0.979 . S
H834 C808 0.977 . S
H835 C809 0.979 . S
H836 C809 0.980 . S
H837 C809 0.983 . S
H838 C782 0.953 . S
C839 C782 1.392 1_556 S
C839 C783 1.419 . S
C839 H821 0.948 . S
C840 C841 1.391 . S
C840 C844 1.391 . S
C840 H882 0.948 . S
C841 C840 1.391 . S
C841 C842 1.391 . S
C842 C841 1.391 . S
C842 H898 0.947 . S
C842 C899 1.392 . S
C843 C844 1.391 . S
C843 C847 1.397 . S
C843 C899 1.419 . S
C844 C840 1.391 . S
C844 C843 1.391 . S
C844 C845 1.399 . S
C845 C844 1.399 . S
C845 C848 1.396 . S
C845 C857 1.453 . S
C845 C858 1.684 . S
H846 C870 0.948 . S
C847 C843 1.397 . S
C847 C848 1.394 . S
C847 C866 1.723 . S
C848 C845 1.396 . S
C848 C847 1.394 . S
C848 C878 1.723 . S
H849 C872 0.947 . S
H850 C873 0.948 . S
H851 C879 0.982 . S
H852 C880 0.979 . S
H853 C880 0.980 . S
H854 C880 0.983 . S
H855 C879 0.979 . S
H856 C879 0.977 . S
C857 C845 1.453 . S
C857 H886 0.982 . S
C857 H887 0.979 . S
C857 H888 0.977 . S
C858 C845 1.684 . S
C858 H883 0.979 . S
C858 H884 0.980 . S
C858 H885 0.983 . S
C859 C860 1.391 . S
C859 C864 1.391 . S
C859 H889 0.948 . S
C860 C859 1.391 . S
C860 C861 1.391 . S
C861 C860 1.391 . S
C861 C862 1.392 . S
C861 H890 0.947 . S
C862 C861 1.392 . S
C862 C863 1.419 . S
C862 H891 0.948 . S
C863 C862 1.419 . S
C863 C864 1.391 . S
C863 C867 1.397 . S
C864 C859 1.391 . S
C864 C863 1.391 . S
C864 C865 1.399 . S
C865 C864 1.399 . S
C865 C866 1.396 . S
C865 C868 1.453 . S
C865 C869 1.684 . S
C866 C847 1.723 . S
C866 C865 1.396 . S
C866 C867 1.394 . S
C867 C863 1.397 . S
C867 C866 1.394 . S
C867 C877 1.723 . S
C868 C865 1.453 . S
C868 H892 0.982 . S
C868 H893 0.979 . S
C868 H894 0.977 . S
C869 C865 1.684 . S
C869 H895 0.979 . S
C869 H896 0.980 . S
C869 H897 0.983 . S
C870 H846 0.948 . S
C870 C871 1.391 . S
C870 C875 1.391 . S
C871 C870 1.391 . S
C871 C872 1.391 . S
C872 H849 0.947 . S
C872 C871 1.391 . S
C872 C873 1.392 . S
C873 H850 0.948 . S
C873 C872 1.392 . S
C873 C874 1.419 . S
C874 C873 1.419 . S
C874 C875 1.391 . S
C874 C878 1.397 . S
C875 C870 1.391 . S
C875 C874 1.391 . S
C875 C876 1.399 . S
C876 C875 1.399 . S
C876 C877 1.396 . S
C876 C879 1.453 . S
C876 C880 1.684 . S
C877 C867 1.723 . S
C877 C876 1.396 . S
C877 C878 1.394 . S
C878 C848 1.723 . S
C878 C874 1.397 . S
C878 C877 1.394 . S
C879 H851 0.982 . S
C879 H855 0.979 . S
C879 H856 0.977 . S
C879 C876 1.453 . S
C880 H852 0.979 . S
C880 H853 0.980 . S
C880 H854 0.983 . S
C880 C876 1.684 . S
H881 C899 0.948 . S
H882 C840 0.948 . S
H883 C858 0.979 . S
H884 C858 0.980 . S
H885 C858 0.983 . S
H886 C857 0.982 . S
H887 C857 0.979 . S
H888 C857 0.977 . S
H889 C859 0.948 . S
H890 C861 0.947 . S
H891 C862 0.948 . S
H892 C868 0.982 . S
H893 C868 0.979 . S
H894 C868 0.977 . S
H895 C869 0.979 . S
H896 C869 0.980 . S
H897 C869 0.983 . S
H898 C842 0.947 . S
C899 C842 1.392 . S
C899 C843 1.419 . S
C899 H881 0.948 . S
C900 C901 1.391 . S
C900 C904 1.391 1_565 S
C900 H942 0.948 1_556 S
C901 C900 1.391 . S
C901 C902 1.391 . S
C902 C901 1.391 . S
C902 H958 0.947 . S
C902 C959 1.392 . S
C903 C904 1.391 . S
C903 C907 1.397 . S
C903 C959 1.419 1_545 S
C904 C900 1.391 1_545 S
C904 C903 1.391 . S
C904 C905 1.399 . S
C905 C904 1.399 . S
C905 C908 1.396 . S
C905 C917 1.458 . S
C905 C918 1.684 1_556 S
H906 C930 0.948 . S
C907 C903 1.397 . S
C907 C908 1.394 . S
C907 C926 1.723 . S
C908 C905 1.396 . S
C908 C907 1.394 . S
C908 C938 1.723 . S
H909 C932 0.947 . S
H910 C933 0.948 . S
H911 C939 0.982 . S
H912 C940 0.979 . S
H913 C940 0.980 . S
H914 C940 0.983 . S
H915 C939 0.979 . S
H916 C939 0.977 . S
C917 C905 1.458 . S
C917 H946 1.019 . S
C917 H947 0.957 1_556 S
C917 H948 0.960 1_556 S
C918 C905 1.684 1_554 S
C918 H943 0.979 . S
C918 H944 0.980 . S
C918 H945 0.983 . S
C919 C920 1.391 . S
C919 C924 1.391 . S
C919 H949 0.948 1_545 S
C920 C919 1.391 . S
C920 C921 1.391 . S
C921 C920 1.391 . S
C921 C922 1.392 . S
C921 H950 0.947 . S
C922 C921 1.392 . S
C922 C923 1.419 . S
C922 H951 0.948 . S
C923 C922 1.419 . S
C923 C924 1.391 . S
C923 C927 1.397 . S
C924 C919 1.391 . S
C924 C923 1.391 . S
C924 C925 1.399 . S
C925 C924 1.399 . S
C925 C926 1.396 . S
C925 C928 1.458 . S
C925 C929 1.684 1_545 S
C926 C907 1.723 . S
C926 C925 1.396 . S
C926 C927 1.394 . S
C927 C923 1.397 . S
C927 C926 1.394 . S
C927 C937 1.723 . S
C928 C925 1.458 . S
C928 H952 1.019 . S
C928 H953 0.956 1_545 S
C928 H954 0.959 1_545 S
C929 C925 1.684 1_565 S
C929 H955 0.979 . S
C929 H956 0.980 . S
C929 H957 0.983 . S
C930 H906 0.948 . S
C930 C931 1.391 . S
C930 C935 1.391 1_554 S
C931 C930 1.391 . S
C931 C932 1.391 . S
C932 H909 0.947 . S
C932 C931 1.391 . S
C932 C933 1.392 . S
C933 H910 0.948 . S
C933 C932 1.392 . S
C933 C934 1.419 1_554 S
C934 C933 1.419 1_556 S
C934 C935 1.391 . S
C934 C938 1.397 . S
C935 C930 1.391 1_556 S
C935 C934 1.391 . S
C935 C936 1.399 . S
C936 C935 1.399 . S
C936 C937 1.396 . S
C936 C939 1.453 . S
C936 C940 1.684 . S
C937 C927 1.723 . S
C937 C936 1.396 . S
C937 C938 1.394 . S
C938 C908 1.723 . S
C938 C934 1.397 . S
C938 C937 1.394 . S
C939 H911 0.982 . S
C939 H915 0.979 . S
C939 H916 0.977 . S
C939 C936 1.453 . S
C940 H912 0.979 . S
C940 H913 0.980 . S
C940 H914 0.983 . S
C940 C936 1.684 . S
H941 C959 0.948 . S
H942 C900 0.948 1_554 S
H943 C918 0.979 . S
H944 C918 0.980 . S
H945 C918 0.983 . S
H946 C917 1.019 . S
H947 C917 0.957 1_554 S
H948 C917 0.960 1_554 S
H949 C919 0.948 1_565 S
H950 C921 0.947 . S
H951 C922 0.948 . S
H952 C928 1.019 . S
H953 C928 0.956 1_565 S
H954 C928 0.959 1_565 S
H955 C929 0.979 . S
H956 C929 0.980 . S
H957 C929 0.983 . S
H958 C902 0.947 . S
C959 C902 1.392 . S
C959 C903 1.419 1_565 S
C959 H941 0.948 . S
Li960 N977 1.990 . S
Li960 O1020 1.956 . S
Li960 O1021 1.970 1_556 S
Li960 O1022 1.961 . S
Li961 N985 1.990 . S
Li961 O1020 1.970 1_554 S
Li961 O1021 1.956 . S
Li961 O1023 1.961 . S
Li962 N1007 1.990 . S
Li962 O1020 1.961 . S
Li962 O1022 1.956 . S
Li962 O1023 1.970 1_556 S
Li963 N1013 1.990 . S
Li963 O1021 1.961 . S
Li963 O1022 1.970 1_554 S
Li963 O1023 1.956 . S
C964 C966 1.348 1_556 S
C964 C967 1.356 . S
C964 O1020 1.325 . S
N965 C968 1.314 1_556 S
N965 C969 1.279 . S
C966 C964 1.348 1_554 S
C966 C968 1.353 . S
C966 H1024 0.929 . S
C967 C964 1.356 . S
C967 C969 1.358 . S
C967 H1025 0.930 . S
C968 N965 1.314 1_554 S
C968 C966 1.353 . S
C968 H1026 0.930 . S
C969 N965 1.279 . S
C969 C967 1.358 . S
C969 H1027 0.930 . S
C970 C973 1.348 . S
C970 C974 1.356 . S
C970 O1021 1.325 . S
C971 N972 1.279 . S
C971 C974 1.358 . S
C971 H1028 0.930 . S
N972 C971 1.279 . S
N972 C975 1.314 . S
C973 C970 1.348 . S
C973 C975 1.353 . S
C973 H1029 0.929 . S
C974 C970 1.356 . S
C974 C971 1.358 . S
C974 H1030 0.930 . S
C975 N972 1.314 . S
C975 C973 1.353 . S
C975 H1031 0.930 . S
C976 N977 1.314 . S
C976 C981 1.353 . S
C976 H982 0.930 . S
N977 Li960 1.990 . S
N977 C976 1.314 . S
N977 C979 1.279 . S
C978 C979 1.358 . S
C978 C980 1.356 . S
C978 H1032 0.930 . S
C979 N977 1.279 . S
C979 C978 1.358 . S
C979 H983 0.930 . S
C980 C978 1.356 . S
C980 C981 1.348 . S
C981 C976 1.353 . S
C981 C980 1.348 . S
C981 H1033 0.929 . S
H982 C976 0.930 . S
H983 C979 0.930 . S
C984 N985 1.314 . S
C984 C986 1.353 . S
C984 H990 0.930 . S
N985 Li961 1.990 . S
N985 C984 1.314 . S
N985 C988 1.279 . S
C986 C984 1.353 . S
C986 C989 1.348 . S
C986 H1034 0.929 . S
C987 C988 1.358 . S
C987 C989 1.356 . S
C987 H1035 0.930 . S
C988 N985 1.279 . S
C988 C987 1.358 . S
C988 H991 0.930 . S
C989 C986 1.348 . S
C989 C987 1.356 . S
H990 C984 0.930 . S
H991 C988 0.930 . S
C992 C994 1.348 . S
C992 C995 1.356 . S
C992 O1022 1.325 . S
N993 C996 1.314 . S
N993 C997 1.279 . S
C994 C992 1.348 . S
C994 C996 1.353 . S
C994 H1036 0.929 . S
C995 C992 1.356 . S
C995 C997 1.358 . S
C995 H1037 0.930 . S
C996 N993 1.314 . S
C996 C994 1.353 . S
C996 H1038 0.930 . S
C997 N993 1.279 . S
C997 C995 1.358 . S
C997 H1039 0.930 . S
C998 C999 1.348 1_554 S
C998 C1000 1.356 . S
C998 O1023 1.325 . S
C999 C998 1.348 1_556 S
C999 C1001 1.353 . S
C999 H1040 0.929 . S
C1000 C998 1.356 . S
C1000 C1002 1.358 . S
C1000 H1041 0.930 . S
C1001 C999 1.353 . S
C1001 N1003 1.314 1_556 S
C1001 H1042 0.930 . S
C1002 C1000 1.358 . S
C1002 N1003 1.279 . S
C1002 H1043 0.930 . S
N1003 C1001 1.314 1_554 S
N1003 C1002 1.279 . S
C1004 C1006 1.353 . S
C1004 N1007 1.314 . S
C1004 H1010 0.930 . S
C1005 N1007 1.279 . S
C1005 C1008 1.358 . S
C1005 H1011 0.930 . S
C1006 C1004 1.353 . S
C1006 C1009 1.348 . S
C1006 H1044 0.929 . S
N1007 Li962 1.990 . S
N1007 C1004 1.314 . S
N1007 C1005 1.279 . S
C1008 C1005 1.358 . S
C1008 C1009 1.356 . S
C1008 H1045 0.930 . S
C1009 C1006 1.348 . S
C1009 C1008 1.356 . S
H1010 C1004 0.930 . S
H1011 C1005 0.930 . S
C1012 N1013 1.314 . S
C1012 C1014 1.353 . S
C1012 H1018 0.930 . S
N1013 Li963 1.990 . S
N1013 C1012 1.314 . S
N1013 C1016 1.279 . S
C1014 C1012 1.353 . S
C1014 C1017 1.348 . S
C1014 H1046 0.929 . S
C1015 C1016 1.358 . S
C1015 C1017 1.356 . S
C1015 H1047 0.930 . S
C1016 N1013 1.279 . S
C1016 C1015 1.358 . S
C1016 H1019 0.930 . S
C1017 C1014 1.348 . S
C1017 C1015 1.356 . S
H1018 C1012 0.930 . S
H1019 C1016 0.930 . S
O1020 Li960 1.956 . S
O1020 Li961 1.970 1_556 S
O1020 Li962 1.961 . S
O1020 C964 1.325 . S
O1021 Li960 1.970 1_554 S
O1021 Li961 1.956 . S
O1021 Li963 1.961 . S
O1021 C970 1.325 . S
O1022 Li960 1.961 . S
O1022 Li962 1.956 . S
O1022 Li963 1.970 1_556 S
O1022 C992 1.325 . S
O1023 Li961 1.961 . S
O1023 Li962 1.970 1_554 S
O1023 Li963 1.956 . S
O1023 C998 1.325 . S
H1024 C966 0.929 . S
H1025 C967 0.930 . S
H1026 C968 0.930 . S
H1027 C969 0.930 . S
H1028 C971 0.930 . S
H1029 C973 0.929 . S
H1030 C974 0.930 . S
H1031 C975 0.930 . S
H1032 C978 0.930 . S
H1033 C981 0.929 . S
H1034 C986 0.929 . S
H1035 C987 0.930 . S
H1036 C994 0.929 . S
H1037 C995 0.930 . S
H1038 C996 0.930 . S
H1039 C997 0.930 . S
H1040 C999 0.929 . S
H1041 C1000 0.930 . S
H1042 C1001 0.930 . S
H1043 C1002 0.930 . S
H1044 C1006 0.929 . S
H1045 C1008 0.930 . S
H1046 C1014 0.929 . S
H1047 C1015 0.930 . S
Li1048 N1065 1.990 . S
Li1048 O1108 1.956 . S
Li1048 O1109 1.970 . S
Li1048 O1110 1.961 . S
Li1049 N1073 1.990 . S
Li1049 O1108 1.970 . S
Li1049 O1109 1.956 . S
Li1049 O1111 1.961 . S
Li1050 N1095 1.990 . S
Li1050 O1108 1.961 . S
Li1050 O1110 1.956 . S
Li1050 O1111 1.970 . S
Li1051 N1101 1.990 . S
Li1051 O1109 1.961 . S
Li1051 O1110 1.970 . S
Li1051 O1111 1.956 . S
C1052 C1054 1.348 . S
C1052 C1055 1.356 . S
C1052 O1108 1.325 . S
N1053 C1056 1.314 . S
N1053 C1057 1.279 . S
C1054 C1052 1.348 . S
C1054 C1056 1.353 . S
C1054 H1112 0.929 . S
C1055 C1052 1.356 . S
C1055 C1057 1.358 . S
C1055 H1113 0.930 . S
C1056 N1053 1.314 . S
C1056 C1054 1.353 . S
C1056 H1114 0.930 . S
C1057 N1053 1.279 . S
C1057 C1055 1.358 . S
C1057 H1115 0.930 . S
C1058 C1061 1.348 . S
C1058 C1062 1.356 . S
C1058 O1109 1.325 . S
C1059 N1060 1.279 . S
C1059 C1062 1.358 . S
C1059 H1116 0.930 . S
N1060 C1059 1.279 . S
N1060 C1063 1.314 . S
C1061 C1058 1.348 . S
C1061 C1063 1.353 . S
C1061 H1117 0.929 . S
C1062 C1058 1.356 . S
C1062 C1059 1.358 . S
C1062 H1118 0.930 . S
C1063 N1060 1.314 . S
C1063 C1061 1.353 . S
C1063 H1119 0.930 . S
C1064 N1065 1.314 . S
C1064 C1069 1.353 . S
C1064 H1070 0.930 . S
N1065 Li1048 1.990 . S
N1065 C1064 1.314 . S
N1065 C1067 1.279 . S
C1066 C1067 1.358 . S
C1066 C1068 1.356 . S
C1066 H1120 0.930 . S
C1067 N1065 1.279 . S
C1067 C1066 1.358 . S
C1067 H1071 0.930 . S
C1068 C1066 1.356 . S
C1068 C1069 1.348 . S
C1069 C1064 1.353 . S
C1069 C1068 1.348 . S
C1069 H1121 0.929 . S
H1070 C1064 0.930 . S
H1071 C1067 0.930 . S
C1072 N1073 1.314 . S
C1072 C1074 1.353 . S
C1072 H1078 0.930 . S
N1073 Li1049 1.990 . S
N1073 C1072 1.314 . S
N1073 C1076 1.279 . S
C1074 C1072 1.353 . S
C1074 C1077 1.348 . S
C1074 H1122 0.929 . S
C1075 C1076 1.358 . S
C1075 C1077 1.356 . S
C1075 H1123 0.930 . S
C1076 N1073 1.279 . S
C1076 C1075 1.358 . S
C1076 H1079 0.930 . S
C1077 C1074 1.348 . S
C1077 C1075 1.356 . S
H1078 C1072 0.930 . S
H1079 C1076 0.930 . S
C1080 C1082 1.348 . S
C1080 C1083 1.356 . S
C1080 O1110 1.325 . S
N1081 C1084 1.314 . S
N1081 C1085 1.279 . S
C1082 C1080 1.348 . S
C1082 C1084 1.353 . S
C1082 H1124 0.929 . S
C1083 C1080 1.356 . S
C1083 C1085 1.358 . S
C1083 H1125 0.930 . S
C1084 N1081 1.314 . S
C1084 C1082 1.353 . S
C1084 H1126 0.930 . S
C1085 N1081 1.279 . S
C1085 C1083 1.358 . S
C1085 H1127 0.930 . S
C1086 C1087 1.348 . S
C1086 C1088 1.356 . S
C1086 O1111 1.325 . S
C1087 C1086 1.348 . S
C1087 C1089 1.353 . S
C1087 H1128 0.929 . S
C1088 C1086 1.356 . S
C1088 C1090 1.358 . S
C1088 H1129 0.930 . S
C1089 C1087 1.353 . S
C1089 N1091 1.314 . S
C1089 H1130 0.930 . S
C1090 C1088 1.358 . S
C1090 N1091 1.279 . S
C1090 H1131 0.930 . S
N1091 C1089 1.314 . S
N1091 C1090 1.279 . S
C1092 C1094 1.353 . S
C1092 N1095 1.314 . S
C1092 H1098 0.930 . S
C1093 N1095 1.279 . S
C1093 C1096 1.358 . S
C1093 H1099 0.930 . S
C1094 C1092 1.353 . S
C1094 C1097 1.348 . S
C1094 H1132 0.929 . S
N1095 Li1050 1.990 . S
N1095 C1092 1.314 . S
N1095 C1093 1.279 . S
C1096 C1093 1.358 . S
C1096 C1097 1.356 . S
C1096 H1133 0.930 . S
C1097 C1094 1.348 . S
C1097 C1096 1.356 . S
H1098 C1092 0.930 . S
H1099 C1093 0.930 . S
C1100 N1101 1.314 . S
C1100 C1102 1.353 . S
C1100 H1106 0.930 . S
N1101 Li1051 1.990 . S
N1101 C1100 1.314 . S
N1101 C1104 1.279 . S
C1102 C1100 1.353 . S
C1102 C1105 1.348 . S
C1102 H1134 0.929 . S
C1103 C1104 1.358 . S
C1103 C1105 1.356 . S
C1103 H1135 0.930 . S
C1104 N1101 1.279 . S
C1104 C1103 1.358 . S
C1104 H1107 0.930 . S
C1105 C1102 1.348 . S
C1105 C1103 1.356 . S
H1106 C1100 0.930 . S
H1107 C1104 0.930 . S
O1108 Li1048 1.956 . S
O1108 Li1049 1.970 . S
O1108 Li1050 1.961 . S
O1108 C1052 1.325 . S
O1109 Li1048 1.970 . S
O1109 Li1049 1.956 . S
O1109 Li1051 1.961 . S
O1109 C1058 1.325 . S
O1110 Li1048 1.961 . S
O1110 Li1050 1.956 . S
O1110 Li1051 1.970 . S
O1110 C1080 1.325 . S
O1111 Li1049 1.961 . S
O1111 Li1050 1.970 . S
O1111 Li1051 1.956 . S
O1111 C1086 1.325 . S
H1112 C1054 0.929 . S
H1113 C1055 0.930 . S
H1114 C1056 0.930 . S
H1115 C1057 0.930 . S
H1116 C1059 0.930 . S
H1117 C1061 0.929 . S
H1118 C1062 0.930 . S
H1119 C1063 0.930 . S
H1120 C1066 0.930 . S
H1121 C1069 0.929 . S
H1122 C1074 0.929 . S
H1123 C1075 0.930 . S
H1124 C1082 0.929 . S
H1125 C1083 0.930 . S
H1126 C1084 0.930 . S
H1127 C1085 0.930 . S
H1128 C1087 0.929 . S
H1129 C1088 0.930 . S
H1130 C1089 0.930 . S
H1131 C1090 0.930 . S
H1132 C1094 0.929 . S
H1133 C1096 0.930 . S
H1134 C1102 0.929 . S
H1135 C1103 0.930 . S
Li1136 N1153 1.990 . S
Li1136 O1196 1.956 . S
Li1136 O1197 1.970 1_556 S
Li1136 O1198 1.961 . S
Li1137 N1161 1.990 . S
Li1137 O1196 1.970 1_554 S
Li1137 O1197 1.956 . S
Li1137 O1199 1.961 . S
Li1138 N1183 1.990 . S
Li1138 O1196 1.961 . S
Li1138 O1198 1.956 . S
Li1138 O1199 1.970 1_556 S
Li1139 N1189 1.990 . S
Li1139 O1197 1.961 . S
Li1139 O1198 1.970 1_554 S
Li1139 O1199 1.956 . S
C1140 C1142 1.348 1_556 S
C1140 C1143 1.356 . S
C1140 O1196 1.325 . S
N1141 C1144 1.314 1_556 S
N1141 C1145 1.279 . S
C1142 C1140 1.348 1_554 S
C1142 C1144 1.353 . S
C1142 H1200 0.929 . S
C1143 C1140 1.356 . S
C1143 C1145 1.358 . S
C1143 H1201 0.930 . S
C1144 N1141 1.314 1_554 S
C1144 C1142 1.353 . S
C1144 H1202 0.930 . S
C1145 N1141 1.279 . S
C1145 C1143 1.358 . S
C1145 H1203 0.930 . S
C1146 C1149 1.348 . S
C1146 C1150 1.356 . S
C1146 O1197 1.325 . S
C1147 N1148 1.279 . S
C1147 C1150 1.358 . S
C1147 H1204 0.930 . S
N1148 C1147 1.279 . S
N1148 C1151 1.314 . S
C1149 C1146 1.348 . S
C1149 C1151 1.353 . S
C1149 H1205 0.929 . S
C1150 C1146 1.356 . S
C1150 C1147 1.358 . S
C1150 H1206 0.930 . S
C1151 N1148 1.314 . S
C1151 C1149 1.353 . S
C1151 H1207 0.930 . S
C1152 N1153 1.314 . S
C1152 C1157 1.353 . S
C1152 H1158 0.930 . S
N1153 Li1136 1.990 . S
N1153 C1152 1.314 . S
N1153 C1155 1.279 . S
C1154 C1155 1.358 . S
C1154 C1156 1.356 . S
C1154 H1208 0.930 . S
C1155 N1153 1.279 . S
C1155 C1154 1.358 . S
C1155 H1159 0.930 . S
C1156 C1154 1.356 . S
C1156 C1157 1.348 . S
C1157 C1152 1.353 . S
C1157 C1156 1.348 . S
C1157 H1209 0.929 . S
H1158 C1152 0.930 . S
H1159 C1155 0.930 . S
C1160 N1161 1.314 . S
C1160 C1162 1.353 . S
C1160 H1166 0.930 . S
N1161 Li1137 1.990 . S
N1161 C1160 1.314 . S
N1161 C1164 1.279 . S
C1162 C1160 1.353 . S
C1162 C1165 1.348 . S
C1162 H1210 0.929 . S
C1163 C1164 1.358 . S
C1163 C1165 1.356 . S
C1163 H1211 0.930 . S
C1164 N1161 1.279 . S
C1164 C1163 1.358 . S
C1164 H1167 0.930 . S
C1165 C1162 1.348 . S
C1165 C1163 1.356 . S
H1166 C1160 0.930 . S
H1167 C1164 0.930 . S
C1168 C1170 1.348 . S
C1168 C1171 1.356 . S
C1168 O1198 1.325 . S
N1169 C1172 1.314 . S
N1169 C1173 1.279 . S
C1170 C1168 1.348 . S
C1170 C1172 1.353 . S
C1170 H1212 0.929 . S
C1171 C1168 1.356 . S
C1171 C1173 1.358 . S
C1171 H1213 0.930 . S
C1172 N1169 1.314 . S
C1172 C1170 1.353 . S
C1172 H1214 0.930 . S
C1173 N1169 1.279 . S
C1173 C1171 1.358 . S
C1173 H1215 0.930 . S
C1174 C1175 1.348 1_554 S
C1174 C1176 1.356 . S
C1174 O1199 1.325 . S
C1175 C1174 1.348 1_556 S
C1175 C1177 1.353 . S
C1175 H1216 0.929 . S
C1176 C1174 1.356 . S
C1176 C1178 1.358 . S
C1176 H1217 0.930 . S
C1177 C1175 1.353 . S
C1177 N1179 1.314 1_556 S
C1177 H1218 0.930 . S
C1178 C1176 1.358 . S
C1178 N1179 1.279 . S
C1178 H1219 0.930 . S
N1179 C1177 1.314 1_554 S
N1179 C1178 1.279 . S
C1180 C1182 1.353 . S
C1180 N1183 1.314 . S
C1180 H1186 0.930 . S
C1181 N1183 1.279 . S
C1181 C1184 1.358 . S
C1181 H1187 0.930 . S
C1182 C1180 1.353 . S
C1182 C1185 1.348 . S
C1182 H1220 0.929 . S
N1183 Li1138 1.990 . S
N1183 C1180 1.314 . S
N1183 C1181 1.279 . S
C1184 C1181 1.358 . S
C1184 C1185 1.356 . S
C1184 H1221 0.930 . S
C1185 C1182 1.348 . S
C1185 C1184 1.356 . S
H1186 C1180 0.930 . S
H1187 C1181 0.930 . S
C1188 N1189 1.314 . S
C1188 C1190 1.353 . S
C1188 H1194 0.930 . S
N1189 Li1139 1.990 . S
N1189 C1188 1.314 . S
N1189 C1192 1.279 . S
C1190 C1188 1.353 . S
C1190 C1193 1.348 . S
C1190 H1222 0.929 . S
C1191 C1192 1.358 . S
C1191 C1193 1.356 . S
C1191 H1223 0.930 . S
C1192 N1189 1.279 . S
C1192 C1191 1.358 . S
C1192 H1195 0.930 . S
C1193 C1190 1.348 . S
C1193 C1191 1.356 . S
H1194 C1188 0.930 . S
H1195 C1192 0.930 . S
O1196 Li1136 1.956 . S
O1196 Li1137 1.970 1_556 S
O1196 Li1138 1.961 . S
O1196 C1140 1.325 . S
O1197 Li1136 1.970 1_554 S
O1197 Li1137 1.956 . S
O1197 Li1139 1.961 . S
O1197 C1146 1.325 . S
O1198 Li1136 1.961 . S
O1198 Li1138 1.956 . S
O1198 Li1139 1.970 1_556 S
O1198 C1168 1.325 . S
O1199 Li1137 1.961 . S
O1199 Li1138 1.970 1_554 S
O1199 Li1139 1.956 . S
O1199 C1174 1.325 . S
H1200 C1142 0.929 . S
H1201 C1143 0.930 . S
H1202 C1144 0.930 . S
H1203 C1145 0.930 . S
H1204 C1147 0.930 . S
H1205 C1149 0.929 . S
H1206 C1150 0.930 . S
H1207 C1151 0.930 . S
H1208 C1154 0.930 . S
H1209 C1157 0.929 . S
H1210 C1162 0.929 . S
H1211 C1163 0.930 . S
H1212 C1170 0.929 . S
H1213 C1171 0.930 . S
H1214 C1172 0.930 . S
H1215 C1173 0.930 . S
H1216 C1175 0.929 . S
H1217 C1176 0.930 . S
H1218 C1177 0.930 . S
H1219 C1178 0.930 . S
H1220 C1182 0.929 . S
H1221 C1184 0.930 . S
H1222 C1190 0.929 . S
H1223 C1191 0.930 . S
Li1224 N1241 1.990 . S
Li1224 O1284 1.956 . S
Li1224 O1285 1.970 1_545 S
Li1224 O1286 1.961 . S
Li1225 N1249 1.990 . S
Li1225 O1284 1.970 1_565 S
Li1225 O1285 1.956 . S
Li1225 O1287 1.961 . S
Li1226 N1271 1.990 . S
Li1226 O1284 1.961 . S
Li1226 O1286 1.956 . S
Li1226 O1287 1.970 1_545 S
Li1227 N1277 1.990 . S
Li1227 O1285 1.961 . S
Li1227 O1286 1.970 1_565 S
Li1227 O1287 1.956 . S
C1228 C1230 1.348 . S
C1228 C1231 1.356 . S
C1228 O1284 1.325 . S
N1229 C1232 1.314 . S
N1229 C1233 1.279 . S
C1230 C1228 1.348 . S
C1230 C1232 1.353 . S
C1230 H1288 0.929 . S
C1231 C1228 1.356 . S
C1231 C1233 1.358 . S
C1231 H1289 0.930 . S
C1232 N1229 1.314 . S
C1232 C1230 1.353 . S
C1232 H1290 0.930 . S
C1233 N1229 1.279 . S
C1233 C1231 1.358 . S
C1233 H1291 0.930 . S
C1234 C1237 1.348 1_565 S
C1234 C1238 1.356 . S
C1234 O1285 1.325 . S
C1235 N1236 1.279 . S
C1235 C1238 1.358 . S
C1235 H1292 0.930 . S
N1236 C1235 1.279 . S
N1236 C1239 1.314 1_565 S
C1237 C1234 1.348 1_545 S
C1237 C1239 1.353 . S
C1237 H1293 0.929 . S
C1238 C1234 1.356 . S
C1238 C1235 1.358 . S
C1238 H1294 0.930 . S
C1239 N1236 1.314 1_545 S
C1239 C1237 1.353 . S
C1239 H1295 0.930 . S
C1240 N1241 1.314 . S
C1240 C1245 1.353 . S
C1240 H1246 0.930 . S
N1241 Li1224 1.990 . S
N1241 C1240 1.314 . S
N1241 C1243 1.279 . S
C1242 C1243 1.358 . S
C1242 C1244 1.356 . S
C1242 H1296 0.930 . S
C1243 N1241 1.279 . S
C1243 C1242 1.358 . S
C1243 H1247 0.930 . S
C1244 C1242 1.356 . S
C1244 C1245 1.348 . S
C1245 C1240 1.353 . S
C1245 C1244 1.348 . S
C1245 H1297 0.929 . S
H1246 C1240 0.930 . S
H1247 C1243 0.930 . S
C1248 N1249 1.314 . S
C1248 C1250 1.353 . S
C1248 H1254 0.930 . S
N1249 Li1225 1.990 . S
N1249 C1248 1.314 . S
N1249 C1252 1.279 . S
C1250 C1248 1.353 . S
C1250 C1253 1.348 . S
C1250 H1298 0.929 . S
C1251 C1252 1.358 . S
C1251 C1253 1.356 . S
C1251 H1299 0.930 . S
C1252 N1249 1.279 . S
C1252 C1251 1.358 . S
C1252 H1255 0.930 . S
C1253 C1250 1.348 . S
C1253 C1251 1.356 . S
H1254 C1248 0.930 . S
H1255 C1252 0.930 . S
C1256 C1258 1.348 1_545 S
C1256 C1259 1.356 . S
C1256 O1286 1.325 . S
N1257 C1260 1.314 1_545 S
N1257 C1261 1.279 . S
C1258 C1256 1.348 1_565 S
C1258 C1260 1.353 . S
C1258 H1300 0.929 . S
C1259 C1256 1.356 . S
C1259 C1261 1.358 . S
C1259 H1301 0.930 . S
C1260 N1257 1.314 1_565 S
C1260 C1258 1.353 . S
C1260 H1302 0.930 . S
C1261 N1257 1.279 . S
C1261 C1259 1.358 . S
C1261 H1303 0.930 . S
C1262 C1263 1.348 . S
C1262 C1264 1.356 . S
C1262 O1287 1.325 . S
C1263 C1262 1.348 . S
C1263 C1265 1.353 . S
C1263 H1304 0.929 . S
C1264 C1262 1.356 . S
C1264 C1266 1.358 . S
C1264 H1305 0.930 . S
C1265 C1263 1.353 . S
C1265 N1267 1.314 . S
C1265 H1306 0.930 . S
C1266 C1264 1.358 . S
C1266 N1267 1.279 . S
C1266 H1307 0.930 . S
N1267 C1265 1.314 . S
N1267 C1266 1.279 . S
C1268 C1270 1.353 . S
C1268 N1271 1.314 . S
C1268 H1274 0.930 . S
C1269 N1271 1.279 . S
C1269 C1272 1.358 . S
C1269 H1275 0.930 . S
C1270 C1268 1.353 . S
C1270 C1273 1.348 . S
C1270 H1308 0.929 . S
N1271 Li1226 1.990 . S
N1271 C1268 1.314 . S
N1271 C1269 1.279 . S
C1272 C1269 1.358 . S
C1272 C1273 1.356 . S
C1272 H1309 0.930 . S
C1273 C1270 1.348 . S
C1273 C1272 1.356 . S
H1274 C1268 0.930 . S
H1275 C1269 0.930 . S
C1276 N1277 1.314 . S
C1276 C1278 1.353 . S
C1276 H1282 0.930 . S
N1277 Li1227 1.990 . S
N1277 C1276 1.314 . S
N1277 C1280 1.279 . S
C1278 C1276 1.353 . S
C1278 C1281 1.348 . S
C1278 H1310 0.929 . S
C1279 C1280 1.358 . S
C1279 C1281 1.356 . S
C1279 H1311 0.930 . S
C1280 N1277 1.279 . S
C1280 C1279 1.358 . S
C1280 H1283 0.930 . S
C1281 C1278 1.348 . S
C1281 C1279 1.356 . S
H1282 C1276 0.930 . S
H1283 C1280 0.930 . S
O1284 Li1224 1.956 . S
O1284 Li1225 1.970 1_545 S
O1284 Li1226 1.961 . S
O1284 C1228 1.325 . S
O1285 Li1224 1.970 1_565 S
O1285 Li1225 1.956 . S
O1285 Li1227 1.961 . S
O1285 C1234 1.325 . S
O1286 Li1224 1.961 . S
O1286 Li1226 1.956 . S
O1286 Li1227 1.970 1_545 S
O1286 C1256 1.325 . S
O1287 Li1225 1.961 . S
O1287 Li1226 1.970 1_565 S
O1287 Li1227 1.956 . S
O1287 C1262 1.325 . S
H1288 C1230 0.929 . S
H1289 C1231 0.930 . S
H1290 C1232 0.930 . S
H1291 C1233 0.930 . S
H1292 C1235 0.930 . S
H1293 C1237 0.929 . S
H1294 C1238 0.930 . S
H1295 C1239 0.930 . S
H1296 C1242 0.930 . S
H1297 C1245 0.929 . S
H1298 C1250 0.929 . S
H1299 C1251 0.930 . S
H1300 C1258 0.929 . S
H1301 C1259 0.930 . S
H1302 C1260 0.930 . S
H1303 C1261 0.930 . S
H1304 C1263 0.929 . S
H1305 C1264 0.930 . S
H1306 C1265 0.930 . S
H1307 C1266 0.930 . S
H1308 C1270 0.929 . S
H1309 C1272 0.930 . S
H1310 C1278 0.929 . S
H1311 C1279 0.930 . S
Li1312 N1329 1.990 . S
Li1312 O1372 1.956 . S
Li1312 O1373 1.970 . S
Li1312 O1374 1.961 . S
Li1313 N1337 1.990 . S
Li1313 O1372 1.970 . S
Li1313 O1373 1.956 . S
Li1313 O1375 1.961 . S
Li1314 N1359 1.990 . S
Li1314 O1372 1.961 . S
Li1314 O1374 1.956 . S
Li1314 O1375 1.970 . S
Li1315 N1365 1.990 . S
Li1315 O1373 1.961 . S
Li1315 O1374 1.970 . S
Li1315 O1375 1.956 . S
C1316 C1318 1.348 . S
C1316 C1319 1.356 . S
C1316 O1372 1.325 . S
N1317 C1320 1.314 . S
N1317 C1321 1.279 . S
C1318 C1316 1.348 . S
C1318 C1320 1.353 . S
C1318 H1376 0.929 . S
C1319 C1316 1.356 . S
C1319 C1321 1.358 . S
C1319 H1377 0.930 . S
C1320 N1317 1.314 . S
C1320 C1318 1.353 . S
C1320 H1378 0.930 . S
C1321 N1317 1.279 . S
C1321 C1319 1.358 . S
C1321 H1379 0.930 . S
C1322 C1325 1.348 . S
C1322 C1326 1.356 . S
C1322 O1373 1.325 . S
C1323 N1324 1.279 . S
C1323 C1326 1.358 . S
C1323 H1380 0.930 . S
N1324 C1323 1.279 . S
N1324 C1327 1.314 . S
C1325 C1322 1.348 . S
C1325 C1327 1.353 . S
C1325 H1381 0.929 . S
C1326 C1322 1.356 . S
C1326 C1323 1.358 . S
C1326 H1382 0.930 . S
C1327 N1324 1.314 . S
C1327 C1325 1.353 . S
C1327 H1383 0.930 . S
C1328 N1329 1.314 . S
C1328 C1333 1.353 . S
C1328 H1334 0.930 . S
N1329 Li1312 1.990 . S
N1329 C1328 1.314 . S
N1329 C1331 1.279 . S
C1330 C1331 1.358 . S
C1330 C1332 1.356 . S
C1330 H1384 0.930 . S
C1331 N1329 1.279 . S
C1331 C1330 1.358 . S
C1331 H1335 0.930 . S
C1332 C1330 1.356 . S
C1332 C1333 1.348 . S
C1333 C1328 1.353 . S
C1333 C1332 1.348 . S
C1333 H1385 0.929 . S
H1334 C1328 0.930 . S
H1335 C1331 0.930 . S
C1336 N1337 1.314 . S
C1336 C1338 1.353 . S
C1336 H1342 0.930 . S
N1337 Li1313 1.990 . S
N1337 C1336 1.314 . S
N1337 C1340 1.279 . S
C1338 C1336 1.353 . S
C1338 C1341 1.348 . S
C1338 H1386 0.929 . S
C1339 C1340 1.358 . S
C1339 C1341 1.356 . S
C1339 H1387 0.930 . S
C1340 N1337 1.279 . S
C1340 C1339 1.358 . S
C1340 H1343 0.930 . S
C1341 C1338 1.348 . S
C1341 C1339 1.356 . S
H1342 C1336 0.930 . S
H1343 C1340 0.930 . S
C1344 C1346 1.348 . S
C1344 C1347 1.356 . S
C1344 O1374 1.325 . S
N1345 C1348 1.314 . S
N1345 C1349 1.279 . S
C1346 C1344 1.348 . S
C1346 C1348 1.353 . S
C1346 H1388 0.929 . S
C1347 C1344 1.356 . S
C1347 C1349 1.358 . S
C1347 H1389 0.930 . S
C1348 N1345 1.314 . S
C1348 C1346 1.353 . S
C1348 H1390 0.930 . S
C1349 N1345 1.279 . S
C1349 C1347 1.358 . S
C1349 H1391 0.930 . S
C1350 C1351 1.348 . S
C1350 C1352 1.356 . S
C1350 O1375 1.325 . S
C1351 C1350 1.348 . S
C1351 C1353 1.353 . S
C1351 H1392 0.929 . S
C1352 C1350 1.356 . S
C1352 C1354 1.358 . S
C1352 H1393 0.930 . S
C1353 C1351 1.353 . S
C1353 N1355 1.314 . S
C1353 H1394 0.930 . S
C1354 C1352 1.358 . S
C1354 N1355 1.279 . S
C1354 H1395 0.930 . S
N1355 C1353 1.314 . S
N1355 C1354 1.279 . S
C1356 C1358 1.353 . S
C1356 N1359 1.314 . S
C1356 H1362 0.930 . S
C1357 N1359 1.279 . S
C1357 C1360 1.358 . S
C1357 H1363 0.930 . S
C1358 C1356 1.353 . S
C1358 C1361 1.348 . S
C1358 H1396 0.929 . S
N1359 Li1314 1.990 . S
N1359 C1356 1.314 . S
N1359 C1357 1.279 . S
C1360 C1357 1.358 . S
C1360 C1361 1.356 . S
C1360 H1397 0.930 . S
C1361 C1358 1.348 . S
C1361 C1360 1.356 . S
H1362 C1356 0.930 . S
H1363 C1357 0.930 . S
C1364 N1365 1.314 . S
C1364 C1366 1.353 . S
C1364 H1370 0.930 . S
N1365 Li1315 1.990 . S
N1365 C1364 1.314 . S
N1365 C1368 1.279 . S
C1366 C1364 1.353 . S
C1366 C1369 1.348 . S
C1366 H1398 0.929 . S
C1367 C1368 1.358 . S
C1367 C1369 1.356 . S
C1367 H1399 0.930 . S
C1368 N1365 1.279 . S
C1368 C1367 1.358 . S
C1368 H1371 0.930 . S
C1369 C1366 1.348 . S
C1369 C1367 1.356 . S
H1370 C1364 0.930 . S
H1371 C1368 0.930 . S
O1372 Li1312 1.956 . S
O1372 Li1313 1.970 . S
O1372 Li1314 1.961 . S
O1372 C1316 1.325 . S
O1373 Li1312 1.970 . S
O1373 Li1313 1.956 . S
O1373 Li1315 1.961 . S
O1373 C1322 1.325 . S
O1374 Li1312 1.961 . S
O1374 Li1314 1.956 . S
O1374 Li1315 1.970 . S
O1374 C1344 1.325 . S
O1375 Li1313 1.961 . S
O1375 Li1314 1.970 . S
O1375 Li1315 1.956 . S
O1375 C1350 1.325 . S
H1376 C1318 0.929 . S
H1377 C1319 0.930 . S
H1378 C1320 0.930 . S
H1379 C1321 0.930 . S
H1380 C1323 0.930 . S
H1381 C1325 0.929 . S
H1382 C1326 0.930 . S
H1383 C1327 0.930 . S
H1384 C1330 0.930 . S
H1385 C1333 0.929 . S
H1386 C1338 0.929 . S
H1387 C1339 0.930 . S
H1388 C1346 0.929 . S
H1389 C1347 0.930 . S
H1390 C1348 0.930 . S
H1391 C1349 0.930 . S
H1392 C1351 0.929 . S
H1393 C1352 0.930 . S
H1394 C1353 0.930 . S
H1395 C1354 0.930 . S
H1396 C1358 0.929 . S
H1397 C1360 0.930 . S
H1398 C1366 0.929 . S
H1399 C1367 0.930 . S
Li1400 N1417 1.990 . S
Li1400 O1460 1.956 . S
Li1400 O1461 1.970 . S
Li1400 O1462 1.961 . S
Li1401 N1425 1.990 . S
Li1401 O1460 1.970 . S
Li1401 O1461 1.956 . S
Li1401 O1463 1.961 . S
Li1402 N1447 1.990 . S
Li1402 O1460 1.961 . S
Li1402 O1462 1.956 . S
Li1402 O1463 1.970 . S
Li1403 N1453 1.990 . S
Li1403 O1461 1.961 . S
Li1403 O1462 1.970 . S
Li1403 O1463 1.956 . S
C1404 C1406 1.348 . S
C1404 C1407 1.356 . S
C1404 O1460 1.325 . S
N1405 C1408 1.314 . S
N1405 C1409 1.279 . S
C1406 C1404 1.348 . S
C1406 C1408 1.353 . S
C1406 H1464 0.929 . S
C1407 C1404 1.356 . S
C1407 C1409 1.358 . S
C1407 H1465 0.930 . S
C1408 N1405 1.314 . S
C1408 C1406 1.353 . S
C1408 H1466 0.930 . S
C1409 N1405 1.279 . S
C1409 C1407 1.358 . S
C1409 H1467 0.930 . S
C1410 C1413 1.348 . S
C1410 C1414 1.356 . S
C1410 O1461 1.325 . S
C1411 N1412 1.279 . S
C1411 C1414 1.358 . S
C1411 H1468 0.930 . S
N1412 C1411 1.279 . S
N1412 C1415 1.314 . S
C1413 C1410 1.348 . S
C1413 C1415 1.353 . S
C1413 H1469 0.929 . S
C1414 C1410 1.356 . S
C1414 C1411 1.358 . S
C1414 H1470 0.930 . S
C1415 N1412 1.314 . S
C1415 C1413 1.353 . S
C1415 H1471 0.930 . S
C1416 N1417 1.314 . S
C1416 C1421 1.353 . S
C1416 H1422 0.930 . S
N1417 Li1400 1.990 . S
N1417 C1416 1.314 . S
N1417 C1419 1.279 . S
C1418 C1419 1.358 . S
C1418 C1420 1.356 . S
C1418 H1472 0.930 . S
C1419 N1417 1.279 . S
C1419 C1418 1.358 . S
C1419 H1423 0.930 . S
C1420 C1418 1.356 . S
C1420 C1421 1.348 . S
C1421 C1416 1.353 . S
C1421 C1420 1.348 . S
C1421 H1473 0.929 . S
H1422 C1416 0.930 . S
H1423 C1419 0.930 . S
C1424 N1425 1.314 . S
C1424 C1426 1.353 . S
C1424 H1430 0.930 . S
N1425 Li1401 1.990 . S
N1425 C1424 1.314 . S
N1425 C1428 1.279 . S
C1426 C1424 1.353 . S
C1426 C1429 1.348 . S
C1426 H1474 0.929 . S
C1427 C1428 1.358 . S
C1427 C1429 1.356 . S
C1427 H1475 0.930 . S
C1428 N1425 1.279 . S
C1428 C1427 1.358 . S
C1428 H1431 0.930 . S
C1429 C1426 1.348 . S
C1429 C1427 1.356 . S
H1430 C1424 0.930 . S
H1431 C1428 0.930 . S
C1432 C1434 1.348 . S
C1432 C1435 1.356 . S
C1432 O1462 1.325 . S
N1433 C1436 1.314 . S
N1433 C1437 1.279 . S
C1434 C1432 1.348 . S
C1434 C1436 1.353 . S
C1434 H1476 0.929 . S
C1435 C1432 1.356 . S
C1435 C1437 1.358 . S
C1435 H1477 0.930 . S
C1436 N1433 1.314 . S
C1436 C1434 1.353 . S
C1436 H1478 0.930 . S
C1437 N1433 1.279 . S
C1437 C1435 1.358 . S
C1437 H1479 0.930 . S
C1438 C1439 1.348 . S
C1438 C1440 1.356 . S
C1438 O1463 1.325 . S
C1439 C1438 1.348 . S
C1439 C1441 1.353 . S
C1439 H1480 0.929 . S
C1440 C1438 1.356 . S
C1440 C1442 1.358 . S
C1440 H1481 0.930 . S
C1441 C1439 1.353 . S
C1441 N1443 1.314 . S
C1441 H1482 0.930 . S
C1442 C1440 1.358 . S
C1442 N1443 1.279 . S
C1442 H1483 0.930 . S
N1443 C1441 1.314 . S
N1443 C1442 1.279 . S
C1444 C1446 1.353 . S
C1444 N1447 1.314 . S
C1444 H1450 0.930 . S
C1445 N1447 1.279 . S
C1445 C1448 1.358 . S
C1445 H1451 0.930 . S
C1446 C1444 1.353 . S
C1446 C1449 1.348 . S
C1446 H1484 0.929 . S
N1447 Li1402 1.990 . S
N1447 C1444 1.314 . S
N1447 C1445 1.279 . S
C1448 C1445 1.358 . S
C1448 C1449 1.356 . S
C1448 H1485 0.930 . S
C1449 C1446 1.348 . S
C1449 C1448 1.356 . S
H1450 C1444 0.930 . S
H1451 C1445 0.930 . S
C1452 N1453 1.314 . S
C1452 C1454 1.353 . S
C1452 H1458 0.930 . S
N1453 Li1403 1.990 . S
N1453 C1452 1.314 . S
N1453 C1456 1.279 . S
C1454 C1452 1.353 . S
C1454 C1457 1.348 . S
C1454 H1486 0.929 . S
C1455 C1456 1.358 . S
C1455 C1457 1.356 . S
C1455 H1487 0.930 . S
C1456 N1453 1.279 . S
C1456 C1455 1.358 . S
C1456 H1459 0.930 . S
C1457 C1454 1.348 . S
C1457 C1455 1.356 . S
H1458 C1452 0.930 . S
H1459 C1456 0.930 . S
O1460 Li1400 1.956 . S
O1460 Li1401 1.970 . S
O1460 Li1402 1.961 . S
O1460 C1404 1.325 . S
O1461 Li1400 1.970 . S
O1461 Li1401 1.956 . S
O1461 Li1403 1.961 . S
O1461 C1410 1.325 . S
O1462 Li1400 1.961 . S
O1462 Li1402 1.956 . S
O1462 Li1403 1.970 . S
O1462 C1432 1.325 . S
O1463 Li1401 1.961 . S
O1463 Li1402 1.970 . S
O1463 Li1403 1.956 . S
O1463 C1438 1.325 . S
H1464 C1406 0.929 . S
H1465 C1407 0.930 . S
H1466 C1408 0.930 . S
H1467 C1409 0.930 . S
H1468 C1411 0.930 . S
H1469 C1413 0.929 . S
H1470 C1414 0.930 . S
H1471 C1415 0.930 . S
H1472 C1418 0.930 . S
H1473 C1421 0.929 . S
H1474 C1426 0.929 . S
H1475 C1427 0.930 . S
H1476 C1434 0.929 . S
H1477 C1435 0.930 . S
H1478 C1436 0.930 . S
H1479 C1437 0.930 . S
H1480 C1439 0.929 . S
H1481 C1440 0.930 . S
H1482 C1441 0.930 . S
H1483 C1442 0.930 . S
H1484 C1446 0.929 . S
H1485 C1448 0.930 . S
H1486 C1454 0.929 . S
H1487 C1455 0.930 . S
Li1488 N1505 1.990 . S
Li1488 O1548 1.956 . S
Li1488 O1549 1.970 . S
Li1488 O1550 1.961 . S
Li1489 N1513 1.990 . S
Li1489 O1548 1.970 . S
Li1489 O1549 1.956 . S
Li1489 O1551 1.961 . S
Li1490 N1535 1.990 . S
Li1490 O1548 1.961 . S
Li1490 O1550 1.956 . S
Li1490 O1551 1.970 . S
Li1491 N1541 1.990 . S
Li1491 O1549 1.961 . S
Li1491 O1550 1.970 . S
Li1491 O1551 1.956 . S
C1492 C1494 1.348 . S
C1492 C1495 1.356 . S
C1492 O1548 1.325 . S
N1493 C1496 1.314 . S
N1493 C1497 1.279 . S
C1494 C1492 1.348 . S
C1494 C1496 1.353 . S
C1494 H1552 0.929 . S
C1495 C1492 1.356 . S
C1495 C1497 1.358 . S
C1495 H1553 0.930 . S
C1496 N1493 1.314 . S
C1496 C1494 1.353 . S
C1496 H1554 0.930 . S
C1497 N1493 1.279 . S
C1497 C1495 1.358 . S
C1497 H1555 0.930 . S
C1498 C1501 1.348 . S
C1498 C1502 1.356 . S
C1498 O1549 1.325 . S
C1499 N1500 1.279 . S
C1499 C1502 1.358 . S
C1499 H1556 0.930 . S
N1500 C1499 1.279 . S
N1500 C1503 1.314 . S
C1501 C1498 1.348 . S
C1501 C1503 1.353 . S
C1501 H1557 0.929 . S
C1502 C1498 1.356 . S
C1502 C1499 1.358 . S
C1502 H1558 0.930 . S
C1503 N1500 1.314 . S
C1503 C1501 1.353 . S
C1503 H1559 0.930 . S
C1504 N1505 1.314 . S
C1504 C1509 1.353 . S
C1504 H1510 0.930 . S
N1505 Li1488 1.990 . S
N1505 C1504 1.314 . S
N1505 C1507 1.279 . S
C1506 C1507 1.358 . S
C1506 C1508 1.356 . S
C1506 H1560 0.930 . S
C1507 N1505 1.279 . S
C1507 C1506 1.358 . S
C1507 H1511 0.930 . S
C1508 C1506 1.356 . S
C1508 C1509 1.348 . S
C1509 C1504 1.353 . S
C1509 C1508 1.348 . S
C1509 H1561 0.929 . S
H1510 C1504 0.930 . S
H1511 C1507 0.930 . S
C1512 N1513 1.314 . S
C1512 C1514 1.353 . S
C1512 H1518 0.930 . S
N1513 Li1489 1.990 . S
N1513 C1512 1.314 . S
N1513 C1516 1.279 . S
C1514 C1512 1.353 . S
C1514 C1517 1.348 . S
C1514 H1562 0.929 . S
C1515 C1516 1.358 . S
C1515 C1517 1.356 . S
C1515 H1563 0.930 . S
C1516 N1513 1.279 . S
C1516 C1515 1.358 . S
C1516 H1519 0.930 . S
C1517 C1514 1.348 . S
C1517 C1515 1.356 . S
H1518 C1512 0.930 . S
H1519 C1516 0.930 . S
C1520 C1522 1.348 . S
C1520 C1523 1.356 . S
C1520 O1550 1.325 . S
N1521 C1524 1.314 . S
N1521 C1525 1.279 . S
C1522 C1520 1.348 . S
C1522 C1524 1.353 . S
C1522 H1564 0.929 . S
C1523 C1520 1.356 . S
C1523 C1525 1.358 . S
C1523 H1565 0.930 . S
C1524 N1521 1.314 . S
C1524 C1522 1.353 . S
C1524 H1566 0.930 . S
C1525 N1521 1.279 . S
C1525 C1523 1.358 . S
C1525 H1567 0.930 . S
C1526 C1527 1.348 . S
C1526 C1528 1.356 . S
C1526 O1551 1.325 . S
C1527 C1526 1.348 . S
C1527 C1529 1.353 . S
C1527 H1568 0.929 . S
C1528 C1526 1.356 . S
C1528 C1530 1.358 . S
C1528 H1569 0.930 . S
C1529 C1527 1.353 . S
C1529 N1531 1.314 . S
C1529 H1570 0.930 . S
C1530 C1528 1.358 . S
C1530 N1531 1.279 . S
C1530 H1571 0.930 . S
N1531 C1529 1.314 . S
N1531 C1530 1.279 . S
C1532 C1534 1.353 . S
C1532 N1535 1.314 . S
C1532 H1538 0.930 . S
C1533 N1535 1.279 . S
C1533 C1536 1.358 . S
C1533 H1539 0.930 . S
C1534 C1532 1.353 . S
C1534 C1537 1.348 . S
C1534 H1572 0.929 . S
N1535 Li1490 1.990 . S
N1535 C1532 1.314 . S
N1535 C1533 1.279 . S
C1536 C1533 1.358 . S
C1536 C1537 1.356 . S
C1536 H1573 0.930 . S
C1537 C1534 1.348 . S
C1537 C1536 1.356 . S
H1538 C1532 0.930 . S
H1539 C1533 0.930 . S
C1540 N1541 1.314 . S
C1540 C1542 1.353 . S
C1540 H1546 0.930 . S
N1541 Li1491 1.990 . S
N1541 C1540 1.314 . S
N1541 C1544 1.279 . S
C1542 C1540 1.353 . S
C1542 C1545 1.348 . S
C1542 H1574 0.929 . S
C1543 C1544 1.358 . S
C1543 C1545 1.356 . S
C1543 H1575 0.930 . S
C1544 N1541 1.279 . S
C1544 C1543 1.358 . S
C1544 H1547 0.930 . S
C1545 C1542 1.348 . S
C1545 C1543 1.356 . S
H1546 C1540 0.930 . S
H1547 C1544 0.930 . S
O1548 Li1488 1.956 . S
O1548 Li1489 1.970 . S
O1548 Li1490 1.961 . S
O1548 C1492 1.325 . S
O1549 Li1488 1.970 . S
O1549 Li1489 1.956 . S
O1549 Li1491 1.961 . S
O1549 C1498 1.325 . S
O1550 Li1488 1.961 . S
O1550 Li1490 1.956 . S
O1550 Li1491 1.970 . S
O1550 C1520 1.325 . S
O1551 Li1489 1.961 . S
O1551 Li1490 1.970 . S
O1551 Li1491 1.956 . S
O1551 C1526 1.325 . S
H1552 C1494 0.929 . S
H1553 C1495 0.930 . S
H1554 C1496 0.930 . S
H1555 C1497 0.930 . S
H1556 C1499 0.930 . S
H1557 C1501 0.929 . S
H1558 C1502 0.930 . S
H1559 C1503 0.930 . S
H1560 C1506 0.930 . S
H1561 C1509 0.929 . S
H1562 C1514 0.929 . S
H1563 C1515 0.930 . S
H1564 C1522 0.929 . S
H1565 C1523 0.930 . S
H1566 C1524 0.930 . S
H1567 C1525 0.930 . S
H1568 C1527 0.929 . S
H1569 C1528 0.930 . S
H1570 C1529 0.930 . S
H1571 C1530 0.930 . S
H1572 C1534 0.929 . S
H1573 C1536 0.930 . S
H1574 C1542 0.929 . S
H1575 C1543 0.930 . S
Li1576 N1593 1.990 . S
Li1576 O1636 1.956 . S
Li1576 O1637 1.970 1_565 S
Li1576 O1638 1.961 . S
Li1577 N1601 1.990 . S
Li1577 O1636 1.970 1_545 S
Li1577 O1637 1.956 . S
Li1577 O1639 1.961 . S
Li1578 N1623 1.990 . S
Li1578 O1636 1.961 . S
Li1578 O1638 1.956 . S
Li1578 O1639 1.970 1_565 S
Li1579 N1629 1.990 . S
Li1579 O1637 1.961 . S
Li1579 O1638 1.970 1_545 S
Li1579 O1639 1.956 . S
C1580 C1582 1.348 . S
C1580 C1583 1.356 . S
C1580 O1636 1.325 . S
N1581 C1584 1.314 . S
N1581 C1585 1.279 . S
C1582 C1580 1.348 . S
C1582 C1584 1.353 . S
C1582 H1640 0.929 . S
C1583 C1580 1.356 . S
C1583 C1585 1.358 . S
C1583 H1641 0.930 . S
C1584 N1581 1.314 . S
C1584 C1582 1.353 . S
C1584 H1642 0.930 . S
C1585 N1581 1.279 . S
C1585 C1583 1.358 . S
C1585 H1643 0.930 . S
C1586 C1589 1.348 1_545 S
C1586 C1590 1.356 . S
C1586 O1637 1.325 . S
C1587 N1588 1.279 . S
C1587 C1590 1.358 . S
C1587 H1644 0.930 . S
N1588 C1587 1.279 . S
N1588 C1591 1.314 1_545 S
C1589 C1586 1.348 1_565 S
C1589 C1591 1.353 . S
C1589 H1645 0.929 . S
C1590 C1586 1.356 . S
C1590 C1587 1.358 . S
C1590 H1646 0.930 . S
C1591 N1588 1.314 1_565 S
C1591 C1589 1.353 . S
C1591 H1647 0.930 . S
C1592 N1593 1.314 . S
C1592 C1597 1.353 . S
C1592 H1598 0.930 . S
N1593 Li1576 1.990 . S
N1593 C1592 1.314 . S
N1593 C1595 1.279 . S
C1594 C1595 1.358 . S
C1594 C1596 1.356 . S
C1594 H1648 0.930 . S
C1595 N1593 1.279 . S
C1595 C1594 1.358 . S
C1595 H1599 0.930 . S
C1596 C1594 1.356 . S
C1596 C1597 1.348 . S
C1597 C1592 1.353 . S
C1597 C1596 1.348 . S
C1597 H1649 0.929 . S
H1598 C1592 0.930 . S
H1599 C1595 0.930 . S
C1600 N1601 1.314 . S
C1600 C1602 1.353 . S
C1600 H1606 0.930 . S
N1601 Li1577 1.990 . S
N1601 C1600 1.314 . S
N1601 C1604 1.279 . S
C1602 C1600 1.353 . S
C1602 C1605 1.348 . S
C1602 H1650 0.929 . S
C1603 C1604 1.358 . S
C1603 C1605 1.356 . S
C1603 H1651 0.930 . S
C1604 N1601 1.279 . S
C1604 C1603 1.358 . S
C1604 H1607 0.930 . S
C1605 C1602 1.348 . S
C1605 C1603 1.356 . S
H1606 C1600 0.930 . S
H1607 C1604 0.930 . S
C1608 C1610 1.348 1_565 S
C1608 C1611 1.356 . S
C1608 O1638 1.325 . S
N1609 C1612 1.314 1_565 S
N1609 C1613 1.279 . S
C1610 C1608 1.348 1_545 S
C1610 C1612 1.353 . S
C1610 H1652 0.929 . S
C1611 C1608 1.356 . S
C1611 C1613 1.358 . S
C1611 H1653 0.930 . S
C1612 N1609 1.314 1_545 S
C1612 C1610 1.353 . S
C1612 H1654 0.930 . S
C1613 N1609 1.279 . S
C1613 C1611 1.358 . S
C1613 H1655 0.930 . S
C1614 C1615 1.348 . S
C1614 C1616 1.356 . S
C1614 O1639 1.325 . S
C1615 C1614 1.348 . S
C1615 C1617 1.353 . S
C1615 H1656 0.929 . S
C1616 C1614 1.356 . S
C1616 C1618 1.358 . S
C1616 H1657 0.930 . S
C1617 C1615 1.353 . S
C1617 N1619 1.314 . S
C1617 H1658 0.930 . S
C1618 C1616 1.358 . S
C1618 N1619 1.279 . S
C1618 H1659 0.930 . S
N1619 C1617 1.314 . S
N1619 C1618 1.279 . S
C1620 C1622 1.353 . S
C1620 N1623 1.314 . S
C1620 H1626 0.930 . S
C1621 N1623 1.279 . S
C1621 C1624 1.358 . S
C1621 H1627 0.930 . S
C1622 C1620 1.353 . S
C1622 C1625 1.348 . S
C1622 H1660 0.929 . S
N1623 Li1578 1.990 . S
N1623 C1620 1.314 . S
N1623 C1621 1.279 . S
C1624 C1621 1.358 . S
C1624 C1625 1.356 . S
C1624 H1661 0.930 . S
C1625 C1622 1.348 . S
C1625 C1624 1.356 . S
H1626 C1620 0.930 . S
H1627 C1621 0.930 . S
C1628 N1629 1.314 . S
C1628 C1630 1.353 . S
C1628 H1634 0.930 . S
N1629 Li1579 1.990 . S
N1629 C1628 1.314 . S
N1629 C1632 1.279 . S
C1630 C1628 1.353 . S
C1630 C1633 1.348 . S
C1630 H1662 0.929 . S
C1631 C1632 1.358 . S
C1631 C1633 1.356 . S
C1631 H1663 0.930 . S
C1632 N1629 1.279 . S
C1632 C1631 1.358 . S
C1632 H1635 0.930 . S
C1633 C1630 1.348 . S
C1633 C1631 1.356 . S
H1634 C1628 0.930 . S
H1635 C1632 0.930 . S
O1636 Li1576 1.956 . S
O1636 Li1577 1.970 1_565 S
O1636 Li1578 1.961 . S
O1636 C1580 1.325 . S
O1637 Li1576 1.970 1_545 S
O1637 Li1577 1.956 . S
O1637 Li1579 1.961 . S
O1637 C1586 1.325 . S
O1638 Li1576 1.961 . S
O1638 Li1578 1.956 . S
O1638 Li1579 1.970 1_565 S
O1638 C1608 1.325 . S
O1639 Li1577 1.961 . S
O1639 Li1578 1.970 1_545 S
O1639 Li1579 1.956 . S
O1639 C1614 1.325 . S
H1640 C1582 0.929 . S
H1641 C1583 0.930 . S
H1642 C1584 0.930 . S
H1643 C1585 0.930 . S
H1644 C1587 0.930 . S
H1645 C1589 0.929 . S
H1646 C1590 0.930 . S
H1647 C1591 0.930 . S
H1648 C1594 0.930 . S
H1649 C1597 0.929 . S
H1650 C1602 0.929 . S
H1651 C1603 0.930 . S
H1652 C1610 0.929 . S
H1653 C1611 0.930 . S
H1654 C1612 0.930 . S
H1655 C1613 0.930 . S
H1656 C1615 0.929 . S
H1657 C1616 0.930 . S
H1658 C1617 0.930 . S
H1659 C1618 0.930 . S
H1660 C1622 0.929 . S
H1661 C1624 0.930 . S
H1662 C1630 0.929 . S
H1663 C1631 0.930 . S
Li1664 N1681 1.990 . S
Li1664 O1724 1.956 . S
Li1664 O1725 1.970 1_455 S
Li1664 O1726 1.961 . S
Li1665 N1689 1.990 . S
Li1665 O1724 1.970 1_655 S
Li1665 O1725 1.956 . S
Li1665 O1727 1.961 . S
Li1666 N1711 1.990 . S
Li1666 O1724 1.961 . S
Li1666 O1726 1.956 . S
Li1666 O1727 1.970 1_455 S
Li1667 N1717 1.990 . S
Li1667 O1725 1.961 . S
Li1667 O1726 1.970 1_655 S
Li1667 O1727 1.956 . S
C1668 C1670 1.348 . S
C1668 C1671 1.356 . S
C1668 O1724 1.325 . S
N1669 C1672 1.314 . S
N1669 C1673 1.279 . S
C1670 C1668 1.348 . S
C1670 C1672 1.353 . S
C1670 H1728 0.929 . S
C1671 C1668 1.356 . S
C1671 C1673 1.358 . S
C1671 H1729 0.930 . S
C1672 N1669 1.314 . S
C1672 C1670 1.353 . S
C1672 H1730 0.930 . S
C1673 N1669 1.279 . S
C1673 C1671 1.358 . S
C1673 H1731 0.930 . S
C1674 C1677 1.348 1_655 S
C1674 C1678 1.356 . S
C1674 O1725 1.325 . S
C1675 N1676 1.279 . S
C1675 C1678 1.358 . S
C1675 H1732 0.930 . S
N1676 C1675 1.279 . S
N1676 C1679 1.314 1_655 S
C1677 C1674 1.348 1_455 S
C1677 C1679 1.353 . S
C1677 H1733 0.929 . S
C1678 C1674 1.356 . S
C1678 C1675 1.358 . S
C1678 H1734 0.930 . S
C1679 N1676 1.314 1_455 S
C1679 C1677 1.353 . S
C1679 H1735 0.930 . S
C1680 N1681 1.314 . S
C1680 C1685 1.353 . S
C1680 H1686 0.930 . S
N1681 Li1664 1.990 . S
N1681 C1680 1.314 . S
N1681 C1683 1.279 . S
C1682 C1683 1.358 . S
C1682 C1684 1.356 . S
C1682 H1736 0.930 . S
C1683 N1681 1.279 . S
C1683 C1682 1.358 . S
C1683 H1687 0.930 . S
C1684 C1682 1.356 . S
C1684 C1685 1.348 . S
C1685 C1680 1.353 . S
C1685 C1684 1.348 . S
C1685 H1737 0.929 . S
H1686 C1680 0.930 . S
H1687 C1683 0.930 . S
C1688 N1689 1.314 . S
C1688 C1690 1.353 . S
C1688 H1694 0.930 . S
N1689 Li1665 1.990 . S
N1689 C1688 1.314 . S
N1689 C1692 1.279 . S
C1690 C1688 1.353 . S
C1690 C1693 1.348 . S
C1690 H1738 0.929 . S
C1691 C1692 1.358 . S
C1691 C1693 1.356 . S
C1691 H1739 0.930 . S
C1692 N1689 1.279 . S
C1692 C1691 1.358 . S
C1692 H1695 0.930 . S
C1693 C1690 1.348 . S
C1693 C1691 1.356 . S
H1694 C1688 0.930 . S
H1695 C1692 0.930 . S
C1696 C1698 1.348 1_455 S
C1696 C1699 1.356 . S
C1696 O1726 1.325 . S
N1697 C1700 1.314 1_455 S
N1697 C1701 1.279 . S
C1698 C1696 1.348 1_655 S
C1698 C1700 1.353 . S
C1698 H1740 0.929 . S
C1699 C1696 1.356 . S
C1699 C1701 1.358 . S
C1699 H1741 0.930 . S
C1700 N1697 1.314 1_655 S
C1700 C1698 1.353 . S
C1700 H1742 0.930 . S
C1701 N1697 1.279 . S
C1701 C1699 1.358 . S
C1701 H1743 0.930 . S
C1702 C1703 1.348 . S
C1702 C1704 1.356 . S
C1702 O1727 1.325 . S
C1703 C1702 1.348 . S
C1703 C1705 1.353 . S
C1703 H1744 0.929 . S
C1704 C1702 1.356 . S
C1704 C1706 1.358 . S
C1704 H1745 0.930 . S
C1705 C1703 1.353 . S
C1705 N1707 1.314 . S
C1705 H1746 0.930 . S
C1706 C1704 1.358 . S
C1706 N1707 1.279 . S
C1706 H1747 0.930 . S
N1707 C1705 1.314 . S
N1707 C1706 1.279 . S
C1708 C1710 1.353 . S
C1708 N1711 1.314 . S
C1708 H1714 0.930 . S
C1709 N1711 1.279 . S
C1709 C1712 1.358 . S
C1709 H1715 0.930 . S
C1710 C1708 1.353 . S
C1710 C1713 1.348 . S
C1710 H1748 0.929 . S
N1711 Li1666 1.990 . S
N1711 C1708 1.314 . S
N1711 C1709 1.279 . S
C1712 C1709 1.358 . S
C1712 C1713 1.356 . S
C1712 H1749 0.930 . S
C1713 C1710 1.348 . S
C1713 C1712 1.356 . S
H1714 C1708 0.930 . S
H1715 C1709 0.930 . S
C1716 N1717 1.314 . S
C1716 C1718 1.353 . S
C1716 H1722 0.930 . S
N1717 Li1667 1.990 . S
N1717 C1716 1.314 . S
N1717 C1720 1.279 . S
C1718 C1716 1.353 . S
C1718 C1721 1.348 . S
C1718 H1750 0.929 . S
C1719 C1720 1.358 . S
C1719 C1721 1.356 . S
C1719 H1751 0.930 . S
C1720 N1717 1.279 . S
C1720 C1719 1.358 . S
C1720 H1723 0.930 . S
C1721 C1718 1.348 . S
C1721 C1719 1.356 . S
H1722 C1716 0.930 . S
H1723 C1720 0.930 . S
O1724 Li1664 1.956 . S
O1724 Li1665 1.970 1_455 S
O1724 Li1666 1.961 . S
O1724 C1668 1.325 . S
O1725 Li1664 1.970 1_655 S
O1725 Li1665 1.956 . S
O1725 Li1667 1.961 . S
O1725 C1674 1.325 . S
O1726 Li1664 1.961 . S
O1726 Li1666 1.956 . S
O1726 Li1667 1.970 1_455 S
O1726 C1696 1.325 . S
O1727 Li1665 1.961 . S
O1727 Li1666 1.970 1_655 S
O1727 Li1667 1.956 . S
O1727 C1702 1.325 . S
H1728 C1670 0.929 . S
H1729 C1671 0.930 . S
H1730 C1672 0.930 . S
H1731 C1673 0.930 . S
H1732 C1675 0.930 . S
H1733 C1677 0.929 . S
H1734 C1678 0.930 . S
H1735 C1679 0.930 . S
H1736 C1682 0.930 . S
H1737 C1685 0.929 . S
H1738 C1690 0.929 . S
H1739 C1691 0.930 . S
H1740 C1698 0.929 . S
H1741 C1699 0.930 . S
H1742 C1700 0.930 . S
H1743 C1701 0.930 . S
H1744 C1703 0.929 . S
H1745 C1704 0.930 . S
H1746 C1705 0.930 . S
H1747 C1706 0.930 . S
H1748 C1710 0.929 . S
H1749 C1712 0.930 . S
H1750 C1718 0.929 . S
H1751 C1719 0.930 . S
Li1752 N1769 1.990 . S
Li1752 O1812 1.956 . S
Li1752 O1813 1.970 . S
Li1752 O1814 1.961 . S
Li1753 N1777 1.990 . S
Li1753 O1812 1.970 . S
Li1753 O1813 1.956 . S
Li1753 O1815 1.961 . S
Li1754 N1799 1.990 . S
Li1754 O1812 1.961 . S
Li1754 O1814 1.956 . S
Li1754 O1815 1.970 . S
Li1755 N1805 1.990 . S
Li1755 O1813 1.961 . S
Li1755 O1814 1.970 . S
Li1755 O1815 1.956 . S
C1756 C1758 1.348 . S
C1756 C1759 1.356 . S
C1756 O1812 1.325 . S
N1757 C1760 1.314 . S
N1757 C1761 1.279 . S
C1758 C1756 1.348 . S
C1758 C1760 1.353 . S
C1758 H1816 0.929 . S
C1759 C1756 1.356 . S
C1759 C1761 1.358 . S
C1759 H1817 0.930 . S
C1760 N1757 1.314 . S
C1760 C1758 1.353 . S
C1760 H1818 0.930 . S
C1761 N1757 1.279 . S
C1761 C1759 1.358 . S
C1761 H1819 0.930 . S
C1762 C1765 1.348 . S
C1762 C1766 1.356 . S
C1762 O1813 1.325 . S
C1763 N1764 1.279 . S
C1763 C1766 1.358 . S
C1763 H1820 0.930 . S
N1764 C1763 1.279 . S
N1764 C1767 1.314 . S
C1765 C1762 1.348 . S
C1765 C1767 1.353 . S
C1765 H1821 0.929 . S
C1766 C1762 1.356 . S
C1766 C1763 1.358 . S
C1766 H1822 0.930 . S
C1767 N1764 1.314 . S
C1767 C1765 1.353 . S
C1767 H1823 0.930 . S
C1768 N1769 1.314 . S
C1768 C1773 1.353 . S
C1768 H1774 0.930 . S
N1769 Li1752 1.990 . S
N1769 C1768 1.314 . S
N1769 C1771 1.279 . S
C1770 C1771 1.358 . S
C1770 C1772 1.356 . S
C1770 H1824 0.930 . S
C1771 N1769 1.279 . S
C1771 C1770 1.358 . S
C1771 H1775 0.930 . S
C1772 C1770 1.356 . S
C1772 C1773 1.348 . S
C1773 C1768 1.353 . S
C1773 C1772 1.348 . S
C1773 H1825 0.929 . S
H1774 C1768 0.930 . S
H1775 C1771 0.930 . S
C1776 N1777 1.314 . S
C1776 C1778 1.353 . S
C1776 H1782 0.930 . S
N1777 Li1753 1.990 . S
N1777 C1776 1.314 . S
N1777 C1780 1.279 . S
C1778 C1776 1.353 . S
C1778 C1781 1.348 . S
C1778 H1826 0.929 . S
C1779 C1780 1.358 . S
C1779 C1781 1.356 . S
C1779 H1827 0.930 . S
C1780 N1777 1.279 . S
C1780 C1779 1.358 . S
C1780 H1783 0.930 . S
C1781 C1778 1.348 . S
C1781 C1779 1.356 . S
H1782 C1776 0.930 . S
H1783 C1780 0.930 . S
C1784 C1786 1.348 . S
C1784 C1787 1.356 . S
C1784 O1814 1.325 . S
N1785 C1788 1.314 . S
N1785 C1789 1.279 . S
C1786 C1784 1.348 . S
C1786 C1788 1.353 . S
C1786 H1828 0.929 . S
C1787 C1784 1.356 . S
C1787 C1789 1.358 . S
C1787 H1829 0.930 . S
C1788 N1785 1.314 . S
C1788 C1786 1.353 . S
C1788 H1830 0.930 . S
C1789 N1785 1.279 . S
C1789 C1787 1.358 . S
C1789 H1831 0.930 . S
C1790 C1791 1.348 . S
C1790 C1792 1.356 . S
C1790 O1815 1.325 . S
C1791 C1790 1.348 . S
C1791 C1793 1.353 . S
C1791 H1832 0.929 . S
C1792 C1790 1.356 . S
C1792 C1794 1.358 . S
C1792 H1833 0.930 . S
C1793 C1791 1.353 . S
C1793 N1795 1.314 . S
C1793 H1834 0.930 . S
C1794 C1792 1.358 . S
C1794 N1795 1.279 . S
C1794 H1835 0.930 . S
N1795 C1793 1.314 . S
N1795 C1794 1.279 . S
C1796 C1798 1.353 . S
C1796 N1799 1.314 . S
C1796 H1802 0.930 . S
C1797 N1799 1.279 . S
C1797 C1800 1.358 . S
C1797 H1803 0.930 . S
C1798 C1796 1.353 . S
C1798 C1801 1.348 . S
C1798 H1836 0.929 . S
N1799 Li1754 1.990 . S
N1799 C1796 1.314 . S
N1799 C1797 1.279 . S
C1800 C1797 1.358 . S
C1800 C1801 1.356 . S
C1800 H1837 0.930 . S
C1801 C1798 1.348 . S
C1801 C1800 1.356 . S
H1802 C1796 0.930 . S
H1803 C1797 0.930 . S
C1804 N1805 1.314 . S
C1804 C1806 1.353 . S
C1804 H1810 0.930 . S
N1805 Li1755 1.990 . S
N1805 C1804 1.314 . S
N1805 C1808 1.279 . S
C1806 C1804 1.353 . S
C1806 C1809 1.348 . S
C1806 H1838 0.929 . S
C1807 C1808 1.358 . S
C1807 C1809 1.356 . S
C1807 H1839 0.930 . S
C1808 N1805 1.279 . S
C1808 C1807 1.358 . S
C1808 H1811 0.930 . S
C1809 C1806 1.348 . S
C1809 C1807 1.356 . S
H1810 C1804 0.930 . S
H1811 C1808 0.930 . S
O1812 Li1752 1.956 . S
O1812 Li1753 1.970 . S
O1812 Li1754 1.961 . S
O1812 C1756 1.325 . S
O1813 Li1752 1.970 . S
O1813 Li1753 1.956 . S
O1813 Li1755 1.961 . S
O1813 C1762 1.325 . S
O1814 Li1752 1.961 . S
O1814 Li1754 1.956 . S
O1814 Li1755 1.970 . S
O1814 C1784 1.325 . S
O1815 Li1753 1.961 . S
O1815 Li1754 1.970 . S
O1815 Li1755 1.956 . S
O1815 C1790 1.325 . S
H1816 C1758 0.929 . S
H1817 C1759 0.930 . S
H1818 C1760 0.930 . S
H1819 C1761 0.930 . S
H1820 C1763 0.930 . S
H1821 C1765 0.929 . S
H1822 C1766 0.930 . S
H1823 C1767 0.930 . S
H1824 C1770 0.930 . S
H1825 C1773 0.929 . S
H1826 C1778 0.929 . S
H1827 C1779 0.930 . S
H1828 C1786 0.929 . S
H1829 C1787 0.930 . S
H1830 C1788 0.930 . S
H1831 C1789 0.930 . S
H1832 C1791 0.929 . S
H1833 C1792 0.930 . S
H1834 C1793 0.930 . S
H1835 C1794 0.930 . S
H1836 C1798 0.929 . S
H1837 C1800 0.930 . S
H1838 C1806 0.929 . S
H1839 C1807 0.930 . S
Li1840 N1857 1.990 . S
Li1840 O1900 1.956 . S
Li1840 O1901 1.970 1_455 S
Li1840 O1902 1.961 . S
Li1841 N1865 1.990 . S
Li1841 O1900 1.970 1_655 S
Li1841 O1901 1.956 . S
Li1841 O1903 1.961 . S
Li1842 N1887 1.990 . S
Li1842 O1900 1.961 . S
Li1842 O1902 1.956 . S
Li1842 O1903 1.970 1_455 S
Li1843 N1893 1.990 . S
Li1843 O1901 1.961 . S
Li1843 O1902 1.970 1_655 S
Li1843 O1903 1.956 . S
C1844 C1846 1.348 1_455 S
C1844 C1847 1.356 . S
C1844 O1900 1.325 . S
N1845 C1848 1.314 1_455 S
N1845 C1849 1.279 . S
C1846 C1844 1.348 1_655 S
C1846 C1848 1.353 . S
C1846 H1904 0.929 . S
C1847 C1844 1.356 . S
C1847 C1849 1.358 . S
C1847 H1905 0.930 . S
C1848 N1845 1.314 1_655 S
C1848 C1846 1.353 . S
C1848 H1906 0.930 . S
C1849 N1845 1.279 . S
C1849 C1847 1.358 . S
C1849 H1907 0.930 . S
C1850 C1853 1.348 . S
C1850 C1854 1.356 . S
C1850 O1901 1.325 . S
C1851 N1852 1.279 . S
C1851 C1854 1.358 . S
C1851 H1908 0.930 . S
N1852 C1851 1.279 . S
N1852 C1855 1.314 . S
C1853 C1850 1.348 . S
C1853 C1855 1.353 . S
C1853 H1909 0.929 . S
C1854 C1850 1.356 . S
C1854 C1851 1.358 . S
C1854 H1910 0.930 . S
C1855 N1852 1.314 . S
C1855 C1853 1.353 . S
C1855 H1911 0.930 . S
C1856 N1857 1.314 . S
C1856 C1861 1.353 . S
C1856 H1862 0.930 . S
N1857 Li1840 1.990 . S
N1857 C1856 1.314 . S
N1857 C1859 1.279 . S
C1858 C1859 1.358 . S
C1858 C1860 1.356 . S
C1858 H1912 0.930 . S
C1859 N1857 1.279 . S
C1859 C1858 1.358 . S
C1859 H1863 0.930 . S
C1860 C1858 1.356 . S
C1860 C1861 1.348 . S
C1861 C1856 1.353 . S
C1861 C1860 1.348 . S
C1861 H1913 0.929 . S
H1862 C1856 0.930 . S
H1863 C1859 0.930 . S
C1864 N1865 1.314 . S
C1864 C1866 1.353 . S
C1864 H1870 0.930 . S
N1865 Li1841 1.990 . S
N1865 C1864 1.314 . S
N1865 C1868 1.279 . S
C1866 C1864 1.353 . S
C1866 C1869 1.348 . S
C1866 H1914 0.929 . S
C1867 C1868 1.358 . S
C1867 C1869 1.356 . S
C1867 H1915 0.930 . S
C1868 N1865 1.279 . S
C1868 C1867 1.358 . S
C1868 H1871 0.930 . S
C1869 C1866 1.348 . S
C1869 C1867 1.356 . S
H1870 C1864 0.930 . S
H1871 C1868 0.930 . S
C1872 C1874 1.348 . S
C1872 C1875 1.356 . S
C1872 O1902 1.325 . S
N1873 C1876 1.314 . S
N1873 C1877 1.279 . S
C1874 C1872 1.348 . S
C1874 C1876 1.353 . S
C1874 H1916 0.929 . S
C1875 C1872 1.356 . S
C1875 C1877 1.358 . S
C1875 H1917 0.930 . S
C1876 N1873 1.314 . S
C1876 C1874 1.353 . S
C1876 H1918 0.930 . S
C1877 N1873 1.279 . S
C1877 C1875 1.358 . S
C1877 H1919 0.930 . S
C1878 C1879 1.348 1_655 S
C1878 C1880 1.356 . S
C1878 O1903 1.325 . S
C1879 C1878 1.348 1_455 S
C1879 C1881 1.353 . S
C1879 H1920 0.929 . S
C1880 C1878 1.356 . S
C1880 C1882 1.358 . S
C1880 H1921 0.930 . S
C1881 C1879 1.353 . S
C1881 N1883 1.314 1_455 S
C1881 H1922 0.930 . S
C1882 C1880 1.358 . S
C1882 N1883 1.279 . S
C1882 H1923 0.930 . S
N1883 C1881 1.314 1_655 S
N1883 C1882 1.279 . S
C1884 C1886 1.353 . S
C1884 N1887 1.314 . S
C1884 H1890 0.930 . S
C1885 N1887 1.279 . S
C1885 C1888 1.358 . S
C1885 H1891 0.930 . S
C1886 C1884 1.353 . S
C1886 C1889 1.348 . S
C1886 H1924 0.929 . S
N1887 Li1842 1.990 . S
N1887 C1884 1.314 . S
N1887 C1885 1.279 . S
C1888 C1885 1.358 . S
C1888 C1889 1.356 . S
C1888 H1925 0.930 . S
C1889 C1886 1.348 . S
C1889 C1888 1.356 . S
H1890 C1884 0.930 . S
H1891 C1885 0.930 . S
C1892 N1893 1.314 . S
C1892 C1894 1.353 . S
C1892 H1898 0.930 . S
N1893 Li1843 1.990 . S
N1893 C1892 1.314 . S
N1893 C1896 1.279 . S
C1894 C1892 1.353 . S
C1894 C1897 1.348 . S
C1894 H1926 0.929 . S
C1895 C1896 1.358 . S
C1895 C1897 1.356 . S
C1895 H1927 0.930 . S
C1896 N1893 1.279 . S
C1896 C1895 1.358 . S
C1896 H1899 0.930 . S
C1897 C1894 1.348 . S
C1897 C1895 1.356 . S
H1898 C1892 0.930 . S
H1899 C1896 0.930 . S
O1900 Li1840 1.956 . S
O1900 Li1841 1.970 1_455 S
O1900 Li1842 1.961 . S
O1900 C1844 1.325 . S
O1901 Li1840 1.970 1_655 S
O1901 Li1841 1.956 . S
O1901 Li1843 1.961 . S
O1901 C1850 1.325 . S
O1902 Li1840 1.961 . S
O1902 Li1842 1.956 . S
O1902 Li1843 1.970 1_455 S
O1902 C1872 1.325 . S
O1903 Li1841 1.961 . S
O1903 Li1842 1.970 1_655 S
O1903 Li1843 1.956 . S
O1903 C1878 1.325 . S
H1904 C1846 0.929 . S
H1905 C1847 0.930 . S
H1906 C1848 0.930 . S
H1907 C1849 0.930 . S
H1908 C1851 0.930 . S
H1909 C1853 0.929 . S
H1910 C1854 0.930 . S
H1911 C1855 0.930 . S
H1912 C1858 0.930 . S
H1913 C1861 0.929 . S
H1914 C1866 0.929 . S
H1915 C1867 0.930 . S
H1916 C1874 0.929 . S
H1917 C1875 0.930 . S
H1918 C1876 0.930 . S
H1919 C1877 0.930 . S
H1920 C1879 0.929 . S
H1921 C1880 0.930 . S
H1922 C1881 0.930 . S
H1923 C1882 0.930 . S
H1924 C1886 0.929 . S
H1925 C1888 0.930 . S
H1926 C1894 0.929 . S
H1927 C1895 0.930 . S
Li1928 N1945 1.990 . S
Li1928 O1988 1.956 . S
Li1928 O1989 1.970 . S
Li1928 O1990 1.961 . S
Li1929 N1953 1.990 . S
Li1929 O1988 1.970 . S
Li1929 O1989 1.956 . S
Li1929 O1991 1.961 . S
Li1930 N1975 1.990 . S
Li1930 O1988 1.961 . S
Li1930 O1990 1.956 . S
Li1930 O1991 1.970 . S
Li1931 N1981 1.990 . S
Li1931 O1989 1.961 . S
Li1931 O1990 1.970 . S
Li1931 O1991 1.956 . S
C1932 C1934 1.348 . S
C1932 C1935 1.356 . S
C1932 O1988 1.325 . S
N1933 C1936 1.314 . S
N1933 C1937 1.279 . S
C1934 C1932 1.348 . S
C1934 C1936 1.353 . S
C1934 H1992 0.929 . S
C1935 C1932 1.356 . S
C1935 C1937 1.358 . S
C1935 H1993 0.930 . S
C1936 N1933 1.314 . S
C1936 C1934 1.353 . S
C1936 H1994 0.930 . S
C1937 N1933 1.279 . S
C1937 C1935 1.358 . S
C1937 H1995 0.930 . S
C1938 C1941 1.348 . S
C1938 C1942 1.356 . S
C1938 O1989 1.325 . S
C1939 N1940 1.279 . S
C1939 C1942 1.358 . S
C1939 H1996 0.930 . S
N1940 C1939 1.279 . S
N1940 C1943 1.314 . S
C1941 C1938 1.348 . S
C1941 C1943 1.353 . S
C1941 H1997 0.929 . S
C1942 C1938 1.356 . S
C1942 C1939 1.358 . S
C1942 H1998 0.930 . S
C1943 N1940 1.314 . S
C1943 C1941 1.353 . S
C1943 H1999 0.930 . S
C1944 N1945 1.314 . S
C1944 C1949 1.353 . S
C1944 H1950 0.930 . S
N1945 Li1928 1.990 . S
N1945 C1944 1.314 . S
N1945 C1947 1.279 . S
C1946 C1947 1.358 . S
C1946 C1948 1.356 . S
C1946 H2000 0.930 . S
C1947 N1945 1.279 . S
C1947 C1946 1.358 . S
C1947 H1951 0.930 . S
C1948 C1946 1.356 . S
C1948 C1949 1.348 . S
C1949 C1944 1.353 . S
C1949 C1948 1.348 . S
C1949 H2001 0.929 . S
H1950 C1944 0.930 . S
H1951 C1947 0.930 . S
C1952 N1953 1.314 . S
C1952 C1954 1.353 . S
C1952 H1958 0.930 . S
N1953 Li1929 1.990 . S
N1953 C1952 1.314 . S
N1953 C1956 1.279 . S
C1954 C1952 1.353 . S
C1954 C1957 1.348 . S
C1954 H2002 0.929 . S
C1955 C1956 1.358 . S
C1955 C1957 1.356 . S
C1955 H2003 0.930 . S
C1956 N1953 1.279 . S
C1956 C1955 1.358 . S
C1956 H1959 0.930 . S
C1957 C1954 1.348 . S
C1957 C1955 1.356 . S
H1958 C1952 0.930 . S
H1959 C1956 0.930 . S
C1960 C1962 1.348 . S
C1960 C1963 1.356 . S
C1960 O1990 1.325 . S
N1961 C1964 1.314 . S
N1961 C1965 1.279 . S
C1962 C1960 1.348 . S
C1962 C1964 1.353 . S
C1962 H2004 0.929 . S
C1963 C1960 1.356 . S
C1963 C1965 1.358 . S
C1963 H2005 0.930 . S
C1964 N1961 1.314 . S
C1964 C1962 1.353 . S
C1964 H2006 0.930 . S
C1965 N1961 1.279 . S
C1965 C1963 1.358 . S
C1965 H2007 0.930 . S
C1966 C1967 1.348 . S
C1966 C1968 1.356 . S
C1966 O1991 1.325 . S
C1967 C1966 1.348 . S
C1967 C1969 1.353 . S
C1967 H2008 0.929 . S
C1968 C1966 1.356 . S
C1968 C1970 1.358 . S
C1968 H2009 0.930 . S
C1969 C1967 1.353 . S
C1969 N1971 1.314 . S
C1969 H2010 0.930 . S
C1970 C1968 1.358 . S
C1970 N1971 1.279 . S
C1970 H2011 0.930 . S
N1971 C1969 1.314 . S
N1971 C1970 1.279 . S
C1972 C1974 1.353 . S
C1972 N1975 1.314 . S
C1972 H1978 0.930 . S
C1973 N1975 1.279 . S
C1973 C1976 1.358 . S
C1973 H1979 0.930 . S
C1974 C1972 1.353 . S
C1974 C1977 1.348 . S
C1974 H2012 0.929 . S
N1975 Li1930 1.990 . S
N1975 C1972 1.314 . S
N1975 C1973 1.279 . S
C1976 C1973 1.358 . S
C1976 C1977 1.356 . S
C1976 H2013 0.930 . S
C1977 C1974 1.348 . S
C1977 C1976 1.356 . S
H1978 C1972 0.930 . S
H1979 C1973 0.930 . S
C1980 N1981 1.314 . S
C1980 C1982 1.353 . S
C1980 H1986 0.930 . S
N1981 Li1931 1.990 . S
N1981 C1980 1.314 . S
N1981 C1984 1.279 . S
C1982 C1980 1.353 . S
C1982 C1985 1.348 . S
C1982 H2014 0.929 . S
C1983 C1984 1.358 . S
C1983 C1985 1.356 . S
C1983 H2015 0.930 . S
C1984 N1981 1.279 . S
C1984 C1983 1.358 . S
C1984 H1987 0.930 . S
C1985 C1982 1.348 . S
C1985 C1983 1.356 . S
H1986 C1980 0.930 . S
H1987 C1984 0.930 . S
O1988 Li1928 1.956 . S
O1988 Li1929 1.970 . S
O1988 Li1930 1.961 . S
O1988 C1932 1.325 . S
O1989 Li1928 1.970 . S
O1989 Li1929 1.956 . S
O1989 Li1931 1.961 . S
O1989 C1938 1.325 . S
O1990 Li1928 1.961 . S
O1990 Li1930 1.956 . S
O1990 Li1931 1.970 . S
O1990 C1960 1.325 . S
O1991 Li1929 1.961 . S
O1991 Li1930 1.970 . S
O1991 Li1931 1.956 . S
O1991 C1966 1.325 . S
H1992 C1934 0.929 . S
H1993 C1935 0.930 . S
H1994 C1936 0.930 . S
H1995 C1937 0.930 . S
H1996 C1939 0.930 . S
H1997 C1941 0.929 . S
H1998 C1942 0.930 . S
H1999 C1943 0.930 . S
H2000 C1946 0.930 . S
H2001 C1949 0.929 . S
H2002 C1954 0.929 . S
H2003 C1955 0.930 . S
H2004 C1962 0.929 . S
H2005 C1963 0.930 . S
H2006 C1964 0.930 . S
H2007 C1965 0.930 . S
H2008 C1967 0.929 . S
H2009 C1968 0.930 . S
H2010 C1969 0.930 . S
H2011 C1970 0.930 . S
H2012 C1974 0.929 . S
H2013 C1976 0.930 . S
H2014 C1982 0.929 . S
H2015 C1983 0.930 . S
C2016 C2017 1.369 . S
C2016 C2018 1.419 . S
C2016 H2020 0.930 . S
C2017 C2016 1.369 . S
C2017 C2026 1.429 . S
C2018 C2016 1.419 . S
C2018 C2019 1.363 . S
C2018 H2021 0.929 . S
C2019 C2018 1.363 . S
C2019 C2025 1.428 . S
H2020 C2016 0.930 . S
H2021 C2018 0.929 . S
S2022 N2023 1.613 . S
S2022 N2024 1.610 . S
N2023 S2022 1.613 . S
N2023 C2026 1.350 . S
N2024 S2022 1.610 . S
N2024 C2025 1.351 . S
C2025 C2019 1.428 . S
C2025 N2024 1.351 . S
C2025 C2026 1.434 . S
C2026 C2017 1.429 . S
C2026 N2023 1.350 . S
C2026 C2025 1.434 . S
C2027 C2028 1.369 . S
C2027 C2029 1.419 . S
C2027 H2031 0.930 . S
C2028 C2027 1.369 . S
C2028 C2037 1.429 . S
C2029 C2027 1.419 . S
C2029 C2030 1.363 . S
C2029 H2032 0.929 . S
C2030 C2029 1.363 . S
C2030 C2036 1.428 . S
H2031 C2027 0.930 . S
H2032 C2029 0.929 . S
S2033 N2034 1.613 . S
S2033 N2035 1.610 . S
N2034 S2033 1.613 . S
N2034 C2037 1.350 . S
N2035 S2033 1.610 . S
N2035 C2036 1.351 . S
C2036 C2030 1.428 . S
C2036 N2035 1.351 . S
C2036 C2037 1.434 . S
C2037 C2028 1.429 . S
C2037 N2034 1.350 . S
C2037 C2036 1.434 . S
C2038 C2039 1.369 . S
C2038 C2040 1.419 . S
C2038 H2042 0.930 . S
C2039 C2038 1.369 . S
C2039 C2048 1.429 . S
C2040 C2038 1.419 . S
C2040 C2041 1.363 . S
C2040 H2043 0.929 . S
C2041 C2040 1.363 . S
C2041 C2047 1.428 . S
H2042 C2038 0.930 . S
H2043 C2040 0.929 . S
S2044 N2045 1.613 . S
S2044 N2046 1.610 . S
N2045 S2044 1.613 . S
N2045 C2048 1.350 . S
N2046 S2044 1.610 . S
N2046 C2047 1.351 . S
C2047 C2041 1.428 . S
C2047 N2046 1.351 . S
C2047 C2048 1.434 . S
C2048 C2039 1.429 . S
C2048 N2045 1.350 . S
C2048 C2047 1.434 . S
C2049 C2050 1.369 . S
C2049 C2051 1.419 . S
C2049 H2053 0.930 . S
C2050 C2049 1.369 . S
C2050 C2059 1.429 . S
C2051 C2049 1.419 . S
C2051 C2052 1.363 . S
C2051 H2054 0.929 . S
C2052 C2051 1.363 . S
C2052 C2058 1.448 . S
H2053 C2049 0.930 . S
H2054 C2051 0.929 . S
S2055 N2056 1.613 . S
S2055 N2057 1.610 . S
N2056 S2055 1.613 . S
N2056 C2059 1.350 1_545 S
N2057 S2055 1.610 . S
N2057 C2058 1.327 1_545 S
C2058 C2052 1.448 . S
C2058 N2057 1.327 1_565 S
C2058 C2059 1.436 . S
C2059 C2050 1.429 . S
C2059 N2056 1.350 1_565 S
C2059 C2058 1.436 . S
C2060 C2061 1.369 . S
C2060 C2062 1.419 . S
C2060 H2064 0.930 . S
C2061 C2060 1.369 . S
C2061 C2070 1.429 . S
C2062 C2060 1.419 . S
C2062 C2063 1.363 . S
C2062 H2065 0.929 . S
C2063 C2062 1.363 . S
C2063 C2069 1.428 . S
H2064 C2060 0.930 . S
H2065 C2062 0.929 . S
S2066 N2067 1.613 . S
S2066 N2068 1.610 . S
N2067 S2066 1.613 . S
N2067 C2070 1.350 . S
N2068 S2066 1.610 . S
N2068 C2069 1.351 . S
C2069 C2063 1.428 . S
C2069 N2068 1.351 . S
C2069 C2070 1.434 . S
C2070 C2061 1.429 . S
C2070 N2067 1.350 . S
C2070 C2069 1.434 . S
C2071 C2072 1.369 . S
C2071 C2073 1.419 . S
C2071 H2075 0.930 . S
C2072 C2071 1.369 . S
C2072 C2081 1.429 . S
C2073 C2071 1.419 . S
C2073 C2074 1.363 . S
C2073 H2076 0.929 . S
C2074 C2073 1.363 . S
C2074 C2080 1.428 . S
H2075 C2071 0.930 . S
H2076 C2073 0.929 . S
S2077 N2078 1.613 . S
S2077 N2079 1.610 . S
N2078 S2077 1.613 . S
N2078 C2081 1.350 . S
N2079 S2077 1.610 . S
N2079 C2080 1.351 . S
C2080 C2074 1.428 . S
C2080 N2079 1.351 . S
C2080 C2081 1.434 . S
C2081 C2072 1.429 . S
C2081 N2078 1.350 . S
C2081 C2080 1.434 . S
C2082 C2083 1.369 . S
C2082 C2084 1.419 . S
C2082 H2086 0.930 . S
C2083 C2082 1.369 . S
C2083 C2092 1.429 . S
C2084 C2082 1.419 . S
C2084 C2085 1.363 . S
C2084 H2087 0.929 . S
C2085 C2084 1.363 . S
C2085 C2091 1.428 . S
H2086 C2082 0.930 . S
H2087 C2084 0.929 . S
S2088 N2089 1.613 . S
S2088 N2090 1.610 . S
N2089 S2088 1.613 . S
N2089 C2092 1.350 . S
N2090 S2088 1.610 . S
N2090 C2091 1.351 . S
C2091 C2085 1.428 . S
C2091 N2090 1.351 . S
C2091 C2092 1.434 . S
C2092 C2083 1.429 . S
C2092 N2089 1.350 . S
C2092 C2091 1.434 . S
C2093 C2094 1.369 . S
C2093 C2095 1.419 . S
C2093 H2097 0.930 1_565 S
C2094 C2093 1.369 . S
C2094 C2103 1.429 . S
C2095 C2093 1.419 . S
C2095 C2096 1.368 . S
C2095 H2098 0.923 1_565 S
C2096 C2095 1.368 . S
C2096 C2102 1.428 . S
H2097 C2093 0.930 1_545 S
H2098 C2095 0.923 1_545 S
S2099 N2100 1.613 . S
S2099 N2101 1.610 . S
N2100 S2099 1.613 . S
N2100 C2103 1.350 . S
N2101 S2099 1.610 . S
N2101 C2102 1.351 . S
C2102 C2096 1.428 . S
C2102 N2101 1.351 . S
C2102 C2103 1.434 . S
C2103 C2094 1.429 . S
C2103 N2100 1.350 . S
C2103 C2102 1.434 . S
C2104 C2105 1.369 . S
C2104 C2106 1.419 . S
C2104 H2108 0.930 . S
C2105 C2104 1.369 . S
C2105 C2114 1.429 . S
C2106 C2104 1.419 . S
C2106 C2107 1.363 . S
C2106 H2109 0.929 . S
C2107 C2106 1.363 . S
C2107 C2113 1.428 . S
H2108 C2104 0.930 . S
H2109 C2106 0.929 . S
S2110 N2111 1.613 . S
S2110 N2112 1.610 . S
N2111 S2110 1.613 . S
N2111 C2114 1.350 . S
N2112 S2110 1.610 . S
N2112 C2113 1.351 . S
C2113 C2107 1.428 . S
C2113 N2112 1.351 . S
C2113 C2114 1.434 . S
C2114 C2105 1.429 . S
C2114 N2111 1.350 . S
C2114 C2113 1.434 . S
C2115 C2116 1.369 . S
C2115 C2117 1.419 . S
C2115 H2119 0.930 . S
C2116 C2115 1.369 . S
C2116 C2125 1.429 . S
C2117 C2115 1.419 . S
C2117 C2118 1.363 . S
C2117 H2120 0.929 . S
C2118 C2117 1.363 . S
C2118 C2124 1.428 . S
H2119 C2115 0.930 . S
H2120 C2117 0.929 . S
S2121 N2122 1.613 . S
S2121 N2123 1.610 . S
N2122 S2121 1.613 . S
N2122 C2125 1.350 . S
N2123 S2121 1.610 . S
N2123 C2124 1.351 . S
C2124 C2118 1.428 . S
C2124 N2123 1.351 . S
C2124 C2125 1.434 . S
C2125 C2116 1.429 . S
C2125 N2122 1.350 . S
C2125 C2124 1.434 . S
C2126 C2127 1.369 . S
C2126 C2128 1.419 . S
C2126 H2130 0.930 . S
C2127 C2126 1.369 . S
C2127 C2136 1.429 . S
C2128 C2126 1.419 . S
C2128 C2129 1.363 . S
C2128 H2131 0.929 . S
C2129 C2128 1.363 . S
C2129 C2135 1.428 . S
H2130 C2126 0.930 . S
H2131 C2128 0.929 . S
S2132 N2133 1.613 . S
S2132 N2134 1.610 . S
N2133 S2132 1.613 . S
N2133 C2136 1.350 . S
N2134 S2132 1.610 . S
N2134 C2135 1.351 . S
C2135 C2129 1.428 . S
C2135 N2134 1.351 . S
C2135 C2136 1.434 . S
C2136 C2127 1.429 . S
C2136 N2133 1.350 . S
C2136 C2135 1.434 . S
C2137 C2138 1.369 . S
C2137 C2139 1.419 . S
C2137 H2141 0.930 . S
C2138 C2137 1.369 . S
C2138 C2147 1.429 . S
C2139 C2137 1.419 . S
C2139 C2140 1.363 . S
C2139 H2142 0.929 . S
C2140 C2139 1.363 . S
C2140 C2146 1.428 . S
H2141 C2137 0.930 . S
H2142 C2139 0.929 . S
S2143 N2144 1.613 . S
S2143 N2145 1.610 . S
N2144 S2143 1.613 . S
N2144 C2147 1.350 . S
N2145 S2143 1.610 . S
N2145 C2146 1.351 . S
C2146 C2140 1.428 . S
C2146 N2145 1.351 . S
C2146 C2147 1.434 . S
C2147 C2138 1.429 . S
C2147 N2144 1.350 . S
C2147 C2146 1.434 . S
C2148 C2149 1.369 . S
C2148 C2150 1.419 . S
C2148 H2152 0.930 . S
C2149 C2148 1.369 . S
C2149 C2158 1.429 . S
C2150 C2148 1.419 . S
C2150 C2151 1.363 . S
C2150 H2153 0.929 . S
C2151 C2150 1.363 . S
C2151 C2157 1.428 . S
H2152 C2148 0.930 . S
H2153 C2150 0.929 . S
S2154 N2155 1.613 . S
S2154 N2156 1.610 . S
N2155 S2154 1.613 . S
N2155 C2158 1.350 . S
N2156 S2154 1.610 . S
N2156 C2157 1.351 . S
C2157 C2151 1.428 . S
C2157 N2156 1.351 . S
C2157 C2158 1.434 . S
C2158 C2149 1.429 . S
C2158 N2155 1.350 . S
C2158 C2157 1.434 . S
C2159 C2160 1.369 . S
C2159 C2161 1.419 . S
C2159 H2163 0.930 . S
C2160 C2159 1.369 . S
C2160 C2169 1.429 . S
C2161 C2159 1.419 . S
C2161 C2162 1.363 . S
C2161 H2164 0.929 . S
C2162 C2161 1.363 . S
C2162 C2168 1.428 . S
H2163 C2159 0.930 . S
H2164 C2161 0.929 . S
S2165 N2166 1.613 . S
S2165 N2167 1.610 . S
N2166 S2165 1.613 . S
N2166 C2169 1.350 1_655 S
N2167 S2165 1.610 . S
N2167 C2168 1.351 1_655 S
C2168 C2162 1.428 . S
C2168 N2167 1.351 1_455 S
C2168 C2169 1.434 . S
C2169 C2160 1.429 . S
C2169 N2166 1.350 1_455 S
C2169 C2168 1.434 . S
C2170 C2171 1.369 . S
C2170 C2172 1.419 . S
C2170 H2174 0.930 . S
C2171 C2170 1.369 . S
C2171 C2180 1.429 . S
C2172 C2170 1.419 . S
C2172 C2173 1.363 . S
C2172 H2175 0.929 . S
C2173 C2172 1.363 . S
C2173 C2179 1.428 . S
H2174 C2170 0.930 . S
H2175 C2172 0.929 . S
S2176 N2177 1.613 . S
S2176 N2178 1.610 . S
N2177 S2176 1.613 . S
N2177 C2180 1.350 . S
N2178 S2176 1.610 . S
N2178 C2179 1.351 . S
C2179 C2173 1.428 . S
C2179 N2178 1.351 . S
C2179 C2180 1.434 . S
C2180 C2171 1.429 . S
C2180 N2177 1.350 . S
C2180 C2179 1.434 . S
C2181 C2182 1.369 . S
C2181 C2183 1.419 . S
C2181 H2185 0.930 . S
C2182 C2181 1.369 . S
C2182 C2191 1.429 . S
C2183 C2181 1.419 . S
C2183 C2184 1.363 . S
C2183 H2186 0.929 . S
C2184 C2183 1.363 . S
C2184 C2190 1.428 . S
H2185 C2181 0.930 . S
H2186 C2183 0.929 . S
S2187 N2188 1.613 . S
S2187 N2189 1.610 . S
N2188 S2187 1.613 . S
N2188 C2191 1.350 1_455 S
N2189 S2187 1.610 . S
N2189 C2190 1.351 1_455 S
C2190 C2184 1.428 . S
C2190 N2189 1.351 1_655 S
C2190 C2191 1.434 . S
C2191 C2182 1.429 . S
C2191 N2188 1.350 1_655 S
C2191 C2190 1.434 . S
C2192 C2193 1.369 . S
C2192 C2194 1.419 . S
C2192 H2196 0.930 . S
C2193 C2192 1.369 . S
C2193 C2202 1.429 . S
C2194 C2192 1.419 . S
C2194 C2195 1.363 . S
C2194 H2197 0.929 . S
C2195 C2194 1.363 . S
C2195 C2201 1.428 . S
H2196 C2192 0.930 . S
H2197 C2194 0.929 . S
S2198 N2199 1.613 . S
S2198 N2200 1.610 . S
N2199 S2198 1.613 . S
N2199 C2202 1.350 . S
N2200 S2198 1.610 . S
N2200 C2201 1.351 . S
C2201 C2195 1.428 . S
C2201 N2200 1.351 . S
C2201 C2202 1.434 . S
C2202 C2193 1.429 . S
C2202 N2199 1.350 . S
C2202 C2201 1.434 . S
C2203 C2204 1.369 . S
C2203 C2205 1.419 . S
C2203 H2207 0.930 . S
C2204 C2203 1.369 . S
C2204 C2213 1.429 . S
C2205 C2203 1.419 . S
C2205 C2206 1.363 . S
C2205 H2208 0.929 . S
C2206 C2205 1.363 . S
C2206 C2212 1.428 . S
H2207 C2203 0.930 . S
H2208 C2205 0.929 . S
S2209 N2210 1.613 . S
S2209 N2211 1.610 . S
N2210 S2209 1.613 . S
N2210 C2213 1.350 . S
N2211 S2209 1.610 . S
N2211 C2212 1.351 . S
C2212 C2206 1.428 . S
C2212 N2211 1.351 . S
C2212 C2213 1.434 . S
C2213 C2204 1.429 . S
C2213 N2210 1.350 . S
C2213 C2212 1.434 . S
C2214 C2215 1.369 . S
C2214 C2216 1.419 . S
C2214 H2218 0.930 . S
C2215 C2214 1.369 . S
C2215 C2224 1.429 . S
C2216 C2214 1.419 . S
C2216 C2217 1.363 . S
C2216 H2219 0.929 . S
C2217 C2216 1.363 . S
C2217 C2223 1.428 . S
H2218 C2214 0.930 . S
H2219 C2216 0.929 . S
S2220 N2221 1.613 . S
S2220 N2222 1.610 . S
N2221 S2220 1.613 . S
N2221 C2224 1.350 . S
N2222 S2220 1.610 . S
N2222 C2223 1.351 . S
C2223 C2217 1.428 . S
C2223 N2222 1.351 . S
C2223 C2224 1.434 . S
C2224 C2215 1.429 . S
C2224 N2221 1.350 . S
C2224 C2223 1.434 . S
C2225 C2226 1.369 . S
C2225 C2227 1.419 . S
C2225 H2229 0.930 . S
C2226 C2225 1.369 . S
C2226 C2235 1.429 . S
C2227 C2225 1.419 . S
C2227 C2228 1.363 . S
C2227 H2230 0.929 . S
C2228 C2227 1.363 . S
C2228 C2234 1.428 . S
H2229 C2225 0.930 . S
H2230 C2227 0.929 . S
S2231 N2232 1.613 . S
S2231 N2233 1.610 . S
N2232 S2231 1.613 . S
N2232 C2235 1.350 . S
N2233 S2231 1.610 . S
N2233 C2234 1.351 . S
C2234 C2228 1.428 . S
C2234 N2233 1.351 . S
C2234 C2235 1.434 . S
C2235 C2226 1.429 . S
C2235 N2232 1.350 . S
C2235 C2234 1.434 . S
C2236 C2237 1.369 . S
C2236 C2238 1.419 . S
C2236 H2240 0.930 . S
C2237 C2236 1.369 . S
C2237 C2246 1.429 . S
C2238 C2236 1.419 . S
C2238 C2239 1.363 . S
C2238 H2241 0.929 . S
C2239 C2238 1.363 . S
C2239 C2245 1.428 . S
H2240 C2236 0.930 . S
H2241 C2238 0.929 . S
S2242 N2243 1.613 . S
S2242 N2244 1.610 . S
N2243 S2242 1.613 . S
N2243 C2246 1.350 . S
N2244 S2242 1.610 . S
N2244 C2245 1.351 . S
C2245 C2239 1.428 . S
C2245 N2244 1.351 . S
C2245 C2246 1.434 . S
C2246 C2237 1.429 . S
C2246 N2243 1.350 . S
C2246 C2245 1.434 . S
C2247 C2248 1.369 . S
C2247 C2249 1.419 . S
C2247 H2251 0.930 . S
C2248 C2247 1.369 . S
C2248 C2257 1.429 . S
C2249 C2247 1.419 . S
C2249 C2250 1.363 . S
C2249 H2252 0.929 . S
C2250 C2249 1.363 . S
C2250 C2256 1.428 . S
H2251 C2247 0.930 . S
H2252 C2249 0.929 . S
S2253 N2254 1.613 . S
S2253 N2255 1.610 . S
N2254 S2253 1.613 . S
N2254 C2257 1.350 . S
N2255 S2253 1.610 . S
N2255 C2256 1.351 . S
C2256 C2250 1.428 . S
C2256 N2255 1.351 . S
C2256 C2257 1.434 . S
C2257 C2248 1.429 . S
C2257 N2254 1.350 . S
C2257 C2256 1.434 . S
C2258 C2259 1.369 . S
C2258 C2260 1.419 . S
C2258 H2262 0.930 . S
C2259 C2258 1.369 . S
C2259 C2268 1.429 . S
C2260 C2258 1.419 . S
C2260 C2261 1.363 . S
C2260 H2263 0.929 . S
C2261 C2260 1.363 . S
C2261 C2267 1.428 . S
H2262 C2258 0.930 . S
H2263 C2260 0.929 . S
S2264 N2265 1.613 . S
S2264 N2266 1.610 . S
N2265 S2264 1.613 . S
N2265 C2268 1.350 . S
N2266 S2264 1.610 . S
N2266 C2267 1.351 . S
C2267 C2261 1.428 . S
C2267 N2266 1.351 . S
C2267 C2268 1.434 . S
C2268 C2259 1.429 . S
C2268 N2265 1.350 . S
C2268 C2267 1.434 . S
C2269 C2270 1.369 . S
C2269 C2271 1.419 . S
C2269 H2273 0.930 . S
C2270 C2269 1.369 . S
C2270 C2279 1.429 . S
C2271 C2269 1.419 . S
C2271 C2272 1.363 . S
C2271 H2274 0.929 . S
C2272 C2271 1.363 . S
C2272 C2278 1.428 . S
H2273 C2269 0.930 . S
H2274 C2271 0.929 . S
S2275 N2276 1.613 . S
S2275 N2277 1.610 . S
N2276 S2275 1.613 . S
N2276 C2279 1.350 . S
N2277 S2275 1.610 . S
N2277 C2278 1.351 . S
C2278 C2272 1.428 . S
C2278 N2277 1.351 . S
C2278 C2279 1.434 . S
C2279 C2270 1.429 . S
C2279 N2276 1.350 . S
C2279 C2278 1.434 . S
C2280 C2281 1.369 . S
C2280 C2282 1.419 . S
C2280 H2284 0.930 . S
C2281 C2280 1.369 . S
C2281 C2290 1.429 . S
C2282 C2280 1.419 . S
C2282 C2283 1.363 . S
C2282 H2285 0.929 . S
C2283 C2282 1.363 . S
C2283 C2289 1.428 . S
H2284 C2280 0.930 . S
H2285 C2282 0.929 . S
S2286 N2287 1.613 . S
S2286 N2288 1.610 . S
N2287 S2286 1.613 . S
N2287 C2290 1.350 . S
N2288 S2286 1.610 . S
N2288 C2289 1.351 . S
C2289 C2283 1.428 . S
C2289 N2288 1.351 . S
C2289 C2290 1.434 . S
C2290 C2281 1.429 . S
C2290 N2287 1.350 . S
C2290 C2289 1.434 . S
C2291 C2292 1.369 . S
C2291 C2293 1.419 . S
C2291 H2295 0.930 . S
C2292 C2291 1.369 . S
C2292 C2301 1.429 1_545 S
C2293 C2291 1.419 . S
C2293 C2294 1.363 . S
C2293 H2296 0.929 . S
C2294 C2293 1.363 . S
C2294 C2300 1.428 1_545 S
H2295 C2291 0.930 . S
H2296 C2293 0.929 . S
S2297 N2298 1.613 . S
S2297 N2299 1.610 . S
N2298 S2297 1.613 . S
N2298 C2301 1.350 . S
N2299 S2297 1.610 . S
N2299 C2300 1.351 . S
C2300 C2294 1.428 1_565 S
C2300 N2299 1.351 . S
C2300 C2301 1.434 . S
C2301 C2292 1.429 1_565 S
C2301 N2298 1.350 . S
C2301 C2300 1.434 . S
C2302 C2303 1.369 . S
C2302 C2304 1.419 . S
C2302 H2306 0.930 . S
C2303 C2302 1.369 . S
C2303 C2312 1.429 . S
C2304 C2302 1.419 . S
C2304 C2305 1.363 . S
C2304 H2307 0.929 . S
C2305 C2304 1.363 . S
C2305 C2311 1.428 . S
H2306 C2302 0.930 . S
H2307 C2304 0.929 . S
S2308 N2309 1.613 . S
S2308 N2310 1.610 . S
N2309 S2308 1.613 . S
N2309 C2312 1.350 . S
N2310 S2308 1.610 . S
N2310 C2311 1.351 . S
C2311 C2305 1.428 . S
C2311 N2310 1.351 . S
C2311 C2312 1.434 . S
C2312 C2303 1.429 . S
C2312 N2309 1.350 . S
C2312 C2311 1.434 . S
C2313 C2314 1.369 . S
C2313 C2315 1.419 . S
C2313 H2317 0.930 . S
C2314 C2313 1.369 . S
C2314 C2323 1.429 . S
C2315 C2313 1.419 . S
C2315 C2316 1.363 . S
C2315 H2318 0.929 . S
C2316 C2315 1.363 . S
C2316 C2322 1.428 . S
H2317 C2313 0.930 . S
H2318 C2315 0.929 . S
S2319 N2320 1.613 . S
S2319 N2321 1.610 . S
N2320 S2319 1.613 . S
N2320 C2323 1.350 . S
N2321 S2319 1.610 . S
N2321 C2322 1.351 . S
C2322 C2316 1.428 . S
C2322 N2321 1.351 . S
C2322 C2323 1.434 . S
C2323 C2314 1.429 . S
C2323 N2320 1.350 . S
C2323 C2322 1.434 . S
C2324 C2325 1.369 . S
C2324 C2326 1.419 . S
C2324 H2328 0.930 . S
C2325 C2324 1.369 . S
C2325 C2334 1.429 . S
C2326 C2324 1.419 . S
C2326 C2327 1.363 . S
C2326 H2329 0.929 . S
C2327 C2326 1.363 . S
C2327 C2333 1.428 . S
H2328 C2324 0.930 . S
H2329 C2326 0.929 . S
S2330 N2331 1.613 . S
S2330 N2332 1.610 . S
N2331 S2330 1.613 . S
N2331 C2334 1.350 . S
N2332 S2330 1.610 . S
N2332 C2333 1.351 . S
C2333 C2327 1.428 . S
C2333 N2332 1.351 . S
C2333 C2334 1.434 . S
C2334 C2325 1.429 . S
C2334 N2331 1.350 . S
C2334 C2333 1.434 . S
C2335 C2336 1.369 . S
C2335 C2337 1.419 . S
C2335 H2339 0.930 . S
C2336 C2335 1.369 . S
C2336 C2345 1.429 . S
C2337 C2335 1.419 . S
C2337 C2338 1.363 . S
C2337 H2340 0.929 . S
C2338 C2337 1.363 . S
C2338 C2344 1.428 . S
H2339 C2335 0.930 . S
H2340 C2337 0.929 . S
S2341 N2342 1.613 . S
S2341 N2343 1.610 . S
N2342 S2341 1.613 . S
N2342 C2345 1.350 1_565 S
N2343 S2341 1.610 . S
N2343 C2344 1.351 1_565 S
C2344 C2338 1.428 . S
C2344 N2343 1.351 1_545 S
C2344 C2345 1.434 . S
C2345 C2336 1.429 . S
C2345 N2342 1.350 1_545 S
C2345 C2344 1.434 . S
C2346 C2347 1.369 . S
C2346 C2348 1.419 . S
C2346 H2350 0.930 . S
C2347 C2346 1.369 . S
C2347 C2356 1.429 . S
C2348 C2346 1.419 . S
C2348 C2349 1.363 . S
C2348 H2351 0.929 . S
C2349 C2348 1.363 . S
C2349 C2355 1.428 . S
H2350 C2346 0.930 . S
H2351 C2348 0.929 . S
S2352 N2353 1.613 . S
S2352 N2354 1.610 . S
N2353 S2352 1.613 . S
N2353 C2356 1.350 . S
N2354 S2352 1.610 . S
N2354 C2355 1.351 . S
C2355 C2349 1.428 . S
C2355 N2354 1.351 . S
C2355 C2356 1.434 . S
C2356 C2347 1.429 . S
C2356 N2353 1.350 . S
C2356 C2355 1.434 . S
C2357 C2358 1.369 . S
C2357 C2359 1.419 . S
C2357 H2361 0.930 . S
C2358 C2357 1.369 . S
C2358 C2367 1.429 . S
C2359 C2357 1.419 . S
C2359 C2360 1.363 . S
C2359 H2362 0.929 . S
C2360 C2359 1.363 . S
C2360 C2366 1.428 . S
H2361 C2357 0.930 . S
H2362 C2359 0.929 . S
S2363 N2364 1.613 . S
S2363 N2365 1.610 . S
N2364 S2363 1.613 . S
N2364 C2367 1.350 . S
N2365 S2363 1.610 . S
N2365 C2366 1.351 . S
C2366 C2360 1.428 . S
C2366 N2365 1.351 . S
C2366 C2367 1.434 . S
C2367 C2358 1.429 . S
C2367 N2364 1.350 . S
C2367 C2366 1.434 . S
C2368 C2369 1.369 . S
C2368 C2370 1.419 . S
C2368 H2372 0.930 . S
C2369 C2368 1.369 . S
C2369 C2378 1.429 . S
C2370 C2368 1.419 . S
C2370 C2371 1.363 . S
C2370 H2373 0.929 . S
C2371 C2370 1.363 . S
C2371 C2377 1.428 . S
H2372 C2368 0.930 . S
H2373 C2370 0.929 . S
S2374 N2375 1.613 . S
S2374 N2376 1.610 . S
N2375 S2374 1.613 . S
N2375 C2378 1.350 . S
N2376 S2374 1.610 . S
N2376 C2377 1.351 . S
C2377 C2371 1.428 . S
C2377 N2376 1.351 . S
C2377 C2378 1.434 . S
C2378 C2369 1.429 . S
C2378 N2375 1.350 . S
C2378 C2377 1.434 . S
C2379 C2380 1.369 . S
C2379 C2381 1.419 . S
C2379 H2383 0.930 1_655 S
C2380 C2379 1.369 . S
C2380 C2389 1.429 . S
C2381 C2379 1.419 . S
C2381 C2382 1.363 . S
C2381 H2384 0.929 1_655 S
C2382 C2381 1.363 . S
C2382 C2388 1.428 . S
H2383 C2379 0.930 1_455 S
H2384 C2381 0.929 1_455 S
S2385 N2386 1.613 . S
S2385 N2387 1.610 . S
N2386 S2385 1.613 . S
N2386 C2389 1.350 . S
N2387 S2385 1.610 . S
N2387 C2388 1.351 . S
C2388 C2382 1.428 . S
C2388 N2387 1.351 . S
C2388 C2389 1.434 . S
C2389 C2380 1.429 . S
C2389 N2386 1.350 . S
C2389 C2388 1.434 . S
C2390 C2391 1.369 . S
C2390 C2392 1.419 . S
C2390 H2394 0.930 . S
C2391 C2390 1.369 . S
C2391 C2400 1.429 . S
C2392 C2390 1.419 . S
C2392 C2393 1.363 . S
C2392 H2395 0.929 . S
C2393 C2392 1.363 . S
C2393 C2399 1.428 . S
H2394 C2390 0.930 . S
H2395 C2392 0.929 . S
S2396 N2397 1.613 . S
S2396 N2398 1.610 . S
N2397 S2396 1.613 . S
N2397 C2400 1.350 . S
N2398 S2396 1.610 . S
N2398 C2399 1.351 . S
C2399 C2393 1.428 . S
C2399 N2398 1.351 . S
C2399 C2400 1.434 . S
C2400 C2391 1.429 . S
C2400 N2397 1.350 . S
C2400 C2399 1.434 . S
C2401 C2402 1.320 1_655 S
C2401 C2403 1.423 . S
C2401 H2405 0.979 . S
C2402 C2401 1.320 1_455 S
C2402 C2411 1.429 . S
C2403 C2401 1.423 . S
C2403 C2404 1.363 1_655 S
C2403 H2406 0.929 . S
C2404 C2403 1.363 1_455 S
C2404 C2410 1.428 . S
H2405 C2401 0.979 . S
H2406 C2403 0.929 . S
S2407 N2408 1.613 . S
S2407 N2409 1.610 . S
N2408 S2407 1.613 . S
N2408 C2411 1.350 . S
N2409 S2407 1.610 . S
N2409 C2410 1.351 . S
C2410 C2404 1.428 . S
C2410 N2409 1.351 . S
C2410 C2411 1.434 . S
C2411 C2402 1.429 . S
C2411 N2408 1.350 . S
C2411 C2410 1.434 . S
C2412 C2413 1.369 . S
C2412 C2414 1.419 . S
C2412 H2416 0.930 . S
C2413 C2412 1.369 . S
C2413 C2422 1.429 . S
C2414 C2412 1.419 . S
C2414 C2415 1.363 . S
C2414 H2417 0.929 . S
C2415 C2414 1.363 . S
C2415 C2421 1.428 . S
H2416 C2412 0.930 . S
H2417 C2414 0.929 . S
S2418 N2419 1.613 . S
S2418 N2420 1.610 . S
N2419 S2418 1.613 . S
N2419 C2422 1.350 . S
N2420 S2418 1.610 . S
N2420 C2421 1.351 . S
C2421 C2415 1.428 . S
C2421 N2420 1.351 . S
C2421 C2422 1.434 . S
C2422 C2413 1.429 . S
C2422 N2419 1.350 . S
C2422 C2421 1.434 . S
C2423 C2424 1.369 . S
C2423 C2425 1.419 . S
C2423 H2427 0.930 . S
C2424 C2423 1.369 . S
C2424 C2433 1.429 . S
C2425 C2423 1.419 . S
C2425 C2426 1.363 . S
C2425 H2428 0.929 . S
C2426 C2425 1.363 . S
C2426 C2432 1.428 . S
H2427 C2423 0.930 . S
H2428 C2425 0.929 . S
S2429 N2430 1.613 . S
S2429 N2431 1.610 . S
N2430 S2429 1.613 . S
N2430 C2433 1.350 . S
N2431 S2429 1.610 . S
N2431 C2432 1.351 . S
C2432 C2426 1.428 . S
C2432 N2431 1.351 . S
C2432 C2433 1.434 . S
C2433 C2424 1.429 . S
C2433 N2430 1.350 . S
C2433 C2432 1.434 . S
C2434 C2435 1.369 . S
C2434 C2436 1.419 . S
C2434 H2438 0.930 . S
C2435 C2434 1.369 . S
C2435 C2444 1.429 . S
C2436 C2434 1.419 . S
C2436 C2437 1.363 . S
C2436 H2439 0.929 . S
C2437 C2436 1.363 . S
C2437 C2443 1.428 . S
H2438 C2434 0.930 . S
H2439 C2436 0.929 . S
S2440 N2441 1.613 . S
S2440 N2442 1.610 . S
N2441 S2440 1.613 . S
N2441 C2444 1.350 . S
N2442 S2440 1.610 . S
N2442 C2443 1.351 . S
C2443 C2437 1.428 . S
C2443 N2442 1.351 . S
C2443 C2444 1.434 . S
C2444 C2435 1.429 . S
C2444 N2441 1.350 . S
C2444 C2443 1.434 . S
C2445 C2446 1.369 . S
C2445 C2447 1.419 . S
C2445 H2449 0.930 . S
C2446 C2445 1.369 . S
C2446 C2455 1.429 . S
C2447 C2445 1.419 . S
C2447 C2448 1.363 . S
C2447 H2450 0.929 . S
C2448 C2447 1.363 . S
C2448 C2454 1.428 . S
H2449 C2445 0.930 . S
H2450 C2447 0.929 . S
S2451 N2452 1.613 . S
S2451 N2453 1.610 . S
N2452 S2451 1.613 . S
N2452 C2455 1.350 . S
N2453 S2451 1.610 . S
N2453 C2454 1.351 . S
C2454 C2448 1.428 . S
C2454 N2453 1.351 . S
C2454 C2455 1.434 . S
C2455 C2446 1.429 . S
C2455 N2452 1.350 . S
C2455 C2454 1.434 . S
C2456 C2457 1.369 . S
C2456 C2458 1.419 . S
C2456 H2460 0.930 . S
C2457 C2456 1.369 . S
C2457 C2466 1.429 . S
C2458 C2456 1.419 . S
C2458 C2459 1.363 . S
C2458 H2461 0.929 . S
C2459 C2458 1.363 . S
C2459 C2465 1.428 . S
H2460 C2456 0.930 . S
H2461 C2458 0.929 . S
S2462 N2463 1.613 . S
S2462 N2464 1.610 . S
N2463 S2462 1.613 . S
N2463 C2466 1.350 . S
N2464 S2462 1.610 . S
N2464 C2465 1.351 . S
C2465 C2459 1.428 . S
C2465 N2464 1.351 . S
C2465 C2466 1.434 . S
C2466 C2457 1.429 . S
C2466 N2463 1.350 . S
C2466 C2465 1.434 . S
C2467 C2468 1.369 . S
C2467 C2469 1.419 . S
C2467 H2471 0.930 . S
C2468 C2467 1.369 . S
C2468 C2477 1.429 . S
C2469 C2467 1.419 . S
C2469 C2470 1.363 . S
C2469 H2472 0.929 . S
C2470 C2469 1.363 . S
C2470 C2476 1.428 . S
H2471 C2467 0.930 . S
H2472 C2469 0.929 . S
S2473 N2474 1.613 . S
S2473 N2475 1.610 . S
N2474 S2473 1.613 . S
N2474 C2477 1.350 . S
N2475 S2473 1.610 . S
N2475 C2476 1.351 . S
C2476 C2470 1.428 . S
C2476 N2475 1.351 . S
C2476 C2477 1.434 . S
C2477 C2468 1.429 . S
C2477 N2474 1.350 . S
C2477 C2476 1.434 . S
C2478 C2479 1.369 . S
C2478 C2480 1.419 . S
C2478 H2482 0.930 . S
C2479 C2478 1.369 . S
C2479 C2488 1.429 . S
C2480 C2478 1.419 . S
C2480 C2481 1.363 . S
C2480 H2483 0.929 . S
C2481 C2480 1.363 . S
C2481 C2487 1.428 . S
H2482 C2478 0.930 . S
H2483 C2480 0.929 . S
S2484 N2485 1.613 . S
S2484 N2486 1.610 . S
N2485 S2484 1.613 . S
N2485 C2488 1.350 . S
N2486 S2484 1.610 . S
N2486 C2487 1.351 . S
C2487 C2481 1.428 . S
C2487 N2486 1.351 . S
C2487 C2488 1.434 . S
C2488 C2479 1.429 . S
C2488 N2485 1.350 . S
C2488 C2487 1.434 . S
C2489 C2490 1.369 . S
C2489 C2491 1.419 . S
C2489 H2493 0.930 . S
C2490 C2489 1.369 . S
C2490 C2499 1.429 . S
C2491 C2489 1.419 . S
C2491 C2492 1.363 . S
C2491 H2494 0.929 . S
C2492 C2491 1.363 . S
C2492 C2498 1.428 . S
H2493 C2489 0.930 . S
H2494 C2491 0.929 . S
S2495 N2496 1.613 . S
S2495 N2497 1.610 . S
N2496 S2495 1.613 . S
N2496 C2499 1.350 . S
N2497 S2495 1.610 . S
N2497 C2498 1.351 . S
C2498 C2492 1.428 . S
C2498 N2497 1.351 . S
C2498 C2499 1.434 . S
C2499 C2490 1.429 . S
C2499 N2496 1.350 . S
C2499 C2498 1.434 . S
C2500 C2501 1.369 . S
C2500 C2502 1.419 . S
C2500 H2504 0.930 1_556 S
C2501 C2500 1.369 . S
C2501 C2510 1.429 . S
C2502 C2500 1.419 . S
C2502 C2503 1.363 . S
C2502 H2505 0.929 1_556 S
C2503 C2502 1.363 . S
C2503 C2509 1.428 . S
H2504 C2500 0.930 1_554 S
H2505 C2502 0.929 1_554 S
S2506 N2507 1.613 . S
S2506 N2508 1.610 . S
N2507 S2506 1.613 . S
N2507 C2510 1.350 . S
N2508 S2506 1.610 . S
N2508 C2509 1.351 . S
C2509 C2503 1.428 . S
C2509 N2508 1.351 . S
C2509 C2510 1.434 . S
C2510 C2501 1.429 . S
C2510 N2507 1.350 . S
C2510 C2509 1.434 . S
C2511 C2512 1.369 . S
C2511 C2513 1.419 . S
C2511 H2515 0.930 . S
C2512 C2511 1.369 . S
C2512 C2521 1.429 . S
C2513 C2511 1.419 . S
C2513 C2514 1.363 . S
C2513 H2516 0.929 . S
C2514 C2513 1.363 . S
C2514 C2520 1.428 . S
H2515 C2511 0.930 . S
H2516 C2513 0.929 . S
S2517 N2518 1.613 . S
S2517 N2519 1.610 . S
N2518 S2517 1.613 . S
N2518 C2521 1.350 . S
N2519 S2517 1.610 . S
N2519 C2520 1.351 . S
C2520 C2514 1.428 . S
C2520 N2519 1.351 . S
C2520 C2521 1.434 . S
C2521 C2512 1.429 . S
C2521 N2518 1.350 . S
C2521 C2520 1.434 . S
C2522 C2523 1.369 . S
C2522 C2524 1.419 . S
C2522 H2526 0.930 . S
C2523 C2522 1.369 . S
C2523 C2532 1.429 . S
C2524 C2522 1.419 . S
C2524 C2525 1.363 . S
C2524 H2527 0.929 . S
C2525 C2524 1.363 . S
C2525 C2531 1.428 . S
H2526 C2522 0.930 . S
H2527 C2524 0.929 . S
S2528 N2529 1.613 . S
S2528 N2530 1.610 . S
N2529 S2528 1.613 . S
N2529 C2532 1.350 1_556 S
N2530 S2528 1.610 . S
N2530 C2531 1.351 1_556 S
C2531 C2525 1.428 . S
C2531 N2530 1.351 1_554 S
C2531 C2532 1.434 . S
C2532 C2523 1.429 . S
C2532 N2529 1.350 1_554 S
C2532 C2531 1.434 . S
C2533 C2534 1.369 . S
C2533 C2535 1.419 . S
C2533 H2537 0.930 . S
C2534 C2533 1.369 . S
C2534 C2543 1.429 . S
C2535 C2533 1.419 . S
C2535 C2536 1.363 . S
C2535 H2538 0.929 . S
C2536 C2535 1.363 . S
C2536 C2542 1.428 . S
H2537 C2533 0.930 . S
H2538 C2535 0.929 . S
S2539 N2540 1.614 1_545 S
S2539 N2541 1.614 1_545 S
N2540 S2539 1.614 1_565 S
N2540 C2543 1.350 . S
N2541 S2539 1.614 1_565 S
N2541 C2542 1.351 . S
C2542 C2536 1.428 . S
C2542 N2541 1.351 . S
C2542 C2543 1.434 . S
C2543 C2534 1.429 . S
C2543 N2540 1.350 . S
C2543 C2542 1.434 . S
C2019 C1009 1.513 . S
C2017 C331 1.502 . S
C2030 C1068 1.523 . S
C2028 C380 1.506 . S
C2039 C421 1.497 . S
C2041 C1185 1.518 . S
C2052 C1253 1.523 . S
C2050 C260 1.483 . S
C2063 C1332 1.513 . S
C2061 C620 1.496 . S
C2074 C1457 1.523 . S
C2072 C740 1.505 . S
C2083 C680 1.474 . S
C2085 C1517 1.512 . S
C2096 C1625 1.523 . S
C2094 C571 1.506 . S
C2105 C691 1.474 . S
C2107 C1721 1.518 . S
C2118 C1781 1.523 . S
C2116 C541 1.506 . S
C2127 C601 1.500 . S
C2129 C1684 1.507 . S
C2140 C1801 1.522 . S
C2138 C721 1.509 . S
C2149 C451 1.499 . S
C2151 C1869 1.517 . S
C2160 C241 1.488 . S
C2162 C1860 1.521 . S
C2171 C320 1.498 . S
C2173 C1889 1.506 . S
C2182 C391 1.506 . S
C2184 C1897 1.522 . S
C2193 C211 1.495 . S
C2195 C1281 1.518 . S
C2204 C841 1.495 . S
C2206 C1244 1.506 . S
C2217 C980 1.523 . S
C2215 C901 1.510 . S
C2228 C1077 1.511 . S
C2226 C500 1.497 . S
C2237 C271 1.488 . S
C2239 C1341 1.522 . S
C2250 C1633 1.512 . S
C2248 C661 1.475 . S
C2261 C1361 1.522 . S
C2259 C560 1.505 . S
C2272 C1545 1.522 . S
C2270 C751 1.506 . S
C2283 C1537 1.513 . S
C2281 C871 1.496 . S
C2292 C920 1.509 . S
C2294 C1605 1.522 . S
C2303 C481 1.496 . S
C2305 C1369 1.512 . S
C2316 C1420 1.522 . S
C2314 C800 1.488 . S
C2325 C200 1.496 . S
C2327 C1165 1.508 . S
C2338 C1273 1.523 . S
C2336 C20 1.504 . S
C2349 C989 1.512 . S
C2347 C80 1.473 . S
C2360 C1105 1.522 . S
C2358 C151 1.505 . S
C2369 C91 1.478 . S
C2371 C1809 1.513 . S
C2380 C121 1.508 . S
C2382 C1693 1.524 . S
C2391 C181 1.495 . S
C2393 C1772 1.512 . S
C2402 C1 1.508 . S
C2404 C1713 1.522 . S
C2415 C1957 1.511 . S
C2413 C511 1.498 . S
C2426 C1948 1.522 . S
C2424 C781 1.484 . S
C2437 C1977 1.513 . S
C2435 C860 1.497 . S
C2446 C931 1.506 . S
C2448 C1985 1.522 . S
C2457 C631 1.499 . S
C2459 C1449 1.513 . S
C2470 C1429 1.513 . S
C2468 C301 1.496 . S
C2481 C1508 1.523 . S
C2479 C361 1.510 . S
C2492 C1596 1.512 . S
C2490 C440 1.500 . S
C2501 C811 1.487 . S
C2503 C1156 1.523 . S
C2514 C1097 1.513 . S
C2512 C61 1.473 . S
C2523 C140 1.510 . S
C2525 C1193 1.522 . S
C2536 C1017 1.523 . S
C2534 C31 1.505 . S
