# Generated by pormake.
# Topology anh, (6,3)-cn, num edge types: 1
# Building blocks:
#     Node 0, Type 0, BuildingBlock: BETFEN_clean_sbu_0, # of connection points: 6
#     Node 1, Type 0, BuildingBlock: BETFEN_clean_sbu_0, # of connection points: 6
#     Node 2, Type 0, BuildingBlock: BETFEN_clean_sbu_0, # of connection points: 6
#     Node 3, Type 1, BuildingBlock: BELTOD_clean_linker_0, # of connection points: 3
#     Node 4, Type 1, BuildingBlock: BELTOD_clean_linker_0, # of connection points: 3
#     Node 5, Type 1, BuildingBlock: BELTOD_clean_linker_0, # of connection points: 3
#     Node 6, Type 1, BuildingBlock: BELTOD_clean_linker_0, # of connection points: 3
#     Node 7, Type 1, BuildingBlock: BELTOD_clean_linker_0, # of connection points: 3
#     Node 8, Type 1, BuildingBlock: BELTOD_clean_linker_0, # of connection points: 3
#     Edge 9, Type (0, 1), BuildingBlock: CIFDUS_clean_linker_0, # of connection points: 2
#     Edge 10, Type (0, 1), BuildingBlock: CIFDUS_clean_linker_0, # of connection points: 2
#     Edge 11, Type (0, 1), BuildingBlock: CIFDUS_clean_linker_0, # of connection points: 2
#     Edge 12, Type (0, 1), BuildingBlock: CIFDUS_clean_linker_0, # of connection points: 2
#     Edge 13, Type (0, 1), BuildingBlock: CIFDUS_clean_linker_0, # of connection points: 2
#     Edge 14, Type (0, 1), BuildingBlock: CIFDUS_clean_linker_0, # of connection points: 2
#     Edge 15, Type (0, 1), BuildingBlock: CIFDUS_clean_linker_0, # of connection points: 2
#     Edge 16, Type (0, 1), BuildingBlock: CIFDUS_clean_linker_0, # of connection points: 2
#     Edge 17, Type (0, 1), BuildingBlock: CIFDUS_clean_linker_0, # of connection points: 2
#     Edge 18, Type (0, 1), BuildingBlock: CIFDUS_clean_linker_0, # of connection points: 2
#     Edge 19, Type (0, 1), BuildingBlock: CIFDUS_clean_linker_0, # of connection points: 2
#     Edge 20, Type (0, 1), BuildingBlock: CIFDUS_clean_linker_0, # of connection points: 2
#     Edge 21, Type (0, 1), BuildingBlock: CIFDUS_clean_linker_0, # of connection points: 2
#     Edge 22, Type (0, 1), BuildingBlock: CIFDUS_clean_linker_0, # of connection points: 2
#     Edge 23, Type (0, 1), BuildingBlock: CIFDUS_clean_linker_0, # of connection points: 2
#     Edge 24, Type (0, 1), BuildingBlock: CIFDUS_clean_linker_0, # of connection points: 2
#     Edge 25, Type (0, 1), BuildingBlock: CIFDUS_clean_linker_0, # of connection points: 2
#     Edge 26, Type (0, 1), BuildingBlock: CIFDUS_clean_linker_0, # of connection points: 2
# Relax obj value: 0.195
# Max RMSD: 0.214
# Mean RMSD: 0.153
data_MOF--net-anh--node1-BETFEN_clean_sbu_0--node2-BELTOD_clean_linker_0--edge1-CIFDUS_clean_linker_0
_symmetry_space_group_name_H-M    P1
_symmetry_Int_Tables_number       1
_symmetry_cell_setting            triclinic
loop_
_symmetry_equiv_pos_as_xyz
'x, y, z'
_cell_length_a     29.741635
_cell_length_b     30.981758
_cell_length_c     54.407125
_cell_angle_alpha  90.239913
_cell_angle_beta   92.875959
_cell_angle_gamma 103.16196
loop_
_atom_site_label
_atom_site_type_symbol
_atom_site_fract_x
_atom_site_fract_y
_atom_site_fract_z
_atom_type_partial_charge
Pr0 Pr 0.04005 0.54345 0.15327 0.0
Pr1 Pr 0.06321 0.64023 0.14144 0.0
C2 C 1.0063 0.46341 0.17281 0.0
C3 C 0.96196 0.43167 0.17617 0.0
C4 C 0.92539 0.42536 0.15817 0.0
C5 C 0.88441 0.39357 0.16142 0.0
C6 C 0.87915 0.36787 0.18281 0.0
C7 C 0.91553 0.37514 0.20099 0.0
C8 C 0.95651 0.40666 0.19766 0.0
C9 C 0.05042 0.55962 0.10336 0.0
C10 C 0.95393 0.59495 0.14086 0.0
C11 C 0.10057 0.72306 0.12664 0.0
C12 C 0.14236 0.75642 0.13483 0.0
C13 C 0.16425 0.75279 0.15793 0.0
C14 C 0.20428 0.78396 0.1657 0.0
C15 C 0.22346 0.81927 0.15047 0.0
C16 C 0.20162 0.82255 0.12721 0.0
C17 C 0.16131 0.7914 0.11948 0.0
C18 C 0.05706 0.62295 0.19174 0.0
C19 C 0.14891 0.586 0.14765 0.0
O20 O 1.01424 0.50046 0.1856 0.0
O21 O 1.02045 0.46865 0.15041 0.0
O22 O 1.02887 0.5799 0.11716 0.0
O23 O 0.0658 0.52888 0.11494 0.0
O24 O 0.98433 0.62659 0.13062 0.0
O25 O 0.9675 0.56296 0.15311 0.0
O26 O 0.10765 0.68756 0.1159 0.0
O27 O 0.06797 0.71413 0.14234 0.0
O28 O 0.07719 0.60346 0.1769 0.0
O29 O 0.04031 0.65344 0.18091 0.0
O30 O 0.12029 0.55384 0.15859 0.0
O31 O 0.13413 0.61946 0.13777 0.0
H32 H 0.92866 0.44467 0.14153 0.0
H33 H 0.85683 0.38909 0.14721 0.0
H34 H 0.91283 0.35558 0.21753 0.0
H35 H 0.98429 0.41109 0.21176 0.0
H36 H 0.15047 0.72565 0.16992 0.0
H37 H 0.22067 0.77998 0.18352 0.0
H38 H 0.21544 0.84945 0.1151 0.0
H39 H 0.14499 0.79455 0.10153 0.0
Pr40 Pr 0.58959 0.08735 0.52166 0.0
Pr41 Pr 0.48675 0.06441 0.5257 0.0
C42 C 0.67717 0.12013 0.5088 0.0
C43 C 0.70908 0.16209 0.50291 0.0
C44 C 0.75664 0.16414 0.50378 0.0
C45 C 0.7878 0.20308 0.49764 0.0
C46 C 0.772 0.24088 0.49043 0.0
C47 C 0.72418 0.23896 0.49005 0.0
C48 C 0.69295 0.19984 0.49623 0.0
C49 C 0.56301 0.06475 0.56884 0.0
C50 C 0.53485 0.17 0.53186 0.0
C51 C 0.39737 1.02735 0.53327 0.0
C52 C 0.36363 0.98643 0.52458 0.0
C53 C 0.3274 0.98936 0.50753 0.0
C54 C 0.29718 0.95102 0.49783 0.0
C55 C 0.30219 0.90881 0.50513 0.0
C56 C 0.33754 0.90587 0.52278 0.0
C57 C 0.36798 0.94423 0.53236 0.0
C58 C 0.51538 0.08143 0.47783 0.0
C59 C 0.54215 0.98007 0.52277 0.0
O60 O 0.64273 0.10487 0.49284 0.0
O61 O 0.66565 0.11498 0.53165 0.0
O62 O 0.54472 0.08947 0.555 0.0
O63 O 0.59757 1.05335 0.55899 0.0
O64 O 0.49991 0.13873 0.53891 0.0
O65 O 0.57034 0.15874 0.5217 0.0
O66 O 0.43156 1.02275 0.54838 0.0
O67 O 0.41018 0.0577 0.51681 0.0
O68 O 0.53171 0.05785 0.4931 0.0
O69 O 0.4827 0.09687 0.48698 0.0
O70 O 0.58033 1.00932 0.51749 0.0
O71 O 0.50427 0.9935 0.52757 0.0
H72 H 0.76973 0.13542 0.50907 0.0
H73 H 0.82438 0.20359 0.4986 0.0
H74 H 0.7108 0.26732 0.48445 0.0
H75 H 0.65627 0.1989 0.49555 0.0
H76 H 0.32289 1.02138 0.50135 0.0
H77 H 0.26994 0.95441 0.4845 0.0
H78 H 0.34257 0.87385 0.52863 0.0
H79 H 0.39541 0.94066 0.54551 0.0
Pr80 Pr 0.53662 0.56593 0.81681 0.0
Pr81 Pr 0.57107 0.65317 0.84547 0.0
C82 C 0.52308 0.49737 0.78487 0.0
C83 C 0.54015 0.45629 0.78372 0.0
C84 C 0.52377 0.4212 0.79958 0.0
C85 C 0.54137 0.38329 0.79932 0.0
C86 C 0.5758 0.37943 0.78323 0.0
C87 C 0.59181 0.41416 0.76707 0.0
C88 C 0.57411 0.45231 0.76732 0.0
C89 C 0.54095 0.5569 0.86775 0.0
C90 C 0.6518 0.60666 0.82837 0.0
C91 C 0.58253 0.71718 0.88025 0.0
C92 C 0.55002 0.73111 0.89631 0.0
C93 C 0.55667 0.77588 0.90284 0.0
C94 C 0.52036 0.79176 0.91196 0.0
C95 C 0.47661 0.76311 0.91424 0.0
C96 C 0.47185 0.71739 0.91041 0.0
C97 C 0.50845 0.70147 0.90158 0.0
C98 C 0.56917 0.6612 0.79427 0.0
C99 C 0.45791 0.61196 0.8353 0.0
O100 O 0.55343 0.53457 0.78176 0.0
O101 O 0.49488 0.50006 0.80224 0.0
O102 O 0.57098 0.58162 0.85549 0.0
O103 O 0.5081 0.53316 0.85355 0.0
O104 O 0.64321 0.63869 0.84203 0.0
O105 O 0.61845 0.57661 0.81682 0.0
O106 O 0.59098 0.67819 0.88451 0.0
O107 O 0.57594 0.72447 0.8568 0.0
O108 O 0.53801 0.63714 0.80626 0.0
O109 O 0.60149 0.68496 0.8089 0.0
O110 O 0.46743 0.5899 0.81621 0.0
O111 O 0.49122 0.63255 0.85099 0.0
H112 H 0.49737 0.42289 0.81232 0.0
H113 H 0.52729 0.35657 0.81149 0.0
H114 H 0.61815 0.41194 0.75439 0.0
H115 H 0.5872 0.47882 0.75483 0.0
H116 H 0.58855 0.79918 0.89897 0.0
H117 H 0.52516 0.82725 0.91448 0.0
H118 H 0.43864 0.69462 0.91208 0.0
H119 H 0.50304 0.66655 0.89705 0.0
P120 P 0.59055 1.04045 0.25456 0.0
H121 H 0.53832 0.05688 0.20898 0.0
H122 H 0.46172 1.01951 0.19096 0.0
H123 H 0.44319 0.93043 0.25239 0.0
H124 H 0.51911 0.96748 0.27006 0.0
H125 H 0.65969 0.06114 0.21747 0.0
H126 H 0.70781 0.13095 0.20427 0.0
H127 H 0.6314 0.20305 0.24821 0.0
H128 H 0.58386 0.13276 0.26171 0.0
H129 H 0.65662 1.04237 0.29633 0.0
H130 H 0.51784 0.06061 0.28428 0.0
O131 O 0.62312 1.00373 0.25115 0.0
H132 H 0.65151 1.0514 0.34068 0.0
H133 H 0.51145 0.06753 0.32854 0.0
C134 C 0.53387 1.01556 0.24115 0.0
C135 C 0.51751 1.02957 0.21862 0.0
C136 C 0.47391 1.00805 0.20828 0.0
C137 C 0.44616 0.97238 0.22042 0.0
C138 C 0.46319 0.95837 0.24284 0.0
C139 C 0.50667 0.97949 0.25295 0.0
C140 C 0.61884 0.09179 0.24096 0.0
C141 C 0.6528 0.09195 0.22398 0.0
C142 C 0.68016 0.13201 0.21631 0.0
C143 C 0.67392 0.17271 0.22541 0.0
C144 C 0.63773 0.17232 0.24122 0.0
C145 C 0.61034 0.13216 0.24885 0.0
C146 C 0.58717 1.04953 0.2871 0.0
C147 C 0.62491 1.04801 0.30327 0.0
C148 C 0.62181 1.05296 0.32865 0.0
C149 C 0.58082 0.05958 0.33834 0.0
C150 C 0.54369 0.06278 0.32186 0.0
C151 C 0.54705 0.05827 0.29648 0.0
P152 P 0.58801 0.58768 0.56686 0.0
H153 H 0.58785 0.54124 0.51898 0.0
H154 H 0.5794 0.46275 0.50798 0.0
H155 H 0.53877 0.42633 0.58144 0.0
H156 H 0.54715 0.50378 0.59216 0.0
H157 H 0.62932 0.64521 0.52678 0.0
H158 H 0.625 0.71991 0.51454 0.0
H159 H 0.51199 0.71468 0.56206 0.0
H160 H 0.51535 0.63957 0.57338 0.0
H161 H 0.65128 0.61782 0.60993 0.0
H162 H 0.50435 0.5704 0.59561 0.0
O163 O 0.64514 0.59569 0.56483 0.0
H164 H 0.63966 0.62637 0.65339 0.0
H165 H 0.49199 0.58125 0.63909 0.0
C166 C 0.56677 0.52956 0.55624 0.0
C167 C 0.57545 0.51635 0.53248 0.0
C168 C 0.57136 0.4711 0.52634 0.0
C169 C 0.55853 0.43731 0.54378 0.0
C170 C 0.54801 0.45061 0.56721 0.0
C171 C 0.55252 0.4957 0.57337 0.0
C172 C 0.57313 0.6359 0.55138 0.0
C173 C 0.60265 0.65944 0.53411 0.0
C174 C 0.60062 0.70295 0.5274 0.0
C175 C 0.56896 0.72479 0.53772 0.0
C176 C 0.53708 0.6998 0.55358 0.0
C177 C 0.53905 0.65618 0.5602 0.0
C178 C 0.5787 0.59323 0.59936 0.0
C179 C 0.61635 0.60938 0.61606 0.0
C180 C 0.60957 0.6148 0.64104 0.0
C181 C 0.5648 0.60485 0.64997 0.0
C182 C 0.52705 0.58878 0.63311 0.0
C183 C 0.53399 0.5829 0.60813 0.0
P184 P 0.07231 0.66117 0.87984 0.0
H185 H 0.11263 0.67391 0.83192 0.0
H186 H 0.18088 0.65353 0.8161 0.0
H187 H 0.18783 0.57056 0.87905 0.0
H188 H 0.11943 0.59025 0.89451 0.0
H189 H 1.00923 0.7192 0.87964 0.0
H190 H 0.93071 0.71261 0.86323 0.0
H191 H 0.93222 0.5862 0.82967 0.0
H192 H 1.01159 0.59276 0.84712 0.0
H193 H 0.13628 0.66968 0.9228 0.0
H194 H 0.99088 0.61513 0.90632 0.0
O195 O 0.0985 0.71489 0.88122 0.0
H196 H 0.12586 0.65149 0.96626 0.0
H197 H 0.98028 0.59796 0.94972 0.0
C198 C 0.11119 0.63414 0.86455 0.0
C199 C 0.12786 0.6501 0.84186 0.0
C200 C 0.16694 0.6385 0.83285 0.0
C201 C 0.19014 0.61109 0.84658 0.0
C202 C 0.17106 0.59233 0.86829 0.0
C203 C 0.13179 0.60357 0.87712 0.0
C204 C 1.01673 0.65711 0.86402 0.0
C205 C 0.99318 0.69047 0.86829 0.0
C206 C 0.94807 0.68663 0.85879 0.0
C207 C 0.92509 0.64919 0.84468 0.0
C208 C 0.94881 0.61552 0.8404 0.0
C209 C 0.99431 0.61939 0.85012 0.0
C210 C 0.06447 0.64388 0.91128 0.0
C211 C 0.10222 0.65355 0.92849 0.0
C212 C 0.09626 0.64313 0.95327 0.0
C213 C 0.05221 0.62356 0.96132 0.0
C214 C 1.01451 0.61345 0.94401 0.0
C215 C 1.02065 0.62318 0.91915 0.0
P216 P 0.0998 0.53876 0.41714 0.0
H217 H 0.15203 0.55972 0.46406 0.0
H218 H 0.18385 0.62929 0.48632 0.0
H219 H 0.11308 0.69811 0.43362 0.0
H220 H 0.08224 0.62827 0.41109 0.0
H221 H 0.03874 0.46572 0.39009 0.0
H222 H 0.9747 0.40688 0.40187 0.0
H223 H 0.98351 0.46572 0.47458 0.0
H224 H 0.04729 0.52575 0.46233 0.0
H225 H 0.16827 0.5501 0.37965 0.0
H226 H 1.02576 0.55718 0.38382 0.0
O227 O 0.14185 0.51157 0.42168 0.0
H228 H 0.16394 0.56283 0.33543 0.0
H229 H 1.02079 0.56912 0.33938 0.0
C230 C 0.11548 0.5889 0.43567 0.0
C231 C 0.14292 0.58969 0.45744 0.0
C232 C 0.16092 0.62959 0.47026 0.0
C233 C 0.15155 0.66958 0.46164 0.0
C234 C 0.12183 0.66815 0.4405 0.0
C235 C 0.10388 0.62813 0.42767 0.0
C236 C 0.04717 0.5008 0.42511 0.0
C237 C 1.02613 0.46685 0.40836 0.0
C238 C 0.98981 0.43279 0.41523 0.0
C239 C 0.9742 0.43132 0.43925 0.0
C240 C 0.9944 0.46612 0.45587 0.0
C241 C 1.03088 0.50046 0.44889 0.0
C242 C 0.09705 0.55174 0.38489 0.0
C243 C 0.13597 0.5543 0.37102 0.0
C244 C 0.13337 0.56137 0.3457 0.0
C245 C 0.09181 0.56633 0.33377 0.0
C246 C 0.05334 0.56553 0.34797 0.0
C247 C 0.05603 0.55845 0.37334 0.0
P248 P 0.49745 0.98864 0.78235 0.0
H249 H 0.58724 1.04048 0.76941 0.0
H250 H 0.62668 0.11826 0.77738 0.0
H251 H 0.51774 0.13313 0.82401 0.0
H252 H 0.47801 0.05639 0.81548 0.0
H253 H 0.50406 0.98327 0.83507 0.0
H254 H 0.45536 0.93961 0.86414 0.0
H255 H 0.34831 0.89745 0.80646 0.0
H256 H 0.39885 0.94149 0.77703 0.0
H257 H 0.46954 0.06174 0.75592 0.0
H258 H 0.47484 0.92623 0.74094 0.0
O259 O 0.53406 0.95515 0.78139 0.0
H260 H 0.46095 0.07446 0.71191 0.0
H261 H 0.46457 0.93827 0.69684 0.0
C262 C 0.5303 1.04244 0.7923 0.0
C263 C 0.5726 0.06023 0.78189 0.0
C264 C 0.59506 0.10451 0.78642 0.0
C265 C 0.57554 0.13132 0.80159 0.0
C266 C 0.5341 0.11281 0.81276 0.0
C267 C 0.51132 0.06889 0.80787 0.0
C268 C 0.45509 0.96571 0.80396 0.0
C269 C 0.46947 0.96595 0.8288 0.0
C270 C 0.44098 0.94106 0.84557 0.0
C271 C 0.39743 0.91453 0.83781 0.0
C272 C 0.38166 0.9171 0.8131 0.0
C273 C 0.41051 0.94228 0.79623 0.0
C274 C 0.47444 0.99344 0.75156 0.0
C275 C 0.4674 1.03429 0.74321 0.0
C276 C 0.46209 1.04146 0.71799 0.0
C277 C 0.46327 1.00766 0.70089 0.0
C278 C 0.46469 0.96525 0.70959 0.0
C279 C 0.47035 0.95825 0.73478 0.0
P280 P 0.52605 0.50008 0.09612 0.0
H281 H 0.57104 0.49119 0.14409 0.0
H282 H 0.65212 0.51091 0.1589 0.0
H283 H 0.68657 0.58453 0.09245 0.0
H284 H 0.60541 0.56717 0.07873 0.0
H285 H 0.43702 0.4433 0.10601 0.0
H286 H 0.36651 0.45697 0.12176 0.0
H287 H 0.4334 0.59518 0.13349 0.0
H288 H 0.50461 0.58102 0.11724 0.0
H289 H 0.58077 0.4827 0.05608 0.0
H290 H 0.46299 0.54011 0.06429 0.0
O291 O 0.52315 0.4458 0.09832 0.0
H292 H 0.57595 0.49417 0.01165 0.0
H293 H 0.45759 0.55085 0.01978 0.0
C294 C 0.58204 0.52692 0.1101 0.0
C295 C 0.59588 0.51282 0.13312 0.0
C296 C 0.64254 0.52359 0.14137 0.0
C297 C 0.67656 0.54828 0.1266 0.0
C298 C 0.6618 0.56543 0.10444 0.0
C299 C 0.61503 0.55514 0.0964 0.0
C300 C 0.47656 0.5109 0.11099 0.0
C301 C 0.43707 0.47643 0.11244 0.0
C302 C 0.39655 0.48432 0.12152 0.0
C303 C 0.39417 0.52711 0.1292 0.0
C304 C 0.43393 0.56181 0.12773 0.0
C305 C 0.47479 0.55375 0.11867 0.0
C306 C 0.52257 0.51085 0.06357 0.0
C307 C 0.55406 0.49803 0.04835 0.0
C308 C 0.55137 0.50469 0.02299 0.0
C309 C 0.51648 0.52351 0.0123 0.0
C310 C 0.48472 0.53613 0.02756 0.0
C311 C 0.48792 0.5301 0.05303 0.0
H312 H 0.19312 0.52227 0.16431 0.0
H313 H 0.21547 0.645 0.12454 0.0
H314 H 0.29381 0.63924 0.11671 0.0
H315 H 0.3546 0.59697 0.11861 0.0
H316 H 0.33291 0.47477 0.15875 0.0
H317 H 0.25617 0.4828 0.16883 0.0
C318 C 0.21521 0.54797 0.15411 0.0
C319 C 0.19796 0.58382 0.14492 0.0
C320 C 0.26051 0.54445 0.14953 0.0
C321 C 0.22743 0.61685 0.1318 0.0
C322 C 0.27241 0.61361 0.12725 0.0
C323 C 0.3335 0.57249 0.12995 0.0
C324 C 0.34959 0.53507 0.13764 0.0
C325 C 0.28915 0.57724 0.13569 0.0
C326 C 0.32127 0.50352 0.15214 0.0
C327 C 0.27733 0.50813 0.15801 0.0
H328 H 0.84562 0.24539 0.4622 0.0
H329 H 0.77335 0.32794 0.50131 0.0
H330 H 0.82918 0.39427 0.48902 0.0
H331 H 0.8994 0.42883 0.46729 0.0
H332 H 0.97155 0.3447 0.42921 0.0
H333 H 0.91523 0.2792 0.44118 0.0
C334 C 0.84228 0.27783 0.4683 0.0
C335 C 0.80543 0.28154 0.4828 0.0
C336 C 0.87457 0.31569 0.46131 0.0
C337 C 0.80113 0.32404 0.48999 0.0
C338 C 0.83323 0.36201 0.48308 0.0
C339 C 0.90287 0.39613 0.46175 0.0
C340 C 0.9395 0.39185 0.44715 0.0
C341 C 0.87023 0.35825 0.46878 0.0
C342 C 0.94329 0.34916 0.44002 0.0
C343 C 0.91122 0.31156 0.44698 0.0
H344 H 0.40327 0.74126 0.88198 0.0
H345 H 0.45878 0.83016 0.94281 0.0
H346 H 0.41774 0.88451 0.92636 0.0
H347 H 0.39209 0.91499 0.88802 0.0
H348 H 0.3531 0.82943 0.82399 0.0
H349 H 0.35782 0.76551 0.84857 0.0
C350 C 0.40441 0.77151 0.89237 0.0
C351 C 0.43542 0.78257 0.91303 0.0
C352 C 0.38407 0.80396 0.88167 0.0
C353 C 0.43597 0.8215 0.92651 0.0
C354 C 0.41292 0.85279 0.91691 0.0
C355 C 0.38328 0.88212 0.87962 0.0
C356 C 0.37543 0.87759 0.85387 0.0
C357 C 0.39089 0.84597 0.89333 0.0
C358 C 0.36092 0.83458 0.84357 0.0
C359 C 0.36436 0.79776 0.85761 0.0
H360 H 0.88111 0.52944 0.15368 0.0
H361 H 0.91351 0.65896 0.12115 0.0
H362 H 0.83117 0.65725 0.11522 0.0
H363 H 0.74973 0.61836 0.11838 0.0
H364 H 0.71798 0.48699 0.14885 0.0
H365 H 0.79992 0.49081 0.157 0.0
C366 C 0.87027 0.55745 0.1454 0.0
C367 C 0.90372 0.59426 0.13786 0.0
C368 C 0.82273 0.55613 0.1418 0.0
C369 C 0.88873 0.63009 0.12707 0.0
C370 C 0.84153 0.62919 0.12368 0.0
C371 C 0.76056 0.59041 0.12671 0.0
C372 C 0.72706 0.55254 0.13305 0.0
C373 C 0.80816 0.59223 0.1308 0.0
C374 C 0.74237 0.51708 0.1442 0.0
C375 C 0.78949 0.51896 0.14865 0.0
H376 H 0.25958 0.83299 0.52776 0.0
H377 H 0.27716 0.89302 0.45644 0.0
H378 H 0.23029 0.82544 0.4369 0.0
H379 H 0.18768 0.74806 0.43977 0.0
H380 H 0.16878 0.68801 0.51108 0.0
H381 H 0.21322 0.7565 0.53081 0.0
C382 C 0.25315 0.83121 0.50794 0.0
C383 C 0.27194 0.86803 0.4936 0.0
C384 C 0.22614 0.79214 0.49678 0.0
C385 C 0.26277 0.86538 0.46796 0.0
C386 C 0.23615 0.82664 0.45674 0.0
C387 C 0.19246 0.7501 0.45967 0.0
C388 C 0.17496 0.71265 0.47385 0.0
C389 C 0.21794 0.78969 0.47094 0.0
C390 C 0.18237 0.71596 0.49961 0.0
C391 C 0.20767 0.75522 0.51095 0.0
H392 H 0.5981 0.33272 0.82217 0.0
H393 H 0.58984 0.33257 0.74277 0.0
H394 H 0.5996 0.25644 0.74179 0.0
H395 H 0.59453 0.18626 0.76336 0.0
H396 H 0.59464 0.18453 0.84259 0.0
H397 H 0.6041 0.26506 0.8439 0.0
C398 C 0.59906 0.31615 0.80466 0.0
C399 C 0.59219 0.33778 0.78259 0.0
C400 C 0.60263 0.27189 0.80425 0.0
C401 C 0.59486 0.31655 0.76002 0.0
C402 C 0.60002 0.27288 0.75945 0.0
C403 C 0.59826 0.20379 0.78092 0.0
C404 C 0.59359 0.17979 0.80285 0.0
C405 C 0.60168 0.24964 0.78143 0.0
C406 C 0.59787 0.20257 0.82551 0.0
C407 C 0.60303 0.24846 0.82623 0.0
H408 H 0.61396 0.93559 0.52185 0.0
H409 H 0.4661 0.91243 0.52716 0.0
H410 H 0.46094 0.83342 0.53164 0.0
H411 H 0.49771 0.76967 0.53486 0.0
H412 H 0.64574 0.79214 0.53068 0.0
H413 H 0.65087 0.87096 0.52463 0.0
C414 C 0.58054 0.91331 0.52382 0.0
C415 C 0.54055 0.93089 0.52415 0.0
C416 C 0.57757 0.86699 0.52658 0.0
C417 C 0.49773 0.90076 0.52688 0.0
C418 C 0.49461 0.85511 0.52947 0.0
C419 C 0.53127 0.79159 0.53277 0.0
C420 C 0.57117 0.77375 0.53316 0.0
C421 C 0.53426 0.83769 0.52955 0.0
C422 C 0.61401 0.8037 0.53003 0.0
C423 C 0.61714 0.84934 0.52675 0.0
H424 H 0.7236 0.67431 0.82042 0.0
H425 H 0.68888 0.53387 0.83326 0.0
H426 H 0.77142 0.53336 0.83757 0.0
H427 H 0.85319 0.57517 0.84219 0.0
H428 H 0.88639 0.71504 0.82637 0.0
H429 H 0.80479 0.7134 0.81863 0.0
C430 C 0.73423 0.6435 0.82378 0.0
C431 C 0.70057 0.60431 0.82681 0.0
C432 C 0.78143 0.64349 0.82597 0.0
C433 C 0.71442 0.56442 0.83084 0.0
C434 C 0.76154 0.56423 0.83345 0.0
C435 C 0.84274 0.60507 0.83649 0.0
C436 C 0.87608 0.64547 0.83562 0.0
C437 C 0.79541 0.60385 0.83167 0.0
C438 C 0.86158 0.68378 0.82806 0.0
C439 C 0.81484 0.68289 0.82347 0.0
H440 H 0.24428 0.85868 0.1956 0.0
H441 H 0.2993 0.85323 0.1241 0.0
H442 H 0.37199 0.90297 0.1388 0.0
H443 H 0.42191 0.94391 0.17295 0.0
H444 H 0.36644 0.94791 0.24448 0.0
H445 H 0.29222 0.90267 0.22886 0.0
C446 C 0.2722 0.86833 0.18324 0.0
C447 C 0.26646 0.85194 0.15885 0.0
C448 C 0.31399 0.89653 0.19187 0.0
C449 C 0.30267 0.86553 0.14293 0.0
C450 C 0.34437 0.89378 0.15136 0.0
C451 C 0.39332 0.93544 0.18498 0.0
C452 C 0.39987 0.94893 0.20991 0.0
C453 C 0.35067 0.90902 0.17591 0.0
C454 C 0.36255 0.93739 0.22532 0.0
C455 C 0.32005 0.91159 0.2164 0.0
H456 H 0.59312 0.24647 0.51478 0.0
H457 H 0.47368 0.20324 0.55794 0.0
H458 H 0.46988 0.27998 0.565 0.0
H459 H 0.49994 0.36028 0.55933 0.0
H460 H 0.61889 0.40446 0.516 0.0
H461 H 0.62261 0.32758 0.5085 0.0
C462 C 0.56624 0.25373 0.52575 0.0
C463 C 0.5338 0.21824 0.5358 0.0
C464 C 0.56382 0.29868 0.52968 0.0
C465 C 0.49923 0.22911 0.54985 0.0
C466 C 0.49696 0.27336 0.55396 0.0
C467 C 0.52689 0.35337 0.5483 0.0
C468 C 0.559 0.38913 0.53828 0.0
C469 C 0.52903 0.30856 0.54403 0.0
C470 C 0.59307 0.37841 0.52375 0.0
C471 C 0.59552 0.33409 0.51957 0.0
H472 H 0.38016 0.59327 0.80382 0.0
H473 H 0.42646 0.6306 0.87901 0.0
H474 H 0.34834 0.63243 0.88899 0.0
H475 H 0.26684 0.62426 0.87672 0.0
H476 H 0.21854 0.58953 0.80169 0.0
H477 H 0.29698 0.58556 0.79132 0.0
C478 C 0.37301 0.60164 0.82237 0.0
C479 C 0.40942 0.61211 0.84057 0.0
C480 C 0.32749 0.60287 0.82808 0.0
C481 C 0.3995 0.62307 0.86451 0.0
C482 C 0.35463 0.62385 0.87033 0.0
C483 C 0.27334 0.61522 0.85816 0.0
C484 C 0.23687 0.60657 0.84008 0.0
C485 C 0.31841 0.61386 0.85231 0.0
C486 C 0.24607 0.59613 0.81595 0.0
C487 C 0.2909 0.59388 0.81004 0.0
H488 H 0.83007 0.34908 0.2239 0.0
H489 H 0.8333 0.30659 0.14855 0.0
H490 H 0.76783 0.2443 0.15444 0.0
H491 H 0.71285 0.19912 0.18181 0.0
H492 H 0.71154 0.2408 0.25753 0.0
H493 H 0.77249 0.30624 0.25059 0.0
C494 C 0.81639 0.3262 0.20877 0.0
C495 C 0.83681 0.33234 0.18588 0.0
C496 C 0.77899 0.29024 0.21234 0.0
C497 C 0.81809 0.30286 0.16631 0.0
C498 C 0.78082 0.26704 0.16971 0.0
C499 C 0.72582 0.22258 0.19678 0.0
C500 C 0.70759 0.21482 0.22018 0.0
C501 C 0.76148 0.25997 0.19277 0.0
C502 C 0.72438 0.24604 0.23925 0.0
C503 C 0.75961 0.28336 0.23536 0.0
H504 H 1.00173 0.60386 0.07291 0.0
H505 H 0.11239 0.53477 0.07475 0.0
H506 H 0.12329 0.54894 0.03106 0.0
H507 H 0.10117 0.58072 0.9922 0.0
H508 H 0.98807 0.64657 0.98964 0.0
H509 H 0.97795 0.63367 0.03359 0.0
C510 C 1.02821 0.592 0.06369 0.0
C511 C 0.05628 0.5684 0.07696 0.0
C512 C 0.03369 0.59953 0.03843 0.0
C513 C 0.09025 0.55288 0.06484 0.0
C514 C 0.09656 0.56102 0.03989 0.0
C515 C 0.07443 0.5923 0.00134 0.0
C516 C 0.0455 0.61465 0.9878 0.0
C517 C 0.06846 0.58426 0.02648 0.0
C518 C 1.01055 0.62903 -0.00029 0.0
C519 C 1.00489 0.62183 0.02483 0.0
H520 H 0.56887 1.03684 0.45359 0.0
H521 H 0.48691 0.13434 0.44351 0.0
H522 H 0.50203 0.13813 0.39972 0.0
H523 H 0.53636 0.11193 0.36409 0.0
H524 H 0.61434 1.0109 0.3738 0.0
H525 H 0.60378 1.01106 0.41792 0.0
C526 C 0.55455 0.05907 0.4418 0.0
C527 C 0.52666 0.08513 0.45169 0.0
C528 C 0.56278 0.06055 0.41657 0.0
C529 C 0.5083 0.11379 0.43626 0.0
C530 C 0.51693 0.11597 0.41123 0.0
C531 C 0.55081 0.08968 0.37578 0.0
C532 C 0.57609 0.06143 0.36547 0.0
C533 C 0.54366 0.0891 0.40113 0.0
C534 C 0.59532 1.03354 0.38114 0.0
C535 C 0.58897 1.03329 0.40641 0.0
H536 H 0.51437 0.60172 0.76215 0.0
H537 H 0.63022 0.71471 0.76565 0.0
H538 H 0.63781 0.70848 0.72131 0.0
H539 H 0.61284 0.66997 0.68178 0.0
H540 H 0.50084 0.55324 0.67879 0.0
H541 H 0.4902 0.56227 0.72252 0.0
C542 C 0.54118 0.62504 0.75317 0.0
C543 C 0.57173 0.65863 0.76718 0.0
C544 C 0.54605 0.6206 0.72773 0.0
C545 C 0.60628 0.68857 0.7553 0.0
C546 C 0.61069 0.68497 0.72994 0.0
C547 C 0.58637 0.64611 0.69064 0.0
C548 C 0.55776 0.61092 0.67674 0.0
C549 C 0.58109 0.65084 0.71601 0.0
C550 C 0.52301 0.58109 0.68872 0.0
C551 C 0.51707 0.58601 0.71385 0.0
H552 H 0.49261 0.08491 0.59383 0.0
H553 H 0.59744 1.00865 0.59805 0.0
H554 H 0.57307 0.98174 0.63827 0.0
H555 H 0.52522 0.98249 0.67299 0.0
H556 H 0.42077 0.05897 0.67043 0.0
H557 H 0.44172 0.08324 0.62881 0.0
C558 C 0.50996 0.0624 0.60362 0.0
C559 C 0.54701 1.04909 0.59312 0.0
C560 C 0.49585 1.04704 0.62696 0.0
C561 C 0.56909 1.01969 0.60584 0.0
C562 C 0.55512 1.00414 0.62883 0.0
C563 C 0.50616 1.0036 0.66315 0.0
C564 C 0.47114 1.01848 0.67467 0.0
C565 C 0.51884 1.01783 0.63961 0.0
C566 C 0.44785 1.047 0.66191 0.0
C567 C 0.45988 0.06092 0.63817 0.0
H568 H 0.47138 0.52291 0.89746 0.0
H569 H 0.61619 0.58737 0.89869 0.0
H570 H 0.62133 0.58341 0.94359 0.0
H571 H 0.58496 0.56023 0.98249 0.0
H572 H 0.43951 0.4985 0.98155 0.0
H573 H 0.43406 0.50317 0.93663 0.0
C574 C 0.50403 0.53594 0.90761 0.0
C575 C 0.54349 0.55487 0.89486 0.0
C576 C 0.50652 0.5342 0.93346 0.0
C577 C 0.58542 0.5724 0.90816 0.0
C578 C 0.58838 0.57016 0.93381 0.0
C579 C 0.55212 0.54782 0.97239 0.0
C580 C 0.51276 0.52881 0.98524 0.0
C581 C 0.54923 0.5509 0.94664 0.0
C582 C 0.47022 0.51347 0.97204 0.0
C583 C 0.46716 0.51591 0.94637 0.0
H584 H 0.09731 0.56572 0.21762 0.0
H585 H 1.01933 0.66592 0.22612 0.0
H586 H 1.02267 0.65706 0.27075 0.0
H587 H 0.04926 0.62199 0.30748 0.0
H588 H 0.12679 0.52137 0.29888 0.0
H589 H 0.12258 0.52962 0.25429 0.0
C590 C 0.081 0.58553 0.22927 0.0
C591 C 0.05825 0.61651 0.21864 0.0
C592 C 0.08322 0.5804 0.25493 0.0
C593 C 0.03716 0.64191 0.2339 0.0
C594 C 0.03907 0.63688 0.25942 0.0
C595 C 0.06487 0.60159 0.29584 0.0
C596 C 0.08851 0.57129 0.30658 0.0
C597 C 0.06218 0.60636 0.27016 0.0
C598 C 0.10903 0.54549 0.29118 0.0
C599 C 0.1064 0.54996 0.26564 0.0
loop_
_geom_bond_atom_site_label_1
_geom_bond_atom_site_label_2
_geom_bond_distance
_geom_bond_site_symmetry_2
_ccdc_geom_bond_type
Pr0 C2 2.880 . S
Pr0 O20 2.562 . S
Pr0 O21 2.490 . S
Pr0 O22 2.695 1_655 S
Pr0 O23 2.512 . S
Pr0 O25 2.437 . S
Pr0 O28 2.436 . S
Pr0 O30 2.438 1_655 S
Pr1 C11 2.880 . S
Pr1 O22 2.436 . S
Pr1 O24 2.438 1_455 S
Pr1 O26 2.562 . S
Pr1 O27 2.490 . S
Pr1 O28 2.695 1_455 S
Pr1 O29 2.512 . S
Pr1 O31 2.437 . S
C2 Pr0 2.880 . S
C2 C3 1.491 . S
C2 O20 1.254 . S
C2 O21 1.225 . S
C3 C2 1.491 . S
C3 C4 1.392 . S
C3 C8 1.356 . S
C4 C3 1.392 . S
C4 C5 1.368 . S
C4 H32 0.929 . S
C5 C4 1.368 . S
C5 C6 1.386 . S
C5 H33 0.929 . S
C6 C5 1.386 . S
C6 C7 1.373 . S
C7 C6 1.373 . S
C7 C8 1.409 . S
C7 H34 0.931 . S
C8 C3 1.356 . S
C8 C7 1.409 . S
C8 H35 0.930 . S
C9 O22 1.270 . S
C9 O23 1.248 1_455 S
C10 O24 1.267 . S
C10 O25 1.278 . S
C11 Pr1 2.880 . S
C11 C12 1.491 . S
C11 O26 1.254 . S
C11 O27 1.225 . S
C12 C11 1.491 . S
C12 C13 1.392 . S
C12 C17 1.356 . S
C13 C12 1.392 . S
C13 C14 1.368 . S
C13 H36 0.929 . S
C14 C13 1.368 . S
C14 C15 1.386 . S
C14 H37 0.929 . S
C15 C14 1.386 . S
C15 C16 1.373 . S
C16 C15 1.373 . S
C16 C17 1.409 . S
C16 H38 0.931 . S
C17 C12 1.356 . S
C17 C16 1.409 . S
C17 H39 0.930 . S
C18 O28 1.270 1_455 S
C18 O29 1.248 . S
C19 O30 1.267 . S
C19 O31 1.278 . S
O20 Pr0 2.562 . S
O20 C2 1.254 . S
O21 Pr0 2.490 . S
O21 C2 1.225 . S
O22 Pr0 2.695 1_455 S
O22 Pr1 2.436 . S
O22 C9 1.270 . S
O23 Pr0 2.512 . S
O23 C9 1.248 1_655 S
O24 Pr1 2.438 1_655 S
O24 C10 1.267 . S
O25 Pr0 2.437 . S
O25 C10 1.278 . S
O26 Pr1 2.562 . S
O26 C11 1.254 . S
O27 Pr1 2.490 . S
O27 C11 1.225 . S
O28 Pr0 2.436 . S
O28 Pr1 2.695 1_655 S
O28 C18 1.270 1_655 S
O29 Pr1 2.512 . S
O29 C18 1.248 . S
O30 Pr0 2.438 1_455 S
O30 C19 1.267 . S
O31 Pr1 2.437 . S
O31 C19 1.278 . S
H32 C4 0.929 . S
H33 C5 0.929 . S
H34 C7 0.931 . S
H35 C8 0.930 . S
H36 C13 0.929 . S
H37 C14 0.929 . S
H38 C16 0.931 . S
H39 C17 0.930 . S
Pr40 C42 2.880 . S
Pr40 O60 2.562 . S
Pr40 O61 2.490 . S
Pr40 O62 2.695 . S
Pr40 O63 2.512 . S
Pr40 O65 2.437 . S
Pr40 O68 2.436 . S
Pr40 O70 2.438 1_545 S
Pr41 C51 2.880 . S
Pr41 O62 2.436 1_565 S
Pr41 O64 2.438 1_565 S
Pr41 O66 2.562 . S
Pr41 O67 2.490 . S
Pr41 O68 2.695 1_565 S
Pr41 O69 2.512 . S
Pr41 O71 2.437 . S
C42 Pr40 2.880 . S
C42 C43 1.491 . S
C42 O60 1.254 . S
C42 O61 1.225 . S
C43 C42 1.491 . S
C43 C44 1.392 . S
C43 C48 1.356 . S
C44 C43 1.392 . S
C44 C45 1.368 . S
C44 H72 0.929 . S
C45 C44 1.368 . S
C45 C46 1.386 . S
C45 H73 0.929 . S
C46 C45 1.386 . S
C46 C47 1.373 . S
C47 C46 1.373 . S
C47 C48 1.409 . S
C47 H74 0.931 . S
C48 C43 1.356 . S
C48 C47 1.409 . S
C48 H75 0.930 . S
C49 O62 1.270 . S
C49 O63 1.248 . S
C50 O64 1.267 . S
C50 O65 1.278 . S
C51 Pr41 2.880 . S
C51 C52 1.491 . S
C51 O66 1.254 . S
C51 O67 1.225 . S
C52 C51 1.491 . S
C52 C53 1.392 . S
C52 C57 1.356 . S
C53 C52 1.392 . S
C53 C54 1.368 . S
C53 H76 0.929 . S
C54 C53 1.368 . S
C54 C55 1.386 . S
C54 H77 0.929 . S
C55 C54 1.386 . S
C55 C56 1.373 . S
C56 C55 1.373 . S
C56 C57 1.409 . S
C56 H78 0.931 . S
C57 C52 1.356 . S
C57 C56 1.409 . S
C57 H79 0.930 . S
C58 O68 1.270 . S
C58 O69 1.248 1_545 S
C59 O70 1.267 . S
C59 O71 1.278 . S
O60 Pr40 2.562 . S
O60 C42 1.254 . S
O61 Pr40 2.490 . S
O61 C42 1.225 . S
O62 Pr40 2.695 . S
O62 Pr41 2.436 1_545 S
O62 C49 1.270 . S
O63 Pr40 2.512 . S
O63 C49 1.248 . S
O64 Pr41 2.438 1_545 S
O64 C50 1.267 . S
O65 Pr40 2.437 . S
O65 C50 1.278 . S
O66 Pr41 2.562 . S
O66 C51 1.254 . S
O67 Pr41 2.490 . S
O67 C51 1.225 . S
O68 Pr40 2.436 . S
O68 Pr41 2.695 1_545 S
O68 C58 1.270 . S
O69 Pr41 2.512 . S
O69 C58 1.248 1_565 S
O70 Pr40 2.438 1_565 S
O70 C59 1.267 . S
O71 Pr41 2.437 . S
O71 C59 1.278 . S
H72 C44 0.929 . S
H73 C45 0.929 . S
H74 C47 0.931 . S
H75 C48 0.930 . S
H76 C53 0.929 . S
H77 C54 0.929 . S
H78 C56 0.931 . S
H79 C57 0.930 . S
Pr80 C82 2.880 . S
Pr80 O100 2.562 . S
Pr80 O101 2.490 . S
Pr80 O102 2.695 . S
Pr80 O103 2.512 . S
Pr80 O105 2.437 . S
Pr80 O108 2.436 . S
Pr80 O110 2.438 . S
Pr81 C91 2.880 . S
Pr81 O102 2.436 . S
Pr81 O104 2.438 . S
Pr81 O106 2.562 . S
Pr81 O107 2.490 . S
Pr81 O108 2.695 . S
Pr81 O109 2.512 . S
Pr81 O111 2.437 . S
C82 Pr80 2.880 . S
C82 C83 1.491 . S
C82 O100 1.254 . S
C82 O101 1.225 . S
C83 C82 1.491 . S
C83 C84 1.392 . S
C83 C88 1.356 . S
C84 C83 1.392 . S
C84 C85 1.368 . S
C84 H112 0.929 . S
C85 C84 1.368 . S
C85 C86 1.386 . S
C85 H113 0.929 . S
C86 C85 1.386 . S
C86 C87 1.373 . S
C87 C86 1.373 . S
C87 C88 1.409 . S
C87 H114 0.931 . S
C88 C83 1.356 . S
C88 C87 1.409 . S
C88 H115 0.930 . S
C89 O102 1.270 . S
C89 O103 1.248 . S
C90 O104 1.267 . S
C90 O105 1.278 . S
C91 Pr81 2.880 . S
C91 C92 1.491 . S
C91 O106 1.254 . S
C91 O107 1.225 . S
C92 C91 1.491 . S
C92 C93 1.392 . S
C92 C97 1.356 . S
C93 C92 1.392 . S
C93 C94 1.368 . S
C93 H116 0.929 . S
C94 C93 1.368 . S
C94 C95 1.386 . S
C94 H117 0.929 . S
C95 C94 1.386 . S
C95 C96 1.373 . S
C96 C95 1.373 . S
C96 C97 1.409 . S
C96 H118 0.931 . S
C97 C92 1.356 . S
C97 C96 1.409 . S
C97 H119 0.930 . S
C98 O108 1.270 . S
C98 O109 1.248 . S
C99 O110 1.267 . S
C99 O111 1.278 . S
O100 Pr80 2.562 . S
O100 C82 1.254 . S
O101 Pr80 2.490 . S
O101 C82 1.225 . S
O102 Pr80 2.695 . S
O102 Pr81 2.436 . S
O102 C89 1.270 . S
O103 Pr80 2.512 . S
O103 C89 1.248 . S
O104 Pr81 2.438 . S
O104 C90 1.267 . S
O105 Pr80 2.437 . S
O105 C90 1.278 . S
O106 Pr81 2.562 . S
O106 C91 1.254 . S
O107 Pr81 2.490 . S
O107 C91 1.225 . S
O108 Pr80 2.436 . S
O108 Pr81 2.695 . S
O108 C98 1.270 . S
O109 Pr81 2.512 . S
O109 C98 1.248 . S
O110 Pr80 2.438 . S
O110 C99 1.267 . S
O111 Pr81 2.437 . S
O111 C99 1.278 . S
H112 C84 0.929 . S
H113 C85 0.929 . S
H114 C87 0.931 . S
H115 C88 0.930 . S
H116 C93 0.929 . S
H117 C94 0.929 . S
H118 C96 0.931 . S
H119 C97 0.930 . S
P120 O131 1.490 . S
P120 C134 1.812 . S
P120 C140 1.803 1_565 S
P120 C146 1.819 1_565 S
H121 C135 0.941 . S
H122 C136 0.939 . S
H123 C138 0.940 . S
H124 C139 0.940 . S
H125 C141 0.939 . S
H126 C142 0.942 . S
H127 C144 0.940 . S
H128 C145 0.939 . S
H129 C147 0.941 . S
H130 C151 0.939 . S
O131 P120 1.490 . S
H132 C148 0.939 . S
H133 C150 0.940 . S
C134 P120 1.812 . S
C134 C135 1.389 . S
C134 C139 1.391 . S
C135 H121 0.941 . S
C135 C134 1.389 . S
C135 C136 1.397 . S
C136 H122 0.939 . S
C136 C135 1.397 . S
C136 C137 1.378 . S
C137 C136 1.378 . S
C137 C138 1.378 . S
C138 H123 0.940 . S
C138 C137 1.378 . S
C138 C139 1.396 . S
C139 H124 0.940 . S
C139 C134 1.391 . S
C139 C138 1.396 . S
C140 P120 1.803 1_545 S
C140 C141 1.378 . S
C140 C145 1.400 . S
C141 H125 0.939 . S
C141 C140 1.378 . S
C141 C142 1.361 . S
C142 H126 0.942 . S
C142 C141 1.361 . S
C142 C143 1.369 . S
C143 C142 1.369 . S
C143 C144 1.404 . S
C144 H127 0.940 . S
C144 C143 1.404 . S
C144 C145 1.389 . S
C145 H128 0.939 . S
C145 C140 1.400 . S
C145 C144 1.389 . S
C146 P120 1.819 1_545 S
C146 C147 1.391 1_545 S
C146 C151 1.391 . S
C147 H129 0.941 . S
C147 C146 1.391 1_565 S
C147 C148 1.396 . S
C148 H132 0.939 . S
C148 C147 1.396 . S
C148 C149 1.397 1_565 S
C149 C148 1.397 1_545 S
C149 C150 1.385 . S
C150 H133 0.940 . S
C150 C149 1.385 . S
C150 C151 1.388 . S
C151 H130 0.939 . S
C151 C146 1.391 . S
C151 C150 1.388 . S
P152 O163 1.490 . S
P152 C166 1.812 . S
P152 C172 1.803 . S
P152 C178 1.819 . S
H153 C167 0.941 . S
H154 C168 0.939 . S
H155 C170 0.940 . S
H156 C171 0.940 . S
H157 C173 0.939 . S
H158 C174 0.942 . S
H159 C176 0.940 . S
H160 C177 0.939 . S
H161 C179 0.941 . S
H162 C183 0.939 . S
O163 P152 1.490 . S
H164 C180 0.939 . S
H165 C182 0.940 . S
C166 P152 1.812 . S
C166 C167 1.389 . S
C166 C171 1.391 . S
C167 H153 0.941 . S
C167 C166 1.389 . S
C167 C168 1.397 . S
C168 H154 0.939 . S
C168 C167 1.397 . S
C168 C169 1.378 . S
C169 C168 1.378 . S
C169 C170 1.378 . S
C170 H155 0.940 . S
C170 C169 1.378 . S
C170 C171 1.396 . S
C171 H156 0.940 . S
C171 C166 1.391 . S
C171 C170 1.396 . S
C172 P152 1.803 . S
C172 C173 1.378 . S
C172 C177 1.400 . S
C173 H157 0.939 . S
C173 C172 1.378 . S
C173 C174 1.361 . S
C174 H158 0.942 . S
C174 C173 1.361 . S
C174 C175 1.369 . S
C175 C174 1.369 . S
C175 C176 1.404 . S
C176 H159 0.940 . S
C176 C175 1.404 . S
C176 C177 1.389 . S
C177 H160 0.939 . S
C177 C172 1.400 . S
C177 C176 1.389 . S
C178 P152 1.819 . S
C178 C179 1.391 . S
C178 C183 1.391 . S
C179 H161 0.941 . S
C179 C178 1.391 . S
C179 C180 1.396 . S
C180 H164 0.939 . S
C180 C179 1.396 . S
C180 C181 1.397 . S
C181 C180 1.397 . S
C181 C182 1.385 . S
C182 H165 0.940 . S
C182 C181 1.385 . S
C182 C183 1.388 . S
C183 H162 0.939 . S
C183 C178 1.391 . S
C183 C182 1.388 . S
P184 O195 1.490 . S
P184 C198 1.812 . S
P184 C204 1.803 1_455 S
P184 C210 1.819 . S
H185 C199 0.941 . S
H186 C200 0.939 . S
H187 C202 0.940 . S
H188 C203 0.940 . S
H189 C205 0.939 . S
H190 C206 0.942 . S
H191 C208 0.940 . S
H192 C209 0.939 . S
H193 C211 0.941 . S
H194 C215 0.939 . S
O195 P184 1.490 . S
H196 C212 0.939 . S
H197 C214 0.940 . S
C198 P184 1.812 . S
C198 C199 1.389 . S
C198 C203 1.391 . S
C199 H185 0.941 . S
C199 C198 1.389 . S
C199 C200 1.397 . S
C200 H186 0.939 . S
C200 C199 1.397 . S
C200 C201 1.378 . S
C201 C200 1.378 . S
C201 C202 1.378 . S
C202 H187 0.940 . S
C202 C201 1.378 . S
C202 C203 1.396 . S
C203 H188 0.940 . S
C203 C198 1.391 . S
C203 C202 1.396 . S
C204 P184 1.803 1_655 S
C204 C205 1.378 . S
C204 C209 1.400 . S
C205 H189 0.939 . S
C205 C204 1.378 . S
C205 C206 1.361 . S
C206 H190 0.942 . S
C206 C205 1.361 . S
C206 C207 1.369 . S
C207 C206 1.369 . S
C207 C208 1.404 . S
C208 H191 0.940 . S
C208 C207 1.404 . S
C208 C209 1.389 . S
C209 H192 0.939 . S
C209 C204 1.400 . S
C209 C208 1.389 . S
C210 P184 1.819 . S
C210 C211 1.391 . S
C210 C215 1.391 1_455 S
C211 H193 0.941 . S
C211 C210 1.391 . S
C211 C212 1.396 . S
C212 H196 0.939 . S
C212 C211 1.396 . S
C212 C213 1.397 . S
C213 C212 1.397 . S
C213 C214 1.385 1_455 S
C214 H197 0.940 . S
C214 C213 1.385 1_655 S
C214 C215 1.388 . S
C215 H194 0.939 . S
C215 C210 1.391 1_655 S
C215 C214 1.388 . S
P216 O227 1.490 . S
P216 C230 1.812 . S
P216 C236 1.803 1_455 S
P216 C242 1.819 . S
H217 C231 0.941 . S
H218 C232 0.939 . S
H219 C234 0.940 . S
H220 C235 0.940 . S
H221 C237 0.939 . S
H222 C238 0.942 . S
H223 C240 0.940 . S
H224 C241 0.939 . S
H225 C243 0.941 . S
H226 C247 0.939 . S
O227 P216 1.490 . S
H228 C244 0.939 . S
H229 C246 0.940 . S
C230 P216 1.812 . S
C230 C231 1.389 . S
C230 C235 1.391 . S
C231 H217 0.941 . S
C231 C230 1.389 . S
C231 C232 1.397 . S
C232 H218 0.939 . S
C232 C231 1.397 . S
C232 C233 1.378 . S
C233 C232 1.378 . S
C233 C234 1.378 . S
C234 H219 0.940 . S
C234 C233 1.378 . S
C234 C235 1.396 . S
C235 H220 0.940 . S
C235 C230 1.391 . S
C235 C234 1.396 . S
C236 P216 1.803 1_655 S
C236 C237 1.378 . S
C236 C241 1.400 . S
C237 H221 0.939 . S
C237 C236 1.378 . S
C237 C238 1.361 . S
C238 H222 0.942 . S
C238 C237 1.361 . S
C238 C239 1.369 . S
C239 C238 1.369 . S
C239 C240 1.404 . S
C240 H223 0.940 . S
C240 C239 1.404 . S
C240 C241 1.389 . S
C241 H224 0.939 . S
C241 C236 1.400 . S
C241 C240 1.389 . S
C242 P216 1.819 . S
C242 C243 1.391 . S
C242 C247 1.391 1_455 S
C243 H225 0.941 . S
C243 C242 1.391 . S
C243 C244 1.396 . S
C244 H228 0.939 . S
C244 C243 1.396 . S
C244 C245 1.397 . S
C245 C244 1.397 . S
C245 C246 1.385 1_455 S
C246 H229 0.940 . S
C246 C245 1.385 1_655 S
C246 C247 1.388 . S
C247 H226 0.939 . S
C247 C242 1.391 1_655 S
C247 C246 1.388 . S
P248 O259 1.490 . S
P248 C262 1.812 . S
P248 C268 1.803 1_545 S
P248 C274 1.819 . S
H249 C263 0.941 . S
H250 C264 0.939 . S
H251 C266 0.940 . S
H252 C267 0.940 . S
H253 C269 0.939 . S
H254 C270 0.942 . S
H255 C272 0.940 . S
H256 C273 0.939 . S
H257 C275 0.941 . S
H258 C279 0.939 . S
O259 P248 1.490 . S
H260 C276 0.939 . S
H261 C278 0.940 . S
C262 P248 1.812 . S
C262 C263 1.389 . S
C262 C267 1.391 . S
C263 H249 0.941 . S
C263 C262 1.389 . S
C263 C264 1.397 . S
C264 H250 0.939 . S
C264 C263 1.397 . S
C264 C265 1.378 . S
C265 C264 1.378 . S
C265 C266 1.378 . S
C266 H251 0.940 . S
C266 C265 1.378 . S
C266 C267 1.396 . S
C267 H252 0.940 . S
C267 C262 1.391 . S
C267 C266 1.396 . S
C268 P248 1.803 1_565 S
C268 C269 1.378 . S
C268 C273 1.400 . S
C269 H253 0.939 . S
C269 C268 1.378 . S
C269 C270 1.361 . S
C270 H254 0.942 . S
C270 C269 1.361 . S
C270 C271 1.369 . S
C271 C270 1.369 . S
C271 C272 1.404 . S
C272 H255 0.940 . S
C272 C271 1.404 . S
C272 C273 1.389 . S
C273 H256 0.939 . S
C273 C268 1.400 . S
C273 C272 1.389 . S
C274 P248 1.819 . S
C274 C275 1.391 . S
C274 C279 1.391 1_545 S
C275 H257 0.941 . S
C275 C274 1.391 . S
C275 C276 1.396 . S
C276 H260 0.939 . S
C276 C275 1.396 . S
C276 C277 1.397 . S
C277 C276 1.397 . S
C277 C278 1.385 1_545 S
C278 H261 0.940 . S
C278 C277 1.385 1_565 S
C278 C279 1.388 . S
C279 H258 0.939 . S
C279 C274 1.391 1_565 S
C279 C278 1.388 . S
P280 O291 1.490 . S
P280 C294 1.812 . S
P280 C300 1.803 . S
P280 C306 1.819 . S
H281 C295 0.941 . S
H282 C296 0.939 . S
H283 C298 0.940 . S
H284 C299 0.940 . S
H285 C301 0.939 . S
H286 C302 0.942 . S
H287 C304 0.940 . S
H288 C305 0.939 . S
H289 C307 0.941 . S
H290 C311 0.939 . S
O291 P280 1.490 . S
H292 C308 0.939 . S
H293 C310 0.940 . S
C294 P280 1.812 . S
C294 C295 1.389 . S
C294 C299 1.391 . S
C295 H281 0.941 . S
C295 C294 1.389 . S
C295 C296 1.397 . S
C296 H282 0.939 . S
C296 C295 1.397 . S
C296 C297 1.378 . S
C297 C296 1.378 . S
C297 C298 1.378 . S
C298 H283 0.940 . S
C298 C297 1.378 . S
C298 C299 1.396 . S
C299 H284 0.940 . S
C299 C294 1.391 . S
C299 C298 1.396 . S
C300 P280 1.803 . S
C300 C301 1.378 . S
C300 C305 1.400 . S
C301 H285 0.939 . S
C301 C300 1.378 . S
C301 C302 1.361 . S
C302 H286 0.942 . S
C302 C301 1.361 . S
C302 C303 1.369 . S
C303 C302 1.369 . S
C303 C304 1.404 . S
C304 H287 0.940 . S
C304 C303 1.404 . S
C304 C305 1.389 . S
C305 H288 0.939 . S
C305 C300 1.400 . S
C305 C304 1.389 . S
C306 P280 1.819 . S
C306 C307 1.391 . S
C306 C311 1.391 . S
C307 H289 0.941 . S
C307 C306 1.391 . S
C307 C308 1.396 . S
C308 H292 0.939 . S
C308 C307 1.396 . S
C308 C309 1.397 . S
C309 C308 1.397 . S
C309 C310 1.385 . S
C310 H293 0.940 . S
C310 C309 1.385 . S
C310 C311 1.388 . S
C311 H290 0.939 . S
C311 C306 1.391 . S
C311 C310 1.388 . S
H312 C318 0.930 . S
H313 C321 0.930 . S
H314 C322 0.930 . S
H315 C323 0.930 . S
H316 C326 0.930 . S
H317 C327 0.930 . S
C318 H312 0.930 . S
C318 C319 1.355 . S
C318 C320 1.415 . S
C319 C318 1.355 . S
C319 C321 1.419 . S
C320 C318 1.415 . S
C320 C325 1.425 . S
C320 C327 1.409 . S
C321 H313 0.930 . S
C321 C319 1.419 . S
C321 C322 1.362 . S
C322 H314 0.930 . S
C322 C321 1.362 . S
C322 C325 1.409 . S
C323 H315 0.930 . S
C323 C324 1.355 . S
C323 C325 1.415 . S
C324 C323 1.355 . S
C324 C326 1.419 . S
C325 C320 1.425 . S
C325 C322 1.409 . S
C325 C323 1.415 . S
C326 H316 0.930 . S
C326 C324 1.419 . S
C326 C327 1.362 . S
C327 H317 0.930 . S
C327 C320 1.409 . S
C327 C326 1.362 . S
H328 C334 0.930 . S
H329 C337 0.930 . S
H330 C338 0.930 . S
H331 C339 0.930 . S
H332 C342 0.930 . S
H333 C343 0.930 . S
C334 H328 0.930 . S
C334 C335 1.355 . S
C334 C336 1.415 . S
C335 C334 1.355 . S
C335 C337 1.419 . S
C336 C334 1.415 . S
C336 C341 1.425 . S
C336 C343 1.409 . S
C337 H329 0.930 . S
C337 C335 1.419 . S
C337 C338 1.362 . S
C338 H330 0.930 . S
C338 C337 1.362 . S
C338 C341 1.409 . S
C339 H331 0.930 . S
C339 C340 1.355 . S
C339 C341 1.415 . S
C340 C339 1.355 . S
C340 C342 1.419 . S
C341 C336 1.425 . S
C341 C338 1.409 . S
C341 C339 1.415 . S
C342 H332 0.930 . S
C342 C340 1.419 . S
C342 C343 1.362 . S
C343 H333 0.930 . S
C343 C336 1.409 . S
C343 C342 1.362 . S
H344 C350 0.930 . S
H345 C353 0.930 . S
H346 C354 0.930 . S
H347 C355 0.930 . S
H348 C358 0.930 . S
H349 C359 0.930 . S
C350 H344 0.930 . S
C350 C351 1.355 . S
C350 C352 1.415 . S
C351 C350 1.355 . S
C351 C353 1.419 . S
C352 C350 1.415 . S
C352 C357 1.425 . S
C352 C359 1.409 . S
C353 H345 0.930 . S
C353 C351 1.419 . S
C353 C354 1.362 . S
C354 H346 0.930 . S
C354 C353 1.362 . S
C354 C357 1.409 . S
C355 H347 0.930 . S
C355 C356 1.355 . S
C355 C357 1.415 . S
C356 C355 1.355 . S
C356 C358 1.419 . S
C357 C352 1.425 . S
C357 C354 1.409 . S
C357 C355 1.415 . S
C358 H348 0.930 . S
C358 C356 1.419 . S
C358 C359 1.362 . S
C359 H349 0.930 . S
C359 C352 1.409 . S
C359 C358 1.362 . S
H360 C366 0.930 . S
H361 C369 0.930 . S
H362 C370 0.930 . S
H363 C371 0.930 . S
H364 C374 0.930 . S
H365 C375 0.930 . S
C366 H360 0.930 . S
C366 C367 1.355 . S
C366 C368 1.415 . S
C367 C366 1.355 . S
C367 C369 1.419 . S
C368 C366 1.415 . S
C368 C373 1.425 . S
C368 C375 1.409 . S
C369 H361 0.930 . S
C369 C367 1.419 . S
C369 C370 1.362 . S
C370 H362 0.930 . S
C370 C369 1.362 . S
C370 C373 1.409 . S
C371 H363 0.930 . S
C371 C372 1.355 . S
C371 C373 1.415 . S
C372 C371 1.355 . S
C372 C374 1.419 . S
C373 C368 1.425 . S
C373 C370 1.409 . S
C373 C371 1.415 . S
C374 H364 0.930 . S
C374 C372 1.419 . S
C374 C375 1.362 . S
C375 H365 0.930 . S
C375 C368 1.409 . S
C375 C374 1.362 . S
H376 C382 0.930 . S
H377 C385 0.930 . S
H378 C386 0.930 . S
H379 C387 0.930 . S
H380 C390 0.930 . S
H381 C391 0.930 . S
C382 H376 0.930 . S
C382 C383 1.355 . S
C382 C384 1.415 . S
C383 C382 1.355 . S
C383 C385 1.419 . S
C384 C382 1.415 . S
C384 C389 1.425 . S
C384 C391 1.409 . S
C385 H377 0.930 . S
C385 C383 1.419 . S
C385 C386 1.362 . S
C386 H378 0.930 . S
C386 C385 1.362 . S
C386 C389 1.409 . S
C387 H379 0.930 . S
C387 C388 1.355 . S
C387 C389 1.415 . S
C388 C387 1.355 . S
C388 C390 1.419 . S
C389 C384 1.425 . S
C389 C386 1.409 . S
C389 C387 1.415 . S
C390 H380 0.930 . S
C390 C388 1.419 . S
C390 C391 1.362 . S
C391 H381 0.930 . S
C391 C384 1.409 . S
C391 C390 1.362 . S
H392 C398 0.930 . S
H393 C401 0.930 . S
H394 C402 0.930 . S
H395 C403 0.930 . S
H396 C406 0.930 . S
H397 C407 0.930 . S
C398 H392 0.930 . S
C398 C399 1.355 . S
C398 C400 1.415 . S
C399 C398 1.355 . S
C399 C401 1.419 . S
C400 C398 1.415 . S
C400 C405 1.425 . S
C400 C407 1.409 . S
C401 H393 0.930 . S
C401 C399 1.419 . S
C401 C402 1.362 . S
C402 H394 0.930 . S
C402 C401 1.362 . S
C402 C405 1.409 . S
C403 H395 0.930 . S
C403 C404 1.355 . S
C403 C405 1.415 . S
C404 C403 1.355 . S
C404 C406 1.419 . S
C405 C400 1.425 . S
C405 C402 1.409 . S
C405 C403 1.415 . S
C406 H396 0.930 . S
C406 C404 1.419 . S
C406 C407 1.362 . S
C407 H397 0.930 . S
C407 C400 1.409 . S
C407 C406 1.362 . S
H408 C414 0.930 . S
H409 C417 0.930 . S
H410 C418 0.930 . S
H411 C419 0.930 . S
H412 C422 0.930 . S
H413 C423 0.930 . S
C414 H408 0.930 . S
C414 C415 1.355 . S
C414 C416 1.415 . S
C415 C414 1.355 . S
C415 C417 1.419 . S
C416 C414 1.415 . S
C416 C421 1.425 . S
C416 C423 1.409 . S
C417 H409 0.930 . S
C417 C415 1.419 . S
C417 C418 1.362 . S
C418 H410 0.930 . S
C418 C417 1.362 . S
C418 C421 1.409 . S
C419 H411 0.930 . S
C419 C420 1.355 . S
C419 C421 1.415 . S
C420 C419 1.355 . S
C420 C422 1.419 . S
C421 C416 1.425 . S
C421 C418 1.409 . S
C421 C419 1.415 . S
C422 H412 0.930 . S
C422 C420 1.419 . S
C422 C423 1.362 . S
C423 H413 0.930 . S
C423 C416 1.409 . S
C423 C422 1.362 . S
H424 C430 0.930 . S
H425 C433 0.930 . S
H426 C434 0.930 . S
H427 C435 0.930 . S
H428 C438 0.930 . S
H429 C439 0.930 . S
C430 H424 0.930 . S
C430 C431 1.355 . S
C430 C432 1.415 . S
C431 C430 1.355 . S
C431 C433 1.419 . S
C432 C430 1.415 . S
C432 C437 1.425 . S
C432 C439 1.409 . S
C433 H425 0.930 . S
C433 C431 1.419 . S
C433 C434 1.362 . S
C434 H426 0.930 . S
C434 C433 1.362 . S
C434 C437 1.409 . S
C435 H427 0.930 . S
C435 C436 1.355 . S
C435 C437 1.415 . S
C436 C435 1.355 . S
C436 C438 1.419 . S
C437 C432 1.425 . S
C437 C434 1.409 . S
C437 C435 1.415 . S
C438 H428 0.930 . S
C438 C436 1.419 . S
C438 C439 1.362 . S
C439 H429 0.930 . S
C439 C432 1.409 . S
C439 C438 1.362 . S
H440 C446 0.930 . S
H441 C449 0.930 . S
H442 C450 0.930 . S
H443 C451 0.930 . S
H444 C454 0.930 . S
H445 C455 0.930 . S
C446 H440 0.930 . S
C446 C447 1.355 . S
C446 C448 1.415 . S
C447 C446 1.355 . S
C447 C449 1.419 . S
C448 C446 1.415 . S
C448 C453 1.425 . S
C448 C455 1.409 . S
C449 H441 0.930 . S
C449 C447 1.419 . S
C449 C450 1.362 . S
C450 H442 0.930 . S
C450 C449 1.362 . S
C450 C453 1.409 . S
C451 H443 0.930 . S
C451 C452 1.355 . S
C451 C453 1.415 . S
C452 C451 1.355 . S
C452 C454 1.419 . S
C453 C448 1.425 . S
C453 C450 1.409 . S
C453 C451 1.415 . S
C454 H444 0.930 . S
C454 C452 1.419 . S
C454 C455 1.362 . S
C455 H445 0.930 . S
C455 C448 1.409 . S
C455 C454 1.362 . S
H456 C462 0.930 . S
H457 C465 0.930 . S
H458 C466 0.930 . S
H459 C467 0.930 . S
H460 C470 0.930 . S
H461 C471 0.930 . S
C462 H456 0.930 . S
C462 C463 1.355 . S
C462 C464 1.415 . S
C463 C462 1.355 . S
C463 C465 1.419 . S
C464 C462 1.415 . S
C464 C469 1.425 . S
C464 C471 1.409 . S
C465 H457 0.930 . S
C465 C463 1.419 . S
C465 C466 1.362 . S
C466 H458 0.930 . S
C466 C465 1.362 . S
C466 C469 1.409 . S
C467 H459 0.930 . S
C467 C468 1.355 . S
C467 C469 1.415 . S
C468 C467 1.355 . S
C468 C470 1.419 . S
C469 C464 1.425 . S
C469 C466 1.409 . S
C469 C467 1.415 . S
C470 H460 0.930 . S
C470 C468 1.419 . S
C470 C471 1.362 . S
C471 H461 0.930 . S
C471 C464 1.409 . S
C471 C470 1.362 . S
H472 C478 0.930 . S
H473 C481 0.930 . S
H474 C482 0.930 . S
H475 C483 0.930 . S
H476 C486 0.930 . S
H477 C487 0.930 . S
C478 H472 0.930 . S
C478 C479 1.355 . S
C478 C480 1.415 . S
C479 C478 1.355 . S
C479 C481 1.419 . S
C480 C478 1.415 . S
C480 C485 1.425 . S
C480 C487 1.409 . S
C481 H473 0.930 . S
C481 C479 1.419 . S
C481 C482 1.362 . S
C482 H474 0.930 . S
C482 C481 1.362 . S
C482 C485 1.409 . S
C483 H475 0.930 . S
C483 C484 1.355 . S
C483 C485 1.415 . S
C484 C483 1.355 . S
C484 C486 1.419 . S
C485 C480 1.425 . S
C485 C482 1.409 . S
C485 C483 1.415 . S
C486 H476 0.930 . S
C486 C484 1.419 . S
C486 C487 1.362 . S
C487 H477 0.930 . S
C487 C480 1.409 . S
C487 C486 1.362 . S
H488 C494 0.930 . S
H489 C497 0.930 . S
H490 C498 0.930 . S
H491 C499 0.930 . S
H492 C502 0.930 . S
H493 C503 0.930 . S
C494 H488 0.930 . S
C494 C495 1.355 . S
C494 C496 1.415 . S
C495 C494 1.355 . S
C495 C497 1.419 . S
C496 C494 1.415 . S
C496 C501 1.425 . S
C496 C503 1.409 . S
C497 H489 0.930 . S
C497 C495 1.419 . S
C497 C498 1.362 . S
C498 H490 0.930 . S
C498 C497 1.362 . S
C498 C501 1.409 . S
C499 H491 0.930 . S
C499 C500 1.355 . S
C499 C501 1.415 . S
C500 C499 1.355 . S
C500 C502 1.419 . S
C501 C496 1.425 . S
C501 C498 1.409 . S
C501 C499 1.415 . S
C502 H492 0.930 . S
C502 C500 1.419 . S
C502 C503 1.362 . S
C503 H493 0.930 . S
C503 C496 1.409 . S
C503 C502 1.362 . S
H504 C510 0.930 . S
H505 C513 0.930 . S
H506 C514 0.930 . S
H507 C515 0.930 . S
H508 C518 0.930 . S
H509 C519 0.930 . S
C510 H504 0.930 . S
C510 C511 1.355 1_655 S
C510 C512 1.415 1_655 S
C511 C510 1.355 1_455 S
C511 C513 1.419 . S
C512 C510 1.415 1_455 S
C512 C517 1.425 . S
C512 C519 1.409 1_455 S
C513 H505 0.930 . S
C513 C511 1.419 . S
C513 C514 1.362 . S
C514 H506 0.930 . S
C514 C513 1.362 . S
C514 C517 1.409 . S
C515 H507 0.930 . S
C515 C516 1.355 1_554 S
C515 C517 1.415 . S
C516 C515 1.355 1_556 S
C516 C518 1.419 1_455 S
C517 C512 1.425 . S
C517 C514 1.409 . S
C517 C515 1.415 . S
C518 H508 0.930 . S
C518 C516 1.419 1_655 S
C518 C519 1.362 1_556 S
C519 H509 0.930 . S
C519 C512 1.409 1_655 S
C519 C518 1.362 1_554 S
H520 C526 0.930 . S
H521 C529 0.930 . S
H522 C530 0.930 . S
H523 C531 0.930 . S
H524 C534 0.930 . S
H525 C535 0.930 . S
C526 H520 0.930 . S
C526 C527 1.355 1_565 S
C526 C528 1.412 1_565 S
C527 C526 1.355 1_545 S
C527 C529 1.419 . S
C528 C526 1.412 1_545 S
C528 C533 1.435 . S
C528 C535 1.402 1_545 S
C529 H521 0.930 . S
C529 C527 1.419 . S
C529 C530 1.362 . S
C530 H522 0.930 . S
C530 C529 1.362 . S
C530 C533 1.409 . S
C531 H523 0.930 . S
C531 C532 1.355 . S
C531 C533 1.415 . S
C532 C531 1.355 . S
C532 C534 1.419 1_545 S
C533 C528 1.435 . S
C533 C530 1.409 . S
C533 C531 1.415 . S
C534 H524 0.930 . S
C534 C532 1.419 1_565 S
C534 C535 1.362 . S
C535 H525 0.930 . S
C535 C528 1.402 1_565 S
C535 C534 1.362 . S
H536 C542 0.930 . S
H537 C545 0.930 . S
H538 C546 0.930 . S
H539 C547 0.930 . S
H540 C550 0.930 . S
H541 C551 0.930 . S
C542 H536 0.930 . S
C542 C543 1.355 . S
C542 C544 1.415 . S
C543 C542 1.355 . S
C543 C545 1.419 . S
C544 C542 1.415 . S
C544 C549 1.425 . S
C544 C551 1.409 . S
C545 H537 0.930 . S
C545 C543 1.419 . S
C545 C546 1.362 . S
C546 H538 0.930 . S
C546 C545 1.362 . S
C546 C549 1.409 . S
C547 H539 0.930 . S
C547 C548 1.355 . S
C547 C549 1.415 . S
C548 C547 1.355 . S
C548 C550 1.419 . S
C549 C544 1.425 . S
C549 C546 1.409 . S
C549 C547 1.415 . S
C550 H540 0.930 . S
C550 C548 1.419 . S
C550 C551 1.362 . S
C551 H541 0.930 . S
C551 C544 1.409 . S
C551 C550 1.362 . S
H552 C558 0.930 . S
H553 C561 0.930 . S
H554 C562 0.930 . S
H555 C563 0.930 . S
H556 C566 0.930 . S
H557 C567 0.930 . S
C558 H552 0.930 . S
C558 C559 1.355 . S
C558 C560 1.415 . S
C559 C558 1.355 . S
C559 C561 1.419 1_545 S
C560 C558 1.415 . S
C560 C565 1.425 1_545 S
C560 C567 1.409 . S
C561 H553 0.930 . S
C561 C559 1.419 1_565 S
C561 C562 1.362 . S
C562 H554 0.930 . S
C562 C561 1.362 . S
C562 C565 1.409 . S
C563 H555 0.930 . S
C563 C564 1.355 1_565 S
C563 C565 1.415 . S
C564 C563 1.355 1_545 S
C564 C566 1.419 . S
C565 C560 1.425 1_565 S
C565 C562 1.409 . S
C565 C563 1.415 . S
C566 H556 0.930 . S
C566 C564 1.419 . S
C566 C567 1.362 . S
C567 H557 0.930 . S
C567 C560 1.409 . S
C567 C566 1.362 . S
H568 C574 0.930 . S
H569 C577 0.930 . S
H570 C578 0.930 . S
H571 C579 0.930 1_554 S
H572 C582 0.950 . S
H573 C583 0.930 . S
C574 H568 0.930 . S
C574 C575 1.355 . S
C574 C576 1.415 . S
C575 C574 1.355 . S
C575 C577 1.419 . S
C576 C574 1.415 . S
C576 C581 1.425 . S
C576 C583 1.409 . S
C577 H569 0.930 . S
C577 C575 1.419 . S
C577 C578 1.362 . S
C578 H570 0.930 . S
C578 C577 1.362 . S
C578 C581 1.409 . S
C579 H571 0.930 1_556 S
C579 C580 1.355 1_556 S
C579 C581 1.415 . S
C580 C579 1.355 1_554 S
C580 C582 1.429 . S
C581 C576 1.425 . S
C581 C578 1.409 . S
C581 C579 1.415 . S
C582 H572 0.950 . S
C582 C580 1.429 . S
C582 C583 1.333 1_554 S
C583 H573 0.930 . S
C583 C576 1.409 . S
C583 C582 1.333 1_556 S
H584 C590 0.930 . S
H585 C593 0.930 . S
H586 C594 0.930 . S
H587 C595 0.930 . S
H588 C598 0.930 . S
H589 C599 0.930 . S
C590 H584 0.930 . S
C590 C591 1.355 . S
C590 C592 1.415 . S
C591 C590 1.355 . S
C591 C593 1.419 1_455 S
C592 C590 1.415 . S
C592 C597 1.425 1_455 S
C592 C599 1.409 . S
C593 H585 0.930 . S
C593 C591 1.419 1_655 S
C593 C594 1.362 . S
C594 H586 0.930 . S
C594 C593 1.362 . S
C594 C597 1.409 . S
C595 H587 0.930 . S
C595 C596 1.355 1_655 S
C595 C597 1.415 . S
C596 C595 1.355 1_455 S
C596 C598 1.419 . S
C597 C592 1.425 1_655 S
C597 C594 1.409 . S
C597 C595 1.415 . S
C598 H588 0.930 . S
C598 C596 1.419 . S
C598 C599 1.362 . S
C599 H589 0.930 . S
C599 C592 1.409 . S
C599 C598 1.362 . S
C319 C19 1.903 . S
C324 C303 1.810 . S
C335 C46 1.297 . S
C340 C239 1.241 . S
C351 C95 0.514 . S
C356 C271 0.537 . S
C367 C10 1.989 . S
C372 C297 1.928 . S
C388 C233 1.318 . S
C383 C55 1.272 . S
C404 C265 0.639 . S
C399 C86 0.606 . S
C415 C59 3.099 . S
C420 C175 3.015 . S
C431 C90 2.026 . S
C436 C207 1.962 . S
C447 C15 1.315 . S
C452 C137 1.343 . S
C468 C169 2.954 . S
C463 C50 2.999 . S
C484 C201 1.911 . S
C479 C99 1.937 . S
C495 C6 1.238 . S
C500 C143 1.281 . S
C516 C213 1.319 . S
C511 C9 1.296 . S
C527 C58 1.467 . S
C532 C149 1.468 . S
C543 C98 1.684 . S
C548 C181 1.767 . S
C564 C277 1.053 . S
C559 C49 1.060 . S
C580 C309 1.299 . S
C575 C89 1.346 . S
C591 C18 1.413 . S
C596 C245 1.411 . S
