# Generated by pormake.
# Topology pts, (4,4)-cn, num edge types: 1
# Building blocks:
#     Node 0, Type 0, BuildingBlock: AZAVOO_clean_linker_0, # of connection points: 4
#     Node 1, Type 0, BuildingBlock: AZAVOO_clean_linker_0, # of connection points: 4
#     Node 2, Type 1, BuildingBlock: UXUYUI_clean_sbu_0, # of connection points: 4
#     Node 3, Type 1, BuildingBlock: UXUYUI_clean_sbu_0, # of connection points: 4
#     Edge 4, Type (0, 1), BuildingBlock: XIVTED_clean_linker_0, # of connection points: 2
#     Edge 5, Type (0, 1), BuildingBlock: XIVTED_clean_linker_0, # of connection points: 2
#     Edge 6, Type (0, 1), BuildingBlock: XIVTED_clean_linker_0, # of connection points: 2
#     Edge 7, Type (0, 1), BuildingBlock: XIVTED_clean_linker_0, # of connection points: 2
#     Edge 8, Type (0, 1), BuildingBlock: XIVTED_clean_linker_0, # of connection points: 2
#     Edge 9, Type (0, 1), BuildingBlock: XIVTED_clean_linker_0, # of connection points: 2
#     Edge 10, Type (0, 1), BuildingBlock: XIVTED_clean_linker_0, # of connection points: 2
#     Edge 11, Type (0, 1), BuildingBlock: XIVTED_clean_linker_0, # of connection points: 2
# Relax obj value: 0.120
# Max RMSD: 0.231
# Mean RMSD: 0.163
data_MOF--net-pts--node1-UXUYUI_clean_sbu_0--node2-AZAVOO_clean_linker_0--edge1-XIVTED_clean_linker_0
_symmetry_space_group_name_H-M    P1
_symmetry_Int_Tables_number       1
_symmetry_cell_setting            triclinic
loop_
_symmetry_equiv_pos_as_xyz
'x, y, z'
_cell_length_a     32.457229
_cell_length_b     32.458481
_cell_length_c     56.019508
_cell_angle_alpha  91.455919
_cell_angle_beta   91.500621
_cell_angle_gamma 90.034969
loop_
_atom_site_label
_atom_site_type_symbol
_atom_site_fract_x
_atom_site_fract_y
_atom_site_fract_z
_atom_type_partial_charge
H0 H 0.47493 0.11043 0.85369 0.0
H1 H 0.81002 0.01088 0.0419 0.0
H2 H 0.46307 0.13639 0.98655 0.0
H3 H 0.39663 0.13962 0.9651 0.0
H4 H 0.3829 0.0078 0.97151 0.0
H5 H 0.44855 0.00541 0.99377 0.0
H6 H 0.5385 0.13061 0.952 0.0
H7 H 0.51559 0.13411 0.9101 0.0
H8 H 0.47751 0.00646 0.91133 0.0
H9 H 0.5009 0.00337 0.95315 0.0
H10 H 0.62659 0.12214 0.97267 0.0
H11 H 0.67612 0.11758 0.94034 0.0
H12 H 0.64331 0.98964 0.92774 0.0
H13 H 0.59402 0.99454 0.96009 0.0
H14 H 0.63716 0.12116 0.03192 0.0
H15 H 0.70976 0.11643 0.04447 0.0
H16 H 0.71205 0.98955 0.019 0.0
H17 H 0.63928 0.99457 0.00686 0.0
H18 H 0.55956 0.12595 0.06217 0.0
H19 H 0.59758 0.12883 0.10055 0.0
H20 H 0.62866 -5e-05 0.09148 0.0
H21 H 0.58982 0.99727 0.05359 0.0
H22 H 0.46808 0.12961 0.03746 0.0
H23 H 0.413 0.12868 0.0665 0.0
H24 H 0.43855 0.00021 0.07916 0.0
H25 H 0.49384 0.00173 0.05034 0.0
O26 O 0.48409 0.10829 0.87019 0.0
O27 O 0.46491 0.04265 0.87179 0.0
O28 O 0.77847 0.07891 0.04997 0.0
O29 O 0.78136 0.01367 0.037 0.0
C30 C 0.50431 0.06737 -0.00102 0.0
C31 C 0.53413 0.06519 0.98111 0.0
C32 C 0.57615 0.06168 0.98752 0.0
C33 C 0.58857 0.06076 0.01179 0.0
C34 C 0.55862 0.06238 0.0297 0.0
C35 C 0.51643 0.06559 0.02329 0.0
C36 C 0.4604 0.07069 0.99164 0.0
C37 C 0.44488 0.10854 0.98403 0.0
C38 C 0.40722 0.11017 0.97153 0.0
C39 C 0.3848 0.07384 0.96616 0.0
C40 C 0.39913 0.03642 0.97545 0.0
C41 C 0.43663 0.03492 0.98818 0.0
C42 C 0.52123 0.06679 0.95553 0.0
C43 C 0.52537 0.10343 0.94311 0.0
C44 C 0.51217 0.10534 0.91923 0.0
C45 C 0.49461 0.07059 0.90738 0.0
C46 C 0.49083 0.03381 0.91992 0.0
C47 C 0.50412 0.03194 0.94379 0.0
C48 C 0.60703 0.05863 0.96865 0.0
C49 C 0.63034 0.09317 0.96294 0.0
C50 C 0.65827 0.09057 0.94444 0.0
C51 C 0.66343 0.05327 0.93155 0.0
C52 C 0.64018 0.01864 0.93752 0.0
C53 C 0.61205 0.02138 0.95588 0.0
C54 C 0.63305 0.05823 0.01847 0.0
C55 C 0.65344 0.09241 0.02905 0.0
C56 C 0.69489 0.08961 0.03619 0.0
C57 C 0.71672 0.05258 0.03274 0.0
C58 C 0.69618 0.01851 0.02191 0.0
C59 C 0.65468 0.02132 0.01487 0.0
C60 C 0.57227 0.06148 0.05511 0.0
C61 C 0.57337 0.09806 0.06895 0.0
C62 C 0.59543 0.09972 0.09071 0.0
C63 C 0.61664 0.06478 0.09889 0.0
C64 C 0.61245 0.02733 0.08584 0.0
C65 C 0.59038 0.02572 0.06414 0.0
C66 C 0.4848 0.06573 0.04184 0.0
C67 C 0.46182 0.10139 0.04663 0.0
C68 C 0.43029 0.10071 0.06311 0.0
C69 C 0.42129 0.06431 0.07507 0.0
C70 C 0.44501 0.02886 0.07049 0.0
C71 C 0.47649 0.02959 0.05399 0.0
C72 C 0.48028 0.07283 0.88206 0.0
C73 C 0.76068 0.04935 0.04044 0.0
H74 H 0.05701 0.46695 0.35321 0.0
H75 H 0.08945 0.80822 0.55788 0.0
H76 H 0.00883 0.45499 0.48705 0.0
H77 H 0.01093 0.38886 0.46538 0.0
H78 H 0.14403 0.38988 0.47138 0.0
H79 H 0.14144 0.4566 0.49281 0.0
H80 H 0.01391 0.50979 0.45148 0.0
H81 H 0.01968 0.48941 0.40934 0.0
H82 H 0.1506 0.51441 0.41397 0.0
H83 H 0.14434 0.53446 0.45617 0.0
H84 H 0.01119 0.59576 0.45941 0.0
H85 H 0.01046 0.6474 0.42822 0.0
H86 H 0.13548 0.68164 0.4483 0.0
H87 H 0.13639 0.62904 0.47902 0.0
H88 H 0.002 0.63081 0.52084 0.0
H89 H 0.99513 0.70242 0.53502 0.0
H90 H 0.12793 0.71388 0.53892 0.0
H91 H 0.13426 0.64219 0.52486 0.0
H92 H 0.00281 0.55565 0.558 0.0
H93 H 0.99319 0.59184 0.59633 0.0
H94 H 0.12254 0.62436 0.59896 0.0
H95 H 0.1319 0.58678 0.56125 0.0
H96 H 0.00803 0.46327 0.53253 0.0
H97 H 0.00708 0.40614 0.56023 0.0
H98 H 0.13109 0.43693 0.58435 0.0
H99 H 0.13207 0.49361 0.55618 0.0
O100 O 0.05541 0.47524 0.36988 0.0
O101 O 0.12256 0.48862 0.37318 0.0
O102 O 0.02314 0.77243 0.54982 0.0
O103 O 0.09125 0.77997 0.55205 0.0
C104 C 0.07375 0.50392 0.49968 0.0
C105 C 0.07534 0.53487 0.48249 0.0
C106 C 0.07439 0.57672 0.48972 0.0
C107 C 0.07241 0.58765 0.51416 0.0
C108 C 0.07146 0.55664 0.53141 0.0
C109 C 0.07177 0.51472 0.52419 0.0
C110 C 0.07496 0.46027 0.49156 0.0
C111 C 0.03833 0.44022 0.48436 0.0
C112 C 0.03964 0.40245 0.47198 0.0
C113 C 0.0777 0.38428 0.46653 0.0
C114 C 0.1143 0.40339 0.47508 0.0
C115 C 0.11291 0.44119 0.4875 0.0
C116 C 0.07875 0.52336 0.45681 0.0
C117 C 0.04379 0.51073 0.44334 0.0
C118 C 0.04719 0.49917 0.41928 0.0
C119 C 0.08563 0.5002 0.40828 0.0
C120 C 0.12055 0.51321 0.42188 0.0
C121 C 0.11709 0.52472 0.44596 0.0
C122 C 0.07375 0.60895 0.4715 0.0
C123 C 0.03842 0.61435 0.45699 0.0
C124 C 0.03811 0.64363 0.4392 0.0
C125 C 0.07294 0.66834 0.43591 0.0
C126 C 0.10817 0.66312 0.45063 0.0
C127 C 0.10869 0.63332 0.46818 0.0
C128 C 0.06859 0.63158 0.52169 0.0
C129 C 0.02952 0.64899 0.52463 0.0
C130 C 0.02571 0.68982 0.53278 0.0
C131 C 0.06101 0.7139 0.5381 0.0
C132 C 0.10014 0.69626 0.53497 0.0
C133 C 0.10387 0.6554 0.52685 0.0
C134 C 0.06796 0.56894 0.55689 0.0
C135 C 0.02926 0.56933 0.56737 0.0
C136 C 0.02379 0.59041 0.5891 0.0
C137 C 0.05693 0.61165 0.60052 0.0
C138 C 0.09638 0.60814 0.59083 0.0
C139 C 0.10184 0.58681 0.56921 0.0
C140 C 0.07031 0.48212 0.54215 0.0
C141 C 0.03503 0.45753 0.54372 0.0
C142 C 0.03454 0.425 0.55952 0.0
C143 C 0.06914 0.41698 0.57427 0.0
C144 C 0.10396 0.44258 0.57324 0.0
C145 C 0.1046 0.47482 0.55719 0.0
C146 C 0.08915 0.48772 0.38274 0.0
C147 C 0.05715 0.75716 0.54699 0.0
Li148 Li 0.0433 0.07494 0.272 0.0
Li149 Li 0.03799 0.00051 0.26565 0.0
Li150 Li 0.07274 0.04374 0.23729 0.0
Li151 Li -0.00186 0.04521 0.24066 0.0
C152 C 0.11183 0.04573 0.2903 0.0
N153 N 0.15586 0.07208 0.33075 0.0
C154 C 0.10992 0.0236 0.31133 0.0
C155 C 0.13637 0.08112 0.28981 0.0
C156 C 0.1324 0.03744 0.33159 0.0
C157 C 0.15829 0.094 0.31047 0.0
C158 C 0.95427 0.04538 0.27919 0.0
C159 C 0.88393 0.02127 0.27733 0.0
N160 N 0.87099 0.05949 0.28424 0.0
C161 C 0.94031 0.08438 0.28635 0.0
C162 C 0.92592 0.01348 0.27474 0.0
C163 C 0.89807 0.0909 0.2888 0.0
C164 C 0.05982 0.15484 0.2925 0.0
N165 N 0.04827 0.11552 0.29671 0.0
C166 C 0.04579 0.13002 0.33861 0.0
C167 C 0.04084 0.10283 0.31911 0.0
C168 C 0.05826 0.17076 0.33496 0.0
C169 C 0.06511 0.18316 0.31152 0.0
H170 H 0.06519 0.16409 0.27446 0.0
H171 H 0.03167 0.07128 0.32181 0.0
C172 C 0.07004 0.92266 0.27899 0.0
N173 N 0.03962 0.95077 0.28257 0.0
C174 C 0.07375 0.88869 0.29369 0.0
C175 C 0.01523 0.91376 0.31563 0.0
C176 C 0.01225 0.94679 0.3003 0.0
C177 C 0.0466 0.88457 0.31257 0.0
H178 H 0.09226 0.92739 0.26528 0.0
H179 H 0.98911 0.97017 0.30317 0.0
C180 C 0.0503 0.11523 0.22065 0.0
N181 N 0.08116 0.15741 0.18278 0.0
C182 C 0.02922 0.11442 0.19856 0.0
C183 C 0.08696 0.13766 0.22352 0.0
C184 C 0.04533 0.13596 0.17964 0.0
C185 C 0.10211 0.15869 0.20414 0.0
C186 C 0.03636 0.95741 0.22531 0.0
C187 C 0.07259 0.94173 0.21566 0.0
C188 C 0.00439 0.9305 0.23058 0.0
C189 C 0.07629 0.89927 0.21154 0.0
C190 C 0.00933 0.88824 0.22624 0.0
N191 N 0.04487 0.87364 0.21689 0.0
C192 C 0.15614 0.04917 0.22494 0.0
C193 C 0.10911 0.04425 0.1919 0.0
C194 C 0.1893 0.05155 0.20971 0.0
N195 N 0.11703 0.04598 0.21585 0.0
C196 C 0.14137 0.04657 0.17598 0.0
C197 C 0.18214 0.05034 0.18487 0.0
H198 H 0.16163 0.04984 0.24403 0.0
H199 H 0.07769 0.04101 0.18519 0.0
C200 C 0.92718 0.0887 0.22609 0.0
N201 N 0.94663 0.05171 0.22442 0.0
C202 C 0.88818 0.0938 0.2155 0.0
C203 C 0.89038 0.02283 0.20137 0.0
C204 C 0.92932 0.01913 0.21222 0.0
C205 C 0.86919 0.0605 0.20303 0.0
H206 H 0.94181 0.11406 0.23593 0.0
H207 H 0.94565 0.99023 0.211 0.0
O208 O 0.08926 0.03327 0.27042 0.0
O209 O 0.9954 0.03863 0.27611 0.0
O210 O 0.03542 0.09376 0.23927 0.0
O211 O 0.0322 -0.00113 0.22957 0.0
H212 H 0.09105 0.99627 0.31212 0.0
H213 H 0.13783 0.09894 0.2738 0.0
H214 H 0.13105 0.02071 0.34801 0.0
H215 H 0.17707 0.12154 0.3104 0.0
H216 H 0.86163 0.99697 0.27377 0.0
H217 H 0.96178 0.1095 0.28969 0.0
H218 H 0.93622 0.98318 0.26904 0.0
H219 H 0.88679 0.12097 0.29421 0.0
H220 H 0.04064 0.11902 0.35637 0.0
H221 H 0.07413 0.21446 0.30789 0.0
H222 H 0.09867 0.867 0.29107 0.0
H223 H 0.99378 0.91149 0.33003 0.0
H224 H 0.00095 0.09702 0.19597 0.0
H225 H 0.10388 0.13828 0.24041 0.0
H226 H 0.02944 0.13546 0.16242 0.0
H227 H 0.13061 0.1759 0.20605 0.0
H228 H 0.09771 0.96202 0.21154 0.0
H229 H 0.97632 0.94204 0.2383 0.0
H230 H 0.1042 0.8867 0.20414 0.0
H231 H 0.98496 0.86704 0.23039 0.0
H232 H 0.22016 0.0548 0.21735 0.0
H233 H 0.13451 0.04486 0.15696 0.0
H234 H 0.87284 0.12328 0.21735 0.0
H235 H 0.87725 0.99661 0.19153 0.0
Li236 Li -0.00014 0.03803 0.764 0.0
Li237 Li 0.07186 0.03735 0.77279 0.0
Li238 Li 0.04367 0.06881 0.73566 0.0
Li239 Li 0.04198 0.99357 0.7413 0.0
C240 C 0.02194 0.11468 0.78475 0.0
N241 N 0.99109 0.17246 0.81659 0.0
C242 C 0.01676 0.10468 0.8086 0.0
C243 C 0.01154 0.15406 0.77708 0.0
C244 C 0.00106 0.13431 0.82442 0.0
C245 C 0.99598 0.18285 0.79346 0.0
C246 C 0.05347 0.95829 0.78487 0.0
C247 C 0.11446 0.91597 0.78741 0.0
N248 N 0.09541 0.89146 0.80308 0.0
C249 C 0.03456 0.93271 0.80104 0.0
C250 C 0.09381 0.9499 0.77802 0.0
C251 C 0.05625 0.89907 0.81003 0.0
C252 C 0.93344 0.00361 0.78609 0.0
N253 N 0.94788 0.04046 0.77897 0.0
C254 C 0.89207 0.0758 0.79739 0.0
C255 C 0.92721 0.07609 0.78358 0.0
C256 C 0.87776 0.03837 0.80619 0.0
C257 C 0.89821 0.00179 0.7997 0.0
H258 H 0.94994 0.97565 0.78164 0.0
H259 H 0.93852 0.10494 0.77716 0.0
C260 C 0.15017 0.05781 0.79303 0.0
N261 N 0.11222 0.04275 0.79758 0.0
C262 C 0.17962 0.06257 0.81153 0.0
C263 C 0.13014 0.03632 0.8389 0.0
C264 C 0.10185 0.0318 0.81989 0.0
C265 C 0.16967 0.05195 0.83489 0.0
H266 H 0.15747 0.06618 0.77506 0.0
H267 H 0.07143 0.01979 0.82295 0.0
C268 C 0.9574 0.04066 0.72442 0.0
N269 N 0.87583 0.06259 0.71725 0.0
C270 C 0.92755 0.01038 0.71944 0.0
C271 C 0.94576 0.08211 0.72569 0.0
C272 C 0.88647 0.02209 0.7159 0.0
C273 C 0.90438 0.09257 0.722 0.0
C274 C 0.11077 0.02627 0.71803 0.0
C275 C 0.08729 0.0206 0.69691 0.0
C276 C 0.15369 0.02826 0.71707 0.0
C277 C 0.10723 0.01698 0.67516 0.0
C278 C 0.17248 0.02448 0.69497 0.0
N279 N 0.14906 0.01898 0.67465 0.0
C280 C 0.07808 0.14258 0.72044 0.0
C281 C 0.02956 0.11195 0.69304 0.0
C282 C 0.08351 0.17566 0.70539 0.0
N283 N 0.05119 0.1119 0.71412 0.0
C284 C 0.03375 0.14454 0.67754 0.0
C285 C 0.06087 0.17717 0.68367 0.0
H286 H 0.09507 0.14143 0.73729 0.0
H287 H 0.00862 0.08691 0.68841 0.0
C288 C 0.00927 0.91767 0.72671 0.0
N289 N 0.04459 0.94013 0.72675 0.0
C290 C 0.00809 0.87793 0.71665 0.0
C291 C 0.08026 0.88445 0.70778 0.0
C292 C 0.08 0.9241 0.718 0.0
C293 C 0.04383 0.86098 0.7068 0.0
H294 H 0.98209 0.93058 0.73473 0.0
H295 H 0.10813 0.94189 0.71901 0.0
O296 O 0.03699 0.08616 0.76888 0.0
O297 O 0.03235 0.9913 0.77597 0.0
O298 O 0.9977 0.02987 0.72843 0.0
O299 O 0.09208 0.03027 0.73957 0.0
H300 H 0.02396 0.07416 0.8147 0.0
H301 H 0.01526 0.16221 0.75864 0.0
H302 H 0.99662 0.12693 0.8429 0.0
H303 H 0.98771 0.21343 0.78778 0.0
H304 H 0.14564 0.90913 0.78223 0.0
H305 H 0.00343 0.93881 0.80662 0.0
H306 H 0.10918 0.9693 0.76564 0.0
H307 H 0.04196 0.87903 0.82255 0.0
H308 H 0.87744 0.10481 0.80194 0.0
H309 H 0.88764 0.9721 0.80548 0.0
H310 H 0.2099 0.07413 0.80752 0.0
H311 H 0.12083 0.02829 0.85661 0.0
H312 H 0.93593 0.9782 0.71829 0.0
H313 H 0.96831 0.10592 0.72992 0.0
H314 H 0.86304 -0.00104 0.71207 0.0
H315 H 0.89493 0.1245 0.72308 0.0
H316 H 0.05407 0.0188 0.69725 0.0
H317 H 0.1723 0.03265 0.73326 0.0
H318 H 0.08945 0.01256 0.65869 0.0
H319 H 0.20569 0.02594 0.69397 0.0
H320 H 0.1053 0.19967 0.71069 0.0
H321 H 0.01522 0.14453 0.66119 0.0
H322 H 0.9796 0.86056 0.71675 0.0
H323 H 0.10849 0.87263 0.70034 0.0
H324 H 0.41888 0.02636 0.1182 0.0
H325 H 0.18605 0.09279 0.14325 0.0
H326 H 0.34469 0.09906 0.07004 0.0
H327 H 0.25792 0.01357 0.18895 0.0
H328 H 0.24422 0.09668 0.11657 0.0
H329 H 0.36073 0.02282 0.14486 0.0
C330 C 0.39032 0.04148 0.11319 0.0
C331 C 0.38667 0.063 0.09183 0.0
C332 C 0.24726 0.07844 0.13243 0.0
C333 C 0.32001 0.05936 0.12238 0.0
C334 C 0.21396 0.07601 0.1476 0.0
C335 C 0.21708 0.05282 0.16838 0.0
C336 C 0.28399 0.05754 0.13806 0.0
C337 C 0.25429 0.03227 0.17331 0.0
C338 C 0.35717 0.0396 0.12848 0.0
C339 C 0.34909 0.08257 0.08646 0.0
N340 N 0.28625 0.03511 0.15827 0.0
N341 N 0.31722 0.08022 0.10161 0.0
H342 H 0.04485 0.33813 0.5633 0.0
H343 H 0.0712 0.25901 0.69633 0.0
H344 H 0.09361 0.41483 0.6214 0.0
H345 H 0.05918 0.177 0.63458 0.0
H346 H 0.07529 0.31728 0.66978 0.0
H347 H 0.04454 0.27952 0.58987 0.0
C348 C 0.05533 0.34261 0.58171 0.0
C349 C 0.06915 0.38134 0.59024 0.0
C350 C 0.07194 0.28649 0.66208 0.0
C351 C 0.06899 0.3145 0.62068 0.0
C352 C 0.06983 0.25311 0.67722 0.0
C353 C 0.06475 0.21286 0.66774 0.0
C354 C 0.06851 0.27972 0.63727 0.0
C355 C 0.06233 0.20743 0.64277 0.0
C356 C 0.05542 0.30913 0.5968 0.0
C357 C 0.08294 0.38538 0.61413 0.0
N358 N 0.06402 0.24046 0.62843 0.0
N359 N 0.08228 0.3524 0.62859 0.0
H360 H 0.63244 0.00999 0.13465 0.0
H361 H 0.83947 0.1261 0.17802 0.0
H362 H 0.67158 0.12722 0.10838 0.0
H363 H 0.80499 0.00543 0.20136 0.0
H364 H 0.77322 0.13117 0.15667 0.0
H365 H 0.69054 0.01189 0.16337 0.0
C366 C 0.65294 0.03635 0.13512 0.0
C367 C 0.64723 0.06837 0.11899 0.0
C368 C 0.78 0.10368 0.1666 0.0
C369 C 0.71381 0.07071 0.15172 0.0
C370 C 0.81777 0.10086 0.1789 0.0
C371 C 0.82798 0.06511 0.19132 0.0
C372 C 0.75219 0.0705 0.16666 0.0
C373 C 0.79875 0.03321 0.19162 0.0
C374 C 0.68607 0.03745 0.15153 0.0
C375 C 0.67445 0.10203 0.12061 0.0
N376 N 0.7623 0.03655 0.17934 0.0
N377 N 0.70676 0.10211 0.13649 0.0
H378 H 0.99168 0.66411 0.60552 0.0
H379 H 0.102 0.79965 0.70912 0.0
H380 H 0.10611 0.62893 0.64039 0.0
H381 H 0.98335 0.82828 0.67713 0.0
H382 H 0.10167 0.73402 0.68667 0.0
H383 H 0.98485 0.72025 0.63467 0.0
C384 C 0.01497 0.66754 0.61963 0.0
C385 C 0.04965 0.64171 0.6204 0.0
C386 C 0.07553 0.75449 0.68475 0.0
C387 C 0.04257 0.7071 0.65353 0.0
C388 C 0.07583 0.79208 0.69743 0.0
C389 C 0.0428 0.81966 0.69485 0.0
C390 C 0.04209 0.74455 0.66924 0.0
C391 C 0.00935 0.8079 0.67981 0.0
C392 C 0.01123 0.69999 0.63617 0.0
C393 C 0.0792 0.64846 0.63887 0.0
N394 N 0.01004 0.77143 0.66743 0.0
N395 N 0.07521 0.68077 0.65455 0.0
H396 H 0.31272 0.02907 0.96676 0.0
H397 H 0.22581 0.11451 0.84267 0.0
H398 H 0.37674 0.11852 0.92555 0.0
H399 H 0.18282 0.00189 0.87316 0.0
H400 H 0.27583 0.12241 0.87577 0.0
H401 H 0.25864 0.02517 0.93551 0.0
C402 C 0.31533 0.04806 0.95125 0.0
C403 C 0.3494 0.07417 0.94883 0.0
C404 C 0.25538 0.09601 0.8752 0.0
C405 C 0.28753 0.07005 0.91315 0.0
C406 C 0.22699 0.0913 0.85622 0.0
C407 C 0.2001 0.05735 0.855 0.0
C408 C 0.25678 0.06676 0.89323 0.0
C409 C 0.2025 0.02882 0.87345 0.0
C410 C 0.28443 0.04585 0.93346 0.0
C411 C 0.35078 0.0985 0.92847 0.0
N412 N 0.23034 0.03417 0.89179 0.0
N413 N 0.32038 0.09574 0.91141 0.0
H414 H 0.02796 0.31573 0.46505 0.0
H415 H 0.11946 0.22819 0.34253 0.0
H416 H 0.12979 0.37122 0.42957 0.0
H417 H 0.01032 0.17989 0.37431 0.0
H418 H 0.12758 0.277 0.37623 0.0
H419 H 0.02543 0.26116 0.43413 0.0
C420 C 0.04999 0.31623 0.45087 0.0
C421 C 0.07904 0.34814 0.44986 0.0
C422 C 0.10193 0.25563 0.37587 0.0
C423 C 0.0763 0.28592 0.41443 0.0
C424 C 0.09711 0.22796 0.35654 0.0
C425 C 0.06402 0.20007 0.35551 0.0
C426 C 0.07343 0.25547 0.39431 0.0
C427 C 0.0365 0.20058 0.37445 0.0
C428 C 0.04857 0.28508 0.43324 0.0
C429 C 0.10719 0.34699 0.43124 0.0
N430 N 0.04174 0.22795 0.39302 0.0
N431 N 0.10492 0.31657 0.41418 0.0
H432 H 0.67439 0.10728 0.89554 0.0
H433 H 0.87047 0.98981 0.84512 0.0
H434 H 0.71986 0.9926 0.92321 0.0
H435 H 0.80755 0.08606 0.80676 0.0
H436 H 0.81654 0.99168 0.87445 0.0
H437 H 0.72464 0.10216 0.86374 0.0
C438 C 0.69505 0.08109 0.89492 0.0
C439 C 0.69313 0.05035 0.91202 0.0
C440 C 0.81435 0.0122 0.85952 0.0
C441 C 0.7504 0.04422 0.87578 0.0
C442 C 0.84502 0.01095 0.84261 0.0
C443 C 0.84361 0.03776 0.82331 0.0
C444 C 0.78215 0.04076 0.85736 0.0
C445 C 0.81029 0.06522 0.82148 0.0
C446 C 0.72346 0.07803 0.87671 0.0
C447 C 0.72015 0.01679 0.91027 0.0
N448 N 0.78098 0.06617 0.83838 0.0
N449 N 0.74785 0.01474 0.89254 0.0
H450 H 0.09512 0.74918 0.44086 0.0
H451 H 0.05548 0.80173 0.30376 0.0
H452 H 0.04903 0.65892 0.38897 0.0
H453 H 0.05162 0.89306 0.36093 0.0
H454 H 0.06447 0.7479 0.33354 0.0
H455 H 0.09113 0.8017 0.41025 0.0
C456 C 0.08448 0.74044 0.42295 0.0
C457 C 0.07221 0.69986 0.41737 0.0
C458 C 0.06163 0.77975 0.33949 0.0
C459 C 0.06766 0.75944 0.3824 0.0
C460 C 0.05667 0.81034 0.32257 0.0
C461 C 0.05249 0.85164 0.33002 0.0
C462 C 0.06317 0.79084 0.3639 0.0
C463 C 0.0542 0.86142 0.35455 0.0
C464 C 0.08198 0.77037 0.40557 0.0
C465 C 0.05836 0.69006 0.39397 0.0
N466 N 0.05957 0.83123 0.37064 0.0
N467 N 0.05654 0.71967 0.37727 0.0
loop_
_geom_bond_atom_site_label_1
_geom_bond_atom_site_label_2
_geom_bond_distance
_geom_bond_site_symmetry_2
_ccdc_geom_bond_type
H0 O26 0.856 . S
H1 O29 0.854 . S
H2 C37 0.930 . S
H3 C38 0.930 . S
H4 C40 0.930 . S
H5 C41 0.930 1_565 S
H6 C43 0.931 . S
H7 C44 0.930 . S
H8 C46 0.930 1_565 S
H9 C47 0.929 1_565 S
H10 C49 0.930 . S
H11 C50 0.931 . S
H12 C52 0.930 . S
H13 C53 0.929 . S
H14 C55 0.931 . S
H15 C56 0.930 . S
H16 C58 0.930 1_565 S
H17 C59 0.937 1_565 S
H18 C61 0.930 . S
H19 C62 0.929 . S
H20 C64 0.931 . S
H21 C65 0.930 1_565 S
H22 C67 0.929 . S
H23 C68 0.931 . S
H24 C70 0.930 1_565 S
H25 C71 0.929 1_565 S
O26 H0 0.856 . S
O26 C72 1.300 . S
O27 C72 1.209 1_565 S
O28 C73 1.199 . S
O29 H1 0.854 . S
O29 C73 1.297 . S
C30 C31 1.404 . S
C30 C35 1.397 1_556 S
C30 C36 1.492 . S
C31 C30 1.404 . S
C31 C32 1.396 . S
C31 C42 1.492 . S
C32 C31 1.396 . S
C32 C33 1.397 1_556 S
C32 C48 1.509 . S
C33 C32 1.397 1_554 S
C33 C34 1.412 . S
C33 C54 1.485 . S
C34 C33 1.412 . S
C34 C35 1.388 . S
C34 C60 1.490 . S
C35 C30 1.397 1_554 S
C35 C34 1.388 . S
C35 C66 1.519 . S
C36 C30 1.492 . S
C36 C37 1.363 . S
C36 C41 1.390 . S
C37 H2 0.930 . S
C37 C36 1.363 . S
C37 C38 1.372 . S
C38 H3 0.930 . S
C38 C37 1.372 . S
C38 C39 1.383 . S
C39 C38 1.383 . S
C39 C40 1.395 . S
C40 H4 0.930 . S
C40 C39 1.395 . S
C40 C41 1.362 . S
C41 H5 0.930 1_545 S
C41 C36 1.390 . S
C41 C40 1.362 . S
C42 C31 1.492 . S
C42 C43 1.377 . S
C42 C47 1.397 . S
C43 H6 0.931 . S
C43 C42 1.377 . S
C43 C44 1.376 . S
C44 H7 0.930 . S
C44 C43 1.376 . S
C44 C45 1.376 . S
C45 C44 1.376 . S
C45 C46 1.378 . S
C45 C72 1.486 . S
C46 H8 0.930 1_545 S
C46 C45 1.378 . S
C46 C47 1.376 . S
C47 H9 0.929 1_545 S
C47 C42 1.397 . S
C47 C46 1.376 . S
C48 C32 1.509 . S
C48 C49 1.391 . S
C48 C53 1.386 1_545 S
C49 H10 0.930 . S
C49 C48 1.391 . S
C49 C50 1.375 . S
C50 H11 0.931 . S
C50 C49 1.375 . S
C50 C51 1.375 . S
C51 C50 1.375 . S
C51 C52 1.361 1_545 S
C52 H12 0.930 . S
C52 C51 1.361 1_565 S
C52 C53 1.399 . S
C53 H13 0.929 . S
C53 C48 1.386 1_565 S
C53 C52 1.399 . S
C54 C33 1.485 . S
C54 C55 1.394 . S
C54 C59 1.360 . S
C55 H14 0.931 . S
C55 C54 1.394 . S
C55 C56 1.372 . S
C56 H15 0.930 . S
C56 C55 1.372 . S
C56 C57 1.397 . S
C57 C56 1.397 . S
C57 C58 1.390 . S
C57 C73 1.476 . S
C58 H16 0.930 1_545 S
C58 C57 1.390 . S
C58 C59 1.366 . S
C59 H17 0.937 1_545 S
C59 C54 1.360 . S
C59 C58 1.366 . S
C60 C34 1.490 . S
C60 C61 1.380 . S
C60 C65 1.386 . S
C61 H18 0.930 . S
C61 C60 1.380 . S
C61 C62 1.381 . S
C62 H19 0.929 . S
C62 C61 1.381 . S
C62 C63 1.371 . S
C63 C62 1.371 . S
C63 C64 1.380 . S
C64 H20 0.931 . S
C64 C63 1.380 . S
C64 C65 1.387 . S
C65 H21 0.930 1_545 S
C65 C60 1.386 . S
C65 C64 1.387 . S
C66 C35 1.519 . S
C66 C67 1.377 . S
C66 C71 1.361 . S
C67 H22 0.929 . S
C67 C66 1.377 . S
C67 C68 1.386 . S
C68 H23 0.931 . S
C68 C67 1.386 . S
C68 C69 1.363 . S
C69 C68 1.363 . S
C69 C70 1.385 . S
C70 H24 0.930 1_545 S
C70 C69 1.385 . S
C70 C71 1.396 . S
C71 H25 0.929 1_545 S
C71 C66 1.361 . S
C71 C70 1.396 . S
C72 O26 1.300 . S
C72 O27 1.209 1_545 S
C72 C45 1.486 . S
C73 O28 1.199 . S
C73 O29 1.297 . S
C73 C57 1.476 . S
H74 O100 0.856 . S
H75 O103 0.854 . S
H76 C111 0.930 1_655 S
H77 C112 0.930 1_655 S
H78 C114 0.930 . S
H79 C115 0.930 . S
H80 C117 0.931 . S
H81 C118 0.930 . S
H82 C120 0.930 . S
H83 C121 0.929 . S
H84 C123 0.942 . S
H85 C124 0.931 . S
H86 C126 0.930 . S
H87 C127 0.929 . S
H88 C129 0.931 . S
H89 C130 0.930 . S
H90 C132 0.930 . S
H91 C133 0.932 . S
H92 C135 0.930 1_655 S
H93 C136 0.929 1_655 S
H94 C138 0.931 . S
H95 C139 0.930 . S
H96 C141 0.929 1_655 S
H97 C142 0.931 . S
H98 C144 0.930 . S
H99 C145 0.929 . S
O100 H74 0.856 . S
O100 C146 1.300 . S
O101 C146 1.209 . S
O102 C147 1.199 . S
O103 H75 0.854 . S
O103 C147 1.297 . S
C104 C105 1.404 . S
C104 C109 1.397 . S
C104 C110 1.492 . S
C105 C104 1.404 . S
C105 C106 1.396 . S
C105 C116 1.492 . S
C106 C105 1.396 . S
C106 C107 1.397 . S
C106 C122 1.509 . S
C107 C106 1.397 . S
C107 C108 1.412 . S
C107 C128 1.485 . S
C108 C107 1.412 . S
C108 C109 1.388 . S
C108 C134 1.490 . S
C109 C104 1.397 . S
C109 C108 1.388 . S
C109 C140 1.519 . S
C110 C104 1.492 . S
C110 C111 1.363 . S
C110 C115 1.390 . S
C111 H76 0.930 1_455 S
C111 C110 1.363 . S
C111 C112 1.372 . S
C112 H77 0.930 1_455 S
C112 C111 1.372 . S
C112 C113 1.383 . S
C113 C112 1.383 . S
C113 C114 1.395 . S
C114 H78 0.930 . S
C114 C113 1.395 . S
C114 C115 1.362 . S
C115 H79 0.930 . S
C115 C110 1.390 . S
C115 C114 1.362 . S
C116 C105 1.492 . S
C116 C117 1.377 . S
C116 C121 1.397 . S
C117 H80 0.931 . S
C117 C116 1.377 . S
C117 C118 1.376 . S
C118 H81 0.930 . S
C118 C117 1.376 . S
C118 C119 1.376 . S
C119 C118 1.376 . S
C119 C120 1.378 . S
C119 C146 1.486 . S
C120 H82 0.930 . S
C120 C119 1.378 . S
C120 C121 1.376 . S
C121 H83 0.929 . S
C121 C116 1.397 . S
C121 C120 1.376 . S
C122 C106 1.509 . S
C122 C123 1.391 . S
C122 C127 1.386 . S
C123 H84 0.942 . S
C123 C122 1.391 . S
C123 C124 1.375 . S
C124 H85 0.931 . S
C124 C123 1.375 . S
C124 C125 1.375 . S
C125 C124 1.375 . S
C125 C126 1.361 . S
C126 H86 0.930 . S
C126 C125 1.361 . S
C126 C127 1.399 . S
C127 H87 0.929 . S
C127 C122 1.386 . S
C127 C126 1.399 . S
C128 C107 1.485 . S
C128 C129 1.394 . S
C128 C133 1.360 . S
C129 H88 0.931 . S
C129 C128 1.394 . S
C129 C130 1.372 . S
C130 H89 0.930 . S
C130 C129 1.372 . S
C130 C131 1.397 . S
C131 C130 1.397 . S
C131 C132 1.390 . S
C131 C147 1.476 . S
C132 H90 0.930 . S
C132 C131 1.390 . S
C132 C133 1.366 . S
C133 H91 0.932 . S
C133 C128 1.360 . S
C133 C132 1.366 . S
C134 C108 1.490 . S
C134 C135 1.380 . S
C134 C139 1.386 . S
C135 H92 0.930 1_455 S
C135 C134 1.380 . S
C135 C136 1.381 . S
C136 H93 0.929 1_455 S
C136 C135 1.381 . S
C136 C137 1.371 . S
C137 C136 1.371 . S
C137 C138 1.380 . S
C138 H94 0.931 . S
C138 C137 1.380 . S
C138 C139 1.387 . S
C139 H95 0.930 . S
C139 C134 1.386 . S
C139 C138 1.387 . S
C140 C109 1.519 . S
C140 C141 1.377 . S
C140 C145 1.361 . S
C141 H96 0.929 1_455 S
C141 C140 1.377 . S
C141 C142 1.386 . S
C142 H97 0.931 . S
C142 C141 1.386 . S
C142 C143 1.363 . S
C143 C142 1.363 . S
C143 C144 1.385 . S
C144 H98 0.930 . S
C144 C143 1.385 . S
C144 C145 1.396 . S
C145 H99 0.929 . S
C145 C140 1.361 . S
C145 C144 1.396 . S
C146 O100 1.300 . S
C146 O101 1.209 . S
C146 C119 1.486 . S
C147 O102 1.199 . S
C147 O103 1.297 . S
C147 C131 1.476 . S
Li148 N165 1.990 . S
Li148 O208 1.956 . S
Li148 O209 1.970 1_455 S
Li148 O210 1.961 . S
Li149 N173 1.990 1_545 S
Li149 O208 1.970 . S
Li149 O209 1.956 1_455 S
Li149 O211 1.961 . S
Li150 N195 1.990 . S
Li150 O208 1.961 . S
Li150 O210 1.956 . S
Li150 O211 1.970 . S
Li151 N201 1.990 . S
Li151 O209 1.961 . S
Li151 O210 1.970 1_655 S
Li151 O211 1.956 1_655 S
C152 C154 1.348 . S
C152 C155 1.356 . S
C152 O208 1.325 . S
N153 C156 1.314 . S
N153 C157 1.279 . S
C154 C152 1.348 . S
C154 C156 1.353 . S
C154 H212 0.929 . S
C155 C152 1.356 . S
C155 C157 1.358 . S
C155 H213 0.930 . S
C156 N153 1.314 . S
C156 C154 1.353 . S
C156 H214 0.930 . S
C157 N153 1.279 . S
C157 C155 1.358 . S
C157 H215 0.930 . S
C158 C161 1.348 . S
C158 C162 1.356 . S
C158 O209 1.325 . S
C159 N160 1.279 . S
C159 C162 1.358 . S
C159 H216 0.930 . S
N160 C159 1.279 . S
N160 C163 1.314 . S
C161 C158 1.348 . S
C161 C163 1.353 . S
C161 H217 0.929 . S
C162 C158 1.356 . S
C162 C159 1.358 . S
C162 H218 0.930 . S
C163 N160 1.314 . S
C163 C161 1.353 . S
C163 H219 0.930 . S
C164 N165 1.314 . S
C164 C169 1.353 . S
C164 H170 0.930 1_455 S
N165 Li148 1.990 . S
N165 C164 1.314 . S
N165 C167 1.279 . S
C166 C167 1.358 . S
C166 C168 1.356 . S
C166 H220 0.930 . S
C167 N165 1.279 . S
C167 C166 1.358 . S
C167 H171 0.930 . S
C168 C166 1.356 . S
C168 C169 1.348 . S
C169 C164 1.353 . S
C169 C168 1.348 . S
C169 H221 0.929 1_455 S
H170 C164 0.930 1_655 S
H171 C167 0.930 . S
C172 N173 1.314 . S
C172 C174 1.353 . S
C172 H178 0.930 . S
N173 Li149 1.990 1_565 S
N173 C172 1.314 . S
N173 C176 1.279 . S
C174 C172 1.353 . S
C174 C177 1.348 . S
C174 H222 0.929 . S
C175 C176 1.358 . S
C175 C177 1.356 . S
C175 H223 0.930 1_455 S
C176 N173 1.279 . S
C176 C175 1.358 . S
C176 H179 0.930 1_455 S
C177 C174 1.348 . S
C177 C175 1.356 . S
H178 C172 0.930 . S
H179 C176 0.930 1_655 S
C180 C182 1.348 . S
C180 C183 1.356 . S
C180 O210 1.325 . S
N181 C184 1.314 . S
N181 C185 1.279 . S
C182 C180 1.348 . S
C182 C184 1.353 . S
C182 H224 0.929 1_455 S
C183 C180 1.356 . S
C183 C185 1.358 . S
C183 H225 0.930 . S
C184 N181 1.314 . S
C184 C182 1.353 . S
C184 H226 0.930 1_455 S
C185 N181 1.279 . S
C185 C183 1.358 . S
C185 H227 0.930 . S
C186 C187 1.348 . S
C186 C188 1.356 . S
C186 O211 1.325 1_565 S
C187 C186 1.348 . S
C187 C189 1.353 . S
C187 H228 0.929 . S
C188 C186 1.356 . S
C188 C190 1.359 . S
C188 H229 0.930 1_455 S
C189 C187 1.353 . S
C189 N191 1.314 . S
C189 H230 0.930 . S
C190 C188 1.359 . S
C190 N191 1.285 . S
C190 H231 0.924 1_455 S
N191 C189 1.314 . S
N191 C190 1.285 . S
C192 C194 1.353 . S
C192 N195 1.314 . S
C192 H198 0.930 . S
C193 N195 1.279 . S
C193 C196 1.358 . S
C193 H199 0.930 . S
C194 C192 1.353 . S
C194 C197 1.348 . S
C194 H232 0.929 . S
N195 Li150 1.990 . S
N195 C192 1.314 . S
N195 C193 1.279 . S
C196 C193 1.358 . S
C196 C197 1.356 . S
C196 H233 0.930 . S
C197 C194 1.348 . S
C197 C196 1.356 . S
H198 C192 0.930 . S
H199 C193 0.930 . S
C200 N201 1.314 . S
C200 C202 1.353 . S
C200 H206 0.930 . S
N201 Li151 1.990 . S
N201 C200 1.314 . S
N201 C204 1.279 . S
C202 C200 1.353 . S
C202 C205 1.348 . S
C202 H234 0.929 . S
C203 C204 1.358 . S
C203 C205 1.356 . S
C203 H235 0.930 . S
C204 N201 1.279 . S
C204 C203 1.358 . S
C204 H207 0.930 . S
C205 C202 1.348 . S
C205 C203 1.356 . S
H206 C200 0.930 . S
H207 C204 0.930 . S
O208 Li148 1.956 . S
O208 Li149 1.970 . S
O208 Li150 1.961 . S
O208 C152 1.325 . S
O209 Li148 1.970 1_655 S
O209 Li149 1.956 1_655 S
O209 Li151 1.961 . S
O209 C158 1.325 . S
O210 Li148 1.961 . S
O210 Li150 1.956 . S
O210 Li151 1.970 1_455 S
O210 C180 1.325 . S
O211 Li149 1.961 . S
O211 Li150 1.970 . S
O211 Li151 1.956 1_455 S
O211 C186 1.325 1_545 S
H212 C154 0.929 . S
H213 C155 0.930 . S
H214 C156 0.930 . S
H215 C157 0.930 . S
H216 C159 0.930 . S
H217 C161 0.929 . S
H218 C162 0.930 . S
H219 C163 0.930 . S
H220 C166 0.930 . S
H221 C169 0.929 1_655 S
H222 C174 0.929 . S
H223 C175 0.930 1_655 S
H224 C182 0.929 1_655 S
H225 C183 0.930 . S
H226 C184 0.930 1_655 S
H227 C185 0.930 . S
H228 C187 0.929 . S
H229 C188 0.930 1_655 S
H230 C189 0.930 . S
H231 C190 0.924 1_655 S
H232 C194 0.929 . S
H233 C196 0.930 . S
H234 C202 0.929 . S
H235 C203 0.930 . S
Li236 N253 1.990 1_455 S
Li236 O296 1.956 . S
Li236 O297 1.970 1_545 S
Li236 O298 1.961 . S
Li237 N261 1.990 . S
Li237 O296 1.970 . S
Li237 O297 1.956 1_545 S
Li237 O299 1.961 . S
Li238 N283 1.990 . S
Li238 O296 1.961 . S
Li238 O298 1.956 . S
Li238 O299 1.970 . S
Li239 N289 1.990 . S
Li239 O297 1.961 . S
Li239 O298 1.970 1_565 S
Li239 O299 1.956 1_565 S
C240 C242 1.348 . S
C240 C243 1.356 . S
C240 O296 1.325 . S
N241 C244 1.314 . S
N241 C245 1.279 . S
C242 C240 1.348 . S
C242 C244 1.353 . S
C242 H300 0.929 . S
C243 C240 1.356 . S
C243 C245 1.358 . S
C243 H301 0.930 . S
C244 N241 1.314 . S
C244 C242 1.353 . S
C244 H302 0.930 . S
C245 N241 1.279 . S
C245 C243 1.358 . S
C245 H303 0.930 . S
C246 C249 1.348 . S
C246 C250 1.356 . S
C246 O297 1.325 . S
C247 N248 1.279 . S
C247 C250 1.358 . S
C247 H304 0.930 . S
N248 C247 1.279 . S
N248 C251 1.314 . S
C249 C246 1.348 . S
C249 C251 1.353 . S
C249 H305 0.929 . S
C250 C246 1.356 . S
C250 C247 1.358 . S
C250 H306 0.930 . S
C251 N248 1.314 . S
C251 C249 1.353 . S
C251 H307 0.930 . S
C252 N253 1.314 . S
C252 C257 1.353 . S
C252 H258 0.930 1_545 S
N253 Li236 1.990 1_655 S
N253 C252 1.314 . S
N253 C255 1.279 . S
C254 C255 1.358 . S
C254 C256 1.356 . S
C254 H308 0.930 . S
C255 N253 1.279 . S
C255 C254 1.358 . S
C255 H259 0.930 . S
C256 C254 1.356 . S
C256 C257 1.348 . S
C257 C252 1.353 . S
C257 C256 1.348 . S
C257 H309 0.929 1_545 S
H258 C252 0.930 1_565 S
H259 C255 0.930 . S
C260 N261 1.314 . S
C260 C262 1.353 . S
C260 H266 0.930 . S
N261 Li237 1.990 . S
N261 C260 1.314 . S
N261 C264 1.279 . S
C262 C260 1.353 . S
C262 C265 1.348 . S
C262 H310 0.929 . S
C263 C264 1.358 . S
C263 C265 1.356 . S
C263 H311 0.930 1_545 S
C264 N261 1.279 . S
C264 C263 1.358 . S
C264 H267 0.930 1_545 S
C265 C262 1.348 . S
C265 C263 1.356 . S
H266 C260 0.930 . S
H267 C264 0.930 1_565 S
C268 C270 1.348 . S
C268 C271 1.356 . S
C268 O298 1.325 1_655 S
N269 C272 1.314 . S
N269 C273 1.279 . S
C270 C268 1.348 . S
C270 C272 1.353 . S
C270 H312 0.929 1_545 S
C271 C268 1.356 . S
C271 C273 1.358 . S
C271 H313 0.930 . S
C272 N269 1.314 . S
C272 C270 1.353 . S
C272 H314 0.930 1_545 S
C273 N269 1.279 . S
C273 C271 1.358 . S
C273 H315 0.930 . S
C274 C275 1.348 . S
C274 C276 1.356 . S
C274 O299 1.325 . S
C275 C274 1.348 . S
C275 C277 1.353 . S
C275 H316 0.929 . S
C276 C274 1.356 . S
C276 C278 1.359 . S
C276 H317 0.930 1_545 S
C277 C275 1.353 . S
C277 N279 1.314 . S
C277 H318 0.930 . S
C278 C276 1.359 . S
C278 N279 1.292 . S
C278 H319 0.917 1_545 S
N279 C277 1.314 . S
N279 C278 1.292 . S
C280 C282 1.353 . S
C280 N283 1.314 . S
C280 H286 0.930 . S
C281 N283 1.279 . S
C281 C284 1.358 . S
C281 H287 0.930 . S
C282 C280 1.353 . S
C282 C285 1.348 . S
C282 H320 0.929 . S
N283 Li238 1.990 . S
N283 C280 1.314 . S
N283 C281 1.279 . S
C284 C281 1.358 . S
C284 C285 1.356 . S
C284 H321 0.930 . S
C285 C282 1.348 . S
C285 C284 1.356 . S
H286 C280 0.930 . S
H287 C281 0.930 . S
C288 N289 1.314 . S
C288 C290 1.353 . S
C288 H294 0.930 . S
N289 Li239 1.990 . S
N289 C288 1.314 . S
N289 C292 1.279 . S
C290 C288 1.353 . S
C290 C293 1.348 . S
C290 H322 0.929 . S
C291 C292 1.358 . S
C291 C293 1.356 . S
C291 H323 0.930 . S
C292 N289 1.279 . S
C292 C291 1.358 . S
C292 H295 0.930 . S
C293 C290 1.348 . S
C293 C291 1.356 . S
H294 C288 0.930 . S
H295 C292 0.930 . S
O296 Li236 1.956 . S
O296 Li237 1.970 . S
O296 Li238 1.961 . S
O296 C240 1.325 . S
O297 Li236 1.970 1_565 S
O297 Li237 1.956 1_565 S
O297 Li239 1.961 . S
O297 C246 1.325 . S
O298 Li236 1.961 . S
O298 Li238 1.956 . S
O298 Li239 1.970 1_545 S
O298 C268 1.325 1_455 S
O299 Li237 1.961 . S
O299 Li238 1.970 . S
O299 Li239 1.956 1_545 S
O299 C274 1.325 . S
H300 C242 0.929 . S
H301 C243 0.930 . S
H302 C244 0.930 . S
H303 C245 0.930 . S
H304 C247 0.930 . S
H305 C249 0.929 . S
H306 C250 0.930 . S
H307 C251 0.930 . S
H308 C254 0.930 . S
H309 C257 0.929 1_565 S
H310 C262 0.929 . S
H311 C263 0.930 1_565 S
H312 C270 0.929 1_565 S
H313 C271 0.930 . S
H314 C272 0.930 1_565 S
H315 C273 0.930 . S
H316 C275 0.929 . S
H317 C276 0.930 1_565 S
H318 C277 0.930 . S
H319 C278 0.917 1_565 S
H320 C282 0.929 . S
H321 C284 0.930 . S
H322 C290 0.929 . S
H323 C291 0.930 . S
H324 C330 0.930 1_565 S
H325 C334 0.930 . S
H326 C339 0.929 . S
H327 C337 0.929 . S
H328 C332 0.929 . S
H329 C338 0.929 1_565 S
C330 H324 0.930 1_545 S
C330 C331 1.367 . S
C330 C338 1.378 . S
C331 C330 1.367 . S
C331 C339 1.433 . S
C332 H328 0.929 . S
C332 C334 1.378 . S
C332 C336 1.350 . S
C333 C336 1.463 . S
C333 C338 1.350 . S
C333 N341 1.427 . S
C334 H325 0.930 . S
C334 C332 1.378 . S
C334 C335 1.367 . S
C335 C334 1.367 . S
C335 C337 1.433 . S
C336 C332 1.350 . S
C336 C333 1.463 . S
C336 N340 1.427 . S
C337 H327 0.929 . S
C337 C335 1.433 . S
C337 N340 1.384 . S
C338 H329 0.929 1_545 S
C338 C330 1.378 . S
C338 C333 1.350 . S
C339 H326 0.929 . S
C339 C331 1.433 . S
C339 N341 1.384 . S
N340 C336 1.427 . S
N340 C337 1.384 . S
N341 C333 1.427 . S
N341 C339 1.384 . S
H342 C348 0.930 . S
H343 C352 0.930 . S
H344 C357 0.929 . S
H345 C355 0.929 . S
H346 C350 0.929 . S
H347 C356 0.929 . S
C348 H342 0.930 . S
C348 C349 1.367 . S
C348 C356 1.378 . S
C349 C348 1.367 . S
C349 C357 1.433 . S
C350 H346 0.929 . S
C350 C352 1.378 . S
C350 C354 1.350 . S
C351 C354 1.463 . S
C351 C356 1.350 . S
C351 N359 1.427 . S
C352 H343 0.930 . S
C352 C350 1.378 . S
C352 C353 1.367 . S
C353 C352 1.367 . S
C353 C355 1.433 . S
C354 C350 1.350 . S
C354 C351 1.463 . S
C354 N358 1.427 . S
C355 H345 0.929 . S
C355 C353 1.433 . S
C355 N358 1.384 . S
C356 H347 0.929 . S
C356 C348 1.378 . S
C356 C351 1.350 . S
C357 H344 0.929 . S
C357 C349 1.433 . S
C357 N359 1.384 . S
N358 C354 1.427 . S
N358 C355 1.384 . S
N359 C351 1.427 . S
N359 C357 1.384 . S
H360 C366 0.930 . S
H361 C370 0.930 . S
H362 C375 0.929 . S
H363 C373 0.929 1_565 S
H364 C368 0.929 . S
H365 C374 0.929 . S
C366 H360 0.930 . S
C366 C367 1.367 . S
C366 C374 1.378 . S
C367 C366 1.367 . S
C367 C375 1.433 . S
C368 H364 0.929 . S
C368 C370 1.378 . S
C368 C372 1.350 . S
C369 C372 1.463 . S
C369 C374 1.350 . S
C369 N377 1.427 . S
C370 H361 0.930 . S
C370 C368 1.378 . S
C370 C371 1.367 . S
C371 C370 1.367 . S
C371 C373 1.433 . S
C372 C368 1.350 . S
C372 C369 1.463 . S
C372 N376 1.427 . S
C373 H363 0.929 1_545 S
C373 C371 1.433 . S
C373 N376 1.384 . S
C374 H365 0.929 . S
C374 C366 1.378 . S
C374 C369 1.350 . S
C375 H362 0.929 . S
C375 C367 1.433 . S
C375 N377 1.384 . S
N376 C372 1.427 . S
N376 C373 1.384 . S
N377 C369 1.427 . S
N377 C375 1.384 . S
H378 C384 0.930 1_655 S
H379 C388 0.930 . S
H380 C393 0.929 . S
H381 C391 0.943 . S
H382 C386 0.929 . S
H383 C392 0.929 1_655 S
C384 H378 0.930 1_455 S
C384 C385 1.367 . S
C384 C392 1.378 . S
C385 C384 1.367 . S
C385 C393 1.433 . S
C386 H382 0.929 . S
C386 C388 1.378 . S
C386 C390 1.350 . S
C387 C390 1.463 . S
C387 C392 1.350 . S
C387 N395 1.427 . S
C388 H379 0.930 . S
C388 C386 1.378 . S
C388 C389 1.367 . S
C389 C388 1.367 . S
C389 C391 1.433 . S
C390 C386 1.350 . S
C390 C387 1.463 . S
C390 N394 1.427 . S
C391 H381 0.943 . S
C391 C389 1.433 . S
C391 N394 1.384 . S
C392 H383 0.929 1_455 S
C392 C384 1.378 . S
C392 C387 1.350 . S
C393 H380 0.929 . S
C393 C385 1.433 . S
C393 N395 1.384 . S
N394 C390 1.427 . S
N394 C391 1.384 . S
N395 C387 1.427 . S
N395 C393 1.384 . S
H396 C402 0.930 . S
H397 C406 0.930 . S
H398 C411 0.929 . S
H399 C409 0.929 1_565 S
H400 C404 0.929 . S
H401 C410 0.929 . S
C402 H396 0.930 . S
C402 C403 1.367 . S
C402 C410 1.378 . S
C403 C402 1.367 . S
C403 C411 1.433 . S
C404 H400 0.929 . S
C404 C406 1.378 . S
C404 C408 1.350 . S
C405 C408 1.463 . S
C405 C410 1.350 . S
C405 N413 1.427 . S
C406 H397 0.930 . S
C406 C404 1.378 . S
C406 C407 1.367 . S
C407 C406 1.367 . S
C407 C409 1.433 . S
C408 C404 1.350 . S
C408 C405 1.463 . S
C408 N412 1.427 . S
C409 H399 0.929 1_545 S
C409 C407 1.433 . S
C409 N412 1.384 . S
C410 H401 0.929 . S
C410 C402 1.378 . S
C410 C405 1.350 . S
C411 H398 0.929 . S
C411 C403 1.433 . S
C411 N413 1.384 . S
N412 C408 1.427 . S
N412 C409 1.384 . S
N413 C405 1.427 . S
N413 C411 1.384 . S
H414 C420 0.930 . S
H415 C424 0.930 . S
H416 C429 0.929 . S
H417 C427 0.929 . S
H418 C422 0.929 . S
H419 C428 0.929 . S
C420 H414 0.930 . S
C420 C421 1.367 . S
C420 C428 1.378 . S
C421 C420 1.367 . S
C421 C429 1.433 . S
C422 H418 0.929 . S
C422 C424 1.378 . S
C422 C426 1.350 . S
C423 C426 1.463 . S
C423 C428 1.350 . S
C423 N431 1.427 . S
C424 H415 0.930 . S
C424 C422 1.378 . S
C424 C425 1.367 . S
C425 C424 1.367 . S
C425 C427 1.433 . S
C426 C422 1.350 . S
C426 C423 1.463 . S
C426 N430 1.427 . S
C427 H417 0.929 . S
C427 C425 1.433 . S
C427 N430 1.384 . S
C428 H419 0.929 . S
C428 C420 1.378 . S
C428 C423 1.350 . S
C429 H416 0.929 . S
C429 C421 1.433 . S
C429 N431 1.384 . S
N430 C426 1.427 . S
N430 C427 1.384 . S
N431 C423 1.427 . S
N431 C429 1.384 . S
H432 C438 0.930 . S
H433 C442 0.930 . S
H434 C447 0.929 . S
H435 C445 0.929 . S
H436 C440 0.929 . S
H437 C446 0.929 . S
C438 H432 0.930 . S
C438 C439 1.367 . S
C438 C446 1.378 . S
C439 C438 1.367 . S
C439 C447 1.433 1_545 S
C440 H436 0.929 . S
C440 C442 1.378 . S
C440 C444 1.350 1_565 S
C441 C444 1.463 . S
C441 C446 1.350 . S
C441 N449 1.427 1_545 S
C442 H433 0.930 . S
C442 C440 1.378 . S
C442 C443 1.367 1_565 S
C443 C442 1.367 1_545 S
C443 C445 1.433 . S
C444 C440 1.350 1_545 S
C444 C441 1.463 . S
C444 N448 1.427 . S
C445 H435 0.929 . S
C445 C443 1.433 . S
C445 N448 1.384 . S
C446 H437 0.929 . S
C446 C438 1.378 . S
C446 C441 1.350 . S
C447 H434 0.929 . S
C447 C439 1.433 1_565 S
C447 N449 1.384 . S
N448 C444 1.427 . S
N448 C445 1.384 . S
N449 C441 1.427 1_565 S
N449 C447 1.384 . S
H450 C456 0.930 . S
H451 C460 0.930 1_655 S
H452 C465 0.929 . S
H453 C463 0.929 . S
H454 C458 0.929 . S
H455 C464 0.929 . S
C456 H450 0.930 . S
C456 C457 1.367 . S
C456 C464 1.378 . S
C457 C456 1.367 . S
C457 C465 1.433 . S
C458 H454 0.929 . S
C458 C460 1.378 . S
C458 C462 1.350 . S
C459 C462 1.463 . S
C459 C464 1.350 . S
C459 N467 1.427 . S
C460 H451 0.930 1_455 S
C460 C458 1.378 . S
C460 C461 1.367 . S
C461 C460 1.367 . S
C461 C463 1.433 . S
C462 C458 1.350 . S
C462 C459 1.463 . S
C462 N466 1.427 . S
C463 H453 0.929 . S
C463 C461 1.433 . S
C463 N466 1.384 . S
C464 H455 0.929 . S
C464 C456 1.378 . S
C464 C459 1.350 . S
C465 H452 0.929 . S
C465 C457 1.433 . S
C465 N467 1.384 . S
N466 C462 1.427 . S
N466 C463 1.384 . S
N467 C459 1.427 . S
N467 C465 1.384 . S
C335 C197 2.233 . S
C331 C69 2.232 . S
C353 C285 2.245 . S
C349 C143 2.237 . S
C371 C205 1.499 . S
C367 C63 1.397 . S
C389 C293 1.482 . S
C385 C137 1.380 . S
C407 C265 1.432 . S
C403 C39 1.357 . S
C425 C168 1.412 . S
C421 C113 1.349 . S
C443 C256 0.687 . S
C439 C51 0.682 . S
C457 C125 0.727 . S
C461 C177 0.728 . S
