# Generated by pormake.
# Topology anh, (6,3)-cn, num edge types: 1
# Building blocks:
#     Node 0, Type 0, BuildingBlock: NUHQIS_clean_sbu_0, # of connection points: 6
#     Node 1, Type 0, BuildingBlock: NUHQIS_clean_sbu_0, # of connection points: 6
#     Node 2, Type 0, BuildingBlock: NUHQIS_clean_sbu_0, # of connection points: 6
#     Node 3, Type 1, BuildingBlock: CUQRIR_clean_linker_1, # of connection points: 3
#     Node 4, Type 1, BuildingBlock: CUQRIR_clean_linker_1, # of connection points: 3
#     Node 5, Type 1, BuildingBlock: CUQRIR_clean_linker_1, # of connection points: 3
#     Node 6, Type 1, BuildingBlock: CUQRIR_clean_linker_1, # of connection points: 3
#     Node 7, Type 1, BuildingBlock: CUQRIR_clean_linker_1, # of connection points: 3
#     Node 8, Type 1, BuildingBlock: CUQRIR_clean_linker_1, # of connection points: 3
#     Edge 9, Type (0, 1), BuildingBlock: TEMPAE_clean_linker_10, # of connection points: 2
#     Edge 10, Type (0, 1), BuildingBlock: TEMPAE_clean_linker_10, # of connection points: 2
#     Edge 11, Type (0, 1), BuildingBlock: TEMPAE_clean_linker_10, # of connection points: 2
#     Edge 12, Type (0, 1), BuildingBlock: TEMPAE_clean_linker_10, # of connection points: 2
#     Edge 13, Type (0, 1), BuildingBlock: TEMPAE_clean_linker_10, # of connection points: 2
#     Edge 14, Type (0, 1), BuildingBlock: TEMPAE_clean_linker_10, # of connection points: 2
#     Edge 15, Type (0, 1), BuildingBlock: TEMPAE_clean_linker_10, # of connection points: 2
#     Edge 16, Type (0, 1), BuildingBlock: TEMPAE_clean_linker_10, # of connection points: 2
#     Edge 17, Type (0, 1), BuildingBlock: TEMPAE_clean_linker_10, # of connection points: 2
#     Edge 18, Type (0, 1), BuildingBlock: TEMPAE_clean_linker_10, # of connection points: 2
#     Edge 19, Type (0, 1), BuildingBlock: TEMPAE_clean_linker_10, # of connection points: 2
#     Edge 20, Type (0, 1), BuildingBlock: TEMPAE_clean_linker_10, # of connection points: 2
#     Edge 21, Type (0, 1), BuildingBlock: TEMPAE_clean_linker_10, # of connection points: 2
#     Edge 22, Type (0, 1), BuildingBlock: TEMPAE_clean_linker_10, # of connection points: 2
#     Edge 23, Type (0, 1), BuildingBlock: TEMPAE_clean_linker_10, # of connection points: 2
#     Edge 24, Type (0, 1), BuildingBlock: TEMPAE_clean_linker_10, # of connection points: 2
#     Edge 25, Type (0, 1), BuildingBlock: TEMPAE_clean_linker_10, # of connection points: 2
#     Edge 26, Type (0, 1), BuildingBlock: TEMPAE_clean_linker_10, # of connection points: 2
# Relax obj value: 0.297
# Max RMSD: 0.224
# Mean RMSD: 0.160
data_MOF--net-anh--node1-NUHQIS_clean_sbu_0--node2-CUQRIR_clean_linker_1--edge1-TEMPAE_clean_linker_10
_symmetry_space_group_name_H-M    P1
_symmetry_Int_Tables_number       1
_symmetry_cell_setting            triclinic
loop_
_symmetry_equiv_pos_as_xyz
'x, y, z'
_cell_length_a     29.030417
_cell_length_b     28.976404
_cell_length_c     47.65384
_cell_angle_alpha  87.026982
_cell_angle_beta   91.406887
_cell_angle_gamma 120.15836
loop_
_atom_site_label
_atom_site_type_symbol
_atom_site_fract_x
_atom_site_fract_y
_atom_site_fract_z
_atom_type_partial_charge
Tb0 Tb 0.21044 0.56074 0.17687 0.0
Eu1 Eu 0.15292 0.61934 0.14933 0.0
C2 C 0.15242 0.60033 0.21369 0.0
C3 C 1.08211 0.48925 0.16587 0.0
C4 C 0.28867 0.5311 0.22854 0.0
C5 C 0.34129 0.59721 0.26252 0.0
C6 C 0.30048 0.5771 0.24261 0.0
C7 C 0.31302 0.50176 0.23706 0.0
C8 C 0.35397 0.5219 0.25682 0.0
C9 C 0.37255 0.57293 0.2677 0.0
C10 C 0.25309 0.51517 0.20419 0.0
O11 O 0.205 0.54417 0.13157 0.0
O12 O 0.20841 0.62142 0.11704 0.0
O13 O 0.23305 0.68997 0.1651 0.0
O14 O 0.27898 0.64488 0.17117 0.0
C15 C 0.21239 0.58013 0.11136 0.0
O16 O 0.1212 0.63547 0.11077 0.0
O17 O 1.11738 0.67022 0.14937 0.0
O18 O 0.12039 0.59326 0.19273 0.0
O19 O 0.19885 0.60486 0.20926 0.0
O20 O 0.12504 0.49545 0.17952 0.0
O21 O 1.08622 0.52962 0.14947 0.0
C22 C 0.27899 0.69091 0.16956 0.0
O23 O 0.2055 0.50652 0.2091 0.0
O24 O 0.27288 0.54384 0.18094 0.0
C25 C 1.04315 0.63533 0.11918 0.0
C26 C 0.9339 0.58028 0.10687 0.0
C27 C 0.96929 0.62581 0.09042 0.0
C28 C 1.02366 0.65306 0.09651 0.0
C29 C 1.00808 0.58968 0.13549 0.0
C30 C 0.95383 0.56235 0.12939 0.0
C31 C 1.10049 0.65953 0.12351 0.0
H32 H 0.35121 0.63442 0.27173 0.0
H33 H 0.28036 0.5992 0.23703 0.0
H34 H 0.30297 0.46511 0.22706 0.0
H35 H 0.37467 0.4999 0.26056 0.0
H36 H 0.95477 0.64103 0.07326 0.0
H37 H 1.0505 0.68759 0.0834 0.0
H38 H 1.02277 0.57476 0.15271 0.0
H39 H 0.92744 0.5273 0.14232 0.0
Tb40 Tb 0.77326 0.15178 0.50054 0.0
Eu41 Eu 0.64778 0.09278 0.49513 0.0
C42 C 0.70296 0.12397 0.55334 0.0
C43 C 0.70891 1.02138 0.50558 0.0
C44 C 0.90181 0.25903 0.48383 0.0
C45 C 0.91328 0.34804 0.4788 0.0
C46 C 0.90556 0.30415 0.49582 0.0
C47 C 0.91319 0.26196 0.45497 0.0
C48 C 0.92145 0.3063 0.43795 0.0
C49 C 0.91856 0.34816 0.44963 0.0
C50 C 0.87266 0.20626 0.49909 0.0
O51 O 0.75571 0.16415 0.45636 0.0
O52 O 0.67553 0.089 0.45216 0.0
O53 O 0.67156 0.18247 0.49316 0.0
O54 O 0.7597 0.22113 0.50494 0.0
C55 C 0.71845 0.12849 0.44046 0.0
O56 O 0.57773 0.08673 0.47507 0.0
O57 O 0.56832 1.03466 0.5121 0.0
O58 O 0.67103 0.13062 0.53626 0.0
O59 O 0.74176 0.11914 0.54304 0.0
O60 O 0.75405 1.06654 0.49951 0.0
O61 O 0.6641 1.02307 0.50775 0.0
C62 C 0.71685 0.22563 0.49981 0.0
O63 O 0.84471 0.20388 0.52078 0.0
O64 O 0.84527 0.16581 0.4832 0.0
C65 C 0.48977 1.01453 0.48436 0.0
C66 C 0.38123 0.96682 0.46997 0.0
C67 C 0.42081 0.99142 0.44908 0.0
C68 C 0.47458 1.01494 0.45619 0.0
C69 C 0.45038 0.98759 0.50503 0.0
C70 C 0.39653 0.96375 0.4979 0.0
C71 C 0.54493 1.05015 0.49317 0.0
H72 H 0.91217 0.38071 0.48825 0.0
H73 H 0.89774 0.30376 0.51796 0.0
H74 H 0.91104 0.2281 0.44508 0.0
H75 H 0.92616 0.30611 0.41548 0.0
H76 H 0.41044 0.99481 0.42739 0.0
H77 H 0.50416 1.03586 0.43983 0.0
H78 H 0.46124 0.98728 0.52693 0.0
H79 H 0.36694 0.9441 0.51437 0.0
Tb80 Tb 0.74693 0.70745 0.83622 0.0
Eu81 Eu 0.68138 0.57958 0.83773 0.0
C82 C 0.70154 0.6413 0.89256 0.0
C83 C 0.81286 0.64099 0.84276 0.0
C84 C 0.77716 0.8421 0.84518 0.0
C85 C 0.76369 0.91194 0.82394 0.0
C86 C 0.79692 0.89082 0.82983 0.0
C87 C 0.72718 0.81926 0.85828 0.0
C88 C 0.69361 0.83964 0.85194 0.0
C89 C 0.7101 0.88359 0.83277 0.0
C90 C 0.79842 0.80735 0.83941 0.0
O91 O 0.73099 0.6939 0.79148 0.0
O92 O 0.68961 0.60246 0.79105 0.0
O93 O 0.6144 0.60152 0.83834 0.0
O94 O 0.66299 0.69314 0.83888 0.0
C95 C 0.70904 0.64953 0.77781 0.0
O96 O 0.66765 0.50279 0.8244 0.0
O97 O 0.61358 0.50574 0.85498 0.0
O98 O 0.70552 0.60264 0.88225 0.0
O99 O 0.70631 0.68103 0.8763 0.0
O100 O 0.81234 0.68661 0.839 0.0
O101 O 0.76715 0.59524 0.84385 0.0
C102 C 0.6159 0.64791 0.83984 0.0
O103 O 0.7959 0.77447 0.85987 0.0
O104 O 0.78068 0.78316 0.81595 0.0
C105 C 0.59462 0.4179 0.84197 0.0
C106 C 0.53315 0.30739 0.83562 0.0
C107 C 0.58898 0.33363 0.83354 0.0
C108 C 0.61943 0.38854 0.83645 0.0
C109 C 0.53939 0.39125 0.84653 0.0
C110 C 0.50872 0.3362 0.84328 0.0
C111 C 0.62572 0.47636 0.84047 0.0
H112 H 0.77824 0.94729 0.81007 0.0
H113 H 0.83555 0.90914 0.81969 0.0
H114 H 0.71133 0.78179 0.87046 0.0
H115 H 0.65295 0.8171 0.85948 0.0
H116 H 0.60886 0.31205 0.82824 0.0
H117 H 0.66214 0.40832 0.83334 0.0
H118 H 0.5196 0.41336 0.85093 0.0
H119 H 0.46577 0.31693 0.84496 0.0
C120 C 0.68019 0.09328 0.18811 0.0
N121 N 0.71624 0.13247 0.20559 0.0
N122 N 0.63625 1.05265 0.20247 0.0
C123 C 0.68811 0.09413 0.15709 0.0
C124 C 0.64715 1.0695 0.22921 0.0
N125 N 0.69428 0.11629 0.23121 0.0
C126 C 0.61108 1.03995 0.254 0.0
H127 H 0.7076 0.13573 0.14805 0.0
H128 H 0.64984 1.06949 0.14621 0.0
H129 H 0.71426 1.07737 0.15334 0.0
H130 H 0.62382 1.01303 0.26438 0.0
H131 H 0.56895 1.0158 0.24736 0.0
H132 H 0.61342 1.06786 0.26975 0.0
C133 C 0.72015 0.62669 0.52445 0.0
N134 N 0.71583 0.66088 0.54239 0.0
N135 N 0.71505 0.58081 0.53825 0.0
C136 C 0.73387 0.63999 0.49388 0.0
C137 C 0.70611 0.58842 0.56509 0.0
N138 N 0.70802 0.63595 0.56777 0.0
C139 C 0.69156 0.54745 0.58915 0.0
H140 H 0.6965 0.6232 0.48149 0.0
H141 H 0.75739 0.62203 0.48697 0.0
H142 H 0.7568 0.68388 0.48965 0.0
H143 H 0.72803 0.5559 0.60113 0.0
H144 H 0.67231 0.50631 0.58156 0.0
H145 H 0.66369 0.54951 0.60387 0.0
C146 C 0.2149 0.64058 0.86192 0.0
N147 N 0.24925 0.63165 0.8794 0.0
N148 N 0.16937 0.63209 0.87567 0.0
C149 C 0.22549 0.65764 0.83141 0.0
C150 C 0.17728 0.6168 0.90195 0.0
N151 N 0.2242 0.61668 0.90433 0.0
C152 C 0.13835 0.6015 0.9259 0.0
H153 H 0.25195 0.70162 0.8295 0.0
H154 H 0.1882 0.64753 0.81994 0.0
H155 H 0.24549 0.63845 0.82157 0.0
H156 H 1.09718 0.58672 0.91814 0.0
H157 H 0.15044 0.63702 0.93846 0.0
H158 H 0.13797 0.56982 0.94008 0.0
C159 C 0.98236 0.73539 0.40031 0.0
N160 N 0.97733 0.69845 0.38231 0.0
N161 N 1.02531 0.78396 0.39392 0.0
C162 C 0.94715 0.72373 0.42547 0.0
C163 C 1.04334 0.77598 0.36965 0.0
N164 N 1.01478 0.72431 0.36285 0.0
C165 C 1.09607 0.81557 0.35622 0.0
H166 H 0.94236 0.75867 0.42893 0.0
H167 H 0.96549 0.71665 0.44465 0.0
H168 H 0.90755 0.6878 0.42238 0.0
H169 H 0.1286 0.81526 0.36876 0.0
H170 H 1.10192 0.85645 0.35573 0.0
H171 H 1.09888 0.80557 0.33443 0.0
C172 C 0.39801 0.93521 0.74462 0.0
N173 N 0.4363 0.93615 0.72858 0.0
N174 N 0.39332 0.97911 0.73924 0.0
C175 C 0.37264 0.89667 0.76948 0.0
C176 C 0.42562 1.0032 0.7166 0.0
N177 N 0.4514 0.97719 0.71018 0.0
C178 C 0.44017 1.05784 0.70442 0.0
H179 H 0.33893 0.89963 0.77787 0.0
H180 H 0.40253 0.90497 0.78633 0.0
H181 H 0.3582 0.85535 0.76302 0.0
H182 H 0.46887 0.08846 0.71862 0.0
H183 H 0.4043 1.06203 0.70256 0.0
H184 H 0.45879 1.06532 0.68338 0.0
C185 C 0.60533 0.5915 0.13454 0.0
N186 N 0.61031 0.584 0.10733 0.0
N187 N 0.58434 0.62355 0.13665 0.0
C188 C 0.62396 0.57008 0.15897 0.0
C189 C 0.57614 0.63495 0.10972 0.0
N190 N 0.59238 0.61111 0.09194 0.0
C191 C 0.55394 0.67045 0.10098 0.0
H192 H 0.62332 0.53293 0.15369 0.0
H193 H 0.59867 0.56188 0.17774 0.0
H194 H 0.66553 0.60036 0.16417 0.0
H195 H 0.56661 0.70287 0.11589 0.0
H196 H 0.5098 0.64631 0.10145 0.0
H197 H 0.56652 0.68789 0.07936 0.0
C198 C 0.45733 0.66093 0.26735 0.0
C199 C 0.43026 0.60616 0.27564 0.0
C200 C 0.50428 0.68234 0.25149 0.0
C201 C 0.52347 0.64821 0.24481 0.0
C202 C 0.50684 0.60064 0.26147 0.0
C203 C 0.46127 0.58137 0.27831 0.0
C204 C 0.5262 0.73692 0.23732 0.0
C205 C 0.53003 0.56516 0.25734 0.0
C206 C 0.51814 0.62135 0.16775 0.0
C207 C 0.57125 0.63887 0.16198 0.0
C208 C 0.50263 0.62677 0.1943 0.0
C209 C 0.5417 0.65068 0.21564 0.0
C210 C 0.5962 0.67196 0.20918 0.0
C211 C 0.61034 0.66568 0.18225 0.0
C212 C 0.44382 0.60317 0.19977 0.0
C213 C 0.63966 0.70116 0.23033 0.0
H214 H 0.43805 0.68447 0.26836 0.0
H215 H 0.44465 0.54196 0.28851 0.0
H216 H 0.56873 0.75424 0.23154 0.0
H217 H 0.5031 0.73378 0.21789 0.0
H218 H 0.52217 0.76418 0.25131 0.0
H219 H 0.52166 0.53672 0.27566 0.0
H220 H 0.5119 0.54171 0.23842 0.0
H221 H 0.5737 0.58922 0.25396 0.0
H222 H 0.48841 0.60044 0.15186 0.0
H223 H 0.65173 0.68009 0.17724 0.0
H224 H 0.43582 0.63321 0.20844 0.0
H225 H 0.43048 0.56907 0.21526 0.0
H226 H 0.41943 0.58834 0.18048 0.0
H227 H 0.65219 0.74423 0.22848 0.0
H228 H 0.67515 0.69747 0.22617 0.0
H229 H 0.62626 0.68675 0.25226 0.0
C230 C 0.9596 0.42508 0.41452 0.0
C231 C 0.91647 0.38998 0.43164 0.0
C232 C 0.9614 0.47048 0.40143 0.0
C233 C 0.91907 0.48046 0.40571 0.0
C234 C 0.87308 0.44204 0.42063 0.0
C235 C 0.8724 0.39715 0.43349 0.0
C236 C 1.01079 0.51024 0.38533 0.0
C237 C 0.82665 0.45063 0.42505 0.0
C238 C 0.96654 0.6259 0.41525 0.0
C239 C 0.95434 0.64217 0.38933 0.0
C240 C 0.95296 0.57287 0.4211 0.0
C241 C 0.9279 0.53516 0.40012 0.0
C242 C 0.91428 0.55083 0.37402 0.0
C243 C 0.92754 0.60437 0.36897 0.0
C244 C 0.96786 0.55791 0.44936 0.0
C245 C 0.88849 0.51208 0.35093 0.0
H246 H 0.99328 0.4189 0.41286 0.0
H247 H 0.83838 0.36879 0.44613 0.0
H248 H 1.00015 0.52547 0.36587 0.0
H249 H 1.03527 0.54488 0.39847 0.0
H250 H 1.03542 0.49266 0.37963 0.0
H251 H 0.79172 0.41447 0.4345 0.0
H252 H 0.83878 0.48405 0.43923 0.0
H253 H 0.81452 0.46199 0.4048 0.0
H254 H 0.98957 0.65535 0.43048 0.0
H255 H 0.91921 0.61736 0.34872 0.0
H256 H 0.99787 0.54552 0.4465 0.0
H257 H 0.93239 0.52354 0.45954 0.0
H258 H 0.98465 0.59148 0.4638 0.0
H259 H 0.91908 0.50641 0.34067 0.0
H260 H 0.87052 0.527 0.33463 0.0
H261 H 0.85724 0.47243 0.35947 0.0
C262 C 0.62338 0.88325 0.83164 0.0
C263 C 0.66955 0.89237 0.81782 0.0
C264 C 0.58182 0.88439 0.81665 0.0
C265 C 0.58737 0.8965 0.78735 0.0
C266 C 0.63388 0.90622 0.7733 0.0
C267 C 0.67409 0.90341 0.78864 0.0
C268 C 0.53253 0.8737 0.83227 0.0
C269 C 0.64158 0.92054 0.74215 0.0
C270 C 0.46899 0.87415 0.74202 0.0
C271 C 0.47477 0.92497 0.74173 0.0
C272 C 0.50492 0.86353 0.75735 0.0
C273 C 0.54753 0.90525 0.7719 0.0
C274 C 0.55301 0.95649 0.77152 0.0
C275 C 0.5157 0.96512 0.75705 0.0
C276 C 0.49728 0.808 0.75811 0.0
C277 C 0.59818 1.00231 0.78639 0.0
H278 H 0.61951 0.87485 0.85415 0.0
H279 H 0.70863 0.9087 0.77751 0.0
H280 H 0.53366 0.91201 0.83509 0.0
H281 H 0.49603 0.84801 0.82017 0.0
H282 H 0.52955 0.85418 0.85337 0.0
H283 H 0.67964 0.92561 0.73429 0.0
H284 H 0.60825 0.88906 0.73025 0.0
H285 H 0.64129 0.95834 0.73756 0.0
H286 H 0.43608 0.84293 0.7308 0.0
H287 H 0.51777 1.00336 0.75797 0.0
H288 H 0.50098 0.79493 0.77993 0.0
H289 H 0.52884 0.8081 0.7454 0.0
H290 H 0.45788 0.77844 0.74962 0.0
H291 H 0.59572 0.99269 0.80932 0.0
H292 H 0.59766 1.04025 0.78281 0.0
H293 H 0.63701 1.00874 0.77899 0.0
C294 C 0.85454 0.54712 0.07517 0.0
C295 C 0.87592 0.55553 0.10238 0.0
C296 C 0.80205 0.53569 0.07048 0.0
C297 C 0.77142 0.5342 0.09347 0.0
C298 C 0.79078 0.53631 0.12123 0.0
C299 C 0.84291 0.5468 0.12533 0.0
C300 C 0.78155 0.53071 0.04075 0.0
C301 C 0.75915 0.53441 0.14643 0.0
C302 C 0.69923 0.61057 0.09139 0.0
C303 C 0.6474 0.56985 0.09738 0.0
C304 C 0.73944 0.59887 0.08697 0.0
C305 C 0.72705 0.54485 0.0888 0.0
C306 C 0.67344 0.50326 0.09194 0.0
C307 C 0.63392 0.5164 0.09654 0.0
C308 C 0.79595 0.64468 0.08334 0.0
C309 C 0.65832 0.44525 0.09267 0.0
H310 H 0.87971 0.55239 0.05744 0.0
H311 H 0.85925 0.55301 0.14641 0.0
H312 H 0.73776 0.50361 0.03996 0.0
H313 H 0.79052 0.57058 0.03198 0.0
H314 H 0.80115 0.51562 0.02711 0.0
H315 H 0.77742 0.53073 0.16656 0.0
H316 H 0.75691 0.57156 0.14635 0.0
H317 H 0.71785 0.50028 0.14557 0.0
H318 H 0.70878 0.65176 0.09219 0.0
H319 H 0.59324 0.48524 0.10092 0.0
H320 H 0.81501 0.63901 0.065 0.0
H321 H 0.81968 0.64607 0.10224 0.0
H322 H 0.79782 0.68387 0.08028 0.0
H323 H 0.68553 0.4389 0.07953 0.0
H324 H 0.61676 0.41988 0.08528 0.0
H325 H 0.66067 0.43177 0.1146 0.0
C326 C 0.30379 0.9193 0.43783 0.0
C327 C 0.32443 0.94617 0.46268 0.0
C328 C 0.2505 0.89993 0.4304 0.0
C329 C 0.21665 0.90699 0.44846 0.0
C330 C 0.23729 0.93482 0.47337 0.0
C331 C 0.29108 0.95423 0.48018 0.0
C332 C 0.23013 0.87065 0.40351 0.0
C333 C 0.20233 0.94288 0.49313 0.0
C334 C 1.08941 0.87344 0.41002 0.0
C335 C 1.06154 0.81791 0.41479 0.0
C336 C 0.13848 0.90504 0.42333 0.0
C337 C 0.15884 0.8802 0.44217 0.0
C338 C 0.12683 0.82548 0.45012 0.0
C339 C 1.07892 0.79489 0.43604 0.0
C340 C 0.17117 0.96346 0.41455 0.0
C341 C 0.14639 0.79742 0.47051 0.0
H342 H 0.32914 0.91247 0.42436 0.0
H343 H 0.30707 0.97591 0.49917 0.0
H344 H 0.19896 0.82857 0.40838 0.0
H345 H 0.21173 0.88948 0.39012 0.0
H346 H 0.26219 0.87063 0.39126 0.0
H347 H 0.22568 0.97036 0.50996 0.0
H348 H 0.17968 0.95909 0.4814 0.0
H349 H 0.17279 0.90384 0.50311 0.0
H350 H 1.07565 0.89118 0.39376 0.0
H351 H 1.05819 0.75189 0.43949 0.0
H352 H 0.20013 0.96865 0.39817 0.0
H353 H 0.1941 0.98761 0.43249 0.0
H354 H 0.14573 0.97915 0.40563 0.0
H355 H 0.17541 0.7901 0.45969 0.0
H356 H 1.11322 0.7583 0.47854 0.0
H357 H 0.16698 0.82235 0.48862 0.0
C358 C 0.51446 0.23984 0.80068 0.0
C359 C 0.50079 0.25241 0.82599 0.0
C360 C 0.48484 0.18883 0.79037 0.0
C361 C 0.43998 0.14919 0.80569 0.0
C362 C 0.42521 0.16164 0.83108 0.0
C363 C 0.45584 0.21346 0.84094 0.0
C364 C 0.5023 0.17729 0.76322 0.0
C365 C 0.37786 0.1201 0.84795 0.0
C366 C 0.36267 1.03762 0.75707 0.0
C367 C 0.39007 1.00962 0.76127 0.0
C368 C 0.37348 0.0802 0.77402 0.0
C369 C 0.41208 0.09415 0.79562 0.0
C370 C 0.4342 1.06127 0.80224 0.0
C371 C 0.42352 1.01996 0.78472 0.0
C372 C 0.34868 0.11412 0.76656 0.0
C373 C 0.47539 1.07433 0.82509 0.0
H374 H 0.54835 0.2703 0.78869 0.0
H375 H 0.4452 0.2233 0.86049 0.0
H376 H 0.51255 0.14541 0.76706 0.0
H377 H 0.46932 0.16279 0.74776 0.0
H378 H 0.53754 0.21304 0.75372 0.0
H379 H 0.37037 0.13681 0.86663 0.0
H380 H 0.34166 0.10283 0.83461 0.0
H381 H 0.38445 0.08684 0.85513 0.0
H382 H 0.33647 1.02924 0.73911 0.0
H383 H 0.44569 0.99927 0.78787 0.0
H384 H 0.37717 0.14973 0.7536 0.0
H385 H 0.33976 0.12843 0.78571 0.0
H386 H 0.31144 0.09185 0.75429 0.0
H387 H 0.51466 0.10666 0.81714 0.0
H388 H 0.47943 1.03914 0.83159 0.0
H389 H 0.46528 0.08864 0.84383 0.0
C390 C 0.66746 0.92149 0.52412 0.0
C391 C 0.70923 0.96756 0.51023 0.0
C392 C 0.6684 0.87243 0.52918 0.0
C393 C 0.71156 0.86652 0.51975 0.0
C394 C 0.7534 0.91264 0.50533 0.0
C395 C 0.75209 0.9616 0.50118 0.0
C396 C 0.62295 0.82667 0.54522 0.0
C397 C 0.80012 0.91031 0.49393 0.0
C398 C 0.7416 0.75661 0.5539 0.0
C399 C 0.71673 0.71287 0.536 0.0
C400 C 0.73956 0.80505 0.5492 0.0
C401 C 0.71339 0.81324 0.52526 0.0
C402 C 0.68936 0.7699 0.50668 0.0
C403 C 0.6907 0.72115 0.51231 0.0
C404 C 0.76557 0.84783 0.57032 0.0
C405 C 0.66174 0.77489 0.48049 0.0
H406 H 0.63388 0.92394 0.53165 0.0
H407 H 0.78503 0.99552 0.49036 0.0
H408 H 0.60277 0.79154 0.53193 0.0
H409 H 0.63846 0.81466 0.56402 0.0
H410 H 0.59306 0.83699 0.55209 0.0
H411 H 0.82797 0.94746 0.48174 0.0
H412 H 0.82236 0.90389 0.51149 0.0
H413 H 0.7858 0.87596 0.48017 0.0
H414 H 0.76373 0.75373 0.57179 0.0
H415 H 0.67032 0.68891 0.49812 0.0
H416 H 0.73673 0.85924 0.57753 0.0
H417 H 0.79941 0.88411 0.56034 0.0
H418 H 0.78065 0.83477 0.58894 0.0
H419 H 0.62669 0.77802 0.48632 0.0
H420 H 0.64813 0.74024 0.467 0.0
H421 H 0.689 0.81197 0.4681 0.0
C422 C 0.86999 0.59882 0.86055 0.0
C423 C 0.86661 0.64094 0.84599 0.0
C424 C 0.91919 0.59844 0.86426 0.0
C425 C 0.96821 0.64017 0.85235 0.0
C426 C 0.96475 0.68213 0.83699 0.0
C427 C 0.91535 0.68255 0.83453 0.0
C428 C 0.91866 0.55314 0.88156 0.0
C429 C 1.01361 0.72695 0.82266 0.0
C430 C 1.1074 0.66872 0.88317 0.0
C431 C 0.12313 0.63926 0.86692 0.0
C432 C 1.05837 0.66897 0.87884 0.0
C433 C 1.02255 0.64078 0.85674 0.0
C434 C 1.03914 0.61267 0.83942 0.0
C435 C 1.08766 0.61135 0.84494 0.0
C436 C 1.04396 0.69829 0.89892 0.0
C437 C 1.00498 0.58279 0.81504 0.0
H438 H 0.83385 0.56609 0.8698 0.0
H439 H 0.91485 0.71549 0.82297 0.0
H440 H 0.92932 0.52975 0.86814 0.0
H441 H 0.94896 0.56918 0.89847 0.0
H442 H 0.87911 0.52574 0.89125 0.0
H443 H 1.04263 0.75201 0.83865 0.0
H444 H 1.0333 0.71053 0.81007 0.0
H445 H 1.00408 0.75286 0.80864 0.0
H446 H 0.13311 0.69059 0.90028 0.0
H447 H 1.09693 0.58701 0.83236 0.0
H448 H 1.00455 0.67048 0.90861 0.0
H449 H 1.04055 0.73066 0.8874 0.0
H450 H 1.07385 0.71606 0.91592 0.0
H451 H 0.96923 0.54583 0.82302 0.0
H452 H 1.02666 0.57141 0.80057 0.0
H453 H 0.99107 0.60735 0.80301 0.0
C454 C 0.38218 0.7514 0.16532 0.0
C455 C 0.33224 0.74482 0.17278 0.0
C456 C 0.43163 0.80093 0.16766 0.0
C457 C 0.43396 0.84674 0.17932 0.0
C458 C 0.3835 0.83972 0.18753 0.0
C459 C 0.33436 0.79049 0.18353 0.0
C460 C 0.48133 0.80311 0.15723 0.0
C461 C 0.38038 0.88394 0.20108 0.0
C462 C 0.57529 0.9522 0.20865 0.0
C463 C 0.58928 1.00106 0.19375 0.0
C464 C 0.5261 0.90349 0.20458 0.0
C465 C 0.48826 0.90025 0.18378 0.0
C466 C 0.50335 0.94914 0.16766 0.0
C467 C 0.55199 0.99814 0.17318 0.0
C468 C 0.51546 0.8557 0.22335 0.0
C469 C 0.46824 0.95099 0.14435 0.0
H470 H 0.38278 0.7177 0.15686 0.0
H471 H 0.29722 0.78745 0.18973 0.0
H472 H 0.51387 0.84452 0.15227 0.0
H473 H 0.49545 0.78436 0.17352 0.0
H474 H 0.47258 0.77976 0.13809 0.0
H475 H 0.34638 0.86744 0.21601 0.0
H476 H 0.41742 0.91056 0.21254 0.0
H477 H 0.37349 0.9082 0.18456 0.0
H478 H 0.60267 0.95227 0.22453 0.0
H479 H 0.56004 1.0346 0.16161 0.0
H480 H 0.53657 0.83674 0.21455 0.0
H481 H 0.47247 0.82564 0.22529 0.0
H482 H 0.53169 0.86811 0.24474 0.0
H483 H 0.44077 0.911 0.13625 0.0
H484 H 0.49283 0.97792 0.12662 0.0
H485 H 0.44438 0.96781 0.15228 0.0
C486 C 0.76636 0.33003 0.50148 0.0
C487 C 0.71857 0.27994 0.50303 0.0
C488 C 0.76802 0.38007 0.5046 0.0
C489 C 0.72102 0.3823 0.51082 0.0
C490 C 0.6728 0.33151 0.51289 0.0
C491 C 0.67209 0.28241 0.5084 0.0
C492 C 0.82125 0.43066 0.50142 0.0
C493 C 0.62089 0.32786 0.52041 0.0
C494 C 0.74736 0.51404 0.54624 0.0
C495 C 0.72115 0.5352 0.52903 0.0
C496 C 0.74652 0.46529 0.54111 0.0
C497 C 0.72254 0.43636 0.51641 0.0
C498 C 0.69943 0.45978 0.49766 0.0
C499 C 0.69785 0.50708 0.50439 0.0
C500 C 0.77077 0.44502 0.56332 0.0
C501 C 0.67565 0.43532 0.47007 0.0
H502 H 0.80313 0.33044 0.49743 0.0
H503 H 0.63447 0.24517 0.50999 0.0
H504 H 0.81711 0.46524 0.49378 0.0
H505 H 0.84159 0.4397 0.52206 0.0
H506 H 0.84749 0.4259 0.48674 0.0
H507 H 0.59395 0.28918 0.53169 0.0
H508 H 0.6269 0.36073 0.53373 0.0
H509 H 0.60044 0.3299 0.50082 0.0
H510 H 0.76796 0.53511 0.56474 0.0
H511 H 0.67745 0.52144 0.49031 0.0
H512 H 0.81481 0.46883 0.56153 0.0
H513 H 0.75773 0.40211 0.56182 0.0
H514 H 0.76034 0.45093 0.5846 0.0
H515 H 0.69025 0.40898 0.4631 0.0
H516 H 0.68493 0.46711 0.45344 0.0
H517 H 0.63166 0.41171 0.47218 0.0
C518 C 0.56027 0.68751 0.85976 0.0
C519 C 0.56282 0.64847 0.8442 0.0
C520 C 0.51109 0.68623 0.86563 0.0
C521 C 0.46081 0.64587 0.85497 0.0
C522 C 0.46363 0.60735 0.83845 0.0
C523 C 0.51308 0.60834 0.83403 0.0
C524 C 0.5144 0.7287 0.88392 0.0
C525 C 0.41409 0.56422 0.82503 0.0
C526 C 0.31741 0.60016 0.88589 0.0
C527 C 0.30194 0.6356 0.87302 0.0
C528 C 0.36805 0.60402 0.88108 0.0
C529 C 0.40603 0.64281 0.86142 0.0
C530 C 0.3903 0.67807 0.84782 0.0
C531 C 0.34031 0.67492 0.85409 0.0
C532 C 0.38013 0.56557 0.89761 0.0
C533 C 0.42642 0.71949 0.82613 0.0
H534 H 0.59701 0.71867 0.86844 0.0
H535 H 0.51268 0.57743 0.82198 0.0
H536 H 0.5326 0.76742 0.87164 0.0
H537 H 0.47513 0.71973 0.892 0.0
H538 H 0.54104 0.73391 0.90209 0.0
H539 H 0.42392 0.55032 0.80597 0.0
H540 H 0.39396 0.52942 0.84012 0.0
H541 H 0.38572 0.57814 0.81906 0.0
H542 H 0.28953 0.56813 0.89984 0.0
H543 H 0.33186 0.70417 0.84409 0.0
H544 H 0.42355 0.5816 0.90031 0.0
H545 H 0.36306 0.52773 0.8865 0.0
H546 H 0.3613 0.55577 0.91874 0.0
H547 H 0.46235 0.75069 0.83659 0.0
H548 H 0.40668 0.73903 0.8145 0.0
H549 H 0.43985 0.70102 0.81085 0.0
C550 C 1.02152 0.39611 0.19089 0.0
C551 C 1.02774 0.4361 0.17037 0.0
C552 C 0.97172 0.3476 0.19623 0.0
C553 C 0.92469 0.33606 0.18066 0.0
C554 C 0.9307 0.3761 0.15977 0.0
C555 C 0.98093 0.42475 0.15512 0.0
C556 C 0.9694 0.30858 0.21912 0.0
C557 C 0.8836 0.36754 0.14203 0.0
C558 C 0.80585 0.18597 0.17957 0.0
C559 C 0.76775 0.18311 0.19871 0.0
C560 C 0.85538 0.23447 0.17325 0.0
C561 C 0.86995 0.28317 0.18654 0.0
C562 C 0.83181 0.28036 0.20599 0.0
C563 C 0.78215 0.23175 0.21142 0.0
C564 C 0.8926 0.23341 0.15215 0.0
C565 C 0.84355 0.32921 0.22143 0.0
H566 H 1.05594 0.40297 0.20334 0.0
H567 H 0.98341 0.45411 0.13927 0.0
H568 H 0.93911 0.30195 0.23502 0.0
H569 H 0.95692 0.2694 0.21019 0.0
H570 H 1.00834 0.3227 0.22981 0.0
H571 H 0.894 0.40077 0.12616 0.0
H572 H 0.86758 0.32962 0.13104 0.0
H573 H 0.85132 0.36377 0.15563 0.0
H574 H 0.79755 0.14986 0.16964 0.0
H575 H 0.75404 0.23232 0.22564 0.0
H576 H 0.93038 0.24169 0.16261 0.0
H577 H 0.90266 0.26525 0.13549 0.0
H578 H 0.87519 0.19431 0.14217 0.0
H579 H 0.88194 0.3445 0.23282 0.0
H580 H 0.81179 0.32095 0.23676 0.0
H581 H 0.84778 0.36138 0.2062 0.0
C582 C 0.26138 0.57066 0.07051 0.0
C583 C 0.21791 0.57307 0.081 0.0
C584 C 0.27114 0.57504 0.04115 0.0
C585 C 0.23645 0.5816 0.02183 0.0
C586 C 0.19134 0.5817 0.03253 0.0
C587 C 0.18304 0.57793 0.06174 0.0
C588 C 0.31985 0.57508 0.03087 0.0
C589 C 0.15249 0.58761 0.01312 0.0
C590 C 0.27172 0.6513 0.94873 0.0
C591 C 0.24414 0.60825 0.93122 0.0
C592 C 0.27393 0.6431 0.97812 0.0
C593 C 0.24729 0.59043 0.99055 0.0
C594 C 0.22347 0.54677 0.9726 0.0
C595 C 0.22225 0.55622 0.94328 0.0
C596 C 0.30054 0.6911 -0.00394 0.0
C597 C 0.19441 0.48995 0.98448 0.0
H598 H 0.28917 0.56808 0.08521 0.0
H599 H 0.14959 0.58025 0.06967 0.0
H600 H 0.30907 0.54665 0.01387 0.0
H601 H 0.3486 0.61541 0.02188 0.0
H602 H 0.3399 0.56435 0.048 0.0
H603 H 0.1183 0.58481 0.02464 0.0
H604 H 0.17311 0.62682 0.00135 0.0
H605 H 0.13684 0.55618 -0.00253 0.0
H606 H 0.28759 0.69149 0.93964 0.0
H607 H 0.19969 0.52285 0.92995 0.0
H608 H 0.3246 0.68538 0.01285 0.0
H609 H 0.26962 0.69616 0.00641 0.0
H610 H 0.32671 0.72834 0.98345 0.0
H611 H 0.21753 0.48407 0.00175 0.0
H612 H 0.18648 0.46086 0.96813 0.0
H613 H 0.15569 0.48113 0.99336 0.0
C614 C 0.76741 0.17743 0.39531 0.0
C615 C 0.72328 0.13404 0.40894 0.0
C616 C 0.77146 0.1828 0.36562 0.0
C617 C 0.73055 0.14388 0.34891 0.0
C618 C 0.68614 0.09996 0.36261 0.0
C619 C 0.68307 0.09565 0.39221 0.0
C620 C 0.81945 0.23032 0.35212 0.0
C621 C 0.64146 1.05733 0.34592 0.0
C622 C 0.70058 0.16712 0.2725 0.0
C623 C 0.71829 0.13803 0.25796 0.0
C624 C 0.70795 0.17295 0.30177 0.0
C625 C 0.73315 0.14851 0.31718 0.0
C626 C 0.75457 0.12244 0.30218 0.0
C627 C 0.74675 0.11745 0.27286 0.0
C628 C 0.68464 0.20142 0.3165 0.0
C629 C 0.78185 0.09583 0.31738 0.0
H630 H 0.79883 0.20744 0.40784 0.0
H631 H 0.64876 1.06188 0.40226 0.0
H632 H 0.84034 0.2166 0.33858 0.0
H633 H 0.80659 0.25387 0.33839 0.0
H634 H 0.84805 0.25692 0.36789 0.0
H635 H 0.60995 1.0254 0.35961 0.0
H636 H 0.623 1.07549 0.33204 0.0
H637 H 0.65738 1.03877 0.33221 0.0
H638 H 0.67718 0.18168 0.26123 0.0
H639 H 0.75918 0.0937 0.26185 0.0
H640 H 0.71322 0.22861 0.33203 0.0
H641 H 0.64828 0.1716 0.32815 0.0
H642 H 0.67368 0.22493 0.30148 0.0
H643 H 0.81083 0.12264 0.3329 0.0
H644 H 0.80302 0.08427 0.30267 0.0
H645 H 0.75172 1.05928 0.32912 0.0
C646 C 0.69207 0.60812 0.73035 0.0
C647 C 0.70669 0.65305 0.74621 0.0
C648 C 0.69152 0.61137 0.70066 0.0
C649 C 0.70532 0.66063 0.68607 0.0
C650 C 0.71894 0.70585 0.70192 0.0
C651 C 0.71974 0.70163 0.73161 0.0
C652 C 0.67718 0.56211 0.68482 0.0
C653 C 0.7334 0.75902 0.68749 0.0
C654 C 0.75659 0.67313 0.6113 0.0
C655 C 0.71054 0.6572 0.59503 0.0
C656 C 0.75618 0.67728 0.64061 0.0
C657 C 0.70829 0.66504 0.65434 0.0
C658 C 0.66247 0.6525 0.63769 0.0
C659 C 0.66405 0.64837 0.60829 0.0
C660 C 0.80613 0.69084 0.65709 0.0
C661 C 0.61072 0.6399 0.65114 0.0
H662 H 0.6819 0.57034 0.74114 0.0
H663 H 0.73077 0.7367 0.74341 0.0
H664 H 0.64334 0.55313 0.67044 0.0
H665 H 0.71141 0.56934 0.67167 0.0
H666 H 0.66612 0.52652 0.69909 0.0
H667 H 0.7398 0.78956 0.70265 0.0
H668 H 0.77035 0.77394 0.67499 0.0
H669 H 0.70145 0.75435 0.67263 0.0
H670 H 0.79213 0.6786 0.60117 0.0
H671 H 0.62804 0.63466 0.59594 0.0
H672 H 0.80011 0.65506 0.66983 0.0
H673 H 0.81496 0.72264 0.67185 0.0
H674 H 0.84124 0.70439 0.64322 0.0
H675 H 0.59329 0.6005 0.6627 0.0
H676 H 0.58131 0.63848 0.63533 0.0
H677 H 0.61763 0.6701 0.66658 0.0
C678 C 0.69258 1.07613 0.60043 0.0
C679 C 0.68733 0.11402 0.5833 0.0
C680 C 0.66274 1.05509 0.62548 0.0
C681 C 0.62605 1.07133 0.6328 0.0
C682 C 0.62449 0.11298 0.61677 0.0
C683 C 0.65602 0.13453 0.59266 0.0
C684 C 0.66789 1.01309 0.64302 0.0
C685 C 0.58573 0.13138 0.62341 0.0
C686 C 0.49268 0.97439 0.66652 0.0
C687 C 0.49725 0.99771 0.69208 0.0
C688 C 0.53544 0.99639 0.64745 0.0
C689 C 0.58467 1.04136 0.65485 0.0
C690 C 0.59044 1.06248 0.68167 0.0
C691 C 0.54605 1.04164 0.69954 0.0
C692 C 0.52673 0.97372 0.61872 0.0
C693 C 0.64267 0.10851 0.6911 0.0
H694 H 0.71685 1.06024 0.59336 0.0
H695 H 0.65264 0.1646 0.5797 0.0
H696 H 0.66533 1.01811 0.66577 0.0
H697 H 0.63485 0.97291 0.63795 0.0
H698 H 0.70611 1.01459 0.63883 0.0
H699 H 0.59016 0.16473 0.60897 0.0
H700 H 0.54427 0.09759 0.62178 0.0
H701 H 0.59149 0.14479 0.64522 0.0
H702 H 0.45469 0.94051 0.66097 0.0
H703 H 0.54931 1.06017 0.7192 0.0
H704 H 0.55749 0.96313 0.61425 0.0
H705 H 0.53058 1.00434 0.60246 0.0
H706 H 0.48681 0.9376 0.61668 0.0
H707 H 0.67692 0.1061 0.68306 0.0
H708 H 0.64511 0.1094 0.7144 0.0
H709 H 0.64637 0.14674 0.68288 0.0
C710 C 0.64702 0.65405 0.92706 0.0
C711 C 0.68264 0.63633 0.92149 0.0
C712 C 0.62755 0.64957 0.95423 0.0
C713 C 0.64555 0.62843 0.97647 0.0
C714 C 0.68166 0.6105 0.97099 0.0
C715 C 0.69914 0.61384 0.94333 0.0
C716 C 0.58774 0.66741 0.95909 0.0
C717 C 0.70252 0.58874 0.99438 0.0
C718 C 0.64043 0.66677 0.05063 0.0
C719 C 0.59851 0.61913 0.06206 0.0
C720 C 0.65577 0.67068 0.02257 0.0
C721 C 0.62745 0.62614 0.00559 0.0
C722 C 0.58306 0.57888 0.01676 0.0
C723 C 0.56971 0.57569 0.04512 0.0
C724 C 0.70408 0.72126 0.0116 0.0
C725 C 0.55111 0.53103 -0.00087 0.0
H726 H 0.63355 0.67063 0.91001 0.0
H727 H 0.72668 0.60018 0.9389 0.0
H728 H 0.5517 0.63452 0.96968 0.0
H729 H 0.60513 0.70144 0.97319 0.0
H730 H 0.57545 0.67993 0.93921 0.0
H731 H 0.73079 0.57702 0.98661 0.0
H732 H 0.72308 0.61923 0.01033 0.0
H733 H 0.66901 0.55335 0.00517 0.0
H734 H 0.6633 0.69956 0.06427 0.0
H735 H 0.53803 0.53867 0.05449 0.0
H736 H 0.69396 0.73705 0.99218 0.0
H737 H 0.73564 0.71237 0.00606 0.0
H738 H 0.72045 0.75283 0.02724 0.0
H739 H 0.5393 0.54329 0.97903 0.0
H740 H 0.51463 0.49966 0.01016 0.0
H741 H 0.57585 0.51342 0.99386 0.0
C742 C 0.17174 0.65859 0.25386 0.0
C743 C 0.13815 0.61064 0.24102 0.0
C744 C 0.15326 0.67443 0.27634 0.0
C745 C 1.10063 0.64057 0.28648 0.0
C746 C 1.06837 0.59002 0.27499 0.0
C747 C 1.08719 0.57611 0.25196 0.0
C748 C 0.18845 0.72913 0.28762 0.0
C749 C 1.01279 0.55207 0.2859 0.0
C750 C 1.06033 0.67412 0.35433 0.0
C751 C 1.03297 0.69972 0.34398 0.0
C752 C 1.08213 0.65389 0.3359 0.0
C753 C 1.07704 0.66047 0.30656 0.0
C754 C 1.04918 0.68629 0.29614 0.0
C755 C 1.02716 0.70532 0.31508 0.0
C756 C 1.11114 0.62624 0.34773 0.0
C757 C 1.04356 0.69479 0.26499 0.0
H758 H 0.21091 0.68543 0.24501 0.0
H759 H 1.06141 0.53896 0.24186 0.0
H760 H 0.17228 0.7555 0.281 0.0
H761 H 0.1889 0.72696 0.31091 0.0
H762 H 0.23006 0.74782 0.27982 0.0
H763 H 0.99583 0.51177 0.27733 0.0
H764 H 1.01285 0.54804 0.30918 0.0
H765 H 0.98623 0.56818 0.27992 0.0
H766 H 1.06527 0.67083 0.37682 0.0
H767 H 1.00644 0.72586 0.30744 0.0
H768 H 0.15317 0.6481 0.34052 0.0
H769 H 1.09274 0.58535 0.33984 0.0
H770 H 1.11068 0.62355 0.37106 0.0
H771 H 1.08353 0.71753 0.25504 0.0
H772 H 1.0219 0.71685 0.26042 0.0
H773 H 1.02178 0.6557 0.25501 0.0
loop_
_geom_bond_atom_site_label_1
_geom_bond_atom_site_label_2
_geom_bond_distance
_geom_bond_site_symmetry_2
_ccdc_geom_bond_type
Tb0 C10 2.825 . S
Tb0 O11 2.347 . S
Tb0 O14 2.366 . S
Tb0 O19 2.418 . S
Tb0 O20 2.384 1_455 S
Tb0 O23 2.479 . S
Tb0 O24 2.471 . S
Eu1 O12 2.418 . S
Eu1 O13 2.384 1_655 S
Eu1 O16 2.479 . S
Eu1 O17 2.471 . S
Eu1 O18 2.347 . S
Eu1 O21 2.366 . S
Eu1 C31 2.825 . S
C2 O18 1.259 1_455 S
C2 O19 1.265 . S
C3 O20 1.255 . S
C3 O21 1.265 . S
C4 C6 1.380 . S
C4 C7 1.374 . S
C4 C10 1.507 . S
C5 C6 1.384 . S
C5 C9 1.387 . S
C5 H32 0.930 . S
C6 C4 1.380 . S
C6 C5 1.384 . S
C6 H33 0.931 . S
C7 C4 1.374 . S
C7 C8 1.390 . S
C7 H34 0.930 . S
C8 C7 1.390 . S
C8 C9 1.391 . S
C8 H35 0.930 . S
C9 C5 1.387 . S
C9 C8 1.391 . S
C10 Tb0 2.825 . S
C10 C4 1.507 . S
C10 O23 1.238 . S
C10 O24 1.247 . S
O11 Tb0 2.347 . S
O11 C15 1.259 . S
O12 Eu1 2.418 . S
O12 C15 1.265 1_655 S
O13 Eu1 2.384 1_455 S
O13 C22 1.255 . S
O14 Tb0 2.366 . S
O14 C22 1.265 . S
C15 O11 1.259 . S
C15 O12 1.265 1_455 S
O16 Eu1 2.479 . S
O16 C31 1.238 . S
O17 Eu1 2.471 . S
O17 C31 1.247 . S
O18 Eu1 2.347 . S
O18 C2 1.259 1_655 S
O19 Tb0 2.418 . S
O19 C2 1.265 . S
O20 Tb0 2.384 1_655 S
O20 C3 1.255 . S
O21 Eu1 2.366 . S
O21 C3 1.265 . S
C22 O13 1.255 . S
C22 O14 1.265 . S
O23 Tb0 2.479 . S
O23 C10 1.238 . S
O24 Tb0 2.471 . S
O24 C10 1.247 . S
C25 C28 1.380 . S
C25 C29 1.374 . S
C25 C31 1.507 . S
C26 C27 1.387 . S
C26 C30 1.391 . S
C27 C26 1.387 . S
C27 C28 1.384 . S
C27 H36 0.930 . S
C28 C25 1.380 . S
C28 C27 1.384 . S
C28 H37 0.931 . S
C29 C25 1.374 . S
C29 C30 1.390 . S
C29 H38 0.930 . S
C30 C26 1.391 . S
C30 C29 1.390 . S
C30 H39 0.930 . S
C31 Eu1 2.825 . S
C31 O16 1.238 . S
C31 O17 1.247 . S
C31 C25 1.507 . S
H32 C5 0.930 . S
H33 C6 0.931 . S
H34 C7 0.930 . S
H35 C8 0.930 . S
H36 C27 0.930 . S
H37 C28 0.931 . S
H38 C29 0.930 . S
H39 C30 0.930 . S
Tb40 C50 2.825 . S
Tb40 O51 2.347 . S
Tb40 O54 2.366 . S
Tb40 O59 2.418 . S
Tb40 O60 2.384 1_545 S
Tb40 O63 2.479 . S
Tb40 O64 2.471 . S
Eu41 O52 2.418 . S
Eu41 O53 2.384 . S
Eu41 O56 2.479 1_545 S
Eu41 O57 2.471 1_545 S
Eu41 O58 2.347 . S
Eu41 O61 2.366 1_545 S
Eu41 C71 2.825 1_545 S
C42 O58 1.259 . S
C42 O59 1.265 . S
C43 O60 1.255 . S
C43 O61 1.265 . S
C44 C46 1.380 . S
C44 C47 1.374 . S
C44 C50 1.507 . S
C45 C46 1.384 . S
C45 C49 1.387 . S
C45 H72 0.930 . S
C46 C44 1.380 . S
C46 C45 1.384 . S
C46 H73 0.931 . S
C47 C44 1.374 . S
C47 C48 1.390 . S
C47 H74 0.930 . S
C48 C47 1.390 . S
C48 C49 1.391 . S
C48 H75 0.930 . S
C49 C45 1.387 . S
C49 C48 1.391 . S
C50 Tb40 2.825 . S
C50 C44 1.507 . S
C50 O63 1.238 . S
C50 O64 1.247 . S
O51 Tb40 2.347 . S
O51 C55 1.259 . S
O52 Eu41 2.418 . S
O52 C55 1.265 . S
O53 Eu41 2.384 . S
O53 C62 1.255 . S
O54 Tb40 2.366 . S
O54 C62 1.265 . S
C55 O51 1.259 . S
C55 O52 1.265 . S
O56 Eu41 2.479 1_565 S
O56 C71 1.238 . S
O57 Eu41 2.471 1_565 S
O57 C71 1.247 . S
O58 Eu41 2.347 . S
O58 C42 1.259 . S
O59 Tb40 2.418 . S
O59 C42 1.265 . S
O60 Tb40 2.384 1_565 S
O60 C43 1.255 . S
O61 Eu41 2.366 1_565 S
O61 C43 1.265 . S
C62 O53 1.255 . S
C62 O54 1.265 . S
O63 Tb40 2.479 . S
O63 C50 1.238 . S
O64 Tb40 2.471 . S
O64 C50 1.247 . S
C65 C68 1.380 . S
C65 C69 1.374 . S
C65 C71 1.507 . S
C66 C67 1.387 . S
C66 C70 1.391 . S
C67 C66 1.387 . S
C67 C68 1.384 . S
C67 H76 0.930 . S
C68 C65 1.380 . S
C68 C67 1.384 . S
C68 H77 0.931 . S
C69 C65 1.374 . S
C69 C70 1.390 . S
C69 H78 0.930 . S
C70 C66 1.391 . S
C70 C69 1.390 . S
C70 H79 0.930 . S
C71 Eu41 2.825 1_565 S
C71 O56 1.238 . S
C71 O57 1.247 . S
C71 C65 1.507 . S
H72 C45 0.930 . S
H73 C46 0.931 . S
H74 C47 0.930 . S
H75 C48 0.930 . S
H76 C67 0.930 . S
H77 C68 0.931 . S
H78 C69 0.930 . S
H79 C70 0.930 . S
Tb80 C90 2.825 . S
Tb80 O91 2.347 . S
Tb80 O94 2.366 . S
Tb80 O99 2.418 . S
Tb80 O100 2.384 . S
Tb80 O103 2.479 . S
Tb80 O104 2.471 . S
Eu81 O92 2.418 . S
Eu81 O93 2.384 . S
Eu81 O96 2.479 . S
Eu81 O97 2.471 . S
Eu81 O98 2.347 . S
Eu81 O101 2.366 . S
Eu81 C111 2.825 . S
C82 O98 1.259 . S
C82 O99 1.265 . S
C83 O100 1.255 . S
C83 O101 1.265 . S
C84 C86 1.380 . S
C84 C87 1.374 . S
C84 C90 1.507 . S
C85 C86 1.384 . S
C85 C89 1.387 . S
C85 H112 0.930 . S
C86 C84 1.380 . S
C86 C85 1.384 . S
C86 H113 0.931 . S
C87 C84 1.374 . S
C87 C88 1.390 . S
C87 H114 0.930 . S
C88 C87 1.390 . S
C88 C89 1.391 . S
C88 H115 0.930 . S
C89 C85 1.387 . S
C89 C88 1.391 . S
C90 Tb80 2.825 . S
C90 C84 1.507 . S
C90 O103 1.238 . S
C90 O104 1.247 . S
O91 Tb80 2.347 . S
O91 C95 1.259 . S
O92 Eu81 2.418 . S
O92 C95 1.265 . S
O93 Eu81 2.384 . S
O93 C102 1.255 . S
O94 Tb80 2.366 . S
O94 C102 1.265 . S
C95 O91 1.259 . S
C95 O92 1.265 . S
O96 Eu81 2.479 . S
O96 C111 1.238 . S
O97 Eu81 2.471 . S
O97 C111 1.247 . S
O98 Eu81 2.347 . S
O98 C82 1.259 . S
O99 Tb80 2.418 . S
O99 C82 1.265 . S
O100 Tb80 2.384 . S
O100 C83 1.255 . S
O101 Eu81 2.366 . S
O101 C83 1.265 . S
C102 O93 1.255 . S
C102 O94 1.265 . S
O103 Tb80 2.479 . S
O103 C90 1.238 . S
O104 Tb80 2.471 . S
O104 C90 1.247 . S
C105 C108 1.380 . S
C105 C109 1.374 . S
C105 C111 1.507 . S
C106 C107 1.387 . S
C106 C110 1.391 . S
C107 C106 1.387 . S
C107 C108 1.384 . S
C107 H116 0.930 . S
C108 C105 1.380 . S
C108 C107 1.384 . S
C108 H117 0.931 . S
C109 C105 1.374 . S
C109 C110 1.390 . S
C109 H118 0.930 . S
C110 C106 1.391 . S
C110 C109 1.390 . S
C110 H119 0.930 . S
C111 Eu81 2.825 . S
C111 O96 1.238 . S
C111 O97 1.247 . S
C111 C105 1.507 . S
H112 C85 0.930 . S
H113 C86 0.931 . S
H114 C87 0.930 . S
H115 C88 0.930 . S
H116 C107 0.930 . S
H117 C108 0.931 . S
H118 C109 0.930 . S
H119 C110 0.930 . S
C120 N121 1.317 . S
C120 N122 1.348 1_545 S
C120 C123 1.485 . S
N121 C120 1.317 . S
N121 N125 1.370 . S
N122 C120 1.348 1_565 S
N122 C124 1.346 . S
C123 C120 1.485 . S
C123 H127 0.960 . S
C123 H128 0.961 1_545 S
C123 H129 0.960 . S
C124 N122 1.346 . S
C124 N125 1.307 1_565 S
C124 C126 1.486 . S
N125 N121 1.370 . S
N125 C124 1.307 1_545 S
C126 C124 1.486 . S
C126 H130 0.960 . S
C126 H131 0.960 . S
C126 H132 0.959 . S
H127 C123 0.960 . S
H128 C123 0.961 1_565 S
H129 C123 0.960 . S
H130 C126 0.960 . S
H131 C126 0.960 . S
H132 C126 0.959 . S
C133 N134 1.317 . S
C133 N135 1.348 . S
C133 C136 1.485 . S
N134 C133 1.317 . S
N134 N138 1.370 . S
N135 C133 1.348 . S
N135 C137 1.346 . S
C136 C133 1.485 . S
C136 H140 0.960 . S
C136 H141 0.961 . S
C136 H142 0.960 . S
C137 N135 1.346 . S
C137 N138 1.307 . S
C137 C139 1.486 . S
N138 N134 1.370 . S
N138 C137 1.307 . S
C139 C137 1.486 . S
C139 H143 0.960 . S
C139 H144 0.960 . S
C139 H145 0.959 . S
H140 C136 0.960 . S
H141 C136 0.961 . S
H142 C136 0.960 . S
H143 C139 0.960 . S
H144 C139 0.960 . S
H145 C139 0.959 . S
C146 N147 1.317 . S
C146 N148 1.348 1_455 S
C146 C149 1.485 . S
N147 C146 1.317 . S
N147 N151 1.370 . S
N148 C146 1.348 1_655 S
N148 C150 1.346 . S
C149 C146 1.485 . S
C149 H153 0.960 . S
C149 H154 0.961 . S
C149 H155 0.960 . S
C150 N148 1.346 . S
C150 N151 1.307 1_655 S
C150 C152 1.486 . S
N151 N147 1.370 . S
N151 C150 1.307 1_455 S
C152 C150 1.486 . S
C152 H156 0.960 . S
C152 H157 0.960 . S
C152 H158 0.959 . S
H153 C149 0.960 . S
H154 C149 0.961 . S
H155 C149 0.960 . S
H156 C152 0.960 . S
H157 C152 0.960 . S
H158 C152 0.959 . S
C159 N160 1.317 . S
C159 N161 1.348 . S
C159 C162 1.485 . S
N160 C159 1.317 . S
N160 N164 1.370 . S
N161 C159 1.348 . S
N161 C163 1.346 . S
C162 C159 1.485 . S
C162 H166 0.960 . S
C162 H167 0.961 . S
C162 H168 0.960 . S
C163 N161 1.346 . S
C163 N164 1.307 . S
C163 C165 1.486 . S
N164 N160 1.370 . S
N164 C163 1.307 . S
C165 C163 1.486 . S
C165 H169 0.960 . S
C165 H170 0.960 . S
C165 H171 0.959 . S
H166 C162 0.960 . S
H167 C162 0.961 . S
H168 C162 0.960 . S
H169 C165 0.960 . S
H170 C165 0.960 . S
H171 C165 0.959 . S
C172 N173 1.317 . S
C172 N174 1.348 . S
C172 C175 1.485 . S
N173 C172 1.317 . S
N173 N177 1.370 . S
N174 C172 1.348 . S
N174 C176 1.346 . S
C175 C172 1.485 . S
C175 H179 0.960 . S
C175 H180 0.961 . S
C175 H181 0.960 . S
C176 N174 1.346 . S
C176 N177 1.307 . S
C176 C178 1.486 . S
N177 N173 1.370 . S
N177 C176 1.307 . S
C178 C176 1.486 . S
C178 H182 0.960 . S
C178 H183 0.960 . S
C178 H184 0.959 . S
H179 C175 0.960 . S
H180 C175 0.961 . S
H181 C175 0.960 . S
H182 C178 0.960 . S
H183 C178 0.960 . S
H184 C178 0.959 . S
C185 N186 1.317 . S
C185 N187 1.348 . S
C185 C188 1.485 . S
N186 C185 1.317 . S
N186 N190 1.370 . S
N187 C185 1.348 . S
N187 C189 1.346 . S
C188 C185 1.485 . S
C188 H192 0.960 . S
C188 H193 0.961 . S
C188 H194 0.960 . S
C189 N187 1.346 . S
C189 N190 1.307 . S
C189 C191 1.486 . S
N190 N186 1.370 . S
N190 C189 1.307 . S
C191 C189 1.486 . S
C191 H195 0.960 . S
C191 H196 0.960 . S
C191 H197 0.959 . S
H192 C188 0.960 . S
H193 C188 0.961 . S
H194 C188 0.960 . S
H195 C191 0.960 . S
H196 C191 0.960 . S
H197 C191 0.959 . S
C198 C199 1.391 . S
C198 C200 1.394 . S
C198 H214 0.931 . S
C199 C198 1.391 . S
C199 C203 1.376 . S
C200 C198 1.394 . S
C200 C201 1.369 . S
C200 C204 1.531 . S
C201 C200 1.369 . S
C201 C202 1.410 . S
C201 C209 1.503 . S
C202 C201 1.410 . S
C202 C203 1.392 . S
C202 C205 1.511 . S
C203 C199 1.376 . S
C203 C202 1.392 . S
C203 H215 0.929 . S
C204 C200 1.531 . S
C204 H216 0.960 . S
C204 H217 0.962 . S
C204 H218 0.960 . S
C205 C202 1.511 . S
C205 H219 0.961 . S
C205 H220 0.961 . S
C205 H221 0.961 . S
C206 C207 1.370 . S
C206 C208 1.363 . S
C206 H222 0.931 . S
C207 C206 1.370 . S
C207 C211 1.408 . S
C208 C206 1.363 . S
C208 C209 1.370 . S
C208 C212 1.524 . S
C209 C201 1.503 . S
C209 C208 1.370 . S
C209 C210 1.403 . S
C210 C209 1.403 . S
C210 C211 1.404 . S
C210 C213 1.539 . S
C211 C207 1.408 . S
C211 C210 1.404 . S
C211 H223 0.930 . S
C212 C208 1.524 . S
C212 H224 0.956 . S
C212 H225 0.961 . S
C212 H226 0.961 . S
C213 C210 1.539 . S
C213 H227 0.958 . S
C213 H228 0.961 . S
C213 H229 0.960 . S
H214 C198 0.931 . S
H215 C203 0.929 . S
H216 C204 0.960 . S
H217 C204 0.962 . S
H218 C204 0.960 . S
H219 C205 0.961 . S
H220 C205 0.961 . S
H221 C205 0.961 . S
H222 C206 0.931 . S
H223 C211 0.930 . S
H224 C212 0.956 . S
H225 C212 0.961 . S
H226 C212 0.961 . S
H227 C213 0.958 . S
H228 C213 0.961 . S
H229 C213 0.960 . S
C230 C231 1.391 . S
C230 C232 1.394 . S
C230 H246 0.931 . S
C231 C230 1.391 . S
C231 C235 1.376 . S
C232 C230 1.394 . S
C232 C233 1.369 . S
C232 C236 1.531 . S
C233 C232 1.369 . S
C233 C234 1.410 . S
C233 C241 1.503 . S
C234 C233 1.410 . S
C234 C235 1.392 . S
C234 C237 1.511 . S
C235 C231 1.376 . S
C235 C234 1.392 . S
C235 H247 0.929 . S
C236 C232 1.531 . S
C236 H248 0.960 . S
C236 H249 0.962 . S
C236 H250 0.960 . S
C237 C234 1.511 . S
C237 H251 0.961 . S
C237 H252 0.961 . S
C237 H253 0.961 . S
C238 C239 1.373 . S
C238 C240 1.366 . S
C238 H254 0.925 1_655 S
C239 C238 1.373 . S
C239 C243 1.408 . S
C240 C238 1.366 . S
C240 C241 1.370 . S
C240 C244 1.524 . S
C241 C233 1.503 . S
C241 C240 1.370 . S
C241 C242 1.403 . S
C242 C241 1.403 . S
C242 C243 1.404 . S
C242 C245 1.539 . S
C243 C239 1.408 . S
C243 C242 1.404 . S
C243 H255 0.930 . S
C244 C240 1.524 . S
C244 H256 0.956 . S
C244 H257 0.961 . S
C244 H258 0.964 . S
C245 C242 1.539 . S
C245 H259 0.958 . S
C245 H260 0.961 . S
C245 H261 0.960 . S
H246 C230 0.931 . S
H247 C235 0.929 . S
H248 C236 0.960 . S
H249 C236 0.962 . S
H250 C236 0.960 . S
H251 C237 0.961 . S
H252 C237 0.961 . S
H253 C237 0.961 . S
H254 C238 0.925 1_455 S
H255 C243 0.930 . S
H256 C244 0.956 . S
H257 C244 0.961 . S
H258 C244 0.964 . S
H259 C245 0.958 . S
H260 C245 0.961 . S
H261 C245 0.960 . S
C262 C263 1.391 . S
C262 C264 1.394 . S
C262 H278 0.931 . S
C263 C262 1.391 . S
C263 C267 1.376 . S
C264 C262 1.394 . S
C264 C265 1.369 . S
C264 C268 1.531 . S
C265 C264 1.369 . S
C265 C266 1.410 . S
C265 C273 1.503 . S
C266 C265 1.410 . S
C266 C267 1.392 . S
C266 C269 1.511 . S
C267 C263 1.376 . S
C267 C266 1.392 . S
C267 H279 0.929 . S
C268 C264 1.531 . S
C268 H280 0.960 . S
C268 H281 0.962 . S
C268 H282 0.960 . S
C269 C266 1.511 . S
C269 H283 0.961 . S
C269 H284 0.961 . S
C269 H285 0.961 . S
C270 C271 1.370 1_565 S
C270 C272 1.363 . S
C270 H286 0.931 . S
C271 C270 1.370 1_545 S
C271 C275 1.408 . S
C272 C270 1.363 . S
C272 C273 1.370 . S
C272 C276 1.524 . S
C273 C265 1.503 . S
C273 C272 1.370 . S
C273 C274 1.403 . S
C274 C273 1.403 . S
C274 C275 1.404 1_565 S
C274 C277 1.539 1_565 S
C275 C271 1.408 . S
C275 C274 1.404 1_545 S
C275 H287 0.930 . S
C276 C272 1.524 . S
C276 H288 0.956 . S
C276 H289 0.961 . S
C276 H290 0.961 . S
C277 C274 1.539 1_545 S
C277 H291 0.958 . S
C277 H292 0.961 . S
C277 H293 0.960 1_545 S
H278 C262 0.931 . S
H279 C267 0.929 . S
H280 C268 0.960 . S
H281 C268 0.962 . S
H282 C268 0.960 . S
H283 C269 0.961 . S
H284 C269 0.961 . S
H285 C269 0.961 . S
H286 C270 0.931 . S
H287 C275 0.930 . S
H288 C276 0.956 . S
H289 C276 0.961 . S
H290 C276 0.961 . S
H291 C277 0.958 . S
H292 C277 0.961 . S
H293 C277 0.960 1_565 S
C294 C295 1.391 . S
C294 C296 1.394 . S
C294 H310 0.931 . S
C295 C294 1.391 . S
C295 C299 1.376 . S
C296 C294 1.394 . S
C296 C297 1.369 . S
C296 C300 1.531 . S
C297 C296 1.369 . S
C297 C298 1.410 . S
C297 C305 1.503 . S
C298 C297 1.410 . S
C298 C299 1.392 . S
C298 C301 1.511 . S
C299 C295 1.376 . S
C299 C298 1.392 . S
C299 H311 0.929 . S
C300 C296 1.531 . S
C300 H312 0.960 . S
C300 H313 0.962 . S
C300 H314 0.960 . S
C301 C298 1.511 . S
C301 H315 0.961 . S
C301 H316 0.961 . S
C301 H317 0.961 . S
C302 C303 1.370 . S
C302 C304 1.363 . S
C302 H318 0.931 . S
C303 C302 1.370 . S
C303 C307 1.408 . S
C304 C302 1.363 . S
C304 C305 1.370 . S
C304 C308 1.524 . S
C305 C297 1.503 . S
C305 C304 1.370 . S
C305 C306 1.403 . S
C306 C305 1.403 . S
C306 C307 1.404 . S
C306 C309 1.539 . S
C307 C303 1.408 . S
C307 C306 1.404 . S
C307 H319 0.930 . S
C308 C304 1.524 . S
C308 H320 0.956 . S
C308 H321 0.961 . S
C308 H322 0.961 . S
C309 C306 1.539 . S
C309 H323 0.958 . S
C309 H324 0.961 . S
C309 H325 0.960 . S
H310 C294 0.931 . S
H311 C299 0.929 . S
H312 C300 0.960 . S
H313 C300 0.962 . S
H314 C300 0.960 . S
H315 C301 0.961 . S
H316 C301 0.961 . S
H317 C301 0.961 . S
H318 C302 0.931 . S
H319 C307 0.930 . S
H320 C308 0.956 . S
H321 C308 0.961 . S
H322 C308 0.961 . S
H323 C309 0.958 . S
H324 C309 0.961 . S
H325 C309 0.960 . S
C326 C327 1.391 . S
C326 C328 1.394 . S
C326 H342 0.931 . S
C327 C326 1.391 . S
C327 C331 1.376 . S
C328 C326 1.394 . S
C328 C329 1.369 . S
C328 C332 1.531 . S
C329 C328 1.369 . S
C329 C330 1.410 . S
C329 C337 1.503 . S
C330 C329 1.410 . S
C330 C331 1.392 . S
C330 C333 1.511 . S
C331 C327 1.376 . S
C331 C330 1.392 . S
C331 H343 0.929 . S
C332 C328 1.531 . S
C332 H344 0.960 . S
C332 H345 0.962 . S
C332 H346 0.960 . S
C333 C330 1.511 . S
C333 H347 0.961 . S
C333 H348 0.961 . S
C333 H349 0.961 . S
C334 C335 1.370 . S
C334 C336 1.363 . S
C334 H350 0.931 . S
C335 C334 1.370 . S
C335 C339 1.408 . S
C336 C334 1.363 . S
C336 C337 1.370 . S
C336 C340 1.524 . S
C337 C329 1.503 . S
C337 C336 1.370 . S
C337 C338 1.403 . S
C338 C337 1.403 . S
C338 C339 1.404 . S
C338 C341 1.539 . S
C339 C335 1.408 . S
C339 C338 1.404 . S
C339 H351 0.930 . S
C340 C336 1.524 . S
C340 H352 0.956 . S
C340 H353 0.961 . S
C340 H354 0.961 . S
C341 C338 1.539 . S
C341 H355 0.958 . S
C341 H356 0.961 . S
C341 H357 0.960 . S
H342 C326 0.931 . S
H343 C331 0.929 . S
H344 C332 0.960 . S
H345 C332 0.962 . S
H346 C332 0.960 . S
H347 C333 0.961 . S
H348 C333 0.961 . S
H349 C333 0.961 . S
H350 C334 0.931 . S
H351 C339 0.930 . S
H352 C340 0.956 . S
H353 C340 0.961 . S
H354 C340 0.961 . S
H355 C341 0.958 . S
H356 C341 0.961 . S
H357 C341 0.960 . S
C358 C359 1.391 . S
C358 C360 1.394 . S
C358 H374 0.931 . S
C359 C358 1.391 . S
C359 C363 1.376 . S
C360 C358 1.394 . S
C360 C361 1.369 . S
C360 C364 1.531 . S
C361 C360 1.369 . S
C361 C362 1.410 . S
C361 C369 1.503 . S
C362 C361 1.410 . S
C362 C363 1.392 . S
C362 C365 1.511 . S
C363 C359 1.376 . S
C363 C362 1.392 . S
C363 H375 0.929 . S
C364 C360 1.531 . S
C364 H376 0.960 . S
C364 H377 0.962 . S
C364 H378 0.960 . S
C365 C362 1.511 . S
C365 H379 0.961 . S
C365 H380 0.961 . S
C365 H381 0.961 . S
C366 C367 1.370 . S
C366 C368 1.363 . S
C366 H382 0.931 . S
C367 C366 1.370 . S
C367 C371 1.408 . S
C368 C366 1.363 . S
C368 C369 1.370 . S
C368 C372 1.524 . S
C369 C361 1.503 . S
C369 C368 1.370 . S
C369 C370 1.403 . S
C370 C369 1.403 . S
C370 C371 1.404 . S
C370 C373 1.539 . S
C371 C367 1.408 . S
C371 C370 1.404 . S
C371 H383 0.930 . S
C372 C368 1.524 . S
C372 H384 0.956 . S
C372 H385 0.961 . S
C372 H386 0.961 . S
C373 C370 1.539 . S
C373 H387 0.958 . S
C373 H388 0.961 . S
C373 H389 0.960 . S
H374 C358 0.931 . S
H375 C363 0.929 . S
H376 C364 0.960 . S
H377 C364 0.962 . S
H378 C364 0.960 . S
H379 C365 0.961 . S
H380 C365 0.961 . S
H381 C365 0.961 . S
H382 C366 0.931 . S
H383 C371 0.930 . S
H384 C372 0.956 . S
H385 C372 0.961 . S
H386 C372 0.961 . S
H387 C373 0.958 . S
H388 C373 0.961 . S
H389 C373 0.960 . S
C390 C391 1.391 . S
C390 C392 1.394 . S
C390 H406 0.931 . S
C391 C390 1.391 . S
C391 C395 1.376 . S
C392 C390 1.394 . S
C392 C393 1.369 . S
C392 C396 1.531 . S
C393 C392 1.369 . S
C393 C394 1.410 . S
C393 C401 1.503 . S
C394 C393 1.410 . S
C394 C395 1.392 . S
C394 C397 1.511 . S
C395 C391 1.376 . S
C395 C394 1.392 . S
C395 H407 0.929 . S
C396 C392 1.531 . S
C396 H408 0.960 . S
C396 H409 0.962 . S
C396 H410 0.960 . S
C397 C394 1.511 . S
C397 H411 0.961 . S
C397 H412 0.961 . S
C397 H413 0.961 . S
C398 C399 1.370 . S
C398 C400 1.363 . S
C398 H414 0.931 . S
C399 C398 1.370 . S
C399 C403 1.408 . S
C400 C398 1.363 . S
C400 C401 1.370 . S
C400 C404 1.524 . S
C401 C393 1.503 . S
C401 C400 1.370 . S
C401 C402 1.403 . S
C402 C401 1.403 . S
C402 C403 1.404 . S
C402 C405 1.539 . S
C403 C399 1.408 . S
C403 C402 1.404 . S
C403 H415 0.930 . S
C404 C400 1.524 . S
C404 H416 0.956 . S
C404 H417 0.961 . S
C404 H418 0.961 . S
C405 C402 1.539 . S
C405 H419 0.958 . S
C405 H420 0.961 . S
C405 H421 0.960 . S
H406 C390 0.931 . S
H407 C395 0.929 . S
H408 C396 0.960 . S
H409 C396 0.962 . S
H410 C396 0.960 . S
H411 C397 0.961 . S
H412 C397 0.961 . S
H413 C397 0.961 . S
H414 C398 0.931 . S
H415 C403 0.930 . S
H416 C404 0.956 . S
H417 C404 0.961 . S
H418 C404 0.961 . S
H419 C405 0.958 . S
H420 C405 0.961 . S
H421 C405 0.960 . S
C422 C423 1.391 . S
C422 C424 1.394 . S
C422 H438 0.931 . S
C423 C422 1.391 . S
C423 C427 1.376 . S
C424 C422 1.394 . S
C424 C425 1.369 . S
C424 C428 1.531 . S
C425 C424 1.369 . S
C425 C426 1.410 . S
C425 C433 1.503 . S
C426 C425 1.410 . S
C426 C427 1.392 . S
C426 C429 1.511 . S
C427 C423 1.376 . S
C427 C426 1.392 . S
C427 H439 0.929 . S
C428 C424 1.531 . S
C428 H440 0.960 . S
C428 H441 0.962 . S
C428 H442 0.960 . S
C429 C426 1.511 . S
C429 H443 0.961 . S
C429 H444 0.961 . S
C429 H445 0.961 . S
C430 C431 1.370 . S
C430 C432 1.363 . S
C430 H446 0.931 . S
C431 C430 1.370 . S
C431 C435 1.408 . S
C432 C430 1.363 . S
C432 C433 1.370 . S
C432 C436 1.524 . S
C433 C425 1.503 . S
C433 C432 1.370 . S
C433 C434 1.403 . S
C434 C433 1.403 . S
C434 C435 1.404 . S
C434 C437 1.539 . S
C435 C431 1.408 . S
C435 C434 1.404 . S
C435 H447 0.930 . S
C436 C432 1.524 . S
C436 H448 0.956 . S
C436 H449 0.961 . S
C436 H450 0.961 . S
C437 C434 1.539 . S
C437 H451 0.958 . S
C437 H452 0.961 . S
C437 H453 0.960 . S
H438 C422 0.931 . S
H439 C427 0.929 . S
H440 C428 0.960 . S
H441 C428 0.962 . S
H442 C428 0.960 . S
H443 C429 0.961 . S
H444 C429 0.961 . S
H445 C429 0.961 . S
H446 C430 0.931 . S
H447 C435 0.930 . S
H448 C436 0.956 . S
H449 C436 0.961 . S
H450 C436 0.961 . S
H451 C437 0.958 . S
H452 C437 0.961 . S
H453 C437 0.960 . S
C454 C455 1.391 . S
C454 C456 1.394 . S
C454 H470 0.931 . S
C455 C454 1.391 . S
C455 C459 1.376 . S
C456 C454 1.394 . S
C456 C457 1.369 . S
C456 C460 1.531 . S
C457 C456 1.369 . S
C457 C458 1.410 . S
C457 C465 1.503 . S
C458 C457 1.410 . S
C458 C459 1.392 . S
C458 C461 1.511 . S
C459 C455 1.376 . S
C459 C458 1.392 . S
C459 H471 0.929 . S
C460 C456 1.531 . S
C460 H472 0.960 . S
C460 H473 0.962 . S
C460 H474 0.960 . S
C461 C458 1.511 . S
C461 H475 0.961 . S
C461 H476 0.961 . S
C461 H477 0.961 . S
C462 C463 1.370 . S
C462 C464 1.363 . S
C462 H478 0.931 . S
C463 C462 1.370 . S
C463 C467 1.408 . S
C464 C462 1.363 . S
C464 C465 1.370 . S
C464 C468 1.524 . S
C465 C457 1.503 . S
C465 C464 1.370 . S
C465 C466 1.403 . S
C466 C465 1.403 . S
C466 C467 1.404 . S
C466 C469 1.539 . S
C467 C463 1.408 . S
C467 C466 1.404 . S
C467 H479 0.930 . S
C468 C464 1.524 . S
C468 H480 0.956 . S
C468 H481 0.961 . S
C468 H482 0.961 . S
C469 C466 1.539 . S
C469 H483 0.958 . S
C469 H484 0.961 . S
C469 H485 0.960 . S
H470 C454 0.931 . S
H471 C459 0.929 . S
H472 C460 0.960 . S
H473 C460 0.962 . S
H474 C460 0.960 . S
H475 C461 0.961 . S
H476 C461 0.961 . S
H477 C461 0.961 . S
H478 C462 0.931 . S
H479 C467 0.930 . S
H480 C468 0.956 . S
H481 C468 0.961 . S
H482 C468 0.961 . S
H483 C469 0.958 . S
H484 C469 0.961 . S
H485 C469 0.960 . S
C486 C487 1.391 . S
C486 C488 1.394 . S
C486 H502 0.931 . S
C487 C486 1.391 . S
C487 C491 1.376 . S
C488 C486 1.394 . S
C488 C489 1.369 . S
C488 C492 1.531 . S
C489 C488 1.369 . S
C489 C490 1.410 . S
C489 C497 1.503 . S
C490 C489 1.410 . S
C490 C491 1.392 . S
C490 C493 1.511 . S
C491 C487 1.376 . S
C491 C490 1.392 . S
C491 H503 0.929 . S
C492 C488 1.531 . S
C492 H504 0.960 . S
C492 H505 0.962 . S
C492 H506 0.960 . S
C493 C490 1.511 . S
C493 H507 0.961 . S
C493 H508 0.961 . S
C493 H509 0.961 . S
C494 C495 1.370 . S
C494 C496 1.363 . S
C494 H510 0.931 . S
C495 C494 1.370 . S
C495 C499 1.408 . S
C496 C494 1.363 . S
C496 C497 1.370 . S
C496 C500 1.524 . S
C497 C489 1.503 . S
C497 C496 1.370 . S
C497 C498 1.403 . S
C498 C497 1.403 . S
C498 C499 1.404 . S
C498 C501 1.539 . S
C499 C495 1.408 . S
C499 C498 1.404 . S
C499 H511 0.930 . S
C500 C496 1.524 . S
C500 H512 0.956 . S
C500 H513 0.961 . S
C500 H514 0.961 . S
C501 C498 1.539 . S
C501 H515 0.958 . S
C501 H516 0.961 . S
C501 H517 0.960 . S
H502 C486 0.931 . S
H503 C491 0.929 . S
H504 C492 0.960 . S
H505 C492 0.962 . S
H506 C492 0.960 . S
H507 C493 0.961 . S
H508 C493 0.961 . S
H509 C493 0.961 . S
H510 C494 0.931 . S
H511 C499 0.930 . S
H512 C500 0.956 . S
H513 C500 0.961 . S
H514 C500 0.961 . S
H515 C501 0.958 . S
H516 C501 0.961 . S
H517 C501 0.960 . S
C518 C519 1.391 . S
C518 C520 1.394 . S
C518 H534 0.931 . S
C519 C518 1.391 . S
C519 C523 1.376 . S
C520 C518 1.394 . S
C520 C521 1.369 . S
C520 C524 1.531 . S
C521 C520 1.369 . S
C521 C522 1.410 . S
C521 C529 1.503 . S
C522 C521 1.410 . S
C522 C523 1.392 . S
C522 C525 1.511 . S
C523 C519 1.376 . S
C523 C522 1.392 . S
C523 H535 0.929 . S
C524 C520 1.531 . S
C524 H536 0.960 . S
C524 H537 0.962 . S
C524 H538 0.960 . S
C525 C522 1.511 . S
C525 H539 0.961 . S
C525 H540 0.961 . S
C525 H541 0.961 . S
C526 C527 1.370 . S
C526 C528 1.363 . S
C526 H542 0.931 . S
C527 C526 1.370 . S
C527 C531 1.408 . S
C528 C526 1.363 . S
C528 C529 1.370 . S
C528 C532 1.524 . S
C529 C521 1.503 . S
C529 C528 1.370 . S
C529 C530 1.403 . S
C530 C529 1.403 . S
C530 C531 1.404 . S
C530 C533 1.539 . S
C531 C527 1.408 . S
C531 C530 1.404 . S
C531 H543 0.930 . S
C532 C528 1.524 . S
C532 H544 0.956 . S
C532 H545 0.961 . S
C532 H546 0.961 . S
C533 C530 1.539 . S
C533 H547 0.958 . S
C533 H548 0.961 . S
C533 H549 0.960 . S
H534 C518 0.931 . S
H535 C523 0.929 . S
H536 C524 0.960 . S
H537 C524 0.962 . S
H538 C524 0.960 . S
H539 C525 0.961 . S
H540 C525 0.961 . S
H541 C525 0.961 . S
H542 C526 0.931 . S
H543 C531 0.930 . S
H544 C532 0.956 . S
H545 C532 0.961 . S
H546 C532 0.961 . S
H547 C533 0.958 . S
H548 C533 0.961 . S
H549 C533 0.960 . S
C550 C551 1.391 . S
C550 C552 1.394 . S
C550 H566 0.931 . S
C551 C550 1.391 . S
C551 C555 1.376 . S
C552 C550 1.394 . S
C552 C553 1.369 . S
C552 C556 1.531 . S
C553 C552 1.369 . S
C553 C554 1.410 . S
C553 C561 1.503 . S
C554 C553 1.410 . S
C554 C555 1.392 . S
C554 C557 1.511 . S
C555 C551 1.376 . S
C555 C554 1.392 . S
C555 H567 0.929 . S
C556 C552 1.531 . S
C556 H568 0.960 . S
C556 H569 0.962 . S
C556 H570 0.960 . S
C557 C554 1.511 . S
C557 H571 0.961 . S
C557 H572 0.961 . S
C557 H573 0.961 . S
C558 C559 1.370 . S
C558 C560 1.363 . S
C558 H574 0.931 . S
C559 C558 1.370 . S
C559 C563 1.408 . S
C560 C558 1.363 . S
C560 C561 1.370 . S
C560 C564 1.524 . S
C561 C553 1.503 . S
C561 C560 1.370 . S
C561 C562 1.403 . S
C562 C561 1.403 . S
C562 C563 1.404 . S
C562 C565 1.539 . S
C563 C559 1.408 . S
C563 C562 1.404 . S
C563 H575 0.930 . S
C564 C560 1.524 . S
C564 H576 0.956 . S
C564 H577 0.961 . S
C564 H578 0.961 . S
C565 C562 1.539 . S
C565 H579 0.958 . S
C565 H580 0.961 . S
C565 H581 0.960 . S
H566 C550 0.931 . S
H567 C555 0.929 . S
H568 C556 0.960 . S
H569 C556 0.962 . S
H570 C556 0.960 . S
H571 C557 0.961 . S
H572 C557 0.961 . S
H573 C557 0.961 . S
H574 C558 0.931 . S
H575 C563 0.930 . S
H576 C564 0.956 . S
H577 C564 0.961 . S
H578 C564 0.961 . S
H579 C565 0.958 . S
H580 C565 0.961 . S
H581 C565 0.960 . S
C582 C583 1.391 . S
C582 C584 1.394 . S
C582 H598 0.931 . S
C583 C582 1.391 . S
C583 C587 1.376 1_455 S
C584 C582 1.394 . S
C584 C585 1.369 . S
C584 C588 1.531 . S
C585 C584 1.369 . S
C585 C586 1.410 1_455 S
C585 C593 1.503 1_554 S
C586 C585 1.410 1_655 S
C586 C587 1.392 . S
C586 C589 1.511 . S
C587 C583 1.376 1_655 S
C587 C586 1.392 . S
C587 H599 0.929 . S
C588 C584 1.531 . S
C588 H600 0.960 . S
C588 H601 0.962 . S
C588 H602 0.960 . S
C589 C586 1.511 . S
C589 H603 0.961 . S
C589 H604 0.961 1_554 S
C589 H605 0.961 . S
C590 C591 1.370 . S
C590 C592 1.363 . S
C590 H606 0.931 . S
C591 C590 1.370 . S
C591 C595 1.408 . S
C592 C590 1.363 . S
C592 C593 1.370 . S
C592 C596 1.539 . S
C593 C585 1.503 1_556 S
C593 C592 1.370 . S
C593 C594 1.403 . S
C594 C593 1.403 . S
C594 C595 1.404 . S
C594 C597 1.539 . S
C595 C591 1.408 . S
C595 C594 1.404 . S
C595 H607 0.930 . S
C596 C592 1.539 . S
C596 H608 0.967 1_556 S
C596 H609 0.949 1_456 S
C596 H610 0.948 1_455 S
C597 C594 1.539 . S
C597 H611 0.958 . S
C597 H612 0.961 . S
C597 H613 0.938 1_556 S
H598 C582 0.931 . S
H599 C587 0.929 . S
H600 C588 0.960 . S
H601 C588 0.962 . S
H602 C588 0.960 . S
H603 C589 0.961 . S
H604 C589 0.961 1_556 S
H605 C589 0.961 . S
H606 C590 0.931 . S
H607 C595 0.930 . S
H608 C596 0.967 1_554 S
H609 C596 0.949 1_654 S
H610 C596 0.948 1_655 S
H611 C597 0.958 . S
H612 C597 0.961 . S
H613 C597 0.938 1_554 S
C614 C615 1.391 . S
C614 C616 1.394 . S
C614 H630 0.931 . S
C615 C614 1.391 . S
C615 C619 1.376 . S
C616 C614 1.394 . S
C616 C617 1.369 . S
C616 C620 1.531 . S
C617 C616 1.369 . S
C617 C618 1.410 . S
C617 C625 1.503 . S
C618 C617 1.410 . S
C618 C619 1.392 . S
C618 C621 1.511 . S
C619 C615 1.376 . S
C619 C618 1.392 . S
C619 H631 0.929 . S
C620 C616 1.531 . S
C620 H632 0.960 1_545 S
C620 H633 0.962 . S
C620 H634 0.960 1_545 S
C621 C618 1.511 . S
C621 H635 0.961 . S
C621 H636 0.961 . S
C621 H637 0.961 . S
C622 C623 1.370 . S
C622 C624 1.363 . S
C622 H638 0.931 . S
C623 C622 1.370 . S
C623 C627 1.408 1_545 S
C624 C622 1.363 . S
C624 C625 1.370 . S
C624 C628 1.524 . S
C625 C617 1.503 . S
C625 C624 1.370 . S
C625 C626 1.403 1_545 S
C626 C625 1.403 1_565 S
C626 C627 1.404 . S
C626 C629 1.539 . S
C627 C623 1.408 1_565 S
C627 C626 1.404 . S
C627 H639 0.930 . S
C628 C624 1.524 . S
C628 H640 0.956 . S
C628 H641 0.961 . S
C628 H642 0.961 . S
C629 C626 1.539 . S
C629 H643 0.958 . S
C629 H644 0.961 . S
C629 H645 0.960 . S
H630 C614 0.931 . S
H631 C619 0.929 . S
H632 C620 0.960 1_565 S
H633 C620 0.962 . S
H634 C620 0.960 1_565 S
H635 C621 0.961 . S
H636 C621 0.961 . S
H637 C621 0.961 . S
H638 C622 0.931 . S
H639 C627 0.930 . S
H640 C628 0.956 . S
H641 C628 0.961 . S
H642 C628 0.961 . S
H643 C629 0.958 . S
H644 C629 0.961 . S
H645 C629 0.960 . S
C646 C647 1.391 . S
C646 C648 1.394 . S
C646 H662 0.931 . S
C647 C646 1.391 . S
C647 C651 1.376 . S
C648 C646 1.394 . S
C648 C649 1.369 . S
C648 C652 1.531 . S
C649 C648 1.369 . S
C649 C650 1.410 . S
C649 C657 1.503 . S
C650 C649 1.410 . S
C650 C651 1.392 . S
C650 C653 1.511 . S
C651 C647 1.376 . S
C651 C650 1.392 . S
C651 H663 0.929 . S
C652 C648 1.531 . S
C652 H664 0.960 . S
C652 H665 0.962 . S
C652 H666 0.960 . S
C653 C650 1.511 . S
C653 H667 0.961 . S
C653 H668 0.961 . S
C653 H669 0.961 . S
C654 C655 1.370 . S
C654 C656 1.363 . S
C654 H670 0.931 . S
C655 C654 1.370 . S
C655 C659 1.408 . S
C656 C654 1.363 . S
C656 C657 1.370 . S
C656 C660 1.524 . S
C657 C649 1.503 . S
C657 C656 1.370 . S
C657 C658 1.403 . S
C658 C657 1.403 . S
C658 C659 1.404 . S
C658 C661 1.539 . S
C659 C655 1.408 . S
C659 C658 1.404 . S
C659 H671 0.930 . S
C660 C656 1.524 . S
C660 H672 0.956 . S
C660 H673 0.961 . S
C660 H674 0.961 . S
C661 C658 1.539 . S
C661 H675 0.958 . S
C661 H676 0.961 . S
C661 H677 0.960 . S
H662 C646 0.931 . S
H663 C651 0.929 . S
H664 C652 0.960 . S
H665 C652 0.962 . S
H666 C652 0.960 . S
H667 C653 0.961 . S
H668 C653 0.961 . S
H669 C653 0.961 . S
H670 C654 0.931 . S
H671 C659 0.930 . S
H672 C660 0.956 . S
H673 C660 0.961 . S
H674 C660 0.961 . S
H675 C661 0.958 . S
H676 C661 0.961 . S
H677 C661 0.960 . S
C678 C679 1.385 1_565 S
C678 C680 1.392 . S
C678 H694 0.937 . S
C679 C678 1.385 1_545 S
C679 C683 1.376 . S
C680 C678 1.392 . S
C680 C681 1.369 1_565 S
C680 C684 1.531 . S
C681 C680 1.369 1_545 S
C681 C682 1.410 . S
C681 C689 1.503 . S
C682 C681 1.410 . S
C682 C683 1.392 . S
C682 C685 1.511 . S
C683 C679 1.376 . S
C683 C682 1.392 . S
C683 H695 0.929 . S
C684 C680 1.531 . S
C684 H696 0.960 . S
C684 H697 0.962 . S
C684 H698 0.960 . S
C685 C682 1.511 . S
C685 H699 0.961 . S
C685 H700 0.961 . S
C685 H701 0.961 . S
C686 C687 1.370 . S
C686 C688 1.363 . S
C686 H702 0.931 . S
C687 C686 1.370 . S
C687 C691 1.408 . S
C688 C686 1.363 . S
C688 C689 1.370 . S
C688 C692 1.524 . S
C689 C681 1.503 . S
C689 C688 1.370 . S
C689 C690 1.403 . S
C690 C689 1.403 . S
C690 C691 1.404 . S
C690 C693 1.539 1_545 S
C691 C687 1.408 . S
C691 C690 1.404 . S
C691 H703 0.930 . S
C692 C688 1.524 . S
C692 H704 0.956 . S
C692 H705 0.961 . S
C692 H706 0.961 . S
C693 C690 1.539 1_565 S
C693 H707 0.958 . S
C693 H708 0.961 1_565 S
C693 H709 0.960 1_565 S
H694 C678 0.937 . S
H695 C683 0.929 . S
H696 C684 0.960 . S
H697 C684 0.962 . S
H698 C684 0.960 . S
H699 C685 0.961 . S
H700 C685 0.961 . S
H701 C685 0.961 . S
H702 C686 0.931 . S
H703 C691 0.930 . S
H704 C692 0.956 . S
H705 C692 0.961 . S
H706 C692 0.961 . S
H707 C693 0.958 . S
H708 C693 0.961 1_545 S
H709 C693 0.960 1_545 S
C710 C711 1.391 . S
C710 C712 1.394 . S
C710 H726 0.931 . S
C711 C710 1.391 . S
C711 C715 1.376 . S
C712 C710 1.394 . S
C712 C713 1.369 . S
C712 C716 1.531 . S
C713 C712 1.369 . S
C713 C714 1.410 . S
C713 C721 1.503 1_556 S
C714 C713 1.410 . S
C714 C715 1.392 . S
C714 C717 1.511 . S
C715 C711 1.376 . S
C715 C714 1.392 . S
C715 H727 0.929 . S
C716 C712 1.531 . S
C716 H728 0.960 . S
C716 H729 0.962 . S
C716 H730 0.960 . S
C717 C714 1.511 . S
C717 H731 0.961 . S
C717 H732 0.997 . S
C717 H733 0.961 . S
C718 C719 1.370 . S
C718 C720 1.363 . S
C718 H734 0.931 . S
C719 C718 1.370 . S
C719 C723 1.408 . S
C720 C718 1.363 . S
C720 C721 1.370 . S
C720 C724 1.524 1_554 S
C721 C713 1.503 1_554 S
C721 C720 1.370 . S
C721 C722 1.403 . S
C722 C721 1.403 . S
C722 C723 1.404 . S
C722 C725 1.539 . S
C723 C719 1.408 . S
C723 C722 1.404 . S
C723 H735 0.930 . S
C724 C720 1.524 1_556 S
C724 H736 0.956 . S
C724 H737 0.961 . S
C724 H738 0.961 1_556 S
C725 C722 1.539 . S
C725 H739 0.944 1_554 S
C725 H740 0.961 . S
C725 H741 0.960 1_554 S
H726 C710 0.931 . S
H727 C715 0.929 . S
H728 C716 0.960 . S
H729 C716 0.962 . S
H730 C716 0.960 . S
H731 C717 0.961 . S
H732 C717 0.997 . S
H733 C717 0.961 . S
H734 C718 0.931 . S
H735 C723 0.930 . S
H736 C724 0.956 . S
H737 C724 0.961 . S
H738 C724 0.961 1_554 S
H739 C725 0.944 1_556 S
H740 C725 0.961 . S
H741 C725 0.960 1_556 S
C742 C743 1.391 . S
C742 C744 1.394 . S
C742 H758 0.931 . S
C743 C742 1.391 . S
C743 C747 1.376 1_455 S
C744 C742 1.394 . S
C744 C745 1.369 . S
C744 C748 1.531 . S
C745 C744 1.369 . S
C745 C746 1.410 1_455 S
C745 C753 1.503 . S
C746 C745 1.410 1_655 S
C746 C747 1.392 . S
C746 C749 1.511 . S
C747 C743 1.376 1_655 S
C747 C746 1.392 . S
C747 H759 0.929 . S
C748 C744 1.531 . S
C748 H760 0.960 . S
C748 H761 0.962 . S
C748 H762 0.960 . S
C749 C746 1.511 . S
C749 H763 0.961 . S
C749 H764 0.961 . S
C749 H765 0.961 . S
C750 C751 1.370 . S
C750 C752 1.363 . S
C750 H766 0.931 . S
C751 C750 1.370 . S
C751 C755 1.408 . S
C752 C750 1.363 . S
C752 C753 1.370 . S
C752 C756 1.524 . S
C753 C745 1.503 . S
C753 C752 1.370 . S
C753 C754 1.403 . S
C754 C753 1.403 . S
C754 C755 1.404 . S
C754 C757 1.539 1_455 S
C755 C751 1.408 . S
C755 C754 1.404 . S
C755 H767 0.937 . S
C756 C752 1.524 . S
C756 H768 0.956 . S
C756 H769 0.961 1_455 S
C756 H770 0.961 . S
C757 C754 1.539 1_655 S
C757 H771 0.958 1_655 S
C757 H772 0.961 . S
C757 H773 0.960 . S
H758 C742 0.931 . S
H759 C747 0.929 . S
H760 C748 0.960 . S
H761 C748 0.962 . S
H762 C748 0.960 . S
H763 C749 0.961 . S
H764 C749 0.961 . S
H765 C749 0.961 . S
H766 C750 0.931 . S
H767 C755 0.937 . S
H768 C756 0.956 . S
H769 C756 0.961 1_655 S
H770 C756 0.961 . S
H771 C757 0.958 1_455 S
H772 C757 0.961 . S
H773 C757 0.960 . S
C199 C9 0.409 . S
C207 N187 0.191 . S
C231 C49 0.232 . S
C239 N160 0.369 1_655 S
C263 C89 0.267 . S
C271 N173 0.285 . S
C295 C26 0.705 . S
C303 N186 0.586 . S
C335 N161 0.592 . S
C327 C66 0.725 . S
C367 N174 0.583 . S
C359 C106 0.639 . S
C391 C43 2.863 . S
C399 N134 2.865 . S
C423 C83 2.795 . S
C431 N148 2.752 . S
C455 C22 3.142 . S
C463 N122 3.118 . S
C495 N135 3.131 . S
C487 C62 3.150 . S
C527 N147 3.285 . S
C519 C102 3.271 . S
C551 C3 2.864 . S
C559 N121 2.873 . S
C591 N151 1.778 . S
C583 C15 1.779 . S
C615 C55 1.687 . S
C623 N125 1.778 . S
C647 C95 1.713 . S
C655 N138 1.777 . S
C687 N177 1.237 . S
C679 C42 1.236 . S
C719 N190 1.208 . S
C711 C82 1.208 . S
C743 C2 1.246 . S
C751 N164 1.233 . S
