# Generated by pormake.
# Topology zzz, (3,6)-cn, num edge types: 1
# Building blocks:
#     Node 0, Type 0, BuildingBlock: MIDCAF_clean_linker_0, # of connection points: 3
#     Node 1, Type 0, BuildingBlock: MIDCAF_clean_linker_0, # of connection points: 3
#     Node 2, Type 0, BuildingBlock: MIDCAF_clean_linker_0, # of connection points: 3
#     Node 3, Type 0, BuildingBlock: MIDCAF_clean_linker_0, # of connection points: 3
#     Node 4, Type 0, BuildingBlock: MIDCAF_clean_linker_0, # of connection points: 3
#     Node 5, Type 0, BuildingBlock: MIDCAF_clean_linker_0, # of connection points: 3
#     Node 6, Type 0, BuildingBlock: MIDCAF_clean_linker_0, # of connection points: 3
#     Node 7, Type 0, BuildingBlock: MIDCAF_clean_linker_0, # of connection points: 3
#     Node 8, Type 1, BuildingBlock: LEVNOQ01_clean_sbu_1, # of connection points: 6
#     Node 9, Type 1, BuildingBlock: LEVNOQ01_clean_sbu_1, # of connection points: 6
#     Node 10, Type 1, BuildingBlock: LEVNOQ01_clean_sbu_1, # of connection points: 6
#     Node 11, Type 1, BuildingBlock: LEVNOQ01_clean_sbu_1, # of connection points: 6
#     Edge 12, Type (0, 1), BuildingBlock: CIFDUS_clean_linker_0, # of connection points: 2
#     Edge 13, Type (0, 1), BuildingBlock: CIFDUS_clean_linker_0, # of connection points: 2
#     Edge 14, Type (0, 1), BuildingBlock: CIFDUS_clean_linker_0, # of connection points: 2
#     Edge 15, Type (0, 1), BuildingBlock: CIFDUS_clean_linker_0, # of connection points: 2
#     Edge 16, Type (0, 1), BuildingBlock: CIFDUS_clean_linker_0, # of connection points: 2
#     Edge 17, Type (0, 1), BuildingBlock: CIFDUS_clean_linker_0, # of connection points: 2
#     Edge 18, Type (0, 1), BuildingBlock: CIFDUS_clean_linker_0, # of connection points: 2
#     Edge 19, Type (0, 1), BuildingBlock: CIFDUS_clean_linker_0, # of connection points: 2
#     Edge 20, Type (0, 1), BuildingBlock: CIFDUS_clean_linker_0, # of connection points: 2
#     Edge 21, Type (0, 1), BuildingBlock: CIFDUS_clean_linker_0, # of connection points: 2
#     Edge 22, Type (0, 1), BuildingBlock: CIFDUS_clean_linker_0, # of connection points: 2
#     Edge 23, Type (0, 1), BuildingBlock: CIFDUS_clean_linker_0, # of connection points: 2
#     Edge 24, Type (0, 1), BuildingBlock: CIFDUS_clean_linker_0, # of connection points: 2
#     Edge 25, Type (0, 1), BuildingBlock: CIFDUS_clean_linker_0, # of connection points: 2
#     Edge 26, Type (0, 1), BuildingBlock: CIFDUS_clean_linker_0, # of connection points: 2
#     Edge 27, Type (0, 1), BuildingBlock: CIFDUS_clean_linker_0, # of connection points: 2
#     Edge 28, Type (0, 1), BuildingBlock: CIFDUS_clean_linker_0, # of connection points: 2
#     Edge 29, Type (0, 1), BuildingBlock: CIFDUS_clean_linker_0, # of connection points: 2
#     Edge 30, Type (0, 1), BuildingBlock: CIFDUS_clean_linker_0, # of connection points: 2
#     Edge 31, Type (0, 1), BuildingBlock: CIFDUS_clean_linker_0, # of connection points: 2
#     Edge 32, Type (0, 1), BuildingBlock: CIFDUS_clean_linker_0, # of connection points: 2
#     Edge 33, Type (0, 1), BuildingBlock: CIFDUS_clean_linker_0, # of connection points: 2
#     Edge 34, Type (0, 1), BuildingBlock: CIFDUS_clean_linker_0, # of connection points: 2
#     Edge 35, Type (0, 1), BuildingBlock: CIFDUS_clean_linker_0, # of connection points: 2
# Relax obj value: 0.308
# Max RMSD: 0.220
# Mean RMSD: 0.207
data_MOF--net-zzz--node1-LEVNOQ01_clean_sbu_1--node2-MIDCAF_clean_linker_0--edge1-CIFDUS_clean_linker_0
_symmetry_space_group_name_H-M    P1
_symmetry_Int_Tables_number       1
_symmetry_cell_setting            triclinic
loop_
_symmetry_equiv_pos_as_xyz
'x, y, z'
_cell_length_a     48.804471
_cell_length_b     52.4607
_cell_length_c     18.768315
_cell_angle_alpha  89.834027
_cell_angle_beta   89.999176
_cell_angle_gamma 88.363589
loop_
_atom_site_label
_atom_site_type_symbol
_atom_site_fract_x
_atom_site_fract_y
_atom_site_fract_z
_atom_type_partial_charge
C0 C 0.83779 0.59844 0.35527 0.0
C1 C 0.8306 0.5767 0.3941 0.0
C2 C 0.80546 0.56534 0.37785 0.0
C3 C 0.78857 0.57487 0.32268 0.0
H4 H 0.69225 0.60907 0.18555 0.0
H5 H 0.64944 0.59956 0.12116 0.0
H6 H 0.69704 0.56041 0.95925 0.0
H7 H 0.73896 0.56956 0.02265 0.0
H8 H 0.7766 0.61472 0.95272 0.0
H9 H 0.81095 0.59886 0.86906 0.0
H10 H 0.87437 0.61456 0.02256 0.0
H11 H 0.84044 0.63126 0.10384 0.0
H12 H 0.82779 0.62425 0.27031 0.0
H13 H 0.85656 0.60812 0.36693 0.0
H14 H 0.79925 0.54839 0.40591 0.0
H15 H 0.77006 0.56497 0.30975 0.0
N16 N 0.75578 0.59601 0.19967 0.0
N17 N 0.7607 0.61158 0.08275 0.0
N18 N 0.7968 0.61451 0.16293 0.0
C19 C 0.74499 0.6007 0.13341 0.0
C20 C 0.78655 0.61859 0.09671 0.0
C21 C 0.78186 0.60342 0.21488 0.0
C22 C 0.71886 0.59004 0.10897 0.0
C23 C 0.69328 0.5977 0.13751 0.0
C24 C 0.6689 0.59245 0.10045 0.0
C25 C 0.67003 0.57975 0.0344 0.0
C26 C 0.69554 0.57063 0.00926 0.0
C27 C 0.71954 0.5757 0.04593 0.0
C28 C 0.80575 0.62254 0.03689 0.0
C29 C 0.798 0.61594 0.96724 0.0
C30 C 0.81773 0.60659 0.91932 0.0
C31 C 0.84525 0.60371 0.94088 0.0
C32 C 0.85334 0.61565 0.0043 0.0
C33 C 0.8337 0.62521 0.05171 0.0
C34 C 0.79645 0.59593 0.28196 0.0
C35 C 0.82102 0.60788 0.30013 0.0
C36 C 0.01745 0.81959 0.36093 0.0
C37 C 0.0046 0.81303 0.42469 0.0
C38 C 0.99318 0.7887 0.43072 0.0
C39 C 0.99305 0.77198 0.37167 0.0
H40 H 0.0268 0.68902 0.20166 0.0
H41 H 0.0294 0.64795 0.13834 0.0
H42 H 0.95626 0.66926 0.02092 0.0
H43 H 0.95343 0.70963 0.08449 0.0
H44 H 0.02497 0.77055 0.99352 0.0
H45 H 0.0289 0.80644 0.90939 0.0
H46 H 0.96223 0.84616 0.01735 0.0
H47 H 0.95898 0.81108 0.10142 0.0
H48 H 0.02736 0.80929 0.25441 0.0
H49 H 0.02686 0.83796 0.35524 0.0
H50 H 0.98341 0.7831 0.47991 0.0
H51 H 0.98269 0.75407 0.37597 0.0
N52 N 0.99746 0.73993 0.23022 0.0
N53 N 0.99162 0.74581 0.10599 0.0
N54 N 0.99774 0.78089 0.17911 0.0
C55 C 0.99312 0.73001 0.16337 0.0
C56 C 0.99379 0.77113 0.11388 0.0
C57 C 0.99991 0.76585 0.23761 0.0
C58 C 0.98989 0.70251 0.14825 0.0
C59 C 0.01059 0.68432 0.16496 0.0
C60 C 0.01221 0.66095 0.12806 0.0
C61 C 0.99334 0.65563 0.07346 0.0
C62 C 0.97134 0.67292 0.06172 0.0
C63 C 0.96958 0.69594 0.09883 0.0
C64 C 0.99171 0.78842 0.05327 0.0
C65 C 0.01064 0.78666 0.99711 0.0
C66 C 0.01294 0.80705 0.94952 0.0
C67 C 0.99579 0.8288 0.95722 0.0
C68 C 0.97536 0.82937 0.00978 0.0
C69 C 0.97355 0.80943 0.05795 0.0
C70 C 0.00469 0.77934 0.30638 0.0
C71 C 0.01777 0.80297 0.30319 0.0
C72 C 0.66282 0.90984 0.33893 0.0
C73 C 0.67622 0.91915 0.39926 0.0
C74 C 0.70524 0.91822 0.39963 0.0
C75 C 0.72022 0.90876 0.34061 0.0
H76 H 0.79437 0.92355 0.18717 0.0
H77 H 0.83761 0.93601 0.13072 0.0
H78 H 0.83269 0.87286 0.98547 0.0
H79 H 0.79029 0.86006 0.04178 0.0
H80 H 0.72278 0.88846 0.95879 0.0
H81 H 0.68482 0.90071 0.88027 0.0
H82 H 0.62825 0.86525 0.02395 0.0
H83 H 0.666 0.85324 0.10276 0.0
H84 H 0.66594 0.89363 0.23596 0.0
H85 H 0.64071 0.91075 0.33468 0.0
H86 H 0.71646 0.92491 0.44532 0.0
H87 H 0.74241 0.90866 0.34216 0.0
N88 N 0.74847 0.89375 0.20234 0.0
N89 N 0.74313 0.87757 0.0861 0.0
N90 N 0.70551 0.8809 0.16182 0.0
C91 C 0.75965 0.88663 0.138 0.0
C92 C 0.71613 0.87449 0.09775 0.0
C93 C 0.72108 0.89054 0.21453 0.0
C94 C 0.78869 0.89099 0.11853 0.0
C95 C 0.80306 0.9118 0.14504 0.0
C96 C 0.82771 0.91897 0.11265 0.0
C97 C 0.83824 0.90537 0.05368 0.0
C98 C 0.82495 0.88359 0.03081 0.0
C99 C 0.80062 0.87638 0.06313 0.0
C100 C 0.69711 0.87068 0.038 0.0
C101 C 0.70248 0.88202 0.9717 0.0
C102 C 0.68075 0.88908 0.9267 0.0
C103 C 0.65365 0.88452 0.94734 0.0
C104 C 0.64896 0.86912 0.00705 0.0
C105 C 0.67058 0.86235 0.05243 0.0
C106 C 0.70653 0.89972 0.28023 0.0
C107 C 0.67761 0.90015 0.28112 0.0
C108 C 0.53138 0.6682 0.02359 0.0
C109 C 0.51248 0.66948 0.96732 0.0
C110 C 0.4962 0.69168 0.95721 0.0
C111 C 0.49727 0.71151 0.00652 0.0
H112 H 0.46245 0.78323 0.07319 0.0
H113 H 0.46253 0.82467 0.01467 0.0
H114 H 0.51816 0.85207 0.17366 0.0
H115 H 0.51862 0.80986 0.23232 0.0
H116 H 0.4717 0.73442 0.36209 0.0
H117 H 0.46793 0.7027 0.45754 0.0
H118 H 0.54512 0.66779 0.39231 0.0
H119 H 0.54848 0.69905 0.29701 0.0
H120 H 0.54544 0.6854 0.11911 0.0
H121 H 0.54389 0.65111 0.0329 0.0
H122 H 0.48147 0.69293 0.91406 0.0
H123 H 0.48333 0.72782 0.00045 0.0
N124 N 0.5023 0.75068 0.11768 0.0
N125 N 0.50064 0.75704 0.24205 0.0
N126 N 0.51389 0.71713 0.19432 0.0
C127 C 0.49764 0.76635 0.17403 0.0
C128 C 0.50879 0.73205 0.2518 0.0
C129 C 0.51067 0.72624 0.12747 0.0
C130 C 0.49061 0.7933 0.15722 0.0
C131 C 0.47402 0.7983 0.09725 0.0
C132 C 0.47424 0.82192 0.0633 0.0
C133 C 0.49079 0.84126 0.0889 0.0
C134 C 0.50538 0.83729 0.15284 0.0
C135 C 0.50536 0.81332 0.18683 0.0
C136 C 0.51042 0.7193 0.3223 0.0
C137 C 0.48832 0.72059 0.37015 0.0
C138 C 0.4861 0.7022 0.42441 0.0
C139 C 0.50594 0.68222 0.43173 0.0
C140 C 0.52909 0.68238 0.38728 0.0
C141 C 0.53124 0.70059 0.3333 0.0
C142 C 0.51417 0.70891 0.06689 0.0
C143 C 0.53205 0.68767 0.07334 0.0
C144 C 0.15858 0.41612 0.16407 0.0
C145 C 0.1642 0.41179 0.09172 0.0
C146 C 0.19016 0.40115 0.07307 0.0
C147 C 0.20939 0.39391 0.12616 0.0
H148 H 0.28941 0.42258 0.28172 0.0
H149 H 0.33213 0.43757 0.33261 0.0
H150 H 0.33674 0.37142 0.47022 0.0
H151 H 0.29387 0.35695 0.42086 0.0
H152 H 0.22466 0.38014 0.50974 0.0
H153 H 0.18693 0.39439 0.58498 0.0
H154 H 0.12977 0.35798 0.44517 0.0
H155 H 0.16766 0.34398 0.36896 0.0
H156 H 0.17198 0.41208 0.27167 0.0
H157 H 0.1393 0.42497 0.18065 0.0
H158 H 0.19525 0.39766 0.01774 0.0
H159 H 0.22862 0.38466 0.11088 0.0
N160 N 0.24669 0.39033 0.26769 0.0
N161 N 0.24414 0.37097 0.38115 0.0
N162 N 0.20534 0.37398 0.3092 0.0
C163 C 0.25927 0.38226 0.32957 0.0
C164 C 0.21722 0.36661 0.37109 0.0
C165 C 0.21949 0.38578 0.25735 0.0
C166 C 0.28799 0.38873 0.34765 0.0
C167 C 0.29991 0.41095 0.32156 0.0
C168 C 0.32448 0.41953 0.35095 0.0
C169 C 0.33782 0.40598 0.40674 0.0
C170 C 0.32682 0.38278 0.42888 0.0
C171 C 0.30225 0.37436 0.40002 0.0
C172 C 0.19892 0.3619 0.43194 0.0
C173 C 0.20428 0.37383 0.49716 0.0
C174 C 0.18252 0.38213 0.54033 0.0
C175 C 0.15533 0.37824 0.51895 0.0
C176 C 0.15052 0.36193 0.46144 0.0
C177 C 0.17225 0.35372 0.41819 0.0
C178 C 0.20292 0.3973 0.19852 0.0
C179 C 0.17755 0.409 0.21638 0.0
C180 C 0.04618 0.17959 0.07456 0.0
C181 C 0.02479 0.18126 0.02488 0.0
C182 C 0.00594 0.20208 0.0289 0.0
C183 C 0.00783 0.22024 0.08399 0.0
H184 H 1.00174 0.30856 0.22015 0.0
H185 H 0.99767 0.3513 0.27281 0.0
H186 H 0.04784 0.32538 0.45038 0.0
H187 H 0.05329 0.28425 0.3957 0.0
H188 H 0.9965 0.22893 0.4564 0.0
H189 H 0.99238 0.19617 0.54939 0.0
H190 H 0.04973 0.1473 0.43472 0.0
H191 H 0.05324 0.17939 0.34179 0.0
H192 H 0.06349 0.19436 0.16998 0.0
H193 H 0.06057 0.16347 0.0737 0.0
H194 H 0.989 0.20356 0.99171 0.0
H195 H 0.99205 0.23507 0.08889 0.0
N196 N 0.02565 0.25612 0.21715 0.0
N197 N 0.0241 0.24905 0.34131 0.0
N198 N 0.02549 0.21442 0.26415 0.0
C199 C 0.02513 0.26549 0.28558 0.0
C200 C 0.02435 0.2237 0.33101 0.0
C201 C 0.02585 0.23017 0.2069 0.0
C202 C 0.02747 0.29289 0.30413 0.0
C203 C 0.01269 0.31248 0.26892 0.0
C204 C 0.01006 0.33687 0.30005 0.0
C205 C 0.02188 0.34201 0.36734 0.0
C206 C 0.03852 0.32278 0.3987 0.0
C207 C 0.04141 0.29881 0.36739 0.0
C208 C 0.02473 0.20623 0.39174 0.0
C209 C 0.0086 0.21136 0.45227 0.0
C210 C 0.00636 0.19283 0.50532 0.0
C211 C 0.02084 0.16947 0.4988 0.0
C212 C 0.03867 0.16535 0.44116 0.0
C213 C 0.04036 0.1835 0.3876 0.0
C214 C 0.02837 0.21755 0.13627 0.0
C215 C 0.04788 0.19739 0.12952 0.0
C216 C 0.34147 0.08992 0.12952 0.0
C217 C 0.32828 0.07827 0.07226 0.0
C218 C 0.29925 0.07811 0.0731 0.0
C219 C 0.28414 0.0884 0.13086 0.0
H220 H 0.20617 0.08198 0.26615 0.0
H221 H 0.16162 0.06987 0.31408 0.0
H222 H 0.17578 0.11601 0.50041 0.0
H223 H 0.21838 0.12912 0.45122 0.0
H224 H 0.28314 0.11044 0.50913 0.0
H225 H 0.32195 0.09661 0.58261 0.0
H226 H 0.37719 0.13341 0.43852 0.0
H227 H 0.33855 0.14684 0.36371 0.0
H228 H 0.3381 0.1087 0.22895 0.0
H229 H 0.3636 0.09009 0.13281 0.0
H230 H 0.2881 0.06979 0.02953 0.0
H231 H 0.26201 0.08738 0.13059 0.0
N232 N 0.25595 0.10473 0.2683 0.0
N233 N 0.26182 0.12115 0.38397 0.0
N234 N 0.29874 0.11905 0.30594 0.0
C235 C 0.24509 0.1115 0.33338 0.0
C236 C 0.28853 0.12516 0.37059 0.0
C237 C 0.28311 0.1088 0.25435 0.0
C238 C 0.21626 0.10627 0.35489 0.0
C239 C 0.19935 0.08995 0.3165 0.0
C240 C 0.17387 0.08279 0.34462 0.0
C241 C 0.16478 0.09167 0.412 0.0
C242 C 0.18132 0.10893 0.44813 0.0
C243 C 0.20632 0.11624 0.4199 0.0
C244 C 0.30801 0.12891 0.42939 0.0
C245 C 0.30333 0.11691 0.49515 0.0
C246 C 0.32553 0.10895 0.53736 0.0
C247 C 0.35236 0.11356 0.51493 0.0
C248 C 0.35659 0.12965 0.4565 0.0
C249 C 0.33446 0.13725 0.41364 0.0
C250 C 0.29765 0.09946 0.18868 0.0
C251 C 0.32652 0.10047 0.18596 0.0
C252 C 0.497 0.32165 0.42543 0.0
C253 C 0.51764 0.32122 0.4778 0.0
C254 C 0.53336 0.29857 0.48838 0.0
C255 C 0.5303 0.27782 0.4425 0.0
H256 H 0.55692 0.19288 0.32847 0.0
H257 H 0.55089 0.15293 0.39317 0.0
H258 H 0.46742 0.15069 0.31855 0.0
H259 H 0.4738 0.19046 0.25197 0.0
H260 H 0.4837 0.25613 0.0793 0.0
H261 H 0.47975 0.28947 0.98639 0.0
H262 H 0.54746 0.32825 0.08083 0.0
H263 H 0.55182 0.29504 0.17129 0.0
H264 H 0.47915 0.30276 0.33745 0.0
H265 H 0.48466 0.33866 0.41426 0.0
H266 H 0.54904 0.29741 0.52914 0.0
H267 H 0.54408 0.26135 0.44742 0.0
N268 N 0.51492 0.23711 0.33151 0.0
N269 N 0.51625 0.23292 0.20594 0.0
N270 N 0.51425 0.27332 0.2593 0.0
C271 C 0.51601 0.2221 0.27255 0.0
C272 C 0.51585 0.25891 0.19993 0.0
C273 C 0.51359 0.26272 0.32468 0.0
C274 C 0.51598 0.19439 0.28426 0.0
C275 C 0.53787 0.18298 0.3223 0.0
C276 C 0.53434 0.16022 0.35968 0.0
C277 C 0.50866 0.14883 0.36093 0.0
C278 C 0.48744 0.15909 0.31804 0.0
C279 C 0.49116 0.18165 0.27943 0.0
C280 C 0.51824 0.27288 0.1319 0.0
C281 C 0.49844 0.27117 0.07796 0.0
C282 C 0.49594 0.29041 0.02566 0.0
C283 C 0.51293 0.31167 0.02767 0.0
C284 C 0.53381 0.31233 0.07881 0.0
C285 C 0.53652 0.29312 0.12993 0.0
C286 C 0.5115 0.27968 0.38612 0.0
C287 C 0.4939 0.30107 0.38053 0.0
O288 O 0.06015 0.97305 0.82956 0.0
Mg289 Mg 0.04917 0.97589 0.72065 0.0
O290 O 0.01599 0.97491 0.81691 0.0
Mg291 Mg 0.99879 -0.00146 0.72507 0.0
O292 O 0.04101 0.01005 0.66485 0.0
O293 O 0.08065 0.98671 0.66204 0.0
O294 O 0.97936 0.02214 0.63528 0.0
O295 O 0.00505 0.03798 0.79611 0.0
Mg296 Mg 0.95848 0.01907 0.7859 0.0
O297 O 0.95609 0.98135 0.77474 0.0
O298 O 0.95359 0.04618 0.70467 0.0
O299 O 0.97594 0.03054 0.88045 0.0
O300 O 0.92104 0.00764 0.8087 0.0
C301 C 0.01037 0.94155 0.64904 0.0
C302 C 0.03681 0.96718 0.85206 0.0
C303 C 0.06612 0.00622 0.64115 0.0
C304 C 0.96433 0.04198 0.64468 0.0
C305 C 0.99485 0.04399 0.8571 0.0
C306 C 0.93107 0.98497 0.79876 0.0
O307 O 0.03392 0.94157 0.67726 0.0
O308 O 0.99465 0.96143 0.6538 0.0
O309 O 0.42902 -0.00676 0.78135 0.0
Mg310 Mg 0.44552 0.96479 0.71057 0.0
O311 O 0.46634 0.01536 0.80593 0.0
Mg312 Mg 0.50129 -0.00318 0.73271 0.0
O313 O 0.48338 0.95792 0.75153 0.0
O314 O 0.45299 0.92758 0.74792 0.0
O315 O 0.53655 0.9788 0.66138 0.0
O316 O 0.52899 0.9862 0.82697 0.0
Mg317 Mg 0.55641 0.02993 0.76133 0.0
O318 O 0.51994 0.03519 0.71262 0.0
O319 O 0.57365 -8e-05 0.6952 0.0
O320 O 0.55 0.01934 0.86891 0.0
O321 O 0.54916 0.06618 0.71528 0.0
C322 C 0.45598 -0.00101 0.59475 0.0
C323 C 0.44061 0.0113 0.81403 0.0
C324 C 0.47649 0.93517 0.76911 0.0
C325 C 0.56254 0.98239 0.65888 0.0
C326 C 0.54476 -0.00415 0.87289 0.0
C327 C 0.52717 0.05708 0.68878 0.0
O328 O 0.44718 0.97664 0.60255 0.0
O329 O 0.47363 0.00739 0.63802 0.0
O330 O 0.5363 0.44519 0.80007 0.0
Mg331 Mg 0.5529 0.4752 0.73839 0.0
O332 O 0.49471 0.46307 0.81488 0.0
Mg333 Mg 0.49568 0.49797 0.73573 0.0
O334 O 0.53877 0.50943 0.77973 0.0
O335 O 0.58292 0.49652 0.78173 0.0
O336 O 0.49808 0.53272 0.65597 0.0
O337 O 0.48093 0.52513 0.822 0.0
Mg338 Mg 0.43947 0.52269 0.72499 0.0
O339 O 0.45224 0.48651 0.69315 0.0
O340 O 0.45705 0.55195 0.66243 0.0
O341 O 0.43673 0.53088 0.83475 0.0
O342 O 0.40912 0.50204 0.68158 0.0
C343 C 0.52977 0.46278 0.61071 0.0
C344 C 0.51241 0.44503 0.82697 0.0
C345 C 0.564 0.51298 0.79936 0.0
C346 C 0.48153 0.55121 0.6396 0.0
C347 C 0.46078 0.53516 0.85547 0.0
C348 C 0.42694 0.48369 0.67276 0.0
O349 O 0.55387 0.46847 0.62768 0.0
O350 O 0.50983 0.47103 0.64821 0.0
O351 O 0.95086 0.47663 0.8518 0.0
Mg352 Mg 0.95093 0.46386 0.74457 0.0
O353 O 0.97864 0.50707 0.81962 0.0
Mg354 Mg 0.00705 0.49713 0.72669 0.0
O355 O 0.98964 0.45823 0.70741 0.0
O356 O 0.96046 0.42721 0.7041 0.0
O357 O 0.03405 0.48602 0.63362 0.0
O358 O 0.04249 0.47902 0.80154 0.0
Mg359 Mg 0.05956 0.52827 0.69598 0.0
O360 O 0.02331 0.53771 0.74534 0.0
O361 O 0.05921 0.51565 0.58786 0.0
O362 O 0.07841 0.5011 0.76571 0.0
O363 O 0.05563 0.56611 0.7275 0.0
C364 C 0.94685 0.51067 0.64133 0.0
C365 C 0.96017 0.49875 0.86075 0.0
C366 C 0.98386 0.43576 0.68507 0.0
C367 C 0.05035 0.49323 0.58566 0.0
C368 C 0.06837 0.48327 0.80285 0.0
C369 C 0.03248 0.56043 0.75569 0.0
O370 O 0.93493 0.4926 0.67343 0.0
O371 O 0.97249 0.51473 0.65061 0.0
H372 H 0.14301 0.04416 0.40023 0.0
H373 H 0.12942 0.11629 0.50668 0.0
H374 H 0.09566 0.09718 0.5842 0.0
H375 H 0.07389 0.05808 0.63215 0.0
H376 H 0.08596 0.98736 0.51898 0.0
H377 H 0.11536 0.00798 0.43278 0.0
C378 C 0.13218 0.05609 0.43861 0.0
C379 C 0.13978 0.08156 0.44835 0.0
C380 C 0.11222 0.04513 0.48244 0.0
C381 C 0.12513 0.09635 0.49924 0.0
C382 C 0.10546 0.08548 0.54354 0.0
C383 C 0.08214 0.04757 0.58702 0.0
C384 C 0.07774 0.02126 0.58196 0.0
C385 C 0.09944 0.05961 0.53732 0.0
C386 C 0.08912 0.00764 0.52412 0.0
C387 C 0.10607 0.01938 0.47489 0.0
H388 H 0.53371 0.10233 0.38276 0.0
H389 H 0.47147 0.15371 0.46702 0.0
H390 H 0.4688 0.12806 0.57548 0.0
H391 H 0.48909 0.09418 0.65333 0.0
H392 H 0.54929 0.04147 0.56595 0.0
H393 H 0.54757 0.06394 0.45174 0.0
C394 C 0.519 0.10738 0.42408 0.0
C395 C 0.5029 0.12986 0.41727 0.0
C396 C 0.51727 0.09228 0.48596 0.0
C397 C 0.48394 0.13634 0.47105 0.0
C398 C 0.4825 0.12174 0.53328 0.0
C399 C 0.50093 0.08713 0.60826 0.0
C400 C 0.51903 0.06613 0.61738 0.0
C401 C 0.49968 0.1001 0.54237 0.0
C402 C 0.53482 0.05737 0.55935 0.0
C403 C 0.53406 0.07036 0.4943 0.0
H404 H 0.34875 0.40395 0.54979 0.0
H405 H 0.38051 0.43318 0.352 0.0
H406 H 0.41509 0.45636 0.41765 0.0
H407 H 0.4318 0.47326 0.5323 0.0
H408 H 0.39896 0.4448 0.72891 0.0
H409 H 0.37011 0.41564 0.66287 0.0
C410 C 0.36365 0.41478 0.52054 0.0
C411 C 0.36155 0.41704 0.4457 0.0
C412 C 0.38345 0.4282 0.55872 0.0
C413 C 0.38104 0.43153 0.40951 0.0
C414 C 0.40099 0.44471 0.44707 0.0
C415 C 0.41916 0.45987 0.56047 0.0
C416 C 0.41782 0.46076 0.63532 0.0
C417 C 0.40181 0.44387 0.52182 0.0
C418 C 0.40074 0.44398 0.6714 0.0
C419 C 0.38395 0.42759 0.63354 0.0
H420 H 0.05229 0.36775 0.46831 0.0
H421 H 0.97309 0.36932 0.36432 0.0
H422 H 0.95635 0.40107 0.44819 0.0
H423 H 0.9612 0.42314 0.56155 0.0
H424 H 0.03845 0.42051 0.6725 0.0
H425 H 0.05855 0.39368 0.57718 0.0
C426 C 0.03133 0.37492 0.46372 0.0
C427 C 0.01396 0.36538 0.40988 0.0
C428 C 0.02121 0.3926 0.51464 0.0
C429 C 0.98724 0.37603 0.40397 0.0
C430 C 0.97739 0.39407 0.45288 0.0
C431 C 0.98259 0.41697 0.56436 0.0
C432 C 0.99824 0.42335 0.62431 0.0
C433 C 0.99377 0.40164 0.50992 0.0
C434 C 0.026 0.4157 0.62696 0.0
C435 C 0.03741 0.40035 0.5725 0.0
H436 H 0.83245 0.92814 0.92647 0.0
H437 H 0.89348 0.90513 0.08099 0.0
H438 H 0.92957 0.92327 0.00623 0.0
H439 H 0.9425 0.95029 0.90323 0.0
H440 H 0.88016 0.97528 0.75421 0.0
H441 H 0.84584 0.9516 0.81944 0.0
C442 C 0.85372 0.92702 0.94336 0.0
C443 C 0.86042 0.91572 0.0092 0.0
C444 C 0.87406 0.93775 0.90072 0.0
C445 C 0.88794 0.91418 0.03088 0.0
C446 C 0.9085 0.92442 0.98799 0.0
C447 C 0.92168 0.9495 0.88341 0.0
C448 C 0.91397 0.96391 0.82286 0.0
C449 C 0.90173 0.93673 0.92337 0.0
C450 C 0.88665 0.96374 0.79947 0.0
C451 C 0.86695 0.95054 0.83743 0.0
H452 H 0.51294 0.84315 0.95787 0.0
H453 H 0.4753 0.89053 0.11949 0.0
H454 H 0.4726 0.92652 0.03549 0.0
H455 H 0.47427 0.9419 0.91074 0.0
H456 H 0.50899 0.89314 0.74811 0.0
H457 H 0.52034 0.86044 0.8377 0.0
C458 C 0.50475 0.86159 0.97494 0.0
C459 C 0.49417 0.86431 0.04432 0.0
C460 C 0.50281 0.88186 0.926 0.0
C461 C 0.48363 0.88815 0.06635 0.0
C462 C 0.48196 0.90861 0.01819 0.0
C463 C 0.48533 0.9245 0.89573 0.0
C464 C 0.49127 0.91993 0.82342 0.0
C465 C 0.49064 0.90541 0.9472 0.0
C466 C 0.50475 0.89711 0.80371 0.0
C467 C 0.51086 0.87833 0.85478 0.0
H468 H 0.62097 0.55729 0.06382 0.0
H469 H 0.66478 0.59626 0.8986 0.0
H470 H 0.6313 0.58334 0.81035 0.0
H471 H 0.59559 0.55357 0.77657 0.0
H472 H 0.55122 0.51442 0.93964 0.0
H473 H 0.57826 0.53499 0.03209 0.0
C474 C 0.62262 0.56356 0.00893 0.0
C475 C 0.64567 0.57718 0.9874 0.0
C476 C 0.60331 0.55574 0.95779 0.0
C477 C 0.64751 0.58531 0.91611 0.0
C478 C 0.62839 0.5779 0.86553 0.0
C479 C 0.59101 0.55053 0.83248 0.0
C480 C 0.5714 0.53268 0.85142 0.0
C481 C 0.60703 0.56205 0.88508 0.0
C482 C 0.56593 0.52846 0.92393 0.0
C483 C 0.58171 0.53993 0.97678 0.0
H484 H 0.99369 0.6574 0.92913 0.0
H485 H 0.00401 0.60507 0.10507 0.0
H486 H 0.01375 0.57002 0.02142 0.0
H487 H 0.02295 0.55506 0.89767 0.0
H488 H 0.01496 0.60844 0.72382 0.0
H489 H 1.00073 0.64226 0.80666 0.0
C490 C 0.99771 0.63824 0.94919 0.0
C491 C 0.99807 0.63385 0.02334 0.0
C492 C 0.00378 0.61839 0.90086 0.0
C493 C 0.00381 0.609 0.04838 0.0
C494 C 0.00932 0.58896 0.00049 0.0
C495 C 0.01714 0.57391 0.87799 0.0
C496 C 0.01899 0.57908 0.80444 0.0
C497 C 0.00976 0.59349 0.92655 0.0
C498 C 0.01288 0.60387 0.77986 0.0
C499 C 0.00498 0.62324 0.82733 0.0
H500 H 0.97051 0.15139 0.51746 0.0
H501 H 0.05551 0.13777 0.57256 0.0
H502 H 0.04517 0.09492 0.61401 0.0
H503 H 0.01301 0.06066 0.62545 0.0
H504 H 0.92731 0.0746 0.58065 0.0
H505 H 0.9371 0.11795 0.53945 0.0
C506 C 0.98658 0.1392 0.54035 0.0
C507 C 0.01368 0.14742 0.54219 0.0
C508 C 0.98067 0.11443 0.56162 0.0
C509 C 0.03451 0.13161 0.57105 0.0
C510 C 0.02873 0.10706 0.59333 0.0
C511 C 0.99665 0.07298 0.60439 0.0
C512 C 0.96975 0.06442 0.60232 0.0
C513 C 1.00215 0.09804 0.58621 0.0
C514 C 0.94831 0.08074 0.5793 0.0
C515 C 0.95385 0.10553 0.55744 0.0
H516 H 0.35509 0.06394 0.48651 0.0
H517 H 0.39986 0.12388 0.58581 0.0
H518 H 0.43815 0.09367 0.61037 0.0
H519 H 0.45809 0.05047 0.60428 0.0
H520 H 0.41279 -0.00956 0.50555 0.0
H521 H 0.37594 0.02106 0.47573 0.0
C522 C 0.37325 0.07026 0.51398 0.0
C523 C 0.37468 0.09575 0.53604 0.0
C524 C 0.39532 0.05316 0.52522 0.0
C525 C 0.39836 0.10415 0.56971 0.0
C526 C 0.42029 0.08703 0.58261 0.0
C527 C 0.44056 0.0441 0.57448 0.0
C528 C 0.43828 0.01808 0.55731 0.0
C529 C 0.41902 0.06156 0.5601 0.0
C530 C 0.41521 0.0103 0.51911 0.0
C531 C 0.39395 0.02773 0.50298 0.0
H532 H 0.48294 0.35998 0.51755 0.0
H533 H 0.56883 0.33765 0.51422 0.0
H534 H 0.58089 0.38081 0.54771 0.0
H535 H 0.56685 0.42533 0.57351 0.0
H536 H 0.48123 0.44801 0.55795 0.0
H537 H 0.46951 0.40455 0.52927 0.0
C538 C 0.50438 0.36451 0.52286 0.0
C539 C 0.52486 0.34555 0.51227 0.0
C540 C 0.51132 0.38968 0.53572 0.0
C541 C 0.55247 0.35167 0.52288 0.0
C542 C 0.55947 0.37652 0.54043 0.0
C543 C 0.54577 0.42096 0.56136 0.0
C544 C 0.52491 0.43983 0.5684 0.0
C545 C 0.53908 0.39581 0.54526 0.0
C546 C 0.49766 0.4338 0.55289 0.0
C547 C 0.49086 0.40887 0.53772 0.0
H548 H 0.11798 0.40427 0.43827 0.0
H549 H 0.1443 0.39289 0.65608 0.0
H550 H 0.11445 0.42857 0.69381 0.0
H551 H 0.08338 0.46409 0.66365 0.0
H552 H 0.05612 0.47592 0.44756 0.0
H553 H 0.08426 0.43862 0.40933 0.0
C554 C 0.11663 0.40911 0.49432 0.0
C555 C 0.13325 0.39587 0.54453 0.0
C556 C 0.09993 0.42994 0.51518 0.0
C557 C 0.13171 0.40277 0.61664 0.0
C558 C 0.11485 0.42324 0.63803 0.0
C559 C 0.08381 0.4586 0.60803 0.0
C560 C 0.06833 0.47278 0.55792 0.0
C561 C 0.09947 0.43724 0.58746 0.0
C562 C 0.06847 0.46546 0.48633 0.0
C563 C 0.08429 0.44409 0.46496 0.0
H564 H 0.04352 0.85356 0.95732 0.0
H565 H 0.96024 0.85797 0.88005 0.0
H566 H 0.96471 0.90325 0.85436 0.0
H567 H 0.99051 0.94118 0.86245 0.0
H568 H 0.07605 0.9375 0.92245 0.0
H569 H 0.07182 0.89216 0.95252 0.0
C570 C 0.02675 0.86435 0.93266 0.0
C571 C 1.00154 0.85276 0.92063 0.0
C572 C 0.02938 0.89044 0.91906 0.0
C573 C 0.97976 0.86672 0.88941 0.0
C574 C 0.98217 0.89258 0.87603 0.0
C575 C 0.00839 0.93077 0.88273 0.0
C576 C 0.0336 0.94287 0.89042 0.0
C577 C 0.00653 0.90467 0.89301 0.0
C578 C 0.05631 0.92877 0.91698 0.0
C579 C 0.05405 0.90278 0.93257 0.0
H580 H 0.65362 0.93547 0.94362 0.0
H581 H 0.60264 0.87152 0.90069 0.0
H582 H 0.563 0.90068 0.88297 0.0
H583 H 0.54309 0.94419 0.88206 0.0
H584 H 0.59455 0.00777 0.92856 0.0
H585 H 0.63368 0.9786 0.94538 0.0
C586 C 0.63396 0.92795 0.92861 0.0
C587 C 0.63106 0.90149 0.92189 0.0
C588 C 0.61125 0.94462 0.92168 0.0
C589 C 0.60534 0.89189 0.90484 0.0
C590 C 0.58269 0.9085 0.89573 0.0
C591 C 0.56271 0.95167 0.89746 0.0
C592 C 0.56574 0.97821 0.90406 0.0
C593 C 0.58535 0.93486 0.90527 0.0
C594 C 0.59139 0.98748 0.92394 0.0
C595 C 0.61395 0.97085 0.93236 0.0
H596 H 0.4631 0.6484 0.95804 0.0
H597 H 0.5481 0.63691 0.9001 0.0
H598 H 0.53997 0.59226 0.87248 0.0
H599 H 0.50972 0.55673 0.87178 0.0
H600 H 0.42361 0.56808 0.91988 0.0
H601 H 0.43161 0.61267 0.94952 0.0
C602 C 0.47959 0.63626 0.93724 0.0
C603 C 0.50614 0.64569 0.93081 0.0
C604 C 0.47489 0.61059 0.92333 0.0
C605 C 0.52753 0.62987 0.90498 0.0
C606 C 0.52297 0.60437 0.89039 0.0
C607 C 0.4926 0.56871 0.88964 0.0
C608 C 0.46605 0.559 0.89367 0.0
C609 C 0.49694 0.59445 0.90148 0.0
C610 C 0.44429 0.57497 0.91713 0.0
C611 C 0.44875 0.60056 0.93262 0.0
H612 H 0.9012 0.60268 0.92861 0.0
H613 H 0.83007 0.55784 0.88601 0.0
H614 H 0.85934 0.52045 0.86581 0.0
H615 H 0.90483 0.49961 0.86739 0.0
H616 H 0.97549 0.54309 0.92031 0.0
H617 H 0.94646 0.58154 0.93426 0.0
C618 C 0.89202 0.58475 0.91507 0.0
C619 C 0.86335 0.5833 0.90984 0.0
C620 C 0.90879 0.56276 0.90834 0.0
C621 C 0.85203 0.55996 0.88957 0.0
C622 C 0.86873 0.53825 0.87961 0.0
C623 C 0.91379 0.51725 0.88459 0.0
C624 C 0.94232 0.51854 0.89356 0.0
C625 C 0.89701 0.53926 0.89118 0.0
C626 C 0.9536 0.54175 0.91373 0.0
C627 C 0.93706 0.56373 0.92062 0.0
H628 H 0.98973 0.14362 0.04681 0.0
H629 H 0.05127 0.16829 0.90017 0.0
H630 H 0.04813 0.12807 0.83352 0.0
H631 H 0.02867 0.08443 0.82052 0.0
H632 H 0.97003 0.06026 0.97796 0.0
H633 H 0.97133 0.10115 0.0357 0.0
C634 C 1.00208 0.14034 0.99944 0.0
C635 C 0.02024 0.15904 0.97748 0.0
C636 C 1.001 0.11684 0.96363 0.0
C637 C 0.03672 0.15431 0.9172 0.0
C638 C 0.0351 0.1312 0.87959 0.0
C639 C 0.01651 0.08801 0.86796 0.0
C640 C 0.99942 0.0688 0.8944 0.0
C641 C 0.01759 0.11199 0.90298 0.0
C642 C 0.9836 0.07422 0.95582 0.0
C643 C 0.98413 0.09784 0.98923 0.0
H644 H 0.3794 0.09031 0.01956 0.0
H645 H 0.31556 0.03539 0.99651 0.0
H646 H 0.34408 0.01118 0.91336 0.0
H647 H 0.38787 0.00362 0.85337 0.0
H648 H 0.45346 0.05615 0.88176 0.0
H649 H 0.42376 0.08263 0.95882 0.0
C650 C 0.37166 0.07291 0.99723 0.0
C651 C 0.34505 0.06486 0.01554 0.0
C652 C 0.3887 0.05831 0.95114 0.0
C653 C 0.33551 0.04258 0.9834 0.0
C654 C 0.35203 0.02841 0.93624 0.0
C655 C 0.39585 0.02087 0.87616 0.0
C656 C 0.42309 0.02771 0.86172 0.0
C657 C 0.37877 0.03584 0.92073 0.0
C658 C 0.43276 0.05022 0.89211 0.0
C659 C 0.4157 0.06543 0.93604 0.0
H660 H 0.50427 0.36113 0.06507 0.0
H661 H 0.51202 0.31192 0.88228 0.0
H662 H 0.51024 0.34918 0.80295 0.0
H663 H 0.51063 0.39593 0.78677 0.0
H664 H 0.50103 0.44512 0.96888 0.0
H665 H 0.49923 0.40778 0.04777 0.0
C666 C 0.50527 0.35863 0.00776 0.0
C667 C 0.50856 0.33388 0.97932 0.0
C668 C 0.50395 0.38011 0.96271 0.0
C669 C 0.50949 0.33078 0.90515 0.0
C670 C 0.50859 0.35207 0.85996 0.0
C671 C 0.50747 0.39835 0.84361 0.0
C672 C 0.50572 0.42308 0.8723 0.0
C673 C 0.50635 0.37682 0.88822 0.0
C674 C 0.50194 0.4262 0.94584 0.0
C675 C 0.50118 0.40487 0.99083 0.0
H676 H 0.17131 0.43513 0.96296 0.0
H677 H 0.1087 0.40468 0.09811 0.0
H678 H 0.07307 0.42234 0.01928 0.0
H679 H 0.05943 0.45035 0.91691 0.0
H680 H 0.12321 0.4796 0.78242 0.0
H681 H 0.158 0.45839 0.85477 0.0
C682 C 0.14992 0.43191 0.97454 0.0
C683 C 0.14285 0.41904 0.03736 0.0
C684 C 0.12942 0.44227 0.92918 0.0
C685 C 0.11486 0.4151 0.05113 0.0
C686 C 0.09437 0.42516 0.00588 0.0
C687 C 0.08089 0.45186 0.90313 0.0
C688 C 0.08843 0.46727 0.84507 0.0
C689 C 0.10133 0.4395 0.94565 0.0
C690 C 0.11652 0.46857 0.82774 0.0
C691 C 0.13665 0.45629 0.86902 0.0
H692 H 0.97615 0.85821 0.42509 0.0
H693 H 0.03132 0.81155 0.55239 0.0
H694 H 0.03676 0.84694 0.63608 0.0
H695 H 0.02935 0.8925 0.66587 0.0
H696 H 0.97304 0.93886 0.54032 0.0
H697 H 0.9642 0.90227 0.46371 0.0
C698 C 0.98884 0.85568 0.47217 0.0
C699 C 0.00327 0.83229 0.48284 0.0
C700 C 0.99189 0.87617 0.51978 0.0
C701 C 0.0198 0.82924 0.5436 0.0
C702 C 0.02308 0.84957 0.591 0.0
C703 C 0.01494 0.89456 0.6221 0.0
C704 C 1.00222 0.9186 0.60819 0.0
C705 C 0.00981 0.87333 0.57855 0.0
C706 C 0.98322 0.92072 0.5521 0.0
C707 C 0.97824 0.89978 0.50809 0.0
H708 H 0.62491 0.9065 0.4477 0.0
H709 H 0.68967 0.95941 0.48495 0.0
H710 H 0.66091 0.9821 0.57113 0.0
H711 H 0.61636 -0.01063 0.62841 0.0
H712 H 0.55007 0.93894 0.58466 0.0
H713 H 0.58026 0.91346 0.50664 0.0
C714 C 0.63281 0.92314 0.47388 0.0
C715 C 0.65963 0.93121 0.45839 0.0
C716 C 0.61567 0.93689 0.52151 0.0
C717 C 0.66945 0.95235 0.49557 0.0
C718 C 0.65282 0.96563 0.54449 0.0
C719 C 0.60839 0.97276 0.60214 0.0
C720 C 0.58076 0.96628 0.61231 0.0
C721 C 0.62573 0.95842 0.55667 0.0
C722 C 0.57107 0.9446 0.57759 0.0
C723 C 0.58839 0.92996 0.53307 0.0
H724 H 0.51734 0.63148 0.40878 0.0
H725 H 0.48492 0.68359 0.56744 0.0
H726 H 0.47542 0.6477 0.64609 0.0
H727 H 0.47435 0.60134 0.66777 0.0
H728 H 0.5089 0.54933 0.51257 0.0
H729 H 0.51979 0.58536 0.43465 0.0
C730 C 0.50862 0.63511 0.46102 0.0
C731 C 0.50172 0.66038 0.48173 0.0
C732 C 0.50345 0.61434 0.50639 0.0
C733 C 0.49001 0.66445 0.54936 0.0
C734 C 0.48469 0.64391 0.59458 0.0
C735 C 0.48447 0.59798 0.61706 0.0
C736 C 0.49073 0.57279 0.59555 0.0
C737 C 0.49096 0.61878 0.57326 0.0
C738 C 0.50408 0.56858 0.53026 0.0
C739 C 0.51015 0.58917 0.48569 0.0
H740 H 0.88715 0.57338 0.39401 0.0
H741 H 0.81664 0.55516 0.52165 0.0
H742 H 0.84646 0.53435 0.60949 0.0
H743 H 0.89203 0.51948 0.6479 0.0
H744 H 0.9632 0.53851 0.52465 0.0
H745 H 0.93368 0.56144 0.43836 0.0
C746 C 0.87825 0.56521 0.44149 0.0
C747 C 0.84941 0.56559 0.45012 0.0
C748 C 0.89566 0.5534 0.49271 0.0
C749 C 0.83853 0.55466 0.51215 0.0
C750 C 0.85563 0.54288 0.56289 0.0
C751 C 0.90119 0.52869 0.60226 0.0
C752 C 0.92982 0.52694 0.59231 0.0
C753 C 0.88413 0.54177 0.55317 0.0
C754 C 0.94127 0.53948 0.53361 0.0
C755 C 0.92434 0.55249 0.48408 0.0
loop_
_geom_bond_atom_site_label_1
_geom_bond_atom_site_label_2
_geom_bond_distance
_geom_bond_site_symmetry_2
_ccdc_geom_bond_type
C0 C1 1.384 . S
C0 H13 0.947 . S
C0 C35 1.382 . S
C1 C0 1.384 . S
C1 C2 1.378 . S
C2 C1 1.378 . S
C2 C3 1.378 . S
C2 H14 0.952 . S
C3 C2 1.378 . S
C3 H15 0.950 . S
C3 C34 1.383 . S
H4 C23 0.947 . S
H5 C24 0.946 . S
H6 C26 0.953 . S
H7 C27 0.942 1_556 S
H8 C29 0.952 . S
H9 C30 0.949 . S
H10 C32 0.950 . S
H11 C33 0.948 . S
H12 C35 0.951 . S
H13 C0 0.947 . S
H14 C2 0.952 . S
H15 C3 0.950 . S
N16 C19 1.382 . S
N16 C21 1.363 . S
N17 C19 1.371 . S
N17 C20 1.372 . S
N18 C20 1.361 . S
N18 C21 1.377 . S
C19 N16 1.382 . S
C19 N17 1.371 . S
C19 C22 1.480 . S
C20 N17 1.372 . S
C20 N18 1.361 . S
C20 C28 1.450 1_554 S
C21 N16 1.363 . S
C21 N18 1.377 . S
C21 C34 1.479 . S
C22 C19 1.480 . S
C22 C23 1.383 . S
C22 C27 1.388 . S
C23 H4 0.947 . S
C23 C22 1.383 . S
C23 C24 1.388 . S
C24 H5 0.946 . S
C24 C23 1.388 . S
C24 C25 1.384 . S
C25 C24 1.384 . S
C25 C26 1.377 1_554 S
C26 H6 0.953 . S
C26 C25 1.377 1_556 S
C26 C27 1.368 1_556 S
C27 H7 0.942 1_554 S
C27 C22 1.388 . S
C27 C26 1.368 1_554 S
C28 C20 1.450 1_556 S
C28 C29 1.381 . S
C28 C33 1.361 1_556 S
C29 H8 0.952 . S
C29 C28 1.381 . S
C29 C30 1.389 . S
C30 H9 0.949 . S
C30 C29 1.389 . S
C30 C31 1.387 . S
C31 C30 1.387 . S
C31 C32 1.372 . S
C32 H10 0.950 . S
C32 C31 1.372 . S
C32 C33 1.379 1_556 S
C33 H11 0.948 . S
C33 C28 1.361 1_554 S
C33 C32 1.379 1_554 S
C34 C3 1.383 . S
C34 C21 1.479 . S
C34 C35 1.398 . S
C35 C0 1.382 . S
C35 H12 0.951 . S
C35 C34 1.398 . S
C36 C37 1.384 1_655 S
C36 H49 0.948 . S
C36 C71 1.382 1_655 S
C37 C36 1.384 1_455 S
C37 C38 1.378 . S
C38 C37 1.378 . S
C38 C39 1.378 . S
C38 H50 0.952 . S
C39 C38 1.378 . S
C39 H51 0.950 . S
C39 C70 1.383 . S
H40 C59 0.947 . S
H41 C60 0.952 . S
H42 C62 0.953 1_556 S
H43 C63 0.945 1_556 S
H44 C65 0.948 1_655 S
H45 C66 0.957 . S
H46 C68 0.950 . S
H47 C69 0.948 . S
H48 C71 0.951 1_655 S
H49 C36 0.948 . S
H50 C38 0.952 . S
H51 C39 0.950 . S
N52 C55 1.382 . S
N52 C57 1.363 . S
N53 C55 1.371 . S
N53 C56 1.372 . S
N54 C56 1.361 . S
N54 C57 1.377 . S
C55 N52 1.382 . S
C55 N53 1.371 . S
C55 C58 1.480 . S
C56 N53 1.372 . S
C56 N54 1.361 . S
C56 C64 1.457 . S
C57 N52 1.363 . S
C57 N54 1.377 . S
C57 C70 1.479 . S
C58 C55 1.480 . S
C58 C59 1.383 . S
C58 C63 1.385 . S
C59 H40 0.947 . S
C59 C58 1.383 . S
C59 C60 1.385 1_455 S
C60 H41 0.952 . S
C60 C59 1.385 1_655 S
C60 C61 1.382 1_655 S
C61 C60 1.382 1_455 S
C61 C62 1.377 . S
C62 H42 0.953 1_554 S
C62 C61 1.377 . S
C62 C63 1.369 . S
C63 H43 0.945 1_554 S
C63 C58 1.385 . S
C63 C62 1.369 . S
C64 C56 1.457 . S
C64 C65 1.377 1_554 S
C64 C69 1.364 . S
C65 H44 0.948 1_455 S
C65 C64 1.377 1_556 S
C65 C66 1.388 1_455 S
C66 H45 0.957 . S
C66 C65 1.388 1_655 S
C66 C67 1.382 1_655 S
C67 C66 1.382 1_455 S
C67 C68 1.372 . S
C68 H46 0.950 . S
C68 C67 1.372 . S
C68 C69 1.379 1_556 S
C69 H47 0.948 . S
C69 C64 1.364 . S
C69 C68 1.379 1_554 S
C70 C39 1.383 . S
C70 C57 1.479 . S
C70 C71 1.398 . S
C71 C36 1.382 1_455 S
C71 H48 0.951 1_455 S
C71 C70 1.398 . S
C72 C73 1.384 . S
C72 H85 0.947 . S
C72 C107 1.382 . S
C73 C72 1.384 . S
C73 C74 1.378 . S
C74 C73 1.378 . S
C74 C75 1.378 . S
C74 H86 0.952 . S
C75 C74 1.378 . S
C75 H87 0.950 . S
C75 C106 1.383 . S
H76 C95 0.947 . S
H77 C96 0.946 . S
H78 C98 0.953 . S
H79 C99 0.945 1_556 S
H80 C101 0.952 . S
H81 C102 0.949 . S
H82 C104 0.950 . S
H83 C105 0.948 . S
H84 C107 0.951 . S
H85 C72 0.947 . S
H86 C74 0.952 . S
H87 C75 0.950 . S
N88 C91 1.382 . S
N88 C93 1.363 . S
N89 C91 1.371 . S
N89 C92 1.372 . S
N90 C92 1.361 . S
N90 C93 1.377 . S
C91 N88 1.382 . S
C91 N89 1.371 . S
C91 C94 1.480 . S
C92 N89 1.372 . S
C92 N90 1.361 . S
C92 C100 1.457 . S
C93 N88 1.363 . S
C93 N90 1.377 . S
C93 C106 1.479 . S
C94 C91 1.480 . S
C94 C95 1.383 . S
C94 C99 1.385 . S
C95 H76 0.947 . S
C95 C94 1.383 . S
C95 C96 1.388 . S
C96 H77 0.946 . S
C96 C95 1.388 . S
C96 C97 1.384 . S
C97 C96 1.384 . S
C97 C98 1.377 1_554 S
C98 H78 0.953 . S
C98 C97 1.377 1_556 S
C98 C99 1.369 1_556 S
C99 H79 0.945 1_554 S
C99 C94 1.385 . S
C99 C98 1.369 1_554 S
C100 C92 1.457 . S
C100 C101 1.372 1_554 S
C100 C105 1.364 . S
C101 H80 0.952 . S
C101 C100 1.372 1_556 S
C101 C102 1.389 . S
C102 H81 0.949 . S
C102 C101 1.389 . S
C102 C103 1.387 . S
C103 C102 1.387 . S
C103 C104 1.372 . S
C104 H82 0.950 . S
C104 C103 1.372 . S
C104 C105 1.379 1_556 S
C105 H83 0.948 . S
C105 C100 1.364 . S
C105 C104 1.379 1_554 S
C106 C75 1.383 . S
C106 C93 1.479 . S
C106 C107 1.398 . S
C107 C72 1.382 . S
C107 H84 0.951 . S
C107 C106 1.398 . S
C108 C109 1.384 . S
C108 H121 0.945 1_556 S
C108 C143 1.382 1_556 S
C109 C108 1.384 . S
C109 C110 1.378 . S
C110 C109 1.378 . S
C110 C111 1.378 . S
C110 H122 0.952 . S
C111 C110 1.378 . S
C111 H123 0.950 . S
C111 C142 1.383 1_556 S
H112 C131 0.947 1_556 S
H113 C132 0.946 1_556 S
H114 C134 0.953 . S
H115 C135 0.945 . S
H116 C137 0.952 . S
H117 C138 0.949 . S
H118 C140 0.950 . S
H119 C141 0.948 . S
H120 C143 0.951 . S
H121 C108 0.945 1_554 S
H122 C110 0.952 . S
H123 C111 0.950 . S
N124 C127 1.382 . S
N124 C129 1.363 . S
N125 C127 1.371 . S
N125 C128 1.372 . S
N126 C128 1.361 . S
N126 C129 1.377 . S
C127 N124 1.382 . S
C127 N125 1.371 . S
C127 C130 1.480 . S
C128 N125 1.372 . S
C128 N126 1.361 . S
C128 C136 1.457 . S
C129 N124 1.363 . S
C129 N126 1.377 . S
C129 C142 1.479 . S
C130 C127 1.480 . S
C130 C131 1.383 . S
C130 C135 1.385 . S
C131 H112 0.947 1_554 S
C131 C130 1.383 . S
C131 C132 1.388 . S
C132 H113 0.946 1_554 S
C132 C131 1.388 . S
C132 C133 1.384 . S
C133 C132 1.384 . S
C133 C134 1.377 . S
C134 H114 0.953 . S
C134 C133 1.377 . S
C134 C135 1.369 . S
C135 H115 0.945 . S
C135 C130 1.385 . S
C135 C134 1.369 . S
C136 C128 1.457 . S
C136 C137 1.372 . S
C136 C141 1.364 . S
C137 H116 0.952 . S
C137 C136 1.372 . S
C137 C138 1.389 . S
C138 H117 0.949 . S
C138 C137 1.389 . S
C138 C139 1.387 . S
C139 C138 1.387 . S
C139 C140 1.372 . S
C140 H118 0.950 . S
C140 C139 1.372 . S
C140 C141 1.379 . S
C141 H119 0.948 . S
C141 C136 1.364 . S
C141 C140 1.379 . S
C142 C111 1.383 1_554 S
C142 C129 1.479 . S
C142 C143 1.398 . S
C143 C108 1.382 1_554 S
C143 H120 0.951 . S
C143 C142 1.398 . S
C144 C145 1.384 . S
C144 H157 0.947 . S
C144 C179 1.382 . S
C145 C144 1.384 . S
C145 C146 1.378 . S
C146 C145 1.378 . S
C146 C147 1.378 . S
C146 H158 0.952 . S
C147 C146 1.378 . S
C147 H159 0.950 . S
C147 C178 1.383 . S
H148 C167 0.947 . S
H149 C168 0.946 . S
H150 C170 0.953 . S
H151 C171 0.945 . S
H152 C173 0.952 . S
H153 C174 0.949 . S
H154 C176 0.950 . S
H155 C177 0.948 . S
H156 C179 0.951 . S
H157 C144 0.947 . S
H158 C146 0.952 . S
H159 C147 0.950 . S
N160 C163 1.382 . S
N160 C165 1.363 . S
N161 C163 1.371 . S
N161 C164 1.372 . S
N162 C164 1.361 . S
N162 C165 1.377 . S
C163 N160 1.382 . S
C163 N161 1.371 . S
C163 C166 1.480 . S
C164 N161 1.372 . S
C164 N162 1.361 . S
C164 C172 1.457 . S
C165 N160 1.363 . S
C165 N162 1.377 . S
C165 C178 1.479 . S
C166 C163 1.480 . S
C166 C167 1.383 . S
C166 C171 1.385 . S
C167 H148 0.947 . S
C167 C166 1.383 . S
C167 C168 1.388 . S
C168 H149 0.946 . S
C168 C167 1.388 . S
C168 C169 1.384 . S
C169 C168 1.384 . S
C169 C170 1.377 . S
C170 H150 0.953 . S
C170 C169 1.377 . S
C170 C171 1.369 . S
C171 H151 0.945 . S
C171 C166 1.385 . S
C171 C170 1.369 . S
C172 C164 1.457 . S
C172 C173 1.372 . S
C172 C177 1.364 . S
C173 H152 0.952 . S
C173 C172 1.372 . S
C173 C174 1.389 . S
C174 H153 0.949 . S
C174 C173 1.389 . S
C174 C175 1.387 . S
C175 C174 1.387 . S
C175 C176 1.372 . S
C176 H154 0.950 . S
C176 C175 1.372 . S
C176 C177 1.379 . S
C177 H155 0.948 . S
C177 C172 1.364 . S
C177 C176 1.379 . S
C178 C147 1.383 . S
C178 C165 1.479 . S
C178 C179 1.398 . S
C179 C144 1.382 . S
C179 H156 0.951 . S
C179 C178 1.398 . S
C180 C181 1.384 1_655 S
C180 H193 0.947 . S
C180 C215 1.382 1_655 S
C181 C180 1.384 1_455 S
C181 C182 1.378 . S
C182 C181 1.378 . S
C182 C183 1.378 . S
C182 H194 0.952 . S
C183 C182 1.378 . S
C183 H195 0.950 . S
C183 C214 1.383 . S
H184 C203 0.947 . S
H185 C204 0.949 . S
H186 C206 0.953 . S
H187 C207 0.945 . S
H188 C209 0.948 1_655 S
H189 C210 0.954 . S
H190 C212 0.950 . S
H191 C213 0.948 . S
H192 C215 0.950 1_655 S
H193 C180 0.947 . S
H194 C182 0.952 . S
H195 C183 0.950 . S
N196 C199 1.382 . S
N196 C201 1.363 . S
N197 C199 1.371 . S
N197 C200 1.372 . S
N198 C200 1.361 . S
N198 C201 1.377 . S
C199 N196 1.382 . S
C199 N197 1.371 . S
C199 C202 1.480 . S
C200 N197 1.372 . S
C200 N198 1.361 . S
C200 C208 1.457 . S
C201 N196 1.363 . S
C201 N198 1.377 . S
C201 C214 1.479 . S
C202 C199 1.480 . S
C202 C203 1.383 . S
C202 C207 1.385 . S
C203 H184 0.947 . S
C203 C202 1.383 . S
C203 C204 1.387 1_455 S
C204 H185 0.949 . S
C204 C203 1.387 1_655 S
C204 C205 1.382 1_655 S
C205 C204 1.382 1_455 S
C205 C206 1.377 . S
C206 H186 0.953 . S
C206 C205 1.377 . S
C206 C207 1.369 . S
C207 H187 0.945 . S
C207 C202 1.385 . S
C207 C206 1.369 . S
C208 C200 1.457 . S
C208 C209 1.379 . S
C208 C213 1.364 . S
C209 H188 0.948 1_455 S
C209 C208 1.379 . S
C209 C210 1.385 1_455 S
C210 H189 0.954 . S
C210 C209 1.385 1_655 S
C210 C211 1.384 1_655 S
C211 C210 1.384 1_455 S
C211 C212 1.372 . S
C212 H190 0.950 . S
C212 C211 1.372 . S
C212 C213 1.379 . S
C213 H191 0.948 . S
C213 C208 1.364 . S
C213 C212 1.379 . S
C214 C183 1.383 . S
C214 C201 1.479 . S
C214 C215 1.400 . S
C215 C180 1.382 1_455 S
C215 H192 0.950 1_455 S
C215 C214 1.400 . S
C216 C217 1.384 . S
C216 H229 0.947 . S
C216 C251 1.382 . S
C217 C216 1.384 . S
C217 C218 1.378 . S
C218 C217 1.378 . S
C218 C219 1.378 . S
C218 H230 0.952 . S
C219 C218 1.378 . S
C219 H231 0.950 . S
C219 C250 1.383 . S
H220 C239 0.947 . S
H221 C240 0.946 . S
H222 C242 0.953 . S
H223 C243 0.945 . S
H224 C245 0.952 . S
H225 C246 0.949 . S
H226 C248 0.950 . S
H227 C249 0.948 . S
H228 C251 0.951 . S
H229 C216 0.947 . S
H230 C218 0.952 . S
H231 C219 0.950 . S
N232 C235 1.382 . S
N232 C237 1.363 . S
N233 C235 1.371 . S
N233 C236 1.372 . S
N234 C236 1.361 . S
N234 C237 1.377 . S
C235 N232 1.382 . S
C235 N233 1.371 . S
C235 C238 1.480 . S
C236 N233 1.372 . S
C236 N234 1.361 . S
C236 C244 1.457 . S
C237 N232 1.363 . S
C237 N234 1.377 . S
C237 C250 1.479 . S
C238 C235 1.480 . S
C238 C239 1.383 . S
C238 C243 1.385 . S
C239 H220 0.947 . S
C239 C238 1.383 . S
C239 C240 1.388 . S
C240 H221 0.946 . S
C240 C239 1.388 . S
C240 C241 1.384 . S
C241 C240 1.384 . S
C241 C242 1.377 . S
C242 H222 0.953 . S
C242 C241 1.377 . S
C242 C243 1.369 . S
C243 H223 0.945 . S
C243 C238 1.385 . S
C243 C242 1.369 . S
C244 C236 1.457 . S
C244 C245 1.372 . S
C244 C249 1.364 . S
C245 H224 0.952 . S
C245 C244 1.372 . S
C245 C246 1.389 . S
C246 H225 0.949 . S
C246 C245 1.389 . S
C246 C247 1.387 . S
C247 C246 1.387 . S
C247 C248 1.372 . S
C248 H226 0.950 . S
C248 C247 1.372 . S
C248 C249 1.379 . S
C249 H227 0.948 . S
C249 C244 1.364 . S
C249 C248 1.379 . S
C250 C219 1.383 . S
C250 C237 1.479 . S
C250 C251 1.398 . S
C251 C216 1.382 . S
C251 H228 0.951 . S
C251 C250 1.398 . S
C252 C253 1.384 . S
C252 H265 0.947 . S
C252 C287 1.382 . S
C253 C252 1.384 . S
C253 C254 1.378 . S
C254 C253 1.378 . S
C254 C255 1.378 . S
C254 H266 0.952 . S
C255 C254 1.378 . S
C255 H267 0.950 . S
C255 C286 1.383 . S
H256 C275 0.947 . S
H257 C276 0.946 . S
H258 C278 0.953 . S
H259 C279 0.945 . S
H260 C281 0.952 . S
H261 C282 0.949 . S
H262 C284 0.950 . S
H263 C285 0.948 . S
H264 C287 0.951 . S
H265 C252 0.947 . S
H266 C254 0.952 . S
H267 C255 0.950 . S
N268 C271 1.382 . S
N268 C273 1.363 . S
N269 C271 1.371 . S
N269 C272 1.372 . S
N270 C272 1.361 . S
N270 C273 1.377 . S
C271 N268 1.382 . S
C271 N269 1.371 . S
C271 C274 1.480 . S
C272 N269 1.372 . S
C272 N270 1.361 . S
C272 C280 1.457 . S
C273 N268 1.363 . S
C273 N270 1.377 . S
C273 C286 1.479 . S
C274 C271 1.480 . S
C274 C275 1.383 . S
C274 C279 1.385 . S
C275 H256 0.947 . S
C275 C274 1.383 . S
C275 C276 1.388 . S
C276 H257 0.946 . S
C276 C275 1.388 . S
C276 C277 1.384 . S
C277 C276 1.384 . S
C277 C278 1.377 . S
C278 H258 0.953 . S
C278 C277 1.377 . S
C278 C279 1.369 . S
C279 H259 0.945 . S
C279 C274 1.385 . S
C279 C278 1.369 . S
C280 C272 1.457 . S
C280 C281 1.372 . S
C280 C285 1.364 . S
C281 H260 0.952 . S
C281 C280 1.372 . S
C281 C282 1.389 . S
C282 H261 0.949 . S
C282 C281 1.389 . S
C282 C283 1.387 . S
C283 C282 1.387 . S
C283 C284 1.372 . S
C284 H262 0.950 . S
C284 C283 1.372 . S
C284 C285 1.379 . S
C285 H263 0.948 . S
C285 C280 1.364 . S
C285 C284 1.379 . S
C286 C255 1.383 . S
C286 C273 1.479 . S
C286 C287 1.398 . S
C287 C252 1.382 . S
C287 H264 0.951 . S
C287 C286 1.398 . S
O288 Mg289 1.990 . S
O288 C302 1.253 . S
Mg289 O288 1.990 . S
Mg289 O292 2.180 1_565 S
Mg289 O293 2.117 . S
Mg289 O307 2.030 . S
O290 Mg291 2.072 1_465 S
O290 C302 1.260 . S
Mg291 O290 2.072 1_645 S
Mg291 O292 2.099 1_655 S
Mg291 O294 2.079 . S
Mg291 O295 2.072 1_655 S
Mg291 O297 2.099 . S
Mg291 O308 2.079 1_545 S
O292 Mg289 2.180 1_545 S
O292 Mg291 2.099 1_455 S
O292 C303 1.279 . S
O293 Mg289 2.117 . S
O293 C303 1.250 1_565 S
O294 Mg291 2.079 . S
O294 C304 1.264 . S
O295 Mg291 2.072 1_455 S
O295 C305 1.260 . S
Mg296 O297 2.180 . S
Mg296 O298 2.030 . S
Mg296 O299 1.990 . S
Mg296 O300 2.117 . S
O297 Mg291 2.099 . S
O297 Mg296 2.180 . S
O297 C306 1.279 . S
O298 Mg296 2.030 . S
O298 C304 1.248 . S
O299 Mg296 1.990 . S
O299 C305 1.253 1_655 S
O300 Mg296 2.117 . S
O300 C306 1.250 . S
C301 O307 1.248 1_655 S
C301 O308 1.264 . S
C302 O288 1.253 . S
C302 O290 1.260 . S
C303 O292 1.279 . S
C303 O293 1.250 1_545 S
C304 O294 1.264 . S
C304 O298 1.248 . S
C305 O295 1.260 . S
C305 O299 1.253 1_455 S
C306 O297 1.279 . S
C306 O300 1.250 . S
O307 Mg289 2.030 . S
O307 C301 1.248 1_455 S
O308 Mg291 2.079 1_565 S
O308 C301 1.264 . S
O309 Mg310 1.990 1_545 S
O309 C323 1.253 . S
Mg310 O309 1.990 1_565 S
Mg310 O313 2.180 . S
Mg310 O314 2.117 . S
Mg310 O328 2.030 1_565 S
O311 Mg312 2.072 . S
O311 C323 1.260 . S
Mg312 O311 2.072 . S
Mg312 O313 2.099 1_545 S
Mg312 O315 2.079 1_545 S
Mg312 O316 2.072 1_545 S
Mg312 O318 2.099 . S
Mg312 O329 2.079 . S
O313 Mg310 2.180 . S
O313 Mg312 2.099 1_565 S
O313 C324 1.279 . S
O314 Mg310 2.117 . S
O314 C324 1.250 . S
O315 Mg312 2.079 1_565 S
O315 C325 1.264 . S
O316 Mg312 2.072 1_565 S
O316 C326 1.260 1_565 S
Mg317 O318 2.180 . S
Mg317 O319 2.017 1_545 S
Mg317 O320 1.990 . S
Mg317 O321 2.117 . S
O318 Mg312 2.099 . S
O318 Mg317 2.180 . S
O318 C327 1.279 . S
O319 Mg317 2.017 1_565 S
O319 C325 1.256 . S
O320 Mg317 1.990 . S
O320 C326 1.253 . S
O321 Mg317 2.117 . S
O321 C327 1.250 . S
C322 O328 1.248 . S
C322 O329 1.264 . S
C323 O309 1.253 . S
C323 O311 1.260 . S
C324 O313 1.279 . S
C324 O314 1.250 . S
C325 O315 1.264 . S
C325 O319 1.256 . S
C326 O316 1.260 1_545 S
C326 O320 1.253 . S
C327 O318 1.279 . S
C327 O321 1.250 . S
O328 Mg310 2.030 1_545 S
O328 C322 1.248 . S
O329 Mg312 2.079 . S
O329 C322 1.264 . S
O330 Mg331 1.990 . S
O330 C344 1.253 . S
Mg331 O330 1.990 . S
Mg331 O334 2.180 . S
Mg331 O335 2.117 . S
Mg331 O349 2.030 . S
O332 Mg333 2.072 . S
O332 C344 1.260 . S
Mg333 O332 2.072 . S
Mg333 O334 2.099 . S
Mg333 O336 2.079 . S
Mg333 O337 2.072 . S
Mg333 O339 2.099 . S
Mg333 O350 2.079 . S
O334 Mg331 2.180 . S
O334 Mg333 2.099 . S
O334 C345 1.279 . S
O335 Mg331 2.117 . S
O335 C345 1.250 . S
O336 Mg333 2.079 . S
O336 C346 1.264 . S
O337 Mg333 2.072 . S
O337 C347 1.260 . S
Mg338 O339 2.180 . S
Mg338 O340 2.030 . S
Mg338 O341 1.990 . S
Mg338 O342 2.117 . S
O339 Mg333 2.099 . S
O339 Mg338 2.180 . S
O339 C348 1.279 . S
O340 Mg338 2.030 . S
O340 C346 1.248 . S
O341 Mg338 1.990 . S
O341 C347 1.253 . S
O342 Mg338 2.117 . S
O342 C348 1.250 . S
C343 O349 1.248 . S
C343 O350 1.264 . S
C344 O330 1.253 . S
C344 O332 1.260 . S
C345 O334 1.279 . S
C345 O335 1.250 . S
C346 O336 1.264 . S
C346 O340 1.248 . S
C347 O337 1.260 . S
C347 O341 1.253 . S
C348 O339 1.279 . S
C348 O342 1.250 . S
O349 Mg331 2.030 . S
O349 C343 1.248 . S
O350 Mg333 2.079 . S
O350 C343 1.264 . S
O351 Mg352 1.990 . S
O351 C365 1.253 . S
Mg352 O351 1.990 . S
Mg352 O355 2.180 . S
Mg352 O356 2.117 . S
Mg352 O370 2.030 . S
O353 Mg354 2.072 1_655 S
O353 C365 1.260 . S
Mg354 O353 2.072 1_455 S
Mg354 O355 2.099 1_455 S
Mg354 O357 2.079 . S
Mg354 O358 2.072 . S
Mg354 O360 2.099 . S
Mg354 O371 2.079 1_455 S
O355 Mg352 2.180 . S
O355 Mg354 2.099 1_655 S
O355 C366 1.279 . S
O356 Mg352 2.117 . S
O356 C366 1.250 . S
O357 Mg354 2.079 . S
O357 C367 1.264 . S
O358 Mg354 2.072 . S
O358 C368 1.260 . S
Mg359 O360 2.180 . S
Mg359 O361 2.030 . S
Mg359 O362 1.990 . S
Mg359 O363 2.117 . S
O360 Mg354 2.099 . S
O360 Mg359 2.180 . S
O360 C369 1.279 . S
O361 Mg359 2.030 . S
O361 C367 1.248 . S
O362 Mg359 1.990 . S
O362 C368 1.253 . S
O363 Mg359 2.117 . S
O363 C369 1.250 . S
C364 O370 1.248 . S
C364 O371 1.264 . S
C365 O351 1.253 . S
C365 O353 1.260 . S
C366 O355 1.279 . S
C366 O356 1.250 . S
C367 O357 1.264 . S
C367 O361 1.248 . S
C368 O358 1.260 . S
C368 O362 1.253 . S
C369 O360 1.279 . S
C369 O363 1.250 . S
O370 Mg352 2.030 . S
O370 C364 1.248 . S
O371 Mg354 2.079 1_655 S
O371 C364 1.264 . S
H372 C378 0.930 . S
H373 C381 0.930 . S
H374 C382 0.930 . S
H375 C383 0.930 . S
H376 C386 0.930 . S
H377 C387 0.930 . S
C378 H372 0.930 . S
C378 C379 1.355 . S
C378 C380 1.415 . S
C379 C378 1.355 . S
C379 C381 1.419 . S
C380 C378 1.415 . S
C380 C385 1.425 . S
C380 C387 1.409 . S
C381 H373 0.930 . S
C381 C379 1.419 . S
C381 C382 1.362 . S
C382 H374 0.930 . S
C382 C381 1.362 . S
C382 C385 1.409 . S
C383 H375 0.930 . S
C383 C384 1.355 . S
C383 C385 1.415 . S
C384 C383 1.355 . S
C384 C386 1.419 . S
C385 C380 1.425 . S
C385 C382 1.409 . S
C385 C383 1.415 . S
C386 H376 0.930 . S
C386 C384 1.419 . S
C386 C387 1.362 . S
C387 H377 0.930 . S
C387 C380 1.409 . S
C387 C386 1.362 . S
H388 C394 0.930 . S
H389 C397 0.930 . S
H390 C398 0.930 . S
H391 C399 0.930 . S
H392 C402 0.930 . S
H393 C403 0.930 . S
C394 H388 0.930 . S
C394 C395 1.355 . S
C394 C396 1.415 . S
C395 C394 1.355 . S
C395 C397 1.419 . S
C396 C394 1.415 . S
C396 C401 1.425 . S
C396 C403 1.409 . S
C397 H389 0.930 . S
C397 C395 1.419 . S
C397 C398 1.362 . S
C398 H390 0.930 . S
C398 C397 1.362 . S
C398 C401 1.409 . S
C399 H391 0.930 . S
C399 C400 1.355 . S
C399 C401 1.415 . S
C400 C399 1.355 . S
C400 C402 1.419 . S
C401 C396 1.425 . S
C401 C398 1.409 . S
C401 C399 1.415 . S
C402 H392 0.930 . S
C402 C400 1.419 . S
C402 C403 1.362 . S
C403 H393 0.930 . S
C403 C396 1.409 . S
C403 C402 1.362 . S
H404 C410 0.930 . S
H405 C413 0.930 . S
H406 C414 0.930 . S
H407 C415 0.930 . S
H408 C418 0.930 . S
H409 C419 0.930 . S
C410 H404 0.930 . S
C410 C411 1.355 . S
C410 C412 1.415 . S
C411 C410 1.355 . S
C411 C413 1.419 . S
C412 C410 1.415 . S
C412 C417 1.425 . S
C412 C419 1.409 . S
C413 H405 0.930 . S
C413 C411 1.419 . S
C413 C414 1.362 . S
C414 H406 0.930 . S
C414 C413 1.362 . S
C414 C417 1.409 . S
C415 H407 0.930 . S
C415 C416 1.355 . S
C415 C417 1.415 . S
C416 C415 1.355 . S
C416 C418 1.419 . S
C417 C412 1.425 . S
C417 C414 1.409 . S
C417 C415 1.415 . S
C418 H408 0.930 . S
C418 C416 1.419 . S
C418 C419 1.362 . S
C419 H409 0.930 . S
C419 C412 1.409 . S
C419 C418 1.362 . S
H420 C426 0.930 . S
H421 C429 0.930 . S
H422 C430 0.930 . S
H423 C431 0.930 . S
H424 C434 0.930 . S
H425 C435 0.930 . S
C426 H420 0.930 . S
C426 C427 1.355 1_455 S
C426 C428 1.415 . S
C427 C426 1.355 1_655 S
C427 C429 1.419 . S
C428 C426 1.415 . S
C428 C433 1.425 1_455 S
C428 C435 1.409 . S
C429 H421 0.930 . S
C429 C427 1.419 . S
C429 C430 1.362 . S
C430 H422 0.930 . S
C430 C429 1.362 . S
C430 C433 1.409 . S
C431 H423 0.930 . S
C431 C432 1.355 . S
C431 C433 1.415 . S
C432 C431 1.355 . S
C432 C434 1.419 1_655 S
C433 C428 1.425 1_655 S
C433 C430 1.409 . S
C433 C431 1.415 . S
C434 H424 0.930 . S
C434 C432 1.419 1_455 S
C434 C435 1.362 . S
C435 H425 0.930 . S
C435 C428 1.409 . S
C435 C434 1.362 . S
H436 C442 0.930 . S
H437 C445 0.930 1_554 S
H438 C446 0.930 . S
H439 C447 0.930 . S
H440 C450 0.930 1_545 S
H441 C451 0.930 . S
C442 H436 0.930 . S
C442 C443 1.355 . S
C442 C444 1.415 . S
C443 C442 1.355 . S
C443 C445 1.419 . S
C444 C442 1.415 . S
C444 C449 1.425 . S
C444 C451 1.409 . S
C445 H437 0.930 1_556 S
C445 C443 1.419 . S
C445 C446 1.362 . S
C446 H438 0.930 . S
C446 C445 1.362 . S
C446 C449 1.409 . S
C447 H439 0.930 . S
C447 C448 1.355 . S
C447 C449 1.415 . S
C448 C447 1.355 . S
C448 C450 1.419 . S
C449 C444 1.425 . S
C449 C446 1.409 . S
C449 C447 1.415 . S
C450 H440 0.930 1_565 S
C450 C448 1.419 . S
C450 C451 1.362 . S
C451 H441 0.930 . S
C451 C444 1.409 . S
C451 C450 1.362 . S
H452 C458 0.930 . S
H453 C461 0.930 . S
H454 C462 0.930 . S
H455 C463 0.930 . S
H456 C466 0.930 . S
H457 C467 0.930 . S
C458 H452 0.930 . S
C458 C459 1.355 1_556 S
C458 C460 1.415 . S
C459 C458 1.355 1_554 S
C459 C461 1.419 . S
C460 C458 1.415 . S
C460 C465 1.425 . S
C460 C467 1.409 . S
C461 H453 0.930 . S
C461 C459 1.419 . S
C461 C462 1.362 1_554 S
C462 H454 0.930 . S
C462 C461 1.362 1_556 S
C462 C465 1.409 . S
C463 H455 0.930 . S
C463 C464 1.355 . S
C463 C465 1.415 . S
C464 C463 1.355 . S
C464 C466 1.419 . S
C465 C460 1.425 . S
C465 C462 1.409 . S
C465 C463 1.415 . S
C466 H456 0.930 . S
C466 C464 1.419 . S
C466 C467 1.362 . S
C467 H457 0.930 . S
C467 C460 1.409 . S
C467 C466 1.362 . S
H468 C474 0.918 1_554 S
H469 C477 0.930 . S
H470 C478 0.930 . S
H471 C479 0.930 . S
H472 C482 0.930 . S
H473 C483 0.930 1_554 S
C474 H468 0.918 1_556 S
C474 C475 1.357 . S
C474 C476 1.424 . S
C475 C474 1.357 . S
C475 C477 1.419 . S
C476 C474 1.424 . S
C476 C481 1.425 . S
C476 C483 1.409 . S
C477 H469 0.930 . S
C477 C475 1.419 . S
C477 C478 1.362 . S
C478 H470 0.930 . S
C478 C477 1.362 . S
C478 C481 1.409 . S
C479 H471 0.930 . S
C479 C480 1.355 . S
C479 C481 1.415 . S
C480 C479 1.355 . S
C480 C482 1.419 . S
C481 C476 1.425 . S
C481 C478 1.409 . S
C481 C479 1.415 . S
C482 H472 0.930 . S
C482 C480 1.419 . S
C482 C483 1.362 . S
C483 H473 0.930 1_556 S
C483 C476 1.409 . S
C483 C482 1.362 . S
H484 C490 0.930 . S
H485 C493 0.930 . S
H486 C494 0.930 1_554 S
H487 C495 0.930 . S
H488 C498 0.930 . S
H489 C499 0.930 . S
C490 H484 0.930 . S
C490 C491 1.355 1_456 S
C490 C492 1.415 . S
C491 C490 1.355 1_654 S
C491 C493 1.419 . S
C492 C490 1.415 . S
C492 C497 1.425 1_455 S
C492 C499 1.409 . S
C493 H485 0.930 . S
C493 C491 1.419 . S
C493 C494 1.362 1_554 S
C494 H486 0.930 1_556 S
C494 C493 1.362 1_556 S
C494 C497 1.409 . S
C495 H487 0.930 . S
C495 C496 1.355 1_655 S
C495 C497 1.415 . S
C496 C495 1.355 1_455 S
C496 C498 1.419 . S
C497 C492 1.425 1_655 S
C497 C494 1.409 . S
C497 C495 1.415 . S
C498 H488 0.930 . S
C498 C496 1.419 . S
C498 C499 1.362 . S
C499 H489 0.930 . S
C499 C492 1.409 . S
C499 C498 1.362 . S
H500 C506 0.930 . S
H501 C509 0.930 . S
H502 C510 0.930 . S
H503 C511 0.930 . S
H504 C514 0.930 . S
H505 C515 0.930 . S
C506 H500 0.930 . S
C506 C507 1.355 1_655 S
C506 C508 1.415 . S
C507 C506 1.355 1_455 S
C507 C509 1.419 . S
C508 C506 1.415 . S
C508 C513 1.425 1_655 S
C508 C515 1.409 . S
C509 H501 0.930 . S
C509 C507 1.419 . S
C509 C510 1.362 . S
C510 H502 0.930 . S
C510 C509 1.362 . S
C510 C513 1.409 . S
C511 H503 0.930 . S
C511 C512 1.355 1_455 S
C511 C513 1.415 . S
C512 C511 1.355 1_655 S
C512 C514 1.419 . S
C513 C508 1.425 1_455 S
C513 C510 1.409 . S
C513 C511 1.415 . S
C514 H504 0.930 . S
C514 C512 1.419 . S
C514 C515 1.362 . S
C515 H505 0.930 . S
C515 C508 1.409 . S
C515 C514 1.362 . S
H516 C522 0.930 . S
H517 C525 0.930 . S
H518 C526 0.930 . S
H519 C527 0.930 . S
H520 C530 0.930 1_565 S
H521 C531 0.930 . S
C522 H516 0.930 . S
C522 C523 1.355 . S
C522 C524 1.415 . S
C523 C522 1.355 . S
C523 C525 1.419 . S
C524 C522 1.415 . S
C524 C529 1.425 . S
C524 C531 1.409 . S
C525 H517 0.930 . S
C525 C523 1.419 . S
C525 C526 1.362 . S
C526 H518 0.930 . S
C526 C525 1.362 . S
C526 C529 1.409 . S
C527 H519 0.930 . S
C527 C528 1.355 . S
C527 C529 1.415 . S
C528 C527 1.355 . S
C528 C530 1.419 . S
C529 C524 1.425 . S
C529 C526 1.409 . S
C529 C527 1.415 . S
C530 H520 0.930 1_545 S
C530 C528 1.419 . S
C530 C531 1.362 . S
C531 H521 0.930 . S
C531 C524 1.409 . S
C531 C530 1.362 . S
H532 C538 0.930 . S
H533 C541 0.930 . S
H534 C542 0.930 . S
H535 C543 0.930 . S
H536 C546 0.930 . S
H537 C547 0.930 . S
C538 H532 0.930 . S
C538 C539 1.355 . S
C538 C540 1.415 . S
C539 C538 1.355 . S
C539 C541 1.419 . S
C540 C538 1.415 . S
C540 C545 1.425 . S
C540 C547 1.409 . S
C541 H533 0.930 . S
C541 C539 1.419 . S
C541 C542 1.362 . S
C542 H534 0.930 . S
C542 C541 1.362 . S
C542 C545 1.409 . S
C543 H535 0.930 . S
C543 C544 1.355 . S
C543 C545 1.415 . S
C544 C543 1.355 . S
C544 C546 1.419 . S
C545 C540 1.425 . S
C545 C542 1.409 . S
C545 C543 1.415 . S
C546 H536 0.930 . S
C546 C544 1.419 . S
C546 C547 1.362 . S
C547 H537 0.930 . S
C547 C540 1.409 . S
C547 C546 1.362 . S
H548 C554 0.930 . S
H549 C557 0.930 . S
H550 C558 0.930 . S
H551 C559 0.930 . S
H552 C562 0.930 . S
H553 C563 0.930 . S
C554 H548 0.930 . S
C554 C555 1.355 . S
C554 C556 1.415 . S
C555 C554 1.355 . S
C555 C557 1.419 . S
C556 C554 1.415 . S
C556 C561 1.425 . S
C556 C563 1.409 . S
C557 H549 0.930 . S
C557 C555 1.419 . S
C557 C558 1.362 . S
C558 H550 0.930 . S
C558 C557 1.362 . S
C558 C561 1.409 . S
C559 H551 0.930 . S
C559 C560 1.355 . S
C559 C561 1.415 . S
C560 C559 1.355 . S
C560 C562 1.419 . S
C561 C556 1.425 . S
C561 C558 1.409 . S
C561 C559 1.415 . S
C562 H552 0.930 . S
C562 C560 1.419 . S
C562 C563 1.362 . S
C563 H553 0.930 . S
C563 C556 1.409 . S
C563 C562 1.362 . S
H564 C570 0.930 . S
H565 C573 0.930 . S
H566 C574 0.930 . S
H567 C575 0.930 . S
H568 C578 0.930 . S
H569 C579 0.930 . S
C570 H564 0.930 . S
C570 C571 1.355 1_455 S
C570 C572 1.415 . S
C571 C570 1.355 1_655 S
C571 C573 1.419 . S
C572 C570 1.415 . S
C572 C577 1.425 1_455 S
C572 C579 1.409 . S
C573 H565 0.930 . S
C573 C571 1.419 . S
C573 C574 1.362 . S
C574 H566 0.930 . S
C574 C573 1.362 . S
C574 C577 1.409 . S
C575 H567 0.930 . S
C575 C576 1.355 1_655 S
C575 C577 1.415 . S
C576 C575 1.355 1_455 S
C576 C578 1.419 . S
C577 C572 1.425 1_655 S
C577 C574 1.409 . S
C577 C575 1.415 . S
C578 H568 0.930 . S
C578 C576 1.419 . S
C578 C579 1.362 . S
C579 H569 0.930 . S
C579 C572 1.409 . S
C579 C578 1.362 . S
H580 C586 0.930 . S
H581 C589 0.930 . S
H582 C590 0.930 . S
H583 C591 0.930 . S
H584 C594 0.930 1_545 S
H585 C595 0.930 . S
C586 H580 0.930 . S
C586 C587 1.355 . S
C586 C588 1.415 . S
C587 C586 1.355 . S
C587 C589 1.419 . S
C588 C586 1.415 . S
C588 C593 1.425 . S
C588 C595 1.409 . S
C589 H581 0.930 . S
C589 C587 1.419 . S
C589 C590 1.362 . S
C590 H582 0.930 . S
C590 C589 1.362 . S
C590 C593 1.409 . S
C591 H583 0.930 . S
C591 C592 1.355 . S
C591 C593 1.415 . S
C592 C591 1.355 . S
C592 C594 1.419 . S
C593 C588 1.425 . S
C593 C590 1.409 . S
C593 C591 1.415 . S
C594 H584 0.930 1_565 S
C594 C592 1.419 . S
C594 C595 1.362 . S
C595 H585 0.930 . S
C595 C588 1.409 . S
C595 C594 1.362 . S
H596 C602 0.930 . S
H597 C605 0.930 . S
H598 C606 0.930 . S
H599 C607 0.930 . S
H600 C610 0.930 . S
H601 C611 0.930 . S
C602 H596 0.930 . S
C602 C603 1.355 . S
C602 C604 1.415 . S
C603 C602 1.355 . S
C603 C605 1.419 . S
C604 C602 1.415 . S
C604 C609 1.425 . S
C604 C611 1.409 . S
C605 H597 0.930 . S
C605 C603 1.419 . S
C605 C606 1.362 . S
C606 H598 0.930 . S
C606 C605 1.362 . S
C606 C609 1.409 . S
C607 H599 0.930 . S
C607 C608 1.355 . S
C607 C609 1.415 . S
C608 C607 1.355 . S
C608 C610 1.419 . S
C609 C604 1.425 . S
C609 C606 1.409 . S
C609 C607 1.415 . S
C610 H600 0.930 . S
C610 C608 1.419 . S
C610 C611 1.362 . S
C611 H601 0.930 . S
C611 C604 1.409 . S
C611 C610 1.362 . S
H612 C618 0.930 . S
H613 C621 0.930 . S
H614 C622 0.930 . S
H615 C623 0.930 . S
H616 C626 0.930 . S
H617 C627 0.930 . S
C618 H612 0.930 . S
C618 C619 1.355 . S
C618 C620 1.415 . S
C619 C618 1.355 . S
C619 C621 1.419 . S
C620 C618 1.415 . S
C620 C625 1.425 . S
C620 C627 1.409 . S
C621 H613 0.930 . S
C621 C619 1.419 . S
C621 C622 1.362 . S
C622 H614 0.930 . S
C622 C621 1.362 . S
C622 C625 1.409 . S
C623 H615 0.930 . S
C623 C624 1.355 . S
C623 C625 1.415 . S
C624 C623 1.355 . S
C624 C626 1.419 . S
C625 C620 1.425 . S
C625 C622 1.409 . S
C625 C623 1.415 . S
C626 H616 0.930 . S
C626 C624 1.419 . S
C626 C627 1.362 . S
C627 H617 0.930 . S
C627 C620 1.409 . S
C627 C626 1.362 . S
H628 C634 0.930 1_554 S
H629 C637 0.930 . S
H630 C638 0.930 . S
H631 C639 0.930 . S
H632 C642 0.930 . S
H633 C643 0.930 1_554 S
C634 H628 0.930 1_556 S
C634 C635 1.355 1_655 S
C634 C636 1.415 . S
C635 C634 1.355 1_455 S
C635 C637 1.419 . S
C636 C634 1.415 . S
C636 C641 1.425 1_655 S
C636 C643 1.409 . S
C637 H629 0.930 . S
C637 C635 1.419 . S
C637 C638 1.362 . S
C638 H630 0.930 . S
C638 C637 1.362 . S
C638 C641 1.409 . S
C639 H631 0.930 . S
C639 C640 1.355 . S
C639 C641 1.415 . S
C640 C639 1.355 . S
C640 C642 1.419 1_455 S
C641 C636 1.425 1_455 S
C641 C638 1.409 . S
C641 C639 1.415 . S
C642 H632 0.930 . S
C642 C640 1.419 1_655 S
C642 C643 1.362 . S
C643 H633 0.930 1_556 S
C643 C636 1.409 . S
C643 C642 1.362 . S
H644 C650 0.930 . S
H645 C653 0.930 . S
H646 C654 0.930 . S
H647 C655 0.930 . S
H648 C658 0.930 . S
H649 C659 0.930 . S
C650 H644 0.930 . S
C650 C651 1.355 . S
C650 C652 1.415 . S
C651 C650 1.355 . S
C651 C653 1.419 . S
C652 C650 1.415 . S
C652 C657 1.425 . S
C652 C659 1.409 . S
C653 H645 0.930 . S
C653 C651 1.419 . S
C653 C654 1.362 . S
C654 H646 0.930 . S
C654 C653 1.362 . S
C654 C657 1.409 . S
C655 H647 0.930 . S
C655 C656 1.355 . S
C655 C657 1.415 . S
C656 C655 1.355 . S
C656 C658 1.419 . S
C657 C652 1.425 . S
C657 C654 1.409 . S
C657 C655 1.415 . S
C658 H648 0.930 . S
C658 C656 1.419 . S
C658 C659 1.362 . S
C659 H649 0.930 . S
C659 C652 1.409 . S
C659 C658 1.362 . S
H660 C666 0.930 . S
H661 C669 0.930 . S
H662 C670 0.930 . S
H663 C671 0.930 . S
H664 C674 0.930 . S
H665 C675 0.930 1_554 S
C666 H660 0.930 . S
C666 C667 1.355 1_554 S
C666 C668 1.415 1_554 S
C667 C666 1.355 1_556 S
C667 C669 1.419 . S
C668 C666 1.415 1_556 S
C668 C673 1.425 . S
C668 C675 1.409 . S
C669 H661 0.930 . S
C669 C667 1.419 . S
C669 C670 1.362 . S
C670 H662 0.930 . S
C670 C669 1.362 . S
C670 C673 1.409 . S
C671 H663 0.930 . S
C671 C672 1.355 . S
C671 C673 1.415 . S
C672 C671 1.355 . S
C672 C674 1.419 . S
C673 C668 1.425 . S
C673 C670 1.409 . S
C673 C671 1.415 . S
C674 H664 0.930 . S
C674 C672 1.419 . S
C674 C675 1.362 . S
C675 H665 0.930 1_556 S
C675 C668 1.409 . S
C675 C674 1.362 . S
H676 C682 0.930 . S
H677 C685 0.930 . S
H678 C686 0.930 . S
H679 C687 0.930 . S
H680 C690 0.930 . S
H681 C691 0.930 . S
C682 H676 0.930 . S
C682 C683 1.350 1_556 S
C682 C684 1.415 . S
C683 C682 1.350 1_554 S
C683 C685 1.422 . S
C684 C682 1.415 . S
C684 C689 1.425 . S
C684 C691 1.409 . S
C685 H677 0.930 . S
C685 C683 1.422 . S
C685 C686 1.362 . S
C686 H678 0.930 . S
C686 C685 1.362 . S
C686 C689 1.409 1_554 S
C687 H679 0.930 . S
C687 C688 1.355 . S
C687 C689 1.415 . S
C688 C687 1.355 . S
C688 C690 1.419 . S
C689 C684 1.425 . S
C689 C686 1.409 1_556 S
C689 C687 1.415 . S
C690 H680 0.930 . S
C690 C688 1.419 . S
C690 C691 1.362 . S
C691 H681 0.930 . S
C691 C684 1.409 . S
C691 C690 1.362 . S
H692 C698 0.930 . S
H693 C701 0.930 . S
H694 C702 0.930 . S
H695 C703 0.941 . S
H696 C706 0.930 . S
H697 C707 0.930 . S
C698 H692 0.930 . S
C698 C699 1.351 1_655 S
C698 C700 1.415 . S
C699 C698 1.351 1_455 S
C699 C701 1.423 . S
C700 C698 1.415 . S
C700 C705 1.425 1_655 S
C700 C707 1.409 . S
C701 H693 0.930 . S
C701 C699 1.423 . S
C701 C702 1.362 . S
C702 H694 0.930 . S
C702 C701 1.362 . S
C702 C705 1.409 . S
C703 H695 0.941 . S
C703 C704 1.344 1_455 S
C703 C705 1.415 . S
C704 C703 1.344 1_655 S
C704 C706 1.419 . S
C705 C700 1.425 1_455 S
C705 C702 1.409 . S
C705 C703 1.415 . S
C706 H696 0.930 . S
C706 C704 1.419 . S
C706 C707 1.362 . S
C707 H697 0.930 . S
C707 C700 1.409 . S
C707 C706 1.362 . S
H708 C714 0.930 . S
H709 C717 0.930 . S
H710 C718 0.930 . S
H711 C719 0.930 . S
H712 C722 0.930 . S
H713 C723 0.930 . S
C714 H708 0.930 . S
C714 C715 1.355 . S
C714 C716 1.415 . S
C715 C714 1.355 . S
C715 C717 1.419 . S
C716 C714 1.415 . S
C716 C721 1.425 . S
C716 C723 1.409 . S
C717 H709 0.930 . S
C717 C715 1.419 . S
C717 C718 1.362 . S
C718 H710 0.930 . S
C718 C717 1.362 . S
C718 C721 1.409 . S
C719 H711 0.930 . S
C719 C720 1.355 . S
C719 C721 1.415 . S
C720 C719 1.355 . S
C720 C722 1.419 . S
C721 C716 1.425 . S
C721 C718 1.409 . S
C721 C719 1.415 . S
C722 H712 0.930 . S
C722 C720 1.419 . S
C722 C723 1.362 . S
C723 H713 0.930 . S
C723 C716 1.409 . S
C723 C722 1.362 . S
H724 C730 0.930 . S
H725 C733 0.930 . S
H726 C734 0.930 . S
H727 C735 0.930 . S
H728 C738 0.930 . S
H729 C739 0.930 . S
C730 H724 0.930 . S
C730 C731 1.355 . S
C730 C732 1.415 . S
C731 C730 1.355 . S
C731 C733 1.419 . S
C732 C730 1.415 . S
C732 C737 1.425 . S
C732 C739 1.409 . S
C733 H725 0.930 . S
C733 C731 1.419 . S
C733 C734 1.362 . S
C734 H726 0.930 . S
C734 C733 1.362 . S
C734 C737 1.409 . S
C735 H727 0.930 . S
C735 C736 1.355 . S
C735 C737 1.415 . S
C736 C735 1.355 . S
C736 C738 1.419 . S
C737 C732 1.425 . S
C737 C734 1.409 . S
C737 C735 1.415 . S
C738 H728 0.930 . S
C738 C736 1.419 . S
C738 C739 1.362 . S
C739 H729 0.930 . S
C739 C732 1.409 . S
C739 C738 1.362 . S
H740 C746 0.930 . S
H741 C749 0.930 . S
H742 C750 0.930 . S
H743 C751 0.930 . S
H744 C754 0.930 . S
H745 C755 0.930 . S
C746 H740 0.930 . S
C746 C747 1.355 . S
C746 C748 1.415 . S
C747 C746 1.355 . S
C747 C749 1.419 . S
C748 C746 1.415 . S
C748 C753 1.425 . S
C748 C755 1.409 . S
C749 H741 0.930 . S
C749 C747 1.419 . S
C749 C750 1.362 . S
C750 H742 0.930 . S
C750 C749 1.362 . S
C750 C753 1.409 . S
C751 H743 0.930 . S
C751 C752 1.355 . S
C751 C753 1.415 . S
C752 C751 1.355 . S
C752 C754 1.419 . S
C753 C748 1.425 . S
C753 C750 1.409 . S
C753 C751 1.415 . S
C754 H744 0.930 . S
C754 C752 1.419 . S
C754 C755 1.362 . S
C755 H745 0.930 . S
C755 C748 1.409 . S
C755 C754 1.362 . S
C379 C241 2.025 . S
C384 C303 1.948 . S
C400 C327 1.394 . S
C395 C277 1.667 . S
C416 C348 1.980 . S
C411 C169 1.996 . S
C432 C366 1.544 . S
C427 C205 1.652 1_655 S
C448 C306 1.835 1_565 S
C443 C97 1.858 1_556 S
C459 C133 1.552 . S
C464 C324 1.391 . S
C475 C25 1.769 1_556 S
C480 C345 1.811 . S
C491 C61 1.530 1_655 S
C496 C369 1.333 . S
C512 C304 0.625 . S
C507 C211 0.605 . S
C528 C322 0.989 . S
C523 C247 0.997 . S
C544 C343 0.434 . S
C539 C253 0.418 . S
C555 C175 0.959 . S
C560 C367 0.998 . S
C571 C67 0.653 1_655 S
C576 C302 0.561 . S
C592 C326 0.980 1_565 S
C587 C103 0.910 . S
C608 C347 0.508 . S
C603 C109 0.524 . S
C619 C31 0.826 . S
C624 C365 0.992 . S
C635 C181 1.960 1_556 S
C640 C305 1.940 . S
C651 C217 2.181 1_556 S
C656 C323 2.227 . S
C672 C344 1.927 . S
C667 C283 1.934 1_556 S
C688 C368 2.197 . S
C683 C145 2.158 . S
C699 C37 1.865 . S
C704 C301 1.875 . S
C720 C325 2.090 . S
C715 C73 2.002 . S
C736 C346 1.838 . S
C731 C139 1.808 . S
C747 C1 2.038 . S
C752 C364 2.111 . S
