# Generated by pormake.
# Topology nom, (4,4)-cn, num edge types: 1
# Building blocks:
#     Node 0, Type 0, BuildingBlock: NAHDIM_clean_linker_0, # of connection points: 4
#     Node 1, Type 0, BuildingBlock: NAHDIM_clean_linker_0, # of connection points: 4
#     Node 2, Type 0, BuildingBlock: NAHDIM_clean_linker_0, # of connection points: 4
#     Node 3, Type 0, BuildingBlock: NAHDIM_clean_linker_0, # of connection points: 4
#     Node 4, Type 0, BuildingBlock: NAHDIM_clean_linker_0, # of connection points: 4
#     Node 5, Type 0, BuildingBlock: NAHDIM_clean_linker_0, # of connection points: 4
#     Node 6, Type 1, BuildingBlock: UXUYUI_clean_sbu_0, # of connection points: 4
#     Node 7, Type 1, BuildingBlock: UXUYUI_clean_sbu_0, # of connection points: 4
#     Node 8, Type 1, BuildingBlock: UXUYUI_clean_sbu_0, # of connection points: 4
#     Node 9, Type 1, BuildingBlock: UXUYUI_clean_sbu_0, # of connection points: 4
#     Node 10, Type 1, BuildingBlock: UXUYUI_clean_sbu_0, # of connection points: 4
#     Node 11, Type 1, BuildingBlock: UXUYUI_clean_sbu_0, # of connection points: 4
#     Edge 12, Type (0, 1), BuildingBlock: MIFKUJ_clean_linker_0, # of connection points: 2
#     Edge 13, Type (0, 1), BuildingBlock: MIFKUJ_clean_linker_0, # of connection points: 2
#     Edge 14, Type (0, 1), BuildingBlock: MIFKUJ_clean_linker_0, # of connection points: 2
#     Edge 15, Type (0, 1), BuildingBlock: MIFKUJ_clean_linker_0, # of connection points: 2
#     Edge 16, Type (0, 1), BuildingBlock: MIFKUJ_clean_linker_0, # of connection points: 2
#     Edge 17, Type (0, 1), BuildingBlock: MIFKUJ_clean_linker_0, # of connection points: 2
#     Edge 18, Type (0, 1), BuildingBlock: MIFKUJ_clean_linker_0, # of connection points: 2
#     Edge 19, Type (0, 1), BuildingBlock: MIFKUJ_clean_linker_0, # of connection points: 2
#     Edge 20, Type (0, 1), BuildingBlock: MIFKUJ_clean_linker_0, # of connection points: 2
#     Edge 21, Type (0, 1), BuildingBlock: MIFKUJ_clean_linker_0, # of connection points: 2
#     Edge 22, Type (0, 1), BuildingBlock: MIFKUJ_clean_linker_0, # of connection points: 2
#     Edge 23, Type (0, 1), BuildingBlock: MIFKUJ_clean_linker_0, # of connection points: 2
#     Edge 24, Type (0, 1), BuildingBlock: MIFKUJ_clean_linker_0, # of connection points: 2
#     Edge 25, Type (0, 1), BuildingBlock: MIFKUJ_clean_linker_0, # of connection points: 2
#     Edge 26, Type (0, 1), BuildingBlock: MIFKUJ_clean_linker_0, # of connection points: 2
#     Edge 27, Type (0, 1), BuildingBlock: MIFKUJ_clean_linker_0, # of connection points: 2
#     Edge 28, Type (0, 1), BuildingBlock: MIFKUJ_clean_linker_0, # of connection points: 2
#     Edge 29, Type (0, 1), BuildingBlock: MIFKUJ_clean_linker_0, # of connection points: 2
#     Edge 30, Type (0, 1), BuildingBlock: MIFKUJ_clean_linker_0, # of connection points: 2
#     Edge 31, Type (0, 1), BuildingBlock: MIFKUJ_clean_linker_0, # of connection points: 2
#     Edge 32, Type (0, 1), BuildingBlock: MIFKUJ_clean_linker_0, # of connection points: 2
#     Edge 33, Type (0, 1), BuildingBlock: MIFKUJ_clean_linker_0, # of connection points: 2
#     Edge 34, Type (0, 1), BuildingBlock: MIFKUJ_clean_linker_0, # of connection points: 2
#     Edge 35, Type (0, 1), BuildingBlock: MIFKUJ_clean_linker_0, # of connection points: 2
# Relax obj value: 0.084
# Max RMSD: 0.155
# Mean RMSD: 0.137
data_MOF--net-nom--node1-UXUYUI_clean_sbu_0--node2-NAHDIM_clean_linker_0--edge1-MIFKUJ_clean_linker_0
_symmetry_space_group_name_H-M    P1
_symmetry_Int_Tables_number       1
_symmetry_cell_setting            triclinic
loop_
_symmetry_equiv_pos_as_xyz
'x, y, z'
_cell_length_a     79.384954
_cell_length_b     79.384812
_cell_length_c     97.16381
_cell_angle_alpha  90.074371
_cell_angle_beta   90.088821
_cell_angle_gamma 119.99932
loop_
_atom_site_label
_atom_site_type_symbol
_atom_site_fract_x
_atom_site_fract_y
_atom_site_fract_z
_atom_type_partial_charge
C0 C 0.12926 0.58156 0.2664 0.0
C1 C 0.13992 0.58356 0.28003 0.0
C2 C 0.11169 0.57234 0.29517 0.0
C3 C 0.10474 0.55225 0.29438 0.0
C4 C 0.08554 0.53878 0.29809 0.0
C5 C 0.07296 0.54553 0.30248 0.0
C6 C 0.08009 0.56577 0.30364 0.0
C7 C 0.09952 0.5789 0.30021 0.0
C8 C 0.07858 0.51731 0.29701 0.0
C9 C 0.06703 0.57355 0.30803 0.0
C10 C 0.94615 0.48289 0.23157 0.0
C11 C 0.95893 0.49384 0.24337 0.0
C12 C 0.98447 0.49479 0.25791 0.0
C13 C 0.98516 0.50894 0.267 0.0
C14 C 0.99703 0.51455 0.27874 0.0
C15 C 0.0081 0.5055 0.28169 0.0
C16 C 0.00751 0.4913 0.27257 0.0
C17 C 0.99581 0.48626 0.26072 0.0
C18 C 0.99766 0.53015 0.28802 0.0
C19 C 0.01913 0.48137 0.2754 0.0
C20 C 0.92559 0.44668 0.35045 0.0
C21 C 0.93219 0.46636 0.34774 0.0
C22 C 0.95218 0.47991 0.34722 0.0
C23 C 0.96578 0.47352 0.34919 0.0
C24 C 0.95912 0.45381 0.35245 0.0
C25 C 0.93906 0.44069 0.35323 0.0
C26 C 0.95874 0.50098 0.34431 0.0
C27 C 0.97317 0.44651 0.35475 0.0
C28 C 0.08265 0.57699 0.40442 0.0
C29 C 0.08146 0.55719 0.40566 0.0
C30 C 0.05158 0.53419 0.39456 0.0
C31 C 0.04028 0.54139 0.38886 0.0
C32 C 0.02947 0.53321 0.37681 0.0
C33 C 0.02969 0.51719 0.37058 0.0
C34 C 0.04068 0.5095 0.37661 0.0
C35 C 0.05165 0.51824 0.38853 0.0
C36 C 0.01793 0.54177 0.37068 0.0
C37 C 0.04085 0.49215 0.37044 0.0
C38 C 0.05203 0.53143 0.30477 0.0
C39 C 0.04005 0.52431 0.29315 0.0
C40 C 0.02021 0.51097 0.29436 0.0
C41 C 0.012 0.50424 0.3075 0.0
C42 C 0.99223 0.49028 0.30904 0.0
C43 C 0.98405 0.48442 0.32203 0.0
C44 C 0.9953 0.49241 0.33399 0.0
C45 C 0.9869 0.48723 0.34725 0.0
C46 C 0.99853 0.49533 0.35891 0.0
C47 C 0.01845 0.50856 0.35775 0.0
C48 C 0.02712 0.51394 0.34458 0.0
C49 C 0.04711 0.52719 0.34301 0.0
C50 C 0.05541 0.53262 0.32999 0.0
C51 C 0.04396 0.52538 0.31805 0.0
C52 C 0.02383 0.51179 0.3194 0.0
C53 C 0.01543 0.50597 0.33267 0.0
C54 C 0.87985 0.41271 0.33599 0.0
C55 C 0.89225 0.43307 0.34208 0.0
O56 O 0.12981 0.58577 0.29087 0.0
O57 O 0.0622 0.54248 0.40603 0.0
O58 O 0.9064 0.43309 0.35047 0.0
O59 O 0.97303 0.48897 0.24645 0.0
H60 H 0.14117 0.57038 0.28167 0.0
H61 H 0.11456 0.56843 0.26656 0.0
H62 H 0.12767 0.59454 0.26465 0.0
H63 H 0.13736 0.58001 0.25764 0.0
H64 H 0.11415 0.54695 0.29084 0.0
H65 H 0.10507 0.59443 0.30088 0.0
H66 H 0.06837 0.51106 0.28819 0.0
H67 H 0.09076 0.51442 0.29542 0.0
H68 H 0.07057 0.50967 0.30647 0.0
H69 H 0.07441 0.58966 0.30735 0.0
H70 H 0.05375 0.5672 0.3015 0.0
H71 H 0.06232 0.56923 0.31882 0.0
H72 H 0.96479 0.50986 0.24299 0.0
H73 H 0.94919 0.49419 0.22348 0.0
H74 H 0.95373 0.4762 0.22587 0.0
H75 H 0.91867 0.46625 0.24064 0.0
H76 H 0.97654 0.51576 0.265 0.0
H77 H 0.99523 0.47539 0.25367 0.0
H78 H 0.9902 0.52351 0.29784 0.0
H79 H 0.01296 0.54117 0.29049 0.0
H80 H 0.99043 0.53763 0.28329 0.0
H81 H 0.01573 0.4694 0.268 0.0
H82 H 0.03489 0.49218 0.27472 0.0
H83 H 0.01623 0.47537 0.28601 0.0
H84 H 0.89911 0.44317 0.33324 0.0
H85 H 0.92175 0.47116 0.34607 0.0
H86 H 0.93377 0.42551 0.35554 0.0
H87 H 0.9647 0.50465 0.33372 0.0
H88 H 0.94662 0.50411 0.34517 0.0
H89 H 0.97051 0.51059 0.35155 0.0
H90 H 0.96562 0.43054 0.35645 0.0
H91 H 0.98295 0.45011 0.34572 0.0
H92 H 0.98241 0.45388 0.36386 0.0
H93 H 0.08876 0.55513 0.39653 0.0
H94 H 0.09806 0.58891 0.40465 0.0
H95 H 0.07621 0.57793 0.39451 0.0
H96 H 0.07466 0.57914 0.413 0.0
H97 H 0.04013 0.55356 0.3938 0.0
H98 H 0.06031 0.51269 0.3932 0.0
H99 H 0.02195 0.54552 0.35971 0.0
H100 H 0.00218 0.53082 0.37102 0.0
H101 H 0.02034 0.55502 0.37625 0.0
H102 H 0.04889 0.48701 0.37696 0.0
H103 H 0.02571 0.48001 0.36899 0.0
H104 H 0.04779 0.49603 0.36014 0.0
H105 H 0.04623 0.52946 0.28302 0.0
H106 H 0.98282 0.48379 0.30021 0.0
H107 H 0.96874 0.47368 0.32256 0.0
H108 H 0.99196 0.49143 0.36905 0.0
H109 H 0.05658 0.53354 0.35183 0.0
H110 H 0.07088 0.54282 0.3294 0.0
H111 H 0.86861 0.41232 0.32895 0.0
H112 H 0.88921 0.40865 0.33 0.0
H113 H 0.87256 0.40182 0.34429 0.0
C114 C 0.43947 0.93194 0.55336 0.0
C115 C 0.44849 0.9219 0.54518 0.0
C116 C 0.46712 0.94594 0.52794 0.0
C117 C 0.48611 0.94917 0.52874 0.0
C118 C 0.50198 0.9671 0.52476 0.0
C119 C 0.4987 0.98216 0.52016 0.0
C120 C 0.47944 0.97885 0.51944 0.0
C121 C 0.46384 0.96057 0.52306 0.0
C122 C 0.52222 0.96995 0.5255 0.0
C123 C 0.47528 0.99463 0.51498 0.0
C124 C 0.58901 0.08793 0.59414 0.0
C125 C 0.58485 0.07452 0.58229 0.0
C126 C 0.57111 0.06911 0.55918 0.0
C127 C 0.55847 0.07262 0.5513 0.0
C128 C 0.54853 0.06082 0.53997 0.0
C129 C 0.55215 0.04572 0.53603 0.0
C130 C 0.56544 0.0425 0.54373 0.0
C131 C 0.57457 0.05405 0.55534 0.0
C132 C 0.53399 0.06437 0.53237 0.0
C133 C 0.56994 0.02678 0.53977 0.0
C134 C 0.59951 0.11796 0.45858 0.0
C135 C 0.58214 0.11389 0.46509 0.0
C136 C 0.56798 0.09466 0.46822 0.0
C137 C 0.57166 0.0793 0.4652 0.0
C138 C 0.58915 0.08345 0.4585 0.0
C139 C 0.60267 0.10273 0.45502 0.0
C140 C 0.54912 0.09084 0.47469 0.0
C141 C 0.59371 0.06759 0.45509 0.0
C142 C 0.46306 0.94059 0.42546 0.0
C143 C 0.48347 0.95346 0.41962 0.0
C144 C 0.49924 0.9864 0.42896 0.0
C145 C 0.49319 0.99891 0.43417 0.0
C146 C 0.50399 0.0126 0.44442 0.0
C147 C 0.52141 0.01395 0.44932 0.0
C148 C 0.52818 0.00208 0.44349 0.0
C149 C 0.51703 0.98844 0.43333 0.0
C150 C 0.49651 0.0252 0.4503 0.0
C151 C 0.54698 0.00356 0.44823 0.0
C152 C 0.51537 0.00146 0.51634 0.0
C153 C 0.52619 0.01425 0.52695 0.0
C154 C 0.54161 0.03292 0.52415 0.0
C155 C 0.54631 0.03919 0.51035 0.0
C156 C 0.56183 0.05778 0.50711 0.0
C157 C 0.56559 0.0642 0.49354 0.0
C158 C 0.5541 0.05222 0.48267 0.0
C159 C 0.55716 0.05891 0.4689 0.0
C160 C 0.54612 0.04619 0.4583 0.0
C161 C 0.53201 0.02695 0.46106 0.0
C162 C 0.52819 0.02025 0.4748 0.0
C163 C 0.51366 0.00114 0.47796 0.0
C164 C 0.50964 0.99485 0.49153 0.0
C165 C 0.51995 0.00743 0.50248 0.0
C166 C 0.53519 0.02651 0.4995 0.0
C167 C 0.53919 0.03299 0.48565 0.0
C168 C 0.64177 0.1633 0.46438 0.0
C169 C 0.61953 0.15242 0.46396 0.0
O170 O 0.45175 0.92869 0.53176 0.0
O171 O 0.48772 0.97267 0.41965 0.0
O172 O 0.61334 0.13639 0.45541 0.0
O173 O 0.57959 0.08045 0.57041 0.0
H174 H 0.46253 0.92534 0.55014 0.0
H175 H 0.44948 0.94793 0.55343 0.0
H176 H 0.42543 0.92883 0.54866 0.0
H177 H 0.43691 0.92689 0.56421 0.0
H178 H 0.48844 0.93759 0.53235 0.0
H179 H 0.44903 0.95778 0.52246 0.0
H180 H 0.53028 0.98004 0.53409 0.0
H181 H 0.52207 0.95605 0.52729 0.0
H182 H 0.53027 0.9766 0.51584 0.0
H183 H 0.46001 0.99074 0.51713 0.0
H184 H 0.4852 0.00852 0.52031 0.0
H185 H 0.47783 0.9971 0.50376 0.0
H186 H 0.59594 0.07005 0.58056 0.0
H187 H 0.56672 0.07131 0.60817 0.0
H188 H 0.60484 0.09376 0.59661 0.0
H189 H 0.59124 0.10198 0.58968 0.0
H190 H 0.55592 0.08429 0.55436 0.0
H191 H 0.58456 0.05139 0.56126 0.0
H192 H 0.52042 0.05042 0.53028 0.0
H193 H 0.53024 0.07407 0.53823 0.0
H194 H 0.54019 0.07133 0.52233 0.0
H195 H 0.58299 0.0284 0.54521 0.0
H196 H 0.55736 0.01239 0.54245 0.0
H197 H 0.57233 0.02693 0.5285 0.0
H198 H 0.61434 0.14768 0.47468 0.0
H199 H 0.57952 0.12572 0.4675 0.0
H200 H 0.61607 0.10609 0.44984 0.0
H201 H 0.54933 0.08788 0.48582 0.0
H202 H 0.54684 0.1035 0.47362 0.0
H203 H 0.53657 0.0779 0.46996 0.0
H204 H 0.60912 0.07356 0.45198 0.0
H205 H 0.59067 0.05784 0.46407 0.0
H206 H 0.58428 0.05866 0.44646 0.0
H207 H 0.49368 0.95147 0.42637 0.0
H208 H 0.45931 0.9251 0.42547 0.0
H209 H 0.46249 0.94499 0.43623 0.0
H210 H 0.45205 0.94203 0.41928 0.0
H211 H 0.47962 0.99745 0.43051 0.0
H212 H 0.52224 0.97942 0.4288 0.0
H213 H 0.49352 0.02211 0.46145 0.0
H214 H 0.50777 0.04078 0.44928 0.0
H215 H 0.48298 0.02276 0.44512 0.0
H216 H 0.55081 0.99411 0.44212 0.0
H217 H 0.55902 0.01885 0.44744 0.0
H218 H 0.54572 0.99927 0.45922 0.0
H219 H 0.52242 0.00967 0.53756 0.0
H220 H 0.57108 0.06768 0.51504 0.0
H221 H 0.57758 0.07873 0.49168 0.0
H222 H 0.54859 0.05131 0.44774 0.0
H223 H 0.50506 0.99086 0.46999 0.0
H224 H 0.49822 0.98002 0.49334 0.0
H225 H 0.64783 0.16876 0.45397 0.0
H226 H 0.64738 0.1758 0.47164 0.0
H227 H 0.64694 0.15337 0.46794 0.0
C228 C 0.53963 0.44198 0.7128 0.0
C229 C 0.56092 0.45242 0.70808 0.0
C230 C 0.55953 0.47313 0.6906 0.0
C231 C 0.57434 0.4924 0.69234 0.0
C232 C 0.57139 0.50783 0.68863 0.0
C233 C 0.55308 0.50373 0.68335 0.0
C234 C 0.5381 0.48414 0.68157 0.0
C235 C 0.54172 0.46907 0.68493 0.0
C236 C 0.58774 0.52847 0.69053 0.0
C237 C 0.51813 0.47903 0.67643 0.0
C238 C 0.49652 0.5727 0.75301 0.0
C239 C 0.49784 0.56328 0.74015 0.0
C240 C 0.52178 0.56306 0.72455 0.0
C241 C 0.50817 0.54634 0.71734 0.0
C242 C 0.51388 0.53928 0.70612 0.0
C243 C 0.53358 0.54914 0.70195 0.0
C244 C 0.54737 0.56578 0.70927 0.0
C245 C 0.54127 0.57252 0.72052 0.0
C246 C 0.49881 0.52136 0.6986 0.0
C247 C 0.56848 0.57655 0.70508 0.0
C248 C 0.50235 0.5973 0.63376 0.0
C249 C 0.49051 0.57703 0.63472 0.0
C250 C 0.49867 0.56493 0.63449 0.0
C251 C 0.51906 0.5733 0.63319 0.0
C252 C 0.53083 0.59357 0.63115 0.0
C253 C 0.52225 0.60533 0.63135 0.0
C254 C 0.4856 0.54328 0.63628 0.0
C255 C 0.55256 0.60288 0.62949 0.0
C256 C 0.54718 0.4694 0.58886 0.0
C257 C 0.55892 0.48992 0.58291 0.0
C258 C 0.5453 0.50884 0.59216 0.0
C259 C 0.5268 0.50318 0.59725 0.0
C260 C 0.52435 0.51317 0.60827 0.0
C261 C 0.54082 0.52958 0.61398 0.0
C262 C 0.55947 0.536 0.6083 0.0
C263 C 0.56153 0.52542 0.59749 0.0
C264 C 0.50421 0.50596 0.61397 0.0
C265 C 0.57723 0.55382 0.6138 0.0
C266 C 0.54914 0.5198 0.68043 0.0
C267 C 0.54524 0.52839 0.69163 0.0
C268 C 0.53949 0.54221 0.68969 0.0
C269 C 0.53765 0.54781 0.67622 0.0
C270 C 0.53159 0.56145 0.67393 0.0
C271 C 0.52877 0.56607 0.66066 0.0
C272 C 0.53196 0.55728 0.64914 0.0
C273 C 0.52814 0.56115 0.63563 0.0
C274 C 0.53166 0.55236 0.62439 0.0
C275 C 0.53858 0.53941 0.62627 0.0
C276 C 0.54214 0.53508 0.63974 0.0
C277 C 0.54866 0.52177 0.64205 0.0
C278 C 0.55148 0.51713 0.65535 0.0
C279 C 0.54756 0.52535 0.66686 0.0
C280 C 0.54154 0.53922 0.66477 0.0
C281 C 0.53875 0.54402 0.6512 0.0
C282 C 0.48847 0.62384 0.65466 0.0
C283 C 0.48059 0.60662 0.64466 0.0
O284 O 0.56219 0.45829 0.69451 0.0
O285 O 0.54713 0.49815 0.58202 0.0
O286 O 0.4951 0.60945 0.63544 0.0
O287 O 0.51665 0.57045 0.73536 0.0
H288 H 0.56948 0.46544 0.71474 0.0
H289 H 0.5338 0.45209 0.71249 0.0
H290 H 0.53059 0.42933 0.70601 0.0
H291 H 0.5384 0.4368 0.72357 0.0
H292 H 0.58814 0.49529 0.69664 0.0
H293 H 0.53044 0.45402 0.68361 0.0
H294 H 0.58418 0.53533 0.69915 0.0
H295 H 0.60179 0.52919 0.69287 0.0
H296 H 0.58948 0.53711 0.68111 0.0
H297 H 0.50735 0.46338 0.67789 0.0
H298 H 0.51284 0.48782 0.68185 0.0
H299 H 0.51887 0.48234 0.66529 0.0
H300 H 0.48747 0.56191 0.73186 0.0
H301 H 0.48586 0.55011 0.76747 0.0
H302 H 0.51088 0.58657 0.75427 0.0
H303 H 0.48824 0.58018 0.74993 0.0
H304 H 0.49304 0.53871 0.72038 0.0
H305 H 0.55168 0.58534 0.72615 0.0
H306 H 0.50334 0.5102 0.6984 0.0
H307 H 0.48422 0.51494 0.70343 0.0
H308 H 0.49766 0.52511 0.68777 0.0
H309 H 0.57746 0.58918 0.7119 0.0
H310 H 0.57441 0.56651 0.70534 0.0
H311 H 0.56975 0.58181 0.69434 0.0
H312 H 0.47642 0.59361 0.65121 0.0
H313 H 0.47494 0.57068 0.63591 0.0
H314 H 0.5312 0.62097 0.63032 0.0
H315 H 0.48843 0.53887 0.64647 0.0
H316 H 0.46995 0.53884 0.63566 0.0
H317 H 0.48884 0.5353 0.6283 0.0
H318 H 0.55953 0.61865 0.6271 0.0
H319 H 0.559 0.60108 0.63913 0.0
H320 H 0.55594 0.59551 0.62112 0.0
H321 H 0.57146 0.49861 0.58992 0.0
H322 H 0.55642 0.46258 0.58974 0.0
H323 H 0.54187 0.47008 0.5993 0.0
H324 H 0.53443 0.46014 0.5822 0.0
H325 H 0.51437 0.4905 0.59285 0.0
H326 H 0.57576 0.5301 0.59317 0.0
H327 H 0.50419 0.50394 0.62528 0.0
H328 H 0.49979 0.51698 0.61204 0.0
H329 H 0.49324 0.49199 0.6092 0.0
H330 H 0.59016 0.55831 0.60716 0.0
H331 H 0.57437 0.56612 0.61467 0.0
H332 H 0.58064 0.55076 0.62427 0.0
H333 H 0.546 0.52372 0.70199 0.0
H334 H 0.52873 0.56856 0.68239 0.0
H335 H 0.52389 0.57653 0.65958 0.0
H336 H 0.5285 0.55524 0.61407 0.0
H337 H 0.55152 0.51464 0.63361 0.0
H338 H 0.55648 0.50677 0.6565 0.0
H339 H 0.4942 0.63784 0.64907 0.0
H340 H 0.47683 0.62219 0.66182 0.0
H341 H 0.50052 0.62439 0.66084 0.0
C342 C 0.12475 0.56916 0.88651 0.0
C343 C 0.13677 0.57997 0.87381 0.0
C344 C 0.11022 0.56595 0.85719 0.0
C345 C 0.10496 0.5804 0.85695 0.0
C346 C 0.08618 0.57593 0.85296 0.0
C347 C 0.0723 0.55654 0.84939 0.0
C348 C 0.07781 0.54209 0.8492 0.0
C349 C 0.09688 0.54714 0.85284 0.0
C350 C 0.08104 0.59184 0.85289 0.0
C351 C 0.06338 0.52117 0.84572 0.0
C352 C 0.00088 0.56547 0.92674 0.0
C353 C 0.99125 0.5454 0.91994 0.0
C354 C 0.99289 0.54529 0.89497 0.0
C355 C 0.99633 0.52985 0.89255 0.0
C356 C 0.00494 0.52877 0.88021 0.0
C357 C 0.01043 0.54359 0.87023 0.0
C358 C 0.00672 0.55905 0.87264 0.0
C359 C 0.99758 0.55943 0.88489 0.0
C360 C 0.00826 0.51186 0.87789 0.0
C361 C 0.01276 0.57541 0.86244 0.0
C362 C 0.92319 0.5021 0.80357 0.0
C363 C 0.93031 0.48923 0.80546 0.0
C364 C 0.95038 0.49606 0.80535 0.0
C365 C 0.96353 0.51612 0.80337 0.0
C366 C 0.95634 0.52891 0.80076 0.0
C367 C 0.9362 0.52165 0.80076 0.0
C368 C 0.95758 0.48194 0.80776 0.0
C369 C 0.96995 0.55034 0.79844 0.0
C370 C 0.04357 0.51854 0.72944 0.0
C371 C 0.06157 0.53421 0.73706 0.0
C372 C 0.04752 0.54303 0.75651 0.0
C373 C 0.04081 0.52562 0.76393 0.0
C374 C 0.0306 0.52257 0.77632 0.0
C375 C 0.02722 0.53728 0.78149 0.0
C376 C 0.03417 0.55491 0.77416 0.0
C377 C 0.0442 0.55751 0.76175 0.0
C378 C 0.02332 0.50359 0.78389 0.0
C379 C 0.03091 0.57094 0.77941 0.0
C380 C 0.05168 0.55103 0.84709 0.0
C381 C 0.04055 0.5494 0.85869 0.0
C382 C 0.02082 0.54346 0.85755 0.0
C383 C 0.01164 0.53831 0.84452 0.0
C384 C 0.99158 0.53116 0.8431 0.0
C385 C 0.98273 0.52642 0.83022 0.0
C386 C 0.99362 0.52867 0.81825 0.0
C387 C 0.98475 0.52395 0.80511 0.0
C388 C 0.99604 0.52677 0.79339 0.0
C389 C 0.0161 0.53414 0.79442 0.0
C390 C 0.02519 0.53857 0.80751 0.0
C391 C 0.04528 0.54573 0.80895 0.0
C392 C 0.05402 0.54984 0.8219 0.0
C393 C 0.04303 0.54712 0.83388 0.0
C394 C 0.02286 0.54041 0.83263 0.0
C395 C 0.01388 0.53585 0.81945 0.0
C396 C 0.87681 0.48653 0.81921 0.0
C397 C 0.89023 0.48063 0.81206 0.0
O398 O 0.1278 0.56955 0.86194 0.0
O399 O 0.05703 0.5465 0.74427 0.0
O400 O 0.90398 0.49628 0.80451 0.0
O401 O 0.98492 0.54679 0.9069 0.0
H402 H 0.13809 0.59457 0.87334 0.0
H403 H 0.11015 0.56781 0.886 0.0
H404 H 0.1229 0.55434 0.88707 0.0
H405 H 0.13201 0.57725 0.89607 0.0
H406 H 0.11546 0.59516 0.85987 0.0
H407 H 0.10119 0.53616 0.85296 0.0
H408 H 0.07171 0.59004 0.8619 0.0
H409 H 0.09416 0.60654 0.85344 0.0
H410 H 0.07268 0.59089 0.84345 0.0
H411 H 0.06944 0.51141 0.84745 0.0
H412 H 0.05003 0.51595 0.85203 0.0
H413 H 0.05905 0.52006 0.83475 0.0
H414 H 0.00244 0.54085 0.91932 0.0
H415 H 0.00645 0.5649 0.93713 0.0
H416 H 0.01335 0.57601 0.9204 0.0
H417 H 0.99034 0.57075 0.92773 0.0
H418 H 0.99214 0.51862 0.90026 0.0
H419 H 0.99466 0.57117 0.88686 0.0
H420 H 0.02409 0.51706 0.87842 0.0
H421 H 0.00075 0.50024 0.88569 0.0
H422 H 0.00309 0.50556 0.86748 0.0
H423 H 0.01119 0.58755 0.86669 0.0
H424 H 0.02813 0.58118 0.85931 0.0
H425 H 0.0036 0.56984 0.85306 0.0
H426 H 0.89741 0.47684 0.82039 0.0
H427 H 0.92027 0.47391 0.8071 0.0
H428 H 0.93051 0.53138 0.79908 0.0
H429 H 0.96503 0.48503 0.8179 0.0
H430 H 0.94556 0.46658 0.80766 0.0
H431 H 0.96836 0.48382 0.79976 0.0
H432 H 0.96204 0.55837 0.79659 0.0
H433 H 0.97958 0.55676 0.80755 0.0
H434 H 0.97939 0.5524 0.78945 0.0
H435 H 0.06692 0.5271 0.74432 0.0
H436 H 0.04736 0.50896 0.72346 0.0
H437 H 0.03194 0.50932 0.73682 0.0
H438 H 0.03771 0.52529 0.72229 0.0
H439 H 0.04329 0.51424 0.76013 0.0
H440 H 0.04944 0.5709 0.75601 0.0
H441 H 0.03002 0.50644 0.79429 0.0
H442 H 0.00733 0.49648 0.78528 0.0
H443 H 0.02672 0.49339 0.77837 0.0
H444 H 0.03807 0.58415 0.77286 0.0
H445 H 0.01507 0.5657 0.77972 0.0
H446 H 0.03658 0.57496 0.79008 0.0
H447 H 0.04741 0.55292 0.86876 0.0
H448 H 0.98247 0.5291 0.85195 0.0
H449 H 0.96724 0.52103 0.82978 0.0
H450 H 0.98914 0.52328 0.78334 0.0
H451 H 0.05446 0.54813 0.80009 0.0
H452 H 0.06952 0.55526 0.82242 0.0
H453 H 0.86568 0.47424 0.8254 0.0
H454 H 0.88545 0.499 0.82624 0.0
H455 H 0.86934 0.49096 0.81156 0.0
C456 C 0.4918 0.92983 0.93442 0.0
C457 C 0.47503 0.91728 0.94426 0.0
C458 C 0.48314 0.94149 0.962 0.0
C459 C 0.46825 0.94603 0.96144 0.0
C460 C 0.47184 0.96466 0.96512 0.0
C461 C 0.49088 0.97907 0.96907 0.0
C462 C 0.50584 0.97429 0.96986 0.0
C463 C 0.5016 0.95535 0.96662 0.0
C464 C 0.4554 0.96899 0.96448 0.0
C465 C 0.52648 0.9893 0.9736 0.0
C466 C 0.47894 0.05292 0.89262 0.0
C467 C 0.49923 0.06073 0.89884 0.0
C468 C 0.50063 0.05871 0.92372 0.0
C469 C 0.51555 0.05437 0.92555 0.0
C470 C 0.51678 0.04547 0.9377 0.0
C471 C 0.50254 0.04053 0.94807 0.0
C472 C 0.48747 0.04498 0.94618 0.0
C473 C 0.48702 0.05445 0.93413 0.0
C474 C 0.53328 0.04137 0.93945 0.0
C475 C 0.47165 0.03948 0.95675 0.0
C476 C 0.54989 0.12914 0.01283 0.0
C477 C 0.56198 0.12097 0.01181 0.0
C478 C 0.55415 0.10075 0.01249 0.0
C479 C 0.53388 0.08854 0.01429 0.0
C480 C 0.52188 0.09682 0.01622 0.0
C481 C 0.53011 0.11708 0.01555 0.0
C482 C 0.56741 0.09238 0.01078 0.0
C483 C 0.50026 0.0842 0.01837 0.0
C484 C 0.53211 0.00596 0.08738 0.0
C485 C 0.51522 0.98874 0.0799 0.0
C486 C 0.50656 0.00431 0.06139 0.0
C487 C 0.52337 0.01027 0.05339 0.0
C488 C 0.52614 0.02065 0.04111 0.0
C489 C 0.51172 0.0249 0.03663 0.0
C490 C 0.49472 0.01877 0.04457 0.0
C491 C 0.49242 0.00862 0.05687 0.0
C492 C 0.54451 0.02711 0.03292 0.0
C493 C 0.47901 0.02298 0.04006 0.0
C494 C 0.49556 0.99948 0.97128 0.0
C495 C 0.49688 0.01045 0.95966 0.0
C496 C 0.50298 0.03023 0.96071 0.0
C497 C 0.50869 0.03961 0.97365 0.0
C498 C 0.51638 0.05978 0.97494 0.0
C499 C 0.52179 0.06884 0.98772 0.0
C500 C 0.51959 0.05806 0.99974 0.0
C501 C 0.52503 0.06717 0.01279 0.0
C502 C 0.52233 0.05601 0.02456 0.0
C503 C 0.51442 0.03585 0.02367 0.0
C504 C 0.50926 0.02652 0.01068 0.0
C505 C 0.50157 0.00633 0.00936 0.0
C506 C 0.49699 0.9974 0.99648 0.0
C507 C 0.49969 0.00828 0.98445 0.0
C508 C 0.50671 0.02852 0.98559 0.0
C509 C 0.51184 0.0377 0.99868 0.0
C510 C 0.56771 0.17404 0.99473 0.0
C511 C 0.57277 0.16107 0.00336 0.0
O512 O 0.4802 0.92401 0.95765 0.0
O513 O 0.50338 0.9946 0.07351 0.0
O514 O 0.55667 0.14844 0.01105 0.0
O515 O 0.49919 0.06727 0.91207 0.0
H516 H 0.46196 0.91811 0.94115 0.0
H517 H 0.49491 0.94512 0.93463 0.0
H518 H 0.50519 0.92961 0.93748 0.0
H519 H 0.48793 0.92444 0.92368 0.0
H520 H 0.45386 0.93504 0.95809 0.0
H521 H 0.51294 0.95154 0.96701 0.0
H522 H 0.45713 0.97786 0.95521 0.0
H523 H 0.44098 0.9555 0.9639 0.0
H524 H 0.45569 0.97753 0.97364 0.0
H525 H 0.53685 0.98404 0.97157 0.0
H526 H 0.53123 0.00292 0.96771 0.0
H527 H 0.52728 0.99287 0.98471 0.0
H528 H 0.50236 0.04852 0.89901 0.0
H529 H 0.47818 0.04689 0.88217 0.0
H530 H 0.46796 0.04107 0.89919 0.0
H531 H 0.47522 0.06466 0.89195 0.0
H532 H 0.52634 0.05816 0.91754 0.0
H533 H 0.47566 0.05805 0.9326 0.0
H534 H 0.52753 0.02546 0.93871 0.0
H535 H 0.54467 0.0487 0.93147 0.0
H536 H 0.54006 0.04623 0.94977 0.0
H537 H 0.45941 0.04105 0.95272 0.0
H538 H 0.46587 0.02422 0.96016 0.0
H539 H 0.47775 0.04901 0.96592 0.0
H540 H 0.57654 0.15285 0.99585 0.0
H541 H 0.57747 0.13028 0.0103 0.0
H542 H 0.52098 0.12357 0.0166 0.0
H543 H 0.5639 0.08409 0.00097 0.0
H544 H 0.58301 0.10383 0.01064 0.0
H545 H 0.56502 0.08207 0.01927 0.0
H546 H 0.49309 0.0929 0.02042 0.0
H547 H 0.49355 0.0751 0.00908 0.0
H548 H 0.49744 0.07421 0.02716 0.0
H549 H 0.52116 0.98284 0.0721 0.0
H550 H 0.54135 0.00112 0.0927 0.0
H551 H 0.54139 0.01754 0.07999 0.0
H552 H 0.52654 0.01232 0.0951 0.0
H553 H 0.53448 0.00705 0.05665 0.0
H554 H 0.47951 0.00397 0.06308 0.0
H555 H 0.54078 0.01994 0.02268 0.0
H556 H 0.55192 0.04306 0.03119 0.0
H557 H 0.5548 0.02356 0.03815 0.0
H558 H 0.46621 0.01636 0.04702 0.0
H559 H 0.48494 0.03895 0.03981 0.0
H560 H 0.47413 0.01736 0.02946 0.0
H561 H 0.49318 0.00348 0.94963 0.0
H562 H 0.51843 0.06882 0.96605 0.0
H563 H 0.52765 0.08442 0.98804 0.0
H564 H 0.52645 0.06311 0.03454 0.0
H565 H 0.49918 0.99722 0.01826 0.0
H566 H 0.49124 0.98183 0.99606 0.0
H567 H 0.58048 0.18442 0.98855 0.0
H568 H 0.5556 0.16493 0.98755 0.0
H569 H 0.56307 0.18237 0.00139 0.0
C570 C 0.59116 0.49015 0.09884 0.0
C571 C 0.58826 0.47541 0.1101 0.0
C572 C 0.5744 0.48623 0.1278 0.0
C573 C 0.55519 0.47092 0.12886 0.0
C574 C 0.54036 0.47439 0.13328 0.0
C575 C 0.54489 0.49363 0.13645 0.0
C576 C 0.56441 0.50904 0.13559 0.0
C577 C 0.57899 0.50502 0.13156 0.0
C578 C 0.51984 0.45755 0.13437 0.0
C579 C 0.56981 0.52984 0.13851 0.0
C580 C 0.46144 0.47915 0.0629 0.0
C581 C 0.47002 0.49936 0.06939 0.0
C582 C 0.47155 0.49992 0.09433 0.0
C583 C 0.48978 0.51633 0.09679 0.0
C584 C 0.50002 0.51801 0.10898 0.0
C585 C 0.49188 0.50281 0.11879 0.0
C586 C 0.47318 0.48651 0.11647 0.0
C587 C 0.46309 0.48547 0.10434 0.0
C588 C 0.51968 0.53582 0.11126 0.0
C589 C 0.46413 0.46989 0.12657 0.0
C590 C 0.45525 0.54909 0.18922 0.0
C591 C 0.47427 0.56064 0.1843 0.0
C592 C 0.48686 0.55311 0.18319 0.0
C593 C 0.48013 0.53351 0.18686 0.0
C594 C 0.46122 0.52207 0.19233 0.0
C595 C 0.44909 0.53016 0.19363 0.0
C596 C 0.50724 0.56603 0.17789 0.0
C597 C 0.45366 0.50119 0.19646 0.0
C598 C 0.58979 0.51187 0.23186 0.0
C599 C 0.56864 0.4999 0.23657 0.0
C600 C 0.54917 0.51291 0.2273 0.0
C601 C 0.55426 0.531 0.22167 0.0
C602 C 0.54352 0.53256 0.21075 0.0
C603 C 0.52699 0.5156 0.2057 0.0
C604 C 0.52115 0.49739 0.21195 0.0
C605 C 0.53244 0.49623 0.22263 0.0
C606 C 0.55013 0.55222 0.2044 0.0
C607 C 0.50318 0.47914 0.2072 0.0
C608 C 0.52912 0.49785 0.13976 0.0
C609 C 0.51784 0.49825 0.12885 0.0
C610 C 0.5035 0.50328 0.13093 0.0
C611 C 0.5005 0.50847 0.14425 0.0
C612 C 0.48685 0.51449 0.14662 0.0
C613 C 0.48412 0.5197 0.15976 0.0
C614 C 0.49496 0.5191 0.17103 0.0
C615 C 0.49266 0.52485 0.18436 0.0
C616 C 0.50311 0.52338 0.19544 0.0
C617 C 0.5163 0.51677 0.19352 0.0
C618 C 0.51941 0.51173 0.18016 0.0
C619 C 0.53316 0.50582 0.17775 0.0
C620 C 0.53623 0.50107 0.16456 0.0
C621 C 0.52574 0.50214 0.15326 0.0
C622 C 0.51157 0.50773 0.15547 0.0
C623 C 0.50858 0.51278 0.16891 0.0
C624 C 0.42069 0.55234 0.17209 0.0
C625 C 0.43967 0.56621 0.17962 0.0
O626 O 0.5887 0.48328 0.12294 0.0
O627 O 0.56059 0.51187 0.23725 0.0
O628 O 0.44261 0.55588 0.18993 0.0
O629 O 0.46192 0.49762 0.08232 0.0
H630 H 0.57395 0.462 0.10847 0.0
H631 H 0.57925 0.49364 0.09922 0.0
H632 H 0.60527 0.50382 0.10029 0.0
H633 H 0.59091 0.48408 0.08848 0.0
H634 H 0.5518 0.45629 0.12625 0.0
H635 H 0.59396 0.51668 0.13075 0.0
H636 H 0.51091 0.45843 0.1259 0.0
H637 H 0.51923 0.44328 0.13365 0.0
H638 H 0.5132 0.45825 0.14425 0.0
H639 H 0.5851 0.54031 0.13566 0.0
H640 H 0.56005 0.53362 0.13278 0.0
H641 H 0.56801 0.53159 0.14965 0.0
H642 H 0.48604 0.5054 0.07019 0.0
H643 H 0.46783 0.48016 0.05256 0.0
H644 H 0.46481 0.46977 0.06947 0.0
H645 H 0.44539 0.47222 0.06189 0.0
H646 H 0.49601 0.52778 0.08916 0.0
H647 H 0.44887 0.47297 0.10234 0.0
H648 H 0.53116 0.5318 0.11029 0.0
H649 H 0.5227 0.54748 0.1037 0.0
H650 H 0.52065 0.54164 0.12182 0.0
H651 H 0.45013 0.45765 0.12276 0.0
H652 H 0.47427 0.46437 0.12868 0.0
H653 H 0.46143 0.4751 0.13648 0.0
H654 H 0.45132 0.5714 0.17171 0.0
H655 H 0.47936 0.57556 0.18135 0.0
H656 H 0.43449 0.52149 0.19764 0.0
H657 H 0.50842 0.56138 0.16733 0.0
H658 H 0.51117 0.58156 0.17753 0.0
H659 H 0.51794 0.56468 0.18448 0.0
H660 H 0.43828 0.49397 0.19992 0.0
H661 H 0.45479 0.4929 0.18764 0.0
H662 H 0.46272 0.50061 0.20495 0.0
H663 H 0.56076 0.48806 0.22888 0.0
H664 H 0.5965 0.50252 0.2311 0.0
H665 H 0.59038 0.51815 0.22154 0.0
H666 H 0.59838 0.52395 0.23919 0.0
H667 H 0.56709 0.54381 0.22554 0.0
H668 H 0.52823 0.48233 0.22737 0.0
H669 H 0.55208 0.55156 0.19313 0.0
H670 H 0.5388 0.55633 0.20596 0.0
H671 H 0.564 0.56375 0.20893 0.0
H672 H 0.49915 0.46676 0.21432 0.0
H673 H 0.49072 0.48175 0.20631 0.0
H674 H 0.5058 0.47498 0.19685 0.0
H675 H 0.52036 0.49473 0.11854 0.0
H676 H 0.47819 0.51534 0.13832 0.0
H677 H 0.47339 0.5242 0.16095 0.0
H678 H 0.50117 0.5277 0.20564 0.0
H679 H 0.54181 0.5049 0.18603 0.0
H680 H 0.54698 0.4966 0.16333 0.0
H681 H 0.40814 0.54655 0.17927 0.0
H682 H 0.41822 0.55983 0.16333 0.0
H683 H 0.42166 0.53984 0.16786 0.0
Li684 Li 0.63839 0.41591 0.4216 0.0
Li685 Li 0.63365 0.38567 0.412 0.0
Li686 Li 0.66314 0.4161 0.40655 0.0
Li687 Li 0.63176 0.40899 0.39679 0.0
C688 C 0.66744 0.41245 0.43525 0.0
N689 N 0.69356 0.43068 0.45649 0.0
C690 C 0.66782 0.40167 0.44649 0.0
C691 C 0.68036 0.43247 0.4348 0.0
C692 C 0.68112 0.41116 0.45713 0.0
C693 C 0.69346 0.44143 0.44563 0.0
C694 C 0.60043 0.38506 0.42234 0.0
C695 C 0.56755 0.37187 0.43049 0.0
N696 N 0.57234 0.36578 0.44217 0.0
C697 C 0.60504 0.37865 0.43441 0.0
C698 C 0.58155 0.38164 0.42034 0.0
C699 C 0.59064 0.36894 0.44431 0.0
C700 C 0.62904 0.44205 0.4341 0.0
N701 N 0.63359 0.42799 0.43678 0.0
C702 C 0.62977 0.43064 0.46092 0.0
C703 C 0.634 0.42217 0.44987 0.0
C704 C 0.62499 0.4452 0.45849 0.0
C705 C 0.62472 0.45094 0.44486 0.0
H706 H 0.62864 0.44624 0.42357 0.0
H707 H 0.63725 0.41069 0.45173 0.0
C708 C 0.63802 0.35542 0.42194 0.0
N709 N 0.62475 0.35902 0.41583 0.0
C710 C 0.63302 0.33653 0.4256 0.0
C711 C 0.60083 0.32519 0.4163 0.0
C712 C 0.6064 0.34443 0.41296 0.0
C713 C 0.61421 0.32112 0.42282 0.0
H714 H 0.65254 0.36731 0.42399 0.0
H715 H 0.59608 0.34773 0.40818 0.0
C716 C 0.66219 0.45189 0.40173 0.0
N717 N 0.68352 0.49012 0.39321 0.0
C718 C 0.66437 0.45634 0.3877 0.0
C719 C 0.67072 0.46691 0.41143 0.0
C720 C 0.67524 0.47576 0.3836 0.0
C721 C 0.6815 0.48613 0.40691 0.0
C722 C 0.63701 0.38009 0.38426 0.0
C723 C 0.64782 0.37459 0.37597 0.0
C724 C 0.61676 0.37042 0.38296 0.0
C725 C 0.63818 0.35949 0.36647 0.0
C726 C 0.60766 0.35539 0.37334 0.0
N727 N 0.61846 0.35029 0.36536 0.0
C728 C 0.69736 0.41497 0.4076 0.0
C729 C 0.70164 0.44323 0.39624 0.0
C730 C 0.71664 0.42018 0.40503 0.0
N731 N 0.69022 0.4264 0.40315 0.0
C732 C 0.72103 0.44898 0.3934 0.0
C733 C 0.72872 0.43729 0.39771 0.0
H734 H 0.68789 0.40155 0.41293 0.0
H735 H 0.69572 0.45206 0.39271 0.0
C736 C 0.60602 0.41864 0.38414 0.0
N737 N 0.61961 0.41345 0.38148 0.0
C738 C 0.59772 0.42368 0.37337 0.0
C739 C 0.61729 0.4175 0.35733 0.0
C740 C 0.62526 0.41267 0.36841 0.0
C741 C 0.60349 0.42333 0.35976 0.0
H742 H 0.60194 0.41925 0.39467 0.0
H743 H 0.63639 0.40887 0.36661 0.0
O744 O 0.65431 0.40335 0.42485 0.0
O745 O 0.61426 0.39469 0.4125 0.0
O746 O 0.65133 0.433 0.40598 0.0
O747 O 0.64629 0.39477 0.39365 0.0
H748 H 0.65783 0.38616 0.44702 0.0
H749 H 0.68032 0.44099 0.42616 0.0
H750 H 0.68153 0.40301 0.46592 0.0
H751 H 0.70355 0.45693 0.44541 0.0
H752 H 0.55287 0.36913 0.42908 0.0
H753 H 0.61956 0.38114 0.43615 0.0
H754 H 0.57776 0.38652 0.41105 0.0
H755 H 0.59401 0.36392 0.45371 0.0
H756 H 0.62974 0.42546 0.47123 0.0
H757 H 0.62123 0.46219 0.44252 0.0
H758 H 0.64383 0.33395 0.43043 0.0
H759 H 0.58616 0.31369 0.41405 0.0
H760 H 0.65797 0.44494 0.38006 0.0
H761 H 0.669 0.46378 0.42233 0.0
H762 H 0.67712 0.4794 0.37277 0.0
H763 H 0.68822 0.49789 0.4143 0.0
H764 H 0.66351 0.38192 0.37689 0.0
H765 H 0.60813 0.37444 0.3893 0.0
H766 H 0.64636 0.35509 0.35998 0.0
H767 H 0.592 0.34778 0.37223 0.0
H768 H 0.72182 0.41054 0.40834 0.0
H769 H 0.72987 0.46235 0.38779 0.0
H770 H 0.58703 0.42794 0.37568 0.0
H771 H 0.62239 0.41735 0.34703 0.0
Li772 Li 0.24071 0.62937 0.58878 0.0
Li773 Li 0.26601 0.62404 0.57849 0.0
Li774 Li 0.26394 0.65324 0.57258 0.0
Li775 Li 0.23958 0.62153 0.56421 0.0
C776 C 0.27702 0.65441 0.60269 0.0
N777 N 0.29305 0.67276 0.62741 0.0
C778 C 0.28441 0.64624 0.61194 0.0
C779 C 0.27809 0.67209 0.60591 0.0
C780 C 0.29236 0.65569 0.62442 0.0
C781 C 0.28617 0.6811 0.61848 0.0
C782 C 0.23342 0.58694 0.57584 0.0
C783 C 0.23987 0.5665 0.56095 0.0
N784 N 0.22458 0.5505 0.56659 0.0
C785 C 0.21777 0.57031 0.58149 0.0
C786 C 0.24458 0.58506 0.56549 0.0
C787 C 0.21353 0.552 0.57668 0.0
C788 C 0.20717 0.62268 0.60326 0.0
N789 N 0.2252 0.6249 0.6048 0.0
C790 C 0.21989 0.61847 0.62891 0.0
C791 C 0.23165 0.62277 0.61728 0.0
C792 C 0.20113 0.61596 0.62765 0.0
C793 C 0.19486 0.61824 0.6146 0.0
H794 H 0.20221 0.62398 0.59316 0.0
H795 H 0.24576 0.624 0.6182 0.0
C796 C 0.30159 0.62583 0.5755 0.0
N797 N 0.28429 0.61595 0.58212 0.0
C798 C 0.31673 0.6224 0.57871 0.0
C799 C 0.29581 0.59837 0.59532 0.0
C800 C 0.28099 0.60219 0.59171 0.0
C801 C 0.31413 0.60885 0.58898 0.0
H802 H 0.3038 0.63681 0.56802 0.0
H803 H 0.26711 0.59475 0.59692 0.0
C804 C 0.22989 0.65546 0.57387 0.0
N805 N 0.21941 0.68375 0.57573 0.0
C806 C 0.22105 0.65908 0.56269 0.0
C807 C 0.23315 0.66603 0.58605 0.0
C808 C 0.21593 0.6735 0.56382 0.0
C809 C 0.22781 0.68032 0.58678 0.0
C810 C 0.27134 0.64283 0.54685 0.0
C811 C 0.26013 0.65021 0.54124 0.0
C812 C 0.28601 0.64275 0.53896 0.0
C813 C 0.26384 0.65749 0.52783 0.0
C814 C 0.28928 0.65016 0.52559 0.0
N815 N 0.27822 0.65732 0.52035 0.0
C816 C 0.29884 0.68793 0.57369 0.0
C817 C 0.275 0.69096 0.56097 0.0
C818 C 0.31254 0.70737 0.57127 0.0
N819 N 0.28046 0.68017 0.56866 0.0
C820 C 0.28832 0.71049 0.5582 0.0
C821 C 0.30735 0.71893 0.56343 0.0
H822 H 0.30291 0.6789 0.57951 0.0
H823 H 0.26045 0.68442 0.55683 0.0
C824 C 0.20465 0.60693 0.54967 0.0
N825 N 0.22238 0.60826 0.54937 0.0
C826 C 0.19184 0.59874 0.5386 0.0
C827 C 0.21557 0.59291 0.5273 0.0
C828 C 0.22795 0.60128 0.53858 0.0
C829 C 0.19732 0.59178 0.52713 0.0
H830 H 0.20066 0.61267 0.55839 0.0
H831 H 0.24217 0.60256 0.5386 0.0
O832 O 0.26936 0.64543 0.59037 0.0
O833 O 0.23765 0.60493 0.58044 0.0
O834 O 0.23507 0.64145 0.57289 0.0
O835 O 0.26792 0.6355 0.55993 0.0
H836 H 0.28387 0.63267 0.60957 0.0
H837 H 0.27298 0.67893 0.59872 0.0
H838 H 0.298 0.64945 0.63172 0.0
H839 H 0.28704 0.69476 0.62111 0.0
H840 H 0.24837 0.56483 0.55294 0.0
H841 H 0.20899 0.57154 0.58951 0.0
H842 H 0.25673 0.59775 0.56097 0.0
H843 H 0.20146 0.539 0.58095 0.0
H844 H 0.22544 0.61701 0.63875 0.0
H845 H 0.18039 0.61605 0.61305 0.0
H846 H 0.33048 0.63059 0.57339 0.0
H847 H 0.29322 0.58797 0.60339 0.0
H848 H 0.21828 0.65093 0.55321 0.0
H849 H 0.23957 0.66313 0.59488 0.0
H850 H 0.2092 0.67654 0.55522 0.0
H851 H 0.2303 0.68864 0.59614 0.0
H852 H 0.24863 0.65023 0.54713 0.0
H853 H 0.29474 0.63697 0.54312 0.0
H854 H 0.25527 0.66324 0.52337 0.0
H855 H 0.30059 0.65019 0.51937 0.0
H856 H 0.32714 0.7132 0.5753 0.0
H857 H 0.28373 0.71892 0.55213 0.0
H858 H 0.17807 0.59846 0.53885 0.0
H859 H 0.2203 0.58753 0.51876 0.0
Li860 Li 0.66826 0.26396 0.74506 0.0
Li861 Li 0.63918 0.24014 0.75645 0.0
Li862 Li 0.64373 0.238 0.73078 0.0
Li863 Li 0.63807 0.26371 0.74119 0.0
C864 C 0.67379 0.23238 0.74726 0.0
N865 N 0.70456 0.22548 0.74889 0.0
C866 C 0.68271 0.23365 0.75993 0.0
C867 C 0.68044 0.22751 0.73543 0.0
C868 C 0.69829 0.23015 0.76053 0.0
C869 C 0.69603 0.2241 0.73647 0.0
C870 C 0.65256 0.27168 0.77227 0.0
C871 C 0.63595 0.27228 0.79287 0.0
N872 N 0.65229 0.27719 0.80033 0.0
C873 C 0.66921 0.27681 0.78013 0.0
C874 C 0.63582 0.26949 0.77866 0.0
C875 C 0.66877 0.27952 0.79431 0.0
C876 C 0.69818 0.30055 0.7507 0.0
N877 N 0.69537 0.28273 0.74721 0.0
C878 C 0.72974 0.29504 0.7474 0.0
C879 C 0.71071 0.2798 0.74529 0.0
C880 C 0.73291 0.3135 0.75111 0.0
C881 C 0.71687 0.3162 0.75264 0.0
H882 H 0.68578 0.30258 0.75197 0.0
H883 H 0.70835 0.26581 0.74206 0.0
C884 C 0.60894 0.21025 0.7716 0.0
N885 N 0.62796 0.22436 0.77236 0.0
C886 C 0.59996 0.19792 0.78276 0.0
C887 C 0.63024 0.21494 0.79536 0.0
C888 C 0.63873 0.22673 0.78387 0.0
C889 C 0.61064 0.20026 0.79483 0.0
H890 H 0.60076 0.20845 0.76228 0.0
H891 H 0.65393 0.23768 0.78413 0.0
C892 C 0.67318 0.27976 0.72049 0.0
N893 N 0.70687 0.30795 0.70818 0.0
C894 C 0.67766 0.29917 0.72058 0.0
C895 C 0.6857 0.27463 0.71404 0.0
C896 C 0.6948 0.31322 0.71432 0.0
C897 C 0.7027 0.28911 0.70791 0.0
C898 C 0.60285 0.23277 0.73777 0.0
C899 C 0.59527 0.22678 0.72453 0.0
C900 C 0.59241 0.23684 0.74748 0.0
C901 C 0.57742 0.22519 0.72117 0.0
C902 C 0.57462 0.23511 0.74372 0.0
N903 N 0.56756 0.22939 0.73075 0.0
C904 C 0.6318 0.20187 0.71838 0.0
C905 C 0.63889 0.22743 0.70269 0.0
C906 C 0.62642 0.18854 0.70759 0.0
N907 N 0.63785 0.22085 0.71574 0.0
C908 C 0.63354 0.21458 0.69158 0.0
C909 C 0.62714 0.19482 0.69397 0.0
H910 H 0.63097 0.19709 0.72891 0.0
H911 H 0.64365 0.24262 0.70095 0.0
C912 C 0.63202 0.29482 0.74706 0.0
N913 N 0.62763 0.28027 0.73788 0.0
C914 C 0.62616 0.30844 0.74464 0.0
C915 C 0.61119 0.29177 0.72338 0.0
C916 C 0.61756 0.2786 0.72615 0.0
C917 C 0.61563 0.3071 0.73263 0.0
H918 H 0.64058 0.2962 0.75609 0.0
H919 H 0.61478 0.26724 0.71881 0.0
O920 O 0.6583 0.23538 0.7465 0.0
O921 O 0.65267 0.26892 0.75838 0.0
O922 O 0.6568 0.26591 0.72692 0.0
O923 O 0.62041 0.23461 0.74121 0.0
H924 H 0.67776 0.23742 0.76917 0.0
H925 H 0.6737 0.22646 0.72554 0.0
H926 H 0.70539 0.23116 0.77026 0.0
H927 H 0.70137 0.22037 0.72739 0.0
H928 H 0.62307 0.27054 0.79796 0.0
H929 H 0.68225 0.27841 0.77539 0.0
H930 H 0.62285 0.26562 0.77272 0.0
H931 H 0.68151 0.28338 0.80054 0.0
H932 H 0.74183 0.29252 0.74601 0.0
H933 H 0.71874 0.3302 0.75559 0.0
H934 H 0.58478 0.18677 0.78199 0.0
H935 H 0.639 0.21699 0.80444 0.0
H936 H 0.66811 0.30335 0.72557 0.0
H937 H 0.68241 0.25965 0.71393 0.0
H938 H 0.69855 0.32833 0.71439 0.0
H939 H 0.7126 0.28539 0.70296 0.0
H940 H 0.60315 0.22351 0.7169 0.0
H941 H 0.59803 0.24137 0.7578 0.0
H942 H 0.57141 0.22067 0.71094 0.0
H943 H 0.56643 0.23833 0.75111 0.0
H944 H 0.62133 0.1734 0.70989 0.0
H945 H 0.63447 0.22003 0.68123 0.0
H946 H 0.63037 0.32024 0.75191 0.0
H947 H 0.60299 0.29001 0.71405 0.0
Li948 Li 0.41661 0.62674 0.92448 0.0
Li949 Li 0.42222 0.65799 0.91415 0.0
Li950 Li 0.39336 0.62838 0.90952 0.0
Li951 Li 0.42263 0.63341 0.89902 0.0
C952 C 0.38511 0.63546 0.9338 0.0
N953 N 0.34875 0.6234 0.94477 0.0
C954 C 0.37793 0.64832 0.93451 0.0
C955 C 0.37385 0.6165 0.93877 0.0
C956 C 0.35949 0.64193 0.94005 0.0
C957 C 0.3555 0.61068 0.94427 0.0
C958 C 0.45705 0.65743 0.92215 0.0
C959 C 0.49205 0.67459 0.92373 0.0
N960 N 0.49081 0.67775 0.93736 0.0
C961 C 0.4561 0.66086 0.93616 0.0
C962 C 0.47514 0.66432 0.91587 0.0
C963 C 0.47334 0.67115 0.94368 0.0
C964 C 0.42984 0.604 0.93779 0.0
N965 N 0.42135 0.615 0.93985 0.0
C966 C 0.42033 0.60986 0.96413 0.0
C967 C 0.41662 0.61811 0.95268 0.0
C968 C 0.42913 0.59844 0.96236 0.0
C969 C 0.43392 0.59555 0.94897 0.0
H970 H 0.43349 0.60186 0.92746 0.0
H971 H 0.41015 0.62718 0.95403 0.0
C972 C 0.41855 0.69052 0.91343 0.0
N973 N 0.43173 0.68504 0.91681 0.0
C974 C 0.42299 0.70974 0.91518 0.0
C975 C 0.45473 0.71754 0.92367 0.0
C976 C 0.4497 0.69814 0.92165 0.0
C977 C 0.44122 0.72349 0.9205 0.0
H978 H 0.40445 0.67984 0.90946 0.0
H979 H 0.46016 0.69368 0.92397 0.0
C980 C 0.38911 0.59223 0.9037 0.0
N981 N 0.36065 0.55673 0.89364 0.0
C982 C 0.38251 0.59065 0.89016 0.0
C983 C 0.38134 0.57579 0.91211 0.0
C984 C 0.36808 0.57257 0.88527 0.0
C985 C 0.36694 0.55796 0.90683 0.0
C986 C 0.41936 0.66256 0.88633 0.0
C987 C 0.40926 0.66656 0.87627 0.0
C988 C 0.4397 0.67291 0.88642 0.0
C989 C 0.41968 0.68083 0.86642 0.0
C990 C 0.44959 0.68708 0.8764 0.0
N991 N 0.43946 0.69071 0.86669 0.0
C992 C 0.36262 0.63295 0.90152 0.0
C993 C 0.35164 0.60051 0.90856 0.0
C994 C 0.34358 0.62866 0.89911 0.0
N995 N 0.36631 0.61897 0.90616 0.0
C996 C 0.33234 0.59548 0.90604 0.0
C997 C 0.32818 0.60973 0.90135 0.0
H998 H 0.37452 0.64757 0.8999 0.0
H999 H 0.35479 0.58976 0.91267 0.0
C1000 C 0.44876 0.62504 0.88497 0.0
N1001 N 0.43385 0.62863 0.88334 0.0
C1002 C 0.4566 0.62068 0.87355 0.0
C1003 C 0.43374 0.62413 0.85904 0.0
C1004 C 0.42631 0.6283 0.87071 0.0
C1005 C 0.44895 0.62001 0.86036 0.0
H1006 H 0.45435 0.62524 0.89517 0.0
H1007 H 0.41434 0.63107 0.86972 0.0
O1008 O 0.40286 0.64123 0.92802 0.0
O1009 O 0.44041 0.6472 0.91459 0.0
O1010 O 0.40317 0.60976 0.90873 0.0
O1011 O 0.40922 0.64862 0.89603 0.0
H1012 H 0.38645 0.66304 0.93073 0.0
H1013 H 0.37909 0.60628 0.93814 0.0
H1014 H 0.3537 0.65169 0.94058 0.0
H1015 H 0.34657 0.59601 0.94805 0.0
H1016 H 0.50615 0.68004 0.919 0.0
H1017 H 0.44222 0.65591 0.94112 0.0
H1018 H 0.47609 0.66178 0.90502 0.0
H1019 H 0.47284 0.67396 0.95452 0.0
H1020 H 0.41666 0.61267 0.97428 0.0
H1021 H 0.44054 0.58669 0.94715 0.0
H1022 H 0.4121 0.71367 0.9127 0.0
H1023 H 0.46905 0.72779 0.92761 0.0
H1024 H 0.38828 0.6033 0.88358 0.0
H1025 H 0.38634 0.57683 0.92262 0.0
H1026 H 0.36274 0.57113 0.87484 0.0
H1027 H 0.36074 0.5451 0.91323 0.0
H1028 H 0.39351 0.65868 0.87606 0.0
H1029 H 0.44782 0.67009 0.8941 0.0
H1030 H 0.41205 0.68406 0.85857 0.0
H1031 H 0.46532 0.69519 0.87635 0.0
H1032 H 0.34092 0.64001 0.89544 0.0
H1033 H 0.32076 0.58078 0.90804 0.0
H1034 H 0.46815 0.61736 0.87508 0.0
H1035 H 0.42758 0.62407 0.84908 0.0
Li1036 Li 0.78655 0.41109 0.07805 0.0
Li1037 Li 0.81165 0.40594 0.08854 0.0
Li1038 Li 0.81112 0.4099 0.06298 0.0
Li1039 Li 0.78735 0.38012 0.07472 0.0
C1040 C 0.82143 0.44817 0.0758 0.0
N1041 N 0.83423 0.48716 0.07149 0.0
C1042 C 0.83006 0.46158 0.08653 0.0
C1043 C 0.81963 0.45468 0.06281 0.0
C1044 C 0.83634 0.4812 0.08417 0.0
C1045 C 0.82611 0.47442 0.06086 0.0
C1046 C 0.78152 0.38945 0.10569 0.0
C1047 C 0.78459 0.37544 0.1269 0.0
N1048 N 0.77919 0.38672 0.13404 0.0
C1049 C 0.77585 0.40079 0.11323 0.0
C1050 C 0.78577 0.37655 0.11255 0.0
C1051 C 0.77481 0.39923 0.12757 0.0
C1052 C 0.75024 0.40789 0.07787 0.0
N1053 N 0.7692 0.42075 0.08069 0.0
C1054 C 0.76107 0.44454 0.08805 0.0
C1055 C 0.77484 0.4388 0.08573 0.0
C1056 C 0.74132 0.43152 0.08527 0.0
C1057 C 0.736 0.41298 0.08007 0.0
H1058 H 0.74617 0.39353 0.07408 0.0
H1059 H 0.78993 0.44865 0.08815 0.0
C1060 C 0.84011 0.40565 0.10652 0.0
N1061 N 0.82767 0.41249 0.10446 0.0
C1062 C 0.85141 0.41058 0.1185 0.0
C1063 C 0.83673 0.42937 0.12594 0.0
C1064 C 0.82592 0.42424 0.11381 0.0
C1065 C 0.84978 0.42261 0.12843 0.0
H1066 H 0.84129 0.3964 0.09885 0.0
H1067 H 0.81588 0.42944 0.11191 0.0
C1068 C 0.77425 0.39775 0.04919 0.0
N1069 N 0.75735 0.4018 0.02544 0.0
C1070 C 0.7655 0.38244 0.03973 0.0
C1071 C 0.77408 0.415 0.04666 0.0
C1072 C 0.75714 0.3848 0.02776 0.0
C1073 C 0.76555 0.41679 0.03458 0.0
C1074 C 0.8174 0.37534 0.07036 0.0
C1075 C 0.82171 0.37267 0.05687 0.0
C1076 C 0.81418 0.36143 0.08037 0.0
C1077 C 0.82249 0.35593 0.05358 0.0
C1078 C 0.81506 0.34488 0.07667 0.0
N1079 N 0.81915 0.34249 0.06346 0.0
C1080 C 0.84554 0.43481 0.04904 0.0
C1081 C 0.81976 0.41389 0.03418 0.0
C1082 C 0.85789 0.44338 0.03784 0.0
N1083 N 0.82684 0.42047 0.04703 0.0
C1084 C 0.83157 0.42214 0.02267 0.0
C1085 C 0.8509 0.43711 0.02443 0.0
H1086 H 0.8508 0.43967 0.05939 0.0
H1087 H 0.80502 0.40216 0.03284 0.0
C1088 C 0.75734 0.34302 0.08249 0.0
N1089 N 0.77056 0.35289 0.07247 0.0
C1090 C 0.74259 0.32387 0.08026 0.0
C1091 C 0.7558 0.32513 0.05765 0.0
C1092 C 0.77032 0.34424 0.06033 0.0
C1093 C 0.74134 0.31487 0.06754 0.0
H1094 H 0.75768 0.3503 0.09197 0.0
H1095 H 0.7808 0.35252 0.05244 0.0
O1096 O 0.81524 0.4289 0.07796 0.0
O1097 O 0.78292 0.39099 0.09167 0.0
O1098 O 0.78239 0.39558 0.06102 0.0
O1099 O 0.81638 0.39153 0.07374 0.0
H1100 H 0.83184 0.45691 0.0966 0.0
H1101 H 0.81353 0.4447 0.05428 0.0
H1102 H 0.84292 0.49169 0.09241 0.0
H1103 H 0.82476 0.47962 0.05086 0.0
H1104 H 0.78798 0.36563 0.13235 0.0
H1105 H 0.77246 0.41081 0.10809 0.0
H1106 H 0.79009 0.36761 0.10687 0.0
H1107 H 0.77057 0.40801 0.13354 0.0
H1108 H 0.76586 0.45902 0.09198 0.0
H1109 H 0.72094 0.40232 0.07802 0.0
H1110 H 0.86141 0.40519 0.11991 0.0
H1111 H 0.83463 0.43832 0.13337 0.0
H1112 H 0.76526 0.3689 0.04155 0.0
H1113 H 0.78021 0.4268 0.05399 0.0
H1114 H 0.75045 0.37311 0.02032 0.0
H1115 H 0.76536 0.43008 0.0325 0.0
H1116 H 0.82431 0.38332 0.04901 0.0
H1117 H 0.81092 0.36334 0.09086 0.0
H1118 H 0.82572 0.35361 0.04317 0.0
H1119 H 0.81248 0.33393 0.08429 0.0
H1120 H 0.87266 0.455 0.03964 0.0
H1121 H 0.82572 0.41667 0.01252 0.0
H1122 H 0.73188 0.31643 0.08823 0.0
H1123 H 0.75527 0.3189 0.04762 0.0
Li1124 Li 0.42913 0.81232 0.25387 0.0
Li1125 Li 0.39829 0.78812 0.24477 0.0
Li1126 Li 0.42673 0.78591 0.23942 0.0
Li1127 Li 0.42149 0.8119 0.22894 0.0
C1128 C 0.40891 0.77932 0.27083 0.0
N1129 N 0.39627 0.76999 0.29768 0.0
C1130 C 0.39769 0.78644 0.27678 0.0
C1131 C 0.41363 0.76738 0.2785 0.0
C1132 C 0.39145 0.78158 0.29037 0.0
C1133 C 0.40713 0.76285 0.29207 0.0
C1134 C 0.397 0.82377 0.24648 0.0
C1135 C 0.37538 0.83374 0.23678 0.0
N1136 N 0.37238 0.83871 0.24956 0.0
C1137 C 0.39395 0.82927 0.2595 0.0
C1138 C 0.38786 0.82627 0.23499 0.0
C1139 C 0.38135 0.83667 0.26086 0.0
C1140 C 0.44592 0.84826 0.26689 0.0
N1141 N 0.44201 0.82969 0.26869 0.0
C1142 C 0.45373 0.83668 0.29183 0.0
C1143 C 0.44621 0.82384 0.28071 0.0
C1144 C 0.4572 0.85581 0.29049 0.0
C1145 C 0.45363 0.86165 0.27767 0.0
H1146 H 0.44257 0.85252 0.25715 0.0
H1147 H 0.44327 0.80908 0.28182 0.0
C1148 C 0.36722 0.75278 0.25219 0.0
N1149 N 0.37134 0.77107 0.24884 0.0
C1150 C 0.3482 0.73839 0.25502 0.0
C1151 C 0.33784 0.76191 0.25119 0.0
C1152 C 0.35713 0.77588 0.24831 0.0
C1153 C 0.3332 0.74284 0.25449 0.0
H1154 H 0.37878 0.74933 0.25249 0.0
H1155 H 0.36061 0.7904 0.24553 0.0
C1156 C 0.46386 0.81882 0.24228 0.0
N1157 N 0.50028 0.82758 0.25154 0.0
C1158 C 0.48053 0.83358 0.236 0.0
C1159 C 0.4657 0.80851 0.25329 0.0
C1160 C 0.49883 0.83779 0.24082 0.0
C1161 C 0.48424 0.81317 0.25782 0.0
C1162 C 0.38888 0.77044 0.22073 0.0
C1163 C 0.38249 0.75054 0.22105 0.0
C1164 C 0.37699 0.77691 0.21498 0.0
C1165 C 0.3641 0.73739 0.21581 0.0
C1166 C 0.3587 0.76331 0.20985 0.0
N1167 N 0.35267 0.74399 0.21038 0.0
C1168 C 0.42365 0.74989 0.24163 0.0
C1169 C 0.45045 0.77166 0.2279 0.0
C1170 C 0.42687 0.73463 0.23838 0.0
N1171 N 0.43512 0.76781 0.23615 0.0
C1172 C 0.45438 0.75682 0.22452 0.0
C1173 C 0.44216 0.73794 0.22953 0.0
H1174 H 0.4115 0.74729 0.24808 0.0
H1175 H 0.45919 0.78603 0.22358 0.0
C1176 C 0.4326 0.84693 0.21511 0.0
N1177 N 0.42579 0.82761 0.21328 0.0
C1178 C 0.43666 0.85909 0.20373 0.0
C1179 C 0.42648 0.83117 0.18886 0.0
C1180 C 0.42259 0.81955 0.20052 0.0
C1181 C 0.43376 0.85126 0.19038 0.0
H1182 H 0.43509 0.85289 0.22541 0.0
H1183 H 0.41719 0.80412 0.19942 0.0
O1184 O 0.41524 0.7839 0.25756 0.0
O1185 O 0.40951 0.81676 0.24492 0.0
O1186 O 0.44588 0.81463 0.2377 0.0
O1187 O 0.40657 0.78351 0.22622 0.0
H1188 H 0.39374 0.79549 0.27093 0.0
H1189 H 0.42232 0.76175 0.27403 0.0
H1190 H 0.38275 0.78699 0.2951 0.0
H1191 H 0.41073 0.75367 0.29815 0.0
H1192 H 0.36811 0.83563 0.22799 0.0
H1193 H 0.40133 0.82799 0.26846 0.0
H1194 H 0.39037 0.8225 0.22481 0.0
H1195 H 0.37877 0.84089 0.27088 0.0
H1196 H 0.45607 0.83142 0.30151 0.0
H1197 H 0.45646 0.87632 0.27603 0.0
H1198 H 0.3453 0.72393 0.25769 0.0
H1199 H 0.32663 0.76587 0.25058 0.0
H1200 H 0.47933 0.8417 0.22748 0.0
H1201 H 0.45298 0.79705 0.2583 0.0
H1202 H 0.51186 0.84918 0.23605 0.0
H1203 H 0.48588 0.80532 0.26632 0.0
H1204 H 0.39152 0.74528 0.22542 0.0
H1205 H 0.38177 0.79226 0.21458 0.0
H1206 H 0.3589 0.72193 0.21609 0.0
H1207 H 0.34928 0.76811 0.20546 0.0
H1208 H 0.41722 0.72028 0.24249 0.0
H1209 H 0.46621 0.75984 0.21757 0.0
H1210 H 0.44249 0.87452 0.20538 0.0
H1211 H 0.42384 0.82451 0.17876 0.0
H1212 H 0.1545 0.62123 0.29015 0.0
H1213 H 0.18731 0.64893 0.2875 0.0
H1214 H 0.20372 0.61309 0.26416 0.0
H1215 H 0.17126 0.58506 0.26751 0.0
H1216 H 0.23197 0.63501 0.28022 0.0
H1217 H 0.19122 0.64659 0.24918 0.0
H1218 H 0.16348 0.65096 0.24303 0.0
H1219 H 0.18465 0.6999 0.27043 0.0
H1220 H 0.21238 0.69567 0.27688 0.0
H1221 H 0.31426 0.7056 0.24481 0.0
H1222 H 0.28144 0.6797 0.25044 0.0
H1223 H 0.27334 0.71939 0.2762 0.0
H1224 H 0.30624 0.74549 0.2705 0.0
H1225 H 0.24133 0.69691 0.26087 0.0
H1226 H 0.28369 0.68622 0.29038 0.0
H1227 H 0.31161 0.68177 0.29568 0.0
H1228 H 0.28742 0.63077 0.27011 0.0
H1229 H 0.25948 0.63507 0.2645 0.0
C1230 C 0.16519 0.61915 0.28467 0.0
C1231 C 0.16038 0.60083 0.27922 0.0
C1232 C 0.18391 0.63508 0.28301 0.0
C1233 C 0.19797 0.63322 0.27545 0.0
C1234 C 0.19319 0.61493 0.27008 0.0
C1235 C 0.17464 0.59892 0.27197 0.0
C1236 C 0.21761 0.65025 0.27294 0.0
C1237 C 0.23397 0.64846 0.27585 0.0
C1238 C 0.22033 0.66804 0.26757 0.0
C1239 C 0.20375 0.67069 0.26361 0.0
C1240 C 0.18989 0.65821 0.25395 0.0
C1241 C 0.17418 0.66067 0.25041 0.0
C1242 C 0.17228 0.67567 0.25636 0.0
C1243 C 0.18612 0.68828 0.26584 0.0
C1244 C 0.20184 0.68586 0.26944 0.0
C1245 C 0.30551 0.7088 0.25171 0.0
C1246 C 0.31287 0.72751 0.25733 0.0
C1247 C 0.28677 0.69399 0.25492 0.0
C1248 C 0.27509 0.69752 0.26395 0.0
C1249 C 0.28216 0.71634 0.26926 0.0
C1250 C 0.30091 0.73123 0.26597 0.0
C1251 C 0.25556 0.68146 0.2679 0.0
C1252 C 0.23927 0.68348 0.2653 0.0
C1253 C 0.25289 0.66381 0.27344 0.0
C1254 C 0.26956 0.66105 0.27695 0.0
C1255 C 0.28438 0.67412 0.28583 0.0
C1256 C 0.3002 0.67162 0.28889 0.0
C1257 C 0.3013 0.65602 0.28322 0.0
C1258 C 0.28655 0.64285 0.27449 0.0
C1259 C 0.27071 0.6453 0.27139 0.0
H1260 H 0.31357 0.65411 0.28559 0.0
H1261 H 0.1601 0.67755 0.25361 0.0
H1262 H 0.60509 0.15462 0.43819 0.0
H1263 H 0.59699 0.17892 0.4303 0.0
H1264 H 0.61154 0.20606 0.47041 0.0
H1265 H 0.61843 0.18105 0.47856 0.0
H1266 H 0.58283 0.20867 0.46109 0.0
H1267 H 0.64426 0.22156 0.44162 0.0
H1268 H 0.66578 0.21379 0.42809 0.0
H1269 H 0.63102 0.20514 0.39202 0.0
H1270 H 0.60915 0.21263 0.40539 0.0
H1271 H 0.62073 0.30872 0.44732 0.0
H1272 H 0.61465 0.27619 0.45311 0.0
H1273 H 0.58969 0.25553 0.41288 0.0
H1274 H 0.59582 0.28821 0.407 0.0
H1275 H 0.6183 0.24653 0.41987 0.0
H1276 H 0.56045 0.24013 0.43989 0.0
H1277 H 0.54125 0.25004 0.4542 0.0
H1278 H 0.57199 0.24894 0.49027 0.0
H1279 H 0.59158 0.23929 0.47615 0.0
C1280 C 0.60616 0.1655 0.44542 0.0
C1281 C 0.61239 0.1659 0.45905 0.0
C1282 C 0.60169 0.17953 0.44085 0.0
C1283 C 0.60405 0.19464 0.44965 0.0
C1284 C 0.60959 0.19461 0.46338 0.0
C1285 C 0.61361 0.18036 0.46803 0.0
C1286 C 0.60195 0.21116 0.44451 0.0
C1287 C 0.59067 0.21698 0.45211 0.0
C1288 C 0.61177 0.22182 0.43259 0.0
C1289 C 0.62496 0.21742 0.42454 0.0
C1290 C 0.64115 0.21788 0.43083 0.0
C1291 C 0.65341 0.21354 0.42319 0.0
C1292 C 0.64974 0.20891 0.40921 0.0
C1293 C 0.63382 0.20868 0.40285 0.0
C1294 C 0.6215 0.21298 0.41045 0.0
C1295 C 0.6138 0.2972 0.43975 0.0
C1296 C 0.60883 0.30099 0.42669 0.0
C1297 C 0.6102 0.2786 0.44311 0.0
C1298 C 0.6016 0.26342 0.43346 0.0
C1299 C 0.59626 0.26704 0.42049 0.0
C1300 C 0.59968 0.28565 0.41717 0.0
C1301 C 0.59964 0.24426 0.43666 0.0
C1302 C 0.61018 0.23798 0.4287 0.0
C1303 C 0.58944 0.23343 0.44838 0.0
C1304 C 0.57757 0.23908 0.45693 0.0
C1305 C 0.56321 0.24212 0.45085 0.0
C1306 C 0.55224 0.24767 0.45894 0.0
C1307 C 0.55542 0.25014 0.47313 0.0
C1308 C 0.56954 0.24702 0.47927 0.0
C1309 C 0.58057 0.24148 0.47124 0.0
H1310 H 0.54691 0.25445 0.47937 0.0
H1311 H 0.65925 0.20556 0.40332 0.0
H1312 H 0.47804 0.63257 0.62722 0.0
H1313 H 0.44869 0.63007 0.6169 0.0
H1314 H 0.41426 0.57253 0.63381 0.0
H1315 H 0.44349 0.57518 0.64457 0.0
H1316 H 0.40605 0.57941 0.60416 0.0
H1317 H 0.41104 0.6018 0.65103 0.0
H1318 H 0.42844 0.62285 0.67083 0.0
H1319 H 0.43932 0.67329 0.64761 0.0
H1320 H 0.42227 0.65254 0.62757 0.0
H1321 H 0.31416 0.57537 0.59623 0.0
H1322 H 0.34163 0.5725 0.60487 0.0
H1323 H 0.37922 0.63449 0.6006 0.0
H1324 H 0.35183 0.63757 0.59256 0.0
H1325 H 0.38477 0.62302 0.62464 0.0
H1326 H 0.38048 0.60175 0.57781 0.0
H1327 H 0.36445 0.58166 0.55732 0.0
H1328 H 0.35324 0.53028 0.57942 0.0
H1329 H 0.36899 0.55005 0.60011 0.0
C1330 C 0.46423 0.61938 0.62871 0.0
C1331 C 0.46295 0.60425 0.63696 0.0
C1332 C 0.44754 0.61793 0.62275 0.0
C1333 C 0.42938 0.60118 0.62471 0.0
C1334 C 0.42819 0.58556 0.63222 0.0
C1335 C 0.44485 0.58714 0.63839 0.0
C1336 C 0.41153 0.60074 0.61983 0.0
C1337 C 0.40116 0.5887 0.60872 0.0
C1338 C 0.40548 0.61314 0.62568 0.0
C1339 C 0.41557 0.62564 0.63775 0.0
C1340 C 0.41731 0.6174 0.6501 0.0
C1341 C 0.42708 0.62927 0.66138 0.0
C1342 C 0.43503 0.6494 0.66047 0.0
C1343 C 0.43318 0.65769 0.64829 0.0
C1344 C 0.42346 0.64588 0.63697 0.0
C1345 C 0.32827 0.58839 0.59718 0.0
C1346 C 0.3308 0.60669 0.59362 0.0
C1347 C 0.34399 0.5867 0.602 0.0
C1348 C 0.36253 0.60326 0.60326 0.0
C1349 C 0.36507 0.6215 0.59967 0.0
C1350 C 0.3494 0.6232 0.59493 0.0
C1351 C 0.37926 0.60188 0.60874 0.0
C1352 C 0.38948 0.6136 0.62005 0.0
C1353 C 0.38519 0.58927 0.60297 0.0
C1354 C 0.37571 0.57735 0.59056 0.0
C1355 C 0.37444 0.58615 0.57834 0.0
C1356 C 0.36544 0.57482 0.56668 0.0
C1357 C 0.35778 0.5547 0.56708 0.0
C1358 C 0.35915 0.54586 0.57913 0.0
C1359 C 0.36812 0.55712 0.59082 0.0
H1360 H 0.35082 0.54596 0.55804 0.0
H1361 H 0.44258 0.65857 0.66921 0.0
H1362 H 0.87516 0.47987 0.78639 0.0
H1363 H 0.85235 0.45131 0.77298 0.0
H1364 H 0.85518 0.41376 0.80382 0.0
H1365 H 0.87816 0.44232 0.81721 0.0
H1366 H 0.85301 0.39976 0.77685 0.0
H1367 H 0.82017 0.42384 0.80573 0.0
H1368 H 0.8136 0.44908 0.81467 0.0
H1369 H 0.79758 0.45759 0.77413 0.0
H1370 H 0.80438 0.43261 0.76491 0.0
H1371 H 0.76045 0.3139 0.76813 0.0
H1372 H 0.791 0.34233 0.77543 0.0
H1373 H 0.78045 0.37838 0.74754 0.0
H1374 H 0.74963 0.35008 0.74059 0.0
H1375 H 0.7881 0.3939 0.77165 0.0
H1376 H 0.81826 0.36765 0.74288 0.0
H1377 H 0.82504 0.34255 0.73397 0.0
H1378 H 0.84596 0.33784 0.77374 0.0
H1379 H 0.83906 0.36272 0.78295 0.0
C1380 C 0.87126 0.46553 0.79013 0.0
C1381 C 0.87847 0.46327 0.8028 0.0
C1382 C 0.85822 0.44925 0.7825 0.0
C1383 C 0.85199 0.43044 0.78748 0.0
C1384 C 0.85989 0.42815 0.79978 0.0
C1385 C 0.87293 0.44444 0.80743 0.0
C1386 C 0.83578 0.4133 0.78064 0.0
C1387 C 0.83876 0.39835 0.77575 0.0
C1388 C 0.81732 0.41169 0.77904 0.0
C1389 C 0.81298 0.42652 0.78461 0.0
C1390 C 0.81538 0.4312 0.79871 0.0
C1391 C 0.81161 0.44544 0.80382 0.0
C1392 C 0.80522 0.45497 0.79497 0.0
C1393 C 0.80255 0.45022 0.78097 0.0
C1394 C 0.80636 0.43602 0.77579 0.0
C1395 C 0.76491 0.32784 0.76336 0.0
C1396 C 0.7527 0.32989 0.75387 0.0
C1397 C 0.78239 0.34407 0.7675 0.0
C1398 C 0.78811 0.36253 0.76199 0.0
C1399 C 0.77633 0.36433 0.75198 0.0
C1400 C 0.75875 0.34818 0.748 0.0
C1401 C 0.80523 0.38023 0.76764 0.0
C1402 C 0.80238 0.39529 0.77248 0.0
C1403 C 0.82375 0.38188 0.76915 0.0
C1404 C 0.82799 0.36695 0.76363 0.0
C1405 C 0.82417 0.36116 0.74975 0.0
C1406 C 0.82806 0.34699 0.74464 0.0
C1407 C 0.83589 0.33857 0.75329 0.0
C1408 C 0.83989 0.34435 0.76706 0.0
C1409 C 0.83601 0.35851 0.77222 0.0
H1410 H 0.83889 0.3276 0.74931 0.0
H1411 H 0.8023 0.46599 0.79895 0.0
H1412 H 0.4856 0.89619 0.96163 0.0
H1413 H 0.47906 0.86297 0.95857 0.0
H1414 H 0.44875 0.8584 0.92059 0.0
H1415 H 0.45417 0.89126 0.9241 0.0
H1416 H 0.43026 0.82594 0.93333 0.0
H1417 H 0.49791 0.86832 0.92242 0.0
H1418 H 0.53155 0.89452 0.92687 0.0
H1419 H 0.53529 0.86303 0.96153 0.0
H1420 H 0.50157 0.83675 0.95739 0.0
H1421 H 0.43407 0.74665 0.90356 0.0
H1422 H 0.43978 0.77935 0.90833 0.0
H1423 H 0.46423 0.77877 0.9479 0.0
H1424 H 0.45865 0.74607 0.94314 0.0
H1425 H 0.48542 0.81328 0.93521 0.0
H1426 H 0.4176 0.77017 0.94508 0.0
H1427 H 0.38424 0.74399 0.93982 0.0
H1428 H 0.38125 0.77714 0.90598 0.0
H1429 H 0.41471 0.80341 0.91092 0.0
C1430 C 0.47721 0.88801 0.95276 0.0
C1431 C 0.47015 0.89628 0.94317 0.0
C1432 C 0.4737 0.86906 0.95093 0.0
C1433 C 0.46374 0.85827 0.93921 0.0
C1434 C 0.45647 0.8664 0.92973 0.0
C1435 C 0.45958 0.88517 0.93171 0.0
C1436 C 0.46111 0.83863 0.93666 0.0
C1437 C 0.44238 0.82326 0.93358 0.0
C1438 C 0.47683 0.83496 0.93727 0.0
C1439 C 0.49717 0.85066 0.93967 0.0
C1440 C 0.50587 0.86704 0.93104 0.0
C1441 C 0.52495 0.8819 0.9335 0.0
C1442 C 0.53553 0.88046 0.9445 0.0
C1443 C 0.52707 0.86414 0.95303 0.0
C1444 C 0.50799 0.84925 0.95062 0.0
C1445 C 0.44063 0.75349 0.91328 0.0
C1446 C 0.4458 0.74377 0.92302 0.0
C1447 C 0.44388 0.77215 0.916 0.0
C1448 C 0.45212 0.78135 0.92857 0.0
C1449 C 0.4578 0.77191 0.93815 0.0
C1450 C 0.45467 0.75327 0.9354 0.0
C1451 C 0.45465 0.80074 0.93177 0.0
C1452 C 0.47333 0.81601 0.93499 0.0
C1453 C 0.43893 0.80437 0.93117 0.0
C1454 C 0.41872 0.78868 0.92831 0.0
C1455 C 0.40987 0.77182 0.93647 0.0
C1456 C 0.39094 0.75697 0.93355 0.0
C1457 C 0.38065 0.75888 0.92256 0.0
C1458 C 0.38925 0.77567 0.91448 0.0
C1459 C 0.40818 0.79055 0.91735 0.0
H1460 H 0.366 0.74737 0.92031 0.0
H1461 H 0.5503 0.89199 0.94639 0.0
H1462 H 0.62254 0.48932 0.12521 0.0
H1463 H 0.64829 0.4814 0.12217 0.0
H1464 H 0.61629 0.44296 0.08855 0.0
H1465 H 0.5899 0.44994 0.09212 0.0
H1466 H 0.63167 0.42695 0.10278 0.0
H1467 H 0.65602 0.49107 0.08411 0.0
H1468 H 0.66468 0.52555 0.08451 0.0
H1469 H 0.70515 0.53679 0.11742 0.0
H1470 H 0.69654 0.5023 0.11734 0.0
H1471 H 0.70916 0.42303 0.06977 0.0
H1472 H 0.68348 0.43043 0.07506 0.0
H1473 H 0.71368 0.45995 0.1122 0.0
H1474 H 0.73928 0.45226 0.10716 0.0
H1475 H 0.6998 0.48043 0.09722 0.0
H1476 H 0.67574 0.41561 0.1146 0.0
H1477 H 0.66716 0.38121 0.11306 0.0
H1478 H 0.62607 0.37154 0.08092 0.0
H1479 H 0.63461 0.40596 0.08213 0.0
C1480 C 0.62079 0.4789 0.11733 0.0
C1481 C 0.60401 0.47 0.10902 0.0
C1482 C 0.63567 0.47457 0.11549 0.0
C1483 C 0.63443 0.46183 0.10497 0.0
C1484 C 0.61761 0.4528 0.09675 0.0
C1485 C 0.60255 0.45681 0.09878 0.0
C1486 C 0.65069 0.45804 0.10235 0.0
C1487 C 0.64651 0.43868 0.1014 0.0
C1488 C 0.67018 0.4733 0.10082 0.0
C1489 C 0.6755 0.49408 0.1008 0.0
C1490 C 0.66668 0.50088 0.09148 0.0
C1491 C 0.67159 0.52042 0.09165 0.0
C1492 C 0.68542 0.53334 0.101 0.0
C1493 C 0.69442 0.52676 0.11019 0.0
C1494 C 0.68955 0.50722 0.11008 0.0
C1495 C 0.7103 0.43097 0.07912 0.0
C1496 C 0.72624 0.43694 0.08809 0.0
C1497 C 0.69564 0.43524 0.0821 0.0
C1498 C 0.6966 0.44554 0.0941 0.0
C1499 C 0.7127 0.45198 0.10289 0.0
C1500 C 0.72735 0.44765 0.09995 0.0
C1501 C 0.68066 0.44941 0.09752 0.0
C1502 C 0.68493 0.46876 0.09863 0.0
C1503 C 0.66123 0.43416 0.09902 0.0
C1504 C 0.65594 0.4134 0.09838 0.0
C1505 C 0.66498 0.40618 0.10713 0.0
C1506 C 0.6601 0.38667 0.10633 0.0
C1507 C 0.64611 0.37421 0.09688 0.0
C1508 C 0.63692 0.38121 0.08823 0.0
C1509 C 0.64176 0.40071 0.08898 0.0
H1510 H 0.64236 0.35911 0.09627 0.0
H1511 H 0.6892 0.54846 0.10112 0.0
H1512 H 0.44286 0.89742 0.56649 0.0
H1513 H 0.41957 0.86268 0.56836 0.0
H1514 H 0.40081 0.86219 0.52656 0.0
H1515 H 0.42314 0.89716 0.52498 0.0
H1516 H 0.37083 0.84246 0.54111 0.0
H1517 H 0.43055 0.84182 0.53699 0.0
H1518 H 0.46441 0.851 0.54254 0.0
H1519 H 0.44736 0.82901 0.58356 0.0
H1520 H 0.41343 0.81992 0.57832 0.0
H1521 H 0.31468 0.73861 0.53905 0.0
H1522 H 0.33928 0.7725 0.53451 0.0
H1523 H 0.35731 0.77975 0.57706 0.0
H1524 H 0.33291 0.74588 0.5816 0.0
H1525 H 0.38812 0.79523 0.56036 0.0
H1526 H 0.32839 0.79753 0.56413 0.0
H1527 H 0.29461 0.78784 0.55786 0.0
H1528 H 0.31227 0.80618 0.51623 0.0
H1529 H 0.34613 0.81576 0.52222 0.0
C1530 C 0.43387 0.88983 0.55767 0.0
C1531 C 0.43511 0.90002 0.54554 0.0
C1532 C 0.42065 0.86993 0.5587 0.0
C1533 C 0.40867 0.85962 0.54749 0.0
C1534 C 0.40995 0.86975 0.53533 0.0
C1535 C 0.42287 0.88976 0.5344 0.0
C1536 C 0.39417 0.83852 0.54871 0.0
C1537 C 0.37474 0.83211 0.54509 0.0
C1538 C 0.39908 0.82495 0.55412 0.0
C1539 C 0.41947 0.83032 0.55729 0.0
C1540 C 0.43404 0.83905 0.54722 0.0
C1541 C 0.45325 0.84422 0.55031 0.0
C1542 C 0.45804 0.84062 0.5634 0.0
C1543 C 0.44363 0.8318 0.57343 0.0
C1544 C 0.4244 0.82661 0.5704 0.0
C1545 C 0.32378 0.7475 0.54745 0.0
C1546 C 0.32185 0.73961 0.56069 0.0
C1547 C 0.33784 0.76685 0.54485 0.0
C1548 C 0.35003 0.77873 0.55547 0.0
C1549 C 0.34811 0.77085 0.56869 0.0
C1550 C 0.33417 0.7515 0.57127 0.0
C1551 C 0.36489 0.79935 0.5529 0.0
C1552 C 0.38434 0.80563 0.55628 0.0
C1553 C 0.36005 0.81275 0.54714 0.0
C1554 C 0.33974 0.80719 0.54359 0.0
C1555 C 0.32504 0.79938 0.55362 0.0
C1556 C 0.30589 0.79393 0.55012 0.0
C1557 C 0.30129 0.79635 0.53665 0.0
C1558 C 0.31585 0.8043 0.52666 0.0
C1559 C 0.33502 0.80976 0.5301 0.0
H1560 H 0.28645 0.79211 0.53396 0.0
H1561 H 0.47291 0.84464 0.56577 0.0
H1562 H 0.57336 0.44364 0.7317 0.0
H1563 H 0.58371 0.41971 0.73524 0.0
H1564 H 0.57753 0.407 0.69171 0.0
H1565 H 0.56593 0.42992 0.68829 0.0
H1566 H 0.56299 0.37514 0.70433 0.0
H1567 H 0.62363 0.43407 0.7091 0.0
H1568 H 0.64681 0.4668 0.71793 0.0
H1569 H 0.63987 0.44399 0.75888 0.0
H1570 H 0.61644 0.41116 0.75032 0.0
H1571 H 0.61481 0.32265 0.70757 0.0
H1572 H 0.60621 0.34763 0.70279 0.0
H1573 H 0.59599 0.35106 0.74599 0.0
H1574 H 0.60375 0.32552 0.75086 0.0
H1575 H 0.62021 0.38791 0.7327 0.0
H1576 H 0.55845 0.32854 0.72658 0.0
H1577 H 0.53682 0.29621 0.71647 0.0
H1578 H 0.54853 0.32116 0.676 0.0
H1579 H 0.57046 0.35362 0.68586 0.0
C1580 C 0.57444 0.43587 0.72288 0.0
C1581 C 0.56919 0.43897 0.70971 0.0
C1582 C 0.58047 0.42228 0.72489 0.0
C1583 C 0.58184 0.41179 0.7137 0.0
C1584 C 0.57672 0.41496 0.7005 0.0
C1585 C 0.57025 0.42823 0.69854 0.0
C1586 C 0.58759 0.3968 0.71588 0.0
C1587 C 0.57572 0.37812 0.71033 0.0
C1588 C 0.60403 0.40045 0.72389 0.0
C1589 C 0.61814 0.42018 0.72908 0.0
C1590 C 0.62693 0.43606 0.72 0.0
C1591 C 0.64014 0.45462 0.72496 0.0
C1592 C 0.64478 0.45748 0.73896 0.0
C1593 C 0.63625 0.44176 0.74804 0.0
C1594 C 0.62302 0.42316 0.74314 0.0
C1595 C 0.6104 0.32842 0.71605 0.0
C1596 C 0.60996 0.32198 0.72962 0.0
C1597 C 0.60564 0.34282 0.7133 0.0
C1598 C 0.60049 0.35115 0.72405 0.0
C1599 C 0.60006 0.34486 0.73757 0.0
C1600 C 0.60459 0.33031 0.74033 0.0
C1601 C 0.59558 0.36649 0.72119 0.0
C1602 C 0.6076 0.38515 0.72662 0.0
C1603 C 0.57953 0.36295 0.71286 0.0
C1604 C 0.56625 0.34346 0.70695 0.0
C1605 C 0.55654 0.3271 0.71551 0.0
C1606 C 0.5442 0.30876 0.70983 0.0
C1607 C 0.54134 0.30662 0.6956 0.0
C1608 C 0.55078 0.32284 0.68702 0.0
C1609 C 0.56315 0.34121 0.69265 0.0
H1610 H 0.53178 0.29241 0.69122 0.0
H1611 H 0.65501 0.47186 0.74278 0.0
H1612 H 0.15156 0.55738 0.8633 0.0
H1613 H 0.184 0.56177 0.86681 0.0
H1614 H 0.19944 0.61219 0.89212 0.0
H1615 H 0.16735 0.60845 0.88802 0.0
H1616 H 0.22846 0.61932 0.8763 0.0
H1617 H 0.18568 0.5653 0.90544 0.0
H1618 H 0.15739 0.53298 0.91021 0.0
H1619 H 0.17968 0.50662 0.88254 0.0
H1620 H 0.20798 0.53883 0.87748 0.0
H1621 H 0.3105 0.62915 0.91098 0.0
H1622 H 0.27771 0.62283 0.90574 0.0
H1623 H 0.26766 0.5739 0.88043 0.0
H1624 H 0.30033 0.57985 0.88608 0.0
H1625 H 0.23616 0.56525 0.89464 0.0
H1626 H 0.27975 0.61915 0.86637 0.0
H1627 H 0.30814 0.65146 0.86178 0.0
H1628 H 0.28433 0.67807 0.88784 0.0
H1629 H 0.25592 0.64589 0.89273 0.0
C1630 C 0.16199 0.56961 0.8694 0.0
C1631 C 0.15705 0.58285 0.87517 0.0
C1632 C 0.18046 0.57196 0.87155 0.0
C1633 C 0.19412 0.58717 0.87988 0.0
C1634 C 0.1892 0.60039 0.88561 0.0
C1635 C 0.17089 0.59826 0.88327 0.0
C1636 C 0.2135 0.58937 0.88278 0.0
C1637 C 0.23011 0.60754 0.88045 0.0
C1638 C 0.21575 0.57386 0.88783 0.0
C1639 C 0.19884 0.55449 0.89099 0.0
C1640 C 0.18448 0.55262 0.90032 0.0
C1641 C 0.16846 0.53432 0.90308 0.0
C1642 C 0.16672 0.51776 0.89665 0.0
C1643 C 0.18104 0.51946 0.88749 0.0
C1644 C 0.19708 0.53773 0.88469 0.0
C1645 C 0.30124 0.61702 0.90434 0.0
C1646 C 0.30793 0.60508 0.89883 0.0
C1647 C 0.28255 0.61346 0.9013 0.0
C1648 C 0.27038 0.59818 0.89241 0.0
C1649 C 0.27683 0.58584 0.88725 0.0
C1650 C 0.29545 0.58922 0.89047 0.0
C1651 C 0.25106 0.59529 0.88839 0.0
C1652 C 0.2345 0.57699 0.89045 0.0
C1653 C 0.24883 0.61068 0.8831 0.0
C1654 C 0.26577 0.63009 0.87999 0.0
C1655 C 0.28062 0.63188 0.87118 0.0
C1656 C 0.29671 0.65018 0.86852 0.0
C1657 C 0.29805 0.66681 0.87453 0.0
C1658 C 0.28328 0.66518 0.88319 0.0
C1659 C 0.26716 0.64692 0.88589 0.0
H1660 H 0.31053 0.68095 0.87247 0.0
H1661 H 0.1543 0.50361 0.89879 0.0
H1662 H 0.57374 0.18183 0.02627 0.0
H1663 H 0.60226 0.20488 0.03964 0.0
H1664 H 0.63876 0.19118 0.01475 0.0
H1665 H 0.61027 0.16819 0.00126 0.0
H1666 H 0.64861 0.19628 0.04366 0.0
H1667 H 0.63688 0.22857 0.00607 0.0
H1668 H 0.61683 0.23742 0.99176 0.0
H1669 H 0.60633 0.26393 0.02677 0.0
H1670 H 0.62606 0.25491 0.04136 0.0
H1671 H 0.7399 0.2844 0.05307 0.0
H1672 H 0.71081 0.2552 0.04474 0.0
H1673 H 0.67455 0.27324 0.06569 0.0
H1674 H 0.70341 0.30263 0.07366 0.0
H1675 H 0.66428 0.2649 0.03936 0.0
H1676 H 0.67753 0.23425 0.07684 0.0
H1677 H 0.6973 0.22511 0.09123 0.0
H1678 H 0.70513 0.19575 0.05681 0.0
H1679 H 0.68563 0.20495 0.04216 0.0
C1680 C 0.58781 0.18353 0.02381 0.0
C1681 C 0.58985 0.17333 0.01271 0.0
C1682 C 0.60404 0.19665 0.03144 0.0
C1683 C 0.62258 0.19978 0.0281 0.0
C1684 C 0.62455 0.18889 0.01749 0.0
C1685 C 0.60831 0.17586 0.00978 0.0
C1686 C 0.64006 0.21572 0.03479 0.0
C1687 C 0.6522 0.21132 0.04264 0.0
C1688 C 0.64448 0.23526 0.0336 0.0
C1689 C 0.63276 0.24087 0.02483 0.0
C1690 C 0.63015 0.23613 0.01074 0.0
C1691 C 0.61887 0.2412 0.00258 0.0
C1692 C 0.61026 0.25119 0.00836 0.0
C1693 C 0.61297 0.25616 0.02232 0.0
C1694 C 0.62421 0.25108 0.03053 0.0
C1695 C 0.72572 0.28205 0.056 0.0
C1696 C 0.72399 0.29587 0.06401 0.0
C1697 C 0.70912 0.26528 0.05133 0.0
C1698 C 0.69051 0.26202 0.05464 0.0
C1699 C 0.68877 0.27545 0.06304 0.0
C1700 C 0.70532 0.29218 0.06769 0.0
C1701 C 0.67288 0.24557 0.04841 0.0
C1702 C 0.66071 0.24988 0.04051 0.0
C1703 C 0.66852 0.22601 0.04959 0.0
C1704 C 0.68028 0.22047 0.05836 0.0
C1705 C 0.68362 0.226 0.0723 0.0
C1706 C 0.69474 0.22077 0.08052 0.0
C1707 C 0.70251 0.2099 0.07493 0.0
C1708 C 0.69913 0.20419 0.06112 0.0
C1709 C 0.68802 0.2094 0.05286 0.0
H1710 H 0.71112 0.20586 0.0813 0.0
H1711 H 0.60153 0.25511 0.00202 0.0
H1712 H 0.46964 0.59539 0.1937 0.0
H1713 H 0.47293 0.62568 0.20263 0.0
H1714 H 0.41505 0.60838 0.18837 0.0
H1715 H 0.41156 0.57833 0.17938 0.0
H1716 H 0.44072 0.64531 0.18109 0.0
H1717 H 0.42412 0.60645 0.22217 0.0
H1718 H 0.42779 0.58608 0.23971 0.0
H1719 H 0.4848 0.63303 0.24976 0.0
H1720 H 0.48158 0.6536 0.23214 0.0
H1721 H 0.41393 0.70391 0.2188 0.0
H1722 H 0.41691 0.67643 0.2105 0.0
H1723 H 0.47788 0.70697 0.22105 0.0
H1724 H 0.47502 0.73481 0.22926 0.0
H1725 H 0.45499 0.66586 0.22999 0.0
H1726 H 0.47012 0.70553 0.1899 0.0
H1727 H 0.46555 0.72569 0.17269 0.0
H1728 H 0.41052 0.67687 0.161 0.0
H1729 H 0.41462 0.65647 0.1783 0.0
C1730 C 0.45755 0.59795 0.19253 0.0
C1731 C 0.44041 0.58423 0.18576 0.0
C1732 C 0.45945 0.61526 0.19767 0.0
C1733 C 0.44421 0.61924 0.1962 0.0
C1734 C 0.42702 0.6056 0.18958 0.0
C1735 C 0.42508 0.58828 0.18445 0.0
C1736 C 0.44624 0.6378 0.20124 0.0
C1737 C 0.44369 0.64971 0.1918 0.0
C1738 C 0.45072 0.64383 0.21514 0.0
C1739 C 0.4527 0.63148 0.22572 0.0
C1740 C 0.43751 0.61237 0.22803 0.0
C1741 C 0.4395 0.6008 0.23801 0.0
C1742 C 0.45654 0.60823 0.24581 0.0
C1743 C 0.47162 0.62727 0.24369 0.0
C1744 C 0.46972 0.6389 0.23371 0.0
C1745 C 0.42795 0.70473 0.21942 0.0
C1746 C 0.44424 0.7214 0.22471 0.0
C1747 C 0.42965 0.68909 0.21463 0.0
C1748 C 0.44762 0.68976 0.21515 0.0
C1749 C 0.46391 0.70626 0.22058 0.0
C1750 C 0.46228 0.72211 0.22519 0.0
C1751 C 0.4491 0.67307 0.20988 0.0
C1752 C 0.45229 0.66153 0.21925 0.0
C1753 C 0.44515 0.66732 0.19593 0.0
C1754 C 0.44261 0.67951 0.18549 0.0
C1755 C 0.45696 0.69913 0.18375 0.0
C1756 C 0.45447 0.7106 0.17396 0.0
C1757 C 0.43773 0.70258 0.16578 0.0
C1758 C 0.42347 0.68307 0.16736 0.0
C1759 C 0.42588 0.67154 0.17715 0.0
H1760 H 0.43584 0.71148 0.1582 0.0
H1761 H 0.45805 0.59925 0.25354 0.0
H1762 H 0.87315 0.45115 0.33231 0.0
H1763 H 0.84898 0.4565 0.344 0.0
H1764 H 0.8579 0.4326 0.38136 0.0
H1765 H 0.88152 0.42654 0.36951 0.0
H1766 H 0.8212 0.41661 0.37644 0.0
H1767 H 0.87291 0.48245 0.37761 0.0
H1768 H 0.89962 0.51311 0.36837 0.0
H1769 H 0.85953 0.5183 0.34143 0.0
H1770 H 0.83261 0.48751 0.35037 0.0
H1771 H 0.7556 0.43449 0.41376 0.0
H1772 H 0.78697 0.43863 0.40657 0.0
H1773 H 0.77857 0.45515 0.36598 0.0
H1774 H 0.74716 0.45094 0.37305 0.0
H1775 H 0.81691 0.47682 0.37476 0.0
H1776 H 0.76642 0.40916 0.37199 0.0
H1777 H 0.73972 0.37859 0.38139 0.0
H1778 H 0.77843 0.3774 0.41178 0.0
H1779 H 0.80531 0.40814 0.40268 0.0
C1780 C 0.87023 0.44743 0.3431 0.0
C1781 C 0.87949 0.43878 0.35005 0.0
C1782 C 0.85648 0.45056 0.3498 0.0
C1783 C 0.85181 0.44526 0.36366 0.0
C1784 C 0.86134 0.43694 0.37071 0.0
C1785 C 0.87494 0.43361 0.36395 0.0
C1786 C 0.83579 0.44676 0.37037 0.0
C1787 C 0.82054 0.42993 0.37633 0.0
C1788 C 0.83461 0.46399 0.36997 0.0
C1789 C 0.85076 0.48257 0.3646 0.0
C1790 C 0.86981 0.49005 0.36965 0.0
C1791 C 0.88498 0.50747 0.36447 0.0
C1792 C 0.88128 0.51763 0.3543 0.0
C1793 C 0.86238 0.51041 0.34931 0.0
C1794 C 0.84715 0.49299 0.35444 0.0
C1795 C 0.7605 0.43913 0.40333 0.0
C1796 C 0.74878 0.44217 0.39393 0.0
C1797 C 0.77845 0.44157 0.39926 0.0
C1798 C 0.78497 0.44695 0.38569 0.0
C1799 C 0.77383 0.45103 0.3765 0.0
C1800 C 0.75588 0.44863 0.38057 0.0
C1801 C 0.8025 0.4467 0.38072 0.0
C1802 C 0.81787 0.46366 0.37504 0.0
C1803 C 0.80389 0.42964 0.3814 0.0
C1804 C 0.78781 0.41103 0.38675 0.0
C1805 C 0.7692 0.40244 0.38074 0.0
C1806 C 0.75404 0.38508 0.386 0.0
C1807 C 0.75736 0.37609 0.3972 0.0
C1808 C 0.77587 0.3844 0.40313 0.0
C1809 C 0.79108 0.40178 0.39792 0.0
H1810 H 0.7456 0.36265 0.40126 0.0
H1811 H 0.89305 0.53111 0.35031 0.0
H1812 H 0.11985 0.5682 0.40837 0.0
H1813 H 0.13788 0.57034 0.42934 0.0
H1814 H 0.08501 0.54794 0.45297 0.0
H1815 H 0.0671 0.54656 0.43209 0.0
H1816 H 0.1126 0.57746 0.46564 0.0
H1817 H 0.10727 0.52007 0.44568 0.0
H1818 H 0.10968 0.49969 0.42749 0.0
H1819 H 0.17145 0.53809 0.42541 0.0
H1820 H 0.16939 0.55886 0.44346 0.0
H1821 H 0.15757 0.56886 0.52639 0.0
H1822 H 0.13637 0.55921 0.50614 0.0
H1823 H 0.18662 0.58798 0.47984 0.0
H1824 H 0.20791 0.59798 0.5 0.0
H1825 H 0.15841 0.55228 0.4694 0.0
H1826 H 0.16249 0.61067 0.48833 0.0
H1827 H 0.1596 0.63042 0.50679 0.0
H1828 H 0.09889 0.58853 0.51106 0.0
H1829 H 0.1015 0.56838 0.49275 0.0
C1830 C 0.11205 0.56345 0.41802 0.0
C1831 C 0.09199 0.55674 0.41853 0.0
C1832 C 0.12234 0.5646 0.42999 0.0
C1833 C 0.11274 0.5589 0.44272 0.0
C1834 C 0.0927 0.55225 0.44326 0.0
C1835 C 0.08245 0.55132 0.43131 0.0
C1836 C 0.12385 0.56094 0.45554 0.0
C1837 C 0.12231 0.57159 0.46653 0.0
C1838 C 0.13682 0.55362 0.45667 0.0
C1839 C 0.13815 0.54111 0.44586 0.0
C1840 C 0.12135 0.52425 0.44128 0.0
C1841 C 0.12266 0.51261 0.431 0.0
C1842 C 0.1407 0.51761 0.42528 0.0
C1843 C 0.15748 0.53424 0.42985 0.0
C1844 C 0.15626 0.54594 0.44012 0.0
C1845 C 0.16412 0.57314 0.5163 0.0
C1846 C 0.18445 0.58433 0.51483 0.0
C1847 C 0.15199 0.56754 0.50474 0.0
C1848 C 0.15994 0.57306 0.49152 0.0
C1849 C 0.18021 0.58354 0.48997 0.0
C1850 C 0.19235 0.58919 0.50151 0.0
C1851 C 0.14717 0.56885 0.47934 0.0
C1852 C 0.14847 0.55787 0.4685 0.0
C1853 C 0.13385 0.57572 0.47837 0.0
C1854 C 0.13224 0.58792 0.48928 0.0
C1855 C 0.14856 0.6056 0.49328 0.0
C1856 C 0.14697 0.61687 0.5037 0.0
C1857 C 0.12909 0.61071 0.51012 0.0
C1858 C 0.11275 0.59327 0.5061 0.0
C1859 C 0.11427 0.58193 0.49569 0.0
H1860 H 0.12788 0.61945 0.51819 0.0
H1861 H 0.14167 0.50859 0.41732 0.0
H1862 H 0.54642 0.07613 0.58378 0.0
H1863 H 0.56047 0.10525 0.6054 0.0
H1864 H 0.60096 0.07927 0.62557 0.0
H1865 H 0.58831 0.04962 0.60445 0.0
H1866 H 0.57909 0.08928 0.64399 0.0
H1867 H 0.62486 0.1291 0.60812 0.0
H1868 H 0.63324 0.1417 0.5844 0.0
H1869 H 0.5929 0.16274 0.5868 0.0
H1870 H 0.58428 0.15018 0.61053 0.0
H1871 H 0.6357 0.16584 0.68994 0.0
H1872 H 0.62466 0.14205 0.67124 0.0
H1873 H 0.5934 0.16806 0.65316 0.0
H1874 H 0.60454 0.19202 0.67182 0.0
H1875 H 0.61144 0.15989 0.63376 0.0
H1876 H 0.56958 0.12526 0.67095 0.0
H1877 H 0.56051 0.11265 0.69456 0.0
H1878 H 0.59065 0.0807 0.68989 0.0
H1879 H 0.60016 0.09336 0.66629 0.0
C1880 C 0.55596 0.07629 0.5918 0.0
C1881 C 0.56879 0.06205 0.59041 0.0
C1882 C 0.56554 0.09491 0.60485 0.0
C1883 C 0.58325 0.09626 0.61715 0.0
C1884 C 0.59105 0.07846 0.61761 0.0
C1885 C 0.58246 0.05932 0.60498 0.0
C1886 C 0.58992 0.11103 0.62812 0.0
C1887 C 0.58643 0.10474 0.64181 0.0
C1888 C 0.59878 0.13107 0.62518 0.0
C1889 C 0.60377 0.13851 0.61096 0.0
C1890 C 0.61774 0.13635 0.60354 0.0
C1891 C 0.62255 0.14351 0.59012 0.0
C1892 C 0.61355 0.15295 0.58408 0.0
C1893 C 0.5998 0.15536 0.59148 0.0
C1894 C 0.59497 0.14825 0.60491 0.0
C1895 C 0.62639 0.16643 0.68202 0.0
C1896 C 0.62091 0.18074 0.68239 0.0
C1897 C 0.62008 0.15282 0.67134 0.0
C1898 C 0.60795 0.15308 0.6609 0.0
C1899 C 0.60274 0.16757 0.66111 0.0
C1900 C 0.60915 0.18128 0.67175 0.0
C1901 C 0.60075 0.13823 0.64979 0.0
C1902 C 0.60408 0.14445 0.63603 0.0
C1903 C 0.59139 0.11805 0.65269 0.0
C1904 C 0.58576 0.11043 0.6669 0.0
C1905 C 0.57443 0.11569 0.67499 0.0
C1906 C 0.56918 0.1085 0.68837 0.0
C1907 C 0.57504 0.09593 0.69374 0.0
C1908 C 0.58614 0.09047 0.68572 0.0
C1909 C 0.59146 0.09763 0.67234 0.0
H1910 H 0.57095 0.09037 0.70409 0.0
H1911 H 0.61727 0.15846 0.57368 0.0
H1912 H 0.45518 0.53638 0.74554 0.0
H1913 H 0.45343 0.55878 0.76839 0.0
H1914 H 0.52177 0.57895 0.78231 0.0
H1915 H 0.52526 0.55673 0.75989 0.0
H1916 H 0.49784 0.57083 0.80305 0.0
H1917 H 0.5033 0.61391 0.76728 0.0
H1918 H 0.49702 0.6239 0.7447 0.0
H1919 H 0.43667 0.59948 0.75498 0.0
H1920 H 0.44258 0.58922 0.77759 0.0
H1921 H 0.4867 0.63044 0.85409 0.0
H1922 H 0.49833 0.62074 0.83391 0.0
H1923 H 0.43949 0.58756 0.81871 0.0
H1924 H 0.42772 0.59682 0.83888 0.0
H1925 H 0.46518 0.60996 0.79858 0.0
H1926 H 0.4608 0.56529 0.83436 0.0
H1927 H 0.46862 0.55686 0.85699 0.0
H1928 H 0.52928 0.58644 0.84659 0.0
H1929 H 0.52183 0.59526 0.82395 0.0
C1930 C 0.46721 0.54362 0.75266 0.0
C1931 C 0.49171 0.54715 0.74882 0.0
C1932 C 0.46671 0.55857 0.76639 0.0
C1933 C 0.48788 0.5726 0.7771 0.0
C1934 C 0.5098 0.57118 0.77522 0.0
C1935 C 0.51179 0.55664 0.76176 0.0
C1936 C 0.48602 0.5832 0.78894 0.0
C1937 C 0.49115 0.5798 0.80203 0.0
C1938 C 0.47708 0.59467 0.78764 0.0
C1939 C 0.47334 0.60059 0.77404 0.0
C1940 C 0.48867 0.61057 0.76468 0.0
C1941 C 0.48519 0.61632 0.75189 0.0
C1942 C 0.46645 0.61227 0.74839 0.0
C1943 C 0.45117 0.60255 0.75769 0.0
C1944 C 0.45458 0.5968 0.7705 0.0
C1945 C 0.47622 0.62096 0.84651 0.0
C1946 C 0.45627 0.61445 0.8481 0.0
C1947 C 0.48291 0.6155 0.83496 0.0
C1948 C 0.46975 0.60341 0.82484 0.0
C1949 C 0.44989 0.59703 0.82635 0.0
C1950 C 0.44321 0.6024 0.83788 0.0
C1951 C 0.47642 0.59707 0.81269 0.0
C1952 C 0.47221 0.6013 0.79954 0.0
C1953 C 0.48633 0.58648 0.81396 0.0
C1954 C 0.49079 0.58115 0.82754 0.0
C1955 C 0.47582 0.57014 0.83695 0.0
C1956 C 0.48018 0.56526 0.84977 0.0
C1957 C 0.49944 0.57117 0.85324 0.0
C1958 C 0.51437 0.58191 0.84389 0.0
C1959 C 0.5101 0.58685 0.83107 0.0
H1960 H 0.50278 0.56737 0.86317 0.0
H1961 H 0.46378 0.6167 0.73848 0.0
H1962 H 0.95245 0.53544 0.91886 0.0
H1963 H 0.92636 0.51425 0.93456 0.0
H1964 H 0.96658 0.50313 0.95722 0.0
H1965 H 0.99251 0.52366 0.94118 0.0
H1966 H 0.93281 0.47094 0.95549 0.0
H1967 H 0.95416 0.53759 0.96761 0.0
H1968 H 0.96124 0.57112 0.96333 0.0
H1969 H 0.90147 0.54977 0.95244 0.0
H1970 H 0.8941 0.51607 0.95648 0.0
H1971 H 0.88873 0.44617 0.02136 0.0
H1972 H 0.91014 0.46201 0.00174 0.0
H1973 H 0.8635 0.46426 0.98058 0.0
H1974 H 0.84204 0.44863 0.00028 0.0
H1975 H 0.89788 0.4992 0.98001 0.0
H1976 H 0.87637 0.43236 0.97023 0.0
H1977 H 0.86994 0.39924 0.97529 0.0
H1978 H 0.9308 0.42142 0.9827 0.0
H1979 H 0.93756 0.45474 0.97789 0.0
C1980 C 0.95561 0.52812 0.927 0.0
C1981 C 0.97446 0.53093 0.92866 0.0
C1982 C 0.94074 0.51617 0.93605 0.0
C1983 C 0.94455 0.50728 0.94719 0.0
C1984 C 0.96325 0.50976 0.94869 0.0
C1985 C 0.97806 0.52149 0.93954 0.0
C1986 C 0.92939 0.49609 0.95765 0.0
C1987 C 0.92529 0.47719 0.96093 0.0
C1988 C 0.91924 0.50405 0.96455 0.0
C1989 C 0.92363 0.52431 0.9622 0.0
C1990 C 0.94256 0.54004 0.96421 0.0
C1991 C 0.94662 0.55908 0.96184 0.0
C1992 C 0.93183 0.56257 0.95757 0.0
C1993 C 0.91293 0.54704 0.95571 0.0
C1994 C 0.9088 0.52797 0.95805 0.0
C1995 C 0.88305 0.45007 0.01254 0.0
C1996 C 0.86372 0.44618 0.01236 0.0
C1997 C 0.89524 0.45897 0.0013 0.0
C1998 C 0.88834 0.46414 0.98967 0.0
C1999 C 0.86906 0.46029 0.98944 0.0
C2000 C 0.85681 0.45127 0.00066 0.0
C2001 C 0.90153 0.4742 0.97796 0.0
C2002 C 0.90526 0.4929 0.97447 0.0
C2003 C 0.91145 0.46612 0.97097 0.0
C2004 C 0.90745 0.44608 0.9738 0.0
C2005 C 0.88837 0.4302 0.97305 0.0
C2006 C 0.88466 0.41139 0.97585 0.0
C2007 C 0.89994 0.40823 0.97934 0.0
C2008 C 0.91897 0.42389 0.98 0.0
C2009 C 0.92275 0.44274 0.97722 0.0
H2010 H 0.89705 0.39365 0.98151 0.0
H2011 H 0.935 0.57732 0.95574 0.0
H2012 H 0.48893 0.98745 0.09892 0.0
H2013 H 0.47176 0.96295 0.11674 0.0
H2014 H 0.49823 0.93024 0.10222 0.0
H2015 H 0.51535 0.95465 0.08434 0.0
H2016 H 0.45928 0.90657 0.10868 0.0
H2017 H 0.51698 0.9593 0.1293 0.0
H2018 H 0.53933 0.99358 0.1355 0.0
H2019 H 0.49384 0.9951 0.15834 0.0
H2020 H 0.47113 0.96089 0.15209 0.0
H2021 H 0.45231 0.85006 0.16703 0.0
H2022 H 0.46239 0.87214 0.14741 0.0
H2023 H 0.43749 0.90381 0.16642 0.0
H2024 H 0.4273 0.8817 0.18611 0.0
H2025 H 0.47317 0.92803 0.15741 0.0
H2026 H 0.41595 0.87466 0.13836 0.0
H2027 H 0.39335 0.84047 0.13212 0.0
H2028 H 0.43704 0.83995 0.10642 0.0
H2029 H 0.46002 0.87408 0.11265 0.0
C2030 C 0.49085 0.97488 0.09942 0.0
C2031 C 0.50334 0.97285 0.09017 0.0
C2032 C 0.48111 0.96096 0.10962 0.0
C2033 C 0.48383 0.94485 0.11084 0.0
C2034 C 0.49588 0.94253 0.10141 0.0
C2035 C 0.50567 0.95647 0.09123 0.0
C2036 C 0.47489 0.93093 0.12235 0.0
C2037 C 0.46242 0.91119 0.11934 0.0
C2038 C 0.47862 0.93709 0.13625 0.0
C2039 C 0.4923 0.95761 0.1401 0.0
C2040 C 0.5117 0.96699 0.13555 0.0
C2041 C 0.52444 0.9864 0.13909 0.0
C2042 C 0.518 0.99653 0.14728 0.0
C2043 C 0.49881 0.98725 0.15198 0.0
C2044 C 0.486 0.96785 0.14845 0.0
C2045 C 0.44867 0.86151 0.16694 0.0
C2046 C 0.43898 0.8641 0.17813 0.0
C2047 C 0.45446 0.87414 0.15571 0.0
C2048 C 0.45053 0.88952 0.15538 0.0
C2049 C 0.44068 0.89204 0.16647 0.0
C2050 C 0.43493 0.87944 0.17773 0.0
C2051 C 0.45761 0.90355 0.14378 0.0
C2052 C 0.46982 0.92335 0.14677 0.0
C2053 C 0.45356 0.89742 0.12987 0.0
C2054 C 0.43977 0.8769 0.12607 0.0
C2055 C 0.4208 0.86722 0.13146 0.0
C2056 C 0.40791 0.84785 0.12791 0.0
C2057 C 0.41377 0.83803 0.11891 0.0
C2058 C 0.43252 0.84757 0.11341 0.0
C2059 C 0.44549 0.86694 0.11693 0.0
H2060 H 0.40376 0.82304 0.11617 0.0
H2061 H 0.52788 0.01155 0.15001 0.0
H2062 H 0.57211 0.51578 0.2625 0.0
H2063 H 0.57377 0.50202 0.28464 0.0
H2064 H 0.56655 0.4507 0.26392 0.0
H2065 H 0.56424 0.46414 0.24182 0.0
H2066 H 0.54667 0.44088 0.28742 0.0
H2067 H 0.61164 0.48825 0.27326 0.0
H2068 H 0.63757 0.52069 0.26594 0.0
H2069 H 0.63176 0.54548 0.3037 0.0
H2070 H 0.60559 0.51321 0.31116 0.0
H2071 H 0.59198 0.40691 0.33419 0.0
H2072 H 0.58208 0.41935 0.31463 0.0
H2073 H 0.58796 0.46698 0.33961 0.0
H2074 H 0.59829 0.45486 0.35912 0.0
H2075 H 0.60642 0.4794 0.31529 0.0
H2076 H 0.54333 0.43074 0.33032 0.0
H2077 H 0.51785 0.39798 0.33741 0.0
H2078 H 0.52061 0.37513 0.29793 0.0
H2079 H 0.54632 0.40771 0.29066 0.0
C2080 C 0.57044 0.50138 0.26271 0.0
C2081 C 0.56773 0.49087 0.25045 0.0
C2082 C 0.57155 0.4936 0.27535 0.0
C2083 C 0.57049 0.47541 0.27593 0.0
C2084 C 0.56732 0.46471 0.26374 0.0
C2085 C 0.56603 0.4724 0.25113 0.0
C2086 C 0.57375 0.46793 0.28907 0.0
C2087 C 0.55979 0.44923 0.29347 0.0
C2088 C 0.59069 0.479 0.29712 0.0
C2089 C 0.60652 0.49837 0.2927 0.0
C2090 C 0.6158 0.50065 0.27996 0.0
C2091 C 0.63055 0.519 0.27579 0.0
C2092 C 0.63628 0.53514 0.28433 0.0
C2093 C 0.62729 0.53296 0.29708 0.0
C2094 C 0.61251 0.51465 0.30129 0.0
C2095 C 0.5911 0.41999 0.33553 0.0
C2096 C 0.59595 0.42992 0.3482 0.0
C2097 C 0.58527 0.42699 0.32438 0.0
C2098 C 0.58413 0.44401 0.3257 0.0
C2099 C 0.58866 0.45377 0.33839 0.0
C2100 C 0.59443 0.44675 0.34956 0.0
C2101 C 0.57944 0.45227 0.31358 0.0
C2102 C 0.59317 0.47111 0.30934 0.0
C2103 C 0.56237 0.44128 0.30566 0.0
C2104 C 0.54688 0.42165 0.30999 0.0
C2105 C 0.53862 0.4187 0.32318 0.0
C2106 C 0.52411 0.40017 0.32723 0.0
C2107 C 0.51764 0.38448 0.31813 0.0
C2108 C 0.52565 0.3873 0.30496 0.0
C2109 C 0.54018 0.4058 0.30087 0.0
H2110 H 0.5064 0.37014 0.32128 0.0
H2111 H 0.6477 0.54934 0.28109 0.0
H2112 H 0.46955 0.96064 0.3957 0.0
H2113 H 0.46845 0.94749 0.37269 0.0
H2114 H 0.49785 0.91803 0.38809 0.0
H2115 H 0.49919 0.93135 0.41109 0.0
H2116 H 0.51092 0.93385 0.3622 0.0
H2117 H 0.4498 0.8938 0.38526 0.0
H2118 H 0.42029 0.88777 0.39775 0.0
H2119 H 0.40298 0.90988 0.36353 0.0
H2120 H 0.43257 0.91633 0.35091 0.0
H2121 H 0.48225 0.85957 0.31143 0.0
H2122 H 0.48953 0.8792 0.3323 0.0
H2123 H 0.45404 0.9025 0.31757 0.0
H2124 H 0.44572 0.88209 0.29714 0.0
H2125 H 0.44502 0.89139 0.34277 0.0
H2126 H 0.50513 0.92999 0.319 0.0
H2127 H 0.53481 0.93656 0.3065 0.0
H2128 H 0.55424 0.91789 0.34151 0.0
H2129 H 0.52455 0.91095 0.35417 0.0
C2130 C 0.47609 0.95166 0.3941 0.0
C2131 C 0.4846 0.94713 0.40514 0.0
C2132 C 0.47539 0.9441 0.38099 0.0
C2133 C 0.48294 0.93167 0.37873 0.0
C2134 C 0.49202 0.92765 0.38962 0.0
C2135 C 0.49273 0.93522 0.40273 0.0
C2136 C 0.48016 0.92178 0.36529 0.0
C2137 C 0.49653 0.92443 0.35796 0.0
C2138 C 0.46139 0.90981 0.35968 0.0
C2139 C 0.44349 0.90573 0.3672 0.0
C2140 C 0.43977 0.8975 0.38044 0.0
C2141 C 0.42302 0.894 0.38754 0.0
C2142 C 0.40979 0.89848 0.38145 0.0
C2143 C 0.41326 0.90644 0.36824 0.0
C2144 C 0.43001 0.91002 0.3611 0.0
C2145 C 0.47594 0.86883 0.31263 0.0
C2146 C 0.46333 0.86916 0.30257 0.0
C2147 C 0.48035 0.88027 0.3245 0.0
C2148 C 0.4725 0.8925 0.32646 0.0
C2149 C 0.46032 0.89322 0.31628 0.0
C2150 C 0.45574 0.88166 0.3045 0.0
C2151 C 0.47581 0.9035 0.33951 0.0
C2152 C 0.45948 0.90095 0.34686 0.0
C2153 C 0.49463 0.9156 0.34507 0.0
C2154 C 0.51252 0.91978 0.33749 0.0
C2155 C 0.51565 0.92714 0.324 0.0
C2156 C 0.5325 0.93096 0.31689 0.0
C2157 C 0.54638 0.9276 0.32319 0.0
C2158 C 0.54347 0.92047 0.33663 0.0
C2159 C 0.52664 0.91661 0.34379 0.0
H2160 H 0.55941 0.93057 0.31767 0.0
H2161 H 0.39683 0.89576 0.38697 0.0
H2162 H 0.59321 0.49143 0.57692 0.0
H2163 H 0.60495 0.48744 0.5546 0.0
H2164 H 0.55359 0.48193 0.53501 0.0
H2165 H 0.54144 0.48513 0.55742 0.0
H2166 H 0.56004 0.45506 0.52592 0.0
H2167 H 0.59968 0.52373 0.53148 0.0
H2168 H 0.62214 0.55433 0.5434 0.0
H2169 H 0.66555 0.5372 0.54512 0.0
H2170 H 0.64324 0.50636 0.53338 0.0
H2171 H 0.59571 0.45393 0.45941 0.0
H2172 H 0.58547 0.46575 0.47913 0.0
H2173 H 0.63139 0.46698 0.50369 0.0
H2174 H 0.64215 0.45581 0.48388 0.0
H2175 H 0.62703 0.49843 0.50884 0.0
H2176 H 0.58563 0.42849 0.50516 0.0
H2177 H 0.56301 0.3981 0.49304 0.0
H2178 H 0.52262 0.41861 0.48749 0.0
H2179 H 0.54514 0.44924 0.49942 0.0
C2180 C 0.58459 0.48967 0.56781 0.0
C2181 C 0.56667 0.48911 0.56887 0.0
C2182 C 0.59133 0.48747 0.55505 0.0
C2183 C 0.58036 0.48482 0.54306 0.0
C2184 C 0.5624 0.48416 0.54409 0.0
C2185 C 0.55554 0.48614 0.55689 0.0
C2186 C 0.58712 0.48157 0.52959 0.0
C2187 C 0.57456 0.46479 0.52206 0.0
C2188 C 0.60619 0.49404 0.52465 0.0
C2189 C 0.61972 0.51266 0.53163 0.0
C2190 C 0.61396 0.52642 0.53447 0.0
C2191 C 0.62668 0.54383 0.54119 0.0
C2192 C 0.64525 0.54769 0.54504 0.0
C2193 C 0.65116 0.53418 0.54214 0.0
C2194 C 0.63849 0.51675 0.53544 0.0
C2195 C 0.60387 0.45708 0.46892 0.0
C2196 C 0.61965 0.45377 0.47012 0.0
C2197 C 0.5979 0.46369 0.48021 0.0
C2198 C 0.6075 0.46696 0.49292 0.0
C2199 C 0.62374 0.46446 0.49399 0.0
C2200 C 0.62974 0.45789 0.4827 0.0
C2201 C 0.6 0.4719 0.50533 0.0
C2202 C 0.61243 0.48892 0.51265 0.0
C2203 C 0.58078 0.45973 0.51006 0.0
C2204 C 0.56714 0.44122 0.50305 0.0
C2205 C 0.57198 0.42656 0.50128 0.0
C2206 C 0.55917 0.40929 0.49445 0.0
C2207 C 0.54141 0.40644 0.48947 0.0
C2208 C 0.53639 0.42084 0.49134 0.0
C2209 C 0.54916 0.43815 0.49814 0.0
H2210 H 0.53152 0.39307 0.48418 0.0
H2211 H 0.65506 0.56117 0.55025 0.0
H2212 H 0.09408 0.53169 0.73132 0.0
H2213 H 0.11875 0.54905 0.7137 0.0
H2214 H 0.08928 0.57997 0.70164 0.0
H2215 H 0.06445 0.56249 0.71923 0.0
H2216 H 0.09835 0.56561 0.67967 0.0
H2217 H 0.13194 0.60341 0.71894 0.0
H2218 H 0.14495 0.60976 0.7426 0.0
H2219 H 0.18055 0.58475 0.73286 0.0
H2220 H 0.16753 0.57799 0.70918 0.0
H2221 H 0.1751 0.62793 0.63431 0.0
H2222 H 0.15226 0.61705 0.65358 0.0
H2223 H 0.17453 0.58048 0.66777 0.0
H2224 H 0.19702 0.59083 0.6484 0.0
H2225 H 0.16935 0.60088 0.689 0.0
H2226 H 0.13325 0.56083 0.65021 0.0
H2227 H 0.1202 0.55492 0.62655 0.0
H2228 H 0.08931 0.58515 0.63564 0.0
H2229 H 0.10241 0.59149 0.65931 0.0
C2230 C 0.09303 0.54239 0.72504 0.0
C2231 C 0.07752 0.54597 0.7268 0.0
C2232 C 0.10714 0.55233 0.715 0.0
C2233 C 0.106 0.566 0.70648 0.0
C2234 C 0.0905 0.56957 0.70816 0.0
C2235 C 0.0764 0.55966 0.71824 0.0
C2236 C 0.1205 0.57582 0.69538 0.0
C2237 C 0.11387 0.57364 0.68174 0.0
C2238 C 0.14075 0.58603 0.69806 0.0
C2239 C 0.14862 0.59003 0.71231 0.0
C2240 C 0.14241 0.59911 0.72187 0.0
C2241 C 0.14982 0.60281 0.73528 0.0
C2242 C 0.16354 0.59762 0.73924 0.0
C2243 C 0.16991 0.58875 0.72978 0.0
C2244 C 0.16253 0.58499 0.71636 0.0
C2245 C 0.17508 0.61748 0.64148 0.0
C2246 C 0.18789 0.61022 0.63975 0.0
C2247 C 0.16208 0.61137 0.65252 0.0
C2248 C 0.16165 0.59788 0.66205 0.0
C2249 C 0.17471 0.59097 0.66057 0.0
C2250 C 0.18762 0.59698 0.6495 0.0
C2251 C 0.14717 0.59042 0.67333 0.0
C2252 C 0.15382 0.59303 0.68699 0.0
C2253 C 0.12693 0.58068 0.67068 0.0
C2254 C 0.11899 0.57683 0.65647 0.0
C2255 C 0.12381 0.56637 0.64713 0.0
C2256 C 0.11638 0.56291 0.63372 0.0
C2257 C 0.10398 0.56971 0.62958 0.0
C2258 C 0.09895 0.57993 0.63885 0.0
C2259 C 0.10636 0.58345 0.65226 0.0
H2260 H 0.09824 0.56702 0.6192 0.0
H2261 H 0.16926 0.60051 0.74963 0.0
H2262 H 0.51761 0.1009 0.90265 0.0
H2263 H 0.5399 0.12627 0.88699 0.0
H2264 H 0.53566 0.0824 0.85862 0.0
H2265 H 0.51427 0.05699 0.87466 0.0
H2266 H 0.57086 0.11062 0.85848 0.0
H2267 H 0.50846 0.10674 0.85535 0.0
H2268 H 0.47962 0.10727 0.8642 0.0
H2269 H 0.51592 0.16583 0.87857 0.0
H2270 H 0.54501 0.16556 0.86996 0.0
H2271 H 0.58938 0.16069 0.79465 0.0
H2272 H 0.57376 0.13902 0.81424 0.0
H2273 H 0.59529 0.18864 0.84134 0.0
H2274 H 0.61118 0.21044 0.82175 0.0
H2275 H 0.5541 0.16027 0.84368 0.0
H2276 H 0.61636 0.164 0.84384 0.0
H2277 H 0.64384 0.16239 0.83346 0.0
H2278 H 0.60581 0.10246 0.82281 0.0
H2279 H 0.57803 0.10379 0.83294 0.0
C2280 C 0.52171 0.09664 0.89321 0.0
C2281 C 0.51429 0.07688 0.88993 0.0
C2282 C 0.53432 0.11118 0.88418 0.0
C2283 C 0.53921 0.10629 0.87148 0.0
C2284 C 0.53215 0.0866 0.86835 0.0
C2285 C 0.51989 0.07208 0.87749 0.0
C2286 C 0.55105 0.12151 0.86119 0.0
C2287 C 0.56707 0.12136 0.85519 0.0
C2288 C 0.5464 0.13583 0.85704 0.0
C2289 C 0.52892 0.13605 0.86215 0.0
C2290 C 0.5103 0.11968 0.86048 0.0
C2291 C 0.49391 0.11994 0.86544 0.0
C2292 C 0.49594 0.13655 0.87198 0.0
C2293 C 0.51437 0.15296 0.87353 0.0
C2294 C 0.53081 0.15277 0.86861 0.0
C2295 C 0.59077 0.16696 0.80479 0.0
C2296 C 0.60144 0.1872 0.80672 0.0
C2297 C 0.58195 0.15459 0.81596 0.0
C2298 C 0.58349 0.16227 0.82921 0.0
C2299 C 0.59403 0.18248 0.83118 0.0
C2300 C 0.60312 0.19487 0.82003 0.0
C2301 C 0.57359 0.14908 0.84091 0.0
C2302 C 0.55795 0.14963 0.84713 0.0
C2303 C 0.57836 0.13493 0.84508 0.0
C2304 C 0.59507 0.13405 0.83905 0.0
C2305 C 0.61382 0.15052 0.83918 0.0
C2306 C 0.62946 0.14965 0.83336 0.0
C2307 C 0.62657 0.13235 0.82745 0.0
C2308 C 0.60803 0.11586 0.82738 0.0
C2309 C 0.59233 0.11666 0.83317 0.0
H2310 H 0.6387 0.1317 0.82295 0.0
H2311 H 0.48323 0.13672 0.87581 0.0
H2312 H 0.4941 0.52553 0.05027 0.0
H2313 H 0.4868 0.54431 0.03385 0.0
H2314 H 0.42939 0.52083 0.05119 0.0
H2315 H 0.43652 0.50163 0.06745 0.0
H2316 H 0.42733 0.51836 0.02422 0.0
H2317 H 0.46487 0.56887 0.05631 0.0
H2318 H 0.49284 0.58949 0.07129 0.0
H2319 H 0.53035 0.60995 0.03605 0.0
H2320 H 0.50265 0.58922 0.02087 0.0
H2321 H 0.40557 0.58026 0.98438 0.0
H2322 H 0.41235 0.56544 0.00412 0.0
H2323 H 0.46867 0.58164 0.98726 0.0
H2324 H 0.46214 0.59681 0.96761 0.0
H2325 H 0.47005 0.58886 0.01529 0.0
H2326 H 0.43229 0.53616 0.98366 0.0
H2327 H 0.40394 0.51569 0.96893 0.0
H2328 H 0.36631 0.49974 0.00406 0.0
H2329 H 0.39443 0.52035 0.01898 0.0
C2330 C 0.48006 0.52466 0.05073 0.0
C2331 C 0.46603 0.51244 0.06031 0.0
C2332 C 0.47591 0.53543 0.04137 0.0
C2333 C 0.45765 0.53424 0.04142 0.0
C2334 C 0.44362 0.5221 0.05103 0.0
C2335 C 0.44774 0.51124 0.06036 0.0
C2336 C 0.45284 0.54469 0.03086 0.0
C2337 C 0.43648 0.53385 0.02246 0.0
C2338 C 0.46498 0.56484 0.02837 0.0
C2339 C 0.48169 0.57735 0.03746 0.0
C2340 C 0.47911 0.57764 0.05176 0.0
C2341 C 0.49491 0.58937 0.06029 0.0
C2342 C 0.51337 0.60099 0.05463 0.0
C2343 C 0.51605 0.60093 0.04042 0.0
C2344 C 0.5003 0.58921 0.03185 0.0
C2345 C 0.41947 0.58082 0.98494 0.0
C2346 C 0.43329 0.58962 0.97441 0.0
C2347 C 0.42327 0.57226 0.99618 0.0
C2348 C 0.44095 0.57232 0.99709 0.0
C2349 C 0.45493 0.58142 0.98674 0.0
C2350 C 0.4511 0.58991 0.97546 0.0
C2351 C 0.4447 0.56246 0.00865 0.0
C2352 C 0.46084 0.57341 0.01719 0.0
C2353 C 0.43232 0.54244 0.01134 0.0
C2354 C 0.41543 0.52996 0.0024 0.0
C2355 C 0.41795 0.52841 0.98823 0.0
C2356 C 0.40193 0.51676 0.97985 0.0
C2357 C 0.38333 0.50646 0.98555 0.0
C2358 C 0.38072 0.50775 0.99965 0.0
C2359 C 0.39669 0.5194 0.00808 0.0
H2360 H 0.37094 0.49745 0.97905 0.0
H2361 H 0.52559 0.61006 0.06125 0.0
H2362 H 0.93028 0.50779 0.2465 0.0
H2363 H 0.90995 0.49013 0.22123 0.0
H2364 H 0.92223 0.43445 0.22694 0.0
H2365 H 0.943 0.45069 0.25254 0.0
H2366 H 0.92853 0.44957 0.20004 0.0
H2367 H 0.8759 0.43357 0.2298 0.0
H2368 H 0.8564 0.43823 0.2475 0.0
H2369 H 0.85077 0.47867 0.22131 0.0
H2370 H 0.87051 0.47449 0.20351 0.0
H2371 H 0.85929 0.39994 0.14439 0.0
H2372 H 0.87625 0.40845 0.1666 0.0
H2373 H 0.88275 0.46562 0.16422 0.0
H2374 H 0.86656 0.45761 0.14187 0.0
H2375 H 0.86533 0.44496 0.18887 0.0
H2376 H 0.92093 0.46187 0.15975 0.0
H2377 H 0.93952 0.45536 0.14234 0.0
H2378 H 0.93778 0.41032 0.16776 0.0
H2379 H 0.91891 0.41638 0.18526 0.0
C2380 C 0.92791 0.49371 0.24328 0.0
C2381 C 0.94176 0.48284 0.25089 0.0
C2382 C 0.91608 0.48304 0.22724 0.0
C2383 C 0.91479 0.46099 0.22096 0.0
C2384 C 0.924 0.44803 0.2308 0.0
C2385 C 0.93613 0.45751 0.24703 0.0
C2386 C 0.90492 0.4529 0.20774 0.0
C2387 C 0.91455 0.44824 0.19765 0.0
C2388 C 0.88673 0.45123 0.20467 0.0
C2389 C 0.87487 0.45385 0.21536 0.0
C2390 C 0.87066 0.44359 0.22785 0.0
C2391 C 0.85953 0.44612 0.2379 0.0
C2392 C 0.85239 0.45877 0.23555 0.0
C2393 C 0.85633 0.46889 0.22312 0.0
C2394 C 0.86747 0.46642 0.21304 0.0
C2395 C 0.86469 0.41447 0.14844 0.0
C2396 C 0.86135 0.42802 0.14139 0.0
C2397 C 0.87429 0.41925 0.16116 0.0
C2398 C 0.88063 0.43762 0.16704 0.0
C2399 C 0.87781 0.45132 0.15988 0.0
C2400 C 0.86843 0.44665 0.14714 0.0
C2401 C 0.88926 0.44237 0.181 0.0
C2402 C 0.87927 0.44621 0.19128 0.0
C2403 C 0.90698 0.44308 0.18424 0.0
C2404 C 0.91829 0.43941 0.17373 0.0
C2405 C 0.92433 0.45044 0.16156 0.0
C2406 C 0.93496 0.44686 0.15169 0.0
C2407 C 0.93977 0.43239 0.15392 0.0
C2408 C 0.934 0.42149 0.16604 0.0
C2409 C 0.92335 0.425 0.17594 0.0
H2410 H 0.94802 0.42965 0.14627 0.0
H2411 H 0.84378 0.46071 0.24334 0.0
loop_
_geom_bond_atom_site_label_1
_geom_bond_atom_site_label_2
_geom_bond_distance
_geom_bond_site_symmetry_2
_ccdc_geom_bond_type
C0 C1 1.560 . S
C0 H61 0.959 . S
C0 H62 0.959 . S
C0 H63 0.960 . S
C1 C0 1.560 . S
C1 O56 1.426 . S
C1 H60 0.980 . S
C2 C3 1.407 . S
C2 C7 1.418 . S
C2 O56 1.334 . S
C3 C2 1.407 . S
C3 C4 1.360 . S
C3 H64 0.929 . S
C4 C3 1.360 . S
C4 C5 1.401 . S
C4 C8 1.527 . S
C5 C4 1.401 . S
C5 C6 1.405 . S
C5 C38 1.587 . S
C6 C5 1.405 . S
C6 C7 1.332 . S
C6 C9 1.496 . S
C7 C2 1.418 . S
C7 C6 1.332 . S
C7 H65 0.929 . S
C8 C4 1.527 . S
C8 H66 0.959 . S
C8 H67 0.961 . S
C8 H68 0.961 . S
C9 C6 1.496 . S
C9 H69 0.960 . S
C9 H70 0.960 . S
C9 H71 0.961 . S
C10 C11 1.517 . S
C10 H73 0.961 . S
C10 H74 0.960 . S
C10 H75 0.959 . S
C11 C10 1.517 . S
C11 O59 1.468 . S
C11 H72 0.980 . S
C12 C13 1.349 . S
C12 C17 1.367 . S
C12 O59 1.408 . S
C13 C12 1.349 . S
C13 C14 1.407 1_655 S
C13 H76 0.930 . S
C14 C13 1.407 1_455 S
C14 C15 1.449 . S
C14 C18 1.535 . S
C15 C14 1.449 . S
C15 C16 1.384 . S
C15 C40 1.553 . S
C16 C15 1.384 . S
C16 C17 1.364 1_455 S
C16 C19 1.450 . S
C17 C12 1.367 . S
C17 C16 1.364 1_655 S
C17 H77 0.931 . S
C18 C14 1.535 . S
C18 H78 0.959 . S
C18 H79 0.961 . S
C18 H80 0.959 . S
C19 C16 1.450 . S
C19 H81 0.960 . S
C19 H82 0.960 . S
C19 H83 0.960 . S
C20 C21 1.309 . S
C20 C25 1.304 . S
C20 O58 1.435 . S
C21 C20 1.309 . S
C21 C22 1.476 . S
C21 H85 0.930 . S
C22 C21 1.476 . S
C22 C23 1.400 . S
C22 C26 1.567 . S
C23 C22 1.400 . S
C23 C24 1.373 . S
C23 C45 1.432 . S
C24 C23 1.373 . S
C24 C25 1.339 . S
C24 C27 1.530 . S
C25 C20 1.304 . S
C25 C24 1.339 . S
C25 H86 0.930 . S
C26 C22 1.567 . S
C26 H87 0.961 . S
C26 H88 0.960 . S
C26 H89 0.958 . S
C27 C24 1.530 . S
C27 H90 0.961 . S
C27 H91 0.960 . S
C27 H92 0.960 . S
C28 C29 1.530 . S
C28 H94 0.961 . S
C28 H95 0.961 . S
C28 H96 0.959 . S
C29 C28 1.530 . S
C29 O57 1.412 . S
C29 H93 0.980 . S
C30 C31 1.288 . S
C30 C35 1.377 . S
C30 O57 1.393 . S
C31 C30 1.288 . S
C31 C32 1.369 . S
C31 H97 0.932 . S
C32 C31 1.369 . S
C32 C33 1.398 . S
C32 C36 1.527 . S
C33 C32 1.398 . S
C33 C34 1.380 . S
C33 C47 1.497 . S
C34 C33 1.380 . S
C34 C35 1.383 . S
C34 C37 1.603 . S
C35 C30 1.377 . S
C35 C34 1.383 . S
C35 H98 0.929 . S
C36 C32 1.527 . S
C36 H99 0.961 . S
C36 H100 0.959 . S
C36 H101 0.959 . S
C37 C34 1.603 . S
C37 H102 0.960 . S
C37 H103 0.962 . S
C37 H104 0.961 . S
C38 C5 1.587 . S
C38 C39 1.360 . S
C38 C51 1.412 . S
C39 C38 1.360 . S
C39 C40 1.365 . S
C39 H105 0.929 . S
C40 C15 1.553 . S
C40 C39 1.365 . S
C40 C41 1.404 . S
C41 C40 1.404 . S
C41 C42 1.395 1_455 S
C41 C52 1.451 . S
C42 C41 1.395 1_655 S
C42 C43 1.322 . S
C42 H106 0.930 . S
C43 C42 1.322 . S
C43 C44 1.459 1_655 S
C43 H107 0.929 . S
C44 C43 1.459 1_455 S
C44 C45 1.445 1_455 S
C44 C53 1.395 . S
C45 C23 1.432 . S
C45 C44 1.445 1_655 S
C45 C46 1.370 1_655 S
C46 C45 1.370 1_455 S
C46 C47 1.438 . S
C46 H108 0.930 . S
C47 C33 1.497 . S
C47 C46 1.438 . S
C47 C48 1.360 . S
C48 C47 1.360 . S
C48 C49 1.401 . S
C48 C53 1.446 . S
C49 C48 1.401 . S
C49 C50 1.347 . S
C49 H109 0.929 . S
C50 C49 1.347 . S
C50 C51 1.455 . S
C50 H110 0.930 . S
C51 C38 1.412 . S
C51 C50 1.455 . S
C51 C52 1.331 . S
C52 C41 1.451 . S
C52 C51 1.331 . S
C52 C53 1.497 . S
C53 C44 1.395 . S
C53 C48 1.446 . S
C53 C52 1.497 . S
C54 C55 1.582 . S
C54 H111 0.962 . S
C54 H112 0.959 . S
C54 H113 0.958 . S
C55 C54 1.582 . S
C55 O58 1.458 . S
C55 H84 0.980 . S
O56 C1 1.426 . S
O56 C2 1.334 . S
O57 C29 1.412 . S
O57 C30 1.393 . S
O58 C20 1.435 . S
O58 C55 1.458 . S
O59 C11 1.468 . S
O59 C12 1.408 . S
H60 C1 0.980 . S
H61 C0 0.959 . S
H62 C0 0.959 . S
H63 C0 0.960 . S
H64 C3 0.929 . S
H65 C7 0.929 . S
H66 C8 0.959 . S
H67 C8 0.961 . S
H68 C8 0.961 . S
H69 C9 0.960 . S
H70 C9 0.960 . S
H71 C9 0.961 . S
H72 C11 0.980 . S
H73 C10 0.961 . S
H74 C10 0.960 . S
H75 C10 0.959 . S
H76 C13 0.930 . S
H77 C17 0.931 . S
H78 C18 0.959 . S
H79 C18 0.961 . S
H80 C18 0.959 . S
H81 C19 0.960 . S
H82 C19 0.960 . S
H83 C19 0.960 . S
H84 C55 0.980 . S
H85 C21 0.930 . S
H86 C25 0.930 . S
H87 C26 0.961 . S
H88 C26 0.960 . S
H89 C26 0.958 . S
H90 C27 0.961 . S
H91 C27 0.960 . S
H92 C27 0.960 . S
H93 C29 0.980 . S
H94 C28 0.961 . S
H95 C28 0.961 . S
H96 C28 0.959 . S
H97 C31 0.932 . S
H98 C35 0.929 . S
H99 C36 0.961 . S
H100 C36 0.959 . S
H101 C36 0.959 . S
H102 C37 0.960 . S
H103 C37 0.962 . S
H104 C37 0.961 . S
H105 C39 0.929 . S
H106 C42 0.930 . S
H107 C43 0.929 . S
H108 C46 0.930 . S
H109 C49 0.929 . S
H110 C50 0.930 . S
H111 C54 0.962 . S
H112 C54 0.959 . S
H113 C54 0.958 . S
C114 C115 1.560 . S
C114 H175 0.959 . S
C114 H176 0.959 . S
C114 H177 0.960 . S
C115 C114 1.560 . S
C115 O170 1.426 . S
C115 H174 0.980 . S
C116 C117 1.407 . S
C116 C121 1.418 . S
C116 O170 1.334 . S
C117 C116 1.407 . S
C117 C118 1.360 . S
C117 H178 0.929 . S
C118 C117 1.360 . S
C118 C119 1.401 . S
C118 C122 1.527 . S
C119 C118 1.401 . S
C119 C120 1.405 . S
C119 C152 1.587 . S
C120 C119 1.405 . S
C120 C121 1.332 . S
C120 C123 1.496 . S
C121 C116 1.418 . S
C121 C120 1.332 . S
C121 H179 0.929 . S
C122 C118 1.527 . S
C122 H180 0.959 . S
C122 H181 0.961 . S
C122 H182 0.961 . S
C123 C120 1.496 . S
C123 H183 0.960 . S
C123 H184 0.960 . S
C123 H185 0.961 . S
C124 C125 1.517 . S
C124 H187 0.961 . S
C124 H188 0.960 . S
C124 H189 0.959 . S
C125 C124 1.517 . S
C125 O173 1.468 . S
C125 H186 0.980 . S
C126 C127 1.349 . S
C126 C131 1.367 . S
C126 O173 1.408 . S
C127 C126 1.349 . S
C127 C128 1.407 . S
C127 H190 0.930 . S
C128 C127 1.407 . S
C128 C129 1.449 . S
C128 C132 1.535 . S
C129 C128 1.449 . S
C129 C130 1.384 . S
C129 C154 1.553 . S
C130 C129 1.384 . S
C130 C131 1.364 . S
C130 C133 1.450 . S
C131 C126 1.367 . S
C131 C130 1.364 . S
C131 H191 0.931 . S
C132 C128 1.535 . S
C132 H192 0.959 . S
C132 H193 0.961 . S
C132 H194 0.959 . S
C133 C130 1.450 . S
C133 H195 0.960 . S
C133 H196 0.960 . S
C133 H197 0.960 . S
C134 C135 1.309 . S
C134 C139 1.304 . S
C134 O172 1.435 . S
C135 C134 1.309 . S
C135 C136 1.476 . S
C135 H199 0.930 . S
C136 C135 1.476 . S
C136 C137 1.400 . S
C136 C140 1.567 . S
C137 C136 1.400 . S
C137 C138 1.373 . S
C137 C159 1.432 . S
C138 C137 1.373 . S
C138 C139 1.339 . S
C138 C141 1.530 . S
C139 C134 1.304 . S
C139 C138 1.339 . S
C139 H200 0.930 . S
C140 C136 1.567 . S
C140 H201 0.961 . S
C140 H202 0.960 . S
C140 H203 0.958 . S
C141 C138 1.530 . S
C141 H204 0.961 . S
C141 H205 0.960 . S
C141 H206 0.960 . S
C142 C143 1.530 . S
C142 H208 0.961 . S
C142 H209 0.961 . S
C142 H210 0.959 . S
C143 C142 1.530 . S
C143 O171 1.412 . S
C143 H207 0.980 . S
C144 C145 1.288 . S
C144 C149 1.377 . S
C144 O171 1.393 . S
C145 C144 1.288 . S
C145 C146 1.369 1_565 S
C145 H211 0.932 . S
C146 C145 1.369 1_545 S
C146 C147 1.398 . S
C146 C150 1.527 . S
C147 C146 1.398 . S
C147 C148 1.380 1_545 S
C147 C161 1.497 . S
C148 C147 1.380 1_565 S
C148 C149 1.383 . S
C148 C151 1.587 . S
C149 C144 1.377 . S
C149 C148 1.383 . S
C149 H212 0.929 . S
C150 C146 1.527 . S
C150 H213 0.961 . S
C150 H214 0.959 . S
C150 H215 0.959 . S
C151 C148 1.587 . S
C151 H216 0.971 1_565 S
C151 H217 0.937 1_565 S
C151 H218 0.993 . S
C152 C119 1.587 . S
C152 C153 1.360 1_565 S
C152 C165 1.412 . S
C153 C152 1.360 1_545 S
C153 C154 1.365 . S
C153 H219 0.929 1_545 S
C154 C129 1.553 . S
C154 C153 1.365 . S
C154 C155 1.404 . S
C155 C154 1.404 . S
C155 C156 1.395 . S
C155 C166 1.451 . S
C156 C155 1.395 . S
C156 C157 1.322 . S
C156 H220 0.930 . S
C157 C156 1.322 . S
C157 C158 1.459 . S
C157 H221 0.929 . S
C158 C157 1.459 . S
C158 C159 1.445 . S
C158 C167 1.395 . S
C159 C137 1.432 . S
C159 C158 1.445 . S
C159 C160 1.370 . S
C160 C159 1.370 . S
C160 C161 1.438 . S
C160 H222 0.930 . S
C161 C147 1.497 . S
C161 C160 1.438 . S
C161 C162 1.360 . S
C162 C161 1.360 . S
C162 C163 1.401 1_545 S
C162 C167 1.446 . S
C163 C162 1.401 1_565 S
C163 C164 1.347 . S
C163 H223 0.929 . S
C164 C163 1.347 . S
C164 C165 1.455 . S
C164 H224 0.930 . S
C165 C152 1.412 . S
C165 C164 1.455 . S
C165 C166 1.331 1_565 S
C166 C155 1.451 . S
C166 C165 1.331 1_545 S
C166 C167 1.497 . S
C167 C158 1.395 . S
C167 C162 1.446 . S
C167 C166 1.497 . S
C168 C169 1.582 . S
C168 H225 0.962 . S
C168 H226 0.959 . S
C168 H227 0.958 . S
C169 C168 1.582 . S
C169 O172 1.458 . S
C169 H198 0.980 . S
O170 C115 1.426 . S
O170 C116 1.334 . S
O171 C143 1.412 . S
O171 C144 1.393 . S
O172 C134 1.435 . S
O172 C169 1.458 . S
O173 C125 1.468 . S
O173 C126 1.408 . S
H174 C115 0.980 . S
H175 C114 0.959 . S
H176 C114 0.959 . S
H177 C114 0.960 . S
H178 C117 0.929 . S
H179 C121 0.929 . S
H180 C122 0.959 . S
H181 C122 0.961 . S
H182 C122 0.961 . S
H183 C123 0.960 . S
H184 C123 0.960 . S
H185 C123 0.961 . S
H186 C125 0.980 . S
H187 C124 0.961 . S
H188 C124 0.960 . S
H189 C124 0.959 . S
H190 C127 0.930 . S
H191 C131 0.931 . S
H192 C132 0.959 . S
H193 C132 0.961 . S
H194 C132 0.959 . S
H195 C133 0.960 . S
H196 C133 0.960 . S
H197 C133 0.960 . S
H198 C169 0.980 . S
H199 C135 0.930 . S
H200 C139 0.930 . S
H201 C140 0.961 . S
H202 C140 0.960 . S
H203 C140 0.958 . S
H204 C141 0.961 . S
H205 C141 0.960 . S
H206 C141 0.960 . S
H207 C143 0.980 . S
H208 C142 0.961 . S
H209 C142 0.961 . S
H210 C142 0.959 . S
H211 C145 0.932 . S
H212 C149 0.929 . S
H213 C150 0.961 . S
H214 C150 0.959 . S
H215 C150 0.959 . S
H216 C151 0.971 1_545 S
H217 C151 0.937 1_545 S
H218 C151 0.993 . S
H219 C153 0.929 1_565 S
H220 C156 0.930 . S
H221 C157 0.929 . S
H222 C160 0.930 . S
H223 C163 0.929 . S
H224 C164 0.930 . S
H225 C168 0.962 . S
H226 C168 0.959 . S
H227 C168 0.958 . S
C228 C229 1.560 . S
C228 H289 0.959 . S
C228 H290 0.959 . S
C228 H291 0.960 . S
C229 C228 1.560 . S
C229 O284 1.426 . S
C229 H288 0.980 . S
C230 C231 1.407 . S
C230 C235 1.418 . S
C230 O284 1.334 . S
C231 C230 1.407 . S
C231 C232 1.360 . S
C231 H292 0.929 . S
C232 C231 1.360 . S
C232 C233 1.401 . S
C232 C236 1.527 . S
C233 C232 1.401 . S
C233 C234 1.405 . S
C233 C266 1.587 . S
C234 C233 1.405 . S
C234 C235 1.332 . S
C234 C237 1.496 . S
C235 C230 1.418 . S
C235 C234 1.332 . S
C235 H293 0.929 . S
C236 C232 1.527 . S
C236 H294 0.959 . S
C236 H295 0.961 . S
C236 H296 0.961 . S
C237 C234 1.496 . S
C237 H297 0.960 . S
C237 H298 0.960 . S
C237 H299 0.961 . S
C238 C239 1.517 . S
C238 H301 0.961 . S
C238 H302 0.960 . S
C238 H303 0.959 . S
C239 C238 1.517 . S
C239 O287 1.468 . S
C239 H300 0.980 . S
C240 C241 1.349 . S
C240 C245 1.367 . S
C240 O287 1.408 . S
C241 C240 1.349 . S
C241 C242 1.407 . S
C241 H304 0.930 . S
C242 C241 1.407 . S
C242 C243 1.449 . S
C242 C246 1.535 . S
C243 C242 1.449 . S
C243 C244 1.384 . S
C243 C268 1.553 . S
C244 C243 1.384 . S
C244 C245 1.364 . S
C244 C247 1.450 . S
C245 C240 1.367 . S
C245 C244 1.364 . S
C245 H305 0.931 . S
C246 C242 1.535 . S
C246 H306 0.959 . S
C246 H307 0.961 . S
C246 H308 0.959 . S
C247 C244 1.450 . S
C247 H309 0.960 . S
C247 H310 0.960 . S
C247 H311 0.960 . S
C248 C249 1.309 . S
C248 C253 1.304 . S
C248 O286 1.435 . S
C249 C248 1.309 . S
C249 C250 1.476 . S
C249 H313 0.930 . S
C250 C249 1.476 . S
C250 C251 1.400 . S
C250 C254 1.567 . S
C251 C250 1.400 . S
C251 C252 1.373 . S
C251 C273 1.432 . S
C252 C251 1.373 . S
C252 C253 1.339 . S
C252 C255 1.530 . S
C253 C248 1.304 . S
C253 C252 1.339 . S
C253 H314 0.930 . S
C254 C250 1.567 . S
C254 H315 0.961 . S
C254 H316 0.960 . S
C254 H317 0.958 . S
C255 C252 1.530 . S
C255 H318 0.961 . S
C255 H319 0.960 . S
C255 H320 0.960 . S
C256 C257 1.530 . S
C256 H322 0.961 . S
C256 H323 0.961 . S
C256 H324 0.959 . S
C257 C256 1.530 . S
C257 O285 1.412 . S
C257 H321 0.980 . S
C258 C259 1.288 . S
C258 C263 1.377 . S
C258 O285 1.393 . S
C259 C258 1.288 . S
C259 C260 1.369 . S
C259 H325 0.932 . S
C260 C259 1.369 . S
C260 C261 1.398 . S
C260 C264 1.527 . S
C261 C260 1.398 . S
C261 C262 1.380 . S
C261 C275 1.497 . S
C262 C261 1.380 . S
C262 C263 1.383 . S
C262 C265 1.603 . S
C263 C258 1.377 . S
C263 C262 1.383 . S
C263 H326 0.929 . S
C264 C260 1.527 . S
C264 H327 0.961 . S
C264 H328 0.959 . S
C264 H329 0.959 . S
C265 C262 1.603 . S
C265 H330 0.960 . S
C265 H331 0.962 . S
C265 H332 0.961 . S
C266 C233 1.587 . S
C266 C267 1.360 . S
C266 C279 1.412 . S
C267 C266 1.360 . S
C267 C268 1.365 . S
C267 H333 0.929 . S
C268 C243 1.553 . S
C268 C267 1.365 . S
C268 C269 1.404 . S
C269 C268 1.404 . S
C269 C270 1.395 . S
C269 C280 1.451 . S
C270 C269 1.395 . S
C270 C271 1.322 . S
C270 H334 0.930 . S
C271 C270 1.322 . S
C271 C272 1.459 . S
C271 H335 0.929 . S
C272 C271 1.459 . S
C272 C273 1.445 . S
C272 C281 1.395 . S
C273 C251 1.432 . S
C273 C272 1.445 . S
C273 C274 1.370 . S
C274 C273 1.370 . S
C274 C275 1.438 . S
C274 H336 0.930 . S
C275 C261 1.497 . S
C275 C274 1.438 . S
C275 C276 1.360 . S
C276 C275 1.360 . S
C276 C277 1.401 . S
C276 C281 1.446 . S
C277 C276 1.401 . S
C277 C278 1.347 . S
C277 H337 0.929 . S
C278 C277 1.347 . S
C278 C279 1.455 . S
C278 H338 0.930 . S
C279 C266 1.412 . S
C279 C278 1.455 . S
C279 C280 1.331 . S
C280 C269 1.451 . S
C280 C279 1.331 . S
C280 C281 1.497 . S
C281 C272 1.395 . S
C281 C276 1.446 . S
C281 C280 1.497 . S
C282 C283 1.582 . S
C282 H339 0.962 . S
C282 H340 0.959 . S
C282 H341 0.958 . S
C283 C282 1.582 . S
C283 O286 1.458 . S
C283 H312 0.980 . S
O284 C229 1.426 . S
O284 C230 1.334 . S
O285 C257 1.412 . S
O285 C258 1.393 . S
O286 C248 1.435 . S
O286 C283 1.458 . S
O287 C239 1.468 . S
O287 C240 1.408 . S
H288 C229 0.980 . S
H289 C228 0.959 . S
H290 C228 0.959 . S
H291 C228 0.960 . S
H292 C231 0.929 . S
H293 C235 0.929 . S
H294 C236 0.959 . S
H295 C236 0.961 . S
H296 C236 0.961 . S
H297 C237 0.960 . S
H298 C237 0.960 . S
H299 C237 0.961 . S
H300 C239 0.980 . S
H301 C238 0.961 . S
H302 C238 0.960 . S
H303 C238 0.959 . S
H304 C241 0.930 . S
H305 C245 0.931 . S
H306 C246 0.959 . S
H307 C246 0.961 . S
H308 C246 0.959 . S
H309 C247 0.960 . S
H310 C247 0.960 . S
H311 C247 0.960 . S
H312 C283 0.980 . S
H313 C249 0.930 . S
H314 C253 0.930 . S
H315 C254 0.961 . S
H316 C254 0.960 . S
H317 C254 0.958 . S
H318 C255 0.961 . S
H319 C255 0.960 . S
H320 C255 0.960 . S
H321 C257 0.980 . S
H322 C256 0.961 . S
H323 C256 0.961 . S
H324 C256 0.959 . S
H325 C259 0.932 . S
H326 C263 0.929 . S
H327 C264 0.961 . S
H328 C264 0.959 . S
H329 C264 0.959 . S
H330 C265 0.960 . S
H331 C265 0.962 . S
H332 C265 0.961 . S
H333 C267 0.929 . S
H334 C270 0.930 . S
H335 C271 0.929 . S
H336 C274 0.930 . S
H337 C277 0.929 . S
H338 C278 0.930 . S
H339 C282 0.962 . S
H340 C282 0.959 . S
H341 C282 0.958 . S
C342 C343 1.560 . S
C342 H403 0.959 . S
C342 H404 0.959 . S
C342 H405 0.960 . S
C343 C342 1.560 . S
C343 O398 1.426 . S
C343 H402 0.980 . S
C344 C345 1.407 . S
C344 C349 1.418 . S
C344 O398 1.334 . S
C345 C344 1.407 . S
C345 C346 1.360 . S
C345 H406 0.929 . S
C346 C345 1.360 . S
C346 C347 1.401 . S
C346 C350 1.527 . S
C347 C346 1.401 . S
C347 C348 1.405 . S
C347 C380 1.587 . S
C348 C347 1.405 . S
C348 C349 1.332 . S
C348 C351 1.496 . S
C349 C344 1.418 . S
C349 C348 1.332 . S
C349 H407 0.929 . S
C350 C346 1.527 . S
C350 H408 0.959 . S
C350 H409 0.961 . S
C350 H410 0.961 . S
C351 C348 1.496 . S
C351 H411 0.960 . S
C351 H412 0.960 . S
C351 H413 0.961 . S
C352 C353 1.517 . S
C352 H415 0.961 . S
C352 H416 0.960 . S
C352 H417 0.959 . S
C353 C352 1.517 . S
C353 O401 1.468 . S
C353 H414 0.980 . S
C354 C355 1.349 . S
C354 C359 1.367 . S
C354 O401 1.408 . S
C355 C354 1.349 . S
C355 C356 1.407 1_655 S
C355 H418 0.930 . S
C356 C355 1.407 1_455 S
C356 C357 1.449 . S
C356 C360 1.535 . S
C357 C356 1.449 . S
C357 C358 1.384 . S
C357 C382 1.553 . S
C358 C357 1.384 . S
C358 C359 1.364 1_455 S
C358 C361 1.450 . S
C359 C354 1.367 . S
C359 C358 1.364 1_655 S
C359 H419 0.931 . S
C360 C356 1.535 . S
C360 H420 0.959 . S
C360 H421 0.961 . S
C360 H422 0.959 . S
C361 C358 1.450 . S
C361 H423 0.960 . S
C361 H424 0.960 . S
C361 H425 0.960 . S
C362 C363 1.309 . S
C362 C367 1.304 . S
C362 O400 1.435 . S
C363 C362 1.309 . S
C363 C364 1.476 . S
C363 H427 0.930 . S
C364 C363 1.476 . S
C364 C365 1.400 . S
C364 C368 1.567 . S
C365 C364 1.400 . S
C365 C366 1.373 . S
C365 C387 1.432 . S
C366 C365 1.373 . S
C366 C367 1.339 . S
C366 C369 1.530 . S
C367 C362 1.304 . S
C367 C366 1.339 . S
C367 H428 0.930 . S
C368 C364 1.567 . S
C368 H429 0.961 . S
C368 H430 0.960 . S
C368 H431 0.958 . S
C369 C366 1.530 . S
C369 H432 0.961 . S
C369 H433 0.960 . S
C369 H434 0.960 . S
C370 C371 1.530 . S
C370 H436 0.961 . S
C370 H437 0.961 . S
C370 H438 0.959 . S
C371 C370 1.530 . S
C371 O399 1.412 . S
C371 H435 0.980 . S
C372 C373 1.288 . S
C372 C377 1.377 . S
C372 O399 1.393 . S
C373 C372 1.288 . S
C373 C374 1.369 . S
C373 H439 0.932 . S
C374 C373 1.369 . S
C374 C375 1.398 . S
C374 C378 1.527 . S
C375 C374 1.398 . S
C375 C376 1.380 . S
C375 C389 1.497 . S
C376 C375 1.380 . S
C376 C377 1.383 . S
C376 C379 1.603 . S
C377 C372 1.377 . S
C377 C376 1.383 . S
C377 H440 0.929 . S
C378 C374 1.527 . S
C378 H441 0.961 . S
C378 H442 0.959 . S
C378 H443 0.959 . S
C379 C376 1.603 . S
C379 H444 0.960 . S
C379 H445 0.962 . S
C379 H446 0.961 . S
C380 C347 1.587 . S
C380 C381 1.360 . S
C380 C393 1.412 . S
C381 C380 1.360 . S
C381 C382 1.365 . S
C381 H447 0.929 . S
C382 C357 1.553 . S
C382 C381 1.365 . S
C382 C383 1.404 . S
C383 C382 1.404 . S
C383 C384 1.395 1_455 S
C383 C394 1.451 . S
C384 C383 1.395 1_655 S
C384 C385 1.322 . S
C384 H448 0.930 . S
C385 C384 1.322 . S
C385 C386 1.459 1_655 S
C385 H449 0.929 . S
C386 C385 1.459 1_455 S
C386 C387 1.445 1_455 S
C386 C395 1.395 . S
C387 C365 1.432 . S
C387 C386 1.445 1_655 S
C387 C388 1.370 1_655 S
C388 C387 1.370 1_455 S
C388 C389 1.438 . S
C388 H450 0.930 . S
C389 C375 1.497 . S
C389 C388 1.438 . S
C389 C390 1.360 . S
C390 C389 1.360 . S
C390 C391 1.401 . S
C390 C395 1.446 . S
C391 C390 1.401 . S
C391 C392 1.347 . S
C391 H451 0.929 . S
C392 C391 1.347 . S
C392 C393 1.455 . S
C392 H452 0.930 . S
C393 C380 1.412 . S
C393 C392 1.455 . S
C393 C394 1.331 . S
C394 C383 1.451 . S
C394 C393 1.331 . S
C394 C395 1.497 . S
C395 C386 1.395 . S
C395 C390 1.446 . S
C395 C394 1.497 . S
C396 C397 1.582 . S
C396 H453 0.962 . S
C396 H454 0.959 . S
C396 H455 0.958 . S
C397 C396 1.582 . S
C397 O400 1.458 . S
C397 H426 0.980 . S
O398 C343 1.426 . S
O398 C344 1.334 . S
O399 C371 1.412 . S
O399 C372 1.393 . S
O400 C362 1.435 . S
O400 C397 1.458 . S
O401 C353 1.468 . S
O401 C354 1.408 . S
H402 C343 0.980 . S
H403 C342 0.959 . S
H404 C342 0.959 . S
H405 C342 0.960 . S
H406 C345 0.929 . S
H407 C349 0.929 . S
H408 C350 0.959 . S
H409 C350 0.961 . S
H410 C350 0.961 . S
H411 C351 0.960 . S
H412 C351 0.960 . S
H413 C351 0.961 . S
H414 C353 0.980 . S
H415 C352 0.961 . S
H416 C352 0.960 . S
H417 C352 0.959 . S
H418 C355 0.930 . S
H419 C359 0.931 . S
H420 C360 0.959 . S
H421 C360 0.961 . S
H422 C360 0.959 . S
H423 C361 0.960 . S
H424 C361 0.960 . S
H425 C361 0.960 . S
H426 C397 0.980 . S
H427 C363 0.930 . S
H428 C367 0.930 . S
H429 C368 0.961 . S
H430 C368 0.960 . S
H431 C368 0.958 . S
H432 C369 0.961 . S
H433 C369 0.960 . S
H434 C369 0.960 . S
H435 C371 0.980 . S
H436 C370 0.961 . S
H437 C370 0.961 . S
H438 C370 0.959 . S
H439 C373 0.932 . S
H440 C377 0.929 . S
H441 C378 0.961 . S
H442 C378 0.959 . S
H443 C378 0.959 . S
H444 C379 0.960 . S
H445 C379 0.962 . S
H446 C379 0.961 . S
H447 C381 0.929 . S
H448 C384 0.930 . S
H449 C385 0.929 . S
H450 C388 0.930 . S
H451 C391 0.929 . S
H452 C392 0.930 . S
H453 C396 0.962 . S
H454 C396 0.959 . S
H455 C396 0.958 . S
C456 C457 1.560 . S
C456 H517 0.959 . S
C456 H518 0.959 . S
C456 H519 0.960 . S
C457 C456 1.560 . S
C457 O512 1.426 . S
C457 H516 0.980 . S
C458 C459 1.407 . S
C458 C463 1.418 . S
C458 O512 1.334 . S
C459 C458 1.407 . S
C459 C460 1.360 . S
C459 H520 0.929 . S
C460 C459 1.360 . S
C460 C461 1.401 . S
C460 C464 1.527 . S
C461 C460 1.401 . S
C461 C462 1.405 . S
C461 C494 1.587 . S
C462 C461 1.405 . S
C462 C463 1.332 . S
C462 C465 1.496 . S
C463 C458 1.418 . S
C463 C462 1.332 . S
C463 H521 0.929 . S
C464 C460 1.527 . S
C464 H522 0.959 . S
C464 H523 0.961 . S
C464 H524 0.961 . S
C465 C462 1.496 . S
C465 H525 0.960 . S
C465 H526 0.960 . S
C465 H527 0.961 . S
C466 C467 1.517 . S
C466 H529 0.961 . S
C466 H530 0.960 . S
C466 H531 0.959 . S
C467 C466 1.517 . S
C467 O515 1.468 . S
C467 H528 0.980 . S
C468 C469 1.349 . S
C468 C473 1.367 . S
C468 O515 1.408 . S
C469 C468 1.349 . S
C469 C470 1.407 . S
C469 H532 0.930 . S
C470 C469 1.407 . S
C470 C471 1.449 . S
C470 C474 1.535 . S
C471 C470 1.449 . S
C471 C472 1.384 . S
C471 C496 1.553 . S
C472 C471 1.384 . S
C472 C473 1.364 . S
C472 C475 1.450 . S
C473 C468 1.367 . S
C473 C472 1.364 . S
C473 H533 0.931 . S
C474 C470 1.535 . S
C474 H534 0.959 . S
C474 H535 0.961 . S
C474 H536 0.959 . S
C475 C472 1.450 . S
C475 H537 0.960 . S
C475 H538 0.960 . S
C475 H539 0.960 . S
C476 C477 1.309 . S
C476 C481 1.304 . S
C476 O514 1.435 . S
C477 C476 1.309 . S
C477 C478 1.476 . S
C477 H541 0.930 . S
C478 C477 1.476 . S
C478 C479 1.400 . S
C478 C482 1.567 . S
C479 C478 1.400 . S
C479 C480 1.373 . S
C479 C501 1.432 . S
C480 C479 1.373 . S
C480 C481 1.339 . S
C480 C483 1.530 . S
C481 C476 1.304 . S
C481 C480 1.339 . S
C481 H542 0.930 . S
C482 C478 1.567 . S
C482 H543 0.961 . S
C482 H544 0.960 . S
C482 H545 0.958 . S
C483 C480 1.530 . S
C483 H546 0.961 . S
C483 H547 0.960 . S
C483 H548 0.960 . S
C484 C485 1.530 . S
C484 H550 0.961 . S
C484 H551 0.961 . S
C484 H552 0.959 . S
C485 C484 1.530 . S
C485 O513 1.412 . S
C485 H549 0.980 . S
C486 C487 1.288 . S
C486 C491 1.377 . S
C486 O513 1.393 . S
C487 C486 1.288 . S
C487 C488 1.369 1_565 S
C487 H553 0.932 . S
C488 C487 1.369 1_545 S
C488 C489 1.398 . S
C488 C492 1.527 . S
C489 C488 1.398 . S
C489 C490 1.380 1_545 S
C489 C503 1.497 . S
C490 C489 1.380 1_565 S
C490 C491 1.383 . S
C490 C493 1.615 . S
C491 C486 1.377 . S
C491 C490 1.383 . S
C491 H554 0.929 . S
C492 C488 1.527 . S
C492 H555 0.961 . S
C492 H556 0.959 . S
C492 H557 0.959 . S
C493 C490 1.615 . S
C493 H558 0.947 1_565 S
C493 H559 0.945 1_565 S
C493 H560 0.974 . S
C494 C461 1.587 . S
C494 C495 1.360 1_565 S
C494 C507 1.412 . S
C495 C494 1.360 1_545 S
C495 C496 1.365 . S
C495 H561 0.929 1_545 S
C496 C471 1.553 . S
C496 C495 1.365 . S
C496 C497 1.404 . S
C497 C496 1.404 . S
C497 C498 1.395 . S
C497 C508 1.451 . S
C498 C497 1.395 . S
C498 C499 1.322 . S
C498 H562 0.930 . S
C499 C498 1.322 . S
C499 C500 1.459 . S
C499 H563 0.929 . S
C500 C499 1.459 . S
C500 C501 1.445 1_556 S
C500 C509 1.395 . S
C501 C479 1.432 . S
C501 C500 1.445 1_554 S
C501 C502 1.370 . S
C502 C501 1.370 . S
C502 C503 1.438 . S
C502 H564 0.930 . S
C503 C489 1.497 . S
C503 C502 1.438 . S
C503 C504 1.360 . S
C504 C503 1.360 . S
C504 C505 1.401 1_545 S
C504 C509 1.446 1_554 S
C505 C504 1.401 1_565 S
C505 C506 1.347 1_554 S
C505 H565 0.929 . S
C506 C505 1.347 1_556 S
C506 C507 1.455 . S
C506 H566 0.930 . S
C507 C494 1.412 . S
C507 C506 1.455 . S
C507 C508 1.331 1_565 S
C508 C497 1.451 . S
C508 C507 1.331 1_545 S
C508 C509 1.497 . S
C509 C500 1.395 . S
C509 C504 1.446 1_556 S
C509 C508 1.497 . S
C510 C511 1.582 . S
C510 H567 0.962 . S
C510 H568 0.959 . S
C510 H569 0.958 . S
C511 C510 1.582 . S
C511 O514 1.458 . S
C511 H540 0.980 . S
O512 C457 1.426 . S
O512 C458 1.334 . S
O513 C485 1.412 . S
O513 C486 1.393 . S
O514 C476 1.435 . S
O514 C511 1.458 . S
O515 C467 1.468 . S
O515 C468 1.408 . S
H516 C457 0.980 . S
H517 C456 0.959 . S
H518 C456 0.959 . S
H519 C456 0.960 . S
H520 C459 0.929 . S
H521 C463 0.929 . S
H522 C464 0.959 . S
H523 C464 0.961 . S
H524 C464 0.961 . S
H525 C465 0.960 . S
H526 C465 0.960 . S
H527 C465 0.961 . S
H528 C467 0.980 . S
H529 C466 0.961 . S
H530 C466 0.960 . S
H531 C466 0.959 . S
H532 C469 0.930 . S
H533 C473 0.931 . S
H534 C474 0.959 . S
H535 C474 0.961 . S
H536 C474 0.959 . S
H537 C475 0.960 . S
H538 C475 0.960 . S
H539 C475 0.960 . S
H540 C511 0.980 . S
H541 C477 0.930 . S
H542 C481 0.930 . S
H543 C482 0.961 . S
H544 C482 0.960 . S
H545 C482 0.958 . S
H546 C483 0.961 . S
H547 C483 0.960 . S
H548 C483 0.960 . S
H549 C485 0.980 . S
H550 C484 0.961 . S
H551 C484 0.961 . S
H552 C484 0.959 . S
H553 C487 0.932 . S
H554 C491 0.929 . S
H555 C492 0.961 . S
H556 C492 0.959 . S
H557 C492 0.959 . S
H558 C493 0.947 1_545 S
H559 C493 0.945 1_545 S
H560 C493 0.974 . S
H561 C495 0.929 1_565 S
H562 C498 0.930 . S
H563 C499 0.929 . S
H564 C502 0.930 . S
H565 C505 0.929 . S
H566 C506 0.930 . S
H567 C510 0.962 . S
H568 C510 0.959 . S
H569 C510 0.958 . S
C570 C571 1.560 . S
C570 H631 0.959 . S
C570 H632 0.959 . S
C570 H633 0.960 . S
C571 C570 1.560 . S
C571 O626 1.426 . S
C571 H630 0.980 . S
C572 C573 1.407 . S
C572 C577 1.418 . S
C572 O626 1.334 . S
C573 C572 1.407 . S
C573 C574 1.360 . S
C573 H634 0.929 . S
C574 C573 1.360 . S
C574 C575 1.401 . S
C574 C578 1.527 . S
C575 C574 1.401 . S
C575 C576 1.405 . S
C575 C608 1.587 . S
C576 C575 1.405 . S
C576 C577 1.332 . S
C576 C579 1.496 . S
C577 C572 1.418 . S
C577 C576 1.332 . S
C577 H635 0.929 . S
C578 C574 1.527 . S
C578 H636 0.959 . S
C578 H637 0.961 . S
C578 H638 0.961 . S
C579 C576 1.496 . S
C579 H639 0.960 . S
C579 H640 0.960 . S
C579 H641 0.961 . S
C580 C581 1.517 . S
C580 H643 0.961 . S
C580 H644 0.960 . S
C580 H645 0.959 . S
C581 C580 1.517 . S
C581 O629 1.468 . S
C581 H642 0.980 . S
C582 C583 1.349 . S
C582 C587 1.367 . S
C582 O629 1.408 . S
C583 C582 1.349 . S
C583 C584 1.407 . S
C583 H646 0.930 . S
C584 C583 1.407 . S
C584 C585 1.449 . S
C584 C588 1.535 . S
C585 C584 1.449 . S
C585 C586 1.384 . S
C585 C610 1.553 . S
C586 C585 1.384 . S
C586 C587 1.364 . S
C586 C589 1.450 . S
C587 C582 1.367 . S
C587 C586 1.364 . S
C587 H647 0.931 . S
C588 C584 1.535 . S
C588 H648 0.959 . S
C588 H649 0.961 . S
C588 H650 0.959 . S
C589 C586 1.450 . S
C589 H651 0.960 . S
C589 H652 0.960 . S
C589 H653 0.960 . S
C590 C591 1.309 . S
C590 C595 1.304 . S
C590 O628 1.435 . S
C591 C590 1.309 . S
C591 C592 1.476 . S
C591 H655 0.930 . S
C592 C591 1.476 . S
C592 C593 1.400 . S
C592 C596 1.567 . S
C593 C592 1.400 . S
C593 C594 1.373 . S
C593 C615 1.432 . S
C594 C593 1.373 . S
C594 C595 1.339 . S
C594 C597 1.530 . S
C595 C590 1.304 . S
C595 C594 1.339 . S
C595 H656 0.930 . S
C596 C592 1.567 . S
C596 H657 0.961 . S
C596 H658 0.960 . S
C596 H659 0.958 . S
C597 C594 1.530 . S
C597 H660 0.961 . S
C597 H661 0.960 . S
C597 H662 0.960 . S
C598 C599 1.530 . S
C598 H664 0.961 . S
C598 H665 0.961 . S
C598 H666 0.959 . S
C599 C598 1.530 . S
C599 O627 1.412 . S
C599 H663 0.980 . S
C600 C601 1.288 . S
C600 C605 1.377 . S
C600 O627 1.393 . S
C601 C600 1.288 . S
C601 C602 1.369 . S
C601 H667 0.932 . S
C602 C601 1.369 . S
C602 C603 1.398 . S
C602 C606 1.527 . S
C603 C602 1.398 . S
C603 C604 1.380 . S
C603 C617 1.497 . S
C604 C603 1.380 . S
C604 C605 1.383 . S
C604 C607 1.603 . S
C605 C600 1.377 . S
C605 C604 1.383 . S
C605 H668 0.929 . S
C606 C602 1.527 . S
C606 H669 0.961 . S
C606 H670 0.959 . S
C606 H671 0.959 . S
C607 C604 1.603 . S
C607 H672 0.960 . S
C607 H673 0.962 . S
C607 H674 0.961 . S
C608 C575 1.587 . S
C608 C609 1.360 . S
C608 C621 1.412 . S
C609 C608 1.360 . S
C609 C610 1.365 . S
C609 H675 0.929 . S
C610 C585 1.553 . S
C610 C609 1.365 . S
C610 C611 1.404 . S
C611 C610 1.404 . S
C611 C612 1.395 . S
C611 C622 1.451 . S
C612 C611 1.395 . S
C612 C613 1.322 . S
C612 H676 0.930 . S
C613 C612 1.322 . S
C613 C614 1.459 . S
C613 H677 0.929 . S
C614 C613 1.459 . S
C614 C615 1.445 . S
C614 C623 1.395 . S
C615 C593 1.432 . S
C615 C614 1.445 . S
C615 C616 1.370 . S
C616 C615 1.370 . S
C616 C617 1.438 . S
C616 H678 0.930 . S
C617 C603 1.497 . S
C617 C616 1.438 . S
C617 C618 1.360 . S
C618 C617 1.360 . S
C618 C619 1.401 . S
C618 C623 1.446 . S
C619 C618 1.401 . S
C619 C620 1.347 . S
C619 H679 0.929 . S
C620 C619 1.347 . S
C620 C621 1.455 . S
C620 H680 0.930 . S
C621 C608 1.412 . S
C621 C620 1.455 . S
C621 C622 1.331 . S
C622 C611 1.451 . S
C622 C621 1.331 . S
C622 C623 1.497 . S
C623 C614 1.395 . S
C623 C618 1.446 . S
C623 C622 1.497 . S
C624 C625 1.582 . S
C624 H681 0.962 . S
C624 H682 0.959 . S
C624 H683 0.958 . S
C625 C624 1.582 . S
C625 O628 1.458 . S
C625 H654 0.980 . S
O626 C571 1.426 . S
O626 C572 1.334 . S
O627 C599 1.412 . S
O627 C600 1.393 . S
O628 C590 1.435 . S
O628 C625 1.458 . S
O629 C581 1.468 . S
O629 C582 1.408 . S
H630 C571 0.980 . S
H631 C570 0.959 . S
H632 C570 0.959 . S
H633 C570 0.960 . S
H634 C573 0.929 . S
H635 C577 0.929 . S
H636 C578 0.959 . S
H637 C578 0.961 . S
H638 C578 0.961 . S
H639 C579 0.960 . S
H640 C579 0.960 . S
H641 C579 0.961 . S
H642 C581 0.980 . S
H643 C580 0.961 . S
H644 C580 0.960 . S
H645 C580 0.959 . S
H646 C583 0.930 . S
H647 C587 0.931 . S
H648 C588 0.959 . S
H649 C588 0.961 . S
H650 C588 0.959 . S
H651 C589 0.960 . S
H652 C589 0.960 . S
H653 C589 0.960 . S
H654 C625 0.980 . S
H655 C591 0.930 . S
H656 C595 0.930 . S
H657 C596 0.961 . S
H658 C596 0.960 . S
H659 C596 0.958 . S
H660 C597 0.961 . S
H661 C597 0.960 . S
H662 C597 0.960 . S
H663 C599 0.980 . S
H664 C598 0.961 . S
H665 C598 0.961 . S
H666 C598 0.959 . S
H667 C601 0.932 . S
H668 C605 0.929 . S
H669 C606 0.961 . S
H670 C606 0.959 . S
H671 C606 0.959 . S
H672 C607 0.960 . S
H673 C607 0.962 . S
H674 C607 0.961 . S
H675 C609 0.929 . S
H676 C612 0.930 . S
H677 C613 0.929 . S
H678 C616 0.930 . S
H679 C619 0.929 . S
H680 C620 0.930 . S
H681 C624 0.962 . S
H682 C624 0.959 . S
H683 C624 0.958 . S
Li684 N701 1.990 . S
Li684 O744 1.956 . S
Li684 O745 1.970 . S
Li684 O746 1.961 . S
Li685 N709 1.990 . S
Li685 O744 1.970 . S
Li685 O745 1.956 . S
Li685 O747 1.961 . S
Li686 N731 1.990 . S
Li686 O744 1.961 . S
Li686 O746 1.956 . S
Li686 O747 1.970 . S
Li687 N737 1.990 . S
Li687 O745 1.961 . S
Li687 O746 1.970 . S
Li687 O747 1.956 . S
C688 C690 1.348 . S
C688 C691 1.356 . S
C688 O744 1.325 . S
N689 C692 1.314 . S
N689 C693 1.279 . S
C690 C688 1.348 . S
C690 C692 1.353 . S
C690 H748 0.929 . S
C691 C688 1.356 . S
C691 C693 1.358 . S
C691 H749 0.930 . S
C692 N689 1.314 . S
C692 C690 1.353 . S
C692 H750 0.930 . S
C693 N689 1.279 . S
C693 C691 1.358 . S
C693 H751 0.930 . S
C694 C697 1.348 . S
C694 C698 1.356 . S
C694 O745 1.325 . S
C695 N696 1.279 . S
C695 C698 1.358 . S
C695 H752 0.930 . S
N696 C695 1.279 . S
N696 C699 1.314 . S
C697 C694 1.348 . S
C697 C699 1.353 . S
C697 H753 0.929 . S
C698 C694 1.356 . S
C698 C695 1.358 . S
C698 H754 0.930 . S
C699 N696 1.314 . S
C699 C697 1.353 . S
C699 H755 0.930 . S
C700 N701 1.314 . S
C700 C705 1.353 . S
C700 H706 0.930 . S
N701 Li684 1.990 . S
N701 C700 1.314 . S
N701 C703 1.279 . S
C702 C703 1.358 . S
C702 C704 1.356 . S
C702 H756 0.930 . S
C703 N701 1.279 . S
C703 C702 1.358 . S
C703 H707 0.930 . S
C704 C702 1.356 . S
C704 C705 1.348 . S
C705 C700 1.353 . S
C705 C704 1.348 . S
C705 H757 0.929 . S
H706 C700 0.930 . S
H707 C703 0.930 . S
C708 N709 1.314 . S
C708 C710 1.353 . S
C708 H714 0.930 . S
N709 Li685 1.990 . S
N709 C708 1.314 . S
N709 C712 1.279 . S
C710 C708 1.353 . S
C710 C713 1.348 . S
C710 H758 0.929 . S
C711 C712 1.358 . S
C711 C713 1.356 . S
C711 H759 0.930 . S
C712 N709 1.279 . S
C712 C711 1.358 . S
C712 H715 0.930 . S
C713 C710 1.348 . S
C713 C711 1.356 . S
H714 C708 0.930 . S
H715 C712 0.930 . S
C716 C718 1.348 . S
C716 C719 1.356 . S
C716 O746 1.325 . S
N717 C720 1.314 . S
N717 C721 1.279 . S
C718 C716 1.348 . S
C718 C720 1.353 . S
C718 H760 0.929 . S
C719 C716 1.356 . S
C719 C721 1.358 . S
C719 H761 0.930 . S
C720 N717 1.314 . S
C720 C718 1.353 . S
C720 H762 0.930 . S
C721 N717 1.279 . S
C721 C719 1.358 . S
C721 H763 0.930 . S
C722 C723 1.348 . S
C722 C724 1.356 . S
C722 O747 1.325 . S
C723 C722 1.348 . S
C723 C725 1.353 . S
C723 H764 0.929 . S
C724 C722 1.356 . S
C724 C726 1.358 . S
C724 H765 0.930 . S
C725 C723 1.353 . S
C725 N727 1.314 . S
C725 H766 0.930 . S
C726 C724 1.358 . S
C726 N727 1.279 . S
C726 H767 0.930 . S
N727 C725 1.314 . S
N727 C726 1.279 . S
C728 C730 1.353 . S
C728 N731 1.314 . S
C728 H734 0.930 . S
C729 N731 1.279 . S
C729 C732 1.358 . S
C729 H735 0.930 . S
C730 C728 1.353 . S
C730 C733 1.348 . S
C730 H768 0.929 . S
N731 Li686 1.990 . S
N731 C728 1.314 . S
N731 C729 1.279 . S
C732 C729 1.358 . S
C732 C733 1.356 . S
C732 H769 0.930 . S
C733 C730 1.348 . S
C733 C732 1.356 . S
H734 C728 0.930 . S
H735 C729 0.930 . S
C736 N737 1.314 . S
C736 C738 1.353 . S
C736 H742 0.930 . S
N737 Li687 1.990 . S
N737 C736 1.314 . S
N737 C740 1.279 . S
C738 C736 1.353 . S
C738 C741 1.348 . S
C738 H770 0.929 . S
C739 C740 1.358 . S
C739 C741 1.356 . S
C739 H771 0.930 . S
C740 N737 1.279 . S
C740 C739 1.358 . S
C740 H743 0.930 . S
C741 C738 1.348 . S
C741 C739 1.356 . S
H742 C736 0.930 . S
H743 C740 0.930 . S
O744 Li684 1.956 . S
O744 Li685 1.970 . S
O744 Li686 1.961 . S
O744 C688 1.325 . S
O745 Li684 1.970 . S
O745 Li685 1.956 . S
O745 Li687 1.961 . S
O745 C694 1.325 . S
O746 Li684 1.961 . S
O746 Li686 1.956 . S
O746 Li687 1.970 . S
O746 C716 1.325 . S
O747 Li685 1.961 . S
O747 Li686 1.970 . S
O747 Li687 1.956 . S
O747 C722 1.325 . S
H748 C690 0.929 . S
H749 C691 0.930 . S
H750 C692 0.930 . S
H751 C693 0.930 . S
H752 C695 0.930 . S
H753 C697 0.929 . S
H754 C698 0.930 . S
H755 C699 0.930 . S
H756 C702 0.930 . S
H757 C705 0.929 . S
H758 C710 0.929 . S
H759 C711 0.930 . S
H760 C718 0.929 . S
H761 C719 0.930 . S
H762 C720 0.930 . S
H763 C721 0.930 . S
H764 C723 0.929 . S
H765 C724 0.930 . S
H766 C725 0.930 . S
H767 C726 0.930 . S
H768 C730 0.929 . S
H769 C732 0.930 . S
H770 C738 0.929 . S
H771 C739 0.930 . S
Li772 N789 1.990 . S
Li772 O832 1.956 . S
Li772 O833 1.970 . S
Li772 O834 1.961 . S
Li773 N797 1.990 . S
Li773 O832 1.970 . S
Li773 O833 1.956 . S
Li773 O835 1.961 . S
Li774 N819 1.990 . S
Li774 O832 1.961 . S
Li774 O834 1.956 . S
Li774 O835 1.970 . S
Li775 N825 1.990 . S
Li775 O833 1.961 . S
Li775 O834 1.970 . S
Li775 O835 1.956 . S
C776 C778 1.348 . S
C776 C779 1.356 . S
C776 O832 1.325 . S
N777 C780 1.314 . S
N777 C781 1.279 . S
C778 C776 1.348 . S
C778 C780 1.353 . S
C778 H836 0.929 . S
C779 C776 1.356 . S
C779 C781 1.358 . S
C779 H837 0.930 . S
C780 N777 1.314 . S
C780 C778 1.353 . S
C780 H838 0.930 . S
C781 N777 1.279 . S
C781 C779 1.358 . S
C781 H839 0.930 . S
C782 C785 1.348 . S
C782 C786 1.356 . S
C782 O833 1.325 . S
C783 N784 1.279 . S
C783 C786 1.358 . S
C783 H840 0.930 . S
N784 C783 1.279 . S
N784 C787 1.314 . S
C785 C782 1.348 . S
C785 C787 1.353 . S
C785 H841 0.929 . S
C786 C782 1.356 . S
C786 C783 1.358 . S
C786 H842 0.930 . S
C787 N784 1.314 . S
C787 C785 1.353 . S
C787 H843 0.930 . S
C788 N789 1.314 . S
C788 C793 1.353 . S
C788 H794 0.930 . S
N789 Li772 1.990 . S
N789 C788 1.314 . S
N789 C791 1.279 . S
C790 C791 1.358 . S
C790 C792 1.356 . S
C790 H844 0.930 . S
C791 N789 1.279 . S
C791 C790 1.358 . S
C791 H795 0.930 . S
C792 C790 1.356 . S
C792 C793 1.348 . S
C793 C788 1.353 . S
C793 C792 1.348 . S
C793 H845 0.929 . S
H794 C788 0.930 . S
H795 C791 0.930 . S
C796 N797 1.314 . S
C796 C798 1.353 . S
C796 H802 0.930 . S
N797 Li773 1.990 . S
N797 C796 1.314 . S
N797 C800 1.279 . S
C798 C796 1.353 . S
C798 C801 1.348 . S
C798 H846 0.929 . S
C799 C800 1.358 . S
C799 C801 1.356 . S
C799 H847 0.930 . S
C800 N797 1.279 . S
C800 C799 1.358 . S
C800 H803 0.930 . S
C801 C798 1.348 . S
C801 C799 1.356 . S
H802 C796 0.930 . S
H803 C800 0.930 . S
C804 C806 1.348 . S
C804 C807 1.356 . S
C804 O834 1.325 . S
N805 C808 1.314 . S
N805 C809 1.279 . S
C806 C804 1.348 . S
C806 C808 1.353 . S
C806 H848 0.929 . S
C807 C804 1.356 . S
C807 C809 1.358 . S
C807 H849 0.930 . S
C808 N805 1.314 . S
C808 C806 1.353 . S
C808 H850 0.930 . S
C809 N805 1.279 . S
C809 C807 1.358 . S
C809 H851 0.930 . S
C810 C811 1.348 . S
C810 C812 1.356 . S
C810 O835 1.325 . S
C811 C810 1.348 . S
C811 C813 1.353 . S
C811 H852 0.929 . S
C812 C810 1.356 . S
C812 C814 1.358 . S
C812 H853 0.930 . S
C813 C811 1.353 . S
C813 N815 1.314 . S
C813 H854 0.930 . S
C814 C812 1.358 . S
C814 N815 1.279 . S
C814 H855 0.930 . S
N815 C813 1.314 . S
N815 C814 1.279 . S
C816 C818 1.353 . S
C816 N819 1.314 . S
C816 H822 0.930 . S
C817 N819 1.279 . S
C817 C820 1.358 . S
C817 H823 0.930 . S
C818 C816 1.353 . S
C818 C821 1.348 . S
C818 H856 0.929 . S
N819 Li774 1.990 . S
N819 C816 1.314 . S
N819 C817 1.279 . S
C820 C817 1.358 . S
C820 C821 1.356 . S
C820 H857 0.930 . S
C821 C818 1.348 . S
C821 C820 1.356 . S
H822 C816 0.930 . S
H823 C817 0.930 . S
C824 N825 1.314 . S
C824 C826 1.353 . S
C824 H830 0.930 . S
N825 Li775 1.990 . S
N825 C824 1.314 . S
N825 C828 1.279 . S
C826 C824 1.353 . S
C826 C829 1.348 . S
C826 H858 0.929 . S
C827 C828 1.358 . S
C827 C829 1.356 . S
C827 H859 0.930 . S
C828 N825 1.279 . S
C828 C827 1.358 . S
C828 H831 0.930 . S
C829 C826 1.348 . S
C829 C827 1.356 . S
H830 C824 0.930 . S
H831 C828 0.930 . S
O832 Li772 1.956 . S
O832 Li773 1.970 . S
O832 Li774 1.961 . S
O832 C776 1.325 . S
O833 Li772 1.970 . S
O833 Li773 1.956 . S
O833 Li775 1.961 . S
O833 C782 1.325 . S
O834 Li772 1.961 . S
O834 Li774 1.956 . S
O834 Li775 1.970 . S
O834 C804 1.325 . S
O835 Li773 1.961 . S
O835 Li774 1.970 . S
O835 Li775 1.956 . S
O835 C810 1.325 . S
H836 C778 0.929 . S
H837 C779 0.930 . S
H838 C780 0.930 . S
H839 C781 0.930 . S
H840 C783 0.930 . S
H841 C785 0.929 . S
H842 C786 0.930 . S
H843 C787 0.930 . S
H844 C790 0.930 . S
H845 C793 0.929 . S
H846 C798 0.929 . S
H847 C799 0.930 . S
H848 C806 0.929 . S
H849 C807 0.930 . S
H850 C808 0.930 . S
H851 C809 0.930 . S
H852 C811 0.929 . S
H853 C812 0.930 . S
H854 C813 0.930 . S
H855 C814 0.930 . S
H856 C818 0.929 . S
H857 C820 0.930 . S
H858 C826 0.929 . S
H859 C827 0.930 . S
Li860 N877 1.990 . S
Li860 O920 1.956 . S
Li860 O921 1.970 . S
Li860 O922 1.961 . S
Li861 N885 1.990 . S
Li861 O920 1.970 . S
Li861 O921 1.956 . S
Li861 O923 1.961 . S
Li862 N907 1.990 . S
Li862 O920 1.961 . S
Li862 O922 1.956 . S
Li862 O923 1.970 . S
Li863 N913 1.990 . S
Li863 O921 1.961 . S
Li863 O922 1.970 . S
Li863 O923 1.956 . S
C864 C866 1.348 . S
C864 C867 1.356 . S
C864 O920 1.325 . S
N865 C868 1.314 . S
N865 C869 1.279 . S
C866 C864 1.348 . S
C866 C868 1.353 . S
C866 H924 0.929 . S
C867 C864 1.356 . S
C867 C869 1.358 . S
C867 H925 0.930 . S
C868 N865 1.314 . S
C868 C866 1.353 . S
C868 H926 0.930 . S
C869 N865 1.279 . S
C869 C867 1.358 . S
C869 H927 0.930 . S
C870 C873 1.348 . S
C870 C874 1.356 . S
C870 O921 1.325 . S
C871 N872 1.279 . S
C871 C874 1.358 . S
C871 H928 0.930 . S
N872 C871 1.279 . S
N872 C875 1.314 . S
C873 C870 1.348 . S
C873 C875 1.353 . S
C873 H929 0.929 . S
C874 C870 1.356 . S
C874 C871 1.358 . S
C874 H930 0.930 . S
C875 N872 1.314 . S
C875 C873 1.353 . S
C875 H931 0.930 . S
C876 N877 1.314 . S
C876 C881 1.353 . S
C876 H882 0.930 . S
N877 Li860 1.990 . S
N877 C876 1.314 . S
N877 C879 1.279 . S
C878 C879 1.358 . S
C878 C880 1.356 . S
C878 H932 0.930 . S
C879 N877 1.279 . S
C879 C878 1.358 . S
C879 H883 0.930 . S
C880 C878 1.356 . S
C880 C881 1.348 . S
C881 C876 1.353 . S
C881 C880 1.348 . S
C881 H933 0.929 . S
H882 C876 0.930 . S
H883 C879 0.930 . S
C884 N885 1.314 . S
C884 C886 1.353 . S
C884 H890 0.930 . S
N885 Li861 1.990 . S
N885 C884 1.314 . S
N885 C888 1.279 . S
C886 C884 1.353 . S
C886 C889 1.348 . S
C886 H934 0.929 . S
C887 C888 1.358 . S
C887 C889 1.356 . S
C887 H935 0.930 . S
C888 N885 1.279 . S
C888 C887 1.358 . S
C888 H891 0.930 . S
C889 C886 1.348 . S
C889 C887 1.356 . S
H890 C884 0.930 . S
H891 C888 0.930 . S
C892 C894 1.348 . S
C892 C895 1.356 . S
C892 O922 1.325 . S
N893 C896 1.314 . S
N893 C897 1.279 . S
C894 C892 1.348 . S
C894 C896 1.353 . S
C894 H936 0.929 . S
C895 C892 1.356 . S
C895 C897 1.358 . S
C895 H937 0.930 . S
C896 N893 1.314 . S
C896 C894 1.353 . S
C896 H938 0.930 . S
C897 N893 1.279 . S
C897 C895 1.358 . S
C897 H939 0.930 . S
C898 C899 1.348 . S
C898 C900 1.356 . S
C898 O923 1.325 . S
C899 C898 1.348 . S
C899 C901 1.353 . S
C899 H940 0.929 . S
C900 C898 1.356 . S
C900 C902 1.358 . S
C900 H941 0.930 . S
C901 C899 1.353 . S
C901 N903 1.314 . S
C901 H942 0.930 . S
C902 C900 1.358 . S
C902 N903 1.279 . S
C902 H943 0.930 . S
N903 C901 1.314 . S
N903 C902 1.279 . S
C904 C906 1.353 . S
C904 N907 1.314 . S
C904 H910 0.930 . S
C905 N907 1.279 . S
C905 C908 1.358 . S
C905 H911 0.930 . S
C906 C904 1.353 . S
C906 C909 1.348 . S
C906 H944 0.929 . S
N907 Li862 1.990 . S
N907 C904 1.314 . S
N907 C905 1.279 . S
C908 C905 1.358 . S
C908 C909 1.356 . S
C908 H945 0.930 . S
C909 C906 1.348 . S
C909 C908 1.356 . S
H910 C904 0.930 . S
H911 C905 0.930 . S
C912 N913 1.314 . S
C912 C914 1.353 . S
C912 H918 0.930 . S
N913 Li863 1.990 . S
N913 C912 1.314 . S
N913 C916 1.279 . S
C914 C912 1.353 . S
C914 C917 1.348 . S
C914 H946 0.929 . S
C915 C916 1.358 . S
C915 C917 1.356 . S
C915 H947 0.930 . S
C916 N913 1.279 . S
C916 C915 1.358 . S
C916 H919 0.930 . S
C917 C914 1.348 . S
C917 C915 1.356 . S
H918 C912 0.930 . S
H919 C916 0.930 . S
O920 Li860 1.956 . S
O920 Li861 1.970 . S
O920 Li862 1.961 . S
O920 C864 1.325 . S
O921 Li860 1.970 . S
O921 Li861 1.956 . S
O921 Li863 1.961 . S
O921 C870 1.325 . S
O922 Li860 1.961 . S
O922 Li862 1.956 . S
O922 Li863 1.970 . S
O922 C892 1.325 . S
O923 Li861 1.961 . S
O923 Li862 1.970 . S
O923 Li863 1.956 . S
O923 C898 1.325 . S
H924 C866 0.929 . S
H925 C867 0.930 . S
H926 C868 0.930 . S
H927 C869 0.930 . S
H928 C871 0.930 . S
H929 C873 0.929 . S
H930 C874 0.930 . S
H931 C875 0.930 . S
H932 C878 0.930 . S
H933 C881 0.929 . S
H934 C886 0.929 . S
H935 C887 0.930 . S
H936 C894 0.929 . S
H937 C895 0.930 . S
H938 C896 0.930 . S
H939 C897 0.930 . S
H940 C899 0.929 . S
H941 C900 0.930 . S
H942 C901 0.930 . S
H943 C902 0.930 . S
H944 C906 0.929 . S
H945 C908 0.930 . S
H946 C914 0.929 . S
H947 C915 0.930 . S
Li948 N965 1.990 . S
Li948 O1008 1.956 . S
Li948 O1009 1.970 . S
Li948 O1010 1.961 . S
Li949 N973 1.990 . S
Li949 O1008 1.970 . S
Li949 O1009 1.956 . S
Li949 O1011 1.961 . S
Li950 N995 1.990 . S
Li950 O1008 1.961 . S
Li950 O1010 1.956 . S
Li950 O1011 1.970 . S
Li951 N1001 1.990 . S
Li951 O1009 1.961 . S
Li951 O1010 1.970 . S
Li951 O1011 1.956 . S
C952 C954 1.348 . S
C952 C955 1.356 . S
C952 O1008 1.325 . S
N953 C956 1.314 . S
N953 C957 1.279 . S
C954 C952 1.348 . S
C954 C956 1.353 . S
C954 H1012 0.929 . S
C955 C952 1.356 . S
C955 C957 1.358 . S
C955 H1013 0.930 . S
C956 N953 1.314 . S
C956 C954 1.353 . S
C956 H1014 0.930 . S
C957 N953 1.279 . S
C957 C955 1.358 . S
C957 H1015 0.930 . S
C958 C961 1.348 . S
C958 C962 1.356 . S
C958 O1009 1.325 . S
C959 N960 1.279 . S
C959 C962 1.358 . S
C959 H1016 0.930 . S
N960 C959 1.279 . S
N960 C963 1.314 . S
C961 C958 1.348 . S
C961 C963 1.353 . S
C961 H1017 0.929 . S
C962 C958 1.356 . S
C962 C959 1.358 . S
C962 H1018 0.930 . S
C963 N960 1.314 . S
C963 C961 1.353 . S
C963 H1019 0.930 . S
C964 N965 1.314 . S
C964 C969 1.353 . S
C964 H970 0.930 . S
N965 Li948 1.990 . S
N965 C964 1.314 . S
N965 C967 1.279 . S
C966 C967 1.358 . S
C966 C968 1.356 . S
C966 H1020 0.930 . S
C967 N965 1.279 . S
C967 C966 1.358 . S
C967 H971 0.930 . S
C968 C966 1.356 . S
C968 C969 1.348 . S
C969 C964 1.353 . S
C969 C968 1.348 . S
C969 H1021 0.929 . S
H970 C964 0.930 . S
H971 C967 0.930 . S
C972 N973 1.314 . S
C972 C974 1.353 . S
C972 H978 0.930 . S
N973 Li949 1.990 . S
N973 C972 1.314 . S
N973 C976 1.279 . S
C974 C972 1.353 . S
C974 C977 1.348 . S
C974 H1022 0.929 . S
C975 C976 1.358 . S
C975 C977 1.356 . S
C975 H1023 0.930 . S
C976 N973 1.279 . S
C976 C975 1.358 . S
C976 H979 0.930 . S
C977 C974 1.348 . S
C977 C975 1.356 . S
H978 C972 0.930 . S
H979 C976 0.930 . S
C980 C982 1.348 . S
C980 C983 1.356 . S
C980 O1010 1.325 . S
N981 C984 1.314 . S
N981 C985 1.279 . S
C982 C980 1.348 . S
C982 C984 1.353 . S
C982 H1024 0.929 . S
C983 C980 1.356 . S
C983 C985 1.358 . S
C983 H1025 0.930 . S
C984 N981 1.314 . S
C984 C982 1.353 . S
C984 H1026 0.930 . S
C985 N981 1.279 . S
C985 C983 1.358 . S
C985 H1027 0.930 . S
C986 C987 1.348 . S
C986 C988 1.356 . S
C986 O1011 1.325 . S
C987 C986 1.348 . S
C987 C989 1.353 . S
C987 H1028 0.929 . S
C988 C986 1.356 . S
C988 C990 1.358 . S
C988 H1029 0.930 . S
C989 C987 1.353 . S
C989 N991 1.314 . S
C989 H1030 0.930 . S
C990 C988 1.358 . S
C990 N991 1.279 . S
C990 H1031 0.930 . S
N991 C989 1.314 . S
N991 C990 1.279 . S
C992 C994 1.353 . S
C992 N995 1.314 . S
C992 H998 0.930 . S
C993 N995 1.279 . S
C993 C996 1.358 . S
C993 H999 0.930 . S
C994 C992 1.353 . S
C994 C997 1.348 . S
C994 H1032 0.929 . S
N995 Li950 1.990 . S
N995 C992 1.314 . S
N995 C993 1.279 . S
C996 C993 1.358 . S
C996 C997 1.356 . S
C996 H1033 0.930 . S
C997 C994 1.348 . S
C997 C996 1.356 . S
H998 C992 0.930 . S
H999 C993 0.930 . S
C1000 N1001 1.314 . S
C1000 C1002 1.353 . S
C1000 H1006 0.930 . S
N1001 Li951 1.990 . S
N1001 C1000 1.314 . S
N1001 C1004 1.279 . S
C1002 C1000 1.353 . S
C1002 C1005 1.348 . S
C1002 H1034 0.929 . S
C1003 C1004 1.358 . S
C1003 C1005 1.356 . S
C1003 H1035 0.930 . S
C1004 N1001 1.279 . S
C1004 C1003 1.358 . S
C1004 H1007 0.930 . S
C1005 C1002 1.348 . S
C1005 C1003 1.356 . S
H1006 C1000 0.930 . S
H1007 C1004 0.930 . S
O1008 Li948 1.956 . S
O1008 Li949 1.970 . S
O1008 Li950 1.961 . S
O1008 C952 1.325 . S
O1009 Li948 1.970 . S
O1009 Li949 1.956 . S
O1009 Li951 1.961 . S
O1009 C958 1.325 . S
O1010 Li948 1.961 . S
O1010 Li950 1.956 . S
O1010 Li951 1.970 . S
O1010 C980 1.325 . S
O1011 Li949 1.961 . S
O1011 Li950 1.970 . S
O1011 Li951 1.956 . S
O1011 C986 1.325 . S
H1012 C954 0.929 . S
H1013 C955 0.930 . S
H1014 C956 0.930 . S
H1015 C957 0.930 . S
H1016 C959 0.930 . S
H1017 C961 0.929 . S
H1018 C962 0.930 . S
H1019 C963 0.930 . S
H1020 C966 0.930 . S
H1021 C969 0.929 . S
H1022 C974 0.929 . S
H1023 C975 0.930 . S
H1024 C982 0.929 . S
H1025 C983 0.930 . S
H1026 C984 0.930 . S
H1027 C985 0.930 . S
H1028 C987 0.929 . S
H1029 C988 0.930 . S
H1030 C989 0.930 . S
H1031 C990 0.930 . S
H1032 C994 0.929 . S
H1033 C996 0.930 . S
H1034 C1002 0.929 . S
H1035 C1003 0.930 . S
Li1036 N1053 1.990 . S
Li1036 O1096 1.956 . S
Li1036 O1097 1.970 . S
Li1036 O1098 1.961 . S
Li1037 N1061 1.990 . S
Li1037 O1096 1.970 . S
Li1037 O1097 1.956 . S
Li1037 O1099 1.961 . S
Li1038 N1083 1.990 . S
Li1038 O1096 1.961 . S
Li1038 O1098 1.956 . S
Li1038 O1099 1.970 . S
Li1039 N1089 1.990 . S
Li1039 O1097 1.961 . S
Li1039 O1098 1.970 . S
Li1039 O1099 1.956 . S
C1040 C1042 1.348 . S
C1040 C1043 1.356 . S
C1040 O1096 1.325 . S
N1041 C1044 1.314 . S
N1041 C1045 1.279 . S
C1042 C1040 1.348 . S
C1042 C1044 1.353 . S
C1042 H1100 0.929 . S
C1043 C1040 1.356 . S
C1043 C1045 1.358 . S
C1043 H1101 0.930 . S
C1044 N1041 1.314 . S
C1044 C1042 1.353 . S
C1044 H1102 0.930 . S
C1045 N1041 1.279 . S
C1045 C1043 1.358 . S
C1045 H1103 0.930 . S
C1046 C1049 1.348 . S
C1046 C1050 1.356 . S
C1046 O1097 1.325 . S
C1047 N1048 1.279 . S
C1047 C1050 1.358 . S
C1047 H1104 0.930 . S
N1048 C1047 1.279 . S
N1048 C1051 1.314 . S
C1049 C1046 1.348 . S
C1049 C1051 1.353 . S
C1049 H1105 0.929 . S
C1050 C1046 1.356 . S
C1050 C1047 1.358 . S
C1050 H1106 0.930 . S
C1051 N1048 1.314 . S
C1051 C1049 1.353 . S
C1051 H1107 0.930 . S
C1052 N1053 1.314 . S
C1052 C1057 1.353 . S
C1052 H1058 0.930 . S
N1053 Li1036 1.990 . S
N1053 C1052 1.314 . S
N1053 C1055 1.279 . S
C1054 C1055 1.358 . S
C1054 C1056 1.356 . S
C1054 H1108 0.930 . S
C1055 N1053 1.279 . S
C1055 C1054 1.358 . S
C1055 H1059 0.930 . S
C1056 C1054 1.356 . S
C1056 C1057 1.348 . S
C1057 C1052 1.353 . S
C1057 C1056 1.348 . S
C1057 H1109 0.929 . S
H1058 C1052 0.930 . S
H1059 C1055 0.930 . S
C1060 N1061 1.314 . S
C1060 C1062 1.353 . S
C1060 H1066 0.930 . S
N1061 Li1037 1.990 . S
N1061 C1060 1.314 . S
N1061 C1064 1.279 . S
C1062 C1060 1.353 . S
C1062 C1065 1.348 . S
C1062 H1110 0.929 . S
C1063 C1064 1.358 . S
C1063 C1065 1.356 . S
C1063 H1111 0.930 . S
C1064 N1061 1.279 . S
C1064 C1063 1.358 . S
C1064 H1067 0.930 . S
C1065 C1062 1.348 . S
C1065 C1063 1.356 . S
H1066 C1060 0.930 . S
H1067 C1064 0.930 . S
C1068 C1070 1.348 . S
C1068 C1071 1.356 . S
C1068 O1098 1.325 . S
N1069 C1072 1.314 . S
N1069 C1073 1.279 . S
C1070 C1068 1.348 . S
C1070 C1072 1.353 . S
C1070 H1112 0.929 . S
C1071 C1068 1.356 . S
C1071 C1073 1.358 . S
C1071 H1113 0.930 . S
C1072 N1069 1.314 . S
C1072 C1070 1.353 . S
C1072 H1114 0.930 . S
C1073 N1069 1.279 . S
C1073 C1071 1.358 . S
C1073 H1115 0.930 . S
C1074 C1075 1.348 . S
C1074 C1076 1.356 . S
C1074 O1099 1.325 . S
C1075 C1074 1.348 . S
C1075 C1077 1.353 . S
C1075 H1116 0.929 . S
C1076 C1074 1.356 . S
C1076 C1078 1.358 . S
C1076 H1117 0.930 . S
C1077 C1075 1.353 . S
C1077 N1079 1.314 . S
C1077 H1118 0.930 . S
C1078 C1076 1.358 . S
C1078 N1079 1.279 . S
C1078 H1119 0.930 . S
N1079 C1077 1.314 . S
N1079 C1078 1.279 . S
C1080 C1082 1.353 . S
C1080 N1083 1.314 . S
C1080 H1086 0.930 . S
C1081 N1083 1.279 . S
C1081 C1084 1.358 . S
C1081 H1087 0.930 . S
C1082 C1080 1.353 . S
C1082 C1085 1.348 . S
C1082 H1120 0.929 . S
N1083 Li1038 1.990 . S
N1083 C1080 1.314 . S
N1083 C1081 1.279 . S
C1084 C1081 1.358 . S
C1084 C1085 1.356 . S
C1084 H1121 0.930 . S
C1085 C1082 1.348 . S
C1085 C1084 1.356 . S
H1086 C1080 0.930 . S
H1087 C1081 0.930 . S
C1088 N1089 1.314 . S
C1088 C1090 1.353 . S
C1088 H1094 0.930 . S
N1089 Li1039 1.990 . S
N1089 C1088 1.314 . S
N1089 C1092 1.279 . S
C1090 C1088 1.353 . S
C1090 C1093 1.348 . S
C1090 H1122 0.929 . S
C1091 C1092 1.358 . S
C1091 C1093 1.356 . S
C1091 H1123 0.930 . S
C1092 N1089 1.279 . S
C1092 C1091 1.358 . S
C1092 H1095 0.930 . S
C1093 C1090 1.348 . S
C1093 C1091 1.356 . S
H1094 C1088 0.930 . S
H1095 C1092 0.930 . S
O1096 Li1036 1.956 . S
O1096 Li1037 1.970 . S
O1096 Li1038 1.961 . S
O1096 C1040 1.325 . S
O1097 Li1036 1.970 . S
O1097 Li1037 1.956 . S
O1097 Li1039 1.961 . S
O1097 C1046 1.325 . S
O1098 Li1036 1.961 . S
O1098 Li1038 1.956 . S
O1098 Li1039 1.970 . S
O1098 C1068 1.325 . S
O1099 Li1037 1.961 . S
O1099 Li1038 1.970 . S
O1099 Li1039 1.956 . S
O1099 C1074 1.325 . S
H1100 C1042 0.929 . S
H1101 C1043 0.930 . S
H1102 C1044 0.930 . S
H1103 C1045 0.930 . S
H1104 C1047 0.930 . S
H1105 C1049 0.929 . S
H1106 C1050 0.930 . S
H1107 C1051 0.930 . S
H1108 C1054 0.930 . S
H1109 C1057 0.929 . S
H1110 C1062 0.929 . S
H1111 C1063 0.930 . S
H1112 C1070 0.929 . S
H1113 C1071 0.930 . S
H1114 C1072 0.930 . S
H1115 C1073 0.930 . S
H1116 C1075 0.929 . S
H1117 C1076 0.930 . S
H1118 C1077 0.930 . S
H1119 C1078 0.930 . S
H1120 C1082 0.929 . S
H1121 C1084 0.930 . S
H1122 C1090 0.929 . S
H1123 C1091 0.930 . S
Li1124 N1141 1.990 . S
Li1124 O1184 1.956 . S
Li1124 O1185 1.970 . S
Li1124 O1186 1.961 . S
Li1125 N1149 1.990 . S
Li1125 O1184 1.970 . S
Li1125 O1185 1.956 . S
Li1125 O1187 1.961 . S
Li1126 N1171 1.990 . S
Li1126 O1184 1.961 . S
Li1126 O1186 1.956 . S
Li1126 O1187 1.970 . S
Li1127 N1177 1.990 . S
Li1127 O1185 1.961 . S
Li1127 O1186 1.970 . S
Li1127 O1187 1.956 . S
C1128 C1130 1.348 . S
C1128 C1131 1.356 . S
C1128 O1184 1.325 . S
N1129 C1132 1.314 . S
N1129 C1133 1.279 . S
C1130 C1128 1.348 . S
C1130 C1132 1.353 . S
C1130 H1188 0.929 . S
C1131 C1128 1.356 . S
C1131 C1133 1.358 . S
C1131 H1189 0.930 . S
C1132 N1129 1.314 . S
C1132 C1130 1.353 . S
C1132 H1190 0.930 . S
C1133 N1129 1.279 . S
C1133 C1131 1.358 . S
C1133 H1191 0.930 . S
C1134 C1137 1.348 . S
C1134 C1138 1.356 . S
C1134 O1185 1.325 . S
C1135 N1136 1.279 . S
C1135 C1138 1.358 . S
C1135 H1192 0.930 . S
N1136 C1135 1.279 . S
N1136 C1139 1.314 . S
C1137 C1134 1.348 . S
C1137 C1139 1.353 . S
C1137 H1193 0.929 . S
C1138 C1134 1.356 . S
C1138 C1135 1.358 . S
C1138 H1194 0.930 . S
C1139 N1136 1.314 . S
C1139 C1137 1.353 . S
C1139 H1195 0.930 . S
C1140 N1141 1.314 . S
C1140 C1145 1.353 . S
C1140 H1146 0.930 . S
N1141 Li1124 1.990 . S
N1141 C1140 1.314 . S
N1141 C1143 1.279 . S
C1142 C1143 1.358 . S
C1142 C1144 1.356 . S
C1142 H1196 0.930 . S
C1143 N1141 1.279 . S
C1143 C1142 1.358 . S
C1143 H1147 0.930 . S
C1144 C1142 1.356 . S
C1144 C1145 1.348 . S
C1145 C1140 1.353 . S
C1145 C1144 1.348 . S
C1145 H1197 0.929 . S
H1146 C1140 0.930 . S
H1147 C1143 0.930 . S
C1148 N1149 1.314 . S
C1148 C1150 1.353 . S
C1148 H1154 0.930 . S
N1149 Li1125 1.990 . S
N1149 C1148 1.314 . S
N1149 C1152 1.279 . S
C1150 C1148 1.353 . S
C1150 C1153 1.348 . S
C1150 H1198 0.929 . S
C1151 C1152 1.358 . S
C1151 C1153 1.356 . S
C1151 H1199 0.930 . S
C1152 N1149 1.279 . S
C1152 C1151 1.358 . S
C1152 H1155 0.930 . S
C1153 C1150 1.348 . S
C1153 C1151 1.356 . S
H1154 C1148 0.930 . S
H1155 C1152 0.930 . S
C1156 C1158 1.348 . S
C1156 C1159 1.356 . S
C1156 O1186 1.325 . S
N1157 C1160 1.314 . S
N1157 C1161 1.279 . S
C1158 C1156 1.348 . S
C1158 C1160 1.353 . S
C1158 H1200 0.929 . S
C1159 C1156 1.356 . S
C1159 C1161 1.358 . S
C1159 H1201 0.930 . S
C1160 N1157 1.314 . S
C1160 C1158 1.353 . S
C1160 H1202 0.930 . S
C1161 N1157 1.279 . S
C1161 C1159 1.358 . S
C1161 H1203 0.930 . S
C1162 C1163 1.348 . S
C1162 C1164 1.356 . S
C1162 O1187 1.325 . S
C1163 C1162 1.348 . S
C1163 C1165 1.353 . S
C1163 H1204 0.929 . S
C1164 C1162 1.356 . S
C1164 C1166 1.358 . S
C1164 H1205 0.930 . S
C1165 C1163 1.353 . S
C1165 N1167 1.314 . S
C1165 H1206 0.930 . S
C1166 C1164 1.358 . S
C1166 N1167 1.279 . S
C1166 H1207 0.930 . S
N1167 C1165 1.314 . S
N1167 C1166 1.279 . S
C1168 C1170 1.353 . S
C1168 N1171 1.314 . S
C1168 H1174 0.930 . S
C1169 N1171 1.279 . S
C1169 C1172 1.358 . S
C1169 H1175 0.930 . S
C1170 C1168 1.353 . S
C1170 C1173 1.348 . S
C1170 H1208 0.929 . S
N1171 Li1126 1.990 . S
N1171 C1168 1.314 . S
N1171 C1169 1.279 . S
C1172 C1169 1.358 . S
C1172 C1173 1.356 . S
C1172 H1209 0.930 . S
C1173 C1170 1.348 . S
C1173 C1172 1.356 . S
H1174 C1168 0.930 . S
H1175 C1169 0.930 . S
C1176 N1177 1.314 . S
C1176 C1178 1.353 . S
C1176 H1182 0.930 . S
N1177 Li1127 1.990 . S
N1177 C1176 1.314 . S
N1177 C1180 1.279 . S
C1178 C1176 1.353 . S
C1178 C1181 1.348 . S
C1178 H1210 0.929 . S
C1179 C1180 1.358 . S
C1179 C1181 1.356 . S
C1179 H1211 0.930 . S
C1180 N1177 1.279 . S
C1180 C1179 1.358 . S
C1180 H1183 0.930 . S
C1181 C1178 1.348 . S
C1181 C1179 1.356 . S
H1182 C1176 0.930 . S
H1183 C1180 0.930 . S
O1184 Li1124 1.956 . S
O1184 Li1125 1.970 . S
O1184 Li1126 1.961 . S
O1184 C1128 1.325 . S
O1185 Li1124 1.970 . S
O1185 Li1125 1.956 . S
O1185 Li1127 1.961 . S
O1185 C1134 1.325 . S
O1186 Li1124 1.961 . S
O1186 Li1126 1.956 . S
O1186 Li1127 1.970 . S
O1186 C1156 1.325 . S
O1187 Li1125 1.961 . S
O1187 Li1126 1.970 . S
O1187 Li1127 1.956 . S
O1187 C1162 1.325 . S
H1188 C1130 0.929 . S
H1189 C1131 0.930 . S
H1190 C1132 0.930 . S
H1191 C1133 0.930 . S
H1192 C1135 0.930 . S
H1193 C1137 0.929 . S
H1194 C1138 0.930 . S
H1195 C1139 0.930 . S
H1196 C1142 0.930 . S
H1197 C1145 0.929 . S
H1198 C1150 0.929 . S
H1199 C1151 0.930 . S
H1200 C1158 0.929 . S
H1201 C1159 0.930 . S
H1202 C1160 0.930 . S
H1203 C1161 0.930 . S
H1204 C1163 0.929 . S
H1205 C1164 0.930 . S
H1206 C1165 0.930 . S
H1207 C1166 0.930 . S
H1208 C1170 0.929 . S
H1209 C1172 0.930 . S
H1210 C1178 0.929 . S
H1211 C1179 0.930 . S
H1212 C1230 0.951 . S
H1213 C1232 0.951 . S
H1214 C1234 0.950 . S
H1215 C1235 0.950 . S
H1216 C1237 0.950 . S
H1217 C1240 0.950 . S
H1218 C1241 0.950 . S
H1219 C1243 0.950 . S
H1220 C1244 0.950 . S
H1221 C1245 0.951 . S
H1222 C1247 0.951 . S
H1223 C1249 0.950 . S
H1224 C1250 0.950 . S
H1225 C1252 0.950 . S
H1226 C1255 0.950 . S
H1227 C1256 0.950 . S
H1228 C1258 0.950 . S
H1229 C1259 0.950 . S
C1230 H1212 0.951 . S
C1230 C1231 1.366 . S
C1230 C1232 1.388 . S
C1231 C1230 1.366 . S
C1231 C1235 1.385 . S
C1232 H1213 0.951 . S
C1232 C1230 1.388 . S
C1232 C1233 1.366 . S
C1233 C1232 1.366 . S
C1233 C1234 1.414 . S
C1233 C1236 1.499 . S
C1234 H1214 0.950 . S
C1234 C1233 1.414 . S
C1234 C1235 1.374 . S
C1235 H1215 0.950 . S
C1235 C1231 1.385 . S
C1235 C1234 1.374 . S
C1236 C1233 1.499 . S
C1236 C1237 1.373 . S
C1236 C1238 1.389 . S
C1237 H1216 0.950 . S
C1237 C1236 1.373 . S
C1237 C1253 1.377 . S
C1238 C1236 1.389 . S
C1238 C1239 1.524 . S
C1238 C1252 1.377 . S
C1239 C1238 1.524 . S
C1239 C1240 1.397 . S
C1239 C1244 1.363 . S
C1240 H1217 0.950 . S
C1240 C1239 1.397 . S
C1240 C1241 1.334 . S
C1241 H1218 0.950 . S
C1241 C1240 1.334 . S
C1241 C1242 1.287 . S
C1242 C1241 1.287 . S
C1242 C1243 1.524 . S
C1242 H1261 0.913 . S
C1243 H1219 0.950 . S
C1243 C1242 1.524 . S
C1243 C1244 1.415 . S
C1244 H1220 0.950 . S
C1244 C1239 1.363 . S
C1244 C1243 1.415 . S
C1245 H1221 0.951 . S
C1245 C1246 1.366 . S
C1245 C1247 1.388 . S
C1246 C1245 1.366 . S
C1246 C1250 1.385 . S
C1247 H1222 0.951 . S
C1247 C1245 1.388 . S
C1247 C1248 1.366 . S
C1248 C1247 1.366 . S
C1248 C1249 1.414 . S
C1248 C1251 1.499 . S
C1249 H1223 0.950 . S
C1249 C1248 1.414 . S
C1249 C1250 1.374 . S
C1250 H1224 0.950 . S
C1250 C1246 1.385 . S
C1250 C1249 1.374 . S
C1251 C1248 1.499 . S
C1251 C1252 1.373 . S
C1251 C1253 1.389 . S
C1252 H1225 0.950 . S
C1252 C1238 1.377 . S
C1252 C1251 1.373 . S
C1253 C1237 1.377 . S
C1253 C1251 1.389 . S
C1253 C1254 1.524 . S
C1254 C1253 1.524 . S
C1254 C1255 1.397 . S
C1254 C1259 1.363 . S
C1255 H1226 0.950 . S
C1255 C1254 1.397 . S
C1255 C1256 1.334 . S
C1256 H1227 0.950 . S
C1256 C1255 1.334 . S
C1256 C1257 1.287 . S
C1257 C1256 1.287 . S
C1257 C1258 1.524 . S
C1257 H1260 0.999 . S
C1258 H1228 0.950 . S
C1258 C1257 1.524 . S
C1258 C1259 1.415 . S
C1259 H1229 0.950 . S
C1259 C1254 1.363 . S
C1259 C1258 1.415 . S
H1260 C1257 0.999 . S
H1261 C1242 0.913 . S
H1262 C1280 0.951 . S
H1263 C1282 0.951 . S
H1264 C1284 0.950 . S
H1265 C1285 0.950 . S
H1266 C1287 0.950 . S
H1267 C1290 0.950 . S
H1268 C1291 0.950 . S
H1269 C1293 0.950 . S
H1270 C1294 0.950 . S
H1271 C1295 0.951 . S
H1272 C1297 0.951 . S
H1273 C1299 0.950 . S
H1274 C1300 0.950 . S
H1275 C1302 0.950 . S
H1276 C1305 0.950 . S
H1277 C1306 0.950 . S
H1278 C1308 0.950 . S
H1279 C1309 0.950 . S
C1280 H1262 0.951 . S
C1280 C1281 1.366 . S
C1280 C1282 1.388 . S
C1281 C1280 1.366 . S
C1281 C1285 1.385 . S
C1282 H1263 0.951 . S
C1282 C1280 1.388 . S
C1282 C1283 1.366 . S
C1283 C1282 1.366 . S
C1283 C1284 1.414 . S
C1283 C1286 1.499 . S
C1284 H1264 0.950 . S
C1284 C1283 1.414 . S
C1284 C1285 1.374 . S
C1285 H1265 0.950 . S
C1285 C1281 1.385 . S
C1285 C1284 1.374 . S
C1286 C1283 1.499 . S
C1286 C1287 1.373 . S
C1286 C1288 1.389 . S
C1287 H1266 0.950 . S
C1287 C1286 1.373 . S
C1287 C1303 1.377 . S
C1288 C1286 1.389 . S
C1288 C1289 1.524 . S
C1288 C1302 1.377 . S
C1289 C1288 1.524 . S
C1289 C1290 1.397 . S
C1289 C1294 1.363 . S
C1290 H1267 0.950 . S
C1290 C1289 1.397 . S
C1290 C1291 1.334 . S
C1291 H1268 0.950 . S
C1291 C1290 1.334 . S
C1291 C1292 1.287 . S
C1292 C1291 1.287 . S
C1292 C1293 1.524 . S
C1292 H1311 0.913 . S
C1293 H1269 0.950 . S
C1293 C1292 1.524 . S
C1293 C1294 1.415 . S
C1294 H1270 0.950 . S
C1294 C1289 1.363 . S
C1294 C1293 1.415 . S
C1295 H1271 0.951 . S
C1295 C1296 1.366 . S
C1295 C1297 1.388 . S
C1296 C1295 1.366 . S
C1296 C1300 1.385 . S
C1297 H1272 0.951 . S
C1297 C1295 1.388 . S
C1297 C1298 1.366 . S
C1298 C1297 1.366 . S
C1298 C1299 1.414 . S
C1298 C1301 1.499 . S
C1299 H1273 0.950 . S
C1299 C1298 1.414 . S
C1299 C1300 1.374 . S
C1300 H1274 0.950 . S
C1300 C1296 1.385 . S
C1300 C1299 1.374 . S
C1301 C1298 1.499 . S
C1301 C1302 1.373 . S
C1301 C1303 1.389 . S
C1302 H1275 0.950 . S
C1302 C1288 1.377 . S
C1302 C1301 1.373 . S
C1303 C1287 1.377 . S
C1303 C1301 1.389 . S
C1303 C1304 1.524 . S
C1304 C1303 1.524 . S
C1304 C1305 1.397 . S
C1304 C1309 1.363 . S
C1305 H1276 0.950 . S
C1305 C1304 1.397 . S
C1305 C1306 1.334 . S
C1306 H1277 0.950 . S
C1306 C1305 1.334 . S
C1306 C1307 1.287 . S
C1307 C1306 1.287 . S
C1307 C1308 1.524 . S
C1307 H1310 0.999 . S
C1308 H1278 0.950 . S
C1308 C1307 1.524 . S
C1308 C1309 1.415 . S
C1309 H1279 0.950 . S
C1309 C1304 1.363 . S
C1309 C1308 1.415 . S
H1310 C1307 0.999 . S
H1311 C1292 0.913 . S
H1312 C1330 0.951 . S
H1313 C1332 0.951 . S
H1314 C1334 0.950 . S
H1315 C1335 0.950 . S
H1316 C1337 0.950 . S
H1317 C1340 0.950 . S
H1318 C1341 0.950 . S
H1319 C1343 0.950 . S
H1320 C1344 0.950 . S
H1321 C1345 0.951 . S
H1322 C1347 0.951 . S
H1323 C1349 0.950 . S
H1324 C1350 0.950 . S
H1325 C1352 0.950 . S
H1326 C1355 0.950 . S
H1327 C1356 0.950 . S
H1328 C1358 0.950 . S
H1329 C1359 0.950 . S
C1330 H1312 0.951 . S
C1330 C1331 1.366 . S
C1330 C1332 1.388 . S
C1331 C1330 1.366 . S
C1331 C1335 1.385 . S
C1332 H1313 0.951 . S
C1332 C1330 1.388 . S
C1332 C1333 1.366 . S
C1333 C1332 1.366 . S
C1333 C1334 1.414 . S
C1333 C1336 1.499 . S
C1334 H1314 0.950 . S
C1334 C1333 1.414 . S
C1334 C1335 1.374 . S
C1335 H1315 0.950 . S
C1335 C1331 1.385 . S
C1335 C1334 1.374 . S
C1336 C1333 1.499 . S
C1336 C1337 1.373 . S
C1336 C1338 1.389 . S
C1337 H1316 0.950 . S
C1337 C1336 1.373 . S
C1337 C1353 1.377 . S
C1338 C1336 1.389 . S
C1338 C1339 1.524 . S
C1338 C1352 1.377 . S
C1339 C1338 1.524 . S
C1339 C1340 1.397 . S
C1339 C1344 1.363 . S
C1340 H1317 0.950 . S
C1340 C1339 1.397 . S
C1340 C1341 1.334 . S
C1341 H1318 0.950 . S
C1341 C1340 1.334 . S
C1341 C1342 1.287 . S
C1342 C1341 1.287 . S
C1342 C1343 1.524 . S
C1342 H1361 0.913 . S
C1343 H1319 0.950 . S
C1343 C1342 1.524 . S
C1343 C1344 1.415 . S
C1344 H1320 0.950 . S
C1344 C1339 1.363 . S
C1344 C1343 1.415 . S
C1345 H1321 0.951 . S
C1345 C1346 1.366 . S
C1345 C1347 1.388 . S
C1346 C1345 1.366 . S
C1346 C1350 1.385 . S
C1347 H1322 0.951 . S
C1347 C1345 1.388 . S
C1347 C1348 1.366 . S
C1348 C1347 1.366 . S
C1348 C1349 1.414 . S
C1348 C1351 1.499 . S
C1349 H1323 0.950 . S
C1349 C1348 1.414 . S
C1349 C1350 1.374 . S
C1350 H1324 0.950 . S
C1350 C1346 1.385 . S
C1350 C1349 1.374 . S
C1351 C1348 1.499 . S
C1351 C1352 1.373 . S
C1351 C1353 1.389 . S
C1352 H1325 0.950 . S
C1352 C1338 1.377 . S
C1352 C1351 1.373 . S
C1353 C1337 1.377 . S
C1353 C1351 1.389 . S
C1353 C1354 1.524 . S
C1354 C1353 1.524 . S
C1354 C1355 1.397 . S
C1354 C1359 1.363 . S
C1355 H1326 0.950 . S
C1355 C1354 1.397 . S
C1355 C1356 1.334 . S
C1356 H1327 0.950 . S
C1356 C1355 1.334 . S
C1356 C1357 1.287 . S
C1357 C1356 1.287 . S
C1357 C1358 1.524 . S
C1357 H1360 0.999 . S
C1358 H1328 0.950 . S
C1358 C1357 1.524 . S
C1358 C1359 1.415 . S
C1359 H1329 0.950 . S
C1359 C1354 1.363 . S
C1359 C1358 1.415 . S
H1360 C1357 0.999 . S
H1361 C1342 0.913 . S
H1362 C1380 0.951 . S
H1363 C1382 0.951 . S
H1364 C1384 0.950 . S
H1365 C1385 0.950 . S
H1366 C1387 0.950 . S
H1367 C1390 0.950 . S
H1368 C1391 0.950 . S
H1369 C1393 0.950 . S
H1370 C1394 0.950 . S
H1371 C1395 0.951 . S
H1372 C1397 0.951 . S
H1373 C1399 0.950 . S
H1374 C1400 0.950 . S
H1375 C1402 0.950 . S
H1376 C1405 0.950 . S
H1377 C1406 0.950 . S
H1378 C1408 0.950 . S
H1379 C1409 0.950 . S
C1380 H1362 0.951 . S
C1380 C1381 1.366 . S
C1380 C1382 1.388 . S
C1381 C1380 1.366 . S
C1381 C1385 1.385 . S
C1382 H1363 0.951 . S
C1382 C1380 1.388 . S
C1382 C1383 1.366 . S
C1383 C1382 1.366 . S
C1383 C1384 1.414 . S
C1383 C1386 1.499 . S
C1384 H1364 0.950 . S
C1384 C1383 1.414 . S
C1384 C1385 1.374 . S
C1385 H1365 0.950 . S
C1385 C1381 1.385 . S
C1385 C1384 1.374 . S
C1386 C1383 1.499 . S
C1386 C1387 1.373 . S
C1386 C1388 1.389 . S
C1387 H1366 0.950 . S
C1387 C1386 1.373 . S
C1387 C1403 1.377 . S
C1388 C1386 1.389 . S
C1388 C1389 1.524 . S
C1388 C1402 1.377 . S
C1389 C1388 1.524 . S
C1389 C1390 1.397 . S
C1389 C1394 1.363 . S
C1390 H1367 0.950 . S
C1390 C1389 1.397 . S
C1390 C1391 1.334 . S
C1391 H1368 0.950 . S
C1391 C1390 1.334 . S
C1391 C1392 1.287 . S
C1392 C1391 1.287 . S
C1392 C1393 1.524 . S
C1392 H1411 0.913 . S
C1393 H1369 0.950 . S
C1393 C1392 1.524 . S
C1393 C1394 1.415 . S
C1394 H1370 0.950 . S
C1394 C1389 1.363 . S
C1394 C1393 1.415 . S
C1395 H1371 0.951 . S
C1395 C1396 1.366 . S
C1395 C1397 1.388 . S
C1396 C1395 1.366 . S
C1396 C1400 1.385 . S
C1397 H1372 0.951 . S
C1397 C1395 1.388 . S
C1397 C1398 1.366 . S
C1398 C1397 1.366 . S
C1398 C1399 1.414 . S
C1398 C1401 1.499 . S
C1399 H1373 0.950 . S
C1399 C1398 1.414 . S
C1399 C1400 1.374 . S
C1400 H1374 0.950 . S
C1400 C1396 1.385 . S
C1400 C1399 1.374 . S
C1401 C1398 1.499 . S
C1401 C1402 1.373 . S
C1401 C1403 1.389 . S
C1402 H1375 0.950 . S
C1402 C1388 1.377 . S
C1402 C1401 1.373 . S
C1403 C1387 1.377 . S
C1403 C1401 1.389 . S
C1403 C1404 1.524 . S
C1404 C1403 1.524 . S
C1404 C1405 1.397 . S
C1404 C1409 1.363 . S
C1405 H1376 0.950 . S
C1405 C1404 1.397 . S
C1405 C1406 1.334 . S
C1406 H1377 0.950 . S
C1406 C1405 1.334 . S
C1406 C1407 1.287 . S
C1407 C1406 1.287 . S
C1407 C1408 1.524 . S
C1407 H1410 0.999 . S
C1408 H1378 0.950 . S
C1408 C1407 1.524 . S
C1408 C1409 1.415 . S
C1409 H1379 0.950 . S
C1409 C1404 1.363 . S
C1409 C1408 1.415 . S
H1410 C1407 0.999 . S
H1411 C1392 0.913 . S
H1412 C1430 0.951 . S
H1413 C1432 0.951 . S
H1414 C1434 0.950 . S
H1415 C1435 0.950 . S
H1416 C1437 0.950 . S
H1417 C1440 0.950 . S
H1418 C1441 0.950 . S
H1419 C1443 0.950 . S
H1420 C1444 0.950 . S
H1421 C1445 0.951 . S
H1422 C1447 0.951 . S
H1423 C1449 0.950 . S
H1424 C1450 0.950 . S
H1425 C1452 0.950 . S
H1426 C1455 0.950 . S
H1427 C1456 0.950 . S
H1428 C1458 0.950 . S
H1429 C1459 0.950 . S
C1430 H1412 0.951 . S
C1430 C1431 1.366 . S
C1430 C1432 1.388 . S
C1431 C1430 1.366 . S
C1431 C1435 1.385 . S
C1432 H1413 0.951 . S
C1432 C1430 1.388 . S
C1432 C1433 1.366 . S
C1433 C1432 1.366 . S
C1433 C1434 1.414 . S
C1433 C1436 1.499 . S
C1434 H1414 0.950 . S
C1434 C1433 1.414 . S
C1434 C1435 1.374 . S
C1435 H1415 0.950 . S
C1435 C1431 1.385 . S
C1435 C1434 1.374 . S
C1436 C1433 1.499 . S
C1436 C1437 1.373 . S
C1436 C1438 1.389 . S
C1437 H1416 0.950 . S
C1437 C1436 1.373 . S
C1437 C1453 1.377 . S
C1438 C1436 1.389 . S
C1438 C1439 1.524 . S
C1438 C1452 1.377 . S
C1439 C1438 1.524 . S
C1439 C1440 1.397 . S
C1439 C1444 1.363 . S
C1440 H1417 0.950 . S
C1440 C1439 1.397 . S
C1440 C1441 1.334 . S
C1441 H1418 0.950 . S
C1441 C1440 1.334 . S
C1441 C1442 1.287 . S
C1442 C1441 1.287 . S
C1442 C1443 1.524 . S
C1442 H1461 0.913 . S
C1443 H1419 0.950 . S
C1443 C1442 1.524 . S
C1443 C1444 1.415 . S
C1444 H1420 0.950 . S
C1444 C1439 1.363 . S
C1444 C1443 1.415 . S
C1445 H1421 0.951 . S
C1445 C1446 1.366 . S
C1445 C1447 1.388 . S
C1446 C1445 1.366 . S
C1446 C1450 1.385 . S
C1447 H1422 0.951 . S
C1447 C1445 1.388 . S
C1447 C1448 1.366 . S
C1448 C1447 1.366 . S
C1448 C1449 1.414 . S
C1448 C1451 1.499 . S
C1449 H1423 0.950 . S
C1449 C1448 1.414 . S
C1449 C1450 1.374 . S
C1450 H1424 0.950 . S
C1450 C1446 1.385 . S
C1450 C1449 1.374 . S
C1451 C1448 1.499 . S
C1451 C1452 1.373 . S
C1451 C1453 1.389 . S
C1452 H1425 0.950 . S
C1452 C1438 1.377 . S
C1452 C1451 1.373 . S
C1453 C1437 1.377 . S
C1453 C1451 1.389 . S
C1453 C1454 1.524 . S
C1454 C1453 1.524 . S
C1454 C1455 1.397 . S
C1454 C1459 1.363 . S
C1455 H1426 0.950 . S
C1455 C1454 1.397 . S
C1455 C1456 1.334 . S
C1456 H1427 0.950 . S
C1456 C1455 1.334 . S
C1456 C1457 1.287 . S
C1457 C1456 1.287 . S
C1457 C1458 1.524 . S
C1457 H1460 0.999 . S
C1458 H1428 0.950 . S
C1458 C1457 1.524 . S
C1458 C1459 1.415 . S
C1459 H1429 0.950 . S
C1459 C1454 1.363 . S
C1459 C1458 1.415 . S
H1460 C1457 0.999 . S
H1461 C1442 0.913 . S
H1462 C1480 0.951 . S
H1463 C1482 0.951 . S
H1464 C1484 0.950 . S
H1465 C1485 0.950 . S
H1466 C1487 0.950 . S
H1467 C1490 0.950 . S
H1468 C1491 0.950 . S
H1469 C1493 0.950 . S
H1470 C1494 0.950 . S
H1471 C1495 0.951 . S
H1472 C1497 0.951 . S
H1473 C1499 0.950 . S
H1474 C1500 0.950 . S
H1475 C1502 0.950 . S
H1476 C1505 0.950 . S
H1477 C1506 0.950 . S
H1478 C1508 0.950 . S
H1479 C1509 0.950 . S
C1480 H1462 0.951 . S
C1480 C1481 1.366 . S
C1480 C1482 1.388 . S
C1481 C1480 1.366 . S
C1481 C1485 1.385 . S
C1482 H1463 0.951 . S
C1482 C1480 1.388 . S
C1482 C1483 1.366 . S
C1483 C1482 1.366 . S
C1483 C1484 1.414 . S
C1483 C1486 1.499 . S
C1484 H1464 0.950 . S
C1484 C1483 1.414 . S
C1484 C1485 1.374 . S
C1485 H1465 0.950 . S
C1485 C1481 1.385 . S
C1485 C1484 1.374 . S
C1486 C1483 1.499 . S
C1486 C1487 1.373 . S
C1486 C1488 1.389 . S
C1487 H1466 0.950 . S
C1487 C1486 1.373 . S
C1487 C1503 1.377 . S
C1488 C1486 1.389 . S
C1488 C1489 1.524 . S
C1488 C1502 1.377 . S
C1489 C1488 1.524 . S
C1489 C1490 1.397 . S
C1489 C1494 1.363 . S
C1490 H1467 0.950 . S
C1490 C1489 1.397 . S
C1490 C1491 1.334 . S
C1491 H1468 0.950 . S
C1491 C1490 1.334 . S
C1491 C1492 1.287 . S
C1492 C1491 1.287 . S
C1492 C1493 1.524 . S
C1492 H1511 0.913 . S
C1493 H1469 0.950 . S
C1493 C1492 1.524 . S
C1493 C1494 1.415 . S
C1494 H1470 0.950 . S
C1494 C1489 1.363 . S
C1494 C1493 1.415 . S
C1495 H1471 0.951 . S
C1495 C1496 1.366 . S
C1495 C1497 1.388 . S
C1496 C1495 1.366 . S
C1496 C1500 1.385 . S
C1497 H1472 0.951 . S
C1497 C1495 1.388 . S
C1497 C1498 1.366 . S
C1498 C1497 1.366 . S
C1498 C1499 1.414 . S
C1498 C1501 1.499 . S
C1499 H1473 0.950 . S
C1499 C1498 1.414 . S
C1499 C1500 1.374 . S
C1500 H1474 0.950 . S
C1500 C1496 1.385 . S
C1500 C1499 1.374 . S
C1501 C1498 1.499 . S
C1501 C1502 1.373 . S
C1501 C1503 1.389 . S
C1502 H1475 0.950 . S
C1502 C1488 1.377 . S
C1502 C1501 1.373 . S
C1503 C1487 1.377 . S
C1503 C1501 1.389 . S
C1503 C1504 1.524 . S
C1504 C1503 1.524 . S
C1504 C1505 1.397 . S
C1504 C1509 1.363 . S
C1505 H1476 0.950 . S
C1505 C1504 1.397 . S
C1505 C1506 1.334 . S
C1506 H1477 0.950 . S
C1506 C1505 1.334 . S
C1506 C1507 1.287 . S
C1507 C1506 1.287 . S
C1507 C1508 1.524 . S
C1507 H1510 0.999 . S
C1508 H1478 0.950 . S
C1508 C1507 1.524 . S
C1508 C1509 1.415 . S
C1509 H1479 0.950 . S
C1509 C1504 1.363 . S
C1509 C1508 1.415 . S
H1510 C1507 0.999 . S
H1511 C1492 0.913 . S
H1512 C1530 0.951 . S
H1513 C1532 0.951 . S
H1514 C1534 0.950 . S
H1515 C1535 0.950 . S
H1516 C1537 0.950 . S
H1517 C1540 0.950 . S
H1518 C1541 0.950 . S
H1519 C1543 0.950 . S
H1520 C1544 0.950 . S
H1521 C1545 0.951 . S
H1522 C1547 0.951 . S
H1523 C1549 0.950 . S
H1524 C1550 0.950 . S
H1525 C1552 0.950 . S
H1526 C1555 0.950 . S
H1527 C1556 0.950 . S
H1528 C1558 0.950 . S
H1529 C1559 0.950 . S
C1530 H1512 0.951 . S
C1530 C1531 1.366 . S
C1530 C1532 1.388 . S
C1531 C1530 1.366 . S
C1531 C1535 1.385 . S
C1532 H1513 0.951 . S
C1532 C1530 1.388 . S
C1532 C1533 1.366 . S
C1533 C1532 1.366 . S
C1533 C1534 1.414 . S
C1533 C1536 1.499 . S
C1534 H1514 0.950 . S
C1534 C1533 1.414 . S
C1534 C1535 1.374 . S
C1535 H1515 0.950 . S
C1535 C1531 1.385 . S
C1535 C1534 1.374 . S
C1536 C1533 1.499 . S
C1536 C1537 1.373 . S
C1536 C1538 1.389 . S
C1537 H1516 0.950 . S
C1537 C1536 1.373 . S
C1537 C1553 1.377 . S
C1538 C1536 1.389 . S
C1538 C1539 1.524 . S
C1538 C1552 1.377 . S
C1539 C1538 1.524 . S
C1539 C1540 1.397 . S
C1539 C1544 1.363 . S
C1540 H1517 0.950 . S
C1540 C1539 1.397 . S
C1540 C1541 1.334 . S
C1541 H1518 0.950 . S
C1541 C1540 1.334 . S
C1541 C1542 1.287 . S
C1542 C1541 1.287 . S
C1542 C1543 1.524 . S
C1542 H1561 0.913 . S
C1543 H1519 0.950 . S
C1543 C1542 1.524 . S
C1543 C1544 1.415 . S
C1544 H1520 0.950 . S
C1544 C1539 1.363 . S
C1544 C1543 1.415 . S
C1545 H1521 0.951 . S
C1545 C1546 1.366 . S
C1545 C1547 1.388 . S
C1546 C1545 1.366 . S
C1546 C1550 1.385 . S
C1547 H1522 0.951 . S
C1547 C1545 1.388 . S
C1547 C1548 1.366 . S
C1548 C1547 1.366 . S
C1548 C1549 1.414 . S
C1548 C1551 1.499 . S
C1549 H1523 0.950 . S
C1549 C1548 1.414 . S
C1549 C1550 1.374 . S
C1550 H1524 0.950 . S
C1550 C1546 1.385 . S
C1550 C1549 1.374 . S
C1551 C1548 1.499 . S
C1551 C1552 1.373 . S
C1551 C1553 1.389 . S
C1552 H1525 0.950 . S
C1552 C1538 1.377 . S
C1552 C1551 1.373 . S
C1553 C1537 1.377 . S
C1553 C1551 1.389 . S
C1553 C1554 1.524 . S
C1554 C1553 1.524 . S
C1554 C1555 1.397 . S
C1554 C1559 1.363 . S
C1555 H1526 0.950 . S
C1555 C1554 1.397 . S
C1555 C1556 1.334 . S
C1556 H1527 0.950 . S
C1556 C1555 1.334 . S
C1556 C1557 1.287 . S
C1557 C1556 1.287 . S
C1557 C1558 1.524 . S
C1557 H1560 0.999 . S
C1558 H1528 0.950 . S
C1558 C1557 1.524 . S
C1558 C1559 1.415 . S
C1559 H1529 0.950 . S
C1559 C1554 1.363 . S
C1559 C1558 1.415 . S
H1560 C1557 0.999 . S
H1561 C1542 0.913 . S
H1562 C1580 0.951 . S
H1563 C1582 0.951 . S
H1564 C1584 0.950 . S
H1565 C1585 0.950 . S
H1566 C1587 0.950 . S
H1567 C1590 0.950 . S
H1568 C1591 0.950 . S
H1569 C1593 0.950 . S
H1570 C1594 0.950 . S
H1571 C1595 0.951 . S
H1572 C1597 0.951 . S
H1573 C1599 0.950 . S
H1574 C1600 0.950 . S
H1575 C1602 0.950 . S
H1576 C1605 0.950 . S
H1577 C1606 0.950 . S
H1578 C1608 0.950 . S
H1579 C1609 0.950 . S
C1580 H1562 0.951 . S
C1580 C1581 1.366 . S
C1580 C1582 1.388 . S
C1581 C1580 1.366 . S
C1581 C1585 1.385 . S
C1582 H1563 0.951 . S
C1582 C1580 1.388 . S
C1582 C1583 1.366 . S
C1583 C1582 1.366 . S
C1583 C1584 1.414 . S
C1583 C1586 1.499 . S
C1584 H1564 0.950 . S
C1584 C1583 1.414 . S
C1584 C1585 1.374 . S
C1585 H1565 0.950 . S
C1585 C1581 1.385 . S
C1585 C1584 1.374 . S
C1586 C1583 1.499 . S
C1586 C1587 1.373 . S
C1586 C1588 1.389 . S
C1587 H1566 0.950 . S
C1587 C1586 1.373 . S
C1587 C1603 1.377 . S
C1588 C1586 1.389 . S
C1588 C1589 1.524 . S
C1588 C1602 1.377 . S
C1589 C1588 1.524 . S
C1589 C1590 1.397 . S
C1589 C1594 1.363 . S
C1590 H1567 0.950 . S
C1590 C1589 1.397 . S
C1590 C1591 1.334 . S
C1591 H1568 0.950 . S
C1591 C1590 1.334 . S
C1591 C1592 1.287 . S
C1592 C1591 1.287 . S
C1592 C1593 1.524 . S
C1592 H1611 0.913 . S
C1593 H1569 0.950 . S
C1593 C1592 1.524 . S
C1593 C1594 1.415 . S
C1594 H1570 0.950 . S
C1594 C1589 1.363 . S
C1594 C1593 1.415 . S
C1595 H1571 0.951 . S
C1595 C1596 1.366 . S
C1595 C1597 1.388 . S
C1596 C1595 1.366 . S
C1596 C1600 1.385 . S
C1597 H1572 0.951 . S
C1597 C1595 1.388 . S
C1597 C1598 1.366 . S
C1598 C1597 1.366 . S
C1598 C1599 1.414 . S
C1598 C1601 1.499 . S
C1599 H1573 0.950 . S
C1599 C1598 1.414 . S
C1599 C1600 1.374 . S
C1600 H1574 0.950 . S
C1600 C1596 1.385 . S
C1600 C1599 1.374 . S
C1601 C1598 1.499 . S
C1601 C1602 1.373 . S
C1601 C1603 1.389 . S
C1602 H1575 0.950 . S
C1602 C1588 1.377 . S
C1602 C1601 1.373 . S
C1603 C1587 1.377 . S
C1603 C1601 1.389 . S
C1603 C1604 1.524 . S
C1604 C1603 1.524 . S
C1604 C1605 1.397 . S
C1604 C1609 1.363 . S
C1605 H1576 0.950 . S
C1605 C1604 1.397 . S
C1605 C1606 1.334 . S
C1606 H1577 0.950 . S
C1606 C1605 1.334 . S
C1606 C1607 1.287 . S
C1607 C1606 1.287 . S
C1607 C1608 1.524 . S
C1607 H1610 0.999 . S
C1608 H1578 0.950 . S
C1608 C1607 1.524 . S
C1608 C1609 1.415 . S
C1609 H1579 0.950 . S
C1609 C1604 1.363 . S
C1609 C1608 1.415 . S
H1610 C1607 0.999 . S
H1611 C1592 0.913 . S
H1612 C1630 0.951 . S
H1613 C1632 0.951 . S
H1614 C1634 0.950 . S
H1615 C1635 0.950 . S
H1616 C1637 0.950 . S
H1617 C1640 0.950 . S
H1618 C1641 0.950 . S
H1619 C1643 0.950 . S
H1620 C1644 0.950 . S
H1621 C1645 0.951 . S
H1622 C1647 0.951 . S
H1623 C1649 0.950 . S
H1624 C1650 0.950 . S
H1625 C1652 0.950 . S
H1626 C1655 0.950 . S
H1627 C1656 0.950 . S
H1628 C1658 0.950 . S
H1629 C1659 0.950 . S
C1630 H1612 0.951 . S
C1630 C1631 1.366 . S
C1630 C1632 1.388 . S
C1631 C1630 1.366 . S
C1631 C1635 1.385 . S
C1632 H1613 0.951 . S
C1632 C1630 1.388 . S
C1632 C1633 1.366 . S
C1633 C1632 1.366 . S
C1633 C1634 1.414 . S
C1633 C1636 1.499 . S
C1634 H1614 0.950 . S
C1634 C1633 1.414 . S
C1634 C1635 1.374 . S
C1635 H1615 0.950 . S
C1635 C1631 1.385 . S
C1635 C1634 1.374 . S
C1636 C1633 1.499 . S
C1636 C1637 1.373 . S
C1636 C1638 1.389 . S
C1637 H1616 0.950 . S
C1637 C1636 1.373 . S
C1637 C1653 1.377 . S
C1638 C1636 1.389 . S
C1638 C1639 1.524 . S
C1638 C1652 1.377 . S
C1639 C1638 1.524 . S
C1639 C1640 1.397 . S
C1639 C1644 1.363 . S
C1640 H1617 0.950 . S
C1640 C1639 1.397 . S
C1640 C1641 1.334 . S
C1641 H1618 0.950 . S
C1641 C1640 1.334 . S
C1641 C1642 1.287 . S
C1642 C1641 1.287 . S
C1642 C1643 1.524 . S
C1642 H1661 0.913 . S
C1643 H1619 0.950 . S
C1643 C1642 1.524 . S
C1643 C1644 1.415 . S
C1644 H1620 0.950 . S
C1644 C1639 1.363 . S
C1644 C1643 1.415 . S
C1645 H1621 0.951 . S
C1645 C1646 1.366 . S
C1645 C1647 1.388 . S
C1646 C1645 1.366 . S
C1646 C1650 1.385 . S
C1647 H1622 0.951 . S
C1647 C1645 1.388 . S
C1647 C1648 1.366 . S
C1648 C1647 1.366 . S
C1648 C1649 1.414 . S
C1648 C1651 1.499 . S
C1649 H1623 0.950 . S
C1649 C1648 1.414 . S
C1649 C1650 1.374 . S
C1650 H1624 0.950 . S
C1650 C1646 1.385 . S
C1650 C1649 1.374 . S
C1651 C1648 1.499 . S
C1651 C1652 1.373 . S
C1651 C1653 1.389 . S
C1652 H1625 0.950 . S
C1652 C1638 1.377 . S
C1652 C1651 1.373 . S
C1653 C1637 1.377 . S
C1653 C1651 1.389 . S
C1653 C1654 1.524 . S
C1654 C1653 1.524 . S
C1654 C1655 1.397 . S
C1654 C1659 1.363 . S
C1655 H1626 0.950 . S
C1655 C1654 1.397 . S
C1655 C1656 1.334 . S
C1656 H1627 0.950 . S
C1656 C1655 1.334 . S
C1656 C1657 1.287 . S
C1657 C1656 1.287 . S
C1657 C1658 1.524 . S
C1657 H1660 0.999 . S
C1658 H1628 0.950 . S
C1658 C1657 1.524 . S
C1658 C1659 1.415 . S
C1659 H1629 0.950 . S
C1659 C1654 1.363 . S
C1659 C1658 1.415 . S
H1660 C1657 0.999 . S
H1661 C1642 0.913 . S
H1662 C1680 0.951 . S
H1663 C1682 0.951 . S
H1664 C1684 0.950 . S
H1665 C1685 0.950 . S
H1666 C1687 0.950 . S
H1667 C1690 0.950 . S
H1668 C1691 0.950 . S
H1669 C1693 0.950 . S
H1670 C1694 0.950 . S
H1671 C1695 0.951 . S
H1672 C1697 0.951 . S
H1673 C1699 0.950 . S
H1674 C1700 0.950 . S
H1675 C1702 0.950 . S
H1676 C1705 0.950 . S
H1677 C1706 0.950 . S
H1678 C1708 0.950 . S
H1679 C1709 0.950 . S
C1680 H1662 0.951 . S
C1680 C1681 1.366 . S
C1680 C1682 1.388 . S
C1681 C1680 1.366 . S
C1681 C1685 1.385 . S
C1682 H1663 0.951 . S
C1682 C1680 1.388 . S
C1682 C1683 1.366 . S
C1683 C1682 1.366 . S
C1683 C1684 1.414 . S
C1683 C1686 1.499 . S
C1684 H1664 0.950 . S
C1684 C1683 1.414 . S
C1684 C1685 1.374 . S
C1685 H1665 0.950 . S
C1685 C1681 1.385 . S
C1685 C1684 1.374 . S
C1686 C1683 1.499 . S
C1686 C1687 1.373 . S
C1686 C1688 1.389 . S
C1687 H1666 0.950 . S
C1687 C1686 1.373 . S
C1687 C1703 1.377 . S
C1688 C1686 1.389 . S
C1688 C1689 1.524 . S
C1688 C1702 1.377 . S
C1689 C1688 1.524 . S
C1689 C1690 1.397 . S
C1689 C1694 1.363 . S
C1690 H1667 0.950 . S
C1690 C1689 1.397 . S
C1690 C1691 1.334 1_554 S
C1691 H1668 0.950 . S
C1691 C1690 1.334 1_556 S
C1691 C1692 1.287 . S
C1692 C1691 1.287 . S
C1692 C1693 1.524 1_556 S
C1692 H1711 0.913 . S
C1693 H1669 0.950 . S
C1693 C1692 1.524 1_554 S
C1693 C1694 1.415 . S
C1694 H1670 0.950 . S
C1694 C1689 1.363 . S
C1694 C1693 1.415 . S
C1695 H1671 0.951 . S
C1695 C1696 1.366 . S
C1695 C1697 1.388 . S
C1696 C1695 1.366 . S
C1696 C1700 1.385 . S
C1697 H1672 0.951 . S
C1697 C1695 1.388 . S
C1697 C1698 1.366 . S
C1698 C1697 1.366 . S
C1698 C1699 1.414 . S
C1698 C1701 1.499 . S
C1699 H1673 0.950 . S
C1699 C1698 1.414 . S
C1699 C1700 1.374 . S
C1700 H1674 0.950 . S
C1700 C1696 1.385 . S
C1700 C1699 1.374 . S
C1701 C1698 1.499 . S
C1701 C1702 1.373 . S
C1701 C1703 1.389 . S
C1702 H1675 0.950 . S
C1702 C1688 1.377 . S
C1702 C1701 1.373 . S
C1703 C1687 1.377 . S
C1703 C1701 1.389 . S
C1703 C1704 1.524 . S
C1704 C1703 1.524 . S
C1704 C1705 1.397 . S
C1704 C1709 1.363 . S
C1705 H1676 0.950 . S
C1705 C1704 1.397 . S
C1705 C1706 1.334 . S
C1706 H1677 0.950 . S
C1706 C1705 1.334 . S
C1706 C1707 1.287 . S
C1707 C1706 1.287 . S
C1707 C1708 1.524 . S
C1707 H1710 0.999 . S
C1708 H1678 0.950 . S
C1708 C1707 1.524 . S
C1708 C1709 1.415 . S
C1709 H1679 0.950 . S
C1709 C1704 1.363 . S
C1709 C1708 1.415 . S
H1710 C1707 0.999 . S
H1711 C1692 0.913 . S
H1712 C1730 0.951 . S
H1713 C1732 0.951 . S
H1714 C1734 0.950 . S
H1715 C1735 0.950 . S
H1716 C1737 0.950 . S
H1717 C1740 0.950 . S
H1718 C1741 0.950 . S
H1719 C1743 0.950 . S
H1720 C1744 0.950 . S
H1721 C1745 0.951 . S
H1722 C1747 0.951 . S
H1723 C1749 0.950 . S
H1724 C1750 0.950 . S
H1725 C1752 0.950 . S
H1726 C1755 0.950 . S
H1727 C1756 0.950 . S
H1728 C1758 0.950 . S
H1729 C1759 0.950 . S
C1730 H1712 0.951 . S
C1730 C1731 1.366 . S
C1730 C1732 1.388 . S
C1731 C1730 1.366 . S
C1731 C1735 1.385 . S
C1732 H1713 0.951 . S
C1732 C1730 1.388 . S
C1732 C1733 1.366 . S
C1733 C1732 1.366 . S
C1733 C1734 1.414 . S
C1733 C1736 1.499 . S
C1734 H1714 0.950 . S
C1734 C1733 1.414 . S
C1734 C1735 1.374 . S
C1735 H1715 0.950 . S
C1735 C1731 1.385 . S
C1735 C1734 1.374 . S
C1736 C1733 1.499 . S
C1736 C1737 1.373 . S
C1736 C1738 1.389 . S
C1737 H1716 0.950 . S
C1737 C1736 1.373 . S
C1737 C1753 1.377 . S
C1738 C1736 1.389 . S
C1738 C1739 1.524 . S
C1738 C1752 1.377 . S
C1739 C1738 1.524 . S
C1739 C1740 1.397 . S
C1739 C1744 1.363 . S
C1740 H1717 0.950 . S
C1740 C1739 1.397 . S
C1740 C1741 1.334 . S
C1741 H1718 0.950 . S
C1741 C1740 1.334 . S
C1741 C1742 1.287 . S
C1742 C1741 1.287 . S
C1742 C1743 1.524 . S
C1742 H1761 0.913 . S
C1743 H1719 0.950 . S
C1743 C1742 1.524 . S
C1743 C1744 1.415 . S
C1744 H1720 0.950 . S
C1744 C1739 1.363 . S
C1744 C1743 1.415 . S
C1745 H1721 0.951 . S
C1745 C1746 1.366 . S
C1745 C1747 1.388 . S
C1746 C1745 1.366 . S
C1746 C1750 1.385 . S
C1747 H1722 0.951 . S
C1747 C1745 1.388 . S
C1747 C1748 1.366 . S
C1748 C1747 1.366 . S
C1748 C1749 1.414 . S
C1748 C1751 1.499 . S
C1749 H1723 0.950 . S
C1749 C1748 1.414 . S
C1749 C1750 1.374 . S
C1750 H1724 0.950 . S
C1750 C1746 1.385 . S
C1750 C1749 1.374 . S
C1751 C1748 1.499 . S
C1751 C1752 1.373 . S
C1751 C1753 1.389 . S
C1752 H1725 0.950 . S
C1752 C1738 1.377 . S
C1752 C1751 1.373 . S
C1753 C1737 1.377 . S
C1753 C1751 1.389 . S
C1753 C1754 1.524 . S
C1754 C1753 1.524 . S
C1754 C1755 1.397 . S
C1754 C1759 1.363 . S
C1755 H1726 0.950 . S
C1755 C1754 1.397 . S
C1755 C1756 1.334 . S
C1756 H1727 0.950 . S
C1756 C1755 1.334 . S
C1756 C1757 1.287 . S
C1757 C1756 1.287 . S
C1757 C1758 1.524 . S
C1757 H1760 0.999 . S
C1758 H1728 0.950 . S
C1758 C1757 1.524 . S
C1758 C1759 1.415 . S
C1759 H1729 0.950 . S
C1759 C1754 1.363 . S
C1759 C1758 1.415 . S
H1760 C1757 0.999 . S
H1761 C1742 0.913 . S
H1762 C1780 0.951 . S
H1763 C1782 0.951 . S
H1764 C1784 0.950 . S
H1765 C1785 0.950 . S
H1766 C1787 0.950 . S
H1767 C1790 0.950 . S
H1768 C1791 0.950 . S
H1769 C1793 0.950 . S
H1770 C1794 0.950 . S
H1771 C1795 0.951 . S
H1772 C1797 0.951 . S
H1773 C1799 0.950 . S
H1774 C1800 0.950 . S
H1775 C1802 0.950 . S
H1776 C1805 0.950 . S
H1777 C1806 0.950 . S
H1778 C1808 0.950 . S
H1779 C1809 0.950 . S
C1780 H1762 0.951 . S
C1780 C1781 1.366 . S
C1780 C1782 1.388 . S
C1781 C1780 1.366 . S
C1781 C1785 1.385 . S
C1782 H1763 0.951 . S
C1782 C1780 1.388 . S
C1782 C1783 1.366 . S
C1783 C1782 1.366 . S
C1783 C1784 1.414 . S
C1783 C1786 1.499 . S
C1784 H1764 0.950 . S
C1784 C1783 1.414 . S
C1784 C1785 1.374 . S
C1785 H1765 0.950 . S
C1785 C1781 1.385 . S
C1785 C1784 1.374 . S
C1786 C1783 1.499 . S
C1786 C1787 1.373 . S
C1786 C1788 1.389 . S
C1787 H1766 0.950 . S
C1787 C1786 1.373 . S
C1787 C1803 1.377 . S
C1788 C1786 1.389 . S
C1788 C1789 1.524 . S
C1788 C1802 1.377 . S
C1789 C1788 1.524 . S
C1789 C1790 1.397 . S
C1789 C1794 1.363 . S
C1790 H1767 0.950 . S
C1790 C1789 1.397 . S
C1790 C1791 1.334 . S
C1791 H1768 0.950 . S
C1791 C1790 1.334 . S
C1791 C1792 1.287 . S
C1792 C1791 1.287 . S
C1792 C1793 1.524 . S
C1792 H1811 0.913 . S
C1793 H1769 0.950 . S
C1793 C1792 1.524 . S
C1793 C1794 1.415 . S
C1794 H1770 0.950 . S
C1794 C1789 1.363 . S
C1794 C1793 1.415 . S
C1795 H1771 0.951 . S
C1795 C1796 1.366 . S
C1795 C1797 1.388 . S
C1796 C1795 1.366 . S
C1796 C1800 1.385 . S
C1797 H1772 0.951 . S
C1797 C1795 1.388 . S
C1797 C1798 1.366 . S
C1798 C1797 1.366 . S
C1798 C1799 1.414 . S
C1798 C1801 1.499 . S
C1799 H1773 0.950 . S
C1799 C1798 1.414 . S
C1799 C1800 1.374 . S
C1800 H1774 0.950 . S
C1800 C1796 1.385 . S
C1800 C1799 1.374 . S
C1801 C1798 1.499 . S
C1801 C1802 1.373 . S
C1801 C1803 1.389 . S
C1802 H1775 0.950 . S
C1802 C1788 1.377 . S
C1802 C1801 1.373 . S
C1803 C1787 1.377 . S
C1803 C1801 1.389 . S
C1803 C1804 1.524 . S
C1804 C1803 1.524 . S
C1804 C1805 1.397 . S
C1804 C1809 1.363 . S
C1805 H1776 0.950 . S
C1805 C1804 1.397 . S
C1805 C1806 1.334 . S
C1806 H1777 0.950 . S
C1806 C1805 1.334 . S
C1806 C1807 1.287 . S
C1807 C1806 1.287 . S
C1807 C1808 1.524 . S
C1807 H1810 0.999 . S
C1808 H1778 0.950 . S
C1808 C1807 1.524 . S
C1808 C1809 1.415 . S
C1809 H1779 0.950 . S
C1809 C1804 1.363 . S
C1809 C1808 1.415 . S
H1810 C1807 0.999 . S
H1811 C1792 0.913 . S
H1812 C1830 0.951 . S
H1813 C1832 0.951 . S
H1814 C1834 0.950 . S
H1815 C1835 0.950 . S
H1816 C1837 0.950 . S
H1817 C1840 0.950 . S
H1818 C1841 0.950 . S
H1819 C1843 0.950 . S
H1820 C1844 0.950 . S
H1821 C1845 0.951 . S
H1822 C1847 0.951 . S
H1823 C1849 0.950 . S
H1824 C1850 0.950 . S
H1825 C1852 0.950 . S
H1826 C1855 0.950 . S
H1827 C1856 0.950 . S
H1828 C1858 0.950 . S
H1829 C1859 0.950 . S
C1830 H1812 0.951 . S
C1830 C1831 1.366 . S
C1830 C1832 1.388 . S
C1831 C1830 1.366 . S
C1831 C1835 1.385 . S
C1832 H1813 0.951 . S
C1832 C1830 1.388 . S
C1832 C1833 1.366 . S
C1833 C1832 1.366 . S
C1833 C1834 1.414 . S
C1833 C1836 1.499 . S
C1834 H1814 0.950 . S
C1834 C1833 1.414 . S
C1834 C1835 1.374 . S
C1835 H1815 0.950 . S
C1835 C1831 1.385 . S
C1835 C1834 1.374 . S
C1836 C1833 1.499 . S
C1836 C1837 1.373 . S
C1836 C1838 1.389 . S
C1837 H1816 0.950 . S
C1837 C1836 1.373 . S
C1837 C1853 1.377 . S
C1838 C1836 1.389 . S
C1838 C1839 1.524 . S
C1838 C1852 1.377 . S
C1839 C1838 1.524 . S
C1839 C1840 1.397 . S
C1839 C1844 1.363 . S
C1840 H1817 0.950 . S
C1840 C1839 1.397 . S
C1840 C1841 1.334 . S
C1841 H1818 0.950 . S
C1841 C1840 1.334 . S
C1841 C1842 1.287 . S
C1842 C1841 1.287 . S
C1842 C1843 1.524 . S
C1842 H1861 0.913 . S
C1843 H1819 0.950 . S
C1843 C1842 1.524 . S
C1843 C1844 1.415 . S
C1844 H1820 0.950 . S
C1844 C1839 1.363 . S
C1844 C1843 1.415 . S
C1845 H1821 0.951 . S
C1845 C1846 1.366 . S
C1845 C1847 1.388 . S
C1846 C1845 1.366 . S
C1846 C1850 1.385 . S
C1847 H1822 0.951 . S
C1847 C1845 1.388 . S
C1847 C1848 1.366 . S
C1848 C1847 1.366 . S
C1848 C1849 1.414 . S
C1848 C1851 1.499 . S
C1849 H1823 0.950 . S
C1849 C1848 1.414 . S
C1849 C1850 1.374 . S
C1850 H1824 0.950 . S
C1850 C1846 1.385 . S
C1850 C1849 1.374 . S
C1851 C1848 1.499 . S
C1851 C1852 1.373 . S
C1851 C1853 1.389 . S
C1852 H1825 0.950 . S
C1852 C1838 1.377 . S
C1852 C1851 1.373 . S
C1853 C1837 1.377 . S
C1853 C1851 1.389 . S
C1853 C1854 1.524 . S
C1854 C1853 1.524 . S
C1854 C1855 1.397 . S
C1854 C1859 1.363 . S
C1855 H1826 0.950 . S
C1855 C1854 1.397 . S
C1855 C1856 1.334 . S
C1856 H1827 0.950 . S
C1856 C1855 1.334 . S
C1856 C1857 1.287 . S
C1857 C1856 1.287 . S
C1857 C1858 1.524 . S
C1857 H1860 0.999 . S
C1858 H1828 0.950 . S
C1858 C1857 1.524 . S
C1858 C1859 1.415 . S
C1859 H1829 0.950 . S
C1859 C1854 1.363 . S
C1859 C1858 1.415 . S
H1860 C1857 0.999 . S
H1861 C1842 0.913 . S
H1862 C1880 0.951 . S
H1863 C1882 0.951 . S
H1864 C1884 0.950 . S
H1865 C1885 0.950 . S
H1866 C1887 0.950 . S
H1867 C1890 0.950 . S
H1868 C1891 0.950 . S
H1869 C1893 0.950 . S
H1870 C1894 0.950 . S
H1871 C1895 0.951 . S
H1872 C1897 0.951 . S
H1873 C1899 0.950 . S
H1874 C1900 0.950 . S
H1875 C1902 0.950 . S
H1876 C1905 0.950 . S
H1877 C1906 0.950 . S
H1878 C1908 0.950 . S
H1879 C1909 0.950 . S
C1880 H1862 0.951 . S
C1880 C1881 1.366 . S
C1880 C1882 1.388 . S
C1881 C1880 1.366 . S
C1881 C1885 1.385 . S
C1882 H1863 0.951 . S
C1882 C1880 1.388 . S
C1882 C1883 1.366 . S
C1883 C1882 1.366 . S
C1883 C1884 1.414 . S
C1883 C1886 1.499 . S
C1884 H1864 0.950 . S
C1884 C1883 1.414 . S
C1884 C1885 1.374 . S
C1885 H1865 0.950 . S
C1885 C1881 1.385 . S
C1885 C1884 1.374 . S
C1886 C1883 1.499 . S
C1886 C1887 1.373 . S
C1886 C1888 1.389 . S
C1887 H1866 0.950 . S
C1887 C1886 1.373 . S
C1887 C1903 1.377 . S
C1888 C1886 1.389 . S
C1888 C1889 1.524 . S
C1888 C1902 1.377 . S
C1889 C1888 1.524 . S
C1889 C1890 1.397 . S
C1889 C1894 1.363 . S
C1890 H1867 0.950 . S
C1890 C1889 1.397 . S
C1890 C1891 1.334 . S
C1891 H1868 0.950 . S
C1891 C1890 1.334 . S
C1891 C1892 1.287 . S
C1892 C1891 1.287 . S
C1892 C1893 1.524 . S
C1892 H1911 0.913 . S
C1893 H1869 0.950 . S
C1893 C1892 1.524 . S
C1893 C1894 1.415 . S
C1894 H1870 0.950 . S
C1894 C1889 1.363 . S
C1894 C1893 1.415 . S
C1895 H1871 0.951 . S
C1895 C1896 1.366 . S
C1895 C1897 1.388 . S
C1896 C1895 1.366 . S
C1896 C1900 1.385 . S
C1897 H1872 0.951 . S
C1897 C1895 1.388 . S
C1897 C1898 1.366 . S
C1898 C1897 1.366 . S
C1898 C1899 1.414 . S
C1898 C1901 1.499 . S
C1899 H1873 0.950 . S
C1899 C1898 1.414 . S
C1899 C1900 1.374 . S
C1900 H1874 0.950 . S
C1900 C1896 1.385 . S
C1900 C1899 1.374 . S
C1901 C1898 1.499 . S
C1901 C1902 1.373 . S
C1901 C1903 1.389 . S
C1902 H1875 0.950 . S
C1902 C1888 1.377 . S
C1902 C1901 1.373 . S
C1903 C1887 1.377 . S
C1903 C1901 1.389 . S
C1903 C1904 1.524 . S
C1904 C1903 1.524 . S
C1904 C1905 1.397 . S
C1904 C1909 1.363 . S
C1905 H1876 0.950 . S
C1905 C1904 1.397 . S
C1905 C1906 1.334 . S
C1906 H1877 0.950 . S
C1906 C1905 1.334 . S
C1906 C1907 1.287 . S
C1907 C1906 1.287 . S
C1907 C1908 1.524 . S
C1907 H1910 0.999 . S
C1908 H1878 0.950 . S
C1908 C1907 1.524 . S
C1908 C1909 1.415 . S
C1909 H1879 0.950 . S
C1909 C1904 1.363 . S
C1909 C1908 1.415 . S
H1910 C1907 0.999 . S
H1911 C1892 0.913 . S
H1912 C1930 0.951 . S
H1913 C1932 0.951 . S
H1914 C1934 0.950 . S
H1915 C1935 0.950 . S
H1916 C1937 0.950 . S
H1917 C1940 0.950 . S
H1918 C1941 0.950 . S
H1919 C1943 0.950 . S
H1920 C1944 0.950 . S
H1921 C1945 0.951 . S
H1922 C1947 0.951 . S
H1923 C1949 0.950 . S
H1924 C1950 0.950 . S
H1925 C1952 0.950 . S
H1926 C1955 0.950 . S
H1927 C1956 0.950 . S
H1928 C1958 0.950 . S
H1929 C1959 0.950 . S
C1930 H1912 0.951 . S
C1930 C1931 1.366 . S
C1930 C1932 1.388 . S
C1931 C1930 1.366 . S
C1931 C1935 1.385 . S
C1932 H1913 0.951 . S
C1932 C1930 1.388 . S
C1932 C1933 1.366 . S
C1933 C1932 1.366 . S
C1933 C1934 1.414 . S
C1933 C1936 1.499 . S
C1934 H1914 0.950 . S
C1934 C1933 1.414 . S
C1934 C1935 1.374 . S
C1935 H1915 0.950 . S
C1935 C1931 1.385 . S
C1935 C1934 1.374 . S
C1936 C1933 1.499 . S
C1936 C1937 1.373 . S
C1936 C1938 1.389 . S
C1937 H1916 0.950 . S
C1937 C1936 1.373 . S
C1937 C1953 1.377 . S
C1938 C1936 1.389 . S
C1938 C1939 1.524 . S
C1938 C1952 1.377 . S
C1939 C1938 1.524 . S
C1939 C1940 1.397 . S
C1939 C1944 1.363 . S
C1940 H1917 0.950 . S
C1940 C1939 1.397 . S
C1940 C1941 1.334 . S
C1941 H1918 0.950 . S
C1941 C1940 1.334 . S
C1941 C1942 1.287 . S
C1942 C1941 1.287 . S
C1942 C1943 1.524 . S
C1942 H1961 0.913 . S
C1943 H1919 0.950 . S
C1943 C1942 1.524 . S
C1943 C1944 1.415 . S
C1944 H1920 0.950 . S
C1944 C1939 1.363 . S
C1944 C1943 1.415 . S
C1945 H1921 0.951 . S
C1945 C1946 1.366 . S
C1945 C1947 1.388 . S
C1946 C1945 1.366 . S
C1946 C1950 1.385 . S
C1947 H1922 0.951 . S
C1947 C1945 1.388 . S
C1947 C1948 1.366 . S
C1948 C1947 1.366 . S
C1948 C1949 1.414 . S
C1948 C1951 1.499 . S
C1949 H1923 0.950 . S
C1949 C1948 1.414 . S
C1949 C1950 1.374 . S
C1950 H1924 0.950 . S
C1950 C1946 1.385 . S
C1950 C1949 1.374 . S
C1951 C1948 1.499 . S
C1951 C1952 1.373 . S
C1951 C1953 1.389 . S
C1952 H1925 0.950 . S
C1952 C1938 1.377 . S
C1952 C1951 1.373 . S
C1953 C1937 1.377 . S
C1953 C1951 1.389 . S
C1953 C1954 1.524 . S
C1954 C1953 1.524 . S
C1954 C1955 1.397 . S
C1954 C1959 1.363 . S
C1955 H1926 0.950 . S
C1955 C1954 1.397 . S
C1955 C1956 1.334 . S
C1956 H1927 0.950 . S
C1956 C1955 1.334 . S
C1956 C1957 1.287 . S
C1957 C1956 1.287 . S
C1957 C1958 1.524 . S
C1957 H1960 0.999 . S
C1958 H1928 0.950 . S
C1958 C1957 1.524 . S
C1958 C1959 1.415 . S
C1959 H1929 0.950 . S
C1959 C1954 1.363 . S
C1959 C1958 1.415 . S
H1960 C1957 0.999 . S
H1961 C1942 0.913 . S
H1962 C1980 0.951 . S
H1963 C1982 0.951 . S
H1964 C1984 0.950 . S
H1965 C1985 0.950 . S
H1966 C1987 0.950 . S
H1967 C1990 0.950 . S
H1968 C1991 0.950 . S
H1969 C1993 0.950 . S
H1970 C1994 0.950 . S
H1971 C1995 0.951 . S
H1972 C1997 0.951 . S
H1973 C1999 0.950 . S
H1974 C2000 0.955 . S
H1975 C2002 0.950 . S
H1976 C2005 0.950 . S
H1977 C2006 0.950 . S
H1978 C2008 0.950 . S
H1979 C2009 0.950 . S
C1980 H1962 0.951 . S
C1980 C1981 1.366 . S
C1980 C1982 1.388 . S
C1981 C1980 1.366 . S
C1981 C1985 1.385 . S
C1982 H1963 0.951 . S
C1982 C1980 1.388 . S
C1982 C1983 1.366 . S
C1983 C1982 1.366 . S
C1983 C1984 1.414 . S
C1983 C1986 1.499 . S
C1984 H1964 0.950 . S
C1984 C1983 1.414 . S
C1984 C1985 1.374 . S
C1985 H1965 0.950 . S
C1985 C1981 1.385 . S
C1985 C1984 1.374 . S
C1986 C1983 1.499 . S
C1986 C1987 1.373 . S
C1986 C1988 1.389 . S
C1987 H1966 0.950 . S
C1987 C1986 1.373 . S
C1987 C2003 1.377 . S
C1988 C1986 1.389 . S
C1988 C1989 1.524 . S
C1988 C2002 1.377 . S
C1989 C1988 1.524 . S
C1989 C1990 1.397 . S
C1989 C1994 1.363 . S
C1990 H1967 0.950 . S
C1990 C1989 1.397 . S
C1990 C1991 1.334 . S
C1991 H1968 0.950 . S
C1991 C1990 1.334 . S
C1991 C1992 1.287 . S
C1992 C1991 1.287 . S
C1992 C1993 1.524 . S
C1992 H2011 0.913 . S
C1993 H1969 0.950 . S
C1993 C1992 1.524 . S
C1993 C1994 1.415 . S
C1994 H1970 0.950 . S
C1994 C1989 1.363 . S
C1994 C1993 1.415 . S
C1995 H1971 0.951 . S
C1995 C1996 1.366 . S
C1995 C1997 1.388 1_554 S
C1996 C1995 1.366 . S
C1996 C2000 1.385 1_554 S
C1997 H1972 0.951 . S
C1997 C1995 1.388 1_556 S
C1997 C1998 1.366 . S
C1998 C1997 1.366 . S
C1998 C1999 1.414 . S
C1998 C2001 1.499 . S
C1999 H1973 0.950 . S
C1999 C1998 1.414 . S
C1999 C2000 1.374 . S
C2000 H1974 0.955 . S
C2000 C1996 1.385 1_556 S
C2000 C1999 1.374 . S
C2001 C1998 1.499 . S
C2001 C2002 1.373 . S
C2001 C2003 1.389 . S
C2002 H1975 0.950 . S
C2002 C1988 1.377 . S
C2002 C2001 1.373 . S
C2003 C1987 1.377 . S
C2003 C2001 1.389 . S
C2003 C2004 1.524 . S
C2004 C2003 1.524 . S
C2004 C2005 1.397 . S
C2004 C2009 1.363 . S
C2005 H1976 0.950 . S
C2005 C2004 1.397 . S
C2005 C2006 1.334 . S
C2006 H1977 0.950 . S
C2006 C2005 1.334 . S
C2006 C2007 1.287 . S
C2007 C2006 1.287 . S
C2007 C2008 1.524 . S
C2007 H2010 0.999 . S
C2008 H1978 0.950 . S
C2008 C2007 1.524 . S
C2008 C2009 1.415 . S
C2009 H1979 0.950 . S
C2009 C2004 1.363 . S
C2009 C2008 1.415 . S
H2010 C2007 0.999 . S
H2011 C1992 0.913 . S
H2012 C2030 0.951 . S
H2013 C2032 0.951 . S
H2014 C2034 0.950 . S
H2015 C2035 0.950 . S
H2016 C2037 0.950 . S
H2017 C2040 0.950 . S
H2018 C2041 0.950 . S
H2019 C2043 0.950 . S
H2020 C2044 0.950 . S
H2021 C2045 0.951 . S
H2022 C2047 0.951 . S
H2023 C2049 0.950 . S
H2024 C2050 0.950 . S
H2025 C2052 0.950 . S
H2026 C2055 0.950 . S
H2027 C2056 0.950 . S
H2028 C2058 0.950 . S
H2029 C2059 0.950 . S
C2030 H2012 0.951 . S
C2030 C2031 1.366 . S
C2030 C2032 1.388 . S
C2031 C2030 1.366 . S
C2031 C2035 1.385 . S
C2032 H2013 0.951 . S
C2032 C2030 1.388 . S
C2032 C2033 1.366 . S
C2033 C2032 1.366 . S
C2033 C2034 1.414 . S
C2033 C2036 1.499 . S
C2034 H2014 0.950 . S
C2034 C2033 1.414 . S
C2034 C2035 1.374 . S
C2035 H2015 0.950 . S
C2035 C2031 1.385 . S
C2035 C2034 1.374 . S
C2036 C2033 1.499 . S
C2036 C2037 1.373 . S
C2036 C2038 1.389 . S
C2037 H2016 0.950 . S
C2037 C2036 1.373 . S
C2037 C2053 1.377 . S
C2038 C2036 1.389 . S
C2038 C2039 1.524 . S
C2038 C2052 1.377 . S
C2039 C2038 1.524 . S
C2039 C2040 1.397 . S
C2039 C2044 1.363 . S
C2040 H2017 0.950 . S
C2040 C2039 1.397 . S
C2040 C2041 1.334 . S
C2041 H2018 0.950 . S
C2041 C2040 1.334 . S
C2041 C2042 1.287 . S
C2042 C2041 1.287 . S
C2042 C2043 1.524 . S
C2042 H2061 0.913 1_565 S
C2043 H2019 0.950 . S
C2043 C2042 1.524 . S
C2043 C2044 1.415 . S
C2044 H2020 0.950 . S
C2044 C2039 1.363 . S
C2044 C2043 1.415 . S
C2045 H2021 0.951 . S
C2045 C2046 1.366 . S
C2045 C2047 1.388 . S
C2046 C2045 1.366 . S
C2046 C2050 1.385 . S
C2047 H2022 0.951 . S
C2047 C2045 1.388 . S
C2047 C2048 1.366 . S
C2048 C2047 1.366 . S
C2048 C2049 1.414 . S
C2048 C2051 1.499 . S
C2049 H2023 0.950 . S
C2049 C2048 1.414 . S
C2049 C2050 1.374 . S
C2050 H2024 0.950 . S
C2050 C2046 1.385 . S
C2050 C2049 1.374 . S
C2051 C2048 1.499 . S
C2051 C2052 1.373 . S
C2051 C2053 1.389 . S
C2052 H2025 0.950 . S
C2052 C2038 1.377 . S
C2052 C2051 1.373 . S
C2053 C2037 1.377 . S
C2053 C2051 1.389 . S
C2053 C2054 1.524 . S
C2054 C2053 1.524 . S
C2054 C2055 1.397 . S
C2054 C2059 1.363 . S
C2055 H2026 0.950 . S
C2055 C2054 1.397 . S
C2055 C2056 1.334 . S
C2056 H2027 0.950 . S
C2056 C2055 1.334 . S
C2056 C2057 1.287 . S
C2057 C2056 1.287 . S
C2057 C2058 1.524 . S
C2057 H2060 0.999 . S
C2058 H2028 0.950 . S
C2058 C2057 1.524 . S
C2058 C2059 1.415 . S
C2059 H2029 0.950 . S
C2059 C2054 1.363 . S
C2059 C2058 1.415 . S
H2060 C2057 0.999 . S
H2061 C2042 0.913 1_545 S
H2062 C2080 0.951 . S
H2063 C2082 0.951 . S
H2064 C2084 0.950 . S
H2065 C2085 0.950 . S
H2066 C2087 0.950 . S
H2067 C2090 0.950 . S
H2068 C2091 0.950 . S
H2069 C2093 0.950 . S
H2070 C2094 0.950 . S
H2071 C2095 0.951 . S
H2072 C2097 0.951 . S
H2073 C2099 0.950 . S
H2074 C2100 0.950 . S
H2075 C2102 0.950 . S
H2076 C2105 0.950 . S
H2077 C2106 0.950 . S
H2078 C2108 0.950 . S
H2079 C2109 0.950 . S
C2080 H2062 0.951 . S
C2080 C2081 1.366 . S
C2080 C2082 1.388 . S
C2081 C2080 1.366 . S
C2081 C2085 1.385 . S
C2082 H2063 0.951 . S
C2082 C2080 1.388 . S
C2082 C2083 1.366 . S
C2083 C2082 1.366 . S
C2083 C2084 1.414 . S
C2083 C2086 1.499 . S
C2084 H2064 0.950 . S
C2084 C2083 1.414 . S
C2084 C2085 1.374 . S
C2085 H2065 0.950 . S
C2085 C2081 1.385 . S
C2085 C2084 1.374 . S
C2086 C2083 1.499 . S
C2086 C2087 1.373 . S
C2086 C2088 1.389 . S
C2087 H2066 0.950 . S
C2087 C2086 1.373 . S
C2087 C2103 1.377 . S
C2088 C2086 1.389 . S
C2088 C2089 1.524 . S
C2088 C2102 1.377 . S
C2089 C2088 1.524 . S
C2089 C2090 1.397 . S
C2089 C2094 1.363 . S
C2090 H2067 0.950 . S
C2090 C2089 1.397 . S
C2090 C2091 1.334 . S
C2091 H2068 0.950 . S
C2091 C2090 1.334 . S
C2091 C2092 1.287 . S
C2092 C2091 1.287 . S
C2092 C2093 1.524 . S
C2092 H2111 0.913 . S
C2093 H2069 0.950 . S
C2093 C2092 1.524 . S
C2093 C2094 1.415 . S
C2094 H2070 0.950 . S
C2094 C2089 1.363 . S
C2094 C2093 1.415 . S
C2095 H2071 0.951 . S
C2095 C2096 1.366 . S
C2095 C2097 1.388 . S
C2096 C2095 1.366 . S
C2096 C2100 1.385 . S
C2097 H2072 0.951 . S
C2097 C2095 1.388 . S
C2097 C2098 1.366 . S
C2098 C2097 1.366 . S
C2098 C2099 1.414 . S
C2098 C2101 1.499 . S
C2099 H2073 0.950 . S
C2099 C2098 1.414 . S
C2099 C2100 1.374 . S
C2100 H2074 0.950 . S
C2100 C2096 1.385 . S
C2100 C2099 1.374 . S
C2101 C2098 1.499 . S
C2101 C2102 1.373 . S
C2101 C2103 1.389 . S
C2102 H2075 0.950 . S
C2102 C2088 1.377 . S
C2102 C2101 1.373 . S
C2103 C2087 1.377 . S
C2103 C2101 1.389 . S
C2103 C2104 1.524 . S
C2104 C2103 1.524 . S
C2104 C2105 1.397 . S
C2104 C2109 1.363 . S
C2105 H2076 0.950 . S
C2105 C2104 1.397 . S
C2105 C2106 1.334 . S
C2106 H2077 0.950 . S
C2106 C2105 1.334 . S
C2106 C2107 1.287 . S
C2107 C2106 1.287 . S
C2107 C2108 1.524 . S
C2107 H2110 0.999 . S
C2108 H2078 0.950 . S
C2108 C2107 1.524 . S
C2108 C2109 1.415 . S
C2109 H2079 0.950 . S
C2109 C2104 1.363 . S
C2109 C2108 1.415 . S
H2110 C2107 0.999 . S
H2111 C2092 0.913 . S
H2112 C2130 0.951 . S
H2113 C2132 0.951 . S
H2114 C2134 0.950 . S
H2115 C2135 0.950 . S
H2116 C2137 0.950 . S
H2117 C2140 0.950 . S
H2118 C2141 0.950 . S
H2119 C2143 0.950 . S
H2120 C2144 0.950 . S
H2121 C2145 0.951 . S
H2122 C2147 0.951 . S
H2123 C2149 0.950 . S
H2124 C2150 0.950 . S
H2125 C2152 0.950 . S
H2126 C2155 0.950 . S
H2127 C2156 0.950 . S
H2128 C2158 0.950 . S
H2129 C2159 0.950 . S
C2130 H2112 0.951 . S
C2130 C2131 1.366 . S
C2130 C2132 1.388 . S
C2131 C2130 1.366 . S
C2131 C2135 1.385 . S
C2132 H2113 0.951 . S
C2132 C2130 1.388 . S
C2132 C2133 1.366 . S
C2133 C2132 1.366 . S
C2133 C2134 1.414 . S
C2133 C2136 1.499 . S
C2134 H2114 0.950 . S
C2134 C2133 1.414 . S
C2134 C2135 1.374 . S
C2135 H2115 0.950 . S
C2135 C2131 1.385 . S
C2135 C2134 1.374 . S
C2136 C2133 1.499 . S
C2136 C2137 1.373 . S
C2136 C2138 1.389 . S
C2137 H2116 0.950 . S
C2137 C2136 1.373 . S
C2137 C2153 1.377 . S
C2138 C2136 1.389 . S
C2138 C2139 1.524 . S
C2138 C2152 1.377 . S
C2139 C2138 1.524 . S
C2139 C2140 1.397 . S
C2139 C2144 1.363 . S
C2140 H2117 0.950 . S
C2140 C2139 1.397 . S
C2140 C2141 1.334 . S
C2141 H2118 0.950 . S
C2141 C2140 1.334 . S
C2141 C2142 1.287 . S
C2142 C2141 1.287 . S
C2142 C2143 1.524 . S
C2142 H2161 0.913 . S
C2143 H2119 0.950 . S
C2143 C2142 1.524 . S
C2143 C2144 1.415 . S
C2144 H2120 0.950 . S
C2144 C2139 1.363 . S
C2144 C2143 1.415 . S
C2145 H2121 0.951 . S
C2145 C2146 1.366 . S
C2145 C2147 1.388 . S
C2146 C2145 1.366 . S
C2146 C2150 1.385 . S
C2147 H2122 0.951 . S
C2147 C2145 1.388 . S
C2147 C2148 1.366 . S
C2148 C2147 1.366 . S
C2148 C2149 1.414 . S
C2148 C2151 1.499 . S
C2149 H2123 0.950 . S
C2149 C2148 1.414 . S
C2149 C2150 1.374 . S
C2150 H2124 0.950 . S
C2150 C2146 1.385 . S
C2150 C2149 1.374 . S
C2151 C2148 1.499 . S
C2151 C2152 1.373 . S
C2151 C2153 1.389 . S
C2152 H2125 0.950 . S
C2152 C2138 1.377 . S
C2152 C2151 1.373 . S
C2153 C2137 1.377 . S
C2153 C2151 1.389 . S
C2153 C2154 1.524 . S
C2154 C2153 1.524 . S
C2154 C2155 1.397 . S
C2154 C2159 1.363 . S
C2155 H2126 0.950 . S
C2155 C2154 1.397 . S
C2155 C2156 1.334 . S
C2156 H2127 0.950 . S
C2156 C2155 1.334 . S
C2156 C2157 1.287 . S
C2157 C2156 1.287 . S
C2157 C2158 1.524 . S
C2157 H2160 0.999 . S
C2158 H2128 0.950 . S
C2158 C2157 1.524 . S
C2158 C2159 1.415 . S
C2159 H2129 0.950 . S
C2159 C2154 1.363 . S
C2159 C2158 1.415 . S
H2160 C2157 0.999 . S
H2161 C2142 0.913 . S
H2162 C2180 0.951 . S
H2163 C2182 0.951 . S
H2164 C2184 0.950 . S
H2165 C2185 0.950 . S
H2166 C2187 0.950 . S
H2167 C2190 0.950 . S
H2168 C2191 0.950 . S
H2169 C2193 0.950 . S
H2170 C2194 0.950 . S
H2171 C2195 0.951 . S
H2172 C2197 0.951 . S
H2173 C2199 0.950 . S
H2174 C2200 0.950 . S
H2175 C2202 0.950 . S
H2176 C2205 0.950 . S
H2177 C2206 0.950 . S
H2178 C2208 0.950 . S
H2179 C2209 0.950 . S
C2180 H2162 0.951 . S
C2180 C2181 1.366 . S
C2180 C2182 1.388 . S
C2181 C2180 1.366 . S
C2181 C2185 1.385 . S
C2182 H2163 0.951 . S
C2182 C2180 1.388 . S
C2182 C2183 1.366 . S
C2183 C2182 1.366 . S
C2183 C2184 1.414 . S
C2183 C2186 1.499 . S
C2184 H2164 0.950 . S
C2184 C2183 1.414 . S
C2184 C2185 1.374 . S
C2185 H2165 0.950 . S
C2185 C2181 1.385 . S
C2185 C2184 1.374 . S
C2186 C2183 1.499 . S
C2186 C2187 1.373 . S
C2186 C2188 1.389 . S
C2187 H2166 0.950 . S
C2187 C2186 1.373 . S
C2187 C2203 1.377 . S
C2188 C2186 1.389 . S
C2188 C2189 1.524 . S
C2188 C2202 1.377 . S
C2189 C2188 1.524 . S
C2189 C2190 1.397 . S
C2189 C2194 1.363 . S
C2190 H2167 0.950 . S
C2190 C2189 1.397 . S
C2190 C2191 1.334 . S
C2191 H2168 0.950 . S
C2191 C2190 1.334 . S
C2191 C2192 1.287 . S
C2192 C2191 1.287 . S
C2192 C2193 1.524 . S
C2192 H2211 0.913 . S
C2193 H2169 0.950 . S
C2193 C2192 1.524 . S
C2193 C2194 1.415 . S
C2194 H2170 0.950 . S
C2194 C2189 1.363 . S
C2194 C2193 1.415 . S
C2195 H2171 0.951 . S
C2195 C2196 1.366 . S
C2195 C2197 1.388 . S
C2196 C2195 1.366 . S
C2196 C2200 1.385 . S
C2197 H2172 0.951 . S
C2197 C2195 1.388 . S
C2197 C2198 1.366 . S
C2198 C2197 1.366 . S
C2198 C2199 1.414 . S
C2198 C2201 1.499 . S
C2199 H2173 0.950 . S
C2199 C2198 1.414 . S
C2199 C2200 1.374 . S
C2200 H2174 0.950 . S
C2200 C2196 1.385 . S
C2200 C2199 1.374 . S
C2201 C2198 1.499 . S
C2201 C2202 1.373 . S
C2201 C2203 1.389 . S
C2202 H2175 0.950 . S
C2202 C2188 1.377 . S
C2202 C2201 1.373 . S
C2203 C2187 1.377 . S
C2203 C2201 1.389 . S
C2203 C2204 1.524 . S
C2204 C2203 1.524 . S
C2204 C2205 1.397 . S
C2204 C2209 1.363 . S
C2205 H2176 0.950 . S
C2205 C2204 1.397 . S
C2205 C2206 1.334 . S
C2206 H2177 0.950 . S
C2206 C2205 1.334 . S
C2206 C2207 1.287 . S
C2207 C2206 1.287 . S
C2207 C2208 1.524 . S
C2207 H2210 0.999 . S
C2208 H2178 0.950 . S
C2208 C2207 1.524 . S
C2208 C2209 1.415 . S
C2209 H2179 0.950 . S
C2209 C2204 1.363 . S
C2209 C2208 1.415 . S
H2210 C2207 0.999 . S
H2211 C2192 0.913 . S
H2212 C2230 0.951 . S
H2213 C2232 0.951 . S
H2214 C2234 0.950 . S
H2215 C2235 0.950 . S
H2216 C2237 0.950 . S
H2217 C2240 0.950 . S
H2218 C2241 0.950 . S
H2219 C2243 0.950 . S
H2220 C2244 0.950 . S
H2221 C2245 0.951 . S
H2222 C2247 0.951 . S
H2223 C2249 0.950 . S
H2224 C2250 0.950 . S
H2225 C2252 0.950 . S
H2226 C2255 0.950 . S
H2227 C2256 0.950 . S
H2228 C2258 0.950 . S
H2229 C2259 0.950 . S
C2230 H2212 0.951 . S
C2230 C2231 1.366 . S
C2230 C2232 1.388 . S
C2231 C2230 1.366 . S
C2231 C2235 1.385 . S
C2232 H2213 0.951 . S
C2232 C2230 1.388 . S
C2232 C2233 1.366 . S
C2233 C2232 1.366 . S
C2233 C2234 1.414 . S
C2233 C2236 1.499 . S
C2234 H2214 0.950 . S
C2234 C2233 1.414 . S
C2234 C2235 1.374 . S
C2235 H2215 0.950 . S
C2235 C2231 1.385 . S
C2235 C2234 1.374 . S
C2236 C2233 1.499 . S
C2236 C2237 1.373 . S
C2236 C2238 1.389 . S
C2237 H2216 0.950 . S
C2237 C2236 1.373 . S
C2237 C2253 1.377 . S
C2238 C2236 1.389 . S
C2238 C2239 1.524 . S
C2238 C2252 1.377 . S
C2239 C2238 1.524 . S
C2239 C2240 1.397 . S
C2239 C2244 1.363 . S
C2240 H2217 0.950 . S
C2240 C2239 1.397 . S
C2240 C2241 1.334 . S
C2241 H2218 0.950 . S
C2241 C2240 1.334 . S
C2241 C2242 1.287 . S
C2242 C2241 1.287 . S
C2242 C2243 1.524 . S
C2242 H2261 0.913 . S
C2243 H2219 0.950 . S
C2243 C2242 1.524 . S
C2243 C2244 1.415 . S
C2244 H2220 0.950 . S
C2244 C2239 1.363 . S
C2244 C2243 1.415 . S
C2245 H2221 0.951 . S
C2245 C2246 1.366 . S
C2245 C2247 1.388 . S
C2246 C2245 1.366 . S
C2246 C2250 1.385 . S
C2247 H2222 0.951 . S
C2247 C2245 1.388 . S
C2247 C2248 1.366 . S
C2248 C2247 1.366 . S
C2248 C2249 1.414 . S
C2248 C2251 1.499 . S
C2249 H2223 0.950 . S
C2249 C2248 1.414 . S
C2249 C2250 1.374 . S
C2250 H2224 0.950 . S
C2250 C2246 1.385 . S
C2250 C2249 1.374 . S
C2251 C2248 1.499 . S
C2251 C2252 1.373 . S
C2251 C2253 1.389 . S
C2252 H2225 0.950 . S
C2252 C2238 1.377 . S
C2252 C2251 1.373 . S
C2253 C2237 1.377 . S
C2253 C2251 1.389 . S
C2253 C2254 1.524 . S
C2254 C2253 1.524 . S
C2254 C2255 1.397 . S
C2254 C2259 1.363 . S
C2255 H2226 0.950 . S
C2255 C2254 1.397 . S
C2255 C2256 1.334 . S
C2256 H2227 0.950 . S
C2256 C2255 1.334 . S
C2256 C2257 1.287 . S
C2257 C2256 1.287 . S
C2257 C2258 1.524 . S
C2257 H2260 0.999 . S
C2258 H2228 0.950 . S
C2258 C2257 1.524 . S
C2258 C2259 1.415 . S
C2259 H2229 0.950 . S
C2259 C2254 1.363 . S
C2259 C2258 1.415 . S
H2260 C2257 0.999 . S
H2261 C2242 0.913 . S
H2262 C2280 0.951 . S
H2263 C2282 0.951 . S
H2264 C2284 0.950 . S
H2265 C2285 0.950 . S
H2266 C2287 0.950 . S
H2267 C2290 0.950 . S
H2268 C2291 0.950 . S
H2269 C2293 0.950 . S
H2270 C2294 0.950 . S
H2271 C2295 0.951 . S
H2272 C2297 0.951 . S
H2273 C2299 0.950 . S
H2274 C2300 0.950 . S
H2275 C2302 0.950 . S
H2276 C2305 0.950 . S
H2277 C2306 0.950 . S
H2278 C2308 0.950 . S
H2279 C2309 0.950 . S
C2280 H2262 0.951 . S
C2280 C2281 1.366 . S
C2280 C2282 1.388 . S
C2281 C2280 1.366 . S
C2281 C2285 1.385 . S
C2282 H2263 0.951 . S
C2282 C2280 1.388 . S
C2282 C2283 1.366 . S
C2283 C2282 1.366 . S
C2283 C2284 1.414 . S
C2283 C2286 1.499 . S
C2284 H2264 0.950 . S
C2284 C2283 1.414 . S
C2284 C2285 1.374 . S
C2285 H2265 0.950 . S
C2285 C2281 1.385 . S
C2285 C2284 1.374 . S
C2286 C2283 1.499 . S
C2286 C2287 1.373 . S
C2286 C2288 1.389 . S
C2287 H2266 0.950 . S
C2287 C2286 1.373 . S
C2287 C2303 1.377 . S
C2288 C2286 1.389 . S
C2288 C2289 1.524 . S
C2288 C2302 1.377 . S
C2289 C2288 1.524 . S
C2289 C2290 1.397 . S
C2289 C2294 1.363 . S
C2290 H2267 0.950 . S
C2290 C2289 1.397 . S
C2290 C2291 1.334 . S
C2291 H2268 0.950 . S
C2291 C2290 1.334 . S
C2291 C2292 1.287 . S
C2292 C2291 1.287 . S
C2292 C2293 1.524 . S
C2292 H2311 0.913 . S
C2293 H2269 0.950 . S
C2293 C2292 1.524 . S
C2293 C2294 1.415 . S
C2294 H2270 0.950 . S
C2294 C2289 1.363 . S
C2294 C2293 1.415 . S
C2295 H2271 0.951 . S
C2295 C2296 1.366 . S
C2295 C2297 1.388 . S
C2296 C2295 1.366 . S
C2296 C2300 1.385 . S
C2297 H2272 0.951 . S
C2297 C2295 1.388 . S
C2297 C2298 1.366 . S
C2298 C2297 1.366 . S
C2298 C2299 1.414 . S
C2298 C2301 1.499 . S
C2299 H2273 0.950 . S
C2299 C2298 1.414 . S
C2299 C2300 1.374 . S
C2300 H2274 0.950 . S
C2300 C2296 1.385 . S
C2300 C2299 1.374 . S
C2301 C2298 1.499 . S
C2301 C2302 1.373 . S
C2301 C2303 1.389 . S
C2302 H2275 0.950 . S
C2302 C2288 1.377 . S
C2302 C2301 1.373 . S
C2303 C2287 1.377 . S
C2303 C2301 1.389 . S
C2303 C2304 1.524 . S
C2304 C2303 1.524 . S
C2304 C2305 1.397 . S
C2304 C2309 1.363 . S
C2305 H2276 0.950 . S
C2305 C2304 1.397 . S
C2305 C2306 1.334 . S
C2306 H2277 0.950 . S
C2306 C2305 1.334 . S
C2306 C2307 1.287 . S
C2307 C2306 1.287 . S
C2307 C2308 1.524 . S
C2307 H2310 0.999 . S
C2308 H2278 0.950 . S
C2308 C2307 1.524 . S
C2308 C2309 1.415 . S
C2309 H2279 0.950 . S
C2309 C2304 1.363 . S
C2309 C2308 1.415 . S
H2310 C2307 0.999 . S
H2311 C2292 0.913 . S
H2312 C2330 0.951 . S
H2313 C2332 0.951 . S
H2314 C2334 0.950 . S
H2315 C2335 0.950 . S
H2316 C2337 0.950 . S
H2317 C2340 0.950 . S
H2318 C2341 0.950 . S
H2319 C2343 0.950 . S
H2320 C2344 0.950 . S
H2321 C2345 0.951 . S
H2322 C2347 0.951 1_554 S
H2323 C2349 0.950 . S
H2324 C2350 0.950 . S
H2325 C2352 0.950 . S
H2326 C2355 0.950 . S
H2327 C2356 0.950 . S
H2328 C2358 0.950 . S
H2329 C2359 0.950 . S
C2330 H2312 0.951 . S
C2330 C2331 1.366 . S
C2330 C2332 1.388 . S
C2331 C2330 1.366 . S
C2331 C2335 1.385 . S
C2332 H2313 0.951 . S
C2332 C2330 1.388 . S
C2332 C2333 1.366 . S
C2333 C2332 1.366 . S
C2333 C2334 1.414 . S
C2333 C2336 1.499 . S
C2334 H2314 0.950 . S
C2334 C2333 1.414 . S
C2334 C2335 1.374 . S
C2335 H2315 0.950 . S
C2335 C2331 1.385 . S
C2335 C2334 1.374 . S
C2336 C2333 1.499 . S
C2336 C2337 1.373 . S
C2336 C2338 1.389 . S
C2337 H2316 0.950 . S
C2337 C2336 1.373 . S
C2337 C2353 1.377 . S
C2338 C2336 1.389 . S
C2338 C2339 1.524 . S
C2338 C2352 1.377 . S
C2339 C2338 1.524 . S
C2339 C2340 1.397 . S
C2339 C2344 1.363 . S
C2340 H2317 0.950 . S
C2340 C2339 1.397 . S
C2340 C2341 1.334 . S
C2341 H2318 0.950 . S
C2341 C2340 1.334 . S
C2341 C2342 1.287 . S
C2342 C2341 1.287 . S
C2342 C2343 1.524 . S
C2342 H2361 0.913 . S
C2343 H2319 0.950 . S
C2343 C2342 1.524 . S
C2343 C2344 1.415 . S
C2344 H2320 0.950 . S
C2344 C2339 1.363 . S
C2344 C2343 1.415 . S
C2345 H2321 0.951 . S
C2345 C2346 1.366 . S
C2345 C2347 1.388 . S
C2346 C2345 1.366 . S
C2346 C2350 1.385 . S
C2347 H2322 0.951 1_556 S
C2347 C2345 1.388 . S
C2347 C2348 1.366 . S
C2348 C2347 1.366 . S
C2348 C2349 1.414 . S
C2348 C2351 1.499 1_556 S
C2349 H2323 0.950 . S
C2349 C2348 1.414 . S
C2349 C2350 1.374 . S
C2350 H2324 0.950 . S
C2350 C2346 1.385 . S
C2350 C2349 1.374 . S
C2351 C2348 1.499 1_554 S
C2351 C2352 1.373 . S
C2351 C2353 1.389 . S
C2352 H2325 0.950 . S
C2352 C2338 1.377 . S
C2352 C2351 1.373 . S
C2353 C2337 1.377 . S
C2353 C2351 1.389 . S
C2353 C2354 1.524 . S
C2354 C2353 1.524 . S
C2354 C2355 1.397 1_554 S
C2354 C2359 1.363 . S
C2355 H2326 0.950 . S
C2355 C2354 1.397 1_556 S
C2355 C2356 1.334 . S
C2356 H2327 0.950 . S
C2356 C2355 1.334 . S
C2356 C2357 1.287 . S
C2357 C2356 1.287 . S
C2357 C2358 1.524 1_556 S
C2357 H2360 0.999 . S
C2358 H2328 0.950 . S
C2358 C2357 1.524 1_554 S
C2358 C2359 1.415 . S
C2359 H2329 0.950 . S
C2359 C2354 1.363 . S
C2359 C2358 1.415 . S
H2360 C2357 0.999 . S
H2361 C2342 0.913 . S
H2362 C2380 0.951 . S
H2363 C2382 0.951 . S
H2364 C2384 0.950 . S
H2365 C2385 0.950 . S
H2366 C2387 0.950 . S
H2367 C2390 0.950 . S
H2368 C2391 0.950 . S
H2369 C2393 0.950 . S
H2370 C2394 0.950 . S
H2371 C2395 0.951 . S
H2372 C2397 0.951 . S
H2373 C2399 0.950 . S
H2374 C2400 0.950 . S
H2375 C2402 0.950 . S
H2376 C2405 0.950 . S
H2377 C2406 0.950 . S
H2378 C2408 0.950 . S
H2379 C2409 0.950 . S
C2380 H2362 0.951 . S
C2380 C2381 1.366 . S
C2380 C2382 1.388 . S
C2381 C2380 1.366 . S
C2381 C2385 1.385 . S
C2382 H2363 0.951 . S
C2382 C2380 1.388 . S
C2382 C2383 1.366 . S
C2383 C2382 1.366 . S
C2383 C2384 1.414 . S
C2383 C2386 1.499 . S
C2384 H2364 0.950 . S
C2384 C2383 1.414 . S
C2384 C2385 1.374 . S
C2385 H2365 0.950 . S
C2385 C2381 1.385 . S
C2385 C2384 1.374 . S
C2386 C2383 1.499 . S
C2386 C2387 1.373 . S
C2386 C2388 1.389 . S
C2387 H2366 0.950 . S
C2387 C2386 1.373 . S
C2387 C2403 1.377 . S
C2388 C2386 1.389 . S
C2388 C2389 1.524 . S
C2388 C2402 1.377 . S
C2389 C2388 1.524 . S
C2389 C2390 1.397 . S
C2389 C2394 1.363 . S
C2390 H2367 0.950 . S
C2390 C2389 1.397 . S
C2390 C2391 1.334 . S
C2391 H2368 0.950 . S
C2391 C2390 1.334 . S
C2391 C2392 1.287 . S
C2392 C2391 1.287 . S
C2392 C2393 1.524 . S
C2392 H2411 0.913 . S
C2393 H2369 0.950 . S
C2393 C2392 1.524 . S
C2393 C2394 1.415 . S
C2394 H2370 0.950 . S
C2394 C2389 1.363 . S
C2394 C2393 1.415 . S
C2395 H2371 0.951 . S
C2395 C2396 1.366 . S
C2395 C2397 1.388 . S
C2396 C2395 1.366 . S
C2396 C2400 1.385 . S
C2397 H2372 0.951 . S
C2397 C2395 1.388 . S
C2397 C2398 1.366 . S
C2398 C2397 1.366 . S
C2398 C2399 1.414 . S
C2398 C2401 1.499 . S
C2399 H2373 0.950 . S
C2399 C2398 1.414 . S
C2399 C2400 1.374 . S
C2400 H2374 0.950 . S
C2400 C2396 1.385 . S
C2400 C2399 1.374 . S
C2401 C2398 1.499 . S
C2401 C2402 1.373 . S
C2401 C2403 1.389 . S
C2402 H2375 0.950 . S
C2402 C2388 1.377 . S
C2402 C2401 1.373 . S
C2403 C2387 1.377 . S
C2403 C2401 1.389 . S
C2403 C2404 1.524 . S
C2404 C2403 1.524 . S
C2404 C2405 1.397 . S
C2404 C2409 1.363 . S
C2405 H2376 0.950 . S
C2405 C2404 1.397 . S
C2405 C2406 1.334 . S
C2406 H2377 0.950 . S
C2406 C2405 1.334 . S
C2406 C2407 1.287 . S
C2407 C2406 1.287 . S
C2407 C2408 1.524 . S
C2407 H2410 0.999 . S
C2408 H2378 0.950 . S
C2408 C2407 1.524 . S
C2408 C2409 1.415 . S
C2409 H2379 0.950 . S
C2409 C2404 1.363 . S
C2409 C2408 1.415 . S
H2410 C2407 0.999 . S
H2411 C2392 0.913 . S
C1246 C1153 1.684 . S
C1231 C1 1.208 . S
C1281 C169 1.611 . S
C1296 C713 1.853 . S
C1331 C283 1.574 . S
C1346 C801 1.814 . S
C1381 C397 1.434 . S
C1396 C880 1.660 . S
C1446 C977 1.493 . S
C1431 C457 1.066 . S
C1481 C571 1.088 . S
C1496 C1056 1.530 . S
C1531 C115 1.207 . S
C1546 C821 1.684 . S
C1581 C229 1.086 . S
C1596 C917 1.528 . S
C1631 C343 1.067 . S
C1646 C997 1.494 . S
C1696 C1093 1.659 . S
C1681 C511 1.432 . S
C1746 C1173 1.816 . S
C1731 C625 1.574 . S
C1796 C733 1.854 . S
C1781 C55 1.610 . S
C1831 C29 1.092 . S
C1846 C829 1.356 . S
C1881 C125 0.923 . S
C1896 C909 1.471 . S
C1946 C1005 1.397 . S
C1931 C239 0.881 . S
C1981 C353 0.887 . S
C1996 C1085 1.385 . S
C2046 C1181 1.271 . S
C2031 C485 1.019 . S
C2096 C741 1.347 . S
C2081 C599 1.079 . S
C2146 C1144 1.355 . S
C2131 C143 1.094 . S
C2181 C257 1.077 . S
C2196 C704 1.348 . S
C2246 C792 1.271 . S
C2231 C371 1.020 . S
C2281 C467 0.886 . S
C2296 C889 1.385 . S
C2331 C581 0.880 . S
C2346 C968 1.397 . S
C2381 C11 0.923 . S
C2396 C1065 1.472 . S
