# Generated by pormake.
# Topology eea, (3,6)-cn, num edge types: 1
# Building blocks:
#     Node 0, Type 0, BuildingBlock: BELTOD_clean_linker_0, # of connection points: 3
#     Node 1, Type 0, BuildingBlock: BELTOD_clean_linker_0, # of connection points: 3
#     Node 2, Type 0, BuildingBlock: BELTOD_clean_linker_0, # of connection points: 3
#     Node 3, Type 0, BuildingBlock: BELTOD_clean_linker_0, # of connection points: 3
#     Node 4, Type 0, BuildingBlock: BELTOD_clean_linker_0, # of connection points: 3
#     Node 5, Type 0, BuildingBlock: BELTOD_clean_linker_0, # of connection points: 3
#     Node 6, Type 0, BuildingBlock: BELTOD_clean_linker_0, # of connection points: 3
#     Node 7, Type 0, BuildingBlock: BELTOD_clean_linker_0, # of connection points: 3
#     Node 8, Type 0, BuildingBlock: BELTOD_clean_linker_0, # of connection points: 3
#     Node 9, Type 0, BuildingBlock: BELTOD_clean_linker_0, # of connection points: 3
#     Node 10, Type 0, BuildingBlock: BELTOD_clean_linker_0, # of connection points: 3
#     Node 11, Type 0, BuildingBlock: BELTOD_clean_linker_0, # of connection points: 3
#     Node 12, Type 0, BuildingBlock: BELTOD_clean_linker_0, # of connection points: 3
#     Node 13, Type 0, BuildingBlock: BELTOD_clean_linker_0, # of connection points: 3
#     Node 14, Type 0, BuildingBlock: BELTOD_clean_linker_0, # of connection points: 3
#     Node 15, Type 0, BuildingBlock: BELTOD_clean_linker_0, # of connection points: 3
#     Node 16, Type 0, BuildingBlock: BELTOD_clean_linker_0, # of connection points: 3
#     Node 17, Type 0, BuildingBlock: BELTOD_clean_linker_0, # of connection points: 3
#     Node 18, Type 1, BuildingBlock: CUWYAW_clean_sbu_0, # of connection points: 6
#     Node 19, Type 1, BuildingBlock: CUWYAW_clean_sbu_0, # of connection points: 6
#     Node 20, Type 1, BuildingBlock: CUWYAW_clean_sbu_0, # of connection points: 6
#     Node 21, Type 1, BuildingBlock: CUWYAW_clean_sbu_0, # of connection points: 6
#     Node 22, Type 1, BuildingBlock: CUWYAW_clean_sbu_0, # of connection points: 6
#     Node 23, Type 1, BuildingBlock: CUWYAW_clean_sbu_0, # of connection points: 6
#     Node 24, Type 1, BuildingBlock: CUWYAW_clean_sbu_0, # of connection points: 6
#     Node 25, Type 1, BuildingBlock: CUWYAW_clean_sbu_0, # of connection points: 6
#     Node 26, Type 1, BuildingBlock: CUWYAW_clean_sbu_0, # of connection points: 6
#     Edge 27, Type (0, 1), BuildingBlock: ZUJKAS_clean_linker_0, # of connection points: 2
#     Edge 28, Type (0, 1), BuildingBlock: ZUJKAS_clean_linker_0, # of connection points: 2
#     Edge 29, Type (0, 1), BuildingBlock: ZUJKAS_clean_linker_0, # of connection points: 2
#     Edge 30, Type (0, 1), BuildingBlock: ZUJKAS_clean_linker_0, # of connection points: 2
#     Edge 31, Type (0, 1), BuildingBlock: ZUJKAS_clean_linker_0, # of connection points: 2
#     Edge 32, Type (0, 1), BuildingBlock: ZUJKAS_clean_linker_0, # of connection points: 2
#     Edge 33, Type (0, 1), BuildingBlock: ZUJKAS_clean_linker_0, # of connection points: 2
#     Edge 34, Type (0, 1), BuildingBlock: ZUJKAS_clean_linker_0, # of connection points: 2
#     Edge 35, Type (0, 1), BuildingBlock: ZUJKAS_clean_linker_0, # of connection points: 2
#     Edge 36, Type (0, 1), BuildingBlock: ZUJKAS_clean_linker_0, # of connection points: 2
#     Edge 37, Type (0, 1), BuildingBlock: ZUJKAS_clean_linker_0, # of connection points: 2
#     Edge 38, Type (0, 1), BuildingBlock: ZUJKAS_clean_linker_0, # of connection points: 2
#     Edge 39, Type (0, 1), BuildingBlock: ZUJKAS_clean_linker_0, # of connection points: 2
#     Edge 40, Type (0, 1), BuildingBlock: ZUJKAS_clean_linker_0, # of connection points: 2
#     Edge 41, Type (0, 1), BuildingBlock: ZUJKAS_clean_linker_0, # of connection points: 2
#     Edge 42, Type (0, 1), BuildingBlock: ZUJKAS_clean_linker_0, # of connection points: 2
#     Edge 43, Type (0, 1), BuildingBlock: ZUJKAS_clean_linker_0, # of connection points: 2
#     Edge 44, Type (0, 1), BuildingBlock: ZUJKAS_clean_linker_0, # of connection points: 2
#     Edge 45, Type (0, 1), BuildingBlock: ZUJKAS_clean_linker_0, # of connection points: 2
#     Edge 46, Type (0, 1), BuildingBlock: ZUJKAS_clean_linker_0, # of connection points: 2
#     Edge 47, Type (0, 1), BuildingBlock: ZUJKAS_clean_linker_0, # of connection points: 2
#     Edge 48, Type (0, 1), BuildingBlock: ZUJKAS_clean_linker_0, # of connection points: 2
#     Edge 49, Type (0, 1), BuildingBlock: ZUJKAS_clean_linker_0, # of connection points: 2
#     Edge 50, Type (0, 1), BuildingBlock: ZUJKAS_clean_linker_0, # of connection points: 2
#     Edge 51, Type (0, 1), BuildingBlock: ZUJKAS_clean_linker_0, # of connection points: 2
#     Edge 52, Type (0, 1), BuildingBlock: ZUJKAS_clean_linker_0, # of connection points: 2
#     Edge 53, Type (0, 1), BuildingBlock: ZUJKAS_clean_linker_0, # of connection points: 2
#     Edge 54, Type (0, 1), BuildingBlock: ZUJKAS_clean_linker_0, # of connection points: 2
#     Edge 55, Type (0, 1), BuildingBlock: ZUJKAS_clean_linker_0, # of connection points: 2
#     Edge 56, Type (0, 1), BuildingBlock: ZUJKAS_clean_linker_0, # of connection points: 2
#     Edge 57, Type (0, 1), BuildingBlock: ZUJKAS_clean_linker_0, # of connection points: 2
#     Edge 58, Type (0, 1), BuildingBlock: ZUJKAS_clean_linker_0, # of connection points: 2
#     Edge 59, Type (0, 1), BuildingBlock: ZUJKAS_clean_linker_0, # of connection points: 2
#     Edge 60, Type (0, 1), BuildingBlock: ZUJKAS_clean_linker_0, # of connection points: 2
#     Edge 61, Type (0, 1), BuildingBlock: ZUJKAS_clean_linker_0, # of connection points: 2
#     Edge 62, Type (0, 1), BuildingBlock: ZUJKAS_clean_linker_0, # of connection points: 2
#     Edge 63, Type (0, 1), BuildingBlock: ZUJKAS_clean_linker_0, # of connection points: 2
#     Edge 64, Type (0, 1), BuildingBlock: ZUJKAS_clean_linker_0, # of connection points: 2
#     Edge 65, Type (0, 1), BuildingBlock: ZUJKAS_clean_linker_0, # of connection points: 2
#     Edge 66, Type (0, 1), BuildingBlock: ZUJKAS_clean_linker_0, # of connection points: 2
#     Edge 67, Type (0, 1), BuildingBlock: ZUJKAS_clean_linker_0, # of connection points: 2
#     Edge 68, Type (0, 1), BuildingBlock: ZUJKAS_clean_linker_0, # of connection points: 2
#     Edge 69, Type (0, 1), BuildingBlock: ZUJKAS_clean_linker_0, # of connection points: 2
#     Edge 70, Type (0, 1), BuildingBlock: ZUJKAS_clean_linker_0, # of connection points: 2
#     Edge 71, Type (0, 1), BuildingBlock: ZUJKAS_clean_linker_0, # of connection points: 2
#     Edge 72, Type (0, 1), BuildingBlock: ZUJKAS_clean_linker_0, # of connection points: 2
#     Edge 73, Type (0, 1), BuildingBlock: ZUJKAS_clean_linker_0, # of connection points: 2
#     Edge 74, Type (0, 1), BuildingBlock: ZUJKAS_clean_linker_0, # of connection points: 2
#     Edge 75, Type (0, 1), BuildingBlock: ZUJKAS_clean_linker_0, # of connection points: 2
#     Edge 76, Type (0, 1), BuildingBlock: ZUJKAS_clean_linker_0, # of connection points: 2
#     Edge 77, Type (0, 1), BuildingBlock: ZUJKAS_clean_linker_0, # of connection points: 2
#     Edge 78, Type (0, 1), BuildingBlock: ZUJKAS_clean_linker_0, # of connection points: 2
#     Edge 79, Type (0, 1), BuildingBlock: ZUJKAS_clean_linker_0, # of connection points: 2
#     Edge 80, Type (0, 1), BuildingBlock: ZUJKAS_clean_linker_0, # of connection points: 2
# Relax obj value: 0.032
# Max RMSD: 0.130
# Mean RMSD: 0.071
data_MOF--net-eea--node1-CUWYAW_clean_sbu_0--node2-BELTOD_clean_linker_0--edge1-ZUJKAS_clean_linker_0
_symmetry_space_group_name_H-M    P1
_symmetry_Int_Tables_number       1
_symmetry_cell_setting            triclinic
loop_
_symmetry_equiv_pos_as_xyz
'x, y, z'
_cell_length_a     74.215766
_cell_length_b     73.821433
_cell_length_c     101.95138
_cell_angle_alpha  93.809482
_cell_angle_beta   93.470567
_cell_angle_gamma 119.89
loop_
_atom_site_label
_atom_site_type_symbol
_atom_site_fract_x
_atom_site_fract_y
_atom_site_fract_z
_atom_type_partial_charge
P0 P 0.29897 0.1613 0.40304 0.0
H1 H 0.30382 0.13704 0.38116 0.0
H2 H 0.28484 0.09959 0.37307 0.0
H3 H 0.24406 0.08751 0.4039 0.0
H4 H 0.26314 0.125 0.41195 0.0
H5 H 0.31345 0.19838 0.38869 0.0
H6 H 0.29543 0.21493 0.37847 0.0
H7 H 0.23731 0.16805 0.39108 0.0
H8 H 0.25519 0.15104 0.4009 0.0
H9 H 0.32737 0.15904 0.42282 0.0
H10 H 0.27534 0.16987 0.42253 0.0
O11 O 0.32303 0.17204 0.39836 0.0
H12 H 0.32964 0.16079 0.44694 0.0
H13 H 0.27749 0.17153 0.44657 0.0
C14 C 0.28509 0.13372 0.39727 0.0
C15 C 0.2909 0.12632 0.38623 0.0
C16 C 0.28007 0.10492 0.38163 0.0
C17 C 0.26304 0.09061 0.3879 0.0
C18 C 0.25705 0.09818 0.39883 0.0
C19 C 0.26801 0.11957 0.40348 0.0
C20 C 0.28568 0.17352 0.39562 0.0
C21 C 0.29682 0.19155 0.38921 0.0
C22 C 0.28654 0.20098 0.38334 0.0
C23 C 0.26505 0.19273 0.38403 0.0
C24 C 0.25393 0.17473 0.3905 0.0
C25 C 0.26413 0.16503 0.3961 0.0
C26 C 0.30138 0.16458 0.42084 0.0
C27 C 0.31662 0.16209 0.42794 0.0
C28 C 0.31793 0.16311 0.44173 0.0
C29 C 0.30377 0.16635 0.44864 0.0
C30 C 0.28852 0.16889 0.4415 0.0
C31 C 0.28735 0.16803 0.42771 0.0
P32 P 0.90247 0.11022 0.43034 0.0
H33 H 0.89805 0.07264 0.4158 0.0
H34 H 0.87009 0.04451 0.40052 0.0
H35 H 0.83467 0.07647 0.40262 0.0
H36 H 0.8627 0.10441 0.41827 0.0
H37 H 0.94639 0.14111 0.43748 0.0
H38 H 0.97231 0.16944 0.42626 0.0
H39 H 0.92464 0.15641 0.3946 0.0
H40 H 0.89875 0.128 0.4059 0.0
H41 H 0.86466 0.08661 0.44311 0.0
H42 H 0.91693 0.15006 0.44704 0.0
O43 O 0.91553 0.09976 0.43736 0.0
H44 H 0.85208 0.095 0.46283 0.0
H45 H 0.90492 0.15836 0.4671 0.0
C46 C 0.88222 0.09034 0.41837 0.0
C47 C 0.88428 0.07361 0.41298 0.0
C48 C 0.86832 0.05761 0.40413 0.0
C49 C 0.85006 0.05816 0.40036 0.0
C50 C 0.84837 0.07538 0.40548 0.0
C51 C 0.86438 0.09138 0.41438 0.0
C52 C 0.92075 0.13223 0.42243 0.0
C53 C 0.94148 0.14444 0.42817 0.0
C54 C 0.95625 0.16073 0.42179 0.0
C55 C 0.95054 0.16509 0.4095 0.0
C56 C 0.92956 0.15323 0.40397 0.0
C57 C 0.91473 0.13701 0.41044 0.0
C58 C 0.8915 0.11781 0.44341 0.0
C59 C 0.87322 0.10249 0.44806 0.0
C60 C 0.86618 0.10724 0.45945 0.0
C61 C 0.87757 0.12732 0.46663 0.0
C62 C 0.89561 0.14283 0.46174 0.0
C63 C 0.90255 0.13807 0.45025 0.0
P64 P 0.86228 0.72016 0.41589 0.0
H65 H 0.83756 0.71394 0.39095 0.0
H66 H 0.81692 0.72928 0.38311 0.0
H67 H 0.83487 0.76873 0.42029 0.0
H68 H 0.85572 0.75344 0.428 0.0
H69 H 0.89378 0.70794 0.41532 0.0
H70 H 0.92956 0.72538 0.40944 0.0
H71 H 0.92561 0.78062 0.40289 0.0
H72 H 0.88961 0.76283 0.40855 0.0
H73 H 0.83263 0.68809 0.43087 0.0
H74 H 0.88934 0.74822 0.4393 0.0
O75 O 0.85103 0.69584 0.40811 0.0
H76 H 0.83101 0.68488 0.45453 0.0
H77 H 0.88794 0.74505 0.46304 0.0
C78 C 0.84777 0.73221 0.41015 0.0
C79 C 0.83701 0.72584 0.39743 0.0
C80 C 0.82516 0.73458 0.39298 0.0
C81 C 0.82404 0.75004 0.40114 0.0
C82 C 0.83544 0.75688 0.41375 0.0
C83 C 0.84724 0.74805 0.41821 0.0
C84 C 0.88895 0.73394 0.41214 0.0
C85 C 0.90064 0.72381 0.41262 0.0
C86 C 0.92117 0.73389 0.40937 0.0
C87 C 0.93047 0.75441 0.40565 0.0
C88 C 0.91882 0.76471 0.40551 0.0
C89 C 0.89824 0.75458 0.40878 0.0
C90 C 0.86132 0.71818 0.43335 0.0
C91 C 0.84483 0.70053 0.43783 0.0
C92 C 0.84396 0.69868 0.45135 0.0
C93 C 0.85947 0.7146 0.46066 0.0
C94 C 0.87574 0.73254 0.45612 0.0
C95 C 0.87664 0.73431 0.44256 0.0
P96 P 0.12802 0.28068 0.59098 0.0
H97 H 0.11158 0.2936 0.6127 0.0
H98 H 0.07698 0.27838 0.62036 0.0
H99 H 0.05346 0.22683 0.58926 0.0
H100 H 0.08839 0.24204 0.58183 0.0
H101 H 0.16209 0.29245 0.61177 0.0
H102 H 0.18071 0.27486 0.61911 0.0
H103 H 0.1404 0.22103 0.59073 0.0
H104 H 0.1221 0.23903 0.58324 0.0
H105 H 0.09846 0.28112 0.57069 0.0
H106 H 0.15633 0.28046 0.57239 0.0
O107 O 0.14185 0.30594 0.59717 0.0
H108 H 0.09864 0.28279 0.54682 0.0
H109 H 0.15694 0.2827 0.54867 0.0
C110 C 0.10242 0.26916 0.59654 0.0
C111 C 0.09897 0.27907 0.60749 0.0
C112 C 0.07913 0.27038 0.61183 0.0
C113 C 0.06236 0.2515 0.60533 0.0
C114 C 0.06604 0.24133 0.59452 0.0
C115 C 0.08595 0.25006 0.59021 0.0
C116 C 0.14087 0.26712 0.59687 0.0
C117 C 0.15722 0.27686 0.60714 0.0
C118 C 0.16777 0.2667 0.61139 0.0
C119 C 0.16209 0.24654 0.60549 0.0
C120 C 0.14537 0.23666 0.59536 0.0
C121 C 0.1348 0.24685 0.59113 0.0
C122 C 0.12702 0.27996 0.57325 0.0
C123 C 0.11103 0.28099 0.5659 0.0
C124 C 0.11128 0.28219 0.55227 0.0
C125 C 0.12773 0.28274 0.54579 0.0
C126 C 0.14377 0.28181 0.55326 0.0
C127 C 0.14346 0.28056 0.56686 0.0
P128 P 0.78438 0.88869 0.58501 0.0
H129 H 0.81501 0.92228 0.60445 0.0
H130 H 0.81425 0.95007 0.61838 0.0
H131 H 0.74911 0.92421 0.6043 0.0
H132 H 0.74999 0.89633 0.5904 0.0
H133 H 0.80037 0.86038 0.58025 0.0
H134 H 0.79964 0.83246 0.59215 0.0
H135 H 0.7628 0.84161 0.62026 0.0
H136 H 0.76375 0.86975 0.60829 0.0
H137 H 0.77232 0.91103 0.56739 0.0
H138 H 0.75538 0.84664 0.57084 0.0
O139 O 0.80786 0.90077 0.5795 0.0
H140 H 0.74953 0.89992 0.54664 0.0
H141 H 0.73262 0.83545 0.55003 0.0
C142 C 0.78275 0.90767 0.59613 0.0
C143 C 0.80053 0.92252 0.60443 0.0
C144 C 0.80003 0.93829 0.61246 0.0
C145 C 0.78166 0.93943 0.61234 0.0
C146 C 0.76357 0.92392 0.60443 0.0
C147 C 0.76406 0.90801 0.59647 0.0
C148 C 0.7825 0.86738 0.59355 0.0
C149 C 0.7921 0.85635 0.58896 0.0
C150 C 0.7915 0.84026 0.59571 0.0
C151 C 0.78121 0.83487 0.60718 0.0
C152 C 0.77107 0.8456 0.61155 0.0
C153 C 0.77158 0.86165 0.60472 0.0
C154 C 0.76533 0.87967 0.57076 0.0
C155 C 0.76336 0.89445 0.56382 0.0
C156 C 0.7503 0.88807 0.55198 0.0
C157 C 0.73923 0.8668 0.54674 0.0
C158 C 0.74102 0.85196 0.55382 0.0
C159 C 0.75397 0.85835 0.56575 0.0
P160 P 0.1358 0.84128 0.59702 0.0
H161 H 0.15895 0.86232 0.62276 0.0
H162 H 0.17788 0.89916 0.63218 0.0
H163 H 0.16084 0.91673 0.59587 0.0
H164 H 0.14236 0.87996 0.58646 0.0
H165 H 0.10572 0.79746 0.59923 0.0
H166 H 0.0702 0.77977 0.60563 0.0
H167 H 0.07164 0.83916 0.60945 0.0
H168 H 0.10728 0.85676 0.60325 0.0
H169 H 0.16533 0.83835 0.58075 0.0
H170 H 0.10862 0.84078 0.57467 0.0
O171 O 0.14761 0.82935 0.6037 0.0
H172 H 0.16787 0.83749 0.557 0.0
H173 H 0.11137 0.84066 0.55089 0.0
C174 C 0.14968 0.86847 0.60381 0.0
C175 C 0.15943 0.87414 0.61681 0.0
C176 C 0.17008 0.89519 0.62222 0.0
C177 C 0.17098 0.91093 0.61475 0.0
C178 C 0.1608 0.90507 0.6018 0.0
C179 C 0.15018 0.88401 0.5964 0.0
C180 C 0.10927 0.82845 0.60106 0.0
C181 C 0.09837 0.80665 0.60145 0.0
C182 C 0.078 0.79654 0.605 0.0
C183 C 0.06812 0.80808 0.60814 0.0
C184 C 0.07893 0.82988 0.60733 0.0
C185 C 0.09931 0.83996 0.60375 0.0
C186 C 0.1366 0.83924 0.57942 0.0
C187 C 0.15334 0.83855 0.57427 0.0
C188 C 0.15488 0.8383 0.56068 0.0
C189 C 0.13985 0.83906 0.552 0.0
C190 C 0.12303 0.83971 0.55724 0.0
C191 C 0.12145 0.83983 0.57085 0.0
P192 P 0.96474 0.49247 0.73601 0.0
H193 H 0.95785 0.47162 0.7095 0.0
H194 H 0.93868 0.43466 0.70022 0.0
H195 H 0.92207 0.41631 0.73907 0.0
H196 H 0.94085 0.45316 0.74818 0.0
H197 H 0.97995 0.5346 0.7282 0.0
H198 H 0.96221 0.55196 0.71892 0.0
H199 H 0.90249 0.49588 0.72055 0.0
H200 H 0.92046 0.47843 0.72938 0.0
H201 H 0.99685 0.49761 0.75634 0.0
H202 H 0.93638 0.49275 0.75476 0.0
O203 O 0.98876 0.50355 0.73125 0.0
H204 H 0.99852 0.49897 0.78043 0.0
H205 H 0.93803 0.49433 0.77885 0.0
C206 C 0.95094 0.46514 0.72952 0.0
C207 C 0.95012 0.4596 0.716 0.0
C208 C 0.93922 0.43848 0.71073 0.0
C209 C 0.92888 0.42252 0.71891 0.0
C210 C 0.92966 0.42821 0.73247 0.0
C211 C 0.94056 0.44933 0.73772 0.0
C212 C 0.95153 0.50516 0.72925 0.0
C213 C 0.96305 0.52602 0.72646 0.0
C214 C 0.95285 0.53598 0.72127 0.0
C215 C 0.93088 0.52531 0.71894 0.0
C216 C 0.91941 0.50444 0.72197 0.0
C217 C 0.92966 0.49447 0.72708 0.0
C218 C 0.96669 0.4955 0.75379 0.0
C219 C 0.9841 0.49722 0.76119 0.0
C220 C 0.98505 0.49803 0.77497 0.0
C221 C 0.96844 0.49684 0.78155 0.0
C222 C 0.95102 0.49516 0.77406 0.0
C223 C 0.95014 0.49445 0.76029 0.0
P224 P 0.56885 0.44202 0.76269 0.0
H225 H 0.56448 0.41406 0.73983 0.0
H226 H 0.5342 0.38592 0.72584 0.0
H227 H 0.49338 0.39971 0.74752 0.0
H228 H 0.52379 0.42777 0.76155 0.0
H229 H 0.60981 0.47795 0.77128 0.0
H230 H 0.63508 0.50663 0.75995 0.0
H231 H 0.59039 0.48438 0.72511 0.0
H232 H 0.56526 0.45561 0.73649 0.0
H233 H 0.55872 0.42374 0.78745 0.0
H234 H 0.56156 0.47681 0.77029 0.0
O235 O 0.58259 0.43068 0.76706 0.0
H236 H 0.54865 0.43386 0.80779 0.0
H237 H 0.55174 0.48729 0.79076 0.0
C238 C 0.54637 0.42279 0.75181 0.0
C239 C 0.54902 0.41111 0.7415 0.0
C240 C 0.5317 0.39514 0.73345 0.0
C241 C 0.51137 0.39054 0.7356 0.0
C242 C 0.50883 0.40272 0.74573 0.0
C243 C 0.52621 0.4188 0.75374 0.0
C244 C 0.58581 0.46454 0.75469 0.0
C245 C 0.60538 0.47943 0.76126 0.0
C246 C 0.61976 0.49588 0.75479 0.0
C247 C 0.61479 0.49772 0.74159 0.0
C248 C 0.59479 0.48321 0.73521 0.0
C249 C 0.58038 0.46677 0.74173 0.0
C250 C 0.56136 0.44982 0.77753 0.0
C251 C 0.55736 0.43771 0.78813 0.0
C252 C 0.55167 0.44355 0.79976 0.0
C253 C 0.54969 0.46155 0.80096 0.0
C254 C 0.55314 0.47335 0.79014 0.0
C255 C 0.55889 0.46747 0.77848 0.0
P256 P 0.53014 0.05638 0.75019 0.0
H257 H 0.49641 0.04109 0.72867 0.0
H258 H 0.47576 0.05568 0.71977 0.0
H259 H 0.51157 0.1116 0.74748 0.0
H260 H 0.53187 0.09653 0.75658 0.0
H261 H 0.54905 0.04348 0.73003 0.0
H262 H 0.58378 0.06048 0.72255 0.0
H263 H 0.60229 0.11514 0.75036 0.0
H264 H 0.56746 0.09769 0.75802 0.0
H265 H 0.50085 0.05541 0.7684 0.0
H266 H 0.56098 0.05943 0.77093 0.0
O267 O 0.51801 0.03084 0.74469 0.0
H268 H 0.50017 0.05354 0.79216 0.0
H269 H 0.56065 0.05806 0.79481 0.0
C270 C 0.51548 0.06763 0.74339 0.0
C271 C 0.49982 0.05647 0.73285 0.0
C272 C 0.48811 0.06494 0.72769 0.0
C273 C 0.49197 0.08483 0.73291 0.0
C274 C 0.50799 0.09612 0.74335 0.0
C275 C 0.51969 0.08761 0.74851 0.0
C276 C 0.5558 0.06922 0.7447 0.0
C277 C 0.56059 0.05908 0.73457 0.0
C278 C 0.58043 0.06892 0.73021 0.0
C279 C 0.59585 0.0892 0.73585 0.0
C280 C 0.59088 0.09942 0.74593 0.0
C281 C 0.57096 0.08953 0.75028 0.0
C282 C 0.53123 0.05816 0.76794 0.0
C283 C 0.51418 0.05647 0.77413 0.0
C284 C 0.51382 0.05542 0.78775 0.0
C285 C 0.53041 0.05577 0.79543 0.0
C286 C 0.54757 0.05764 0.78918 0.0
C287 C 0.54789 0.05867 0.77555 0.0
P288 P 0.79564 0.61527 0.92679 0.0
H289 H 0.78034 0.61989 0.95159 0.0
H290 H 0.74567 0.6035 0.95913 0.0
H291 H 0.71969 0.56466 0.92162 0.0
H292 H 0.75456 0.58169 0.91402 0.0
H293 H 0.83965 0.63203 0.93566 0.0
H294 H 0.85973 0.61559 0.94248 0.0
H295 H 0.80367 0.55452 0.93547 0.0
H296 H 0.78359 0.57114 0.92866 0.0
H297 H 0.79391 0.64519 0.91029 0.0
H298 H 0.79487 0.58729 0.9045 0.0
O299 O 0.80825 0.63998 0.93406 0.0
H300 H 0.79531 0.64837 0.88661 0.0
H301 H 0.79657 0.5905 0.88083 0.0
C302 C 0.76992 0.60231 0.93217 0.0
C303 C 0.76717 0.6079 0.94497 0.0
C304 C 0.74733 0.59833 0.94931 0.0
C305 C 0.72982 0.58274 0.94098 0.0
C306 C 0.73276 0.57684 0.92822 0.0
C307 C 0.75268 0.58651 0.92387 0.0
C308 C 0.81007 0.60284 0.93193 0.0
C309 C 0.83162 0.61512 0.9357 0.0
C310 C 0.84308 0.60571 0.9396 0.0
C311 C 0.83323 0.58378 0.93962 0.0
C312 C 0.81168 0.57145 0.93553 0.0
C313 C 0.80017 0.58093 0.93174 0.0
C314 C 0.79479 0.61628 0.90919 0.0
C315 C 0.79441 0.63315 0.90392 0.0
C316 C 0.79528 0.63498 0.89039 0.0
C317 C 0.79634 0.61983 0.88187 0.0
C318 C 0.79572 0.6024 0.88712 0.0
C319 C 0.79491 0.60063 0.90068 0.0
P320 P 0.45095 0.22178 0.91993 0.0
H321 H 0.47375 0.24926 0.94394 0.0
H322 H 0.47084 0.2768 0.95655 0.0
H323 H 0.41528 0.26119 0.93099 0.0
H324 H 0.41847 0.23378 0.91831 0.0
H325 H 0.45969 0.1886 0.91286 0.0
H326 H 0.45697 0.15932 0.92411 0.0
H327 H 0.42965 0.17569 0.95574 0.0
H328 H 0.43265 0.20517 0.94444 0.0
H329 H 0.45558 0.24381 0.89676 0.0
H330 H 0.4125 0.18312 0.9084 0.0
O331 O 0.47608 0.23458 0.91726 0.0
H332 H 0.43649 0.23339 0.87469 0.0
H333 H 0.3936 0.17231 0.88619 0.0
C334 C 0.44655 0.23975 0.9301 0.0
C335 C 0.4608 0.25162 0.94116 0.0
C336 C 0.45902 0.26725 0.94841 0.0
C337 C 0.44289 0.27128 0.94472 0.0
C338 C 0.42805 0.25867 0.93395 0.0
C339 C 0.42983 0.24296 0.92672 0.0
C340 C 0.44664 0.19917 0.92789 0.0
C341 C 0.45295 0.18576 0.92216 0.0
C342 C 0.45122 0.16893 0.92856 0.0
C343 C 0.44313 0.1652 0.94085 0.0
C344 C 0.43618 0.17831 0.94637 0.0
C345 C 0.43785 0.19515 0.9399 0.0
C346 C 0.43574 0.21407 0.90407 0.0
C347 C 0.44204 0.22819 0.89452 0.0
C348 C 0.43117 0.22217 0.8819 0.0
C349 C 0.41374 0.20188 0.87861 0.0
C350 C 0.40695 0.18804 0.88841 0.0
C351 C 0.41784 0.19414 0.90108 0.0
P352 P 0.80193 0.17747 0.9303 0.0
H353 H 0.80086 0.19937 0.95496 0.0
H354 H 0.81992 0.23638 0.96411 0.0
H355 H 0.85176 0.25272 0.92892 0.0
H356 H 0.83298 0.21576 0.91996 0.0
H357 H 0.77548 0.1349 0.937 0.0
H358 H 0.73985 0.1162 0.94313 0.0
H359 H 0.73405 0.1708 0.93806 0.0
H360 H 0.76987 0.1895 0.93206 0.0
H361 H 0.81987 0.15904 0.91278 0.0
H362 H 0.7838 0.18994 0.90899 0.0
O363 O 0.81505 0.16701 0.93725 0.0
H364 H 0.82139 0.15711 0.88892 0.0
H365 H 0.78559 0.18846 0.88508 0.0
C366 C 0.81505 0.20487 0.93663 0.0
C367 C 0.81174 0.21097 0.94915 0.0
C368 C 0.82262 0.23213 0.95436 0.0
C369 C 0.83727 0.24752 0.94721 0.0
C370 C 0.84068 0.24126 0.93471 0.0
C371 C 0.82977 0.22011 0.92952 0.0
C372 C 0.77545 0.16372 0.9344 0.0
C373 C 0.76656 0.14286 0.93724 0.0
C374 C 0.74611 0.13213 0.94063 0.0
C375 C 0.73415 0.14207 0.94116 0.0
C376 C 0.74297 0.16284 0.93795 0.0
C377 C 0.76341 0.17352 0.9345 0.0
C378 C 0.80169 0.1746 0.91263 0.0
C379 C 0.81218 0.16532 0.9068 0.0
C380 C 0.81316 0.16436 0.89315 0.0
C381 C 0.80371 0.17274 0.88509 0.0
C382 C 0.79283 0.18165 0.89098 0.0
C383 C 0.79184 0.18256 0.90464 0.0
P384 P 0.63487 0.82701 0.07088 0.0
H385 H 0.63435 0.80534 0.04582 0.0
H386 H 0.61546 0.76832 0.03672 0.0
H387 H 0.58496 0.75174 0.07241 0.0
H388 H 0.60417 0.78866 0.0815 0.0
H389 H 0.64938 0.8689 0.06285 0.0
H390 H 0.63108 0.88604 0.05412 0.0
H391 H 0.57183 0.83028 0.05737 0.0
H392 H 0.59033 0.81303 0.06564 0.0
H393 H 0.66681 0.82938 0.09013 0.0
H394 H 0.60885 0.82955 0.09074 0.0
O395 O 0.6586 0.83832 0.06568 0.0
H396 H 0.67016 0.83104 0.11421 0.0
H397 H 0.61172 0.83056 0.11478 0.0
C398 C 0.62103 0.79968 0.06443 0.0
C399 C 0.62371 0.79369 0.05171 0.0
C400 C 0.61275 0.77255 0.04648 0.0
C401 C 0.59877 0.75705 0.05387 0.0
C402 C 0.59589 0.76322 0.06656 0.0
C403 C 0.60686 0.78437 0.07177 0.0
C404 C 0.62121 0.8396 0.06466 0.0
C405 C 0.63245 0.86034 0.0616 0.0
C406 C 0.62194 0.87019 0.05673 0.0
C407 C 0.59994 0.85954 0.055 0.0
C408 C 0.58875 0.83882 0.05833 0.0
C409 C 0.59931 0.82895 0.06312 0.0
C410 C 0.63781 0.82975 0.08867 0.0
C411 C 0.65488 0.82995 0.09546 0.0
C412 C 0.65666 0.83068 0.10923 0.0
C413 C 0.6412 0.83093 0.11645 0.0
C414 C 0.6241 0.83076 0.10957 0.0
C415 C 0.6224 0.83013 0.09579 0.0
P416 P 0.2352 0.77776 0.09877 0.0
H417 H 0.23138 0.73976 0.08523 0.0
H418 H 0.20364 0.71077 0.07026 0.0
H419 H 0.1673 0.74183 0.07117 0.0
H420 H 0.19504 0.77058 0.08651 0.0
H421 H 0.27845 0.81038 0.10621 0.0
H422 H 0.30434 0.838 0.09451 0.0
H423 H 0.25771 0.8201 0.06121 0.0
H424 H 0.2319 0.79243 0.07297 0.0
H425 H 0.20028 0.75408 0.11368 0.0
H426 H 0.24556 0.81932 0.11173 0.0
O427 O 0.24842 0.76806 0.10654 0.0
H428 H 0.18686 0.76404 0.13238 0.0
H429 H 0.23208 0.82945 0.13042 0.0
C430 C 0.21504 0.75706 0.08717 0.0
C431 C 0.21743 0.74032 0.08223 0.0
C432 C 0.20161 0.72383 0.07355 0.0
C433 C 0.18317 0.72391 0.06953 0.0
C434 C 0.18112 0.74109 0.07424 0.0
C435 C 0.19698 0.75756 0.08297 0.0
C436 C 0.25338 0.79914 0.09038 0.0
C437 C 0.27378 0.81249 0.09642 0.0
C438 C 0.28852 0.82837 0.08976 0.0
C439 C 0.28309 0.83116 0.0769 0.0
C440 C 0.26241 0.81814 0.07104 0.0
C441 C 0.24763 0.80234 0.07776 0.0
C442 C 0.22372 0.78594 0.11119 0.0
C443 C 0.20703 0.7706 0.11709 0.0
C444 C 0.19933 0.77633 0.12778 0.0
C445 C 0.20836 0.79756 0.13287 0.0
C446 C 0.22488 0.81296 0.12677 0.0
C447 C 0.23252 0.80719 0.11602 0.0
P448 P 0.19371 0.38259 0.08128 0.0
H449 H 0.16143 0.36955 0.0591 0.0
H450 H 0.14044 0.38447 0.05114 0.0
H451 H 0.17281 0.43655 0.08183 0.0
H452 H 0.19339 0.42116 0.0901 0.0
H453 H 0.2209 0.36705 0.07303 0.0
H454 H 0.25605 0.38421 0.06611 0.0
H455 H 0.26012 0.44456 0.07308 0.0
H456 H 0.22488 0.42728 0.08002 0.0
H457 H 0.16303 0.35315 0.09685 0.0
H458 H 0.22232 0.41091 0.10435 0.0
O459 O 0.18197 0.35772 0.07435 0.0
H460 H 0.16126 0.35134 0.12054 0.0
H461 H 0.22044 0.40955 0.1282 0.0
C462 C 0.17895 0.39423 0.07521 0.0
C463 C 0.16401 0.38413 0.06418 0.0
C464 C 0.15199 0.39263 0.05964 0.0
C465 C 0.155 0.4116 0.06591 0.0
C466 C 0.17028 0.42195 0.07681 0.0
C467 C 0.18203 0.41319 0.08151 0.0
C468 C 0.22005 0.39581 0.07678 0.0
C469 C 0.22928 0.38397 0.07304 0.0
C470 C 0.24938 0.39379 0.06906 0.0
C471 C 0.26076 0.41571 0.06891 0.0
C472 C 0.25174 0.42764 0.07311 0.0
C473 C 0.23152 0.41775 0.07699 0.0
C474 C 0.19298 0.38192 0.09885 0.0
C475 C 0.1757 0.36547 0.10362 0.0
C476 C 0.17461 0.36457 0.11719 0.0
C477 C 0.19071 0.38031 0.12631 0.0
C478 C 0.20792 0.39701 0.12146 0.0
C479 C 0.209 0.39785 0.10783 0.0
P480 P 0.46043 0.94413 0.25775 0.0
H481 H 0.44501 0.95541 0.28068 0.0
H482 H 0.41037 0.94084 0.28824 0.0
H483 H 0.38485 0.89298 0.25473 0.0
H484 H 0.41979 0.90751 0.24736 0.0
H485 H 0.49782 0.95798 0.27618 0.0
H486 H 0.51658 0.94053 0.28344 0.0
H487 H 0.47028 0.88308 0.25989 0.0
H488 H 0.45168 0.90088 0.25248 0.0
H489 H 0.4343 0.95047 0.23815 0.0
H490 H 0.48502 0.93765 0.23844 0.0
O491 O 0.47417 0.96943 0.26385 0.0
H492 H 0.43484 0.95288 0.21434 0.0
H493 H 0.48577 0.94021 0.21475 0.0
C494 C 0.43484 0.93282 0.26331 0.0
C495 C 0.43195 0.94183 0.27493 0.0
C496 C 0.4121 0.93352 0.27922 0.0
C497 C 0.39476 0.91591 0.27199 0.0
C498 C 0.39787 0.90652 0.26054 0.0
C499 C 0.41779 0.91488 0.25626 0.0
C500 C 0.47338 0.93071 0.26378 0.0
C501 C 0.4916 0.9416 0.27263 0.0
C502 C 0.50228 0.93155 0.27683 0.0
C503 C 0.49493 0.91039 0.27226 0.0
C504 C 0.47646 0.89944 0.26349 0.0
C505 C 0.46574 0.90953 0.25933 0.0
C506 C 0.45921 0.9433 0.24002 0.0
C507 C 0.44529 0.94779 0.23305 0.0
C508 C 0.44574 0.94934 0.21947 0.0
C509 C 0.46029 0.94663 0.21264 0.0
C510 C 0.4741 0.94196 0.21966 0.0
C511 C 0.47367 0.94049 0.23324 0.0
P512 P 0.12634 0.56106 0.25222 0.0
H513 H 0.1549 0.59594 0.27161 0.0
H514 H 0.15125 0.62212 0.28526 0.0
H515 H 0.08561 0.59087 0.27095 0.0
H516 H 0.08939 0.5645 0.25734 0.0
H517 H 0.15828 0.55241 0.26283 0.0
H518 H 0.15677 0.52416 0.2746 0.0
H519 H 0.08962 0.49549 0.27311 0.0
H520 H 0.09139 0.52437 0.26154 0.0
H521 H 0.11014 0.58127 0.23545 0.0
H522 H 0.10472 0.52034 0.23565 0.0
O523 O 0.15023 0.57455 0.24742 0.0
H524 H 0.08972 0.57016 0.21381 0.0
H525 H 0.08464 0.50926 0.21388 0.0
C526 C 0.12258 0.57873 0.26317 0.0
C527 C 0.13969 0.59463 0.27147 0.0
C528 C 0.13754 0.60948 0.27935 0.0
C529 C 0.11817 0.60864 0.27908 0.0
C530 C 0.10078 0.59206 0.2712 0.0
C531 C 0.10293 0.57704 0.26342 0.0
C532 C 0.12489 0.54022 0.2611 0.0
C533 C 0.14321 0.54004 0.26499 0.0
C534 C 0.1423 0.52378 0.27167 0.0
C535 C 0.12303 0.50736 0.27462 0.0
C536 C 0.10471 0.5079 0.27101 0.0
C537 C 0.10566 0.5243 0.26434 0.0
C538 C 0.10841 0.55145 0.23737 0.0
C539 C 0.10412 0.56532 0.23099 0.0
C540 C 0.09265 0.55903 0.21854 0.0
C541 C 0.08557 0.53882 0.21211 0.0
C542 C 0.08955 0.52479 0.21865 0.0
C543 C 0.10104 0.53113 0.23113 0.0
P544 P 0.46955 0.51185 0.26403 0.0
H545 H 0.49238 0.53228 0.2899 0.0
H546 H 0.51096 0.5689 0.29975 0.0
H547 H 0.49436 0.5874 0.2637 0.0
H548 H 0.47623 0.55086 0.25385 0.0
H549 H 0.43994 0.4679 0.26627 0.0
H550 H 0.40436 0.44975 0.27257 0.0
H551 H 0.40512 0.5088 0.27674 0.0
H552 H 0.44082 0.52684 0.27066 0.0
H553 H 0.49838 0.50899 0.24699 0.0
H554 H 0.44167 0.51173 0.2423 0.0
O555 O 0.48168 0.49993 0.27028 0.0
H556 H 0.4998 0.50812 0.22307 0.0
H557 H 0.44294 0.51079 0.21833 0.0
C558 C 0.48336 0.53892 0.27106 0.0
C559 C 0.4929 0.54426 0.28409 0.0
C560 C 0.50334 0.56518 0.28975 0.0
C561 C 0.50424 0.58112 0.28249 0.0
C562 C 0.49431 0.57559 0.26948 0.0
C563 C 0.48389 0.55466 0.26383 0.0
C564 C 0.44316 0.49874 0.2683 0.0
C565 C 0.43245 0.47692 0.26858 0.0
C566 C 0.41204 0.46655 0.27207 0.0
C567 C 0.40193 0.47785 0.27524 0.0
C568 C 0.41259 0.4997 0.27459 0.0
C569 C 0.43301 0.51003 0.27109 0.0
C570 C 0.46972 0.51003 0.24636 0.0
C571 C 0.48608 0.50913 0.24078 0.0
C572 C 0.48685 0.50859 0.22712 0.0
C573 C 0.47141 0.50926 0.21882 0.0
C574 C 0.4551 0.51033 0.22448 0.0
C575 C 0.45427 0.5107 0.23815 0.0
C576 C 0.52716 0.01305 0.04255 0.0
Eu577 Eu 0.51118 0.00847 0.01826 0.0
C578 C 0.51949 0.00618 0.05533 0.0
C579 C 0.52834 0.02058 0.06674 0.0
C580 C 0.52121 0.01455 0.07897 0.0
C581 C 0.5051 0.99395 0.08002 0.0
C582 C 0.49626 0.97951 0.06855 0.0
C583 C 0.50336 0.98558 0.0563 0.0
C584 C 0.49624 0.03172 0.00797 0.0
C585 C 0.46128 0.97274 0.01464 0.0
C586 C 0.47071 0.9872 0.96641 0.0
Eu587 Eu 0.4873 0.99159 0.99053 0.0
C588 C 0.47753 0.99395 0.95347 0.0
C589 C 0.46534 0.98116 0.94195 0.0
C590 C 0.47121 0.9874 0.92953 0.0
C591 C 0.48944 0.00658 0.92839 0.0
C592 C 0.50179 0.01927 0.93999 0.0
C593 C 0.49585 0.01302 0.95243 0.0
C594 C 0.5026 0.96852 0.00081 0.0
C595 C 0.53747 0.02682 0.99413 0.0
O596 O 0.52514 0.99854 0.03349 0.0
O597 O 0.52267 0.0265 0.03775 0.0
O598 O 0.51411 0.03983 0.01514 0.0
O599 O 0.48677 0.01195 0.00709 0.0
O600 O 0.47949 0.98155 0.02205 0.0
O601 O 0.45983 0.97648 0.00225 0.0
O602 O 0.47336 0.00189 0.97555 0.0
O603 O 0.47541 0.97375 0.97097 0.0
O604 O 0.48479 0.96023 0.99352 0.0
O605 O 0.51177 0.98825 0.00165 0.0
O606 O 0.51933 0.01801 0.98661 0.0
O607 O 0.53871 0.02332 0.0066 0.0
H608 H 0.54081 0.03653 0.06619 0.0
H609 H 0.52852 0.02596 0.08765 0.0
H610 H 0.4837 0.9636 0.06902 0.0
H611 H 0.49622 0.9742 0.04761 0.0
H612 H 0.4512 0.96635 0.94258 0.0
H613 H 0.46154 0.97712 0.9208 0.0
H614 H 0.51581 0.03421 0.93945 0.0
H615 H 0.50543 0.02316 0.96122 0.0
C616 C 0.99524 0.52046 0.03634 0.0
Eu617 Eu 0.9917 0.50351 0.0124 0.0
C618 C 0.001 0.51818 0.04989 0.0
C619 C 0.00072 0.49982 0.05302 0.0
C620 C 0.00644 0.49812 0.06602 0.0
C621 C 0.0127 0.51483 0.076 0.0
C622 C 0.01295 0.53317 0.07275 0.0
C623 C 0.00713 0.5348 0.05981 0.0
C624 C 0.9645 0.46334 0.00216 0.0
C625 C 0.02336 0.48483 0.00991 0.0
C626 C 0.99525 0.47341 0.96106 0.0
Eu627 Eu 0.99927 0.49061 0.985 0.0
C628 C 0.99046 0.4765 0.94749 0.0
C629 C 0.99488 0.49636 0.9442 0.0
C630 C 0.99118 0.49919 0.93109 0.0
C631 C 0.98283 0.48216 0.9211 0.0
C632 C 0.97794 0.46219 0.92454 0.0
C633 C 0.98177 0.45941 0.93763 0.0
C634 C 0.0268 0.5307 0.99516 0.0
C635 C 0.96797 0.50974 0.98763 0.0
O636 O 0.01035 0.52778 0.02871 0.0
O637 O 0.97769 0.50491 0.0303 0.0
O638 O 0.95916 0.47461 0.00944 0.0
O639 O 0.98387 0.47315 0.00144 0.0
O640 O 0.01754 0.49609 0.01726 0.0
O641 O 0.01588 0.47809 0.99735 0.0
O642 O 0.97994 0.46681 0.96854 0.0
O643 O 0.01313 0.48807 0.96731 0.0
O644 O 0.03176 0.51939 0.98761 0.0
O645 O 0.00745 0.52104 0.99602 0.0
O646 O 0.97327 0.49796 0.98033 0.0
O647 O 0.97584 0.51671 1.00009 0.0
H648 H 0.99618 0.48689 0.04542 0.0
H649 H 0.00631 0.4839 0.06821 0.0
H650 H 0.01747 0.54621 0.08026 0.0
H651 H 0.00744 0.54908 0.05753 0.0
H652 H 0.00141 0.50972 0.95173 0.0
H653 H 0.99487 0.51469 0.92875 0.0
H654 H 0.97169 0.44881 0.91705 0.0
H655 H 0.97823 0.44397 0.94002 0.0
C656 C 0.46771 0.48334 0.96675 0.0
Eu657 Eu 0.4836 0.49931 0.99103 0.0
C658 C 0.47524 0.48484 0.95351 0.0
C659 C 0.47558 0.49978 0.94551 0.0
C660 C 0.48245 0.50099 0.93295 0.0
C661 C 0.48903 0.48722 0.92809 0.0
C662 C 0.48855 0.47218 0.93606 0.0
C663 C 0.48169 0.47097 0.9486 0.0
C664 C 0.49898 0.53972 0.00114 0.0
C665 C 0.53391 0.51613 0.99402 0.0
C666 C 0.52436 0.52873 0.04254 0.0
Eu667 Eu 0.50798 0.51178 0.01849 0.0
C668 C 0.51757 0.52635 0.05588 0.0
C669 C 0.50223 0.50679 0.05923 0.0
C670 C 0.49639 0.50476 0.07207 0.0
C671 C 0.50562 0.5223 0.08172 0.0
C672 C 0.52065 0.54193 0.07822 0.0
C673 C 0.52661 0.54391 0.06542 0.0
C674 C 0.49313 0.47147 0.00848 0.0
C675 C 0.45741 0.49418 0.01544 0.0
O676 O 0.47352 0.47402 0.97511 0.0
O677 O 0.46802 0.49995 0.97241 0.0
O678 O 0.48108 0.52872 0.994 0.0
O679 O 0.50823 0.52943 0.00193 0.0
O680 O 0.51566 0.50487 0.98671 0.0
O681 O 0.53524 0.52352 0.00642 0.0
O682 O 0.51615 0.53649 0.03455 0.0
O683 O 0.52556 0.51308 0.03672 0.0
O684 O 0.51071 0.48255 0.01594 0.0
O685 O 0.48362 0.48153 0.00754 0.0
O686 O 0.47561 0.50536 0.02284 0.0
O687 O 0.45622 0.48729 0.00295 0.0
H688 H 0.47053 0.51057 0.94893 0.0
H689 H 0.48277 0.51285 0.9271 0.0
H690 H 0.49315 0.46108 0.93252 0.0
H691 H 0.48133 0.45905 0.95442 0.0
H692 H 0.49487 0.49308 0.05195 0.0
H693 H 0.48459 0.4895 0.07445 0.0
H694 H 0.52815 0.55567 0.08547 0.0
H695 H 0.53841 0.55913 0.06298 0.0
C696 C 0.19456 0.34499 0.37543 0.0
Eu697 Eu 0.17855 0.34344 0.35163 0.0
C698 C 0.18678 0.33897 0.38825 0.0
C699 C 0.16627 0.33353 0.39038 0.0
C700 C 0.15902 0.32759 0.40262 0.0
C701 C 0.17216 0.3269 0.41288 0.0
C702 C 0.19268 0.33229 0.41063 0.0
C703 C 0.19991 0.33828 0.39841 0.0
C704 C 0.16315 0.36757 0.34342 0.0
C705 C 0.12839 0.30847 0.34768 0.0
C706 C 0.13802 0.32882 0.30037 0.0
Eu707 Eu 0.15433 0.32945 0.32386 0.0
C708 C 0.14489 0.33475 0.28731 0.0
C709 C 0.16228 0.33424 0.28302 0.0
C710 C 0.16818 0.33953 0.27042 0.0
C711 C 0.15687 0.34553 0.26193 0.0
C712 C 0.1398 0.3465 0.26646 0.0
C713 C 0.13386 0.34112 0.27901 0.0
C714 C 0.17002 0.3054 0.3319 0.0
C715 C 0.20482 0.36369 0.32776 0.0
O716 O 0.18901 0.32944 0.36621 0.0
O717 O 0.19325 0.3606 0.37105 0.0
O718 O 0.18099 0.37514 0.35054 0.0
O719 O 0.15394 0.34782 0.34163 0.0
O720 O 0.14663 0.31644 0.35494 0.0
O721 O 0.12694 0.31352 0.33562 0.0
O722 O 0.14423 0.34435 0.30972 0.0
O723 O 0.13896 0.31283 0.30444 0.0
O724 O 0.15244 0.29781 0.32445 0.0
O725 O 0.17892 0.32511 0.33385 0.0
O726 O 0.18666 0.35585 0.32037 0.0
O727 O 0.20598 0.3588 0.3399 0.0
H728 H 0.15587 0.33384 0.38258 0.0
H729 H 0.14308 0.3233 0.404 0.0
H730 H 0.20326 0.33217 0.41837 0.0
H731 H 0.21577 0.34239 0.3969 0.0
H732 H 0.17114 0.32957 0.28936 0.0
H733 H 0.18131 0.33846 0.26723 0.0
H734 H 0.13101 0.35149 0.26033 0.0
H735 H 0.12057 0.34185 0.28223 0.0
C736 C 0.66087 0.85652 0.36974 0.0
Eu737 Eu 0.65765 0.83781 0.34641 0.0
C738 C 0.66447 0.85416 0.38364 0.0
C739 C 0.66531 0.83658 0.38728 0.0
C740 C 0.66834 0.83447 0.40065 0.0
C741 C 0.67058 0.84991 0.41054 0.0
C742 C 0.66991 0.86757 0.40675 0.0
C743 C 0.66685 0.86964 0.39342 0.0
C744 C 0.63054 0.79691 0.33747 0.0
C745 C 0.68923 0.81898 0.34528 0.0
C746 C 0.66118 0.80386 0.2963 0.0
Eu747 Eu 0.66496 0.82273 0.31966 0.0
C748 C 0.65765 0.80677 0.28248 0.0
C749 C 0.66007 0.82591 0.27909 0.0
C750 C 0.65786 0.82885 0.2658 0.0
C751 C 0.65313 0.81267 0.25572 0.0
C752 C 0.65015 0.79333 0.25926 0.0
C753 C 0.65244 0.79044 0.27253 0.0
C754 C 0.69246 0.86347 0.32858 0.0
C755 C 0.63363 0.8419 0.32092 0.0
O756 O 0.67666 0.86187 0.36276 0.0
O757 O 0.64309 0.84194 0.36335 0.0
O758 O 0.62525 0.80864 0.3443 0.0
O759 O 0.64983 0.80669 0.3366 0.0
O760 O 0.684 0.83139 0.35195 0.0
O761 O 0.68098 0.8107 0.333 0.0
O762 O 0.64551 0.79865 0.30337 0.0
O763 O 0.67913 0.81805 0.3027 0.0
O764 O 0.69737 0.8516 0.32156 0.0
O765 O 0.67315 0.85394 0.32954 0.0
O766 O 0.63868 0.82938 0.31422 0.0
O767 O 0.64201 0.85018 0.33316 0.0
H768 H 0.6635 0.82449 0.3798 0.0
H769 H 0.66864 0.82062 0.40324 0.0
H770 H 0.672 0.87996 0.41409 0.0
H771 H 0.66634 0.88335 0.39074 0.0
H772 H 0.66404 0.83867 0.28669 0.0
H773 H 0.66042 0.84399 0.26343 0.0
H774 H 0.64611 0.78041 0.25177 0.0
H775 H 0.65039 0.77553 0.27501 0.0
C776 C 0.13218 0.81748 0.30121 0.0
Eu777 Eu 0.15016 0.83353 0.32515 0.0
C778 C 0.13833 0.81782 0.28773 0.0
C779 C 0.126 0.81903 0.27725 0.0
C780 C 0.13146 0.81933 0.26435 0.0
C781 C 0.1494 0.81842 0.2617 0.0
C782 C 0.16183 0.81737 0.27228 0.0
C783 C 0.15634 0.81707 0.28517 0.0
C784 C 0.16491 0.87369 0.33558 0.0
C785 C 0.20053 0.85117 0.32677 0.0
C786 C 0.19385 0.86361 0.37583 0.0
Eu787 Eu 0.17616 0.84648 0.352 0.0
C788 C 0.18763 0.86096 0.38928 0.0
C789 C 0.16955 0.84281 0.39191 0.0
C790 C 0.16413 0.84023 0.40484 0.0
C791 C 0.17666 0.85583 0.41533 0.0
C792 C 0.19452 0.8742 0.41252 0.0
C793 C 0.19996 0.8767 0.39961 0.0
C794 C 0.16185 0.80637 0.34179 0.0
C795 C 0.12548 0.82793 0.35038 0.0
O796 O 0.13766 0.80768 0.30938 0.0
O797 O 0.13459 0.83512 0.30678 0.0
O798 O 0.14654 0.86216 0.32907 0.0
O799 O 0.17478 0.86395 0.33574 0.0
O800 O 0.18194 0.83927 0.31993 0.0
O801 O 0.20245 0.85892 0.33916 0.0
O802 O 0.18502 0.87119 0.36818 0.0
O803 O 0.19485 0.84801 0.36976 0.0
O804 O 0.17983 0.8179 0.34876 0.0
O805 O 0.15177 0.81592 0.34137 0.0
O806 O 0.144 0.83923 0.3574 0.0
O807 O 0.12365 0.82125 0.33776 0.0
H808 H 0.11211 0.81973 0.27904 0.0
H809 H 0.12172 0.82044 0.25648 0.0
H810 H 0.17559 0.81639 0.27056 0.0
H811 H 0.16608 0.81609 0.29312 0.0
H812 H 0.15978 0.83054 0.384 0.0
H813 H 0.15039 0.82582 0.40664 0.0
H814 H 0.20428 0.8867 0.4203 0.0
H815 H 0.21385 0.8909 0.39771 0.0
C816 C 0.86054 0.67744 0.70972 0.0
Eu817 Eu 0.84515 0.6762 0.68579 0.0
C818 C 0.85298 0.67146 0.72275 0.0
C819 C 0.85147 0.68579 0.73176 0.0
C820 C 0.84517 0.68043 0.74426 0.0
C821 C 0.84035 0.66068 0.74808 0.0
C822 C 0.84171 0.6463 0.73903 0.0
C823 C 0.84802 0.65166 0.72653 0.0
C824 C 0.83058 0.70081 0.67725 0.0
C825 C 0.79476 0.64186 0.68168 0.0
C826 C 0.8056 0.66128 0.63419 0.0
Eu827 Eu 0.82122 0.66213 0.65795 0.0
C828 C 0.81295 0.66725 0.6212 0.0
C829 C 0.8272 0.6623 0.61587 0.0
C830 C 0.83357 0.66786 0.6034 0.0
C831 C 0.82599 0.67865 0.59611 0.0
C832 C 0.81201 0.68387 0.60159 0.0
C833 C 0.80553 0.67817 0.61399 0.0
C834 C 0.83624 0.63777 0.66646 0.0
C835 C 0.8718 0.69601 0.66199 0.0
O836 O 0.85547 0.66212 0.70039 0.0
O837 O 0.85962 0.69324 0.70528 0.0
O838 O 0.84824 0.70812 0.68454 0.0
O839 O 0.82104 0.68104 0.6755 0.0
O840 O 0.81289 0.64971 0.68906 0.0
O841 O 0.79359 0.64675 0.66954 0.0
O842 O 0.81136 0.67679 0.64348 0.0
O843 O 0.80633 0.6453 0.63848 0.0
O844 O 0.81866 0.63026 0.65903 0.0
O845 O 0.84543 0.6575 0.6682 0.0
O846 O 0.85373 0.68823 0.65453 0.0
O847 O 0.87279 0.69126 0.67419 0.0
H848 H 0.85532 0.70124 0.72922 0.0
H849 H 0.84406 0.69179 0.75094 0.0
H850 H 0.83842 0.63108 0.74172 0.0
H851 H 0.84928 0.64035 0.71989 0.0
H852 H 0.83336 0.65409 0.62132 0.0
H853 H 0.84453 0.66383 0.59949 0.0
H854 H 0.80574 0.69199 0.59615 0.0
H855 H 0.79457 0.68219 0.61794 0.0
C856 C 0.32401 0.18438 0.70318 0.0
Eu857 Eu 0.3212 0.16799 0.67921 0.0
C858 C 0.32914 0.18174 0.71683 0.0
C859 C 0.32124 0.16173 0.72116 0.0
C860 C 0.32606 0.15975 0.73427 0.0
C861 C 0.33903 0.17773 0.7432 0.0
C862 C 0.34707 0.19769 0.73877 0.0
C863 C 0.34211 0.19966 0.72571 0.0
C864 C 0.2948 0.12767 0.66881 0.0
C865 C 0.35349 0.15004 0.67704 0.0
C866 C 0.32687 0.13942 0.62804 0.0
Eu867 Eu 0.32976 0.15584 0.65202 0.0
C868 C 0.32287 0.14299 0.61442 0.0
C869 C 0.33021 0.16339 0.61088 0.0
C870 C 0.32714 0.16646 0.59773 0.0
C871 C 0.3165 0.14917 0.58795 0.0
C872 C 0.30871 0.12876 0.59162 0.0
C873 C 0.31193 0.12572 0.60474 0.0
C874 C 0.35648 0.196 0.66247 0.0
C875 C 0.29748 0.17385 0.65429 0.0
O876 O 0.33946 0.19191 0.69581 0.0
O877 O 0.30652 0.16924 0.6968 0.0
O878 O 0.28901 0.13856 0.67607 0.0
O879 O 0.31418 0.13789 0.66824 0.0
O880 O 0.34772 0.16153 0.68421 0.0
O881 O 0.34579 0.14294 0.66455 0.0
O882 O 0.3111 0.1326 0.63515 0.0
O883 O 0.34455 0.15373 0.63469 0.0
O884 O 0.36203 0.18499 0.65513 0.0
O885 O 0.33706 0.186 0.66303 0.0
O886 O 0.3034 0.16256 0.64704 0.0
O887 O 0.30498 0.18072 0.66681 0.0
H888 H 0.31133 0.14765 0.71444 0.0
H889 H 0.31983 0.14418 0.73739 0.0
H890 H 0.35693 0.21181 0.74546 0.0
H891 H 0.34835 0.21522 0.72255 0.0
H892 H 0.33851 0.17694 0.61824 0.0
H893 H 0.3331 0.18234 0.59521 0.0
H894 H 0.30062 0.11516 0.58428 0.0
H895 H 0.30613 0.10988 0.6073 0.0
C896 C 0.8004 0.14635 0.63494 0.0
Eu897 Eu 0.81758 0.16432 0.65874 0.0
C898 C 0.80744 0.1472 0.62174 0.0
C899 C 0.82675 0.16385 0.61911 0.0
C900 C 0.83334 0.16431 0.60651 0.0
C901 C 0.82079 0.14803 0.5964 0.0
C902 C 0.80148 0.13138 0.59912 0.0
C903 C 0.79487 0.131 0.61169 0.0
C904 C 0.83215 0.20497 0.66792 0.0
C905 C 0.86812 0.18271 0.66084 0.0
C906 C 0.86063 0.19695 0.70954 0.0
Eu907 Eu 0.84331 0.17891 0.68578 0.0
C908 C 0.85422 0.19435 0.72293 0.0
C909 C 0.83444 0.17806 0.72514 0.0
C910 C 0.8287 0.1754 0.73799 0.0
C911 C 0.84268 0.18898 0.74883 0.0
C912 C 0.86239 0.20544 0.7465 0.0
C913 C 0.86809 0.20809 0.73365 0.0
C914 C 0.82911 0.13837 0.6766 0.0
C915 C 0.79259 0.16037 0.68361 0.0
O916 O 0.80733 0.1381 0.64342 0.0
O917 O 0.80091 0.1633 0.64015 0.0
O918 O 0.81408 0.19319 0.6611 0.0
O919 O 0.842 0.19527 0.66885 0.0
O920 O 0.84963 0.17034 0.65401 0.0
O921 O 0.86981 0.19099 0.67307 0.0
O922 O 0.85141 0.20385 0.70163 0.0
O923 O 0.8622 0.18152 0.70375 0.0
O924 O 0.84706 0.15026 0.68353 0.0
O925 O 0.81905 0.14787 0.67566 0.0
O926 O 0.81105 0.17213 0.69063 0.0
O927 O 0.79089 0.15279 0.67121 0.0
H928 H 0.83674 0.17641 0.62682 0.0
H929 H 0.84839 0.17719 0.60475 0.0
H930 H 0.7914 0.11873 0.59149 0.0
H931 H 0.77994 0.11803 0.61358 0.0
H932 H 0.82356 0.16727 0.71694 0.0
H933 H 0.8135 0.16245 0.73945 0.0
H934 H 0.87338 0.21636 0.75461 0.0
H935 H 0.88338 0.2208 0.73209 0.0
H936 H 0.31338 0.8716 0.08585 0.0
H937 H 0.34198 0.89622 0.07409 0.0
H938 H 0.31812 0.85084 0.03944 0.0
H939 H 0.28968 0.826 0.05119 0.0
H940 H 0.36129 0.86764 0.04802 0.0
H941 H 0.34128 0.93029 0.04345 0.0
H942 H 0.34124 0.92251 0.05979 0.0
H943 H 0.32241 0.90403 0.0467 0.0
C944 C 0.31415 0.86693 0.07569 0.0
C945 C 0.29928 0.84686 0.06944 0.0
C946 C 0.33038 0.88107 0.06896 0.0
C947 C 0.33202 0.8754 0.05587 0.0
C948 C 0.31701 0.85554 0.04952 0.0
H949 H 0.42069 0.95441 0.00351 0.0
H950 H 0.389 0.93057 0.0132 0.0
C951 C 0.30072 0.84143 0.05622 0.0
C952 C 0.35019 0.8896 0.04912 0.0
H953 H 0.37507 0.93812 0.03821 0.0
C954 C 0.36426 0.883 0.0458 0.0
C955 C 0.35389 0.90954 0.04617 0.0
C956 C 0.33884 0.91702 0.04909 0.0
C957 C 0.38223 0.89605 0.03987 0.0
C958 C 0.38628 0.91625 0.0373 0.0
C959 C 0.37197 0.92267 0.04031 0.0
C960 C 0.40543 0.93097 0.03157 0.0
C961 C 0.39674 0.88812 0.03635 0.0
C962 C 0.4251 0.93925 0.03878 0.0
C963 C 0.44323 0.9529 0.03331 0.0
C964 C 0.44201 0.95852 0.0205 0.0
C965 C 0.42222 0.95035 0.01336 0.0
C966 C 0.40408 0.93677 0.01889 0.0
H967 H 0.38914 0.87078 0.03625 0.0
H968 H 0.40214 0.89243 0.02651 0.0
H969 H 0.4107 0.8955 0.04378 0.0
H970 H 0.42642 0.93516 0.04866 0.0
H971 H 0.45817 0.95894 0.03911 0.0
H972 H 0.11258 0.39184 0.06197 0.0
H973 H 0.09105 0.4057 0.05313 0.0
H974 H 0.14677 0.46467 0.04959 0.0
H975 H 0.1683 0.45109 0.05903 0.0
H976 H 0.11806 0.47178 0.05817 0.0
H977 H 0.08121 0.41092 0.01517 0.0
H978 H 0.07646 0.39943 0.03043 0.0
H979 H 0.10279 0.41381 0.02602 0.0
C980 C 0.12018 0.40777 0.05931 0.0
C981 C 0.14206 0.42037 0.06105 0.0
C982 C 0.1079 0.41563 0.05417 0.0
C983 C 0.11728 0.43603 0.05032 0.0
C984 C 0.13916 0.44883 0.05239 0.0
H985 H 0.04874 0.47405 0.99754 0.0
H986 H 0.07271 0.46394 0.00756 0.0
C987 C 0.15145 0.4411 0.05778 0.0
C988 C 0.10428 0.44399 0.04415 0.0
H989 H 0.0656 0.43188 0.01945 0.0
C990 C 0.10669 0.46313 0.04964 0.0
C991 C 0.08973 0.43296 0.03284 0.0
C992 C 0.08755 0.41328 0.02569 0.0
C993 C 0.09471 0.47134 0.0443 0.0
C994 C 0.07933 0.45969 0.03346 0.0
C995 C 0.07718 0.44072 0.02785 0.0
C996 C 0.06545 0.4669 0.02758 0.0
C997 C 0.0991 0.49264 0.05017 0.0
C998 C 0.05329 0.47192 0.03545 0.0
C999 C 0.03988 0.47813 0.02976 0.0
C1000 C 0.03792 0.47884 0.01603 0.0
C1001 C 0.04986 0.47355 0.00814 0.0
C1002 C 0.06357 0.46778 0.01387 0.0
H1003 H 0.11532 0.50221 0.05512 0.0
H1004 H 0.09684 0.50154 0.0425 0.0
H1005 H 0.0883 0.49056 0.05775 0.0
H1006 H 0.05389 0.47071 0.04597 0.0
H1007 H 0.03069 0.48188 0.03607 0.0
H1008 H 0.59141 0.72304 0.06678 0.0
H1009 H 0.57326 0.68604 0.05765 0.0
H1010 H 0.56231 0.70306 0.01957 0.0
H1011 H 0.58027 0.74009 0.02863 0.0
H1012 H 0.53197 0.66024 0.04523 0.0
H1013 H 0.59147 0.66904 0.01169 0.0
H1014 H 0.59649 0.6889 0.025 0.0
H1015 H 0.58145 0.68653 0.00983 0.0
C1016 C 0.58497 0.7189 0.05649 0.0
C1017 C 0.58738 0.73453 0.04841 0.0
C1018 C 0.57469 0.69777 0.05128 0.0
C1019 C 0.56671 0.69188 0.0379 0.0
C1020 C 0.56873 0.70735 0.02986 0.0
H1021 H 0.48125 0.56441 0.00026 0.0
H1022 H 0.49706 0.6014 0.00931 0.0
C1023 C 0.57902 0.72849 0.03505 0.0
C1024 C 0.55636 0.66953 0.03238 0.0
H1025 H 0.56048 0.63583 0.00983 0.0
C1026 C 0.53816 0.65487 0.03748 0.0
C1027 C 0.56466 0.66259 0.02238 0.0
C1028 C 0.58469 0.67751 0.01696 0.0
C1029 C 0.52791 0.63341 0.03277 0.0
C1030 C 0.53598 0.62655 0.02259 0.0
C1031 C 0.55425 0.6412 0.01756 0.0
C1032 C 0.52611 0.60414 0.0173 0.0
C1033 C 0.50882 0.6182 0.03892 0.0
C1034 C 0.53735 0.59359 0.01863 0.0
C1035 C 0.52842 0.57259 0.01342 0.0
C1036 C 0.50814 0.56181 0.00675 0.0
C1037 C 0.49689 0.57237 0.0054 0.0
C1038 C 0.50584 0.59342 0.01062 0.0
H1039 H 0.50746 0.62519 0.04854 0.0
H1040 H 0.49462 0.61374 0.03215 0.0
H1041 H 0.50919 0.60364 0.04051 0.0
H1042 H 0.55304 0.60162 0.02371 0.0
H1043 H 0.53747 0.56484 0.01457 0.0
H1044 H 0.87887 0.27544 0.94663 0.0
H1045 H 0.89864 0.31234 0.95591 0.0
H1046 H 0.84277 0.30731 0.96983 0.0
H1047 H 0.82281 0.27035 0.96052 0.0
H1048 H 0.89218 0.34539 0.95017 0.0
H1049 H 0.88491 0.33187 0.00307 0.0
H1050 H 0.87896 0.31112 0.99018 0.0
H1051 H 0.8606 0.31984 0.99261 0.0
C1052 C 0.87074 0.2822 0.95159 0.0
C1053 C 0.84926 0.26994 0.95285 0.0
C1054 C 0.88208 0.30326 0.95693 0.0
C1055 C 0.87223 0.31247 0.9637 0.0
C1056 C 0.85076 0.30038 0.96488 0.0
H1057 H 0.92238 0.43964 0.00312 0.0
H1058 H 0.89893 0.4032 0.99332 0.0
C1059 C 0.83939 0.27928 0.95956 0.0
C1060 C 0.88445 0.33483 0.96932 0.0
H1061 H 0.90149 0.3672 0.99834 0.0
C1062 C 0.89421 0.35017 0.9607 0.0
C1063 C 0.88699 0.341 0.98305 0.0
C1064 C 0.87748 0.32512 0.99281 0.0
C1065 C 0.90649 0.37156 0.96546 0.0
C1066 C 0.9093 0.37769 0.97921 0.0
C1067 C 0.89925 0.36241 0.9878 0.0
C1068 C 0.92332 0.39979 0.98492 0.0
C1069 C 0.91621 0.38743 0.95572 0.0
C1070 C 0.94477 0.40978 0.98357 0.0
C1071 C 0.95813 0.43048 0.98916 0.0
C1072 C 0.95027 0.44151 0.99625 0.0
C1073 C 0.92881 0.43148 0.99768 0.0
C1074 C 0.91544 0.41071 0.99209 0.0
H1075 H 0.90806 0.38104 0.94557 0.0
H1076 H 0.91593 0.40202 0.95871 0.0
H1077 H 0.93276 0.39164 0.95542 0.0
H1078 H 0.95123 0.40148 0.9783 0.0
H1079 H 0.97464 0.43779 0.988 0.0
H1080 H 0.69271 0.57249 0.9268 0.0
H1081 H 0.65837 0.55904 0.93491 0.0
H1082 H 0.68464 0.55853 0.97365 0.0
H1083 H 0.71887 0.57136 0.9656 0.0
H1084 H 0.63567 0.51925 0.95201 0.0
H1085 H 0.65628 0.59881 0.97482 0.0
H1086 H 0.66829 0.59516 0.96075 0.0
H1087 H 0.67542 0.5907 0.97682 0.0
C1088 C 0.69113 0.56914 0.93698 0.0
C1089 C 0.70862 0.57316 0.94557 0.0
C1090 C 0.67152 0.56156 0.9416 0.0
C1091 C 0.66911 0.55797 0.95487 0.0
C1092 C 0.6863 0.56137 0.96339 0.0
H1093 H 0.57364 0.53452 0.00645 0.0
H1094 H 0.60576 0.54349 0.99649 0.0
C1095 C 0.70586 0.56884 0.95878 0.0
C1096 C 0.64883 0.5515 0.96005 0.0
H1097 H 0.62371 0.57043 0.97848 0.0
C1098 C 0.63292 0.53038 0.95774 0.0
C1099 C 0.6455 0.56612 0.96757 0.0
C1100 C 0.66217 0.58903 0.97015 0.0
C1101 C 0.61376 0.52336 0.96304 0.0
C1102 C 0.61036 0.53802 0.97056 0.0
C1103 C 0.62631 0.5592 0.97273 0.0
C1104 C 0.59058 0.53176 0.97651 0.0
C1105 C 0.59765 0.50023 0.96087 0.0
C1106 C 0.57133 0.52227 0.96859 0.0
C1107 C 0.55287 0.51695 0.97427 0.0
C1108 C 0.55336 0.52133 0.98798 0.0
C1109 C 0.57268 0.53096 0.99587 0.0
C1110 C 0.59108 0.5361 0.99019 0.0
H1111 H 0.60477 0.49053 0.95821 0.0
H1112 H 0.58953 0.49484 0.96984 0.0
H1113 H 0.58579 0.4974 0.95261 0.0
H1114 H 0.5706 0.51925 0.95797 0.0
H1115 H 0.53828 0.5097 0.96789 0.0
H1116 H 0.45448 0.16768 0.96721 0.0
H1117 H 0.45942 0.14215 0.97868 0.0
H1118 H 0.43787 0.09995 0.9426 0.0
H1119 H 0.43267 0.12531 0.93106 0.0
H1120 H 0.43207 0.09807 0.98174 0.0
H1121 H 0.49856 0.11286 0.95295 0.0
H1122 H 0.48766 0.12993 0.95361 0.0
H1123 H 0.47424 0.10521 0.94335 0.0
C1124 C 0.45033 0.15277 0.96178 0.0
C1125 C 0.44339 0.1486 0.94819 0.0
C1126 C 0.45324 0.13825 0.96834 0.0
C1127 C 0.44932 0.11936 0.96142 0.0
C1128 C 0.44131 0.11462 0.94804 0.0
H1129 H 0.45743 0.01736 0.99512 0.0
H1130 H 0.44482 0.03791 0.98382 0.0
C1131 C 0.43839 0.12913 0.94147 0.0
C1132 C 0.45501 0.10536 0.96798 0.0
H1133 H 0.48948 0.0875 0.96797 0.0
C1134 C 0.44453 0.09563 0.97872 0.0
C1135 C 0.47147 0.1025 0.96408 0.0
C1136 C 0.48379 0.11328 0.95294 0.0
C1137 C 0.4501 0.08303 0.98566 0.0
C1138 C 0.46645 0.08005 0.98167 0.0
C1139 C 0.47688 0.08976 0.97093 0.0
C1140 C 0.47362 0.0676 0.98881 0.0
C1141 C 0.43887 0.07344 0.99741 0.0
C1142 C 0.49405 0.07747 0.99518 0.0
C1143 C 0.5013 0.0658 0.00155 0.0
C1144 C 0.48828 0.04402 0.00155 0.0
C1145 C 0.46779 0.03414 0.99522 0.0
C1146 C 0.46053 0.04585 0.98886 0.0
H1147 H 0.42966 0.08064 0.00079 0.0
H1148 H 0.42796 0.05637 0.99464 0.0
H1149 H 0.45016 0.07528 0.00578 0.0
H1150 H 0.50441 0.09424 0.99519 0.0
H1151 H 0.51718 0.07378 0.00634 0.0
H1152 H 0.71668 0.15776 0.95803 0.0
H1153 H 0.68237 0.13876 0.96616 0.0
H1154 H 0.66908 0.08232 0.94211 0.0
H1155 H 0.70335 0.1012 0.93392 0.0
H1156 H 0.64169 0.11666 0.95301 0.0
H1157 H 0.66124 0.0643 0.9795 0.0
H1158 H 0.68081 0.08764 0.9732 0.0
H1159 H 0.6647 0.06396 0.96223 0.0
C1160 C 0.70635 0.14137 0.95434 0.0
C1161 C 0.7128 0.13093 0.94541 0.0
C1162 C 0.68679 0.13053 0.95904 0.0
C1163 C 0.67335 0.10906 0.95491 0.0
C1164 C 0.67942 0.09878 0.94564 0.0
H1165 H 0.54235 0.03317 0.96807 0.0
H1166 H 0.57498 0.05378 0.95837 0.0
C1167 C 0.699 0.10958 0.94098 0.0
C1168 C 0.6532 0.09734 0.96055 0.0
H1169 H 0.62621 0.05677 0.97877 0.0
C1170 C 0.63827 0.10357 0.95865 0.0
C1171 C 0.64894 0.08047 0.96805 0.0
C1172 C 0.66481 0.07377 0.971 0.0
C1173 C 0.61904 0.09319 0.96396 0.0
C1174 C 0.61458 0.07596 0.97117 0.0
C1175 C 0.62961 0.06988 0.97315 0.0
C1176 C 0.59462 0.06422 0.97702 0.0
C1177 C 0.60388 0.10103 0.96203 0.0
C1178 C 0.59484 0.06298 0.9907 0.0
C1179 C 0.57625 0.05109 0.99626 0.0
C1180 C 0.55702 0.04014 0.98825 0.0
C1181 C 0.55682 0.04156 0.97455 0.0
C1182 C 0.57547 0.05342 0.96898 0.0
H1183 H 0.61173 0.11739 0.95935 0.0
H1184 H 0.59158 0.09082 0.95388 0.0
H1185 H 0.59618 0.10049 0.97112 0.0
H1186 H 0.60946 0.07114 0.99708 0.0
H1187 H 0.577 0.05038 0.00684 0.0
H1188 H 0.83251 0.54899 0.92773 0.0
H1189 H 0.85353 0.53344 0.93485 0.0
H1190 H 0.88268 0.58097 0.96831 0.0
H1191 H 0.86173 0.5965 0.96134 0.0
H1192 H 0.9005 0.55669 0.93982 0.0
H1193 H 0.85972 0.52236 0.98348 0.0
H1194 H 0.84767 0.52865 0.96995 0.0
H1195 H 0.86662 0.54918 0.98209 0.0
C1196 C 0.84326 0.55598 0.93667 0.0
C1197 C 0.84549 0.57395 0.94398 0.0
C1198 C 0.8553 0.54716 0.94067 0.0
C1199 C 0.8695 0.55599 0.95214 0.0
C1200 C 0.87166 0.57384 0.95949 0.0
H1201 H 0.95798 0.538 0.99845 0.0
H1202 H 0.93374 0.54797 0.98884 0.0
C1203 C 0.8598 0.58276 0.95544 0.0
C1204 C 0.8825 0.54698 0.95637 0.0
H1205 H 0.89198 0.52358 0.98152 0.0
C1206 C 0.89856 0.54922 0.94885 0.0
C1207 C 0.87986 0.53732 0.96816 0.0
C1208 C 0.86244 0.53403 0.97638 0.0
C1209 C 0.91268 0.54283 0.95312 0.0
C1210 C 0.9103 0.53351 0.96508 0.0
C1211 C 0.89382 0.53076 0.97238 0.0
C1212 C 0.92529 0.52749 0.97059 0.0
C1213 C 0.93052 0.54695 0.9451 0.0
C1214 C 0.92858 0.51257 0.96354 0.0
C1215 C 0.94262 0.50692 0.96898 0.0
C1216 C 0.95341 0.51591 0.98164 0.0
C1217 C 0.94994 0.53073 0.98869 0.0
C1218 C 0.93605 0.53645 0.98321 0.0
H1219 H 0.93309 0.55873 0.93811 0.0
H1220 H 0.94526 0.55263 0.95163 0.0
H1221 H 0.92689 0.5321 0.93923 0.0
H1222 H 0.92011 0.5051 0.9539 0.0
H1223 H 0.94481 0.49534 0.96333 0.0
H1224 H 0.43525 0.29968 0.93339 0.0
H1225 H 0.43937 0.33235 0.94412 0.0
H1226 H 0.45501 0.31765 0.98184 0.0
H1227 H 0.45035 0.28461 0.97126 0.0
H1228 H 0.42836 0.33582 0.98241 0.0
H1229 H 0.49935 0.38129 0.95695 0.0
H1230 H 0.47599 0.36324 0.94634 0.0
H1231 H 0.48755 0.35335 0.9577 0.0
C1232 C 0.43906 0.30312 0.94402 0.0
C1233 C 0.44266 0.28963 0.95146 0.0
C1234 C 0.4416 0.32189 0.9501 0.0
C1235 C 0.44784 0.32753 0.96371 0.0
C1236 C 0.45031 0.3136 0.9713 0.0
H1237 H 0.51337 0.44936 0.00854 0.0
H1238 H 0.50088 0.41394 0.99773 0.0
C1239 C 0.44779 0.29483 0.96523 0.0
C1240 C 0.45323 0.34857 0.9699 0.0
H1241 H 0.48891 0.40078 0.97048 0.0
C1242 C 0.44152 0.35006 0.97978 0.0
C1243 C 0.47058 0.36704 0.96654 0.0
C1244 C 0.48425 0.36627 0.95638 0.0
C1245 C 0.44672 0.36964 0.9864 0.0
C1246 C 0.46398 0.3881 0.98294 0.0
C1247 C 0.47562 0.38657 0.97304 0.0
C1248 C 0.4709 0.40915 0.98986 0.0
C1249 C 0.43413 0.37039 0.99728 0.0
C1250 C 0.45817 0.41817 0.98897 0.0
C1251 C 0.46527 0.43842 0.99515 0.0
C1252 C 0.48525 0.44992 0.00224 0.0
C1253 C 0.4979 0.44081 0.00316 0.0
C1254 C 0.4908 0.42062 0.99698 0.0
H1255 H 0.42419 0.35464 0.00055 0.0
H1256 H 0.44457 0.38136 0.00595 0.0
H1257 H 0.42377 0.37622 0.99362 0.0
H1258 H 0.44289 0.4097 0.98333 0.0
H1259 H 0.45522 0.44511 0.9943 0.0
H1260 H 0.18646 0.70139 0.04826 0.0
H1261 H 0.15843 0.66971 0.03518 0.0
H1262 H 0.11298 0.6738 0.05765 0.0
H1263 H 0.14095 0.70522 0.07105 0.0
H1264 H 0.1293 0.63192 0.04739 0.0
H1265 H 0.08973 0.66508 0.01745 0.0
H1266 H 0.11656 0.68081 0.02473 0.0
H1267 H 0.09566 0.67348 0.03494 0.0
C1268 C 0.17052 0.69558 0.05045 0.0
C1269 C 0.16599 0.7058 0.06078 0.0
C1270 C 0.15452 0.67756 0.0429 0.0
C1271 C 0.13368 0.66955 0.04541 0.0
C1272 C 0.12897 0.67996 0.05545 0.0
H1273 H 0.01864 0.55688 0.01067 0.0
H1274 H 0.04422 0.59068 0.0232 0.0
C1275 C 0.14498 0.69794 0.06307 0.0
C1276 C 0.1171 0.6495 0.03812 0.0
H1277 H 0.07442 0.62813 0.01511 0.0
C1278 C 0.1173 0.63105 0.04032 0.0
C1279 C 0.10138 0.64849 0.02904 0.0
C1280 C 0.10075 0.66799 0.02628 0.0
C1281 C 0.10214 0.61152 0.03367 0.0
C1282 C 0.08673 0.61053 0.02429 0.0
C1283 C 0.08632 0.62896 0.02225 0.0
C1284 C 0.07119 0.59054 0.01634 0.0
C1285 C 0.1026 0.59209 0.03692 0.0
C1286 C 0.07786 0.57953 0.00811 0.0
C1287 C 0.06335 0.5602 0.00108 0.0
C1288 C 0.04189 0.55164 0.00205 0.0
C1289 C 0.03514 0.56302 0.00989 0.0
C1290 C 0.0497 0.58233 0.017 0.0
H1291 H 0.11115 0.5946 0.04681 0.0
H1292 H 0.08654 0.57845 0.03672 0.0
H1293 H 0.11077 0.58812 0.02948 0.0
H1294 H 0.09434 0.58583 0.0072 0.0
H1295 H 0.06896 0.55185 0.99501 0.0
H1296 H 0.27251 0.40305 0.04691 0.0
H1297 H 0.30714 0.41949 0.03904 0.0
H1298 H 0.33103 0.46794 0.07198 0.0
H1299 H 0.29636 0.45151 0.08 0.0
H1300 H 0.33268 0.46606 0.03398 0.0
H1301 H 0.36987 0.43975 0.07151 0.0
H1302 H 0.34192 0.42585 0.06703 0.0
H1303 H 0.35437 0.45081 0.07693 0.0
C1304 C 0.28516 0.41712 0.05254 0.0
C1305 C 0.28175 0.42593 0.06412 0.0
C1306 C 0.30487 0.42654 0.04799 0.0
C1307 C 0.32159 0.44481 0.05499 0.0
C1308 C 0.31829 0.45376 0.0665 0.0
H1309 H 0.45318 0.50727 0.0403 0.0
H1310 H 0.4207 0.49731 0.05019 0.0
C1311 C 0.2985 0.44444 0.07102 0.0
C1312 C 0.34241 0.45442 0.05011 0.0
H1313 H 0.39039 0.4589 0.05528 0.0
C1314 C 0.34538 0.46464 0.03866 0.0
C1315 C 0.35891 0.45266 0.05634 0.0
C1316 C 0.35626 0.44162 0.06861 0.0
C1317 C 0.36444 0.47299 0.03314 0.0
C1318 C 0.38072 0.47048 0.03904 0.0
C1319 C 0.37789 0.46074 0.05073 0.0
C1320 C 0.40042 0.477 0.03295 0.0
C1321 C 0.36697 0.48454 0.02109 0.0
C1322 C 0.39983 0.4687 0.02003 0.0
C1323 C 0.41832 0.47444 0.01433 0.0
C1324 C 0.43784 0.4884 0.02149 0.0
C1325 C 0.43842 0.49652 0.03449 0.0
C1326 C 0.41987 0.49085 0.04017 0.0
H1327 H 0.35628 0.49099 0.02047 0.0
H1328 H 0.38328 0.49765 0.02114 0.0
H1329 H 0.36303 0.47343 0.01207 0.0
H1330 H 0.38504 0.45753 0.0144 0.0
H1331 H 0.41727 0.46771 0.00435 0.0
H1332 H 0.6102 0.90069 0.06025 0.0
H1333 H 0.59248 0.91801 0.05078 0.0
H1334 H 0.54645 0.85944 0.02847 0.0
H1335 H 0.56439 0.84204 0.03754 0.0
H1336 H 0.58281 0.91708 0.02117 0.0
H1337 H 0.51366 0.88378 0.04972 0.0
H1338 H 0.53806 0.88565 0.05562 0.0
H1339 H 0.52121 0.86601 0.04239 0.0
C1340 C 0.59641 0.89148 0.05326 0.0
C1341 C 0.58876 0.86995 0.04965 0.0
C1342 C 0.58624 0.90139 0.04793 0.0
C1343 C 0.56812 0.88993 0.03904 0.0
C1344 C 0.56029 0.86845 0.03547 0.0
H1345 H 0.48506 0.92593 0.99958 0.0
H1346 H 0.50094 0.90636 0.00839 0.0
C1347 C 0.57053 0.85854 0.04071 0.0
C1348 C 0.55783 0.90065 0.03315 0.0
H1349 H 0.51466 0.90579 0.03371 0.0
C1350 C 0.56791 0.91466 0.02389 0.0
C1351 C 0.53834 0.89721 0.03666 0.0
C1352 C 0.52712 0.88245 0.04669 0.0
C1353 C 0.55894 0.92534 0.01797 0.0
C1354 C 0.53966 0.92235 0.02172 0.0
C1355 C 0.52946 0.90811 0.03088 0.0
C1356 C 0.53002 0.93415 0.01643 0.0
C1357 C 0.57004 0.93942 0.00758 0.0
C1358 C 0.54097 0.95621 0.01821 0.0
C1359 C 0.53204 0.96735 0.01308 0.0
C1360 C 0.51184 0.95663 0.0063 0.0
C1361 C 0.50069 0.93456 0.00474 0.0
C1362 C 0.50971 0.92339 0.00979 0.0
H1363 H 0.58074 0.93502 0.00301 0.0
H1364 H 0.55873 0.93876 0.99965 0.0
H1365 H 0.5796 0.95589 0.01226 0.0
H1366 H 0.55645 0.96483 0.02358 0.0
H1367 H 0.541 0.98438 0.0144 0.0
H1368 H 0.95552 0.16201 0.38326 0.0
H1369 H 0.98417 0.18716 0.37176 0.0
H1370 H 0.01104 0.22933 0.40782 0.0
H1371 H 0.98228 0.2044 0.41937 0.0
H1372 H 0.01028 0.24862 0.3834 0.0
H1373 H 0.04477 0.19683 0.37987 0.0
H1374 H 0.01753 0.18489 0.37394 0.0
H1375 H 0.02589 0.19365 0.39121 0.0
C1376 C 0.96732 0.1768 0.38869 0.0
C1377 C 0.96672 0.18118 0.40224 0.0
C1378 C 0.98374 0.19106 0.38213 0.0
C1379 C 0.99979 0.20993 0.389 0.0
C1380 C 0.99881 0.21477 0.40238 0.0
H1381 H 0.12541 0.29315 0.37163 0.0
H1382 H 0.09367 0.26964 0.38129 0.0
C1383 C 0.98246 0.20048 0.40897 0.0
C1384 C 0.01815 0.2242 0.38244 0.0
H1385 H 0.06145 0.22826 0.36986 0.0
C1386 C 0.02145 0.24419 0.38038 0.0
C1387 C 0.03275 0.21838 0.37867 0.0
C1388 C 0.03026 0.19734 0.3811 0.0
C1389 C 0.03901 0.25853 0.37456 0.0
C1390 C 0.05349 0.25261 0.37067 0.0
C1391 C 0.05021 0.23265 0.37279 0.0
C1392 C 0.07255 0.26713 0.36477 0.0
C1393 C 0.04223 0.28006 0.37286 0.0
C1394 C 0.07115 0.27335 0.35223 0.0
C1395 C 0.08928 0.28676 0.34663 0.0
C1396 C 0.10912 0.29416 0.3535 0.0
C1397 C 0.11041 0.28781 0.36607 0.0
C1398 C 0.09229 0.27435 0.37161 0.0
H1399 H 0.0319 0.28357 0.37864 0.0
H1400 H 0.05874 0.29238 0.37597 0.0
H1401 H 0.03867 0.2809 0.36226 0.0
H1402 H 0.05603 0.26768 0.34672 0.0
H1403 H 0.08771 0.29131 0.33693 0.0
H1404 H 0.83334 0.79112 0.40372 0.0
H1405 H 0.81123 0.80506 0.39592 0.0
H1406 H 0.76285 0.74249 0.38018 0.0
H1407 H 0.7846 0.7284 0.38815 0.0
H1408 H 0.7945 0.80169 0.3695 0.0
H1409 H 0.732 0.76479 0.4025 0.0
H1410 H 0.75732 0.76711 0.4057 0.0
H1411 H 0.73774 0.74664 0.39375 0.0
C1412 C 0.81789 0.78031 0.39873 0.0
C1413 C 0.81072 0.75865 0.39656 0.0
C1414 C 0.80534 0.78831 0.39424 0.0
C1415 C 0.78532 0.77477 0.38763 0.0
C1416 C 0.77812 0.75317 0.38544 0.0
H1417 H 0.70556 0.79623 0.33436 0.0
H1418 H 0.72978 0.78716 0.34523 0.0
C1419 C 0.79067 0.74518 0.38987 0.0
C1420 C 0.77216 0.78321 0.38255 0.0
H1421 H 0.72454 0.77932 0.38413 0.0
C1422 C 0.77928 0.79697 0.37277 0.0
C1423 C 0.75244 0.77721 0.38697 0.0
C1424 C 0.74446 0.76328 0.3979 0.0
C1425 C 0.76685 0.80429 0.36693 0.0
C1426 C 0.74671 0.79747 0.37089 0.0
C1427 C 0.73991 0.78435 0.38102 0.0
C1428 C 0.73221 0.80327 0.36434 0.0
C1429 C 0.77534 0.81922 0.35654 0.0
C1430 C 0.7252 0.81497 0.37156 0.0
C1431 C 0.71128 0.82017 0.36539 0.0
C1432 C 0.70397 0.81355 0.35189 0.0
C1433 C 0.7109 0.80164 0.34474 0.0
C1434 C 0.72485 0.79654 0.35092 0.0
H1435 H 0.79266 0.82717 0.35714 0.0
H1436 H 0.76887 0.81027 0.3466 0.0
H1437 H 0.7707 0.83137 0.35755 0.0
H1438 H 0.73059 0.82018 0.38197 0.0
H1439 H 0.70621 0.82929 0.3712 0.0
H1440 H 0.27962 0.06607 0.38094 0.0
H1441 H 0.26078 0.02862 0.37266 0.0
H1442 H 0.20201 0.02632 0.37573 0.0
H1443 H 0.22073 0.06384 0.38395 0.0
H1444 H 0.22698 0.99346 0.38655 0.0
H1445 H 0.20178 0.00272 0.33603 0.0
H1446 H 0.2242 0.02389 0.34617 0.0
H1447 H 0.19834 0.01655 0.34999 0.0
C1448 C 0.26268 0.05762 0.37977 0.0
C1449 C 0.25163 0.06789 0.38304 0.0
C1450 C 0.25198 0.03624 0.37512 0.0
C1451 C 0.23007 0.02485 0.37353 0.0
C1452 C 0.21895 0.03496 0.37684 0.0
H1453 H 0.14479 0.89602 0.33785 0.0
H1454 H 0.15948 0.93237 0.34793 0.0
C1455 C 0.22965 0.05631 0.38159 0.0
C1456 C 0.21889 0.00233 0.36841 0.0
H1457 H 0.19137 0.96834 0.34083 0.0
C1458 C 0.21912 0.98789 0.37657 0.0
C1459 C 0.20856 0.99524 0.35545 0.0
C1460 C 0.20818 0.01033 0.34631 0.0
C1461 C 0.20927 0.96639 0.37207 0.0
C1462 C 0.19946 0.95933 0.35894 0.0
C1463 C 0.19892 0.97378 0.35087 0.0
C1464 C 0.19037 0.93717 0.35321 0.0
C1465 C 0.20927 0.95145 0.38149 0.0
C1466 C 0.20292 0.92792 0.3527 0.0
C1467 C 0.19455 0.90722 0.34704 0.0
C1468 C 0.17355 0.89547 0.34162 0.0
C1469 C 0.16102 0.90476 0.34198 0.0
C1470 C 0.16939 0.92547 0.34773 0.0
H1471 H 0.21126 0.95798 0.39196 0.0
H1472 H 0.19455 0.93601 0.37975 0.0
H1473 H 0.22253 0.94885 0.38 0.0
H1474 H 0.21928 0.93681 0.35654 0.0
H1475 H 0.2046 0.90049 0.3468 0.0
H1476 H 0.50473 0.59666 0.30778 0.0
H1477 H 0.52426 0.63333 0.31764 0.0
H1478 H 0.54889 0.65265 0.2806 0.0
H1479 H 0.52966 0.61606 0.2707 0.0
H1480 H 0.56766 0.66052 0.32002 0.0
H1481 H 0.52606 0.69177 0.29053 0.0
H1482 H 0.51555 0.66398 0.29142 0.0
H1483 H 0.53542 0.67767 0.28076 0.0
C1484 C 0.51436 0.6087 0.30174 0.0
C1485 C 0.5156 0.60342 0.28843 0.0
C1486 C 0.5254 0.62964 0.30737 0.0
C1487 C 0.53776 0.64571 0.2998 0.0
C1488 C 0.53906 0.64053 0.28653 0.0
H1489 H 0.64083 0.77043 0.32463 0.0
H1490 H 0.61754 0.73355 0.316 0.0
C1491 C 0.52805 0.6196 0.28089 0.0
C1492 C 0.55006 0.66779 0.30592 0.0
H1493 H 0.55792 0.71705 0.30336 0.0
C1494 C 0.56544 0.67287 0.31645 0.0
C1495 C 0.54694 0.6838 0.30133 0.0
C1496 C 0.52997 0.67907 0.29047 0.0
C1497 C 0.57824 0.69366 0.32227 0.0
C1498 C 0.57572 0.7098 0.31731 0.0
C1499 C 0.55992 0.70465 0.30705 0.0
C1500 C 0.58968 0.73217 0.32246 0.0
C1501 C 0.59434 0.6982 0.3337 0.0
C1502 C 0.58163 0.74374 0.32867 0.0
C1503 C 0.59491 0.76486 0.33359 0.0
C1504 C 0.61639 0.77471 0.33226 0.0
C1505 C 0.62434 0.76318 0.32586 0.0
C1506 C 0.61109 0.7421 0.32098 0.0
H1507 H 0.59069 0.68382 0.33847 0.0
H1508 H 0.60987 0.70425 0.33001 0.0
H1509 H 0.59541 0.71032 0.34127 0.0
H1510 H 0.56511 0.73636 0.32982 0.0
H1511 H 0.58838 0.77345 0.33842 0.0
H1512 H 0.3643 0.87472 0.27244 0.0
H1513 H 0.32962 0.86138 0.28002 0.0
H1514 H 0.34291 0.92495 0.28944 0.0
H1515 H 0.37724 0.93838 0.28154 0.0
H1516 H 0.32018 0.86861 0.30503 0.0
H1517 H 0.28588 0.89718 0.26765 0.0
H1518 H 0.30929 0.896 0.26564 0.0
H1519 H 0.31059 0.91753 0.27586 0.0
C1520 C 0.35971 0.88584 0.27594 0.0
C1521 C 0.37355 0.90762 0.27637 0.0
C1522 C 0.33994 0.8782 0.28033 0.0
C1523 C 0.33357 0.89216 0.28511 0.0
C1524 C 0.34733 0.91388 0.28555 0.0
H1525 H 0.24124 0.87525 0.33759 0.0
H1526 H 0.27273 0.88367 0.32702 0.0
C1527 C 0.36707 0.92153 0.28118 0.0
C1528 C 0.31293 0.88416 0.29021 0.0
H1529 H 0.26795 0.88623 0.28689 0.0
C1530 C 0.30867 0.87228 0.30099 0.0
C1531 C 0.29781 0.88872 0.28481 0.0
C1532 C 0.30099 0.90037 0.27277 0.0
C1533 C 0.29 0.86549 0.30682 0.0
C1534 C 0.27538 0.87103 0.30187 0.0
C1535 C 0.27929 0.88223 0.29078 0.0
C1536 C 0.25617 0.86578 0.30824 0.0
C1537 C 0.28609 0.85242 0.31822 0.0
C1538 C 0.23638 0.85338 0.30108 0.0
C1539 C 0.21828 0.84863 0.30707 0.0
C1540 C 0.21966 0.85632 0.32032 0.0
C1541 C 0.23955 0.86895 0.3274 0.0
C1542 C 0.25761 0.87368 0.3214 0.0
H1543 H 0.29555 0.84457 0.31831 0.0
H1544 H 0.29054 0.86277 0.32765 0.0
H1545 H 0.26931 0.84023 0.31779 0.0
H1546 H 0.23493 0.84725 0.29088 0.0
H1547 H 0.20326 0.83893 0.30131 0.0
H1548 H 0.14509 0.48742 0.27014 0.0
H1549 H 0.14618 0.46065 0.28233 0.0
H1550 H 0.09994 0.46003 0.30627 0.0
H1551 H 0.09945 0.48766 0.29445 0.0
H1552 H 0.1324 0.46266 0.3212 0.0
H1553 H 0.10591 0.39855 0.28066 0.0
H1554 H 0.12744 0.42244 0.27652 0.0
H1555 H 0.10302 0.4212 0.279 0.0
C1556 C 0.13515 0.48164 0.27801 0.0
C1557 C 0.12228 0.4898 0.28138 0.0
C1558 C 0.13555 0.46607 0.28484 0.0
C1559 C 0.12286 0.45805 0.29506 0.0
C1560 C 0.10972 0.46587 0.29833 0.0
H1561 H 0.12424 0.35403 0.33113 0.0
H1562 H 0.1118 0.37514 0.32043 0.0
C1563 C 0.10936 0.48157 0.29152 0.0
C1564 C 0.12464 0.44269 0.3029 0.0
H1565 H 0.12567 0.39691 0.29981 0.0
C1566 C 0.13059 0.44811 0.31656 0.0
C1567 C 0.12191 0.42351 0.29691 0.0
C1568 C 0.11399 0.41598 0.28249 0.0
C1569 C 0.135 0.43543 0.32426 0.0
C1570 C 0.13391 0.41714 0.31805 0.0
C1571 C 0.12684 0.41112 0.30453 0.0
C1572 C 0.14097 0.40456 0.32522 0.0
C1573 C 0.14088 0.44187 0.33894 0.0
C1574 C 0.16151 0.41406 0.33141 0.0
C1575 C 0.16858 0.40208 0.33759 0.0
C1576 C 0.15532 0.38033 0.33749 0.0
C1577 C 0.13477 0.3708 0.33133 0.0
C1578 C 0.12765 0.38282 0.32522 0.0
H1579 H 0.13419 0.45148 0.34269 0.0
H1580 H 0.13543 0.42796 0.34452 0.0
H1581 H 0.15815 0.45161 0.34096 0.0
H1582 H 0.17225 0.43069 0.33122 0.0
H1583 H 0.18455 0.40976 0.34217 0.0
H1584 H 0.38704 0.49133 0.29529 0.0
H1585 H 0.35252 0.47252 0.30314 0.0
H1586 H 0.33412 0.4209 0.27298 0.0
H1587 H 0.36856 0.43967 0.26496 0.0
H1588 H 0.31177 0.4563 0.28982 0.0
H1589 H 0.32431 0.39359 0.30785 0.0
H1590 H 0.34542 0.41796 0.30358 0.0
H1591 H 0.32819 0.39748 0.2908 0.0
C1592 C 0.37557 0.4761 0.2902 0.0
C1593 C 0.3806 0.46693 0.27955 0.0
C1594 C 0.35588 0.46535 0.29474 0.0
C1595 C 0.34091 0.44522 0.28875 0.0
C1596 C 0.34562 0.43627 0.27788 0.0
H1597 H 0.20937 0.37412 0.30235 0.0
H1598 H 0.24205 0.39448 0.29259 0.0
C1599 C 0.36531 0.44699 0.27334 0.0
C1600 C 0.32055 0.43342 0.29412 0.0
H1601 H 0.29081 0.38949 0.30909 0.0
C1602 C 0.30713 0.44168 0.29402 0.0
C1603 C 0.31472 0.41449 0.29973 0.0
C1604 C 0.32895 0.40539 0.30064 0.0
C1605 C 0.28789 0.4314 0.29932 0.0
C1606 C 0.28191 0.41228 0.30472 0.0
C1607 C 0.29539 0.40409 0.30486 0.0
C1608 C 0.26203 0.40077 0.31067 0.0
C1609 C 0.27437 0.44132 0.29939 0.0
C1610 C 0.26245 0.39736 0.32403 0.0
C1611 C 0.24385 0.38566 0.32962 0.0
C1612 C 0.22443 0.37702 0.32194 0.0
C1613 C 0.22405 0.38064 0.30857 0.0
C1614 C 0.2427 0.39235 0.30298 0.0
H1615 H 0.28329 0.45818 0.29776 0.0
H1616 H 0.26135 0.43299 0.29133 0.0
H1617 H 0.2675 0.44 0.3089 0.0
H1618 H 0.27722 0.40368 0.33012 0.0
H1619 H 0.24476 0.3832 0.33994 0.0
H1620 H 0.50362 0.88427 0.257 0.0
H1621 H 0.52466 0.86869 0.26381 0.0
H1622 H 0.5348 0.89828 0.30359 0.0
H1623 H 0.51336 0.91337 0.29697 0.0
H1624 H 0.56649 0.89015 0.27435 0.0
H1625 H 0.51646 0.83759 0.30936 0.0
H1626 H 0.50699 0.8489 0.29753 0.0
H1627 H 0.52205 0.86415 0.31279 0.0
C1628 C 0.51001 0.88713 0.26725 0.0
C1629 C 0.50679 0.90004 0.27645 0.0
C1630 C 0.52213 0.87833 0.2711 0.0
C1631 C 0.53106 0.8821 0.28424 0.0
C1632 C 0.52773 0.89483 0.29345 0.0
H1633 H 0.61908 0.86614 0.33199 0.0
H1634 H 0.59381 0.87439 0.32187 0.0
C1635 C 0.51567 0.90365 0.28962 0.0
C1636 C 0.54476 0.87369 0.28825 0.0
H1637 H 0.55195 0.84521 0.31089 0.0
C1638 C 0.56319 0.88006 0.28221 0.0
C1639 C 0.54036 0.86049 0.29846 0.0
C1640 C 0.52029 0.8522 0.30483 0.0
C1641 C 0.57787 0.87442 0.28656 0.0
C1642 C 0.57381 0.86187 0.29711 0.0
C1643 C 0.55505 0.85492 0.30285 0.0
C1644 C 0.58937 0.85686 0.30293 0.0
C1645 C 0.59799 0.88267 0.28025 0.0
C1646 C 0.59523 0.84418 0.29563 0.0
C1647 C 0.60976 0.83941 0.30139 0.0
C1648 C 0.61861 0.84721 0.31457 0.0
C1649 C 0.61265 0.8599 0.32181 0.0
C1650 C 0.59815 0.86461 0.31606 0.0
H1651 H 0.60037 0.89522 0.27393 0.0
H1652 H 0.61157 0.88901 0.28793 0.0
H1653 H 0.59763 0.8696 0.27398 0.0
H1654 H 0.5884 0.83781 0.28553 0.0
H1655 H 0.61394 0.82952 0.29555 0.0
H1656 H 0.09912 0.62957 0.26995 0.0
H1657 H 0.10125 0.66139 0.28068 0.0
H1658 H 0.13655 0.65893 0.31499 0.0
H1659 H 0.13432 0.627 0.30441 0.0
H1660 H 0.10348 0.67046 0.31966 0.0
H1661 H 0.1608 0.71705 0.28525 0.0
H1662 H 0.13642 0.69469 0.27804 0.0
H1663 H 0.15471 0.69077 0.28798 0.0
C1664 C 0.10689 0.63551 0.27991 0.0
C1665 C 0.11671 0.62591 0.28631 0.0
C1666 C 0.10819 0.65373 0.28598 0.0
C1667 C 0.11923 0.66255 0.29854 0.0
C1668 C 0.128 0.65234 0.30527 0.0
H1669 H 0.18364 0.78594 0.33993 0.0
H1670 H 0.17133 0.75047 0.32926 0.0
C1671 C 0.12682 0.6342 0.29919 0.0
C1672 C 0.1233 0.68336 0.30423 0.0
H1673 H 0.15305 0.73577 0.3013 0.0
C1674 C 0.11412 0.68476 0.3156 0.0
C1675 C 0.13738 0.70191 0.29893 0.0
C1676 C 0.14806 0.70121 0.28693 0.0
C1677 C 0.11885 0.70437 0.3219 0.0
C1678 C 0.1331 0.7229 0.31667 0.0
C1679 C 0.14206 0.72146 0.30521 0.0
C1680 C 0.14001 0.74404 0.32339 0.0
C1681 C 0.10918 0.70526 0.33434 0.0
C1682 C 0.12645 0.75212 0.32354 0.0
C1683 C 0.13348 0.77243 0.32958 0.0
C1684 C 0.15415 0.78486 0.33556 0.0
C1685 C 0.16762 0.77666 0.33543 0.0
C1686 C 0.16063 0.75645 0.32934 0.0
H1687 H 0.10053 0.68964 0.33804 0.0
H1688 H 0.12144 0.71652 0.34222 0.0
H1689 H 0.0981 0.71097 0.33232 0.0
H1690 H 0.11054 0.74281 0.31886 0.0
H1691 H 0.12279 0.77841 0.32956 0.0
H1692 H 0.85268 0.03605 0.37861 0.0
H1693 H 0.82433 0.0044 0.36569 0.0
H1694 H 0.77965 0.0084 0.38902 0.0
H1695 H 0.80796 0.03979 0.40226 0.0
H1696 H 0.79607 0.96685 0.37863 0.0
H1697 H 0.75472 0.99855 0.34896 0.0
H1698 H 0.78183 0.01458 0.35567 0.0
H1699 H 0.76157 0.00759 0.36635 0.0
C1700 C 0.83683 0.03026 0.38099 0.0
C1701 C 0.83263 0.04039 0.39155 0.0
C1702 C 0.82065 0.01226 0.37354 0.0
C1703 C 0.79995 0.00419 0.37637 0.0
C1704 C 0.79553 0.01459 0.38658 0.0
H1705 H 0.68456 0.89007 0.34384 0.0
H1706 H 0.71029 0.92444 0.35568 0.0
C1707 C 0.81173 0.03256 0.3941 0.0
C1708 C 0.78328 0.98393 0.36935 0.0
H1709 H 0.73983 0.96165 0.34692 0.0
C1710 C 0.78377 0.96568 0.37168 0.0
C1711 C 0.76718 0.98253 0.36045 0.0
C1712 C 0.76621 0.00182 0.35759 0.0
C1713 C 0.76854 0.94594 0.36532 0.0
C1714 C 0.75274 0.94455 0.3561 0.0
C1715 C 0.75204 0.96279 0.35393 0.0
C1716 C 0.73706 0.92429 0.34847 0.0
C1717 C 0.76934 0.92674 0.36872 0.0
C1718 C 0.74355 0.91309 0.34026 0.0
C1719 C 0.72896 0.89344 0.33364 0.0
C1720 C 0.70759 0.88476 0.33498 0.0
C1721 C 0.70099 0.89633 0.34277 0.0
C1722 C 0.71564 0.91596 0.34948 0.0
H1723 H 0.77826 0.92962 0.37853 0.0
H1724 H 0.75338 0.91305 0.3688 0.0
H1725 H 0.7773 0.92263 0.3612 0.0
H1726 H 0.75996 0.91946 0.33908 0.0
H1727 H 0.73445 0.88494 0.32759 0.0
H1728 H 0.94488 0.77814 0.38507 0.0
H1729 H 0.9794 0.79253 0.3772 0.0
H1730 H 0.99904 0.76784 0.40864 0.0
H1731 H 0.96466 0.75363 0.41672 0.0
H1732 H 0.02083 0.82082 0.39044 0.0
H1733 H 0.0078 0.74142 0.37408 0.0
H1734 H 0.98677 0.74581 0.37793 0.0
H1735 H 0.00397 0.74561 0.39101 0.0
C1736 C 0.95663 0.77606 0.39046 0.0
C1737 C 0.95193 0.76457 0.40147 0.0
C1738 C 0.97632 0.78423 0.38591 0.0
C1739 C 0.99163 0.78098 0.39223 0.0
C1740 C 0.98729 0.77019 0.40349 0.0
H1741 H 0.12245 0.83769 0.37631 0.0
H1742 H 0.09049 0.82706 0.387 0.0
C1743 C 0.96762 0.76204 0.40807 0.0
C1744 C 0.01185 0.78821 0.38673 0.0
H1745 H 0.04096 0.7704 0.37187 0.0
C1746 C 0.02531 0.80985 0.38642 0.0
C1747 C 0.01748 0.77379 0.38137 0.0
C1748 C 0.00322 0.75034 0.38098 0.0
C1749 C 0.04435 0.81746 0.3809 0.0
C1750 C 0.05006 0.80303 0.37567 0.0
C1751 C 0.03658 0.78141 0.37598 0.0
C1752 C 0.06952 0.80991 0.36927 0.0
C1753 C 0.05794 0.8408 0.38039 0.0
C1754 C 0.0683 0.80352 0.35583 0.0
C1755 C 0.08648 0.80949 0.3497 0.0
C1756 C 0.10628 0.82189 0.35692 0.0
C1757 C 0.10746 0.82823 0.37043 0.0
C1758 C 0.08922 0.82226 0.37655 0.0
H1759 H 0.04937 0.84931 0.3823 0.0
H1760 H 0.07155 0.84715 0.38803 0.0
H1761 H 0.06399 0.84409 0.3706 0.0
H1762 H 0.05324 0.79393 0.35005 0.0
H1763 H 0.08494 0.80429 0.3393 0.0
H1764 H 0.26347 0.20131 0.35858 0.0
H1765 H 0.24612 0.21895 0.34895 0.0
H1766 H 0.22611 0.22595 0.38691 0.0
H1767 H 0.2425 0.20728 0.39633 0.0
H1768 H 0.19588 0.21545 0.36856 0.0
H1769 H 0.26762 0.28029 0.35253 0.0
H1770 H 0.26209 0.25514 0.34507 0.0
H1771 H 0.26829 0.26158 0.36274 0.0
C1772 C 0.25533 0.20664 0.36481 0.0
C1773 C 0.25436 0.20311 0.37818 0.0
C1774 C 0.24557 0.21685 0.35935 0.0
C1775 C 0.23526 0.2243 0.36727 0.0
C1776 C 0.23405 0.22046 0.3806 0.0
H1777 H 0.20682 0.31994 0.34721 0.0
H1778 H 0.22147 0.29951 0.35597 0.0
C1779 C 0.2434 0.20983 0.38598 0.0
C1780 C 0.22557 0.23595 0.3617 0.0
H1781 H 0.23551 0.27769 0.34468 0.0
C1782 C 0.20458 0.22913 0.3634 0.0
C1783 C 0.237 0.25401 0.35513 0.0
C1784 C 0.26004 0.26332 0.35388 0.0
C1785 C 0.1947 0.23983 0.35873 0.0
C1786 C 0.20587 0.25735 0.35166 0.0
C1787 C 0.22685 0.26414 0.34996 0.0
C1788 C 0.19649 0.26948 0.34644 0.0
C1789 C 0.17266 0.23263 0.36186 0.0
C1790 C 0.17763 0.25951 0.33804 0.0
C1791 C 0.1689 0.27115 0.33334 0.0
C1792 C 0.17916 0.293 0.3367 0.0
C1793 C 0.19835 0.30305 0.34469 0.0
C1794 C 0.20683 0.29139 0.34962 0.0
H1795 H 0.16892 0.22366 0.3706 0.0
H1796 H 0.17016 0.24615 0.36383 0.0
H1797 H 0.16151 0.22207 0.35332 0.0
H1798 H 0.1697 0.24275 0.33506 0.0
H1799 H 0.15422 0.26306 0.32703 0.0
H1800 H 0.62337 0.49282 0.71633 0.0
H1801 H 0.65229 0.51818 0.70517 0.0
H1802 H 0.67223 0.56407 0.7393 0.0
H1803 H 0.64301 0.53896 0.75044 0.0
H1804 H 0.67362 0.58031 0.71413 0.0
H1805 H 0.71315 0.53329 0.71697 0.0
H1806 H 0.6866 0.51922 0.70937 0.0
H1807 H 0.69201 0.52904 0.7266 0.0
C1808 C 0.63364 0.50844 0.72137 0.0
C1809 C 0.63098 0.51383 0.73432 0.0
C1810 C 0.65027 0.52284 0.71502 0.0
C1811 C 0.66455 0.54284 0.7215 0.0
C1812 C 0.66143 0.54863 0.73417 0.0
H1813 H 0.79107 0.62804 0.70614 0.0
H1814 H 0.75903 0.60461 0.71554 0.0
C1815 C 0.64482 0.53424 0.74055 0.0
C1816 C 0.68332 0.55737 0.71535 0.0
H1817 H 0.72886 0.56324 0.70542 0.0
C1818 C 0.6857 0.57661 0.71219 0.0
C1819 C 0.69913 0.55255 0.71301 0.0
C1820 C 0.69778 0.5325 0.71675 0.0
C1821 C 0.70348 0.59112 0.70662 0.0
C1822 C 0.71911 0.58611 0.70406 0.0
C1823 C 0.71676 0.56694 0.70731 0.0
C1824 C 0.73835 0.60076 0.69835 0.0
C1825 C 0.70563 0.61187 0.70378 0.0
C1826 C 0.73733 0.60623 0.68552 0.0
C1827 C 0.75564 0.61963 0.68009 0.0
C1828 C 0.7753 0.62773 0.68739 0.0
C1829 C 0.77622 0.62214 0.70024 0.0
C1830 C 0.75792 0.60874 0.70564 0.0
H1831 H 0.69474 0.61523 0.70902 0.0
H1832 H 0.72187 0.62496 0.70673 0.0
H1833 H 0.70201 0.61143 0.69301 0.0
H1834 H 0.72238 0.59992 0.67965 0.0
H1835 H 0.75436 0.62354 0.67015 0.0
H1836 H 0.47814 0.08292 0.70704 0.0
H1837 H 0.45523 0.09531 0.69843 0.0
H1838 H 0.45369 0.11881 0.73795 0.0
H1839 H 0.47636 0.10617 0.74671 0.0
H1840 H 0.41436 0.08273 0.70581 0.0
H1841 H 0.4683 0.16907 0.71625 0.0
H1842 H 0.47745 0.15051 0.7159 0.0
H1843 H 0.4656 0.15405 0.72994 0.0
C1844 C 0.47291 0.09068 0.71393 0.0
C1845 C 0.47906 0.0935 0.72758 0.0
C1846 C 0.45991 0.09785 0.70897 0.0
C1847 C 0.45294 0.10815 0.71754 0.0
C1848 C 0.45921 0.11124 0.73115 0.0
H1849 H 0.36987 0.15831 0.70303 0.0
H1850 H 0.39355 0.14788 0.71325 0.0
C1851 C 0.47219 0.10403 0.73613 0.0
C1852 C 0.43829 0.11471 0.71224 0.0
H1853 H 0.43345 0.15762 0.70787 0.0
C1854 C 0.41852 0.0991 0.70623 0.0
C1855 C 0.44374 0.13606 0.71293 0.0
C1856 C 0.46497 0.15346 0.71901 0.0
C1857 C 0.40398 0.10425 0.70091 0.0
C1858 C 0.40956 0.12564 0.70134 0.0
C1859 C 0.42924 0.14124 0.70753 0.0
C1860 C 0.39536 0.13211 0.69514 0.0
C1861 C 0.38266 0.0867 0.69506 0.0
C1862 C 0.3888 0.12701 0.68154 0.0
C1863 C 0.37522 0.13284 0.67568 0.0
C1864 C 0.36808 0.14411 0.68329 0.0
C1865 C 0.37501 0.14958 0.69688 0.0
C1866 C 0.38856 0.14366 0.70274 0.0
H1867 H 0.37878 0.07158 0.69892 0.0
H1868 H 0.37031 0.09045 0.6972 0.0
H1869 H 0.38246 0.08446 0.68418 0.0
H1870 H 0.39425 0.11855 0.67542 0.0
H1871 H 0.37039 0.12854 0.66517 0.0
H1872 H 0.941 0.40291 0.70071 0.0
H1873 H 0.92237 0.36581 0.69184 0.0
H1874 H 0.87249 0.35407 0.71579 0.0
H1875 H 0.89093 0.39122 0.72464 0.0
H1876 H 0.88652 0.32533 0.71731 0.0
H1877 H 0.8697 0.33455 0.66518 0.0
H1878 H 0.89674 0.35049 0.6716 0.0
H1879 H 0.87756 0.35522 0.67853 0.0
C1880 C 0.92593 0.39251 0.70395 0.0
C1881 C 0.91742 0.40005 0.71336 0.0
C1882 C 0.9153 0.37132 0.69887 0.0
C1883 C 0.89592 0.35728 0.70302 0.0
C1884 C 0.88741 0.36469 0.71243 0.0
H1885 H 0.81303 0.22833 0.66664 0.0
H1886 H 0.82746 0.26517 0.6756 0.0
C1887 C 0.89802 0.38589 0.71752 0.0
C1888 C 0.88493 0.3347 0.69791 0.0
H1889 H 0.86403 0.30086 0.66952 0.0
C1890 C 0.88146 0.31995 0.70688 0.0
C1891 C 0.87813 0.32773 0.68432 0.0
C1892 C 0.88051 0.34278 0.67435 0.0
C1893 C 0.87191 0.29842 0.70255 0.0
C1894 C 0.86592 0.29155 0.6889 0.0
C1895 C 0.86881 0.30622 0.67998 0.0
C1896 C 0.85708 0.26926 0.68364 0.0
C1897 C 0.86823 0.28319 0.71264 0.0
C1898 C 0.86908 0.25951 0.68506 0.0
C1899 C 0.86092 0.23858 0.67995 0.0
C1900 C 0.84064 0.22706 0.67328 0.0
C1901 C 0.82869 0.23686 0.67177 0.0
C1902 C 0.8369 0.25785 0.67687 0.0
H1903 H 0.86847 0.29006 0.72273 0.0
H1904 H 0.85302 0.26841 0.71004 0.0
H1905 H 0.8808 0.27919 0.71289 0.0
H1906 H 0.88484 0.26817 0.69002 0.0
H1907 H 0.87053 0.23145 0.68117 0.0
H1908 H 0.19629 0.9452 0.60238 0.0
H1909 H 0.21609 0.98206 0.6118 0.0
H1910 H 0.19224 0.9644 0.64925 0.0
H1911 H 0.17215 0.9275 0.63988 0.0
H1912 H 0.20158 0.00771 0.62389 0.0
H1913 H 0.25652 0.99813 0.6583 0.0
H1914 H 0.24032 0.97865 0.64465 0.0
H1915 H 0.22925 0.98052 0.65951 0.0
C1916 C 0.19507 0.94916 0.61258 0.0
C1917 C 0.1827 0.93338 0.6204 0.0
C1918 C 0.20646 0.97021 0.61796 0.0
C1919 C 0.20581 0.97588 0.63125 0.0
C1920 C 0.19324 0.96027 0.63903 0.0
H1921 H 0.25272 0.10297 0.66957 0.0
H1922 H 0.23036 0.06605 0.66036 0.0
C1923 C 0.18181 0.9392 0.63366 0.0
C1924 C 0.21841 0.99816 0.63696 0.0
H1925 H 0.25913 0.03148 0.65997 0.0
C1926 C 0.21415 0.01294 0.63179 0.0
C1927 C 0.23492 0.0049 0.64716 0.0
C1928 C 0.24072 0.9898 0.65269 0.0
C1929 C 0.22591 0.03435 0.63663 0.0
C1930 C 0.24218 0.04102 0.64699 0.0
C1931 C 0.24651 0.02625 0.6521 0.0
C1932 C 0.25542 0.06339 0.65237 0.0
C1933 C 0.22116 0.04973 0.63045 0.0
C1934 C 0.2769 0.07396 0.65109 0.0
C1935 C 0.28965 0.09493 0.65636 0.0
C1936 C 0.28114 0.10564 0.6631 0.0
C1937 C 0.25963 0.09506 0.6644 0.0
C1938 C 0.24686 0.07405 0.65909 0.0
H1939 H 0.21132 0.04282 0.62081 0.0
H1940 H 0.21259 0.05435 0.63719 0.0
H1941 H 0.23583 0.06418 0.62891 0.0
H1942 H 0.2838 0.06597 0.64597 0.0
H1943 H 0.30619 0.1027 0.65523 0.0
H1944 H 0.03394 0.2102 0.60756 0.0
H1945 H 0.99931 0.19594 0.61532 0.0
H1946 H 0.00857 0.2585 0.62148 0.0
H1947 H 0.04279 0.27277 0.61332 0.0
H1948 H 0.98962 0.20451 0.63968 0.0
H1949 H 0.95112 0.22608 0.60049 0.0
H1950 H 0.97542 0.22654 0.59883 0.0
H1951 H 0.9753 0.24808 0.60811 0.0
C1952 C 0.02846 0.22088 0.61035 0.0
C1953 C 0.04114 0.24263 0.6098 0.0
C1954 C 0.00872 0.21272 0.61486 0.0
C1955 C 0.00123 0.22612 0.61879 0.0
C1956 C 0.01384 0.24781 0.61825 0.0
H1957 H 0.90876 0.20853 0.67136 0.0
H1958 H 0.94036 0.2175 0.66077 0.0
C1959 C 0.03353 0.25598 0.61374 0.0
C1960 C 0.98066 0.21762 0.62405 0.0
H1961 H 0.93407 0.2165 0.62017 0.0
C1962 C 0.97739 0.20694 0.63534 0.0
C1963 C 0.96459 0.22054 0.61827 0.0
C1964 C 0.96666 0.23074 0.60568 0.0
C1965 C 0.95878 0.19977 0.6413 0.0
C1966 C 0.9432 0.20373 0.63594 0.0
C1967 C 0.94614 0.21371 0.62437 0.0
C1968 C 0.92394 0.19807 0.64237 0.0
C1969 C 0.95597 0.18794 0.65323 0.0
C1970 C 0.90417 0.18462 0.63542 0.0
C1971 C 0.88602 0.17958 0.64141 0.0
C1972 C 0.88731 0.18801 0.65446 0.0
C1973 C 0.90716 0.20164 0.66134 0.0
C1974 C 0.92528 0.20668 0.65533 0.0
H1975 H 0.96611 0.18085 0.65366 0.0
H1976 H 0.96035 0.19901 0.66233 0.0
H1977 H 0.93946 0.17527 0.65322 0.0
H1978 H 0.90279 0.17792 0.62537 0.0
H1979 H 0.871 0.16909 0.6358 0.0
H1980 H 0.78847 0.83677 0.63399 0.0
H1981 H 0.79387 0.81223 0.64635 0.0
H1982 H 0.78157 0.77245 0.6101 0.0
H1983 H 0.77608 0.79686 0.59767 0.0
H1984 H 0.76865 0.76833 0.64843 0.0
H1985 H 0.84104 0.78798 0.62505 0.0
H1986 H 0.82852 0.80352 0.62405 0.0
H1987 H 0.81811 0.77911 0.61364 0.0
C1988 C 0.78653 0.8226 0.62868 0.0
C1989 C 0.78207 0.81885 0.61484 0.0
C1990 C 0.7897 0.80865 0.63575 0.0
C1991 C 0.78849 0.79076 0.62909 0.0
C1992 C 0.78299 0.78641 0.61537 0.0
H1993 H 0.79272 0.68781 0.6635 0.0
H1994 H 0.78162 0.70946 0.65217 0.0
C1995 C 0.77988 0.80036 0.60829 0.0
C1996 C 0.79403 0.77726 0.63641 0.0
H1997 H 0.82965 0.76094 0.63907 0.0
C1998 C 0.78196 0.76667 0.6464 0.0
C1999 C 0.8116 0.77541 0.63384 0.0
C2000 C 0.82571 0.78723 0.62365 0.0
C2001 C 0.78689 0.75404 0.65382 0.0
C2002 C 0.80419 0.75184 0.65103 0.0
C2003 C 0.81633 0.76258 0.64112 0.0
C2004 C 0.81031 0.7388 0.65842 0.0
C2005 C 0.77382 0.74349 0.66472 0.0
C2006 C 0.83019 0.74809 0.66554 0.0
C2007 C 0.83661 0.73575 0.6719 0.0
C2008 C 0.82331 0.7139 0.67115 0.0
C2009 C 0.80329 0.70464 0.66419 0.0
C2010 C 0.79688 0.71698 0.65781 0.0
H2011 H 0.76447 0.75075 0.66769 0.0
H2012 H 0.76283 0.72667 0.66121 0.0
H2013 H 0.78382 0.7443 0.67356 0.0
H2014 H 0.84081 0.76489 0.66608 0.0
H2015 H 0.85213 0.74328 0.6772 0.0
H2016 H 0.05399 0.82229 0.62828 0.0
H2017 H 0.01978 0.80396 0.63659 0.0
H2018 H 1.00021 0.75161 0.60678 0.0
H2019 H 0.03433 0.76989 0.59832 0.0
H2020 H 0.97885 0.78788 0.62384 0.0
H2021 H 0.99116 0.72505 0.64187 0.0
H2022 H 0.01222 0.74916 0.63726 0.0
H2023 H 0.99451 0.72847 0.62473 0.0
C2024 C 0.04232 0.807 0.62337 0.0
C2025 C 0.04693 0.79749 0.61268 0.0
C2026 C 0.02282 0.79652 0.62817 0.0
C2027 C 0.00761 0.77633 0.62242 0.0
C2028 C 0.0119 0.76703 0.61151 0.0
H2029 H 0.87653 0.70663 0.63665 0.0
H2030 H 0.90924 0.72678 0.62691 0.0
C2031 C 0.0314 0.77748 0.60671 0.0
C2032 C 0.98744 0.76483 0.62806 0.0
H2033 H 0.95776 0.72119 0.6433 0.0
C2034 C 0.97419 0.77329 0.62809 0.0
C2035 C 0.98159 0.74595 0.63374 0.0
C2036 C 0.99566 0.73666 0.63454 0.0
C2037 C 0.9551 0.76325 0.63356 0.0
C2038 C 0.94905 0.74414 0.63899 0.0
C2039 C 0.96239 0.73578 0.63904 0.0
C2040 C 0.92917 0.73272 0.64496 0.0
C2041 C 0.94177 0.77338 0.63375 0.0
C2042 C 0.92953 0.72915 0.65829 0.0
C2043 C 0.9109 0.71755 0.66388 0.0
C2044 C 0.8915 0.70917 0.65621 0.0
C2045 C 0.89118 0.71294 0.64286 0.0
C2046 C 0.90986 0.72454 0.63728 0.0
H2047 H 0.95085 0.79027 0.6322 0.0
H2048 H 0.92874 0.76526 0.62568 0.0
H2049 H 0.93492 0.77204 0.64327 0.0
H2050 H 0.94428 0.73527 0.66437 0.0
H2051 H 0.91174 0.71497 0.67417 0.0
H2052 H 0.17467 0.2241 0.58989 0.0
H2053 H 0.19533 0.20825 0.59689 0.0
H2054 H 0.1977 0.23045 0.63752 0.0
H2055 H 0.17649 0.24569 0.63068 0.0
H2056 H 0.23523 0.22871 0.60998 0.0
H2057 H 0.17998 0.16908 0.63972 0.0
H2058 H 0.172 0.18214 0.62835 0.0
H2059 H 0.18468 0.19501 0.64458 0.0
C2060 C 0.17924 0.22525 0.60034 0.0
C2061 C 0.17388 0.23612 0.60973 0.0
C2062 C 0.19116 0.21631 0.60431 0.0
C2063 C 0.1978 0.21792 0.61774 0.0
C2064 C 0.19239 0.22866 0.62713 0.0
H2065 H 0.28078 0.19534 0.66638 0.0
H2066 H 0.25631 0.20482 0.65646 0.0
C2067 C 0.18048 0.23759 0.62318 0.0
C2068 C 0.21131 0.20937 0.62192 0.0
H2069 H 0.21555 0.17713 0.64285 0.0
C2070 C 0.23084 0.21722 0.61703 0.0
C2071 C 0.20551 0.19434 0.63109 0.0
C2072 C 0.18431 0.18449 0.63615 0.0
C2073 C 0.24508 0.21112 0.62151 0.0
C2074 C 0.23951 0.1966 0.63099 0.0
C2075 C 0.21979 0.18833 0.63561 0.0
C2076 C 0.25435 0.19063 0.63678 0.0
C2077 C 0.26629 0.22086 0.61647 0.0
C2078 C 0.26124 0.17936 0.629 0.0
C2079 C 0.27529 0.17388 0.63465 0.0
C2080 C 0.28264 0.17958 0.64818 0.0
C2081 C 0.27554 0.19076 0.65593 0.0
C2082 C 0.2615 0.19616 0.65029 0.0
H2083 H 0.26957 0.23465 0.61113 0.0
H2084 H 0.27879 0.2259 0.62475 0.0
H2085 H 0.26694 0.20901 0.60953 0.0
H2086 H 0.25566 0.17469 0.61859 0.0
H2087 H 0.28036 0.16519 0.62841 0.0
H2088 H 0.76537 0.96308 0.60374 0.0
H2089 H 0.76951 0.99547 0.61507 0.0
H2090 H 0.80312 0.98942 0.64889 0.0
H2091 H 0.79887 0.95688 0.6377 0.0
H2092 H 0.77095 0.00241 0.65392 0.0
H2093 H 0.83043 0.04967 0.62084 0.0
H2094 H 0.80593 0.02808 0.61309 0.0
H2095 H 0.82329 0.02292 0.62304 0.0
C2096 C 0.77325 0.9684 0.6137 0.0
C2097 C 0.78192 0.95752 0.61981 0.0
C2098 C 0.7757 0.98694 0.62011 0.0
C2099 C 0.78677 0.99485 0.63273 0.0
C2100 C 0.79457 0.98354 0.63912 0.0
H2101 H 0.85127 0.11822 0.67538 0.0
H2102 H 0.83949 0.08279 0.66482 0.0
C2103 C 0.79224 0.96506 0.6327 0.0
C2104 C 0.79155 0.01566 0.6389 0.0
H2105 H 0.82235 0.06822 0.63685 0.0
C2106 C 0.78206 0.01682 0.65017 0.0
C2107 C 0.80622 0.03435 0.63401 0.0
C2108 C 0.81722 0.03387 0.62213 0.0
C2109 C 0.78692 0.03634 0.6567 0.0
C2110 C 0.80161 0.05501 0.6518 0.0
C2111 C 0.81102 0.05381 0.64052 0.0
C2112 C 0.80818 0.07604 0.65856 0.0
C2113 C 0.77678 0.03694 0.66898 0.0
C2114 C 0.79444 0.08391 0.65847 0.0
C2115 C 0.80115 0.10418 0.66445 0.0
C2116 C 0.82169 0.1168 0.67059 0.0
C2117 C 0.83534 0.10879 0.67074 0.0
C2118 C 0.82866 0.08861 0.66472 0.0
H2119 H 0.76817 0.02125 0.6726 0.0
H2120 H 0.78874 0.04823 0.67699 0.0
H2121 H 0.76557 0.04242 0.66677 0.0
H2122 H 0.77864 0.0745 0.65363 0.0
H2123 H 0.79034 0.11002 0.6642 0.0
H2124 H 0.47543 0.36094 0.74457 0.0
H2125 H 0.44669 0.32903 0.73204 0.0
H2126 H 0.47718 0.34663 0.69655 0.0
H2127 H 0.5058 0.37882 0.70894 0.0
H2128 H 0.43204 0.32975 0.69344 0.0
H2129 H 0.45617 0.27984 0.71919 0.0
H2130 H 0.45198 0.29767 0.72968 0.0
H2131 H 0.47309 0.30789 0.7195 0.0
C2132 C 0.47583 0.35824 0.73405 0.0
C2133 C 0.49297 0.37233 0.72776 0.0
C2134 C 0.45949 0.33992 0.72694 0.0
C2135 C 0.46001 0.33538 0.71343 0.0
C2136 C 0.47658 0.34984 0.70699 0.0
H2137 H 0.39887 0.21733 0.66394 0.0
H2138 H 0.42319 0.25171 0.67617 0.0
C2139 C 0.49296 0.36813 0.7141 0.0
C2140 C 0.44389 0.31505 0.70616 0.0
H2141 H 0.42592 0.26233 0.70391 0.0
C2142 C 0.43059 0.31497 0.69574 0.0
C2143 C 0.44228 0.29589 0.70912 0.0
C2144 C 0.45671 0.29519 0.71991 0.0
C2145 C 0.41563 0.29613 0.68819 0.0
C2146 C 0.41392 0.27696 0.69124 0.0
C2147 C 0.42723 0.27707 0.70166 0.0
C2148 C 0.39899 0.25662 0.68345 0.0
C2149 C 0.40211 0.29688 0.67683 0.0
C2150 C 0.37734 0.24802 0.68352 0.0
C2151 C 0.36342 0.22838 0.67654 0.0
C2152 C 0.37098 0.21705 0.66944 0.0
C2153 C 0.39264 0.22577 0.66931 0.0
C2154 C 0.40652 0.24535 0.6763 0.0
H2155 H 0.40815 0.31311 0.67416 0.0
H2156 H 0.40107 0.28665 0.66798 0.0
H2157 H 0.38606 0.29096 0.67965 0.0
H2158 H 0.37124 0.25634 0.68915 0.0
H2159 H 0.34678 0.22198 0.67681 0.0
H2160 H 0.63385 0.11237 0.75081 0.0
H2161 H 0.66864 0.12806 0.74315 0.0
H2162 H 0.64052 0.1041 0.70296 0.0
H2163 H 0.60579 0.08906 0.71044 0.0
H2164 H 0.68585 0.1075 0.73006 0.0
H2165 H 0.68243 0.16509 0.6994 0.0
H2166 H 0.66401 0.15245 0.71118 0.0
H2167 H 0.66069 0.13896 0.69507 0.0
C2168 C 0.63507 0.11079 0.74031 0.0
C2169 C 0.61702 0.09947 0.73124 0.0
C2170 C 0.65496 0.11965 0.73597 0.0
C2171 C 0.65717 0.11751 0.72247 0.0
C2172 C 0.6392 0.10632 0.71339 0.0
H2173 H 0.7522 0.1382 0.6721 0.0
H2174 H 0.72039 0.12904 0.6825 0.0
C2175 C 0.61934 0.09749 0.71771 0.0
C2176 C 0.6782 0.12597 0.71788 0.0
H2177 H 0.70943 0.15703 0.6959 0.0
C2178 C 0.69116 0.11855 0.72273 0.0
C2179 C 0.68509 0.14043 0.70833 0.0
C2180 C 0.67242 0.14987 0.70329 0.0
C2181 C 0.71043 0.1245 0.71786 0.0
C2182 C 0.71698 0.13842 0.70801 0.0
C2183 C 0.70429 0.14628 0.70341 0.0
C2184 C 0.73648 0.14427 0.70188 0.0
C2185 C 0.72327 0.11524 0.72291 0.0
C2186 C 0.7561 0.15605 0.70933 0.0
C2187 C 0.77438 0.16136 0.70341 0.0
C2188 C 0.77333 0.15497 0.68993 0.0
C2189 C 0.75362 0.14331 0.6825 0.0
C2190 C 0.7354 0.13809 0.68842 0.0
H2191 H 0.7142 0.10174 0.72858 0.0
H2192 H 0.72911 0.10991 0.7146 0.0
H2193 H 0.73701 0.12747 0.72955 0.0
H2194 H 0.75727 0.16123 0.7197 0.0
H2195 H 0.78929 0.17042 0.70942 0.0
H2196 H 0.94086 0.56632 0.72455 0.0
H2197 H 0.92354 0.58389 0.7149 0.0
H2198 H 0.87878 0.526 0.69138 0.0
H2199 H 0.89634 0.50836 0.70065 0.0
H2200 H 0.91543 0.58452 0.68543 0.0
H2201 H 0.84435 0.54861 0.71215 0.0
H2202 H 0.86854 0.55033 0.71839 0.0
H2203 H 0.85247 0.53143 0.70464 0.0
C2204 C 0.92746 0.55733 0.71724 0.0
C2205 C 0.92003 0.53591 0.71337 0.0
C2206 C 0.91751 0.56737 0.71181 0.0
C2207 C 0.89984 0.55616 0.70254 0.0
C2208 C 0.89227 0.53481 0.69867 0.0
H2209 H 0.81862 0.59506 0.66345 0.0
H2210 H 0.83396 0.57455 0.6715 0.0
C2211 C 0.90228 0.52476 0.70402 0.0
C2212 C 0.88969 0.56703 0.69665 0.0
H2213 H 0.84624 0.57175 0.69674 0.0
C2214 C 0.9003 0.58175 0.68787 0.0
C2215 C 0.86988 0.56315 0.69979 0.0
C2216 C 0.85808 0.54762 0.70931 0.0
C2217 C 0.89159 0.59278 0.68211 0.0
C2218 C 0.87202 0.58938 0.68553 0.0
C2219 C 0.86126 0.57437 0.69416 0.0
C2220 C 0.86275 0.60171 0.68058 0.0
C2221 C 0.90333 0.60774 0.67227 0.0
C2222 C 0.87373 0.62371 0.68317 0.0
C2223 C 0.86511 0.63539 0.67849 0.0
C2224 C 0.84519 0.62527 0.67134 0.0
C2225 C 0.83404 0.60324 0.66891 0.0
C2226 C 0.84275 0.59153 0.67352 0.0
H2227 H 0.91426 0.60367 0.6677 0.0
H2228 H 0.89244 0.6077 0.66428 0.0
H2229 H 0.91272 0.62391 0.67743 0.0
H2230 H 0.88895 0.63187 0.68887 0.0
H2231 H 0.87407 0.65237 0.6805 0.0
H2232 H 0.46569 0.92304 0.19306 0.0
H2233 H 0.47112 0.93007 0.17003 0.0
H2234 H 0.46379 0.98416 0.17704 0.0
H2235 H 0.45876 0.97753 0.2001 0.0
H2236 H 0.44461 0.9347 0.14964 0.0
H2237 H 0.52213 0.00694 0.16314 0.0
H2238 H 0.5097 0.98756 0.17445 0.0
H2239 H 0.50107 0.00589 0.17153 0.0
C2240 C 0.46525 0.93644 0.18969 0.0
C2241 C 0.46191 0.9498 0.19842 0.0
C2242 C 0.46823 0.94034 0.17653 0.0
C2243 C 0.4681 0.95776 0.17191 0.0
C2244 C 0.46417 0.97077 0.18047 0.0
H2245 H 0.49723 0.01603 0.09917 0.0
H2246 H 0.48682 0.00633 0.12111 0.0
C2247 C 0.46111 0.96684 0.19361 0.0
C2248 C 0.47269 0.9627 0.15825 0.0
H2249 H 0.50859 0.99915 0.14064 0.0
C2250 C 0.45859 0.94876 0.14763 0.0
C2251 C 0.49096 0.98105 0.15572 0.0
C2252 C 0.50697 0.99619 0.16678 0.0
C2253 C 0.46212 0.9529 0.13449 0.0
C2254 C 0.48044 0.97124 0.13195 0.0
C2255 C 0.49453 0.98514 0.1426 0.0
C2256 C 0.4855 0.97636 0.11834 0.0
C2257 C 0.44598 0.93785 0.12346 0.0
C2258 C 0.48825 0.96274 0.1095 0.0
C2259 C 0.4942 0.96824 0.09695 0.0
C2260 C 0.49776 0.98759 0.09308 0.0
C2261 C 0.49484 0.00112 0.10192 0.0
C2262 C 0.4888 0.99557 0.11443 0.0
H2263 H 0.4305 0.9281 0.12707 0.0
H2264 H 0.44414 0.94641 0.11541 0.0
H2265 H 0.45107 0.92709 0.11926 0.0
H2266 H 0.4863 0.94808 0.11243 0.0
H2267 H 0.49662 0.95763 0.09044 0.0
H2268 H 0.09723 0.56311 0.19179 0.0
H2269 H 0.08183 0.55357 0.1688 0.0
H2270 H 0.0366 0.49176 0.17779 0.0
H2271 H 0.05169 0.50136 0.20103 0.0
H2272 H 0.07786 0.51875 0.15156 0.0
H2273 H 0.00144 0.51362 0.15795 0.0
H2274 H 0.02366 0.52751 0.17036 0.0
H2275 H 0.00924 0.49932 0.16827 0.0
C2276 C 0.08377 0.5476 0.18896 0.0
C2277 C 0.07556 0.53305 0.19826 0.0
C2278 C 0.07511 0.54213 0.1758 0.0
C2279 C 0.05802 0.52204 0.17165 0.0
C2280 C 0.04966 0.50743 0.18086 0.0
H2281 H 0.99342 0.48183 0.09074 0.0
H2282 H 0.0037 0.4803 0.11382 0.0
C2283 C 0.05838 0.51289 0.19408 0.0
C2284 C 0.04954 0.51649 0.15754 0.0
H2285 H 0.00835 0.50854 0.13621 0.0
C2286 C 0.06257 0.51628 0.1482 0.0
C2287 C 0.02953 0.51311 0.15323 0.0
C2288 C 0.0151 0.51348 0.16292 0.0
C2289 C 0.05639 0.51347 0.1346 0.0
C2290 C 0.03684 0.51118 0.13027 0.0
C2291 C 0.02337 0.51037 0.1396 0.0
C2292 C 0.03095 0.51151 0.11621 0.0
C2293 C 0.07099 0.51331 0.12498 0.0
C2294 C 0.04281 0.5296 0.10999 0.0
C2295 C 0.03701 0.53052 0.0969 0.0
C2296 C 0.01917 0.51338 0.08976 0.0
C2297 C 0.00737 0.49519 0.09597 0.0
C2298 C 0.01314 0.49432 0.10914 0.0
H2299 H 0.08207 0.50894 0.12954 0.0
H2300 H 0.06215 0.50215 0.11601 0.0
H2301 H 0.08028 0.52928 0.12187 0.0
H2302 H 0.05643 0.54315 0.11535 0.0
H2303 H 0.0465 0.54467 0.09235 0.0
H2304 H 0.46564 0.53437 0.20258 0.0
H2305 H 0.46911 0.53544 0.17884 0.0
H2306 H 0.48391 0.48588 0.17873 0.0
H2307 H 0.48024 0.48453 0.20242 0.0
H2308 H 0.50689 0.54297 0.167 0.0
H2309 H 0.43672 0.4665 0.1474 0.0
H2310 H 0.43928 0.47958 0.1636 0.0
H2311 H 0.45312 0.46574 0.16083 0.0
C2312 C 0.46933 0.52348 0.19745 0.0
C2313 C 0.47264 0.50934 0.20434 0.0
C2314 C 0.4714 0.52419 0.18393 0.0
C2315 C 0.47655 0.5106 0.17705 0.0
C2316 C 0.47965 0.49631 0.18385 0.0
H2317 H 0.50158 0.49175 0.09703 0.0
H2318 H 0.4941 0.48915 0.12011 0.0
C2319 C 0.47773 0.49569 0.19739 0.0
C2320 C 0.47973 0.51208 0.16289 0.0
H2321 H 0.46054 0.48494 0.13215 0.0
C2322 C 0.49671 0.53037 0.15935 0.0
C2323 C 0.46648 0.49552 0.153 0.0
C2324 C 0.44776 0.47575 0.15632 0.0
C2325 C 0.50109 0.53238 0.14615 0.0
C2326 C 0.48776 0.51586 0.13621 0.0
C2327 C 0.4707 0.4976 0.13977 0.0
C2328 C 0.49148 0.5171 0.12208 0.0
C2329 C 0.52034 0.55191 0.14307 0.0
C2330 C 0.49204 0.53341 0.11545 0.0
C2331 C 0.49643 0.535 0.1023 0.0
C2332 C 0.50001 0.5201 0.09548 0.0
C2333 C 0.49876 0.50338 0.10201 0.0
C2334 C 0.49455 0.50192 0.11519 0.0
H2335 H 0.53179 0.56007 0.15198 0.0
H2336 H 0.52817 0.54808 0.1353 0.0
H2337 H 0.51573 0.563 0.1394 0.0
H2338 H 0.48915 0.54498 0.12046 0.0
H2339 H 0.49694 0.54783 0.09744 0.0
H2340 H 0.00129 0.52166 0.80037 0.0
H2341 H 0.00252 0.51998 0.82432 0.0
H2342 H 0.93811 0.47008 0.81958 0.0
H2343 H 0.93683 0.47139 0.79564 0.0
H2344 H 0.97514 0.52381 0.84275 0.0
H2345 H 0.97136 0.44644 0.83977 0.0
H2346 H 0.97859 0.46271 0.82636 0.0
H2347 H 0.95167 0.4477 0.82933 0.0
C2348 C 0.98742 0.51029 0.80443 0.0
C2349 C 0.96899 0.4966 0.79611 0.0
C2350 C 0.98811 0.50944 0.8181 0.0
C2351 C 0.97047 0.49477 0.82365 0.0
C2352 C 0.95194 0.48136 0.81544 0.0
H2353 H 0.94927 0.45731 0.90278 0.0
H2354 H 0.94553 0.46132 0.8793 0.0
C2355 C 0.9512 0.48226 0.80178 0.0
C2356 C 0.97153 0.49325 0.83804 0.0
H2357 H 0.97022 0.46091 0.86082 0.0
C2358 C 0.97409 0.5101 0.84674 0.0
C2359 C 0.97009 0.47529 0.84315 0.0
C2360 C 0.96793 0.45703 0.83421 0.0
C2361 C 0.97498 0.50934 0.86048 0.0
C2362 C 0.97373 0.49144 0.86562 0.0
C2363 C 0.97111 0.47458 0.85687 0.0
C2364 C 0.97548 0.48992 0.88002 0.0
C2365 C 0.97681 0.52752 0.86934 0.0
C2366 C 0.99355 0.50466 0.88822 0.0
C2367 C 0.99569 0.50244 0.90164 0.0
C2368 C 0.97991 0.48527 0.90707 0.0
C2369 C 0.96176 0.47061 0.89885 0.0
C2370 C 0.95958 0.47292 0.88546 0.0
H2371 H 0.97137 0.53675 0.86388 0.0
H2372 H 0.96762 0.52198 0.87789 0.0
H2373 H 0.99345 0.53821 0.8732 0.0
H2374 H 0.00626 0.51759 0.88417 0.0
H2375 H 0.01 0.51378 0.90766 0.0
H2376 H 0.56494 0.46208 0.8261 0.0
H2377 H 0.55438 0.47038 0.84684 0.0
H2378 H 0.51188 0.48431 0.82513 0.0
H2379 H 0.522 0.47549 0.80424 0.0
H2380 H 0.5557 0.50807 0.85701 0.0
H2381 H 0.47471 0.43933 0.84866 0.0
H2382 H 0.49523 0.44131 0.83914 0.0
H2383 H 0.48295 0.45646 0.83582 0.0
C2384 C 0.55325 0.46679 0.82572 0.0
C2385 C 0.54412 0.46788 0.81353 0.0
C2386 C 0.54736 0.47168 0.83758 0.0
C2387 C 0.53217 0.47768 0.8375 0.0
C2388 C 0.52343 0.47941 0.82538 0.0
H2389 H 0.47193 0.49294 0.90526 0.0
H2390 H 0.48298 0.49348 0.88307 0.0
C2391 C 0.52935 0.47454 0.81348 0.0
C2392 C 0.52527 0.4816 0.85017 0.0
H2393 H 0.48402 0.46132 0.86861 0.0
C2394 C 0.53999 0.49797 0.85953 0.0
C2395 C 0.50474 0.46843 0.85338 0.0
C2396 C 0.48847 0.45028 0.84379 0.0
C2397 C 0.53481 0.50133 0.87212 0.0
C2398 C 0.5145 0.48767 0.8755 0.0
C2399 C 0.49959 0.47174 0.86599 0.0
C2400 C 0.50871 0.48883 0.88907 0.0
C2401 C 0.55113 0.51945 0.88168 0.0
C2402 C 0.51948 0.48596 0.89978 0.0
C2403 C 0.51331 0.48578 0.91247 0.0
C2404 C 0.4961 0.48828 0.91468 0.0
C2405 C 0.48542 0.49127 0.90393 0.0
C2406 C 0.49162 0.49146 0.89123 0.0
H2407 H 0.56311 0.53194 0.87642 0.0
H2408 H 0.54395 0.52646 0.88796 0.0
H2409 H 0.55923 0.51369 0.88823 0.0
H2410 H 0.53243 0.48345 0.8983 0.0
H2411 H 0.52199 0.48364 0.92054 0.0
H2412 H 0.54187 0.03208 0.80951 0.0
H2413 H 0.53762 0.02562 0.83263 0.0
H2414 H 0.51122 0.06588 0.83676 0.0
H2415 H 0.51607 0.07304 0.81375 0.0
H2416 H 0.53967 0.0717 0.85847 0.0
H2417 H 0.48015 0.9874 0.84492 0.0
H2418 H 0.50459 0.99569 0.83824 0.0
H2419 H 0.4885 0.00628 0.83301 0.0
C2420 C 0.5355 0.03988 0.81538 0.0
C2421 C 0.52919 0.05299 0.80974 0.0
C2422 C 0.53287 0.03597 0.82856 0.0
C2423 C 0.52376 0.04497 0.83633 0.0
C2424 C 0.51814 0.05866 0.83089 0.0
H2425 H 0.46373 0.00369 0.90701 0.0
H2426 H 0.47308 0.01385 0.88501 0.0
C2427 C 0.52078 0.0626 0.81772 0.0
C2428 C 0.51948 0.03963 0.84998 0.0
H2429 H 0.49106 0.99876 0.86769 0.0
C2430 C 0.52907 0.05576 0.86052 0.0
C2431 C 0.50544 0.01886 0.85258 0.0
C2432 C 0.4939 0.00106 0.8416 0.0
C2433 C 0.52508 0.05164 0.87361 0.0
C2434 C 0.51133 0.0308 0.87622 0.0
C2435 C 0.5017 0.0147 0.86567 0.0
C2436 C 0.50607 0.02535 0.88975 0.0
C2437 C 0.53517 0.06969 0.8845 0.0
C2438 C 0.52152 0.02837 0.89971 0.0
C2439 C 0.51621 0.02252 0.91232 0.0
C2440 C 0.49531 0.01336 0.91513 0.0
C2441 C 0.47992 0.01043 0.90512 0.0
C2442 C 0.48524 0.01632 0.89256 0.0
H2443 H 0.54116 0.08512 0.88055 0.0
H2444 H 0.52395 0.06814 0.89168 0.0
H2445 H 0.54857 0.06962 0.8899 0.0
H2446 H 0.53763 0.03492 0.89768 0.0
H2447 H 0.52839 0.02472 0.91976 0.0
H2448 H 0.11806 0.30773 0.53176 0.0
H2449 H 0.12154 0.31312 0.50843 0.0
H2450 H 0.14427 0.2697 0.50421 0.0
H2451 H 0.14002 0.26354 0.52735 0.0
H2452 H 0.15761 0.32921 0.49676 0.0
H2453 H 0.10125 0.24939 0.47222 0.0
H2454 H 0.10147 0.25718 0.48942 0.0
H2455 H 0.11982 0.24957 0.48442 0.0
C2456 C 0.12333 0.29893 0.5258 0.0
C2457 C 0.12871 0.28514 0.53144 0.0
C2458 C 0.12545 0.30215 0.51249 0.0
C2459 C 0.13289 0.2916 0.50453 0.0
C2460 C 0.13807 0.27768 0.51008 0.0
H2461 H 0.17815 0.30086 0.42814 0.0
H2462 H 0.16742 0.29235 0.4502 0.0
C2463 C 0.1359 0.27439 0.52337 0.0
C2464 C 0.13661 0.29624 0.49069 0.0
H2465 H 0.1257 0.27341 0.45878 0.0
C2466 C 0.15044 0.31706 0.48844 0.0
C2467 C 0.12726 0.28035 0.47985 0.0
C2468 C 0.11146 0.25791 0.48156 0.0
C2469 C 0.15569 0.32231 0.47569 0.0
C2470 C 0.14667 0.30634 0.4649 0.0
C2471 C 0.13261 0.28558 0.4671 0.0
C2472 C 0.15224 0.31084 0.45133 0.0
C2473 C 0.17135 0.34476 0.4739 0.0
C2474 C 0.14692 0.32378 0.44459 0.0
C2475 C 0.15308 0.32872 0.43201 0.0
C2476 C 0.16467 0.32082 0.42595 0.0
C2477 C 0.16952 0.30745 0.43262 0.0
C2478 C 0.16329 0.30246 0.44518 0.0
H2479 H 0.17989 0.35424 0.48346 0.0
H2480 H 0.18291 0.34536 0.46725 0.0
H2481 H 0.16306 0.35215 0.46928 0.0
H2482 H 0.13818 0.3302 0.44913 0.0
H2483 H 0.1492 0.33914 0.42715 0.0
H2484 H 0.71213 0.87889 0.53707 0.0
H2485 H 0.69551 0.87177 0.51438 0.0
H2486 H 0.72314 0.8342 0.50375 0.0
H2487 H 0.73954 0.84102 0.52642 0.0
H2488 H 0.71649 0.88389 0.49312 0.0
H2489 H 0.66433 0.79742 0.48601 0.0
H2490 H 0.67554 0.81193 0.50216 0.0
H2491 H 0.69071 0.80515 0.49192 0.0
C2492 C 0.71439 0.86885 0.52993 0.0
C2493 C 0.72712 0.8605 0.5335 0.0
C2494 C 0.70484 0.86475 0.51699 0.0
C2495 C 0.70786 0.85224 0.5074 0.0
C2496 C 0.72011 0.84342 0.51105 0.0
H2497 H 0.69511 0.83604 0.42217 0.0
H2498 H 0.7023 0.83515 0.44582 0.0
C2499 C 0.72954 0.84739 0.52401 0.0
C2500 C 0.70006 0.85026 0.49335 0.0
H2501 H 0.67201 0.81486 0.46632 0.0
C2502 C 0.70654 0.86879 0.48732 0.0
C2503 C 0.68717 0.83055 0.48576 0.0
C2504 C 0.67886 0.81014 0.49183 0.0
C2505 C 0.70092 0.86815 0.47385 0.0
C2506 C 0.68839 0.84847 0.46624 0.0
C2507 C 0.6817 0.82991 0.47223 0.0
C2508 C 0.6824 0.84704 0.45196 0.0
C2509 C 0.70886 0.88851 0.46776 0.0
C2510 C 0.66847 0.85356 0.44765 0.0
C2511 C 0.66422 0.85397 0.43418 0.0
C2512 C 0.67388 0.8479 0.42477 0.0
C2513 C 0.68729 0.84067 0.42914 0.0
C2514 C 0.69147 0.8402 0.44263 0.0
H2515 H 0.72126 0.90216 0.47444 0.0
H2516 H 0.71517 0.88758 0.45829 0.0
H2517 H 0.69572 0.89138 0.46557 0.0
H2518 H 0.66116 0.85867 0.45474 0.0
H2519 H 0.65348 0.8592 0.43114 0.0
H2520 H 0.17574 0.86031 0.54012 0.0
H2521 H 0.17944 0.86095 0.51649 0.0
H2522 H 0.11282 0.8205 0.50754 0.0
H2523 H 0.10893 0.81925 0.53121 0.0
H2524 H 0.16425 0.82326 0.4967 0.0
H2525 H 0.1298 0.8736 0.48672 0.0
H2526 H 0.14013 0.87311 0.50312 0.0
H2527 H 0.11548 0.85151 0.49582 0.0
C2528 C 0.16186 0.85134 0.53316 0.0
C2529 C 0.14202 0.83966 0.53759 0.0
C2530 C 0.16401 0.85185 0.51966 0.0
C2531 C 0.1464 0.84091 0.51032 0.0
C2532 C 0.12657 0.82926 0.51464 0.0
H2533 H 0.13788 0.83844 0.42425 0.0
H2534 H 0.12947 0.83302 0.44703 0.0
C2535 C 0.12438 0.82863 0.52816 0.0
C2536 C 0.14896 0.84149 0.49606 0.0
H2537 H 0.14115 0.86191 0.46866 0.0
C2538 C 0.15915 0.83163 0.49053 0.0
C2539 C 0.14211 0.85229 0.48808 0.0
C2540 C 0.13136 0.86337 0.49368 0.0
C2541 C 0.1628 0.83237 0.47718 0.0
C2542 C 0.15658 0.84378 0.46927 0.0
C2543 C 0.14596 0.85325 0.47475 0.0
C2544 C 0.16162 0.8467 0.45544 0.0
C2545 C 0.17309 0.82074 0.47166 0.0
C2546 C 0.18248 0.85642 0.45263 0.0
C2547 C 0.18732 0.85932 0.43964 0.0
C2548 C 0.1714 0.85281 0.42917 0.0
C2549 C 0.1505 0.84334 0.43204 0.0
C2550 C 0.14567 0.84036 0.44506 0.0
H2551 H 0.17082 0.80776 0.47755 0.0
H2552 H 0.16684 0.81409 0.46122 0.0
H2553 H 0.19015 0.8318 0.47204 0.0
H2554 H 0.19508 0.86187 0.46052 0.0
H2555 H 0.20356 0.86646 0.43779 0.0
H2556 H 0.65415 0.80889 0.13106 0.0
H2557 H 0.65631 0.80843 0.15503 0.0
H2558 H 0.63322 0.85155 0.15893 0.0
H2559 H 0.63143 0.85253 0.13494 0.0
H2560 H 0.67948 0.84483 0.17521 0.0
H2561 H 0.59369 0.80017 0.17856 0.0
H2562 H 0.60478 0.80024 0.16326 0.0
H2563 H 0.60346 0.82279 0.16954 0.0
C2564 C 0.64975 0.81849 0.137 0.0
C2565 C 0.64263 0.83077 0.13106 0.0
C2566 C 0.65088 0.81809 0.15069 0.0
C2567 C 0.64473 0.82979 0.1587 0.0
C2568 C 0.63774 0.84217 0.15287 0.0
H2569 H 0.63571 0.83355 0.2439 0.0
H2570 H 0.63453 0.83962 0.22061 0.0
C2571 C 0.63668 0.84266 0.13917 0.0
C2572 C 0.64587 0.82908 0.17317 0.0
H2573 H 0.61578 0.81072 0.19852 0.0
C2574 C 0.66558 0.83745 0.18034 0.0
C2575 C 0.62769 0.81958 0.17979 0.0
C2576 C 0.60615 0.81003 0.17244 0.0
C2577 C 0.66762 0.83645 0.194 0.0
C2578 C 0.64941 0.82633 0.20058 0.0
C2579 C 0.62971 0.81841 0.19344 0.0
C2580 C 0.65044 0.82304 0.21472 0.0
C2581 C 0.68926 0.84638 0.20128 0.0
C2582 C 0.65952 0.81148 0.21908 0.0
C2583 C 0.66039 0.80816 0.23237 0.0
C2584 C 0.65195 0.81611 0.24156 0.0
C2585 C 0.64261 0.82747 0.23712 0.0
C2586 C 0.6418 0.83084 0.22381 0.0
H2587 H 0.70107 0.8588 0.19589 0.0
H2588 H 0.68988 0.85339 0.21139 0.0
H2589 H 0.69369 0.83416 0.20214 0.0
H2590 H 0.66588 0.80493 0.21219 0.0
H2591 H 0.66791 0.79955 0.23545 0.0
H2592 H 0.16833 0.78206 0.13924 0.0
H2593 H 0.15736 0.78835 0.16041 0.0
H2594 H 0.22169 0.83183 0.17527 0.0
H2595 H 0.23279 0.82557 0.1542 0.0
H2596 H 0.16958 0.77959 0.18421 0.0
H2597 H 0.19243 0.86375 0.18685 0.0
H2598 H 0.19015 0.84852 0.17159 0.0
H2599 H 0.21306 0.85877 0.18326 0.0
C2600 C 0.18012 0.79312 0.14698 0.0
C2601 C 0.20143 0.80328 0.14505 0.0
C2602 C 0.17382 0.79677 0.15903 0.0
C2603 C 0.18868 0.81072 0.16936 0.0
C2604 C 0.20991 0.82137 0.16734 0.0
H2605 H 0.18822 0.83908 0.25302 0.0
H2606 H 0.19719 0.8373 0.23043 0.0
C2607 C 0.21623 0.81775 0.15528 0.0
C2608 C 0.18219 0.81259 0.1826 0.0
H2609 H 0.18354 0.84764 0.20682 0.0
C2610 C 0.17244 0.79442 0.1891 0.0
C2611 C 0.1861 0.832 0.18899 0.0
C2612 C 0.19584 0.85185 0.18228 0.0
C2613 C 0.16688 0.7952 0.20194 0.0
C2614 C 0.17086 0.81462 0.20836 0.0
C2615 C 0.18052 0.83279 0.20185 0.0
C2616 C 0.16528 0.81633 0.22191 0.0
C2617 C 0.15734 0.77534 0.20867 0.0
C2618 C 0.14434 0.80538 0.22453 0.0
C2619 C 0.13918 0.80621 0.23742 0.0
C2620 C 0.15487 0.81813 0.24793 0.0
C2621 C 0.1758 0.82949 0.24519 0.0
C2622 C 0.18094 0.82863 0.23228 0.0
H2623 H 0.16004 0.76315 0.20375 0.0
H2624 H 0.16382 0.77862 0.21922 0.0
H2625 H 0.14021 0.76881 0.20829 0.0
H2626 H 0.13199 0.79603 0.21662 0.0
H2627 H 0.12293 0.79715 0.23919 0.0
H2628 H 0.22228 0.38955 0.14577 0.0
H2629 H 0.21939 0.38524 0.16934 0.0
H2630 H 0.15349 0.36353 0.16305 0.0
H2631 H 0.15624 0.36824 0.13963 0.0
H2632 H 0.20136 0.40284 0.18886 0.0
H2633 H 0.15941 0.3156 0.17993 0.0
H2634 H 0.17498 0.33229 0.16806 0.0
H2635 H 0.14935 0.32828 0.16979 0.0
C2636 C 0.20723 0.38417 0.14943 0.0
C2637 C 0.18944 0.37904 0.14076 0.0
C2638 C 0.20561 0.38162 0.16288 0.0
C2639 C 0.18618 0.37379 0.16785 0.0
C2640 C 0.16855 0.36927 0.15934 0.0
H2641 H 0.13032 0.33485 0.23931 0.0
H2642 H 0.13923 0.34291 0.21698 0.0
C2643 C 0.17016 0.37189 0.14594 0.0
C2644 C 0.18404 0.36987 0.18187 0.0
H2645 H 0.16063 0.3305 0.20151 0.0
C2646 C 0.19265 0.38705 0.19169 0.0
C2647 C 0.17267 0.34924 0.18546 0.0
C2648 C 0.16368 0.33023 0.1753 0.0
C2649 C 0.18944 0.38416 0.20503 0.0
C2650 C 0.17769 0.36349 0.20859 0.0
C2651 C 0.16958 0.34632 0.19877 0.0
C2652 C 0.17268 0.35926 0.22233 0.0
C2653 C 0.19792 0.40325 0.21507 0.0
C2654 C 0.18854 0.36565 0.23279 0.0
C2655 C 0.18349 0.3613 0.24566 0.0
C2656 C 0.16246 0.35031 0.24829 0.0
C2657 C 0.14666 0.34371 0.23773 0.0
C2658 C 0.15173 0.34815 0.22491 0.0
H2659 H 0.20205 0.41774 0.2103 0.0
H2660 H 0.18639 0.40114 0.22214 0.0
H2661 H 0.21228 0.40559 0.22076 0.0
H2662 H 0.20482 0.37386 0.23099 0.0
H2663 H 0.19606 0.36672 0.25355 0.0
H2664 H 0.82214 0.656 0.87148 0.0
H2665 H 0.82756 0.66086 0.84827 0.0
H2666 H 0.78292 0.59519 0.837 0.0
H2667 H 0.77707 0.59024 0.86024 0.0
H2668 H 0.84137 0.63859 0.83115 0.0
H2669 H 0.76386 0.62688 0.81241 0.0
H2670 H 0.77342 0.63302 0.82977 0.0
H2671 H 0.76364 0.60697 0.82177 0.0
C2672 C 0.8132 0.64265 0.86405 0.0
C2673 C 0.79907 0.62276 0.86769 0.0
C2674 C 0.81643 0.64543 0.85081 0.0
C2675 C 0.80549 0.62844 0.84093 0.0
C2676 C 0.79131 0.60856 0.84448 0.0
H2677 H 0.81001 0.6232 0.75533 0.0
H2678 H 0.80149 0.61431 0.77772 0.0
C2679 C 0.78812 0.60573 0.85776 0.0
C2680 C 0.80961 0.63152 0.82699 0.0
H2681 H 0.78777 0.63239 0.79675 0.0
C2682 C 0.82966 0.63721 0.82361 0.0
C2683 C 0.79423 0.62954 0.81719 0.0
C2684 C 0.77259 0.62391 0.82041 0.0
C2685 C 0.8348 0.64106 0.81068 0.0
C2686 C 0.8196 0.63965 0.80094 0.0
C2687 C 0.7994 0.63353 0.80425 0.0
C2688 C 0.82459 0.64505 0.78737 0.0
C2689 C 0.8564 0.64641 0.80753 0.0
C2690 C 0.84016 0.66537 0.78537 0.0
C2691 C 0.84516 0.67046 0.77263 0.0
C2692 C 0.83456 0.65535 0.7616 0.0
C2693 C 0.81868 0.6351 0.76362 0.0
C2694 C 0.8137 0.63003 0.77639 0.0
H2695 H 0.8639 0.64096 0.81481 0.0
H2696 H 0.85591 0.63928 0.79748 0.0
H2697 H 0.86638 0.66373 0.80789 0.0
H2698 H 0.84849 0.67732 0.79369 0.0
H2699 H 0.85759 0.68614 0.77145 0.0
H2700 H 0.37163 0.17877 0.87044 0.0
H2701 H 0.3547 0.16819 0.84763 0.0
H2702 H 0.41516 0.19974 0.83309 0.0
H2703 H 0.43212 0.20965 0.85569 0.0
H2704 H 0.35692 0.19395 0.82881 0.0
H2705 H 0.38736 0.14304 0.81107 0.0
H2706 H 0.38861 0.15086 0.82842 0.0
H2707 H 0.408 0.16824 0.81852 0.0
C2708 C 0.38129 0.18314 0.86236 0.0
C2709 C 0.40322 0.19509 0.86487 0.0
C2710 C 0.37161 0.17717 0.84936 0.0
C2711 C 0.38369 0.18287 0.83868 0.0
C2712 C 0.40554 0.19475 0.84117 0.0
H2713 H 0.37721 0.19841 0.75772 0.0
H2714 H 0.38541 0.19669 0.78106 0.0
C2715 C 0.41521 0.20069 0.85412 0.0
C2716 C 0.37366 0.17765 0.82489 0.0
H2717 H 0.37529 0.15724 0.79422 0.0
C2718 C 0.36055 0.18554 0.82128 0.0
C2719 C 0.37836 0.16657 0.8151 0.0
C2720 C 0.39118 0.1565 0.8185 0.0
C2721 C 0.35308 0.18377 0.808 0.0
C2722 C 0.35881 0.17378 0.79817 0.0
C2723 C 0.37108 0.16503 0.80182 0.0
C2724 C 0.35365 0.17384 0.78396 0.0
C2725 C 0.33998 0.19349 0.80446 0.0
C2726 C 0.33311 0.1613 0.77789 0.0
C2727 C 0.32838 0.16223 0.76454 0.0
C2728 C 0.34412 0.1758 0.75714 0.0
C2729 C 0.36473 0.18802 0.76323 0.0
C2730 C 0.36945 0.18697 0.77652 0.0
H2731 H 0.33859 0.20244 0.81315 0.0
H2732 H 0.34688 0.20421 0.79676 0.0
H2733 H 0.32405 0.18092 0.80031 0.0
H2734 H 0.32076 0.151 0.7835 0.0
H2735 H 0.31235 0.15273 0.76011 0.0
H2736 H 0.83848 0.18132 0.87288 0.0
H2737 H 0.84226 0.18206 0.84925 0.0
H2738 H 0.77785 0.16544 0.84104 0.0
H2739 H 0.77383 0.16445 0.86471 0.0
H2740 H 0.81943 0.14946 0.82827 0.0
H2741 H 0.81032 0.21899 0.82255 0.0
H2742 H 0.81555 0.21232 0.83851 0.0
H2743 H 0.78973 0.19789 0.82983 0.0
C2744 C 0.82503 0.17761 0.86606 0.0
C2745 C 0.80584 0.17283 0.87069 0.0
C2746 C 0.82727 0.17815 0.85256 0.0
C2747 C 0.81042 0.17406 0.84344 0.0
C2748 C 0.79116 0.16904 0.84797 0.0
H2749 H 0.80507 0.17889 0.75787 0.0
H2750 H 0.7958 0.17358 0.78052 0.0
C2751 C 0.7889 0.16849 0.86148 0.0
C2752 C 0.81314 0.17497 0.82918 0.0
H2753 H 0.81433 0.20243 0.80326 0.0
C2754 C 0.81827 0.16099 0.82278 0.0
C2755 C 0.8115 0.18999 0.82206 0.0
C2756 C 0.80664 0.20579 0.82857 0.0
C2757 C 0.82192 0.16168 0.80943 0.0
C2758 C 0.82078 0.17702 0.80239 0.0
C2759 C 0.8152 0.1907 0.8087 0.0
C2760 C 0.82618 0.1797 0.78862 0.0
C2761 C 0.82683 0.14589 0.80296 0.0
C2762 C 0.84639 0.18512 0.78572 0.0
C2763 C 0.85169 0.18805 0.77281 0.0
C2764 C 0.83693 0.18579 0.76255 0.0
C2765 C 0.81671 0.18049 0.76551 0.0
C2766 C 0.81143 0.17756 0.77845 0.0
H2767 H 0.82122 0.13176 0.80835 0.0
H2768 H 0.81966 0.14083 0.79253 0.0
H2769 H 0.84402 0.1532 0.80302 0.0
H2770 H 0.85813 0.18723 0.79347 0.0
H2771 H 0.86733 0.19193 0.77086 0.0
H2772 H 0.27104 0.14608 0.46322 0.0
H2773 H 0.27242 0.14481 0.4872 0.0
H2774 H 0.33942 0.18491 0.49091 0.0
H2775 H 0.33818 0.18639 0.46694 0.0
H2776 H 0.29785 0.13048 0.50196 0.0
H2777 H 0.31769 0.21211 0.51898 0.0
H2778 H 0.30565 0.19962 0.50249 0.0
H2779 H 0.33295 0.20925 0.50681 0.0
C2780 C 0.28603 0.15488 0.46917 0.0
C2781 C 0.30451 0.16637 0.46322 0.0
C2782 C 0.28679 0.15405 0.48283 0.0
C2783 C 0.30599 0.16492 0.49079 0.0
C2784 C 0.32444 0.17662 0.48493 0.0
H2785 H 0.34626 0.17745 0.57394 0.0
H2786 H 0.34302 0.18124 0.55038 0.0
C2787 C 0.32371 0.17732 0.47125 0.0
C2788 C 0.30684 0.16312 0.50514 0.0
H2789 H 0.31799 0.19112 0.53545 0.0
C2790 C 0.30213 0.14367 0.50931 0.0
C2791 C 0.31259 0.18044 0.51463 0.0
C2792 C 0.31739 0.20155 0.51057 0.0
C2793 C 0.30341 0.14114 0.52279 0.0
C2794 C 0.309 0.15842 0.53233 0.0
C2795 C 0.31364 0.17789 0.52813 0.0
C2796 C 0.31053 0.15671 0.54672 0.0
C2797 C 0.29942 0.12016 0.52665 0.0
C2798 C 0.29319 0.142 0.55254 0.0
C2799 C 0.29503 0.13974 0.56597 0.0
C2800 C 0.31416 0.15237 0.57387 0.0
C2801 C 0.33128 0.1676 0.56812 0.0
C2802 C 0.32948 0.16973 0.55466 0.0
H2803 H 0.30112 0.1107 0.51839 0.0
H2804 H 0.31031 0.1222 0.53533 0.0
H2805 H 0.2832 0.11108 0.5293 0.0
H2806 H 0.27826 0.13218 0.54667 0.0
H2807 H 0.28149 0.12811 0.57019 0.0
H2808 H 0.86346 0.10105 0.48591 0.0
H2809 H 0.85464 0.10801 0.50758 0.0
H2810 H 0.87044 0.17037 0.49906 0.0
H2811 H 0.87855 0.16323 0.47702 0.0
H2812 H 0.88131 0.13904 0.52743 0.0
H2813 H 0.81308 0.14809 0.51258 0.0
H2814 H 0.82333 0.13658 0.50124 0.0
H2815 H 0.83661 0.16458 0.50536 0.0
C2816 C 0.86463 0.1161 0.48848 0.0
C2817 C 0.87153 0.13151 0.47965 0.0
C2818 C 0.85977 0.12012 0.50095 0.0
C2819 C 0.86168 0.13961 0.50488 0.0
C2820 C 0.86852 0.15508 0.49613 0.0
H2821 H 0.83842 0.18111 0.58157 0.0
H2822 H 0.84986 0.18106 0.55947 0.0
C2823 C 0.87336 0.15105 0.4836 0.0
C2824 C 0.8572 0.14376 0.51837 0.0
H2825 H 0.82392 0.15312 0.53545 0.0
C2826 C 0.86882 0.14221 0.52918 0.0
C2827 C 0.84098 0.14802 0.52063 0.0
C2828 C 0.82763 0.14928 0.50936 0.0
C2829 C 0.86441 0.14441 0.54218 0.0
C2830 C 0.84781 0.14804 0.5444 0.0
C2831 C 0.83662 0.1503 0.53366 0.0
C2832 C 0.84108 0.14825 0.55773 0.0
C2833 C 0.87742 0.14269 0.55344 0.0
C2834 C 0.83222 0.12978 0.56396 0.0
C2835 C 0.82567 0.12975 0.57651 0.0
C2836 C 0.82787 0.14821 0.58308 0.0
C2837 C 0.83674 0.16671 0.5768 0.0
C2838 C 0.84316 0.16669 0.56418 0.0
H2839 H 0.89253 0.14505 0.55045 0.0
H2840 H 0.88065 0.15439 0.562 0.0
H2841 H 0.86869 0.12677 0.55672 0.0
H2842 H 0.8303 0.11535 0.55907 0.0
H2843 H 0.81907 0.1153 0.58114 0.0
H2844 H 0.86626 0.74448 0.48081 0.0
H2845 H 0.86359 0.74032 0.5044 0.0
H2846 H 0.84747 0.67559 0.49646 0.0
H2847 H 0.85046 0.6797 0.47295 0.0
H2848 H 0.827 0.71045 0.51537 0.0
H2849 H 0.89472 0.69955 0.52745 0.0
H2850 H 0.89196 0.71095 0.51286 0.0
H2851 H 0.87728 0.68297 0.51324 0.0
C2852 C 0.86245 0.72946 0.48413 0.0
C2853 C 0.85857 0.71241 0.47502 0.0
C2854 C 0.86084 0.72708 0.49758 0.0
C2855 C 0.85558 0.70772 0.50218 0.0
C2856 C 0.85187 0.69075 0.49314 0.0
H2857 H 0.82812 0.65357 0.57602 0.0
H2858 H 0.83616 0.66169 0.55347 0.0
C2859 C 0.85336 0.69307 0.47969 0.0
C2860 C 0.85287 0.7049 0.51631 0.0
H2861 H 0.87103 0.69216 0.54371 0.0
C2862 C 0.83673 0.70664 0.52162 0.0
C2863 C 0.86552 0.6998 0.52438 0.0
C2864 C 0.88347 0.69837 0.51926 0.0
C2865 C 0.8325 0.70284 0.53471 0.0
C2866 C 0.8451 0.69766 0.54279 0.0
C2867 C 0.8614 0.69615 0.5375 0.0
C2868 C 0.84128 0.69326 0.55666 0.0
C2869 C 0.81409 0.70368 0.53959 0.0
C2870 C 0.84199 0.70849 0.56602 0.0
C2871 C 0.83732 0.70386 0.57889 0.0
C2872 C 0.83214 0.684 0.58268 0.0
C2873 C 0.83218 0.66904 0.57342 0.0
C2874 C 0.8367 0.67364 0.56052 0.0
H2875 H 0.8029 0.70224 0.53128 0.0
H2876 H 0.80561 0.69096 0.54591 0.0
H2877 H 0.81979 0.71899 0.54558 0.0
H2878 H 0.84604 0.72393 0.56336 0.0
H2879 H 0.83777 0.71582 0.58588 0.0
loop_
_geom_bond_atom_site_label_1
_geom_bond_atom_site_label_2
_geom_bond_distance
_geom_bond_site_symmetry_2
_ccdc_geom_bond_type
P0 O11 1.490 . S
P0 C14 1.812 . S
P0 C20 1.803 . S
P0 C26 1.819 . S
H1 C15 0.941 . S
H2 C16 0.939 . S
H3 C18 0.940 . S
H4 C19 0.940 . S
H5 C21 0.939 . S
H6 C22 0.942 . S
H7 C24 0.940 . S
H8 C25 0.939 . S
H9 C27 0.941 . S
H10 C31 0.939 . S
O11 P0 1.490 . S
H12 C28 0.939 . S
H13 C30 0.940 . S
C14 P0 1.812 . S
C14 C15 1.389 . S
C14 C19 1.391 . S
C15 H1 0.941 . S
C15 C14 1.389 . S
C15 C16 1.397 . S
C16 H2 0.939 . S
C16 C15 1.397 . S
C16 C17 1.378 . S
C17 C16 1.378 . S
C17 C18 1.378 . S
C18 H3 0.940 . S
C18 C17 1.378 . S
C18 C19 1.396 . S
C19 H4 0.940 . S
C19 C14 1.391 . S
C19 C18 1.396 . S
C20 P0 1.803 . S
C20 C21 1.378 . S
C20 C25 1.400 . S
C21 H5 0.939 . S
C21 C20 1.378 . S
C21 C22 1.361 . S
C22 H6 0.942 . S
C22 C21 1.361 . S
C22 C23 1.369 . S
C23 C22 1.369 . S
C23 C24 1.404 . S
C24 H7 0.940 . S
C24 C23 1.404 . S
C24 C25 1.389 . S
C25 H8 0.939 . S
C25 C20 1.400 . S
C25 C24 1.389 . S
C26 P0 1.819 . S
C26 C27 1.391 . S
C26 C31 1.391 . S
C27 H9 0.941 . S
C27 C26 1.391 . S
C27 C28 1.396 . S
C28 H12 0.939 . S
C28 C27 1.396 . S
C28 C29 1.397 . S
C29 C28 1.397 . S
C29 C30 1.385 . S
C30 H13 0.940 . S
C30 C29 1.385 . S
C30 C31 1.388 . S
C31 H10 0.939 . S
C31 C26 1.391 . S
C31 C30 1.388 . S
P32 O43 1.490 . S
P32 C46 1.812 . S
P32 C52 1.803 . S
P32 C58 1.819 . S
H33 C47 0.941 . S
H34 C48 0.939 . S
H35 C50 0.940 . S
H36 C51 0.940 . S
H37 C53 0.939 . S
H38 C54 0.942 . S
H39 C56 0.940 . S
H40 C57 0.939 . S
H41 C59 0.941 . S
H42 C63 0.939 . S
O43 P32 1.490 . S
H44 C60 0.939 . S
H45 C62 0.940 . S
C46 P32 1.812 . S
C46 C47 1.389 . S
C46 C51 1.391 . S
C47 H33 0.941 . S
C47 C46 1.389 . S
C47 C48 1.397 . S
C48 H34 0.939 . S
C48 C47 1.397 . S
C48 C49 1.378 . S
C49 C48 1.378 . S
C49 C50 1.378 . S
C50 H35 0.940 . S
C50 C49 1.378 . S
C50 C51 1.396 . S
C51 H36 0.940 . S
C51 C46 1.391 . S
C51 C50 1.396 . S
C52 P32 1.803 . S
C52 C53 1.378 . S
C52 C57 1.400 . S
C53 H37 0.939 . S
C53 C52 1.378 . S
C53 C54 1.361 . S
C54 H38 0.942 . S
C54 C53 1.361 . S
C54 C55 1.369 . S
C55 C54 1.369 . S
C55 C56 1.404 . S
C56 H39 0.940 . S
C56 C55 1.404 . S
C56 C57 1.389 . S
C57 H40 0.939 . S
C57 C52 1.400 . S
C57 C56 1.389 . S
C58 P32 1.819 . S
C58 C59 1.391 . S
C58 C63 1.391 . S
C59 H41 0.941 . S
C59 C58 1.391 . S
C59 C60 1.396 . S
C60 H44 0.939 . S
C60 C59 1.396 . S
C60 C61 1.397 . S
C61 C60 1.397 . S
C61 C62 1.385 . S
C62 H45 0.940 . S
C62 C61 1.385 . S
C62 C63 1.388 . S
C63 H42 0.939 . S
C63 C58 1.391 . S
C63 C62 1.388 . S
P64 O75 1.490 . S
P64 C78 1.812 . S
P64 C84 1.803 . S
P64 C90 1.819 . S
H65 C79 0.941 . S
H66 C80 0.939 . S
H67 C82 0.940 . S
H68 C83 0.940 . S
H69 C85 0.939 . S
H70 C86 0.942 . S
H71 C88 0.940 . S
H72 C89 0.939 . S
H73 C91 0.941 . S
H74 C95 0.939 . S
O75 P64 1.490 . S
H76 C92 0.939 . S
H77 C94 0.940 . S
C78 P64 1.812 . S
C78 C79 1.389 . S
C78 C83 1.391 . S
C79 H65 0.941 . S
C79 C78 1.389 . S
C79 C80 1.397 . S
C80 H66 0.939 . S
C80 C79 1.397 . S
C80 C81 1.378 . S
C81 C80 1.378 . S
C81 C82 1.378 . S
C82 H67 0.940 . S
C82 C81 1.378 . S
C82 C83 1.396 . S
C83 H68 0.940 . S
C83 C78 1.391 . S
C83 C82 1.396 . S
C84 P64 1.803 . S
C84 C85 1.378 . S
C84 C89 1.400 . S
C85 H69 0.939 . S
C85 C84 1.378 . S
C85 C86 1.361 . S
C86 H70 0.942 . S
C86 C85 1.361 . S
C86 C87 1.369 . S
C87 C86 1.369 . S
C87 C88 1.404 . S
C88 H71 0.940 . S
C88 C87 1.404 . S
C88 C89 1.389 . S
C89 H72 0.939 . S
C89 C84 1.400 . S
C89 C88 1.389 . S
C90 P64 1.819 . S
C90 C91 1.391 . S
C90 C95 1.391 . S
C91 H73 0.941 . S
C91 C90 1.391 . S
C91 C92 1.396 . S
C92 H76 0.939 . S
C92 C91 1.396 . S
C92 C93 1.397 . S
C93 C92 1.397 . S
C93 C94 1.385 . S
C94 H77 0.940 . S
C94 C93 1.385 . S
C94 C95 1.388 . S
C95 H74 0.939 . S
C95 C90 1.391 . S
C95 C94 1.388 . S
P96 O107 1.490 . S
P96 C110 1.812 . S
P96 C116 1.803 . S
P96 C122 1.819 . S
H97 C111 0.941 . S
H98 C112 0.939 . S
H99 C114 0.940 . S
H100 C115 0.940 . S
H101 C117 0.939 . S
H102 C118 0.942 . S
H103 C120 0.940 . S
H104 C121 0.939 . S
H105 C123 0.941 . S
H106 C127 0.939 . S
O107 P96 1.490 . S
H108 C124 0.939 . S
H109 C126 0.940 . S
C110 P96 1.812 . S
C110 C111 1.389 . S
C110 C115 1.391 . S
C111 H97 0.941 . S
C111 C110 1.389 . S
C111 C112 1.397 . S
C112 H98 0.939 . S
C112 C111 1.397 . S
C112 C113 1.378 . S
C113 C112 1.378 . S
C113 C114 1.378 . S
C114 H99 0.940 . S
C114 C113 1.378 . S
C114 C115 1.396 . S
C115 H100 0.940 . S
C115 C110 1.391 . S
C115 C114 1.396 . S
C116 P96 1.803 . S
C116 C117 1.378 . S
C116 C121 1.400 . S
C117 H101 0.939 . S
C117 C116 1.378 . S
C117 C118 1.361 . S
C118 H102 0.942 . S
C118 C117 1.361 . S
C118 C119 1.369 . S
C119 C118 1.369 . S
C119 C120 1.404 . S
C120 H103 0.940 . S
C120 C119 1.404 . S
C120 C121 1.389 . S
C121 H104 0.939 . S
C121 C116 1.400 . S
C121 C120 1.389 . S
C122 P96 1.819 . S
C122 C123 1.391 . S
C122 C127 1.391 . S
C123 H105 0.941 . S
C123 C122 1.391 . S
C123 C124 1.396 . S
C124 H108 0.939 . S
C124 C123 1.396 . S
C124 C125 1.397 . S
C125 C124 1.397 . S
C125 C126 1.385 . S
C126 H109 0.940 . S
C126 C125 1.385 . S
C126 C127 1.388 . S
C127 H106 0.939 . S
C127 C122 1.391 . S
C127 C126 1.388 . S
P128 O139 1.490 . S
P128 C142 1.812 . S
P128 C148 1.803 . S
P128 C154 1.819 . S
H129 C143 0.941 . S
H130 C144 0.939 . S
H131 C146 0.940 . S
H132 C147 0.940 . S
H133 C149 0.939 . S
H134 C150 0.942 . S
H135 C152 0.940 . S
H136 C153 0.939 . S
H137 C155 0.941 . S
H138 C159 0.939 . S
O139 P128 1.490 . S
H140 C156 0.939 . S
H141 C158 0.940 . S
C142 P128 1.812 . S
C142 C143 1.389 . S
C142 C147 1.391 . S
C143 H129 0.941 . S
C143 C142 1.389 . S
C143 C144 1.397 . S
C144 H130 0.939 . S
C144 C143 1.397 . S
C144 C145 1.378 . S
C145 C144 1.378 . S
C145 C146 1.378 . S
C146 H131 0.940 . S
C146 C145 1.378 . S
C146 C147 1.396 . S
C147 H132 0.940 . S
C147 C142 1.391 . S
C147 C146 1.396 . S
C148 P128 1.803 . S
C148 C149 1.378 . S
C148 C153 1.400 . S
C149 H133 0.939 . S
C149 C148 1.378 . S
C149 C150 1.361 . S
C150 H134 0.942 . S
C150 C149 1.361 . S
C150 C151 1.369 . S
C151 C150 1.369 . S
C151 C152 1.404 . S
C152 H135 0.940 . S
C152 C151 1.404 . S
C152 C153 1.389 . S
C153 H136 0.939 . S
C153 C148 1.400 . S
C153 C152 1.389 . S
C154 P128 1.819 . S
C154 C155 1.391 . S
C154 C159 1.391 . S
C155 H137 0.941 . S
C155 C154 1.391 . S
C155 C156 1.396 . S
C156 H140 0.939 . S
C156 C155 1.396 . S
C156 C157 1.397 . S
C157 C156 1.397 . S
C157 C158 1.385 . S
C158 H141 0.940 . S
C158 C157 1.385 . S
C158 C159 1.388 . S
C159 H138 0.939 . S
C159 C154 1.391 . S
C159 C158 1.388 . S
P160 O171 1.490 . S
P160 C174 1.812 . S
P160 C180 1.803 . S
P160 C186 1.819 . S
H161 C175 0.941 . S
H162 C176 0.939 . S
H163 C178 0.940 . S
H164 C179 0.940 . S
H165 C181 0.939 . S
H166 C182 0.942 . S
H167 C184 0.940 . S
H168 C185 0.939 . S
H169 C187 0.941 . S
H170 C191 0.939 . S
O171 P160 1.490 . S
H172 C188 0.939 . S
H173 C190 0.940 . S
C174 P160 1.812 . S
C174 C175 1.389 . S
C174 C179 1.391 . S
C175 H161 0.941 . S
C175 C174 1.389 . S
C175 C176 1.397 . S
C176 H162 0.939 . S
C176 C175 1.397 . S
C176 C177 1.378 . S
C177 C176 1.378 . S
C177 C178 1.378 . S
C178 H163 0.940 . S
C178 C177 1.378 . S
C178 C179 1.396 . S
C179 H164 0.940 . S
C179 C174 1.391 . S
C179 C178 1.396 . S
C180 P160 1.803 . S
C180 C181 1.378 . S
C180 C185 1.400 . S
C181 H165 0.939 . S
C181 C180 1.378 . S
C181 C182 1.361 . S
C182 H166 0.942 . S
C182 C181 1.361 . S
C182 C183 1.369 . S
C183 C182 1.369 . S
C183 C184 1.404 . S
C184 H167 0.940 . S
C184 C183 1.404 . S
C184 C185 1.389 . S
C185 H168 0.939 . S
C185 C180 1.400 . S
C185 C184 1.389 . S
C186 P160 1.819 . S
C186 C187 1.391 . S
C186 C191 1.391 . S
C187 H169 0.941 . S
C187 C186 1.391 . S
C187 C188 1.396 . S
C188 H172 0.939 . S
C188 C187 1.396 . S
C188 C189 1.397 . S
C189 C188 1.397 . S
C189 C190 1.385 . S
C190 H173 0.940 . S
C190 C189 1.385 . S
C190 C191 1.388 . S
C191 H170 0.939 . S
C191 C186 1.391 . S
C191 C190 1.388 . S
P192 O203 1.490 1_655 S
P192 C206 1.812 . S
P192 C212 1.803 . S
P192 C218 1.819 . S
H193 C207 0.941 . S
H194 C208 0.939 . S
H195 C210 0.940 . S
H196 C211 0.940 . S
H197 C213 0.939 . S
H198 C214 0.942 . S
H199 C216 0.940 . S
H200 C217 0.939 . S
H201 C219 0.941 1_455 S
H202 C223 0.939 . S
O203 P192 1.490 1_455 S
H204 C220 0.939 1_455 S
H205 C222 0.940 . S
C206 P192 1.812 . S
C206 C207 1.389 . S
C206 C211 1.391 . S
C207 H193 0.941 . S
C207 C206 1.389 . S
C207 C208 1.397 . S
C208 H194 0.939 . S
C208 C207 1.397 . S
C208 C209 1.378 . S
C209 C208 1.378 . S
C209 C210 1.378 . S
C210 H195 0.940 . S
C210 C209 1.378 . S
C210 C211 1.396 . S
C211 H196 0.940 . S
C211 C206 1.391 . S
C211 C210 1.396 . S
C212 P192 1.803 . S
C212 C213 1.378 . S
C212 C217 1.400 . S
C213 H197 0.939 . S
C213 C212 1.378 . S
C213 C214 1.361 . S
C214 H198 0.942 . S
C214 C213 1.361 . S
C214 C215 1.369 . S
C215 C214 1.369 . S
C215 C216 1.404 . S
C216 H199 0.940 . S
C216 C215 1.404 . S
C216 C217 1.389 . S
C217 H200 0.939 . S
C217 C212 1.400 . S
C217 C216 1.389 . S
C218 P192 1.819 . S
C218 C219 1.391 . S
C218 C223 1.391 . S
C219 H201 0.941 1_655 S
C219 C218 1.391 . S
C219 C220 1.396 . S
C220 H204 0.939 1_655 S
C220 C219 1.396 . S
C220 C221 1.397 . S
C221 C220 1.397 . S
C221 C222 1.385 . S
C222 H205 0.940 . S
C222 C221 1.385 . S
C222 C223 1.388 . S
C223 H202 0.939 . S
C223 C218 1.391 . S
C223 C222 1.388 . S
P224 O235 1.490 . S
P224 C238 1.812 . S
P224 C244 1.803 . S
P224 C250 1.819 . S
H225 C239 0.941 . S
H226 C240 0.939 . S
H227 C242 0.940 . S
H228 C243 0.940 . S
H229 C245 0.939 . S
H230 C246 0.942 . S
H231 C248 0.940 . S
H232 C249 0.939 . S
H233 C251 0.941 . S
H234 C255 0.939 . S
O235 P224 1.490 . S
H236 C252 0.939 . S
H237 C254 0.940 . S
C238 P224 1.812 . S
C238 C239 1.389 . S
C238 C243 1.391 . S
C239 H225 0.941 . S
C239 C238 1.389 . S
C239 C240 1.397 . S
C240 H226 0.939 . S
C240 C239 1.397 . S
C240 C241 1.378 . S
C241 C240 1.378 . S
C241 C242 1.378 . S
C242 H227 0.940 . S
C242 C241 1.378 . S
C242 C243 1.396 . S
C243 H228 0.940 . S
C243 C238 1.391 . S
C243 C242 1.396 . S
C244 P224 1.803 . S
C244 C245 1.378 . S
C244 C249 1.400 . S
C245 H229 0.939 . S
C245 C244 1.378 . S
C245 C246 1.361 . S
C246 H230 0.942 . S
C246 C245 1.361 . S
C246 C247 1.369 . S
C247 C246 1.369 . S
C247 C248 1.404 . S
C248 H231 0.940 . S
C248 C247 1.404 . S
C248 C249 1.389 . S
C249 H232 0.939 . S
C249 C244 1.400 . S
C249 C248 1.389 . S
C250 P224 1.819 . S
C250 C251 1.391 . S
C250 C255 1.391 . S
C251 H233 0.941 . S
C251 C250 1.391 . S
C251 C252 1.396 . S
C252 H236 0.939 . S
C252 C251 1.396 . S
C252 C253 1.397 . S
C253 C252 1.397 . S
C253 C254 1.385 . S
C254 H237 0.940 . S
C254 C253 1.385 . S
C254 C255 1.388 . S
C255 H234 0.939 . S
C255 C250 1.391 . S
C255 C254 1.388 . S
P256 O267 1.490 . S
P256 C270 1.812 . S
P256 C276 1.803 . S
P256 C282 1.819 . S
H257 C271 0.941 . S
H258 C272 0.939 . S
H259 C274 0.940 . S
H260 C275 0.940 . S
H261 C277 0.939 . S
H262 C278 0.942 . S
H263 C280 0.940 . S
H264 C281 0.939 . S
H265 C283 0.941 . S
H266 C287 0.939 . S
O267 P256 1.490 . S
H268 C284 0.939 . S
H269 C286 0.940 . S
C270 P256 1.812 . S
C270 C271 1.389 . S
C270 C275 1.391 . S
C271 H257 0.941 . S
C271 C270 1.389 . S
C271 C272 1.397 . S
C272 H258 0.939 . S
C272 C271 1.397 . S
C272 C273 1.378 . S
C273 C272 1.378 . S
C273 C274 1.378 . S
C274 H259 0.940 . S
C274 C273 1.378 . S
C274 C275 1.396 . S
C275 H260 0.940 . S
C275 C270 1.391 . S
C275 C274 1.396 . S
C276 P256 1.803 . S
C276 C277 1.378 . S
C276 C281 1.400 . S
C277 H261 0.939 . S
C277 C276 1.378 . S
C277 C278 1.361 . S
C278 H262 0.942 . S
C278 C277 1.361 . S
C278 C279 1.369 . S
C279 C278 1.369 . S
C279 C280 1.404 . S
C280 H263 0.940 . S
C280 C279 1.404 . S
C280 C281 1.389 . S
C281 H264 0.939 . S
C281 C276 1.400 . S
C281 C280 1.389 . S
C282 P256 1.819 . S
C282 C283 1.391 . S
C282 C287 1.391 . S
C283 H265 0.941 . S
C283 C282 1.391 . S
C283 C284 1.396 . S
C284 H268 0.939 . S
C284 C283 1.396 . S
C284 C285 1.397 . S
C285 C284 1.397 . S
C285 C286 1.385 . S
C286 H269 0.940 . S
C286 C285 1.385 . S
C286 C287 1.388 . S
C287 H266 0.939 . S
C287 C282 1.391 . S
C287 C286 1.388 . S
P288 O299 1.490 . S
P288 C302 1.812 . S
P288 C308 1.803 . S
P288 C314 1.819 . S
H289 C303 0.941 . S
H290 C304 0.939 . S
H291 C306 0.940 . S
H292 C307 0.940 . S
H293 C309 0.939 . S
H294 C310 0.942 . S
H295 C312 0.940 . S
H296 C313 0.939 . S
H297 C315 0.941 . S
H298 C319 0.939 . S
O299 P288 1.490 . S
H300 C316 0.939 . S
H301 C318 0.940 . S
C302 P288 1.812 . S
C302 C303 1.389 . S
C302 C307 1.391 . S
C303 H289 0.941 . S
C303 C302 1.389 . S
C303 C304 1.397 . S
C304 H290 0.939 . S
C304 C303 1.397 . S
C304 C305 1.378 . S
C305 C304 1.378 . S
C305 C306 1.378 . S
C306 H291 0.940 . S
C306 C305 1.378 . S
C306 C307 1.396 . S
C307 H292 0.940 . S
C307 C302 1.391 . S
C307 C306 1.396 . S
C308 P288 1.803 . S
C308 C309 1.378 . S
C308 C313 1.400 . S
C309 H293 0.939 . S
C309 C308 1.378 . S
C309 C310 1.361 . S
C310 H294 0.942 . S
C310 C309 1.361 . S
C310 C311 1.369 . S
C311 C310 1.369 . S
C311 C312 1.404 . S
C312 H295 0.940 . S
C312 C311 1.404 . S
C312 C313 1.389 . S
C313 H296 0.939 . S
C313 C308 1.400 . S
C313 C312 1.389 . S
C314 P288 1.819 . S
C314 C315 1.391 . S
C314 C319 1.391 . S
C315 H297 0.941 . S
C315 C314 1.391 . S
C315 C316 1.396 . S
C316 H300 0.939 . S
C316 C315 1.396 . S
C316 C317 1.397 . S
C317 C316 1.397 . S
C317 C318 1.385 . S
C318 H301 0.940 . S
C318 C317 1.385 . S
C318 C319 1.388 . S
C319 H298 0.939 . S
C319 C314 1.391 . S
C319 C318 1.388 . S
P320 O331 1.490 . S
P320 C334 1.812 . S
P320 C340 1.803 . S
P320 C346 1.819 . S
H321 C335 0.941 . S
H322 C336 0.939 . S
H323 C338 0.940 . S
H324 C339 0.940 . S
H325 C341 0.939 . S
H326 C342 0.942 . S
H327 C344 0.940 . S
H328 C345 0.939 . S
H329 C347 0.941 . S
H330 C351 0.939 . S
O331 P320 1.490 . S
H332 C348 0.939 . S
H333 C350 0.940 . S
C334 P320 1.812 . S
C334 C335 1.389 . S
C334 C339 1.391 . S
C335 H321 0.941 . S
C335 C334 1.389 . S
C335 C336 1.397 . S
C336 H322 0.939 . S
C336 C335 1.397 . S
C336 C337 1.378 . S
C337 C336 1.378 . S
C337 C338 1.378 . S
C338 H323 0.940 . S
C338 C337 1.378 . S
C338 C339 1.396 . S
C339 H324 0.940 . S
C339 C334 1.391 . S
C339 C338 1.396 . S
C340 P320 1.803 . S
C340 C341 1.378 . S
C340 C345 1.400 . S
C341 H325 0.939 . S
C341 C340 1.378 . S
C341 C342 1.361 . S
C342 H326 0.942 . S
C342 C341 1.361 . S
C342 C343 1.369 . S
C343 C342 1.369 . S
C343 C344 1.404 . S
C344 H327 0.940 . S
C344 C343 1.404 . S
C344 C345 1.389 . S
C345 H328 0.939 . S
C345 C340 1.400 . S
C345 C344 1.389 . S
C346 P320 1.819 . S
C346 C347 1.391 . S
C346 C351 1.391 . S
C347 H329 0.941 . S
C347 C346 1.391 . S
C347 C348 1.396 . S
C348 H332 0.939 . S
C348 C347 1.396 . S
C348 C349 1.397 . S
C349 C348 1.397 . S
C349 C350 1.385 . S
C350 H333 0.940 . S
C350 C349 1.385 . S
C350 C351 1.388 . S
C351 H330 0.939 . S
C351 C346 1.391 . S
C351 C350 1.388 . S
P352 O363 1.490 . S
P352 C366 1.812 . S
P352 C372 1.803 . S
P352 C378 1.819 . S
H353 C367 0.941 . S
H354 C368 0.939 . S
H355 C370 0.940 . S
H356 C371 0.940 . S
H357 C373 0.939 . S
H358 C374 0.942 . S
H359 C376 0.940 . S
H360 C377 0.939 . S
H361 C379 0.941 . S
H362 C383 0.939 . S
O363 P352 1.490 . S
H364 C380 0.939 . S
H365 C382 0.940 . S
C366 P352 1.812 . S
C366 C367 1.389 . S
C366 C371 1.391 . S
C367 H353 0.941 . S
C367 C366 1.389 . S
C367 C368 1.397 . S
C368 H354 0.939 . S
C368 C367 1.397 . S
C368 C369 1.378 . S
C369 C368 1.378 . S
C369 C370 1.378 . S
C370 H355 0.940 . S
C370 C369 1.378 . S
C370 C371 1.396 . S
C371 H356 0.940 . S
C371 C366 1.391 . S
C371 C370 1.396 . S
C372 P352 1.803 . S
C372 C373 1.378 . S
C372 C377 1.400 . S
C373 H357 0.939 . S
C373 C372 1.378 . S
C373 C374 1.361 . S
C374 H358 0.942 . S
C374 C373 1.361 . S
C374 C375 1.369 . S
C375 C374 1.369 . S
C375 C376 1.404 . S
C376 H359 0.940 . S
C376 C375 1.404 . S
C376 C377 1.389 . S
C377 H360 0.939 . S
C377 C372 1.400 . S
C377 C376 1.389 . S
C378 P352 1.819 . S
C378 C379 1.391 . S
C378 C383 1.391 . S
C379 H361 0.941 . S
C379 C378 1.391 . S
C379 C380 1.396 . S
C380 H364 0.939 . S
C380 C379 1.396 . S
C380 C381 1.397 . S
C381 C380 1.397 . S
C381 C382 1.385 . S
C382 H365 0.940 . S
C382 C381 1.385 . S
C382 C383 1.388 . S
C383 H362 0.939 . S
C383 C378 1.391 . S
C383 C382 1.388 . S
P384 O395 1.490 . S
P384 C398 1.812 . S
P384 C404 1.803 . S
P384 C410 1.819 . S
H385 C399 0.941 . S
H386 C400 0.939 . S
H387 C402 0.940 . S
H388 C403 0.940 . S
H389 C405 0.939 . S
H390 C406 0.942 . S
H391 C408 0.940 . S
H392 C409 0.939 . S
H393 C411 0.941 . S
H394 C415 0.939 . S
O395 P384 1.490 . S
H396 C412 0.939 . S
H397 C414 0.940 . S
C398 P384 1.812 . S
C398 C399 1.389 . S
C398 C403 1.391 . S
C399 H385 0.941 . S
C399 C398 1.389 . S
C399 C400 1.397 . S
C400 H386 0.939 . S
C400 C399 1.397 . S
C400 C401 1.378 . S
C401 C400 1.378 . S
C401 C402 1.378 . S
C402 H387 0.940 . S
C402 C401 1.378 . S
C402 C403 1.396 . S
C403 H388 0.940 . S
C403 C398 1.391 . S
C403 C402 1.396 . S
C404 P384 1.803 . S
C404 C405 1.378 . S
C404 C409 1.400 . S
C405 H389 0.939 . S
C405 C404 1.378 . S
C405 C406 1.361 . S
C406 H390 0.942 . S
C406 C405 1.361 . S
C406 C407 1.369 . S
C407 C406 1.369 . S
C407 C408 1.404 . S
C408 H391 0.940 . S
C408 C407 1.404 . S
C408 C409 1.389 . S
C409 H392 0.939 . S
C409 C404 1.400 . S
C409 C408 1.389 . S
C410 P384 1.819 . S
C410 C411 1.391 . S
C410 C415 1.391 . S
C411 H393 0.941 . S
C411 C410 1.391 . S
C411 C412 1.396 . S
C412 H396 0.939 . S
C412 C411 1.396 . S
C412 C413 1.397 . S
C413 C412 1.397 . S
C413 C414 1.385 . S
C414 H397 0.940 . S
C414 C413 1.385 . S
C414 C415 1.388 . S
C415 H394 0.939 . S
C415 C410 1.391 . S
C415 C414 1.388 . S
P416 O427 1.490 . S
P416 C430 1.812 . S
P416 C436 1.803 . S
P416 C442 1.819 . S
H417 C431 0.941 . S
H418 C432 0.939 . S
H419 C434 0.940 . S
H420 C435 0.940 . S
H421 C437 0.939 . S
H422 C438 0.942 . S
H423 C440 0.940 . S
H424 C441 0.939 . S
H425 C443 0.941 . S
H426 C447 0.939 . S
O427 P416 1.490 . S
H428 C444 0.939 . S
H429 C446 0.940 . S
C430 P416 1.812 . S
C430 C431 1.389 . S
C430 C435 1.391 . S
C431 H417 0.941 . S
C431 C430 1.389 . S
C431 C432 1.397 . S
C432 H418 0.939 . S
C432 C431 1.397 . S
C432 C433 1.378 . S
C433 C432 1.378 . S
C433 C434 1.378 . S
C434 H419 0.940 . S
C434 C433 1.378 . S
C434 C435 1.396 . S
C435 H420 0.940 . S
C435 C430 1.391 . S
C435 C434 1.396 . S
C436 P416 1.803 . S
C436 C437 1.378 . S
C436 C441 1.400 . S
C437 H421 0.939 . S
C437 C436 1.378 . S
C437 C438 1.361 . S
C438 H422 0.942 . S
C438 C437 1.361 . S
C438 C439 1.369 . S
C439 C438 1.369 . S
C439 C440 1.404 . S
C440 H423 0.940 . S
C440 C439 1.404 . S
C440 C441 1.389 . S
C441 H424 0.939 . S
C441 C436 1.400 . S
C441 C440 1.389 . S
C442 P416 1.819 . S
C442 C443 1.391 . S
C442 C447 1.391 . S
C443 H425 0.941 . S
C443 C442 1.391 . S
C443 C444 1.396 . S
C444 H428 0.939 . S
C444 C443 1.396 . S
C444 C445 1.397 . S
C445 C444 1.397 . S
C445 C446 1.385 . S
C446 H429 0.940 . S
C446 C445 1.385 . S
C446 C447 1.388 . S
C447 H426 0.939 . S
C447 C442 1.391 . S
C447 C446 1.388 . S
P448 O459 1.490 . S
P448 C462 1.812 . S
P448 C468 1.803 . S
P448 C474 1.819 . S
H449 C463 0.941 . S
H450 C464 0.939 . S
H451 C466 0.940 . S
H452 C467 0.940 . S
H453 C469 0.939 . S
H454 C470 0.942 . S
H455 C472 0.940 . S
H456 C473 0.939 . S
H457 C475 0.941 . S
H458 C479 0.939 . S
O459 P448 1.490 . S
H460 C476 0.939 . S
H461 C478 0.940 . S
C462 P448 1.812 . S
C462 C463 1.389 . S
C462 C467 1.391 . S
C463 H449 0.941 . S
C463 C462 1.389 . S
C463 C464 1.397 . S
C464 H450 0.939 . S
C464 C463 1.397 . S
C464 C465 1.378 . S
C465 C464 1.378 . S
C465 C466 1.378 . S
C466 H451 0.940 . S
C466 C465 1.378 . S
C466 C467 1.396 . S
C467 H452 0.940 . S
C467 C462 1.391 . S
C467 C466 1.396 . S
C468 P448 1.803 . S
C468 C469 1.378 . S
C468 C473 1.400 . S
C469 H453 0.939 . S
C469 C468 1.378 . S
C469 C470 1.361 . S
C470 H454 0.942 . S
C470 C469 1.361 . S
C470 C471 1.369 . S
C471 C470 1.369 . S
C471 C472 1.404 . S
C472 H455 0.940 . S
C472 C471 1.404 . S
C472 C473 1.389 . S
C473 H456 0.939 . S
C473 C468 1.400 . S
C473 C472 1.389 . S
C474 P448 1.819 . S
C474 C475 1.391 . S
C474 C479 1.391 . S
C475 H457 0.941 . S
C475 C474 1.391 . S
C475 C476 1.396 . S
C476 H460 0.939 . S
C476 C475 1.396 . S
C476 C477 1.397 . S
C477 C476 1.397 . S
C477 C478 1.385 . S
C478 H461 0.940 . S
C478 C477 1.385 . S
C478 C479 1.388 . S
C479 H458 0.939 . S
C479 C474 1.391 . S
C479 C478 1.388 . S
P480 O491 1.490 . S
P480 C494 1.812 . S
P480 C500 1.803 . S
P480 C506 1.819 . S
H481 C495 0.941 . S
H482 C496 0.939 . S
H483 C498 0.940 . S
H484 C499 0.940 . S
H485 C501 0.939 . S
H486 C502 0.942 . S
H487 C504 0.940 . S
H488 C505 0.939 . S
H489 C507 0.941 . S
H490 C511 0.939 . S
O491 P480 1.490 . S
H492 C508 0.939 . S
H493 C510 0.940 . S
C494 P480 1.812 . S
C494 C495 1.389 . S
C494 C499 1.391 . S
C495 H481 0.941 . S
C495 C494 1.389 . S
C495 C496 1.397 . S
C496 H482 0.939 . S
C496 C495 1.397 . S
C496 C497 1.378 . S
C497 C496 1.378 . S
C497 C498 1.378 . S
C498 H483 0.940 . S
C498 C497 1.378 . S
C498 C499 1.396 . S
C499 H484 0.940 . S
C499 C494 1.391 . S
C499 C498 1.396 . S
C500 P480 1.803 . S
C500 C501 1.378 . S
C500 C505 1.400 . S
C501 H485 0.939 . S
C501 C500 1.378 . S
C501 C502 1.361 . S
C502 H486 0.942 . S
C502 C501 1.361 . S
C502 C503 1.369 . S
C503 C502 1.369 . S
C503 C504 1.404 . S
C504 H487 0.940 . S
C504 C503 1.404 . S
C504 C505 1.389 . S
C505 H488 0.939 . S
C505 C500 1.400 . S
C505 C504 1.389 . S
C506 P480 1.819 . S
C506 C507 1.391 . S
C506 C511 1.391 . S
C507 H489 0.941 . S
C507 C506 1.391 . S
C507 C508 1.396 . S
C508 H492 0.939 . S
C508 C507 1.396 . S
C508 C509 1.397 . S
C509 C508 1.397 . S
C509 C510 1.385 . S
C510 H493 0.940 . S
C510 C509 1.385 . S
C510 C511 1.388 . S
C511 H490 0.939 . S
C511 C506 1.391 . S
C511 C510 1.388 . S
P512 O523 1.490 . S
P512 C526 1.812 . S
P512 C532 1.803 . S
P512 C538 1.819 . S
H513 C527 0.941 . S
H514 C528 0.939 . S
H515 C530 0.940 . S
H516 C531 0.940 . S
H517 C533 0.939 . S
H518 C534 0.942 . S
H519 C536 0.940 . S
H520 C537 0.939 . S
H521 C539 0.941 . S
H522 C543 0.939 . S
O523 P512 1.490 . S
H524 C540 0.939 . S
H525 C542 0.940 . S
C526 P512 1.812 . S
C526 C527 1.389 . S
C526 C531 1.391 . S
C527 H513 0.941 . S
C527 C526 1.389 . S
C527 C528 1.397 . S
C528 H514 0.939 . S
C528 C527 1.397 . S
C528 C529 1.378 . S
C529 C528 1.378 . S
C529 C530 1.378 . S
C530 H515 0.940 . S
C530 C529 1.378 . S
C530 C531 1.396 . S
C531 H516 0.940 . S
C531 C526 1.391 . S
C531 C530 1.396 . S
C532 P512 1.803 . S
C532 C533 1.378 . S
C532 C537 1.400 . S
C533 H517 0.939 . S
C533 C532 1.378 . S
C533 C534 1.361 . S
C534 H518 0.942 . S
C534 C533 1.361 . S
C534 C535 1.369 . S
C535 C534 1.369 . S
C535 C536 1.404 . S
C536 H519 0.940 . S
C536 C535 1.404 . S
C536 C537 1.389 . S
C537 H520 0.939 . S
C537 C532 1.400 . S
C537 C536 1.389 . S
C538 P512 1.819 . S
C538 C539 1.391 . S
C538 C543 1.391 . S
C539 H521 0.941 . S
C539 C538 1.391 . S
C539 C540 1.396 . S
C540 H524 0.939 . S
C540 C539 1.396 . S
C540 C541 1.397 . S
C541 C540 1.397 . S
C541 C542 1.385 . S
C542 H525 0.940 . S
C542 C541 1.385 . S
C542 C543 1.388 . S
C543 H522 0.939 . S
C543 C538 1.391 . S
C543 C542 1.388 . S
P544 O555 1.490 . S
P544 C558 1.812 . S
P544 C564 1.803 . S
P544 C570 1.819 . S
H545 C559 0.941 . S
H546 C560 0.939 . S
H547 C562 0.940 . S
H548 C563 0.940 . S
H549 C565 0.939 . S
H550 C566 0.942 . S
H551 C568 0.940 . S
H552 C569 0.939 . S
H553 C571 0.941 . S
H554 C575 0.939 . S
O555 P544 1.490 . S
H556 C572 0.939 . S
H557 C574 0.940 . S
C558 P544 1.812 . S
C558 C559 1.389 . S
C558 C563 1.391 . S
C559 H545 0.941 . S
C559 C558 1.389 . S
C559 C560 1.397 . S
C560 H546 0.939 . S
C560 C559 1.397 . S
C560 C561 1.378 . S
C561 C560 1.378 . S
C561 C562 1.378 . S
C562 H547 0.940 . S
C562 C561 1.378 . S
C562 C563 1.396 . S
C563 H548 0.940 . S
C563 C558 1.391 . S
C563 C562 1.396 . S
C564 P544 1.803 . S
C564 C565 1.378 . S
C564 C569 1.400 . S
C565 H549 0.939 . S
C565 C564 1.378 . S
C565 C566 1.361 . S
C566 H550 0.942 . S
C566 C565 1.361 . S
C566 C567 1.369 . S
C567 C566 1.369 . S
C567 C568 1.404 . S
C568 H551 0.940 . S
C568 C567 1.404 . S
C568 C569 1.389 . S
C569 H552 0.939 . S
C569 C564 1.400 . S
C569 C568 1.389 . S
C570 P544 1.819 . S
C570 C571 1.391 . S
C570 C575 1.391 . S
C571 H553 0.941 . S
C571 C570 1.391 . S
C571 C572 1.396 . S
C572 H556 0.939 . S
C572 C571 1.396 . S
C572 C573 1.397 . S
C573 C572 1.397 . S
C573 C574 1.385 . S
C574 H557 0.940 . S
C574 C573 1.385 . S
C574 C575 1.388 . S
C575 H554 0.939 . S
C575 C570 1.391 . S
C575 C574 1.388 . S
C576 Eu577 2.835 . S
C576 C578 1.505 . S
C576 O596 1.257 1_545 S
C576 O597 1.260 . S
Eu577 C576 2.835 . S
Eu577 O596 2.473 1_545 S
Eu577 O597 2.480 . S
Eu577 O598 2.430 . S
Eu577 O599 2.670 1_554 S
Eu577 O600 2.394 1_545 S
Eu577 O605 2.355 1_545 S
Eu577 O607 2.374 . S
C578 C576 1.505 . S
C578 C579 1.403 . S
C578 C583 1.347 1_545 S
C579 C578 1.403 . S
C579 C580 1.395 . S
C579 H608 0.931 . S
C580 C579 1.395 . S
C580 C581 1.383 1_545 S
C580 H609 0.931 . S
C581 C580 1.383 1_565 S
C581 C582 1.394 . S
C582 C581 1.394 . S
C582 C583 1.378 . S
C582 H610 0.931 . S
C583 C578 1.347 1_565 S
C583 C582 1.378 . S
C583 H611 0.931 . S
C584 O598 1.259 . S
C584 O599 1.270 1_554 S
C585 O600 1.251 . S
C585 O601 1.165 1_554 S
C586 Eu587 2.835 . S
C586 C588 1.501 1_565 S
C586 O602 1.257 1_565 S
C586 O603 1.260 . S
Eu587 C586 2.835 . S
Eu587 O599 2.355 1_565 S
Eu587 O601 2.438 . S
Eu587 O602 2.473 1_565 S
Eu587 O603 2.480 . S
Eu587 O604 2.430 . S
Eu587 O605 2.670 1_556 S
Eu587 O606 2.394 1_565 S
C588 C586 1.501 1_545 S
C588 C589 1.382 1_545 S
C588 C593 1.371 . S
C589 C588 1.382 1_565 S
C589 C590 1.395 . S
C589 H612 0.931 . S
C590 C589 1.395 . S
C590 C591 1.383 1_565 S
C590 H613 0.931 . S
C591 C590 1.383 1_545 S
C591 C592 1.394 . S
C592 C591 1.394 . S
C592 C593 1.378 . S
C592 H614 0.931 . S
C593 C588 1.371 . S
C593 C592 1.378 . S
C593 H615 0.931 . S
C594 O604 1.259 1_554 S
C594 O605 1.270 . S
C595 O606 1.251 . S
C595 O607 1.251 1_556 S
O596 C576 1.257 1_565 S
O596 Eu577 2.473 1_565 S
O597 C576 1.260 . S
O597 Eu577 2.480 . S
O598 Eu577 2.430 . S
O598 C584 1.259 . S
O599 Eu577 2.670 1_556 S
O599 C584 1.270 1_556 S
O599 Eu587 2.355 1_545 S
O600 Eu577 2.394 1_565 S
O600 C585 1.251 . S
O601 C585 1.165 1_556 S
O601 Eu587 2.438 . S
O602 C586 1.257 1_545 S
O602 Eu587 2.473 1_545 S
O603 C586 1.260 . S
O603 Eu587 2.480 . S
O604 Eu587 2.430 . S
O604 C594 1.259 1_556 S
O605 Eu577 2.355 1_565 S
O605 Eu587 2.670 1_554 S
O605 C594 1.270 . S
O606 Eu587 2.394 1_545 S
O606 C595 1.251 . S
O607 Eu577 2.374 . S
O607 C595 1.251 1_554 S
H608 C579 0.931 . S
H609 C580 0.931 . S
H610 C582 0.931 . S
H611 C583 0.931 . S
H612 C589 0.931 . S
H613 C590 0.931 . S
H614 C592 0.931 . S
H615 C593 0.931 . S
C616 Eu617 2.835 . S
C616 C618 1.500 1_655 S
C616 O636 1.257 1_655 S
C616 O637 1.260 . S
Eu617 C616 2.835 . S
Eu617 O636 2.473 1_655 S
Eu617 O637 2.480 . S
Eu617 O638 2.430 . S
Eu617 O639 2.670 1_554 S
Eu617 O640 2.394 1_655 S
Eu617 O645 2.355 1_655 S
Eu617 O647 2.374 . S
C618 C616 1.500 1_455 S
C618 C619 1.377 1_455 S
C618 C623 1.377 . S
C619 C618 1.377 1_655 S
C619 C620 1.395 . S
C619 H648 0.931 . S
C620 C619 1.395 . S
C620 C621 1.383 1_655 S
C620 H649 0.931 . S
C621 C620 1.383 1_455 S
C621 C622 1.394 . S
C622 C621 1.394 . S
C622 C623 1.378 . S
C622 H650 0.931 . S
C623 C618 1.377 . S
C623 C622 1.378 . S
C623 H651 0.931 . S
C624 O638 1.259 1_556 S
C624 O639 1.270 . S
C625 O640 1.251 . S
C625 O641 1.251 . S
C626 Eu627 2.835 . S
C626 C628 1.500 1_455 S
C626 O642 1.257 1_455 S
C626 O643 1.260 . S
Eu627 C626 2.835 . S
Eu627 O639 2.355 1_455 S
Eu627 O641 2.374 1_556 S
Eu627 O642 2.473 1_455 S
Eu627 O643 2.480 . S
Eu627 O644 2.430 . S
Eu627 O645 2.670 1_556 S
Eu627 O646 2.394 1_455 S
C628 C626 1.500 1_655 S
C628 C629 1.377 1_655 S
C628 C633 1.377 . S
C629 C628 1.377 1_455 S
C629 C630 1.395 . S
C629 H652 0.931 . S
C630 C629 1.395 . S
C630 C631 1.383 1_455 S
C630 H653 0.931 . S
C631 C630 1.383 1_655 S
C631 C632 1.394 . S
C632 C631 1.394 . S
C632 C633 1.378 . S
C632 H654 0.931 . S
C633 C628 1.377 . S
C633 C632 1.378 . S
C633 H655 0.931 . S
C634 O644 1.259 1_554 S
C634 O645 1.270 . S
C635 O646 1.251 . S
C635 O647 1.251 1_556 S
O636 C616 1.257 1_455 S
O636 Eu617 2.473 1_455 S
O637 C616 1.260 . S
O637 Eu617 2.480 . S
O638 Eu617 2.430 . S
O638 C624 1.259 1_554 S
O639 Eu617 2.670 1_556 S
O639 C624 1.270 . S
O639 Eu627 2.355 1_655 S
O640 Eu617 2.394 1_455 S
O640 C625 1.251 . S
O641 C625 1.251 . S
O641 Eu627 2.374 1_554 S
O642 C626 1.257 1_655 S
O642 Eu627 2.473 1_655 S
O643 C626 1.260 . S
O643 Eu627 2.480 . S
O644 Eu627 2.430 . S
O644 C634 1.259 1_556 S
O645 Eu617 2.355 1_455 S
O645 Eu627 2.670 1_554 S
O645 C634 1.270 . S
O646 Eu627 2.394 1_655 S
O646 C635 1.251 . S
O647 Eu617 2.374 . S
O647 C635 1.251 1_554 S
H648 C619 0.931 . S
H649 C620 0.931 . S
H650 C622 0.931 . S
H651 C623 0.931 . S
H652 C629 0.931 . S
H653 C630 0.931 . S
H654 C632 0.931 . S
H655 C633 0.931 . S
C656 Eu657 2.835 . S
C656 C658 1.500 . S
C656 O676 1.257 . S
C656 O677 1.260 . S
Eu657 C656 2.835 . S
Eu657 O676 2.473 . S
Eu657 O677 2.480 . S
Eu657 O678 2.430 . S
Eu657 O679 2.670 1_556 S
Eu657 O680 2.394 . S
Eu657 O685 2.355 . S
Eu657 O687 2.329 1_556 S
C658 C656 1.500 . S
C658 C659 1.377 . S
C658 C663 1.377 . S
C659 C658 1.377 . S
C659 C660 1.395 . S
C659 H688 0.931 . S
C660 C659 1.395 . S
C660 C661 1.383 . S
C660 H689 0.931 . S
C661 C660 1.383 . S
C661 C662 1.394 . S
C662 C661 1.394 . S
C662 C663 1.378 . S
C662 H690 0.931 . S
C663 C658 1.377 . S
C663 C662 1.378 . S
C663 H691 0.931 . S
C664 O678 1.259 1_554 S
C664 O679 1.270 . S
C665 O680 1.251 . S
C665 O681 1.251 1_556 S
C666 Eu667 2.835 . S
C666 C668 1.500 . S
C666 O682 1.257 . S
C666 O683 1.260 . S
Eu667 C666 2.835 . S
Eu667 O679 2.355 . S
Eu667 O681 2.374 . S
Eu667 O682 2.473 . S
Eu667 O683 2.480 . S
Eu667 O684 2.430 . S
Eu667 O685 2.670 1_554 S
Eu667 O686 2.394 . S
C668 C666 1.500 . S
C668 C669 1.377 . S
C668 C673 1.377 . S
C669 C668 1.377 . S
C669 C670 1.395 . S
C669 H692 0.931 . S
C670 C669 1.395 . S
C670 C671 1.383 . S
C670 H693 0.931 . S
C671 C670 1.383 . S
C671 C672 1.394 . S
C672 C671 1.394 . S
C672 C673 1.378 . S
C672 H694 0.931 . S
C673 C668 1.377 . S
C673 C672 1.378 . S
C673 H695 0.931 . S
C674 O684 1.210 1_556 S
C674 O685 1.293 . S
C675 O686 1.251 . S
C675 O687 1.310 . S
O676 C656 1.257 . S
O676 Eu657 2.473 . S
O677 C656 1.260 . S
O677 Eu657 2.480 . S
O678 Eu657 2.430 . S
O678 C664 1.259 1_556 S
O679 Eu657 2.670 1_554 S
O679 C664 1.270 . S
O679 Eu667 2.355 . S
O680 Eu657 2.394 . S
O680 C665 1.251 . S
O681 C665 1.251 1_554 S
O681 Eu667 2.374 . S
O682 C666 1.257 . S
O682 Eu667 2.473 . S
O683 C666 1.260 . S
O683 Eu667 2.480 . S
O684 Eu667 2.430 . S
O684 C674 1.210 1_554 S
O685 Eu657 2.355 . S
O685 Eu667 2.670 1_556 S
O685 C674 1.293 . S
O686 Eu667 2.394 . S
O686 C675 1.251 . S
O687 Eu657 2.329 1_554 S
O687 C675 1.310 . S
H688 C659 0.931 . S
H689 C660 0.931 . S
H690 C662 0.931 . S
H691 C663 0.931 . S
H692 C669 0.931 . S
H693 C670 0.931 . S
H694 C672 0.931 . S
H695 C673 0.931 . S
C696 Eu697 2.835 . S
C696 C698 1.500 . S
C696 O716 1.257 . S
C696 O717 1.260 . S
Eu697 C696 2.835 . S
Eu697 O716 2.473 . S
Eu697 O717 2.480 . S
Eu697 O718 2.430 . S
Eu697 O719 2.670 . S
Eu697 O720 2.394 . S
Eu697 O725 2.355 . S
Eu697 O727 2.374 . S
C698 C696 1.500 . S
C698 C699 1.377 . S
C698 C703 1.377 . S
C699 C698 1.377 . S
C699 C700 1.395 . S
C699 H728 0.931 . S
C700 C699 1.395 . S
C700 C701 1.383 . S
C700 H729 0.931 . S
C701 C700 1.383 . S
C701 C702 1.394 . S
C702 C701 1.394 . S
C702 C703 1.378 . S
C702 H730 0.931 . S
C703 C698 1.377 . S
C703 C702 1.378 . S
C703 H731 0.931 . S
C704 O718 1.259 . S
C704 O719 1.270 . S
C705 O720 1.251 . S
C705 O721 1.251 . S
C706 Eu707 2.835 . S
C706 C708 1.500 . S
C706 O722 1.257 . S
C706 O723 1.260 . S
Eu707 C706 2.835 . S
Eu707 O719 2.355 . S
Eu707 O721 2.374 . S
Eu707 O722 2.473 . S
Eu707 O723 2.480 . S
Eu707 O724 2.430 . S
Eu707 O725 2.670 . S
Eu707 O726 2.394 . S
C708 C706 1.500 . S
C708 C709 1.377 . S
C708 C713 1.377 . S
C709 C708 1.377 . S
C709 C710 1.395 . S
C709 H732 0.931 . S
C710 C709 1.395 . S
C710 C711 1.383 . S
C710 H733 0.931 . S
C711 C710 1.383 . S
C711 C712 1.394 . S
C712 C711 1.394 . S
C712 C713 1.378 . S
C712 H734 0.931 . S
C713 C708 1.377 . S
C713 C712 1.378 . S
C713 H735 0.931 . S
C714 O724 1.259 . S
C714 O725 1.270 . S
C715 O726 1.251 . S
C715 O727 1.251 . S
O716 C696 1.257 . S
O716 Eu697 2.473 . S
O717 C696 1.260 . S
O717 Eu697 2.480 . S
O718 Eu697 2.430 . S
O718 C704 1.259 . S
O719 Eu697 2.670 . S
O719 C704 1.270 . S
O719 Eu707 2.355 . S
O720 Eu697 2.394 . S
O720 C705 1.251 . S
O721 C705 1.251 . S
O721 Eu707 2.374 . S
O722 C706 1.257 . S
O722 Eu707 2.473 . S
O723 C706 1.260 . S
O723 Eu707 2.480 . S
O724 Eu707 2.430 . S
O724 C714 1.259 . S
O725 Eu697 2.355 . S
O725 Eu707 2.670 . S
O725 C714 1.270 . S
O726 Eu707 2.394 . S
O726 C715 1.251 . S
O727 Eu697 2.374 . S
O727 C715 1.251 . S
H728 C699 0.931 . S
H729 C700 0.931 . S
H730 C702 0.931 . S
H731 C703 0.931 . S
H732 C709 0.931 . S
H733 C710 0.931 . S
H734 C712 0.931 . S
H735 C713 0.931 . S
C736 Eu737 2.835 . S
C736 C738 1.500 . S
C736 O756 1.257 . S
C736 O757 1.260 . S
Eu737 C736 2.835 . S
Eu737 O756 2.473 . S
Eu737 O757 2.480 . S
Eu737 O758 2.430 . S
Eu737 O759 2.670 . S
Eu737 O760 2.394 . S
Eu737 O765 2.355 . S
Eu737 O767 2.374 . S
C738 C736 1.500 . S
C738 C739 1.377 . S
C738 C743 1.377 . S
C739 C738 1.377 . S
C739 C740 1.395 . S
C739 H768 0.931 . S
C740 C739 1.395 . S
C740 C741 1.383 . S
C740 H769 0.931 . S
C741 C740 1.383 . S
C741 C742 1.394 . S
C742 C741 1.394 . S
C742 C743 1.378 . S
C742 H770 0.931 . S
C743 C738 1.377 . S
C743 C742 1.378 . S
C743 H771 0.931 . S
C744 O758 1.259 . S
C744 O759 1.270 . S
C745 O760 1.251 . S
C745 O761 1.251 . S
C746 Eu747 2.835 . S
C746 C748 1.500 . S
C746 O762 1.257 . S
C746 O763 1.260 . S
Eu747 C746 2.835 . S
Eu747 O759 2.355 . S
Eu747 O761 2.374 . S
Eu747 O762 2.473 . S
Eu747 O763 2.480 . S
Eu747 O764 2.430 . S
Eu747 O765 2.670 . S
Eu747 O766 2.394 . S
C748 C746 1.500 . S
C748 C749 1.377 . S
C748 C753 1.377 . S
C749 C748 1.377 . S
C749 C750 1.395 . S
C749 H772 0.931 . S
C750 C749 1.395 . S
C750 C751 1.383 . S
C750 H773 0.931 . S
C751 C750 1.383 . S
C751 C752 1.394 . S
C752 C751 1.394 . S
C752 C753 1.378 . S
C752 H774 0.931 . S
C753 C748 1.377 . S
C753 C752 1.378 . S
C753 H775 0.931 . S
C754 O764 1.259 . S
C754 O765 1.270 . S
C755 O766 1.251 . S
C755 O767 1.251 . S
O756 C736 1.257 . S
O756 Eu737 2.473 . S
O757 C736 1.260 . S
O757 Eu737 2.480 . S
O758 Eu737 2.430 . S
O758 C744 1.259 . S
O759 Eu737 2.670 . S
O759 C744 1.270 . S
O759 Eu747 2.355 . S
O760 Eu737 2.394 . S
O760 C745 1.251 . S
O761 C745 1.251 . S
O761 Eu747 2.374 . S
O762 C746 1.257 . S
O762 Eu747 2.473 . S
O763 C746 1.260 . S
O763 Eu747 2.480 . S
O764 Eu747 2.430 . S
O764 C754 1.259 . S
O765 Eu737 2.355 . S
O765 Eu747 2.670 . S
O765 C754 1.270 . S
O766 Eu747 2.394 . S
O766 C755 1.251 . S
O767 Eu737 2.374 . S
O767 C755 1.251 . S
H768 C739 0.931 . S
H769 C740 0.931 . S
H770 C742 0.931 . S
H771 C743 0.931 . S
H772 C749 0.931 . S
H773 C750 0.931 . S
H774 C752 0.931 . S
H775 C753 0.931 . S
C776 Eu777 2.835 . S
C776 C778 1.500 . S
C776 O796 1.257 . S
C776 O797 1.260 . S
Eu777 C776 2.835 . S
Eu777 O796 2.473 . S
Eu777 O797 2.480 . S
Eu777 O798 2.430 . S
Eu777 O799 2.670 . S
Eu777 O800 2.394 . S
Eu777 O805 2.355 . S
Eu777 O807 2.374 . S
C778 C776 1.500 . S
C778 C779 1.377 . S
C778 C783 1.377 . S
C779 C778 1.377 . S
C779 C780 1.395 . S
C779 H808 0.931 . S
C780 C779 1.395 . S
C780 C781 1.383 . S
C780 H809 0.931 . S
C781 C780 1.383 . S
C781 C782 1.394 . S
C782 C781 1.394 . S
C782 C783 1.378 . S
C782 H810 0.931 . S
C783 C778 1.377 . S
C783 C782 1.378 . S
C783 H811 0.931 . S
C784 O798 1.259 . S
C784 O799 1.270 . S
C785 O800 1.251 . S
C785 O801 1.251 . S
C786 Eu787 2.835 . S
C786 C788 1.500 . S
C786 O802 1.257 . S
C786 O803 1.260 . S
Eu787 C786 2.835 . S
Eu787 O799 2.355 . S
Eu787 O801 2.374 . S
Eu787 O802 2.473 . S
Eu787 O803 2.480 . S
Eu787 O804 2.430 . S
Eu787 O805 2.670 . S
Eu787 O806 2.394 . S
C788 C786 1.500 . S
C788 C789 1.377 . S
C788 C793 1.377 . S
C789 C788 1.377 . S
C789 C790 1.395 . S
C789 H812 0.931 . S
C790 C789 1.395 . S
C790 C791 1.383 . S
C790 H813 0.931 . S
C791 C790 1.383 . S
C791 C792 1.394 . S
C792 C791 1.394 . S
C792 C793 1.378 . S
C792 H814 0.931 . S
C793 C788 1.377 . S
C793 C792 1.378 . S
C793 H815 0.931 . S
C794 O804 1.259 . S
C794 O805 1.270 . S
C795 O806 1.251 . S
C795 O807 1.251 . S
O796 C776 1.257 . S
O796 Eu777 2.473 . S
O797 C776 1.260 . S
O797 Eu777 2.480 . S
O798 Eu777 2.430 . S
O798 C784 1.259 . S
O799 Eu777 2.670 . S
O799 C784 1.270 . S
O799 Eu787 2.355 . S
O800 Eu777 2.394 . S
O800 C785 1.251 . S
O801 C785 1.251 . S
O801 Eu787 2.374 . S
O802 C786 1.257 . S
O802 Eu787 2.473 . S
O803 C786 1.260 . S
O803 Eu787 2.480 . S
O804 Eu787 2.430 . S
O804 C794 1.259 . S
O805 Eu777 2.355 . S
O805 Eu787 2.670 . S
O805 C794 1.270 . S
O806 Eu787 2.394 . S
O806 C795 1.251 . S
O807 Eu777 2.374 . S
O807 C795 1.251 . S
H808 C779 0.931 . S
H809 C780 0.931 . S
H810 C782 0.931 . S
H811 C783 0.931 . S
H812 C789 0.931 . S
H813 C790 0.931 . S
H814 C792 0.931 . S
H815 C793 0.931 . S
C816 Eu817 2.835 . S
C816 C818 1.500 . S
C816 O836 1.257 . S
C816 O837 1.260 . S
Eu817 C816 2.835 . S
Eu817 O836 2.473 . S
Eu817 O837 2.480 . S
Eu817 O838 2.430 . S
Eu817 O839 2.670 . S
Eu817 O840 2.394 . S
Eu817 O845 2.355 . S
Eu817 O847 2.374 . S
C818 C816 1.500 . S
C818 C819 1.377 . S
C818 C823 1.377 . S
C819 C818 1.377 . S
C819 C820 1.395 . S
C819 H848 0.931 . S
C820 C819 1.395 . S
C820 C821 1.383 . S
C820 H849 0.931 . S
C821 C820 1.383 . S
C821 C822 1.394 . S
C822 C821 1.394 . S
C822 C823 1.378 . S
C822 H850 0.931 . S
C823 C818 1.377 . S
C823 C822 1.378 . S
C823 H851 0.931 . S
C824 O838 1.259 . S
C824 O839 1.270 . S
C825 O840 1.251 . S
C825 O841 1.251 . S
C826 Eu827 2.835 . S
C826 C828 1.500 . S
C826 O842 1.257 . S
C826 O843 1.260 . S
Eu827 C826 2.835 . S
Eu827 O839 2.355 . S
Eu827 O841 2.374 . S
Eu827 O842 2.473 . S
Eu827 O843 2.480 . S
Eu827 O844 2.430 . S
Eu827 O845 2.670 . S
Eu827 O846 2.394 . S
C828 C826 1.500 . S
C828 C829 1.377 . S
C828 C833 1.377 . S
C829 C828 1.377 . S
C829 C830 1.395 . S
C829 H852 0.931 . S
C830 C829 1.395 . S
C830 C831 1.383 . S
C830 H853 0.931 . S
C831 C830 1.383 . S
C831 C832 1.394 . S
C832 C831 1.394 . S
C832 C833 1.378 . S
C832 H854 0.931 . S
C833 C828 1.377 . S
C833 C832 1.378 . S
C833 H855 0.931 . S
C834 O844 1.259 . S
C834 O845 1.270 . S
C835 O846 1.251 . S
C835 O847 1.251 . S
O836 C816 1.257 . S
O836 Eu817 2.473 . S
O837 C816 1.260 . S
O837 Eu817 2.480 . S
O838 Eu817 2.430 . S
O838 C824 1.259 . S
O839 Eu817 2.670 . S
O839 C824 1.270 . S
O839 Eu827 2.355 . S
O840 Eu817 2.394 . S
O840 C825 1.251 . S
O841 C825 1.251 . S
O841 Eu827 2.374 . S
O842 C826 1.257 . S
O842 Eu827 2.473 . S
O843 C826 1.260 . S
O843 Eu827 2.480 . S
O844 Eu827 2.430 . S
O844 C834 1.259 . S
O845 Eu817 2.355 . S
O845 Eu827 2.670 . S
O845 C834 1.270 . S
O846 Eu827 2.394 . S
O846 C835 1.251 . S
O847 Eu817 2.374 . S
O847 C835 1.251 . S
H848 C819 0.931 . S
H849 C820 0.931 . S
H850 C822 0.931 . S
H851 C823 0.931 . S
H852 C829 0.931 . S
H853 C830 0.931 . S
H854 C832 0.931 . S
H855 C833 0.931 . S
C856 Eu857 2.835 . S
C856 C858 1.500 . S
C856 O876 1.257 . S
C856 O877 1.260 . S
Eu857 C856 2.835 . S
Eu857 O876 2.473 . S
Eu857 O877 2.480 . S
Eu857 O878 2.430 . S
Eu857 O879 2.670 . S
Eu857 O880 2.394 . S
Eu857 O885 2.355 . S
Eu857 O887 2.374 . S
C858 C856 1.500 . S
C858 C859 1.377 . S
C858 C863 1.377 . S
C859 C858 1.377 . S
C859 C860 1.395 . S
C859 H888 0.931 . S
C860 C859 1.395 . S
C860 C861 1.383 . S
C860 H889 0.931 . S
C861 C860 1.383 . S
C861 C862 1.394 . S
C862 C861 1.394 . S
C862 C863 1.378 . S
C862 H890 0.931 . S
C863 C858 1.377 . S
C863 C862 1.378 . S
C863 H891 0.931 . S
C864 O878 1.259 . S
C864 O879 1.270 . S
C865 O880 1.251 . S
C865 O881 1.251 . S
C866 Eu867 2.835 . S
C866 C868 1.500 . S
C866 O882 1.257 . S
C866 O883 1.260 . S
Eu867 C866 2.835 . S
Eu867 O879 2.355 . S
Eu867 O881 2.374 . S
Eu867 O882 2.473 . S
Eu867 O883 2.480 . S
Eu867 O884 2.430 . S
Eu867 O885 2.670 . S
Eu867 O886 2.394 . S
C868 C866 1.500 . S
C868 C869 1.377 . S
C868 C873 1.377 . S
C869 C868 1.377 . S
C869 C870 1.395 . S
C869 H892 0.931 . S
C870 C869 1.395 . S
C870 C871 1.383 . S
C870 H893 0.931 . S
C871 C870 1.383 . S
C871 C872 1.394 . S
C872 C871 1.394 . S
C872 C873 1.378 . S
C872 H894 0.931 . S
C873 C868 1.377 . S
C873 C872 1.378 . S
C873 H895 0.931 . S
C874 O884 1.259 . S
C874 O885 1.270 . S
C875 O886 1.251 . S
C875 O887 1.251 . S
O876 C856 1.257 . S
O876 Eu857 2.473 . S
O877 C856 1.260 . S
O877 Eu857 2.480 . S
O878 Eu857 2.430 . S
O878 C864 1.259 . S
O879 Eu857 2.670 . S
O879 C864 1.270 . S
O879 Eu867 2.355 . S
O880 Eu857 2.394 . S
O880 C865 1.251 . S
O881 C865 1.251 . S
O881 Eu867 2.374 . S
O882 C866 1.257 . S
O882 Eu867 2.473 . S
O883 C866 1.260 . S
O883 Eu867 2.480 . S
O884 Eu867 2.430 . S
O884 C874 1.259 . S
O885 Eu857 2.355 . S
O885 Eu867 2.670 . S
O885 C874 1.270 . S
O886 Eu867 2.394 . S
O886 C875 1.251 . S
O887 Eu857 2.374 . S
O887 C875 1.251 . S
H888 C859 0.931 . S
H889 C860 0.931 . S
H890 C862 0.931 . S
H891 C863 0.931 . S
H892 C869 0.931 . S
H893 C870 0.931 . S
H894 C872 0.931 . S
H895 C873 0.931 . S
C896 Eu897 2.835 . S
C896 C898 1.500 . S
C896 O916 1.257 . S
C896 O917 1.260 . S
Eu897 C896 2.835 . S
Eu897 O916 2.473 . S
Eu897 O917 2.480 . S
Eu897 O918 2.430 . S
Eu897 O919 2.670 . S
Eu897 O920 2.394 . S
Eu897 O925 2.355 . S
Eu897 O927 2.374 . S
C898 C896 1.500 . S
C898 C899 1.377 . S
C898 C903 1.377 . S
C899 C898 1.377 . S
C899 C900 1.395 . S
C899 H928 0.931 . S
C900 C899 1.395 . S
C900 C901 1.383 . S
C900 H929 0.931 . S
C901 C900 1.383 . S
C901 C902 1.394 . S
C902 C901 1.394 . S
C902 C903 1.378 . S
C902 H930 0.931 . S
C903 C898 1.377 . S
C903 C902 1.378 . S
C903 H931 0.931 . S
C904 O918 1.259 . S
C904 O919 1.270 . S
C905 O920 1.251 . S
C905 O921 1.251 . S
C906 Eu907 2.835 . S
C906 C908 1.500 . S
C906 O922 1.257 . S
C906 O923 1.260 . S
Eu907 C906 2.835 . S
Eu907 O919 2.355 . S
Eu907 O921 2.374 . S
Eu907 O922 2.473 . S
Eu907 O923 2.480 . S
Eu907 O924 2.430 . S
Eu907 O925 2.670 . S
Eu907 O926 2.394 . S
C908 C906 1.500 . S
C908 C909 1.377 . S
C908 C913 1.377 . S
C909 C908 1.377 . S
C909 C910 1.395 . S
C909 H932 0.931 . S
C910 C909 1.395 . S
C910 C911 1.383 . S
C910 H933 0.931 . S
C911 C910 1.383 . S
C911 C912 1.394 . S
C912 C911 1.394 . S
C912 C913 1.378 . S
C912 H934 0.931 . S
C913 C908 1.377 . S
C913 C912 1.378 . S
C913 H935 0.931 . S
C914 O924 1.259 . S
C914 O925 1.270 . S
C915 O926 1.251 . S
C915 O927 1.251 . S
O916 C896 1.257 . S
O916 Eu897 2.473 . S
O917 C896 1.260 . S
O917 Eu897 2.480 . S
O918 Eu897 2.430 . S
O918 C904 1.259 . S
O919 Eu897 2.670 . S
O919 C904 1.270 . S
O919 Eu907 2.355 . S
O920 Eu897 2.394 . S
O920 C905 1.251 . S
O921 C905 1.251 . S
O921 Eu907 2.374 . S
O922 C906 1.257 . S
O922 Eu907 2.473 . S
O923 C906 1.260 . S
O923 Eu907 2.480 . S
O924 Eu907 2.430 . S
O924 C914 1.259 . S
O925 Eu897 2.355 . S
O925 Eu907 2.670 . S
O925 C914 1.270 . S
O926 Eu907 2.394 . S
O926 C915 1.251 . S
O927 Eu897 2.374 . S
O927 C915 1.251 . S
H928 C899 0.931 . S
H929 C900 0.931 . S
H930 C902 0.931 . S
H931 C903 0.931 . S
H932 C909 0.931 . S
H933 C910 0.931 . S
H934 C912 0.931 . S
H935 C913 0.931 . S
H936 C944 0.929 . S
H937 C946 0.930 . S
H938 C948 0.930 . S
H939 C951 0.929 . S
H940 C954 0.930 . S
H941 C956 0.960 . S
H942 C956 0.960 . S
H943 C956 0.960 . S
C944 H936 0.929 . S
C944 C945 1.377 . S
C944 C946 1.384 . S
C945 C944 1.377 . S
C945 C951 1.390 . S
C946 H937 0.930 . S
C946 C944 1.384 . S
C946 C947 1.372 . S
C947 C946 1.372 . S
C947 C948 1.400 . S
C947 C952 1.490 . S
C948 H938 0.930 . S
C948 C947 1.400 . S
C948 C951 1.386 . S
H949 C965 0.930 1_556 S
H950 C966 0.931 . S
C951 H939 0.929 . S
C951 C945 1.390 . S
C951 C948 1.386 . S
C952 C947 1.490 . S
C952 C954 1.395 . S
C952 C955 1.403 . S
H953 C959 0.930 . S
C954 H940 0.930 . S
C954 C952 1.395 . S
C954 C957 1.403 . S
C955 C952 1.403 . S
C955 C956 1.524 . S
C955 C959 1.400 . S
C956 H941 0.960 . S
C956 H942 0.960 . S
C956 H943 0.960 . S
C956 C955 1.524 . S
C957 C954 1.403 . S
C957 C958 1.392 . S
C957 C961 1.495 . S
C958 C957 1.392 . S
C958 C959 1.385 . S
C958 C960 1.478 . S
C959 H953 0.930 . S
C959 C955 1.400 . S
C959 C958 1.385 . S
C960 C958 1.478 . S
C960 C962 1.381 . S
C960 C966 1.383 . S
C961 C957 1.495 . S
C961 H967 0.959 . S
C961 H968 0.961 . S
C961 H969 0.960 . S
C962 C960 1.381 . S
C962 C963 1.394 . S
C962 H970 0.930 . S
C963 C962 1.394 . S
C963 C964 1.383 . S
C963 H971 0.929 . S
C964 C963 1.383 . S
C964 C965 1.377 . S
C965 H949 0.930 1_554 S
C965 C964 1.377 . S
C965 C966 1.379 . S
C966 H950 0.931 . S
C966 C960 1.383 . S
C966 C965 1.379 . S
H967 C961 0.959 . S
H968 C961 0.961 . S
H969 C961 0.960 . S
H970 C962 0.930 . S
H971 C963 0.929 . S
H972 C980 0.929 . S
H973 C982 0.930 . S
H974 C984 0.930 . S
H975 C987 0.929 . S
H976 C990 0.930 . S
H977 C992 0.960 . S
H978 C992 0.960 . S
H979 C992 0.960 . S
C980 H972 0.929 . S
C980 C981 1.377 . S
C980 C982 1.384 . S
C981 C980 1.377 . S
C981 C987 1.390 . S
C982 H973 0.930 . S
C982 C980 1.384 . S
C982 C983 1.372 . S
C983 C982 1.372 . S
C983 C984 1.400 . S
C983 C988 1.490 . S
C984 H974 0.930 . S
C984 C983 1.400 . S
C984 C987 1.386 . S
H985 C1001 0.930 . S
H986 C1002 0.931 . S
C987 H975 0.929 . S
C987 C981 1.390 . S
C987 C984 1.386 . S
C988 C983 1.490 . S
C988 C990 1.395 . S
C988 C991 1.403 . S
H989 C995 0.930 . S
C990 H976 0.930 . S
C990 C988 1.395 . S
C990 C993 1.403 . S
C991 C988 1.403 . S
C991 C992 1.524 . S
C991 C995 1.400 . S
C992 H977 0.960 . S
C992 H978 0.960 . S
C992 H979 0.960 . S
C992 C991 1.524 . S
C993 C990 1.403 . S
C993 C994 1.392 . S
C993 C997 1.495 . S
C994 C993 1.392 . S
C994 C995 1.385 . S
C994 C996 1.478 . S
C995 H989 0.930 . S
C995 C991 1.400 . S
C995 C994 1.385 . S
C996 C994 1.478 . S
C996 C998 1.381 . S
C996 C1002 1.383 . S
C997 C993 1.495 . S
C997 H1003 0.959 . S
C997 H1004 0.961 . S
C997 H1005 0.960 . S
C998 C996 1.381 . S
C998 C999 1.394 . S
C998 H1006 0.930 . S
C999 C998 1.394 . S
C999 C1000 1.383 . S
C999 H1007 0.929 . S
C1000 C999 1.383 . S
C1000 C1001 1.377 . S
C1001 H985 0.930 . S
C1001 C1000 1.377 . S
C1001 C1002 1.379 . S
C1002 H986 0.931 . S
C1002 C996 1.383 . S
C1002 C1001 1.379 . S
H1003 C997 0.959 . S
H1004 C997 0.961 . S
H1005 C997 0.960 . S
H1006 C998 0.930 . S
H1007 C999 0.929 . S
H1008 C1016 0.929 . S
H1009 C1018 0.930 . S
H1010 C1020 0.930 . S
H1011 C1023 0.929 . S
H1012 C1026 0.930 . S
H1013 C1028 0.960 . S
H1014 C1028 0.960 . S
H1015 C1028 0.960 . S
C1016 H1008 0.929 . S
C1016 C1017 1.377 . S
C1016 C1018 1.384 . S
C1017 C1016 1.377 . S
C1017 C1023 1.390 . S
C1018 H1009 0.930 . S
C1018 C1016 1.384 . S
C1018 C1019 1.372 . S
C1019 C1018 1.372 . S
C1019 C1020 1.400 . S
C1019 C1024 1.490 . S
C1020 H1010 0.930 . S
C1020 C1019 1.400 . S
C1020 C1023 1.386 . S
H1021 C1037 0.930 1_556 S
H1022 C1038 0.936 . S
C1023 H1011 0.929 . S
C1023 C1017 1.390 . S
C1023 C1020 1.386 . S
C1024 C1019 1.490 . S
C1024 C1026 1.395 . S
C1024 C1027 1.403 . S
H1025 C1031 0.930 . S
C1026 H1012 0.930 . S
C1026 C1024 1.395 . S
C1026 C1029 1.403 . S
C1027 C1024 1.403 . S
C1027 C1028 1.524 . S
C1027 C1031 1.400 . S
C1028 H1013 0.960 . S
C1028 H1014 0.960 . S
C1028 H1015 0.960 . S
C1028 C1027 1.524 . S
C1029 C1026 1.403 . S
C1029 C1030 1.392 . S
C1029 C1033 1.495 . S
C1030 C1029 1.392 . S
C1030 C1031 1.385 . S
C1030 C1032 1.478 . S
C1031 H1025 0.930 . S
C1031 C1027 1.400 . S
C1031 C1030 1.385 . S
C1032 C1030 1.478 . S
C1032 C1034 1.381 . S
C1032 C1038 1.383 . S
C1033 C1029 1.495 . S
C1033 H1039 0.959 . S
C1033 H1040 0.961 . S
C1033 H1041 0.960 . S
C1034 C1032 1.381 . S
C1034 C1035 1.394 . S
C1034 H1042 0.930 . S
C1035 C1034 1.394 . S
C1035 C1036 1.383 . S
C1035 H1043 0.929 . S
C1036 C1035 1.383 . S
C1036 C1037 1.377 . S
C1037 H1021 0.930 1_554 S
C1037 C1036 1.377 . S
C1037 C1038 1.379 . S
C1038 H1022 0.936 . S
C1038 C1032 1.383 . S
C1038 C1037 1.379 . S
H1039 C1033 0.959 . S
H1040 C1033 0.961 . S
H1041 C1033 0.960 . S
H1042 C1034 0.930 . S
H1043 C1035 0.929 . S
H1044 C1052 0.929 . S
H1045 C1054 0.930 . S
H1046 C1056 0.930 . S
H1047 C1059 0.929 . S
H1048 C1062 0.930 . S
H1049 C1064 0.960 1_554 S
H1050 C1064 0.960 . S
H1051 C1064 0.960 . S
C1052 H1044 0.929 . S
C1052 C1053 1.377 . S
C1052 C1054 1.384 . S
C1053 C1052 1.377 . S
C1053 C1059 1.390 . S
C1054 H1045 0.930 . S
C1054 C1052 1.384 . S
C1054 C1055 1.372 . S
C1055 C1054 1.372 . S
C1055 C1056 1.400 . S
C1055 C1060 1.490 . S
C1056 H1046 0.930 . S
C1056 C1055 1.400 . S
C1056 C1059 1.386 . S
H1057 C1073 0.930 1_554 S
H1058 C1074 0.931 . S
C1059 H1047 0.929 . S
C1059 C1053 1.390 . S
C1059 C1056 1.386 . S
C1060 C1055 1.490 . S
C1060 C1062 1.395 . S
C1060 C1063 1.403 . S
H1061 C1067 0.930 . S
C1062 H1048 0.930 . S
C1062 C1060 1.395 . S
C1062 C1065 1.403 . S
C1063 C1060 1.403 . S
C1063 C1064 1.524 . S
C1063 C1067 1.400 . S
C1064 H1049 0.960 1_556 S
C1064 H1050 0.960 . S
C1064 H1051 0.960 . S
C1064 C1063 1.524 . S
C1065 C1062 1.403 . S
C1065 C1066 1.392 . S
C1065 C1069 1.495 . S
C1066 C1065 1.392 . S
C1066 C1067 1.385 . S
C1066 C1068 1.478 . S
C1067 H1061 0.930 . S
C1067 C1063 1.400 . S
C1067 C1066 1.385 . S
C1068 C1066 1.478 . S
C1068 C1070 1.381 . S
C1068 C1074 1.383 . S
C1069 C1065 1.495 . S
C1069 H1075 0.959 . S
C1069 H1076 0.961 . S
C1069 H1077 0.960 . S
C1070 C1068 1.381 . S
C1070 C1071 1.394 . S
C1070 H1078 0.930 . S
C1071 C1070 1.394 . S
C1071 C1072 1.383 . S
C1071 H1079 0.929 . S
C1072 C1071 1.383 . S
C1072 C1073 1.377 . S
C1073 H1057 0.930 1_556 S
C1073 C1072 1.377 . S
C1073 C1074 1.379 . S
C1074 H1058 0.931 . S
C1074 C1068 1.383 . S
C1074 C1073 1.379 . S
H1075 C1069 0.959 . S
H1076 C1069 0.961 . S
H1077 C1069 0.960 . S
H1078 C1070 0.930 . S
H1079 C1071 0.929 . S
H1080 C1088 0.929 . S
H1081 C1090 0.930 . S
H1082 C1092 0.930 . S
H1083 C1095 0.929 . S
H1084 C1098 0.930 . S
H1085 C1100 0.960 . S
H1086 C1100 0.960 . S
H1087 C1100 0.960 . S
C1088 H1080 0.929 . S
C1088 C1089 1.377 . S
C1088 C1090 1.384 . S
C1089 C1088 1.377 . S
C1089 C1095 1.390 . S
C1090 H1081 0.930 . S
C1090 C1088 1.384 . S
C1090 C1091 1.372 . S
C1091 C1090 1.372 . S
C1091 C1092 1.400 . S
C1091 C1096 1.490 . S
C1092 H1082 0.930 . S
C1092 C1091 1.400 . S
C1092 C1095 1.386 . S
H1093 C1109 0.930 1_554 S
H1094 C1110 0.931 . S
C1095 H1083 0.929 . S
C1095 C1089 1.390 . S
C1095 C1092 1.386 . S
C1096 C1091 1.490 . S
C1096 C1098 1.395 . S
C1096 C1099 1.403 . S
H1097 C1103 0.930 . S
C1098 H1084 0.930 . S
C1098 C1096 1.395 . S
C1098 C1101 1.403 . S
C1099 C1096 1.403 . S
C1099 C1100 1.524 . S
C1099 C1103 1.400 . S
C1100 H1085 0.960 . S
C1100 H1086 0.960 . S
C1100 H1087 0.960 . S
C1100 C1099 1.524 . S
C1101 C1098 1.403 . S
C1101 C1102 1.392 . S
C1101 C1105 1.495 . S
C1102 C1101 1.392 . S
C1102 C1103 1.385 . S
C1102 C1104 1.478 . S
C1103 H1097 0.930 . S
C1103 C1099 1.400 . S
C1103 C1102 1.385 . S
C1104 C1102 1.478 . S
C1104 C1106 1.381 . S
C1104 C1110 1.383 . S
C1105 C1101 1.495 . S
C1105 H1111 0.959 . S
C1105 H1112 0.961 . S
C1105 H1113 0.960 . S
C1106 C1104 1.381 . S
C1106 C1107 1.394 . S
C1106 H1114 0.930 . S
C1107 C1106 1.394 . S
C1107 C1108 1.383 . S
C1107 H1115 0.929 . S
C1108 C1107 1.383 . S
C1108 C1109 1.377 . S
C1109 H1093 0.930 1_556 S
C1109 C1108 1.377 . S
C1109 C1110 1.379 . S
C1110 H1094 0.931 . S
C1110 C1104 1.383 . S
C1110 C1109 1.379 . S
H1111 C1105 0.959 . S
H1112 C1105 0.961 . S
H1113 C1105 0.960 . S
H1114 C1106 0.930 . S
H1115 C1107 0.929 . S
H1116 C1124 0.929 . S
H1117 C1126 0.930 . S
H1118 C1128 0.930 . S
H1119 C1131 0.929 . S
H1120 C1134 0.930 . S
H1121 C1136 0.960 . S
H1122 C1136 0.960 . S
H1123 C1136 0.960 . S
C1124 H1116 0.929 . S
C1124 C1125 1.377 . S
C1124 C1126 1.384 . S
C1125 C1124 1.377 . S
C1125 C1131 1.390 . S
C1126 H1117 0.930 . S
C1126 C1124 1.384 . S
C1126 C1127 1.372 . S
C1127 C1126 1.372 . S
C1127 C1128 1.400 . S
C1127 C1132 1.490 . S
C1128 H1118 0.930 . S
C1128 C1127 1.400 . S
C1128 C1131 1.386 . S
H1129 C1145 0.930 . S
H1130 C1146 0.931 . S
C1131 H1119 0.929 . S
C1131 C1125 1.390 . S
C1131 C1128 1.386 . S
C1132 C1127 1.490 . S
C1132 C1134 1.395 . S
C1132 C1135 1.403 . S
H1133 C1139 0.930 . S
C1134 H1120 0.930 . S
C1134 C1132 1.395 . S
C1134 C1137 1.403 . S
C1135 C1132 1.403 . S
C1135 C1136 1.524 . S
C1135 C1139 1.400 . S
C1136 H1121 0.960 . S
C1136 H1122 0.960 . S
C1136 H1123 0.960 . S
C1136 C1135 1.524 . S
C1137 C1134 1.403 . S
C1137 C1138 1.392 . S
C1137 C1141 1.495 . S
C1138 C1137 1.392 . S
C1138 C1139 1.385 . S
C1138 C1140 1.478 . S
C1139 H1133 0.930 . S
C1139 C1135 1.400 . S
C1139 C1138 1.385 . S
C1140 C1138 1.478 . S
C1140 C1142 1.381 1_556 S
C1140 C1146 1.383 . S
C1141 C1137 1.495 . S
C1141 H1147 0.959 . S
C1141 H1148 0.961 . S
C1141 H1149 0.960 1_556 S
C1142 C1140 1.381 1_554 S
C1142 C1143 1.394 . S
C1142 H1150 0.930 . S
C1143 C1142 1.394 . S
C1143 C1144 1.383 1_554 S
C1143 H1151 0.929 . S
C1144 C1143 1.383 1_556 S
C1144 C1145 1.377 . S
C1145 H1129 0.930 . S
C1145 C1144 1.377 . S
C1145 C1146 1.379 . S
C1146 H1130 0.931 . S
C1146 C1140 1.383 . S
C1146 C1145 1.379 . S
H1147 C1141 0.959 . S
H1148 C1141 0.961 . S
H1149 C1141 0.960 1_554 S
H1150 C1142 0.930 . S
H1151 C1143 0.929 . S
H1152 C1160 0.929 . S
H1153 C1162 0.930 . S
H1154 C1164 0.930 . S
H1155 C1167 0.929 . S
H1156 C1170 0.930 . S
H1157 C1172 0.960 . S
H1158 C1172 0.960 . S
H1159 C1172 0.960 . S
C1160 H1152 0.929 . S
C1160 C1161 1.377 . S
C1160 C1162 1.384 . S
C1161 C1160 1.377 . S
C1161 C1167 1.390 . S
C1162 H1153 0.930 . S
C1162 C1160 1.384 . S
C1162 C1163 1.372 . S
C1163 C1162 1.372 . S
C1163 C1164 1.400 . S
C1163 C1168 1.490 . S
C1164 H1154 0.930 . S
C1164 C1163 1.400 . S
C1164 C1167 1.386 . S
H1165 C1181 0.930 . S
H1166 C1182 0.931 . S
C1167 H1155 0.929 . S
C1167 C1161 1.390 . S
C1167 C1164 1.386 . S
C1168 C1163 1.490 . S
C1168 C1170 1.395 . S
C1168 C1171 1.403 . S
H1169 C1175 0.930 . S
C1170 H1156 0.930 . S
C1170 C1168 1.395 . S
C1170 C1173 1.403 . S
C1171 C1168 1.403 . S
C1171 C1172 1.524 . S
C1171 C1175 1.400 . S
C1172 H1157 0.960 . S
C1172 H1158 0.960 . S
C1172 H1159 0.960 . S
C1172 C1171 1.524 . S
C1173 C1170 1.403 . S
C1173 C1174 1.392 . S
C1173 C1177 1.495 . S
C1174 C1173 1.392 . S
C1174 C1175 1.385 . S
C1174 C1176 1.478 . S
C1175 H1169 0.930 . S
C1175 C1171 1.400 . S
C1175 C1174 1.385 . S
C1176 C1174 1.478 . S
C1176 C1178 1.381 . S
C1176 C1182 1.383 . S
C1177 C1173 1.495 . S
C1177 H1183 0.959 . S
C1177 H1184 0.961 . S
C1177 H1185 0.960 . S
C1178 C1176 1.381 . S
C1178 C1179 1.394 . S
C1178 H1186 0.930 . S
C1179 C1178 1.394 . S
C1179 C1180 1.383 . S
C1179 H1187 0.929 . S
C1180 C1179 1.383 . S
C1180 C1181 1.377 . S
C1181 H1165 0.930 . S
C1181 C1180 1.377 . S
C1181 C1182 1.379 . S
C1182 H1166 0.931 . S
C1182 C1176 1.383 . S
C1182 C1181 1.379 . S
H1183 C1177 0.959 . S
H1184 C1177 0.961 . S
H1185 C1177 0.960 . S
H1186 C1178 0.930 . S
H1187 C1179 0.929 . S
H1188 C1196 0.929 . S
H1189 C1198 0.930 . S
H1190 C1200 0.930 . S
H1191 C1203 0.929 . S
H1192 C1206 0.930 . S
H1193 C1208 0.960 . S
H1194 C1208 0.960 . S
H1195 C1208 0.960 . S
C1196 H1188 0.929 . S
C1196 C1197 1.377 . S
C1196 C1198 1.384 . S
C1197 C1196 1.377 . S
C1197 C1203 1.390 . S
C1198 H1189 0.930 . S
C1198 C1196 1.384 . S
C1198 C1199 1.372 . S
C1199 C1198 1.372 . S
C1199 C1200 1.400 . S
C1199 C1204 1.490 . S
C1200 H1190 0.930 . S
C1200 C1199 1.400 . S
C1200 C1203 1.386 . S
H1201 C1217 0.930 . S
H1202 C1218 0.931 . S
C1203 H1191 0.929 . S
C1203 C1197 1.390 . S
C1203 C1200 1.386 . S
C1204 C1199 1.490 . S
C1204 C1206 1.395 . S
C1204 C1207 1.403 . S
H1205 C1211 0.930 . S
C1206 H1192 0.930 . S
C1206 C1204 1.395 . S
C1206 C1209 1.403 . S
C1207 C1204 1.403 . S
C1207 C1208 1.524 . S
C1207 C1211 1.400 . S
C1208 H1193 0.960 . S
C1208 H1194 0.960 . S
C1208 H1195 0.960 . S
C1208 C1207 1.524 . S
C1209 C1206 1.403 . S
C1209 C1210 1.392 . S
C1209 C1213 1.495 . S
C1210 C1209 1.392 . S
C1210 C1211 1.385 . S
C1210 C1212 1.478 . S
C1211 H1205 0.930 . S
C1211 C1207 1.400 . S
C1211 C1210 1.385 . S
C1212 C1210 1.478 . S
C1212 C1214 1.381 . S
C1212 C1218 1.383 . S
C1213 C1209 1.495 . S
C1213 H1219 0.959 . S
C1213 H1220 0.961 . S
C1213 H1221 0.960 . S
C1214 C1212 1.381 . S
C1214 C1215 1.394 . S
C1214 H1222 0.930 . S
C1215 C1214 1.394 . S
C1215 C1216 1.383 . S
C1215 H1223 0.929 . S
C1216 C1215 1.383 . S
C1216 C1217 1.377 . S
C1217 H1201 0.930 . S
C1217 C1216 1.377 . S
C1217 C1218 1.379 . S
C1218 H1202 0.931 . S
C1218 C1212 1.383 . S
C1218 C1217 1.379 . S
H1219 C1213 0.959 . S
H1220 C1213 0.961 . S
H1221 C1213 0.960 . S
H1222 C1214 0.930 . S
H1223 C1215 0.929 . S
H1224 C1232 0.929 . S
H1225 C1234 0.930 . S
H1226 C1236 0.930 . S
H1227 C1239 0.929 . S
H1228 C1242 0.930 . S
H1229 C1244 0.960 . S
H1230 C1244 0.960 . S
H1231 C1244 0.960 . S
C1232 H1224 0.929 . S
C1232 C1233 1.377 . S
C1232 C1234 1.384 . S
C1233 C1232 1.377 . S
C1233 C1239 1.390 . S
C1234 H1225 0.930 . S
C1234 C1232 1.384 . S
C1234 C1235 1.372 . S
C1235 C1234 1.372 . S
C1235 C1236 1.400 . S
C1235 C1240 1.490 . S
C1236 H1226 0.930 . S
C1236 C1235 1.400 . S
C1236 C1239 1.386 . S
H1237 C1253 0.947 . S
H1238 C1254 0.931 . S
C1239 H1227 0.929 . S
C1239 C1233 1.390 . S
C1239 C1236 1.386 . S
C1240 C1235 1.490 . S
C1240 C1242 1.395 . S
C1240 C1243 1.403 . S
H1241 C1247 0.930 . S
C1242 H1228 0.930 . S
C1242 C1240 1.395 . S
C1242 C1245 1.403 . S
C1243 C1240 1.403 . S
C1243 C1244 1.524 . S
C1243 C1247 1.400 . S
C1244 H1229 0.960 . S
C1244 H1230 0.960 . S
C1244 H1231 0.960 . S
C1244 C1243 1.524 . S
C1245 C1242 1.403 . S
C1245 C1246 1.392 . S
C1245 C1249 1.495 1_556 S
C1246 C1245 1.392 . S
C1246 C1247 1.385 . S
C1246 C1248 1.478 . S
C1247 H1241 0.930 . S
C1247 C1243 1.400 . S
C1247 C1246 1.385 . S
C1248 C1246 1.478 . S
C1248 C1250 1.381 . S
C1248 C1254 1.383 . S
C1249 C1245 1.495 1_554 S
C1249 H1255 0.959 . S
C1249 H1256 0.961 . S
C1249 H1257 0.954 1_554 S
C1250 C1248 1.381 . S
C1250 C1251 1.394 . S
C1250 H1258 0.930 . S
C1251 C1250 1.394 . S
C1251 C1252 1.383 . S
C1251 H1259 0.929 . S
C1252 C1251 1.383 . S
C1252 C1253 1.377 . S
C1253 H1237 0.947 . S
C1253 C1252 1.377 . S
C1253 C1254 1.379 . S
C1254 H1238 0.931 . S
C1254 C1248 1.383 . S
C1254 C1253 1.379 . S
H1255 C1249 0.959 . S
H1256 C1249 0.961 . S
H1257 C1249 0.954 1_556 S
H1258 C1250 0.930 . S
H1259 C1251 0.929 . S
H1260 C1268 0.929 . S
H1261 C1270 0.930 . S
H1262 C1272 0.930 . S
H1263 C1275 0.929 . S
H1264 C1278 0.930 . S
H1265 C1280 0.960 . S
H1266 C1280 0.960 . S
H1267 C1280 0.960 . S
C1268 H1260 0.929 . S
C1268 C1269 1.377 . S
C1268 C1270 1.384 . S
C1269 C1268 1.377 . S
C1269 C1275 1.390 . S
C1270 H1261 0.930 . S
C1270 C1268 1.384 . S
C1270 C1271 1.372 . S
C1271 C1270 1.372 . S
C1271 C1272 1.400 . S
C1271 C1276 1.490 . S
C1272 H1262 0.930 . S
C1272 C1271 1.400 . S
C1272 C1275 1.386 . S
H1273 C1289 0.930 . S
H1274 C1290 0.931 . S
C1275 H1263 0.929 . S
C1275 C1269 1.390 . S
C1275 C1272 1.386 . S
C1276 C1271 1.490 . S
C1276 C1278 1.395 . S
C1276 C1279 1.403 . S
H1277 C1283 0.930 . S
C1278 H1264 0.930 . S
C1278 C1276 1.395 . S
C1278 C1281 1.403 . S
C1279 C1276 1.403 . S
C1279 C1280 1.524 . S
C1279 C1283 1.400 . S
C1280 H1265 0.960 . S
C1280 H1266 0.960 . S
C1280 H1267 0.960 . S
C1280 C1279 1.524 . S
C1281 C1278 1.403 . S
C1281 C1282 1.392 . S
C1281 C1285 1.495 . S
C1282 C1281 1.392 . S
C1282 C1283 1.385 . S
C1282 C1284 1.478 . S
C1283 H1277 0.930 . S
C1283 C1279 1.400 . S
C1283 C1282 1.385 . S
C1284 C1282 1.478 . S
C1284 C1286 1.381 . S
C1284 C1290 1.383 . S
C1285 C1281 1.495 . S
C1285 H1291 0.959 . S
C1285 H1292 0.961 . S
C1285 H1293 0.960 . S
C1286 C1284 1.381 . S
C1286 C1287 1.394 . S
C1286 H1294 0.930 . S
C1287 C1286 1.394 . S
C1287 C1288 1.383 . S
C1287 H1295 0.929 1_554 S
C1288 C1287 1.383 . S
C1288 C1289 1.377 . S
C1289 H1273 0.930 . S
C1289 C1288 1.377 . S
C1289 C1290 1.379 . S
C1290 H1274 0.931 . S
C1290 C1284 1.383 . S
C1290 C1289 1.379 . S
H1291 C1285 0.959 . S
H1292 C1285 0.961 . S
H1293 C1285 0.960 . S
H1294 C1286 0.930 . S
H1295 C1287 0.929 1_556 S
H1296 C1304 0.929 . S
H1297 C1306 0.930 . S
H1298 C1308 0.930 . S
H1299 C1311 0.929 . S
H1300 C1314 0.930 . S
H1301 C1316 0.960 . S
H1302 C1316 0.960 . S
H1303 C1316 0.960 . S
C1304 H1296 0.929 . S
C1304 C1305 1.377 . S
C1304 C1306 1.384 . S
C1305 C1304 1.377 . S
C1305 C1311 1.390 . S
C1306 H1297 0.930 . S
C1306 C1304 1.384 . S
C1306 C1307 1.372 . S
C1307 C1306 1.372 . S
C1307 C1308 1.400 . S
C1307 C1312 1.490 . S
C1308 H1298 0.930 . S
C1308 C1307 1.400 . S
C1308 C1311 1.386 . S
H1309 C1325 0.930 . S
H1310 C1326 0.931 . S
C1311 H1299 0.929 . S
C1311 C1305 1.390 . S
C1311 C1308 1.386 . S
C1312 C1307 1.490 . S
C1312 C1314 1.395 . S
C1312 C1315 1.403 . S
H1313 C1319 0.930 . S
C1314 H1300 0.930 . S
C1314 C1312 1.395 . S
C1314 C1317 1.403 . S
C1315 C1312 1.403 . S
C1315 C1316 1.524 . S
C1315 C1319 1.400 . S
C1316 H1301 0.960 . S
C1316 H1302 0.960 . S
C1316 H1303 0.960 . S
C1316 C1315 1.524 . S
C1317 C1314 1.403 . S
C1317 C1318 1.392 . S
C1317 C1321 1.495 . S
C1318 C1317 1.392 . S
C1318 C1319 1.385 . S
C1318 C1320 1.478 . S
C1319 H1313 0.930 . S
C1319 C1315 1.400 . S
C1319 C1318 1.385 . S
C1320 C1318 1.478 . S
C1320 C1322 1.381 . S
C1320 C1326 1.383 . S
C1321 C1317 1.495 . S
C1321 H1327 0.959 . S
C1321 H1328 0.961 . S
C1321 H1329 0.960 . S
C1322 C1320 1.381 . S
C1322 C1323 1.394 . S
C1322 H1330 0.930 . S
C1323 C1322 1.394 . S
C1323 C1324 1.383 . S
C1323 H1331 0.929 . S
C1324 C1323 1.383 . S
C1324 C1325 1.377 . S
C1325 H1309 0.930 . S
C1325 C1324 1.377 . S
C1325 C1326 1.379 . S
C1326 H1310 0.931 . S
C1326 C1320 1.383 . S
C1326 C1325 1.379 . S
H1327 C1321 0.959 . S
H1328 C1321 0.961 . S
H1329 C1321 0.960 . S
H1330 C1322 0.930 . S
H1331 C1323 0.929 . S
H1332 C1340 0.929 . S
H1333 C1342 0.930 . S
H1334 C1344 0.930 . S
H1335 C1347 0.929 . S
H1336 C1350 0.930 . S
H1337 C1352 0.960 . S
H1338 C1352 0.960 . S
H1339 C1352 0.960 . S
C1340 H1332 0.929 . S
C1340 C1341 1.377 . S
C1340 C1342 1.384 . S
C1341 C1340 1.377 . S
C1341 C1347 1.390 . S
C1342 H1333 0.930 . S
C1342 C1340 1.384 . S
C1342 C1343 1.372 . S
C1343 C1342 1.372 . S
C1343 C1344 1.400 . S
C1343 C1348 1.490 . S
C1344 H1334 0.930 . S
C1344 C1343 1.400 . S
C1344 C1347 1.386 . S
H1345 C1361 0.930 1_556 S
H1346 C1362 0.931 . S
C1347 H1335 0.929 . S
C1347 C1341 1.390 . S
C1347 C1344 1.386 . S
C1348 C1343 1.490 . S
C1348 C1350 1.395 . S
C1348 C1351 1.403 . S
H1349 C1355 0.930 . S
C1350 H1336 0.930 . S
C1350 C1348 1.395 . S
C1350 C1353 1.403 . S
C1351 C1348 1.403 . S
C1351 C1352 1.524 . S
C1351 C1355 1.400 . S
C1352 H1337 0.960 . S
C1352 H1338 0.960 . S
C1352 H1339 0.960 . S
C1352 C1351 1.524 . S
C1353 C1350 1.403 . S
C1353 C1354 1.392 . S
C1353 C1357 1.495 . S
C1354 C1353 1.392 . S
C1354 C1355 1.385 . S
C1354 C1356 1.478 . S
C1355 H1349 0.930 . S
C1355 C1351 1.400 . S
C1355 C1354 1.385 . S
C1356 C1354 1.478 . S
C1356 C1358 1.381 . S
C1356 C1362 1.383 . S
C1357 C1353 1.495 . S
C1357 H1363 0.959 . S
C1357 H1364 0.961 . S
C1357 H1365 0.960 . S
C1358 C1356 1.381 . S
C1358 C1359 1.394 . S
C1358 H1366 0.930 . S
C1359 C1358 1.394 . S
C1359 C1360 1.383 . S
C1359 H1367 0.929 . S
C1360 C1359 1.383 . S
C1360 C1361 1.377 . S
C1361 H1345 0.930 1_554 S
C1361 C1360 1.377 . S
C1361 C1362 1.379 . S
C1362 H1346 0.931 . S
C1362 C1356 1.383 . S
C1362 C1361 1.379 . S
H1363 C1357 0.959 . S
H1364 C1357 0.961 . S
H1365 C1357 0.960 . S
H1366 C1358 0.930 . S
H1367 C1359 0.929 . S
H1368 C1376 0.929 . S
H1369 C1378 0.930 . S
H1370 C1380 0.930 . S
H1371 C1383 0.929 . S
H1372 C1386 0.961 . S
H1373 C1388 0.960 . S
H1374 C1388 0.960 . S
H1375 C1388 0.960 . S
C1376 H1368 0.929 . S
C1376 C1377 1.377 . S
C1376 C1378 1.384 . S
C1377 C1376 1.377 . S
C1377 C1383 1.390 . S
C1378 H1369 0.930 . S
C1378 C1376 1.384 . S
C1378 C1379 1.372 . S
C1379 C1378 1.372 . S
C1379 C1380 1.400 . S
C1379 C1384 1.490 1_655 S
C1380 H1370 0.930 . S
C1380 C1379 1.400 . S
C1380 C1383 1.386 . S
H1381 C1397 0.930 . S
H1382 C1398 0.931 . S
C1383 H1371 0.929 . S
C1383 C1377 1.390 . S
C1383 C1380 1.386 . S
C1384 C1379 1.490 1_455 S
C1384 C1386 1.395 . S
C1384 C1387 1.403 . S
H1385 C1391 0.930 . S
C1386 H1372 0.961 . S
C1386 C1384 1.395 . S
C1386 C1389 1.403 . S
C1387 C1384 1.403 . S
C1387 C1388 1.524 . S
C1387 C1391 1.400 . S
C1388 H1373 0.960 . S
C1388 H1374 0.960 . S
C1388 H1375 0.960 . S
C1388 C1387 1.524 . S
C1389 C1386 1.403 . S
C1389 C1390 1.392 . S
C1389 C1393 1.495 . S
C1390 C1389 1.392 . S
C1390 C1391 1.385 . S
C1390 C1392 1.478 . S
C1391 H1385 0.930 . S
C1391 C1387 1.400 . S
C1391 C1390 1.385 . S
C1392 C1390 1.478 . S
C1392 C1394 1.381 . S
C1392 C1398 1.383 . S
C1393 C1389 1.495 . S
C1393 H1399 0.959 . S
C1393 H1400 0.961 . S
C1393 H1401 0.960 . S
C1394 C1392 1.381 . S
C1394 C1395 1.394 . S
C1394 H1402 0.930 . S
C1395 C1394 1.394 . S
C1395 C1396 1.383 . S
C1395 H1403 0.929 . S
C1396 C1395 1.383 . S
C1396 C1397 1.377 . S
C1397 H1381 0.930 . S
C1397 C1396 1.377 . S
C1397 C1398 1.379 . S
C1398 H1382 0.931 . S
C1398 C1392 1.383 . S
C1398 C1397 1.379 . S
H1399 C1393 0.959 . S
H1400 C1393 0.961 . S
H1401 C1393 0.960 . S
H1402 C1394 0.930 . S
H1403 C1395 0.929 . S
H1404 C1412 0.929 . S
H1405 C1414 0.930 . S
H1406 C1416 0.930 . S
H1407 C1419 0.929 . S
H1408 C1422 0.930 . S
H1409 C1424 0.960 . S
H1410 C1424 0.960 . S
H1411 C1424 0.960 . S
C1412 H1404 0.929 . S
C1412 C1413 1.377 . S
C1412 C1414 1.384 . S
C1413 C1412 1.377 . S
C1413 C1419 1.390 . S
C1414 H1405 0.930 . S
C1414 C1412 1.384 . S
C1414 C1415 1.372 . S
C1415 C1414 1.372 . S
C1415 C1416 1.400 . S
C1415 C1420 1.490 . S
C1416 H1406 0.930 . S
C1416 C1415 1.400 . S
C1416 C1419 1.386 . S
H1417 C1433 0.930 . S
H1418 C1434 0.931 . S
C1419 H1407 0.929 . S
C1419 C1413 1.390 . S
C1419 C1416 1.386 . S
C1420 C1415 1.490 . S
C1420 C1422 1.395 . S
C1420 C1423 1.403 . S
H1421 C1427 0.930 . S
C1422 H1408 0.930 . S
C1422 C1420 1.395 . S
C1422 C1425 1.403 . S
C1423 C1420 1.403 . S
C1423 C1424 1.524 . S
C1423 C1427 1.400 . S
C1424 H1409 0.960 . S
C1424 H1410 0.960 . S
C1424 H1411 0.960 . S
C1424 C1423 1.524 . S
C1425 C1422 1.403 . S
C1425 C1426 1.392 . S
C1425 C1429 1.495 . S
C1426 C1425 1.392 . S
C1426 C1427 1.385 . S
C1426 C1428 1.478 . S
C1427 H1421 0.930 . S
C1427 C1423 1.400 . S
C1427 C1426 1.385 . S
C1428 C1426 1.478 . S
C1428 C1430 1.381 . S
C1428 C1434 1.383 . S
C1429 C1425 1.495 . S
C1429 H1435 0.959 . S
C1429 H1436 0.961 . S
C1429 H1437 0.960 . S
C1430 C1428 1.381 . S
C1430 C1431 1.394 . S
C1430 H1438 0.930 . S
C1431 C1430 1.394 . S
C1431 C1432 1.383 . S
C1431 H1439 0.929 . S
C1432 C1431 1.383 . S
C1432 C1433 1.377 . S
C1433 H1417 0.930 . S
C1433 C1432 1.377 . S
C1433 C1434 1.379 . S
C1434 H1418 0.931 . S
C1434 C1428 1.383 . S
C1434 C1433 1.379 . S
H1435 C1429 0.959 . S
H1436 C1429 0.961 . S
H1437 C1429 0.960 . S
H1438 C1430 0.930 . S
H1439 C1431 0.929 . S
H1440 C1448 0.929 . S
H1441 C1450 0.930 . S
H1442 C1452 0.930 . S
H1443 C1455 0.929 . S
H1444 C1458 0.930 1_545 S
H1445 C1460 0.960 1_565 S
H1446 C1460 0.960 . S
H1447 C1460 0.960 . S
C1448 H1440 0.929 . S
C1448 C1449 1.377 . S
C1448 C1450 1.384 . S
C1449 C1448 1.377 . S
C1449 C1455 1.390 . S
C1450 H1441 0.930 . S
C1450 C1448 1.384 . S
C1450 C1451 1.372 . S
C1451 C1450 1.372 . S
C1451 C1452 1.400 . S
C1451 C1456 1.490 . S
C1452 H1442 0.930 . S
C1452 C1451 1.400 . S
C1452 C1455 1.386 . S
H1453 C1469 0.930 . S
H1454 C1470 0.931 . S
C1455 H1443 0.929 . S
C1455 C1449 1.390 . S
C1455 C1452 1.386 . S
C1456 C1451 1.490 . S
C1456 C1458 1.395 1_545 S
C1456 C1459 1.403 1_545 S
H1457 C1463 0.930 . S
C1458 H1444 0.930 1_565 S
C1458 C1456 1.395 1_565 S
C1458 C1461 1.403 . S
C1459 C1456 1.403 1_565 S
C1459 C1460 1.524 1_565 S
C1459 C1463 1.400 . S
C1460 H1445 0.960 1_545 S
C1460 H1446 0.960 . S
C1460 H1447 0.960 . S
C1460 C1459 1.524 1_545 S
C1461 C1458 1.403 . S
C1461 C1462 1.392 . S
C1461 C1465 1.495 . S
C1462 C1461 1.392 . S
C1462 C1463 1.385 . S
C1462 C1464 1.478 . S
C1463 H1457 0.930 . S
C1463 C1459 1.400 . S
C1463 C1462 1.385 . S
C1464 C1462 1.478 . S
C1464 C1466 1.381 . S
C1464 C1470 1.383 . S
C1465 C1461 1.495 . S
C1465 H1471 0.959 . S
C1465 H1472 0.961 . S
C1465 H1473 0.960 . S
C1466 C1464 1.381 . S
C1466 C1467 1.394 . S
C1466 H1474 0.930 . S
C1467 C1466 1.394 . S
C1467 C1468 1.383 . S
C1467 H1475 0.929 . S
C1468 C1467 1.383 . S
C1468 C1469 1.377 . S
C1469 H1453 0.930 . S
C1469 C1468 1.377 . S
C1469 C1470 1.379 . S
C1470 H1454 0.931 . S
C1470 C1464 1.383 . S
C1470 C1469 1.379 . S
H1471 C1465 0.959 . S
H1472 C1465 0.961 . S
H1473 C1465 0.960 . S
H1474 C1466 0.930 . S
H1475 C1467 0.929 . S
H1476 C1484 0.929 . S
H1477 C1486 0.930 . S
H1478 C1488 0.930 . S
H1479 C1491 0.929 . S
H1480 C1494 0.930 . S
H1481 C1496 0.960 . S
H1482 C1496 0.960 . S
H1483 C1496 0.960 . S
C1484 H1476 0.929 . S
C1484 C1485 1.377 . S
C1484 C1486 1.384 . S
C1485 C1484 1.377 . S
C1485 C1491 1.390 . S
C1486 H1477 0.930 . S
C1486 C1484 1.384 . S
C1486 C1487 1.372 . S
C1487 C1486 1.372 . S
C1487 C1488 1.400 . S
C1487 C1492 1.490 . S
C1488 H1478 0.930 . S
C1488 C1487 1.400 . S
C1488 C1491 1.386 . S
H1489 C1505 0.930 . S
H1490 C1506 0.931 . S
C1491 H1479 0.929 . S
C1491 C1485 1.390 . S
C1491 C1488 1.386 . S
C1492 C1487 1.490 . S
C1492 C1494 1.395 . S
C1492 C1495 1.403 . S
H1493 C1499 0.930 . S
C1494 H1480 0.930 . S
C1494 C1492 1.395 . S
C1494 C1497 1.403 . S
C1495 C1492 1.403 . S
C1495 C1496 1.524 . S
C1495 C1499 1.400 . S
C1496 H1481 0.960 . S
C1496 H1482 0.960 . S
C1496 H1483 0.960 . S
C1496 C1495 1.524 . S
C1497 C1494 1.403 . S
C1497 C1498 1.392 . S
C1497 C1501 1.495 . S
C1498 C1497 1.392 . S
C1498 C1499 1.385 . S
C1498 C1500 1.478 . S
C1499 H1493 0.930 . S
C1499 C1495 1.400 . S
C1499 C1498 1.385 . S
C1500 C1498 1.478 . S
C1500 C1502 1.381 . S
C1500 C1506 1.383 . S
C1501 C1497 1.495 . S
C1501 H1507 0.959 . S
C1501 H1508 0.961 . S
C1501 H1509 0.960 . S
C1502 C1500 1.381 . S
C1502 C1503 1.394 . S
C1502 H1510 0.930 . S
C1503 C1502 1.394 . S
C1503 C1504 1.383 . S
C1503 H1511 0.929 . S
C1504 C1503 1.383 . S
C1504 C1505 1.377 . S
C1505 H1489 0.930 . S
C1505 C1504 1.377 . S
C1505 C1506 1.379 . S
C1506 H1490 0.931 . S
C1506 C1500 1.383 . S
C1506 C1505 1.379 . S
H1507 C1501 0.959 . S
H1508 C1501 0.961 . S
H1509 C1501 0.960 . S
H1510 C1502 0.930 . S
H1511 C1503 0.929 . S
H1512 C1520 0.929 . S
H1513 C1522 0.930 . S
H1514 C1524 0.930 . S
H1515 C1527 0.929 . S
H1516 C1530 0.930 . S
H1517 C1532 0.960 . S
H1518 C1532 0.960 . S
H1519 C1532 0.960 . S
C1520 H1512 0.929 . S
C1520 C1521 1.377 . S
C1520 C1522 1.384 . S
C1521 C1520 1.377 . S
C1521 C1527 1.390 . S
C1522 H1513 0.930 . S
C1522 C1520 1.384 . S
C1522 C1523 1.372 . S
C1523 C1522 1.372 . S
C1523 C1524 1.400 . S
C1523 C1528 1.490 . S
C1524 H1514 0.930 . S
C1524 C1523 1.400 . S
C1524 C1527 1.386 . S
H1525 C1541 0.930 . S
H1526 C1542 0.931 . S
C1527 H1515 0.929 . S
C1527 C1521 1.390 . S
C1527 C1524 1.386 . S
C1528 C1523 1.490 . S
C1528 C1530 1.395 . S
C1528 C1531 1.403 . S
H1529 C1535 0.930 . S
C1530 H1516 0.930 . S
C1530 C1528 1.395 . S
C1530 C1533 1.403 . S
C1531 C1528 1.403 . S
C1531 C1532 1.524 . S
C1531 C1535 1.400 . S
C1532 H1517 0.960 . S
C1532 H1518 0.960 . S
C1532 H1519 0.960 . S
C1532 C1531 1.524 . S
C1533 C1530 1.403 . S
C1533 C1534 1.392 . S
C1533 C1537 1.495 . S
C1534 C1533 1.392 . S
C1534 C1535 1.385 . S
C1534 C1536 1.478 . S
C1535 H1529 0.930 . S
C1535 C1531 1.400 . S
C1535 C1534 1.385 . S
C1536 C1534 1.478 . S
C1536 C1538 1.381 . S
C1536 C1542 1.383 . S
C1537 C1533 1.495 . S
C1537 H1543 0.959 . S
C1537 H1544 0.961 . S
C1537 H1545 0.960 . S
C1538 C1536 1.381 . S
C1538 C1539 1.394 . S
C1538 H1546 0.930 . S
C1539 C1538 1.394 . S
C1539 C1540 1.383 . S
C1539 H1547 0.929 . S
C1540 C1539 1.383 . S
C1540 C1541 1.377 . S
C1541 H1525 0.930 . S
C1541 C1540 1.377 . S
C1541 C1542 1.379 . S
C1542 H1526 0.931 . S
C1542 C1536 1.383 . S
C1542 C1541 1.379 . S
H1543 C1537 0.959 . S
H1544 C1537 0.961 . S
H1545 C1537 0.960 . S
H1546 C1538 0.930 . S
H1547 C1539 0.929 . S
H1548 C1556 0.929 . S
H1549 C1558 0.930 . S
H1550 C1560 0.930 . S
H1551 C1563 0.929 . S
H1552 C1566 0.930 . S
H1553 C1568 0.960 . S
H1554 C1568 0.960 . S
H1555 C1568 0.960 . S
C1556 H1548 0.929 . S
C1556 C1557 1.377 . S
C1556 C1558 1.384 . S
C1557 C1556 1.377 . S
C1557 C1563 1.390 . S
C1558 H1549 0.930 . S
C1558 C1556 1.384 . S
C1558 C1559 1.372 . S
C1559 C1558 1.372 . S
C1559 C1560 1.400 . S
C1559 C1564 1.490 . S
C1560 H1550 0.930 . S
C1560 C1559 1.400 . S
C1560 C1563 1.386 . S
H1561 C1577 0.930 . S
H1562 C1578 0.931 . S
C1563 H1551 0.929 . S
C1563 C1557 1.390 . S
C1563 C1560 1.386 . S
C1564 C1559 1.490 . S
C1564 C1566 1.395 . S
C1564 C1567 1.403 . S
H1565 C1571 0.930 . S
C1566 H1552 0.930 . S
C1566 C1564 1.395 . S
C1566 C1569 1.403 . S
C1567 C1564 1.403 . S
C1567 C1568 1.524 . S
C1567 C1571 1.400 . S
C1568 H1553 0.960 . S
C1568 H1554 0.960 . S
C1568 H1555 0.960 . S
C1568 C1567 1.524 . S
C1569 C1566 1.403 . S
C1569 C1570 1.392 . S
C1569 C1573 1.495 . S
C1570 C1569 1.392 . S
C1570 C1571 1.385 . S
C1570 C1572 1.478 . S
C1571 H1565 0.930 . S
C1571 C1567 1.400 . S
C1571 C1570 1.385 . S
C1572 C1570 1.478 . S
C1572 C1574 1.381 . S
C1572 C1578 1.383 . S
C1573 C1569 1.495 . S
C1573 H1579 0.959 . S
C1573 H1580 0.961 . S
C1573 H1581 0.960 . S
C1574 C1572 1.381 . S
C1574 C1575 1.394 . S
C1574 H1582 0.930 . S
C1575 C1574 1.394 . S
C1575 C1576 1.383 . S
C1575 H1583 0.929 . S
C1576 C1575 1.383 . S
C1576 C1577 1.377 . S
C1577 H1561 0.930 . S
C1577 C1576 1.377 . S
C1577 C1578 1.379 . S
C1578 H1562 0.931 . S
C1578 C1572 1.383 . S
C1578 C1577 1.379 . S
H1579 C1573 0.959 . S
H1580 C1573 0.961 . S
H1581 C1573 0.960 . S
H1582 C1574 0.930 . S
H1583 C1575 0.929 . S
H1584 C1592 0.929 . S
H1585 C1594 0.930 . S
H1586 C1596 0.930 . S
H1587 C1599 0.929 . S
H1588 C1602 0.930 . S
H1589 C1604 0.960 . S
H1590 C1604 0.960 . S
H1591 C1604 0.960 . S
C1592 H1584 0.929 . S
C1592 C1593 1.377 . S
C1592 C1594 1.384 . S
C1593 C1592 1.377 . S
C1593 C1599 1.390 . S
C1594 H1585 0.930 . S
C1594 C1592 1.384 . S
C1594 C1595 1.372 . S
C1595 C1594 1.372 . S
C1595 C1596 1.400 . S
C1595 C1600 1.490 . S
C1596 H1586 0.930 . S
C1596 C1595 1.400 . S
C1596 C1599 1.386 . S
H1597 C1613 0.930 . S
H1598 C1614 0.931 . S
C1599 H1587 0.929 . S
C1599 C1593 1.390 . S
C1599 C1596 1.386 . S
C1600 C1595 1.490 . S
C1600 C1602 1.395 . S
C1600 C1603 1.403 . S
H1601 C1607 0.930 . S
C1602 H1588 0.930 . S
C1602 C1600 1.395 . S
C1602 C1605 1.403 . S
C1603 C1600 1.403 . S
C1603 C1604 1.524 . S
C1603 C1607 1.400 . S
C1604 H1589 0.960 . S
C1604 H1590 0.960 . S
C1604 H1591 0.960 . S
C1604 C1603 1.524 . S
C1605 C1602 1.403 . S
C1605 C1606 1.392 . S
C1605 C1609 1.495 . S
C1606 C1605 1.392 . S
C1606 C1607 1.385 . S
C1606 C1608 1.478 . S
C1607 H1601 0.930 . S
C1607 C1603 1.400 . S
C1607 C1606 1.385 . S
C1608 C1606 1.478 . S
C1608 C1610 1.381 . S
C1608 C1614 1.383 . S
C1609 C1605 1.495 . S
C1609 H1615 0.959 . S
C1609 H1616 0.961 . S
C1609 H1617 0.960 . S
C1610 C1608 1.381 . S
C1610 C1611 1.394 . S
C1610 H1618 0.930 . S
C1611 C1610 1.394 . S
C1611 C1612 1.383 . S
C1611 H1619 0.929 . S
C1612 C1611 1.383 . S
C1612 C1613 1.377 . S
C1613 H1597 0.930 . S
C1613 C1612 1.377 . S
C1613 C1614 1.379 . S
C1614 H1598 0.931 . S
C1614 C1608 1.383 . S
C1614 C1613 1.379 . S
H1615 C1609 0.959 . S
H1616 C1609 0.961 . S
H1617 C1609 0.960 . S
H1618 C1610 0.930 . S
H1619 C1611 0.929 . S
H1620 C1628 0.929 . S
H1621 C1630 0.930 . S
H1622 C1632 0.930 . S
H1623 C1635 0.929 . S
H1624 C1638 0.930 . S
H1625 C1640 0.960 . S
H1626 C1640 0.960 . S
H1627 C1640 0.960 . S
C1628 H1620 0.929 . S
C1628 C1629 1.377 . S
C1628 C1630 1.384 . S
C1629 C1628 1.377 . S
C1629 C1635 1.390 . S
C1630 H1621 0.930 . S
C1630 C1628 1.384 . S
C1630 C1631 1.372 . S
C1631 C1630 1.372 . S
C1631 C1632 1.400 . S
C1631 C1636 1.490 . S
C1632 H1622 0.930 . S
C1632 C1631 1.400 . S
C1632 C1635 1.386 . S
H1633 C1649 0.930 . S
H1634 C1650 0.931 . S
C1635 H1623 0.929 . S
C1635 C1629 1.390 . S
C1635 C1632 1.386 . S
C1636 C1631 1.490 . S
C1636 C1638 1.395 . S
C1636 C1639 1.403 . S
H1637 C1643 0.930 . S
C1638 H1624 0.930 . S
C1638 C1636 1.395 . S
C1638 C1641 1.403 . S
C1639 C1636 1.403 . S
C1639 C1640 1.524 . S
C1639 C1643 1.400 . S
C1640 H1625 0.960 . S
C1640 H1626 0.960 . S
C1640 H1627 0.960 . S
C1640 C1639 1.524 . S
C1641 C1638 1.403 . S
C1641 C1642 1.392 . S
C1641 C1645 1.495 . S
C1642 C1641 1.392 . S
C1642 C1643 1.385 . S
C1642 C1644 1.478 . S
C1643 H1637 0.930 . S
C1643 C1639 1.400 . S
C1643 C1642 1.385 . S
C1644 C1642 1.478 . S
C1644 C1646 1.381 . S
C1644 C1650 1.383 . S
C1645 C1641 1.495 . S
C1645 H1651 0.959 . S
C1645 H1652 0.961 . S
C1645 H1653 0.960 . S
C1646 C1644 1.381 . S
C1646 C1647 1.394 . S
C1646 H1654 0.930 . S
C1647 C1646 1.394 . S
C1647 C1648 1.383 . S
C1647 H1655 0.929 . S
C1648 C1647 1.383 . S
C1648 C1649 1.377 . S
C1649 H1633 0.930 . S
C1649 C1648 1.377 . S
C1649 C1650 1.379 . S
C1650 H1634 0.931 . S
C1650 C1644 1.383 . S
C1650 C1649 1.379 . S
H1651 C1645 0.959 . S
H1652 C1645 0.961 . S
H1653 C1645 0.960 . S
H1654 C1646 0.930 . S
H1655 C1647 0.929 . S
H1656 C1664 0.929 . S
H1657 C1666 0.930 . S
H1658 C1668 0.930 . S
H1659 C1671 0.929 . S
H1660 C1674 0.930 . S
H1661 C1676 0.960 . S
H1662 C1676 0.960 . S
H1663 C1676 0.960 . S
C1664 H1656 0.929 . S
C1664 C1665 1.377 . S
C1664 C1666 1.384 . S
C1665 C1664 1.377 . S
C1665 C1671 1.390 . S
C1666 H1657 0.930 . S
C1666 C1664 1.384 . S
C1666 C1667 1.372 . S
C1667 C1666 1.372 . S
C1667 C1668 1.400 . S
C1667 C1672 1.490 . S
C1668 H1658 0.930 . S
C1668 C1667 1.400 . S
C1668 C1671 1.386 . S
H1669 C1685 0.930 . S
H1670 C1686 0.931 . S
C1671 H1659 0.929 . S
C1671 C1665 1.390 . S
C1671 C1668 1.386 . S
C1672 C1667 1.490 . S
C1672 C1674 1.395 . S
C1672 C1675 1.403 . S
H1673 C1679 0.930 . S
C1674 H1660 0.930 . S
C1674 C1672 1.395 . S
C1674 C1677 1.403 . S
C1675 C1672 1.403 . S
C1675 C1676 1.524 . S
C1675 C1679 1.400 . S
C1676 H1661 0.960 . S
C1676 H1662 0.960 . S
C1676 H1663 0.960 . S
C1676 C1675 1.524 . S
C1677 C1674 1.403 . S
C1677 C1678 1.392 . S
C1677 C1681 1.495 . S
C1678 C1677 1.392 . S
C1678 C1679 1.385 . S
C1678 C1680 1.478 . S
C1679 H1673 0.930 . S
C1679 C1675 1.400 . S
C1679 C1678 1.385 . S
C1680 C1678 1.478 . S
C1680 C1682 1.381 . S
C1680 C1686 1.383 . S
C1681 C1677 1.495 . S
C1681 H1687 0.959 . S
C1681 H1688 0.961 . S
C1681 H1689 0.960 . S
C1682 C1680 1.381 . S
C1682 C1683 1.394 . S
C1682 H1690 0.930 . S
C1683 C1682 1.394 . S
C1683 C1684 1.383 . S
C1683 H1691 0.929 . S
C1684 C1683 1.383 . S
C1684 C1685 1.377 . S
C1685 H1669 0.930 . S
C1685 C1684 1.377 . S
C1685 C1686 1.379 . S
C1686 H1670 0.931 . S
C1686 C1680 1.383 . S
C1686 C1685 1.379 . S
H1687 C1681 0.959 . S
H1688 C1681 0.961 . S
H1689 C1681 0.960 . S
H1690 C1682 0.930 . S
H1691 C1683 0.929 . S
H1692 C1700 0.929 . S
H1693 C1702 0.930 . S
H1694 C1704 0.930 . S
H1695 C1707 0.929 . S
H1696 C1710 0.930 1_545 S
H1697 C1712 0.978 . S
H1698 C1712 0.920 1_545 S
H1699 C1712 0.955 1_545 S
C1700 H1692 0.929 . S
C1700 C1701 1.377 . S
C1700 C1702 1.384 . S
C1701 C1700 1.377 . S
C1701 C1707 1.390 . S
C1702 H1693 0.930 . S
C1702 C1700 1.384 . S
C1702 C1703 1.372 . S
C1703 C1702 1.372 . S
C1703 C1704 1.400 . S
C1703 C1708 1.490 . S
C1704 H1694 0.930 . S
C1704 C1703 1.400 . S
C1704 C1707 1.386 . S
H1705 C1721 0.930 . S
H1706 C1722 0.931 . S
C1707 H1695 0.929 . S
C1707 C1701 1.390 . S
C1707 C1704 1.386 . S
C1708 C1703 1.490 . S
C1708 C1710 1.395 1_545 S
C1708 C1711 1.403 1_545 S
H1709 C1715 0.930 . S
C1710 H1696 0.930 1_565 S
C1710 C1708 1.395 1_565 S
C1710 C1713 1.403 . S
C1711 C1708 1.403 1_565 S
C1711 C1712 1.554 . S
C1711 C1715 1.400 . S
C1712 H1697 0.978 . S
C1712 H1698 0.920 1_565 S
C1712 H1699 0.955 1_565 S
C1712 C1711 1.554 . S
C1713 C1710 1.403 . S
C1713 C1714 1.392 . S
C1713 C1717 1.495 . S
C1714 C1713 1.392 . S
C1714 C1715 1.385 . S
C1714 C1716 1.478 . S
C1715 H1709 0.930 . S
C1715 C1711 1.400 . S
C1715 C1714 1.385 . S
C1716 C1714 1.478 . S
C1716 C1718 1.381 . S
C1716 C1722 1.383 . S
C1717 C1713 1.495 . S
C1717 H1723 0.959 . S
C1717 H1724 0.961 . S
C1717 H1725 0.960 . S
C1718 C1716 1.381 . S
C1718 C1719 1.394 . S
C1718 H1726 0.930 . S
C1719 C1718 1.394 . S
C1719 C1720 1.383 . S
C1719 H1727 0.929 . S
C1720 C1719 1.383 . S
C1720 C1721 1.377 . S
C1721 H1705 0.930 . S
C1721 C1720 1.377 . S
C1721 C1722 1.379 . S
C1722 H1706 0.931 . S
C1722 C1716 1.383 . S
C1722 C1721 1.379 . S
H1723 C1717 0.959 . S
H1724 C1717 0.961 . S
H1725 C1717 0.960 . S
H1726 C1718 0.930 . S
H1727 C1719 0.929 . S
H1728 C1736 0.929 . S
H1729 C1738 0.930 . S
H1730 C1740 0.930 1_455 S
H1731 C1743 0.929 . S
H1732 C1746 0.930 . S
H1733 C1748 0.960 . S
H1734 C1748 0.960 1_655 S
H1735 C1748 0.960 . S
C1736 H1728 0.929 . S
C1736 C1737 1.377 . S
C1736 C1738 1.384 . S
C1737 C1736 1.377 . S
C1737 C1743 1.390 . S
C1738 H1729 0.930 . S
C1738 C1736 1.384 . S
C1738 C1739 1.372 . S
C1739 C1738 1.372 . S
C1739 C1740 1.400 . S
C1739 C1744 1.490 1_655 S
C1740 H1730 0.930 1_655 S
C1740 C1739 1.400 . S
C1740 C1743 1.386 . S
H1741 C1757 0.930 . S
H1742 C1758 0.931 . S
C1743 H1731 0.929 . S
C1743 C1737 1.390 . S
C1743 C1740 1.386 . S
C1744 C1739 1.490 1_455 S
C1744 C1746 1.395 . S
C1744 C1747 1.403 . S
H1745 C1751 0.930 . S
C1746 H1732 0.930 . S
C1746 C1744 1.395 . S
C1746 C1749 1.403 . S
C1747 C1744 1.403 . S
C1747 C1748 1.524 . S
C1747 C1751 1.400 . S
C1748 H1733 0.960 . S
C1748 H1734 0.960 1_455 S
C1748 H1735 0.960 . S
C1748 C1747 1.524 . S
C1749 C1746 1.403 . S
C1749 C1750 1.392 . S
C1749 C1753 1.495 . S
C1750 C1749 1.392 . S
C1750 C1751 1.385 . S
C1750 C1752 1.478 . S
C1751 H1745 0.930 . S
C1751 C1747 1.400 . S
C1751 C1750 1.385 . S
C1752 C1750 1.478 . S
C1752 C1754 1.381 . S
C1752 C1758 1.383 . S
C1753 C1749 1.495 . S
C1753 H1759 0.959 . S
C1753 H1760 0.961 . S
C1753 H1761 0.960 . S
C1754 C1752 1.381 . S
C1754 C1755 1.394 . S
C1754 H1762 0.930 . S
C1755 C1754 1.394 . S
C1755 C1756 1.383 . S
C1755 H1763 0.929 . S
C1756 C1755 1.383 . S
C1756 C1757 1.377 . S
C1757 H1741 0.930 . S
C1757 C1756 1.377 . S
C1757 C1758 1.379 . S
C1758 H1742 0.931 . S
C1758 C1752 1.383 . S
C1758 C1757 1.379 . S
H1759 C1753 0.959 . S
H1760 C1753 0.961 . S
H1761 C1753 0.960 . S
H1762 C1754 0.930 . S
H1763 C1755 0.929 . S
H1764 C1772 0.929 . S
H1765 C1774 0.930 . S
H1766 C1776 0.930 . S
H1767 C1779 0.929 . S
H1768 C1782 0.930 . S
H1769 C1784 0.960 . S
H1770 C1784 0.960 . S
H1771 C1784 0.960 . S
C1772 H1764 0.929 . S
C1772 C1773 1.377 . S
C1772 C1774 1.384 . S
C1773 C1772 1.377 . S
C1773 C1779 1.390 . S
C1774 H1765 0.930 . S
C1774 C1772 1.384 . S
C1774 C1775 1.372 . S
C1775 C1774 1.372 . S
C1775 C1776 1.400 . S
C1775 C1780 1.490 . S
C1776 H1766 0.930 . S
C1776 C1775 1.400 . S
C1776 C1779 1.386 . S
H1777 C1793 0.930 . S
H1778 C1794 0.931 . S
C1779 H1767 0.929 . S
C1779 C1773 1.390 . S
C1779 C1776 1.386 . S
C1780 C1775 1.490 . S
C1780 C1782 1.395 . S
C1780 C1783 1.403 . S
H1781 C1787 0.930 . S
C1782 H1768 0.930 . S
C1782 C1780 1.395 . S
C1782 C1785 1.403 . S
C1783 C1780 1.403 . S
C1783 C1784 1.524 . S
C1783 C1787 1.400 . S
C1784 H1769 0.960 . S
C1784 H1770 0.960 . S
C1784 H1771 0.960 . S
C1784 C1783 1.524 . S
C1785 C1782 1.403 . S
C1785 C1786 1.392 . S
C1785 C1789 1.495 . S
C1786 C1785 1.392 . S
C1786 C1787 1.385 . S
C1786 C1788 1.478 . S
C1787 H1781 0.930 . S
C1787 C1783 1.400 . S
C1787 C1786 1.385 . S
C1788 C1786 1.478 . S
C1788 C1790 1.381 . S
C1788 C1794 1.383 . S
C1789 C1785 1.495 . S
C1789 H1795 0.959 . S
C1789 H1796 0.961 . S
C1789 H1797 0.960 . S
C1790 C1788 1.381 . S
C1790 C1791 1.394 . S
C1790 H1798 0.930 . S
C1791 C1790 1.394 . S
C1791 C1792 1.383 . S
C1791 H1799 0.929 . S
C1792 C1791 1.383 . S
C1792 C1793 1.377 . S
C1793 H1777 0.930 . S
C1793 C1792 1.377 . S
C1793 C1794 1.379 . S
C1794 H1778 0.931 . S
C1794 C1788 1.383 . S
C1794 C1793 1.379 . S
H1795 C1789 0.959 . S
H1796 C1789 0.961 . S
H1797 C1789 0.960 . S
H1798 C1790 0.930 . S
H1799 C1791 0.929 . S
H1800 C1808 0.929 . S
H1801 C1810 0.930 . S
H1802 C1812 0.930 . S
H1803 C1815 0.929 . S
H1804 C1818 0.930 . S
H1805 C1820 0.960 . S
H1806 C1820 0.960 . S
H1807 C1820 0.960 . S
C1808 H1800 0.929 . S
C1808 C1809 1.377 . S
C1808 C1810 1.384 . S
C1809 C1808 1.377 . S
C1809 C1815 1.390 . S
C1810 H1801 0.930 . S
C1810 C1808 1.384 . S
C1810 C1811 1.372 . S
C1811 C1810 1.372 . S
C1811 C1812 1.400 . S
C1811 C1816 1.490 . S
C1812 H1802 0.930 . S
C1812 C1811 1.400 . S
C1812 C1815 1.386 . S
H1813 C1829 0.930 . S
H1814 C1830 0.931 . S
C1815 H1803 0.929 . S
C1815 C1809 1.390 . S
C1815 C1812 1.386 . S
C1816 C1811 1.490 . S
C1816 C1818 1.395 . S
C1816 C1819 1.403 . S
H1817 C1823 0.930 . S
C1818 H1804 0.930 . S
C1818 C1816 1.395 . S
C1818 C1821 1.403 . S
C1819 C1816 1.403 . S
C1819 C1820 1.524 . S
C1819 C1823 1.400 . S
C1820 H1805 0.960 . S
C1820 H1806 0.960 . S
C1820 H1807 0.960 . S
C1820 C1819 1.524 . S
C1821 C1818 1.403 . S
C1821 C1822 1.392 . S
C1821 C1825 1.495 . S
C1822 C1821 1.392 . S
C1822 C1823 1.385 . S
C1822 C1824 1.478 . S
C1823 H1817 0.930 . S
C1823 C1819 1.400 . S
C1823 C1822 1.385 . S
C1824 C1822 1.478 . S
C1824 C1826 1.381 . S
C1824 C1830 1.383 . S
C1825 C1821 1.495 . S
C1825 H1831 0.959 . S
C1825 H1832 0.961 . S
C1825 H1833 0.960 . S
C1826 C1824 1.381 . S
C1826 C1827 1.394 . S
C1826 H1834 0.930 . S
C1827 C1826 1.394 . S
C1827 C1828 1.383 . S
C1827 H1835 0.929 . S
C1828 C1827 1.383 . S
C1828 C1829 1.377 . S
C1829 H1813 0.930 . S
C1829 C1828 1.377 . S
C1829 C1830 1.379 . S
C1830 H1814 0.931 . S
C1830 C1824 1.383 . S
C1830 C1829 1.379 . S
H1831 C1825 0.959 . S
H1832 C1825 0.961 . S
H1833 C1825 0.960 . S
H1834 C1826 0.930 . S
H1835 C1827 0.929 . S
H1836 C1844 0.929 . S
H1837 C1846 0.930 . S
H1838 C1848 0.930 . S
H1839 C1851 0.929 . S
H1840 C1854 0.930 . S
H1841 C1856 0.960 . S
H1842 C1856 0.960 . S
H1843 C1856 0.960 . S
C1844 H1836 0.929 . S
C1844 C1845 1.377 . S
C1844 C1846 1.384 . S
C1845 C1844 1.377 . S
C1845 C1851 1.390 . S
C1846 H1837 0.930 . S
C1846 C1844 1.384 . S
C1846 C1847 1.372 . S
C1847 C1846 1.372 . S
C1847 C1848 1.400 . S
C1847 C1852 1.490 . S
C1848 H1838 0.930 . S
C1848 C1847 1.400 . S
C1848 C1851 1.386 . S
H1849 C1865 0.930 . S
H1850 C1866 0.931 . S
C1851 H1839 0.929 . S
C1851 C1845 1.390 . S
C1851 C1848 1.386 . S
C1852 C1847 1.490 . S
C1852 C1854 1.395 . S
C1852 C1855 1.403 . S
H1853 C1859 0.930 . S
C1854 H1840 0.930 . S
C1854 C1852 1.395 . S
C1854 C1857 1.403 . S
C1855 C1852 1.403 . S
C1855 C1856 1.524 . S
C1855 C1859 1.400 . S
C1856 H1841 0.960 . S
C1856 H1842 0.960 . S
C1856 H1843 0.960 . S
C1856 C1855 1.524 . S
C1857 C1854 1.403 . S
C1857 C1858 1.392 . S
C1857 C1861 1.495 . S
C1858 C1857 1.392 . S
C1858 C1859 1.385 . S
C1858 C1860 1.478 . S
C1859 H1853 0.930 . S
C1859 C1855 1.400 . S
C1859 C1858 1.385 . S
C1860 C1858 1.478 . S
C1860 C1862 1.381 . S
C1860 C1866 1.383 . S
C1861 C1857 1.495 . S
C1861 H1867 0.959 . S
C1861 H1868 0.961 . S
C1861 H1869 0.960 . S
C1862 C1860 1.381 . S
C1862 C1863 1.394 . S
C1862 H1870 0.930 . S
C1863 C1862 1.394 . S
C1863 C1864 1.383 . S
C1863 H1871 0.929 . S
C1864 C1863 1.383 . S
C1864 C1865 1.377 . S
C1865 H1849 0.930 . S
C1865 C1864 1.377 . S
C1865 C1866 1.379 . S
C1866 H1850 0.931 . S
C1866 C1860 1.383 . S
C1866 C1865 1.379 . S
H1867 C1861 0.959 . S
H1868 C1861 0.961 . S
H1869 C1861 0.960 . S
H1870 C1862 0.930 . S
H1871 C1863 0.929 . S
H1872 C1880 0.929 . S
H1873 C1882 0.930 . S
H1874 C1884 0.930 . S
H1875 C1887 0.929 . S
H1876 C1890 0.930 . S
H1877 C1892 0.960 . S
H1878 C1892 0.960 . S
H1879 C1892 0.960 . S
C1880 H1872 0.929 . S
C1880 C1881 1.377 . S
C1880 C1882 1.384 . S
C1881 C1880 1.377 . S
C1881 C1887 1.390 . S
C1882 H1873 0.930 . S
C1882 C1880 1.384 . S
C1882 C1883 1.372 . S
C1883 C1882 1.372 . S
C1883 C1884 1.400 . S
C1883 C1888 1.490 . S
C1884 H1874 0.930 . S
C1884 C1883 1.400 . S
C1884 C1887 1.386 . S
H1885 C1901 0.930 . S
H1886 C1902 0.931 . S
C1887 H1875 0.929 . S
C1887 C1881 1.390 . S
C1887 C1884 1.386 . S
C1888 C1883 1.490 . S
C1888 C1890 1.395 . S
C1888 C1891 1.403 . S
H1889 C1895 0.930 . S
C1890 H1876 0.930 . S
C1890 C1888 1.395 . S
C1890 C1893 1.403 . S
C1891 C1888 1.403 . S
C1891 C1892 1.524 . S
C1891 C1895 1.400 . S
C1892 H1877 0.960 . S
C1892 H1878 0.960 . S
C1892 H1879 0.960 . S
C1892 C1891 1.524 . S
C1893 C1890 1.403 . S
C1893 C1894 1.392 . S
C1893 C1897 1.495 . S
C1894 C1893 1.392 . S
C1894 C1895 1.385 . S
C1894 C1896 1.478 . S
C1895 H1889 0.930 . S
C1895 C1891 1.400 . S
C1895 C1894 1.385 . S
C1896 C1894 1.478 . S
C1896 C1898 1.381 . S
C1896 C1902 1.383 . S
C1897 C1893 1.495 . S
C1897 H1903 0.959 . S
C1897 H1904 0.961 . S
C1897 H1905 0.960 . S
C1898 C1896 1.381 . S
C1898 C1899 1.394 . S
C1898 H1906 0.930 . S
C1899 C1898 1.394 . S
C1899 C1900 1.383 . S
C1899 H1907 0.929 . S
C1900 C1899 1.383 . S
C1900 C1901 1.377 . S
C1901 H1885 0.930 . S
C1901 C1900 1.377 . S
C1901 C1902 1.379 . S
C1902 H1886 0.931 . S
C1902 C1896 1.383 . S
C1902 C1901 1.379 . S
H1903 C1897 0.959 . S
H1904 C1897 0.961 . S
H1905 C1897 0.960 . S
H1906 C1898 0.930 . S
H1907 C1899 0.929 . S
H1908 C1916 0.929 . S
H1909 C1918 0.930 . S
H1910 C1920 0.930 . S
H1911 C1923 0.929 . S
H1912 C1926 0.930 . S
H1913 C1928 0.960 1_545 S
H1914 C1928 0.960 . S
H1915 C1928 0.960 . S
C1916 H1908 0.929 . S
C1916 C1917 1.377 . S
C1916 C1918 1.384 . S
C1917 C1916 1.377 . S
C1917 C1923 1.390 . S
C1918 H1909 0.930 . S
C1918 C1916 1.384 . S
C1918 C1919 1.372 . S
C1919 C1918 1.372 . S
C1919 C1920 1.400 . S
C1919 C1924 1.490 . S
C1920 H1910 0.930 . S
C1920 C1919 1.400 . S
C1920 C1923 1.386 . S
H1921 C1937 0.930 . S
H1922 C1938 0.931 . S
C1923 H1911 0.929 . S
C1923 C1917 1.390 . S
C1923 C1920 1.386 . S
C1924 C1919 1.490 . S
C1924 C1926 1.395 1_565 S
C1924 C1927 1.403 1_565 S
H1925 C1931 0.930 . S
C1926 H1912 0.930 . S
C1926 C1924 1.395 1_545 S
C1926 C1929 1.403 . S
C1927 C1924 1.403 1_545 S
C1927 C1928 1.524 1_545 S
C1927 C1931 1.400 . S
C1928 H1913 0.960 1_565 S
C1928 H1914 0.960 . S
C1928 H1915 0.960 . S
C1928 C1927 1.524 1_565 S
C1929 C1926 1.403 . S
C1929 C1930 1.392 . S
C1929 C1933 1.495 . S
C1930 C1929 1.392 . S
C1930 C1931 1.385 . S
C1930 C1932 1.478 . S
C1931 H1925 0.930 . S
C1931 C1927 1.400 . S
C1931 C1930 1.385 . S
C1932 C1930 1.478 . S
C1932 C1934 1.381 . S
C1932 C1938 1.383 . S
C1933 C1929 1.495 . S
C1933 H1939 0.959 . S
C1933 H1940 0.961 . S
C1933 H1941 0.960 . S
C1934 C1932 1.381 . S
C1934 C1935 1.394 . S
C1934 H1942 0.930 . S
C1935 C1934 1.394 . S
C1935 C1936 1.383 . S
C1935 H1943 0.929 . S
C1936 C1935 1.383 . S
C1936 C1937 1.377 . S
C1937 H1921 0.930 . S
C1937 C1936 1.377 . S
C1937 C1938 1.379 . S
C1938 H1922 0.931 . S
C1938 C1932 1.383 . S
C1938 C1937 1.379 . S
H1939 C1933 0.959 . S
H1940 C1933 0.961 . S
H1941 C1933 0.960 . S
H1942 C1934 0.930 . S
H1943 C1935 0.929 . S
H1944 C1952 0.929 . S
H1945 C1954 0.930 1_655 S
H1946 C1956 0.930 . S
H1947 C1959 0.929 . S
H1948 C1962 0.930 . S
H1949 C1964 0.960 . S
H1950 C1964 0.960 . S
H1951 C1964 0.960 . S
C1952 H1944 0.929 . S
C1952 C1953 1.377 . S
C1952 C1954 1.384 . S
C1953 C1952 1.377 . S
C1953 C1959 1.390 . S
C1954 H1945 0.930 1_455 S
C1954 C1952 1.384 . S
C1954 C1955 1.372 . S
C1955 C1954 1.372 . S
C1955 C1956 1.400 . S
C1955 C1960 1.490 1_455 S
C1956 H1946 0.930 . S
C1956 C1955 1.400 . S
C1956 C1959 1.386 . S
H1957 C1973 0.930 . S
H1958 C1974 0.931 . S
C1959 H1947 0.929 . S
C1959 C1953 1.390 . S
C1959 C1956 1.386 . S
C1960 C1955 1.490 1_655 S
C1960 C1962 1.395 . S
C1960 C1963 1.403 . S
H1961 C1967 0.930 . S
C1962 H1948 0.930 . S
C1962 C1960 1.395 . S
C1962 C1965 1.403 . S
C1963 C1960 1.403 . S
C1963 C1964 1.524 . S
C1963 C1967 1.400 . S
C1964 H1949 0.960 . S
C1964 H1950 0.960 . S
C1964 H1951 0.960 . S
C1964 C1963 1.524 . S
C1965 C1962 1.403 . S
C1965 C1966 1.392 . S
C1965 C1969 1.495 . S
C1966 C1965 1.392 . S
C1966 C1967 1.385 . S
C1966 C1968 1.478 . S
C1967 H1961 0.930 . S
C1967 C1963 1.400 . S
C1967 C1966 1.385 . S
C1968 C1966 1.478 . S
C1968 C1970 1.381 . S
C1968 C1974 1.383 . S
C1969 C1965 1.495 . S
C1969 H1975 0.959 . S
C1969 H1976 0.961 . S
C1969 H1977 0.960 . S
C1970 C1968 1.381 . S
C1970 C1971 1.394 . S
C1970 H1978 0.930 . S
C1971 C1970 1.394 . S
C1971 C1972 1.383 . S
C1971 H1979 0.929 . S
C1972 C1971 1.383 . S
C1972 C1973 1.377 . S
C1973 H1957 0.930 . S
C1973 C1972 1.377 . S
C1973 C1974 1.379 . S
C1974 H1958 0.931 . S
C1974 C1968 1.383 . S
C1974 C1973 1.379 . S
H1975 C1969 0.959 . S
H1976 C1969 0.961 . S
H1977 C1969 0.960 . S
H1978 C1970 0.930 . S
H1979 C1971 0.929 . S
H1980 C1988 0.929 . S
H1981 C1990 0.930 . S
H1982 C1992 0.930 . S
H1983 C1995 0.929 . S
H1984 C1998 0.930 . S
H1985 C2000 0.960 . S
H1986 C2000 0.960 . S
H1987 C2000 0.960 . S
C1988 H1980 0.929 . S
C1988 C1989 1.377 . S
C1988 C1990 1.384 . S
C1989 C1988 1.377 . S
C1989 C1995 1.390 . S
C1990 H1981 0.930 . S
C1990 C1988 1.384 . S
C1990 C1991 1.372 . S
C1991 C1990 1.372 . S
C1991 C1992 1.400 . S
C1991 C1996 1.490 . S
C1992 H1982 0.930 . S
C1992 C1991 1.400 . S
C1992 C1995 1.386 . S
H1993 C2009 0.930 . S
H1994 C2010 0.931 . S
C1995 H1983 0.929 . S
C1995 C1989 1.390 . S
C1995 C1992 1.386 . S
C1996 C1991 1.490 . S
C1996 C1998 1.395 . S
C1996 C1999 1.403 . S
H1997 C2003 0.930 . S
C1998 H1984 0.930 . S
C1998 C1996 1.395 . S
C1998 C2001 1.403 . S
C1999 C1996 1.403 . S
C1999 C2000 1.524 . S
C1999 C2003 1.400 . S
C2000 H1985 0.960 . S
C2000 H1986 0.960 . S
C2000 H1987 0.960 . S
C2000 C1999 1.524 . S
C2001 C1998 1.403 . S
C2001 C2002 1.392 . S
C2001 C2005 1.495 . S
C2002 C2001 1.392 . S
C2002 C2003 1.385 . S
C2002 C2004 1.478 . S
C2003 H1997 0.930 . S
C2003 C1999 1.400 . S
C2003 C2002 1.385 . S
C2004 C2002 1.478 . S
C2004 C2006 1.381 . S
C2004 C2010 1.383 . S
C2005 C2001 1.495 . S
C2005 H2011 0.959 . S
C2005 H2012 0.961 . S
C2005 H2013 0.960 . S
C2006 C2004 1.381 . S
C2006 C2007 1.394 . S
C2006 H2014 0.930 . S
C2007 C2006 1.394 . S
C2007 C2008 1.383 . S
C2007 H2015 0.929 . S
C2008 C2007 1.383 . S
C2008 C2009 1.377 . S
C2009 H1993 0.930 . S
C2009 C2008 1.377 . S
C2009 C2010 1.379 . S
C2010 H1994 0.931 . S
C2010 C2004 1.383 . S
C2010 C2009 1.379 . S
H2011 C2005 0.959 . S
H2012 C2005 0.961 . S
H2013 C2005 0.960 . S
H2014 C2006 0.930 . S
H2015 C2007 0.929 . S
H2016 C2024 0.929 . S
H2017 C2026 0.930 . S
H2018 C2028 0.930 . S
H2019 C2031 0.929 . S
H2020 C2034 0.930 . S
H2021 C2036 0.951 1_655 S
H2022 C2036 0.960 . S
H2023 C2036 0.960 . S
C2024 H2016 0.929 . S
C2024 C2025 1.377 . S
C2024 C2026 1.384 . S
C2025 C2024 1.377 . S
C2025 C2031 1.390 . S
C2026 H2017 0.930 . S
C2026 C2024 1.384 . S
C2026 C2027 1.372 . S
C2027 C2026 1.372 . S
C2027 C2028 1.400 . S
C2027 C2032 1.490 1_455 S
C2028 H2018 0.930 . S
C2028 C2027 1.400 . S
C2028 C2031 1.386 . S
H2029 C2045 0.930 . S
H2030 C2046 0.931 . S
C2031 H2019 0.929 . S
C2031 C2025 1.390 . S
C2031 C2028 1.386 . S
C2032 C2027 1.490 1_655 S
C2032 C2034 1.395 . S
C2032 C2035 1.403 . S
H2033 C2039 0.930 . S
C2034 H2020 0.930 . S
C2034 C2032 1.395 . S
C2034 C2037 1.403 . S
C2035 C2032 1.403 . S
C2035 C2036 1.524 1_655 S
C2035 C2039 1.400 . S
C2036 H2021 0.951 1_455 S
C2036 H2022 0.960 . S
C2036 H2023 0.960 . S
C2036 C2035 1.524 1_455 S
C2037 C2034 1.403 . S
C2037 C2038 1.392 . S
C2037 C2041 1.495 . S
C2038 C2037 1.392 . S
C2038 C2039 1.385 . S
C2038 C2040 1.478 . S
C2039 H2033 0.930 . S
C2039 C2035 1.400 . S
C2039 C2038 1.385 . S
C2040 C2038 1.478 . S
C2040 C2042 1.381 . S
C2040 C2046 1.383 . S
C2041 C2037 1.495 . S
C2041 H2047 0.959 . S
C2041 H2048 0.961 . S
C2041 H2049 0.960 . S
C2042 C2040 1.381 . S
C2042 C2043 1.394 . S
C2042 H2050 0.930 . S
C2043 C2042 1.394 . S
C2043 C2044 1.383 . S
C2043 H2051 0.929 . S
C2044 C2043 1.383 . S
C2044 C2045 1.377 . S
C2045 H2029 0.930 . S
C2045 C2044 1.377 . S
C2045 C2046 1.379 . S
C2046 H2030 0.931 . S
C2046 C2040 1.383 . S
C2046 C2045 1.379 . S
H2047 C2041 0.959 . S
H2048 C2041 0.961 . S
H2049 C2041 0.960 . S
H2050 C2042 0.930 . S
H2051 C2043 0.929 . S
H2052 C2060 0.929 . S
H2053 C2062 0.930 . S
H2054 C2064 0.930 . S
H2055 C2067 0.929 . S
H2056 C2070 0.930 . S
H2057 C2072 0.960 . S
H2058 C2072 0.960 . S
H2059 C2072 0.960 . S
C2060 H2052 0.929 . S
C2060 C2061 1.377 . S
C2060 C2062 1.384 . S
C2061 C2060 1.377 . S
C2061 C2067 1.390 . S
C2062 H2053 0.930 . S
C2062 C2060 1.384 . S
C2062 C2063 1.372 . S
C2063 C2062 1.372 . S
C2063 C2064 1.400 . S
C2063 C2068 1.490 . S
C2064 H2054 0.930 . S
C2064 C2063 1.400 . S
C2064 C2067 1.386 . S
H2065 C2081 0.930 . S
H2066 C2082 0.931 . S
C2067 H2055 0.929 . S
C2067 C2061 1.390 . S
C2067 C2064 1.386 . S
C2068 C2063 1.490 . S
C2068 C2070 1.395 . S
C2068 C2071 1.403 . S
H2069 C2075 0.930 . S
C2070 H2056 0.930 . S
C2070 C2068 1.395 . S
C2070 C2073 1.403 . S
C2071 C2068 1.403 . S
C2071 C2072 1.524 . S
C2071 C2075 1.400 . S
C2072 H2057 0.960 . S
C2072 H2058 0.960 . S
C2072 H2059 0.960 . S
C2072 C2071 1.524 . S
C2073 C2070 1.403 . S
C2073 C2074 1.392 . S
C2073 C2077 1.495 . S
C2074 C2073 1.392 . S
C2074 C2075 1.385 . S
C2074 C2076 1.478 . S
C2075 H2069 0.930 . S
C2075 C2071 1.400 . S
C2075 C2074 1.385 . S
C2076 C2074 1.478 . S
C2076 C2078 1.381 . S
C2076 C2082 1.383 . S
C2077 C2073 1.495 . S
C2077 H2083 0.959 . S
C2077 H2084 0.961 . S
C2077 H2085 0.960 . S
C2078 C2076 1.381 . S
C2078 C2079 1.394 . S
C2078 H2086 0.930 . S
C2079 C2078 1.394 . S
C2079 C2080 1.383 . S
C2079 H2087 0.929 . S
C2080 C2079 1.383 . S
C2080 C2081 1.377 . S
C2081 H2065 0.930 . S
C2081 C2080 1.377 . S
C2081 C2082 1.379 . S
C2082 H2066 0.931 . S
C2082 C2076 1.383 . S
C2082 C2081 1.379 . S
H2083 C2077 0.959 . S
H2084 C2077 0.961 . S
H2085 C2077 0.960 . S
H2086 C2078 0.930 . S
H2087 C2079 0.929 . S
H2088 C2096 0.929 . S
H2089 C2098 0.930 . S
H2090 C2100 0.930 . S
H2091 C2103 0.929 . S
H2092 C2106 0.930 1_565 S
H2093 C2108 0.960 1_545 S
H2094 C2108 0.960 . S
H2095 C2108 0.960 . S
C2096 H2088 0.929 . S
C2096 C2097 1.377 . S
C2096 C2098 1.384 . S
C2097 C2096 1.377 . S
C2097 C2103 1.390 . S
C2098 H2089 0.930 . S
C2098 C2096 1.384 . S
C2098 C2099 1.372 . S
C2099 C2098 1.372 . S
C2099 C2100 1.400 . S
C2099 C2104 1.490 . S
C2100 H2090 0.930 . S
C2100 C2099 1.400 . S
C2100 C2103 1.386 . S
H2101 C2117 0.930 . S
H2102 C2118 0.931 . S
C2103 H2091 0.929 . S
C2103 C2097 1.390 . S
C2103 C2100 1.386 . S
C2104 C2099 1.490 . S
C2104 C2106 1.395 1_565 S
C2104 C2107 1.403 1_565 S
H2105 C2111 0.930 . S
C2106 H2092 0.930 1_545 S
C2106 C2104 1.395 1_545 S
C2106 C2109 1.403 . S
C2107 C2104 1.403 1_545 S
C2107 C2108 1.524 1_545 S
C2107 C2111 1.400 . S
C2108 H2093 0.960 1_565 S
C2108 H2094 0.960 . S
C2108 H2095 0.960 . S
C2108 C2107 1.524 1_565 S
C2109 C2106 1.403 . S
C2109 C2110 1.392 . S
C2109 C2113 1.495 . S
C2110 C2109 1.392 . S
C2110 C2111 1.385 . S
C2110 C2112 1.478 . S
C2111 H2105 0.930 . S
C2111 C2107 1.400 . S
C2111 C2110 1.385 . S
C2112 C2110 1.478 . S
C2112 C2114 1.381 . S
C2112 C2118 1.383 . S
C2113 C2109 1.495 . S
C2113 H2119 0.959 . S
C2113 H2120 0.961 . S
C2113 H2121 0.960 . S
C2114 C2112 1.381 . S
C2114 C2115 1.394 . S
C2114 H2122 0.930 . S
C2115 C2114 1.394 . S
C2115 C2116 1.383 . S
C2115 H2123 0.929 . S
C2116 C2115 1.383 . S
C2116 C2117 1.377 . S
C2117 H2101 0.930 . S
C2117 C2116 1.377 . S
C2117 C2118 1.379 . S
C2118 H2102 0.931 . S
C2118 C2112 1.383 . S
C2118 C2117 1.379 . S
H2119 C2113 0.959 . S
H2120 C2113 0.961 . S
H2121 C2113 0.960 . S
H2122 C2114 0.930 . S
H2123 C2115 0.929 . S
H2124 C2132 0.929 . S
H2125 C2134 0.930 . S
H2126 C2136 0.930 . S
H2127 C2139 0.929 . S
H2128 C2142 0.930 . S
H2129 C2144 0.960 . S
H2130 C2144 0.960 . S
H2131 C2144 0.960 . S
C2132 H2124 0.929 . S
C2132 C2133 1.377 . S
C2132 C2134 1.384 . S
C2133 C2132 1.377 . S
C2133 C2139 1.390 . S
C2134 H2125 0.930 . S
C2134 C2132 1.384 . S
C2134 C2135 1.372 . S
C2135 C2134 1.372 . S
C2135 C2136 1.400 . S
C2135 C2140 1.490 . S
C2136 H2126 0.930 . S
C2136 C2135 1.400 . S
C2136 C2139 1.386 . S
H2137 C2153 0.930 . S
H2138 C2154 0.931 . S
C2139 H2127 0.929 . S
C2139 C2133 1.390 . S
C2139 C2136 1.386 . S
C2140 C2135 1.490 . S
C2140 C2142 1.395 . S
C2140 C2143 1.403 . S
H2141 C2147 0.930 . S
C2142 H2128 0.930 . S
C2142 C2140 1.395 . S
C2142 C2145 1.403 . S
C2143 C2140 1.403 . S
C2143 C2144 1.524 . S
C2143 C2147 1.400 . S
C2144 H2129 0.960 . S
C2144 H2130 0.960 . S
C2144 H2131 0.960 . S
C2144 C2143 1.524 . S
C2145 C2142 1.403 . S
C2145 C2146 1.392 . S
C2145 C2149 1.495 . S
C2146 C2145 1.392 . S
C2146 C2147 1.385 . S
C2146 C2148 1.478 . S
C2147 H2141 0.930 . S
C2147 C2143 1.400 . S
C2147 C2146 1.385 . S
C2148 C2146 1.478 . S
C2148 C2150 1.381 . S
C2148 C2154 1.383 . S
C2149 C2145 1.495 . S
C2149 H2155 0.959 . S
C2149 H2156 0.961 . S
C2149 H2157 0.960 . S
C2150 C2148 1.381 . S
C2150 C2151 1.394 . S
C2150 H2158 0.930 . S
C2151 C2150 1.394 . S
C2151 C2152 1.383 . S
C2151 H2159 0.929 . S
C2152 C2151 1.383 . S
C2152 C2153 1.377 . S
C2153 H2137 0.930 . S
C2153 C2152 1.377 . S
C2153 C2154 1.379 . S
C2154 H2138 0.931 . S
C2154 C2148 1.383 . S
C2154 C2153 1.379 . S
H2155 C2149 0.959 . S
H2156 C2149 0.961 . S
H2157 C2149 0.960 . S
H2158 C2150 0.930 . S
H2159 C2151 0.929 . S
H2160 C2168 0.929 . S
H2161 C2170 0.930 . S
H2162 C2172 0.930 . S
H2163 C2175 0.929 . S
H2164 C2178 0.930 . S
H2165 C2180 0.960 . S
H2166 C2180 0.960 . S
H2167 C2180 0.960 . S
C2168 H2160 0.929 . S
C2168 C2169 1.377 . S
C2168 C2170 1.384 . S
C2169 C2168 1.377 . S
C2169 C2175 1.390 . S
C2170 H2161 0.930 . S
C2170 C2168 1.384 . S
C2170 C2171 1.372 . S
C2171 C2170 1.372 . S
C2171 C2172 1.400 . S
C2171 C2176 1.490 . S
C2172 H2162 0.930 . S
C2172 C2171 1.400 . S
C2172 C2175 1.386 . S
H2173 C2189 0.930 . S
H2174 C2190 0.931 . S
C2175 H2163 0.929 . S
C2175 C2169 1.390 . S
C2175 C2172 1.386 . S
C2176 C2171 1.490 . S
C2176 C2178 1.395 . S
C2176 C2179 1.403 . S
H2177 C2183 0.930 . S
C2178 H2164 0.930 . S
C2178 C2176 1.395 . S
C2178 C2181 1.403 . S
C2179 C2176 1.403 . S
C2179 C2180 1.524 . S
C2179 C2183 1.400 . S
C2180 H2165 0.960 . S
C2180 H2166 0.960 . S
C2180 H2167 0.960 . S
C2180 C2179 1.524 . S
C2181 C2178 1.403 . S
C2181 C2182 1.392 . S
C2181 C2185 1.495 . S
C2182 C2181 1.392 . S
C2182 C2183 1.385 . S
C2182 C2184 1.478 . S
C2183 H2177 0.930 . S
C2183 C2179 1.400 . S
C2183 C2182 1.385 . S
C2184 C2182 1.478 . S
C2184 C2186 1.381 . S
C2184 C2190 1.383 . S
C2185 C2181 1.495 . S
C2185 H2191 0.959 . S
C2185 H2192 0.961 . S
C2185 H2193 0.960 . S
C2186 C2184 1.381 . S
C2186 C2187 1.394 . S
C2186 H2194 0.930 . S
C2187 C2186 1.394 . S
C2187 C2188 1.383 . S
C2187 H2195 0.929 . S
C2188 C2187 1.383 . S
C2188 C2189 1.377 . S
C2189 H2173 0.930 . S
C2189 C2188 1.377 . S
C2189 C2190 1.379 . S
C2190 H2174 0.931 . S
C2190 C2184 1.383 . S
C2190 C2189 1.379 . S
H2191 C2185 0.959 . S
H2192 C2185 0.961 . S
H2193 C2185 0.960 . S
H2194 C2186 0.930 . S
H2195 C2187 0.929 . S
H2196 C2204 0.929 . S
H2197 C2206 0.930 . S
H2198 C2208 0.930 . S
H2199 C2211 0.929 . S
H2200 C2214 0.930 . S
H2201 C2216 0.960 . S
H2202 C2216 0.960 . S
H2203 C2216 0.960 . S
C2204 H2196 0.929 . S
C2204 C2205 1.377 . S
C2204 C2206 1.384 . S
C2205 C2204 1.377 . S
C2205 C2211 1.390 . S
C2206 H2197 0.930 . S
C2206 C2204 1.384 . S
C2206 C2207 1.372 . S
C2207 C2206 1.372 . S
C2207 C2208 1.400 . S
C2207 C2212 1.490 . S
C2208 H2198 0.930 . S
C2208 C2207 1.400 . S
C2208 C2211 1.386 . S
H2209 C2225 0.930 . S
H2210 C2226 0.931 . S
C2211 H2199 0.929 . S
C2211 C2205 1.390 . S
C2211 C2208 1.386 . S
C2212 C2207 1.490 . S
C2212 C2214 1.395 . S
C2212 C2215 1.403 . S
H2213 C2219 0.930 . S
C2214 H2200 0.930 . S
C2214 C2212 1.395 . S
C2214 C2217 1.403 . S
C2215 C2212 1.403 . S
C2215 C2216 1.524 . S
C2215 C2219 1.400 . S
C2216 H2201 0.960 . S
C2216 H2202 0.960 . S
C2216 H2203 0.960 . S
C2216 C2215 1.524 . S
C2217 C2214 1.403 . S
C2217 C2218 1.392 . S
C2217 C2221 1.495 . S
C2218 C2217 1.392 . S
C2218 C2219 1.385 . S
C2218 C2220 1.478 . S
C2219 H2213 0.930 . S
C2219 C2215 1.400 . S
C2219 C2218 1.385 . S
C2220 C2218 1.478 . S
C2220 C2222 1.381 . S
C2220 C2226 1.383 . S
C2221 C2217 1.495 . S
C2221 H2227 0.959 . S
C2221 H2228 0.961 . S
C2221 H2229 0.960 . S
C2222 C2220 1.381 . S
C2222 C2223 1.394 . S
C2222 H2230 0.930 . S
C2223 C2222 1.394 . S
C2223 C2224 1.383 . S
C2223 H2231 0.929 . S
C2224 C2223 1.383 . S
C2224 C2225 1.377 . S
C2225 H2209 0.930 . S
C2225 C2224 1.377 . S
C2225 C2226 1.379 . S
C2226 H2210 0.931 . S
C2226 C2220 1.383 . S
C2226 C2225 1.379 . S
H2227 C2221 0.959 . S
H2228 C2221 0.961 . S
H2229 C2221 0.960 . S
H2230 C2222 0.930 . S
H2231 C2223 0.929 . S
H2232 C2240 0.929 . S
H2233 C2242 0.930 . S
H2234 C2244 0.930 . S
H2235 C2247 0.929 . S
H2236 C2250 0.930 . S
H2237 C2252 0.960 1_545 S
H2238 C2252 0.960 . S
H2239 C2252 0.960 1_545 S
C2240 H2232 0.929 . S
C2240 C2241 1.377 . S
C2240 C2242 1.384 . S
C2241 C2240 1.377 . S
C2241 C2247 1.390 . S
C2242 H2233 0.930 . S
C2242 C2240 1.384 . S
C2242 C2243 1.372 . S
C2243 C2242 1.372 . S
C2243 C2244 1.400 . S
C2243 C2248 1.490 . S
C2244 H2234 0.930 . S
C2244 C2243 1.400 . S
C2244 C2247 1.386 . S
H2245 C2261 0.971 . S
H2246 C2262 0.931 1_545 S
C2247 H2235 0.929 . S
C2247 C2241 1.390 . S
C2247 C2244 1.386 . S
C2248 C2243 1.490 . S
C2248 C2250 1.395 . S
C2248 C2251 1.403 . S
H2249 C2255 0.930 . S
C2250 H2236 0.930 . S
C2250 C2248 1.395 . S
C2250 C2253 1.403 . S
C2251 C2248 1.403 . S
C2251 C2252 1.524 . S
C2251 C2255 1.400 . S
C2252 H2237 0.960 1_565 S
C2252 H2238 0.960 . S
C2252 H2239 0.960 1_565 S
C2252 C2251 1.524 . S
C2253 C2250 1.403 . S
C2253 C2254 1.392 . S
C2253 C2257 1.495 . S
C2254 C2253 1.392 . S
C2254 C2255 1.385 . S
C2254 C2256 1.478 . S
C2255 H2249 0.930 . S
C2255 C2251 1.400 . S
C2255 C2254 1.385 . S
C2256 C2254 1.478 . S
C2256 C2258 1.381 . S
C2256 C2262 1.383 . S
C2257 C2253 1.495 . S
C2257 H2263 0.959 . S
C2257 H2264 0.961 . S
C2257 H2265 0.960 . S
C2258 C2256 1.381 . S
C2258 C2259 1.394 . S
C2258 H2266 0.930 . S
C2259 C2258 1.394 . S
C2259 C2260 1.383 . S
C2259 H2267 0.929 . S
C2260 C2259 1.383 . S
C2260 C2261 1.349 1_565 S
C2261 H2245 0.971 . S
C2261 C2260 1.349 1_545 S
C2261 C2262 1.368 1_545 S
C2262 H2246 0.931 1_565 S
C2262 C2256 1.383 . S
C2262 C2261 1.368 1_565 S
H2263 C2257 0.959 . S
H2264 C2257 0.961 . S
H2265 C2257 0.960 . S
H2266 C2258 0.930 . S
H2267 C2259 0.929 . S
H2268 C2276 0.929 . S
H2269 C2278 0.930 . S
H2270 C2280 0.930 1_655 S
H2271 C2283 0.929 1_655 S
H2272 C2286 0.930 . S
H2273 C2288 0.960 . S
H2274 C2288 0.960 . S
H2275 C2288 0.960 . S
C2276 H2268 0.929 . S
C2276 C2277 1.377 . S
C2276 C2278 1.384 . S
C2277 C2276 1.377 . S
C2277 C2283 1.390 . S
C2278 H2269 0.930 . S
C2278 C2276 1.384 . S
C2278 C2279 1.372 . S
C2279 C2278 1.372 . S
C2279 C2280 1.400 . S
C2279 C2284 1.490 . S
C2280 H2270 0.930 1_455 S
C2280 C2279 1.400 . S
C2280 C2283 1.386 . S
H2281 C2297 0.919 1_655 S
H2282 C2298 0.931 1_655 S
C2283 H2271 0.929 1_455 S
C2283 C2277 1.390 . S
C2283 C2280 1.386 . S
C2284 C2279 1.490 . S
C2284 C2286 1.395 . S
C2284 C2287 1.403 . S
H2285 C2291 0.930 1_655 S
C2286 H2272 0.930 . S
C2286 C2284 1.395 . S
C2286 C2289 1.403 . S
C2287 C2284 1.403 . S
C2287 C2288 1.524 1_455 S
C2287 C2291 1.400 . S
C2288 H2273 0.960 . S
C2288 H2274 0.960 . S
C2288 H2275 0.960 . S
C2288 C2287 1.524 1_655 S
C2289 C2286 1.403 . S
C2289 C2290 1.392 . S
C2289 C2293 1.495 . S
C2290 C2289 1.392 . S
C2290 C2291 1.385 . S
C2290 C2292 1.478 . S
C2291 H2285 0.930 1_455 S
C2291 C2287 1.400 . S
C2291 C2290 1.385 . S
C2292 C2290 1.478 . S
C2292 C2294 1.381 . S
C2292 C2298 1.383 . S
C2293 C2289 1.495 . S
C2293 H2299 0.959 . S
C2293 H2300 0.961 . S
C2293 H2301 0.960 . S
C2294 C2292 1.381 . S
C2294 C2295 1.394 . S
C2294 H2302 0.930 . S
C2295 C2294 1.394 . S
C2295 C2296 1.383 . S
C2295 H2303 0.929 . S
C2296 C2295 1.383 . S
C2296 C2297 1.387 . S
C2297 H2281 0.919 1_455 S
C2297 C2296 1.387 . S
C2297 C2298 1.380 . S
C2298 H2282 0.931 1_455 S
C2298 C2292 1.383 . S
C2298 C2297 1.380 . S
H2299 C2293 0.959 . S
H2300 C2293 0.961 . S
H2301 C2293 0.960 . S
H2302 C2294 0.930 . S
H2303 C2295 0.929 . S
H2304 C2312 0.929 . S
H2305 C2314 0.930 . S
H2306 C2316 0.930 . S
H2307 C2319 0.929 . S
H2308 C2322 0.930 . S
H2309 C2324 0.960 . S
H2310 C2324 0.960 . S
H2311 C2324 0.960 . S
C2312 H2304 0.929 . S
C2312 C2313 1.377 . S
C2312 C2314 1.384 . S
C2313 C2312 1.377 . S
C2313 C2319 1.390 . S
C2314 H2305 0.930 . S
C2314 C2312 1.384 . S
C2314 C2315 1.372 . S
C2315 C2314 1.372 . S
C2315 C2316 1.400 . S
C2315 C2320 1.490 . S
C2316 H2306 0.930 . S
C2316 C2315 1.400 . S
C2316 C2319 1.386 . S
H2317 C2333 0.930 . S
H2318 C2334 0.931 . S
C2319 H2307 0.929 . S
C2319 C2313 1.390 . S
C2319 C2316 1.386 . S
C2320 C2315 1.490 . S
C2320 C2322 1.395 . S
C2320 C2323 1.403 . S
H2321 C2327 0.930 . S
C2322 H2308 0.930 . S
C2322 C2320 1.395 . S
C2322 C2325 1.403 . S
C2323 C2320 1.403 . S
C2323 C2324 1.524 . S
C2323 C2327 1.400 . S
C2324 H2309 0.960 . S
C2324 H2310 0.960 . S
C2324 H2311 0.960 . S
C2324 C2323 1.524 . S
C2325 C2322 1.403 . S
C2325 C2326 1.392 . S
C2325 C2329 1.495 . S
C2326 C2325 1.392 . S
C2326 C2327 1.385 . S
C2326 C2328 1.478 . S
C2327 H2321 0.930 . S
C2327 C2323 1.400 . S
C2327 C2326 1.385 . S
C2328 C2326 1.478 . S
C2328 C2330 1.381 . S
C2328 C2334 1.383 . S
C2329 C2325 1.495 . S
C2329 H2335 0.959 . S
C2329 H2336 0.961 . S
C2329 H2337 0.960 . S
C2330 C2328 1.381 . S
C2330 C2331 1.394 . S
C2330 H2338 0.930 . S
C2331 C2330 1.394 . S
C2331 C2332 1.383 . S
C2331 H2339 0.929 . S
C2332 C2331 1.383 . S
C2332 C2333 1.377 . S
C2333 H2317 0.930 . S
C2333 C2332 1.377 . S
C2333 C2334 1.379 . S
C2334 H2318 0.931 . S
C2334 C2328 1.383 . S
C2334 C2333 1.379 . S
H2335 C2329 0.959 . S
H2336 C2329 0.961 . S
H2337 C2329 0.960 . S
H2338 C2330 0.930 . S
H2339 C2331 0.929 . S
H2340 C2348 0.915 1_455 S
H2341 C2350 0.970 . S
H2342 C2352 0.930 . S
H2343 C2355 0.929 . S
H2344 C2358 0.930 1_455 S
H2345 C2360 0.960 . S
H2346 C2360 0.960 . S
H2347 C2360 0.960 . S
C2348 H2340 0.915 1_655 S
C2348 C2349 1.391 . S
C2348 C2350 1.387 1_655 S
C2349 C2348 1.391 . S
C2349 C2355 1.390 . S
C2350 H2341 0.970 . S
C2350 C2348 1.387 1_455 S
C2350 C2351 1.332 1_455 S
C2351 C2350 1.332 1_655 S
C2351 C2352 1.400 . S
C2351 C2356 1.490 . S
C2352 H2342 0.930 . S
C2352 C2351 1.400 . S
C2352 C2355 1.386 . S
H2353 C2369 0.930 . S
H2354 C2370 0.931 . S
C2355 H2343 0.929 . S
C2355 C2349 1.390 . S
C2355 C2352 1.386 . S
C2356 C2351 1.490 . S
C2356 C2358 1.395 . S
C2356 C2359 1.403 . S
H2357 C2363 0.930 . S
C2358 H2344 0.930 1_655 S
C2358 C2356 1.395 . S
C2358 C2361 1.404 . S
C2359 C2356 1.403 . S
C2359 C2360 1.524 . S
C2359 C2363 1.400 . S
C2360 H2345 0.960 . S
C2360 H2346 0.960 . S
C2360 H2347 0.960 . S
C2360 C2359 1.524 . S
C2361 C2358 1.404 . S
C2361 C2362 1.391 . S
C2361 C2365 1.496 1_655 S
C2362 C2361 1.391 . S
C2362 C2363 1.385 . S
C2362 C2364 1.478 . S
C2363 H2357 0.930 . S
C2363 C2359 1.400 . S
C2363 C2362 1.385 . S
C2364 C2362 1.478 . S
C2364 C2366 1.381 1_655 S
C2364 C2370 1.383 . S
C2365 C2361 1.496 1_455 S
C2365 H2371 0.959 . S
C2365 H2372 0.961 . S
C2365 H2373 0.960 . S
C2366 C2364 1.381 1_455 S
C2366 C2367 1.394 . S
C2366 H2374 0.930 . S
C2367 C2366 1.394 . S
C2367 C2368 1.383 1_455 S
C2367 H2375 0.929 . S
C2368 C2367 1.383 1_655 S
C2368 C2369 1.377 . S
C2369 H2353 0.930 . S
C2369 C2368 1.377 . S
C2369 C2370 1.379 . S
C2370 H2354 0.931 . S
C2370 C2364 1.383 . S
C2370 C2369 1.379 . S
H2371 C2365 0.959 . S
H2372 C2365 0.961 . S
H2373 C2365 0.960 . S
H2374 C2366 0.930 . S
H2375 C2367 0.929 . S
H2376 C2384 0.929 . S
H2377 C2386 0.930 . S
H2378 C2388 0.930 . S
H2379 C2391 0.929 . S
H2380 C2394 0.930 . S
H2381 C2396 0.960 . S
H2382 C2396 0.960 . S
H2383 C2396 0.960 . S
C2384 H2376 0.929 . S
C2384 C2385 1.377 . S
C2384 C2386 1.384 . S
C2385 C2384 1.377 . S
C2385 C2391 1.390 . S
C2386 H2377 0.930 . S
C2386 C2384 1.384 . S
C2386 C2387 1.372 . S
C2387 C2386 1.372 . S
C2387 C2388 1.400 . S
C2387 C2392 1.490 . S
C2388 H2378 0.930 . S
C2388 C2387 1.400 . S
C2388 C2391 1.386 . S
H2389 C2405 0.930 . S
H2390 C2406 0.931 . S
C2391 H2379 0.929 . S
C2391 C2385 1.390 . S
C2391 C2388 1.386 . S
C2392 C2387 1.490 . S
C2392 C2394 1.395 . S
C2392 C2395 1.403 . S
H2393 C2399 0.930 . S
C2394 H2380 0.930 . S
C2394 C2392 1.395 . S
C2394 C2397 1.403 . S
C2395 C2392 1.403 . S
C2395 C2396 1.524 . S
C2395 C2399 1.400 . S
C2396 H2381 0.960 . S
C2396 H2382 0.960 . S
C2396 H2383 0.960 . S
C2396 C2395 1.524 . S
C2397 C2394 1.403 . S
C2397 C2398 1.392 . S
C2397 C2401 1.495 . S
C2398 C2397 1.392 . S
C2398 C2399 1.385 . S
C2398 C2400 1.478 . S
C2399 H2393 0.930 . S
C2399 C2395 1.400 . S
C2399 C2398 1.385 . S
C2400 C2398 1.478 . S
C2400 C2402 1.381 . S
C2400 C2406 1.383 . S
C2401 C2397 1.495 . S
C2401 H2407 0.959 . S
C2401 H2408 0.961 . S
C2401 H2409 0.960 . S
C2402 C2400 1.381 . S
C2402 C2403 1.394 . S
C2402 H2410 0.930 . S
C2403 C2402 1.394 . S
C2403 C2404 1.383 . S
C2403 H2411 0.929 . S
C2404 C2403 1.383 . S
C2404 C2405 1.377 . S
C2405 H2389 0.930 . S
C2405 C2404 1.377 . S
C2405 C2406 1.379 . S
C2406 H2390 0.931 . S
C2406 C2400 1.383 . S
C2406 C2405 1.379 . S
H2407 C2401 0.959 . S
H2408 C2401 0.961 . S
H2409 C2401 0.960 . S
H2410 C2402 0.930 . S
H2411 C2403 0.929 . S
H2412 C2420 0.929 . S
H2413 C2422 0.930 . S
H2414 C2424 0.930 . S
H2415 C2427 0.929 . S
H2416 C2430 0.930 . S
H2417 C2432 0.960 . S
H2418 C2432 0.955 . S
H2419 C2432 0.960 . S
C2420 H2412 0.929 . S
C2420 C2421 1.377 . S
C2420 C2422 1.384 . S
C2421 C2420 1.377 . S
C2421 C2427 1.390 . S
C2422 H2413 0.930 . S
C2422 C2420 1.384 . S
C2422 C2423 1.372 . S
C2423 C2422 1.372 . S
C2423 C2424 1.400 . S
C2423 C2428 1.490 . S
C2424 H2414 0.930 . S
C2424 C2423 1.400 . S
C2424 C2427 1.386 . S
H2425 C2441 0.930 1_565 S
H2426 C2442 0.931 . S
C2427 H2415 0.929 . S
C2427 C2421 1.390 . S
C2427 C2424 1.386 . S
C2428 C2423 1.490 . S
C2428 C2430 1.395 . S
C2428 C2431 1.403 . S
H2429 C2435 0.882 1_565 S
C2430 H2416 0.930 . S
C2430 C2428 1.395 . S
C2430 C2433 1.403 . S
C2431 C2428 1.403 . S
C2431 C2432 1.524 1_545 S
C2431 C2435 1.400 . S
C2432 H2417 0.960 . S
C2432 H2418 0.955 . S
C2432 H2419 0.960 . S
C2432 C2431 1.524 1_565 S
C2433 C2430 1.403 . S
C2433 C2434 1.392 . S
C2433 C2437 1.495 . S
C2434 C2433 1.392 . S
C2434 C2435 1.385 . S
C2434 C2436 1.478 . S
C2435 H2429 0.882 1_545 S
C2435 C2431 1.400 . S
C2435 C2434 1.385 . S
C2436 C2434 1.478 . S
C2436 C2438 1.381 . S
C2436 C2442 1.383 . S
C2437 C2433 1.495 . S
C2437 H2443 0.959 . S
C2437 H2444 0.961 . S
C2437 H2445 0.960 . S
C2438 C2436 1.381 . S
C2438 C2439 1.394 . S
C2438 H2446 0.930 . S
C2439 C2438 1.394 . S
C2439 C2440 1.383 . S
C2439 H2447 0.929 . S
C2440 C2439 1.383 . S
C2440 C2441 1.377 . S
C2441 H2425 0.930 1_545 S
C2441 C2440 1.377 . S
C2441 C2442 1.379 . S
C2442 H2426 0.931 . S
C2442 C2436 1.383 . S
C2442 C2441 1.379 . S
H2443 C2437 0.959 . S
H2444 C2437 0.961 . S
H2445 C2437 0.960 . S
H2446 C2438 0.930 . S
H2447 C2439 0.929 . S
H2448 C2456 0.929 . S
H2449 C2458 0.930 . S
H2450 C2460 0.930 . S
H2451 C2463 0.929 . S
H2452 C2466 0.930 . S
H2453 C2468 0.960 . S
H2454 C2468 0.960 . S
H2455 C2468 0.960 . S
C2456 H2448 0.929 . S
C2456 C2457 1.377 . S
C2456 C2458 1.384 . S
C2457 C2456 1.377 . S
C2457 C2463 1.390 . S
C2458 H2449 0.930 . S
C2458 C2456 1.384 . S
C2458 C2459 1.372 . S
C2459 C2458 1.372 . S
C2459 C2460 1.400 . S
C2459 C2464 1.490 . S
C2460 H2450 0.930 . S
C2460 C2459 1.400 . S
C2460 C2463 1.386 . S
H2461 C2477 0.930 . S
H2462 C2478 0.931 . S
C2463 H2451 0.929 . S
C2463 C2457 1.390 . S
C2463 C2460 1.386 . S
C2464 C2459 1.490 . S
C2464 C2466 1.395 . S
C2464 C2467 1.403 . S
H2465 C2471 0.930 . S
C2466 H2452 0.930 . S
C2466 C2464 1.395 . S
C2466 C2469 1.403 . S
C2467 C2464 1.403 . S
C2467 C2468 1.524 . S
C2467 C2471 1.400 . S
C2468 H2453 0.960 . S
C2468 H2454 0.960 . S
C2468 H2455 0.960 . S
C2468 C2467 1.524 . S
C2469 C2466 1.403 . S
C2469 C2470 1.392 . S
C2469 C2473 1.495 . S
C2470 C2469 1.392 . S
C2470 C2471 1.385 . S
C2470 C2472 1.478 . S
C2471 H2465 0.930 . S
C2471 C2467 1.400 . S
C2471 C2470 1.385 . S
C2472 C2470 1.478 . S
C2472 C2474 1.381 . S
C2472 C2478 1.383 . S
C2473 C2469 1.495 . S
C2473 H2479 0.959 . S
C2473 H2480 0.961 . S
C2473 H2481 0.960 . S
C2474 C2472 1.381 . S
C2474 C2475 1.394 . S
C2474 H2482 0.930 . S
C2475 C2474 1.394 . S
C2475 C2476 1.383 . S
C2475 H2483 0.929 . S
C2476 C2475 1.383 . S
C2476 C2477 1.377 . S
C2477 H2461 0.930 . S
C2477 C2476 1.377 . S
C2477 C2478 1.379 . S
C2478 H2462 0.931 . S
C2478 C2472 1.383 . S
C2478 C2477 1.379 . S
H2479 C2473 0.959 . S
H2480 C2473 0.961 . S
H2481 C2473 0.960 . S
H2482 C2474 0.930 . S
H2483 C2475 0.929 . S
H2484 C2492 0.929 . S
H2485 C2494 0.930 . S
H2486 C2496 0.930 . S
H2487 C2499 0.929 . S
H2488 C2502 0.930 . S
H2489 C2504 0.960 . S
H2490 C2504 0.960 . S
H2491 C2504 0.960 . S
C2492 H2484 0.929 . S
C2492 C2493 1.377 . S
C2492 C2494 1.384 . S
C2493 C2492 1.377 . S
C2493 C2499 1.390 . S
C2494 H2485 0.930 . S
C2494 C2492 1.384 . S
C2494 C2495 1.372 . S
C2495 C2494 1.372 . S
C2495 C2496 1.400 . S
C2495 C2500 1.490 . S
C2496 H2486 0.930 . S
C2496 C2495 1.400 . S
C2496 C2499 1.386 . S
H2497 C2513 0.930 . S
H2498 C2514 0.931 . S
C2499 H2487 0.929 . S
C2499 C2493 1.390 . S
C2499 C2496 1.386 . S
C2500 C2495 1.490 . S
C2500 C2502 1.395 . S
C2500 C2503 1.403 . S
H2501 C2507 0.930 . S
C2502 H2488 0.930 . S
C2502 C2500 1.395 . S
C2502 C2505 1.403 . S
C2503 C2500 1.403 . S
C2503 C2504 1.524 . S
C2503 C2507 1.400 . S
C2504 H2489 0.960 . S
C2504 H2490 0.960 . S
C2504 H2491 0.960 . S
C2504 C2503 1.524 . S
C2505 C2502 1.403 . S
C2505 C2506 1.392 . S
C2505 C2509 1.495 . S
C2506 C2505 1.392 . S
C2506 C2507 1.385 . S
C2506 C2508 1.478 . S
C2507 H2501 0.930 . S
C2507 C2503 1.400 . S
C2507 C2506 1.385 . S
C2508 C2506 1.478 . S
C2508 C2510 1.381 . S
C2508 C2514 1.383 . S
C2509 C2505 1.495 . S
C2509 H2515 0.959 . S
C2509 H2516 0.961 . S
C2509 H2517 0.960 . S
C2510 C2508 1.381 . S
C2510 C2511 1.394 . S
C2510 H2518 0.930 . S
C2511 C2510 1.394 . S
C2511 C2512 1.383 . S
C2511 H2519 0.929 . S
C2512 C2511 1.383 . S
C2512 C2513 1.377 . S
C2513 H2497 0.930 . S
C2513 C2512 1.377 . S
C2513 C2514 1.379 . S
C2514 H2498 0.931 . S
C2514 C2508 1.383 . S
C2514 C2513 1.379 . S
H2515 C2509 0.959 . S
H2516 C2509 0.961 . S
H2517 C2509 0.960 . S
H2518 C2510 0.930 . S
H2519 C2511 0.929 . S
H2520 C2528 0.929 . S
H2521 C2530 0.930 . S
H2522 C2532 0.930 . S
H2523 C2535 0.929 . S
H2524 C2538 0.930 . S
H2525 C2540 0.960 . S
H2526 C2540 0.960 . S
H2527 C2540 0.960 . S
C2528 H2520 0.929 . S
C2528 C2529 1.377 . S
C2528 C2530 1.384 . S
C2529 C2528 1.377 . S
C2529 C2535 1.390 . S
C2530 H2521 0.930 . S
C2530 C2528 1.384 . S
C2530 C2531 1.372 . S
C2531 C2530 1.372 . S
C2531 C2532 1.400 . S
C2531 C2536 1.490 . S
C2532 H2522 0.930 . S
C2532 C2531 1.400 . S
C2532 C2535 1.386 . S
H2533 C2549 0.930 . S
H2534 C2550 0.931 . S
C2535 H2523 0.929 . S
C2535 C2529 1.390 . S
C2535 C2532 1.386 . S
C2536 C2531 1.490 . S
C2536 C2538 1.395 . S
C2536 C2539 1.403 . S
H2537 C2543 0.930 . S
C2538 H2524 0.930 . S
C2538 C2536 1.395 . S
C2538 C2541 1.403 . S
C2539 C2536 1.403 . S
C2539 C2540 1.524 . S
C2539 C2543 1.400 . S
C2540 H2525 0.960 . S
C2540 H2526 0.960 . S
C2540 H2527 0.960 . S
C2540 C2539 1.524 . S
C2541 C2538 1.403 . S
C2541 C2542 1.392 . S
C2541 C2545 1.495 . S
C2542 C2541 1.392 . S
C2542 C2543 1.385 . S
C2542 C2544 1.478 . S
C2543 H2537 0.930 . S
C2543 C2539 1.400 . S
C2543 C2542 1.385 . S
C2544 C2542 1.478 . S
C2544 C2546 1.381 . S
C2544 C2550 1.383 . S
C2545 C2541 1.495 . S
C2545 H2551 0.959 . S
C2545 H2552 0.961 . S
C2545 H2553 0.960 . S
C2546 C2544 1.381 . S
C2546 C2547 1.394 . S
C2546 H2554 0.930 . S
C2547 C2546 1.394 . S
C2547 C2548 1.383 . S
C2547 H2555 0.929 . S
C2548 C2547 1.383 . S
C2548 C2549 1.377 . S
C2549 H2533 0.930 . S
C2549 C2548 1.377 . S
C2549 C2550 1.379 . S
C2550 H2534 0.931 . S
C2550 C2544 1.383 . S
C2550 C2549 1.379 . S
H2551 C2545 0.959 . S
H2552 C2545 0.961 . S
H2553 C2545 0.960 . S
H2554 C2546 0.930 . S
H2555 C2547 0.929 . S
H2556 C2564 0.929 . S
H2557 C2566 0.930 . S
H2558 C2568 0.930 . S
H2559 C2571 0.929 . S
H2560 C2574 0.930 . S
H2561 C2576 0.960 . S
H2562 C2576 0.960 . S
H2563 C2576 0.960 . S
C2564 H2556 0.929 . S
C2564 C2565 1.377 . S
C2564 C2566 1.384 . S
C2565 C2564 1.377 . S
C2565 C2571 1.390 . S
C2566 H2557 0.930 . S
C2566 C2564 1.384 . S
C2566 C2567 1.372 . S
C2567 C2566 1.372 . S
C2567 C2568 1.400 . S
C2567 C2572 1.490 . S
C2568 H2558 0.930 . S
C2568 C2567 1.400 . S
C2568 C2571 1.386 . S
H2569 C2585 0.930 . S
H2570 C2586 0.931 . S
C2571 H2559 0.929 . S
C2571 C2565 1.390 . S
C2571 C2568 1.386 . S
C2572 C2567 1.490 . S
C2572 C2574 1.395 . S
C2572 C2575 1.403 . S
H2573 C2579 0.930 . S
C2574 H2560 0.930 . S
C2574 C2572 1.395 . S
C2574 C2577 1.403 . S
C2575 C2572 1.403 . S
C2575 C2576 1.524 . S
C2575 C2579 1.400 . S
C2576 H2561 0.960 . S
C2576 H2562 0.960 . S
C2576 H2563 0.960 . S
C2576 C2575 1.524 . S
C2577 C2574 1.403 . S
C2577 C2578 1.392 . S
C2577 C2581 1.495 . S
C2578 C2577 1.392 . S
C2578 C2579 1.385 . S
C2578 C2580 1.478 . S
C2579 H2573 0.930 . S
C2579 C2575 1.400 . S
C2579 C2578 1.385 . S
C2580 C2578 1.478 . S
C2580 C2582 1.381 . S
C2580 C2586 1.383 . S
C2581 C2577 1.495 . S
C2581 H2587 0.959 . S
C2581 H2588 0.961 . S
C2581 H2589 0.960 . S
C2582 C2580 1.381 . S
C2582 C2583 1.394 . S
C2582 H2590 0.930 . S
C2583 C2582 1.394 . S
C2583 C2584 1.383 . S
C2583 H2591 0.929 . S
C2584 C2583 1.383 . S
C2584 C2585 1.377 . S
C2585 H2569 0.930 . S
C2585 C2584 1.377 . S
C2585 C2586 1.379 . S
C2586 H2570 0.931 . S
C2586 C2580 1.383 . S
C2586 C2585 1.379 . S
H2587 C2581 0.959 . S
H2588 C2581 0.961 . S
H2589 C2581 0.960 . S
H2590 C2582 0.930 . S
H2591 C2583 0.929 . S
H2592 C2600 0.929 . S
H2593 C2602 0.930 . S
H2594 C2604 0.930 . S
H2595 C2607 0.929 . S
H2596 C2610 0.930 . S
H2597 C2612 0.960 . S
H2598 C2612 0.960 . S
H2599 C2612 0.960 . S
C2600 H2592 0.929 . S
C2600 C2601 1.377 . S
C2600 C2602 1.384 . S
C2601 C2600 1.377 . S
C2601 C2607 1.390 . S
C2602 H2593 0.930 . S
C2602 C2600 1.384 . S
C2602 C2603 1.372 . S
C2603 C2602 1.372 . S
C2603 C2604 1.400 . S
C2603 C2608 1.490 . S
C2604 H2594 0.930 . S
C2604 C2603 1.400 . S
C2604 C2607 1.386 . S
H2605 C2621 0.930 . S
H2606 C2622 0.931 . S
C2607 H2595 0.929 . S
C2607 C2601 1.390 . S
C2607 C2604 1.386 . S
C2608 C2603 1.490 . S
C2608 C2610 1.395 . S
C2608 C2611 1.403 . S
H2609 C2615 0.930 . S
C2610 H2596 0.930 . S
C2610 C2608 1.395 . S
C2610 C2613 1.403 . S
C2611 C2608 1.403 . S
C2611 C2612 1.524 . S
C2611 C2615 1.400 . S
C2612 H2597 0.960 . S
C2612 H2598 0.960 . S
C2612 H2599 0.960 . S
C2612 C2611 1.524 . S
C2613 C2610 1.403 . S
C2613 C2614 1.392 . S
C2613 C2617 1.495 . S
C2614 C2613 1.392 . S
C2614 C2615 1.385 . S
C2614 C2616 1.478 . S
C2615 H2609 0.930 . S
C2615 C2611 1.400 . S
C2615 C2614 1.385 . S
C2616 C2614 1.478 . S
C2616 C2618 1.381 . S
C2616 C2622 1.383 . S
C2617 C2613 1.495 . S
C2617 H2623 0.959 . S
C2617 H2624 0.961 . S
C2617 H2625 0.960 . S
C2618 C2616 1.381 . S
C2618 C2619 1.394 . S
C2618 H2626 0.930 . S
C2619 C2618 1.394 . S
C2619 C2620 1.383 . S
C2619 H2627 0.929 . S
C2620 C2619 1.383 . S
C2620 C2621 1.377 . S
C2621 H2605 0.930 . S
C2621 C2620 1.377 . S
C2621 C2622 1.379 . S
C2622 H2606 0.931 . S
C2622 C2616 1.383 . S
C2622 C2621 1.379 . S
H2623 C2617 0.959 . S
H2624 C2617 0.961 . S
H2625 C2617 0.960 . S
H2626 C2618 0.930 . S
H2627 C2619 0.929 . S
H2628 C2636 0.929 . S
H2629 C2638 0.930 . S
H2630 C2640 0.930 . S
H2631 C2643 0.929 . S
H2632 C2646 0.930 . S
H2633 C2648 0.960 . S
H2634 C2648 0.960 . S
H2635 C2648 0.960 . S
C2636 H2628 0.929 . S
C2636 C2637 1.377 . S
C2636 C2638 1.384 . S
C2637 C2636 1.377 . S
C2637 C2643 1.390 . S
C2638 H2629 0.930 . S
C2638 C2636 1.384 . S
C2638 C2639 1.372 . S
C2639 C2638 1.372 . S
C2639 C2640 1.400 . S
C2639 C2644 1.490 . S
C2640 H2630 0.930 . S
C2640 C2639 1.400 . S
C2640 C2643 1.386 . S
H2641 C2657 0.930 . S
H2642 C2658 0.931 . S
C2643 H2631 0.929 . S
C2643 C2637 1.390 . S
C2643 C2640 1.386 . S
C2644 C2639 1.490 . S
C2644 C2646 1.395 . S
C2644 C2647 1.403 . S
H2645 C2651 0.930 . S
C2646 H2632 0.930 . S
C2646 C2644 1.395 . S
C2646 C2649 1.403 . S
C2647 C2644 1.403 . S
C2647 C2648 1.524 . S
C2647 C2651 1.400 . S
C2648 H2633 0.960 . S
C2648 H2634 0.960 . S
C2648 H2635 0.960 . S
C2648 C2647 1.524 . S
C2649 C2646 1.403 . S
C2649 C2650 1.392 . S
C2649 C2653 1.495 . S
C2650 C2649 1.392 . S
C2650 C2651 1.385 . S
C2650 C2652 1.478 . S
C2651 H2645 0.930 . S
C2651 C2647 1.400 . S
C2651 C2650 1.385 . S
C2652 C2650 1.478 . S
C2652 C2654 1.381 . S
C2652 C2658 1.383 . S
C2653 C2649 1.495 . S
C2653 H2659 0.959 . S
C2653 H2660 0.961 . S
C2653 H2661 0.960 . S
C2654 C2652 1.381 . S
C2654 C2655 1.394 . S
C2654 H2662 0.930 . S
C2655 C2654 1.394 . S
C2655 C2656 1.383 . S
C2655 H2663 0.929 . S
C2656 C2655 1.383 . S
C2656 C2657 1.377 . S
C2657 H2641 0.930 . S
C2657 C2656 1.377 . S
C2657 C2658 1.379 . S
C2658 H2642 0.931 . S
C2658 C2652 1.383 . S
C2658 C2657 1.379 . S
H2659 C2653 0.959 . S
H2660 C2653 0.961 . S
H2661 C2653 0.960 . S
H2662 C2654 0.930 . S
H2663 C2655 0.929 . S
H2664 C2672 0.929 . S
H2665 C2674 0.930 . S
H2666 C2676 0.930 . S
H2667 C2679 0.929 . S
H2668 C2682 0.930 . S
H2669 C2684 0.960 . S
H2670 C2684 0.960 . S
H2671 C2684 0.960 . S
C2672 H2664 0.929 . S
C2672 C2673 1.377 . S
C2672 C2674 1.384 . S
C2673 C2672 1.377 . S
C2673 C2679 1.390 . S
C2674 H2665 0.930 . S
C2674 C2672 1.384 . S
C2674 C2675 1.372 . S
C2675 C2674 1.372 . S
C2675 C2676 1.400 . S
C2675 C2680 1.490 . S
C2676 H2666 0.930 . S
C2676 C2675 1.400 . S
C2676 C2679 1.386 . S
H2677 C2693 0.930 . S
H2678 C2694 0.931 . S
C2679 H2667 0.929 . S
C2679 C2673 1.390 . S
C2679 C2676 1.386 . S
C2680 C2675 1.490 . S
C2680 C2682 1.395 . S
C2680 C2683 1.403 . S
H2681 C2687 0.930 . S
C2682 H2668 0.930 . S
C2682 C2680 1.395 . S
C2682 C2685 1.403 . S
C2683 C2680 1.403 . S
C2683 C2684 1.524 . S
C2683 C2687 1.400 . S
C2684 H2669 0.960 . S
C2684 H2670 0.960 . S
C2684 H2671 0.960 . S
C2684 C2683 1.524 . S
C2685 C2682 1.403 . S
C2685 C2686 1.392 . S
C2685 C2689 1.495 . S
C2686 C2685 1.392 . S
C2686 C2687 1.385 . S
C2686 C2688 1.478 . S
C2687 H2681 0.930 . S
C2687 C2683 1.400 . S
C2687 C2686 1.385 . S
C2688 C2686 1.478 . S
C2688 C2690 1.381 . S
C2688 C2694 1.383 . S
C2689 C2685 1.495 . S
C2689 H2695 0.959 . S
C2689 H2696 0.961 . S
C2689 H2697 0.960 . S
C2690 C2688 1.381 . S
C2690 C2691 1.394 . S
C2690 H2698 0.930 . S
C2691 C2690 1.394 . S
C2691 C2692 1.383 . S
C2691 H2699 0.929 . S
C2692 C2691 1.383 . S
C2692 C2693 1.377 . S
C2693 H2677 0.930 . S
C2693 C2692 1.377 . S
C2693 C2694 1.379 . S
C2694 H2678 0.931 . S
C2694 C2688 1.383 . S
C2694 C2693 1.379 . S
H2695 C2689 0.959 . S
H2696 C2689 0.961 . S
H2697 C2689 0.960 . S
H2698 C2690 0.930 . S
H2699 C2691 0.929 . S
H2700 C2708 0.929 . S
H2701 C2710 0.930 . S
H2702 C2712 0.930 . S
H2703 C2715 0.929 . S
H2704 C2718 0.930 . S
H2705 C2720 0.960 . S
H2706 C2720 0.960 . S
H2707 C2720 0.960 . S
C2708 H2700 0.929 . S
C2708 C2709 1.377 . S
C2708 C2710 1.384 . S
C2709 C2708 1.377 . S
C2709 C2715 1.390 . S
C2710 H2701 0.930 . S
C2710 C2708 1.384 . S
C2710 C2711 1.372 . S
C2711 C2710 1.372 . S
C2711 C2712 1.400 . S
C2711 C2716 1.490 . S
C2712 H2702 0.930 . S
C2712 C2711 1.400 . S
C2712 C2715 1.386 . S
H2713 C2729 0.930 . S
H2714 C2730 0.931 . S
C2715 H2703 0.929 . S
C2715 C2709 1.390 . S
C2715 C2712 1.386 . S
C2716 C2711 1.490 . S
C2716 C2718 1.395 . S
C2716 C2719 1.403 . S
H2717 C2723 0.930 . S
C2718 H2704 0.930 . S
C2718 C2716 1.395 . S
C2718 C2721 1.403 . S
C2719 C2716 1.403 . S
C2719 C2720 1.524 . S
C2719 C2723 1.400 . S
C2720 H2705 0.960 . S
C2720 H2706 0.960 . S
C2720 H2707 0.960 . S
C2720 C2719 1.524 . S
C2721 C2718 1.403 . S
C2721 C2722 1.392 . S
C2721 C2725 1.495 . S
C2722 C2721 1.392 . S
C2722 C2723 1.385 . S
C2722 C2724 1.478 . S
C2723 H2717 0.930 . S
C2723 C2719 1.400 . S
C2723 C2722 1.385 . S
C2724 C2722 1.478 . S
C2724 C2726 1.381 . S
C2724 C2730 1.383 . S
C2725 C2721 1.495 . S
C2725 H2731 0.959 . S
C2725 H2732 0.961 . S
C2725 H2733 0.960 . S
C2726 C2724 1.381 . S
C2726 C2727 1.394 . S
C2726 H2734 0.930 . S
C2727 C2726 1.394 . S
C2727 C2728 1.383 . S
C2727 H2735 0.929 . S
C2728 C2727 1.383 . S
C2728 C2729 1.377 . S
C2729 H2713 0.930 . S
C2729 C2728 1.377 . S
C2729 C2730 1.379 . S
C2730 H2714 0.931 . S
C2730 C2724 1.383 . S
C2730 C2729 1.379 . S
H2731 C2725 0.959 . S
H2732 C2725 0.961 . S
H2733 C2725 0.960 . S
H2734 C2726 0.930 . S
H2735 C2727 0.929 . S
H2736 C2744 0.929 . S
H2737 C2746 0.930 . S
H2738 C2748 0.930 . S
H2739 C2751 0.929 . S
H2740 C2754 0.930 . S
H2741 C2756 0.960 . S
H2742 C2756 0.960 . S
H2743 C2756 0.960 . S
C2744 H2736 0.929 . S
C2744 C2745 1.377 . S
C2744 C2746 1.384 . S
C2745 C2744 1.377 . S
C2745 C2751 1.390 . S
C2746 H2737 0.930 . S
C2746 C2744 1.384 . S
C2746 C2747 1.372 . S
C2747 C2746 1.372 . S
C2747 C2748 1.400 . S
C2747 C2752 1.490 . S
C2748 H2738 0.930 . S
C2748 C2747 1.400 . S
C2748 C2751 1.386 . S
H2749 C2765 0.930 . S
H2750 C2766 0.931 . S
C2751 H2739 0.929 . S
C2751 C2745 1.390 . S
C2751 C2748 1.386 . S
C2752 C2747 1.490 . S
C2752 C2754 1.395 . S
C2752 C2755 1.403 . S
H2753 C2759 0.930 . S
C2754 H2740 0.930 . S
C2754 C2752 1.395 . S
C2754 C2757 1.403 . S
C2755 C2752 1.403 . S
C2755 C2756 1.524 . S
C2755 C2759 1.400 . S
C2756 H2741 0.960 . S
C2756 H2742 0.960 . S
C2756 H2743 0.960 . S
C2756 C2755 1.524 . S
C2757 C2754 1.403 . S
C2757 C2758 1.392 . S
C2757 C2761 1.495 . S
C2758 C2757 1.392 . S
C2758 C2759 1.385 . S
C2758 C2760 1.478 . S
C2759 H2753 0.930 . S
C2759 C2755 1.400 . S
C2759 C2758 1.385 . S
C2760 C2758 1.478 . S
C2760 C2762 1.381 . S
C2760 C2766 1.383 . S
C2761 C2757 1.495 . S
C2761 H2767 0.959 . S
C2761 H2768 0.961 . S
C2761 H2769 0.960 . S
C2762 C2760 1.381 . S
C2762 C2763 1.394 . S
C2762 H2770 0.930 . S
C2763 C2762 1.394 . S
C2763 C2764 1.383 . S
C2763 H2771 0.929 . S
C2764 C2763 1.383 . S
C2764 C2765 1.377 . S
C2765 H2749 0.930 . S
C2765 C2764 1.377 . S
C2765 C2766 1.379 . S
C2766 H2750 0.931 . S
C2766 C2760 1.383 . S
C2766 C2765 1.379 . S
H2767 C2761 0.959 . S
H2768 C2761 0.961 . S
H2769 C2761 0.960 . S
H2770 C2762 0.930 . S
H2771 C2763 0.929 . S
H2772 C2780 0.929 . S
H2773 C2782 0.930 . S
H2774 C2784 0.930 . S
H2775 C2787 0.929 . S
H2776 C2790 0.930 . S
H2777 C2792 0.960 . S
H2778 C2792 0.960 . S
H2779 C2792 0.960 . S
C2780 H2772 0.929 . S
C2780 C2781 1.377 . S
C2780 C2782 1.384 . S
C2781 C2780 1.377 . S
C2781 C2787 1.390 . S
C2782 H2773 0.930 . S
C2782 C2780 1.384 . S
C2782 C2783 1.372 . S
C2783 C2782 1.372 . S
C2783 C2784 1.400 . S
C2783 C2788 1.490 . S
C2784 H2774 0.930 . S
C2784 C2783 1.400 . S
C2784 C2787 1.386 . S
H2785 C2801 0.930 . S
H2786 C2802 0.931 . S
C2787 H2775 0.929 . S
C2787 C2781 1.390 . S
C2787 C2784 1.386 . S
C2788 C2783 1.490 . S
C2788 C2790 1.395 . S
C2788 C2791 1.403 . S
H2789 C2795 0.930 . S
C2790 H2776 0.930 . S
C2790 C2788 1.395 . S
C2790 C2793 1.403 . S
C2791 C2788 1.403 . S
C2791 C2792 1.524 . S
C2791 C2795 1.400 . S
C2792 H2777 0.960 . S
C2792 H2778 0.960 . S
C2792 H2779 0.960 . S
C2792 C2791 1.524 . S
C2793 C2790 1.403 . S
C2793 C2794 1.392 . S
C2793 C2797 1.495 . S
C2794 C2793 1.392 . S
C2794 C2795 1.385 . S
C2794 C2796 1.478 . S
C2795 H2789 0.930 . S
C2795 C2791 1.400 . S
C2795 C2794 1.385 . S
C2796 C2794 1.478 . S
C2796 C2798 1.381 . S
C2796 C2802 1.383 . S
C2797 C2793 1.495 . S
C2797 H2803 0.959 . S
C2797 H2804 0.961 . S
C2797 H2805 0.960 . S
C2798 C2796 1.381 . S
C2798 C2799 1.394 . S
C2798 H2806 0.930 . S
C2799 C2798 1.394 . S
C2799 C2800 1.383 . S
C2799 H2807 0.929 . S
C2800 C2799 1.383 . S
C2800 C2801 1.377 . S
C2801 H2785 0.930 . S
C2801 C2800 1.377 . S
C2801 C2802 1.379 . S
C2802 H2786 0.931 . S
C2802 C2796 1.383 . S
C2802 C2801 1.379 . S
H2803 C2797 0.959 . S
H2804 C2797 0.961 . S
H2805 C2797 0.960 . S
H2806 C2798 0.930 . S
H2807 C2799 0.929 . S
H2808 C2816 0.929 . S
H2809 C2818 0.930 . S
H2810 C2820 0.930 . S
H2811 C2823 0.929 . S
H2812 C2826 0.930 . S
H2813 C2828 0.960 . S
H2814 C2828 0.960 . S
H2815 C2828 0.960 . S
C2816 H2808 0.929 . S
C2816 C2817 1.377 . S
C2816 C2818 1.384 . S
C2817 C2816 1.377 . S
C2817 C2823 1.390 . S
C2818 H2809 0.930 . S
C2818 C2816 1.384 . S
C2818 C2819 1.372 . S
C2819 C2818 1.372 . S
C2819 C2820 1.400 . S
C2819 C2824 1.490 . S
C2820 H2810 0.930 . S
C2820 C2819 1.400 . S
C2820 C2823 1.386 . S
H2821 C2837 0.930 . S
H2822 C2838 0.931 . S
C2823 H2811 0.929 . S
C2823 C2817 1.390 . S
C2823 C2820 1.386 . S
C2824 C2819 1.490 . S
C2824 C2826 1.395 . S
C2824 C2827 1.403 . S
H2825 C2831 0.930 . S
C2826 H2812 0.930 . S
C2826 C2824 1.395 . S
C2826 C2829 1.403 . S
C2827 C2824 1.403 . S
C2827 C2828 1.524 . S
C2827 C2831 1.400 . S
C2828 H2813 0.960 . S
C2828 H2814 0.960 . S
C2828 H2815 0.960 . S
C2828 C2827 1.524 . S
C2829 C2826 1.403 . S
C2829 C2830 1.392 . S
C2829 C2833 1.495 . S
C2830 C2829 1.392 . S
C2830 C2831 1.385 . S
C2830 C2832 1.478 . S
C2831 H2825 0.930 . S
C2831 C2827 1.400 . S
C2831 C2830 1.385 . S
C2832 C2830 1.478 . S
C2832 C2834 1.381 . S
C2832 C2838 1.383 . S
C2833 C2829 1.495 . S
C2833 H2839 0.959 . S
C2833 H2840 0.961 . S
C2833 H2841 0.960 . S
C2834 C2832 1.381 . S
C2834 C2835 1.394 . S
C2834 H2842 0.930 . S
C2835 C2834 1.394 . S
C2835 C2836 1.383 . S
C2835 H2843 0.929 . S
C2836 C2835 1.383 . S
C2836 C2837 1.377 . S
C2837 H2821 0.930 . S
C2837 C2836 1.377 . S
C2837 C2838 1.379 . S
C2838 H2822 0.931 . S
C2838 C2832 1.383 . S
C2838 C2837 1.379 . S
H2839 C2833 0.959 . S
H2840 C2833 0.961 . S
H2841 C2833 0.960 . S
H2842 C2834 0.930 . S
H2843 C2835 0.929 . S
H2844 C2852 0.929 . S
H2845 C2854 0.930 . S
H2846 C2856 0.930 . S
H2847 C2859 0.929 . S
H2848 C2862 0.930 . S
H2849 C2864 0.960 . S
H2850 C2864 0.960 . S
H2851 C2864 0.960 . S
C2852 H2844 0.929 . S
C2852 C2853 1.377 . S
C2852 C2854 1.384 . S
C2853 C2852 1.377 . S
C2853 C2859 1.390 . S
C2854 H2845 0.930 . S
C2854 C2852 1.384 . S
C2854 C2855 1.372 . S
C2855 C2854 1.372 . S
C2855 C2856 1.400 . S
C2855 C2860 1.490 . S
C2856 H2846 0.930 . S
C2856 C2855 1.400 . S
C2856 C2859 1.386 . S
H2857 C2873 0.930 . S
H2858 C2874 0.931 . S
C2859 H2847 0.929 . S
C2859 C2853 1.390 . S
C2859 C2856 1.386 . S
C2860 C2855 1.490 . S
C2860 C2862 1.395 . S
C2860 C2863 1.403 . S
H2861 C2867 0.930 . S
C2862 H2848 0.930 . S
C2862 C2860 1.395 . S
C2862 C2865 1.403 . S
C2863 C2860 1.403 . S
C2863 C2864 1.524 . S
C2863 C2867 1.400 . S
C2864 H2849 0.960 . S
C2864 H2850 0.960 . S
C2864 H2851 0.960 . S
C2864 C2863 1.524 . S
C2865 C2862 1.403 . S
C2865 C2866 1.392 . S
C2865 C2869 1.495 . S
C2866 C2865 1.392 . S
C2866 C2867 1.385 . S
C2866 C2868 1.478 . S
C2867 H2861 0.930 . S
C2867 C2863 1.400 . S
C2867 C2866 1.385 . S
C2868 C2866 1.478 . S
C2868 C2870 1.381 . S
C2868 C2874 1.383 . S
C2869 C2865 1.495 . S
C2869 H2875 0.959 . S
C2869 H2876 0.961 . S
C2869 H2877 0.960 . S
C2870 C2868 1.381 . S
C2870 C2871 1.394 . S
C2870 H2878 0.930 . S
C2871 C2870 1.394 . S
C2871 C2872 1.383 . S
C2871 H2879 0.929 . S
C2872 C2871 1.383 . S
C2872 C2873 1.377 . S
C2873 H2857 0.930 . S
C2873 C2872 1.377 . S
C2873 C2874 1.379 . S
C2874 H2858 0.931 . S
C2874 C2868 1.383 . S
C2874 C2873 1.379 . S
H2875 C2869 0.959 . S
H2876 C2869 0.961 . S
H2877 C2869 0.960 . S
H2878 C2870 0.930 . S
H2879 C2871 0.929 . S
C945 C439 1.504 . S
C964 C585 1.580 . S
C981 C465 1.830 . S
C1000 C625 1.813 . S
C1017 C401 1.694 . S
C1036 C664 1.647 . S
C1053 C369 1.523 . S
C1072 C624 1.493 . S
C1108 C665 1.476 . S
C1089 C305 1.476 . S
C1125 C343 1.207 . S
C1144 C584 1.283 1_556 S
C1180 C595 1.617 . S
C1161 C375 1.639 . S
C1216 C635 1.773 . S
C1197 C311 1.788 . S
C1233 C337 1.586 . S
C1252 C674 1.655 . S
C1269 C433 1.446 . S
C1288 C634 1.470 . S
C1305 C471 1.435 . S
C1324 C675 1.409 . S
C1360 C594 1.325 . S
C1341 C407 1.348 . S
C1396 C705 1.540 . S
C1377 C55 1.498 . S
C1413 C81 1.832 . S
C1432 C745 1.798 . S
C1449 C17 1.696 . S
C1468 C784 1.668 . S
C1485 C561 1.524 . S
C1504 C744 1.471 . S
C1521 C497 1.478 . S
C1540 C785 1.465 . S
C1557 C535 1.209 . S
C1576 C704 1.270 . S
C1593 C567 1.638 . S
C1612 C715 1.613 . S
C1629 C503 1.790 . S
C1648 C755 1.755 . S
C1684 C794 1.664 . S
C1665 C529 1.580 . S
C1701 C49 1.447 . S
C1720 C754 1.461 . S
C1756 C795 1.434 . S
C1737 C87 1.432 . S
C1773 C23 1.349 . S
C1792 C714 1.308 . S
C1828 C825 1.540 . S
C1809 C247 1.496 . S
C1845 C273 1.832 . S
C1864 C865 1.787 . S
C1900 C904 1.669 . S
C1881 C209 1.696 . S
C1936 C864 1.468 . S
C1917 C177 1.523 . S
C1972 C905 1.469 . S
C1953 C113 1.478 . S
C1989 C151 1.206 . S
C2008 C824 1.280 . S
C2025 C183 1.639 . S
C2044 C835 1.614 . S
C2061 C119 1.790 . S
C2080 C875 1.757 . S
C2116 C914 1.662 . S
C2097 C145 1.580 . S
C2133 C241 1.434 . S
C2152 C874 1.503 . S
C2169 C279 1.435 . S
C2188 C915 1.420 . S
C2205 C215 1.348 . S
C2224 C834 1.330 . S
C2241 C509 1.286 . S
C2260 C581 1.298 . S
C2296 C621 1.842 . S
C2277 C541 1.736 . S
C2313 C573 1.559 . S
C2332 C671 1.562 . S
C2349 C221 1.868 . S
C2368 C631 1.864 . S
C2385 C253 1.458 . S
C2404 C661 1.532 . S
C2440 C591 1.283 . S
C2421 C285 1.279 . S
C2457 C125 1.287 . S
C2476 C701 1.299 . S
C2493 C157 1.743 . S
C2512 C741 1.836 . S
C2529 C189 1.559 . S
C2548 C791 1.562 . S
C2565 C413 1.869 . S
C2584 C751 1.858 . S
C2620 C781 1.530 . S
C2601 C445 1.470 . S
C2637 C477 1.278 . S
C2656 C711 1.285 . S
C2673 C317 1.283 . S
C2692 C821 1.290 . S
C2709 C349 1.740 . S
C2728 C861 1.829 . S
C2764 C911 1.562 . S
C2745 C381 1.559 . S
C2781 C29 1.869 . S
C2800 C871 1.859 . S
C2817 C61 1.462 . S
C2836 C901 1.532 . S
C2853 C93 1.282 . S
C2872 C831 1.282 . S
