# Generated by pormake.
# Topology pyr, (3,6)-cn, num edge types: 1
# Building blocks:
#     Node 0, Type 0, BuildingBlock: CUQRIR_clean_linker_1, # of connection points: 3
#     Node 1, Type 0, BuildingBlock: CUQRIR_clean_linker_1, # of connection points: 3
#     Node 2, Type 0, BuildingBlock: CUQRIR_clean_linker_1, # of connection points: 3
#     Node 3, Type 0, BuildingBlock: CUQRIR_clean_linker_1, # of connection points: 3
#     Node 4, Type 0, BuildingBlock: CUQRIR_clean_linker_1, # of connection points: 3
#     Node 5, Type 0, BuildingBlock: CUQRIR_clean_linker_1, # of connection points: 3
#     Node 6, Type 0, BuildingBlock: CUQRIR_clean_linker_1, # of connection points: 3
#     Node 7, Type 0, BuildingBlock: CUQRIR_clean_linker_1, # of connection points: 3
#     Node 8, Type 1, BuildingBlock: PAMTUU_clean_sbu_0, # of connection points: 6
#     Node 9, Type 1, BuildingBlock: PAMTUU_clean_sbu_0, # of connection points: 6
#     Node 10, Type 1, BuildingBlock: PAMTUU_clean_sbu_0, # of connection points: 6
#     Node 11, Type 1, BuildingBlock: PAMTUU_clean_sbu_0, # of connection points: 6
#     Edge 12, Type (0, 1), BuildingBlock: MIFKUJ_clean_linker_0, # of connection points: 2
#     Edge 13, Type (0, 1), BuildingBlock: MIFKUJ_clean_linker_0, # of connection points: 2
#     Edge 14, Type (0, 1), BuildingBlock: MIFKUJ_clean_linker_0, # of connection points: 2
#     Edge 15, Type (0, 1), BuildingBlock: MIFKUJ_clean_linker_0, # of connection points: 2
#     Edge 16, Type (0, 1), BuildingBlock: MIFKUJ_clean_linker_0, # of connection points: 2
#     Edge 17, Type (0, 1), BuildingBlock: MIFKUJ_clean_linker_0, # of connection points: 2
#     Edge 18, Type (0, 1), BuildingBlock: MIFKUJ_clean_linker_0, # of connection points: 2
#     Edge 19, Type (0, 1), BuildingBlock: MIFKUJ_clean_linker_0, # of connection points: 2
#     Edge 20, Type (0, 1), BuildingBlock: MIFKUJ_clean_linker_0, # of connection points: 2
#     Edge 21, Type (0, 1), BuildingBlock: MIFKUJ_clean_linker_0, # of connection points: 2
#     Edge 22, Type (0, 1), BuildingBlock: MIFKUJ_clean_linker_0, # of connection points: 2
#     Edge 23, Type (0, 1), BuildingBlock: MIFKUJ_clean_linker_0, # of connection points: 2
#     Edge 24, Type (0, 1), BuildingBlock: MIFKUJ_clean_linker_0, # of connection points: 2
#     Edge 25, Type (0, 1), BuildingBlock: MIFKUJ_clean_linker_0, # of connection points: 2
#     Edge 26, Type (0, 1), BuildingBlock: MIFKUJ_clean_linker_0, # of connection points: 2
#     Edge 27, Type (0, 1), BuildingBlock: MIFKUJ_clean_linker_0, # of connection points: 2
#     Edge 28, Type (0, 1), BuildingBlock: MIFKUJ_clean_linker_0, # of connection points: 2
#     Edge 29, Type (0, 1), BuildingBlock: MIFKUJ_clean_linker_0, # of connection points: 2
#     Edge 30, Type (0, 1), BuildingBlock: MIFKUJ_clean_linker_0, # of connection points: 2
#     Edge 31, Type (0, 1), BuildingBlock: MIFKUJ_clean_linker_0, # of connection points: 2
#     Edge 32, Type (0, 1), BuildingBlock: MIFKUJ_clean_linker_0, # of connection points: 2
#     Edge 33, Type (0, 1), BuildingBlock: MIFKUJ_clean_linker_0, # of connection points: 2
#     Edge 34, Type (0, 1), BuildingBlock: MIFKUJ_clean_linker_0, # of connection points: 2
#     Edge 35, Type (0, 1), BuildingBlock: MIFKUJ_clean_linker_0, # of connection points: 2
# Relax obj value: 0.145
# Max RMSD: 0.240
# Mean RMSD: 0.160
data_MOF--net-pyr--node1-PAMTUU_clean_sbu_0--node2-CUQRIR_clean_linker_1--edge1-MIFKUJ_clean_linker_0
_symmetry_space_group_name_H-M    P1
_symmetry_Int_Tables_number       1
_symmetry_cell_setting            triclinic
loop_
_symmetry_equiv_pos_as_xyz
'x, y, z'
_cell_length_a     46.917823
_cell_length_b     47.827436
_cell_length_c     45.164439
_cell_angle_alpha  88.975517
_cell_angle_beta   89.986285
_cell_angle_gamma 103.82982
loop_
_atom_site_label
_atom_site_type_symbol
_atom_site_fract_x
_atom_site_fract_y
_atom_site_fract_z
_atom_type_partial_charge
C0 C 0.31946 0.32416 0.21992 0.0
N1 N 0.33672 0.30575 0.22601 0.0
N2 N 0.32353 0.33418 0.19159 0.0
C3 C 0.29533 0.32887 0.23997 0.0
C4 C 0.34354 0.32089 0.18056 0.0
N5 N 0.35149 0.3036 0.20139 0.0
C6 C 0.35453 0.32409 0.14911 0.0
H7 H 0.28719 0.31029 0.25521 0.0
H8 H 0.27638 0.33253 0.22712 0.0
H9 H 0.30409 0.34818 0.25343 0.0
H10 H 0.35314 0.34524 0.1395 0.0
H11 H 0.34077 0.30685 0.13564 0.0
H12 H 0.37754 0.32193 0.14804 0.0
C13 C 0.19707 0.80531 0.71625 0.0
N14 N 0.19364 0.82786 0.73242 0.0
N15 N 0.2136 0.79008 0.73096 0.0
C16 C 0.18653 0.79938 0.68502 0.0
C17 C 0.21993 0.80407 0.75681 0.0
N18 N 0.20759 0.8269 0.75788 0.0
C19 C 0.24179 0.79802 0.77898 0.0
H20 H 0.1812 0.7759 0.68096 0.0
H21 H 0.20431 0.80988 0.66941 0.0
H22 H 0.16688 0.80786 0.68056 0.0
H23 H 0.26092 0.81684 0.77983 0.0
H24 H 0.24943 0.77852 0.77341 0.0
H25 H 0.23164 0.7948 0.80133 0.0
C26 C 0.63622 0.37953 0.8591 0.0
N27 N 0.65419 0.37691 0.88214 0.0
N28 N 0.64731 0.40394 0.84279 0.0
C29 C 0.60711 0.35887 0.8537 0.0
C30 C 0.67269 0.41601 0.85695 0.0
N31 N 0.67699 0.3997 0.88069 0.0
C32 C 0.69378 0.44354 0.84717 0.0
H33 H 0.60954 0.33638 0.85551 0.0
H34 H 0.59772 0.36241 0.83189 0.0
H35 H 0.5913 0.36165 0.87101 0.0
H36 H 0.68799 0.46184 0.8585 0.0
H37 H 0.69254 0.44702 0.8229 0.0
H38 H 0.71663 0.44324 0.85323 0.0
C39 C 0.84565 0.68529 0.35635 0.0
N40 N 0.87182 0.70424 0.35035 0.0
N41 N 0.83033 0.69529 0.37753 0.0
C42 C 0.83427 0.65751 0.34038 0.0
C43 C 0.84801 0.7212 0.38423 0.0
N44 N 0.87321 0.72691 0.36784 0.0
C45 C 0.84081 0.74068 0.40752 0.0
H46 H 0.84142 0.65966 0.31686 0.0
H47 H 0.80995 0.65082 0.34135 0.0
H48 H 0.84322 0.64039 0.35109 0.0
H49 H 0.86079 0.7543 0.41754 0.0
H50 H 0.82704 0.72797 0.42538 0.0
H51 H 0.82827 0.75514 0.39705 0.0
C52 C 0.69454 0.81219 0.9141 0.0
N53 N 0.71378 0.80517 0.895 0.0
N54 N 0.68019 0.83046 0.90103 0.0
C55 C 0.69064 0.8024 0.94597 0.0
C56 C 0.69149 0.83436 0.87326 0.0
N57 N 0.71174 0.81879 0.86953 0.0
C58 C 0.68651 0.85707 0.85175 0.0
H59 H 0.66785 0.8013 0.95344 0.0
H60 H 0.70579 0.81817 0.9599 0.0
H61 H 0.69569 0.78103 0.94907 0.0
H62 H 0.70051 0.87824 0.8581 0.0
H63 H 0.66329 0.85855 0.8525 0.0
H64 H 0.69228 0.85241 0.82883 0.0
C65 C 0.84167 0.30917 0.42695 0.0
N66 N 0.84513 0.28775 0.40912 0.0
N67 N 0.82059 0.32166 0.41621 0.0
C68 C 0.85688 0.31603 0.45611 0.0
C69 C 0.81118 0.30674 0.39143 0.0
N70 N 0.82601 0.28613 0.38723 0.0
C71 C 0.78551 0.31058 0.37307 0.0
H72 H 0.847 0.29898 0.47259 0.0
H73 H 0.85471 0.33718 0.46424 0.0
H74 H 0.88047 0.31619 0.45394 0.0
H75 H 0.79023 0.33281 0.36374 0.0
H76 H 0.76576 0.30762 0.3874 0.0
H77 H 0.78076 0.29541 0.35446 0.0
C78 C 0.34263 0.68835 0.24172 0.0
N79 N 0.36655 0.70871 0.25038 0.0
N80 N 0.32758 0.6988 0.22023 0.0
C81 C 0.33463 0.65792 0.25372 0.0
C82 C 0.34312 0.72638 0.21628 0.0
N83 N 0.36676 0.73258 0.23446 0.0
C84 C 0.33524 0.74742 0.19445 0.0
H85 H 0.31885 0.64341 0.23924 0.0
H86 H 0.32481 0.65776 0.2761 0.0
H87 H 0.35456 0.64946 0.25596 0.0
H88 H 0.3112 0.74255 0.1907 0.0
H89 H 0.34633 0.7457 0.17311 0.0
H90 H 0.34266 0.76987 0.20209 0.0
C91 C 0.13407 0.36744 0.74682 0.0
N92 N 0.1511 0.36455 0.72303 0.0
N93 N 0.14377 0.39343 0.75981 0.0
C94 C 0.10659 0.34572 0.75615 0.0
C95 C 0.16747 0.40629 0.743 0.0
N96 N 0.17185 0.38913 0.72037 0.0
C97 C 0.18808 0.43449 0.75075 0.0
H98 H 0.09092 0.35634 0.76712 0.0
H99 H 0.11246 0.33015 0.77214 0.0
H100 H 0.09573 0.33366 0.73683 0.0
H101 H 0.18748 0.43835 0.77487 0.0
H102 H 0.18123 0.4523 0.73889 0.0
H103 H 0.21097 0.43484 0.74424 0.0
Tb104 Tb 0.05323 0.05128 0.51507 0.0
Tb105 Tb 0.99754 0.03842 0.55997 0.0
C106 C 1.00298 0.99444 0.51065 0.0
C107 C 0.11865 0.0822 0.46522 0.0
C108 C 0.1647 0.12047 0.43464 0.0
C109 C 0.14031 0.10453 0.41925 0.0
C110 C 0.11764 0.08551 0.43436 0.0
C111 C 0.14247 0.09893 0.48085 0.0
C112 C 0.16527 0.11798 0.46566 0.0
C113 C 0.09636 0.05916 0.47994 0.0
O114 O 0.02916 0.08351 0.50345 0.0
O115 O 0.98434 0.05772 0.51993 0.0
O116 O 0.01961 0.08381 0.56748 0.0
O117 O 0.06537 0.08482 0.54859 0.0
O118 O 0.95241 1.02105 0.56616 0.0
O119 O 0.97935 0.04227 0.60178 0.0
O120 O 0.03243 0.02655 0.58468 0.0
O121 O 0.05911 1.01722 0.54535 0.0
O122 O 0.01944 1.0164 0.4959 0.0
O123 O 0.99706 0.99706 0.53885 0.0
C124 C 1.00047 0.07907 0.50427 0.0
O125 O 0.09833 0.05575 0.50852 0.0
O126 O 0.06923 0.05594 0.4714 0.0
C127 C 0.04782 0.0964 0.56468 0.0
C128 C 0.93942 1.00403 0.61513 0.0
C129 C 0.90909 0.96122 0.65508 0.0
C130 C 0.91523 0.9905 0.66248 0.0
C131 C 0.93011 1.01165 0.64265 0.0
C132 C 0.93443 0.97477 0.60802 0.0
C133 C 0.91933 0.95352 0.62784 0.0
C134 C 0.95358 0.02711 0.59422 0.0
C135 C 0.05273 1.01511 0.57371 0.0
H136 H 0.13894 0.10643 0.39538 0.0
H137 H 0.09964 0.07277 0.42177 0.0
H138 H 0.14396 0.09671 0.50467 0.0
H139 H 0.18383 0.12994 0.47808 0.0
H140 H 0.90821 0.99712 0.68353 0.0
H141 H 0.93402 0.03408 0.64865 0.0
H142 H 0.94167 0.96835 0.58697 0.0
H143 H 0.91483 0.93119 0.62142 0.0
Tb144 Tb 0.5497 0.06561 0.10118 0.0
Tb145 Tb 0.49372 0.05801 0.05573 0.0
C146 C 0.54662 0.03201 0.04239 0.0
C147 C 0.62258 0.08703 0.14179 0.0
C148 C 0.67854 0.11504 0.16298 0.0
C149 C 0.67193 0.08545 0.15691 0.0
C150 C 0.64417 0.07158 0.14655 0.0
C151 C 0.62981 0.11695 0.14581 0.0
C152 C 0.65747 0.13079 0.15635 0.0
C153 C 0.59194 0.07106 0.13702 0.0
O154 O 0.55878 0.10653 0.07631 0.0
O155 O 0.52802 0.09311 0.03656 0.0
O156 O 0.49499 0.09408 0.08416 0.0
O157 O 0.51274 0.07531 0.12457 0.0
O158 O 0.47737 0.05651 1.01251 0.0
O159 O 0.44872 0.05601 0.05029 0.0
O160 O 0.47959 1.02323 0.0892 0.0
O161 O 0.52432 1.0218 0.10945 0.0
O162 O 0.56294 0.05222 0.05859 0.0
O163 O 0.51789 0.02695 0.04286 0.0
C164 C 0.54954 0.11163 0.04962 0.0
O165 O 0.57167 0.08549 0.13834 0.0
O166 O 0.58689 0.05207 0.11615 0.0
C167 C 0.49828 0.09287 0.11276 0.0
C168 C 0.42677 0.03665 1.0054 0.0
C169 C 0.38349 1.00337 0.96892 0.0
C170 C 0.3852 0.03282 0.97256 0.0
C171 C 0.40662 0.04926 0.99066 0.0
C172 C 0.42473 1.00705 1.00269 0.0
C173 C 0.40306 0.99044 0.98462 0.0
C174 C 0.45073 0.0556 1.02148 0.0
C175 C 0.49615 1.01043 0.10579 0.0
H176 H 0.68777 0.07277 0.1614 0.0
H177 H 0.63909 0.04847 0.14367 0.0
H178 H 0.61364 0.12949 0.14238 0.0
H179 H 0.66156 0.15351 0.16113 0.0
H180 H 0.37019 0.04325 0.96107 0.0
H181 H 0.40793 0.07209 0.99255 0.0
H182 H 0.44026 0.99704 1.01387 0.0
H183 H 0.40228 0.9678 0.98207 0.0
Tb184 Tb 0.49754 0.51429 0.52264 0.0
Tb185 Tb 0.49688 0.57108 0.5605 0.0
C186 C 0.47123 0.56528 0.49664 0.0
C187 C 0.52887 0.45872 0.49116 0.0
C188 C 0.5806 0.43891 0.48616 0.0
C189 C 0.56182 0.43818 0.46175 0.0
C190 C 0.53613 0.44797 0.46426 0.0
C191 C 0.54744 0.45926 0.51566 0.0
C192 C 0.57297 0.44926 0.51324 0.0
C193 C 0.50382 0.47218 0.4927 0.0
O194 O 0.54323 0.53844 0.5255 0.0
O195 O 0.53464 0.58305 0.53023 0.0
O196 O 0.52599 0.54968 0.58528 0.0
O197 O 0.50971 0.50407 0.56758 0.0
O198 O 0.5013 0.61577 0.56133 0.0
O199 O 0.49379 0.59008 0.60154 0.0
O200 O 0.45739 0.5391 0.57507 0.0
O201 O 0.45182 0.50604 0.53777 0.0
O202 O 0.48627 0.54587 0.49147 0.0
O203 O 0.46695 0.57251 0.52389 0.0
C204 C 0.55203 0.56652 0.52256 0.0
O205 O 0.48966 0.46945 0.51783 0.0
O206 O 0.50912 0.4985 0.4824 0.0
C207 C 0.5238 0.52178 0.58758 0.0
C208 C 0.47031 0.62782 0.59704 0.0
C209 C 0.42273 0.65077 0.61308 0.0
C210 C 0.4506 0.66123 0.62571 0.0
C211 C 0.47421 0.64983 0.61771 0.0
C212 C 0.44263 0.61729 0.58433 0.0
C213 C 0.41903 0.62872 0.59223 0.0
C214 C 0.49478 0.61519 0.5894 0.0
C215 C 0.44188 0.51623 0.5616 0.0
H216 H 0.56705 0.43011 0.44067 0.0
H217 H 0.52229 0.44776 0.44503 0.0
H218 H 0.54261 0.46807 0.53649 0.0
H219 H 0.58719 0.45044 0.5323 0.0
H220 H 0.45405 0.67788 0.64217 0.0
H221 H 0.49543 0.65798 0.62787 0.0
H222 H 0.43926 0.60015 0.5684 0.0
H223 H 0.39797 0.62042 0.58185 0.0
Tb224 Tb 1.00292 0.57566 0.03251 0.0
Tb225 Tb 0.99894 0.51873 0.07402 0.0
C226 C 0.02737 0.52317 1.01012 0.0
C227 C 0.98415 0.63652 0.99049 0.0
C228 C 0.9425 0.66678 0.97214 0.0
C229 C 0.9624 0.66024 0.95169 0.0
C230 C 0.98312 0.64532 0.96084 0.0
C231 C 0.96448 0.64321 1.0111 0.0
C232 C 0.94393 0.65843 1.002 0.0
C233 C 1.00456 0.6188 0.99884 0.0
O234 O 0.95624 0.5537 0.03343 0.0
O235 O 0.96127 0.50828 0.04456 0.0
O236 O 0.97307 0.54367 0.09864 0.0
O237 O 0.99067 0.58814 0.07644 0.0
O238 O 0.99123 0.47364 0.07704 0.0
O239 O 1.00248 0.49952 0.11564 0.0
O240 O 0.03757 0.54994 0.0888 0.0
O241 O 0.04803 0.57906 0.04751 0.0
O242 O 0.01337 0.54318 1.00346 0.0
O243 O 0.02938 0.51506 0.03792 0.0
C244 C 0.94585 0.52561 0.03375 0.0
O245 O 0.01428 0.6206 0.02594 0.0
O246 O 0.99699 0.59224 0.99027 0.0
C247 C 0.97691 0.572 0.09852 0.0
C248 C 0.02519 0.46151 0.10947 0.0
C249 C 0.07376 0.43706 0.11636 0.0
C250 C 0.04593 0.4225 0.12724 0.0
C251 C 0.02174 0.43465 0.12371 0.0
C252 C 0.05296 0.47618 0.09894 0.0
C253 C 0.077 0.4641 0.10235 0.0
C254 C 1.00008 0.47422 0.10437 0.0
C255 C 0.05564 0.57007 0.07336 0.0
H256 H 0.9619 0.66665 0.9286 0.0
H257 H 0.99803 0.64018 0.94462 0.0
H258 H 0.96465 0.63625 0.03405 0.0
H259 H 0.92862 0.66298 1.01813 0.0
H260 H 0.04278 0.40155 0.13797 0.0
H261 H 1.00038 0.42301 0.13182 0.0
H262 H 0.05603 0.49699 0.0879 0.0
H263 H 0.09822 0.47608 0.09421 0.0
H264 H 0.31919 0.24804 0.2236 0.0
H265 H 0.3005 0.21526 0.26477 0.0
H266 H 0.32179 0.28604 0.32519 0.0
H267 H 0.34287 0.31861 0.28386 0.0
H268 H 0.32371 0.23542 0.35323 0.0
H269 H 0.25557 0.27082 0.29275 0.0
H270 H 0.23272 0.28144 0.24599 0.0
H271 H 0.20887 0.19132 0.22654 0.0
H272 H 0.23182 0.18019 0.27306 0.0
H273 H 0.19643 0.17499 0.44747 0.0
H274 H 0.23498 0.20614 0.41693 0.0
H275 H 0.2277 0.13818 0.35383 0.0
H276 H 0.18979 0.10692 0.38427 0.0
H277 H 0.2197 0.19006 0.33001 0.0
H278 H 0.287 0.15582 0.39437 0.0
H279 H 0.30836 0.1477 0.44271 0.0
H280 H 0.33137 0.23879 0.45734 0.0
H281 H 0.30975 0.24743 0.40925 0.0
C282 C 0.32151 0.25628 0.24583 0.0
C283 C 0.33257 0.28575 0.2507 0.0
C284 C 0.31038 0.23764 0.26933 0.0
C285 C 0.30897 0.24841 0.29786 0.0
C286 C 0.32251 0.27734 0.3033 0.0
C287 C 0.33444 0.29589 0.27979 0.0
C288 C 0.28959 0.23062 0.32045 0.0
C289 C 0.30091 0.22567 0.34832 0.0
C290 C 0.25975 0.21814 0.31409 0.0
C291 C 0.24564 0.22472 0.28624 0.0
C292 C 0.2456 0.2533 0.27841 0.0
C293 C 0.23262 0.25941 0.25197 0.0
C294 C 0.21946 0.23709 0.23326 0.0
C295 C 0.21912 0.20859 0.24103 0.0
C296 C 0.23207 0.20237 0.26744 0.0
C297 C 0.20349 0.16656 0.42737 0.0
C298 C 0.18975 0.13871 0.41797 0.0
C299 C 0.22549 0.18432 0.41002 0.0
C300 C 0.23405 0.17439 0.38316 0.0
C301 C 0.22125 0.14623 0.37444 0.0
C302 C 0.19943 0.12851 0.39173 0.0
C303 C 0.25398 0.19402 0.36245 0.0
C304 C 0.24255 0.19966 0.33495 0.0
C305 C 0.28338 0.20744 0.3695 0.0
C306 C 0.29647 0.20224 0.39834 0.0
C307 C 0.29636 0.1741 0.40801 0.0
C308 C 0.30858 0.16941 0.43534 0.0
C309 C 0.32114 0.19271 0.45313 0.0
C310 C 0.32159 0.22076 0.44357 0.0
C311 C 0.30939 0.22557 0.41626 0.0
H312 H 0.33059 0.18903 0.47428 0.0
H313 H 0.20945 0.24186 0.21279 0.0
H314 H 0.19752 0.82412 0.8165 0.0
H315 H 0.22255 0.85895 0.85271 0.0
H316 H 0.26155 0.9169 0.7814 0.0
H317 H 0.23773 0.88115 0.74538 0.0
H318 H 0.30218 0.90896 0.81638 0.0
H319 H 0.21077 0.9329 0.8322 0.0
H320 H 0.15763 0.92424 0.84178 0.0
H321 H 0.16837 0.88526 0.92612 0.0
H322 H 0.22155 0.89329 0.91687 0.0
H323 H 0.37315 1.01934 0.9126 0.0
H324 H 0.33835 0.99251 0.87698 0.0
H325 H 0.31117 0.92323 0.94099 0.0
H326 H 0.3461 0.95013 0.97696 0.0
H327 H 0.26364 0.93992 0.9094 0.0
H328 H 0.35526 0.91396 0.89037 0.0
H329 H 0.40837 0.92406 0.87993 0.0
H330 H 0.39622 0.96948 0.79985 0.0
H331 H 0.34306 0.96 0.81005 0.0
C332 C 0.21088 0.84465 0.80876 0.0
C333 C 0.21582 0.85009 0.77837 0.0
C334 C 0.22505 0.86463 0.82937 0.0
C335 C 0.24397 0.89066 0.81984 0.0
C336 C 0.24714 0.89696 0.78932 0.0
C337 C 0.23327 0.87676 0.76874 0.0
C338 C 0.26313 0.90941 0.84144 0.0
C339 C 0.29358 0.91622 0.83638 0.0
C340 C 0.25213 0.91829 0.86799 0.0
C341 C 0.22015 0.91351 0.87373 0.0
C342 C 0.20178 0.92228 0.8527 0.0
C343 C 0.17165 0.91752 0.85809 0.0
C344 C 0.15962 0.90416 0.88452 0.0
C345 C 0.17772 0.89559 0.90565 0.0
C346 C 0.20787 0.90028 0.90036 0.0
C347 C 0.35959 0.99849 0.91919 0.0
C348 C 0.36227 0.98681 0.94756 0.0
C349 C 0.33981 0.98318 0.8988 0.0
C350 C 0.32225 0.95593 0.90638 0.0
C351 C 0.32452 0.9443 0.93481 0.0
C352 C 0.34459 0.95953 0.95519 0.0
C353 C 0.30235 0.93926 0.88413 0.0
C354 C 0.27195 0.93281 0.88917 0.0
C355 C 0.31329 0.93094 0.85737 0.0
C356 C 0.34523 0.93654 0.85114 0.0
C357 C 0.36395 0.92632 0.87067 0.0
C358 C 0.39405 0.93189 0.86477 0.0
C359 C 0.40567 0.94748 0.83928 0.0
C360 C 0.38719 0.95745 0.8196 0.0
C361 C 0.35707 0.95197 0.82542 0.0
H362 H 0.42899 0.95176 0.83475 0.0
H363 H 0.13628 0.90049 0.88865 0.0
H364 H 0.63571 0.45651 0.83665 0.0
H365 H 0.61627 0.47672 0.79303 0.0
H366 H 0.61025 0.3971 0.74724 0.0
H367 H 0.63163 0.37776 0.79038 0.0
H368 H 0.62699 0.43742 0.70923 0.0
H369 H 0.54817 0.41935 0.77922 0.0
H370 H 0.52357 0.42168 0.82705 0.0
H371 H 0.54124 0.51379 0.81843 0.0
H372 H 0.56631 0.51204 0.7707 0.0
H373 H 0.52961 0.46635 0.5967 0.0
H374 H 0.55087 0.4465 0.63929 0.0
H375 H 0.57034 0.52976 0.67989 0.0
H376 H 0.54896 0.54979 0.63737 0.0
H377 H 0.54624 0.48716 0.71985 0.0
H378 H 0.62443 0.50292 0.64749 0.0
H379 H 0.64529 0.49776 0.59833 0.0
H380 H 0.62445 0.40586 0.61045 0.0
H381 H 0.6031 0.41045 0.65955 0.0
C382 C 0.63031 0.44341 0.81721 0.0
C383 C 0.63477 0.41537 0.81717 0.0
C384 C 0.61886 0.45485 0.79227 0.0
C385 C 0.61091 0.43835 0.76668 0.0
C386 C 0.61585 0.41041 0.76652 0.0
C387 C 0.62777 0.39916 0.79134 0.0
C388 C 0.59772 0.45025 0.74019 0.0
C389 C 0.60907 0.44793 0.71168 0.0
C390 C 0.57448 0.46444 0.74287 0.0
C391 C 0.55937 0.46558 0.77152 0.0
C392 C 0.54699 0.44012 0.78762 0.0
C393 C 0.53294 0.44133 0.8147 0.0
C394 C 0.53091 0.46787 0.82581 0.0
C395 C 0.54287 0.49325 0.80981 0.0
C396 C 0.55698 0.49216 0.78274 0.0
C397 C 0.53847 0.48055 0.6146 0.0
C398 C 0.53753 0.5098 0.61336 0.0
C399 C 0.55078 0.46913 0.639 0.0
C400 C 0.56256 0.48659 0.66292 0.0
C401 C 0.5615 0.51575 0.66183 0.0
C402 C 0.54934 0.52724 0.63734 0.0
C403 C 0.57561 0.47441 0.68916 0.0
C404 C 0.5642 0.47667 0.71755 0.0
C405 C 0.5984 0.45975 0.68629 0.0
C406 C 0.61194 0.45702 0.65711 0.0
C407 C 0.62417 0.4816 0.63962 0.0
C408 C 0.63609 0.47878 0.61176 0.0
C409 C 0.63612 0.45149 0.60123 0.0
C410 C 0.62438 0.42698 0.61862 0.0
C411 C 0.6124 0.42968 0.64649 0.0
H412 H 0.64528 0.44934 0.57962 0.0
H413 H 0.52002 0.46877 0.84678 0.0
H414 H 0.90201 0.663 0.35196 0.0
H415 H 0.92239 0.64333 0.30959 0.0
H416 H 0.90737 0.71286 0.25436 0.0
H417 H 0.88547 0.7316 0.29703 0.0
H418 H 0.89063 0.66825 0.22436 0.0
H419 H 0.98038 0.70102 0.27576 0.0
H420 H 0.01474 0.70767 0.31778 0.0
H421 H 1.00539 0.61626 0.3246 0.0
H422 H 0.97066 0.60901 0.28286 0.0
H423 H 0.969 0.62728 0.10108 0.0
H424 H 0.95449 0.65216 0.14343 0.0
H425 H 0.94734 0.57592 0.19785 0.0
H426 H 0.96149 0.5507 0.15534 0.0
H427 H 0.97727 0.62588 0.22691 0.0
H428 H 0.88625 0.59518 0.17403 0.0
H429 H 0.8543 0.59119 0.1302 0.0
H430 H 0.86994 0.68332 0.12418 0.0
H431 H 0.90233 0.68787 0.16776 0.0
C432 C 0.90423 0.6748 0.33107 0.0
C433 C 0.8928 0.69941 0.32829 0.0
C434 C 0.91583 0.66339 0.30652 0.0
C435 C 0.91705 0.67646 0.27813 0.0
C436 C 0.90693 0.70201 0.27566 0.0
C437 C 0.89493 0.71323 0.3003 0.0
C438 C 0.9269 0.66241 0.25108 0.0
C439 C 0.90995 0.65956 0.22499 0.0
C440 C 0.95182 0.65023 0.25123 0.0
C441 C 0.9727 0.65446 0.27634 0.0
C442 C 0.98549 0.68231 0.28635 0.0
C443 C 1.00506 0.6862 0.31011 0.0
C444 C 0.01219 0.6624 0.3239 0.0
C445 C 0.99982 0.63467 0.31392 0.0
C446 C 0.98021 0.63066 0.29019 0.0
C447 C 0.96416 0.6156 0.12196 0.0
C448 C 0.96638 0.5867 0.1244 0.0
C449 C 0.95577 0.62997 0.14633 0.0
C450 C 0.94959 0.61615 0.17423 0.0
C451 C 0.95191 0.58733 0.1768 0.0
C452 C 0.95987 0.57277 0.15227 0.0
C453 C 0.94094 0.63175 0.20057 0.0
C454 C 0.95809 0.6348 0.22644 0.0
C455 C 0.91658 0.64458 0.20002 0.0
C456 C 0.89695 0.64187 0.17398 0.0
C457 C 0.88306 0.6146 0.16323 0.0
C458 C 0.86484 0.61223 0.13845 0.0
C459 C 0.86015 0.63699 0.12436 0.0
C460 C 0.87362 0.66416 0.13508 0.0
C461 C 0.89189 0.66665 0.15984 0.0
H462 H 0.84604 0.63511 0.10518 0.0
H463 H 0.02735 0.66545 0.34228 0.0
H464 H 0.40084 0.29964 0.22979 0.0
H465 H 0.43056 0.26457 0.22045 0.0
H466 H 0.36792 0.22434 0.15475 0.0
H467 H 0.33927 0.26002 0.16333 0.0
H468 H 0.42292 0.20802 0.22411 0.0
H469 H 0.40053 0.20289 0.09767 0.0
H470 H 0.38901 0.23415 0.05765 0.0
H471 H 0.43148 0.30921 0.10575 0.0
H472 H 0.4437 0.27841 0.14581 0.0
H473 H 0.45753 0.08544 0.1571 0.0
H474 H 0.43722 0.12333 0.17878 0.0
H475 H 0.50058 0.18782 0.12953 0.0
H476 H 0.51965 0.14992 0.10692 0.0
H477 H 0.45041 0.19607 0.11985 0.0
H478 H 0.50101 0.18077 0.20766 0.0
H479 H 0.51649 0.15295 0.24852 0.0
H480 H 0.42726 0.12545 0.27886 0.0
H481 H 0.41116 0.1528 0.23792 0.0
C482 C 0.39379 0.28332 0.21328 0.0
C483 C 0.3685 0.28278 0.19659 0.0
C484 C 0.4105 0.26324 0.20811 0.0
C485 C 0.4018 0.24221 0.18643 0.0
C486 C 0.37556 0.24087 0.17094 0.0
C487 C 0.35929 0.26123 0.17569 0.0
C488 C 0.42058 0.2224 0.17889 0.0
C489 C 0.42908 0.20543 0.20135 0.0
C490 C 0.42924 0.21956 0.1493 0.0
C491 C 0.42283 0.23831 0.12484 0.0
C492 C 0.40761 0.22606 0.0996 0.0
C493 C 0.40092 0.2437 0.07693 0.0
C494 C 0.40945 0.27364 0.07919 0.0
C495 C 0.42483 0.28601 0.10405 0.0
C496 C 0.43165 0.26847 0.12675 0.0
C497 C 0.46744 0.1078 0.15163 0.0
C498 C 0.49003 0.11502 0.13053 0.0
C499 C 0.45595 0.12944 0.16401 0.0
C500 C 0.46738 0.15852 0.15582 0.0
C501 C 0.49124 0.1656 0.13606 0.0
C502 C 0.50224 0.14402 0.12329 0.0
C503 C 0.45258 0.18122 0.165 0.0
C504 C 0.44464 0.19873 0.14272 0.0
C505 C 0.44528 0.18505 0.19483 0.0
C506 C 0.45486 0.16865 0.21956 0.0
C507 C 0.48465 0.16862 0.22291 0.0
C508 C 0.49355 0.15296 0.24611 0.0
C509 C 0.47286 0.13739 0.26623 0.0
C510 C 0.44325 0.13751 0.26324 0.0
C511 C 0.43424 0.15311 0.24006 0.0
H512 H 0.47979 0.12528 0.28418 0.0
H513 H 0.40417 0.28726 0.06165 0.0
H514 H 0.21022 0.86141 0.68413 0.0
H515 H 0.18651 0.8977 0.66368 0.0
H516 H 0.12671 0.88417 0.73814 0.0
H517 H 0.15016 0.84688 0.75806 0.0
H518 H 0.09764 0.88387 0.68741 0.0
H519 H 0.18014 0.946 0.73058 0.0
H520 H 0.23231 0.9647 0.74286 0.0
H521 H 0.25253 0.98472 0.65104 0.0
H522 H 0.20055 0.96558 0.63809 0.0
H523 H 0.03958 0.99938 0.63155 0.0
H524 H 0.06446 0.97184 0.66443 0.0
H525 H 0.12538 0.96641 0.59448 0.0
H526 H 0.10067 0.99402 0.56134 0.0
H527 H 0.15232 0.97996 0.65004 0.0
H528 H 0.06983 0.91091 0.60793 0.0
H529 H 0.01729 0.89246 0.59681 0.0
H530 H 0.99694 0.88707 0.68976 0.0
H531 H 0.04936 0.90589 0.7014 0.0
C532 C 0.19199 0.86625 0.69601 0.0
C533 C 0.18147 0.85116 0.72223 0.0
C534 C 0.17868 0.88717 0.68457 0.0
C535 C 0.15492 0.89381 0.69946 0.0
C536 C 0.14499 0.87936 0.72628 0.0
C537 C 0.15835 0.85826 0.73769 0.0
C538 C 0.13959 0.91456 0.68582 0.0
C539 C 0.10949 0.90514 0.67986 0.0
C540 C 0.1551 0.9422 0.67565 0.0
C541 C 0.1864 0.95418 0.68334 0.0
C542 C 0.19572 0.95421 0.71296 0.0
C543 C 0.22527 0.9649 0.72005 0.0
C544 C 0.24573 0.97588 0.69774 0.0
C545 C 0.23665 0.97622 0.6683 0.0
C546 C 0.20713 0.96547 0.66107 0.0
C547 C 0.05834 0.99244 0.62313 0.0
C548 C 0.06805 0.99876 0.59373 0.0
C549 C 0.0725 0.9767 0.64198 0.0
C550 C 0.09664 0.96701 0.63182 0.0
C551 C 0.10679 0.97377 0.60273 0.0
C552 C 0.09253 0.98937 0.58378 0.0
C553 C 0.11071 0.9489 0.65112 0.0
C554 C 0.1405 0.95886 0.6581 0.0
C555 C 0.09488 0.9219 0.66251 0.0
C556 C 0.06345 0.91009 0.65552 0.0
C557 C 0.05412 0.90597 0.62599 0.0
C558 C 0.02437 0.89542 0.61959 0.0
C559 C 1.00378 0.88868 0.64256 0.0
C560 C 0.01291 0.89235 0.67198 0.0
C561 C 0.04264 0.90293 0.6785 0.0
H562 H 0.98075 0.88055 0.63757 0.0
H563 H 0.2686 0.98414 0.70327 0.0
H564 H 0.72471 0.37773 0.88743 0.0
H565 H 0.76847 0.39786 0.91714 0.0
H566 H 0.72723 0.46307 0.94907 0.0
H567 H 0.68333 0.44239 0.91976 0.0
H568 H 0.78315 0.48621 0.92768 0.0
H569 H 0.73667 0.4091 0.99459 0.0
H570 H 0.71404 0.3585 1.0082 0.0
H571 H 0.79381 0.33468 0.98574 0.0
H572 H 0.81683 0.38505 0.97149 0.0
H573 H 0.89836 0.54968 0.02616 0.0
H574 H 0.85067 0.52751 1.00427 0.0
H575 H 0.88047 0.45056 0.98745 0.0
H576 H 0.92716 0.47194 1.01094 0.0
H577 H 0.8284 0.43352 1.00263 0.0
H578 H 0.87439 0.50662 0.93198 0.0
H579 H 0.89873 0.55579 0.91483 0.0
H580 H 0.82274 0.5855 0.93938 0.0
H581 H 0.79807 0.53655 0.95702 0.0
C582 C 0.72458 0.39555 0.90179 0.0
C583 C 0.70028 0.4079 0.90213 0.0
C584 C 0.74974 0.40734 0.91849 0.0
C585 C 0.75126 0.43202 0.93557 0.0
C586 C 0.72671 0.44405 0.93622 0.0
C587 C 0.70152 0.43208 0.91976 0.0
C588 C 0.77884 0.44607 0.95158 0.0
C589 C 0.79283 0.47481 0.94439 0.0
C590 C 0.79211 0.43107 0.97274 0.0
C591 C 0.7784 0.40084 0.98172 0.0
C592 C 0.74933 0.39305 0.99235 0.0
C593 C 0.73643 0.36441 1.00019 0.0
C594 C 0.75243 0.34339 0.99777 0.0
C595 C 0.78142 0.35098 0.98757 0.0
C596 C 0.79442 0.37958 0.97962 0.0
C597 C 0.89466 0.52801 1.01785 0.0
C598 C 0.91666 0.51264 1.02036 0.0
C599 C 0.86737 0.51534 1.00506 0.0
C600 C 0.86175 0.48734 0.99346 0.0
C601 C 0.88382 0.47206 0.99615 0.0
C602 C 0.91071 0.48441 1.00958 0.0
C603 C 0.83312 0.47377 0.9786 0.0
C604 C 0.81884 0.44507 0.98598 0.0
C605 C 0.81991 0.48863 0.95708 0.0
C606 C 0.83452 0.51799 0.94611 0.0
C607 C 0.86294 0.52367 0.93386 0.0
C608 C 0.87679 0.5515 0.92405 0.0
C609 C 0.86233 0.57378 0.92611 0.0
C610 C 0.83393 0.56823 0.93785 0.0
C611 C 0.82 0.54045 0.94774 0.0
H612 H 0.87311 0.59532 0.91855 0.0
H613 H 0.74237 0.32123 1.00386 0.0
H614 H 0.78174 0.7163 0.38163 0.0
H615 H 0.73518 0.69364 0.40645 0.0
H616 H 0.76888 0.61965 0.42898 0.0
H617 H 0.8154 0.64241 0.40388 0.0
H618 H 0.71322 0.60198 0.41304 0.0
H619 H 0.7647 0.67226 0.48023 0.0
H620 H 0.79167 0.72053 0.49568 0.0
H621 H 0.71646 0.75396 0.47611 0.0
H622 H 0.68918 0.70596 0.46006 0.0
H623 H 0.5989 0.5418 0.51617 0.0
H624 H 0.64659 0.56264 0.49311 0.0
H625 H 0.61957 0.6412 0.47425 0.0
H626 H 0.57243 0.62091 0.49867 0.0
H627 H 0.67318 0.65557 0.48935 0.0
H628 H 0.62228 0.58464 0.42045 0.0
H629 H 0.59592 0.53594 0.40556 0.0
H630 H 0.67055 0.50314 0.42938 0.0
H631 H 0.69729 0.55168 0.44451 0.0
C632 C 0.77915 0.69522 0.39193 0.0
C633 C 0.80228 0.68121 0.39095 0.0
C634 C 0.75253 0.68224 0.40621 0.0
C635 C 0.74839 0.65497 0.42019 0.0
C636 C 0.7713 0.64065 0.41852 0.0
C637 C 0.79792 0.65363 0.40415 0.0
C638 C 0.72042 0.64166 0.43678 0.0
C639 C 0.70469 0.61362 0.42996 0.0
C640 C 0.70876 0.65674 0.45872 0.0
C641 C 0.72498 0.68556 0.46868 0.0
C642 C 0.75397 0.68994 0.47903 0.0
C643 C 0.76931 0.71725 0.48791 0.0
C644 C 0.75581 0.74031 0.48682 0.0
C645 C 0.7269 0.73608 0.47691 0.0
C646 C 0.71148 0.70883 0.46793 0.0
C647 C 0.60313 0.56358 0.50723 0.0
C648 C 0.58162 0.57959 0.5093 0.0
C649 C 0.63047 0.57547 0.49372 0.0
C650 C 0.63685 0.60344 0.48106 0.0
C651 C 0.6155 0.6196 0.48361 0.0
C652 C 0.58839 0.60792 0.49763 0.0
C653 C 0.66558 0.61599 0.46529 0.0
C654 C 0.68158 0.6439 0.47235 0.0
C655 C 0.6775 0.60073 0.44363 0.0
C656 C 0.66166 0.57171 0.43391 0.0
C657 C 0.63301 0.56702 0.42261 0.0
C658 C 0.61802 0.53946 0.4141 0.0
C659 C 0.63152 0.51647 0.41657 0.0
C660 C 0.66011 0.52098 0.42748 0.0
C661 C 0.67521 0.54851 0.43598 0.0
H662 H 0.61986 0.49518 0.40992 0.0
H663 H 0.76772 0.76144 0.4937 0.0
H664 H 0.28917 0.31161 0.14623 0.0
H665 H 0.2492 0.33003 0.12471 0.0
H666 H 0.27208 0.40405 0.18094 0.0
H667 H 0.31271 0.38589 0.20166 0.0
H668 H 0.2031 0.33567 0.15422 0.0
H669 H 0.24882 0.45997 0.15067 0.0
H670 H 0.29545 0.49529 0.13984 0.0
H671 H 0.32327 0.43392 0.08545 0.0
H672 H 0.27665 0.39838 0.0956 0.0
H673 H 0.09023 0.41021 0.16518 0.0
H674 H 0.13446 0.39204 0.17117 0.0
H675 H 0.15984 0.41749 0.08098 0.0
H676 H 0.11568 0.43564 0.07485 0.0
H677 H 0.20512 0.43443 0.1173 0.0
H678 H 0.13364 0.34709 0.09945 0.0
H679 H 0.0871 0.31058 0.10664 0.0
H680 H 0.11128 0.29553 0.19614 0.0
H681 H 0.15781 0.33226 0.18964 0.0
C682 C 0.28631 0.33236 0.15301 0.0
C683 C 0.30406 0.34765 0.1752 0.0
C684 C 0.26331 0.3427 0.14104 0.0
C685 C 0.25767 0.36844 0.15116 0.0
C686 C 0.27629 0.38438 0.17243 0.0
C687 C 0.29941 0.37409 0.18427 0.0
C688 C 0.2307 0.37709 0.14175 0.0
C689 C 0.20358 0.35722 0.14596 0.0
C690 C 0.23131 0.40506 0.13063 0.0
C691 C 0.25931 0.42642 0.12413 0.0
C692 C 0.26483 0.45405 0.13629 0.0
C693 C 0.29127 0.47411 0.13029 0.0
C694 C 0.31234 0.46683 0.11204 0.0
C695 C 0.30697 0.4395 0.09968 0.0
C696 C 0.28056 0.41937 0.10559 0.0
C697 C 0.10503 0.41154 0.14652 0.0
C698 C 0.09954 0.42441 0.11958 0.0
C699 C 0.1303 0.40122 0.14997 0.0
C700 C 0.15036 0.40331 0.12646 0.0
C701 C 0.14472 0.4158 0.09944 0.0
C702 C 0.11952 0.42618 0.096 0.0
C703 C 0.17762 0.39319 0.13035 0.0
C704 C 0.20472 0.4128 0.12526 0.0
C705 C 0.17704 0.36481 0.14014 0.0
C706 C 0.14912 0.34261 0.14412 0.0
C707 C 0.12894 0.33615 0.12074 0.0
C708 C 0.10258 0.31539 0.12468 0.0
C709 C 0.09621 0.30079 0.15185 0.0
C710 C 0.11623 0.30687 0.17512 0.0
C711 C 0.14262 0.32764 0.17131 0.0
H712 H 0.07579 0.28472 0.15485 0.0
H713 H 0.33281 0.48238 0.10743 0.0
H714 H 0.61016 0.3639 0.92233 0.0
H715 H 0.59592 0.32007 0.95316 0.0
H716 H 0.67211 0.29321 0.92233 0.0
H717 H 0.68506 0.3363 0.89011 0.0
H718 H 0.62912 0.24958 0.92077 0.0
H719 H 0.66285 0.31815 0.99662 0.0
H720 H 0.66551 0.36237 1.02495 0.0
H721 H 0.57428 0.33341 0.04775 0.0
H722 H 0.57086 0.28929 1.01918 0.0
H723 H 0.59472 0.15612 0.06819 0.0
H724 H 0.61629 0.2018 0.04238 0.0
H725 H 0.55647 0.17668 0.96985 0.0
H726 H 0.53526 0.13091 0.99514 0.0
H727 H 0.59645 0.24638 1.02546 0.0
H728 H 0.58645 0.20534 0.90501 0.0
H729 H 0.58737 0.16114 0.87806 0.0
H730 H 0.63901 0.13536 0.9472 0.0
H731 H 0.63874 0.17957 0.97436 0.0
C732 C 0.62405 0.34879 0.92256 0.0
C733 C 0.64901 0.35379 0.90419 0.0
C734 C 0.61602 0.32372 0.94035 0.0
C735 C 0.63304 0.3031 0.94065 0.0
C736 C 0.65851 0.30858 0.92279 0.0
C737 C 0.66629 0.33352 0.90471 0.0
C738 C 0.62339 0.27521 0.95807 0.0
C739 C 0.62209 0.24905 0.94369 0.0
C740 C 0.61445 0.274 0.98823 0.0
C741 C 0.61655 0.30048 1.00556 0.0
C742 C 0.6433 0.32129 1.00752 0.0
C743 C 0.64496 0.34633 1.02363 0.0
C744 C 0.6201 0.35069 0.03809 0.0
C745 C 0.59352 0.33001 0.03652 0.0
C746 C 0.59171 0.30498 1.02039 0.0
C747 C 0.58623 0.16018 0.04665 0.0
C748 C 0.56328 0.13948 0.03379 0.0
C749 C 0.59856 0.18649 0.03191 0.0
C750 C 0.5884 0.19285 1.00384 0.0
C751 C 0.56528 0.17232 0.99114 0.0
C752 C 0.55302 0.14603 1.00578 0.0
C753 C 0.6017 0.22092 0.98794 0.0
C754 C 0.60363 0.24703 1.00257 0.0
C755 C 0.61171 0.22213 0.95818 0.0
C756 C 0.61233 0.19565 0.94183 0.0
C757 C 0.59811 0.1903 0.91439 0.0
C758 C 0.59849 0.16523 0.89909 0.0
C759 C 0.61316 0.14542 0.91095 0.0
C760 C 0.62757 0.15067 0.93809 0.0
C761 C 0.62728 0.17572 0.95346 0.0
H762 H 0.61341 0.12601 0.89909 0.0
H763 H 0.62144 0.37008 0.05055 0.0
H764 H 0.88138 0.77945 0.34163 0.0
H765 H 0.90813 0.82495 0.36353 0.0
H766 H 0.94224 0.77713 0.43086 0.0
H767 H 0.91618 0.73181 0.40827 0.0
H768 H 0.9109 0.81817 0.45328 0.0
H769 H 0.98889 0.81562 0.38456 0.0
H770 H 1.0099 0.8126 0.33501 0.0
H771 H 0.98369 0.88894 0.30689 0.0
H772 H 0.96213 0.89218 0.35617 0.0
H773 H 0.99026 0.93895 0.53378 0.0
H774 H 0.97371 0.89359 0.50764 0.0
H775 H 0.97102 0.94096 0.42587 0.0
H776 H 0.98985 0.98611 0.45167 0.0
H777 H 0.98698 0.89884 0.4102 0.0
H778 H 0.90617 0.90173 0.4736 0.0
H779 H 0.88086 0.90591 0.52061 0.0
H780 H 0.90561 0.83107 0.55555 0.0
H781 H 0.93138 0.82665 0.50886 0.0
C782 C 0.89601 0.77871 0.36001 0.0
C783 C 0.89737 0.75186 0.3725 0.0
C784 C 0.9109 0.80479 0.37296 0.0
C785 C 0.92716 0.80479 0.39921 0.0
C786 C 0.92993 0.77801 0.41072 0.0
C787 C 0.91554 0.752 0.39738 0.0
C788 C 0.93924 0.83233 0.41581 0.0
C789 C 0.92787 0.83566 0.44402 0.0
C790 C 0.96054 0.85583 0.40354 0.0
C791 C 0.97364 0.85398 0.37398 0.0
C792 C 0.98737 0.83162 0.36774 0.0
C793 C 0.99944 0.8299 0.33972 0.0
C794 C 0.99807 0.85052 0.31779 0.0
C795 C 0.98471 0.87296 0.32388 0.0
C796 C 0.97259 0.87477 0.35186 0.0
C797 C 0.98604 0.93971 0.51024 0.0
C798 C 0.9913 0.96643 0.49501 0.0
C799 C 0.97622 0.91355 0.49515 0.0
C800 C 0.97009 0.91312 0.46445 0.0
C801 C 0.97538 0.93999 0.44936 0.0
C802 C 0.98607 0.96607 0.46426 0.0
C803 C 0.95863 0.88505 0.44802 0.0
C804 C 0.97002 0.88153 0.41971 0.0
C805 C 0.93665 0.86162 0.45986 0.0
C806 C 0.92096 0.86405 0.48785 0.0
C807 C 0.90635 0.88626 0.49137 0.0
C808 C 0.89191 0.88866 0.51795 0.0
C809 C 0.89171 0.86882 0.54108 0.0
C810 C 0.90584 0.84645 0.53763 0.0
C811 C 0.92034 0.84397 0.51111 0.0
H812 H 0.88054 0.87073 0.56166 0.0
H813 H 1.00742 0.84915 0.29611 0.0
H814 H 0.26915 0.80833 0.71297 0.0
H815 H 0.29928 0.77998 0.68875 0.0
H816 H 0.22658 0.70505 0.6931 0.0
H817 H 0.19653 0.73377 0.71786 0.0
H818 H 0.27906 0.69325 0.7102 0.0
H819 H 0.2436 0.73891 0.62839 0.0
H820 H 0.23227 0.77941 0.60005 0.0
H821 H 0.32396 0.82147 0.59593 0.0
H822 H 0.33582 0.78147 0.62472 0.0
H823 H 0.36583 0.62132 0.62347 0.0
H824 H 0.32475 0.64098 0.63899 0.0
H825 H 0.38187 0.72634 0.63912 0.0
H826 H 0.4227 0.70705 0.62242 0.0
H827 H 0.32992 0.72705 0.61516 0.0
H828 H 0.36416 0.68584 0.70322 0.0
H829 H 0.37619 0.64665 0.73321 0.0
H830 H 0.28722 0.59711 0.72615 0.0
H831 H 0.27476 0.6359 0.69578 0.0
C832 C 0.25982 0.78578 0.70873 0.0
C833 C 0.23085 0.77294 0.71715 0.0
C834 C 0.27683 0.76968 0.6948 0.0
C835 C 0.26499 0.74054 0.68878 0.0
C836 C 0.23601 0.72756 0.69747 0.0
C837 C 0.21894 0.74379 0.71148 0.0
C838 C 0.28343 0.72384 0.67392 0.0
C839 C 0.28968 0.70019 0.68908 0.0
C840 C 0.29757 0.73325 0.64659 0.0
C841 C 0.29058 0.75721 0.62887 0.0
C842 C 0.26134 0.75687 0.62161 0.0
C843 C 0.25482 0.77974 0.60545 0.0
C844 C 0.27738 0.80301 0.59622 0.0
C845 C 0.30651 0.80342 0.60309 0.0
C846 C 0.31314 0.78063 0.6193 0.0
C847 C 0.36954 0.64434 0.62639 0.0
C848 C 0.39758 0.66263 0.62187 0.0
C849 C 0.3461 0.65549 0.6355 0.0
C850 C 0.35036 0.68506 0.64054 0.0
C851 C 0.37814 0.70343 0.63542 0.0
C852 C 0.40152 0.69234 0.62619 0.0
C853 C 0.32622 0.69702 0.65188 0.0
C854 C 0.31887 0.71976 0.63599 0.0
C855 C 0.31117 0.68684 0.67858 0.0
C856 C 0.31862 0.6636 0.69695 0.0
C857 C 0.34722 0.6665 0.70788 0.0
C858 C 0.35411 0.64438 0.72497 0.0
C859 C 0.33251 0.61937 0.7315 0.0
C860 C 0.30394 0.61647 0.72102 0.0
C861 C 0.29695 0.63852 0.70388 0.0
H862 H 0.33788 0.60226 0.74474 0.0
H863 H 0.27228 0.8207 0.58372 0.0
H864 H 0.70894 0.79253 0.81713 0.0
H865 H 0.74601 0.80338 0.77725 0.0
H866 H 0.80031 0.86843 0.83157 0.0
H867 H 0.76364 0.85667 0.87136 0.0
H868 H 0.76188 0.84962 0.74676 0.0
H869 H 0.87188 0.88079 0.8145 0.0
H870 H 0.89377 0.86298 0.85841 0.0
H871 H 0.83519 0.77962 0.84962 0.0
H872 H 0.8134 0.79664 0.80518 0.0
H873 H 0.86023 0.96549 0.6854 0.0
H874 H 0.82962 0.93 0.71835 0.0
H875 H 0.88417 0.87086 0.70229 0.0
H876 H 0.91594 0.90706 0.66984 0.0
H877 H 0.86981 0.87098 0.76044 0.0
H878 H 0.81811 0.85826 0.67045 0.0
H879 H 0.7968 0.87253 0.62436 0.0
H880 H 0.73884 0.91067 0.67484 0.0
H881 H 0.7601 0.89703 0.72125 0.0
C882 C 0.7291 0.80877 0.82037 0.0
C883 C 0.73382 0.82392 0.84684 0.0
C884 C 0.7502 0.81495 0.79781 0.0
C885 C 0.77618 0.83647 0.80151 0.0
C886 C 0.7809 0.85123 0.82838 0.0
C887 C 0.75994 0.84483 0.85094 0.0
C888 C 0.79686 0.84593 0.77641 0.0
C889 C 0.78546 0.85386 0.74967 0.0
C890 C 0.82767 0.85063 0.77976 0.0
C891 C 0.8409 0.8401 0.80643 0.0
C892 C 0.8638 0.85859 0.82172 0.0
C893 C 0.87619 0.84863 0.84674 0.0
C894 C 0.8659 0.8202 0.85676 0.0
C895 C 0.84315 0.80165 0.84182 0.0
C896 C 0.83076 0.81145 0.81669 0.0
C897 C 0.86605 0.94512 0.68909 0.0
C898 C 0.89063 0.93918 0.67507 0.0
C899 C 0.84827 0.92468 0.70768 0.0
C900 C 0.85432 0.89761 0.71239 0.0
C901 C 0.87902 0.89157 0.69876 0.0
C902 C 0.89699 0.91217 0.6801 0.0
C903 C 0.83464 0.87614 0.73189 0.0
C904 C 0.84622 0.86596 0.75744 0.0
C905 C 0.80396 0.86864 0.72722 0.0
C906 C 0.79077 0.87665 0.69937 0.0
C907 C 0.80091 0.86981 0.67174 0.0
C908 C 0.78883 0.87779 0.64554 0.0
C909 C 0.76648 0.8925 0.64667 0.0
C910 C 0.75613 0.89923 0.674 0.0
C911 C 0.76815 0.89133 0.70027 0.0
H912 H 0.75717 0.89868 0.62636 0.0
H913 H 0.87563 0.81255 0.87607 0.0
H914 H 0.77848 0.24227 0.38865 0.0
H915 H 0.76151 0.20785 0.34906 0.0
H916 H 0.83997 0.2454 0.29867 0.0
H917 H 0.85693 0.27962 0.3388 0.0
H918 H 0.74893 0.2249 0.29494 0.0
H919 H 0.85177 0.19151 0.25082 0.0
H920 H 0.89856 0.18368 0.26996 0.0
H921 H 0.86001 0.16373 0.35633 0.0
H922 H 0.81286 0.17086 0.33759 0.0
H923 H 0.71374 0.16957 0.15574 0.0
H924 H 0.7491 0.19542 0.19147 0.0
H925 H 0.73945 0.1176 0.24404 0.0
H926 H 0.70358 0.09175 0.20902 0.0
H927 H 0.7981 0.15676 0.24612 0.0
H928 H 0.69464 0.15349 0.2596 0.0
H929 H 0.64654 0.1593 0.24218 0.0
H930 H 0.68387 0.24885 0.223 0.0
H931 H 0.73237 0.24339 0.23977 0.0
C932 C 0.79224 0.24253 0.36935 0.0
C933 C 0.81876 0.26335 0.36631 0.0
C934 C 0.78261 0.22308 0.34679 0.0
C935 C 0.79941 0.22418 0.32088 0.0
C936 C 0.82679 0.24405 0.31858 0.0
C937 C 0.83645 0.26351 0.34131 0.0
C938 C 0.78672 0.20661 0.29529 0.0
C939 C 0.75978 0.21006 0.28432 0.0
C940 C 0.80082 0.18718 0.28147 0.0
C941 C 0.82886 0.18205 0.29283 0.0
C942 C 0.85323 0.18529 0.27385 0.0
C943 C 0.87982 0.18098 0.28464 0.0
C944 C 0.88228 0.17331 0.31436 0.0
C945 C 0.85811 0.16976 0.33333 0.0
C946 C 0.83145 0.17396 0.32263 0.0
C947 C 0.71962 0.15778 0.17455 0.0
C948 C 0.70534 0.12873 0.17981 0.0
C949 C 0.74005 0.17252 0.19477 0.0
C950 C 0.74659 0.15843 0.2205 0.0
C951 C 0.73479 0.12878 0.22422 0.0
C952 C 0.71422 0.11404 0.20411 0.0
C953 C 0.76062 0.17542 0.24589 0.0
C954 C 0.78758 0.17185 0.25675 0.0
C955 C 0.74641 0.19448 0.26011 0.0
C956 C 0.71717 0.19796 0.2506 0.0
C957 C 0.69263 0.17436 0.25145 0.0
C958 C 0.6653 0.17759 0.24171 0.0
C959 C 0.66217 0.20441 0.23141 0.0
C960 C 0.68635 0.22807 0.23092 0.0
C961 C 0.71376 0.22492 0.24053 0.0
H962 H 0.64099 0.20687 0.22389 0.0
H963 H 0.90291 0.17006 0.32268 0.0
H964 H 0.41208 0.68351 0.24766 0.0
H965 H 0.43299 0.66201 0.28974 0.0
H966 H 0.38241 0.70003 0.35 0.0
H967 H 0.36168 0.72147 0.30769 0.0
H968 H 0.43564 0.6995 0.37424 0.0
H969 H 0.35711 0.62942 0.32979 0.0
H970 H 0.33028 0.60036 0.28948 0.0
H971 H 0.40491 0.56572 0.27217 0.0
H972 H 0.43213 0.59448 0.31252 0.0
H973 H 0.43763 0.60537 0.4983 0.0
H974 H 0.42273 0.63245 0.45706 0.0
H975 H 0.46669 0.58861 0.39577 0.0
H976 H 0.48101 0.56092 0.43687 0.0
H977 H 0.4177 0.59306 0.37193 0.0
H978 H 0.4954 0.66134 0.41883 0.0
H979 H 0.52112 0.68923 0.4604 0.0
H980 H 0.44827 0.72766 0.4733 0.0
H981 H 0.42194 0.6997 0.43203 0.0
C982 C 0.40652 0.6883 0.26997 0.0
C983 C 0.3858 0.70478 0.27439 0.0
C984 C 0.41801 0.67554 0.29408 0.0
C985 C 0.40896 0.67879 0.32332 0.0
C986 C 0.38985 0.69701 0.32785 0.0
C987 C 0.37826 0.70964 0.30367 0.0
C988 C 0.4178 0.6618 0.34877 0.0
C989 C 0.43144 0.6762 0.3738 0.0
C990 C 0.41289 0.63134 0.3484 0.0
C991 C 0.39674 0.61429 0.32395 0.0
C992 C 0.36785 0.61573 0.31727 0.0
C993 C 0.35254 0.59923 0.2945 0.0
C994 C 0.36593 0.58132 0.27818 0.0
C995 C 0.39459 0.57967 0.28477 0.0
C996 C 0.40993 0.59597 0.30766 0.0
C997 C 0.44405 0.6013 0.47605 0.0
C998 C 0.46064 0.58079 0.47117 0.0
C999 C 0.43568 0.6171 0.45235 0.0
C1000 C 0.44395 0.61324 0.42297 0.0
C1001 C 0.45998 0.5923 0.41802 0.0
C1002 C 0.46821 0.57638 0.44169 0.0
C1003 C 0.4358 0.63071 0.39747 0.0
C1004 C 0.42214 0.61637 0.37239 0.0
C1005 C 0.44072 0.66122 0.39786 0.0
C1006 C 0.45659 0.67822 0.42252 0.0
C1007 C 0.48479 0.6756 0.43065 0.0
C1008 C 0.49948 0.69144 0.45414 0.0
C1009 C 0.48631 0.71015 0.46953 0.0
C1010 C 0.45844 0.71313 0.46139 0.0
C1011 C 0.44363 0.69731 0.43793 0.0
H1012 H 0.49772 0.72238 0.48772 0.0
H1013 H 0.35407 0.56865 0.26048 0.0
H1014 H 0.12781 0.44428 0.76218 0.0
H1015 H 0.10849 0.46515 0.80474 0.0
H1016 H 0.113 0.3907 0.85816 0.0
H1017 H 0.13167 0.36959 0.81509 0.0
H1018 H 0.06588 0.40532 0.87379 0.0
H1019 H 0.1645 0.46033 0.86229 0.0
H1020 H 0.20755 0.4901 0.836 0.0
H1021 H 0.16027 0.55516 0.81852 0.0
H1022 H 0.11676 0.52556 0.84432 0.0
H1023 H 0.04956 0.47426 1.01187 0.0
H1024 H 0.06945 0.45154 0.97082 0.0
H1025 H 0.05548 0.51806 0.91094 0.0
H1026 H 0.03548 0.54067 0.95164 0.0
H1027 H 0.10866 0.50684 0.90027 0.0
H1028 H 1.00965 0.45009 0.91192 0.0
H1029 H 0.96763 0.41988 0.93934 0.0
H1030 H 0.01789 0.35764 0.95858 0.0
H1031 H 0.06037 0.38771 0.9316 0.0
C1032 C 0.12473 0.43241 0.78303 0.0
C1033 C 0.13149 0.4053 0.78515 0.0
C1034 C 0.11377 0.44444 0.80759 0.0
C1035 C 0.10966 0.43004 0.8354 0.0
C1036 C 0.11588 0.40259 0.83731 0.0
C1037 C 0.12661 0.39043 0.8126 0.0
C1038 C 0.09899 0.44358 0.86224 0.0
C1039 C 0.07567 0.4274 0.8797 0.0
C1040 C 0.11109 0.47262 0.87033 0.0
C1041 C 0.13727 0.4906 0.85501 0.0
C1042 C 0.16322 0.4809 0.85268 0.0
C1043 C 0.18771 0.49775 0.83787 0.0
C1044 C 0.18662 0.52447 0.82554 0.0
C1045 C 0.16106 0.53444 0.82805 0.0
C1046 C 0.13648 0.51764 0.84278 0.0
C1047 C 0.05076 0.48415 0.99 0.0
C1048 C 0.04069 0.50943 0.98537 0.0
C1049 C 0.06207 0.47099 0.96636 0.0
C1050 C 0.06393 0.48276 0.93732 0.0
C1051 C 0.05443 0.5083 0.93286 0.0
C1052 C 0.04283 0.52125 0.95635 0.0
C1053 C 0.07554 0.46862 0.91158 0.0
C1054 C 0.09902 0.48472 0.89435 0.0
C1055 C 0.06381 0.43945 0.90392 0.0
C1056 C 0.03828 0.4213 0.92002 0.0
C1057 C 0.01182 0.43008 0.9222 0.0
C1058 C 0.98791 0.41296 0.93762 0.0
C1059 C 0.99012 0.3869 0.95077 0.0
C1060 C 0.01623 0.37786 0.94843 0.0
C1061 C 0.04022 0.39492 0.93306 0.0
H1062 H 0.97158 0.37367 0.9627 0.0
H1063 H 0.2056 0.53749 0.81408 0.0
H1064 H 0.62407 0.83339 0.89385 0.0
H1065 H 0.59992 0.86782 0.91725 0.0
H1066 H 0.68005 0.90473 0.96389 0.0
H1067 H 0.70373 0.87007 0.94077 0.0
H1068 H 0.63392 0.89895 0.99961 0.0
H1069 H 0.66054 0.9366 0.90161 0.0
H1070 H 0.6618 0.93497 0.84711 0.0
H1071 H 0.56796 0.92096 0.84439 0.0
H1072 H 0.5661 0.922 0.89896 0.0
H1073 H 0.60454 0.03053 0.04177 0.0
H1074 H 0.62671 0.99653 1.01586 0.0
H1075 H 0.54297 0.95732 0.97718 0.0
H1076 H 0.52057 0.99129 1.00284 0.0
H1077 H 0.58966 0.96384 0.93729 0.0
H1078 H 0.56383 0.9265 0.03599 0.0
H1079 H 0.56355 0.92911 0.09047 0.0
H1080 H 0.65749 0.94384 0.09153 0.0
H1081 H 0.65836 0.94178 0.03699 0.0
C1082 C 0.63619 0.84879 0.90932 0.0
C1083 C 0.66547 0.84927 0.91584 0.0
C1084 C 0.62258 0.86845 0.92252 0.0
C1085 C 0.63833 0.88902 0.94207 0.0
C1086 C 0.66749 0.88902 0.94895 0.0
C1087 C 0.68097 0.86931 0.93587 0.0
C1088 C 0.62474 0.91095 0.95504 0.0
C1089 C 0.62453 0.91333 0.98596 0.0
C1090 C 0.61206 0.9294 0.93722 0.0
C1091 C 0.61316 0.92908 0.90439 0.0
C1092 C 0.64015 0.93295 0.88941 0.0
C1093 C 0.64098 0.93216 0.8585 0.0
C1094 C 0.61497 0.9278 0.8423 0.0
C1095 C 0.58809 0.92429 0.85698 0.0
C1096 C 0.58713 0.92499 0.88789 0.0
C1097 C 0.59088 1.01492 0.02748 0.0
C1098 C 0.56073 1.01344 1.02457 0.0
C1099 C 0.60358 0.99547 1.01277 0.0
C1100 C 0.58635 0.97424 0.99495 0.0
C1101 C 0.55658 0.97353 0.99092 0.0
C1102 C 0.54382 0.99289 1.0057 0.0
C1103 C 0.59905 0.95185 0.98175 0.0
C1104 C 0.59904 0.94939 0.95086 0.0
C1105 C 0.61169 0.93342 0.99956 0.0
C1106 C 0.61118 0.93425 0.03239 0.0
C1107 C 0.58445 0.9305 0.04783 0.0
C1108 C 0.58418 0.93185 0.07872 0.0
C1109 C 0.6105 0.9367 0.09445 0.0
C1110 C 0.63713 0.94012 0.07932 0.0
C1111 C 0.63752 0.93884 0.04842 0.0
H1112 H 0.61025 0.93776 0.11836 0.0
H1113 H 0.61565 0.9272 0.81837 0.0
H1114 H 0.82379 0.23253 0.42551 0.0
H1115 H 0.85219 0.19694 0.43784 0.0
H1116 H 0.93258 0.26075 0.41956 0.0
H1117 H 0.90385 0.29621 0.40687 0.0
H1118 H 0.93291 0.20632 0.39736 0.0
H1119 H 0.91217 0.24762 0.48846 0.0
H1120 H 0.88045 0.26272 0.5254 0.0
H1121 H 0.83185 0.17502 0.53748 0.0
H1122 H 0.86296 0.15944 0.50017 0.0
H1123 H 0.02589 0.13067 0.47658 0.0
H1124 H 1.00098 0.16642 0.45661 0.0
H1125 H 0.91706 0.10976 0.47828 0.0
H1126 H 0.94161 0.07418 0.49843 0.0
H1127 H 0.92075 0.1627 0.49848 0.0
H1128 H 0.94064 0.1214 0.4067 0.0
H1129 H 0.97161 0.10623 0.36902 0.0
H1130 H 0.02171 0.19355 0.35817 0.0
H1131 H 0.99127 0.20918 0.3961 0.0
C1132 C 0.8475 0.23868 0.42391 0.0
C1133 C 0.86186 0.26685 0.41546 0.0
C1134 C 0.86369 0.21851 0.43099 0.0
C1135 C 0.89451 0.22631 0.42986 0.0
C1136 C 0.90884 0.25433 0.42058 0.0
C1137 C 0.89257 0.27453 0.41355 0.0
C1138 C 0.91164 0.20553 0.43973 0.0
C1139 C 0.93061 0.19704 0.41959 0.0
C1140 C 0.90824 0.19315 0.46858 0.0
C1141 C 0.88974 0.2024 0.49132 0.0
C1142 C 0.89458 0.23157 0.49882 0.0
C1143 C 0.87673 0.24022 0.51985 0.0
C1144 C 0.85411 0.21985 0.53374 0.0
C1145 C 0.84935 0.19078 0.52668 0.0
C1146 C 0.8671 0.18202 0.5056 0.0
C1147 C 1.00212 0.12565 0.47671 0.0
C1148 C 0.98577 0.09957 0.48921 0.0
C1149 C 0.98791 0.14611 0.46525 0.0
C1150 C 0.95713 0.14075 0.46593 0.0
C1151 C 0.94082 0.11441 0.47764 0.0
C1152 C 0.95494 0.09404 0.4891 0.0
C1153 C 0.94177 0.16303 0.456 0.0
C1154 C 0.92317 0.17195 0.47624 0.0
C1155 C 0.94556 0.17575 0.42727 0.0
C1156 C 0.96389 0.1664 0.40449 0.0
C1157 C 0.95843 0.13732 0.39648 0.0
C1158 C 0.97585 0.12865 0.37503 0.0
C1159 C 0.99867 0.1489 0.36127 0.0
C1160 C 1.00406 0.17788 0.36888 0.0
C1161 C 0.98672 0.18666 0.39034 0.0
H1162 H 0.01213 0.14214 0.34467 0.0
H1163 H 0.84031 0.22659 0.55001 0.0
H1164 H 0.27572 0.66948 0.24387 0.0
H1165 H 0.23093 0.64638 0.21691 0.0
H1166 H 0.27538 0.67338 0.13398 0.0
H1167 H 0.32044 0.69525 0.16087 0.0
H1168 H 0.21774 0.68576 0.13972 0.0
H1169 H 0.2651 0.6073 0.15069 0.0
H1170 H 0.28871 0.57434 0.17872 0.0
H1171 H 0.21015 0.54393 0.23028 0.0
H1172 H 0.1862 0.57706 0.20284 0.0
H1173 H 0.10372 0.60719 0.04711 0.0
H1174 H 0.15138 0.62821 0.06976 0.0
H1175 H 0.12102 0.5841 0.15218 0.0
H1176 H 0.07416 0.56237 0.12954 0.0
H1177 H 0.17365 0.58064 0.14481 0.0
H1178 H 0.12656 0.65911 0.13818 0.0
H1179 H 0.10177 0.69316 0.11357 0.0
H1180 H 0.17742 0.72482 0.05818 0.0
H1181 H 0.20252 0.69066 0.08222 0.0
C1182 C 0.27597 0.67004 0.2199 0.0
C1183 C 0.30153 0.68418 0.20447 0.0
C1184 C 0.25038 0.65702 0.20451 0.0
C1185 C 0.24974 0.65822 0.17338 0.0
C1186 C 0.27527 0.67233 0.15796 0.0
C1187 C 0.30096 0.68486 0.17332 0.0
C1188 C 0.22243 0.64488 0.15694 0.0
C1189 C 0.20827 0.66272 0.14045 0.0
C1190 C 0.20967 0.61494 0.15851 0.0
C1191 C 0.22396 0.59488 0.17491 0.0
C1192 C 0.25294 0.59378 0.16818 0.0
C1193 C 0.26637 0.57503 0.18393 0.0
C1194 C 0.25097 0.55711 0.20632 0.0
C1195 C 0.22207 0.55785 0.21295 0.0
C1196 C 0.20855 0.5766 0.1973 0.0
C1197 C 0.10725 0.60194 0.07003 0.0
C1198 C 0.08495 0.58308 0.08641 0.0
C1199 C 0.13451 0.61412 0.08307 0.0
C1200 C 0.13992 0.60815 0.11296 0.0
C1201 C 0.11769 0.58912 0.12914 0.0
C1202 C 0.0907 0.57673 0.11608 0.0
C1203 C 0.1685 0.62151 0.12764 0.0
C1204 C 0.18301 0.60368 0.14387 0.0
C1205 C 0.1813 0.65157 0.12626 0.0
C1206 C 0.16628 0.6721 0.11176 0.0
C1207 C 0.13781 0.67318 0.12059 0.0
C1208 C 0.12372 0.69252 0.10678 0.0
C1209 C 0.13797 0.71108 0.08426 0.0
C1210 C 0.16638 0.71038 0.07558 0.0
C1211 C 0.18056 0.69105 0.0893 0.0
H1212 H 0.12703 0.72604 0.0736 0.0
H1213 H 0.2614 0.5426 0.21848 0.0
H1214 H 0.21031 0.35762 0.70255 0.0
H1215 H 0.25391 0.3745 0.67093 0.0
H1216 H 0.23144 0.45639 0.65892 0.0
H1217 H 0.18668 0.43829 0.68759 0.0
H1218 H 0.25551 0.45128 0.6134 0.0
H1219 H 0.28765 0.43775 0.71241 0.0
H1220 H 0.29215 0.41106 0.75874 0.0
H1221 H 0.33109 0.3528 0.71078 0.0
H1222 H 0.32652 0.37898 0.6641 0.0
H1223 H 0.40482 0.53871 0.59619 0.0
H1224 H 0.35788 0.51369 0.61892 0.0
H1225 H 0.36588 0.43411 0.58062 0.0
H1226 H 0.41244 0.4592 0.55696 0.0
H1227 H 0.3505 0.43545 0.64884 0.0
H1228 H 0.32021 0.45666 0.54948 0.0
H1229 H 0.31823 0.48962 0.50731 0.0
H1230 H 0.27813 0.54146 0.56291 0.0
H1231 H 0.28029 0.50902 0.60552 0.0
C1232 C 0.21432 0.37889 0.69242 0.0
C1233 C 0.19514 0.39676 0.69811 0.0
C1234 C 0.23974 0.38892 0.67477 0.0
C1235 C 0.24723 0.41743 0.6631 0.0
C1236 C 0.22698 0.4345 0.66754 0.0
C1237 C 0.20129 0.42419 0.6843 0.0
C1238 C 0.27603 0.43002 0.64691 0.0
C1239 C 0.27613 0.44782 0.62159 0.0
C1240 C 0.30359 0.42582 0.65676 0.0
C1241 C 0.30643 0.4101 0.68475 0.0
C1242 C 0.29702 0.41914 0.71174 0.0
C1243 C 0.2996 0.40412 0.73805 0.0
C1244 C 0.31182 0.3802 0.73769 0.0
C1245 C 0.32157 0.3713 0.71102 0.0
C1246 C 0.31901 0.38622 0.68463 0.0
C1247 C 0.39658 0.51591 0.59241 0.0
C1248 C 0.41256 0.50109 0.57453 0.0
C1249 C 0.36966 0.50159 0.6055 0.0
C1250 C 0.3582 0.47189 0.6017 0.0
C1251 C 0.37416 0.45697 0.58404 0.0
C1252 C 0.40076 0.47143 0.57033 0.0
C1253 C 0.32955 0.45663 0.61601 0.0
C1254 C 0.32964 0.43853 0.64086 0.0
C1255 C 0.30232 0.46131 0.60641 0.0
C1256 C 0.30066 0.48056 0.58073 0.0
C1257 C 0.3112 0.47522 0.55276 0.0
C1258 C 0.30999 0.49378 0.52877 0.0
C1259 C 0.29812 0.51766 0.53244 0.0
C1260 C 0.28734 0.52297 0.5601 0.0
C1261 C 0.28852 0.50449 0.58416 0.0
H1262 H 0.29722 0.53201 0.51385 0.0
H1263 H 0.31379 0.36859 0.75808 0.0
H1264 H 0.72517 0.76019 0.86663 0.0
H1265 H 0.7654 0.73665 0.87693 0.0
H1266 H 0.79401 0.79486 0.94883 0.0
H1267 H 0.75447 0.81885 0.93775 0.0
H1268 H 0.8395 0.78867 0.91583 0.0
H1269 H 0.75517 0.72626 0.96227 0.0
H1270 H 0.70472 0.69581 0.96422 0.0
H1271 H 0.72713 0.64035 0.89896 0.0
H1272 H 0.77764 0.67074 0.89631 0.0
H1273 H 0.92753 0.71278 0.99726 0.0
H1274 H 0.88947 0.7368 0.9809 0.0
H1275 H 0.86836 0.67815 0.90826 0.0
H1276 H 0.90626 0.65396 0.92462 0.0
H1277 H 0.81949 0.68395 0.93884 0.0
H1278 H 0.90448 0.74502 0.89381 0.0
H1279 H 0.95469 0.7759 0.89108 0.0
H1280 H 0.93117 0.83402 0.95272 0.0
H1281 H 0.8809 0.80324 0.95616 0.0
C1282 C 0.74009 0.76771 0.88465 0.0
C1283 C 0.73653 0.79069 0.90193 0.0
C1284 C 0.76291 0.75432 0.89057 0.0
C1285 C 0.78236 0.76374 0.91396 0.0
C1286 C 0.77909 0.78712 0.93085 0.0
C1287 C 0.75636 0.80053 0.92483 0.0
C1288 C 0.80615 0.74925 0.92095 0.0
C1289 C 0.83516 0.76583 0.92109 0.0
C1290 C 0.8004 0.71933 0.92719 0.0
C1291 C 0.77009 0.70095 0.92886 0.0
C1292 C 0.74928 0.7077 0.94816 0.0
C1293 C 0.72068 0.69044 0.94942 0.0
C1294 C 0.7127 0.66621 0.93166 0.0
C1295 C 0.73333 0.65915 0.91266 0.0
C1296 C 0.76195 0.67638 0.91129 0.0
C1297 C 0.91474 0.70505 0.97782 0.0
C1298 C 0.91985 0.68162 0.96213 0.0
C1299 C 0.8932 0.71888 0.96839 0.0
C1300 C 0.87635 0.70939 0.94322 0.0
C1301 C 0.88127 0.68586 0.92764 0.0
C1302 C 0.90298 0.6722 0.9369 0.0
C1303 C 0.85289 0.72342 0.93381 0.0
C1304 C 0.8239 0.70675 0.93328 0.0
C1305 C 0.85868 0.75326 0.92717 0.0
C1306 C 0.88901 0.77162 0.92552 0.0
C1307 C 0.9101 0.7642 0.90705 0.0
C1308 C 0.93855 0.78174 0.90531 0.0
C1309 C 0.94614 0.80686 0.92179 0.0
C1310 C 0.92527 0.81452 0.94001 0.0
C1311 C 0.8968 0.79704 0.94186 0.0
H1312 H 0.96818 0.82042 0.92038 0.0
H1313 H 0.69055 0.65286 0.93267 0.0
H1314 H 0.36965 0.78175 0.26386 0.0
H1315 H 0.3939 0.83008 0.24485 0.0
H1316 H 0.4366 0.79192 0.17735 0.0
H1317 H 0.41205 0.74381 0.19637 0.0
H1318 H 0.44681 0.86429 0.23372 0.0
H1319 H 0.43741 0.82458 0.11441 0.0
H1320 H 0.40589 0.78782 0.08328 0.0
H1321 H 0.33226 0.78662 0.14018 0.0
H1322 H 0.36354 0.82285 0.172 0.0
H1323 H 0.52475 0.97788 0.13998 0.0
H1324 H 0.50497 0.9318 0.16491 0.0
H1325 H 0.41871 0.93152 0.13191 0.0
H1326 H 0.43858 0.97785 0.10627 0.0
H1327 H 0.42779 0.87946 0.12727 0.0
H1328 H 0.43866 0.94647 0.2059 0.0
H1329 H 0.46444 0.98634 0.23711 0.0
H1330 H 0.52643 0.93753 0.26313 0.0
H1331 H 0.50124 0.89751 0.23174 0.0
C1332 C 0.38547 0.78382 0.24601 0.0
C1333 C 0.38951 0.75896 0.23209 0.0
C1334 C 0.39896 0.81147 0.23472 0.0
C1335 C 0.4166 0.81492 0.20904 0.0
C1336 C 0.42266 0.79009 0.19675 0.0
C1337 C 0.40922 0.76253 0.20808 0.0
C1338 C 0.42709 0.84402 0.1941 0.0
C1339 C 0.44276 0.8675 0.21041 0.0
C1340 C 0.42135 0.84885 0.16381 0.0
C1341 C 0.40283 0.82614 0.14566 0.0
C1342 C 0.41454 0.81627 0.12036 0.0
C1343 C 0.39675 0.79549 0.10266 0.0
C1344 C 0.36713 0.78476 0.10986 0.0
C1345 C 0.35526 0.79477 0.13478 0.0
C1346 C 0.37305 0.81524 0.15279 0.0
C1347 C 0.50149 0.96824 0.13796 0.0
C1348 C 0.48331 0.982 0.12106 0.0
C1349 C 0.49014 0.94174 0.15249 0.0
C1350 C 0.46014 0.92807 0.1509 0.0
C1351 C 0.44191 0.9415 0.13373 0.0
C1352 C 0.45331 0.96813 0.11908 0.0
C1353 C 0.44812 0.89965 0.16668 0.0
C1354 C 0.43209 0.87628 0.15054 0.0
C1355 C 0.4531 0.89514 0.19725 0.0
C1356 C 0.46821 0.91909 0.21626 0.0
C1357 C 0.45791 0.94432 0.21811 0.0
C1358 C 0.4724 0.96694 0.23586 0.0
C1359 C 0.49709 0.9645 0.25204 0.0
C1360 C 0.50731 0.9394 0.25056 0.0
C1361 C 0.49292 0.91673 0.23282 0.0
H1362 H 0.50828 0.98203 0.26577 0.0
H1363 H 0.35334 0.76879 0.09606 0.0
H1364 H 0.14844 0.30968 0.74046 0.0
H1365 H 0.13336 0.26603 0.71123 0.0
H1366 H 0.12774 0.31806 0.63349 0.0
H1367 H 0.14218 0.36191 0.66332 0.0
H1368 H 0.08168 0.27426 0.63434 0.0
H1369 H 0.18386 0.28098 0.644 0.0
H1370 H 0.23111 0.28649 0.66983 0.0
H1371 H 0.19641 0.20857 0.71985 0.0
H1372 H 0.14877 0.20283 0.69465 0.0
H1373 H 0.10419 0.13103 0.56187 0.0
H1374 H 0.12383 0.17732 0.58546 0.0
H1375 H 0.0394 0.1728 0.62546 0.0
H1376 H 0.0195 0.12685 0.60142 0.0
H1377 H 0.13342 0.1952 0.63874 0.0
H1378 H 0.0284 0.23939 0.63759 0.0
H1379 H 0.98421 0.23613 0.60698 0.0
H1380 H 0.0302 0.21613 0.53103 0.0
H1381 H 0.07478 0.2197 0.56105 0.0
C1382 C 0.14436 0.31181 0.71704 0.0
C1383 C 0.14669 0.33935 0.70425 0.0
C1384 C 0.13576 0.28675 0.70019 0.0
C1385 C 0.12943 0.28827 0.66978 0.0
C1386 C 0.13236 0.31593 0.65679 0.0
C1387 C 0.14099 0.34111 0.67376 0.0
C1388 C 0.11908 0.26103 0.65208 0.0
C1389 C 0.09309 0.25704 0.63539 0.0
C1390 C 0.13397 0.23839 0.65254 0.0
C1391 C 0.16265 0.2416 0.66759 0.0
C1392 C 0.18624 0.26512 0.66064 0.0
C1393 C 0.2131 0.26827 0.67516 0.0
C1394 C 0.21674 0.24792 0.6965 0.0
C1395 C 0.19354 0.22433 0.70332 0.0
C1396 C 0.16661 0.2211 0.68891 0.0
C1397 C 0.08967 0.13984 0.5756 0.0
C1398 C 0.06005 0.12488 0.57944 0.0
C1399 C 0.10105 0.16648 0.58926 0.0
C1400 C 0.08324 0.17926 0.6072 0.0
C1401 C 0.05374 0.16414 0.61136 0.0
C1402 C 0.04232 0.13755 0.59763 0.0
C1403 C 0.09555 0.20806 0.62167 0.0
C1404 C 0.12195 0.21237 0.63773 0.0
C1405 C 0.0814 0.23124 0.62004 0.0
C1406 C 0.05484 0.22953 0.60168 0.0
C1407 C 0.02913 0.23443 0.61433 0.0
C1408 C 1.004 0.23251 0.59708 0.0
C1409 C 1.00437 0.22583 0.56711 0.0
C1410 C 0.02991 0.2212 0.55428 0.0
C1411 C 0.05511 0.22315 0.5714 0.0
H1412 H 0.98488 0.22431 0.55381 0.0
H1413 H 0.23756 0.2504 0.70772 0.0
H1414 H 0.7939 0.31192 0.46946 0.0
H1415 H 0.75842 0.33708 0.48918 0.0
H1416 H 0.77524 0.39648 0.41456 0.0
H1417 H 0.81197 0.37222 0.39594 0.0
H1418 H 0.76192 0.42329 0.46133 0.0
H1419 H 0.72026 0.33415 0.41313 0.0
H1420 H 0.71189 0.28204 0.40447 0.0
H1421 H 0.6772 0.26364 0.49255 0.0
H1422 H 0.6857 0.31568 0.50186 0.0
H1423 H 0.62091 0.45197 0.44135 0.0
H1424 H 0.66644 0.43606 0.43611 0.0
H1425 H 0.64879 0.38899 0.51909 0.0
H1426 H 0.60309 0.4048 0.52443 0.0
H1427 H 0.66344 0.3568 0.47273 0.0
H1428 H 0.70101 0.44868 0.51724 0.0
H1429 H 0.70739 0.50111 0.52177 0.0
H1430 H 0.74741 0.51477 0.43556 0.0
H1431 H 0.74095 0.46234 0.43034 0.0
C1432 C 0.79083 0.33107 0.45804 0.0
C1433 C 0.80536 0.34013 0.43114 0.0
C1434 C 0.77033 0.34522 0.46905 0.0
C1435 C 0.76354 0.36817 0.45289 0.0
C1436 C 0.7799 0.3787 0.42731 0.0
C1437 C 0.80073 0.36481 0.41659 0.0
C1438 C 0.73739 0.37902 0.46065 0.0
C1439 C 0.74039 0.40877 0.46373 0.0
C1440 C 0.70923 0.36009 0.46391 0.0
C1441 C 0.70392 0.32879 0.4583 0.0
C1442 C 0.71103 0.31899 0.43071 0.0
C1443 C 0.70625 0.28948 0.42568 0.0
C1444 C 0.69412 0.26955 0.44798 0.0
C1445 C 0.68665 0.2791 0.47533 0.0
C1446 C 0.69143 0.3086 0.48049 0.0
C1447 C 0.62671 0.43821 0.45844 0.0
C1448 C 0.60839 0.42954 0.48323 0.0
C1449 C 0.65283 0.42933 0.45555 0.0
C1450 C 0.66105 0.41152 0.47733 0.0
C1451 C 0.64285 0.40283 0.50212 0.0
C1452 C 0.61685 0.41194 0.50517 0.0
C1453 C 0.68802 0.40096 0.47349 0.0
C1454 C 0.68507 0.37126 0.47087 0.0
C1455 C 0.71603 0.41999 0.47011 0.0
C1456 C 0.72037 0.45156 0.47334 0.0
C1457 C 0.71103 0.46284 0.49917 0.0
C1458 C 0.71469 0.49256 0.50188 0.0
C1459 C 0.72783 0.51125 0.47898 0.0
C1460 C 0.73731 0.50026 0.45331 0.0
C1461 C 0.7337 0.47054 0.45048 0.0
H1462 H 0.73072 0.53425 0.48117 0.0
H1463 H 0.69044 0.24671 0.44404 0.0
loop_
_geom_bond_atom_site_label_1
_geom_bond_atom_site_label_2
_geom_bond_distance
_geom_bond_site_symmetry_2
_ccdc_geom_bond_type
C0 N1 1.317 . S
C0 N2 1.348 . S
C0 C3 1.485 . S
N1 C0 1.317 . S
N1 N5 1.370 . S
N2 C0 1.348 . S
N2 C4 1.346 . S
C3 C0 1.485 . S
C3 H7 0.960 . S
C3 H8 0.961 . S
C3 H9 0.960 . S
C4 N2 1.346 . S
C4 N5 1.307 . S
C4 C6 1.486 . S
N5 N1 1.370 . S
N5 C4 1.307 . S
C6 C4 1.486 . S
C6 H10 0.960 . S
C6 H11 0.960 . S
C6 H12 0.959 . S
H7 C3 0.960 . S
H8 C3 0.961 . S
H9 C3 0.960 . S
H10 C6 0.960 . S
H11 C6 0.960 . S
H12 C6 0.959 . S
C13 N14 1.317 . S
C13 N15 1.348 . S
C13 C16 1.485 . S
N14 C13 1.317 . S
N14 N18 1.370 . S
N15 C13 1.348 . S
N15 C17 1.346 . S
C16 C13 1.485 . S
C16 H20 0.960 . S
C16 H21 0.961 . S
C16 H22 0.960 . S
C17 N15 1.346 . S
C17 N18 1.307 . S
C17 C19 1.486 . S
N18 N14 1.370 . S
N18 C17 1.307 . S
C19 C17 1.486 . S
C19 H23 0.960 . S
C19 H24 0.960 . S
C19 H25 0.959 . S
H20 C16 0.960 . S
H21 C16 0.961 . S
H22 C16 0.960 . S
H23 C19 0.960 . S
H24 C19 0.960 . S
H25 C19 0.959 . S
C26 N27 1.317 . S
C26 N28 1.348 . S
C26 C29 1.485 . S
N27 C26 1.317 . S
N27 N31 1.370 . S
N28 C26 1.348 . S
N28 C30 1.346 . S
C29 C26 1.485 . S
C29 H33 0.960 . S
C29 H34 0.961 . S
C29 H35 0.960 . S
C30 N28 1.346 . S
C30 N31 1.307 . S
C30 C32 1.486 . S
N31 N27 1.370 . S
N31 C30 1.307 . S
C32 C30 1.486 . S
C32 H36 0.960 . S
C32 H37 0.960 . S
C32 H38 0.959 . S
H33 C29 0.960 . S
H34 C29 0.961 . S
H35 C29 0.960 . S
H36 C32 0.960 . S
H37 C32 0.960 . S
H38 C32 0.959 . S
C39 N40 1.317 . S
C39 N41 1.348 . S
C39 C42 1.485 . S
N40 C39 1.317 . S
N40 N44 1.370 . S
N41 C39 1.348 . S
N41 C43 1.346 . S
C42 C39 1.485 . S
C42 H46 0.960 . S
C42 H47 0.961 . S
C42 H48 0.960 . S
C43 N41 1.346 . S
C43 N44 1.307 . S
C43 C45 1.486 . S
N44 N40 1.370 . S
N44 C43 1.307 . S
C45 C43 1.486 . S
C45 H49 0.960 . S
C45 H50 0.960 . S
C45 H51 0.959 . S
H46 C42 0.960 . S
H47 C42 0.961 . S
H48 C42 0.960 . S
H49 C45 0.960 . S
H50 C45 0.960 . S
H51 C45 0.959 . S
C52 N53 1.317 . S
C52 N54 1.348 . S
C52 C55 1.485 . S
N53 C52 1.317 . S
N53 N57 1.370 . S
N54 C52 1.348 . S
N54 C56 1.346 . S
C55 C52 1.485 . S
C55 H59 0.960 . S
C55 H60 0.961 . S
C55 H61 0.960 . S
C56 N54 1.346 . S
C56 N57 1.307 . S
C56 C58 1.486 . S
N57 N53 1.370 . S
N57 C56 1.307 . S
C58 C56 1.486 . S
C58 H62 0.960 . S
C58 H63 0.960 . S
C58 H64 0.959 . S
H59 C55 0.960 . S
H60 C55 0.961 . S
H61 C55 0.960 . S
H62 C58 0.960 . S
H63 C58 0.960 . S
H64 C58 0.959 . S
C65 N66 1.317 . S
C65 N67 1.348 . S
C65 C68 1.485 . S
N66 C65 1.317 . S
N66 N70 1.370 . S
N67 C65 1.348 . S
N67 C69 1.346 . S
C68 C65 1.485 . S
C68 H72 0.960 . S
C68 H73 0.961 . S
C68 H74 0.960 . S
C69 N67 1.346 . S
C69 N70 1.307 . S
C69 C71 1.486 . S
N70 N66 1.370 . S
N70 C69 1.307 . S
C71 C69 1.486 . S
C71 H75 0.960 . S
C71 H76 0.960 . S
C71 H77 0.959 . S
H72 C68 0.960 . S
H73 C68 0.961 . S
H74 C68 0.960 . S
H75 C71 0.960 . S
H76 C71 0.960 . S
H77 C71 0.959 . S
C78 N79 1.317 . S
C78 N80 1.348 . S
C78 C81 1.485 . S
N79 C78 1.317 . S
N79 N83 1.370 . S
N80 C78 1.348 . S
N80 C82 1.346 . S
C81 C78 1.485 . S
C81 H85 0.960 . S
C81 H86 0.961 . S
C81 H87 0.960 . S
C82 N80 1.346 . S
C82 N83 1.307 . S
C82 C84 1.486 . S
N83 N79 1.370 . S
N83 C82 1.307 . S
C84 C82 1.486 . S
C84 H88 0.960 . S
C84 H89 0.960 . S
C84 H90 0.959 . S
H85 C81 0.960 . S
H86 C81 0.961 . S
H87 C81 0.960 . S
H88 C84 0.960 . S
H89 C84 0.960 . S
H90 C84 0.959 . S
C91 N92 1.317 . S
C91 N93 1.348 . S
C91 C94 1.485 . S
N92 C91 1.317 . S
N92 N96 1.370 . S
N93 C91 1.348 . S
N93 C95 1.346 . S
C94 C91 1.485 . S
C94 H98 0.960 . S
C94 H99 0.961 . S
C94 H100 0.960 . S
C95 N93 1.346 . S
C95 N96 1.307 . S
C95 C97 1.486 . S
N96 N92 1.370 . S
N96 C95 1.307 . S
C97 C95 1.486 . S
C97 H101 0.960 . S
C97 H102 0.960 . S
C97 H103 0.959 . S
H98 C94 0.960 . S
H99 C94 0.961 . S
H100 C94 0.960 . S
H101 C97 0.960 . S
H102 C97 0.960 . S
H103 C97 0.959 . S
Tb104 C113 2.764 . S
Tb104 O114 2.325 . S
Tb104 O117 2.303 . S
Tb104 O121 2.322 1_545 S
Tb104 O122 2.349 1_545 S
Tb104 O125 2.415 . S
Tb104 O126 2.399 . S
Tb105 O115 2.328 . S
Tb105 O116 2.349 . S
Tb105 O118 2.415 1_445 S
Tb105 O119 2.399 1_455 S
Tb105 O120 2.325 1_545 S
Tb105 O123 2.303 1_545 S
Tb105 C134 2.764 1_445 S
C106 O122 1.261 . S
C106 O123 1.257 . S
C107 C110 1.358 . S
C107 C111 1.332 . S
C107 C113 1.504 . S
C108 C109 1.373 . S
C108 C112 1.308 . S
C109 C108 1.373 . S
C109 C110 1.429 . S
C109 H136 0.932 . S
C110 C107 1.358 . S
C110 C109 1.429 . S
C110 H137 0.930 . S
C111 C107 1.332 . S
C111 C112 1.394 . S
C111 H138 0.932 . S
C112 C108 1.308 . S
C112 C111 1.394 . S
C112 H139 0.929 . S
C113 Tb104 2.764 . S
C113 C107 1.504 . S
C113 O125 1.239 . S
C113 O126 1.263 . S
O114 Tb104 2.325 . S
O114 C124 1.236 . S
O115 Tb105 2.328 . S
O115 C124 1.269 . S
O116 Tb105 2.349 . S
O116 C127 1.261 . S
O117 Tb104 2.303 . S
O117 C127 1.257 . S
O118 Tb105 2.415 1_665 S
O118 C134 1.239 . S
O119 Tb105 2.399 1_655 S
O119 C134 1.263 1_545 S
O120 Tb105 2.325 1_565 S
O120 C135 1.236 . S
O121 Tb104 2.322 1_565 S
O121 C135 1.257 . S
O122 Tb104 2.349 1_565 S
O122 C106 1.261 . S
O123 Tb105 2.303 1_565 S
O123 C106 1.257 . S
C124 O114 1.236 . S
C124 O115 1.269 . S
O125 Tb104 2.415 . S
O125 C113 1.239 . S
O126 Tb104 2.399 . S
O126 C113 1.263 . S
C127 O116 1.261 . S
C127 O117 1.257 . S
C128 C131 1.358 . S
C128 C132 1.332 . S
C128 C134 1.504 . S
C129 C130 1.373 . S
C129 C133 1.308 . S
C130 C129 1.373 . S
C130 C131 1.429 . S
C130 H140 0.932 . S
C131 C128 1.358 . S
C131 C130 1.429 . S
C131 H141 0.930 . S
C132 C128 1.332 . S
C132 C133 1.394 . S
C132 H142 0.932 . S
C133 C129 1.308 . S
C133 C132 1.394 . S
C133 H143 0.929 . S
C134 Tb105 2.764 1_665 S
C134 O118 1.239 . S
C134 O119 1.263 1_565 S
C134 C128 1.504 . S
C135 O120 1.236 . S
C135 O121 1.257 . S
H136 C109 0.932 . S
H137 C110 0.930 . S
H138 C111 0.932 . S
H139 C112 0.929 . S
H140 C130 0.932 . S
H141 C131 0.930 . S
H142 C132 0.932 . S
H143 C133 0.929 . S
Tb144 C153 2.764 . S
Tb144 O154 2.325 . S
Tb144 O157 2.303 . S
Tb144 O161 2.322 1_545 S
Tb144 O162 2.349 . S
Tb144 O165 2.415 . S
Tb144 O166 2.399 . S
Tb145 O155 2.322 . S
Tb145 O156 2.349 . S
Tb145 O158 2.415 1_545 S
Tb145 O159 2.409 . S
Tb145 O160 2.325 1_545 S
Tb145 O163 2.303 . S
Tb145 C174 2.769 1_545 S
C146 O162 1.261 1_565 S
C146 O163 1.256 1_565 S
C147 C150 1.358 . S
C147 C151 1.332 . S
C147 C153 1.504 . S
C148 C149 1.373 . S
C148 C152 1.308 . S
C149 C148 1.373 . S
C149 C150 1.429 . S
C149 H176 0.932 . S
C150 C147 1.358 . S
C150 C149 1.429 . S
C150 H177 0.930 . S
C151 C147 1.332 . S
C151 C152 1.394 . S
C151 H178 0.932 . S
C152 C148 1.308 . S
C152 C151 1.394 . S
C152 H179 0.929 . S
C153 Tb144 2.764 . S
C153 C147 1.504 . S
C153 O165 1.239 . S
C153 O166 1.263 . S
O154 Tb144 2.325 . S
O154 C164 1.236 . S
O155 Tb145 2.322 . S
O155 C164 1.257 . S
O156 Tb145 2.349 . S
O156 C167 1.261 . S
O157 Tb144 2.303 . S
O157 C167 1.257 . S
O158 Tb145 2.415 1_565 S
O158 C174 1.239 . S
O159 Tb145 2.409 . S
O159 C174 1.234 1_545 S
O160 Tb145 2.325 1_565 S
O160 C175 1.236 . S
O161 Tb144 2.322 1_565 S
O161 C175 1.257 . S
O162 Tb144 2.349 . S
O162 C146 1.261 1_545 S
O163 Tb145 2.303 . S
O163 C146 1.256 1_545 S
C164 O154 1.236 . S
C164 O155 1.257 . S
O165 Tb144 2.415 . S
O165 C153 1.239 . S
O166 Tb144 2.399 . S
O166 C153 1.263 . S
C167 O156 1.261 . S
C167 O157 1.257 . S
C168 C171 1.358 . S
C168 C172 1.332 . S
C168 C174 1.499 1_556 S
C169 C170 1.373 . S
C169 C173 1.308 . S
C170 C169 1.373 . S
C170 C171 1.429 . S
C170 H180 0.932 . S
C171 C168 1.358 . S
C171 C170 1.429 . S
C171 H181 0.930 . S
C172 C168 1.332 . S
C172 C173 1.394 . S
C172 H182 0.932 . S
C173 C169 1.308 . S
C173 C172 1.394 . S
C173 H183 0.929 . S
C174 Tb145 2.769 1_565 S
C174 O158 1.239 . S
C174 O159 1.234 1_565 S
C174 C168 1.499 1_554 S
C175 O160 1.236 . S
C175 O161 1.257 . S
H176 C149 0.932 . S
H177 C150 0.930 . S
H178 C151 0.932 . S
H179 C152 0.929 . S
H180 C170 0.932 . S
H181 C171 0.930 . S
H182 C172 0.932 . S
H183 C173 0.929 . S
Tb184 C193 2.764 . S
Tb184 O194 2.325 . S
Tb184 O197 2.303 . S
Tb184 O201 2.322 . S
Tb184 O202 2.349 . S
Tb184 O205 2.415 . S
Tb184 O206 2.399 . S
Tb185 O195 2.322 . S
Tb185 O196 2.349 . S
Tb185 O198 2.415 . S
Tb185 O199 2.399 . S
Tb185 O200 2.325 . S
Tb185 O203 2.303 . S
Tb185 C214 2.764 . S
C186 O202 1.261 . S
C186 O203 1.257 . S
C187 C190 1.358 . S
C187 C191 1.332 . S
C187 C193 1.504 . S
C188 C189 1.373 . S
C188 C192 1.308 . S
C189 C188 1.373 . S
C189 C190 1.429 . S
C189 H216 0.932 . S
C190 C187 1.358 . S
C190 C189 1.429 . S
C190 H217 0.930 . S
C191 C187 1.332 . S
C191 C192 1.394 . S
C191 H218 0.932 . S
C192 C188 1.308 . S
C192 C191 1.394 . S
C192 H219 0.929 . S
C193 Tb184 2.764 . S
C193 C187 1.504 . S
C193 O205 1.239 . S
C193 O206 1.263 . S
O194 Tb184 2.325 . S
O194 C204 1.236 . S
O195 Tb185 2.322 . S
O195 C204 1.257 . S
O196 Tb185 2.349 . S
O196 C207 1.261 . S
O197 Tb184 2.303 . S
O197 C207 1.257 . S
O198 Tb185 2.415 . S
O198 C214 1.239 . S
O199 Tb185 2.399 . S
O199 C214 1.263 . S
O200 Tb185 2.325 . S
O200 C215 1.236 . S
O201 Tb184 2.322 . S
O201 C215 1.257 . S
O202 Tb184 2.349 . S
O202 C186 1.261 . S
O203 Tb185 2.303 . S
O203 C186 1.257 . S
C204 O194 1.236 . S
C204 O195 1.257 . S
O205 Tb184 2.415 . S
O205 C193 1.239 . S
O206 Tb184 2.399 . S
O206 C193 1.263 . S
C207 O196 1.261 . S
C207 O197 1.257 . S
C208 C211 1.358 . S
C208 C212 1.332 . S
C208 C214 1.504 . S
C209 C210 1.373 . S
C209 C213 1.308 . S
C210 C209 1.373 . S
C210 C211 1.429 . S
C210 H220 0.932 . S
C211 C208 1.358 . S
C211 C210 1.429 . S
C211 H221 0.930 . S
C212 C208 1.332 . S
C212 C213 1.394 . S
C212 H222 0.932 . S
C213 C209 1.308 . S
C213 C212 1.394 . S
C213 H223 0.929 . S
C214 Tb185 2.764 . S
C214 O198 1.239 . S
C214 O199 1.263 . S
C214 C208 1.504 . S
C215 O200 1.236 . S
C215 O201 1.257 . S
H216 C189 0.932 . S
H217 C190 0.930 . S
H218 C191 0.932 . S
H219 C192 0.929 . S
H220 C210 0.932 . S
H221 C211 0.930 . S
H222 C212 0.932 . S
H223 C213 0.929 . S
Tb224 C233 2.765 1_455 S
Tb224 O234 2.326 1_455 S
Tb224 O237 2.303 1_456 S
Tb224 O241 2.322 1_556 S
Tb224 O242 2.349 . S
Tb224 O245 2.416 1_455 S
Tb224 O246 2.399 1_455 S
Tb225 O235 2.322 1_455 S
Tb225 O236 2.349 1_455 S
Tb225 O238 2.415 . S
Tb225 O239 2.399 . S
Tb225 O240 2.325 . S
Tb225 O243 2.303 1_554 S
Tb225 C254 2.764 . S
C226 O242 1.261 . S
C226 O243 1.257 . S
C227 C230 1.358 . S
C227 C231 1.332 . S
C227 C233 1.504 . S
C228 C229 1.373 . S
C228 C232 1.308 . S
C229 C228 1.373 . S
C229 C230 1.429 . S
C229 H256 0.932 . S
C230 C227 1.358 . S
C230 C229 1.429 . S
C230 H257 0.930 . S
C231 C227 1.332 . S
C231 C232 1.394 . S
C231 H258 0.932 . S
C232 C228 1.308 . S
C232 C231 1.394 . S
C232 H259 0.929 . S
C233 Tb224 2.765 1_655 S
C233 C227 1.504 . S
C233 O245 1.239 . S
C233 O246 1.263 . S
O234 Tb224 2.326 1_655 S
O234 C244 1.236 . S
O235 Tb225 2.322 1_655 S
O235 C244 1.257 1_554 S
O236 Tb225 2.349 1_655 S
O236 C247 1.261 . S
O237 Tb224 2.303 1_654 S
O237 C247 1.257 . S
O238 Tb225 2.415 . S
O238 C254 1.239 . S
O239 Tb225 2.399 . S
O239 C254 1.263 . S
O240 Tb225 2.325 . S
O240 C255 1.236 . S
O241 Tb224 2.322 1_554 S
O241 C255 1.257 . S
O242 Tb224 2.349 . S
O242 C226 1.261 . S
O243 Tb225 2.303 1_556 S
O243 C226 1.257 . S
C244 O234 1.236 . S
C244 O235 1.257 1_556 S
O245 Tb224 2.416 1_655 S
O245 C233 1.239 . S
O246 Tb224 2.399 1_655 S
O246 C233 1.263 . S
C247 O236 1.261 . S
C247 O237 1.257 . S
C248 C251 1.358 . S
C248 C252 1.332 . S
C248 C254 1.504 . S
C249 C250 1.373 . S
C249 C253 1.308 . S
C250 C249 1.373 . S
C250 C251 1.429 . S
C250 H260 0.932 . S
C251 C248 1.358 . S
C251 C250 1.429 . S
C251 H261 0.930 . S
C252 C248 1.332 . S
C252 C253 1.394 . S
C252 H262 0.932 . S
C253 C249 1.308 . S
C253 C252 1.394 . S
C253 H263 0.929 . S
C254 Tb225 2.764 . S
C254 O238 1.239 . S
C254 O239 1.263 . S
C254 C248 1.504 . S
C255 O240 1.236 . S
C255 O241 1.257 . S
H256 C229 0.932 . S
H257 C230 0.930 . S
H258 C231 0.932 . S
H259 C232 0.929 . S
H260 C250 0.932 . S
H261 C251 0.930 . S
H262 C252 0.932 . S
H263 C253 0.929 . S
H264 C282 0.951 . S
H265 C284 0.951 . S
H266 C286 0.950 . S
H267 C287 0.950 . S
H268 C289 0.950 . S
H269 C292 0.950 . S
H270 C293 0.950 . S
H271 C295 0.950 . S
H272 C296 0.950 . S
H273 C297 0.951 . S
H274 C299 0.951 . S
H275 C301 0.950 . S
H276 C302 0.950 . S
H277 C304 0.950 . S
H278 C307 0.950 . S
H279 C308 0.950 . S
H280 C310 0.950 . S
H281 C311 0.950 . S
C282 H264 0.951 . S
C282 C283 1.366 . S
C282 C284 1.388 . S
C283 C282 1.366 . S
C283 C287 1.385 . S
C284 H265 0.951 . S
C284 C282 1.388 . S
C284 C285 1.366 . S
C285 C284 1.366 . S
C285 C286 1.414 . S
C285 C288 1.499 . S
C286 H266 0.950 . S
C286 C285 1.414 . S
C286 C287 1.374 . S
C287 H267 0.950 . S
C287 C283 1.385 . S
C287 C286 1.374 . S
C288 C285 1.499 . S
C288 C289 1.373 . S
C288 C290 1.389 . S
C289 H268 0.950 . S
C289 C288 1.373 . S
C289 C305 1.377 . S
C290 C288 1.389 . S
C290 C291 1.524 . S
C290 C304 1.377 . S
C291 C290 1.524 . S
C291 C292 1.397 . S
C291 C296 1.363 . S
C292 H269 0.950 . S
C292 C291 1.397 . S
C292 C293 1.334 . S
C293 H270 0.950 . S
C293 C292 1.334 . S
C293 C294 1.287 . S
C294 C293 1.287 . S
C294 C295 1.524 . S
C294 H313 0.913 . S
C295 H271 0.950 . S
C295 C294 1.524 . S
C295 C296 1.415 . S
C296 H272 0.950 . S
C296 C291 1.363 . S
C296 C295 1.415 . S
C297 H273 0.951 . S
C297 C298 1.366 . S
C297 C299 1.388 . S
C298 C297 1.366 . S
C298 C302 1.385 . S
C299 H274 0.951 . S
C299 C297 1.388 . S
C299 C300 1.366 . S
C300 C299 1.366 . S
C300 C301 1.414 . S
C300 C303 1.499 . S
C301 H275 0.950 . S
C301 C300 1.414 . S
C301 C302 1.374 . S
C302 H276 0.950 . S
C302 C298 1.385 . S
C302 C301 1.374 . S
C303 C300 1.499 . S
C303 C304 1.373 . S
C303 C305 1.389 . S
C304 H277 0.950 . S
C304 C290 1.377 . S
C304 C303 1.373 . S
C305 C289 1.377 . S
C305 C303 1.389 . S
C305 C306 1.524 . S
C306 C305 1.524 . S
C306 C307 1.397 . S
C306 C311 1.363 . S
C307 H278 0.950 . S
C307 C306 1.397 . S
C307 C308 1.334 . S
C308 H279 0.950 . S
C308 C307 1.334 . S
C308 C309 1.287 . S
C309 C308 1.287 . S
C309 C310 1.524 . S
C309 H312 0.999 . S
C310 H280 0.950 . S
C310 C309 1.524 . S
C310 C311 1.415 . S
C311 H281 0.950 . S
C311 C306 1.363 . S
C311 C310 1.415 . S
H312 C309 0.999 . S
H313 C294 0.913 . S
H314 C332 0.951 . S
H315 C334 0.951 . S
H316 C336 0.950 . S
H317 C337 0.950 . S
H318 C339 0.950 . S
H319 C342 0.950 . S
H320 C343 0.950 . S
H321 C345 0.950 . S
H322 C346 0.950 . S
H323 C347 0.951 . S
H324 C349 0.951 . S
H325 C351 0.950 . S
H326 C352 0.950 . S
H327 C354 0.950 . S
H328 C357 0.950 . S
H329 C358 0.950 . S
H330 C360 0.950 . S
H331 C361 0.950 . S
C332 H314 0.951 . S
C332 C333 1.366 . S
C332 C334 1.388 . S
C333 C332 1.366 . S
C333 C337 1.385 . S
C334 H315 0.951 . S
C334 C332 1.388 . S
C334 C335 1.366 . S
C335 C334 1.366 . S
C335 C336 1.414 . S
C335 C338 1.499 . S
C336 H316 0.950 . S
C336 C335 1.414 . S
C336 C337 1.374 . S
C337 H317 0.950 . S
C337 C333 1.385 . S
C337 C336 1.374 . S
C338 C335 1.499 . S
C338 C339 1.373 . S
C338 C340 1.389 . S
C339 H318 0.950 . S
C339 C338 1.373 . S
C339 C355 1.377 . S
C340 C338 1.389 . S
C340 C341 1.524 . S
C340 C354 1.377 . S
C341 C340 1.524 . S
C341 C342 1.397 . S
C341 C346 1.363 . S
C342 H319 0.950 . S
C342 C341 1.397 . S
C342 C343 1.334 . S
C343 H320 0.950 . S
C343 C342 1.334 . S
C343 C344 1.287 . S
C344 C343 1.287 . S
C344 C345 1.524 . S
C344 H363 0.913 . S
C345 H321 0.950 . S
C345 C344 1.524 . S
C345 C346 1.415 . S
C346 H322 0.950 . S
C346 C341 1.363 . S
C346 C345 1.415 . S
C347 H323 0.951 . S
C347 C348 1.366 . S
C347 C349 1.388 . S
C348 C347 1.366 . S
C348 C352 1.385 . S
C349 H324 0.951 . S
C349 C347 1.388 . S
C349 C350 1.366 . S
C350 C349 1.366 . S
C350 C351 1.414 . S
C350 C353 1.499 . S
C351 H325 0.950 . S
C351 C350 1.414 . S
C351 C352 1.374 . S
C352 H326 0.950 . S
C352 C348 1.385 . S
C352 C351 1.374 . S
C353 C350 1.499 . S
C353 C354 1.373 . S
C353 C355 1.389 . S
C354 H327 0.950 . S
C354 C340 1.377 . S
C354 C353 1.373 . S
C355 C339 1.377 . S
C355 C353 1.389 . S
C355 C356 1.524 . S
C356 C355 1.524 . S
C356 C357 1.397 . S
C356 C361 1.363 . S
C357 H328 0.950 . S
C357 C356 1.397 . S
C357 C358 1.334 . S
C358 H329 0.950 . S
C358 C357 1.334 . S
C358 C359 1.287 . S
C359 C358 1.287 . S
C359 C360 1.524 . S
C359 H362 0.999 . S
C360 H330 0.950 . S
C360 C359 1.524 . S
C360 C361 1.415 . S
C361 H331 0.950 . S
C361 C356 1.363 . S
C361 C360 1.415 . S
H362 C359 0.999 . S
H363 C344 0.913 . S
H364 C382 0.951 . S
H365 C384 0.951 . S
H366 C386 0.950 . S
H367 C387 0.950 . S
H368 C389 0.950 . S
H369 C392 0.950 . S
H370 C393 0.950 . S
H371 C395 0.950 . S
H372 C396 0.950 . S
H373 C397 0.951 . S
H374 C399 0.951 . S
H375 C401 0.950 . S
H376 C402 0.950 . S
H377 C404 0.950 . S
H378 C407 0.950 . S
H379 C408 0.950 . S
H380 C410 0.950 . S
H381 C411 0.950 . S
C382 H364 0.951 . S
C382 C383 1.366 . S
C382 C384 1.388 . S
C383 C382 1.366 . S
C383 C387 1.385 . S
C384 H365 0.951 . S
C384 C382 1.388 . S
C384 C385 1.366 . S
C385 C384 1.366 . S
C385 C386 1.414 . S
C385 C388 1.499 . S
C386 H366 0.950 . S
C386 C385 1.414 . S
C386 C387 1.374 . S
C387 H367 0.950 . S
C387 C383 1.385 . S
C387 C386 1.374 . S
C388 C385 1.499 . S
C388 C389 1.373 . S
C388 C390 1.389 . S
C389 H368 0.950 . S
C389 C388 1.373 . S
C389 C405 1.377 . S
C390 C388 1.389 . S
C390 C391 1.524 . S
C390 C404 1.377 . S
C391 C390 1.524 . S
C391 C392 1.397 . S
C391 C396 1.363 . S
C392 H369 0.950 . S
C392 C391 1.397 . S
C392 C393 1.334 . S
C393 H370 0.950 . S
C393 C392 1.334 . S
C393 C394 1.287 . S
C394 C393 1.287 . S
C394 C395 1.524 . S
C394 H413 0.913 . S
C395 H371 0.950 . S
C395 C394 1.524 . S
C395 C396 1.415 . S
C396 H372 0.950 . S
C396 C391 1.363 . S
C396 C395 1.415 . S
C397 H373 0.951 . S
C397 C398 1.366 . S
C397 C399 1.388 . S
C398 C397 1.366 . S
C398 C402 1.385 . S
C399 H374 0.951 . S
C399 C397 1.388 . S
C399 C400 1.366 . S
C400 C399 1.366 . S
C400 C401 1.414 . S
C400 C403 1.499 . S
C401 H375 0.950 . S
C401 C400 1.414 . S
C401 C402 1.374 . S
C402 H376 0.950 . S
C402 C398 1.385 . S
C402 C401 1.374 . S
C403 C400 1.499 . S
C403 C404 1.373 . S
C403 C405 1.389 . S
C404 H377 0.950 . S
C404 C390 1.377 . S
C404 C403 1.373 . S
C405 C389 1.377 . S
C405 C403 1.389 . S
C405 C406 1.524 . S
C406 C405 1.524 . S
C406 C407 1.397 . S
C406 C411 1.363 . S
C407 H378 0.950 . S
C407 C406 1.397 . S
C407 C408 1.334 . S
C408 H379 0.950 . S
C408 C407 1.334 . S
C408 C409 1.287 . S
C409 C408 1.287 . S
C409 C410 1.524 . S
C409 H412 0.999 . S
C410 H380 0.950 . S
C410 C409 1.524 . S
C410 C411 1.415 . S
C411 H381 0.950 . S
C411 C406 1.363 . S
C411 C410 1.415 . S
H412 C409 0.999 . S
H413 C394 0.913 . S
H414 C432 0.951 . S
H415 C434 0.951 . S
H416 C436 0.950 . S
H417 C437 0.950 . S
H418 C439 0.950 . S
H419 C442 0.950 . S
H420 C443 0.950 . S
H421 C445 0.950 . S
H422 C446 0.950 . S
H423 C447 0.951 . S
H424 C449 0.951 . S
H425 C451 0.950 . S
H426 C452 0.950 . S
H427 C454 0.950 . S
H428 C457 0.950 . S
H429 C458 0.950 . S
H430 C460 0.950 . S
H431 C461 0.950 . S
C432 H414 0.951 . S
C432 C433 1.366 . S
C432 C434 1.388 . S
C433 C432 1.366 . S
C433 C437 1.385 . S
C434 H415 0.951 . S
C434 C432 1.388 . S
C434 C435 1.366 . S
C435 C434 1.366 . S
C435 C436 1.414 . S
C435 C438 1.499 . S
C436 H416 0.950 . S
C436 C435 1.414 . S
C436 C437 1.374 . S
C437 H417 0.950 . S
C437 C433 1.385 . S
C437 C436 1.374 . S
C438 C435 1.499 . S
C438 C439 1.373 . S
C438 C440 1.389 . S
C439 H418 0.950 . S
C439 C438 1.373 . S
C439 C455 1.377 . S
C440 C438 1.389 . S
C440 C441 1.524 . S
C440 C454 1.377 . S
C441 C440 1.524 . S
C441 C442 1.397 . S
C441 C446 1.363 . S
C442 H419 0.950 . S
C442 C441 1.397 . S
C442 C443 1.334 . S
C443 H420 0.950 . S
C443 C442 1.334 . S
C443 C444 1.287 1_655 S
C444 C443 1.287 1_455 S
C444 C445 1.524 . S
C444 H463 0.913 . S
C445 H421 0.950 . S
C445 C444 1.524 . S
C445 C446 1.415 1_455 S
C446 H422 0.950 . S
C446 C441 1.363 . S
C446 C445 1.415 1_655 S
C447 H423 0.951 . S
C447 C448 1.366 . S
C447 C449 1.388 . S
C448 C447 1.366 . S
C448 C452 1.385 . S
C449 H424 0.951 . S
C449 C447 1.388 . S
C449 C450 1.366 . S
C450 C449 1.366 . S
C450 C451 1.414 . S
C450 C453 1.499 . S
C451 H425 0.950 . S
C451 C450 1.414 . S
C451 C452 1.374 . S
C452 H426 0.950 . S
C452 C448 1.385 . S
C452 C451 1.374 . S
C453 C450 1.499 . S
C453 C454 1.373 . S
C453 C455 1.389 . S
C454 H427 0.950 . S
C454 C440 1.377 . S
C454 C453 1.373 . S
C455 C439 1.377 . S
C455 C453 1.389 . S
C455 C456 1.524 . S
C456 C455 1.524 . S
C456 C457 1.397 . S
C456 C461 1.363 . S
C457 H428 0.950 . S
C457 C456 1.397 . S
C457 C458 1.334 . S
C458 H429 0.950 . S
C458 C457 1.334 . S
C458 C459 1.287 . S
C459 C458 1.287 . S
C459 C460 1.524 . S
C459 H462 0.999 . S
C460 H430 0.950 . S
C460 C459 1.524 . S
C460 C461 1.415 . S
C461 H431 0.950 . S
C461 C456 1.363 . S
C461 C460 1.415 . S
H462 C459 0.999 . S
H463 C444 0.913 . S
H464 C482 0.951 . S
H465 C484 0.951 . S
H466 C486 0.950 . S
H467 C487 0.950 . S
H468 C489 0.950 . S
H469 C492 0.950 . S
H470 C493 0.950 . S
H471 C495 0.950 . S
H472 C496 0.950 . S
H473 C497 0.951 . S
H474 C499 0.951 . S
H475 C501 0.950 . S
H476 C502 0.950 . S
H477 C504 0.950 . S
H478 C507 0.950 . S
H479 C508 0.950 . S
H480 C510 0.950 . S
H481 C511 0.950 . S
C482 H464 0.951 . S
C482 C483 1.366 . S
C482 C484 1.388 . S
C483 C482 1.366 . S
C483 C487 1.385 . S
C484 H465 0.951 . S
C484 C482 1.388 . S
C484 C485 1.366 . S
C485 C484 1.366 . S
C485 C486 1.414 . S
C485 C488 1.499 . S
C486 H466 0.950 . S
C486 C485 1.414 . S
C486 C487 1.374 . S
C487 H467 0.950 . S
C487 C483 1.385 . S
C487 C486 1.374 . S
C488 C485 1.499 . S
C488 C489 1.373 . S
C488 C490 1.389 . S
C489 H468 0.950 . S
C489 C488 1.373 . S
C489 C505 1.377 . S
C490 C488 1.389 . S
C490 C491 1.524 . S
C490 C504 1.377 . S
C491 C490 1.524 . S
C491 C492 1.397 . S
C491 C496 1.363 . S
C492 H469 0.950 . S
C492 C491 1.397 . S
C492 C493 1.334 . S
C493 H470 0.950 . S
C493 C492 1.334 . S
C493 C494 1.287 . S
C494 C493 1.287 . S
C494 C495 1.524 . S
C494 H513 0.913 . S
C495 H471 0.950 . S
C495 C494 1.524 . S
C495 C496 1.415 . S
C496 H472 0.950 . S
C496 C491 1.363 . S
C496 C495 1.415 . S
C497 H473 0.951 . S
C497 C498 1.366 . S
C497 C499 1.388 . S
C498 C497 1.366 . S
C498 C502 1.385 . S
C499 H474 0.951 . S
C499 C497 1.388 . S
C499 C500 1.366 . S
C500 C499 1.366 . S
C500 C501 1.414 . S
C500 C503 1.499 . S
C501 H475 0.950 . S
C501 C500 1.414 . S
C501 C502 1.374 . S
C502 H476 0.950 . S
C502 C498 1.385 . S
C502 C501 1.374 . S
C503 C500 1.499 . S
C503 C504 1.373 . S
C503 C505 1.389 . S
C504 H477 0.950 . S
C504 C490 1.377 . S
C504 C503 1.373 . S
C505 C489 1.377 . S
C505 C503 1.389 . S
C505 C506 1.524 . S
C506 C505 1.524 . S
C506 C507 1.397 . S
C506 C511 1.363 . S
C507 H478 0.950 . S
C507 C506 1.397 . S
C507 C508 1.334 . S
C508 H479 0.950 . S
C508 C507 1.334 . S
C508 C509 1.287 . S
C509 C508 1.287 . S
C509 C510 1.524 . S
C509 H512 0.999 . S
C510 H480 0.950 . S
C510 C509 1.524 . S
C510 C511 1.415 . S
C511 H481 0.950 . S
C511 C506 1.363 . S
C511 C510 1.415 . S
H512 C509 0.999 . S
H513 C494 0.913 . S
H514 C532 0.951 . S
H515 C534 0.951 . S
H516 C536 0.950 . S
H517 C537 0.950 . S
H518 C539 0.950 . S
H519 C542 0.950 . S
H520 C543 0.950 . S
H521 C545 0.950 . S
H522 C546 0.950 . S
H523 C547 0.951 . S
H524 C549 0.951 . S
H525 C551 0.950 . S
H526 C552 0.950 . S
H527 C554 0.950 . S
H528 C557 0.950 . S
H529 C558 0.950 . S
H530 C560 0.950 . S
H531 C561 0.950 . S
C532 H514 0.951 . S
C532 C533 1.366 . S
C532 C534 1.388 . S
C533 C532 1.366 . S
C533 C537 1.385 . S
C534 H515 0.951 . S
C534 C532 1.388 . S
C534 C535 1.366 . S
C535 C534 1.366 . S
C535 C536 1.414 . S
C535 C538 1.499 . S
C536 H516 0.950 . S
C536 C535 1.414 . S
C536 C537 1.374 . S
C537 H517 0.950 . S
C537 C533 1.385 . S
C537 C536 1.374 . S
C538 C535 1.499 . S
C538 C539 1.373 . S
C538 C540 1.389 . S
C539 H518 0.950 . S
C539 C538 1.373 . S
C539 C555 1.377 . S
C540 C538 1.389 . S
C540 C541 1.524 . S
C540 C554 1.377 . S
C541 C540 1.524 . S
C541 C542 1.397 . S
C541 C546 1.363 . S
C542 H519 0.950 . S
C542 C541 1.397 . S
C542 C543 1.334 . S
C543 H520 0.950 . S
C543 C542 1.334 . S
C543 C544 1.287 . S
C544 C543 1.287 . S
C544 C545 1.524 . S
C544 H563 0.913 . S
C545 H521 0.950 . S
C545 C544 1.524 . S
C545 C546 1.415 . S
C546 H522 0.950 . S
C546 C541 1.363 . S
C546 C545 1.415 . S
C547 H523 0.951 . S
C547 C548 1.366 . S
C547 C549 1.388 . S
C548 C547 1.366 . S
C548 C552 1.385 . S
C549 H524 0.951 . S
C549 C547 1.388 . S
C549 C550 1.366 . S
C550 C549 1.366 . S
C550 C551 1.414 . S
C550 C553 1.499 . S
C551 H525 0.950 . S
C551 C550 1.414 . S
C551 C552 1.374 . S
C552 H526 0.950 . S
C552 C548 1.385 . S
C552 C551 1.374 . S
C553 C550 1.499 . S
C553 C554 1.373 . S
C553 C555 1.389 . S
C554 H527 0.950 . S
C554 C540 1.377 . S
C554 C553 1.373 . S
C555 C539 1.377 . S
C555 C553 1.389 . S
C555 C556 1.524 . S
C556 C555 1.524 . S
C556 C557 1.397 . S
C556 C561 1.363 . S
C557 H528 0.950 . S
C557 C556 1.397 . S
C557 C558 1.334 . S
C558 H529 0.950 . S
C558 C557 1.334 . S
C558 C559 1.287 . S
C559 C558 1.287 . S
C559 C560 1.524 . S
C559 H562 0.999 1_455 S
C560 H530 0.950 . S
C560 C559 1.524 . S
C560 C561 1.415 . S
C561 H531 0.950 . S
C561 C556 1.363 . S
C561 C560 1.415 . S
H562 C559 0.999 1_655 S
H563 C544 0.913 . S
H564 C582 0.951 . S
H565 C584 0.951 . S
H566 C586 0.950 . S
H567 C587 0.950 . S
H568 C589 0.950 . S
H569 C592 0.950 . S
H570 C593 0.950 . S
H571 C595 0.950 . S
H572 C596 0.950 . S
H573 C597 0.951 1_554 S
H574 C599 0.951 . S
H575 C601 0.950 . S
H576 C602 0.950 . S
H577 C604 0.950 . S
H578 C607 0.950 . S
H579 C608 0.950 . S
H580 C610 0.950 . S
H581 C611 0.950 . S
C582 H564 0.951 . S
C582 C583 1.366 . S
C582 C584 1.388 . S
C583 C582 1.366 . S
C583 C587 1.385 . S
C584 H565 0.951 . S
C584 C582 1.388 . S
C584 C585 1.366 . S
C585 C584 1.366 . S
C585 C586 1.414 . S
C585 C588 1.499 . S
C586 H566 0.950 . S
C586 C585 1.414 . S
C586 C587 1.374 . S
C587 H567 0.950 . S
C587 C583 1.385 . S
C587 C586 1.374 . S
C588 C585 1.499 . S
C588 C589 1.373 . S
C588 C590 1.389 . S
C589 H568 0.950 . S
C589 C588 1.373 . S
C589 C605 1.377 . S
C590 C588 1.389 . S
C590 C591 1.524 . S
C590 C604 1.377 . S
C591 C590 1.524 . S
C591 C592 1.397 . S
C591 C596 1.363 . S
C592 H569 0.950 . S
C592 C591 1.397 . S
C592 C593 1.334 . S
C593 H570 0.950 . S
C593 C592 1.334 . S
C593 C594 1.287 . S
C594 C593 1.287 . S
C594 C595 1.524 . S
C594 H613 0.913 . S
C595 H571 0.950 . S
C595 C594 1.524 . S
C595 C596 1.415 . S
C596 H572 0.950 . S
C596 C591 1.363 . S
C596 C595 1.415 . S
C597 H573 0.951 1_556 S
C597 C598 1.366 . S
C597 C599 1.388 . S
C598 C597 1.366 . S
C598 C602 1.385 . S
C599 H574 0.951 . S
C599 C597 1.388 . S
C599 C600 1.366 . S
C600 C599 1.366 . S
C600 C601 1.414 . S
C600 C603 1.499 . S
C601 H575 0.950 . S
C601 C600 1.414 . S
C601 C602 1.374 . S
C602 H576 0.950 . S
C602 C598 1.385 . S
C602 C601 1.374 . S
C603 C600 1.499 . S
C603 C604 1.373 . S
C603 C605 1.389 . S
C604 H577 0.950 . S
C604 C590 1.377 . S
C604 C603 1.373 . S
C605 C589 1.377 . S
C605 C603 1.389 . S
C605 C606 1.524 . S
C606 C605 1.524 . S
C606 C607 1.397 . S
C606 C611 1.363 . S
C607 H578 0.950 . S
C607 C606 1.397 . S
C607 C608 1.334 . S
C608 H579 0.950 . S
C608 C607 1.334 . S
C608 C609 1.287 . S
C609 C608 1.287 . S
C609 C610 1.524 . S
C609 H612 0.999 . S
C610 H580 0.950 . S
C610 C609 1.524 . S
C610 C611 1.415 . S
C611 H581 0.950 . S
C611 C606 1.363 . S
C611 C610 1.415 . S
H612 C609 0.999 . S
H613 C594 0.913 . S
H614 C632 0.951 . S
H615 C634 0.951 . S
H616 C636 0.950 . S
H617 C637 0.950 . S
H618 C639 0.950 . S
H619 C642 0.950 . S
H620 C643 0.950 . S
H621 C645 0.950 . S
H622 C646 0.950 . S
H623 C647 0.951 . S
H624 C649 0.951 . S
H625 C651 0.950 . S
H626 C652 0.950 . S
H627 C654 0.950 . S
H628 C657 0.950 . S
H629 C658 0.950 . S
H630 C660 0.950 . S
H631 C661 0.950 . S
C632 H614 0.951 . S
C632 C633 1.366 . S
C632 C634 1.388 . S
C633 C632 1.366 . S
C633 C637 1.385 . S
C634 H615 0.951 . S
C634 C632 1.388 . S
C634 C635 1.366 . S
C635 C634 1.366 . S
C635 C636 1.414 . S
C635 C638 1.499 . S
C636 H616 0.950 . S
C636 C635 1.414 . S
C636 C637 1.374 . S
C637 H617 0.950 . S
C637 C633 1.385 . S
C637 C636 1.374 . S
C638 C635 1.499 . S
C638 C639 1.373 . S
C638 C640 1.389 . S
C639 H618 0.950 . S
C639 C638 1.373 . S
C639 C655 1.377 . S
C640 C638 1.389 . S
C640 C641 1.524 . S
C640 C654 1.377 . S
C641 C640 1.524 . S
C641 C642 1.397 . S
C641 C646 1.363 . S
C642 H619 0.950 . S
C642 C641 1.397 . S
C642 C643 1.334 . S
C643 H620 0.950 . S
C643 C642 1.334 . S
C643 C644 1.287 . S
C644 C643 1.287 . S
C644 C645 1.524 . S
C644 H663 0.913 . S
C645 H621 0.950 . S
C645 C644 1.524 . S
C645 C646 1.415 . S
C646 H622 0.950 . S
C646 C641 1.363 . S
C646 C645 1.415 . S
C647 H623 0.951 . S
C647 C648 1.366 . S
C647 C649 1.388 . S
C648 C647 1.366 . S
C648 C652 1.385 . S
C649 H624 0.951 . S
C649 C647 1.388 . S
C649 C650 1.366 . S
C650 C649 1.366 . S
C650 C651 1.414 . S
C650 C653 1.499 . S
C651 H625 0.950 . S
C651 C650 1.414 . S
C651 C652 1.374 . S
C652 H626 0.950 . S
C652 C648 1.385 . S
C652 C651 1.374 . S
C653 C650 1.499 . S
C653 C654 1.373 . S
C653 C655 1.389 . S
C654 H627 0.950 . S
C654 C640 1.377 . S
C654 C653 1.373 . S
C655 C639 1.377 . S
C655 C653 1.389 . S
C655 C656 1.524 . S
C656 C655 1.524 . S
C656 C657 1.397 . S
C656 C661 1.363 . S
C657 H628 0.950 . S
C657 C656 1.397 . S
C657 C658 1.334 . S
C658 H629 0.950 . S
C658 C657 1.334 . S
C658 C659 1.287 . S
C659 C658 1.287 . S
C659 C660 1.524 . S
C659 H662 0.999 . S
C660 H630 0.950 . S
C660 C659 1.524 . S
C660 C661 1.415 . S
C661 H631 0.950 . S
C661 C656 1.363 . S
C661 C660 1.415 . S
H662 C659 0.999 . S
H663 C644 0.913 . S
H664 C682 0.951 . S
H665 C684 0.951 . S
H666 C686 0.950 . S
H667 C687 0.950 . S
H668 C689 0.950 . S
H669 C692 0.950 . S
H670 C693 0.950 . S
H671 C695 0.950 . S
H672 C696 0.950 . S
H673 C697 0.951 . S
H674 C699 0.951 . S
H675 C701 0.950 . S
H676 C702 0.950 . S
H677 C704 0.950 . S
H678 C707 0.950 . S
H679 C708 0.950 . S
H680 C710 0.950 . S
H681 C711 0.950 . S
C682 H664 0.951 . S
C682 C683 1.366 . S
C682 C684 1.388 . S
C683 C682 1.366 . S
C683 C687 1.385 . S
C684 H665 0.951 . S
C684 C682 1.388 . S
C684 C685 1.366 . S
C685 C684 1.366 . S
C685 C686 1.414 . S
C685 C688 1.499 . S
C686 H666 0.950 . S
C686 C685 1.414 . S
C686 C687 1.374 . S
C687 H667 0.950 . S
C687 C683 1.385 . S
C687 C686 1.374 . S
C688 C685 1.499 . S
C688 C689 1.373 . S
C688 C690 1.389 . S
C689 H668 0.950 . S
C689 C688 1.373 . S
C689 C705 1.377 . S
C690 C688 1.389 . S
C690 C691 1.524 . S
C690 C704 1.377 . S
C691 C690 1.524 . S
C691 C692 1.397 . S
C691 C696 1.363 . S
C692 H669 0.950 . S
C692 C691 1.397 . S
C692 C693 1.334 . S
C693 H670 0.950 . S
C693 C692 1.334 . S
C693 C694 1.287 . S
C694 C693 1.287 . S
C694 C695 1.524 . S
C694 H713 0.913 . S
C695 H671 0.950 . S
C695 C694 1.524 . S
C695 C696 1.415 . S
C696 H672 0.950 . S
C696 C691 1.363 . S
C696 C695 1.415 . S
C697 H673 0.951 . S
C697 C698 1.366 . S
C697 C699 1.388 . S
C698 C697 1.366 . S
C698 C702 1.385 . S
C699 H674 0.951 . S
C699 C697 1.388 . S
C699 C700 1.366 . S
C700 C699 1.366 . S
C700 C701 1.414 . S
C700 C703 1.499 . S
C701 H675 0.950 . S
C701 C700 1.414 . S
C701 C702 1.374 . S
C702 H676 0.950 . S
C702 C698 1.385 . S
C702 C701 1.374 . S
C703 C700 1.499 . S
C703 C704 1.373 . S
C703 C705 1.389 . S
C704 H677 0.950 . S
C704 C690 1.377 . S
C704 C703 1.373 . S
C705 C689 1.377 . S
C705 C703 1.389 . S
C705 C706 1.524 . S
C706 C705 1.524 . S
C706 C707 1.397 . S
C706 C711 1.363 . S
C707 H678 0.950 . S
C707 C706 1.397 . S
C707 C708 1.334 . S
C708 H679 0.950 . S
C708 C707 1.334 . S
C708 C709 1.287 . S
C709 C708 1.287 . S
C709 C710 1.524 . S
C709 H712 0.999 . S
C710 H680 0.950 . S
C710 C709 1.524 . S
C710 C711 1.415 . S
C711 H681 0.950 . S
C711 C706 1.363 . S
C711 C710 1.415 . S
H712 C709 0.999 . S
H713 C694 0.913 . S
H714 C732 0.951 . S
H715 C734 0.951 . S
H716 C736 0.950 . S
H717 C737 0.950 . S
H718 C739 0.950 . S
H719 C742 0.950 . S
H720 C743 0.950 1_554 S
H721 C745 0.950 . S
H722 C746 0.950 . S
H723 C747 0.951 . S
H724 C749 0.951 . S
H725 C751 0.950 . S
H726 C752 0.950 . S
H727 C754 0.950 . S
H728 C757 0.950 . S
H729 C758 0.950 . S
H730 C760 0.950 . S
H731 C761 0.950 . S
C732 H714 0.951 . S
C732 C733 1.366 . S
C732 C734 1.388 . S
C733 C732 1.366 . S
C733 C737 1.385 . S
C734 H715 0.951 . S
C734 C732 1.388 . S
C734 C735 1.366 . S
C735 C734 1.366 . S
C735 C736 1.414 . S
C735 C738 1.499 . S
C736 H716 0.950 . S
C736 C735 1.414 . S
C736 C737 1.374 . S
C737 H717 0.950 . S
C737 C733 1.385 . S
C737 C736 1.374 . S
C738 C735 1.499 . S
C738 C739 1.373 . S
C738 C740 1.389 . S
C739 H718 0.950 . S
C739 C738 1.373 . S
C739 C755 1.377 . S
C740 C738 1.389 . S
C740 C741 1.524 . S
C740 C754 1.377 . S
C741 C740 1.524 . S
C741 C742 1.397 . S
C741 C746 1.363 . S
C742 H719 0.950 . S
C742 C741 1.397 . S
C742 C743 1.334 . S
C743 H720 0.950 1_556 S
C743 C742 1.334 . S
C743 C744 1.287 . S
C744 C743 1.287 . S
C744 C745 1.524 . S
C744 H763 0.913 1_556 S
C745 H721 0.950 . S
C745 C744 1.524 . S
C745 C746 1.415 . S
C746 H722 0.950 . S
C746 C741 1.363 . S
C746 C745 1.415 . S
C747 H723 0.951 . S
C747 C748 1.366 . S
C747 C749 1.388 . S
C748 C747 1.366 . S
C748 C752 1.392 . S
C749 H724 0.951 . S
C749 C747 1.388 . S
C749 C750 1.366 1_554 S
C750 C749 1.366 1_556 S
C750 C751 1.414 . S
C750 C753 1.499 . S
C751 H725 0.950 . S
C751 C750 1.414 . S
C751 C752 1.367 1_556 S
C752 H726 0.950 . S
C752 C748 1.392 . S
C752 C751 1.367 1_554 S
C753 C750 1.499 . S
C753 C754 1.373 . S
C753 C755 1.389 . S
C754 H727 0.950 . S
C754 C740 1.377 . S
C754 C753 1.373 . S
C755 C739 1.377 . S
C755 C753 1.389 . S
C755 C756 1.524 . S
C756 C755 1.524 . S
C756 C757 1.397 . S
C756 C761 1.363 . S
C757 H728 0.950 . S
C757 C756 1.397 . S
C757 C758 1.334 . S
C758 H729 0.950 . S
C758 C757 1.334 . S
C758 C759 1.287 . S
C759 C758 1.287 . S
C759 C760 1.524 . S
C759 H762 0.999 . S
C760 H730 0.950 . S
C760 C759 1.524 . S
C760 C761 1.415 . S
C761 H731 0.950 . S
C761 C756 1.363 . S
C761 C760 1.415 . S
H762 C759 0.999 . S
H763 C744 0.913 1_554 S
H764 C782 0.951 . S
H765 C784 0.951 . S
H766 C786 0.950 . S
H767 C787 0.950 . S
H768 C789 0.950 . S
H769 C792 0.950 . S
H770 C793 0.950 . S
H771 C795 0.950 . S
H772 C796 0.950 . S
H773 C797 0.951 . S
H774 C799 0.951 . S
H775 C801 0.950 . S
H776 C802 0.950 . S
H777 C804 0.950 . S
H778 C807 0.950 . S
H779 C808 0.950 . S
H780 C810 0.950 . S
H781 C811 0.950 . S
C782 H764 0.951 . S
C782 C783 1.366 . S
C782 C784 1.388 . S
C783 C782 1.366 . S
C783 C787 1.385 . S
C784 H765 0.951 . S
C784 C782 1.388 . S
C784 C785 1.366 . S
C785 C784 1.366 . S
C785 C786 1.414 . S
C785 C788 1.499 . S
C786 H766 0.950 . S
C786 C785 1.414 . S
C786 C787 1.374 . S
C787 H767 0.950 . S
C787 C783 1.385 . S
C787 C786 1.374 . S
C788 C785 1.499 . S
C788 C789 1.373 . S
C788 C790 1.389 . S
C789 H768 0.950 . S
C789 C788 1.373 . S
C789 C805 1.377 . S
C790 C788 1.389 . S
C790 C791 1.524 . S
C790 C804 1.377 . S
C791 C790 1.524 . S
C791 C792 1.397 . S
C791 C796 1.363 . S
C792 H769 0.950 . S
C792 C791 1.397 . S
C792 C793 1.334 . S
C793 H770 0.950 . S
C793 C792 1.334 . S
C793 C794 1.287 . S
C794 C793 1.287 . S
C794 C795 1.524 . S
C794 H813 0.913 . S
C795 H771 0.950 . S
C795 C794 1.524 . S
C795 C796 1.415 . S
C796 H772 0.950 . S
C796 C791 1.363 . S
C796 C795 1.415 . S
C797 H773 0.951 . S
C797 C798 1.366 1_455 S
C797 C799 1.388 1_455 S
C798 C797 1.366 1_655 S
C798 C802 1.385 . S
C799 H774 0.951 . S
C799 C797 1.388 1_655 S
C799 C800 1.366 . S
C800 C799 1.366 . S
C800 C801 1.414 . S
C800 C803 1.499 . S
C801 H775 0.950 . S
C801 C800 1.414 . S
C801 C802 1.374 . S
C802 H776 0.950 . S
C802 C798 1.385 . S
C802 C801 1.374 . S
C803 C800 1.499 . S
C803 C804 1.373 . S
C803 C805 1.389 . S
C804 H777 0.950 . S
C804 C790 1.377 . S
C804 C803 1.373 . S
C805 C789 1.377 . S
C805 C803 1.389 . S
C805 C806 1.524 . S
C806 C805 1.524 . S
C806 C807 1.397 . S
C806 C811 1.363 . S
C807 H778 0.950 . S
C807 C806 1.397 . S
C807 C808 1.334 . S
C808 H779 0.950 . S
C808 C807 1.334 . S
C808 C809 1.287 . S
C809 C808 1.287 . S
C809 C810 1.524 . S
C809 H812 0.999 . S
C810 H780 0.950 . S
C810 C809 1.524 . S
C810 C811 1.415 . S
C811 H781 0.950 . S
C811 C806 1.363 . S
C811 C810 1.415 . S
H812 C809 0.999 . S
H813 C794 0.913 . S
H814 C832 0.951 . S
H815 C834 0.951 . S
H816 C836 0.950 . S
H817 C837 0.950 . S
H818 C839 0.950 . S
H819 C842 0.950 . S
H820 C843 0.950 . S
H821 C845 0.950 . S
H822 C846 0.950 . S
H823 C847 0.951 . S
H824 C849 0.951 . S
H825 C851 0.950 . S
H826 C852 0.950 . S
H827 C854 0.950 . S
H828 C857 0.950 . S
H829 C858 0.950 . S
H830 C860 0.950 . S
H831 C861 0.950 . S
C832 H814 0.951 . S
C832 C833 1.366 . S
C832 C834 1.388 . S
C833 C832 1.366 . S
C833 C837 1.385 . S
C834 H815 0.951 . S
C834 C832 1.388 . S
C834 C835 1.366 . S
C835 C834 1.366 . S
C835 C836 1.414 . S
C835 C838 1.499 . S
C836 H816 0.950 . S
C836 C835 1.414 . S
C836 C837 1.374 . S
C837 H817 0.950 . S
C837 C833 1.385 . S
C837 C836 1.374 . S
C838 C835 1.499 . S
C838 C839 1.373 . S
C838 C840 1.389 . S
C839 H818 0.950 . S
C839 C838 1.373 . S
C839 C855 1.377 . S
C840 C838 1.389 . S
C840 C841 1.524 . S
C840 C854 1.377 . S
C841 C840 1.524 . S
C841 C842 1.397 . S
C841 C846 1.363 . S
C842 H819 0.950 . S
C842 C841 1.397 . S
C842 C843 1.334 . S
C843 H820 0.950 . S
C843 C842 1.334 . S
C843 C844 1.287 . S
C844 C843 1.287 . S
C844 C845 1.524 . S
C844 H863 0.913 . S
C845 H821 0.950 . S
C845 C844 1.524 . S
C845 C846 1.415 . S
C846 H822 0.950 . S
C846 C841 1.363 . S
C846 C845 1.415 . S
C847 H823 0.951 . S
C847 C848 1.366 . S
C847 C849 1.388 . S
C848 C847 1.366 . S
C848 C852 1.385 . S
C849 H824 0.951 . S
C849 C847 1.388 . S
C849 C850 1.366 . S
C850 C849 1.366 . S
C850 C851 1.414 . S
C850 C853 1.499 . S
C851 H825 0.950 . S
C851 C850 1.414 . S
C851 C852 1.374 . S
C852 H826 0.950 . S
C852 C848 1.385 . S
C852 C851 1.374 . S
C853 C850 1.499 . S
C853 C854 1.373 . S
C853 C855 1.389 . S
C854 H827 0.950 . S
C854 C840 1.377 . S
C854 C853 1.373 . S
C855 C839 1.377 . S
C855 C853 1.389 . S
C855 C856 1.524 . S
C856 C855 1.524 . S
C856 C857 1.397 . S
C856 C861 1.363 . S
C857 H828 0.950 . S
C857 C856 1.397 . S
C857 C858 1.334 . S
C858 H829 0.950 . S
C858 C857 1.334 . S
C858 C859 1.287 . S
C859 C858 1.287 . S
C859 C860 1.524 . S
C859 H862 0.999 . S
C860 H830 0.950 . S
C860 C859 1.524 . S
C860 C861 1.415 . S
C861 H831 0.950 . S
C861 C856 1.363 . S
C861 C860 1.415 . S
H862 C859 0.999 . S
H863 C844 0.913 . S
H864 C882 0.951 . S
H865 C884 0.951 . S
H866 C886 0.950 . S
H867 C887 0.950 . S
H868 C889 0.950 . S
H869 C892 0.950 . S
H870 C893 0.950 . S
H871 C895 0.950 . S
H872 C896 0.950 . S
H873 C897 0.951 . S
H874 C899 0.951 . S
H875 C901 0.950 . S
H876 C902 0.950 . S
H877 C904 0.950 . S
H878 C907 0.950 . S
H879 C908 0.950 . S
H880 C910 0.950 . S
H881 C911 0.950 . S
C882 H864 0.951 . S
C882 C883 1.366 . S
C882 C884 1.388 . S
C883 C882 1.366 . S
C883 C887 1.385 . S
C884 H865 0.951 . S
C884 C882 1.388 . S
C884 C885 1.366 . S
C885 C884 1.366 . S
C885 C886 1.414 . S
C885 C888 1.499 . S
C886 H866 0.950 . S
C886 C885 1.414 . S
C886 C887 1.374 . S
C887 H867 0.950 . S
C887 C883 1.385 . S
C887 C886 1.374 . S
C888 C885 1.499 . S
C888 C889 1.373 . S
C888 C890 1.389 . S
C889 H868 0.950 . S
C889 C888 1.373 . S
C889 C905 1.377 . S
C890 C888 1.389 . S
C890 C891 1.524 . S
C890 C904 1.377 . S
C891 C890 1.524 . S
C891 C892 1.397 . S
C891 C896 1.363 . S
C892 H869 0.950 . S
C892 C891 1.397 . S
C892 C893 1.334 . S
C893 H870 0.950 . S
C893 C892 1.334 . S
C893 C894 1.287 . S
C894 C893 1.287 . S
C894 C895 1.524 . S
C894 H913 0.913 . S
C895 H871 0.950 . S
C895 C894 1.524 . S
C895 C896 1.415 . S
C896 H872 0.950 . S
C896 C891 1.363 . S
C896 C895 1.415 . S
C897 H873 0.951 . S
C897 C898 1.366 . S
C897 C899 1.388 . S
C898 C897 1.366 . S
C898 C902 1.385 . S
C899 H874 0.951 . S
C899 C897 1.388 . S
C899 C900 1.366 . S
C900 C899 1.366 . S
C900 C901 1.414 . S
C900 C903 1.499 . S
C901 H875 0.950 . S
C901 C900 1.414 . S
C901 C902 1.374 . S
C902 H876 0.950 . S
C902 C898 1.385 . S
C902 C901 1.374 . S
C903 C900 1.499 . S
C903 C904 1.373 . S
C903 C905 1.389 . S
C904 H877 0.950 . S
C904 C890 1.377 . S
C904 C903 1.373 . S
C905 C889 1.377 . S
C905 C903 1.389 . S
C905 C906 1.524 . S
C906 C905 1.524 . S
C906 C907 1.397 . S
C906 C911 1.363 . S
C907 H878 0.950 . S
C907 C906 1.397 . S
C907 C908 1.334 . S
C908 H879 0.950 . S
C908 C907 1.334 . S
C908 C909 1.287 . S
C909 C908 1.287 . S
C909 C910 1.524 . S
C909 H912 0.999 . S
C910 H880 0.950 . S
C910 C909 1.524 . S
C910 C911 1.415 . S
C911 H881 0.950 . S
C911 C906 1.363 . S
C911 C910 1.415 . S
H912 C909 0.999 . S
H913 C894 0.913 . S
H914 C932 0.951 . S
H915 C934 0.951 . S
H916 C936 0.950 . S
H917 C937 0.950 . S
H918 C939 0.950 . S
H919 C942 0.950 . S
H920 C943 0.950 . S
H921 C945 0.950 . S
H922 C946 0.950 . S
H923 C947 0.951 . S
H924 C949 0.951 . S
H925 C951 0.950 . S
H926 C952 0.950 . S
H927 C954 0.950 . S
H928 C957 0.950 . S
H929 C958 0.950 . S
H930 C960 0.950 . S
H931 C961 0.950 . S
C932 H914 0.951 . S
C932 C933 1.366 . S
C932 C934 1.388 . S
C933 C932 1.366 . S
C933 C937 1.385 . S
C934 H915 0.951 . S
C934 C932 1.388 . S
C934 C935 1.366 . S
C935 C934 1.366 . S
C935 C936 1.414 . S
C935 C938 1.499 . S
C936 H916 0.950 . S
C936 C935 1.414 . S
C936 C937 1.374 . S
C937 H917 0.950 . S
C937 C933 1.385 . S
C937 C936 1.374 . S
C938 C935 1.499 . S
C938 C939 1.373 . S
C938 C940 1.389 . S
C939 H918 0.950 . S
C939 C938 1.373 . S
C939 C955 1.377 . S
C940 C938 1.389 . S
C940 C941 1.524 . S
C940 C954 1.377 . S
C941 C940 1.524 . S
C941 C942 1.397 . S
C941 C946 1.363 . S
C942 H919 0.950 . S
C942 C941 1.397 . S
C942 C943 1.334 . S
C943 H920 0.950 . S
C943 C942 1.334 . S
C943 C944 1.287 . S
C944 C943 1.287 . S
C944 C945 1.524 . S
C944 H963 0.913 . S
C945 H921 0.950 . S
C945 C944 1.524 . S
C945 C946 1.415 . S
C946 H922 0.950 . S
C946 C941 1.363 . S
C946 C945 1.415 . S
C947 H923 0.951 . S
C947 C948 1.366 . S
C947 C949 1.388 . S
C948 C947 1.366 . S
C948 C952 1.385 . S
C949 H924 0.951 . S
C949 C947 1.388 . S
C949 C950 1.366 . S
C950 C949 1.366 . S
C950 C951 1.414 . S
C950 C953 1.499 . S
C951 H925 0.950 . S
C951 C950 1.414 . S
C951 C952 1.374 . S
C952 H926 0.950 . S
C952 C948 1.385 . S
C952 C951 1.374 . S
C953 C950 1.499 . S
C953 C954 1.373 . S
C953 C955 1.389 . S
C954 H927 0.950 . S
C954 C940 1.377 . S
C954 C953 1.373 . S
C955 C939 1.377 . S
C955 C953 1.389 . S
C955 C956 1.524 . S
C956 C955 1.524 . S
C956 C957 1.397 . S
C956 C961 1.363 . S
C957 H928 0.950 . S
C957 C956 1.397 . S
C957 C958 1.334 . S
C958 H929 0.950 . S
C958 C957 1.334 . S
C958 C959 1.287 . S
C959 C958 1.287 . S
C959 C960 1.524 . S
C959 H962 0.999 . S
C960 H930 0.950 . S
C960 C959 1.524 . S
C960 C961 1.415 . S
C961 H931 0.950 . S
C961 C956 1.363 . S
C961 C960 1.415 . S
H962 C959 0.999 . S
H963 C944 0.913 . S
H964 C982 0.951 . S
H965 C984 0.951 . S
H966 C986 0.950 . S
H967 C987 0.950 . S
H968 C989 0.950 . S
H969 C992 0.950 . S
H970 C993 0.950 . S
H971 C995 0.950 . S
H972 C996 0.950 . S
H973 C997 0.951 . S
H974 C999 0.951 . S
H975 C1001 0.950 . S
H976 C1002 0.950 . S
H977 C1004 0.950 . S
H978 C1007 0.950 . S
H979 C1008 0.950 . S
H980 C1010 0.950 . S
H981 C1011 0.950 . S
C982 H964 0.951 . S
C982 C983 1.366 . S
C982 C984 1.388 . S
C983 C982 1.366 . S
C983 C987 1.385 . S
C984 H965 0.951 . S
C984 C982 1.388 . S
C984 C985 1.366 . S
C985 C984 1.366 . S
C985 C986 1.414 . S
C985 C988 1.499 . S
C986 H966 0.950 . S
C986 C985 1.414 . S
C986 C987 1.374 . S
C987 H967 0.950 . S
C987 C983 1.385 . S
C987 C986 1.374 . S
C988 C985 1.499 . S
C988 C989 1.373 . S
C988 C990 1.389 . S
C989 H968 0.950 . S
C989 C988 1.373 . S
C989 C1005 1.377 . S
C990 C988 1.389 . S
C990 C991 1.524 . S
C990 C1004 1.377 . S
C991 C990 1.524 . S
C991 C992 1.397 . S
C991 C996 1.363 . S
C992 H969 0.950 . S
C992 C991 1.397 . S
C992 C993 1.334 . S
C993 H970 0.950 . S
C993 C992 1.334 . S
C993 C994 1.287 . S
C994 C993 1.287 . S
C994 C995 1.524 . S
C994 H1013 0.913 . S
C995 H971 0.950 . S
C995 C994 1.524 . S
C995 C996 1.415 . S
C996 H972 0.950 . S
C996 C991 1.363 . S
C996 C995 1.415 . S
C997 H973 0.951 . S
C997 C998 1.366 . S
C997 C999 1.388 . S
C998 C997 1.366 . S
C998 C1002 1.385 . S
C999 H974 0.951 . S
C999 C997 1.388 . S
C999 C1000 1.366 . S
C1000 C999 1.366 . S
C1000 C1001 1.414 . S
C1000 C1003 1.499 . S
C1001 H975 0.950 . S
C1001 C1000 1.414 . S
C1001 C1002 1.374 . S
C1002 H976 0.950 . S
C1002 C998 1.385 . S
C1002 C1001 1.374 . S
C1003 C1000 1.499 . S
C1003 C1004 1.373 . S
C1003 C1005 1.389 . S
C1004 H977 0.950 . S
C1004 C990 1.377 . S
C1004 C1003 1.373 . S
C1005 C989 1.377 . S
C1005 C1003 1.389 . S
C1005 C1006 1.524 . S
C1006 C1005 1.524 . S
C1006 C1007 1.397 . S
C1006 C1011 1.363 . S
C1007 H978 0.950 . S
C1007 C1006 1.397 . S
C1007 C1008 1.334 . S
C1008 H979 0.950 . S
C1008 C1007 1.334 . S
C1008 C1009 1.287 . S
C1009 C1008 1.287 . S
C1009 C1010 1.524 . S
C1009 H1012 0.999 . S
C1010 H980 0.950 . S
C1010 C1009 1.524 . S
C1010 C1011 1.415 . S
C1011 H981 0.950 . S
C1011 C1006 1.363 . S
C1011 C1010 1.415 . S
H1012 C1009 0.999 . S
H1013 C994 0.913 . S
H1014 C1032 0.951 . S
H1015 C1034 0.951 . S
H1016 C1036 0.950 . S
H1017 C1037 0.950 . S
H1018 C1039 0.950 . S
H1019 C1042 0.950 . S
H1020 C1043 0.950 . S
H1021 C1045 0.950 . S
H1022 C1046 0.950 . S
H1023 C1047 0.951 . S
H1024 C1049 0.951 . S
H1025 C1051 0.950 . S
H1026 C1052 0.950 . S
H1027 C1054 0.950 . S
H1028 C1057 0.950 . S
H1029 C1058 0.950 . S
H1030 C1060 0.950 . S
H1031 C1061 0.950 1_455 S
C1032 H1014 0.951 . S
C1032 C1033 1.366 . S
C1032 C1034 1.388 . S
C1033 C1032 1.366 . S
C1033 C1037 1.385 . S
C1034 H1015 0.951 . S
C1034 C1032 1.388 . S
C1034 C1035 1.366 . S
C1035 C1034 1.366 . S
C1035 C1036 1.414 . S
C1035 C1038 1.499 . S
C1036 H1016 0.950 . S
C1036 C1035 1.414 . S
C1036 C1037 1.374 . S
C1037 H1017 0.950 . S
C1037 C1033 1.385 . S
C1037 C1036 1.374 . S
C1038 C1035 1.499 . S
C1038 C1039 1.373 . S
C1038 C1040 1.389 . S
C1039 H1018 0.950 . S
C1039 C1038 1.373 . S
C1039 C1055 1.377 . S
C1040 C1038 1.389 . S
C1040 C1041 1.524 . S
C1040 C1054 1.377 . S
C1041 C1040 1.524 . S
C1041 C1042 1.397 . S
C1041 C1046 1.363 . S
C1042 H1019 0.950 . S
C1042 C1041 1.397 . S
C1042 C1043 1.334 . S
C1043 H1020 0.950 . S
C1043 C1042 1.334 . S
C1043 C1044 1.287 . S
C1044 C1043 1.287 . S
C1044 C1045 1.524 . S
C1044 H1063 0.913 . S
C1045 H1021 0.950 . S
C1045 C1044 1.524 . S
C1045 C1046 1.415 . S
C1046 H1022 0.950 . S
C1046 C1041 1.363 . S
C1046 C1045 1.415 . S
C1047 H1023 0.951 . S
C1047 C1048 1.366 . S
C1047 C1049 1.388 . S
C1048 C1047 1.366 . S
C1048 C1052 1.385 . S
C1049 H1024 0.951 . S
C1049 C1047 1.388 . S
C1049 C1050 1.366 . S
C1050 C1049 1.366 . S
C1050 C1051 1.414 . S
C1050 C1053 1.499 . S
C1051 H1025 0.950 . S
C1051 C1050 1.414 . S
C1051 C1052 1.374 . S
C1052 H1026 0.950 . S
C1052 C1048 1.385 . S
C1052 C1051 1.374 . S
C1053 C1050 1.499 . S
C1053 C1054 1.373 . S
C1053 C1055 1.389 . S
C1054 H1027 0.950 . S
C1054 C1040 1.377 . S
C1054 C1053 1.373 . S
C1055 C1039 1.377 . S
C1055 C1053 1.389 . S
C1055 C1056 1.524 . S
C1056 C1055 1.524 . S
C1056 C1057 1.397 . S
C1056 C1061 1.363 1_455 S
C1057 H1028 0.950 . S
C1057 C1056 1.397 . S
C1057 C1058 1.334 1_455 S
C1058 H1029 0.950 . S
C1058 C1057 1.334 1_655 S
C1058 C1059 1.287 . S
C1059 C1058 1.287 . S
C1059 C1060 1.524 . S
C1059 H1062 0.999 . S
C1060 H1030 0.950 . S
C1060 C1059 1.524 . S
C1060 C1061 1.415 . S
C1061 H1031 0.950 1_655 S
C1061 C1056 1.363 1_655 S
C1061 C1060 1.415 . S
H1062 C1059 0.999 . S
H1063 C1044 0.913 . S
H1064 C1082 0.951 . S
H1065 C1084 0.951 . S
H1066 C1086 0.950 . S
H1067 C1087 0.950 . S
H1068 C1089 0.950 . S
H1069 C1092 0.950 . S
H1070 C1093 0.950 . S
H1071 C1095 0.950 . S
H1072 C1096 0.950 . S
H1073 C1097 0.951 1_545 S
H1074 C1099 0.951 . S
H1075 C1101 0.950 . S
H1076 C1102 0.950 . S
H1077 C1104 0.950 . S
H1078 C1107 0.950 . S
H1079 C1108 0.950 . S
H1080 C1110 0.950 . S
H1081 C1111 0.950 . S
C1082 H1064 0.951 . S
C1082 C1083 1.366 . S
C1082 C1084 1.388 . S
C1083 C1082 1.366 . S
C1083 C1087 1.385 . S
C1084 H1065 0.951 . S
C1084 C1082 1.388 . S
C1084 C1085 1.366 . S
C1085 C1084 1.366 . S
C1085 C1086 1.414 . S
C1085 C1088 1.499 . S
C1086 H1066 0.950 . S
C1086 C1085 1.414 . S
C1086 C1087 1.374 . S
C1087 H1067 0.950 . S
C1087 C1083 1.385 . S
C1087 C1086 1.374 . S
C1088 C1085 1.499 . S
C1088 C1089 1.373 . S
C1088 C1090 1.389 . S
C1089 H1068 0.950 . S
C1089 C1088 1.373 . S
C1089 C1105 1.377 . S
C1090 C1088 1.389 . S
C1090 C1091 1.524 . S
C1090 C1104 1.377 . S
C1091 C1090 1.524 . S
C1091 C1092 1.397 . S
C1091 C1096 1.363 . S
C1092 H1069 0.950 . S
C1092 C1091 1.397 . S
C1092 C1093 1.334 . S
C1093 H1070 0.950 . S
C1093 C1092 1.334 . S
C1093 C1094 1.287 . S
C1094 C1093 1.287 . S
C1094 C1095 1.524 . S
C1094 H1113 0.913 . S
C1095 H1071 0.950 . S
C1095 C1094 1.524 . S
C1095 C1096 1.415 . S
C1096 H1072 0.950 . S
C1096 C1091 1.363 . S
C1096 C1095 1.415 . S
C1097 H1073 0.951 1_565 S
C1097 C1098 1.366 . S
C1097 C1099 1.388 . S
C1098 C1097 1.366 . S
C1098 C1102 1.385 . S
C1099 H1074 0.951 . S
C1099 C1097 1.388 . S
C1099 C1100 1.366 1_554 S
C1100 C1099 1.366 1_556 S
C1100 C1101 1.414 . S
C1100 C1103 1.499 . S
C1101 H1075 0.950 . S
C1101 C1100 1.414 . S
C1101 C1102 1.374 1_556 S
C1102 H1076 0.950 . S
C1102 C1098 1.385 . S
C1102 C1101 1.374 1_554 S
C1103 C1100 1.499 . S
C1103 C1104 1.373 . S
C1103 C1105 1.389 . S
C1104 H1077 0.950 . S
C1104 C1090 1.377 . S
C1104 C1103 1.373 . S
C1105 C1089 1.377 . S
C1105 C1103 1.389 . S
C1105 C1106 1.524 1_556 S
C1106 C1105 1.524 1_554 S
C1106 C1107 1.397 . S
C1106 C1111 1.363 . S
C1107 H1078 0.950 . S
C1107 C1106 1.397 . S
C1107 C1108 1.334 . S
C1108 H1079 0.950 . S
C1108 C1107 1.334 . S
C1108 C1109 1.287 . S
C1109 C1108 1.287 . S
C1109 C1110 1.524 . S
C1109 H1112 0.999 . S
C1110 H1080 0.950 . S
C1110 C1109 1.524 . S
C1110 C1111 1.415 . S
C1111 H1081 0.950 . S
C1111 C1106 1.363 . S
C1111 C1110 1.415 . S
H1112 C1109 0.999 . S
H1113 C1094 0.913 . S
H1114 C1132 0.951 . S
H1115 C1134 0.951 . S
H1116 C1136 0.950 . S
H1117 C1137 0.950 . S
H1118 C1139 0.950 . S
H1119 C1142 0.950 . S
H1120 C1143 0.950 . S
H1121 C1145 0.950 . S
H1122 C1146 0.950 . S
H1123 C1147 0.951 . S
H1124 C1149 0.954 . S
H1125 C1151 0.950 . S
H1126 C1152 0.950 . S
H1127 C1154 0.950 . S
H1128 C1157 0.950 . S
H1129 C1158 0.950 . S
H1130 C1160 0.950 . S
H1131 C1161 0.950 . S
C1132 H1114 0.951 . S
C1132 C1133 1.366 . S
C1132 C1134 1.388 . S
C1133 C1132 1.366 . S
C1133 C1137 1.385 . S
C1134 H1115 0.951 . S
C1134 C1132 1.388 . S
C1134 C1135 1.366 . S
C1135 C1134 1.366 . S
C1135 C1136 1.414 . S
C1135 C1138 1.499 . S
C1136 H1116 0.950 . S
C1136 C1135 1.414 . S
C1136 C1137 1.374 . S
C1137 H1117 0.950 . S
C1137 C1133 1.385 . S
C1137 C1136 1.374 . S
C1138 C1135 1.499 . S
C1138 C1139 1.373 . S
C1138 C1140 1.389 . S
C1139 H1118 0.950 . S
C1139 C1138 1.373 . S
C1139 C1155 1.377 . S
C1140 C1138 1.389 . S
C1140 C1141 1.524 . S
C1140 C1154 1.377 . S
C1141 C1140 1.524 . S
C1141 C1142 1.397 . S
C1141 C1146 1.363 . S
C1142 H1119 0.950 . S
C1142 C1141 1.397 . S
C1142 C1143 1.334 . S
C1143 H1120 0.950 . S
C1143 C1142 1.334 . S
C1143 C1144 1.287 . S
C1144 C1143 1.287 . S
C1144 C1145 1.524 . S
C1144 H1163 0.913 . S
C1145 H1121 0.950 . S
C1145 C1144 1.524 . S
C1145 C1146 1.415 . S
C1146 H1122 0.950 . S
C1146 C1141 1.363 . S
C1146 C1145 1.415 . S
C1147 H1123 0.951 . S
C1147 C1148 1.366 1_455 S
C1147 C1149 1.388 1_455 S
C1148 C1147 1.366 1_655 S
C1148 C1152 1.385 . S
C1149 H1124 0.954 . S
C1149 C1147 1.388 1_655 S
C1149 C1150 1.366 . S
C1150 C1149 1.366 . S
C1150 C1151 1.414 . S
C1150 C1153 1.499 . S
C1151 H1125 0.950 . S
C1151 C1150 1.414 . S
C1151 C1152 1.374 . S
C1152 H1126 0.950 . S
C1152 C1148 1.385 . S
C1152 C1151 1.374 . S
C1153 C1150 1.499 . S
C1153 C1154 1.373 . S
C1153 C1155 1.389 . S
C1154 H1127 0.950 . S
C1154 C1140 1.377 . S
C1154 C1153 1.373 . S
C1155 C1139 1.377 . S
C1155 C1153 1.389 . S
C1155 C1156 1.524 . S
C1156 C1155 1.524 . S
C1156 C1157 1.397 . S
C1156 C1161 1.363 1_655 S
C1157 H1128 0.950 . S
C1157 C1156 1.397 . S
C1157 C1158 1.334 1_655 S
C1158 H1129 0.950 . S
C1158 C1157 1.334 1_455 S
C1158 C1159 1.287 . S
C1159 C1158 1.287 . S
C1159 C1160 1.524 . S
C1159 H1162 0.999 . S
C1160 H1130 0.950 . S
C1160 C1159 1.524 . S
C1160 C1161 1.415 . S
C1161 H1131 0.950 . S
C1161 C1156 1.363 1_455 S
C1161 C1160 1.415 . S
H1162 C1159 0.999 . S
H1163 C1144 0.913 . S
H1164 C1182 0.951 . S
H1165 C1184 0.951 . S
H1166 C1186 0.950 . S
H1167 C1187 0.950 . S
H1168 C1189 0.950 . S
H1169 C1192 0.950 . S
H1170 C1193 0.950 . S
H1171 C1195 0.950 . S
H1172 C1196 0.950 . S
H1173 C1197 0.951 . S
H1174 C1199 0.951 . S
H1175 C1201 0.950 . S
H1176 C1202 0.950 . S
H1177 C1204 0.950 . S
H1178 C1207 0.950 . S
H1179 C1208 0.950 . S
H1180 C1210 0.950 . S
H1181 C1211 0.950 . S
C1182 H1164 0.951 . S
C1182 C1183 1.366 . S
C1182 C1184 1.388 . S
C1183 C1182 1.366 . S
C1183 C1187 1.385 . S
C1184 H1165 0.951 . S
C1184 C1182 1.388 . S
C1184 C1185 1.366 . S
C1185 C1184 1.366 . S
C1185 C1186 1.414 . S
C1185 C1188 1.499 . S
C1186 H1166 0.950 . S
C1186 C1185 1.414 . S
C1186 C1187 1.374 . S
C1187 H1167 0.950 . S
C1187 C1183 1.385 . S
C1187 C1186 1.374 . S
C1188 C1185 1.499 . S
C1188 C1189 1.373 . S
C1188 C1190 1.389 . S
C1189 H1168 0.950 . S
C1189 C1188 1.373 . S
C1189 C1205 1.377 . S
C1190 C1188 1.389 . S
C1190 C1191 1.524 . S
C1190 C1204 1.377 . S
C1191 C1190 1.524 . S
C1191 C1192 1.397 . S
C1191 C1196 1.363 . S
C1192 H1169 0.950 . S
C1192 C1191 1.397 . S
C1192 C1193 1.334 . S
C1193 H1170 0.950 . S
C1193 C1192 1.334 . S
C1193 C1194 1.287 . S
C1194 C1193 1.287 . S
C1194 C1195 1.524 . S
C1194 H1213 0.913 . S
C1195 H1171 0.950 . S
C1195 C1194 1.524 . S
C1195 C1196 1.415 . S
C1196 H1172 0.950 . S
C1196 C1191 1.363 . S
C1196 C1195 1.415 . S
C1197 H1173 0.951 . S
C1197 C1198 1.366 . S
C1197 C1199 1.388 . S
C1198 C1197 1.366 . S
C1198 C1202 1.385 . S
C1199 H1174 0.951 . S
C1199 C1197 1.388 . S
C1199 C1200 1.366 . S
C1200 C1199 1.366 . S
C1200 C1201 1.414 . S
C1200 C1203 1.499 . S
C1201 H1175 0.950 . S
C1201 C1200 1.414 . S
C1201 C1202 1.374 . S
C1202 H1176 0.950 . S
C1202 C1198 1.385 . S
C1202 C1201 1.374 . S
C1203 C1200 1.499 . S
C1203 C1204 1.373 . S
C1203 C1205 1.389 . S
C1204 H1177 0.950 . S
C1204 C1190 1.377 . S
C1204 C1203 1.373 . S
C1205 C1189 1.377 . S
C1205 C1203 1.389 . S
C1205 C1206 1.524 . S
C1206 C1205 1.524 . S
C1206 C1207 1.397 . S
C1206 C1211 1.363 . S
C1207 H1178 0.950 . S
C1207 C1206 1.397 . S
C1207 C1208 1.334 . S
C1208 H1179 0.950 . S
C1208 C1207 1.334 . S
C1208 C1209 1.287 . S
C1209 C1208 1.287 . S
C1209 C1210 1.524 . S
C1209 H1212 0.999 . S
C1210 H1180 0.950 . S
C1210 C1209 1.524 . S
C1210 C1211 1.415 . S
C1211 H1181 0.950 . S
C1211 C1206 1.363 . S
C1211 C1210 1.415 . S
H1212 C1209 0.999 . S
H1213 C1194 0.913 . S
H1214 C1232 0.951 . S
H1215 C1234 0.951 . S
H1216 C1236 0.950 . S
H1217 C1237 0.950 . S
H1218 C1239 0.950 . S
H1219 C1242 0.950 . S
H1220 C1243 0.950 . S
H1221 C1245 0.950 . S
H1222 C1246 0.950 . S
H1223 C1247 0.951 . S
H1224 C1249 0.951 . S
H1225 C1251 0.950 . S
H1226 C1252 0.950 . S
H1227 C1254 0.950 . S
H1228 C1257 0.950 . S
H1229 C1258 0.950 . S
H1230 C1260 0.950 . S
H1231 C1261 0.950 . S
C1232 H1214 0.951 . S
C1232 C1233 1.366 . S
C1232 C1234 1.388 . S
C1233 C1232 1.366 . S
C1233 C1237 1.385 . S
C1234 H1215 0.951 . S
C1234 C1232 1.388 . S
C1234 C1235 1.366 . S
C1235 C1234 1.366 . S
C1235 C1236 1.414 . S
C1235 C1238 1.499 . S
C1236 H1216 0.950 . S
C1236 C1235 1.414 . S
C1236 C1237 1.374 . S
C1237 H1217 0.950 . S
C1237 C1233 1.385 . S
C1237 C1236 1.374 . S
C1238 C1235 1.499 . S
C1238 C1239 1.373 . S
C1238 C1240 1.389 . S
C1239 H1218 0.950 . S
C1239 C1238 1.373 . S
C1239 C1255 1.377 . S
C1240 C1238 1.389 . S
C1240 C1241 1.524 . S
C1240 C1254 1.377 . S
C1241 C1240 1.524 . S
C1241 C1242 1.397 . S
C1241 C1246 1.363 . S
C1242 H1219 0.950 . S
C1242 C1241 1.397 . S
C1242 C1243 1.334 . S
C1243 H1220 0.950 . S
C1243 C1242 1.334 . S
C1243 C1244 1.287 . S
C1244 C1243 1.287 . S
C1244 C1245 1.524 . S
C1244 H1263 0.913 . S
C1245 H1221 0.950 . S
C1245 C1244 1.524 . S
C1245 C1246 1.415 . S
C1246 H1222 0.950 . S
C1246 C1241 1.363 . S
C1246 C1245 1.415 . S
C1247 H1223 0.951 . S
C1247 C1248 1.366 . S
C1247 C1249 1.388 . S
C1248 C1247 1.366 . S
C1248 C1252 1.385 . S
C1249 H1224 0.951 . S
C1249 C1247 1.388 . S
C1249 C1250 1.366 . S
C1250 C1249 1.366 . S
C1250 C1251 1.414 . S
C1250 C1253 1.499 . S
C1251 H1225 0.950 . S
C1251 C1250 1.414 . S
C1251 C1252 1.374 . S
C1252 H1226 0.950 . S
C1252 C1248 1.385 . S
C1252 C1251 1.374 . S
C1253 C1250 1.499 . S
C1253 C1254 1.373 . S
C1253 C1255 1.389 . S
C1254 H1227 0.950 . S
C1254 C1240 1.377 . S
C1254 C1253 1.373 . S
C1255 C1239 1.377 . S
C1255 C1253 1.389 . S
C1255 C1256 1.524 . S
C1256 C1255 1.524 . S
C1256 C1257 1.397 . S
C1256 C1261 1.363 . S
C1257 H1228 0.950 . S
C1257 C1256 1.397 . S
C1257 C1258 1.334 . S
C1258 H1229 0.950 . S
C1258 C1257 1.334 . S
C1258 C1259 1.287 . S
C1259 C1258 1.287 . S
C1259 C1260 1.524 . S
C1259 H1262 0.999 . S
C1260 H1230 0.950 . S
C1260 C1259 1.524 . S
C1260 C1261 1.415 . S
C1261 H1231 0.950 . S
C1261 C1256 1.363 . S
C1261 C1260 1.415 . S
H1262 C1259 0.999 . S
H1263 C1244 0.913 . S
H1264 C1282 0.951 . S
H1265 C1284 0.951 . S
H1266 C1286 0.950 . S
H1267 C1287 0.950 . S
H1268 C1289 0.950 . S
H1269 C1292 0.950 . S
H1270 C1293 0.950 . S
H1271 C1295 0.950 . S
H1272 C1296 0.950 . S
H1273 C1297 0.951 . S
H1274 C1299 0.951 . S
H1275 C1301 0.950 . S
H1276 C1302 0.950 . S
H1277 C1304 0.950 . S
H1278 C1307 0.950 . S
H1279 C1308 0.950 . S
H1280 C1310 0.950 . S
H1281 C1311 0.950 . S
C1282 H1264 0.951 . S
C1282 C1283 1.366 . S
C1282 C1284 1.388 . S
C1283 C1282 1.366 . S
C1283 C1287 1.385 . S
C1284 H1265 0.951 . S
C1284 C1282 1.388 . S
C1284 C1285 1.366 . S
C1285 C1284 1.366 . S
C1285 C1286 1.414 . S
C1285 C1288 1.499 . S
C1286 H1266 0.950 . S
C1286 C1285 1.414 . S
C1286 C1287 1.374 . S
C1287 H1267 0.950 . S
C1287 C1283 1.385 . S
C1287 C1286 1.374 . S
C1288 C1285 1.499 . S
C1288 C1289 1.373 . S
C1288 C1290 1.389 . S
C1289 H1268 0.950 . S
C1289 C1288 1.373 . S
C1289 C1305 1.377 . S
C1290 C1288 1.389 . S
C1290 C1291 1.524 . S
C1290 C1304 1.377 . S
C1291 C1290 1.524 . S
C1291 C1292 1.397 . S
C1291 C1296 1.363 . S
C1292 H1269 0.950 . S
C1292 C1291 1.397 . S
C1292 C1293 1.334 . S
C1293 H1270 0.950 . S
C1293 C1292 1.334 . S
C1293 C1294 1.287 . S
C1294 C1293 1.287 . S
C1294 C1295 1.524 . S
C1294 H1313 0.913 . S
C1295 H1271 0.950 . S
C1295 C1294 1.524 . S
C1295 C1296 1.415 . S
C1296 H1272 0.950 . S
C1296 C1291 1.363 . S
C1296 C1295 1.415 . S
C1297 H1273 0.951 . S
C1297 C1298 1.366 . S
C1297 C1299 1.388 . S
C1298 C1297 1.366 . S
C1298 C1302 1.385 . S
C1299 H1274 0.951 . S
C1299 C1297 1.388 . S
C1299 C1300 1.366 . S
C1300 C1299 1.366 . S
C1300 C1301 1.414 . S
C1300 C1303 1.499 . S
C1301 H1275 0.950 . S
C1301 C1300 1.414 . S
C1301 C1302 1.374 . S
C1302 H1276 0.950 . S
C1302 C1298 1.385 . S
C1302 C1301 1.374 . S
C1303 C1300 1.499 . S
C1303 C1304 1.373 . S
C1303 C1305 1.389 . S
C1304 H1277 0.950 . S
C1304 C1290 1.377 . S
C1304 C1303 1.373 . S
C1305 C1289 1.377 . S
C1305 C1303 1.389 . S
C1305 C1306 1.524 . S
C1306 C1305 1.524 . S
C1306 C1307 1.397 . S
C1306 C1311 1.363 . S
C1307 H1278 0.950 . S
C1307 C1306 1.397 . S
C1307 C1308 1.334 . S
C1308 H1279 0.950 . S
C1308 C1307 1.334 . S
C1308 C1309 1.287 . S
C1309 C1308 1.287 . S
C1309 C1310 1.524 . S
C1309 H1312 0.999 . S
C1310 H1280 0.950 . S
C1310 C1309 1.524 . S
C1310 C1311 1.415 . S
C1311 H1281 0.950 . S
C1311 C1306 1.363 . S
C1311 C1310 1.415 . S
H1312 C1309 0.999 . S
H1313 C1294 0.913 . S
H1314 C1332 0.951 . S
H1315 C1334 0.951 . S
H1316 C1336 0.950 . S
H1317 C1337 0.950 . S
H1318 C1339 0.950 . S
H1319 C1342 0.950 . S
H1320 C1343 0.950 . S
H1321 C1345 0.950 . S
H1322 C1346 0.950 . S
H1323 C1347 0.951 . S
H1324 C1349 0.951 . S
H1325 C1351 0.950 . S
H1326 C1352 0.950 . S
H1327 C1354 0.950 . S
H1328 C1357 0.950 . S
H1329 C1358 0.950 . S
H1330 C1360 0.950 . S
H1331 C1361 0.950 . S
C1332 H1314 0.951 . S
C1332 C1333 1.366 . S
C1332 C1334 1.388 . S
C1333 C1332 1.366 . S
C1333 C1337 1.385 . S
C1334 H1315 0.951 . S
C1334 C1332 1.388 . S
C1334 C1335 1.366 . S
C1335 C1334 1.366 . S
C1335 C1336 1.414 . S
C1335 C1338 1.499 . S
C1336 H1316 0.950 . S
C1336 C1335 1.414 . S
C1336 C1337 1.374 . S
C1337 H1317 0.950 . S
C1337 C1333 1.385 . S
C1337 C1336 1.374 . S
C1338 C1335 1.499 . S
C1338 C1339 1.373 . S
C1338 C1340 1.389 . S
C1339 H1318 0.950 . S
C1339 C1338 1.373 . S
C1339 C1355 1.377 . S
C1340 C1338 1.389 . S
C1340 C1341 1.524 . S
C1340 C1354 1.377 . S
C1341 C1340 1.524 . S
C1341 C1342 1.397 . S
C1341 C1346 1.363 . S
C1342 H1319 0.950 . S
C1342 C1341 1.397 . S
C1342 C1343 1.334 . S
C1343 H1320 0.950 . S
C1343 C1342 1.334 . S
C1343 C1344 1.287 . S
C1344 C1343 1.287 . S
C1344 C1345 1.524 . S
C1344 H1363 0.913 . S
C1345 H1321 0.950 . S
C1345 C1344 1.524 . S
C1345 C1346 1.415 . S
C1346 H1322 0.950 . S
C1346 C1341 1.363 . S
C1346 C1345 1.415 . S
C1347 H1323 0.951 . S
C1347 C1348 1.366 . S
C1347 C1349 1.388 . S
C1348 C1347 1.366 . S
C1348 C1352 1.385 . S
C1349 H1324 0.951 . S
C1349 C1347 1.388 . S
C1349 C1350 1.366 . S
C1350 C1349 1.366 . S
C1350 C1351 1.414 . S
C1350 C1353 1.499 . S
C1351 H1325 0.950 . S
C1351 C1350 1.414 . S
C1351 C1352 1.374 . S
C1352 H1326 0.950 . S
C1352 C1348 1.385 . S
C1352 C1351 1.374 . S
C1353 C1350 1.499 . S
C1353 C1354 1.373 . S
C1353 C1355 1.389 . S
C1354 H1327 0.950 . S
C1354 C1340 1.377 . S
C1354 C1353 1.373 . S
C1355 C1339 1.377 . S
C1355 C1353 1.389 . S
C1355 C1356 1.524 . S
C1356 C1355 1.524 . S
C1356 C1357 1.397 . S
C1356 C1361 1.363 . S
C1357 H1328 0.950 . S
C1357 C1356 1.397 . S
C1357 C1358 1.334 . S
C1358 H1329 0.950 . S
C1358 C1357 1.334 . S
C1358 C1359 1.287 . S
C1359 C1358 1.287 . S
C1359 C1360 1.524 . S
C1359 H1362 0.999 . S
C1360 H1330 0.950 . S
C1360 C1359 1.524 . S
C1360 C1361 1.415 . S
C1361 H1331 0.950 . S
C1361 C1356 1.363 . S
C1361 C1360 1.415 . S
H1362 C1359 0.999 . S
H1363 C1344 0.913 . S
H1364 C1382 0.951 . S
H1365 C1384 0.951 . S
H1366 C1386 0.950 . S
H1367 C1387 0.950 . S
H1368 C1389 0.950 . S
H1369 C1392 0.950 . S
H1370 C1393 0.950 . S
H1371 C1395 0.950 . S
H1372 C1396 0.950 . S
H1373 C1397 0.951 . S
H1374 C1399 0.951 . S
H1375 C1401 0.950 . S
H1376 C1402 0.950 . S
H1377 C1404 0.950 . S
H1378 C1407 0.950 . S
H1379 C1408 0.950 1_655 S
H1380 C1410 0.950 . S
H1381 C1411 0.950 . S
C1382 H1364 0.951 . S
C1382 C1383 1.366 . S
C1382 C1384 1.388 . S
C1383 C1382 1.366 . S
C1383 C1387 1.385 . S
C1384 H1365 0.951 . S
C1384 C1382 1.388 . S
C1384 C1385 1.366 . S
C1385 C1384 1.366 . S
C1385 C1386 1.414 . S
C1385 C1388 1.499 . S
C1386 H1366 0.950 . S
C1386 C1385 1.414 . S
C1386 C1387 1.374 . S
C1387 H1367 0.950 . S
C1387 C1383 1.385 . S
C1387 C1386 1.374 . S
C1388 C1385 1.499 . S
C1388 C1389 1.373 . S
C1388 C1390 1.389 . S
C1389 H1368 0.950 . S
C1389 C1388 1.373 . S
C1389 C1405 1.377 . S
C1390 C1388 1.389 . S
C1390 C1391 1.524 . S
C1390 C1404 1.377 . S
C1391 C1390 1.524 . S
C1391 C1392 1.397 . S
C1391 C1396 1.363 . S
C1392 H1369 0.950 . S
C1392 C1391 1.397 . S
C1392 C1393 1.334 . S
C1393 H1370 0.950 . S
C1393 C1392 1.334 . S
C1393 C1394 1.287 . S
C1394 C1393 1.287 . S
C1394 C1395 1.524 . S
C1394 H1413 0.913 . S
C1395 H1371 0.950 . S
C1395 C1394 1.524 . S
C1395 C1396 1.415 . S
C1396 H1372 0.950 . S
C1396 C1391 1.363 . S
C1396 C1395 1.415 . S
C1397 H1373 0.951 . S
C1397 C1398 1.366 . S
C1397 C1399 1.388 . S
C1398 C1397 1.366 . S
C1398 C1402 1.385 . S
C1399 H1374 0.951 . S
C1399 C1397 1.388 . S
C1399 C1400 1.366 . S
C1400 C1399 1.366 . S
C1400 C1401 1.414 . S
C1400 C1403 1.499 . S
C1401 H1375 0.950 . S
C1401 C1400 1.414 . S
C1401 C1402 1.374 . S
C1402 H1376 0.950 . S
C1402 C1398 1.385 . S
C1402 C1401 1.374 . S
C1403 C1400 1.499 . S
C1403 C1404 1.373 . S
C1403 C1405 1.389 . S
C1404 H1377 0.950 . S
C1404 C1390 1.377 . S
C1404 C1403 1.373 . S
C1405 C1389 1.377 . S
C1405 C1403 1.389 . S
C1405 C1406 1.524 . S
C1406 C1405 1.524 . S
C1406 C1407 1.397 . S
C1406 C1411 1.363 . S
C1407 H1378 0.950 . S
C1407 C1406 1.397 . S
C1407 C1408 1.334 . S
C1408 H1379 0.950 1_455 S
C1408 C1407 1.334 . S
C1408 C1409 1.287 1_455 S
C1409 C1408 1.287 1_655 S
C1409 C1410 1.524 1_655 S
C1409 H1412 0.999 . S
C1410 H1380 0.950 . S
C1410 C1409 1.524 1_455 S
C1410 C1411 1.415 . S
C1411 H1381 0.950 . S
C1411 C1406 1.363 . S
C1411 C1410 1.415 . S
H1412 C1409 0.999 . S
H1413 C1394 0.913 . S
H1414 C1432 0.951 . S
H1415 C1434 0.951 . S
H1416 C1436 0.950 . S
H1417 C1437 0.950 . S
H1418 C1439 0.950 . S
H1419 C1442 0.950 . S
H1420 C1443 0.950 . S
H1421 C1445 0.950 . S
H1422 C1446 0.950 . S
H1423 C1447 0.951 . S
H1424 C1449 0.951 . S
H1425 C1451 0.950 . S
H1426 C1452 0.950 . S
H1427 C1454 0.950 . S
H1428 C1457 0.950 . S
H1429 C1458 0.950 . S
H1430 C1460 0.950 . S
H1431 C1461 0.950 . S
C1432 H1414 0.951 . S
C1432 C1433 1.366 . S
C1432 C1434 1.388 . S
C1433 C1432 1.366 . S
C1433 C1437 1.385 . S
C1434 H1415 0.951 . S
C1434 C1432 1.388 . S
C1434 C1435 1.366 . S
C1435 C1434 1.366 . S
C1435 C1436 1.414 . S
C1435 C1438 1.499 . S
C1436 H1416 0.950 . S
C1436 C1435 1.414 . S
C1436 C1437 1.374 . S
C1437 H1417 0.950 . S
C1437 C1433 1.385 . S
C1437 C1436 1.374 . S
C1438 C1435 1.499 . S
C1438 C1439 1.373 . S
C1438 C1440 1.389 . S
C1439 H1418 0.950 . S
C1439 C1438 1.373 . S
C1439 C1455 1.377 . S
C1440 C1438 1.389 . S
C1440 C1441 1.524 . S
C1440 C1454 1.377 . S
C1441 C1440 1.524 . S
C1441 C1442 1.397 . S
C1441 C1446 1.363 . S
C1442 H1419 0.950 . S
C1442 C1441 1.397 . S
C1442 C1443 1.334 . S
C1443 H1420 0.950 . S
C1443 C1442 1.334 . S
C1443 C1444 1.287 . S
C1444 C1443 1.287 . S
C1444 C1445 1.524 . S
C1444 H1463 0.913 . S
C1445 H1421 0.950 . S
C1445 C1444 1.524 . S
C1445 C1446 1.415 . S
C1446 H1422 0.950 . S
C1446 C1441 1.363 . S
C1446 C1445 1.415 . S
C1447 H1423 0.951 . S
C1447 C1448 1.366 . S
C1447 C1449 1.388 . S
C1448 C1447 1.366 . S
C1448 C1452 1.385 . S
C1449 H1424 0.951 . S
C1449 C1447 1.388 . S
C1449 C1450 1.366 . S
C1450 C1449 1.366 . S
C1450 C1451 1.414 . S
C1450 C1453 1.499 . S
C1451 H1425 0.950 . S
C1451 C1450 1.414 . S
C1451 C1452 1.374 . S
C1452 H1426 0.950 . S
C1452 C1448 1.385 . S
C1452 C1451 1.374 . S
C1453 C1450 1.499 . S
C1453 C1454 1.373 . S
C1453 C1455 1.389 . S
C1454 H1427 0.950 . S
C1454 C1440 1.377 . S
C1454 C1453 1.373 . S
C1455 C1439 1.377 . S
C1455 C1453 1.389 . S
C1455 C1456 1.524 . S
C1456 C1455 1.524 . S
C1456 C1457 1.397 . S
C1456 C1461 1.363 . S
C1457 H1428 0.950 . S
C1457 C1456 1.397 . S
C1457 C1458 1.334 . S
C1458 H1429 0.950 . S
C1458 C1457 1.334 . S
C1458 C1459 1.287 . S
C1459 C1458 1.287 . S
C1459 C1460 1.524 . S
C1459 H1462 0.999 . S
C1460 H1430 0.950 . S
C1460 C1459 1.524 . S
C1460 C1461 1.415 . S
C1461 H1431 0.950 . S
C1461 C1456 1.363 . S
C1461 C1460 1.415 . S
H1462 C1459 0.999 . S
H1463 C1444 0.913 . S
C283 N1 0.709 . S
C298 C108 0.705 . S
C333 N18 1.264 . S
C348 C169 1.313 . S
C398 C207 1.967 . S
C383 N28 2.025 . S
C433 N40 2.549 . S
C448 C247 2.550 . S
C498 C167 1.582 . S
C483 N5 1.615 . S
C548 C135 1.816 . S
C533 N14 1.731 . S
C598 C244 1.730 . S
C583 N31 1.721 . S
C648 C204 1.489 . S
C633 N41 1.500 . S
C683 N2 0.819 . S
C698 C249 0.822 . S
C748 C164 2.603 . S
C733 N27 2.587 . S
C783 N44 2.345 . S
C798 C106 2.368 1_655 S
C833 N15 1.050 . S
C848 C209 1.071 . S
C898 C129 1.348 . S
C883 N57 1.351 . S
C933 N70 0.852 . S
C948 C148 0.876 . S
C983 N79 2.327 . S
C998 C186 2.326 . S
C1033 N93 2.207 . S
C1048 C226 2.185 . S
C1083 N54 1.089 . S
C1098 C146 1.102 . S
C1148 C124 2.502 1_655 S
C1133 N66 2.479 . S
C1198 C255 1.099 . S
C1183 N80 1.108 . S
C1248 C215 1.829 . S
C1233 N96 1.830 . S
C1283 N53 0.982 . S
C1298 C228 0.982 . S
C1348 C175 2.054 . S
C1333 N83 1.998 . S
C1398 C127 2.389 . S
C1383 N92 2.428 . S
C1433 N67 1.240 . S
C1448 C188 1.260 . S
