# Generated by pormake.
# Topology zzz, (3,6)-cn, num edge types: 1
# Building blocks:
#     Node 0, Type 0, BuildingBlock: BELTOD_clean_linker_0, # of connection points: 3
#     Node 1, Type 0, BuildingBlock: BELTOD_clean_linker_0, # of connection points: 3
#     Node 2, Type 0, BuildingBlock: BELTOD_clean_linker_0, # of connection points: 3
#     Node 3, Type 0, BuildingBlock: BELTOD_clean_linker_0, # of connection points: 3
#     Node 4, Type 0, BuildingBlock: BELTOD_clean_linker_0, # of connection points: 3
#     Node 5, Type 0, BuildingBlock: BELTOD_clean_linker_0, # of connection points: 3
#     Node 6, Type 0, BuildingBlock: BELTOD_clean_linker_0, # of connection points: 3
#     Node 7, Type 0, BuildingBlock: BELTOD_clean_linker_0, # of connection points: 3
#     Node 8, Type 1, BuildingBlock: MIFKUJ_clean_sbu_0, # of connection points: 6
#     Node 9, Type 1, BuildingBlock: MIFKUJ_clean_sbu_0, # of connection points: 6
#     Node 10, Type 1, BuildingBlock: MIFKUJ_clean_sbu_0, # of connection points: 6
#     Node 11, Type 1, BuildingBlock: MIFKUJ_clean_sbu_0, # of connection points: 6
#     Edge 12, Type (0, 1), BuildingBlock: AJUNOK_clean_linker_0, # of connection points: 2
#     Edge 13, Type (0, 1), BuildingBlock: AJUNOK_clean_linker_0, # of connection points: 2
#     Edge 14, Type (0, 1), BuildingBlock: AJUNOK_clean_linker_0, # of connection points: 2
#     Edge 15, Type (0, 1), BuildingBlock: AJUNOK_clean_linker_0, # of connection points: 2
#     Edge 16, Type (0, 1), BuildingBlock: AJUNOK_clean_linker_0, # of connection points: 2
#     Edge 17, Type (0, 1), BuildingBlock: AJUNOK_clean_linker_0, # of connection points: 2
#     Edge 18, Type (0, 1), BuildingBlock: AJUNOK_clean_linker_0, # of connection points: 2
#     Edge 19, Type (0, 1), BuildingBlock: AJUNOK_clean_linker_0, # of connection points: 2
#     Edge 20, Type (0, 1), BuildingBlock: AJUNOK_clean_linker_0, # of connection points: 2
#     Edge 21, Type (0, 1), BuildingBlock: AJUNOK_clean_linker_0, # of connection points: 2
#     Edge 22, Type (0, 1), BuildingBlock: AJUNOK_clean_linker_0, # of connection points: 2
#     Edge 23, Type (0, 1), BuildingBlock: AJUNOK_clean_linker_0, # of connection points: 2
#     Edge 24, Type (0, 1), BuildingBlock: AJUNOK_clean_linker_0, # of connection points: 2
#     Edge 25, Type (0, 1), BuildingBlock: AJUNOK_clean_linker_0, # of connection points: 2
#     Edge 26, Type (0, 1), BuildingBlock: AJUNOK_clean_linker_0, # of connection points: 2
#     Edge 27, Type (0, 1), BuildingBlock: AJUNOK_clean_linker_0, # of connection points: 2
#     Edge 28, Type (0, 1), BuildingBlock: AJUNOK_clean_linker_0, # of connection points: 2
#     Edge 29, Type (0, 1), BuildingBlock: AJUNOK_clean_linker_0, # of connection points: 2
#     Edge 30, Type (0, 1), BuildingBlock: AJUNOK_clean_linker_0, # of connection points: 2
#     Edge 31, Type (0, 1), BuildingBlock: AJUNOK_clean_linker_0, # of connection points: 2
#     Edge 32, Type (0, 1), BuildingBlock: AJUNOK_clean_linker_0, # of connection points: 2
#     Edge 33, Type (0, 1), BuildingBlock: AJUNOK_clean_linker_0, # of connection points: 2
#     Edge 34, Type (0, 1), BuildingBlock: AJUNOK_clean_linker_0, # of connection points: 2
#     Edge 35, Type (0, 1), BuildingBlock: AJUNOK_clean_linker_0, # of connection points: 2
# Relax obj value: 0.301
# Max RMSD: 0.192
# Mean RMSD: 0.180
data_MOF--net-zzz--node1-MIFKUJ_clean_sbu_0--node2-BELTOD_clean_linker_0--edge1-AJUNOK_clean_linker_0
_symmetry_space_group_name_H-M    P1
_symmetry_Int_Tables_number       1
_symmetry_cell_setting            triclinic
loop_
_symmetry_equiv_pos_as_xyz
'x, y, z'
_cell_length_a     40.494543
_cell_length_b     41.621403
_cell_length_c     15.456854
_cell_angle_alpha  89.683874
_cell_angle_beta   90.0899
_cell_angle_gamma 91.71507
loop_
_atom_site_label
_atom_site_type_symbol
_atom_site_fract_x
_atom_site_fract_y
_atom_site_fract_z
_atom_type_partial_charge
P0 P 0.71351 0.52761 0.10658 0.0
H1 H 0.72424 0.51174 0.28829 0.0
H2 H 0.77541 0.52315 0.36651 0.0
H3 H 0.79767 0.60267 0.19462 0.0
H4 H 0.7454 0.59232 0.11863 0.0
H5 H 0.66349 0.48768 0.02767 0.0
H6 H 0.61807 0.49865 0.93144 0.0
H7 H 0.63419 0.60056 0.96867 0.0
H8 H 0.68023 0.58933 0.06921 0.0
H9 H 0.77048 0.48893 0.07106 0.0
H10 H 0.727 0.57445 0.96774 0.0
O11 O 0.71008 0.48918 0.13799 0.0
H12 H 0.81831 0.49792 0.97749 0.0
H13 H 0.7756 0.58479 0.87897 0.0
C14 C 0.73171 0.55015 0.1947 0.0
C15 C 0.73885 0.53295 0.27041 0.0
C16 C 0.76833 0.53928 0.31488 0.0
C17 C 0.79064 0.56316 0.28466 0.0
C18 C 0.78085 0.58391 0.21832 0.0
C19 C 0.75086 0.57799 0.17516 0.0
C20 C 0.67482 0.53763 0.05754 0.0
C21 C 0.65664 0.51243 0.01883 0.0
C22 C 0.63071 0.51869 0.96317 0.0
C23 C 0.62251 0.55036 0.94372 0.0
C24 C 0.63997 0.57592 0.98383 0.0
C25 C 0.66598 0.56952 0.04139 0.0
C26 C 0.74466 0.53038 0.02439 0.0
C27 C 0.77084 0.50922 0.02691 0.0
C28 C 0.79845 0.51476 0.97473 0.0
C29 C 0.80064 0.54202 0.92075 0.0
C30 C 0.77427 0.56313 0.91812 0.0
C31 C 0.74634 0.55713 0.96881 0.0
P32 P 0.04701 0.7103 0.08618 0.0
H33 H 0.07581 0.73225 0.24758 0.0
H34 H 0.05802 0.77263 0.34618 0.0
H35 H 0.96008 0.7676 0.23467 0.0
H36 H 0.97892 0.7283 0.13075 0.0
H37 H 0.08143 0.65632 0.01819 0.0
H38 H 0.06331 0.61031 0.93347 0.0
H39 H 0.96161 0.63426 0.97381 0.0
H40 H 0.97981 0.68012 0.06298 0.0
H41 H 0.09034 0.76252 0.02497 0.0
H42 H 0.99101 0.72686 0.97417 0.0
O43 O 0.08752 0.70733 0.10408 0.0
H44 H 0.07926 0.81115 0.94265 0.0
H45 H 0.97964 0.77603 0.8939 0.0
C46 C 0.02877 0.72674 0.18163 0.0
C47 C 0.05008 0.73857 0.2461 0.0
C48 C 0.03969 0.76178 0.3035 0.0
C49 C 0.00738 0.77322 0.29928 0.0
C50 C 0.9851 0.75928 0.23958 0.0
C51 C 0.99578 0.7363 0.18087 0.0
C52 C 0.03205 0.67194 0.04701 0.0
C53 C 0.05515 0.65122 0.01229 0.0
C54 C 0.04481 0.62481 0.96369 0.0
C55 C 0.01112 0.61887 0.94751 0.0
C56 C 0.98773 0.63846 0.98594 0.0
C57 C 0.99818 0.6647 0.03659 0.0
C58 C 0.0416 0.7409 0.00559 0.0
C59 C 0.06638 0.76475 0.99475 0.0
C60 C 0.05989 0.79276 0.94895 0.0
C61 C 0.02832 0.7976 0.91468 0.0
C62 C 0.00408 0.77291 0.92074 0.0
C63 C 0.01068 0.74473 0.96621 0.0
P64 P 0.77813 0.96393 0.09334 0.0
H65 H 0.78566 0.97134 0.2798 0.0
H66 H 0.74143 0.96388 0.38533 0.0
H67 H 0.6896 0.89952 0.21047 0.0
H68 H 0.73444 0.90613 0.10645 0.0
H69 H 0.82407 0.00604 0.00703 0.0
H70 H 0.87136 -0.00225 0.91612 0.0
H71 H 0.86427 0.89568 0.96681 0.0
H72 H 0.81559 0.90429 0.06057 0.0
H73 H 0.71549 -0.00497 0.08134 0.0
H74 H 0.76998 0.92746 0.93084 0.0
O75 O 0.78067 0.00198 0.12717 0.0
H76 H 0.66887 0.98906 0.9814 0.0
H77 H 0.72332 0.92185 0.83008 0.0
C78 C 0.76262 0.94048 0.18366 0.0
C79 C 0.76591 0.95396 0.26621 0.0
C80 C 0.74037 0.94994 0.32633 0.0
C81 C 0.71151 0.93212 0.30458 0.0
C82 C 0.71135 0.91367 0.22875 0.0
C83 C 0.73715 0.91748 0.16901 0.0
C84 C 0.81698 0.95595 0.0431 0.0
C85 C 0.83309 0.9819 0.00165 0.0
C86 C 0.86009 0.97712 0.94901 0.0
C87 C 0.87171 0.94618 0.93559 0.0
C88 C 0.85585 0.91981 0.97712 0.0
C89 C 0.82843 0.92473 0.03104 0.0
C90 C 0.74645 0.96238 0.01221 0.0
C91 C 0.71768 0.97945 0.02588 0.0
C92 C 0.69103 0.97581 0.96954 0.0
C93 C 0.69284 0.95508 0.89876 0.0
C94 C 0.72172 0.93816 0.88422 0.0
C95 C 0.74835 0.94156 0.94133 0.0
P96 P 0.42146 0.77678 0.10678 0.0
H97 H 0.40968 0.77108 0.29242 0.0
H98 H 0.43227 0.7332 0.39642 0.0
H99 H 0.509 0.71041 0.2155 0.0
H100 H 0.48678 0.74865 0.11201 0.0
H101 H 0.3866 0.82775 0.02345 0.0
H102 H 0.40649 0.87329 0.93595 0.0
H103 H 0.50677 0.85454 0.01102 0.0
H104 H 0.48675 0.80945 0.10154 0.0
H105 H 0.39056 0.71379 0.07771 0.0
H106 H 0.46219 0.77626 0.94885 0.0
O107 O 0.38197 0.77803 0.13713 0.0
H108 H 0.4036 0.67048 0.97758 0.0
H109 H 0.47543 0.73308 0.85053 0.0
C110 C 0.44593 0.76175 0.19378 0.0
C111 C 0.43227 0.75915 0.27662 0.0
C112 C 0.4453 0.7377 0.33617 0.0
C113 C 0.47191 0.71869 0.31275 0.0
C114 C 0.48852 0.72492 0.23478 0.0
C115 C 0.47558 0.74654 0.17539 0.0
C116 C 0.43516 0.81554 0.06946 0.0
C117 C 0.41269 0.83426 0.02437 0.0
C118 C 0.42404 0.86004 0.97408 0.0
C119 C 0.458 0.86691 0.96722 0.0
C120 C 0.48046 0.84941 0.0161 0.0
C121 C 0.46899 0.82392 0.06802 0.0
C122 C 0.42497 0.74842 0.02024 0.0
C123 C 0.40828 0.71853 0.02645 0.0
C124 C 0.4158 0.69383 0.96963 0.0
C125 C 0.44048 0.69867 0.90687 0.0
C126 C 0.45632 0.72892 0.89864 0.0
C127 C 0.44854 0.75366 0.95473 0.0
P128 P 0.27724 0.3795 0.12561 0.0
H129 H 0.24961 0.35499 0.96268 0.0
H130 H 0.20636 0.37597 0.86876 0.0
H131 H 0.21291 0.46649 0.00257 0.0
H132 H 0.25509 0.44521 0.09871 0.0
H133 H 0.32638 0.35215 0.23581 0.0
H134 H 0.3685 0.37644 0.32744 0.0
H135 H 0.35559 0.46783 0.2002 0.0
H136 H 0.31242 0.44329 0.10974 0.0
H137 H 0.20728 0.36213 0.13942 0.0
H138 H 0.28188 0.40855 0.30018 0.0
O139 O 0.28085 0.34045 0.10502 0.0
H140 H 0.16431 0.38537 0.22847 0.0
H141 H 0.23943 0.43031 0.38961 0.0
C142 C 0.25675 0.39885 0.03611 0.0
C143 C 0.24273 0.37975 0.97005 0.0
C144 C 0.21757 0.39149 0.91731 0.0
C145 C 0.20627 0.42267 0.92917 0.0
C146 C 0.22141 0.44239 0.99206 0.0
C147 C 0.24617 0.43048 0.04562 0.0
C148 C 0.31655 0.39559 0.16419 0.0
C149 C 0.33363 0.37709 0.22457 0.0
C150 C 0.35782 0.39118 0.27777 0.0
C151 C 0.36665 0.424 0.27006 0.0
C152 C 0.35045 0.44226 0.20651 0.0
C153 C 0.32557 0.42822 0.15436 0.0
C154 C 0.24789 0.38405 0.2114 0.0
C155 C 0.2145 0.3761 0.19564 0.0
C156 C 0.18997 0.38942 0.24635 0.0
C157 C 0.19879 0.41021 0.3143 0.0
C158 C 0.23215 0.41496 0.33603 0.0
C159 C 0.25654 0.40214 0.2848 0.0
P160 P 0.0466 0.2843 0.0952 0.0
H161 H 0.08167 0.2652 0.9407 0.0
H162 H 0.06712 0.22044 0.84897 0.0
H163 H 0.96478 0.22746 0.92374 0.0
H164 H 0.98041 0.27019 0.0239 0.0
H165 H 0.08022 0.32913 0.20751 0.0
H166 H 0.06149 0.37184 0.29768 0.0
H167 H 0.96529 0.36531 0.17673 0.0
H168 H 0.98419 0.32091 0.08724 0.0
H169 H 0.05083 0.21543 0.07726 0.0
H170 H 0.01448 0.28091 0.26856 0.0
O171 O 0.08785 0.28529 0.09413 0.0
H172 H 0.03249 0.17016 0.16556 0.0
H173 H 0.99824 0.23515 0.36074 0.0
C174 C 0.03227 0.27115 0.99036 0.0
C175 C 0.05577 0.25835 0.93465 0.0
C176 C 0.04732 0.23239 0.88139 0.0
C177 C 0.01474 0.21972 0.87955 0.0
C178 C 0.99029 0.23603 0.92515 0.0
C179 C 0.99903 0.26134 0.98075 0.0
C180 C 0.03379 0.32186 0.13972 0.0
C181 C 0.05531 0.33726 0.19819 0.0
C182 C 0.04445 0.36181 0.25051 0.0
C183 C 0.01165 0.37175 0.24627 0.0
C184 C 0.99045 0.35761 0.18379 0.0
C185 C 0.00138 0.33254 0.13143 0.0
C186 C 0.03382 0.25168 0.16548 0.0
C187 C 0.03883 0.22018 0.13814 0.0
C188 C 0.02839 0.19423 0.18885 0.0
C189 C 0.0138 0.19914 0.26977 0.0
C190 C 0.00873 0.23069 0.29769 0.0
C191 C 0.01852 0.25687 0.2455 0.0
P192 P 0.22584 0.11204 0.13678 0.0
H193 H 0.24688 0.13834 0.96808 0.0
H194 H 0.28631 0.11816 0.86314 0.0
H195 H 0.28375 0.02628 0.99409 0.0
H196 H 0.24459 0.04643 0.09815 0.0
H197 H 0.17835 0.14099 0.25103 0.0
H198 H 0.13232 0.11849 0.33637 0.0
H199 H 0.14226 0.02735 0.20862 0.0
H200 H 0.18762 0.05024 0.12157 0.0
H201 H 0.29658 0.12501 0.13429 0.0
H202 H 0.22585 0.07941 0.30789 0.0
O203 O 0.2243 0.15173 0.12218 0.0
H204 H 0.34144 0.10086 0.21405 0.0
H205 H 0.2707 0.05717 0.39142 0.0
C206 C 0.2418 0.09369 0.04005 0.0
C207 C 0.25354 0.11338 0.97193 0.0
C208 C 0.27656 0.10199 0.91263 0.0
C209 C 0.28823 0.07062 0.92016 0.0
C210 C 0.2748 0.05033 0.98506 0.0
C211 C 0.25187 0.06173 0.04422 0.0
C212 C 0.18648 0.09742 0.17931 0.0
C213 C 0.17003 0.11642 0.23941 0.0
C214 C 0.14403 0.1034 0.28928 0.0
C215 C 0.13415 0.07091 0.2808 0.0
C216 C 0.14937 0.05244 0.21695 0.0
C217 C 0.1754 0.06553 0.16696 0.0
C218 C 0.25778 0.1039 0.21432 0.0
C219 C 0.29074 0.11089 0.19162 0.0
C220 C 0.31645 0.0971 0.23757 0.0
C221 C 0.30965 0.07691 0.30897 0.0
C222 C 0.27669 0.07211 0.33567 0.0
C223 C 0.25095 0.08524 0.28835 0.0
P224 P 0.48082 0.2159 0.08357 0.0
H225 H 0.45151 0.22739 0.9134 0.0
H226 H 0.46799 0.26937 0.81041 0.0
H227 H 0.56352 0.27756 0.93503 0.0
H228 H 0.54786 0.23433 0.03197 0.0
H229 H 0.44446 0.15779 0.13565 0.0
H230 H 0.4594 0.11602 0.23846 0.0
H231 H 0.56094 0.15012 0.2318 0.0
H232 H 0.54615 0.19207 0.12832 0.0
H233 H 0.48919 0.28527 0.06394 0.0
H234 H 0.49787 0.21558 0.2706 0.0
O235 O 0.43966 0.21538 0.07689 0.0
H236 H 0.50726 0.32776 0.16167 0.0
H237 H 0.51465 0.2589 0.36966 0.0
C238 C 0.49825 0.22813 0.9815 0.0
C239 C 0.47674 0.23674 0.91479 0.0
C240 C 0.48601 0.2612 0.85684 0.0
C241 C 0.51671 0.27756 0.86602 0.0
C242 C 0.53985 0.26543 0.92477 0.0
C243 C 0.5309 0.24027 0.98064 0.0
C244 C 0.49417 0.17814 0.12453 0.0
C245 C 0.4702 0.15559 0.15311 0.0
C246 C 0.47862 0.13191 0.2123 0.0
C247 C 0.51105 0.13064 0.2433 0.0
C248 C 0.53577 0.15097 0.20822 0.0
C249 C 0.52734 0.17466 0.1485 0.0
C250 C 0.49326 0.24694 0.15868 0.0
C251 C 0.49577 0.27886 0.12953 0.0
C252 C 0.50639 0.30315 0.18506 0.0
C253 C 0.51326 0.29622 0.27188 0.0
C254 C 0.51063 0.26441 0.30193 0.0
C255 C 0.50058 0.23983 0.24553 0.0
Zn256 Zn 0.98619 0.04497 0.61391 0.0
Zn257 Zn 0.00341 0.94661 0.56065 0.0
C258 C 0.98587 0.09147 0.74451 0.0
O259 O 0.95434 0.08323 0.74067 0.0
C260 C 0.0073 0.89829 0.45106 0.0
O261 O 0.03739 0.90571 0.47762 0.0
O262 O 0.97161 0.07567 0.523 0.0
O263 O 0.01926 0.01569 0.55482 0.0
O264 O 0.04218 0.97224 0.50752 0.0
C265 C 0.99836 0.0899 0.49944 0.0
O266 O 0.02633 0.08097 0.53375 0.0
O267 O 0.00646 0.07528 0.70211 0.0
C268 C 0.01495 0.91794 0.73317 0.0
O269 O 0.0117 0.94623 0.76864 0.0
O270 O 0.01536 0.91531 0.65163 0.0
O271 O 0.97352 0.97847 0.61176 0.0
O272 O 0.94951 0.01819 0.67203 0.0
O273 O 0.98399 0.91669 0.47098 0.0
C274 C 0.04211 0.00277 0.51193 0.0
C275 C 0.95237 0.98801 0.66518 0.0
Zn276 Zn 0.46052 0.02188 0.62674 0.0
Zn277 Zn 0.53299 0.97198 0.56321 0.0
C278 C 0.40349 0.02485 0.73513 0.0
O279 O 0.40631 0.99374 0.72589 0.0
C280 C 0.58714 0.9684 0.45958 0.0
O281 O 0.58684 -0.00189 0.48786 0.0
O282 O 0.43768 0.01953 0.51166 0.0
O283 O 0.50128 0.04882 0.60228 0.0
O284 O 0.52205 0.0144 0.50929 0.0
C285 C 0.40901 0.00737 0.49887 0.0
O286 O 0.39695 0.98588 0.55363 0.0
O287 O 0.42603 0.04356 0.70355 0.0
C288 C 0.57566 0.95187 0.68875 0.0
O289 O 0.56239 0.92452 0.66197 0.0
O290 O 0.56528 0.97826 0.65901 0.0
O291 O 0.49721 0.94335 0.61292 0.0
O292 O 0.47041 0.98049 0.6835 0.0
O293 O 0.5627 0.94962 0.47804 0.0
C294 C 0.51537 0.04297 0.53067 0.0
C295 C 0.48182 0.95256 0.67949 0.0
Zn296 Zn 0.52292 0.45277 0.60826 0.0
Zn297 Zn 0.48677 0.54544 0.58431 0.0
C298 C 0.53602 0.40708 0.72795 0.0
O299 O 0.56502 0.41741 0.69958 0.0
C300 C 0.47548 0.59418 0.47692 0.0
O301 O 0.44643 0.58274 0.50202 0.0
O302 O 0.53943 0.42245 0.51936 0.0
O303 O 0.48227 0.47381 0.55058 0.0
O304 O 0.45318 0.51676 0.5244 0.0
C305 C 0.51495 0.40323 0.50652 0.0
O306 O 0.48744 0.4074 0.54947 0.0
O307 O 0.51069 0.42246 0.70563 0.0
C308 C 0.48741 0.59152 0.71014 0.0
O309 O 0.51775 0.59391 0.68033 0.0
O310 O 0.46838 0.56883 0.68369 0.0
O311 O 0.52265 0.51777 0.6172 0.0
O312 O 0.55803 0.48357 0.6583 0.0
O313 O 0.50111 0.5799 0.50146 0.0
C314 C 0.45737 0.48681 0.51533 0.0
C315 C 0.54821 0.51207 0.66036 0.0
Zn316 Zn 0.04993 0.48591 0.60541 0.0
Zn317 Zn 0.95016 0.51417 0.58332 0.0
C318 C 0.09609 0.47634 0.74086 0.0
O319 O 0.0972 0.50773 0.73221 0.0
C320 C 0.91735 0.53017 0.42058 0.0
O321 O 0.93003 0.50341 0.39298 0.0
O322 O 0.07744 0.48123 0.502 0.0
O323 O 0.00298 0.4711 0.57035 0.0
O324 O 0.95063 0.46766 0.53924 0.0
C325 C 0.10789 0.48861 0.49899 0.0
O326 O 0.12117 0.50726 0.55857 0.0
O327 O 0.07428 0.46005 0.69871 0.0
C328 C 0.91616 0.5471 0.70645 0.0
O329 O 0.92434 0.57008 0.65139 0.0
O330 O 0.92622 0.51889 0.69406 0.0
O331 O 0.99745 0.52851 0.59639 0.0
O332 O 0.04692 0.53196 0.64804 0.0
O333 O 0.92502 0.54018 0.49568 0.0
C334 C 0.97941 0.45662 0.53047 0.0
C335 C 0.01746 0.54144 0.64971 0.0
C336 C 0.08352 0.03589 0.30894 0.0
C337 C 0.10945 0.0557 0.34123 0.0
C338 C 0.06152 0.01938 0.36492 0.0
C339 C 0.06444 0.02219 0.45526 0.0
H340 H 0.0804 0.0329 0.2398 0.0
H341 H 0.04217 0.00407 0.33732 0.0
S342 S 0.12818 0.07009 0.57344 0.0
N343 N 0.13698 0.07652 0.47033 0.0
N344 N 0.09507 0.04591 0.57483 0.0
C345 C 0.08976 0.0422 0.48863 0.0
C346 C 0.11236 0.05888 0.43179 0.0
C347 C 0.53147 0.08098 0.31145 0.0
C348 C 0.51754 0.11108 0.32009 0.0
C349 C 0.53246 0.05991 0.38201 0.0
C350 C 0.51921 0.06819 0.46323 0.0
H351 H 0.54023 0.07314 0.24904 0.0
H352 H 0.54239 0.03639 0.37128 0.0
S353 S 0.48482 0.14702 0.51979 0.0
N354 N 0.49392 0.15018 0.41593 0.0
N355 N 0.49545 0.11055 0.54943 0.0
C356 C 0.50739 0.09936 0.47358 0.0
C357 C 0.50655 0.1208 0.40157 0.0
C358 C 0.39074 0.431 0.42029 0.0
C359 C 0.39124 0.43921 0.33133 0.0
C360 C 0.413 0.44547 0.47953 0.0
C361 C 0.43628 0.46904 0.45234 0.0
H362 H 0.37257 0.41368 0.4449 0.0
H363 H 0.41136 0.43886 0.5473 0.0
S364 S 0.44994 0.49785 0.22756 0.0
N365 N 0.41917 0.47109 0.21938 0.0
N366 N 0.45959 0.49924 0.33134 0.0
C367 C 0.43746 0.47721 0.36409 0.0
C368 C 0.4153 0.46213 0.30352 0.0
C369 C 0.02156 0.42094 0.3362 0.0
C370 C 0.0002 0.39527 0.31155 0.0
C371 C 0.01455 0.44021 0.40721 0.0
C372 C 0.98599 0.43488 0.45714 0.0
H373 H 0.04424 0.42599 0.30094 0.0
H374 H 0.03129 0.46003 0.42155 0.0
S375 S 0.91922 0.37425 0.41299 0.0
N376 N 0.94733 0.36757 0.33842 0.0
N377 N 0.93397 0.40471 0.47085 0.0
C378 C 0.96318 0.41085 0.43001 0.0
C379 C 0.97034 0.39087 0.35759 0.0
C380 C 0.9279 0.96237 0.88903 0.0
C381 C 0.8993 0.94326 0.87382 0.0
C382 C 0.94679 0.97463 0.82022 0.0
C383 C 0.93862 0.96707 0.7342 0.0
H384 H 0.93317 0.97127 0.95351 0.0
H385 H 0.96645 0.99211 0.83404 0.0
S386 S 0.87165 0.91108 0.66188 0.0
N387 N 0.86718 0.91263 0.76809 0.0
N388 N 0.90422 0.93439 0.6384 0.0
C389 C 0.91322 0.94418 0.71892 0.0
C390 C 0.89329 0.93229 0.78918 0.0
C391 C 0.48282 0.87859 0.8238 0.0
C392 C 0.46939 0.88992 0.90112 0.0
C393 C 0.48721 0.89905 0.7523 0.0
C394 C 0.47827 0.93142 0.75632 0.0
H395 H 0.48842 0.85342 0.81731 0.0
H396 H 0.4968 0.88921 0.69302 0.0
S397 S 0.44644 0.97306 0.95061 0.0
N398 N 0.44995 0.93531 0.98155 0.0
N399 N 0.45905 0.97447 0.84916 0.0
C400 C 0.46672 0.94329 0.83599 0.0
C401 C 0.46205 0.92233 0.90799 0.0
C402 C 0.60975 0.56084 0.7896 0.0
C403 C 0.59807 0.55497 0.87411 0.0
C404 C 0.59149 0.55006 0.71741 0.0
C405 C 0.5609 0.53377 0.72813 0.0
H406 H 0.63471 0.57021 0.77963 0.0
H407 H 0.60268 0.55182 0.65387 0.0
S408 S 0.5174 0.51736 0.93489 0.0
N409 N 0.55244 0.53568 0.96356 0.0
N410 N 0.51788 0.516 0.82809 0.0
C411 C 0.54732 0.53132 0.81143 0.0
C412 C 0.56595 0.54198 0.88461 0.0
C413 C 0.99079 0.60687 0.79928 0.0
C414 C 0.00194 0.59546 0.87976 0.0
C415 C 0.99317 0.58807 0.72451 0.0
C416 C 0.00629 0.55729 0.7288 0.0
H417 H 0.98321 0.63151 0.79262 0.0
H418 H 0.9872 0.59861 0.6624 0.0
S419 S 0.0335 0.51464 0.92653 0.0
N420 N 0.02273 0.55032 0.96111 0.0
N421 N 0.02637 0.51463 0.82127 0.0
C422 C 0.0144 0.54455 0.81027 0.0
C423 C 0.0123 0.56371 0.88584 0.0
C424 C 0.03275 0.14877 0.33664 0.0
C425 C 0.00769 0.17118 0.3275 0.0
C426 C 0.02865 0.12202 0.39011 0.0
C427 C 0.99937 0.11656 0.43709 0.0
H428 H 0.05612 0.1522 0.30328 0.0
H429 H 0.04891 0.10567 0.39548 0.0
S430 S 0.92621 0.16795 0.43713 0.0
N431 N 0.95234 0.18617 0.36953 0.0
N432 N 0.94486 0.13561 0.47241 0.0
C433 C 0.97387 0.1385 0.42866 0.0
C434 C 0.97807 0.16601 0.37368 0.0
C435 C 0.33157 0.02649 0.37357 0.0
C436 C 0.33645 0.05925 0.35237 0.0
C437 C 0.35586 0.0094 0.41716 0.0
C438 C 0.38622 0.02424 0.44017 0.0
H439 H 0.30862 0.01394 0.35702 0.0
H440 H 0.35052 0.98453 0.43453 0.0
S441 S 0.41148 0.1096 0.3987 0.0
N442 N 0.37388 0.10594 0.358 0.0
N443 N 0.42011 0.07369 0.43666 0.0
C444 C 0.39192 0.05675 0.41659 0.0
C445 C 0.36691 0.07428 0.37355 0.0
C446 C 0.54393 0.33228 0.37676 0.0
C447 C 0.51472 0.32297 0.33317 0.0
C448 C 0.54456 0.35921 0.43147 0.0
C449 C 0.51591 0.37696 0.44389 0.0
H450 H 0.56621 0.31891 0.36799 0.0
H451 H 0.56717 0.3657 0.46551 0.0
S452 S 0.43405 0.36168 0.34293 0.0
N453 N 0.4571 0.33295 0.30573 0.0
N454 N 0.45818 0.38359 0.40674 0.0
C455 C 0.48686 0.36765 0.40007 0.0
C456 C 0.48628 0.34056 0.34522 0.0
C457 C 0.17974 0.46323 0.36402 0.0
C458 C 0.17396 0.4298 0.35695 0.0
C459 C 0.15779 0.48244 0.40841 0.0
C460 C 0.12906 0.46889 0.44543 0.0
H461 H 0.20166 0.47458 0.33584 0.0
H462 H 0.16342 0.50794 0.41439 0.0
S463 S 0.10332 0.38246 0.44821 0.0
N464 N 0.13806 0.38386 0.39236 0.0
N465 N 0.09618 0.42 0.47452 0.0
C466 C 0.12259 0.43556 0.4374 0.0
C467 C 0.14519 0.41598 0.39315 0.0
C468 C 0.00799 0.82966 0.79009 0.0
C469 C 0.02091 0.82872 0.87416 0.0
C470 C 0.0049 0.85897 0.7468 0.0
C471 C 0.01502 0.88823 0.78554 0.0
H472 H 0.00131 0.80762 0.75652 0.0
H473 H 0.99478 0.85866 0.68201 0.0
S474 S 0.04307 0.89873 0.01207 0.0
N475 N 0.03829 0.85944 0.0004 0.0
N476 N 0.03325 0.9147 0.91774 0.0
C477 C 0.02523 0.88775 0.87221 0.0
C478 C 0.02815 0.85788 0.91665 0.0
C479 C 0.63399 0.93908 0.87466 0.0
C480 C 0.66414 0.95129 0.84124 0.0
C481 C 0.60528 0.93876 0.82415 0.0
C482 C 0.6059 0.95152 0.74006 0.0
H483 H 0.63259 0.93019 0.94062 0.0
H484 H 0.58234 0.92934 0.85166 0.0
S485 S 0.67912 0.98335 0.62037 0.0
N486 N 0.69349 0.97392 0.71709 0.0
N487 N 0.63915 0.97421 0.62283 0.0
C488 C 0.63603 0.96276 0.70496 0.0
C489 C 0.66536 0.96242 0.75556 0.0
C490 C 0.48499 0.66279 0.85977 0.0
C491 C 0.45175 0.67146 0.85529 0.0
C492 C 0.49618 0.63638 0.81388 0.0
C493 C 0.47444 0.61773 0.76237 0.0
H494 H 0.50236 0.67635 0.89975 0.0
H495 H 0.522 0.63049 0.8189 0.0
S496 S 0.38584 0.63282 0.72222 0.0
N497 N 0.39777 0.66098 0.79138 0.0
N498 N 0.41868 0.61121 0.70458 0.0
C499 C 0.44124 0.62653 0.75625 0.0
C500 C 0.42991 0.65347 0.8029 0.0
C501 C 0.86197 0.54329 0.90336 0.0
C502 C 0.83046 0.548 0.86741 0.0
C503 C 0.89027 0.54439 0.85155 0.0
C504 C 0.88788 0.55116 0.76301 0.0
H505 H 0.86465 0.53772 0.97149 0.0
H506 H 0.91397 0.5392 0.88027 0.0
S507 S 0.812 0.56681 0.63763 0.0
N508 N 0.79898 0.56037 0.73757 0.0
N509 N 0.85253 0.56394 0.64151 0.0
C510 C 0.85701 0.55773 0.72708 0.0
C511 C 0.82812 0.5559 0.7791 0.0
C512 C 0.98637 0.16523 0.88664 0.0
C513 C 0.00733 0.1873 0.84173 0.0
C514 C 0.98024 0.13397 0.856 0.0
C515 C 0.99561 0.12311 0.78078 0.0
H516 H 0.97482 0.17193 0.94677 0.0
H517 H 0.96339 0.11813 0.89167 0.0
S518 S 0.05095 0.17119 0.63572 0.0
N519 N 0.04174 0.19615 0.71415 0.0
N520 N 0.03174 0.13681 0.66005 0.0
C521 C 0.01679 0.14458 0.73542 0.0
C522 C 0.0223 0.17676 0.76505 0.0
C523 C 0.34534 0.0792 0.85751 0.0
C524 C 0.31631 0.05984 0.86602 0.0
C525 C 0.3733 0.06816 0.81383 0.0
C526 C 0.37337 0.03723 0.7775 0.0
H527 H 0.34685 0.10272 0.8872 0.0
H528 H 0.39525 0.08363 0.81054 0.0
S529 S 0.30207 0.97878 0.77229 0.0
N530 N 0.2884 0.00954 0.82724 0.0
N531 N 0.34062 0.98856 0.7465 0.0
C532 C 0.34401 0.01816 0.78286 0.0
C533 C 0.31562 0.02948 0.82674 0.0
C534 C 0.49657 0.33219 0.82895 0.0
C535 C 0.52215 0.30996 0.82677 0.0
C536 C 0.50148 0.36378 0.79919 0.0
C537 C 0.53232 0.37463 0.76718 0.0
H538 H 0.4726 0.32536 0.8554 0.0
H539 H 0.48088 0.37979 0.80122 0.0
S540 S 0.60742 0.32594 0.74684 0.0
N541 N 0.57919 0.30083 0.78761 0.0
N542 N 0.58904 0.36056 0.73554 0.0
C543 C 0.55829 0.35279 0.76569 0.0
C544 C 0.55306 0.32041 0.79442 0.0
C545 C 0.14608 0.4218 0.88737 0.0
C546 C 0.17843 0.43474 0.87701 0.0
C547 C 0.11926 0.43462 0.84169 0.0
C548 C 0.12408 0.46087 0.78488 0.0
H549 H 0.14143 0.40218 0.93248 0.0
H550 H 0.09461 0.42462 0.85275 0.0
S551 S 0.20456 0.50072 0.72863 0.0
N552 N 0.21401 0.4733 0.80141 0.0
N553 N 0.16411 0.49748 0.71613 0.0
C554 C 0.15652 0.47318 0.77243 0.0
C555 C 0.18358 0.46012 0.8184 0.0
C556 C 0.98471 0.82869 0.30401 0.0
C557 C 0.99929 0.80275 0.34755 0.0
C558 C 0.98502 0.85961 0.34028 0.0
C559 C 0.00054 0.86545 0.42006 0.0
H560 H 0.97515 0.82571 0.23897 0.0
H561 H 0.97527 0.87935 0.30314 0.0
S562 S 0.03685 0.80505 0.56643 0.0
N563 N 0.02417 0.78423 0.48145 0.0
N564 N 0.02749 0.84262 0.54557 0.0
C565 C 0.01295 0.8394 0.46668 0.0
C566 C 0.01154 0.80793 0.43154 0.0
C567 C 0.6713 0.97194 0.35401 0.0
C568 C 0.67982 0.93955 0.34739 0.0
C569 C 0.64089 0.98059 0.38765 0.0
C570 C 0.61746 0.9573 0.41649 0.0
H571 H 0.6881 0.99092 0.33145 0.0
H572 H 0.63586 0.00597 0.39135 0.0
S573 S 0.62779 0.869 0.4143 0.0
N574 N 0.66252 0.8839 0.37222 0.0
N575 N 0.60506 0.90018 0.43688 0.0
C576 C 0.62546 0.92469 0.40986 0.0
C577 C 0.65667 0.91583 0.37497 0.0
C578 C 0.44769 0.66567 0.35053 0.0
C579 C 0.47503 0.68713 0.35442 0.0
C580 C 0.44884 0.63516 0.38727 0.0
C581 C 0.47742 0.62487 0.42934 0.0
H582 H 0.42509 0.67257 0.31863 0.0
H583 H 0.42688 0.6197 0.38363 0.0
S584 S 0.55639 0.67165 0.45294 0.0
N585 N 0.53204 0.69596 0.39927 0.0
N586 N 0.53435 0.63816 0.47021 0.0
C587 C 0.50549 0.6457 0.43123 0.0
C588 C 0.50426 0.67699 0.39322 0.0
C589 C 0.83753 0.57395 0.38679 0.0
C590 C 0.82574 0.56097 0.30884 0.0
C591 C 0.86874 0.56606 0.41868 0.0
C592 C 0.8887 0.54411 0.37507 0.0
H593 H 0.82196 0.58907 0.4251 0.0
H594 H 0.87636 0.5758 0.48056 0.0
S595 S 0.86994 0.50687 0.16209 0.0
N596 N 0.83724 0.52817 0.18377 0.0
N597 N 0.89552 0.51257 0.24432 0.0
C598 C 0.8779 0.5328 0.29382 0.0
C599 C 0.84642 0.54131 0.2608 0.0
loop_
_geom_bond_atom_site_label_1
_geom_bond_atom_site_label_2
_geom_bond_distance
_geom_bond_site_symmetry_2
_ccdc_geom_bond_type
P0 O11 1.490 . S
P0 C14 1.812 . S
P0 C20 1.803 . S
P0 C26 1.819 1_554 S
H1 C15 0.941 . S
H2 C16 0.939 . S
H3 C18 0.940 . S
H4 C19 0.940 . S
H5 C21 0.939 . S
H6 C22 0.942 . S
H7 C24 0.940 . S
H8 C25 0.939 . S
H9 C27 0.941 . S
H10 C31 0.939 . S
O11 P0 1.490 . S
H12 C28 0.939 . S
H13 C30 0.940 . S
C14 P0 1.812 . S
C14 C15 1.389 . S
C14 C19 1.391 . S
C15 H1 0.941 . S
C15 C14 1.389 . S
C15 C16 1.397 . S
C16 H2 0.939 . S
C16 C15 1.397 . S
C16 C17 1.378 . S
C17 C16 1.378 . S
C17 C18 1.378 . S
C18 H3 0.940 . S
C18 C17 1.378 . S
C18 C19 1.396 . S
C19 H4 0.940 . S
C19 C14 1.391 . S
C19 C18 1.396 . S
C20 P0 1.803 . S
C20 C21 1.378 1_554 S
C20 C25 1.400 . S
C21 H5 0.939 . S
C21 C20 1.378 1_556 S
C21 C22 1.361 . S
C22 H6 0.942 . S
C22 C21 1.361 . S
C22 C23 1.369 . S
C23 C22 1.369 . S
C23 C24 1.404 1_556 S
C24 H7 0.940 . S
C24 C23 1.404 1_554 S
C24 C25 1.389 . S
C25 H8 0.939 . S
C25 C20 1.400 . S
C25 C24 1.389 . S
C26 P0 1.819 1_556 S
C26 C27 1.391 . S
C26 C31 1.391 . S
C27 H9 0.941 . S
C27 C26 1.391 . S
C27 C28 1.396 . S
C28 H12 0.939 . S
C28 C27 1.396 . S
C28 C29 1.397 . S
C29 C28 1.397 . S
C29 C30 1.385 . S
C30 H13 0.940 . S
C30 C29 1.385 . S
C30 C31 1.388 . S
C31 H10 0.939 . S
C31 C26 1.391 . S
C31 C30 1.388 . S
P32 O43 1.490 . S
P32 C46 1.812 . S
P32 C52 1.803 . S
P32 C58 1.819 1_554 S
H33 C47 0.941 . S
H34 C48 0.939 . S
H35 C50 0.940 . S
H36 C51 0.950 . S
H37 C53 0.939 . S
H38 C54 0.942 . S
H39 C56 0.940 . S
H40 C57 0.960 . S
H41 C59 0.941 1_554 S
H42 C63 0.930 1_655 S
O43 P32 1.490 . S
H44 C60 0.939 . S
H45 C62 0.940 . S
C46 P32 1.812 . S
C46 C47 1.389 . S
C46 C51 1.375 1_455 S
C47 H33 0.941 . S
C47 C46 1.389 . S
C47 C48 1.397 . S
C48 H34 0.939 . S
C48 C47 1.397 . S
C48 C49 1.378 . S
C49 C48 1.378 . S
C49 C50 1.378 1_455 S
C50 H35 0.940 . S
C50 C49 1.378 1_655 S
C50 C51 1.403 . S
C51 H36 0.950 . S
C51 C46 1.375 1_655 S
C51 C50 1.403 . S
C52 P32 1.803 . S
C52 C53 1.378 1_554 S
C52 C57 1.369 1_455 S
C53 H37 0.939 . S
C53 C52 1.378 1_556 S
C53 C54 1.361 . S
C54 H38 0.942 . S
C54 C53 1.361 . S
C54 C55 1.369 . S
C55 C54 1.369 . S
C55 C56 1.404 1_456 S
C56 H39 0.940 . S
C56 C55 1.404 1_654 S
C56 C57 1.401 . S
C57 H40 0.960 . S
C57 C52 1.369 1_655 S
C57 C56 1.401 . S
C58 P32 1.819 1_556 S
C58 C59 1.391 . S
C58 C63 1.391 . S
C59 H41 0.941 1_556 S
C59 C58 1.391 . S
C59 C60 1.396 . S
C60 H44 0.939 . S
C60 C59 1.396 . S
C60 C61 1.397 . S
C61 C60 1.397 . S
C61 C62 1.385 1_455 S
C62 H45 0.940 . S
C62 C61 1.385 1_655 S
C62 C63 1.388 1_655 S
C63 H42 0.930 1_455 S
C63 C58 1.391 . S
C63 C62 1.388 1_455 S
P64 O75 1.490 1_565 S
P64 C78 1.812 . S
P64 C84 1.803 . S
P64 C90 1.819 1_554 S
H65 C79 0.934 1_545 S
H66 C80 0.939 . S
H67 C82 0.940 . S
H68 C83 0.940 . S
H69 C85 0.913 1_545 S
H70 C86 0.942 . S
H71 C88 0.940 . S
H72 C89 0.939 . S
H73 C91 0.941 1_554 S
H74 C95 0.939 . S
O75 P64 1.490 1_545 S
H76 C92 0.939 . S
H77 C94 0.940 . S
C78 P64 1.812 . S
C78 C79 1.389 . S
C78 C83 1.391 . S
C79 H65 0.934 1_565 S
C79 C78 1.389 . S
C79 C80 1.397 . S
C80 H66 0.939 . S
C80 C79 1.397 . S
C80 C81 1.378 . S
C81 C80 1.378 . S
C81 C82 1.378 . S
C82 H67 0.940 . S
C82 C81 1.378 . S
C82 C83 1.396 . S
C83 H68 0.940 . S
C83 C78 1.391 . S
C83 C82 1.396 . S
C84 P64 1.803 . S
C84 C85 1.378 1_554 S
C84 C89 1.400 . S
C85 H69 0.913 1_565 S
C85 C84 1.378 1_556 S
C85 C86 1.361 . S
C86 H70 0.942 . S
C86 C85 1.361 . S
C86 C87 1.369 . S
C87 C86 1.369 . S
C87 C88 1.404 1_556 S
C88 H71 0.940 . S
C88 C87 1.404 1_554 S
C88 C89 1.389 . S
C89 H72 0.939 . S
C89 C84 1.400 . S
C89 C88 1.389 . S
C90 P64 1.819 1_556 S
C90 C91 1.391 . S
C90 C95 1.391 . S
C91 H73 0.941 1_556 S
C91 C90 1.391 . S
C91 C92 1.396 . S
C92 H76 0.939 . S
C92 C91 1.396 . S
C92 C93 1.397 . S
C93 C92 1.397 . S
C93 C94 1.385 . S
C94 H77 0.940 . S
C94 C93 1.385 . S
C94 C95 1.388 . S
C95 H74 0.939 . S
C95 C90 1.391 . S
C95 C94 1.388 . S
P96 O107 1.490 . S
P96 C110 1.812 . S
P96 C116 1.803 . S
P96 C122 1.819 1_554 S
H97 C111 0.941 . S
H98 C112 0.939 . S
H99 C114 0.940 . S
H100 C115 0.940 . S
H101 C117 0.939 . S
H102 C118 0.942 . S
H103 C120 0.940 . S
H104 C121 0.939 . S
H105 C123 0.941 1_554 S
H106 C127 0.939 . S
O107 P96 1.490 . S
H108 C124 0.939 . S
H109 C126 0.940 . S
C110 P96 1.812 . S
C110 C111 1.389 . S
C110 C115 1.391 . S
C111 H97 0.941 . S
C111 C110 1.389 . S
C111 C112 1.397 . S
C112 H98 0.939 . S
C112 C111 1.397 . S
C112 C113 1.378 . S
C113 C112 1.378 . S
C113 C114 1.378 . S
C114 H99 0.940 . S
C114 C113 1.378 . S
C114 C115 1.396 . S
C115 H100 0.940 . S
C115 C110 1.391 . S
C115 C114 1.396 . S
C116 P96 1.803 . S
C116 C117 1.378 1_554 S
C116 C121 1.400 . S
C117 H101 0.939 . S
C117 C116 1.378 1_556 S
C117 C118 1.361 . S
C118 H102 0.942 . S
C118 C117 1.361 . S
C118 C119 1.369 . S
C119 C118 1.369 . S
C119 C120 1.404 1_556 S
C120 H103 0.940 . S
C120 C119 1.404 1_554 S
C120 C121 1.389 . S
C121 H104 0.939 . S
C121 C116 1.400 . S
C121 C120 1.389 . S
C122 P96 1.819 1_556 S
C122 C123 1.391 . S
C122 C127 1.391 . S
C123 H105 0.941 1_556 S
C123 C122 1.391 . S
C123 C124 1.396 . S
C124 H108 0.939 . S
C124 C123 1.396 . S
C124 C125 1.397 . S
C125 C124 1.397 . S
C125 C126 1.385 . S
C126 H109 0.940 . S
C126 C125 1.385 . S
C126 C127 1.388 . S
C127 H106 0.939 . S
C127 C122 1.391 . S
C127 C126 1.388 . S
P128 O139 1.490 . S
P128 C142 1.812 . S
P128 C148 1.803 . S
P128 C154 1.819 . S
H129 C143 0.941 . S
H130 C144 0.939 . S
H131 C146 0.940 . S
H132 C147 0.940 . S
H133 C149 0.939 . S
H134 C150 0.942 . S
H135 C152 0.940 . S
H136 C153 0.939 . S
H137 C155 0.941 . S
H138 C159 0.939 . S
O139 P128 1.490 . S
H140 C156 0.939 . S
H141 C158 0.940 . S
C142 P128 1.812 . S
C142 C143 1.389 . S
C142 C147 1.391 . S
C143 H129 0.941 . S
C143 C142 1.389 . S
C143 C144 1.397 1_554 S
C144 H130 0.939 . S
C144 C143 1.397 1_556 S
C144 C145 1.378 . S
C145 C144 1.378 . S
C145 C146 1.378 . S
C146 H131 0.940 . S
C146 C145 1.378 . S
C146 C147 1.396 1_556 S
C147 H132 0.940 . S
C147 C142 1.391 . S
C147 C146 1.396 1_554 S
C148 P128 1.803 . S
C148 C149 1.378 . S
C148 C153 1.400 . S
C149 H133 0.939 . S
C149 C148 1.378 . S
C149 C150 1.361 . S
C150 H134 0.942 . S
C150 C149 1.361 . S
C150 C151 1.369 . S
C151 C150 1.369 . S
C151 C152 1.404 . S
C152 H135 0.940 . S
C152 C151 1.404 . S
C152 C153 1.389 . S
C153 H136 0.939 . S
C153 C148 1.400 . S
C153 C152 1.389 . S
C154 P128 1.819 . S
C154 C155 1.391 . S
C154 C159 1.391 . S
C155 H137 0.941 . S
C155 C154 1.391 . S
C155 C156 1.396 . S
C156 H140 0.939 . S
C156 C155 1.396 . S
C156 C157 1.397 . S
C157 C156 1.397 . S
C157 C158 1.385 . S
C158 H141 0.940 . S
C158 C157 1.385 . S
C158 C159 1.388 . S
C159 H138 0.939 . S
C159 C154 1.391 . S
C159 C158 1.388 . S
P160 O171 1.490 . S
P160 C174 1.812 . S
P160 C180 1.803 . S
P160 C186 1.819 . S
H161 C175 0.941 . S
H162 C176 0.939 . S
H163 C178 0.940 . S
H164 C179 0.945 . S
H165 C181 0.939 . S
H166 C182 0.942 . S
H167 C184 0.940 . S
H168 C185 0.954 . S
H169 C187 0.941 . S
H170 C191 0.931 1_655 S
O171 P160 1.490 . S
H172 C188 0.939 . S
H173 C190 0.940 . S
C174 P160 1.812 . S
C174 C175 1.389 1_554 S
C174 C179 1.382 1_455 S
C175 H161 0.941 . S
C175 C174 1.389 1_556 S
C175 C176 1.397 . S
C176 H162 0.939 . S
C176 C175 1.397 . S
C176 C177 1.378 . S
C177 C176 1.378 . S
C177 C178 1.378 1_455 S
C178 H163 0.940 . S
C178 C177 1.378 1_655 S
C178 C179 1.400 1_556 S
C179 H164 0.945 . S
C179 C174 1.382 1_655 S
C179 C178 1.400 1_554 S
C180 P160 1.803 . S
C180 C181 1.378 . S
C180 C185 1.376 1_455 S
C181 H165 0.939 . S
C181 C180 1.378 . S
C181 C182 1.361 . S
C182 H166 0.942 . S
C182 C181 1.361 . S
C182 C183 1.369 . S
C183 C182 1.369 . S
C183 C184 1.404 1_455 S
C184 H167 0.940 . S
C184 C183 1.404 1_655 S
C184 C185 1.399 . S
C185 H168 0.954 . S
C185 C180 1.376 1_655 S
C185 C184 1.399 . S
C186 P160 1.819 . S
C186 C187 1.391 . S
C186 C191 1.391 . S
C187 H169 0.941 . S
C187 C186 1.391 . S
C187 C188 1.396 . S
C188 H172 0.939 . S
C188 C187 1.396 . S
C188 C189 1.397 . S
C189 C188 1.397 . S
C189 C190 1.385 1_455 S
C190 H173 0.940 . S
C190 C189 1.385 1_655 S
C190 C191 1.388 1_655 S
C191 H170 0.931 1_455 S
C191 C186 1.391 . S
C191 C190 1.388 1_455 S
P192 O203 1.490 . S
P192 C206 1.812 . S
P192 C212 1.803 . S
P192 C218 1.819 . S
H193 C207 0.941 . S
H194 C208 0.939 . S
H195 C210 0.940 . S
H196 C211 0.940 . S
H197 C213 0.939 . S
H198 C214 0.942 . S
H199 C216 0.940 . S
H200 C217 0.939 . S
H201 C219 0.941 . S
H202 C223 0.939 . S
O203 P192 1.490 . S
H204 C220 0.939 . S
H205 C222 0.940 . S
C206 P192 1.812 . S
C206 C207 1.389 1_554 S
C206 C211 1.391 . S
C207 H193 0.941 . S
C207 C206 1.389 1_556 S
C207 C208 1.397 . S
C208 H194 0.939 . S
C208 C207 1.397 . S
C208 C209 1.378 . S
C209 C208 1.378 . S
C209 C210 1.378 . S
C210 H195 0.940 . S
C210 C209 1.378 . S
C210 C211 1.396 1_556 S
C211 H196 0.940 . S
C211 C206 1.391 . S
C211 C210 1.396 1_554 S
C212 P192 1.803 . S
C212 C213 1.378 . S
C212 C217 1.400 . S
C213 H197 0.939 . S
C213 C212 1.378 . S
C213 C214 1.361 . S
C214 H198 0.942 . S
C214 C213 1.361 . S
C214 C215 1.369 . S
C215 C214 1.369 . S
C215 C216 1.404 . S
C216 H199 0.940 . S
C216 C215 1.404 . S
C216 C217 1.389 . S
C217 H200 0.939 . S
C217 C212 1.400 . S
C217 C216 1.389 . S
C218 P192 1.819 . S
C218 C219 1.391 . S
C218 C223 1.391 . S
C219 H201 0.941 . S
C219 C218 1.391 . S
C219 C220 1.396 . S
C220 H204 0.939 . S
C220 C219 1.396 . S
C220 C221 1.397 . S
C221 C220 1.397 . S
C221 C222 1.385 . S
C222 H205 0.940 . S
C222 C221 1.385 . S
C222 C223 1.388 . S
C223 H202 0.939 . S
C223 C218 1.391 . S
C223 C222 1.388 . S
P224 O235 1.490 . S
P224 C238 1.812 . S
P224 C244 1.803 . S
P224 C250 1.819 . S
H225 C239 0.941 . S
H226 C240 0.939 . S
H227 C242 0.940 . S
H228 C243 0.940 . S
H229 C245 0.939 . S
H230 C246 0.942 . S
H231 C248 0.940 . S
H232 C249 0.939 . S
H233 C251 0.941 . S
H234 C255 0.939 . S
O235 P224 1.490 . S
H236 C252 0.939 . S
H237 C254 0.940 . S
C238 P224 1.812 . S
C238 C239 1.389 1_554 S
C238 C243 1.391 . S
C239 H225 0.941 . S
C239 C238 1.389 1_556 S
C239 C240 1.397 . S
C240 H226 0.939 . S
C240 C239 1.397 . S
C240 C241 1.378 . S
C241 C240 1.378 . S
C241 C242 1.378 . S
C242 H227 0.940 . S
C242 C241 1.378 . S
C242 C243 1.396 1_556 S
C243 H228 0.940 . S
C243 C238 1.391 . S
C243 C242 1.396 1_554 S
C244 P224 1.803 . S
C244 C245 1.378 . S
C244 C249 1.400 . S
C245 H229 0.939 . S
C245 C244 1.378 . S
C245 C246 1.361 . S
C246 H230 0.942 . S
C246 C245 1.361 . S
C246 C247 1.369 . S
C247 C246 1.369 . S
C247 C248 1.404 . S
C248 H231 0.940 . S
C248 C247 1.404 . S
C248 C249 1.389 . S
C249 H232 0.939 . S
C249 C244 1.400 . S
C249 C248 1.389 . S
C250 P224 1.819 . S
C250 C251 1.391 . S
C250 C255 1.391 . S
C251 H233 0.941 . S
C251 C250 1.391 . S
C251 C252 1.396 . S
C252 H236 0.939 . S
C252 C251 1.396 . S
C252 C253 1.397 . S
C253 C252 1.397 . S
C253 C254 1.385 . S
C254 H237 0.940 . S
C254 C253 1.385 . S
C254 C255 1.388 . S
C255 H234 0.939 . S
C255 C250 1.391 . S
C255 C254 1.388 . S
Zn256 O262 1.969 . S
Zn256 O263 1.965 1_655 S
Zn256 O267 2.024 1_655 S
Zn256 O272 1.969 . S
Zn257 O264 1.969 . S
Zn257 O270 1.969 . S
Zn257 O271 1.965 1_455 S
Zn257 O273 2.024 1_455 S
C258 O259 1.229 1_455 S
C258 O267 1.058 . S
O259 C258 1.229 1_655 S
C260 O261 1.229 1_655 S
C260 O273 1.058 . S
O261 C260 1.229 1_455 S
O262 Zn256 1.969 . S
O262 C265 1.267 . S
O263 Zn256 1.965 1_455 S
O263 C274 1.260 . S
O264 Zn257 1.969 . S
O264 C274 1.258 1_565 S
C265 O262 1.267 . S
C265 O266 1.228 1_655 S
O266 C265 1.228 1_455 S
O267 Zn256 2.024 1_455 S
O267 C258 1.058 . S
C268 O269 1.228 1_455 S
C268 O270 1.267 . S
O269 C268 1.228 1_655 S
O270 Zn257 1.969 . S
O270 C268 1.267 . S
O271 Zn257 1.965 1_655 S
O271 C275 1.260 . S
O272 Zn256 1.969 . S
O272 C275 1.258 1_545 S
O273 Zn257 2.024 1_655 S
O273 C260 1.058 . S
C274 O263 1.260 . S
C274 O264 1.258 1_545 S
C275 O271 1.260 . S
C275 O272 1.258 1_565 S
Zn276 O282 1.969 1_545 S
Zn276 O283 1.965 . S
Zn276 O287 2.024 . S
Zn276 O292 1.969 1_545 S
Zn277 O284 1.969 1_565 S
Zn277 O290 1.969 1_565 S
Zn277 O291 1.965 . S
Zn277 O293 2.024 . S
C278 O279 1.229 . S
C278 O287 1.058 . S
O279 C278 1.229 . S
C280 O281 1.229 . S
C280 O293 1.058 . S
O281 C280 1.229 . S
O282 Zn276 1.969 1_565 S
O282 C285 1.267 1_565 S
O283 Zn276 1.965 . S
O283 C294 1.260 . S
O284 Zn277 1.969 1_545 S
O284 C294 1.258 . S
C285 O282 1.267 1_545 S
C285 O286 1.228 . S
O286 C285 1.228 . S
O287 Zn276 2.024 . S
O287 C278 1.058 . S
C288 O289 1.228 . S
C288 O290 1.267 1_565 S
O289 C288 1.228 . S
O290 Zn277 1.969 1_545 S
O290 C288 1.267 1_545 S
O291 Zn277 1.965 . S
O291 C295 1.260 . S
O292 Zn276 1.969 1_565 S
O292 C295 1.258 . S
O293 Zn277 2.024 . S
O293 C280 1.058 . S
C294 O283 1.260 . S
C294 O284 1.258 . S
C295 O291 1.260 . S
C295 O292 1.258 . S
Zn296 O302 1.969 . S
Zn296 O303 1.965 . S
Zn296 O307 2.024 . S
Zn296 O312 1.969 . S
Zn297 O304 1.969 . S
Zn297 O310 1.969 . S
Zn297 O311 1.965 . S
Zn297 O313 2.024 . S
C298 O299 1.229 . S
C298 O307 1.058 . S
O299 C298 1.229 . S
C300 O301 1.229 . S
C300 O313 1.058 . S
O301 C300 1.229 . S
O302 Zn296 1.969 . S
O302 C305 1.267 . S
O303 Zn296 1.965 . S
O303 C314 1.260 . S
O304 Zn297 1.969 . S
O304 C314 1.258 . S
C305 O302 1.267 . S
C305 O306 1.228 . S
O306 C305 1.228 . S
O307 Zn296 2.024 . S
O307 C298 1.058 . S
C308 O309 1.228 . S
C308 O310 1.267 . S
O309 C308 1.228 . S
O310 Zn297 1.969 . S
O310 C308 1.267 . S
O311 Zn297 1.965 . S
O311 C315 1.260 . S
O312 Zn296 1.969 . S
O312 C315 1.258 . S
O313 Zn297 2.024 . S
O313 C300 1.058 . S
C314 O303 1.260 . S
C314 O304 1.258 . S
C315 O311 1.260 . S
C315 O312 1.258 . S
Zn316 O322 1.969 . S
Zn316 O323 1.965 . S
Zn316 O327 2.024 . S
Zn316 O332 1.969 . S
Zn317 O324 1.969 . S
Zn317 O330 1.969 . S
Zn317 O331 1.965 . S
Zn317 O333 2.024 . S
C318 O319 1.229 . S
C318 O327 1.058 . S
O319 C318 1.229 . S
C320 O321 1.229 . S
C320 O333 1.058 . S
O321 C320 1.229 . S
O322 Zn316 1.969 . S
O322 C325 1.267 . S
O323 Zn316 1.965 . S
O323 C334 1.260 1_455 S
O324 Zn317 1.969 . S
O324 C334 1.258 . S
C325 O322 1.267 . S
C325 O326 1.228 . S
O326 C325 1.228 . S
O327 Zn316 2.024 . S
O327 C318 1.058 . S
C328 O329 1.228 . S
C328 O330 1.267 . S
O329 C328 1.228 . S
O330 Zn317 1.969 . S
O330 C328 1.267 . S
O331 Zn317 1.965 . S
O331 C335 1.260 1_655 S
O332 Zn316 1.969 . S
O332 C335 1.258 . S
O333 Zn317 2.024 . S
O333 C320 1.058 . S
C334 O323 1.260 1_655 S
C334 O324 1.258 . S
C335 O331 1.260 1_455 S
C335 O332 1.258 . S
C336 C337 1.369 . S
C336 C338 1.419 . S
C336 H340 0.930 . S
C337 C336 1.369 . S
C337 C346 1.429 . S
C338 C336 1.419 . S
C338 C339 1.363 . S
C338 H341 0.929 . S
C339 C338 1.363 . S
C339 C345 1.428 . S
H340 C336 0.930 . S
H341 C338 0.929 . S
S342 N343 1.613 . S
S342 N344 1.610 . S
N343 S342 1.613 . S
N343 C346 1.350 . S
N344 S342 1.610 . S
N344 C345 1.351 . S
C345 C339 1.428 . S
C345 N344 1.351 . S
C345 C346 1.434 . S
C346 C337 1.429 . S
C346 N343 1.350 . S
C346 C345 1.434 . S
C347 C348 1.369 . S
C347 C349 1.419 . S
C347 H351 0.930 . S
C348 C347 1.369 . S
C348 C357 1.429 . S
C349 C347 1.419 . S
C349 C350 1.363 . S
C349 H352 0.929 . S
C350 C349 1.363 . S
C350 C356 1.428 . S
H351 C347 0.930 . S
H352 C349 0.929 . S
S353 N354 1.613 . S
S353 N355 1.610 . S
N354 S353 1.613 . S
N354 C357 1.350 . S
N355 S353 1.610 . S
N355 C356 1.351 . S
C356 C350 1.428 . S
C356 N355 1.351 . S
C356 C357 1.434 . S
C357 C348 1.429 . S
C357 N354 1.350 . S
C357 C356 1.434 . S
C358 C359 1.369 . S
C358 C360 1.419 . S
C358 H362 0.930 . S
C359 C358 1.369 . S
C359 C368 1.429 . S
C360 C358 1.419 . S
C360 C361 1.363 . S
C360 H363 0.929 . S
C361 C360 1.363 . S
C361 C367 1.428 . S
H362 C358 0.930 . S
H363 C360 0.929 . S
S364 N365 1.613 . S
S364 N366 1.610 . S
N365 S364 1.613 . S
N365 C368 1.350 . S
N366 S364 1.610 . S
N366 C367 1.351 . S
C367 C361 1.428 . S
C367 N366 1.351 . S
C367 C368 1.434 . S
C368 C359 1.429 . S
C368 N365 1.350 . S
C368 C367 1.434 . S
C369 C370 1.369 1_455 S
C369 C371 1.419 . S
C369 H373 0.930 . S
C370 C369 1.369 1_655 S
C370 C379 1.429 . S
C371 C369 1.419 . S
C371 C372 1.363 1_455 S
C371 H374 0.929 . S
C372 C371 1.363 1_655 S
C372 C378 1.428 . S
H373 C369 0.930 . S
H374 C371 0.929 . S
S375 N376 1.613 . S
S375 N377 1.610 . S
N376 S375 1.613 . S
N376 C379 1.350 . S
N377 S375 1.610 . S
N377 C378 1.351 . S
C378 C372 1.428 . S
C378 N377 1.351 . S
C378 C379 1.434 . S
C379 C370 1.429 . S
C379 N376 1.350 . S
C379 C378 1.434 . S
C380 C381 1.369 . S
C380 C382 1.419 . S
C380 H384 0.930 . S
C381 C380 1.369 . S
C381 C390 1.429 . S
C382 C380 1.419 . S
C382 C383 1.363 . S
C382 H385 0.929 1_565 S
C383 C382 1.363 . S
C383 C389 1.428 . S
H384 C380 0.930 . S
H385 C382 0.929 1_545 S
S386 N387 1.613 . S
S386 N388 1.610 . S
N387 S386 1.613 . S
N387 C390 1.350 . S
N388 S386 1.610 . S
N388 C389 1.351 . S
C389 C383 1.428 . S
C389 N388 1.351 . S
C389 C390 1.434 . S
C390 C381 1.429 . S
C390 N387 1.350 . S
C390 C389 1.434 . S
C391 C392 1.369 . S
C391 C393 1.419 . S
C391 H395 0.930 . S
C392 C391 1.369 . S
C392 C401 1.429 . S
C393 C391 1.419 . S
C393 C394 1.363 . S
C393 H396 0.929 . S
C394 C393 1.363 . S
C394 C400 1.428 . S
H395 C391 0.930 . S
H396 C393 0.929 . S
S397 N398 1.613 . S
S397 N399 1.610 . S
N398 S397 1.613 . S
N398 C401 1.350 . S
N399 S397 1.610 . S
N399 C400 1.351 . S
C400 C394 1.428 . S
C400 N399 1.351 . S
C400 C401 1.434 . S
C401 C392 1.429 . S
C401 N398 1.350 . S
C401 C400 1.434 . S
C402 C403 1.369 . S
C402 C404 1.419 . S
C402 H406 0.930 . S
C403 C402 1.369 . S
C403 C412 1.429 . S
C404 C402 1.419 . S
C404 C405 1.363 . S
C404 H407 0.929 . S
C405 C404 1.363 . S
C405 C411 1.428 . S
H406 C402 0.930 . S
H407 C404 0.929 . S
S408 N409 1.613 . S
S408 N410 1.610 . S
N409 S408 1.613 . S
N409 C412 1.350 . S
N410 S408 1.610 . S
N410 C411 1.351 . S
C411 C405 1.428 . S
C411 N410 1.351 . S
C411 C412 1.434 . S
C412 C403 1.429 . S
C412 N409 1.350 . S
C412 C411 1.434 . S
C413 C414 1.369 1_655 S
C413 C415 1.419 . S
C413 H417 0.930 . S
C414 C413 1.369 1_455 S
C414 C423 1.429 . S
C415 C413 1.419 . S
C415 C416 1.363 1_655 S
C415 H418 0.929 . S
C416 C415 1.363 1_455 S
C416 C422 1.428 . S
H417 C413 0.930 . S
H418 C415 0.929 . S
S419 N420 1.613 . S
S419 N421 1.610 . S
N420 S419 1.613 . S
N420 C423 1.350 . S
N421 S419 1.610 . S
N421 C422 1.351 . S
C422 C416 1.428 . S
C422 N421 1.351 . S
C422 C423 1.434 . S
C423 C414 1.429 . S
C423 N420 1.350 . S
C423 C422 1.434 . S
C424 C425 1.369 1_455 S
C424 C426 1.419 . S
C424 H428 0.930 . S
C425 C424 1.369 1_655 S
C425 C434 1.429 . S
C426 C424 1.419 . S
C426 C427 1.363 1_455 S
C426 H429 0.929 . S
C427 C426 1.363 1_655 S
C427 C433 1.428 . S
H428 C424 0.930 . S
H429 C426 0.929 . S
S430 N431 1.613 . S
S430 N432 1.610 . S
N431 S430 1.613 . S
N431 C434 1.350 . S
N432 S430 1.610 . S
N432 C433 1.351 . S
C433 C427 1.428 . S
C433 N432 1.351 . S
C433 C434 1.434 . S
C434 C425 1.429 . S
C434 N431 1.350 . S
C434 C433 1.434 . S
C435 C436 1.369 . S
C435 C437 1.419 . S
C435 H439 0.930 . S
C436 C435 1.369 . S
C436 C445 1.429 . S
C437 C435 1.419 . S
C437 C438 1.363 . S
C437 H440 0.929 1_545 S
C438 C437 1.363 . S
C438 C444 1.428 . S
H439 C435 0.930 . S
H440 C437 0.929 1_565 S
S441 N442 1.613 . S
S441 N443 1.610 . S
N442 S441 1.613 . S
N442 C445 1.350 . S
N443 S441 1.610 . S
N443 C444 1.351 . S
C444 C438 1.428 . S
C444 N443 1.351 . S
C444 C445 1.434 . S
C445 C436 1.429 . S
C445 N442 1.350 . S
C445 C444 1.434 . S
C446 C447 1.369 . S
C446 C448 1.419 . S
C446 H450 0.930 . S
C447 C446 1.369 . S
C447 C456 1.429 . S
C448 C446 1.419 . S
C448 C449 1.363 . S
C448 H451 0.929 . S
C449 C448 1.363 . S
C449 C455 1.428 . S
H450 C446 0.930 . S
H451 C448 0.929 . S
S452 N453 1.613 . S
S452 N454 1.610 . S
N453 S452 1.613 . S
N453 C456 1.350 . S
N454 S452 1.610 . S
N454 C455 1.351 . S
C455 C449 1.428 . S
C455 N454 1.351 . S
C455 C456 1.434 . S
C456 C447 1.429 . S
C456 N453 1.350 . S
C456 C455 1.434 . S
C457 C458 1.369 . S
C457 C459 1.419 . S
C457 H461 0.930 . S
C458 C457 1.369 . S
C458 C467 1.429 . S
C459 C457 1.419 . S
C459 C460 1.363 . S
C459 H462 0.929 . S
C460 C459 1.363 . S
C460 C466 1.428 . S
H461 C457 0.930 . S
H462 C459 0.929 . S
S463 N464 1.613 . S
S463 N465 1.610 . S
N464 S463 1.613 . S
N464 C467 1.350 . S
N465 S463 1.610 . S
N465 C466 1.351 . S
C466 C460 1.428 . S
C466 N465 1.351 . S
C466 C467 1.434 . S
C467 C458 1.429 . S
C467 N464 1.350 . S
C467 C466 1.434 . S
C468 C469 1.369 1_655 S
C468 C470 1.421 . S
C468 H472 0.930 . S
C469 C468 1.369 1_455 S
C469 C478 1.429 . S
C470 C468 1.421 . S
C470 C471 1.358 1_655 S
C470 H473 0.932 . S
C471 C470 1.358 1_455 S
C471 C477 1.428 . S
H472 C468 0.930 . S
H473 C470 0.932 . S
S474 N475 1.613 . S
S474 N476 1.610 . S
N475 S474 1.613 . S
N475 C478 1.350 . S
N476 S474 1.610 . S
N476 C477 1.351 . S
C477 C471 1.428 . S
C477 N476 1.351 . S
C477 C478 1.434 . S
C478 C469 1.429 . S
C478 N475 1.350 . S
C478 C477 1.434 . S
C479 C480 1.369 . S
C479 C481 1.419 . S
C479 H483 0.930 . S
C480 C479 1.369 . S
C480 C489 1.429 . S
C481 C479 1.419 . S
C481 C482 1.363 . S
C481 H484 0.929 . S
C482 C481 1.363 . S
C482 C488 1.428 . S
H483 C479 0.930 . S
H484 C481 0.929 . S
S485 N486 1.613 . S
S485 N487 1.610 . S
N486 S485 1.613 . S
N486 C489 1.350 . S
N487 S485 1.610 . S
N487 C488 1.351 . S
C488 C482 1.428 . S
C488 N487 1.351 . S
C488 C489 1.434 . S
C489 C480 1.429 . S
C489 N486 1.350 . S
C489 C488 1.434 . S
C490 C491 1.369 . S
C490 C492 1.419 . S
C490 H494 0.930 . S
C491 C490 1.369 . S
C491 C500 1.429 . S
C492 C490 1.419 . S
C492 C493 1.363 . S
C492 H495 0.929 . S
C493 C492 1.363 . S
C493 C499 1.428 . S
H494 C490 0.930 . S
H495 C492 0.929 . S
S496 N497 1.613 . S
S496 N498 1.610 . S
N497 S496 1.613 . S
N497 C500 1.350 . S
N498 S496 1.610 . S
N498 C499 1.351 . S
C499 C493 1.428 . S
C499 N498 1.351 . S
C499 C500 1.434 . S
C500 C491 1.429 . S
C500 N497 1.350 . S
C500 C499 1.434 . S
C501 C502 1.369 . S
C501 C503 1.419 . S
C501 H505 0.930 . S
C502 C501 1.369 . S
C502 C511 1.429 . S
C503 C501 1.419 . S
C503 C504 1.363 . S
C503 H506 0.929 . S
C504 C503 1.363 . S
C504 C510 1.428 . S
H505 C501 0.930 . S
H506 C503 0.929 . S
S507 N508 1.613 . S
S507 N509 1.610 . S
N508 S507 1.613 . S
N508 C511 1.350 . S
N509 S507 1.610 . S
N509 C510 1.351 . S
C510 C504 1.428 . S
C510 N509 1.351 . S
C510 C511 1.434 . S
C511 C502 1.429 . S
C511 N508 1.350 . S
C511 C510 1.434 . S
C512 C513 1.369 1_655 S
C512 C514 1.419 . S
C512 H516 0.930 . S
C513 C512 1.369 1_455 S
C513 C522 1.429 . S
C514 C512 1.419 . S
C514 C515 1.363 1_655 S
C514 H517 0.929 . S
C515 C514 1.363 1_455 S
C515 C521 1.428 . S
H516 C512 0.930 . S
H517 C514 0.929 . S
S518 N519 1.613 . S
S518 N520 1.610 . S
N519 S518 1.613 . S
N519 C522 1.350 . S
N520 S518 1.610 . S
N520 C521 1.351 . S
C521 C515 1.428 . S
C521 N520 1.351 . S
C521 C522 1.434 . S
C522 C513 1.429 . S
C522 N519 1.350 . S
C522 C521 1.434 . S
C523 C524 1.369 . S
C523 C525 1.419 . S
C523 H527 0.930 . S
C524 C523 1.369 . S
C524 C533 1.429 . S
C525 C523 1.419 . S
C525 C526 1.363 . S
C525 H528 0.929 . S
C526 C525 1.363 . S
C526 C532 1.428 . S
H527 C523 0.930 . S
H528 C525 0.929 . S
S529 N530 1.613 1_565 S
S529 N531 1.610 . S
N530 S529 1.613 1_545 S
N530 C533 1.350 . S
N531 S529 1.610 . S
N531 C532 1.351 1_565 S
C532 C526 1.428 . S
C532 N531 1.351 1_545 S
C532 C533 1.434 . S
C533 C524 1.429 . S
C533 N530 1.350 . S
C533 C532 1.434 . S
C534 C535 1.369 . S
C534 C536 1.419 . S
C534 H538 0.930 . S
C535 C534 1.369 . S
C535 C544 1.429 . S
C536 C534 1.419 . S
C536 C537 1.363 . S
C536 H539 0.929 . S
C537 C536 1.363 . S
C537 C543 1.428 . S
H538 C534 0.930 . S
H539 C536 0.929 . S
S540 N541 1.613 . S
S540 N542 1.610 . S
N541 S540 1.613 . S
N541 C544 1.350 . S
N542 S540 1.610 . S
N542 C543 1.351 . S
C543 C537 1.428 . S
C543 N542 1.351 . S
C543 C544 1.434 . S
C544 C535 1.429 . S
C544 N541 1.350 . S
C544 C543 1.434 . S
C545 C546 1.369 . S
C545 C547 1.419 . S
C545 H549 0.930 . S
C546 C545 1.369 . S
C546 C555 1.429 . S
C547 C545 1.419 . S
C547 C548 1.363 . S
C547 H550 0.929 . S
C548 C547 1.363 . S
C548 C554 1.428 . S
H549 C545 0.930 . S
H550 C547 0.929 . S
S551 N552 1.613 . S
S551 N553 1.610 . S
N552 S551 1.613 . S
N552 C555 1.350 . S
N553 S551 1.610 . S
N553 C554 1.351 . S
C554 C548 1.428 . S
C554 N553 1.351 . S
C554 C555 1.434 . S
C555 C546 1.429 . S
C555 N552 1.350 . S
C555 C554 1.434 . S
C556 C557 1.369 . S
C556 C558 1.419 . S
C556 H560 0.930 . S
C557 C556 1.369 . S
C557 C566 1.429 1_655 S
C558 C556 1.419 . S
C558 C559 1.363 . S
C558 H561 0.929 . S
C559 C558 1.363 . S
C559 C565 1.428 1_655 S
H560 C556 0.930 . S
H561 C558 0.929 . S
S562 N563 1.613 . S
S562 N564 1.610 . S
N563 S562 1.613 . S
N563 C566 1.350 . S
N564 S562 1.610 . S
N564 C565 1.351 . S
C565 C559 1.428 1_455 S
C565 N564 1.351 . S
C565 C566 1.434 . S
C566 C557 1.429 1_455 S
C566 N563 1.350 . S
C566 C565 1.434 . S
C567 C568 1.369 . S
C567 C569 1.419 . S
C567 H571 0.930 . S
C568 C567 1.369 . S
C568 C577 1.429 . S
C569 C567 1.419 . S
C569 C570 1.363 . S
C569 H572 0.919 1_565 S
C570 C569 1.363 . S
C570 C576 1.428 . S
H571 C567 0.930 . S
H572 C569 0.919 1_545 S
S573 N574 1.613 . S
S573 N575 1.610 . S
N574 S573 1.613 . S
N574 C577 1.350 . S
N575 S573 1.610 . S
N575 C576 1.351 . S
C576 C570 1.428 . S
C576 N575 1.351 . S
C576 C577 1.434 . S
C577 C568 1.429 . S
C577 N574 1.350 . S
C577 C576 1.434 . S
C578 C579 1.369 . S
C578 C580 1.419 . S
C578 H582 0.930 . S
C579 C578 1.369 . S
C579 C588 1.429 . S
C580 C578 1.419 . S
C580 C581 1.363 . S
C580 H583 0.929 . S
C581 C580 1.363 . S
C581 C587 1.428 . S
H582 C578 0.930 . S
H583 C580 0.929 . S
S584 N585 1.613 . S
S584 N586 1.610 . S
N585 S584 1.613 . S
N585 C588 1.350 . S
N586 S584 1.610 . S
N586 C587 1.351 . S
C587 C581 1.428 . S
C587 N586 1.351 . S
C587 C588 1.434 . S
C588 C579 1.429 . S
C588 N585 1.350 . S
C588 C587 1.434 . S
C589 C590 1.369 . S
C589 C591 1.419 . S
C589 H593 0.930 . S
C590 C589 1.369 . S
C590 C599 1.429 . S
C591 C589 1.419 . S
C591 C592 1.363 . S
C591 H594 0.929 . S
C592 C591 1.363 . S
C592 C598 1.428 . S
H593 C589 0.930 . S
H594 C591 0.929 . S
S595 N596 1.613 . S
S595 N597 1.610 . S
N596 S595 1.613 . S
N596 C599 1.350 . S
N597 S595 1.610 . S
N597 C598 1.351 . S
C598 C592 1.428 . S
C598 N597 1.351 . S
C598 C599 1.434 . S
C599 C590 1.429 . S
C599 N596 1.350 . S
C599 C598 1.434 . S
C337 C215 1.873 . S
C339 C274 1.857 . S
C350 C294 1.608 . S
C348 C247 1.590 . S
C361 C314 1.824 . S
C359 C151 1.850 . S
C372 C334 1.606 . S
C370 C183 1.634 1_655 S
C383 C275 1.859 . S
C381 C87 1.716 . S
C392 C119 1.653 . S
C394 C295 1.599 . S
C403 C23 1.681 . S
C405 C315 1.824 . S
C414 C55 1.611 . S
C416 C335 1.606 . S
C427 C265 0.868 . S
C425 C189 0.921 1_655 S
C438 C285 0.996 . S
C436 C221 1.126 . S
C449 C305 0.877 . S
C447 C253 0.889 . S
C458 C157 1.143 . S
C460 C325 0.991 . S
C469 C61 0.875 . S
C471 C268 0.872 . S
C482 C288 1.001 . S
C480 C93 0.968 . S
C493 C308 0.882 . S
C491 C125 0.889 . S
C502 C29 0.973 . S
C504 C328 0.993 . S
C513 C177 1.900 . S
C515 C258 1.851 . S
C524 C209 1.987 . S
C526 C278 1.891 . S
C537 C298 1.808 . S
C535 C241 1.836 . S
C548 C318 1.939 . S
C546 C145 2.035 . S
C557 C49 1.935 1_655 S
C559 C260 1.849 . S
C570 C280 1.898 . S
C568 C81 1.901 . S
C581 C300 1.812 . S
C579 C113 1.923 . S
C590 C17 1.934 . S
C592 C320 1.948 . S
