# Generated by pormake.
# Topology ftw, (4,12)-cn, num edge types: 1
# Building blocks:
#     Node 0, Type 0, BuildingBlock: NAHDIM_clean_linker_0, # of connection points: 4
#     Node 1, Type 0, BuildingBlock: NAHDIM_clean_linker_0, # of connection points: 4
#     Node 2, Type 0, BuildingBlock: NAHDIM_clean_linker_0, # of connection points: 4
#     Node 3, Type 1, BuildingBlock: EZIPEK_clean_sbu_0, # of connection points: 12
#     Edge 4, Type (0, 1), BuildingBlock: CIFDUS_clean_linker_0, # of connection points: 2
#     Edge 5, Type (0, 1), BuildingBlock: CIFDUS_clean_linker_0, # of connection points: 2
#     Edge 6, Type (0, 1), BuildingBlock: CIFDUS_clean_linker_0, # of connection points: 2
#     Edge 7, Type (0, 1), BuildingBlock: CIFDUS_clean_linker_0, # of connection points: 2
#     Edge 8, Type (0, 1), BuildingBlock: CIFDUS_clean_linker_0, # of connection points: 2
#     Edge 9, Type (0, 1), BuildingBlock: CIFDUS_clean_linker_0, # of connection points: 2
#     Edge 10, Type (0, 1), BuildingBlock: CIFDUS_clean_linker_0, # of connection points: 2
#     Edge 11, Type (0, 1), BuildingBlock: CIFDUS_clean_linker_0, # of connection points: 2
#     Edge 12, Type (0, 1), BuildingBlock: CIFDUS_clean_linker_0, # of connection points: 2
#     Edge 13, Type (0, 1), BuildingBlock: CIFDUS_clean_linker_0, # of connection points: 2
#     Edge 14, Type (0, 1), BuildingBlock: CIFDUS_clean_linker_0, # of connection points: 2
#     Edge 15, Type (0, 1), BuildingBlock: CIFDUS_clean_linker_0, # of connection points: 2
# Relax obj value: 0.006
# Max RMSD: 0.061
# Mean RMSD: 0.048
data_MOF--net-ftw--node1-EZIPEK_clean_sbu_0--node2-NAHDIM_clean_linker_0--edge1-CIFDUS_clean_linker_0
_symmetry_space_group_name_H-M    P1
_symmetry_Int_Tables_number       1
_symmetry_cell_setting            triclinic
loop_
_symmetry_equiv_pos_as_xyz
'x, y, z'
_cell_length_a     30.35822
_cell_length_b     29.93311
_cell_length_c     29.440118
_cell_angle_alpha  90.484268
_cell_angle_beta   89.540196
_cell_angle_gamma 89.527152
loop_
_atom_site_label
_atom_site_type_symbol
_atom_site_fract_x
_atom_site_fract_y
_atom_site_fract_z
_atom_type_partial_charge
C0 C 0.9087 0.70724 0.27295 0.0
C1 C 0.94808 0.72928 0.29651 0.0
C2 C 0.98611 0.66347 0.32807 0.0
C3 C 0.95375 0.65315 0.36068 0.0
C4 C 0.95689 0.61405 0.38642 0.0
C5 C 0.99411 0.58562 0.38086 0.0
C6 C 0.02758 0.59682 0.34938 0.0
C7 C 0.02293 0.63549 0.32317 0.0
C8 C 0.91995 0.60291 0.41901 0.0
C9 C 0.06798 0.56768 0.343 0.0
C10 C 0.85877 0.32067 0.24278 0.0
C11 C 0.90676 0.32884 0.2556 0.0
C12 C 0.92979 0.35499 0.32916 0.0
C13 C 0.97337 0.36831 0.32217 0.0
C14 C 0.99169 0.40234 0.34892 0.0
C15 C 0.96528 0.4242 0.38237 0.0
C16 C 0.92112 0.41051 0.38937 0.0
C17 C 0.90438 0.37513 0.36337 0.0
C18 C 0.03895 0.41547 0.34076 0.0
C19 C 0.89099 0.43393 0.42319 0.0
C20 C 0.97223 0.34428 0.67123 0.0
C21 C 0.01556 0.34938 0.65523 0.0
C22 C 0.02809 0.38843 0.63255 0.0
C23 C 0.99643 0.42257 0.62534 0.0
C24 C 0.95315 0.41796 0.64295 0.0
C25 C 0.94191 0.37908 0.66635 0.0
C26 C 0.07487 0.39297 0.61569 0.0
C27 C 0.9185 0.45379 0.63666 0.0
C28 C 0.96398 0.76319 0.66097 0.0
C29 C 0.97644 0.73443 0.702 0.0
C30 C 0.01327 0.66782 0.66957 0.0
C31 C 0.0533 0.64462 0.66548 0.0
C32 C 0.05609 0.60341 0.64236 0.0
C33 C 0.01779 0.58515 0.62281 0.0
C34 C 0.97707 0.60824 0.6271 0.0
C35 C 0.97526 0.64926 0.65026 0.0
C36 C 0.09997 0.57971 0.63813 0.0
C37 C 0.93538 0.59011 0.60642 0.0
C38 C 0.99699 0.54333 0.40672 0.0
C39 C 0.98507 0.5039 0.38446 0.0
C40 C 0.98263 0.4634 0.4076 0.0
C41 C 0.99254 0.46199 0.45444 0.0
C42 C 0.99025 0.42197 0.47895 0.0
C43 C 0.9959 0.42177 0.52581 0.0
C44 C 0.00502 0.46144 0.54982 0.0
C45 C 0.00763 0.46228 0.59781 0.0
C46 C 0.01517 0.50267 0.62059 0.0
C47 C 0.01985 0.54254 0.59672 0.0
C48 C 0.01882 0.54208 0.54875 0.0
C49 C 0.02457 0.58147 0.52377 0.0
C50 C 0.01908 0.58165 0.47694 0.0
C51 C 0.00705 0.54258 0.45348 0.0
C52 C 0.00393 0.50192 0.47759 0.0
C53 C 0.01016 0.50163 0.52532 0.0
C54 C 0.92954 0.23687 0.6686 0.0
C55 C 0.97099 0.2633 0.67992 0.0
O56 O 0.98294 0.69931 0.30013 0.0
O57 O 0.01293 0.7079 0.69187 0.0
O58 O 0.9586 0.30649 0.69189 0.0
O59 O 0.91123 0.32381 0.30205 0.0
H60 H 0.93789 0.74115 0.33098 0.0
H61 H 0.89552 0.67937 0.29337 0.0
H62 H 0.91854 0.69368 0.23908 0.0
H63 H 0.88167 0.73205 0.26852 0.0
H64 H 0.92555 0.67493 0.36585 0.0
H65 H 0.04794 0.64387 0.29825 0.0
H66 H 0.91029 0.56739 0.41508 0.0
H67 H 0.89037 0.62432 0.41384 0.0
H68 H 0.93125 0.60787 0.45442 0.0
H69 H 0.09344 0.58385 0.32155 0.0
H70 H 0.05847 0.53574 0.3265 0.0
H71 H 0.08252 0.55955 0.37646 0.0
H72 H 0.91442 0.36389 0.24574 0.0
H73 H 0.85424 0.32503 0.20565 0.0
H74 H 0.83703 0.34504 0.26095 0.0
H75 H 0.84864 0.28636 0.25226 0.0
H76 H 0.99286 0.35211 0.29569 0.0
H77 H 0.87066 0.36441 0.3682 0.0
H78 H 0.05634 0.41978 0.37354 0.0
H79 H 0.03974 0.44793 0.32284 0.0
H80 H 0.05708 0.39031 0.31968 0.0
H81 H 0.85585 0.42558 0.41757 0.0
H82 H 0.89465 0.47075 0.42124 0.0
H83 H 0.89971 0.42356 0.45808 0.0
H84 H 0.99204 0.26307 0.64874 0.0
H85 H 0.03959 0.32305 0.66066 0.0
H86 H 0.90881 0.375 0.6797 0.0
H87 H 0.07541 0.39182 0.578 0.0
H88 H 0.09667 0.36594 0.62846 0.0
H89 H 0.08834 0.42576 0.62641 0.0
H90 H 0.88519 0.44256 0.6472 0.0
H91 H 0.91728 0.46424 0.60058 0.0
H92 H 0.92715 0.48348 0.65746 0.0
H93 H 0.94771 0.71313 0.71044 0.0
H94 H 0.93717 0.78709 0.67041 0.0
H95 H 0.95201 0.74188 0.63272 0.0
H96 H 0.99276 0.78207 0.64813 0.0
H97 H 0.0825 0.65907 0.68036 0.0
H98 H 0.94393 0.66653 0.65255 0.0
H99 H 0.10819 0.57404 0.6017 0.0
H100 H 0.09794 0.54647 0.65443 0.0
H101 H 0.12698 0.59889 0.65418 0.0
H102 H 0.90551 0.6084 0.61861 0.0
H103 H 0.93161 0.5542 0.61439 0.0
H104 H 0.93727 0.59315 0.56891 0.0
H105 H 0.97599 0.50507 0.34889 0.0
H106 H 0.98294 0.39054 0.4623 0.0
H107 H 0.99232 0.39018 0.54301 0.0
H108 H 0.01475 0.5035 0.65745 0.0
H109 H 0.03268 0.61276 0.5403 0.0
H110 H 0.02325 0.61306 0.45951 0.0
H111 H 0.93835 0.2022 0.65795 0.0
H112 H 0.91185 0.25312 0.64019 0.0
H113 H 0.90703 0.23562 0.69852 0.0
C114 C 0.78455 0.08965 0.64297 0.0
C115 C 0.76447 0.06562 0.68389 0.0
C116 C 0.70288 0.02339 0.65055 0.0
C117 C 0.6893 0.98101 0.63649 0.0
C118 C 0.64842 0.97467 0.61547 0.0
C119 C 0.6201 0.01176 0.60864 0.0
C120 C 0.63313 0.0547 0.62346 0.0
C121 C 0.67444 0.06019 0.64397 0.0
C122 C 0.63564 0.92837 0.60011 0.0
C123 C 0.60351 0.09486 0.61713 0.0
C124 C 0.36726 0.91017 0.76954 0.0
C125 C 0.35294 0.9544 0.74823 0.0
C126 C 0.38677 0.95815 0.67432 0.0
C127 C 0.39983 0.00215 0.66675 0.0
C128 C 0.43671 0.0113 0.63939 0.0
C129 C 0.46128 0.97547 0.61979 0.0
C130 C 0.44821 0.93089 0.62781 0.0
C131 C 0.41056 0.92281 0.65449 0.0
C132 C 0.44937 0.05923 0.63128 0.0
C133 C 0.474 0.89187 0.60823 0.0
C134 C 0.37645 0.93828 0.32658 0.0
C135 C 0.37576 0.98293 0.34163 0.0
C136 C 0.41186 0.00094 0.36486 0.0
C137 C 0.44914 0.97361 0.37327 0.0
C138 C 0.4502 0.92894 0.35714 0.0
C139 C 0.41396 0.91206 0.3335 0.0
C140 C 0.41033 0.04909 0.38034 0.0
C141 C 0.48957 0.89896 0.36507 0.0
C142 C 0.75785 0.14172 0.31043 0.0
C143 C 0.73925 0.09694 0.29454 0.0
C144 C 0.66245 0.0815 0.31159 0.0
C145 C 0.62586 0.10667 0.3256 0.0
C146 C 0.59284 0.08782 0.35279 0.0
C147 C 0.59611 0.04229 0.36506 0.0
C148 C 0.63217 0.01608 0.34916 0.0
C149 C 0.66519 0.03609 0.32277 0.0
C150 C 0.55466 0.11668 0.36872 0.0
C151 C 0.63578 0.96704 0.36011 0.0
C152 C 0.5774 0.00556 0.58492 0.0
C153 C 0.54046 0.99365 0.61074 0.0
C154 C 0.49996 0.98495 0.59015 0.0
C155 C 0.49644 0.98668 0.54228 0.0
C156 C 0.45703 0.97562 0.52016 0.0
C157 C 0.45423 0.97642 0.47301 0.0
C158 C 0.49008 0.99021 0.44624 0.0
C159 C 0.48747 0.99156 0.39832 0.0
C160 C 0.52273 0.00814 0.37297 0.0
C161 C 0.56135 0.02225 0.39401 0.0
C162 C 0.56569 0.01844 0.44166 0.0
C163 C 0.605 0.02982 0.46374 0.0
C164 C 0.60919 0.02492 0.51051 0.0
C165 C 0.57364 0.01023 0.53728 0.0
C166 C 0.53326 -7e-05 0.51587 0.0
C167 C 0.52967 0.0029 0.4679 0.0
C168 C 0.27742 0.88313 0.32918 0.0
C169 C 0.2978 0.92704 0.31364 0.0
O170 O 0.74345 0.02694 0.66985 0.0
O171 O 0.69447 0.10183 0.28712 0.0
O172 O 0.34211 0.91971 0.30427 0.0
O173 O 0.35162 0.94952 0.70142 0.0
H174 H 0.74027 0.08842 0.70092 0.0
H175 H 0.75835 0.09994 0.61907 0.0
H176 H 0.80814 0.06739 0.62442 0.0
H177 H 0.80206 0.12017 0.65436 0.0
H178 H 0.71122 0.95277 0.64167 0.0
H179 H 0.68408 0.09337 0.6544 0.0
H180 H 0.60456 0.91852 0.61731 0.0
H181 H 0.66148 0.90303 0.60755 0.0
H182 H 0.62947 0.92826 0.56298 0.0
H183 H 0.61731 0.12567 0.63255 0.0
H184 H 0.57069 0.08856 0.6326 0.0
H185 H 0.59851 0.10059 0.58032 0.0
H186 H 0.37775 0.98013 0.75759 0.0
H187 H 0.36837 0.9135 0.80714 0.0
H188 H 0.40072 0.90065 0.75715 0.0
H189 H 0.34407 0.88308 0.76034 0.0
H190 H 0.38095 0.02922 0.68223 0.0
H191 H 0.40006 0.88888 0.66078 0.0
H192 H 0.48243 0.06549 0.64574 0.0
H193 H 0.4255 0.08326 0.64691 0.0
H194 H 0.45144 0.06563 0.59423 0.0
H195 H 0.46199 0.85935 0.62111 0.0
H196 H 0.50943 0.89518 0.61664 0.0
H197 H 0.47131 0.89177 0.57066 0.0
H198 H 0.29332 0.95145 0.34208 0.0
H199 H 0.34743 0.00391 0.33462 0.0
H200 H 0.41437 0.87788 0.32105 0.0
H201 H 0.41248 0.05081 0.41793 0.0
H202 H 0.37967 0.06645 0.36965 0.0
H203 H 0.43912 0.06716 0.3663 0.0
H204 H 0.4844 0.86443 0.35215 0.0
H205 H 0.49675 0.89752 0.40196 0.0
H206 H 0.51897 0.91298 0.34783 0.0
H207 H 0.74552 0.07281 0.32245 0.0
H208 H 0.79382 0.13861 0.31655 0.0
H209 H 0.7415 0.15223 0.34272 0.0
H210 H 0.75205 0.16803 0.2847 0.0
H211 H 0.62387 0.14155 0.31618 0.0
H212 H 0.69291 0.01626 0.31051 0.0
H213 H 0.55136 0.11499 0.40627 0.0
H214 H 0.52363 0.10392 0.35393 0.0
H215 H 0.55852 0.15217 0.35881 0.0
H216 H 0.66402 0.95057 0.34231 0.0
H217 H 0.60497 0.94974 0.35045 0.0
H218 H 0.63998 0.96292 0.39725 0.0
H219 H 0.54323 0.99119 0.64735 0.0
H220 H 0.42808 0.96548 0.53899 0.0
H221 H 0.42333 0.96674 0.45785 0.0
H222 H 0.52012 0.00997 0.33628 0.0
H223 H 0.63324 0.04193 0.44501 0.0
H224 H 0.64051 0.03342 0.5255 0.0
H225 H 0.28069 0.85713 0.30216 0.0
H226 H 0.24196 0.88807 0.33765 0.0
H227 H 0.29449 0.8711 0.36005 0.0
C228 C 0.77054 0.68662 0.90365 0.0
C229 C 0.75239 0.71925 0.93981 0.0
C230 C 0.69828 0.67615 0.98402 0.0
C231 C 0.68937 0.65795 0.02662 0.0
C232 C 0.64932 0.63656 0.03575 0.0
C233 C 0.61756 0.63278 0.00106 0.0
C234 C 0.62623 0.65107 0.9578 0.0
C235 C 0.66639 0.67272 0.94971 0.0
C236 C 0.64099 0.61788 0.08246 0.0
C237 C 0.59313 0.64738 0.92 0.0
C238 C 0.29179 0.6985 0.1152 0.0
C239 C 0.31046 0.71931 0.07192 0.0
C240 C 0.38868 0.70167 0.06676 0.0
C241 C 0.39254 0.68289 0.02311 0.0
C242 C 0.42823 0.65474 0.01163 0.0
C243 C 0.46038 0.64483 0.04476 0.0
C244 C 0.45684 0.66439 0.08861 0.0
C245 C 0.42127 0.69313 0.09881 0.0
C246 C 0.4318 0.63595 0.96399 0.0
C247 C 0.49053 0.65482 0.12473 0.0
C248 C 0.36804 0.352 0.05771 0.0
C249 C 0.37199 0.37306 0.01553 0.0
C250 C 0.40969 0.39783 0.00466 0.0
C251 C 0.44378 0.40198 0.03696 0.0
C252 C 0.4398 0.38056 0.07948 0.0
C253 C 0.40218 0.35526 0.089 0.0
C254 C 0.4135 0.41879 0.95836 0.0
C255 C 0.47545 0.3841 0.11473 0.0
C256 C 0.76697 0.34367 0.90569 0.0
C257 C 0.74897 0.3226 0.94913 0.0
C258 C 0.67051 0.33779 0.95763 0.0
C259 C 0.63666 0.34742 0.92734 0.0
C260 C 0.60089 0.37468 0.94051 0.0
C261 C 0.59852 0.39155 0.98554 0.0
C262 C 0.63181 0.3802 0.01694 0.0
C263 C 0.66766 0.35359 0.00253 0.0
C264 C 0.56589 0.38583 0.90622 0.0
C265 C 0.62948 0.39617 0.06566 0.0
C266 C 0.57544 0.60934 0.01001 0.0
C267 C 0.5386 0.63505 0.02252 0.0
C268 C 0.49834 0.61508 0.03309 0.0
C269 C 0.49476 0.56794 0.03193 0.0
C270 C 0.4554 0.54652 0.04425 0.0
C271 C 0.45211 0.50013 0.04245 0.0
C272 C 0.48793 0.4734 0.02796 0.0
C273 C 0.4848 0.42627 0.0253 0.0
C274 C 0.52134 0.4008 0.01137 0.0
C275 C 0.56116 0.42094 0.99977 0.0
C276 C 0.56486 0.46798 0.00177 0.0
C277 C 0.60431 0.48937 0.98979 0.0
C278 C 0.60788 0.53561 0.99252 0.0
C279 C 0.57199 0.56233 0.00686 0.0
C280 C 0.53161 0.54155 0.01824 0.0
C281 C 0.52812 0.49428 0.01598 0.0
C282 C 0.27257 0.35854 0.11062 0.0
C283 C 0.28898 0.34111 0.06446 0.0
O284 O 0.73798 0.69619 0.9777 0.0
O285 O 0.70496 0.31228 0.94295 0.0
O286 O 0.3324 0.32705 0.06843 0.0
O287 O 0.35455 0.72912 0.07841 0.0
H288 H 0.72448 0.73833 0.92495 0.0
H289 H 0.74418 0.66415 0.89147 0.0
H290 H 0.79741 0.66556 0.91762 0.0
H291 H 0.78343 0.70533 0.874 0.0
H292 H 0.71402 0.66069 0.0529 0.0
H293 H 0.67253 0.6864 0.91643 0.0
H294 H 0.60934 0.63119 0.09635 0.0
H295 H 0.66777 0.62612 0.10656 0.0
H296 H 0.63811 0.58099 0.08014 0.0
H297 H 0.60553 0.66159 0.88763 0.0
H298 H 0.56232 0.66527 0.92999 0.0
H299 H 0.58469 0.61176 0.91419 0.0
H300 H 0.30664 0.69449 0.04388 0.0
H301 H 0.29482 0.72195 0.14446 0.0
H302 H 0.3102 0.6673 0.12302 0.0
H303 H 0.25653 0.68998 0.11065 0.0
H304 H 0.36814 0.69093 0.99774 0.0
H305 H 0.41824 0.70839 0.13221 0.0
H306 H 0.46502 0.64257 0.9496 0.0
H307 H 0.40661 0.65035 0.94107 0.0
H308 H 0.42752 0.59918 0.96481 0.0
H309 H 0.4806 0.6688 0.15839 0.0
H310 H 0.52255 0.66961 0.11472 0.0
H311 H 0.49567 0.6182 0.12794 0.0
H312 H 0.28631 0.36909 0.03993 0.0
H313 H 0.34616 0.36918 0.99067 0.0
H314 H 0.39894 0.33835 0.12125 0.0
H315 H 0.41446 0.45569 0.96205 0.0
H316 H 0.38553 0.4099 0.93602 0.0
H317 H 0.44473 0.40793 0.94157 0.0
H318 H 0.46505 0.3701 0.14793 0.0
H319 H 0.48479 0.41958 0.11979 0.0
H320 H 0.50522 0.36562 0.10266 0.0
H321 H 0.75279 0.34745 0.97715 0.0
H322 H 0.80211 0.35281 0.90995 0.0
H323 H 0.74797 0.37453 0.898 0.0
H324 H 0.76412 0.32012 0.87649 0.0
H325 H 0.63895 0.33436 0.89294 0.0
H326 H 0.6931 0.3446 0.02645 0.0
H327 H 0.56118 0.42261 0.90446 0.0
H328 H 0.53406 0.37121 0.9171 0.0
H329 H 0.57427 0.37285 0.87172 0.0
H330 H 0.65558 0.38084 0.08685 0.0
H331 H 0.59681 0.38823 0.08066 0.0
H332 H 0.63321 0.43301 0.06691 0.0
H333 H 0.54131 0.67116 0.0241 0.0
H334 H 0.42672 0.5654 0.05553 0.0
H335 H 0.42104 0.48547 0.05239 0.0
H336 H 0.51876 0.36469 0.00956 0.0
H337 H 0.63298 0.47058 0.97832 0.0
H338 H 0.63912 0.55017 0.98305 0.0
H339 H 0.27442 0.33181 0.13654 0.0
H340 H 0.23794 0.37057 0.1082 0.0
H341 H 0.29325 0.38693 0.12189 0.0
C342 C 0.03923 0.13383 0.90287 0.0
C343 C 0.01764 0.12437 0.12153 0.0
C344 C 0.0342 0.91847 0.89011 0.0
C345 C 0.01692 0.90778 0.1088 0.0
C346 C 0.13187 0.90701 0.01006 0.0
C347 C 0.14181 0.12365 0.02345 0.0
C348 C 0.9196 0.92055 0.98728 0.0
C349 C 0.93033 0.13617 0.00521 0.0
C350 C 0.91562 0.02104 0.10813 0.0
C351 C 0.12702 0.00871 0.12588 0.0
C352 C 0.93493 0.03878 0.88916 0.0
C353 C 0.14831 0.01986 0.90729 0.0
Eu354 Eu 0.03513 0.10526 0.01164 0.0
O355 O 0.06858 0.05721 0.05353 0.0
O356 O 0.99838 0.06399 0.96612 0.0
Eu357 Eu 0.11409 0.01668 0.01443 0.0
Eu358 Eu 0.94805 0.02664 0.00014 0.0
O359 O 0.07612 0.06053 0.97177 0.0
O360 O 0.99076 0.06109 0.0459 0.0
Eu361 Eu 0.03934 0.0249 0.92071 0.0
Eu362 Eu 0.02343 0.01713 0.09222 0.0
O363 O 0.07211 0.9813 0.9676 0.0
O364 O 0.0641 0.97773 0.04723 0.0
O365 O 0.98631 0.98197 0.04132 0.0
O366 O 0.99367 0.9863 0.96044 0.0
Eu367 Eu 0.02676 0.93725 0.00099 0.0
O368 O 0.03598 0.14564 0.94664 0.0
O369 O 0.02622 0.13954 0.0799 0.0
O370 O 0.02913 0.90299 0.93217 0.0
O371 O 0.01983 0.89662 0.0649 0.0
O372 O 0.14744 0.94841 0.01485 0.0
O373 O 0.15352 0.08049 0.02404 0.0
O374 O 0.90855 0.9638 0.98876 0.0
O375 O 0.91461 0.09479 0.0012 0.0
O376 O 0.95609 0.01599 0.12454 0.0
O377 O 0.08424 0.01294 0.13595 0.0
O378 O 0.97734 0.03272 0.87763 0.0
O379 O 0.10818 0.02141 0.88883 0.0
O380 O 0.96027 0.904 0.99235 0.0
O381 O 0.08972 0.89629 0.00376 0.0
O382 O 0.97266 0.14679 0.00965 0.0
O383 O 0.10088 0.13924 0.01836 0.0
O384 O 0.01594 0.08136 0.13314 0.0
O385 O 0.0176 0.94933 0.12568 0.0
O386 O 0.0432 0.09214 0.88694 0.0
O387 O 0.03903 0.96121 0.87881 0.0
O388 O 0.15699 0.01863 0.9516 0.0
O389 O 0.14449 0.00857 0.0841 0.0
O390 O 0.91831 0.03803 0.93121 0.0
O391 O 0.90542 0.02645 0.06438 0.0
H392 H 0.92476 0.24086 0.27408 0.0
H393 H 0.95422 0.34494 0.17842 0.0
H394 H 0.9956 0.29176 0.13096 0.0
H395 H 0.01764 0.21494 0.11348 0.0
H396 H 0.98629 0.10979 0.20782 0.0
H397 H 0.95241 0.16439 0.25944 0.0
C398 C 0.94103 0.25195 0.2433 0.0
C399 C 0.93684 0.2968 0.22993 0.0
C400 C 0.96433 0.22106 0.21591 0.0
C401 C 0.95738 0.31068 0.18958 0.0
C402 C 0.9809 0.28028 0.16239 0.0
C403 C 0.00404 0.20384 0.1456 0.0
C404 C 0.00429 0.15809 0.15636 0.0
C405 C 0.98382 0.23524 0.17477 0.0
C406 C 0.98664 0.14468 0.19841 0.0
C407 C 0.96696 0.17589 0.22794 0.0
H408 H 0.80151 0.03159 0.28615 0.0
H409 H 0.73021 0.12849 0.20737 0.0
H410 H 0.77521 0.10963 0.14033 0.0
H411 H 0.84 0.0708 0.10662 0.0
H412 H 0.91236 0.97611 0.1875 0.0
H413 H 0.8614 0.98823 0.25086 0.0
C414 C 0.79532 0.04797 0.25406 0.0
C415 C 0.76258 0.08123 0.25161 0.0
C416 C 0.82166 0.03743 0.21607 0.0
C417 C 0.75513 0.10255 0.20993 0.0
C418 C 0.78093 0.09188 0.1717 0.0
C419 C 0.84388 0.05211 0.13777 0.0
C420 C 0.87999 0.02285 0.14252 0.0
C421 C 0.81498 0.06006 0.17464 0.0
C422 C 0.88501 0.99916 0.18321 0.0
C423 C 0.85596 0.00611 0.21951 0.0
H424 H 0.99354 0.72833 0.21627 0.0
H425 H 0.93389 0.81863 0.3141 0.0
H426 H 0.95241 0.88229 0.2661 0.0
H427 H 0.98202 0.91163 0.19434 0.0
H428 H 0.03897 0.82022 0.09546 0.0
H429 H 0.02524 0.75771 0.14596 0.0
C430 C 0.98515 0.76204 0.22729 0.0
C431 C 0.96287 0.76888 0.26885 0.0
C432 C 0.99518 0.79822 0.19924 0.0
C433 C 0.9515 0.81262 0.28246 0.0
C434 C 0.96193 0.84895 0.25498 0.0
C435 C 0.9919 0.87811 0.18408 0.0
C436 C 0.01132 0.87065 0.1411 0.0
C437 C 0.98332 0.84209 0.21304 0.0
C438 C 0.02357 0.82691 0.12816 0.0
C439 C 0.01582 0.7911 0.15705 0.0
H440 H 0.22563 0.98092 0.31127 0.0
H441 H 0.31529 0.90819 0.22303 0.0
H442 H 0.27227 0.93013 0.15691 0.0
H443 H 0.20663 0.96625 0.12473 0.0
H444 H 0.11458 0.03504 0.21391 0.0
H445 H 0.16113 0.01863 0.27897 0.0
C446 C 0.23609 0.97058 0.27743 0.0
C447 C 0.27412 0.94392 0.27199 0.0
C448 C 0.2106 0.98235 0.23976 0.0
C449 C 0.28671 0.9296 0.22808 0.0
C450 C 0.26197 0.9419 0.19028 0.0
C451 C 0.19709 0.9782 0.1583 0.0
C452 C 0.1572 0.00185 0.16444 0.0
C453 C 0.22356 0.96784 0.19577 0.0
C454 C 0.14499 0.01654 0.20828 0.0
C455 C 0.1716 0.00721 0.24552 0.0
H456 H 0.03517 0.80362 0.70981 0.0
H457 H 0.94068 0.72829 0.78745 0.0
H458 H 0.953 0.77626 0.85351 0.0
H459 H 0.98683 0.84246 0.88762 0.0
H460 H 0.0766 0.92168 0.80822 0.0
H461 H 0.06949 0.86971 0.74415 0.0
C462 C 0.01699 0.79795 0.74103 0.0
C463 C 0.98615 0.76315 0.74327 0.0
C464 C 0.02326 0.82645 0.77847 0.0
C465 C 0.96399 0.75535 0.78455 0.0
C466 C 0.97101 0.78273 0.82234 0.0
C467 C 0.00523 0.84802 0.85646 0.0
C468 C 0.03224 0.88568 0.85256 0.0
C469 C 1.00001 0.8188 0.81945 0.0
C470 C 0.05542 0.89295 0.81184 0.0
C471 C 0.0514 0.86326 0.77527 0.0
H472 H 0.3367 0.01186 0.81807 0.0
H473 H 0.26982 0.92675 0.72263 0.0
H474 H 0.19921 0.94337 0.76042 0.0
H475 H 0.15763 0.97725 0.82514 0.0
H476 H 0.2269 0.05879 0.92226 0.0
H477 H 0.29513 0.04904 0.87904 0.0
C478 C 0.30652 0.99769 0.80499 0.0
C479 C 0.30839 0.96876 0.76719 0.0
C480 C 0.26643 0.0066 0.82743 0.0
C481 C 0.26913 0.94976 0.75123 0.0
C482 C 0.22882 0.95906 0.77299 0.0
C483 C 0.18752 0.99354 0.8362 0.0
C484 C 0.1873 0.01857 0.87688 0.0
C485 C 0.22716 0.98683 0.81169 0.0
C486 C 0.22634 0.03907 0.89123 0.0
C487 C 0.2654 0.03349 0.86658 0.0
H488 H 0.96286 0.27856 0.77215 0.0
H489 H 0.03196 0.19635 0.67336 0.0
H490 H 0.06389 0.15189 0.73428 0.0
H491 H 0.06596 0.13196 0.81472 0.0
H492 H 0.99653 0.21393 0.91363 0.0
H493 H 0.97214 0.2639 0.85356 0.0
C494 C 0.98577 0.25164 0.76398 0.0
C495 C 0.99541 0.24097 0.71827 0.0
C496 C 0.00391 0.22621 0.79916 0.0
C497 C 0.02448 0.20541 0.7083 0.0
C498 C 0.04258 0.17993 0.74307 0.0
C499 C 0.04614 0.16121 0.82326 0.0
C500 C 0.03277 0.16895 0.86851 0.0
C501 C 0.03169 0.1894 0.78852 0.0
C502 C 0.0075 0.20726 0.8791 0.0
C503 C 0.99314 0.23564 0.84469 0.0
H504 H 0.77955 0.10515 0.76595 0.0
H505 H 0.8303 0.00153 0.67701 0.0
H506 H 0.88949 0.98553 0.73091 0.0
H507 H 0.9261 0.00046 0.80475 0.0
H508 H 0.87201 0.10235 0.89382 0.0
H509 H 0.81518 0.11977 0.83861 0.0
C510 C 0.80339 0.07886 0.75847 0.0
C511 C 0.80022 0.05424 0.7178 0.0
C512 C 0.83694 0.06971 0.78965 0.0
C513 C 0.83179 0.02064 0.70836 0.0
C514 C 0.86569 0.01161 0.73908 0.0
C515 C 0.90203 0.02666 0.81166 0.0
C516 C 0.90307 0.05004 0.85327 0.0
C517 C 0.86859 0.03589 0.77996 0.0
C518 C 0.87153 0.08365 0.86218 0.0
C519 C 0.83904 0.09367 0.83061 0.0
H520 H 0.2973 0.25069 0.0812 0.0
H521 H 0.21451 0.34704 0.01396 0.0
H522 H 0.16281 0.2882 0.99365 0.0
H523 H 0.13946 0.21044 0.99802 0.0
H524 H 0.22213 0.11315 0.06419 0.0
H525 H 0.27607 0.17119 0.08107 0.0
C526 C 0.26837 0.25862 0.06136 0.0
C527 C 0.26011 0.30312 0.04841 0.0
C528 C 0.23877 0.22454 0.04973 0.0
C529 C 0.22191 0.31298 0.02366 0.0
C530 C 0.19228 0.27941 0.01222 0.0
C531 C 0.16935 0.20179 0.01601 0.0
C532 C 0.17651 0.15756 0.0302 0.0
C533 C 0.20012 0.23522 0.02553 0.0
C534 C 0.21578 0.1469 0.05282 0.0
C535 C 0.24655 0.18013 0.06268 0.0
H536 H 0.23842 0.72555 0.01835 0.0
H537 H 0.3228 0.80607 0.10231 0.0
H538 H 0.27677 0.87186 0.08796 0.0
H539 H 0.21033 0.90558 0.05448 0.0
H540 H 0.12406 0.82345 0.97387 0.0
H541 H 0.17311 0.7594 0.98372 0.0
C542 C 0.24706 0.7577 0.03288 0.0
C543 C 0.28454 0.76113 0.06038 0.0
C544 C 0.21996 0.79506 0.02528 0.0
C545 C 0.29471 0.80273 0.08013 0.0
C546 C 0.26825 0.8403 0.07215 0.0
C547 C 0.20258 0.87382 0.03857 0.0
C548 C 0.16358 0.86936 0.01345 0.0
C549 C 0.23057 0.83677 0.04508 0.0
C550 C 0.15372 0.82777 0.9936 0.0
C551 C 0.18177 0.79109 0.99917 0.0
H552 H 0.82359 0.3176 0.9989 0.0
H553 H 0.73506 0.23515 0.92169 0.0
H554 H 0.78158 0.16969 0.93543 0.0
H555 H 0.84922 0.13666 0.96644 0.0
H556 H 0.94028 0.2205 0.03914 0.0
H557 H 0.89072 0.28441 0.03071 0.0
C558 C 0.81421 0.28511 0.98573 0.0
C559 C 0.77541 0.28106 0.96034 0.0
C560 C 0.84164 0.2479 0.99281 0.0
C561 C 0.7642 0.23902 0.94229 0.0
C562 C 0.79091 0.20162 0.94992 0.0
C563 C 0.85808 0.16882 0.98071 0.0
C564 C 0.89854 0.17381 0.00308 0.0
C565 C 0.82991 0.20575 0.97479 0.0
C566 C 0.90954 0.2158 0.02133 0.0
C567 C 0.88121 0.25239 0.01658 0.0
H568 H 0.75371 0.80958 0.92705 0.0
H569 H 0.83004 0.70221 0.98449 0.0
H570 H 0.88854 0.75458 0.00413 0.0
H571 H 0.9184 0.83087 0.00377 0.0
H572 H 0.84013 0.93836 0.94864 0.0
H573 H 0.78195 0.88603 0.92974 0.0
C574 C 0.78307 0.79768 0.94404 0.0
C575 C 0.7877 0.75201 0.95391 0.0
C576 C 0.81622 0.82802 0.95571 0.0
C577 C 0.82588 0.73716 0.97618 0.0
C578 C 0.85928 0.76708 0.98745 0.0
C579 C 0.8886 0.84285 0.98766 0.0
C580 C 0.8838 0.88853 0.97762 0.0
C581 C 0.85493 0.81257 0.97712 0.0
C582 C 0.84473 0.90349 0.95708 0.0
C583 C 0.81141 0.87354 0.94605 0.0
loop_
_geom_bond_atom_site_label_1
_geom_bond_atom_site_label_2
_geom_bond_distance
_geom_bond_site_symmetry_2
_ccdc_geom_bond_type
C0 C1 1.560 . S
C0 H61 0.959 . S
C0 H62 0.959 . S
C0 H63 0.960 . S
C1 C0 1.560 . S
C1 O56 1.426 . S
C1 H60 0.980 . S
C2 C3 1.407 . S
C2 C7 1.418 . S
C2 O56 1.334 . S
C3 C2 1.407 . S
C3 C4 1.360 1_455 S
C3 H64 0.929 1_455 S
C4 C3 1.360 1_655 S
C4 C5 1.401 1_655 S
C4 C8 1.527 . S
C5 C4 1.401 1_455 S
C5 C6 1.405 . S
C5 C38 1.591 . S
C6 C5 1.405 . S
C6 C7 1.332 . S
C6 C9 1.496 . S
C7 C2 1.418 . S
C7 C6 1.332 . S
C7 H65 0.929 . S
C8 C4 1.527 . S
C8 H66 0.959 . S
C8 H67 0.961 . S
C8 H68 0.961 . S
C9 C6 1.496 . S
C9 H69 0.960 . S
C9 H70 0.960 . S
C9 H71 0.961 . S
C10 C11 1.517 . S
C10 H73 0.961 1_655 S
C10 H74 0.960 . S
C10 H75 0.959 . S
C11 C10 1.517 . S
C11 O59 1.468 . S
C11 H72 0.980 1_655 S
C12 C13 1.349 1_655 S
C12 C17 1.367 . S
C12 O59 1.408 . S
C13 C12 1.349 1_455 S
C13 C14 1.407 . S
C13 H76 0.930 . S
C14 C13 1.407 . S
C14 C15 1.449 1_455 S
C14 C18 1.535 . S
C15 C14 1.449 1_655 S
C15 C16 1.384 . S
C15 C40 1.553 . S
C16 C15 1.384 . S
C16 C17 1.364 . S
C16 C19 1.450 . S
C17 C12 1.367 . S
C17 C16 1.364 . S
C17 H77 0.931 . S
C18 C14 1.535 . S
C18 H78 0.959 . S
C18 H79 0.961 . S
C18 H80 0.959 . S
C19 C16 1.450 . S
C19 H81 0.960 . S
C19 H82 0.960 . S
C19 H83 0.960 . S
C20 C21 1.309 1_655 S
C20 C25 1.304 . S
C20 O58 1.435 . S
C21 C20 1.309 1_455 S
C21 C22 1.476 . S
C21 H85 0.930 . S
C22 C21 1.476 . S
C22 C23 1.400 1_455 S
C22 C26 1.567 . S
C23 C22 1.400 1_655 S
C23 C24 1.373 . S
C23 C45 1.432 . S
C24 C23 1.373 . S
C24 C25 1.339 . S
C24 C27 1.530 . S
C25 C20 1.304 . S
C25 C24 1.339 . S
C25 H86 0.930 . S
C26 C22 1.567 . S
C26 H87 0.961 . S
C26 H88 0.960 . S
C26 H89 0.958 . S
C27 C24 1.530 . S
C27 H90 0.961 . S
C27 H91 0.960 . S
C27 H92 0.960 . S
C28 C29 1.530 . S
C28 H94 0.961 . S
C28 H95 0.961 . S
C28 H96 0.959 . S
C29 C28 1.530 . S
C29 O57 1.412 . S
C29 H93 0.980 . S
C30 C31 1.288 . S
C30 C35 1.377 . S
C30 O57 1.393 . S
C31 C30 1.288 . S
C31 C32 1.369 . S
C31 H97 0.932 . S
C32 C31 1.369 . S
C32 C33 1.398 . S
C32 C36 1.527 . S
C33 C32 1.398 . S
C33 C34 1.380 1_455 S
C33 C47 1.497 . S
C34 C33 1.380 1_655 S
C34 C35 1.383 1_655 S
C34 C37 1.603 . S
C35 C30 1.377 . S
C35 C34 1.383 1_455 S
C35 H98 0.929 1_455 S
C36 C32 1.527 . S
C36 H99 0.961 . S
C36 H100 0.959 . S
C36 H101 0.959 . S
C37 C34 1.603 . S
C37 H102 0.960 . S
C37 H103 0.962 . S
C37 H104 0.961 . S
C38 C5 1.591 . S
C38 C39 1.358 1_455 S
C38 C51 1.412 . S
C39 C38 1.358 1_655 S
C39 C40 1.365 . S
C39 H105 0.929 . S
C40 C15 1.553 . S
C40 C39 1.365 . S
C40 C41 1.404 . S
C41 C40 1.404 . S
C41 C42 1.395 . S
C41 C52 1.451 . S
C42 C41 1.395 . S
C42 C43 1.322 . S
C42 H106 0.930 . S
C43 C42 1.322 . S
C43 C44 1.459 . S
C43 H107 0.929 . S
C44 C43 1.459 . S
C44 C45 1.445 . S
C44 C53 1.395 . S
C45 C23 1.432 . S
C45 C44 1.445 . S
C45 C46 1.370 1_655 S
C46 C45 1.370 1_455 S
C46 C47 1.438 . S
C46 H108 0.930 . S
C47 C33 1.497 . S
C47 C46 1.438 . S
C47 C48 1.360 . S
C48 C47 1.360 . S
C48 C49 1.401 . S
C48 C53 1.446 1_455 S
C49 C48 1.401 . S
C49 C50 1.347 . S
C49 H109 0.929 . S
C50 C49 1.347 . S
C50 C51 1.455 . S
C50 H110 0.930 . S
C51 C38 1.412 . S
C51 C50 1.455 . S
C51 C52 1.331 1_455 S
C52 C41 1.451 . S
C52 C51 1.331 1_655 S
C52 C53 1.497 . S
C53 C44 1.395 . S
C53 C48 1.446 1_655 S
C53 C52 1.497 . S
C54 C55 1.582 1_655 S
C54 H111 0.962 1_655 S
C54 H112 0.959 . S
C54 H113 0.958 . S
C55 C54 1.582 1_455 S
C55 O58 1.458 1_455 S
C55 H84 0.980 . S
O56 C1 1.426 . S
O56 C2 1.334 . S
O57 C29 1.412 . S
O57 C30 1.393 . S
O58 C20 1.435 . S
O58 C55 1.458 1_655 S
O59 C11 1.468 . S
O59 C12 1.408 . S
H60 C1 0.980 . S
H61 C0 0.959 . S
H62 C0 0.959 . S
H63 C0 0.960 . S
H64 C3 0.929 1_655 S
H65 C7 0.929 . S
H66 C8 0.959 . S
H67 C8 0.961 . S
H68 C8 0.961 . S
H69 C9 0.960 . S
H70 C9 0.960 . S
H71 C9 0.961 . S
H72 C11 0.980 1_455 S
H73 C10 0.961 1_455 S
H74 C10 0.960 . S
H75 C10 0.959 . S
H76 C13 0.930 . S
H77 C17 0.931 . S
H78 C18 0.959 . S
H79 C18 0.961 . S
H80 C18 0.959 . S
H81 C19 0.960 . S
H82 C19 0.960 . S
H83 C19 0.960 . S
H84 C55 0.980 . S
H85 C21 0.930 . S
H86 C25 0.930 . S
H87 C26 0.961 . S
H88 C26 0.960 . S
H89 C26 0.958 . S
H90 C27 0.961 . S
H91 C27 0.960 . S
H92 C27 0.960 . S
H93 C29 0.980 . S
H94 C28 0.961 . S
H95 C28 0.961 . S
H96 C28 0.959 . S
H97 C31 0.932 . S
H98 C35 0.929 1_655 S
H99 C36 0.961 . S
H100 C36 0.959 . S
H101 C36 0.959 . S
H102 C37 0.960 . S
H103 C37 0.962 . S
H104 C37 0.961 . S
H105 C39 0.929 . S
H106 C42 0.930 . S
H107 C43 0.929 . S
H108 C46 0.930 . S
H109 C49 0.929 . S
H110 C50 0.930 . S
H111 C54 0.962 1_455 S
H112 C54 0.959 . S
H113 C54 0.958 . S
C114 C115 1.560 . S
C114 H175 0.959 . S
C114 H176 0.959 . S
C114 H177 0.960 . S
C115 C114 1.560 . S
C115 O170 1.426 . S
C115 H174 0.980 . S
C116 C117 1.407 1_545 S
C116 C121 1.418 . S
C116 O170 1.334 . S
C117 C116 1.407 1_565 S
C117 C118 1.360 . S
C117 H178 0.929 . S
C118 C117 1.360 . S
C118 C119 1.401 1_565 S
C118 C122 1.527 . S
C119 C118 1.401 1_545 S
C119 C120 1.405 . S
C119 C152 1.587 1_545 S
C120 C119 1.405 . S
C120 C121 1.332 . S
C120 C123 1.496 . S
C121 C116 1.418 . S
C121 C120 1.332 . S
C121 H179 0.929 . S
C122 C118 1.527 . S
C122 H180 0.959 . S
C122 H181 0.961 . S
C122 H182 0.961 . S
C123 C120 1.496 . S
C123 H183 0.960 . S
C123 H184 0.960 . S
C123 H185 0.961 . S
C124 C125 1.517 . S
C124 H187 0.961 1_565 S
C124 H188 0.960 . S
C124 H189 0.959 . S
C125 C124 1.517 . S
C125 O173 1.468 . S
C125 H186 0.980 1_565 S
C126 C127 1.349 1_565 S
C126 C131 1.367 . S
C126 O173 1.408 . S
C127 C126 1.349 1_545 S
C127 C128 1.407 . S
C127 H190 0.930 . S
C128 C127 1.407 . S
C128 C129 1.449 1_545 S
C128 C132 1.535 . S
C129 C128 1.449 1_565 S
C129 C130 1.384 . S
C129 C154 1.553 . S
C130 C129 1.384 . S
C130 C131 1.364 . S
C130 C133 1.450 . S
C131 C126 1.367 . S
C131 C130 1.364 . S
C131 H191 0.931 . S
C132 C128 1.535 . S
C132 H192 0.959 . S
C132 H193 0.961 . S
C132 H194 0.959 . S
C133 C130 1.450 . S
C133 H195 0.960 . S
C133 H196 0.960 . S
C133 H197 0.960 . S
C134 C135 1.309 1_565 S
C134 C139 1.304 . S
C134 O172 1.435 . S
C135 C134 1.309 1_545 S
C135 C136 1.476 . S
C135 H199 0.930 . S
C136 C135 1.476 . S
C136 C137 1.400 1_545 S
C136 C140 1.567 . S
C137 C136 1.400 1_565 S
C137 C138 1.373 . S
C137 C159 1.432 . S
C138 C137 1.373 . S
C138 C139 1.339 . S
C138 C141 1.530 . S
C139 C134 1.304 . S
C139 C138 1.339 . S
C139 H200 0.930 . S
C140 C136 1.567 . S
C140 H201 0.961 . S
C140 H202 0.960 . S
C140 H203 0.958 . S
C141 C138 1.530 . S
C141 H204 0.961 . S
C141 H205 0.960 . S
C141 H206 0.960 . S
C142 C143 1.530 . S
C142 H208 0.961 . S
C142 H209 0.961 . S
C142 H210 0.959 . S
C143 C142 1.530 . S
C143 O171 1.412 . S
C143 H207 0.980 . S
C144 C145 1.288 . S
C144 C149 1.377 1_545 S
C144 O171 1.393 . S
C145 C144 1.288 . S
C145 C146 1.369 . S
C145 H211 0.932 . S
C146 C145 1.369 . S
C146 C147 1.398 . S
C146 C150 1.527 . S
C147 C146 1.398 . S
C147 C148 1.380 1_545 S
C147 C161 1.497 . S
C148 C147 1.380 1_565 S
C148 C149 1.383 . S
C148 C151 1.603 . S
C149 C144 1.377 1_565 S
C149 C148 1.383 . S
C149 H212 0.929 . S
C150 C146 1.527 . S
C150 H213 0.961 . S
C150 H214 0.959 . S
C150 H215 0.959 . S
C151 C148 1.603 . S
C151 H216 0.960 . S
C151 H217 0.962 . S
C151 H218 0.961 . S
C152 C119 1.587 1_565 S
C152 C153 1.360 . S
C152 C165 1.412 . S
C153 C152 1.360 . S
C153 C154 1.365 . S
C153 H219 0.929 . S
C154 C129 1.553 . S
C154 C153 1.365 . S
C154 C155 1.404 . S
C155 C154 1.404 . S
C155 C156 1.395 . S
C155 C166 1.451 . S
C156 C155 1.395 . S
C156 C157 1.322 . S
C156 H220 0.930 . S
C157 C156 1.322 . S
C157 C158 1.459 . S
C157 H221 0.929 . S
C158 C157 1.459 . S
C158 C159 1.445 . S
C158 C167 1.395 . S
C159 C137 1.432 . S
C159 C158 1.445 . S
C159 C160 1.374 . S
C160 C159 1.374 . S
C160 C161 1.435 1_565 S
C160 H222 0.929 1_565 S
C161 C147 1.497 . S
C161 C160 1.435 1_545 S
C161 C162 1.361 . S
C162 C161 1.361 . S
C162 C163 1.402 . S
C162 C167 1.444 1_545 S
C163 C162 1.402 . S
C163 C164 1.347 . S
C163 H223 0.929 . S
C164 C163 1.347 . S
C164 C165 1.455 1_545 S
C164 H224 0.930 . S
C165 C152 1.412 . S
C165 C164 1.455 1_565 S
C165 C166 1.331 . S
C166 C155 1.451 . S
C166 C165 1.331 . S
C166 C167 1.497 . S
C167 C158 1.395 . S
C167 C162 1.444 1_565 S
C167 C166 1.497 . S
C168 C169 1.582 1_565 S
C168 H225 0.962 . S
C168 H226 0.959 . S
C168 H227 0.958 . S
C169 C168 1.582 1_545 S
C169 O172 1.458 1_545 S
C169 H198 0.980 . S
O170 C115 1.426 . S
O170 C116 1.334 . S
O171 C143 1.412 . S
O171 C144 1.393 . S
O172 C134 1.435 . S
O172 C169 1.458 1_565 S
O173 C125 1.468 . S
O173 C126 1.408 . S
H174 C115 0.980 . S
H175 C114 0.959 . S
H176 C114 0.959 . S
H177 C114 0.960 . S
H178 C117 0.929 . S
H179 C121 0.929 . S
H180 C122 0.959 . S
H181 C122 0.961 . S
H182 C122 0.961 . S
H183 C123 0.960 . S
H184 C123 0.960 . S
H185 C123 0.961 . S
H186 C125 0.980 1_545 S
H187 C124 0.961 1_545 S
H188 C124 0.960 . S
H189 C124 0.959 . S
H190 C127 0.930 . S
H191 C131 0.931 . S
H192 C132 0.959 . S
H193 C132 0.961 . S
H194 C132 0.959 . S
H195 C133 0.960 . S
H196 C133 0.960 . S
H197 C133 0.960 . S
H198 C169 0.980 . S
H199 C135 0.930 . S
H200 C139 0.930 . S
H201 C140 0.961 . S
H202 C140 0.960 . S
H203 C140 0.958 . S
H204 C141 0.961 . S
H205 C141 0.960 . S
H206 C141 0.960 . S
H207 C143 0.980 . S
H208 C142 0.961 . S
H209 C142 0.961 . S
H210 C142 0.959 . S
H211 C145 0.932 . S
H212 C149 0.929 . S
H213 C150 0.961 . S
H214 C150 0.959 . S
H215 C150 0.959 . S
H216 C151 0.960 . S
H217 C151 0.962 . S
H218 C151 0.961 . S
H219 C153 0.929 . S
H220 C156 0.930 . S
H221 C157 0.929 . S
H222 C160 0.929 1_545 S
H223 C163 0.929 . S
H224 C164 0.930 . S
H225 C168 0.962 . S
H226 C168 0.959 . S
H227 C168 0.958 . S
C228 C229 1.560 . S
C228 H289 0.959 . S
C228 H290 0.959 . S
C228 H291 0.960 . S
C229 C228 1.560 . S
C229 O284 1.426 . S
C229 H288 0.980 . S
C230 C231 1.407 1_556 S
C230 C235 1.418 . S
C230 O284 1.334 . S
C231 C230 1.407 1_554 S
C231 C232 1.360 . S
C231 H292 0.929 . S
C232 C231 1.360 . S
C232 C233 1.401 . S
C232 C236 1.527 . S
C233 C232 1.401 . S
C233 C234 1.405 1_554 S
C233 C266 1.587 . S
C234 C233 1.405 1_556 S
C234 C235 1.332 . S
C234 C237 1.496 . S
C235 C230 1.418 . S
C235 C234 1.332 . S
C235 H293 0.929 . S
C236 C232 1.527 . S
C236 H294 0.959 . S
C236 H295 0.961 . S
C236 H296 0.961 . S
C237 C234 1.496 . S
C237 H297 0.960 . S
C237 H298 0.960 . S
C237 H299 0.961 . S
C238 C239 1.517 . S
C238 H301 0.961 . S
C238 H302 0.960 . S
C238 H303 0.959 . S
C239 C238 1.517 . S
C239 O287 1.468 . S
C239 H300 0.980 . S
C240 C241 1.349 . S
C240 C245 1.367 . S
C240 O287 1.408 . S
C241 C240 1.349 . S
C241 C242 1.407 . S
C241 H304 0.930 1_554 S
C242 C241 1.407 . S
C242 C243 1.449 . S
C242 C246 1.535 1_554 S
C243 C242 1.449 . S
C243 C244 1.384 . S
C243 C268 1.553 . S
C244 C243 1.384 . S
C244 C245 1.364 . S
C244 C247 1.450 . S
C245 C240 1.367 . S
C245 C244 1.364 . S
C245 H305 0.931 . S
C246 C242 1.535 1_556 S
C246 H306 0.959 . S
C246 H307 0.961 . S
C246 H308 0.959 . S
C247 C244 1.450 . S
C247 H309 0.960 . S
C247 H310 0.960 . S
C247 H311 0.960 . S
C248 C249 1.288 1_554 S
C248 C253 1.304 . S
C248 O286 1.435 . S
C249 C248 1.288 1_556 S
C249 C250 1.479 . S
C249 H313 0.947 . S
C250 C249 1.479 . S
C250 C251 1.400 1_556 S
C250 C254 1.567 . S
C251 C250 1.400 1_554 S
C251 C252 1.373 . S
C251 C273 1.432 . S
C252 C251 1.373 . S
C252 C253 1.339 . S
C252 C255 1.530 . S
C253 C248 1.304 . S
C253 C252 1.339 . S
C253 H314 0.930 . S
C254 C250 1.567 . S
C254 H315 0.961 . S
C254 H316 0.960 . S
C254 H317 0.958 . S
C255 C252 1.530 . S
C255 H318 0.961 . S
C255 H319 0.960 . S
C255 H320 0.960 . S
C256 C257 1.530 . S
C256 H322 0.961 . S
C256 H323 0.961 . S
C256 H324 0.959 . S
C257 C256 1.530 . S
C257 O285 1.412 . S
C257 H321 0.980 1_556 S
C258 C259 1.288 . S
C258 C263 1.377 1_556 S
C258 O285 1.393 . S
C259 C258 1.288 . S
C259 C260 1.369 . S
C259 H325 0.932 . S
C260 C259 1.369 . S
C260 C261 1.398 . S
C260 C264 1.527 . S
C261 C260 1.398 . S
C261 C262 1.380 1_556 S
C261 C275 1.497 1_556 S
C262 C261 1.380 1_554 S
C262 C263 1.383 . S
C262 C265 1.603 . S
C263 C258 1.377 1_554 S
C263 C262 1.383 . S
C263 H326 0.929 . S
C264 C260 1.527 . S
C264 H327 0.961 . S
C264 H328 0.959 . S
C264 H329 0.959 . S
C265 C262 1.603 . S
C265 H330 0.960 . S
C265 H331 0.962 . S
C265 H332 0.961 . S
C266 C233 1.587 . S
C266 C267 1.360 . S
C266 C279 1.412 . S
C267 C266 1.360 . S
C267 C268 1.365 . S
C267 H333 0.929 . S
C268 C243 1.553 . S
C268 C267 1.365 . S
C268 C269 1.404 . S
C269 C268 1.404 . S
C269 C270 1.395 . S
C269 C280 1.451 . S
C270 C269 1.395 . S
C270 C271 1.322 . S
C270 H334 0.930 . S
C271 C270 1.322 . S
C271 C272 1.459 . S
C271 H335 0.929 . S
C272 C271 1.459 . S
C272 C273 1.445 . S
C272 C281 1.395 . S
C273 C251 1.432 . S
C273 C272 1.445 . S
C273 C274 1.370 . S
C274 C273 1.370 . S
C274 C275 1.438 . S
C274 H336 0.930 . S
C275 C261 1.497 1_554 S
C275 C274 1.438 . S
C275 C276 1.360 . S
C276 C275 1.360 . S
C276 C277 1.401 . S
C276 C281 1.446 . S
C277 C276 1.401 . S
C277 C278 1.347 . S
C277 H337 0.929 . S
C278 C277 1.347 . S
C278 C279 1.455 . S
C278 H338 0.930 . S
C279 C266 1.412 . S
C279 C278 1.455 . S
C279 C280 1.331 . S
C280 C269 1.451 . S
C280 C279 1.331 . S
C280 C281 1.497 . S
C281 C272 1.395 . S
C281 C276 1.446 . S
C281 C280 1.497 . S
C282 C283 1.582 . S
C282 H339 0.962 . S
C282 H340 0.959 . S
C282 H341 0.958 . S
C283 C282 1.582 . S
C283 O286 1.458 . S
C283 H312 0.980 . S
O284 C229 1.426 . S
O284 C230 1.334 . S
O285 C257 1.412 . S
O285 C258 1.393 . S
O286 C248 1.435 . S
O286 C283 1.458 . S
O287 C239 1.468 . S
O287 C240 1.408 . S
H288 C229 0.980 . S
H289 C228 0.959 . S
H290 C228 0.959 . S
H291 C228 0.960 . S
H292 C231 0.929 . S
H293 C235 0.929 . S
H294 C236 0.959 . S
H295 C236 0.961 . S
H296 C236 0.961 . S
H297 C237 0.960 . S
H298 C237 0.960 . S
H299 C237 0.961 . S
H300 C239 0.980 . S
H301 C238 0.961 . S
H302 C238 0.960 . S
H303 C238 0.959 . S
H304 C241 0.930 1_556 S
H305 C245 0.931 . S
H306 C246 0.959 . S
H307 C246 0.961 . S
H308 C246 0.959 . S
H309 C247 0.960 . S
H310 C247 0.960 . S
H311 C247 0.960 . S
H312 C283 0.980 . S
H313 C249 0.947 . S
H314 C253 0.930 . S
H315 C254 0.961 . S
H316 C254 0.960 . S
H317 C254 0.958 . S
H318 C255 0.961 . S
H319 C255 0.960 . S
H320 C255 0.960 . S
H321 C257 0.980 1_554 S
H322 C256 0.961 . S
H323 C256 0.961 . S
H324 C256 0.959 . S
H325 C259 0.932 . S
H326 C263 0.929 . S
H327 C264 0.961 . S
H328 C264 0.959 . S
H329 C264 0.959 . S
H330 C265 0.960 . S
H331 C265 0.962 . S
H332 C265 0.961 . S
H333 C267 0.929 . S
H334 C270 0.930 . S
H335 C271 0.929 . S
H336 C274 0.930 . S
H337 C277 0.929 . S
H338 C278 0.930 . S
H339 C282 0.962 . S
H340 C282 0.959 . S
H341 C282 0.958 . S
C342 O368 1.283 . S
C342 O386 1.283 . S
C343 O369 1.283 . S
C343 O384 1.283 . S
C344 O370 1.283 . S
C344 O387 1.283 . S
C345 O371 1.283 . S
C345 O385 1.283 . S
C346 O372 1.283 . S
C346 O381 1.283 . S
C347 O373 1.283 1_554 S
C347 O383 1.283 . S
C348 O374 1.283 . S
C348 O380 1.283 1_554 S
C349 O375 1.283 . S
C349 O382 1.283 . S
C350 O376 1.283 . S
C350 O391 1.283 . S
C351 O377 1.283 . S
C351 O389 1.283 . S
C352 O378 1.283 . S
C352 O390 1.283 . S
C353 O379 1.283 . S
C353 O388 1.283 . S
Eu354 O355 2.377 . S
Eu354 O356 2.364 1_454 S
Eu354 O359 2.364 1_554 S
Eu354 O360 2.377 1_455 S
Eu354 O368 2.352 1_554 S
Eu354 O369 2.374 . S
Eu354 O382 2.363 1_455 S
Eu354 O383 2.363 . S
O355 Eu354 2.377 . S
O355 Eu357 2.367 1_554 S
O355 Eu362 2.370 . S
O356 Eu354 2.364 1_656 S
O356 Eu358 2.364 1_556 S
O356 Eu361 2.370 1_655 S
Eu357 O355 2.367 1_556 S
Eu357 O359 2.373 . S
Eu357 O363 2.373 1_545 S
Eu357 O364 2.367 1_546 S
Eu357 O372 2.363 1_545 S
Eu357 O373 2.363 . S
Eu357 O388 2.368 . S
Eu357 O389 2.357 1_556 S
Eu358 O356 2.364 1_554 S
Eu358 O360 2.377 . S
Eu358 O365 2.377 1_545 S
Eu358 O366 2.364 1_544 S
Eu358 O374 2.363 1_545 S
Eu358 O375 2.363 . S
Eu358 O390 2.352 1_554 S
Eu358 O391 2.374 . S
O359 Eu354 2.364 1_556 S
O359 Eu357 2.373 . S
O359 Eu361 2.370 . S
O360 Eu354 2.377 1_655 S
O360 Eu358 2.377 . S
O360 Eu362 2.370 1_655 S
Eu361 O356 2.370 1_455 S
Eu361 O359 2.370 . S
Eu361 O363 2.370 1_545 S
Eu361 O366 2.370 1_445 S
Eu361 O378 2.363 1_455 S
Eu361 O379 2.363 . S
Eu361 O386 2.363 . S
Eu361 O387 2.363 1_545 S
Eu362 O355 2.370 . S
Eu362 O360 2.370 1_455 S
Eu362 O364 2.370 1_545 S
Eu362 O365 2.370 1_445 S
Eu362 O376 2.363 1_455 S
Eu362 O377 2.363 . S
Eu362 O384 2.363 . S
Eu362 O385 2.363 1_545 S
O363 Eu357 2.373 1_565 S
O363 Eu361 2.370 1_565 S
O363 Eu367 2.373 . S
O364 Eu357 2.367 1_564 S
O364 Eu362 2.370 1_565 S
O364 Eu367 2.367 1_554 S
O365 Eu358 2.377 1_565 S
O365 Eu362 2.370 1_665 S
O365 Eu367 2.367 1_654 S
O366 Eu358 2.364 1_566 S
O366 Eu361 2.370 1_665 S
O366 Eu367 2.374 1_655 S
Eu367 O363 2.373 . S
Eu367 O364 2.367 1_556 S
Eu367 O365 2.367 1_456 S
Eu367 O366 2.374 1_455 S
Eu367 O370 2.369 . S
Eu367 O371 2.357 1_556 S
Eu367 O380 2.363 1_455 S
Eu367 O381 2.363 . S
O368 C342 1.283 . S
O368 Eu354 2.352 1_556 S
O369 C343 1.283 . S
O369 Eu354 2.374 . S
O370 C344 1.283 . S
O370 Eu367 2.369 . S
O371 C345 1.283 . S
O371 Eu367 2.357 1_554 S
O372 C346 1.283 . S
O372 Eu357 2.363 1_565 S
O373 C347 1.283 1_556 S
O373 Eu357 2.363 . S
O374 C348 1.283 . S
O374 Eu358 2.363 1_565 S
O375 C349 1.283 . S
O375 Eu358 2.363 . S
O376 C350 1.283 . S
O376 Eu362 2.363 1_655 S
O377 C351 1.283 . S
O377 Eu362 2.363 . S
O378 C352 1.283 . S
O378 Eu361 2.363 1_655 S
O379 C353 1.283 . S
O379 Eu361 2.363 . S
O380 C348 1.283 1_556 S
O380 Eu367 2.363 1_655 S
O381 C346 1.283 . S
O381 Eu367 2.363 . S
O382 C349 1.283 . S
O382 Eu354 2.363 1_655 S
O383 C347 1.283 . S
O383 Eu354 2.363 . S
O384 C343 1.283 . S
O384 Eu362 2.363 . S
O385 C345 1.283 . S
O385 Eu362 2.363 1_565 S
O386 C342 1.283 . S
O386 Eu361 2.363 . S
O387 C344 1.283 . S
O387 Eu361 2.363 1_565 S
O388 C353 1.283 . S
O388 Eu357 2.368 . S
O389 C351 1.283 . S
O389 Eu357 2.357 1_554 S
O390 C352 1.283 . S
O390 Eu358 2.352 1_556 S
O391 C350 1.283 . S
O391 Eu358 2.374 . S
H392 C398 0.930 . S
H393 C401 0.930 . S
H394 C402 0.930 . S
H395 C403 0.930 . S
H396 C406 0.930 . S
H397 C407 0.930 . S
C398 H392 0.930 . S
C398 C399 1.355 1_655 S
C398 C400 1.415 1_655 S
C399 C398 1.355 1_455 S
C399 C401 1.419 . S
C400 C398 1.415 1_455 S
C400 C405 1.425 . S
C400 C407 1.409 1_455 S
C401 H393 0.930 . S
C401 C399 1.419 . S
C401 C402 1.362 . S
C402 H394 0.930 . S
C402 C401 1.362 . S
C402 C405 1.409 . S
C403 H395 0.930 . S
C403 C404 1.355 . S
C403 C405 1.415 . S
C404 C403 1.355 . S
C404 C406 1.419 1_455 S
C405 C400 1.425 . S
C405 C402 1.409 . S
C405 C403 1.415 . S
C406 H396 0.930 . S
C406 C404 1.419 1_655 S
C406 C407 1.362 . S
C407 H397 0.930 . S
C407 C400 1.409 1_655 S
C407 C406 1.362 . S
H408 C414 0.938 . S
H409 C417 0.930 . S
H410 C418 0.930 . S
H411 C419 0.930 . S
H412 C422 0.930 . S
H413 C423 0.930 . S
C414 H408 0.938 . S
C414 C415 1.349 1_565 S
C414 C416 1.413 1_565 S
C415 C414 1.349 1_545 S
C415 C417 1.419 . S
C416 C414 1.413 1_545 S
C416 C421 1.425 . S
C416 C423 1.409 1_545 S
C417 H409 0.930 . S
C417 C415 1.419 . S
C417 C418 1.362 . S
C418 H410 0.930 . S
C418 C417 1.362 . S
C418 C421 1.409 . S
C419 H411 0.930 . S
C419 C420 1.355 . S
C419 C421 1.415 . S
C420 C419 1.355 . S
C420 C422 1.419 1_545 S
C421 C416 1.425 . S
C421 C418 1.409 . S
C421 C419 1.415 . S
C422 H412 0.930 . S
C422 C420 1.419 1_565 S
C422 C423 1.362 . S
C423 H413 0.930 . S
C423 C416 1.409 1_565 S
C423 C422 1.362 . S
H424 C430 0.930 . S
H425 C433 0.930 . S
H426 C434 0.930 . S
H427 C435 0.930 . S
H428 C438 0.930 . S
H429 C439 0.930 . S
C430 H424 0.930 . S
C430 C431 1.355 . S
C430 C432 1.415 . S
C431 C430 1.355 . S
C431 C433 1.419 1_455 S
C432 C430 1.415 . S
C432 C437 1.425 . S
C432 C439 1.409 . S
C433 H425 0.930 . S
C433 C431 1.419 1_655 S
C433 C434 1.362 . S
C434 H426 0.930 . S
C434 C433 1.362 . S
C434 C437 1.409 1_655 S
C435 H427 0.930 . S
C435 C436 1.355 1_655 S
C435 C437 1.415 1_655 S
C436 C435 1.355 1_455 S
C436 C438 1.419 . S
C437 C432 1.425 . S
C437 C434 1.409 1_455 S
C437 C435 1.415 1_455 S
C438 H428 0.930 . S
C438 C436 1.419 . S
C438 C439 1.362 . S
C439 H429 0.930 . S
C439 C432 1.409 . S
C439 C438 1.362 . S
H440 C446 0.930 . S
H441 C449 0.930 . S
H442 C450 0.930 1_565 S
H443 C451 0.930 . S
H444 C454 0.930 . S
H445 C455 0.930 . S
C446 H440 0.930 . S
C446 C447 1.355 . S
C446 C448 1.415 . S
C447 C446 1.355 . S
C447 C449 1.419 . S
C448 C446 1.415 . S
C448 C453 1.425 . S
C448 C455 1.409 . S
C449 H441 0.930 . S
C449 C447 1.419 . S
C449 C450 1.362 . S
C450 H442 0.930 1_545 S
C450 C449 1.362 . S
C450 C453 1.409 . S
C451 H443 0.930 . S
C451 C452 1.355 . S
C451 C453 1.415 . S
C452 C451 1.355 . S
C452 C454 1.419 . S
C453 C448 1.425 . S
C453 C450 1.409 . S
C453 C451 1.415 . S
C454 H444 0.930 . S
C454 C452 1.419 . S
C454 C455 1.362 . S
C455 H445 0.930 . S
C455 C448 1.409 . S
C455 C454 1.362 . S
H456 C462 0.930 . S
H457 C465 0.930 . S
H458 C466 0.930 . S
H459 C467 0.930 . S
H460 C470 0.930 . S
H461 C471 0.930 . S
C462 H456 0.930 . S
C462 C463 1.355 . S
C462 C464 1.415 . S
C463 C462 1.355 . S
C463 C465 1.419 1_455 S
C464 C462 1.415 . S
C464 C469 1.437 . S
C464 C471 1.409 . S
C465 H457 0.930 . S
C465 C463 1.419 1_655 S
C465 C466 1.362 . S
C466 H458 0.930 . S
C466 C465 1.362 . S
C466 C469 1.400 1_655 S
C467 H459 0.930 . S
C467 C468 1.355 1_655 S
C467 C469 1.413 1_655 S
C468 C467 1.355 1_455 S
C468 C470 1.419 . S
C469 C464 1.437 . S
C469 C466 1.400 1_455 S
C469 C467 1.413 1_455 S
C470 H460 0.930 . S
C470 C468 1.419 . S
C470 C471 1.362 . S
C471 H461 0.930 . S
C471 C464 1.409 . S
C471 C470 1.362 . S
H472 C478 0.930 . S
H473 C481 0.930 . S
H474 C482 0.930 . S
H475 C483 0.930 . S
H476 C486 0.930 . S
H477 C487 0.930 . S
C478 H472 0.930 . S
C478 C479 1.355 . S
C478 C480 1.415 . S
C479 C478 1.355 . S
C479 C481 1.419 1_545 S
C480 C478 1.415 . S
C480 C485 1.425 1_545 S
C480 C487 1.409 . S
C481 H473 0.930 . S
C481 C479 1.419 1_565 S
C481 C482 1.362 . S
C482 H474 0.930 . S
C482 C481 1.362 . S
C482 C485 1.409 . S
C483 H475 0.930 . S
C483 C484 1.355 1_565 S
C483 C485 1.415 . S
C484 C483 1.355 1_545 S
C484 C486 1.419 . S
C485 C480 1.425 1_565 S
C485 C482 1.409 . S
C485 C483 1.415 . S
C486 H476 0.930 . S
C486 C484 1.419 . S
C486 C487 1.362 . S
C487 H477 0.930 . S
C487 C480 1.409 . S
C487 C486 1.362 . S
H488 C494 0.930 . S
H489 C497 0.930 . S
H490 C498 0.930 . S
H491 C499 0.930 . S
H492 C502 0.930 1_655 S
H493 C503 0.930 1_655 S
C494 H488 0.930 . S
C494 C495 1.355 . S
C494 C496 1.415 . S
C495 C494 1.355 . S
C495 C497 1.419 . S
C496 C494 1.415 . S
C496 C501 1.425 . S
C496 C503 1.409 . S
C497 H489 0.930 . S
C497 C495 1.419 . S
C497 C498 1.362 . S
C498 H490 0.930 . S
C498 C497 1.362 . S
C498 C501 1.409 . S
C499 H491 0.930 . S
C499 C500 1.355 . S
C499 C501 1.415 . S
C500 C499 1.355 . S
C500 C502 1.419 . S
C501 C496 1.425 . S
C501 C498 1.409 . S
C501 C499 1.415 . S
C502 H492 0.930 1_455 S
C502 C500 1.419 . S
C502 C503 1.362 . S
C503 H493 0.930 1_455 S
C503 C496 1.409 . S
C503 C502 1.362 . S
H504 C510 0.930 . S
H505 C513 0.930 1_565 S
H506 C514 0.930 . S
H507 C515 0.930 1_565 S
H508 C518 0.930 . S
H509 C519 0.930 . S
C510 H504 0.930 . S
C510 C511 1.355 . S
C510 C512 1.415 . S
C511 C510 1.355 . S
C511 C513 1.419 . S
C512 C510 1.415 . S
C512 C517 1.425 . S
C512 C519 1.409 . S
C513 H505 0.930 1_545 S
C513 C511 1.419 . S
C513 C514 1.362 1_545 S
C514 H506 0.930 . S
C514 C513 1.362 1_565 S
C514 C517 1.409 1_565 S
C515 H507 0.930 1_545 S
C515 C516 1.355 . S
C515 C517 1.415 . S
C516 C515 1.355 . S
C516 C518 1.419 . S
C517 C512 1.425 . S
C517 C514 1.409 1_545 S
C517 C515 1.415 . S
C518 H508 0.930 . S
C518 C516 1.419 . S
C518 C519 1.362 . S
C519 H509 0.930 . S
C519 C512 1.409 . S
C519 C518 1.362 . S
H520 C526 0.930 . S
H521 C529 0.930 . S
H522 C530 0.930 . S
H523 C531 0.930 . S
H524 C534 0.930 . S
H525 C535 0.930 . S
C526 H520 0.930 . S
C526 C527 1.355 . S
C526 C528 1.415 . S
C527 C526 1.355 . S
C527 C529 1.419 . S
C528 C526 1.415 . S
C528 C533 1.425 . S
C528 C535 1.409 1_556 S
C529 H521 0.930 . S
C529 C527 1.419 . S
C529 C530 1.362 . S
C530 H522 0.930 . S
C530 C529 1.362 . S
C530 C533 1.409 . S
C531 H523 0.930 . S
C531 C532 1.353 1_556 S
C531 C533 1.415 . S
C532 C531 1.353 1_554 S
C532 C534 1.420 . S
C533 C528 1.425 . S
C533 C530 1.409 . S
C533 C531 1.415 . S
C534 H524 0.930 . S
C534 C532 1.420 . S
C534 C535 1.362 . S
C535 H525 0.930 . S
C535 C528 1.409 1_554 S
C535 C534 1.362 . S
H536 C542 0.933 . S
H537 C545 0.930 . S
H538 C546 0.930 . S
H539 C547 0.930 . S
H540 C550 0.930 . S
H541 C551 0.930 . S
C542 H536 0.933 . S
C542 C543 1.351 1_556 S
C542 C544 1.415 1_556 S
C543 C542 1.351 1_554 S
C543 C545 1.419 . S
C544 C542 1.415 1_554 S
C544 C549 1.425 . S
C544 C551 1.409 1_554 S
C545 H537 0.930 . S
C545 C543 1.419 . S
C545 C546 1.362 . S
C546 H538 0.930 . S
C546 C545 1.362 . S
C546 C549 1.409 . S
C547 H539 0.930 . S
C547 C548 1.355 . S
C547 C549 1.415 . S
C548 C547 1.355 . S
C548 C550 1.419 1_554 S
C549 C544 1.425 . S
C549 C546 1.409 . S
C549 C547 1.415 . S
C550 H540 0.930 . S
C550 C548 1.419 1_556 S
C550 C551 1.362 . S
C551 H541 0.930 . S
C551 C544 1.409 1_556 S
C551 C550 1.362 . S
H552 C558 0.930 . S
H553 C561 0.930 . S
H554 C562 0.930 . S
H555 C563 0.930 . S
H556 C566 0.930 . S
H557 C567 0.930 . S
C558 H552 0.930 . S
C558 C559 1.355 1_556 S
C558 C560 1.415 . S
C559 C558 1.355 1_554 S
C559 C561 1.419 . S
C560 C558 1.415 . S
C560 C565 1.425 1_556 S
C560 C567 1.409 . S
C561 H553 0.930 . S
C561 C559 1.419 . S
C561 C562 1.362 . S
C562 H554 0.930 . S
C562 C561 1.362 . S
C562 C565 1.409 . S
C563 H555 0.930 . S
C563 C564 1.355 . S
C563 C565 1.415 . S
C564 C563 1.355 . S
C564 C566 1.419 1_554 S
C565 C560 1.425 1_554 S
C565 C562 1.409 . S
C565 C563 1.415 . S
C566 H556 0.930 . S
C566 C564 1.419 1_556 S
C566 C567 1.362 . S
C567 H557 0.930 . S
C567 C560 1.409 . S
C567 C566 1.362 . S
H568 C574 0.930 . S
H569 C577 0.928 1_554 S
H570 C578 0.930 . S
H571 C579 0.930 . S
H572 C582 0.930 . S
H573 C583 0.930 . S
C574 H568 0.930 . S
C574 C575 1.355 . S
C574 C576 1.415 . S
C575 C574 1.355 . S
C575 C577 1.423 . S
C576 C574 1.415 . S
C576 C581 1.427 . S
C576 C583 1.409 . S
C577 H569 0.928 1_556 S
C577 C575 1.423 . S
C577 C578 1.361 1_556 S
C578 H570 0.930 . S
C578 C577 1.361 1_554 S
C578 C581 1.408 1_554 S
C579 H571 0.930 . S
C579 C580 1.355 1_554 S
C579 C581 1.414 1_554 S
C580 C579 1.355 1_556 S
C580 C582 1.419 . S
C581 C576 1.427 . S
C581 C578 1.408 1_556 S
C581 C579 1.414 1_556 S
C582 H572 0.930 . S
C582 C580 1.419 . S
C582 C583 1.362 . S
C583 H573 0.930 . S
C583 C576 1.409 . S
C583 C582 1.362 . S
C404 C343 1.504 . S
C399 C11 0.876 1_455 S
C420 C350 1.478 . S
C415 C143 1.203 . S
C436 C345 1.278 . S
C431 C1 1.083 . S
C452 C351 1.597 . S
C447 C169 1.211 . S
C463 C29 1.215 . S
C468 C344 1.393 . S
C484 C353 1.593 . S
C479 C125 0.907 1_545 S
C495 C55 1.158 . S
C500 C342 1.525 . S
C511 C115 1.136 . S
C516 C352 1.362 . S
C527 C283 1.270 1_556 S
C532 C347 1.697 . S
C543 C239 0.911 . S
C548 C346 1.676 1_554 S
C564 C349 1.563 . S
C559 C257 1.331 1_554 S
C580 C348 1.452 1_556 S
C575 C229 1.170 . S
