# Generated by pormake.
# Topology ctn, (3,4)-cn, num edge types: 1
# Building blocks:
#     Node 0, Type 0, BuildingBlock: BETDAH_clean_linker_0, # of connection points: 3
#     Node 1, Type 0, BuildingBlock: BETDAH_clean_linker_0, # of connection points: 3
#     Node 2, Type 0, BuildingBlock: BETDAH_clean_linker_0, # of connection points: 3
#     Node 3, Type 0, BuildingBlock: BETDAH_clean_linker_0, # of connection points: 3
#     Node 4, Type 0, BuildingBlock: BETDAH_clean_linker_0, # of connection points: 3
#     Node 5, Type 0, BuildingBlock: BETDAH_clean_linker_0, # of connection points: 3
#     Node 6, Type 0, BuildingBlock: BETDAH_clean_linker_0, # of connection points: 3
#     Node 7, Type 0, BuildingBlock: BETDAH_clean_linker_0, # of connection points: 3
#     Node 8, Type 0, BuildingBlock: BETDAH_clean_linker_0, # of connection points: 3
#     Node 9, Type 0, BuildingBlock: BETDAH_clean_linker_0, # of connection points: 3
#     Node 10, Type 0, BuildingBlock: BETDAH_clean_linker_0, # of connection points: 3
#     Node 11, Type 0, BuildingBlock: BETDAH_clean_linker_0, # of connection points: 3
#     Node 12, Type 0, BuildingBlock: BETDAH_clean_linker_0, # of connection points: 3
#     Node 13, Type 0, BuildingBlock: BETDAH_clean_linker_0, # of connection points: 3
#     Node 14, Type 0, BuildingBlock: BETDAH_clean_linker_0, # of connection points: 3
#     Node 15, Type 0, BuildingBlock: BETDAH_clean_linker_0, # of connection points: 3
#     Node 16, Type 1, BuildingBlock: UXUYUI_clean_sbu_0, # of connection points: 4
#     Node 17, Type 1, BuildingBlock: UXUYUI_clean_sbu_0, # of connection points: 4
#     Node 18, Type 1, BuildingBlock: UXUYUI_clean_sbu_0, # of connection points: 4
#     Node 19, Type 1, BuildingBlock: UXUYUI_clean_sbu_0, # of connection points: 4
#     Node 20, Type 1, BuildingBlock: UXUYUI_clean_sbu_0, # of connection points: 4
#     Node 21, Type 1, BuildingBlock: UXUYUI_clean_sbu_0, # of connection points: 4
#     Node 22, Type 1, BuildingBlock: UXUYUI_clean_sbu_0, # of connection points: 4
#     Node 23, Type 1, BuildingBlock: UXUYUI_clean_sbu_0, # of connection points: 4
#     Node 24, Type 1, BuildingBlock: UXUYUI_clean_sbu_0, # of connection points: 4
#     Node 25, Type 1, BuildingBlock: UXUYUI_clean_sbu_0, # of connection points: 4
#     Node 26, Type 1, BuildingBlock: UXUYUI_clean_sbu_0, # of connection points: 4
#     Node 27, Type 1, BuildingBlock: UXUYUI_clean_sbu_0, # of connection points: 4
#     Edge 28, Type (0, 1), BuildingBlock: ZUJKAS_clean_linker_0, # of connection points: 2
#     Edge 29, Type (0, 1), BuildingBlock: ZUJKAS_clean_linker_0, # of connection points: 2
#     Edge 30, Type (0, 1), BuildingBlock: ZUJKAS_clean_linker_0, # of connection points: 2
#     Edge 31, Type (0, 1), BuildingBlock: ZUJKAS_clean_linker_0, # of connection points: 2
#     Edge 32, Type (0, 1), BuildingBlock: ZUJKAS_clean_linker_0, # of connection points: 2
#     Edge 33, Type (0, 1), BuildingBlock: ZUJKAS_clean_linker_0, # of connection points: 2
#     Edge 34, Type (0, 1), BuildingBlock: ZUJKAS_clean_linker_0, # of connection points: 2
#     Edge 35, Type (0, 1), BuildingBlock: ZUJKAS_clean_linker_0, # of connection points: 2
#     Edge 36, Type (0, 1), BuildingBlock: ZUJKAS_clean_linker_0, # of connection points: 2
#     Edge 37, Type (0, 1), BuildingBlock: ZUJKAS_clean_linker_0, # of connection points: 2
#     Edge 38, Type (0, 1), BuildingBlock: ZUJKAS_clean_linker_0, # of connection points: 2
#     Edge 39, Type (0, 1), BuildingBlock: ZUJKAS_clean_linker_0, # of connection points: 2
#     Edge 40, Type (0, 1), BuildingBlock: ZUJKAS_clean_linker_0, # of connection points: 2
#     Edge 41, Type (0, 1), BuildingBlock: ZUJKAS_clean_linker_0, # of connection points: 2
#     Edge 42, Type (0, 1), BuildingBlock: ZUJKAS_clean_linker_0, # of connection points: 2
#     Edge 43, Type (0, 1), BuildingBlock: ZUJKAS_clean_linker_0, # of connection points: 2
#     Edge 44, Type (0, 1), BuildingBlock: ZUJKAS_clean_linker_0, # of connection points: 2
#     Edge 45, Type (0, 1), BuildingBlock: ZUJKAS_clean_linker_0, # of connection points: 2
#     Edge 46, Type (0, 1), BuildingBlock: ZUJKAS_clean_linker_0, # of connection points: 2
#     Edge 47, Type (0, 1), BuildingBlock: ZUJKAS_clean_linker_0, # of connection points: 2
#     Edge 48, Type (0, 1), BuildingBlock: ZUJKAS_clean_linker_0, # of connection points: 2
#     Edge 49, Type (0, 1), BuildingBlock: ZUJKAS_clean_linker_0, # of connection points: 2
#     Edge 50, Type (0, 1), BuildingBlock: ZUJKAS_clean_linker_0, # of connection points: 2
#     Edge 51, Type (0, 1), BuildingBlock: ZUJKAS_clean_linker_0, # of connection points: 2
#     Edge 52, Type (0, 1), BuildingBlock: ZUJKAS_clean_linker_0, # of connection points: 2
#     Edge 53, Type (0, 1), BuildingBlock: ZUJKAS_clean_linker_0, # of connection points: 2
#     Edge 54, Type (0, 1), BuildingBlock: ZUJKAS_clean_linker_0, # of connection points: 2
#     Edge 55, Type (0, 1), BuildingBlock: ZUJKAS_clean_linker_0, # of connection points: 2
#     Edge 56, Type (0, 1), BuildingBlock: ZUJKAS_clean_linker_0, # of connection points: 2
#     Edge 57, Type (0, 1), BuildingBlock: ZUJKAS_clean_linker_0, # of connection points: 2
#     Edge 58, Type (0, 1), BuildingBlock: ZUJKAS_clean_linker_0, # of connection points: 2
#     Edge 59, Type (0, 1), BuildingBlock: ZUJKAS_clean_linker_0, # of connection points: 2
#     Edge 60, Type (0, 1), BuildingBlock: ZUJKAS_clean_linker_0, # of connection points: 2
#     Edge 61, Type (0, 1), BuildingBlock: ZUJKAS_clean_linker_0, # of connection points: 2
#     Edge 62, Type (0, 1), BuildingBlock: ZUJKAS_clean_linker_0, # of connection points: 2
#     Edge 63, Type (0, 1), BuildingBlock: ZUJKAS_clean_linker_0, # of connection points: 2
#     Edge 64, Type (0, 1), BuildingBlock: ZUJKAS_clean_linker_0, # of connection points: 2
#     Edge 65, Type (0, 1), BuildingBlock: ZUJKAS_clean_linker_0, # of connection points: 2
#     Edge 66, Type (0, 1), BuildingBlock: ZUJKAS_clean_linker_0, # of connection points: 2
#     Edge 67, Type (0, 1), BuildingBlock: ZUJKAS_clean_linker_0, # of connection points: 2
#     Edge 68, Type (0, 1), BuildingBlock: ZUJKAS_clean_linker_0, # of connection points: 2
#     Edge 69, Type (0, 1), BuildingBlock: ZUJKAS_clean_linker_0, # of connection points: 2
#     Edge 70, Type (0, 1), BuildingBlock: ZUJKAS_clean_linker_0, # of connection points: 2
#     Edge 71, Type (0, 1), BuildingBlock: ZUJKAS_clean_linker_0, # of connection points: 2
#     Edge 72, Type (0, 1), BuildingBlock: ZUJKAS_clean_linker_0, # of connection points: 2
#     Edge 73, Type (0, 1), BuildingBlock: ZUJKAS_clean_linker_0, # of connection points: 2
#     Edge 74, Type (0, 1), BuildingBlock: ZUJKAS_clean_linker_0, # of connection points: 2
#     Edge 75, Type (0, 1), BuildingBlock: ZUJKAS_clean_linker_0, # of connection points: 2
# Relax obj value: 0.050
# Max RMSD: 0.166
# Mean RMSD: 0.106
data_MOF--net-ctn--node1-UXUYUI_clean_sbu_0--node2-BETDAH_clean_linker_0--edge1-ZUJKAS_clean_linker_0
_symmetry_space_group_name_H-M    P1
_symmetry_Int_Tables_number       1
_symmetry_cell_setting            triclinic
loop_
_symmetry_equiv_pos_as_xyz
'x, y, z'
_cell_length_a     83.475161
_cell_length_b     83.460206
_cell_length_c     84.529082
_cell_angle_alpha  97.893071
_cell_angle_beta   90.367357
_cell_angle_gamma 94.337803
loop_
_atom_site_label
_atom_site_type_symbol
_atom_site_fract_x
_atom_site_fract_y
_atom_site_fract_z
_atom_type_partial_charge
H0 H 0.07211 0.02832 0.08457 0.0
H1 H 0.07086 0.03338 0.03451 0.0
H2 H 0.0323 0.0491 0.06446 0.0
C3 C 0.06635 0.03238 0.07448 0.0
C4 C 0.05154 0.03937 0.07655 0.0
C5 C 0.07346 0.03008 0.05936 0.0
C6 C 0.06572 0.0352 0.0463 0.0
C7 C 0.05105 0.04226 0.04826 0.0
C8 C 0.04399 0.04426 0.06329 0.0
N9 N 0.04236 0.04544 0.03477 0.0
C10 C 0.04514 0.05974 0.02821 0.0
H11 H 0.31477 0.69719 0.25041 0.0
H12 H 0.3194 0.74056 0.22779 0.0
H13 H 0.27589 0.70933 0.22185 0.0
C14 C 0.30994 0.70505 0.24268 0.0
C15 C 0.2943 0.70137 0.23638 0.0
C16 C 0.31915 0.71915 0.23969 0.0
C17 C 0.31248 0.72966 0.23015 0.0
C18 C 0.29679 0.72605 0.2238 0.0
C19 C 0.28788 0.71202 0.227 0.0
N20 N 0.28916 0.73625 0.21448 0.0
C21 C 0.29657 0.74869 0.20714 0.0
H22 H 0.01167 0.45381 0.05072 0.0
H23 H 0.99025 0.49962 0.05582 0.0
H24 H 0.98285 0.46626 0.01255 0.0
C25 C 0.0044 0.46227 0.04587 0.0
C26 C 0.99735 0.45801 0.03061 0.0
C27 C 1.00208 0.4773 0.05504 0.0
C28 C 0.99198 0.48793 0.049 0.0
C29 C 0.98504 0.48383 0.03362 0.0
C30 C 0.98793 0.46905 0.02453 0.0
N31 N 0.9761 0.49467 0.02629 0.0
C32 C 0.96614 0.50568 0.03413 0.0
H33 H 0.76832 0.81353 0.2052 0.0
H34 H 0.72783 0.78895 0.22558 0.0
H35 H 0.74824 0.83486 0.24909 0.0
C36 C 0.75969 0.81292 0.21465 0.0
C37 C 0.75978 0.82579 0.22724 0.0
C38 C 0.74821 0.79954 0.21389 0.0
C39 C 0.73665 0.7992 0.22597 0.0
C40 C 0.73669 0.81207 0.23862 0.0
C41 C 0.74821 0.82518 0.23913 0.0
N42 N 0.72544 0.81246 0.25115 0.0
C43 C 0.7137 0.80027 0.25328 0.0
H44 H 0.06983 0.99495 0.46711 0.0
H45 H 0.07207 0.96762 0.50665 0.0
H46 H 0.02956 0.96277 0.4769 0.0
C47 C 0.06439 0.98603 0.47405 0.0
C48 C 0.04868 0.97933 0.47026 0.0
C49 C 0.07295 0.98189 0.4871 0.0
C50 C 0.06559 0.97083 0.49654 0.0
C51 C 0.04987 0.96395 0.49277 0.0
C52 C 0.04159 0.96828 0.47973 0.0
N53 N 0.04169 0.95278 0.50176 0.0
C54 C 0.04824 0.94547 0.51385 0.0
H55 H 0.26048 0.71627 0.83386 0.0
H56 H 0.21696 0.73037 0.81378 0.0
H57 H 0.24061 0.69017 0.78983 0.0
C58 C 0.2513 0.71455 0.82452 0.0
C59 C 0.25222 0.70204 0.81169 0.0
C60 C 0.23863 0.72484 0.8254 0.0
C61 C 0.22671 0.72245 0.81325 0.0
C62 C 0.22754 0.70997 0.80034 0.0
C63 C 0.24024 0.6999 0.7997 0.0
N64 N 0.21591 0.70699 0.78774 0.0
C65 C 0.20294 0.71615 0.78597 0.0
H66 H 0.958 0.55247 0.50879 0.0
H67 H 0.00574 0.55437 0.48961 0.0
H68 H 0.97484 0.51064 0.4801 0.0
C69 C 0.96731 0.5467 0.50175 0.0
C70 C 0.96437 0.53059 0.49438 0.0
C71 C 0.98222 0.55542 0.50027 0.0
C72 C 0.99404 0.54804 0.49058 0.0
C73 C 0.99124 0.53193 0.48322 0.0
C74 C 0.97656 0.52327 0.48531 0.0
N75 N 0.00372 0.52347 0.47551 0.0
C76 C 0.01149 0.52793 0.46213 0.0
H77 H 0.82158 0.76588 0.81195 0.0
H78 H 0.7997 0.80242 0.78948 0.0
H79 H 0.77666 0.78314 0.82876 0.0
C80 C 0.8119 0.77368 0.8111 0.0
C81 C 0.79904 0.77306 0.82172 0.0
C82 C 0.81231 0.78419 0.79934 0.0
C83 C 0.79969 0.79442 0.79855 0.0
C84 C 0.78681 0.79394 0.80917 0.0
C85 C 0.78658 0.78325 0.82056 0.0
N86 N 0.77364 0.80373 0.80878 0.0
C87 C 0.77247 0.8164 0.79982 0.0
H88 H 0.32566 0.2643 0.31329 0.0
H89 H 0.30535 0.30416 0.29476 0.0
H90 H 0.28609 0.28701 0.33685 0.0
C91 C 0.3168 0.2732 0.31381 0.0
C92 C 0.30581 0.27423 0.32636 0.0
C93 C 0.31692 0.28408 0.30241 0.0
C94 C 0.30551 0.29583 0.30351 0.0
C95 C 0.29438 0.29683 0.31597 0.0
C96 C 0.29475 0.28614 0.32732 0.0
N97 N 0.28276 0.30849 0.31783 0.0
C98 C 0.2789 0.31858 0.30681 0.0
H99 H 0.507 0.95038 0.5528 0.0
H100 H 0.48734 0.99713 0.55762 0.0
H101 H 0.48204 0.96514 0.51328 0.0
C102 C 0.50033 0.95923 0.54786 0.0
C103 C 0.49447 0.95573 0.53207 0.0
C104 C 0.49793 0.97415 0.55723 0.0
C105 C 0.48926 0.98558 0.55061 0.0
C106 C 0.48346 0.98219 0.53474 0.0
C107 C 0.48625 0.96742 0.5256 0.0
N108 N 0.47553 0.99357 0.52713 0.0
C109 C 0.4664 0.00552 0.5347 0.0
H110 H 0.26919 0.3082 0.71017 0.0
H111 H 0.228 0.28331 0.72909 0.0
H112 H 0.25057 0.32675 0.75577 0.0
C113 C 0.26052 0.30726 0.71955 0.0
C114 C 0.26138 0.31902 0.73315 0.0
C115 C 0.24856 0.29427 0.718 0.0
C116 C 0.23719 0.29329 0.73016 0.0
C117 C 0.23806 0.30502 0.74386 0.0
C118 C 0.25015 0.31768 0.74525 0.0
N119 N 0.2272 0.30462 0.75667 0.0
C120 C 0.21375 0.29384 0.75708 0.0
H121 H 0.81299 0.20046 0.74515 0.0
H122 H 0.82519 0.25077 0.74174 0.0
H123 H 0.78355 0.22615 0.71658 0.0
C124 C 0.81069 0.21136 0.74014 0.0
C125 C 0.79707 0.21146 0.73025 0.0
C126 C 0.82093 0.22544 0.74436 0.0
C127 C 0.81742 0.23978 0.73859 0.0
C128 C 0.80421 0.24006 0.72838 0.0
C129 C 0.79399 0.22588 0.7242 0.0
N130 N 0.8013 0.25505 0.72318 0.0
C131 C 0.79356 0.25675 0.70897 0.0
H132 H 0.56725 0.52948 0.58301 0.0
H133 H 0.56811 0.54784 0.53765 0.0
H134 H 0.52801 0.55494 0.56864 0.0
C135 C 0.56195 0.53622 0.5745 0.0
C136 C 0.54693 0.54232 0.57777 0.0
C137 C 0.56971 0.53795 0.55999 0.0
C138 C 0.56234 0.54636 0.54886 0.0
C139 C 0.54724 0.55242 0.55205 0.0
C140 C 0.53963 0.55019 0.56634 0.0
N141 N 0.53884 0.56004 0.54089 0.0
C142 C 0.54587 0.56906 0.52976 0.0
H143 H 0.56729 0.49457 0.96709 0.0
H144 H 0.5704 0.47052 0.00887 0.0
H145 H 0.526 0.46701 0.98218 0.0
C146 C 0.56179 0.48693 0.97525 0.0
C147 C 0.54563 0.48106 0.97284 0.0
C148 C 0.57085 0.48329 0.98822 0.0
C149 C 0.56358 0.47336 0.9988 0.0
C150 C 0.54738 0.46737 0.99645 0.0
C151 C 0.53855 0.47139 0.98362 0.0
N152 N 0.53922 0.45779 0.00698 0.0
C153 C 0.54639 0.4489 0.01745 0.0
H154 H 0.75741 0.2129 0.33573 0.0
H155 H 0.71535 0.2278 0.31373 0.0
H156 H 0.73868 0.18676 0.29121 0.0
C157 C 0.74876 0.21138 0.32592 0.0
C158 C 0.74971 0.19851 0.31345 0.0
C159 C 0.73643 0.22203 0.32615 0.0
C160 C 0.72484 0.21964 0.31369 0.0
C161 C 0.72567 0.2068 0.30113 0.0
C162 C 0.73805 0.1964 0.30112 0.0
N163 N 0.71435 0.2038 0.28826 0.0
C164 C 0.70234 0.21374 0.28538 0.0
H165 H 0.4591 0.05676 1.00155 0.0
H166 H 0.50418 0.05879 0.97699 0.0
H167 H 0.47384 0.01449 0.972 0.0
C168 C 0.46768 0.05099 0.99352 0.0
C169 C 0.46444 0.03467 0.98689 0.0
C170 C 0.48203 0.05981 0.9902 0.0
C171 C 0.49307 0.05219 0.97967 0.0
C172 C 0.48995 0.03585 0.97302 0.0
C173 C 0.47584 0.0272 0.97686 0.0
N174 N 0.50107 0.02734 0.96313 0.0
C175 C 0.51155 0.0342 0.95277 0.0
Li176 Li 0.27994 0.89784 0.02835 0.0
Li177 Li 0.26843 0.87835 0.04471 0.0
Li178 Li 0.26201 0.8761 0.01568 0.0
Li179 Li 0.25085 0.89762 0.03401 0.0
C180 C 0.29873 0.87276 0.02334 0.0
N181 N 0.33102 0.87025 0.01736 0.0
C182 C 0.30882 0.868 0.03482 0.0
C183 C 0.30505 0.87608 0.00876 0.0
C184 C 0.32512 0.86684 0.03158 0.0
C185 C 0.32141 0.8748 0.00598 0.0
C186 C 0.28054 0.9111 0.05989 0.0
C187 C 0.29069 0.93631 0.07539 0.0
N188 N 0.3033 0.92882 0.08046 0.0
C189 C 0.29359 0.90366 0.06528 0.0
C190 C 0.27906 0.92756 0.06501 0.0
C191 C 0.30497 0.91282 0.07566 0.0
C192 C 0.29633 0.9242 0.01617 0.0
N193 N 0.29838 0.91236 0.02541 0.0
C194 C 0.32613 0.92149 0.02972 0.0
C195 C 0.31289 0.91099 0.03232 0.0
C196 C 0.32442 0.93369 0.02008 0.0
C197 C 0.30923 0.93507 0.01337 0.0
H198 H 0.28466 0.92517 0.01093 0.0
H199 H 0.3143 0.90171 0.03981 0.0
C200 C 0.27572 0.85072 0.0582 0.0
N201 N 0.27174 0.86625 0.06194 0.0
C202 C 0.27926 0.84158 0.07026 0.0
C203 C 0.27405 0.86444 0.08985 0.0
C204 C 0.27057 0.87312 0.0774 0.0
C205 C 0.27866 0.84848 0.08637 0.0
H206 H 0.27641 0.84551 0.0458 0.0
H207 H 0.26724 0.88546 0.08007 0.0
C208 C 0.25694 0.89942 0.99831 0.0
N209 N 0.24681 0.89833 0.96697 0.0
C210 C 0.24078 0.90083 0.99474 0.0
C211 C 0.26799 0.89767 0.98596 0.0
C212 C 0.23589 0.9002 0.97882 0.0
C213 C 0.26262 0.89707 0.97018 0.0
C214 C 0.23558 0.86975 0.04434 0.0
C215 C 0.22503 0.85588 0.04088 0.0
C216 C 0.23468 0.87964 0.05902 0.0
C217 C 0.21371 0.85212 0.05217 0.0
C218 C 0.2232 0.87546 0.07 0.0
N219 N 0.21304 0.8619 0.06638 0.0
C220 C 0.26908 0.85221 0.98998 0.0
C221 C 0.24232 0.85978 0.98987 0.0
C222 C 0.26621 0.84172 0.97573 0.0
N223 N 0.25728 0.86116 0.99661 0.0
C224 C 0.23892 0.84949 0.97555 0.0
C225 C 0.25101 0.84036 0.96819 0.0
H226 H 0.28074 0.85315 0.99574 0.0
H227 H 0.23305 0.86683 0.99554 0.0
C228 C 0.23631 0.92704 0.04115 0.0
N229 N 0.23304 0.91073 0.03764 0.0
C230 C 0.22383 0.93733 0.04344 0.0
C231 C 0.20478 0.91389 0.03806 0.0
C232 C 0.21764 0.90405 0.03593 0.0
C233 C 0.20779 0.93079 0.04189 0.0
H234 H 0.24863 0.93208 0.04187 0.0
H235 H 0.21531 0.8911 0.0327 0.0
O236 O 0.28274 0.87399 0.02631 0.0
O237 O 0.26931 0.90234 0.04965 0.0
O238 O 0.26192 0.89973 0.0138 0.0
O239 O 0.24677 0.8735 0.03341 0.0
H240 H 0.30418 0.86534 0.04616 0.0
H241 H 0.29742 0.87973 0.99973 0.0
H242 H 0.33307 0.86325 0.04039 0.0
H243 H 0.32646 0.87744 0.99479 0.0
H244 H 0.28968 0.94907 0.07944 0.0
H245 H 0.29508 0.89101 0.0613 0.0
H246 H 0.26903 0.93355 0.06105 0.0
H247 H 0.31516 0.9072 0.07984 0.0
H248 H 0.33757 0.92016 0.03532 0.0
H249 H 0.30741 0.94427 0.0058 0.0
H250 H 0.28242 0.82923 0.06698 0.0
H251 H 0.27351 0.87033 0.10206 0.0
H252 H 0.23207 0.90221 0.00415 0.0
H253 H 0.28057 0.89677 0.98852 0.0
H254 H 0.2234 0.90116 0.97588 0.0
H255 H 0.27103 0.89563 0.9605 0.0
H256 H 0.2256 0.8481 0.02957 0.0
H257 H 0.24271 0.89045 0.06191 0.0
H258 H 0.20546 0.84141 0.04965 0.0
H259 H 0.22236 0.88301 0.0814 0.0
H260 H 0.27578 0.83464 0.97076 0.0
H261 H 0.22705 0.84891 0.97018 0.0
H262 H 0.22672 0.9503 0.04604 0.0
H263 H 0.19262 0.90832 0.03678 0.0
Li264 Li 0.13396 0.50295 0.2731 0.0
Li265 Li 0.15198 0.48402 0.2589 0.0
Li266 Li 0.15507 0.51408 0.25747 0.0
Li267 Li 0.13275 0.49715 0.24303 0.0
C268 C 0.15896 0.5036 0.29239 0.0
N269 N 0.16077 0.50585 0.32528 0.0
C270 C 0.16044 0.4897 0.29964 0.0
C271 C 0.15856 0.51867 0.30185 0.0
C272 C 0.16131 0.49109 0.31629 0.0
C273 C 0.15943 0.51955 0.31846 0.0
C274 C 0.12112 0.46651 0.25534 0.0
C275 C 0.1145 0.44283 0.236 0.0
N276 N 0.10723 0.43526 0.2476 0.0
C277 C 0.11341 0.45856 0.26703 0.0
C278 C 0.12153 0.45865 0.23966 0.0
C279 C 0.10653 0.44274 0.26289 0.0
C280 C 0.11426 0.52121 0.29492 0.0
N281 N 0.1214 0.50702 0.29195 0.0
C282 C 0.11093 0.49862 0.31605 0.0
C283 C 0.11986 0.49576 0.30215 0.0
C284 C 0.1035 0.51324 0.31949 0.0
C285 C 0.10528 0.52462 0.30871 0.0
H286 H 0.11544 0.52988 0.28655 0.0
H287 H 0.12569 0.48459 0.29956 0.0
C288 C 0.17984 0.46727 0.25591 0.0
N289 N 0.16411 0.46554 0.25992 0.0
C290 C 0.18991 0.45483 0.25708 0.0
C291 C 0.16741 0.43892 0.26637 0.0
C292 C 0.15779 0.45171 0.26508 0.0
C293 C 0.18376 0.44042 0.26246 0.0
H294 H 0.1846 0.47844 0.25196 0.0
H295 H 0.14539 0.4507 0.26858 0.0
C296 C 0.13214 0.53419 0.25539 0.0
N297 N 0.13346 0.56658 0.25137 0.0
C298 C 0.12693 0.53873 0.24101 0.0
C299 C 0.13784 0.54615 0.26779 0.0
C300 C 0.12773 0.55517 0.2392 0.0
C301 C 0.13847 0.56244 0.26551 0.0
C302 C 0.16134 0.48917 0.22543 0.0
C303 C 0.16867 0.49924 0.21521 0.0
C304 C 0.15972 0.47239 0.22073 0.0
C305 C 0.17388 0.49239 0.2003 0.0
C306 C 0.1651 0.46601 0.20573 0.0
N307 N 0.17198 0.47606 0.1959 0.0
C308 C 0.18166 0.53644 0.26772 0.0
C309 C 0.16949 0.54025 0.24324 0.0
C310 C 0.19262 0.54983 0.26701 0.0
N311 N 0.17032 0.53202 0.256 0.0
C312 C 0.1801 0.55377 0.24211 0.0
C313 C 0.19182 0.55876 0.25413 0.0
H314 H 0.18213 0.52962 0.27768 0.0
H315 H 0.16047 0.53639 0.234 0.0
C316 C 0.10327 0.48946 0.22582 0.0
N317 N 0.11891 0.49493 0.22455 0.0
C318 C 0.09263 0.48853 0.21282 0.0
C319 C 0.11433 0.49903 0.19748 0.0
C320 C 0.12454 0.49975 0.21076 0.0
C321 C 0.0981 0.4934 0.19839 0.0
H322 H 0.09902 0.48594 0.237 0.0
H323 H 0.13684 0.50461 0.21019 0.0
O324 O 0.15779 0.50244 0.27612 0.0
O325 O 0.12791 0.48202 0.25921 0.0
O326 O 0.13167 0.51814 0.25729 0.0
O327 O 0.15629 0.4957 0.24014 0.0
H328 H 0.16076 0.47794 0.2925 0.0
H329 H 0.15747 0.52956 0.29644 0.0
H330 H 0.16237 0.48041 0.32206 0.0
H331 H 0.15903 0.53112 0.32594 0.0
H332 H 0.11476 0.43661 0.22391 0.0
H333 H 0.11281 0.46451 0.27918 0.0
H334 H 0.12702 0.46474 0.23036 0.0
H335 H 0.10062 0.43641 0.27185 0.0
H336 H 0.11001 0.48958 0.3241 0.0
H337 H 0.09957 0.53593 0.31076 0.0
H338 H 0.20239 0.45647 0.25381 0.0
H339 H 0.16221 0.42816 0.27082 0.0
H340 H 0.12238 0.52968 0.23133 0.0
H341 H 0.14192 0.54286 0.27899 0.0
H342 H 0.12382 0.55884 0.22811 0.0
H343 H 0.14299 0.5718 0.27496 0.0
H344 H 0.17024 0.51221 0.21871 0.0
H345 H 0.15456 0.46434 0.22862 0.0
H346 H 0.17945 0.50006 0.19223 0.0
H347 H 0.16388 0.45305 0.20195 0.0
H348 H 0.20142 0.55333 0.27657 0.0
H349 H 0.17922 0.56018 0.23187 0.0
H350 H 0.08026 0.48401 0.21405 0.0
H351 H 0.11902 0.50324 0.18674 0.0
Li352 Li 0.76008 0.62733 0.00679 0.0
Li353 Li 0.77195 0.65125 0.0244 0.0
Li354 Li 0.777 0.64732 0.99449 0.0
Li355 Li 0.79015 0.63101 0.01236 0.0
C356 C 0.74053 0.65081 1.0027 0.0
N357 N 0.70812 0.65066 0.99575 0.0
C358 C 0.73006 0.65707 0.01439 0.0
C359 C 0.73456 0.64472 0.9874 0.0
C360 C 0.7137 0.65682 0.01067 0.0
C361 C 0.71813 0.64468 0.98413 0.0
C362 C 0.77189 0.62631 0.04312 0.0
C363 C 0.78526 0.62872 0.06882 0.0
N364 N 0.77142 0.62301 0.07522 0.0
C365 C 0.75787 0.62024 0.0499 0.0
C366 C 0.78575 0.6304 0.05261 0.0
C367 C 0.75785 0.61876 0.06617 0.0
C368 C 0.74191 0.59822 0.99357 0.0
N369 N 0.74175 0.6119 0.00433 0.0
C370 C 0.71569 0.60329 0.01306 0.0
C371 C 0.729 0.61459 0.01399 0.0
C372 C 0.71551 0.58895 1.00216 0.0
C373 C 0.72885 0.58654 0.99226 0.0
H374 H 0.7523 0.59623 0.98619 0.0
H375 H 0.72924 0.62545 0.0226 0.0
C376 C 0.77753 0.68029 0.04642 0.0
N377 N 0.7681 0.66621 0.04299 0.0
C378 C 0.77517 0.69089 0.06037 0.0
C379 C 0.75303 0.67262 0.06671 0.0
C380 C 0.75586 0.66237 0.05267 0.0
C381 C 0.76285 0.68704 0.0708 0.0
H382 H 0.78693 0.68329 0.03835 0.0
H383 H 0.74827 0.65131 0.0495 0.0
C384 C 0.78184 0.61868 0.97624 0.0
N385 N 0.78932 0.60983 0.9446 0.0
C386 C 0.79757 0.61552 0.97203 0.0
C387 C 0.76986 0.61708 0.96438 0.0
C388 C 0.80113 0.61112 0.95597 0.0
C389 C 0.7739 0.61267 0.94844 0.0
C390 C 0.80766 0.6613 0.01681 0.0
C391 C 0.81801 0.66625 0.00518 0.0
C392 C 0.81302 0.66295 0.03269 0.0
C393 C 0.83368 0.67243 0.00957 0.0
C394 C 0.82876 0.66918 0.03661 0.0
N395 N 0.83869 0.67373 0.02506 0.0
C396 C 0.76858 0.66849 0.97268 0.0
C397 C 0.79285 0.65621 0.96659 0.0
C398 C 0.77029 0.67697 0.95954 0.0
N399 N 0.77976 0.65831 0.97594 0.0
C400 C 0.79506 0.66448 0.95336 0.0
C401 C 0.7837 0.67508 0.94968 0.0
H402 H 0.75842 0.67022 0.98041 0.0
H403 H 0.80173 0.64827 0.9695 0.0
C404 C 0.80658 0.60702 0.02466 0.0
N405 N 0.80876 0.61983 0.01635 0.0
C406 C 0.81961 0.59852 0.02831 0.0
C407 C 0.8369 0.61622 0.01437 0.0
C408 C 0.82353 0.6244 0.01103 0.0
C409 C 0.83507 0.60311 0.0232 0.0
H410 H 0.7947 0.60341 0.02853 0.0
H411 H 0.82495 0.63426 0.004 0.0
O412 O 0.75656 0.65074 0.00618 0.0
O413 O 0.77209 0.62798 0.02722 0.0
O414 O 0.77816 0.6231 0.9919 0.0
O415 O 0.79229 0.65514 0.01269 0.0
H416 H 0.73449 0.662 0.02624 0.0
H417 H 0.74253 0.64008 0.97815 0.0
H418 H 0.70545 0.66153 0.01964 0.0
H419 H 0.71334 0.63991 0.97236 0.0
H420 H 0.7959 0.6319 0.0763 0.0
H421 H 0.74708 0.61681 0.04273 0.0
H422 H 0.79683 0.63463 0.0475 0.0
H423 H 0.74703 0.6142 0.07159 0.0
H424 H 0.70563 0.60581 0.02079 0.0
H425 H 0.72936 0.57559 0.98383 0.0
H426 H 0.78282 0.70203 0.0629 0.0
H427 H 0.74344 0.66912 0.0744 0.0
H428 H 0.80696 0.61657 0.98106 0.0
H429 H 0.75757 0.61917 0.96743 0.0
H430 H 0.81328 0.60876 0.95254 0.0
H431 H 0.76476 0.61148 0.93913 0.0
H432 H 0.81405 0.66529 0.99288 0.0
H433 H 0.80507 0.65965 0.04194 0.0
H434 H 0.84184 0.6762 1.00065 0.0
H435 H 0.83306 0.67047 0.04886 0.0
H436 H 0.76135 0.6852 0.95735 0.0
H437 H 0.80553 0.66252 0.94605 0.0
H438 H 0.81758 0.58859 0.03524 0.0
H439 H 0.84849 0.61997 0.00985 0.0
Li440 Li 0.90707 0.0433 0.28176 0.0
Li441 Li 0.9268 0.02701 0.29273 0.0
Li442 Li 0.92715 0.03161 0.26403 0.0
Li443 Li 0.90632 0.01284 0.27318 0.0
C444 C 0.9337 0.0638 0.28919 0.0
N445 N 0.93891 0.09643 0.30065 0.0
C446 C 0.9395 0.06873 0.30479 0.0
C447 C 0.9307 0.07546 0.27938 0.0
C448 C 0.94203 0.08529 0.31037 0.0
C449 C 0.93336 0.0919 0.28541 0.0
C450 C 0.89707 0.02218 0.30905 0.0
C451 C 0.88818 1.00347 0.32714 0.0
N452 N 0.88476 0.01618 0.33814 0.0
C453 C 0.89325 0.03503 0.32045 0.0
C454 C 0.89432 0.00624 0.31235 0.0
C455 C 0.88713 0.03176 0.33512 0.0
C456 C 0.88051 0.06067 0.27644 0.0
N457 N 0.89341 0.06079 0.28637 0.0
C458 C 0.88559 0.08483 0.3023 0.0
C459 C 0.89604 0.07249 0.29919 0.0
C460 C 0.87212 0.08502 0.29226 0.0
C461 C 0.86968 0.07267 0.27918 0.0
H462 H 0.87851 0.05109 0.26649 0.0
H463 H 0.90615 0.0722 0.30715 0.0
C464 C 0.9535 0.01672 0.30828 0.0
N465 N 0.93983 0.02451 0.31091 0.0
C466 C 0.96299 0.0138 0.3211 0.0
C467 C 0.94465 0.02771 0.33914 0.0
C468 C 0.93547 0.03027 0.32596 0.0
C469 C 0.95853 0.01919 0.33683 0.0
H470 H 0.95696 0.01256 0.2962 0.0
H471 H 0.92494 0.03697 0.32779 0.0
C472 C 0.90254 0.03247 0.24442 0.0
N473 N 0.90148 0.03625 0.21249 0.0
C474 C 0.89985 0.01892 0.23278 0.0
C475 C 0.90448 0.04796 0.23986 0.0
C476 C 0.89941 0.02108 0.21668 0.0
C477 C 0.90397 0.04962 0.22365 0.0
C478 C 0.93386 0.99572 0.27391 0.0
C479 C 0.94236 0.98744 0.26158 0.0
C480 C 0.92943 0.9881 0.28711 0.0
C481 C 0.94608 0.97156 0.26258 0.0
C482 C 0.93339 0.97223 0.28769 0.0
N483 N 0.94155 0.96434 0.2755 0.0
C484 C 0.94969 0.04834 0.24549 0.0
C485 C 0.94038 0.0217 0.23413 0.0
C486 C 0.95929 0.05009 0.23225 0.0
N487 N 0.94045 0.03432 0.24615 0.0
C488 C 0.94979 0.02291 0.2207 0.0
C489 C 0.95945 0.03724 0.21962 0.0
H490 H 0.9497 0.05812 0.25528 0.0
H491 H 0.9329 0.0107 0.23495 0.0
C492 C 0.87788 0.99245 0.27381 0.0
N493 N 0.8927 0.99355 0.2673 0.0
C494 C 0.86755 0.9785 0.26982 0.0
C495 C 0.88779 0.9672 0.25224 0.0
C496 C 0.89771 0.98138 0.25656 0.0
C497 C 0.87247 0.96558 0.25893 0.0
H498 H 0.87408 1.00246 0.28208 0.0
H499 H 0.90938 0.9827 0.25124 0.0
O500 O 0.93114 0.04764 0.28355 0.0
O501 O 0.90293 0.02518 0.29456 0.0
O502 O 0.90335 0.03058 0.26021 0.0
O503 O 0.92994 0.01121 0.27303 0.0
H504 H 0.94201 0.05988 0.3125 0.0
H505 H 0.92625 0.07186 0.26728 0.0
H506 H 0.94646 0.08928 0.32243 0.0
H507 H 0.93099 0.10105 0.27798 0.0
H508 H 0.88605 0.99119 0.32986 0.0
H509 H 0.89517 0.04742 0.3181 0.0
H510 H 0.89673 0.99608 0.30354 0.0
H511 H 0.88427 0.04162 0.3441 0.0
H512 H 0.88811 0.09413 0.31244 0.0
H513 H 0.85932 0.07205 0.27129 0.0
H514 H 0.97352 0.00711 0.31868 0.0
H515 H 0.94095 0.03248 0.35101 0.0
H516 H 0.89828 0.00685 0.23611 0.0
H517 H 0.9064 0.05858 0.24874 0.0
H518 H 0.89745 0.01069 0.20753 0.0
H519 H 0.90555 0.06153 0.21994 0.0
H520 H 0.94601 0.99318 0.25133 0.0
H521 H 0.92318 0.99446 0.2969 0.0
H522 H 0.95259 0.96498 0.25309 0.0
H523 H 0.93002 0.96621 0.29785 0.0
H524 H 0.9667 0.06128 0.23202 0.0
H525 H 0.94936 0.01278 0.21117 0.0
H526 H 0.85574 0.97794 0.27504 0.0
H527 H 0.89214 0.95754 0.24388 0.0
Li528 Li 0.27252 0.15105 0.52534 0.0
Li529 Li 0.26121 0.12666 0.50805 0.0
Li530 Li 0.29013 0.13074 0.51444 0.0
Li531 Li 0.27741 0.14714 0.49643 0.0
C532 C 0.26741 0.12893 0.54448 0.0
N533 N 0.25719 0.13222 0.57571 0.0
C534 C 0.25149 0.12432 0.54788 0.0
C535 C 0.27815 0.13514 0.55697 0.0
C536 C 0.24656 0.12607 0.56374 0.0
C537 C 0.27274 0.13675 0.57267 0.0
C538 C 0.2497 0.1603 0.49968 0.0
C539 C 0.23672 0.16704 0.47616 0.0
N540 N 0.2371 0.1828 0.48299 0.0
C541 C 0.24991 0.17655 0.5065 0.0
C542 C 0.24298 0.15547 0.48443 0.0
C543 C 0.24349 0.18775 0.49786 0.0
C544 C 0.28042 0.17705 0.55024 0.0
N545 N 0.26837 0.16639 0.54352 0.0
C546 C 0.25026 0.17624 0.56375 0.0
C547 C 0.25341 0.16601 0.54979 0.0
C548 C 0.26258 0.18715 0.57123 0.0
C549 C 0.27778 0.1876 0.56413 0.0
H550 H 0.29214 0.17729 0.54488 0.0
H551 H 0.244 0.15749 0.54411 0.0
C552 C 0.24535 0.0957 0.50911 0.0
N553 N 0.24332 0.11074 0.50532 0.0
C554 C 0.23241 0.08394 0.50806 0.0
C555 C 0.21547 0.10341 0.49937 0.0
C556 C 0.22877 0.11477 0.50052 0.0
C557 C 0.21715 0.08774 0.50323 0.0
H558 H 0.25701 0.0929 0.51314 0.0
H559 H 0.22741 0.1269 0.49788 0.0
C560 C 0.30922 0.15736 0.51526 0.0
N561 N 0.34238 0.16139 0.51685 0.0
C562 C 0.31796 0.15954 0.50157 0.0
C563 C 0.31733 0.15731 0.52977 0.0
C564 C 0.33472 0.16156 0.50262 0.0
C565 C 0.3341 0.15933 0.53032 0.0
C566 C 0.27484 0.10887 0.4848 0.0
C567 C 0.28142 0.09487 0.4884 0.0
C568 C 0.26291 0.10765 0.47292 0.0
C569 C 0.27585 0.07981 0.48011 0.0
C570 C 0.25764 0.09237 0.46492 0.0
N571 N 0.26416 0.07889 0.46865 0.0
C572 C 0.30985 0.11299 0.532 0.0
C573 C 0.32076 0.11888 0.50745 0.0
C574 C 0.32332 0.10493 0.53518 0.0
N575 N 0.30886 0.11986 0.51837 0.0
C576 C 0.33451 0.11101 0.5102 0.0
C577 C 0.33592 0.10387 0.52423 0.0
H578 H 0.30013 0.11369 0.54037 0.0
H579 H 0.31953 0.12417 0.49656 0.0
C580 C 0.28206 0.1748 0.48052 0.0
N581 N 0.28061 0.1583 0.47817 0.0
C582 C 0.28431 0.18346 0.46759 0.0
C583 C 0.2841 0.15802 0.45005 0.0
C584 C 0.28166 0.14984 0.46332 0.0
C585 C 0.28537 0.17507 0.45208 0.0
H586 H 0.28149 0.18124 0.49249 0.0
H587 H 0.28067 0.13673 0.46178 0.0
O588 O 0.27239 0.12763 0.529 0.0
O589 O 0.2562 0.14922 0.50782 0.0
O590 O 0.29282 0.15508 0.51442 0.0
O591 O 0.2799 0.12368 0.493 0.0
H592 H 0.24297 0.11961 0.53837 0.0
H593 H 0.29047 0.13893 0.55455 0.0
H594 H 0.23426 0.12262 0.56654 0.0
H595 H 0.28089 0.14166 0.58244 0.0
H596 H 0.23159 0.16349 0.4643 0.0
H597 H 0.25512 0.18051 0.51827 0.0
H598 H 0.24281 0.14295 0.47895 0.0
H599 H 0.24364 0.20038 0.50296 0.0
H600 H 0.2384 0.17531 0.56881 0.0
H601 H 0.28756 0.19603 0.56923 0.0
H602 H 0.23436 0.072 0.51098 0.0
H603 H 0.20392 0.10701 0.49588 0.0
H604 H 0.3119 0.15953 0.49022 0.0
H605 H 0.31075 0.15549 0.54045 0.0
H606 H 0.34165 0.1632 0.49211 0.0
H607 H 0.34053 0.1592 0.54144 0.0
H608 H 0.29061 0.09559 0.4976 0.0
H609 H 0.25764 0.11837 0.47006 0.0
H610 H 0.28077 0.06886 0.48281 0.0
H611 H 0.24834 0.09123 0.45578 0.0
H612 H 0.32393 0.09969 0.54618 0.0
H613 H 0.34379 0.11026 0.5013 0.0
H614 H 0.28547 0.1966 0.46973 0.0
H615 H 0.28478 0.15108 0.4383 0.0
Li616 Li 0.423 0.52513 0.79449 0.0
Li617 Li 0.40386 0.5412 0.78242 0.0
Li618 Li 0.40284 0.51067 0.77474 0.0
Li619 Li 0.42411 0.52893 0.76549 0.0
C620 C 0.39244 0.51915 0.80942 0.0
N621 N 0.37877 0.51013 0.83689 0.0
C622 C 0.3865 0.53081 0.8209 0.0
C623 C 0.39115 0.50286 0.81179 0.0
C624 C 0.37972 0.52602 0.83475 0.0
C625 C 0.38427 0.49855 0.82578 0.0
C626 C 0.42988 0.56152 0.79059 0.0
C627 C 0.42976 0.58962 0.7868 0.0
N628 N 0.43373 0.59412 0.8025 0.0
C629 C 0.43407 0.56641 0.80666 0.0
C630 C 0.42783 0.5732 0.78054 0.0
C631 C 0.43593 0.58296 0.81246 0.0
C632 C 0.45048 0.51756 0.81045 0.0
N633 N 0.43563 0.52297 0.81295 0.0
C634 C 0.43908 0.52392 0.84119 0.0
C635 C 0.42994 0.52643 0.82797 0.0
C636 C 0.45432 0.51794 0.83897 0.0
C637 C 0.46006 0.51493 0.82331 0.0
H638 H 0.45483 0.51513 0.7984 0.0
H639 H 0.4183 0.53109 0.82975 0.0
C640 C 0.3799 0.56123 0.77497 0.0
N641 N 0.39074 0.55916 0.78644 0.0
C642 C 0.36974 0.57387 0.77744 0.0
C643 C 0.38204 0.58205 0.80353 0.0
C644 C 0.39194 0.56923 0.80055 0.0
C645 C 0.37068 0.58449 0.7919 0.0
H646 H 0.37898 0.55293 0.76395 0.0
H647 H 0.4005 0.56725 0.80959 0.0
C648 C 0.43115 0.49375 0.77613 0.0
N649 N 0.44071 0.463 0.77772 0.0
C650 C 0.43932 0.48565 0.76342 0.0
C651 C 0.42808 0.48629 0.78974 0.0
C652 C 0.44397 0.47009 0.76442 0.0
C653 C 0.43295 0.47073 0.7903 0.0
C654 C 0.39985 0.52903 0.74511 0.0
C655 C 0.39562 0.51521 0.73416 0.0
C656 C 0.40361 0.54389 0.73963 0.0
C657 C 0.39546 0.51645 0.71785 0.0
C658 C 0.40334 0.54463 0.72322 0.0
N659 N 0.39931 0.53101 0.71276 0.0
C660 C 0.37396 0.49079 0.77464 0.0
C661 C 0.39459 0.47862 0.75929 0.0
C662 C 0.3636 0.47682 0.77079 0.0
N663 N 0.38918 0.49135 0.76903 0.0
C664 C 0.38468 0.4644 0.75518 0.0
C665 C 0.36896 0.46335 0.761 0.0
H666 H 0.36989 0.50118 0.78219 0.0
H667 H 0.40655 0.47955 0.75453 0.0
C668 C 0.44822 0.54436 0.74764 0.0
N669 N 0.43787 0.531 0.74783 0.0
C670 C 0.45801 0.54578 0.73445 0.0
C671 C 0.4463 0.51969 0.72199 0.0
C672 C 0.43686 0.51872 0.73543 0.0
C673 C 0.45703 0.53338 0.72135 0.0
H674 H 0.44886 0.55391 0.7577 0.0
H675 H 0.42862 0.50818 0.73596 0.0
O676 O 0.39909 0.52367 0.79578 0.0
O677 O 0.42793 0.54538 0.78473 0.0
O678 O 0.42645 0.50898 0.77529 0.0
O679 O 0.40037 0.52799 0.76111 0.0
H680 H 0.38722 0.54344 0.81923 0.0
H681 H 0.3952 0.49358 0.80286 0.0
H682 H 0.37519 0.53494 0.84378 0.0
H683 H 0.38325 0.48599 0.82777 0.0
H684 H 0.42811 0.5988 0.77918 0.0
H685 H 0.43578 0.55753 0.81459 0.0
H686 H 0.42467 0.56962 0.76806 0.0
H687 H 0.43909 0.58692 0.82488 0.0
H688 H 0.43409 0.52634 0.85299 0.0
H689 H 0.47185 0.51063 0.82101 0.0
H690 H 0.36099 0.57506 0.76824 0.0
H691 H 0.38332 0.59 0.81479 0.0
H692 H 0.44198 0.49129 0.75287 0.0
H693 H 0.42221 0.49252 0.79986 0.0
H694 H 0.45021 0.46365 0.75462 0.0
H695 H 0.43063 0.46483 0.80076 0.0
H696 H 0.39262 0.50362 0.7382 0.0
H697 H 0.40683 0.55471 0.74796 0.0
H698 H 0.3923 0.50584 0.70923 0.0
H699 H 0.40634 0.55603 0.71881 0.0
H700 H 0.35161 0.4765 0.77561 0.0
H701 H 0.38918 0.45442 0.74734 0.0
H702 H 0.46605 0.55659 0.7344 0.0
H703 H 0.44533 0.50974 0.71227 0.0
Li704 Li 0.7726 0.39944 0.52687 0.0
Li705 Li 0.75886 0.3809 0.54223 0.0
Li706 Li 0.75456 0.37779 0.51361 0.0
Li707 Li 0.7427 0.40045 0.53171 0.0
C708 C 0.79092 0.37604 0.52389 0.0
N709 N 0.82397 0.37787 0.52114 0.0
C710 C 0.80073 0.37568 0.53729 0.0
C711 C 0.79793 0.3773 0.50909 0.0
C712 C 0.81741 0.3766 0.53565 0.0
C713 C 0.81466 0.37824 0.50795 0.0
C714 C 0.76187 0.40819 0.56349 0.0
C715 C 0.75007 0.4179 0.58863 0.0
N716 N 0.76346 0.41457 0.59644 0.0
C717 C 0.77554 0.40492 0.57175 0.0
C718 C 0.74904 0.41477 0.57198 0.0
C719 C 0.7761 0.4082 0.58842 0.0
C720 C 0.79333 0.41985 0.51056 0.0
N721 N 0.79171 0.4132 0.52433 0.0
C722 C 0.81738 0.42567 0.53382 0.0
C723 C 0.8033 0.41607 0.53596 0.0
C724 C 0.8195 0.4325 0.5196 0.0
C725 C 0.80718 0.42953 0.50792 0.0
H726 H 0.78387 0.41766 0.50161 0.0
H727 H 0.80176 0.41075 0.54683 0.0
C728 C 0.7686 0.3545 0.55644 0.0
N729 N 0.76025 0.36794 0.55946 0.0
C730 C 0.76987 0.34412 0.56794 0.0
C731 C 0.7535 0.36123 0.58539 0.0
C732 C 0.75251 0.37126 0.57352 0.0
C733 C 0.76235 0.34745 0.58273 0.0
H734 H 0.77412 0.3517 0.54496 0.0
H735 H 0.74537 0.38159 0.57549 0.0
C736 C 0.74987 0.40094 0.49598 0.0
N737 N 0.73919 0.39918 0.46472 0.0
C738 C 0.73431 0.40484 0.49267 0.0
C739 C 0.76002 0.39623 0.48337 0.0
C740 C 0.72914 0.40387 0.47679 0.0
C741 C 0.75438 0.39537 0.46765 0.0
C742 C 0.73075 0.3643 0.537 0.0
C743 C 0.73426 0.34839 0.5316 0.0
C744 C 0.72049 0.36737 0.54988 0.0
C745 C 0.72749 0.33577 0.53927 0.0
C746 C 0.71396 0.35441 0.55722 0.0
N747 N 0.71758 0.33902 0.55182 0.0
C748 C 0.76195 0.35229 0.48982 0.0
C749 C 0.73624 0.36175 0.48662 0.0
C750 C 0.75963 0.34123 0.47589 0.0
N751 N 0.75044 0.36245 0.49475 0.0
C752 C 0.73344 0.35091 0.47255 0.0
C753 C 0.74529 0.34053 0.46692 0.0
H754 H 0.77293 0.35272 0.49674 0.0
H755 H 0.72715 0.36975 0.49097 0.0
C756 C 0.72952 0.43064 0.53552 0.0
N757 N 0.72564 0.41443 0.53463 0.0
C758 C 0.71752 0.44152 0.53717 0.0
C759 C 0.69773 0.41881 0.53707 0.0
C760 C 0.71012 0.40836 0.5353 0.0
C761 C 0.70135 0.43565 0.53797 0.0
H762 H 0.74198 0.4351 0.53487 0.0
H763 H 0.70735 0.39539 0.53428 0.0
O764 O 0.77456 0.3755 0.52531 0.0
O765 O 0.76109 0.40517 0.54718 0.0
O766 O 0.75508 0.40161 0.51146 0.0
O767 O 0.73767 0.37685 0.52996 0.0
H768 H 0.79557 0.37494 0.54889 0.0
H769 H 0.79056 0.37778 0.49863 0.0
H770 H 0.82514 0.37641 0.54593 0.0
H771 H 0.82023 0.37933 0.4966 0.0
H772 H 0.74022 0.42296 0.59536 0.0
H773 H 0.78549 0.39964 0.56542 0.0
H774 H 0.73836 0.41738 0.56579 0.0
H775 H 0.78656 0.40561 0.59497 0.0
H776 H 0.8266 0.42748 0.5431 0.0
H777 H 0.80813 0.43478 0.49691 0.0
H778 H 0.77647 0.33344 0.56514 0.0
H779 H 0.74749 0.36432 0.59659 0.0
H780 H 0.72627 0.40849 0.50224 0.0
H781 H 0.77205 0.39304 0.48567 0.0
H782 H 0.71712 0.4068 0.47407 0.0
H783 H 0.76207 0.39163 0.45779 0.0
H784 H 0.74229 0.34584 0.52172 0.0
H785 H 0.71784 0.37965 0.55434 0.0
H786 H 0.73018 0.32339 0.53529 0.0
H787 H 0.70609 0.35661 0.56728 0.0
H788 H 0.76894 0.3332 0.47227 0.0
H789 H 0.72222 0.35087 0.46603 0.0
H790 H 0.72087 0.4544 0.53797 0.0
H791 H 0.68542 0.41375 0.53741 0.0
Li792 Li 0.65876 0.99268 0.75445 0.0
Li793 Li 0.64088 0.01124 0.76933 0.0
Li794 Li 0.63819 1.00351 0.73929 0.0
Li795 Li 0.6606 0.02246 0.75092 0.0
C796 C 0.63236 0.97393 0.75936 0.0
N797 N 0.62787 0.94211 0.7651 0.0
C798 C 0.62986 0.97045 0.7749 0.0
C799 C 0.63234 0.96125 0.74671 0.0
C800 C 0.62767 0.95428 0.77756 0.0
C801 C 0.63013 0.94524 0.74986 0.0
C802 C 0.67113 0.01955 0.78483 0.0
C803 C 0.67784 0.04369 0.80357 0.0
N804 N 0.68383 0.03445 0.81393 0.0
C805 C 0.67758 0.01033 0.79557 0.0
C806 C 0.67145 0.03639 0.78879 0.0
C807 C 0.68386 0.01807 0.81025 0.0
C808 C 0.68007 0.96824 0.74383 0.0
N809 N 0.67099 0.97434 0.7562 0.0
C810 C 0.67979 0.95497 0.77213 0.0
C811 C 0.67069 0.96796 0.77017 0.0
C812 C 0.68938 0.94845 0.75961 0.0
C813 C 0.68934 0.9552 0.74525 0.0
H814 H 0.6803 0.97363 0.73291 0.0
H815 H 0.66342 0.97302 0.77986 0.0
C816 C 0.61505 0.02302 0.78773 0.0
N817 N 0.62913 0.01599 0.78864 0.0
C818 C 0.606 0.02678 0.80141 0.0
C819 C 0.62584 0.01554 0.81669 0.0
C820 C 0.63455 0.01207 0.80271 0.0
C821 C 0.61135 0.02305 0.81618 0.0
H822 H 0.61084 0.02576 0.77635 0.0
H823 H 0.64547 0.00599 0.80308 0.0
C824 C 0.66221 0.99932 0.71836 0.0
N825 N 0.6629 0.99221 0.68548 0.0
C826 C 0.66785 0.01119 0.70916 0.0
C827 C 0.65714 0.98377 0.71085 0.0
C828 C 0.66805 0.00738 0.69255 0.0
C829 C 0.65752 0.98044 0.69421 0.0
C830 C 0.63286 0.04066 0.75389 0.0
C831 C 0.62564 0.04641 0.74102 0.0
C832 C 0.63529 0.0509 0.76838 0.0
C833 C 0.62137 0.06241 0.74273 0.0
C834 C 0.63083 0.06681 0.76963 0.0
N835 N 0.62405 0.07221 0.75688 0.0
C836 C 0.61046 0.98859 0.72161 0.0
C837 C 0.62523 0.00898 0.70967 0.0
C838 C 0.59906 0.98645 0.70914 0.0
N839 N 0.62321 0.99974 0.72166 0.0
C840 C 0.61421 0.00719 0.69694 0.0
C841 C 0.60079 0.99589 0.69659 0.0
H842 H 0.60898 0.98155 0.73141 0.0
H843 H 0.63532 0.01795 0.7101 0.0
C844 C 0.68938 0.04336 0.75395 0.0
N845 N 0.67438 0.04097 0.74728 0.0
C846 C 0.69946 0.05694 0.75151 0.0
C847 C 0.67863 0.06512 0.73505 0.0
C848 C 0.669 0.05138 0.73777 0.0
C849 C 0.69407 0.06811 0.74203 0.0
H850 H 0.6935 0.03476 0.76124 0.0
H851 H 0.65729 0.04891 0.73208 0.0
O852 O 0.63475 0.98968 0.75654 0.0
O853 O 0.66489 0.01214 0.77041 0.0
O854 O 0.66174 1.0029 0.73463 0.0
O855 O 0.63712 0.025 0.75239 0.0
H856 H 0.62975 0.98011 0.78481 0.0
H857 H 0.63403 0.96373 0.73459 0.0
H858 H 0.62583 0.9514 0.78954 0.0
H859 H 0.63018 0.9353 0.7402 0.0
H860 H 0.67811 0.05671 0.80678 0.0
H861 H 0.67769 0.99733 0.79266 0.0
H862 H 0.66703 0.0438 0.78046 0.0
H863 H 0.68877 0.01105 0.81872 0.0
H864 H 0.67926 0.95005 0.78334 0.0
H865 H 0.69668 0.9507 0.73535 0.0
H866 H 0.59499 0.03267 0.80041 0.0
H867 H 0.63028 0.01207 0.82769 0.0
H868 H 0.67195 0.02324 0.71477 0.0
H869 H 0.65291 0.97441 0.71779 0.0
H870 H 0.67229 0.01647 0.68527 0.0
H871 H 0.65353 0.96848 0.68824 0.0
H872 H 0.62344 0.03864 0.72979 0.0
H873 H 0.64031 0.04655 0.77864 0.0
H874 H 0.61589 0.06703 0.73282 0.0
H875 H 0.63269 0.07485 0.78078 0.0
H876 H 0.58881 0.97775 0.70953 0.0
H877 H 0.61624 0.01458 0.68747 0.0
H878 H 0.71126 0.05878 0.75717 0.0
H879 H 0.67412 0.07319 0.72736 0.0
Li880 Li 0.03525 0.24085 0.87857 0.0
Li881 Li 0.01944 0.25533 0.90058 0.0
Li882 Li 0.02228 0.22613 0.89965 0.0
Li883 Li 0.00595 0.23626 0.88057 0.0
C884 C 0.04874 0.24086 0.91413 0.0
N885 N 0.06616 0.23199 0.93898 0.0
C886 C 0.04571 0.24725 0.92989 0.0
C887 C 0.06065 0.23001 0.91098 0.0
C888 C 0.05466 0.24261 0.94229 0.0
C889 C 0.06931 0.22565 0.92372 0.0
C890 C 0.01903 0.27254 0.87676 0.0
C891 C 0.00597 0.29755 0.88007 0.0
N892 N 0.02014 0.30576 0.87724 0.0
C893 C 0.03344 0.28119 0.87379 0.0
C894 C 0.00515 0.28074 0.87983 0.0
C895 C 0.03375 0.29799 0.87411 0.0
C896 C 0.05064 0.24032 0.84887 0.0
N897 N 0.05312 0.24286 0.86495 0.0
C898 C 0.08118 0.2493 0.86162 0.0
C899 C 0.06799 0.24733 0.87146 0.0
C900 C 0.07902 0.24665 0.84493 0.0
C901 C 0.06349 0.24206 0.83858 0.0
H902 H 0.03863 0.23718 0.84403 0.0
H903 H 0.06959 0.24952 0.8843 0.0
C904 C 0.0053 0.27826 0.92295 0.0
N905 N 0.01869 0.27544 0.91428 0.0
C906 C 0.00411 0.29311 0.93254 0.0
C907 C 0.03073 0.30179 0.92445 0.0
C908 C 0.03141 0.28672 0.91503 0.0
C909 C 0.01687 0.3052 0.93327 0.0
H910 H 0.99551 0.26898 0.92242 0.0
H911 H 0.04199 0.28409 0.90813 0.0
C912 C 0.01319 0.20728 0.86726 0.0
N913 N 0.99429 0.18293 0.84894 0.0
C914 C 0.00482 0.19514 0.87447 0.0
C915 C 0.01196 0.20701 0.85073 0.0
C916 C 0.99534 0.18292 0.865 0.0
C917 C 1.00232 0.19462 0.84168 0.0
C918 C 0.987 0.23388 0.90551 0.0
C919 C 0.98187 0.21877 0.90984 0.0
C920 C 0.97566 0.24468 0.90262 0.0
C921 C 0.96543 0.21467 0.9111 0.0
C922 C 0.95933 0.24011 0.90398 0.0
N923 N 0.9546 0.22533 0.90816 0.0
C924 C 0.02097 0.21211 0.92824 0.0
C925 C 0.03359 0.19665 0.90693 0.0
C926 C 0.02386 0.20076 0.93841 0.0
N927 N 0.02577 0.20983 0.91282 0.0
C928 C 0.0367 0.18496 0.91666 0.0
C929 C 0.0318 0.18691 0.93266 0.0
H930 H 0.01501 0.22286 0.93267 0.0
H931 H 0.03746 0.19526 0.89465 0.0
C932 C 0.98592 0.24242 0.85565 0.0
N933 N 0.98698 0.23241 0.86696 0.0
C934 C 0.97266 0.24072 0.84525 0.0
C935 C 0.96178 0.21828 0.85811 0.0
C936 C 0.97534 0.22033 0.86819 0.0
C937 C 0.96032 0.22859 0.84647 0.0
H938 H 0.99539 0.25178 0.85468 0.0
H939 H 0.97651 0.21224 0.87698 0.0
O940 O 0.03976 0.24484 0.90187 0.0
O941 O 0.01854 0.25614 0.87686 0.0
O942 O 0.02236 0.21947 0.87637 0.0
O943 O 1.00305 0.23814 0.90433 0.0
H944 H 0.03644 0.25556 0.93252 0.0
H945 H 0.063 0.22482 0.89885 0.0
H946 H 0.05241 0.2474 0.95456 0.0
H947 H 0.07849 0.21718 0.92148 0.0
H948 H 0.99535 0.30408 0.88254 0.0
H949 H 0.0443 0.27503 0.87142 0.0
H950 H 0.99391 0.2742 0.88213 0.0
H951 H 0.04483 0.30486 0.87192 0.0
H952 H 0.09295 0.25277 0.86702 0.0
H953 H 0.06124 0.24018 0.8258 0.0
H954 H 0.99334 0.29506 0.93939 0.0
H955 H 0.04081 0.31076 0.92456 0.0
H956 H 0.00541 0.19527 0.88726 0.0
H957 H 0.01822 0.21637 0.84496 0.0
H958 H 0.98875 0.1735 0.87044 0.0
H959 H 1.00119 0.19432 0.82888 0.0
H960 H 0.99045 0.21023 0.91206 0.0
H961 H 0.97941 0.25638 0.89917 0.0
H962 H 0.96128 0.203 0.91437 0.0
H963 H 0.95042 0.2483 0.90167 0.0
H964 H 0.02012 0.20295 0.95071 0.0
H965 H 0.04271 0.17442 0.91165 0.0
H966 H 0.97197 0.249 0.8365 0.0
H967 H 0.95264 0.20862 0.8593 0.0
Li968 Li 0.53575 0.74414 0.37497 0.0
Li969 Li 0.51909 0.75695 0.39638 0.0
Li970 Li 0.52172 0.72707 0.39322 0.0
Li971 Li 0.50534 0.73963 0.37448 0.0
C972 C 0.55374 0.74254 0.40328 0.0
N973 N 0.58418 0.73686 0.41312 0.0
C974 C 0.56281 0.75441 0.41358 0.0
C975 C 0.5601 0.72774 0.39811 0.0
C976 C 0.5782 0.75132 0.41838 0.0
C977 C 0.57551 0.72511 0.40319 0.0
C978 C 0.51931 0.77634 0.37454 0.0
C979 C 0.50562 0.8009 0.37985 0.0
N980 N 0.51964 0.80976 0.37787 0.0
C981 C 0.53357 0.78567 0.37247 0.0
C982 C 0.50519 0.78398 0.37815 0.0
C983 C 0.53349 0.80256 0.37422 0.0
C984 C 0.55261 0.74079 0.3462 0.0
N985 N 0.55411 0.74671 0.36199 0.0
C986 C 0.5814 0.75633 0.35857 0.0
C987 C 0.56809 0.75451 0.36827 0.0
C988 C 0.58025 0.75026 0.34222 0.0
C989 C 0.56559 0.74245 0.33604 0.0
H990 H 0.54129 0.73478 0.34151 0.0
H991 H 0.56887 0.75953 0.38074 0.0
C992 C 0.50417 0.77814 0.4199 0.0
N993 N 0.51786 0.77604 0.41149 0.0
C994 C 0.50264 0.79239 0.43036 0.0
C995 C 0.52946 0.80192 0.42363 0.0
C996 C 0.53047 0.78747 0.41329 0.0
C997 C 0.51533 0.8046 0.43225 0.0
H998 H 0.4944 0.76879 0.41841 0.0
H999 H 0.54122 0.78548 0.40645 0.0
C1000 C 0.52422 0.70839 0.3622 0.0
N1001 N 0.52905 0.67753 0.34736 0.0
C1002 C 0.51109 0.69746 0.35708 0.0
C1003 C 0.53981 0.70369 0.35951 0.0
C1004 C 0.51378 0.6819 0.34968 0.0
C1005 C 0.542 0.68803 0.35206 0.0
C1006 C 0.48626 0.73431 0.39866 0.0
C1007 C 0.48152 0.71851 0.40137 0.0
C1008 C 0.47462 0.74509 0.39668 0.0
C1009 C 0.46515 0.71372 0.40194 0.0
C1010 C 0.45837 0.73982 0.3973 0.0
N1011 N 0.45402 0.72438 0.39989 0.0
C1012 C 0.53035 0.71367 0.42023 0.0
C1013 C 0.52078 0.69351 0.39913 0.0
C1014 C 0.53356 0.70183 0.42974 0.0
N1015 N 0.5243 0.70937 0.40514 0.0
C1016 C 0.5237 0.68125 0.40828 0.0
C1017 C 0.53031 0.68532 0.4238 0.0
H1018 H 0.53293 0.72635 0.42481 0.0
H1019 H 0.51565 0.69032 0.38728 0.0
C1020 C 0.48579 0.74909 0.3508 0.0
N1021 N 0.48689 0.73734 0.36034 0.0
C1022 C 0.47266 0.74868 0.3404 0.0
C1023 C 0.46207 0.72387 0.3495 0.0
C1024 C 0.47542 0.72478 0.35977 0.0
C1025 C 0.46052 0.73599 0.33969 0.0
H1026 H 0.49516 0.7588 0.35122 0.0
H1027 H 0.47651 0.71553 0.3674 0.0
O1028 O 0.53868 0.74542 0.39843 0.0
O1029 O 0.51922 0.75982 0.37323 0.0
O1030 O 0.52179 0.72373 0.36935 0.0
O1031 O 0.50222 0.73921 0.39805 0.0
H1032 H 0.55804 0.76589 0.41779 0.0
H1033 H 0.55313 0.71832 0.39042 0.0
H1034 H 0.58538 0.76042 0.4263 0.0
H1035 H 0.58057 0.7137 0.39927 0.0
H1036 H 0.49482 0.80698 0.38277 0.0
H1037 H 0.54459 0.77994 0.36967 0.0
H1038 H 0.49407 0.77692 0.37982 0.0
H1039 H 0.54445 0.80994 0.37274 0.0
H1040 H 0.59238 0.76272 0.36376 0.0
H1041 H 0.56421 0.73754 0.32353 0.0
H1042 H 0.49164 0.7938 0.43696 0.0
H1043 H 0.53948 0.81105 0.42457 0.0
H1044 H 0.49896 0.70089 0.35895 0.0
H1045 H 0.55013 0.71208 0.36299 0.0
H1046 H 0.50372 0.67329 0.34578 0.0
H1047 H 0.554 0.68423 0.34996 0.0
H1048 H 0.49037 0.71002 0.40296 0.0
H1049 H 0.47808 0.75734 0.39449 0.0
H1050 H 0.4613 0.70151 0.40398 0.0
H1051 H 0.44923 0.748 0.39568 0.0
H1052 H 0.53881 0.70562 0.44153 0.0
H1053 H 0.52068 0.66873 0.40329 0.0
H1054 H 0.47214 0.75812 0.33286 0.0
H1055 H 0.45294 0.71393 0.34945 0.0
Li1056 Li 0.01608 0.78307 0.64835 0.0
Li1057 Li 0.99618 0.77069 0.66551 0.0
Li1058 Li 0.02567 0.76677 0.66747 0.0
Li1059 Li 0.00957 0.75254 0.64457 0.0
C1060 C 0.01635 0.80358 0.67565 0.0
N1061 N 0.01998 0.83702 0.68224 0.0
C1062 C 1.00318 0.81234 0.68044 0.0
C1063 C 0.03141 0.81181 0.67437 0.0
C1064 C 0.00526 0.82925 0.68369 0.0
C1065 C 0.03298 0.82872 0.6777 0.0
C1066 C 0.98047 0.7703 0.63513 0.0
C1067 C 0.95562 0.75619 0.62442 0.0
N1068 N 0.9504 0.77049 0.62126 0.0
C1069 C 0.97494 0.78481 0.63157 0.0
C1070 C 0.9708 0.75583 0.63134 0.0
C1071 C 0.95968 0.78468 0.62465 0.0
C1072 C 0.03367 0.80001 0.62655 0.0
N1073 N 0.02133 0.80115 0.63697 0.0
C1074 C 0.01659 0.82743 0.63042 0.0
C1075 C 0.01279 0.81451 0.639 0.0
C1076 C 0.02926 0.82658 0.61952 0.0
C1077 C 0.03788 0.81263 0.61771 0.0
H1078 H 0.04015 0.78919 0.62494 0.0
H1079 H 1.00296 0.81515 0.64726 0.0
C1080 C 0.97561 0.76604 0.69113 0.0
N1081 N 0.97688 0.77333 0.67771 0.0
C1082 C 0.9619 0.76725 0.70051 0.0
C1083 C 0.95121 0.78397 0.68245 0.0
C1084 C 0.96508 0.78233 0.67335 0.0
C1085 C 0.94943 0.77628 0.69619 0.0
H1086 H 0.98528 0.75926 0.69459 0.0
H1087 H 0.96648 0.7884 0.66292 0.0
C1088 C 0.04652 0.76204 0.64437 0.0
N1089 N 0.0784 0.75537 0.64537 0.0
C1090 C 0.05085 0.74622 0.63995 0.0
C1091 C 0.05842 0.77451 0.64911 0.0
C1092 C 0.06703 0.74309 0.64057 0.0
C1093 C 0.07446 0.77088 0.6496 0.0
C1094 C 0.99878 0.73627 0.67017 0.0
C1095 C 0.0064 0.72487 0.6776 0.0
C1096 C 0.98263 0.73316 0.66555 0.0
C1097 C 0.99779 0.71041 0.68 0.0
C1098 C 0.97442 0.71858 0.66817 0.0
N1099 N 0.98211 0.70758 0.67526 0.0
C1100 C 0.04914 0.77684 0.69229 0.0
C1101 C 0.04889 0.74931 0.68072 0.0
C1102 C 0.06198 0.77494 0.70241 0.0
N1103 N 0.04294 0.76413 0.68167 0.0
C1104 C 0.06168 0.74686 0.69061 0.0
C1105 C 0.06843 0.75978 0.70165 0.0
H1106 H 0.0441 0.78846 0.69294 0.0
H1107 H 0.04379 0.73942 0.67212 0.0
C1108 C 1.00232 0.73471 0.61403 0.0
N1109 N 0.00712 0.73337 0.62917 0.0
C1110 C 1.00071 0.72104 0.60239 0.0
C1111 C 0.00926 0.70487 0.62204 0.0
C1112 C 0.01073 0.71885 0.63328 0.0
C1113 C 0.00416 0.70582 0.60633 0.0
H1114 H 0.99974 0.74644 0.611 0.0
H1115 H 0.01504 0.71815 0.64521 0.0
O1116 O 0.01452 0.78703 0.67232 0.0
O1117 O 0.99546 0.77021 0.64179 0.0
O1118 O 0.03071 0.76529 0.64417 0.0
O1119 O 0.00709 0.75045 0.66764 0.0
H1120 H 0.99148 0.80617 0.68159 0.0
H1121 H 0.04173 0.80523 0.67072 0.0
H1122 H 0.99516 0.83619 0.68734 0.0
H1123 H 0.04454 0.83526 0.67665 0.0
H1124 H 0.94801 0.74508 0.62147 0.0
H1125 H 0.98229 0.79609 0.63424 0.0
H1126 H 0.97501 0.74439 0.63353 0.0
H1127 H 0.95522 0.79585 0.62196 0.0
H1128 H 0.0097 0.83799 0.63236 0.0
H1129 H 0.04755 0.81128 0.60926 0.0
H1130 H 0.9612 0.76137 0.71116 0.0
H1131 H 0.9419 0.79104 0.67866 0.0
H1132 H 0.04182 0.73644 0.63621 0.0
H1133 H 0.05528 0.78683 0.65248 0.0
H1134 H 0.07055 0.73088 0.63728 0.0
H1135 H 0.08378 0.78039 0.65336 0.0
H1136 H 0.01885 0.72712 0.68143 0.0
H1137 H 0.97643 0.74202 0.66021 0.0
H1138 H 1.00357 0.70144 0.68565 0.0
H1139 H 0.96191 0.71604 0.66463 0.0
H1140 H 0.06666 0.78519 0.71086 0.0
H1141 H 0.0664 0.73503 0.68944 0.0
H1142 H 0.99665 0.72234 0.59047 0.0
H1143 H 0.0124 0.69349 0.62554 0.0
Li1144 Li 0.51565 0.28186 0.14612 0.0
Li1145 Li 0.49634 0.26836 0.16303 0.0
Li1146 Li 0.52615 0.26447 0.16485 0.0
Li1147 Li 0.50925 0.25149 0.14185 0.0
C1148 C 0.51956 0.30001 0.17695 0.0
N1149 N 0.5294 0.33102 0.19123 0.0
C1150 C 0.50821 0.31083 0.18253 0.0
C1151 C 0.53592 0.30488 0.17891 0.0
C1152 C 0.51342 0.32648 0.18963 0.0
C1153 C 0.54066 0.32063 0.18609 0.0
C1154 C 0.47949 0.27248 0.13695 0.0
C1155 C 0.45116 0.26421 0.13462 0.0
N1156 N 0.44814 0.2795 0.13225 0.0
C1157 C 0.47612 0.28808 0.13437 0.0
C1158 C 0.46694 0.26041 0.13695 0.0
C1159 C 0.46018 0.29139 0.13205 0.0
C1160 C 0.5288 0.29729 0.12115 0.0
N1161 N 0.52089 0.30021 0.13513 0.0
C1162 C 0.52073 0.32835 0.13229 0.0
C1163 C 0.51669 0.31536 0.14073 0.0
C1164 C 0.5291 0.32574 0.11788 0.0
C1165 C 0.53314 0.30991 0.11237 0.0
H1166 H 0.53177 0.2851 0.11678 0.0
H1167 H 0.50997 0.31737 0.15158 0.0
C1168 C 0.47291 0.259 0.18477 0.0
N1169 N 0.47713 0.27059 0.1754 0.0
C1170 C 0.45919 0.26007 0.19414 0.0
C1171 C 0.45435 0.28505 0.18415 0.0
C1172 C 0.4682 0.28351 0.175 0.0
C1173 C 0.44966 0.27324 0.19394 0.0
H1174 H 0.48031 0.24897 0.18511 0.0
H1175 H 0.47183 0.29268 0.16761 0.0
C1176 C 0.54628 0.26544 0.13803 0.0
N1177 N 0.57849 0.26817 0.13064 0.0
C1178 C 0.55339 0.25226 0.12964 0.0
C1179 C 0.5555 0.28008 0.14243 0.0
C1180 C 0.5697 0.25386 0.12609 0.0
C1181 C 0.57177 0.2812 0.13864 0.0
C1182 C 0.50462 0.23181 0.16397 0.0
C1183 C 0.51683 0.22254 0.16816 0.0
C1184 C 0.48964 0.22416 0.15886 0.0
C1185 C 0.51393 0.2057 0.16692 0.0
C1186 C 0.48722 0.2073 0.15776 0.0
N1187 N 0.49931 0.19849 0.16177 0.0
C1188 C 0.54418 0.2694 0.194 0.0
C1189 C 0.55538 0.25209 0.17308 0.0
C1190 C 0.55697 0.26767 0.20425 0.0
N1191 N 0.54371 0.26179 0.17868 0.0
C1192 C 0.56842 0.25011 0.18286 0.0
C1193 C 0.56938 0.258 0.19866 0.0
H1194 H 0.53462 0.27686 0.19824 0.0
H1195 H 0.55448 0.2457 0.16108 0.0
C1196 C 0.4956 0.23219 0.11404 0.0
N1197 N 0.50681 0.23278 0.12588 0.0
C1198 C 0.49387 0.21886 0.10202 0.0
C1199 C 0.51525 0.20696 0.11459 0.0
C1200 C 0.51663 0.22056 0.1263 0.0
C1201 C 0.50378 0.20597 0.10216 0.0
H1202 H 0.48812 0.24218 0.11381 0.0
H1203 H 0.5256 0.2214 0.13571 0.0
O1204 O 0.51464 0.28462 0.16999 0.0
O1205 O 0.495 0.26904 0.13936 0.0
O1206 O 0.53032 0.26404 0.14167 0.0
O1207 O 0.5073 0.24829 0.1649 0.0
H1208 H 0.49551 0.30723 0.18128 0.0
H1209 H 0.54489 0.29656 0.17512 0.0
H1210 H 0.50476 0.33501 0.19388 0.0
H1211 H 0.55329 0.32456 0.18763 0.0
H1212 H 0.44133 0.25501 0.13468 0.0
H1213 H 0.48569 0.29754 0.13425 0.0
H1214 H 0.46935 0.24825 0.13879 0.0
H1215 H 0.45739 0.30343 0.13013 0.0
H1216 H 0.51703 0.34025 0.13685 0.0
H1217 H 0.5397 0.30728 0.10143 0.0
H1218 H 0.45627 0.25082 0.2017 0.0
H1219 H 0.44733 0.29533 0.18345 0.0
H1220 H 0.54641 0.2409 0.12599 0.0
H1221 H 0.55012 0.29052 0.14851 0.0
H1222 H 0.57538 0.24372 0.1197 0.0
H1223 H 0.57905 0.29246 0.14201 0.0
H1224 H 0.52845 0.22827 0.17224 0.0
H1225 H 0.48003 0.23117 0.15571 0.0
H1226 H 0.5233 0.19837 0.17004 0.0
H1227 H 0.47572 0.20121 0.15372 0.0
H1228 H 0.55725 0.27399 0.21634 0.0
H1229 H 0.57752 0.24224 0.17817 0.0
H1230 H 0.48504 0.21881 0.09257 0.0
H1231 H 0.52303 0.19728 0.11535 0.0
H1232 H 0.26317 0.74617 0.83843 0.0
H1233 H 0.26254 0.76663 0.86207 0.0
H1234 H 0.21197 0.75389 0.86697 0.0
H1235 H 0.21254 0.7332 0.84339 0.0
H1236 H 0.24206 0.79382 0.86812 0.0
H1237 H 0.23323 0.74894 0.91094 0.0
H1238 H 0.24045 0.74351 0.89097 0.0
H1239 H 0.21961 0.74662 0.89406 0.0
C1240 C 0.25192 0.7477 0.84456 0.0
C1241 C 0.23793 0.73798 0.83913 0.0
C1242 C 0.25156 0.75944 0.858 0.0
C1243 C 0.23726 0.76163 0.86636 0.0
C1244 C 0.22317 0.75225 0.86078 0.0
H1245 H 0.22373 0.82082 0.95851 0.0
H1246 H 0.21897 0.80272 0.93331 0.0
C1247 C 0.22349 0.74054 0.84725 0.0
C1248 C 0.23729 0.77356 0.88107 0.0
H1249 H 0.23493 0.77656 0.92167 0.0
C1250 C 0.24041 0.79009 0.87984 0.0
C1251 C 0.23505 0.76862 0.8963 0.0
C1252 C 0.23199 0.75096 0.89828 0.0
C1253 C 0.24148 0.80184 0.89347 0.0
C1254 C 0.23979 0.79687 0.90877 0.0
C1255 C 0.23626 0.78036 0.90996 0.0
C1256 C 0.24235 0.80847 0.92372 0.0
C1257 C 0.2443 0.81948 0.89132 0.0
C1258 C 0.2571 0.81766 0.92677 0.0
C1259 C 0.2598 0.82813 0.94107 0.0
C1260 C 0.24788 0.82951 0.95278 0.0
C1261 C 0.2331 0.82026 0.9497 0.0
C1262 C 0.23039 0.80981 0.93533 0.0
H1263 H 0.24016 0.82162 0.87933 0.0
H1264 H 0.23802 0.82738 0.90054 0.0
H1265 H 0.25737 0.82312 0.8924 0.0
H1266 H 0.26665 0.81657 0.91817 0.0
H1267 H 0.27126 0.83518 0.94293 0.0
H1268 H 0.01087 0.50516 0.43664 0.0
H1269 H 0.02642 0.50576 0.41222 0.0
H1270 H 0.04629 0.55419 0.42996 0.0
H1271 H 0.03087 0.55342 0.45465 0.0
H1272 H 0.0267 0.52595 0.38922 0.0
H1273 H 0.08646 0.53024 0.41963 0.0
H1274 H 0.06801 0.52549 0.42959 0.0
H1275 H 0.07374 0.54605 0.42667 0.0
C1276 C 0.01849 0.51596 0.43523 0.0
C1277 C 0.01977 0.52924 0.44737 0.0
C1278 C 0.02736 0.5163 0.42132 0.0
C1279 C 0.03771 0.52992 0.41934 0.0
C1280 C 0.03864 0.54343 0.43135 0.0
H1281 H 0.10327 0.54157 0.34016 0.0
H1282 H 0.08702 0.54694 0.36411 0.0
C1283 C 0.02976 0.54306 0.44536 0.0
C1284 C 0.0476 0.52964 0.40475 0.0
H1285 H 0.08629 0.52985 0.39169 0.0
C1286 C 0.03973 0.5269 0.38977 0.0
C1287 C 0.06461 0.53087 0.40547 0.0
C1288 C 0.07376 0.53319 0.42118 0.0
C1289 C 0.04839 0.52514 0.37553 0.0
C1290 C 0.06536 0.52597 0.37627 0.0
C1291 C 0.07326 0.5292 0.39119 0.0
C1292 C 0.07508 0.5228 0.3617 0.0
C1293 C 0.03931 0.52235 0.35978 0.0
C1294 C 0.07389 0.50739 0.35254 0.0
C1295 C 0.08316 0.50427 0.3389 0.0
C1296 C 0.0938 0.51652 0.33413 0.0
C1297 C 0.09504 0.53194 0.3434 0.0
C1298 C 0.08583 0.53501 0.35712 0.0
H1299 H 0.02684 0.5261 0.36109 0.0
H1300 H 0.04554 0.52911 0.35087 0.0
H1301 H 0.03863 0.50923 0.35505 0.0
H1302 H 0.06583 0.49772 0.35601 0.0
H1303 H 0.08183 0.49231 0.33197 0.0
H1304 H 0.77307 0.75454 0.83076 0.0
H1305 H 0.77176 0.73748 0.85209 0.0
H1306 H 0.82248 0.74855 0.86165 0.0
H1307 H 0.82379 0.76613 0.84068 0.0
H1308 H 0.78763 0.71031 0.85606 0.0
H1309 H 0.80322 0.76014 0.90559 0.0
H1310 H 0.79773 0.76389 0.88582 0.0
H1311 H 0.81761 0.75841 0.88986 0.0
C1312 C 0.78394 0.75349 0.83749 0.0
C1313 C 0.79851 0.76188 0.8341 0.0
C1314 C 0.78319 0.74362 0.84961 0.0
C1315 C 0.79695 0.74194 0.85867 0.0
C1316 C 0.81162 0.74991 0.85504 0.0
H1317 H 0.81161 0.68993 0.93982 0.0
H1318 H 0.81522 0.70533 0.91728 0.0
C1319 C 0.81239 0.75982 0.84291 0.0
C1320 C 0.79585 0.73185 0.87189 0.0
H1321 H 0.80067 0.73348 0.91229 0.0
C1322 C 0.79047 0.71538 0.86835 0.0
C1323 C 0.79956 0.73847 0.88795 0.0
C1324 C 0.80472 0.75622 0.89262 0.0
C1325 C 0.78883 0.70532 0.8804 0.0
C1326 C 0.79241 0.71198 0.89645 0.0
C1327 C 0.79794 0.7284 0.89997 0.0
C1328 C 0.79022 0.70219 0.90983 0.0
C1329 C 0.78348 0.68761 0.87579 0.0
C1330 C 0.77493 0.69539 0.91322 0.0
C1331 C 0.77283 0.68653 0.92606 0.0
C1332 C 0.78597 0.68431 0.93584 0.0
C1333 C 0.80127 0.69118 0.93241 0.0
C1334 C 0.80335 0.70008 0.91959 0.0
H1335 H 0.78536 0.68354 0.86291 0.0
H1336 H 0.79003 0.67991 0.88294 0.0
H1337 H 0.77046 0.68568 0.87812 0.0
H1338 H 0.76457 0.6971 0.90603 0.0
H1339 H 0.76091 0.68133 0.92827 0.0
H1340 H 0.06002 0.98412 0.44073 0.0
H1341 H 0.04517 0.99205 0.41838 0.0
H1342 H 1.00191 0.99214 0.446 0.0
H1343 H 0.01679 0.98497 0.46864 0.0
H1344 H 0.01958 0.97611 0.40137 0.0
H1345 H 1.00273 0.03594 0.43058 0.0
H1346 H 0.01764 0.02485 0.43901 0.0
H1347 H 0.99659 0.01962 0.44152 0.0
C1348 C 0.0474 0.98609 0.44216 0.0
C1349 C 0.03964 0.98399 0.45655 0.0
C1350 C 0.0389 0.99051 0.42932 0.0
C1351 C 0.02249 0.99296 0.4306 0.0
C1352 C 0.01465 0.99067 0.44485 0.0
H1353 H 0.94761 0.01108 0.36546 0.0
H1354 H 0.96347 0.00504 0.38803 0.0
C1355 C 0.02314 0.98634 0.45772 0.0
C1356 C 0.01345 0.9974 0.41685 0.0
H1357 H 0.98968 0.02565 0.40569 0.0
C1358 C 0.01315 0.987 0.40228 0.0
C1359 C 0.00506 0.01163 0.41805 0.0
C1360 C 0.00563 0.02374 0.43308 0.0
C1361 C 0.0044 0.99027 0.38899 0.0
C1362 C 0.99586 0.00437 0.39028 0.0
C1363 C 0.99621 0.01481 0.40479 0.0
C1364 C 0.98639 0.00842 0.37669 0.0
C1365 C 0.00407 0.97845 0.37377 0.0
C1366 C 0.99407 0.01258 0.36296 0.0
C1367 C 0.98507 0.01622 0.35009 0.0
C1368 C 0.96819 0.01577 0.3507 0.0
C1369 C 0.96058 0.01177 0.36462 0.0
C1370 C 0.9696 0.00821 0.37751 0.0
H1371 H 0.0086 0.96668 0.37568 0.0
H1372 H 0.99167 0.97618 0.36869 0.0
H1373 H 0.01177 0.9837 0.36483 0.0
H1374 H 0.00704 0.01307 0.36222 0.0
H1375 H 0.99136 0.01954 0.33971 0.0
H1376 H 0.22269 0.28177 0.69888 0.0
H1377 H 0.22274 0.26223 0.6743 0.0
H1378 H 0.27371 0.25922 0.68024 0.0
H1379 H 0.27375 0.27863 0.70473 0.0
H1380 H 0.24347 0.26689 0.64639 0.0
H1381 H 0.25351 0.21097 0.67274 0.0
H1382 H 0.24534 0.22842 0.68398 0.0
H1383 H 0.26649 0.2286 0.68024 0.0
C1384 C 0.23385 0.27676 0.69503 0.0
C1385 C 0.24822 0.28174 0.70368 0.0
C1386 C 0.23387 0.26568 0.68098 0.0
C1387 C 0.24821 0.25922 0.67556 0.0
C1388 C 0.2625 0.26395 0.68433 0.0
H1389 H 0.28314 0.19569 0.59694 0.0
H1390 H 0.2786 0.21332 0.62175 0.0
C1391 C 0.26252 0.27511 0.69824 0.0
C1392 C 0.24853 0.2481 0.66033 0.0
H1393 H 0.2567 0.20972 0.64472 0.0
C1394 C 0.24617 0.25432 0.64597 0.0
C1395 C 0.25217 0.23179 0.6599 0.0
C1396 C 0.25441 0.22444 0.67502 0.0
C1397 C 0.24795 0.24481 0.63112 0.0
C1398 C 0.25179 0.22851 0.63066 0.0
C1399 C 0.25378 0.22221 0.64507 0.0
C1400 C 0.25439 0.21794 0.6154 0.0
C1401 C 0.24637 0.25253 0.61611 0.0
C1402 C 0.24225 0.21454 0.60358 0.0
C1403 C 0.2449 0.20466 0.58922 0.0
C1404 C 0.2597 0.19779 0.58645 0.0
C1405 C 0.27173 0.20102 0.59846 0.0
C1406 C 0.2691 0.21098 0.61275 0.0
H1407 H 0.24769 0.26599 0.61863 0.0
H1408 H 0.25551 0.24848 0.60726 0.0
H1409 H 0.23429 0.24893 0.61064 0.0
H1410 H 0.23068 0.21947 0.60548 0.0
H1411 H 0.2354 0.20254 0.58024 0.0
H1412 H 0.55993 0.54723 0.60804 0.0
H1413 H 0.546 0.54495 0.6332 0.0
H1414 H 0.50145 0.53106 0.60708 0.0
H1415 H 0.51529 0.53304 0.58193 0.0
H1416 H 0.51907 0.56251 0.64478 0.0
H1417 H 0.50464 0.49585 0.63676 0.0
H1418 H 0.51988 0.50548 0.62539 0.0
H1419 H 0.49901 0.5056 0.62011 0.0
C1420 C 0.54721 0.54347 0.60766 0.0
C1421 C 0.53871 0.54032 0.59301 0.0
C1422 C 0.53927 0.54226 0.62203 0.0
C1423 C 0.52274 0.53768 0.62197 0.0
C1424 C 0.51425 0.5344 0.60737 0.0
H1425 H 0.44791 0.52576 0.68994 0.0
H1426 H 0.46456 0.52721 0.66641 0.0
C1427 C 0.52215 0.53568 0.59303 0.0
C1428 C 0.51416 0.53692 0.63718 0.0
H1429 H 0.49149 0.51132 0.65784 0.0
C1430 C 0.51316 0.55131 0.64775 0.0
C1431 C 0.50644 0.52229 0.64095 0.0
C1432 C 0.50762 0.50638 0.63029 0.0
C1433 C 0.50417 0.55157 0.66177 0.0
C1434 C 0.49626 0.53696 0.66544 0.0
C1435 C 0.49752 0.52252 0.65498 0.0
C1436 C 0.48625 0.53641 0.67984 0.0
C1437 C 0.50274 0.56758 0.67219 0.0
C1438 C 0.49294 0.54101 0.69523 0.0
C1439 C 0.48343 0.54023 0.70872 0.0
C1440 C 0.4671 0.53463 0.70706 0.0
C1441 C 0.46048 0.52996 0.69163 0.0
C1442 C 0.46996 0.53083 0.67817 0.0
H1443 H 0.50597 0.57803 0.66569 0.0
H1444 H 0.49034 0.56856 0.67671 0.0
H1445 H 0.51106 0.56847 0.68262 0.0
H1446 H 0.50557 0.54499 0.69683 0.0
H1447 H 0.48894 0.54367 0.72045 0.0
H1448 H 0.76407 0.26656 0.70391 0.0
H1449 H 0.75555 0.27915 0.6809 0.0
H1450 H 0.80152 0.27161 0.65919 0.0
H1451 H 0.80983 0.25879 0.68199 0.0
H1452 H 0.76972 0.30673 0.67227 0.0
H1453 H 0.77164 0.25769 0.62132 0.0
H1454 H 0.77175 0.25381 0.64182 0.0
H1455 H 0.79004 0.26065 0.63278 0.0
C1456 C 0.7721 0.26718 0.69395 0.0
C1457 C 0.78746 0.26155 0.69446 0.0
C1458 C 0.76729 0.27444 0.68088 0.0
C1459 C 0.7778 0.27614 0.66817 0.0
C1460 C 0.79302 0.27006 0.66859 0.0
H1461 H 0.78876 0.3324 0.59067 0.0
H1462 H 0.79108 0.31466 0.61116 0.0
C1463 C 0.79779 0.26278 0.68162 0.0
C1464 C 0.77358 0.28569 0.65533 0.0
H1465 H 0.77218 0.28487 0.6148 0.0
C1466 C 0.77 0.30187 0.65971 0.0
C1467 C 0.77401 0.27937 0.63893 0.0
C1468 C 0.77691 0.26188 0.63343 0.0
C1469 C 0.76747 0.31206 0.64816 0.0
C1470 C 0.76836 0.30587 0.63179 0.0
C1471 C 0.77157 0.28961 0.62738 0.0
C1472 C 0.76661 0.31628 0.61908 0.0
C1473 C 0.76448 0.32956 0.65357 0.0
C1474 C 0.752 0.32294 0.61661 0.0
C1475 C 0.75058 0.33302 0.60482 0.0
C1476 C 0.76375 0.33662 0.59522 0.0
C1477 C 0.77831 0.32975 0.59767 0.0
C1478 C 0.77969 0.31965 0.60942 0.0
H1479 H 0.76729 0.33322 0.66649 0.0
H1480 H 0.77179 0.33773 0.64663 0.0
H1481 H 0.75163 0.33131 0.6515 0.0
H1482 H 0.74167 0.32027 0.62377 0.0
H1483 H 0.73911 0.33783 0.60309 0.0
H1484 H 0.5141 1.00254 0.57103 0.0
H1485 H 0.52961 0.00712 0.59622 0.0
H1486 H 0.5146 0.95867 0.60513 0.0
H1487 H 0.49882 0.95408 0.58022 0.0
H1488 H 0.51978 1.0019 0.63029 0.0
H1489 H 0.56575 0.96242 0.60256 0.0
H1490 H 0.55179 0.97164 0.59083 0.0
H1491 H 0.54512 0.9544 0.60028 0.0
C1492 C 0.51378 0.993 0.57854 0.0
C1493 C 0.50537 0.97787 0.57352 0.0
C1494 C 0.52271 0.99561 0.59287 0.0
C1495 C 0.52341 0.98314 0.60237 0.0
C1496 C 0.51436 0.96836 0.59784 0.0
H1497 H 0.58444 0.968 0.68172 0.0
H1498 H 0.56476 0.96529 0.65979 0.0
C1499 C 0.5054 0.96576 0.58358 0.0
C1500 C 0.53436 0.98515 0.61649 0.0
H1501 H 0.56922 0.97236 0.62991 0.0
C1502 C 0.53062 0.99549 0.63025 0.0
C1503 C 0.54843 0.97671 0.61636 0.0
C1504 C 0.55316 0.96573 0.60171 0.0
C1505 C 0.54048 0.99741 0.64404 0.0
C1506 C 0.55466 0.98906 0.64389 0.0
C1507 C 0.55836 0.97873 0.63006 0.0
C1508 C 0.56596 0.99093 0.65781 0.0
C1509 C 0.53539 0.00805 0.65876 0.0
C1510 C 0.57326 0.00623 0.66398 0.0
C1511 C 0.58438 0.00785 0.67665 0.0
C1512 C 0.58863 0.99417 0.68332 0.0
C1513 C 0.58131 0.97884 0.67707 0.0
C1514 C 0.57012 0.97725 0.66445 0.0
H1515 H 0.52227 0.0095 0.65853 0.0
H1516 H 0.53844 1.00301 0.6698 0.0
H1517 H 0.54175 0.02028 0.65929 0.0
H1518 H 0.57054 0.01693 0.65884 0.0
H1519 H 0.58959 0.01988 0.68125 0.0
H1520 H 0.83111 0.24769 0.76996 0.0
H1521 H 0.85478 0.24742 0.78712 0.0
H1522 H 0.86666 0.20247 0.75979 0.0
H1523 H 0.84288 0.20258 0.7427 0.0
H1524 H 0.8697 0.20183 0.7917 0.0
H1525 H 0.90095 0.25823 0.77572 0.0
H1526 H 0.88116 0.26109 0.78321 0.0
H1527 H 0.88364 0.24809 0.7647 0.0
C1528 C 0.83884 0.23782 0.76754 0.0
C1529 C 0.8352 0.22521 0.75491 0.0
C1530 C 0.85238 0.23769 0.77733 0.0
C1531 C 0.86267 0.22509 0.77455 0.0
C1532 C 0.85893 0.21235 0.76211 0.0
H1533 H 0.95947 0.22941 0.81426 0.0
H1534 H 0.93579 0.22759 0.79672 0.0
C1535 C 0.84532 0.21241 0.75238 0.0
C1536 C 0.87724 0.22507 0.78472 0.0
H1537 H 0.91191 0.24748 0.79771 0.0
C1538 C 0.87898 0.21178 0.79297 0.0
C1539 C 0.88945 0.23793 0.78617 0.0
C1540 C 0.88883 0.25207 0.77686 0.0
C1541 C 0.89245 0.21113 0.80284 0.0
C1542 C 0.90434 0.2243 0.80479 0.0
C1543 C 0.90272 0.23746 0.79634 0.0
C1544 C 0.91865 0.22468 0.81541 0.0
C1545 C 0.89395 0.19619 0.81081 0.0
C1546 C 0.91691 0.22369 0.83178 0.0
C1547 C 0.93044 0.22464 0.84181 0.0
C1548 C 0.94597 0.22685 0.83571 0.0
C1549 C 0.94767 0.22785 0.81933 0.0
C1550 C 0.93415 0.22677 0.80929 0.0
H1551 H 0.88659 0.18554 0.80451 0.0
H1552 H 0.90664 0.19312 0.81127 0.0
H1553 H 0.88959 0.19849 0.82323 0.0
H1554 H 0.90508 0.2225 0.83686 0.0
H1555 H 0.92875 0.22408 0.85442 0.0
H1556 H 0.52186 0.93934 0.52986 0.0
H1557 H 0.52611 0.91369 0.51311 0.0
H1558 H 0.47736 0.91091 0.49522 0.0
H1559 H 0.47295 0.93643 0.51198 0.0
H1560 H 0.50942 0.88285 0.5125 0.0
H1561 H 0.50398 0.90606 0.4544 0.0
H1562 H 0.50693 0.91932 0.4731 0.0
H1563 H 0.48733 0.90977 0.46739 0.0
C1564 C 0.512 0.93321 0.52245 0.0
C1565 C 0.49709 0.93999 0.52219 0.0
C1566 C 0.51448 0.9186 0.51284 0.0
C1567 C 0.50214 0.91056 0.50273 0.0
C1568 C 0.48716 0.91712 0.50266 0.0
H1569 H 0.48907 0.82242 0.43587 0.0
H1570 H 0.48636 0.84783 0.45349 0.0
C1571 C 0.48467 0.93171 0.51224 0.0
C1572 C 0.50482 0.89519 0.49238 0.0
H1573 H 0.50435 0.8775 0.45345 0.0
C1574 C 0.50843 0.88168 0.49958 0.0
C1575 C 0.50353 0.89373 0.47554 0.0
C1576 C 0.50038 0.90802 0.4671 0.0
C1577 C 0.51035 0.86661 0.4904 0.0
C1578 C 0.50887 0.86511 0.47356 0.0
C1579 C 0.50543 0.87867 0.46637 0.0
C1580 C 0.51058 0.84953 0.46318 0.0
C1581 C 0.51347 0.8523 0.49881 0.0
C1582 C 0.52515 0.84212 0.46267 0.0
C1583 C 0.5267 0.82752 0.45268 0.0
C1584 C 0.51373 0.82009 0.44295 0.0
C1585 C 0.4992 0.82765 0.44341 0.0
C1586 C 0.49767 0.84223 0.45338 0.0
H1587 H 0.5104 0.85446 0.51166 0.0
H1588 H 0.50645 0.84114 0.49312 0.0
H1589 H 0.52641 0.85015 0.498 0.0
H1590 H 0.53535 0.84769 0.46993 0.0
H1591 H 0.53803 0.82198 0.45269 0.0
H1592 H 0.21092 0.26359 0.76525 0.0
H1593 H 0.18702 0.25066 0.77661 0.0
H1594 H 0.16053 0.29173 0.76984 0.0
H1595 H 0.18424 0.30436 0.7582 0.0
H1596 H 0.17373 0.26299 0.80362 0.0
H1597 H 0.1272 0.25514 0.75588 0.0
H1598 H 0.14827 0.25906 0.75194 0.0
H1599 H 0.13622 0.27553 0.75899 0.0
C1600 C 0.19978 0.26951 0.76571 0.0
C1601 C 0.19919 0.28478 0.76071 0.0
C1602 C 0.18619 0.2622 0.77226 0.0
C1603 C 0.17188 0.27011 0.7739 0.0
C1604 C 0.17123 0.28516 0.76831 0.0
H1605 H 0.10291 0.27119 0.84824 0.0
H1606 H 0.12554 0.27512 0.83063 0.0
C1607 C 0.18478 0.2924 0.76172 0.0
C1608 C 0.15836 0.26378 0.78321 0.0
H1609 H 0.11755 0.25632 0.78292 0.0
C1610 C 0.16148 0.26127 0.79899 0.0
C1611 C 0.14238 0.26134 0.77715 0.0
C1612 C 0.13834 0.26274 0.76 0.0
C1613 C 0.14902 0.25715 0.80909 0.0
C1614 C 0.13293 0.25588 0.80339 0.0
C1615 C 0.12986 0.25757 0.78737 0.0
C1616 C 0.11915 0.25339 0.81403 0.0
C1617 C 0.15322 0.25428 0.82582 0.0
C1618 C 0.10774 0.24014 0.81031 0.0
C1619 C 0.0947 0.23793 0.82032 0.0
C1620 C 0.09283 0.24895 0.83423 0.0
C1621 C 0.10419 0.2623 0.83781 0.0
C1622 C 0.11715 0.26455 0.82776 0.0
H1623 H 0.16569 0.25061 0.8266 0.0
H1624 H 0.15243 0.26571 0.83411 0.0
H1625 H 0.14484 0.24476 0.82988 0.0
H1626 H 0.109 0.23143 0.79973 0.0
H1627 H 0.08621 0.22747 0.81729 0.0
H1628 H 0.5518 0.56156 0.49827 0.0
H1629 H 0.55356 0.58064 0.47848 0.0
H1630 H 0.54888 0.62042 0.51616 0.0
H1631 H 0.54755 0.60145 0.53583 0.0
H1632 H 0.53007 0.59885 0.47189 0.0
H1633 H 0.58389 0.63982 0.49083 0.0
H1634 H 0.57991 0.62057 0.49809 0.0
H1635 H 0.57048 0.63822 0.50711 0.0
C1636 C 0.5517 0.57445 0.50228 0.0
C1637 C 0.54982 0.58018 0.51849 0.0
C1638 C 0.5526 0.58532 0.49101 0.0
C1639 C 0.55159 0.60203 0.49582 0.0
C1640 C 0.55016 0.6077 0.51215 0.0
H1641 H 0.52662 0.68581 0.45611 0.0
H1642 H 0.53295 0.66505 0.47243 0.0
C1643 C 0.54935 0.59686 0.52339 0.0
C1644 C 0.55025 0.61332 0.48378 0.0
H1645 H 0.56446 0.65031 0.47446 0.0
C1646 C 0.53779 0.60995 0.47227 0.0
C1647 C 0.56029 0.62785 0.48427 0.0
C1648 C 0.57449 0.63174 0.49564 0.0
C1649 C 0.53466 0.62102 0.46174 0.0
C1650 C 0.54428 0.63581 0.46269 0.0
C1651 C 0.55703 0.639 0.47386 0.0
C1652 C 0.54084 0.64841 0.45266 0.0
C1653 C 0.52068 0.61716 0.45009 0.0
C1654 C 0.54329 0.64596 0.43613 0.0
C1655 C 0.53984 0.65789 0.42675 0.0
C1656 C 0.53384 0.6725 0.43372 0.0
C1657 C 0.53144 0.67486 0.45033 0.0
C1658 C 0.53497 0.66297 0.45969 0.0
H1659 H 0.51298 0.60633 0.45246 0.0
H1660 H 0.51317 0.62765 0.45062 0.0
H1661 H 0.52529 0.61477 0.43778 0.0
H1662 H 0.54798 0.63486 0.43051 0.0
H1663 H 0.54211 0.65575 0.41406 0.0
H1664 H 0.82718 0.7581 0.78459 0.0
H1665 H 0.85004 0.75815 0.76675 0.0
H1666 H 0.85048 0.81014 0.76934 0.0
H1667 H 0.82802 0.8103 0.78783 0.0
H1668 H 0.85326 0.76784 0.73747 0.0
H1669 H 0.89685 0.8046 0.78025 0.0
H1670 H 0.87773 0.79616 0.7864 0.0
H1671 H 0.87886 0.81432 0.77707 0.0
C1672 C 0.83226 0.7696 0.78158 0.0
C1673 C 0.82584 0.78423 0.78786 0.0
C1674 C 0.84527 0.76958 0.77124 0.0
C1675 C 0.8522 0.78417 0.76691 0.0
C1676 C 0.84559 0.79876 0.77279 0.0
H1677 H 0.9332 0.80339 0.70515 0.0
H1678 H 0.90916 0.80563 0.72159 0.0
C1679 C 0.83259 0.7988 0.78322 0.0
C1680 C 0.86623 0.78395 0.75611 0.0
H1681 H 0.9056 0.79796 0.75373 0.0
C1682 C 0.8647 0.77443 0.74104 0.0
C1683 C 0.88118 0.79254 0.76075 0.0
C1684 C 0.88386 0.80237 0.77705 0.0
C1685 C 0.87765 0.7733 0.73051 0.0
C1686 C 0.8926 0.78178 0.73521 0.0
C1687 C 0.8941 0.79149 0.75015 0.0
C1688 C 0.90697 0.78034 0.72497 0.0
C1689 C 0.87521 0.76313 0.71436 0.0
C1690 C 0.91379 0.76542 0.72154 0.0
C1691 C 0.92751 0.7641 0.71217 0.0
C1692 C 0.93471 0.77769 0.70603 0.0
C1693 C 0.92784 0.79264 0.70951 0.0
C1694 C 0.91416 0.79397 0.71897 0.0
H1695 H 0.86227 0.76069 0.71104 0.0
H1696 H 0.88141 0.7692 0.70495 0.0
H1697 H 0.88037 0.75131 0.71465 0.0
H1698 H 0.90857 0.75479 0.72623 0.0
H1699 H 0.93241 0.75238 0.70963 0.0
H1700 H 0.06435 0.91841 0.51072 0.0
H1701 H 0.06475 0.89884 0.52994 0.0
H1702 H 0.03868 0.93051 0.56339 0.0
H1703 H 0.0385 0.95014 0.54427 0.0
H1704 H 0.06254 0.91468 0.57805 0.0
H1705 H 0.02263 0.87177 0.53639 0.0
H1706 H 0.04137 0.87837 0.52814 0.0
H1707 H 0.02678 0.89277 0.53381 0.0
C1708 C 0.05914 0.92134 0.52237 0.0
C1709 C 0.0515 0.93573 0.52617 0.0
C1710 C 0.05923 0.91012 0.53326 0.0
C1711 C 0.05149 0.91309 0.54798 0.0
C1712 C 0.04469 0.92796 0.5521 0.0
H1713 H 0.00831 0.84424 0.60538 0.0
H1714 H 0.01462 0.86562 0.58884 0.0
C1715 C 0.04464 0.93917 0.54123 0.0
C1716 C 0.04927 0.90026 0.55851 0.0
H1717 H 0.03059 0.86269 0.56021 0.0
C1718 C 0.05563 0.90327 0.57415 0.0
C1719 C 0.04001 0.8855 0.55347 0.0
C1720 C 0.03216 0.88189 0.5371 0.0
C1721 C 0.05303 0.89187 0.58486 0.0
C1722 C 0.04396 0.87702 0.57973 0.0
C1723 C 0.03762 0.87403 0.5641 0.0
C1724 C 0.04039 0.86458 0.59048 0.0
C1725 C 0.0596 0.89601 0.60171 0.0
C1726 C 0.05277 0.85685 0.59691 0.0
C1727 C 0.0492 0.84467 0.60649 0.0
C1728 C 0.03316 0.83991 0.60978 0.0
C1729 C 0.0208 0.84775 0.60334 0.0
C1730 C 0.02438 0.8599 0.59377 0.0
H1731 H 0.0629 0.90922 0.60484 0.0
H1732 H 0.05073 0.89214 0.61044 0.0
H1733 H 0.07058 0.88952 0.60291 0.0
H1734 H 0.0652 0.86006 0.59432 0.0
H1735 H 0.05903 0.839 0.61134 0.0
H1736 H 0.20232 0.74555 0.77614 0.0
H1737 H 0.17899 0.75652 0.76473 0.0
H1738 H 0.14921 0.71416 0.77344 0.0
H1739 H 0.17242 0.70342 0.78506 0.0
H1740 H 0.1624 0.7421 0.7382 0.0
H1741 H 0.12054 0.74989 0.78869 0.0
H1742 H 0.14159 0.74722 0.79148 0.0
H1743 H 0.12757 0.72994 0.7855 0.0
C1744 C 0.19065 0.73887 0.77599 0.0
C1745 C 0.18897 0.72381 0.7816 0.0
C1746 C 0.17738 0.74508 0.76943 0.0
C1747 C 0.16227 0.73629 0.76843 0.0
C1748 C 0.1606 0.72138 0.77445 0.0
H1749 H 0.07259 0.73387 0.71752 0.0
H1750 H 0.09561 0.72953 0.73406 0.0
C1751 C 0.17385 0.71522 0.78103 0.0
C1752 C 0.14868 0.7418 0.75967 0.0
H1753 H 0.10899 0.74909 0.76246 0.0
C1754 C 0.15079 0.74388 0.74358 0.0
C1755 C 0.13351 0.74405 0.76666 0.0
C1756 C 0.13069 0.74282 0.78408 0.0
C1757 C 0.13801 0.74752 0.73414 0.0
C1758 C 0.12274 0.74935 0.74103 0.0
C1759 C 0.1207 0.74763 0.7572 0.0
C1760 C 0.10862 0.75241 0.73145 0.0
C1761 C 0.14077 0.74877 0.71671 0.0
C1762 C 0.10821 0.76681 0.72468 0.0
C1763 C 0.0951 0.7693 0.71514 0.0
C1764 C 0.08214 0.75742 0.71222 0.0
C1765 C 0.08248 0.74315 0.71931 0.0
C1766 C 0.09556 0.7407 0.72887 0.0
H1767 H 0.15221 0.74378 0.71252 0.0
H1768 H 0.13073 0.74222 0.7092 0.0
H1769 H 0.14133 0.76171 0.71489 0.0
H1770 H 0.11808 0.77609 0.72668 0.0
H1771 H 0.09527 0.78038 0.7098 0.0
H1772 H 0.99745 0.58301 0.49105 0.0
H1773 H 1.00322 0.60954 0.50751 0.0
H1774 H 0.98063 0.59083 0.54763 0.0
H1775 H 0.97511 0.56441 0.53148 0.0
H1776 H 0.98032 0.62994 0.52462 0.0
H1777 H 0.02532 0.61054 0.56515 0.0
H1778 H 0.01964 0.59899 0.54601 0.0
H1779 H 0.00695 0.59771 0.56297 0.0
C1780 C 0.99383 0.58456 0.50341 0.0
C1781 C 0.98576 0.57163 0.50993 0.0
C1782 C 0.99706 0.59971 0.51276 0.0
C1783 C 0.9925 0.60207 0.52883 0.0
C1784 C 0.98443 0.58921 0.53532 0.0
H1785 H 0.99199 0.67527 0.61032 0.0
H1786 H 0.98988 0.65088 0.59056 0.0
C1787 C 0.98113 0.57416 0.52601 0.0
C1788 C 0.99581 0.618 0.53891 0.0
H1789 H 0.01442 0.63585 0.57369 0.0
C1790 C 0.98795 0.63134 0.53523 0.0
C1791 C 0.00575 0.61976 0.55275 0.0
C1792 C 0.01503 0.60604 0.55692 0.0
C1793 C 0.98918 0.6462 0.54545 0.0
C1794 C 0.99876 0.6478 0.55954 0.0
C1795 C 0.007 0.63459 0.56293 0.0
C1796 C 0.99991 0.66282 0.57131 0.0
C1797 C 0.97968 0.65982 0.54141 0.0
C1798 C 0.00636 0.67765 0.56709 0.0
C1799 C 0.00762 0.69164 0.57839 0.0
C1800 C 1.00257 0.69105 0.59418 0.0
C1801 C 0.99617 0.67614 0.59834 0.0
C1802 C 0.99489 0.66219 0.58704 0.0
H1803 H 0.97016 0.65547 0.53226 0.0
H1804 H 0.97399 0.66589 0.55223 0.0
H1805 H 0.9879 0.66899 0.5366 0.0
H1806 H 0.01064 0.67835 0.55512 0.0
H1807 H 0.01285 0.70285 0.57485 0.0
H1808 H 0.7552 0.85796 0.23559 0.0
H1809 H 0.77549 0.88086 0.2389 0.0
H1810 H 0.81217 0.84859 0.22389 0.0
H1811 H 0.79199 0.82545 0.22112 0.0
H1812 H 0.82076 0.86918 0.25111 0.0
H1813 H 0.79846 0.9039 0.20532 0.0
H1814 H 0.78324 0.89908 0.21917 0.0
H1815 H 0.79162 0.883 0.2062 0.0
C1816 C 0.76758 0.8557 0.233 0.0
C1817 C 0.77198 0.83985 0.22813 0.0
C1818 C 0.77914 0.86885 0.2347 0.0
C1819 C 0.7953 0.86647 0.2314 0.0
C1820 C 0.79973 0.85071 0.22637 0.0
H1821 H 0.86764 0.94754 0.2294 0.0
H1822 H 0.85004 0.92277 0.22231 0.0
C1823 C 0.78817 0.83752 0.2247 0.0
C1824 C 0.80766 0.88035 0.23408 0.0
H1825 H 0.81737 0.91832 0.22461 0.0
C1826 C 0.82012 0.87986 0.2452 0.0
C1827 C 0.80694 0.89419 0.2262 0.0
C1828 C 0.79444 0.89504 0.21344 0.0
C1829 C 0.83156 0.89306 0.24906 0.0
C1830 C 0.8303 0.90725 0.24183 0.0
C1831 C 0.81819 0.90752 0.2303 0.0
C1832 C 0.84128 0.92204 0.24626 0.0
C1833 C 0.84491 0.89165 0.26079 0.0
C1834 C 0.84208 0.92994 0.26204 0.0
C1835 C 0.85223 0.94401 0.26616 0.0
C1836 C 0.8617 0.95057 0.25454 0.0
C1837 C 0.86073 0.94269 0.2387 0.0
C1838 C 0.85059 0.92859 0.2346 0.0
H1839 H 0.84696 0.87877 0.26151 0.0
H1840 H 0.85633 0.89796 0.25747 0.0
H1841 H 0.84158 0.89732 0.27285 0.0
H1842 H 0.83475 0.92529 0.27117 0.0
H1843 H 0.85276 0.94968 0.27849 0.0
H1844 H 0.74778 0.16562 0.30389 0.0
H1845 H 0.7695 0.14755 0.30198 0.0
H1846 H 0.80299 0.1875 0.32112 0.0
H1847 H 0.78147 0.20592 0.3222 0.0
H1848 H 0.81524 0.1702 0.29605 0.0
H1849 H 0.79081 0.12807 0.33655 0.0
H1850 H 0.77684 0.12959 0.32073 0.0
H1851 H 0.78247 0.14715 0.33511 0.0
C1852 C 0.75977 0.17064 0.30761 0.0
C1853 C 0.76283 0.18728 0.31317 0.0
C1854 C 0.77216 0.1602 0.30675 0.0
C1855 C 0.78785 0.16607 0.31171 0.0
C1856 C 0.79095 0.18265 0.31736 0.0
H1857 H 0.862 0.0993 0.32137 0.0
H1858 H 0.84289 0.12005 0.32663 0.0
C1859 C 0.77859 0.19315 0.31809 0.0
C1860 C 0.80111 0.15505 0.31026 0.0
H1861 H 0.81192 0.11869 0.31937 0.0
C1862 C 0.81459 0.15901 0.30129 0.0
C1863 C 0.80043 0.14059 0.31732 0.0
C1864 C 0.78694 0.13618 0.32811 0.0
C1865 C 0.82712 0.14868 0.29876 0.0
C1866 C 0.82595 0.13373 0.30498 0.0
C1867 C 0.81273 0.13003 0.3144 0.0
C1868 C 0.83815 0.12165 0.30172 0.0
C1869 C 0.84157 0.15401 0.28959 0.0
C1870 C 0.84184 0.11555 0.28596 0.0
C1871 C 0.85301 0.10389 0.2829 0.0
C1872 C 0.86055 0.09782 0.29554 0.0
C1873 C 0.85671 0.10387 0.31133 0.0
C1874 C 0.84565 0.11565 0.31437 0.0
H1875 H 0.84307 0.16744 0.29033 0.0
H1876 H 0.85276 0.14971 0.29412 0.0
H1877 H 0.83988 0.14892 0.27681 0.0
H1878 H 0.83594 0.11967 0.27598 0.0
H1879 H 0.85574 0.09967 0.2706 0.0
H1880 H 0.44555 0.01239 0.96666 0.0
H1881 H 0.42133 0.99641 0.97299 0.0
H1882 H 0.42441 0.02017 0.02167 0.0
H1883 H 0.44915 0.0356 0.01567 0.0
H1884 H 0.41837 0.98815 0.02054 0.0
H1885 H 0.37645 0.01038 0.97901 0.0
H1886 H 0.39348 1.00215 0.96897 0.0
H1887 H 0.39634 0.02003 0.98357 0.0
C1888 C 0.44116 0.01417 0.97875 0.0
C1889 C 0.44933 0.02534 0.99064 0.0
C1890 C 0.42715 0.00518 0.98229 0.0
C1891 C 0.42085 0.00732 0.99773 0.0
C1892 C 0.42896 0.01843 0.00963 0.0
H1893 H 0.32562 0.96665 0.0207 0.0
H1894 H 0.34893 0.98495 0.01603 0.0
C1895 C 0.44304 0.02734 0.00614 0.0
C1896 C 0.40619 0.99747 1.00161 0.0
H1897 H 0.36716 0.98654 0.99008 0.0
C1898 C 0.40714 0.9879 0.01396 0.0
C1899 C 0.39145 0.99733 0.99321 0.0
C1900 C 0.38929 0.00816 0.98057 0.0
C1901 C 0.39389 0.97788 0.01785 0.0
C1902 C 0.37941 0.97707 0.00887 0.0
C1903 C 0.37832 0.98698 0.99682 0.0
C1904 C 0.36529 0.96596 0.01171 0.0
C1905 C 0.39551 0.96842 0.0317 0.0
C1906 C 0.36667 0.94918 0.01058 0.0
C1907 C 0.35341 0.93873 0.01333 0.0
C1908 C 0.33843 0.94483 0.01702 0.0
C1909 C 0.33698 0.96159 0.0178 0.0
C1910 C 0.3503 0.97206 0.01518 0.0
H1911 H 0.4052 0.97409 0.04019 0.0
H1912 H 0.3841 0.96752 0.03832 0.0
H1913 H 0.39865 0.95597 0.02711 0.0
H1914 H 0.37798 0.94413 0.00745 0.0
H1915 H 0.35482 0.92584 0.01235 0.0
H1916 H 0.25341 0.31231 0.28673 0.0
H1917 H 0.23845 0.3324 0.27541 0.0
H1918 H 0.27331 0.37043 0.29609 0.0
H1919 H 0.28832 0.35028 0.30729 0.0
H1920 H 0.22516 0.35752 0.29472 0.0
H1921 H 0.26626 0.3822 0.25113 0.0
H1922 H 0.26879 0.36311 0.25829 0.0
H1923 H 0.27524 0.38192 0.27045 0.0
C1924 C 0.25811 0.3249 0.28839 0.0
C1925 C 0.27206 0.32983 0.29763 0.0
C1926 C 0.24954 0.33636 0.28201 0.0
C1927 C 0.25483 0.35291 0.28475 0.0
C1928 C 0.26918 0.35771 0.29351 0.0
H1929 H 0.21444 0.44352 0.27479 0.0
H1930 H 0.23149 0.42191 0.27921 0.0
C1931 C 0.27773 0.34623 0.29991 0.0
C1932 C 0.24446 0.36524 0.28006 0.0
H1933 H 0.24356 0.39706 0.25865 0.0
C1934 C 0.22911 0.36606 0.28669 0.0
C1935 C 0.24969 0.37646 0.26972 0.0
C1936 C 0.26584 0.37585 0.26185 0.0
C1937 C 0.21901 0.37802 0.2836 0.0
C1938 C 0.22424 0.38929 0.27328 0.0
C1939 C 0.23954 0.3884 0.26653 0.0
C1940 C 0.21413 0.40233 0.26972 0.0
C1941 C 0.20307 0.37881 0.29189 0.0
C1942 C 0.19881 0.39854 0.26261 0.0
C1943 C 0.18901 0.41087 0.26011 0.0
C1944 C 0.19441 0.42728 0.26449 0.0
C1945 C 0.20996 0.43103 0.27116 0.0
C1946 C 0.21971 0.41869 0.27373 0.0
H1947 H 0.20273 0.3722 0.30245 0.0
H1948 H 0.20045 0.39158 0.29585 0.0
H1949 H 0.19338 0.37311 0.28345 0.0
H1950 H 0.19439 0.38601 0.25907 0.0
H1951 H 0.17722 0.40757 0.25469 0.0
H1952 H 0.08513 0.99671 0.5161 0.0
H1953 H 0.11084 0.01307 0.52126 0.0
H1954 H 0.12317 1.00149 0.47177 0.0
H1955 H 0.09766 0.98507 0.46658 0.0
H1956 H 0.14926 1.00086 0.49471 0.0
H1957 H 0.11746 0.05763 0.50364 0.0
H1958 H 0.11105 0.04217 0.51562 0.0
H1959 H 0.10783 0.03851 0.49438 0.0
C1960 C 0.09349 0.99739 0.50642 0.0
C1961 C 0.08935 0.98974 0.49091 0.0
C1962 C 0.10809 0.00683 0.50935 0.0
C1963 C 0.11878 0.00867 0.49684 0.0
C1964 C 0.11505 1.00029 0.48157 0.0
H1965 H 0.19241 0.08227 0.48112 0.0
H1966 H 0.16892 0.06281 0.48049 0.0
C1967 C 0.10046 0.99097 0.47861 0.0
C1968 C 0.13338 0.02006 0.49926 0.0
H1969 H 0.1457 0.06044 0.50551 0.0
C1970 C 0.14853 0.01388 0.49723 0.0
C1971 C 0.13233 0.03704 0.5023 0.0
C1972 C 0.11632 0.04433 0.50401 0.0
C1973 C 0.16267 0.02427 0.4981 0.0
C1974 C 0.1616 0.04125 0.50113 0.0
C1975 C 0.14646 0.04741 0.50325 0.0
C1976 C 0.176 0.05287 0.50157 0.0
C1977 C 0.17861 0.01706 0.49529 0.0
C1978 C 0.1877 0.05382 0.51371 0.0
C1979 C 0.20108 0.06505 0.51421 0.0
C1980 C 0.20303 0.07558 0.50256 0.0
C1981 C 0.19124 0.07454 0.4904 0.0
C1982 C 0.17784 0.06335 0.48997 0.0
H1983 H 0.17714 0.00404 0.49016 0.0
H1984 H 0.18601 0.02378 0.48711 0.0
H1985 H 0.18529 0.01809 0.50682 0.0
H1986 H 0.18636 0.04603 0.52294 0.0
H1987 H 0.20973 0.0657 0.52392 0.0
H1988 H 0.80431 0.17992 0.7228 0.0
H1989 H 0.78609 0.15549 0.72233 0.0
H1990 H 0.74601 0.18504 0.73093 0.0
H1991 H 0.7642 0.20958 0.73155 0.0
H1992 H 0.76756 0.14925 0.74886 0.0
H1993 H 0.72904 0.1491 0.69499 0.0
H1994 H 0.74821 0.16076 0.69796 0.0
H1995 H 0.73086 0.16788 0.70835 0.0
C1996 C 0.79158 0.18122 0.72438 0.0
C1997 C 0.78571 0.1967 0.7273 0.0
C1998 C 0.78119 0.16725 0.72407 0.0
C1999 C 0.76469 0.16843 0.72653 0.0
C2000 C 0.75866 0.18383 0.72874 0.0
H2001 H 0.6853 0.09908 0.74203 0.0
H2002 H 0.70247 0.12325 0.73804 0.0
C2003 C 0.76907 0.19785 0.72906 0.0
C2004 C 0.75415 0.15367 0.72826 0.0
H2005 H 0.72118 0.13002 0.71243 0.0
C2006 C 0.75748 0.14498 0.74084 0.0
C2007 C 0.74092 0.14823 0.71788 0.0
C2008 C 0.73706 0.15687 0.70394 0.0
C2009 C 0.74782 0.13111 0.74345 0.0
C2010 C 0.73467 0.12554 0.73297 0.0
C2011 C 0.73129 0.13427 0.72042 0.0
C2012 C 0.72424 0.11074 0.73493 0.0
C2013 C 0.75156 0.1228 0.75766 0.0
C2014 C 0.73073 0.09563 0.73427 0.0
C2015 C 0.72097 0.0818 0.73658 0.0
C2016 C 0.70446 0.08277 0.73942 0.0
C2017 C 0.69794 0.09788 0.73975 0.0
C2018 C 0.70773 0.11172 0.73751 0.0
H2019 H 0.75903 0.13097 0.7668 0.0
H2020 H 0.74038 0.11852 0.76335 0.0
H2021 H 0.75839 0.11212 0.75364 0.0
H2022 H 0.74337 0.09452 0.73192 0.0
H2023 H 0.72631 0.07031 0.73594 0.0
H2024 H 0.47043 0.03702 0.53093 0.0
H2025 H 0.44943 0.05625 0.53265 0.0
H2026 H 0.41584 0.02007 0.54838 0.0
H2027 H 0.4369 1.00094 0.5468 0.0
H2028 H 0.42166 0.04987 0.51403 0.0
H2029 H 0.4063 0.06113 0.57812 0.0
H2030 H 0.42485 0.05291 0.57133 0.0
H2031 H 0.4065 0.04003 0.57028 0.0
C2032 C 0.4587 0.03344 0.53528 0.0
C2033 C 0.45523 0.0177 0.53898 0.0
C2034 C 0.44671 0.04435 0.53617 0.0
C2035 C 0.4311 0.03967 0.54079 0.0
C2036 C 0.42786 0.0241 0.54513 0.0
H2037 H 0.33682 0.07503 0.53611 0.0
H2038 H 0.36038 0.06037 0.54055 0.0
C2039 C 0.43986 0.01317 0.54422 0.0
C2040 C 0.41783 0.05028 0.53924 0.0
H2041 H 0.38773 0.06914 0.55964 0.0
C2042 C 0.41435 0.05425 0.52404 0.0
C2043 C 0.40822 0.05584 0.55228 0.0
C2044 C 0.41171 0.0524 0.56896 0.0
C2045 C 0.40128 0.06326 0.52142 0.0
C2046 C 0.3916 0.06876 0.53443 0.0
C2047 C 0.39517 0.06493 0.54968 0.0
C2048 C 0.37746 0.0781 0.53233 0.0
C2049 C 0.39763 0.06628 0.50461 0.0
C2050 C 0.37924 0.09308 0.52648 0.0
C2051 C 0.36579 0.10147 0.52389 0.0
C2052 C 0.35028 0.09514 0.52728 0.0
C2053 C 0.34859 0.08032 0.5335 0.0
C2054 C 0.36204 0.0719 0.53601 0.0
H2055 H 0.40353 0.05783 0.49557 0.0
H2056 H 0.38449 0.06499 0.50211 0.0
H2057 H 0.40216 0.07883 0.50317 0.0
H2058 H 0.39106 0.09828 0.52389 0.0
H2059 H 0.36753 0.11299 0.51936 0.0
H2060 H 0.5785 0.52135 0.53143 0.0
H2061 H 0.60192 0.5056 0.52627 0.0
H2062 H 0.61824 0.51992 0.57501 0.0
H2063 H 0.59529 0.5363 0.58007 0.0
H2064 H 0.64309 0.51975 0.55431 0.0
H2065 H 0.60456 0.46211 0.54203 0.0
H2066 H 0.60037 0.47679 0.52921 0.0
H2067 H 0.59677 0.481 0.55028 0.0
C2068 C 0.58724 0.52145 0.54097 0.0
C2069 C 0.58488 0.52996 0.55623 0.0
C2070 C 0.60052 0.51224 0.53805 0.0
C2071 C 0.61162 0.51122 0.55037 0.0
C2072 C 0.60975 0.52037 0.56537 0.0
H2073 H 0.67518 0.43504 0.55729 0.0
H2074 H 0.65389 0.45379 0.56006 0.0
C2075 C 0.59655 0.52964 0.56827 0.0
C2076 C 0.62486 0.50023 0.54789 0.0
H2077 H 0.63246 0.46044 0.53829 0.0
C2078 C 0.64078 0.50678 0.55077 0.0
C2079 C 0.62182 0.48327 0.54355 0.0
C2080 C 0.60496 0.47532 0.54123 0.0
C2081 C 0.65372 0.49686 0.54938 0.0
C2082 C 0.6507 0.47995 0.54463 0.0
C2083 C 0.63478 0.47341 0.54179 0.0
C2084 C 0.6638 0.46873 0.54295 0.0
C2085 C 0.67045 0.50454 0.55346 0.0
C2086 C 0.67637 0.47075 0.53228 0.0
C2087 C 0.68859 0.46008 0.53072 0.0
C2088 C 0.68837 0.44702 0.53964 0.0
C2089 C 0.67564 0.44489 0.55015 0.0
C2090 C 0.66349 0.45563 0.55179 0.0
H2091 H 0.67021 0.51652 0.56101 0.0
H2092 H 0.67751 0.4966 0.55985 0.0
H2093 H 0.67673 0.50649 0.54228 0.0
H2094 H 0.67666 0.48049 0.52501 0.0
H2095 H 0.69808 0.46189 0.52231 0.0
H2096 H 0.71011 0.23154 0.34317 0.0
H2097 H 0.70942 0.25292 0.36616 0.0
H2098 H 0.76044 0.26398 0.36253 0.0
H2099 H 0.7612 0.24286 0.33948 0.0
H2100 H 0.72758 0.25443 0.39541 0.0
H2101 H 0.74158 0.30871 0.36527 0.0
H2102 H 0.73442 0.28924 0.35453 0.0
H2103 H 0.75513 0.29303 0.36081 0.0
C2104 C 0.72113 0.23871 0.34713 0.0
C2105 C 0.73571 0.23552 0.33952 0.0
C2106 C 0.72072 0.25084 0.36029 0.0
C2107 C 0.73484 0.26014 0.36592 0.0
C2108 C 0.74937 0.25711 0.35823 0.0
H2109 H 0.76734 0.33255 0.44387 0.0
H2110 H 0.76361 0.31302 0.4196 0.0
C2111 C 0.7498 0.24495 0.34516 0.0
C2112 C 0.73466 0.27244 0.38034 0.0
H2113 H 0.74345 0.31266 0.39369 0.0
C2114 C 0.73086 0.2672 0.39504 0.0
C2115 C 0.739 0.28905 0.3798 0.0
C2116 C 0.74263 0.29542 0.36424 0.0
C2117 C 0.73189 0.27806 0.40934 0.0
C2118 C 0.7365 0.29466 0.40884 0.0
C2119 C 0.73995 0.29993 0.39406 0.0
C2120 C 0.73849 0.30663 0.42356 0.0
C2121 C 0.72869 0.27152 0.4249 0.0
C2122 C 0.72555 0.30972 0.43378 0.0
C2123 C 0.72769 0.32076 0.44781 0.0
C2124 C 0.7428 0.32904 0.45183 0.0
C2125 C 0.75563 0.32617 0.44135 0.0
C2126 C 0.75348 0.3151 0.42738 0.0
H2127 H 0.72923 0.25815 0.4236 0.0
H2128 H 0.73748 0.27721 0.43431 0.0
H2129 H 0.71648 0.27435 0.42896 0.0
H2130 H 0.71379 0.30357 0.43092 0.0
H2131 H 0.71757 0.32259 0.45562 0.0
H2132 H 0.50361 0.03247 0.9218 0.0
H2133 H 0.52215 0.03406 0.89957 0.0
H2134 H 0.5619 0.04556 0.93312 0.0
H2135 H 0.54331 0.04362 0.95537 0.0
H2136 H 0.54409 0.05775 0.89086 0.0
H2137 H 0.57482 0.00473 0.90563 0.0
H2138 H 0.55624 0.01049 0.91471 0.0
H2139 H 0.57495 0.02146 0.92146 0.0
C2140 C 0.51628 0.03565 0.92438 0.0
C2141 C 0.52213 0.038 0.94016 0.0
C2142 C 0.52685 0.03651 0.91171 0.0
C2143 C 0.54345 0.03963 0.91466 0.0
C2144 C 0.54919 0.04282 0.93055 0.0
H2145 H 0.62236 0.03396 0.84677 0.0
H2146 H 0.60652 0.03927 0.87094 0.0
C2147 C 0.53859 0.04188 0.94324 0.0
C2148 C 0.55467 0.03867 0.90104 0.0
H2149 H 0.58461 0.01693 0.88371 0.0
C2150 C 0.553 0.04888 0.88934 0.0
C2151 C 0.56627 0.02704 0.89903 0.0
C2152 C 0.56814 0.01519 0.91078 0.0
C2153 C 0.56257 0.04774 0.87566 0.0
C2154 C 0.57396 0.03594 0.87355 0.0
C2155 C 0.57588 0.02598 0.8854 0.0
C2156 C 0.58352 0.03324 0.85881 0.0
C2157 C 0.56043 0.05919 0.8636 0.0
C2158 C 0.57586 0.02789 0.844 0.0
C2159 C 0.58486 0.02467 0.83019 0.0
C2160 C 0.60176 0.0267 0.83089 0.0
C2161 C 0.6094 0.03207 0.84579 0.0
C2162 C 0.60036 0.03523 0.85961 0.0
H2163 H 0.5545 0.07011 0.86888 0.0
H2164 H 0.57217 0.06313 0.85871 0.0
H2165 H 0.55275 0.05287 0.85354 0.0
H2166 H 0.56289 0.0259 0.84317 0.0
H2167 H 0.57856 0.02024 0.81902 0.0
H2168 H 0.3047 0.28203 0.35876 0.0
H2169 H 0.30281 0.26356 0.37892 0.0
H2170 H 0.3048 0.22268 0.34199 0.0
H2171 H 0.30669 0.24115 0.32167 0.0
H2172 H 0.27814 0.22143 0.36533 0.0
H2173 H 0.33876 0.23554 0.39368 0.0
H2174 H 0.32801 0.25276 0.39054 0.0
H2175 H 0.33431 0.23938 0.37365 0.0
C2176 C 0.30481 0.26911 0.35493 0.0
C2177 C 0.30581 0.26303 0.33863 0.0
C2178 C 0.30383 0.25859 0.36647 0.0
C2179 C 0.30377 0.24177 0.36195 0.0
C2180 C 0.30491 0.23563 0.34571 0.0
H2181 H 0.30614 0.16911 0.42736 0.0
H2182 H 0.3106 0.18436 0.40473 0.0
C2183 C 0.30607 0.24619 0.33415 0.0
C2184 C 0.30176 0.23066 0.37419 0.0
H2185 H 0.31969 0.22 0.40726 0.0
C2186 C 0.28727 0.221 0.37442 0.0
C2187 C 0.31371 0.23008 0.38598 0.0
C2188 C 0.32965 0.23988 0.38597 0.0
C2189 C 0.28423 0.21114 0.38645 0.0
C2190 C 0.29598 0.21097 0.39854 0.0
C2191 C 0.31067 0.22024 0.39802 0.0
C2192 C 0.29306 0.20156 0.41205 0.0
C2193 C 0.26846 0.20101 0.38622 0.0
C2194 C 0.28178 0.20626 0.42369 0.0
C2195 C 0.27926 0.19764 0.43664 0.0
C2196 C 0.28792 0.18409 0.43817 0.0
C2197 C 0.29916 0.17938 0.42643 0.0
C2198 C 0.30178 0.18811 0.41355 0.0
H2199 H 0.2621 0.19997 0.37449 0.0
H2200 H 0.27039 0.18865 0.38894 0.0
H2201 H 0.26059 0.20674 0.39554 0.0
H2202 H 0.27503 0.21669 0.42281 0.0
H2203 H 0.27044 0.20151 0.44542 0.0
H2204 H 0.54563 0.51036 0.96158 0.0
H2205 H 0.53007 0.51701 0.93906 0.0
H2206 H 0.50838 0.46799 0.93087 0.0
H2207 H 0.52407 0.46112 0.95321 0.0
H2208 H 0.52989 0.50216 0.90658 0.0
H2209 H 0.46967 0.49644 0.93379 0.0
H2210 H 0.4881 0.49832 0.94544 0.0
H2211 H 0.48132 0.47922 0.93403 0.0
C2212 C 0.53765 0.50094 0.95492 0.0
C2213 C 0.53609 0.4852 0.95923 0.0
C2214 C 0.5287 0.5048 0.94212 0.0
C2215 C 0.51793 0.49305 0.93344 0.0
C2216 C 0.5164 0.47732 0.93761 0.0
H2217 H 0.47316 0.49266 0.84063 0.0
H2218 H 0.48899 0.48721 0.86346 0.0
C2219 C 0.52536 0.47343 0.9504 0.0
C2220 C 0.50856 0.49719 0.91981 0.0
H2221 H 0.47032 0.49997 0.9064 0.0
C2222 C 0.51687 0.50173 0.90654 0.0
C2223 C 0.49159 0.49675 0.91989 0.0
C2224 C 0.4821 0.49256 0.93409 0.0
C2225 C 0.50862 0.50556 0.89319 0.0
C2226 C 0.49165 0.50473 0.89311 0.0
C2227 C 0.48334 0.50048 0.90649 0.0
C2228 C 0.48229 0.50822 0.87921 0.0
C2229 C 0.51811 0.51062 0.87933 0.0
C2230 C 0.47315 0.52175 0.88057 0.0
C2231 C 0.4642 0.52501 0.86749 0.0
C2232 C 0.46408 0.51468 0.85284 0.0
C2233 C 0.4732 0.50105 0.8516 0.0
C2234 C 0.48221 0.49787 0.86466 0.0
H2235 H 0.53097 0.51388 0.88258 0.0
H2236 H 0.51742 0.50043 0.86936 0.0
H2237 H 0.51301 0.52115 0.87495 0.0
H2238 H 0.47306 0.52987 0.89172 0.0
H2239 H 0.4575 0.53571 0.86884 0.0
H2240 H 0.77425 0.78537 0.2004 0.0
H2241 H 0.77478 0.76513 0.17665 0.0
H2242 H 0.72307 0.76268 0.17312 0.0
H2243 H 0.72247 0.78339 0.19662 0.0
H2244 H 0.7609 0.73357 0.17023 0.0
H2245 H 0.73684 0.77275 0.12898 0.0
H2246 H 0.74391 0.78062 0.14896 0.0
H2247 H 0.72447 0.76978 0.14581 0.0
C2248 C 0.76298 0.78061 0.19453 0.0
C2249 C 0.74833 0.78617 0.20029 0.0
C2250 C 0.7633 0.76896 0.18102 0.0
C2251 C 0.74899 0.76261 0.17295 0.0
C2252 C 0.73428 0.76765 0.17899 0.0
H2253 H 0.73431 0.69581 0.08396 0.0
H2254 H 0.73028 0.71329 0.10913 0.0
C2255 C 0.73394 0.77935 0.19252 0.0
C2256 C 0.74964 0.75093 0.15809 0.0
H2257 H 0.74181 0.74609 0.11792 0.0
C2258 C 0.75669 0.73629 0.1588 0.0
C2259 C 0.74413 0.75449 0.14319 0.0
C2260 C 0.73703 0.77031 0.14158 0.0
C2261 C 0.75841 0.72513 0.145 0.0
C2262 C 0.75316 0.72883 0.13007 0.0
C2263 C 0.74582 0.74331 0.12939 0.0
C2264 C 0.75562 0.71807 0.11494 0.0
C2265 C 0.76575 0.70942 0.14653 0.0
C2266 C 0.7712 0.71514 0.10976 0.0
C2267 C 0.77355 0.70515 0.09542 0.0
C2268 C 0.76034 0.69791 0.08593 0.0
C2269 C 0.74473 0.70101 0.09109 0.0
C2270 C 0.74241 0.71106 0.10542 0.0
H2271 H 0.76515 0.70651 0.15896 0.0
H2272 H 0.7596 0.69918 0.1384 0.0
H2273 H 0.77858 0.71052 0.14321 0.0
H2274 H 0.78158 0.72067 0.11679 0.0
H2275 H 0.78571 0.70292 0.09187 0.0
H2276 H 0.03568 0.06471 0.09139 0.0
H2277 H 0.0212 0.06608 0.11661 0.0
H2278 H 0.03431 0.01816 0.12221 0.0
H2279 H 0.04875 0.01669 0.09708 0.0
H2280 H 0.99549 0.04591 0.124 0.0
H2281 H 0.04651 0.04358 0.1657 0.0
H2282 H 0.04932 0.04785 0.14549 0.0
H2283 H 0.0453 0.02729 0.1494 0.0
C2284 C 0.03552 0.05449 0.09804 0.0
C2285 C 0.04346 0.04063 0.09227 0.0
C2286 C 0.0273 0.05532 0.11246 0.0
C2287 C 0.0269 0.04233 0.12143 0.0
C2288 C 0.03482 0.0285 0.11572 0.0
H2289 H 0.97755 0.01435 0.20377 0.0
H2290 H 0.99378 0.01647 0.18004 0.0
C2291 C 0.04307 0.02768 0.10133 0.0
C2292 C 0.01748 0.04286 0.13631 0.0
H2293 H 0.0202 0.03914 0.17597 0.0
C2294 C 1.00092 0.04461 0.13541 0.0
C2295 C 0.02458 0.04114 0.15117 0.0
C2296 C 0.04243 0.04002 0.15308 0.0
C2297 C 0.99117 0.04417 0.14885 0.0
C2298 C 0.99823 0.04215 0.16363 0.0
C2299 C 0.01483 0.04064 0.1646 0.0
C2300 C 0.98851 0.04111 0.17813 0.0
C2301 C 0.97332 0.04534 0.14701 0.0
C2302 C 0.98033 0.05435 0.18503 0.0
C2303 C 0.97097 0.05316 0.19856 0.0
C2304 C 0.96965 0.0387 0.20545 0.0
C2305 C 0.97809 0.02556 0.19861 0.0
C2306 C 0.98746 0.02678 0.18513 0.0
H2307 H 0.96935 0.04326 0.13427 0.0
H2308 H 0.96648 0.03639 0.15347 0.0
H2309 H 0.97025 0.05764 0.15221 0.0
H2310 H 0.98117 0.0656 0.17995 0.0
H2311 H 0.96456 0.06347 0.20346 0.0
H2312 H 0.31628 0.74742 0.18185 0.0
H2313 H 0.31796 0.76651 0.16209 0.0
H2314 H 0.28573 0.79654 0.19019 0.0
H2315 H 0.28442 0.77771 0.21001 0.0
H2316 H 0.29259 0.77218 0.1448 0.0
H2317 H 0.31766 0.83074 0.17746 0.0
H2318 H 0.31905 0.81177 0.18518 0.0
H2319 H 0.30096 0.82226 0.18761 0.0
C2320 C 0.31009 0.75844 0.18403 0.0
C2321 C 0.30045 0.76135 0.19747 0.0
C2322 C 0.31094 0.76927 0.17273 0.0
C2323 C 0.30213 0.7831 0.17473 0.0
C2324 C 0.293 0.78625 0.18856 0.0
H2325 H 0.26447 0.84795 0.11557 0.0
H2326 H 0.27156 0.83242 0.13679 0.0
C2327 C 0.29221 0.77547 0.19987 0.0
C2328 C 0.3008 0.79307 0.16155 0.0
H2329 H 0.30284 0.83209 0.15317 0.0
C2330 C 0.2951 0.78525 0.14656 0.0
C2331 C 0.30396 0.81015 0.16386 0.0
C2332 C 0.3109 0.81919 0.17936 0.0
C2333 C 0.29194 0.79407 0.13404 0.0
C2334 C 0.29467 0.81116 0.13651 0.0
C2335 C 0.30068 0.81898 0.15135 0.0
C2336 C 0.29096 0.82109 0.12389 0.0
C2337 C 0.28514 0.78509 0.11843 0.0
C2338 C 0.29967 0.82002 0.1097 0.0
C2339 C 0.29573 0.82896 0.09758 0.0
C2340 C 0.28298 0.83916 0.09941 0.0
C2341 C 0.27445 0.84037 0.11379 0.0
C2342 C 0.27844 0.83146 0.12592 0.0
H2343 H 0.28087 0.77235 0.11947 0.0
H2344 H 0.27499 0.79133 0.11416 0.0
H2345 H 0.2946 0.7849 0.10926 0.0
H2346 H 0.30953 0.81227 0.108 0.0
H2347 H 0.30279 0.82798 0.08684 0.0
H2348 H 0.99063 0.4908 0.08392 0.0
H2349 H 0.00539 0.49668 0.10962 0.0
H2350 H 0.04812 0.47976 0.08662 0.0
H2351 H 0.03365 0.47416 0.06107 0.0
H2352 H 0.02091 0.47382 0.12532 0.0
H2353 H 0.06427 0.52352 0.11193 0.0
H2354 H 0.04611 0.51737 0.10023 0.0
H2355 H 0.06357 0.50604 0.09691 0.0
C2356 C 1.00323 0.48859 0.08435 0.0
C2357 C 0.01096 0.48194 0.0705 0.0
C2358 C 0.01162 0.49187 0.09902 0.0
C2359 C 0.0279 0.48882 0.09999 0.0
C2360 C 0.03565 0.48246 0.08612 0.0
H2361 H 0.10412 0.48415 0.16676 0.0
H2362 H 0.08606 0.48394 0.14384 0.0
C2363 C 0.0273 0.47911 0.07155 0.0
C2364 C 0.03675 0.49136 0.11553 0.0
H2365 H 0.07101 0.51004 0.13408 0.0
C2366 C 0.03172 0.48194 0.12738 0.0
C2367 C 0.05087 0.50193 0.11816 0.0
C2368 C 0.05645 0.51291 0.1062 0.0
C2369 C 0.04087 0.48219 0.14146 0.0
C2370 C 0.05529 0.49235 0.14382 0.0
C2371 C 0.06001 0.50218 0.1322 0.0
C2372 C 0.06605 0.49245 0.15791 0.0
C2373 C 0.03542 0.47105 0.15333 0.0
C2374 C 0.06084 0.4974 0.17344 0.0
C2375 C 0.07117 0.49758 0.1866 0.0
C2376 C 0.08696 0.4929 0.18446 0.0
C2377 C 0.09212 0.488 0.16884 0.0
C2378 C 0.08179 0.48782 0.15573 0.0
H2379 H 0.02609 0.46155 0.14815 0.0
H2380 H 0.04571 0.46505 0.15764 0.0
H2381 H 0.03022 0.47827 0.16379 0.0
H2382 H 0.04886 0.50135 0.17539 0.0
H2383 H 0.06689 0.50169 0.19841 0.0
H2384 H 0.33235 0.74835 0.25494 0.0
H2385 H 0.35784 0.75354 0.27006 0.0
H2386 H 0.36767 0.70346 0.25723 0.0
H2387 H 0.34258 0.69835 0.24176 0.0
H2388 H 0.36544 0.73905 0.296 0.0
H2389 H 0.41055 0.72657 0.24911 0.0
H2390 H 0.38998 0.72981 0.24451 0.0
H2391 H 0.3952 0.71027 0.24876 0.0
C2392 C 0.34016 0.73857 0.255 0.0
C2393 C 0.33543 0.72293 0.24718 0.0
C2394 C 0.35466 0.74152 0.26373 0.0
C2395 C 0.36476 0.72893 0.26466 0.0
C2396 C 0.36027 0.71345 0.25645 0.0
H2397 H 0.44576 0.70954 0.32088 0.0
H2398 H 0.42256 0.70878 0.30282 0.0
C2399 C 0.34582 0.7105 0.24775 0.0
C2400 C 0.37927 0.73153 0.27524 0.0
H2401 H 0.4195 0.72647 0.27613 0.0
C2402 C 0.37731 0.73652 0.29163 0.0
C2403 C 0.39474 0.72816 0.26954 0.0
C2404 C 0.3978 0.72356 0.25199 0.0
C2405 C 0.39026 0.73768 0.30252 0.0
C2406 C 0.40563 0.73393 0.29686 0.0
C2407 C 0.40767 0.72924 0.28045 0.0
C2408 C 0.41967 0.73451 0.30783 0.0
C2409 C 0.38729 0.74236 0.32008 0.0
C2410 C 0.42579 0.74925 0.31654 0.0
C2411 C 0.439 0.74971 0.32691 0.0
C2412 C 0.44638 0.73544 0.32874 0.0
C2413 C 0.44024 0.72071 0.31992 0.0
C2414 C 0.42706 0.72027 0.30951 0.0
H2415 H 0.37428 0.74142 0.32283 0.0
H2416 H 0.39358 0.73455 0.32734 0.0
H2417 H 0.39207 0.75511 0.32378 0.0
H2418 H 0.42039 0.76041 0.31528 0.0
H2419 H 0.44333 0.76124 0.33361 0.0
H2420 H 0.97539 0.43753 0.01207 0.0
H2421 H 0.97985 0.4118 0.99567 0.0
H2422 H 0.02963 0.41686 0.01074 0.0
H2423 H 0.02535 0.44273 0.02703 0.0
H2424 H 1.00199 0.40639 0.97043 0.0
H2425 H 0.01391 0.37092 0.01975 0.0
H2426 H 0.00454 0.38988 0.02297 0.0
H2427 H 0.02587 0.38983 0.02029 0.0
C2428 C 0.98731 0.43322 0.01185 0.0
C2429 C 1.0 0.44219 0.0209 0.0
C2430 C 0.98981 0.41848 1.00253 0.0
C2431 C 0.00501 0.41234 1.00215 0.0
C2432 C 0.01773 0.42123 0.01112 0.0
H2433 H 0.04018 0.32361 0.95218 0.0
H2434 H 0.03792 0.35004 0.96831 0.0
C2435 C 0.01525 0.436 0.02043 0.0
C2436 C 0.00759 0.39681 0.99202 0.0
H2437 H 0.01726 0.35799 0.99341 0.0
C2438 C 0.00532 0.3958 0.97544 0.0
C2439 C 0.012 0.38306 0.9986 0.0
C2440 C 0.01411 0.38335 0.01639 0.0
C2441 C 0.00743 0.38139 0.96523 0.0
C2442 C 0.0116 0.36755 0.97182 0.0
C2443 C 0.01406 0.36862 0.98839 0.0
C2444 C 0.01306 0.35171 0.96177 0.0
C2445 C 0.0054 0.38121 0.94745 0.0
C2446 C 0.9998 0.34383 0.95286 0.0
C2447 C 1.00108 0.32881 0.94356 0.0
C2448 C 0.01563 0.32127 0.94308 0.0
C2449 C 0.02887 0.32917 0.95211 0.0
C2450 C 0.02758 0.34422 0.96141 0.0
H2451 H 0.00679 0.39364 0.94409 0.0
H2452 H 0.01424 0.37373 0.94075 0.0
H2453 H 0.99315 0.3759 0.94368 0.0
H2454 H 0.9884 0.34924 0.9532 0.0
H2455 H 0.99069 0.32316 0.93665 0.0
H2456 H 0.71575 0.78101 0.27602 0.0
H2457 H 0.69312 0.76806 0.28919 0.0
H2458 H 0.6601 0.78435 0.25642 0.0
H2459 H 0.68278 0.79722 0.24322 0.0
H2460 H 0.66951 0.78722 0.30369 0.0
H2461 H 0.642 0.73736 0.25929 0.0
H2462 H 0.6624 0.74587 0.25782 0.0
H2463 H 0.64588 0.75649 0.25198 0.0
C2464 C 0.70368 0.78131 0.27133 0.0
C2465 C 0.70088 0.78985 0.25856 0.0
C2466 C 0.69078 0.77399 0.27887 0.0
C2467 C 0.67494 0.77511 0.27369 0.0
C2468 C 0.67223 0.78304 0.2604 0.0
H2469 H 0.58026 0.75964 0.31244 0.0
H2470 H 0.60347 0.76463 0.29573 0.0
C2471 C 0.68515 0.79039 0.25288 0.0
C2472 C 0.66129 0.76995 0.28345 0.0
H2473 H 0.62673 0.74514 0.28241 0.0
C2474 C 0.66024 0.77789 0.29911 0.0
C2475 C 0.64914 0.75794 0.27735 0.0
C2476 C 0.64991 0.7488 0.26073 0.0
C2477 C 0.64717 0.77441 0.30875 0.0
C2478 C 0.63501 0.76235 0.30271 0.0
C2479 C 0.63609 0.75434 0.28705 0.0
C2480 C 0.6209 0.75822 0.31238 0.0
C2481 C 0.64627 0.78411 0.32513 0.0
C2482 C 0.62296 0.7526 0.32711 0.0
C2483 C 0.60974 0.74984 0.33672 0.0
C2484 C 0.59418 0.75242 0.33166 0.0
C2485 C 0.59208 0.75746 0.31663 0.0
C2486 C 0.60533 0.76034 0.30708 0.0
H2487 H 0.65407 0.79562 0.32622 0.0
H2488 H 0.63375 0.78707 0.3279 0.0
H2489 H 0.6504 0.77687 0.33423 0.0
H2490 H 0.63482 0.75051 0.33127 0.0
H2491 H 0.6117 0.74567 0.34811 0.0
H2492 H 0.06843 0.06865 0.00842 0.0
H2493 H 0.06894 0.09193 0.99338 0.0
H2494 H 0.02446 0.10575 0.01506 0.0
H2495 H 0.02415 0.08271 0.03022 0.0
H2496 H 0.04645 0.09719 0.97143 0.0
H2497 H 0.0512 0.1488 0.02038 0.0
H2498 H 0.05526 0.12849 0.02341 0.0
H2499 H 0.0349 0.13415 0.02295 0.0
C2500 C 0.05897 0.0769 0.01014 0.0
C2501 C 0.04634 0.07414 0.0205 0.0
C2502 C 0.05923 0.09012 1.00155 0.0
C2503 C 0.04687 0.10074 1.00328 0.0
C2504 C 0.03434 0.098 0.01383 0.0
H2505 H 0.01187 0.17571 0.95506 0.0
H2506 H 0.01676 0.1552 0.9722 0.0
C2507 C 0.03411 0.08481 0.02241 0.0
C2508 C 0.04638 0.11395 0.9932 0.0
H2509 H 0.04286 0.15467 0.99474 0.0
C2510 C 0.04588 0.10979 0.97652 0.0
C2511 C 0.04561 0.13039 0.99985 0.0
C2512 C 0.04693 0.13577 0.01763 0.0
C2513 C 0.04406 0.12151 0.96634 0.0
C2514 C 0.04289 0.13786 0.97302 0.0
C2515 C 0.04369 0.1421 0.98967 0.0
C2516 C 0.04031 0.15065 0.96291 0.0
C2517 C 0.04282 0.11623 0.94854 0.0
C2518 C 0.05204 0.15506 0.95216 0.0
C2519 C 0.04934 0.16687 0.9424 0.0
C2520 C 0.03485 0.17454 0.94324 0.0
C2521 C 0.02323 0.17022 0.95421 0.0
C2522 C 0.02596 0.15844 0.96398 0.0
H2523 H 0.04067 0.10285 0.94555 0.0
H2524 H 0.03296 0.12204 0.94319 0.0
H2525 H 0.05422 0.12005 0.94296 0.0
H2526 H 0.06331 0.14939 0.95135 0.0
H2527 H 0.05867 0.17011 0.93432 0.0
H2528 H 0.32762 0.25721 0.28441 0.0
H2529 H 0.34946 0.25617 0.26518 0.0
H2530 H 0.35606 0.30841 0.27239 0.0
H2531 H 0.33448 0.30955 0.2919 0.0
H2532 H 0.35326 0.27057 0.2364 0.0
H2533 H 0.40105 0.29385 0.28162 0.0
H2534 H 0.38127 0.28634 0.28702 0.0
H2535 H 0.38439 0.30624 0.28122 0.0
C2536 C 0.33375 0.26848 0.28195 0.0
C2537 C 0.32936 0.28346 0.2898 0.0
C2538 C 0.34617 0.26787 0.27089 0.0
C2539 C 0.35455 0.2822 0.26753 0.0
C2540 C 0.34992 0.29719 0.27499 0.0
H2541 H 0.43886 0.30085 0.2106 0.0
H2542 H 0.41524 0.30322 0.22747 0.0
C2543 C 0.33746 0.29782 0.28601 0.0
C2544 C 0.36827 0.28141 0.25641 0.0
H2545 H 0.40887 0.28981 0.25466 0.0
C2546 C 0.36543 0.27476 0.24038 0.0
C2547 C 0.38413 0.28691 0.26162 0.0
C2548 C 0.388 0.29362 0.27883 0.0
C2549 C 0.37799 0.27365 0.22936 0.0
C2550 C 0.39389 0.279 0.2346 0.0
C2551 C 0.3967 0.28573 0.25063 0.0
C2552 C 0.40784 0.27755 0.22376 0.0
C2553 C 0.37404 0.26705 0.21214 0.0
C2554 C 0.41163 0.26233 0.21609 0.0
C2555 C 0.42506 0.26095 0.2063 0.0
C2556 C 0.4351 0.27475 0.20406 0.0
C2557 C 0.43128 0.28999 0.21181 0.0
C2558 C 0.41783 0.29135 0.22157 0.0
H2559 H 0.36119 0.268 0.20918 0.0
H2560 H 0.38158 0.27357 0.20391 0.0
H2561 H 0.37639 0.25403 0.20999 0.0
H2562 H 0.40433 0.25145 0.21785 0.0
H2563 H 0.42752 0.24904 0.20044 0.0
H2564 H 0.55173 0.45586 0.0493 0.0
H2565 H 0.5533 0.43606 0.06817 0.0
H2566 H 0.54996 0.39712 0.02874 0.0
H2567 H 0.54875 0.41691 0.00997 0.0
H2568 H 0.52961 0.41343 0.07212 0.0
H2569 H 0.58457 0.38247 0.05556 0.0
H2570 H 0.5806 0.4015 0.04899 0.0
H2571 H 0.57161 0.38264 0.0386 0.0
C2572 C 0.55188 0.44309 0.04472 0.0
C2573 C 0.55039 0.43781 0.02828 0.0
C2574 C 0.55268 0.4318 0.05547 0.0
C2575 C 0.55197 0.41508 0.04989 0.0
C2576 C 0.55098 0.40992 0.03335 0.0
H2577 H 0.5285 0.32495 0.08531 0.0
H2578 H 0.53527 0.34724 0.06998 0.0
C2579 C 0.55024 0.42122 0.02263 0.0
C2580 C 0.5504 0.40298 0.06129 0.0
H2581 H 0.56507 0.36816 0.07045 0.0
C2582 C 0.53754 0.40369 0.07195 0.0
C2583 C 0.56069 0.39022 0.06103 0.0
C2584 C 0.57523 0.38924 0.05054 0.0
C2585 C 0.5343 0.39167 0.08185 0.0
C2586 C 0.54429 0.37865 0.0812 0.0
C2587 C 0.55738 0.37812 0.07086 0.0
C2588 C 0.54087 0.36512 0.09068 0.0
C2589 C 0.51985 0.39261 0.09247 0.0
C2590 C 0.54197 0.36774 0.10742 0.0
C2591 C 0.53823 0.35498 0.11626 0.0
C2592 C 0.53333 0.33932 0.10851 0.0
C2593 C 0.53244 0.33676 0.0917 0.0
C2594 C 0.53624 0.3495 0.0829 0.0
H2595 H 0.51173 0.40173 0.08942 0.0
H2596 H 0.51291 0.38062 0.09156 0.0
H2597 H 0.52393 0.3961 0.10508 0.0
H2598 H 0.54575 0.37966 0.11365 0.0
H2599 H 0.53933 0.35736 0.12915 0.0
H2600 H 0.67197 0.21421 0.29625 0.0
H2601 H 0.64912 0.22458 0.28331 0.0
H2602 H 0.68099 0.2418 0.24828 0.0
H2603 H 0.70377 0.23145 0.26118 0.0
H2604 H 0.64432 0.25787 0.27341 0.0
H2605 H 0.64653 0.20701 0.22367 0.0
H2606 H 0.65582 0.20669 0.24297 0.0
H2607 H 0.66522 0.21873 0.22908 0.0
C2608 C 0.67407 0.22057 0.28602 0.0
C2609 C 0.6895 0.22217 0.27967 0.0
C2610 C 0.66107 0.22645 0.27865 0.0
C2611 C 0.66338 0.23382 0.26478 0.0
C2612 C 0.67897 0.23607 0.25892 0.0
H2613 H 0.60119 0.25858 0.19117 0.0
H2614 H 0.6238 0.25386 0.20801 0.0
C2615 C 0.69195 0.23024 0.26631 0.0
C2616 C 0.64942 0.23795 0.25566 0.0
H2617 H 0.62818 0.22656 0.2208 0.0
C2618 C 0.64072 0.25104 0.26193 0.0
C2619 C 0.6448 0.22897 0.24071 0.0
C2620 C 0.65346 0.21448 0.23369 0.0
C2621 C 0.62769 0.25564 0.25339 0.0
C2622 C 0.62308 0.24666 0.23839 0.0
C2623 C 0.63174 0.23348 0.23225 0.0
C2624 C 0.60938 0.25066 0.2287 0.0
C2625 C 0.61927 0.27032 0.26031 0.0
C2626 C 0.59373 0.25046 0.23472 0.0
C2627 C 0.58077 0.2532 0.2251 0.0
C2628 C 0.58319 0.25597 0.20921 0.0
C2629 C 0.5989 0.2563 0.20329 0.0
C2630 C 0.61184 0.25367 0.21293 0.0
H2631 H 0.62691 0.27836 0.26941 0.0
H2632 H 0.61588 0.27747 0.25083 0.0
H2633 H 0.60814 0.26629 0.26622 0.0
H2634 H 0.59146 0.24775 0.2467 0.0
H2635 H 0.56879 0.25264 0.22994 0.0
H2636 H 0.51057 0.07329 0.00416 0.0
H2637 H 0.51529 0.09935 0.02146 0.0
H2638 H 0.46647 0.11001 0.01321 0.0
H2639 H 0.46171 0.08419 0.99566 0.0
H2640 H 0.50912 0.13382 0.01586 0.0
H2641 H 0.47253 0.10922 0.06312 0.0
H2642 H 0.48112 0.0963 0.04699 0.0
H2643 H 0.46362 0.1066 0.04341 0.0
C2644 C 0.50095 0.08135 0.00569 0.0
C2645 C 0.4857 0.07657 0.99866 0.0
C2646 C 0.50365 0.09619 0.01565 0.0
C2647 C 0.49115 0.10644 0.01878 0.0
C2648 C 0.4762 0.10213 0.01111 0.0
H2649 H 0.4762 0.19071 0.08753 0.0
H2650 H 0.47369 0.16732 0.06662 0.0
C2651 C 0.4735 0.08736 1.00113 0.0
C2652 C 0.49335 0.12115 0.0308 0.0
H2653 H 0.48177 0.13687 0.06802 0.0
C2654 C 0.50321 0.13453 0.0273 0.0
C2655 C 0.48558 0.12198 0.04567 0.0
C2656 C 0.47519 0.10775 0.05016 0.0
C2657 C 0.50522 0.14891 0.03818 0.0
C2658 C 0.49746 0.14974 0.05311 0.0
C2659 C 0.48768 0.13627 0.05659 0.0
C2660 C 0.49922 0.16442 0.06531 0.0
C2661 C 0.51526 0.16321 0.0334 0.0
C2662 C 0.51439 0.17055 0.07165 0.0
C2663 C 0.51589 0.18407 0.08349 0.0
C2664 C 0.50222 0.19166 0.08941 0.0
C2665 C 0.48702 0.18539 0.0831 0.0
C2666 C 0.48555 0.17192 0.07121 0.0
H2667 H 0.51642 0.16227 0.02023 0.0
H2668 H 0.51003 0.1748 0.03782 0.0
H2669 H 0.52752 0.16358 0.03867 0.0
H2670 H 0.52508 0.16476 0.06757 0.0
H2671 H 0.5278 0.18863 0.08792 0.0
H2672 H 0.28033 0.33084 0.75922 0.0
H2673 H 0.29914 0.35504 0.76267 0.0
H2674 H 0.2891 0.36292 0.71433 0.0
H2675 H 0.27035 0.33857 0.71075 0.0
H2676 H 0.32141 0.36807 0.72232 0.0
H2677 H 0.28484 0.40099 0.76876 0.0
H2678 H 0.29017 0.38177 0.77356 0.0
H2679 H 0.27728 0.38247 0.75656 0.0
C2680 C 0.28214 0.33773 0.74932 0.0
C2681 C 0.27375 0.33292 0.73476 0.0
C2682 C 0.29285 0.35157 0.75132 0.0
C2683 C 0.29523 0.36098 0.73888 0.0
C2684 C 0.28735 0.35588 0.72412 0.0
H2685 H 0.33708 0.46071 0.75247 0.0
H2686 H 0.31937 0.43589 0.74611 0.0
C2687 C 0.2767 0.34195 0.72207 0.0
C2688 C 0.30575 0.37628 0.74138 0.0
H2689 H 0.31104 0.41298 0.76497 0.0
C2690 C 0.31912 0.37793 0.73159 0.0
C2691 C 0.30257 0.38925 0.75331 0.0
C2692 C 0.28785 0.38864 0.76355 0.0
C2693 C 0.32964 0.39205 0.73366 0.0
C2694 C 0.32684 0.40471 0.74604 0.0
C2695 C 0.31326 0.4032 0.75559 0.0
C2696 C 0.3378 0.41967 0.74935 0.0
C2697 C 0.34349 0.39336 0.7224 0.0
C2698 C 0.35401 0.41882 0.75342 0.0
C2699 C 0.36416 0.43298 0.75705 0.0
C2700 C 0.35824 0.44829 0.75687 0.0
C2701 C 0.34197 0.44911 0.75287 0.0
C2702 C 0.33185 0.43494 0.74916 0.0
H2703 H 0.34129 0.38502 0.71105 0.0
H2704 H 0.34569 0.40594 0.71958 0.0
H2705 H 0.35452 0.39001 0.72812 0.0
H2706 H 0.35876 0.4072 0.75406 0.0
H2707 H 0.37656 0.43195 0.76034 0.0
H2708 H 0.26962 0.69141 0.78552 0.0
H2709 H 0.29058 0.6723 0.78371 0.0
H2710 H 0.28628 0.66906 0.83399 0.0
H2711 H 0.26501 0.68789 0.83584 0.0
H2712 H 0.32048 0.67448 0.8007 0.0
H2713 H 0.28024 0.6214 0.81256 0.0
H2714 H 0.27265 0.63964 0.80717 0.0
H2715 H 0.27992 0.63919 0.82714 0.0
C2716 C 0.27305 0.68656 0.79618 0.0
C2717 C 0.26554 0.69107 0.8108 0.0
C2718 C 0.2851 0.67572 0.79514 0.0
C2719 C 0.28982 0.6691 0.80866 0.0
C2720 C 0.28264 0.67385 0.82336 0.0
H2721 H 0.35558 0.59485 0.81976 0.0
H2722 H 0.337 0.61623 0.82452 0.0
C2723 C 0.2706 0.68473 0.82443 0.0
C2724 C 0.30218 0.65713 0.80727 0.0
H2725 H 0.30783 0.61746 0.80982 0.0
C2726 C 0.31774 0.66201 0.80271 0.0
C2727 C 0.29857 0.6409 0.80994 0.0
C2728 C 0.28192 0.63486 0.81435 0.0
C2729 C 0.32982 0.65109 0.80082 0.0
C2730 C 0.32614 0.63478 0.80322 0.0
C2731 C 0.31063 0.62997 0.80799 0.0
C2732 C 0.33805 0.62238 0.80049 0.0
C2733 C 0.34647 0.6572 0.79648 0.0
C2734 C 0.34478 0.61867 0.78537 0.0
C2735 C 0.35552 0.60655 0.78265 0.0
C2736 C 0.35966 0.59777 0.79495 0.0
C2737 C 0.35288 0.60153 0.81009 0.0
C2738 C 0.34216 0.61367 0.8128 0.0
H2739 H 0.34851 0.67057 0.79968 0.0
H2740 H 0.35583 0.65135 0.80255 0.0
H2741 H 0.34795 0.6543 0.78339 0.0
H2742 H 0.34154 0.62498 0.77559 0.0
H2743 H 0.3606 0.60408 0.77088 0.0
H2744 H 0.94655 0.50934 0.47223 0.0
H2745 H 0.92165 0.49312 0.47643 0.0
H2746 H 0.92239 0.51409 0.52599 0.0
H2747 H 0.94734 0.53022 0.52197 0.0
H2748 H 0.91673 0.47024 0.49782 0.0
H2749 H 0.87668 0.5204 0.51101 0.0
H2750 H 0.89599 0.52305 0.5018 0.0
H2751 H 0.89478 0.52273 0.52297 0.0
C2752 C 0.94142 0.51049 0.48403 0.0
C2753 C 0.94892 0.52115 0.49674 0.0
C2754 C 0.92716 0.50126 0.48639 0.0
C2755 C 0.92005 0.50257 0.50146 0.0
C2756 C 0.92748 0.51317 0.51418 0.0
H2757 H 0.83639 0.45523 0.54119 0.0
H2758 H 0.86102 0.47174 0.53675 0.0
C2759 C 0.94174 0.52239 0.51184 0.0
C2760 C 0.90519 0.4924 0.50402 0.0
H2761 H 0.8661 0.4942 0.51539 0.0
C2762 C 0.90563 0.47546 0.50158 0.0
C2763 C 0.89075 0.49925 0.50899 0.0
C2764 C 0.8894 0.51735 0.51122 0.0
C2765 C 0.89209 0.46518 0.50424 0.0
C2766 C 0.87764 0.47203 0.50918 0.0
C2767 C 0.87719 0.48898 0.51162 0.0
C2768 C 0.86281 0.46183 0.51185 0.0
C2769 C 0.8935 0.44709 0.50209 0.0
C2770 C 0.85557 0.45089 0.49929 0.0
C2771 C 0.84157 0.44134 0.50182 0.0
C2772 C 0.83444 0.44263 0.51694 0.0
C2773 C 0.84168 0.45373 0.52947 0.0
C2774 C 0.85569 0.46327 0.52692 0.0
H2775 H 0.90623 0.44411 0.50249 0.0
H2776 H 0.88682 0.44138 0.51145 0.0
H2777 H 0.88831 0.44167 0.49028 0.0
H2778 H 0.86069 0.44978 0.48749 0.0
H2779 H 0.83641 0.43283 0.49194 0.0
H2780 H 0.75985 0.81612 0.77024 0.0
H2781 H 0.74838 0.83899 0.75987 0.0
H2782 H 0.7629 0.87018 0.80342 0.0
H2783 H 0.7746 0.84745 0.81354 0.0
H2784 H 0.72376 0.85483 0.77305 0.0
H2785 H 0.77598 0.89929 0.77074 0.0
H2786 H 0.77819 0.87828 0.77261 0.0
H2787 H 0.77428 0.8925 0.78993 0.0
C2788 C 0.761 0.82802 0.77731 0.0
C2789 C 0.76828 0.83022 0.79252 0.0
C2790 C 0.75438 0.84103 0.77146 0.0
C2791 C 0.75496 0.85641 0.78075 0.0
C2792 C 0.76267 0.85861 0.79582 0.0
H2793 H 0.70738 0.94455 0.78582 0.0
H2794 H 0.72341 0.92194 0.78949 0.0
C2795 C 0.76931 0.84562 0.80163 0.0
C2796 C 0.74613 0.86968 0.77552 0.0
H2797 H 0.74993 0.90985 0.77092 0.0
C2798 C 0.72954 0.86679 0.77233 0.0
C2799 C 0.75364 0.88531 0.77461 0.0
C2800 C 0.77153 0.889 0.777 0.0
C2801 C 0.72017 0.87923 0.76893 0.0
C2802 C 0.7276 0.89497 0.76852 0.0
C2803 C 0.74424 0.89779 0.77131 0.0
C2804 C 0.71817 0.90882 0.76592 0.0
C2805 C 0.70227 0.87561 0.76642 0.0
C2806 C 0.71004 0.90905 0.75137 0.0
C2807 C 0.70079 0.92194 0.74925 0.0
C2808 C 0.69949 0.93486 0.76165 0.0
C2809 C 0.70788 0.93468 0.77611 0.0
C2810 C 0.71716 0.92183 0.7782 0.0
H2811 H 0.69801 0.86381 0.7702 0.0
H2812 H 0.69565 0.88533 0.77316 0.0
H2813 H 0.69926 0.8751 0.75355 0.0
H2814 H 0.71081 0.89922 0.74167 0.0
H2815 H 0.69444 0.92165 0.73799 0.0
H2816 H 0.58502 0.49841 0.01625 0.0
H2817 H 0.61097 0.51453 0.0195 0.0
H2818 H 0.62017 0.50147 0.96945 0.0
H2819 H 0.5944 0.48526 0.96613 0.0
H2820 H 0.64433 0.50687 0.01111 0.0
H2821 H 0.6201 0.55212 0.97673 0.0
H2822 H 0.60732 0.53715 0.98517 0.0
H2823 H 0.61795 0.53147 0.96711 0.0
C2824 C 0.59275 0.49866 0.00603 0.0
C2825 C 0.58758 0.49073 0.99089 0.0
C2826 C 0.60752 0.50794 0.00789 0.0
C2827 C 0.61731 0.50943 0.99465 0.0
C2828 C 0.61264 0.50071 0.97975 0.0
H2829 H 0.70146 0.57076 0.97545 0.0
H2830 H 0.67839 0.5507 0.97408 0.0
C2831 C 0.59792 0.49146 0.97789 0.0
C2832 C 0.6319 0.52086 0.99608 0.0
H2833 H 0.64772 0.55587 0.98366 0.0
C2834 C 0.6451 0.51762 0.00518 0.0
C2835 C 0.63282 0.53487 0.98832 0.0
C2836 C 0.61877 0.53925 0.97888 0.0
C2837 C 0.65936 0.52786 0.0064 0.0
C2838 C 0.66029 0.54186 0.99858 0.0
C2839 C 0.64703 0.54511 0.98958 0.0
C2840 C 0.67483 0.55342 0.99961 0.0
C2841 C 0.67344 0.52338 0.01572 0.0
C2842 C 0.68047 0.56169 0.01441 0.0
C2843 C 0.69374 0.57308 0.01525 0.0
C2844 C 0.70158 0.57657 1.00127 0.0
C2845 C 0.69588 0.56824 0.98646 0.0
C2846 C 0.68263 0.55683 0.98565 0.0
H2847 H 0.6724 0.5103 0.01712 0.0
H2848 H 0.68496 0.52617 0.0098 0.0
H2849 H 0.67382 0.53049 0.02783 0.0
H2850 H 0.67446 0.55953 0.02532 0.0
H2851 H 0.69788 0.57912 0.02687 0.0
H2852 H 0.30437 0.67089 0.23702 0.0
H2853 H 0.28797 0.6462 0.24111 0.0
H2854 H 0.24593 0.67326 0.2465 0.0
H2855 H 0.2622 0.69808 0.24293 0.0
H2856 H 0.26267 0.64336 0.27012 0.0
H2857 H 0.23958 0.63217 0.20727 0.0
H2858 H 0.2589 0.64288 0.21266 0.0
H2859 H 0.24083 0.65264 0.21757 0.0
C2860 C 0.29168 0.67165 0.23933 0.0
C2861 C 0.28459 0.68647 0.23954 0.0
C2862 C 0.28234 0.65753 0.24158 0.0
C2863 C 0.26578 0.65797 0.24399 0.0
C2864 C 0.2587 0.67272 0.24454 0.0
H2865 H 0.18472 0.58809 0.24621 0.0
H2866 H 0.20322 0.61189 0.24435 0.0
C2867 C 0.26801 0.68685 0.24238 0.0
C2868 C 0.2557 0.64296 0.24553 0.0
H2869 H 0.22868 0.61491 0.22494 0.0
C2870 C 0.25529 0.63702 0.26026 0.0
C2871 C 0.24608 0.6349 0.23264 0.0
C2872 C 0.24632 0.64084 0.21657 0.0
C2873 C 0.24516 0.62333 0.26255 0.0
C2874 C 0.23549 0.61522 0.24962 0.0
C2875 C 0.23608 0.62112 0.23483 0.0
C2876 C 0.22436 0.60081 0.2512 0.0
C2877 C 0.2445 0.61803 0.27891 0.0
C2878 C 0.2301 0.58663 0.25557 0.0
C2879 C 0.21953 0.57302 0.2567 0.0
C2880 C 0.20305 0.57327 0.25326 0.0
C2881 C 0.19737 0.58746 0.24878 0.0
C2882 C 0.20791 0.60108 0.24777 0.0
H2883 H 0.24918 0.62791 0.28833 0.0
H2884 H 0.23203 0.61403 0.28187 0.0
H2885 H 0.25205 0.60767 0.27912 0.0
H2886 H 0.2428 0.58599 0.25787 0.0
H2887 H 0.2243 0.56218 0.25995 0.0
H2888 H 0.93454 0.49772 0.0354 0.0
H2889 H 0.91315 0.51644 0.03727 0.0
H2890 H 0.94879 0.55712 0.04413 0.0
H2891 H 0.97023 0.5383 0.04188 0.0
H2892 H 0.90402 0.54146 0.05963 0.0
H2893 H 0.92481 0.56453 0.004 0.0
H2894 H 0.93239 0.54687 0.01065 0.0
H2895 H 0.93957 0.56685 0.01985 0.0
C2896 C 0.93774 0.51067 0.03768 0.0
C2897 C 0.9539 0.51667 0.03859 0.0
C2898 C 0.92555 0.52135 0.0387 0.0
C2899 C 0.92936 0.53819 0.04053 0.0
C2900 C 0.94557 0.54418 0.04239 0.0
H2901 H 0.86588 0.61552 0.03143 0.0
H2902 H 0.88899 0.60064 0.03697 0.0
C2903 C 0.95778 0.53347 0.0413 0.0
C2904 C 0.91639 0.54926 0.03942 0.0
H2905 H 0.90231 0.57588 0.01632 0.0
C2906 C 0.90369 0.54906 0.05022 0.0
C2907 C 0.91593 0.55913 0.02708 0.0
C2908 C 0.92881 0.55931 0.01463 0.0
C2909 C 0.89052 0.55839 0.04898 0.0
C2910 C 0.88994 0.56801 0.03648 0.0
C2911 C 0.9028 0.56851 0.02591 0.0
C2912 C 0.87579 0.57708 0.03368 0.0
C2913 C 0.87734 0.55789 0.06107 0.0
C2914 C 0.86075 0.56875 0.02977 0.0
C2915 C 0.84755 0.57718 0.02645 0.0
C2916 C 0.84912 0.59415 0.02689 0.0
C2917 C 0.86425 0.60245 0.03079 0.0
C2918 C 0.87746 0.59399 0.03407 0.0
H2919 H 0.88156 0.55368 0.07218 0.0
H2920 H 0.8727 0.57003 0.0642 0.0
H2921 H 0.86725 0.54931 0.05591 0.0
H2922 H 0.85928 0.55565 0.029 0.0
H2923 H 0.8362 0.57033 0.02319 0.0
H2924 H 0.10048 0.03375 0.07858 0.0
H2925 H 0.12424 0.01814 0.07548 0.0
H2926 H 0.1037 0.99082 0.03214 0.0
H2927 H 0.07997 0.00632 0.03514 0.0
H2928 H 0.12552 0.98524 0.07473 0.0
H2929 H 0.14867 0.00401 0.01822 0.0
H2930 H 0.13374 0.01469 0.02987 0.0
H2931 H 0.12799 0.99625 0.01677 0.0
C2932 C 0.10106 0.02446 0.06835 0.0
C2933 C 0.08836 0.02135 0.05705 0.0
C2934 C 0.11466 0.01559 0.06657 0.0
C2935 C 0.11587 1.00348 0.05344 0.0
C2936 C 0.10324 1.00038 0.04213 0.0
H2937 H 0.1802 0.92889 0.02378 0.0
H2938 H 0.15812 0.94671 0.02716 0.0
C2939 C 0.08967 0.00927 0.04387 0.0
C2940 C 0.12992 0.9935 0.05199 0.0
H2941 H 0.15991 0.98118 0.0269 0.0
C2942 C 0.13314 0.98447 0.06434 0.0
C2943 C 0.13983 0.99248 0.03842 0.0
C2944 C 0.13751 1.00249 0.02513 0.0
C2945 C 0.14572 0.97412 0.06329 0.0
C2946 C 0.15546 0.97293 0.04962 0.0
C2947 C 0.15236 0.98207 0.03734 0.0
C2948 C 0.16884 0.96213 0.04776 0.0
C2949 C 0.14822 0.96421 0.07662 0.0
C2950 C 0.18224 0.96497 0.05815 0.0
C2951 C 0.19486 0.95479 0.05628 0.0
C2952 C 0.19432 0.94156 0.04396 0.0
C2953 C 0.18089 0.93881 0.03353 0.0
C2954 C 0.16831 0.94904 0.03537 0.0
H2955 H 0.13763 0.96378 0.08449 0.0
H2956 H 0.15068 0.9516 0.07176 0.0
H2957 H 0.15875 0.96972 0.08405 0.0
H2958 H 0.18298 0.97514 0.06765 0.0
H2959 H 0.20497 0.95719 0.06458 0.0
loop_
_geom_bond_atom_site_label_1
_geom_bond_atom_site_label_2
_geom_bond_distance
_geom_bond_site_symmetry_2
_ccdc_geom_bond_type
H0 C3 0.929 . S
H1 C6 0.929 . S
H2 C8 0.930 . S
C3 H0 0.929 . S
C3 C4 1.398 . S
C3 C5 1.396 . S
C4 C3 1.398 . S
C4 C8 1.407 . S
C5 C3 1.396 . S
C5 C6 1.394 . S
C6 H1 0.929 . S
C6 C5 1.394 . S
C6 C7 1.382 . S
C7 C6 1.382 . S
C7 C8 1.392 . S
C7 N9 1.420 . S
C8 H2 0.930 . S
C8 C4 1.407 . S
C8 C7 1.392 . S
N9 C7 1.420 . S
N9 C10 1.244 . S
C10 N9 1.244 . S
H11 C14 0.929 . S
H12 C17 0.929 . S
H13 C19 0.930 . S
C14 H11 0.929 . S
C14 C15 1.398 . S
C14 C16 1.396 . S
C15 C14 1.398 . S
C15 C19 1.407 . S
C16 C14 1.396 . S
C16 C17 1.394 . S
C17 H12 0.929 . S
C17 C16 1.394 . S
C17 C18 1.382 . S
C18 C17 1.382 . S
C18 C19 1.392 . S
C18 N20 1.420 . S
C19 H13 0.930 . S
C19 C15 1.407 . S
C19 C18 1.392 . S
N20 C18 1.420 . S
N20 C21 1.244 . S
C21 N20 1.244 . S
H22 C25 0.932 . S
H23 C28 0.929 . S
H24 C30 0.930 . S
C25 H22 0.932 . S
C25 C26 1.396 1_455 S
C25 C27 1.395 1_455 S
C26 C25 1.396 1_655 S
C26 C30 1.407 . S
C27 C25 1.395 1_655 S
C27 C28 1.394 . S
C28 H23 0.929 . S
C28 C27 1.394 . S
C28 C29 1.382 . S
C29 C28 1.382 . S
C29 C30 1.392 . S
C29 N31 1.420 . S
C30 H24 0.930 . S
C30 C26 1.407 . S
C30 C29 1.392 . S
N31 C29 1.420 . S
N31 C32 1.244 . S
C32 N31 1.244 . S
H33 C36 0.929 . S
H34 C39 0.929 . S
H35 C41 0.930 . S
C36 H33 0.929 . S
C36 C37 1.398 . S
C36 C38 1.396 . S
C37 C36 1.398 . S
C37 C41 1.407 . S
C38 C36 1.396 . S
C38 C39 1.394 . S
C39 H34 0.929 . S
C39 C38 1.394 . S
C39 C40 1.382 . S
C40 C39 1.382 . S
C40 C41 1.392 . S
C40 N42 1.420 . S
C41 H35 0.930 . S
C41 C37 1.407 . S
C41 C40 1.392 . S
N42 C40 1.420 . S
N42 C43 1.244 . S
C43 N42 1.244 . S
H44 C47 0.929 . S
H45 C50 0.929 . S
H46 C52 0.930 . S
C47 H44 0.929 . S
C47 C48 1.398 . S
C47 C49 1.396 . S
C48 C47 1.398 . S
C48 C52 1.407 . S
C49 C47 1.396 . S
C49 C50 1.394 . S
C50 H45 0.929 . S
C50 C49 1.394 . S
C50 C51 1.382 . S
C51 C50 1.382 . S
C51 C52 1.392 . S
C51 N53 1.420 . S
C52 H46 0.930 . S
C52 C48 1.407 . S
C52 C51 1.392 . S
N53 C51 1.420 . S
N53 C54 1.244 . S
C54 N53 1.244 . S
H55 C58 0.929 . S
H56 C61 0.929 . S
H57 C63 0.930 . S
C58 H55 0.929 . S
C58 C59 1.398 . S
C58 C60 1.396 . S
C59 C58 1.398 . S
C59 C63 1.407 . S
C60 C58 1.396 . S
C60 C61 1.394 . S
C61 H56 0.929 . S
C61 C60 1.394 . S
C61 C62 1.382 . S
C62 C61 1.382 . S
C62 C63 1.392 . S
C62 N64 1.420 . S
C63 H57 0.930 . S
C63 C59 1.407 . S
C63 C62 1.392 . S
N64 C62 1.420 . S
N64 C65 1.244 . S
C65 N64 1.244 . S
H66 C69 0.929 . S
H67 C72 0.929 1_455 S
H68 C74 0.930 . S
C69 H66 0.929 . S
C69 C70 1.398 . S
C69 C71 1.396 . S
C70 C69 1.398 . S
C70 C74 1.407 . S
C71 C69 1.396 . S
C71 C72 1.394 . S
C72 H67 0.929 1_655 S
C72 C71 1.394 . S
C72 C73 1.382 . S
C73 C72 1.382 . S
C73 C74 1.392 . S
C73 N75 1.420 1_655 S
C74 H68 0.930 . S
C74 C70 1.407 . S
C74 C73 1.392 . S
N75 C73 1.420 1_455 S
N75 C76 1.244 . S
C76 N75 1.244 . S
H77 C80 0.929 . S
H78 C83 0.929 . S
H79 C85 0.930 . S
C80 H77 0.929 . S
C80 C81 1.398 . S
C80 C82 1.396 . S
C81 C80 1.398 . S
C81 C85 1.407 . S
C82 C80 1.396 . S
C82 C83 1.394 . S
C83 H78 0.929 . S
C83 C82 1.394 . S
C83 C84 1.382 . S
C84 C83 1.382 . S
C84 C85 1.392 . S
C84 N86 1.420 . S
C85 H79 0.930 . S
C85 C81 1.407 . S
C85 C84 1.392 . S
N86 C84 1.420 . S
N86 C87 1.244 . S
C87 N86 1.244 . S
H88 C91 0.929 . S
H89 C94 0.929 . S
H90 C96 0.930 . S
C91 H88 0.929 . S
C91 C92 1.398 . S
C91 C93 1.396 . S
C92 C91 1.398 . S
C92 C96 1.407 . S
C93 C91 1.396 . S
C93 C94 1.394 . S
C94 H89 0.929 . S
C94 C93 1.394 . S
C94 C95 1.382 . S
C95 C94 1.382 . S
C95 C96 1.392 . S
C95 N97 1.420 . S
C96 H90 0.930 . S
C96 C92 1.407 . S
C96 C95 1.392 . S
N97 C95 1.420 . S
N97 C98 1.244 . S
C98 N97 1.244 . S
H99 C102 0.929 . S
H100 C105 0.929 1_545 S
H101 C107 0.930 . S
C102 H99 0.929 . S
C102 C103 1.398 . S
C102 C104 1.396 . S
C103 C102 1.398 . S
C103 C107 1.407 . S
C104 C102 1.396 . S
C104 C105 1.394 . S
C105 H100 0.929 1_565 S
C105 C104 1.394 . S
C105 C106 1.382 . S
C106 C105 1.382 . S
C106 C107 1.392 . S
C106 N108 1.420 1_565 S
C107 H101 0.930 . S
C107 C103 1.407 . S
C107 C106 1.392 . S
N108 C106 1.420 1_545 S
N108 C109 1.244 . S
C109 N108 1.244 . S
H110 C113 0.929 . S
H111 C116 0.929 . S
H112 C118 0.930 . S
C113 H110 0.929 . S
C113 C114 1.398 . S
C113 C115 1.396 . S
C114 C113 1.398 . S
C114 C118 1.407 . S
C115 C113 1.396 . S
C115 C116 1.394 . S
C116 H111 0.929 . S
C116 C115 1.394 . S
C116 C117 1.382 . S
C117 C116 1.382 . S
C117 C118 1.392 . S
C117 N119 1.420 . S
C118 H112 0.930 . S
C118 C114 1.407 . S
C118 C117 1.392 . S
N119 C117 1.420 . S
N119 C120 1.244 . S
C120 N119 1.244 . S
H121 C124 0.929 . S
H122 C127 0.929 . S
H123 C129 0.930 . S
C124 H121 0.929 . S
C124 C125 1.398 . S
C124 C126 1.396 . S
C125 C124 1.398 . S
C125 C129 1.407 . S
C126 C124 1.396 . S
C126 C127 1.394 . S
C127 H122 0.929 . S
C127 C126 1.394 . S
C127 C128 1.382 . S
C128 C127 1.382 . S
C128 C129 1.392 . S
C128 N130 1.420 . S
C129 H123 0.930 . S
C129 C125 1.407 . S
C129 C128 1.392 . S
N130 C128 1.420 . S
N130 C131 1.244 . S
C131 N130 1.244 . S
H132 C135 0.929 . S
H133 C138 0.929 . S
H134 C140 0.930 . S
C135 H132 0.929 . S
C135 C136 1.398 . S
C135 C137 1.396 . S
C136 C135 1.398 . S
C136 C140 1.407 . S
C137 C135 1.396 . S
C137 C138 1.394 . S
C138 H133 0.929 . S
C138 C137 1.394 . S
C138 C139 1.382 . S
C139 C138 1.382 . S
C139 C140 1.392 . S
C139 N141 1.420 . S
C140 H134 0.930 . S
C140 C136 1.407 . S
C140 C139 1.392 . S
N141 C139 1.420 . S
N141 C142 1.244 . S
C142 N141 1.244 . S
H143 C146 0.929 . S
H144 C149 0.929 . S
H145 C151 0.930 . S
C146 H143 0.929 . S
C146 C147 1.398 . S
C146 C148 1.396 . S
C147 C146 1.398 . S
C147 C151 1.407 . S
C148 C146 1.396 . S
C148 C149 1.394 1_556 S
C149 H144 0.929 . S
C149 C148 1.394 1_554 S
C149 C150 1.382 . S
C150 C149 1.382 . S
C150 C151 1.392 1_554 S
C150 N152 1.420 . S
C151 H145 0.930 . S
C151 C147 1.407 . S
C151 C150 1.392 1_556 S
N152 C150 1.420 . S
N152 C153 1.244 . S
C153 N152 1.244 . S
H154 C157 0.929 . S
H155 C160 0.929 . S
H156 C162 0.930 . S
C157 H154 0.929 . S
C157 C158 1.398 . S
C157 C159 1.396 . S
C158 C157 1.398 . S
C158 C162 1.407 . S
C159 C157 1.396 . S
C159 C160 1.394 . S
C160 H155 0.929 . S
C160 C159 1.394 . S
C160 C161 1.382 . S
C161 C160 1.382 . S
C161 C162 1.392 . S
C161 N163 1.420 . S
C162 H156 0.930 . S
C162 C158 1.407 . S
C162 C161 1.392 . S
N163 C161 1.420 . S
N163 C164 1.244 . S
C164 N163 1.244 . S
H165 C168 0.929 . S
H166 C171 0.929 . S
H167 C173 0.930 . S
C168 H165 0.929 . S
C168 C169 1.398 . S
C168 C170 1.396 . S
C169 C168 1.398 . S
C169 C173 1.407 . S
C170 C168 1.396 . S
C170 C171 1.394 . S
C171 H166 0.929 . S
C171 C170 1.394 . S
C171 C172 1.382 . S
C172 C171 1.382 . S
C172 C173 1.392 . S
C172 N174 1.420 . S
C173 H167 0.930 . S
C173 C169 1.407 . S
C173 C172 1.392 . S
N174 C172 1.420 . S
N174 C175 1.244 . S
C175 N174 1.244 . S
Li176 N193 1.990 . S
Li176 O236 1.956 . S
Li176 O237 1.970 . S
Li176 O238 1.961 . S
Li177 N201 1.990 . S
Li177 O236 1.970 . S
Li177 O237 1.956 . S
Li177 O239 1.961 . S
Li178 N223 1.990 1_554 S
Li178 O236 1.961 . S
Li178 O238 1.956 . S
Li178 O239 1.970 . S
Li179 N229 1.990 . S
Li179 O237 1.961 . S
Li179 O238 1.970 . S
Li179 O239 1.956 . S
C180 C182 1.348 . S
C180 C183 1.356 . S
C180 O236 1.325 . S
N181 C184 1.314 . S
N181 C185 1.279 . S
C182 C180 1.348 . S
C182 C184 1.353 . S
C182 H240 0.929 . S
C183 C180 1.356 . S
C183 C185 1.358 . S
C183 H241 0.930 . S
C184 N181 1.314 . S
C184 C182 1.353 . S
C184 H242 0.930 . S
C185 N181 1.279 . S
C185 C183 1.358 . S
C185 H243 0.993 . S
C186 C189 1.348 . S
C186 C190 1.356 . S
C186 O237 1.325 . S
C187 N188 1.279 . S
C187 C190 1.358 . S
C187 H244 0.930 . S
N188 C187 1.279 . S
N188 C191 1.314 . S
C189 C186 1.348 . S
C189 C191 1.353 . S
C189 H245 0.929 . S
C190 C186 1.356 . S
C190 C187 1.358 . S
C190 H246 0.930 . S
C191 N188 1.314 . S
C191 C189 1.353 . S
C191 H247 0.930 . S
C192 N193 1.314 . S
C192 C197 1.353 . S
C192 H198 0.930 . S
N193 Li176 1.990 . S
N193 C192 1.314 . S
N193 C195 1.279 . S
C194 C195 1.358 . S
C194 C196 1.356 . S
C194 H248 0.930 . S
C195 N193 1.279 . S
C195 C194 1.358 . S
C195 H199 0.930 . S
C196 C194 1.356 . S
C196 C197 1.348 . S
C197 C192 1.353 . S
C197 C196 1.348 . S
C197 H249 0.929 . S
H198 C192 0.930 . S
H199 C195 0.930 . S
C200 N201 1.314 . S
C200 C202 1.353 . S
C200 H206 0.930 . S
N201 Li177 1.990 . S
N201 C200 1.314 . S
N201 C204 1.279 . S
C202 C200 1.353 . S
C202 C205 1.348 . S
C202 H250 0.929 . S
C203 C204 1.358 . S
C203 C205 1.356 . S
C203 H251 0.930 . S
C204 N201 1.279 . S
C204 C203 1.358 . S
C204 H207 0.930 . S
C205 C202 1.348 . S
C205 C203 1.356 . S
H206 C200 0.930 . S
H207 C204 0.930 . S
C208 C210 1.348 . S
C208 C211 1.356 1_554 S
C208 O238 1.325 . S
N209 C212 1.314 . S
N209 C213 1.279 . S
C210 C208 1.348 . S
C210 C212 1.353 1_554 S
C210 H252 0.929 . S
C211 C208 1.356 1_556 S
C211 C213 1.358 . S
C211 H253 0.930 . S
C212 N209 1.314 . S
C212 C210 1.353 1_556 S
C212 H254 0.930 . S
C213 N209 1.279 . S
C213 C211 1.358 . S
C213 H255 0.930 . S
C214 C215 1.348 . S
C214 C216 1.356 . S
C214 O239 1.325 . S
C215 C214 1.348 . S
C215 C217 1.353 . S
C215 H256 0.929 . S
C216 C214 1.356 . S
C216 C218 1.358 . S
C216 H257 0.930 . S
C217 C215 1.353 . S
C217 N219 1.314 . S
C217 H258 0.930 . S
C218 C216 1.358 . S
C218 N219 1.279 . S
C218 H259 0.930 . S
N219 C217 1.314 . S
N219 C218 1.279 . S
C220 C222 1.353 . S
C220 N223 1.314 . S
C220 H226 0.930 1_556 S
C221 N223 1.279 . S
C221 C224 1.358 . S
C221 H227 0.930 . S
C222 C220 1.353 . S
C222 C225 1.348 . S
C222 H260 0.929 . S
N223 Li178 1.990 1_556 S
N223 C220 1.314 . S
N223 C221 1.279 . S
C224 C221 1.358 . S
C224 C225 1.356 . S
C224 H261 0.930 . S
C225 C222 1.348 . S
C225 C224 1.356 . S
H226 C220 0.930 1_554 S
H227 C221 0.930 . S
C228 N229 1.314 . S
C228 C230 1.353 . S
C228 H234 0.930 . S
N229 Li179 1.990 . S
N229 C228 1.314 . S
N229 C232 1.279 . S
C230 C228 1.353 . S
C230 C233 1.348 . S
C230 H262 0.929 . S
C231 C232 1.358 . S
C231 C233 1.356 . S
C231 H263 0.930 . S
C232 N229 1.279 . S
C232 C231 1.358 . S
C232 H235 0.930 . S
C233 C230 1.348 . S
C233 C231 1.356 . S
H234 C228 0.930 . S
H235 C232 0.930 . S
O236 Li176 1.956 . S
O236 Li177 1.970 . S
O236 Li178 1.961 . S
O236 C180 1.325 . S
O237 Li176 1.970 . S
O237 Li177 1.956 . S
O237 Li179 1.961 . S
O237 C186 1.325 . S
O238 Li176 1.961 . S
O238 Li178 1.956 . S
O238 Li179 1.970 . S
O238 C208 1.325 . S
O239 Li177 1.961 . S
O239 Li178 1.970 . S
O239 Li179 1.956 . S
O239 C214 1.325 . S
H240 C182 0.929 . S
H241 C183 0.930 . S
H242 C184 0.930 . S
H243 C185 0.993 . S
H244 C187 0.930 . S
H245 C189 0.929 . S
H246 C190 0.930 . S
H247 C191 0.930 . S
H248 C194 0.930 . S
H249 C197 0.929 . S
H250 C202 0.929 . S
H251 C203 0.930 . S
H252 C210 0.929 . S
H253 C211 0.930 . S
H254 C212 0.930 . S
H255 C213 0.930 . S
H256 C215 0.929 . S
H257 C216 0.930 . S
H258 C217 0.930 . S
H259 C218 0.930 . S
H260 C222 0.929 . S
H261 C224 0.930 . S
H262 C230 0.929 . S
H263 C231 0.930 . S
Li264 N281 1.990 . S
Li264 O324 1.956 . S
Li264 O325 1.970 . S
Li264 O326 1.961 . S
Li265 N289 1.990 . S
Li265 O324 1.970 . S
Li265 O325 1.956 . S
Li265 O327 1.961 . S
Li266 N311 1.990 . S
Li266 O324 1.961 . S
Li266 O326 1.956 . S
Li266 O327 1.970 . S
Li267 N317 1.990 . S
Li267 O325 1.961 . S
Li267 O326 1.970 . S
Li267 O327 1.956 . S
C268 C270 1.348 . S
C268 C271 1.356 . S
C268 O324 1.325 . S
N269 C272 1.314 . S
N269 C273 1.279 . S
C270 C268 1.348 . S
C270 C272 1.353 . S
C270 H328 0.929 . S
C271 C268 1.356 . S
C271 C273 1.358 . S
C271 H329 0.930 . S
C272 N269 1.314 . S
C272 C270 1.353 . S
C272 H330 0.930 . S
C273 N269 1.279 . S
C273 C271 1.358 . S
C273 H331 0.930 . S
C274 C277 1.348 . S
C274 C278 1.356 . S
C274 O325 1.325 . S
C275 N276 1.279 . S
C275 C278 1.358 . S
C275 H332 0.930 . S
N276 C275 1.279 . S
N276 C279 1.314 . S
C277 C274 1.348 . S
C277 C279 1.353 . S
C277 H333 0.929 . S
C278 C274 1.356 . S
C278 C275 1.358 . S
C278 H334 0.930 . S
C279 N276 1.314 . S
C279 C277 1.353 . S
C279 H335 0.930 . S
C280 N281 1.314 . S
C280 C285 1.353 . S
C280 H286 0.930 . S
N281 Li264 1.990 . S
N281 C280 1.314 . S
N281 C283 1.279 . S
C282 C283 1.358 . S
C282 C284 1.356 . S
C282 H336 0.930 . S
C283 N281 1.279 . S
C283 C282 1.358 . S
C283 H287 0.930 . S
C284 C282 1.356 . S
C284 C285 1.348 . S
C285 C280 1.353 . S
C285 C284 1.348 . S
C285 H337 0.929 . S
H286 C280 0.930 . S
H287 C283 0.930 . S
C288 N289 1.314 . S
C288 C290 1.353 . S
C288 H294 0.930 . S
N289 Li265 1.990 . S
N289 C288 1.314 . S
N289 C292 1.279 . S
C290 C288 1.353 . S
C290 C293 1.348 . S
C290 H338 0.929 . S
C291 C292 1.358 . S
C291 C293 1.356 . S
C291 H339 0.930 . S
C292 N289 1.279 . S
C292 C291 1.358 . S
C292 H295 0.930 . S
C293 C290 1.348 . S
C293 C291 1.356 . S
H294 C288 0.930 . S
H295 C292 0.930 . S
C296 C298 1.348 . S
C296 C299 1.356 . S
C296 O326 1.325 . S
N297 C300 1.314 . S
N297 C301 1.279 . S
C298 C296 1.348 . S
C298 C300 1.353 . S
C298 H340 0.929 . S
C299 C296 1.356 . S
C299 C301 1.358 . S
C299 H341 0.930 . S
C300 N297 1.314 . S
C300 C298 1.353 . S
C300 H342 0.930 . S
C301 N297 1.279 . S
C301 C299 1.358 . S
C301 H343 0.930 . S
C302 C303 1.348 . S
C302 C304 1.356 . S
C302 O327 1.325 . S
C303 C302 1.348 . S
C303 C305 1.353 . S
C303 H344 0.929 . S
C304 C302 1.356 . S
C304 C306 1.358 . S
C304 H345 0.930 . S
C305 C303 1.353 . S
C305 N307 1.314 . S
C305 H346 0.930 . S
C306 C304 1.358 . S
C306 N307 1.279 . S
C306 H347 0.930 . S
N307 C305 1.314 . S
N307 C306 1.279 . S
C308 C310 1.353 . S
C308 N311 1.314 . S
C308 H314 0.930 . S
C309 N311 1.279 . S
C309 C312 1.358 . S
C309 H315 0.930 . S
C310 C308 1.353 . S
C310 C313 1.348 . S
C310 H348 0.929 . S
N311 Li266 1.990 . S
N311 C308 1.314 . S
N311 C309 1.279 . S
C312 C309 1.358 . S
C312 C313 1.356 . S
C312 H349 0.930 . S
C313 C310 1.348 . S
C313 C312 1.356 . S
H314 C308 0.930 . S
H315 C309 0.930 . S
C316 N317 1.314 . S
C316 C318 1.353 . S
C316 H322 0.930 . S
N317 Li267 1.990 . S
N317 C316 1.314 . S
N317 C320 1.279 . S
C318 C316 1.353 . S
C318 C321 1.348 . S
C318 H350 0.929 . S
C319 C320 1.358 . S
C319 C321 1.356 . S
C319 H351 0.930 . S
C320 N317 1.279 . S
C320 C319 1.358 . S
C320 H323 0.930 . S
C321 C318 1.348 . S
C321 C319 1.356 . S
H322 C316 0.930 . S
H323 C320 0.930 . S
O324 Li264 1.956 . S
O324 Li265 1.970 . S
O324 Li266 1.961 . S
O324 C268 1.325 . S
O325 Li264 1.970 . S
O325 Li265 1.956 . S
O325 Li267 1.961 . S
O325 C274 1.325 . S
O326 Li264 1.961 . S
O326 Li266 1.956 . S
O326 Li267 1.970 . S
O326 C296 1.325 . S
O327 Li265 1.961 . S
O327 Li266 1.970 . S
O327 Li267 1.956 . S
O327 C302 1.325 . S
H328 C270 0.929 . S
H329 C271 0.930 . S
H330 C272 0.930 . S
H331 C273 0.930 . S
H332 C275 0.930 . S
H333 C277 0.929 . S
H334 C278 0.930 . S
H335 C279 0.930 . S
H336 C282 0.930 . S
H337 C285 0.929 . S
H338 C290 0.929 . S
H339 C291 0.930 . S
H340 C298 0.929 . S
H341 C299 0.930 . S
H342 C300 0.930 . S
H343 C301 0.930 . S
H344 C303 0.929 . S
H345 C304 0.930 . S
H346 C305 0.930 . S
H347 C306 0.930 . S
H348 C310 0.929 . S
H349 C312 0.930 . S
H350 C318 0.929 . S
H351 C319 0.930 . S
Li352 N369 1.992 . S
Li352 O412 1.968 1_556 S
Li352 O413 1.942 1_556 S
Li352 O414 1.985 . S
Li353 N377 1.990 . S
Li353 O412 2.026 . S
Li353 O413 1.956 . S
Li353 O415 1.961 . S
Li354 N399 1.990 . S
Li354 O412 1.915 1_556 S
Li354 O414 1.956 . S
Li354 O415 1.970 1_556 S
Li355 N405 1.990 . S
Li355 O413 1.961 . S
Li355 O414 1.970 1_554 S
Li355 O415 1.956 . S
C356 C358 1.350 1_556 S
C356 C359 1.353 . S
C356 O412 1.318 1_556 S
N357 C360 1.314 1_556 S
N357 C361 1.279 . S
C358 C356 1.350 1_554 S
C358 C360 1.353 . S
C358 H416 0.929 . S
C359 C356 1.353 . S
C359 C361 1.358 . S
C359 H417 0.930 . S
C360 N357 1.314 1_554 S
C360 C358 1.353 . S
C360 H418 0.930 . S
C361 N357 1.279 . S
C361 C359 1.358 . S
C361 H419 0.930 . S
C362 C365 1.348 . S
C362 C366 1.356 . S
C362 O413 1.325 . S
C363 N364 1.279 . S
C363 C366 1.358 . S
C363 H420 0.930 . S
N364 C363 1.279 . S
N364 C367 1.314 . S
C365 C362 1.348 . S
C365 C367 1.353 . S
C365 H421 0.929 . S
C366 C362 1.356 . S
C366 C363 1.358 . S
C366 H422 0.930 . S
C367 N364 1.314 . S
C367 C365 1.353 . S
C367 H423 0.930 . S
C368 N369 1.314 . S
C368 C373 1.353 . S
C368 H374 0.930 . S
N369 Li352 1.992 . S
N369 C368 1.314 . S
N369 C371 1.279 . S
C370 C371 1.358 . S
C370 C372 1.356 . S
C370 H424 0.930 . S
C371 N369 1.279 . S
C371 C370 1.358 . S
C371 H375 0.930 1_556 S
C372 C370 1.356 . S
C372 C373 1.348 . S
C373 C368 1.353 . S
C373 C372 1.348 . S
C373 H425 0.929 . S
H374 C368 0.930 . S
H375 C371 0.930 1_554 S
C376 N377 1.314 . S
C376 C378 1.353 . S
C376 H382 0.930 . S
N377 Li353 1.990 . S
N377 C376 1.314 . S
N377 C380 1.279 . S
C378 C376 1.353 . S
C378 C381 1.348 . S
C378 H426 0.929 . S
C379 C380 1.358 . S
C379 C381 1.356 . S
C379 H427 0.930 . S
C380 N377 1.279 . S
C380 C379 1.358 . S
C380 H383 0.930 . S
C381 C378 1.348 . S
C381 C379 1.356 . S
H382 C376 0.930 . S
H383 C380 0.930 . S
C384 C386 1.348 . S
C384 C387 1.356 . S
C384 O414 1.325 . S
N385 C388 1.314 . S
N385 C389 1.279 . S
C386 C384 1.348 . S
C386 C388 1.353 . S
C386 H428 0.929 . S
C387 C384 1.356 . S
C387 C389 1.358 . S
C387 H429 0.930 . S
C388 N385 1.314 . S
C388 C386 1.353 . S
C388 H430 0.930 . S
C389 N385 1.279 . S
C389 C387 1.358 . S
C389 H431 0.930 . S
C390 C391 1.348 1_554 S
C390 C392 1.356 . S
C390 O415 1.325 . S
C391 C390 1.348 1_556 S
C391 C393 1.353 . S
C391 H432 0.929 . S
C392 C390 1.356 . S
C392 C394 1.358 . S
C392 H433 0.930 . S
C393 C391 1.353 . S
C393 N395 1.314 1_556 S
C393 H434 0.930 . S
C394 C392 1.358 . S
C394 N395 1.279 . S
C394 H435 0.930 . S
N395 C393 1.314 1_554 S
N395 C394 1.279 . S
C396 C398 1.353 . S
C396 N399 1.314 . S
C396 H402 0.930 . S
C397 N399 1.279 . S
C397 C400 1.358 . S
C397 H403 0.930 . S
C398 C396 1.353 . S
C398 C401 1.348 . S
C398 H436 0.929 . S
N399 Li354 1.990 . S
N399 C396 1.314 . S
N399 C397 1.279 . S
C400 C397 1.358 . S
C400 C401 1.356 . S
C400 H437 0.930 . S
C401 C398 1.348 . S
C401 C400 1.356 . S
H402 C396 0.930 . S
H403 C397 0.930 . S
C404 N405 1.314 . S
C404 C406 1.353 . S
C404 H410 0.930 . S
N405 Li355 1.990 . S
N405 C404 1.314 . S
N405 C408 1.279 . S
C406 C404 1.353 . S
C406 C409 1.348 . S
C406 H438 0.929 . S
C407 C408 1.358 . S
C407 C409 1.356 . S
C407 H439 0.930 . S
C408 N405 1.279 . S
C408 C407 1.358 . S
C408 H411 0.930 . S
C409 C406 1.348 . S
C409 C407 1.356 . S
H410 C404 0.930 . S
H411 C408 0.930 . S
O412 Li352 1.968 1_554 S
O412 Li353 2.026 . S
O412 Li354 1.915 1_554 S
O412 C356 1.318 1_554 S
O413 Li352 1.942 1_554 S
O413 Li353 1.956 . S
O413 Li355 1.961 . S
O413 C362 1.325 . S
O414 Li352 1.985 . S
O414 Li354 1.956 . S
O414 Li355 1.970 1_556 S
O414 C384 1.325 . S
O415 Li353 1.961 . S
O415 Li354 1.970 1_554 S
O415 Li355 1.956 . S
O415 C390 1.325 . S
H416 C358 0.929 . S
H417 C359 0.930 . S
H418 C360 0.930 . S
H419 C361 0.930 . S
H420 C363 0.930 . S
H421 C365 0.929 . S
H422 C366 0.930 . S
H423 C367 0.930 . S
H424 C370 0.930 . S
H425 C373 0.929 . S
H426 C378 0.929 . S
H427 C379 0.930 . S
H428 C386 0.929 . S
H429 C387 0.930 . S
H430 C388 0.930 . S
H431 C389 0.930 . S
H432 C391 0.929 . S
H433 C392 0.930 . S
H434 C393 0.930 . S
H435 C394 0.930 . S
H436 C398 0.929 . S
H437 C400 0.930 . S
H438 C406 0.929 . S
H439 C407 0.930 . S
Li440 N457 1.990 . S
Li440 O500 1.956 . S
Li440 O501 1.970 . S
Li440 O502 1.961 . S
Li441 N465 1.990 . S
Li441 O500 1.970 . S
Li441 O501 1.956 . S
Li441 O503 1.961 . S
Li442 N487 1.990 . S
Li442 O500 1.961 . S
Li442 O502 1.956 . S
Li442 O503 1.970 . S
Li443 N493 1.963 1_545 S
Li443 O501 1.978 . S
Li443 O502 1.999 . S
Li443 O503 1.955 . S
C444 C446 1.348 . S
C444 C447 1.356 . S
C444 O500 1.325 . S
N445 C448 1.314 . S
N445 C449 1.279 . S
C446 C444 1.348 . S
C446 C448 1.353 . S
C446 H504 0.929 . S
C447 C444 1.356 . S
C447 C449 1.358 . S
C447 H505 0.930 . S
C448 N445 1.314 . S
C448 C446 1.353 . S
C448 H506 0.930 . S
C449 N445 1.279 . S
C449 C447 1.358 . S
C449 H507 0.930 . S
C450 C453 1.348 . S
C450 C454 1.356 1_545 S
C450 O501 1.325 . S
C451 N452 1.279 1_565 S
C451 C454 1.358 . S
C451 H508 0.930 . S
N452 C451 1.279 1_545 S
N452 C455 1.314 . S
C453 C450 1.348 . S
C453 C455 1.353 . S
C453 H509 0.929 . S
C454 C450 1.356 1_565 S
C454 C451 1.358 . S
C454 H510 0.930 . S
C455 N452 1.314 . S
C455 C453 1.353 . S
C455 H511 0.930 . S
C456 N457 1.314 . S
C456 C461 1.353 . S
C456 H462 0.930 . S
N457 Li440 1.990 . S
N457 C456 1.314 . S
N457 C459 1.279 . S
C458 C459 1.358 . S
C458 C460 1.356 . S
C458 H512 0.930 . S
C459 N457 1.279 . S
C459 C458 1.358 . S
C459 H463 0.930 . S
C460 C458 1.356 . S
C460 C461 1.348 . S
C461 C456 1.353 . S
C461 C460 1.348 . S
C461 H513 0.929 . S
H462 C456 0.930 . S
H463 C459 0.930 . S
C464 N465 1.314 . S
C464 C466 1.353 . S
C464 H470 0.930 . S
N465 Li441 1.990 . S
N465 C464 1.314 . S
N465 C468 1.279 . S
C466 C464 1.353 . S
C466 C469 1.348 . S
C466 H514 0.929 . S
C467 C468 1.358 . S
C467 C469 1.356 . S
C467 H515 0.930 . S
C468 N465 1.279 . S
C468 C467 1.358 . S
C468 H471 0.930 . S
C469 C466 1.348 . S
C469 C467 1.356 . S
H470 C464 0.930 . S
H471 C468 0.930 . S
C472 C474 1.348 . S
C472 C475 1.356 . S
C472 O502 1.325 . S
N473 C476 1.314 . S
N473 C477 1.279 . S
C474 C472 1.348 . S
C474 C476 1.353 . S
C474 H516 0.929 1_545 S
C475 C472 1.356 . S
C475 C477 1.358 . S
C475 H517 0.930 . S
C476 N473 1.314 . S
C476 C474 1.353 . S
C476 H518 0.892 1_545 S
C477 N473 1.279 . S
C477 C475 1.358 . S
C477 H519 0.930 . S
C478 C479 1.348 . S
C478 C480 1.356 . S
C478 O503 1.325 1_565 S
C479 C478 1.348 . S
C479 C481 1.353 . S
C479 H520 0.929 . S
C480 C478 1.356 . S
C480 C482 1.358 . S
C480 H521 0.930 . S
C481 C479 1.353 . S
C481 N483 1.314 . S
C481 H522 0.930 . S
C482 C480 1.358 . S
C482 N483 1.279 . S
C482 H523 0.930 . S
N483 C481 1.314 . S
N483 C482 1.279 . S
C484 C486 1.353 . S
C484 N487 1.314 . S
C484 H490 0.930 . S
C485 N487 1.279 . S
C485 C488 1.358 . S
C485 H491 0.930 . S
C486 C484 1.353 . S
C486 C489 1.348 . S
C486 H524 0.929 . S
N487 Li442 1.990 . S
N487 C484 1.314 . S
N487 C485 1.279 . S
C488 C485 1.358 . S
C488 C489 1.356 . S
C488 H525 0.930 . S
C489 C486 1.348 . S
C489 C488 1.356 . S
H490 C484 0.930 . S
H491 C485 0.930 . S
C492 N493 1.314 . S
C492 C494 1.353 . S
C492 H498 0.930 . S
N493 Li443 1.963 1_565 S
N493 C492 1.314 . S
N493 C496 1.279 . S
C494 C492 1.353 . S
C494 C497 1.348 . S
C494 H526 0.929 . S
C495 C496 1.358 . S
C495 C497 1.356 . S
C495 H527 0.930 . S
C496 N493 1.279 . S
C496 C495 1.358 . S
C496 H499 0.930 . S
C497 C494 1.348 . S
C497 C495 1.356 . S
H498 C492 0.930 . S
H499 C496 0.930 . S
O500 Li440 1.956 . S
O500 Li441 1.970 . S
O500 Li442 1.961 . S
O500 C444 1.325 . S
O501 Li440 1.970 . S
O501 Li441 1.956 . S
O501 Li443 1.978 . S
O501 C450 1.325 . S
O502 Li440 1.961 . S
O502 Li442 1.956 . S
O502 Li443 1.999 . S
O502 C472 1.325 . S
O503 Li441 1.961 . S
O503 Li442 1.970 . S
O503 Li443 1.955 . S
O503 C478 1.325 1_545 S
H504 C446 0.929 . S
H505 C447 0.930 . S
H506 C448 0.930 . S
H507 C449 0.930 . S
H508 C451 0.930 . S
H509 C453 0.929 . S
H510 C454 0.930 . S
H511 C455 0.930 . S
H512 C458 0.930 . S
H513 C461 0.929 . S
H514 C466 0.929 . S
H515 C467 0.930 . S
H516 C474 0.929 1_565 S
H517 C475 0.930 . S
H518 C476 0.892 1_565 S
H519 C477 0.930 . S
H520 C479 0.929 . S
H521 C480 0.930 . S
H522 C481 0.930 . S
H523 C482 0.930 . S
H524 C486 0.929 . S
H525 C488 0.930 . S
H526 C494 0.929 . S
H527 C495 0.930 . S
Li528 N545 1.990 . S
Li528 O588 1.956 . S
Li528 O589 1.970 . S
Li528 O590 1.961 . S
Li529 N553 1.990 . S
Li529 O588 1.970 . S
Li529 O589 1.956 . S
Li529 O591 1.961 . S
Li530 N575 1.990 . S
Li530 O588 1.961 . S
Li530 O590 1.956 . S
Li530 O591 1.970 . S
Li531 N581 1.990 . S
Li531 O589 1.961 . S
Li531 O590 1.970 . S
Li531 O591 1.956 . S
C532 C534 1.348 . S
C532 C535 1.356 . S
C532 O588 1.325 . S
N533 C536 1.314 . S
N533 C537 1.279 . S
C534 C532 1.348 . S
C534 C536 1.353 . S
C534 H592 0.929 . S
C535 C532 1.356 . S
C535 C537 1.358 . S
C535 H593 0.930 . S
C536 N533 1.314 . S
C536 C534 1.353 . S
C536 H594 0.930 . S
C537 N533 1.279 . S
C537 C535 1.358 . S
C537 H595 0.930 . S
C538 C541 1.348 . S
C538 C542 1.356 . S
C538 O589 1.325 . S
C539 N540 1.279 . S
C539 C542 1.358 . S
C539 H596 0.930 . S
N540 C539 1.279 . S
N540 C543 1.314 . S
C541 C538 1.348 . S
C541 C543 1.353 . S
C541 H597 0.929 . S
C542 C538 1.356 . S
C542 C539 1.358 . S
C542 H598 0.930 . S
C543 N540 1.314 . S
C543 C541 1.353 . S
C543 H599 0.930 . S
C544 N545 1.314 . S
C544 C549 1.353 . S
C544 H550 0.930 . S
N545 Li528 1.990 . S
N545 C544 1.314 . S
N545 C547 1.279 . S
C546 C547 1.358 . S
C546 C548 1.356 . S
C546 H600 0.930 . S
C547 N545 1.279 . S
C547 C546 1.358 . S
C547 H551 0.930 . S
C548 C546 1.356 . S
C548 C549 1.348 . S
C549 C544 1.353 . S
C549 C548 1.348 . S
C549 H601 0.929 . S
H550 C544 0.930 . S
H551 C547 0.930 . S
C552 N553 1.314 . S
C552 C554 1.353 . S
C552 H558 0.930 . S
N553 Li529 1.990 . S
N553 C552 1.314 . S
N553 C556 1.279 . S
C554 C552 1.353 . S
C554 C557 1.348 . S
C554 H602 0.929 . S
C555 C556 1.358 . S
C555 C557 1.356 . S
C555 H603 0.930 . S
C556 N553 1.279 . S
C556 C555 1.358 . S
C556 H559 0.930 . S
C557 C554 1.348 . S
C557 C555 1.356 . S
H558 C552 0.930 . S
H559 C556 0.930 . S
C560 C562 1.348 . S
C560 C563 1.356 . S
C560 O590 1.325 . S
N561 C564 1.314 . S
N561 C565 1.279 . S
C562 C560 1.348 . S
C562 C564 1.353 . S
C562 H604 0.929 . S
C563 C560 1.356 . S
C563 C565 1.358 . S
C563 H605 0.930 . S
C564 N561 1.314 . S
C564 C562 1.353 . S
C564 H606 0.930 . S
C565 N561 1.279 . S
C565 C563 1.358 . S
C565 H607 0.930 . S
C566 C567 1.348 . S
C566 C568 1.356 . S
C566 O591 1.325 . S
C567 C566 1.348 . S
C567 C569 1.353 . S
C567 H608 0.929 . S
C568 C566 1.356 . S
C568 C570 1.358 . S
C568 H609 0.930 . S
C569 C567 1.353 . S
C569 N571 1.314 . S
C569 H610 0.930 . S
C570 C568 1.358 . S
C570 N571 1.279 . S
C570 H611 0.930 . S
N571 C569 1.314 . S
N571 C570 1.279 . S
C572 C574 1.353 . S
C572 N575 1.314 . S
C572 H578 0.930 . S
C573 N575 1.279 . S
C573 C576 1.358 . S
C573 H579 0.930 . S
C574 C572 1.353 . S
C574 C577 1.348 . S
C574 H612 0.929 . S
N575 Li530 1.990 . S
N575 C572 1.314 . S
N575 C573 1.279 . S
C576 C573 1.358 . S
C576 C577 1.356 . S
C576 H613 0.930 . S
C577 C574 1.348 . S
C577 C576 1.356 . S
H578 C572 0.930 . S
H579 C573 0.930 . S
C580 N581 1.314 . S
C580 C582 1.353 . S
C580 H586 0.930 . S
N581 Li531 1.990 . S
N581 C580 1.314 . S
N581 C584 1.279 . S
C582 C580 1.353 . S
C582 C585 1.348 . S
C582 H614 0.929 . S
C583 C584 1.358 . S
C583 C585 1.356 . S
C583 H615 0.930 . S
C584 N581 1.279 . S
C584 C583 1.358 . S
C584 H587 0.930 . S
C585 C582 1.348 . S
C585 C583 1.356 . S
H586 C580 0.930 . S
H587 C584 0.930 . S
O588 Li528 1.956 . S
O588 Li529 1.970 . S
O588 Li530 1.961 . S
O588 C532 1.325 . S
O589 Li528 1.970 . S
O589 Li529 1.956 . S
O589 Li531 1.961 . S
O589 C538 1.325 . S
O590 Li528 1.961 . S
O590 Li530 1.956 . S
O590 Li531 1.970 . S
O590 C560 1.325 . S
O591 Li529 1.961 . S
O591 Li530 1.970 . S
O591 Li531 1.956 . S
O591 C566 1.325 . S
H592 C534 0.929 . S
H593 C535 0.930 . S
H594 C536 0.930 . S
H595 C537 0.930 . S
H596 C539 0.930 . S
H597 C541 0.929 . S
H598 C542 0.930 . S
H599 C543 0.930 . S
H600 C546 0.930 . S
H601 C549 0.929 . S
H602 C554 0.929 . S
H603 C555 0.930 . S
H604 C562 0.929 . S
H605 C563 0.930 . S
H606 C564 0.930 . S
H607 C565 0.930 . S
H608 C567 0.929 . S
H609 C568 0.930 . S
H610 C569 0.930 . S
H611 C570 0.930 . S
H612 C574 0.929 . S
H613 C576 0.930 . S
H614 C582 0.929 . S
H615 C583 0.930 . S
Li616 N633 1.990 . S
Li616 O676 1.956 . S
Li616 O677 1.970 . S
Li616 O678 1.961 . S
Li617 N641 1.990 . S
Li617 O676 1.970 . S
Li617 O677 1.956 . S
Li617 O679 1.961 . S
Li618 N663 1.990 . S
Li618 O676 1.961 . S
Li618 O678 1.956 . S
Li618 O679 1.970 . S
Li619 N669 1.990 . S
Li619 O677 1.961 . S
Li619 O678 1.970 . S
Li619 O679 1.956 . S
C620 C622 1.348 . S
C620 C623 1.356 . S
C620 O676 1.325 . S
N621 C624 1.314 . S
N621 C625 1.279 . S
C622 C620 1.348 . S
C622 C624 1.353 . S
C622 H680 0.929 . S
C623 C620 1.356 . S
C623 C625 1.358 . S
C623 H681 0.930 . S
C624 N621 1.314 . S
C624 C622 1.353 . S
C624 H682 0.930 . S
C625 N621 1.279 . S
C625 C623 1.358 . S
C625 H683 0.930 . S
C626 C629 1.348 . S
C626 C630 1.356 . S
C626 O677 1.325 . S
C627 N628 1.279 . S
C627 C630 1.358 . S
C627 H684 0.930 . S
N628 C627 1.279 . S
N628 C631 1.314 . S
C629 C626 1.348 . S
C629 C631 1.353 . S
C629 H685 0.929 . S
C630 C626 1.356 . S
C630 C627 1.358 . S
C630 H686 0.930 . S
C631 N628 1.314 . S
C631 C629 1.353 . S
C631 H687 0.930 . S
C632 N633 1.314 . S
C632 C637 1.353 . S
C632 H638 0.930 . S
N633 Li616 1.990 . S
N633 C632 1.314 . S
N633 C635 1.279 . S
C634 C635 1.358 . S
C634 C636 1.356 . S
C634 H688 0.930 . S
C635 N633 1.279 . S
C635 C634 1.358 . S
C635 H639 0.930 . S
C636 C634 1.356 . S
C636 C637 1.348 . S
C637 C632 1.353 . S
C637 C636 1.348 . S
C637 H689 0.929 . S
H638 C632 0.930 . S
H639 C635 0.930 . S
C640 N641 1.314 . S
C640 C642 1.353 . S
C640 H646 0.930 . S
N641 Li617 1.990 . S
N641 C640 1.314 . S
N641 C644 1.279 . S
C642 C640 1.353 . S
C642 C645 1.348 . S
C642 H690 0.929 . S
C643 C644 1.358 . S
C643 C645 1.356 . S
C643 H691 0.930 . S
C644 N641 1.279 . S
C644 C643 1.358 . S
C644 H647 0.930 . S
C645 C642 1.348 . S
C645 C643 1.356 . S
H646 C640 0.930 . S
H647 C644 0.930 . S
C648 C650 1.348 . S
C648 C651 1.356 . S
C648 O678 1.325 . S
N649 C652 1.314 . S
N649 C653 1.279 . S
C650 C648 1.348 . S
C650 C652 1.353 . S
C650 H692 0.929 . S
C651 C648 1.356 . S
C651 C653 1.358 . S
C651 H693 0.930 . S
C652 N649 1.314 . S
C652 C650 1.353 . S
C652 H694 0.930 . S
C653 N649 1.279 . S
C653 C651 1.358 . S
C653 H695 0.930 . S
C654 C655 1.348 . S
C654 C656 1.356 . S
C654 O679 1.325 . S
C655 C654 1.348 . S
C655 C657 1.353 . S
C655 H696 0.929 . S
C656 C654 1.356 . S
C656 C658 1.358 . S
C656 H697 0.930 . S
C657 C655 1.353 . S
C657 N659 1.314 . S
C657 H698 0.930 . S
C658 C656 1.358 . S
C658 N659 1.279 . S
C658 H699 0.930 . S
N659 C657 1.314 . S
N659 C658 1.279 . S
C660 C662 1.353 . S
C660 N663 1.314 . S
C660 H666 0.930 . S
C661 N663 1.279 . S
C661 C664 1.358 . S
C661 H667 0.930 . S
C662 C660 1.353 . S
C662 C665 1.348 . S
C662 H700 0.929 . S
N663 Li618 1.990 . S
N663 C660 1.314 . S
N663 C661 1.279 . S
C664 C661 1.358 . S
C664 C665 1.356 . S
C664 H701 0.930 . S
C665 C662 1.348 . S
C665 C664 1.356 . S
H666 C660 0.930 . S
H667 C661 0.930 . S
C668 N669 1.314 . S
C668 C670 1.353 . S
C668 H674 0.930 . S
N669 Li619 1.990 . S
N669 C668 1.314 . S
N669 C672 1.279 . S
C670 C668 1.353 . S
C670 C673 1.348 . S
C670 H702 0.929 . S
C671 C672 1.358 . S
C671 C673 1.356 . S
C671 H703 0.930 . S
C672 N669 1.279 . S
C672 C671 1.358 . S
C672 H675 0.930 . S
C673 C670 1.348 . S
C673 C671 1.356 . S
H674 C668 0.930 . S
H675 C672 0.930 . S
O676 Li616 1.956 . S
O676 Li617 1.970 . S
O676 Li618 1.961 . S
O676 C620 1.325 . S
O677 Li616 1.970 . S
O677 Li617 1.956 . S
O677 Li619 1.961 . S
O677 C626 1.325 . S
O678 Li616 1.961 . S
O678 Li618 1.956 . S
O678 Li619 1.970 . S
O678 C648 1.325 . S
O679 Li617 1.961 . S
O679 Li618 1.970 . S
O679 Li619 1.956 . S
O679 C654 1.325 . S
H680 C622 0.929 . S
H681 C623 0.930 . S
H682 C624 0.930 . S
H683 C625 0.930 . S
H684 C627 0.930 . S
H685 C629 0.929 . S
H686 C630 0.930 . S
H687 C631 0.930 . S
H688 C634 0.930 . S
H689 C637 0.929 . S
H690 C642 0.929 . S
H691 C643 0.930 . S
H692 C650 0.929 . S
H693 C651 0.930 . S
H694 C652 0.930 . S
H695 C653 0.930 . S
H696 C655 0.929 . S
H697 C656 0.930 . S
H698 C657 0.930 . S
H699 C658 0.930 . S
H700 C662 0.929 . S
H701 C664 0.930 . S
H702 C670 0.929 . S
H703 C671 0.930 . S
Li704 N721 1.990 . S
Li704 O764 1.956 . S
Li704 O765 1.970 . S
Li704 O766 1.961 . S
Li705 N729 1.990 . S
Li705 O764 1.970 . S
Li705 O765 1.956 . S
Li705 O767 1.961 . S
Li706 N751 1.990 . S
Li706 O764 1.961 . S
Li706 O766 1.956 . S
Li706 O767 1.970 . S
Li707 N757 1.990 . S
Li707 O765 1.961 . S
Li707 O766 1.970 . S
Li707 O767 1.956 . S
C708 C710 1.348 . S
C708 C711 1.356 . S
C708 O764 1.325 . S
N709 C712 1.314 . S
N709 C713 1.279 . S
C710 C708 1.348 . S
C710 C712 1.353 . S
C710 H768 0.929 . S
C711 C708 1.356 . S
C711 C713 1.358 . S
C711 H769 0.930 . S
C712 N709 1.314 . S
C712 C710 1.353 . S
C712 H770 0.930 . S
C713 N709 1.279 . S
C713 C711 1.358 . S
C713 H771 0.930 . S
C714 C717 1.348 . S
C714 C718 1.356 . S
C714 O765 1.325 . S
C715 N716 1.279 . S
C715 C718 1.358 . S
C715 H772 0.930 . S
N716 C715 1.279 . S
N716 C719 1.314 . S
C717 C714 1.348 . S
C717 C719 1.353 . S
C717 H773 0.929 . S
C718 C714 1.356 . S
C718 C715 1.358 . S
C718 H774 0.930 . S
C719 N716 1.314 . S
C719 C717 1.353 . S
C719 H775 0.930 . S
C720 N721 1.314 . S
C720 C725 1.353 . S
C720 H726 0.930 . S
N721 Li704 1.990 . S
N721 C720 1.314 . S
N721 C723 1.279 . S
C722 C723 1.358 . S
C722 C724 1.356 . S
C722 H776 0.930 . S
C723 N721 1.279 . S
C723 C722 1.358 . S
C723 H727 0.930 . S
C724 C722 1.356 . S
C724 C725 1.348 . S
C725 C720 1.353 . S
C725 C724 1.348 . S
C725 H777 0.929 . S
H726 C720 0.930 . S
H727 C723 0.930 . S
C728 N729 1.314 . S
C728 C730 1.353 . S
C728 H734 0.930 . S
N729 Li705 1.990 . S
N729 C728 1.314 . S
N729 C732 1.279 . S
C730 C728 1.353 . S
C730 C733 1.348 . S
C730 H778 0.929 . S
C731 C732 1.358 . S
C731 C733 1.356 . S
C731 H779 0.930 . S
C732 N729 1.279 . S
C732 C731 1.358 . S
C732 H735 0.930 . S
C733 C730 1.348 . S
C733 C731 1.356 . S
H734 C728 0.930 . S
H735 C732 0.930 . S
C736 C738 1.348 . S
C736 C739 1.356 . S
C736 O766 1.325 . S
N737 C740 1.314 . S
N737 C741 1.279 . S
C738 C736 1.348 . S
C738 C740 1.353 . S
C738 H780 0.929 . S
C739 C736 1.356 . S
C739 C741 1.358 . S
C739 H781 0.930 . S
C740 N737 1.314 . S
C740 C738 1.353 . S
C740 H782 0.930 . S
C741 N737 1.279 . S
C741 C739 1.358 . S
C741 H783 0.930 . S
C742 C743 1.348 . S
C742 C744 1.356 . S
C742 O767 1.325 . S
C743 C742 1.348 . S
C743 C745 1.353 . S
C743 H784 0.929 . S
C744 C742 1.356 . S
C744 C746 1.358 . S
C744 H785 0.930 . S
C745 C743 1.353 . S
C745 N747 1.314 . S
C745 H786 0.930 . S
C746 C744 1.358 . S
C746 N747 1.279 . S
C746 H787 0.930 . S
N747 C745 1.314 . S
N747 C746 1.279 . S
C748 C750 1.353 . S
C748 N751 1.314 . S
C748 H754 0.930 . S
C749 N751 1.279 . S
C749 C752 1.358 . S
C749 H755 0.930 . S
C750 C748 1.353 . S
C750 C753 1.348 . S
C750 H788 0.929 . S
N751 Li706 1.990 . S
N751 C748 1.314 . S
N751 C749 1.279 . S
C752 C749 1.358 . S
C752 C753 1.356 . S
C752 H789 0.930 . S
C753 C750 1.348 . S
C753 C752 1.356 . S
H754 C748 0.930 . S
H755 C749 0.930 . S
C756 N757 1.314 . S
C756 C758 1.353 . S
C756 H762 0.930 . S
N757 Li707 1.990 . S
N757 C756 1.314 . S
N757 C760 1.279 . S
C758 C756 1.353 . S
C758 C761 1.348 . S
C758 H790 0.929 . S
C759 C760 1.358 . S
C759 C761 1.356 . S
C759 H791 0.930 . S
C760 N757 1.279 . S
C760 C759 1.358 . S
C760 H763 0.930 . S
C761 C758 1.348 . S
C761 C759 1.356 . S
H762 C756 0.930 . S
H763 C760 0.930 . S
O764 Li704 1.956 . S
O764 Li705 1.970 . S
O764 Li706 1.961 . S
O764 C708 1.325 . S
O765 Li704 1.970 . S
O765 Li705 1.956 . S
O765 Li707 1.961 . S
O765 C714 1.325 . S
O766 Li704 1.961 . S
O766 Li706 1.956 . S
O766 Li707 1.970 . S
O766 C736 1.325 . S
O767 Li705 1.961 . S
O767 Li706 1.970 . S
O767 Li707 1.956 . S
O767 C742 1.325 . S
H768 C710 0.929 . S
H769 C711 0.930 . S
H770 C712 0.930 . S
H771 C713 0.930 . S
H772 C715 0.930 . S
H773 C717 0.929 . S
H774 C718 0.930 . S
H775 C719 0.930 . S
H776 C722 0.930 . S
H777 C725 0.929 . S
H778 C730 0.929 . S
H779 C731 0.930 . S
H780 C738 0.929 . S
H781 C739 0.930 . S
H782 C740 0.930 . S
H783 C741 0.930 . S
H784 C743 0.929 . S
H785 C744 0.930 . S
H786 C745 0.930 . S
H787 C746 0.930 . S
H788 C750 0.929 . S
H789 C752 0.930 . S
H790 C758 0.929 . S
H791 C759 0.930 . S
Li792 N809 1.990 . S
Li792 O852 1.956 . S
Li792 O853 1.970 1_565 S
Li792 O854 1.961 . S
Li793 N817 1.990 . S
Li793 O852 1.970 1_545 S
Li793 O853 1.956 . S
Li793 O855 1.961 . S
Li794 N839 1.990 . S
Li794 O852 1.961 . S
Li794 O854 1.956 . S
Li794 O855 1.970 1_565 S
Li795 N845 1.990 . S
Li795 O853 1.961 . S
Li795 O854 1.970 1_545 S
Li795 O855 1.956 . S
C796 C798 1.348 . S
C796 C799 1.356 . S
C796 O852 1.325 . S
N797 C800 1.314 . S
N797 C801 1.279 . S
C798 C796 1.348 . S
C798 C800 1.353 . S
C798 H856 0.929 . S
C799 C796 1.356 . S
C799 C801 1.358 . S
C799 H857 0.930 . S
C800 N797 1.314 . S
C800 C798 1.353 . S
C800 H858 0.930 . S
C801 N797 1.279 . S
C801 C799 1.358 . S
C801 H859 0.930 . S
C802 C805 1.348 1_545 S
C802 C806 1.356 . S
C802 O853 1.325 . S
C803 N804 1.279 . S
C803 C806 1.358 . S
C803 H860 0.930 . S
N804 C803 1.279 . S
N804 C807 1.314 1_545 S
C805 C802 1.348 1_565 S
C805 C807 1.353 . S
C805 H861 0.929 . S
C806 C802 1.356 . S
C806 C803 1.358 . S
C806 H862 0.930 . S
C807 N804 1.314 1_565 S
C807 C805 1.353 . S
C807 H863 0.930 . S
C808 N809 1.314 . S
C808 C813 1.353 . S
C808 H814 0.930 . S
N809 Li792 1.990 . S
N809 C808 1.314 . S
N809 C811 1.279 . S
C810 C811 1.358 . S
C810 C812 1.356 . S
C810 H864 0.930 . S
C811 N809 1.279 . S
C811 C810 1.358 . S
C811 H815 0.930 . S
C812 C810 1.356 . S
C812 C813 1.348 . S
C813 C808 1.353 . S
C813 C812 1.348 . S
C813 H865 0.929 . S
H814 C808 0.930 . S
H815 C811 0.930 . S
C816 N817 1.314 . S
C816 C818 1.353 . S
C816 H822 0.930 . S
N817 Li793 1.990 . S
N817 C816 1.314 . S
N817 C820 1.279 . S
C818 C816 1.353 . S
C818 C821 1.348 . S
C818 H866 0.929 . S
C819 C820 1.358 . S
C819 C821 1.356 . S
C819 H867 0.930 . S
C820 N817 1.279 . S
C820 C819 1.358 . S
C820 H823 0.930 . S
C821 C818 1.348 . S
C821 C819 1.356 . S
H822 C816 0.930 . S
H823 C820 0.930 . S
C824 C826 1.348 1_565 S
C824 C827 1.356 . S
C824 O854 1.325 . S
N825 C828 1.314 1_565 S
N825 C829 1.279 . S
C826 C824 1.348 1_545 S
C826 C828 1.353 . S
C826 H868 0.929 . S
C827 C824 1.356 . S
C827 C829 1.358 . S
C827 H869 0.930 . S
C828 N825 1.314 1_545 S
C828 C826 1.353 . S
C828 H870 0.930 . S
C829 N825 1.279 . S
C829 C827 1.358 . S
C829 H871 0.930 . S
C830 C831 1.348 . S
C830 C832 1.356 . S
C830 O855 1.325 . S
C831 C830 1.348 . S
C831 C833 1.353 . S
C831 H872 0.929 . S
C832 C830 1.356 . S
C832 C834 1.358 . S
C832 H873 0.930 . S
C833 C831 1.353 . S
C833 N835 1.314 . S
C833 H874 0.930 . S
C834 C832 1.358 . S
C834 N835 1.279 . S
C834 H875 0.930 . S
N835 C833 1.314 . S
N835 C834 1.279 . S
C836 C838 1.353 . S
C836 N839 1.314 . S
C836 H842 0.930 . S
C837 N839 1.279 . S
C837 C840 1.358 . S
C837 H843 0.930 . S
C838 C836 1.353 . S
C838 C841 1.348 . S
C838 H876 0.929 . S
N839 Li794 1.990 . S
N839 C836 1.314 . S
N839 C837 1.279 . S
C840 C837 1.358 . S
C840 C841 1.356 . S
C840 H877 0.930 . S
C841 C838 1.348 . S
C841 C840 1.356 . S
H842 C836 0.930 . S
H843 C837 0.930 . S
C844 N845 1.314 . S
C844 C846 1.353 . S
C844 H850 0.930 . S
N845 Li795 1.990 . S
N845 C844 1.314 . S
N845 C848 1.279 . S
C846 C844 1.353 . S
C846 C849 1.348 . S
C846 H878 0.929 . S
C847 C848 1.358 . S
C847 C849 1.356 . S
C847 H879 0.930 . S
C848 N845 1.279 . S
C848 C847 1.358 . S
C848 H851 0.930 . S
C849 C846 1.348 . S
C849 C847 1.356 . S
H850 C844 0.930 . S
H851 C848 0.930 . S
O852 Li792 1.956 . S
O852 Li793 1.970 1_565 S
O852 Li794 1.961 . S
O852 C796 1.325 . S
O853 Li792 1.970 1_545 S
O853 Li793 1.956 . S
O853 Li795 1.961 . S
O853 C802 1.325 . S
O854 Li792 1.961 . S
O854 Li794 1.956 . S
O854 Li795 1.970 1_565 S
O854 C824 1.325 . S
O855 Li793 1.961 . S
O855 Li794 1.970 1_545 S
O855 Li795 1.956 . S
O855 C830 1.325 . S
H856 C798 0.929 . S
H857 C799 0.930 . S
H858 C800 0.930 . S
H859 C801 0.930 . S
H860 C803 0.930 . S
H861 C805 0.929 . S
H862 C806 0.930 . S
H863 C807 0.930 . S
H864 C810 0.930 . S
H865 C813 0.929 . S
H866 C818 0.929 . S
H867 C819 0.930 . S
H868 C826 0.929 . S
H869 C827 0.930 . S
H870 C828 0.930 . S
H871 C829 0.930 . S
H872 C831 0.929 . S
H873 C832 0.930 . S
H874 C833 0.930 . S
H875 C834 0.930 . S
H876 C838 0.929 . S
H877 C840 0.930 . S
H878 C846 0.929 . S
H879 C847 0.930 . S
Li880 N897 1.990 . S
Li880 O940 1.956 . S
Li880 O941 1.970 . S
Li880 O942 1.961 . S
Li881 N905 1.990 . S
Li881 O940 1.970 . S
Li881 O941 1.956 . S
Li881 O943 1.961 1_455 S
Li882 N927 1.990 . S
Li882 O940 1.961 . S
Li882 O942 1.956 . S
Li882 O943 1.970 1_455 S
Li883 N933 1.990 . S
Li883 O941 1.961 1_655 S
Li883 O942 1.970 1_655 S
Li883 O943 1.956 . S
C884 C886 1.348 . S
C884 C887 1.356 . S
C884 O940 1.325 . S
N885 C888 1.314 . S
N885 C889 1.279 . S
C886 C884 1.348 . S
C886 C888 1.353 . S
C886 H944 0.929 . S
C887 C884 1.356 . S
C887 C889 1.358 . S
C887 H945 0.930 . S
C888 N885 1.314 . S
C888 C886 1.353 . S
C888 H946 0.930 . S
C889 N885 1.279 . S
C889 C887 1.358 . S
C889 H947 0.930 . S
C890 C893 1.348 . S
C890 C894 1.356 1_455 S
C890 O941 1.325 . S
C891 N892 1.279 1_655 S
C891 C894 1.358 . S
C891 H948 0.930 . S
N892 C891 1.279 1_455 S
N892 C895 1.314 . S
C893 C890 1.348 . S
C893 C895 1.353 . S
C893 H949 0.929 . S
C894 C890 1.356 1_655 S
C894 C891 1.358 . S
C894 H950 0.930 . S
C895 N892 1.314 . S
C895 C893 1.353 . S
C895 H951 0.930 . S
C896 N897 1.314 . S
C896 C901 1.353 . S
C896 H902 0.930 . S
N897 Li880 1.990 . S
N897 C896 1.314 . S
N897 C899 1.279 . S
C898 C899 1.358 . S
C898 C900 1.356 . S
C898 H952 0.930 . S
C899 N897 1.279 . S
C899 C898 1.358 . S
C899 H903 0.930 . S
C900 C898 1.356 . S
C900 C901 1.348 . S
C901 C896 1.353 . S
C901 C900 1.348 . S
C901 H953 0.929 . S
H902 C896 0.930 . S
H903 C899 0.930 . S
C904 N905 1.314 . S
C904 C906 1.353 . S
C904 H910 0.930 . S
N905 Li881 1.990 . S
N905 C904 1.314 . S
N905 C908 1.279 . S
C906 C904 1.353 . S
C906 C909 1.348 . S
C906 H954 0.938 . S
C907 C908 1.358 . S
C907 C909 1.356 . S
C907 H955 0.930 . S
C908 N905 1.279 . S
C908 C907 1.358 . S
C908 H911 0.930 . S
C909 C906 1.348 . S
C909 C907 1.356 . S
H910 C904 0.930 . S
H911 C908 0.930 . S
C912 C914 1.348 . S
C912 C915 1.356 . S
C912 O942 1.325 . S
N913 C916 1.314 . S
N913 C917 1.279 . S
C914 C912 1.348 . S
C914 C916 1.353 . S
C914 H956 0.929 1_455 S
C915 C912 1.356 . S
C915 C917 1.358 . S
C915 H957 0.930 . S
C916 N913 1.314 . S
C916 C914 1.353 . S
C916 H958 0.930 1_455 S
C917 N913 1.279 . S
C917 C915 1.358 . S
C917 H959 0.930 . S
C918 C919 1.348 . S
C918 C920 1.356 . S
C918 O943 1.325 . S
C919 C918 1.348 . S
C919 C921 1.353 . S
C919 H960 0.929 . S
C920 C918 1.356 . S
C920 C922 1.358 . S
C920 H961 0.930 . S
C921 C919 1.353 . S
C921 N923 1.314 . S
C921 H962 0.930 . S
C922 C920 1.358 . S
C922 N923 1.279 . S
C922 H963 0.930 . S
N923 C921 1.314 . S
N923 C922 1.279 . S
C924 C926 1.353 . S
C924 N927 1.314 . S
C924 H930 0.930 . S
C925 N927 1.279 . S
C925 C928 1.358 . S
C925 H931 0.930 . S
C926 C924 1.353 . S
C926 C929 1.348 . S
C926 H964 0.929 . S
N927 Li882 1.990 . S
N927 C924 1.314 . S
N927 C925 1.279 . S
C928 C925 1.358 . S
C928 C929 1.356 . S
C928 H965 0.930 . S
C929 C926 1.348 . S
C929 C928 1.356 . S
H930 C924 0.930 . S
H931 C925 0.930 . S
C932 N933 1.314 . S
C932 C934 1.353 . S
C932 H938 0.930 . S
N933 Li883 1.990 . S
N933 C932 1.314 . S
N933 C936 1.279 . S
C934 C932 1.353 . S
C934 C937 1.348 . S
C934 H966 0.929 . S
C935 C936 1.358 . S
C935 C937 1.356 . S
C935 H967 0.930 . S
C936 N933 1.279 . S
C936 C935 1.358 . S
C936 H939 0.930 . S
C937 C934 1.348 . S
C937 C935 1.356 . S
H938 C932 0.930 . S
H939 C936 0.930 . S
O940 Li880 1.956 . S
O940 Li881 1.970 . S
O940 Li882 1.961 . S
O940 C884 1.325 . S
O941 Li880 1.970 . S
O941 Li881 1.956 . S
O941 Li883 1.961 1_455 S
O941 C890 1.325 . S
O942 Li880 1.961 . S
O942 Li882 1.956 . S
O942 Li883 1.970 1_455 S
O942 C912 1.325 . S
O943 Li881 1.961 1_655 S
O943 Li882 1.970 1_655 S
O943 Li883 1.956 . S
O943 C918 1.325 . S
H944 C886 0.929 . S
H945 C887 0.930 . S
H946 C888 0.930 . S
H947 C889 0.930 . S
H948 C891 0.930 . S
H949 C893 0.929 . S
H950 C894 0.930 . S
H951 C895 0.930 . S
H952 C898 0.930 . S
H953 C901 0.929 . S
H954 C906 0.938 . S
H955 C907 0.930 . S
H956 C914 0.929 1_655 S
H957 C915 0.930 . S
H958 C916 0.930 1_655 S
H959 C917 0.930 . S
H960 C919 0.929 . S
H961 C920 0.930 . S
H962 C921 0.930 . S
H963 C922 0.930 . S
H964 C926 0.929 . S
H965 C928 0.930 . S
H966 C934 0.929 . S
H967 C935 0.930 . S
Li968 N985 1.990 . S
Li968 O1028 1.956 . S
Li968 O1029 1.970 . S
Li968 O1030 1.961 . S
Li969 N993 1.990 . S
Li969 O1028 1.970 . S
Li969 O1029 1.956 . S
Li969 O1031 1.961 . S
Li970 N1015 1.990 . S
Li970 O1028 1.961 . S
Li970 O1030 1.956 . S
Li970 O1031 1.970 . S
Li971 N1021 1.990 . S
Li971 O1029 1.961 . S
Li971 O1030 1.970 . S
Li971 O1031 1.956 . S
C972 C974 1.348 . S
C972 C975 1.356 . S
C972 O1028 1.325 . S
N973 C976 1.314 . S
N973 C977 1.279 . S
C974 C972 1.348 . S
C974 C976 1.353 . S
C974 H1032 0.929 . S
C975 C972 1.356 . S
C975 C977 1.358 . S
C975 H1033 0.930 . S
C976 N973 1.314 . S
C976 C974 1.353 . S
C976 H1034 0.930 . S
C977 N973 1.279 . S
C977 C975 1.358 . S
C977 H1035 0.930 . S
C978 C981 1.348 . S
C978 C982 1.356 . S
C978 O1029 1.325 . S
C979 N980 1.279 . S
C979 C982 1.358 . S
C979 H1036 0.930 . S
N980 C979 1.279 . S
N980 C983 1.314 . S
C981 C978 1.348 . S
C981 C983 1.353 . S
C981 H1037 0.929 . S
C982 C978 1.356 . S
C982 C979 1.358 . S
C982 H1038 0.930 . S
C983 N980 1.314 . S
C983 C981 1.353 . S
C983 H1039 0.930 . S
C984 N985 1.314 . S
C984 C989 1.353 . S
C984 H990 0.930 . S
N985 Li968 1.990 . S
N985 C984 1.314 . S
N985 C987 1.279 . S
C986 C987 1.358 . S
C986 C988 1.356 . S
C986 H1040 0.930 . S
C987 N985 1.279 . S
C987 C986 1.358 . S
C987 H991 0.930 . S
C988 C986 1.356 . S
C988 C989 1.348 . S
C989 C984 1.353 . S
C989 C988 1.348 . S
C989 H1041 0.929 . S
H990 C984 0.930 . S
H991 C987 0.930 . S
C992 N993 1.314 . S
C992 C994 1.353 . S
C992 H998 0.930 . S
N993 Li969 1.990 . S
N993 C992 1.314 . S
N993 C996 1.279 . S
C994 C992 1.353 . S
C994 C997 1.348 . S
C994 H1042 0.929 . S
C995 C996 1.358 . S
C995 C997 1.356 . S
C995 H1043 0.930 . S
C996 N993 1.279 . S
C996 C995 1.358 . S
C996 H999 0.930 . S
C997 C994 1.348 . S
C997 C995 1.356 . S
H998 C992 0.930 . S
H999 C996 0.930 . S
C1000 C1002 1.348 . S
C1000 C1003 1.356 . S
C1000 O1030 1.325 . S
N1001 C1004 1.314 . S
N1001 C1005 1.279 . S
C1002 C1000 1.348 . S
C1002 C1004 1.353 . S
C1002 H1044 0.929 . S
C1003 C1000 1.356 . S
C1003 C1005 1.358 . S
C1003 H1045 0.930 . S
C1004 N1001 1.314 . S
C1004 C1002 1.353 . S
C1004 H1046 0.930 . S
C1005 N1001 1.279 . S
C1005 C1003 1.358 . S
C1005 H1047 0.930 . S
C1006 C1007 1.348 . S
C1006 C1008 1.356 . S
C1006 O1031 1.325 . S
C1007 C1006 1.348 . S
C1007 C1009 1.353 . S
C1007 H1048 0.929 . S
C1008 C1006 1.356 . S
C1008 C1010 1.358 . S
C1008 H1049 0.930 . S
C1009 C1007 1.353 . S
C1009 N1011 1.314 . S
C1009 H1050 0.930 . S
C1010 C1008 1.358 . S
C1010 N1011 1.279 . S
C1010 H1051 0.930 . S
N1011 C1009 1.314 . S
N1011 C1010 1.279 . S
C1012 C1014 1.353 . S
C1012 N1015 1.314 . S
C1012 H1018 0.930 . S
C1013 N1015 1.279 . S
C1013 C1016 1.358 . S
C1013 H1019 0.930 . S
C1014 C1012 1.353 . S
C1014 C1017 1.348 . S
C1014 H1052 0.929 . S
N1015 Li970 1.990 . S
N1015 C1012 1.314 . S
N1015 C1013 1.279 . S
C1016 C1013 1.358 . S
C1016 C1017 1.356 . S
C1016 H1053 0.930 . S
C1017 C1014 1.348 . S
C1017 C1016 1.356 . S
H1018 C1012 0.930 . S
H1019 C1013 0.930 . S
C1020 N1021 1.314 . S
C1020 C1022 1.353 . S
C1020 H1026 0.930 . S
N1021 Li971 1.990 . S
N1021 C1020 1.314 . S
N1021 C1024 1.279 . S
C1022 C1020 1.353 . S
C1022 C1025 1.348 . S
C1022 H1054 0.929 . S
C1023 C1024 1.358 . S
C1023 C1025 1.356 . S
C1023 H1055 0.930 . S
C1024 N1021 1.279 . S
C1024 C1023 1.358 . S
C1024 H1027 0.930 . S
C1025 C1022 1.348 . S
C1025 C1023 1.356 . S
H1026 C1020 0.930 . S
H1027 C1024 0.930 . S
O1028 Li968 1.956 . S
O1028 Li969 1.970 . S
O1028 Li970 1.961 . S
O1028 C972 1.325 . S
O1029 Li968 1.970 . S
O1029 Li969 1.956 . S
O1029 Li971 1.961 . S
O1029 C978 1.325 . S
O1030 Li968 1.961 . S
O1030 Li970 1.956 . S
O1030 Li971 1.970 . S
O1030 C1000 1.325 . S
O1031 Li969 1.961 . S
O1031 Li970 1.970 . S
O1031 Li971 1.956 . S
O1031 C1006 1.325 . S
H1032 C974 0.929 . S
H1033 C975 0.930 . S
H1034 C976 0.930 . S
H1035 C977 0.930 . S
H1036 C979 0.930 . S
H1037 C981 0.929 . S
H1038 C982 0.930 . S
H1039 C983 0.930 . S
H1040 C986 0.930 . S
H1041 C989 0.929 . S
H1042 C994 0.929 . S
H1043 C995 0.930 . S
H1044 C1002 0.929 . S
H1045 C1003 0.930 . S
H1046 C1004 0.930 . S
H1047 C1005 0.930 . S
H1048 C1007 0.929 . S
H1049 C1008 0.930 . S
H1050 C1009 0.930 . S
H1051 C1010 0.930 . S
H1052 C1014 0.929 . S
H1053 C1016 0.930 . S
H1054 C1022 0.929 . S
H1055 C1023 0.930 . S
Li1056 N1073 1.990 . S
Li1056 O1116 1.956 . S
Li1056 O1117 1.970 1_455 S
Li1056 O1118 1.961 . S
Li1057 N1081 1.990 . S
Li1057 O1116 1.970 1_655 S
Li1057 O1117 1.956 . S
Li1057 O1119 1.984 . S
Li1058 N1103 1.990 . S
Li1058 O1116 1.961 . S
Li1058 O1118 1.956 . S
Li1058 O1119 1.942 1_455 S
Li1059 N1109 1.987 1_455 S
Li1059 O1117 1.935 1_455 S
Li1059 O1118 2.005 . S
Li1059 O1119 1.953 1_455 S
C1060 C1062 1.348 1_455 S
C1060 C1063 1.356 . S
C1060 O1116 1.325 . S
N1061 C1064 1.314 1_455 S
N1061 C1065 1.279 . S
C1062 C1060 1.348 1_655 S
C1062 C1064 1.353 . S
C1062 H1120 0.929 . S
C1063 C1060 1.356 . S
C1063 C1065 1.358 . S
C1063 H1121 0.930 . S
C1064 N1061 1.314 1_655 S
C1064 C1062 1.353 . S
C1064 H1122 0.930 . S
C1065 N1061 1.279 . S
C1065 C1063 1.358 . S
C1065 H1123 0.930 . S
C1066 C1069 1.348 . S
C1066 C1070 1.356 . S
C1066 O1117 1.325 . S
C1067 N1068 1.279 . S
C1067 C1070 1.358 . S
C1067 H1124 0.930 . S
N1068 C1067 1.279 . S
N1068 C1071 1.314 . S
C1069 C1066 1.348 . S
C1069 C1071 1.353 . S
C1069 H1125 0.929 . S
C1070 C1066 1.356 . S
C1070 C1067 1.358 . S
C1070 H1126 0.930 . S
C1071 N1068 1.314 . S
C1071 C1069 1.353 . S
C1071 H1127 0.930 . S
C1072 N1073 1.314 . S
C1072 C1077 1.353 . S
C1072 H1078 0.930 . S
N1073 Li1056 1.990 . S
N1073 C1072 1.314 . S
N1073 C1075 1.279 . S
C1074 C1075 1.358 . S
C1074 C1076 1.356 . S
C1074 H1128 0.930 . S
C1075 N1073 1.279 . S
C1075 C1074 1.358 . S
C1075 H1079 0.930 . S
C1076 C1074 1.356 . S
C1076 C1077 1.348 . S
C1077 C1072 1.353 . S
C1077 C1076 1.348 . S
C1077 H1129 0.929 . S
H1078 C1072 0.930 . S
H1079 C1075 0.930 . S
C1080 N1081 1.314 . S
C1080 C1082 1.353 . S
C1080 H1086 0.930 . S
N1081 Li1057 1.990 . S
N1081 C1080 1.314 . S
N1081 C1084 1.279 . S
C1082 C1080 1.353 . S
C1082 C1085 1.348 . S
C1082 H1130 0.929 . S
C1083 C1084 1.358 . S
C1083 C1085 1.356 . S
C1083 H1131 0.930 . S
C1084 N1081 1.279 . S
C1084 C1083 1.358 . S
C1084 H1087 0.930 . S
C1085 C1082 1.348 . S
C1085 C1083 1.356 . S
H1086 C1080 0.930 . S
H1087 C1084 0.930 . S
C1088 C1090 1.348 . S
C1088 C1091 1.356 . S
C1088 O1118 1.325 . S
N1089 C1092 1.314 . S
N1089 C1093 1.279 . S
C1090 C1088 1.348 . S
C1090 C1092 1.353 . S
C1090 H1132 0.929 . S
C1091 C1088 1.356 . S
C1091 C1093 1.358 . S
C1091 H1133 0.930 . S
C1092 N1089 1.314 . S
C1092 C1090 1.353 . S
C1092 H1134 0.930 . S
C1093 N1089 1.279 . S
C1093 C1091 1.358 . S
C1093 H1135 0.930 . S
C1094 C1095 1.348 1_655 S
C1094 C1096 1.356 . S
C1094 O1119 1.331 . S
C1095 C1094 1.348 1_455 S
C1095 C1097 1.353 . S
C1095 H1136 0.929 . S
C1096 C1094 1.356 . S
C1096 C1098 1.358 . S
C1096 H1137 0.930 . S
C1097 C1095 1.353 . S
C1097 N1099 1.314 1_455 S
C1097 H1138 0.930 . S
C1098 C1096 1.358 . S
C1098 N1099 1.279 . S
C1098 H1139 0.930 . S
N1099 C1097 1.314 1_655 S
N1099 C1098 1.279 . S
C1100 C1102 1.353 . S
C1100 N1103 1.314 . S
C1100 H1106 0.930 . S
C1101 N1103 1.279 . S
C1101 C1104 1.358 . S
C1101 H1107 0.930 . S
C1102 C1100 1.353 . S
C1102 C1105 1.348 . S
C1102 H1140 0.929 . S
N1103 Li1058 1.990 . S
N1103 C1100 1.314 . S
N1103 C1101 1.279 . S
C1104 C1101 1.358 . S
C1104 C1105 1.356 . S
C1104 H1141 0.930 . S
C1105 C1102 1.348 . S
C1105 C1104 1.356 . S
H1106 C1100 0.930 . S
H1107 C1101 0.930 . S
C1108 N1109 1.314 . S
C1108 C1110 1.353 . S
C1108 H1114 0.930 . S
N1109 Li1059 1.987 1_655 S
N1109 C1108 1.314 . S
N1109 C1112 1.279 . S
C1110 C1108 1.353 . S
C1110 C1113 1.348 . S
C1110 H1142 0.929 . S
C1111 C1112 1.358 . S
C1111 C1113 1.356 . S
C1111 H1143 0.930 . S
C1112 N1109 1.279 . S
C1112 C1111 1.358 . S
C1112 H1115 0.944 . S
C1113 C1110 1.348 . S
C1113 C1111 1.356 . S
H1114 C1108 0.930 . S
H1115 C1112 0.944 . S
O1116 Li1056 1.956 . S
O1116 Li1057 1.970 1_455 S
O1116 Li1058 1.961 . S
O1116 C1060 1.325 . S
O1117 Li1056 1.970 1_655 S
O1117 Li1057 1.956 . S
O1117 Li1059 1.935 1_655 S
O1117 C1066 1.325 . S
O1118 Li1056 1.961 . S
O1118 Li1058 1.956 . S
O1118 Li1059 2.005 . S
O1118 C1088 1.325 . S
O1119 Li1057 1.984 . S
O1119 Li1058 1.942 1_655 S
O1119 Li1059 1.953 1_655 S
O1119 C1094 1.331 . S
H1120 C1062 0.929 . S
H1121 C1063 0.930 . S
H1122 C1064 0.930 . S
H1123 C1065 0.930 . S
H1124 C1067 0.930 . S
H1125 C1069 0.929 . S
H1126 C1070 0.930 . S
H1127 C1071 0.930 . S
H1128 C1074 0.930 . S
H1129 C1077 0.929 . S
H1130 C1082 0.929 . S
H1131 C1083 0.930 . S
H1132 C1090 0.929 . S
H1133 C1091 0.930 . S
H1134 C1092 0.930 . S
H1135 C1093 0.930 . S
H1136 C1095 0.929 . S
H1137 C1096 0.930 . S
H1138 C1097 0.930 . S
H1139 C1098 0.930 . S
H1140 C1102 0.929 . S
H1141 C1104 0.930 . S
H1142 C1110 0.929 . S
H1143 C1111 0.930 . S
Li1144 N1161 1.990 . S
Li1144 O1204 1.956 . S
Li1144 O1205 1.970 . S
Li1144 O1206 1.961 . S
Li1145 N1169 1.990 . S
Li1145 O1204 1.970 . S
Li1145 O1205 1.956 . S
Li1145 O1207 1.961 . S
Li1146 N1191 1.990 . S
Li1146 O1204 1.961 . S
Li1146 O1206 1.956 . S
Li1146 O1207 1.970 . S
Li1147 N1197 1.990 . S
Li1147 O1205 1.961 . S
Li1147 O1206 1.970 . S
Li1147 O1207 1.956 . S
C1148 C1150 1.348 . S
C1148 C1151 1.356 . S
C1148 O1204 1.325 . S
N1149 C1152 1.314 . S
N1149 C1153 1.279 . S
C1150 C1148 1.348 . S
C1150 C1152 1.353 . S
C1150 H1208 0.929 . S
C1151 C1148 1.356 . S
C1151 C1153 1.358 . S
C1151 H1209 0.930 . S
C1152 N1149 1.314 . S
C1152 C1150 1.353 . S
C1152 H1210 0.930 . S
C1153 N1149 1.279 . S
C1153 C1151 1.358 . S
C1153 H1211 0.930 . S
C1154 C1157 1.348 . S
C1154 C1158 1.356 . S
C1154 O1205 1.325 . S
C1155 N1156 1.279 . S
C1155 C1158 1.358 . S
C1155 H1212 0.930 . S
N1156 C1155 1.279 . S
N1156 C1159 1.314 . S
C1157 C1154 1.348 . S
C1157 C1159 1.353 . S
C1157 H1213 0.929 . S
C1158 C1154 1.356 . S
C1158 C1155 1.358 . S
C1158 H1214 0.930 . S
C1159 N1156 1.314 . S
C1159 C1157 1.353 . S
C1159 H1215 0.930 . S
C1160 N1161 1.314 . S
C1160 C1165 1.353 . S
C1160 H1166 0.930 . S
N1161 Li1144 1.990 . S
N1161 C1160 1.314 . S
N1161 C1163 1.279 . S
C1162 C1163 1.358 . S
C1162 C1164 1.356 . S
C1162 H1216 0.930 . S
C1163 N1161 1.279 . S
C1163 C1162 1.358 . S
C1163 H1167 0.930 . S
C1164 C1162 1.356 . S
C1164 C1165 1.348 . S
C1165 C1160 1.353 . S
C1165 C1164 1.348 . S
C1165 H1217 0.929 . S
H1166 C1160 0.930 . S
H1167 C1163 0.930 . S
C1168 N1169 1.314 . S
C1168 C1170 1.353 . S
C1168 H1174 0.930 . S
N1169 Li1145 1.990 . S
N1169 C1168 1.314 . S
N1169 C1172 1.279 . S
C1170 C1168 1.353 . S
C1170 C1173 1.348 . S
C1170 H1218 0.929 . S
C1171 C1172 1.358 . S
C1171 C1173 1.356 . S
C1171 H1219 0.930 . S
C1172 N1169 1.279 . S
C1172 C1171 1.358 . S
C1172 H1175 0.930 . S
C1173 C1170 1.348 . S
C1173 C1171 1.356 . S
H1174 C1168 0.930 . S
H1175 C1172 0.930 . S
C1176 C1178 1.348 . S
C1176 C1179 1.356 . S
C1176 O1206 1.325 . S
N1177 C1180 1.314 . S
N1177 C1181 1.279 . S
C1178 C1176 1.348 . S
C1178 C1180 1.353 . S
C1178 H1220 0.929 . S
C1179 C1176 1.356 . S
C1179 C1181 1.358 . S
C1179 H1221 0.930 . S
C1180 N1177 1.314 . S
C1180 C1178 1.353 . S
C1180 H1222 0.930 . S
C1181 N1177 1.279 . S
C1181 C1179 1.358 . S
C1181 H1223 0.930 . S
C1182 C1183 1.348 . S
C1182 C1184 1.356 . S
C1182 O1207 1.325 . S
C1183 C1182 1.348 . S
C1183 C1185 1.353 . S
C1183 H1224 0.929 . S
C1184 C1182 1.356 . S
C1184 C1186 1.358 . S
C1184 H1225 0.930 . S
C1185 C1183 1.353 . S
C1185 N1187 1.314 . S
C1185 H1226 0.930 . S
C1186 C1184 1.358 . S
C1186 N1187 1.279 . S
C1186 H1227 0.930 . S
N1187 C1185 1.314 . S
N1187 C1186 1.279 . S
C1188 C1190 1.353 . S
C1188 N1191 1.314 . S
C1188 H1194 0.930 . S
C1189 N1191 1.279 . S
C1189 C1192 1.358 . S
C1189 H1195 0.930 . S
C1190 C1188 1.353 . S
C1190 C1193 1.348 . S
C1190 H1228 0.929 . S
N1191 Li1146 1.990 . S
N1191 C1188 1.314 . S
N1191 C1189 1.279 . S
C1192 C1189 1.358 . S
C1192 C1193 1.356 . S
C1192 H1229 0.930 . S
C1193 C1190 1.348 . S
C1193 C1192 1.356 . S
H1194 C1188 0.930 . S
H1195 C1189 0.930 . S
C1196 N1197 1.314 . S
C1196 C1198 1.353 . S
C1196 H1202 0.930 . S
N1197 Li1147 1.990 . S
N1197 C1196 1.314 . S
N1197 C1200 1.279 . S
C1198 C1196 1.353 . S
C1198 C1201 1.348 . S
C1198 H1230 0.929 . S
C1199 C1200 1.358 . S
C1199 C1201 1.356 . S
C1199 H1231 0.930 . S
C1200 N1197 1.279 . S
C1200 C1199 1.358 . S
C1200 H1203 0.930 . S
C1201 C1198 1.348 . S
C1201 C1199 1.356 . S
H1202 C1196 0.930 . S
H1203 C1200 0.930 . S
O1204 Li1144 1.956 . S
O1204 Li1145 1.970 . S
O1204 Li1146 1.961 . S
O1204 C1148 1.325 . S
O1205 Li1144 1.970 . S
O1205 Li1145 1.956 . S
O1205 Li1147 1.961 . S
O1205 C1154 1.325 . S
O1206 Li1144 1.961 . S
O1206 Li1146 1.956 . S
O1206 Li1147 1.970 . S
O1206 C1176 1.325 . S
O1207 Li1145 1.961 . S
O1207 Li1146 1.970 . S
O1207 Li1147 1.956 . S
O1207 C1182 1.325 . S
H1208 C1150 0.929 . S
H1209 C1151 0.930 . S
H1210 C1152 0.930 . S
H1211 C1153 0.930 . S
H1212 C1155 0.930 . S
H1213 C1157 0.929 . S
H1214 C1158 0.930 . S
H1215 C1159 0.930 . S
H1216 C1162 0.930 . S
H1217 C1165 0.929 . S
H1218 C1170 0.929 . S
H1219 C1171 0.930 . S
H1220 C1178 0.929 . S
H1221 C1179 0.930 . S
H1222 C1180 0.930 . S
H1223 C1181 0.930 . S
H1224 C1183 0.929 . S
H1225 C1184 0.930 . S
H1226 C1185 0.930 . S
H1227 C1186 0.930 . S
H1228 C1190 0.929 . S
H1229 C1192 0.930 . S
H1230 C1198 0.929 . S
H1231 C1199 0.930 . S
H1232 C1240 0.929 . S
H1233 C1242 0.930 . S
H1234 C1244 0.930 . S
H1235 C1247 0.929 . S
H1236 C1250 0.930 . S
H1237 C1252 0.960 . S
H1238 C1252 0.960 . S
H1239 C1252 0.960 . S
C1240 H1232 0.929 . S
C1240 C1241 1.377 . S
C1240 C1242 1.384 . S
C1241 C1240 1.377 . S
C1241 C1247 1.390 . S
C1242 H1233 0.930 . S
C1242 C1240 1.384 . S
C1242 C1243 1.372 . S
C1243 C1242 1.372 . S
C1243 C1244 1.400 . S
C1243 C1248 1.490 . S
C1244 H1234 0.930 . S
C1244 C1243 1.400 . S
C1244 C1247 1.386 . S
H1245 C1261 0.930 . S
H1246 C1262 0.931 . S
C1247 H1235 0.929 . S
C1247 C1241 1.390 . S
C1247 C1244 1.386 . S
C1248 C1243 1.490 . S
C1248 C1250 1.395 . S
C1248 C1251 1.403 . S
H1249 C1255 0.930 . S
C1250 H1236 0.930 . S
C1250 C1248 1.395 . S
C1250 C1253 1.403 . S
C1251 C1248 1.403 . S
C1251 C1252 1.524 . S
C1251 C1255 1.400 . S
C1252 H1237 0.960 . S
C1252 H1238 0.960 . S
C1252 H1239 0.960 . S
C1252 C1251 1.524 . S
C1253 C1250 1.403 . S
C1253 C1254 1.392 . S
C1253 C1257 1.495 . S
C1254 C1253 1.392 . S
C1254 C1255 1.385 . S
C1254 C1256 1.478 . S
C1255 H1249 0.930 . S
C1255 C1251 1.400 . S
C1255 C1254 1.385 . S
C1256 C1254 1.478 . S
C1256 C1258 1.381 . S
C1256 C1262 1.383 . S
C1257 C1253 1.495 . S
C1257 H1263 0.959 . S
C1257 H1264 0.961 . S
C1257 H1265 0.960 . S
C1258 C1256 1.381 . S
C1258 C1259 1.394 . S
C1258 H1266 0.930 . S
C1259 C1258 1.394 . S
C1259 C1260 1.383 . S
C1259 H1267 0.929 . S
C1260 C1259 1.383 . S
C1260 C1261 1.377 . S
C1261 H1245 0.930 . S
C1261 C1260 1.377 . S
C1261 C1262 1.379 . S
C1262 H1246 0.931 . S
C1262 C1256 1.383 . S
C1262 C1261 1.379 . S
H1263 C1257 0.959 . S
H1264 C1257 0.961 . S
H1265 C1257 0.960 . S
H1266 C1258 0.930 . S
H1267 C1259 0.929 . S
H1268 C1276 0.929 . S
H1269 C1278 0.930 . S
H1270 C1280 0.930 . S
H1271 C1283 0.929 . S
H1272 C1286 0.930 . S
H1273 C1288 0.960 . S
H1274 C1288 0.960 . S
H1275 C1288 0.960 . S
C1276 H1268 0.929 . S
C1276 C1277 1.377 . S
C1276 C1278 1.384 . S
C1277 C1276 1.377 . S
C1277 C1283 1.390 . S
C1278 H1269 0.930 . S
C1278 C1276 1.384 . S
C1278 C1279 1.372 . S
C1279 C1278 1.372 . S
C1279 C1280 1.400 . S
C1279 C1284 1.490 . S
C1280 H1270 0.930 . S
C1280 C1279 1.400 . S
C1280 C1283 1.386 . S
H1281 C1297 0.930 . S
H1282 C1298 0.931 . S
C1283 H1271 0.929 . S
C1283 C1277 1.390 . S
C1283 C1280 1.386 . S
C1284 C1279 1.490 . S
C1284 C1286 1.395 . S
C1284 C1287 1.403 . S
H1285 C1291 0.930 . S
C1286 H1272 0.930 . S
C1286 C1284 1.395 . S
C1286 C1289 1.403 . S
C1287 C1284 1.403 . S
C1287 C1288 1.524 . S
C1287 C1291 1.400 . S
C1288 H1273 0.960 . S
C1288 H1274 0.960 . S
C1288 H1275 0.960 . S
C1288 C1287 1.524 . S
C1289 C1286 1.403 . S
C1289 C1290 1.392 . S
C1289 C1293 1.495 . S
C1290 C1289 1.392 . S
C1290 C1291 1.385 . S
C1290 C1292 1.478 . S
C1291 H1285 0.930 . S
C1291 C1287 1.400 . S
C1291 C1290 1.385 . S
C1292 C1290 1.478 . S
C1292 C1294 1.381 . S
C1292 C1298 1.383 . S
C1293 C1289 1.495 . S
C1293 H1299 0.959 . S
C1293 H1300 0.961 . S
C1293 H1301 0.960 . S
C1294 C1292 1.381 . S
C1294 C1295 1.394 . S
C1294 H1302 0.930 . S
C1295 C1294 1.394 . S
C1295 C1296 1.383 . S
C1295 H1303 0.929 . S
C1296 C1295 1.383 . S
C1296 C1297 1.377 . S
C1297 H1281 0.930 . S
C1297 C1296 1.377 . S
C1297 C1298 1.379 . S
C1298 H1282 0.931 . S
C1298 C1292 1.383 . S
C1298 C1297 1.379 . S
H1299 C1293 0.959 . S
H1300 C1293 0.961 . S
H1301 C1293 0.960 . S
H1302 C1294 0.930 . S
H1303 C1295 0.929 . S
H1304 C1312 0.929 . S
H1305 C1314 0.930 . S
H1306 C1316 0.930 . S
H1307 C1319 0.929 . S
H1308 C1322 0.930 . S
H1309 C1324 0.960 . S
H1310 C1324 0.960 . S
H1311 C1324 0.960 . S
C1312 H1304 0.929 . S
C1312 C1313 1.377 . S
C1312 C1314 1.384 . S
C1313 C1312 1.377 . S
C1313 C1319 1.390 . S
C1314 H1305 0.930 . S
C1314 C1312 1.384 . S
C1314 C1315 1.372 . S
C1315 C1314 1.372 . S
C1315 C1316 1.400 . S
C1315 C1320 1.490 . S
C1316 H1306 0.930 . S
C1316 C1315 1.400 . S
C1316 C1319 1.386 . S
H1317 C1333 0.930 . S
H1318 C1334 0.931 . S
C1319 H1307 0.929 . S
C1319 C1313 1.390 . S
C1319 C1316 1.386 . S
C1320 C1315 1.490 . S
C1320 C1322 1.395 . S
C1320 C1323 1.403 . S
H1321 C1327 0.930 . S
C1322 H1308 0.930 . S
C1322 C1320 1.395 . S
C1322 C1325 1.403 . S
C1323 C1320 1.403 . S
C1323 C1324 1.524 . S
C1323 C1327 1.400 . S
C1324 H1309 0.960 . S
C1324 H1310 0.960 . S
C1324 H1311 0.960 . S
C1324 C1323 1.524 . S
C1325 C1322 1.403 . S
C1325 C1326 1.392 . S
C1325 C1329 1.495 . S
C1326 C1325 1.392 . S
C1326 C1327 1.385 . S
C1326 C1328 1.478 . S
C1327 H1321 0.930 . S
C1327 C1323 1.400 . S
C1327 C1326 1.385 . S
C1328 C1326 1.478 . S
C1328 C1330 1.381 . S
C1328 C1334 1.383 . S
C1329 C1325 1.495 . S
C1329 H1335 0.959 . S
C1329 H1336 0.961 . S
C1329 H1337 0.960 . S
C1330 C1328 1.381 . S
C1330 C1331 1.394 . S
C1330 H1338 0.930 . S
C1331 C1330 1.394 . S
C1331 C1332 1.383 . S
C1331 H1339 0.929 . S
C1332 C1331 1.383 . S
C1332 C1333 1.377 . S
C1333 H1317 0.930 . S
C1333 C1332 1.377 . S
C1333 C1334 1.379 . S
C1334 H1318 0.931 . S
C1334 C1328 1.383 . S
C1334 C1333 1.379 . S
H1335 C1329 0.959 . S
H1336 C1329 0.961 . S
H1337 C1329 0.960 . S
H1338 C1330 0.930 . S
H1339 C1331 0.929 . S
H1340 C1348 0.929 . S
H1341 C1350 0.930 . S
H1342 C1352 0.930 1_655 S
H1343 C1355 0.929 . S
H1344 C1358 0.930 . S
H1345 C1360 0.960 . S
H1346 C1360 0.971 . S
H1347 C1360 0.960 . S
C1348 H1340 0.929 . S
C1348 C1349 1.377 . S
C1348 C1350 1.384 . S
C1349 C1348 1.377 . S
C1349 C1355 1.390 . S
C1350 H1341 0.930 . S
C1350 C1348 1.384 . S
C1350 C1351 1.372 . S
C1351 C1350 1.372 . S
C1351 C1352 1.400 . S
C1351 C1356 1.490 . S
C1352 H1342 0.930 1_455 S
C1352 C1351 1.400 . S
C1352 C1355 1.386 . S
H1353 C1369 0.923 1_565 S
H1354 C1370 0.931 . S
C1355 H1343 0.929 . S
C1355 C1349 1.390 . S
C1355 C1352 1.386 . S
C1356 C1351 1.490 . S
C1356 C1358 1.395 . S
C1356 C1359 1.403 1_465 S
H1357 C1363 0.930 . S
C1358 H1344 0.930 . S
C1358 C1356 1.395 . S
C1358 C1361 1.403 . S
C1359 C1356 1.403 1_645 S
C1359 C1360 1.524 . S
C1359 C1363 1.400 . S
C1360 H1345 0.960 . S
C1360 H1346 0.971 . S
C1360 H1347 0.960 . S
C1360 C1359 1.524 . S
C1361 C1358 1.403 . S
C1361 C1362 1.392 1_455 S
C1361 C1365 1.495 . S
C1362 C1361 1.392 1_655 S
C1362 C1363 1.385 1_565 S
C1362 C1364 1.478 1_565 S
C1363 H1357 0.930 . S
C1363 C1359 1.400 . S
C1363 C1362 1.385 1_545 S
C1364 C1362 1.478 1_545 S
C1364 C1366 1.381 . S
C1364 C1370 1.383 1_545 S
C1365 C1361 1.495 . S
C1365 H1371 0.959 . S
C1365 H1372 0.961 . S
C1365 H1373 0.960 . S
C1366 C1364 1.381 . S
C1366 C1367 1.394 . S
C1366 H1374 0.930 1_655 S
C1367 C1366 1.394 . S
C1367 C1368 1.383 . S
C1367 H1375 0.929 . S
C1368 C1367 1.383 . S
C1368 C1369 1.397 . S
C1369 H1353 0.923 1_545 S
C1369 C1368 1.397 . S
C1369 C1370 1.367 1_545 S
C1370 H1354 0.931 . S
C1370 C1364 1.383 1_565 S
C1370 C1369 1.367 1_565 S
H1371 C1365 0.959 . S
H1372 C1365 0.961 . S
H1373 C1365 0.960 . S
H1374 C1366 0.930 1_455 S
H1375 C1367 0.929 . S
H1376 C1384 0.929 . S
H1377 C1386 0.930 . S
H1378 C1388 0.930 . S
H1379 C1391 0.929 . S
H1380 C1394 0.930 . S
H1381 C1396 0.960 . S
H1382 C1396 0.960 . S
H1383 C1396 0.960 . S
C1384 H1376 0.929 . S
C1384 C1385 1.377 . S
C1384 C1386 1.384 . S
C1385 C1384 1.377 . S
C1385 C1391 1.390 . S
C1386 H1377 0.930 . S
C1386 C1384 1.384 . S
C1386 C1387 1.372 . S
C1387 C1386 1.372 . S
C1387 C1388 1.400 . S
C1387 C1392 1.490 . S
C1388 H1378 0.930 . S
C1388 C1387 1.400 . S
C1388 C1391 1.386 . S
H1389 C1405 0.930 . S
H1390 C1406 0.931 . S
C1391 H1379 0.929 . S
C1391 C1385 1.390 . S
C1391 C1388 1.386 . S
C1392 C1387 1.490 . S
C1392 C1394 1.395 . S
C1392 C1395 1.403 . S
H1393 C1399 0.930 . S
C1394 H1380 0.930 . S
C1394 C1392 1.395 . S
C1394 C1397 1.403 . S
C1395 C1392 1.403 . S
C1395 C1396 1.524 . S
C1395 C1399 1.400 . S
C1396 H1381 0.960 . S
C1396 H1382 0.960 . S
C1396 H1383 0.960 . S
C1396 C1395 1.524 . S
C1397 C1394 1.403 . S
C1397 C1398 1.392 . S
C1397 C1401 1.495 . S
C1398 C1397 1.392 . S
C1398 C1399 1.385 . S
C1398 C1400 1.478 . S
C1399 H1393 0.930 . S
C1399 C1395 1.400 . S
C1399 C1398 1.385 . S
C1400 C1398 1.478 . S
C1400 C1402 1.381 . S
C1400 C1406 1.383 . S
C1401 C1397 1.495 . S
C1401 H1407 0.959 . S
C1401 H1408 0.961 . S
C1401 H1409 0.960 . S
C1402 C1400 1.381 . S
C1402 C1403 1.394 . S
C1402 H1410 0.930 . S
C1403 C1402 1.394 . S
C1403 C1404 1.383 . S
C1403 H1411 0.929 . S
C1404 C1403 1.383 . S
C1404 C1405 1.377 . S
C1405 H1389 0.930 . S
C1405 C1404 1.377 . S
C1405 C1406 1.379 . S
C1406 H1390 0.931 . S
C1406 C1400 1.383 . S
C1406 C1405 1.379 . S
H1407 C1401 0.959 . S
H1408 C1401 0.961 . S
H1409 C1401 0.960 . S
H1410 C1402 0.930 . S
H1411 C1403 0.929 . S
H1412 C1420 0.929 . S
H1413 C1422 0.930 . S
H1414 C1424 0.930 . S
H1415 C1427 0.929 . S
H1416 C1430 0.930 . S
H1417 C1432 0.960 . S
H1418 C1432 0.960 . S
H1419 C1432 0.960 . S
C1420 H1412 0.929 . S
C1420 C1421 1.377 . S
C1420 C1422 1.384 . S
C1421 C1420 1.377 . S
C1421 C1427 1.390 . S
C1422 H1413 0.930 . S
C1422 C1420 1.384 . S
C1422 C1423 1.372 . S
C1423 C1422 1.372 . S
C1423 C1424 1.400 . S
C1423 C1428 1.490 . S
C1424 H1414 0.930 . S
C1424 C1423 1.400 . S
C1424 C1427 1.386 . S
H1425 C1441 0.930 . S
H1426 C1442 0.931 . S
C1427 H1415 0.929 . S
C1427 C1421 1.390 . S
C1427 C1424 1.386 . S
C1428 C1423 1.490 . S
C1428 C1430 1.395 . S
C1428 C1431 1.403 . S
H1429 C1435 0.930 . S
C1430 H1416 0.930 . S
C1430 C1428 1.395 . S
C1430 C1433 1.403 . S
C1431 C1428 1.403 . S
C1431 C1432 1.524 . S
C1431 C1435 1.400 . S
C1432 H1417 0.960 . S
C1432 H1418 0.960 . S
C1432 H1419 0.960 . S
C1432 C1431 1.524 . S
C1433 C1430 1.403 . S
C1433 C1434 1.392 . S
C1433 C1437 1.495 . S
C1434 C1433 1.392 . S
C1434 C1435 1.385 . S
C1434 C1436 1.478 . S
C1435 H1429 0.930 . S
C1435 C1431 1.400 . S
C1435 C1434 1.385 . S
C1436 C1434 1.478 . S
C1436 C1438 1.381 . S
C1436 C1442 1.383 . S
C1437 C1433 1.495 . S
C1437 H1443 0.959 . S
C1437 H1444 0.961 . S
C1437 H1445 0.960 . S
C1438 C1436 1.381 . S
C1438 C1439 1.394 . S
C1438 H1446 0.930 . S
C1439 C1438 1.394 . S
C1439 C1440 1.383 . S
C1439 H1447 0.929 . S
C1440 C1439 1.383 . S
C1440 C1441 1.377 . S
C1441 H1425 0.930 . S
C1441 C1440 1.377 . S
C1441 C1442 1.379 . S
C1442 H1426 0.931 . S
C1442 C1436 1.383 . S
C1442 C1441 1.379 . S
H1443 C1437 0.959 . S
H1444 C1437 0.961 . S
H1445 C1437 0.960 . S
H1446 C1438 0.930 . S
H1447 C1439 0.929 . S
H1448 C1456 0.929 . S
H1449 C1458 0.930 . S
H1450 C1460 0.930 . S
H1451 C1463 0.929 . S
H1452 C1466 0.930 . S
H1453 C1468 0.960 . S
H1454 C1468 0.960 . S
H1455 C1468 0.960 . S
C1456 H1448 0.929 . S
C1456 C1457 1.377 . S
C1456 C1458 1.384 . S
C1457 C1456 1.377 . S
C1457 C1463 1.390 . S
C1458 H1449 0.930 . S
C1458 C1456 1.384 . S
C1458 C1459 1.372 . S
C1459 C1458 1.372 . S
C1459 C1460 1.400 . S
C1459 C1464 1.490 . S
C1460 H1450 0.930 . S
C1460 C1459 1.400 . S
C1460 C1463 1.386 . S
H1461 C1477 0.930 . S
H1462 C1478 0.931 . S
C1463 H1451 0.929 . S
C1463 C1457 1.390 . S
C1463 C1460 1.386 . S
C1464 C1459 1.490 . S
C1464 C1466 1.395 . S
C1464 C1467 1.403 . S
H1465 C1471 0.930 . S
C1466 H1452 0.930 . S
C1466 C1464 1.395 . S
C1466 C1469 1.403 . S
C1467 C1464 1.403 . S
C1467 C1468 1.524 . S
C1467 C1471 1.400 . S
C1468 H1453 0.960 . S
C1468 H1454 0.960 . S
C1468 H1455 0.960 . S
C1468 C1467 1.524 . S
C1469 C1466 1.403 . S
C1469 C1470 1.392 . S
C1469 C1473 1.495 . S
C1470 C1469 1.392 . S
C1470 C1471 1.385 . S
C1470 C1472 1.478 . S
C1471 H1465 0.930 . S
C1471 C1467 1.400 . S
C1471 C1470 1.385 . S
C1472 C1470 1.478 . S
C1472 C1474 1.381 . S
C1472 C1478 1.383 . S
C1473 C1469 1.495 . S
C1473 H1479 0.959 . S
C1473 H1480 0.961 . S
C1473 H1481 0.960 . S
C1474 C1472 1.381 . S
C1474 C1475 1.394 . S
C1474 H1482 0.930 . S
C1475 C1474 1.394 . S
C1475 C1476 1.383 . S
C1475 H1483 0.929 . S
C1476 C1475 1.383 . S
C1476 C1477 1.377 . S
C1477 H1461 0.930 . S
C1477 C1476 1.377 . S
C1477 C1478 1.379 . S
C1478 H1462 0.931 . S
C1478 C1472 1.383 . S
C1478 C1477 1.379 . S
H1479 C1473 0.959 . S
H1480 C1473 0.961 . S
H1481 C1473 0.960 . S
H1482 C1474 0.930 . S
H1483 C1475 0.929 . S
H1484 C1492 0.929 . S
H1485 C1494 0.930 . S
H1486 C1496 0.930 . S
H1487 C1499 0.929 . S
H1488 C1502 0.951 . S
H1489 C1504 0.960 . S
H1490 C1504 0.960 . S
H1491 C1504 0.960 . S
C1492 H1484 0.929 . S
C1492 C1493 1.377 1_545 S
C1492 C1494 1.384 . S
C1493 C1492 1.377 1_565 S
C1493 C1499 1.390 . S
C1494 H1485 0.930 . S
C1494 C1492 1.384 . S
C1494 C1495 1.372 1_545 S
C1495 C1494 1.372 1_565 S
C1495 C1496 1.400 . S
C1495 C1500 1.490 . S
C1496 H1486 0.930 . S
C1496 C1495 1.400 . S
C1496 C1499 1.386 . S
H1497 C1513 0.930 . S
H1498 C1514 0.931 . S
C1499 H1487 0.929 . S
C1499 C1493 1.390 . S
C1499 C1496 1.386 . S
C1500 C1495 1.490 . S
C1500 C1502 1.395 . S
C1500 C1503 1.403 . S
H1501 C1507 0.930 . S
C1502 H1488 0.951 . S
C1502 C1500 1.395 . S
C1502 C1505 1.403 . S
C1503 C1500 1.403 . S
C1503 C1504 1.524 . S
C1503 C1507 1.400 . S
C1504 H1489 0.960 . S
C1504 H1490 0.960 . S
C1504 H1491 0.960 . S
C1504 C1503 1.524 . S
C1505 C1502 1.403 . S
C1505 C1506 1.392 . S
C1505 C1509 1.495 1_565 S
C1506 C1505 1.392 . S
C1506 C1507 1.385 . S
C1506 C1508 1.478 . S
C1507 H1501 0.930 . S
C1507 C1503 1.400 . S
C1507 C1506 1.385 . S
C1508 C1506 1.478 . S
C1508 C1510 1.381 1_565 S
C1508 C1514 1.383 . S
C1509 C1505 1.495 1_545 S
C1509 H1515 0.959 . S
C1509 H1516 0.961 1_545 S
C1509 H1517 0.960 . S
C1510 C1508 1.381 1_545 S
C1510 C1511 1.394 . S
C1510 H1518 0.930 . S
C1511 C1510 1.394 . S
C1511 C1512 1.383 1_545 S
C1511 H1519 0.929 . S
C1512 C1511 1.383 1_565 S
C1512 C1513 1.377 . S
C1513 H1497 0.930 . S
C1513 C1512 1.377 . S
C1513 C1514 1.379 . S
C1514 H1498 0.931 . S
C1514 C1508 1.383 . S
C1514 C1513 1.379 . S
H1515 C1509 0.959 . S
H1516 C1509 0.961 1_565 S
H1517 C1509 0.960 . S
H1518 C1510 0.930 . S
H1519 C1511 0.929 . S
H1520 C1528 0.929 . S
H1521 C1530 0.930 . S
H1522 C1532 0.930 . S
H1523 C1535 0.929 . S
H1524 C1538 0.930 . S
H1525 C1540 0.960 . S
H1526 C1540 0.960 . S
H1527 C1540 0.960 . S
C1528 H1520 0.929 . S
C1528 C1529 1.377 . S
C1528 C1530 1.384 . S
C1529 C1528 1.377 . S
C1529 C1535 1.390 . S
C1530 H1521 0.930 . S
C1530 C1528 1.384 . S
C1530 C1531 1.372 . S
C1531 C1530 1.372 . S
C1531 C1532 1.400 . S
C1531 C1536 1.490 . S
C1532 H1522 0.930 . S
C1532 C1531 1.400 . S
C1532 C1535 1.386 . S
H1533 C1549 0.930 . S
H1534 C1550 0.931 . S
C1535 H1523 0.929 . S
C1535 C1529 1.390 . S
C1535 C1532 1.386 . S
C1536 C1531 1.490 . S
C1536 C1538 1.395 . S
C1536 C1539 1.403 . S
H1537 C1543 0.930 . S
C1538 H1524 0.930 . S
C1538 C1536 1.395 . S
C1538 C1541 1.403 . S
C1539 C1536 1.403 . S
C1539 C1540 1.524 . S
C1539 C1543 1.400 . S
C1540 H1525 0.960 . S
C1540 H1526 0.960 . S
C1540 H1527 0.960 . S
C1540 C1539 1.524 . S
C1541 C1538 1.403 . S
C1541 C1542 1.392 . S
C1541 C1545 1.495 . S
C1542 C1541 1.392 . S
C1542 C1543 1.385 . S
C1542 C1544 1.478 . S
C1543 H1537 0.930 . S
C1543 C1539 1.400 . S
C1543 C1542 1.385 . S
C1544 C1542 1.478 . S
C1544 C1546 1.381 . S
C1544 C1550 1.383 . S
C1545 C1541 1.495 . S
C1545 H1551 0.959 . S
C1545 H1552 0.961 . S
C1545 H1553 0.960 . S
C1546 C1544 1.381 . S
C1546 C1547 1.394 . S
C1546 H1554 0.930 . S
C1547 C1546 1.394 . S
C1547 C1548 1.383 . S
C1547 H1555 0.929 . S
C1548 C1547 1.383 . S
C1548 C1549 1.377 . S
C1549 H1533 0.930 . S
C1549 C1548 1.377 . S
C1549 C1550 1.379 . S
C1550 H1534 0.931 . S
C1550 C1544 1.383 . S
C1550 C1549 1.379 . S
H1551 C1545 0.959 . S
H1552 C1545 0.961 . S
H1553 C1545 0.960 . S
H1554 C1546 0.930 . S
H1555 C1547 0.929 . S
H1556 C1564 0.929 . S
H1557 C1566 0.930 . S
H1558 C1568 0.930 . S
H1559 C1571 0.929 . S
H1560 C1574 0.930 . S
H1561 C1576 0.960 . S
H1562 C1576 0.960 . S
H1563 C1576 0.960 . S
C1564 H1556 0.929 . S
C1564 C1565 1.377 . S
C1564 C1566 1.384 . S
C1565 C1564 1.377 . S
C1565 C1571 1.390 . S
C1566 H1557 0.930 . S
C1566 C1564 1.384 . S
C1566 C1567 1.372 . S
C1567 C1566 1.372 . S
C1567 C1568 1.400 . S
C1567 C1572 1.490 . S
C1568 H1558 0.930 . S
C1568 C1567 1.400 . S
C1568 C1571 1.386 . S
H1569 C1585 0.930 . S
H1570 C1586 0.931 . S
C1571 H1559 0.929 . S
C1571 C1565 1.390 . S
C1571 C1568 1.386 . S
C1572 C1567 1.490 . S
C1572 C1574 1.395 . S
C1572 C1575 1.403 . S
H1573 C1579 0.930 . S
C1574 H1560 0.930 . S
C1574 C1572 1.395 . S
C1574 C1577 1.403 . S
C1575 C1572 1.403 . S
C1575 C1576 1.524 . S
C1575 C1579 1.400 . S
C1576 H1561 0.960 . S
C1576 H1562 0.960 . S
C1576 H1563 0.960 . S
C1576 C1575 1.524 . S
C1577 C1574 1.403 . S
C1577 C1578 1.392 . S
C1577 C1581 1.495 . S
C1578 C1577 1.392 . S
C1578 C1579 1.385 . S
C1578 C1580 1.478 . S
C1579 H1573 0.930 . S
C1579 C1575 1.400 . S
C1579 C1578 1.385 . S
C1580 C1578 1.478 . S
C1580 C1582 1.381 . S
C1580 C1586 1.383 . S
C1581 C1577 1.495 . S
C1581 H1587 0.959 . S
C1581 H1588 0.961 . S
C1581 H1589 0.960 . S
C1582 C1580 1.381 . S
C1582 C1583 1.394 . S
C1582 H1590 0.930 . S
C1583 C1582 1.394 . S
C1583 C1584 1.383 . S
C1583 H1591 0.929 . S
C1584 C1583 1.383 . S
C1584 C1585 1.377 . S
C1585 H1569 0.930 . S
C1585 C1584 1.377 . S
C1585 C1586 1.379 . S
C1586 H1570 0.931 . S
C1586 C1580 1.383 . S
C1586 C1585 1.379 . S
H1587 C1581 0.959 . S
H1588 C1581 0.961 . S
H1589 C1581 0.960 . S
H1590 C1582 0.930 . S
H1591 C1583 0.929 . S
H1592 C1600 0.929 . S
H1593 C1602 0.930 . S
H1594 C1604 0.930 . S
H1595 C1607 0.929 . S
H1596 C1610 0.930 . S
H1597 C1612 0.960 . S
H1598 C1612 0.960 . S
H1599 C1612 0.960 . S
C1600 H1592 0.929 . S
C1600 C1601 1.377 . S
C1600 C1602 1.384 . S
C1601 C1600 1.377 . S
C1601 C1607 1.390 . S
C1602 H1593 0.930 . S
C1602 C1600 1.384 . S
C1602 C1603 1.372 . S
C1603 C1602 1.372 . S
C1603 C1604 1.400 . S
C1603 C1608 1.490 . S
C1604 H1594 0.930 . S
C1604 C1603 1.400 . S
C1604 C1607 1.386 . S
H1605 C1621 0.930 . S
H1606 C1622 0.931 . S
C1607 H1595 0.929 . S
C1607 C1601 1.390 . S
C1607 C1604 1.386 . S
C1608 C1603 1.490 . S
C1608 C1610 1.395 . S
C1608 C1611 1.403 . S
H1609 C1615 0.930 . S
C1610 H1596 0.930 . S
C1610 C1608 1.395 . S
C1610 C1613 1.403 . S
C1611 C1608 1.403 . S
C1611 C1612 1.524 . S
C1611 C1615 1.400 . S
C1612 H1597 0.960 . S
C1612 H1598 0.960 . S
C1612 H1599 0.960 . S
C1612 C1611 1.524 . S
C1613 C1610 1.403 . S
C1613 C1614 1.392 . S
C1613 C1617 1.495 . S
C1614 C1613 1.392 . S
C1614 C1615 1.385 . S
C1614 C1616 1.478 . S
C1615 H1609 0.930 . S
C1615 C1611 1.400 . S
C1615 C1614 1.385 . S
C1616 C1614 1.478 . S
C1616 C1618 1.381 . S
C1616 C1622 1.383 . S
C1617 C1613 1.495 . S
C1617 H1623 0.959 . S
C1617 H1624 0.961 . S
C1617 H1625 0.960 . S
C1618 C1616 1.381 . S
C1618 C1619 1.394 . S
C1618 H1626 0.930 . S
C1619 C1618 1.394 . S
C1619 C1620 1.383 . S
C1619 H1627 0.929 . S
C1620 C1619 1.383 . S
C1620 C1621 1.377 . S
C1621 H1605 0.930 . S
C1621 C1620 1.377 . S
C1621 C1622 1.379 . S
C1622 H1606 0.931 . S
C1622 C1616 1.383 . S
C1622 C1621 1.379 . S
H1623 C1617 0.959 . S
H1624 C1617 0.961 . S
H1625 C1617 0.960 . S
H1626 C1618 0.930 . S
H1627 C1619 0.929 . S
H1628 C1636 0.929 . S
H1629 C1638 0.930 . S
H1630 C1640 0.930 . S
H1631 C1643 0.929 . S
H1632 C1646 0.930 . S
H1633 C1648 0.960 . S
H1634 C1648 0.960 . S
H1635 C1648 0.960 . S
C1636 H1628 0.929 . S
C1636 C1637 1.377 . S
C1636 C1638 1.384 . S
C1637 C1636 1.377 . S
C1637 C1643 1.390 . S
C1638 H1629 0.930 . S
C1638 C1636 1.384 . S
C1638 C1639 1.372 . S
C1639 C1638 1.372 . S
C1639 C1640 1.400 . S
C1639 C1644 1.490 . S
C1640 H1630 0.930 . S
C1640 C1639 1.400 . S
C1640 C1643 1.386 . S
H1641 C1657 0.930 . S
H1642 C1658 0.931 . S
C1643 H1631 0.929 . S
C1643 C1637 1.390 . S
C1643 C1640 1.386 . S
C1644 C1639 1.490 . S
C1644 C1646 1.395 . S
C1644 C1647 1.403 . S
H1645 C1651 0.930 . S
C1646 H1632 0.930 . S
C1646 C1644 1.395 . S
C1646 C1649 1.403 . S
C1647 C1644 1.403 . S
C1647 C1648 1.524 . S
C1647 C1651 1.400 . S
C1648 H1633 0.960 . S
C1648 H1634 0.960 . S
C1648 H1635 0.960 . S
C1648 C1647 1.524 . S
C1649 C1646 1.403 . S
C1649 C1650 1.392 . S
C1649 C1653 1.495 . S
C1650 C1649 1.392 . S
C1650 C1651 1.385 . S
C1650 C1652 1.478 . S
C1651 H1645 0.930 . S
C1651 C1647 1.400 . S
C1651 C1650 1.385 . S
C1652 C1650 1.478 . S
C1652 C1654 1.381 . S
C1652 C1658 1.383 . S
C1653 C1649 1.495 . S
C1653 H1659 0.959 . S
C1653 H1660 0.961 . S
C1653 H1661 0.960 . S
C1654 C1652 1.381 . S
C1654 C1655 1.394 . S
C1654 H1662 0.930 . S
C1655 C1654 1.394 . S
C1655 C1656 1.383 . S
C1655 H1663 0.929 . S
C1656 C1655 1.383 . S
C1656 C1657 1.377 . S
C1657 H1641 0.930 . S
C1657 C1656 1.377 . S
C1657 C1658 1.379 . S
C1658 H1642 0.931 . S
C1658 C1652 1.383 . S
C1658 C1657 1.379 . S
H1659 C1653 0.959 . S
H1660 C1653 0.961 . S
H1661 C1653 0.960 . S
H1662 C1654 0.930 . S
H1663 C1655 0.929 . S
H1664 C1672 0.929 . S
H1665 C1674 0.930 . S
H1666 C1676 0.930 . S
H1667 C1679 0.929 . S
H1668 C1682 0.930 . S
H1669 C1684 0.960 . S
H1670 C1684 0.960 . S
H1671 C1684 0.960 . S
C1672 H1664 0.929 . S
C1672 C1673 1.377 . S
C1672 C1674 1.384 . S
C1673 C1672 1.377 . S
C1673 C1679 1.390 . S
C1674 H1665 0.930 . S
C1674 C1672 1.384 . S
C1674 C1675 1.372 . S
C1675 C1674 1.372 . S
C1675 C1676 1.400 . S
C1675 C1680 1.490 . S
C1676 H1666 0.930 . S
C1676 C1675 1.400 . S
C1676 C1679 1.386 . S
H1677 C1693 0.930 . S
H1678 C1694 0.931 . S
C1679 H1667 0.929 . S
C1679 C1673 1.390 . S
C1679 C1676 1.386 . S
C1680 C1675 1.490 . S
C1680 C1682 1.395 . S
C1680 C1683 1.403 . S
H1681 C1687 0.930 . S
C1682 H1668 0.930 . S
C1682 C1680 1.395 . S
C1682 C1685 1.403 . S
C1683 C1680 1.403 . S
C1683 C1684 1.524 . S
C1683 C1687 1.400 . S
C1684 H1669 0.960 . S
C1684 H1670 0.960 . S
C1684 H1671 0.960 . S
C1684 C1683 1.524 . S
C1685 C1682 1.403 . S
C1685 C1686 1.392 . S
C1685 C1689 1.495 . S
C1686 C1685 1.392 . S
C1686 C1687 1.385 . S
C1686 C1688 1.478 . S
C1687 H1681 0.930 . S
C1687 C1683 1.400 . S
C1687 C1686 1.385 . S
C1688 C1686 1.478 . S
C1688 C1690 1.381 . S
C1688 C1694 1.383 . S
C1689 C1685 1.495 . S
C1689 H1695 0.959 . S
C1689 H1696 0.961 . S
C1689 H1697 0.960 . S
C1690 C1688 1.381 . S
C1690 C1691 1.394 . S
C1690 H1698 0.930 . S
C1691 C1690 1.394 . S
C1691 C1692 1.383 . S
C1691 H1699 0.929 . S
C1692 C1691 1.383 . S
C1692 C1693 1.377 . S
C1693 H1677 0.930 . S
C1693 C1692 1.377 . S
C1693 C1694 1.379 . S
C1694 H1678 0.931 . S
C1694 C1688 1.383 . S
C1694 C1693 1.379 . S
H1695 C1689 0.959 . S
H1696 C1689 0.961 . S
H1697 C1689 0.960 . S
H1698 C1690 0.930 . S
H1699 C1691 0.929 . S
H1700 C1708 0.929 . S
H1701 C1710 0.930 . S
H1702 C1712 0.930 . S
H1703 C1715 0.929 . S
H1704 C1718 0.930 . S
H1705 C1720 0.960 . S
H1706 C1720 0.960 . S
H1707 C1720 0.960 . S
C1708 H1700 0.929 . S
C1708 C1709 1.377 . S
C1708 C1710 1.384 . S
C1709 C1708 1.377 . S
C1709 C1715 1.390 . S
C1710 H1701 0.930 . S
C1710 C1708 1.384 . S
C1710 C1711 1.372 . S
C1711 C1710 1.372 . S
C1711 C1712 1.400 . S
C1711 C1716 1.490 . S
C1712 H1702 0.930 . S
C1712 C1711 1.400 . S
C1712 C1715 1.386 . S
H1713 C1729 0.930 . S
H1714 C1730 0.931 . S
C1715 H1703 0.929 . S
C1715 C1709 1.390 . S
C1715 C1712 1.386 . S
C1716 C1711 1.490 . S
C1716 C1718 1.395 . S
C1716 C1719 1.403 . S
H1717 C1723 0.930 . S
C1718 H1704 0.930 . S
C1718 C1716 1.395 . S
C1718 C1721 1.403 . S
C1719 C1716 1.403 . S
C1719 C1720 1.524 . S
C1719 C1723 1.400 . S
C1720 H1705 0.960 . S
C1720 H1706 0.960 . S
C1720 H1707 0.960 . S
C1720 C1719 1.524 . S
C1721 C1718 1.403 . S
C1721 C1722 1.392 . S
C1721 C1725 1.495 . S
C1722 C1721 1.392 . S
C1722 C1723 1.385 . S
C1722 C1724 1.478 . S
C1723 H1717 0.930 . S
C1723 C1719 1.400 . S
C1723 C1722 1.385 . S
C1724 C1722 1.478 . S
C1724 C1726 1.381 . S
C1724 C1730 1.383 . S
C1725 C1721 1.495 . S
C1725 H1731 0.959 . S
C1725 H1732 0.961 . S
C1725 H1733 0.960 . S
C1726 C1724 1.381 . S
C1726 C1727 1.394 . S
C1726 H1734 0.930 . S
C1727 C1726 1.394 . S
C1727 C1728 1.383 . S
C1727 H1735 0.929 . S
C1728 C1727 1.383 . S
C1728 C1729 1.377 . S
C1729 H1713 0.930 . S
C1729 C1728 1.377 . S
C1729 C1730 1.379 . S
C1730 H1714 0.931 . S
C1730 C1724 1.383 . S
C1730 C1729 1.379 . S
H1731 C1725 0.959 . S
H1732 C1725 0.961 . S
H1733 C1725 0.960 . S
H1734 C1726 0.930 . S
H1735 C1727 0.929 . S
H1736 C1744 0.929 . S
H1737 C1746 0.930 . S
H1738 C1748 0.930 . S
H1739 C1751 0.929 . S
H1740 C1754 0.930 . S
H1741 C1756 0.960 . S
H1742 C1756 0.960 . S
H1743 C1756 0.960 . S
C1744 H1736 0.929 . S
C1744 C1745 1.377 . S
C1744 C1746 1.384 . S
C1745 C1744 1.377 . S
C1745 C1751 1.390 . S
C1746 H1737 0.930 . S
C1746 C1744 1.384 . S
C1746 C1747 1.372 . S
C1747 C1746 1.372 . S
C1747 C1748 1.400 . S
C1747 C1752 1.490 . S
C1748 H1738 0.930 . S
C1748 C1747 1.400 . S
C1748 C1751 1.386 . S
H1749 C1765 0.930 . S
H1750 C1766 0.931 . S
C1751 H1739 0.929 . S
C1751 C1745 1.390 . S
C1751 C1748 1.386 . S
C1752 C1747 1.490 . S
C1752 C1754 1.395 . S
C1752 C1755 1.403 . S
H1753 C1759 0.930 . S
C1754 H1740 0.930 . S
C1754 C1752 1.395 . S
C1754 C1757 1.403 . S
C1755 C1752 1.403 . S
C1755 C1756 1.524 . S
C1755 C1759 1.400 . S
C1756 H1741 0.960 . S
C1756 H1742 0.960 . S
C1756 H1743 0.960 . S
C1756 C1755 1.524 . S
C1757 C1754 1.403 . S
C1757 C1758 1.392 . S
C1757 C1761 1.495 . S
C1758 C1757 1.392 . S
C1758 C1759 1.385 . S
C1758 C1760 1.478 . S
C1759 H1753 0.930 . S
C1759 C1755 1.400 . S
C1759 C1758 1.385 . S
C1760 C1758 1.478 . S
C1760 C1762 1.381 . S
C1760 C1766 1.383 . S
C1761 C1757 1.495 . S
C1761 H1767 0.959 . S
C1761 H1768 0.961 . S
C1761 H1769 0.960 . S
C1762 C1760 1.381 . S
C1762 C1763 1.394 . S
C1762 H1770 0.930 . S
C1763 C1762 1.394 . S
C1763 C1764 1.383 . S
C1763 H1771 0.929 . S
C1764 C1763 1.383 . S
C1764 C1765 1.377 . S
C1765 H1749 0.930 . S
C1765 C1764 1.377 . S
C1765 C1766 1.379 . S
C1766 H1750 0.931 . S
C1766 C1760 1.383 . S
C1766 C1765 1.379 . S
H1767 C1761 0.959 . S
H1768 C1761 0.961 . S
H1769 C1761 0.960 . S
H1770 C1762 0.930 . S
H1771 C1763 0.929 . S
H1772 C1780 0.929 . S
H1773 C1782 0.930 . S
H1774 C1784 0.930 . S
H1775 C1787 0.929 . S
H1776 C1790 0.930 . S
H1777 C1792 0.960 . S
H1778 C1792 0.960 . S
H1779 C1792 0.960 . S
C1780 H1772 0.929 . S
C1780 C1781 1.377 . S
C1780 C1782 1.384 . S
C1781 C1780 1.377 . S
C1781 C1787 1.390 . S
C1782 H1773 0.930 . S
C1782 C1780 1.384 . S
C1782 C1783 1.372 . S
C1783 C1782 1.372 . S
C1783 C1784 1.400 . S
C1783 C1788 1.490 . S
C1784 H1774 0.930 . S
C1784 C1783 1.400 . S
C1784 C1787 1.386 . S
H1785 C1801 0.930 . S
H1786 C1802 0.931 . S
C1787 H1775 0.929 . S
C1787 C1781 1.390 . S
C1787 C1784 1.386 . S
C1788 C1783 1.490 . S
C1788 C1790 1.395 . S
C1788 C1791 1.402 1_655 S
H1789 C1795 0.904 1_455 S
C1790 H1776 0.930 . S
C1790 C1788 1.395 . S
C1790 C1793 1.403 . S
C1791 C1788 1.402 1_455 S
C1791 C1792 1.525 . S
C1791 C1795 1.395 1_455 S
C1792 H1777 0.960 . S
C1792 H1778 0.960 . S
C1792 H1779 0.960 . S
C1792 C1791 1.525 . S
C1793 C1790 1.403 . S
C1793 C1794 1.392 . S
C1793 C1797 1.495 . S
C1794 C1793 1.392 . S
C1794 C1795 1.417 . S
C1794 C1796 1.478 . S
C1795 H1789 0.904 1_655 S
C1795 C1791 1.395 1_655 S
C1795 C1794 1.417 . S
C1796 C1794 1.478 . S
C1796 C1798 1.381 . S
C1796 C1802 1.383 . S
C1797 C1793 1.495 . S
C1797 H1803 0.959 . S
C1797 H1804 0.961 . S
C1797 H1805 0.960 . S
C1798 C1796 1.381 . S
C1798 C1799 1.394 . S
C1798 H1806 0.927 1_655 S
C1799 C1798 1.394 . S
C1799 C1800 1.383 . S
C1799 H1807 0.929 1_655 S
C1800 C1799 1.383 . S
C1800 C1801 1.377 . S
C1801 H1785 0.930 . S
C1801 C1800 1.377 . S
C1801 C1802 1.379 . S
C1802 H1786 0.931 . S
C1802 C1796 1.383 . S
C1802 C1801 1.379 . S
H1803 C1797 0.959 . S
H1804 C1797 0.961 . S
H1805 C1797 0.960 . S
H1806 C1798 0.927 1_455 S
H1807 C1799 0.929 1_455 S
H1808 C1816 0.929 . S
H1809 C1818 0.930 . S
H1810 C1820 0.930 . S
H1811 C1823 0.929 . S
H1812 C1826 0.930 . S
H1813 C1828 0.960 . S
H1814 C1828 0.960 . S
H1815 C1828 0.960 . S
C1816 H1808 0.929 . S
C1816 C1817 1.377 . S
C1816 C1818 1.384 . S
C1817 C1816 1.377 . S
C1817 C1823 1.390 . S
C1818 H1809 0.930 . S
C1818 C1816 1.384 . S
C1818 C1819 1.372 . S
C1819 C1818 1.372 . S
C1819 C1820 1.400 . S
C1819 C1824 1.490 . S
C1820 H1810 0.930 . S
C1820 C1819 1.400 . S
C1820 C1823 1.386 . S
H1821 C1837 0.930 . S
H1822 C1838 0.931 . S
C1823 H1811 0.929 . S
C1823 C1817 1.390 . S
C1823 C1820 1.386 . S
C1824 C1819 1.490 . S
C1824 C1826 1.395 . S
C1824 C1827 1.403 . S
H1825 C1831 0.930 . S
C1826 H1812 0.930 . S
C1826 C1824 1.395 . S
C1826 C1829 1.403 . S
C1827 C1824 1.403 . S
C1827 C1828 1.524 . S
C1827 C1831 1.400 . S
C1828 H1813 0.960 . S
C1828 H1814 0.960 . S
C1828 H1815 0.960 . S
C1828 C1827 1.524 . S
C1829 C1826 1.403 . S
C1829 C1830 1.392 . S
C1829 C1833 1.495 . S
C1830 C1829 1.392 . S
C1830 C1831 1.385 . S
C1830 C1832 1.478 . S
C1831 H1825 0.930 . S
C1831 C1827 1.400 . S
C1831 C1830 1.385 . S
C1832 C1830 1.478 . S
C1832 C1834 1.381 . S
C1832 C1838 1.383 . S
C1833 C1829 1.495 . S
C1833 H1839 0.959 . S
C1833 H1840 0.961 . S
C1833 H1841 0.960 . S
C1834 C1832 1.381 . S
C1834 C1835 1.394 . S
C1834 H1842 0.930 . S
C1835 C1834 1.394 . S
C1835 C1836 1.383 . S
C1835 H1843 0.929 . S
C1836 C1835 1.383 . S
C1836 C1837 1.377 . S
C1837 H1821 0.930 . S
C1837 C1836 1.377 . S
C1837 C1838 1.379 . S
C1838 H1822 0.931 . S
C1838 C1832 1.383 . S
C1838 C1837 1.379 . S
H1839 C1833 0.959 . S
H1840 C1833 0.961 . S
H1841 C1833 0.960 . S
H1842 C1834 0.930 . S
H1843 C1835 0.929 . S
H1844 C1852 0.929 . S
H1845 C1854 0.930 . S
H1846 C1856 0.930 . S
H1847 C1859 0.929 . S
H1848 C1862 0.930 . S
H1849 C1864 0.960 . S
H1850 C1864 0.960 . S
H1851 C1864 0.960 . S
C1852 H1844 0.929 . S
C1852 C1853 1.377 . S
C1852 C1854 1.384 . S
C1853 C1852 1.377 . S
C1853 C1859 1.390 . S
C1854 H1845 0.930 . S
C1854 C1852 1.384 . S
C1854 C1855 1.372 . S
C1855 C1854 1.372 . S
C1855 C1856 1.400 . S
C1855 C1860 1.490 . S
C1856 H1846 0.930 . S
C1856 C1855 1.400 . S
C1856 C1859 1.386 . S
H1857 C1873 0.930 . S
H1858 C1874 0.931 . S
C1859 H1847 0.929 . S
C1859 C1853 1.390 . S
C1859 C1856 1.386 . S
C1860 C1855 1.490 . S
C1860 C1862 1.395 . S
C1860 C1863 1.403 . S
H1861 C1867 0.930 . S
C1862 H1848 0.930 . S
C1862 C1860 1.395 . S
C1862 C1865 1.403 . S
C1863 C1860 1.403 . S
C1863 C1864 1.524 . S
C1863 C1867 1.400 . S
C1864 H1849 0.960 . S
C1864 H1850 0.960 . S
C1864 H1851 0.960 . S
C1864 C1863 1.524 . S
C1865 C1862 1.403 . S
C1865 C1866 1.392 . S
C1865 C1869 1.495 . S
C1866 C1865 1.392 . S
C1866 C1867 1.385 . S
C1866 C1868 1.478 . S
C1867 H1861 0.930 . S
C1867 C1863 1.400 . S
C1867 C1866 1.385 . S
C1868 C1866 1.478 . S
C1868 C1870 1.381 . S
C1868 C1874 1.383 . S
C1869 C1865 1.495 . S
C1869 H1875 0.959 . S
C1869 H1876 0.961 . S
C1869 H1877 0.960 . S
C1870 C1868 1.381 . S
C1870 C1871 1.394 . S
C1870 H1878 0.930 . S
C1871 C1870 1.394 . S
C1871 C1872 1.383 . S
C1871 H1879 0.929 . S
C1872 C1871 1.383 . S
C1872 C1873 1.377 . S
C1873 H1857 0.930 . S
C1873 C1872 1.377 . S
C1873 C1874 1.379 . S
C1874 H1858 0.931 . S
C1874 C1868 1.383 . S
C1874 C1873 1.379 . S
H1875 C1869 0.959 . S
H1876 C1869 0.961 . S
H1877 C1869 0.960 . S
H1878 C1870 0.930 . S
H1879 C1871 0.929 . S
H1880 C1888 0.929 . S
H1881 C1890 0.930 . S
H1882 C1892 0.930 1_554 S
H1883 C1895 0.929 . S
H1884 C1898 0.930 . S
H1885 C1900 0.960 . S
H1886 C1900 0.960 . S
H1887 C1900 0.960 . S
C1888 H1880 0.929 . S
C1888 C1889 1.377 1_565 S
C1888 C1890 1.384 . S
C1889 C1888 1.377 1_545 S
C1889 C1895 1.390 . S
C1890 H1881 0.930 . S
C1890 C1888 1.384 . S
C1890 C1891 1.372 . S
C1891 C1890 1.372 . S
C1891 C1892 1.400 1_565 S
C1891 C1896 1.490 . S
C1892 H1882 0.930 1_556 S
C1892 C1891 1.400 1_545 S
C1892 C1895 1.386 . S
H1893 C1909 0.930 . S
H1894 C1910 0.931 . S
C1895 H1883 0.929 . S
C1895 C1889 1.390 . S
C1895 C1892 1.386 . S
C1896 C1891 1.490 . S
C1896 C1898 1.395 1_556 S
C1896 C1899 1.403 . S
H1897 C1903 0.926 1_556 S
C1898 H1884 0.930 . S
C1898 C1896 1.395 1_554 S
C1898 C1901 1.403 . S
C1899 C1896 1.403 . S
C1899 C1900 1.524 1_565 S
C1899 C1903 1.396 1_556 S
C1900 H1885 0.960 . S
C1900 H1886 0.960 . S
C1900 H1887 0.960 . S
C1900 C1899 1.524 1_545 S
C1901 C1898 1.403 . S
C1901 C1902 1.392 . S
C1901 C1905 1.495 . S
C1902 C1901 1.392 . S
C1902 C1903 1.390 . S
C1902 C1904 1.478 . S
C1903 H1897 0.926 1_554 S
C1903 C1899 1.396 1_554 S
C1903 C1902 1.390 . S
C1904 C1902 1.478 . S
C1904 C1906 1.381 . S
C1904 C1910 1.383 . S
C1905 C1901 1.495 . S
C1905 H1911 0.959 . S
C1905 H1912 0.961 . S
C1905 H1913 0.960 . S
C1906 C1904 1.381 . S
C1906 C1907 1.394 . S
C1906 H1914 0.930 1_554 S
C1907 C1906 1.394 . S
C1907 C1908 1.383 . S
C1907 H1915 0.929 . S
C1908 C1907 1.383 . S
C1908 C1909 1.377 . S
C1909 H1893 0.930 . S
C1909 C1908 1.377 . S
C1909 C1910 1.379 . S
C1910 H1894 0.931 . S
C1910 C1904 1.383 . S
C1910 C1909 1.379 . S
H1911 C1905 0.959 . S
H1912 C1905 0.961 . S
H1913 C1905 0.960 . S
H1914 C1906 0.930 1_556 S
H1915 C1907 0.929 . S
H1916 C1924 0.929 . S
H1917 C1926 0.930 . S
H1918 C1928 0.930 . S
H1919 C1931 0.929 . S
H1920 C1934 0.930 . S
H1921 C1936 0.960 . S
H1922 C1936 0.960 . S
H1923 C1936 0.960 . S
C1924 H1916 0.929 . S
C1924 C1925 1.377 . S
C1924 C1926 1.384 . S
C1925 C1924 1.377 . S
C1925 C1931 1.390 . S
C1926 H1917 0.930 . S
C1926 C1924 1.384 . S
C1926 C1927 1.372 . S
C1927 C1926 1.372 . S
C1927 C1928 1.400 . S
C1927 C1932 1.490 . S
C1928 H1918 0.930 . S
C1928 C1927 1.400 . S
C1928 C1931 1.386 . S
H1929 C1945 0.930 . S
H1930 C1946 0.931 . S
C1931 H1919 0.929 . S
C1931 C1925 1.390 . S
C1931 C1928 1.386 . S
C1932 C1927 1.490 . S
C1932 C1934 1.395 . S
C1932 C1935 1.403 . S
H1933 C1939 0.930 . S
C1934 H1920 0.930 . S
C1934 C1932 1.395 . S
C1934 C1937 1.403 . S
C1935 C1932 1.403 . S
C1935 C1936 1.524 . S
C1935 C1939 1.400 . S
C1936 H1921 0.960 . S
C1936 H1922 0.960 . S
C1936 H1923 0.960 . S
C1936 C1935 1.524 . S
C1937 C1934 1.403 . S
C1937 C1938 1.392 . S
C1937 C1941 1.495 . S
C1938 C1937 1.392 . S
C1938 C1939 1.385 . S
C1938 C1940 1.478 . S
C1939 H1933 0.930 . S
C1939 C1935 1.400 . S
C1939 C1938 1.385 . S
C1940 C1938 1.478 . S
C1940 C1942 1.381 . S
C1940 C1946 1.383 . S
C1941 C1937 1.495 . S
C1941 H1947 0.959 . S
C1941 H1948 0.961 . S
C1941 H1949 0.960 . S
C1942 C1940 1.381 . S
C1942 C1943 1.394 . S
C1942 H1950 0.930 . S
C1943 C1942 1.394 . S
C1943 C1944 1.383 . S
C1943 H1951 0.929 . S
C1944 C1943 1.383 . S
C1944 C1945 1.377 . S
C1945 H1929 0.930 . S
C1945 C1944 1.377 . S
C1945 C1946 1.379 . S
C1946 H1930 0.931 . S
C1946 C1940 1.383 . S
C1946 C1945 1.379 . S
H1947 C1941 0.959 . S
H1948 C1941 0.961 . S
H1949 C1941 0.960 . S
H1950 C1942 0.930 . S
H1951 C1943 0.929 . S
H1952 C1960 0.930 . S
H1953 C1962 0.930 . S
H1954 C1964 0.930 . S
H1955 C1967 0.929 . S
H1956 C1970 0.930 . S
H1957 C1972 0.960 . S
H1958 C1972 0.960 . S
H1959 C1972 0.960 . S
C1960 H1952 0.930 . S
C1960 C1961 1.377 . S
C1960 C1962 1.383 1_565 S
C1961 C1960 1.377 . S
C1961 C1967 1.390 1_565 S
C1962 H1953 0.930 . S
C1962 C1960 1.383 1_545 S
C1962 C1963 1.372 . S
C1963 C1962 1.372 . S
C1963 C1964 1.400 . S
C1963 C1968 1.490 . S
C1964 H1954 0.930 . S
C1964 C1963 1.400 . S
C1964 C1967 1.386 . S
H1965 C1981 0.930 . S
H1966 C1982 0.931 . S
C1967 H1955 0.929 . S
C1967 C1961 1.390 1_545 S
C1967 C1964 1.386 . S
C1968 C1963 1.490 . S
C1968 C1970 1.395 . S
C1968 C1971 1.403 . S
H1969 C1975 0.930 . S
C1970 H1956 0.930 . S
C1970 C1968 1.395 . S
C1970 C1973 1.403 . S
C1971 C1968 1.403 . S
C1971 C1972 1.524 . S
C1971 C1975 1.400 . S
C1972 H1957 0.960 . S
C1972 H1958 0.960 . S
C1972 H1959 0.960 . S
C1972 C1971 1.524 . S
C1973 C1970 1.403 . S
C1973 C1974 1.392 . S
C1973 C1977 1.495 . S
C1974 C1973 1.392 . S
C1974 C1975 1.385 . S
C1974 C1976 1.478 . S
C1975 H1969 0.930 . S
C1975 C1971 1.400 . S
C1975 C1974 1.385 . S
C1976 C1974 1.478 . S
C1976 C1978 1.381 . S
C1976 C1982 1.383 . S
C1977 C1973 1.495 . S
C1977 H1983 0.959 . S
C1977 H1984 0.961 . S
C1977 H1985 0.960 . S
C1978 C1976 1.381 . S
C1978 C1979 1.394 . S
C1978 H1986 0.930 . S
C1979 C1978 1.394 . S
C1979 C1980 1.383 . S
C1979 H1987 0.929 . S
C1980 C1979 1.383 . S
C1980 C1981 1.377 . S
C1981 H1965 0.930 . S
C1981 C1980 1.377 . S
C1981 C1982 1.379 . S
C1982 H1966 0.931 . S
C1982 C1976 1.383 . S
C1982 C1981 1.379 . S
H1983 C1977 0.959 . S
H1984 C1977 0.961 . S
H1985 C1977 0.960 . S
H1986 C1978 0.930 . S
H1987 C1979 0.929 . S
H1988 C1996 0.929 . S
H1989 C1998 0.930 . S
H1990 C2000 0.930 . S
H1991 C2003 0.929 . S
H1992 C2006 0.930 . S
H1993 C2008 0.960 . S
H1994 C2008 0.960 . S
H1995 C2008 0.960 . S
C1996 H1988 0.929 . S
C1996 C1997 1.377 . S
C1996 C1998 1.384 . S
C1997 C1996 1.377 . S
C1997 C2003 1.390 . S
C1998 H1989 0.930 . S
C1998 C1996 1.384 . S
C1998 C1999 1.372 . S
C1999 C1998 1.372 . S
C1999 C2000 1.400 . S
C1999 C2004 1.490 . S
C2000 H1990 0.930 . S
C2000 C1999 1.400 . S
C2000 C2003 1.386 . S
H2001 C2017 0.930 . S
H2002 C2018 0.931 . S
C2003 H1991 0.929 . S
C2003 C1997 1.390 . S
C2003 C2000 1.386 . S
C2004 C1999 1.490 . S
C2004 C2006 1.395 . S
C2004 C2007 1.403 . S
H2005 C2011 0.930 . S
C2006 H1992 0.930 . S
C2006 C2004 1.395 . S
C2006 C2009 1.403 . S
C2007 C2004 1.403 . S
C2007 C2008 1.524 . S
C2007 C2011 1.400 . S
C2008 H1993 0.960 . S
C2008 H1994 0.960 . S
C2008 H1995 0.960 . S
C2008 C2007 1.524 . S
C2009 C2006 1.403 . S
C2009 C2010 1.392 . S
C2009 C2013 1.495 . S
C2010 C2009 1.392 . S
C2010 C2011 1.385 . S
C2010 C2012 1.478 . S
C2011 H2005 0.930 . S
C2011 C2007 1.400 . S
C2011 C2010 1.385 . S
C2012 C2010 1.478 . S
C2012 C2014 1.381 . S
C2012 C2018 1.383 . S
C2013 C2009 1.495 . S
C2013 H2019 0.959 . S
C2013 H2020 0.961 . S
C2013 H2021 0.960 . S
C2014 C2012 1.381 . S
C2014 C2015 1.394 . S
C2014 H2022 0.930 . S
C2015 C2014 1.394 . S
C2015 C2016 1.383 . S
C2015 H2023 0.929 . S
C2016 C2015 1.383 . S
C2016 C2017 1.377 . S
C2017 H2001 0.930 . S
C2017 C2016 1.377 . S
C2017 C2018 1.379 . S
C2018 H2002 0.931 . S
C2018 C2012 1.383 . S
C2018 C2017 1.379 . S
H2019 C2013 0.959 . S
H2020 C2013 0.961 . S
H2021 C2013 0.960 . S
H2022 C2014 0.930 . S
H2023 C2015 0.929 . S
H2024 C2032 0.929 . S
H2025 C2034 0.930 . S
H2026 C2036 0.930 . S
H2027 C2039 0.929 . S
H2028 C2042 0.930 . S
H2029 C2044 0.960 . S
H2030 C2044 0.960 . S
H2031 C2044 0.960 . S
C2032 H2024 0.929 . S
C2032 C2033 1.377 . S
C2032 C2034 1.384 . S
C2033 C2032 1.377 . S
C2033 C2039 1.390 . S
C2034 H2025 0.930 . S
C2034 C2032 1.384 . S
C2034 C2035 1.372 . S
C2035 C2034 1.372 . S
C2035 C2036 1.400 . S
C2035 C2040 1.490 . S
C2036 H2026 0.930 . S
C2036 C2035 1.400 . S
C2036 C2039 1.386 . S
H2037 C2053 0.930 . S
H2038 C2054 0.931 . S
C2039 H2027 0.929 . S
C2039 C2033 1.390 . S
C2039 C2036 1.386 . S
C2040 C2035 1.490 . S
C2040 C2042 1.395 . S
C2040 C2043 1.403 . S
H2041 C2047 0.930 . S
C2042 H2028 0.930 . S
C2042 C2040 1.395 . S
C2042 C2045 1.403 . S
C2043 C2040 1.403 . S
C2043 C2044 1.524 . S
C2043 C2047 1.400 . S
C2044 H2029 0.960 . S
C2044 H2030 0.960 . S
C2044 H2031 0.960 . S
C2044 C2043 1.524 . S
C2045 C2042 1.403 . S
C2045 C2046 1.392 . S
C2045 C2049 1.495 . S
C2046 C2045 1.392 . S
C2046 C2047 1.385 . S
C2046 C2048 1.478 . S
C2047 H2041 0.930 . S
C2047 C2043 1.400 . S
C2047 C2046 1.385 . S
C2048 C2046 1.478 . S
C2048 C2050 1.381 . S
C2048 C2054 1.383 . S
C2049 C2045 1.495 . S
C2049 H2055 0.959 . S
C2049 H2056 0.961 . S
C2049 H2057 0.960 . S
C2050 C2048 1.381 . S
C2050 C2051 1.394 . S
C2050 H2058 0.930 . S
C2051 C2050 1.394 . S
C2051 C2052 1.383 . S
C2051 H2059 0.929 . S
C2052 C2051 1.383 . S
C2052 C2053 1.377 . S
C2053 H2037 0.930 . S
C2053 C2052 1.377 . S
C2053 C2054 1.379 . S
C2054 H2038 0.931 . S
C2054 C2048 1.383 . S
C2054 C2053 1.379 . S
H2055 C2049 0.959 . S
H2056 C2049 0.961 . S
H2057 C2049 0.960 . S
H2058 C2050 0.930 . S
H2059 C2051 0.929 . S
H2060 C2068 0.929 . S
H2061 C2070 0.930 . S
H2062 C2072 0.930 . S
H2063 C2075 0.929 . S
H2064 C2078 0.930 . S
H2065 C2080 0.960 . S
H2066 C2080 0.960 . S
H2067 C2080 0.960 . S
C2068 H2060 0.929 . S
C2068 C2069 1.377 . S
C2068 C2070 1.384 . S
C2069 C2068 1.377 . S
C2069 C2075 1.390 . S
C2070 H2061 0.930 . S
C2070 C2068 1.384 . S
C2070 C2071 1.372 . S
C2071 C2070 1.372 . S
C2071 C2072 1.400 . S
C2071 C2076 1.490 . S
C2072 H2062 0.930 . S
C2072 C2071 1.400 . S
C2072 C2075 1.386 . S
H2073 C2089 0.930 . S
H2074 C2090 0.931 . S
C2075 H2063 0.929 . S
C2075 C2069 1.390 . S
C2075 C2072 1.386 . S
C2076 C2071 1.490 . S
C2076 C2078 1.395 . S
C2076 C2079 1.403 . S
H2077 C2083 0.930 . S
C2078 H2064 0.930 . S
C2078 C2076 1.395 . S
C2078 C2081 1.403 . S
C2079 C2076 1.403 . S
C2079 C2080 1.524 . S
C2079 C2083 1.400 . S
C2080 H2065 0.960 . S
C2080 H2066 0.960 . S
C2080 H2067 0.960 . S
C2080 C2079 1.524 . S
C2081 C2078 1.403 . S
C2081 C2082 1.392 . S
C2081 C2085 1.495 . S
C2082 C2081 1.392 . S
C2082 C2083 1.385 . S
C2082 C2084 1.478 . S
C2083 H2077 0.930 . S
C2083 C2079 1.400 . S
C2083 C2082 1.385 . S
C2084 C2082 1.478 . S
C2084 C2086 1.381 . S
C2084 C2090 1.383 . S
C2085 C2081 1.495 . S
C2085 H2091 0.959 . S
C2085 H2092 0.961 . S
C2085 H2093 0.960 . S
C2086 C2084 1.381 . S
C2086 C2087 1.394 . S
C2086 H2094 0.930 . S
C2087 C2086 1.394 . S
C2087 C2088 1.383 . S
C2087 H2095 0.929 . S
C2088 C2087 1.383 . S
C2088 C2089 1.377 . S
C2089 H2073 0.930 . S
C2089 C2088 1.377 . S
C2089 C2090 1.379 . S
C2090 H2074 0.931 . S
C2090 C2084 1.383 . S
C2090 C2089 1.379 . S
H2091 C2085 0.959 . S
H2092 C2085 0.961 . S
H2093 C2085 0.960 . S
H2094 C2086 0.930 . S
H2095 C2087 0.929 . S
H2096 C2104 0.929 . S
H2097 C2106 0.930 . S
H2098 C2108 0.930 . S
H2099 C2111 0.929 . S
H2100 C2114 0.930 . S
H2101 C2116 0.960 . S
H2102 C2116 0.960 . S
H2103 C2116 0.960 . S
C2104 H2096 0.929 . S
C2104 C2105 1.377 . S
C2104 C2106 1.384 . S
C2105 C2104 1.377 . S
C2105 C2111 1.390 . S
C2106 H2097 0.930 . S
C2106 C2104 1.384 . S
C2106 C2107 1.372 . S
C2107 C2106 1.372 . S
C2107 C2108 1.400 . S
C2107 C2112 1.490 . S
C2108 H2098 0.930 . S
C2108 C2107 1.400 . S
C2108 C2111 1.386 . S
H2109 C2125 0.930 . S
H2110 C2126 0.931 . S
C2111 H2099 0.929 . S
C2111 C2105 1.390 . S
C2111 C2108 1.386 . S
C2112 C2107 1.490 . S
C2112 C2114 1.395 . S
C2112 C2115 1.403 . S
H2113 C2119 0.930 . S
C2114 H2100 0.930 . S
C2114 C2112 1.395 . S
C2114 C2117 1.403 . S
C2115 C2112 1.403 . S
C2115 C2116 1.524 . S
C2115 C2119 1.400 . S
C2116 H2101 0.960 . S
C2116 H2102 0.960 . S
C2116 H2103 0.960 . S
C2116 C2115 1.524 . S
C2117 C2114 1.403 . S
C2117 C2118 1.392 . S
C2117 C2121 1.495 . S
C2118 C2117 1.392 . S
C2118 C2119 1.385 . S
C2118 C2120 1.478 . S
C2119 H2113 0.930 . S
C2119 C2115 1.400 . S
C2119 C2118 1.385 . S
C2120 C2118 1.478 . S
C2120 C2122 1.381 . S
C2120 C2126 1.383 . S
C2121 C2117 1.495 . S
C2121 H2127 0.959 . S
C2121 H2128 0.961 . S
C2121 H2129 0.960 . S
C2122 C2120 1.381 . S
C2122 C2123 1.394 . S
C2122 H2130 0.930 . S
C2123 C2122 1.394 . S
C2123 C2124 1.383 . S
C2123 H2131 0.929 . S
C2124 C2123 1.383 . S
C2124 C2125 1.377 . S
C2125 H2109 0.930 . S
C2125 C2124 1.377 . S
C2125 C2126 1.379 . S
C2126 H2110 0.931 . S
C2126 C2120 1.383 . S
C2126 C2125 1.379 . S
H2127 C2121 0.959 . S
H2128 C2121 0.961 . S
H2129 C2121 0.960 . S
H2130 C2122 0.930 . S
H2131 C2123 0.929 . S
H2132 C2140 0.929 . S
H2133 C2142 0.930 . S
H2134 C2144 0.930 . S
H2135 C2147 0.929 . S
H2136 C2150 0.930 . S
H2137 C2152 0.960 . S
H2138 C2152 0.921 1_565 S
H2139 C2152 0.960 . S
C2140 H2132 0.929 . S
C2140 C2141 1.377 . S
C2140 C2142 1.384 . S
C2141 C2140 1.377 . S
C2141 C2147 1.390 . S
C2142 H2133 0.930 . S
C2142 C2140 1.384 . S
C2142 C2143 1.372 . S
C2143 C2142 1.372 . S
C2143 C2144 1.400 . S
C2143 C2148 1.490 . S
C2144 H2134 0.930 . S
C2144 C2143 1.400 . S
C2144 C2147 1.386 . S
H2145 C2161 0.930 . S
H2146 C2162 0.931 . S
C2147 H2135 0.929 . S
C2147 C2141 1.390 . S
C2147 C2144 1.386 . S
C2148 C2143 1.490 . S
C2148 C2150 1.395 . S
C2148 C2151 1.403 . S
H2149 C2155 0.930 . S
C2150 H2136 0.930 . S
C2150 C2148 1.395 . S
C2150 C2153 1.403 . S
C2151 C2148 1.403 . S
C2151 C2152 1.524 . S
C2151 C2155 1.400 . S
C2152 H2137 0.960 . S
C2152 H2138 0.921 1_545 S
C2152 H2139 0.960 . S
C2152 C2151 1.524 . S
C2153 C2150 1.403 . S
C2153 C2154 1.392 . S
C2153 C2157 1.495 . S
C2154 C2153 1.392 . S
C2154 C2155 1.385 . S
C2154 C2156 1.478 . S
C2155 H2149 0.930 . S
C2155 C2151 1.400 . S
C2155 C2154 1.385 . S
C2156 C2154 1.478 . S
C2156 C2158 1.381 . S
C2156 C2162 1.383 . S
C2157 C2153 1.495 . S
C2157 H2163 0.959 . S
C2157 H2164 0.961 . S
C2157 H2165 0.960 . S
C2158 C2156 1.381 . S
C2158 C2159 1.394 . S
C2158 H2166 0.934 . S
C2159 C2158 1.394 . S
C2159 C2160 1.383 . S
C2159 H2167 0.929 1_545 S
C2160 C2159 1.383 . S
C2160 C2161 1.377 . S
C2161 H2145 0.930 . S
C2161 C2160 1.377 . S
C2161 C2162 1.379 . S
C2162 H2146 0.931 . S
C2162 C2156 1.383 . S
C2162 C2161 1.379 . S
H2163 C2157 0.959 . S
H2164 C2157 0.961 . S
H2165 C2157 0.960 . S
H2166 C2158 0.934 . S
H2167 C2159 0.929 1_565 S
H2168 C2176 0.929 . S
H2169 C2178 0.930 . S
H2170 C2180 0.930 . S
H2171 C2183 0.929 . S
H2172 C2186 0.930 . S
H2173 C2188 0.960 . S
H2174 C2188 0.960 . S
H2175 C2188 0.960 . S
C2176 H2168 0.929 . S
C2176 C2177 1.377 . S
C2176 C2178 1.384 . S
C2177 C2176 1.377 . S
C2177 C2183 1.390 . S
C2178 H2169 0.930 . S
C2178 C2176 1.384 . S
C2178 C2179 1.372 . S
C2179 C2178 1.372 . S
C2179 C2180 1.400 . S
C2179 C2184 1.490 . S
C2180 H2170 0.930 . S
C2180 C2179 1.400 . S
C2180 C2183 1.386 . S
H2181 C2197 0.930 . S
H2182 C2198 0.931 . S
C2183 H2171 0.929 . S
C2183 C2177 1.390 . S
C2183 C2180 1.386 . S
C2184 C2179 1.490 . S
C2184 C2186 1.395 . S
C2184 C2187 1.403 . S
H2185 C2191 0.930 . S
C2186 H2172 0.930 . S
C2186 C2184 1.395 . S
C2186 C2189 1.403 . S
C2187 C2184 1.403 . S
C2187 C2188 1.524 . S
C2187 C2191 1.400 . S
C2188 H2173 0.960 . S
C2188 H2174 0.960 . S
C2188 H2175 0.960 . S
C2188 C2187 1.524 . S
C2189 C2186 1.403 . S
C2189 C2190 1.392 . S
C2189 C2193 1.495 . S
C2190 C2189 1.392 . S
C2190 C2191 1.385 . S
C2190 C2192 1.478 . S
C2191 H2185 0.930 . S
C2191 C2187 1.400 . S
C2191 C2190 1.385 . S
C2192 C2190 1.478 . S
C2192 C2194 1.381 . S
C2192 C2198 1.383 . S
C2193 C2189 1.495 . S
C2193 H2199 0.959 . S
C2193 H2200 0.961 . S
C2193 H2201 0.960 . S
C2194 C2192 1.381 . S
C2194 C2195 1.394 . S
C2194 H2202 0.930 . S
C2195 C2194 1.394 . S
C2195 C2196 1.383 . S
C2195 H2203 0.929 . S
C2196 C2195 1.383 . S
C2196 C2197 1.377 . S
C2197 H2181 0.930 . S
C2197 C2196 1.377 . S
C2197 C2198 1.379 . S
C2198 H2182 0.931 . S
C2198 C2192 1.383 . S
C2198 C2197 1.379 . S
H2199 C2193 0.959 . S
H2200 C2193 0.961 . S
H2201 C2193 0.960 . S
H2202 C2194 0.930 . S
H2203 C2195 0.929 . S
H2204 C2212 0.929 . S
H2205 C2214 0.930 . S
H2206 C2216 0.930 . S
H2207 C2219 0.929 . S
H2208 C2222 0.930 . S
H2209 C2224 0.960 . S
H2210 C2224 0.960 . S
H2211 C2224 0.960 . S
C2212 H2204 0.929 . S
C2212 C2213 1.377 . S
C2212 C2214 1.384 . S
C2213 C2212 1.377 . S
C2213 C2219 1.390 . S
C2214 H2205 0.930 . S
C2214 C2212 1.384 . S
C2214 C2215 1.372 . S
C2215 C2214 1.372 . S
C2215 C2216 1.400 . S
C2215 C2220 1.490 . S
C2216 H2206 0.930 . S
C2216 C2215 1.400 . S
C2216 C2219 1.386 . S
H2217 C2233 0.930 . S
H2218 C2234 0.931 . S
C2219 H2207 0.929 . S
C2219 C2213 1.390 . S
C2219 C2216 1.386 . S
C2220 C2215 1.490 . S
C2220 C2222 1.395 . S
C2220 C2223 1.403 . S
H2221 C2227 0.930 . S
C2222 H2208 0.930 . S
C2222 C2220 1.395 . S
C2222 C2225 1.403 . S
C2223 C2220 1.403 . S
C2223 C2224 1.524 . S
C2223 C2227 1.400 . S
C2224 H2209 0.960 . S
C2224 H2210 0.960 . S
C2224 H2211 0.960 . S
C2224 C2223 1.524 . S
C2225 C2222 1.403 . S
C2225 C2226 1.392 . S
C2225 C2229 1.495 . S
C2226 C2225 1.392 . S
C2226 C2227 1.385 . S
C2226 C2228 1.478 . S
C2227 H2221 0.930 . S
C2227 C2223 1.400 . S
C2227 C2226 1.385 . S
C2228 C2226 1.478 . S
C2228 C2230 1.381 . S
C2228 C2234 1.383 . S
C2229 C2225 1.495 . S
C2229 H2235 0.959 . S
C2229 H2236 0.961 . S
C2229 H2237 0.960 . S
C2230 C2228 1.381 . S
C2230 C2231 1.394 . S
C2230 H2238 0.930 . S
C2231 C2230 1.394 . S
C2231 C2232 1.383 . S
C2231 H2239 0.929 . S
C2232 C2231 1.383 . S
C2232 C2233 1.377 . S
C2233 H2217 0.930 . S
C2233 C2232 1.377 . S
C2233 C2234 1.379 . S
C2234 H2218 0.931 . S
C2234 C2228 1.383 . S
C2234 C2233 1.379 . S
H2235 C2229 0.959 . S
H2236 C2229 0.961 . S
H2237 C2229 0.960 . S
H2238 C2230 0.930 . S
H2239 C2231 0.929 . S
H2240 C2248 0.929 . S
H2241 C2250 0.930 . S
H2242 C2252 0.930 . S
H2243 C2255 0.929 . S
H2244 C2258 0.930 . S
H2245 C2260 0.960 . S
H2246 C2260 0.960 . S
H2247 C2260 0.960 . S
C2248 H2240 0.929 . S
C2248 C2249 1.377 . S
C2248 C2250 1.384 . S
C2249 C2248 1.377 . S
C2249 C2255 1.390 . S
C2250 H2241 0.930 . S
C2250 C2248 1.384 . S
C2250 C2251 1.372 . S
C2251 C2250 1.372 . S
C2251 C2252 1.400 . S
C2251 C2256 1.490 . S
C2252 H2242 0.930 . S
C2252 C2251 1.400 . S
C2252 C2255 1.386 . S
H2253 C2269 0.930 . S
H2254 C2270 0.931 . S
C2255 H2243 0.929 . S
C2255 C2249 1.390 . S
C2255 C2252 1.386 . S
C2256 C2251 1.490 . S
C2256 C2258 1.395 . S
C2256 C2259 1.403 . S
H2257 C2263 0.930 . S
C2258 H2244 0.930 . S
C2258 C2256 1.395 . S
C2258 C2261 1.403 . S
C2259 C2256 1.403 . S
C2259 C2260 1.524 . S
C2259 C2263 1.400 . S
C2260 H2245 0.960 . S
C2260 H2246 0.960 . S
C2260 H2247 0.960 . S
C2260 C2259 1.524 . S
C2261 C2258 1.403 . S
C2261 C2262 1.392 . S
C2261 C2265 1.495 . S
C2262 C2261 1.392 . S
C2262 C2263 1.385 . S
C2262 C2264 1.478 . S
C2263 H2257 0.930 . S
C2263 C2259 1.400 . S
C2263 C2262 1.385 . S
C2264 C2262 1.478 . S
C2264 C2266 1.381 . S
C2264 C2270 1.383 . S
C2265 C2261 1.495 . S
C2265 H2271 0.959 . S
C2265 H2272 0.961 . S
C2265 H2273 0.960 . S
C2266 C2264 1.381 . S
C2266 C2267 1.394 . S
C2266 H2274 0.930 . S
C2267 C2266 1.394 . S
C2267 C2268 1.383 . S
C2267 H2275 0.929 . S
C2268 C2267 1.383 . S
C2268 C2269 1.377 . S
C2269 H2253 0.930 . S
C2269 C2268 1.377 . S
C2269 C2270 1.379 . S
C2270 H2254 0.931 . S
C2270 C2264 1.383 . S
C2270 C2269 1.379 . S
H2271 C2265 0.959 . S
H2272 C2265 0.961 . S
H2273 C2265 0.960 . S
H2274 C2266 0.930 . S
H2275 C2267 0.929 . S
H2276 C2284 0.929 . S
H2277 C2286 0.930 . S
H2278 C2288 0.930 . S
H2279 C2291 0.929 . S
H2280 C2294 0.930 . S
H2281 C2296 0.960 . S
H2282 C2296 0.960 . S
H2283 C2296 0.960 . S
C2284 H2276 0.929 . S
C2284 C2285 1.377 . S
C2284 C2286 1.384 . S
C2285 C2284 1.377 . S
C2285 C2291 1.390 . S
C2286 H2277 0.930 . S
C2286 C2284 1.384 . S
C2286 C2287 1.372 . S
C2287 C2286 1.372 . S
C2287 C2288 1.400 . S
C2287 C2292 1.490 . S
C2288 H2278 0.930 . S
C2288 C2287 1.400 . S
C2288 C2291 1.386 . S
H2289 C2305 0.930 . S
H2290 C2306 0.931 . S
C2291 H2279 0.929 . S
C2291 C2285 1.390 . S
C2291 C2288 1.386 . S
C2292 C2287 1.490 . S
C2292 C2294 1.395 1_455 S
C2292 C2295 1.403 . S
H2293 C2299 0.930 . S
C2294 H2280 0.930 . S
C2294 C2292 1.395 1_655 S
C2294 C2297 1.403 . S
C2295 C2292 1.403 . S
C2295 C2296 1.524 . S
C2295 C2299 1.400 . S
C2296 H2281 0.960 . S
C2296 H2282 0.960 . S
C2296 H2283 0.960 . S
C2296 C2295 1.524 . S
C2297 C2294 1.403 . S
C2297 C2298 1.392 . S
C2297 C2301 1.495 . S
C2298 C2297 1.392 . S
C2298 C2299 1.385 1_655 S
C2298 C2300 1.478 . S
C2299 H2293 0.930 . S
C2299 C2295 1.400 . S
C2299 C2298 1.385 1_455 S
C2300 C2298 1.478 . S
C2300 C2302 1.381 . S
C2300 C2306 1.383 . S
C2301 C2297 1.495 . S
C2301 H2307 0.959 . S
C2301 H2308 0.961 . S
C2301 H2309 0.960 . S
C2302 C2300 1.381 . S
C2302 C2303 1.394 . S
C2302 H2310 0.930 . S
C2303 C2302 1.394 . S
C2303 C2304 1.383 . S
C2303 H2311 0.929 . S
C2304 C2303 1.383 . S
C2304 C2305 1.377 . S
C2305 H2289 0.930 . S
C2305 C2304 1.377 . S
C2305 C2306 1.379 . S
C2306 H2290 0.931 . S
C2306 C2300 1.383 . S
C2306 C2305 1.379 . S
H2307 C2301 0.959 . S
H2308 C2301 0.961 . S
H2309 C2301 0.960 . S
H2310 C2302 0.930 . S
H2311 C2303 0.929 . S
H2312 C2320 0.929 . S
H2313 C2322 0.930 . S
H2314 C2324 0.930 . S
H2315 C2327 0.929 . S
H2316 C2330 0.930 . S
H2317 C2332 0.960 . S
H2318 C2332 0.960 . S
H2319 C2332 0.960 . S
C2320 H2312 0.929 . S
C2320 C2321 1.377 . S
C2320 C2322 1.384 . S
C2321 C2320 1.377 . S
C2321 C2327 1.390 . S
C2322 H2313 0.930 . S
C2322 C2320 1.384 . S
C2322 C2323 1.372 . S
C2323 C2322 1.372 . S
C2323 C2324 1.400 . S
C2323 C2328 1.490 . S
C2324 H2314 0.930 . S
C2324 C2323 1.400 . S
C2324 C2327 1.386 . S
H2325 C2341 0.930 . S
H2326 C2342 0.931 . S
C2327 H2315 0.929 . S
C2327 C2321 1.390 . S
C2327 C2324 1.386 . S
C2328 C2323 1.490 . S
C2328 C2330 1.395 . S
C2328 C2331 1.403 . S
H2329 C2335 0.930 . S
C2330 H2316 0.930 . S
C2330 C2328 1.395 . S
C2330 C2333 1.403 . S
C2331 C2328 1.403 . S
C2331 C2332 1.524 . S
C2331 C2335 1.400 . S
C2332 H2317 0.960 . S
C2332 H2318 0.960 . S
C2332 H2319 0.960 . S
C2332 C2331 1.524 . S
C2333 C2330 1.403 . S
C2333 C2334 1.392 . S
C2333 C2337 1.495 . S
C2334 C2333 1.392 . S
C2334 C2335 1.385 . S
C2334 C2336 1.478 . S
C2335 H2329 0.930 . S
C2335 C2331 1.400 . S
C2335 C2334 1.385 . S
C2336 C2334 1.478 . S
C2336 C2338 1.381 . S
C2336 C2342 1.383 . S
C2337 C2333 1.495 . S
C2337 H2343 0.959 . S
C2337 H2344 0.961 . S
C2337 H2345 0.960 . S
C2338 C2336 1.381 . S
C2338 C2339 1.394 . S
C2338 H2346 0.930 . S
C2339 C2338 1.394 . S
C2339 C2340 1.383 . S
C2339 H2347 0.929 . S
C2340 C2339 1.383 . S
C2340 C2341 1.377 . S
C2341 H2325 0.930 . S
C2341 C2340 1.377 . S
C2341 C2342 1.379 . S
C2342 H2326 0.931 . S
C2342 C2336 1.383 . S
C2342 C2341 1.379 . S
H2343 C2337 0.959 . S
H2344 C2337 0.961 . S
H2345 C2337 0.960 . S
H2346 C2338 0.930 . S
H2347 C2339 0.929 . S
H2348 C2356 0.929 . S
H2349 C2358 0.930 . S
H2350 C2360 0.930 . S
H2351 C2363 0.929 . S
H2352 C2366 0.930 . S
H2353 C2368 0.960 . S
H2354 C2368 0.960 . S
H2355 C2368 0.960 . S
C2356 H2348 0.929 . S
C2356 C2357 1.377 . S
C2356 C2358 1.384 . S
C2357 C2356 1.377 . S
C2357 C2363 1.390 . S
C2358 H2349 0.930 . S
C2358 C2356 1.384 . S
C2358 C2359 1.372 . S
C2359 C2358 1.372 . S
C2359 C2360 1.400 . S
C2359 C2364 1.490 . S
C2360 H2350 0.930 . S
C2360 C2359 1.400 . S
C2360 C2363 1.386 . S
H2361 C2377 0.930 . S
H2362 C2378 0.931 . S
C2363 H2351 0.929 . S
C2363 C2357 1.390 . S
C2363 C2360 1.386 . S
C2364 C2359 1.490 . S
C2364 C2366 1.395 . S
C2364 C2367 1.403 . S
H2365 C2371 0.930 . S
C2366 H2352 0.930 . S
C2366 C2364 1.395 . S
C2366 C2369 1.403 . S
C2367 C2364 1.403 . S
C2367 C2368 1.524 . S
C2367 C2371 1.400 . S
C2368 H2353 0.960 . S
C2368 H2354 0.960 . S
C2368 H2355 0.960 . S
C2368 C2367 1.524 . S
C2369 C2366 1.403 . S
C2369 C2370 1.392 . S
C2369 C2373 1.495 . S
C2370 C2369 1.392 . S
C2370 C2371 1.385 . S
C2370 C2372 1.478 . S
C2371 H2365 0.930 . S
C2371 C2367 1.400 . S
C2371 C2370 1.385 . S
C2372 C2370 1.478 . S
C2372 C2374 1.381 . S
C2372 C2378 1.383 . S
C2373 C2369 1.495 . S
C2373 H2379 0.959 . S
C2373 H2380 0.961 . S
C2373 H2381 0.960 . S
C2374 C2372 1.381 . S
C2374 C2375 1.394 . S
C2374 H2382 0.930 . S
C2375 C2374 1.394 . S
C2375 C2376 1.383 . S
C2375 H2383 0.929 . S
C2376 C2375 1.383 . S
C2376 C2377 1.377 . S
C2377 H2361 0.930 . S
C2377 C2376 1.377 . S
C2377 C2378 1.379 . S
C2378 H2362 0.931 . S
C2378 C2372 1.383 . S
C2378 C2377 1.379 . S
H2379 C2373 0.959 . S
H2380 C2373 0.961 . S
H2381 C2373 0.960 . S
H2382 C2374 0.930 . S
H2383 C2375 0.929 . S
H2384 C2392 0.929 . S
H2385 C2394 0.930 . S
H2386 C2396 0.930 . S
H2387 C2399 0.929 . S
H2388 C2402 0.930 . S
H2389 C2404 0.960 . S
H2390 C2404 0.960 . S
H2391 C2404 0.960 . S
C2392 H2384 0.929 . S
C2392 C2393 1.377 . S
C2392 C2394 1.384 . S
C2393 C2392 1.377 . S
C2393 C2399 1.390 . S
C2394 H2385 0.930 . S
C2394 C2392 1.384 . S
C2394 C2395 1.372 . S
C2395 C2394 1.372 . S
C2395 C2396 1.400 . S
C2395 C2400 1.490 . S
C2396 H2386 0.930 . S
C2396 C2395 1.400 . S
C2396 C2399 1.386 . S
H2397 C2413 0.930 . S
H2398 C2414 0.931 . S
C2399 H2387 0.929 . S
C2399 C2393 1.390 . S
C2399 C2396 1.386 . S
C2400 C2395 1.490 . S
C2400 C2402 1.395 . S
C2400 C2403 1.403 . S
H2401 C2407 0.930 . S
C2402 H2388 0.930 . S
C2402 C2400 1.395 . S
C2402 C2405 1.403 . S
C2403 C2400 1.403 . S
C2403 C2404 1.524 . S
C2403 C2407 1.400 . S
C2404 H2389 0.960 . S
C2404 H2390 0.960 . S
C2404 H2391 0.960 . S
C2404 C2403 1.524 . S
C2405 C2402 1.403 . S
C2405 C2406 1.392 . S
C2405 C2409 1.495 . S
C2406 C2405 1.392 . S
C2406 C2407 1.385 . S
C2406 C2408 1.478 . S
C2407 H2401 0.930 . S
C2407 C2403 1.400 . S
C2407 C2406 1.385 . S
C2408 C2406 1.478 . S
C2408 C2410 1.381 . S
C2408 C2414 1.383 . S
C2409 C2405 1.495 . S
C2409 H2415 0.959 . S
C2409 H2416 0.961 . S
C2409 H2417 0.960 . S
C2410 C2408 1.381 . S
C2410 C2411 1.394 . S
C2410 H2418 0.930 . S
C2411 C2410 1.394 . S
C2411 C2412 1.383 . S
C2411 H2419 0.929 . S
C2412 C2411 1.383 . S
C2412 C2413 1.377 . S
C2413 H2397 0.930 . S
C2413 C2412 1.377 . S
C2413 C2414 1.379 . S
C2414 H2398 0.931 . S
C2414 C2408 1.383 . S
C2414 C2413 1.379 . S
H2415 C2409 0.959 . S
H2416 C2409 0.961 . S
H2417 C2409 0.960 . S
H2418 C2410 0.930 . S
H2419 C2411 0.929 . S
H2420 C2428 0.929 . S
H2421 C2430 0.930 . S
H2422 C2432 0.930 . S
H2423 C2435 0.929 . S
H2424 C2438 0.930 . S
H2425 C2440 0.960 . S
H2426 C2440 0.960 1_655 S
H2427 C2440 0.960 . S
C2428 H2420 0.929 . S
C2428 C2429 1.377 . S
C2428 C2430 1.384 1_554 S
C2429 C2428 1.377 . S
C2429 C2435 1.390 1_655 S
C2430 H2421 0.930 . S
C2430 C2428 1.384 1_556 S
C2430 C2431 1.372 . S
C2431 C2430 1.372 . S
C2431 C2432 1.400 1_656 S
C2431 C2436 1.490 . S
C2432 H2422 0.930 . S
C2432 C2431 1.400 1_454 S
C2432 C2435 1.386 . S
H2433 C2449 0.930 . S
H2434 C2450 0.931 . S
C2435 H2423 0.929 . S
C2435 C2429 1.390 1_455 S
C2435 C2432 1.386 . S
C2436 C2431 1.490 . S
C2436 C2438 1.395 . S
C2436 C2439 1.403 1_655 S
H2437 C2443 0.930 . S
C2438 H2424 0.930 . S
C2438 C2436 1.395 . S
C2438 C2441 1.403 . S
C2439 C2436 1.403 1_455 S
C2439 C2440 1.524 1_556 S
C2439 C2443 1.400 . S
C2440 H2425 0.960 . S
C2440 H2426 0.960 1_455 S
C2440 H2427 0.960 . S
C2440 C2439 1.524 1_554 S
C2441 C2438 1.403 . S
C2441 C2442 1.404 . S
C2441 C2445 1.495 . S
C2442 C2441 1.404 . S
C2442 C2443 1.379 1_655 S
C2442 C2444 1.472 1_655 S
C2443 H2437 0.930 . S
C2443 C2439 1.400 . S
C2443 C2442 1.379 1_455 S
C2444 C2442 1.472 1_455 S
C2444 C2446 1.381 1_455 S
C2444 C2450 1.383 . S
C2445 C2441 1.495 . S
C2445 H2451 0.959 . S
C2445 H2452 0.939 1_655 S
C2445 H2453 0.960 . S
C2446 C2444 1.381 1_655 S
C2446 C2447 1.394 . S
C2446 H2454 0.930 . S
C2447 C2446 1.394 . S
C2447 C2448 1.383 1_655 S
C2447 H2455 0.929 . S
C2448 C2447 1.383 1_455 S
C2448 C2449 1.377 . S
C2449 H2433 0.930 . S
C2449 C2448 1.377 . S
C2449 C2450 1.379 . S
C2450 H2434 0.931 . S
C2450 C2444 1.383 . S
C2450 C2449 1.379 . S
H2451 C2445 0.959 . S
H2452 C2445 0.939 1_455 S
H2453 C2445 0.960 . S
H2454 C2446 0.930 . S
H2455 C2447 0.929 . S
H2456 C2464 0.929 . S
H2457 C2466 0.930 . S
H2458 C2468 0.930 . S
H2459 C2471 0.929 . S
H2460 C2474 0.930 . S
H2461 C2476 0.960 . S
H2462 C2476 0.960 . S
H2463 C2476 0.960 . S
C2464 H2456 0.929 . S
C2464 C2465 1.377 . S
C2464 C2466 1.384 . S
C2465 C2464 1.377 . S
C2465 C2471 1.390 . S
C2466 H2457 0.930 . S
C2466 C2464 1.384 . S
C2466 C2467 1.372 . S
C2467 C2466 1.372 . S
C2467 C2468 1.400 . S
C2467 C2472 1.490 . S
C2468 H2458 0.930 . S
C2468 C2467 1.400 . S
C2468 C2471 1.386 . S
H2469 C2485 0.930 . S
H2470 C2486 0.931 . S
C2471 H2459 0.929 . S
C2471 C2465 1.390 . S
C2471 C2468 1.386 . S
C2472 C2467 1.490 . S
C2472 C2474 1.395 . S
C2472 C2475 1.403 . S
H2473 C2479 0.930 . S
C2474 H2460 0.930 . S
C2474 C2472 1.395 . S
C2474 C2477 1.403 . S
C2475 C2472 1.403 . S
C2475 C2476 1.524 . S
C2475 C2479 1.400 . S
C2476 H2461 0.960 . S
C2476 H2462 0.960 . S
C2476 H2463 0.960 . S
C2476 C2475 1.524 . S
C2477 C2474 1.403 . S
C2477 C2478 1.392 . S
C2477 C2481 1.495 . S
C2478 C2477 1.392 . S
C2478 C2479 1.385 . S
C2478 C2480 1.478 . S
C2479 H2473 0.930 . S
C2479 C2475 1.400 . S
C2479 C2478 1.385 . S
C2480 C2478 1.478 . S
C2480 C2482 1.381 . S
C2480 C2486 1.383 . S
C2481 C2477 1.495 . S
C2481 H2487 0.959 . S
C2481 H2488 0.961 . S
C2481 H2489 0.960 . S
C2482 C2480 1.381 . S
C2482 C2483 1.394 . S
C2482 H2490 0.930 . S
C2483 C2482 1.394 . S
C2483 C2484 1.383 . S
C2483 H2491 0.929 . S
C2484 C2483 1.383 . S
C2484 C2485 1.377 . S
C2485 H2469 0.930 . S
C2485 C2484 1.377 . S
C2485 C2486 1.379 . S
C2486 H2470 0.931 . S
C2486 C2480 1.383 . S
C2486 C2485 1.379 . S
H2487 C2481 0.959 . S
H2488 C2481 0.961 . S
H2489 C2481 0.960 . S
H2490 C2482 0.930 . S
H2491 C2483 0.929 . S
H2492 C2500 0.929 . S
H2493 C2502 0.930 1_556 S
H2494 C2504 0.930 . S
H2495 C2507 0.929 . S
H2496 C2510 0.930 . S
H2497 C2512 0.960 . S
H2498 C2512 0.960 . S
H2499 C2512 0.960 . S
C2500 H2492 0.929 . S
C2500 C2501 1.377 . S
C2500 C2502 1.384 . S
C2501 C2500 1.377 . S
C2501 C2507 1.390 . S
C2502 H2493 0.930 1_554 S
C2502 C2500 1.384 . S
C2502 C2503 1.372 . S
C2503 C2502 1.372 . S
C2503 C2504 1.400 . S
C2503 C2508 1.490 1_554 S
C2504 H2494 0.930 . S
C2504 C2503 1.400 . S
C2504 C2507 1.386 . S
H2505 C2521 0.976 . S
H2506 C2522 0.931 . S
C2507 H2495 0.929 . S
C2507 C2501 1.390 . S
C2507 C2504 1.386 . S
C2508 C2503 1.490 1_556 S
C2508 C2510 1.395 . S
C2508 C2511 1.403 . S
H2509 C2515 0.930 . S
C2510 H2496 0.930 . S
C2510 C2508 1.395 . S
C2510 C2513 1.403 . S
C2511 C2508 1.403 . S
C2511 C2512 1.524 1_556 S
C2511 C2515 1.400 . S
C2512 H2497 0.960 . S
C2512 H2498 0.960 . S
C2512 H2499 0.960 . S
C2512 C2511 1.524 1_554 S
C2513 C2510 1.403 . S
C2513 C2514 1.392 . S
C2513 C2517 1.495 . S
C2514 C2513 1.392 . S
C2514 C2515 1.385 . S
C2514 C2516 1.478 . S
C2515 H2509 0.930 . S
C2515 C2511 1.400 . S
C2515 C2514 1.385 . S
C2516 C2514 1.478 . S
C2516 C2518 1.381 . S
C2516 C2522 1.383 . S
C2517 C2513 1.495 . S
C2517 H2523 0.959 . S
C2517 H2524 0.961 . S
C2517 H2525 0.960 . S
C2518 C2516 1.381 . S
C2518 C2519 1.394 . S
C2518 H2526 0.930 . S
C2519 C2518 1.394 . S
C2519 C2520 1.383 . S
C2519 H2527 0.929 . S
C2520 C2519 1.383 . S
C2520 C2521 1.377 . S
C2521 H2505 0.976 . S
C2521 C2520 1.377 . S
C2521 C2522 1.379 . S
C2522 H2506 0.931 . S
C2522 C2516 1.383 . S
C2522 C2521 1.379 . S
H2523 C2517 0.959 . S
H2524 C2517 0.961 . S
H2525 C2517 0.960 . S
H2526 C2518 0.930 . S
H2527 C2519 0.929 . S
H2528 C2536 0.929 . S
H2529 C2538 0.930 . S
H2530 C2540 0.930 . S
H2531 C2543 0.929 . S
H2532 C2546 0.930 . S
H2533 C2548 0.960 . S
H2534 C2548 0.960 . S
H2535 C2548 0.960 . S
C2536 H2528 0.929 . S
C2536 C2537 1.377 . S
C2536 C2538 1.384 . S
C2537 C2536 1.377 . S
C2537 C2543 1.390 . S
C2538 H2529 0.930 . S
C2538 C2536 1.384 . S
C2538 C2539 1.372 . S
C2539 C2538 1.372 . S
C2539 C2540 1.400 . S
C2539 C2544 1.490 . S
C2540 H2530 0.930 . S
C2540 C2539 1.400 . S
C2540 C2543 1.386 . S
H2541 C2557 0.930 . S
H2542 C2558 0.931 . S
C2543 H2531 0.929 . S
C2543 C2537 1.390 . S
C2543 C2540 1.386 . S
C2544 C2539 1.490 . S
C2544 C2546 1.395 . S
C2544 C2547 1.403 . S
H2545 C2551 0.930 . S
C2546 H2532 0.930 . S
C2546 C2544 1.395 . S
C2546 C2549 1.403 . S
C2547 C2544 1.403 . S
C2547 C2548 1.524 . S
C2547 C2551 1.400 . S
C2548 H2533 0.960 . S
C2548 H2534 0.960 . S
C2548 H2535 0.960 . S
C2548 C2547 1.524 . S
C2549 C2546 1.403 . S
C2549 C2550 1.392 . S
C2549 C2553 1.495 . S
C2550 C2549 1.392 . S
C2550 C2551 1.385 . S
C2550 C2552 1.478 . S
C2551 H2545 0.930 . S
C2551 C2547 1.400 . S
C2551 C2550 1.385 . S
C2552 C2550 1.478 . S
C2552 C2554 1.381 . S
C2552 C2558 1.383 . S
C2553 C2549 1.495 . S
C2553 H2559 0.959 . S
C2553 H2560 0.961 . S
C2553 H2561 0.960 . S
C2554 C2552 1.381 . S
C2554 C2555 1.394 . S
C2554 H2562 0.930 . S
C2555 C2554 1.394 . S
C2555 C2556 1.383 . S
C2555 H2563 0.929 . S
C2556 C2555 1.383 . S
C2556 C2557 1.377 . S
C2557 H2541 0.930 . S
C2557 C2556 1.377 . S
C2557 C2558 1.379 . S
C2558 H2542 0.931 . S
C2558 C2552 1.383 . S
C2558 C2557 1.379 . S
H2559 C2553 0.959 . S
H2560 C2553 0.961 . S
H2561 C2553 0.960 . S
H2562 C2554 0.930 . S
H2563 C2555 0.929 . S
H2564 C2572 0.929 . S
H2565 C2574 0.930 . S
H2566 C2576 0.930 . S
H2567 C2579 0.929 . S
H2568 C2582 0.930 . S
H2569 C2584 0.960 . S
H2570 C2584 0.960 . S
H2571 C2584 0.960 . S
C2572 H2564 0.929 . S
C2572 C2573 1.377 . S
C2572 C2574 1.384 . S
C2573 C2572 1.377 . S
C2573 C2579 1.390 . S
C2574 H2565 0.930 . S
C2574 C2572 1.384 . S
C2574 C2575 1.372 . S
C2575 C2574 1.372 . S
C2575 C2576 1.400 . S
C2575 C2580 1.490 . S
C2576 H2566 0.930 . S
C2576 C2575 1.400 . S
C2576 C2579 1.386 . S
H2577 C2593 0.930 . S
H2578 C2594 0.931 . S
C2579 H2567 0.929 . S
C2579 C2573 1.390 . S
C2579 C2576 1.386 . S
C2580 C2575 1.490 . S
C2580 C2582 1.395 . S
C2580 C2583 1.403 . S
H2581 C2587 0.930 . S
C2582 H2568 0.930 . S
C2582 C2580 1.395 . S
C2582 C2585 1.403 . S
C2583 C2580 1.403 . S
C2583 C2584 1.524 . S
C2583 C2587 1.400 . S
C2584 H2569 0.960 . S
C2584 H2570 0.960 . S
C2584 H2571 0.960 . S
C2584 C2583 1.524 . S
C2585 C2582 1.403 . S
C2585 C2586 1.392 . S
C2585 C2589 1.495 . S
C2586 C2585 1.392 . S
C2586 C2587 1.385 . S
C2586 C2588 1.478 . S
C2587 H2581 0.930 . S
C2587 C2583 1.400 . S
C2587 C2586 1.385 . S
C2588 C2586 1.478 . S
C2588 C2590 1.381 . S
C2588 C2594 1.383 . S
C2589 C2585 1.495 . S
C2589 H2595 0.959 . S
C2589 H2596 0.961 . S
C2589 H2597 0.960 . S
C2590 C2588 1.381 . S
C2590 C2591 1.394 . S
C2590 H2598 0.930 . S
C2591 C2590 1.394 . S
C2591 C2592 1.383 . S
C2591 H2599 0.929 . S
C2592 C2591 1.383 . S
C2592 C2593 1.377 . S
C2593 H2577 0.930 . S
C2593 C2592 1.377 . S
C2593 C2594 1.379 . S
C2594 H2578 0.931 . S
C2594 C2588 1.383 . S
C2594 C2593 1.379 . S
H2595 C2589 0.959 . S
H2596 C2589 0.961 . S
H2597 C2589 0.960 . S
H2598 C2590 0.930 . S
H2599 C2591 0.929 . S
H2600 C2608 0.929 . S
H2601 C2610 0.930 . S
H2602 C2612 0.930 . S
H2603 C2615 0.929 . S
H2604 C2618 0.930 . S
H2605 C2620 0.960 . S
H2606 C2620 0.960 . S
H2607 C2620 0.960 . S
C2608 H2600 0.929 . S
C2608 C2609 1.377 . S
C2608 C2610 1.384 . S
C2609 C2608 1.377 . S
C2609 C2615 1.390 . S
C2610 H2601 0.930 . S
C2610 C2608 1.384 . S
C2610 C2611 1.372 . S
C2611 C2610 1.372 . S
C2611 C2612 1.400 . S
C2611 C2616 1.490 . S
C2612 H2602 0.930 . S
C2612 C2611 1.400 . S
C2612 C2615 1.386 . S
H2613 C2629 0.930 . S
H2614 C2630 0.931 . S
C2615 H2603 0.929 . S
C2615 C2609 1.390 . S
C2615 C2612 1.386 . S
C2616 C2611 1.490 . S
C2616 C2618 1.395 . S
C2616 C2619 1.403 . S
H2617 C2623 0.930 . S
C2618 H2604 0.930 . S
C2618 C2616 1.395 . S
C2618 C2621 1.403 . S
C2619 C2616 1.403 . S
C2619 C2620 1.524 . S
C2619 C2623 1.400 . S
C2620 H2605 0.960 . S
C2620 H2606 0.960 . S
C2620 H2607 0.960 . S
C2620 C2619 1.524 . S
C2621 C2618 1.403 . S
C2621 C2622 1.392 . S
C2621 C2625 1.495 . S
C2622 C2621 1.392 . S
C2622 C2623 1.385 . S
C2622 C2624 1.478 . S
C2623 H2617 0.930 . S
C2623 C2619 1.400 . S
C2623 C2622 1.385 . S
C2624 C2622 1.478 . S
C2624 C2626 1.381 . S
C2624 C2630 1.383 . S
C2625 C2621 1.495 . S
C2625 H2631 0.959 . S
C2625 H2632 0.961 . S
C2625 H2633 0.960 . S
C2626 C2624 1.381 . S
C2626 C2627 1.394 . S
C2626 H2634 0.930 . S
C2627 C2626 1.394 . S
C2627 C2628 1.383 . S
C2627 H2635 0.929 . S
C2628 C2627 1.383 . S
C2628 C2629 1.377 . S
C2629 H2613 0.930 . S
C2629 C2628 1.377 . S
C2629 C2630 1.379 . S
C2630 H2614 0.931 . S
C2630 C2624 1.383 . S
C2630 C2629 1.379 . S
H2631 C2625 0.959 . S
H2632 C2625 0.961 . S
H2633 C2625 0.960 . S
H2634 C2626 0.930 . S
H2635 C2627 0.929 . S
H2636 C2644 0.929 . S
H2637 C2646 0.930 . S
H2638 C2648 0.930 . S
H2639 C2651 0.929 . S
H2640 C2654 0.930 . S
H2641 C2656 0.960 . S
H2642 C2656 0.960 . S
H2643 C2656 0.960 . S
C2644 H2636 0.929 . S
C2644 C2645 1.377 1_554 S
C2644 C2646 1.384 . S
C2645 C2644 1.377 1_556 S
C2645 C2651 1.390 . S
C2646 H2637 0.930 . S
C2646 C2644 1.384 . S
C2646 C2647 1.372 . S
C2647 C2646 1.372 . S
C2647 C2648 1.400 . S
C2647 C2652 1.490 . S
C2648 H2638 0.930 . S
C2648 C2647 1.400 . S
C2648 C2651 1.386 1_554 S
H2649 C2665 0.930 . S
H2650 C2666 0.931 . S
C2651 H2639 0.929 . S
C2651 C2645 1.390 . S
C2651 C2648 1.386 1_556 S
C2652 C2647 1.490 . S
C2652 C2654 1.395 . S
C2652 C2655 1.403 . S
H2653 C2659 0.930 . S
C2654 H2640 0.930 . S
C2654 C2652 1.395 . S
C2654 C2657 1.403 . S
C2655 C2652 1.403 . S
C2655 C2656 1.524 . S
C2655 C2659 1.400 . S
C2656 H2641 0.960 . S
C2656 H2642 0.960 . S
C2656 H2643 0.960 . S
C2656 C2655 1.524 . S
C2657 C2654 1.403 . S
C2657 C2658 1.392 . S
C2657 C2661 1.495 . S
C2658 C2657 1.392 . S
C2658 C2659 1.385 . S
C2658 C2660 1.478 . S
C2659 H2653 0.930 . S
C2659 C2655 1.400 . S
C2659 C2658 1.385 . S
C2660 C2658 1.478 . S
C2660 C2662 1.381 . S
C2660 C2666 1.383 . S
C2661 C2657 1.495 . S
C2661 H2667 0.959 . S
C2661 H2668 0.961 . S
C2661 H2669 0.960 . S
C2662 C2660 1.381 . S
C2662 C2663 1.394 . S
C2662 H2670 0.930 . S
C2663 C2662 1.394 . S
C2663 C2664 1.383 . S
C2663 H2671 0.929 . S
C2664 C2663 1.383 . S
C2664 C2665 1.377 . S
C2665 H2649 0.930 . S
C2665 C2664 1.377 . S
C2665 C2666 1.379 . S
C2666 H2650 0.931 . S
C2666 C2660 1.383 . S
C2666 C2665 1.379 . S
H2667 C2661 0.959 . S
H2668 C2661 0.961 . S
H2669 C2661 0.960 . S
H2670 C2662 0.930 . S
H2671 C2663 0.929 . S
H2672 C2680 0.929 . S
H2673 C2682 0.930 . S
H2674 C2684 0.930 . S
H2675 C2687 0.929 . S
H2676 C2690 0.930 . S
H2677 C2692 0.960 . S
H2678 C2692 0.960 . S
H2679 C2692 0.960 . S
C2680 H2672 0.929 . S
C2680 C2681 1.377 . S
C2680 C2682 1.384 . S
C2681 C2680 1.377 . S
C2681 C2687 1.390 . S
C2682 H2673 0.930 . S
C2682 C2680 1.384 . S
C2682 C2683 1.372 . S
C2683 C2682 1.372 . S
C2683 C2684 1.400 . S
C2683 C2688 1.490 . S
C2684 H2674 0.930 . S
C2684 C2683 1.400 . S
C2684 C2687 1.386 . S
H2685 C2701 0.930 . S
H2686 C2702 0.931 . S
C2687 H2675 0.929 . S
C2687 C2681 1.390 . S
C2687 C2684 1.386 . S
C2688 C2683 1.490 . S
C2688 C2690 1.395 . S
C2688 C2691 1.403 . S
H2689 C2695 0.930 . S
C2690 H2676 0.930 . S
C2690 C2688 1.395 . S
C2690 C2693 1.403 . S
C2691 C2688 1.403 . S
C2691 C2692 1.524 . S
C2691 C2695 1.400 . S
C2692 H2677 0.960 . S
C2692 H2678 0.960 . S
C2692 H2679 0.960 . S
C2692 C2691 1.524 . S
C2693 C2690 1.403 . S
C2693 C2694 1.392 . S
C2693 C2697 1.495 . S
C2694 C2693 1.392 . S
C2694 C2695 1.385 . S
C2694 C2696 1.478 . S
C2695 H2689 0.930 . S
C2695 C2691 1.400 . S
C2695 C2694 1.385 . S
C2696 C2694 1.478 . S
C2696 C2698 1.381 . S
C2696 C2702 1.383 . S
C2697 C2693 1.495 . S
C2697 H2703 0.959 . S
C2697 H2704 0.961 . S
C2697 H2705 0.960 . S
C2698 C2696 1.381 . S
C2698 C2699 1.394 . S
C2698 H2706 0.930 . S
C2699 C2698 1.394 . S
C2699 C2700 1.383 . S
C2699 H2707 0.929 . S
C2700 C2699 1.383 . S
C2700 C2701 1.377 . S
C2701 H2685 0.930 . S
C2701 C2700 1.377 . S
C2701 C2702 1.379 . S
C2702 H2686 0.931 . S
C2702 C2696 1.383 . S
C2702 C2701 1.379 . S
H2703 C2697 0.959 . S
H2704 C2697 0.961 . S
H2705 C2697 0.960 . S
H2706 C2698 0.930 . S
H2707 C2699 0.929 . S
H2708 C2716 0.929 . S
H2709 C2718 0.930 . S
H2710 C2720 0.930 . S
H2711 C2723 0.929 . S
H2712 C2726 0.930 . S
H2713 C2728 0.960 . S
H2714 C2728 0.960 . S
H2715 C2728 0.960 . S
C2716 H2708 0.929 . S
C2716 C2717 1.377 . S
C2716 C2718 1.384 . S
C2717 C2716 1.377 . S
C2717 C2723 1.390 . S
C2718 H2709 0.930 . S
C2718 C2716 1.384 . S
C2718 C2719 1.372 . S
C2719 C2718 1.372 . S
C2719 C2720 1.400 . S
C2719 C2724 1.490 . S
C2720 H2710 0.930 . S
C2720 C2719 1.400 . S
C2720 C2723 1.386 . S
H2721 C2737 0.930 . S
H2722 C2738 0.931 . S
C2723 H2711 0.929 . S
C2723 C2717 1.390 . S
C2723 C2720 1.386 . S
C2724 C2719 1.490 . S
C2724 C2726 1.395 . S
C2724 C2727 1.403 . S
H2725 C2731 0.930 . S
C2726 H2712 0.930 . S
C2726 C2724 1.395 . S
C2726 C2729 1.403 . S
C2727 C2724 1.403 . S
C2727 C2728 1.524 . S
C2727 C2731 1.400 . S
C2728 H2713 0.960 . S
C2728 H2714 0.960 . S
C2728 H2715 0.960 . S
C2728 C2727 1.524 . S
C2729 C2726 1.403 . S
C2729 C2730 1.392 . S
C2729 C2733 1.495 . S
C2730 C2729 1.392 . S
C2730 C2731 1.385 . S
C2730 C2732 1.478 . S
C2731 H2725 0.930 . S
C2731 C2727 1.400 . S
C2731 C2730 1.385 . S
C2732 C2730 1.478 . S
C2732 C2734 1.381 . S
C2732 C2738 1.383 . S
C2733 C2729 1.495 . S
C2733 H2739 0.959 . S
C2733 H2740 0.961 . S
C2733 H2741 0.960 . S
C2734 C2732 1.381 . S
C2734 C2735 1.394 . S
C2734 H2742 0.930 . S
C2735 C2734 1.394 . S
C2735 C2736 1.383 . S
C2735 H2743 0.929 . S
C2736 C2735 1.383 . S
C2736 C2737 1.377 . S
C2737 H2721 0.930 . S
C2737 C2736 1.377 . S
C2737 C2738 1.379 . S
C2738 H2722 0.931 . S
C2738 C2732 1.383 . S
C2738 C2737 1.379 . S
H2739 C2733 0.959 . S
H2740 C2733 0.961 . S
H2741 C2733 0.960 . S
H2742 C2734 0.930 . S
H2743 C2735 0.929 . S
H2744 C2752 0.929 . S
H2745 C2754 0.930 . S
H2746 C2756 0.930 . S
H2747 C2759 0.929 . S
H2748 C2762 0.930 . S
H2749 C2764 0.960 . S
H2750 C2764 0.960 . S
H2751 C2764 0.960 . S
C2752 H2744 0.929 . S
C2752 C2753 1.377 . S
C2752 C2754 1.384 . S
C2753 C2752 1.377 . S
C2753 C2759 1.390 . S
C2754 H2745 0.930 . S
C2754 C2752 1.384 . S
C2754 C2755 1.372 . S
C2755 C2754 1.372 . S
C2755 C2756 1.400 . S
C2755 C2760 1.490 . S
C2756 H2746 0.930 . S
C2756 C2755 1.400 . S
C2756 C2759 1.386 . S
H2757 C2773 0.930 . S
H2758 C2774 0.931 . S
C2759 H2747 0.929 . S
C2759 C2753 1.390 . S
C2759 C2756 1.386 . S
C2760 C2755 1.490 . S
C2760 C2762 1.395 . S
C2760 C2763 1.403 . S
H2761 C2767 0.930 . S
C2762 H2748 0.930 . S
C2762 C2760 1.395 . S
C2762 C2765 1.403 . S
C2763 C2760 1.403 . S
C2763 C2764 1.524 . S
C2763 C2767 1.400 . S
C2764 H2749 0.960 . S
C2764 H2750 0.960 . S
C2764 H2751 0.960 . S
C2764 C2763 1.524 . S
C2765 C2762 1.403 . S
C2765 C2766 1.392 . S
C2765 C2769 1.495 . S
C2766 C2765 1.392 . S
C2766 C2767 1.385 . S
C2766 C2768 1.478 . S
C2767 H2761 0.930 . S
C2767 C2763 1.400 . S
C2767 C2766 1.385 . S
C2768 C2766 1.478 . S
C2768 C2770 1.381 . S
C2768 C2774 1.383 . S
C2769 C2765 1.495 . S
C2769 H2775 0.959 . S
C2769 H2776 0.961 . S
C2769 H2777 0.960 . S
C2770 C2768 1.381 . S
C2770 C2771 1.394 . S
C2770 H2778 0.930 . S
C2771 C2770 1.394 . S
C2771 C2772 1.383 . S
C2771 H2779 0.929 . S
C2772 C2771 1.383 . S
C2772 C2773 1.377 . S
C2773 H2757 0.930 . S
C2773 C2772 1.377 . S
C2773 C2774 1.379 . S
C2774 H2758 0.931 . S
C2774 C2768 1.383 . S
C2774 C2773 1.379 . S
H2775 C2769 0.959 . S
H2776 C2769 0.961 . S
H2777 C2769 0.960 . S
H2778 C2770 0.930 . S
H2779 C2771 0.929 . S
H2780 C2788 0.929 . S
H2781 C2790 0.930 . S
H2782 C2792 0.930 . S
H2783 C2795 0.929 . S
H2784 C2798 0.930 . S
H2785 C2800 0.960 . S
H2786 C2800 0.960 . S
H2787 C2800 0.960 . S
C2788 H2780 0.929 . S
C2788 C2789 1.377 . S
C2788 C2790 1.384 . S
C2789 C2788 1.377 . S
C2789 C2795 1.390 . S
C2790 H2781 0.930 . S
C2790 C2788 1.384 . S
C2790 C2791 1.372 . S
C2791 C2790 1.372 . S
C2791 C2792 1.400 . S
C2791 C2796 1.490 . S
C2792 H2782 0.930 . S
C2792 C2791 1.400 . S
C2792 C2795 1.386 . S
H2793 C2809 0.930 . S
H2794 C2810 0.931 . S
C2795 H2783 0.929 . S
C2795 C2789 1.390 . S
C2795 C2792 1.386 . S
C2796 C2791 1.490 . S
C2796 C2798 1.395 . S
C2796 C2799 1.403 . S
H2797 C2803 0.930 . S
C2798 H2784 0.930 . S
C2798 C2796 1.395 . S
C2798 C2801 1.403 . S
C2799 C2796 1.403 . S
C2799 C2800 1.524 . S
C2799 C2803 1.400 . S
C2800 H2785 0.960 . S
C2800 H2786 0.960 . S
C2800 H2787 0.960 . S
C2800 C2799 1.524 . S
C2801 C2798 1.403 . S
C2801 C2802 1.392 . S
C2801 C2805 1.495 . S
C2802 C2801 1.392 . S
C2802 C2803 1.385 . S
C2802 C2804 1.478 . S
C2803 H2797 0.930 . S
C2803 C2799 1.400 . S
C2803 C2802 1.385 . S
C2804 C2802 1.478 . S
C2804 C2806 1.381 . S
C2804 C2810 1.383 . S
C2805 C2801 1.495 . S
C2805 H2811 0.959 . S
C2805 H2812 0.961 . S
C2805 H2813 0.960 . S
C2806 C2804 1.381 . S
C2806 C2807 1.394 . S
C2806 H2814 0.930 . S
C2807 C2806 1.394 . S
C2807 C2808 1.383 . S
C2807 H2815 0.929 . S
C2808 C2807 1.383 . S
C2808 C2809 1.377 . S
C2809 H2793 0.930 . S
C2809 C2808 1.377 . S
C2809 C2810 1.379 . S
C2810 H2794 0.931 . S
C2810 C2804 1.383 . S
C2810 C2809 1.379 . S
H2811 C2805 0.959 . S
H2812 C2805 0.961 . S
H2813 C2805 0.960 . S
H2814 C2806 0.930 . S
H2815 C2807 0.929 . S
H2816 C2824 0.929 . S
H2817 C2826 0.930 . S
H2818 C2828 0.930 . S
H2819 C2831 0.929 . S
H2820 C2834 0.930 . S
H2821 C2836 0.960 . S
H2822 C2836 0.960 . S
H2823 C2836 0.960 . S
C2824 H2816 0.929 . S
C2824 C2825 1.377 1_554 S
C2824 C2826 1.384 . S
C2825 C2824 1.377 1_556 S
C2825 C2831 1.390 . S
C2826 H2817 0.930 . S
C2826 C2824 1.384 . S
C2826 C2827 1.372 1_554 S
C2827 C2826 1.372 1_556 S
C2827 C2828 1.400 . S
C2827 C2832 1.490 . S
C2828 H2818 0.930 . S
C2828 C2827 1.400 . S
C2828 C2831 1.386 . S
H2829 C2845 0.930 . S
H2830 C2846 0.931 . S
C2831 H2819 0.929 . S
C2831 C2825 1.390 . S
C2831 C2828 1.386 . S
C2832 C2827 1.490 . S
C2832 C2834 1.395 1_556 S
C2832 C2835 1.403 . S
H2833 C2839 0.930 . S
C2834 H2820 0.930 . S
C2834 C2832 1.395 1_554 S
C2834 C2837 1.403 . S
C2835 C2832 1.403 . S
C2835 C2836 1.524 . S
C2835 C2839 1.400 . S
C2836 H2821 0.960 . S
C2836 H2822 0.960 . S
C2836 H2823 0.960 . S
C2836 C2835 1.524 . S
C2837 C2834 1.403 . S
C2837 C2838 1.392 1_554 S
C2837 C2841 1.495 . S
C2838 C2837 1.392 1_556 S
C2838 C2839 1.385 . S
C2838 C2840 1.478 . S
C2839 H2833 0.930 . S
C2839 C2835 1.400 . S
C2839 C2838 1.385 . S
C2840 C2838 1.478 . S
C2840 C2842 1.381 1_556 S
C2840 C2846 1.383 . S
C2841 C2837 1.495 . S
C2841 H2847 0.959 . S
C2841 H2848 0.961 . S
C2841 H2849 0.960 . S
C2842 C2840 1.381 1_554 S
C2842 C2843 1.394 . S
C2842 H2850 0.930 . S
C2843 C2842 1.394 . S
C2843 C2844 1.383 1_554 S
C2843 H2851 0.929 . S
C2844 C2843 1.383 1_556 S
C2844 C2845 1.377 . S
C2845 H2829 0.930 . S
C2845 C2844 1.377 . S
C2845 C2846 1.379 . S
C2846 H2830 0.931 . S
C2846 C2840 1.383 . S
C2846 C2845 1.379 . S
H2847 C2841 0.959 . S
H2848 C2841 0.961 . S
H2849 C2841 0.960 . S
H2850 C2842 0.930 . S
H2851 C2843 0.929 . S
H2852 C2860 0.929 . S
H2853 C2862 0.930 . S
H2854 C2864 0.930 . S
H2855 C2867 0.929 . S
H2856 C2870 0.930 . S
H2857 C2872 0.960 . S
H2858 C2872 0.960 . S
H2859 C2872 0.960 . S
C2860 H2852 0.929 . S
C2860 C2861 1.377 . S
C2860 C2862 1.384 . S
C2861 C2860 1.377 . S
C2861 C2867 1.390 . S
C2862 H2853 0.930 . S
C2862 C2860 1.384 . S
C2862 C2863 1.372 . S
C2863 C2862 1.372 . S
C2863 C2864 1.400 . S
C2863 C2868 1.490 . S
C2864 H2854 0.930 . S
C2864 C2863 1.400 . S
C2864 C2867 1.386 . S
H2865 C2881 0.930 . S
H2866 C2882 0.931 . S
C2867 H2855 0.929 . S
C2867 C2861 1.390 . S
C2867 C2864 1.386 . S
C2868 C2863 1.490 . S
C2868 C2870 1.395 . S
C2868 C2871 1.403 . S
H2869 C2875 0.930 . S
C2870 H2856 0.930 . S
C2870 C2868 1.395 . S
C2870 C2873 1.403 . S
C2871 C2868 1.403 . S
C2871 C2872 1.524 . S
C2871 C2875 1.400 . S
C2872 H2857 0.960 . S
C2872 H2858 0.960 . S
C2872 H2859 0.960 . S
C2872 C2871 1.524 . S
C2873 C2870 1.403 . S
C2873 C2874 1.392 . S
C2873 C2877 1.495 . S
C2874 C2873 1.392 . S
C2874 C2875 1.385 . S
C2874 C2876 1.478 . S
C2875 H2869 0.930 . S
C2875 C2871 1.400 . S
C2875 C2874 1.385 . S
C2876 C2874 1.478 . S
C2876 C2878 1.381 . S
C2876 C2882 1.383 . S
C2877 C2873 1.495 . S
C2877 H2883 0.959 . S
C2877 H2884 0.961 . S
C2877 H2885 0.960 . S
C2878 C2876 1.381 . S
C2878 C2879 1.394 . S
C2878 H2886 0.930 . S
C2879 C2878 1.394 . S
C2879 C2880 1.383 . S
C2879 H2887 0.929 . S
C2880 C2879 1.383 . S
C2880 C2881 1.377 . S
C2881 H2865 0.930 . S
C2881 C2880 1.377 . S
C2881 C2882 1.379 . S
C2882 H2866 0.931 . S
C2882 C2876 1.383 . S
C2882 C2881 1.379 . S
H2883 C2877 0.959 . S
H2884 C2877 0.961 . S
H2885 C2877 0.960 . S
H2886 C2878 0.930 . S
H2887 C2879 0.929 . S
H2888 C2896 0.929 . S
H2889 C2898 0.930 . S
H2890 C2900 0.930 . S
H2891 C2903 0.929 . S
H2892 C2906 0.930 . S
H2893 C2908 0.960 . S
H2894 C2908 0.960 1_556 S
H2895 C2908 0.960 . S
C2896 H2888 0.929 . S
C2896 C2897 1.377 . S
C2896 C2898 1.384 . S
C2897 C2896 1.377 . S
C2897 C2903 1.390 . S
C2898 H2889 0.930 . S
C2898 C2896 1.384 . S
C2898 C2899 1.372 . S
C2899 C2898 1.372 . S
C2899 C2900 1.400 . S
C2899 C2904 1.490 . S
C2900 H2890 0.930 . S
C2900 C2899 1.400 . S
C2900 C2903 1.386 . S
H2901 C2917 0.930 . S
H2902 C2918 0.931 . S
C2903 H2891 0.929 . S
C2903 C2897 1.390 . S
C2903 C2900 1.386 . S
C2904 C2899 1.490 . S
C2904 C2906 1.395 . S
C2904 C2907 1.403 . S
H2905 C2911 0.930 . S
C2906 H2892 0.930 . S
C2906 C2904 1.395 . S
C2906 C2909 1.403 . S
C2907 C2904 1.403 . S
C2907 C2908 1.524 . S
C2907 C2911 1.400 . S
C2908 H2893 0.960 . S
C2908 H2894 0.960 1_554 S
C2908 H2895 0.960 . S
C2908 C2907 1.524 . S
C2909 C2906 1.403 . S
C2909 C2910 1.392 . S
C2909 C2913 1.495 . S
C2910 C2909 1.392 . S
C2910 C2911 1.385 . S
C2910 C2912 1.478 . S
C2911 H2905 0.930 . S
C2911 C2907 1.400 . S
C2911 C2910 1.385 . S
C2912 C2910 1.478 . S
C2912 C2914 1.381 . S
C2912 C2918 1.383 . S
C2913 C2909 1.495 . S
C2913 H2919 0.959 . S
C2913 H2920 0.961 . S
C2913 H2921 0.960 . S
C2914 C2912 1.381 . S
C2914 C2915 1.394 1_554 S
C2914 H2922 0.930 1_554 S
C2915 C2914 1.394 1_556 S
C2915 C2916 1.383 1_556 S
C2915 H2923 0.929 . S
C2916 C2915 1.383 1_554 S
C2916 C2917 1.377 . S
C2917 H2901 0.930 . S
C2917 C2916 1.377 . S
C2917 C2918 1.379 . S
C2918 H2902 0.931 . S
C2918 C2912 1.383 . S
C2918 C2917 1.379 . S
H2919 C2913 0.959 . S
H2920 C2913 0.961 . S
H2921 C2913 0.960 . S
H2922 C2914 0.930 1_556 S
H2923 C2915 0.929 . S
H2924 C2932 0.929 . S
H2925 C2934 0.930 . S
H2926 C2936 0.933 1_565 S
H2927 C2939 0.929 . S
H2928 C2942 0.930 . S
H2929 C2944 0.960 . S
H2930 C2944 0.960 . S
H2931 C2944 0.960 . S
C2932 H2924 0.929 . S
C2932 C2933 1.377 . S
C2932 C2934 1.384 . S
C2933 C2932 1.377 . S
C2933 C2939 1.390 . S
C2934 H2925 0.930 . S
C2934 C2932 1.384 . S
C2934 C2935 1.372 . S
C2935 C2934 1.372 . S
C2935 C2936 1.400 . S
C2935 C2940 1.490 1_545 S
C2936 H2926 0.933 1_545 S
C2936 C2935 1.400 . S
C2936 C2939 1.386 . S
H2937 C2953 0.930 . S
H2938 C2954 0.931 . S
C2939 H2927 0.929 . S
C2939 C2933 1.390 . S
C2939 C2936 1.386 . S
C2940 C2935 1.490 1_565 S
C2940 C2942 1.395 . S
C2940 C2943 1.403 . S
H2941 C2947 0.930 . S
C2942 H2928 0.930 . S
C2942 C2940 1.395 . S
C2942 C2945 1.403 . S
C2943 C2940 1.403 . S
C2943 C2944 1.524 1_565 S
C2943 C2947 1.400 . S
C2944 H2929 0.960 . S
C2944 H2930 0.960 . S
C2944 H2931 0.960 . S
C2944 C2943 1.524 1_545 S
C2945 C2942 1.403 . S
C2945 C2946 1.392 . S
C2945 C2949 1.495 . S
C2946 C2945 1.392 . S
C2946 C2947 1.385 . S
C2946 C2948 1.478 . S
C2947 H2941 0.930 . S
C2947 C2943 1.400 . S
C2947 C2946 1.385 . S
C2948 C2946 1.478 . S
C2948 C2950 1.381 . S
C2948 C2954 1.383 . S
C2949 C2945 1.495 . S
C2949 H2955 0.959 . S
C2949 H2956 0.961 . S
C2949 H2957 0.960 . S
C2950 C2948 1.381 . S
C2950 C2951 1.394 . S
C2950 H2958 0.930 . S
C2951 C2950 1.394 . S
C2951 C2952 1.383 . S
C2951 H2959 0.929 . S
C2952 C2951 1.383 . S
C2952 C2953 1.377 . S
C2953 H2937 0.930 . S
C2953 C2952 1.377 . S
C2953 C2954 1.379 . S
C2954 H2938 0.931 . S
C2954 C2948 1.383 . S
C2954 C2953 1.379 . S
H2955 C2949 0.959 . S
H2956 C2949 0.961 . S
H2957 C2949 0.960 . S
H2958 C2950 0.930 . S
H2959 C2951 0.929 . S
C1260 C225 1.572 . S
C1241 C60 1.579 . S
C1296 C284 1.261 . S
C1277 C76 1.258 . S
C1313 C81 1.744 . S
C1332 C401 1.733 . S
C1368 C469 1.632 . S
C1349 C48 1.644 . S
C1404 C548 1.526 . S
C1385 C115 1.521 . S
C1440 C673 1.592 . S
C1421 C136 1.595 . S
C1457 C131 1.285 . S
C1476 C733 1.287 . S
C1512 C841 1.586 . S
C1493 C104 1.578 . S
C1529 C126 1.538 . S
C1548 C937 1.535 . S
C1584 C997 1.413 . S
C1565 C103 1.411 . S
C1601 C120 1.405 . S
C1620 C900 1.411 . S
C1656 C1017 1.382 . S
C1637 C142 1.380 . S
C1673 C82 1.454 . S
C1692 C1085 1.455 . S
C1709 C54 1.951 . S
C1728 C1076 1.953 . S
C1745 C65 1.381 . S
C1764 C1105 1.381 . S
C1781 C71 1.217 . S
C1800 C1113 1.222 . S
C1817 C37 1.617 . S
C1836 C497 1.610 . S
C1853 C158 2.144 . S
C1872 C460 2.133 . S
C1908 C196 1.351 . S
C1889 C169 1.358 . S
C1944 C293 1.142 . S
C1925 C98 1.146 . S
C1961 C49 1.810 . S
C1980 C557 1.824 . S
C2016 C849 1.398 . S
C1997 C125 1.394 . S
C2052 C577 1.361 . S
C2033 C109 1.356 . S
C2088 C761 1.896 . S
C2069 C137 1.891 . S
C2124 C753 1.581 . S
C2105 C159 1.580 . S
C2141 C175 1.258 . S
C2160 C821 1.262 . S
C2177 C92 1.743 . S
C2196 C585 1.733 . S
C2232 C636 1.644 . S
C2213 C147 1.645 . S
C2249 C38 1.516 . S
C2268 C381 1.512 . S
C2304 C489 1.580 . S
C2285 C4 1.594 . S
C2340 C205 1.274 . S
C2321 C21 1.282 . S
C2376 C321 1.588 . S
C2357 C27 1.579 1_455 S
C2393 C16 1.537 . S
C2412 C1025 1.529 . S
C2429 C26 1.409 . S
C2448 C909 1.395 . S
C2465 C43 1.406 . S
C2484 C988 1.405 . S
C2501 C10 1.381 . S
C2520 C929 1.379 . S
C2556 C1173 1.455 . S
C2537 C93 1.454 . S
C2592 C1164 1.953 . S
C2573 C153 1.951 . S
C2628 C1193 1.393 . S
C2609 C164 1.385 . S
C2645 C170 1.212 . S
C2664 C1201 1.217 . S
C2681 C114 1.617 . S
C2700 C665 1.616 . S
C2736 C645 2.136 . S
C2717 C59 2.144 . S
C2772 C724 1.339 . S
C2753 C70 1.356 . S
C2808 C812 1.157 . S
C2789 C87 1.143 . S
C2825 C148 1.809 . S
C2844 C372 1.822 . S
C2880 C313 1.393 . S
C2861 C15 1.394 . S
C2897 C32 1.359 . S
C2916 C409 1.345 . S
C2952 C233 1.895 . S
C2933 C5 1.890 . S
