# Generated by pormake.
# Topology anh, (6,3)-cn, num edge types: 1
# Building blocks:
#     Node 0, Type 0, BuildingBlock: BETDIP_clean_sbu_0, # of connection points: 6
#     Node 1, Type 0, BuildingBlock: BETDIP_clean_sbu_0, # of connection points: 6
#     Node 2, Type 0, BuildingBlock: BETDIP_clean_sbu_0, # of connection points: 6
#     Node 3, Type 1, BuildingBlock: CUQRIR_clean_linker_1, # of connection points: 3
#     Node 4, Type 1, BuildingBlock: CUQRIR_clean_linker_1, # of connection points: 3
#     Node 5, Type 1, BuildingBlock: CUQRIR_clean_linker_1, # of connection points: 3
#     Node 6, Type 1, BuildingBlock: CUQRIR_clean_linker_1, # of connection points: 3
#     Node 7, Type 1, BuildingBlock: CUQRIR_clean_linker_1, # of connection points: 3
#     Node 8, Type 1, BuildingBlock: CUQRIR_clean_linker_1, # of connection points: 3
#     Edge 9, Type (0, 1), BuildingBlock: AJUNOK_clean_linker_0, # of connection points: 2
#     Edge 10, Type (0, 1), BuildingBlock: AJUNOK_clean_linker_0, # of connection points: 2
#     Edge 11, Type (0, 1), BuildingBlock: AJUNOK_clean_linker_0, # of connection points: 2
#     Edge 12, Type (0, 1), BuildingBlock: AJUNOK_clean_linker_0, # of connection points: 2
#     Edge 13, Type (0, 1), BuildingBlock: AJUNOK_clean_linker_0, # of connection points: 2
#     Edge 14, Type (0, 1), BuildingBlock: AJUNOK_clean_linker_0, # of connection points: 2
#     Edge 15, Type (0, 1), BuildingBlock: AJUNOK_clean_linker_0, # of connection points: 2
#     Edge 16, Type (0, 1), BuildingBlock: AJUNOK_clean_linker_0, # of connection points: 2
#     Edge 17, Type (0, 1), BuildingBlock: AJUNOK_clean_linker_0, # of connection points: 2
#     Edge 18, Type (0, 1), BuildingBlock: AJUNOK_clean_linker_0, # of connection points: 2
#     Edge 19, Type (0, 1), BuildingBlock: AJUNOK_clean_linker_0, # of connection points: 2
#     Edge 20, Type (0, 1), BuildingBlock: AJUNOK_clean_linker_0, # of connection points: 2
#     Edge 21, Type (0, 1), BuildingBlock: AJUNOK_clean_linker_0, # of connection points: 2
#     Edge 22, Type (0, 1), BuildingBlock: AJUNOK_clean_linker_0, # of connection points: 2
#     Edge 23, Type (0, 1), BuildingBlock: AJUNOK_clean_linker_0, # of connection points: 2
#     Edge 24, Type (0, 1), BuildingBlock: AJUNOK_clean_linker_0, # of connection points: 2
#     Edge 25, Type (0, 1), BuildingBlock: AJUNOK_clean_linker_0, # of connection points: 2
#     Edge 26, Type (0, 1), BuildingBlock: AJUNOK_clean_linker_0, # of connection points: 2
# Relax obj value: 0.453
# Max RMSD: 0.214
# Mean RMSD: 0.164
data_MOF--net-anh--node1-BETDIP_clean_sbu_0--node2-CUQRIR_clean_linker_1--edge1-AJUNOK_clean_linker_0
_symmetry_space_group_name_H-M    P1
_symmetry_Int_Tables_number       1
_symmetry_cell_setting            triclinic
loop_
_symmetry_equiv_pos_as_xyz
'x, y, z'
_cell_length_a     19.457583
_cell_length_b     19.646179
_cell_length_c     33.319755
_cell_angle_alpha  84.059673
_cell_angle_beta   92.305433
_cell_angle_gamma 119.65863
loop_
_atom_site_label
_atom_site_type_symbol
_atom_site_fract_x
_atom_site_fract_y
_atom_site_fract_z
_atom_type_partial_charge
Tb0 Tb 0.31751 0.72287 0.13884 0.0
Tb1 Tb 0.24155 0.55965 0.15756 0.0
C2 C 0.40671 0.86601 0.14109 0.0
C3 C 0.45577 0.90063 0.17475 0.0
C4 C 0.44715 0.85089 0.20999 0.0
C5 C 0.46205 0.88069 0.24728 0.0
C6 C 0.48679 0.9601 0.24893 0.0
C7 C 0.50614 1.01095 0.21324 0.0
C8 C 0.49033 0.98125 0.17607 0.0
C9 C 0.26355 0.6454 0.07543 0.0
C10 C 0.42538 0.64114 0.14367 0.0
C11 C 1.15699 0.41373 0.15697 0.0
C12 C 1.07193 0.36353 0.15357 0.0
C13 C 1.02826 0.38686 0.12666 0.0
C14 C 0.94689 0.35255 0.13199 0.0
C15 C 0.90903 0.29576 0.16458 0.0
C16 C 0.95195 0.26707 0.18871 0.0
C17 C 1.03296 0.30054 0.18301 0.0
C18 C 0.29743 0.63194 0.2245 0.0
C19 C 1.13511 0.64554 0.135 0.0
O20 O 0.33164 0.83088 0.15061 0.0
O21 O 0.42562 0.82307 0.12181 0.0
O22 O 0.29718 0.63025 0.10474 0.0
O23 O 0.26921 0.71297 0.07783 0.0
O24 O 0.42265 0.70631 0.14732 0.0
O25 O 0.35812 0.57386 0.14377 0.0
O26 O 1.19349 0.46093 0.125 0.0
O27 O 1.17869 0.44922 0.19002 0.0
O28 O 0.26408 0.65267 0.19569 0.0
O29 O 0.30184 0.57228 0.21469 0.0
O30 O 1.13687 0.57863 0.14464 0.0
O31 O 1.20141 0.71315 0.13273 0.0
H32 H 0.42049 0.788 0.20897 0.0
H33 H 0.4489 0.84112 0.27438 0.0
H34 H 0.52967 1.07316 0.21387 0.0
H35 H 0.49782 1.01993 0.14895 0.0
H36 H 1.05743 0.43588 0.10377 0.0
H37 H 0.91498 0.37576 0.11322 0.0
H38 H 0.92497 0.22502 0.21481 0.0
H39 H 1.06616 0.28265 0.20419 0.0
Tb40 Tb 0.9393 0.1983 0.48165 0.0
Tb41 Tb 0.8441 0.26895 0.48382 0.0
C42 C 0.99916 1.11814 0.50812 0.0
C43 C 0.9562 1.05428 0.53968 0.0
C44 C 0.97429 1.06868 0.58048 0.0
C45 C 0.91652 1.02681 0.61057 0.0
C46 C 0.84018 0.97156 0.59987 0.0
C47 C 0.82362 0.95509 0.55951 0.0
C48 C 0.8816 0.99356 0.53007 0.0
C49 C 0.92562 0.26016 0.41077 0.0
C50 C 0.74643 1.08948 0.47053 0.0
C51 C 0.77392 0.34427 0.47312 0.0
C52 C 0.733 0.38827 0.46686 0.0
C53 C 0.76644 0.45872 0.44186 0.0
C54 C 0.72802 0.5025 0.43684 0.0
C55 C 0.65738 0.47685 0.45812 0.0
C56 C 0.62138 0.40299 0.48081 0.0
C57 C 0.65926 0.35877 0.48514 0.0
C58 C 0.84549 0.19375 0.55492 0.0
C59 C 1.03427 0.38359 0.47265 0.0
O60 O 1.0213 0.1873 0.52005 0.0
O61 O 0.96591 1.10971 0.47248 0.0
O62 O 0.87288 0.22311 0.43737 0.0
O63 O 0.98739 0.25381 0.42077 0.0
O64 O 0.81505 1.0911 0.48019 0.0
O65 O 0.74627 0.15706 0.46636 0.0
O66 O 0.79469 0.32023 0.44323 0.0
O67 O 0.79646 0.3301 0.50905 0.0
O68 O 0.90512 0.23772 0.53169 0.0
O69 O 0.78412 0.19236 0.53789 0.0
O70 O 0.96313 0.3776 0.47321 0.0
O71 O 1.03967 0.31889 0.47834 0.0
H72 H 1.03124 1.11594 0.58866 0.0
H73 H 0.93105 1.03737 0.64186 0.0
H74 H 0.76597 0.90985 0.55096 0.0
H75 H 0.86539 0.97997 0.49923 0.0
H76 H 0.824 0.48191 0.42819 0.0
H77 H 0.75694 0.55955 0.41953 0.0
H78 H 0.56755 0.38257 0.49809 0.0
H79 H 0.63263 0.30328 0.50396 0.0
Tb80 Tb 0.7477 0.64241 0.84258 0.0
Tb81 Tb 0.88887 0.7255 0.8027 0.0
C82 C 0.64691 0.56387 0.89657 0.0
C83 C 0.56997 0.5444 0.91132 0.0
C84 C 0.54737 0.50324 0.94943 0.0
C85 C 0.46829 0.46281 0.96074 0.0
C86 C 0.41117 0.46375 0.93406 0.0
C87 C 0.43495 0.51167 0.89727 0.0
C88 C 0.51446 0.55147 0.88567 0.0
C89 C 0.71638 0.6679 0.76851 0.0
C90 C 0.81048 0.82591 0.80803 0.0
C91 C 1.01525 0.77674 0.76413 0.0
C92 C 1.06456 0.7398 0.76694 0.0
C93 C 1.09281 0.72714 0.73195 0.0
C94 C 1.1231 0.67542 0.73435 0.0
C95 C 1.12307 0.6352 0.7716 0.0
C96 C 1.0983 0.65106 0.80668 0.0
C97 C 1.06932 0.70276 0.80442 0.0
C98 C 0.89442 0.71918 0.88451 0.0
C99 C 0.81698 0.53915 0.81088 0.0
O100 O 0.70609 0.63439 0.90099 0.0
O101 O 0.64684 0.53895 0.86167 0.0
O102 O 0.77111 0.65281 0.77955 0.0
O103 O 0.67944 0.66985 0.79936 0.0
O104 O 0.77103 0.76997 0.83847 0.0
O105 O 0.85388 0.81285 0.7843 0.0
O106 O 0.94592 0.7342 0.74874 0.0
O107 O 1.01044 0.80522 0.79692 0.0
O108 O 0.85958 0.66529 0.86221 0.0
O109 O 0.92416 0.78365 0.86066 0.0
O110 O 0.88009 0.60872 0.80146 0.0
O111 O 0.75469 0.53746 0.827 0.0
H112 H 0.59009 0.49737 0.96926 0.0
H113 H 0.45145 0.42705 0.98943 0.0
H114 H 0.39244 0.51692 0.87714 0.0
H115 H 0.53185 0.58372 0.85605 0.0
H116 H 1.08755 0.75385 0.70274 0.0
H117 H 1.14233 0.66361 0.70715 0.0
H118 H 1.09845 0.62092 0.83581 0.0
H119 H 1.0461 0.70976 0.83179 0.0
C120 C 0.60521 0.22639 0.27931 0.0
N121 N 0.6838 0.26833 0.27329 0.0
N122 N 0.5859 0.20402 0.31917 0.0
C123 C 0.54673 0.21548 0.24622 0.0
C124 C 0.65658 0.24718 0.33665 0.0
N125 N 0.71662 0.28204 0.30924 0.0
C126 C 0.66732 0.24644 0.38151 0.0
H127 H 0.50865 0.23922 0.25459 0.0
H128 H 0.50707 0.153 0.2425 0.0
H129 H 0.57689 0.24615 0.21697 0.0
H130 H 0.71088 0.22726 0.3909 0.0
H131 H 0.61034 0.20755 0.39778 0.0
H132 H 0.69076 0.30728 0.38962 0.0
C133 C 0.57577 0.69236 0.56195 0.0
N134 N 0.58987 0.69673 0.60177 0.0
N135 N 0.54822 0.61825 0.5522 0.0
C136 C 0.60298 0.76229 0.53123 0.0
C137 C 0.53912 0.57624 0.58843 0.0
N138 N 0.56575 0.62402 0.61842 0.0
C139 C 0.51164 0.48959 0.59342 0.0
H140 H 0.58424 0.80337 0.54043 0.0
H141 H 0.57737 0.74208 0.50165 0.0
H142 H 0.66829 0.79422 0.52854 0.0
H143 H 0.4582 0.45826 0.57498 0.0
H144 H 0.49779 0.46525 0.62546 0.0
H145 H 0.55808 0.47918 0.58191 0.0
C146 C 1.18695 0.40503 0.89173 0.0
N147 N 1.1701 0.4144 0.92948 0.0
N148 N 1.22103 0.47673 0.86871 0.0
C149 C 1.20523 0.25353 0.88771 0.0
C150 C 0.22848 0.5279 0.8955 0.0
N151 N 1.19979 0.49062 0.93221 0.0
C152 C 0.25669 0.61454 0.88478 0.0
H153 H 0.24714 0.25552 0.86448 0.0
H154 H 1.15095 0.19664 0.88106 0.0
H155 H 1.22444 0.22894 0.91532 0.0
H156 H 0.25476 0.64416 0.91093 0.0
H157 H 1.21883 0.62225 0.86113 0.0
H158 H 0.31816 0.64437 0.87281 0.0
C159 C 0.38573 0.73587 0.45327 0.0
N160 N 0.32947 0.68572 0.42796 0.0
N161 N 0.44801 0.79872 0.43234 0.0
C162 C 0.38001 0.72438 0.49846 0.0
C163 C 0.42676 0.78413 0.39353 0.0
N164 N 0.35547 0.71795 0.39041 0.0
C165 C 0.47831 0.83223 0.35826 0.0
H166 H 0.40718 0.78214 0.51109 0.0
H167 H 0.41343 0.69434 0.50997 0.0
H168 H 0.31756 0.68782 0.50887 0.0
H169 H 0.47974 0.79361 0.33667 0.0
H170 H 0.53924 0.87159 0.36788 0.0
H171 H 0.45217 0.86679 0.34331 0.0
C172 C 0.81354 0.18399 0.78955 0.0
N173 N 0.81432 1.13286 0.76402 0.0
N174 N 0.8108 0.2471 0.76891 0.0
C175 C 0.82457 0.17801 0.83439 0.0
C176 C 0.80929 0.23184 0.72992 0.0
N177 N 0.81464 0.16611 0.72659 0.0
C178 C 0.79628 0.278 0.6942 0.0
H179 H 0.7665 0.15409 0.84976 0.0
H180 H 0.86382 0.23736 0.84436 0.0
H181 H 0.85028 1.13952 0.84361 0.0
H182 H 0.85205 0.31301 0.67639 0.0
H183 H 0.77547 0.31739 0.70348 0.0
H184 H 0.7513 0.23733 0.67403 0.0
C185 C 0.78608 0.65802 0.11822 0.0
N186 N 0.84133 0.65981 0.09253 0.0
N187 N 0.72262 0.6555 0.09788 0.0
C188 C 0.79892 0.67446 0.16179 0.0
C189 C 0.74185 0.6594 0.05889 0.0
N190 N 0.81298 0.66283 0.0552 0.0
C191 C 0.69261 0.66431 0.02383 0.0
H192 H 0.76359 0.61892 0.18129 0.0
H193 H 0.7766 0.71456 0.16802 0.0
H194 H 0.86238 0.70229 0.16974 0.0
H195 H 0.71693 0.72696 0.01206 0.0
H196 H 0.63003 0.6403 0.03302 0.0
H197 H 0.6951 0.63195 0.99906 0.0
C198 C 0.57016 0.71614 0.11985 0.0
C199 C 0.50373 0.64488 0.13528 0.0
C200 C 0.64182 0.71983 0.10874 0.0
C201 C 0.6516 0.6529 0.11328 0.0
H202 H 0.5661 0.7694 0.11506 0.0
H203 H 0.68974 0.77534 0.09585 0.0
S204 S 0.49838 0.45213 0.15223 0.0
N205 N 0.45449 0.5054 0.15413 0.0
N206 N 0.58862 0.51338 0.13434 0.0
C207 C 0.58666 0.58184 0.12918 0.0
C208 C 0.51324 0.57759 0.13985 0.0
C209 C 1.1093 0.5281 0.44015 0.0
C210 C 1.10988 0.46308 0.46283 0.0
C211 C 1.1804 0.59937 0.42812 0.0
C212 C 0.25618 0.61087 0.43922 0.0
H213 H 1.05348 0.5239 0.43109 0.0
H214 H 1.17596 0.64644 0.41044 0.0
S215 S 0.29244 0.46256 0.49995 0.0
N216 N 1.19527 0.41796 0.49623 0.0
N217 N 0.32616 0.55048 0.47505 0.0
C218 C 0.25751 0.5473 0.46248 0.0
C219 C 1.18559 0.47439 0.47388 0.0
C220 C 0.85863 0.96093 0.76715 0.0
C221 C 0.80876 0.90405 0.7983 0.0
C222 C 0.85992 1.0338 0.75611 0.0
C223 C 0.81096 1.05553 0.77515 0.0
H224 H 0.89835 0.94955 0.75085 0.0
H225 H 0.90111 1.07403 0.73275 0.0
S226 S 0.6636 0.92695 0.85626 0.0
N227 N 0.70652 0.8757 0.84685 0.0
N228 N 0.70578 1.00868 0.82541 0.0
C229 C 0.75913 0.99841 0.80567 0.0
C230 C 0.75878 0.92443 0.81731 0.0
C231 C 1.05346 0.69074 0.08918 0.0
C232 C 1.05855 0.64619 0.12419 0.0
C233 C 0.98376 0.69512 0.07921 0.0
C234 C 0.91385 0.65441 0.10333 0.0
H235 H 1.10451 0.72352 0.06927 0.0
H236 H 0.98658 0.73313 0.05283 0.0
S237 S 0.9031 0.54376 0.20312 0.0
N238 N 0.99272 0.57227 0.18638 0.0
N239 N 0.85976 0.57104 0.16645 0.0
C240 C 0.91939 0.61021 0.13893 0.0
C241 C 0.99156 0.60831 0.14954 0.0
C242 C 0.6653 0.94004 0.45936 0.0
C243 C 0.66828 1.0128 0.46306 0.0
C244 C 0.59386 0.87081 0.45002 0.0
C245 C 0.51971 0.86808 0.44613 0.0
H246 H 0.71933 0.93698 0.46227 0.0
H247 H 0.59725 0.81938 0.44437 0.0
S248 S 0.49278 1.04189 0.44797 0.0
N249 N 0.58758 1.07666 0.4579 0.0
N250 N 0.45633 0.94756 0.44264 0.0
C251 C 0.52179 0.94015 0.44897 0.0
C252 C 0.59448 1.01129 0.4572 0.0
C253 C 0.76395 0.38738 0.82085 0.0
C254 C 0.81669 0.46337 0.80177 0.0
C255 C 0.76408 0.31753 0.81171 0.0
C256 C 0.81702 0.31946 0.78294 0.0
H257 H 0.72149 0.3815 0.84289 0.0
H258 H 0.72071 0.26132 0.82645 0.0
S259 S 0.96165 0.5001 0.72129 0.0
N260 N 0.91892 0.53244 0.75001 0.0
N261 N 0.92321 0.4054 0.7356 0.0
C262 C 0.87042 0.39503 0.76432 0.0
C263 C 0.86913 0.46526 0.77285 0.0
C264 C 0.70669 0.90355 0.6281 0.0
C265 C 0.78332 0.91297 0.62971 0.0
C266 C 0.64125 0.83015 0.62219 0.0
C267 C 0.65189 0.76578 0.61795 0.0
H268 H 0.69892 0.95461 0.62404 0.0
H269 H 0.58391 0.82547 0.61672 0.0
S270 S 0.84026 0.76084 0.62891 0.0
N271 N 0.86322 0.85009 0.63872 0.0
N272 N 0.74488 0.71665 0.61924 0.0
C273 C 0.72702 0.77338 0.62522 0.0
C274 C 0.79123 0.84582 0.63525 0.0
C275 C 1.09182 0.50101 0.79519 0.0
C276 C 1.14615 0.57438 0.77571 0.0
C277 C 1.11798 0.45872 0.82093 0.0
C278 C 1.19913 0.48915 0.82811 0.0
H279 H 1.02974 0.48331 0.79674 0.0
H280 H 1.07457 0.41011 0.84065 0.0
S281 S 0.36359 0.66463 0.77395 0.0
N282 N 0.28301 0.66534 0.75685 0.0
N283 N 0.33283 0.58408 0.80545 0.0
C284 C 0.25333 0.5531 0.8023 0.0
C285 C 1.2265 0.5968 0.77605 0.0
C286 C 0.43701 1.01979 0.29309 0.0
C287 C 0.48902 0.99142 0.28698 0.0
C288 C 0.46058 1.08317 0.31629 0.0
C289 C 0.53789 1.12068 0.33121 0.0
H290 H 0.38424 1.00154 0.27506 0.0
H291 H 0.42675 1.1136 0.31401 0.0
S292 S 0.66919 1.03252 0.3444 0.0
N293 N 0.60323 0.98198 0.31104 0.0
N294 N 0.64316 1.09519 0.35795 0.0
C295 C 0.5766 1.07526 0.33609 0.0
C296 C 0.55472 1.01332 0.31147 0.0
C297 C 0.55266 0.50995 0.46854 0.0
C298 C 0.6336 0.53353 0.46719 0.0
C299 C 0.52473 0.54361 0.49384 0.0
C300 C 0.57714 0.60199 0.5177 0.0
H301 H 0.51017 0.45942 0.4536 0.0
H302 H 0.46178 0.51919 0.49763 0.0
S303 S 0.79571 0.69169 0.52054 0.0
N304 N 0.76676 0.62501 0.4881 0.0
N305 N 0.71407 0.68829 0.53514 0.0
C306 C 0.65898 0.63212 0.51298 0.0
C307 C 0.68742 0.59811 0.48749 0.0
C308 C 0.29958 0.41109 0.98382 0.0
C309 C 0.32749 0.41288 0.94502 0.0
C310 C 1.21812 0.37857 0.99187 0.0
C311 C 1.16401 0.35421 0.96013 0.0
H312 H 0.34078 0.4419 0.00702 0.0
H313 H 1.19952 0.38584 0.02054 0.0
S314 S 1.1642 0.32255 0.84096 0.0
N315 N 0.27602 0.38029 0.86849 0.0
N316 N 1.10838 0.27721 0.89798 0.0
C317 C 1.1705 0.30451 0.93627 0.0
C318 C 0.27146 0.36535 0.91817 0.0
C319 C 0.82817 0.34892 0.18814 0.0
C320 C 0.83365 0.28274 0.18051 0.0
C321 C 0.77462 0.34302 0.21688 0.0
C322 C 0.72391 0.27065 0.23764 0.0
H323 H 0.87062 0.40631 0.17451 0.0
H324 H 0.77518 0.39516 0.22489 0.0
S325 S 0.70408 1.07756 0.22255 0.0
N326 N 0.77603 1.14108 0.19131 0.0
N327 N 0.67367 1.1296 0.24472 0.0
C328 C 0.72198 0.20261 0.22666 0.0
C329 C 0.77732 0.20875 0.19801 0.0
C330 C 1.16951 0.55754 0.02754 0.0
C331 C 0.24779 0.60754 0.03853 0.0
C332 C 1.15375 0.51745 0.993 0.0
C333 C 1.21601 0.52808 0.96868 0.0
H334 H 1.12062 0.54895 0.0459 0.0
H335 H 1.09308 0.47912 0.9848 0.0
S336 S 0.43086 0.65154 0.98582 0.0
N337 N 0.38771 0.66361 0.02404 0.0
N338 N 0.35826 0.59108 0.95799 0.0
C339 C 0.29446 0.57802 0.97965 0.0
C340 C 0.31035 0.61719 0.01503 0.0
C341 C 0.86388 0.2253 0.34518 0.0
C342 C 0.90764 0.28434 0.37064 0.0
C343 C 0.8088 0.23116 0.31893 0.0
C344 C 0.79461 0.29475 0.31847 0.0
H345 H 0.86464 0.17022 0.34925 0.0
H346 H 0.77013 0.18099 0.3032 0.0
S347 S 0.91451 0.47616 0.36812 0.0
N348 N 0.94968 0.41762 0.38529 0.0
N349 N 0.84275 0.42642 0.33692 0.0
C350 C 0.84705 0.35935 0.33858 0.0
C351 C 0.90444 0.35439 0.36467 0.0
C352 C 0.61148 0.66372 0.72353 0.0
C353 C 0.67283 0.6461 0.73086 0.0
C354 C 0.56685 0.64375 0.68872 0.0
C355 C 0.5834 0.60771 0.65933 0.0
H356 H 0.59953 0.69586 0.74419 0.0
H357 H 0.52484 0.66444 0.68249 0.0
S358 S 0.73133 0.53981 0.66651 0.0
N359 N 0.74203 0.5819 0.70846 0.0
N360 N 0.65909 0.54624 0.64184 0.0
C361 C 0.63921 0.58243 0.66803 0.0
C362 C 0.68512 0.60296 0.70374 0.0
C363 C 0.77146 1.11939 0.61975 0.0
C364 C 0.84468 0.1711 0.59988 0.0
C365 C 0.76366 1.10722 0.66235 0.0
C366 C 0.82845 0.14704 0.68753 0.0
H367 H 0.71824 1.09121 0.60216 0.0
H368 H 0.70493 1.07288 0.67563 0.0
S369 S 1.03472 0.28357 0.65179 0.0
N370 N 0.98489 0.25685 0.6096 0.0
N371 N 0.96979 0.23612 0.68911 0.0
C372 C 0.90299 0.19422 0.66814 0.0
C373 C 0.91121 0.20602 0.62467 0.0
C374 C 0.85063 0.63129 0.95042 0.0
C375 C 0.88523 0.70797 0.92996 0.0
C376 C 0.83411 0.61715 0.99242 0.0
C377 C 0.85194 0.67899 0.01614 0.0
H378 H 0.83321 0.58108 0.93352 0.0
H379 H 0.80282 0.557 0.00605 0.0
S380 S 0.94206 0.89 0.97839 0.0
N381 N 0.93724 0.84638 0.93771 0.0
N382 N 0.90558 0.81953 0.01599 0.0
C383 C 0.88817 0.75579 0.99636 0.0
C384 C 0.90511 0.77035 0.95365 0.0
C385 C 0.2915 0.70938 0.28086 0.0
C386 C 0.30226 0.64864 0.26847 0.0
C387 C 0.30245 0.72784 0.32164 0.0
C388 C 0.32256 0.6852 0.3522 0.0
H389 H 0.27799 0.74523 0.25865 0.0
H390 H 0.29894 0.77842 0.32904 0.0
S391 S 0.35098 0.51675 0.33746 0.0
N392 N 0.32978 0.54282 0.29199 0.0
N393 N 0.34876 0.57754 0.36738 0.0
C394 C 0.3291 0.62208 0.34072 0.0
C395 C 0.31934 0.60386 0.29937 0.0
loop_
_geom_bond_atom_site_label_1
_geom_bond_atom_site_label_2
_geom_bond_distance
_geom_bond_site_symmetry_2
_ccdc_geom_bond_type
Tb0 C2 2.809 . S
Tb0 O20 2.484 . S
Tb0 O21 2.440 . S
Tb0 O22 2.658 . S
Tb0 O23 2.409 . S
Tb0 O24 2.378 . S
Tb0 O28 2.325 . S
Tb0 O31 2.341 1_455 S
Tb1 C11 2.809 . S
Tb1 O22 2.325 1_655 S
Tb1 O25 2.341 1_655 S
Tb1 O26 2.484 . S
Tb1 O27 2.440 . S
Tb1 O28 2.658 1_655 S
Tb1 O29 2.409 . S
Tb1 O30 2.378 . S
C2 Tb0 2.809 . S
C2 C3 1.514 . S
C2 O20 1.248 . S
C2 O21 1.266 . S
C3 C2 1.514 . S
C3 C4 1.359 . S
C3 C8 1.348 . S
C4 C3 1.359 . S
C4 C5 1.380 . S
C4 H32 0.929 . S
C5 C4 1.380 . S
C5 C6 1.347 . S
C5 H33 0.931 . S
C6 C5 1.347 . S
C6 C7 1.369 . S
C7 C6 1.369 . S
C7 C8 1.408 . S
C7 H34 0.930 . S
C8 C3 1.348 . S
C8 C7 1.408 . S
C8 H35 0.930 . S
C9 O22 1.281 . S
C9 O23 1.254 . S
C10 O24 1.236 . S
C10 O25 1.266 . S
C11 Tb1 2.809 . S
C11 C12 1.514 . S
C11 O26 1.248 . S
C11 O27 1.266 . S
C12 C11 1.514 . S
C12 C13 1.359 . S
C12 C17 1.348 . S
C13 C12 1.359 . S
C13 C14 1.380 . S
C13 H36 0.929 . S
C14 C13 1.380 . S
C14 C15 1.347 . S
C14 H37 0.931 . S
C15 C14 1.347 . S
C15 C16 1.369 . S
C16 C15 1.369 . S
C16 C17 1.408 . S
C16 H38 0.930 . S
C17 C12 1.348 . S
C17 C16 1.408 . S
C17 H39 0.930 . S
C18 O28 1.281 . S
C18 O29 1.254 1_455 S
C19 O30 1.236 . S
C19 O31 1.266 . S
O20 Tb0 2.484 . S
O20 C2 1.248 . S
O21 Tb0 2.440 . S
O21 C2 1.266 . S
O22 Tb0 2.658 . S
O22 Tb1 2.325 1_455 S
O22 C9 1.281 . S
O23 Tb0 2.409 . S
O23 C9 1.254 . S
O24 Tb0 2.378 . S
O24 C10 1.236 . S
O25 Tb1 2.341 1_455 S
O25 C10 1.266 . S
O26 Tb1 2.484 . S
O26 C11 1.248 . S
O27 Tb1 2.440 . S
O27 C11 1.266 . S
O28 Tb0 2.325 . S
O28 Tb1 2.658 1_455 S
O28 C18 1.281 . S
O29 Tb1 2.409 . S
O29 C18 1.254 1_655 S
O30 Tb1 2.378 . S
O30 C19 1.236 . S
O31 Tb0 2.341 1_655 S
O31 C19 1.266 . S
H32 C4 0.929 . S
H33 C5 0.931 . S
H34 C7 0.930 . S
H35 C8 0.930 . S
H36 C13 0.929 . S
H37 C14 0.931 . S
H38 C16 0.930 . S
H39 C17 0.930 . S
Tb40 C42 2.809 . S
Tb40 O60 2.484 . S
Tb40 O61 2.440 . S
Tb40 O62 2.658 1_565 S
Tb40 O63 2.409 . S
Tb40 O64 2.378 . S
Tb40 O68 2.313 1_565 S
Tb40 O71 2.341 1_565 S
Tb41 C51 2.809 . S
Tb41 O62 2.325 . S
Tb41 O65 2.341 1_545 S
Tb41 O66 2.484 . S
Tb41 O67 2.440 . S
Tb41 O68 2.676 . S
Tb41 O69 2.409 . S
Tb41 O70 2.378 . S
C42 Tb40 2.809 . S
C42 C43 1.514 . S
C42 O60 1.248 . S
C42 O61 1.266 . S
C43 C42 1.514 . S
C43 C44 1.359 . S
C43 C48 1.348 . S
C44 C43 1.359 . S
C44 C45 1.380 . S
C44 H72 0.929 . S
C45 C44 1.380 . S
C45 C46 1.347 . S
C45 H73 0.931 . S
C46 C45 1.347 . S
C46 C47 1.369 . S
C47 C46 1.369 . S
C47 C48 1.408 . S
C47 H74 0.930 . S
C48 C43 1.348 . S
C48 C47 1.408 . S
C48 H75 0.930 . S
C49 O62 1.281 . S
C49 O63 1.254 1_545 S
C50 O64 1.236 . S
C50 O65 1.266 . S
C51 Tb41 2.809 . S
C51 C52 1.514 . S
C51 O66 1.248 . S
C51 O67 1.266 . S
C52 C51 1.514 . S
C52 C53 1.359 . S
C52 C57 1.348 . S
C53 C52 1.359 . S
C53 C54 1.380 . S
C53 H76 0.929 . S
C54 C53 1.380 . S
C54 C55 1.347 . S
C54 H77 0.931 . S
C55 C54 1.347 . S
C55 C56 1.369 . S
C56 C55 1.369 . S
C56 C57 1.408 . S
C56 H78 0.930 . S
C57 C52 1.348 . S
C57 C56 1.408 . S
C57 H79 0.930 . S
C58 O68 1.292 . S
C58 O69 1.254 . S
C59 O70 1.236 . S
C59 O71 1.266 . S
O60 Tb40 2.484 . S
O60 C42 1.248 . S
O61 Tb40 2.440 . S
O61 C42 1.266 . S
O62 Tb40 2.658 1_545 S
O62 Tb41 2.325 . S
O62 C49 1.281 . S
O63 Tb40 2.409 . S
O63 C49 1.254 1_565 S
O64 Tb40 2.378 . S
O64 C50 1.236 . S
O65 Tb41 2.341 1_565 S
O65 C50 1.266 . S
O66 Tb41 2.484 . S
O66 C51 1.248 . S
O67 Tb41 2.440 . S
O67 C51 1.266 . S
O68 Tb40 2.313 1_545 S
O68 Tb41 2.676 . S
O68 C58 1.292 . S
O69 Tb41 2.409 . S
O69 C58 1.254 . S
O70 Tb41 2.378 . S
O70 C59 1.236 . S
O71 Tb40 2.341 1_545 S
O71 C59 1.266 . S
H72 C44 0.929 . S
H73 C45 0.931 . S
H74 C47 0.930 . S
H75 C48 0.930 . S
H76 C53 0.929 . S
H77 C54 0.931 . S
H78 C56 0.930 . S
H79 C57 0.930 . S
Tb80 C82 2.809 . S
Tb80 O100 2.484 . S
Tb80 O101 2.440 . S
Tb80 O102 2.658 . S
Tb80 O103 2.409 . S
Tb80 O104 2.378 . S
Tb80 O108 2.325 . S
Tb80 O111 2.341 . S
Tb81 C91 2.809 . S
Tb81 O102 2.325 . S
Tb81 O105 2.341 . S
Tb81 O106 2.484 . S
Tb81 O107 2.440 . S
Tb81 O108 2.658 . S
Tb81 O109 2.409 . S
Tb81 O110 2.378 . S
C82 Tb80 2.809 . S
C82 C83 1.514 . S
C82 O100 1.248 . S
C82 O101 1.266 . S
C83 C82 1.514 . S
C83 C84 1.359 . S
C83 C88 1.348 . S
C84 C83 1.359 . S
C84 C85 1.380 . S
C84 H112 0.929 . S
C85 C84 1.380 . S
C85 C86 1.347 . S
C85 H113 0.931 . S
C86 C85 1.347 . S
C86 C87 1.369 . S
C87 C86 1.369 . S
C87 C88 1.408 . S
C87 H114 0.930 . S
C88 C83 1.348 . S
C88 C87 1.408 . S
C88 H115 0.930 . S
C89 O102 1.281 . S
C89 O103 1.254 . S
C90 O104 1.236 . S
C90 O105 1.266 . S
C91 Tb81 2.809 . S
C91 C92 1.514 . S
C91 O106 1.248 . S
C91 O107 1.266 . S
C92 C91 1.514 . S
C92 C93 1.359 . S
C92 C97 1.348 . S
C93 C92 1.359 . S
C93 C94 1.380 . S
C93 H116 0.929 . S
C94 C93 1.380 . S
C94 C95 1.347 . S
C94 H117 0.931 . S
C95 C94 1.347 . S
C95 C96 1.369 . S
C96 C95 1.369 . S
C96 C97 1.408 . S
C96 H118 0.930 . S
C97 C92 1.348 . S
C97 C96 1.408 . S
C97 H119 0.930 . S
C98 O108 1.281 . S
C98 O109 1.254 . S
C99 O110 1.236 . S
C99 O111 1.266 . S
O100 Tb80 2.484 . S
O100 C82 1.248 . S
O101 Tb80 2.440 . S
O101 C82 1.266 . S
O102 Tb80 2.658 . S
O102 Tb81 2.325 . S
O102 C89 1.281 . S
O103 Tb80 2.409 . S
O103 C89 1.254 . S
O104 Tb80 2.378 . S
O104 C90 1.236 . S
O105 Tb81 2.341 . S
O105 C90 1.266 . S
O106 Tb81 2.484 . S
O106 C91 1.248 . S
O107 Tb81 2.440 . S
O107 C91 1.266 . S
O108 Tb80 2.325 . S
O108 Tb81 2.658 . S
O108 C98 1.281 . S
O109 Tb81 2.409 . S
O109 C98 1.254 . S
O110 Tb81 2.378 . S
O110 C99 1.236 . S
O111 Tb80 2.341 . S
O111 C99 1.266 . S
H112 C84 0.929 . S
H113 C85 0.931 . S
H114 C87 0.930 . S
H115 C88 0.930 . S
H116 C93 0.929 . S
H117 C94 0.931 . S
H118 C96 0.930 . S
H119 C97 0.930 . S
C120 N121 1.317 . S
C120 N122 1.348 1_545 S
C120 C123 1.485 . S
N121 C120 1.317 . S
N121 N125 1.370 . S
N122 C120 1.348 1_565 S
N122 C124 1.346 . S
C123 C120 1.485 . S
C123 H127 0.960 . S
C123 H128 0.961 1_545 S
C123 H129 0.960 . S
C124 N122 1.346 . S
C124 N125 1.307 1_565 S
C124 C126 1.486 . S
N125 N121 1.370 . S
N125 C124 1.307 1_545 S
C126 C124 1.486 . S
C126 H130 0.960 . S
C126 H131 0.960 . S
C126 H132 0.959 . S
H127 C123 0.960 . S
H128 C123 0.961 1_565 S
H129 C123 0.960 . S
H130 C126 0.960 . S
H131 C126 0.960 . S
H132 C126 0.959 . S
C133 N134 1.317 . S
C133 N135 1.348 . S
C133 C136 1.485 . S
N134 C133 1.317 . S
N134 N138 1.370 . S
N135 C133 1.348 . S
N135 C137 1.346 . S
C136 C133 1.485 . S
C136 H140 0.960 . S
C136 H141 0.961 . S
C136 H142 0.960 . S
C137 N135 1.346 . S
C137 N138 1.307 . S
C137 C139 1.486 . S
N138 N134 1.370 . S
N138 C137 1.307 . S
C139 C137 1.486 . S
C139 H143 0.960 . S
C139 H144 0.960 . S
C139 H145 0.959 . S
H140 C136 0.960 . S
H141 C136 0.961 . S
H142 C136 0.960 . S
H143 C139 0.960 . S
H144 C139 0.960 . S
H145 C139 0.959 . S
C146 N147 1.315 1_655 S
C146 N148 1.351 . S
C146 C149 1.484 1_655 S
N147 C146 1.315 1_455 S
N147 N151 1.370 . S
N148 C146 1.351 . S
N148 C150 1.346 . S
C149 C146 1.484 1_455 S
C149 H153 0.960 . S
C149 H154 0.961 1_455 S
C149 H155 0.960 . S
C150 N148 1.346 . S
C150 N151 1.307 1_655 S
C150 C152 1.486 . S
N151 N147 1.370 . S
N151 C150 1.307 1_455 S
C152 C150 1.486 . S
C152 H156 0.960 . S
C152 H157 0.960 . S
C152 H158 0.959 . S
H153 C149 0.960 . S
H154 C149 0.961 1_655 S
H155 C149 0.960 . S
H156 C152 0.960 . S
H157 C152 0.960 . S
H158 C152 0.959 . S
C159 N160 1.317 . S
C159 N161 1.348 . S
C159 C162 1.485 . S
N160 C159 1.317 . S
N160 N164 1.370 . S
N161 C159 1.348 . S
N161 C163 1.346 . S
C162 C159 1.485 . S
C162 H166 0.960 . S
C162 H167 0.961 . S
C162 H168 0.960 . S
C163 N161 1.346 . S
C163 N164 1.307 . S
C163 C165 1.486 . S
N164 N160 1.370 . S
N164 C163 1.307 . S
C165 C163 1.486 . S
C165 H169 0.960 . S
C165 H170 0.960 . S
C165 H171 0.959 . S
H166 C162 0.960 . S
H167 C162 0.961 . S
H168 C162 0.960 . S
H169 C165 0.960 . S
H170 C165 0.960 . S
H171 C165 0.959 . S
C172 N173 1.317 1_545 S
C172 N174 1.348 . S
C172 C175 1.485 . S
N173 C172 1.317 1_565 S
N173 N177 1.370 1_565 S
N174 C172 1.348 . S
N174 C176 1.346 . S
C175 C172 1.485 . S
C175 H179 0.960 1_545 S
C175 H180 0.961 . S
C175 H181 0.960 1_545 S
C176 N174 1.346 . S
C176 N177 1.307 . S
C176 C178 1.486 . S
N177 N173 1.370 1_545 S
N177 C176 1.307 . S
C178 C176 1.486 . S
C178 H182 0.960 . S
C178 H183 0.960 . S
C178 H184 0.959 . S
H179 C175 0.960 1_565 S
H180 C175 0.961 . S
H181 C175 0.960 1_565 S
H182 C178 0.960 . S
H183 C178 0.960 . S
H184 C178 0.959 . S
C185 N186 1.317 . S
C185 N187 1.348 . S
C185 C188 1.485 . S
N186 C185 1.317 . S
N186 N190 1.370 . S
N187 C185 1.348 . S
N187 C189 1.346 . S
C188 C185 1.485 . S
C188 H192 0.960 . S
C188 H193 0.961 . S
C188 H194 0.960 . S
C189 N187 1.346 . S
C189 N190 1.307 . S
C189 C191 1.486 . S
N190 N186 1.370 . S
N190 C189 1.307 . S
C191 C189 1.486 . S
C191 H195 0.960 . S
C191 H196 0.960 . S
C191 H197 0.959 . S
H192 C188 0.960 . S
H193 C188 0.961 . S
H194 C188 0.960 . S
H195 C191 0.960 . S
H196 C191 0.960 . S
H197 C191 0.959 . S
C198 C199 1.369 . S
C198 C200 1.419 . S
C198 H202 0.930 . S
C199 C198 1.369 . S
C199 C208 1.429 . S
C200 C198 1.419 . S
C200 C201 1.363 . S
C200 H203 0.929 . S
C201 C200 1.363 . S
C201 C207 1.428 . S
H202 C198 0.930 . S
H203 C200 0.929 . S
S204 N205 1.613 . S
S204 N206 1.610 . S
N205 S204 1.613 . S
N205 C208 1.350 . S
N206 S204 1.610 . S
N206 C207 1.351 . S
C207 C201 1.428 . S
C207 N206 1.351 . S
C207 C208 1.434 . S
C208 C199 1.429 . S
C208 N205 1.350 . S
C208 C207 1.434 . S
C209 C210 1.369 . S
C209 C211 1.419 . S
C209 H213 0.930 . S
C210 C209 1.369 . S
C210 C219 1.429 . S
C211 C209 1.419 . S
C211 C212 1.363 . S
C211 H214 0.929 . S
C212 C211 1.363 . S
C212 C218 1.428 . S
H213 C209 0.930 . S
H214 C211 0.929 . S
S215 N216 1.613 . S
S215 N217 1.610 . S
N216 S215 1.613 . S
N216 C219 1.350 . S
N217 S215 1.610 . S
N217 C218 1.351 . S
C218 C212 1.428 . S
C218 N217 1.351 . S
C218 C219 1.434 . S
C219 C210 1.429 . S
C219 N216 1.350 . S
C219 C218 1.434 . S
C220 C221 1.369 . S
C220 C222 1.419 . S
C220 H224 0.930 . S
C221 C220 1.369 . S
C221 C230 1.429 . S
C222 C220 1.419 . S
C222 C223 1.363 . S
C222 H225 0.929 . S
C223 C222 1.363 . S
C223 C229 1.428 . S
H224 C220 0.930 . S
H225 C222 0.929 . S
S226 N227 1.613 . S
S226 N228 1.610 . S
N227 S226 1.613 . S
N227 C230 1.350 . S
N228 S226 1.610 . S
N228 C229 1.351 . S
C229 C223 1.428 . S
C229 N228 1.351 . S
C229 C230 1.434 . S
C230 C221 1.429 . S
C230 N227 1.350 . S
C230 C229 1.434 . S
C231 C232 1.369 . S
C231 C233 1.419 . S
C231 H235 0.930 . S
C232 C231 1.369 . S
C232 C241 1.429 . S
C233 C231 1.419 . S
C233 C234 1.363 . S
C233 H236 0.929 . S
C234 C233 1.363 . S
C234 C240 1.428 . S
H235 C231 0.930 . S
H236 C233 0.929 . S
S237 N238 1.613 . S
S237 N239 1.610 . S
N238 S237 1.613 . S
N238 C241 1.350 . S
N239 S237 1.610 . S
N239 C240 1.351 . S
C240 C234 1.428 . S
C240 N239 1.351 . S
C240 C241 1.434 . S
C241 C232 1.429 . S
C241 N238 1.350 . S
C241 C240 1.434 . S
C242 C243 1.369 . S
C242 C244 1.419 . S
C242 H246 0.930 . S
C243 C242 1.369 . S
C243 C252 1.429 . S
C244 C242 1.419 . S
C244 C245 1.363 . S
C244 H247 0.929 . S
C245 C244 1.363 . S
C245 C251 1.428 . S
H246 C242 0.930 . S
H247 C244 0.929 . S
S248 N249 1.613 . S
S248 N250 1.610 . S
N249 S248 1.613 . S
N249 C252 1.350 . S
N250 S248 1.610 . S
N250 C251 1.351 . S
C251 C245 1.428 . S
C251 N250 1.351 . S
C251 C252 1.434 . S
C252 C243 1.429 . S
C252 N249 1.350 . S
C252 C251 1.434 . S
C253 C254 1.369 . S
C253 C255 1.419 . S
C253 H257 0.930 . S
C254 C253 1.369 . S
C254 C263 1.429 . S
C255 C253 1.419 . S
C255 C256 1.363 . S
C255 H258 0.929 . S
C256 C255 1.363 . S
C256 C262 1.428 . S
H257 C253 0.930 . S
H258 C255 0.929 . S
S259 N260 1.613 . S
S259 N261 1.610 . S
N260 S259 1.613 . S
N260 C263 1.350 . S
N261 S259 1.610 . S
N261 C262 1.351 . S
C262 C256 1.428 . S
C262 N261 1.351 . S
C262 C263 1.434 . S
C263 C254 1.429 . S
C263 N260 1.350 . S
C263 C262 1.434 . S
C264 C265 1.369 . S
C264 C266 1.419 . S
C264 H268 0.930 . S
C265 C264 1.369 . S
C265 C274 1.429 . S
C266 C264 1.419 . S
C266 C267 1.363 . S
C266 H269 0.929 . S
C267 C266 1.363 . S
C267 C273 1.428 . S
H268 C264 0.930 . S
H269 C266 0.929 . S
S270 N271 1.613 . S
S270 N272 1.610 . S
N271 S270 1.613 . S
N271 C274 1.350 . S
N272 S270 1.610 . S
N272 C273 1.351 . S
C273 C267 1.428 . S
C273 N272 1.351 . S
C273 C274 1.434 . S
C274 C265 1.429 . S
C274 N271 1.350 . S
C274 C273 1.434 . S
C275 C276 1.369 . S
C275 C277 1.419 . S
C275 H279 0.930 . S
C276 C275 1.369 . S
C276 C285 1.429 . S
C277 C275 1.419 . S
C277 C278 1.363 . S
C277 H280 0.929 . S
C278 C277 1.363 . S
C278 C284 1.428 . S
H279 C275 0.930 . S
H280 C277 0.929 . S
S281 N282 1.613 . S
S281 N283 1.610 . S
N282 S281 1.613 . S
N282 C285 1.350 . S
N283 S281 1.610 . S
N283 C284 1.351 . S
C284 C278 1.428 . S
C284 N283 1.351 . S
C284 C285 1.434 . S
C285 C276 1.429 . S
C285 N282 1.350 . S
C285 C284 1.434 . S
C286 C287 1.369 . S
C286 C288 1.419 . S
C286 H290 0.930 . S
C287 C286 1.369 . S
C287 C296 1.429 . S
C288 C286 1.419 . S
C288 C289 1.363 . S
C288 H291 0.929 . S
C289 C288 1.363 . S
C289 C295 1.428 . S
H290 C286 0.930 . S
H291 C288 0.929 . S
S292 N293 1.613 . S
S292 N294 1.610 . S
N293 S292 1.613 . S
N293 C296 1.350 . S
N294 S292 1.610 . S
N294 C295 1.351 . S
C295 C289 1.428 . S
C295 N294 1.351 . S
C295 C296 1.434 . S
C296 C287 1.429 . S
C296 N293 1.350 . S
C296 C295 1.434 . S
C297 C298 1.369 . S
C297 C299 1.419 . S
C297 H301 0.930 . S
C298 C297 1.369 . S
C298 C307 1.429 . S
C299 C297 1.419 . S
C299 C300 1.363 . S
C299 H302 0.929 . S
C300 C299 1.363 . S
C300 C306 1.428 . S
H301 C297 0.930 . S
H302 C299 0.929 . S
S303 N304 1.613 . S
S303 N305 1.610 . S
N304 S303 1.613 . S
N304 C307 1.350 . S
N305 S303 1.610 . S
N305 C306 1.351 . S
C306 C300 1.428 . S
C306 N305 1.351 . S
C306 C307 1.434 . S
C307 C298 1.429 . S
C307 N304 1.350 . S
C307 C306 1.434 . S
C308 C309 1.369 . S
C308 C310 1.419 . S
C308 H312 0.930 . S
C309 C308 1.369 . S
C309 C318 1.429 . S
C310 C308 1.419 . S
C310 C311 1.363 . S
C310 H313 0.929 . S
C311 C310 1.363 . S
C311 C317 1.428 . S
H312 C308 0.930 . S
H313 C310 0.929 . S
S314 N315 1.613 . S
S314 N316 1.610 . S
N315 S314 1.613 . S
N315 C318 1.350 . S
N316 S314 1.610 . S
N316 C317 1.351 . S
C317 C311 1.428 . S
C317 N316 1.351 . S
C317 C318 1.434 . S
C318 C309 1.429 . S
C318 N315 1.350 . S
C318 C317 1.434 . S
C319 C320 1.369 . S
C319 C321 1.419 . S
C319 H323 0.930 . S
C320 C319 1.369 . S
C320 C329 1.429 . S
C321 C319 1.419 . S
C321 C322 1.363 . S
C321 H324 0.929 . S
C322 C321 1.363 . S
C322 C328 1.428 . S
H323 C319 0.930 . S
H324 C321 0.929 . S
S325 N326 1.613 1_565 S
S325 N327 1.610 . S
N326 S325 1.613 1_545 S
N326 C329 1.350 . S
N327 S325 1.610 . S
N327 C328 1.351 1_565 S
C328 C322 1.428 . S
C328 N327 1.351 1_545 S
C328 C329 1.434 . S
C329 C320 1.429 . S
C329 N326 1.350 . S
C329 C328 1.434 . S
C330 C331 1.369 . S
C330 C332 1.419 1_554 S
C330 H334 0.930 . S
C331 C330 1.369 . S
C331 C340 1.429 . S
C332 C330 1.419 1_556 S
C332 C333 1.363 . S
C332 H335 0.929 . S
C333 C332 1.363 . S
C333 C339 1.428 . S
H334 C330 0.930 . S
H335 C332 0.929 . S
S336 N337 1.613 1_556 S
S336 N338 1.610 . S
N337 S336 1.613 1_554 S
N337 C340 1.350 . S
N338 S336 1.610 . S
N338 C339 1.351 . S
C339 C333 1.428 . S
C339 N338 1.351 . S
C339 C340 1.434 1_556 S
C340 C331 1.429 . S
C340 N337 1.350 . S
C340 C339 1.434 1_554 S
C341 C342 1.364 1_565 S
C341 C343 1.419 . S
C341 H345 0.936 . S
C342 C341 1.364 1_545 S
C342 C351 1.429 . S
C343 C341 1.419 . S
C343 C344 1.355 1_565 S
C343 H346 0.936 . S
C344 C343 1.355 1_545 S
C344 C350 1.428 . S
H345 C341 0.936 . S
H346 C343 0.936 . S
S347 N348 1.613 . S
S347 N349 1.610 . S
N348 S347 1.613 . S
N348 C351 1.350 . S
N349 S347 1.610 . S
N349 C350 1.351 . S
C350 C344 1.428 . S
C350 N349 1.351 . S
C350 C351 1.434 . S
C351 C342 1.429 . S
C351 N348 1.350 . S
C351 C350 1.434 . S
C352 C353 1.369 . S
C352 C354 1.419 . S
C352 H356 0.930 . S
C353 C352 1.369 . S
C353 C362 1.429 . S
C354 C352 1.419 . S
C354 C355 1.363 . S
C354 H357 0.929 . S
C355 C354 1.363 . S
C355 C361 1.428 . S
H356 C352 0.930 . S
H357 C354 0.929 . S
S358 N359 1.613 . S
S358 N360 1.610 . S
N359 S358 1.613 . S
N359 C362 1.350 . S
N360 S358 1.610 . S
N360 C361 1.351 . S
C361 C355 1.428 . S
C361 N360 1.351 . S
C361 C362 1.434 . S
C362 C353 1.429 . S
C362 N359 1.350 . S
C362 C361 1.434 . S
C363 C364 1.369 . S
C363 C365 1.419 . S
C363 H367 0.930 . S
C364 C363 1.369 . S
C364 C373 1.429 1_545 S
C365 C363 1.419 . S
C365 C366 1.363 . S
C365 H368 0.929 . S
C366 C365 1.363 . S
C366 C372 1.418 1_545 S
H367 C363 0.930 . S
H368 C365 0.929 . S
S369 N370 1.613 . S
S369 N371 1.610 . S
N370 S369 1.613 . S
N370 C373 1.350 . S
N371 S369 1.610 . S
N371 C372 1.360 . S
C372 C366 1.418 1_565 S
C372 N371 1.360 . S
C372 C373 1.437 . S
C373 C364 1.429 1_565 S
C373 N370 1.350 . S
C373 C372 1.437 . S
C374 C375 1.369 . S
C374 C376 1.419 1_556 S
C374 H378 0.930 . S
C375 C374 1.369 . S
C375 C384 1.429 . S
C376 C374 1.419 1_554 S
C376 C377 1.363 . S
C376 H379 0.929 . S
C377 C376 1.363 . S
C377 C383 1.428 . S
H378 C374 0.930 . S
H379 C376 0.929 . S
S380 N381 1.608 1_554 S
S380 N382 1.614 . S
N381 S380 1.608 1_556 S
N381 C384 1.350 . S
N382 S380 1.614 . S
N382 C383 1.351 . S
C383 C377 1.428 . S
C383 N382 1.351 . S
C383 C384 1.434 1_554 S
C384 C375 1.429 . S
C384 N381 1.350 . S
C384 C383 1.434 1_556 S
C385 C386 1.369 . S
C385 C387 1.419 . S
C385 H389 0.914 1_455 S
C386 C385 1.369 . S
C386 C395 1.429 . S
C387 C385 1.419 . S
C387 C388 1.363 . S
C387 H390 0.929 . S
C388 C387 1.363 . S
C388 C394 1.428 . S
H389 C385 0.914 1_655 S
H390 C387 0.929 . S
S391 N392 1.613 . S
S391 N393 1.610 . S
N392 S391 1.613 . S
N392 C395 1.350 . S
N393 S391 1.610 . S
N393 C394 1.351 . S
C394 C388 1.428 . S
C394 N393 1.351 . S
C394 C395 1.434 . S
C395 C386 1.429 . S
C395 N392 1.350 . S
C395 C394 1.434 . S
C199 C10 2.860 . S
C201 N187 2.817 . S
C210 C59 3.022 . S
C212 N160 3.028 1_655 S
C221 C90 2.972 . S
C223 N173 2.995 . S
C232 C19 3.309 . S
C234 N186 3.320 . S
C245 N161 3.082 . S
C243 C50 3.078 . S
C256 N174 3.122 . S
C254 C99 3.151 . S
C265 C46 0.612 . S
C267 N134 0.572 . S
C276 C95 0.697 . S
C278 N148 0.636 . S
C287 C6 0.879 . S
C289 N122 0.941 . S
C300 N135 0.897 . S
C298 C55 0.853 . S
C311 N147 0.965 . S
C309 C86 0.948 . S
C320 C15 0.721 . S
C322 N121 0.689 . S
C333 N151 1.066 . S
C331 C9 1.070 . S
C342 C49 1.198 . S
C344 N125 1.187 . S
C353 C89 1.042 . S
C355 N138 1.069 . S
C366 N177 1.853 . S
C364 C58 1.722 . S
C377 N190 1.763 . S
C375 C98 1.728 . S
C386 C18 1.727 . S
C388 N164 1.768 . S
