# Generated by pormake.
# Topology tbo, (3,4)-cn, num edge types: 1
# Building blocks:
#     Node 0, Type 0, BuildingBlock: WUSLED_clean_sbu_0, # of connection points: 3
#     Node 1, Type 0, BuildingBlock: WUSLED_clean_sbu_0, # of connection points: 3
#     Node 2, Type 0, BuildingBlock: WUSLED_clean_sbu_0, # of connection points: 3
#     Node 3, Type 0, BuildingBlock: WUSLED_clean_sbu_0, # of connection points: 3
#     Node 4, Type 0, BuildingBlock: WUSLED_clean_sbu_0, # of connection points: 3
#     Node 5, Type 0, BuildingBlock: WUSLED_clean_sbu_0, # of connection points: 3
#     Node 6, Type 0, BuildingBlock: WUSLED_clean_sbu_0, # of connection points: 3
#     Node 7, Type 0, BuildingBlock: WUSLED_clean_sbu_0, # of connection points: 3
#     Node 8, Type 0, BuildingBlock: WUSLED_clean_sbu_0, # of connection points: 3
#     Node 9, Type 0, BuildingBlock: WUSLED_clean_sbu_0, # of connection points: 3
#     Node 10, Type 0, BuildingBlock: WUSLED_clean_sbu_0, # of connection points: 3
#     Node 11, Type 0, BuildingBlock: WUSLED_clean_sbu_0, # of connection points: 3
#     Node 12, Type 0, BuildingBlock: WUSLED_clean_sbu_0, # of connection points: 3
#     Node 13, Type 0, BuildingBlock: WUSLED_clean_sbu_0, # of connection points: 3
#     Node 14, Type 0, BuildingBlock: WUSLED_clean_sbu_0, # of connection points: 3
#     Node 15, Type 0, BuildingBlock: WUSLED_clean_sbu_0, # of connection points: 3
#     Node 16, Type 0, BuildingBlock: WUSLED_clean_sbu_0, # of connection points: 3
#     Node 17, Type 0, BuildingBlock: WUSLED_clean_sbu_0, # of connection points: 3
#     Node 18, Type 0, BuildingBlock: WUSLED_clean_sbu_0, # of connection points: 3
#     Node 19, Type 0, BuildingBlock: WUSLED_clean_sbu_0, # of connection points: 3
#     Node 20, Type 0, BuildingBlock: WUSLED_clean_sbu_0, # of connection points: 3
#     Node 21, Type 0, BuildingBlock: WUSLED_clean_sbu_0, # of connection points: 3
#     Node 22, Type 0, BuildingBlock: WUSLED_clean_sbu_0, # of connection points: 3
#     Node 23, Type 0, BuildingBlock: WUSLED_clean_sbu_0, # of connection points: 3
#     Node 24, Type 0, BuildingBlock: WUSLED_clean_sbu_0, # of connection points: 3
#     Node 25, Type 0, BuildingBlock: WUSLED_clean_sbu_0, # of connection points: 3
#     Node 26, Type 0, BuildingBlock: WUSLED_clean_sbu_0, # of connection points: 3
#     Node 27, Type 0, BuildingBlock: WUSLED_clean_sbu_0, # of connection points: 3
#     Node 28, Type 0, BuildingBlock: WUSLED_clean_sbu_0, # of connection points: 3
#     Node 29, Type 0, BuildingBlock: WUSLED_clean_sbu_0, # of connection points: 3
#     Node 30, Type 0, BuildingBlock: WUSLED_clean_sbu_0, # of connection points: 3
#     Node 31, Type 0, BuildingBlock: WUSLED_clean_sbu_0, # of connection points: 3
#     Node 32, Type 1, BuildingBlock: GIZVER_clean_linker_0, # of connection points: 4
#     Node 33, Type 1, BuildingBlock: GIZVER_clean_linker_0, # of connection points: 4
#     Node 34, Type 1, BuildingBlock: GIZVER_clean_linker_0, # of connection points: 4
#     Node 35, Type 1, BuildingBlock: GIZVER_clean_linker_0, # of connection points: 4
#     Node 36, Type 1, BuildingBlock: GIZVER_clean_linker_0, # of connection points: 4
#     Node 37, Type 1, BuildingBlock: GIZVER_clean_linker_0, # of connection points: 4
#     Node 38, Type 1, BuildingBlock: GIZVER_clean_linker_0, # of connection points: 4
#     Node 39, Type 1, BuildingBlock: GIZVER_clean_linker_0, # of connection points: 4
#     Node 40, Type 1, BuildingBlock: GIZVER_clean_linker_0, # of connection points: 4
#     Node 41, Type 1, BuildingBlock: GIZVER_clean_linker_0, # of connection points: 4
#     Node 42, Type 1, BuildingBlock: GIZVER_clean_linker_0, # of connection points: 4
#     Node 43, Type 1, BuildingBlock: GIZVER_clean_linker_0, # of connection points: 4
#     Node 44, Type 1, BuildingBlock: GIZVER_clean_linker_0, # of connection points: 4
#     Node 45, Type 1, BuildingBlock: GIZVER_clean_linker_0, # of connection points: 4
#     Node 46, Type 1, BuildingBlock: GIZVER_clean_linker_0, # of connection points: 4
#     Node 47, Type 1, BuildingBlock: GIZVER_clean_linker_0, # of connection points: 4
#     Node 48, Type 1, BuildingBlock: GIZVER_clean_linker_0, # of connection points: 4
#     Node 49, Type 1, BuildingBlock: GIZVER_clean_linker_0, # of connection points: 4
#     Node 50, Type 1, BuildingBlock: GIZVER_clean_linker_0, # of connection points: 4
#     Node 51, Type 1, BuildingBlock: GIZVER_clean_linker_0, # of connection points: 4
#     Node 52, Type 1, BuildingBlock: GIZVER_clean_linker_0, # of connection points: 4
#     Node 53, Type 1, BuildingBlock: GIZVER_clean_linker_0, # of connection points: 4
#     Node 54, Type 1, BuildingBlock: GIZVER_clean_linker_0, # of connection points: 4
#     Node 55, Type 1, BuildingBlock: GIZVER_clean_linker_0, # of connection points: 4
#     Edge 56, Type (0, 1), None
#     Edge 57, Type (0, 1), None
#     Edge 58, Type (0, 1), None
#     Edge 59, Type (0, 1), None
#     Edge 60, Type (0, 1), None
#     Edge 61, Type (0, 1), None
#     Edge 62, Type (0, 1), None
#     Edge 63, Type (0, 1), None
#     Edge 64, Type (0, 1), None
#     Edge 65, Type (0, 1), None
#     Edge 66, Type (0, 1), None
#     Edge 67, Type (0, 1), None
#     Edge 68, Type (0, 1), None
#     Edge 69, Type (0, 1), None
#     Edge 70, Type (0, 1), None
#     Edge 71, Type (0, 1), None
#     Edge 72, Type (0, 1), None
#     Edge 73, Type (0, 1), None
#     Edge 74, Type (0, 1), None
#     Edge 75, Type (0, 1), None
#     Edge 76, Type (0, 1), None
#     Edge 77, Type (0, 1), None
#     Edge 78, Type (0, 1), None
#     Edge 79, Type (0, 1), None
#     Edge 80, Type (0, 1), None
#     Edge 81, Type (0, 1), None
#     Edge 82, Type (0, 1), None
#     Edge 83, Type (0, 1), None
#     Edge 84, Type (0, 1), None
#     Edge 85, Type (0, 1), None
#     Edge 86, Type (0, 1), None
#     Edge 87, Type (0, 1), None
#     Edge 88, Type (0, 1), None
#     Edge 89, Type (0, 1), None
#     Edge 90, Type (0, 1), None
#     Edge 91, Type (0, 1), None
#     Edge 92, Type (0, 1), None
#     Edge 93, Type (0, 1), None
#     Edge 94, Type (0, 1), None
#     Edge 95, Type (0, 1), None
#     Edge 96, Type (0, 1), None
#     Edge 97, Type (0, 1), None
#     Edge 98, Type (0, 1), None
#     Edge 99, Type (0, 1), None
#     Edge 100, Type (0, 1), None
#     Edge 101, Type (0, 1), None
#     Edge 102, Type (0, 1), None
#     Edge 103, Type (0, 1), None
#     Edge 104, Type (0, 1), None
#     Edge 105, Type (0, 1), None
#     Edge 106, Type (0, 1), None
#     Edge 107, Type (0, 1), None
#     Edge 108, Type (0, 1), None
#     Edge 109, Type (0, 1), None
#     Edge 110, Type (0, 1), None
#     Edge 111, Type (0, 1), None
#     Edge 112, Type (0, 1), None
#     Edge 113, Type (0, 1), None
#     Edge 114, Type (0, 1), None
#     Edge 115, Type (0, 1), None
#     Edge 116, Type (0, 1), None
#     Edge 117, Type (0, 1), None
#     Edge 118, Type (0, 1), None
#     Edge 119, Type (0, 1), None
#     Edge 120, Type (0, 1), None
#     Edge 121, Type (0, 1), None
#     Edge 122, Type (0, 1), None
#     Edge 123, Type (0, 1), None
#     Edge 124, Type (0, 1), None
#     Edge 125, Type (0, 1), None
#     Edge 126, Type (0, 1), None
#     Edge 127, Type (0, 1), None
#     Edge 128, Type (0, 1), None
#     Edge 129, Type (0, 1), None
#     Edge 130, Type (0, 1), None
#     Edge 131, Type (0, 1), None
#     Edge 132, Type (0, 1), None
#     Edge 133, Type (0, 1), None
#     Edge 134, Type (0, 1), None
#     Edge 135, Type (0, 1), None
#     Edge 136, Type (0, 1), None
#     Edge 137, Type (0, 1), None
#     Edge 138, Type (0, 1), None
#     Edge 139, Type (0, 1), None
#     Edge 140, Type (0, 1), None
#     Edge 141, Type (0, 1), None
#     Edge 142, Type (0, 1), None
#     Edge 143, Type (0, 1), None
#     Edge 144, Type (0, 1), None
#     Edge 145, Type (0, 1), None
#     Edge 146, Type (0, 1), None
#     Edge 147, Type (0, 1), None
#     Edge 148, Type (0, 1), None
#     Edge 149, Type (0, 1), None
#     Edge 150, Type (0, 1), None
#     Edge 151, Type (0, 1), None
# Relax obj value: 0.000
# Max RMSD: 0.037
# Mean RMSD: 0.016
data_MOF--net-tbo--node1-WUSLED_clean_sbu_0--node2-GIZVER_clean_linker_0--edge1-none
_symmetry_space_group_name_H-M    P1
_symmetry_Int_Tables_number       1
_symmetry_cell_setting            triclinic
loop_
_symmetry_equiv_pos_as_xyz
'x, y, z'
_cell_length_a     54.505955
_cell_length_b     54.826149
_cell_length_c     54.674925
_cell_angle_alpha  89.524133
_cell_angle_beta   90.512528
_cell_angle_gamma 91.052054
loop_
_atom_site_label
_atom_site_type_symbol
_atom_site_fract_x
_atom_site_fract_y
_atom_site_fract_z
_atom_type_partial_charge
C0 C 0.20108 0.12403 0.21952 0.0
C1 C 0.22659 0.12509 0.21615 0.0
C2 C 0.23166 0.0897 0.24311 0.0
C3 C 0.24173 0.10807 0.22782 0.0
C4 C 0.20597 0.08771 0.24493 0.0
C5 C 0.19087 0.10474 0.23329 0.0
U6 U 0.18223 0.17954 0.179 0.0
O7 O 0.14469 0.19218 0.17071 0.0
O8 O 0.17057 0.21549 0.19118 0.0
C9 C 0.14787 0.21229 0.18338 0.0
C10 C 0.18518 0.14435 0.21188 0.0
C11 C 0.12859 0.21819 0.20118 0.0
C12 C 0.11596 0.22427 0.2432 0.0
C13 C 0.13276 0.21541 0.22643 0.0
C14 C 0.08958 0.23735 0.20991 0.0
C15 C 0.0945 0.23582 0.23512 0.0
C16 C 0.10661 0.22873 0.19305 0.0
C17 C 0.22039 0.20256 0.12467 0.0
C18 C 0.22324 0.24504 0.11169 0.0
C19 C 0.24225 0.21395 0.08743 0.0
C20 C 0.23379 0.19602 0.10396 0.0
C21 C 0.23756 0.23866 0.09156 0.0
C22 C 0.21458 0.22716 0.128 0.0
C23 C 0.21462 0.18416 0.14379 0.0
O24 O 0.19448 0.1664 0.21498 0.0
O25 O 0.17275 0.14198 0.19129 0.0
O26 O 0.1939 0.17171 0.14125 0.0
O27 O 0.21863 0.19142 0.16634 0.0
H28 H 0.23491 0.13977 0.20554 0.0
H29 H 0.26143 0.11 0.22582 0.0
H30 H 0.19754 0.07406 0.25674 0.0
H31 H 0.17124 0.10363 0.23622 0.0
H32 H 0.12007 0.22272 0.26257 0.0
H33 H 0.14944 0.20719 0.23322 0.0
H34 H 0.0732 0.24623 0.20327 0.0
H35 H 0.10302 0.23107 0.17366 0.0
H36 H 0.21948 0.26401 0.11525 0.0
H37 H 0.25343 0.20867 0.07214 0.0
H38 H 0.23851 0.17716 0.10108 0.0
H39 H 0.20422 0.23266 0.14379 0.0
C40 C 0.80983 0.1934 0.12496 0.0
C41 C 0.81688 0.21814 0.12424 0.0
C42 C 0.7881 0.22538 0.09059 0.0
C43 C 0.80609 0.23399 0.10722 0.0
C44 C 0.78233 0.20027 0.09036 0.0
C45 C 0.79306 0.18446 0.10746 0.0
U46 U 0.85129 0.17705 0.17999 0.0
O47 O 0.84037 0.16563 0.2169 0.0
O48 O 0.86156 0.14078 0.19439 0.0
C49 C 0.8496 0.14377 0.2149 0.0
C50 C 0.81742 0.17743 0.14542 0.0
C51 C 0.83366 0.12336 0.22333 0.0
C52 C 0.79297 0.10616 0.23107 0.0
C53 C 0.8082 0.12327 0.21916 0.0
C54 C 0.82857 0.08797 0.25009 0.0
C55 C 0.80291 0.0888 0.24733 0.0
C56 C 0.84376 0.10512 0.23824 0.0
C57 C 0.90515 0.21838 0.19965 0.0
C58 C 0.91882 0.22441 0.24165 0.0
C59 C 0.94421 0.23913 0.20833 0.0
C60 C 0.92679 0.23004 0.19148 0.0
C61 C 0.94001 0.2369 0.23356 0.0
C62 C 0.90165 0.21508 0.22489 0.0
C63 C 0.8856 0.21135 0.182 0.0
O64 O 0.83833 0.16609 0.14317 0.0
O65 O 0.81439 0.18655 0.16731 0.0
O66 O 0.86307 0.21422 0.18968 0.0
O67 O 0.88843 0.19073 0.17031 0.0
H68 H 0.82984 0.22542 0.13756 0.0
H69 H 0.81109 0.2532 0.10772 0.0
H70 H 0.76839 0.19308 0.07801 0.0
H71 H 0.78732 0.16543 0.10778 0.0
H72 H 0.7733 0.10717 0.22838 0.0
H73 H 0.79999 0.13713 0.20763 0.0
H74 H 0.83687 0.0751 0.26267 0.0
H75 H 0.86336 0.10491 0.24176 0.0
H76 H 0.91527 0.22238 0.26104 0.0
H77 H 0.9604 0.24875 0.20171 0.0
H78 H 0.92986 0.23276 0.17209 0.0
H79 H 0.88524 0.20598 0.2317 0.0
C80 C 0.81053 0.84007 0.12794 0.0
C81 C 0.81739 0.81556 0.12672 0.0
C82 C 0.78813 0.80854 0.09332 0.0
C83 C 0.80627 0.79994 0.10958 0.0
C84 C 0.78245 0.83347 0.09368 0.0
C85 C 0.79351 0.84905 0.11088 0.0
U86 U 0.85374 0.85564 0.1819 0.0
O87 O 0.86594 0.89167 0.19574 0.0
O88 O 0.8444 0.86677 0.21908 0.0
C89 C 0.85427 0.88868 0.21653 0.0
C90 C 0.81892 0.85577 0.14827 0.0
C91 C 0.83868 0.90885 0.22435 0.0
C92 C 0.79872 0.92776 0.22614 0.0
C93 C 0.81449 0.91094 0.21567 0.0
C94 C 0.83156 0.94161 0.25304 0.0
C95 C 0.80685 0.94279 0.24549 0.0
C96 C 0.84728 0.92475 0.24259 0.0
C97 C 0.90675 0.812 0.19764 0.0
C98 C 0.92432 0.80356 0.23784 0.0
C99 C 0.94162 0.78517 0.20193 0.0
C100 C 0.92452 0.79726 0.18717 0.0
C101 C 0.94122 0.78752 0.22754 0.0
C102 C 0.90725 0.81571 0.22303 0.0
C103 C 0.88636 0.82087 0.18218 0.0
O104 O 0.81615 0.84626 0.17022 0.0
O105 O 0.84009 0.86732 0.14554 0.0
O106 O 0.88978 0.84181 0.1707 0.0
O107 O 0.86436 0.81838 0.19161 0.0
H108 H 0.83056 0.80828 0.13969 0.0
H109 H 0.8112 0.78089 0.10965 0.0
H110 H 0.76837 0.84067 0.08167 0.0
H111 H 0.78793 0.8679 0.11158 0.0
H112 H 0.77987 0.92836 0.21975 0.0
H113 H 0.80751 0.89886 0.20154 0.0
H114 H 0.83838 0.95263 0.26806 0.0
H115 H 0.86587 0.92335 0.24958 0.0
H116 H 0.92365 0.80594 0.25747 0.0
H117 H 0.9541 0.77276 0.19337 0.0
H118 H 0.92439 0.79409 0.16763 0.0
H119 H 0.89376 0.8271 0.23151 0.0
C120 C 0.12551 0.80956 0.19539 0.0
C121 C 0.12558 0.81421 0.22061 0.0
C122 C 0.09044 0.78646 0.22606 0.0
C123 C 0.10821 0.80274 0.23581 0.0
C124 C 0.08953 0.78317 0.20056 0.0
C125 C 0.10692 0.79457 0.18542 0.0
U126 U 0.17988 0.85248 0.17802 0.0
O127 O 0.21703 0.84281 0.16699 0.0
O128 O 0.19334 0.86233 0.14113 0.0
C129 C 0.21398 0.85062 0.1444 0.0
C130 C 0.14599 0.81774 0.17965 0.0
C131 C 0.22051 0.83303 0.12528 0.0
C132 C 0.22412 0.7911 0.11189 0.0
C133 C 0.21521 0.80805 0.1284 0.0
C134 C 0.24242 0.82386 0.08785 0.0
C135 C 0.2382 0.7988 0.09175 0.0
C136 C 0.23373 0.84087 0.10462 0.0
C137 C 0.19675 0.90729 0.21928 0.0
C138 C 0.23743 0.92569 0.22406 0.0
C139 C 0.20335 0.94146 0.2468 0.0
C140 C 0.18761 0.9243 0.23571 0.0
C141 C 0.22862 0.94185 0.24173 0.0
C142 C 0.22164 0.90856 0.21293 0.0
C143 C 0.18078 0.88675 0.21141 0.0
O144 O 0.14317 0.83818 0.16729 0.0
O145 O 0.16805 0.81565 0.18926 0.0
O146 O 0.18999 0.86499 0.21479 0.0
O147 O 0.16924 0.8891 0.19031 0.0
H148 H 0.13971 0.82581 0.2287 0.0
H149 H 0.1093 0.80583 0.25534 0.0
H150 H 0.07637 0.77054 0.19243 0.0
H151 H 0.10659 0.79069 0.16602 0.0
H152 H 0.22062 0.77184 0.11522 0.0
H153 H 0.20492 0.80154 0.1441 0.0
H154 H 0.25334 0.83016 0.07251 0.0
H155 H 0.238 0.86007 0.10187 0.0
H156 H 0.25675 0.92566 0.21957 0.0
H157 H 0.19595 0.95336 0.26051 0.0
H158 H 0.16847 0.92354 0.24092 0.0
H159 H 0.22907 0.89559 0.20025 0.0
C160 C 0.12009 0.8175 0.83463 0.0
C161 C 0.11936 0.82475 0.80996 0.0
C162 C 0.0861 0.79533 0.80197 0.0
C163 C 0.10247 0.81379 0.79378 0.0
C164 C 0.08583 0.78943 0.82707 0.0
C165 C 0.1027 0.80039 0.8432 0.0
U166 U 0.17617 0.85789 0.85339 0.0
O167 O 0.18985 0.86603 0.89073 0.0
O168 O 0.21261 0.84598 0.86515 0.0
C169 C 0.20989 0.85343 0.88774 0.0
C170 C 0.14061 0.82487 0.85087 0.0
C171 C 0.2159 0.83531 0.90697 0.0
C172 C 0.22151 0.79309 0.91947 0.0
C173 C 0.2124 0.81022 0.90281 0.0
C174 C 0.23614 0.82571 0.94573 0.0
C175 C 0.23393 0.80068 0.94079 0.0
C176 C 0.22729 0.84292 0.92884 0.0
C177 C 0.19864 0.91201 0.81426 0.0
C178 C 0.24139 0.92481 0.8105 0.0
C179 C 0.20957 0.94935 0.79206 0.0
C180 C 0.19171 0.93283 0.80092 0.0
C181 C 0.23457 0.94507 0.79626 0.0
C182 C 0.2236 0.90852 0.81958 0.0
C183 C 0.18016 0.89293 0.82044 0.0
O184 O 0.16261 0.82186 0.84188 0.0
O185 O 0.13856 0.84545 0.86282 0.0
O186 O 0.16826 0.89551 0.84107 0.0
O187 O 0.18716 0.87045 0.81686 0.0
H188 H 0.13262 0.83796 0.80298 0.0
H189 H 0.103 0.81894 0.77462 0.0
H190 H 0.07374 0.77513 0.834 0.0
H191 H 0.10305 0.79448 0.86216 0.0
H192 H 0.21962 0.77386 0.9153 0.0
H193 H 0.20352 0.80384 0.88618 0.0
H194 H 0.24582 0.83193 0.96197 0.0
H195 H 0.23019 0.86217 0.93241 0.0
H196 H 0.2606 0.92117 0.81391 0.0
H197 H 0.20395 0.96477 0.78097 0.0
H198 H 0.17257 0.93583 0.79658 0.0
H199 H 0.2294 0.89265 0.82989 0.0
C200 C 0.12179 0.1955 0.81048 0.0
C201 C 0.11217 0.21385 0.82518 0.0
C202 C 0.08781 0.2287 0.79068 0.0
C203 C 0.09515 0.23026 0.81537 0.0
C204 C 0.09668 0.2096 0.77644 0.0
C205 C 0.11345 0.19314 0.78628 0.0
U206 U 0.17571 0.18005 0.85381 0.0
O207 O 0.18939 0.14391 0.86513 0.0
O208 O 0.21291 0.16924 0.8442 0.0
C209 C 0.21024 0.1472 0.85352 0.0
C210 C 0.14209 0.18007 0.81898 0.0
C211 C 0.21827 0.12716 0.83777 0.0
C212 C 0.22503 0.11056 0.79729 0.0
C213 C 0.21374 0.12744 0.81244 0.0
C214 C 0.24414 0.0919 0.83276 0.0
C215 C 0.24098 0.09305 0.8072 0.0
C216 C 0.23293 0.10883 0.84786 0.0
C217 C 0.19277 0.22239 0.90753 0.0
C218 C 0.23367 0.22917 0.92469 0.0
C219 C 0.19871 0.24806 0.94327 0.0
C220 C 0.18315 0.23693 0.92598 0.0
C221 C 0.22426 0.24495 0.94237 0.0
C222 C 0.21807 0.21795 0.90746 0.0
C223 C 0.17661 0.21429 0.88722 0.0
O224 O 0.16409 0.18989 0.81649 0.0
O225 O 0.13921 0.16846 0.83994 0.0
O226 O 0.16476 0.19337 0.89011 0.0
O227 O 0.18577 0.21719 0.86521 0.0
H228 H 0.11853 0.21607 0.84387 0.0
H229 H 0.08886 0.24502 0.82664 0.0
H230 H 0.09137 0.208 0.75737 0.0
H231 H 0.1207 0.17914 0.77464 0.0
H232 H 0.22208 0.11182 0.77771 0.0
H233 H 0.20237 0.14137 0.80426 0.0
H234 H 0.25652 0.07891 0.84101 0.0
H235 H 0.2367 0.10834 0.86735 0.0
H236 H 0.25323 0.22626 0.9236 0.0
H237 H 0.19084 0.26032 0.95637 0.0
H238 H 0.1637 0.24064 0.92632 0.0
H239 H 0.22589 0.20669 0.89345 0.0
C240 C 0.81522 0.12591 0.84493 0.0
C241 C 0.81971 0.1267 0.81967 0.0
C242 C 0.79329 0.09073 0.81361 0.0
C243 C 0.80882 0.10929 0.80416 0.0
C244 C 0.79024 0.08913 0.83912 0.0
C245 C 0.80105 0.10658 0.85458 0.0
U246 U 0.8557 0.18176 0.86285 0.0
O247 O 0.84387 0.21814 0.87375 0.0
O248 O 0.86509 0.19586 0.89953 0.0
C249 C 0.85303 0.21616 0.89596 0.0
C250 C 0.82247 0.14641 0.86099 0.0
C251 C 0.83679 0.22409 0.91569 0.0
C252 C 0.79986 0.2193 0.94015 0.0
C253 C 0.81682 0.20969 0.92377 0.0
C254 C 0.82319 0.25731 0.94107 0.0
C255 C 0.80253 0.24347 0.94836 0.0
C256 C 0.84017 0.24768 0.92497 0.0
C257 C 0.90968 0.20335 0.82318 0.0
C258 C 0.92227 0.2456 0.81622 0.0
C259 C 0.94785 0.21307 0.80199 0.0
C260 C 0.93116 0.19581 0.81164 0.0
C261 C 0.94311 0.23809 0.80355 0.0
C262 C 0.90581 0.22842 0.82611 0.0
C263 C 0.89039 0.18521 0.82981 0.0
O264 O 0.84319 0.14452 0.87333 0.0
O265 O 0.81922 0.16829 0.85167 0.0
O266 O 0.86776 0.19228 0.82604 0.0
O267 O 0.89324 0.17345 0.85068 0.0
H268 H 0.83066 0.14141 0.8118 0.0
H269 H 0.81172 0.11094 0.78464 0.0
H270 H 0.77817 0.07534 0.84704 0.0
H271 H 0.79728 0.10567 0.874 0.0
H272 H 0.7839 0.20839 0.94521 0.0
H273 H 0.81382 0.19149 0.91666 0.0
H274 H 0.8256 0.27601 0.94703 0.0
H275 H 0.85542 0.25908 0.9189 0.0
H276 H 0.91822 0.26482 0.81758 0.0
H277 H 0.96367 0.20688 0.7921 0.0
H278 H 0.93449 0.17657 0.80917 0.0
H279 H 0.88947 0.23473 0.83507 0.0
C280 C 0.83283 0.90658 0.81576 0.0
C281 C 0.80794 0.90333 0.82165 0.0
C282 C 0.79773 0.94023 0.79893 0.0
C283 C 0.79056 0.91991 0.81316 0.0
C284 C 0.82273 0.94421 0.79407 0.0
C285 C 0.84017 0.92741 0.80236 0.0
U286 U 0.8541 0.85299 0.8554 0.0
O287 O 0.86633 0.81673 0.84473 0.0
O288 O 0.89143 0.84085 0.86525 0.0
C289 C 0.88862 0.82009 0.85358 0.0
C290 C 0.85074 0.88744 0.82181 0.0
C291 C 0.90861 0.81287 0.83722 0.0
C292 C 0.92545 0.8098 0.79634 0.0
C293 C 0.90902 0.82029 0.8126 0.0
C294 C 0.94238 0.78557 0.82941 0.0
C295 C 0.94177 0.79169 0.80437 0.0
C296 C 0.9259 0.79603 0.84564 0.0
C297 C 0.81227 0.83458 0.91011 0.0
C298 C 0.80321 0.79421 0.92696 0.0
C299 C 0.78644 0.82987 0.946 0.0
C300 C 0.79846 0.84481 0.92883 0.0
C301 C 0.78791 0.80431 0.94474 0.0
C302 C 0.81527 0.8092 0.90979 0.0
C303 C 0.82043 0.85036 0.88958 0.0
O304 O 0.86344 0.89024 0.84219 0.0
O305 O 0.8427 0.86493 0.81869 0.0
O306 O 0.81755 0.84113 0.86761 0.0
O307 O 0.84124 0.8626 0.89231 0.0
H308 H 0.80182 0.88749 0.83205 0.0
H309 H 0.77135 0.91646 0.81707 0.0
H310 H 0.82861 0.95965 0.78296 0.0
H311 H 0.85926 0.93026 0.7976 0.0
H312 H 0.92466 0.81508 0.77721 0.0
H313 H 0.89587 0.8333 0.80571 0.0
H314 H 0.95446 0.77153 0.83619 0.0
H315 H 0.92582 0.79 0.86456 0.0
H316 H 0.80494 0.77462 0.92561 0.0
H317 H 0.77463 0.83831 0.95918 0.0
H318 H 0.79583 0.86434 0.92935 0.0
H319 H 0.82592 0.80088 0.89557 0.0
C320 C 0.19289 0.62585 0.72596 0.0
C321 C 0.21037 0.61519 0.71083 0.0
C322 C 0.22621 0.59168 0.74548 0.0
C323 C 0.22682 0.5981 0.7205 0.0
C324 C 0.20801 0.6017 0.76023 0.0
C325 C 0.19152 0.61854 0.75055 0.0
U326 U 0.17687 0.67888 0.68203 0.0
O327 O 0.14066 0.69268 0.6708 0.0
O328 O 0.16634 0.7162 0.69131 0.0
C329 C 0.14421 0.71367 0.68188 0.0
C330 C 0.17728 0.64598 0.71736 0.0
C331 C 0.12413 0.72262 0.69723 0.0
C332 C 0.0928 0.71671 0.72837 0.0
C333 C 0.11034 0.70707 0.71262 0.0
C334 C 0.10231 0.75733 0.71309 0.0
C335 C 0.08902 0.74203 0.72915 0.0
C336 C 0.1196 0.74771 0.69728 0.0
C337 C 0.21902 0.69486 0.6278 0.0
C338 C 0.22362 0.73527 0.60951 0.0
C339 C 0.24617 0.70153 0.59316 0.0
C340 C 0.23529 0.68585 0.61047 0.0
C341 C 0.24107 0.7266 0.59299 0.0
C342 C 0.21267 0.71955 0.62672 0.0
C343 C 0.21104 0.67901 0.64832 0.0
O344 O 0.18721 0.66788 0.71941 0.0
O345 O 0.16525 0.64286 0.69662 0.0
O346 O 0.18986 0.66739 0.64576 0.0
O347 O 0.2142 0.68842 0.67016 0.0
H348 H 0.21185 0.62071 0.69182 0.0
H349 H 0.24084 0.59093 0.70877 0.0
H350 H 0.20707 0.59709 0.77951 0.0
H351 H 0.17822 0.62657 0.76254 0.0
H352 H 0.0831 0.70451 0.74078 0.0
H353 H 0.11361 0.68764 0.71298 0.0
H354 H 0.0998 0.77689 0.71328 0.0
H355 H 0.13 0.76003 0.68554 0.0
H356 H 0.21915 0.75444 0.60973 0.0
H357 H 0.2597 0.6943 0.58092 0.0
H358 H 0.24049 0.66687 0.61104 0.0
H359 H 0.20008 0.72688 0.63989 0.0
C360 C 0.80534 0.69959 0.62408 0.0
C361 C 0.82207 0.71536 0.61218 0.0
C362 C 0.78836 0.73521 0.59068 0.0
C363 C 0.81364 0.73295 0.59546 0.0
C364 C 0.77185 0.71875 0.60195 0.0
C365 C 0.78027 0.70109 0.61841 0.0
U366 U 0.84778 0.6809 0.67749 0.0
O367 O 0.83758 0.66846 0.7143 0.0
O368 O 0.85799 0.64412 0.69053 0.0
C369 C 0.84657 0.64661 0.71142 0.0
C370 C 0.81307 0.68283 0.64384 0.0
C371 C 0.83068 0.62609 0.71966 0.0
C372 C 0.79005 0.60877 0.72743 0.0
C373 C 0.8052 0.62606 0.71566 0.0
C374 C 0.82578 0.59035 0.74597 0.0
C375 C 0.8001 0.59121 0.7434 0.0
C376 C 0.84089 0.60766 0.73425 0.0
C377 C 0.90232 0.72115 0.69725 0.0
C378 C 0.91719 0.72409 0.73918 0.0
C379 C 0.94029 0.74355 0.70654 0.0
C380 C 0.92286 0.73491 0.68948 0.0
C381 C 0.9372 0.7387 0.73158 0.0
C382 C 0.90001 0.71525 0.72217 0.0
C383 C 0.88241 0.71485 0.67976 0.0
O384 O 0.8337 0.67117 0.64082 0.0
O385 O 0.81066 0.69136 0.66604 0.0
O386 O 0.86011 0.71764 0.68809 0.0
O387 O 0.8848 0.69457 0.66739 0.0
H388 H 0.8415 0.71466 0.61644 0.0
H389 H 0.82674 0.74562 0.58731 0.0
H390 H 0.75229 0.72009 0.59861 0.0
H391 H 0.76707 0.68913 0.62742 0.0
H392 H 0.77036 0.60981 0.72489 0.0
H393 H 0.79692 0.64007 0.70438 0.0
H394 H 0.83417 0.57734 0.75833 0.0
H395 H 0.8605 0.60741 0.73763 0.0
H396 H 0.91447 0.72015 0.75843 0.0
H397 H 0.95552 0.7549 0.70034 0.0
H398 H 0.92497 0.73968 0.67033 0.0
H399 H 0.8844 0.70457 0.72861 0.0
C400 C 0.81602 0.33562 0.62726 0.0
C401 C 0.81999 0.31065 0.63117 0.0
C402 C 0.79672 0.30076 0.59423 0.0
C403 C 0.81028 0.2934 0.61491 0.0
C404 C 0.79394 0.32577 0.5895 0.0
C405 C 0.80342 0.34309 0.60601 0.0
U406 U 0.85632 0.35759 0.68095 0.0
O407 O 0.86597 0.39494 0.69314 0.0
O408 O 0.84523 0.36997 0.71715 0.0
C409 C 0.85415 0.39216 0.71388 0.0
C410 C 0.82275 0.35361 0.64628 0.0
C411 C 0.8378 0.41192 0.72112 0.0
C412 C 0.7968 0.42817 0.72479 0.0
C413 C 0.81297 0.41187 0.71411 0.0
C414 C 0.83039 0.44575 0.74841 0.0
C415 C 0.80517 0.44477 0.74269 0.0
C416 C 0.84651 0.42944 0.73775 0.0
C417 C 0.91029 0.31911 0.70319 0.0
C418 C 0.92361 0.31479 0.74555 0.0
C419 C 0.94784 0.29759 0.71326 0.0
C420 C 0.93113 0.30648 0.69582 0.0
C421 C 0.94376 0.30105 0.7383 0.0
C422 C 0.90712 0.32392 0.72815 0.0
C423 C 0.89082 0.32488 0.68517 0.0
O424 O 0.81948 0.34604 0.6689 0.0
O425 O 0.84347 0.36594 0.64333 0.0
O426 O 0.89366 0.34516 0.67241 0.0
O427 O 0.86828 0.32142 0.69297 0.0
H428 H 0.82975 0.30442 0.64733 0.0
H429 H 0.81272 0.27419 0.61886 0.0
H430 H 0.78347 0.33182 0.57372 0.0
H431 H 0.80012 0.36226 0.60267 0.0
H432 H 0.77753 0.4271 0.71979 0.0
H433 H 0.80588 0.39849 0.70126 0.0
H434 H 0.83746 0.45803 0.76231 0.0
H435 H 0.8656 0.42969 0.74348 0.0
H436 H 0.92005 0.31755 0.76479 0.0
H437 H 0.9631 0.2868 0.70731 0.0
H438 H 0.9339 0.30255 0.67667 0.0
H439 H 0.89126 0.33371 0.7343 0.0
C440 C 0.12142 0.31639 0.69563 0.0
C441 C 0.11241 0.32981 0.71529 0.0
C442 C 0.08748 0.2947 0.7283 0.0
C443 C 0.0954 0.31907 0.73145 0.0
C444 C 0.09571 0.28183 0.70792 0.0
C445 C 0.11245 0.29261 0.69173 0.0
U446 U 0.17606 0.36001 0.68051 0.0
O447 O 0.21299 0.35005 0.66906 0.0
O448 O 0.1899 0.37151 0.64424 0.0
C449 C 0.21057 0.3598 0.64717 0.0
C450 C 0.14183 0.32554 0.68037 0.0
C451 C 0.21835 0.34433 0.62682 0.0
C452 C 0.22049 0.30455 0.60766 0.0
C453 C 0.20987 0.32011 0.62464 0.0
C454 C 0.24712 0.33763 0.5939 0.0
C455 C 0.23979 0.31293 0.59259 0.0
C456 C 0.23652 0.35314 0.61088 0.0
C457 C 0.19649 0.41246 0.72178 0.0
C458 C 0.23869 0.42755 0.72326 0.0
C459 C 0.2075 0.44805 0.74626 0.0
C460 C 0.18976 0.43137 0.73741 0.0
C461 C 0.23219 0.44587 0.73967 0.0
C462 C 0.22099 0.41109 0.71426 0.0
C463 C 0.17852 0.39311 0.71503 0.0
O464 O 0.13915 0.34677 0.66936 0.0
O465 O 0.16378 0.32278 0.68996 0.0
O466 O 0.18644 0.37075 0.71781 0.0
O467 O 0.16634 0.39631 0.69441 0.0
H468 H 0.11927 0.34815 0.7187 0.0
H469 H 0.0896 0.32926 0.7472 0.0
H470 H 0.08996 0.26303 0.70512 0.0
H471 H 0.11923 0.28194 0.67671 0.0
H472 H 0.21424 0.2857 0.60697 0.0
H473 H 0.19581 0.31296 0.63676 0.0
H474 H 0.26212 0.34466 0.58288 0.0
H475 H 0.24337 0.37175 0.61236 0.0
H476 H 0.25768 0.42547 0.71807 0.0
H477 H 0.20216 0.4619 0.75908 0.0
H478 H 0.17096 0.4327 0.74346 0.0
H479 H 0.22661 0.3967 0.70217 0.0
C480 C 0.12371 0.31304 0.33935 0.0
C481 C 0.12313 0.32027 0.31468 0.0
C482 C 0.09022 0.29061 0.3064 0.0
C483 C 0.10656 0.30913 0.29835 0.0
C484 C 0.08976 0.28464 0.33147 0.0
C485 C 0.10643 0.29572 0.34777 0.0
U486 U 0.17797 0.35574 0.35601 0.0
O487 O 0.1916 0.36749 0.39238 0.0
O488 O 0.21501 0.34633 0.36832 0.0
C489 C 0.21239 0.35596 0.39004 0.0
C490 C 0.14379 0.32123 0.35578 0.0
C491 C 0.22043 0.34057 0.41081 0.0
C492 C 0.22743 0.30039 0.42849 0.0
C493 C 0.21579 0.31528 0.41115 0.0
C494 C 0.24705 0.33601 0.44647 0.0
C495 C 0.24385 0.3105 0.44584 0.0
C496 C 0.23549 0.35087 0.42906 0.0
C497 C 0.19619 0.40828 0.3123 0.0
C498 C 0.22879 0.43828 0.3201 0.0
C499 C 0.21541 0.43029 0.27852 0.0
C500 C 0.19799 0.41337 0.2872 0.0
C501 C 0.23134 0.44258 0.29482 0.0
C502 C 0.21145 0.42113 0.32877 0.0
C503 C 0.17958 0.38831 0.32043 0.0
O504 O 0.16598 0.31841 0.34717 0.0
O505 O 0.14109 0.34227 0.36672 0.0
O506 O 0.16757 0.39155 0.34089 0.0
O507 O 0.18855 0.36634 0.31864 0.0
H508 H 0.13627 0.33367 0.30782 0.0
H509 H 0.10725 0.31423 0.27917 0.0
H510 H 0.07764 0.27028 0.33822 0.0
H511 H 0.10664 0.28986 0.36675 0.0
H512 H 0.22445 0.28082 0.42763 0.0
H513 H 0.20415 0.30693 0.39728 0.0
H514 H 0.25976 0.3444 0.45936 0.0
H515 H 0.23937 0.37033 0.42907 0.0
H516 H 0.24105 0.44721 0.33306 0.0
H517 H 0.21695 0.43323 0.25897 0.0
H518 H 0.18643 0.40364 0.27418 0.0
H519 H 0.21051 0.41735 0.34822 0.0
C520 C 0.12411 0.69434 0.31677 0.0
C521 C 0.12424 0.71969 0.3203 0.0
C522 C 0.08958 0.72376 0.29201 0.0
C523 C 0.10714 0.73426 0.30801 0.0
C524 C 0.08856 0.6982 0.28987 0.0
C525 C 0.1057 0.68367 0.30209 0.0
U526 U 0.17811 0.67952 0.36051 0.0
O527 O 0.19161 0.6435 0.37245 0.0
O528 O 0.21524 0.66831 0.35106 0.0
C529 C 0.21243 0.64642 0.36071 0.0
C530 C 0.14446 0.67914 0.32572 0.0
C531 C 0.22013 0.62609 0.34515 0.0
C532 C 0.22576 0.6086 0.30485 0.0
C533 C 0.215 0.62589 0.31992 0.0
C534 C 0.24561 0.5905 0.34021 0.0
C535 C 0.24177 0.59112 0.31472 0.0
C536 C 0.23493 0.60786 0.35524 0.0
C537 C 0.19492 0.72325 0.41333 0.0
C538 C 0.22994 0.71853 0.44088 0.0
C539 C 0.21024 0.75763 0.43711 0.0
C540 C 0.19329 0.74764 0.4205 0.0
C541 C 0.22909 0.74337 0.44704 0.0
C542 C 0.21305 0.70855 0.42399 0.0
C543 C 0.17895 0.71449 0.39319 0.0
O544 O 0.16656 0.68872 0.32309 0.0
O545 O 0.14146 0.66784 0.34682 0.0
O546 O 0.16724 0.69354 0.39648 0.0
O547 O 0.18836 0.71689 0.37126 0.0
H548 H 0.13824 0.72833 0.33163 0.0
H549 H 0.1083 0.75387 0.31022 0.0
H550 H 0.07555 0.68948 0.27749 0.0
H551 H 0.10533 0.66416 0.29906 0.0
H552 H 0.22228 0.60946 0.28533 0.0
H553 H 0.20352 0.63973 0.31174 0.0
H554 H 0.25806 0.57755 0.34841 0.0
H555 H 0.23917 0.60773 0.37464 0.0
H556 H 0.24451 0.70724 0.44799 0.0
H557 H 0.20923 0.77683 0.44148 0.0
H558 H 0.17949 0.75929 0.41245 0.0
H559 H 0.21472 0.6897 0.41855 0.0
C560 C 0.80808 0.62242 0.34228 0.0
C561 C 0.82333 0.61324 0.32407 0.0
C562 C 0.78936 0.5883 0.30814 0.0
C563 C 0.81406 0.59616 0.3072 0.0
C564 C 0.77459 0.59669 0.32715 0.0
C565 C 0.78388 0.61354 0.34407 0.0
U566 U 0.851 0.6766 0.35783 0.0
O567 O 0.84155 0.71381 0.36816 0.0
O568 O 0.86254 0.69116 0.39383 0.0
C569 C 0.8511 0.71181 0.39022 0.0
C570 C 0.81603 0.64289 0.35798 0.0
C571 C 0.83574 0.7206 0.41035 0.0
C572 C 0.79559 0.72909 0.42712 0.0
C573 C 0.81014 0.7171 0.41014 0.0
C574 C 0.83212 0.74691 0.44572 0.0
C575 C 0.80636 0.74474 0.44466 0.0
C576 C 0.84662 0.73499 0.42869 0.0
C577 C 0.90502 0.69211 0.31483 0.0
C578 C 0.92317 0.73235 0.30739 0.0
C579 C 0.94026 0.69695 0.28812 0.0
C580 C 0.92283 0.68198 0.29982 0.0
C581 C 0.94016 0.72242 0.29113 0.0
C582 C 0.90576 0.71733 0.31915 0.0
C583 C 0.88443 0.67652 0.32345 0.0
O584 O 0.83692 0.64053 0.36993 0.0
O585 O 0.81353 0.6646 0.34805 0.0
O586 O 0.86251 0.68571 0.32048 0.0
O587 O 0.8873 0.66538 0.34465 0.0
H588 H 0.84202 0.62002 0.32227 0.0
H589 H 0.82575 0.59027 0.29254 0.0
H590 H 0.75549 0.59098 0.32829 0.0
H591 H 0.77181 0.62046 0.35794 0.0
H592 H 0.77583 0.72686 0.42593 0.0
H593 H 0.80132 0.70598 0.3962 0.0
H594 H 0.84104 0.75902 0.45872 0.0
H595 H 0.86633 0.73799 0.42913 0.0
H596 H 0.92271 0.75186 0.31026 0.0
H597 H 0.9528 0.68868 0.27552 0.0
H598 H 0.92252 0.66258 0.29619 0.0
H599 H 0.89223 0.72553 0.33076 0.0
C600 C 0.84419 0.4115 0.31503 0.0
C601 C 0.81911 0.41127 0.32064 0.0
C602 C 0.8125 0.44559 0.29271 0.0
C603 C 0.80342 0.42814 0.30957 0.0
C604 C 0.83791 0.4468 0.28848 0.0
C605 C 0.85357 0.42984 0.29948 0.0
U606 U 0.86142 0.35643 0.35608 0.0
O607 O 0.87217 0.31989 0.34476 0.0
O608 O 0.89818 0.34263 0.36574 0.0
C609 C 0.89453 0.32218 0.35373 0.0
C610 C 0.86013 0.3912 0.32261 0.0
C611 C 0.91426 0.31433 0.33741 0.0
C612 C 0.93074 0.31016 0.2965 0.0
C613 C 0.91467 0.3213 0.31265 0.0
C614 C 0.94737 0.28619 0.32992 0.0
C615 C 0.9467 0.29184 0.30478 0.0
C616 C 0.93125 0.2973 0.34605 0.0
C617 C 0.82115 0.33576 0.40992 0.0
C618 C 0.81368 0.29379 0.42304 0.0
C619 C 0.80006 0.32693 0.44826 0.0
C620 C 0.80982 0.3438 0.43133 0.0
C621 C 0.80132 0.30179 0.44386 0.0
C622 C 0.82367 0.31058 0.40633 0.0
C623 C 0.82807 0.3535 0.39051 0.0
O624 O 0.87225 0.39351 0.3434 0.0
O625 O 0.85062 0.36924 0.31951 0.0
O626 O 0.82437 0.34595 0.368 0.0
O627 O 0.84906 0.3654 0.39335 0.0
H628 H 0.81146 0.39732 0.33264 0.0
H629 H 0.78396 0.42685 0.31337 0.0
H630 H 0.84547 0.4598 0.27544 0.0
H631 H 0.87286 0.43029 0.29484 0.0
H632 H 0.92992 0.31507 0.27728 0.0
H633 H 0.90175 0.33445 0.3056 0.0
H634 H 0.95917 0.27201 0.3369 0.0
H635 H 0.93116 0.29162 0.36507 0.0
H636 H 0.81479 0.27447 0.41925 0.0
H637 H 0.79041 0.33349 0.46407 0.0
H638 H 0.80765 0.36313 0.43445 0.0
H639 H 0.83244 0.30388 0.39007 0.0
C640 C 0.69854 0.12306 0.725 0.0
C641 C 0.72398 0.12406 0.72112 0.0
C642 C 0.72958 0.08892 0.74827 0.0
C643 C 0.73934 0.10716 0.73265 0.0
C644 C 0.70393 0.08701 0.7507 0.0
C645 C 0.68861 0.10395 0.73922 0.0
U646 U 0.67965 0.17707 0.68286 0.0
O647 O 0.6422 0.18956 0.6739 0.0
O648 O 0.66813 0.21359 0.69346 0.0
C649 C 0.64541 0.21013 0.68581 0.0
C650 C 0.68248 0.14315 0.71708 0.0
C651 C 0.62615 0.21667 0.70343 0.0
C652 C 0.61354 0.224 0.74525 0.0
C653 C 0.63036 0.21469 0.72874 0.0
C654 C 0.58707 0.23596 0.71162 0.0
C655 C 0.592 0.23521 0.73686 0.0
C656 C 0.60412 0.22689 0.69501 0.0
C657 C 0.71966 0.19562 0.6274 0.0
C658 C 0.72354 0.23643 0.60989 0.0
C659 C 0.7464 0.20338 0.59263 0.0
C660 C 0.73585 0.1872 0.60968 0.0
C661 C 0.74103 0.22838 0.59307 0.0
C662 C 0.71296 0.22022 0.6269 0.0
C663 C 0.71246 0.17928 0.64783 0.0
O664 O 0.69182 0.16529 0.71937 0.0
O665 O 0.66982 0.14015 0.6967 0.0
O666 O 0.69147 0.16723 0.64567 0.0
O667 O 0.71611 0.18826 0.66979 0.0
H668 H 0.73209 0.13858 0.71013 0.0
H669 H 0.75899 0.10902 0.73022 0.0
H670 H 0.69575 0.07345 0.76278 0.0
H671 H 0.66904 0.10287 0.74252 0.0
H672 H 0.61767 0.22302 0.76465 0.0
H673 H 0.64707 0.20672 0.73578 0.0
H674 H 0.57064 0.24456 0.70471 0.0
H675 H 0.60049 0.22861 0.67557 0.0
H676 H 0.71884 0.25553 0.61059 0.0
H677 H 0.75996 0.19657 0.58017 0.0
H678 H 0.74134 0.1683 0.60981 0.0
H679 H 0.70045 0.22711 0.64038 0.0
C680 C 0.30668 0.20236 0.62589 0.0
C681 C 0.32308 0.21797 0.61336 0.0
C682 C 0.28884 0.2375 0.5924 0.0
C683 C 0.31423 0.23531 0.59662 0.0
C684 C 0.27263 0.22122 0.60435 0.0
C685 C 0.28148 0.20379 0.62086 0.0
U686 U 0.35069 0.18456 0.67818 0.0
O687 O 0.34192 0.17183 0.71527 0.0
O688 O 0.36216 0.14803 0.69082 0.0
C689 C 0.35111 0.15012 0.71197 0.0
C690 C 0.31501 0.18572 0.64551 0.0
C691 C 0.33541 0.1294 0.72007 0.0
C692 C 0.29485 0.11153 0.72705 0.0
C693 C 0.30999 0.12902 0.71558 0.0
C694 C 0.33048 0.09356 0.74625 0.0
C695 C 0.30483 0.09406 0.74316 0.0
C696 C 0.34559 0.1111 0.73485 0.0
C697 C 0.4049 0.22772 0.69468 0.0
C698 C 0.43552 0.21995 0.72639 0.0
C699 C 0.42813 0.26136 0.71286 0.0
C700 C 0.41062 0.25271 0.69605 0.0
C701 C 0.44041 0.24515 0.72858 0.0
C702 C 0.41777 0.2113 0.70967 0.0
C703 C 0.38419 0.21973 0.67892 0.0
O704 O 0.33572 0.17434 0.64201 0.0
O705 O 0.31303 0.19425 0.66777 0.0
O706 O 0.36244 0.22158 0.6888 0.0
O707 O 0.38673 0.19938 0.66667 0.0
H708 H 0.34261 0.21732 0.61711 0.0
H709 H 0.32713 0.24785 0.58796 0.0
H710 H 0.253 0.22248 0.60147 0.0
H711 H 0.26852 0.19194 0.63035 0.0
H712 H 0.27519 0.11231 0.72415 0.0
H713 H 0.30174 0.14292 0.70415 0.0
H714 H 0.33879 0.08062 0.75874 0.0
H715 H 0.36514 0.11112 0.7386 0.0
H716 H 0.44443 0.20707 0.73852 0.0
H717 H 0.43149 0.28085 0.71416 0.0
H718 H 0.40088 0.26569 0.68469 0.0
H719 H 0.41351 0.19194 0.70906 0.0
C720 C 0.31552 0.83462 0.6243 0.0
C721 C 0.32056 0.80987 0.62824 0.0
C722 C 0.29699 0.79888 0.59178 0.0
C723 C 0.31123 0.79217 0.61222 0.0
C724 C 0.29314 0.82372 0.587 0.0
C725 C 0.30226 0.84148 0.60325 0.0
U726 U 0.35472 0.85691 0.67851 0.0
O727 O 0.36478 0.89425 0.69054 0.0
O728 O 0.34311 0.86986 0.71435 0.0
C729 C 0.35267 0.89181 0.71115 0.0
C730 C 0.32186 0.85291 0.64317 0.0
C731 C 0.33699 0.91212 0.71845 0.0
C732 C 0.29654 0.92938 0.72316 0.0
C733 C 0.31198 0.91255 0.7122 0.0
C734 C 0.33122 0.94651 0.74552 0.0
C735 C 0.30583 0.94602 0.74062 0.0
C736 C 0.34661 0.92969 0.73456 0.0
C737 C 0.40781 0.8178 0.70203 0.0
C738 C 0.42007 0.81193 0.74452 0.0
C739 C 0.446 0.79741 0.7122 0.0
C740 C 0.42941 0.80643 0.6947 0.0
C741 C 0.44102 0.79942 0.73724 0.0
C742 C 0.40371 0.82121 0.7271 0.0
C743 C 0.38867 0.82376 0.68369 0.0
O744 O 0.31799 0.84568 0.66581 0.0
O745 O 0.34274 0.86504 0.64057 0.0
O746 O 0.39203 0.84387 0.67078 0.0
O747 O 0.36595 0.8207 0.6911 0.0
H748 H 0.33082 0.80411 0.64427 0.0
H749 H 0.31441 0.7731 0.61626 0.0
H750 H 0.28207 0.82928 0.57145 0.0
H751 H 0.29813 0.86048 0.5999 0.0
H752 H 0.27713 0.92868 0.71876 0.0
H753 H 0.30418 0.89915 0.69977 0.0
H754 H 0.33901 0.95879 0.75905 0.0
H755 H 0.36585 0.92957 0.73972 0.0
H756 H 0.41587 0.81368 0.76375 0.0
H757 H 0.46193 0.78765 0.70619 0.0
H758 H 0.43293 0.8036 0.67547 0.0
H759 H 0.3873 0.83007 0.73326 0.0
C760 C 0.62027 0.81228 0.69313 0.0
C761 C 0.61078 0.82615 0.71224 0.0
C762 C 0.58595 0.79119 0.72584 0.0
C763 C 0.5936 0.81571 0.72841 0.0
C764 C 0.59467 0.77783 0.706 0.0
C765 C 0.61161 0.7883 0.68979 0.0
U766 U 0.67448 0.85628 0.67884 0.0
O767 O 0.71183 0.84719 0.66791 0.0
O768 O 0.68874 0.86852 0.64297 0.0
C769 C 0.70957 0.8571 0.64608 0.0
C770 C 0.64077 0.82132 0.67792 0.0
C771 C 0.71778 0.84188 0.6257 0.0
C772 C 0.72018 0.80236 0.60605 0.0
C773 C 0.70932 0.8177 0.62306 0.0
C774 C 0.74709 0.83557 0.59315 0.0
C775 C 0.73973 0.8109 0.59139 0.0
C776 C 0.73625 0.85086 0.61018 0.0
C777 C 0.69141 0.90872 0.72252 0.0
C778 C 0.73232 0.92679 0.72653 0.0
C779 C 0.69923 0.94174 0.7512 0.0
C780 C 0.68298 0.92506 0.74003 0.0
C781 C 0.72427 0.94226 0.74515 0.0
C782 C 0.71604 0.91019 0.7153 0.0
C783 C 0.67504 0.88872 0.71404 0.0
O784 O 0.63807 0.84249 0.66681 0.0
O785 O 0.66265 0.81876 0.68774 0.0
O786 O 0.68403 0.86675 0.71642 0.0
O787 O 0.66353 0.89207 0.69306 0.0
H788 H 0.61738 0.84465 0.71522 0.0
H789 H 0.58744 0.82631 0.74374 0.0
H790 H 0.58914 0.75891 0.70362 0.0
H791 H 0.61875 0.77728 0.6752 0.0
H792 H 0.71391 0.78353 0.60501 0.0
H793 H 0.69504 0.81042 0.63485 0.0
H794 H 0.76226 0.84271 0.58244 0.0
H795 H 0.74309 0.86944 0.61201 0.0
H796 H 0.75145 0.92686 0.72132 0.0
H797 H 0.69245 0.95314 0.76565 0.0
H798 H 0.66405 0.92416 0.7459 0.0
H799 H 0.72291 0.89777 0.70176 0.0
C800 C 0.62325 0.81268 0.33938 0.0
C801 C 0.62267 0.81976 0.31465 0.0
C802 C 0.58931 0.79053 0.30671 0.0
C803 C 0.60587 0.80875 0.29846 0.0
C804 C 0.5889 0.7847 0.33181 0.0
C805 C 0.60579 0.79564 0.34797 0.0
U806 U 0.6776 0.85529 0.35572 0.0
O807 O 0.6916 0.86696 0.39198 0.0
O808 O 0.71478 0.84589 0.36761 0.0
C809 C 0.71236 0.85543 0.3894 0.0
C810 C 0.64346 0.82076 0.35568 0.0
C811 C 0.72053 0.83992 0.41003 0.0
C812 C 0.72712 0.79965 0.42765 0.0
C813 C 0.71551 0.81471 0.41044 0.0
C814 C 0.74752 0.835 0.44535 0.0
C815 C 0.7439 0.80953 0.44481 0.0
C816 C 0.736 0.85002 0.42806 0.0
C817 C 0.69525 0.90793 0.3119 0.0
C818 C 0.72792 0.93792 0.31936 0.0
C819 C 0.71429 0.92974 0.27791 0.0
C820 C 0.69689 0.91291 0.28676 0.0
C821 C 0.73034 0.94207 0.29405 0.0
C822 C 0.71061 0.92085 0.32823 0.0
C823 C 0.67876 0.88794 0.32021 0.0
O824 O 0.66558 0.81798 0.34688 0.0
O825 O 0.64085 0.84174 0.36676 0.0
O826 O 0.667 0.89114 0.34082 0.0
O827 O 0.68774 0.86599 0.31826 0.0
H828 H 0.63595 0.83295 0.30766 0.0
H829 H 0.60653 0.81373 0.27926 0.0
H830 H 0.5766 0.77056 0.33871 0.0
H831 H 0.606 0.7899 0.36698 0.0
H832 H 0.72379 0.78013 0.42688 0.0
H833 H 0.70355 0.80652 0.39674 0.0
H834 H 0.76052 0.8432 0.45808 0.0
H835 H 0.74017 0.86942 0.42801 0.0
H836 H 0.74029 0.94688 0.3322 0.0
H837 H 0.71575 0.93256 0.25833 0.0
H838 H 0.68524 0.90312 0.27386 0.0
H839 H 0.7098 0.91716 0.3477 0.0
C840 C 0.6237 0.20114 0.32036 0.0
C841 C 0.62786 0.22611 0.32464 0.0
C842 C 0.59148 0.23609 0.30069 0.0
C843 C 0.61199 0.24342 0.31472 0.0
C844 C 0.58642 0.21109 0.2977 0.0
C845 C 0.60251 0.19372 0.3074 0.0
U846 U 0.67771 0.17945 0.35992 0.0
O847 O 0.68938 0.14219 0.36989 0.0
O848 O 0.7136 0.16646 0.3485 0.0
C849 C 0.71006 0.14452 0.35782 0.0
C850 C 0.64256 0.18311 0.32691 0.0
C851 C 0.71715 0.12408 0.34209 0.0
C852 C 0.72395 0.10735 0.30166 0.0
C853 C 0.71298 0.12456 0.3167 0.0
C854 C 0.74202 0.08805 0.33732 0.0
C855 C 0.73931 0.08937 0.31172 0.0
C856 C 0.73108 0.10525 0.3523 0.0
C857 C 0.70068 0.2192 0.41334 0.0
C858 C 0.74309 0.22334 0.42709 0.0
C859 C 0.71092 0.24252 0.44991 0.0
C860 C 0.69339 0.23308 0.43341 0.0
C861 C 0.73595 0.23828 0.44643 0.0
C862 C 0.7256 0.21373 0.41077 0.0
C863 C 0.68267 0.21288 0.39394 0.0
O864 O 0.66533 0.19047 0.32329 0.0
O865 O 0.63969 0.17112 0.34765 0.0
O866 O 0.66962 0.1927 0.39705 0.0
O867 O 0.69061 0.21572 0.37145 0.0
H868 H 0.64403 0.2323 0.33464 0.0
H869 H 0.6163 0.26263 0.31712 0.0
H870 H 0.57087 0.20506 0.2867 0.0
H871 H 0.59899 0.17456 0.30384 0.0
H872 H 0.72127 0.10875 0.28205 0.0
H873 H 0.70223 0.1389 0.3084 0.0
H874 H 0.75393 0.07473 0.34573 0.0
H875 H 0.73462 0.10462 0.37183 0.0
H876 H 0.76235 0.22006 0.42396 0.0
H877 H 0.70508 0.25427 0.46451 0.0
H878 H 0.67428 0.23756 0.43568 0.0
H879 H 0.73167 0.20302 0.39547 0.0
C880 C 0.31557 0.12671 0.34112 0.0
C881 C 0.32076 0.12719 0.316 0.0
C882 C 0.29408 0.09151 0.30963 0.0
C883 C 0.31007 0.10976 0.30039 0.0
C884 C 0.29028 0.09021 0.33505 0.0
C885 C 0.30089 0.10769 0.3506 0.0
U886 U 0.35628 0.18234 0.35823 0.0
O887 O 0.34496 0.21882 0.36915 0.0
O888 O 0.36655 0.19658 0.39471 0.0
C889 C 0.3543 0.21679 0.3913 0.0
C890 C 0.32283 0.14721 0.35713 0.0
C891 C 0.3384 0.22465 0.4114 0.0
C892 C 0.29779 0.23171 0.42779 0.0
C893 C 0.3129 0.22047 0.41078 0.0
C894 C 0.33358 0.25012 0.44721 0.0
C895 C 0.30789 0.24731 0.44575 0.0
C896 C 0.34864 0.23894 0.43017 0.0
C897 C 0.41002 0.20262 0.31761 0.0
C898 C 0.4238 0.24459 0.31116 0.0
C899 C 0.44768 0.21152 0.29527 0.0
C900 C 0.43075 0.19461 0.30511 0.0
C901 C 0.44391 0.23663 0.29767 0.0
C902 C 0.4071 0.22774 0.32122 0.0
C903 C 0.39049 0.18496 0.32466 0.0
O904 O 0.34366 0.14532 0.36925 0.0
O905 O 0.31954 0.16905 0.34773 0.0
O906 O 0.36797 0.19251 0.3212 0.0
O907 O 0.39346 0.17335 0.34559 0.0
H908 H 0.33213 0.14167 0.30829 0.0
H909 H 0.3135 0.11117 0.28094 0.0
H910 H 0.27784 0.07665 0.34278 0.0
H911 H 0.2966 0.10704 0.36991 0.0
H912 H 0.2781 0.22899 0.42629 0.0
H913 H 0.30458 0.2094 0.39651 0.0
H914 H 0.34201 0.26222 0.46054 0.0
H915 H 0.36826 0.24246 0.43094 0.0
H916 H 0.42053 0.2639 0.31311 0.0
H917 H 0.46294 0.20504 0.28473 0.0
H918 H 0.43332 0.17532 0.3021 0.0
H919 H 0.39132 0.23437 0.33089 0.0
C920 C 0.33581 0.90961 0.31515 0.0
C921 C 0.31125 0.90757 0.32257 0.0
C922 C 0.30073 0.9428 0.29742 0.0
C923 C 0.29385 0.92394 0.31366 0.0
C924 C 0.32548 0.9456 0.29094 0.0
C925 C 0.3429 0.92907 0.29973 0.0
U926 U 0.35705 0.85606 0.35517 0.0
O927 O 0.36902 0.81976 0.34436 0.0
O928 O 0.39444 0.8438 0.3646 0.0
C929 C 0.39136 0.82297 0.35311 0.0
C930 C 0.35348 0.89036 0.32143 0.0
C931 C 0.41127 0.81526 0.33691 0.0
C932 C 0.42792 0.81074 0.29611 0.0
C933 C 0.41159 0.82184 0.31205 0.0
C934 C 0.44488 0.78758 0.32993 0.0
C935 C 0.44418 0.79282 0.3047 0.0
C936 C 0.42853 0.79866 0.34584 0.0
C937 C 0.31757 0.83613 0.41023 0.0
C938 C 0.31285 0.79474 0.42611 0.0
C939 C 0.29396 0.82813 0.44719 0.0
C940 C 0.30371 0.84457 0.42988 0.0
C941 C 0.298 0.80305 0.44507 0.0
C942 C 0.32268 0.81115 0.40889 0.0
C943 C 0.32414 0.85303 0.39004 0.0
O944 O 0.36629 0.89325 0.34174 0.0
O945 O 0.34515 0.86791 0.3186 0.0
O946 O 0.32062 0.84437 0.36793 0.0
O947 O 0.34484 0.86554 0.39233 0.0
H948 H 0.30534 0.89271 0.33445 0.0
H949 H 0.27479 0.92133 0.3187 0.0
H950 H 0.3311 0.95984 0.27821 0.0
H951 H 0.36174 0.93092 0.29372 0.0
H952 H 0.42707 0.81538 0.27683 0.0
H953 H 0.39844 0.83465 0.30478 0.0
H954 H 0.4569 0.77371 0.33717 0.0
H955 H 0.42852 0.79328 0.36495 0.0
H956 H 0.31585 0.7754 0.42396 0.0
H957 H 0.28225 0.83484 0.46145 0.0
H958 H 0.29948 0.86374 0.43119 0.0
H959 H 0.33328 0.8042 0.39388 0.0
C960 C 0.69525 0.62176 0.22048 0.0
C961 C 0.71582 0.61458 0.2072 0.0
C962 C 0.72813 0.58775 0.24083 0.0
C963 C 0.7321 0.59754 0.21727 0.0
C964 C 0.70687 0.59414 0.25343 0.0
C965 C 0.69057 0.61089 0.24331 0.0
U966 U 0.67772 0.67707 0.17919 0.0
O967 O 0.64045 0.69046 0.1709 0.0
O968 O 0.66692 0.7134 0.19106 0.0
C969 C 0.64412 0.71061 0.18341 0.0
C970 C 0.6798 0.64221 0.21252 0.0
C971 C 0.62512 0.71698 0.20132 0.0
C972 C 0.61293 0.72325 0.24345 0.0
C973 C 0.62936 0.71399 0.22654 0.0
C974 C 0.58673 0.73717 0.21036 0.0
C975 C 0.59175 0.73539 0.23554 0.0
C976 C 0.60341 0.72815 0.19337 0.0
C977 C 0.71621 0.69913 0.12489 0.0
C978 C 0.71829 0.7415 0.11149 0.0
C979 C 0.73928 0.71075 0.08847 0.0
C980 C 0.73068 0.69276 0.10486 0.0
C981 C 0.73363 0.73533 0.09205 0.0
C982 C 0.70952 0.72356 0.12767 0.0
C983 C 0.71021 0.68082 0.14401 0.0
O984 O 0.6897 0.66402 0.21537 0.0
O985 O 0.66757 0.63986 0.1918 0.0
O986 O 0.68926 0.66875 0.14152 0.0
O987 O 0.71437 0.6881 0.16653 0.0
H988 H 0.71983 0.62291 0.18962 0.0
H989 H 0.74855 0.5932 0.20735 0.0
H990 H 0.70348 0.58699 0.27165 0.0
H991 H 0.67486 0.61625 0.25388 0.0
H992 H 0.6171 0.72153 0.26279 0.0
H993 H 0.64584 0.70529 0.2332 0.0
H994 H 0.57057 0.74651 0.20386 0.0
H995 H 0.59977 0.73066 0.174 0.0
H996 H 0.71383 0.76039 0.11465 0.0
H997 H 0.75127 0.70566 0.07374 0.0
H998 H 0.7361 0.67403 0.10244 0.0
H999 H 0.69837 0.7289 0.14296 0.0
C1000 C 0.31114 0.69324 0.124 0.0
C1001 C 0.31934 0.71765 0.12324 0.0
C1002 C 0.29071 0.72624 0.08983 0.0
C1003 C 0.3092 0.734 0.10632 0.0
C1004 C 0.28379 0.70139 0.08959 0.0
C1005 C 0.29387 0.68507 0.1066 0.0
U1006 U 0.35144 0.67665 0.17949 0.0
O1007 O 0.34012 0.66552 0.21636 0.0
O1008 O 0.36155 0.64047 0.19429 0.0
C1009 C 0.34941 0.64366 0.21467 0.0
C1010 C 0.31808 0.67698 0.14445 0.0
C1011 C 0.33355 0.62328 0.22334 0.0
C1012 C 0.29294 0.60651 0.23231 0.0
C1013 C 0.30798 0.62344 0.21991 0.0
C1014 C 0.32888 0.58797 0.25028 0.0
C1015 C 0.30317 0.58911 0.24833 0.0
C1016 C 0.34389 0.60493 0.23795 0.0
C1017 C 0.40485 0.71835 0.19949 0.0
C1018 C 0.41799 0.72452 0.24161 0.0
C1019 C 0.44345 0.73976 0.20856 0.0
C1020 C 0.42636 0.7304 0.19153 0.0
C1021 C 0.43903 0.7374 0.23373 0.0
C1022 C 0.40115 0.71493 0.22468 0.0
C1023 C 0.38559 0.71108 0.18165 0.0
O1024 O 0.33899 0.66555 0.14256 0.0
O1025 O 0.31467 0.686 0.16631 0.0
O1026 O 0.36295 0.71392 0.18903 0.0
O1027 O 0.38866 0.69036 0.17022 0.0
H1028 H 0.3327 0.72431 0.1365 0.0
H1029 H 0.31503 0.75299 0.10684 0.0
H1030 H 0.26942 0.69486 0.07737 0.0
H1031 H 0.28725 0.66632 0.10696 0.0
H1032 H 0.27321 0.60774 0.23023 0.0
H1033 H 0.29957 0.63738 0.20864 0.0
H1034 H 0.3374 0.57504 0.26265 0.0
H1035 H 0.36356 0.60454 0.24091 0.0
H1036 H 0.41429 0.7224 0.26096 0.0
H1037 H 0.45953 0.74968 0.20211 0.0
H1038 H 0.42957 0.73322 0.17218 0.0
H1039 H 0.38483 0.70553 0.2313 0.0
C1040 C 0.31518 0.343 0.12625 0.0
C1041 C 0.32189 0.31844 0.12514 0.0
C1042 C 0.29266 0.31147 0.09168 0.0
C1043 C 0.31073 0.30282 0.10801 0.0
C1044 C 0.28721 0.33645 0.09187 0.0
C1045 C 0.29833 0.35203 0.10903 0.0
U1046 U 0.3575 0.3596 0.18092 0.0
O1047 O 0.36804 0.39596 0.19516 0.0
O1048 O 0.347 0.37013 0.21795 0.0
C1049 C 0.35625 0.39233 0.21579 0.0
C1050 C 0.32318 0.35864 0.14677 0.0
C1051 C 0.34016 0.41196 0.22393 0.0
C1052 C 0.29971 0.42972 0.22653 0.0
C1053 C 0.31577 0.41341 0.21567 0.0
C1054 C 0.33259 0.44425 0.25301 0.0
C1055 C 0.30774 0.44483 0.24587 0.0
C1056 C 0.3486 0.42794 0.24216 0.0
C1057 C 0.41162 0.31951 0.19935 0.0
C1058 C 0.42764 0.31644 0.2409 0.0
C1059 C 0.44714 0.29451 0.20831 0.0
C1060 C 0.43024 0.30413 0.19147 0.0
C1061 C 0.44556 0.30015 0.23322 0.0
C1062 C 0.41088 0.32618 0.22408 0.0
C1063 C 0.39172 0.32638 0.18228 0.0
O1064 O 0.32047 0.34889 0.16863 0.0
O1065 O 0.34406 0.37079 0.1443 0.0
O1066 O 0.39441 0.34734 0.17065 0.0
O1067 O 0.36941 0.32274 0.19065 0.0
H1068 H 0.33491 0.3111 0.13822 0.0
H1069 H 0.3155 0.28373 0.1082 0.0
H1070 H 0.27321 0.3437 0.07981 0.0
H1071 H 0.29284 0.37091 0.10965 0.0
H1072 H 0.28075 0.42986 0.22042 0.0
H1073 H 0.3089 0.40125 0.20157 0.0
H1074 H 0.33938 0.45532 0.26801 0.0
H1075 H 0.36734 0.42702 0.24884 0.0
H1076 H 0.42591 0.32074 0.26011 0.0
H1077 H 0.46057 0.28168 0.2021 0.0
H1078 H 0.43105 0.2987 0.1725 0.0
H1079 H 0.39665 0.33799 0.23057 0.0
C1080 C 0.62703 0.31899 0.20134 0.0
C1081 C 0.63207 0.32143 0.22646 0.0
C1082 C 0.59387 0.29996 0.23631 0.0
C1083 C 0.61572 0.31183 0.24375 0.0
C1084 C 0.58803 0.29895 0.21127 0.0
C1085 C 0.60459 0.30829 0.1939 0.0
U1086 U 0.68199 0.35708 0.17743 0.0
O1087 O 0.71756 0.3446 0.16454 0.0
O1088 O 0.69351 0.36453 0.13932 0.0
C1089 C 0.71364 0.35185 0.14189 0.0
C1090 C 0.64604 0.32491 0.18297 0.0
C1091 C 0.71846 0.33341 0.12301 0.0
C1092 C 0.72117 0.29087 0.11129 0.0
C1093 C 0.71303 0.30862 0.12738 0.0
C1094 C 0.73872 0.32238 0.08516 0.0
C1095 C 0.73458 0.29753 0.09036 0.0
C1096 C 0.73082 0.3402 0.10148 0.0
C1097 C 0.70654 0.41135 0.21564 0.0
C1098 C 0.74915 0.42365 0.22216 0.0
C1099 C 0.71675 0.44935 0.23663 0.0
C1100 C 0.6992 0.4328 0.2272 0.0
C1101 C 0.74187 0.44446 0.23487 0.0
C1102 C 0.73168 0.40732 0.21251 0.0
C1103 C 0.68808 0.39217 0.2096 0.0
O1104 O 0.64355 0.34522 0.17029 0.0
O1105 O 0.66876 0.32125 0.19017 0.0
O1106 O 0.69524 0.36965 0.2132 0.0
O1107 O 0.67536 0.39493 0.18923 0.0
H1108 H 0.64917 0.32972 0.23272 0.0
H1109 H 0.62058 0.31283 0.26298 0.0
H1110 H 0.57136 0.28973 0.20514 0.0
H1111 H 0.60036 0.30617 0.17462 0.0
H1112 H 0.71773 0.2718 0.11565 0.0
H1113 H 0.70343 0.3029 0.14378 0.0
H1114 H 0.74915 0.32792 0.06922 0.0
H1115 H 0.73523 0.35922 0.09778 0.0
H1116 H 0.76843 0.41957 0.22046 0.0
H1117 H 0.71072 0.46521 0.24643 0.0
H1118 H 0.6799 0.43623 0.22987 0.0
H1119 H 0.73784 0.391 0.20356 0.0
C1120 C 0.62085 0.31433 0.83972 0.0
C1121 C 0.62056 0.32103 0.81489 0.0
C1122 C 0.58737 0.29156 0.80696 0.0
C1123 C 0.60398 0.30974 0.79866 0.0
C1124 C 0.58658 0.28621 0.83214 0.0
C1125 C 0.60325 0.29744 0.84835 0.0
U1126 U 0.6761 0.35596 0.85644 0.0
O1127 O 0.69039 0.36691 0.89271 0.0
O1128 O 0.71302 0.34534 0.8683 0.0
C1129 C 0.711 0.35515 0.88999 0.0
C1130 C 0.64113 0.32225 0.85605 0.0
C1131 C 0.71929 0.33976 0.91056 0.0
C1132 C 0.71425 0.30458 0.93765 0.0
C1133 C 0.70451 0.32087 0.92031 0.0
C1134 C 0.75324 0.32643 0.93616 0.0
C1135 C 0.73895 0.30682 0.94518 0.0
C1136 C 0.74348 0.34275 0.91907 0.0
C1137 C 0.69714 0.40828 0.81466 0.0
C1138 C 0.73966 0.42188 0.81106 0.0
C1139 C 0.70749 0.44549 0.79197 0.0
C1140 C 0.68989 0.42872 0.8009 0.0
C1141 C 0.73254 0.44183 0.79653 0.0
C1142 C 0.72213 0.40536 0.8202 0.0
C1143 C 0.67893 0.38919 0.82157 0.0
O1144 O 0.66321 0.31901 0.84735 0.0
O1145 O 0.63889 0.34332 0.86706 0.0
O1146 O 0.667 0.39255 0.84204 0.0
O1147 O 0.68635 0.36668 0.81911 0.0
H1148 H 0.63397 0.33406 0.80785 0.0
H1149 H 0.60493 0.31438 0.77939 0.0
H1150 H 0.57423 0.27213 0.8391 0.0
H1151 H 0.60324 0.29196 0.86744 0.0
H1152 H 0.70293 0.28943 0.94407 0.0
H1153 H 0.68583 0.31816 0.91382 0.0
H1154 H 0.77231 0.32858 0.94163 0.0
H1155 H 0.75518 0.35718 0.91173 0.0
H1156 H 0.75891 0.41874 0.81478 0.0
H1157 H 0.70165 0.46068 0.78068 0.0
H1158 H 0.6707 0.4313 0.79642 0.0
H1159 H 0.72817 0.38983 0.83089 0.0
C1160 C 0.61884 0.69338 0.8102 0.0
C1161 C 0.60933 0.71215 0.82443 0.0
C1162 C 0.58523 0.72641 0.7895 0.0
C1163 C 0.59249 0.72848 0.81418 0.0
C1164 C 0.59396 0.7069 0.77576 0.0
C1165 C 0.61055 0.69052 0.78604 0.0
U1166 U 0.67216 0.67824 0.85437 0.0
O1167 O 0.6857 0.64216 0.86601 0.0
O1168 O 0.70949 0.66741 0.84528 0.0
C1169 C 0.70668 0.64539 0.85462 0.0
C1170 C 0.63902 0.67805 0.81909 0.0
C1171 C 0.71472 0.62535 0.83891 0.0
C1172 C 0.721 0.60847 0.79847 0.0
C1173 C 0.70984 0.62542 0.81364 0.0
C1174 C 0.74071 0.59021 0.83383 0.0
C1175 C 0.73714 0.59111 0.80831 0.0
C1176 C 0.72964 0.60721 0.84895 0.0
C1177 C 0.68877 0.72051 0.9081 0.0
C1178 C 0.72958 0.72637 0.92578 0.0
C1179 C 0.69487 0.7463 0.94372 0.0
C1180 C 0.67928 0.73545 0.92629 0.0
C1181 C 0.72034 0.7425 0.94321 0.0
C1182 C 0.71394 0.71543 0.90841 0.0
C1183 C 0.6727 0.71256 0.88768 0.0
O1184 O 0.66104 0.68789 0.81687 0.0
O1185 O 0.63584 0.66657 0.84009 0.0
O1186 O 0.66076 0.69168 0.89048 0.0
O1187 O 0.68206 0.71542 0.86575 0.0
H1188 H 0.61566 0.71475 0.84309 0.0
H1189 H 0.58631 0.74356 0.82508 0.0
H1190 H 0.5887 0.70491 0.75671 0.0
H1191 H 0.61773 0.67619 0.77475 0.0
H1192 H 0.71775 0.60954 0.77892 0.0
H1193 H 0.69828 0.63921 0.80551 0.0
H1194 H 0.75326 0.57735 0.84202 0.0
H1195 H 0.73367 0.6069 0.86839 0.0
H1196 H 0.74906 0.72294 0.92499 0.0
H1197 H 0.68715 0.75885 0.95663 0.0
H1198 H 0.65993 0.73965 0.92633 0.0
H1199 H 0.72165 0.70385 0.8946 0.0
C1200 C 0.31381 0.62218 0.84045 0.0
C1201 C 0.32493 0.61909 0.81763 0.0
C1202 C 0.29364 0.58869 0.80657 0.0
C1203 C 0.31492 0.60236 0.8008 0.0
C1204 C 0.2833 0.59102 0.82981 0.0
C1205 C 0.2934 0.60753 0.84666 0.0
U1206 U 0.35399 0.67795 0.86002 0.0
O1207 O 0.34158 0.71392 0.87131 0.0
O1208 O 0.36174 0.69116 0.8975 0.0
C1209 C 0.34911 0.71112 0.89404 0.0
C1210 C 0.32098 0.64245 0.85674 0.0
C1211 C 0.33096 0.71714 0.91289 0.0
C1212 C 0.28846 0.72176 0.92492 0.0
C1213 C 0.30583 0.7122 0.90913 0.0
C1214 C 0.32105 0.73972 0.94963 0.0
C1215 C 0.2959 0.73609 0.94493 0.0
C1216 C 0.33847 0.73035 0.93365 0.0
C1217 C 0.40876 0.70102 0.82194 0.0
C1218 C 0.42072 0.74348 0.8151 0.0
C1219 C 0.44695 0.7114 0.80103 0.0
C1220 C 0.43048 0.69386 0.81058 0.0
C1221 C 0.44174 0.73633 0.80251 0.0
C1222 C 0.40448 0.72602 0.8249 0.0
C1223 C 0.38957 0.68257 0.82803 0.0
O1224 O 0.34158 0.64039 0.86924 0.0
O1225 O 0.31797 0.66437 0.84746 0.0
O1226 O 0.36693 0.68939 0.82379 0.0
O1227 O 0.39208 0.67057 0.84881 0.0
H1228 H 0.34053 0.63043 0.81239 0.0
H1229 H 0.32286 0.60122 0.78276 0.0
H1230 H 0.26668 0.58095 0.83447 0.0
H1231 H 0.28447 0.60977 0.86411 0.0
H1232 H 0.26912 0.71894 0.92085 0.0
H1233 H 0.29957 0.70201 0.89329 0.0
H1234 H 0.32714 0.75099 0.96477 0.0
H1235 H 0.35775 0.73442 0.93686 0.0
H1236 H 0.41632 0.76261 0.81643 0.0
H1237 H 0.46292 0.70547 0.79121 0.0
H1238 H 0.43413 0.67469 0.80807 0.0
H1239 H 0.38795 0.73205 0.8337 0.0
C1240 C 0.3391 0.41114 0.81288 0.0
C1241 C 0.31451 0.41152 0.82024 0.0
C1242 C 0.30661 0.44552 0.79226 0.0
C1243 C 0.29842 0.42853 0.81001 0.0
C1244 C 0.33162 0.44602 0.78611 0.0
C1245 C 0.34768 0.42893 0.79628 0.0
U1246 U 0.35636 0.35672 0.85427 0.0
O1247 O 0.36762 0.32005 0.84379 0.0
O1248 O 0.39299 0.34333 0.86491 0.0
C1249 C 0.38979 0.32269 0.85312 0.0
C1250 C 0.35528 0.39098 0.82027 0.0
C1251 C 0.4099 0.31501 0.83715 0.0
C1252 C 0.42841 0.31304 0.79691 0.0
C1253 C 0.41177 0.32353 0.81295 0.0
C1254 C 0.44255 0.28641 0.82943 0.0
C1255 C 0.44346 0.29377 0.80473 0.0
C1256 C 0.42589 0.2969 0.84544 0.0
C1257 C 0.31395 0.33922 0.90843 0.0
C1258 C 0.30582 0.2987 0.92537 0.0
C1259 C 0.28802 0.33396 0.9442 0.0
C1260 C 0.29972 0.34915 0.927 0.0
C1261 C 0.29023 0.30846 0.94309 0.0
C1262 C 0.31758 0.31392 0.90821 0.0
C1263 C 0.32227 0.35514 0.88806 0.0
O1264 O 0.36743 0.39348 0.84101 0.0
O1265 O 0.34584 0.36896 0.81739 0.0
O1266 O 0.31928 0.3461 0.86603 0.0
O1267 O 0.34332 0.36691 0.89094 0.0
H1268 H 0.30751 0.39802 0.8331 0.0
H1269 H 0.27931 0.42778 0.81529 0.0
H1270 H 0.33849 0.45863 0.77233 0.0
H1271 H 0.36658 0.42891 0.79031 0.0
H1272 H 0.4288 0.31931 0.77807 0.0
H1273 H 0.39962 0.33754 0.80619 0.0
H1274 H 0.45357 0.27147 0.83605 0.0
H1275 H 0.42467 0.29002 0.86403 0.0
H1276 H 0.30808 0.27916 0.92413 0.0
H1277 H 0.27596 0.34212 0.95734 0.0
H1278 H 0.29662 0.3686 0.92746 0.0
H1279 H 0.32857 0.30584 0.89411 0.0
H1280 H 0.27728 0.31244 0.99139 0.0
H1281 H 0.22033 0.25707 0.9907 0.0
H1282 H 0.26356 0.2704 0.92652 0.0
H1283 H 0.2403 0.31473 0.01776 0.0
H1284 H 0.21887 0.29012 0.01939 0.0
H1285 H 0.27586 0.31636 0.04436 0.0
H1286 H 0.27245 0.26913 0.10752 0.0
H1287 H 0.22784 0.25299 0.04445 0.0
C1288 C 0.26789 0.29745 0.98223 0.0
C1289 C 0.27359 0.29219 0.95775 0.0
C1290 C 0.24884 0.28469 0.99439 0.0
C1291 C 0.23571 0.26619 0.98185 0.0
C1292 C 0.24104 0.26075 0.95736 0.0
C1293 C 0.26035 0.27349 0.94577 0.0
C1294 C 0.23886 0.29445 0.01814 0.0
C1295 C 0.25141 0.28504 0.04115 0.0
C1296 C 0.26923 0.29975 0.05315 0.0
C1297 C 0.27716 0.29408 0.07711 0.0
C1298 C 0.26745 0.27313 0.08868 0.0
C1299 C 0.24989 0.25817 0.07702 0.0
C1300 C 0.24224 0.26389 0.05306 0.0
H1301 H 0.77289 0.22218 0.04262 0.0
H1302 H 0.72654 0.28509 0.04244 0.0
H1303 H 0.76766 0.26628 0.107 0.0
H1304 H 0.73938 0.22538 1.01315 0.0
H1305 H 0.7187 0.25002 1.01431 0.0
H1306 H 0.77949 0.23012 0.99117 0.0
H1307 H 0.77911 0.28286 0.93259 0.0
H1308 H 0.72439 0.28567 0.98852 0.0
C1309 C 0.76611 0.23819 0.05167 0.0
C1310 C 0.77307 0.24286 0.07608 0.0
C1311 C 0.74944 0.25343 0.03924 0.0
C1312 C 0.74004 0.27378 0.05146 0.0
C1313 C 0.74657 0.27835 0.07596 0.0
C1314 C 0.76324 0.26304 0.0879 0.0
C1315 C 0.73854 0.24556 0.01487 0.0
C1316 C 0.75113 0.2572 0.99298 0.0
C1317 C 0.77182 0.24624 0.98267 0.0
C1318 C 0.78212 0.25564 0.96097 0.0
C1319 C 0.77171 0.27614 0.94978 0.0
C1320 C 0.75084 0.287 0.95942 0.0
C1321 C 0.74072 0.27757 0.98117 0.0
H1322 H 0.7243 0.74995 0.045 0.0
H1323 H 0.7718 0.81367 0.04591 0.0
H1324 H 0.76811 0.76592 0.10866 0.0
H1325 H 0.71529 0.78742 0.02026 0.0
H1326 H 0.73681 0.81196 0.01856 0.0
H1327 H 0.71604 0.75483 0.99143 0.0
H1328 H 0.76046 0.76691 0.92785 0.0
H1329 H 0.77451 0.80861 0.99291 0.0
C1330 C 0.73855 0.76087 0.05383 0.0
C1331 C 0.74599 0.75502 0.07781 0.0
C1332 C 0.74782 0.78208 0.04209 0.0
C1333 C 0.76524 0.79692 0.05449 0.0
C1334 C 0.77292 0.79114 0.07849 0.0
C1335 C 0.76329 0.77001 0.08979 0.0
C1336 C 0.7353 0.79169 0.01918 0.0
C1337 C 0.74511 0.78184 0.9954 0.0
C1338 C 0.73175 0.76357 0.98277 0.0
C1339 C 0.7373 0.75792 0.95839 0.0
C1340 C 0.7571 0.77011 0.94705 0.0
C1341 C 0.7707 0.78846 0.9592 0.0
C1342 C 0.76481 0.79392 0.9836 0.0
H1343 H 0.27458 0.72392 0.04213 0.0
H1344 H 0.22921 0.78746 0.04388 0.0
H1345 H 0.2719 0.76757 0.10701 0.0
H1346 H 0.23876 0.72731 0.01525 0.0
H1347 H 0.21959 0.75301 0.01646 0.0
H1348 H 0.27847 0.7295 0.99154 0.0
H1349 H 0.27103 0.77331 0.92646 0.0
H1350 H 0.22474 0.78641 0.98795 0.0
C1351 C 0.26852 0.74011 0.05141 0.0
C1352 C 0.2762 0.74442 0.07569 0.0
C1353 C 0.25173 0.75568 0.03961 0.0
C1354 C 0.24303 0.77605 0.05228 0.0
C1355 C 0.25031 0.7803 0.07662 0.0
C1356 C 0.2671 0.76469 0.08794 0.0
C1357 C 0.23916 0.74758 0.01612 0.0
C1358 C 0.2509 0.75744 0.99294 0.0
C1359 C 0.27022 0.74475 0.98201 0.0
C1360 C 0.27747 0.75047 0.95799 0.0
C1361 C 0.26576 0.76923 0.94517 0.0
C1362 C 0.24704 0.78248 0.95593 0.0
C1363 C 0.23992 0.77684 0.97999 0.0
H1364 H 0.04619 0.2265 0.2455 0.0
H1365 H 0.04247 0.27356 0.3081 0.0
H1366 H 0.10869 0.27062 0.26613 0.0
H1367 H 0.01654 0.21825 0.27738 0.0
H1368 H 0.01692 0.23544 0.30467 0.0
H1369 H 0.98771 0.22702 0.24485 0.0
H1370 H 0.92744 0.27206 0.264 0.0
H1371 H 0.99365 0.27414 0.30745 0.0
C1372 C 0.05425 0.24068 0.25688 0.0
C1373 C 0.07878 0.24805 0.25317 0.0
C1374 C 0.0409 0.24982 0.27672 0.0
C1375 C 0.05224 0.26718 0.29227 0.0
C1376 C 0.07664 0.2751 0.28837 0.0
C1377 C 0.08956 0.26551 0.26867 0.0
C1378 C 0.01713 0.23726 0.28438 0.0
C1379 C 0.99398 0.25014 0.27629 0.0
C1380 C 0.98036 0.24135 0.25603 0.0
C1381 C 0.95631 0.24918 0.2517 0.0
C1382 C 0.94633 0.26679 0.26695 0.0
C1383 C 0.95962 0.27621 0.28697 0.0
C1384 C 0.98359 0.26787 0.29144 0.0
H1385 H 0.80705 0.04086 0.26154 0.0
H1386 H 0.75152 0.04125 0.31692 0.0
H1387 H 0.76486 0.10521 0.27274 0.0
H1388 H 0.80939 0.0148 0.2995 0.0
H1389 H 0.78398 1.01224 0.31944 0.0
H1390 H 0.81242 0.9889 0.26431 0.0
H1391 H 0.76257 0.9273 0.26105 0.0
H1392 H 0.7467 0.98771 0.3075 0.0
C1393 C 0.79204 0.04992 0.27037 0.0
C1394 C 0.78668 0.07421 0.26398 0.0
C1395 C 0.77931 0.0378 0.28935 0.0
C1396 C 0.76071 0.05015 0.30169 0.0
C1397 C 0.75518 0.07449 0.29569 0.0
C1398 C 0.76794 0.08606 0.27647 0.0
C1399 C 0.78897 1.01409 0.2998 0.0
C1400 C 0.77996 0.99147 0.28646 0.0
C1401 C 0.79518 0.98017 0.26935 0.0
C1402 C 0.78902 0.95698 0.25997 0.0
C1403 C 0.76692 0.94563 0.26724 0.0
C1404 C 0.75153 0.9565 0.28431 0.0
C1405 C 0.75807 0.97953 0.29373 0.0
H1406 H 0.98798 0.71704 0.27725 0.0
H1407 H 0.9889 0.77335 0.22203 0.0
H1408 H 0.92486 0.76177 0.26622 0.0
H1409 H 1.01455 0.71433 0.24176 0.0
H1410 H 1.01452 0.73714 0.21865 0.0
H1411 H 0.04135 0.71802 0.27791 0.0
H1412 H 0.10621 0.76206 0.26576 0.0
H1413 H 0.04208 0.77254 0.22088 0.0
C1414 C 0.97935 0.73252 0.26848 0.0
C1415 C 0.95524 0.73858 0.27482 0.0
C1416 C 0.99171 0.74507 0.24954 0.0
C1417 C 0.97987 0.76433 0.23729 0.0
C1418 C 0.95577 0.77071 0.24339 0.0
C1419 C 0.94391 0.75801 0.26249 0.0
C1420 C 1.01472 0.73445 0.23885 0.0
C1421 C 0.03853 0.74502 0.24913 0.0
C1422 C 0.05053 0.73313 0.26867 0.0
C1423 C 0.07496 0.73934 0.27499 0.0
C1424 C 0.08695 0.75827 0.26205 0.0
C1425 C 0.07539 0.77036 0.24245 0.0
C1426 C 0.05095 0.76393 0.23644 0.0
H1427 H 0.22379 0.98876 0.25794 0.0
H1428 H 0.28618 0.98922 0.30691 0.0
H1429 H 0.27082 0.92665 0.26236 0.0
H1430 H 0.22446 0.01462 0.29365 0.0
H1431 H 0.24899 1.0135 0.31505 0.0
H1432 H 0.22746 0.04123 0.25637 0.0
H1433 H 0.26938 0.10699 0.27001 0.0
H1434 H 0.28202 0.04294 0.31371 0.0
C1435 C 0.24028 0.98024 0.26482 0.0
C1436 C 0.24599 0.95654 0.25718 0.0
C1437 C 0.25474 0.99232 0.28267 0.0
C1438 C 0.27558 0.98065 0.29236 0.0
C1439 C 0.28146 0.95703 0.28483 0.0
C1440 C 0.2668 0.94531 0.26716 0.0
C1441 C 0.24485 0.01468 0.29511 0.0
C1442 C 0.25464 0.03886 0.28521 0.0
C1443 C 0.2423 0.05072 0.26583 0.0
C1444 C 0.24772 0.07533 0.25997 0.0
C1445 C 0.26624 0.08767 0.2733 0.0
C1446 C 0.27866 0.07628 0.29277 0.0
C1447 C 0.2731 0.05167 0.29825 0.0
H1448 H 0.98918 0.77505 0.80698 0.0
H1449 H 0.98505 0.72968 0.74299 0.0
H1450 H 0.92336 0.7724 0.76295 0.0
H1451 H 1.01455 0.73811 0.80318 0.0
H1452 H 1.01375 0.72059 0.77607 0.0
H1453 H 0.039 0.77683 0.80534 0.0
H1454 H 0.1032 0.77697 0.76017 0.0
H1455 H 0.04219 0.72925 0.74319 0.0
C1456 C 0.97942 0.76897 0.79073 0.0
C1457 C 0.95524 0.77678 0.78632 0.0
C1458 C 0.99051 0.75214 0.77503 0.0
C1459 C 0.97722 0.74346 0.75453 0.0
C1460 C 0.95299 0.75076 0.75024 0.0
C1461 C 0.94237 0.76759 0.76592 0.0
C1462 C 1.01398 0.73967 0.78288 0.0
C1463 C 0.03735 0.75252 0.7745 0.0
C1464 C 0.04841 0.77071 0.7892 0.0
C1465 C 0.07222 0.77975 0.78414 0.0
C1466 C 0.08445 0.77101 0.76357 0.0
C1467 C 0.07385 0.75287 0.74867 0.0
C1468 C 0.05019 0.74379 0.75415 0.0
H1469 H 0.24962 0.99187 0.80566 0.0
H1470 H 0.31142 0.99308 0.75705 0.0
H1471 H 0.26384 0.92969 0.76124 0.0
H1472 H 0.28705 0.01706 0.81415 0.0
H1473 H 0.31146 0.01878 0.793 0.0
H1474 H 0.25345 0.045 0.81173 0.0
H1475 H 0.26647 0.10972 0.7686 0.0
H1476 H 0.30917 0.04587 0.75647 0.0
C1477 C 0.25996 0.98358 0.79117 0.0
C1478 C 0.25381 0.95977 0.78368 0.0
C1479 C 0.28084 0.99576 0.78166 0.0
C1480 C 0.29494 0.98409 0.76384 0.0
C1481 C 0.28887 0.96025 0.7561 0.0
C1482 C 0.26812 0.94845 0.76606 0.0
C1483 C 0.29108 0.01833 0.79425 0.0
C1484 C 0.28143 0.04223 0.78426 0.0
C1485 C 0.26262 0.05419 0.79664 0.0
C1486 C 0.25697 0.07856 0.791 0.0
C1487 C 0.26971 0.09054 0.77202 0.0
C1488 C 0.28859 0.07903 0.75942 0.0
C1489 C 0.29407 0.05468 0.76541 0.0
H1490 H 0.99189 0.30744 0.75247 0.0
H1491 H 0.99135 0.25235 0.80943 0.0
H1492 H 0.92635 0.26508 0.7665 0.0
H1493 H 0.02058 0.31007 0.7881 0.0
H1494 H 0.02107 0.28666 0.81075 0.0
H1495 H 0.04432 0.30682 0.75041 0.0
H1496 H 0.10172 0.25416 0.75118 0.0
H1497 H 0.04452 0.24921 0.80467 0.0
C1498 C 0.98261 0.29275 0.76227 0.0
C1499 C 0.95784 0.28728 0.75694 0.0
C1500 C 0.99488 0.28038 0.78142 0.0
C1501 C 0.9823 0.26167 0.7944 0.0
C1502 C 0.95752 0.25622 0.78911 0.0
C1503 C 0.94554 0.26913 0.77047 0.0
C1504 C 0.01952 0.28992 0.79069 0.0
C1505 C 0.04126 0.27865 0.77828 0.0
C1506 C 0.05226 0.29039 0.75797 0.0
C1507 C 0.074 0.28147 0.748 0.0
C1508 C 0.08447 0.26054 0.75828 0.0
C1509 C 0.07414 0.24884 0.77874 0.0
C1510 C 0.05238 0.25787 0.78859 0.0
H1511 H 0.72094 0.98891 0.76269 0.0
H1512 H 0.78503 0.98703 0.80938 0.0
H1513 H 0.76645 0.92563 0.76429 0.0
H1514 H 0.7236 1.01393 0.79917 0.0
H1515 H 0.74913 1.01213 0.8193 0.0
H1516 H 0.72578 0.04041 0.76138 0.0
H1517 H 0.76767 0.10627 0.77455 0.0
H1518 H 0.7815 0.04203 0.81762 0.0
C1519 C 0.73746 0.97991 0.7688 0.0
C1520 C 0.74233 0.95623 0.76048 0.0
C1521 C 0.75288 0.99136 0.78631 0.0
C1522 C 0.77373 0.97899 0.79504 0.0
C1523 C 0.77863 0.95528 0.78703 0.0
C1524 C 0.7631 0.94429 0.7696 0.0
C1525 C 0.74402 1.0137 0.7996 0.0
C1526 C 0.75358 0.03796 0.78962 0.0
C1527 C 0.74079 0.04989 0.77059 0.0
C1528 C 0.74598 0.07455 0.76478 0.0
C1529 C 0.7647 0.08691 0.77781 0.0
C1530 C 0.77757 0.07549 0.79698 0.0
C1531 C 0.77223 0.05081 0.80239 0.0
H1532 H 0.24884 0.73141 0.49202 0.0
H1533 H 0.30817 0.78466 0.49066 0.0
H1534 H 0.25678 0.78071 0.43087 0.0
H1535 H 0.28796 0.72559 0.51577 0.0
H1536 H 0.31048 0.7493 0.51748 0.0
H1537 H 0.25532 0.7228 0.54507 0.0
H1538 H 0.26298 0.76794 0.60874 0.0
H1539 H 0.30374 0.78591 0.54403 0.0
C1540 C 0.25808 0.74685 0.48339 0.0
C1541 C 0.24975 0.75538 0.46048 0.0
C1542 C 0.27895 0.75762 0.49475 0.0
C1543 C 0.2915 0.77695 0.48271 0.0
C1544 C 0.28351 0.7852 0.45965 0.0
C1545 C 0.26253 0.77463 0.44894 0.0
C1546 C 0.29031 0.74574 0.51717 0.0
C1547 C 0.27983 0.75405 0.54129 0.0
C1548 C 0.26273 0.73901 0.55385 0.0
C1549 C 0.25629 0.74402 0.57818 0.0
C1550 C 0.26693 0.76446 0.58969 0.0
C1551 C 0.2839 0.77966 0.57754 0.0
C1552 C 0.28994 0.77472 0.55315 0.0
H1553 H 0.75939 0.81743 0.54563 0.0
H1554 H 0.80275 0.75256 0.54573 0.0
H1555 H 0.75512 0.76671 0.60593 0.0
H1556 H 0.79534 0.81527 0.52009 0.0
H1557 H 0.81499 0.78988 0.52211 0.0
H1558 H 0.75809 0.81387 0.49295 0.0
H1559 H 0.76834 0.77103 0.42847 0.0
H1560 H 0.81194 0.75745 0.49285 0.0
C1561 C 0.7643 0.80018 0.55399 0.0
C1562 C 0.75453 0.79357 0.57693 0.0
C1563 C 0.78152 0.78536 0.54243 0.0
C1564 C 0.78878 0.76356 0.55399 0.0
C1565 C 0.77894 0.75654 0.57674 0.0
C1566 C 0.76164 0.77146 0.58779 0.0
C1567 C 0.79538 0.79497 0.52035 0.0
C1568 C 0.78527 0.78585 0.49608 0.0
C1569 C 0.76662 0.79874 0.48388 0.0
C1570 C 0.76016 0.7933 0.45949 0.0
C1571 C 0.77216 0.77428 0.44767 0.0
C1572 C 0.79094 0.76127 0.4594 0.0
C1573 C 0.79706 0.7669 0.48381 0.0
H1574 H 0.80433 0.28891 0.54649 0.0
H1575 H 0.75629 0.22559 0.5453 0.0
H1576 H 0.76211 0.26971 0.60986 0.0
H1577 H 0.81233 0.25369 0.51988 0.0
H1578 H 0.79153 0.22855 0.51825 0.0
H1579 H 0.8093 0.28744 0.49139 0.0
H1580 H 0.76285 0.27513 0.42866 0.0
H1581 H 0.75235 0.23162 0.49356 0.0
C1582 C 0.79021 0.27763 0.55501 0.0
C1583 C 0.78363 0.28207 0.57933 0.0
C1584 C 0.78044 0.2572 0.54251 0.0
C1585 C 0.7632 0.2418 0.55447 0.0
C1586 C 0.75616 0.24632 0.57874 0.0
C1587 C 0.76641 0.26663 0.59081 0.0
C1588 C 0.79243 0.24882 0.51917 0.0
C1589 C 0.78141 0.25904 0.49574 0.0
C1590 C 0.79364 0.27819 0.48304 0.0
C1591 C 0.78705 0.28393 0.45877 0.0
C1592 C 0.76769 0.27102 0.44753 0.0
C1593 C 0.75484 0.25252 0.46004 0.0
C1594 C 0.76151 0.24672 0.48427 0.0
H1595 H 0.25901 0.31902 0.54663 0.0
H1596 H 0.3028 0.25446 0.54717 0.0
H1597 H 0.2554 0.26892 0.60748 0.0
H1598 H 0.29498 0.31701 0.52122 0.0
H1599 H 0.31487 0.29183 0.52349 0.0
H1600 H 0.25758 0.31487 0.49412 0.0
H1601 H 0.26925 0.27268 0.42948 0.0
H1602 H 0.31265 0.25964 0.49411 0.0
C1603 C 0.26404 0.30187 0.55513 0.0
C1604 C 0.25445 0.29544 0.57819 0.0
C1605 C 0.28135 0.28708 0.54366 0.0
C1606 C 0.28877 0.26542 0.55538 0.0
C1607 C 0.2791 0.25856 0.57825 0.0
C1608 C 0.26175 0.27349 0.58924 0.0
C1609 C 0.29521 0.29671 0.52159 0.0
C1610 C 0.28533 0.28741 0.49731 0.0
C1611 C 0.26647 0.29996 0.48504 0.0
C1612 C 0.26031 0.29451 0.46059 0.0
C1613 C 0.27283 0.27585 0.44874 0.0
C1614 C 0.29184 0.26322 0.46052 0.0
C1615 C 0.29761 0.2688 0.48502 0.0
H1616 H 0.80456 0.54321 0.75735 0.0
H1617 H 0.74962 0.54319 0.81331 0.0
H1618 H 0.76201 0.60725 0.76908 0.0
H1619 H 0.80756 0.5173 0.79514 0.0
H1620 H 0.78275 0.51498 0.81577 0.0
H1621 H 0.80915 0.4918 0.75933 0.0
H1622 H 0.76301 0.42731 0.76209 0.0
H1623 H 0.74611 0.48893 0.80632 0.0
C1624 C 0.78955 0.55214 0.7663 0.0
C1625 C 0.784 0.57642 0.76002 0.0
C1626 C 0.77709 0.53993 0.78541 0.0
C1627 C 0.75854 0.55213 0.79793 0.0
C1628 C 0.75283 0.57641 0.79203 0.0
C1629 C 0.76528 0.58812 0.77271 0.0
C1630 C 0.78716 0.51648 0.79597 0.0
C1631 C 0.77799 0.49354 0.78332 0.0
C1632 C 0.79273 0.48238 0.76571 0.0
C1633 C 0.78743 0.45848 0.75773 0.0
C1634 C 0.7667 0.44614 0.76708 0.0
C1635 C 0.75163 0.45705 0.78435 0.0
C1636 C 0.75704 0.48093 0.79211 0.0
H1637 H 0.24506 0.54789 0.73102 0.0
H1638 H 0.30396 0.54549 0.78423 0.0
H1639 H 0.25334 0.60454 0.7846 0.0
H1640 H 0.28023 0.52213 0.72437 0.0
H1641 H 0.3059 0.52322 0.74457 0.0
H1642 H 0.24484 0.49389 0.73247 0.0
H1643 H 0.26426 0.42918 0.77226 0.0
H1644 H 0.31006 0.49371 0.77773 0.0
C1645 C 0.25435 0.55535 0.74697 0.0
C1646 C 0.24632 0.57739 0.75695 0.0
C1647 C 0.27487 0.54334 0.75703 0.0
C1648 C 0.28756 0.55392 0.77702 0.0
C1649 C 0.27963 0.5759 0.78706 0.0
C1650 C 0.2589 0.5872 0.7772 0.0
C1651 C 0.28552 0.52165 0.74407 0.0
C1652 C 0.27774 0.49708 0.75479 0.0
C1653 C 0.25659 0.48487 0.7457 0.0
C1654 C 0.25179 0.46036 0.75202 0.0
C1655 C 0.26764 0.44835 0.76822 0.0
C1656 C 0.28862 0.46015 0.77784 0.0
C1657 C 0.29349 0.48464 0.77113 0.0
H1658 H 0.30699 0.54115 0.26273 0.0
H1659 H 0.2535 0.54295 0.32004 0.0
H1660 H 0.26626 0.6063 0.27488 0.0
H1661 H 0.31002 0.51548 0.30147 0.0
H1662 H 0.2845 0.5127 0.32124 0.0
H1663 H 0.31289 0.49065 0.26542 0.0
H1664 H 0.26362 0.42861 0.26145 0.0
H1665 H 0.24751 0.48805 0.30905 0.0
C1666 C 0.29247 0.55053 0.27201 0.0
C1667 C 0.28731 0.57488 0.26563 0.0
C1668 C 0.28017 0.53875 0.29148 0.0
C1669 C 0.2623 0.55155 0.30441 0.0
C1670 C 0.25698 0.57592 0.2984 0.0
C1671 C 0.26922 0.58713 0.27867 0.0
C1672 C 0.2896 0.51484 0.30166 0.0
C1673 C 0.28062 0.49246 0.28789 0.0
C1674 C 0.29578 0.48164 0.27043 0.0
C1675 C 0.28979 0.45855 0.26069 0.0
C1676 C 0.26784 0.44687 0.26791 0.0
C1677 C 0.25244 0.4573 0.28526 0.0
C1678 C 0.25886 0.48021 0.29507 0.0
H1679 H 0.75148 0.54585 0.22756 0.0
H1680 H 0.80462 0.54608 0.28656 0.0
H1681 H 0.74986 0.60142 0.28237 0.0
H1682 H 0.78898 0.52259 0.22439 0.0
H1683 H 0.8122 0.52478 0.24731 0.0
H1684 H 0.75355 0.49303 0.22932 0.0
H1685 H 0.77258 0.42817 0.26917 0.0
H1686 H 0.81532 0.4941 0.27921 0.0
C1687 C 0.75848 0.55344 0.24454 0.0
C1688 C 0.74786 0.57452 0.254 0.0
C1689 C 0.77867 0.54264 0.25652 0.0
C1690 C 0.78845 0.55358 0.27785 0.0
C1691 C 0.77797 0.57471 0.2874 0.0
C1692 C 0.75747 0.58466 0.27558 0.0
C1693 C 0.7921 0.52199 0.24453 0.0
C1694 C 0.78467 0.49682 0.25396 0.0
C1695 C 0.76473 0.48407 0.24308 0.0
C1696 C 0.76051 0.45923 0.24841 0.0
C1697 C 0.77559 0.44748 0.26557 0.0
C1698 C 0.79526 0.45983 0.27703 0.0
C1699 C 0.79967 0.4846 0.27115 0.0
H1700 H 0.54344 0.22655 0.74689 0.0
H1701 H 0.53941 0.27502 0.80839 0.0
H1702 H 0.60615 0.27045 0.76744 0.0
H1703 H 0.51264 0.21972 0.77791 0.0
H1704 H 0.5134 0.23685 0.80526 0.0
H1705 H 0.48634 0.2314 0.74354 0.0
H1706 H 0.42686 0.27824 0.76106 0.0
H1707 H 0.48958 0.27437 0.80915 0.0
C1708 C 0.55153 0.24085 0.75811 0.0
C1709 C 0.57619 0.24787 0.75457 0.0
C1710 C 0.53801 0.25059 0.77755 0.0
C1711 C 0.54934 0.26814 0.79289 0.0
C1712 C 0.57387 0.27572 0.78914 0.0
C1713 C 0.58694 0.26556 0.76984 0.0
C1714 C 0.51381 0.23868 0.78498 0.0
C1715 C 0.4912 0.25233 0.77664 0.0
C1716 C 0.47863 0.24519 0.75513 0.0
C1717 C 0.45553 0.25477 0.74928 0.0
C1718 C 0.44524 0.27192 0.76491 0.0
C1719 C 0.45718 0.27911 0.78663 0.0
C1720 C 0.48042 0.26948 0.79216 0.0
H1721 H 0.4894 0.80579 0.75045 0.0
H1722 H 0.49007 0.75083 0.80752 0.0
H1723 H 0.42419 0.76345 0.76592 0.0
H1724 H 0.519 0.80852 0.78497 0.0
H1725 H 0.51948 0.78577 0.80828 0.0
H1726 H 0.5428 0.80421 0.74753 0.0
H1727 H 0.59955 0.75085 0.74955 0.0
H1728 H 0.54217 0.74767 0.80291 0.0
C1729 C 0.48031 0.79114 0.76049 0.0
C1730 C 0.45543 0.78571 0.75571 0.0
C1731 C 0.49298 0.77884 0.77941 0.0
C1732 C 0.48069 0.76014 0.79269 0.0
C1733 C 0.4558 0.75466 0.78793 0.0
C1734 C 0.44343 0.76757 0.76953 0.0
C1735 C 0.51779 0.78846 0.78814 0.0
C1736 C 0.53933 0.77661 0.77592 0.0
C1737 C 0.55051 0.78781 0.75541 0.0
C1738 C 0.57217 0.77843 0.74568 0.0
C1739 C 0.58235 0.75756 0.75641 0.0
C1740 C 0.57181 0.74641 0.77706 0.0
C1741 C 0.55015 0.7559 0.78666 0.0
H1742 H 0.54347 0.72689 0.2466 0.0
H1743 H 0.54133 0.77439 0.30896 0.0
H1744 H 0.60696 0.77007 0.26625 0.0
H1745 H 0.51443 0.71913 0.27943 0.0
H1746 H 0.51491 0.73716 0.30616 0.0
H1747 H 0.48652 0.72781 0.24588 0.0
H1748 H 0.4257 0.77265 0.2637 0.0
H1749 H 0.49124 0.7754 0.30817 0.0
C1750 C 0.55191 0.741 0.2578 0.0
C1751 C 0.57649 0.74798 0.25373 0.0
C1752 C 0.539 0.75047 0.27777 0.0
C1753 C 0.5508 0.76773 0.29307 0.0
C1754 C 0.57527 0.7752 0.28886 0.0
C1755 C 0.58777 0.76532 0.26903 0.0
C1756 C 0.51515 0.73835 0.28583 0.0
C1757 C 0.49213 0.75114 0.27725 0.0
C1758 C 0.47892 0.74219 0.25682 0.0
C1759 C 0.45492 0.74991 0.25203 0.0
C1760 C 0.44458 0.76754 0.267 0.0
C1761 C 0.45749 0.77716 0.28717 0.0
C1762 C 0.48144 0.76896 0.29207 0.0
H1763 H 0.4928 0.30768 0.24942 0.0
H1764 H 0.49143 0.25179 0.30554 0.0
H1765 H 0.42821 0.26281 0.25956 0.0
H1766 H 0.51938 0.31086 0.28597 0.0
H1767 H 0.51858 0.2881 0.30918 0.0
H1768 H 0.5465 0.30738 0.25048 0.0
H1769 H 0.60927 0.26271 0.26376 0.0
H1770 H 0.54441 0.25168 0.30681 0.0
C1771 C 0.48369 0.29235 0.25838 0.0
C1772 C 0.45945 0.28605 0.25171 0.0
C1773 C 0.49548 0.28009 0.2779 0.0
C1774 C 0.48292 0.26082 0.29002 0.0
C1775 C 0.45863 0.25462 0.28345 0.0
C1776 C 0.44714 0.26725 0.26431 0.0
C1777 C 0.51886 0.29075 0.28897 0.0
C1778 C 0.54229 0.28017 0.27919 0.0
C1779 C 0.55491 0.2922 0.25999 0.0
C1780 C 0.57916 0.28604 0.25452 0.0
C1781 C 0.59044 0.26728 0.26774 0.0
C1782 C 0.57794 0.25454 0.28626 0.0
C1783 C 0.55372 0.26079 0.29177 0.0
loop_
_geom_bond_atom_site_label_1
_geom_bond_atom_site_label_2
_geom_bond_distance
_geom_bond_site_symmetry_2
_ccdc_geom_bond_type
C0 C1 1.264 . S
C0 C5 1.479 . S
C0 C10 1.465 . S
C1 C0 1.264 . S
C1 C3 1.339 . S
C1 H28 0.931 . S
C2 C3 1.395 . S
C2 C4 1.320 . S
C3 C1 1.339 . S
C3 C2 1.395 . S
C3 H29 0.929 . S
C4 C2 1.320 . S
C4 C5 1.405 . S
C4 H30 0.930 . S
C5 C0 1.479 . S
C5 C4 1.405 . S
C5 H31 0.931 . S
U6 O7 2.454 . S
U6 O8 2.458 . S
U6 C9 2.984 . S
U6 C10 2.847 . S
U6 C23 2.882 . S
U6 O24 2.441 . S
U6 O25 2.420 . S
U6 O26 2.455 . S
U6 O27 2.449 . S
O7 U6 2.454 . S
O7 C9 1.353 . S
O8 U6 2.458 . S
O8 C9 1.286 . S
C9 U6 2.984 . S
C9 O7 1.353 . S
C9 O8 1.286 . S
C9 C11 1.363 . S
C10 C0 1.465 . S
C10 U6 2.847 . S
C10 O24 1.249 . S
C10 O25 1.202 . S
C11 C9 1.363 . S
C11 C13 1.408 . S
C11 C16 1.342 . S
C12 C13 1.310 . S
C12 C15 1.461 . S
C12 H32 0.932 . S
C13 C11 1.408 . S
C13 C12 1.310 . S
C13 H33 0.930 . S
C14 C15 1.474 . S
C14 C16 1.285 . S
C14 H34 0.929 . S
C15 C12 1.461 . S
C15 C14 1.474 . S
C16 C11 1.342 . S
C16 C14 1.285 . S
C16 H35 0.930 . S
C17 C20 1.424 . S
C17 C22 1.245 . S
C17 C23 1.428 . S
C18 C21 1.260 . S
C18 C22 1.477 . S
C18 H36 0.932 . S
C19 C20 1.384 . S
C19 C21 1.479 . S
C19 H37 0.929 . S
C20 C17 1.424 . S
C20 C19 1.384 . S
C20 H38 0.928 . S
C21 C18 1.260 . S
C21 C19 1.479 . S
C22 C17 1.245 . S
C22 C18 1.477 . S
C22 H39 0.932 . S
C23 U6 2.882 . S
C23 C17 1.428 . S
C23 O26 1.301 . S
C23 O27 1.282 . S
O24 U6 2.441 . S
O24 C10 1.249 . S
O25 U6 2.420 . S
O25 C10 1.202 . S
O26 U6 2.455 . S
O26 C23 1.301 . S
O27 U6 2.449 . S
O27 C23 1.282 . S
H28 C1 0.931 . S
H29 C3 0.929 . S
H30 C4 0.930 . S
H31 C5 0.931 . S
H32 C12 0.932 . S
H33 C13 0.930 . S
H34 C14 0.929 . S
H35 C16 0.930 . S
H36 C18 0.932 . S
H37 C19 0.929 . S
H38 C20 0.928 . S
H39 C22 0.932 . S
C40 C41 1.264 . S
C40 C45 1.479 . S
C40 C50 1.465 . S
C41 C40 1.264 . S
C41 C43 1.339 . S
C41 H68 0.931 . S
C42 C43 1.395 . S
C42 C44 1.320 . S
C43 C41 1.339 . S
C43 C42 1.395 . S
C43 H69 0.929 . S
C44 C42 1.320 . S
C44 C45 1.405 . S
C44 H70 0.930 . S
C45 C40 1.479 . S
C45 C44 1.405 . S
C45 H71 0.931 . S
U46 O47 2.454 . S
U46 O48 2.458 . S
U46 C49 2.984 . S
U46 C50 2.847 . S
U46 C63 2.882 . S
U46 O64 2.441 . S
U46 O65 2.420 . S
U46 O66 2.455 . S
U46 O67 2.449 . S
O47 U46 2.454 . S
O47 C49 1.353 . S
O48 U46 2.458 . S
O48 C49 1.286 . S
C49 U46 2.984 . S
C49 O47 1.353 . S
C49 O48 1.286 . S
C49 C51 1.363 . S
C50 C40 1.465 . S
C50 U46 2.847 . S
C50 O64 1.249 . S
C50 O65 1.202 . S
C51 C49 1.363 . S
C51 C53 1.408 . S
C51 C56 1.342 . S
C52 C53 1.310 . S
C52 C55 1.461 . S
C52 H72 0.932 . S
C53 C51 1.408 . S
C53 C52 1.310 . S
C53 H73 0.930 . S
C54 C55 1.474 . S
C54 C56 1.285 . S
C54 H74 0.929 . S
C55 C52 1.461 . S
C55 C54 1.474 . S
C56 C51 1.342 . S
C56 C54 1.285 . S
C56 H75 0.930 . S
C57 C60 1.424 . S
C57 C62 1.245 . S
C57 C63 1.428 . S
C58 C61 1.260 . S
C58 C62 1.477 . S
C58 H76 0.932 . S
C59 C60 1.384 . S
C59 C61 1.479 . S
C59 H77 0.929 . S
C60 C57 1.424 . S
C60 C59 1.384 . S
C60 H78 0.928 . S
C61 C58 1.260 . S
C61 C59 1.479 . S
C62 C57 1.245 . S
C62 C58 1.477 . S
C62 H79 0.932 . S
C63 U46 2.882 . S
C63 C57 1.428 . S
C63 O66 1.301 . S
C63 O67 1.282 . S
O64 U46 2.441 . S
O64 C50 1.249 . S
O65 U46 2.420 . S
O65 C50 1.202 . S
O66 U46 2.455 . S
O66 C63 1.301 . S
O67 U46 2.449 . S
O67 C63 1.282 . S
H68 C41 0.931 . S
H69 C43 0.929 . S
H70 C44 0.930 . S
H71 C45 0.931 . S
H72 C52 0.932 . S
H73 C53 0.930 . S
H74 C54 0.929 . S
H75 C56 0.930 . S
H76 C58 0.932 . S
H77 C59 0.929 . S
H78 C60 0.928 . S
H79 C62 0.932 . S
C80 C81 1.264 . S
C80 C85 1.479 . S
C80 C90 1.465 . S
C81 C80 1.264 . S
C81 C83 1.339 . S
C81 H108 0.931 . S
C82 C83 1.395 . S
C82 C84 1.320 . S
C83 C81 1.339 . S
C83 C82 1.395 . S
C83 H109 0.929 . S
C84 C82 1.320 . S
C84 C85 1.405 . S
C84 H110 0.930 . S
C85 C80 1.479 . S
C85 C84 1.405 . S
C85 H111 0.931 . S
U86 O87 2.454 . S
U86 O88 2.458 . S
U86 C89 2.984 . S
U86 C90 2.847 . S
U86 C103 2.882 . S
U86 O104 2.441 . S
U86 O105 2.420 . S
U86 O106 2.455 . S
U86 O107 2.449 . S
O87 U86 2.454 . S
O87 C89 1.353 . S
O88 U86 2.458 . S
O88 C89 1.286 . S
C89 U86 2.984 . S
C89 O87 1.353 . S
C89 O88 1.286 . S
C89 C91 1.363 . S
C90 C80 1.465 . S
C90 U86 2.847 . S
C90 O104 1.249 . S
C90 O105 1.202 . S
C91 C89 1.363 . S
C91 C93 1.408 . S
C91 C96 1.342 . S
C92 C93 1.310 . S
C92 C95 1.461 . S
C92 H112 0.932 . S
C93 C91 1.408 . S
C93 C92 1.310 . S
C93 H113 0.930 . S
C94 C95 1.474 . S
C94 C96 1.285 . S
C94 H114 0.929 . S
C95 C92 1.461 . S
C95 C94 1.474 . S
C96 C91 1.342 . S
C96 C94 1.285 . S
C96 H115 0.930 . S
C97 C100 1.424 . S
C97 C102 1.245 . S
C97 C103 1.428 . S
C98 C101 1.260 . S
C98 C102 1.477 . S
C98 H116 0.932 . S
C99 C100 1.384 . S
C99 C101 1.479 . S
C99 H117 0.929 . S
C100 C97 1.424 . S
C100 C99 1.384 . S
C100 H118 0.928 . S
C101 C98 1.260 . S
C101 C99 1.479 . S
C102 C97 1.245 . S
C102 C98 1.477 . S
C102 H119 0.932 . S
C103 U86 2.882 . S
C103 C97 1.428 . S
C103 O106 1.301 . S
C103 O107 1.282 . S
O104 U86 2.441 . S
O104 C90 1.249 . S
O105 U86 2.420 . S
O105 C90 1.202 . S
O106 U86 2.455 . S
O106 C103 1.301 . S
O107 U86 2.449 . S
O107 C103 1.282 . S
H108 C81 0.931 . S
H109 C83 0.929 . S
H110 C84 0.930 . S
H111 C85 0.931 . S
H112 C92 0.932 . S
H113 C93 0.930 . S
H114 C94 0.929 . S
H115 C96 0.930 . S
H116 C98 0.932 . S
H117 C99 0.929 . S
H118 C100 0.928 . S
H119 C102 0.932 . S
C120 C121 1.264 . S
C120 C125 1.479 . S
C120 C130 1.465 . S
C121 C120 1.264 . S
C121 C123 1.339 . S
C121 H148 0.931 . S
C122 C123 1.395 . S
C122 C124 1.320 . S
C123 C121 1.339 . S
C123 C122 1.395 . S
C123 H149 0.929 . S
C124 C122 1.320 . S
C124 C125 1.405 . S
C124 H150 0.930 . S
C125 C120 1.479 . S
C125 C124 1.405 . S
C125 H151 0.931 . S
U126 O127 2.454 . S
U126 O128 2.458 . S
U126 C129 2.984 . S
U126 C130 2.847 . S
U126 C143 2.882 . S
U126 O144 2.441 . S
U126 O145 2.420 . S
U126 O146 2.455 . S
U126 O147 2.449 . S
O127 U126 2.454 . S
O127 C129 1.353 . S
O128 U126 2.458 . S
O128 C129 1.286 . S
C129 U126 2.984 . S
C129 O127 1.353 . S
C129 O128 1.286 . S
C129 C131 1.363 . S
C130 C120 1.465 . S
C130 U126 2.847 . S
C130 O144 1.249 . S
C130 O145 1.202 . S
C131 C129 1.363 . S
C131 C133 1.408 . S
C131 C136 1.342 . S
C132 C133 1.310 . S
C132 C135 1.461 . S
C132 H152 0.932 . S
C133 C131 1.408 . S
C133 C132 1.310 . S
C133 H153 0.930 . S
C134 C135 1.474 . S
C134 C136 1.285 . S
C134 H154 0.929 . S
C135 C132 1.461 . S
C135 C134 1.474 . S
C136 C131 1.342 . S
C136 C134 1.285 . S
C136 H155 0.930 . S
C137 C140 1.424 . S
C137 C142 1.245 . S
C137 C143 1.428 . S
C138 C141 1.260 . S
C138 C142 1.477 . S
C138 H156 0.932 . S
C139 C140 1.384 . S
C139 C141 1.479 . S
C139 H157 0.929 . S
C140 C137 1.424 . S
C140 C139 1.384 . S
C140 H158 0.928 . S
C141 C138 1.260 . S
C141 C139 1.479 . S
C142 C137 1.245 . S
C142 C138 1.477 . S
C142 H159 0.932 . S
C143 U126 2.882 . S
C143 C137 1.428 . S
C143 O146 1.301 . S
C143 O147 1.282 . S
O144 U126 2.441 . S
O144 C130 1.249 . S
O145 U126 2.420 . S
O145 C130 1.202 . S
O146 U126 2.455 . S
O146 C143 1.301 . S
O147 U126 2.449 . S
O147 C143 1.282 . S
H148 C121 0.931 . S
H149 C123 0.929 . S
H150 C124 0.930 . S
H151 C125 0.931 . S
H152 C132 0.932 . S
H153 C133 0.930 . S
H154 C134 0.929 . S
H155 C136 0.930 . S
H156 C138 0.932 . S
H157 C139 0.929 . S
H158 C140 0.928 . S
H159 C142 0.932 . S
C160 C161 1.264 . S
C160 C165 1.479 . S
C160 C170 1.465 . S
C161 C160 1.264 . S
C161 C163 1.339 . S
C161 H188 0.931 . S
C162 C163 1.395 . S
C162 C164 1.320 . S
C163 C161 1.339 . S
C163 C162 1.395 . S
C163 H189 0.929 . S
C164 C162 1.320 . S
C164 C165 1.405 . S
C164 H190 0.930 . S
C165 C160 1.479 . S
C165 C164 1.405 . S
C165 H191 0.931 . S
U166 O167 2.454 . S
U166 O168 2.458 . S
U166 C169 2.984 . S
U166 C170 2.847 . S
U166 C183 2.882 . S
U166 O184 2.441 . S
U166 O185 2.420 . S
U166 O186 2.455 . S
U166 O187 2.449 . S
O167 U166 2.454 . S
O167 C169 1.353 . S
O168 U166 2.458 . S
O168 C169 1.286 . S
C169 U166 2.984 . S
C169 O167 1.353 . S
C169 O168 1.286 . S
C169 C171 1.363 . S
C170 C160 1.465 . S
C170 U166 2.847 . S
C170 O184 1.249 . S
C170 O185 1.202 . S
C171 C169 1.363 . S
C171 C173 1.408 . S
C171 C176 1.342 . S
C172 C173 1.310 . S
C172 C175 1.461 . S
C172 H192 0.932 . S
C173 C171 1.408 . S
C173 C172 1.310 . S
C173 H193 0.930 . S
C174 C175 1.474 . S
C174 C176 1.285 . S
C174 H194 0.929 . S
C175 C172 1.461 . S
C175 C174 1.474 . S
C176 C171 1.342 . S
C176 C174 1.285 . S
C176 H195 0.930 . S
C177 C180 1.424 . S
C177 C182 1.245 . S
C177 C183 1.428 . S
C178 C181 1.260 . S
C178 C182 1.477 . S
C178 H196 0.932 . S
C179 C180 1.384 . S
C179 C181 1.479 . S
C179 H197 0.929 . S
C180 C177 1.424 . S
C180 C179 1.384 . S
C180 H198 0.928 . S
C181 C178 1.260 . S
C181 C179 1.479 . S
C182 C177 1.245 . S
C182 C178 1.477 . S
C182 H199 0.932 . S
C183 U166 2.882 . S
C183 C177 1.428 . S
C183 O186 1.301 . S
C183 O187 1.282 . S
O184 U166 2.441 . S
O184 C170 1.249 . S
O185 U166 2.420 . S
O185 C170 1.202 . S
O186 U166 2.455 . S
O186 C183 1.301 . S
O187 U166 2.449 . S
O187 C183 1.282 . S
H188 C161 0.931 . S
H189 C163 0.929 . S
H190 C164 0.930 . S
H191 C165 0.931 . S
H192 C172 0.932 . S
H193 C173 0.930 . S
H194 C174 0.929 . S
H195 C176 0.930 . S
H196 C178 0.932 . S
H197 C179 0.929 . S
H198 C180 0.928 . S
H199 C182 0.932 . S
C200 C201 1.264 . S
C200 C205 1.479 . S
C200 C210 1.465 . S
C201 C200 1.264 . S
C201 C203 1.339 . S
C201 H228 0.931 . S
C202 C203 1.395 . S
C202 C204 1.320 . S
C203 C201 1.339 . S
C203 C202 1.395 . S
C203 H229 0.929 . S
C204 C202 1.320 . S
C204 C205 1.405 . S
C204 H230 0.930 . S
C205 C200 1.479 . S
C205 C204 1.405 . S
C205 H231 0.931 . S
U206 O207 2.454 . S
U206 O208 2.458 . S
U206 C209 2.984 . S
U206 C210 2.847 . S
U206 C223 2.882 . S
U206 O224 2.441 . S
U206 O225 2.420 . S
U206 O226 2.455 . S
U206 O227 2.449 . S
O207 U206 2.454 . S
O207 C209 1.353 . S
O208 U206 2.458 . S
O208 C209 1.286 . S
C209 U206 2.984 . S
C209 O207 1.353 . S
C209 O208 1.286 . S
C209 C211 1.363 . S
C210 C200 1.465 . S
C210 U206 2.847 . S
C210 O224 1.249 . S
C210 O225 1.202 . S
C211 C209 1.363 . S
C211 C213 1.408 . S
C211 C216 1.342 . S
C212 C213 1.310 . S
C212 C215 1.461 . S
C212 H232 0.932 . S
C213 C211 1.408 . S
C213 C212 1.310 . S
C213 H233 0.930 . S
C214 C215 1.474 . S
C214 C216 1.285 . S
C214 H234 0.929 . S
C215 C212 1.461 . S
C215 C214 1.474 . S
C216 C211 1.342 . S
C216 C214 1.285 . S
C216 H235 0.930 . S
C217 C220 1.424 . S
C217 C222 1.245 . S
C217 C223 1.428 . S
C218 C221 1.260 . S
C218 C222 1.477 . S
C218 H236 0.932 . S
C219 C220 1.384 . S
C219 C221 1.479 . S
C219 H237 0.929 . S
C220 C217 1.424 . S
C220 C219 1.384 . S
C220 H238 0.928 . S
C221 C218 1.260 . S
C221 C219 1.479 . S
C222 C217 1.245 . S
C222 C218 1.477 . S
C222 H239 0.932 . S
C223 U206 2.882 . S
C223 C217 1.428 . S
C223 O226 1.301 . S
C223 O227 1.282 . S
O224 U206 2.441 . S
O224 C210 1.249 . S
O225 U206 2.420 . S
O225 C210 1.202 . S
O226 U206 2.455 . S
O226 C223 1.301 . S
O227 U206 2.449 . S
O227 C223 1.282 . S
H228 C201 0.931 . S
H229 C203 0.929 . S
H230 C204 0.930 . S
H231 C205 0.931 . S
H232 C212 0.932 . S
H233 C213 0.930 . S
H234 C214 0.929 . S
H235 C216 0.930 . S
H236 C218 0.932 . S
H237 C219 0.929 . S
H238 C220 0.928 . S
H239 C222 0.932 . S
C240 C241 1.264 . S
C240 C245 1.479 . S
C240 C250 1.465 . S
C241 C240 1.264 . S
C241 C243 1.339 . S
C241 H268 0.931 . S
C242 C243 1.395 . S
C242 C244 1.320 . S
C243 C241 1.339 . S
C243 C242 1.395 . S
C243 H269 0.929 . S
C244 C242 1.320 . S
C244 C245 1.405 . S
C244 H270 0.930 . S
C245 C240 1.479 . S
C245 C244 1.405 . S
C245 H271 0.931 . S
U246 O247 2.454 . S
U246 O248 2.458 . S
U246 C249 2.984 . S
U246 C250 2.847 . S
U246 C263 2.882 . S
U246 O264 2.441 . S
U246 O265 2.420 . S
U246 O266 2.455 . S
U246 O267 2.449 . S
O247 U246 2.454 . S
O247 C249 1.353 . S
O248 U246 2.458 . S
O248 C249 1.286 . S
C249 U246 2.984 . S
C249 O247 1.353 . S
C249 O248 1.286 . S
C249 C251 1.363 . S
C250 C240 1.465 . S
C250 U246 2.847 . S
C250 O264 1.249 . S
C250 O265 1.202 . S
C251 C249 1.363 . S
C251 C253 1.408 . S
C251 C256 1.342 . S
C252 C253 1.310 . S
C252 C255 1.461 . S
C252 H272 0.932 . S
C253 C251 1.408 . S
C253 C252 1.310 . S
C253 H273 0.930 . S
C254 C255 1.474 . S
C254 C256 1.285 . S
C254 H274 0.929 . S
C255 C252 1.461 . S
C255 C254 1.474 . S
C256 C251 1.342 . S
C256 C254 1.285 . S
C256 H275 0.930 . S
C257 C260 1.424 . S
C257 C262 1.245 . S
C257 C263 1.428 . S
C258 C261 1.260 . S
C258 C262 1.477 . S
C258 H276 0.932 . S
C259 C260 1.384 . S
C259 C261 1.479 . S
C259 H277 0.929 . S
C260 C257 1.424 . S
C260 C259 1.384 . S
C260 H278 0.928 . S
C261 C258 1.260 . S
C261 C259 1.479 . S
C262 C257 1.245 . S
C262 C258 1.477 . S
C262 H279 0.932 . S
C263 U246 2.882 . S
C263 C257 1.428 . S
C263 O266 1.301 . S
C263 O267 1.282 . S
O264 U246 2.441 . S
O264 C250 1.249 . S
O265 U246 2.420 . S
O265 C250 1.202 . S
O266 U246 2.455 . S
O266 C263 1.301 . S
O267 U246 2.449 . S
O267 C263 1.282 . S
H268 C241 0.931 . S
H269 C243 0.929 . S
H270 C244 0.930 . S
H271 C245 0.931 . S
H272 C252 0.932 . S
H273 C253 0.930 . S
H274 C254 0.929 . S
H275 C256 0.930 . S
H276 C258 0.932 . S
H277 C259 0.929 . S
H278 C260 0.928 . S
H279 C262 0.932 . S
C280 C281 1.264 . S
C280 C285 1.479 . S
C280 C290 1.465 . S
C281 C280 1.264 . S
C281 C283 1.339 . S
C281 H308 0.931 . S
C282 C283 1.395 . S
C282 C284 1.320 . S
C283 C281 1.339 . S
C283 C282 1.395 . S
C283 H309 0.929 . S
C284 C282 1.320 . S
C284 C285 1.405 . S
C284 H310 0.930 . S
C285 C280 1.479 . S
C285 C284 1.405 . S
C285 H311 0.931 . S
U286 O287 2.454 . S
U286 O288 2.458 . S
U286 C289 2.984 . S
U286 C290 2.847 . S
U286 C303 2.882 . S
U286 O304 2.441 . S
U286 O305 2.420 . S
U286 O306 2.455 . S
U286 O307 2.449 . S
O287 U286 2.454 . S
O287 C289 1.353 . S
O288 U286 2.458 . S
O288 C289 1.286 . S
C289 U286 2.984 . S
C289 O287 1.353 . S
C289 O288 1.286 . S
C289 C291 1.363 . S
C290 C280 1.465 . S
C290 U286 2.847 . S
C290 O304 1.249 . S
C290 O305 1.202 . S
C291 C289 1.363 . S
C291 C293 1.408 . S
C291 C296 1.342 . S
C292 C293 1.310 . S
C292 C295 1.461 . S
C292 H312 0.932 . S
C293 C291 1.408 . S
C293 C292 1.310 . S
C293 H313 0.930 . S
C294 C295 1.474 . S
C294 C296 1.285 . S
C294 H314 0.929 . S
C295 C292 1.461 . S
C295 C294 1.474 . S
C296 C291 1.342 . S
C296 C294 1.285 . S
C296 H315 0.930 . S
C297 C300 1.424 . S
C297 C302 1.245 . S
C297 C303 1.428 . S
C298 C301 1.260 . S
C298 C302 1.477 . S
C298 H316 0.932 . S
C299 C300 1.384 . S
C299 C301 1.479 . S
C299 H317 0.929 . S
C300 C297 1.424 . S
C300 C299 1.384 . S
C300 H318 0.928 . S
C301 C298 1.260 . S
C301 C299 1.479 . S
C302 C297 1.245 . S
C302 C298 1.477 . S
C302 H319 0.932 . S
C303 U286 2.882 . S
C303 C297 1.428 . S
C303 O306 1.301 . S
C303 O307 1.282 . S
O304 U286 2.441 . S
O304 C290 1.249 . S
O305 U286 2.420 . S
O305 C290 1.202 . S
O306 U286 2.455 . S
O306 C303 1.301 . S
O307 U286 2.449 . S
O307 C303 1.282 . S
H308 C281 0.931 . S
H309 C283 0.929 . S
H310 C284 0.930 . S
H311 C285 0.931 . S
H312 C292 0.932 . S
H313 C293 0.930 . S
H314 C294 0.929 . S
H315 C296 0.930 . S
H316 C298 0.932 . S
H317 C299 0.929 . S
H318 C300 0.928 . S
H319 C302 0.932 . S
C320 C321 1.264 . S
C320 C325 1.479 . S
C320 C330 1.465 . S
C321 C320 1.264 . S
C321 C323 1.339 . S
C321 H348 0.931 . S
C322 C323 1.395 . S
C322 C324 1.320 . S
C323 C321 1.339 . S
C323 C322 1.395 . S
C323 H349 0.929 . S
C324 C322 1.320 . S
C324 C325 1.405 . S
C324 H350 0.930 . S
C325 C320 1.479 . S
C325 C324 1.405 . S
C325 H351 0.931 . S
U326 O327 2.454 . S
U326 O328 2.458 . S
U326 C329 2.984 . S
U326 C330 2.847 . S
U326 C343 2.882 . S
U326 O344 2.441 . S
U326 O345 2.420 . S
U326 O346 2.455 . S
U326 O347 2.449 . S
O327 U326 2.454 . S
O327 C329 1.353 . S
O328 U326 2.458 . S
O328 C329 1.286 . S
C329 U326 2.984 . S
C329 O327 1.353 . S
C329 O328 1.286 . S
C329 C331 1.363 . S
C330 C320 1.465 . S
C330 U326 2.847 . S
C330 O344 1.249 . S
C330 O345 1.202 . S
C331 C329 1.363 . S
C331 C333 1.408 . S
C331 C336 1.342 . S
C332 C333 1.310 . S
C332 C335 1.461 . S
C332 H352 0.932 . S
C333 C331 1.408 . S
C333 C332 1.310 . S
C333 H353 0.930 . S
C334 C335 1.474 . S
C334 C336 1.285 . S
C334 H354 0.929 . S
C335 C332 1.461 . S
C335 C334 1.474 . S
C336 C331 1.342 . S
C336 C334 1.285 . S
C336 H355 0.930 . S
C337 C340 1.424 . S
C337 C342 1.245 . S
C337 C343 1.428 . S
C338 C341 1.260 . S
C338 C342 1.477 . S
C338 H356 0.932 . S
C339 C340 1.384 . S
C339 C341 1.479 . S
C339 H357 0.929 . S
C340 C337 1.424 . S
C340 C339 1.384 . S
C340 H358 0.928 . S
C341 C338 1.260 . S
C341 C339 1.479 . S
C342 C337 1.245 . S
C342 C338 1.477 . S
C342 H359 0.932 . S
C343 U326 2.882 . S
C343 C337 1.428 . S
C343 O346 1.301 . S
C343 O347 1.282 . S
O344 U326 2.441 . S
O344 C330 1.249 . S
O345 U326 2.420 . S
O345 C330 1.202 . S
O346 U326 2.455 . S
O346 C343 1.301 . S
O347 U326 2.449 . S
O347 C343 1.282 . S
H348 C321 0.931 . S
H349 C323 0.929 . S
H350 C324 0.930 . S
H351 C325 0.931 . S
H352 C332 0.932 . S
H353 C333 0.930 . S
H354 C334 0.929 . S
H355 C336 0.930 . S
H356 C338 0.932 . S
H357 C339 0.929 . S
H358 C340 0.928 . S
H359 C342 0.932 . S
C360 C361 1.264 . S
C360 C365 1.479 . S
C360 C370 1.465 . S
C361 C360 1.264 . S
C361 C363 1.339 . S
C361 H388 0.931 . S
C362 C363 1.395 . S
C362 C364 1.320 . S
C363 C361 1.339 . S
C363 C362 1.395 . S
C363 H389 0.929 . S
C364 C362 1.320 . S
C364 C365 1.405 . S
C364 H390 0.930 . S
C365 C360 1.479 . S
C365 C364 1.405 . S
C365 H391 0.931 . S
U366 O367 2.454 . S
U366 O368 2.458 . S
U366 C369 2.984 . S
U366 C370 2.847 . S
U366 C383 2.882 . S
U366 O384 2.441 . S
U366 O385 2.420 . S
U366 O386 2.455 . S
U366 O387 2.449 . S
O367 U366 2.454 . S
O367 C369 1.353 . S
O368 U366 2.458 . S
O368 C369 1.286 . S
C369 U366 2.984 . S
C369 O367 1.353 . S
C369 O368 1.286 . S
C369 C371 1.363 . S
C370 C360 1.465 . S
C370 U366 2.847 . S
C370 O384 1.249 . S
C370 O385 1.202 . S
C371 C369 1.363 . S
C371 C373 1.408 . S
C371 C376 1.342 . S
C372 C373 1.310 . S
C372 C375 1.461 . S
C372 H392 0.932 . S
C373 C371 1.408 . S
C373 C372 1.310 . S
C373 H393 0.930 . S
C374 C375 1.474 . S
C374 C376 1.285 . S
C374 H394 0.929 . S
C375 C372 1.461 . S
C375 C374 1.474 . S
C376 C371 1.342 . S
C376 C374 1.285 . S
C376 H395 0.930 . S
C377 C380 1.424 . S
C377 C382 1.245 . S
C377 C383 1.428 . S
C378 C381 1.260 . S
C378 C382 1.477 . S
C378 H396 0.932 . S
C379 C380 1.384 . S
C379 C381 1.479 . S
C379 H397 0.929 . S
C380 C377 1.424 . S
C380 C379 1.384 . S
C380 H398 0.928 . S
C381 C378 1.260 . S
C381 C379 1.479 . S
C382 C377 1.245 . S
C382 C378 1.477 . S
C382 H399 0.932 . S
C383 U366 2.882 . S
C383 C377 1.428 . S
C383 O386 1.301 . S
C383 O387 1.282 . S
O384 U366 2.441 . S
O384 C370 1.249 . S
O385 U366 2.420 . S
O385 C370 1.202 . S
O386 U366 2.455 . S
O386 C383 1.301 . S
O387 U366 2.449 . S
O387 C383 1.282 . S
H388 C361 0.931 . S
H389 C363 0.929 . S
H390 C364 0.930 . S
H391 C365 0.931 . S
H392 C372 0.932 . S
H393 C373 0.930 . S
H394 C374 0.929 . S
H395 C376 0.930 . S
H396 C378 0.932 . S
H397 C379 0.929 . S
H398 C380 0.928 . S
H399 C382 0.932 . S
C400 C401 1.264 . S
C400 C405 1.479 . S
C400 C410 1.465 . S
C401 C400 1.264 . S
C401 C403 1.339 . S
C401 H428 0.931 . S
C402 C403 1.395 . S
C402 C404 1.320 . S
C403 C401 1.339 . S
C403 C402 1.395 . S
C403 H429 0.929 . S
C404 C402 1.320 . S
C404 C405 1.405 . S
C404 H430 0.930 . S
C405 C400 1.479 . S
C405 C404 1.405 . S
C405 H431 0.931 . S
U406 O407 2.454 . S
U406 O408 2.458 . S
U406 C409 2.984 . S
U406 C410 2.847 . S
U406 C423 2.882 . S
U406 O424 2.441 . S
U406 O425 2.420 . S
U406 O426 2.455 . S
U406 O427 2.449 . S
O407 U406 2.454 . S
O407 C409 1.353 . S
O408 U406 2.458 . S
O408 C409 1.286 . S
C409 U406 2.984 . S
C409 O407 1.353 . S
C409 O408 1.286 . S
C409 C411 1.363 . S
C410 C400 1.465 . S
C410 U406 2.847 . S
C410 O424 1.249 . S
C410 O425 1.202 . S
C411 C409 1.363 . S
C411 C413 1.408 . S
C411 C416 1.342 . S
C412 C413 1.310 . S
C412 C415 1.461 . S
C412 H432 0.932 . S
C413 C411 1.408 . S
C413 C412 1.310 . S
C413 H433 0.930 . S
C414 C415 1.474 . S
C414 C416 1.285 . S
C414 H434 0.929 . S
C415 C412 1.461 . S
C415 C414 1.474 . S
C416 C411 1.342 . S
C416 C414 1.285 . S
C416 H435 0.930 . S
C417 C420 1.424 . S
C417 C422 1.245 . S
C417 C423 1.428 . S
C418 C421 1.260 . S
C418 C422 1.477 . S
C418 H436 0.932 . S
C419 C420 1.384 . S
C419 C421 1.479 . S
C419 H437 0.929 . S
C420 C417 1.424 . S
C420 C419 1.384 . S
C420 H438 0.928 . S
C421 C418 1.260 . S
C421 C419 1.479 . S
C422 C417 1.245 . S
C422 C418 1.477 . S
C422 H439 0.932 . S
C423 U406 2.882 . S
C423 C417 1.428 . S
C423 O426 1.301 . S
C423 O427 1.282 . S
O424 U406 2.441 . S
O424 C410 1.249 . S
O425 U406 2.420 . S
O425 C410 1.202 . S
O426 U406 2.455 . S
O426 C423 1.301 . S
O427 U406 2.449 . S
O427 C423 1.282 . S
H428 C401 0.931 . S
H429 C403 0.929 . S
H430 C404 0.930 . S
H431 C405 0.931 . S
H432 C412 0.932 . S
H433 C413 0.930 . S
H434 C414 0.929 . S
H435 C416 0.930 . S
H436 C418 0.932 . S
H437 C419 0.929 . S
H438 C420 0.928 . S
H439 C422 0.932 . S
C440 C441 1.264 . S
C440 C445 1.479 . S
C440 C450 1.465 . S
C441 C440 1.264 . S
C441 C443 1.339 . S
C441 H468 0.931 . S
C442 C443 1.395 . S
C442 C444 1.320 . S
C443 C441 1.339 . S
C443 C442 1.395 . S
C443 H469 0.929 . S
C444 C442 1.320 . S
C444 C445 1.405 . S
C444 H470 0.930 . S
C445 C440 1.479 . S
C445 C444 1.405 . S
C445 H471 0.931 . S
U446 O447 2.454 . S
U446 O448 2.458 . S
U446 C449 2.984 . S
U446 C450 2.847 . S
U446 C463 2.882 . S
U446 O464 2.441 . S
U446 O465 2.420 . S
U446 O466 2.455 . S
U446 O467 2.449 . S
O447 U446 2.454 . S
O447 C449 1.353 . S
O448 U446 2.458 . S
O448 C449 1.286 . S
C449 U446 2.984 . S
C449 O447 1.353 . S
C449 O448 1.286 . S
C449 C451 1.363 . S
C450 C440 1.465 . S
C450 U446 2.847 . S
C450 O464 1.249 . S
C450 O465 1.202 . S
C451 C449 1.363 . S
C451 C453 1.408 . S
C451 C456 1.342 . S
C452 C453 1.310 . S
C452 C455 1.461 . S
C452 H472 0.932 . S
C453 C451 1.408 . S
C453 C452 1.310 . S
C453 H473 0.930 . S
C454 C455 1.474 . S
C454 C456 1.285 . S
C454 H474 0.929 . S
C455 C452 1.461 . S
C455 C454 1.474 . S
C456 C451 1.342 . S
C456 C454 1.285 . S
C456 H475 0.930 . S
C457 C460 1.424 . S
C457 C462 1.245 . S
C457 C463 1.428 . S
C458 C461 1.260 . S
C458 C462 1.477 . S
C458 H476 0.932 . S
C459 C460 1.384 . S
C459 C461 1.479 . S
C459 H477 0.929 . S
C460 C457 1.424 . S
C460 C459 1.384 . S
C460 H478 0.928 . S
C461 C458 1.260 . S
C461 C459 1.479 . S
C462 C457 1.245 . S
C462 C458 1.477 . S
C462 H479 0.932 . S
C463 U446 2.882 . S
C463 C457 1.428 . S
C463 O466 1.301 . S
C463 O467 1.282 . S
O464 U446 2.441 . S
O464 C450 1.249 . S
O465 U446 2.420 . S
O465 C450 1.202 . S
O466 U446 2.455 . S
O466 C463 1.301 . S
O467 U446 2.449 . S
O467 C463 1.282 . S
H468 C441 0.931 . S
H469 C443 0.929 . S
H470 C444 0.930 . S
H471 C445 0.931 . S
H472 C452 0.932 . S
H473 C453 0.930 . S
H474 C454 0.929 . S
H475 C456 0.930 . S
H476 C458 0.932 . S
H477 C459 0.929 . S
H478 C460 0.928 . S
H479 C462 0.932 . S
C480 C481 1.264 . S
C480 C485 1.479 . S
C480 C490 1.465 . S
C481 C480 1.264 . S
C481 C483 1.339 . S
C481 H508 0.931 . S
C482 C483 1.395 . S
C482 C484 1.320 . S
C483 C481 1.339 . S
C483 C482 1.395 . S
C483 H509 0.929 . S
C484 C482 1.320 . S
C484 C485 1.405 . S
C484 H510 0.930 . S
C485 C480 1.479 . S
C485 C484 1.405 . S
C485 H511 0.931 . S
U486 O487 2.454 . S
U486 O488 2.458 . S
U486 C489 2.984 . S
U486 C490 2.847 . S
U486 C503 2.882 . S
U486 O504 2.441 . S
U486 O505 2.420 . S
U486 O506 2.455 . S
U486 O507 2.449 . S
O487 U486 2.454 . S
O487 C489 1.353 . S
O488 U486 2.458 . S
O488 C489 1.286 . S
C489 U486 2.984 . S
C489 O487 1.353 . S
C489 O488 1.286 . S
C489 C491 1.363 . S
C490 C480 1.465 . S
C490 U486 2.847 . S
C490 O504 1.249 . S
C490 O505 1.202 . S
C491 C489 1.363 . S
C491 C493 1.408 . S
C491 C496 1.342 . S
C492 C493 1.310 . S
C492 C495 1.461 . S
C492 H512 0.932 . S
C493 C491 1.408 . S
C493 C492 1.310 . S
C493 H513 0.930 . S
C494 C495 1.474 . S
C494 C496 1.285 . S
C494 H514 0.929 . S
C495 C492 1.461 . S
C495 C494 1.474 . S
C496 C491 1.342 . S
C496 C494 1.285 . S
C496 H515 0.930 . S
C497 C500 1.424 . S
C497 C502 1.245 . S
C497 C503 1.428 . S
C498 C501 1.260 . S
C498 C502 1.477 . S
C498 H516 0.932 . S
C499 C500 1.384 . S
C499 C501 1.479 . S
C499 H517 0.929 . S
C500 C497 1.424 . S
C500 C499 1.384 . S
C500 H518 0.928 . S
C501 C498 1.260 . S
C501 C499 1.479 . S
C502 C497 1.245 . S
C502 C498 1.477 . S
C502 H519 0.932 . S
C503 U486 2.882 . S
C503 C497 1.428 . S
C503 O506 1.301 . S
C503 O507 1.282 . S
O504 U486 2.441 . S
O504 C490 1.249 . S
O505 U486 2.420 . S
O505 C490 1.202 . S
O506 U486 2.455 . S
O506 C503 1.301 . S
O507 U486 2.449 . S
O507 C503 1.282 . S
H508 C481 0.931 . S
H509 C483 0.929 . S
H510 C484 0.930 . S
H511 C485 0.931 . S
H512 C492 0.932 . S
H513 C493 0.930 . S
H514 C494 0.929 . S
H515 C496 0.930 . S
H516 C498 0.932 . S
H517 C499 0.929 . S
H518 C500 0.928 . S
H519 C502 0.932 . S
C520 C521 1.264 . S
C520 C525 1.479 . S
C520 C530 1.465 . S
C521 C520 1.264 . S
C521 C523 1.339 . S
C521 H548 0.931 . S
C522 C523 1.395 . S
C522 C524 1.320 . S
C523 C521 1.339 . S
C523 C522 1.395 . S
C523 H549 0.929 . S
C524 C522 1.320 . S
C524 C525 1.405 . S
C524 H550 0.930 . S
C525 C520 1.479 . S
C525 C524 1.405 . S
C525 H551 0.931 . S
U526 O527 2.454 . S
U526 O528 2.458 . S
U526 C529 2.984 . S
U526 C530 2.847 . S
U526 C543 2.882 . S
U526 O544 2.441 . S
U526 O545 2.420 . S
U526 O546 2.455 . S
U526 O547 2.449 . S
O527 U526 2.454 . S
O527 C529 1.353 . S
O528 U526 2.458 . S
O528 C529 1.286 . S
C529 U526 2.984 . S
C529 O527 1.353 . S
C529 O528 1.286 . S
C529 C531 1.363 . S
C530 C520 1.465 . S
C530 U526 2.847 . S
C530 O544 1.249 . S
C530 O545 1.202 . S
C531 C529 1.363 . S
C531 C533 1.408 . S
C531 C536 1.342 . S
C532 C533 1.310 . S
C532 C535 1.461 . S
C532 H552 0.932 . S
C533 C531 1.408 . S
C533 C532 1.310 . S
C533 H553 0.930 . S
C534 C535 1.474 . S
C534 C536 1.285 . S
C534 H554 0.929 . S
C535 C532 1.461 . S
C535 C534 1.474 . S
C536 C531 1.342 . S
C536 C534 1.285 . S
C536 H555 0.930 . S
C537 C540 1.424 . S
C537 C542 1.245 . S
C537 C543 1.428 . S
C538 C541 1.260 . S
C538 C542 1.477 . S
C538 H556 0.932 . S
C539 C540 1.384 . S
C539 C541 1.479 . S
C539 H557 0.929 . S
C540 C537 1.424 . S
C540 C539 1.384 . S
C540 H558 0.928 . S
C541 C538 1.260 . S
C541 C539 1.479 . S
C542 C537 1.245 . S
C542 C538 1.477 . S
C542 H559 0.932 . S
C543 U526 2.882 . S
C543 C537 1.428 . S
C543 O546 1.301 . S
C543 O547 1.282 . S
O544 U526 2.441 . S
O544 C530 1.249 . S
O545 U526 2.420 . S
O545 C530 1.202 . S
O546 U526 2.455 . S
O546 C543 1.301 . S
O547 U526 2.449 . S
O547 C543 1.282 . S
H548 C521 0.931 . S
H549 C523 0.929 . S
H550 C524 0.930 . S
H551 C525 0.931 . S
H552 C532 0.932 . S
H553 C533 0.930 . S
H554 C534 0.929 . S
H555 C536 0.930 . S
H556 C538 0.932 . S
H557 C539 0.929 . S
H558 C540 0.928 . S
H559 C542 0.932 . S
C560 C561 1.264 . S
C560 C565 1.479 . S
C560 C570 1.465 . S
C561 C560 1.264 . S
C561 C563 1.339 . S
C561 H588 0.931 . S
C562 C563 1.395 . S
C562 C564 1.320 . S
C563 C561 1.339 . S
C563 C562 1.395 . S
C563 H589 0.929 . S
C564 C562 1.320 . S
C564 C565 1.405 . S
C564 H590 0.930 . S
C565 C560 1.479 . S
C565 C564 1.405 . S
C565 H591 0.931 . S
U566 O567 2.454 . S
U566 O568 2.458 . S
U566 C569 2.984 . S
U566 C570 2.847 . S
U566 C583 2.882 . S
U566 O584 2.441 . S
U566 O585 2.420 . S
U566 O586 2.455 . S
U566 O587 2.449 . S
O567 U566 2.454 . S
O567 C569 1.353 . S
O568 U566 2.458 . S
O568 C569 1.286 . S
C569 U566 2.984 . S
C569 O567 1.353 . S
C569 O568 1.286 . S
C569 C571 1.363 . S
C570 C560 1.465 . S
C570 U566 2.847 . S
C570 O584 1.249 . S
C570 O585 1.202 . S
C571 C569 1.363 . S
C571 C573 1.408 . S
C571 C576 1.342 . S
C572 C573 1.310 . S
C572 C575 1.461 . S
C572 H592 0.932 . S
C573 C571 1.408 . S
C573 C572 1.310 . S
C573 H593 0.930 . S
C574 C575 1.474 . S
C574 C576 1.285 . S
C574 H594 0.929 . S
C575 C572 1.461 . S
C575 C574 1.474 . S
C576 C571 1.342 . S
C576 C574 1.285 . S
C576 H595 0.930 . S
C577 C580 1.424 . S
C577 C582 1.245 . S
C577 C583 1.428 . S
C578 C581 1.260 . S
C578 C582 1.477 . S
C578 H596 0.932 . S
C579 C580 1.384 . S
C579 C581 1.479 . S
C579 H597 0.929 . S
C580 C577 1.424 . S
C580 C579 1.384 . S
C580 H598 0.928 . S
C581 C578 1.260 . S
C581 C579 1.479 . S
C582 C577 1.245 . S
C582 C578 1.477 . S
C582 H599 0.932 . S
C583 U566 2.882 . S
C583 C577 1.428 . S
C583 O586 1.301 . S
C583 O587 1.282 . S
O584 U566 2.441 . S
O584 C570 1.249 . S
O585 U566 2.420 . S
O585 C570 1.202 . S
O586 U566 2.455 . S
O586 C583 1.301 . S
O587 U566 2.449 . S
O587 C583 1.282 . S
H588 C561 0.931 . S
H589 C563 0.929 . S
H590 C564 0.930 . S
H591 C565 0.931 . S
H592 C572 0.932 . S
H593 C573 0.930 . S
H594 C574 0.929 . S
H595 C576 0.930 . S
H596 C578 0.932 . S
H597 C579 0.929 . S
H598 C580 0.928 . S
H599 C582 0.932 . S
C600 C601 1.264 . S
C600 C605 1.479 . S
C600 C610 1.465 . S
C601 C600 1.264 . S
C601 C603 1.339 . S
C601 H628 0.931 . S
C602 C603 1.395 . S
C602 C604 1.320 . S
C603 C601 1.339 . S
C603 C602 1.395 . S
C603 H629 0.929 . S
C604 C602 1.320 . S
C604 C605 1.405 . S
C604 H630 0.930 . S
C605 C600 1.479 . S
C605 C604 1.405 . S
C605 H631 0.931 . S
U606 O607 2.454 . S
U606 O608 2.458 . S
U606 C609 2.984 . S
U606 C610 2.847 . S
U606 C623 2.882 . S
U606 O624 2.441 . S
U606 O625 2.420 . S
U606 O626 2.455 . S
U606 O627 2.449 . S
O607 U606 2.454 . S
O607 C609 1.353 . S
O608 U606 2.458 . S
O608 C609 1.286 . S
C609 U606 2.984 . S
C609 O607 1.353 . S
C609 O608 1.286 . S
C609 C611 1.363 . S
C610 C600 1.465 . S
C610 U606 2.847 . S
C610 O624 1.249 . S
C610 O625 1.202 . S
C611 C609 1.363 . S
C611 C613 1.408 . S
C611 C616 1.342 . S
C612 C613 1.310 . S
C612 C615 1.461 . S
C612 H632 0.932 . S
C613 C611 1.408 . S
C613 C612 1.310 . S
C613 H633 0.930 . S
C614 C615 1.474 . S
C614 C616 1.285 . S
C614 H634 0.929 . S
C615 C612 1.461 . S
C615 C614 1.474 . S
C616 C611 1.342 . S
C616 C614 1.285 . S
C616 H635 0.930 . S
C617 C620 1.424 . S
C617 C622 1.245 . S
C617 C623 1.428 . S
C618 C621 1.260 . S
C618 C622 1.477 . S
C618 H636 0.932 . S
C619 C620 1.384 . S
C619 C621 1.479 . S
C619 H637 0.929 . S
C620 C617 1.424 . S
C620 C619 1.384 . S
C620 H638 0.928 . S
C621 C618 1.260 . S
C621 C619 1.479 . S
C622 C617 1.245 . S
C622 C618 1.477 . S
C622 H639 0.932 . S
C623 U606 2.882 . S
C623 C617 1.428 . S
C623 O626 1.301 . S
C623 O627 1.282 . S
O624 U606 2.441 . S
O624 C610 1.249 . S
O625 U606 2.420 . S
O625 C610 1.202 . S
O626 U606 2.455 . S
O626 C623 1.301 . S
O627 U606 2.449 . S
O627 C623 1.282 . S
H628 C601 0.931 . S
H629 C603 0.929 . S
H630 C604 0.930 . S
H631 C605 0.931 . S
H632 C612 0.932 . S
H633 C613 0.930 . S
H634 C614 0.929 . S
H635 C616 0.930 . S
H636 C618 0.932 . S
H637 C619 0.929 . S
H638 C620 0.928 . S
H639 C622 0.932 . S
C640 C641 1.264 . S
C640 C645 1.479 . S
C640 C650 1.465 . S
C641 C640 1.264 . S
C641 C643 1.339 . S
C641 H668 0.931 . S
C642 C643 1.395 . S
C642 C644 1.320 . S
C643 C641 1.339 . S
C643 C642 1.395 . S
C643 H669 0.929 . S
C644 C642 1.320 . S
C644 C645 1.405 . S
C644 H670 0.930 . S
C645 C640 1.479 . S
C645 C644 1.405 . S
C645 H671 0.931 . S
U646 O647 2.454 . S
U646 O648 2.458 . S
U646 C649 2.984 . S
U646 C650 2.847 . S
U646 C663 2.882 . S
U646 O664 2.441 . S
U646 O665 2.420 . S
U646 O666 2.455 . S
U646 O667 2.449 . S
O647 U646 2.454 . S
O647 C649 1.353 . S
O648 U646 2.458 . S
O648 C649 1.286 . S
C649 U646 2.984 . S
C649 O647 1.353 . S
C649 O648 1.286 . S
C649 C651 1.363 . S
C650 C640 1.465 . S
C650 U646 2.847 . S
C650 O664 1.249 . S
C650 O665 1.202 . S
C651 C649 1.363 . S
C651 C653 1.408 . S
C651 C656 1.342 . S
C652 C653 1.310 . S
C652 C655 1.461 . S
C652 H672 0.932 . S
C653 C651 1.408 . S
C653 C652 1.310 . S
C653 H673 0.930 . S
C654 C655 1.474 . S
C654 C656 1.285 . S
C654 H674 0.929 . S
C655 C652 1.461 . S
C655 C654 1.474 . S
C656 C651 1.342 . S
C656 C654 1.285 . S
C656 H675 0.930 . S
C657 C660 1.424 . S
C657 C662 1.245 . S
C657 C663 1.428 . S
C658 C661 1.260 . S
C658 C662 1.477 . S
C658 H676 0.932 . S
C659 C660 1.384 . S
C659 C661 1.479 . S
C659 H677 0.929 . S
C660 C657 1.424 . S
C660 C659 1.384 . S
C660 H678 0.928 . S
C661 C658 1.260 . S
C661 C659 1.479 . S
C662 C657 1.245 . S
C662 C658 1.477 . S
C662 H679 0.932 . S
C663 U646 2.882 . S
C663 C657 1.428 . S
C663 O666 1.301 . S
C663 O667 1.282 . S
O664 U646 2.441 . S
O664 C650 1.249 . S
O665 U646 2.420 . S
O665 C650 1.202 . S
O666 U646 2.455 . S
O666 C663 1.301 . S
O667 U646 2.449 . S
O667 C663 1.282 . S
H668 C641 0.931 . S
H669 C643 0.929 . S
H670 C644 0.930 . S
H671 C645 0.931 . S
H672 C652 0.932 . S
H673 C653 0.930 . S
H674 C654 0.929 . S
H675 C656 0.930 . S
H676 C658 0.932 . S
H677 C659 0.929 . S
H678 C660 0.928 . S
H679 C662 0.932 . S
C680 C681 1.264 . S
C680 C685 1.479 . S
C680 C690 1.465 . S
C681 C680 1.264 . S
C681 C683 1.339 . S
C681 H708 0.931 . S
C682 C683 1.395 . S
C682 C684 1.320 . S
C683 C681 1.339 . S
C683 C682 1.395 . S
C683 H709 0.929 . S
C684 C682 1.320 . S
C684 C685 1.405 . S
C684 H710 0.930 . S
C685 C680 1.479 . S
C685 C684 1.405 . S
C685 H711 0.931 . S
U686 O687 2.454 . S
U686 O688 2.458 . S
U686 C689 2.984 . S
U686 C690 2.847 . S
U686 C703 2.882 . S
U686 O704 2.441 . S
U686 O705 2.420 . S
U686 O706 2.455 . S
U686 O707 2.449 . S
O687 U686 2.454 . S
O687 C689 1.353 . S
O688 U686 2.458 . S
O688 C689 1.286 . S
C689 U686 2.984 . S
C689 O687 1.353 . S
C689 O688 1.286 . S
C689 C691 1.363 . S
C690 C680 1.465 . S
C690 U686 2.847 . S
C690 O704 1.249 . S
C690 O705 1.202 . S
C691 C689 1.363 . S
C691 C693 1.408 . S
C691 C696 1.342 . S
C692 C693 1.310 . S
C692 C695 1.461 . S
C692 H712 0.932 . S
C693 C691 1.408 . S
C693 C692 1.310 . S
C693 H713 0.930 . S
C694 C695 1.474 . S
C694 C696 1.285 . S
C694 H714 0.929 . S
C695 C692 1.461 . S
C695 C694 1.474 . S
C696 C691 1.342 . S
C696 C694 1.285 . S
C696 H715 0.930 . S
C697 C700 1.424 . S
C697 C702 1.245 . S
C697 C703 1.428 . S
C698 C701 1.260 . S
C698 C702 1.477 . S
C698 H716 0.932 . S
C699 C700 1.384 . S
C699 C701 1.479 . S
C699 H717 0.929 . S
C700 C697 1.424 . S
C700 C699 1.384 . S
C700 H718 0.928 . S
C701 C698 1.260 . S
C701 C699 1.479 . S
C702 C697 1.245 . S
C702 C698 1.477 . S
C702 H719 0.932 . S
C703 U686 2.882 . S
C703 C697 1.428 . S
C703 O706 1.301 . S
C703 O707 1.282 . S
O704 U686 2.441 . S
O704 C690 1.249 . S
O705 U686 2.420 . S
O705 C690 1.202 . S
O706 U686 2.455 . S
O706 C703 1.301 . S
O707 U686 2.449 . S
O707 C703 1.282 . S
H708 C681 0.931 . S
H709 C683 0.929 . S
H710 C684 0.930 . S
H711 C685 0.931 . S
H712 C692 0.932 . S
H713 C693 0.930 . S
H714 C694 0.929 . S
H715 C696 0.930 . S
H716 C698 0.932 . S
H717 C699 0.929 . S
H718 C700 0.928 . S
H719 C702 0.932 . S
C720 C721 1.264 . S
C720 C725 1.479 . S
C720 C730 1.465 . S
C721 C720 1.264 . S
C721 C723 1.339 . S
C721 H748 0.931 . S
C722 C723 1.395 . S
C722 C724 1.320 . S
C723 C721 1.339 . S
C723 C722 1.395 . S
C723 H749 0.929 . S
C724 C722 1.320 . S
C724 C725 1.405 . S
C724 H750 0.930 . S
C725 C720 1.479 . S
C725 C724 1.405 . S
C725 H751 0.931 . S
U726 O727 2.454 . S
U726 O728 2.458 . S
U726 C729 2.984 . S
U726 C730 2.847 . S
U726 C743 2.882 . S
U726 O744 2.441 . S
U726 O745 2.420 . S
U726 O746 2.455 . S
U726 O747 2.449 . S
O727 U726 2.454 . S
O727 C729 1.353 . S
O728 U726 2.458 . S
O728 C729 1.286 . S
C729 U726 2.984 . S
C729 O727 1.353 . S
C729 O728 1.286 . S
C729 C731 1.363 . S
C730 C720 1.465 . S
C730 U726 2.847 . S
C730 O744 1.249 . S
C730 O745 1.202 . S
C731 C729 1.363 . S
C731 C733 1.408 . S
C731 C736 1.342 . S
C732 C733 1.310 . S
C732 C735 1.461 . S
C732 H752 0.932 . S
C733 C731 1.408 . S
C733 C732 1.310 . S
C733 H753 0.930 . S
C734 C735 1.474 . S
C734 C736 1.285 . S
C734 H754 0.929 . S
C735 C732 1.461 . S
C735 C734 1.474 . S
C736 C731 1.342 . S
C736 C734 1.285 . S
C736 H755 0.930 . S
C737 C740 1.424 . S
C737 C742 1.245 . S
C737 C743 1.428 . S
C738 C741 1.260 . S
C738 C742 1.477 . S
C738 H756 0.932 . S
C739 C740 1.384 . S
C739 C741 1.479 . S
C739 H757 0.929 . S
C740 C737 1.424 . S
C740 C739 1.384 . S
C740 H758 0.928 . S
C741 C738 1.260 . S
C741 C739 1.479 . S
C742 C737 1.245 . S
C742 C738 1.477 . S
C742 H759 0.932 . S
C743 U726 2.882 . S
C743 C737 1.428 . S
C743 O746 1.301 . S
C743 O747 1.282 . S
O744 U726 2.441 . S
O744 C730 1.249 . S
O745 U726 2.420 . S
O745 C730 1.202 . S
O746 U726 2.455 . S
O746 C743 1.301 . S
O747 U726 2.449 . S
O747 C743 1.282 . S
H748 C721 0.931 . S
H749 C723 0.929 . S
H750 C724 0.930 . S
H751 C725 0.931 . S
H752 C732 0.932 . S
H753 C733 0.930 . S
H754 C734 0.929 . S
H755 C736 0.930 . S
H756 C738 0.932 . S
H757 C739 0.929 . S
H758 C740 0.928 . S
H759 C742 0.932 . S
C760 C761 1.264 . S
C760 C765 1.479 . S
C760 C770 1.465 . S
C761 C760 1.264 . S
C761 C763 1.339 . S
C761 H788 0.931 . S
C762 C763 1.395 . S
C762 C764 1.320 . S
C763 C761 1.339 . S
C763 C762 1.395 . S
C763 H789 0.929 . S
C764 C762 1.320 . S
C764 C765 1.405 . S
C764 H790 0.930 . S
C765 C760 1.479 . S
C765 C764 1.405 . S
C765 H791 0.931 . S
U766 O767 2.454 . S
U766 O768 2.458 . S
U766 C769 2.984 . S
U766 C770 2.847 . S
U766 C783 2.882 . S
U766 O784 2.441 . S
U766 O785 2.420 . S
U766 O786 2.455 . S
U766 O787 2.449 . S
O767 U766 2.454 . S
O767 C769 1.353 . S
O768 U766 2.458 . S
O768 C769 1.286 . S
C769 U766 2.984 . S
C769 O767 1.353 . S
C769 O768 1.286 . S
C769 C771 1.363 . S
C770 C760 1.465 . S
C770 U766 2.847 . S
C770 O784 1.249 . S
C770 O785 1.202 . S
C771 C769 1.363 . S
C771 C773 1.408 . S
C771 C776 1.342 . S
C772 C773 1.310 . S
C772 C775 1.461 . S
C772 H792 0.932 . S
C773 C771 1.408 . S
C773 C772 1.310 . S
C773 H793 0.930 . S
C774 C775 1.474 . S
C774 C776 1.285 . S
C774 H794 0.929 . S
C775 C772 1.461 . S
C775 C774 1.474 . S
C776 C771 1.342 . S
C776 C774 1.285 . S
C776 H795 0.930 . S
C777 C780 1.424 . S
C777 C782 1.245 . S
C777 C783 1.428 . S
C778 C781 1.260 . S
C778 C782 1.477 . S
C778 H796 0.932 . S
C779 C780 1.384 . S
C779 C781 1.479 . S
C779 H797 0.929 . S
C780 C777 1.424 . S
C780 C779 1.384 . S
C780 H798 0.928 . S
C781 C778 1.260 . S
C781 C779 1.479 . S
C782 C777 1.245 . S
C782 C778 1.477 . S
C782 H799 0.932 . S
C783 U766 2.882 . S
C783 C777 1.428 . S
C783 O786 1.301 . S
C783 O787 1.282 . S
O784 U766 2.441 . S
O784 C770 1.249 . S
O785 U766 2.420 . S
O785 C770 1.202 . S
O786 U766 2.455 . S
O786 C783 1.301 . S
O787 U766 2.449 . S
O787 C783 1.282 . S
H788 C761 0.931 . S
H789 C763 0.929 . S
H790 C764 0.930 . S
H791 C765 0.931 . S
H792 C772 0.932 . S
H793 C773 0.930 . S
H794 C774 0.929 . S
H795 C776 0.930 . S
H796 C778 0.932 . S
H797 C779 0.929 . S
H798 C780 0.928 . S
H799 C782 0.932 . S
C800 C801 1.264 . S
C800 C805 1.479 . S
C800 C810 1.465 . S
C801 C800 1.264 . S
C801 C803 1.339 . S
C801 H828 0.931 . S
C802 C803 1.395 . S
C802 C804 1.320 . S
C803 C801 1.339 . S
C803 C802 1.395 . S
C803 H829 0.929 . S
C804 C802 1.320 . S
C804 C805 1.405 . S
C804 H830 0.930 . S
C805 C800 1.479 . S
C805 C804 1.405 . S
C805 H831 0.931 . S
U806 O807 2.454 . S
U806 O808 2.458 . S
U806 C809 2.984 . S
U806 C810 2.847 . S
U806 C823 2.882 . S
U806 O824 2.441 . S
U806 O825 2.420 . S
U806 O826 2.455 . S
U806 O827 2.449 . S
O807 U806 2.454 . S
O807 C809 1.353 . S
O808 U806 2.458 . S
O808 C809 1.286 . S
C809 U806 2.984 . S
C809 O807 1.353 . S
C809 O808 1.286 . S
C809 C811 1.363 . S
C810 C800 1.465 . S
C810 U806 2.847 . S
C810 O824 1.249 . S
C810 O825 1.202 . S
C811 C809 1.363 . S
C811 C813 1.408 . S
C811 C816 1.342 . S
C812 C813 1.310 . S
C812 C815 1.461 . S
C812 H832 0.932 . S
C813 C811 1.408 . S
C813 C812 1.310 . S
C813 H833 0.930 . S
C814 C815 1.474 . S
C814 C816 1.285 . S
C814 H834 0.929 . S
C815 C812 1.461 . S
C815 C814 1.474 . S
C816 C811 1.342 . S
C816 C814 1.285 . S
C816 H835 0.930 . S
C817 C820 1.424 . S
C817 C822 1.245 . S
C817 C823 1.428 . S
C818 C821 1.260 . S
C818 C822 1.477 . S
C818 H836 0.932 . S
C819 C820 1.384 . S
C819 C821 1.479 . S
C819 H837 0.929 . S
C820 C817 1.424 . S
C820 C819 1.384 . S
C820 H838 0.928 . S
C821 C818 1.260 . S
C821 C819 1.479 . S
C822 C817 1.245 . S
C822 C818 1.477 . S
C822 H839 0.932 . S
C823 U806 2.882 . S
C823 C817 1.428 . S
C823 O826 1.301 . S
C823 O827 1.282 . S
O824 U806 2.441 . S
O824 C810 1.249 . S
O825 U806 2.420 . S
O825 C810 1.202 . S
O826 U806 2.455 . S
O826 C823 1.301 . S
O827 U806 2.449 . S
O827 C823 1.282 . S
H828 C801 0.931 . S
H829 C803 0.929 . S
H830 C804 0.930 . S
H831 C805 0.931 . S
H832 C812 0.932 . S
H833 C813 0.930 . S
H834 C814 0.929 . S
H835 C816 0.930 . S
H836 C818 0.932 . S
H837 C819 0.929 . S
H838 C820 0.928 . S
H839 C822 0.932 . S
C840 C841 1.264 . S
C840 C845 1.479 . S
C840 C850 1.465 . S
C841 C840 1.264 . S
C841 C843 1.339 . S
C841 H868 0.931 . S
C842 C843 1.395 . S
C842 C844 1.320 . S
C843 C841 1.339 . S
C843 C842 1.395 . S
C843 H869 0.929 . S
C844 C842 1.320 . S
C844 C845 1.405 . S
C844 H870 0.930 . S
C845 C840 1.479 . S
C845 C844 1.405 . S
C845 H871 0.931 . S
U846 O847 2.454 . S
U846 O848 2.458 . S
U846 C849 2.984 . S
U846 C850 2.847 . S
U846 C863 2.882 . S
U846 O864 2.441 . S
U846 O865 2.420 . S
U846 O866 2.455 . S
U846 O867 2.449 . S
O847 U846 2.454 . S
O847 C849 1.353 . S
O848 U846 2.458 . S
O848 C849 1.286 . S
C849 U846 2.984 . S
C849 O847 1.353 . S
C849 O848 1.286 . S
C849 C851 1.363 . S
C850 C840 1.465 . S
C850 U846 2.847 . S
C850 O864 1.249 . S
C850 O865 1.202 . S
C851 C849 1.363 . S
C851 C853 1.408 . S
C851 C856 1.342 . S
C852 C853 1.310 . S
C852 C855 1.461 . S
C852 H872 0.932 . S
C853 C851 1.408 . S
C853 C852 1.310 . S
C853 H873 0.930 . S
C854 C855 1.474 . S
C854 C856 1.285 . S
C854 H874 0.929 . S
C855 C852 1.461 . S
C855 C854 1.474 . S
C856 C851 1.342 . S
C856 C854 1.285 . S
C856 H875 0.930 . S
C857 C860 1.424 . S
C857 C862 1.245 . S
C857 C863 1.428 . S
C858 C861 1.260 . S
C858 C862 1.477 . S
C858 H876 0.932 . S
C859 C860 1.384 . S
C859 C861 1.479 . S
C859 H877 0.929 . S
C860 C857 1.424 . S
C860 C859 1.384 . S
C860 H878 0.928 . S
C861 C858 1.260 . S
C861 C859 1.479 . S
C862 C857 1.245 . S
C862 C858 1.477 . S
C862 H879 0.932 . S
C863 U846 2.882 . S
C863 C857 1.428 . S
C863 O866 1.301 . S
C863 O867 1.282 . S
O864 U846 2.441 . S
O864 C850 1.249 . S
O865 U846 2.420 . S
O865 C850 1.202 . S
O866 U846 2.455 . S
O866 C863 1.301 . S
O867 U846 2.449 . S
O867 C863 1.282 . S
H868 C841 0.931 . S
H869 C843 0.929 . S
H870 C844 0.930 . S
H871 C845 0.931 . S
H872 C852 0.932 . S
H873 C853 0.930 . S
H874 C854 0.929 . S
H875 C856 0.930 . S
H876 C858 0.932 . S
H877 C859 0.929 . S
H878 C860 0.928 . S
H879 C862 0.932 . S
C880 C881 1.264 . S
C880 C885 1.479 . S
C880 C890 1.465 . S
C881 C880 1.264 . S
C881 C883 1.339 . S
C881 H908 0.931 . S
C882 C883 1.395 . S
C882 C884 1.320 . S
C883 C881 1.339 . S
C883 C882 1.395 . S
C883 H909 0.929 . S
C884 C882 1.320 . S
C884 C885 1.405 . S
C884 H910 0.930 . S
C885 C880 1.479 . S
C885 C884 1.405 . S
C885 H911 0.931 . S
U886 O887 2.454 . S
U886 O888 2.458 . S
U886 C889 2.984 . S
U886 C890 2.847 . S
U886 C903 2.882 . S
U886 O904 2.441 . S
U886 O905 2.420 . S
U886 O906 2.455 . S
U886 O907 2.449 . S
O887 U886 2.454 . S
O887 C889 1.353 . S
O888 U886 2.458 . S
O888 C889 1.286 . S
C889 U886 2.984 . S
C889 O887 1.353 . S
C889 O888 1.286 . S
C889 C891 1.363 . S
C890 C880 1.465 . S
C890 U886 2.847 . S
C890 O904 1.249 . S
C890 O905 1.202 . S
C891 C889 1.363 . S
C891 C893 1.408 . S
C891 C896 1.342 . S
C892 C893 1.310 . S
C892 C895 1.461 . S
C892 H912 0.932 . S
C893 C891 1.408 . S
C893 C892 1.310 . S
C893 H913 0.930 . S
C894 C895 1.474 . S
C894 C896 1.285 . S
C894 H914 0.929 . S
C895 C892 1.461 . S
C895 C894 1.474 . S
C896 C891 1.342 . S
C896 C894 1.285 . S
C896 H915 0.930 . S
C897 C900 1.424 . S
C897 C902 1.245 . S
C897 C903 1.428 . S
C898 C901 1.260 . S
C898 C902 1.477 . S
C898 H916 0.932 . S
C899 C900 1.384 . S
C899 C901 1.479 . S
C899 H917 0.929 . S
C900 C897 1.424 . S
C900 C899 1.384 . S
C900 H918 0.928 . S
C901 C898 1.260 . S
C901 C899 1.479 . S
C902 C897 1.245 . S
C902 C898 1.477 . S
C902 H919 0.932 . S
C903 U886 2.882 . S
C903 C897 1.428 . S
C903 O906 1.301 . S
C903 O907 1.282 . S
O904 U886 2.441 . S
O904 C890 1.249 . S
O905 U886 2.420 . S
O905 C890 1.202 . S
O906 U886 2.455 . S
O906 C903 1.301 . S
O907 U886 2.449 . S
O907 C903 1.282 . S
H908 C881 0.931 . S
H909 C883 0.929 . S
H910 C884 0.930 . S
H911 C885 0.931 . S
H912 C892 0.932 . S
H913 C893 0.930 . S
H914 C894 0.929 . S
H915 C896 0.930 . S
H916 C898 0.932 . S
H917 C899 0.929 . S
H918 C900 0.928 . S
H919 C902 0.932 . S
C920 C921 1.264 . S
C920 C925 1.479 . S
C920 C930 1.465 . S
C921 C920 1.264 . S
C921 C923 1.339 . S
C921 H948 0.931 . S
C922 C923 1.395 . S
C922 C924 1.320 . S
C923 C921 1.339 . S
C923 C922 1.395 . S
C923 H949 0.929 . S
C924 C922 1.320 . S
C924 C925 1.405 . S
C924 H950 0.930 . S
C925 C920 1.479 . S
C925 C924 1.405 . S
C925 H951 0.931 . S
U926 O927 2.454 . S
U926 O928 2.458 . S
U926 C929 2.984 . S
U926 C930 2.847 . S
U926 C943 2.882 . S
U926 O944 2.441 . S
U926 O945 2.420 . S
U926 O946 2.455 . S
U926 O947 2.449 . S
O927 U926 2.454 . S
O927 C929 1.353 . S
O928 U926 2.458 . S
O928 C929 1.286 . S
C929 U926 2.984 . S
C929 O927 1.353 . S
C929 O928 1.286 . S
C929 C931 1.363 . S
C930 C920 1.465 . S
C930 U926 2.847 . S
C930 O944 1.249 . S
C930 O945 1.202 . S
C931 C929 1.363 . S
C931 C933 1.408 . S
C931 C936 1.342 . S
C932 C933 1.310 . S
C932 C935 1.461 . S
C932 H952 0.932 . S
C933 C931 1.408 . S
C933 C932 1.310 . S
C933 H953 0.930 . S
C934 C935 1.474 . S
C934 C936 1.285 . S
C934 H954 0.929 . S
C935 C932 1.461 . S
C935 C934 1.474 . S
C936 C931 1.342 . S
C936 C934 1.285 . S
C936 H955 0.930 . S
C937 C940 1.424 . S
C937 C942 1.245 . S
C937 C943 1.428 . S
C938 C941 1.260 . S
C938 C942 1.477 . S
C938 H956 0.932 . S
C939 C940 1.384 . S
C939 C941 1.479 . S
C939 H957 0.929 . S
C940 C937 1.424 . S
C940 C939 1.384 . S
C940 H958 0.928 . S
C941 C938 1.260 . S
C941 C939 1.479 . S
C942 C937 1.245 . S
C942 C938 1.477 . S
C942 H959 0.932 . S
C943 U926 2.882 . S
C943 C937 1.428 . S
C943 O946 1.301 . S
C943 O947 1.282 . S
O944 U926 2.441 . S
O944 C930 1.249 . S
O945 U926 2.420 . S
O945 C930 1.202 . S
O946 U926 2.455 . S
O946 C943 1.301 . S
O947 U926 2.449 . S
O947 C943 1.282 . S
H948 C921 0.931 . S
H949 C923 0.929 . S
H950 C924 0.930 . S
H951 C925 0.931 . S
H952 C932 0.932 . S
H953 C933 0.930 . S
H954 C934 0.929 . S
H955 C936 0.930 . S
H956 C938 0.932 . S
H957 C939 0.929 . S
H958 C940 0.928 . S
H959 C942 0.932 . S
C960 C961 1.264 . S
C960 C965 1.479 . S
C960 C970 1.465 . S
C961 C960 1.264 . S
C961 C963 1.339 . S
C961 H988 0.931 . S
C962 C963 1.395 . S
C962 C964 1.320 . S
C963 C961 1.339 . S
C963 C962 1.395 . S
C963 H989 0.929 . S
C964 C962 1.320 . S
C964 C965 1.405 . S
C964 H990 0.930 . S
C965 C960 1.479 . S
C965 C964 1.405 . S
C965 H991 0.931 . S
U966 O967 2.454 . S
U966 O968 2.458 . S
U966 C969 2.984 . S
U966 C970 2.847 . S
U966 C983 2.882 . S
U966 O984 2.441 . S
U966 O985 2.420 . S
U966 O986 2.455 . S
U966 O987 2.449 . S
O967 U966 2.454 . S
O967 C969 1.353 . S
O968 U966 2.458 . S
O968 C969 1.286 . S
C969 U966 2.984 . S
C969 O967 1.353 . S
C969 O968 1.286 . S
C969 C971 1.363 . S
C970 C960 1.465 . S
C970 U966 2.847 . S
C970 O984 1.249 . S
C970 O985 1.202 . S
C971 C969 1.363 . S
C971 C973 1.408 . S
C971 C976 1.342 . S
C972 C973 1.310 . S
C972 C975 1.461 . S
C972 H992 0.932 . S
C973 C971 1.408 . S
C973 C972 1.310 . S
C973 H993 0.930 . S
C974 C975 1.474 . S
C974 C976 1.285 . S
C974 H994 0.929 . S
C975 C972 1.461 . S
C975 C974 1.474 . S
C976 C971 1.342 . S
C976 C974 1.285 . S
C976 H995 0.930 . S
C977 C980 1.424 . S
C977 C982 1.245 . S
C977 C983 1.428 . S
C978 C981 1.260 . S
C978 C982 1.477 . S
C978 H996 0.932 . S
C979 C980 1.384 . S
C979 C981 1.479 . S
C979 H997 0.929 . S
C980 C977 1.424 . S
C980 C979 1.384 . S
C980 H998 0.928 . S
C981 C978 1.260 . S
C981 C979 1.479 . S
C982 C977 1.245 . S
C982 C978 1.477 . S
C982 H999 0.932 . S
C983 U966 2.882 . S
C983 C977 1.428 . S
C983 O986 1.301 . S
C983 O987 1.282 . S
O984 U966 2.441 . S
O984 C970 1.249 . S
O985 U966 2.420 . S
O985 C970 1.202 . S
O986 U966 2.455 . S
O986 C983 1.301 . S
O987 U966 2.449 . S
O987 C983 1.282 . S
H988 C961 0.931 . S
H989 C963 0.929 . S
H990 C964 0.930 . S
H991 C965 0.931 . S
H992 C972 0.932 . S
H993 C973 0.930 . S
H994 C974 0.929 . S
H995 C976 0.930 . S
H996 C978 0.932 . S
H997 C979 0.929 . S
H998 C980 0.928 . S
H999 C982 0.932 . S
C1000 C1001 1.264 . S
C1000 C1005 1.479 . S
C1000 C1010 1.465 . S
C1001 C1000 1.264 . S
C1001 C1003 1.339 . S
C1001 H1028 0.931 . S
C1002 C1003 1.395 . S
C1002 C1004 1.320 . S
C1003 C1001 1.339 . S
C1003 C1002 1.395 . S
C1003 H1029 0.929 . S
C1004 C1002 1.320 . S
C1004 C1005 1.405 . S
C1004 H1030 0.930 . S
C1005 C1000 1.479 . S
C1005 C1004 1.405 . S
C1005 H1031 0.931 . S
U1006 O1007 2.454 . S
U1006 O1008 2.458 . S
U1006 C1009 2.984 . S
U1006 C1010 2.847 . S
U1006 C1023 2.882 . S
U1006 O1024 2.441 . S
U1006 O1025 2.420 . S
U1006 O1026 2.455 . S
U1006 O1027 2.449 . S
O1007 U1006 2.454 . S
O1007 C1009 1.353 . S
O1008 U1006 2.458 . S
O1008 C1009 1.286 . S
C1009 U1006 2.984 . S
C1009 O1007 1.353 . S
C1009 O1008 1.286 . S
C1009 C1011 1.363 . S
C1010 C1000 1.465 . S
C1010 U1006 2.847 . S
C1010 O1024 1.249 . S
C1010 O1025 1.202 . S
C1011 C1009 1.363 . S
C1011 C1013 1.408 . S
C1011 C1016 1.342 . S
C1012 C1013 1.310 . S
C1012 C1015 1.461 . S
C1012 H1032 0.932 . S
C1013 C1011 1.408 . S
C1013 C1012 1.310 . S
C1013 H1033 0.930 . S
C1014 C1015 1.474 . S
C1014 C1016 1.285 . S
C1014 H1034 0.929 . S
C1015 C1012 1.461 . S
C1015 C1014 1.474 . S
C1016 C1011 1.342 . S
C1016 C1014 1.285 . S
C1016 H1035 0.930 . S
C1017 C1020 1.424 . S
C1017 C1022 1.245 . S
C1017 C1023 1.428 . S
C1018 C1021 1.260 . S
C1018 C1022 1.477 . S
C1018 H1036 0.932 . S
C1019 C1020 1.384 . S
C1019 C1021 1.479 . S
C1019 H1037 0.929 . S
C1020 C1017 1.424 . S
C1020 C1019 1.384 . S
C1020 H1038 0.928 . S
C1021 C1018 1.260 . S
C1021 C1019 1.479 . S
C1022 C1017 1.245 . S
C1022 C1018 1.477 . S
C1022 H1039 0.932 . S
C1023 U1006 2.882 . S
C1023 C1017 1.428 . S
C1023 O1026 1.301 . S
C1023 O1027 1.282 . S
O1024 U1006 2.441 . S
O1024 C1010 1.249 . S
O1025 U1006 2.420 . S
O1025 C1010 1.202 . S
O1026 U1006 2.455 . S
O1026 C1023 1.301 . S
O1027 U1006 2.449 . S
O1027 C1023 1.282 . S
H1028 C1001 0.931 . S
H1029 C1003 0.929 . S
H1030 C1004 0.930 . S
H1031 C1005 0.931 . S
H1032 C1012 0.932 . S
H1033 C1013 0.930 . S
H1034 C1014 0.929 . S
H1035 C1016 0.930 . S
H1036 C1018 0.932 . S
H1037 C1019 0.929 . S
H1038 C1020 0.928 . S
H1039 C1022 0.932 . S
C1040 C1041 1.264 . S
C1040 C1045 1.479 . S
C1040 C1050 1.465 . S
C1041 C1040 1.264 . S
C1041 C1043 1.339 . S
C1041 H1068 0.931 . S
C1042 C1043 1.395 . S
C1042 C1044 1.320 . S
C1043 C1041 1.339 . S
C1043 C1042 1.395 . S
C1043 H1069 0.929 . S
C1044 C1042 1.320 . S
C1044 C1045 1.405 . S
C1044 H1070 0.930 . S
C1045 C1040 1.479 . S
C1045 C1044 1.405 . S
C1045 H1071 0.931 . S
U1046 O1047 2.454 . S
U1046 O1048 2.458 . S
U1046 C1049 2.984 . S
U1046 C1050 2.847 . S
U1046 C1063 2.882 . S
U1046 O1064 2.441 . S
U1046 O1065 2.420 . S
U1046 O1066 2.455 . S
U1046 O1067 2.449 . S
O1047 U1046 2.454 . S
O1047 C1049 1.353 . S
O1048 U1046 2.458 . S
O1048 C1049 1.286 . S
C1049 U1046 2.984 . S
C1049 O1047 1.353 . S
C1049 O1048 1.286 . S
C1049 C1051 1.363 . S
C1050 C1040 1.465 . S
C1050 U1046 2.847 . S
C1050 O1064 1.249 . S
C1050 O1065 1.202 . S
C1051 C1049 1.363 . S
C1051 C1053 1.408 . S
C1051 C1056 1.342 . S
C1052 C1053 1.310 . S
C1052 C1055 1.461 . S
C1052 H1072 0.932 . S
C1053 C1051 1.408 . S
C1053 C1052 1.310 . S
C1053 H1073 0.930 . S
C1054 C1055 1.474 . S
C1054 C1056 1.285 . S
C1054 H1074 0.929 . S
C1055 C1052 1.461 . S
C1055 C1054 1.474 . S
C1056 C1051 1.342 . S
C1056 C1054 1.285 . S
C1056 H1075 0.930 . S
C1057 C1060 1.424 . S
C1057 C1062 1.245 . S
C1057 C1063 1.428 . S
C1058 C1061 1.260 . S
C1058 C1062 1.477 . S
C1058 H1076 0.932 . S
C1059 C1060 1.384 . S
C1059 C1061 1.479 . S
C1059 H1077 0.929 . S
C1060 C1057 1.424 . S
C1060 C1059 1.384 . S
C1060 H1078 0.928 . S
C1061 C1058 1.260 . S
C1061 C1059 1.479 . S
C1062 C1057 1.245 . S
C1062 C1058 1.477 . S
C1062 H1079 0.932 . S
C1063 U1046 2.882 . S
C1063 C1057 1.428 . S
C1063 O1066 1.301 . S
C1063 O1067 1.282 . S
O1064 U1046 2.441 . S
O1064 C1050 1.249 . S
O1065 U1046 2.420 . S
O1065 C1050 1.202 . S
O1066 U1046 2.455 . S
O1066 C1063 1.301 . S
O1067 U1046 2.449 . S
O1067 C1063 1.282 . S
H1068 C1041 0.931 . S
H1069 C1043 0.929 . S
H1070 C1044 0.930 . S
H1071 C1045 0.931 . S
H1072 C1052 0.932 . S
H1073 C1053 0.930 . S
H1074 C1054 0.929 . S
H1075 C1056 0.930 . S
H1076 C1058 0.932 . S
H1077 C1059 0.929 . S
H1078 C1060 0.928 . S
H1079 C1062 0.932 . S
C1080 C1081 1.264 . S
C1080 C1085 1.479 . S
C1080 C1090 1.465 . S
C1081 C1080 1.264 . S
C1081 C1083 1.339 . S
C1081 H1108 0.931 . S
C1082 C1083 1.395 . S
C1082 C1084 1.320 . S
C1083 C1081 1.339 . S
C1083 C1082 1.395 . S
C1083 H1109 0.929 . S
C1084 C1082 1.320 . S
C1084 C1085 1.405 . S
C1084 H1110 0.930 . S
C1085 C1080 1.479 . S
C1085 C1084 1.405 . S
C1085 H1111 0.931 . S
U1086 O1087 2.454 . S
U1086 O1088 2.458 . S
U1086 C1089 2.984 . S
U1086 C1090 2.847 . S
U1086 C1103 2.882 . S
U1086 O1104 2.441 . S
U1086 O1105 2.420 . S
U1086 O1106 2.455 . S
U1086 O1107 2.449 . S
O1087 U1086 2.454 . S
O1087 C1089 1.353 . S
O1088 U1086 2.458 . S
O1088 C1089 1.286 . S
C1089 U1086 2.984 . S
C1089 O1087 1.353 . S
C1089 O1088 1.286 . S
C1089 C1091 1.363 . S
C1090 C1080 1.465 . S
C1090 U1086 2.847 . S
C1090 O1104 1.249 . S
C1090 O1105 1.202 . S
C1091 C1089 1.363 . S
C1091 C1093 1.408 . S
C1091 C1096 1.342 . S
C1092 C1093 1.310 . S
C1092 C1095 1.461 . S
C1092 H1112 0.932 . S
C1093 C1091 1.408 . S
C1093 C1092 1.310 . S
C1093 H1113 0.930 . S
C1094 C1095 1.474 . S
C1094 C1096 1.285 . S
C1094 H1114 0.929 . S
C1095 C1092 1.461 . S
C1095 C1094 1.474 . S
C1096 C1091 1.342 . S
C1096 C1094 1.285 . S
C1096 H1115 0.930 . S
C1097 C1100 1.424 . S
C1097 C1102 1.245 . S
C1097 C1103 1.428 . S
C1098 C1101 1.260 . S
C1098 C1102 1.477 . S
C1098 H1116 0.932 . S
C1099 C1100 1.384 . S
C1099 C1101 1.479 . S
C1099 H1117 0.929 . S
C1100 C1097 1.424 . S
C1100 C1099 1.384 . S
C1100 H1118 0.928 . S
C1101 C1098 1.260 . S
C1101 C1099 1.479 . S
C1102 C1097 1.245 . S
C1102 C1098 1.477 . S
C1102 H1119 0.932 . S
C1103 U1086 2.882 . S
C1103 C1097 1.428 . S
C1103 O1106 1.301 . S
C1103 O1107 1.282 . S
O1104 U1086 2.441 . S
O1104 C1090 1.249 . S
O1105 U1086 2.420 . S
O1105 C1090 1.202 . S
O1106 U1086 2.455 . S
O1106 C1103 1.301 . S
O1107 U1086 2.449 . S
O1107 C1103 1.282 . S
H1108 C1081 0.931 . S
H1109 C1083 0.929 . S
H1110 C1084 0.930 . S
H1111 C1085 0.931 . S
H1112 C1092 0.932 . S
H1113 C1093 0.930 . S
H1114 C1094 0.929 . S
H1115 C1096 0.930 . S
H1116 C1098 0.932 . S
H1117 C1099 0.929 . S
H1118 C1100 0.928 . S
H1119 C1102 0.932 . S
C1120 C1121 1.264 . S
C1120 C1125 1.479 . S
C1120 C1130 1.465 . S
C1121 C1120 1.264 . S
C1121 C1123 1.339 . S
C1121 H1148 0.931 . S
C1122 C1123 1.395 . S
C1122 C1124 1.320 . S
C1123 C1121 1.339 . S
C1123 C1122 1.395 . S
C1123 H1149 0.929 . S
C1124 C1122 1.320 . S
C1124 C1125 1.405 . S
C1124 H1150 0.930 . S
C1125 C1120 1.479 . S
C1125 C1124 1.405 . S
C1125 H1151 0.931 . S
U1126 O1127 2.454 . S
U1126 O1128 2.458 . S
U1126 C1129 2.984 . S
U1126 C1130 2.847 . S
U1126 C1143 2.882 . S
U1126 O1144 2.441 . S
U1126 O1145 2.420 . S
U1126 O1146 2.455 . S
U1126 O1147 2.449 . S
O1127 U1126 2.454 . S
O1127 C1129 1.353 . S
O1128 U1126 2.458 . S
O1128 C1129 1.286 . S
C1129 U1126 2.984 . S
C1129 O1127 1.353 . S
C1129 O1128 1.286 . S
C1129 C1131 1.363 . S
C1130 C1120 1.465 . S
C1130 U1126 2.847 . S
C1130 O1144 1.249 . S
C1130 O1145 1.202 . S
C1131 C1129 1.363 . S
C1131 C1133 1.408 . S
C1131 C1136 1.342 . S
C1132 C1133 1.310 . S
C1132 C1135 1.461 . S
C1132 H1152 0.932 . S
C1133 C1131 1.408 . S
C1133 C1132 1.310 . S
C1133 H1153 0.930 . S
C1134 C1135 1.474 . S
C1134 C1136 1.285 . S
C1134 H1154 0.929 . S
C1135 C1132 1.461 . S
C1135 C1134 1.474 . S
C1136 C1131 1.342 . S
C1136 C1134 1.285 . S
C1136 H1155 0.930 . S
C1137 C1140 1.424 . S
C1137 C1142 1.245 . S
C1137 C1143 1.428 . S
C1138 C1141 1.260 . S
C1138 C1142 1.477 . S
C1138 H1156 0.932 . S
C1139 C1140 1.384 . S
C1139 C1141 1.479 . S
C1139 H1157 0.929 . S
C1140 C1137 1.424 . S
C1140 C1139 1.384 . S
C1140 H1158 0.928 . S
C1141 C1138 1.260 . S
C1141 C1139 1.479 . S
C1142 C1137 1.245 . S
C1142 C1138 1.477 . S
C1142 H1159 0.932 . S
C1143 U1126 2.882 . S
C1143 C1137 1.428 . S
C1143 O1146 1.301 . S
C1143 O1147 1.282 . S
O1144 U1126 2.441 . S
O1144 C1130 1.249 . S
O1145 U1126 2.420 . S
O1145 C1130 1.202 . S
O1146 U1126 2.455 . S
O1146 C1143 1.301 . S
O1147 U1126 2.449 . S
O1147 C1143 1.282 . S
H1148 C1121 0.931 . S
H1149 C1123 0.929 . S
H1150 C1124 0.930 . S
H1151 C1125 0.931 . S
H1152 C1132 0.932 . S
H1153 C1133 0.930 . S
H1154 C1134 0.929 . S
H1155 C1136 0.930 . S
H1156 C1138 0.932 . S
H1157 C1139 0.929 . S
H1158 C1140 0.928 . S
H1159 C1142 0.932 . S
C1160 C1161 1.264 . S
C1160 C1165 1.479 . S
C1160 C1170 1.465 . S
C1161 C1160 1.264 . S
C1161 C1163 1.339 . S
C1161 H1188 0.931 . S
C1162 C1163 1.395 . S
C1162 C1164 1.320 . S
C1163 C1161 1.339 . S
C1163 C1162 1.395 . S
C1163 H1189 0.929 . S
C1164 C1162 1.320 . S
C1164 C1165 1.405 . S
C1164 H1190 0.930 . S
C1165 C1160 1.479 . S
C1165 C1164 1.405 . S
C1165 H1191 0.931 . S
U1166 O1167 2.454 . S
U1166 O1168 2.458 . S
U1166 C1169 2.984 . S
U1166 C1170 2.847 . S
U1166 C1183 2.882 . S
U1166 O1184 2.441 . S
U1166 O1185 2.420 . S
U1166 O1186 2.455 . S
U1166 O1187 2.449 . S
O1167 U1166 2.454 . S
O1167 C1169 1.353 . S
O1168 U1166 2.458 . S
O1168 C1169 1.286 . S
C1169 U1166 2.984 . S
C1169 O1167 1.353 . S
C1169 O1168 1.286 . S
C1169 C1171 1.363 . S
C1170 C1160 1.465 . S
C1170 U1166 2.847 . S
C1170 O1184 1.249 . S
C1170 O1185 1.202 . S
C1171 C1169 1.363 . S
C1171 C1173 1.408 . S
C1171 C1176 1.342 . S
C1172 C1173 1.310 . S
C1172 C1175 1.461 . S
C1172 H1192 0.932 . S
C1173 C1171 1.408 . S
C1173 C1172 1.310 . S
C1173 H1193 0.930 . S
C1174 C1175 1.474 . S
C1174 C1176 1.285 . S
C1174 H1194 0.929 . S
C1175 C1172 1.461 . S
C1175 C1174 1.474 . S
C1176 C1171 1.342 . S
C1176 C1174 1.285 . S
C1176 H1195 0.930 . S
C1177 C1180 1.424 . S
C1177 C1182 1.245 . S
C1177 C1183 1.428 . S
C1178 C1181 1.260 . S
C1178 C1182 1.477 . S
C1178 H1196 0.932 . S
C1179 C1180 1.384 . S
C1179 C1181 1.479 . S
C1179 H1197 0.929 . S
C1180 C1177 1.424 . S
C1180 C1179 1.384 . S
C1180 H1198 0.928 . S
C1181 C1178 1.260 . S
C1181 C1179 1.479 . S
C1182 C1177 1.245 . S
C1182 C1178 1.477 . S
C1182 H1199 0.932 . S
C1183 U1166 2.882 . S
C1183 C1177 1.428 . S
C1183 O1186 1.301 . S
C1183 O1187 1.282 . S
O1184 U1166 2.441 . S
O1184 C1170 1.249 . S
O1185 U1166 2.420 . S
O1185 C1170 1.202 . S
O1186 U1166 2.455 . S
O1186 C1183 1.301 . S
O1187 U1166 2.449 . S
O1187 C1183 1.282 . S
H1188 C1161 0.931 . S
H1189 C1163 0.929 . S
H1190 C1164 0.930 . S
H1191 C1165 0.931 . S
H1192 C1172 0.932 . S
H1193 C1173 0.930 . S
H1194 C1174 0.929 . S
H1195 C1176 0.930 . S
H1196 C1178 0.932 . S
H1197 C1179 0.929 . S
H1198 C1180 0.928 . S
H1199 C1182 0.932 . S
C1200 C1201 1.264 . S
C1200 C1205 1.479 . S
C1200 C1210 1.465 . S
C1201 C1200 1.264 . S
C1201 C1203 1.339 . S
C1201 H1228 0.931 . S
C1202 C1203 1.395 . S
C1202 C1204 1.320 . S
C1203 C1201 1.339 . S
C1203 C1202 1.395 . S
C1203 H1229 0.929 . S
C1204 C1202 1.320 . S
C1204 C1205 1.405 . S
C1204 H1230 0.930 . S
C1205 C1200 1.479 . S
C1205 C1204 1.405 . S
C1205 H1231 0.931 . S
U1206 O1207 2.454 . S
U1206 O1208 2.458 . S
U1206 C1209 2.984 . S
U1206 C1210 2.847 . S
U1206 C1223 2.882 . S
U1206 O1224 2.441 . S
U1206 O1225 2.420 . S
U1206 O1226 2.455 . S
U1206 O1227 2.449 . S
O1207 U1206 2.454 . S
O1207 C1209 1.353 . S
O1208 U1206 2.458 . S
O1208 C1209 1.286 . S
C1209 U1206 2.984 . S
C1209 O1207 1.353 . S
C1209 O1208 1.286 . S
C1209 C1211 1.363 . S
C1210 C1200 1.465 . S
C1210 U1206 2.847 . S
C1210 O1224 1.249 . S
C1210 O1225 1.202 . S
C1211 C1209 1.363 . S
C1211 C1213 1.408 . S
C1211 C1216 1.342 . S
C1212 C1213 1.310 . S
C1212 C1215 1.461 . S
C1212 H1232 0.932 . S
C1213 C1211 1.408 . S
C1213 C1212 1.310 . S
C1213 H1233 0.930 . S
C1214 C1215 1.474 . S
C1214 C1216 1.285 . S
C1214 H1234 0.929 . S
C1215 C1212 1.461 . S
C1215 C1214 1.474 . S
C1216 C1211 1.342 . S
C1216 C1214 1.285 . S
C1216 H1235 0.930 . S
C1217 C1220 1.424 . S
C1217 C1222 1.245 . S
C1217 C1223 1.428 . S
C1218 C1221 1.260 . S
C1218 C1222 1.477 . S
C1218 H1236 0.932 . S
C1219 C1220 1.384 . S
C1219 C1221 1.479 . S
C1219 H1237 0.929 . S
C1220 C1217 1.424 . S
C1220 C1219 1.384 . S
C1220 H1238 0.928 . S
C1221 C1218 1.260 . S
C1221 C1219 1.479 . S
C1222 C1217 1.245 . S
C1222 C1218 1.477 . S
C1222 H1239 0.932 . S
C1223 U1206 2.882 . S
C1223 C1217 1.428 . S
C1223 O1226 1.301 . S
C1223 O1227 1.282 . S
O1224 U1206 2.441 . S
O1224 C1210 1.249 . S
O1225 U1206 2.420 . S
O1225 C1210 1.202 . S
O1226 U1206 2.455 . S
O1226 C1223 1.301 . S
O1227 U1206 2.449 . S
O1227 C1223 1.282 . S
H1228 C1201 0.931 . S
H1229 C1203 0.929 . S
H1230 C1204 0.930 . S
H1231 C1205 0.931 . S
H1232 C1212 0.932 . S
H1233 C1213 0.930 . S
H1234 C1214 0.929 . S
H1235 C1216 0.930 . S
H1236 C1218 0.932 . S
H1237 C1219 0.929 . S
H1238 C1220 0.928 . S
H1239 C1222 0.932 . S
C1240 C1241 1.264 . S
C1240 C1245 1.479 . S
C1240 C1250 1.465 . S
C1241 C1240 1.264 . S
C1241 C1243 1.339 . S
C1241 H1268 0.931 . S
C1242 C1243 1.395 . S
C1242 C1244 1.320 . S
C1243 C1241 1.339 . S
C1243 C1242 1.395 . S
C1243 H1269 0.929 . S
C1244 C1242 1.320 . S
C1244 C1245 1.405 . S
C1244 H1270 0.930 . S
C1245 C1240 1.479 . S
C1245 C1244 1.405 . S
C1245 H1271 0.931 . S
U1246 O1247 2.454 . S
U1246 O1248 2.458 . S
U1246 C1249 2.984 . S
U1246 C1250 2.847 . S
U1246 C1263 2.882 . S
U1246 O1264 2.441 . S
U1246 O1265 2.420 . S
U1246 O1266 2.455 . S
U1246 O1267 2.449 . S
O1247 U1246 2.454 . S
O1247 C1249 1.353 . S
O1248 U1246 2.458 . S
O1248 C1249 1.286 . S
C1249 U1246 2.984 . S
C1249 O1247 1.353 . S
C1249 O1248 1.286 . S
C1249 C1251 1.363 . S
C1250 C1240 1.465 . S
C1250 U1246 2.847 . S
C1250 O1264 1.249 . S
C1250 O1265 1.202 . S
C1251 C1249 1.363 . S
C1251 C1253 1.408 . S
C1251 C1256 1.342 . S
C1252 C1253 1.310 . S
C1252 C1255 1.461 . S
C1252 H1272 0.932 . S
C1253 C1251 1.408 . S
C1253 C1252 1.310 . S
C1253 H1273 0.930 . S
C1254 C1255 1.474 . S
C1254 C1256 1.285 . S
C1254 H1274 0.929 . S
C1255 C1252 1.461 . S
C1255 C1254 1.474 . S
C1256 C1251 1.342 . S
C1256 C1254 1.285 . S
C1256 H1275 0.930 . S
C1257 C1260 1.424 . S
C1257 C1262 1.245 . S
C1257 C1263 1.428 . S
C1258 C1261 1.260 . S
C1258 C1262 1.477 . S
C1258 H1276 0.932 . S
C1259 C1260 1.384 . S
C1259 C1261 1.479 . S
C1259 H1277 0.929 . S
C1260 C1257 1.424 . S
C1260 C1259 1.384 . S
C1260 H1278 0.928 . S
C1261 C1258 1.260 . S
C1261 C1259 1.479 . S
C1262 C1257 1.245 . S
C1262 C1258 1.477 . S
C1262 H1279 0.932 . S
C1263 U1246 2.882 . S
C1263 C1257 1.428 . S
C1263 O1266 1.301 . S
C1263 O1267 1.282 . S
O1264 U1246 2.441 . S
O1264 C1250 1.249 . S
O1265 U1246 2.420 . S
O1265 C1250 1.202 . S
O1266 U1246 2.455 . S
O1266 C1263 1.301 . S
O1267 U1246 2.449 . S
O1267 C1263 1.282 . S
H1268 C1241 0.931 . S
H1269 C1243 0.929 . S
H1270 C1244 0.930 . S
H1271 C1245 0.931 . S
H1272 C1252 0.932 . S
H1273 C1253 0.930 . S
H1274 C1254 0.929 . S
H1275 C1256 0.930 . S
H1276 C1258 0.932 . S
H1277 C1259 0.929 . S
H1278 C1260 0.928 . S
H1279 C1262 0.932 . S
H1280 C1288 0.930 . S
H1281 C1291 0.930 . S
H1282 C1293 0.930 . S
H1283 C1294 0.970 . S
H1284 C1294 0.970 . S
H1285 C1296 0.930 . S
H1286 C1298 0.930 . S
H1287 C1300 0.930 . S
C1288 H1280 0.930 . S
C1288 C1289 1.382 . S
C1288 C1290 1.426 . S
C1289 C1288 1.382 . S
C1289 C1293 1.389 . S
C1290 C1288 1.426 . S
C1290 C1291 1.375 . S
C1290 C1294 1.532 1_556 S
C1291 H1281 0.930 . S
C1291 C1290 1.375 . S
C1291 C1292 1.416 . S
C1292 C1291 1.416 . S
C1292 C1293 1.371 . S
C1293 H1282 0.930 . S
C1293 C1289 1.389 . S
C1293 C1292 1.371 . S
C1294 H1283 0.970 . S
C1294 H1284 0.970 . S
C1294 C1290 1.532 1_554 S
C1294 C1295 1.499 . S
C1295 C1294 1.499 . S
C1295 C1296 1.370 . S
C1295 C1300 1.415 . S
C1296 H1285 0.930 . S
C1296 C1295 1.370 . S
C1296 C1297 1.407 . S
C1297 C1296 1.407 . S
C1297 C1298 1.365 . S
C1298 H1286 0.930 . S
C1298 C1297 1.365 . S
C1298 C1299 1.393 . S
C1299 C1298 1.393 . S
C1299 C1300 1.387 . S
C1300 H1287 0.930 . S
C1300 C1295 1.415 . S
C1300 C1299 1.387 . S
H1301 C1309 0.930 . S
H1302 C1312 0.930 . S
H1303 C1314 0.930 . S
H1304 C1315 0.970 . S
H1305 C1315 0.970 . S
H1306 C1317 0.930 . S
H1307 C1319 0.930 . S
H1308 C1321 0.930 . S
C1309 H1301 0.930 . S
C1309 C1310 1.382 . S
C1309 C1311 1.426 . S
C1310 C1309 1.382 . S
C1310 C1314 1.389 . S
C1311 C1309 1.426 . S
C1311 C1312 1.375 . S
C1311 C1315 1.532 . S
C1312 H1302 0.930 . S
C1312 C1311 1.375 . S
C1312 C1313 1.416 . S
C1313 C1312 1.416 . S
C1313 C1314 1.371 . S
C1314 H1303 0.930 . S
C1314 C1310 1.389 . S
C1314 C1313 1.371 . S
C1315 H1304 0.970 . S
C1315 H1305 0.970 . S
C1315 C1311 1.532 . S
C1315 C1316 1.499 1_554 S
C1316 C1315 1.499 1_556 S
C1316 C1317 1.370 . S
C1316 C1321 1.415 . S
C1317 H1306 0.930 . S
C1317 C1316 1.370 . S
C1317 C1318 1.407 . S
C1318 C1317 1.407 . S
C1318 C1319 1.365 . S
C1319 H1307 0.930 . S
C1319 C1318 1.365 . S
C1319 C1320 1.393 . S
C1320 C1319 1.393 . S
C1320 C1321 1.387 . S
C1321 H1308 0.930 . S
C1321 C1316 1.415 . S
C1321 C1320 1.387 . S
H1322 C1330 0.930 . S
H1323 C1333 0.930 . S
H1324 C1335 0.930 . S
H1325 C1336 0.970 . S
H1326 C1336 0.970 . S
H1327 C1338 0.930 . S
H1328 C1340 0.930 . S
H1329 C1342 0.930 . S
C1330 H1322 0.930 . S
C1330 C1331 1.382 . S
C1330 C1332 1.426 . S
C1331 C1330 1.382 . S
C1331 C1335 1.389 . S
C1332 C1330 1.426 . S
C1332 C1333 1.375 . S
C1332 C1336 1.532 . S
C1333 H1323 0.930 . S
C1333 C1332 1.375 . S
C1333 C1334 1.416 . S
C1334 C1333 1.416 . S
C1334 C1335 1.371 . S
C1335 H1324 0.930 . S
C1335 C1331 1.389 . S
C1335 C1334 1.371 . S
C1336 H1325 0.970 . S
C1336 H1326 0.970 . S
C1336 C1332 1.532 . S
C1336 C1337 1.499 1_554 S
C1337 C1336 1.499 1_556 S
C1337 C1338 1.370 . S
C1337 C1342 1.415 . S
C1338 H1327 0.930 . S
C1338 C1337 1.370 . S
C1338 C1339 1.407 . S
C1339 C1338 1.407 . S
C1339 C1340 1.365 . S
C1340 H1328 0.930 . S
C1340 C1339 1.365 . S
C1340 C1341 1.393 . S
C1341 C1340 1.393 . S
C1341 C1342 1.387 . S
C1342 H1329 0.930 . S
C1342 C1337 1.415 . S
C1342 C1341 1.387 . S
H1343 C1351 0.930 . S
H1344 C1354 0.930 . S
H1345 C1356 0.930 . S
H1346 C1357 0.970 . S
H1347 C1357 0.970 . S
H1348 C1359 0.930 . S
H1349 C1361 0.930 . S
H1350 C1363 0.930 . S
C1351 H1343 0.930 . S
C1351 C1352 1.382 . S
C1351 C1353 1.426 . S
C1352 C1351 1.382 . S
C1352 C1356 1.389 . S
C1353 C1351 1.426 . S
C1353 C1354 1.375 . S
C1353 C1357 1.532 . S
C1354 H1344 0.930 . S
C1354 C1353 1.375 . S
C1354 C1355 1.416 . S
C1355 C1354 1.416 . S
C1355 C1356 1.371 . S
C1356 H1345 0.930 . S
C1356 C1352 1.389 . S
C1356 C1355 1.371 . S
C1357 H1346 0.970 . S
C1357 H1347 0.970 . S
C1357 C1353 1.532 . S
C1357 C1358 1.499 1_554 S
C1358 C1357 1.499 1_556 S
C1358 C1359 1.370 . S
C1358 C1363 1.415 . S
C1359 H1348 0.930 . S
C1359 C1358 1.370 . S
C1359 C1360 1.407 . S
C1360 C1359 1.407 . S
C1360 C1361 1.365 . S
C1361 H1349 0.930 . S
C1361 C1360 1.365 . S
C1361 C1362 1.393 . S
C1362 C1361 1.393 . S
C1362 C1363 1.387 . S
C1363 H1350 0.930 . S
C1363 C1358 1.415 . S
C1363 C1362 1.387 . S
H1364 C1372 0.930 . S
H1365 C1375 0.930 . S
H1366 C1377 0.930 . S
H1367 C1378 0.970 . S
H1368 C1378 0.970 . S
H1369 C1380 0.930 . S
H1370 C1382 0.930 . S
H1371 C1384 0.930 . S
C1372 H1364 0.930 . S
C1372 C1373 1.382 . S
C1372 C1374 1.426 . S
C1373 C1372 1.382 . S
C1373 C1377 1.389 . S
C1374 C1372 1.426 . S
C1374 C1375 1.375 . S
C1374 C1378 1.532 . S
C1375 H1365 0.930 . S
C1375 C1374 1.375 . S
C1375 C1376 1.416 . S
C1376 C1375 1.416 . S
C1376 C1377 1.371 . S
C1377 H1366 0.930 . S
C1377 C1373 1.389 . S
C1377 C1376 1.371 . S
C1378 H1367 0.970 . S
C1378 H1368 0.970 . S
C1378 C1374 1.532 . S
C1378 C1379 1.499 1_455 S
C1379 C1378 1.499 1_655 S
C1379 C1380 1.370 . S
C1379 C1384 1.415 . S
C1380 H1369 0.930 . S
C1380 C1379 1.370 . S
C1380 C1381 1.407 . S
C1381 C1380 1.407 . S
C1381 C1382 1.365 . S
C1382 H1370 0.930 . S
C1382 C1381 1.365 . S
C1382 C1383 1.393 . S
C1383 C1382 1.393 . S
C1383 C1384 1.387 . S
C1384 H1371 0.930 . S
C1384 C1379 1.415 . S
C1384 C1383 1.387 . S
H1385 C1393 0.930 . S
H1386 C1396 0.930 . S
H1387 C1398 0.930 . S
H1388 C1399 0.971 . S
H1389 C1399 0.970 1_565 S
H1390 C1401 0.930 . S
H1391 C1403 0.930 . S
H1392 C1405 0.930 . S
C1393 H1385 0.930 . S
C1393 C1394 1.382 . S
C1393 C1395 1.426 . S
C1394 C1393 1.382 . S
C1394 C1398 1.389 . S
C1395 C1393 1.426 . S
C1395 C1396 1.375 . S
C1395 C1399 1.528 . S
C1396 H1386 0.930 . S
C1396 C1395 1.375 . S
C1396 C1397 1.416 . S
C1397 C1396 1.416 . S
C1397 C1398 1.371 . S
C1398 H1387 0.930 . S
C1398 C1394 1.389 . S
C1398 C1397 1.371 . S
C1399 H1388 0.971 . S
C1399 H1389 0.970 1_545 S
C1399 C1395 1.528 . S
C1399 C1400 1.503 1_545 S
C1400 C1399 1.503 1_565 S
C1400 C1401 1.370 . S
C1400 C1405 1.415 . S
C1401 H1390 0.930 . S
C1401 C1400 1.370 . S
C1401 C1402 1.407 . S
C1402 C1401 1.407 . S
C1402 C1403 1.365 . S
C1403 H1391 0.930 . S
C1403 C1402 1.365 . S
C1403 C1404 1.393 . S
C1404 C1403 1.393 . S
C1404 C1405 1.387 . S
C1405 H1392 0.930 . S
C1405 C1400 1.415 . S
C1405 C1404 1.387 . S
H1406 C1414 0.930 . S
H1407 C1417 0.930 . S
H1408 C1419 0.930 . S
H1409 C1420 0.970 . S
H1410 C1420 0.970 . S
H1411 C1422 0.930 . S
H1412 C1424 0.930 . S
H1413 C1426 0.930 . S
C1414 H1406 0.930 . S
C1414 C1415 1.382 . S
C1414 C1416 1.426 . S
C1415 C1414 1.382 . S
C1415 C1419 1.389 . S
C1416 C1414 1.426 . S
C1416 C1417 1.375 . S
C1416 C1420 1.552 . S
C1417 H1407 0.930 . S
C1417 C1416 1.375 . S
C1417 C1418 1.416 . S
C1418 C1417 1.416 . S
C1418 C1419 1.371 . S
C1419 H1408 0.930 . S
C1419 C1415 1.389 . S
C1419 C1418 1.371 . S
C1420 H1409 0.970 . S
C1420 H1410 0.970 . S
C1420 C1416 1.552 . S
C1420 C1421 1.480 1_655 S
C1421 C1420 1.480 1_455 S
C1421 C1422 1.370 . S
C1421 C1426 1.415 . S
C1422 H1411 0.930 . S
C1422 C1421 1.370 . S
C1422 C1423 1.407 . S
C1423 C1422 1.407 . S
C1423 C1424 1.365 . S
C1424 H1412 0.930 . S
C1424 C1423 1.365 . S
C1424 C1425 1.393 . S
C1425 C1424 1.393 . S
C1425 C1426 1.387 . S
C1426 H1413 0.930 . S
C1426 C1421 1.415 . S
C1426 C1425 1.387 . S
H1427 C1435 0.930 . S
H1428 C1438 0.930 . S
H1429 C1440 0.930 . S
H1430 C1441 0.970 . S
H1431 C1441 0.970 . S
H1432 C1443 0.930 . S
H1433 C1445 0.930 . S
H1434 C1447 0.930 . S
C1435 H1427 0.930 . S
C1435 C1436 1.382 . S
C1435 C1437 1.426 . S
C1436 C1435 1.382 . S
C1436 C1440 1.389 . S
C1437 C1435 1.426 . S
C1437 C1438 1.375 . S
C1437 C1441 1.532 1_565 S
C1438 H1428 0.930 . S
C1438 C1437 1.375 . S
C1438 C1439 1.416 . S
C1439 C1438 1.416 . S
C1439 C1440 1.371 . S
C1440 H1429 0.930 . S
C1440 C1436 1.389 . S
C1440 C1439 1.371 . S
C1441 H1430 0.970 . S
C1441 H1431 0.970 . S
C1441 C1437 1.532 1_545 S
C1441 C1442 1.499 . S
C1442 C1441 1.499 . S
C1442 C1443 1.370 . S
C1442 C1447 1.415 . S
C1443 H1432 0.930 . S
C1443 C1442 1.370 . S
C1443 C1444 1.407 . S
C1444 C1443 1.407 . S
C1444 C1445 1.365 . S
C1445 H1433 0.930 . S
C1445 C1444 1.365 . S
C1445 C1446 1.393 . S
C1446 C1445 1.393 . S
C1446 C1447 1.387 . S
C1447 H1434 0.930 . S
C1447 C1442 1.415 . S
C1447 C1446 1.387 . S
H1448 C1456 0.930 . S
H1449 C1459 0.930 . S
H1450 C1461 0.930 . S
H1451 C1462 0.970 . S
H1452 C1462 0.970 . S
H1453 C1464 0.930 . S
H1454 C1466 0.930 . S
H1455 C1468 0.930 . S
C1456 H1448 0.930 . S
C1456 C1457 1.382 . S
C1456 C1458 1.426 . S
C1457 C1456 1.382 . S
C1457 C1461 1.389 . S
C1458 C1456 1.426 . S
C1458 C1459 1.375 . S
C1458 C1462 1.532 1_655 S
C1459 H1449 0.930 . S
C1459 C1458 1.375 . S
C1459 C1460 1.416 . S
C1460 C1459 1.416 . S
C1460 C1461 1.371 . S
C1461 H1450 0.930 . S
C1461 C1457 1.389 . S
C1461 C1460 1.371 . S
C1462 H1451 0.970 . S
C1462 H1452 0.970 . S
C1462 C1458 1.532 1_455 S
C1462 C1463 1.499 . S
C1463 C1462 1.499 . S
C1463 C1464 1.370 . S
C1463 C1468 1.415 . S
C1464 H1453 0.930 . S
C1464 C1463 1.370 . S
C1464 C1465 1.407 . S
C1465 C1464 1.407 . S
C1465 C1466 1.365 . S
C1466 H1454 0.930 . S
C1466 C1465 1.365 . S
C1466 C1467 1.393 . S
C1467 C1466 1.393 . S
C1467 C1468 1.387 . S
C1468 H1455 0.930 . S
C1468 C1463 1.415 . S
C1468 C1467 1.387 . S
H1469 C1477 0.930 . S
H1470 C1480 0.930 . S
H1471 C1482 0.930 . S
H1472 C1483 0.970 . S
H1473 C1483 0.970 . S
H1474 C1485 0.930 . S
H1475 C1487 0.930 . S
H1476 C1489 0.930 . S
C1477 H1469 0.930 . S
C1477 C1478 1.382 . S
C1477 C1479 1.426 . S
C1478 C1477 1.382 . S
C1478 C1482 1.389 . S
C1479 C1477 1.426 . S
C1479 C1480 1.375 . S
C1479 C1483 1.532 1_565 S
C1480 H1470 0.930 . S
C1480 C1479 1.375 . S
C1480 C1481 1.416 . S
C1481 C1480 1.416 . S
C1481 C1482 1.371 . S
C1482 H1471 0.930 . S
C1482 C1478 1.389 . S
C1482 C1481 1.371 . S
C1483 H1472 0.970 . S
C1483 H1473 0.970 . S
C1483 C1479 1.532 1_545 S
C1483 C1484 1.499 . S
C1484 C1483 1.499 . S
C1484 C1485 1.370 . S
C1484 C1489 1.415 . S
C1485 H1474 0.930 . S
C1485 C1484 1.370 . S
C1485 C1486 1.407 . S
C1486 C1485 1.407 . S
C1486 C1487 1.365 . S
C1487 H1475 0.930 . S
C1487 C1486 1.365 . S
C1487 C1488 1.393 . S
C1488 C1487 1.393 . S
C1488 C1489 1.387 . S
C1489 H1476 0.930 . S
C1489 C1484 1.415 . S
C1489 C1488 1.387 . S
H1490 C1498 0.930 . S
H1491 C1501 0.930 . S
H1492 C1503 0.930 . S
H1493 C1504 0.970 . S
H1494 C1504 0.970 . S
H1495 C1506 0.930 . S
H1496 C1508 0.930 . S
H1497 C1510 0.930 . S
C1498 H1490 0.930 . S
C1498 C1499 1.382 . S
C1498 C1500 1.426 . S
C1499 C1498 1.382 . S
C1499 C1503 1.389 . S
C1500 C1498 1.426 . S
C1500 C1501 1.375 . S
C1500 C1504 1.532 1_655 S
C1501 H1491 0.930 . S
C1501 C1500 1.375 . S
C1501 C1502 1.416 . S
C1502 C1501 1.416 . S
C1502 C1503 1.371 . S
C1503 H1492 0.930 . S
C1503 C1499 1.389 . S
C1503 C1502 1.371 . S
C1504 H1493 0.970 . S
C1504 H1494 0.970 . S
C1504 C1500 1.532 1_455 S
C1504 C1505 1.499 . S
C1505 C1504 1.499 . S
C1505 C1506 1.370 . S
C1505 C1510 1.415 . S
C1506 H1495 0.930 . S
C1506 C1505 1.370 . S
C1506 C1507 1.407 . S
C1507 C1506 1.407 . S
C1507 C1508 1.365 . S
C1508 H1496 0.930 . S
C1508 C1507 1.365 . S
C1508 C1509 1.393 . S
C1509 C1508 1.393 . S
C1509 C1510 1.387 . S
C1510 H1497 0.930 . S
C1510 C1505 1.415 . S
C1510 C1509 1.387 . S
H1511 C1519 0.930 . S
H1512 C1522 0.930 . S
H1513 C1524 0.930 . S
H1514 C1525 0.970 . S
H1515 C1525 0.970 . S
H1516 C1527 0.930 . S
H1517 C1529 0.930 . S
H1518 C1531 0.930 . S
C1519 H1511 0.930 . S
C1519 C1520 1.382 . S
C1519 C1521 1.426 . S
C1520 C1519 1.382 . S
C1520 C1524 1.389 . S
C1521 C1519 1.426 . S
C1521 C1522 1.375 . S
C1521 C1525 1.532 1_565 S
C1522 H1512 0.930 . S
C1522 C1521 1.375 . S
C1522 C1523 1.416 . S
C1523 C1522 1.416 . S
C1523 C1524 1.371 . S
C1524 H1513 0.930 . S
C1524 C1520 1.389 . S
C1524 C1523 1.371 . S
C1525 H1514 0.970 . S
C1525 H1515 0.970 . S
C1525 C1521 1.532 1_545 S
C1525 C1526 1.499 . S
C1526 C1525 1.499 . S
C1526 C1527 1.370 . S
C1526 C1531 1.415 . S
C1527 H1516 0.930 . S
C1527 C1526 1.370 . S
C1527 C1528 1.407 . S
C1528 C1527 1.407 . S
C1528 C1529 1.365 . S
C1529 H1517 0.930 . S
C1529 C1528 1.365 . S
C1529 C1530 1.393 . S
C1530 C1529 1.393 . S
C1530 C1531 1.387 . S
C1531 H1518 0.930 . S
C1531 C1526 1.415 . S
C1531 C1530 1.387 . S
H1532 C1540 0.930 . S
H1533 C1543 0.930 . S
H1534 C1545 0.930 . S
H1535 C1546 0.970 . S
H1536 C1546 0.970 . S
H1537 C1548 0.930 . S
H1538 C1550 0.930 . S
H1539 C1552 0.930 . S
C1540 H1532 0.930 . S
C1540 C1541 1.382 . S
C1540 C1542 1.426 . S
C1541 C1540 1.382 . S
C1541 C1545 1.389 . S
C1542 C1540 1.426 . S
C1542 C1543 1.375 . S
C1542 C1546 1.532 . S
C1543 H1533 0.930 . S
C1543 C1542 1.375 . S
C1543 C1544 1.416 . S
C1544 C1543 1.416 . S
C1544 C1545 1.371 . S
C1545 H1534 0.930 . S
C1545 C1541 1.389 . S
C1545 C1544 1.371 . S
C1546 H1535 0.970 . S
C1546 H1536 0.970 . S
C1546 C1542 1.532 . S
C1546 C1547 1.499 . S
C1547 C1546 1.499 . S
C1547 C1548 1.370 . S
C1547 C1552 1.415 . S
C1548 H1537 0.930 . S
C1548 C1547 1.370 . S
C1548 C1549 1.407 . S
C1549 C1548 1.407 . S
C1549 C1550 1.365 . S
C1550 H1538 0.930 . S
C1550 C1549 1.365 . S
C1550 C1551 1.393 . S
C1551 C1550 1.393 . S
C1551 C1552 1.387 . S
C1552 H1539 0.930 . S
C1552 C1547 1.415 . S
C1552 C1551 1.387 . S
H1553 C1561 0.930 . S
H1554 C1564 0.930 . S
H1555 C1566 0.930 . S
H1556 C1567 0.970 . S
H1557 C1567 0.970 . S
H1558 C1569 0.930 . S
H1559 C1571 0.930 . S
H1560 C1573 0.930 . S
C1561 H1553 0.930 . S
C1561 C1562 1.382 . S
C1561 C1563 1.426 . S
C1562 C1561 1.382 . S
C1562 C1566 1.389 . S
C1563 C1561 1.426 . S
C1563 C1564 1.375 . S
C1563 C1567 1.532 . S
C1564 H1554 0.930 . S
C1564 C1563 1.375 . S
C1564 C1565 1.416 . S
C1565 C1564 1.416 . S
C1565 C1566 1.371 . S
C1566 H1555 0.930 . S
C1566 C1562 1.389 . S
C1566 C1565 1.371 . S
C1567 H1556 0.970 . S
C1567 H1557 0.970 . S
C1567 C1563 1.532 . S
C1567 C1568 1.499 . S
C1568 C1567 1.499 . S
C1568 C1569 1.370 . S
C1568 C1573 1.415 . S
C1569 H1558 0.930 . S
C1569 C1568 1.370 . S
C1569 C1570 1.407 . S
C1570 C1569 1.407 . S
C1570 C1571 1.365 . S
C1571 H1559 0.930 . S
C1571 C1570 1.365 . S
C1571 C1572 1.393 . S
C1572 C1571 1.393 . S
C1572 C1573 1.387 . S
C1573 H1560 0.930 . S
C1573 C1568 1.415 . S
C1573 C1572 1.387 . S
H1574 C1582 0.930 . S
H1575 C1585 0.930 . S
H1576 C1587 0.930 . S
H1577 C1588 0.970 . S
H1578 C1588 0.970 . S
H1579 C1590 0.930 . S
H1580 C1592 0.930 . S
H1581 C1594 0.930 . S
C1582 H1574 0.930 . S
C1582 C1583 1.382 . S
C1582 C1584 1.426 . S
C1583 C1582 1.382 . S
C1583 C1587 1.389 . S
C1584 C1582 1.426 . S
C1584 C1585 1.375 . S
C1584 C1588 1.532 . S
C1585 H1575 0.930 . S
C1585 C1584 1.375 . S
C1585 C1586 1.416 . S
C1586 C1585 1.416 . S
C1586 C1587 1.371 . S
C1587 H1576 0.930 . S
C1587 C1583 1.389 . S
C1587 C1586 1.371 . S
C1588 H1577 0.970 . S
C1588 H1578 0.970 . S
C1588 C1584 1.532 . S
C1588 C1589 1.499 . S
C1589 C1588 1.499 . S
C1589 C1590 1.370 . S
C1589 C1594 1.415 . S
C1590 H1579 0.930 . S
C1590 C1589 1.370 . S
C1590 C1591 1.407 . S
C1591 C1590 1.407 . S
C1591 C1592 1.365 . S
C1592 H1580 0.930 . S
C1592 C1591 1.365 . S
C1592 C1593 1.393 . S
C1593 C1592 1.393 . S
C1593 C1594 1.387 . S
C1594 H1581 0.930 . S
C1594 C1589 1.415 . S
C1594 C1593 1.387 . S
H1595 C1603 0.930 . S
H1596 C1606 0.930 . S
H1597 C1608 0.930 . S
H1598 C1609 0.970 . S
H1599 C1609 0.970 . S
H1600 C1611 0.930 . S
H1601 C1613 0.930 . S
H1602 C1615 0.930 . S
C1603 H1595 0.930 . S
C1603 C1604 1.382 . S
C1603 C1605 1.426 . S
C1604 C1603 1.382 . S
C1604 C1608 1.389 . S
C1605 C1603 1.426 . S
C1605 C1606 1.375 . S
C1605 C1609 1.532 . S
C1606 H1596 0.930 . S
C1606 C1605 1.375 . S
C1606 C1607 1.416 . S
C1607 C1606 1.416 . S
C1607 C1608 1.371 . S
C1608 H1597 0.930 . S
C1608 C1604 1.389 . S
C1608 C1607 1.371 . S
C1609 H1598 0.970 . S
C1609 H1599 0.970 . S
C1609 C1605 1.532 . S
C1609 C1610 1.499 . S
C1610 C1609 1.499 . S
C1610 C1611 1.370 . S
C1610 C1615 1.415 . S
C1611 H1600 0.930 . S
C1611 C1610 1.370 . S
C1611 C1612 1.407 . S
C1612 C1611 1.407 . S
C1612 C1613 1.365 . S
C1613 H1601 0.930 . S
C1613 C1612 1.365 . S
C1613 C1614 1.393 . S
C1614 C1613 1.393 . S
C1614 C1615 1.387 . S
C1615 H1602 0.930 . S
C1615 C1610 1.415 . S
C1615 C1614 1.387 . S
H1616 C1624 0.930 . S
H1617 C1627 0.930 . S
H1618 C1629 0.930 . S
H1619 C1630 0.970 . S
H1620 C1630 0.970 . S
H1621 C1632 0.930 . S
H1622 C1634 0.930 . S
H1623 C1636 0.930 . S
C1624 H1616 0.930 . S
C1624 C1625 1.382 . S
C1624 C1626 1.426 . S
C1625 C1624 1.382 . S
C1625 C1629 1.389 . S
C1626 C1624 1.426 . S
C1626 C1627 1.375 . S
C1626 C1630 1.532 . S
C1627 H1617 0.930 . S
C1627 C1626 1.375 . S
C1627 C1628 1.416 . S
C1628 C1627 1.416 . S
C1628 C1629 1.371 . S
C1629 H1618 0.930 . S
C1629 C1625 1.389 . S
C1629 C1628 1.371 . S
C1630 H1619 0.970 . S
C1630 H1620 0.970 . S
C1630 C1626 1.532 . S
C1630 C1631 1.499 . S
C1631 C1630 1.499 . S
C1631 C1632 1.370 . S
C1631 C1636 1.415 . S
C1632 H1621 0.930 . S
C1632 C1631 1.370 . S
C1632 C1633 1.407 . S
C1633 C1632 1.407 . S
C1633 C1634 1.365 . S
C1634 H1622 0.930 . S
C1634 C1633 1.365 . S
C1634 C1635 1.393 . S
C1635 C1634 1.393 . S
C1635 C1636 1.387 . S
C1636 H1623 0.930 . S
C1636 C1631 1.415 . S
C1636 C1635 1.387 . S
H1637 C1645 0.930 . S
H1638 C1648 0.930 . S
H1639 C1650 0.930 . S
H1640 C1651 0.970 . S
H1641 C1651 0.970 . S
H1642 C1653 0.930 . S
H1643 C1655 0.930 . S
H1644 C1657 0.930 . S
C1645 H1637 0.930 . S
C1645 C1646 1.382 . S
C1645 C1647 1.426 . S
C1646 C1645 1.382 . S
C1646 C1650 1.389 . S
C1647 C1645 1.426 . S
C1647 C1648 1.375 . S
C1647 C1651 1.532 . S
C1648 H1638 0.930 . S
C1648 C1647 1.375 . S
C1648 C1649 1.416 . S
C1649 C1648 1.416 . S
C1649 C1650 1.371 . S
C1650 H1639 0.930 . S
C1650 C1646 1.389 . S
C1650 C1649 1.371 . S
C1651 H1640 0.970 . S
C1651 H1641 0.970 . S
C1651 C1647 1.532 . S
C1651 C1652 1.499 . S
C1652 C1651 1.499 . S
C1652 C1653 1.370 . S
C1652 C1657 1.415 . S
C1653 H1642 0.930 . S
C1653 C1652 1.370 . S
C1653 C1654 1.407 . S
C1654 C1653 1.407 . S
C1654 C1655 1.365 . S
C1655 H1643 0.930 . S
C1655 C1654 1.365 . S
C1655 C1656 1.393 . S
C1656 C1655 1.393 . S
C1656 C1657 1.387 . S
C1657 H1644 0.930 . S
C1657 C1652 1.415 . S
C1657 C1656 1.387 . S
H1658 C1666 0.930 . S
H1659 C1669 0.930 . S
H1660 C1671 0.930 . S
H1661 C1672 0.970 . S
H1662 C1672 0.970 . S
H1663 C1674 0.930 . S
H1664 C1676 0.930 . S
H1665 C1678 0.930 . S
C1666 H1658 0.930 . S
C1666 C1667 1.382 . S
C1666 C1668 1.426 . S
C1667 C1666 1.382 . S
C1667 C1671 1.389 . S
C1668 C1666 1.426 . S
C1668 C1669 1.375 . S
C1668 C1672 1.532 . S
C1669 H1659 0.930 . S
C1669 C1668 1.375 . S
C1669 C1670 1.416 . S
C1670 C1669 1.416 . S
C1670 C1671 1.371 . S
C1671 H1660 0.930 . S
C1671 C1667 1.389 . S
C1671 C1670 1.371 . S
C1672 H1661 0.970 . S
C1672 H1662 0.970 . S
C1672 C1668 1.532 . S
C1672 C1673 1.499 . S
C1673 C1672 1.499 . S
C1673 C1674 1.370 . S
C1673 C1678 1.415 . S
C1674 H1663 0.930 . S
C1674 C1673 1.370 . S
C1674 C1675 1.407 . S
C1675 C1674 1.407 . S
C1675 C1676 1.365 . S
C1676 H1664 0.930 . S
C1676 C1675 1.365 . S
C1676 C1677 1.393 . S
C1677 C1676 1.393 . S
C1677 C1678 1.387 . S
C1678 H1665 0.930 . S
C1678 C1673 1.415 . S
C1678 C1677 1.387 . S
H1679 C1687 0.930 . S
H1680 C1690 0.930 . S
H1681 C1692 0.930 . S
H1682 C1693 0.970 . S
H1683 C1693 0.970 . S
H1684 C1695 0.930 . S
H1685 C1697 0.930 . S
H1686 C1699 0.930 . S
C1687 H1679 0.930 . S
C1687 C1688 1.382 . S
C1687 C1689 1.426 . S
C1688 C1687 1.382 . S
C1688 C1692 1.389 . S
C1689 C1687 1.426 . S
C1689 C1690 1.375 . S
C1689 C1693 1.532 . S
C1690 H1680 0.930 . S
C1690 C1689 1.375 . S
C1690 C1691 1.416 . S
C1691 C1690 1.416 . S
C1691 C1692 1.371 . S
C1692 H1681 0.930 . S
C1692 C1688 1.389 . S
C1692 C1691 1.371 . S
C1693 H1682 0.970 . S
C1693 H1683 0.970 . S
C1693 C1689 1.532 . S
C1693 C1694 1.499 . S
C1694 C1693 1.499 . S
C1694 C1695 1.370 . S
C1694 C1699 1.415 . S
C1695 H1684 0.930 . S
C1695 C1694 1.370 . S
C1695 C1696 1.407 . S
C1696 C1695 1.407 . S
C1696 C1697 1.365 . S
C1697 H1685 0.930 . S
C1697 C1696 1.365 . S
C1697 C1698 1.393 . S
C1698 C1697 1.393 . S
C1698 C1699 1.387 . S
C1699 H1686 0.930 . S
C1699 C1694 1.415 . S
C1699 C1698 1.387 . S
H1700 C1708 0.930 . S
H1701 C1711 0.930 . S
H1702 C1713 0.930 . S
H1703 C1714 0.970 . S
H1704 C1714 0.970 . S
H1705 C1716 0.930 . S
H1706 C1718 0.930 . S
H1707 C1720 0.930 . S
C1708 H1700 0.930 . S
C1708 C1709 1.382 . S
C1708 C1710 1.426 . S
C1709 C1708 1.382 . S
C1709 C1713 1.389 . S
C1710 C1708 1.426 . S
C1710 C1711 1.375 . S
C1710 C1714 1.532 . S
C1711 H1701 0.930 . S
C1711 C1710 1.375 . S
C1711 C1712 1.416 . S
C1712 C1711 1.416 . S
C1712 C1713 1.371 . S
C1713 H1702 0.930 . S
C1713 C1709 1.389 . S
C1713 C1712 1.371 . S
C1714 H1703 0.970 . S
C1714 H1704 0.970 . S
C1714 C1710 1.532 . S
C1714 C1715 1.499 . S
C1715 C1714 1.499 . S
C1715 C1716 1.370 . S
C1715 C1720 1.415 . S
C1716 H1705 0.930 . S
C1716 C1715 1.370 . S
C1716 C1717 1.407 . S
C1717 C1716 1.407 . S
C1717 C1718 1.365 . S
C1718 H1706 0.930 . S
C1718 C1717 1.365 . S
C1718 C1719 1.393 . S
C1719 C1718 1.393 . S
C1719 C1720 1.387 . S
C1720 H1707 0.930 . S
C1720 C1715 1.415 . S
C1720 C1719 1.387 . S
H1721 C1729 0.930 . S
H1722 C1732 0.930 . S
H1723 C1734 0.930 . S
H1724 C1735 0.970 . S
H1725 C1735 0.970 . S
H1726 C1737 0.930 . S
H1727 C1739 0.930 . S
H1728 C1741 0.930 . S
C1729 H1721 0.930 . S
C1729 C1730 1.382 . S
C1729 C1731 1.426 . S
C1730 C1729 1.382 . S
C1730 C1734 1.389 . S
C1731 C1729 1.426 . S
C1731 C1732 1.375 . S
C1731 C1735 1.532 . S
C1732 H1722 0.930 . S
C1732 C1731 1.375 . S
C1732 C1733 1.416 . S
C1733 C1732 1.416 . S
C1733 C1734 1.371 . S
C1734 H1723 0.930 . S
C1734 C1730 1.389 . S
C1734 C1733 1.371 . S
C1735 H1724 0.970 . S
C1735 H1725 0.970 . S
C1735 C1731 1.532 . S
C1735 C1736 1.499 . S
C1736 C1735 1.499 . S
C1736 C1737 1.370 . S
C1736 C1741 1.415 . S
C1737 H1726 0.930 . S
C1737 C1736 1.370 . S
C1737 C1738 1.407 . S
C1738 C1737 1.407 . S
C1738 C1739 1.365 . S
C1739 H1727 0.930 . S
C1739 C1738 1.365 . S
C1739 C1740 1.393 . S
C1740 C1739 1.393 . S
C1740 C1741 1.387 . S
C1741 H1728 0.930 . S
C1741 C1736 1.415 . S
C1741 C1740 1.387 . S
H1742 C1750 0.930 . S
H1743 C1753 0.930 . S
H1744 C1755 0.930 . S
H1745 C1756 0.970 . S
H1746 C1756 0.970 . S
H1747 C1758 0.930 . S
H1748 C1760 0.930 . S
H1749 C1762 0.930 . S
C1750 H1742 0.930 . S
C1750 C1751 1.382 . S
C1750 C1752 1.426 . S
C1751 C1750 1.382 . S
C1751 C1755 1.389 . S
C1752 C1750 1.426 . S
C1752 C1753 1.375 . S
C1752 C1756 1.532 . S
C1753 H1743 0.930 . S
C1753 C1752 1.375 . S
C1753 C1754 1.416 . S
C1754 C1753 1.416 . S
C1754 C1755 1.371 . S
C1755 H1744 0.930 . S
C1755 C1751 1.389 . S
C1755 C1754 1.371 . S
C1756 H1745 0.970 . S
C1756 H1746 0.970 . S
C1756 C1752 1.532 . S
C1756 C1757 1.499 . S
C1757 C1756 1.499 . S
C1757 C1758 1.370 . S
C1757 C1762 1.415 . S
C1758 H1747 0.930 . S
C1758 C1757 1.370 . S
C1758 C1759 1.407 . S
C1759 C1758 1.407 . S
C1759 C1760 1.365 . S
C1760 H1748 0.930 . S
C1760 C1759 1.365 . S
C1760 C1761 1.393 . S
C1761 C1760 1.393 . S
C1761 C1762 1.387 . S
C1762 H1749 0.930 . S
C1762 C1757 1.415 . S
C1762 C1761 1.387 . S
H1763 C1771 0.930 . S
H1764 C1774 0.930 . S
H1765 C1776 0.930 . S
H1766 C1777 0.970 . S
H1767 C1777 0.970 . S
H1768 C1779 0.930 . S
H1769 C1781 0.930 . S
H1770 C1783 0.930 . S
C1771 H1763 0.930 . S
C1771 C1772 1.382 . S
C1771 C1773 1.426 . S
C1772 C1771 1.382 . S
C1772 C1776 1.389 . S
C1773 C1771 1.426 . S
C1773 C1774 1.375 . S
C1773 C1777 1.532 . S
C1774 H1764 0.930 . S
C1774 C1773 1.375 . S
C1774 C1775 1.416 . S
C1775 C1774 1.416 . S
C1775 C1776 1.371 . S
C1776 H1765 0.930 . S
C1776 C1772 1.389 . S
C1776 C1775 1.371 . S
C1777 H1766 0.970 . S
C1777 H1767 0.970 . S
C1777 C1773 1.532 . S
C1777 C1778 1.499 . S
C1778 C1777 1.499 . S
C1778 C1779 1.370 . S
C1778 C1783 1.415 . S
C1779 H1768 0.930 . S
C1779 C1778 1.370 . S
C1779 C1780 1.407 . S
C1780 C1779 1.407 . S
C1780 C1781 1.365 . S
C1781 H1769 0.930 . S
C1781 C1780 1.365 . S
C1781 C1782 1.393 . S
C1782 C1781 1.393 . S
C1782 C1783 1.387 . S
C1783 H1770 0.930 . S
C1783 C1778 1.415 . S
C1783 C1782 1.387 . S
C1299 C21 1.449 . S
C1310 C42 1.461 . S
C82 C1334 1.347 . S
C1355 C135 1.380 . S
C175 C1362 1.409 . S
C221 C1292 1.348 . S
C255 C1318 1.391 . S
C1341 C301 1.516 . S
C1373 C15 1.437 . S
C55 C1394 1.421 . S
C101 C1418 1.393 . S
C1436 C141 1.495 . S
C162 C1465 1.319 . S
C1486 C215 1.407 . S
C261 C1502 1.474 . S
C1523 C282 1.420 . S
C2 C1444 1.348 . S
C181 C1478 1.382 . S
C1509 C202 1.472 . S
C242 C1530 1.516 . S
C1457 C295 1.399 . S
C1402 C95 1.427 . S
C122 C1425 1.499 . S
C1381 C61 1.454 . S
C1549 C341 1.370 . S
C362 C1565 1.462 . S
C402 C1583 1.438 . S
C1604 C455 1.500 . S
C495 C1612 1.404 . S
C541 C1541 1.469 . S
C575 C1572 1.478 . S
C621 C1591 1.485 . S
C1467 C335 1.436 . S
C375 C1625 1.447 . S
C1499 C421 1.448 . S
C461 C1654 1.454 . S
C482 C1376 1.313 . S
C1670 C535 1.420 . S
C581 C1415 1.484 . S
C1698 C602 1.491 . S
C322 C1646 1.385 . S
C1677 C501 1.387 . S
C522 C1423 1.385 . S
C1691 C562 1.436 . S
C615 C1383 1.424 . S
C415 C1633 1.396 . S
C442 C1507 1.459 . S
C381 C1460 1.470 . S
C661 C1586 1.372 . S
C1607 C682 1.461 . S
C722 C1551 1.436 . S
C775 C1562 1.471 . S
C815 C1570 1.391 . S
C861 C1593 1.449 . S
C1614 C895 1.483 . S
C941 C1544 1.501 . S
C1709 C655 1.432 . S
C695 C1488 1.452 . S
C1730 C741 1.456 . S
C781 C1520 1.484 . S
C802 C1754 1.310 . S
C855 C1397 1.402 . S
C1775 C901 1.451 . S
C922 C1439 1.421 . S
C1528 C642 1.372 . S
C1404 C821 1.399 . S
C842 C1782 1.474 . S
C882 C1446 1.505 . S
C1761 C935 1.430 . S
C1481 C735 1.389 . S
C1738 C762 1.439 . S
C1717 C701 1.471 . S
C981 C1331 1.437 . S
C1002 C1352 1.465 . S
C1297 C1042 1.347 . S
C1313 C1095 1.397 . S
C1320 C1135 1.418 . S
C1339 C1181 1.368 . S
C1360 C1215 1.396 . S
C1261 C1289 1.485 . S
C975 C1751 1.429 . S
C1667 C1015 1.423 . S
C1772 C1061 1.453 . S
C1696 C1101 1.458 . S
C1122 C1712 1.306 . S
C1628 C1175 1.401 . S
C1733 C1221 1.481 . S
C1242 C1656 1.482 . S
C1688 C962 1.379 . S
C1635 C1141 1.390 . S
C1740 C1162 1.470 . S
C1202 C1649 1.461 . S
C1255 C1719 1.409 . S
C1055 C1675 1.414 . S
C1082 C1780 1.459 . S
C1759 C1021 1.456 . S
