# Generated by pormake.
# Topology pyr, (3,6)-cn, num edge types: 1
# Building blocks:
#     Node 0, Type 0, BuildingBlock: BETDAH_clean_linker_0, # of connection points: 3
#     Node 1, Type 0, BuildingBlock: BETDAH_clean_linker_0, # of connection points: 3
#     Node 2, Type 0, BuildingBlock: BETDAH_clean_linker_0, # of connection points: 3
#     Node 3, Type 0, BuildingBlock: BETDAH_clean_linker_0, # of connection points: 3
#     Node 4, Type 0, BuildingBlock: BETDAH_clean_linker_0, # of connection points: 3
#     Node 5, Type 0, BuildingBlock: BETDAH_clean_linker_0, # of connection points: 3
#     Node 6, Type 0, BuildingBlock: BETDAH_clean_linker_0, # of connection points: 3
#     Node 7, Type 0, BuildingBlock: BETDAH_clean_linker_0, # of connection points: 3
#     Node 8, Type 1, BuildingBlock: PAMTOO_clean_sbu_0, # of connection points: 6
#     Node 9, Type 1, BuildingBlock: PAMTOO_clean_sbu_0, # of connection points: 6
#     Node 10, Type 1, BuildingBlock: PAMTOO_clean_sbu_0, # of connection points: 6
#     Node 11, Type 1, BuildingBlock: PAMTOO_clean_sbu_0, # of connection points: 6
#     Edge 12, Type (0, 1), BuildingBlock: MIFKUJ_clean_linker_0, # of connection points: 2
#     Edge 13, Type (0, 1), BuildingBlock: MIFKUJ_clean_linker_0, # of connection points: 2
#     Edge 14, Type (0, 1), BuildingBlock: MIFKUJ_clean_linker_0, # of connection points: 2
#     Edge 15, Type (0, 1), BuildingBlock: MIFKUJ_clean_linker_0, # of connection points: 2
#     Edge 16, Type (0, 1), BuildingBlock: MIFKUJ_clean_linker_0, # of connection points: 2
#     Edge 17, Type (0, 1), BuildingBlock: MIFKUJ_clean_linker_0, # of connection points: 2
#     Edge 18, Type (0, 1), BuildingBlock: MIFKUJ_clean_linker_0, # of connection points: 2
#     Edge 19, Type (0, 1), BuildingBlock: MIFKUJ_clean_linker_0, # of connection points: 2
#     Edge 20, Type (0, 1), BuildingBlock: MIFKUJ_clean_linker_0, # of connection points: 2
#     Edge 21, Type (0, 1), BuildingBlock: MIFKUJ_clean_linker_0, # of connection points: 2
#     Edge 22, Type (0, 1), BuildingBlock: MIFKUJ_clean_linker_0, # of connection points: 2
#     Edge 23, Type (0, 1), BuildingBlock: MIFKUJ_clean_linker_0, # of connection points: 2
#     Edge 24, Type (0, 1), BuildingBlock: MIFKUJ_clean_linker_0, # of connection points: 2
#     Edge 25, Type (0, 1), BuildingBlock: MIFKUJ_clean_linker_0, # of connection points: 2
#     Edge 26, Type (0, 1), BuildingBlock: MIFKUJ_clean_linker_0, # of connection points: 2
#     Edge 27, Type (0, 1), BuildingBlock: MIFKUJ_clean_linker_0, # of connection points: 2
#     Edge 28, Type (0, 1), BuildingBlock: MIFKUJ_clean_linker_0, # of connection points: 2
#     Edge 29, Type (0, 1), BuildingBlock: MIFKUJ_clean_linker_0, # of connection points: 2
#     Edge 30, Type (0, 1), BuildingBlock: MIFKUJ_clean_linker_0, # of connection points: 2
#     Edge 31, Type (0, 1), BuildingBlock: MIFKUJ_clean_linker_0, # of connection points: 2
#     Edge 32, Type (0, 1), BuildingBlock: MIFKUJ_clean_linker_0, # of connection points: 2
#     Edge 33, Type (0, 1), BuildingBlock: MIFKUJ_clean_linker_0, # of connection points: 2
#     Edge 34, Type (0, 1), BuildingBlock: MIFKUJ_clean_linker_0, # of connection points: 2
#     Edge 35, Type (0, 1), BuildingBlock: MIFKUJ_clean_linker_0, # of connection points: 2
# Relax obj value: 0.094
# Max RMSD: 0.187
# Mean RMSD: 0.126
data_MOF--net-pyr--node1-PAMTOO_clean_sbu_0--node2-BETDAH_clean_linker_0--edge1-MIFKUJ_clean_linker_0
_symmetry_space_group_name_H-M    P1
_symmetry_Int_Tables_number       1
_symmetry_cell_setting            triclinic
loop_
_symmetry_equiv_pos_as_xyz
'x, y, z'
_cell_length_a     46.74292
_cell_length_b     50.454352
_cell_length_c     52.890151
_cell_angle_alpha  90.385358
_cell_angle_beta   90.640968
_cell_angle_gamma 107.78099
loop_
_atom_site_label
_atom_site_type_symbol
_atom_site_fract_x
_atom_site_fract_y
_atom_site_fract_z
_atom_type_partial_charge
H0 H 0.31778 0.2187 0.22793 0.0
H1 H 0.366 0.2852 0.17973 0.0
H2 H 0.29418 0.2948 0.22527 0.0
C3 C 0.32103 0.23935 0.22044 0.0
C4 C 0.30341 0.25559 0.22916 0.0
C5 C 0.34361 0.24987 0.20266 0.0
C6 C 0.34878 0.27697 0.19364 0.0
C7 C 0.3306 0.29296 0.20125 0.0
C8 C 0.30802 0.28229 0.21912 0.0
N9 N 0.33516 0.3195 0.19032 0.0
C10 C 0.31179 0.33067 0.18637 0.0
H11 H 0.26988 0.79726 0.72947 0.0
H12 H 0.18809 0.81974 0.72878 0.0
H13 H 0.20077 0.76094 0.6742 0.0
C14 C 0.24809 0.79563 0.72119 0.0
C15 C 0.23788 0.77794 0.70026 0.0
C16 C 0.23035 0.81076 0.73178 0.0
C17 C 0.20189 0.80794 0.72107 0.0
C18 C 0.19117 0.78975 0.7004 0.0
C19 C 0.20897 0.77448 0.69043 0.0
N20 N 0.16275 0.7867 0.68903 0.0
C21 C 0.15129 0.80888 0.68632 0.0
H22 H 0.68963 0.38304 0.91028 0.0
H23 H 0.68808 0.43129 0.8437 0.0
H24 H 0.62232 0.3511 0.85223 0.0
C25 C 0.67938 0.38509 0.89222 0.0
C26 C 0.65435 0.36354 0.88323 0.0
C27 C 0.69193 0.40933 0.87808 0.0
C28 C 0.67854 0.41271 0.85468 0.0
C29 C 0.65275 0.39179 0.84573 0.0
C30 C 0.64135 0.36739 0.85991 0.0
N31 N 0.63742 0.39346 0.82255 0.0
C32 C 0.64236 0.41522 0.80526 0.0
H33 H 0.83999 0.7256 0.39892 0.0
H34 H 0.91968 0.73501 0.35574 0.0
H35 H 0.84619 0.65913 0.34975 0.0
C36 C 0.85193 0.71784 0.38464 0.0
C37 C 0.83888 0.6908 0.37463 0.0
C38 C 0.88088 0.73429 0.37793 0.0
C39 C 0.89704 0.72306 0.36077 0.0
C40 C 0.88453 0.69631 0.35004 0.0
C41 C 0.85539 0.68015 0.35709 0.0
N42 N 0.90384 0.68468 0.33609 0.0
C43 C 0.89873 0.67262 0.31189 0.0
H44 H 0.77701 0.79709 0.85376 0.0
H45 H 0.71003 0.76839 0.91074 0.0
H46 H 0.70388 0.83189 0.85913 0.0
C47 C 0.75654 0.79785 0.86272 0.0
C48 C 0.74165 0.81632 0.85367 0.0
C49 C 0.74562 0.7807 0.88347 0.0
C50 C 0.71896 0.78166 0.89484 0.0
C51 C 0.70402 0.80018 0.88634 0.0
C52 C 0.7154 0.81754 0.86574 0.0
N53 N 0.67761 0.80078 0.89897 0.0
C54 C 0.66822 0.82433 0.90072 0.0
H55 H 0.834 0.23013 0.36478 0.0
H56 H 0.8765 0.29603 0.41736 0.0
H57 H 0.80526 0.30339 0.36847 0.0
C58 C 0.83576 0.25032 0.373 0.0
C59 C 0.81714 0.26552 0.36402 0.0
C60 C 0.85708 0.26104 0.39228 0.0
C61 C 0.86033 0.28764 0.40226 0.0
C62 C 0.8414 0.30277 0.39409 0.0
C63 C 0.81988 0.2917 0.37488 0.0
N64 N 0.84395 0.32869 0.40598 0.0
C65 C 0.8198 0.33914 0.40802 0.0
H66 H 0.34966 0.73182 0.18262 0.0
H67 H 0.35101 0.67655 0.24425 0.0
H68 H 0.4163 0.75803 0.24161 0.0
C69 C 0.35958 0.72761 0.20017 0.0
C70 C 0.38438 0.74819 0.21055 0.0
C71 C 0.34737 0.70164 0.21186 0.0
C72 C 0.36023 0.69634 0.23497 0.0
C73 C 0.38547 0.71676 0.24563 0.0
C74 C 0.39719 0.74236 0.23321 0.0
N75 N 0.40014 0.71323 0.26867 0.0
C76 C 0.39449 0.69018 0.28458 0.0
H77 H 0.19687 0.36676 0.6866 0.0
H78 H 0.19405 0.42541 0.74557 0.0
H79 H 0.11916 0.35145 0.73329 0.0
C80 C 0.18518 0.37294 0.70202 0.0
C81 C 0.15642 0.35574 0.70824 0.0
C82 C 0.19918 0.39809 0.71513 0.0
C83 C 0.18376 0.40612 0.73536 0.0
C84 C 0.15487 0.38888 0.74214 0.0
C85 C 0.14159 0.3641 0.72836 0.0
N86 N 0.13734 0.39543 0.76185 0.0
C87 C 0.14554 0.41571 0.78103 0.0
Dy88 Dy 0.04889 0.05259 0.52662 0.0
Dy89 Dy 0.98612 0.0377 0.55928 0.0
C90 C 0.0396 0.09527 0.56805 0.0
O91 O 0.05828 0.03523 0.56354 0.0
O92 O 0.01035 0.00879 0.57303 0.0
O93 O 0.09655 0.07311 0.5228 0.0
O94 O 0.07156 0.04538 0.49324 0.0
O95 O 0.97651 0.00679 0.52712 0.0
O96 O 0.02478 0.00732 0.51949 0.0
O97 O 0.98317 0.07063 0.5327 0.0
O98 O 0.01734 0.06747 0.50263 0.0
O99 O 0.93754 0.02296 0.56177 0.0
O100 O 0.96505 0.0383 0.59513 0.0
C101 C 0.03956 0.01476 0.5759 0.0
O102 O 0.04998 0.09279 0.54547 0.0
O103 O 0.01945 0.07426 0.57857 0.0
C104 C 0.11195 0.08298 0.48049 0.0
C105 C 0.13728 0.11782 0.43991 0.0
C106 C 0.1167 0.12464 0.45596 0.0
C107 C 0.10396 0.10722 0.47604 0.0
C108 C 0.13292 0.07649 0.46489 0.0
C109 C 0.14547 0.09372 0.44477 0.0
C110 C 0.09716 0.06317 0.50003 0.0
C111 C 0.99565 0.99548 0.51703 0.0
C112 C 0.99498 0.07605 0.51023 0.0
C113 C 0.9186 0.00432 0.60134 0.0
C114 C 0.88394 0.96577 0.63587 0.0
C115 C 0.91134 0.96323 0.62713 0.0
C116 C 0.92856 0.98237 0.60998 0.0
C117 C 0.89077 0.00623 0.60913 0.0
C118 C 0.87354 0.98712 0.62622 0.0
C119 C 0.93797 0.02681 0.58618 0.0
H120 H 0.10983 0.14296 0.45254 0.0
H121 H 0.08749 0.11236 0.48776 0.0
H122 H 0.1392 0.05778 0.46801 0.0
H123 H 0.16156 0.08815 0.43295 0.0
H124 H 0.91976 0.9468 0.63397 0.0
H125 H 0.95003 0.98059 0.60409 0.0
H126 H 0.88287 0.02316 0.60272 0.0
H127 H 0.85276 0.98989 0.63277 0.0
Dy128 Dy 0.48958 0.0441 0.02369 0.0
Dy129 Dy 0.55023 0.0607 0.06065 0.0
C130 C 0.49782 1.0029 0.06718 0.0
O131 O 0.48328 0.0761 0.0503 0.0
O132 O 0.51584 0.07338 0.08249 0.0
O133 O 0.44141 0.02774 0.01757 0.0
O134 O 0.4709 0.04443 0.98638 0.0
O135 O 0.55176 0.10068 0.04179 0.0
O136 O 0.52177 0.08254 1.00732 0.0
O137 O 0.563 0.04415 0.02463 0.0
O138 O 0.51644 0.01669 0.01136 0.0
O139 O 0.5972 0.08303 0.06789 0.0
O140 O 0.57147 0.05383 0.09522 0.0
C141 C 0.4934 0.0813 0.07363 0.0
O142 O 0.47887 0.01342 0.05546 0.0
O143 O 0.52696 0.01522 0.06638 0.0
C144 C 0.42528 0.00957 0.97602 0.0
C145 C 0.38798 0.97046 0.94181 0.0
C146 C 0.38377 0.96728 0.96805 0.0
C147 C 0.40225 0.98667 0.98501 0.0
C148 C 0.42946 0.01261 0.94982 0.0
C149 C 0.41113 0.99328 0.93295 0.0
C150 C 0.44346 0.03173 0.99322 0.0
C151 C 0.54159 0.10339 0.01901 0.0
C152 C 0.54588 0.02353 0.01079 0.0
C153 C 0.60975 0.09312 0.11141 0.0
C154 C 0.63789 0.12852 0.15198 0.0
C155 C 0.65076 0.13201 0.12786 0.0
C156 C 0.6369 0.11437 0.10781 0.0
C157 C 0.59641 0.09023 0.13536 0.0
C158 C 0.61036 0.10772 0.15541 0.0
C159 C 0.59665 0.07312 0.09066 0.0
H160 H 0.3662 0.94982 0.97544 0.0
H161 H 0.39821 0.98392 1.00509 0.0
H162 H 0.44658 0.03032 0.94227 0.0
H163 H 0.41462 0.99666 0.91287 0.0
H164 H 0.67213 0.14769 0.12474 0.0
H165 H 0.64778 0.11694 0.08961 0.0
H166 H 0.57549 0.0741 0.13884 0.0
H167 H 0.59978 0.10473 0.17374 0.0
Dy168 Dy 0.51144 0.51787 0.52928 0.0
Dy169 Dy 0.52148 0.57857 0.55644 0.0
C170 C 0.54543 0.53245 0.5835 0.0
O171 O 0.46656 0.51349 0.5467 0.0
O172 O 0.48045 0.55061 0.57459 0.0
O173 O 0.5057 0.47371 0.53056 0.0
O174 O 0.50605 0.49375 0.49464 0.0
O175 O 0.48618 0.57524 0.52635 0.0
O176 O 0.50065 0.54585 0.50013 0.0
O177 O 0.55733 0.58522 0.52717 0.0
O178 O 0.56029 0.54087 0.52412 0.0
O179 O 0.52906 0.62283 0.55331 0.0
O180 O 0.52617 0.60398 0.59018 0.0
C181 C 0.46108 0.52729 0.56638 0.0
O182 O 0.52723 0.51343 0.56878 0.0
O183 O 0.55106 0.55915 0.57881 0.0
C184 C 0.52951 0.45837 0.49636 0.0
C185 C 0.574 0.43645 0.47745 0.0
C186 C 0.56775 0.43544 0.50342 0.0
C187 C 0.54577 0.4463 0.51279 0.0
C188 C 0.53521 0.45868 0.47031 0.0
C189 C 0.55732 0.44798 0.46097 0.0
C190 C 0.50736 0.4714 0.50612 0.0
C191 C 0.48696 0.56474 0.50368 0.0
C192 C 0.57136 0.56765 0.51969 0.0
C193 C 0.50332 0.63883 0.58492 0.0
C194 C 0.45777 0.66042 0.6015 0.0
C195 C 0.45155 0.63923 0.58297 0.0
C196 C 0.47408 0.62845 0.57486 0.0
C197 C 0.50982 0.66015 0.60315 0.0
C198 C 0.48722 0.67091 0.61139 0.0
C199 C 0.52634 0.6261 0.57755 0.0
H200 H 0.58039 0.42686 0.51661 0.0
H201 H 0.5419 0.44561 0.53296 0.0
H202 H 0.52283 0.46758 0.45715 0.0
H203 H 0.56134 0.44869 0.44082 0.0
H204 H 0.42927 0.63096 0.57469 0.0
H205 H 0.46859 0.61177 0.56091 0.0
H206 H 0.5322 0.66814 0.61132 0.0
H207 H 0.49266 0.68696 0.62592 0.0
Dy208 Dy 0.02772 0.58053 0.02916 0.0
Dy209 Dy 0.01552 0.52045 0.05581 0.0
C210 C 0.99308 0.56751 0.08198 0.0
O211 O 0.07279 0.5818 0.04539 0.0
O212 O 0.05531 0.54937 0.07616 0.0
O213 O 0.03858 0.62536 0.03089 0.0
O214 O 0.03016 0.60392 0.9948 0.0
O215 O 0.05058 0.52188 0.0265 0.0
O216 O 0.03763 0.55196 1.00007 0.0
O217 O 0.98064 0.51442 0.02496 0.0
O218 O 0.97827 0.55897 0.02395 0.0
O219 O 0.00704 0.47593 0.05327 0.0
O220 O 0.00922 0.49595 0.08981 0.0
C221 C 0.07667 0.57029 0.06689 0.0
O222 O 0.01332 0.58585 0.06877 0.0
O223 O 0.98536 0.54087 0.07593 0.0
C224 C 0.01206 0.64192 0.99968 0.0
C225 C 0.96794 0.66531 0.98253 0.0
C226 C 0.9628 0.6481 1.00386 0.0
C227 C 0.98462 0.63638 0.01228 0.0
C228 C 0.01755 0.65953 0.97875 0.0
C229 C 0.99565 0.67114 0.9702 0.0
C230 C 0.0337 0.62734 1.00677 0.0
C231 C 0.05047 0.53248 1.00385 0.0
C232 C 0.96682 0.53243 0.01825 0.0
C233 C 0.02984 0.45875 0.08728 0.0
C234 C 0.07258 0.43447 0.10637 0.0
C235 C 0.06826 0.43617 0.08016 0.0
C236 C 0.04717 0.44824 0.07069 0.0
C237 C 0.03358 0.45633 0.11347 0.0
C238 C 0.05484 0.44447 0.12293 0.0
C239 C 0.00884 0.47326 0.0777 0.0
H240 H 0.94153 0.64295 0.01353 0.0
H241 H 0.97977 0.62242 0.02824 0.0
H242 H 0.03851 0.66379 0.96867 0.0
H243 H 1.00031 0.68451 0.95385 0.0
H244 H 0.08179 0.42886 0.06695 0.0
H245 H 0.04491 0.44977 0.0504 0.0
H246 H 0.02038 0.46408 0.12667 0.0
H247 H 0.05743 0.44312 0.14321 0.0
H248 H 0.29219 0.28388 0.27033 0.0
H249 H 0.2587 0.26511 0.30545 0.0
H250 H 0.23141 0.18423 0.26923 0.0
H251 H 0.26404 0.20307 0.23364 0.0
H252 H 0.18422 0.1952 0.29136 0.0
H253 H 0.28594 0.20015 0.31458 0.0
H254 H 0.34009 0.2237 0.32129 0.0
H255 H 0.32019 0.2789 0.37571 0.0
H256 H 0.26587 0.2559 0.36904 0.0
H257 H 0.14268 0.10036 0.39184 0.0
H258 H 0.16586 0.12861 0.35587 0.0
H259 H 0.18315 0.20299 0.40176 0.0
H260 H 0.16023 0.17466 0.43808 0.0
H261 H 0.23281 0.20064 0.37596 0.0
H262 H 0.13034 0.19073 0.35633 0.0
H263 H 0.0765 0.16585 0.34969 0.0
H264 H 0.09769 0.11872 0.28874 0.0
H265 H 0.15172 0.14303 0.29524 0.0
C266 C 0.27859 0.26224 0.26958 0.0
C267 C 0.28101 0.24489 0.2493 0.0
C268 C 0.25964 0.25149 0.28977 0.0
C269 C 0.24292 0.22317 0.29014 0.0
C270 C 0.24421 0.20612 0.26939 0.0
C271 C 0.26309 0.21685 0.24918 0.0
C272 C 0.22551 0.21083 0.31275 0.0
C273 C 0.19484 0.19625 0.30984 0.0
C274 C 0.23923 0.21278 0.33698 0.0
C275 C 0.27186 0.22653 0.34109 0.0
C276 C 0.29312 0.21745 0.32783 0.0
C277 C 0.32383 0.23067 0.33164 0.0
C278 C 0.33358 0.25284 0.34886 0.0
C279 C 0.31261 0.26177 0.36234 0.0
C280 C 0.28186 0.24864 0.35856 0.0
C281 C 0.15139 0.12274 0.39427 0.0
C282 C 0.14981 0.1353 0.41781 0.0
C283 C 0.16436 0.13888 0.37364 0.0
C284 C 0.17599 0.16792 0.37608 0.0
C285 C 0.17417 0.18061 0.39947 0.0
C286 C 0.16097 0.16445 0.42013 0.0
C287 C 0.19158 0.18465 0.35452 0.0
C288 C 0.222 0.19998 0.3576 0.0
C289 C 0.17763 0.18324 0.33045 0.0
C290 C 0.14513 0.16859 0.32641 0.0
C291 C 0.12355 0.17491 0.34164 0.0
C292 C 0.09299 0.16093 0.33788 0.0
C293 C 0.08369 0.14068 0.31884 0.0
C294 C 0.10493 0.13441 0.30349 0.0
C295 C 0.13553 0.14831 0.30718 0.0
H296 H 0.06001 0.12989 0.31595 0.0
H297 H 0.35737 0.26304 0.35179 0.0
H298 H 0.19958 0.81767 0.77408 0.0
H299 H 0.22064 0.84381 0.81281 0.0
H300 H 0.30822 0.87026 0.77906 0.0
H301 H 0.28735 0.84524 0.74017 0.0
H302 H 0.30489 0.84322 0.82747 0.0
H303 H 0.27424 0.91557 0.785 0.0
H304 H 0.23687 0.93439 0.76476 0.0
H305 H 0.18613 0.92211 0.8332 0.0
H306 H 0.22298 0.9028 0.85373 0.0
H307 H 0.40424 0.94872 0.89894 0.0
H308 H 0.3715 0.91951 0.86681 0.0
H309 H 0.29385 0.91751 0.91101 0.0
H310 H 0.32664 0.94776 0.94301 0.0
H311 H 0.28458 0.92719 0.86221 0.0
H312 H 0.31674 0.85999 0.90665 0.0
H313 H 0.35222 0.83951 0.92768 0.0
H314 H 0.39722 0.83922 0.8574 0.0
H315 H 0.36229 0.86009 0.836 0.0
C316 C 0.22317 0.82957 0.77472 0.0
C317 C 0.24188 0.82905 0.75416 0.0
C318 C 0.23517 0.84433 0.79689 0.0
C319 C 0.266 0.85864 0.79879 0.0
C320 C 0.28442 0.85903 0.77801 0.0
C321 C 0.27246 0.84463 0.75585 0.0
C322 C 0.27974 0.8722 0.82273 0.0
C323 C 0.30061 0.86167 0.83505 0.0
C324 C 0.2731 0.89551 0.83306 0.0
C325 C 0.25115 0.9074 0.8208 0.0
C326 C 0.25496 0.91663 0.79566 0.0
C327 C 0.23391 0.92744 0.78415 0.0
C328 C 0.20908 0.92935 0.79766 0.0
C329 C 0.20533 0.92056 0.82274 0.0
C330 C 0.2263 0.90969 0.83433 0.0
C331 C 0.3802 0.9421 0.90186 0.0
C332 C 0.36804 0.95063 0.92349 0.0
C333 C 0.3615 0.92518 0.88357 0.0
C334 C 0.33022 0.91607 0.88661 0.0
C335 C 0.31794 0.92423 0.90833 0.0
C336 C 0.3367 0.94128 0.92669 0.0
C337 C 0.31065 0.8988 0.86653 0.0
C338 C 0.28858 0.90849 0.85496 0.0
C339 C 0.3159 0.87444 0.857 0.0
C340 C 0.33697 0.86178 0.86975 0.0
C341 C 0.33433 0.85575 0.89571 0.0
C342 C 0.35433 0.84404 0.90769 0.0
C343 C 0.37699 0.83811 0.8939 0.0
C344 C 0.37966 0.84383 0.86807 0.0
C345 C 0.35973 0.85556 0.85599 0.0
H346 H 0.39245 0.82904 0.90321 0.0
H347 H 0.19279 0.9377 0.78871 0.0
H348 H 0.65188 0.47154 0.80071 0.0
H349 H 0.64039 0.49559 0.76331 0.0
H350 H 0.6113 0.41727 0.72264 0.0
H351 H 0.62369 0.39374 0.7595 0.0
H352 H 0.6393 0.45393 0.69142 0.0
H353 H 0.56155 0.4509 0.75143 0.0
H354 H 0.54104 0.45994 0.79224 0.0
H355 H 0.581 0.54791 0.78256 0.0
H356 H 0.60205 0.53936 0.74181 0.0
H357 H 0.54323 0.47926 0.59629 0.0
H358 H 0.56389 0.46355 0.63385 0.0
H359 H 0.59928 0.54837 0.66046 0.0
H360 H 0.57843 0.56436 0.62276 0.0
H361 H 0.5725 0.51328 0.69886 0.0
H362 H 0.64593 0.51483 0.63589 0.0
H363 H 0.66356 0.5041 0.59442 0.0
H364 H 0.62884 0.41662 0.60933 0.0
H365 H 0.61063 0.42682 0.65076 0.0
C366 C 0.64351 0.45968 0.78359 0.0
C367 C 0.63894 0.43085 0.78287 0.0
C368 C 0.6366 0.47334 0.76225 0.0
C369 C 0.62444 0.45832 0.73996 0.0
C370 C 0.62064 0.42956 0.73933 0.0
C371 C 0.62777 0.41606 0.76047 0.0
C372 C 0.61509 0.47198 0.71738 0.0
C373 C 0.62449 0.46671 0.69317 0.0
C374 C 0.59625 0.4893 0.71928 0.0
C375 C 0.58366 0.49447 0.74374 0.0
C376 C 0.56614 0.47216 0.75811 0.0
C377 C 0.55439 0.47719 0.7812 0.0
C378 C 0.5598 0.50448 0.79003 0.0
C379 C 0.57689 0.52679 0.77573 0.0
C380 C 0.58872 0.52186 0.75263 0.0
C381 C 0.5555 0.49472 0.61 0.0
C382 C 0.5592 0.5232 0.60624 0.0
C383 C 0.56744 0.48564 0.63155 0.0
C384 C 0.58352 0.50471 0.65006 0.0
C385 C 0.58708 0.53316 0.64652 0.0
C386 C 0.57524 0.54231 0.62482 0.0
C387 C 0.59631 0.49474 0.67304 0.0
C388 C 0.58755 0.50071 0.69723 0.0
C389 C 0.61546 0.47779 0.67114 0.0
C390 C 0.62673 0.4716 0.64636 0.0
C391 C 0.6419 0.4933 0.63026 0.0
C392 C 0.65201 0.48731 0.60677 0.0
C393 C 0.64727 0.45969 0.59922 0.0
C394 C 0.63248 0.438 0.61519 0.0
C395 C 0.6223 0.44388 0.6387 0.0
H396 H 0.6551 0.4551 0.58101 0.0
H397 H 0.55068 0.50833 0.80791 0.0
H398 H 0.93739 0.69923 0.27641 0.0
H399 H 0.9492 0.68025 0.23654 0.0
H400 H 0.88104 0.60238 0.25091 0.0
H401 H 0.86982 0.62136 0.29136 0.0
H402 H 0.92937 0.59193 0.23474 0.0
H403 H 0.87325 0.65041 0.20382 0.0
H404 H 0.85996 0.69387 0.19946 0.0
H405 H 0.94749 0.73511 0.17027 0.0
H406 H 0.96145 0.69199 0.17476 0.0
H407 H 0.94656 0.53762 0.11214 0.0
H408 H 0.92606 0.55397 0.14952 0.0
H409 H 0.98957 0.6357 0.14102 0.0
H410 H 0.00938 0.61977 0.10335 0.0
H411 H 0.93918 0.64213 0.15347 0.0
H412 H 0.99672 0.58545 0.18701 0.0
H413 H 0.01108 0.54256 0.19171 0.0
H414 H 0.92205 0.49863 0.21623 0.0
H415 H 0.90705 0.54118 0.21136 0.0
C416 C 0.92452 0.67823 0.2708 0.0
C417 C 0.90231 0.66195 0.28674 0.0
C418 C 0.93126 0.66734 0.24792 0.0
C419 C 0.91577 0.63987 0.24019 0.0
C420 C 0.89331 0.62363 0.25616 0.0
C421 C 0.88668 0.63454 0.27921 0.0
C422 C 0.92397 0.62795 0.21608 0.0
C423 C 0.93095 0.60273 0.21689 0.0
C424 C 0.92687 0.6421 0.19269 0.0
C425 C 0.91846 0.66801 0.18981 0.0
C426 C 0.88972 0.6688 0.19662 0.0
C427 C 0.88206 0.69336 0.1941 0.0
C428 C 0.90288 0.71725 0.18464 0.0
C429 C 0.93139 0.7166 0.17761 0.0
C430 C 0.93917 0.69209 0.1801 0.0
C431 C 0.95612 0.5591 0.11817 0.0
C432 C 0.97976 0.57727 0.10458 0.0
C433 C 0.94447 0.56844 0.13976 0.0
C434 C 0.95644 0.59611 0.14864 0.0
C435 C 0.97975 0.6143 0.13481 0.0
C436 C 0.99118 0.60507 0.11316 0.0
C437 C 0.94496 0.6063 0.17218 0.0
C438 C 0.93738 0.63122 0.17127 0.0
C439 C 0.94165 0.59194 0.1955 0.0
C440 C 0.95068 0.56641 0.19857 0.0
C441 C 0.98015 0.56659 0.19325 0.0
C442 C 0.98842 0.54235 0.19596 0.0
C443 C 0.96747 0.51787 0.20419 0.0
C444 C 0.93823 0.51759 0.20981 0.0
C445 C 0.92985 0.54177 0.20709 0.0
H446 H 0.9739 0.49912 0.20628 0.0
H447 H 0.89691 0.73625 0.18272 0.0
H448 H 0.32138 0.1989 0.18067 0.0
H449 H 0.34945 0.17 0.16235 0.0
H450 H 0.43285 0.23147 0.18455 0.0
H451 H 0.40456 0.26111 0.20169 0.0
H452 H 0.43926 0.21483 0.1404 0.0
H453 H 0.40274 0.16627 0.21579 0.0
H454 H 0.36567 0.14364 0.24793 0.0
H455 H 0.31704 0.08328 0.19284 0.0
H456 H 0.35358 0.10579 0.16025 0.0
H457 H 0.51908 0.1154 0.11347 0.0
H458 H 0.496 0.14384 0.13927 0.0
H459 H 0.41282 0.11089 0.09744 0.0
H460 H 0.43588 0.08308 0.07115 0.0
H461 H 0.41101 0.11317 0.15549 0.0
H462 H 0.44772 0.16756 0.07974 0.0
H463 H 0.48767 0.19008 0.04979 0.0
H464 H 0.54008 0.23954 0.11025 0.0
H465 H 0.5006 0.21694 0.14064 0.0
C466 C 0.3457 0.20608 0.18176 0.0
C467 C 0.36089 0.23206 0.19268 0.0
C468 C 0.36176 0.1895 0.17145 0.0
C469 C 0.39335 0.19819 0.17254 0.0
C470 C 0.40853 0.22422 0.18354 0.0
C471 C 0.39242 0.24111 0.19336 0.0
C472 C 0.41037 0.18056 0.16127 0.0
C473 C 0.43337 0.19272 0.14417 0.0
C474 C 0.40278 0.1516 0.16595 0.0
C475 C 0.38081 0.13786 0.18552 0.0
C476 C 0.38404 0.14828 0.21048 0.0
C477 C 0.36313 0.13546 0.22879 0.0
C478 C 0.33899 0.11207 0.22242 0.0
C479 C 0.33575 0.10141 0.19774 0.0
C480 C 0.35657 0.11417 0.17935 0.0
C481 C 0.49581 0.1141 0.10993 0.0
C482 C 0.47927 0.09716 0.09026 0.0
C483 C 0.48273 0.13033 0.12462 0.0
C484 C 0.45278 0.12936 0.12017 0.0
C485 C 0.43596 0.1118 0.10112 0.0
C486 C 0.44919 0.09608 0.08607 0.0
C487 C 0.43919 0.1475 0.1346 0.0
C488 C 0.41695 0.13539 0.15219 0.0
C489 C 0.44787 0.17653 0.1308 0.0
C490 C 0.4714 0.19032 0.11249 0.0
C491 C 0.46789 0.18303 0.08668 0.0
C492 C 0.49042 0.19585 0.06962 0.0
C493 C 0.51645 0.21616 0.07812 0.0
C494 C 0.51994 0.22376 0.1037 0.0
C495 C 0.49749 0.21097 0.12084 0.0
H496 H 0.53386 0.22606 0.06488 0.0
H497 H 0.32282 0.10218 0.23662 0.0
H498 H 0.18395 0.85986 0.67168 0.0
H499 H 0.16466 0.89746 0.65752 0.0
H500 H 0.07433 0.8467 0.67392 0.0
H501 H 0.09373 0.80894 0.68766 0.0
H502 H 0.07751 0.86803 0.62765 0.0
H503 H 0.11111 0.90376 0.71073 0.0
H504 H 0.14754 0.91816 0.7461 0.0
H505 H 0.20604 0.9805 0.69955 0.0
H506 H 0.17018 0.9662 0.66376 0.0
H507 H 0.00778 0.97065 0.60417 0.0
H508 H 0.02714 0.93819 0.62763 0.0
H509 H 0.11763 0.98509 0.60791 0.0
H510 H 0.09852 0.01794 0.58447 0.0
H511 H 0.11371 0.96631 0.65737 0.0
H512 H 0.08258 0.92952 0.57417 0.0
H513 H 0.04732 0.91544 0.53798 0.0
H514 H 0.98561 0.85501 0.58404 0.0
H515 H 0.02028 0.86911 0.62066 0.0
C516 C 0.16005 0.85705 0.67259 0.0
C517 C 0.14019 0.83187 0.68079 0.0
C518 C 0.14905 0.87849 0.6646 0.0
C519 C 0.11805 0.87499 0.66487 0.0
C520 C 0.09831 0.84986 0.67361 0.0
C521 C 0.10934 0.82841 0.68154 0.0
C522 C 0.10608 0.89678 0.65447 0.0
C523 C 0.08502 0.8894 0.6345 0.0
C524 C 0.11659 0.92486 0.66286 0.0
C525 C 0.13804 0.93373 0.68448 0.0
C526 C 0.13183 0.92041 0.70797 0.0
C527 C 0.15237 0.92857 0.72811 0.0
C528 C 0.17912 0.95018 0.72506 0.0
C529 C 0.18533 0.96374 0.70188 0.0
C530 C 0.16488 0.95564 0.68167 0.0
C531 C 0.03184 0.97431 0.60498 0.0
C532 C 0.05158 0.99675 0.59216 0.0
C533 C 0.04285 0.95569 0.61842 0.0
C534 C 0.07377 0.95904 0.6192 0.0
C535 C 0.09368 0.98213 0.60748 0.0
C536 C 0.08269 1.00081 0.59401 0.0
C537 C 0.08504 0.93741 0.63078 0.0
C538 C 0.10604 0.94485 0.65078 0.0
C539 C 0.07464 0.90937 0.62235 0.0
C540 C 0.0539 0.90058 0.60025 0.0
C541 C 0.06139 0.91338 0.57665 0.0
C542 C 0.04152 0.90538 0.55604 0.0
C543 C 0.01421 0.88439 0.55872 0.0
C544 C 0.00675 0.8713 0.582 0.0
C545 C 0.02651 0.87929 0.60269 0.0
H546 H 0.99886 0.87823 0.54274 0.0
H547 H 0.195 0.95646 0.74066 0.0
H548 H 0.69873 0.44227 0.92019 0.0
H549 H 0.74606 0.46813 0.9416 0.0
H550 H 0.79587 0.44599 0.8812 0.0
H551 H 0.74849 0.42067 0.85949 0.0
H552 H 0.80952 0.43095 0.93199 0.0
H553 H 0.79967 0.51106 0.88667 0.0
H554 H 0.77278 0.54405 0.87387 0.0
H555 H 0.76693 0.56671 0.9516 0.0
H556 H 0.79353 0.53364 0.96489 0.0
H557 H 0.9553 0.49577 0.97884 0.0
H558 H 0.90994 0.4799 0.95256 0.0
H559 H 0.86872 0.52986 0.9973 0.0
H560 H 0.91547 0.54773 0.02213 0.0
H561 H 0.84926 0.53131 0.95416 0.0
H562 H 0.85344 0.45296 1.00195 0.0
H563 H 0.87513 0.41803 0.01948 0.0
H564 H 0.88454 0.38889 0.9445 0.0
H565 H 0.86324 0.42388 0.9265 0.0
C566 C 0.71982 0.44378 0.9111 0.0
C567 C 0.71998 0.42988 0.88798 0.0
C568 C 0.74684 0.45843 0.92339 0.0
C569 C 0.77459 0.45905 0.91303 0.0
C570 C 0.77477 0.44592 0.88952 0.0
C571 C 0.74773 0.43168 0.877 0.0
C572 C 0.80314 0.4711 0.92779 0.0
C573 C 0.81854 0.45297 0.9365 0.0
C574 C 0.81405 0.49958 0.93481 0.0
C575 C 0.79833 0.51965 0.92678 0.0
C576 C 0.79242 0.52289 0.90105 0.0
C577 C 0.77726 0.54163 0.89371 0.0
C578 C 0.76799 0.55734 0.91192 0.0
C579 C 0.77398 0.55442 0.93752 0.0
C580 C 0.78917 0.53574 0.94496 0.0
C581 C 0.93652 0.50335 0.98305 0.0
C582 C 0.93878 0.5227 1.00276 0.0
C583 C 0.91035 0.49406 0.96812 0.0
C584 C 0.88505 0.50274 0.97326 0.0
C585 C 0.88757 0.52253 0.99281 0.0
C586 C 0.91427 0.53267 1.00715 0.0
C587 C 0.85621 0.49116 0.95834 0.0
C588 C 0.84053 0.50927 0.94969 0.0
C589 C 0.8443 0.46237 0.95214 0.0
C590 C 0.85701 0.44122 0.96288 0.0
C591 C 0.8603 0.43921 0.9892 0.0
C592 C 0.87251 0.41939 0.99922 0.0
C593 C 0.88128 0.40131 0.98311 0.0
C594 C 0.87777 0.40294 0.95695 0.0
C595 C 0.86561 0.42274 0.94683 0.0
H596 H 0.89073 0.38598 0.9909 0.0
H597 H 0.75634 0.57189 0.90619 0.0
H598 H 0.82111 0.63594 0.38981 0.0
H599 H 0.77541 0.61144 0.41286 0.0
H600 H 0.74405 0.68306 0.40595 0.0
H601 H 0.7891 0.70729 0.38262 0.0
H602 H 0.74354 0.66587 0.45508 0.0
H603 H 0.71044 0.62383 0.37325 0.0
H604 H 0.71388 0.59726 0.33471 0.0
H605 H 0.7132 0.52655 0.37971 0.0
H606 H 0.71018 0.55285 0.41856 0.0
H607 H 0.59625 0.62003 0.50098 0.0
H608 H 0.64106 0.63727 0.47547 0.0
H609 H 0.65592 0.55711 0.47926 0.0
H610 H 0.61027 0.53936 0.50426 0.0
H611 H 0.66729 0.57586 0.43344 0.0
H612 H 0.69916 0.61533 0.51474 0.0
H613 H 0.69731 0.64072 0.55438 0.0
H614 H 0.70319 0.71472 0.51242 0.0
H615 H 0.70466 0.68966 0.47248 0.0
C616 C 0.8041 0.64617 0.39259 0.0
C617 C 0.80901 0.67373 0.3845 0.0
C618 C 0.77802 0.63219 0.40593 0.0
C619 C 0.75629 0.64546 0.41141 0.0
C620 C 0.76054 0.67242 0.40226 0.0
C621 C 0.78637 0.68627 0.38887 0.0
C622 C 0.73004 0.63227 0.42791 0.0
C623 C 0.72669 0.64633 0.45017 0.0
C624 C 0.70861 0.60622 0.42217 0.0
C625 C 0.71045 0.59042 0.39883 0.0
C626 C 0.71132 0.60271 0.37494 0.0
C627 C 0.71313 0.58767 0.35303 0.0
C628 C 0.71386 0.56026 0.35476 0.0
C629 C 0.7127 0.5478 0.3784 0.0
C630 C 0.71092 0.56276 0.40037 0.0
C631 C 0.60906 0.60602 0.49659 0.0
C632 C 0.59962 0.5783 0.50497 0.0
C633 C 0.6349 0.61599 0.48199 0.0
C634 C 0.65245 0.59874 0.47568 0.0
C635 C 0.64297 0.57096 0.48386 0.0
C636 C 0.61688 0.56085 0.4983 0.0
C637 C 0.6804 0.6098 0.4604 0.0
C638 C 0.68417 0.59533 0.43846 0.0
C639 C 0.70257 0.63533 0.46661 0.0
C640 C 0.70176 0.65053 0.49059 0.0
C641 C 0.69984 0.63696 0.51395 0.0
C642 C 0.6989 0.65131 0.53647 0.0
C643 C 0.70006 0.6793 0.53591 0.0
C644 C 0.70226 0.69303 0.51282 0.0
C645 C 0.70318 0.67877 0.49023 0.0
H646 H 0.69933 0.69037 0.55337 0.0
H647 H 0.71524 0.54866 0.33778 0.0
H648 H 0.30135 0.37685 0.20494 0.0
H649 H 0.25964 0.39458 0.19289 0.0
H650 H 0.22497 0.32455 0.14197 0.0
H651 H 0.26677 0.30709 0.15388 0.0
H652 H 0.22694 0.3731 0.11965 0.0
H653 H 0.19152 0.32749 0.19812 0.0
H654 H 0.19478 0.31809 0.24359 0.0
H655 H 0.20241 0.40316 0.26138 0.0
H656 H 0.19962 0.41317 0.21597 0.0
H657 H 0.08471 0.38724 0.09105 0.0
H658 H 0.1249 0.36952 0.10632 0.0
H659 H 0.15406 0.43837 0.15914 0.0
H660 H 0.11361 0.45596 0.14416 0.0
H661 H 0.15571 0.39171 0.18104 0.0
H662 H 0.19119 0.43785 0.10347 0.0
H663 H 0.18889 0.44838 0.05816 0.0
H664 H 0.18269 0.364 0.03881 0.0
H665 H 0.18452 0.35286 0.08404 0.0
C666 C 0.28463 0.36529 0.19131 0.0
C667 C 0.28691 0.34072 0.18027 0.0
C668 C 0.26085 0.37532 0.1845 0.0
C669 C 0.23909 0.36076 0.16665 0.0
C670 C 0.2415 0.33609 0.15575 0.0
C671 C 0.26523 0.32611 0.16257 0.0
C672 C 0.21422 0.37153 0.15876 0.0
C673 C 0.21112 0.37683 0.13303 0.0
C674 C 0.19416 0.37718 0.17632 0.0
C675 C 0.19566 0.37114 0.20363 0.0
C676 C 0.19413 0.34425 0.21172 0.0
C677 C 0.19585 0.3388 0.23748 0.0
C678 C 0.19888 0.36003 0.25536 0.0
C679 C 0.20011 0.38674 0.24751 0.0
C680 C 0.19843 0.39231 0.22177 0.0
C681 C 0.09972 0.3986 0.1059 0.0
C682 C 0.09612 0.42304 0.11633 0.0
C683 C 0.12269 0.38848 0.11459 0.0
C684 C 0.1428 0.40287 0.1336 0.0
C685 C 0.13882 0.42694 0.14445 0.0
C686 C 0.11569 0.43694 0.13591 0.0
C687 C 0.16823 0.39301 0.14187 0.0
C688 C 0.17152 0.38799 0.16766 0.0
C689 C 0.18864 0.38778 0.12438 0.0
C690 C 0.18771 0.39446 0.09715 0.0
C691 C 0.18912 0.42149 0.08956 0.0
C692 C 0.18793 0.42758 0.06389 0.0
C693 C 0.18557 0.40685 0.04562 0.0
C694 C 0.18448 0.38002 0.05299 0.0
C695 C 0.18562 0.37381 0.07863 0.0
H696 H 0.18465 0.41161 0.02576 0.0
H697 H 0.20021 0.35577 0.27529 0.0
H698 H 0.59567 0.32891 0.88619 0.0
H699 H 0.57682 0.28528 0.90876 0.0
H700 H 0.66597 0.29473 0.93791 0.0
H701 H 0.68552 0.33695 0.91352 0.0
H702 H 0.64337 0.24425 0.92772 0.0
H703 H 0.60489 0.30722 0.97399 0.0
H704 H 0.57803 0.34176 0.98078 0.0
H705 H 0.49591 0.2829 0.95388 0.0
H706 H 0.52237 0.24811 0.94661 0.0
H707 H 0.59364 0.14596 0.02851 0.0
H708 H 0.61252 0.19015 1.00598 0.0
H709 H 0.53374 0.16704 0.9577 0.0
H710 H 0.51503 0.1226 0.9797 0.0
H711 H 0.55092 0.22403 0.97874 0.0
H712 H 0.59277 0.16119 0.93338 0.0
H713 H 0.62136 0.12757 0.9301 0.0
H714 H 0.69997 0.18868 0.96027 0.0
H715 H 0.67169 0.22256 0.96408 0.0
C716 C 0.61151 0.32164 0.89704 0.0
C717 C 0.6423 0.33698 0.89788 0.0
C718 C 0.60049 0.29673 0.91043 0.0
C719 C 0.61971 0.28669 0.9257 0.0
C720 C 0.65044 0.30185 0.9265 0.0
C721 C 0.66158 0.32645 0.91271 0.0
C722 C 0.60803 0.26022 0.94039 0.0
C723 C 0.62339 0.2402 0.93914 0.0
C724 C 0.58168 0.25429 0.9552 0.0
C725 C 0.56569 0.27516 0.95951 0.0
C726 C 0.58115 0.30171 0.96935 0.0
C727 C 0.56599 0.32132 0.97331 0.0
C728 C 0.5353 0.31456 0.9677 0.0
C729 C 0.51969 0.28813 0.95818 0.0
C730 C 0.53475 0.26845 0.95415 0.0
C731 C 0.58028 0.15029 0.01314 0.0
C732 C 0.55285 0.13062 1.00588 0.0
C733 C 0.59114 0.17555 1.00024 0.0
C734 C 0.57459 0.18193 0.98009 0.0
C735 C 0.54691 0.16262 0.97317 0.0
C736 C 0.53631 0.13714 0.98572 0.0
C737 C 0.58632 0.2085 0.96595 0.0
C738 C 0.57094 0.22839 0.96733 0.0
C739 C 0.61296 0.21458 0.95173 0.0
C740 C 0.63003 0.1943 0.94926 0.0
C741 C 0.61607 0.16738 0.93952 0.0
C742 C 0.63224 0.14829 0.93753 0.0
C743 C 0.66244 0.15596 0.94504 0.0
C744 C 0.67656 0.18276 0.95449 0.0
C745 C 0.66049 0.20192 0.95655 0.0
H746 H 0.67492 0.14115 0.94348 0.0
H747 H 0.5236 0.32977 0.97079 0.0
H748 H 0.93946 0.75922 0.39421 0.0
H749 H 0.96021 0.80388 0.41625 0.0
H750 H 0.87353 0.81741 0.41255 0.0
H751 H 0.85306 0.77359 0.38938 0.0
H752 H 0.9142 0.86434 0.40451 0.0
H753 H 0.90242 0.79385 0.46748 0.0
H754 H 0.90951 0.75199 0.48695 0.0
H755 H 0.00496 0.79131 0.48976 0.0
H756 H 0.99846 0.83329 0.46997 0.0
H757 H 0.93776 0.96815 0.50132 0.0
H758 H 0.91965 0.92457 0.47707 0.0
H759 H 0.00947 0.91805 0.47611 0.0
H760 H 0.02775 0.96153 0.50038 0.0
H761 H 0.96865 0.86814 0.48616 0.0
H762 H 0.97949 0.9393 0.42398 0.0
H763 H 0.97143 0.9812 0.40542 0.0
H764 H 0.87628 0.94035 0.40226 0.0
H765 H 0.88374 0.89831 0.42114 0.0
C766 C 0.92487 0.77186 0.39766 0.0
C767 C 0.8944 0.76245 0.39008 0.0
C768 C 0.93672 0.79734 0.41064 0.0
C769 C 0.91837 0.81397 0.41667 0.0
C770 C 0.88823 0.80504 0.4084 0.0
C771 C 0.87644 0.77972 0.3953 0.0
C772 C 0.93029 0.84047 0.43175 0.0
C773 C 0.92578 0.86499 0.42251 0.0
C774 C 0.94601 0.84179 0.45508 0.0
C775 C 0.94997 0.81658 0.46698 0.0
C776 C 0.92494 0.79348 0.47206 0.0
C777 C 0.92885 0.76975 0.48318 0.0
C778 C 0.95768 0.76896 0.48951 0.0
C779 C 0.98265 0.79193 0.4848 0.0
C780 C 0.97887 0.81571 0.47364 0.0
C781 C 0.9537 0.95746 0.496 0.0
C782 C 0.9843 0.96858 0.50274 0.0
C783 C 0.94331 0.93255 0.482 0.0
C784 C 0.96321 0.91807 0.47441 0.0
C785 C 0.99364 0.9288 0.48159 0.0
C786 C 0.00409 0.9538 0.49543 0.0
C787 C 0.95237 0.89183 0.45896 0.0
C788 C 0.95711 0.86741 0.46813 0.0
C789 C 0.93669 0.89056 0.43566 0.0
C790 C 0.93216 0.91576 0.4242 0.0
C791 C 0.95683 0.93932 0.41951 0.0
C792 C 0.95237 0.96309 0.4089 0.0
C793 C 0.92336 0.96346 0.40272 0.0
C794 C 0.89874 0.94004 0.40708 0.0
C795 C 0.90307 0.91623 0.41772 0.0
H796 H 0.91996 0.98188 0.39451 0.0
H797 H 0.96066 0.75057 0.49813 0.0
H798 H 0.22494 0.72356 0.68448 0.0
H799 H 0.25954 0.70124 0.66544 0.0
H800 H 0.33099 0.77915 0.66997 0.0
H801 H 0.29658 0.80155 0.68855 0.0
H802 H 0.32926 0.75284 0.62432 0.0
H803 H 0.3268 0.73 0.71313 0.0
H804 H 0.30212 0.71048 0.75276 0.0
H805 H 0.26828 0.6299 0.71735 0.0
H806 H 0.29244 0.64906 0.67738 0.0
H807 H 0.46119 0.71444 0.6126 0.0
H808 H 0.42119 0.732 0.62777 0.0
H809 H 0.35916 0.64874 0.62539 0.0
H810 H 0.39939 0.63082 0.61134 0.0
H811 H 0.35233 0.67462 0.66751 0.0
H812 H 0.35757 0.6962 0.57959 0.0
H813 H 0.38206 0.71535 0.53979 0.0
H814 H 0.40971 0.79748 0.57261 0.0
H815 H 0.38576 0.77877 0.61274 0.0
C816 C 0.24797 0.7359 0.68121 0.0
C817 C 0.25817 0.7642 0.68819 0.0
C818 C 0.26771 0.72313 0.67049 0.0
C819 C 0.29786 0.73853 0.66651 0.0
C820 C 0.30783 0.7669 0.67293 0.0
C821 C 0.28823 0.7796 0.68373 0.0
C822 C 0.3194 0.7252 0.65608 0.0
C823 C 0.33449 0.73586 0.63383 0.0
C824 C 0.32556 0.70257 0.66817 0.0
C825 C 0.31112 0.69103 0.6922 0.0
C826 C 0.31388 0.70818 0.71374 0.0
C827 C 0.30003 0.69717 0.73627 0.0
C828 C 0.28356 0.66899 0.73755 0.0
C829 C 0.28099 0.65174 0.71631 0.0
C830 C 0.29477 0.66266 0.69372 0.0
C831 C 0.43913 0.69981 0.61554 0.0
C832 C 0.43348 0.67123 0.61063 0.0
C833 C 0.41618 0.70993 0.62393 0.0
C834 C 0.38705 0.69174 0.6273 0.0
C835 C 0.38141 0.66317 0.62275 0.0
C836 C 0.40438 0.65301 0.61449 0.0
C837 C 0.36259 0.70254 0.6359 0.0
C838 C 0.34693 0.6914 0.6578 0.0
C839 C 0.35579 0.72466 0.62342 0.0
C840 C 0.37006 0.73603 0.59925 0.0
C841 C 0.36905 0.71832 0.57838 0.0
C842 C 0.38281 0.7291 0.55575 0.0
C843 C 0.39748 0.75761 0.55369 0.0
C844 C 0.39836 0.7754 0.57424 0.0
C845 C 0.38466 0.76472 0.59692 0.0
H846 H 0.40813 0.76591 0.53615 0.0
H847 H 0.27286 0.6605 0.75501 0.0
H848 H 0.80031 0.84495 0.84443 0.0
H849 H 0.82101 0.87065 0.80661 0.0
H850 H 0.73157 0.85482 0.77545 0.0
H851 H 0.71068 0.82787 0.81299 0.0
H852 H 0.7681 0.84516 0.74084 0.0
H853 H 0.77215 0.91991 0.79778 0.0
H854 H 0.78379 0.94701 0.83759 0.0
H855 H 0.87792 0.95906 0.82749 0.0
H856 H 0.86683 0.93169 0.78779 0.0
H857 H 0.82301 0.94187 0.64022 0.0
H858 H 0.79598 0.91666 0.67646 0.0
H859 H 0.88035 0.92382 0.71418 0.0
H860 H 0.90746 0.94967 0.67844 0.0
H861 H 0.84231 0.93947 0.74467 0.0
H862 H 0.83725 0.86208 0.68883 0.0
H863 H 0.82512 0.83509 0.64898 0.0
H864 H 0.73195 0.82879 0.65687 0.0
H865 H 0.7436 0.85608 0.69662 0.0
C866 C 0.78499 0.84685 0.82953 0.0
C867 C 0.75384 0.83419 0.83165 0.0
C868 C 0.79686 0.86183 0.808 0.0
C869 C 0.77784 0.86493 0.78827 0.0
C870 C 0.74666 0.85275 0.79048 0.0
C871 C 0.73474 0.83759 0.81203 0.0
C872 C 0.79081 0.87996 0.76502 0.0
C873 C 0.7839 0.866 0.74161 0.0
C874 C 0.81183 0.90696 0.76606 0.0
C875 C 0.81862 0.92356 0.78989 0.0
C876 C 0.79532 0.92817 0.80414 0.0
C877 C 0.80182 0.94361 0.82667 0.0
C878 C 0.83157 0.95471 0.83508 0.0
C879 C 0.85488 0.95044 0.82095 0.0
C880 C 0.8485 0.93499 0.79842 0.0
C881 C 0.83579 0.93796 0.6562 0.0
C882 C 0.8674 0.94779 0.65645 0.0
C883 C 0.82031 0.9234 0.67681 0.0
C884 C 0.83616 0.9183 0.69799 0.0
C885 C 0.86768 0.92754 0.69803 0.0
C886 C 0.88315 0.94206 0.67746 0.0
C887 C 0.82005 0.90446 0.72063 0.0
C888 C 0.82633 0.91872 0.7439 0.0
C889 C 0.79837 0.87783 0.71942 0.0
C890 C 0.79135 0.86138 0.69555 0.0
C891 C 0.81422 0.85514 0.68196 0.0
C892 C 0.80742 0.83975 0.65941 0.0
C893 C 0.7778 0.8303 0.65036 0.0
C894 C 0.75489 0.83616 0.66388 0.0
C895 C 0.76158 0.85157 0.68643 0.0
H896 H 0.77258 0.81838 0.63291 0.0
H897 H 0.83655 0.96665 0.85254 0.0
H898 H 0.80335 0.2928 0.32316 0.0
H899 H 0.77023 0.27245 0.28723 0.0
H900 H 0.74866 0.19162 0.32168 0.0
H901 H 0.78107 0.21181 0.35784 0.0
H902 H 0.76713 0.19134 0.2726 0.0
H903 H 0.69757 0.22486 0.31965 0.0
H904 H 0.68029 0.26006 0.34204 0.0
H905 H 0.68867 0.30766 0.27402 0.0
H906 H 0.70646 0.27293 0.2513 0.0
H907 H 0.64679 0.10976 0.19862 0.0
H908 H 0.67557 0.13651 0.23416 0.0
H909 H 0.6948 0.21162 0.19044 0.0
H910 H 0.66571 0.18487 0.15465 0.0
H911 H 0.67905 0.21796 0.24198 0.0
H912 H 0.74729 0.18397 0.19467 0.0
H913 H 0.76461 0.14885 0.17222 0.0
H914 H 0.75926 0.1026 0.24079 0.0
H915 H 0.74142 0.13724 0.26359 0.0
C916 C 0.79109 0.2708 0.32332 0.0
C917 C 0.79509 0.25387 0.34326 0.0
C918 C 0.77225 0.2592 0.30274 0.0
C919 C 0.75709 0.23052 0.30179 0.0
C920 C 0.76035 0.21376 0.32198 0.0
C921 C 0.779 0.22533 0.34257 0.0
C922 C 0.73915 0.21755 0.27918 0.0
C923 C 0.74767 0.19695 0.26608 0.0
C924 C 0.71439 0.22556 0.27024 0.0
C925 C 0.7037 0.24646 0.28385 0.0
C926 C 0.69602 0.24297 0.30953 0.0
C927 C 0.68607 0.26281 0.32226 0.0
C928 C 0.68348 0.28613 0.30948 0.0
C929 C 0.69075 0.28962 0.28391 0.0
C930 C 0.70075 0.26985 0.27109 0.0
C931 C 0.65676 0.13204 0.19667 0.0
C932 C 0.65402 0.14525 0.17386 0.0
C933 C 0.67333 0.14725 0.21693 0.0
C934 C 0.68744 0.17597 0.21482 0.0
C935 C 0.68406 0.18945 0.19238 0.0
C936 C 0.66765 0.17415 0.17195 0.0
C937 C 0.70676 0.19143 0.2358 0.0
C938 C 0.69861 0.21251 0.24848 0.0
C939 C 0.73197 0.18396 0.2444 0.0
C940 C 0.74273 0.16307 0.23078 0.0
C941 C 0.74953 0.16618 0.20492 0.0
C942 C 0.7595 0.14638 0.19214 0.0
C943 C 0.76296 0.12347 0.20506 0.0
C944 C 0.75653 0.12034 0.2308 0.0
C945 C 0.74651 0.14006 0.24367 0.0
H946 H 0.7707 0.10817 0.19513 0.0
H947 H 0.67575 0.30146 0.31938 0.0
H948 H 0.42319 0.65082 0.2852 0.0
H949 H 0.43481 0.62695 0.32244 0.0
H950 H 0.38386 0.66624 0.36896 0.0
H951 H 0.37259 0.6903 0.3317 0.0
H952 H 0.43631 0.67142 0.39107 0.0
H953 H 0.3593 0.59459 0.35427 0.0
H954 H 0.33404 0.56148 0.32051 0.0
H955 H 0.4112 0.53261 0.31501 0.0
H956 H 0.43709 0.56582 0.34852 0.0
H957 H 0.45046 0.59866 0.50333 0.0
H958 H 0.43045 0.617 0.4667 0.0
H959 H 0.47457 0.57441 0.41675 0.0
H960 H 0.49357 0.55518 0.45323 0.0
H961 H 0.4233 0.5704 0.39685 0.0
H962 H 0.5015 0.64827 0.43144 0.0
H963 H 0.52786 0.68157 0.46471 0.0
H964 H 0.45006 0.70891 0.4736 0.0
H965 H 0.42311 0.67551 0.44058 0.0
C966 C 0.41378 0.65369 0.30326 0.0
C967 C 0.39643 0.67193 0.30545 0.0
C968 C 0.42051 0.6401 0.32464 0.0
C969 C 0.41011 0.64448 0.34876 0.0
C970 C 0.3922 0.66234 0.35073 0.0
C971 C 0.38545 0.67588 0.32935 0.0
C972 C 0.41922 0.63176 0.37203 0.0
C973 C 0.43298 0.64924 0.39243 0.0
C974 C 0.41578 0.60291 0.37385 0.0
C975 C 0.40024 0.58288 0.35375 0.0
C976 C 0.37097 0.58133 0.34573 0.0
C977 C 0.35652 0.56252 0.32666 0.0
C978 C 0.37103 0.545 0.31558 0.0
C979 C 0.4 0.54622 0.32359 0.0
C980 C 0.41456 0.56501 0.34263 0.0
C981 C 0.45581 0.59308 0.48455 0.0
C982 C 0.47377 0.57541 0.4814 0.0
C983 C 0.44449 0.60379 0.46349 0.0
C984 C 0.45132 0.59768 0.43863 0.0
C985 C 0.46883 0.57963 0.43553 0.0
C986 C 0.4798 0.56863 0.45654 0.0
C987 C 0.44055 0.61008 0.41589 0.0
C988 C 0.42653 0.59256 0.39556 0.0
C989 C 0.44395 0.63895 0.41403 0.0
C990 C 0.4602 0.65921 0.43372 0.0
C991 C 0.48996 0.66127 0.4406 0.0
C992 C 0.50501 0.68017 0.45939 0.0
C993 C 0.49061 0.69729 0.47131 0.0
C994 C 0.46117 0.69561 0.46438 0.0
C995 C 0.446 0.67672 0.44561 0.0
H996 H 0.5023 0.7119 0.48586 0.0
H997 H 0.35981 0.53045 0.30082 0.0
H998 H 0.16305 0.40829 0.8289 0.0
H999 H 0.15172 0.42993 0.86774 0.0
H1000 H 0.1109 0.48023 0.82305 0.0
H1001 H 0.12277 0.4589 0.78428 0.0
H1002 H 0.14005 0.5103 0.86193 0.0
H1003 H 0.06898 0.41867 0.85281 0.0
H1004 H 0.05317 0.36757 0.84795 0.0
H1005 H 0.09761 0.36078 0.91801 0.0
H1006 H 0.11401 0.4119 0.92312 0.0
H1007 H 0.0482 0.54561 0.95378 0.0
H1008 H 0.06827 0.52755 0.91747 0.0
H1009 H 0.1036 0.47712 0.96689 0.0
H1010 H 0.08264 0.49461 1.00346 0.0
H1011 H 0.08043 0.44751 0.92696 0.0
H1012 H 0.14926 0.53916 0.93736 0.0
H1013 H 0.16467 0.59024 0.94229 0.0
H1014 H 0.12473 0.59719 0.87012 0.0
H1015 H 0.10872 0.54611 0.8649 0.0
C1016 C 0.1524 0.42451 0.8274 0.0
C1017 C 0.14425 0.43225 0.80355 0.0
C1018 C 0.14552 0.43665 0.84965 0.0
C1019 C 0.12987 0.45651 0.8486 0.0
C1020 C 0.12292 0.46503 0.8246 0.0
C1021 C 0.12986 0.45293 0.80238 0.0
C1022 C 0.11968 0.46757 0.8723 0.0
C1023 C 0.12677 0.4965 0.876 0.0
C1024 C 0.10289 0.44982 0.89121 0.0
C1025 C 0.09299 0.41911 0.8882 0.0
C1026 C 0.07556 0.40629 0.86708 0.0
C1027 C 0.06646 0.37732 0.8643 0.0
C1028 C 0.07445 0.36094 0.88262 0.0
C1029 C 0.09148 0.3735 0.90381 0.0
C1030 C 0.10067 0.40246 0.90666 0.0
C1031 C 0.06038 0.53079 0.95708 0.0
C1032 C 0.06387 0.5218 0.98179 0.0
C1033 C 0.07208 0.52053 0.93615 0.0
C1034 C 0.08813 0.50124 0.93917 0.0
C1035 C 0.0915 0.49205 0.96382 0.0
C1036 C 0.07956 0.50218 0.98483 0.0
C1037 C 0.10066 0.49029 0.91658 0.0
C1038 C 0.09393 0.46135 0.91303 0.0
C1039 C 0.11781 0.50805 0.89783 0.0
C1040 C 0.12758 0.53878 0.90084 0.0
C1041 C 0.14359 0.55157 0.92261 0.0
C1042 C 0.15246 0.58052 0.92545 0.0
C1043 C 0.14563 0.59694 0.90655 0.0
C1044 C 0.12999 0.58444 0.88475 0.0
C1045 C 0.12104 0.55549 0.88182 0.0
H1046 H 0.1525 0.61936 0.90879 0.0
H1047 H 0.06738 0.33852 0.88044 0.0
H1048 H 0.70145 0.87396 0.91948 0.0
H1049 H 0.68285 0.91201 0.93381 0.0
H1050 H 0.5933 0.86532 0.9088 0.0
H1051 H 0.61207 0.8274 0.89427 0.0
H1052 H 0.60593 0.92132 0.89921 0.0
H1053 H 0.61291 0.86313 0.9693 0.0
H1054 H 0.63833 0.83872 0.99781 0.0
H1055 H 0.70224 0.91671 0.01976 0.0
H1056 H 0.67743 0.94156 0.99109 0.0
H1057 H 0.51841 0.97991 0.9789 0.0
H1058 H 0.54175 0.94997 0.95587 0.0
H1059 H 0.62887 0.99859 0.98449 0.0
H1060 H 0.60575 0.02852 1.00777 0.0
H1061 H 0.61966 0.94384 0.99089 0.0
H1062 H 0.60997 1.00249 0.92285 0.0
H1063 H 0.5837 0.0265 0.89475 0.0
H1064 H 0.52411 0.94776 0.86929 0.0
H1065 H 0.54977 0.92326 0.89753 0.0
C1066 C 0.67794 0.87219 0.91665 0.0
C1067 C 0.65807 0.84804 0.90585 0.0
C1068 C 0.66731 0.89379 0.9249 0.0
C1069 C 0.63661 0.89134 0.92266 0.0
C1070 C 0.61705 0.86765 0.9107 0.0
C1071 C 0.62771 0.84604 0.90245 0.0
C1072 C 0.62454 0.91244 0.93441 0.0
C1073 C 0.6087 0.92612 0.91928 0.0
C1074 C 0.62863 0.91904 0.96053 0.0
C1075 C 0.64352 0.90416 0.97784 0.0
C1076 C 0.63253 0.87505 0.98005 0.0
C1077 C 0.6468 0.86114 0.99626 0.0
C1078 C 0.67194 0.87615 0.01053 0.0
C1079 C 0.68281 0.90511 0.00866 0.0
C1080 C 0.66864 0.91912 0.99244 0.0
C1081 C 0.54258 0.98444 0.98013 0.0
C1082 C 0.56017 0.00661 0.99527 0.0
C1083 C 0.55591 0.96736 0.96683 0.0
C1084 C 0.58709 0.97215 0.96832 0.0
C1085 C 0.60477 0.99453 0.98306 0.0
C1086 C 0.59149 0.01166 0.99631 0.0
C1087 C 0.60103 0.95284 0.95573 0.0
C1088 C 0.61713 0.93933 0.97076 0.0
C1089 C 0.59707 0.9464 0.92957 0.0
C1090 C 0.58164 0.96105 0.91249 0.0
C1091 C 0.59111 0.99029 0.91142 0.0
C1092 C 0.57636 0.00399 0.89543 0.0
C1093 C 0.55221 0.98867 0.88029 0.0
C1094 C 0.54281 0.9596 0.88106 0.0
C1095 C 0.55747 0.9458 0.89703 0.0
H1096 H 0.54081 0.99931 0.86792 0.0
H1097 H 0.68295 0.86534 0.02308 0.0
H1098 H 0.91794 0.27479 0.40042 0.0
H1099 H 0.94589 0.24512 0.41866 0.0
H1100 H 0.86286 0.1787 0.42696 0.0
H1101 H 0.83503 0.20795 0.40857 0.0
H1102 H 0.90129 0.19188 0.47133 0.0
H1103 H 0.90436 0.17335 0.38127 0.0
H1104 H 0.91679 0.18685 0.33706 0.0
H1105 H 0.01012 0.22027 0.35769 0.0
H1106 H 0.99815 0.20735 0.40214 0.0
H1107 H 0.93679 0.07268 0.50223 0.0
H1108 H 0.91722 0.10546 0.47935 0.0
H1109 H 0.00755 0.15343 0.45979 0.0
H1110 H 0.02703 0.11942 0.48143 0.0
H1111 H 0.97125 0.15515 0.42248 0.0
H1112 H 0.96982 0.16946 0.51164 0.0
H1113 H 0.95802 0.15524 0.55581 0.0
H1114 H 0.86369 0.1329 0.5385 0.0
H1115 H 0.87479 0.14585 0.494 0.0
C1116 C 0.90578 0.25383 0.40614 0.0
C1117 C 0.8744 0.24355 0.40302 0.0
C1118 C 0.92171 0.23694 0.41643 0.0
C1119 C 0.90637 0.20976 0.42405 0.0
C1120 C 0.87505 0.19962 0.42115 0.0
C1121 C 0.85924 0.21627 0.41054 0.0
C1122 C 0.92258 0.19175 0.43552 0.0
C1123 C 0.91649 0.1837 0.46068 0.0
C1124 C 0.94315 0.18196 0.42178 0.0
C1125 C 0.95031 0.18973 0.39508 0.0
C1126 C 0.92749 0.18386 0.37644 0.0
C1127 C 0.93446 0.19134 0.35132 0.0
C1128 C 0.96421 0.2045 0.34458 0.0
C1129 C 0.98707 0.21014 0.36294 0.0
C1130 C 0.98021 0.20273 0.3881 0.0
C1131 C 0.95237 0.08997 0.49264 0.0
C1132 C 0.98334 0.09377 0.49367 0.0
C1133 C 0.94124 0.1088 0.47975 0.0
C1134 C 0.96099 0.13247 0.4686 0.0
C1135 C 0.99191 0.13549 0.46847 0.0
C1136 C 1.00301 0.1161 0.48078 0.0
C1137 C 0.9493 0.15449 0.45822 0.0
C1138 C 0.95638 0.16351 0.43334 0.0
C1139 C 0.92987 0.16552 0.47238 0.0
C1140 C 0.92316 0.15849 0.49938 0.0
C1141 C 0.94655 0.16138 0.51719 0.0
C1142 C 0.93999 0.15353 0.54229 0.0
C1143 C 0.91016 0.14331 0.54996 0.0
C1144 C 0.8868 0.14085 0.53253 0.0
C1145 C 0.8932 0.14837 0.50735 0.0
H1146 H 0.90515 0.13728 0.56941 0.0
H1147 H 0.96957 0.21026 0.32513 0.0
H1148 H 0.29316 0.6714 0.23231 0.0
H1149 H 0.24721 0.64525 0.20892 0.0
H1150 H 0.29599 0.6604 0.1391 0.0
H1151 H 0.34168 0.68587 0.16224 0.0
H1152 H 0.24458 0.67669 0.13724 0.0
H1153 H 0.27301 0.59631 0.16275 0.0
H1154 H 0.28605 0.56526 0.1936 0.0
H1155 H 0.20059 0.55115 0.22911 0.0
H1156 H 0.18721 0.58243 0.19867 0.0
H1157 H 0.13259 0.60083 0.0503 0.0
H1158 H 0.1788 0.61935 0.07549 0.0
H1159 H 0.13069 0.58533 0.14293 0.0
H1160 H 0.08509 0.5655 0.11762 0.0
H1161 H 0.18139 0.57881 0.14751 0.0
H1162 H 0.15205 0.65857 0.12509 0.0
H1163 H 0.13751 0.69106 0.09676 0.0
H1164 H 0.22209 0.7088 0.05909 0.0
H1165 H 0.23698 0.67614 0.087 0.0
C1166 C 0.29423 0.66843 0.21208 0.0
C1167 C 0.32105 0.68096 0.19914 0.0
C1168 C 0.26791 0.65363 0.19868 0.0
C1169 C 0.26799 0.65109 0.17213 0.0
C1170 C 0.29517 0.66229 0.15948 0.0
C1171 C 0.32134 0.67681 0.17278 0.0
C1172 C 0.23967 0.63853 0.15714 0.0
C1173 C 0.23093 0.65517 0.13929 0.0
C1174 C 0.22122 0.61077 0.16034 0.0
C1175 C 0.22925 0.59195 0.1786 0.0
C1176 C 0.25711 0.58679 0.17728 0.0
C1177 C 0.26454 0.5691 0.19466 0.0
C1178 C 0.2442 0.5563 0.21335 0.0
C1179 C 0.21635 0.56111 0.21465 0.0
C1180 C 0.20882 0.5788 0.19733 0.0
C1181 C 0.13191 0.59728 0.07049 0.0
C1182 C 0.10506 0.58173 0.0819 0.0
C1183 C 0.15836 0.60806 0.08499 0.0
C1184 C 0.15842 0.60439 0.11141 0.0
C1185 C 0.13157 0.58859 0.12269 0.0
C1186 C 0.10536 0.57728 0.10814 0.0
C1187 C 0.18622 0.61693 0.12733 0.0
C1188 C 0.19489 0.60035 0.14542 0.0
C1189 C 0.20435 0.645 0.12474 0.0
C1190 C 0.1955 0.6647 0.10797 0.0
C1191 C 0.16746 0.66926 0.11066 0.0
C1192 C 0.15917 0.68772 0.09469 0.0
C1193 C 0.17883 0.70192 0.0761 0.0
C1194 C 0.20686 0.69775 0.07348 0.0
C1195 C 0.21525 0.67929 0.08938 0.0
H1196 H 0.17237 0.71621 0.06375 0.0
H1197 H 0.24998 0.54262 0.22678 0.0
H1198 H 0.21975 0.45485 0.70694 0.0
H1199 H 0.26563 0.48075 0.68487 0.0
H1200 H 0.2916 0.40587 0.67944 0.0
H1201 H 0.24726 0.38072 0.70282 0.0
H1202 H 0.33924 0.44468 0.68436 0.0
H1203 H 0.25319 0.43263 0.62959 0.0
H1204 H 0.20399 0.43699 0.61661 0.0
H1205 H 0.23999 0.52608 0.6207 0.0
H1206 H 0.28933 0.52222 0.63402 0.0
H1207 H 0.42692 0.47266 0.57152 0.0
H1208 H 0.38357 0.45406 0.59913 0.0
H1209 H 0.38785 0.53748 0.6215 0.0
H1210 H 0.43161 0.55617 0.59453 0.0
H1211 H 0.32653 0.4982 0.60899 0.0
H1212 H 0.41489 0.50736 0.66093 0.0
H1213 H 0.46351 0.4998 0.67064 0.0
H1214 H 0.42135 0.41134 0.66812 0.0
H1215 H 0.37253 0.41838 0.65797 0.0
C1216 C 0.23571 0.44416 0.70167 0.0
C1217 C 0.22944 0.41553 0.70633 0.0
C1218 C 0.26177 0.45887 0.68862 0.0
C1219 C 0.2819 0.44519 0.67956 0.0
C1220 C 0.27657 0.41709 0.68581 0.0
C1221 C 0.25094 0.40259 0.69912 0.0
C1222 C 0.30776 0.45934 0.66275 0.0
C1223 C 0.33618 0.45617 0.66781 0.0
C1224 C 0.30441 0.47475 0.64112 0.0
C1225 C 0.27482 0.47713 0.63308 0.0
C1226 C 0.25054 0.45314 0.62788 0.0
C1227 C 0.22265 0.45553 0.62045 0.0
C1228 C 0.21884 0.4818 0.61791 0.0
C1229 C 0.24295 0.50575 0.62273 0.0
C1230 C 0.27089 0.50348 0.63021 0.0
C1231 C 0.4184 0.48705 0.58207 0.0
C1232 C 0.43279 0.5159 0.58081 0.0
C1233 C 0.3937 0.47639 0.59793 0.0
C1234 C 0.38248 0.49436 0.61249 0.0
C1235 C 0.39605 0.5232 0.61048 0.0
C1236 C 0.42113 0.53384 0.59508 0.0
C1237 C 0.35742 0.48304 0.63055 0.0
C1238 C 0.32935 0.48681 0.62567 0.0
C1239 C 0.36088 0.46767 0.65202 0.0
C1240 C 0.39012 0.4634 0.65843 0.0
C1241 C 0.41603 0.4863 0.66222 0.0
C1242 C 0.44362 0.48211 0.66785 0.0
C1243 C 0.44553 0.45511 0.66993 0.0
C1244 C 0.41984 0.43224 0.66647 0.0
C1245 C 0.3922 0.43632 0.6608 0.0
H1246 H 0.46691 0.4519 0.67428 0.0
H1247 H 0.19723 0.4836 0.61214 0.0
H1248 H 0.75797 0.7742 0.93322 0.0
H1249 H 0.79227 0.75067 0.95056 0.0
H1250 H 0.80872 0.72552 0.8754 0.0
H1251 H 0.77368 0.74836 0.85792 0.0
H1252 H 0.8066 0.68466 0.91004 0.0
H1253 H 0.85627 0.78208 0.90077 0.0
H1254 H 0.86323 0.83226 0.906 0.0
H1255 H 0.86682 0.8244 0.98668 0.0
H1256 H 0.85939 0.77403 0.98192 0.0
H1257 H 0.94971 0.66644 0.93341 0.0
H1258 H 0.90928 0.68333 0.91723 0.0
H1259 H 0.89121 0.70518 0.99308 0.0
H1260 H 0.93197 0.6887 0.00937 0.0
H1261 H 0.89332 0.74659 0.95836 0.0
H1262 H 0.8461 0.64773 0.96592 0.0
H1263 H 0.84348 0.59873 0.95838 0.0
H1264 H 0.83836 0.61019 0.8783 0.0
H1265 H 0.84147 0.6594 0.88532 0.0
C1266 C 0.76827 0.76307 0.92042 0.0
C1267 C 0.76332 0.76336 0.89417 0.0
C1268 C 0.78806 0.74982 0.93034 0.0
C1269 C 0.8034 0.73675 0.91422 0.0
C1270 C 0.79721 0.7356 0.88815 0.0
C1271 C 0.7774 0.74886 0.87819 0.0
C1272 C 0.82755 0.72625 0.92436 0.0
C1273 C 0.82566 0.69821 0.92045 0.0
C1274 C 0.85236 0.74394 0.93805 0.0
C1275 C 0.85693 0.77423 0.941 0.0
C1276 C 0.85828 0.79101 0.91963 0.0
C1277 C 0.86235 0.81949 0.92251 0.0
C1278 C 0.86538 0.8315 0.94666 0.0
C1279 C 0.86441 0.81505 0.96799 0.0
C1280 C 0.86028 0.78654 0.96521 0.0
C1281 C 0.93731 0.67509 0.94661 0.0
C1282 C 0.94399 0.67626 0.97266 0.0
C1283 C 0.91406 0.68448 0.93737 0.0
C1284 C 0.89707 0.69519 0.95401 0.0
C1285 C 0.90399 0.69684 0.97997 0.0
C1286 C 0.92714 0.68731 0.98924 0.0
C1287 C 0.87224 0.70496 0.9443 0.0
C1288 C 0.8741 0.73295 0.94818 0.0
C1289 C 0.84767 0.68728 0.93035 0.0
C1290 C 0.84438 0.65736 0.92614 0.0
C1291 C 0.84457 0.63985 0.94669 0.0
C1292 C 0.84304 0.61205 0.94251 0.0
C1293 C 0.84108 0.60147 0.91787 0.0
C1294 C 0.84011 0.6185 0.89737 0.0
C1295 C 0.84171 0.64634 0.90144 0.0
H1296 H 0.8402 0.58003 0.91466 0.0
H1297 H 0.86855 0.85356 0.94885 0.0
H1298 H 0.4436 0.77852 0.20309 0.0
H1299 H 0.46324 0.8218 0.17952 0.0
H1300 H 0.37281 0.82307 0.16449 0.0
H1301 H 0.3531 0.77992 0.18796 0.0
H1302 H 0.4041 0.83435 0.12261 0.0
H1303 H 0.4206 0.86785 0.20843 0.0
H1304 H 0.43982 0.86987 0.25224 0.0
H1305 H 0.53017 0.89056 0.22518 0.0
H1306 H 0.51145 0.88829 0.18116 0.0
H1307 H 0.43906 0.97259 0.0761 0.0
H1308 H 0.42043 0.93009 0.10079 0.0
H1309 H 0.51147 0.93062 0.11579 0.0
H1310 H 0.53028 0.97341 0.09161 0.0
H1311 H 0.48042 0.91827 0.15755 0.0
H1312 H 0.46415 0.88497 0.07182 0.0
H1313 H 0.44512 0.88299 0.02795 0.0
H1314 H 0.3546 0.86174 0.05471 0.0
H1315 H 0.37313 0.86395 0.09878 0.0
C1316 C 0.42789 0.78819 0.19506 0.0
C1317 C 0.39671 0.77554 0.19744 0.0
C1318 C 0.43916 0.81299 0.18152 0.0
C1319 C 0.41958 0.82598 0.17022 0.0
C1320 C 0.38848 0.81352 0.17282 0.0
C1321 C 0.37721 0.78874 0.18627 0.0
C1322 C 0.43129 0.85215 0.15527 0.0
C1323 C 0.4205 0.8528 0.13042 0.0
C1324 C 0.45328 0.87616 0.16505 0.0
C1325 C 0.46459 0.87762 0.19149 0.0
C1326 C 0.44454 0.87262 0.21181 0.0
C1327 C 0.45535 0.87385 0.23668 0.0
C1328 C 0.48619 0.88026 0.24149 0.0
C1329 C 0.50629 0.88555 0.22143 0.0
C1330 C 0.49559 0.88432 0.19652 0.0
C1331 C 0.45517 0.96366 0.08456 0.0
C1332 C 0.48624 0.97653 0.08169 0.0
C1333 C 0.44444 0.9392 0.09864 0.0
C1334 C 0.46446 0.92675 0.11001 0.0
C1335 C 0.49547 0.93966 0.10727 0.0
C1336 C 0.50622 0.96417 0.0933 0.0
C1337 C 0.45316 0.90049 0.12491 0.0
C1338 C 0.46404 0.89981 0.14973 0.0
C1339 C 0.43128 0.87642 0.1151 0.0
C1340 C 0.42006 0.87489 0.08861 0.0
C1341 C 0.4402 0.88006 0.06836 0.0
C1342 C 0.4295 0.87887 0.04345 0.0
C1343 C 0.39868 0.87232 0.03855 0.0
C1344 C 0.37848 0.86685 0.05854 0.0
C1345 C 0.38906 0.86805 0.08348 0.0
H1346 H 0.39044 0.87141 0.01925 0.0
H1347 H 0.49451 0.88121 0.26076 0.0
H1348 H 0.11977 0.30539 0.72571 0.0
H1349 H 0.09819 0.26204 0.702 0.0
H1350 H 0.1405 0.30164 0.6342 0.0
H1351 H 0.1602 0.34548 0.65726 0.0
H1352 H 0.08914 0.26979 0.6213 0.0
H1353 H 0.16822 0.25541 0.67231 0.0
H1354 H 0.19655 0.25376 0.71158 0.0
H1355 H 0.11981 0.19191 0.74134 0.0
H1356 H 0.09088 0.19345 0.70236 0.0
H1357 H 0.07854 0.14481 0.55185 0.0
H1358 H 0.09694 0.1889 0.57528 0.0
H1359 H 0.04467 0.15133 0.63961 0.0
H1360 H 0.02636 0.10716 0.61645 0.0
H1361 H 0.10068 0.18174 0.65412 0.0
H1362 H 0.02229 0.19734 0.60114 0.0
H1363 H 0.99634 0.19963 0.56072 0.0
H1364 H 0.07605 0.25913 0.53288 0.0
H1365 H 0.10249 0.25731 0.57318 0.0
C1366 C 0.12414 0.3051 0.70567 0.0
C1367 C 0.14218 0.32916 0.69364 0.0
C1368 C 0.1121 0.28003 0.69213 0.0
C1369 C 0.11821 0.27811 0.66629 0.0
C1370 C 0.13554 0.30226 0.65411 0.0
C1371 C 0.14719 0.3274 0.66752 0.0
C1372 C 0.10672 0.25109 0.65189 0.0
C1373 C 0.09207 0.25067 0.62843 0.0
C1374 C 0.10996 0.22578 0.66108 0.0
C1375 C 0.1273 0.22477 0.68453 0.0
C1376 C 0.15732 0.24161 0.68731 0.0
C1377 C 0.17349 0.24066 0.7095 0.0
C1378 C 0.15996 0.2228 0.72897 0.0
C1379 C 0.13024 0.20577 0.72626 0.0
C1380 C 0.11396 0.20666 0.70411 0.0
C1381 C 0.0709 0.14587 0.57098 0.0
C1382 C 0.05089 0.12228 0.58218 0.0
C1383 C 0.08135 0.17122 0.58434 0.0
C1384 C 0.072 0.17366 0.60921 0.0
C1385 C 0.05222 0.15009 0.62048 0.0
C1386 C 0.0417 0.12479 0.60713 0.0
C1387 C 0.08317 0.20056 0.62367 0.0
C1388 C 0.09777 0.20092 0.6471 0.0
C1389 C 0.08031 0.22587 0.61427 0.0
C1390 C 0.06443 0.227 0.59007 0.0
C1391 C 0.03433 0.21078 0.58634 0.0
C1392 C 0.01953 0.212 0.56346 0.0
C1393 C 0.03458 0.22934 0.54418 0.0
C1394 C 0.06443 0.24565 0.54781 0.0
C1395 C 0.07931 0.24461 0.57069 0.0
H1396 H 0.02306 0.2302 0.52648 0.0
H1397 H 0.17252 0.2221 0.74614 0.0
H1398 H 0.8109 0.38595 0.38986 0.0
H1399 H 0.7678 0.40281 0.39839 0.0
H1400 H 0.72846 0.33049 0.44404 0.0
H1401 H 0.77127 0.31354 0.43511 0.0
H1402 H 0.68657 0.34161 0.4149 0.0
H1403 H 0.76605 0.39356 0.47098 0.0
H1404 H 0.81682 0.42418 0.48213 0.0
H1405 H 0.80233 0.48907 0.43644 0.0
H1406 H 0.7516 0.45868 0.42476 0.0
H1407 H 0.5859 0.38826 0.48971 0.0
H1408 H 0.62693 0.37196 0.47452 0.0
H1409 H 0.65784 0.4447 0.42787 0.0
H1410 H 0.61714 0.46136 0.44331 0.0
H1411 H 0.70364 0.43463 0.45463 0.0
H1412 H 0.62232 0.3831 0.40098 0.0
H1413 H 0.57129 0.35235 0.39095 0.0
H1414 H 0.58891 0.28643 0.43309 0.0
H1415 H 0.63994 0.31693 0.44368 0.0
C1416 C 0.79286 0.37371 0.40156 0.0
C1417 C 0.79411 0.34863 0.41197 0.0
C1418 C 0.76839 0.38333 0.40651 0.0
C1419 C 0.74507 0.36807 0.42211 0.0
C1420 C 0.74617 0.34261 0.43198 0.0
C1421 C 0.77058 0.33299 0.42697 0.0
C1422 C 0.71982 0.37879 0.42868 0.0
C1423 C 0.69029 0.36184 0.4238 0.0
C1424 C 0.72468 0.40545 0.43977 0.0
C1425 C 0.75518 0.42374 0.44676 0.0
C1426 C 0.77379 0.41428 0.46314 0.0
C1427 C 0.80254 0.4316 0.46959 0.0
C1428 C 0.81283 0.45852 0.45994 0.0
C1429 C 0.79436 0.4682 0.44387 0.0
C1430 C 0.7656 0.45094 0.43733 0.0
C1431 C 0.60147 0.40079 0.47625 0.0
C1432 C 0.59827 0.42605 0.46766 0.0
C1433 C 0.62475 0.39136 0.46744 0.0
C1434 C 0.64525 0.407 0.44988 0.0
C1435 C 0.64217 0.43226 0.44132 0.0
C1436 C 0.6188 0.44164 0.45003 0.0
C1437 C 0.67042 0.39735 0.44105 0.0
C1438 C 0.69993 0.41449 0.44554 0.0
C1439 C 0.66552 0.37083 0.4297 0.0
C1440 C 0.63487 0.3524 0.42331 0.0
C1441 C 0.61524 0.36212 0.40828 0.0
C1442 C 0.58633 0.34472 0.40247 0.0
C1443 C 0.57684 0.31748 0.41143 0.0
C1444 C 0.59628 0.30755 0.42618 0.0
C1445 C 0.62521 0.32488 0.43208 0.0
H1446 H 0.55445 0.30403 0.4069 0.0
H1447 H 0.83509 0.47191 0.46496 0.0
loop_
_geom_bond_atom_site_label_1
_geom_bond_atom_site_label_2
_geom_bond_distance
_geom_bond_site_symmetry_2
_ccdc_geom_bond_type
H0 C3 0.929 . S
H1 C6 0.929 . S
H2 C8 0.930 . S
C3 H0 0.929 . S
C3 C4 1.398 . S
C3 C5 1.396 . S
C4 C3 1.398 . S
C4 C8 1.407 . S
C5 C3 1.396 . S
C5 C6 1.394 . S
C6 H1 0.929 . S
C6 C5 1.394 . S
C6 C7 1.382 . S
C7 C6 1.382 . S
C7 C8 1.392 . S
C7 N9 1.420 . S
C8 H2 0.930 . S
C8 C4 1.407 . S
C8 C7 1.392 . S
N9 C7 1.420 . S
N9 C10 1.244 . S
C10 N9 1.244 . S
H11 C14 0.929 . S
H12 C17 0.929 . S
H13 C19 0.930 . S
C14 H11 0.929 . S
C14 C15 1.398 . S
C14 C16 1.396 . S
C15 C14 1.398 . S
C15 C19 1.407 . S
C16 C14 1.396 . S
C16 C17 1.394 . S
C17 H12 0.929 . S
C17 C16 1.394 . S
C17 C18 1.382 . S
C18 C17 1.382 . S
C18 C19 1.392 . S
C18 N20 1.420 . S
C19 H13 0.930 . S
C19 C15 1.407 . S
C19 C18 1.392 . S
N20 C18 1.420 . S
N20 C21 1.244 . S
C21 N20 1.244 . S
H22 C25 0.929 . S
H23 C28 0.929 . S
H24 C30 0.930 . S
C25 H22 0.929 . S
C25 C26 1.398 . S
C25 C27 1.396 . S
C26 C25 1.398 . S
C26 C30 1.407 . S
C27 C25 1.396 . S
C27 C28 1.394 . S
C28 H23 0.929 . S
C28 C27 1.394 . S
C28 C29 1.382 . S
C29 C28 1.382 . S
C29 C30 1.392 . S
C29 N31 1.420 . S
C30 H24 0.930 . S
C30 C26 1.407 . S
C30 C29 1.392 . S
N31 C29 1.420 . S
N31 C32 1.244 . S
C32 N31 1.244 . S
H33 C36 0.929 . S
H34 C39 0.929 . S
H35 C41 0.930 . S
C36 H33 0.929 . S
C36 C37 1.398 . S
C36 C38 1.396 . S
C37 C36 1.398 . S
C37 C41 1.407 . S
C38 C36 1.396 . S
C38 C39 1.394 . S
C39 H34 0.929 . S
C39 C38 1.394 . S
C39 C40 1.382 . S
C40 C39 1.382 . S
C40 C41 1.392 . S
C40 N42 1.420 . S
C41 H35 0.930 . S
C41 C37 1.407 . S
C41 C40 1.392 . S
N42 C40 1.420 . S
N42 C43 1.244 . S
C43 N42 1.244 . S
H44 C47 0.929 . S
H45 C50 0.929 . S
H46 C52 0.930 . S
C47 H44 0.929 . S
C47 C48 1.398 . S
C47 C49 1.396 . S
C48 C47 1.398 . S
C48 C52 1.407 . S
C49 C47 1.396 . S
C49 C50 1.394 . S
C50 H45 0.929 . S
C50 C49 1.394 . S
C50 C51 1.382 . S
C51 C50 1.382 . S
C51 C52 1.392 . S
C51 N53 1.420 . S
C52 H46 0.930 . S
C52 C48 1.407 . S
C52 C51 1.392 . S
N53 C51 1.420 . S
N53 C54 1.244 . S
C54 N53 1.244 . S
H55 C58 0.929 . S
H56 C61 0.929 . S
H57 C63 0.930 . S
C58 H55 0.929 . S
C58 C59 1.398 . S
C58 C60 1.396 . S
C59 C58 1.398 . S
C59 C63 1.407 . S
C60 C58 1.396 . S
C60 C61 1.394 . S
C61 H56 0.929 . S
C61 C60 1.394 . S
C61 C62 1.382 . S
C62 C61 1.382 . S
C62 C63 1.392 . S
C62 N64 1.420 . S
C63 H57 0.930 . S
C63 C59 1.407 . S
C63 C62 1.392 . S
N64 C62 1.420 . S
N64 C65 1.244 . S
C65 N64 1.244 . S
H66 C69 0.929 . S
H67 C72 0.929 . S
H68 C74 0.930 . S
C69 H66 0.929 . S
C69 C70 1.398 . S
C69 C71 1.396 . S
C70 C69 1.398 . S
C70 C74 1.407 . S
C71 C69 1.396 . S
C71 C72 1.394 . S
C72 H67 0.929 . S
C72 C71 1.394 . S
C72 C73 1.382 . S
C73 C72 1.382 . S
C73 C74 1.392 . S
C73 N75 1.420 . S
C74 H68 0.930 . S
C74 C70 1.407 . S
C74 C73 1.392 . S
N75 C73 1.420 . S
N75 C76 1.244 . S
C76 N75 1.244 . S
H77 C80 0.929 . S
H78 C83 0.929 . S
H79 C85 0.930 . S
C80 H77 0.929 . S
C80 C81 1.398 . S
C80 C82 1.396 . S
C81 C80 1.398 . S
C81 C85 1.407 . S
C82 C80 1.396 . S
C82 C83 1.394 . S
C83 H78 0.929 . S
C83 C82 1.394 . S
C83 C84 1.382 . S
C84 C83 1.382 . S
C84 C85 1.392 . S
C84 N86 1.420 . S
C85 H79 0.930 . S
C85 C81 1.407 . S
C85 C84 1.392 . S
N86 C84 1.420 . S
N86 C87 1.244 . S
C87 N86 1.244 . S
Dy88 O91 2.307 . S
Dy88 O93 2.395 . S
Dy88 O94 2.379 . S
Dy88 O96 2.339 1_545 S
Dy88 O98 2.298 . S
Dy88 O102 2.275 . S
Dy88 C110 2.738 . S
Dy89 O92 2.298 1_655 S
Dy89 O95 2.275 1_545 S
Dy89 O97 2.307 . S
Dy89 O99 2.395 1_545 S
Dy89 O100 2.379 . S
Dy89 O103 2.339 1_655 S
Dy89 C119 2.738 1_545 S
C90 O102 1.254 . S
C90 O103 1.257 . S
O91 Dy88 2.307 . S
O91 C101 1.266 1_545 S
O92 Dy89 2.298 1_455 S
O92 C101 1.236 1_545 S
O93 Dy88 2.395 . S
O93 C110 1.255 . S
O94 Dy88 2.379 . S
O94 C110 1.249 . S
O95 Dy89 2.275 1_565 S
O95 C111 1.254 . S
O96 Dy88 2.339 1_565 S
O96 C111 1.257 1_455 S
O97 Dy89 2.307 . S
O97 C112 1.266 . S
O98 Dy88 2.298 . S
O98 C112 1.236 1_455 S
O99 Dy89 2.395 1_565 S
O99 C119 1.255 . S
O100 Dy89 2.379 . S
O100 C119 1.249 1_545 S
C101 O91 1.266 1_565 S
C101 O92 1.236 1_565 S
O102 Dy88 2.275 . S
O102 C90 1.254 . S
O103 Dy89 2.339 1_455 S
O103 C90 1.257 . S
C104 C107 1.344 . S
C104 C108 1.328 . S
C104 C110 1.516 . S
C105 C106 1.304 . S
C105 C109 1.323 . S
C106 C105 1.304 . S
C106 C107 1.371 . S
C106 H120 0.930 . S
C107 C104 1.344 . S
C107 C106 1.371 . S
C107 H121 0.931 . S
C108 C104 1.328 . S
C108 C109 1.433 . S
C108 H122 0.931 . S
C109 C105 1.323 . S
C109 C108 1.433 . S
C109 H123 0.933 . S
C110 Dy88 2.738 . S
C110 O93 1.255 . S
C110 O94 1.249 . S
C110 C104 1.516 . S
C111 O95 1.254 . S
C111 O96 1.257 1_655 S
C112 O97 1.266 . S
C112 O98 1.236 1_655 S
C113 C116 1.344 . S
C113 C117 1.328 . S
C113 C119 1.516 . S
C114 C115 1.304 . S
C114 C118 1.323 . S
C115 C114 1.304 . S
C115 C116 1.371 . S
C115 H124 0.930 . S
C116 C113 1.344 . S
C116 C115 1.371 . S
C116 H125 0.931 . S
C117 C113 1.328 . S
C117 C118 1.433 . S
C117 H126 0.931 . S
C118 C114 1.323 . S
C118 C117 1.433 . S
C118 H127 0.933 . S
C119 Dy89 2.738 1_565 S
C119 O99 1.255 . S
C119 O100 1.249 1_565 S
C119 C113 1.516 . S
H120 C106 0.930 . S
H121 C107 0.931 . S
H122 C108 0.931 . S
H123 C109 0.933 . S
H124 C115 0.930 . S
H125 C116 0.931 . S
H126 C117 0.931 . S
H127 C118 0.933 . S
Dy128 O131 2.307 . S
Dy128 O133 2.395 1_545 S
Dy128 O134 2.379 1_554 S
Dy128 O136 2.339 . S
Dy128 O138 2.298 . S
Dy128 O142 2.275 1_545 S
Dy128 C150 2.738 1_544 S
Dy129 O132 2.298 . S
Dy129 O135 2.275 . S
Dy129 O137 2.307 . S
Dy129 O139 2.395 . S
Dy129 O140 2.379 . S
Dy129 O143 2.339 1_545 S
Dy129 C159 2.738 . S
C130 O142 1.254 . S
C130 O143 1.257 . S
O131 Dy128 2.307 . S
O131 C141 1.266 . S
O132 Dy129 2.298 . S
O132 C141 1.236 . S
O133 Dy128 2.395 1_565 S
O133 C150 1.255 1_554 S
O134 Dy128 2.379 1_556 S
O134 C150 1.249 1_545 S
O135 Dy129 2.275 . S
O135 C151 1.254 . S
O136 Dy128 2.339 . S
O136 C151 1.257 . S
O137 Dy129 2.307 . S
O137 C152 1.266 1_545 S
O138 Dy128 2.298 . S
O138 C152 1.236 1_545 S
O139 Dy129 2.395 . S
O139 C159 1.255 . S
O140 Dy129 2.379 . S
O140 C159 1.249 . S
C141 O131 1.266 . S
C141 O132 1.236 . S
O142 Dy128 2.275 1_565 S
O142 C130 1.254 . S
O143 Dy129 2.339 1_565 S
O143 C130 1.257 . S
C144 C147 1.344 . S
C144 C148 1.328 . S
C144 C150 1.516 . S
C145 C146 1.304 . S
C145 C149 1.323 . S
C146 C145 1.304 . S
C146 C147 1.371 . S
C146 H160 0.930 . S
C147 C144 1.344 . S
C147 C146 1.371 . S
C147 H161 0.931 . S
C148 C144 1.328 . S
C148 C149 1.433 . S
C148 H162 0.931 . S
C149 C145 1.323 . S
C149 C148 1.433 . S
C149 H163 0.933 . S
C150 Dy128 2.738 1_566 S
C150 O133 1.255 1_556 S
C150 O134 1.249 1_565 S
C150 C144 1.516 . S
C151 O135 1.254 . S
C151 O136 1.257 . S
C152 O137 1.266 1_565 S
C152 O138 1.236 1_565 S
C153 C156 1.344 . S
C153 C157 1.328 . S
C153 C159 1.516 . S
C154 C155 1.304 . S
C154 C158 1.323 . S
C155 C154 1.304 . S
C155 C156 1.371 . S
C155 H164 0.930 . S
C156 C153 1.344 . S
C156 C155 1.371 . S
C156 H165 0.931 . S
C157 C153 1.328 . S
C157 C158 1.433 . S
C157 H166 0.931 . S
C158 C154 1.323 . S
C158 C157 1.433 . S
C158 H167 0.933 . S
C159 Dy129 2.738 . S
C159 O139 1.255 . S
C159 O140 1.249 . S
C159 C153 1.516 . S
H160 C146 0.930 . S
H161 C147 0.931 . S
H162 C148 0.931 . S
H163 C149 0.933 . S
H164 C155 0.930 . S
H165 C156 0.931 . S
H166 C157 0.931 . S
H167 C158 0.933 . S
Dy168 O171 2.307 . S
Dy168 O173 2.395 . S
Dy168 O174 2.379 . S
Dy168 O176 2.339 . S
Dy168 O178 2.298 . S
Dy168 O182 2.275 . S
Dy168 C190 2.738 . S
Dy169 O172 2.298 . S
Dy169 O175 2.275 . S
Dy169 O177 2.307 . S
Dy169 O179 2.395 . S
Dy169 O180 2.379 . S
Dy169 O183 2.339 . S
Dy169 C199 2.738 . S
C170 O182 1.254 . S
C170 O183 1.257 . S
O171 Dy168 2.307 . S
O171 C181 1.266 . S
O172 Dy169 2.298 . S
O172 C181 1.236 . S
O173 Dy168 2.395 . S
O173 C190 1.255 . S
O174 Dy168 2.379 . S
O174 C190 1.249 . S
O175 Dy169 2.275 . S
O175 C191 1.254 . S
O176 Dy168 2.339 . S
O176 C191 1.257 . S
O177 Dy169 2.307 . S
O177 C192 1.266 . S
O178 Dy168 2.298 . S
O178 C192 1.236 . S
O179 Dy169 2.395 . S
O179 C199 1.255 . S
O180 Dy169 2.379 . S
O180 C199 1.249 . S
C181 O171 1.266 . S
C181 O172 1.236 . S
O182 Dy168 2.275 . S
O182 C170 1.254 . S
O183 Dy169 2.339 . S
O183 C170 1.257 . S
C184 C187 1.344 . S
C184 C188 1.328 . S
C184 C190 1.516 . S
C185 C186 1.304 . S
C185 C189 1.323 . S
C186 C185 1.304 . S
C186 C187 1.371 . S
C186 H200 0.930 . S
C187 C184 1.344 . S
C187 C186 1.371 . S
C187 H201 0.931 . S
C188 C184 1.328 . S
C188 C189 1.433 . S
C188 H202 0.931 . S
C189 C185 1.323 . S
C189 C188 1.433 . S
C189 H203 0.933 . S
C190 Dy168 2.738 . S
C190 O173 1.255 . S
C190 O174 1.249 . S
C190 C184 1.516 . S
C191 O175 1.254 . S
C191 O176 1.257 . S
C192 O177 1.266 . S
C192 O178 1.236 . S
C193 C196 1.344 . S
C193 C197 1.328 . S
C193 C199 1.516 . S
C194 C195 1.304 . S
C194 C198 1.323 . S
C195 C194 1.304 . S
C195 C196 1.371 . S
C195 H204 0.930 . S
C196 C193 1.344 . S
C196 C195 1.371 . S
C196 H205 0.931 . S
C197 C193 1.328 . S
C197 C198 1.433 . S
C197 H206 0.931 . S
C198 C194 1.323 . S
C198 C197 1.433 . S
C198 H207 0.933 . S
C199 Dy169 2.738 . S
C199 O179 1.255 . S
C199 O180 1.249 . S
C199 C193 1.516 . S
H200 C186 0.930 . S
H201 C187 0.931 . S
H202 C188 0.931 . S
H203 C189 0.933 . S
H204 C195 0.930 . S
H205 C196 0.931 . S
H206 C197 0.931 . S
H207 C198 0.933 . S
Dy208 O211 2.307 1_556 S
Dy208 O213 2.395 1_455 S
Dy208 O214 2.379 . S
Dy208 O216 2.339 . S
Dy208 O218 2.298 1_455 S
Dy208 O222 2.275 1_556 S
Dy208 C230 2.738 1_455 S
Dy209 O212 2.298 . S
Dy209 O215 2.275 1_554 S
Dy209 O217 2.307 1_455 S
Dy209 O219 2.395 . S
Dy209 O220 2.379 . S
Dy209 O223 2.339 . S
Dy209 C239 2.738 . S
C210 O222 1.254 . S
C210 O223 1.257 . S
O211 Dy208 2.307 1_554 S
O211 C221 1.266 . S
O212 Dy209 2.298 . S
O212 C221 1.236 . S
O213 Dy208 2.395 1_655 S
O213 C230 1.255 . S
O214 Dy208 2.379 . S
O214 C230 1.249 1_455 S
O215 Dy209 2.275 1_556 S
O215 C231 1.254 . S
O216 Dy208 2.339 . S
O216 C231 1.257 . S
O217 Dy209 2.307 1_655 S
O217 C232 1.266 1_554 S
O218 Dy208 2.298 1_655 S
O218 C232 1.236 . S
O219 Dy209 2.395 . S
O219 C239 1.255 . S
O220 Dy209 2.379 . S
O220 C239 1.249 . S
C221 O211 1.266 . S
C221 O212 1.236 . S
O222 Dy208 2.275 1_554 S
O222 C210 1.254 . S
O223 Dy209 2.339 . S
O223 C210 1.257 . S
C224 C227 1.344 . S
C224 C228 1.328 . S
C224 C230 1.516 . S
C225 C226 1.304 . S
C225 C229 1.323 . S
C226 C225 1.304 . S
C226 C227 1.371 . S
C226 H240 0.930 . S
C227 C224 1.344 . S
C227 C226 1.371 . S
C227 H241 0.931 . S
C228 C224 1.328 . S
C228 C229 1.433 . S
C228 H242 0.931 . S
C229 C225 1.323 . S
C229 C228 1.433 . S
C229 H243 0.933 . S
C230 Dy208 2.738 1_655 S
C230 O213 1.255 . S
C230 O214 1.249 1_655 S
C230 C224 1.516 . S
C231 O215 1.254 . S
C231 O216 1.257 . S
C232 O217 1.266 1_556 S
C232 O218 1.236 . S
C233 C236 1.344 . S
C233 C237 1.328 . S
C233 C239 1.516 . S
C234 C235 1.304 . S
C234 C238 1.323 . S
C235 C234 1.304 . S
C235 C236 1.371 . S
C235 H244 0.930 . S
C236 C233 1.344 . S
C236 C235 1.371 . S
C236 H245 0.931 . S
C237 C233 1.328 . S
C237 C238 1.433 . S
C237 H246 0.931 . S
C238 C234 1.323 . S
C238 C237 1.433 . S
C238 H247 0.933 . S
C239 Dy209 2.738 . S
C239 O219 1.255 . S
C239 O220 1.249 . S
C239 C233 1.516 . S
H240 C226 0.930 . S
H241 C227 0.931 . S
H242 C228 0.931 . S
H243 C229 0.933 . S
H244 C235 0.930 . S
H245 C236 0.931 . S
H246 C237 0.931 . S
H247 C238 0.933 . S
H248 C266 0.951 . S
H249 C268 0.951 . S
H250 C270 0.950 . S
H251 C271 0.950 . S
H252 C273 0.950 . S
H253 C276 0.950 . S
H254 C277 0.950 . S
H255 C279 0.950 . S
H256 C280 0.950 . S
H257 C281 0.951 . S
H258 C283 0.951 . S
H259 C285 0.950 . S
H260 C286 0.950 . S
H261 C288 0.950 . S
H262 C291 0.950 . S
H263 C292 0.950 . S
H264 C294 0.950 . S
H265 C295 0.950 . S
C266 H248 0.951 . S
C266 C267 1.366 . S
C266 C268 1.388 . S
C267 C266 1.366 . S
C267 C271 1.385 . S
C268 H249 0.951 . S
C268 C266 1.388 . S
C268 C269 1.366 . S
C269 C268 1.366 . S
C269 C270 1.414 . S
C269 C272 1.499 . S
C270 H250 0.950 . S
C270 C269 1.414 . S
C270 C271 1.374 . S
C271 H251 0.950 . S
C271 C267 1.385 . S
C271 C270 1.374 . S
C272 C269 1.499 . S
C272 C273 1.373 . S
C272 C274 1.389 . S
C273 H252 0.950 . S
C273 C272 1.373 . S
C273 C289 1.377 . S
C274 C272 1.389 . S
C274 C275 1.524 . S
C274 C288 1.377 . S
C275 C274 1.524 . S
C275 C276 1.397 . S
C275 C280 1.363 . S
C276 H253 0.950 . S
C276 C275 1.397 . S
C276 C277 1.334 . S
C277 H254 0.950 . S
C277 C276 1.334 . S
C277 C278 1.287 . S
C278 C277 1.287 . S
C278 C279 1.524 . S
C278 H297 0.913 . S
C279 H255 0.950 . S
C279 C278 1.524 . S
C279 C280 1.415 . S
C280 H256 0.950 . S
C280 C275 1.363 . S
C280 C279 1.415 . S
C281 H257 0.951 . S
C281 C282 1.366 . S
C281 C283 1.388 . S
C282 C281 1.366 . S
C282 C286 1.385 . S
C283 H258 0.951 . S
C283 C281 1.388 . S
C283 C284 1.366 . S
C284 C283 1.366 . S
C284 C285 1.414 . S
C284 C287 1.499 . S
C285 H259 0.950 . S
C285 C284 1.414 . S
C285 C286 1.374 . S
C286 H260 0.950 . S
C286 C282 1.385 . S
C286 C285 1.374 . S
C287 C284 1.499 . S
C287 C288 1.373 . S
C287 C289 1.389 . S
C288 H261 0.950 . S
C288 C274 1.377 . S
C288 C287 1.373 . S
C289 C273 1.377 . S
C289 C287 1.389 . S
C289 C290 1.524 . S
C290 C289 1.524 . S
C290 C291 1.397 . S
C290 C295 1.363 . S
C291 H262 0.950 . S
C291 C290 1.397 . S
C291 C292 1.334 . S
C292 H263 0.950 . S
C292 C291 1.334 . S
C292 C293 1.287 . S
C293 C292 1.287 . S
C293 C294 1.524 . S
C293 H296 0.999 . S
C294 H264 0.950 . S
C294 C293 1.524 . S
C294 C295 1.415 . S
C295 H265 0.950 . S
C295 C290 1.363 . S
C295 C294 1.415 . S
H296 C293 0.999 . S
H297 C278 0.913 . S
H298 C316 0.951 . S
H299 C318 0.951 . S
H300 C320 0.950 . S
H301 C321 0.950 . S
H302 C323 0.950 . S
H303 C326 0.950 . S
H304 C327 0.950 . S
H305 C329 0.950 . S
H306 C330 0.950 . S
H307 C331 0.951 . S
H308 C333 0.951 . S
H309 C335 0.950 . S
H310 C336 0.950 . S
H311 C338 0.950 . S
H312 C341 0.950 . S
H313 C342 0.950 . S
H314 C344 0.950 . S
H315 C345 0.950 . S
C316 H298 0.951 . S
C316 C317 1.366 . S
C316 C318 1.388 . S
C317 C316 1.366 . S
C317 C321 1.385 . S
C318 H299 0.951 . S
C318 C316 1.388 . S
C318 C319 1.366 . S
C319 C318 1.366 . S
C319 C320 1.414 . S
C319 C322 1.499 . S
C320 H300 0.950 . S
C320 C319 1.414 . S
C320 C321 1.374 . S
C321 H301 0.950 . S
C321 C317 1.385 . S
C321 C320 1.374 . S
C322 C319 1.499 . S
C322 C323 1.373 . S
C322 C324 1.389 . S
C323 H302 0.950 . S
C323 C322 1.373 . S
C323 C339 1.377 . S
C324 C322 1.389 . S
C324 C325 1.524 . S
C324 C338 1.377 . S
C325 C324 1.524 . S
C325 C326 1.397 . S
C325 C330 1.363 . S
C326 H303 0.950 . S
C326 C325 1.397 . S
C326 C327 1.334 . S
C327 H304 0.950 . S
C327 C326 1.334 . S
C327 C328 1.287 . S
C328 C327 1.287 . S
C328 C329 1.524 . S
C328 H347 0.913 . S
C329 H305 0.950 . S
C329 C328 1.524 . S
C329 C330 1.415 . S
C330 H306 0.950 . S
C330 C325 1.363 . S
C330 C329 1.415 . S
C331 H307 0.951 . S
C331 C332 1.366 . S
C331 C333 1.388 . S
C332 C331 1.366 . S
C332 C336 1.385 . S
C333 H308 0.951 . S
C333 C331 1.388 . S
C333 C334 1.366 . S
C334 C333 1.366 . S
C334 C335 1.414 . S
C334 C337 1.499 . S
C335 H309 0.950 . S
C335 C334 1.414 . S
C335 C336 1.374 . S
C336 H310 0.950 . S
C336 C332 1.385 . S
C336 C335 1.374 . S
C337 C334 1.499 . S
C337 C338 1.373 . S
C337 C339 1.389 . S
C338 H311 0.950 . S
C338 C324 1.377 . S
C338 C337 1.373 . S
C339 C323 1.377 . S
C339 C337 1.389 . S
C339 C340 1.524 . S
C340 C339 1.524 . S
C340 C341 1.397 . S
C340 C345 1.363 . S
C341 H312 0.950 . S
C341 C340 1.397 . S
C341 C342 1.334 . S
C342 H313 0.950 . S
C342 C341 1.334 . S
C342 C343 1.287 . S
C343 C342 1.287 . S
C343 C344 1.524 . S
C343 H346 0.999 . S
C344 H314 0.950 . S
C344 C343 1.524 . S
C344 C345 1.415 . S
C345 H315 0.950 . S
C345 C340 1.363 . S
C345 C344 1.415 . S
H346 C343 0.999 . S
H347 C328 0.913 . S
H348 C366 0.951 . S
H349 C368 0.951 . S
H350 C370 0.950 . S
H351 C371 0.950 . S
H352 C373 0.950 . S
H353 C376 0.950 . S
H354 C377 0.950 . S
H355 C379 0.950 . S
H356 C380 0.950 . S
H357 C381 0.951 . S
H358 C383 0.951 . S
H359 C385 0.950 . S
H360 C386 0.950 . S
H361 C388 0.950 . S
H362 C391 0.950 . S
H363 C392 0.950 . S
H364 C394 0.950 . S
H365 C395 0.950 . S
C366 H348 0.951 . S
C366 C367 1.366 . S
C366 C368 1.388 . S
C367 C366 1.366 . S
C367 C371 1.385 . S
C368 H349 0.951 . S
C368 C366 1.388 . S
C368 C369 1.366 . S
C369 C368 1.366 . S
C369 C370 1.414 . S
C369 C372 1.499 . S
C370 H350 0.950 . S
C370 C369 1.414 . S
C370 C371 1.374 . S
C371 H351 0.950 . S
C371 C367 1.385 . S
C371 C370 1.374 . S
C372 C369 1.499 . S
C372 C373 1.373 . S
C372 C374 1.389 . S
C373 H352 0.950 . S
C373 C372 1.373 . S
C373 C389 1.377 . S
C374 C372 1.389 . S
C374 C375 1.524 . S
C374 C388 1.377 . S
C375 C374 1.524 . S
C375 C376 1.397 . S
C375 C380 1.363 . S
C376 H353 0.950 . S
C376 C375 1.397 . S
C376 C377 1.334 . S
C377 H354 0.950 . S
C377 C376 1.334 . S
C377 C378 1.287 . S
C378 C377 1.287 . S
C378 C379 1.524 . S
C378 H397 0.913 . S
C379 H355 0.950 . S
C379 C378 1.524 . S
C379 C380 1.415 . S
C380 H356 0.950 . S
C380 C375 1.363 . S
C380 C379 1.415 . S
C381 H357 0.951 . S
C381 C382 1.366 . S
C381 C383 1.388 . S
C382 C381 1.366 . S
C382 C386 1.385 . S
C383 H358 0.951 . S
C383 C381 1.388 . S
C383 C384 1.366 . S
C384 C383 1.366 . S
C384 C385 1.414 . S
C384 C387 1.499 . S
C385 H359 0.950 . S
C385 C384 1.414 . S
C385 C386 1.374 . S
C386 H360 0.950 . S
C386 C382 1.385 . S
C386 C385 1.374 . S
C387 C384 1.499 . S
C387 C388 1.373 . S
C387 C389 1.389 . S
C388 H361 0.950 . S
C388 C374 1.377 . S
C388 C387 1.373 . S
C389 C373 1.377 . S
C389 C387 1.389 . S
C389 C390 1.524 . S
C390 C389 1.524 . S
C390 C391 1.397 . S
C390 C395 1.363 . S
C391 H362 0.950 . S
C391 C390 1.397 . S
C391 C392 1.334 . S
C392 H363 0.950 . S
C392 C391 1.334 . S
C392 C393 1.287 . S
C393 C392 1.287 . S
C393 C394 1.524 . S
C393 H396 0.999 . S
C394 H364 0.950 . S
C394 C393 1.524 . S
C394 C395 1.415 . S
C395 H365 0.950 . S
C395 C390 1.363 . S
C395 C394 1.415 . S
H396 C393 0.999 . S
H397 C378 0.913 . S
H398 C416 0.951 . S
H399 C418 0.951 . S
H400 C420 0.950 . S
H401 C421 0.950 . S
H402 C423 0.950 . S
H403 C426 0.950 . S
H404 C427 0.950 . S
H405 C429 0.950 1_455 S
H406 C430 0.950 1_455 S
H407 C431 0.951 . S
H408 C433 0.951 . S
H409 C435 0.950 1_455 S
H410 C436 0.950 . S
H411 C438 0.950 . S
H412 C441 0.950 . S
H413 C442 0.950 . S
H414 C444 0.950 . S
H415 C445 0.950 . S
C416 H398 0.951 . S
C416 C417 1.366 . S
C416 C418 1.388 . S
C417 C416 1.366 . S
C417 C421 1.385 . S
C418 H399 0.951 . S
C418 C416 1.388 . S
C418 C419 1.366 . S
C419 C418 1.366 . S
C419 C420 1.414 . S
C419 C422 1.499 . S
C420 H400 0.950 . S
C420 C419 1.414 . S
C420 C421 1.374 . S
C421 H401 0.950 . S
C421 C417 1.385 . S
C421 C420 1.374 . S
C422 C419 1.499 . S
C422 C423 1.373 . S
C422 C424 1.389 . S
C423 H402 0.950 . S
C423 C422 1.373 . S
C423 C439 1.377 . S
C424 C422 1.389 . S
C424 C425 1.524 . S
C424 C438 1.377 . S
C425 C424 1.524 . S
C425 C426 1.397 . S
C425 C430 1.363 . S
C426 H403 0.950 . S
C426 C425 1.397 . S
C426 C427 1.334 . S
C427 H404 0.950 . S
C427 C426 1.334 . S
C427 C428 1.287 . S
C428 C427 1.287 . S
C428 C429 1.524 . S
C428 H447 0.913 . S
C429 H405 0.950 1_655 S
C429 C428 1.524 . S
C429 C430 1.415 . S
C430 H406 0.950 1_655 S
C430 C425 1.363 . S
C430 C429 1.415 . S
C431 H407 0.951 . S
C431 C432 1.366 . S
C431 C433 1.388 . S
C432 C431 1.366 . S
C432 C436 1.385 1_655 S
C433 H408 0.951 . S
C433 C431 1.388 . S
C433 C434 1.366 . S
C434 C433 1.366 . S
C434 C435 1.414 . S
C434 C437 1.499 . S
C435 H409 0.950 1_655 S
C435 C434 1.414 . S
C435 C436 1.374 1_655 S
C436 H410 0.950 . S
C436 C432 1.385 1_455 S
C436 C435 1.374 1_455 S
C437 C434 1.499 . S
C437 C438 1.373 . S
C437 C439 1.389 . S
C438 H411 0.950 . S
C438 C424 1.377 . S
C438 C437 1.373 . S
C439 C423 1.377 . S
C439 C437 1.389 . S
C439 C440 1.524 . S
C440 C439 1.524 . S
C440 C441 1.397 . S
C440 C445 1.363 . S
C441 H412 0.950 . S
C441 C440 1.397 . S
C441 C442 1.334 . S
C442 H413 0.950 . S
C442 C441 1.334 . S
C442 C443 1.287 . S
C443 C442 1.287 . S
C443 C444 1.524 . S
C443 H446 0.999 . S
C444 H414 0.950 . S
C444 C443 1.524 . S
C444 C445 1.415 . S
C445 H415 0.950 . S
C445 C440 1.363 . S
C445 C444 1.415 . S
H446 C443 0.999 . S
H447 C428 0.913 . S
H448 C466 0.951 . S
H449 C468 0.951 . S
H450 C470 0.950 . S
H451 C471 0.950 . S
H452 C473 0.950 . S
H453 C476 0.950 . S
H454 C477 0.950 . S
H455 C479 0.950 . S
H456 C480 0.950 . S
H457 C481 0.951 . S
H458 C483 0.951 . S
H459 C485 0.950 . S
H460 C486 0.950 . S
H461 C488 0.950 . S
H462 C491 0.950 . S
H463 C492 0.950 . S
H464 C494 0.950 . S
H465 C495 0.950 . S
C466 H448 0.951 . S
C466 C467 1.366 . S
C466 C468 1.388 . S
C467 C466 1.366 . S
C467 C471 1.385 . S
C468 H449 0.951 . S
C468 C466 1.388 . S
C468 C469 1.366 . S
C469 C468 1.366 . S
C469 C470 1.414 . S
C469 C472 1.499 . S
C470 H450 0.950 . S
C470 C469 1.414 . S
C470 C471 1.374 . S
C471 H451 0.950 . S
C471 C467 1.385 . S
C471 C470 1.374 . S
C472 C469 1.499 . S
C472 C473 1.373 . S
C472 C474 1.389 . S
C473 H452 0.950 . S
C473 C472 1.373 . S
C473 C489 1.377 . S
C474 C472 1.389 . S
C474 C475 1.524 . S
C474 C488 1.377 . S
C475 C474 1.524 . S
C475 C476 1.397 . S
C475 C480 1.363 . S
C476 H453 0.950 . S
C476 C475 1.397 . S
C476 C477 1.334 . S
C477 H454 0.950 . S
C477 C476 1.334 . S
C477 C478 1.287 . S
C478 C477 1.287 . S
C478 C479 1.524 . S
C478 H497 0.913 . S
C479 H455 0.950 . S
C479 C478 1.524 . S
C479 C480 1.415 . S
C480 H456 0.950 . S
C480 C475 1.363 . S
C480 C479 1.415 . S
C481 H457 0.951 . S
C481 C482 1.366 . S
C481 C483 1.388 . S
C482 C481 1.366 . S
C482 C486 1.385 . S
C483 H458 0.951 . S
C483 C481 1.388 . S
C483 C484 1.366 . S
C484 C483 1.366 . S
C484 C485 1.414 . S
C484 C487 1.499 . S
C485 H459 0.950 . S
C485 C484 1.414 . S
C485 C486 1.374 . S
C486 H460 0.950 . S
C486 C482 1.385 . S
C486 C485 1.374 . S
C487 C484 1.499 . S
C487 C488 1.373 . S
C487 C489 1.389 . S
C488 H461 0.950 . S
C488 C474 1.377 . S
C488 C487 1.373 . S
C489 C473 1.377 . S
C489 C487 1.389 . S
C489 C490 1.524 . S
C490 C489 1.524 . S
C490 C491 1.397 . S
C490 C495 1.363 . S
C491 H462 0.950 . S
C491 C490 1.397 . S
C491 C492 1.334 . S
C492 H463 0.950 . S
C492 C491 1.334 . S
C492 C493 1.287 . S
C493 C492 1.287 . S
C493 C494 1.524 . S
C493 H496 0.999 . S
C494 H464 0.950 . S
C494 C493 1.524 . S
C494 C495 1.415 . S
C495 H465 0.950 . S
C495 C490 1.363 . S
C495 C494 1.415 . S
H496 C493 0.999 . S
H497 C478 0.913 . S
H498 C516 0.951 . S
H499 C518 0.951 . S
H500 C520 0.950 . S
H501 C521 0.950 . S
H502 C523 0.950 . S
H503 C526 0.950 . S
H504 C527 0.950 . S
H505 C529 0.950 . S
H506 C530 0.950 . S
H507 C531 0.951 . S
H508 C533 0.951 . S
H509 C535 0.950 . S
H510 C536 0.950 . S
H511 C538 0.950 . S
H512 C541 0.950 . S
H513 C542 0.950 . S
H514 C544 0.950 . S
H515 C545 0.949 1_655 S
C516 H498 0.951 . S
C516 C517 1.366 . S
C516 C518 1.388 . S
C517 C516 1.366 . S
C517 C521 1.385 . S
C518 H499 0.951 . S
C518 C516 1.388 . S
C518 C519 1.366 . S
C519 C518 1.366 . S
C519 C520 1.414 . S
C519 C522 1.499 . S
C520 H500 0.950 . S
C520 C519 1.414 . S
C520 C521 1.374 . S
C521 H501 0.950 . S
C521 C517 1.385 . S
C521 C520 1.374 . S
C522 C519 1.499 . S
C522 C523 1.373 . S
C522 C524 1.389 . S
C523 H502 0.950 . S
C523 C522 1.373 . S
C523 C539 1.377 . S
C524 C522 1.389 . S
C524 C525 1.524 . S
C524 C538 1.377 . S
C525 C524 1.524 . S
C525 C526 1.397 . S
C525 C530 1.363 . S
C526 H503 0.950 . S
C526 C525 1.397 . S
C526 C527 1.334 . S
C527 H504 0.950 . S
C527 C526 1.334 . S
C527 C528 1.287 . S
C528 C527 1.287 . S
C528 C529 1.524 . S
C528 H547 0.913 . S
C529 H505 0.950 . S
C529 C528 1.524 . S
C529 C530 1.415 . S
C530 H506 0.950 . S
C530 C525 1.363 . S
C530 C529 1.415 . S
C531 H507 0.951 . S
C531 C532 1.366 . S
C531 C533 1.388 . S
C532 C531 1.366 . S
C532 C536 1.385 . S
C533 H508 0.951 . S
C533 C531 1.388 . S
C533 C534 1.366 . S
C534 C533 1.366 . S
C534 C535 1.414 . S
C534 C537 1.499 . S
C535 H509 0.950 . S
C535 C534 1.414 . S
C535 C536 1.374 . S
C536 H510 0.950 . S
C536 C532 1.385 . S
C536 C535 1.374 . S
C537 C534 1.499 . S
C537 C538 1.373 . S
C537 C539 1.389 . S
C538 H511 0.950 . S
C538 C524 1.377 . S
C538 C537 1.373 . S
C539 C523 1.377 . S
C539 C537 1.389 . S
C539 C540 1.524 . S
C540 C539 1.524 . S
C540 C541 1.397 . S
C540 C545 1.385 . S
C541 H512 0.950 . S
C541 C540 1.397 . S
C541 C542 1.334 . S
C542 H513 0.950 . S
C542 C541 1.334 . S
C542 C543 1.287 1_455 S
C543 C542 1.287 1_655 S
C543 C544 1.524 . S
C543 H546 0.999 . S
C544 H514 0.950 . S
C544 C543 1.524 . S
C544 C545 1.395 1_655 S
C545 H515 0.949 1_455 S
C545 C540 1.385 . S
C545 C544 1.395 1_455 S
H546 C543 0.999 . S
H547 C528 0.913 . S
H548 C566 0.951 . S
H549 C568 0.951 . S
H550 C570 0.950 . S
H551 C571 0.950 . S
H552 C573 0.950 . S
H553 C576 0.950 . S
H554 C577 0.950 . S
H555 C579 0.950 . S
H556 C580 0.950 . S
H557 C581 0.951 . S
H558 C583 0.951 . S
H559 C585 0.950 . S
H560 C586 0.950 1_554 S
H561 C588 0.950 . S
H562 C591 0.950 . S
H563 C592 0.950 . S
H564 C594 0.950 . S
H565 C595 0.950 . S
C566 H548 0.951 . S
C566 C567 1.366 . S
C566 C568 1.388 . S
C567 C566 1.366 . S
C567 C571 1.385 . S
C568 H549 0.951 . S
C568 C566 1.388 . S
C568 C569 1.366 . S
C569 C568 1.366 . S
C569 C570 1.414 . S
C569 C572 1.499 . S
C570 H550 0.950 . S
C570 C569 1.414 . S
C570 C571 1.374 . S
C571 H551 0.950 . S
C571 C567 1.385 . S
C571 C570 1.374 . S
C572 C569 1.499 . S
C572 C573 1.373 . S
C572 C574 1.389 . S
C573 H552 0.950 . S
C573 C572 1.373 . S
C573 C589 1.377 . S
C574 C572 1.389 . S
C574 C575 1.524 . S
C574 C588 1.377 . S
C575 C574 1.524 . S
C575 C576 1.397 . S
C575 C580 1.363 . S
C576 H553 0.950 . S
C576 C575 1.397 . S
C576 C577 1.334 . S
C577 H554 0.950 . S
C577 C576 1.334 . S
C577 C578 1.287 . S
C578 C577 1.287 . S
C578 C579 1.524 . S
C578 H597 0.913 . S
C579 H555 0.950 . S
C579 C578 1.524 . S
C579 C580 1.415 . S
C580 H556 0.950 . S
C580 C575 1.363 . S
C580 C579 1.415 . S
C581 H557 0.951 . S
C581 C582 1.366 . S
C581 C583 1.388 . S
C582 C581 1.366 . S
C582 C586 1.385 . S
C583 H558 0.951 . S
C583 C581 1.388 . S
C583 C584 1.366 . S
C584 C583 1.366 . S
C584 C585 1.414 . S
C584 C587 1.499 . S
C585 H559 0.950 . S
C585 C584 1.414 . S
C585 C586 1.374 . S
C586 H560 0.950 1_556 S
C586 C582 1.385 . S
C586 C585 1.374 . S
C587 C584 1.499 . S
C587 C588 1.373 . S
C587 C589 1.389 . S
C588 H561 0.950 . S
C588 C574 1.377 . S
C588 C587 1.373 . S
C589 C573 1.377 . S
C589 C587 1.389 . S
C589 C590 1.524 . S
C590 C589 1.524 . S
C590 C591 1.397 . S
C590 C595 1.363 . S
C591 H562 0.950 . S
C591 C590 1.397 . S
C591 C592 1.334 . S
C592 H563 0.950 . S
C592 C591 1.334 . S
C592 C593 1.287 . S
C593 C592 1.287 . S
C593 C594 1.524 . S
C593 H596 0.999 . S
C594 H564 0.950 . S
C594 C593 1.524 . S
C594 C595 1.415 . S
C595 H565 0.950 . S
C595 C590 1.363 . S
C595 C594 1.415 . S
H596 C593 0.999 . S
H597 C578 0.913 . S
H598 C616 0.951 . S
H599 C618 0.951 . S
H600 C620 0.950 . S
H601 C621 0.950 . S
H602 C623 0.950 . S
H603 C626 0.950 . S
H604 C627 0.950 . S
H605 C629 0.950 . S
H606 C630 0.950 . S
H607 C631 0.951 . S
H608 C633 0.951 . S
H609 C635 0.950 . S
H610 C636 0.950 . S
H611 C638 0.950 . S
H612 C641 0.950 . S
H613 C642 0.950 . S
H614 C644 0.950 . S
H615 C645 0.950 . S
C616 H598 0.951 . S
C616 C617 1.366 . S
C616 C618 1.388 . S
C617 C616 1.366 . S
C617 C621 1.385 . S
C618 H599 0.951 . S
C618 C616 1.388 . S
C618 C619 1.366 . S
C619 C618 1.366 . S
C619 C620 1.414 . S
C619 C622 1.499 . S
C620 H600 0.950 . S
C620 C619 1.414 . S
C620 C621 1.374 . S
C621 H601 0.950 . S
C621 C617 1.385 . S
C621 C620 1.374 . S
C622 C619 1.499 . S
C622 C623 1.373 . S
C622 C624 1.389 . S
C623 H602 0.950 . S
C623 C622 1.373 . S
C623 C639 1.377 . S
C624 C622 1.389 . S
C624 C625 1.524 . S
C624 C638 1.377 . S
C625 C624 1.524 . S
C625 C626 1.397 . S
C625 C630 1.363 . S
C626 H603 0.950 . S
C626 C625 1.397 . S
C626 C627 1.334 . S
C627 H604 0.950 . S
C627 C626 1.334 . S
C627 C628 1.287 . S
C628 C627 1.287 . S
C628 C629 1.524 . S
C628 H647 0.913 . S
C629 H605 0.950 . S
C629 C628 1.524 . S
C629 C630 1.415 . S
C630 H606 0.950 . S
C630 C625 1.363 . S
C630 C629 1.415 . S
C631 H607 0.951 . S
C631 C632 1.366 . S
C631 C633 1.388 . S
C632 C631 1.366 . S
C632 C636 1.385 . S
C633 H608 0.951 . S
C633 C631 1.388 . S
C633 C634 1.366 . S
C634 C633 1.366 . S
C634 C635 1.414 . S
C634 C637 1.499 . S
C635 H609 0.950 . S
C635 C634 1.414 . S
C635 C636 1.374 . S
C636 H610 0.950 . S
C636 C632 1.385 . S
C636 C635 1.374 . S
C637 C634 1.499 . S
C637 C638 1.373 . S
C637 C639 1.389 . S
C638 H611 0.950 . S
C638 C624 1.377 . S
C638 C637 1.373 . S
C639 C623 1.377 . S
C639 C637 1.389 . S
C639 C640 1.524 . S
C640 C639 1.524 . S
C640 C641 1.397 . S
C640 C645 1.363 . S
C641 H612 0.950 . S
C641 C640 1.397 . S
C641 C642 1.334 . S
C642 H613 0.950 . S
C642 C641 1.334 . S
C642 C643 1.287 . S
C643 C642 1.287 . S
C643 C644 1.524 . S
C643 H646 0.999 . S
C644 H614 0.950 . S
C644 C643 1.524 . S
C644 C645 1.415 . S
C645 H615 0.950 . S
C645 C640 1.363 . S
C645 C644 1.415 . S
H646 C643 0.999 . S
H647 C628 0.913 . S
H648 C666 0.951 . S
H649 C668 0.951 . S
H650 C670 0.950 . S
H651 C671 0.950 . S
H652 C673 0.950 . S
H653 C676 0.950 . S
H654 C677 0.950 . S
H655 C679 0.950 . S
H656 C680 0.950 . S
H657 C681 0.951 . S
H658 C683 0.951 . S
H659 C685 0.950 . S
H660 C686 0.950 . S
H661 C688 0.950 . S
H662 C691 0.950 . S
H663 C692 0.950 . S
H664 C694 0.950 . S
H665 C695 0.950 . S
C666 H648 0.951 . S
C666 C667 1.366 . S
C666 C668 1.388 . S
C667 C666 1.366 . S
C667 C671 1.385 . S
C668 H649 0.951 . S
C668 C666 1.388 . S
C668 C669 1.366 . S
C669 C668 1.366 . S
C669 C670 1.414 . S
C669 C672 1.499 . S
C670 H650 0.950 . S
C670 C669 1.414 . S
C670 C671 1.374 . S
C671 H651 0.950 . S
C671 C667 1.385 . S
C671 C670 1.374 . S
C672 C669 1.499 . S
C672 C673 1.373 . S
C672 C674 1.389 . S
C673 H652 0.950 . S
C673 C672 1.373 . S
C673 C689 1.377 . S
C674 C672 1.389 . S
C674 C675 1.524 . S
C674 C688 1.377 . S
C675 C674 1.524 . S
C675 C676 1.397 . S
C675 C680 1.363 . S
C676 H653 0.950 . S
C676 C675 1.397 . S
C676 C677 1.334 . S
C677 H654 0.950 . S
C677 C676 1.334 . S
C677 C678 1.287 . S
C678 C677 1.287 . S
C678 C679 1.524 . S
C678 H697 0.913 . S
C679 H655 0.950 . S
C679 C678 1.524 . S
C679 C680 1.415 . S
C680 H656 0.950 . S
C680 C675 1.363 . S
C680 C679 1.415 . S
C681 H657 0.951 . S
C681 C682 1.366 . S
C681 C683 1.388 . S
C682 C681 1.366 . S
C682 C686 1.385 . S
C683 H658 0.951 . S
C683 C681 1.388 . S
C683 C684 1.366 . S
C684 C683 1.366 . S
C684 C685 1.414 . S
C684 C687 1.499 . S
C685 H659 0.950 . S
C685 C684 1.414 . S
C685 C686 1.374 . S
C686 H660 0.950 . S
C686 C682 1.385 . S
C686 C685 1.374 . S
C687 C684 1.499 . S
C687 C688 1.373 . S
C687 C689 1.389 . S
C688 H661 0.950 . S
C688 C674 1.377 . S
C688 C687 1.373 . S
C689 C673 1.377 . S
C689 C687 1.389 . S
C689 C690 1.524 . S
C690 C689 1.524 . S
C690 C691 1.397 . S
C690 C695 1.363 . S
C691 H662 0.950 . S
C691 C690 1.397 . S
C691 C692 1.334 . S
C692 H663 0.950 . S
C692 C691 1.334 . S
C692 C693 1.287 . S
C693 C692 1.287 . S
C693 C694 1.524 . S
C693 H696 0.999 . S
C694 H664 0.950 . S
C694 C693 1.524 . S
C694 C695 1.415 . S
C695 H665 0.950 . S
C695 C690 1.363 . S
C695 C694 1.415 . S
H696 C693 0.999 . S
H697 C678 0.913 . S
H698 C716 0.951 . S
H699 C718 0.951 . S
H700 C720 0.950 . S
H701 C721 0.950 . S
H702 C723 0.950 . S
H703 C726 0.950 . S
H704 C727 0.950 . S
H705 C729 0.950 . S
H706 C730 0.950 . S
H707 C731 0.951 . S
H708 C733 0.951 1_554 S
H709 C735 0.950 . S
H710 C736 0.950 . S
H711 C738 0.950 . S
H712 C741 0.950 . S
H713 C742 0.950 . S
H714 C744 0.950 . S
H715 C745 0.950 . S
C716 H698 0.951 . S
C716 C717 1.366 . S
C716 C718 1.388 . S
C717 C716 1.366 . S
C717 C721 1.385 . S
C718 H699 0.951 . S
C718 C716 1.388 . S
C718 C719 1.366 . S
C719 C718 1.366 . S
C719 C720 1.414 . S
C719 C722 1.499 . S
C720 H700 0.950 . S
C720 C719 1.414 . S
C720 C721 1.374 . S
C721 H701 0.950 . S
C721 C717 1.385 . S
C721 C720 1.374 . S
C722 C719 1.499 . S
C722 C723 1.373 . S
C722 C724 1.389 . S
C723 H702 0.950 . S
C723 C722 1.373 . S
C723 C739 1.377 . S
C724 C722 1.389 . S
C724 C725 1.524 . S
C724 C738 1.377 . S
C725 C724 1.524 . S
C725 C726 1.397 . S
C725 C730 1.363 . S
C726 H703 0.950 . S
C726 C725 1.397 . S
C726 C727 1.334 . S
C727 H704 0.950 . S
C727 C726 1.334 . S
C727 C728 1.287 . S
C728 C727 1.287 . S
C728 C729 1.524 . S
C728 H747 0.913 . S
C729 H705 0.950 . S
C729 C728 1.524 . S
C729 C730 1.415 . S
C730 H706 0.950 . S
C730 C725 1.363 . S
C730 C729 1.415 . S
C731 H707 0.951 . S
C731 C732 1.366 . S
C731 C733 1.388 1_554 S
C732 C731 1.366 . S
C732 C736 1.385 1_554 S
C733 H708 0.951 1_556 S
C733 C731 1.388 1_556 S
C733 C734 1.366 . S
C734 C733 1.366 . S
C734 C735 1.414 . S
C734 C737 1.499 . S
C735 H709 0.950 . S
C735 C734 1.414 . S
C735 C736 1.374 . S
C736 H710 0.950 . S
C736 C732 1.385 1_556 S
C736 C735 1.374 . S
C737 C734 1.499 . S
C737 C738 1.373 . S
C737 C739 1.389 . S
C738 H711 0.950 . S
C738 C724 1.377 . S
C738 C737 1.373 . S
C739 C723 1.377 . S
C739 C737 1.389 . S
C739 C740 1.524 . S
C740 C739 1.524 . S
C740 C741 1.397 . S
C740 C745 1.363 . S
C741 H712 0.950 . S
C741 C740 1.397 . S
C741 C742 1.334 . S
C742 H713 0.950 . S
C742 C741 1.334 . S
C742 C743 1.287 . S
C743 C742 1.287 . S
C743 C744 1.524 . S
C743 H746 0.999 . S
C744 H714 0.950 . S
C744 C743 1.524 . S
C744 C745 1.415 . S
C745 H715 0.950 . S
C745 C740 1.363 . S
C745 C744 1.415 . S
H746 C743 0.999 . S
H747 C728 0.913 . S
H748 C766 0.951 . S
H749 C768 0.951 . S
H750 C770 0.950 . S
H751 C771 0.950 . S
H752 C773 0.950 . S
H753 C776 0.950 . S
H754 C777 0.950 . S
H755 C779 0.950 . S
H756 C780 0.950 . S
H757 C781 0.951 . S
H758 C783 0.951 . S
H759 C785 0.950 . S
H760 C786 0.950 1_455 S
H761 C788 0.950 . S
H762 C791 0.950 . S
H763 C792 0.950 . S
H764 C794 0.950 . S
H765 C795 0.950 . S
C766 H748 0.951 . S
C766 C767 1.366 . S
C766 C768 1.388 . S
C767 C766 1.366 . S
C767 C771 1.385 . S
C768 H749 0.951 . S
C768 C766 1.388 . S
C768 C769 1.366 . S
C769 C768 1.366 . S
C769 C770 1.414 . S
C769 C772 1.499 . S
C770 H750 0.950 . S
C770 C769 1.414 . S
C770 C771 1.374 . S
C771 H751 0.950 . S
C771 C767 1.385 . S
C771 C770 1.374 . S
C772 C769 1.499 . S
C772 C773 1.373 . S
C772 C774 1.389 . S
C773 H752 0.950 . S
C773 C772 1.373 . S
C773 C789 1.377 . S
C774 C772 1.389 . S
C774 C775 1.524 . S
C774 C788 1.377 . S
C775 C774 1.524 . S
C775 C776 1.397 . S
C775 C780 1.363 . S
C776 H753 0.950 . S
C776 C775 1.397 . S
C776 C777 1.334 . S
C777 H754 0.950 . S
C777 C776 1.334 . S
C777 C778 1.287 . S
C778 C777 1.287 . S
C778 C779 1.524 . S
C778 H797 0.913 . S
C779 H755 0.950 . S
C779 C778 1.524 . S
C779 C780 1.415 . S
C780 H756 0.950 . S
C780 C775 1.363 . S
C780 C779 1.415 . S
C781 H757 0.951 . S
C781 C782 1.366 . S
C781 C783 1.388 . S
C782 C781 1.366 . S
C782 C786 1.385 . S
C783 H758 0.951 . S
C783 C781 1.388 . S
C783 C784 1.366 . S
C784 C783 1.366 . S
C784 C785 1.414 . S
C784 C787 1.499 . S
C785 H759 0.950 . S
C785 C784 1.414 . S
C785 C786 1.374 . S
C786 H760 0.950 1_655 S
C786 C782 1.385 . S
C786 C785 1.374 . S
C787 C784 1.499 . S
C787 C788 1.373 . S
C787 C789 1.389 . S
C788 H761 0.950 . S
C788 C774 1.377 . S
C788 C787 1.373 . S
C789 C773 1.377 . S
C789 C787 1.389 . S
C789 C790 1.524 . S
C790 C789 1.524 . S
C790 C791 1.397 . S
C790 C795 1.363 . S
C791 H762 0.950 . S
C791 C790 1.397 . S
C791 C792 1.334 . S
C792 H763 0.950 . S
C792 C791 1.334 . S
C792 C793 1.287 . S
C793 C792 1.287 . S
C793 C794 1.524 . S
C793 H796 0.999 . S
C794 H764 0.950 . S
C794 C793 1.524 . S
C794 C795 1.415 . S
C795 H765 0.950 . S
C795 C790 1.363 . S
C795 C794 1.415 . S
H796 C793 0.999 . S
H797 C778 0.913 . S
H798 C816 0.951 . S
H799 C818 0.951 . S
H800 C820 0.950 . S
H801 C821 0.950 . S
H802 C823 0.950 . S
H803 C826 0.950 . S
H804 C827 0.950 . S
H805 C829 0.950 . S
H806 C830 0.950 . S
H807 C831 0.951 . S
H808 C833 0.951 . S
H809 C835 0.950 . S
H810 C836 0.950 . S
H811 C838 0.950 . S
H812 C841 0.950 . S
H813 C842 0.950 . S
H814 C844 0.950 . S
H815 C845 0.950 . S
C816 H798 0.951 . S
C816 C817 1.366 . S
C816 C818 1.388 . S
C817 C816 1.366 . S
C817 C821 1.385 . S
C818 H799 0.951 . S
C818 C816 1.388 . S
C818 C819 1.366 . S
C819 C818 1.366 . S
C819 C820 1.414 . S
C819 C822 1.499 . S
C820 H800 0.950 . S
C820 C819 1.414 . S
C820 C821 1.374 . S
C821 H801 0.950 . S
C821 C817 1.385 . S
C821 C820 1.374 . S
C822 C819 1.499 . S
C822 C823 1.373 . S
C822 C824 1.389 . S
C823 H802 0.950 . S
C823 C822 1.373 . S
C823 C839 1.377 . S
C824 C822 1.389 . S
C824 C825 1.524 . S
C824 C838 1.377 . S
C825 C824 1.524 . S
C825 C826 1.397 . S
C825 C830 1.363 . S
C826 H803 0.950 . S
C826 C825 1.397 . S
C826 C827 1.334 . S
C827 H804 0.950 . S
C827 C826 1.334 . S
C827 C828 1.287 . S
C828 C827 1.287 . S
C828 C829 1.524 . S
C828 H847 0.913 . S
C829 H805 0.950 . S
C829 C828 1.524 . S
C829 C830 1.415 . S
C830 H806 0.950 . S
C830 C825 1.363 . S
C830 C829 1.415 . S
C831 H807 0.951 . S
C831 C832 1.366 . S
C831 C833 1.388 . S
C832 C831 1.366 . S
C832 C836 1.385 . S
C833 H808 0.951 . S
C833 C831 1.388 . S
C833 C834 1.366 . S
C834 C833 1.366 . S
C834 C835 1.414 . S
C834 C837 1.499 . S
C835 H809 0.950 . S
C835 C834 1.414 . S
C835 C836 1.374 . S
C836 H810 0.950 . S
C836 C832 1.385 . S
C836 C835 1.374 . S
C837 C834 1.499 . S
C837 C838 1.373 . S
C837 C839 1.389 . S
C838 H811 0.950 . S
C838 C824 1.377 . S
C838 C837 1.373 . S
C839 C823 1.377 . S
C839 C837 1.389 . S
C839 C840 1.524 . S
C840 C839 1.524 . S
C840 C841 1.397 . S
C840 C845 1.363 . S
C841 H812 0.950 . S
C841 C840 1.397 . S
C841 C842 1.334 . S
C842 H813 0.950 . S
C842 C841 1.334 . S
C842 C843 1.287 . S
C843 C842 1.287 . S
C843 C844 1.524 . S
C843 H846 0.999 . S
C844 H814 0.950 . S
C844 C843 1.524 . S
C844 C845 1.415 . S
C845 H815 0.950 . S
C845 C840 1.363 . S
C845 C844 1.415 . S
H846 C843 0.999 . S
H847 C828 0.913 . S
H848 C866 0.951 . S
H849 C868 0.951 . S
H850 C870 0.950 . S
H851 C871 0.950 . S
H852 C873 0.950 . S
H853 C876 0.950 . S
H854 C877 0.950 . S
H855 C879 0.950 . S
H856 C880 0.950 . S
H857 C881 0.951 . S
H858 C883 0.951 . S
H859 C885 0.950 . S
H860 C886 0.950 . S
H861 C888 0.950 . S
H862 C891 0.950 . S
H863 C892 0.950 . S
H864 C894 0.950 . S
H865 C895 0.950 . S
C866 H848 0.951 . S
C866 C867 1.366 . S
C866 C868 1.388 . S
C867 C866 1.366 . S
C867 C871 1.385 . S
C868 H849 0.951 . S
C868 C866 1.388 . S
C868 C869 1.366 . S
C869 C868 1.366 . S
C869 C870 1.414 . S
C869 C872 1.499 . S
C870 H850 0.950 . S
C870 C869 1.414 . S
C870 C871 1.374 . S
C871 H851 0.950 . S
C871 C867 1.385 . S
C871 C870 1.374 . S
C872 C869 1.499 . S
C872 C873 1.373 . S
C872 C874 1.389 . S
C873 H852 0.950 . S
C873 C872 1.373 . S
C873 C889 1.377 . S
C874 C872 1.389 . S
C874 C875 1.524 . S
C874 C888 1.377 . S
C875 C874 1.524 . S
C875 C876 1.397 . S
C875 C880 1.363 . S
C876 H853 0.950 . S
C876 C875 1.397 . S
C876 C877 1.334 . S
C877 H854 0.950 . S
C877 C876 1.334 . S
C877 C878 1.287 . S
C878 C877 1.287 . S
C878 C879 1.524 . S
C878 H897 0.913 . S
C879 H855 0.950 . S
C879 C878 1.524 . S
C879 C880 1.415 . S
C880 H856 0.950 . S
C880 C875 1.363 . S
C880 C879 1.415 . S
C881 H857 0.951 . S
C881 C882 1.366 . S
C881 C883 1.388 . S
C882 C881 1.366 . S
C882 C886 1.385 . S
C883 H858 0.951 . S
C883 C881 1.388 . S
C883 C884 1.366 . S
C884 C883 1.366 . S
C884 C885 1.414 . S
C884 C887 1.499 . S
C885 H859 0.950 . S
C885 C884 1.414 . S
C885 C886 1.374 . S
C886 H860 0.950 . S
C886 C882 1.385 . S
C886 C885 1.374 . S
C887 C884 1.499 . S
C887 C888 1.373 . S
C887 C889 1.389 . S
C888 H861 0.950 . S
C888 C874 1.377 . S
C888 C887 1.373 . S
C889 C873 1.377 . S
C889 C887 1.389 . S
C889 C890 1.524 . S
C890 C889 1.524 . S
C890 C891 1.397 . S
C890 C895 1.363 . S
C891 H862 0.950 . S
C891 C890 1.397 . S
C891 C892 1.334 . S
C892 H863 0.950 . S
C892 C891 1.334 . S
C892 C893 1.287 . S
C893 C892 1.287 . S
C893 C894 1.524 . S
C893 H896 0.999 . S
C894 H864 0.950 . S
C894 C893 1.524 . S
C894 C895 1.415 . S
C895 H865 0.950 . S
C895 C890 1.363 . S
C895 C894 1.415 . S
H896 C893 0.999 . S
H897 C878 0.913 . S
H898 C916 0.951 . S
H899 C918 0.951 . S
H900 C920 0.950 . S
H901 C921 0.950 . S
H902 C923 0.950 . S
H903 C926 0.950 . S
H904 C927 0.950 . S
H905 C929 0.950 . S
H906 C930 0.950 . S
H907 C931 0.951 . S
H908 C933 0.951 . S
H909 C935 0.950 . S
H910 C936 0.950 . S
H911 C938 0.950 . S
H912 C941 0.950 . S
H913 C942 0.950 . S
H914 C944 0.950 . S
H915 C945 0.950 . S
C916 H898 0.951 . S
C916 C917 1.366 . S
C916 C918 1.388 . S
C917 C916 1.366 . S
C917 C921 1.385 . S
C918 H899 0.951 . S
C918 C916 1.388 . S
C918 C919 1.366 . S
C919 C918 1.366 . S
C919 C920 1.414 . S
C919 C922 1.499 . S
C920 H900 0.950 . S
C920 C919 1.414 . S
C920 C921 1.374 . S
C921 H901 0.950 . S
C921 C917 1.385 . S
C921 C920 1.374 . S
C922 C919 1.499 . S
C922 C923 1.373 . S
C922 C924 1.389 . S
C923 H902 0.950 . S
C923 C922 1.373 . S
C923 C939 1.377 . S
C924 C922 1.389 . S
C924 C925 1.524 . S
C924 C938 1.377 . S
C925 C924 1.524 . S
C925 C926 1.397 . S
C925 C930 1.363 . S
C926 H903 0.950 . S
C926 C925 1.397 . S
C926 C927 1.334 . S
C927 H904 0.950 . S
C927 C926 1.334 . S
C927 C928 1.287 . S
C928 C927 1.287 . S
C928 C929 1.524 . S
C928 H947 0.913 . S
C929 H905 0.950 . S
C929 C928 1.524 . S
C929 C930 1.415 . S
C930 H906 0.950 . S
C930 C925 1.363 . S
C930 C929 1.415 . S
C931 H907 0.951 . S
C931 C932 1.366 . S
C931 C933 1.388 . S
C932 C931 1.366 . S
C932 C936 1.385 . S
C933 H908 0.951 . S
C933 C931 1.388 . S
C933 C934 1.366 . S
C934 C933 1.366 . S
C934 C935 1.414 . S
C934 C937 1.499 . S
C935 H909 0.950 . S
C935 C934 1.414 . S
C935 C936 1.374 . S
C936 H910 0.950 . S
C936 C932 1.385 . S
C936 C935 1.374 . S
C937 C934 1.499 . S
C937 C938 1.373 . S
C937 C939 1.389 . S
C938 H911 0.950 . S
C938 C924 1.377 . S
C938 C937 1.373 . S
C939 C923 1.377 . S
C939 C937 1.389 . S
C939 C940 1.524 . S
C940 C939 1.524 . S
C940 C941 1.397 . S
C940 C945 1.363 . S
C941 H912 0.950 . S
C941 C940 1.397 . S
C941 C942 1.334 . S
C942 H913 0.950 . S
C942 C941 1.334 . S
C942 C943 1.287 . S
C943 C942 1.287 . S
C943 C944 1.524 . S
C943 H946 0.999 . S
C944 H914 0.950 . S
C944 C943 1.524 . S
C944 C945 1.415 . S
C945 H915 0.950 . S
C945 C940 1.363 . S
C945 C944 1.415 . S
H946 C943 0.999 . S
H947 C928 0.913 . S
H948 C966 0.951 . S
H949 C968 0.951 . S
H950 C970 0.950 . S
H951 C971 0.950 . S
H952 C973 0.950 . S
H953 C976 0.950 . S
H954 C977 0.950 . S
H955 C979 0.950 . S
H956 C980 0.950 . S
H957 C981 0.951 . S
H958 C983 0.951 . S
H959 C985 0.950 . S
H960 C986 0.950 . S
H961 C988 0.950 . S
H962 C991 0.950 . S
H963 C992 0.950 . S
H964 C994 0.950 . S
H965 C995 0.950 . S
C966 H948 0.951 . S
C966 C967 1.366 . S
C966 C968 1.388 . S
C967 C966 1.366 . S
C967 C971 1.385 . S
C968 H949 0.951 . S
C968 C966 1.388 . S
C968 C969 1.366 . S
C969 C968 1.366 . S
C969 C970 1.414 . S
C969 C972 1.499 . S
C970 H950 0.950 . S
C970 C969 1.414 . S
C970 C971 1.374 . S
C971 H951 0.950 . S
C971 C967 1.385 . S
C971 C970 1.374 . S
C972 C969 1.499 . S
C972 C973 1.373 . S
C972 C974 1.389 . S
C973 H952 0.950 . S
C973 C972 1.373 . S
C973 C989 1.377 . S
C974 C972 1.389 . S
C974 C975 1.524 . S
C974 C988 1.377 . S
C975 C974 1.524 . S
C975 C976 1.397 . S
C975 C980 1.363 . S
C976 H953 0.950 . S
C976 C975 1.397 . S
C976 C977 1.334 . S
C977 H954 0.950 . S
C977 C976 1.334 . S
C977 C978 1.287 . S
C978 C977 1.287 . S
C978 C979 1.524 . S
C978 H997 0.913 . S
C979 H955 0.950 . S
C979 C978 1.524 . S
C979 C980 1.415 . S
C980 H956 0.950 . S
C980 C975 1.363 . S
C980 C979 1.415 . S
C981 H957 0.951 . S
C981 C982 1.366 . S
C981 C983 1.388 . S
C982 C981 1.366 . S
C982 C986 1.385 . S
C983 H958 0.951 . S
C983 C981 1.388 . S
C983 C984 1.366 . S
C984 C983 1.366 . S
C984 C985 1.414 . S
C984 C987 1.499 . S
C985 H959 0.950 . S
C985 C984 1.414 . S
C985 C986 1.374 . S
C986 H960 0.950 . S
C986 C982 1.385 . S
C986 C985 1.374 . S
C987 C984 1.499 . S
C987 C988 1.373 . S
C987 C989 1.389 . S
C988 H961 0.950 . S
C988 C974 1.377 . S
C988 C987 1.373 . S
C989 C973 1.377 . S
C989 C987 1.389 . S
C989 C990 1.524 . S
C990 C989 1.524 . S
C990 C991 1.397 . S
C990 C995 1.363 . S
C991 H962 0.950 . S
C991 C990 1.397 . S
C991 C992 1.334 . S
C992 H963 0.950 . S
C992 C991 1.334 . S
C992 C993 1.287 . S
C993 C992 1.287 . S
C993 C994 1.524 . S
C993 H996 0.999 . S
C994 H964 0.950 . S
C994 C993 1.524 . S
C994 C995 1.415 . S
C995 H965 0.950 . S
C995 C990 1.363 . S
C995 C994 1.415 . S
H996 C993 0.999 . S
H997 C978 0.913 . S
H998 C1016 0.951 . S
H999 C1018 0.951 . S
H1000 C1020 0.950 . S
H1001 C1021 0.950 . S
H1002 C1023 0.950 . S
H1003 C1026 0.950 . S
H1004 C1027 0.950 . S
H1005 C1029 0.950 . S
H1006 C1030 0.950 . S
H1007 C1031 0.951 . S
H1008 C1033 0.951 . S
H1009 C1035 0.950 . S
H1010 C1036 0.950 . S
H1011 C1038 0.950 . S
H1012 C1041 0.950 . S
H1013 C1042 0.950 . S
H1014 C1044 0.950 . S
H1015 C1045 0.950 . S
C1016 H998 0.951 . S
C1016 C1017 1.366 . S
C1016 C1018 1.388 . S
C1017 C1016 1.366 . S
C1017 C1021 1.385 . S
C1018 H999 0.951 . S
C1018 C1016 1.388 . S
C1018 C1019 1.366 . S
C1019 C1018 1.366 . S
C1019 C1020 1.414 . S
C1019 C1022 1.499 . S
C1020 H1000 0.950 . S
C1020 C1019 1.414 . S
C1020 C1021 1.374 . S
C1021 H1001 0.950 . S
C1021 C1017 1.385 . S
C1021 C1020 1.374 . S
C1022 C1019 1.499 . S
C1022 C1023 1.373 . S
C1022 C1024 1.389 . S
C1023 H1002 0.950 . S
C1023 C1022 1.373 . S
C1023 C1039 1.377 . S
C1024 C1022 1.389 . S
C1024 C1025 1.524 . S
C1024 C1038 1.377 . S
C1025 C1024 1.524 . S
C1025 C1026 1.397 . S
C1025 C1030 1.363 . S
C1026 H1003 0.950 . S
C1026 C1025 1.397 . S
C1026 C1027 1.334 . S
C1027 H1004 0.950 . S
C1027 C1026 1.334 . S
C1027 C1028 1.287 . S
C1028 C1027 1.287 . S
C1028 C1029 1.524 . S
C1028 H1047 0.913 . S
C1029 H1005 0.950 . S
C1029 C1028 1.524 . S
C1029 C1030 1.415 . S
C1030 H1006 0.950 . S
C1030 C1025 1.363 . S
C1030 C1029 1.415 . S
C1031 H1007 0.951 . S
C1031 C1032 1.366 . S
C1031 C1033 1.388 . S
C1032 C1031 1.366 . S
C1032 C1036 1.385 . S
C1033 H1008 0.951 . S
C1033 C1031 1.388 . S
C1033 C1034 1.366 . S
C1034 C1033 1.366 . S
C1034 C1035 1.414 . S
C1034 C1037 1.499 . S
C1035 H1009 0.950 . S
C1035 C1034 1.414 . S
C1035 C1036 1.374 . S
C1036 H1010 0.950 . S
C1036 C1032 1.385 . S
C1036 C1035 1.374 . S
C1037 C1034 1.499 . S
C1037 C1038 1.373 . S
C1037 C1039 1.389 . S
C1038 H1011 0.950 . S
C1038 C1024 1.377 . S
C1038 C1037 1.373 . S
C1039 C1023 1.377 . S
C1039 C1037 1.389 . S
C1039 C1040 1.524 . S
C1040 C1039 1.524 . S
C1040 C1041 1.397 . S
C1040 C1045 1.363 . S
C1041 H1012 0.950 . S
C1041 C1040 1.397 . S
C1041 C1042 1.334 . S
C1042 H1013 0.950 . S
C1042 C1041 1.334 . S
C1042 C1043 1.287 . S
C1043 C1042 1.287 . S
C1043 C1044 1.524 . S
C1043 H1046 0.999 . S
C1044 H1014 0.950 . S
C1044 C1043 1.524 . S
C1044 C1045 1.415 . S
C1045 H1015 0.950 . S
C1045 C1040 1.363 . S
C1045 C1044 1.415 . S
H1046 C1043 0.999 . S
H1047 C1028 0.913 . S
H1048 C1066 0.951 . S
H1049 C1068 0.951 . S
H1050 C1070 0.950 . S
H1051 C1071 0.950 . S
H1052 C1073 0.950 . S
H1053 C1076 0.950 . S
H1054 C1077 0.950 . S
H1055 C1079 0.950 . S
H1056 C1080 0.950 . S
H1057 C1081 0.951 . S
H1058 C1083 0.951 . S
H1059 C1085 0.950 . S
H1060 C1086 0.950 . S
H1061 C1088 0.950 . S
H1062 C1091 0.950 . S
H1063 C1092 0.950 1_545 S
H1064 C1094 0.950 . S
H1065 C1095 0.950 . S
C1066 H1048 0.951 . S
C1066 C1067 1.366 . S
C1066 C1068 1.388 . S
C1067 C1066 1.366 . S
C1067 C1071 1.385 . S
C1068 H1049 0.951 . S
C1068 C1066 1.388 . S
C1068 C1069 1.366 . S
C1069 C1068 1.366 . S
C1069 C1070 1.414 . S
C1069 C1072 1.499 . S
C1070 H1050 0.950 . S
C1070 C1069 1.414 . S
C1070 C1071 1.374 . S
C1071 H1051 0.950 . S
C1071 C1067 1.385 . S
C1071 C1070 1.374 . S
C1072 C1069 1.499 . S
C1072 C1073 1.373 . S
C1072 C1074 1.389 . S
C1073 H1052 0.950 . S
C1073 C1072 1.373 . S
C1073 C1089 1.377 . S
C1074 C1072 1.389 . S
C1074 C1075 1.524 . S
C1074 C1088 1.377 . S
C1075 C1074 1.524 . S
C1075 C1076 1.397 . S
C1075 C1080 1.363 . S
C1076 H1053 0.950 . S
C1076 C1075 1.397 . S
C1076 C1077 1.334 . S
C1077 H1054 0.950 . S
C1077 C1076 1.334 . S
C1077 C1078 1.261 1_556 S
C1078 C1077 1.261 1_554 S
C1078 C1079 1.533 . S
C1078 H1097 0.931 . S
C1079 H1055 0.950 . S
C1079 C1078 1.533 . S
C1079 C1080 1.415 1_554 S
C1080 H1056 0.950 . S
C1080 C1075 1.363 . S
C1080 C1079 1.415 1_556 S
C1081 H1057 0.951 . S
C1081 C1082 1.366 1_556 S
C1081 C1083 1.388 . S
C1082 C1081 1.366 1_554 S
C1082 C1086 1.385 . S
C1083 H1058 0.951 . S
C1083 C1081 1.388 . S
C1083 C1084 1.366 . S
C1084 C1083 1.366 . S
C1084 C1085 1.414 . S
C1084 C1087 1.499 . S
C1085 H1059 0.950 . S
C1085 C1084 1.414 . S
C1085 C1086 1.374 1_556 S
C1086 H1060 0.950 . S
C1086 C1082 1.385 . S
C1086 C1085 1.374 1_554 S
C1087 C1084 1.499 . S
C1087 C1088 1.373 . S
C1087 C1089 1.389 . S
C1088 H1061 0.950 . S
C1088 C1074 1.377 . S
C1088 C1087 1.373 . S
C1089 C1073 1.377 . S
C1089 C1087 1.389 . S
C1089 C1090 1.524 . S
C1090 C1089 1.524 . S
C1090 C1091 1.397 . S
C1090 C1095 1.363 . S
C1091 H1062 0.950 . S
C1091 C1090 1.397 . S
C1091 C1092 1.334 . S
C1092 H1063 0.950 1_565 S
C1092 C1091 1.334 . S
C1092 C1093 1.287 . S
C1093 C1092 1.287 . S
C1093 C1094 1.524 . S
C1093 H1096 0.999 . S
C1094 H1064 0.950 . S
C1094 C1093 1.524 . S
C1094 C1095 1.415 . S
C1095 H1065 0.950 . S
C1095 C1090 1.363 . S
C1095 C1094 1.415 . S
H1096 C1093 0.999 . S
H1097 C1078 0.931 . S
H1098 C1116 0.951 . S
H1099 C1118 0.951 . S
H1100 C1120 0.950 . S
H1101 C1121 0.950 . S
H1102 C1123 0.950 . S
H1103 C1126 0.950 . S
H1104 C1127 0.950 . S
H1105 C1129 0.950 . S
H1106 C1130 0.950 . S
H1107 C1131 0.951 . S
H1108 C1133 0.951 . S
H1109 C1135 0.950 . S
H1110 C1136 0.950 1_455 S
H1111 C1138 0.950 . S
H1112 C1141 0.950 . S
H1113 C1142 0.950 . S
H1114 C1144 0.950 . S
H1115 C1145 0.950 . S
C1116 H1098 0.951 . S
C1116 C1117 1.366 . S
C1116 C1118 1.388 . S
C1117 C1116 1.366 . S
C1117 C1121 1.385 . S
C1118 H1099 0.951 . S
C1118 C1116 1.388 . S
C1118 C1119 1.366 . S
C1119 C1118 1.366 . S
C1119 C1120 1.414 . S
C1119 C1122 1.499 . S
C1120 H1100 0.950 . S
C1120 C1119 1.414 . S
C1120 C1121 1.374 . S
C1121 H1101 0.950 . S
C1121 C1117 1.385 . S
C1121 C1120 1.374 . S
C1122 C1119 1.499 . S
C1122 C1123 1.373 . S
C1122 C1124 1.389 . S
C1123 H1102 0.950 . S
C1123 C1122 1.373 . S
C1123 C1139 1.377 . S
C1124 C1122 1.389 . S
C1124 C1125 1.524 . S
C1124 C1138 1.377 . S
C1125 C1124 1.524 . S
C1125 C1126 1.397 . S
C1125 C1130 1.363 . S
C1126 H1103 0.950 . S
C1126 C1125 1.397 . S
C1126 C1127 1.334 . S
C1127 H1104 0.950 . S
C1127 C1126 1.334 . S
C1127 C1128 1.287 . S
C1128 C1127 1.287 . S
C1128 C1129 1.524 . S
C1128 H1147 0.913 . S
C1129 H1105 0.950 . S
C1129 C1128 1.524 . S
C1129 C1130 1.415 . S
C1130 H1106 0.950 . S
C1130 C1125 1.363 . S
C1130 C1129 1.415 . S
C1131 H1107 0.951 . S
C1131 C1132 1.366 . S
C1131 C1133 1.388 . S
C1132 C1131 1.366 . S
C1132 C1136 1.385 . S
C1133 H1108 0.951 . S
C1133 C1131 1.388 . S
C1133 C1134 1.366 . S
C1134 C1133 1.366 . S
C1134 C1135 1.414 . S
C1134 C1137 1.499 . S
C1135 H1109 0.950 . S
C1135 C1134 1.414 . S
C1135 C1136 1.374 . S
C1136 H1110 0.950 1_655 S
C1136 C1132 1.385 . S
C1136 C1135 1.374 . S
C1137 C1134 1.499 . S
C1137 C1138 1.373 . S
C1137 C1139 1.389 . S
C1138 H1111 0.950 . S
C1138 C1124 1.377 . S
C1138 C1137 1.373 . S
C1139 C1123 1.377 . S
C1139 C1137 1.389 . S
C1139 C1140 1.524 . S
C1140 C1139 1.524 . S
C1140 C1141 1.397 . S
C1140 C1145 1.363 . S
C1141 H1112 0.950 . S
C1141 C1140 1.397 . S
C1141 C1142 1.334 . S
C1142 H1113 0.950 . S
C1142 C1141 1.334 . S
C1142 C1143 1.287 . S
C1143 C1142 1.287 . S
C1143 C1144 1.524 . S
C1143 H1146 0.999 . S
C1144 H1114 0.950 . S
C1144 C1143 1.524 . S
C1144 C1145 1.415 . S
C1145 H1115 0.950 . S
C1145 C1140 1.363 . S
C1145 C1144 1.415 . S
H1146 C1143 0.999 . S
H1147 C1128 0.913 . S
H1148 C1166 0.951 . S
H1149 C1168 0.951 . S
H1150 C1170 0.950 . S
H1151 C1171 0.950 . S
H1152 C1173 0.950 . S
H1153 C1176 0.950 . S
H1154 C1177 0.950 . S
H1155 C1179 0.950 . S
H1156 C1180 0.950 . S
H1157 C1181 0.951 . S
H1158 C1183 0.951 . S
H1159 C1185 0.950 . S
H1160 C1186 0.950 . S
H1161 C1188 0.950 . S
H1162 C1191 0.950 . S
H1163 C1192 0.950 . S
H1164 C1194 0.950 . S
H1165 C1195 0.950 . S
C1166 H1148 0.951 . S
C1166 C1167 1.366 . S
C1166 C1168 1.388 . S
C1167 C1166 1.366 . S
C1167 C1171 1.385 . S
C1168 H1149 0.951 . S
C1168 C1166 1.388 . S
C1168 C1169 1.366 . S
C1169 C1168 1.366 . S
C1169 C1170 1.414 . S
C1169 C1172 1.499 . S
C1170 H1150 0.950 . S
C1170 C1169 1.414 . S
C1170 C1171 1.374 . S
C1171 H1151 0.950 . S
C1171 C1167 1.385 . S
C1171 C1170 1.374 . S
C1172 C1169 1.499 . S
C1172 C1173 1.373 . S
C1172 C1174 1.389 . S
C1173 H1152 0.950 . S
C1173 C1172 1.373 . S
C1173 C1189 1.377 . S
C1174 C1172 1.389 . S
C1174 C1175 1.524 . S
C1174 C1188 1.377 . S
C1175 C1174 1.524 . S
C1175 C1176 1.397 . S
C1175 C1180 1.363 . S
C1176 H1153 0.950 . S
C1176 C1175 1.397 . S
C1176 C1177 1.334 . S
C1177 H1154 0.950 . S
C1177 C1176 1.334 . S
C1177 C1178 1.287 . S
C1178 C1177 1.287 . S
C1178 C1179 1.524 . S
C1178 H1197 0.913 . S
C1179 H1155 0.950 . S
C1179 C1178 1.524 . S
C1179 C1180 1.415 . S
C1180 H1156 0.950 . S
C1180 C1175 1.363 . S
C1180 C1179 1.415 . S
C1181 H1157 0.951 . S
C1181 C1182 1.366 . S
C1181 C1183 1.388 . S
C1182 C1181 1.366 . S
C1182 C1186 1.385 . S
C1183 H1158 0.951 . S
C1183 C1181 1.388 . S
C1183 C1184 1.366 . S
C1184 C1183 1.366 . S
C1184 C1185 1.414 . S
C1184 C1187 1.499 . S
C1185 H1159 0.950 . S
C1185 C1184 1.414 . S
C1185 C1186 1.374 . S
C1186 H1160 0.950 . S
C1186 C1182 1.385 . S
C1186 C1185 1.374 . S
C1187 C1184 1.499 . S
C1187 C1188 1.373 . S
C1187 C1189 1.389 . S
C1188 H1161 0.950 . S
C1188 C1174 1.377 . S
C1188 C1187 1.373 . S
C1189 C1173 1.377 . S
C1189 C1187 1.389 . S
C1189 C1190 1.524 . S
C1190 C1189 1.524 . S
C1190 C1191 1.397 . S
C1190 C1195 1.363 . S
C1191 H1162 0.950 . S
C1191 C1190 1.397 . S
C1191 C1192 1.334 . S
C1192 H1163 0.950 . S
C1192 C1191 1.334 . S
C1192 C1193 1.287 . S
C1193 C1192 1.287 . S
C1193 C1194 1.524 . S
C1193 H1196 0.999 . S
C1194 H1164 0.950 . S
C1194 C1193 1.524 . S
C1194 C1195 1.415 . S
C1195 H1165 0.950 . S
C1195 C1190 1.363 . S
C1195 C1194 1.415 . S
H1196 C1193 0.999 . S
H1197 C1178 0.913 . S
H1198 C1216 0.951 . S
H1199 C1218 0.951 . S
H1200 C1220 0.950 . S
H1201 C1221 0.950 . S
H1202 C1223 0.950 . S
H1203 C1226 0.950 . S
H1204 C1227 0.950 . S
H1205 C1229 0.950 . S
H1206 C1230 0.950 . S
H1207 C1231 0.951 . S
H1208 C1233 0.951 . S
H1209 C1235 0.950 . S
H1210 C1236 0.950 . S
H1211 C1238 0.950 . S
H1212 C1241 0.950 . S
H1213 C1242 0.950 . S
H1214 C1244 0.950 . S
H1215 C1245 0.950 . S
C1216 H1198 0.951 . S
C1216 C1217 1.366 . S
C1216 C1218 1.388 . S
C1217 C1216 1.366 . S
C1217 C1221 1.385 . S
C1218 H1199 0.951 . S
C1218 C1216 1.388 . S
C1218 C1219 1.366 . S
C1219 C1218 1.366 . S
C1219 C1220 1.414 . S
C1219 C1222 1.499 . S
C1220 H1200 0.950 . S
C1220 C1219 1.414 . S
C1220 C1221 1.374 . S
C1221 H1201 0.950 . S
C1221 C1217 1.385 . S
C1221 C1220 1.374 . S
C1222 C1219 1.499 . S
C1222 C1223 1.373 . S
C1222 C1224 1.389 . S
C1223 H1202 0.950 . S
C1223 C1222 1.373 . S
C1223 C1239 1.377 . S
C1224 C1222 1.389 . S
C1224 C1225 1.524 . S
C1224 C1238 1.377 . S
C1225 C1224 1.524 . S
C1225 C1226 1.397 . S
C1225 C1230 1.363 . S
C1226 H1203 0.950 . S
C1226 C1225 1.397 . S
C1226 C1227 1.334 . S
C1227 H1204 0.950 . S
C1227 C1226 1.334 . S
C1227 C1228 1.287 . S
C1228 C1227 1.287 . S
C1228 C1229 1.524 . S
C1228 H1247 0.913 . S
C1229 H1205 0.950 . S
C1229 C1228 1.524 . S
C1229 C1230 1.415 . S
C1230 H1206 0.950 . S
C1230 C1225 1.363 . S
C1230 C1229 1.415 . S
C1231 H1207 0.951 . S
C1231 C1232 1.366 . S
C1231 C1233 1.388 . S
C1232 C1231 1.366 . S
C1232 C1236 1.385 . S
C1233 H1208 0.951 . S
C1233 C1231 1.388 . S
C1233 C1234 1.366 . S
C1234 C1233 1.366 . S
C1234 C1235 1.414 . S
C1234 C1237 1.499 . S
C1235 H1209 0.950 . S
C1235 C1234 1.414 . S
C1235 C1236 1.374 . S
C1236 H1210 0.950 . S
C1236 C1232 1.385 . S
C1236 C1235 1.374 . S
C1237 C1234 1.499 . S
C1237 C1238 1.373 . S
C1237 C1239 1.389 . S
C1238 H1211 0.950 . S
C1238 C1224 1.377 . S
C1238 C1237 1.373 . S
C1239 C1223 1.377 . S
C1239 C1237 1.389 . S
C1239 C1240 1.524 . S
C1240 C1239 1.524 . S
C1240 C1241 1.397 . S
C1240 C1245 1.363 . S
C1241 H1212 0.950 . S
C1241 C1240 1.397 . S
C1241 C1242 1.334 . S
C1242 H1213 0.950 . S
C1242 C1241 1.334 . S
C1242 C1243 1.287 . S
C1243 C1242 1.287 . S
C1243 C1244 1.524 . S
C1243 H1246 0.999 . S
C1244 H1214 0.950 . S
C1244 C1243 1.524 . S
C1244 C1245 1.415 . S
C1245 H1215 0.950 . S
C1245 C1240 1.363 . S
C1245 C1244 1.415 . S
H1246 C1243 0.999 . S
H1247 C1228 0.913 . S
H1248 C1266 0.951 . S
H1249 C1268 0.951 . S
H1250 C1270 0.950 . S
H1251 C1271 0.950 . S
H1252 C1273 0.950 . S
H1253 C1276 0.950 . S
H1254 C1277 0.950 . S
H1255 C1279 0.950 . S
H1256 C1280 0.950 . S
H1257 C1281 0.951 . S
H1258 C1283 0.951 . S
H1259 C1285 0.950 . S
H1260 C1286 0.950 . S
H1261 C1288 0.950 . S
H1262 C1291 0.950 . S
H1263 C1292 0.950 . S
H1264 C1294 0.950 . S
H1265 C1295 0.950 . S
C1266 H1248 0.951 . S
C1266 C1267 1.366 . S
C1266 C1268 1.388 . S
C1267 C1266 1.366 . S
C1267 C1271 1.385 . S
C1268 H1249 0.951 . S
C1268 C1266 1.388 . S
C1268 C1269 1.366 . S
C1269 C1268 1.366 . S
C1269 C1270 1.414 . S
C1269 C1272 1.499 . S
C1270 H1250 0.950 . S
C1270 C1269 1.414 . S
C1270 C1271 1.374 . S
C1271 H1251 0.950 . S
C1271 C1267 1.385 . S
C1271 C1270 1.374 . S
C1272 C1269 1.499 . S
C1272 C1273 1.373 . S
C1272 C1274 1.389 . S
C1273 H1252 0.950 . S
C1273 C1272 1.373 . S
C1273 C1289 1.377 . S
C1274 C1272 1.389 . S
C1274 C1275 1.524 . S
C1274 C1288 1.377 . S
C1275 C1274 1.524 . S
C1275 C1276 1.397 . S
C1275 C1280 1.363 . S
C1276 H1253 0.950 . S
C1276 C1275 1.397 . S
C1276 C1277 1.334 . S
C1277 H1254 0.950 . S
C1277 C1276 1.334 . S
C1277 C1278 1.287 . S
C1278 C1277 1.287 . S
C1278 C1279 1.524 . S
C1278 H1297 0.913 . S
C1279 H1255 0.950 . S
C1279 C1278 1.524 . S
C1279 C1280 1.415 . S
C1280 H1256 0.950 . S
C1280 C1275 1.363 . S
C1280 C1279 1.415 . S
C1281 H1257 0.951 . S
C1281 C1282 1.366 . S
C1281 C1283 1.388 . S
C1282 C1281 1.366 . S
C1282 C1286 1.385 . S
C1283 H1258 0.951 . S
C1283 C1281 1.388 . S
C1283 C1284 1.366 . S
C1284 C1283 1.366 . S
C1284 C1285 1.414 . S
C1284 C1287 1.499 . S
C1285 H1259 0.950 . S
C1285 C1284 1.414 . S
C1285 C1286 1.374 . S
C1286 H1260 0.950 . S
C1286 C1282 1.385 . S
C1286 C1285 1.374 . S
C1287 C1284 1.499 . S
C1287 C1288 1.373 . S
C1287 C1289 1.389 . S
C1288 H1261 0.950 . S
C1288 C1274 1.377 . S
C1288 C1287 1.373 . S
C1289 C1273 1.377 . S
C1289 C1287 1.389 . S
C1289 C1290 1.524 . S
C1290 C1289 1.524 . S
C1290 C1291 1.397 . S
C1290 C1295 1.363 . S
C1291 H1262 0.950 . S
C1291 C1290 1.397 . S
C1291 C1292 1.334 . S
C1292 H1263 0.950 . S
C1292 C1291 1.334 . S
C1292 C1293 1.287 . S
C1293 C1292 1.287 . S
C1293 C1294 1.524 . S
C1293 H1296 0.999 . S
C1294 H1264 0.950 . S
C1294 C1293 1.524 . S
C1294 C1295 1.415 . S
C1295 H1265 0.950 . S
C1295 C1290 1.363 . S
C1295 C1294 1.415 . S
H1296 C1293 0.999 . S
H1297 C1278 0.913 . S
H1298 C1316 0.951 . S
H1299 C1318 0.951 . S
H1300 C1320 0.950 . S
H1301 C1321 0.950 . S
H1302 C1323 0.950 . S
H1303 C1326 0.950 . S
H1304 C1327 0.950 . S
H1305 C1329 0.950 . S
H1306 C1330 0.950 . S
H1307 C1331 0.951 . S
H1308 C1333 0.951 . S
H1309 C1335 0.950 . S
H1310 C1336 0.950 . S
H1311 C1338 0.950 . S
H1312 C1341 0.950 . S
H1313 C1342 0.950 . S
H1314 C1344 0.950 . S
H1315 C1345 0.950 . S
C1316 H1298 0.951 . S
C1316 C1317 1.366 . S
C1316 C1318 1.388 . S
C1317 C1316 1.366 . S
C1317 C1321 1.385 . S
C1318 H1299 0.951 . S
C1318 C1316 1.388 . S
C1318 C1319 1.366 . S
C1319 C1318 1.366 . S
C1319 C1320 1.414 . S
C1319 C1322 1.499 . S
C1320 H1300 0.950 . S
C1320 C1319 1.414 . S
C1320 C1321 1.374 . S
C1321 H1301 0.950 . S
C1321 C1317 1.385 . S
C1321 C1320 1.374 . S
C1322 C1319 1.499 . S
C1322 C1323 1.373 . S
C1322 C1324 1.389 . S
C1323 H1302 0.950 . S
C1323 C1322 1.373 . S
C1323 C1339 1.377 . S
C1324 C1322 1.389 . S
C1324 C1325 1.524 . S
C1324 C1338 1.377 . S
C1325 C1324 1.524 . S
C1325 C1326 1.397 . S
C1325 C1330 1.363 . S
C1326 H1303 0.950 . S
C1326 C1325 1.397 . S
C1326 C1327 1.334 . S
C1327 H1304 0.950 . S
C1327 C1326 1.334 . S
C1327 C1328 1.287 . S
C1328 C1327 1.287 . S
C1328 C1329 1.524 . S
C1328 H1347 0.913 . S
C1329 H1305 0.950 . S
C1329 C1328 1.524 . S
C1329 C1330 1.415 . S
C1330 H1306 0.950 . S
C1330 C1325 1.363 . S
C1330 C1329 1.415 . S
C1331 H1307 0.951 . S
C1331 C1332 1.366 . S
C1331 C1333 1.388 . S
C1332 C1331 1.366 . S
C1332 C1336 1.385 . S
C1333 H1308 0.951 . S
C1333 C1331 1.388 . S
C1333 C1334 1.366 . S
C1334 C1333 1.366 . S
C1334 C1335 1.414 . S
C1334 C1337 1.499 . S
C1335 H1309 0.950 . S
C1335 C1334 1.414 . S
C1335 C1336 1.374 . S
C1336 H1310 0.950 . S
C1336 C1332 1.385 . S
C1336 C1335 1.374 . S
C1337 C1334 1.499 . S
C1337 C1338 1.373 . S
C1337 C1339 1.389 . S
C1338 H1311 0.950 . S
C1338 C1324 1.377 . S
C1338 C1337 1.373 . S
C1339 C1323 1.377 . S
C1339 C1337 1.389 . S
C1339 C1340 1.524 . S
C1340 C1339 1.524 . S
C1340 C1341 1.397 . S
C1340 C1345 1.363 . S
C1341 H1312 0.950 . S
C1341 C1340 1.397 . S
C1341 C1342 1.334 . S
C1342 H1313 0.950 . S
C1342 C1341 1.334 . S
C1342 C1343 1.287 . S
C1343 C1342 1.287 . S
C1343 C1344 1.524 . S
C1343 H1346 0.999 . S
C1344 H1314 0.950 . S
C1344 C1343 1.524 . S
C1344 C1345 1.415 . S
C1345 H1315 0.950 . S
C1345 C1340 1.363 . S
C1345 C1344 1.415 . S
H1346 C1343 0.999 . S
H1347 C1328 0.913 . S
H1348 C1366 0.951 . S
H1349 C1368 0.951 . S
H1350 C1370 0.950 . S
H1351 C1371 0.950 . S
H1352 C1373 0.950 . S
H1353 C1376 0.950 . S
H1354 C1377 0.950 . S
H1355 C1379 0.950 . S
H1356 C1380 0.950 . S
H1357 C1381 0.951 . S
H1358 C1383 0.951 . S
H1359 C1385 0.950 . S
H1360 C1386 0.950 . S
H1361 C1388 0.950 . S
H1362 C1391 0.950 . S
H1363 C1392 0.950 . S
H1364 C1394 0.950 . S
H1365 C1395 0.950 . S
C1366 H1348 0.951 . S
C1366 C1367 1.366 . S
C1366 C1368 1.388 . S
C1367 C1366 1.366 . S
C1367 C1371 1.385 . S
C1368 H1349 0.951 . S
C1368 C1366 1.388 . S
C1368 C1369 1.366 . S
C1369 C1368 1.366 . S
C1369 C1370 1.414 . S
C1369 C1372 1.499 . S
C1370 H1350 0.950 . S
C1370 C1369 1.414 . S
C1370 C1371 1.374 . S
C1371 H1351 0.950 . S
C1371 C1367 1.385 . S
C1371 C1370 1.374 . S
C1372 C1369 1.499 . S
C1372 C1373 1.373 . S
C1372 C1374 1.389 . S
C1373 H1352 0.950 . S
C1373 C1372 1.373 . S
C1373 C1389 1.377 . S
C1374 C1372 1.389 . S
C1374 C1375 1.524 . S
C1374 C1388 1.377 . S
C1375 C1374 1.524 . S
C1375 C1376 1.397 . S
C1375 C1380 1.363 . S
C1376 H1353 0.950 . S
C1376 C1375 1.397 . S
C1376 C1377 1.334 . S
C1377 H1354 0.950 . S
C1377 C1376 1.334 . S
C1377 C1378 1.287 . S
C1378 C1377 1.287 . S
C1378 C1379 1.524 . S
C1378 H1397 0.913 . S
C1379 H1355 0.950 . S
C1379 C1378 1.524 . S
C1379 C1380 1.415 . S
C1380 H1356 0.950 . S
C1380 C1375 1.363 . S
C1380 C1379 1.415 . S
C1381 H1357 0.951 . S
C1381 C1382 1.366 . S
C1381 C1383 1.388 . S
C1382 C1381 1.366 . S
C1382 C1386 1.385 . S
C1383 H1358 0.951 . S
C1383 C1381 1.388 . S
C1383 C1384 1.366 . S
C1384 C1383 1.366 . S
C1384 C1385 1.414 . S
C1384 C1387 1.499 . S
C1385 H1359 0.950 . S
C1385 C1384 1.414 . S
C1385 C1386 1.374 . S
C1386 H1360 0.950 . S
C1386 C1382 1.385 . S
C1386 C1385 1.374 . S
C1387 C1384 1.499 . S
C1387 C1388 1.373 . S
C1387 C1389 1.389 . S
C1388 H1361 0.950 . S
C1388 C1374 1.377 . S
C1388 C1387 1.373 . S
C1389 C1373 1.377 . S
C1389 C1387 1.389 . S
C1389 C1390 1.524 . S
C1390 C1389 1.524 . S
C1390 C1391 1.397 . S
C1390 C1395 1.363 . S
C1391 H1362 0.950 . S
C1391 C1390 1.397 . S
C1391 C1392 1.334 . S
C1392 H1363 0.950 . S
C1392 C1391 1.334 . S
C1392 C1393 1.287 . S
C1393 C1392 1.287 . S
C1393 C1394 1.524 . S
C1393 H1396 0.999 . S
C1394 H1364 0.950 . S
C1394 C1393 1.524 . S
C1394 C1395 1.415 . S
C1395 H1365 0.950 . S
C1395 C1390 1.363 . S
C1395 C1394 1.415 . S
H1396 C1393 0.999 . S
H1397 C1378 0.913 . S
H1398 C1416 0.951 . S
H1399 C1418 0.951 . S
H1400 C1420 0.950 . S
H1401 C1421 0.950 . S
H1402 C1423 0.950 . S
H1403 C1426 0.950 . S
H1404 C1427 0.950 . S
H1405 C1429 0.950 . S
H1406 C1430 0.950 . S
H1407 C1431 0.951 . S
H1408 C1433 0.951 . S
H1409 C1435 0.950 . S
H1410 C1436 0.950 . S
H1411 C1438 0.950 . S
H1412 C1441 0.950 . S
H1413 C1442 0.950 . S
H1414 C1444 0.950 . S
H1415 C1445 0.950 . S
C1416 H1398 0.951 . S
C1416 C1417 1.366 . S
C1416 C1418 1.388 . S
C1417 C1416 1.366 . S
C1417 C1421 1.385 . S
C1418 H1399 0.951 . S
C1418 C1416 1.388 . S
C1418 C1419 1.366 . S
C1419 C1418 1.366 . S
C1419 C1420 1.414 . S
C1419 C1422 1.499 . S
C1420 H1400 0.950 . S
C1420 C1419 1.414 . S
C1420 C1421 1.374 . S
C1421 H1401 0.950 . S
C1421 C1417 1.385 . S
C1421 C1420 1.374 . S
C1422 C1419 1.499 . S
C1422 C1423 1.373 . S
C1422 C1424 1.389 . S
C1423 H1402 0.950 . S
C1423 C1422 1.373 . S
C1423 C1439 1.377 . S
C1424 C1422 1.389 . S
C1424 C1425 1.524 . S
C1424 C1438 1.377 . S
C1425 C1424 1.524 . S
C1425 C1426 1.397 . S
C1425 C1430 1.363 . S
C1426 H1403 0.950 . S
C1426 C1425 1.397 . S
C1426 C1427 1.334 . S
C1427 H1404 0.950 . S
C1427 C1426 1.334 . S
C1427 C1428 1.287 . S
C1428 C1427 1.287 . S
C1428 C1429 1.524 . S
C1428 H1447 0.913 . S
C1429 H1405 0.950 . S
C1429 C1428 1.524 . S
C1429 C1430 1.415 . S
C1430 H1406 0.950 . S
C1430 C1425 1.363 . S
C1430 C1429 1.415 . S
C1431 H1407 0.951 . S
C1431 C1432 1.366 . S
C1431 C1433 1.388 . S
C1432 C1431 1.366 . S
C1432 C1436 1.385 . S
C1433 H1408 0.951 . S
C1433 C1431 1.388 . S
C1433 C1434 1.366 . S
C1434 C1433 1.366 . S
C1434 C1435 1.414 . S
C1434 C1437 1.499 . S
C1435 H1409 0.950 . S
C1435 C1434 1.414 . S
C1435 C1436 1.374 . S
C1436 H1410 0.950 . S
C1436 C1432 1.385 . S
C1436 C1435 1.374 . S
C1437 C1434 1.499 . S
C1437 C1438 1.373 . S
C1437 C1439 1.389 . S
C1438 H1411 0.950 . S
C1438 C1424 1.377 . S
C1438 C1437 1.373 . S
C1439 C1423 1.377 . S
C1439 C1437 1.389 . S
C1439 C1440 1.524 . S
C1440 C1439 1.524 . S
C1440 C1441 1.397 . S
C1440 C1445 1.363 . S
C1441 H1412 0.950 . S
C1441 C1440 1.397 . S
C1441 C1442 1.334 . S
C1442 H1413 0.950 . S
C1442 C1441 1.334 . S
C1442 C1443 1.287 . S
C1443 C1442 1.287 . S
C1443 C1444 1.524 . S
C1443 H1446 0.999 . S
C1444 H1414 0.950 . S
C1444 C1443 1.524 . S
C1444 C1445 1.415 . S
C1445 H1415 0.950 . S
C1445 C1440 1.363 . S
C1445 C1444 1.415 . S
H1446 C1443 0.999 . S
H1447 C1428 0.913 . S
C267 C4 1.089 . S
C282 C105 1.108 . S
C317 C16 1.313 . S
C332 C145 1.351 . S
C382 C170 1.863 . S
C367 C32 1.890 . S
C417 C43 2.262 . S
C432 C210 2.213 1_655 S
C482 C141 2.282 . S
C467 C5 2.225 . S
C532 C101 1.396 . S
C517 C21 1.358 . S
C582 C232 1.504 . S
C567 C27 1.510 . S
C632 C192 1.434 . S
C617 C37 1.465 . S
C667 C10 1.139 . S
C682 C234 1.144 . S
C732 C151 2.347 . S
C717 C26 2.387 . S
C767 C38 1.805 . S
C782 C111 1.785 . S
C817 C15 1.430 . S
C832 C194 1.445 . S
C882 C114 1.316 . S
C867 C48 1.292 . S
C917 C59 1.035 . S
C932 C154 1.044 . S
C967 C76 2.277 . S
C982 C191 2.219 . S
C1017 C87 2.003 . S
C1032 C231 1.977 . S
C1067 C54 1.435 . S
C1082 C152 1.466 . S
C1132 C112 2.240 . S
C1117 C60 2.193 . S
C1182 C221 1.416 . S
C1167 C71 1.418 . S
C1232 C181 1.498 . S
C1217 C82 1.503 . S
C1267 C49 1.519 . S
C1282 C225 1.554 . S
C1332 C130 1.720 . S
C1317 C70 1.756 . S
C1382 C90 2.310 . S
C1367 C81 2.354 . S
C1417 C65 1.132 . S
C1432 C185 1.144 . S
