# Generated by pormake.
# Topology ctn, (3,4)-cn, num edge types: 1
# Building blocks:
#     Node 0, Type 0, BuildingBlock: CUQRIR_clean_linker_1, # of connection points: 3
#     Node 1, Type 0, BuildingBlock: CUQRIR_clean_linker_1, # of connection points: 3
#     Node 2, Type 0, BuildingBlock: CUQRIR_clean_linker_1, # of connection points: 3
#     Node 3, Type 0, BuildingBlock: CUQRIR_clean_linker_1, # of connection points: 3
#     Node 4, Type 0, BuildingBlock: CUQRIR_clean_linker_1, # of connection points: 3
#     Node 5, Type 0, BuildingBlock: CUQRIR_clean_linker_1, # of connection points: 3
#     Node 6, Type 0, BuildingBlock: CUQRIR_clean_linker_1, # of connection points: 3
#     Node 7, Type 0, BuildingBlock: CUQRIR_clean_linker_1, # of connection points: 3
#     Node 8, Type 0, BuildingBlock: CUQRIR_clean_linker_1, # of connection points: 3
#     Node 9, Type 0, BuildingBlock: CUQRIR_clean_linker_1, # of connection points: 3
#     Node 10, Type 0, BuildingBlock: CUQRIR_clean_linker_1, # of connection points: 3
#     Node 11, Type 0, BuildingBlock: CUQRIR_clean_linker_1, # of connection points: 3
#     Node 12, Type 0, BuildingBlock: CUQRIR_clean_linker_1, # of connection points: 3
#     Node 13, Type 0, BuildingBlock: CUQRIR_clean_linker_1, # of connection points: 3
#     Node 14, Type 0, BuildingBlock: CUQRIR_clean_linker_1, # of connection points: 3
#     Node 15, Type 0, BuildingBlock: CUQRIR_clean_linker_1, # of connection points: 3
#     Node 16, Type 1, BuildingBlock: NAHDIM_clean_sbu_0, # of connection points: 4
#     Node 17, Type 1, BuildingBlock: NAHDIM_clean_sbu_0, # of connection points: 4
#     Node 18, Type 1, BuildingBlock: NAHDIM_clean_sbu_0, # of connection points: 4
#     Node 19, Type 1, BuildingBlock: NAHDIM_clean_sbu_0, # of connection points: 4
#     Node 20, Type 1, BuildingBlock: NAHDIM_clean_sbu_0, # of connection points: 4
#     Node 21, Type 1, BuildingBlock: NAHDIM_clean_sbu_0, # of connection points: 4
#     Node 22, Type 1, BuildingBlock: NAHDIM_clean_sbu_0, # of connection points: 4
#     Node 23, Type 1, BuildingBlock: NAHDIM_clean_sbu_0, # of connection points: 4
#     Node 24, Type 1, BuildingBlock: NAHDIM_clean_sbu_0, # of connection points: 4
#     Node 25, Type 1, BuildingBlock: NAHDIM_clean_sbu_0, # of connection points: 4
#     Node 26, Type 1, BuildingBlock: NAHDIM_clean_sbu_0, # of connection points: 4
#     Node 27, Type 1, BuildingBlock: NAHDIM_clean_sbu_0, # of connection points: 4
#     Edge 28, Type (0, 1), BuildingBlock: CIFDUS_clean_linker_0, # of connection points: 2
#     Edge 29, Type (0, 1), BuildingBlock: CIFDUS_clean_linker_0, # of connection points: 2
#     Edge 30, Type (0, 1), BuildingBlock: CIFDUS_clean_linker_0, # of connection points: 2
#     Edge 31, Type (0, 1), BuildingBlock: CIFDUS_clean_linker_0, # of connection points: 2
#     Edge 32, Type (0, 1), BuildingBlock: CIFDUS_clean_linker_0, # of connection points: 2
#     Edge 33, Type (0, 1), BuildingBlock: CIFDUS_clean_linker_0, # of connection points: 2
#     Edge 34, Type (0, 1), BuildingBlock: CIFDUS_clean_linker_0, # of connection points: 2
#     Edge 35, Type (0, 1), BuildingBlock: CIFDUS_clean_linker_0, # of connection points: 2
#     Edge 36, Type (0, 1), BuildingBlock: CIFDUS_clean_linker_0, # of connection points: 2
#     Edge 37, Type (0, 1), BuildingBlock: CIFDUS_clean_linker_0, # of connection points: 2
#     Edge 38, Type (0, 1), BuildingBlock: CIFDUS_clean_linker_0, # of connection points: 2
#     Edge 39, Type (0, 1), BuildingBlock: CIFDUS_clean_linker_0, # of connection points: 2
#     Edge 40, Type (0, 1), BuildingBlock: CIFDUS_clean_linker_0, # of connection points: 2
#     Edge 41, Type (0, 1), BuildingBlock: CIFDUS_clean_linker_0, # of connection points: 2
#     Edge 42, Type (0, 1), BuildingBlock: CIFDUS_clean_linker_0, # of connection points: 2
#     Edge 43, Type (0, 1), BuildingBlock: CIFDUS_clean_linker_0, # of connection points: 2
#     Edge 44, Type (0, 1), BuildingBlock: CIFDUS_clean_linker_0, # of connection points: 2
#     Edge 45, Type (0, 1), BuildingBlock: CIFDUS_clean_linker_0, # of connection points: 2
#     Edge 46, Type (0, 1), BuildingBlock: CIFDUS_clean_linker_0, # of connection points: 2
#     Edge 47, Type (0, 1), BuildingBlock: CIFDUS_clean_linker_0, # of connection points: 2
#     Edge 48, Type (0, 1), BuildingBlock: CIFDUS_clean_linker_0, # of connection points: 2
#     Edge 49, Type (0, 1), BuildingBlock: CIFDUS_clean_linker_0, # of connection points: 2
#     Edge 50, Type (0, 1), BuildingBlock: CIFDUS_clean_linker_0, # of connection points: 2
#     Edge 51, Type (0, 1), BuildingBlock: CIFDUS_clean_linker_0, # of connection points: 2
#     Edge 52, Type (0, 1), BuildingBlock: CIFDUS_clean_linker_0, # of connection points: 2
#     Edge 53, Type (0, 1), BuildingBlock: CIFDUS_clean_linker_0, # of connection points: 2
#     Edge 54, Type (0, 1), BuildingBlock: CIFDUS_clean_linker_0, # of connection points: 2
#     Edge 55, Type (0, 1), BuildingBlock: CIFDUS_clean_linker_0, # of connection points: 2
#     Edge 56, Type (0, 1), BuildingBlock: CIFDUS_clean_linker_0, # of connection points: 2
#     Edge 57, Type (0, 1), BuildingBlock: CIFDUS_clean_linker_0, # of connection points: 2
#     Edge 58, Type (0, 1), BuildingBlock: CIFDUS_clean_linker_0, # of connection points: 2
#     Edge 59, Type (0, 1), BuildingBlock: CIFDUS_clean_linker_0, # of connection points: 2
#     Edge 60, Type (0, 1), BuildingBlock: CIFDUS_clean_linker_0, # of connection points: 2
#     Edge 61, Type (0, 1), BuildingBlock: CIFDUS_clean_linker_0, # of connection points: 2
#     Edge 62, Type (0, 1), BuildingBlock: CIFDUS_clean_linker_0, # of connection points: 2
#     Edge 63, Type (0, 1), BuildingBlock: CIFDUS_clean_linker_0, # of connection points: 2
#     Edge 64, Type (0, 1), BuildingBlock: CIFDUS_clean_linker_0, # of connection points: 2
#     Edge 65, Type (0, 1), BuildingBlock: CIFDUS_clean_linker_0, # of connection points: 2
#     Edge 66, Type (0, 1), BuildingBlock: CIFDUS_clean_linker_0, # of connection points: 2
#     Edge 67, Type (0, 1), BuildingBlock: CIFDUS_clean_linker_0, # of connection points: 2
#     Edge 68, Type (0, 1), BuildingBlock: CIFDUS_clean_linker_0, # of connection points: 2
#     Edge 69, Type (0, 1), BuildingBlock: CIFDUS_clean_linker_0, # of connection points: 2
#     Edge 70, Type (0, 1), BuildingBlock: CIFDUS_clean_linker_0, # of connection points: 2
#     Edge 71, Type (0, 1), BuildingBlock: CIFDUS_clean_linker_0, # of connection points: 2
#     Edge 72, Type (0, 1), BuildingBlock: CIFDUS_clean_linker_0, # of connection points: 2
#     Edge 73, Type (0, 1), BuildingBlock: CIFDUS_clean_linker_0, # of connection points: 2
#     Edge 74, Type (0, 1), BuildingBlock: CIFDUS_clean_linker_0, # of connection points: 2
#     Edge 75, Type (0, 1), BuildingBlock: CIFDUS_clean_linker_0, # of connection points: 2
# Relax obj value: 0.080
# Max RMSD: 0.206
# Mean RMSD: 0.127
data_MOF--net-ctn--node1-NAHDIM_clean_sbu_0--node2-CUQRIR_clean_linker_1--edge1-CIFDUS_clean_linker_0
_symmetry_space_group_name_H-M    P1
_symmetry_Int_Tables_number       1
_symmetry_cell_setting            triclinic
loop_
_symmetry_equiv_pos_as_xyz
'x, y, z'
_cell_length_a     44.784739
_cell_length_b     41.651026
_cell_length_c     42.407176
_cell_angle_alpha  98.256378
_cell_angle_beta   88.920421
_cell_angle_gamma 95.146681
loop_
_atom_site_label
_atom_site_type_symbol
_atom_site_fract_x
_atom_site_fract_y
_atom_site_fract_z
_atom_type_partial_charge
C0 C 0.03245 0.01022 0.09791 0.0
N1 N 0.0481 0.02143 0.0734 0.0
N2 N 0.00774 0.02643 0.10471 0.0
C3 C 0.03971 0.98157 0.11346 0.0
C4 C 0.00866 0.04774 0.08342 0.0
N5 N 0.0329 0.04438 0.06398 0.0
C6 C 0.98748 0.07392 0.08369 0.0
H7 H 0.05084 0.96365 0.09633 0.0
H8 H 0.0191 0.96929 0.12283 0.0
H9 H 0.05509 0.99026 0.1337 0.0
H10 H 0.99903 0.09617 0.07592 0.0
H11 H 0.97786 0.08046 0.10781 0.0
H12 H 0.96881 0.06482 0.06701 0.0
C13 C 0.28412 0.7417 0.2384 0.0
N14 N 0.29495 0.72871 0.26288 0.0
N15 N 0.30106 0.76911 0.23358 0.0
C16 C 0.25566 0.72907 0.22062 0.0
C17 C 0.32241 0.77271 0.25633 0.0
N18 N 0.31855 0.74823 0.27439 0.0
C19 C 0.34814 0.79871 0.25941 0.0
H20 H 0.26088 0.71024 0.2005 0.0
H21 H 0.24558 0.7489 0.21082 0.0
H22 H 0.23901 0.71786 0.23642 0.0
H23 H 0.34246 0.81896 0.27788 0.0
H24 H 0.35253 0.8085 0.23662 0.0
H25 H 0.36876 0.78906 0.26695 0.0
C26 C 0.958 0.49044 0.0911 0.0
N27 N 0.97482 0.46468 0.08941 0.0
N28 N 0.9383 0.48625 0.06665 0.0
C29 C 0.96104 0.5198 0.11641 0.0
C30 C 0.94352 0.45697 0.05021 0.0
N31 N 0.9655 0.44374 0.06411 0.0
C32 C 0.92724 0.44137 0.02043 0.0
H33 H 0.96648 0.51263 0.13971 0.0
H34 H 0.94037 0.53272 0.11892 0.0
H35 H 0.97963 0.53702 0.10972 0.0
H36 H 0.93986 0.4487 0.99947 0.0
H37 H 0.90434 0.44948 0.02001 0.0
H38 H 0.92579 0.41443 0.0184 0.0
C39 C 0.69482 0.74307 0.24699 0.0
N40 N 0.71875 0.7592 0.23441 0.0
N41 N 0.68469 0.76121 0.27334 0.0
C42 C 0.68094 0.70994 0.23315 0.0
C43 C 0.70297 0.78909 0.27625 0.0
N44 N 0.7235 0.78814 0.25227 0.0
C45 C 0.70099 0.8169 0.30294 0.0
H46 H 0.65777 0.7053 0.24214 0.0
H47 H 0.69466 0.69117 0.23996 0.0
H48 H 0.68073 0.70751 0.20674 0.0
H49 H 0.72358 0.82901 0.30932 0.0
H50 H 0.69026 0.80851 0.32443 0.0
H51 H 0.68714 0.83504 0.29509 0.0
C52 C 0.01494 0.97913 0.4821 0.0
N53 N 0.04091 0.98324 0.49874 0.0
N54 N 0.01474 1.00127 0.46164 0.0
C55 C 0.9911 0.95143 0.48348 0.0
C56 C 0.0417 0.01878 0.46616 0.0
N57 N 0.05787 1.00753 0.48836 0.0
C58 C 0.05107 0.04866 0.45096 0.0
H59 H 0.97934 0.94478 0.46036 0.0
H60 H 0.97442 0.95901 0.50212 0.0
H61 H 1.00089 0.9296 0.48963 0.0
H62 H 0.03122 0.06036 0.4444 0.0
H63 H 0.06416 0.04156 0.429 0.0
H64 H 0.06537 0.0666 0.46731 0.0
C65 C 0.18793 0.74807 0.80513 0.0
N66 N 0.20752 0.73317 0.82077 0.0
N67 N 0.18089 0.73036 0.77661 0.0
C68 C 0.17564 0.77998 0.81768 0.0
C69 C 0.19685 0.70413 0.77529 0.0
N70 N 0.21356 0.70608 0.80198 0.0
C71 C 0.19529 0.67622 0.74841 0.0
H72 H 0.15633 0.77532 0.83367 0.0
H73 H 0.16772 0.79211 0.79819 0.0
H74 H 0.19289 0.79664 0.83162 0.0
H75 H 0.21388 0.68037 0.7314 0.0
H76 H 0.17388 0.67431 0.73529 0.0
H77 H 0.19776 0.65291 0.75749 0.0
C78 C 0.98268 0.52693 0.46712 0.0
N79 N 1.0008 0.55475 0.46692 0.0
N80 N 0.96095 0.53127 0.48949 0.0
C81 C 0.98515 0.49611 0.44426 0.0
C82 C 0.96639 0.56268 0.50288 0.0
N83 N 0.99034 0.57722 0.48879 0.0
C84 C 0.95023 0.57794 0.53197 0.0
H85 H 0.96306 0.4818 0.4407 0.0
H86 H 1.00085 0.48105 0.45417 0.0
H87 H 0.9941 0.50163 0.42086 0.0
H88 H 0.93993 0.55916 0.54588 0.0
H89 H 0.93217 0.59166 0.52436 0.0
H90 H 0.96579 0.5951 0.54767 0.0
C91 C 0.7739 0.79946 0.82756 0.0
N92 N 0.79529 0.77853 0.81994 0.0
N93 N 0.7754 0.82249 0.80794 0.0
C94 C 0.75096 0.79698 0.85367 0.0
C95 C 0.79852 0.81492 0.78806 0.0
N96 N 0.81064 0.78821 0.79527 0.0
C97 C 0.81081 0.83483 0.76297 0.0
H98 H 0.74482 0.77114 0.85654 0.0
H99 H 0.73047 0.80847 0.84865 0.0
H100 H 0.76062 0.8098 0.87644 0.0
H101 H 0.79435 0.85058 0.75568 0.0
H102 H 0.81814 0.81864 0.74167 0.0
H103 H 0.8307 0.85072 0.77268 0.0
C104 C 0.30273 0.32335 0.32798 0.0
N105 N 0.32521 0.30351 0.32218 0.0
N106 N 0.30441 0.34576 0.30783 0.0
C107 C 0.28017 0.32194 0.35461 0.0
C108 C 0.32889 0.33931 0.28974 0.0
N109 N 0.34154 0.31329 0.29808 0.0
C110 C 0.34119 0.35964 0.26499 0.0
H111 H 0.26601 0.34268 0.35701 0.0
H112 H 0.29191 0.32192 0.37742 0.0
H113 H 0.26555 0.29884 0.34992 0.0
H114 H 0.36589 0.35929 0.26274 0.0
H115 H 0.33568 0.38523 0.2709 0.0
H116 H 0.33089 0.34967 0.24164 0.0
C117 C 0.46364 0.0155 0.58501 0.0
N118 N 0.48207 0.99113 0.58287 0.0
N119 N 0.44604 0.01219 0.55886 0.0
C120 C 0.46428 0.04372 0.61153 0.0
C121 C 0.45447 0.98495 0.54076 0.0
N122 N 0.47663 0.97241 0.55512 0.0
C123 C 0.43925 0.96896 0.51041 0.0
H124 H 0.4491 0.03697 0.63095 0.0
H125 H 0.45659 0.0656 0.60311 0.0
H126 H 0.48721 0.04967 0.62137 0.0
H127 H 0.45161 0.97751 0.48983 0.0
H128 H 0.41574 0.97526 0.50975 0.0
H129 H 0.43928 0.94208 0.50788 0.0
C130 C 0.18401 0.25254 0.73002 0.0
N131 N 0.20437 0.27149 0.71533 0.0
N132 N 0.17583 0.26837 0.75867 0.0
C133 C 0.1735 0.21791 0.7171 0.0
C134 C 0.1919 0.29779 0.76067 0.0
N135 N 0.20926 0.29962 0.73439 0.0
C136 C 0.19034 0.32495 0.78808 0.0
H137 H 0.15345 0.21782 0.70211 0.0
H138 H 0.16741 0.2035 0.73669 0.0
H139 H 0.19112 0.20619 0.70199 0.0
H140 H 0.20731 0.32232 0.80605 0.0
H141 H 0.16786 0.32403 0.79952 0.0
H142 H 0.1953 0.34915 0.78031 0.0
C143 C 0.78973 0.22963 0.71746 0.0
N144 N 0.80309 0.21408 0.7387 0.0
N145 N 0.80856 0.25416 0.70879 0.0
C146 C 0.75983 0.21835 0.70207 0.0
C147 C 0.83396 0.25274 0.72502 0.0
N148 N 0.8308 0.22832 0.74307 0.0
C149 C 0.86192 0.27524 0.72294 0.0
H150 H 0.75764 0.22779 0.67915 0.0
H151 H 0.74175 0.22732 0.71834 0.0
H152 H 0.7566 0.19136 0.69772 0.0
H153 H 0.85644 0.29879 0.71617 0.0
H154 H 0.87701 0.26378 0.70443 0.0
H155 H 0.87395 0.27974 0.74601 0.0
C156 C 0.52821 0.49129 0.56152 0.0
N157 N 0.54127 0.50634 0.5378 0.0
N158 N 0.50148 0.50294 0.56992 0.0
C159 C 0.54173 0.46575 0.57722 0.0
C160 C 0.49871 0.52547 0.55036 0.0
N161 N 0.52294 0.52773 0.53092 0.0
C162 C 0.47159 0.54414 0.54912 0.0
H163 H 0.52976 0.44165 0.56888 0.0
H164 H 0.5389 0.47084 0.60347 0.0
H165 H 0.56578 0.46402 0.57151 0.0
H166 H 0.47533 0.56804 0.56447 0.0
H167 H 0.45131 0.53065 0.55781 0.0
H168 H 0.46775 0.5487 0.52442 0.0
C169 C 0.52563 0.46109 0.96983 0.0
N170 N 0.55085 0.46985 0.98717 0.0
N171 N 0.52344 0.48076 0.94738 0.0
C172 C 0.50304 0.43325 0.97495 0.0
C173 C 0.54827 0.50198 0.95177 0.0
N174 N 0.565 0.49547 0.97612 0.0
C175 C 0.55744 0.52713 0.93044 0.0
H176 H 0.48062 0.43687 0.96604 0.0
H177 H 0.50114 0.43051 1.00055 0.0
H178 H 0.51061 0.41035 0.96188 0.0
H179 H 0.54901 0.55063 0.94085 0.0
H180 H 0.54778 0.51995 0.9063 0.0
H181 H 0.58221 0.53077 0.92838 0.0
C182 C 0.6674 0.2432 0.3372 0.0
N183 N 0.68956 0.22886 0.34936 0.0
N184 N 0.65862 0.22664 0.30863 0.0
C185 C 0.6557 0.27468 0.35231 0.0
C186 C 0.67672 0.20195 0.30359 0.0
N187 N 0.69579 0.20345 0.32838 0.0
C188 C 0.67431 0.17528 0.2756 0.0
H189 H 0.63643 0.26906 0.36802 0.0
H190 H 0.64802 0.28851 0.33395 0.0
H191 H 0.67306 0.29029 0.36709 0.0
H192 H 0.69062 0.18168 0.257 0.0
H193 H 0.65148 0.17234 0.26526 0.0
H194 H 0.67964 0.15183 0.28271 0.0
C195 C 0.46599 0.02318 0.95737 0.0
N196 N 0.48237 0.05216 0.95693 0.0
N197 N 0.44462 0.02584 0.98036 0.0
C198 C 0.46891 0.99309 0.9336 0.0
C199 C 0.44834 0.0574 0.99373 0.0
N200 N 0.47099 0.07352 0.97924 0.0
C201 C 0.43126 0.07185 0.02246 0.0
H202 H 0.47612 0.99958 0.90998 0.0
H203 H 0.44738 0.9776 0.93091 0.0
H204 H 0.48603 0.97873 0.94212 0.0
H205 H 0.42239 0.05281 0.03683 0.0
H206 H 0.41211 0.08366 0.01437 0.0
H207 H 0.44575 0.0906 0.03776 0.0
C208 C 0.19323 0.92726 0.0366 0.0
O209 O 0.19855 0.91918 0.00605 0.0
O210 O 0.22902 0.85374 0.00614 0.0
Zn211 Zn 0.24278 0.88824 0.04301 0.0
O212 O 0.27652 0.91807 0.02857 0.0
C213 C 0.26624 0.83913 0.07511 0.0
O214 O 0.26794 0.8245 0.04566 0.0
O215 O 0.20886 0.9163 0.05679 0.0
C216 C 0.30416 0.91392 0.0304 0.0
O217 O 0.31208 0.88854 0.04229 0.0
C218 C 0.24672 0.84288 0.98411 0.0
O219 O 0.27501 0.85438 0.98494 0.0
O220 O 0.25613 0.86702 0.08023 0.0
C221 C 0.19191 0.47756 0.28588 0.0
O222 O 0.20399 0.50679 0.297 0.0
O223 O 0.12033 0.52787 0.31163 0.0
Zn224 Zn 0.14474 0.51564 0.27125 0.0
O225 O 0.17657 0.55215 0.26539 0.0
C226 C 0.0992 0.4845 0.22366 0.0
O227 O 0.09698 0.46028 0.24053 0.0
O228 O 0.1659 0.47464 0.27357 0.0
C229 C 0.18729 0.57414 0.28723 0.0
O230 O 0.17688 0.57478 0.31646 0.0
C231 C 0.12709 0.51946 0.33811 0.0
O232 O 0.15027 0.50251 0.33934 0.0
O233 O 0.11749 0.50928 0.23243 0.0
C234 C 0.82991 0.60283 1.00135 0.0
O235 O 0.83364 0.61853 0.97662 0.0
O236 O 0.78532 0.66502 0.97821 0.0
Zn237 Zn 0.77393 0.63586 0.01244 0.0
O238 O 0.73423 0.60776 1.00318 0.0
C239 C 0.76429 0.69489 0.05725 0.0
O240 O 0.76238 0.70831 0.03124 0.0
O241 O 0.80667 0.60647 0.01877 0.0
C242 C 0.70958 0.62059 0.00894 0.0
O243 O 0.71044 0.65201 0.01888 0.0
C244 C 0.78393 0.65766 0.94801 0.0
O245 O 0.7743 0.62786 0.93569 0.0
O246 O 0.76917 0.66497 0.05481 0.0
C247 C 0.8109 0.06777 0.31704 0.0
O248 O 0.80519 0.04882 0.33904 0.0
O249 O 0.87894 0.01792 0.32897 0.0
Zn250 Zn 0.85214 0.01919 0.29131 0.0
O251 O 0.82231 0.97957 0.28327 0.0
C252 C 0.87058 0.0147 0.22489 0.0
O253 O 0.84165 0.01004 0.21926 0.0
O254 O 0.83013 0.06016 0.29542 0.0
C255 C 0.83 0.95126 0.27294 0.0
O256 O 0.85859 0.94697 0.26872 0.0
C257 C 0.8714 0.01073 0.35632 0.0
O258 O 0.84297 1.00357 0.36271 0.0
O259 O 0.87969 0.01917 0.2535 0.0
C260 C 0.32707 0.11352 0.48863 0.0
O261 O 0.32483 0.11947 0.45921 0.0
O262 O 0.28068 0.16908 0.45876 0.0
Zn263 Zn 0.27206 0.14694 0.49853 0.0
O264 O 0.23553 0.11418 0.48963 0.0
C265 C 0.2822 0.19052 0.5584 0.0
O266 O 0.3095 0.18135 0.55461 0.0
O267 O 0.30726 0.12277 0.50899 0.0
C268 C 0.21837 0.10441 0.5113 0.0
O269 O 0.22432 0.1156 0.54129 0.0
C270 C 0.30292 0.1896 0.45517 0.0
O271 O 0.32214 0.19807 0.47855 0.0
O272 O 0.26274 0.17985 0.53705 0.0
C273 C 0.31867 0.56246 0.80208 0.0
O274 O 0.31697 0.54915 0.8284 0.0
O275 O 0.38393 0.51316 0.81437 0.0
Zn276 Zn 0.35803 0.51076 0.77499 0.0
O277 O 0.33022 0.4687 0.7661 0.0
C278 C 0.40934 0.50172 0.73096 0.0
O279 O 0.41849 0.48229 0.74984 0.0
O280 O 0.33383 0.54989 0.77857 0.0
C281 C 0.33908 0.44215 0.75182 0.0
O282 O 0.36714 0.4411 0.74267 0.0
C283 C 0.39465 0.48841 0.82272 0.0
O284 O 0.38728 0.45953 0.80663 0.0
O285 O 0.38529 0.51546 0.7372 0.0
C286 C 0.69774 0.43685 0.51933 0.0
O287 O 0.70405 0.42214 0.49078 0.0
O288 O 0.74255 0.3686 0.50148 0.0
Zn289 Zn 0.74872 0.40522 0.53837 0.0
O290 O 0.78501 0.43528 0.53037 0.0
C291 C 0.76723 0.35912 0.57642 0.0
O292 O 0.77691 0.34622 0.54842 0.0
O293 O 0.71321 0.4325 0.54299 0.0
C294 C 0.81199 0.42945 0.53416 0.0
O295 O 0.81746 0.40235 0.54452 0.0
C296 C 0.76082 0.36426 0.47822 0.0
O297 O 0.78438 0.38515 0.47674 0.0
O298 O 0.75401 0.38517 0.57855 0.0
C299 C 0.67827 0.96922 0.78904 0.0
O300 O 0.67726 0.9896 0.81565 0.0
O301 O 0.61842 0.01883 0.80895 0.0
Zn302 Zn 0.6413 0.01475 0.7672 0.0
O303 O 0.66884 0.05628 0.76713 0.0
C304 C 0.58552 0.99488 0.73373 0.0
O305 O 0.57824 0.98499 0.76113 0.0
O306 O 0.66487 0.97519 0.76461 0.0
C307 C 0.69727 0.05792 0.76412 0.0
O308 O 0.71082 0.03093 0.75949 0.0
C309 C 0.60303 0.04269 0.8183 0.0
O310 O 0.60178 0.06566 0.80025 0.0
O311 O 0.61175 0.0085 0.73019 0.0
C312 C 0.027 0.17738 0.95111 0.0
O313 O 0.05186 0.19654 0.95013 0.0
O314 O 0.96123 0.22101 0.89426 0.0
Zn315 Zn 1.00062 0.22579 0.91894 0.0
O316 O 1.00081 0.26633 0.95238 0.0
C317 C 0.03808 0.20988 0.86319 0.0
O318 O 0.01692 0.18608 0.85621 0.0
O319 O 1.00302 0.18539 0.93986 0.0
C320 C 0.01658 0.29255 0.94867 0.0
O321 O 0.03365 0.29299 0.92318 0.0
C322 C 0.95959 0.22978 0.86684 0.0
O323 O 0.98362 0.24336 0.85416 0.0
O324 O 0.03613 0.22957 0.88885 0.0
C325 C 0.51261 0.67986 0.4412 0.0
O326 O 0.51792 0.6739 0.41044 0.0
O327 O 0.45931 0.73816 0.403 0.0
Zn328 Zn 0.49942 0.74342 0.42643 0.0
O329 O 0.50367 0.78712 0.45547 0.0
C330 C 0.52958 0.7462 0.36529 0.0
O331 O 0.50269 0.75059 0.35575 0.0
O332 O 0.50361 0.70726 0.45291 0.0
C333 C 0.51408 0.81268 0.44435 0.0
O334 O 0.52253 0.81012 0.41433 0.0
C335 C 0.43958 0.75819 0.41048 0.0
O336 O 0.44439 0.78097 0.43511 0.0
O337 O 0.53333 0.7425 0.39416 0.0
C338 C 0.03468 0.84894 0.61251 0.0
O339 O 0.05545 0.82868 0.60535 0.0
O340 O 0.9717 0.7985 0.67901 0.0
Zn341 Zn 0.00558 0.79697 0.64591 0.0
O342 O 0.9961 0.76191 0.60823 0.0
C343 C 0.0389 0.7591 0.67936 0.0
O344 O 0.01316 0.74124 0.67568 0.0
O345 O 0.01248 0.84077 0.62978 0.0
C346 C 0.01699 0.74732 0.59309 0.0
O347 O 0.04489 0.75528 0.60212 0.0
C348 C 0.951 0.77595 0.68174 0.0
O349 O 0.94944 0.74935 0.66083 0.0
O350 O 0.04203 0.78581 0.66791 0.0
C351 C 0.52897 0.35911 0.12068 0.0
O352 O 0.51747 0.3645 0.14949 0.0
O353 O 0.48089 0.2921 0.15466 0.0
Zn354 Zn 0.51986 0.28928 0.12845 0.0
O355 O 0.51395 0.25118 0.09311 0.0
C356 C 0.55678 0.29114 0.185 0.0
O357 O 0.53755 0.3106 0.19916 0.0
O358 O 0.53161 0.32992 0.10792 0.0
C359 C 0.5359 0.2355 0.08212 0.0
O360 O 0.56283 0.2446 0.09368 0.0
C361 C 0.47466 0.27562 0.17747 0.0
O362 O 0.49374 0.25583 0.18499 0.0
O363 O 0.55389 0.28034 0.15557 0.0
H364 H 0.17791 0.74692 0.87545 0.0
H365 H 0.26612 0.74833 0.83367 0.0
H366 H 0.28705 0.78081 0.88251 0.0
H367 H 0.27878 0.81418 0.93427 0.0
H368 H 0.18947 0.81499 0.97448 0.0
H369 H 0.17022 0.77662 0.92898 0.0
C370 C 0.20176 0.75401 0.87746 0.0
C371 C 0.22055 0.74571 0.85127 0.0
C372 C 0.21321 0.77358 0.90498 0.0
C373 C 0.25145 0.75448 0.85381 0.0
C374 C 0.26324 0.7733 0.88151 0.0
C375 C 0.25514 0.80579 0.93322 0.0
C376 C 0.23554 0.81782 0.95759 0.0
C377 C 0.24414 0.78393 0.90681 0.0
C378 C 0.20502 0.80641 0.95596 0.0
C379 C 0.19398 0.7844 0.92996 0.0
H380 H 0.05082 0.52466 0.46491 0.0
H381 H 0.00546 0.59297 0.4207 0.0
H382 H 0.04209 0.58973 0.37662 0.0
H383 H 0.0837 0.56229 0.34808 0.0
H384 H 0.12851 0.49355 0.39329 0.0
H385 H 0.09556 0.50196 0.43949 0.0
C386 C 0.04962 0.53941 0.44594 0.0
C387 C 0.02581 0.55903 0.44574 0.0
C388 C 0.07028 0.53678 0.42063 0.0
C389 C 0.02397 0.57801 0.42123 0.0
C390 C 0.04464 0.5758 0.39595 0.0
C391 C 0.08637 0.54935 0.36815 0.0
C392 C 0.1083 0.52695 0.36696 0.0
C393 C 0.06734 0.55442 0.3949 0.0
C394 C 0.11174 0.51075 0.39339 0.0
C395 C 0.0929 0.51554 0.4199 0.0
H396 H 0.81272 0.78289 0.88033 0.0
H397 H 0.78624 0.71448 0.79782 0.0
H398 H 0.78283 0.66976 0.82986 0.0
H399 H 0.78152 0.65141 0.88282 0.0
H400 H 0.80489 0.7212 0.96605 0.0
H401 H 0.81504 0.76397 0.93262 0.0
C402 C 0.80711 0.75796 0.86936 0.0
C403 C 0.8005 0.75175 0.83666 0.0
C404 C 0.80385 0.73277 0.88832 0.0
C405 C 0.79251 0.71961 0.82264 0.0
C406 C 0.78998 0.69418 0.84116 0.0
C407 C 0.78911 0.67589 0.89365 0.0
C408 C 0.79212 0.68299 0.92706 0.0
C409 C 0.7947 0.70063 0.87424 0.0
C410 C 0.80211 0.71493 0.94052 0.0
C411 C 0.80801 0.73949 0.92139 0.0
H412 H 0.95572 1.00447 0.47315 0.0
H413 H 0.02269 1.00403 0.39897 0.0
H414 H 0.98428 0.00833 0.35985 0.0
H415 H 0.93156 0.01084 0.3466 0.0
H416 H 0.86378 1.00794 0.4201 0.0
H417 H 0.90242 1.00577 0.45957 0.0
C418 C 0.96172 1.00514 0.44837 0.0
C419 C 0.99193 1.00417 0.43889 0.0
C420 C 0.93938 1.00682 0.42593 0.0
C421 C 0.99963 1.0053 0.40681 0.0
C422 C 0.97766 1.00752 0.38446 0.0
C423 C 0.9252 0.00987 0.37127 0.0
C424 C 0.89479 0.00966 0.38037 0.0
C425 C 0.94746 1.00819 0.39373 0.0
C426 C 0.88699 1.00808 0.41241 0.0
C427 C 0.90908 1.00688 0.43502 0.0
H428 H 0.26072 0.25845 0.69915 0.0
H429 H 0.17354 0.26482 0.66108 0.0
H430 H 0.19038 0.24207 0.60781 0.0
H431 H 0.22876 0.216 0.57336 0.0
H432 H 0.31624 0.20942 0.61175 0.0
H433 H 0.30077 0.23701 0.66335 0.0
C434 C 0.24586 0.25576 0.67891 0.0
C435 C 0.21614 0.26361 0.68363 0.0
C436 C 0.25567 0.24225 0.64854 0.0
C437 C 0.19661 0.25916 0.65759 0.0
C438 C 0.20619 0.246 0.62731 0.0
C439 C 0.24456 0.2209 0.5929 0.0
C440 C 0.27353 0.2103 0.58865 0.0
C441 C 0.23549 0.23673 0.62265 0.0
C442 C 0.29374 0.21711 0.61426 0.0
C443 C 0.28491 0.23288 0.64388 0.0
H444 H 0.48291 0.54814 0.61556 0.0
H445 H 0.4791 0.44467 0.58535 0.0
H446 H 0.45174 0.43482 0.6341 0.0
H447 H 0.42899 0.45608 0.68556 0.0
H448 H 0.42722 0.55972 0.71198 0.0
H449 H 0.4562 0.5694 0.66414 0.0
C450 C 0.4755 0.5235 0.61938 0.0
C451 C 0.48319 0.49714 0.59717 0.0
C452 C 0.45889 0.51819 0.64677 0.0
C453 C 0.47397 0.46526 0.60255 0.0
C454 C 0.45819 0.45968 0.63026 0.0
C455 C 0.4351 0.48071 0.68072 0.0
C456 C 0.42653 0.50722 0.70216 0.0
C457 C 0.45073 0.48598 0.65266 0.0
C458 C 0.43384 0.53906 0.69565 0.0
C459 C 0.45034 0.54456 0.6684 0.0
H460 H 0.77072 0.29996 0.70573 0.0
H461 H 0.83863 0.2474 0.65353 0.0
H462 H 0.83197 0.27561 0.60758 0.0
H463 H 0.80614 0.31432 0.58216 0.0
H464 H 0.7391 0.36877 0.63454 0.0
H465 H 0.74605 0.34099 0.68067 0.0
C466 C 0.78402 0.29503 0.68423 0.0
C467 C 0.80514 0.27192 0.68266 0.0
C468 C 0.78016 0.31157 0.65812 0.0
C469 C 0.82244 0.26538 0.65498 0.0
C470 C 0.81854 0.28137 0.62883 0.0
C471 C 0.79302 0.32014 0.60366 0.0
C472 C 0.77198 0.3434 0.60485 0.0
C473 C 0.79736 0.30438 0.63008 0.0
C474 C 0.75545 0.35095 0.63303 0.0
C475 C 0.75936 0.33503 0.65938 0.0
H476 H 0.47287 0.98338 0.64382 0.0
H477 H 0.5416 0.99143 0.5726 0.0
H478 H 0.58056 0.99304 0.61305 0.0
H479 H 0.59472 0.99555 0.66969 0.0
H480 H 0.52505 0.98588 0.7403 0.0
H481 H 0.48684 0.98172 0.69939 0.0
C482 C 0.49643 0.98508 0.63731 0.0
C483 C 0.50459 0.98739 0.60556 0.0
C484 C 0.51845 0.98612 0.66067 0.0
C485 C 0.53503 0.98942 0.59699 0.0
C486 C 0.55719 0.99061 0.62014 0.0
C487 C 0.57118 0.99247 0.67606 0.0
C488 C 0.5628 0.99133 0.70811 0.0
C489 C 0.54917 0.98959 0.65222 0.0
C490 C 0.53219 0.98688 0.71588 0.0
C491 C 0.51026 0.98451 0.69249 0.0
H492 H 0.83144 0.22911 0.80664 0.0
H493 H 0.88274 0.20701 0.72075 0.0
H494 H 0.92749 0.20373 0.75194 0.0
H495 H 0.95322 0.21373 0.80337 0.0
H496 H 0.90239 0.23392 0.89012 0.0
H497 H 0.85619 0.23129 0.85921 0.0
C498 C 0.85227 0.22265 0.79502 0.0
C499 C 0.85416 0.21863 0.7616 0.0
C500 C 0.878 0.22113 0.81325 0.0
C501 C 0.88112 0.21039 0.74651 0.0
C502 C 0.90665 0.20874 0.76431 0.0
C503 C 0.93195 0.21725 0.81549 0.0
C504 C 0.93118 0.22458 0.84885 0.0
C505 C 0.9056 0.21524 0.79764 0.0
C506 C 0.90348 0.22843 0.86439 0.0
C507 C 0.87711 0.22698 0.84672 0.0
H508 H 0.50721 0.96023 0.50095 0.0
H509 H 0.47356 0.91773 0.58251 0.0
H510 H 0.4846 0.86346 0.55628 0.0
H511 H 0.49794 0.82773 0.50713 0.0
H512 H 0.53053 0.87137 0.42517 0.0
H513 H 0.52584 0.92543 0.45434 0.0
C514 C 0.50311 0.93906 0.51312 0.0
C515 C 0.48967 0.9426 0.54341 0.0
C516 C 0.50877 0.90813 0.49753 0.0
C517 C 0.48419 0.91532 0.55924 0.0
C518 C 0.49016 0.88437 0.54407 0.0
C519 C 0.50435 0.84907 0.49579 0.0
C520 C 0.51416 0.84535 0.46378 0.0
C521 C 0.50149 0.88034 0.51273 0.0
C522 C 0.52264 0.87335 0.44961 0.0
C523 C 0.51999 0.90439 0.46629 0.0
H524 H 0.12002 0.24026 0.74675 0.0
H525 H 0.18417 0.27058 0.82187 0.0
H526 H 0.14693 0.25563 0.86142 0.0
H527 H 0.09544 0.23523 0.87463 0.0
H528 H 0.03311 0.19938 0.79875 0.0
H529 H 0.07044 0.21429 0.75932 0.0
C530 C 0.12595 0.24297 0.7717 0.0
C531 C 0.15459 0.25699 0.78149 0.0
C532 C 0.10476 0.23324 0.79409 0.0
C533 C 0.16198 0.26063 0.81393 0.0
C534 C 0.14079 0.25187 0.83648 0.0
C535 C 0.09019 0.23052 0.84943 0.0
C536 C 0.0616 0.21645 0.83955 0.0
C537 C 0.11198 0.23849 0.82687 0.0
C538 C 0.05506 0.21008 0.80686 0.0
C539 C 0.07633 0.21873 0.78434 0.0
H540 H 0.5268 0.59186 0.54853 0.0
H541 H 0.53039 0.51801 0.46693 0.0
H542 H 0.52992 0.55943 0.43126 0.0
H543 H 0.52284 0.61601 0.42364 0.0
H544 H 0.51427 0.68864 0.50612 0.0
H545 H 0.52159 0.64844 0.54112 0.0
C546 C 0.52804 0.58511 0.5229 0.0
C547 C 0.52903 0.55215 0.51025 0.0
C548 C 0.52605 0.60876 0.50278 0.0
C549 C 0.53043 0.54334 0.47712 0.0
C550 C 0.52961 0.56697 0.4568 0.0
C551 C 0.52275 0.62309 0.44927 0.0
C552 C 0.51776 0.65531 0.46219 0.0
C553 C 0.52653 0.59965 0.46938 0.0
C554 C 0.51773 0.66401 0.49548 0.0
C555 C 0.52206 0.64106 0.51555 0.0
H556 H 0.86646 0.81633 0.79916 0.0
H557 H 0.81199 0.73284 0.75407 0.0
H558 H 0.8524 0.71948 0.716 0.0
H559 H 0.90045 0.7363 0.69105 0.0
H560 H 0.95254 0.82361 0.73332 0.0
H561 H 0.91589 0.83121 0.77643 0.0
C562 C 0.86406 0.79458 0.78164 0.0
C563 C 0.83673 0.77501 0.77992 0.0
C564 C 0.88661 0.78849 0.75861 0.0
C565 C 0.83325 0.74744 0.75663 0.0
C566 C 0.85613 0.74031 0.7344 0.0
C567 C 0.90394 0.75684 0.70982 0.0
C568 C 0.92915 0.77953 0.70864 0.0
C569 C 0.88246 0.76139 0.73442 0.0
C570 C 0.93324 0.80596 0.7333 0.0
C571 C 0.91234 0.81026 0.75812 0.0
H572 H 0.01056 0.97373 0.55175 0.0
H573 H 0.0884 0.94737 0.49659 0.0
H574 H 0.09544 0.90466 0.52951 0.0
H575 H 0.07536 0.87069 0.56966 0.0
H576 H 0.99562 0.89612 0.62288 0.0
H577 H 0.99325 0.94317 0.59511 0.0
C578 C 0.02937 0.95896 0.54752 0.0
C579 C 0.04891 0.96338 0.5219 0.0
C580 C 0.03253 0.93395 0.56582 0.0
C581 C 0.0733 0.9444 0.5164 0.0
C582 C 0.07705 0.91981 0.53498 0.0
C583 C 0.05768 0.88673 0.5755 0.0
C584 C 0.03548 0.87953 0.59811 0.0
C585 C 0.05619 0.91366 0.55909 0.0
C586 C 0.01284 0.90079 0.60542 0.0
C587 C 0.01145 0.92777 0.58955 0.0
H588 H 0.12576 0.7012 0.76786 0.0
H589 H 0.18809 0.77489 0.73666 0.0
H590 H 0.14954 0.79037 0.70258 0.0
H591 H 0.09726 0.78428 0.68394 0.0
H592 H 0.0351 0.70976 0.71528 0.0
H593 H 0.07426 0.69304 0.74693 0.0
C594 C 0.13075 0.72027 0.75314 0.0
C595 C 0.15935 0.73695 0.75434 0.0
C596 C 0.1085 0.72896 0.73395 0.0
C597 C 0.16602 0.76183 0.73566 0.0
C598 C 0.14403 0.77068 0.71642 0.0
C599 C 0.09233 0.76434 0.69763 0.0
C600 C 0.06325 0.74847 0.69741 0.0
C601 C 0.11503 0.7547 0.71573 0.0
C602 C 0.05728 0.72245 0.71504 0.0
C603 C 0.07965 0.71285 0.7332 0.0
H604 H 0.96206 0.63135 0.4937 0.0
H605 H 0.04749 0.59578 0.5069 0.0
H606 H 0.06516 0.64834 0.53762 0.0
H607 H 0.05298 0.70066 0.56798 0.0
H608 H 0.96487 0.73296 0.55975 0.0
H609 H 0.95119 0.68533 0.52043 0.0
C610 C 0.98475 0.63557 0.50279 0.0
C611 C 1.00343 0.60993 0.49842 0.0
C612 C 0.99385 0.6649 0.52208 0.0
C613 C 0.03289 0.61537 0.50986 0.0
C614 C 0.04274 0.64519 0.52783 0.0
C615 C 0.03093 0.69752 0.55724 0.0
C616 C 0.00984 0.72016 0.56704 0.0
C617 C 0.02292 0.66956 0.53529 0.0
C618 C 0.98137 0.71571 0.55292 0.0
C619 C 0.97357 0.68854 0.53035 0.0
H620 H 0.71617 0.85044 0.24875 0.0
H621 H 0.78301 0.78228 0.24713 0.0
H622 H 0.82288 0.82718 0.25085 0.0
H623 H 0.83799 0.88634 0.26079 0.0
H624 H 0.76986 0.95415 0.26729 0.0
H625 H 0.73116 0.90909 0.25632 0.0
C626 C 0.73953 0.84557 0.24896 0.0
C627 C 0.74681 0.81336 0.24802 0.0
C628 C 0.76197 0.87151 0.25273 0.0
C629 C 0.77704 0.80697 0.24766 0.0
C630 C 0.79972 0.83265 0.25021 0.0
C631 C 0.81469 0.89125 0.25961 0.0
C632 C 0.80685 0.92362 0.26518 0.0
C633 C 0.79238 0.86511 0.2538 0.0
C634 C 0.77654 0.92952 0.26349 0.0
C635 C 0.75436 0.90376 0.25706 0.0
H636 H 0.74018 0.18513 0.28824 0.0
H637 H 0.69896 0.17054 0.3781 0.0
H638 H 0.73227 0.12809 0.38366 0.0
H639 H 0.77092 0.09284 0.36112 0.0
H640 H 0.81187 0.10716 0.27063 0.0
H641 H 0.78089 0.1518 0.26699 0.0
C642 C 0.73871 0.17263 0.30901 0.0
C643 C 0.71722 0.18065 0.33269 0.0
C644 C 0.75771 0.14808 0.31176 0.0
C645 C 0.71558 0.1648 0.35978 0.0
C646 C 0.73444 0.14042 0.3628 0.0
C647 C 0.77322 0.10582 0.34068 0.0
C648 C 0.79358 0.09641 0.31608 0.0
C649 C 0.75528 0.1315 0.33868 0.0
C650 C 0.79636 0.11375 0.28989 0.0
C651 C 0.77861 0.13929 0.28774 0.0
H652 H 0.38538 0.02887 0.98166 0.0
H653 H 0.45471 0.96792 0.9972 0.0
H654 H 0.41707 0.92695 0.0138 0.0
H655 H 0.36447 0.90966 0.02539 0.0
H656 H 0.2952 0.97135 0.00978 0.0
H657 H 0.33271 0.01102 0.99192 0.0
C658 C 0.39203 1.00654 0.98872 0.0
C659 C 0.42249 1.00118 0.98845 0.0
C660 C 0.37035 0.98346 0.99834 0.0
C661 C 0.43122 0.9722 0.9972 0.0
C662 C 0.40977 0.94899 0.00679 0.0
C663 C 0.35757 0.93176 0.01807 0.0
C664 C 0.32708 0.93756 0.01908 0.0
C665 C 0.37927 0.95451 0.00771 0.0
C666 C 0.31852 0.96625 0.0093 0.0
C667 C 0.33994 0.989 0.99907 0.0
H668 H 0.25022 0.34373 0.28172 0.0
H669 H 0.31878 0.40735 0.33398 0.0
H670 H 0.28952 0.45418 0.33234 0.0
H671 H 0.24522 0.47682 0.31479 0.0
H672 H 0.17602 0.41354 0.26219 0.0
H673 H 0.20456 0.3666 0.26514 0.0
C674 C 0.25841 0.36793 0.29278 0.0
C675 C 0.28641 0.37258 0.30784 0.0
C676 C 0.24147 0.39457 0.29155 0.0
C677 C 0.29722 0.4037 0.32226 0.0
C678 C 0.28055 0.43028 0.32126 0.0
C679 C 0.23627 0.45279 0.30397 0.0
C680 C 0.20855 0.44877 0.28816 0.0
C681 C 0.25276 0.42603 0.30575 0.0
C682 C 0.19731 0.41736 0.27446 0.0
C683 C 0.21363 0.3905 0.27612 0.0
H684 H 0.10612 0.01528 0.45123 0.0
H685 H 0.07616 0.02842 0.54879 0.0
H686 H 0.12464 0.05787 0.5653 0.0
H687 H 0.17363 0.08439 0.55084 0.0
H688 H 0.20186 0.07343 0.45222 0.0
H689 H 0.15592 0.03911 0.43712 0.0
C690 C 0.11043 0.02444 0.47611 0.0
C691 C 0.0877 0.02003 0.49879 0.0
C692 C 0.13785 0.04217 0.48508 0.0
C693 C 0.09348 0.03144 0.53104 0.0
C694 C 0.12104 0.04853 0.54034 0.0
C695 C 0.16987 0.07429 0.52607 0.0
C696 C 0.19118 0.0818 0.50269 0.0
C697 C 0.14311 0.05479 0.51743 0.0
C698 C 0.18586 0.06836 0.47072 0.0
C699 C 0.15957 0.04864 0.46204 0.0
H700 H 0.75059 0.20402 0.76818 0.0
H701 H 0.82822 0.15686 0.73165 0.0
H702 H 0.80303 0.10371 0.73909 0.0
H703 H 0.75656 0.07034 0.74982 0.0
H704 H 0.67742 0.11796 0.78189 0.0
H705 H 0.70516 0.17107 0.78175 0.0
C706 C 0.76203 0.18205 0.7624 0.0
C707 C 0.79113 0.1842 0.74948 0.0
C708 C 0.74682 0.15162 0.76518 0.0
C709 C 0.80599 0.15577 0.74213 0.0
C710 C 0.79139 0.12539 0.74591 0.0
C711 C 0.74544 0.09233 0.75703 0.0
C712 C 0.71482 0.09007 0.76553 0.0
C713 C 0.76143 0.12292 0.75642 0.0
C714 C 0.70083 0.11888 0.77488 0.0
C715 C 0.71671 0.14932 0.77494 0.0
H716 H 0.44113 0.03837 0.50525 0.0
H717 H 0.39978 0.03102 0.59663 0.0
H718 H 0.35955 0.06311 0.58363 0.0
H719 H 0.33519 0.09135 0.54518 0.0
H720 H 0.37579 0.09635 0.45264 0.0
H721 H 0.41697 0.06676 0.4669 0.0
C722 C 0.42321 0.04382 0.52218 0.0
C723 C 0.42328 0.03246 0.55181 0.0
C724 C 0.39994 0.06162 0.51421 0.0
C725 C 0.40024 0.03987 0.57383 0.0
C726 C 0.37719 0.05799 0.56629 0.0
C727 C 0.35309 0.08606 0.52815 0.0
C728 C 0.35228 0.09603 0.49783 0.0
C729 C 0.37666 0.06874 0.5364 0.0
C730 C 0.37569 0.08889 0.47609 0.0
C731 C 0.39932 0.07199 0.48422 0.0
H732 H 0.59378 0.52514 0.56596 0.0
H733 H 0.55285 0.47228 0.48098 0.0
H734 H 0.60011 0.44895 0.46508 0.0
H735 H 0.65032 0.43681 0.48007 0.0
H736 H 0.68853 0.48395 0.56934 0.0
H737 H 0.64529 0.51587 0.5793 0.0
C738 C 0.59582 0.50951 0.5434 0.0
C739 C 0.57034 0.50094 0.5242 0.0
C740 C 0.6223 0.49427 0.53587 0.0
C741 C 0.57254 0.47991 0.49549 0.0
C742 C 0.59936 0.46607 0.48683 0.0
C743 C 0.64935 0.45439 0.50149 0.0
C744 C 0.67248 0.45777 0.52407 0.0
C745 C 0.62397 0.47197 0.50754 0.0
C746 C 0.67085 0.48057 0.55178 0.0
C747 C 0.64619 0.49896 0.55743 0.0
H748 H 0.74164 0.26504 0.35205 0.0
H749 H 0.6718 0.22461 0.40921 0.0
H750 H 0.68986 0.26192 0.45639 0.0
H751 H 0.7205 0.31151 0.47866 0.0
H752 H 0.78893 0.35409 0.42042 0.0
H753 H 0.77663 0.31069 0.3763 0.0
C754 C 0.7314 0.26368 0.37525 0.0
C755 C 0.70588 0.24209 0.37768 0.0
C756 C 0.74108 0.28624 0.40168 0.0
C757 C 0.69188 0.24079 0.40735 0.0
C758 C 0.70191 0.26243 0.43404 0.0
C759 C 0.73291 0.31115 0.45642 0.0
C760 C 0.75518 0.33635 0.45263 0.0
C761 C 0.72563 0.28622 0.4311 0.0
C762 C 0.77142 0.3352 0.42385 0.0
C763 C 0.76446 0.31035 0.3986 0.0
H764 H 0.53117 0.01996 0.94375 0.0
H765 H 0.48554 0.0996 0.9196 0.0
H766 H 0.52095 0.10586 0.87559 0.0
H767 H 0.56158 0.08466 0.84077 0.0
H768 H 0.60492 1.00234 0.86339 0.0
H769 H 0.57354 1.00073 0.91085 0.0
C770 C 0.52927 0.0388 0.92891 0.0
C771 C 0.50582 0.05914 0.93456 0.0
C772 C 0.54897 0.04135 0.9031 0.0
C773 C 0.50363 0.08386 0.91569 0.0
C774 C 0.52364 0.08716 0.89038 0.0
C775 C 0.56436 0.06656 0.85623 0.0
C776 C 0.58541 0.04347 0.84831 0.0
C777 C 0.5459 0.06544 0.88333 0.0
C778 C 0.58873 0.02023 0.8687 0.0
C779 C 0.57083 0.0193 0.89591 0.0
H780 H 0.29565 0.24522 0.32433 0.0
H781 H 0.36598 0.31252 0.36864 0.0
H782 H 0.36763 0.28086 0.41278 0.0
H783 H 0.34437 0.23822 0.44214 0.0
H784 H 0.27009 0.17397 0.40039 0.0
H785 H 0.27426 0.20017 0.35233 0.0
C786 C 0.31213 0.25195 0.34307 0.0
C787 C 0.33184 0.2801 0.34241 0.0
C788 C 0.31145 0.23474 0.36941 0.0
C789 C 0.35199 0.28982 0.36765 0.0
C790 C 0.35233 0.27217 0.3933 0.0
C791 C 0.32927 0.22967 0.42242 0.0
C792 C 0.30677 0.20427 0.42513 0.0
C793 C 0.3315 0.24519 0.39495 0.0
C794 C 0.28745 0.19362 0.39921 0.0
C795 C 0.28987 0.20855 0.3716 0.0
H796 H 0.48887 0.52675 0.93457 0.0
H797 H 0.50858 0.42765 0.90501 0.0
H798 H 0.46947 0.42077 0.86442 0.0
H799 H 0.42984 0.44298 0.83743 0.0
H800 H 0.41067 0.54281 0.8655 0.0
H801 H 0.44931 0.54951 0.90654 0.0
C802 C 0.48457 0.50383 0.919 0.0
C803 C 0.50123 0.47762 0.92273 0.0
C804 C 0.46214 0.5002 0.89563 0.0
C805 C 0.49564 0.44791 0.90265 0.0
C806 C 0.47338 0.44405 0.87948 0.0
C807 C 0.43394 0.46618 0.85262 0.0
C808 C 0.41724 0.49229 0.84846 0.0
C809 C 0.4564 0.46997 0.87585 0.0
C810 C 0.42314 0.52227 0.8682 0.0
C811 C 0.44528 0.52615 0.89165 0.0
H812 H 0.7219 0.78502 0.17992 0.0
H813 H 0.74997 0.70672 0.22496 0.0
H814 H 0.76856 0.68035 0.17387 0.0
H815 H 0.77222 0.6771 0.11569 0.0
H816 H 0.74353 0.75522 0.07008 0.0
H817 H 0.72999 0.78425 0.12184 0.0
C818 C 0.7328 0.76263 0.17843 0.0
C819 C 0.73464 0.74762 0.20582 0.0
C820 C 0.74287 0.74739 0.14883 0.0
C821 C 0.7484 0.71845 0.20393 0.0
C822 C 0.75883 0.70337 0.17477 0.0
C823 C 0.76322 0.70059 0.11705 0.0
C824 C 0.75858 0.71371 0.08894 0.0
C825 C 0.7554 0.71715 0.1469 0.0
C826 C 0.74721 0.74439 0.09127 0.0
C827 C 0.73942 0.76105 0.1209 0.0
H828 H 0.9481 0.01609 0.0988 0.0
H829 H 0.01969 0.02991 0.16698 0.0
H830 H 0.98334 0.02664 0.21058 0.0
H831 H 0.93128 0.02147 0.22912 0.0
H832 H 0.85919 0.00851 0.16102 0.0
H833 H 0.89557 0.01007 0.11746 0.0
C834 C 0.95552 0.01836 0.12327 0.0
C835 C 0.98631 0.02317 0.12995 0.0
C836 C 0.93447 0.0168 0.14807 0.0
C837 C 0.99602 0.02587 0.16153 0.0
C838 C 0.97528 0.02419 0.18634 0.0
C839 C 0.92346 0.01895 0.20476 0.0
C840 C 0.89252 0.01501 0.19838 0.0
C841 C 0.94445 0.01989 0.17989 0.0
C842 C 0.88285 0.01164 0.16663 0.0
C843 C 0.90364 0.01252 0.1417 0.0
H844 H 0.30221 0.74717 0.17153 0.0
H845 H 0.29253 0.833 0.2391 0.0
H846 H 0.28147 0.86338 0.19564 0.0
H847 H 0.27179 0.86403 0.1384 0.0
H848 H 0.28166 0.77707 0.07145 0.0
H849 H 0.29522 0.74852 0.11453 0.0
C850 C 0.2979 0.77261 0.17649 0.0
C851 C 0.298 0.78799 0.20815 0.0
C852 C 0.29131 0.78952 0.15155 0.0
C853 C 0.29264 0.82095 0.21471 0.0
C854 C 0.28615 0.83812 0.18995 0.0
C855 C 0.27699 0.83888 0.13326 0.0
C856 C 0.27546 0.82271 0.1017 0.0
C857 C 0.28494 0.82247 0.15827 0.0
C858 C 0.28253 0.79016 0.09545 0.0
C859 C 0.29032 0.77374 0.12009 0.0
H860 H 0.02411 0.50509 0.10424 0.0
H861 H 0.97695 0.41566 0.12429 0.0
H862 H 0.01266 0.41248 0.16665 0.0
H863 H 0.05492 0.43777 0.20084 0.0
H864 H 0.10028 0.52914 0.18221 0.0
H865 H 0.06751 0.5293 0.13696 0.0
C866 C 0.0219 0.48486 0.11784 0.0
C867 C 0.99808 0.46059 0.11123 0.0
C868 C 0.04193 0.48387 0.14275 0.0
C869 C 0.99544 0.43427 0.12866 0.0
C870 C 0.01564 0.43272 0.15311 0.0
C871 C 0.05779 0.45764 0.18679 0.0
C872 C 0.08 0.48352 0.19519 0.0
C873 C 0.03862 0.45776 0.16082 0.0
C874 C 0.08333 0.50898 0.17655 0.0
C875 C 0.0646 0.5091 0.15057 0.0
H876 H 0.33158 0.78791 0.32857 0.0
H877 H 0.34976 0.69602 0.27496 0.0
H878 H 0.38836 0.68959 0.31348 0.0
H879 H 0.41952 0.71261 0.36036 0.0
H880 H 0.40008 0.8046 0.41414 0.0
H881 H 0.35952 0.80854 0.37787 0.0
C882 C 0.34386 0.76638 0.32573 0.0
C883 C 0.33818 0.74252 0.29914 0.0
C884 C 0.36595 0.76306 0.34785 0.0
C885 C 0.35386 0.71453 0.29548 0.0
C886 C 0.37599 0.71103 0.31734 0.0
C887 C 0.40622 0.73335 0.36431 0.0
C888 C 0.41313 0.75839 0.38986 0.0
C889 C 0.38266 0.73548 0.34332 0.0
C890 C 0.39545 0.78498 0.3947 0.0
C891 C 0.37221 0.78734 0.3739 0.0
H892 H 0.00955 0.43522 0.02142 0.0
H893 H 0.94583 0.3847 0.07797 0.0
H894 H 0.95777 0.33211 0.04869 0.0
H895 H 0.98246 0.30129 1.00301 0.0
H896 H 0.04507 0.35264 0.94507 0.0
H897 H 0.03769 0.40392 0.97869 0.0
C898 C 0.99914 0.4125 0.02781 0.0
C899 C 0.97745 0.41343 0.05212 0.0
C900 C 0.00551 0.38261 0.01017 0.0
C901 C 0.96319 0.38418 0.05983 0.0
C902 C 0.96974 0.35428 0.04281 0.0
C903 C 0.99476 0.32362 0.99793 0.0
C904 C 0.01405 0.32301 0.97126 0.0
C905 C 0.99027 0.35325 0.01731 0.0
C906 C 0.0299 0.35227 0.96524 0.0
C907 C 0.02572 0.38171 0.98448 0.0
H908 H 0.62763 0.76458 0.25858 0.0
H909 H 0.68496 0.74244 0.33118 0.0
H910 H 0.64145 0.73445 0.36631 0.0
H911 H 0.58744 0.73637 0.37684 0.0
H912 H 0.52997 0.75896 0.30389 0.0
H913 H 0.57301 0.76401 0.26823 0.0
C914 C 0.63025 0.75764 0.28199 0.0
C915 C 0.65901 0.75396 0.29261 0.0
C916 C 0.60523 0.75338 0.30189 0.0
C917 C 0.66274 0.7452 0.32287 0.0
C918 C 0.63798 0.74078 0.34282 0.0
C919 C 0.58428 0.74225 0.35309 0.0
C920 C 0.55551 0.74747 0.34317 0.0
C921 C 0.60914 0.74521 0.33271 0.0
C922 C 0.55184 0.7549 0.31223 0.0
C923 C 0.57645 0.75783 0.29179 0.0
H924 H 0.99901 0.05026 0.01472 0.0
H925 H 0.08414 0.08278 0.05868 0.0
H926 H 0.09163 0.12592 0.02459 0.0
H927 H 0.07024 0.15871 0.9877 0.0
H928 H 0.98263 0.12789 0.94761 0.0
H929 H 0.97948 0.08009 0.97496 0.0
C930 C 0.01945 0.06644 0.01617 0.0
C931 C 0.04096 0.06368 0.03904 0.0
C932 C 0.02271 0.09194 0.99777 0.0
C933 C 0.06748 0.08447 0.04096 0.0
C934 C 0.07148 0.10933 0.02182 0.0
C935 C 0.05061 0.14135 0.98467 0.0
C936 C 0.02653 0.14716 0.96592 0.0
C937 C 0.04868 0.11407 1.00101 0.0
C938 C 1.00131 0.12432 0.9622 0.0
C939 C 0.99952 0.09686 0.97774 0.0
H940 H 0.34541 0.29377 0.23546 0.0
H941 H 0.39435 0.30064 0.32286 0.0
H942 H 0.4393 0.28561 0.29292 0.0
H943 H 0.46649 0.27724 0.24133 0.0
H944 H 0.41941 0.2812 0.15443 0.0
H945 H 0.37238 0.2866 0.18434 0.0
C946 C 0.3659 0.29168 0.24791 0.0
C947 C 0.36629 0.29804 0.28145 0.0
C948 C 0.39231 0.28595 0.2304 0.0
C949 C 0.39292 0.29501 0.2973 0.0
C950 C 0.41892 0.28708 0.28003 0.0
C951 C 0.44584 0.27909 0.22901 0.0
C952 C 0.44632 0.27882 0.19573 0.0
C953 C 0.41912 0.28354 0.24656 0.0
C954 C 0.41958 0.28161 0.18003 0.0
C955 C 0.3927 0.2845 0.1971 0.0
H956 H 0.53636 0.48219 0.04877 0.0
H957 H 0.58267 0.41804 0.98019 0.0
H958 H 0.58259 0.37817 0.01744 0.0
H959 H 0.5621 0.3583 0.06601 0.0
H960 H 0.5137 0.42177 0.13409 0.0
H961 H 0.52172 0.46513 0.10087 0.0
C962 C 0.54761 0.4601 0.0428 0.0
C963 C 0.56013 0.45318 0.01223 0.0
C964 C 0.54618 0.43678 0.06389 0.0
C965 C 0.57373 0.42407 1.004 0.0
C966 C 0.57312 0.40109 0.02506 0.0
C967 C 0.5536 0.38174 0.07378 0.0
C968 C 0.53686 0.38652 0.10227 0.0
C969 C 0.55824 0.40659 0.05451 0.0
C970 C 0.52643 0.41726 0.11217 0.0
C971 C 0.53101 0.44212 0.09317 0.0
H972 H 0.66465 0.23568 0.24734 0.0
H973 H 0.60163 0.23602 0.32522 0.0
H974 H 0.56457 0.25761 0.29412 0.0
H975 H 0.55097 0.27832 0.24549 0.0
H976 H 0.61239 0.27447 0.16582 0.0
H977 H 0.64935 0.25231 0.19668 0.0
C978 C 0.64256 0.23993 0.25707 0.0
C979 C 0.63577 0.23467 0.28847 0.0
C980 C 0.62138 0.2521 0.23892 0.0
C981 C 0.60724 0.24035 0.30115 0.0
C982 C 0.58618 0.25272 0.28344 0.0
C983 C 0.57255 0.27282 0.23502 0.0
C984 C 0.57929 0.27852 0.20375 0.0
C985 C 0.5932 0.25923 0.25252 0.0
C986 C 0.60693 0.27052 0.19004 0.0
C987 C 0.62798 0.25778 0.20761 0.0
H988 H 0.5256 0.09536 1.00178 0.0
H989 H 0.44039 0.12578 0.97883 0.0
H990 H 0.45397 0.18058 0.00702 0.0
H991 H 0.4875 0.21724 0.04393 0.0
H992 H 0.57299 0.18688 0.06735 0.0
H993 H 0.56219 0.13483 0.03319 0.0
C994 C 0.51058 0.11444 1.00223 0.0
C995 C 0.48209 0.10692 0.98858 0.0
C996 C 0.51837 0.1456 0.01907 0.0
C997 C 0.46243 0.13141 0.98936 0.0
C998 C 0.4701 0.16252 1.00564 0.0
C999 C 0.50389 0.19936 0.04129 0.0
C1000 C 0.53076 0.2057 0.05857 0.0
C1001 C 0.49756 0.1695 0.0216 0.0
C1002 C 0.55201 0.18253 0.05449 0.0
C1003 C 0.54585 0.15271 0.03498 0.0
H1004 H 0.26832 0.3033 0.74271 0.0
H1005 H 0.19671 0.35637 0.71704 0.0
H1006 H 0.23075 0.4064 0.72034 0.0
H1007 H 0.28028 0.43563 0.73488 0.0
H1008 H 0.35264 0.38118 0.75715 0.0
H1009 H 0.31922 0.33097 0.75078 0.0
C1010 C 0.26064 0.32562 0.73675 0.0
C1011 C 0.2304 0.32642 0.72928 0.0
C1012 C 0.28033 0.35404 0.73877 0.0
C1013 C 0.22014 0.35547 0.7224 0.0
C1014 C 0.23948 0.384 0.72466 0.0
C1015 C 0.28862 0.41271 0.73826 0.0
C1016 C 0.31866 0.41206 0.74696 0.0
C1017 C 0.26947 0.38375 0.73363 0.0
C1018 C 0.3295 0.3822 0.75063 0.0
C1019 C 0.31044 0.35351 0.74695 0.0
H1020 H 0.25868 0.68362 0.7657 0.0
H1021 H 0.21225 0.67593 0.85434 0.0
H1022 H 0.2421 0.6315 0.86359 0.0
H1023 H 0.27895 0.59221 0.84409 0.0
H1024 H 0.32321 0.599 0.75359 0.0
H1025 H 0.29641 0.64591 0.74712 0.0
C1026 C 0.25522 0.67212 0.787 0.0
C1027 C 0.23327 0.68262 0.80919 0.0
C1028 C 0.27182 0.64618 0.79158 0.0
C1029 C 0.22921 0.6682 0.83707 0.0
C1030 C 0.24608 0.64268 0.84217 0.0
C1031 C 0.28284 0.60405 0.82305 0.0
C1032 C 0.30295 0.59183 0.79928 0.0
C1033 C 0.26707 0.63102 0.81924 0.0
C1034 C 0.30773 0.60761 0.77218 0.0
C1035 C 0.29245 0.63455 0.76844 0.0
H1036 H 0.90265 0.53958 0.4903 0.0
H1037 H 0.96607 0.47192 0.50596 0.0
H1038 H 0.92523 0.4338 0.52146 0.0
H1039 H 0.87153 0.42065 0.53148 0.0
H1040 H 0.80826 0.48917 0.51606 0.0
H1041 H 0.84899 0.52635 0.49994 0.0
C1042 C 0.90731 0.51645 0.49717 0.0
C1043 C 0.93701 0.5083 0.49711 0.0
C1044 C 0.88385 0.49508 0.50628 0.0
C1045 C 0.94318 0.47831 0.50568 0.0
C1046 C 0.91992 0.45674 0.51469 0.0
C1047 C 0.86665 0.44375 0.52469 0.0
C1048 C 0.83689 0.45213 0.52508 0.0
C1049 C 0.89017 0.46499 0.51527 0.0
C1050 C 0.83095 0.4821 0.51601 0.0
C1051 C 0.85421 0.50339 0.50675 0.0
H1052 H 0.73996 0.83688 0.76264 0.0
H1053 H 0.77243 0.87 0.85757 0.0
H1054 H 0.74458 0.9185 0.8606 0.0
H1055 H 0.71213 0.95197 0.83548 0.0
H1056 H 0.68093 0.91964 0.73948 0.0
H1057 H 0.70745 0.87061 0.7373 0.0
C1058 C 0.7409 0.85493 0.78382 0.0
C1059 C 0.75825 0.85032 0.80977 0.0
C1060 C 0.72528 0.88287 0.78506 0.0
C1061 C 0.75913 0.87332 0.83741 0.0
C1062 C 0.74335 0.90099 0.83904 0.0
C1063 C 0.71109 0.93422 0.81406 0.0
C1064 C 0.69456 0.93956 0.78768 0.0
C1065 C 0.72653 0.90614 0.8129 0.0
C1066 C 0.69353 0.91625 0.76012 0.0
C1067 C 0.70866 0.88814 0.75886 0.0
H1068 H 0.57514 0.55908 0.99658 0.0
H1069 H 0.6184 0.4702 0.97792 0.0
H1070 H 0.66766 0.50086 0.98722 0.0
H1071 H 0.69853 0.55388 0.99684 0.0
H1072 H 0.65413 0.64268 0.01386 0.0
H1073 H 0.60547 0.61141 0.00852 0.0
C1074 C 0.59543 0.54653 0.99506 0.0
C1075 C 0.59328 0.51252 0.98686 0.0
C1076 C 0.62351 0.56444 0.99952 0.0
C1077 C 0.61955 0.49631 0.98482 0.0
C1078 C 0.64769 0.51393 0.9897 0.0
C1079 C 0.67821 0.56637 0.99938 0.0
C1080 C 0.68016 0.60071 1.0055 0.0
C1081 C 0.65001 0.54813 0.99639 0.0
C1082 C 0.65349 0.61638 0.00901 0.0
C1083 C 0.62554 0.5985 0.00604 0.0
H1084 H 0.28393 0.66953 0.22987 0.0
H1085 H 0.2758 0.72459 0.32296 0.0
H1086 H 0.24306 0.67968 0.3402 0.0
H1087 H 0.21183 0.62771 0.32615 0.0
H1088 H 0.21779 0.57495 0.23111 0.0
H1089 H 0.25581 0.61611 0.21699 0.0
C1090 C 0.2753 0.67127 0.25406 0.0
C1091 C 0.28187 0.70013 0.27513 0.0
C1092 C 0.25557 0.64611 0.26311 0.0
C1093 C 0.27104 0.70237 0.30653 0.0
C1094 C 0.25206 0.67692 0.31615 0.0
C1095 C 0.22161 0.62508 0.30243 0.0
C1096 C 0.21162 0.59844 0.27961 0.0
C1097 C 0.24331 0.64915 0.29426 0.0
C1098 C 0.22472 0.59536 0.24905 0.0
C1099 C 0.24658 0.61884 0.24094 0.0
H1100 H 0.93772 0.51718 0.01557 0.0
H1101 H 0.88975 0.50193 0.10168 0.0
H1102 H 0.85147 0.5368 0.08918 0.0
H1103 H 0.83169 0.5713 0.05338 0.0
H1104 H 0.87994 0.58658 0.96693 0.0
H1105 H 0.91796 0.55205 0.97971 0.0
C1106 C 0.91887 0.52175 0.0315 0.0
C1107 C 0.91651 0.50757 0.05964 0.0
C1108 C 0.89702 0.54167 0.024 0.0
C1109 C 0.89202 0.51317 0.08016 0.0
C1110 C 0.87017 0.53291 0.07291 0.0
C1111 C 0.85048 0.56707 0.03729 0.0
C1112 C 0.85284 0.58156 0.00919 0.0
C1113 C 0.87242 0.54727 0.04486 0.0
C1114 C 0.87747 0.57581 0.98872 0.0
C1115 C 0.89929 0.55605 0.996 0.0
H1116 H 0.09777 0.01635 0.10544 0.0
H1117 H 0.0598 1.00007 0.01151 0.0
H1118 H 0.10315 0.97115 0.99078 0.0
H1119 H 0.14914 0.94557 1.00102 0.0
H1120 H 0.1841 0.95824 0.09664 0.0
H1121 H 0.14434 0.99276 0.11534 0.0
C1122 C 0.09922 1.00661 0.0804 0.0
C1123 C 0.07568 0.00995 0.06002 0.0
C1124 C 0.12334 0.9888 0.0692 0.0
C1125 C 0.07783 0.99788 0.02751 0.0
C1126 C 0.10239 0.98104 0.01583 0.0
C1127 C 0.14816 0.95605 0.02591 0.0
C1128 C 0.16949 0.94906 0.04744 0.0
C1129 C 0.12485 0.97551 0.03668 0.0
C1130 C 0.16786 0.96288 0.07961 0.0
C1131 C 0.14519 0.98276 0.09032 0.0
loop_
_geom_bond_atom_site_label_1
_geom_bond_atom_site_label_2
_geom_bond_distance
_geom_bond_site_symmetry_2
_ccdc_geom_bond_type
C0 N1 1.318 1_565 S
C0 N2 1.349 1_465 S
C0 C3 1.483 . S
N1 C0 1.318 1_545 S
N1 N5 1.370 . S
N2 C0 1.349 1_645 S
N2 C4 1.346 . S
C3 C0 1.483 . S
C3 H7 0.960 . S
C3 H8 0.961 . S
C3 H9 0.960 . S
C4 N2 1.346 . S
C4 N5 1.307 1_655 S
C4 C6 1.486 . S
N5 N1 1.370 . S
N5 C4 1.307 1_455 S
C6 C4 1.486 . S
C6 H10 0.960 . S
C6 H11 0.960 . S
C6 H12 0.959 . S
H7 C3 0.960 . S
H8 C3 0.961 . S
H9 C3 0.960 . S
H10 C6 0.960 . S
H11 C6 0.960 . S
H12 C6 0.959 . S
C13 N14 1.317 . S
C13 N15 1.348 . S
C13 C16 1.485 . S
N14 C13 1.317 . S
N14 N18 1.370 . S
N15 C13 1.348 . S
N15 C17 1.346 . S
C16 C13 1.485 . S
C16 H20 0.960 . S
C16 H21 0.961 . S
C16 H22 0.960 . S
C17 N15 1.346 . S
C17 N18 1.307 . S
C17 C19 1.486 . S
N18 N14 1.370 . S
N18 C17 1.307 . S
C19 C17 1.486 . S
C19 H23 0.960 . S
C19 H24 0.960 . S
C19 H25 0.959 . S
H20 C16 0.960 . S
H21 C16 0.961 . S
H22 C16 0.960 . S
H23 C19 0.960 . S
H24 C19 0.960 . S
H25 C19 0.959 . S
C26 N27 1.317 . S
C26 N28 1.348 . S
C26 C29 1.485 . S
N27 C26 1.317 . S
N27 N31 1.370 . S
N28 C26 1.348 . S
N28 C30 1.346 . S
C29 C26 1.485 . S
C29 H33 0.960 . S
C29 H34 0.961 . S
C29 H35 0.960 . S
C30 N28 1.346 . S
C30 N31 1.307 . S
C30 C32 1.486 . S
N31 N27 1.370 . S
N31 C30 1.307 . S
C32 C30 1.486 . S
C32 H36 0.960 1_554 S
C32 H37 0.960 . S
C32 H38 0.959 1_554 S
H33 C29 0.960 . S
H34 C29 0.961 . S
H35 C29 0.960 . S
H36 C32 0.960 1_556 S
H37 C32 0.960 . S
H38 C32 0.959 1_556 S
C39 N40 1.317 . S
C39 N41 1.348 . S
C39 C42 1.485 . S
N40 C39 1.317 . S
N40 N44 1.370 . S
N41 C39 1.348 . S
N41 C43 1.346 . S
C42 C39 1.485 . S
C42 H46 0.960 . S
C42 H47 0.961 . S
C42 H48 0.960 . S
C43 N41 1.346 . S
C43 N44 1.307 . S
C43 C45 1.486 . S
N44 N40 1.370 . S
N44 C43 1.307 . S
C45 C43 1.486 . S
C45 H49 0.960 . S
C45 H50 0.960 . S
C45 H51 0.959 . S
H46 C42 0.960 . S
H47 C42 0.961 . S
H48 C42 0.960 . S
H49 C45 0.960 . S
H50 C45 0.960 . S
H51 C45 0.959 . S
C52 N53 1.317 . S
C52 N54 1.348 . S
C52 C55 1.485 1_455 S
N53 C52 1.317 . S
N53 N57 1.370 . S
N54 C52 1.348 . S
N54 C56 1.346 1_565 S
C55 C52 1.485 1_655 S
C55 H59 0.960 . S
C55 H60 0.961 . S
C55 H61 0.960 . S
C56 N54 1.346 1_545 S
C56 N57 1.307 1_545 S
C56 C58 1.486 . S
N57 N53 1.370 . S
N57 C56 1.307 1_565 S
C58 C56 1.486 . S
C58 H62 0.960 . S
C58 H63 0.960 . S
C58 H64 0.959 . S
H59 C55 0.960 . S
H60 C55 0.961 . S
H61 C55 0.960 . S
H62 C58 0.960 . S
H63 C58 0.960 . S
H64 C58 0.959 . S
C65 N66 1.317 . S
C65 N67 1.348 . S
C65 C68 1.485 . S
N66 C65 1.317 . S
N66 N70 1.370 . S
N67 C65 1.348 . S
N67 C69 1.346 . S
C68 C65 1.485 . S
C68 H72 0.960 . S
C68 H73 0.961 . S
C68 H74 0.960 . S
C69 N67 1.346 . S
C69 N70 1.307 . S
C69 C71 1.486 . S
N70 N66 1.370 . S
N70 C69 1.307 . S
C71 C69 1.486 . S
C71 H75 0.960 . S
C71 H76 0.960 . S
C71 H77 0.959 . S
H72 C68 0.960 . S
H73 C68 0.961 . S
H74 C68 0.960 . S
H75 C71 0.960 . S
H76 C71 0.960 . S
H77 C71 0.959 . S
C78 N79 1.317 . S
C78 N80 1.348 . S
C78 C81 1.485 . S
N79 C78 1.317 . S
N79 N83 1.370 . S
N80 C78 1.348 . S
N80 C82 1.346 . S
C81 C78 1.485 . S
C81 H85 0.960 . S
C81 H86 0.961 . S
C81 H87 0.960 . S
C82 N80 1.346 . S
C82 N83 1.307 . S
C82 C84 1.486 . S
N83 N79 1.370 . S
N83 C82 1.307 . S
C84 C82 1.486 . S
C84 H88 0.960 . S
C84 H89 0.960 . S
C84 H90 0.959 . S
H85 C81 0.960 . S
H86 C81 0.961 . S
H87 C81 0.960 . S
H88 C84 0.960 . S
H89 C84 0.960 . S
H90 C84 0.959 . S
C91 N92 1.317 . S
C91 N93 1.348 . S
C91 C94 1.485 . S
N92 C91 1.317 . S
N92 N96 1.370 . S
N93 C91 1.348 . S
N93 C95 1.346 . S
C94 C91 1.485 . S
C94 H98 0.960 . S
C94 H99 0.961 . S
C94 H100 0.960 . S
C95 N93 1.346 . S
C95 N96 1.307 . S
C95 C97 1.486 . S
N96 N92 1.370 . S
N96 C95 1.307 . S
C97 C95 1.486 . S
C97 H101 0.960 . S
C97 H102 0.960 . S
C97 H103 0.959 . S
H98 C94 0.960 . S
H99 C94 0.961 . S
H100 C94 0.960 . S
H101 C97 0.960 . S
H102 C97 0.960 . S
H103 C97 0.959 . S
C104 N105 1.317 . S
C104 N106 1.348 . S
C104 C107 1.485 . S
N105 C104 1.317 . S
N105 N109 1.370 . S
N106 C104 1.348 . S
N106 C108 1.346 . S
C107 C104 1.485 . S
C107 H111 0.960 . S
C107 H112 0.961 . S
C107 H113 0.960 . S
C108 N106 1.346 . S
C108 N109 1.307 . S
C108 C110 1.486 . S
N109 N105 1.370 . S
N109 C108 1.307 . S
C110 C108 1.486 . S
C110 H114 0.960 . S
C110 H115 0.960 . S
C110 H116 0.959 . S
H111 C107 0.960 . S
H112 C107 0.961 . S
H113 C107 0.960 . S
H114 C110 0.960 . S
H115 C110 0.960 . S
H116 C110 0.959 . S
C117 N118 1.317 . S
C117 N119 1.348 . S
C117 C120 1.485 1_565 S
N118 C117 1.317 . S
N118 N122 1.370 . S
N119 C117 1.348 . S
N119 C121 1.346 . S
C120 C117 1.485 1_545 S
C120 H124 0.960 . S
C120 H125 0.961 . S
C120 H126 0.960 . S
C121 N119 1.346 . S
C121 N122 1.307 . S
C121 C123 1.486 . S
N122 N118 1.370 . S
N122 C121 1.307 . S
C123 C121 1.486 . S
C123 H127 0.960 . S
C123 H128 0.960 . S
C123 H129 0.959 . S
H124 C120 0.960 . S
H125 C120 0.961 . S
H126 C120 0.960 . S
H127 C123 0.960 . S
H128 C123 0.960 . S
H129 C123 0.959 . S
C130 N131 1.317 . S
C130 N132 1.348 . S
C130 C133 1.485 . S
N131 C130 1.317 . S
N131 N135 1.370 . S
N132 C130 1.348 . S
N132 C134 1.346 . S
C133 C130 1.485 . S
C133 H137 0.960 . S
C133 H138 0.961 . S
C133 H139 0.960 . S
C134 N132 1.346 . S
C134 N135 1.307 . S
C134 C136 1.486 . S
N135 N131 1.370 . S
N135 C134 1.307 . S
C136 C134 1.486 . S
C136 H140 0.960 . S
C136 H141 0.960 . S
C136 H142 0.959 . S
H137 C133 0.960 . S
H138 C133 0.961 . S
H139 C133 0.960 . S
H140 C136 0.960 . S
H141 C136 0.960 . S
H142 C136 0.959 . S
C143 N144 1.317 . S
C143 N145 1.348 . S
C143 C146 1.485 . S
N144 C143 1.317 . S
N144 N148 1.370 . S
N145 C143 1.348 . S
N145 C147 1.346 . S
C146 C143 1.485 . S
C146 H150 0.960 . S
C146 H151 0.961 . S
C146 H152 0.960 . S
C147 N145 1.346 . S
C147 N148 1.307 . S
C147 C149 1.486 . S
N148 N144 1.370 . S
N148 C147 1.307 . S
C149 C147 1.486 . S
C149 H153 0.960 . S
C149 H154 0.960 . S
C149 H155 0.959 . S
H150 C146 0.960 . S
H151 C146 0.961 . S
H152 C146 0.960 . S
H153 C149 0.960 . S
H154 C149 0.960 . S
H155 C149 0.959 . S
C156 N157 1.317 . S
C156 N158 1.348 . S
C156 C159 1.485 . S
N157 C156 1.317 . S
N157 N161 1.370 . S
N158 C156 1.348 . S
N158 C160 1.346 . S
C159 C156 1.485 . S
C159 H163 0.960 . S
C159 H164 0.961 . S
C159 H165 0.960 . S
C160 N158 1.346 . S
C160 N161 1.307 . S
C160 C162 1.486 . S
N161 N157 1.370 . S
N161 C160 1.307 . S
C162 C160 1.486 . S
C162 H166 0.960 . S
C162 H167 0.960 . S
C162 H168 0.959 . S
H163 C159 0.960 . S
H164 C159 0.961 . S
H165 C159 0.960 . S
H166 C162 0.960 . S
H167 C162 0.960 . S
H168 C162 0.959 . S
C169 N170 1.317 . S
C169 N171 1.348 . S
C169 C172 1.485 . S
N170 C169 1.317 . S
N170 N174 1.370 . S
N171 C169 1.348 . S
N171 C173 1.346 . S
C172 C169 1.485 . S
C172 H176 0.960 . S
C172 H177 0.961 . S
C172 H178 0.960 . S
C173 N171 1.346 . S
C173 N174 1.307 . S
C173 C175 1.486 . S
N174 N170 1.370 . S
N174 C173 1.307 . S
C175 C173 1.486 . S
C175 H179 0.960 . S
C175 H180 0.960 . S
C175 H181 0.959 . S
H176 C172 0.960 . S
H177 C172 0.961 . S
H178 C172 0.960 . S
H179 C175 0.960 . S
H180 C175 0.960 . S
H181 C175 0.959 . S
C182 N183 1.317 . S
C182 N184 1.348 . S
C182 C185 1.485 . S
N183 C182 1.317 . S
N183 N187 1.370 . S
N184 C182 1.348 . S
N184 C186 1.346 . S
C185 C182 1.485 . S
C185 H189 0.960 . S
C185 H190 0.961 . S
C185 H191 0.960 . S
C186 N184 1.346 . S
C186 N187 1.307 . S
C186 C188 1.486 . S
N187 N183 1.370 . S
N187 C186 1.307 . S
C188 C186 1.486 . S
C188 H192 0.960 . S
C188 H193 0.960 . S
C188 H194 0.959 . S
H189 C185 0.960 . S
H190 C185 0.961 . S
H191 C185 0.960 . S
H192 C188 0.960 . S
H193 C188 0.960 . S
H194 C188 0.959 . S
C195 N196 1.317 . S
C195 N197 1.348 . S
C195 C198 1.485 1_545 S
N196 C195 1.317 . S
N196 N200 1.370 . S
N197 C195 1.348 . S
N197 C199 1.346 . S
C198 C195 1.485 1_565 S
C198 H202 0.960 . S
C198 H203 0.961 . S
C198 H204 0.960 . S
C199 N197 1.346 . S
C199 N200 1.307 . S
C199 C201 1.486 1_556 S
N200 N196 1.370 . S
N200 C199 1.307 . S
C201 C199 1.486 1_554 S
C201 H205 0.960 . S
C201 H206 0.960 . S
C201 H207 0.959 . S
H202 C198 0.960 . S
H203 C198 0.961 . S
H204 C198 0.960 . S
H205 C201 0.960 . S
H206 C201 0.960 . S
H207 C201 0.959 . S
C208 O209 1.164 1_554 S
C208 O215 1.185 . S
O209 C208 1.164 1_556 S
O210 Zn211 1.899 1_556 S
O210 C218 1.284 . S
Zn211 O210 1.899 1_554 S
Zn211 O212 2.032 . S
Zn211 O215 2.086 . S
Zn211 O220 1.977 . S
O212 Zn211 2.032 . S
O212 C216 1.278 . S
C213 O214 1.203 . S
C213 O220 1.267 . S
O214 C213 1.203 . S
O215 C208 1.185 . S
O215 Zn211 2.086 . S
C216 O212 1.278 . S
C216 O217 1.211 . S
O217 C216 1.211 . S
C218 O210 1.284 . S
C218 O219 1.273 . S
O219 C218 1.273 . S
O220 Zn211 1.977 . S
O220 C213 1.267 . S
C221 O222 1.160 . S
C221 O228 1.185 . S
O222 C221 1.160 . S
O223 Zn224 1.899 . S
O223 C231 1.284 . S
Zn224 O223 1.899 . S
Zn224 O225 2.032 . S
Zn224 O228 2.086 . S
Zn224 O233 1.977 . S
O225 Zn224 2.032 . S
O225 C229 1.278 . S
C226 O227 1.203 . S
C226 O233 1.267 . S
O227 C226 1.203 . S
O228 C221 1.185 . S
O228 Zn224 2.086 . S
C229 O225 1.278 . S
C229 O230 1.211 . S
O230 C229 1.211 . S
C231 O223 1.284 . S
C231 O232 1.273 . S
O232 C231 1.273 . S
O233 Zn224 1.977 . S
O233 C226 1.267 . S
C234 O235 1.160 1_554 S
C234 O241 1.185 . S
O235 C234 1.160 1_556 S
O236 Zn237 1.899 1_556 S
O236 C244 1.284 . S
Zn237 O236 1.899 1_554 S
Zn237 O238 2.032 1_554 S
Zn237 O241 2.086 . S
Zn237 O246 1.977 . S
O238 Zn237 2.032 1_556 S
O238 C242 1.278 . S
C239 O240 1.203 . S
C239 O246 1.267 . S
O240 C239 1.203 . S
O241 C234 1.185 . S
O241 Zn237 2.086 . S
C242 O238 1.278 . S
C242 O243 1.211 1_556 S
O243 C242 1.211 1_554 S
C244 O236 1.284 . S
C244 O245 1.273 . S
O245 C244 1.273 . S
O246 Zn237 1.977 . S
O246 C239 1.267 . S
C247 O248 1.160 . S
C247 O254 1.185 . S
O248 C247 1.160 . S
O249 Zn250 1.899 . S
O249 C257 1.284 . S
Zn250 O249 1.899 . S
Zn250 O251 2.032 1_545 S
Zn250 O254 2.086 . S
Zn250 O259 1.977 . S
O251 Zn250 2.032 1_565 S
O251 C255 1.278 . S
C252 O253 1.203 1_545 S
C252 O259 1.267 . S
O253 C252 1.203 1_565 S
O254 C247 1.185 . S
O254 Zn250 2.086 . S
C255 O251 1.278 . S
C255 O256 1.211 . S
O256 C255 1.211 . S
C257 O249 1.284 . S
C257 O258 1.273 1_545 S
O258 C257 1.273 1_565 S
O259 Zn250 1.977 . S
O259 C252 1.267 . S
C260 O261 1.160 . S
C260 O267 1.185 . S
O261 C260 1.160 . S
O262 Zn263 1.899 . S
O262 C270 1.284 . S
Zn263 O262 1.899 . S
Zn263 O264 2.032 . S
Zn263 O267 2.086 . S
Zn263 O272 1.977 . S
O264 Zn263 2.032 . S
O264 C268 1.278 . S
C265 O266 1.203 . S
C265 O272 1.267 . S
O266 C265 1.203 . S
O267 C260 1.185 . S
O267 Zn263 2.086 . S
C268 O264 1.278 . S
C268 O269 1.211 . S
O269 C268 1.211 . S
C270 O262 1.284 . S
C270 O271 1.273 . S
O271 C270 1.273 . S
O272 Zn263 1.977 . S
O272 C265 1.267 . S
C273 O274 1.160 . S
C273 O280 1.185 . S
O274 C273 1.160 . S
O275 Zn276 1.899 . S
O275 C283 1.284 . S
Zn276 O275 1.899 . S
Zn276 O277 2.032 . S
Zn276 O280 2.086 . S
Zn276 O285 1.977 . S
O277 Zn276 2.032 . S
O277 C281 1.278 . S
C278 O279 1.203 . S
C278 O285 1.267 . S
O279 C278 1.203 . S
O280 C273 1.185 . S
O280 Zn276 2.086 . S
C281 O277 1.278 . S
C281 O282 1.211 . S
O282 C281 1.211 . S
C283 O275 1.284 . S
C283 O284 1.273 . S
O284 C283 1.273 . S
O285 Zn276 1.977 . S
O285 C278 1.267 . S
C286 O287 1.160 . S
C286 O293 1.185 . S
O287 C286 1.160 . S
O288 Zn289 1.899 . S
O288 C296 1.284 . S
Zn289 O288 1.899 . S
Zn289 O290 2.032 . S
Zn289 O293 2.086 . S
Zn289 O298 1.977 . S
O290 Zn289 2.032 . S
O290 C294 1.278 . S
C291 O292 1.203 . S
C291 O298 1.267 . S
O292 C291 1.203 . S
O293 C286 1.185 . S
O293 Zn289 2.086 . S
C294 O290 1.278 . S
C294 O295 1.211 . S
O295 C294 1.211 . S
C296 O288 1.284 . S
C296 O297 1.273 . S
O297 C296 1.273 . S
O298 Zn289 1.977 . S
O298 C291 1.267 . S
C299 O300 1.160 . S
C299 O306 1.185 . S
O300 C299 1.160 . S
O301 Zn302 1.899 . S
O301 C309 1.284 1_565 S
Zn302 O301 1.899 . S
Zn302 O303 2.032 1_565 S
Zn302 O306 2.086 . S
Zn302 O311 1.977 . S
O303 Zn302 2.032 1_545 S
O303 C307 1.278 . S
C304 O305 1.203 1_565 S
C304 O311 1.267 . S
O305 C304 1.203 1_545 S
O306 C299 1.185 . S
O306 Zn302 2.086 . S
C307 O303 1.278 . S
C307 O308 1.211 . S
O308 C307 1.211 . S
C309 O301 1.284 1_545 S
C309 O310 1.273 . S
O310 C309 1.273 . S
O311 Zn302 1.977 . S
O311 C304 1.267 . S
C312 O313 1.160 . S
C312 O319 1.185 1_655 S
O313 C312 1.160 . S
O314 Zn315 1.899 1_655 S
O314 C322 1.284 . S
Zn315 O314 1.899 1_455 S
Zn315 O316 2.032 1_455 S
Zn315 O319 2.086 . S
Zn315 O324 1.977 . S
O316 Zn315 2.032 1_655 S
O316 C320 1.275 1_655 S
C317 O318 1.203 . S
C317 O324 1.267 . S
O318 C317 1.203 . S
O319 C312 1.185 1_455 S
O319 Zn315 2.086 . S
C320 O316 1.275 1_455 S
C320 O321 1.221 . S
O321 C320 1.221 . S
C322 O314 1.284 . S
C322 O323 1.273 . S
O323 C322 1.273 . S
O324 Zn315 1.977 . S
O324 C317 1.267 . S
C325 O326 1.160 . S
C325 O332 1.185 . S
O326 C325 1.160 . S
O327 Zn328 1.899 . S
O327 C335 1.284 . S
Zn328 O327 1.899 . S
Zn328 O329 2.032 . S
Zn328 O332 2.086 . S
Zn328 O337 1.977 . S
O329 Zn328 2.032 . S
O329 C333 1.278 . S
C330 O331 1.203 . S
C330 O337 1.267 . S
O331 C330 1.203 . S
O332 C325 1.185 . S
O332 Zn328 2.086 . S
C333 O329 1.278 . S
C333 O334 1.211 . S
O334 C333 1.211 . S
C335 O327 1.284 . S
C335 O336 1.273 . S
O336 C335 1.273 . S
O337 Zn328 1.977 . S
O337 C330 1.267 . S
C338 O339 1.174 . S
C338 O345 1.185 . S
O339 C338 1.174 . S
O340 Zn341 1.899 1_655 S
O340 C348 1.284 . S
Zn341 O340 1.899 1_455 S
Zn341 O342 2.032 . S
Zn341 O345 2.086 . S
Zn341 O350 1.977 . S
O342 Zn341 2.032 . S
O342 C346 1.278 . S
C343 O344 1.203 . S
C343 O350 1.267 . S
O344 C343 1.203 . S
O345 C338 1.185 . S
O345 Zn341 2.086 . S
C346 O342 1.278 . S
C346 O347 1.211 . S
O347 C346 1.211 . S
C348 O340 1.284 . S
C348 O349 1.273 . S
O349 C348 1.273 . S
O350 Zn341 1.977 . S
O350 C343 1.267 . S
C351 O352 1.160 . S
C351 O358 1.185 . S
O352 C351 1.160 . S
O353 Zn354 1.899 . S
O353 C361 1.284 . S
Zn354 O353 1.899 . S
Zn354 O355 2.032 . S
Zn354 O358 2.086 . S
Zn354 O363 1.977 . S
O355 Zn354 2.032 . S
O355 C359 1.278 . S
C356 O357 1.203 . S
C356 O363 1.267 . S
O357 C356 1.203 . S
O358 C351 1.185 . S
O358 Zn354 2.086 . S
C359 O355 1.278 . S
C359 O360 1.211 . S
O360 C359 1.211 . S
C361 O353 1.284 . S
C361 O362 1.273 . S
O362 C361 1.273 . S
O363 Zn354 1.977 . S
O363 C356 1.267 . S
H364 C370 0.930 . S
H365 C373 0.930 . S
H366 C374 0.930 . S
H367 C375 0.930 . S
H368 C378 0.930 . S
H369 C379 0.930 . S
C370 H364 0.930 . S
C370 C371 1.355 . S
C370 C372 1.415 . S
C371 C370 1.355 . S
C371 C373 1.419 . S
C372 C370 1.415 . S
C372 C377 1.425 . S
C372 C379 1.409 . S
C373 H365 0.930 . S
C373 C371 1.419 . S
C373 C374 1.362 . S
C374 H366 0.930 . S
C374 C373 1.362 . S
C374 C377 1.409 . S
C375 H367 0.930 . S
C375 C376 1.355 . S
C375 C377 1.415 . S
C376 C375 1.355 . S
C376 C378 1.419 . S
C377 C372 1.425 . S
C377 C374 1.409 . S
C377 C375 1.415 . S
C378 H368 0.930 . S
C378 C376 1.419 . S
C378 C379 1.362 . S
C379 H369 0.930 . S
C379 C372 1.409 . S
C379 C378 1.362 . S
H380 C386 0.930 . S
H381 C389 0.930 . S
H382 C390 0.930 . S
H383 C391 0.930 . S
H384 C394 0.930 . S
H385 C395 0.930 . S
C386 H380 0.930 . S
C386 C387 1.355 1_455 S
C386 C388 1.415 . S
C387 C386 1.355 1_655 S
C387 C389 1.419 . S
C388 C386 1.415 . S
C388 C393 1.425 . S
C388 C395 1.409 . S
C389 H381 0.930 . S
C389 C387 1.419 . S
C389 C390 1.362 . S
C390 H382 0.930 . S
C390 C389 1.362 . S
C390 C393 1.409 1_655 S
C391 H383 0.930 . S
C391 C392 1.355 . S
C391 C393 1.415 . S
C392 C391 1.355 . S
C392 C394 1.419 . S
C393 C388 1.425 . S
C393 C390 1.409 1_455 S
C393 C391 1.415 . S
C394 H384 0.930 . S
C394 C392 1.419 . S
C394 C395 1.362 . S
C395 H385 0.930 . S
C395 C388 1.409 . S
C395 C394 1.362 . S
H396 C402 0.930 . S
H397 C405 0.930 . S
H398 C406 0.930 . S
H399 C407 0.930 . S
H400 C410 0.930 . S
H401 C411 0.930 . S
C402 H396 0.930 . S
C402 C403 1.355 . S
C402 C404 1.415 . S
C403 C402 1.355 . S
C403 C405 1.419 . S
C404 C402 1.415 . S
C404 C409 1.425 . S
C404 C411 1.409 . S
C405 H397 0.930 . S
C405 C403 1.419 . S
C405 C406 1.362 . S
C406 H398 0.930 . S
C406 C405 1.362 . S
C406 C409 1.409 . S
C407 H399 0.930 . S
C407 C408 1.355 . S
C407 C409 1.415 . S
C408 C407 1.355 . S
C408 C410 1.419 . S
C409 C404 1.425 . S
C409 C406 1.409 . S
C409 C407 1.415 . S
C410 H400 0.930 . S
C410 C408 1.419 . S
C410 C411 1.362 . S
C411 H401 0.930 . S
C411 C404 1.409 . S
C411 C410 1.362 . S
H412 C418 0.930 . S
H413 C421 0.930 . S
H414 C422 0.925 1_445 S
H415 C423 0.930 . S
H416 C426 0.933 . S
H417 C427 0.930 . S
C418 H412 0.930 . S
C418 C419 1.368 . S
C418 C420 1.415 . S
C419 C418 1.368 . S
C419 C421 1.414 1_655 S
C420 C418 1.415 . S
C420 C425 1.428 . S
C420 C427 1.409 . S
C421 H413 0.930 . S
C421 C419 1.414 1_455 S
C421 C422 1.362 1_455 S
C422 H414 0.925 1_665 S
C422 C421 1.362 1_655 S
C422 C425 1.410 . S
C423 H415 0.930 . S
C423 C424 1.355 . S
C423 C425 1.411 1_545 S
C424 C423 1.355 . S
C424 C426 1.428 . S
C425 C420 1.428 . S
C425 C422 1.410 . S
C425 C423 1.411 1_565 S
C426 H416 0.933 . S
C426 C424 1.428 . S
C426 C427 1.351 1_545 S
C427 H417 0.930 . S
C427 C420 1.409 . S
C427 C426 1.351 1_565 S
H428 C434 0.930 . S
H429 C437 0.930 . S
H430 C438 0.930 . S
H431 C439 0.930 . S
H432 C442 0.930 . S
H433 C443 0.930 . S
C434 H428 0.930 . S
C434 C435 1.355 . S
C434 C436 1.415 . S
C435 C434 1.355 . S
C435 C437 1.419 . S
C436 C434 1.415 . S
C436 C441 1.425 . S
C436 C443 1.409 . S
C437 H429 0.930 . S
C437 C435 1.419 . S
C437 C438 1.362 . S
C438 H430 0.930 . S
C438 C437 1.362 . S
C438 C441 1.409 . S
C439 H431 0.930 . S
C439 C440 1.355 . S
C439 C441 1.415 . S
C440 C439 1.355 . S
C440 C442 1.419 . S
C441 C436 1.425 . S
C441 C438 1.409 . S
C441 C439 1.415 . S
C442 H432 0.930 . S
C442 C440 1.419 . S
C442 C443 1.362 . S
C443 H433 0.930 . S
C443 C436 1.409 . S
C443 C442 1.362 . S
H444 C450 0.930 . S
H445 C453 0.930 . S
H446 C454 0.930 . S
H447 C455 0.930 . S
H448 C458 0.930 . S
H449 C459 0.930 . S
C450 H444 0.930 . S
C450 C451 1.355 . S
C450 C452 1.415 . S
C451 C450 1.355 . S
C451 C453 1.419 . S
C452 C450 1.415 . S
C452 C457 1.425 . S
C452 C459 1.409 . S
C453 H445 0.930 . S
C453 C451 1.419 . S
C453 C454 1.362 . S
C454 H446 0.930 . S
C454 C453 1.362 . S
C454 C457 1.409 . S
C455 H447 0.930 . S
C455 C456 1.355 . S
C455 C457 1.415 . S
C456 C455 1.355 . S
C456 C458 1.419 . S
C457 C452 1.425 . S
C457 C454 1.409 . S
C457 C455 1.415 . S
C458 H448 0.930 . S
C458 C456 1.419 . S
C458 C459 1.362 . S
C459 H449 0.930 . S
C459 C452 1.409 . S
C459 C458 1.362 . S
H460 C466 0.930 . S
H461 C469 0.930 . S
H462 C470 0.930 . S
H463 C471 0.930 . S
H464 C474 0.930 . S
H465 C475 0.930 . S
C466 H460 0.930 . S
C466 C467 1.355 . S
C466 C468 1.415 . S
C467 C466 1.355 . S
C467 C469 1.419 . S
C468 C466 1.415 . S
C468 C473 1.425 . S
C468 C475 1.409 . S
C469 H461 0.930 . S
C469 C467 1.419 . S
C469 C470 1.362 . S
C470 H462 0.930 . S
C470 C469 1.362 . S
C470 C473 1.409 . S
C471 H463 0.930 . S
C471 C472 1.355 . S
C471 C473 1.415 . S
C472 C471 1.355 . S
C472 C474 1.419 . S
C473 C468 1.425 . S
C473 C470 1.409 . S
C473 C471 1.415 . S
C474 H464 0.930 . S
C474 C472 1.419 . S
C474 C475 1.362 . S
C475 H465 0.930 . S
C475 C468 1.409 . S
C475 C474 1.362 . S
H476 C482 0.930 . S
H477 C485 0.930 . S
H478 C486 0.930 . S
H479 C487 0.930 . S
H480 C490 0.930 . S
H481 C491 0.930 . S
C482 H476 0.930 . S
C482 C483 1.355 . S
C482 C484 1.415 . S
C483 C482 1.355 . S
C483 C485 1.419 . S
C484 C482 1.415 . S
C484 C489 1.425 . S
C484 C491 1.409 . S
C485 H477 0.930 . S
C485 C483 1.419 . S
C485 C486 1.362 . S
C486 H478 0.930 . S
C486 C485 1.362 . S
C486 C489 1.409 . S
C487 H479 0.930 . S
C487 C488 1.355 . S
C487 C489 1.415 . S
C488 C487 1.355 . S
C488 C490 1.419 . S
C489 C484 1.425 . S
C489 C486 1.409 . S
C489 C487 1.415 . S
C490 H480 0.930 . S
C490 C488 1.419 . S
C490 C491 1.362 . S
C491 H481 0.930 . S
C491 C484 1.409 . S
C491 C490 1.362 . S
H492 C498 0.930 . S
H493 C501 0.930 . S
H494 C502 0.930 . S
H495 C503 0.930 . S
H496 C506 0.930 . S
H497 C507 0.930 . S
C498 H492 0.930 . S
C498 C499 1.355 . S
C498 C500 1.415 . S
C499 C498 1.355 . S
C499 C501 1.419 . S
C500 C498 1.415 . S
C500 C505 1.425 . S
C500 C507 1.409 . S
C501 H493 0.930 . S
C501 C499 1.419 . S
C501 C502 1.362 . S
C502 H494 0.930 . S
C502 C501 1.362 . S
C502 C505 1.409 . S
C503 H495 0.930 . S
C503 C504 1.355 . S
C503 C505 1.415 . S
C504 C503 1.355 . S
C504 C506 1.419 . S
C505 C500 1.425 . S
C505 C502 1.409 . S
C505 C503 1.415 . S
C506 H496 0.930 . S
C506 C504 1.419 . S
C506 C507 1.362 . S
C507 H497 0.930 . S
C507 C500 1.409 . S
C507 C506 1.362 . S
H508 C514 0.930 . S
H509 C517 0.930 . S
H510 C518 0.930 . S
H511 C519 0.930 . S
H512 C522 0.930 . S
H513 C523 0.930 . S
C514 H508 0.930 . S
C514 C515 1.355 . S
C514 C516 1.415 . S
C515 C514 1.355 . S
C515 C517 1.419 . S
C516 C514 1.415 . S
C516 C521 1.425 . S
C516 C523 1.409 . S
C517 H509 0.930 . S
C517 C515 1.419 . S
C517 C518 1.362 . S
C518 H510 0.930 . S
C518 C517 1.362 . S
C518 C521 1.409 . S
C519 H511 0.930 . S
C519 C520 1.355 . S
C519 C521 1.415 . S
C520 C519 1.355 . S
C520 C522 1.419 . S
C521 C516 1.425 . S
C521 C518 1.409 . S
C521 C519 1.415 . S
C522 H512 0.930 . S
C522 C520 1.419 . S
C522 C523 1.362 . S
C523 H513 0.930 . S
C523 C516 1.409 . S
C523 C522 1.362 . S
H524 C530 0.930 . S
H525 C533 0.930 . S
H526 C534 0.930 . S
H527 C535 0.930 . S
H528 C538 0.930 . S
H529 C539 0.930 . S
C530 H524 0.930 . S
C530 C531 1.355 . S
C530 C532 1.415 . S
C531 C530 1.355 . S
C531 C533 1.419 . S
C532 C530 1.415 . S
C532 C537 1.425 . S
C532 C539 1.409 . S
C533 H525 0.930 . S
C533 C531 1.419 . S
C533 C534 1.362 . S
C534 H526 0.930 . S
C534 C533 1.362 . S
C534 C537 1.409 . S
C535 H527 0.930 . S
C535 C536 1.355 . S
C535 C537 1.415 . S
C536 C535 1.355 . S
C536 C538 1.419 . S
C537 C532 1.425 . S
C537 C534 1.409 . S
C537 C535 1.415 . S
C538 H528 0.930 . S
C538 C536 1.419 . S
C538 C539 1.362 . S
C539 H529 0.930 . S
C539 C532 1.409 . S
C539 C538 1.362 . S
H540 C546 0.930 . S
H541 C549 0.930 . S
H542 C550 0.930 . S
H543 C551 0.930 . S
H544 C554 0.930 . S
H545 C555 0.930 . S
C546 H540 0.930 . S
C546 C547 1.355 . S
C546 C548 1.415 . S
C547 C546 1.355 . S
C547 C549 1.419 . S
C548 C546 1.415 . S
C548 C553 1.425 . S
C548 C555 1.409 . S
C549 H541 0.930 . S
C549 C547 1.419 . S
C549 C550 1.362 . S
C550 H542 0.930 . S
C550 C549 1.362 . S
C550 C553 1.409 . S
C551 H543 0.930 . S
C551 C552 1.355 . S
C551 C553 1.415 . S
C552 C551 1.355 . S
C552 C554 1.419 . S
C553 C548 1.425 . S
C553 C550 1.409 . S
C553 C551 1.415 . S
C554 H544 0.930 . S
C554 C552 1.419 . S
C554 C555 1.362 . S
C555 H545 0.930 . S
C555 C548 1.409 . S
C555 C554 1.362 . S
H556 C562 0.930 . S
H557 C565 0.930 . S
H558 C566 0.930 . S
H559 C567 0.930 . S
H560 C570 0.930 . S
H561 C571 0.930 . S
C562 H556 0.930 . S
C562 C563 1.355 . S
C562 C564 1.415 . S
C563 C562 1.355 . S
C563 C565 1.419 . S
C564 C562 1.415 . S
C564 C569 1.425 . S
C564 C571 1.409 . S
C565 H557 0.930 . S
C565 C563 1.419 . S
C565 C566 1.362 . S
C566 H558 0.930 . S
C566 C565 1.362 . S
C566 C569 1.409 . S
C567 H559 0.930 . S
C567 C568 1.355 . S
C567 C569 1.415 . S
C568 C567 1.355 . S
C568 C570 1.419 . S
C569 C564 1.425 . S
C569 C566 1.409 . S
C569 C567 1.415 . S
C570 H560 0.930 . S
C570 C568 1.419 . S
C570 C571 1.362 . S
C571 H561 0.930 . S
C571 C564 1.409 . S
C571 C570 1.362 . S
H572 C578 0.930 . S
H573 C581 0.930 . S
H574 C582 0.930 . S
H575 C583 0.930 . S
H576 C586 0.930 . S
H577 C587 0.930 . S
C578 H572 0.930 . S
C578 C579 1.355 . S
C578 C580 1.415 . S
C579 C578 1.355 . S
C579 C581 1.419 . S
C580 C578 1.415 . S
C580 C585 1.425 . S
C580 C587 1.409 . S
C581 H573 0.930 . S
C581 C579 1.419 . S
C581 C582 1.362 . S
C582 H574 0.930 . S
C582 C581 1.362 . S
C582 C585 1.409 . S
C583 H575 0.930 . S
C583 C584 1.355 . S
C583 C585 1.415 . S
C584 C583 1.355 . S
C584 C586 1.419 . S
C585 C580 1.425 . S
C585 C582 1.409 . S
C585 C583 1.415 . S
C586 H576 0.930 . S
C586 C584 1.419 . S
C586 C587 1.362 . S
C587 H577 0.930 . S
C587 C580 1.409 . S
C587 C586 1.362 . S
H588 C594 0.930 . S
H589 C597 0.930 . S
H590 C598 0.930 . S
H591 C599 0.930 . S
H592 C602 0.930 . S
H593 C603 0.930 . S
C594 H588 0.930 . S
C594 C595 1.355 . S
C594 C596 1.415 . S
C595 C594 1.355 . S
C595 C597 1.419 . S
C596 C594 1.415 . S
C596 C601 1.425 . S
C596 C603 1.409 . S
C597 H589 0.930 . S
C597 C595 1.419 . S
C597 C598 1.362 . S
C598 H590 0.930 . S
C598 C597 1.362 . S
C598 C601 1.409 . S
C599 H591 0.930 . S
C599 C600 1.355 . S
C599 C601 1.415 . S
C600 C599 1.355 . S
C600 C602 1.419 . S
C601 C596 1.425 . S
C601 C598 1.409 . S
C601 C599 1.415 . S
C602 H592 0.930 . S
C602 C600 1.419 . S
C602 C603 1.362 . S
C603 H593 0.930 . S
C603 C596 1.409 . S
C603 C602 1.362 . S
H604 C610 0.930 . S
H605 C613 0.930 . S
H606 C614 0.930 . S
H607 C615 0.930 . S
H608 C618 0.930 . S
H609 C619 0.930 . S
C610 H604 0.930 . S
C610 C611 1.355 . S
C610 C612 1.415 . S
C611 C610 1.355 . S
C611 C613 1.419 1_655 S
C612 C610 1.415 . S
C612 C617 1.425 1_655 S
C612 C619 1.409 . S
C613 H605 0.930 . S
C613 C611 1.419 1_455 S
C613 C614 1.362 . S
C614 H606 0.930 . S
C614 C613 1.362 . S
C614 C617 1.409 . S
C615 H607 0.930 . S
C615 C616 1.355 1_455 S
C615 C617 1.415 . S
C616 C615 1.355 1_655 S
C616 C618 1.419 . S
C617 C612 1.425 1_455 S
C617 C614 1.409 . S
C617 C615 1.415 . S
C618 H608 0.930 . S
C618 C616 1.419 . S
C618 C619 1.362 . S
C619 H609 0.930 . S
C619 C612 1.409 . S
C619 C618 1.362 . S
H620 C626 0.930 . S
H621 C629 0.930 . S
H622 C630 0.930 . S
H623 C631 0.930 . S
H624 C634 0.930 . S
H625 C635 0.930 . S
C626 H620 0.930 . S
C626 C627 1.355 . S
C626 C628 1.415 . S
C627 C626 1.355 . S
C627 C629 1.419 . S
C628 C626 1.415 . S
C628 C633 1.425 . S
C628 C635 1.409 . S
C629 H621 0.930 . S
C629 C627 1.419 . S
C629 C630 1.362 . S
C630 H622 0.930 . S
C630 C629 1.362 . S
C630 C633 1.409 . S
C631 H623 0.930 . S
C631 C632 1.355 . S
C631 C633 1.415 . S
C632 C631 1.355 . S
C632 C634 1.419 . S
C633 C628 1.425 . S
C633 C630 1.409 . S
C633 C631 1.415 . S
C634 H624 0.930 . S
C634 C632 1.419 . S
C634 C635 1.362 . S
C635 H625 0.930 . S
C635 C628 1.409 . S
C635 C634 1.362 . S
H636 C642 0.930 . S
H637 C645 0.930 . S
H638 C646 0.930 . S
H639 C647 0.930 . S
H640 C650 0.930 . S
H641 C651 0.930 . S
C642 H636 0.930 . S
C642 C643 1.355 . S
C642 C644 1.415 . S
C643 C642 1.355 . S
C643 C645 1.419 . S
C644 C642 1.415 . S
C644 C649 1.425 . S
C644 C651 1.409 . S
C645 H637 0.930 . S
C645 C643 1.419 . S
C645 C646 1.362 . S
C646 H638 0.930 . S
C646 C645 1.362 . S
C646 C649 1.409 . S
C647 H639 0.930 . S
C647 C648 1.355 . S
C647 C649 1.415 . S
C648 C647 1.355 . S
C648 C650 1.419 . S
C649 C644 1.425 . S
C649 C646 1.409 . S
C649 C647 1.415 . S
C650 H640 0.930 . S
C650 C648 1.419 . S
C650 C651 1.362 . S
C651 H641 0.930 . S
C651 C644 1.409 . S
C651 C650 1.362 . S
H652 C658 0.930 . S
H653 C661 0.930 . S
H654 C662 0.930 . S
H655 C663 0.930 . S
H656 C666 0.930 . S
H657 C667 0.930 . S
C658 H652 0.930 . S
C658 C659 1.355 . S
C658 C660 1.415 1_545 S
C659 C658 1.355 . S
C659 C661 1.419 1_546 S
C660 C658 1.415 1_565 S
C660 C665 1.425 1_556 S
C660 C667 1.409 . S
C661 H653 0.930 . S
C661 C659 1.419 1_564 S
C661 C662 1.362 . S
C662 H654 0.930 . S
C662 C661 1.362 . S
C662 C665 1.409 . S
C663 H655 0.930 . S
C663 C664 1.355 . S
C663 C665 1.415 . S
C664 C663 1.355 . S
C664 C666 1.419 1_554 S
C665 C660 1.425 1_554 S
C665 C662 1.409 . S
C665 C663 1.415 . S
C666 H656 0.930 . S
C666 C664 1.419 1_556 S
C666 C667 1.362 . S
C667 H657 0.930 . S
C667 C660 1.409 . S
C667 C666 1.362 . S
H668 C674 0.930 . S
H669 C677 0.930 . S
H670 C678 0.930 . S
H671 C679 0.930 . S
H672 C682 0.930 . S
H673 C683 0.930 . S
C674 H668 0.930 . S
C674 C675 1.355 . S
C674 C676 1.415 . S
C675 C674 1.355 . S
C675 C677 1.419 . S
C676 C674 1.415 . S
C676 C681 1.425 . S
C676 C683 1.409 . S
C677 H669 0.930 . S
C677 C675 1.419 . S
C677 C678 1.362 . S
C678 H670 0.930 . S
C678 C677 1.362 . S
C678 C681 1.409 . S
C679 H671 0.930 . S
C679 C680 1.355 . S
C679 C681 1.415 . S
C680 C679 1.355 . S
C680 C682 1.419 . S
C681 C676 1.425 . S
C681 C678 1.409 . S
C681 C679 1.415 . S
C682 H672 0.930 . S
C682 C680 1.419 . S
C682 C683 1.362 . S
C683 H673 0.930 . S
C683 C676 1.409 . S
C683 C682 1.362 . S
H684 C690 0.930 1_565 S
H685 C693 0.930 . S
H686 C694 0.930 . S
H687 C695 0.930 . S
H688 C698 0.930 . S
H689 C699 0.930 1_565 S
C690 H684 0.930 1_545 S
C690 C691 1.355 . S
C690 C692 1.415 . S
C691 C690 1.355 . S
C691 C693 1.419 . S
C692 C690 1.415 . S
C692 C697 1.425 . S
C692 C699 1.409 . S
C693 H685 0.930 . S
C693 C691 1.419 . S
C693 C694 1.362 . S
C694 H686 0.930 . S
C694 C693 1.362 . S
C694 C697 1.409 . S
C695 H687 0.930 . S
C695 C696 1.355 . S
C695 C697 1.415 . S
C696 C695 1.355 . S
C696 C698 1.419 . S
C697 C692 1.425 . S
C697 C694 1.409 . S
C697 C695 1.415 . S
C698 H688 0.930 . S
C698 C696 1.419 . S
C698 C699 1.362 . S
C699 H689 0.930 1_545 S
C699 C692 1.409 . S
C699 C698 1.362 . S
H700 C706 0.930 . S
H701 C709 0.930 . S
H702 C710 0.930 . S
H703 C711 0.930 . S
H704 C714 0.930 . S
H705 C715 0.930 . S
C706 H700 0.930 . S
C706 C707 1.355 . S
C706 C708 1.415 . S
C707 C706 1.355 . S
C707 C709 1.419 . S
C708 C706 1.415 . S
C708 C713 1.425 . S
C708 C715 1.409 . S
C709 H701 0.930 . S
C709 C707 1.419 . S
C709 C710 1.362 . S
C710 H702 0.930 . S
C710 C709 1.362 . S
C710 C713 1.409 . S
C711 H703 0.930 . S
C711 C712 1.355 . S
C711 C713 1.415 . S
C712 C711 1.355 . S
C712 C714 1.419 . S
C713 C708 1.425 . S
C713 C710 1.409 . S
C713 C711 1.415 . S
C714 H704 0.930 . S
C714 C712 1.419 . S
C714 C715 1.362 . S
C715 H705 0.930 . S
C715 C708 1.409 . S
C715 C714 1.362 . S
H716 C722 0.930 . S
H717 C725 0.930 . S
H718 C726 0.930 1_565 S
H719 C727 0.930 . S
H720 C730 0.930 . S
H721 C731 0.930 . S
C722 H716 0.930 . S
C722 C723 1.355 . S
C722 C724 1.415 . S
C723 C722 1.355 . S
C723 C725 1.419 1_545 S
C724 C722 1.415 . S
C724 C729 1.425 . S
C724 C731 1.409 . S
C725 H717 0.930 . S
C725 C723 1.419 1_565 S
C725 C726 1.362 1_565 S
C726 H718 0.930 1_545 S
C726 C725 1.362 1_545 S
C726 C729 1.409 . S
C727 H719 0.930 . S
C727 C728 1.355 . S
C727 C729 1.415 . S
C728 C727 1.355 . S
C728 C730 1.419 . S
C729 C724 1.425 . S
C729 C726 1.409 . S
C729 C727 1.415 . S
C730 H720 0.930 . S
C730 C728 1.419 . S
C730 C731 1.362 . S
C731 H721 0.930 . S
C731 C724 1.409 . S
C731 C730 1.362 . S
H732 C738 0.930 . S
H733 C741 0.930 . S
H734 C742 0.930 . S
H735 C743 0.930 . S
H736 C746 0.930 . S
H737 C747 0.930 . S
C738 H732 0.930 . S
C738 C739 1.355 . S
C738 C740 1.415 . S
C739 C738 1.355 . S
C739 C741 1.419 . S
C740 C738 1.415 . S
C740 C745 1.425 . S
C740 C747 1.409 . S
C741 H733 0.930 . S
C741 C739 1.419 . S
C741 C742 1.362 . S
C742 H734 0.930 . S
C742 C741 1.362 . S
C742 C745 1.409 . S
C743 H735 0.930 . S
C743 C744 1.355 . S
C743 C745 1.415 . S
C744 C743 1.355 . S
C744 C746 1.419 . S
C745 C740 1.425 . S
C745 C742 1.409 . S
C745 C743 1.415 . S
C746 H736 0.930 . S
C746 C744 1.419 . S
C746 C747 1.362 . S
C747 H737 0.930 . S
C747 C740 1.409 . S
C747 C746 1.362 . S
H748 C754 0.930 . S
H749 C757 0.930 . S
H750 C758 0.930 . S
H751 C759 0.930 . S
H752 C762 0.930 . S
H753 C763 0.930 . S
C754 H748 0.930 . S
C754 C755 1.355 . S
C754 C756 1.415 . S
C755 C754 1.355 . S
C755 C757 1.419 . S
C756 C754 1.415 . S
C756 C761 1.425 . S
C756 C763 1.409 . S
C757 H749 0.930 . S
C757 C755 1.419 . S
C757 C758 1.362 . S
C758 H750 0.930 . S
C758 C757 1.362 . S
C758 C761 1.409 . S
C759 H751 0.930 . S
C759 C760 1.355 . S
C759 C761 1.415 . S
C760 C759 1.355 . S
C760 C762 1.419 . S
C761 C756 1.425 . S
C761 C758 1.409 . S
C761 C759 1.415 . S
C762 H752 0.930 . S
C762 C760 1.419 . S
C762 C763 1.362 . S
C763 H753 0.930 . S
C763 C756 1.409 . S
C763 C762 1.362 . S
H764 C770 0.930 . S
H765 C773 0.930 . S
H766 C774 0.930 . S
H767 C775 0.930 . S
H768 C778 0.930 . S
H769 C779 0.930 . S
C770 H764 0.930 . S
C770 C771 1.355 . S
C770 C772 1.415 . S
C771 C770 1.355 . S
C771 C773 1.419 . S
C772 C770 1.415 . S
C772 C777 1.425 . S
C772 C779 1.409 . S
C773 H765 0.930 . S
C773 C771 1.419 . S
C773 C774 1.362 . S
C774 H766 0.930 . S
C774 C773 1.362 . S
C774 C777 1.409 . S
C775 H767 0.930 . S
C775 C776 1.355 . S
C775 C777 1.415 . S
C776 C775 1.355 . S
C776 C778 1.419 . S
C777 C772 1.425 . S
C777 C774 1.409 . S
C777 C775 1.415 . S
C778 H768 0.930 . S
C778 C776 1.419 . S
C778 C779 1.362 . S
C779 H769 0.930 . S
C779 C772 1.409 . S
C779 C778 1.362 . S
H780 C786 0.930 . S
H781 C789 0.930 . S
H782 C790 0.930 . S
H783 C791 0.930 . S
H784 C794 0.930 . S
H785 C795 0.930 . S
C786 H780 0.930 . S
C786 C787 1.355 . S
C786 C788 1.415 . S
C787 C786 1.355 . S
C787 C789 1.419 . S
C788 C786 1.415 . S
C788 C793 1.425 . S
C788 C795 1.409 . S
C789 H781 0.930 . S
C789 C787 1.419 . S
C789 C790 1.362 . S
C790 H782 0.930 . S
C790 C789 1.362 . S
C790 C793 1.409 . S
C791 H783 0.930 . S
C791 C792 1.355 . S
C791 C793 1.415 . S
C792 C791 1.355 . S
C792 C794 1.419 . S
C793 C788 1.425 . S
C793 C790 1.409 . S
C793 C791 1.415 . S
C794 H784 0.930 . S
C794 C792 1.419 . S
C794 C795 1.362 . S
C795 H785 0.930 . S
C795 C788 1.409 . S
C795 C794 1.362 . S
H796 C802 0.930 . S
H797 C805 0.930 . S
H798 C806 0.930 . S
H799 C807 0.930 . S
H800 C810 0.930 . S
H801 C811 0.930 . S
C802 H796 0.930 . S
C802 C803 1.355 . S
C802 C804 1.415 . S
C803 C802 1.355 . S
C803 C805 1.419 . S
C804 C802 1.415 . S
C804 C809 1.425 . S
C804 C811 1.409 . S
C805 H797 0.930 . S
C805 C803 1.419 . S
C805 C806 1.362 . S
C806 H798 0.930 . S
C806 C805 1.362 . S
C806 C809 1.409 . S
C807 H799 0.930 . S
C807 C808 1.355 . S
C807 C809 1.415 . S
C808 C807 1.355 . S
C808 C810 1.419 . S
C809 C804 1.425 . S
C809 C806 1.409 . S
C809 C807 1.415 . S
C810 H800 0.930 . S
C810 C808 1.419 . S
C810 C811 1.362 . S
C811 H801 0.930 . S
C811 C804 1.409 . S
C811 C810 1.362 . S
H812 C818 0.930 . S
H813 C821 0.930 . S
H814 C822 0.930 . S
H815 C823 0.930 . S
H816 C826 0.930 . S
H817 C827 0.930 . S
C818 H812 0.930 . S
C818 C819 1.355 . S
C818 C820 1.415 . S
C819 C818 1.355 . S
C819 C821 1.419 . S
C820 C818 1.415 . S
C820 C825 1.425 . S
C820 C827 1.409 . S
C821 H813 0.930 . S
C821 C819 1.419 . S
C821 C822 1.362 . S
C822 H814 0.930 . S
C822 C821 1.362 . S
C822 C825 1.409 . S
C823 H815 0.930 . S
C823 C824 1.355 . S
C823 C825 1.415 . S
C824 C823 1.355 . S
C824 C826 1.419 . S
C825 C820 1.425 . S
C825 C822 1.409 . S
C825 C823 1.415 . S
C826 H816 0.930 . S
C826 C824 1.419 . S
C826 C827 1.362 . S
C827 H817 0.930 . S
C827 C820 1.409 . S
C827 C826 1.362 . S
H828 C834 0.930 . S
H829 C837 0.930 . S
H830 C838 0.930 . S
H831 C839 0.930 . S
H832 C842 0.930 . S
H833 C843 0.930 . S
C834 H828 0.930 . S
C834 C835 1.355 1_565 S
C834 C836 1.415 . S
C835 C834 1.355 1_545 S
C835 C837 1.419 . S
C836 C834 1.415 . S
C836 C841 1.425 1_565 S
C836 C843 1.409 . S
C837 H829 0.930 . S
C837 C835 1.419 . S
C837 C838 1.362 . S
C838 H830 0.930 . S
C838 C837 1.362 . S
C838 C841 1.409 . S
C839 H831 0.930 . S
C839 C840 1.355 . S
C839 C841 1.415 . S
C840 C839 1.355 . S
C840 C842 1.419 1_545 S
C841 C836 1.425 1_545 S
C841 C838 1.409 . S
C841 C839 1.415 . S
C842 H832 0.930 . S
C842 C840 1.419 1_565 S
C842 C843 1.362 . S
C843 H833 0.930 . S
C843 C836 1.409 . S
C843 C842 1.362 . S
H844 C850 0.930 . S
H845 C853 0.930 . S
H846 C854 0.930 . S
H847 C855 0.930 . S
H848 C858 0.930 . S
H849 C859 0.930 . S
C850 H844 0.930 . S
C850 C851 1.355 . S
C850 C852 1.415 . S
C851 C850 1.355 . S
C851 C853 1.419 . S
C852 C850 1.415 . S
C852 C857 1.425 . S
C852 C859 1.409 . S
C853 H845 0.930 . S
C853 C851 1.419 . S
C853 C854 1.362 . S
C854 H846 0.930 . S
C854 C853 1.362 . S
C854 C857 1.409 . S
C855 H847 0.930 . S
C855 C856 1.355 . S
C855 C857 1.415 . S
C856 C855 1.355 . S
C856 C858 1.419 . S
C857 C852 1.425 . S
C857 C854 1.409 . S
C857 C855 1.415 . S
C858 H848 0.930 . S
C858 C856 1.419 . S
C858 C859 1.362 . S
C859 H849 0.930 . S
C859 C852 1.409 . S
C859 C858 1.362 . S
H860 C866 0.930 . S
H861 C869 0.930 . S
H862 C870 0.930 . S
H863 C871 0.930 . S
H864 C874 0.930 . S
H865 C875 0.930 . S
C866 H860 0.930 . S
C866 C867 1.355 . S
C866 C868 1.415 . S
C867 C866 1.355 . S
C867 C869 1.419 1_455 S
C868 C866 1.415 . S
C868 C873 1.425 . S
C868 C875 1.409 . S
C869 H861 0.930 . S
C869 C867 1.419 1_655 S
C869 C870 1.362 1_655 S
C870 H862 0.930 . S
C870 C869 1.362 1_455 S
C870 C873 1.409 . S
C871 H863 0.930 . S
C871 C872 1.355 . S
C871 C873 1.415 . S
C872 C871 1.355 . S
C872 C874 1.419 . S
C873 C868 1.425 . S
C873 C870 1.409 . S
C873 C871 1.415 . S
C874 H864 0.930 . S
C874 C872 1.419 . S
C874 C875 1.362 . S
C875 H865 0.930 . S
C875 C868 1.409 . S
C875 C874 1.362 . S
H876 C882 0.930 . S
H877 C885 0.930 . S
H878 C886 0.930 . S
H879 C887 0.930 . S
H880 C890 0.930 . S
H881 C891 0.930 . S
C882 H876 0.930 . S
C882 C883 1.355 . S
C882 C884 1.415 . S
C883 C882 1.355 . S
C883 C885 1.419 . S
C884 C882 1.415 . S
C884 C889 1.425 . S
C884 C891 1.409 . S
C885 H877 0.930 . S
C885 C883 1.419 . S
C885 C886 1.362 . S
C886 H878 0.930 . S
C886 C885 1.362 . S
C886 C889 1.409 . S
C887 H879 0.930 . S
C887 C888 1.355 . S
C887 C889 1.415 . S
C888 C887 1.355 . S
C888 C890 1.419 . S
C889 C884 1.425 . S
C889 C886 1.409 . S
C889 C887 1.415 . S
C890 H880 0.930 . S
C890 C888 1.419 . S
C890 C891 1.362 . S
C891 H881 0.930 . S
C891 C884 1.409 . S
C891 C890 1.362 . S
H892 C898 0.915 1_456 S
H893 C901 0.930 . S
H894 C902 0.930 . S
H895 C903 0.925 1_554 S
H896 C906 0.930 . S
H897 C907 0.930 . S
C898 H892 0.915 1_654 S
C898 C899 1.376 . S
C898 C900 1.408 1_554 S
C899 C898 1.376 . S
C899 C901 1.419 . S
C900 C898 1.408 1_556 S
C900 C905 1.425 1_556 S
C900 C907 1.409 1_655 S
C901 H893 0.930 . S
C901 C899 1.419 . S
C901 C902 1.362 . S
C902 H894 0.930 . S
C902 C901 1.362 . S
C902 C905 1.409 . S
C903 H895 0.925 1_556 S
C903 C904 1.355 . S
C903 C905 1.415 1_556 S
C904 C903 1.355 . S
C904 C906 1.419 1_655 S
C905 C900 1.425 1_554 S
C905 C902 1.409 . S
C905 C903 1.415 1_554 S
C906 H896 0.930 . S
C906 C904 1.419 1_455 S
C906 C907 1.362 . S
C907 H897 0.930 . S
C907 C900 1.409 1_455 S
C907 C906 1.362 . S
H908 C914 0.930 . S
H909 C917 0.930 . S
H910 C918 0.930 . S
H911 C919 0.930 . S
H912 C922 0.930 . S
H913 C923 0.930 . S
C914 H908 0.930 . S
C914 C915 1.355 . S
C914 C916 1.415 . S
C915 C914 1.355 . S
C915 C917 1.419 . S
C916 C914 1.415 . S
C916 C921 1.425 . S
C916 C923 1.409 . S
C917 H909 0.930 . S
C917 C915 1.419 . S
C917 C918 1.362 . S
C918 H910 0.930 . S
C918 C917 1.362 . S
C918 C921 1.409 . S
C919 H911 0.930 . S
C919 C920 1.355 . S
C919 C921 1.415 . S
C920 C919 1.355 . S
C920 C922 1.419 . S
C921 C916 1.425 . S
C921 C918 1.409 . S
C921 C919 1.415 . S
C922 H912 0.930 . S
C922 C920 1.419 . S
C922 C923 1.362 . S
C923 H913 0.930 . S
C923 C916 1.409 . S
C923 C922 1.362 . S
H924 C930 0.935 . S
H925 C933 0.930 1_655 S
H926 C934 0.930 . S
H927 C935 0.930 . S
H928 C938 0.930 . S
H929 C939 0.930 . S
C930 H924 0.935 . S
C930 C931 1.342 1_556 S
C930 C932 1.422 . S
C931 C930 1.342 1_554 S
C931 C933 1.419 . S
C932 C930 1.422 . S
C932 C937 1.425 1_556 S
C932 C939 1.409 . S
C933 H925 0.930 1_455 S
C933 C931 1.419 . S
C933 C934 1.362 1_455 S
C934 H926 0.930 . S
C934 C933 1.362 1_655 S
C934 C937 1.409 1_655 S
C935 H927 0.930 . S
C935 C936 1.355 1_655 S
C935 C937 1.415 1_656 S
C936 C935 1.355 1_455 S
C936 C938 1.419 . S
C937 C932 1.425 1_554 S
C937 C934 1.409 1_455 S
C937 C935 1.415 1_454 S
C938 H928 0.930 . S
C938 C936 1.419 . S
C938 C939 1.362 . S
C939 H929 0.930 . S
C939 C932 1.409 . S
C939 C938 1.362 . S
H940 C946 0.930 . S
H941 C949 0.930 . S
H942 C950 0.930 . S
H943 C951 0.930 . S
H944 C954 0.930 . S
H945 C955 0.930 . S
C946 H940 0.930 . S
C946 C947 1.355 . S
C946 C948 1.415 . S
C947 C946 1.355 . S
C947 C949 1.419 . S
C948 C946 1.415 . S
C948 C953 1.425 . S
C948 C955 1.409 . S
C949 H941 0.930 . S
C949 C947 1.419 . S
C949 C950 1.362 . S
C950 H942 0.930 . S
C950 C949 1.362 . S
C950 C953 1.409 . S
C951 H943 0.930 . S
C951 C952 1.355 . S
C951 C953 1.415 . S
C952 C951 1.355 . S
C952 C954 1.419 . S
C953 C948 1.425 . S
C953 C950 1.409 . S
C953 C951 1.415 . S
C954 H944 0.930 . S
C954 C952 1.419 . S
C954 C955 1.362 . S
C955 H945 0.930 . S
C955 C948 1.409 . S
C955 C954 1.362 . S
H956 C962 0.930 . S
H957 C965 0.930 1_556 S
H958 C966 0.930 . S
H959 C967 0.930 . S
H960 C970 0.930 . S
H961 C971 0.930 . S
C962 H956 0.930 . S
C962 C963 1.355 . S
C962 C964 1.415 . S
C963 C962 1.355 . S
C963 C965 1.419 . S
C964 C962 1.415 . S
C964 C969 1.425 . S
C964 C971 1.409 . S
C965 H957 0.930 1_554 S
C965 C963 1.419 . S
C965 C966 1.362 . S
C966 H958 0.930 . S
C966 C965 1.362 . S
C966 C969 1.409 . S
C967 H959 0.930 . S
C967 C968 1.355 . S
C967 C969 1.415 . S
C968 C967 1.355 . S
C968 C970 1.419 . S
C969 C964 1.425 . S
C969 C966 1.409 . S
C969 C967 1.415 . S
C970 H960 0.930 . S
C970 C968 1.419 . S
C970 C971 1.362 . S
C971 H961 0.930 . S
C971 C964 1.409 . S
C971 C970 1.362 . S
H972 C978 0.930 . S
H973 C981 0.930 . S
H974 C982 0.930 . S
H975 C983 0.930 . S
H976 C986 0.930 . S
H977 C987 0.930 . S
C978 H972 0.930 . S
C978 C979 1.355 . S
C978 C980 1.415 . S
C979 C978 1.355 . S
C979 C981 1.419 . S
C980 C978 1.415 . S
C980 C985 1.425 . S
C980 C987 1.409 . S
C981 H973 0.930 . S
C981 C979 1.419 . S
C981 C982 1.362 . S
C982 H974 0.930 . S
C982 C981 1.362 . S
C982 C985 1.409 . S
C983 H975 0.930 . S
C983 C984 1.355 . S
C983 C985 1.415 . S
C984 C983 1.355 . S
C984 C986 1.419 . S
C985 C980 1.425 . S
C985 C982 1.409 . S
C985 C983 1.415 . S
C986 H976 0.930 . S
C986 C984 1.419 . S
C986 C987 1.362 . S
C987 H977 0.930 . S
C987 C980 1.409 . S
C987 C986 1.362 . S
H988 C994 0.930 . S
H989 C997 0.923 1_556 S
H990 C998 0.930 . S
H991 C999 0.930 . S
H992 C1002 0.930 . S
H993 C1003 0.930 . S
C994 H988 0.930 . S
C994 C995 1.355 . S
C994 C996 1.415 . S
C995 C994 1.355 . S
C995 C997 1.419 . S
C996 C994 1.415 . S
C996 C1001 1.425 . S
C996 C1003 1.409 . S
C997 H989 0.923 1_554 S
C997 C995 1.419 . S
C997 C998 1.362 . S
C998 H990 0.930 . S
C998 C997 1.362 . S
C998 C1001 1.409 . S
C999 H991 0.930 . S
C999 C1000 1.355 . S
C999 C1001 1.415 . S
C1000 C999 1.355 . S
C1000 C1002 1.419 . S
C1001 C996 1.425 . S
C1001 C998 1.409 . S
C1001 C999 1.415 . S
C1002 H992 0.930 . S
C1002 C1000 1.419 . S
C1002 C1003 1.362 . S
C1003 H993 0.930 . S
C1003 C996 1.409 . S
C1003 C1002 1.362 . S
H1004 C1010 0.930 . S
H1005 C1013 0.930 . S
H1006 C1014 0.930 . S
H1007 C1015 0.930 . S
H1008 C1018 0.930 . S
H1009 C1019 0.930 . S
C1010 H1004 0.930 . S
C1010 C1011 1.355 . S
C1010 C1012 1.415 . S
C1011 C1010 1.355 . S
C1011 C1013 1.419 . S
C1012 C1010 1.415 . S
C1012 C1017 1.425 . S
C1012 C1019 1.409 . S
C1013 H1005 0.930 . S
C1013 C1011 1.419 . S
C1013 C1014 1.362 . S
C1014 H1006 0.930 . S
C1014 C1013 1.362 . S
C1014 C1017 1.409 . S
C1015 H1007 0.930 . S
C1015 C1016 1.355 . S
C1015 C1017 1.415 . S
C1016 C1015 1.355 . S
C1016 C1018 1.419 . S
C1017 C1012 1.425 . S
C1017 C1014 1.409 . S
C1017 C1015 1.415 . S
C1018 H1008 0.930 . S
C1018 C1016 1.419 . S
C1018 C1019 1.362 . S
C1019 H1009 0.930 . S
C1019 C1012 1.409 . S
C1019 C1018 1.362 . S
H1020 C1026 0.930 . S
H1021 C1029 0.930 . S
H1022 C1030 0.930 . S
H1023 C1031 0.930 . S
H1024 C1034 0.930 . S
H1025 C1035 0.930 . S
C1026 H1020 0.930 . S
C1026 C1027 1.355 . S
C1026 C1028 1.415 . S
C1027 C1026 1.355 . S
C1027 C1029 1.419 . S
C1028 C1026 1.415 . S
C1028 C1033 1.425 . S
C1028 C1035 1.409 . S
C1029 H1021 0.930 . S
C1029 C1027 1.419 . S
C1029 C1030 1.362 . S
C1030 H1022 0.930 . S
C1030 C1029 1.362 . S
C1030 C1033 1.409 . S
C1031 H1023 0.930 . S
C1031 C1032 1.355 . S
C1031 C1033 1.415 . S
C1032 C1031 1.355 . S
C1032 C1034 1.419 . S
C1033 C1028 1.425 . S
C1033 C1030 1.409 . S
C1033 C1031 1.415 . S
C1034 H1024 0.930 . S
C1034 C1032 1.419 . S
C1034 C1035 1.362 . S
C1035 H1025 0.930 . S
C1035 C1028 1.409 . S
C1035 C1034 1.362 . S
H1036 C1042 0.930 . S
H1037 C1045 0.930 . S
H1038 C1046 0.930 . S
H1039 C1047 0.930 . S
H1040 C1050 0.930 . S
H1041 C1051 0.930 . S
C1042 H1036 0.930 . S
C1042 C1043 1.355 . S
C1042 C1044 1.415 . S
C1043 C1042 1.355 . S
C1043 C1045 1.419 . S
C1044 C1042 1.415 . S
C1044 C1049 1.425 . S
C1044 C1051 1.409 . S
C1045 H1037 0.930 . S
C1045 C1043 1.419 . S
C1045 C1046 1.362 . S
C1046 H1038 0.930 . S
C1046 C1045 1.362 . S
C1046 C1049 1.409 . S
C1047 H1039 0.930 . S
C1047 C1048 1.355 . S
C1047 C1049 1.415 . S
C1048 C1047 1.355 . S
C1048 C1050 1.419 . S
C1049 C1044 1.425 . S
C1049 C1046 1.409 . S
C1049 C1047 1.415 . S
C1050 H1040 0.930 . S
C1050 C1048 1.419 . S
C1050 C1051 1.362 . S
C1051 H1041 0.930 . S
C1051 C1044 1.409 . S
C1051 C1050 1.362 . S
H1052 C1058 0.930 . S
H1053 C1061 0.930 . S
H1054 C1062 0.930 . S
H1055 C1063 0.930 . S
H1056 C1066 0.930 . S
H1057 C1067 0.930 . S
C1058 H1052 0.930 . S
C1058 C1059 1.355 . S
C1058 C1060 1.415 . S
C1059 C1058 1.355 . S
C1059 C1061 1.419 . S
C1060 C1058 1.415 . S
C1060 C1065 1.425 . S
C1060 C1067 1.409 . S
C1061 H1053 0.930 . S
C1061 C1059 1.419 . S
C1061 C1062 1.362 . S
C1062 H1054 0.930 . S
C1062 C1061 1.362 . S
C1062 C1065 1.409 . S
C1063 H1055 0.930 . S
C1063 C1064 1.355 . S
C1063 C1065 1.415 . S
C1064 C1063 1.355 . S
C1064 C1066 1.419 . S
C1065 C1060 1.425 . S
C1065 C1062 1.409 . S
C1065 C1063 1.415 . S
C1066 H1056 0.930 . S
C1066 C1064 1.419 . S
C1066 C1067 1.362 . S
C1067 H1057 0.930 . S
C1067 C1060 1.409 . S
C1067 C1066 1.362 . S
H1068 C1074 0.930 . S
H1069 C1077 0.930 . S
H1070 C1078 0.930 . S
H1071 C1079 0.930 . S
H1072 C1082 0.930 1_554 S
H1073 C1083 0.930 1_554 S
C1074 H1068 0.930 . S
C1074 C1075 1.355 . S
C1074 C1076 1.415 . S
C1075 C1074 1.355 . S
C1075 C1077 1.419 . S
C1076 C1074 1.415 . S
C1076 C1081 1.425 . S
C1076 C1083 1.409 . S
C1077 H1069 0.930 . S
C1077 C1075 1.419 . S
C1077 C1078 1.362 . S
C1078 H1070 0.930 . S
C1078 C1077 1.362 . S
C1078 C1081 1.409 . S
C1079 H1071 0.930 . S
C1079 C1080 1.355 . S
C1079 C1081 1.415 . S
C1080 C1079 1.355 . S
C1080 C1082 1.419 . S
C1081 C1076 1.425 . S
C1081 C1078 1.409 . S
C1081 C1079 1.415 . S
C1082 H1072 0.930 1_556 S
C1082 C1080 1.419 . S
C1082 C1083 1.362 . S
C1083 H1073 0.930 1_556 S
C1083 C1076 1.409 . S
C1083 C1082 1.362 . S
H1084 C1090 0.930 . S
H1085 C1093 0.930 . S
H1086 C1094 0.930 . S
H1087 C1095 0.930 . S
H1088 C1098 0.930 . S
H1089 C1099 0.930 . S
C1090 H1084 0.930 . S
C1090 C1091 1.355 . S
C1090 C1092 1.415 . S
C1091 C1090 1.355 . S
C1091 C1093 1.419 . S
C1092 C1090 1.415 . S
C1092 C1097 1.425 . S
C1092 C1099 1.409 . S
C1093 H1085 0.930 . S
C1093 C1091 1.419 . S
C1093 C1094 1.362 . S
C1094 H1086 0.930 . S
C1094 C1093 1.362 . S
C1094 C1097 1.409 . S
C1095 H1087 0.930 . S
C1095 C1096 1.355 . S
C1095 C1097 1.415 . S
C1096 C1095 1.355 . S
C1096 C1098 1.419 . S
C1097 C1092 1.425 . S
C1097 C1094 1.409 . S
C1097 C1095 1.415 . S
C1098 H1088 0.930 . S
C1098 C1096 1.419 . S
C1098 C1099 1.362 . S
C1099 H1089 0.930 . S
C1099 C1092 1.409 . S
C1099 C1098 1.362 . S
H1100 C1106 0.930 . S
H1101 C1109 0.930 . S
H1102 C1110 0.930 . S
H1103 C1111 0.930 . S
H1104 C1114 0.930 . S
H1105 C1115 0.930 . S
C1106 H1100 0.930 . S
C1106 C1107 1.355 . S
C1106 C1108 1.415 . S
C1107 C1106 1.355 . S
C1107 C1109 1.419 . S
C1108 C1106 1.415 . S
C1108 C1113 1.425 . S
C1108 C1115 1.409 1_554 S
C1109 H1101 0.930 . S
C1109 C1107 1.419 . S
C1109 C1110 1.362 . S
C1110 H1102 0.930 . S
C1110 C1109 1.362 . S
C1110 C1113 1.409 . S
C1111 H1103 0.930 . S
C1111 C1112 1.355 . S
C1111 C1113 1.415 . S
C1112 C1111 1.355 . S
C1112 C1114 1.419 1_554 S
C1113 C1108 1.425 . S
C1113 C1110 1.409 . S
C1113 C1111 1.415 . S
C1114 H1104 0.930 . S
C1114 C1112 1.419 1_556 S
C1114 C1115 1.362 . S
C1115 H1105 0.930 . S
C1115 C1108 1.409 1_556 S
C1115 C1114 1.362 . S
H1116 C1122 0.930 . S
H1117 C1125 0.930 . S
H1118 C1126 0.930 . S
H1119 C1127 0.930 . S
H1120 C1130 0.930 . S
H1121 C1131 0.930 1_545 S
C1122 H1116 0.930 . S
C1122 C1123 1.355 1_545 S
C1122 C1124 1.415 1_545 S
C1123 C1122 1.355 1_565 S
C1123 C1125 1.419 . S
C1124 C1122 1.415 1_565 S
C1124 C1129 1.425 . S
C1124 C1131 1.409 . S
C1125 H1117 0.930 . S
C1125 C1123 1.419 . S
C1125 C1126 1.362 . S
C1126 H1118 0.930 . S
C1126 C1125 1.362 . S
C1126 C1129 1.409 . S
C1127 H1119 0.930 . S
C1127 C1128 1.355 . S
C1127 C1129 1.415 . S
C1128 C1127 1.355 . S
C1128 C1130 1.419 . S
C1129 C1124 1.425 . S
C1129 C1126 1.409 . S
C1129 C1127 1.415 . S
C1130 H1120 0.930 . S
C1130 C1128 1.419 . S
C1130 C1131 1.362 . S
C1131 H1121 0.930 1_565 S
C1131 C1124 1.409 . S
C1131 C1130 1.362 . S
C376 C218 1.236 . S
C371 N66 1.187 . S
C392 C231 1.626 . S
C387 N79 1.611 . S
C403 N92 1.699 . S
C408 C244 1.744 . S
C424 C257 1.393 . S
C419 N54 1.400 1_655 S
C440 C265 1.497 . S
C435 N131 1.474 . S
C456 C278 1.195 . S
C451 N158 1.176 . S
C467 N145 1.561 . S
C472 C291 1.549 . S
C488 C304 1.679 . S
C483 N118 1.690 . S
C499 N148 1.804 . S
C504 C322 1.795 . S
C520 C333 1.541 . S
C515 N122 1.595 . S
C531 N132 1.244 . S
C536 C317 1.202 . S
C552 C325 1.482 . S
C547 N161 1.440 . S
C563 N96 1.801 . S
C568 C348 1.843 . S
C579 N53 1.658 . S
C584 C338 1.634 . S
C595 N67 1.152 . S
C600 C343 1.090 . S
C611 N83 1.431 . S
C616 C346 1.420 1_655 S
C627 N44 1.371 . S
C632 C255 1.360 . S
C643 N187 1.431 . S
C648 C247 1.430 . S
C664 C216 1.292 . S
C659 N197 1.287 . S
C680 C221 1.324 . S
C675 N106 1.357 . S
C691 N57 1.777 1_545 S
C696 C268 1.764 . S
C712 C307 1.481 . S
C707 N144 1.463 . S
C728 C260 1.387 . S
C723 N119 1.421 1_545 S
C744 C286 1.676 . S
C739 N157 1.709 . S
C760 C296 1.216 . S
C755 N183 1.229 . S
C771 N196 1.623 . S
C776 C309 1.633 . S
C787 N105 1.693 . S
C792 C270 1.734 . S
C808 C283 1.394 . S
C803 N171 1.409 . S
C819 N40 1.467 . S
C824 C239 1.475 . S
C840 C252 1.139 . S
C835 N2 1.175 . S
C856 C213 1.526 . S
C851 N15 1.560 . S
C872 C226 1.681 . S
C867 N27 1.707 1_455 S
C883 N18 1.805 . S
C888 C335 1.786 . S
C899 N31 1.590 . S
C904 C320 1.537 1_655 S
C915 N41 1.244 . S
C920 C330 1.201 . S
C931 N5 1.415 . S
C936 C312 1.449 1_455 S
C952 C361 1.840 . S
C947 N109 1.842 . S
C968 C351 1.629 . S
C963 N170 1.683 1_554 S
C984 C356 1.148 . S
C979 N184 1.146 . S
C995 N200 1.388 1_554 S
C1000 C359 1.397 . S
C1011 N135 1.370 . S
C1016 C281 1.353 . S
C1032 C273 1.436 . S
C1027 N70 1.438 . S
C1048 C294 1.295 . S
C1043 N80 1.294 . S
C1064 C299 1.347 . S
C1059 N93 1.354 . S
C1075 N174 1.779 . S
C1080 C242 1.702 . S
C1096 C229 1.481 . S
C1091 N14 1.438 . S
C1107 N28 1.421 . S
C1112 C234 1.392 . S
C1128 C208 1.694 . S
C1123 N1 1.695 1_565 S
