# Generated by pormake.
# Topology tsx, (6,3)-cn, num edge types: 1
# Building blocks:
#     Node 0, Type 0, BuildingBlock: VOLQOD_clean_sbu_1, # of connection points: 6
#     Node 1, Type 0, BuildingBlock: VOLQOD_clean_sbu_1, # of connection points: 6
#     Node 2, Type 1, BuildingBlock: CUQRIR_clean_linker_1, # of connection points: 3
#     Node 3, Type 1, BuildingBlock: CUQRIR_clean_linker_1, # of connection points: 3
#     Node 4, Type 1, BuildingBlock: CUQRIR_clean_linker_1, # of connection points: 3
#     Node 5, Type 1, BuildingBlock: CUQRIR_clean_linker_1, # of connection points: 3
#     Edge 6, Type (0, 1), BuildingBlock: TEMPAE_clean_linker_10, # of connection points: 2
#     Edge 7, Type (0, 1), BuildingBlock: TEMPAE_clean_linker_10, # of connection points: 2
#     Edge 8, Type (0, 1), BuildingBlock: TEMPAE_clean_linker_10, # of connection points: 2
#     Edge 9, Type (0, 1), BuildingBlock: TEMPAE_clean_linker_10, # of connection points: 2
#     Edge 10, Type (0, 1), BuildingBlock: TEMPAE_clean_linker_10, # of connection points: 2
#     Edge 11, Type (0, 1), BuildingBlock: TEMPAE_clean_linker_10, # of connection points: 2
#     Edge 12, Type (0, 1), BuildingBlock: TEMPAE_clean_linker_10, # of connection points: 2
#     Edge 13, Type (0, 1), BuildingBlock: TEMPAE_clean_linker_10, # of connection points: 2
#     Edge 14, Type (0, 1), BuildingBlock: TEMPAE_clean_linker_10, # of connection points: 2
#     Edge 15, Type (0, 1), BuildingBlock: TEMPAE_clean_linker_10, # of connection points: 2
#     Edge 16, Type (0, 1), BuildingBlock: TEMPAE_clean_linker_10, # of connection points: 2
#     Edge 17, Type (0, 1), BuildingBlock: TEMPAE_clean_linker_10, # of connection points: 2
# Relax obj value: 0.077
# Max RMSD: 0.142
# Mean RMSD: 0.124
data_MOF--net-tsx--node1-VOLQOD_clean_sbu_1--node2-CUQRIR_clean_linker_1--edge1-TEMPAE_clean_linker_10
_symmetry_space_group_name_H-M    P1
_symmetry_Int_Tables_number       1
_symmetry_cell_setting            triclinic
loop_
_symmetry_equiv_pos_as_xyz
'x, y, z'
_cell_length_a     19.725387
_cell_length_b     20.454394
_cell_length_c     36.018491
_cell_angle_alpha  79.42239
_cell_angle_beta   89.969884
_cell_angle_gamma 89.80831
loop_
_atom_site_label
_atom_site_type_symbol
_atom_site_fract_x
_atom_site_fract_y
_atom_site_fract_z
_atom_type_partial_charge
O0 O 0.06203 0.97831 0.09477 0.0
Zn1 Zn 0.08445 0.99036 0.03957 0.0
O2 O 0.00413 0.01286 0.00849 0.0
Zn3 Zn 0.98437 0.94138 0.98125 0.0
Zn4 Zn 0.92788 0.02451 0.04108 0.0
Zn5 Zn 0.02023 0.09478 0.97226 0.0
O6 O 0.97588 0.97639 0.92546 0.0
O7 O 0.01797 0.07844 0.91877 0.0
O8 O 0.13078 0.90851 0.02854 0.0
O9 O 0.06203 0.87644 0.9866 0.0
O10 O 0.89977 0.89142 0.00112 0.0
O11 O 0.86268 0.94829 0.04401 0.0
O12 O 0.87691 0.10942 0.02037 0.0
O13 O 0.15201 0.06468 0.02936 0.0
O14 O 0.94637 0.16097 0.97573 0.0
O15 O 0.10902 0.13702 0.98167 0.0
C16 C 0.0123 -0.00161 0.11231 0.0
C17 C 0.99527 0.03025 0.90455 0.0
C18 C 0.85733 0.89975 0.02657 0.0
C19 C 0.11614 0.8691 0.00622 0.0
C20 C 0.89211 0.15927 0.99498 0.0
C21 C 0.15584 0.11909 0.00573 0.0
O22 O 0.95934 0.0234 0.09481 0.0
O23 O 0.55742 0.44707 0.6003 0.0
Zn24 Zn 0.59038 0.46371 0.54682 0.0
O25 O 0.51667 0.48307 0.51101 0.0
Zn26 Zn 0.50619 0.40827 0.48505 0.0
Zn27 Zn 0.43483 0.49791 0.53895 0.0
Zn28 Zn 0.5381 0.56198 0.47379 0.0
O29 O 0.50444 0.43949 0.42843 0.0
O30 O 0.54915 0.5405 0.42188 0.0
O31 O 0.64709 0.38695 0.53753 0.0
O32 O 0.58698 0.34604 0.49514 0.0
O33 O 0.42053 0.35814 0.5024 0.0
O34 O 0.36955 0.42269 0.53745 0.0
O35 O 0.38986 0.5863 0.51637 0.0
O36 O 0.6517 0.54188 0.54176 0.0
O37 O 0.46081 0.627 0.46991 0.0
O38 O 0.62182 0.60801 0.48824 0.0
C39 C 0.50427 0.46663 0.61514 0.0
C40 C 0.52836 0.49158 0.40768 0.0
C41 C 0.37096 0.37039 0.52288 0.0
C42 C 0.63924 0.34457 0.51611 0.0
C43 C 0.40637 0.63126 0.48835 0.0
C44 C 0.66006 0.59432 0.51712 0.0
O45 O 0.45517 0.49351 0.59473 0.0
C46 C 0.06892 0.05331 0.43775 0.0
N47 N 0.08774 0.01619 0.41186 0.0
N48 N 0.00985 0.08536 0.42757 0.0
C49 C 0.11093 0.06369 0.47087 0.0
C50 C 0.99327 0.06676 0.39465 0.0
N51 N 0.04024 0.02444 0.38525 0.0
C52 C 0.93186 0.09128 0.37134 0.0
H53 H 0.13987 0.01829 0.48275 0.0
H54 H 0.07936 0.07937 0.49312 0.0
H55 H 0.14777 0.10395 0.46096 0.0
H56 H 0.94372 0.14021 0.35361 0.0
H57 H 0.88836 0.09813 0.38982 0.0
H58 H 0.91708 0.05657 0.3525 0.0
C59 C 0.03249 0.95278 0.58413 0.0
N60 N 0.04986 0.99474 0.60749 0.0
N61 N 0.97751 0.91671 0.59742 0.0
C62 C 0.06867 0.94762 0.54814 0.0
C63 C 0.9624 0.93757 0.62998 0.0
N64 N 0.00603 0.98537 0.63591 0.0
C65 C 0.907 0.90899 0.65679 0.0
H66 H 0.08525 0.89566 0.54871 0.0
H67 H 0.11429 0.9795 0.54448 0.0
H68 H 0.03361 0.96139 0.52392 0.0
H69 H 0.89214 0.85876 0.65228 0.0
H70 H 0.86205 0.94222 0.65199 0.0
H71 H 0.92353 0.90588 0.68652 0.0
C72 C 0.53512 0.57047 0.92694 0.0
N73 N 0.55818 0.52493 0.90689 0.0
N74 N 0.46898 0.58396 0.91959 0.0
C75 C 0.57977 0.60915 0.94899 0.0
C76 C 0.45269 0.5469 0.89359 0.0
N77 N 0.50689 0.51146 0.88552 0.0
C78 C 0.38526 0.54906 0.87385 0.0
H79 H 0.55001 0.63284 0.96907 0.0
H80 H 0.60459 0.64944 0.92877 0.0
H81 H 0.62076 0.57793 0.96408 0.0
H82 H 0.39273 0.56246 0.84284 0.0
H83 H 0.34997 0.5854 0.88294 0.0
H84 H 0.36219 0.49882 0.87987 0.0
C85 C 0.49525 0.50391 0.07119 0.0
N86 N 0.52361 0.53139 0.09886 0.0
N87 N 0.46283 0.44699 0.08602 0.0
C88 C 0.50067 0.53209 0.02986 0.0
C89 C 0.47267 0.44056 0.12367 0.0
N90 N 0.51034 0.49142 0.1314 0.0
C91 C 0.44408 0.38555 0.15293 0.0
H92 H 0.47963 0.49858 0.01193 0.0
H93 H 0.55481 0.54194 0.02288 0.0
H94 H 0.47285 0.57996 0.02353 0.0
H95 H 0.43605 0.33988 0.14099 0.0
H96 H 0.39451 0.40192 0.16264 0.0
H97 H 0.47812 0.37402 0.17778 0.0
C98 C 0.21769 0.22628 0.98391 0.0
C99 C 0.2128 0.16488 0.0087 0.0
C100 C 0.26529 0.274 0.99015 0.0
C101 C 0.30824 0.26008 0.02207 0.0
C102 C 0.30695 0.19651 0.04551 0.0
C103 C 0.25945 0.14957 0.03844 0.0
C104 C 0.2667 0.34072 0.96397 0.0
C105 C 0.35229 0.17967 0.07975 0.0
C106 C 0.45382 0.36977 0.04145 0.0
C107 C 0.42319 0.40502 0.0668 0.0
C108 C 0.4162 0.32486 0.02467 0.0
C109 C 0.347 0.31428 0.03443 0.0
C110 C 0.31561 0.35178 0.05912 0.0
C111 C 0.35423 0.397 0.07487 0.0
C112 C 0.45132 0.28701 0.99793 0.0
C113 C 0.24199 0.34206 0.07028 0.0
H114 H 0.1826 0.23822 0.96048 0.0
H115 H 0.25677 0.10201 0.05748 0.0
H116 H 0.24366 0.37894 0.97834 0.0
H117 H 0.31969 0.35615 0.95674 0.0
H118 H 0.2382 0.34008 0.93745 0.0
H119 H 0.34967 0.12619 0.09294 0.0
H120 H 0.4057 0.19226 0.07199 0.0
H121 H 0.33692 0.20967 0.10111 0.0
H122 H 0.50747 0.37638 0.03552 0.0
H123 H 0.33118 0.42511 0.09433 0.0
H124 H 0.41812 0.28256 0.97367 0.0
H125 H 0.46327 0.23596 0.01298 0.0
H126 H 0.49952 0.31124 0.987 0.0
H127 H 0.20947 0.34852 0.04474 0.0
H128 H 0.22473 0.37746 0.08833 0.0
H129 H 0.23428 0.29065 0.086 0.0
C130 C 0.16026 0.78746 0.96845 0.0
C131 C 0.16599 0.81785 1.00018 0.0
C132 C 0.21144 0.74556 0.9593 0.0
C133 C 0.26928 0.73283 0.98279 0.0
C134 C 0.27367 0.76014 0.01605 0.0
C135 C 0.22221 0.80297 0.02417 0.0
C136 C 0.20505 0.71744 0.92348 0.0
C137 C 0.33395 0.74666 0.04219 0.0
C138 C 0.37463 0.58842 0.96295 0.0
C139 C 0.42377 0.62153 0.9386 0.0
C140 C 0.32647 0.6241 0.97977 0.0
C141 C 0.3266 0.69443 0.97085 0.0
C142 C 0.37796 0.72796 0.9472 0.0
C143 C 0.42644 0.69082 0.93149 0.0
C144 C 0.27418 0.58655 0.00589 0.0
C145 C 0.37969 0.80289 0.93702 0.0
H146 H 0.11707 0.79863 0.94974 0.0
H147 H 0.22681 0.82587 0.04891 0.0
H148 H 0.24647 0.737 0.9037 0.0
H149 H 0.21029 0.66252 0.92984 0.0
H150 H 0.15575 0.73026 0.90901 0.0
H151 H 0.32286 0.75872 0.07042 0.0
H152 H 0.35024 0.69387 0.04584 0.0
H153 H 0.37709 0.77785 0.02979 0.0
H154 H 0.37369 0.53451 0.96833 0.0
H155 H 0.46494 0.71558 0.91253 0.0
H156 H 0.22392 0.59141 0.99183 0.0
H157 H 0.26964 0.60785 0.03199 0.0
H158 H 0.28682 0.5328 0.01387 0.0
H159 H 0.33352 0.82116 0.92071 0.0
H160 H 0.42494 0.82116 0.91989 0.0
H161 H 0.3797 0.82482 0.96299 0.0
C162 C 0.78947 0.80157 0.01565 0.0
C163 C 0.80257 0.8504 0.03742 0.0
C164 C 0.7403 0.75243 0.02683 0.0
C165 C 0.70389 0.75167 0.0608 0.0
C166 C 0.71587 0.80146 0.08253 0.0
C167 C 0.76483 0.8504 0.0705 0.0
C168 C 0.72811 0.70059 0.00262 0.0
C169 C 0.67825 0.80199 0.11901 0.0
C170 C 0.54222 0.64996 0.07348 0.0
C171 C 0.56598 0.58933 0.09384 0.0
C172 C 0.58622 0.70391 0.06306 0.0
C173 C 0.65511 0.69721 0.07417 0.0
C174 C 0.67827 0.63705 0.09663 0.0
C175 C 0.63335 0.58358 0.10598 0.0
C176 C 0.55964 0.76701 0.03895 0.0
C177 C 0.75115 0.62816 0.10938 0.0
H178 H 0.81801 0.80139 0.98994 0.0
H179 H 0.77463 0.88778 0.08759 0.0
H180 H 0.74145 0.65059 0.01868 0.0
H181 H 0.67362 0.69952 0.99513 0.0
H182 H 0.75834 0.70992 0.97615 0.0
H183 H 0.69153 0.84566 0.13186 0.0
H184 H 0.62275 0.80239 0.11404 0.0
H185 H 0.69024 0.75604 0.13958 0.0
H186 H 0.48954 0.65437 0.06487 0.0
H187 H 0.65144 0.53624 0.12139 0.0
H188 H 0.58672 0.7765 0.01148 0.0
H189 H 0.56935 0.81004 0.05295 0.0
H190 H 0.50444 0.76447 0.03335 0.0
H191 H 0.78456 0.62939 0.08447 0.0
H192 H 0.75959 0.58036 0.12916 0.0
H193 H 0.76675 0.66957 0.1235 0.0
C194 C 0.86612 0.28033 0.98032 0.0
C195 C 0.84364 0.21447 0.98526 0.0
C196 C 0.82128 0.33343 0.96841 0.0
C197 C 0.75338 0.31994 0.95961 0.0
C198 C 0.73067 0.25328 0.9644 0.0
C199 C 0.77589 0.20127 0.97793 0.0
C200 C 0.84632 0.40385 0.96557 0.0
C201 C 0.65915 0.23685 0.95438 0.0
C202 C 0.61413 0.44801 0.95821 0.0
C203 C 0.61116 0.47741 0.91985 0.0
C204 C 0.66217 0.39906 0.97178 0.0
C205 C 0.70572 0.37551 0.94594 0.0
C206 C 0.70219 0.40376 0.90697 0.0
C207 C 0.65578 0.45541 0.89449 0.0
C208 C 0.6649 0.37182 0.01369 0.0
C209 C 0.746 0.37813 0.87834 0.0
H210 H 0.91868 0.2902 0.98609 0.0
H211 H 0.75904 0.1501 0.98128 0.0
H212 H 0.84274 0.43072 0.93596 0.0
H213 H 0.81381 0.43085 0.98296 0.0
H214 H 0.89968 0.40575 0.97516 0.0
H215 H 0.65111 0.18245 0.95704 0.0
H216 H 0.62259 0.25617 0.97315 0.0
H217 H 0.64731 0.26132 0.92497 0.0
H218 H 0.578 0.46287 0.9777 0.0
H219 H 0.65399 0.47779 0.86492 0.0
H220 H 0.71811 0.36485 0.02366 0.0
H221 H 0.63966 0.32265 0.01969 0.0
H222 H 0.63869 0.40513 0.03029 0.0
H223 H 0.80032 0.38478 0.88456 0.0
H224 H 0.73536 0.40387 0.84898 0.0
H225 H 0.73741 0.32403 0.88016 0.0
C226 C 0.73595 0.64076 0.56063 0.0
C227 C 0.71292 0.64167 0.52374 0.0
C228 C 0.783 0.68736 0.56839 0.0
C229 C 0.80882 0.73523 0.53838 0.0
C230 C 0.78771 0.73513 0.50083 0.0
C231 C 0.73915 0.6887 0.49397 0.0
C232 C 0.80339 0.68659 0.60893 0.0
C233 C 0.81568 0.78455 0.46814 0.0
C234 C 0.86897 0.88982 0.57121 0.0
C235 C 0.93744 0.87477 0.57835 0.0
C236 C 0.82703 0.84652 0.55596 0.0
C237 C 0.85486 0.78733 0.54718 0.0
C238 C 0.92514 0.77415 0.55204 0.0
C239 C 0.96555 0.81774 0.5682 0.0
C240 C 0.75223 0.86204 0.55167 0.0
C241 C 0.95689 0.71228 0.54222 0.0
H242 H 0.71554 0.60478 0.58379 0.0
H243 H 0.72183 0.68912 0.46537 0.0
H244 H 0.85914 0.68089 0.61204 0.0
H245 H 0.78939 0.73458 0.61714 0.0
H246 H 0.7788 0.6457 0.62891 0.0
H247 H 0.7983 0.77435 0.44043 0.0
H248 H 0.79955 0.83558 0.47059 0.0
H249 H 0.87193 0.78357 0.46877 0.0
H250 H 0.84794 0.93452 0.57886 0.0
H251 H 0.01837 0.80588 0.57432 0.0
H252 H 0.7234 0.82609 0.57261 0.0
H253 H 0.73433 0.85672 0.52321 0.0
H254 H 0.74013 0.91314 0.55611 0.0
H255 H 0.94262 0.66854 0.56382 0.0
H256 H 0.0131 0.7155 0.54115 0.0
H257 H 0.93804 0.70349 0.51454 0.0
C258 C 0.75789 0.30281 0.53029 0.0
C259 C 0.69513 0.2973 0.51264 0.0
C260 C 0.81429 0.26533 0.52267 0.0
C261 C 0.8077 0.22131 0.49688 0.0
C262 C 0.74353 0.21214 0.48103 0.0
C263 C 0.68806 0.25035 0.48901 0.0
C264 C 0.88168 0.27516 0.54072 0.0
C265 C 0.73423 0.16433 0.45409 0.0
C266 C 0.95165 0.18901 0.43322 0.0
C267 C 0.96879 0.12343 0.44873 0.0
C268 C 0.90188 0.22293 0.45005 0.0
C269 C 0.86866 0.19009 0.48317 0.0
C270 C 0.88944 0.12524 0.50037 0.0
C271 C 0.93894 0.0924 0.48261 0.0
C272 C 0.88194 0.29238 0.43108 0.0
C273 C 0.85668 0.08839 0.53596 0.0
H274 H 0.76387 0.33846 0.54889 0.0
H275 H 0.6397 0.24503 0.47562 0.0
H276 H 0.90432 0.2264 0.55336 0.0
H277 H 0.91744 0.29999 0.51883 0.0
H278 H 0.87698 0.30598 0.56298 0.0
H279 H 0.68021 0.15928 0.44643 0.0
H280 H 0.76345 0.18194 0.42783 0.0
H281 H 0.7542 0.11449 0.46686 0.0
H282 H 0.97519 0.21243 0.40695 0.0
H283 H 0.9519 0.04122 0.49413 0.0
H284 H 0.88152 0.32624 0.45186 0.0
H285 H 0.82986 0.29176 0.4195 0.0
H286 H 0.91679 0.31292 0.40761 0.0
H287 H 0.89196 0.05091 0.55185 0.0
H288 H 0.81136 0.06174 0.52829 0.0
H289 H 0.84011 0.12261 0.55481 0.0
C290 C 0.26969 0.32555 0.56112 0.0
C291 C 0.31648 0.3203 0.53242 0.0
C292 C 0.2225 0.27497 0.57332 0.0
C293 C 0.22145 0.21809 0.55612 0.0
C294 C 0.2667 0.21366 0.5261 0.0
C295 C 0.31381 0.26465 0.51477 0.0
C296 C 0.1757 0.28106 0.60572 0.0
C297 C 0.26855 0.15423 0.50666 0.0
C298 C 0.15702 0.05393 0.61122 0.0
C299 C 0.09123 0.05269 0.59719 0.0
C300 C 0.19945 0.10845 0.59874 0.0
C301 C 0.1756 0.16187 0.57099 0.0
C302 C 0.10895 0.16027 0.5566 0.0
C303 C 0.06726 0.10585 0.5703 0.0
C304 C 0.27047 0.10798 0.61434 0.0
C305 C 0.08283 0.21433 0.5256 0.0
H306 H 0.27136 0.3682 0.57506 0.0
H307 H 0.34953 0.26001 0.4925 0.0
H308 H 0.12218 0.27552 0.59739 0.0
H309 H 0.18664 0.24048 0.62999 0.0
H310 H 0.18119 0.3295 0.61519 0.0
H311 H 0.31377 0.1235 0.51656 0.0
H312 H 0.22303 0.12237 0.51218 0.0
H313 H 0.27392 0.1708 0.47566 0.0
H314 H 0.17566 0.01157 0.63117 0.0
H315 H 0.01647 0.10342 0.55917 0.0
H316 H 0.28028 0.15478 0.62487 0.0
H317 H 0.30755 0.10524 0.59149 0.0
H318 H 0.27945 0.06522 0.63772 0.0
H319 H 0.08679 0.26349 0.53425 0.0
H320 H 0.02924 0.20618 0.51814 0.0
H321 H 0.11454 0.2161 0.49996 0.0
C322 C 0.3164 0.71133 0.50132 0.0
C323 C 0.36105 0.68913 0.47595 0.0
C324 C 0.27418 0.76683 0.48955 0.0
C325 C 0.27545 0.79972 0.4513 0.0
C326 C 0.31989 0.777 0.42552 0.0
C327 C 0.36268 0.72256 0.43825 0.0
C328 C 0.22828 0.79037 0.51803 0.0
C329 C 0.32135 0.80943 0.38432 0.0
C330 C 0.11726 0.8984 0.41655 0.0
C331 C 0.13766 0.96368 0.41714 0.0
C332 C 0.16225 0.84482 0.42638 0.0
C333 C 0.22891 0.85673 0.43803 0.0
C334 C 0.25039 0.92292 0.43768 0.0
C335 C 0.20473 0.97578 0.42655 0.0
C336 C 0.13767 0.77531 0.42543 0.0
C337 C 0.32064 0.93768 0.45046 0.0
H338 H 0.31524 0.68596 0.53051 0.0
H339 H 0.39661 0.70528 0.41839 0.0
H340 H 0.23739 0.84383 0.51822 0.0
H341 H 0.17449 0.78546 0.51004 0.0
H342 H 0.23604 0.76178 0.54707 0.0
H343 H 0.3587 0.7856 0.36788 0.0
H344 H 0.27039 0.80659 0.37168 0.0
H345 H 0.33414 0.86288 0.38145 0.0
H346 H 0.06511 0.88909 0.40977 0.0
H347 H 0.22053 0.02645 0.42655 0.0
H348 H 0.1349 0.7463 0.4546 0.0
H349 H 0.17382 0.7493 0.40947 0.0
H350 H 0.08674 0.77526 0.41226 0.0
H351 H 0.32805 0.91319 0.48033 0.0
H352 H 0.32966 0.99188 0.4481 0.0
H353 H 0.35937 0.91705 0.43344 0.0
C354 C 0.97479 0.0322 0.17249 0.0
C355 C 0.01723 0.99372 0.15376 0.0
C356 C 0.98156 0.03088 0.2114 0.0
C357 C 0.03121 0.98923 0.23221 0.0
C358 C 0.07284 0.94876 0.21372 0.0
C359 C 0.06575 0.95191 0.17465 0.0
C360 C 0.93672 0.07539 0.23008 0.0
C361 C 0.12545 0.90287 0.23511 0.0
C362 C 0.08931 0.04377 0.32201 0.0
C363 C 0.04683 0.00642 0.34878 0.0
C364 C 0.0868 0.03672 0.28405 0.0
C365 C 0.04117 0.99048 0.27299 0.0
C366 C 0.00129 0.94953 0.30062 0.0
C367 C 0.00416 0.95853 0.33829 0.0
C368 C 0.12976 0.08172 0.2555 0.0
C369 C 0.95302 0.89883 0.2901 0.0
H370 H 0.93735 0.06476 0.15654 0.0
H371 H 0.09836 0.92152 0.16046 0.0
H372 H 0.90819 0.0453 0.25372 0.0
H373 H 0.96841 0.11098 0.24221 0.0
H374 H 0.8999 0.10405 0.21004 0.0
H375 H 0.15083 0.8716 0.21704 0.0
H376 H 0.16461 0.93246 0.24663 0.0
H377 H 0.10164 0.86982 0.25948 0.0
H378 H 0.12154 0.08119 0.33056 0.0
H379 H 0.97111 0.93031 0.35935 0.0
H380 H 0.09649 0.11645 0.23626 0.0
H381 H 0.15862 0.05217 0.23789 0.0
H382 H 0.1661 0.1114 0.26909 0.0
H383 H 0.90999 0.92471 0.27375 0.0
H384 H 0.93243 0.86538 0.31537 0.0
H385 H 0.97873 0.86819 0.27185 0.0
C386 C 0.01925 0.0924 0.83903 0.0
C387 C 0.99387 0.03567 0.86292 0.0
C388 C 0.02204 0.09595 0.79973 0.0
C389 C -0.00101 0.04151 0.78404 0.0
C390 C 0.9715 0.98502 0.80787 0.0
C391 C 0.96927 0.98281 0.84695 0.0
C392 C 0.0514 0.15702 0.77513 0.0
C393 C 0.94618 0.92593 0.79218 0.0
C394 C 0.95498 0.04723 0.68122 0.0
C395 C 0.0105 0.01352 0.66948 0.0
C396 C 0.95245 0.0614 0.71787 0.0
C397 C 0.00683 0.04105 0.74307 0.0
C398 C 0.06522 0.01149 0.73017 0.0
C399 C 0.06605 -0.00232 0.6935 0.0
C400 C 0.88947 0.09329 0.73045 0.0
C401 C 0.1244 0.98923 0.75603 0.0
H402 H 0.03818 0.13364 0.85105 0.0
H403 H 0.94924 0.93891 0.86506 0.0
H404 H 0.09935 0.14375 0.76216 0.0
H405 H 0.01605 0.1765 0.75173 0.0
H406 H 0.06208 0.19716 0.79129 0.0
H407 H 0.92347 0.88719 0.81432 0.0
H408 H 0.90757 0.94209 0.76998 0.0
H409 H 0.98874 0.90321 0.77882 0.0
H410 H 0.91207 0.05899 0.66237 0.0
H411 H 0.10795 0.96999 0.68452 0.0
H412 H 0.90291 0.1324 0.74678 0.0
H413 H 0.85936 0.05512 0.7493 0.0
H414 H 0.8571 0.11565 0.70615 0.0
H415 H 0.1392 0.02889 0.77166 0.0
H416 H 0.16924 0.97571 0.7403 0.0
H417 H 0.10947 0.9451 0.77719 0.0
C418 C 0.45061 0.49295 0.67386 0.0
C419 C 0.5014 0.46046 0.65682 0.0
C420 C 0.45134 0.49253 0.71289 0.0
C421 C 0.50383 0.4584 0.73545 0.0
C422 C 0.55323 0.42271 0.71877 0.0
C423 C 0.5516 0.42437 0.67965 0.0
C424 C 0.39785 0.53142 0.72966 0.0
C425 C 0.60958 0.38524 0.74195 0.0
C426 C 0.54993 0.53201 0.82104 0.0
C427 C 0.51511 0.49048 0.8499 0.0
C428 C 0.54876 0.52046 0.78395 0.0
C429 C 0.51107 0.46624 0.7755 0.0
C430 C 0.47763 0.42259 0.80492 0.0
C431 C 0.47972 0.43558 0.84193 0.0
C432 C 0.58512 0.56827 0.75353 0.0
C433 C 0.4373 0.36412 0.79705 0.0
H434 H 0.4115 0.52074 0.65653 0.0
H435 H 0.59068 0.39841 0.66687 0.0
H436 H 0.37419 0.49992 0.75462 0.0
H437 H 0.42173 0.57428 0.73946 0.0
H438 H 0.35742 0.55058 0.70901 0.0
H439 H 0.63948 0.35411 0.72561 0.0
H440 H 0.64437 0.42103 0.75178 0.0
H441 H 0.58866 0.35279 0.76743 0.0
H442 H 0.5758 0.57527 0.82747 0.0
H443 H 0.45183 0.40452 0.8644 0.0
H444 H 0.54765 0.59496 0.7332 0.0
H445 H 0.61967 0.54076 0.73751 0.0
H446 H 0.61519 0.60563 0.76522 0.0
H447 H 0.39174 0.38232 0.78018 0.0
H448 H 0.42059 0.33108 0.82344 0.0
H449 H 0.46775 0.33453 0.78013 0.0
C450 C 0.5693 0.54604 0.34358 0.0
C451 C 0.53141 0.49586 0.36619 0.0
C452 C 0.57199 0.55107 0.3042 0.0
C453 C 0.53525 0.50536 0.28702 0.0
C454 C 0.49697 0.4546 0.30964 0.0
C455 C 0.49585 0.45022 0.34896 0.0
C456 C 0.61405 0.60524 0.28099 0.0
C457 C 0.4566 0.40524 0.29227 0.0
C458 C 0.48085 0.54526 0.18443 0.0
C459 C 0.52465 0.50461 0.16829 0.0
C460 C 0.48573 0.54859 0.22288 0.0
C461 C 0.53598 0.51047 0.24533 0.0
C462 C 0.58297 0.47243 0.22835 0.0
C463 C 0.57627 0.46955 0.18993 0.0
C464 C 0.43447 0.58942 0.23991 0.0
C465 C 0.63777 0.43182 0.25116 0.0
H466 H 0.59728 0.58131 0.35666 0.0
H467 H 0.46624 0.41148 0.36615 0.0
H468 H 0.65218 0.58301 0.2643 0.0
H469 H 0.5812 0.63825 0.2606 0.0
H470 H 0.64083 0.63597 0.29876 0.0
H471 H 0.42915 0.36902 0.31379 0.0
H472 H 0.4191 0.43192 0.27195 0.0
H473 H 0.49075 0.37733 0.27624 0.0
H474 H 0.44062 0.5715 0.16729 0.0
H475 H 0.6094 0.43774 0.17701 0.0
H476 H 0.46025 0.62198 0.25692 0.0
H477 H 0.40055 0.55579 0.25923 0.0
H478 H 0.40286 0.62086 0.21805 0.0
H479 H 0.66525 0.46236 0.26871 0.0
H480 H 0.67493 0.41166 0.23295 0.0
H481 H 0.61449 0.38953 0.27064 0.0
loop_
_geom_bond_atom_site_label_1
_geom_bond_atom_site_label_2
_geom_bond_distance
_geom_bond_site_symmetry_2
_ccdc_geom_bond_type
O0 Zn1 1.953 . S
O0 C16 1.225 . S
Zn1 O0 1.953 . S
Zn1 O2 1.949 1_565 S
Zn1 O8 1.919 . S
Zn1 O13 1.924 1_565 S
O2 Zn1 1.949 1_545 S
O2 Zn3 1.923 1_544 S
O2 Zn4 1.950 1_455 S
O2 Zn5 1.945 1_554 S
Zn3 O2 1.923 1_566 S
Zn3 O6 1.933 . S
Zn3 O9 1.941 . S
Zn3 O10 1.965 1_455 S
Zn4 O2 1.950 1_655 S
Zn4 O11 1.938 1_545 S
Zn4 O12 1.906 . S
Zn4 O22 1.953 . S
Zn5 O2 1.945 1_556 S
Zn5 O7 1.932 . S
Zn5 O14 1.977 1_455 S
Zn5 O15 1.910 . S
O6 Zn3 1.933 . S
O6 C17 1.226 1_565 S
O7 Zn5 1.932 . S
O7 C17 1.307 . S
O8 Zn1 1.919 . S
O8 C19 1.253 . S
O9 Zn3 1.941 . S
O9 C19 1.283 1_556 S
O10 Zn3 1.965 1_655 S
O10 C18 1.303 1_556 S
O11 Zn4 1.938 1_565 S
O11 C18 1.247 . S
O12 Zn4 1.906 . S
O12 C20 1.304 1_554 S
O13 Zn1 1.924 1_545 S
O13 C21 1.311 . S
O14 Zn5 1.977 1_655 S
O14 C20 1.272 . S
O15 Zn5 1.910 . S
O15 C21 1.231 1_556 S
C16 O0 1.225 . S
C16 O22 1.298 1_465 S
C17 O6 1.226 1_545 S
C17 O7 1.307 . S
C18 O10 1.303 1_554 S
C18 O11 1.247 . S
C19 O8 1.253 . S
C19 O9 1.283 1_554 S
C20 O12 1.304 1_556 S
C20 O14 1.272 . S
C21 O13 1.311 . S
C21 O15 1.231 1_554 S
O22 Zn4 1.953 . S
O22 C16 1.298 1_645 S
O23 Zn24 1.953 . S
O23 C39 1.225 . S
Zn24 O23 1.953 . S
Zn24 O25 1.949 . S
Zn24 O31 1.919 . S
Zn24 O36 1.924 . S
O25 Zn24 1.949 . S
O25 Zn26 1.923 . S
O25 Zn27 1.950 . S
O25 Zn28 1.945 . S
Zn26 O25 1.923 . S
Zn26 O29 1.933 . S
Zn26 O32 1.941 . S
Zn26 O33 1.965 . S
Zn27 O25 1.950 . S
Zn27 O34 1.938 . S
Zn27 O35 1.906 . S
Zn27 O45 1.953 . S
Zn28 O25 1.945 . S
Zn28 O30 1.932 . S
Zn28 O37 1.977 . S
Zn28 O38 1.910 . S
O29 Zn26 1.933 . S
O29 C40 1.226 . S
O30 Zn28 1.932 . S
O30 C40 1.307 . S
O31 Zn24 1.919 . S
O31 C42 1.253 . S
O32 Zn26 1.941 . S
O32 C42 1.283 . S
O33 Zn26 1.965 . S
O33 C41 1.303 . S
O34 Zn27 1.938 . S
O34 C41 1.247 . S
O35 Zn27 1.906 . S
O35 C43 1.304 . S
O36 Zn24 1.924 . S
O36 C44 1.311 . S
O37 Zn28 1.977 . S
O37 C43 1.272 . S
O38 Zn28 1.910 . S
O38 C44 1.231 . S
C39 O23 1.225 . S
C39 O45 1.298 . S
C40 O29 1.226 . S
C40 O30 1.307 . S
C41 O33 1.303 . S
C41 O34 1.247 . S
C42 O31 1.253 . S
C42 O32 1.283 . S
C43 O35 1.304 . S
C43 O37 1.272 . S
C44 O36 1.311 . S
C44 O38 1.231 . S
O45 Zn27 1.953 . S
O45 C39 1.298 . S
C46 N47 1.317 1_545 S
C46 N48 1.348 1_455 S
C46 C49 1.485 1_545 S
N47 C46 1.317 1_565 S
N47 N51 1.370 1_565 S
N48 C46 1.348 1_655 S
N48 C50 1.346 . S
C49 C46 1.485 1_565 S
C49 H53 0.960 1_455 S
C49 H54 0.961 1_565 S
C49 H55 0.960 . S
C50 N48 1.346 . S
C50 N51 1.307 1_655 S
C50 C52 1.486 . S
N51 N47 1.370 1_545 S
N51 C50 1.307 1_455 S
C52 C50 1.486 . S
C52 H56 0.960 . S
C52 H57 0.960 . S
C52 H58 0.959 . S
H53 C49 0.960 1_655 S
H54 C49 0.961 1_545 S
H55 C49 0.960 . S
H56 C52 0.960 . S
H57 C52 0.960 . S
H58 C52 0.959 . S
C59 N60 1.317 . S
C59 N61 1.348 1_445 S
C59 C62 1.485 . S
N60 C59 1.317 . S
N60 N64 1.370 . S
N61 C59 1.348 1_665 S
N61 C63 1.346 . S
C62 C59 1.485 . S
C62 H66 0.960 . S
C62 H67 0.961 1_545 S
C62 H68 0.960 . S
C63 N61 1.346 . S
C63 N64 1.307 1_665 S
C63 C65 1.486 . S
N64 N60 1.370 . S
N64 C63 1.307 1_445 S
C65 C63 1.486 . S
C65 H69 0.960 . S
C65 H70 0.960 . S
C65 H71 0.959 . S
H66 C62 0.960 . S
H67 C62 0.961 1_565 S
H68 C62 0.960 . S
H69 C65 0.960 . S
H70 C65 0.960 . S
H71 C65 0.959 . S
C72 N73 1.317 . S
C72 N74 1.348 . S
C72 C75 1.485 . S
N73 C72 1.317 . S
N73 N77 1.370 . S
N74 C72 1.348 . S
N74 C76 1.346 . S
C75 C72 1.485 . S
C75 H79 0.960 . S
C75 H80 0.961 . S
C75 H81 0.960 . S
C76 N74 1.346 . S
C76 N77 1.307 . S
C76 C78 1.486 . S
N77 N73 1.370 . S
N77 C76 1.307 . S
C78 C76 1.486 . S
C78 H82 0.960 . S
C78 H83 0.960 . S
C78 H84 0.959 . S
H79 C75 0.960 . S
H80 C75 0.961 . S
H81 C75 0.960 . S
H82 C78 0.960 . S
H83 C78 0.960 . S
H84 C78 0.959 . S
C85 N86 1.317 . S
C85 N87 1.348 . S
C85 C88 1.485 . S
N86 C85 1.317 . S
N86 N90 1.370 . S
N87 C85 1.348 . S
N87 C89 1.346 . S
C88 C85 1.485 . S
C88 H92 0.960 . S
C88 H93 0.961 . S
C88 H94 0.960 . S
C89 N87 1.346 . S
C89 N90 1.307 . S
C89 C91 1.486 . S
N90 N86 1.370 . S
N90 C89 1.307 . S
C91 C89 1.486 . S
C91 H95 0.960 . S
C91 H96 0.960 . S
C91 H97 0.959 . S
H92 C88 0.960 . S
H93 C88 0.961 . S
H94 C88 0.960 . S
H95 C91 0.960 . S
H96 C91 0.960 . S
H97 C91 0.959 . S
C98 C99 1.391 . S
C98 C100 1.394 . S
C98 H114 0.931 . S
C99 C98 1.391 . S
C99 C103 1.376 . S
C100 C98 1.394 . S
C100 C101 1.369 . S
C100 C104 1.531 . S
C101 C100 1.369 . S
C101 C102 1.410 . S
C101 C109 1.503 . S
C102 C101 1.410 . S
C102 C103 1.392 . S
C102 C105 1.511 . S
C103 C99 1.376 . S
C103 C102 1.392 . S
C103 H115 0.929 . S
C104 C100 1.531 . S
C104 H116 0.960 . S
C104 H117 0.962 . S
C104 H118 0.960 . S
C105 C102 1.511 . S
C105 H119 0.961 . S
C105 H120 0.961 . S
C105 H121 0.961 . S
C106 C107 1.370 . S
C106 C108 1.363 . S
C106 H122 0.931 . S
C107 C106 1.370 . S
C107 C111 1.408 . S
C108 C106 1.363 . S
C108 C109 1.370 . S
C108 C112 1.524 1_554 S
C109 C101 1.503 . S
C109 C108 1.370 . S
C109 C110 1.403 . S
C110 C109 1.403 . S
C110 C111 1.404 . S
C110 C113 1.539 . S
C111 C107 1.408 . S
C111 C110 1.404 . S
C111 H123 0.930 . S
C112 C108 1.524 1_556 S
C112 H124 0.956 . S
C112 H125 0.961 . S
C112 H126 0.961 . S
C113 C110 1.539 . S
C113 H127 0.958 . S
C113 H128 0.961 . S
C113 H129 0.960 . S
H114 C98 0.931 . S
H115 C103 0.929 . S
H116 C104 0.960 . S
H117 C104 0.962 . S
H118 C104 0.960 . S
H119 C105 0.961 . S
H120 C105 0.961 . S
H121 C105 0.961 . S
H122 C106 0.931 . S
H123 C111 0.930 . S
H124 C112 0.956 . S
H125 C112 0.961 . S
H126 C112 0.961 . S
H127 C113 0.958 . S
H128 C113 0.961 . S
H129 C113 0.960 . S
C130 C131 1.391 . S
C130 C132 1.394 . S
C130 H146 0.931 . S
C131 C130 1.391 . S
C131 C135 1.376 . S
C132 C130 1.394 . S
C132 C133 1.369 . S
C132 C136 1.531 . S
C133 C132 1.369 . S
C133 C134 1.410 . S
C133 C141 1.503 . S
C134 C133 1.410 . S
C134 C135 1.392 . S
C134 C137 1.511 . S
C135 C131 1.376 . S
C135 C134 1.392 . S
C135 H147 0.929 . S
C136 C132 1.531 . S
C136 H148 0.960 . S
C136 H149 0.962 . S
C136 H150 0.960 . S
C137 C134 1.511 . S
C137 H151 0.961 . S
C137 H152 0.961 . S
C137 H153 0.961 . S
C138 C139 1.370 . S
C138 C140 1.363 . S
C138 H154 0.931 . S
C139 C138 1.370 . S
C139 C143 1.408 . S
C140 C138 1.363 . S
C140 C141 1.370 . S
C140 C144 1.524 1_556 S
C141 C133 1.503 . S
C141 C140 1.370 . S
C141 C142 1.403 . S
C142 C141 1.403 . S
C142 C143 1.404 . S
C142 C145 1.539 . S
C143 C139 1.408 . S
C143 C142 1.404 . S
C143 H155 0.930 . S
C144 C140 1.524 1_554 S
C144 H156 0.956 . S
C144 H157 0.961 . S
C144 H158 0.961 . S
C145 C142 1.539 . S
C145 H159 0.958 . S
C145 H160 0.961 . S
C145 H161 0.960 . S
H146 C130 0.931 . S
H147 C135 0.929 . S
H148 C136 0.960 . S
H149 C136 0.962 . S
H150 C136 0.960 . S
H151 C137 0.961 . S
H152 C137 0.961 . S
H153 C137 0.961 . S
H154 C138 0.931 . S
H155 C143 0.930 . S
H156 C144 0.956 . S
H157 C144 0.961 . S
H158 C144 0.961 . S
H159 C145 0.958 . S
H160 C145 0.961 . S
H161 C145 0.960 . S
C162 C163 1.391 . S
C162 C164 1.394 . S
C162 H178 0.931 . S
C163 C162 1.391 . S
C163 C167 1.376 . S
C164 C162 1.394 . S
C164 C165 1.369 . S
C164 C168 1.531 . S
C165 C164 1.369 . S
C165 C166 1.410 . S
C165 C173 1.503 . S
C166 C165 1.410 . S
C166 C167 1.392 . S
C166 C169 1.511 . S
C167 C163 1.376 . S
C167 C166 1.392 . S
C167 H179 0.929 . S
C168 C164 1.531 . S
C168 H180 0.960 . S
C168 H181 0.962 . S
C168 H182 0.960 1_554 S
C169 C166 1.511 . S
C169 H183 0.961 . S
C169 H184 0.961 . S
C169 H185 0.961 . S
C170 C171 1.370 . S
C170 C172 1.363 . S
C170 H186 0.931 . S
C171 C170 1.370 . S
C171 C175 1.408 . S
C172 C170 1.363 . S
C172 C173 1.370 . S
C172 C176 1.524 . S
C173 C165 1.503 . S
C173 C172 1.370 . S
C173 C174 1.403 . S
C174 C173 1.403 . S
C174 C175 1.404 . S
C174 C177 1.539 . S
C175 C171 1.408 . S
C175 C174 1.404 . S
C175 H187 0.930 . S
C176 C172 1.524 . S
C176 H188 0.956 . S
C176 H189 0.961 . S
C176 H190 0.961 . S
C177 C174 1.539 . S
C177 H191 0.958 1_554 S
C177 H192 0.961 . S
C177 H193 0.960 . S
H178 C162 0.931 . S
H179 C167 0.929 . S
H180 C168 0.960 . S
H181 C168 0.962 . S
H182 C168 0.960 1_556 S
H183 C169 0.961 . S
H184 C169 0.961 . S
H185 C169 0.961 . S
H186 C170 0.931 . S
H187 C175 0.930 . S
H188 C176 0.956 . S
H189 C176 0.961 . S
H190 C176 0.961 . S
H191 C177 0.958 1_556 S
H192 C177 0.961 . S
H193 C177 0.960 . S
C194 C195 1.391 . S
C194 C196 1.394 . S
C194 H210 0.931 . S
C195 C194 1.391 . S
C195 C199 1.376 . S
C196 C194 1.394 . S
C196 C197 1.369 . S
C196 C200 1.531 . S
C197 C196 1.369 . S
C197 C198 1.410 . S
C197 C205 1.503 . S
C198 C197 1.410 . S
C198 C199 1.392 . S
C198 C201 1.511 . S
C199 C195 1.376 . S
C199 C198 1.392 . S
C199 H211 0.929 . S
C200 C196 1.531 . S
C200 H212 0.960 . S
C200 H213 0.962 . S
C200 H214 0.960 . S
C201 C198 1.511 . S
C201 H215 0.961 . S
C201 H216 0.961 . S
C201 H217 0.961 . S
C202 C203 1.370 . S
C202 C204 1.363 . S
C202 H218 0.931 . S
C203 C202 1.370 . S
C203 C207 1.408 . S
C204 C202 1.363 . S
C204 C205 1.370 . S
C204 C208 1.524 1_556 S
C205 C197 1.503 . S
C205 C204 1.370 . S
C205 C206 1.403 . S
C206 C205 1.403 . S
C206 C207 1.404 . S
C206 C209 1.539 . S
C207 C203 1.408 . S
C207 C206 1.404 . S
C207 H219 0.930 . S
C208 C204 1.524 1_554 S
C208 H220 0.956 . S
C208 H221 0.961 . S
C208 H222 0.961 . S
C209 C206 1.539 . S
C209 H223 0.958 . S
C209 H224 0.961 . S
C209 H225 0.960 . S
H210 C194 0.931 . S
H211 C199 0.929 . S
H212 C200 0.960 . S
H213 C200 0.962 . S
H214 C200 0.960 . S
H215 C201 0.961 . S
H216 C201 0.961 . S
H217 C201 0.961 . S
H218 C202 0.931 . S
H219 C207 0.930 . S
H220 C208 0.956 . S
H221 C208 0.961 . S
H222 C208 0.961 . S
H223 C209 0.958 . S
H224 C209 0.961 . S
H225 C209 0.960 . S
C226 C227 1.391 . S
C226 C228 1.394 . S
C226 H242 0.931 . S
C227 C226 1.391 . S
C227 C231 1.376 . S
C228 C226 1.394 . S
C228 C229 1.369 . S
C228 C232 1.531 . S
C229 C228 1.369 . S
C229 C230 1.410 . S
C229 C237 1.503 . S
C230 C229 1.410 . S
C230 C231 1.392 . S
C230 C233 1.511 . S
C231 C227 1.376 . S
C231 C230 1.392 . S
C231 H243 0.929 . S
C232 C228 1.531 . S
C232 H244 0.960 . S
C232 H245 0.962 . S
C232 H246 0.960 . S
C233 C230 1.511 . S
C233 H247 0.961 . S
C233 H248 0.961 . S
C233 H249 0.961 . S
C234 C235 1.370 . S
C234 C236 1.363 . S
C234 H250 0.931 . S
C235 C234 1.370 . S
C235 C239 1.408 . S
C236 C234 1.363 . S
C236 C237 1.370 . S
C236 C240 1.524 . S
C237 C229 1.503 . S
C237 C236 1.370 . S
C237 C238 1.403 . S
C238 C237 1.403 . S
C238 C239 1.404 . S
C238 C241 1.539 . S
C239 C235 1.408 . S
C239 C238 1.404 . S
C239 H251 0.930 . S
C240 C236 1.524 . S
C240 H252 0.956 . S
C240 H253 0.961 . S
C240 H254 0.961 . S
C241 C238 1.539 . S
C241 H255 0.958 . S
C241 H256 0.961 . S
C241 H257 0.960 . S
H242 C226 0.931 . S
H243 C231 0.929 . S
H244 C232 0.960 . S
H245 C232 0.962 . S
H246 C232 0.960 . S
H247 C233 0.961 . S
H248 C233 0.961 . S
H249 C233 0.961 . S
H250 C234 0.931 . S
H251 C239 0.930 . S
H252 C240 0.956 . S
H253 C240 0.961 . S
H254 C240 0.961 . S
H255 C241 0.958 . S
H256 C241 0.961 . S
H257 C241 0.960 . S
C258 C259 1.391 . S
C258 C260 1.394 . S
C258 H274 0.931 . S
C259 C258 1.391 . S
C259 C263 1.376 . S
C260 C258 1.394 . S
C260 C261 1.369 . S
C260 C264 1.531 . S
C261 C260 1.369 . S
C261 C262 1.410 . S
C261 C269 1.503 . S
C262 C261 1.410 . S
C262 C263 1.392 . S
C262 C265 1.511 . S
C263 C259 1.376 . S
C263 C262 1.392 . S
C263 H275 0.929 . S
C264 C260 1.531 . S
C264 H276 0.960 . S
C264 H277 0.962 . S
C264 H278 0.960 . S
C265 C262 1.511 . S
C265 H279 0.961 . S
C265 H280 0.961 . S
C265 H281 0.961 . S
C266 C267 1.370 . S
C266 C268 1.363 . S
C266 H282 0.931 . S
C267 C266 1.370 . S
C267 C271 1.408 . S
C268 C266 1.363 . S
C268 C269 1.370 . S
C268 C272 1.524 . S
C269 C261 1.503 . S
C269 C268 1.370 . S
C269 C270 1.403 . S
C270 C269 1.403 . S
C270 C271 1.404 . S
C270 C273 1.539 . S
C271 C267 1.408 . S
C271 C270 1.404 . S
C271 H283 0.930 . S
C272 C268 1.524 . S
C272 H284 0.956 . S
C272 H285 0.961 . S
C272 H286 0.961 . S
C273 C270 1.539 . S
C273 H287 0.958 . S
C273 H288 0.961 . S
C273 H289 0.960 . S
H274 C258 0.931 . S
H275 C263 0.929 . S
H276 C264 0.960 . S
H277 C264 0.962 . S
H278 C264 0.960 . S
H279 C265 0.961 . S
H280 C265 0.961 . S
H281 C265 0.961 . S
H282 C266 0.931 . S
H283 C271 0.930 . S
H284 C272 0.956 . S
H285 C272 0.961 . S
H286 C272 0.961 . S
H287 C273 0.958 . S
H288 C273 0.961 . S
H289 C273 0.960 . S
C290 C291 1.391 . S
C290 C292 1.394 . S
C290 H306 0.931 . S
C291 C290 1.391 . S
C291 C295 1.376 . S
C292 C290 1.394 . S
C292 C293 1.369 . S
C292 C296 1.531 . S
C293 C292 1.369 . S
C293 C294 1.410 . S
C293 C301 1.503 . S
C294 C293 1.410 . S
C294 C295 1.392 . S
C294 C297 1.511 . S
C295 C291 1.376 . S
C295 C294 1.392 . S
C295 H307 0.929 . S
C296 C292 1.531 . S
C296 H308 0.960 . S
C296 H309 0.962 . S
C296 H310 0.960 . S
C297 C294 1.511 . S
C297 H311 0.961 . S
C297 H312 0.961 . S
C297 H313 0.961 . S
C298 C299 1.370 . S
C298 C300 1.363 . S
C298 H314 0.931 . S
C299 C298 1.370 . S
C299 C303 1.408 . S
C300 C298 1.363 . S
C300 C301 1.370 . S
C300 C304 1.524 . S
C301 C293 1.503 . S
C301 C300 1.370 . S
C301 C302 1.403 . S
C302 C301 1.403 . S
C302 C303 1.404 . S
C302 C305 1.539 . S
C303 C299 1.408 . S
C303 C302 1.404 . S
C303 H315 0.930 . S
C304 C300 1.524 . S
C304 H316 0.956 . S
C304 H317 0.961 . S
C304 H318 0.961 . S
C305 C302 1.539 . S
C305 H319 0.958 . S
C305 H320 0.961 . S
C305 H321 0.960 . S
H306 C290 0.931 . S
H307 C295 0.929 . S
H308 C296 0.960 . S
H309 C296 0.962 . S
H310 C296 0.960 . S
H311 C297 0.961 . S
H312 C297 0.961 . S
H313 C297 0.961 . S
H314 C298 0.931 . S
H315 C303 0.930 . S
H316 C304 0.956 . S
H317 C304 0.961 . S
H318 C304 0.961 . S
H319 C305 0.958 . S
H320 C305 0.961 . S
H321 C305 0.960 . S
C322 C323 1.391 . S
C322 C324 1.394 . S
C322 H338 0.931 . S
C323 C322 1.391 . S
C323 C327 1.376 . S
C324 C322 1.394 . S
C324 C325 1.369 . S
C324 C328 1.531 . S
C325 C324 1.369 . S
C325 C326 1.410 . S
C325 C333 1.503 . S
C326 C325 1.410 . S
C326 C327 1.392 . S
C326 C329 1.511 . S
C327 C323 1.376 . S
C327 C326 1.392 . S
C327 H339 0.929 . S
C328 C324 1.531 . S
C328 H340 0.960 . S
C328 H341 0.962 . S
C328 H342 0.960 . S
C329 C326 1.511 . S
C329 H343 0.961 . S
C329 H344 0.961 . S
C329 H345 0.961 . S
C330 C331 1.370 . S
C330 C332 1.363 . S
C330 H346 0.931 . S
C331 C330 1.370 . S
C331 C335 1.408 . S
C332 C330 1.363 . S
C332 C333 1.370 . S
C332 C336 1.524 . S
C333 C325 1.503 . S
C333 C332 1.370 . S
C333 C334 1.403 . S
C334 C333 1.403 . S
C334 C335 1.404 . S
C334 C337 1.539 . S
C335 C331 1.408 . S
C335 C334 1.404 . S
C335 H347 0.930 . S
C336 C332 1.524 . S
C336 H348 0.956 . S
C336 H349 0.961 . S
C336 H350 0.961 . S
C337 C334 1.539 . S
C337 H351 0.958 . S
C337 H352 0.961 . S
C337 H353 0.960 . S
H338 C322 0.931 . S
H339 C327 0.929 . S
H340 C328 0.960 . S
H341 C328 0.962 . S
H342 C328 0.960 . S
H343 C329 0.961 . S
H344 C329 0.961 . S
H345 C329 0.961 . S
H346 C330 0.931 . S
H347 C335 0.930 . S
H348 C336 0.956 . S
H349 C336 0.961 . S
H350 C336 0.961 . S
H351 C337 0.958 . S
H352 C337 0.961 . S
H353 C337 0.960 . S
C354 C355 1.391 1_655 S
C354 C356 1.394 . S
C354 H370 0.931 . S
C355 C354 1.391 1_455 S
C355 C359 1.376 1_565 S
C356 C354 1.394 . S
C356 C357 1.369 1_655 S
C356 C360 1.531 . S
C357 C356 1.369 1_455 S
C357 C358 1.410 1_565 S
C357 C365 1.503 . S
C358 C357 1.410 1_545 S
C358 C359 1.392 . S
C358 C361 1.511 . S
C359 C355 1.376 1_545 S
C359 C358 1.392 . S
C359 H371 0.929 . S
C360 C356 1.531 . S
C360 H372 0.960 . S
C360 H373 0.962 . S
C360 H374 0.960 . S
C361 C358 1.511 . S
C361 H375 0.961 . S
C361 H376 0.961 . S
C361 H377 0.961 1_545 S
C362 C363 1.370 1_645 S
C362 C364 1.363 1_655 S
C362 H378 0.931 . S
C363 C362 1.370 1_465 S
C363 C367 1.408 . S
C364 C362 1.363 1_455 S
C364 C365 1.370 1_545 S
C364 C368 1.524 1_455 S
C365 C357 1.503 . S
C365 C364 1.370 1_565 S
C365 C366 1.403 . S
C366 C365 1.403 . S
C366 C367 1.404 . S
C366 C369 1.539 . S
C367 C363 1.408 . S
C367 C366 1.404 . S
C367 H379 0.930 . S
C368 C364 1.524 1_655 S
C368 H380 0.956 . S
C368 H381 0.961 1_655 S
C368 H382 0.961 . S
C369 C366 1.539 . S
C369 H383 0.958 . S
C369 H384 0.961 . S
C369 H385 0.960 . S
H370 C354 0.931 . S
H371 C359 0.929 . S
H372 C360 0.960 . S
H373 C360 0.962 . S
H374 C360 0.960 . S
H375 C361 0.961 . S
H376 C361 0.961 . S
H377 C361 0.961 1_565 S
H378 C362 0.931 . S
H379 C367 0.930 . S
H380 C368 0.956 . S
H381 C368 0.961 1_455 S
H382 C368 0.961 . S
H383 C369 0.958 . S
H384 C369 0.961 . S
H385 C369 0.960 . S
C386 C387 1.391 . S
C386 C388 1.394 . S
C386 H402 0.931 . S
C387 C386 1.391 . S
C387 C391 1.376 1_455 S
C388 C386 1.394 . S
C388 C389 1.369 . S
C388 C392 1.531 . S
C389 C388 1.369 . S
C389 C390 1.410 1_455 S
C389 C397 1.503 . S
C390 C389 1.410 1_655 S
C390 C391 1.392 . S
C390 C393 1.511 . S
C391 C387 1.376 1_655 S
C391 C390 1.392 . S
C391 H403 0.929 . S
C392 C388 1.531 . S
C392 H404 0.960 1_545 S
C392 H405 0.962 . S
C392 H406 0.960 1_545 S
C393 C390 1.511 . S
C393 H407 0.961 . S
C393 H408 0.961 . S
C393 H409 0.961 1_545 S
C394 C395 1.370 . S
C394 C396 1.363 . S
C394 H410 0.931 . S
C395 C394 1.370 . S
C395 C399 1.408 1_545 S
C396 C394 1.363 . S
C396 C397 1.370 . S
C396 C400 1.524 . S
C397 C389 1.503 . S
C397 C396 1.370 . S
C397 C398 1.403 1_545 S
C398 C397 1.403 1_565 S
C398 C399 1.404 . S
C398 C401 1.539 . S
C399 C395 1.408 1_565 S
C399 C398 1.404 . S
C399 H411 0.930 . S
C400 C396 1.524 . S
C400 H412 0.956 . S
C400 H413 0.961 1_455 S
C400 H414 0.961 . S
C401 C398 1.539 . S
C401 H415 0.958 . S
C401 H416 0.961 . S
C401 H417 0.960 . S
H402 C386 0.931 . S
H403 C391 0.929 . S
H404 C392 0.960 1_565 S
H405 C392 0.962 . S
H406 C392 0.960 1_565 S
H407 C393 0.961 . S
H408 C393 0.961 . S
H409 C393 0.961 1_565 S
H410 C394 0.931 . S
H411 C399 0.930 . S
H412 C400 0.956 . S
H413 C400 0.961 1_655 S
H414 C400 0.961 . S
H415 C401 0.958 . S
H416 C401 0.961 . S
H417 C401 0.960 . S
C418 C419 1.391 . S
C418 C420 1.394 . S
C418 H434 0.931 . S
C419 C418 1.391 . S
C419 C423 1.376 . S
C420 C418 1.394 . S
C420 C421 1.369 . S
C420 C424 1.531 . S
C421 C420 1.369 . S
C421 C422 1.410 . S
C421 C429 1.503 . S
C422 C421 1.410 . S
C422 C423 1.392 . S
C422 C425 1.511 . S
C423 C419 1.376 . S
C423 C422 1.392 . S
C423 H435 0.929 . S
C424 C420 1.531 . S
C424 H436 0.960 . S
C424 H437 0.962 . S
C424 H438 0.960 . S
C425 C422 1.511 . S
C425 H439 0.961 . S
C425 H440 0.961 . S
C425 H441 0.961 . S
C426 C427 1.370 . S
C426 C428 1.363 . S
C426 H442 0.931 . S
C427 C426 1.370 . S
C427 C431 1.408 . S
C428 C426 1.363 . S
C428 C429 1.370 . S
C428 C432 1.524 . S
C429 C421 1.503 . S
C429 C428 1.370 . S
C429 C430 1.403 . S
C430 C429 1.403 . S
C430 C431 1.404 . S
C430 C433 1.539 . S
C431 C427 1.408 . S
C431 C430 1.404 . S
C431 H443 0.930 . S
C432 C428 1.524 . S
C432 H444 0.956 . S
C432 H445 0.961 . S
C432 H446 0.961 . S
C433 C430 1.539 . S
C433 H447 0.958 . S
C433 H448 0.961 . S
C433 H449 0.960 . S
H434 C418 0.931 . S
H435 C423 0.929 . S
H436 C424 0.960 . S
H437 C424 0.962 . S
H438 C424 0.960 . S
H439 C425 0.961 . S
H440 C425 0.961 . S
H441 C425 0.961 . S
H442 C426 0.931 . S
H443 C431 0.930 . S
H444 C432 0.956 . S
H445 C432 0.961 . S
H446 C432 0.961 . S
H447 C433 0.958 . S
H448 C433 0.961 . S
H449 C433 0.960 . S
C450 C451 1.391 . S
C450 C452 1.394 . S
C450 H466 0.931 . S
C451 C450 1.391 . S
C451 C455 1.376 . S
C452 C450 1.394 . S
C452 C453 1.369 . S
C452 C456 1.531 . S
C453 C452 1.369 . S
C453 C454 1.410 . S
C453 C461 1.503 . S
C454 C453 1.410 . S
C454 C455 1.392 . S
C454 C457 1.511 . S
C455 C451 1.376 . S
C455 C454 1.392 . S
C455 H467 0.929 . S
C456 C452 1.531 . S
C456 H468 0.960 . S
C456 H469 0.962 . S
C456 H470 0.960 . S
C457 C454 1.511 . S
C457 H471 0.961 . S
C457 H472 0.961 . S
C457 H473 0.961 . S
C458 C459 1.370 . S
C458 C460 1.363 . S
C458 H474 0.931 . S
C459 C458 1.370 . S
C459 C463 1.408 . S
C460 C458 1.363 . S
C460 C461 1.370 . S
C460 C464 1.524 . S
C461 C453 1.503 . S
C461 C460 1.370 . S
C461 C462 1.403 . S
C462 C461 1.403 . S
C462 C463 1.404 . S
C462 C465 1.539 . S
C463 C459 1.408 . S
C463 C462 1.404 . S
C463 H475 0.930 . S
C464 C460 1.524 . S
C464 H476 0.956 . S
C464 H477 0.961 . S
C464 H478 0.961 . S
C465 C462 1.539 . S
C465 H479 0.958 . S
C465 H480 0.961 . S
C465 H481 0.960 . S
H466 C450 0.931 . S
H467 C455 0.929 . S
H468 C456 0.960 . S
H469 C456 0.962 . S
H470 C456 0.960 . S
H471 C457 0.961 . S
H472 C457 0.961 . S
H473 C457 0.961 . S
H474 C458 0.931 . S
H475 C463 0.930 . S
H476 C464 0.956 . S
H477 C464 0.961 . S
H478 C464 0.961 . S
H479 C465 0.958 . S
H480 C465 0.961 . S
H481 C465 0.960 . S
C107 N87 1.390 . S
C99 C21 1.403 . S
C131 C19 1.401 1_556 S
C139 N74 1.392 . S
C163 C18 1.480 . S
C171 N86 1.504 . S
C195 C20 1.520 . S
C203 N73 1.519 . S
C227 C44 1.397 . S
C235 N61 1.390 . S
C259 C42 1.378 . S
C267 N48 1.403 . S
C299 N60 1.511 . S
C291 C41 1.474 . S
C331 N47 1.514 . S
C323 C43 1.504 . S
C355 C16 1.529 . S
C363 N51 1.519 1_565 S
C387 C17 1.486 . S
C395 N64 1.475 . S
C427 N77 1.508 . S
C419 C39 1.526 . S
C451 C40 1.485 . S
C459 N90 1.475 . S
