# Generated by pormake.
# Topology eea, (3,6)-cn, num edge types: 1
# Building blocks:
#     Node 0, Type 0, BuildingBlock: BELTOD_clean_linker_0, # of connection points: 3
#     Node 1, Type 0, BuildingBlock: BELTOD_clean_linker_0, # of connection points: 3
#     Node 2, Type 0, BuildingBlock: BELTOD_clean_linker_0, # of connection points: 3
#     Node 3, Type 0, BuildingBlock: BELTOD_clean_linker_0, # of connection points: 3
#     Node 4, Type 0, BuildingBlock: BELTOD_clean_linker_0, # of connection points: 3
#     Node 5, Type 0, BuildingBlock: BELTOD_clean_linker_0, # of connection points: 3
#     Node 6, Type 0, BuildingBlock: BELTOD_clean_linker_0, # of connection points: 3
#     Node 7, Type 0, BuildingBlock: BELTOD_clean_linker_0, # of connection points: 3
#     Node 8, Type 0, BuildingBlock: BELTOD_clean_linker_0, # of connection points: 3
#     Node 9, Type 0, BuildingBlock: BELTOD_clean_linker_0, # of connection points: 3
#     Node 10, Type 0, BuildingBlock: BELTOD_clean_linker_0, # of connection points: 3
#     Node 11, Type 0, BuildingBlock: BELTOD_clean_linker_0, # of connection points: 3
#     Node 12, Type 0, BuildingBlock: BELTOD_clean_linker_0, # of connection points: 3
#     Node 13, Type 0, BuildingBlock: BELTOD_clean_linker_0, # of connection points: 3
#     Node 14, Type 0, BuildingBlock: BELTOD_clean_linker_0, # of connection points: 3
#     Node 15, Type 0, BuildingBlock: BELTOD_clean_linker_0, # of connection points: 3
#     Node 16, Type 0, BuildingBlock: BELTOD_clean_linker_0, # of connection points: 3
#     Node 17, Type 0, BuildingBlock: BELTOD_clean_linker_0, # of connection points: 3
#     Node 18, Type 1, BuildingBlock: CUWYAW_clean_sbu_0, # of connection points: 6
#     Node 19, Type 1, BuildingBlock: CUWYAW_clean_sbu_0, # of connection points: 6
#     Node 20, Type 1, BuildingBlock: CUWYAW_clean_sbu_0, # of connection points: 6
#     Node 21, Type 1, BuildingBlock: CUWYAW_clean_sbu_0, # of connection points: 6
#     Node 22, Type 1, BuildingBlock: CUWYAW_clean_sbu_0, # of connection points: 6
#     Node 23, Type 1, BuildingBlock: CUWYAW_clean_sbu_0, # of connection points: 6
#     Node 24, Type 1, BuildingBlock: CUWYAW_clean_sbu_0, # of connection points: 6
#     Node 25, Type 1, BuildingBlock: CUWYAW_clean_sbu_0, # of connection points: 6
#     Node 26, Type 1, BuildingBlock: CUWYAW_clean_sbu_0, # of connection points: 6
#     Edge 27, Type (0, 1), BuildingBlock: MIFKUJ_clean_linker_0, # of connection points: 2
#     Edge 28, Type (0, 1), BuildingBlock: MIFKUJ_clean_linker_0, # of connection points: 2
#     Edge 29, Type (0, 1), BuildingBlock: MIFKUJ_clean_linker_0, # of connection points: 2
#     Edge 30, Type (0, 1), BuildingBlock: MIFKUJ_clean_linker_0, # of connection points: 2
#     Edge 31, Type (0, 1), BuildingBlock: MIFKUJ_clean_linker_0, # of connection points: 2
#     Edge 32, Type (0, 1), BuildingBlock: MIFKUJ_clean_linker_0, # of connection points: 2
#     Edge 33, Type (0, 1), BuildingBlock: MIFKUJ_clean_linker_0, # of connection points: 2
#     Edge 34, Type (0, 1), BuildingBlock: MIFKUJ_clean_linker_0, # of connection points: 2
#     Edge 35, Type (0, 1), BuildingBlock: MIFKUJ_clean_linker_0, # of connection points: 2
#     Edge 36, Type (0, 1), BuildingBlock: MIFKUJ_clean_linker_0, # of connection points: 2
#     Edge 37, Type (0, 1), BuildingBlock: MIFKUJ_clean_linker_0, # of connection points: 2
#     Edge 38, Type (0, 1), BuildingBlock: MIFKUJ_clean_linker_0, # of connection points: 2
#     Edge 39, Type (0, 1), BuildingBlock: MIFKUJ_clean_linker_0, # of connection points: 2
#     Edge 40, Type (0, 1), BuildingBlock: MIFKUJ_clean_linker_0, # of connection points: 2
#     Edge 41, Type (0, 1), BuildingBlock: MIFKUJ_clean_linker_0, # of connection points: 2
#     Edge 42, Type (0, 1), BuildingBlock: MIFKUJ_clean_linker_0, # of connection points: 2
#     Edge 43, Type (0, 1), BuildingBlock: MIFKUJ_clean_linker_0, # of connection points: 2
#     Edge 44, Type (0, 1), BuildingBlock: MIFKUJ_clean_linker_0, # of connection points: 2
#     Edge 45, Type (0, 1), BuildingBlock: MIFKUJ_clean_linker_0, # of connection points: 2
#     Edge 46, Type (0, 1), BuildingBlock: MIFKUJ_clean_linker_0, # of connection points: 2
#     Edge 47, Type (0, 1), BuildingBlock: MIFKUJ_clean_linker_0, # of connection points: 2
#     Edge 48, Type (0, 1), BuildingBlock: MIFKUJ_clean_linker_0, # of connection points: 2
#     Edge 49, Type (0, 1), BuildingBlock: MIFKUJ_clean_linker_0, # of connection points: 2
#     Edge 50, Type (0, 1), BuildingBlock: MIFKUJ_clean_linker_0, # of connection points: 2
#     Edge 51, Type (0, 1), BuildingBlock: MIFKUJ_clean_linker_0, # of connection points: 2
#     Edge 52, Type (0, 1), BuildingBlock: MIFKUJ_clean_linker_0, # of connection points: 2
#     Edge 53, Type (0, 1), BuildingBlock: MIFKUJ_clean_linker_0, # of connection points: 2
#     Edge 54, Type (0, 1), BuildingBlock: MIFKUJ_clean_linker_0, # of connection points: 2
#     Edge 55, Type (0, 1), BuildingBlock: MIFKUJ_clean_linker_0, # of connection points: 2
#     Edge 56, Type (0, 1), BuildingBlock: MIFKUJ_clean_linker_0, # of connection points: 2
#     Edge 57, Type (0, 1), BuildingBlock: MIFKUJ_clean_linker_0, # of connection points: 2
#     Edge 58, Type (0, 1), BuildingBlock: MIFKUJ_clean_linker_0, # of connection points: 2
#     Edge 59, Type (0, 1), BuildingBlock: MIFKUJ_clean_linker_0, # of connection points: 2
#     Edge 60, Type (0, 1), BuildingBlock: MIFKUJ_clean_linker_0, # of connection points: 2
#     Edge 61, Type (0, 1), BuildingBlock: MIFKUJ_clean_linker_0, # of connection points: 2
#     Edge 62, Type (0, 1), BuildingBlock: MIFKUJ_clean_linker_0, # of connection points: 2
#     Edge 63, Type (0, 1), BuildingBlock: MIFKUJ_clean_linker_0, # of connection points: 2
#     Edge 64, Type (0, 1), BuildingBlock: MIFKUJ_clean_linker_0, # of connection points: 2
#     Edge 65, Type (0, 1), BuildingBlock: MIFKUJ_clean_linker_0, # of connection points: 2
#     Edge 66, Type (0, 1), BuildingBlock: MIFKUJ_clean_linker_0, # of connection points: 2
#     Edge 67, Type (0, 1), BuildingBlock: MIFKUJ_clean_linker_0, # of connection points: 2
#     Edge 68, Type (0, 1), BuildingBlock: MIFKUJ_clean_linker_0, # of connection points: 2
#     Edge 69, Type (0, 1), BuildingBlock: MIFKUJ_clean_linker_0, # of connection points: 2
#     Edge 70, Type (0, 1), BuildingBlock: MIFKUJ_clean_linker_0, # of connection points: 2
#     Edge 71, Type (0, 1), BuildingBlock: MIFKUJ_clean_linker_0, # of connection points: 2
#     Edge 72, Type (0, 1), BuildingBlock: MIFKUJ_clean_linker_0, # of connection points: 2
#     Edge 73, Type (0, 1), BuildingBlock: MIFKUJ_clean_linker_0, # of connection points: 2
#     Edge 74, Type (0, 1), BuildingBlock: MIFKUJ_clean_linker_0, # of connection points: 2
#     Edge 75, Type (0, 1), BuildingBlock: MIFKUJ_clean_linker_0, # of connection points: 2
#     Edge 76, Type (0, 1), BuildingBlock: MIFKUJ_clean_linker_0, # of connection points: 2
#     Edge 77, Type (0, 1), BuildingBlock: MIFKUJ_clean_linker_0, # of connection points: 2
#     Edge 78, Type (0, 1), BuildingBlock: MIFKUJ_clean_linker_0, # of connection points: 2
#     Edge 79, Type (0, 1), BuildingBlock: MIFKUJ_clean_linker_0, # of connection points: 2
#     Edge 80, Type (0, 1), BuildingBlock: MIFKUJ_clean_linker_0, # of connection points: 2
# Relax obj value: 0.032
# Max RMSD: 0.130
# Mean RMSD: 0.071
data_MOF--net-eea--node1-CUWYAW_clean_sbu_0--node2-BELTOD_clean_linker_0--edge1-MIFKUJ_clean_linker_0
_symmetry_space_group_name_H-M    P1
_symmetry_Int_Tables_number       1
_symmetry_cell_setting            triclinic
loop_
_symmetry_equiv_pos_as_xyz
'x, y, z'
_cell_length_a     74.273526
_cell_length_b     73.874323
_cell_length_c     102.03268
_cell_angle_alpha  93.814976
_cell_angle_beta   93.473678
_cell_angle_gamma 119.90259
loop_
_atom_site_label
_atom_site_type_symbol
_atom_site_fract_x
_atom_site_fract_y
_atom_site_fract_z
_atom_type_partial_charge
P0 P 0.29832 0.16086 0.40408 0.0
H1 H 0.31313 0.13584 0.38982 0.0
H2 H 0.29567 0.099 0.38057 0.0
H3 H 0.23818 0.08904 0.39495 0.0
H4 H 0.25565 0.12604 0.40384 0.0
H5 H 0.29569 0.19711 0.41469 0.0
H6 H 0.27668 0.21393 0.40651 0.0
H7 H 0.25165 0.16885 0.3716 0.0
H8 H 0.27044 0.15195 0.37993 0.0
H9 H 0.33241 0.17015 0.42424 0.0
H10 H 0.26778 0.15356 0.42285 0.0
O11 O 0.32229 0.17387 0.39934 0.0
H12 H 0.33447 0.1708 0.4483 0.0
H13 H 0.26974 0.15431 0.4469 0.0
C14 C 0.28563 0.13367 0.39744 0.0
C15 C 0.29676 0.12574 0.39095 0.0
C16 C 0.28678 0.10463 0.38575 0.0
C17 C 0.2655 0.09107 0.387 0.0
C18 C 0.25449 0.09911 0.39364 0.0
C19 C 0.26449 0.12022 0.39882 0.0
C20 C 0.28397 0.1729 0.39812 0.0
C21 C 0.28591 0.1907 0.40535 0.0
C22 C 0.27519 0.20041 0.40061 0.0
C23 C 0.26252 0.19261 0.38846 0.0
C24 C 0.26092 0.17496 0.38113 0.0
C25 C 0.27169 0.1653 0.38588 0.0
C26 C 0.30003 0.16208 0.4218 0.0
C27 C 0.31872 0.16684 0.42912 0.0
C28 C 0.31989 0.16726 0.44287 0.0
C29 C 0.30229 0.16268 0.4495 0.0
C30 C 0.28352 0.15774 0.44208 0.0
C31 C 0.2824 0.1574 0.42834 0.0
P32 P 0.90696 0.10073 0.43357 0.0
H33 H 0.90091 0.0881 0.40521 0.0
H34 H 0.87049 0.0624 0.39025 0.0
H35 H 0.83224 0.04884 0.42258 0.0
H36 H 0.86257 0.07506 0.43734 0.0
H37 H 0.95244 0.12373 0.43609 0.0
H38 H 0.978 0.15288 0.42529 0.0
H39 H 0.92801 0.15675 0.40415 0.0
H40 H 0.90244 0.12719 0.41487 0.0
H41 H 0.89985 0.08476 0.45923 0.0
H42 H 0.89882 0.13502 0.44064 0.0
O43 O 0.91799 0.08657 0.43737 0.0
H44 H 0.8903 0.09561 0.47951 0.0
H45 H 0.88898 0.14588 0.46091 0.0
C46 C 0.88394 0.08387 0.42232 0.0
C47 C 0.88587 0.07996 0.409 0.0
C48 C 0.86849 0.06507 0.40049 0.0
C49 C 0.84889 0.05349 0.40521 0.0
C50 C 0.84698 0.05771 0.41855 0.0
C51 C 0.86438 0.0727 0.42703 0.0
C52 C 0.92556 0.12302 0.42604 0.0
C53 C 0.94697 0.13083 0.42912 0.0
C54 C 0.96158 0.14764 0.42302 0.0
C55 C 0.95505 0.15709 0.41379 0.0
C56 C 0.93353 0.14959 0.41104 0.0
C57 C 0.91892 0.13275 0.41718 0.0
C58 C 0.90044 0.10934 0.44853 0.0
C59 C 0.89769 0.09823 0.45954 0.0
C60 C 0.89204 0.10434 0.4711 0.0
C61 C 0.88891 0.12163 0.47183 0.0
C62 C 0.89157 0.13268 0.46071 0.0
C63 C 0.89716 0.12647 0.44912 0.0
P64 P 0.86594 0.72911 0.41981 0.0
H65 H 0.83592 0.71589 0.39637 0.0
H66 H 0.81379 0.72898 0.3877 0.0
H67 H 0.83885 0.77804 0.42046 0.0
H68 H 0.86077 0.76453 0.42922 0.0
H69 H 0.90488 0.73184 0.42993 0.0
H70 H 0.93971 0.74836 0.42246 0.0
H71 H 0.91964 0.77555 0.39278 0.0
H72 H 0.88482 0.75876 0.40018 0.0
H73 H 0.83822 0.69608 0.43491 0.0
H74 H 0.8904 0.75932 0.44317 0.0
O75 O 0.85659 0.70476 0.41251 0.0
H76 H 0.83635 0.6933 0.45852 0.0
H77 H 0.88881 0.75658 0.46697 0.0
C78 C 0.84971 0.73901 0.41356 0.0
C79 C 0.83659 0.72939 0.40174 0.0
C80 C 0.82405 0.73701 0.39673 0.0
C81 C 0.8245 0.75455 0.40339 0.0
C82 C 0.83789 0.76432 0.41519 0.0
C83 C 0.85047 0.75666 0.42019 0.0
C84 C 0.89236 0.74439 0.4158 0.0
C85 C 0.90813 0.74176 0.42202 0.0
C86 C 0.92805 0.75123 0.41773 0.0
C87 C 0.93246 0.76327 0.40701 0.0
C88 C 0.9167 0.76622 0.40099 0.0
C89 C 0.89681 0.75678 0.4053 0.0
C90 C 0.86475 0.72771 0.43731 0.0
C91 C 0.8494 0.70932 0.44183 0.0
C92 C 0.8484 0.70774 0.45535 0.0
C93 C 0.86264 0.72461 0.46464 0.0
C94 C 0.87763 0.74331 0.46007 0.0
C95 C 0.87864 0.74485 0.44649 0.0
P96 P 0.1241 0.27677 0.59084 0.0
H97 H 0.10055 0.29486 0.60178 0.0
H98 H 0.06606 0.2795 0.60952 0.0
H99 H 0.05586 0.2173 0.59845 0.0
H100 H 0.09023 0.23294 0.59024 0.0
H101 H 0.15698 0.2728 0.57898 0.0
H102 H 0.1771 0.25636 0.58545 0.0
H103 H 0.14039 0.23321 0.61814 0.0
H104 H 0.12084 0.25037 0.61186 0.0
H105 H 0.13523 0.31288 0.57614 0.0
H106 H 0.11009 0.24621 0.56734 0.0
O107 O 0.13855 0.30064 0.59917 0.0
H108 H 0.13616 0.31694 0.55262 0.0
H109 H 0.11133 0.25018 0.54368 0.0
C110 C 0.09816 0.26502 0.59583 0.0
C111 C 0.09089 0.27792 0.60101 0.0
C112 C 0.07118 0.26909 0.6055 0.0
C113 C 0.05831 0.24714 0.60487 0.0
C114 C 0.06532 0.23425 0.59909 0.0
C115 C 0.08504 0.24315 0.5945 0.0
C116 C 0.13693 0.26223 0.59467 0.0
C117 C 0.15296 0.26382 0.58738 0.0
C118 C 0.16446 0.25436 0.59109 0.0
C119 C 0.1603 0.24332 0.60227 0.0
C120 C 0.14412 0.2417 0.60952 0.0
C121 C 0.13271 0.25127 0.60583 0.0
C122 C 0.12293 0.2793 0.57345 0.0
C123 C 0.12989 0.29909 0.56913 0.0
C124 C 0.1305 0.3014 0.55567 0.0
C125 C 0.12411 0.28393 0.54629 0.0
C126 C 0.1163 0.26393 0.55065 0.0
C127 C 0.11567 0.26165 0.56415 0.0
P128 P 0.80942 0.90563 0.58409 0.0
H129 H 0.81255 0.91364 0.61285 0.0
H130 H 0.80485 0.93623 0.62716 0.0
H131 H 0.78059 0.95172 0.59276 0.0
H132 H 0.78744 0.9285 0.57868 0.0
H133 H 0.83408 0.88557 0.58045 0.0
H134 H 0.83235 0.85427 0.58821 0.0
H135 H 0.77944 0.8437 0.60894 0.0
H136 H 0.78096 0.87481 0.60076 0.0
H137 H 0.81649 0.92728 0.56047 0.0
H138 H 0.77093 0.86771 0.5722 0.0
O139 O 0.83448 0.92272 0.5828 0.0
H140 H 0.79758 0.91755 0.53842 0.0
H141 H 0.75228 0.85745 0.54998 0.0
C142 C 0.80015 0.91896 0.59472 0.0
C143 C 0.80497 0.92139 0.60844 0.0
C144 C 0.8008 0.93455 0.6166 0.0
C145 C 0.79216 0.94593 0.61113 0.0
C146 C 0.78687 0.94297 0.59737 0.0
C147 C 0.79088 0.92967 0.58926 0.0
C148 C 0.80807 0.88285 0.59038 0.0
C149 C 0.82221 0.87661 0.58676 0.0
C150 C 0.82121 0.85871 0.59122 0.0
C151 C 0.80592 0.8466 0.59934 0.0
C152 C 0.79137 0.85262 0.60267 0.0
C153 C 0.79237 0.87055 0.59814 0.0
C154 C 0.79536 0.89804 0.56785 0.0
C155 C 0.80254 0.91197 0.55823 0.0
C156 C 0.79175 0.90633 0.5456 0.0
C157 C 0.77355 0.88658 0.54235 0.0
C158 C 0.76618 0.87281 0.55215 0.0
C159 C 0.77694 0.87857 0.56483 0.0
P160 P 0.12504 0.84074 0.59412 0.0
H161 H 0.1293 0.8603 0.62076 0.0
H162 H 0.15013 0.89658 0.63121 0.0
H163 H 0.17499 0.91644 0.59423 0.0
H164 H 0.15448 0.88029 0.58395 0.0
H165 H 0.09212 0.79719 0.59335 0.0
H166 H 0.05566 0.78062 0.59802 0.0
H167 H 0.06182 0.84183 0.6053 0.0
H168 H 0.09822 0.85831 0.60047 0.0
H169 H 0.14839 0.82764 0.57771 0.0
H170 H 0.10592 0.85099 0.57216 0.0
O171 O 0.13486 0.82726 0.60109 0.0
H172 H 0.15227 0.82737 0.55413 0.0
H173 H 0.11014 0.85134 0.54856 0.0
C174 C 0.14005 0.86761 0.60154 0.0
C175 C 0.13917 0.87251 0.6149 0.0
C176 C 0.15101 0.89324 0.62084 0.0
C177 C 0.16416 0.90939 0.61353 0.0
C178 C 0.16515 0.90434 0.60016 0.0
C179 C 0.15325 0.88363 0.59423 0.0
C180 C 0.09801 0.82895 0.59695 0.0
C181 C 0.08559 0.80703 0.59591 0.0
C182 C 0.06472 0.79758 0.59846 0.0
C183 C 0.05595 0.80996 0.6021 0.0
C184 C 0.06827 0.83194 0.60268 0.0
C185 C 0.08909 0.84136 0.59998 0.0
C186 C 0.12665 0.83906 0.57662 0.0
C187 C 0.13976 0.83255 0.57139 0.0
C188 C 0.14212 0.8326 0.55791 0.0
C189 C 0.13155 0.83937 0.54945 0.0
C190 C 0.11825 0.84572 0.55475 0.0
C191 C 0.11586 0.84559 0.56824 0.0
P192 P 0.96224 0.49219 0.73729 0.0
H193 H 0.95862 0.4723 0.71087 0.0
H194 H 0.94157 0.43546 0.70133 0.0
H195 H 0.922 0.41555 0.73934 0.0
H196 H 0.93858 0.45221 0.74876 0.0
H197 H 0.96573 0.53224 0.74585 0.0
H198 H 0.94674 0.54956 0.73869 0.0
H199 H 0.90806 0.49644 0.70948 0.0
H200 H 0.9264 0.4789 0.71711 0.0
H201 H 0.99652 0.49797 0.75603 0.0
H202 H 0.93514 0.49006 0.75754 0.0
O203 O 0.98566 0.50529 0.73182 0.0
H204 H 0.00071 0.49925 0.78009 0.0
H205 H 0.939 0.49091 0.78157 0.0
C206 C 0.95002 0.46504 0.73053 0.0
C207 C 0.95067 0.45999 0.71714 0.0
C208 C 0.94087 0.439 0.71169 0.0
C209 C 0.93055 0.42273 0.71963 0.0
C210 C 0.93002 0.42782 0.73305 0.0
C211 C 0.9395 0.44881 0.73843 0.0
C212 C 0.94741 0.50421 0.73213 0.0
C213 C 0.953 0.52426 0.738 0.0
C214 C 0.94224 0.53422 0.7338 0.0
C215 C 0.92584 0.52444 0.72347 0.0
C216 C 0.92034 0.50432 0.7176 0.0
C217 C 0.93099 0.49429 0.7219 0.0
C218 C 0.96572 0.49438 0.75506 0.0
C219 C 0.98402 0.4967 0.76156 0.0
C220 C 0.98632 0.49725 0.7753 0.0
C221 C 0.97022 0.49526 0.78276 0.0
C222 C 0.95186 0.49289 0.77616 0.0
C223 C 0.94961 0.49236 0.76242 0.0
P224 P 0.57219 0.43569 0.76515 0.0
H225 H 0.56669 0.40726 0.74219 0.0
H226 H 0.53583 0.37929 0.7285 0.0
H227 H 0.4963 0.3936 0.75111 0.0
H228 H 0.52715 0.42157 0.76473 0.0
H229 H 0.60628 0.4768 0.77607 0.0
H230 H 0.63138 0.50728 0.76601 0.0
H231 H 0.59989 0.47585 0.72734 0.0
H232 H 0.57443 0.44575 0.7375 0.0
H233 H 0.57269 0.42293 0.79163 0.0
H234 H 0.55616 0.46365 0.77234 0.0
O235 O 0.58668 0.42476 0.76849 0.0
H236 H 0.5635 0.43252 0.81252 0.0
H237 H 0.54668 0.47316 0.79328 0.0
C238 C 0.54928 0.41647 0.75451 0.0
C239 C 0.55139 0.40453 0.74411 0.0
C240 C 0.53376 0.38862 0.73626 0.0
C241 C 0.51365 0.38424 0.73876 0.0
C242 C 0.5116 0.39651 0.74904 0.0
C243 C 0.52928 0.41259 0.75681 0.0
C244 C 0.58834 0.45906 0.75757 0.0
C245 C 0.6045 0.47665 0.76544 0.0
C246 C 0.61898 0.494 0.75966 0.0
C247 C 0.61776 0.49396 0.74585 0.0
C248 C 0.60116 0.47651 0.73801 0.0
C249 C 0.58661 0.45918 0.74382 0.0
C250 C 0.56529 0.44276 0.78049 0.0
C251 C 0.56716 0.43401 0.7919 0.0
C252 C 0.56197 0.43954 0.80384 0.0
C253 C 0.55451 0.45368 0.80452 0.0
C254 C 0.55234 0.46218 0.79301 0.0
C255 C 0.55781 0.45684 0.78109 0.0
P256 P 0.52734 0.05447 0.74986 0.0
H257 H 0.48934 0.03773 0.7316 0.0
H258 H 0.46893 0.05298 0.72345 0.0
H259 H 0.51229 0.11202 0.74661 0.0
H260 H 0.53245 0.09639 0.755 0.0
H261 H 0.54393 0.04228 0.72791 0.0
H262 H 0.57795 0.05895 0.71953 0.0
H263 H 0.59975 0.11207 0.74925 0.0
H264 H 0.56573 0.09477 0.7579 0.0
H265 H 0.50451 0.06127 0.7704 0.0
H266 H 0.55565 0.04949 0.76824 0.0
O267 O 0.51484 0.02898 0.74421 0.0
H268 H 0.50588 0.0588 0.79416 0.0
H269 H 0.55705 0.04694 0.79204 0.0
C270 C 0.51237 0.06592 0.74394 0.0
C271 C 0.49447 0.05394 0.73496 0.0
C272 C 0.48287 0.06274 0.73023 0.0
C273 C 0.48901 0.08376 0.73433 0.0
C274 C 0.50701 0.09574 0.74336 0.0
C275 C 0.51863 0.08688 0.74809 0.0
C276 C 0.55242 0.06718 0.74363 0.0
C277 C 0.55604 0.05747 0.73267 0.0
C278 C 0.57549 0.06715 0.7278 0.0
C279 C 0.59165 0.0869 0.7337 0.0
C280 C 0.58779 0.09673 0.74459 0.0
C281 C 0.56831 0.08694 0.74949 0.0
C282 C 0.5303 0.05602 0.7676 0.0
C283 C 0.51639 0.05869 0.77507 0.0
C284 C 0.51717 0.05726 0.78867 0.0
C285 C 0.53161 0.05273 0.79496 0.0
C286 C 0.54572 0.05038 0.78745 0.0
C287 C 0.54503 0.05198 0.77388 0.0
P288 P 0.7919 0.61012 0.92308 0.0
H289 H 0.77519 0.62474 0.94383 0.0
H290 H 0.74067 0.61001 0.95146 0.0
H291 H 0.71749 0.55627 0.9221 0.0
H292 H 0.75222 0.57126 0.91443 0.0
H293 H 0.82483 0.60591 0.91156 0.0
H294 H 0.8439 0.58832 0.91797 0.0
H295 H 0.80471 0.56333 0.94932 0.0
H296 H 0.78578 0.58112 0.94291 0.0
H297 H 0.80181 0.64644 0.90888 0.0
H298 H 0.77928 0.5804 0.89913 0.0
O299 O 0.80744 0.6338 0.93142 0.0
H300 H 0.80283 0.65135 0.88545 0.0
H301 H 0.78013 0.58521 0.87558 0.0
C302 C 0.76623 0.59918 0.92847 0.0
C303 C 0.76271 0.60982 0.93898 0.0
C304 C 0.74296 0.60131 0.9434 0.0
C305 C 0.72633 0.58195 0.9374 0.0
C306 C 0.72992 0.57133 0.92683 0.0
C307 C 0.74976 0.57985 0.92245 0.0
C308 C 0.80354 0.59441 0.92654 0.0
C309 C 0.81998 0.59622 0.91961 0.0
C310 C 0.83089 0.58615 0.92328 0.0
C311 C 0.82578 0.57437 0.93413 0.0
C312 C 0.80908 0.57237 0.94096 0.0
C313 C 0.79812 0.58238 0.93723 0.0
C314 C 0.79075 0.61311 0.90574 0.0
C315 C 0.79698 0.63296 0.9017 0.0
C316 C 0.7976 0.63577 0.88831 0.0
C317 C 0.79176 0.6187 0.87871 0.0
C318 C 0.78464 0.59862 0.88276 0.0
C319 C 0.78419 0.59587 0.8962 0.0
P320 P 0.46037 0.22651 0.92154 0.0
H321 H 0.47583 0.24673 0.94841 0.0
H322 H 0.47223 0.27333 0.96151 0.0
H323 H 0.43208 0.27366 0.9291 0.0
H324 H 0.43471 0.24611 0.91644 0.0
H325 H 0.46021 0.18912 0.91107 0.0
H326 H 0.45491 0.15769 0.92066 0.0
H327 H 0.43995 0.17918 0.95661 0.0
H328 H 0.44412 0.20996 0.94667 0.0
H329 H 0.47564 0.24503 0.89731 0.0
H330 H 0.4179 0.19674 0.90934 0.0
O331 O 0.48615 0.23843 0.92099 0.0
H332 H 0.45938 0.23752 0.8746 0.0
H333 H 0.40149 0.18893 0.88652 0.0
C334 C 0.45539 0.24425 0.93152 0.0
C335 C 0.46585 0.25219 0.94426 0.0
C336 C 0.46398 0.26762 0.95168 0.0
C337 C 0.45205 0.2759 0.94634 0.0
C338 C 0.44118 0.26751 0.93364 0.0
C339 C 0.44279 0.25178 0.92632 0.0
C340 C 0.45283 0.20203 0.92818 0.0
C341 C 0.45537 0.18685 0.92092 0.0
C342 C 0.45252 0.16897 0.92647 0.0
C343 C 0.4474 0.16608 0.93951 0.0
C344 C 0.44383 0.18085 0.94654 0.0
C345 C 0.44646 0.19866 0.94089 0.0
C346 C 0.44806 0.22115 0.90491 0.0
C347 C 0.45948 0.23271 0.89504 0.0
C348 C 0.45019 0.22835 0.88205 0.0
C349 C 0.42922 0.21247 0.87874 0.0
C350 C 0.41765 0.20129 0.88877 0.0
C351 C 0.42702 0.20563 0.90177 0.0
P352 P 0.80134 0.17708 0.93259 0.0
H353 H 0.80943 0.1969 0.95958 0.0
H354 H 0.8289 0.23365 0.96939 0.0
H355 H 0.84239 0.25364 0.93057 0.0
H356 H 0.82289 0.2171 0.92084 0.0
H357 H 0.77117 0.13265 0.93212 0.0
H358 H 0.73503 0.11344 0.93727 0.0
H359 H 0.73679 0.17233 0.94648 0.0
H360 H 0.77261 0.1913 0.94079 0.0
H361 H 0.83385 0.18043 0.91671 0.0
H362 H 0.77138 0.17009 0.90987 0.0
O363 O 0.81364 0.16573 0.9394 0.0
H364 H 0.83653 0.17988 0.89291 0.0
H365 H 0.77393 0.16945 0.88605 0.0
C366 C 0.81474 0.20422 0.93951 0.0
C367 C 0.81648 0.20923 0.95319 0.0
C368 C 0.82753 0.2302 0.95877 0.0
C369 C 0.83724 0.24648 0.95074 0.0
C370 C 0.83528 0.24139 0.93701 0.0
C371 C 0.82405 0.22045 0.93144 0.0
C372 C 0.7747 0.16336 0.93638 0.0
C373 C 0.76374 0.14138 0.93527 0.0
C374 C 0.74311 0.13044 0.93828 0.0
C375 C 0.73303 0.14132 0.94246 0.0
C376 C 0.74398 0.16341 0.94323 0.0
C377 C 0.76459 0.17432 0.94012 0.0
C378 C 0.8023 0.17491 0.91501 0.0
C379 C 0.82062 0.17776 0.91006 0.0
C380 C 0.82218 0.17761 0.89649 0.0
C381 C 0.80541 0.17457 0.88763 0.0
C382 C 0.78699 0.17154 0.89263 0.0
C383 C 0.78552 0.1719 0.90624 0.0
P384 P 0.64006 0.83038 0.06997 0.0
H385 H 0.64628 0.80827 0.04738 0.0
H386 H 0.6274 0.77142 0.03779 0.0
H387 H 0.58458 0.75629 0.06755 0.0
H388 H 0.60358 0.79304 0.07713 0.0
H389 H 0.65311 0.86743 0.05572 0.0
H390 H 0.63431 0.88399 0.04682 0.0
H391 H 0.57802 0.83739 0.06154 0.0
H392 H 0.59684 0.82074 0.07021 0.0
H393 H 0.65442 0.811 0.08851 0.0
H394 H 0.62947 0.85268 0.09048 0.0
O395 O 0.66436 0.84224 0.06571 0.0
H396 H 0.65588 0.8113 0.11251 0.0
H397 H 0.63018 0.85248 0.1144 0.0
C398 C 0.62646 0.8033 0.06304 0.0
C399 C 0.63291 0.79699 0.05188 0.0
C400 C 0.62214 0.77596 0.04642 0.0
C401 C 0.60454 0.76101 0.05194 0.0
C402 C 0.59798 0.7675 0.06302 0.0
C403 C 0.60887 0.78847 0.06853 0.0
C404 C 0.62632 0.84277 0.06354 0.0
C405 C 0.63672 0.86075 0.05701 0.0
C406 C 0.62598 0.87029 0.05199 0.0
C407 C 0.60464 0.86199 0.05344 0.0
C408 C 0.59434 0.84399 0.06006 0.0
C409 C 0.6051 0.83447 0.06506 0.0
C410 C 0.64155 0.83153 0.08769 0.0
C411 C 0.64916 0.82014 0.09412 0.0
C412 C 0.64985 0.82022 0.10782 0.0
C413 C 0.64294 0.83175 0.11538 0.0
C414 C 0.63575 0.84355 0.1089 0.0
C415 C 0.63515 0.84351 0.09517 0.0
P416 P 0.24105 0.76824 0.10112 0.0
H417 H 0.22953 0.7265 0.08906 0.0
H418 H 0.19981 0.70018 0.07395 0.0
H419 H 0.17503 0.74205 0.07251 0.0
H420 H 0.20493 0.76839 0.08785 0.0
H421 H 0.27937 0.77414 0.09116 0.0
H422 H 0.30526 0.80112 0.07919 0.0
H423 H 0.26948 0.8327 0.07881 0.0
H424 H 0.24334 0.80526 0.09063 0.0
H425 H 0.20212 0.75275 0.11348 0.0
H426 H 0.26356 0.80795 0.11825 0.0
O427 O 0.25229 0.75622 0.10838 0.0
H428 H 0.19323 0.76617 0.13306 0.0
H429 H 0.25471 0.82154 0.13783 0.0
C430 C 0.21919 0.7492 0.08976 0.0
C431 C 0.2177 0.73003 0.08553 0.0
C432 C 0.20077 0.71505 0.0768 0.0
C433 C 0.18503 0.71901 0.07204 0.0
C434 C 0.18677 0.73844 0.07613 0.0
C435 C 0.20383 0.7535 0.08485 0.0
C436 C 0.25971 0.788 0.09202 0.0
C437 C 0.27711 0.7869 0.08854 0.0
C438 C 0.29195 0.80239 0.08174 0.0
C439 C 0.2896 0.81924 0.07821 0.0
C440 C 0.27174 0.81991 0.08136 0.0
C441 C 0.25687 0.80435 0.08818 0.0
C442 C 0.23329 0.77964 0.11416 0.0
C443 C 0.2135 0.76805 0.1185 0.0
C444 C 0.20843 0.77573 0.12972 0.0
C445 C 0.22324 0.79497 0.13695 0.0
C446 C 0.24299 0.80665 0.13248 0.0
C447 C 0.24799 0.79899 0.12122 0.0
P448 P 0.19996 0.3971 0.08646 0.0
H449 H 0.16816 0.38374 0.06399 0.0
H450 H 0.14679 0.39789 0.05577 0.0
H451 H 0.17675 0.4492 0.08716 0.0
H452 H 0.19776 0.43455 0.09555 0.0
H453 H 0.23484 0.39036 0.09127 0.0
H454 H 0.27029 0.4077 0.0849 0.0
H455 H 0.25962 0.45417 0.06803 0.0
H456 H 0.22394 0.43623 0.07403 0.0
H457 H 0.1763 0.36166 0.10137 0.0
H458 H 0.22112 0.42786 0.10992 0.0
O459 O 0.1902 0.37299 0.07864 0.0
H460 H 0.1753 0.35828 0.12502 0.0
H461 H 0.21974 0.42462 0.13369 0.0
C462 C 0.18438 0.40792 0.0805 0.0
C463 C 0.17009 0.39798 0.06917 0.0
C464 C 0.15798 0.40622 0.06439 0.0
C465 C 0.16004 0.42473 0.07078 0.0
C466 C 0.17453 0.43476 0.08211 0.0
C467 C 0.18661 0.42643 0.0869 0.0
C468 C 0.22675 0.41194 0.0831 0.0
C469 C 0.24024 0.40441 0.08632 0.0
C470 C 0.26058 0.41446 0.08274 0.0
C471 C 0.26787 0.43235 0.07591 0.0
C472 C 0.25445 0.44026 0.0731 0.0
C473 C 0.23404 0.43009 0.07662 0.0
C474 C 0.19888 0.39499 0.1039 0.0
C475 C 0.18591 0.37548 0.10833 0.0
C476 C 0.18538 0.37354 0.12184 0.0
C477 C 0.19753 0.39117 0.13115 0.0
C478 C 0.21017 0.41082 0.1267 0.0
C479 C 0.21096 0.41267 0.11315 0.0
P480 P 0.4566 0.9414 0.25364 0.0
H481 H 0.43733 0.95933 0.27019 0.0
H482 H 0.40293 0.94461 0.27792 0.0
H483 H 0.38533 0.88388 0.25767 0.0
H484 H 0.41985 0.89905 0.24961 0.0
H485 H 0.49465 0.94406 0.24553 0.0
H486 H 0.51537 0.92852 0.25279 0.0
H487 H 0.47072 0.89531 0.28005 0.0
H488 H 0.45018 0.91106 0.27283 0.0
H489 H 0.44777 0.96743 0.23741 0.0
H490 H 0.45733 0.91469 0.23107 0.0
O491 O 0.47114 0.96635 0.2603 0.0
H492 H 0.44529 0.96929 0.21364 0.0
H493 H 0.4563 0.91725 0.20739 0.0
C494 C 0.43121 0.93019 0.25948 0.0
C495 C 0.42613 0.94284 0.26743 0.0
C496 C 0.40643 0.93434 0.2719 0.0
C497 C 0.39138 0.91298 0.26854 0.0
C498 C 0.39647 0.90041 0.26038 0.0
C499 C 0.41622 0.90899 0.25585 0.0
C500 C 0.47055 0.92826 0.25834 0.0
C501 C 0.48912 0.93313 0.2529 0.0
C502 C 0.50094 0.92422 0.25705 0.0
C503 C 0.49461 0.91055 0.26693 0.0
C504 C 0.47604 0.90581 0.27244 0.0
C505 C 0.46416 0.91466 0.26822 0.0
C506 C 0.45343 0.9414 0.23602 0.0
C507 C 0.44952 0.95636 0.23088 0.0
C508 C 0.44825 0.95748 0.21727 0.0
C509 C 0.45102 0.94371 0.20853 0.0
C510 C 0.454 0.92809 0.21375 0.0
C511 C 0.45491 0.92679 0.22736 0.0
P512 P 0.12168 0.55583 0.25026 0.0
H513 H 0.14681 0.58289 0.27397 0.0
H514 H 0.14663 0.61151 0.28719 0.0
H515 H 0.09406 0.60278 0.26115 0.0
H516 H 0.09356 0.57332 0.24854 0.0
H517 H 0.11961 0.51649 0.24191 0.0
H518 H 0.11716 0.48786 0.25393 0.0
H519 H 0.11091 0.51792 0.28972 0.0
H520 H 0.11281 0.54617 0.27765 0.0
H521 H 0.12596 0.57485 0.22582 0.0
H522 H 0.07967 0.51968 0.24161 0.0
O523 O 0.14611 0.56626 0.24633 0.0
H524 H 0.10352 0.56436 0.20497 0.0
H525 H 0.05707 0.50903 0.22071 0.0
C526 C 0.12027 0.57601 0.26028 0.0
C527 C 0.1351 0.58701 0.27122 0.0
C528 C 0.13508 0.60353 0.27869 0.0
C529 C 0.12049 0.60973 0.27518 0.0
C530 C 0.10539 0.59836 0.26428 0.0
C531 C 0.1052 0.58156 0.25696 0.0
C532 C 0.11656 0.53354 0.25888 0.0
C533 C 0.11729 0.51669 0.25228 0.0
C534 C 0.11583 0.50034 0.25913 0.0
C535 C 0.11397 0.50079 0.27275 0.0
C536 C 0.11252 0.51733 0.27924 0.0
C537 C 0.11367 0.53352 0.27233 0.0
C538 C 0.10467 0.5478 0.23511 0.0
C539 C 0.11097 0.56043 0.22477 0.0
C540 C 0.09806 0.5545 0.21291 0.0
C541 C 0.07857 0.53582 0.2112 0.0
C542 C 0.07213 0.52335 0.22169 0.0
C543 C 0.08502 0.52942 0.23362 0.0
P544 P 0.46313 0.50864 0.26134 0.0
H545 H 0.49417 0.53002 0.28438 0.0
H546 H 0.51437 0.5668 0.2939 0.0
H547 H 0.48401 0.58354 0.26354 0.0
H548 H 0.46393 0.54673 0.254 0.0
H549 H 0.43263 0.46449 0.26167 0.0
H550 H 0.39716 0.44607 0.26806 0.0
H551 H 0.39981 0.50556 0.27635 0.0
H552 H 0.4354 0.52383 0.27027 0.0
H553 H 0.49146 0.50601 0.24384 0.0
H554 H 0.4351 0.5094 0.24009 0.0
O555 O 0.47491 0.49608 0.26705 0.0
H556 H 0.49229 0.50534 0.21992 0.0
H557 H 0.43576 0.50863 0.21608 0.0
C558 C 0.47774 0.5357 0.26839 0.0
C559 C 0.49192 0.5416 0.27973 0.0
C560 C 0.50348 0.56262 0.28515 0.0
C561 C 0.50081 0.57803 0.27942 0.0
C562 C 0.4863 0.57198 0.26819 0.0
C563 C 0.47493 0.55098 0.26269 0.0
C564 C 0.43681 0.49552 0.26575 0.0
C565 C 0.42557 0.47355 0.2649 0.0
C566 C 0.40521 0.46303 0.26844 0.0
C567 C 0.39565 0.47434 0.27278 0.0
C568 C 0.40683 0.49639 0.27327 0.0
C569 C 0.42722 0.50688 0.26976 0.0
C570 C 0.463 0.50733 0.24368 0.0
C571 C 0.47912 0.50636 0.23784 0.0
C572 C 0.47955 0.50593 0.22416 0.0
C573 C 0.46399 0.50675 0.21611 0.0
C574 C 0.44799 0.50803 0.22204 0.0
C575 C 0.44751 0.50832 0.23573 0.0
C576 C 0.52381 0.00855 0.04017 0.0
Eu577 Eu 0.50877 0.00466 0.01579 0.0
C578 C 0.51463 0.00173 0.05262 0.0
C579 C 0.50011 0.00692 0.0572 0.0
C580 C 0.49138 4e-05 0.06891 0.0
C581 C 0.49678 0.98762 0.07619 0.0
C582 C 0.51112 0.98226 0.07152 0.0
C583 C 0.52002 0.98932 0.05987 0.0
C584 C 0.49268 0.02697 0.00554 0.0
C585 C 0.45914 0.96826 0.01269 0.0
C586 C 0.46825 0.98111 0.9641 0.0
Eu587 Eu 0.48444 0.98662 0.98842 0.0
C588 C 0.4763 0.98689 0.95129 0.0
C589 C 0.46524 0.97345 0.93973 0.0
C590 C 0.47255 0.97893 0.92747 0.0
C591 C 0.49103 0.99797 0.92659 0.0
C592 C 0.50232 0.01117 0.93822 0.0
C593 C 0.49499 0.00568 0.95047 0.0
C594 C 0.50106 0.96481 0.99886 0.0
C595 C 0.5345 0.02271 0.99158 0.0
O596 O 0.52108 0.99355 0.03128 0.0
O597 O 0.52145 0.02311 0.03504 0.0
O598 O 0.51052 0.03548 0.01277 0.0
O599 O 0.48359 0.0072 0.00473 0.0
O600 O 0.47756 0.97748 0.01982 0.0
O601 O 0.4571 0.97173 0.00031 0.0
O602 O 0.47131 0.99656 0.97273 0.0
O603 O 0.47169 0.96732 0.96939 0.0
O604 O 0.48296 0.95587 0.99189 0.0
O605 O 0.50973 0.98447 0.99938 0.0
O606 O 0.51619 0.01327 0.98422 0.0
O607 O 0.53618 0.01971 0.00411 0.0
H608 H 0.49543 0.01625 0.05174 0.0
H609 H 0.48029 0.00432 0.07221 0.0
H610 H 0.51576 0.97291 0.07699 0.0
H611 H 0.53112 0.98506 0.05651 0.0
H612 H 0.45082 0.95885 0.94019 0.0
H613 H 0.46347 0.96854 0.91864 0.0
H614 H 0.51667 0.02586 0.93784 0.0
H615 H 0.50368 0.01633 0.95926 0.0
C616 C 0.98924 0.5215 0.03694 0.0
Eu617 Eu 0.98814 0.50449 0.01349 0.0
C618 C 0.99251 0.51862 0.05077 0.0
C619 C 0.98708 0.52852 0.06063 0.0
C620 C 0.99033 0.52625 0.07389 0.0
C621 C 0.99919 0.51409 0.07751 0.0
C622 C 0.00433 0.5039 0.06752 0.0
C623 C 0.00095 0.50611 0.05424 0.0
C624 C 0.96232 0.46377 0.00363 0.0
C625 C 0.02109 0.48738 0.01274 0.0
C626 C 0.99569 0.47389 0.96344 0.0
Eu627 Eu 0.99765 0.49155 0.98686 0.0
C628 C 0.99216 0.47632 0.94952 0.0
C629 C 0.99508 0.4954 0.94567 0.0
C630 C 0.99261 0.49763 0.93227 0.0
C631 C 0.98712 0.48077 0.92254 0.0
C632 C 0.9837 0.46154 0.92655 0.0
C633 C 0.98625 0.45937 0.93991 0.0
C634 C 0.02398 0.53202 0.99683 0.0
C635 C 0.96527 0.50944 0.98772 0.0
O636 O 0.00549 0.52814 0.03027 0.0
O637 O 0.97206 0.50659 0.03017 0.0
O638 O 0.95627 0.47471 0.01055 0.0
O639 O 0.98171 0.47414 0.00317 0.0
O640 O 0.01482 0.49882 0.01944 0.0
O641 O 0.01384 0.47978 0.00025 0.0
O642 O 0.97962 0.46758 0.97025 0.0
O643 O 0.01307 0.48879 0.97004 0.0
O644 O 0.02969 0.52089 0.98977 0.0
O645 O 0.00454 0.52199 0.99728 0.0
O646 O 0.97137 0.49793 0.98092 0.0
O647 O 0.97249 0.51677 0.00022 0.0
H648 H 0.98037 0.53808 0.05808 0.0
H649 H 0.98586 0.534 0.08131 0.0
H650 H 0.01136 0.4946 0.06997 0.0
H651 H 0.00507 0.49822 0.04669 0.0
H652 H 0.99957 0.50864 0.953 0.0
H653 H 0.9955 0.51269 0.92953 0.0
H654 H 0.97905 0.44812 0.91935 0.0
H655 H 0.98378 0.44448 0.94274 0.0
C656 C 0.46686 0.48791 0.96708 0.0
Eu657 Eu 0.48346 0.5023 0.9914 0.0
C658 C 0.47469 0.48683 0.95432 0.0
C659 C 0.46561 0.48991 0.94289 0.0
C660 C 0.47315 0.48942 0.93073 0.0
C661 C 0.48991 0.48572 0.92976 0.0
C662 C 0.4991 0.48286 0.94133 0.0
C663 C 0.49158 0.48344 0.95348 0.0
C664 C 0.4989 0.54217 0.00246 0.0
C665 C 0.53356 0.51816 0.99335 0.0
C666 C 0.52499 0.53004 0.04236 0.0
Eu667 Eu 0.50897 0.51367 0.01824 0.0
C668 C 0.51653 0.52699 0.0552 0.0
C669 C 0.49972 0.50749 0.05745 0.0
C670 C 0.49179 0.50476 0.06969 0.0
C671 C 0.50035 0.52156 0.07981 0.0
C672 C 0.51682 0.54121 0.0774 0.0
C673 C 0.52488 0.54387 0.06519 0.0
C674 C 0.49458 0.47398 0.00744 0.0
C675 C 0.45833 0.49609 0.01638 0.0
O676 O 0.46817 0.47622 0.97575 0.0
O677 O 0.47216 0.50674 0.97234 0.0
O678 O 0.48046 0.53113 0.99598 0.0
O679 O 0.50839 0.53207 0.00237 0.0
O680 O 0.51496 0.50702 0.98642 0.0
O681 O 0.53566 0.52552 0.00584 0.0
O682 O 0.51805 0.53869 0.03421 0.0
O683 O 0.52597 0.51425 0.03654 0.0
O684 O 0.51238 0.4851 0.0147 0.0
O685 O 0.48456 0.48361 0.00711 0.0
O686 O 0.47667 0.50547 0.02363 0.0
O687 O 0.45639 0.49128 0.00348 0.0
H688 H 0.45272 0.49282 0.94338 0.0
H689 H 0.46597 0.49217 0.92213 0.0
H690 H 0.51182 0.4797 0.941 0.0
H691 H 0.49889 0.48107 0.9622 0.0
H692 H 0.49278 0.49435 0.04976 0.0
H693 H 0.47894 0.48952 0.07124 0.0
H694 H 0.52382 0.55437 0.08507 0.0
H695 H 0.53771 0.55908 0.06357 0.0
C696 C 0.19158 0.34445 0.37554 0.0
Eu697 Eu 0.17512 0.34112 0.35162 0.0
C698 C 0.18413 0.33789 0.38844 0.0
C699 C 0.19019 0.35326 0.39922 0.0
C700 C 0.18337 0.34757 0.41154 0.0
C701 C 0.17052 0.32632 0.41341 0.0
C702 C 0.16439 0.31092 0.40257 0.0
C703 C 0.17108 0.31664 0.3902 0.0
C704 C 0.15954 0.3644 0.34239 0.0
C705 C 0.125 0.30551 0.34861 0.0
C706 C 0.13395 0.32209 0.30022 0.0
Eu707 Eu 0.14993 0.3244 0.32413 0.0
C708 C 0.14246 0.32989 0.28783 0.0
C709 C 0.16247 0.33395 0.2854 0.0
C710 C 0.1706 0.34192 0.27373 0.0
C711 C 0.15883 0.346 0.2643 0.0
C712 C 0.1389 0.34215 0.26688 0.0
C713 C 0.1308 0.33418 0.27855 0.0
C714 C 0.16555 0.30125 0.33362 0.0
C715 C 0.20023 0.35941 0.32706 0.0
O716 O 0.18836 0.32968 0.36628 0.0
O717 O 0.18833 0.35887 0.37106 0.0
O718 O 0.17744 0.37241 0.3495 0.0
O719 O 0.15026 0.34462 0.34114 0.0
O720 O 0.14343 0.31474 0.35579 0.0
O721 O 0.12293 0.30875 0.33616 0.0
O722 O 0.13722 0.33659 0.30965 0.0
O723 O 0.13692 0.30735 0.30449 0.0
O724 O 0.14759 0.293 0.32651 0.0
O725 O 0.17474 0.321 0.3346 0.0
O726 O 0.18196 0.34986 0.31972 0.0
O727 O 0.20216 0.35688 0.33966 0.0
H728 H 0.20017 0.36974 0.39809 0.0
H729 H 0.18807 0.35991 0.41957 0.0
H730 H 0.1547 0.2944 0.40367 0.0
H731 H 0.16608 0.30441 0.38205 0.0
H732 H 0.1718 0.33097 0.29254 0.0
H733 H 0.18611 0.34501 0.27211 0.0
H734 H 0.12937 0.34493 0.25975 0.0
H735 H 0.11541 0.33132 0.28032 0.0
C736 C 0.65143 0.8473 0.37044 0.0
Eu737 Eu 0.652 0.83354 0.34636 0.0
C738 C 0.65973 0.84724 0.38383 0.0
C739 C 0.65025 0.8499 0.39466 0.0
C740 C 0.65822 0.85028 0.4075 0.0
C741 C 0.67584 0.848 0.40969 0.0
C742 C 0.68502 0.8449 0.39874 0.0
C743 C 0.67707 0.8446 0.38593 0.0
C744 C 0.62593 0.79432 0.33421 0.0
C745 C 0.68487 0.81633 0.34495 0.0
C746 C 0.66208 0.80847 0.29563 0.0
Eu747 Eu 0.66315 0.82349 0.31966 0.0
C748 C 0.65825 0.81192 0.28189 0.0
C749 C 0.67133 0.83099 0.27691 0.0
C750 C 0.66816 0.83341 0.26366 0.0
C751 C 0.6518 0.81686 0.25511 0.0
C752 C 0.63846 0.79799 0.26021 0.0
C753 C 0.64172 0.79553 0.27345 0.0
C754 C 0.68977 0.8627 0.33152 0.0
C755 C 0.63073 0.84156 0.32113 0.0
O756 O 0.66516 0.85863 0.36262 0.0
O757 O 0.63692 0.82907 0.3645 0.0
O758 O 0.61952 0.80528 0.34078 0.0
O759 O 0.64552 0.80409 0.33479 0.0
O760 O 0.67856 0.82746 0.35197 0.0
O761 O 0.67818 0.80986 0.33231 0.0
O762 O 0.64597 0.80053 0.30245 0.0
O763 O 0.67922 0.82307 0.30264 0.0
O764 O 0.69556 0.85187 0.32423 0.0
O765 O 0.67018 0.85312 0.33132 0.0
O766 O 0.63809 0.83168 0.31386 0.0
O767 O 0.63598 0.84639 0.334 0.0
H768 H 0.63683 0.85196 0.3932 0.0
H769 H 0.65096 0.85297 0.41572 0.0
H770 H 0.69849 0.8429 0.40009 0.0
H771 H 0.68464 0.84266 0.37767 0.0
H772 H 0.68425 0.84393 0.28317 0.0
H773 H 0.6789 0.84806 0.26003 0.0
H774 H 0.62551 0.78504 0.25397 0.0
H775 H 0.63142 0.78069 0.27705 0.0
C776 C 0.13294 0.81828 0.29962 0.0
Eu777 Eu 0.1494 0.83324 0.32392 0.0
C778 C 0.14145 0.82004 0.28686 0.0
C779 C 0.16267 0.83398 0.28591 0.0
C780 C 0.17085 0.83499 0.27382 0.0
C781 C 0.1579 0.82207 0.26247 0.0
C782 C 0.13655 0.80836 0.26348 0.0
C783 C 0.12841 0.80744 0.27557 0.0
C784 C 0.16506 0.87362 0.33421 0.0
C785 C 0.1994 0.8496 0.32568 0.0
C786 C 0.19293 0.86282 0.37452 0.0
Eu787 Eu 0.17513 0.84576 0.35071 0.0
C788 C 0.18671 0.86071 0.38795 0.0
C789 C 0.16757 0.84382 0.39052 0.0
C790 C 0.16199 0.84185 0.40341 0.0
C791 C 0.17548 0.85679 0.41393 0.0
C792 C 0.19452 0.87384 0.41121 0.0
C793 C 0.20007 0.87576 0.39833 0.0
C794 C 0.16089 0.8058 0.3404 0.0
C795 C 0.12447 0.8277 0.34891 0.0
O796 O 0.13754 0.80791 0.3078 0.0
O797 O 0.13484 0.83554 0.30542 0.0
O798 O 0.14669 0.86243 0.32768 0.0
O799 O 0.17446 0.86345 0.33445 0.0
O800 O 0.18075 0.83768 0.319 0.0
O801 O 0.20152 0.85784 0.33796 0.0
O802 O 0.18465 0.87076 0.36676 0.0
O803 O 0.19322 0.84672 0.3686 0.0
O804 O 0.17883 0.81733 0.34741 0.0
O805 O 0.15069 0.81524 0.33999 0.0
O806 O 0.14297 0.83863 0.35599 0.0
O807 O 0.1226 0.82124 0.33626 0.0
H808 H 0.17293 0.84407 0.29451 0.0
H809 H 0.18727 0.84599 0.27337 0.0
H810 H 0.12618 0.79797 0.255 0.0
H811 H 0.11197 0.79667 0.27615 0.0
H812 H 0.15704 0.83208 0.38257 0.0
H813 H 0.14732 0.82844 0.40518 0.0
H814 H 0.20509 0.88581 0.41903 0.0
H815 H 0.21484 0.88898 0.39647 0.0
C816 C 0.85802 0.68458 0.70867 0.0
Eu817 Eu 0.84093 0.67673 0.68441 0.0
C818 C 0.85099 0.67772 0.72153 0.0
C819 C 0.86006 0.69218 0.73287 0.0
C820 C 0.8532 0.68627 0.74515 0.0
C821 C 0.83716 0.66568 0.74635 0.0
C822 C 0.82791 0.65129 0.73487 0.0
C823 C 0.83479 0.65725 0.72258 0.0
C824 C 0.82839 0.70023 0.67196 0.0
C825 C 0.79068 0.64208 0.68246 0.0
C826 C 0.79886 0.65046 0.63304 0.0
Eu827 Eu 0.81511 0.6566 0.65737 0.0
C828 C 0.80658 0.65978 0.62081 0.0
C829 C 0.79822 0.64723 0.60868 0.0
C830 C 0.80588 0.65545 0.59699 0.0
C831 C 0.82212 0.6764 0.59721 0.0
C832 C 0.83032 0.68907 0.6094 0.0
C833 C 0.82265 0.6808 0.62112 0.0
C834 C 0.8289 0.63368 0.66952 0.0
C835 C 0.8653 0.69101 0.65929 0.0
O836 O 0.85787 0.67059 0.7 0.0
O837 O 0.85099 0.69587 0.70347 0.0
O838 O 0.84628 0.70805 0.67904 0.0
O839 O 0.81757 0.68069 0.67241 0.0
O840 O 0.80926 0.65143 0.68945 0.0
O841 O 0.7884 0.64383 0.66975 0.0
O842 O 0.79729 0.66257 0.64231 0.0
O843 O 0.80675 0.6395 0.63765 0.0
O844 O 0.81084 0.62535 0.66252 0.0
O845 O 0.83906 0.65325 0.66913 0.0
O846 O 0.84676 0.68176 0.65229 0.0
O847 O 0.86759 0.68922 0.67199 0.0
H848 H 0.87238 0.70814 0.73221 0.0
H849 H 0.86034 0.69799 0.75367 0.0
H850 H 0.81565 0.63528 0.73538 0.0
H851 H 0.82753 0.64585 0.71391 0.0
H852 H 0.78582 0.63101 0.60825 0.0
H853 H 0.79898 0.6454 0.58774 0.0
H854 H 0.84291 0.70521 0.6099 0.0
H855 H 0.8294 0.69076 0.63042 0.0
C856 C 0.31916 0.18019 0.70383 0.0
Eu857 Eu 0.31798 0.16538 0.6797 0.0
C858 C 0.32787 0.18044 0.71729 0.0
C859 C 0.31428 0.16932 0.72651 0.0
C860 C 0.32205 0.16995 0.73944 0.0
C861 C 0.34361 0.18192 0.7435 0.0
C862 C 0.35725 0.19292 0.73422 0.0
C863 C 0.34948 0.19218 0.72125 0.0
C864 C 0.29126 0.12567 0.66845 0.0
C865 C 0.35059 0.14805 0.6781 0.0
C866 C 0.32551 0.1375 0.62893 0.0
Eu867 Eu 0.3277 0.15377 0.65281 0.0
C868 C 0.32161 0.14102 0.61532 0.0
C869 C 0.32436 0.16047 0.61237 0.0
C870 C 0.32134 0.16374 0.59926 0.0
C871 C 0.31533 0.14755 0.58896 0.0
C872 C 0.31218 0.12796 0.59205 0.0
C873 C 0.31533 0.12476 0.60512 0.0
C874 C 0.35495 0.19326 0.66397 0.0
C875 C 0.29607 0.17279 0.65452 0.0
O876 O 0.33232 0.19109 0.6956 0.0
O877 O 0.30395 0.16207 0.69818 0.0
O878 O 0.28537 0.13693 0.67521 0.0
O879 O 0.31079 0.13536 0.6685 0.0
O880 O 0.34502 0.15999 0.68494 0.0
O881 O 0.3428 0.14041 0.66569 0.0
O882 O 0.30959 0.13054 0.6359 0.0
O883 O 0.34296 0.15209 0.63564 0.0
O884 O 0.36035 0.18202 0.65673 0.0
O885 O 0.33542 0.18386 0.66408 0.0
O886 O 0.30285 0.16233 0.64725 0.0
O887 O 0.3018 0.17807 0.66733 0.0
H888 H 0.29756 0.16021 0.72373 0.0
H889 H 0.31112 0.16103 0.74626 0.0
H890 H 0.37392 0.20254 0.73705 0.0
H891 H 0.36039 0.20103 0.7144 0.0
H892 H 0.32903 0.17314 0.62017 0.0
H893 H 0.32366 0.17891 0.59719 0.0
H894 H 0.30777 0.11527 0.58431 0.0
H895 H 0.31311 0.10965 0.60726 0.0
C896 C 0.80222 0.14761 0.63455 0.0
Eu897 Eu 0.8171 0.16404 0.6589 0.0
C898 C 0.81082 0.14919 0.6218 0.0
C899 C 0.79816 0.14574 0.61009 0.0
C900 C 0.80617 0.14731 0.5979 0.0
C901 C 0.827 0.15228 0.59723 0.0
C902 C 0.83962 0.15574 0.60903 0.0
C903 C 0.83165 0.15437 0.6212 0.0
C904 C 0.83333 0.20513 0.6679 0.0
C905 C 0.86676 0.17945 0.66329 0.0
C906 C 0.8556 0.19538 0.71078 0.0
Eu907 Eu 0.84005 0.17746 0.6868 0.0
C908 C 0.84925 0.19277 0.72423 0.0
C909 C 0.83852 0.17283 0.72868 0.0
C910 C 0.83331 0.17085 0.74166 0.0
C911 C 0.8386 0.18875 0.7504 0.0
C912 C 0.84892 0.20863 0.74577 0.0
C913 C 0.85423 0.2106 0.73283 0.0
C914 C 0.82471 0.1366 0.67795 0.0
C915 C 0.78973 0.16078 0.68234 0.0
O916 O 0.80763 0.1385 0.64326 0.0
O917 O 0.80267 0.16451 0.63975 0.0
O918 O 0.81583 0.19424 0.66037 0.0
O919 O 0.84189 0.19437 0.66959 0.0
O920 O 0.84867 0.16727 0.65604 0.0
O921 O 0.86776 0.18865 0.67508 0.0
O922 O 0.8459 0.20159 0.70272 0.0
O923 O 0.85863 0.18085 0.70507 0.0
O924 O 0.84182 0.1477 0.68582 0.0
O925 O 0.81569 0.14693 0.67607 0.0
O926 O 0.8076 0.17182 0.69008 0.0
O927 O 0.78905 0.15334 0.67007 0.0
H928 H 0.78204 0.14174 0.61037 0.0
H929 H 0.79594 0.14424 0.58899 0.0
H930 H 0.8557 0.15961 0.6089 0.0
H931 H 0.84171 0.15723 0.63013 0.0
H932 H 0.83437 0.1588 0.72219 0.0
H933 H 0.82556 0.15532 0.74491 0.0
H934 H 0.85287 0.22271 0.75214 0.0
H935 H 0.86235 0.2261 0.72955 0.0
H936 H 0.28428 0.8388 0.05758 0.0
H937 H 0.31147 0.86602 0.04625 0.0
H938 H 0.35891 0.86458 0.07199 0.0
H939 H 0.33193 0.83798 0.08361 0.0
H940 H 0.36946 0.9041 0.06873 0.0
H941 H 0.34395 0.83919 0.04053 0.0
H942 H 0.31709 0.80672 0.02705 0.0
H943 H 0.30234 0.84309 0.00203 0.0
H944 H 0.32894 0.87577 0.01549 0.0
H945 H 0.45838 0.94971 0.03496 0.0
H946 H 0.42808 0.92602 0.04555 0.0
H947 H 0.38747 0.93083 0.01565 0.0
H948 H 0.4179 0.95403 0.00462 0.0
H949 H 0.37133 0.89175 0.02056 0.0
H950 H 0.39923 0.95725 0.04823 0.0
H951 H 0.42674 0.9893 0.06179 0.0
H952 H 0.43771 0.95156 0.0877 0.0
H953 H 0.41037 0.91934 0.07433 0.0
C954 C 0.30051 0.84446 0.06092 0.0
C955 C 0.30593 0.8361 0.07143 0.0
C956 C 0.31602 0.85988 0.05436 0.0
C957 C 0.33722 0.86715 0.05817 0.0
C958 C 0.34266 0.85916 0.06885 0.0
C959 C 0.3272 0.8438 0.0754 0.0
C960 C 0.35386 0.88285 0.05099 0.0
C961 C 0.36993 0.90136 0.05821 0.0
C962 C 0.35422 0.87952 0.0372 0.0
C963 C 0.33826 0.85989 0.0291 0.0
C964 C 0.33486 0.84024 0.03222 0.0
C965 C 0.31971 0.82181 0.02457 0.0
C966 C 0.30797 0.82284 0.01372 0.0
C967 C 0.31141 0.84231 0.01046 0.0
C968 C 0.32653 0.8608 0.01809 0.0
C969 C 0.44302 0.9458 0.03063 0.0
C970 C 0.44054 0.95386 0.01898 0.0
C971 C 0.42568 0.93233 0.03676 0.0
C972 C 0.40548 0.92702 0.0316 0.0
C973 C 0.40291 0.93482 0.01987 0.0
C974 C 0.42029 0.94808 0.01358 0.0
C975 C 0.38713 0.91291 0.03834 0.0
C976 C 0.37072 0.89469 0.03104 0.0
C977 C 0.38648 0.91648 0.05207 0.0
C978 C 0.40278 0.93588 0.06025 0.0
C979 C 0.40756 0.9558 0.0568 0.0
C980 C 0.42313 0.974 0.06447 0.0
C981 C 0.43398 0.97246 0.07561 0.0
C982 C 0.42932 0.95274 0.07909 0.0
C983 C 0.41372 0.9345 0.07151 0.0
H984 H 0.44591 0.98654 0.0816 0.0
H985 H 0.29625 0.80854 0.00781 0.0
H986 H 0.14128 0.44251 0.08487 0.0
H987 H 0.11912 0.45572 0.07621 0.0
H988 H 0.12655 0.43902 0.03639 0.0
H989 H 0.14945 0.42672 0.04495 0.0
H990 H 0.12906 0.47596 0.03821 0.0
H991 H 0.082 0.40802 0.05164 0.0
H992 H 0.06777 0.38128 0.06721 0.0
H993 H 0.05585 0.42214 0.09247 0.0
H994 H 0.07026 0.44924 0.07712 0.0
H995 H 0.04128 0.46876 0.00167 0.0
H996 H 0.06603 0.46065 0.0128 0.0
H997 H 0.05938 0.4862 0.05023 0.0
H998 H 0.03467 0.49454 0.03918 0.0
H999 H 0.05728 0.44741 0.05114 0.0
H1000 H 0.10197 0.51426 0.0367 0.0
H1001 H 0.11539 0.54045 0.02075 0.0
H1002 H 0.13132 0.50123 0.99712 0.0
H1003 H 0.11767 0.47463 0.01283 0.0
C1004 C 0.13844 0.44192 0.07427 0.0
C1005 C 0.14705 0.43339 0.06561 0.0
C1006 C 0.12557 0.44927 0.06933 0.0
C1007 C 0.12088 0.44806 0.05564 0.0
C1008 C 0.12984 0.44003 0.04699 0.0
C1009 C 0.14278 0.43279 0.05191 0.0
C1010 C 0.10646 0.4549 0.05024 0.0
C1011 C 0.11331 0.46955 0.04096 0.0
C1012 C 0.08606 0.44701 0.05407 0.0
C1013 C 0.07742 0.43074 0.06331 0.0
C1014 C 0.0765 0.41137 0.06057 0.0
C1015 C 0.06837 0.39614 0.06934 0.0
C1016 C 0.06097 0.40003 0.08084 0.0
C1017 C 0.06163 0.41916 0.08357 0.0
C1018 C 0.06976 0.43445 0.07484 0.0
C1019 C 0.04504 0.47267 0.01227 0.0
C1020 C 0.03597 0.48231 0.01952 0.0
C1021 C 0.05926 0.46808 0.01861 0.0
C1022 C 0.06465 0.47297 0.03232 0.0
C1023 C 0.05544 0.48234 0.03964 0.0
C1024 C 0.04136 0.48713 0.03328 0.0
C1025 C 0.07981 0.46813 0.03898 0.0
C1026 C 0.0731 0.45391 0.04849 0.0
C1027 C 0.1003 0.47636 0.03534 0.0
C1028 C 0.10862 0.49236 0.02589 0.0
C1029 C 0.10817 0.51113 0.02805 0.0
C1030 C 0.11585 0.52607 0.01906 0.0
C1031 C 0.12416 0.52248 0.00792 0.0
C1032 C 0.12485 0.50397 0.00575 0.0
C1033 C 0.11716 0.48897 0.0147 0.0
H1034 H 0.1301 0.53407 0.00097 0.0
H1035 H 0.05468 0.38822 0.08762 0.0
H1036 H 0.56237 0.73515 0.04643 0.0
H1037 H 0.5435 0.69804 0.03759 0.0
H1038 H 0.60204 0.69929 0.03598 0.0
H1039 H 0.62098 0.73654 0.04457 0.0
H1040 H 0.57711 0.67796 0.01452 0.0
H1041 H 0.5702 0.67779 0.0609 0.0
H1042 H 0.56138 0.68742 0.08218 0.0
H1043 H 0.49733 0.65995 0.06604 0.0
H1044 H 0.50584 0.65042 0.04459 0.0
H1045 H 0.53965 0.56866 0.01163 0.0
H1046 H 0.55641 0.60602 0.01956 0.0
H1047 H 0.49715 0.60336 0.01325 0.0
H1048 H 0.48024 0.56585 0.00513 0.0
H1049 H 0.52115 0.62509 0.03816 0.0
H1050 H 0.52899 0.62429 0.99173 0.0
H1051 H 0.53872 0.61398 0.97104 0.0
H1052 H 0.60237 0.64254 0.98822 0.0
H1053 H 0.59296 0.65279 0.0091 0.0
C1054 C 0.57119 0.72747 0.04422 0.0
C1055 C 0.59313 0.73868 0.04625 0.0
C1056 C 0.5604 0.70627 0.03919 0.0
C1057 C 0.57133 0.69577 0.03632 0.0
C1058 C 0.59327 0.70704 0.03813 0.0
C1059 C 0.60407 0.72832 0.04302 0.0
C1060 C 0.55993 0.67301 0.03149 0.0
C1061 C 0.56505 0.6664 0.01978 0.0
C1062 C 0.54389 0.65792 0.03821 0.0
C1063 C 0.53871 0.6636 0.0511 0.0
C1064 C 0.55427 0.67396 0.06186 0.0
C1065 C 0.54932 0.67937 0.07395 0.0
C1066 C 0.52882 0.67435 0.07545 0.0
C1067 C 0.51321 0.66386 0.06486 0.0
C1068 C 0.51809 0.65844 0.05273 0.0
C1069 C 0.53017 0.57602 0.01195 0.0
C1070 C 0.50868 0.56446 0.00771 0.0
C1071 C 0.53978 0.59735 0.01645 0.0
C1072 C 0.52803 0.60743 0.01687 0.0
C1073 C 0.50645 0.59581 0.01295 0.0
C1074 C 0.49685 0.57447 0.0083 0.0
C1075 C 0.53844 0.63018 0.02129 0.0
C1076 C 0.53315 0.63673 0.0329 0.0
C1077 C 0.55448 0.64518 0.01458 0.0
C1078 C 0.56023 0.63915 0.00202 0.0
C1079 C 0.54503 0.62822 0.99114 0.0
C1080 C 0.55049 0.62242 0.97937 0.0
C1081 C 0.57114 0.62757 0.97832 0.0
C1082 C 0.58638 0.63856 0.98905 0.0
C1083 C 0.58099 0.64439 0.00085 0.0
H1084 H 0.57534 0.62312 0.96919 0.0
H1085 H 0.52502 0.67855 0.08482 0.0
H1086 H 0.82675 0.26689 0.96943 0.0
H1087 H 0.84752 0.30372 0.97903 0.0
H1088 H 0.89661 0.31287 0.95501 0.0
H1089 H 0.87599 0.27611 0.94543 0.0
H1090 H 0.91099 0.32947 0.98161 0.0
H1091 H 0.86567 0.33048 0.94599 0.0
H1092 H 0.83159 0.31933 0.93359 0.0
H1093 H 0.81209 0.33929 0.9677 0.0
H1094 H 0.84598 0.35029 0.98036 0.0
H1095 H 0.97307 0.43968 0.98848 0.0
H1096 H 0.95109 0.4027 0.97988 0.0
H1097 H 0.89981 0.40012 0.99915 0.0
H1098 H 0.92153 0.43751 0.00721 0.0
H1099 H 0.88559 0.37944 0.97591 0.0
H1100 H 0.93021 0.37934 0.01162 0.0
H1101 H 0.96367 0.39014 0.02472 0.0
H1102 H 0.98362 0.36779 0.9919 0.0
H1103 H 0.95037 0.35712 0.97854 0.0
C1104 C 0.84202 0.27676 0.96626 0.0
C1105 C 0.84973 0.26869 0.95665 0.0
C1106 C 0.8538 0.29777 0.97169 0.0
C1107 C 0.87353 0.31101 0.96766 0.0
C1108 C 0.8814 0.3029 0.95823 0.0
C1109 C 0.86955 0.28197 0.9527 0.0
C1110 C 0.88601 0.33336 0.97322 0.0
C1111 C 0.90557 0.34048 0.98027 0.0
C1112 C 0.8786 0.3475 0.97178 0.0
C1113 C 0.85827 0.34099 0.96416 0.0
C1114 C 0.85405 0.33232 0.95088 0.0
C1115 C 0.83478 0.32607 0.9438 0.0
C1116 C 0.81966 0.32854 0.94986 0.0
C1117 C 0.82381 0.33735 0.96302 0.0
C1118 C 0.84304 0.34361 0.97015 0.0
C1119 C 0.95707 0.43125 0.9908 0.0
C1120 C 0.94898 0.44142 0.99849 0.0
C1121 C 0.94456 0.41005 0.98599 0.0
C1122 C 0.92388 0.39845 0.98907 0.0
C1123 C 0.91572 0.40869 0.99667 0.0
C1124 C 0.92815 0.43002 0.0013 0.0
C1125 C 0.91076 0.37572 0.98427 0.0
C1126 C 0.89104 0.36848 0.97736 0.0
C1127 C 0.91792 0.36139 0.98598 0.0
C1128 C 0.93786 0.36759 0.99404 0.0
C1129 C 0.94178 0.37685 0.00717 0.0
C1130 C 0.96071 0.38293 0.01464 0.0
C1131 C 0.97578 0.3797 0.00914 0.0
C1132 C 0.97193 0.3703 0.99615 0.0
C1133 C 0.95304 0.36421 0.98863 0.0
H1134 H 0.99043 0.38443 0.01494 0.0
H1135 H 0.80476 0.32369 0.94436 0.0
H1136 H 0.71742 0.58037 0.96301 0.0
H1137 H 0.68324 0.56689 0.97111 0.0
H1138 H 0.65369 0.54927 0.93101 0.0
H1139 H 0.68802 0.56325 0.9228 0.0
H1140 H 0.63843 0.56937 0.94596 0.0
H1141 H 0.65017 0.51196 0.9496 0.0
H1142 H 0.66971 0.49442 0.95596 0.0
H1143 H 0.67149 0.51358 0.9969 0.0
H1144 H 0.65222 0.53151 0.99078 0.0
H1145 H 0.5365 0.51209 0.96696 0.0
H1146 H 0.56794 0.52031 0.95633 0.0
H1147 H 0.6048 0.54305 0.99432 0.0
H1148 H 0.57347 0.53481 0.00505 0.0
H1149 H 0.61453 0.51755 0.97873 0.0
H1150 H 0.60579 0.57746 0.97495 0.0
H1151 H 0.58609 0.59492 0.96883 0.0
H1152 H 0.57846 0.57067 0.92819 0.0
H1153 H 0.59791 0.5528 0.93411 0.0
C1154 C 0.70366 0.57371 0.9559 0.0
C1155 C 0.70542 0.57292 0.94226 0.0
C1156 C 0.68412 0.56582 0.96055 0.0
C1157 C 0.6659 0.55688 0.95166 0.0
C1158 C 0.66756 0.55604 0.93803 0.0
C1159 C 0.68715 0.56388 0.93337 0.0
C1160 C 0.64523 0.54894 0.9567 0.0
C1161 C 0.63301 0.55773 0.95293 0.0
C1162 C 0.63834 0.53405 0.96598 0.0
C1163 C 0.64989 0.52323 0.96972 0.0
C1164 C 0.65487 0.51258 0.95995 0.0
C1165 C 0.66587 0.50254 0.96352 0.0
C1166 C 0.67187 0.50292 0.97682 0.0
C1167 C 0.66684 0.51331 0.9866 0.0
C1168 C 0.65586 0.5234 0.98309 0.0
C1169 C 0.55126 0.51873 0.97307 0.0
C1170 C 0.55248 0.52284 0.98686 0.0
C1171 C 0.56923 0.52349 0.96697 0.0
C1172 C 0.5887 0.53238 0.97454 0.0
C1173 C 0.58991 0.53616 0.98831 0.0
C1174 C 0.57199 0.53155 0.99441 0.0
C1175 C 0.60796 0.53819 0.96812 0.0
C1176 C 0.61988 0.529 0.97165 0.0
C1177 C 0.61457 0.5527 0.95862 0.0
C1178 C 0.60312 0.56363 0.95499 0.0
C1179 C 0.59979 0.57574 0.96472 0.0
C1180 C 0.58869 0.58573 0.96129 0.0
C1181 C 0.58098 0.58388 0.94813 0.0
C1182 C 0.58442 0.57207 0.93838 0.0
C1183 C 0.5955 0.56202 0.94176 0.0
H1184 H 0.57239 0.59162 0.94549 0.0
H1185 H 0.68039 0.49514 0.97956 0.0
H1186 H 0.42086 0.14151 0.95688 0.0
H1187 H 0.42295 0.11448 0.96852 0.0
H1188 H 0.47627 0.12461 0.94859 0.0
H1189 H 0.4746 0.1517 0.93721 0.0
H1190 H 0.44904 0.08318 0.94891 0.0
H1191 H 0.48257 0.14698 0.97963 0.0
H1192 H 0.48354 0.17647 0.99315 0.0
H1193 H 0.43391 0.13292 0.01389 0.0
H1194 H 0.43249 0.10316 0.00036 0.0
H1195 H 0.5116 0.06933 0.00591 0.0
H1196 H 0.49841 0.08955 0.99505 0.0
H1197 H 0.44156 0.03219 0.98018 0.0
H1198 H 0.45471 0.01181 0.99113 0.0
H1199 H 0.46453 0.09367 0.99771 0.0
H1200 H 0.42611 0.03778 0.9503 0.0
H1201 H 0.42981 0.01232 0.93542 0.0
H1202 H 0.49591 0.04536 0.94723 0.0
H1203 H 0.49247 0.07061 0.96234 0.0
C1204 C 0.43302 0.13796 0.955 0.0
C1205 C 0.4475 0.14873 0.94606 0.0
C1206 C 0.43414 0.12248 0.96161 0.0
C1207 C 0.44978 0.11757 0.95941 0.0
C1208 C 0.46395 0.128 0.95033 0.0
C1209 C 0.4629 0.14345 0.94378 0.0
C1210 C 0.45217 0.10216 0.96681 0.0
C1211 C 0.45208 0.08527 0.95961 0.0
C1212 C 0.45634 0.10501 0.98074 0.0
C1213 C 0.45724 0.12287 0.98888 0.0
C1214 C 0.47175 0.1437 0.987 0.0
C1215 C 0.47241 0.16046 0.99468 0.0
C1216 C 0.45875 0.15657 0.00434 0.0
C1217 C 0.44445 0.13591 0.00638 0.0
C1218 C 0.44371 0.1191 0.99871 0.0
C1219 C 0.49625 0.06102 0.00038 0.0
C1220 C 0.48423 0.039 0.99927 0.0
C1221 C 0.4887 0.0726 0.99422 0.0
C1222 C 0.46905 0.06238 0.98676 0.0
C1223 C 0.45685 0.04037 0.98579 0.0
C1224 C 0.46437 0.02876 0.99203 0.0
C1225 C 0.46179 0.07493 0.97977 0.0
C1226 C 0.46087 0.09121 0.98705 0.0
C1227 C 0.45705 0.0718 0.96589 0.0
C1228 C 0.45899 0.05588 0.95752 0.0
C1229 C 0.44137 0.03941 0.9498 0.0
C1230 C 0.44342 0.025 0.94135 0.0
C1231 C 0.46305 0.02712 0.94043 0.0
C1232 C 0.48066 0.04352 0.94805 0.0
C1233 C 0.47866 0.05782 0.95662 0.0
H1234 H 0.46461 0.01613 0.93373 0.0
H1235 H 0.45928 0.16956 0.01028 0.0
H1236 H 0.71584 0.10677 0.95602 0.0
H1237 H 0.68037 0.08761 0.96223 0.0
H1238 H 0.66575 0.13051 0.94416 0.0
H1239 H 0.70115 0.14957 0.93759 0.0
H1240 H 0.65225 0.12328 0.96877 0.0
H1241 H 0.64651 0.08287 0.9287 0.0
H1242 H 0.65643 0.06337 0.913 0.0
H1243 H 0.64719 0.01929 0.94092 0.0
H1244 H 0.63749 0.0387 0.95687 0.0
H1245 H 0.539 0.02596 0.96525 0.0
H1246 H 0.57089 0.04773 0.95519 0.0
H1247 H 0.60551 0.0712 0.99387 0.0
H1248 H 0.57361 0.04977 0.00402 0.0
H1249 H 0.60648 0.04657 0.95605 0.0
H1250 H 0.64422 0.12189 0.99356 0.0
H1251 H 0.63306 0.1418 0.00796 0.0
H1252 H 0.57579 0.11697 0.98253 0.0
H1253 H 0.58674 0.09717 0.96787 0.0
C1254 C 0.70503 0.11199 0.95317 0.0
C1255 C 0.71137 0.12967 0.94622 0.0
C1256 C 0.68477 0.10105 0.95679 0.0
C1257 C 0.67039 0.10754 0.95356 0.0
C1258 C 0.67664 0.12527 0.94676 0.0
C1259 C 0.69691 0.13618 0.94306 0.0
C1260 C 0.64894 0.09588 0.9575 0.0
C1261 C 0.6422 0.10652 0.96596 0.0
C1262 C 0.63567 0.07412 0.95359 0.0
C1263 C 0.64143 0.06235 0.94402 0.0
C1264 C 0.64675 0.06911 0.93153 0.0
C1265 C 0.6523 0.05806 0.92258 0.0
C1266 C 0.65248 0.04013 0.92597 0.0
C1267 C 0.64706 0.03319 0.93831 0.0
C1268 C 0.6415 0.0442 0.94731 0.0
C1269 C 0.5533 0.03597 0.97164 0.0
C1270 C 0.55369 0.03623 0.98545 0.0
C1271 C 0.57156 0.04829 0.96586 0.0
C1272 C 0.59053 0.06123 0.97378 0.0
C1273 C 0.59097 0.06156 0.98757 0.0
C1274 C 0.57274 0.0492 0.99335 0.0
C1275 C 0.61004 0.07382 0.96765 0.0
C1276 C 0.61645 0.06335 0.95879 0.0
C1277 C 0.62283 0.0958 0.97102 0.0
C1278 C 0.61624 0.1079 0.97968 0.0
C1279 C 0.62929 0.12076 0.991 0.0
C1280 C 0.62299 0.13201 0.99922 0.0
C1281 C 0.6037 0.1306 0.99618 0.0
C1282 C 0.5907 0.11799 0.98489 0.0
C1283 C 0.59693 0.10673 0.97664 0.0
H1284 H 0.59885 0.13931 0.00256 0.0
H1285 H 0.65679 0.03159 0.91903 0.0
H1286 H 0.84103 0.55368 0.91933 0.0
H1287 H 0.86453 0.54141 0.92714 0.0
H1288 H 0.86336 0.56279 0.9673 0.0
H1289 H 0.84026 0.57542 0.95956 0.0
H1290 H 0.90302 0.57595 0.96121 0.0
H1291 H 0.83668 0.51116 0.95639 0.0
H1292 H 0.80351 0.48315 0.9443 0.0
H1293 H 0.83729 0.46951 0.91637 0.0
H1294 H 0.87067 0.49765 0.92819 0.0
H1295 H 0.94666 0.5293 0.99922 0.0
H1296 H 0.923 0.53906 0.9886 0.0
H1297 H 0.92714 0.51245 0.95075 0.0
H1298 H 0.95069 0.50218 0.96139 0.0
H1299 H 0.8874 0.50225 0.95362 0.0
H1300 H 0.95367 0.56533 0.95882 0.0
H1301 H 0.98711 0.59329 0.97064 0.0
H1302 H 0.95412 0.61059 0.99719 0.0
H1303 H 0.92046 0.58253 0.98565 0.0
C1304 C 0.84576 0.55571 0.92982 0.0
C1305 C 0.83875 0.56548 0.93883 0.0
C1306 C 0.85906 0.54858 0.93428 0.0
C1307 C 0.86561 0.55112 0.94781 0.0
C1308 C 0.85847 0.56066 0.95682 0.0
C1309 C 0.84512 0.56769 0.95239 0.0
C1310 C 0.88049 0.54453 0.95262 0.0
C1311 C 0.89952 0.55979 0.95968 0.0
C1312 C 0.87622 0.52361 0.95018 0.0
C1313 C 0.85616 0.50667 0.94309 0.0
C1314 C 0.83703 0.50232 0.9476 0.0
C1315 C 0.81819 0.48639 0.94081 0.0
C1316 C 0.81829 0.4746 0.92955 0.0
C1317 C 0.83723 0.47868 0.92508 0.0
C1318 C 0.85612 0.4946 0.93182 0.0
C1319 C 0.94262 0.52551 0.98863 0.0
C1320 C 0.95072 0.51509 0.98114 0.0
C1321 C 0.92911 0.53118 0.98256 0.0
C1322 C 0.92358 0.52682 0.96884 0.0
C1323 C 0.93129 0.51605 0.96134 0.0
C1324 C 0.94477 0.51025 0.96743 0.0
C1325 C 0.90975 0.5336 0.96247 0.0
C1326 C 0.89098 0.51843 0.95508 0.0
C1327 C 0.9143 0.55467 0.96452 0.0
C1328 C 0.93453 0.57171 0.97142 0.0
C1329 C 0.95354 0.575 0.96724 0.0
C1330 C 0.97253 0.59088 0.97388 0.0
C1331 C 0.97274 0.60368 0.98467 0.0
C1332 C 0.95394 0.60065 0.98883 0.0
C1333 C 0.93489 0.58478 0.98223 0.0
H1334 H 0.98746 0.61596 0.98981 0.0
H1335 H 0.80369 0.46228 0.92431 0.0
H1336 H 0.48464 0.30923 0.96181 0.0
H1337 H 0.48534 0.33956 0.97322 0.0
H1338 H 0.42102 0.31536 0.9583 0.0
H1339 H 0.41978 0.28422 0.94721 0.0
H1340 H 0.44903 0.35847 0.95459 0.0
H1341 H 0.42948 0.31424 0.98924 0.0
H1342 H 0.43136 0.2899 0.00391 0.0
H1343 H 0.49369 0.33729 0.01956 0.0
H1344 H 0.49231 0.36183 0.00484 0.0
H1345 H 0.4562 0.4469 0.99393 0.0
H1346 H 0.44339 0.41079 0.98409 0.0
H1347 H 0.50207 0.4161 0.99794 0.0
H1348 H 0.51489 0.45204 0.00772 0.0
H1349 H 0.46936 0.3792 0.00282 0.0
H1350 H 0.49239 0.41902 0.96535 0.0
H1351 H 0.49358 0.44367 0.94987 0.0
H1352 H 0.42724 0.4056 0.93959 0.0
H1353 H 0.42575 0.38051 0.95495 0.0
C1354 C 0.47042 0.30996 0.96117 0.0
C1355 C 0.45208 0.29407 0.95364 0.0
C1356 C 0.47092 0.32744 0.96765 0.0
C1357 C 0.45319 0.32959 0.96668 0.0
C1358 C 0.43485 0.31392 0.95916 0.0
C1359 C 0.43424 0.29621 0.95278 0.0
C1360 C 0.45441 0.34875 0.97316 0.0
C1361 C 0.4529 0.36279 0.96518 0.0
C1362 C 0.45994 0.35451 0.98693 0.0
C1363 C 0.46082 0.33984 0.99587 0.0
C1364 C 0.44365 0.31943 0.99574 0.0
C1365 C 0.44462 0.3056 0.00408 0.0
C1366 C 0.46264 0.31203 0.01265 0.0
C1367 C 0.47973 0.33233 0.01292 0.0
C1368 C 0.47885 0.34622 0.00459 0.0
C1369 C 0.46635 0.44034 0.9948 0.0
C1370 C 0.48655 0.45224 0.00152 0.0
C1371 C 0.45903 0.41975 0.9892 0.0
C1372 C 0.47181 0.4108 0.99025 0.0
C1373 C 0.49191 0.42266 0.99706 0.0
C1374 C 0.49923 0.44321 0.00261 0.0
C1375 C 0.46454 0.38915 0.98421 0.0
C1376 C 0.46493 0.37466 0.99228 0.0
C1377 C 0.4582 0.38304 0.97052 0.0
C1378 C 0.45893 0.39807 0.96138 0.0
C1379 C 0.47804 0.416 0.95985 0.0
C1380 C 0.47877 0.43002 0.95107 0.0
C1381 C 0.46046 0.42634 0.94382 0.0
C1382 C 0.4414 0.40849 0.94525 0.0
C1383 C 0.44062 0.3943 0.95394 0.0
H1384 H 0.46105 0.43724 0.93704 0.0
H1385 H 0.46336 0.3013 0.0191 0.0
H1386 H 0.14369 0.70674 0.07277 0.0
H1387 H 0.11357 0.67788 0.05894 0.0
H1388 H 0.15504 0.66515 0.03745 0.0
H1389 H 0.18514 0.69427 0.05096 0.0
H1390 H 0.12355 0.66189 0.02099 0.0
H1391 H 0.13106 0.63701 0.06252 0.0
H1392 H 0.13317 0.63743 0.08677 0.0
H1393 H 0.07206 0.63016 0.08638 0.0
H1394 H 0.06971 0.63 0.06213 0.0
H1395 H 0.06603 0.55467 0.99655 0.0
H1396 H 0.09041 0.58931 0.00828 0.0
H1397 H 0.03909 0.59209 0.02398 0.0
H1398 H 0.0145 0.55736 0.01212 0.0
H1399 H 0.07176 0.60261 0.0431 0.0
H1400 H 0.06259 0.62263 0.00097 0.0
H1401 H 0.06057 0.62126 0.97669 0.0
H1402 H 0.1247 0.637 0.97806 0.0
H1403 H 0.12704 0.63816 0.00235 0.0
C1404 C 0.14638 0.69802 0.06495 0.0
C1405 C 0.16679 0.70266 0.06303 0.0
C1406 C 0.12916 0.68143 0.05712 0.0
C1407 C 0.13205 0.66918 0.04728 0.0
C1408 C 0.15243 0.67433 0.04501 0.0
C1409 C 0.16962 0.69087 0.05282 0.0
C1410 C 0.11398 0.65038 0.03967 0.0
C1411 C 0.11227 0.64889 0.02582 0.0
C1412 C 0.09892 0.63366 0.04598 0.0
C1413 C 0.10033 0.63378 0.06054 0.0
C1414 C 0.11815 0.6357 0.06762 0.0
C1415 C 0.11938 0.63585 0.08136 0.0
C1416 C 0.10279 0.6339 0.08811 0.0
C1417 C 0.08491 0.63173 0.08114 0.0
C1418 C 0.08363 0.6316 0.0674 0.0
C1419 C 0.05991 0.56274 0.00241 0.0
C1420 C 0.03841 0.55334 0.00347 0.0
C1421 C 0.07384 0.58255 0.00907 0.0
C1422 C 0.06654 0.59335 0.01691 0.0
C1423 C 0.04503 0.58403 0.01795 0.0
C1424 C 0.03103 0.56423 0.01119 0.0
C1425 C 0.08163 0.61394 0.02442 0.0
C1426 C 0.08279 0.61576 0.03826 0.0
C1427 C 0.09622 0.63093 0.0181 0.0
C1428 C 0.09494 0.63034 0.00349 0.0
C1429 C 0.07623 0.62565 0.99609 0.0
C1430 C 0.07503 0.62493 0.98233 0.0
C1431 C 0.09249 0.62901 0.97583 0.0
C1432 C 0.11119 0.63384 0.9831 0.0
C1433 C 0.11247 0.63456 0.99687 0.0
H1434 H 0.09153 0.62845 0.96517 0.0
H1435 H 0.10376 0.63401 0.09875 0.0
H1436 H 0.27885 0.44798 0.05224 0.0
H1437 H 0.31235 0.46065 0.04341 0.0
H1438 H 0.3377 0.44976 0.07921 0.0
H1439 H 0.30445 0.43799 0.08842 0.0
H1440 H 0.36647 0.48512 0.07034 0.0
H1441 H 0.32005 0.41399 0.05194 0.0
H1442 H 0.2874 0.38416 0.04054 0.0
H1443 H 0.29663 0.41617 0.00577 0.0
H1444 H 0.32921 0.44634 0.01704 0.0
H1445 H 0.4527 0.48749 0.04187 0.0
H1446 H 0.42126 0.47721 0.0529 0.0
H1447 H 0.39024 0.48217 0.01728 0.0
H1448 H 0.4213 0.49123 0.006 0.0
H1449 H 0.36473 0.44902 0.0271 0.0
H1450 H 0.41176 0.52112 0.04654 0.0
H1451 H 0.4452 0.54941 0.0582 0.0
H1452 H 0.43564 0.514 0.0914 0.0
H1453 H 0.40218 0.48544 0.07989 0.0
C1454 C 0.29164 0.44871 0.05839 0.0
C1455 C 0.28885 0.44179 0.07102 0.0
C1456 C 0.31075 0.45575 0.05326 0.0
C1457 C 0.32741 0.45574 0.06054 0.0
C1458 C 0.32501 0.44974 0.07337 0.0
C1459 C 0.30592 0.44283 0.07856 0.0
C1460 C 0.34692 0.46106 0.0545 0.0
C1461 C 0.36614 0.47712 0.06094 0.0
C1462 C 0.3465 0.45067 0.04221 0.0
C1463 C 0.32697 0.4325 0.03538 0.0
C1464 C 0.31504 0.41473 0.0419 0.0
C1465 C 0.29656 0.39775 0.03546 0.0
C1466 C 0.28992 0.39829 0.02245 0.0
C1467 C 0.30178 0.41579 0.01585 0.0
C1468 C 0.32026 0.43282 0.02226 0.0
C1469 C 0.43917 0.48641 0.03641 0.0
C1470 C 0.43943 0.49021 0.02309 0.0
C1471 C 0.42123 0.48068 0.04276 0.0
C1472 C 0.40345 0.47935 0.03604 0.0
C1473 C 0.40374 0.48312 0.02271 0.0
C1474 C 0.42149 0.48833 0.01626 0.0
C1475 C 0.38432 0.47353 0.04272 0.0
C1476 C 0.36512 0.45719 0.03645 0.0
C1477 C 0.38484 0.48357 0.0552 0.0
C1478 C 0.40454 0.50111 0.06232 0.0
C1479 C 0.41679 0.51938 0.05632 0.0
C1480 C 0.43575 0.53545 0.06291 0.0
C1481 C 0.44256 0.53348 0.07553 0.0
C1482 C 0.43034 0.5155 0.08163 0.0
C1483 C 0.41135 0.4994 0.0751 0.0
H1484 H 0.45728 0.5459 0.08058 0.0
H1485 H 0.2756 0.38513 0.01748 0.0
H1486 H 0.61823 0.90401 0.05421 0.0
H1487 H 0.59945 0.92051 0.04517 0.0
H1488 H 0.54619 0.85936 0.03187 0.0
H1489 H 0.56516 0.84274 0.04048 0.0
H1490 H 0.55449 0.88524 0.0131 0.0
H1491 H 0.54607 0.88845 0.05916 0.0
H1492 H 0.55743 0.89667 0.08308 0.0
H1493 H 0.59377 0.9623 0.07839 0.0
H1494 H 0.58287 0.95444 0.0544 0.0
H1495 H 0.48412 0.9225 0.99902 0.0
H1496 H 0.50069 0.90413 0.00863 0.0
H1497 H 0.55651 0.96363 0.0214 0.0
H1498 H 0.54005 0.98202 0.01182 0.0
H1499 H 0.54542 0.93741 0.04072 0.0
H1500 H 0.55482 0.93387 0.99455 0.0
H1501 H 0.54336 0.92559 0.97064 0.0
H1502 H 0.50482 0.86035 0.97567 0.0
H1503 H 0.51584 0.86829 0.99966 0.0
C1504 C 0.60259 0.89407 0.04927 0.0
C1505 C 0.59318 0.87206 0.04808 0.0
C1506 C 0.59179 0.90352 0.04423 0.0
C1507 C 0.57132 0.89116 0.038 0.0
C1508 C 0.56194 0.86919 0.0367 0.0
C1509 C 0.57274 0.85973 0.04172 0.0
C1510 C 0.55983 0.90117 0.03264 0.0
C1511 C 0.55221 0.8964 0.01919 0.0
C1512 C 0.55723 0.91603 0.04053 0.0
C1513 C 0.56381 0.92082 0.05496 0.0
C1514 C 0.55662 0.90462 0.06321 0.0
C1515 C 0.56296 0.90922 0.07679 0.0
C1516 C 0.57636 0.92999 0.08225 0.0
C1517 C 0.58342 0.94621 0.07415 0.0
C1518 C 0.57715 0.9417 0.06056 0.0
C1519 C 0.49992 0.93162 0.00388 0.0
C1520 C 0.51083 0.95365 0.0047 0.0
C1521 C 0.50937 0.92113 0.00934 0.0
C1522 C 0.52988 0.93253 0.01564 0.0
C1523 C 0.54066 0.95455 0.01659 0.0
C1524 C 0.53126 0.96502 0.01111 0.0
C1525 C 0.54022 0.92156 0.02119 0.0
C1526 C 0.54761 0.92616 0.03467 0.0
C1527 C 0.54259 0.90652 0.01333 0.0
C1528 C 0.53598 0.90171 0.99892 0.0
C1529 C 0.54377 0.91778 0.99057 0.0
C1530 C 0.53738 0.91315 0.97701 0.0
C1531 C 0.52333 0.89247 0.97165 0.0
C1532 C 0.51568 0.87637 0.97984 0.0
C1533 C 0.522 0.88092 0.99342 0.0
H1534 H 0.5184 0.88891 0.96114 0.0
H1535 H 0.58124 0.93352 0.09276 0.0
H1536 H 0.99321 0.19013 0.42414 0.0
H1537 H 0.02001 0.21653 0.4123 0.0
H1538 H 0.979 0.18967 0.37593 0.0
H1539 H 0.95236 0.16268 0.38763 0.0
H1540 H 0.01686 0.19636 0.37237 0.0
H1541 H 0.98966 0.23708 0.3917 0.0
H1542 H 0.97831 0.25205 0.40949 0.0
H1543 H 0.04038 0.28375 0.42972 0.0
H1544 H 0.05205 0.26874 0.41213 0.0
H1545 H 0.08494 0.28001 0.33685 0.0
H1546 H 0.05427 0.25607 0.34733 0.0
H1547 H 0.09185 0.27506 0.38499 0.0
H1548 H 0.12255 0.299 0.37466 0.0
H1549 H 0.05384 0.27296 0.38671 0.0
H1550 H 0.08008 0.23008 0.36814 0.0
H1551 H 0.09149 0.21527 0.35028 0.0
H1552 H 0.03077 0.18773 0.32854 0.0
H1553 H 0.01909 0.20267 0.34619 0.0
C1554 C 0.98988 0.18982 0.41361 0.0
C1555 C 0.97066 0.17424 0.40682 0.0
C1556 C 0.00514 0.20508 0.40688 0.0
C1557 C 0.00145 0.20522 0.39324 0.0
C1558 C 0.98216 0.18991 0.38646 0.0
C1559 C 0.96688 0.1746 0.39319 0.0
C1560 C 0.01815 0.22069 0.38598 0.0
C1561 C 0.02466 0.21314 0.37535 0.0
C1562 C 0.02864 0.24256 0.39003 0.0
C1563 C 0.02169 0.25164 0.40064 0.0
C1564 C 0.00086 0.24711 0.39999 0.0
C1565 C 0.99437 0.25563 0.41003 0.0
C1566 C 0.0086 0.26881 0.42075 0.0
C1567 C 0.02937 0.27353 0.42142 0.0
C1568 C 0.03593 0.26504 0.41141 0.0
C1569 C 0.08668 0.27916 0.34737 0.0
C1570 C 0.10623 0.29137 0.3549 0.0
C1571 C 0.06914 0.26544 0.35333 0.0
C1572 C 0.07084 0.26372 0.36692 0.0
C1573 C 0.09022 0.27618 0.3745 0.0
C1574 C 0.10776 0.28979 0.36854 0.0
C1575 C 0.05257 0.24857 0.37323 0.0
C1576 C 0.04583 0.25619 0.38367 0.0
C1577 C 0.04184 0.22678 0.369 0.0
C1578 C 0.04879 0.21769 0.35841 0.0
C1579 C 0.06922 0.22102 0.3595 0.0
C1580 C 0.07572 0.21257 0.34942 0.0
C1581 C 0.06188 0.20061 0.33827 0.0
C1582 C 0.04148 0.19703 0.33718 0.0
C1583 C 0.03491 0.20547 0.34722 0.0
H1584 H 0.06694 0.19408 0.33048 0.0
H1585 H 0.00355 0.27539 0.42851 0.0
H1586 H 0.81639 0.75873 0.37759 0.0
H1587 H 0.79316 0.77039 0.3686 0.0
H1588 H 0.7792 0.78059 0.40791 0.0
H1589 H 0.80195 0.76823 0.41696 0.0
H1590 H 0.74417 0.76056 0.39092 0.0
H1591 H 0.8115 0.82192 0.39188 0.0
H1592 H 0.84837 0.84244 0.38762 0.0
H1593 H 0.83006 0.82724 0.34582 0.0
H1594 H 0.79308 0.80637 0.34983 0.0
H1595 H 0.69456 0.81758 0.37147 0.0
H1596 H 0.71886 0.80837 0.38206 0.0
H1597 H 0.73233 0.79276 0.34379 0.0
H1598 H 0.70815 0.80208 0.33312 0.0
H1599 H 0.76804 0.81702 0.36129 0.0
H1600 H 0.70111 0.7543 0.36041 0.0
H1601 H 0.66417 0.73405 0.36454 0.0
H1602 H 0.68188 0.75231 0.40625 0.0
H1603 H 0.71895 0.77292 0.40233 0.0
C1604 C 0.8083 0.76333 0.38434 0.0
C1605 C 0.81102 0.76252 0.39801 0.0
C1606 C 0.79517 0.7702 0.37919 0.0
C1607 C 0.7846 0.77659 0.3876 0.0
C1608 C 0.78726 0.7758 0.40125 0.0
C1609 C 0.80041 0.76892 0.40641 0.0
C1610 C 0.77049 0.78368 0.38205 0.0
C1611 C 0.74949 0.77315 0.38463 0.0
C1612 C 0.7773 0.79983 0.37362 0.0
C1613 C 0.79953 0.81242 0.37117 0.0
C1614 C 0.81534 0.82281 0.38178 0.0
C1615 C 0.83626 0.83454 0.37941 0.0
C1616 C 0.84156 0.8361 0.36646 0.0
C1617 C 0.82594 0.82599 0.35585 0.0
C1618 C 0.80499 0.81423 0.35817 0.0
C1619 C 0.70277 0.81233 0.3653 0.0
C1620 C 0.69944 0.81062 0.35145 0.0
C1621 C 0.71657 0.80694 0.37137 0.0
C1622 C 0.72732 0.79979 0.36371 0.0
C1623 C 0.72419 0.79826 0.34989 0.0
C1624 C 0.71028 0.80349 0.34381 0.0
C1625 C 0.74178 0.79379 0.37008 0.0
C1626 C 0.76281 0.80453 0.36766 0.0
C1627 C 0.73501 0.77788 0.37865 0.0
C1628 C 0.71278 0.76532 0.38106 0.0
C1629 C 0.69711 0.75413 0.37045 0.0
C1630 C 0.67615 0.74255 0.37276 0.0
C1631 C 0.67067 0.74193 0.38565 0.0
C1632 C 0.68615 0.75283 0.39626 0.0
C1633 C 0.70714 0.76444 0.39401 0.0
H1634 H 0.65443 0.73297 0.38741 0.0
H1635 H 0.85776 0.84519 0.36465 0.0
H1636 H 0.22623 0.06742 0.37382 0.0
H1637 H 0.20857 0.03046 0.36477 0.0
H1638 H 0.26292 0.02709 0.37818 0.0
H1639 H 0.28062 0.064 0.38739 0.0
H1640 H 0.24765 0.00859 0.35304 0.0
H1641 H 0.22038 0.00636 0.3948 0.0
H1642 H 0.20344 0.01596 0.41178 0.0
H1643 H 0.14814 0.99251 0.38463 0.0
H1644 H 0.16487 0.98304 0.36741 0.0
H1645 H 0.20403 0.8987 0.34695 0.0
H1646 H 0.22023 0.93563 0.35573 0.0
H1647 H 0.16407 0.93576 0.34232 0.0
H1648 H 0.14756 0.89851 0.33375 0.0
H1649 H 0.17958 0.95611 0.36687 0.0
H1650 H 0.20657 0.9575 0.32523 0.0
H1651 H 0.22342 0.94751 0.30838 0.0
H1652 H 0.27922 0.97242 0.33526 0.0
H1653 H 0.2626 0.98229 0.35236 0.0
C1654 C 0.23436 0.05877 0.37497 0.0
C1655 C 0.25482 0.06865 0.38138 0.0
C1656 C 0.22426 0.03767 0.36976 0.0
C1657 C 0.23437 0.02599 0.37091 0.0
C1658 C 0.25486 0.03584 0.37716 0.0
C1659 C 0.26497 0.05695 0.38238 0.0
C1660 C 0.2236 0.0035 0.36557 0.0
C1661 C 0.23289 0.99706 0.35618 0.0
C1662 C 0.20408 0.98858 0.36942 0.0
C1663 C 0.19396 0.9942 0.37977 0.0
C1664 C 0.20467 0.00341 0.39241 0.0
C1665 C 0.1951 0.0088 0.40209 0.0
C1666 C 0.17475 0.0049 0.39928 0.0
C1667 C 0.16391 0.99555 0.38679 0.0
C1668 C 0.17343 0.99016 0.37707 0.0
C1669 C 0.1951 0.90658 0.34591 0.0
C1670 C 0.17457 0.89581 0.33964 0.0
C1671 C 0.20442 0.9277 0.35087 0.0
C1672 C 0.19347 0.93854 0.3495 0.0
C1673 C 0.17281 0.9277 0.34343 0.0
C1674 C 0.16343 0.90649 0.33851 0.0
C1675 C 0.20369 0.96117 0.35439 0.0
C1676 C 0.1943 0.96765 0.36369 0.0
C1677 C 0.22312 0.97614 0.35044 0.0
C1678 C 0.23327 0.97048 0.34012 0.0
C1679 C 0.22239 0.96073 0.32758 0.0
C1680 C 0.2319 0.9551 0.31798 0.0
C1681 C 0.25236 0.95928 0.32076 0.0
C1682 C 0.26337 0.96917 0.33313 0.0
C1683 C 0.25391 0.97481 0.34278 0.0
H1684 H 0.25969 0.95489 0.31332 0.0
H1685 H 0.16736 0.00908 0.40678 0.0
H1686 H 0.48689 0.60542 0.28472 0.0
H1687 H 0.5075 0.64227 0.29407 0.0
H1688 H 0.56342 0.63793 0.296 0.0
H1689 H 0.54276 0.60094 0.28697 0.0
H1690 H 0.56375 0.65869 0.31764 0.0
H1691 H 0.5512 0.66246 0.27159 0.0
H1692 H 0.53012 0.65501 0.25021 0.0
H1693 H 0.4977 0.68384 0.26711 0.0
H1694 H 0.5184 0.69121 0.28865 0.0
H1695 H 0.63827 0.76772 0.32419 0.0
H1696 H 0.61608 0.73099 0.31491 0.0
H1697 H 0.56112 0.7349 0.32111 0.0
H1698 H 0.58332 0.77172 0.33056 0.0
H1699 H 0.55981 0.71479 0.29572 0.0
H1700 H 0.57407 0.71151 0.34191 0.0
H1701 H 0.59685 0.71979 0.36266 0.0
H1702 H 0.62819 0.69079 0.34443 0.0
H1703 H 0.60576 0.68257 0.3235 0.0
C1704 C 0.5036 0.61239 0.2871 0.0
C1705 C 0.51325 0.60036 0.28509 0.0
C1706 C 0.51538 0.63345 0.29241 0.0
C1707 C 0.53709 0.64301 0.29557 0.0
C1708 C 0.54671 0.63093 0.29366 0.0
C1709 C 0.5349 0.6098 0.28851 0.0
C1710 C 0.54979 0.66553 0.30095 0.0
C1711 C 0.56304 0.67094 0.31274 0.0
C1712 C 0.54865 0.68156 0.29472 0.0
C1713 C 0.5362 0.67719 0.28177 0.0
C1714 C 0.53946 0.66706 0.27077 0.0
C1715 C 0.5276 0.66288 0.25862 0.0
C1716 C 0.51254 0.66889 0.25731 0.0
C1717 C 0.50935 0.67916 0.26815 0.0
C1718 C 0.52115 0.68336 0.28033 0.0
C1719 C 0.62146 0.76077 0.32355 0.0
C1720 C 0.61247 0.77247 0.32816 0.0
C1721 C 0.60882 0.73981 0.31828 0.0
C1722 C 0.587 0.73024 0.31744 0.0
C1723 C 0.57795 0.74204 0.32171 0.0
C1724 C 0.59061 0.76299 0.32713 0.0
C1725 C 0.57369 0.70779 0.31229 0.0
C1726 C 0.56038 0.70244 0.30059 0.0
C1727 C 0.57498 0.69185 0.31849 0.0
C1728 C 0.58835 0.69658 0.33111 0.0
C1729 C 0.58592 0.70703 0.34229 0.0
C1730 C 0.59875 0.71169 0.35409 0.0
C1731 C 0.61398 0.70585 0.35486 0.0
C1732 C 0.61639 0.69531 0.34382 0.0
C1733 C 0.6036 0.69062 0.33199 0.0
H1734 H 0.62386 0.70944 0.36401 0.0
H1735 H 0.50338 0.66565 0.24789 0.0
H1736 H 0.38288 0.92137 0.29318 0.0
H1737 H 0.34893 0.90777 0.30146 0.0
H1738 H 0.31878 0.86992 0.26418 0.0
H1739 H 0.3528 0.88428 0.25556 0.0
H1740 H 0.29766 0.88786 0.27262 0.0
H1741 H 0.32409 0.84758 0.29147 0.0
H1742 H 0.34969 0.84087 0.30337 0.0
H1743 H 0.34976 0.87642 0.33844 0.0
H1744 H 0.32437 0.88362 0.3267 0.0
H1745 H 0.20114 0.83319 0.30122 0.0
H1746 H 0.23227 0.8409 0.29039 0.0
H1747 H 0.27128 0.8841 0.32425 0.0
H1748 H 0.24029 0.87628 0.33523 0.0
H1749 H 0.28592 0.85909 0.31587 0.0
H1750 H 0.25975 0.90024 0.29555 0.0
H1751 H 0.2329 0.90468 0.28317 0.0
H1752 H 0.23125 0.86482 0.24997 0.0
H1753 H 0.25765 0.85962 0.26229 0.0
C1754 C 0.36905 0.91031 0.28666 0.0
C1755 C 0.37061 0.90398 0.27367 0.0
C1756 C 0.34963 0.90233 0.29148 0.0
C1757 C 0.3313 0.88757 0.28352 0.0
C1758 C 0.33273 0.88121 0.27053 0.0
C1759 C 0.3522 0.88929 0.26566 0.0
C1760 C 0.31072 0.87916 0.2888 0.0
C1761 C 0.29495 0.88123 0.28197 0.0
C1762 C 0.30719 0.8706 0.30103 0.0
C1763 C 0.32243 0.86627 0.30816 0.0
C1764 C 0.32967 0.8541 0.30169 0.0
C1765 C 0.34413 0.85019 0.30842 0.0
C1766 C 0.35138 0.85825 0.32165 0.0
C1767 C 0.34414 0.8702 0.32819 0.0
C1768 C 0.3297 0.87418 0.32151 0.0
C1769 C 0.21634 0.84437 0.30637 0.0
C1770 C 0.21822 0.8542 0.31909 0.0
C1771 C 0.23412 0.84878 0.30014 0.0
C1772 C 0.2541 0.86323 0.30645 0.0
C1773 C 0.25601 0.87289 0.31919 0.0
C1774 C 0.23827 0.86844 0.32544 0.0
C1775 C 0.27314 0.86837 0.2999 0.0
C1776 C 0.28858 0.86558 0.30648 0.0
C1777 C 0.27621 0.87599 0.28737 0.0
C1778 C 0.26051 0.87935 0.27991 0.0
C1779 C 0.25351 0.89225 0.28566 0.0
C1780 C 0.23835 0.89488 0.27866 0.0
C1781 C 0.23026 0.88491 0.26582 0.0
C1782 C 0.2374 0.87238 0.25994 0.0
C1783 C 0.25246 0.86958 0.26694 0.0
H1784 H 0.21852 0.88695 0.26041 0.0
H1785 H 0.36257 0.8552 0.32684 0.0
H1786 H 0.0919 0.45795 0.26733 0.0
H1787 H 0.09636 0.43233 0.27925 0.0
H1788 H 0.14421 0.48283 0.30674 0.0
H1789 H 0.13962 0.50837 0.29504 0.0
H1790 H 0.15473 0.45266 0.29392 0.0
H1791 H 0.10152 0.45628 0.31771 0.0
H1792 H 0.06715 0.4533 0.31922 0.0
H1793 H 0.03655 0.38873 0.30261 0.0
H1794 H 0.07078 0.39143 0.30083 0.0
H1795 H 0.17897 0.40686 0.34374 0.0
H1796 H 0.16753 0.42784 0.33218 0.0
H1797 H 0.11127 0.37132 0.31532 0.0
H1798 H 0.12202 0.35032 0.32771 0.0
H1799 H 0.10283 0.40146 0.32054 0.0
H1800 H 0.15406 0.39563 0.29764 0.0
H1801 H 0.18766 0.39676 0.29636 0.0
H1802 H 0.2208 0.46289 0.30939 0.0
H1803 H 0.18741 0.4621 0.31096 0.0
C1804 C 0.10321 0.46349 0.27599 0.0
C1805 C 0.11536 0.48507 0.28033 0.0
C1806 C 0.10571 0.4489 0.28277 0.0
C1807 C 0.12061 0.45578 0.29383 0.0
C1808 C 0.13263 0.47729 0.29822 0.0
C1809 C 0.12989 0.49181 0.2916 0.0
C1810 C 0.12432 0.44073 0.30064 0.0
C1811 C 0.14347 0.44154 0.29981 0.0
C1812 C 0.10925 0.42575 0.30789 0.0
C1813 C 0.0887 0.42413 0.30898 0.0
C1814 C 0.08747 0.44151 0.31425 0.0
C1815 C 0.06801 0.43986 0.31519 0.0
C1816 C 0.04968 0.42085 0.31097 0.0
C1817 C 0.05077 0.40345 0.30585 0.0
C1818 C 0.07019 0.40503 0.30488 0.0
C1819 C 0.16405 0.39892 0.33769 0.0
C1820 C 0.15166 0.37694 0.33626 0.0
C1821 C 0.15758 0.4109 0.33102 0.0
C1822 C 0.13889 0.4011 0.32251 0.0
C1823 C 0.1259 0.37919 0.32166 0.0
C1824 C 0.13217 0.36721 0.32861 0.0
C1825 C 0.13354 0.41376 0.31413 0.0
C1826 C 0.11405 0.41241 0.31456 0.0
C1827 C 0.14812 0.42797 0.30625 0.0
C1828 C 0.16822 0.42877 0.30451 0.0
C1829 C 0.16851 0.41042 0.30023 0.0
C1830 C 0.18752 0.41099 0.29949 0.0
C1831 C 0.20634 0.42987 0.30287 0.0
C1832 C 0.2062 0.44827 0.30681 0.0
C1833 C 0.18724 0.44778 0.30761 0.0
H1834 H 0.22104 0.43027 0.30245 0.0
H1835 H 0.03463 0.4196 0.31171 0.0
H1836 H 0.38163 0.4862 0.29403 0.0
H1837 H 0.34734 0.46711 0.30197 0.0
H1838 H 0.3275 0.41784 0.26991 0.0
H1839 H 0.36159 0.43726 0.26159 0.0
H1840 H 0.29667 0.42626 0.27421 0.0
H1841 H 0.34275 0.41167 0.30023 0.0
H1842 H 0.37463 0.4202 0.31444 0.0
H1843 H 0.35998 0.45375 0.34387 0.0
H1844 H 0.32814 0.44566 0.32975 0.0
H1845 H 0.20841 0.35058 0.30266 0.0
H1846 H 0.24063 0.37006 0.29248 0.0
H1847 H 0.2666 0.41676 0.32656 0.0
H1848 H 0.23479 0.39629 0.33715 0.0
H1849 H 0.29426 0.40872 0.3204 0.0
H1850 H 0.24896 0.42509 0.29295 0.0
H1851 H 0.217 0.41556 0.27833 0.0
H1852 H 0.22956 0.37673 0.25176 0.0
H1853 H 0.26176 0.38629 0.26606 0.0
C1854 C 0.36988 0.47148 0.28852 0.0
C1855 C 0.37441 0.46321 0.2772 0.0
C1856 C 0.35034 0.46049 0.29315 0.0
C1857 C 0.33497 0.44089 0.28665 0.0
C1858 C 0.33917 0.43288 0.27511 0.0
C1859 C 0.35872 0.44391 0.27045 0.0
C1860 C 0.31481 0.42851 0.29217 0.0
C1861 C 0.2961 0.42227 0.28428 0.0
C1862 C 0.31408 0.42342 0.30533 0.0
C1863 C 0.33317 0.42823 0.31387 0.0
C1864 C 0.34641 0.421 0.30969 0.0
C1865 C 0.36446 0.42574 0.31773 0.0
C1866 C 0.36935 0.43755 0.33004 0.0
C1867 C 0.35618 0.44462 0.33433 0.0
C1868 C 0.33812 0.43995 0.32632 0.0
C1869 C 0.22094 0.36512 0.30789 0.0
C1870 C 0.21918 0.37203 0.32064 0.0
C1871 C 0.23933 0.37638 0.30202 0.0
C1872 C 0.25601 0.39523 0.30857 0.0
C1873 C 0.25401 0.4023 0.32126 0.0
C1874 C 0.23586 0.39066 0.32731 0.0
C1875 C 0.27598 0.40697 0.30261 0.0
C1876 C 0.29474 0.4129 0.31039 0.0
C1877 C 0.27671 0.41168 0.28933 0.0
C1878 C 0.25763 0.40629 0.28061 0.0
C1879 C 0.24485 0.41449 0.284 0.0
C1880 C 0.22673 0.40909 0.27579 0.0
C1881 C 0.2212 0.39543 0.26423 0.0
C1882 C 0.23385 0.38724 0.26076 0.0
C1883 C 0.25211 0.39277 0.26885 0.0
H1884 H 0.20729 0.39145 0.25786 0.0
H1885 H 0.38333 0.4412 0.33625 0.0
H1886 H 0.51429 0.89446 0.25239 0.0
H1887 H 0.53743 0.88204 0.26061 0.0
H1888 H 0.52785 0.89484 0.30066 0.0
H1889 H 0.50504 0.90763 0.29253 0.0
H1890 H 0.56912 0.91036 0.29762 0.0
H1891 H 0.50423 0.84508 0.28597 0.0
H1892 H 0.47341 0.8188 0.27105 0.0
H1893 H 0.51335 0.81239 0.24472 0.0
H1894 H 0.54444 0.83886 0.25941 0.0
H1895 H 0.60956 0.8582 0.33313 0.0
H1896 H 0.5867 0.86915 0.32276 0.0
H1897 H 0.59714 0.85075 0.28423 0.0
H1898 H 0.61983 0.83926 0.29459 0.0
H1899 H 0.55678 0.8387 0.28504 0.0
H1900 H 0.62155 0.90255 0.29666 0.0
H1901 H 0.65279 0.92899 0.31121 0.0
H1902 H 0.61396 0.93878 0.33686 0.0
H1903 H 0.58245 0.91217 0.32257 0.0
C1904 C 0.51713 0.89464 0.26295 0.0
C1905 C 0.50781 0.902 0.27181 0.0
C1906 C 0.53023 0.8874 0.26762 0.0
C1907 C 0.53426 0.8874 0.28124 0.0
C1908 C 0.52492 0.89467 0.29011 0.0
C1909 C 0.51175 0.90181 0.28544 0.0
C1910 C 0.54864 0.88037 0.28633 0.0
C1911 C 0.5663 0.89461 0.29499 0.0
C1912 C 0.54533 0.86007 0.28253 0.0
C1913 C 0.52666 0.84412 0.27372 0.0
C1914 C 0.50645 0.8382 0.27694 0.0
C1915 C 0.48893 0.82324 0.26854 0.0
C1916 C 0.49142 0.81398 0.25693 0.0
C1917 C 0.51144 0.81961 0.25371 0.0
C1918 C 0.52901 0.83458 0.26207 0.0
C1919 C 0.60707 0.85648 0.32245 0.0
C1920 C 0.61668 0.84799 0.31469 0.0
C1921 C 0.59402 0.86283 0.31652 0.0
C1922 C 0.59049 0.86113 0.30271 0.0
C1923 C 0.59973 0.8523 0.29491 0.0
C1924 C 0.61273 0.84579 0.30085 0.0
C1925 C 0.5771 0.86859 0.29652 0.0
C1926 C 0.55968 0.85449 0.28762 0.0
C1927 C 0.5807 0.88909 0.30001 0.0
C1928 C 0.59962 0.90523 0.30859 0.0
C1929 C 0.61966 0.91023 0.30546 0.0
C1930 C 0.63742 0.92527 0.31365 0.0
C1931 C 0.63536 0.93552 0.32497 0.0
C1932 C 0.61553 0.93081 0.3281 0.0
C1933 C 0.59771 0.91577 0.31994 0.0
H1934 H 0.64912 0.94716 0.3313 0.0
H1935 H 0.47784 0.80239 0.25044 0.0
H1936 H 0.1555 0.64626 0.28592 0.0
H1937 H 0.15749 0.67691 0.29794 0.0
H1938 H 0.09039 0.64732 0.29252 0.0
H1939 H 0.08803 0.61593 0.28098 0.0
H1940 H 0.11397 0.69068 0.28587 0.0
H1941 H 0.10866 0.64958 0.3213 0.0
H1942 H 0.11757 0.62783 0.33452 0.0
H1943 H 0.18055 0.67921 0.34344 0.0
H1944 H 0.17211 0.70117 0.3301 0.0
H1945 H 0.12197 0.77702 0.32817 0.0
H1946 H 0.11067 0.74168 0.31749 0.0
H1947 H 0.17284 0.75212 0.32686 0.0
H1948 H 0.18391 0.78697 0.33777 0.0
H1949 H 0.14578 0.71506 0.33238 0.0
H1950 H 0.15298 0.75488 0.29534 0.0
H1951 H 0.14584 0.77612 0.28049 0.0
H1952 H 0.08127 0.72771 0.2736 0.0
H1953 H 0.08795 0.70634 0.28858 0.0
C1954 C 0.14107 0.64596 0.28748 0.0
C1955 C 0.12158 0.62843 0.28254 0.0
C1956 C 0.14228 0.66361 0.29428 0.0
C1957 C 0.12409 0.66428 0.29616 0.0
C1958 C 0.1046 0.64705 0.29114 0.0
C1959 C 0.10333 0.62919 0.28448 0.0
C1960 C 0.12573 0.68326 0.30324 0.0
C1961 C 0.1205 0.69588 0.29613 0.0
C1962 C 0.13466 0.6901 0.31651 0.0
C1963 C 0.13978 0.67697 0.32461 0.0
C1964 C 0.12446 0.65619 0.32599 0.0
C1965 C 0.12941 0.64383 0.33352 0.0
C1966 C 0.14962 0.65212 0.33979 0.0
C1967 C 0.1649 0.6728 0.33857 0.0
C1968 C 0.16003 0.68522 0.33103 0.0
C1969 C 0.13315 0.77169 0.32792 0.0
C1970 C 0.15377 0.78463 0.33381 0.0
C1971 C 0.12673 0.75156 0.32177 0.0
C1972 C 0.14094 0.74426 0.32129 0.0
C1973 C 0.16155 0.75732 0.32716 0.0
C1974 C 0.16788 0.77726 0.33337 0.0
C1975 C 0.13459 0.72298 0.31491 0.0
C1976 C 0.13892 0.70983 0.32218 0.0
C1977 C 0.12506 0.7158 0.30172 0.0
C1978 C 0.12092 0.72911 0.2932 0.0
C1979 C 0.1372 0.7489 0.29081 0.0
C1980 C 0.13325 0.76093 0.28234 0.0
C1981 C 0.11311 0.75324 0.27611 0.0
C1982 C 0.09685 0.73363 0.27844 0.0
C1983 C 0.10071 0.72157 0.28692 0.0
H1984 H 0.11009 0.76236 0.26939 0.0
H1985 H 0.15343 0.64252 0.34562 0.0
H1986 H 0.84939 0.02491 0.38701 0.0
H1987 H 0.81984 0.99543 0.37349 0.0
H1988 H 0.77785 0.0126 0.39036 0.0
H1989 H 0.80752 0.0425 0.40386 0.0
H1990 H 0.76407 0.97101 0.39049 0.0
H1991 H 0.78743 0.02005 0.35873 0.0
H1992 H 0.81284 0.04654 0.34586 0.0
H1993 H 0.82735 0.00116 0.32895 0.0
H1994 H 0.80224 0.97446 0.34187 0.0
H1995 H 0.68016 0.88916 0.34549 0.0
H1996 H 0.70474 0.92384 0.35742 0.0
H1997 H 0.75646 0.91824 0.34505 0.0
H1998 H 0.73206 0.88372 0.33321 0.0
H1999 H 0.76189 0.9567 0.34204 0.0
H2000 H 0.74321 0.91009 0.37641 0.0
H2001 H 0.71947 0.884 0.39019 0.0
H2002 H 0.69652 0.92495 0.40213 0.0
H2003 H 0.72022 0.95134 0.38842 0.0
C2004 C 0.83396 0.02275 0.38767 0.0
C2005 C 0.83088 0.03619 0.39649 0.0
C2006 C 0.81704 0.00582 0.37994 0.0
C2007 C 0.79666 0.00195 0.3808 0.0
C2008 C 0.79347 0.01534 0.38953 0.0
C2009 C 0.81043 0.03236 0.39727 0.0
C2010 C 0.77873 0.98325 0.37304 0.0
C2011 C 0.76331 0.96809 0.37985 0.0
C2012 C 0.77795 0.9793 0.35919 0.0
C2013 C 0.79303 0.99528 0.35135 0.0
C2014 C 0.79614 0.01576 0.35234 0.0
C2015 C 0.81048 0.03081 0.34502 0.0
C2016 C 0.82173 0.02555 0.33661 0.0
C2017 C 0.81863 0.00521 0.33547 0.0
C2018 C 0.80432 0.9901 0.34278 0.0
C2019 C 0.69678 0.89534 0.34538 0.0
C2020 C 0.70424 0.88374 0.33852 0.0
C2021 C 0.71079 0.91512 0.35218 0.0
C2022 C 0.73244 0.92356 0.35219 0.0
C2023 C 0.73983 0.91206 0.34516 0.0
C2024 C 0.72588 0.89232 0.33842 0.0
C2025 C 0.74758 0.94428 0.35955 0.0
C2026 C 0.76245 0.95982 0.35265 0.0
C2027 C 0.74788 0.94858 0.3733 0.0
C2028 C 0.73329 0.93256 0.38128 0.0
C2029 C 0.73295 0.91343 0.38187 0.0
C2030 C 0.71954 0.89862 0.3897 0.0
C2031 C 0.70641 0.90277 0.39698 0.0
C2032 C 0.70668 0.92175 0.39646 0.0
C2033 C 0.72013 0.93666 0.38869 0.0
H2034 H 0.69613 0.89138 0.4031 0.0
H2035 H 0.83282 0.03722 0.33095 0.0
H2036 H 0.97157 0.78196 0.42068 0.0
H2037 H 0.00497 0.79372 0.4116 0.0
H2038 H 0.97308 0.77515 0.37209 0.0
H2039 H 0.93967 0.76293 0.38108 0.0
H2040 H 1.00035 0.76117 0.37554 0.0
H2041 H 0.00127 0.82659 0.38448 0.0
H2042 H 0.99943 0.8541 0.3984 0.0
H2043 H 0.05232 0.8643 0.42415 0.0
H2044 H 0.0543 0.83664 0.41047 0.0
H2045 H 0.08429 0.80931 0.33731 0.0
H2046 H 0.05271 0.79934 0.34806 0.0
H2047 H 0.08947 0.82263 0.38609 0.0
H2048 H 0.1213 0.83314 0.37536 0.0
H2049 H 0.06061 0.8339 0.38462 0.0
H2050 H 0.06076 0.7697 0.37577 0.0
H2051 H 0.06298 0.74208 0.36225 0.0
H2052 H 0.00847 0.72902 0.33707 0.0
H2053 H 0.0061 0.75678 0.35033 0.0
C2054 C 0.97168 0.78038 0.41006 0.0
C2055 C 0.95295 0.77157 0.4016 0.0
C2056 C 0.99079 0.78725 0.40488 0.0
C2057 C 0.99153 0.78545 0.39116 0.0
C2058 C 0.97288 0.77674 0.38271 0.0
C2059 C 0.95381 0.76994 0.38786 0.0
C2060 C 0.01161 0.79208 0.38555 0.0
C2061 C 0.01345 0.77714 0.37739 0.0
C2062 C 0.02893 0.81273 0.38833 0.0
C2063 C 0.02779 0.82939 0.39653 0.0
C2064 C 0.0124 0.83458 0.39317 0.0
C2065 C 0.01135 0.85022 0.40101 0.0
C2066 C 0.02571 0.8609 0.41217 0.0
C2067 C 0.04119 0.85599 0.41551 0.0
C2068 C 0.04229 0.84035 0.40771 0.0
C2069 C 0.08571 0.81232 0.34796 0.0
C2070 C 0.10534 0.8219 0.35547 0.0
C2071 C 0.0676 0.80653 0.3541 0.0
C2072 C 0.06865 0.80991 0.36791 0.0
C2073 C 0.08826 0.81981 0.37543 0.0
C2074 C 0.10643 0.82575 0.36927 0.0
C2075 C 0.04925 0.80307 0.37443 0.0
C2076 C 0.04756 0.81792 0.38279 0.0
C2077 C 0.03208 0.78228 0.37193 0.0
C2078 C 0.03336 0.76545 0.36398 0.0
C2079 C 0.04933 0.76104 0.36729 0.0
C2080 C 0.0506 0.74534 0.35969 0.0
C2081 C 0.0359 0.73384 0.34879 0.0
C2082 C 0.01986 0.73796 0.34551 0.0
C2083 C 0.01853 0.75366 0.35307 0.0
H2084 H 0.03692 0.72169 0.34291 0.0
H2085 H 0.02488 0.87301 0.41822 0.0
H2086 H 0.27717 0.23475 0.38876 0.0
H2087 H 0.25879 0.25184 0.38008 0.0
H2088 H 0.20416 0.19123 0.36775 0.0
H2089 H 0.22247 0.17399 0.37645 0.0
H2090 H 0.21257 0.2164 0.34861 0.0
H2091 H 0.20552 0.22189 0.39469 0.0
H2092 H 0.21726 0.23056 0.41856 0.0
H2093 H 0.25551 0.29565 0.41309 0.0
H2094 H 0.24423 0.28734 0.38915 0.0
H2095 H 0.14654 0.25881 0.33409 0.0
H2096 H 0.16145 0.23907 0.34387 0.0
H2097 H 0.21936 0.29697 0.35589 0.0
H2098 H 0.20457 0.31671 0.34614 0.0
H2099 H 0.20703 0.27146 0.37562 0.0
H2100 H 0.21522 0.26526 0.32929 0.0
H2101 H 0.20311 0.25636 0.30547 0.0
H2102 H 0.16198 0.19209 0.31164 0.0
H2103 H 0.17365 0.20068 0.33554 0.0
C2104 C 0.26116 0.22505 0.38435 0.0
C2105 C 0.25125 0.20301 0.38334 0.0
C2106 C 0.25067 0.23485 0.37938 0.0
C2107 C 0.23001 0.22281 0.3734 0.0
C2108 C 0.2201 0.20081 0.37232 0.0
C2109 C 0.2306 0.191 0.37726 0.0
C2110 C 0.21899 0.23323 0.36797 0.0
C2111 C 0.21104 0.22819 0.35458 0.0
C2112 C 0.21733 0.24888 0.3757 0.0
C2113 C 0.22417 0.25395 0.3901 0.0
C2114 C 0.21657 0.23803 0.39856 0.0
C2115 C 0.22312 0.24288 0.4121 0.0
C2116 C 0.23716 0.26364 0.41733 0.0
C2117 C 0.24465 0.27958 0.40902 0.0
C2118 C 0.23817 0.27481 0.39547 0.0
C2119 C 0.16246 0.26728 0.3388 0.0
C2120 C 0.17442 0.28926 0.3394 0.0
C2121 C 0.17095 0.25601 0.34436 0.0
C2122 C 0.19155 0.26657 0.35053 0.0
C2123 C 0.20342 0.28854 0.35121 0.0
C2124 C 0.19497 0.29979 0.34563 0.0
C2125 C 0.20085 0.25478 0.35625 0.0
C2126 C 0.20845 0.25957 0.3697 0.0
C2127 C 0.20213 0.23886 0.34859 0.0
C2128 C 0.19514 0.23366 0.33422 0.0
C2129 C 0.20347 0.24927 0.32559 0.0
C2130 C 0.1967 0.24427 0.31207 0.0
C2131 C 0.18174 0.22368 0.30705 0.0
C2132 C 0.17354 0.20804 0.31555 0.0
C2133 C 0.18024 0.21296 0.32908 0.0
H2134 H 0.17652 0.21984 0.29658 0.0
H2135 H 0.24221 0.26736 0.42782 0.0
H2136 H 0.6136 0.5127 0.72439 0.0
H2137 H 0.64154 0.54005 0.71357 0.0
H2138 H 0.68754 0.54196 0.74242 0.0
H2139 H 0.65984 0.51459 0.75317 0.0
H2140 H 0.69687 0.58114 0.73751 0.0
H2141 H 0.67678 0.51506 0.71212 0.0
H2142 H 0.65199 0.48128 0.699 0.0
H2143 H 0.63759 0.5138 0.67058 0.0
H2144 H 0.6621 0.54777 0.68363 0.0
H2145 H 0.7895 0.62745 0.70646 0.0
H2146 H 0.75883 0.60456 0.71709 0.0
H2147 H 0.71882 0.60385 0.68432 0.0
H2148 H 0.74956 0.62631 0.6734 0.0
H2149 H 0.70442 0.56587 0.69073 0.0
H2150 H 0.72795 0.63262 0.71507 0.0
H2151 H 0.75311 0.66618 0.72823 0.0
H2152 H 0.76095 0.63283 0.75888 0.0
H2153 H 0.73635 0.59906 0.74575 0.0
C2154 C 0.62966 0.51893 0.72841 0.0
C2155 C 0.63447 0.51143 0.73965 0.0
C2156 C 0.6456 0.53459 0.72224 0.0
C2157 C 0.66663 0.54292 0.72713 0.0
C2158 C 0.67142 0.53583 0.73852 0.0
C2159 C 0.65554 0.52022 0.74468 0.0
C2160 C 0.68377 0.55851 0.72021 0.0
C2161 C 0.69864 0.57779 0.72731 0.0
C2162 C 0.68574 0.55432 0.70681 0.0
C2163 C 0.67108 0.53392 0.69893 0.0
C2164 C 0.6682 0.51499 0.70313 0.0
C2165 C 0.65422 0.49581 0.6957 0.0
C2166 C 0.64317 0.49539 0.68399 0.0
C2167 C 0.64613 0.51415 0.67966 0.0
C2168 C 0.66006 0.53336 0.68707 0.0
C2169 C 0.7742 0.62258 0.70153 0.0
C2170 C 0.77199 0.62879 0.68909 0.0
C2171 C 0.75664 0.60953 0.70767 0.0
C2172 C 0.73647 0.60274 0.70163 0.0
C2173 C 0.73421 0.60894 0.6892 0.0
C2174 C 0.7518 0.62181 0.68297 0.0
C2175 C 0.71779 0.58851 0.70806 0.0
C2176 C 0.7026 0.56943 0.70088 0.0
C2177 C 0.71556 0.59292 0.7214 0.0
C2178 C 0.73041 0.61327 0.72935 0.0
C2179 C 0.7352 0.63243 0.72455 0.0
C2180 C 0.74939 0.6515 0.73201 0.0
C2181 C 0.75873 0.65164 0.74435 0.0
C2182 C 0.75383 0.6327 0.74928 0.0
C2183 C 0.73977 0.61358 0.74183 0.0
H2184 H 0.76969 0.66642 0.75012 0.0
H2185 H 0.63236 0.48053 0.67824 0.0
H2186 H 0.4715 0.07859 0.70902 0.0
H2187 H 0.44978 0.09234 0.70066 0.0
H2188 H 0.45716 0.12417 0.73932 0.0
H2189 H 0.47836 0.10979 0.74791 0.0
H2190 H 0.41736 0.10474 0.72893 0.0
H2191 H 0.48277 0.15171 0.7144 0.0
H2192 H 0.51512 0.16242 0.70389 0.0
H2193 H 0.47906 0.13133 0.66654 0.0
H2194 H 0.44646 0.12016 0.67686 0.0
H2195 H 0.36983 0.16069 0.70346 0.0
H2196 H 0.39504 0.15255 0.71394 0.0
H2197 H 0.3907 0.11583 0.67795 0.0
H2198 H 0.36569 0.12406 0.66733 0.0
H2199 H 0.43097 0.14133 0.68849 0.0
H2200 H 0.36548 0.09215 0.70415 0.0
H2201 H 0.33359 0.08263 0.71498 0.0
H2202 H 0.37097 0.1199 0.75077 0.0
H2203 H 0.40309 0.12981 0.7401 0.0
C2204 C 0.46843 0.08842 0.71578 0.0
C2205 C 0.47663 0.09303 0.72915 0.0
C2206 C 0.45619 0.09647 0.71094 0.0
C2207 C 0.45203 0.1095 0.71932 0.0
C2208 C 0.46024 0.11422 0.73267 0.0
C2209 C 0.47249 0.10613 0.73753 0.0
C2210 C 0.43858 0.11759 0.71415 0.0
C2211 C 0.42055 0.11307 0.72023 0.0
C2212 C 0.44258 0.12826 0.7027 0.0
C2213 C 0.46215 0.13495 0.69643 0.0
C2214 C 0.48172 0.14701 0.70396 0.0
C2215 C 0.50011 0.15319 0.69804 0.0
C2216 C 0.49914 0.14752 0.68457 0.0
C2217 C 0.47978 0.1357 0.67698 0.0
C2218 C 0.46134 0.12946 0.68286 0.0
C2219 C 0.37419 0.15084 0.69776 0.0
C2220 C 0.36565 0.14295 0.68456 0.0
C2221 C 0.38858 0.14618 0.70379 0.0
C2222 C 0.39461 0.13344 0.69676 0.0
C2223 C 0.38626 0.1257 0.68355 0.0
C2224 C 0.37189 0.13035 0.67752 0.0
C2225 C 0.40959 0.12806 0.7031 0.0
C2226 C 0.42792 0.13314 0.69726 0.0
C2227 C 0.40595 0.11808 0.71482 0.0
C2228 C 0.38667 0.11187 0.72129 0.0
C2229 C 0.36689 0.09841 0.7143 0.0
C2230 C 0.34877 0.09292 0.72042 0.0
C2231 C 0.35025 0.1007 0.73354 0.0
C2232 C 0.36985 0.1139 0.7406 0.0
C2233 C 0.38801 0.11944 0.73453 0.0
H2234 H 0.33621 0.09645 0.73826 0.0
H2235 H 0.5134 0.15233 0.68 0.0
H2236 H 0.93508 0.39142 0.72907 0.0
H2237 H 0.9182 0.35455 0.71962 0.0
H2238 H 0.88591 0.36697 0.68809 0.0
H2239 H 0.903 0.40397 0.6974 0.0
H2240 H 0.86037 0.32953 0.70174 0.0
H2241 H 0.92359 0.36276 0.68012 0.0
H2242 H 0.96167 0.38458 0.6797 0.0
H2243 H 0.97124 0.34303 0.70284 0.0
H2244 H 0.9332 0.32112 0.70356 0.0
H2245 H 0.82012 0.23235 0.66182 0.0
H2246 H 0.83646 0.26963 0.67001 0.0
H2247 H 0.88385 0.26526 0.69393 0.0
H2248 H 0.8683 0.22843 0.68513 0.0
H2249 H 0.90167 0.29948 0.6838 0.0
H2250 H 0.84081 0.26682 0.70668 0.0
H2251 H 0.80332 0.24476 0.70908 0.0
H2252 H 0.7897 0.28428 0.68645 0.0
H2253 H 0.8271 0.30642 0.68376 0.0
C2254 C 0.92435 0.38624 0.72014 0.0
C2255 C 0.92034 0.40048 0.71393 0.0
C2256 C 0.91479 0.36526 0.71475 0.0
C2257 C 0.90088 0.35813 0.70317 0.0
C2258 C 0.89662 0.37223 0.69704 0.0
C2259 C 0.90645 0.39331 0.70231 0.0
C2260 C 0.89087 0.33593 0.69744 0.0
C2261 C 0.86928 0.32294 0.69763 0.0
C2262 C 0.9027 0.32734 0.69251 0.0
C2263 C 0.92556 0.34042 0.692 0.0
C2264 C 0.93382 0.35838 0.68522 0.0
C2265 C 0.9554 0.37074 0.68491 0.0
C2266 C 0.96887 0.36523 0.69127 0.0
C2267 C 0.96079 0.3473 0.69793 0.0
C2268 C 0.93922 0.33489 0.69828 0.0
C2269 C 0.83403 0.2394 0.66882 0.0
C2270 C 0.84285 0.2275 0.67294 0.0
C2271 C 0.84328 0.26067 0.67357 0.0
C2272 C 0.8612 0.27024 0.6828 0.0
C2273 C 0.87004 0.25829 0.68685 0.0
C2274 C 0.86105 0.23719 0.68189 0.0
C2275 C 0.87099 0.29276 0.68811 0.0
C2276 C 0.89261 0.30591 0.68786 0.0
C2277 C 0.85923 0.30138 0.69327 0.0
C2278 C 0.83673 0.28815 0.6949 0.0
C2279 C 0.82981 0.27072 0.70214 0.0
C2280 C 0.80857 0.25821 0.70356 0.0
C2281 C 0.79413 0.26308 0.69789 0.0
C2282 C 0.8009 0.28051 0.69081 0.0
C2283 C 0.82211 0.29305 0.68934 0.0
H2284 H 0.7777 0.25338 0.699 0.0
H2285 H 0.98557 0.37482 0.69102 0.0
H2286 H 0.20489 0.93778 0.61081 0.0
H2287 H 0.22557 0.97428 0.62073 0.0
H2288 H 0.17314 0.96728 0.64055 0.0
H2289 H 0.15216 0.93085 0.63038 0.0
H2290 H 0.19143 0.0035 0.6291 0.0
H2291 H 0.2138 0.96794 0.65763 0.0
H2292 H 0.2273 0.9446 0.66317 0.0
H2293 H 0.28393 0.98392 0.64634 0.0
H2294 H 0.27065 0.00735 0.64053 0.0
H2295 H 0.24973 0.10051 0.67074 0.0
H2296 H 0.22726 0.06352 0.66198 0.0
H2297 H 0.27906 0.06449 0.64431 0.0
H2298 H 0.30172 0.10107 0.65358 0.0
H2299 H 0.25988 0.03062 0.65552 0.0
H2300 H 0.2369 0.06583 0.62641 0.0
H2301 H 0.22269 0.08844 0.62045 0.0
H2302 H 0.16685 0.04948 0.63813 0.0
H2303 H 0.18085 0.02685 0.64439 0.0
C2304 C 0.19772 0.94404 0.61722 0.0
C2305 C 0.17688 0.93143 0.61981 0.0
C2306 C 0.20962 0.96484 0.62298 0.0
C2307 C 0.20096 0.97343 0.63149 0.0
C2308 C 0.18014 0.96093 0.63405 0.0
C2309 C 0.16823 0.94009 0.62832 0.0
C2310 C 0.21355 0.99558 0.6375 0.0
C2311 C 0.20627 0.00941 0.63504 0.0
C2312 C 0.23309 0.00333 0.64502 0.0
C2313 C 0.24114 0.98929 0.64854 0.0
C2314 C 0.22907 0.97152 0.65501 0.0
C2315 C 0.23669 0.95829 0.65822 0.0
C2316 C 0.25644 0.96275 0.65508 0.0
C2317 C 0.26863 0.98048 0.64875 0.0
C2318 C 0.26107 0.99375 0.64551 0.0
C2319 C 0.25626 0.0928 0.66495 0.0
C2320 C 0.27741 0.10364 0.66277 0.0
C2321 C 0.24338 0.0717 0.65988 0.0
C2322 C 0.25135 0.06124 0.6523 0.0
C2323 C 0.27251 0.07218 0.6501 0.0
C2324 C 0.28543 0.09313 0.65534 0.0
C2325 C 0.23794 0.03875 0.64698 0.0
C2326 C 0.24505 0.02479 0.64959 0.0
C2327 C 0.21825 0.03091 0.63958 0.0
C2328 C 0.21001 0.04476 0.63598 0.0
C2329 C 0.22168 0.06221 0.62914 0.0
C2330 C 0.21364 0.07501 0.62569 0.0
C2331 C 0.19388 0.07039 0.62892 0.0
C2332 C 0.18215 0.05303 0.63564 0.0
C2333 C 0.19013 0.04022 0.63914 0.0
H2334 H 0.18759 0.08019 0.62618 0.0
H2335 H 0.26232 0.95249 0.65757 0.0
H2336 H 0.04963 0.26149 0.62764 0.0
H2337 H 0.01645 0.24695 0.63699 0.0
H2338 H 0.98793 0.19671 0.60502 0.0
H2339 H 0.02099 0.21184 0.59518 0.0
H2340 H 0.96263 0.21111 0.60977 0.0
H2341 H 0.00065 0.18828 0.63627 0.0
H2342 H 0.03057 0.1914 0.65021 0.0
H2343 H 0.02618 0.23365 0.67909 0.0
H2344 H 0.99641 0.23103 0.66523 0.0
H2345 H 0.87102 0.15732 0.64237 0.0
H2346 H 0.90281 0.16571 0.63219 0.0
H2347 H 0.93824 0.21997 0.66102 0.0
H2348 H 0.9065 0.2115 0.67138 0.0
H2349 H 0.9589 0.19945 0.6571 0.0
H2350 H 0.92278 0.22449 0.62844 0.0
H2351 H 0.89271 0.22027 0.61402 0.0
H2352 H 0.89282 0.17102 0.58923 0.0
H2353 H 0.92286 0.17501 0.60345 0.0
C2354 C 0.03628 0.24749 0.62247 0.0
C2355 C 0.03801 0.23789 0.61061 0.0
C2356 C 0.01735 0.239 0.62795 0.0
C2357 C 0.99976 0.22051 0.62185 0.0
C2358 C 0.00134 0.21091 0.60996 0.0
C2359 C 0.02029 0.21949 0.60441 0.0
C2360 C 0.97968 0.21162 0.62778 0.0
C2361 C 0.96175 0.20822 0.62006 0.0
C2362 C 0.97851 0.20799 0.64125 0.0
C2363 C 0.99638 0.20958 0.64965 0.0
C2364 C 0.00615 0.19836 0.64555 0.0
C2365 C 0.02308 0.20002 0.65345 0.0
C2366 C 0.0303 0.21275 0.66552 0.0
C2367 C 0.02058 0.22381 0.66973 0.0
C2368 C 0.00366 0.22222 0.66187 0.0
C2369 C 0.88556 0.1711 0.64652 0.0
C2370 C 0.8862 0.18391 0.65758 0.0
C2371 C 0.90372 0.17588 0.64068 0.0
C2372 C 0.92285 0.1937 0.64569 0.0
C2373 C 0.92363 0.20618 0.65695 0.0
C2374 C 0.90549 0.20133 0.66286 0.0
C2375 C 0.94207 0.1995 0.63918 0.0
C2376 C 0.9598 0.20223 0.64679 0.0
C2377 C 0.943 0.20229 0.62559 0.0
C2378 C 0.92497 0.19997 0.61704 0.0
C2379 C 0.91632 0.21272 0.61993 0.0
C2380 C 0.89932 0.21041 0.61177 0.0
C2381 C 0.89088 0.19543 0.60069 0.0
C2382 C 0.89933 0.18263 0.5978 0.0
C2383 C 0.91641 0.18498 0.60586 0.0
H2384 H 0.87777 0.1937 0.59435 0.0
H2385 H 0.0434 0.21401 0.67162 0.0
H2386 H 0.83922 0.84309 0.6086 0.0
H2387 H 0.83879 0.81318 0.6176 0.0
H2388 H 0.77146 0.7783 0.61115 0.0
H2389 H 0.77176 0.80823 0.60195 0.0
H2390 H 0.78451 0.776 0.63533 0.0
H2391 H 0.80052 0.76479 0.59247 0.0
H2392 H 0.8182 0.772 0.57219 0.0
H2393 H 0.87568 0.78676 0.59446 0.0
H2394 H 0.85848 0.78003 0.61493 0.0
H2395 H 0.79014 0.68932 0.65954 0.0
H2396 H 0.78215 0.70946 0.64434 0.0
H2397 H 0.84726 0.75767 0.64877 0.0
H2398 H 0.85526 0.73767 0.66384 0.0
H2399 H 0.82948 0.74714 0.62272 0.0
H2400 H 0.81367 0.7641 0.66592 0.0
H2401 H 0.7952 0.75512 0.68589 0.0
H2402 H 0.73622 0.72768 0.66197 0.0
H2403 H 0.75437 0.73627 0.64184 0.0
C2404 C 0.82431 0.82894 0.60885 0.0
C2405 C 0.80552 0.82806 0.60451 0.0
C2406 C 0.8241 0.81181 0.61399 0.0
C2407 C 0.80511 0.79336 0.61487 0.0
C2408 C 0.7863 0.79235 0.61051 0.0
C2409 C 0.78649 0.80951 0.60534 0.0
C2410 C 0.80505 0.77588 0.6213 0.0
C2411 C 0.79399 0.76936 0.63237 0.0
C2412 C 0.81756 0.76732 0.61753 0.0
C2413 C 0.8282 0.77209 0.60529 0.0
C2414 C 0.81699 0.76985 0.59309 0.0
C2415 C 0.82693 0.77379 0.58154 0.0
C2416 C 0.84806 0.77988 0.58204 0.0
C2417 C 0.85932 0.78208 0.59409 0.0
C2418 C 0.84948 0.77819 0.60567 0.0
C2419 C 0.80269 0.70418 0.6572 0.0
C2420 C 0.82327 0.71205 0.66287 0.0
C2421 C 0.79813 0.71565 0.64856 0.0
C2422 C 0.81412 0.73507 0.6455 0.0
C2423 C 0.83471 0.7427 0.651 0.0
C2424 C 0.83923 0.73136 0.65968 0.0
C2425 C 0.80959 0.748 0.63692 0.0
C2426 C 0.81975 0.75359 0.62547 0.0
C2427 C 0.79622 0.75564 0.64028 0.0
C2428 C 0.78535 0.75059 0.65238 0.0
C2429 C 0.79675 0.756 0.66492 0.0
C2430 C 0.78635 0.75101 0.67626 0.0
C2431 C 0.76455 0.74077 0.6752 0.0
C2432 C 0.75311 0.73556 0.66278 0.0
C2433 C 0.76344 0.74049 0.6514 0.0
H2434 H 0.75652 0.73693 0.68399 0.0
H2435 H 0.8557 0.78285 0.57307 0.0
H2436 H 0.043 0.82144 0.6239 0.0
H2437 H 0.0087 0.80249 0.63199 0.0
H2438 H 0.9862 0.75675 0.59762 0.0
H2439 H 0.0206 0.77565 0.58944 0.0
H2440 H 0.95641 0.76976 0.60683 0.0
H2441 H 0.00101 0.74322 0.62198 0.0
H2442 H 0.03375 0.74701 0.63234 0.0
H2443 H 0.02713 0.7757 0.66833 0.0
H2444 H 0.99449 0.77238 0.65809 0.0
H2445 H 0.86966 0.68785 0.63303 0.0
H2446 H 0.90067 0.70901 0.62204 0.0
H2447 H 0.93348 0.74541 0.65937 0.0
H2448 H 0.90287 0.72348 0.67049 0.0
H2449 H 0.95781 0.73717 0.64759 0.0
H2450 H 0.9131 0.76349 0.63335 0.0
H2451 H 0.88051 0.76058 0.6234 0.0
H2452 H 0.8869 0.7339 0.58652 0.0
H2453 H 0.91943 0.73646 0.59629 0.0
C2454 C 0.03062 0.80762 0.61791 0.0
C2455 C 0.03448 0.79994 0.60608 0.0
C2456 C 0.01107 0.79681 0.62256 0.0
C2457 C 0.99501 0.77822 0.61541 0.0
C2458 C 0.99842 0.77111 0.60324 0.0
C2459 C 0.01808 0.78181 0.59865 0.0
C2460 C 0.97553 0.76513 0.62137 0.0
C2461 C 0.95656 0.76243 0.61567 0.0
C2462 C 0.97594 0.75595 0.63301 0.0
C2463 C 0.99544 0.75775 0.63922 0.0
C2464 C 0.00663 0.7505 0.63206 0.0
C2465 C 0.02515 0.75254 0.63792 0.0
C2466 C 0.03255 0.76165 0.65097 0.0
C2467 C 0.0214 0.76868 0.65821 0.0
C2468 C 0.00289 0.76672 0.65239 0.0
C2469 C 0.88351 0.70038 0.63888 0.0
C2470 C 0.88393 0.70398 0.65262 0.0
C2471 C 0.90118 0.7126 0.63256 0.0
C2472 C 0.91937 0.7291 0.63981 0.0
C2473 C 0.91967 0.73278 0.65354 0.0
C2474 C 0.90219 0.72024 0.6599 0.0
C2475 C 0.93843 0.74197 0.63326 0.0
C2476 C 0.95744 0.74454 0.6388 0.0
C2477 C 0.93799 0.75119 0.62157 0.0
C2478 C 0.91865 0.75003 0.61559 0.0
C2479 C 0.90752 0.75693 0.62313 0.0
C2480 C 0.88907 0.75536 0.61753 0.0
C2481 C 0.88165 0.74706 0.60435 0.0
C2482 C 0.89269 0.74035 0.59673 0.0
C2483 C 0.91116 0.74189 0.60229 0.0
H2484 H 0.86736 0.74583 0.60004 0.0
H2485 H 0.04689 0.76321 0.65549 0.0
H2486 H 0.17467 0.2434 0.62764 0.0
H2487 H 0.19764 0.23052 0.63497 0.0
H2488 H 0.19994 0.21151 0.5945 0.0
H2489 H 0.1761 0.22352 0.58707 0.0
H2490 H 0.19695 0.18252 0.60999 0.0
H2491 H 0.24027 0.2568 0.61091 0.0
H2492 H 0.25098 0.29404 0.61648 0.0
H2493 H 0.25529 0.2872 0.65783 0.0
H2494 H 0.24431 0.24982 0.65251 0.0
H2495 H 0.28454 0.16972 0.628 0.0
H2496 H 0.26209 0.18144 0.61764 0.0
H2497 H 0.25381 0.20243 0.6561 0.0
H2498 H 0.27645 0.19121 0.66649 0.0
H2499 H 0.26152 0.23119 0.63952 0.0
H2500 H 0.2163 0.15586 0.63806 0.0
H2501 H 0.20663 0.11905 0.63202 0.0
H2502 H 0.20683 0.12837 0.59091 0.0
H2503 H 0.21695 0.16542 0.59675 0.0
C2504 C 0.17972 0.23615 0.62028 0.0
C2505 C 0.17355 0.23456 0.60675 0.0
C2506 C 0.19309 0.22902 0.62449 0.0
C2507 C 0.20084 0.22041 0.61527 0.0
C2508 C 0.19428 0.21824 0.60178 0.0
C2509 C 0.18079 0.22528 0.59755 0.0
C2510 C 0.216 0.21399 0.61977 0.0
C2511 C 0.21123 0.19325 0.61629 0.0
C2512 C 0.23457 0.22794 0.62806 0.0
C2513 C 0.2413 0.25046 0.63131 0.0
C2514 C 0.24336 0.26319 0.62119 0.0
C2515 C 0.2495 0.28433 0.62431 0.0
C2516 C 0.25377 0.29297 0.6375 0.0
C2517 C 0.25196 0.28049 0.64761 0.0
C2518 C 0.2458 0.25933 0.64455 0.0
C2519 C 0.27791 0.1768 0.63425 0.0
C2520 C 0.28228 0.1795 0.64809 0.0
C2521 C 0.26504 0.18344 0.62831 0.0
C2522 C 0.25613 0.19266 0.6361 0.0
C2523 C 0.26055 0.19541 0.64989 0.0
C2524 C 0.27347 0.18891 0.65582 0.0
C2525 C 0.24223 0.19958 0.63002 0.0
C2526 C 0.2473 0.22049 0.63317 0.0
C2527 C 0.22404 0.18582 0.62136 0.0
C2528 C 0.21759 0.16346 0.61785 0.0
C2529 C 0.21442 0.1501 0.62774 0.0
C2530 C 0.20885 0.12918 0.62435 0.0
C2531 C 0.20614 0.12136 0.61108 0.0
C2532 C 0.20896 0.13445 0.60118 0.0
C2533 C 0.21462 0.15541 0.60453 0.0
H2534 H 0.20183 0.10517 0.60845 0.0
H2535 H 0.25852 0.30934 0.63989 0.0
H2536 H 0.81938 0.97294 0.632 0.0
H2537 H 0.81839 0.0017 0.64439 0.0
H2538 H 0.76073 0.98551 0.62137 0.0
H2539 H 0.76123 0.95616 0.60909 0.0
H2540 H 0.79014 0.02738 0.62231 0.0
H2541 H 0.75961 0.97766 0.65307 0.0
H2542 H 0.75596 0.95045 0.66719 0.0
H2543 H 0.81475 0.9942 0.68948 0.0
H2544 H 0.81892 0.02161 0.67537 0.0
H2545 H 0.78861 0.11065 0.66182 0.0
H2546 H 0.77741 0.07535 0.65113 0.0
H2547 H 0.83262 0.07864 0.67013 0.0
H2548 H 0.84388 0.1138 0.68073 0.0
H2549 H 0.79787 0.04056 0.6712 0.0
H2550 H 0.83056 0.08818 0.6385 0.0
H2551 H 0.83531 0.11508 0.62381 0.0
H2552 H 0.77282 0.07506 0.60504 0.0
H2553 H 0.76762 0.04799 0.61974 0.0
C2554 C 0.80614 0.97504 0.62977 0.0
C2555 C 0.79037 0.96214 0.61952 0.0
C2556 C 0.80566 0.9916 0.63685 0.0
C2557 C 0.78943 0.99568 0.63385 0.0
C2558 C 0.77341 0.98263 0.62382 0.0
C2559 C 0.77379 0.96593 0.61679 0.0
C2560 C 0.79013 0.01446 0.64062 0.0
C2561 C 0.79132 0.03006 0.63299 0.0
C2562 C 0.79206 0.01809 0.65456 0.0
C2563 C 0.78964 0.00166 0.66309 0.0
C2564 C 0.77185 0.98144 0.66092 0.0
C2565 C 0.76967 0.96599 0.66893 0.0
C2566 C 0.78513 0.97058 0.67921 0.0
C2567 C 0.80279 0.99066 0.68151 0.0
C2568 C 0.80505 0.00617 0.67352 0.0
C2569 C 0.79831 0.10379 0.66369 0.0
C2570 C 0.81719 0.11498 0.67199 0.0
C2571 C 0.7919 0.08366 0.6576 0.0
C2572 C 0.80427 0.07445 0.65977 0.0
C2573 C 0.82283 0.08544 0.66834 0.0
C2574 C 0.82927 0.10554 0.67436 0.0
C2575 C 0.79837 0.05363 0.65289 0.0
C2576 C 0.79625 0.03767 0.66051 0.0
C2577 C 0.79565 0.0497 0.63894 0.0
C2578 C 0.79862 0.06616 0.63031 0.0
C2579 C 0.81775 0.08521 0.63134 0.0
C2580 C 0.82054 0.10047 0.62299 0.0
C2581 C 0.80436 0.09678 0.61351 0.0
C2582 C 0.78533 0.07789 0.6124 0.0
C2583 C 0.78245 0.06258 0.62073 0.0
H2584 H 0.80659 0.10847 0.60696 0.0
H2585 H 0.78341 0.9586 0.6854 0.0
H2586 H 0.47861 0.35407 0.74815 0.0
H2587 H 0.44923 0.32262 0.73564 0.0
H2588 H 0.47724 0.34216 0.69956 0.0
H2589 H 0.50658 0.37372 0.71199 0.0
H2590 H 0.43398 0.32538 0.69648 0.0
H2591 H 0.48472 0.30881 0.71491 0.0
H2592 H 0.50697 0.30616 0.73271 0.0
H2593 H 0.45258 0.26503 0.75093 0.0
H2594 H 0.43001 0.26791 0.73344 0.0
H2595 H 0.39706 0.21125 0.66796 0.0
H2596 H 0.42199 0.24466 0.68088 0.0
H2597 H 0.37147 0.25468 0.69009 0.0
H2598 H 0.34637 0.22118 0.67704 0.0
H2599 H 0.42477 0.25686 0.70709 0.0
H2600 H 0.3916 0.30902 0.69195 0.0
H2601 H 0.37055 0.31137 0.67319 0.0
H2602 H 0.3922 0.28068 0.64659 0.0
H2603 H 0.41358 0.2784 0.66516 0.0
C2604 C 0.47831 0.35185 0.73752 0.0
C2605 C 0.49494 0.36628 0.73104 0.0
C2606 C 0.46158 0.33384 0.7304 0.0
C2607 C 0.46117 0.33001 0.7167 0.0
C2608 C 0.47728 0.34484 0.71013 0.0
C2609 C 0.49409 0.36276 0.71725 0.0
C2610 C 0.44473 0.30991 0.70931 0.0
C2611 C 0.43184 0.31038 0.69885 0.0
C2612 C 0.44211 0.29037 0.71234 0.0
C2613 C 0.45569 0.28883 0.72296 0.0
C2614 C 0.47751 0.29944 0.72281 0.0
C2615 C 0.49018 0.29788 0.73285 0.0
C2616 C 0.4812 0.28555 0.743 0.0
C2617 C 0.45952 0.27471 0.74312 0.0
C2618 C 0.44679 0.27632 0.73316 0.0
C2619 C 0.39127 0.22062 0.67269 0.0
C2620 C 0.36982 0.21368 0.67153 0.0
C2621 C 0.40551 0.23963 0.68011 0.0
C2622 C 0.39859 0.25216 0.68641 0.0
C2623 C 0.37714 0.24531 0.68523 0.0
C2624 C 0.36284 0.22618 0.67783 0.0
C2625 C 0.41397 0.27229 0.69427 0.0
C2626 C 0.42668 0.27183 0.70484 0.0
C2627 C 0.41654 0.2918 0.69125 0.0
C2628 C 0.40398 0.29333 0.67997 0.0
C2629 C 0.39191 0.30283 0.68209 0.0
C2630 C 0.37992 0.30415 0.67149 0.0
C2631 C 0.37998 0.29611 0.65871 0.0
C2632 C 0.3921 0.28681 0.6565 0.0
C2633 C 0.40413 0.28548 0.66706 0.0
H2634 H 0.37068 0.29713 0.65053 0.0
H2635 H 0.49103 0.2843 0.75074 0.0
H2636 H 0.6304 0.10908 0.74788 0.0
H2637 H 0.66449 0.124 0.73942 0.0
H2638 H 0.63421 0.10186 0.69959 0.0
H2639 H 0.60009 0.08738 0.7079 0.0
H2640 H 0.66422 0.0911 0.70512 0.0
H2641 H 0.65786 0.15282 0.70999 0.0
H2642 H 0.65231 0.17944 0.72197 0.0
H2643 H 0.70584 0.19718 0.74961 0.0
H2644 H 0.71154 0.17044 0.73791 0.0
H2645 H 0.75049 0.14107 0.66912 0.0
H2646 H 0.71757 0.13069 0.67829 0.0
H2647 H 0.7508 0.15765 0.71711 0.0
H2648 H 0.78396 0.16849 0.70797 0.0
H2649 H 0.71981 0.16619 0.71284 0.0
H2650 H 0.72649 0.10503 0.70847 0.0
H2651 H 0.73243 0.07834 0.69699 0.0
H2652 H 0.6786 0.05906 0.66925 0.0
H2653 H 0.67252 0.08587 0.68046 0.0
C2654 C 0.63097 0.10771 0.7373 0.0
C2655 C 0.61245 0.09694 0.72858 0.0
C2656 C 0.65048 0.11618 0.73249 0.0
C2657 C 0.65186 0.11406 0.71887 0.0
C2658 C 0.63347 0.10357 0.71014 0.0
C2659 C 0.61398 0.09522 0.71492 0.0
C2660 C 0.67243 0.122 0.71373 0.0
C2661 C 0.67628 0.10756 0.70665 0.0
C2662 C 0.68837 0.14337 0.71611 0.0
C2663 C 0.68499 0.15947 0.72316 0.0
C2664 C 0.66833 0.16226 0.7187 0.0
C2665 C 0.66519 0.1774 0.72542 0.0
C2666 C 0.67868 0.18995 0.73657 0.0
C2667 C 0.69538 0.18742 0.74099 0.0
C2668 C 0.69859 0.17229 0.73431 0.0
C2669 C 0.75086 0.14489 0.67961 0.0
C2670 C 0.76987 0.15544 0.68783 0.0
C2671 C 0.73199 0.13888 0.68484 0.0
C2672 C 0.73169 0.14307 0.69843 0.0
C2673 C 0.75067 0.15419 0.7066 0.0
C2674 C 0.76961 0.16032 0.70136 0.0
C2675 C 0.7115 0.1353 0.70409 0.0
C2676 C 0.70775 0.14973 0.71131 0.0
C2677 C 0.69566 0.11386 0.70194 0.0
C2678 C 0.69916 0.0976 0.69524 0.0
C2679 C 0.71601 0.09521 0.69987 0.0
C2680 C 0.71939 0.08004 0.69341 0.0
C2681 C 0.70593 0.06705 0.68237 0.0
C2682 C 0.68902 0.06915 0.67779 0.0
C2683 C 0.68559 0.08432 0.6842 0.0
H2684 H 0.70857 0.05531 0.67739 0.0
H2685 H 0.67622 0.20167 0.74176 0.0
H2686 H 0.88409 0.50721 0.71529 0.0
H2687 H 0.86634 0.52498 0.70666 0.0
H2688 H 0.92447 0.58401 0.71248 0.0
H2689 H 0.94254 0.56634 0.72072 0.0
H2690 H 0.89062 0.58649 0.72152 0.0
H2691 H 0.90752 0.55986 0.68259 0.0
H2692 H 0.90786 0.53246 0.6676 0.0
H2693 H 0.84079 0.49818 0.6622 0.0
H2694 H 0.84005 0.52524 0.67732 0.0
H2695 H 0.86801 0.64897 0.68186 0.0
H2696 H 0.8824 0.62931 0.69213 0.0
H2697 H 0.82345 0.57183 0.68183 0.0
H2698 H 0.80892 0.59154 0.67153 0.0
H2699 H 0.85583 0.56709 0.67559 0.0
H2700 H 0.83775 0.59152 0.71429 0.0
H2701 H 0.8357 0.61694 0.73007 0.0
H2702 H 0.90268 0.65393 0.7361 0.0
H2703 H 0.90511 0.62844 0.72046 0.0
C2704 C 0.89318 0.52394 0.71462 0.0
C2705 C 0.9148 0.53531 0.71867 0.0
C2706 C 0.88297 0.53407 0.70975 0.0
C2707 C 0.89414 0.55577 0.70888 0.0
C2708 C 0.91558 0.56726 0.71313 0.0
C2709 C 0.92585 0.55712 0.7179 0.0
C2710 C 0.88351 0.56648 0.70335 0.0
C2711 C 0.88322 0.58243 0.71143 0.0
C2712 C 0.87331 0.56069 0.69033 0.0
C2713 C 0.87373 0.54446 0.6812 0.0
C2714 C 0.89284 0.54639 0.67829 0.0
C2715 C 0.89311 0.53094 0.66976 0.0
C2716 C 0.87436 0.51356 0.66398 0.0
C2717 C 0.8553 0.51163 0.6667 0.0
C2718 C 0.85495 0.52703 0.67524 0.0
C2719 C 0.85804 0.63219 0.68192 0.0
C2720 C 0.83732 0.62178 0.67598 0.0
C2721 C 0.86626 0.62097 0.68782 0.0
C2722 C 0.85393 0.59913 0.68788 0.0
C2723 C 0.83322 0.58868 0.68192 0.0
C2724 C 0.82494 0.59994 0.67606 0.0
C2725 C 0.86304 0.58722 0.69373 0.0
C2726 C 0.86311 0.57108 0.6857 0.0
C2727 C 0.87286 0.59267 0.70684 0.0
C2728 C 0.8716 0.60819 0.71613 0.0
C2729 C 0.85204 0.60516 0.71892 0.0
C2730 C 0.85081 0.61956 0.72786 0.0
C2731 C 0.86905 0.63717 0.73402 0.0
C2732 C 0.88856 0.64031 0.73131 0.0
C2733 C 0.88988 0.62582 0.72246 0.0
H2734 H 0.86806 0.64834 0.74093 0.0
H2735 H 0.8746 0.50162 0.65737 0.0
H2736 H 0.43657 0.91291 0.18742 0.0
H2737 H 0.44046 0.91766 0.16406 0.0
H2738 H 0.47029 0.98477 0.17357 0.0
H2739 H 0.46743 0.98037 0.19696 0.0
H2740 H 0.43901 0.96747 0.15087 0.0
H2741 H 0.5002 0.96614 0.16918 0.0
H2742 H 0.51801 0.95034 0.18092 0.0
H2743 H 0.48825 0.89614 0.152 0.0
H2744 H 0.47001 0.91151 0.14018 0.0
H2745 H 0.49272 0.01114 0.0963 0.0
H2746 H 0.48024 0.00058 0.11761 0.0
H2747 H 0.46803 0.9379 0.10587 0.0
H2748 H 0.48113 0.94866 0.08462 0.0
H2749 H 0.48674 0.9493 0.12908 0.0
H2750 H 0.42562 0.94879 0.11044 0.0
H2751 H 0.40554 0.96228 0.0986 0.0
H2752 H 0.43231 0.01671 0.12726 0.0
H2753 H 0.45246 0.00349 0.13929 0.0
C2754 C 0.44409 0.92871 0.1846 0.0
C2755 C 0.45176 0.94625 0.19416 0.0
C2756 C 0.44613 0.93136 0.17122 0.0
C2757 C 0.45568 0.95156 0.16714 0.0
C2758 C 0.46273 0.96904 0.17654 0.0
C2759 C 0.46097 0.96644 0.18992 0.0
C2760 C 0.4593 0.95467 0.15315 0.0
C2761 C 0.44951 0.96362 0.14609 0.0
C2762 C 0.4725 0.94902 0.14684 0.0
C2763 C 0.48356 0.93986 0.15389 0.0
C2764 C 0.49731 0.95077 0.16539 0.0
C2765 C 0.50751 0.94191 0.17205 0.0
C2766 C 0.50421 0.92222 0.16723 0.0
C2767 C 0.49075 0.91138 0.15573 0.0
C2768 C 0.48049 0.92016 0.14905 0.0
C2769 C 0.48709 0.99503 0.09819 0.0
C2770 C 0.48792 0.98074 0.0888 0.0
C2771 C 0.47981 0.98894 0.11036 0.0
C2772 C 0.47281 0.9683 0.11332 0.0
C2773 C 0.47334 0.95391 0.10385 0.0
C2774 C 0.48088 0.96008 0.09173 0.0
C2775 C 0.46653 0.9623 0.12666 0.0
C2776 C 0.47592 0.95287 0.13369 0.0
C2777 C 0.45268 0.96718 0.13286 0.0
C2778 C 0.44071 0.97527 0.12565 0.0
C2779 C 0.42734 0.96372 0.11414 0.0
C2780 C 0.41591 0.97128 0.10743 0.0
C2781 C 0.41777 0.9904 0.11212 0.0
C2782 C 0.43093 0.00192 0.12361 0.0
C2783 C 0.44229 0.99437 0.13041 0.0
H2784 H 0.40895 0.99625 0.10689 0.0
H2785 H 0.51212 0.91539 0.1724 0.0
H2786 H 0.06966 0.56031 0.19639 0.0
H2787 H 0.05048 0.55063 0.1744 0.0
H2788 H 0.03813 0.48712 0.17508 0.0
H2789 H 0.05775 0.49687 0.19708 0.0
H2790 H 0.05301 0.50254 0.1524 0.0
H2791 H 0.99854 0.49673 0.17684 0.0
H2792 H 0.98166 0.50699 0.19352 0.0
H2793 H 0.99365 0.56095 0.17389 0.0
H2794 H 0.01089 0.5512 0.15719 0.0
H2795 H 0.99378 0.47942 0.08908 0.0
H2796 H 0.00209 0.47758 0.11239 0.0
H2797 H 0.02254 0.54333 0.12119 0.0
H2798 H 0.01464 0.54541 0.09799 0.0
H2799 H 0.99808 0.5195 0.13947 0.0
H2800 H 0.05742 0.52742 0.11731 0.0
H2801 H 0.07399 0.51671 0.10063 0.0
H2802 H 0.05172 0.45747 0.11621 0.0
H2803 H 0.03478 0.46775 0.13289 0.0
C2804 C 0.06277 0.54426 0.19189 0.0
C2805 C 0.06527 0.52937 0.19841 0.0
C2806 C 0.05165 0.53868 0.17938 0.0
C2807 C 0.04272 0.5181 0.17315 0.0
C2808 C 0.04483 0.50306 0.17974 0.0
C2809 C 0.05591 0.50862 0.19232 0.0
C2810 C 0.03247 0.51289 0.15943 0.0
C2811 C 0.04064 0.50577 0.14961 0.0
C2812 C 0.01649 0.5173 0.15577 0.0
C2813 C 0.00614 0.52329 0.1658 0.0
C2814 C 0.99773 0.51088 0.17613 0.0
C2815 C 0.98807 0.51659 0.18558 0.0
C2816 C 0.98661 0.53463 0.18478 0.0
C2817 C 0.99479 0.54698 0.1745 0.0
C2818 C 0.00449 0.54135 0.16503 0.0
C2819 C 1.00015 0.49351 0.09598 0.0
C2820 C 0.00356 0.51257 0.09167 0.0
C2821 C 0.00478 0.49239 0.10929 0.0
C2822 C 0.01298 0.51034 0.11849 0.0
C2823 C 0.01608 0.52926 0.11426 0.0
C2824 C 0.0115 0.5304 0.10099 0.0
C2825 C 0.01909 0.50983 0.13249 0.0
C2826 C 0.01013 0.51587 0.14233 0.0
C2827 C 0.03427 0.50433 0.13617 0.0
C2828 C 0.04463 0.49825 0.12623 0.0
C2829 C 0.05593 0.51205 0.11711 0.0
C2830 C 0.06541 0.50607 0.10767 0.0
C2831 C 0.06385 0.48639 0.10733 0.0
C2832 C 0.05287 0.47269 0.11647 0.0
C2833 C 0.04334 0.47859 0.12592 0.0
H2834 H 0.07118 0.48177 0.1 0.0
H2835 H 0.97912 0.53902 0.1921 0.0
H2836 H 0.45776 0.53162 0.19988 0.0
H2837 H 0.46091 0.53258 0.17617 0.0
H2838 H 0.47504 0.48255 0.17589 0.0
H2839 H 0.47209 0.48166 0.1996 0.0
H2840 H 0.50187 0.51291 0.16333 0.0
H2841 H 0.42741 0.47447 0.16231 0.0
H2842 H 0.39292 0.46753 0.16805 0.0
H2843 H 0.40231 0.52325 0.15162 0.0
H2844 H 0.437 0.53069 0.14595 0.0
H2845 H 0.49398 0.48974 0.0944 0.0
H2846 H 0.48474 0.48599 0.11707 0.0
H2847 H 0.48092 0.54242 0.1179 0.0
H2848 H 0.49017 0.54626 0.09514 0.0
H2849 H 0.44832 0.50894 0.12985 0.0
H2850 H 0.52332 0.54717 0.13131 0.0
H2851 H 0.55737 0.55312 0.12531 0.0
H2852 H 0.5461 0.4962 0.14085 0.0
H2853 H 0.51181 0.48973 0.14676 0.0
C2854 C 0.46125 0.52064 0.19472 0.0
C2855 C 0.46473 0.5066 0.2016 0.0
C2856 C 0.46303 0.52118 0.18117 0.0
C2857 C 0.46805 0.50752 0.17422 0.0
C2858 C 0.47121 0.49328 0.18105 0.0
C2859 C 0.46957 0.49282 0.19459 0.0
C2860 C 0.47102 0.50871 0.15997 0.0
C2861 C 0.49 0.51171 0.15601 0.0
C2862 C 0.45576 0.50767 0.15043 0.0
C2863 C 0.4349 0.50325 0.15383 0.0
C2864 C 0.4222 0.48534 0.16003 0.0
C2865 C 0.4026 0.4813 0.16324 0.0
C2866 C 0.39546 0.49497 0.16023 0.0
C2867 C 0.40788 0.51269 0.15396 0.0
C2868 C 0.42751 0.51682 0.15074 0.0
C2869 C 0.49084 0.50116 0.09934 0.0
C2870 C 0.49291 0.51837 0.09307 0.0
C2871 C 0.48566 0.49905 0.11229 0.0
C2872 C 0.48236 0.51404 0.11917 0.0
C2873 C 0.48347 0.53073 0.11274 0.0
C2874 C 0.48888 0.53297 0.09981 0.0
C2875 C 0.47903 0.51294 0.13331 0.0
C2876 C 0.46008 0.51005 0.13723 0.0
C2877 C 0.49424 0.51394 0.14283 0.0
C2878 C 0.51491 0.51786 0.13935 0.0
C2879 C 0.52802 0.53582 0.13334 0.0
C2880 C 0.54738 0.53931 0.12997 0.0
C2881 C 0.55387 0.52502 0.13266 0.0
C2882 C 0.54104 0.50724 0.13876 0.0
C2883 C 0.52164 0.50366 0.14213 0.0
H2884 H 0.56887 0.52775 0.13005 0.0
H2885 H 0.38027 0.49181 0.16273 0.0
H2886 H 0.98666 0.47563 0.79683 0.0
H2887 H 0.98936 0.4745 0.82068 0.0
H2888 H 0.96053 0.51243 0.82553 0.0
H2889 H 0.95843 0.51425 0.80166 0.0
H2890 H 0.99311 0.52506 0.84421 0.0
H2891 H 0.93234 0.46003 0.82684 0.0
H2892 H 0.91202 0.42678 0.81222 0.0
H2893 H 0.95188 0.4049 0.82776 0.0
H2894 H 0.97264 0.43816 0.84234 0.0
H2895 H 0.97004 0.50161 0.9103 0.0
H2896 H 0.96716 0.50534 0.88672 0.0
H2897 H 0.99712 0.46915 0.8789 0.0
H2898 H 1.00038 0.46564 0.90241 0.0
H2899 H 0.96232 0.45592 0.86183 0.0
H2900 H 0.02367 0.52163 0.87874 0.0
H2901 H 0.0438 0.55492 0.89335 0.0
H2902 H 0.00226 0.57543 0.87876 0.0
H2903 H 0.9817 0.54212 0.86419 0.0
C2904 C 0.98114 0.48398 0.80297 0.0
C2905 C 0.97228 0.495 0.79732 0.0
C2906 C 0.9825 0.48314 0.8166 0.0
C2907 C 0.97487 0.49313 0.82487 0.0
C2908 C 0.96642 0.50452 0.81932 0.0
C2909 C 0.96507 0.50539 0.80567 0.0
C2910 C 0.97554 0.49147 0.83928 0.0
C2911 C 0.98611 0.50995 0.84808 0.0
C2912 C 0.96668 0.47174 0.84431 0.0
C2913 C 0.95416 0.45167 0.8356 0.0
C2914 C 0.93687 0.4482 0.82707 0.0
C2915 C 0.92526 0.42934 0.8188 0.0
C2916 C 0.93068 0.41376 0.81904 0.0
C2917 C 0.94771 0.41699 0.82757 0.0
C2918 C 0.95939 0.43584 0.83585 0.0
C2919 C 0.97622 0.49464 0.90358 0.0
C2920 C 0.98539 0.48327 0.90825 0.0
C2921 C 0.97452 0.49674 0.89011 0.0
C2922 C 0.98201 0.48759 0.88108 0.0
C2923 C 0.99114 0.47624 0.8857 0.0
C2924 C 0.9929 0.47418 0.89914 0.0
C2925 C 0.98011 0.4895 0.86675 0.0
C2926 C 0.96925 0.47104 0.85796 0.0
C2927 C 0.98865 0.50923 0.86175 0.0
C2928 C 0.00101 0.52929 0.87048 0.0
C2929 C 0.01872 0.53317 0.87873 0.0
C2930 C 0.03023 0.55205 0.88699 0.0
C2931 C 0.02427 0.56726 0.88701 0.0
C2932 C 0.00683 0.56363 0.87875 0.0
C2933 C 0.99525 0.54475 0.87048 0.0
H2934 H 0.0332 0.58187 0.89341 0.0
H2935 H 0.92167 0.39917 0.81263 0.0
H2936 H 0.57748 0.46585 0.8286 0.0
H2937 H 0.56757 0.47351 0.84978 0.0
H2938 H 0.50876 0.46138 0.83033 0.0
H2939 H 0.51892 0.45427 0.80904 0.0
H2940 H 0.5231 0.49368 0.84828 0.0
H2941 H 0.51297 0.42447 0.84768 0.0
H2942 H 0.52252 0.39699 0.84523 0.0
H2943 H 0.57092 0.4294 0.87751 0.0
H2944 H 0.56184 0.45726 0.88003 0.0
H2945 H 0.46688 0.46946 0.90548 0.0
H2946 H 0.47934 0.46699 0.88422 0.0
H2947 H 0.54226 0.49533 0.90315 0.0
H2948 H 0.53025 0.499 0.9244 0.0
H2949 H 0.52627 0.45559 0.88582 0.0
H2950 H 0.53405 0.52442 0.88636 0.0
H2951 H 0.52199 0.54999 0.88864 0.0
H2952 H 0.47455 0.51536 0.85612 0.0
H2953 H 0.48613 0.48938 0.85378 0.0
C2954 C 0.56245 0.46485 0.82886 0.0
C2955 C 0.54888 0.45931 0.81722 0.0
C2956 C 0.55678 0.46919 0.84096 0.0
C2957 C 0.53723 0.46762 0.8417 0.0
C2958 C 0.52389 0.46265 0.83001 0.0
C2959 C 0.52969 0.45859 0.81787 0.0
C2960 C 0.53055 0.47072 0.85469 0.0
C2961 C 0.52358 0.48516 0.85642 0.0
C2962 C 0.53139 0.45981 0.86541 0.0
C2963 C 0.53686 0.44306 0.86395 0.0
C2964 C 0.52575 0.42582 0.85419 0.0
C2965 C 0.53107 0.41017 0.8528 0.0
C2966 C 0.54736 0.41148 0.86119 0.0
C2967 C 0.55833 0.42843 0.87101 0.0
C2968 C 0.5531 0.44415 0.87243 0.0
C2969 C 0.48345 0.47561 0.90515 0.0
C2970 C 0.49753 0.48447 0.91673 0.0
C2971 C 0.49049 0.47403 0.89297 0.0
C2972 C 0.51169 0.481 0.89216 0.0
C2973 C 0.52582 0.48979 0.90363 0.0
C2974 C 0.51886 0.49172 0.91578 0.0
C2975 C 0.51896 0.47853 0.87935 0.0
C2976 C 0.52592 0.46415 0.87766 0.0
C2977 C 0.51776 0.4892 0.86863 0.0
C2978 C 0.51082 0.50483 0.86999 0.0
C2979 C 0.52092 0.52214 0.87978 0.0
C2980 C 0.5142 0.53673 0.88106 0.0
C2981 C 0.49748 0.53427 0.87255 0.0
C2982 C 0.48748 0.51723 0.86272 0.0
C2983 C 0.49413 0.50258 0.8614 0.0
H2984 H 0.4923 0.54559 0.87356 0.0
H2985 H 0.55144 0.39934 0.8601 0.0
H2986 H 0.53258 0.02054 0.80593 0.0
H2987 H 0.52864 0.01263 0.82883 0.0
H2988 H 0.52468 0.06811 0.83874 0.0
H2989 H 0.52871 0.0762 0.81578 0.0
H2990 H 0.55013 0.06105 0.85798 0.0
H2991 H 0.48152 0.02451 0.83345 0.0
H2992 H 0.45546 0.00094 0.81501 0.0
H2993 H 0.46358 0.95006 0.8258 0.0
H2994 H 0.48995 0.97343 0.8442 0.0
H2995 H 0.50333 0.03604 0.91778 0.0
H2996 H 0.51311 0.04636 0.89587 0.0
H2997 H 0.50421 0.985 0.88404 0.0
H2998 H 0.49397 0.97449 0.90588 0.0
H2999 H 0.4865 0.99526 0.86566 0.0
H3000 H 0.55381 0.0301 0.89042 0.0
H3001 H 0.58073 0.05296 0.90867 0.0
H3002 H 0.57663 0.10594 0.89754 0.0
H3003 H 0.54946 0.08333 0.87932 0.0
C3004 C 0.53124 0.03125 0.81303 0.0
C3005 C 0.53091 0.04897 0.80907 0.0
C3006 C 0.52888 0.02665 0.82608 0.0
C3007 C 0.52625 0.03972 0.83543 0.0
C3008 C 0.5267 0.05785 0.83165 0.0
C3009 C 0.52885 0.06236 0.81854 0.0
C3010 C 0.52182 0.03376 0.84893 0.0
C3011 C 0.53613 0.04681 0.85972 0.0
C3012 C 0.50383 0.01487 0.8511 0.0
C3013 C 0.48786 0.00077 0.84011 0.0
C3014 C 0.47788 0.00834 0.83182 0.0
C3015 C 0.46303 0.99501 0.82139 0.0
C3016 C 0.45791 0.97403 0.81921 0.0
C3017 C 0.46759 0.96632 0.82749 0.0
C3018 C 0.48247 0.9796 0.83792 0.0
C3019 C 0.50374 0.02487 0.91055 0.0
C3020 C 0.49798 0.00449 0.91353 0.0
C3021 C 0.50937 0.03078 0.89804 0.0
C3022 C 0.50968 0.01656 0.88834 0.0
C3023 C 0.5041 0.99625 0.89135 0.0
C3024 C 0.49824 0.99025 0.90382 0.0
C3025 C 0.51485 0.02251 0.87485 0.0
C3026 C 0.50061 0.00948 0.86401 0.0
C3027 C 0.53305 0.04129 0.87266 0.0
C3028 C 0.54945 0.05497 0.88357 0.0
C3029 C 0.55853 0.04659 0.89192 0.0
C3030 C 0.57385 0.05951 0.90225 0.0
C3031 C 0.58034 0.08087 0.90428 0.0
C3032 C 0.57157 0.08938 0.89596 0.0
C3033 C 0.55622 0.07652 0.88562 0.0
H3034 H 0.59221 0.09085 0.91229 0.0
H3035 H 0.44641 0.96374 0.81113 0.0
H3036 H 0.15722 0.31478 0.53586 0.0
H3037 H 0.16142 0.32 0.51267 0.0
H3038 H 0.10104 0.26474 0.50128 0.0
H3039 H 0.09668 0.25941 0.52462 0.0
H3040 H 0.12976 0.26588 0.48573 0.0
H3041 H 0.10671 0.3128 0.49994 0.0
H3042 H 0.10602 0.34051 0.51437 0.0
H3043 H 0.16866 0.3847 0.50716 0.0
H3044 H 0.16985 0.35716 0.49283 0.0
H3045 H 0.13246 0.2951 0.41937 0.0
H3046 H 0.12159 0.28575 0.44128 0.0
H3047 H 0.182 0.33496 0.45933 0.0
H3048 H 0.19328 0.34396 0.43756 0.0
H3049 H 0.14838 0.33496 0.47054 0.0
H3050 H 0.17173 0.2864 0.4578 0.0
H3051 H 0.17174 0.25842 0.44321 0.0
H3052 H 0.10693 0.21702 0.44733 0.0
H3053 H 0.10647 0.24488 0.46181 0.0
C3054 C 0.1447 0.30386 0.52845 0.0
C3055 C 0.1265 0.28682 0.5321 0.0
C3056 C 0.14714 0.30684 0.51519 0.0
C3057 C 0.13139 0.29296 0.50525 0.0
C3058 C 0.11335 0.27568 0.5088 0.0
C3059 C 0.1109 0.27265 0.52212 0.0
C3060 C 0.13408 0.29659 0.49119 0.0
C3061 C 0.13342 0.28083 0.48234 0.0
C3062 C 0.13907 0.31618 0.4868 0.0
C3063 C 0.13842 0.33285 0.49538 0.0
C3064 C 0.1204 0.32838 0.5015 0.0
C3065 C 0.11991 0.34407 0.50966 0.0
C3066 C 0.1373 0.36434 0.5117 0.0
C3067 C 0.1552 0.36898 0.50557 0.0
C3068 C 0.15579 0.35334 0.49742 0.0
C3069 C 0.14355 0.30376 0.42798 0.0
C3070 C 0.16375 0.32035 0.42667 0.0
C3071 C 0.13725 0.29845 0.44049 0.0
C3072 C 0.151 0.30969 0.4519 0.0
C3073 C 0.17112 0.32621 0.45064 0.0
C3074 C 0.17748 0.33139 0.43817 0.0
C3075 C 0.14454 0.30445 0.46522 0.0
C3076 C 0.14445 0.31992 0.47392 0.0
C3077 C 0.13871 0.28457 0.46941 0.0
C3078 C 0.139 0.2678 0.46075 0.0
C3079 C 0.15743 0.27139 0.4555 0.0
C3080 C 0.15753 0.25554 0.44727 0.0
C3081 C 0.13933 0.23598 0.44431 0.0
C3082 C 0.12101 0.2322 0.44961 0.0
C3083 C 0.12082 0.24801 0.45783 0.0
H3084 H 0.13944 0.22372 0.43794 0.0
H3085 H 0.13689 0.37647 0.51802 0.0
H3086 H 0.79072 0.8944 0.51895 0.0
H3087 H 0.77262 0.88617 0.49672 0.0
H3088 H 0.71322 0.85616 0.51257 0.0
H3089 H 0.7312 0.86485 0.53497 0.0
H3090 H 0.71508 0.83329 0.48958 0.0
H3091 H 0.72951 0.90268 0.50439 0.0
H3092 H 0.75157 0.93961 0.51399 0.0
H3093 H 0.79049 0.95185 0.48245 0.0
H3094 H 0.76883 0.91489 0.47276 0.0
H3095 H 0.65563 0.83135 0.43121 0.0
H3096 H 0.67118 0.83623 0.45393 0.0
H3097 H 0.73266 0.87348 0.44165 0.0
H3098 H 0.7172 0.86931 0.41904 0.0
H3099 H 0.72826 0.89218 0.46341 0.0
H3100 H 0.71463 0.82299 0.4487 0.0
H3101 H 0.69311 0.78603 0.43906 0.0
H3102 H 0.65329 0.77323 0.47013 0.0
H3103 H 0.67441 0.81021 0.47986 0.0
C3104 C 0.77381 0.88621 0.51776 0.0
C3105 C 0.76243 0.8805 0.52878 0.0
C3106 C 0.7635 0.8814 0.50503 0.0
C3107 C 0.74162 0.87074 0.50305 0.0
C3108 C 0.73013 0.86438 0.51393 0.0
C3109 C 0.74045 0.86931 0.52671 0.0
C3110 C 0.73088 0.8669 0.48961 0.0
C3111 C 0.71768 0.84613 0.4839 0.0
C3112 C 0.73466 0.88369 0.48216 0.0
C3113 C 0.74765 0.90597 0.48792 0.0
C3114 C 0.74287 0.9132 0.49956 0.0
C3115 C 0.75529 0.93415 0.50501 0.0
C3116 C 0.77245 0.94805 0.49885 0.0
C3117 C 0.7772 0.94105 0.48721 0.0
C3118 C 0.76485 0.92011 0.48173 0.0
C3119 C 0.67245 0.84061 0.43337 0.0
C3120 C 0.68519 0.84989 0.42333 0.0
C3121 C 0.68133 0.84322 0.44632 0.0
C3122 C 0.7031 0.85505 0.44945 0.0
C3123 C 0.71583 0.86423 0.43944 0.0
C3124 C 0.70698 0.86166 0.4265 0.0
C3125 C 0.71262 0.85852 0.46324 0.0
C3126 C 0.72558 0.87928 0.46906 0.0
C3127 C 0.70866 0.8417 0.47074 0.0
C3128 C 0.69597 0.81943 0.46493 0.0
C3129 C 0.70118 0.81234 0.45342 0.0
C3130 C 0.68907 0.79138 0.44795 0.0
C3131 C 0.67181 0.7773 0.45396 0.0
C3132 C 0.66665 0.78416 0.46547 0.0
C3133 C 0.67869 0.80511 0.47098 0.0
H3134 H 0.66246 0.76108 0.44971 0.0
H3135 H 0.78204 0.96426 0.50308 0.0
H3136 H 0.16832 0.8525 0.53866 0.0
H3137 H 0.1741 0.85476 0.5154 0.0
H3138 H 0.10862 0.83195 0.50482 0.0
H3139 H 0.10252 0.82883 0.52809 0.0
H3140 H 0.1229 0.81364 0.48807 0.0
H3141 H 0.14439 0.8839 0.5056 0.0
H3142 H 0.16352 0.9162 0.52117 0.0
H3143 H 0.22193 0.92345 0.51119 0.0
H3144 H 0.20315 0.89101 0.49569 0.0
H3145 H 0.1372 0.84433 0.42266 0.0
H3146 H 0.12831 0.84074 0.44541 0.0
H3147 H 0.19223 0.86071 0.4591 0.0
H3148 H 0.20118 0.86404 0.43641 0.0
H3149 H 0.17696 0.88087 0.47397 0.0
H3150 H 0.15505 0.80966 0.45703 0.0
H3151 H 0.13568 0.77743 0.44141 0.0
H3152 H 0.07759 0.77233 0.45014 0.0
H3153 H 0.09665 0.80472 0.46569 0.0
C3154 C 0.15507 0.84769 0.53139 0.0
C3155 C 0.13495 0.84049 0.53525 0.0
C3156 C 0.15845 0.84922 0.5181 0.0
C3157 C 0.14184 0.84383 0.5084 0.0
C3158 C 0.12167 0.83631 0.51216 0.0
C3159 C 0.11825 0.8347 0.52547 0.0
C3160 C 0.14565 0.84611 0.49433 0.0
C3161 C 0.13448 0.82842 0.48494 0.0
C3162 C 0.16099 0.86532 0.4903 0.0
C3163 C 0.17235 0.88491 0.49957 0.0
C3164 C 0.16132 0.89229 0.5068 0.0
C3165 C 0.1721 0.91064 0.5156 0.0
C3166 C 0.19392 0.92185 0.51719 0.0
C3167 C 0.20502 0.91475 0.50996 0.0
C3168 C 0.19431 0.89639 0.50115 0.0
C3169 C 0.14931 0.84774 0.43049 0.0
C3170 C 0.16991 0.8545 0.42771 0.0
C3171 C 0.14422 0.84574 0.44349 0.0
C3172 C 0.1596 0.85036 0.45393 0.0
C3173 C 0.18015 0.85715 0.45119 0.0
C3174 C 0.18525 0.85913 0.43822 0.0
C3175 C 0.15441 0.84835 0.46775 0.0
C3176 C 0.1653 0.86612 0.47709 0.0
C3177 C 0.13877 0.82925 0.47171 0.0
C3178 C 0.12729 0.80973 0.46241 0.0
C3179 C 0.13816 0.80176 0.45554 0.0
C3180 C 0.12723 0.78345 0.44671 0.0
C3181 C 0.10542 0.77287 0.44476 0.0
C3182 C 0.09449 0.78056 0.45165 0.0
C3183 C 0.10534 0.79888 0.46048 0.0
H3184 H 0.09699 0.75869 0.43792 0.0
H3185 H 0.20224 0.93605 0.52401 0.0
H3186 H 0.63236 0.79786 0.1291 0.0
H3187 H 0.6328 0.79689 0.15295 0.0
H3188 H 0.65303 0.86295 0.15847 0.0
H3189 H 0.65353 0.86427 0.13458 0.0
H3190 H 0.67471 0.85401 0.17583 0.0
H3191 H 0.6024 0.82547 0.16163 0.0
H3192 H 0.56872 0.8021 0.1482 0.0
H3193 H 0.56769 0.74824 0.16247 0.0
H3194 H 0.60152 0.77127 0.17584 0.0
H3195 H 0.65624 0.85137 0.24377 0.0
H3196 H 0.65361 0.8552 0.22021 0.0
H3197 H 0.63852 0.7911 0.2106 0.0
H3198 H 0.64156 0.78725 0.23407 0.0
H3199 H 0.61312 0.80109 0.19563 0.0
H3200 H 0.68676 0.83012 0.20868 0.0
H3201 H 0.72034 0.85382 0.22213 0.0
H3202 H 0.71832 0.90742 0.21006 0.0
H3203 H 0.68455 0.88402 0.19667 0.0
C3204 C 0.63712 0.81225 0.13538 0.0
C3205 C 0.64294 0.83116 0.12992 0.0
C3206 C 0.63711 0.81161 0.14901 0.0
C3207 C 0.64264 0.82978 0.15749 0.0
C3208 C 0.64859 0.84871 0.1521 0.0
C3209 C 0.6487 0.8494 0.13844 0.0
C3210 C 0.64263 0.82901 0.17199 0.0
C3211 C 0.66111 0.8427 0.18018 0.0
C3212 C 0.625 0.81402 0.17765 0.0
C3213 C 0.60459 0.8001 0.16966 0.0
C3214 C 0.59507 0.80863 0.16183 0.0
C3215 C 0.57594 0.79545 0.15424 0.0
C3216 C 0.56609 0.7737 0.15446 0.0
C3217 C 0.57534 0.76509 0.1623 0.0
C3218 C 0.59449 0.77821 0.1699 0.0
C3219 C 0.65248 0.83812 0.23665 0.0
C3220 C 0.64918 0.81901 0.24083 0.0
C3221 C 0.6509 0.84032 0.2232 0.0
C3222 C 0.64601 0.82347 0.21368 0.0
C3223 C 0.64223 0.80426 0.2178 0.0
C3224 C 0.6439 0.80207 0.23123 0.0
C3225 C 0.64524 0.82591 0.19939 0.0
C3226 C 0.62662 0.81253 0.19126 0.0
C3227 C 0.66269 0.84125 0.1938 0.0
C3228 C 0.68302 0.85532 0.2018 0.0
C3229 C 0.69339 0.84696 0.20898 0.0
C3230 C 0.71247 0.86034 0.21658 0.0
C3231 C 0.72143 0.88211 0.21698 0.0
C3232 C 0.71134 0.89055 0.20976 0.0
C3233 C 0.69224 0.87724 0.20216 0.0
H3234 H 0.73621 0.89245 0.22286 0.0
H3235 H 0.55128 0.76352 0.14857 0.0
H3236 H 0.24843 0.81086 0.16031 0.0
H3237 H 0.23966 0.81945 0.18167 0.0
H3238 H 0.17859 0.80302 0.16376 0.0
H3239 H 0.18737 0.79465 0.14227 0.0
H3240 H 0.19721 0.83954 0.18226 0.0
H3241 H 0.18327 0.76792 0.17913 0.0
H3242 H 0.19257 0.7404 0.17548 0.0
H3243 H 0.24136 0.7708 0.2077 0.0
H3244 H 0.23253 0.79869 0.21142 0.0
H3245 H 0.13993 0.81955 0.23764 0.0
H3246 H 0.15341 0.81841 0.21658 0.0
H3247 H 0.20944 0.82553 0.23717 0.0
H3248 H 0.19562 0.82567 0.25827 0.0
H3249 H 0.19574 0.79589 0.21757 0.0
H3250 H 0.20901 0.86614 0.2221 0.0
H3251 H 0.20093 0.89449 0.226 0.0
H3252 H 0.15558 0.86858 0.19182 0.0
H3253 H 0.16315 0.83987 0.18781 0.0
C3254 C 0.23328 0.80947 0.16085 0.0
C3255 C 0.21855 0.802 0.14961 0.0
C3256 C 0.22826 0.81426 0.17308 0.0
C3257 C 0.20842 0.81167 0.1743 0.0
C3258 C 0.19397 0.80508 0.16301 0.0
C3259 C 0.19895 0.80016 0.15078 0.0
C3260 C 0.20228 0.81456 0.18748 0.0
C3261 C 0.19668 0.8299 0.18997 0.0
C3262 C 0.2022 0.80236 0.19762 0.0
C3263 C 0.20738 0.7855 0.19546 0.0
C3264 C 0.19609 0.76882 0.18537 0.0
C3265 C 0.20125 0.75314 0.1833 0.0
C3266 C 0.21758 0.75388 0.19133 0.0
C3267 C 0.22874 0.77027 0.20147 0.0
C3268 C 0.22365 0.78601 0.20357 0.0
C3269 C 0.15508 0.82076 0.2377 0.0
C3270 C 0.16664 0.82263 0.24966 0.0
C3271 C 0.1629 0.82039 0.22564 0.0
C3272 C 0.18258 0.82217 0.22528 0.0
C3273 C 0.19426 0.82423 0.2372 0.0
C3274 C 0.18639 0.82448 0.24927 0.0
C3275 C 0.1905 0.82086 0.21243 0.0
C3276 C 0.19641 0.80573 0.20996 0.0
C3277 C 0.19106 0.83343 0.20238 0.0
C3278 C 0.18653 0.85074 0.20471 0.0
C3279 C 0.1972 0.86639 0.21546 0.0
C3280 C 0.19273 0.88254 0.21769 0.0
C3281 C 0.17772 0.88331 0.20918 0.0
C3282 C 0.16719 0.86796 0.1984 0.0
C3283 C 0.17158 0.85175 0.19614 0.0
H3284 H 0.17428 0.89583 0.21092 0.0
H3285 H 0.22156 0.74173 0.18971 0.0
H3286 H 0.20252 0.36274 0.14417 0.0
H3287 H 0.19963 0.35753 0.16753 0.0
H3288 H 0.18759 0.40875 0.17364 0.0
H3289 H 0.19126 0.41447 0.15031 0.0
H3290 H 0.21124 0.41008 0.19406 0.0
H3291 H 0.14764 0.35604 0.16973 0.0
H3292 H 0.12563 0.32661 0.15252 0.0
H3293 H 0.14972 0.28986 0.16886 0.0
H3294 H 0.1721 0.31918 0.18607 0.0
H3295 H 0.15703 0.37668 0.25161 0.0
H3296 H 0.16797 0.38711 0.22987 0.0
H3297 H 0.18992 0.34302 0.2266 0.0
H3298 H 0.1789 0.33239 0.24828 0.0
H3299 H 0.16214 0.33848 0.20514 0.0
H3300 H 0.2269 0.39449 0.22915 0.0
H3301 H 0.24849 0.42482 0.24595 0.0
H3302 H 0.21901 0.45745 0.23054 0.0
H3303 H 0.19759 0.42752 0.21348 0.0
C3304 C 0.19933 0.37292 0.15053 0.0
C3305 C 0.19691 0.38887 0.14545 0.0
C3306 C 0.19762 0.3699 0.16386 0.0
C3307 C 0.19291 0.38243 0.17231 0.0
C3308 C 0.19116 0.39884 0.16732 0.0
C3309 C 0.19323 0.40209 0.15401 0.0
C3310 C 0.18926 0.37802 0.18621 0.0
C3311 C 0.20033 0.39446 0.19645 0.0
C3312 C 0.17521 0.35759 0.18941 0.0
C3313 C 0.1617 0.33989 0.17911 0.0
C3314 C 0.14835 0.34173 0.1696 0.0
C3315 C 0.1358 0.32507 0.15985 0.0
C3316 C 0.13632 0.3064 0.15958 0.0
C3317 C 0.14935 0.30434 0.16908 0.0
C3318 C 0.16197 0.32097 0.17883 0.0
C3319 C 0.16426 0.36926 0.24627 0.0
C3320 C 0.16695 0.35358 0.25161 0.0
C3321 C 0.17071 0.37541 0.23393 0.0
C3322 C 0.17983 0.3659 0.22666 0.0
C3323 C 0.18299 0.35061 0.23209 0.0
C3324 C 0.17674 0.3446 0.24449 0.0
C3325 C 0.18424 0.37046 0.21292 0.0
C3326 C 0.17316 0.35405 0.20271 0.0
C3327 C 0.19799 0.39092 0.20976 0.0
C3328 C 0.21054 0.40873 0.22014 0.0
C3329 C 0.22495 0.40809 0.22941 0.0
C3330 C 0.23721 0.42523 0.23893 0.0
C3331 C 0.23498 0.44295 0.23938 0.0
C3332 C 0.22067 0.44368 0.23021 0.0
C3333 C 0.20857 0.42671 0.22056 0.0
H3334 H 0.24442 0.45615 0.24681 0.0
H3335 H 0.12658 0.29351 0.15203 0.0
H3336 H 0.82528 0.64924 0.86857 0.0
H3337 H 0.82944 0.65537 0.84547 0.0
H3338 H 0.7677 0.6022 0.83384 0.0
H3339 H 0.76366 0.59571 0.85706 0.0
H3340 H 0.7935 0.6022 0.8173 0.0
H3341 H 0.7773 0.6531 0.83424 0.0
H3342 H 0.77967 0.68149 0.8497 0.0
H3343 H 0.84302 0.7221 0.84204 0.0
H3344 H 0.84115 0.69384 0.82667 0.0
H3345 H 0.79754 0.63837 0.75251 0.0
H3346 H 0.78672 0.62826 0.77432 0.0
H3347 H 0.85009 0.66892 0.79193 0.0
H3348 H 0.86133 0.67829 0.77022 0.0
H3349 H 0.81841 0.67385 0.80438 0.0
H3350 H 0.83383 0.62003 0.78852 0.0
H3351 H 0.8295 0.59133 0.77245 0.0
H3352 H 0.76421 0.55589 0.77739 0.0
H3353 H 0.7681 0.58455 0.79335 0.0
C3354 C 0.81252 0.63895 0.8611 0.0
C3355 C 0.79405 0.62215 0.86462 0.0
C3356 C 0.81489 0.64248 0.8479 0.0
C3357 C 0.7987 0.62953 0.83792 0.0
C3358 C 0.78035 0.61247 0.84137 0.0
C3359 C 0.77806 0.60877 0.85462 0.0
C3360 C 0.80125 0.63384 0.82393 0.0
C3361 C 0.79856 0.61778 0.81444 0.0
C3362 C 0.80791 0.65417 0.82016 0.0
C3363 C 0.80912 0.67128 0.82936 0.0
C3364 C 0.79179 0.66803 0.83591 0.0
C3365 C 0.79304 0.68411 0.84465 0.0
C3366 C 0.8115 0.70358 0.84686 0.0
C3367 C 0.82874 0.70701 0.84032 0.0
C3368 C 0.82758 0.69097 0.83158 0.0
C3369 C 0.80927 0.64496 0.76097 0.0
C3370 C 0.83033 0.6593 0.75955 0.0
C3371 C 0.80299 0.63926 0.77343 0.0
C3372 C 0.8176 0.64796 0.78469 0.0
C3373 C 0.83856 0.66221 0.78334 0.0
C3374 C 0.84491 0.66765 0.77091 0.0
C3375 C 0.8112 0.64241 0.79796 0.0
C3376 C 0.8131 0.65824 0.80727 0.0
C3377 C 0.80349 0.62183 0.80148 0.0
C3378 C 0.80121 0.60453 0.79201 0.0
C3379 C 0.81852 0.6062 0.78609 0.0
C3380 C 0.81615 0.58992 0.77702 0.0
C3381 C 0.79658 0.57182 0.77387 0.0
C3382 C 0.77935 0.56993 0.77982 0.0
C3383 C 0.78163 0.58618 0.78888 0.0
H3384 H 0.79478 0.55924 0.76685 0.0
H3385 H 0.81243 0.71601 0.85363 0.0
H3386 H 0.39048 0.20516 0.8696 0.0
H3387 H 0.37526 0.19819 0.84659 0.0
H3388 H 0.43102 0.20176 0.83354 0.0
H3389 H 0.44633 0.20881 0.85649 0.0
H3390 H 0.4195 0.22401 0.81954 0.0
H3391 H 0.3854 0.15448 0.8329 0.0
H3392 H 0.36469 0.12695 0.84692 0.0
H3393 H 0.31258 0.13612 0.83873 0.0
H3394 H 0.33308 0.16392 0.8248 0.0
H3395 H 0.37937 0.1824 0.75268 0.0
H3396 H 0.39336 0.1864 0.77568 0.0
H3397 H 0.34019 0.18832 0.78886 0.0
H3398 H 0.32635 0.1849 0.76593 0.0
H3399 H 0.35019 0.16272 0.80263 0.0
H3400 H 0.38429 0.2326 0.7899 0.0
H3401 H 0.40486 0.26054 0.77611 0.0
H3402 H 0.4568 0.25078 0.78324 0.0
H3403 H 0.43642 0.22254 0.79694 0.0
C3404 C 0.39939 0.20422 0.86182 0.0
C3405 C 0.41962 0.20758 0.86485 0.0
C3406 C 0.39068 0.20024 0.84869 0.0
C3407 C 0.40194 0.19928 0.83835 0.0
C3408 C 0.42208 0.20249 0.84136 0.0
C3409 C 0.43082 0.20657 0.85447 0.0
C3410 C 0.39306 0.19561 0.82436 0.0
C3411 C 0.40449 0.21042 0.81581 0.0
C3412 C 0.37323 0.17817 0.81957 0.0
C3413 C 0.36085 0.16142 0.82791 0.0
C3414 C 0.36958 0.15074 0.83417 0.0
C3415 C 0.35787 0.13507 0.84209 0.0
C3416 C 0.33735 0.12983 0.84374 0.0
C3417 C 0.32848 0.14021 0.83745 0.0
C3418 C 0.34013 0.15592 0.82954 0.0
C3419 C 0.37072 0.18384 0.76046 0.0
C3420 C 0.35177 0.18342 0.75744 0.0
C3421 C 0.37869 0.18601 0.77359 0.0
C3422 C 0.36785 0.18778 0.78395 0.0
C3423 C 0.34873 0.18689 0.78099 0.0
C3424 C 0.34082 0.18485 0.76788 0.0
C3425 C 0.3767 0.19105 0.79787 0.0
C3426 C 0.36524 0.17622 0.8064 0.0
C3427 C 0.3965 0.20847 0.80266 0.0
C3428 C 0.40875 0.22531 0.79434 0.0
C3429 C 0.40003 0.23626 0.78842 0.0
C3430 C 0.41167 0.25218 0.78065 0.0
C3431 C 0.43211 0.25741 0.77879 0.0
C3432 C 0.44095 0.2467 0.78468 0.0
C3433 C 0.42937 0.23074 0.79247 0.0
H3434 H 0.44113 0.26983 0.77283 0.0
H3435 H 0.32831 0.11768 0.84987 0.0
H3436 H 0.83815 0.20316 0.87571 0.0
H3437 H 0.84151 0.20443 0.85205 0.0
H3438 H 0.78059 0.1489 0.84343 0.0
H3439 H 0.77718 0.14746 0.86717 0.0
H3440 H 0.81076 0.1476 0.82889 0.0
H3441 H 0.78486 0.19404 0.83868 0.0
H3442 H 0.78381 0.22337 0.8509 0.0
H3443 H 0.84498 0.2667 0.84086 0.0
H3444 H 0.84654 0.23756 0.82875 0.0
H3445 H 0.80342 0.15845 0.75994 0.0
H3446 H 0.79611 0.15498 0.78298 0.0
H3447 H 0.85526 0.21118 0.79547 0.0
H3448 H 0.86294 0.21453 0.77254 0.0
H3449 H 0.8233 0.21088 0.80772 0.0
H3450 H 0.85003 0.16444 0.79901 0.0
H3451 H 0.85155 0.13521 0.78701 0.0
H3452 H 0.7891 0.09201 0.79512 0.0
H3453 H 0.78711 0.12106 0.80701 0.0
C3454 C 0.82553 0.19114 0.86878 0.0
C3455 C 0.8074 0.1752 0.87327 0.0
C3456 C 0.8274 0.19197 0.85527 0.0
C3457 C 0.81123 0.17685 0.846 0.0
C3458 C 0.79321 0.16074 0.85044 0.0
C3459 C 0.79124 0.16001 0.86397 0.0
C3460 C 0.81327 0.17796 0.83168 0.0
C3461 C 0.81314 0.16127 0.82418 0.0
C3462 C 0.81678 0.19598 0.82566 0.0
C3463 C 0.81589 0.21357 0.83291 0.0
C3464 C 0.79817 0.20979 0.83917 0.0
C3465 C 0.79747 0.22639 0.84606 0.0
C3466 C 0.81434 0.24688 0.84668 0.0
C3467 C 0.83193 0.25081 0.84039 0.0
C3468 C 0.83273 0.23426 0.8335 0.0
C3469 C 0.81497 0.16997 0.76759 0.0
C3470 C 0.83379 0.18676 0.76436 0.0
C3471 C 0.81073 0.16799 0.78075 0.0
C3472 C 0.8252 0.18276 0.79093 0.0
C3473 C 0.84385 0.19967 0.78775 0.0
C3474 C 0.84815 0.2016 0.77462 0.0
C3475 C 0.82102 0.18062 0.80493 0.0
C3476 C 0.82076 0.19714 0.81238 0.0
C3477 C 0.81718 0.16245 0.81091 0.0
C3478 C 0.81833 0.14496 0.80376 0.0
C3479 C 0.83655 0.14874 0.79813 0.0
C3480 C 0.83751 0.1322 0.79137 0.0
C3481 C 0.8204 0.11178 0.79027 0.0
C3482 C 0.80232 0.10784 0.79595 0.0
C3483 C 0.80127 0.12434 0.80271 0.0
H3484 H 0.82118 0.09899 0.78504 0.0
H3485 H 0.81376 0.25971 0.85202 0.0
H3486 H 0.2737 0.13401 0.46392 0.0
H3487 H 0.27577 0.13388 0.4879 0.0
H3488 H 0.33546 0.19133 0.49205 0.0
H3489 H 0.33351 0.19148 0.46802 0.0
H3490 H 0.33689 0.16413 0.50707 0.0
H3491 H 0.29098 0.1911 0.49991 0.0
H3492 H 0.26049 0.19194 0.48972 0.0
H3493 H 0.21923 0.13336 0.50409 0.0
H3494 H 0.2495 0.13201 0.51421 0.0
H3495 H 0.34143 0.18157 0.57678 0.0
H3496 H 0.33886 0.18639 0.55337 0.0
H3497 H 0.2818 0.1264 0.54613 0.0
H3498 H 0.28411 0.12162 0.56957 0.0
H3499 H 0.27978 0.15715 0.53302 0.0
H3500 H 0.32627 0.12975 0.53912 0.0
H3501 H 0.35701 0.12938 0.54937 0.0
H3502 H 0.39753 0.18993 0.53701 0.0
H3503 H 0.36699 0.19078 0.52686 0.0
C3504 C 0.28715 0.14675 0.46995 0.0
C3505 C 0.30342 0.1628 0.46409 0.0
C3506 C 0.28832 0.14666 0.48366 0.0
C3507 C 0.30565 0.16275 0.49179 0.0
C3508 C 0.32194 0.17877 0.48596 0.0
C3509 C 0.32083 0.1788 0.47224 0.0
C3510 C 0.30704 0.16248 0.50634 0.0
C3511 C 0.32456 0.16298 0.51277 0.0
C3512 C 0.29078 0.16058 0.51376 0.0
C3513 C 0.27252 0.16136 0.50772 0.0
C3514 C 0.27541 0.17831 0.50081 0.0
C3515 C 0.25817 0.1789 0.49506 0.0
C3516 C 0.23794 0.16269 0.49623 0.0
C3517 C 0.23491 0.14589 0.50318 0.0
C3518 C 0.25211 0.14522 0.50894 0.0
C3519 C 0.32817 0.16956 0.57024 0.0
C3520 C 0.31302 0.15116 0.57498 0.0
C3521 C 0.3268 0.17227 0.55686 0.0
C3522 C 0.31026 0.15664 0.54801 0.0
C3523 C 0.29472 0.13861 0.5528 0.0
C3524 C 0.29614 0.13583 0.56616 0.0
C3525 C 0.30954 0.15869 0.53367 0.0
C3526 C 0.29215 0.15848 0.5273 0.0
C3527 C 0.32596 0.16097 0.52631 0.0
C3528 C 0.34434 0.16043 0.53236 0.0
C3529 C 0.34172 0.14306 0.53869 0.0
C3530 C 0.35911 0.14275 0.54446 0.0
C3531 C 0.37921 0.15965 0.54387 0.0
C3532 C 0.38196 0.17687 0.53748 0.0
C3533 C 0.36462 0.17727 0.53171 0.0
H3534 H 0.39265 0.15938 0.54835 0.0
H3535 H 0.22461 0.16318 0.49177 0.0
H3536 H 0.86017 0.09608 0.48746 0.0
H3537 H 0.85101 0.10619 0.50817 0.0
H3538 H 0.89413 0.17147 0.50469 0.0
H3539 H 0.90381 0.1614 0.48406 0.0
H3540 H 0.89818 0.16237 0.52935 0.0
H3541 H 0.84248 0.15262 0.49879 0.0
H3542 H 0.8139 0.13458 0.48067 0.0
H3543 H 0.78047 0.08377 0.50382 0.0
H3544 H 0.80901 0.10136 0.52202 0.0
H3545 H 0.82086 0.16996 0.57589 0.0
H3546 H 0.83332 0.17035 0.55418 0.0
H3547 H 0.86469 0.13801 0.56757 0.0
H3548 H 0.85194 0.13714 0.58917 0.0
H3549 H 0.8244 0.137 0.53699 0.0
H3550 H 0.90869 0.15417 0.55254 0.0
H3551 H 0.93842 0.17661 0.56939 0.0
H3552 H 0.91556 0.21942 0.57488 0.0
H3553 H 0.88568 0.19723 0.5581 0.0
C3554 C 0.86779 0.11259 0.49112 0.0
C3555 C 0.88276 0.12794 0.48414 0.0
C3556 C 0.86239 0.11836 0.5029 0.0
C3557 C 0.87174 0.1396 0.50792 0.0
C3558 C 0.88668 0.155 0.50097 0.0
C3559 C 0.89207 0.14923 0.48915 0.0
C3560 C 0.86619 0.14553 0.52058 0.0
C3561 C 0.88206 0.15689 0.53102 0.0
C3562 C 0.84522 0.13891 0.52264 0.0
C3563 C 0.82797 0.12825 0.51174 0.0
C3564 C 0.82911 0.13752 0.49998 0.0
C3565 C 0.8129 0.12739 0.4897 0.0
C3566 C 0.7954 0.10802 0.49108 0.0
C3567 C 0.79405 0.09877 0.50276 0.0
C3568 C 0.81023 0.10883 0.51307 0.0
C3569 C 0.83037 0.16288 0.5742 0.0
C3570 C 0.83535 0.15346 0.58425 0.0
C3571 C 0.83759 0.16325 0.56183 0.0
C3572 C 0.85008 0.15439 0.5593 0.0
C3573 C 0.85536 0.14526 0.56937 0.0
C3574 C 0.84804 0.14476 0.58171 0.0
C3575 C 0.85631 0.15319 0.54588 0.0
C3576 C 0.84054 0.14264 0.53531 0.0
C3577 C 0.87741 0.161 0.54363 0.0
C3578 C 0.89489 0.17396 0.55411 0.0
C3579 C 0.91 0.16837 0.55735 0.0
C3580 C 0.92688 0.18105 0.56689 0.0
C3581 C 0.92894 0.19948 0.57315 0.0
C3582 C 0.91399 0.20518 0.56998 0.0
C3583 C 0.897 0.19247 0.56053 0.0
H3584 H 0.94202 0.20928 0.58052 0.0
H3585 H 0.78286 0.1002 0.48311 0.0
H3586 H 0.86607 0.75329 0.48466 0.0
H3587 H 0.8623 0.74844 0.50808 0.0
H3588 H 0.85342 0.68622 0.50042 0.0
H3589 H 0.85718 0.69096 0.47711 0.0
H3590 H 0.82387 0.68547 0.51412 0.0
H3591 H 0.89874 0.72718 0.51683 0.0
H3592 H 0.93255 0.75798 0.51371 0.0
H3593 H 0.91803 0.79797 0.53775 0.0
H3594 H 0.88399 0.76743 0.54086 0.0
H3595 H 0.83104 0.65702 0.57708 0.0
H3596 H 0.84088 0.66884 0.55551 0.0
H3597 H 0.84203 0.72657 0.5674 0.0
H3598 H 0.83187 0.71467 0.58906 0.0
H3599 H 0.87485 0.73201 0.55209 0.0
H3600 H 0.80026 0.68962 0.54982 0.0
H3601 H 0.76694 0.65841 0.5532 0.0
H3602 H 0.78143 0.61936 0.5282 0.0
H3603 H 0.81501 0.65031 0.52483 0.0
C3604 C 0.86361 0.73871 0.48802 0.0
C3605 C 0.86175 0.72244 0.47901 0.0
C3606 C 0.86147 0.73595 0.50141 0.0
C3607 C 0.85761 0.71697 0.50602 0.0
C3608 C 0.85625 0.70094 0.49708 0.0
C3609 C 0.85833 0.70365 0.48374 0.0
C3610 C 0.85387 0.71319 0.51998 0.0
C3611 C 0.83515 0.69555 0.52239 0.0
C3612 C 0.86827 0.72668 0.53082 0.0
C3613 C 0.88871 0.74506 0.52894 0.0
C3614 C 0.90267 0.74257 0.52134 0.0
C3615 C 0.92189 0.75997 0.5196 0.0
C3616 C 0.92741 0.77993 0.52549 0.0
C3617 C 0.91372 0.78251 0.53317 0.0
C3618 C 0.89447 0.76516 0.53493 0.0
C3619 C 0.8334 0.67225 0.57513 0.0
C3620 C 0.83032 0.68475 0.58469 0.0
C3621 C 0.83914 0.67903 0.56282 0.0
C3622 C 0.84183 0.69841 0.55978 0.0
C3623 C 0.83994 0.71152 0.56954 0.0
C3624 C 0.83417 0.70471 0.5819 0.0
C3625 C 0.84511 0.70408 0.54611 0.0
C3626 C 0.86359 0.72205 0.54377 0.0
C3627 C 0.83053 0.69088 0.53528 0.0
C3628 C 0.81023 0.67227 0.53716 0.0
C3629 C 0.79641 0.67436 0.54511 0.0
C3630 C 0.77747 0.65671 0.54702 0.0
C3631 C 0.77209 0.63691 0.54094 0.0
C3632 C 0.78563 0.63471 0.53291 0.0
C3633 C 0.80461 0.6523 0.53099 0.0
H3634 H 0.75742 0.62327 0.54243 0.0
H3635 H 0.9423 0.79338 0.52413 0.0
loop_
_geom_bond_atom_site_label_1
_geom_bond_atom_site_label_2
_geom_bond_distance
_geom_bond_site_symmetry_2
_ccdc_geom_bond_type
P0 O11 1.490 . S
P0 C14 1.812 . S
P0 C20 1.803 . S
P0 C26 1.819 . S
H1 C15 0.941 . S
H2 C16 0.939 . S
H3 C18 0.940 . S
H4 C19 0.940 . S
H5 C21 0.939 . S
H6 C22 0.942 . S
H7 C24 0.940 . S
H8 C25 0.939 . S
H9 C27 0.941 . S
H10 C31 0.939 . S
O11 P0 1.490 . S
H12 C28 0.939 . S
H13 C30 0.940 . S
C14 P0 1.812 . S
C14 C15 1.389 . S
C14 C19 1.391 . S
C15 H1 0.941 . S
C15 C14 1.389 . S
C15 C16 1.397 . S
C16 H2 0.939 . S
C16 C15 1.397 . S
C16 C17 1.378 . S
C17 C16 1.378 . S
C17 C18 1.378 . S
C18 H3 0.940 . S
C18 C17 1.378 . S
C18 C19 1.396 . S
C19 H4 0.940 . S
C19 C14 1.391 . S
C19 C18 1.396 . S
C20 P0 1.803 . S
C20 C21 1.378 . S
C20 C25 1.400 . S
C21 H5 0.939 . S
C21 C20 1.378 . S
C21 C22 1.361 . S
C22 H6 0.942 . S
C22 C21 1.361 . S
C22 C23 1.369 . S
C23 C22 1.369 . S
C23 C24 1.404 . S
C24 H7 0.940 . S
C24 C23 1.404 . S
C24 C25 1.389 . S
C25 H8 0.939 . S
C25 C20 1.400 . S
C25 C24 1.389 . S
C26 P0 1.819 . S
C26 C27 1.391 . S
C26 C31 1.391 . S
C27 H9 0.941 . S
C27 C26 1.391 . S
C27 C28 1.396 . S
C28 H12 0.939 . S
C28 C27 1.396 . S
C28 C29 1.397 . S
C29 C28 1.397 . S
C29 C30 1.385 . S
C30 H13 0.940 . S
C30 C29 1.385 . S
C30 C31 1.388 . S
C31 H10 0.939 . S
C31 C26 1.391 . S
C31 C30 1.388 . S
P32 O43 1.490 . S
P32 C46 1.812 . S
P32 C52 1.803 . S
P32 C58 1.819 . S
H33 C47 0.941 . S
H34 C48 0.939 . S
H35 C50 0.940 . S
H36 C51 0.940 . S
H37 C53 0.939 . S
H38 C54 0.942 . S
H39 C56 0.940 . S
H40 C57 0.939 . S
H41 C59 0.941 . S
H42 C63 0.939 . S
O43 P32 1.490 . S
H44 C60 0.939 . S
H45 C62 0.940 . S
C46 P32 1.812 . S
C46 C47 1.389 . S
C46 C51 1.391 . S
C47 H33 0.941 . S
C47 C46 1.389 . S
C47 C48 1.397 . S
C48 H34 0.939 . S
C48 C47 1.397 . S
C48 C49 1.378 . S
C49 C48 1.378 . S
C49 C50 1.378 . S
C50 H35 0.940 . S
C50 C49 1.378 . S
C50 C51 1.396 . S
C51 H36 0.940 . S
C51 C46 1.391 . S
C51 C50 1.396 . S
C52 P32 1.803 . S
C52 C53 1.378 . S
C52 C57 1.400 . S
C53 H37 0.939 . S
C53 C52 1.378 . S
C53 C54 1.361 . S
C54 H38 0.942 . S
C54 C53 1.361 . S
C54 C55 1.369 . S
C55 C54 1.369 . S
C55 C56 1.404 . S
C56 H39 0.940 . S
C56 C55 1.404 . S
C56 C57 1.389 . S
C57 H40 0.939 . S
C57 C52 1.400 . S
C57 C56 1.389 . S
C58 P32 1.819 . S
C58 C59 1.391 . S
C58 C63 1.391 . S
C59 H41 0.941 . S
C59 C58 1.391 . S
C59 C60 1.396 . S
C60 H44 0.939 . S
C60 C59 1.396 . S
C60 C61 1.397 . S
C61 C60 1.397 . S
C61 C62 1.385 . S
C62 H45 0.940 . S
C62 C61 1.385 . S
C62 C63 1.388 . S
C63 H42 0.939 . S
C63 C58 1.391 . S
C63 C62 1.388 . S
P64 O75 1.490 . S
P64 C78 1.812 . S
P64 C84 1.803 . S
P64 C90 1.819 . S
H65 C79 0.941 . S
H66 C80 0.939 . S
H67 C82 0.940 . S
H68 C83 0.940 . S
H69 C85 0.939 . S
H70 C86 0.942 . S
H71 C88 0.940 . S
H72 C89 0.939 . S
H73 C91 0.941 . S
H74 C95 0.939 . S
O75 P64 1.490 . S
H76 C92 0.939 . S
H77 C94 0.940 . S
C78 P64 1.812 . S
C78 C79 1.389 . S
C78 C83 1.391 . S
C79 H65 0.941 . S
C79 C78 1.389 . S
C79 C80 1.397 . S
C80 H66 0.939 . S
C80 C79 1.397 . S
C80 C81 1.378 . S
C81 C80 1.378 . S
C81 C82 1.378 . S
C82 H67 0.940 . S
C82 C81 1.378 . S
C82 C83 1.396 . S
C83 H68 0.940 . S
C83 C78 1.391 . S
C83 C82 1.396 . S
C84 P64 1.803 . S
C84 C85 1.378 . S
C84 C89 1.400 . S
C85 H69 0.939 . S
C85 C84 1.378 . S
C85 C86 1.361 . S
C86 H70 0.942 . S
C86 C85 1.361 . S
C86 C87 1.369 . S
C87 C86 1.369 . S
C87 C88 1.404 . S
C88 H71 0.940 . S
C88 C87 1.404 . S
C88 C89 1.389 . S
C89 H72 0.939 . S
C89 C84 1.400 . S
C89 C88 1.389 . S
C90 P64 1.819 . S
C90 C91 1.391 . S
C90 C95 1.391 . S
C91 H73 0.941 . S
C91 C90 1.391 . S
C91 C92 1.396 . S
C92 H76 0.939 . S
C92 C91 1.396 . S
C92 C93 1.397 . S
C93 C92 1.397 . S
C93 C94 1.385 . S
C94 H77 0.940 . S
C94 C93 1.385 . S
C94 C95 1.388 . S
C95 H74 0.939 . S
C95 C90 1.391 . S
C95 C94 1.388 . S
P96 O107 1.490 . S
P96 C110 1.812 . S
P96 C116 1.803 . S
P96 C122 1.819 . S
H97 C111 0.941 . S
H98 C112 0.939 . S
H99 C114 0.940 . S
H100 C115 0.940 . S
H101 C117 0.939 . S
H102 C118 0.942 . S
H103 C120 0.940 . S
H104 C121 0.939 . S
H105 C123 0.941 . S
H106 C127 0.939 . S
O107 P96 1.490 . S
H108 C124 0.939 . S
H109 C126 0.940 . S
C110 P96 1.812 . S
C110 C111 1.389 . S
C110 C115 1.391 . S
C111 H97 0.941 . S
C111 C110 1.389 . S
C111 C112 1.397 . S
C112 H98 0.939 . S
C112 C111 1.397 . S
C112 C113 1.378 . S
C113 C112 1.378 . S
C113 C114 1.378 . S
C114 H99 0.940 . S
C114 C113 1.378 . S
C114 C115 1.396 . S
C115 H100 0.940 . S
C115 C110 1.391 . S
C115 C114 1.396 . S
C116 P96 1.803 . S
C116 C117 1.378 . S
C116 C121 1.400 . S
C117 H101 0.939 . S
C117 C116 1.378 . S
C117 C118 1.361 . S
C118 H102 0.942 . S
C118 C117 1.361 . S
C118 C119 1.369 . S
C119 C118 1.369 . S
C119 C120 1.404 . S
C120 H103 0.940 . S
C120 C119 1.404 . S
C120 C121 1.389 . S
C121 H104 0.939 . S
C121 C116 1.400 . S
C121 C120 1.389 . S
C122 P96 1.819 . S
C122 C123 1.391 . S
C122 C127 1.391 . S
C123 H105 0.941 . S
C123 C122 1.391 . S
C123 C124 1.396 . S
C124 H108 0.939 . S
C124 C123 1.396 . S
C124 C125 1.397 . S
C125 C124 1.397 . S
C125 C126 1.385 . S
C126 H109 0.940 . S
C126 C125 1.385 . S
C126 C127 1.388 . S
C127 H106 0.939 . S
C127 C122 1.391 . S
C127 C126 1.388 . S
P128 O139 1.490 . S
P128 C142 1.812 . S
P128 C148 1.803 . S
P128 C154 1.819 . S
H129 C143 0.941 . S
H130 C144 0.939 . S
H131 C146 0.940 . S
H132 C147 0.940 . S
H133 C149 0.939 . S
H134 C150 0.942 . S
H135 C152 0.940 . S
H136 C153 0.939 . S
H137 C155 0.941 . S
H138 C159 0.939 . S
O139 P128 1.490 . S
H140 C156 0.939 . S
H141 C158 0.940 . S
C142 P128 1.812 . S
C142 C143 1.389 . S
C142 C147 1.391 . S
C143 H129 0.941 . S
C143 C142 1.389 . S
C143 C144 1.397 . S
C144 H130 0.939 . S
C144 C143 1.397 . S
C144 C145 1.378 . S
C145 C144 1.378 . S
C145 C146 1.378 . S
C146 H131 0.940 . S
C146 C145 1.378 . S
C146 C147 1.396 . S
C147 H132 0.940 . S
C147 C142 1.391 . S
C147 C146 1.396 . S
C148 P128 1.803 . S
C148 C149 1.378 . S
C148 C153 1.400 . S
C149 H133 0.939 . S
C149 C148 1.378 . S
C149 C150 1.361 . S
C150 H134 0.942 . S
C150 C149 1.361 . S
C150 C151 1.369 . S
C151 C150 1.369 . S
C151 C152 1.404 . S
C152 H135 0.940 . S
C152 C151 1.404 . S
C152 C153 1.389 . S
C153 H136 0.939 . S
C153 C148 1.400 . S
C153 C152 1.389 . S
C154 P128 1.819 . S
C154 C155 1.391 . S
C154 C159 1.391 . S
C155 H137 0.941 . S
C155 C154 1.391 . S
C155 C156 1.396 . S
C156 H140 0.939 . S
C156 C155 1.396 . S
C156 C157 1.397 . S
C157 C156 1.397 . S
C157 C158 1.385 . S
C158 H141 0.940 . S
C158 C157 1.385 . S
C158 C159 1.388 . S
C159 H138 0.939 . S
C159 C154 1.391 . S
C159 C158 1.388 . S
P160 O171 1.490 . S
P160 C174 1.812 . S
P160 C180 1.803 . S
P160 C186 1.819 . S
H161 C175 0.941 . S
H162 C176 0.939 . S
H163 C178 0.940 . S
H164 C179 0.940 . S
H165 C181 0.939 . S
H166 C182 0.942 . S
H167 C184 0.940 . S
H168 C185 0.939 . S
H169 C187 0.941 . S
H170 C191 0.939 . S
O171 P160 1.490 . S
H172 C188 0.939 . S
H173 C190 0.940 . S
C174 P160 1.812 . S
C174 C175 1.389 . S
C174 C179 1.391 . S
C175 H161 0.941 . S
C175 C174 1.389 . S
C175 C176 1.397 . S
C176 H162 0.939 . S
C176 C175 1.397 . S
C176 C177 1.378 . S
C177 C176 1.378 . S
C177 C178 1.378 . S
C178 H163 0.940 . S
C178 C177 1.378 . S
C178 C179 1.396 . S
C179 H164 0.940 . S
C179 C174 1.391 . S
C179 C178 1.396 . S
C180 P160 1.803 . S
C180 C181 1.378 . S
C180 C185 1.400 . S
C181 H165 0.939 . S
C181 C180 1.378 . S
C181 C182 1.361 . S
C182 H166 0.942 . S
C182 C181 1.361 . S
C182 C183 1.369 . S
C183 C182 1.369 . S
C183 C184 1.404 . S
C184 H167 0.940 . S
C184 C183 1.404 . S
C184 C185 1.389 . S
C185 H168 0.939 . S
C185 C180 1.400 . S
C185 C184 1.389 . S
C186 P160 1.819 . S
C186 C187 1.391 . S
C186 C191 1.391 . S
C187 H169 0.941 . S
C187 C186 1.391 . S
C187 C188 1.396 . S
C188 H172 0.939 . S
C188 C187 1.396 . S
C188 C189 1.397 . S
C189 C188 1.397 . S
C189 C190 1.385 . S
C190 H173 0.940 . S
C190 C189 1.385 . S
C190 C191 1.388 . S
C191 H170 0.939 . S
C191 C186 1.391 . S
C191 C190 1.388 . S
P192 O203 1.490 1_655 S
P192 C206 1.812 . S
P192 C212 1.803 . S
P192 C218 1.819 . S
H193 C207 0.941 . S
H194 C208 0.939 . S
H195 C210 0.940 . S
H196 C211 0.940 . S
H197 C213 0.939 . S
H198 C214 0.942 . S
H199 C216 0.940 . S
H200 C217 0.939 . S
H201 C219 0.941 1_455 S
H202 C223 0.939 . S
O203 P192 1.490 1_455 S
H204 C220 0.939 1_455 S
H205 C222 0.940 . S
C206 P192 1.812 . S
C206 C207 1.389 . S
C206 C211 1.391 . S
C207 H193 0.941 . S
C207 C206 1.389 . S
C207 C208 1.397 . S
C208 H194 0.939 . S
C208 C207 1.397 . S
C208 C209 1.378 . S
C209 C208 1.378 . S
C209 C210 1.378 . S
C210 H195 0.940 . S
C210 C209 1.378 . S
C210 C211 1.396 . S
C211 H196 0.940 . S
C211 C206 1.391 . S
C211 C210 1.396 . S
C212 P192 1.803 . S
C212 C213 1.378 . S
C212 C217 1.400 . S
C213 H197 0.939 . S
C213 C212 1.378 . S
C213 C214 1.361 . S
C214 H198 0.942 . S
C214 C213 1.361 . S
C214 C215 1.369 . S
C215 C214 1.369 . S
C215 C216 1.404 . S
C216 H199 0.940 . S
C216 C215 1.404 . S
C216 C217 1.389 . S
C217 H200 0.939 . S
C217 C212 1.400 . S
C217 C216 1.389 . S
C218 P192 1.819 . S
C218 C219 1.391 . S
C218 C223 1.391 . S
C219 H201 0.941 1_655 S
C219 C218 1.391 . S
C219 C220 1.396 . S
C220 H204 0.939 1_655 S
C220 C219 1.396 . S
C220 C221 1.397 . S
C221 C220 1.397 . S
C221 C222 1.385 . S
C222 H205 0.940 . S
C222 C221 1.385 . S
C222 C223 1.388 . S
C223 H202 0.939 . S
C223 C218 1.391 . S
C223 C222 1.388 . S
P224 O235 1.490 . S
P224 C238 1.812 . S
P224 C244 1.803 . S
P224 C250 1.819 . S
H225 C239 0.941 . S
H226 C240 0.939 . S
H227 C242 0.940 . S
H228 C243 0.940 . S
H229 C245 0.939 . S
H230 C246 0.942 . S
H231 C248 0.940 . S
H232 C249 0.939 . S
H233 C251 0.941 . S
H234 C255 0.939 . S
O235 P224 1.490 . S
H236 C252 0.939 . S
H237 C254 0.940 . S
C238 P224 1.812 . S
C238 C239 1.389 . S
C238 C243 1.391 . S
C239 H225 0.941 . S
C239 C238 1.389 . S
C239 C240 1.397 . S
C240 H226 0.939 . S
C240 C239 1.397 . S
C240 C241 1.378 . S
C241 C240 1.378 . S
C241 C242 1.378 . S
C242 H227 0.940 . S
C242 C241 1.378 . S
C242 C243 1.396 . S
C243 H228 0.940 . S
C243 C238 1.391 . S
C243 C242 1.396 . S
C244 P224 1.803 . S
C244 C245 1.378 . S
C244 C249 1.400 . S
C245 H229 0.939 . S
C245 C244 1.378 . S
C245 C246 1.361 . S
C246 H230 0.942 . S
C246 C245 1.361 . S
C246 C247 1.369 . S
C247 C246 1.369 . S
C247 C248 1.404 . S
C248 H231 0.940 . S
C248 C247 1.404 . S
C248 C249 1.389 . S
C249 H232 0.939 . S
C249 C244 1.400 . S
C249 C248 1.389 . S
C250 P224 1.819 . S
C250 C251 1.391 . S
C250 C255 1.391 . S
C251 H233 0.941 . S
C251 C250 1.391 . S
C251 C252 1.396 . S
C252 H236 0.939 . S
C252 C251 1.396 . S
C252 C253 1.397 . S
C253 C252 1.397 . S
C253 C254 1.385 . S
C254 H237 0.940 . S
C254 C253 1.385 . S
C254 C255 1.388 . S
C255 H234 0.939 . S
C255 C250 1.391 . S
C255 C254 1.388 . S
P256 O267 1.490 . S
P256 C270 1.812 . S
P256 C276 1.803 . S
P256 C282 1.819 . S
H257 C271 0.941 . S
H258 C272 0.939 . S
H259 C274 0.940 . S
H260 C275 0.940 . S
H261 C277 0.939 . S
H262 C278 0.942 . S
H263 C280 0.940 . S
H264 C281 0.939 . S
H265 C283 0.941 . S
H266 C287 0.939 . S
O267 P256 1.490 . S
H268 C284 0.939 . S
H269 C286 0.940 . S
C270 P256 1.812 . S
C270 C271 1.389 . S
C270 C275 1.391 . S
C271 H257 0.941 . S
C271 C270 1.389 . S
C271 C272 1.397 . S
C272 H258 0.939 . S
C272 C271 1.397 . S
C272 C273 1.378 . S
C273 C272 1.378 . S
C273 C274 1.378 . S
C274 H259 0.940 . S
C274 C273 1.378 . S
C274 C275 1.396 . S
C275 H260 0.940 . S
C275 C270 1.391 . S
C275 C274 1.396 . S
C276 P256 1.803 . S
C276 C277 1.378 . S
C276 C281 1.400 . S
C277 H261 0.939 . S
C277 C276 1.378 . S
C277 C278 1.361 . S
C278 H262 0.942 . S
C278 C277 1.361 . S
C278 C279 1.369 . S
C279 C278 1.369 . S
C279 C280 1.404 . S
C280 H263 0.940 . S
C280 C279 1.404 . S
C280 C281 1.389 . S
C281 H264 0.939 . S
C281 C276 1.400 . S
C281 C280 1.389 . S
C282 P256 1.819 . S
C282 C283 1.391 . S
C282 C287 1.391 . S
C283 H265 0.941 . S
C283 C282 1.391 . S
C283 C284 1.396 . S
C284 H268 0.939 . S
C284 C283 1.396 . S
C284 C285 1.397 . S
C285 C284 1.397 . S
C285 C286 1.385 . S
C286 H269 0.940 . S
C286 C285 1.385 . S
C286 C287 1.388 . S
C287 H266 0.939 . S
C287 C282 1.391 . S
C287 C286 1.388 . S
P288 O299 1.490 . S
P288 C302 1.812 . S
P288 C308 1.803 . S
P288 C314 1.819 . S
H289 C303 0.941 . S
H290 C304 0.939 . S
H291 C306 0.940 . S
H292 C307 0.940 . S
H293 C309 0.939 . S
H294 C310 0.942 . S
H295 C312 0.940 . S
H296 C313 0.939 . S
H297 C315 0.941 . S
H298 C319 0.939 . S
O299 P288 1.490 . S
H300 C316 0.939 . S
H301 C318 0.940 . S
C302 P288 1.812 . S
C302 C303 1.389 . S
C302 C307 1.391 . S
C303 H289 0.941 . S
C303 C302 1.389 . S
C303 C304 1.397 . S
C304 H290 0.939 . S
C304 C303 1.397 . S
C304 C305 1.378 . S
C305 C304 1.378 . S
C305 C306 1.378 . S
C306 H291 0.940 . S
C306 C305 1.378 . S
C306 C307 1.396 . S
C307 H292 0.940 . S
C307 C302 1.391 . S
C307 C306 1.396 . S
C308 P288 1.803 . S
C308 C309 1.378 . S
C308 C313 1.400 . S
C309 H293 0.939 . S
C309 C308 1.378 . S
C309 C310 1.361 . S
C310 H294 0.942 . S
C310 C309 1.361 . S
C310 C311 1.369 . S
C311 C310 1.369 . S
C311 C312 1.404 . S
C312 H295 0.940 . S
C312 C311 1.404 . S
C312 C313 1.389 . S
C313 H296 0.939 . S
C313 C308 1.400 . S
C313 C312 1.389 . S
C314 P288 1.819 . S
C314 C315 1.391 . S
C314 C319 1.391 . S
C315 H297 0.941 . S
C315 C314 1.391 . S
C315 C316 1.396 . S
C316 H300 0.939 . S
C316 C315 1.396 . S
C316 C317 1.397 . S
C317 C316 1.397 . S
C317 C318 1.385 . S
C318 H301 0.940 . S
C318 C317 1.385 . S
C318 C319 1.388 . S
C319 H298 0.939 . S
C319 C314 1.391 . S
C319 C318 1.388 . S
P320 O331 1.490 . S
P320 C334 1.812 . S
P320 C340 1.803 . S
P320 C346 1.819 . S
H321 C335 0.941 . S
H322 C336 0.939 . S
H323 C338 0.940 . S
H324 C339 0.940 . S
H325 C341 0.939 . S
H326 C342 0.942 . S
H327 C344 0.940 . S
H328 C345 0.939 . S
H329 C347 0.941 . S
H330 C351 0.939 . S
O331 P320 1.490 . S
H332 C348 0.939 . S
H333 C350 0.940 . S
C334 P320 1.812 . S
C334 C335 1.389 . S
C334 C339 1.391 . S
C335 H321 0.941 . S
C335 C334 1.389 . S
C335 C336 1.397 . S
C336 H322 0.939 . S
C336 C335 1.397 . S
C336 C337 1.378 . S
C337 C336 1.378 . S
C337 C338 1.378 . S
C338 H323 0.940 . S
C338 C337 1.378 . S
C338 C339 1.396 . S
C339 H324 0.940 . S
C339 C334 1.391 . S
C339 C338 1.396 . S
C340 P320 1.803 . S
C340 C341 1.378 . S
C340 C345 1.400 . S
C341 H325 0.939 . S
C341 C340 1.378 . S
C341 C342 1.361 . S
C342 H326 0.942 . S
C342 C341 1.361 . S
C342 C343 1.369 . S
C343 C342 1.369 . S
C343 C344 1.404 . S
C344 H327 0.940 . S
C344 C343 1.404 . S
C344 C345 1.389 . S
C345 H328 0.939 . S
C345 C340 1.400 . S
C345 C344 1.389 . S
C346 P320 1.819 . S
C346 C347 1.391 . S
C346 C351 1.391 . S
C347 H329 0.941 . S
C347 C346 1.391 . S
C347 C348 1.396 . S
C348 H332 0.939 . S
C348 C347 1.396 . S
C348 C349 1.397 . S
C349 C348 1.397 . S
C349 C350 1.385 . S
C350 H333 0.940 . S
C350 C349 1.385 . S
C350 C351 1.388 . S
C351 H330 0.939 . S
C351 C346 1.391 . S
C351 C350 1.388 . S
P352 O363 1.490 . S
P352 C366 1.812 . S
P352 C372 1.803 . S
P352 C378 1.819 . S
H353 C367 0.941 . S
H354 C368 0.939 . S
H355 C370 0.940 . S
H356 C371 0.940 . S
H357 C373 0.939 . S
H358 C374 0.942 . S
H359 C376 0.940 . S
H360 C377 0.939 . S
H361 C379 0.941 . S
H362 C383 0.939 . S
O363 P352 1.490 . S
H364 C380 0.939 . S
H365 C382 0.940 . S
C366 P352 1.812 . S
C366 C367 1.389 . S
C366 C371 1.391 . S
C367 H353 0.941 . S
C367 C366 1.389 . S
C367 C368 1.397 . S
C368 H354 0.939 . S
C368 C367 1.397 . S
C368 C369 1.378 . S
C369 C368 1.378 . S
C369 C370 1.378 . S
C370 H355 0.940 . S
C370 C369 1.378 . S
C370 C371 1.396 . S
C371 H356 0.940 . S
C371 C366 1.391 . S
C371 C370 1.396 . S
C372 P352 1.803 . S
C372 C373 1.378 . S
C372 C377 1.400 . S
C373 H357 0.939 . S
C373 C372 1.378 . S
C373 C374 1.361 . S
C374 H358 0.942 . S
C374 C373 1.361 . S
C374 C375 1.369 . S
C375 C374 1.369 . S
C375 C376 1.404 . S
C376 H359 0.940 . S
C376 C375 1.404 . S
C376 C377 1.389 . S
C377 H360 0.939 . S
C377 C372 1.400 . S
C377 C376 1.389 . S
C378 P352 1.819 . S
C378 C379 1.391 . S
C378 C383 1.391 . S
C379 H361 0.941 . S
C379 C378 1.391 . S
C379 C380 1.396 . S
C380 H364 0.939 . S
C380 C379 1.396 . S
C380 C381 1.397 . S
C381 C380 1.397 . S
C381 C382 1.385 . S
C382 H365 0.940 . S
C382 C381 1.385 . S
C382 C383 1.388 . S
C383 H362 0.939 . S
C383 C378 1.391 . S
C383 C382 1.388 . S
P384 O395 1.490 . S
P384 C398 1.812 . S
P384 C404 1.803 . S
P384 C410 1.819 . S
H385 C399 0.941 . S
H386 C400 0.939 . S
H387 C402 0.940 . S
H388 C403 0.940 . S
H389 C405 0.939 . S
H390 C406 0.942 . S
H391 C408 0.940 . S
H392 C409 0.939 . S
H393 C411 0.941 . S
H394 C415 0.939 . S
O395 P384 1.490 . S
H396 C412 0.939 . S
H397 C414 0.940 . S
C398 P384 1.812 . S
C398 C399 1.389 . S
C398 C403 1.391 . S
C399 H385 0.941 . S
C399 C398 1.389 . S
C399 C400 1.397 . S
C400 H386 0.939 . S
C400 C399 1.397 . S
C400 C401 1.378 . S
C401 C400 1.378 . S
C401 C402 1.378 . S
C402 H387 0.940 . S
C402 C401 1.378 . S
C402 C403 1.396 . S
C403 H388 0.940 . S
C403 C398 1.391 . S
C403 C402 1.396 . S
C404 P384 1.803 . S
C404 C405 1.378 . S
C404 C409 1.400 . S
C405 H389 0.939 . S
C405 C404 1.378 . S
C405 C406 1.361 . S
C406 H390 0.942 . S
C406 C405 1.361 . S
C406 C407 1.369 . S
C407 C406 1.369 . S
C407 C408 1.404 . S
C408 H391 0.940 . S
C408 C407 1.404 . S
C408 C409 1.389 . S
C409 H392 0.939 . S
C409 C404 1.400 . S
C409 C408 1.389 . S
C410 P384 1.819 . S
C410 C411 1.391 . S
C410 C415 1.391 . S
C411 H393 0.941 . S
C411 C410 1.391 . S
C411 C412 1.396 . S
C412 H396 0.939 . S
C412 C411 1.396 . S
C412 C413 1.397 . S
C413 C412 1.397 . S
C413 C414 1.385 . S
C414 H397 0.940 . S
C414 C413 1.385 . S
C414 C415 1.388 . S
C415 H394 0.939 . S
C415 C410 1.391 . S
C415 C414 1.388 . S
P416 O427 1.490 . S
P416 C430 1.812 . S
P416 C436 1.803 . S
P416 C442 1.819 . S
H417 C431 0.941 . S
H418 C432 0.939 . S
H419 C434 0.940 . S
H420 C435 0.940 . S
H421 C437 0.939 . S
H422 C438 0.942 . S
H423 C440 0.940 . S
H424 C441 0.939 . S
H425 C443 0.941 . S
H426 C447 0.939 . S
O427 P416 1.490 . S
H428 C444 0.939 . S
H429 C446 0.940 . S
C430 P416 1.812 . S
C430 C431 1.389 . S
C430 C435 1.391 . S
C431 H417 0.941 . S
C431 C430 1.389 . S
C431 C432 1.397 . S
C432 H418 0.939 . S
C432 C431 1.397 . S
C432 C433 1.378 . S
C433 C432 1.378 . S
C433 C434 1.378 . S
C434 H419 0.940 . S
C434 C433 1.378 . S
C434 C435 1.396 . S
C435 H420 0.940 . S
C435 C430 1.391 . S
C435 C434 1.396 . S
C436 P416 1.803 . S
C436 C437 1.378 . S
C436 C441 1.400 . S
C437 H421 0.939 . S
C437 C436 1.378 . S
C437 C438 1.361 . S
C438 H422 0.942 . S
C438 C437 1.361 . S
C438 C439 1.369 . S
C439 C438 1.369 . S
C439 C440 1.404 . S
C440 H423 0.940 . S
C440 C439 1.404 . S
C440 C441 1.389 . S
C441 H424 0.939 . S
C441 C436 1.400 . S
C441 C440 1.389 . S
C442 P416 1.819 . S
C442 C443 1.391 . S
C442 C447 1.391 . S
C443 H425 0.941 . S
C443 C442 1.391 . S
C443 C444 1.396 . S
C444 H428 0.939 . S
C444 C443 1.396 . S
C444 C445 1.397 . S
C445 C444 1.397 . S
C445 C446 1.385 . S
C446 H429 0.940 . S
C446 C445 1.385 . S
C446 C447 1.388 . S
C447 H426 0.939 . S
C447 C442 1.391 . S
C447 C446 1.388 . S
P448 O459 1.490 . S
P448 C462 1.812 . S
P448 C468 1.803 . S
P448 C474 1.819 . S
H449 C463 0.941 . S
H450 C464 0.939 . S
H451 C466 0.940 . S
H452 C467 0.940 . S
H453 C469 0.939 . S
H454 C470 0.942 . S
H455 C472 0.940 . S
H456 C473 0.939 . S
H457 C475 0.941 . S
H458 C479 0.939 . S
O459 P448 1.490 . S
H460 C476 0.939 . S
H461 C478 0.940 . S
C462 P448 1.812 . S
C462 C463 1.389 . S
C462 C467 1.391 . S
C463 H449 0.941 . S
C463 C462 1.389 . S
C463 C464 1.397 . S
C464 H450 0.939 . S
C464 C463 1.397 . S
C464 C465 1.378 . S
C465 C464 1.378 . S
C465 C466 1.378 . S
C466 H451 0.940 . S
C466 C465 1.378 . S
C466 C467 1.396 . S
C467 H452 0.940 . S
C467 C462 1.391 . S
C467 C466 1.396 . S
C468 P448 1.803 . S
C468 C469 1.378 . S
C468 C473 1.400 . S
C469 H453 0.939 . S
C469 C468 1.378 . S
C469 C470 1.361 . S
C470 H454 0.942 . S
C470 C469 1.361 . S
C470 C471 1.369 . S
C471 C470 1.369 . S
C471 C472 1.404 . S
C472 H455 0.940 . S
C472 C471 1.404 . S
C472 C473 1.389 . S
C473 H456 0.939 . S
C473 C468 1.400 . S
C473 C472 1.389 . S
C474 P448 1.819 . S
C474 C475 1.391 . S
C474 C479 1.391 . S
C475 H457 0.941 . S
C475 C474 1.391 . S
C475 C476 1.396 . S
C476 H460 0.939 . S
C476 C475 1.396 . S
C476 C477 1.397 . S
C477 C476 1.397 . S
C477 C478 1.385 . S
C478 H461 0.940 . S
C478 C477 1.385 . S
C478 C479 1.388 . S
C479 H458 0.939 . S
C479 C474 1.391 . S
C479 C478 1.388 . S
P480 O491 1.490 . S
P480 C494 1.812 . S
P480 C500 1.803 . S
P480 C506 1.819 . S
H481 C495 0.941 . S
H482 C496 0.939 . S
H483 C498 0.940 . S
H484 C499 0.940 . S
H485 C501 0.939 . S
H486 C502 0.942 . S
H487 C504 0.940 . S
H488 C505 0.939 . S
H489 C507 0.941 . S
H490 C511 0.939 . S
O491 P480 1.490 . S
H492 C508 0.939 . S
H493 C510 0.940 . S
C494 P480 1.812 . S
C494 C495 1.389 . S
C494 C499 1.391 . S
C495 H481 0.941 . S
C495 C494 1.389 . S
C495 C496 1.397 . S
C496 H482 0.939 . S
C496 C495 1.397 . S
C496 C497 1.378 . S
C497 C496 1.378 . S
C497 C498 1.378 . S
C498 H483 0.940 . S
C498 C497 1.378 . S
C498 C499 1.396 . S
C499 H484 0.940 . S
C499 C494 1.391 . S
C499 C498 1.396 . S
C500 P480 1.803 . S
C500 C501 1.378 . S
C500 C505 1.400 . S
C501 H485 0.939 . S
C501 C500 1.378 . S
C501 C502 1.361 . S
C502 H486 0.942 . S
C502 C501 1.361 . S
C502 C503 1.369 . S
C503 C502 1.369 . S
C503 C504 1.404 . S
C504 H487 0.940 . S
C504 C503 1.404 . S
C504 C505 1.389 . S
C505 H488 0.939 . S
C505 C500 1.400 . S
C505 C504 1.389 . S
C506 P480 1.819 . S
C506 C507 1.391 . S
C506 C511 1.391 . S
C507 H489 0.941 . S
C507 C506 1.391 . S
C507 C508 1.396 . S
C508 H492 0.939 . S
C508 C507 1.396 . S
C508 C509 1.397 . S
C509 C508 1.397 . S
C509 C510 1.385 . S
C510 H493 0.940 . S
C510 C509 1.385 . S
C510 C511 1.388 . S
C511 H490 0.939 . S
C511 C506 1.391 . S
C511 C510 1.388 . S
P512 O523 1.490 . S
P512 C526 1.812 . S
P512 C532 1.803 . S
P512 C538 1.819 . S
H513 C527 0.941 . S
H514 C528 0.939 . S
H515 C530 0.940 . S
H516 C531 0.940 . S
H517 C533 0.939 . S
H518 C534 0.942 . S
H519 C536 0.940 . S
H520 C537 0.939 . S
H521 C539 0.941 . S
H522 C543 0.939 . S
O523 P512 1.490 . S
H524 C540 0.939 . S
H525 C542 0.940 . S
C526 P512 1.812 . S
C526 C527 1.389 . S
C526 C531 1.391 . S
C527 H513 0.941 . S
C527 C526 1.389 . S
C527 C528 1.397 . S
C528 H514 0.939 . S
C528 C527 1.397 . S
C528 C529 1.378 . S
C529 C528 1.378 . S
C529 C530 1.378 . S
C530 H515 0.940 . S
C530 C529 1.378 . S
C530 C531 1.396 . S
C531 H516 0.940 . S
C531 C526 1.391 . S
C531 C530 1.396 . S
C532 P512 1.803 . S
C532 C533 1.378 . S
C532 C537 1.400 . S
C533 H517 0.939 . S
C533 C532 1.378 . S
C533 C534 1.361 . S
C534 H518 0.942 . S
C534 C533 1.361 . S
C534 C535 1.369 . S
C535 C534 1.369 . S
C535 C536 1.404 . S
C536 H519 0.940 . S
C536 C535 1.404 . S
C536 C537 1.389 . S
C537 H520 0.939 . S
C537 C532 1.400 . S
C537 C536 1.389 . S
C538 P512 1.819 . S
C538 C539 1.391 . S
C538 C543 1.391 . S
C539 H521 0.941 . S
C539 C538 1.391 . S
C539 C540 1.396 . S
C540 H524 0.939 . S
C540 C539 1.396 . S
C540 C541 1.397 . S
C541 C540 1.397 . S
C541 C542 1.385 . S
C542 H525 0.940 . S
C542 C541 1.385 . S
C542 C543 1.388 . S
C543 H522 0.939 . S
C543 C538 1.391 . S
C543 C542 1.388 . S
P544 O555 1.490 . S
P544 C558 1.812 . S
P544 C564 1.803 . S
P544 C570 1.819 . S
H545 C559 0.941 . S
H546 C560 0.939 . S
H547 C562 0.940 . S
H548 C563 0.940 . S
H549 C565 0.939 . S
H550 C566 0.942 . S
H551 C568 0.940 . S
H552 C569 0.939 . S
H553 C571 0.941 . S
H554 C575 0.939 . S
O555 P544 1.490 . S
H556 C572 0.939 . S
H557 C574 0.940 . S
C558 P544 1.812 . S
C558 C559 1.389 . S
C558 C563 1.391 . S
C559 H545 0.941 . S
C559 C558 1.389 . S
C559 C560 1.397 . S
C560 H546 0.939 . S
C560 C559 1.397 . S
C560 C561 1.378 . S
C561 C560 1.378 . S
C561 C562 1.378 . S
C562 H547 0.940 . S
C562 C561 1.378 . S
C562 C563 1.396 . S
C563 H548 0.940 . S
C563 C558 1.391 . S
C563 C562 1.396 . S
C564 P544 1.803 . S
C564 C565 1.378 . S
C564 C569 1.400 . S
C565 H549 0.939 . S
C565 C564 1.378 . S
C565 C566 1.361 . S
C566 H550 0.942 . S
C566 C565 1.361 . S
C566 C567 1.369 . S
C567 C566 1.369 . S
C567 C568 1.404 . S
C568 H551 0.940 . S
C568 C567 1.404 . S
C568 C569 1.389 . S
C569 H552 0.939 . S
C569 C564 1.400 . S
C569 C568 1.389 . S
C570 P544 1.819 . S
C570 C571 1.391 . S
C570 C575 1.391 . S
C571 H553 0.941 . S
C571 C570 1.391 . S
C571 C572 1.396 . S
C572 H556 0.939 . S
C572 C571 1.396 . S
C572 C573 1.397 . S
C573 C572 1.397 . S
C573 C574 1.385 . S
C574 H557 0.940 . S
C574 C573 1.385 . S
C574 C575 1.388 . S
C575 H554 0.939 . S
C575 C570 1.391 . S
C575 C574 1.388 . S
C576 Eu577 2.835 . S
C576 C578 1.505 . S
C576 O596 1.257 1_545 S
C576 O597 1.260 . S
Eu577 C576 2.835 . S
Eu577 O596 2.473 1_545 S
Eu577 O597 2.480 . S
Eu577 O598 2.430 . S
Eu577 O599 2.670 1_554 S
Eu577 O600 2.394 1_545 S
Eu577 O605 2.355 1_545 S
Eu577 O607 2.374 . S
C578 C576 1.505 . S
C578 C579 1.403 . S
C578 C583 1.347 1_545 S
C579 C578 1.403 . S
C579 C580 1.395 . S
C579 H608 0.931 . S
C580 C579 1.395 . S
C580 C581 1.383 1_545 S
C580 H609 0.931 . S
C581 C580 1.383 1_565 S
C581 C582 1.394 . S
C582 C581 1.394 . S
C582 C583 1.378 . S
C582 H610 0.931 . S
C583 C578 1.347 1_565 S
C583 C582 1.378 . S
C583 H611 0.931 . S
C584 O598 1.259 . S
C584 O599 1.270 1_554 S
C585 O600 1.251 . S
C585 O601 1.251 1_554 S
C586 Eu587 2.835 . S
C586 C588 1.499 . S
C586 O602 1.257 1_565 S
C586 O603 1.260 . S
Eu587 C586 2.835 . S
Eu587 O599 2.355 1_565 S
Eu587 O601 2.374 . S
Eu587 O602 2.473 1_565 S
Eu587 O603 2.480 . S
Eu587 O604 2.430 . S
Eu587 O605 2.670 1_556 S
Eu587 O606 2.394 1_565 S
C588 C586 1.499 . S
C588 C589 1.371 . S
C588 C593 1.384 1_565 S
C589 C588 1.371 . S
C589 C590 1.395 . S
C589 H612 0.931 . S
C590 C589 1.395 . S
C590 C591 1.383 1_565 S
C590 H613 0.931 . S
C591 C590 1.383 1_545 S
C591 C592 1.394 . S
C592 C591 1.394 . S
C592 C593 1.378 . S
C592 H614 0.931 . S
C593 C588 1.384 1_545 S
C593 C592 1.378 . S
C593 H615 0.931 . S
C594 O604 1.259 1_554 S
C594 O605 1.270 . S
C595 O606 1.251 . S
C595 O607 1.251 1_556 S
O596 C576 1.257 1_565 S
O596 Eu577 2.473 1_565 S
O597 C576 1.260 . S
O597 Eu577 2.480 . S
O598 Eu577 2.430 . S
O598 C584 1.259 . S
O599 Eu577 2.670 1_556 S
O599 C584 1.270 1_556 S
O599 Eu587 2.355 1_545 S
O600 Eu577 2.394 1_565 S
O600 C585 1.251 . S
O601 C585 1.251 1_556 S
O601 Eu587 2.374 . S
O602 C586 1.257 1_545 S
O602 Eu587 2.473 1_545 S
O603 C586 1.260 . S
O603 Eu587 2.480 . S
O604 Eu587 2.430 . S
O604 C594 1.259 1_556 S
O605 Eu577 2.355 1_565 S
O605 Eu587 2.670 1_554 S
O605 C594 1.270 . S
O606 Eu587 2.394 1_545 S
O606 C595 1.251 . S
O607 Eu577 2.374 . S
O607 C595 1.251 1_554 S
H608 C579 0.931 . S
H609 C580 0.931 . S
H610 C582 0.931 . S
H611 C583 0.931 . S
H612 C589 0.931 . S
H613 C590 0.931 . S
H614 C592 0.931 . S
H615 C593 0.931 . S
C616 Eu617 2.835 . S
C616 C618 1.500 1_655 S
C616 O636 1.257 1_655 S
C616 O637 1.260 . S
Eu617 C616 2.835 . S
Eu617 O636 2.473 1_655 S
Eu617 O637 2.480 . S
Eu617 O638 2.430 . S
Eu617 O639 2.670 1_554 S
Eu617 O640 2.394 1_655 S
Eu617 O645 2.355 1_655 S
Eu617 O647 2.374 . S
C618 C616 1.500 1_455 S
C618 C619 1.377 1_455 S
C618 C623 1.377 . S
C619 C618 1.377 1_655 S
C619 C620 1.395 . S
C619 H648 0.931 . S
C620 C619 1.395 . S
C620 C621 1.383 1_655 S
C620 H649 0.931 . S
C621 C620 1.383 1_455 S
C621 C622 1.394 . S
C622 C621 1.394 . S
C622 C623 1.378 . S
C622 H650 0.931 . S
C623 C618 1.377 . S
C623 C622 1.378 . S
C623 H651 0.931 . S
C624 O638 1.259 1_556 S
C624 O639 1.270 . S
C625 O640 1.251 . S
C625 O641 1.251 . S
C626 Eu627 2.835 . S
C626 C628 1.500 1_455 S
C626 O642 1.257 1_455 S
C626 O643 1.260 . S
Eu627 C626 2.835 . S
Eu627 O639 2.355 1_455 S
Eu627 O641 2.374 1_556 S
Eu627 O642 2.473 1_455 S
Eu627 O643 2.480 . S
Eu627 O644 2.430 . S
Eu627 O645 2.670 1_556 S
Eu627 O646 2.394 1_455 S
C628 C626 1.500 1_655 S
C628 C629 1.377 1_655 S
C628 C633 1.377 . S
C629 C628 1.377 1_455 S
C629 C630 1.395 . S
C629 H652 0.931 . S
C630 C629 1.395 . S
C630 C631 1.383 1_455 S
C630 H653 0.931 . S
C631 C630 1.383 1_655 S
C631 C632 1.394 . S
C632 C631 1.394 . S
C632 C633 1.378 . S
C632 H654 0.931 . S
C633 C628 1.377 . S
C633 C632 1.378 . S
C633 H655 0.931 . S
C634 O644 1.259 1_554 S
C634 O645 1.270 . S
C635 O646 1.251 . S
C635 O647 1.251 1_556 S
O636 C616 1.257 1_455 S
O636 Eu617 2.473 1_455 S
O637 C616 1.260 . S
O637 Eu617 2.480 . S
O638 Eu617 2.430 . S
O638 C624 1.259 1_554 S
O639 Eu617 2.670 1_556 S
O639 C624 1.270 . S
O639 Eu627 2.355 1_655 S
O640 Eu617 2.394 1_455 S
O640 C625 1.251 . S
O641 C625 1.251 . S
O641 Eu627 2.374 1_554 S
O642 C626 1.257 1_655 S
O642 Eu627 2.473 1_655 S
O643 C626 1.260 . S
O643 Eu627 2.480 . S
O644 Eu627 2.430 . S
O644 C634 1.259 1_556 S
O645 Eu617 2.355 1_455 S
O645 Eu627 2.670 1_554 S
O645 C634 1.270 . S
O646 Eu627 2.394 1_655 S
O646 C635 1.251 . S
O647 Eu617 2.374 . S
O647 C635 1.251 1_554 S
H648 C619 0.931 . S
H649 C620 0.931 . S
H650 C622 0.931 . S
H651 C623 0.931 . S
H652 C629 0.931 . S
H653 C630 0.931 . S
H654 C632 0.931 . S
H655 C633 0.931 . S
C656 Eu657 2.835 . S
C656 C658 1.500 . S
C656 O676 1.257 . S
C656 O677 1.260 . S
Eu657 C656 2.835 . S
Eu657 O676 2.473 . S
Eu657 O677 2.480 . S
Eu657 O678 2.430 . S
Eu657 O679 2.670 1_556 S
Eu657 O680 2.394 . S
Eu657 O685 2.355 . S
Eu657 O687 2.331 1_556 S
C658 C656 1.500 . S
C658 C659 1.377 . S
C658 C663 1.377 . S
C659 C658 1.377 . S
C659 C660 1.395 . S
C659 H688 0.931 . S
C660 C659 1.395 . S
C660 C661 1.383 . S
C660 H689 0.931 . S
C661 C660 1.383 . S
C661 C662 1.394 . S
C662 C661 1.394 . S
C662 C663 1.378 . S
C662 H690 0.931 . S
C663 C658 1.377 . S
C663 C662 1.378 . S
C663 H691 0.931 . S
C664 O678 1.259 1_554 S
C664 O679 1.270 . S
C665 O680 1.251 . S
C665 O681 1.251 1_556 S
C666 Eu667 2.835 . S
C666 C668 1.500 . S
C666 O682 1.257 . S
C666 O683 1.260 . S
Eu667 C666 2.835 . S
Eu667 O679 2.355 . S
Eu667 O681 2.374 . S
Eu667 O682 2.473 . S
Eu667 O683 2.480 . S
Eu667 O684 2.430 . S
Eu667 O685 2.670 1_554 S
Eu667 O686 2.394 . S
C668 C666 1.500 . S
C668 C669 1.377 . S
C668 C673 1.377 . S
C669 C668 1.377 . S
C669 C670 1.395 . S
C669 H692 0.931 . S
C670 C669 1.395 . S
C670 C671 1.383 . S
C670 H693 0.931 . S
C671 C670 1.383 . S
C671 C672 1.394 . S
C672 C671 1.394 . S
C672 C673 1.378 . S
C672 H694 0.931 . S
C673 C668 1.377 . S
C673 C672 1.378 . S
C673 H695 0.931 . S
C674 O684 1.208 1_556 S
C674 O685 1.294 . S
C675 O686 1.251 . S
C675 O687 1.308 . S
O676 C656 1.257 . S
O676 Eu657 2.473 . S
O677 C656 1.260 . S
O677 Eu657 2.480 . S
O678 Eu657 2.430 . S
O678 C664 1.259 1_556 S
O679 Eu657 2.670 1_554 S
O679 C664 1.270 . S
O679 Eu667 2.355 . S
O680 Eu657 2.394 . S
O680 C665 1.251 . S
O681 C665 1.251 1_554 S
O681 Eu667 2.374 . S
O682 C666 1.257 . S
O682 Eu667 2.473 . S
O683 C666 1.260 . S
O683 Eu667 2.480 . S
O684 Eu667 2.430 . S
O684 C674 1.208 1_554 S
O685 Eu657 2.355 . S
O685 Eu667 2.670 1_556 S
O685 C674 1.294 . S
O686 Eu667 2.394 . S
O686 C675 1.251 . S
O687 Eu657 2.331 1_554 S
O687 C675 1.308 . S
H688 C659 0.931 . S
H689 C660 0.931 . S
H690 C662 0.931 . S
H691 C663 0.931 . S
H692 C669 0.931 . S
H693 C670 0.931 . S
H694 C672 0.931 . S
H695 C673 0.931 . S
C696 Eu697 2.835 . S
C696 C698 1.500 . S
C696 O716 1.257 . S
C696 O717 1.260 . S
Eu697 C696 2.835 . S
Eu697 O716 2.473 . S
Eu697 O717 2.480 . S
Eu697 O718 2.430 . S
Eu697 O719 2.670 . S
Eu697 O720 2.394 . S
Eu697 O725 2.355 . S
Eu697 O727 2.374 . S
C698 C696 1.500 . S
C698 C699 1.377 . S
C698 C703 1.377 . S
C699 C698 1.377 . S
C699 C700 1.395 . S
C699 H728 0.931 . S
C700 C699 1.395 . S
C700 C701 1.383 . S
C700 H729 0.931 . S
C701 C700 1.383 . S
C701 C702 1.394 . S
C702 C701 1.394 . S
C702 C703 1.378 . S
C702 H730 0.931 . S
C703 C698 1.377 . S
C703 C702 1.378 . S
C703 H731 0.931 . S
C704 O718 1.259 . S
C704 O719 1.270 . S
C705 O720 1.251 . S
C705 O721 1.251 . S
C706 Eu707 2.835 . S
C706 C708 1.500 . S
C706 O722 1.257 . S
C706 O723 1.260 . S
Eu707 C706 2.835 . S
Eu707 O719 2.355 . S
Eu707 O721 2.374 . S
Eu707 O722 2.473 . S
Eu707 O723 2.480 . S
Eu707 O724 2.430 . S
Eu707 O725 2.670 . S
Eu707 O726 2.394 . S
C708 C706 1.500 . S
C708 C709 1.377 . S
C708 C713 1.377 . S
C709 C708 1.377 . S
C709 C710 1.395 . S
C709 H732 0.931 . S
C710 C709 1.395 . S
C710 C711 1.383 . S
C710 H733 0.931 . S
C711 C710 1.383 . S
C711 C712 1.394 . S
C712 C711 1.394 . S
C712 C713 1.378 . S
C712 H734 0.931 . S
C713 C708 1.377 . S
C713 C712 1.378 . S
C713 H735 0.931 . S
C714 O724 1.259 . S
C714 O725 1.270 . S
C715 O726 1.251 . S
C715 O727 1.251 . S
O716 C696 1.257 . S
O716 Eu697 2.473 . S
O717 C696 1.260 . S
O717 Eu697 2.480 . S
O718 Eu697 2.430 . S
O718 C704 1.259 . S
O719 Eu697 2.670 . S
O719 C704 1.270 . S
O719 Eu707 2.355 . S
O720 Eu697 2.394 . S
O720 C705 1.251 . S
O721 C705 1.251 . S
O721 Eu707 2.374 . S
O722 C706 1.257 . S
O722 Eu707 2.473 . S
O723 C706 1.260 . S
O723 Eu707 2.480 . S
O724 Eu707 2.430 . S
O724 C714 1.259 . S
O725 Eu697 2.355 . S
O725 Eu707 2.670 . S
O725 C714 1.270 . S
O726 Eu707 2.394 . S
O726 C715 1.251 . S
O727 Eu697 2.374 . S
O727 C715 1.251 . S
H728 C699 0.931 . S
H729 C700 0.931 . S
H730 C702 0.931 . S
H731 C703 0.931 . S
H732 C709 0.931 . S
H733 C710 0.931 . S
H734 C712 0.931 . S
H735 C713 0.931 . S
C736 Eu737 2.835 . S
C736 C738 1.500 . S
C736 O756 1.257 . S
C736 O757 1.260 . S
Eu737 C736 2.835 . S
Eu737 O756 2.473 . S
Eu737 O757 2.480 . S
Eu737 O758 2.430 . S
Eu737 O759 2.670 . S
Eu737 O760 2.394 . S
Eu737 O765 2.355 . S
Eu737 O767 2.374 . S
C738 C736 1.500 . S
C738 C739 1.377 . S
C738 C743 1.377 . S
C739 C738 1.377 . S
C739 C740 1.395 . S
C739 H768 0.931 . S
C740 C739 1.395 . S
C740 C741 1.383 . S
C740 H769 0.931 . S
C741 C740 1.383 . S
C741 C742 1.394 . S
C742 C741 1.394 . S
C742 C743 1.378 . S
C742 H770 0.931 . S
C743 C738 1.377 . S
C743 C742 1.378 . S
C743 H771 0.931 . S
C744 O758 1.259 . S
C744 O759 1.270 . S
C745 O760 1.251 . S
C745 O761 1.251 . S
C746 Eu747 2.835 . S
C746 C748 1.500 . S
C746 O762 1.257 . S
C746 O763 1.260 . S
Eu747 C746 2.835 . S
Eu747 O759 2.355 . S
Eu747 O761 2.374 . S
Eu747 O762 2.473 . S
Eu747 O763 2.480 . S
Eu747 O764 2.430 . S
Eu747 O765 2.670 . S
Eu747 O766 2.394 . S
C748 C746 1.500 . S
C748 C749 1.377 . S
C748 C753 1.377 . S
C749 C748 1.377 . S
C749 C750 1.395 . S
C749 H772 0.931 . S
C750 C749 1.395 . S
C750 C751 1.383 . S
C750 H773 0.931 . S
C751 C750 1.383 . S
C751 C752 1.394 . S
C752 C751 1.394 . S
C752 C753 1.378 . S
C752 H774 0.931 . S
C753 C748 1.377 . S
C753 C752 1.378 . S
C753 H775 0.931 . S
C754 O764 1.259 . S
C754 O765 1.270 . S
C755 O766 1.251 . S
C755 O767 1.251 . S
O756 C736 1.257 . S
O756 Eu737 2.473 . S
O757 C736 1.260 . S
O757 Eu737 2.480 . S
O758 Eu737 2.430 . S
O758 C744 1.259 . S
O759 Eu737 2.670 . S
O759 C744 1.270 . S
O759 Eu747 2.355 . S
O760 Eu737 2.394 . S
O760 C745 1.251 . S
O761 C745 1.251 . S
O761 Eu747 2.374 . S
O762 C746 1.257 . S
O762 Eu747 2.473 . S
O763 C746 1.260 . S
O763 Eu747 2.480 . S
O764 Eu747 2.430 . S
O764 C754 1.259 . S
O765 Eu737 2.355 . S
O765 Eu747 2.670 . S
O765 C754 1.270 . S
O766 Eu747 2.394 . S
O766 C755 1.251 . S
O767 Eu737 2.374 . S
O767 C755 1.251 . S
H768 C739 0.931 . S
H769 C740 0.931 . S
H770 C742 0.931 . S
H771 C743 0.931 . S
H772 C749 0.931 . S
H773 C750 0.931 . S
H774 C752 0.931 . S
H775 C753 0.931 . S
C776 Eu777 2.835 . S
C776 C778 1.500 . S
C776 O796 1.257 . S
C776 O797 1.260 . S
Eu777 C776 2.835 . S
Eu777 O796 2.473 . S
Eu777 O797 2.480 . S
Eu777 O798 2.430 . S
Eu777 O799 2.670 . S
Eu777 O800 2.394 . S
Eu777 O805 2.355 . S
Eu777 O807 2.374 . S
C778 C776 1.500 . S
C778 C779 1.377 . S
C778 C783 1.377 . S
C779 C778 1.377 . S
C779 C780 1.395 . S
C779 H808 0.931 . S
C780 C779 1.395 . S
C780 C781 1.383 . S
C780 H809 0.931 . S
C781 C780 1.383 . S
C781 C782 1.394 . S
C782 C781 1.394 . S
C782 C783 1.378 . S
C782 H810 0.931 . S
C783 C778 1.377 . S
C783 C782 1.378 . S
C783 H811 0.931 . S
C784 O798 1.259 . S
C784 O799 1.270 . S
C785 O800 1.251 . S
C785 O801 1.251 . S
C786 Eu787 2.835 . S
C786 C788 1.500 . S
C786 O802 1.257 . S
C786 O803 1.260 . S
Eu787 C786 2.835 . S
Eu787 O799 2.355 . S
Eu787 O801 2.374 . S
Eu787 O802 2.473 . S
Eu787 O803 2.480 . S
Eu787 O804 2.430 . S
Eu787 O805 2.670 . S
Eu787 O806 2.394 . S
C788 C786 1.500 . S
C788 C789 1.377 . S
C788 C793 1.377 . S
C789 C788 1.377 . S
C789 C790 1.395 . S
C789 H812 0.931 . S
C790 C789 1.395 . S
C790 C791 1.383 . S
C790 H813 0.931 . S
C791 C790 1.383 . S
C791 C792 1.394 . S
C792 C791 1.394 . S
C792 C793 1.378 . S
C792 H814 0.931 . S
C793 C788 1.377 . S
C793 C792 1.378 . S
C793 H815 0.931 . S
C794 O804 1.259 . S
C794 O805 1.270 . S
C795 O806 1.251 . S
C795 O807 1.251 . S
O796 C776 1.257 . S
O796 Eu777 2.473 . S
O797 C776 1.260 . S
O797 Eu777 2.480 . S
O798 Eu777 2.430 . S
O798 C784 1.259 . S
O799 Eu777 2.670 . S
O799 C784 1.270 . S
O799 Eu787 2.355 . S
O800 Eu777 2.394 . S
O800 C785 1.251 . S
O801 C785 1.251 . S
O801 Eu787 2.374 . S
O802 C786 1.257 . S
O802 Eu787 2.473 . S
O803 C786 1.260 . S
O803 Eu787 2.480 . S
O804 Eu787 2.430 . S
O804 C794 1.259 . S
O805 Eu777 2.355 . S
O805 Eu787 2.670 . S
O805 C794 1.270 . S
O806 Eu787 2.394 . S
O806 C795 1.251 . S
O807 Eu777 2.374 . S
O807 C795 1.251 . S
H808 C779 0.931 . S
H809 C780 0.931 . S
H810 C782 0.931 . S
H811 C783 0.931 . S
H812 C789 0.931 . S
H813 C790 0.931 . S
H814 C792 0.931 . S
H815 C793 0.931 . S
C816 Eu817 2.835 . S
C816 C818 1.500 . S
C816 O836 1.257 . S
C816 O837 1.260 . S
Eu817 C816 2.835 . S
Eu817 O836 2.473 . S
Eu817 O837 2.480 . S
Eu817 O838 2.430 . S
Eu817 O839 2.670 . S
Eu817 O840 2.394 . S
Eu817 O845 2.355 . S
Eu817 O847 2.374 . S
C818 C816 1.500 . S
C818 C819 1.377 . S
C818 C823 1.377 . S
C819 C818 1.377 . S
C819 C820 1.395 . S
C819 H848 0.931 . S
C820 C819 1.395 . S
C820 C821 1.383 . S
C820 H849 0.931 . S
C821 C820 1.383 . S
C821 C822 1.394 . S
C822 C821 1.394 . S
C822 C823 1.378 . S
C822 H850 0.931 . S
C823 C818 1.377 . S
C823 C822 1.378 . S
C823 H851 0.931 . S
C824 O838 1.259 . S
C824 O839 1.270 . S
C825 O840 1.251 . S
C825 O841 1.251 . S
C826 Eu827 2.835 . S
C826 C828 1.500 . S
C826 O842 1.257 . S
C826 O843 1.260 . S
Eu827 C826 2.835 . S
Eu827 O839 2.355 . S
Eu827 O841 2.374 . S
Eu827 O842 2.473 . S
Eu827 O843 2.480 . S
Eu827 O844 2.430 . S
Eu827 O845 2.670 . S
Eu827 O846 2.394 . S
C828 C826 1.500 . S
C828 C829 1.377 . S
C828 C833 1.377 . S
C829 C828 1.377 . S
C829 C830 1.395 . S
C829 H852 0.931 . S
C830 C829 1.395 . S
C830 C831 1.383 . S
C830 H853 0.931 . S
C831 C830 1.383 . S
C831 C832 1.394 . S
C832 C831 1.394 . S
C832 C833 1.378 . S
C832 H854 0.931 . S
C833 C828 1.377 . S
C833 C832 1.378 . S
C833 H855 0.931 . S
C834 O844 1.259 . S
C834 O845 1.270 . S
C835 O846 1.251 . S
C835 O847 1.251 . S
O836 C816 1.257 . S
O836 Eu817 2.473 . S
O837 C816 1.260 . S
O837 Eu817 2.480 . S
O838 Eu817 2.430 . S
O838 C824 1.259 . S
O839 Eu817 2.670 . S
O839 C824 1.270 . S
O839 Eu827 2.355 . S
O840 Eu817 2.394 . S
O840 C825 1.251 . S
O841 C825 1.251 . S
O841 Eu827 2.374 . S
O842 C826 1.257 . S
O842 Eu827 2.473 . S
O843 C826 1.260 . S
O843 Eu827 2.480 . S
O844 Eu827 2.430 . S
O844 C834 1.259 . S
O845 Eu817 2.355 . S
O845 Eu827 2.670 . S
O845 C834 1.270 . S
O846 Eu827 2.394 . S
O846 C835 1.251 . S
O847 Eu817 2.374 . S
O847 C835 1.251 . S
H848 C819 0.931 . S
H849 C820 0.931 . S
H850 C822 0.931 . S
H851 C823 0.931 . S
H852 C829 0.931 . S
H853 C830 0.931 . S
H854 C832 0.931 . S
H855 C833 0.931 . S
C856 Eu857 2.835 . S
C856 C858 1.500 . S
C856 O876 1.257 . S
C856 O877 1.260 . S
Eu857 C856 2.835 . S
Eu857 O876 2.473 . S
Eu857 O877 2.480 . S
Eu857 O878 2.430 . S
Eu857 O879 2.670 . S
Eu857 O880 2.394 . S
Eu857 O885 2.355 . S
Eu857 O887 2.374 . S
C858 C856 1.500 . S
C858 C859 1.377 . S
C858 C863 1.377 . S
C859 C858 1.377 . S
C859 C860 1.395 . S
C859 H888 0.931 . S
C860 C859 1.395 . S
C860 C861 1.383 . S
C860 H889 0.931 . S
C861 C860 1.383 . S
C861 C862 1.394 . S
C862 C861 1.394 . S
C862 C863 1.378 . S
C862 H890 0.931 . S
C863 C858 1.377 . S
C863 C862 1.378 . S
C863 H891 0.931 . S
C864 O878 1.259 . S
C864 O879 1.270 . S
C865 O880 1.251 . S
C865 O881 1.251 . S
C866 Eu867 2.835 . S
C866 C868 1.500 . S
C866 O882 1.257 . S
C866 O883 1.260 . S
Eu867 C866 2.835 . S
Eu867 O879 2.355 . S
Eu867 O881 2.374 . S
Eu867 O882 2.473 . S
Eu867 O883 2.480 . S
Eu867 O884 2.430 . S
Eu867 O885 2.670 . S
Eu867 O886 2.394 . S
C868 C866 1.500 . S
C868 C869 1.377 . S
C868 C873 1.377 . S
C869 C868 1.377 . S
C869 C870 1.395 . S
C869 H892 0.931 . S
C870 C869 1.395 . S
C870 C871 1.383 . S
C870 H893 0.931 . S
C871 C870 1.383 . S
C871 C872 1.394 . S
C872 C871 1.394 . S
C872 C873 1.378 . S
C872 H894 0.931 . S
C873 C868 1.377 . S
C873 C872 1.378 . S
C873 H895 0.931 . S
C874 O884 1.259 . S
C874 O885 1.270 . S
C875 O886 1.251 . S
C875 O887 1.251 . S
O876 C856 1.257 . S
O876 Eu857 2.473 . S
O877 C856 1.260 . S
O877 Eu857 2.480 . S
O878 Eu857 2.430 . S
O878 C864 1.259 . S
O879 Eu857 2.670 . S
O879 C864 1.270 . S
O879 Eu867 2.355 . S
O880 Eu857 2.394 . S
O880 C865 1.251 . S
O881 C865 1.251 . S
O881 Eu867 2.374 . S
O882 C866 1.257 . S
O882 Eu867 2.473 . S
O883 C866 1.260 . S
O883 Eu867 2.480 . S
O884 Eu867 2.430 . S
O884 C874 1.259 . S
O885 Eu857 2.355 . S
O885 Eu867 2.670 . S
O885 C874 1.270 . S
O886 Eu867 2.394 . S
O886 C875 1.251 . S
O887 Eu857 2.374 . S
O887 C875 1.251 . S
H888 C859 0.931 . S
H889 C860 0.931 . S
H890 C862 0.931 . S
H891 C863 0.931 . S
H892 C869 0.931 . S
H893 C870 0.931 . S
H894 C872 0.931 . S
H895 C873 0.931 . S
C896 Eu897 2.835 . S
C896 C898 1.500 . S
C896 O916 1.257 . S
C896 O917 1.260 . S
Eu897 C896 2.835 . S
Eu897 O916 2.473 . S
Eu897 O917 2.480 . S
Eu897 O918 2.430 . S
Eu897 O919 2.670 . S
Eu897 O920 2.394 . S
Eu897 O925 2.355 . S
Eu897 O927 2.374 . S
C898 C896 1.500 . S
C898 C899 1.377 . S
C898 C903 1.377 . S
C899 C898 1.377 . S
C899 C900 1.395 . S
C899 H928 0.931 . S
C900 C899 1.395 . S
C900 C901 1.383 . S
C900 H929 0.931 . S
C901 C900 1.383 . S
C901 C902 1.394 . S
C902 C901 1.394 . S
C902 C903 1.378 . S
C902 H930 0.931 . S
C903 C898 1.377 . S
C903 C902 1.378 . S
C903 H931 0.931 . S
C904 O918 1.259 . S
C904 O919 1.270 . S
C905 O920 1.251 . S
C905 O921 1.251 . S
C906 Eu907 2.835 . S
C906 C908 1.500 . S
C906 O922 1.257 . S
C906 O923 1.260 . S
Eu907 C906 2.835 . S
Eu907 O919 2.355 . S
Eu907 O921 2.374 . S
Eu907 O922 2.473 . S
Eu907 O923 2.480 . S
Eu907 O924 2.430 . S
Eu907 O925 2.670 . S
Eu907 O926 2.394 . S
C908 C906 1.500 . S
C908 C909 1.377 . S
C908 C913 1.377 . S
C909 C908 1.377 . S
C909 C910 1.395 . S
C909 H932 0.931 . S
C910 C909 1.395 . S
C910 C911 1.383 . S
C910 H933 0.931 . S
C911 C910 1.383 . S
C911 C912 1.394 . S
C912 C911 1.394 . S
C912 C913 1.378 . S
C912 H934 0.931 . S
C913 C908 1.377 . S
C913 C912 1.378 . S
C913 H935 0.931 . S
C914 O924 1.259 . S
C914 O925 1.270 . S
C915 O926 1.251 . S
C915 O927 1.251 . S
O916 C896 1.257 . S
O916 Eu897 2.473 . S
O917 C896 1.260 . S
O917 Eu897 2.480 . S
O918 Eu897 2.430 . S
O918 C904 1.259 . S
O919 Eu897 2.670 . S
O919 C904 1.270 . S
O919 Eu907 2.355 . S
O920 Eu897 2.394 . S
O920 C905 1.251 . S
O921 C905 1.251 . S
O921 Eu907 2.374 . S
O922 C906 1.257 . S
O922 Eu907 2.473 . S
O923 C906 1.260 . S
O923 Eu907 2.480 . S
O924 Eu907 2.430 . S
O924 C914 1.259 . S
O925 Eu897 2.355 . S
O925 Eu907 2.670 . S
O925 C914 1.270 . S
O926 Eu907 2.394 . S
O926 C915 1.251 . S
O927 Eu897 2.374 . S
O927 C915 1.251 . S
H928 C899 0.931 . S
H929 C900 0.931 . S
H930 C902 0.931 . S
H931 C903 0.931 . S
H932 C909 0.931 . S
H933 C910 0.931 . S
H934 C912 0.931 . S
H935 C913 0.931 . S
H936 C954 0.951 . S
H937 C956 0.951 . S
H938 C958 0.950 . S
H939 C959 0.950 . S
H940 C961 0.950 . S
H941 C964 0.950 . S
H942 C965 0.950 . S
H943 C967 0.950 . S
H944 C968 0.952 . S
H945 C969 0.951 . S
H946 C971 0.951 . S
H947 C973 0.950 . S
H948 C974 0.950 . S
H949 C976 0.950 . S
H950 C979 0.950 . S
H951 C980 0.950 . S
H952 C982 0.950 . S
H953 C983 0.950 . S
C954 H936 0.951 . S
C954 C955 1.366 . S
C954 C956 1.388 . S
C955 C954 1.366 . S
C955 C959 1.385 . S
C956 H937 0.951 . S
C956 C954 1.388 . S
C956 C957 1.366 . S
C957 C956 1.366 . S
C957 C958 1.414 . S
C957 C960 1.499 . S
C958 H938 0.950 . S
C958 C957 1.414 . S
C958 C959 1.374 . S
C959 H939 0.950 . S
C959 C955 1.385 . S
C959 C958 1.374 . S
C960 C957 1.499 . S
C960 C961 1.373 . S
C960 C962 1.389 . S
C961 H940 0.950 . S
C961 C960 1.373 . S
C961 C977 1.377 . S
C962 C960 1.389 . S
C962 C963 1.524 . S
C962 C976 1.377 . S
C963 C962 1.524 . S
C963 C964 1.397 . S
C963 C968 1.363 . S
C964 H941 0.950 . S
C964 C963 1.397 . S
C964 C965 1.334 . S
C965 H942 0.950 . S
C965 C964 1.334 . S
C965 C966 1.287 1_554 S
C966 C965 1.287 1_556 S
C966 C967 1.524 . S
C966 H985 0.913 . S
C967 H943 0.950 . S
C967 C966 1.524 . S
C967 C968 1.415 1_556 S
C968 H944 0.952 . S
C968 C963 1.363 . S
C968 C967 1.415 1_554 S
C969 H945 0.951 . S
C969 C970 1.366 . S
C969 C971 1.388 . S
C970 C969 1.366 . S
C970 C974 1.385 . S
C971 H946 0.951 . S
C971 C969 1.388 . S
C971 C972 1.366 . S
C972 C971 1.366 . S
C972 C973 1.414 . S
C972 C975 1.499 . S
C973 H947 0.950 . S
C973 C972 1.414 . S
C973 C974 1.374 . S
C974 H948 0.950 . S
C974 C970 1.385 . S
C974 C973 1.374 . S
C975 C972 1.499 . S
C975 C976 1.373 . S
C975 C977 1.389 . S
C976 H949 0.950 . S
C976 C962 1.377 . S
C976 C975 1.373 . S
C977 C961 1.377 . S
C977 C975 1.389 . S
C977 C978 1.524 . S
C978 C977 1.524 . S
C978 C979 1.397 . S
C978 C983 1.363 . S
C979 H950 0.950 . S
C979 C978 1.397 . S
C979 C980 1.334 . S
C980 H951 0.950 . S
C980 C979 1.334 . S
C980 C981 1.287 . S
C981 C980 1.287 . S
C981 C982 1.524 . S
C981 H984 0.999 . S
C982 H952 0.950 . S
C982 C981 1.524 . S
C982 C983 1.415 . S
C983 H953 0.950 . S
C983 C978 1.363 . S
C983 C982 1.415 . S
H984 C981 0.999 . S
H985 C966 0.913 . S
H986 C1004 0.951 . S
H987 C1006 0.951 . S
H988 C1008 0.950 . S
H989 C1009 0.950 . S
H990 C1011 0.950 . S
H991 C1014 0.950 . S
H992 C1015 0.950 . S
H993 C1017 0.950 . S
H994 C1018 0.950 . S
H995 C1019 0.951 . S
H996 C1021 0.951 . S
H997 C1023 0.950 . S
H998 C1024 0.950 . S
H999 C1026 0.950 . S
H1000 C1029 0.950 . S
H1001 C1030 0.950 . S
H1002 C1032 0.950 . S
H1003 C1033 0.950 . S
C1004 H986 0.951 . S
C1004 C1005 1.366 . S
C1004 C1006 1.388 . S
C1005 C1004 1.366 . S
C1005 C1009 1.385 . S
C1006 H987 0.951 . S
C1006 C1004 1.388 . S
C1006 C1007 1.366 . S
C1007 C1006 1.366 . S
C1007 C1008 1.414 . S
C1007 C1010 1.499 . S
C1008 H988 0.950 . S
C1008 C1007 1.414 . S
C1008 C1009 1.374 . S
C1009 H989 0.950 . S
C1009 C1005 1.385 . S
C1009 C1008 1.374 . S
C1010 C1007 1.499 . S
C1010 C1011 1.373 . S
C1010 C1012 1.389 . S
C1011 H990 0.950 . S
C1011 C1010 1.373 . S
C1011 C1027 1.377 . S
C1012 C1010 1.389 . S
C1012 C1013 1.524 . S
C1012 C1026 1.377 . S
C1013 C1012 1.524 . S
C1013 C1014 1.397 . S
C1013 C1018 1.363 . S
C1014 H991 0.950 . S
C1014 C1013 1.397 . S
C1014 C1015 1.334 . S
C1015 H992 0.950 . S
C1015 C1014 1.334 . S
C1015 C1016 1.287 . S
C1016 C1015 1.287 . S
C1016 C1017 1.524 . S
C1016 H1035 0.913 . S
C1017 H993 0.950 . S
C1017 C1016 1.524 . S
C1017 C1018 1.415 . S
C1018 H994 0.950 . S
C1018 C1013 1.363 . S
C1018 C1017 1.415 . S
C1019 H995 0.951 . S
C1019 C1020 1.366 . S
C1019 C1021 1.388 . S
C1020 C1019 1.366 . S
C1020 C1024 1.385 . S
C1021 H996 0.951 . S
C1021 C1019 1.388 . S
C1021 C1022 1.366 . S
C1022 C1021 1.366 . S
C1022 C1023 1.414 . S
C1022 C1025 1.499 . S
C1023 H997 0.950 . S
C1023 C1022 1.414 . S
C1023 C1024 1.374 . S
C1024 H998 0.950 . S
C1024 C1020 1.385 . S
C1024 C1023 1.374 . S
C1025 C1022 1.499 . S
C1025 C1026 1.373 . S
C1025 C1027 1.389 . S
C1026 H999 0.950 . S
C1026 C1012 1.377 . S
C1026 C1025 1.373 . S
C1027 C1011 1.377 . S
C1027 C1025 1.389 . S
C1027 C1028 1.524 . S
C1028 C1027 1.524 . S
C1028 C1029 1.397 . S
C1028 C1033 1.363 . S
C1029 H1000 0.950 . S
C1029 C1028 1.397 . S
C1029 C1030 1.334 . S
C1030 H1001 0.950 . S
C1030 C1029 1.334 . S
C1030 C1031 1.287 . S
C1031 C1030 1.287 . S
C1031 C1032 1.524 . S
C1031 H1034 0.999 . S
C1032 H1002 0.950 . S
C1032 C1031 1.524 . S
C1032 C1033 1.415 . S
C1033 H1003 0.950 . S
C1033 C1028 1.363 . S
C1033 C1032 1.415 . S
H1034 C1031 0.999 . S
H1035 C1016 0.913 . S
H1036 C1054 0.951 . S
H1037 C1056 0.951 . S
H1038 C1058 0.950 . S
H1039 C1059 0.950 . S
H1040 C1061 0.950 . S
H1041 C1064 0.950 . S
H1042 C1065 0.950 . S
H1043 C1067 0.950 . S
H1044 C1068 0.950 . S
H1045 C1069 0.951 . S
H1046 C1071 0.951 . S
H1047 C1073 0.950 . S
H1048 C1074 0.950 . S
H1049 C1076 0.950 . S
H1050 C1079 0.950 . S
H1051 C1080 0.950 . S
H1052 C1082 0.950 . S
H1053 C1083 0.950 . S
C1054 H1036 0.951 . S
C1054 C1055 1.366 . S
C1054 C1056 1.388 . S
C1055 C1054 1.366 . S
C1055 C1059 1.385 . S
C1056 H1037 0.951 . S
C1056 C1054 1.388 . S
C1056 C1057 1.366 . S
C1057 C1056 1.366 . S
C1057 C1058 1.414 . S
C1057 C1060 1.499 . S
C1058 H1038 0.950 . S
C1058 C1057 1.414 . S
C1058 C1059 1.374 . S
C1059 H1039 0.950 . S
C1059 C1055 1.385 . S
C1059 C1058 1.374 . S
C1060 C1057 1.499 . S
C1060 C1061 1.373 . S
C1060 C1062 1.389 . S
C1061 H1040 0.950 . S
C1061 C1060 1.373 . S
C1061 C1077 1.377 . S
C1062 C1060 1.389 . S
C1062 C1063 1.524 . S
C1062 C1076 1.377 . S
C1063 C1062 1.524 . S
C1063 C1064 1.397 . S
C1063 C1068 1.363 . S
C1064 H1041 0.950 . S
C1064 C1063 1.397 . S
C1064 C1065 1.334 . S
C1065 H1042 0.950 . S
C1065 C1064 1.334 . S
C1065 C1066 1.287 . S
C1066 C1065 1.287 . S
C1066 C1067 1.524 . S
C1066 H1085 0.913 . S
C1067 H1043 0.950 . S
C1067 C1066 1.524 . S
C1067 C1068 1.415 . S
C1068 H1044 0.950 . S
C1068 C1063 1.363 . S
C1068 C1067 1.415 . S
C1069 H1045 0.951 . S
C1069 C1070 1.366 . S
C1069 C1071 1.388 . S
C1070 C1069 1.366 . S
C1070 C1074 1.385 . S
C1071 H1046 0.951 . S
C1071 C1069 1.388 . S
C1071 C1072 1.366 . S
C1072 C1071 1.366 . S
C1072 C1073 1.414 . S
C1072 C1075 1.499 . S
C1073 H1047 0.950 . S
C1073 C1072 1.414 . S
C1073 C1074 1.374 . S
C1074 H1048 0.950 . S
C1074 C1070 1.385 . S
C1074 C1073 1.374 . S
C1075 C1072 1.499 . S
C1075 C1076 1.373 . S
C1075 C1077 1.389 . S
C1076 H1049 0.950 . S
C1076 C1062 1.377 . S
C1076 C1075 1.373 . S
C1077 C1061 1.377 . S
C1077 C1075 1.389 . S
C1077 C1078 1.524 1_554 S
C1078 C1077 1.524 1_556 S
C1078 C1079 1.397 . S
C1078 C1083 1.363 . S
C1079 H1050 0.950 . S
C1079 C1078 1.397 . S
C1079 C1080 1.334 . S
C1080 H1051 0.950 . S
C1080 C1079 1.334 . S
C1080 C1081 1.287 . S
C1081 C1080 1.287 . S
C1081 C1082 1.524 . S
C1081 H1084 0.999 . S
C1082 H1052 0.950 . S
C1082 C1081 1.524 . S
C1082 C1083 1.415 . S
C1083 H1053 0.950 . S
C1083 C1078 1.363 . S
C1083 C1082 1.415 . S
H1084 C1081 0.999 . S
H1085 C1066 0.913 . S
H1086 C1104 0.951 . S
H1087 C1106 0.951 . S
H1088 C1108 0.950 . S
H1089 C1109 0.950 . S
H1090 C1111 0.950 . S
H1091 C1114 0.950 . S
H1092 C1115 0.950 . S
H1093 C1117 0.950 1_554 S
H1094 C1118 0.950 1_554 S
H1095 C1119 0.951 . S
H1096 C1121 0.951 . S
H1097 C1123 0.950 1_554 S
H1098 C1124 0.950 . S
H1099 C1126 0.950 . S
H1100 C1129 0.950 . S
H1101 C1130 0.947 1_455 S
H1102 C1132 0.950 . S
H1103 C1133 0.950 . S
C1104 H1086 0.951 . S
C1104 C1105 1.366 . S
C1104 C1106 1.388 . S
C1105 C1104 1.366 . S
C1105 C1109 1.385 . S
C1106 H1087 0.951 . S
C1106 C1104 1.388 . S
C1106 C1107 1.366 . S
C1107 C1106 1.366 . S
C1107 C1108 1.414 . S
C1107 C1110 1.499 . S
C1108 H1088 0.950 . S
C1108 C1107 1.414 . S
C1108 C1109 1.374 . S
C1109 H1089 0.950 . S
C1109 C1105 1.385 . S
C1109 C1108 1.374 . S
C1110 C1107 1.499 . S
C1110 C1111 1.373 . S
C1110 C1112 1.389 . S
C1111 H1090 0.950 . S
C1111 C1110 1.373 . S
C1111 C1127 1.377 . S
C1112 C1110 1.389 . S
C1112 C1113 1.524 . S
C1112 C1126 1.377 . S
C1113 C1112 1.524 . S
C1113 C1114 1.397 . S
C1113 C1118 1.363 . S
C1114 H1091 0.950 . S
C1114 C1113 1.397 . S
C1114 C1115 1.334 . S
C1115 H1092 0.950 . S
C1115 C1114 1.334 . S
C1115 C1116 1.287 . S
C1116 C1115 1.287 . S
C1116 C1117 1.524 . S
C1116 H1135 0.913 . S
C1117 H1093 0.950 1_556 S
C1117 C1116 1.524 . S
C1117 C1118 1.415 . S
C1118 H1094 0.950 1_556 S
C1118 C1113 1.363 . S
C1118 C1117 1.415 . S
C1119 H1095 0.951 . S
C1119 C1120 1.366 . S
C1119 C1121 1.388 . S
C1120 C1119 1.366 . S
C1120 C1124 1.385 1_556 S
C1121 H1096 0.951 . S
C1121 C1119 1.388 . S
C1121 C1122 1.366 . S
C1122 C1121 1.366 . S
C1122 C1123 1.414 . S
C1122 C1125 1.499 . S
C1123 H1097 0.950 1_556 S
C1123 C1122 1.414 . S
C1123 C1124 1.374 1_556 S
C1124 H1098 0.950 . S
C1124 C1120 1.385 1_554 S
C1124 C1123 1.374 1_554 S
C1125 C1122 1.499 . S
C1125 C1126 1.373 . S
C1125 C1127 1.389 . S
C1126 H1099 0.950 . S
C1126 C1112 1.377 . S
C1126 C1125 1.373 . S
C1127 C1111 1.377 . S
C1127 C1125 1.389 . S
C1127 C1128 1.524 . S
C1128 C1127 1.524 . S
C1128 C1129 1.397 . S
C1128 C1133 1.363 . S
C1129 H1100 0.950 . S
C1129 C1128 1.397 . S
C1129 C1130 1.334 . S
C1130 H1101 0.947 1_655 S
C1130 C1129 1.334 . S
C1130 C1131 1.287 . S
C1131 C1130 1.287 . S
C1131 C1132 1.524 . S
C1131 H1134 0.999 1_655 S
C1132 H1102 0.950 . S
C1132 C1131 1.524 . S
C1132 C1133 1.415 . S
C1133 H1103 0.950 . S
C1133 C1128 1.363 . S
C1133 C1132 1.415 . S
H1134 C1131 0.999 1_455 S
H1135 C1116 0.913 . S
H1136 C1154 0.951 . S
H1137 C1156 0.951 . S
H1138 C1158 0.950 . S
H1139 C1159 0.950 . S
H1140 C1161 0.950 . S
H1141 C1164 0.950 . S
H1142 C1165 0.950 . S
H1143 C1167 0.950 . S
H1144 C1168 0.950 . S
H1145 C1169 0.951 . S
H1146 C1171 0.951 . S
H1147 C1173 0.950 . S
H1148 C1174 0.950 1_554 S
H1149 C1176 0.950 . S
H1150 C1179 0.950 . S
H1151 C1180 0.950 . S
H1152 C1182 0.950 . S
H1153 C1183 0.950 . S
C1154 H1136 0.951 . S
C1154 C1155 1.366 . S
C1154 C1156 1.388 . S
C1155 C1154 1.366 . S
C1155 C1159 1.385 . S
C1156 H1137 0.951 . S
C1156 C1154 1.388 . S
C1156 C1157 1.366 . S
C1157 C1156 1.366 . S
C1157 C1158 1.414 . S
C1157 C1160 1.499 . S
C1158 H1138 0.950 . S
C1158 C1157 1.414 . S
C1158 C1159 1.374 . S
C1159 H1139 0.950 . S
C1159 C1155 1.385 . S
C1159 C1158 1.374 . S
C1160 C1157 1.499 . S
C1160 C1161 1.373 . S
C1160 C1162 1.389 . S
C1161 H1140 0.950 . S
C1161 C1160 1.373 . S
C1161 C1177 1.377 . S
C1162 C1160 1.389 . S
C1162 C1163 1.524 . S
C1162 C1176 1.377 . S
C1163 C1162 1.524 . S
C1163 C1164 1.397 . S
C1163 C1168 1.363 . S
C1164 H1141 0.950 . S
C1164 C1163 1.397 . S
C1164 C1165 1.334 . S
C1165 H1142 0.950 . S
C1165 C1164 1.334 . S
C1165 C1166 1.287 . S
C1166 C1165 1.287 . S
C1166 C1167 1.524 . S
C1166 H1185 0.913 . S
C1167 H1143 0.950 . S
C1167 C1166 1.524 . S
C1167 C1168 1.415 . S
C1168 H1144 0.950 . S
C1168 C1163 1.363 . S
C1168 C1167 1.415 . S
C1169 H1145 0.951 . S
C1169 C1170 1.366 . S
C1169 C1171 1.388 . S
C1170 C1169 1.366 . S
C1170 C1174 1.385 . S
C1171 H1146 0.951 . S
C1171 C1169 1.388 . S
C1171 C1172 1.366 . S
C1172 C1171 1.366 . S
C1172 C1173 1.414 . S
C1172 C1175 1.499 . S
C1173 H1147 0.950 . S
C1173 C1172 1.414 . S
C1173 C1174 1.374 . S
C1174 H1148 0.950 1_556 S
C1174 C1170 1.385 . S
C1174 C1173 1.374 . S
C1175 C1172 1.499 . S
C1175 C1176 1.373 . S
C1175 C1177 1.389 . S
C1176 H1149 0.950 . S
C1176 C1162 1.377 . S
C1176 C1175 1.373 . S
C1177 C1161 1.377 . S
C1177 C1175 1.389 . S
C1177 C1178 1.524 . S
C1178 C1177 1.524 . S
C1178 C1179 1.397 . S
C1178 C1183 1.363 . S
C1179 H1150 0.950 . S
C1179 C1178 1.397 . S
C1179 C1180 1.334 . S
C1180 H1151 0.950 . S
C1180 C1179 1.334 . S
C1180 C1181 1.287 . S
C1181 C1180 1.287 . S
C1181 C1182 1.524 . S
C1181 H1184 0.999 . S
C1182 H1152 0.950 . S
C1182 C1181 1.524 . S
C1182 C1183 1.415 . S
C1183 H1153 0.950 . S
C1183 C1178 1.363 . S
C1183 C1182 1.415 . S
H1184 C1181 0.999 . S
H1185 C1166 0.913 . S
H1186 C1204 0.951 . S
H1187 C1206 0.951 . S
H1188 C1208 0.950 . S
H1189 C1209 0.950 . S
H1190 C1211 0.950 . S
H1191 C1214 0.950 1_556 S
H1192 C1215 0.950 . S
H1193 C1217 0.950 . S
H1194 C1218 0.950 . S
H1195 C1219 0.951 . S
H1196 C1221 0.951 . S
H1197 C1223 0.950 1_554 S
H1198 C1224 0.950 . S
H1199 C1226 0.950 1_554 S
H1200 C1229 0.950 . S
H1201 C1230 0.950 . S
H1202 C1232 0.950 . S
H1203 C1233 0.950 . S
C1204 H1186 0.951 . S
C1204 C1205 1.366 . S
C1204 C1206 1.388 . S
C1205 C1204 1.366 . S
C1205 C1209 1.385 . S
C1206 H1187 0.951 . S
C1206 C1204 1.388 . S
C1206 C1207 1.366 . S
C1207 C1206 1.366 . S
C1207 C1208 1.414 . S
C1207 C1210 1.499 . S
C1208 H1188 0.950 . S
C1208 C1207 1.414 . S
C1208 C1209 1.374 . S
C1209 H1189 0.950 . S
C1209 C1205 1.385 . S
C1209 C1208 1.374 . S
C1210 C1207 1.499 . S
C1210 C1211 1.373 . S
C1210 C1212 1.389 . S
C1211 H1190 0.950 . S
C1211 C1210 1.373 . S
C1211 C1227 1.377 . S
C1212 C1210 1.389 . S
C1212 C1213 1.524 1_556 S
C1212 C1226 1.377 . S
C1213 C1212 1.524 1_554 S
C1213 C1214 1.397 . S
C1213 C1218 1.363 . S
C1214 H1191 0.950 1_554 S
C1214 C1213 1.397 . S
C1214 C1215 1.334 . S
C1215 H1192 0.950 . S
C1215 C1214 1.334 . S
C1215 C1216 1.287 . S
C1216 C1215 1.287 . S
C1216 C1217 1.524 . S
C1216 H1235 0.913 . S
C1217 H1193 0.950 . S
C1217 C1216 1.524 . S
C1217 C1218 1.415 . S
C1218 H1194 0.950 . S
C1218 C1213 1.363 . S
C1218 C1217 1.415 . S
C1219 H1195 0.951 . S
C1219 C1220 1.366 . S
C1219 C1221 1.388 . S
C1220 C1219 1.366 . S
C1220 C1224 1.385 1_556 S
C1221 H1196 0.951 . S
C1221 C1219 1.388 . S
C1221 C1222 1.366 . S
C1222 C1221 1.366 . S
C1222 C1223 1.414 . S
C1222 C1225 1.499 . S
C1223 H1197 0.950 1_556 S
C1223 C1222 1.414 . S
C1223 C1224 1.374 1_556 S
C1224 H1198 0.950 . S
C1224 C1220 1.385 1_554 S
C1224 C1223 1.374 1_554 S
C1225 C1222 1.499 . S
C1225 C1226 1.373 . S
C1225 C1227 1.389 . S
C1226 H1199 0.950 1_556 S
C1226 C1212 1.377 . S
C1226 C1225 1.373 . S
C1227 C1211 1.377 . S
C1227 C1225 1.389 . S
C1227 C1228 1.524 . S
C1228 C1227 1.524 . S
C1228 C1229 1.397 . S
C1228 C1233 1.363 . S
C1229 H1200 0.950 . S
C1229 C1228 1.397 . S
C1229 C1230 1.334 . S
C1230 H1201 0.950 . S
C1230 C1229 1.334 . S
C1230 C1231 1.287 . S
C1231 C1230 1.287 . S
C1231 C1232 1.524 . S
C1231 H1234 0.999 . S
C1232 H1202 0.950 . S
C1232 C1231 1.524 . S
C1232 C1233 1.415 . S
C1233 H1203 0.950 . S
C1233 C1228 1.363 . S
C1233 C1232 1.415 . S
H1234 C1231 0.999 . S
H1235 C1216 0.913 . S
H1236 C1254 0.951 . S
H1237 C1256 0.951 . S
H1238 C1258 0.950 . S
H1239 C1259 0.950 . S
H1240 C1261 0.950 . S
H1241 C1264 0.950 . S
H1242 C1265 0.950 . S
H1243 C1267 0.950 . S
H1244 C1268 0.950 . S
H1245 C1269 0.951 . S
H1246 C1271 0.951 . S
H1247 C1273 0.950 . S
H1248 C1274 0.950 . S
H1249 C1276 0.950 . S
H1250 C1279 0.950 . S
H1251 C1280 0.950 . S
H1252 C1282 0.950 . S
H1253 C1283 0.950 . S
C1254 H1236 0.951 . S
C1254 C1255 1.366 . S
C1254 C1256 1.388 . S
C1255 C1254 1.366 . S
C1255 C1259 1.385 . S
C1256 H1237 0.951 . S
C1256 C1254 1.388 . S
C1256 C1257 1.366 . S
C1257 C1256 1.366 . S
C1257 C1258 1.414 . S
C1257 C1260 1.499 . S
C1258 H1238 0.950 . S
C1258 C1257 1.414 . S
C1258 C1259 1.374 . S
C1259 H1239 0.950 . S
C1259 C1255 1.385 . S
C1259 C1258 1.374 . S
C1260 C1257 1.499 . S
C1260 C1261 1.373 . S
C1260 C1262 1.389 . S
C1261 H1240 0.950 . S
C1261 C1260 1.373 . S
C1261 C1277 1.377 . S
C1262 C1260 1.389 . S
C1262 C1263 1.524 . S
C1262 C1276 1.377 . S
C1263 C1262 1.524 . S
C1263 C1264 1.397 . S
C1263 C1268 1.363 . S
C1264 H1241 0.950 . S
C1264 C1263 1.397 . S
C1264 C1265 1.334 . S
C1265 H1242 0.950 . S
C1265 C1264 1.334 . S
C1265 C1266 1.287 . S
C1266 C1265 1.287 . S
C1266 C1267 1.524 . S
C1266 H1285 0.913 . S
C1267 H1243 0.950 . S
C1267 C1266 1.524 . S
C1267 C1268 1.415 . S
C1268 H1244 0.950 . S
C1268 C1263 1.363 . S
C1268 C1267 1.415 . S
C1269 H1245 0.951 . S
C1269 C1270 1.366 . S
C1269 C1271 1.388 . S
C1270 C1269 1.366 . S
C1270 C1274 1.385 . S
C1271 H1246 0.951 . S
C1271 C1269 1.388 . S
C1271 C1272 1.366 . S
C1272 C1271 1.366 . S
C1272 C1273 1.414 . S
C1272 C1275 1.499 . S
C1273 H1247 0.950 . S
C1273 C1272 1.414 . S
C1273 C1274 1.374 . S
C1274 H1248 0.950 . S
C1274 C1270 1.385 . S
C1274 C1273 1.374 . S
C1275 C1272 1.499 . S
C1275 C1276 1.373 . S
C1275 C1277 1.389 . S
C1276 H1249 0.950 . S
C1276 C1262 1.377 . S
C1276 C1275 1.373 . S
C1277 C1261 1.377 . S
C1277 C1275 1.389 . S
C1277 C1278 1.524 . S
C1278 C1277 1.524 . S
C1278 C1279 1.397 1_556 S
C1278 C1283 1.363 . S
C1279 H1250 0.950 . S
C1279 C1278 1.397 1_554 S
C1279 C1280 1.334 . S
C1280 H1251 0.950 . S
C1280 C1279 1.334 . S
C1280 C1281 1.287 . S
C1281 C1280 1.287 . S
C1281 C1282 1.524 . S
C1281 H1284 0.999 . S
C1282 H1252 0.950 . S
C1282 C1281 1.524 . S
C1282 C1283 1.415 1_554 S
C1283 H1253 0.950 . S
C1283 C1278 1.363 . S
C1283 C1282 1.415 1_556 S
H1284 C1281 0.999 . S
H1285 C1266 0.913 . S
H1286 C1304 0.951 . S
H1287 C1306 0.951 . S
H1288 C1308 0.950 . S
H1289 C1309 0.950 . S
H1290 C1311 0.950 . S
H1291 C1314 0.950 . S
H1292 C1315 0.950 . S
H1293 C1317 0.950 . S
H1294 C1318 0.950 . S
H1295 C1319 0.998 . S
H1296 C1321 0.951 . S
H1297 C1323 0.950 . S
H1298 C1324 0.950 . S
H1299 C1326 0.950 . S
H1300 C1329 0.950 . S
H1301 C1330 0.950 . S
H1302 C1332 0.950 . S
H1303 C1333 0.950 . S
C1304 H1286 0.951 . S
C1304 C1305 1.366 . S
C1304 C1306 1.388 . S
C1305 C1304 1.366 . S
C1305 C1309 1.385 . S
C1306 H1287 0.951 . S
C1306 C1304 1.388 . S
C1306 C1307 1.366 . S
C1307 C1306 1.366 . S
C1307 C1308 1.414 . S
C1307 C1310 1.499 . S
C1308 H1288 0.950 . S
C1308 C1307 1.414 . S
C1308 C1309 1.374 . S
C1309 H1289 0.950 . S
C1309 C1305 1.385 . S
C1309 C1308 1.374 . S
C1310 C1307 1.499 . S
C1310 C1311 1.373 . S
C1310 C1312 1.389 . S
C1311 H1290 0.950 . S
C1311 C1310 1.373 . S
C1311 C1327 1.377 . S
C1312 C1310 1.389 . S
C1312 C1313 1.524 . S
C1312 C1326 1.377 . S
C1313 C1312 1.524 . S
C1313 C1314 1.397 . S
C1313 C1318 1.363 . S
C1314 H1291 0.950 . S
C1314 C1313 1.397 . S
C1314 C1315 1.334 . S
C1315 H1292 0.950 . S
C1315 C1314 1.334 . S
C1315 C1316 1.287 . S
C1316 C1315 1.287 . S
C1316 C1317 1.524 . S
C1316 H1335 0.913 . S
C1317 H1293 0.950 . S
C1317 C1316 1.524 . S
C1317 C1318 1.415 . S
C1318 H1294 0.950 . S
C1318 C1313 1.363 . S
C1318 C1317 1.415 . S
C1319 H1295 0.998 . S
C1319 C1320 1.366 . S
C1319 C1321 1.388 . S
C1320 C1319 1.366 . S
C1320 C1324 1.385 . S
C1321 H1296 0.951 . S
C1321 C1319 1.388 . S
C1321 C1322 1.366 . S
C1322 C1321 1.366 . S
C1322 C1323 1.414 . S
C1322 C1325 1.499 . S
C1323 H1297 0.950 . S
C1323 C1322 1.414 . S
C1323 C1324 1.374 . S
C1324 H1298 0.950 . S
C1324 C1320 1.385 . S
C1324 C1323 1.374 . S
C1325 C1322 1.499 . S
C1325 C1326 1.373 . S
C1325 C1327 1.389 . S
C1326 H1299 0.950 . S
C1326 C1312 1.377 . S
C1326 C1325 1.373 . S
C1327 C1311 1.377 . S
C1327 C1325 1.389 . S
C1327 C1328 1.524 . S
C1328 C1327 1.524 . S
C1328 C1329 1.397 . S
C1328 C1333 1.363 1_556 S
C1329 H1300 0.950 . S
C1329 C1328 1.397 . S
C1329 C1330 1.334 1_556 S
C1330 H1301 0.950 . S
C1330 C1329 1.334 1_554 S
C1330 C1331 1.287 . S
C1331 C1330 1.287 . S
C1331 C1332 1.524 . S
C1331 H1334 0.999 . S
C1332 H1302 0.950 . S
C1332 C1331 1.524 . S
C1332 C1333 1.415 . S
C1333 H1303 0.950 . S
C1333 C1328 1.363 1_554 S
C1333 C1332 1.415 . S
H1334 C1331 0.999 . S
H1335 C1316 0.913 . S
H1336 C1354 0.951 . S
H1337 C1356 0.951 . S
H1338 C1358 0.950 . S
H1339 C1359 0.950 . S
H1340 C1361 0.950 . S
H1341 C1364 0.950 . S
H1342 C1365 1.003 . S
H1343 C1367 0.950 . S
H1344 C1368 0.950 . S
H1345 C1369 0.951 1_554 S
H1346 C1371 0.955 . S
H1347 C1373 0.950 . S
H1348 C1374 0.950 . S
H1349 C1376 0.950 . S
H1350 C1379 0.950 . S
H1351 C1380 0.950 . S
H1352 C1382 0.950 . S
H1353 C1383 0.950 . S
C1354 H1336 0.951 . S
C1354 C1355 1.366 . S
C1354 C1356 1.388 . S
C1355 C1354 1.366 . S
C1355 C1359 1.385 . S
C1356 H1337 0.951 . S
C1356 C1354 1.388 . S
C1356 C1357 1.366 . S
C1357 C1356 1.366 . S
C1357 C1358 1.414 . S
C1357 C1360 1.499 . S
C1358 H1338 0.950 . S
C1358 C1357 1.414 . S
C1358 C1359 1.374 . S
C1359 H1339 0.950 . S
C1359 C1355 1.385 . S
C1359 C1358 1.374 . S
C1360 C1357 1.499 . S
C1360 C1361 1.373 . S
C1360 C1362 1.389 . S
C1361 H1340 0.950 . S
C1361 C1360 1.373 . S
C1361 C1377 1.377 . S
C1362 C1360 1.389 . S
C1362 C1363 1.524 . S
C1362 C1376 1.377 . S
C1363 C1362 1.524 . S
C1363 C1364 1.397 . S
C1363 C1368 1.363 . S
C1364 H1341 0.950 . S
C1364 C1363 1.397 . S
C1364 C1365 1.334 . S
C1365 H1342 1.003 . S
C1365 C1364 1.334 . S
C1365 C1366 1.287 . S
C1366 C1365 1.287 . S
C1366 C1367 1.524 . S
C1366 H1385 0.913 . S
C1367 H1343 0.950 . S
C1367 C1366 1.524 . S
C1367 C1368 1.415 . S
C1368 H1344 0.950 . S
C1368 C1363 1.363 . S
C1368 C1367 1.415 . S
C1369 H1345 0.951 1_556 S
C1369 C1370 1.366 . S
C1369 C1371 1.388 . S
C1370 C1369 1.366 . S
C1370 C1374 1.385 . S
C1371 H1346 0.955 . S
C1371 C1369 1.388 . S
C1371 C1372 1.366 . S
C1372 C1371 1.366 . S
C1372 C1373 1.414 . S
C1372 C1375 1.499 . S
C1373 H1347 0.950 . S
C1373 C1372 1.414 . S
C1373 C1374 1.374 . S
C1374 H1348 0.950 . S
C1374 C1370 1.385 . S
C1374 C1373 1.374 . S
C1375 C1372 1.499 . S
C1375 C1376 1.373 . S
C1375 C1377 1.389 . S
C1376 H1349 0.950 . S
C1376 C1362 1.377 . S
C1376 C1375 1.373 . S
C1377 C1361 1.377 . S
C1377 C1375 1.389 . S
C1377 C1378 1.524 . S
C1378 C1377 1.524 . S
C1378 C1379 1.397 . S
C1378 C1383 1.363 . S
C1379 H1350 0.950 . S
C1379 C1378 1.397 . S
C1379 C1380 1.334 . S
C1380 H1351 0.950 . S
C1380 C1379 1.334 . S
C1380 C1381 1.287 . S
C1381 C1380 1.287 . S
C1381 C1382 1.524 . S
C1381 H1384 0.999 . S
C1382 H1352 0.950 . S
C1382 C1381 1.524 . S
C1382 C1383 1.415 . S
C1383 H1353 0.950 . S
C1383 C1378 1.363 . S
C1383 C1382 1.415 . S
H1384 C1381 0.999 . S
H1385 C1366 0.913 . S
H1386 C1404 0.951 . S
H1387 C1406 0.951 . S
H1388 C1408 0.950 . S
H1389 C1409 0.950 . S
H1390 C1411 0.950 . S
H1391 C1414 0.950 . S
H1392 C1415 0.950 . S
H1393 C1417 0.950 . S
H1394 C1418 0.950 . S
H1395 C1419 0.923 1_556 S
H1396 C1421 0.951 . S
H1397 C1423 0.950 . S
H1398 C1424 0.950 . S
H1399 C1426 0.950 . S
H1400 C1429 0.950 . S
H1401 C1430 0.950 . S
H1402 C1432 0.950 . S
H1403 C1433 0.950 . S
C1404 H1386 0.951 . S
C1404 C1405 1.366 . S
C1404 C1406 1.388 . S
C1405 C1404 1.366 . S
C1405 C1409 1.385 . S
C1406 H1387 0.951 . S
C1406 C1404 1.388 . S
C1406 C1407 1.366 . S
C1407 C1406 1.366 . S
C1407 C1408 1.414 . S
C1407 C1410 1.499 . S
C1408 H1388 0.950 . S
C1408 C1407 1.414 . S
C1408 C1409 1.374 . S
C1409 H1389 0.950 . S
C1409 C1405 1.385 . S
C1409 C1408 1.374 . S
C1410 C1407 1.499 . S
C1410 C1411 1.373 . S
C1410 C1412 1.389 . S
C1411 H1390 0.950 . S
C1411 C1410 1.373 . S
C1411 C1427 1.377 . S
C1412 C1410 1.389 . S
C1412 C1413 1.524 . S
C1412 C1426 1.377 . S
C1413 C1412 1.524 . S
C1413 C1414 1.397 . S
C1413 C1418 1.363 . S
C1414 H1391 0.950 . S
C1414 C1413 1.397 . S
C1414 C1415 1.334 . S
C1415 H1392 0.950 . S
C1415 C1414 1.334 . S
C1415 C1416 1.287 . S
C1416 C1415 1.287 . S
C1416 C1417 1.524 . S
C1416 H1435 0.913 . S
C1417 H1393 0.950 . S
C1417 C1416 1.524 . S
C1417 C1418 1.415 . S
C1418 H1394 0.950 . S
C1418 C1413 1.363 . S
C1418 C1417 1.415 . S
C1419 H1395 0.923 1_554 S
C1419 C1420 1.366 . S
C1419 C1421 1.388 . S
C1420 C1419 1.366 . S
C1420 C1424 1.385 . S
C1421 H1396 0.951 . S
C1421 C1419 1.388 . S
C1421 C1422 1.366 . S
C1422 C1421 1.366 . S
C1422 C1423 1.414 . S
C1422 C1425 1.499 . S
C1423 H1397 0.950 . S
C1423 C1422 1.414 . S
C1423 C1424 1.374 . S
C1424 H1398 0.950 . S
C1424 C1420 1.385 . S
C1424 C1423 1.374 . S
C1425 C1422 1.499 . S
C1425 C1426 1.373 . S
C1425 C1427 1.389 . S
C1426 H1399 0.950 . S
C1426 C1412 1.377 . S
C1426 C1425 1.373 . S
C1427 C1411 1.377 . S
C1427 C1425 1.389 . S
C1427 C1428 1.524 . S
C1428 C1427 1.524 . S
C1428 C1429 1.397 . S
C1428 C1433 1.363 1_554 S
C1429 H1400 0.950 . S
C1429 C1428 1.397 . S
C1429 C1430 1.334 1_554 S
C1430 H1401 0.950 . S
C1430 C1429 1.334 1_556 S
C1430 C1431 1.287 . S
C1431 C1430 1.287 . S
C1431 C1432 1.524 . S
C1431 H1434 0.999 . S
C1432 H1402 0.950 . S
C1432 C1431 1.524 . S
C1432 C1433 1.415 . S
C1433 H1403 0.950 . S
C1433 C1428 1.363 1_556 S
C1433 C1432 1.415 . S
H1434 C1431 0.999 . S
H1435 C1416 0.913 . S
H1436 C1454 0.951 . S
H1437 C1456 0.951 . S
H1438 C1458 0.950 . S
H1439 C1459 0.950 . S
H1440 C1461 0.950 . S
H1441 C1464 0.950 . S
H1442 C1465 0.950 . S
H1443 C1467 0.950 1_556 S
H1444 C1468 0.950 . S
H1445 C1469 0.951 . S
H1446 C1471 0.951 . S
H1447 C1473 0.950 . S
H1448 C1474 0.950 . S
H1449 C1476 0.950 . S
H1450 C1479 0.950 . S
H1451 C1480 0.950 . S
H1452 C1482 0.950 . S
H1453 C1483 0.950 . S
C1454 H1436 0.951 . S
C1454 C1455 1.366 . S
C1454 C1456 1.388 . S
C1455 C1454 1.366 . S
C1455 C1459 1.385 . S
C1456 H1437 0.951 . S
C1456 C1454 1.388 . S
C1456 C1457 1.366 . S
C1457 C1456 1.366 . S
C1457 C1458 1.414 . S
C1457 C1460 1.499 . S
C1458 H1438 0.950 . S
C1458 C1457 1.414 . S
C1458 C1459 1.374 . S
C1459 H1439 0.950 . S
C1459 C1455 1.385 . S
C1459 C1458 1.374 . S
C1460 C1457 1.499 . S
C1460 C1461 1.373 . S
C1460 C1462 1.389 . S
C1461 H1440 0.950 . S
C1461 C1460 1.373 . S
C1461 C1477 1.377 . S
C1462 C1460 1.389 . S
C1462 C1463 1.524 . S
C1462 C1476 1.377 . S
C1463 C1462 1.524 . S
C1463 C1464 1.397 . S
C1463 C1468 1.363 . S
C1464 H1441 0.950 . S
C1464 C1463 1.397 . S
C1464 C1465 1.334 . S
C1465 H1442 0.950 . S
C1465 C1464 1.334 . S
C1465 C1466 1.287 . S
C1466 C1465 1.287 . S
C1466 C1467 1.524 . S
C1466 H1485 0.913 1_554 S
C1467 H1443 0.950 1_554 S
C1467 C1466 1.524 . S
C1467 C1468 1.415 . S
C1468 H1444 0.950 . S
C1468 C1463 1.363 . S
C1468 C1467 1.415 . S
C1469 H1445 0.951 . S
C1469 C1470 1.366 . S
C1469 C1471 1.388 . S
C1470 C1469 1.366 . S
C1470 C1474 1.385 . S
C1471 H1446 0.951 . S
C1471 C1469 1.388 . S
C1471 C1472 1.366 . S
C1472 C1471 1.366 . S
C1472 C1473 1.414 . S
C1472 C1475 1.499 . S
C1473 H1447 0.950 . S
C1473 C1472 1.414 . S
C1473 C1474 1.374 . S
C1474 H1448 0.950 . S
C1474 C1470 1.385 . S
C1474 C1473 1.374 . S
C1475 C1472 1.499 . S
C1475 C1476 1.373 . S
C1475 C1477 1.389 . S
C1476 H1449 0.950 . S
C1476 C1462 1.377 . S
C1476 C1475 1.373 . S
C1477 C1461 1.377 . S
C1477 C1475 1.389 . S
C1477 C1478 1.524 . S
C1478 C1477 1.524 . S
C1478 C1479 1.397 . S
C1478 C1483 1.363 . S
C1479 H1450 0.950 . S
C1479 C1478 1.397 . S
C1479 C1480 1.334 . S
C1480 H1451 0.950 . S
C1480 C1479 1.334 . S
C1480 C1481 1.287 . S
C1481 C1480 1.287 . S
C1481 C1482 1.524 . S
C1481 H1484 0.999 . S
C1482 H1452 0.950 . S
C1482 C1481 1.524 . S
C1482 C1483 1.415 . S
C1483 H1453 0.950 . S
C1483 C1478 1.363 . S
C1483 C1482 1.415 . S
H1484 C1481 0.999 . S
H1485 C1466 0.913 1_556 S
H1486 C1504 0.951 . S
H1487 C1506 0.951 . S
H1488 C1508 0.950 . S
H1489 C1509 0.950 . S
H1490 C1511 0.950 . S
H1491 C1514 0.950 . S
H1492 C1515 0.950 . S
H1493 C1517 0.950 . S
H1494 C1518 0.950 . S
H1495 C1519 0.951 . S
H1496 C1521 0.951 . S
H1497 C1523 0.950 . S
H1498 C1524 0.950 . S
H1499 C1526 0.950 . S
H1500 C1529 0.950 . S
H1501 C1530 0.950 . S
H1502 C1532 0.950 . S
H1503 C1533 0.950 1_554 S
C1504 H1486 0.951 . S
C1504 C1505 1.366 . S
C1504 C1506 1.388 . S
C1505 C1504 1.366 . S
C1505 C1509 1.385 . S
C1506 H1487 0.951 . S
C1506 C1504 1.388 . S
C1506 C1507 1.366 . S
C1507 C1506 1.366 . S
C1507 C1508 1.414 . S
C1507 C1510 1.499 . S
C1508 H1488 0.950 . S
C1508 C1507 1.414 . S
C1508 C1509 1.374 . S
C1509 H1489 0.950 . S
C1509 C1505 1.385 . S
C1509 C1508 1.374 . S
C1510 C1507 1.499 . S
C1510 C1511 1.373 . S
C1510 C1512 1.389 . S
C1511 H1490 0.950 . S
C1511 C1510 1.373 . S
C1511 C1527 1.377 . S
C1512 C1510 1.389 . S
C1512 C1513 1.524 . S
C1512 C1526 1.377 . S
C1513 C1512 1.524 . S
C1513 C1514 1.397 . S
C1513 C1518 1.363 . S
C1514 H1491 0.950 . S
C1514 C1513 1.397 . S
C1514 C1515 1.334 . S
C1515 H1492 0.950 . S
C1515 C1514 1.334 . S
C1515 C1516 1.287 . S
C1516 C1515 1.287 . S
C1516 C1517 1.524 . S
C1516 H1535 0.913 . S
C1517 H1493 0.950 . S
C1517 C1516 1.524 . S
C1517 C1518 1.415 . S
C1518 H1494 0.950 . S
C1518 C1513 1.363 . S
C1518 C1517 1.415 . S
C1519 H1495 0.951 . S
C1519 C1520 1.366 . S
C1519 C1521 1.388 . S
C1520 C1519 1.366 . S
C1520 C1524 1.385 . S
C1521 H1496 0.951 . S
C1521 C1519 1.388 . S
C1521 C1522 1.366 . S
C1522 C1521 1.366 . S
C1522 C1523 1.414 . S
C1522 C1525 1.499 . S
C1523 H1497 0.950 . S
C1523 C1522 1.414 . S
C1523 C1524 1.374 . S
C1524 H1498 0.950 . S
C1524 C1520 1.385 . S
C1524 C1523 1.374 . S
C1525 C1522 1.499 . S
C1525 C1526 1.373 . S
C1525 C1527 1.389 . S
C1526 H1499 0.950 . S
C1526 C1512 1.377 . S
C1526 C1525 1.373 . S
C1527 C1511 1.377 . S
C1527 C1525 1.389 . S
C1527 C1528 1.469 1_554 S
C1528 C1527 1.469 1_556 S
C1528 C1529 1.442 . S
C1528 C1533 1.376 . S
C1529 H1500 0.950 . S
C1529 C1528 1.442 . S
C1529 C1530 1.334 . S
C1530 H1501 0.950 . S
C1530 C1529 1.334 . S
C1530 C1531 1.287 . S
C1531 C1530 1.287 . S
C1531 C1532 1.524 . S
C1531 H1534 0.999 . S
C1532 H1502 0.950 . S
C1532 C1531 1.524 . S
C1532 C1533 1.415 . S
C1533 H1503 0.950 1_556 S
C1533 C1528 1.376 . S
C1533 C1532 1.415 . S
H1534 C1531 0.999 . S
H1535 C1516 0.913 . S
H1536 C1554 0.951 . S
H1537 C1556 0.951 . S
H1538 C1558 0.950 . S
H1539 C1559 0.950 . S
H1540 C1561 0.950 . S
H1541 C1564 0.950 . S
H1542 C1565 0.950 . S
H1543 C1567 0.950 . S
H1544 C1568 0.950 . S
H1545 C1569 0.951 . S
H1546 C1571 0.951 . S
H1547 C1573 0.950 . S
H1548 C1574 0.950 . S
H1549 C1576 0.950 . S
H1550 C1579 0.950 . S
H1551 C1580 0.950 . S
H1552 C1582 0.950 . S
H1553 C1583 0.950 . S
C1554 H1536 0.951 . S
C1554 C1555 1.366 . S
C1554 C1556 1.388 . S
C1555 C1554 1.366 . S
C1555 C1559 1.385 . S
C1556 H1537 0.951 . S
C1556 C1554 1.388 . S
C1556 C1557 1.366 . S
C1557 C1556 1.366 . S
C1557 C1558 1.414 . S
C1557 C1560 1.499 1_655 S
C1558 H1538 0.950 . S
C1558 C1557 1.414 . S
C1558 C1559 1.374 . S
C1559 H1539 0.950 . S
C1559 C1555 1.385 . S
C1559 C1558 1.374 . S
C1560 C1557 1.499 1_455 S
C1560 C1561 1.373 . S
C1560 C1562 1.389 . S
C1561 H1540 0.950 . S
C1561 C1560 1.373 . S
C1561 C1577 1.377 . S
C1562 C1560 1.389 . S
C1562 C1563 1.524 . S
C1562 C1576 1.377 . S
C1563 C1562 1.524 . S
C1563 C1564 1.397 1_455 S
C1563 C1568 1.363 . S
C1564 H1541 0.950 . S
C1564 C1563 1.397 1_655 S
C1564 C1565 1.334 . S
C1565 H1542 0.950 . S
C1565 C1564 1.334 . S
C1565 C1566 1.287 . S
C1566 C1565 1.287 . S
C1566 C1567 1.524 1_655 S
C1566 H1585 0.913 . S
C1567 H1543 0.950 . S
C1567 C1566 1.524 1_455 S
C1567 C1568 1.415 . S
C1568 H1544 0.950 . S
C1568 C1563 1.363 . S
C1568 C1567 1.415 . S
C1569 H1545 0.951 . S
C1569 C1570 1.366 . S
C1569 C1571 1.388 . S
C1570 C1569 1.366 . S
C1570 C1574 1.385 . S
C1571 H1546 0.951 . S
C1571 C1569 1.388 . S
C1571 C1572 1.366 . S
C1572 C1571 1.366 . S
C1572 C1573 1.414 . S
C1572 C1575 1.499 . S
C1573 H1547 0.950 . S
C1573 C1572 1.414 . S
C1573 C1574 1.374 . S
C1574 H1548 0.950 . S
C1574 C1570 1.385 . S
C1574 C1573 1.374 . S
C1575 C1572 1.499 . S
C1575 C1576 1.373 . S
C1575 C1577 1.389 . S
C1576 H1549 0.950 . S
C1576 C1562 1.377 . S
C1576 C1575 1.373 . S
C1577 C1561 1.377 . S
C1577 C1575 1.389 . S
C1577 C1578 1.524 . S
C1578 C1577 1.524 . S
C1578 C1579 1.397 . S
C1578 C1583 1.363 . S
C1579 H1550 0.950 . S
C1579 C1578 1.397 . S
C1579 C1580 1.334 . S
C1580 H1551 0.950 . S
C1580 C1579 1.334 . S
C1580 C1581 1.287 . S
C1581 C1580 1.287 . S
C1581 C1582 1.524 . S
C1581 H1584 0.999 . S
C1582 H1552 0.950 . S
C1582 C1581 1.524 . S
C1582 C1583 1.415 . S
C1583 H1553 0.950 . S
C1583 C1578 1.363 . S
C1583 C1582 1.415 . S
H1584 C1581 0.999 . S
H1585 C1566 0.913 . S
H1586 C1604 0.951 . S
H1587 C1606 0.951 . S
H1588 C1608 0.950 . S
H1589 C1609 0.950 . S
H1590 C1611 0.950 . S
H1591 C1614 0.950 . S
H1592 C1615 0.950 . S
H1593 C1617 0.950 . S
H1594 C1618 0.950 . S
H1595 C1619 0.951 . S
H1596 C1621 0.951 . S
H1597 C1623 0.950 . S
H1598 C1624 0.950 . S
H1599 C1626 0.950 . S
H1600 C1629 0.950 . S
H1601 C1630 0.950 . S
H1602 C1632 0.950 . S
H1603 C1633 0.950 . S
C1604 H1586 0.951 . S
C1604 C1605 1.366 . S
C1604 C1606 1.388 . S
C1605 C1604 1.366 . S
C1605 C1609 1.385 . S
C1606 H1587 0.951 . S
C1606 C1604 1.388 . S
C1606 C1607 1.366 . S
C1607 C1606 1.366 . S
C1607 C1608 1.414 . S
C1607 C1610 1.499 . S
C1608 H1588 0.950 . S
C1608 C1607 1.414 . S
C1608 C1609 1.374 . S
C1609 H1589 0.950 . S
C1609 C1605 1.385 . S
C1609 C1608 1.374 . S
C1610 C1607 1.499 . S
C1610 C1611 1.373 . S
C1610 C1612 1.389 . S
C1611 H1590 0.950 . S
C1611 C1610 1.373 . S
C1611 C1627 1.377 . S
C1612 C1610 1.389 . S
C1612 C1613 1.524 . S
C1612 C1626 1.377 . S
C1613 C1612 1.524 . S
C1613 C1614 1.397 . S
C1613 C1618 1.363 . S
C1614 H1591 0.950 . S
C1614 C1613 1.397 . S
C1614 C1615 1.334 . S
C1615 H1592 0.950 . S
C1615 C1614 1.334 . S
C1615 C1616 1.287 . S
C1616 C1615 1.287 . S
C1616 C1617 1.524 . S
C1616 H1635 0.913 . S
C1617 H1593 0.950 . S
C1617 C1616 1.524 . S
C1617 C1618 1.415 . S
C1618 H1594 0.950 . S
C1618 C1613 1.363 . S
C1618 C1617 1.415 . S
C1619 H1595 0.951 . S
C1619 C1620 1.366 . S
C1619 C1621 1.388 . S
C1620 C1619 1.366 . S
C1620 C1624 1.385 . S
C1621 H1596 0.951 . S
C1621 C1619 1.388 . S
C1621 C1622 1.366 . S
C1622 C1621 1.366 . S
C1622 C1623 1.414 . S
C1622 C1625 1.499 . S
C1623 H1597 0.950 . S
C1623 C1622 1.414 . S
C1623 C1624 1.374 . S
C1624 H1598 0.950 . S
C1624 C1620 1.385 . S
C1624 C1623 1.374 . S
C1625 C1622 1.499 . S
C1625 C1626 1.373 . S
C1625 C1627 1.389 . S
C1626 H1599 0.950 . S
C1626 C1612 1.377 . S
C1626 C1625 1.373 . S
C1627 C1611 1.377 . S
C1627 C1625 1.389 . S
C1627 C1628 1.524 . S
C1628 C1627 1.524 . S
C1628 C1629 1.397 . S
C1628 C1633 1.363 . S
C1629 H1600 0.950 . S
C1629 C1628 1.397 . S
C1629 C1630 1.334 . S
C1630 H1601 0.950 . S
C1630 C1629 1.334 . S
C1630 C1631 1.287 . S
C1631 C1630 1.287 . S
C1631 C1632 1.524 . S
C1631 H1634 0.999 . S
C1632 H1602 0.950 . S
C1632 C1631 1.524 . S
C1632 C1633 1.415 . S
C1633 H1603 0.950 . S
C1633 C1628 1.363 . S
C1633 C1632 1.415 . S
H1634 C1631 0.999 . S
H1635 C1616 0.913 . S
H1636 C1654 0.951 . S
H1637 C1656 0.951 . S
H1638 C1658 0.950 . S
H1639 C1659 0.950 . S
H1640 C1661 0.954 1_545 S
H1641 C1664 0.950 . S
H1642 C1665 0.950 . S
H1643 C1667 0.949 . S
H1644 C1668 0.950 . S
H1645 C1669 0.951 . S
H1646 C1671 0.951 . S
H1647 C1673 0.950 . S
H1648 C1674 0.950 . S
H1649 C1676 0.950 . S
H1650 C1679 0.950 . S
H1651 C1680 0.950 . S
H1652 C1682 0.950 . S
H1653 C1683 0.950 . S
C1654 H1636 0.951 . S
C1654 C1655 1.366 . S
C1654 C1656 1.388 . S
C1655 C1654 1.366 . S
C1655 C1659 1.385 . S
C1656 H1637 0.951 . S
C1656 C1654 1.388 . S
C1656 C1657 1.366 . S
C1657 C1656 1.366 . S
C1657 C1658 1.414 . S
C1657 C1660 1.499 . S
C1658 H1638 0.950 . S
C1658 C1657 1.414 . S
C1658 C1659 1.374 . S
C1659 H1639 0.950 . S
C1659 C1655 1.385 . S
C1659 C1658 1.374 . S
C1660 C1657 1.499 . S
C1660 C1661 1.375 1_545 S
C1660 C1662 1.389 1_545 S
C1661 H1640 0.954 1_565 S
C1661 C1660 1.375 1_565 S
C1661 C1677 1.371 . S
C1662 C1660 1.389 1_565 S
C1662 C1663 1.514 1_565 S
C1662 C1676 1.377 . S
C1663 C1662 1.514 1_545 S
C1663 C1664 1.405 . S
C1663 C1668 1.363 1_545 S
C1664 H1641 0.950 . S
C1664 C1663 1.405 . S
C1664 C1665 1.334 . S
C1665 H1642 0.950 . S
C1665 C1664 1.334 . S
C1665 C1666 1.287 . S
C1666 C1665 1.287 . S
C1666 C1667 1.519 1_545 S
C1666 H1685 0.913 . S
C1667 H1643 0.949 . S
C1667 C1666 1.519 1_565 S
C1667 C1668 1.426 . S
C1668 H1644 0.950 . S
C1668 C1663 1.363 1_565 S
C1668 C1667 1.426 . S
C1669 H1645 0.951 . S
C1669 C1670 1.366 . S
C1669 C1671 1.388 . S
C1670 C1669 1.366 . S
C1670 C1674 1.385 . S
C1671 H1646 0.951 . S
C1671 C1669 1.388 . S
C1671 C1672 1.366 . S
C1672 C1671 1.366 . S
C1672 C1673 1.414 . S
C1672 C1675 1.499 . S
C1673 H1647 0.950 . S
C1673 C1672 1.414 . S
C1673 C1674 1.374 . S
C1674 H1648 0.950 . S
C1674 C1670 1.385 . S
C1674 C1673 1.374 . S
C1675 C1672 1.499 . S
C1675 C1676 1.373 . S
C1675 C1677 1.389 . S
C1676 H1649 0.950 . S
C1676 C1662 1.377 . S
C1676 C1675 1.373 . S
C1677 C1661 1.371 . S
C1677 C1675 1.389 . S
C1677 C1678 1.524 . S
C1678 C1677 1.524 . S
C1678 C1679 1.397 . S
C1678 C1683 1.363 . S
C1679 H1650 0.950 . S
C1679 C1678 1.397 . S
C1679 C1680 1.334 . S
C1680 H1651 0.950 . S
C1680 C1679 1.334 . S
C1680 C1681 1.287 . S
C1681 C1680 1.287 . S
C1681 C1682 1.524 . S
C1681 H1684 0.999 . S
C1682 H1652 0.950 . S
C1682 C1681 1.524 . S
C1682 C1683 1.415 . S
C1683 H1653 0.950 . S
C1683 C1678 1.363 . S
C1683 C1682 1.415 . S
H1684 C1681 0.999 . S
H1685 C1666 0.913 . S
H1686 C1704 0.951 . S
H1687 C1706 0.951 . S
H1688 C1708 0.950 . S
H1689 C1709 0.950 . S
H1690 C1711 0.950 . S
H1691 C1714 0.950 . S
H1692 C1715 0.950 . S
H1693 C1717 0.950 . S
H1694 C1718 0.950 . S
H1695 C1719 0.951 . S
H1696 C1721 0.951 . S
H1697 C1723 0.950 . S
H1698 C1724 0.950 . S
H1699 C1726 0.950 . S
H1700 C1729 0.950 . S
H1701 C1730 0.950 . S
H1702 C1732 0.950 . S
H1703 C1733 0.950 . S
C1704 H1686 0.951 . S
C1704 C1705 1.366 . S
C1704 C1706 1.388 . S
C1705 C1704 1.366 . S
C1705 C1709 1.385 . S
C1706 H1687 0.951 . S
C1706 C1704 1.388 . S
C1706 C1707 1.366 . S
C1707 C1706 1.366 . S
C1707 C1708 1.414 . S
C1707 C1710 1.499 . S
C1708 H1688 0.950 . S
C1708 C1707 1.414 . S
C1708 C1709 1.374 . S
C1709 H1689 0.950 . S
C1709 C1705 1.385 . S
C1709 C1708 1.374 . S
C1710 C1707 1.499 . S
C1710 C1711 1.373 . S
C1710 C1712 1.389 . S
C1711 H1690 0.950 . S
C1711 C1710 1.373 . S
C1711 C1727 1.377 . S
C1712 C1710 1.389 . S
C1712 C1713 1.524 . S
C1712 C1726 1.377 . S
C1713 C1712 1.524 . S
C1713 C1714 1.397 . S
C1713 C1718 1.363 . S
C1714 H1691 0.950 . S
C1714 C1713 1.397 . S
C1714 C1715 1.334 . S
C1715 H1692 0.950 . S
C1715 C1714 1.334 . S
C1715 C1716 1.287 . S
C1716 C1715 1.287 . S
C1716 C1717 1.524 . S
C1716 H1735 0.913 . S
C1717 H1693 0.950 . S
C1717 C1716 1.524 . S
C1717 C1718 1.415 . S
C1718 H1694 0.950 . S
C1718 C1713 1.363 . S
C1718 C1717 1.415 . S
C1719 H1695 0.951 . S
C1719 C1720 1.366 . S
C1719 C1721 1.388 . S
C1720 C1719 1.366 . S
C1720 C1724 1.385 . S
C1721 H1696 0.951 . S
C1721 C1719 1.388 . S
C1721 C1722 1.366 . S
C1722 C1721 1.366 . S
C1722 C1723 1.414 . S
C1722 C1725 1.499 . S
C1723 H1697 0.950 . S
C1723 C1722 1.414 . S
C1723 C1724 1.374 . S
C1724 H1698 0.950 . S
C1724 C1720 1.385 . S
C1724 C1723 1.374 . S
C1725 C1722 1.499 . S
C1725 C1726 1.373 . S
C1725 C1727 1.389 . S
C1726 H1699 0.950 . S
C1726 C1712 1.377 . S
C1726 C1725 1.373 . S
C1727 C1711 1.377 . S
C1727 C1725 1.389 . S
C1727 C1728 1.524 . S
C1728 C1727 1.524 . S
C1728 C1729 1.397 . S
C1728 C1733 1.363 . S
C1729 H1700 0.950 . S
C1729 C1728 1.397 . S
C1729 C1730 1.334 . S
C1730 H1701 0.950 . S
C1730 C1729 1.334 . S
C1730 C1731 1.287 . S
C1731 C1730 1.287 . S
C1731 C1732 1.524 . S
C1731 H1734 0.999 . S
C1732 H1702 0.950 . S
C1732 C1731 1.524 . S
C1732 C1733 1.415 . S
C1733 H1703 0.950 . S
C1733 C1728 1.363 . S
C1733 C1732 1.415 . S
H1734 C1731 0.999 . S
H1735 C1716 0.913 . S
H1736 C1754 0.951 . S
H1737 C1756 0.951 . S
H1738 C1758 0.950 . S
H1739 C1759 0.950 . S
H1740 C1761 0.950 . S
H1741 C1764 0.950 . S
H1742 C1765 0.950 . S
H1743 C1767 0.950 . S
H1744 C1768 0.950 . S
H1745 C1769 0.951 . S
H1746 C1771 0.951 . S
H1747 C1773 0.950 . S
H1748 C1774 0.950 . S
H1749 C1776 0.950 . S
H1750 C1779 0.950 . S
H1751 C1780 0.950 . S
H1752 C1782 0.950 . S
H1753 C1783 0.950 . S
C1754 H1736 0.951 . S
C1754 C1755 1.366 . S
C1754 C1756 1.388 . S
C1755 C1754 1.366 . S
C1755 C1759 1.385 . S
C1756 H1737 0.951 . S
C1756 C1754 1.388 . S
C1756 C1757 1.366 . S
C1757 C1756 1.366 . S
C1757 C1758 1.414 . S
C1757 C1760 1.499 . S
C1758 H1738 0.950 . S
C1758 C1757 1.414 . S
C1758 C1759 1.374 . S
C1759 H1739 0.950 . S
C1759 C1755 1.385 . S
C1759 C1758 1.374 . S
C1760 C1757 1.499 . S
C1760 C1761 1.373 . S
C1760 C1762 1.389 . S
C1761 H1740 0.950 . S
C1761 C1760 1.373 . S
C1761 C1777 1.377 . S
C1762 C1760 1.389 . S
C1762 C1763 1.524 . S
C1762 C1776 1.377 . S
C1763 C1762 1.524 . S
C1763 C1764 1.397 . S
C1763 C1768 1.363 . S
C1764 H1741 0.950 . S
C1764 C1763 1.397 . S
C1764 C1765 1.334 . S
C1765 H1742 0.950 . S
C1765 C1764 1.334 . S
C1765 C1766 1.287 . S
C1766 C1765 1.287 . S
C1766 C1767 1.524 . S
C1766 H1785 0.913 . S
C1767 H1743 0.950 . S
C1767 C1766 1.524 . S
C1767 C1768 1.415 . S
C1768 H1744 0.950 . S
C1768 C1763 1.363 . S
C1768 C1767 1.415 . S
C1769 H1745 0.951 . S
C1769 C1770 1.366 . S
C1769 C1771 1.388 . S
C1770 C1769 1.366 . S
C1770 C1774 1.385 . S
C1771 H1746 0.951 . S
C1771 C1769 1.388 . S
C1771 C1772 1.366 . S
C1772 C1771 1.366 . S
C1772 C1773 1.414 . S
C1772 C1775 1.499 . S
C1773 H1747 0.950 . S
C1773 C1772 1.414 . S
C1773 C1774 1.374 . S
C1774 H1748 0.950 . S
C1774 C1770 1.385 . S
C1774 C1773 1.374 . S
C1775 C1772 1.499 . S
C1775 C1776 1.373 . S
C1775 C1777 1.389 . S
C1776 H1749 0.950 . S
C1776 C1762 1.377 . S
C1776 C1775 1.373 . S
C1777 C1761 1.377 . S
C1777 C1775 1.389 . S
C1777 C1778 1.524 . S
C1778 C1777 1.524 . S
C1778 C1779 1.397 . S
C1778 C1783 1.363 . S
C1779 H1750 0.950 . S
C1779 C1778 1.397 . S
C1779 C1780 1.334 . S
C1780 H1751 0.950 . S
C1780 C1779 1.334 . S
C1780 C1781 1.287 . S
C1781 C1780 1.287 . S
C1781 C1782 1.524 . S
C1781 H1784 0.999 . S
C1782 H1752 0.950 . S
C1782 C1781 1.524 . S
C1782 C1783 1.415 . S
C1783 H1753 0.950 . S
C1783 C1778 1.363 . S
C1783 C1782 1.415 . S
H1784 C1781 0.999 . S
H1785 C1766 0.913 . S
H1786 C1804 0.951 . S
H1787 C1806 0.951 . S
H1788 C1808 0.950 . S
H1789 C1809 0.950 . S
H1790 C1811 0.950 . S
H1791 C1814 0.950 . S
H1792 C1815 0.950 . S
H1793 C1817 0.950 . S
H1794 C1818 0.950 . S
H1795 C1819 0.951 . S
H1796 C1821 0.951 . S
H1797 C1823 0.950 . S
H1798 C1824 0.950 . S
H1799 C1826 0.950 . S
H1800 C1829 0.950 . S
H1801 C1830 0.950 . S
H1802 C1832 0.950 . S
H1803 C1833 0.950 . S
C1804 H1786 0.951 . S
C1804 C1805 1.366 . S
C1804 C1806 1.388 . S
C1805 C1804 1.366 . S
C1805 C1809 1.385 . S
C1806 H1787 0.951 . S
C1806 C1804 1.388 . S
C1806 C1807 1.366 . S
C1807 C1806 1.366 . S
C1807 C1808 1.414 . S
C1807 C1810 1.499 . S
C1808 H1788 0.950 . S
C1808 C1807 1.414 . S
C1808 C1809 1.374 . S
C1809 H1789 0.950 . S
C1809 C1805 1.385 . S
C1809 C1808 1.374 . S
C1810 C1807 1.499 . S
C1810 C1811 1.373 . S
C1810 C1812 1.389 . S
C1811 H1790 0.950 . S
C1811 C1810 1.373 . S
C1811 C1827 1.377 . S
C1812 C1810 1.389 . S
C1812 C1813 1.524 . S
C1812 C1826 1.377 . S
C1813 C1812 1.524 . S
C1813 C1814 1.397 . S
C1813 C1818 1.363 . S
C1814 H1791 0.950 . S
C1814 C1813 1.397 . S
C1814 C1815 1.334 . S
C1815 H1792 0.950 . S
C1815 C1814 1.334 . S
C1815 C1816 1.287 . S
C1816 C1815 1.287 . S
C1816 C1817 1.524 . S
C1816 H1835 0.913 . S
C1817 H1793 0.950 . S
C1817 C1816 1.524 . S
C1817 C1818 1.415 . S
C1818 H1794 0.950 . S
C1818 C1813 1.363 . S
C1818 C1817 1.415 . S
C1819 H1795 0.951 . S
C1819 C1820 1.366 . S
C1819 C1821 1.388 . S
C1820 C1819 1.366 . S
C1820 C1824 1.385 . S
C1821 H1796 0.951 . S
C1821 C1819 1.388 . S
C1821 C1822 1.366 . S
C1822 C1821 1.366 . S
C1822 C1823 1.414 . S
C1822 C1825 1.499 . S
C1823 H1797 0.950 . S
C1823 C1822 1.414 . S
C1823 C1824 1.374 . S
C1824 H1798 0.950 . S
C1824 C1820 1.385 . S
C1824 C1823 1.374 . S
C1825 C1822 1.499 . S
C1825 C1826 1.373 . S
C1825 C1827 1.389 . S
C1826 H1799 0.950 . S
C1826 C1812 1.377 . S
C1826 C1825 1.373 . S
C1827 C1811 1.377 . S
C1827 C1825 1.389 . S
C1827 C1828 1.524 . S
C1828 C1827 1.524 . S
C1828 C1829 1.397 . S
C1828 C1833 1.363 . S
C1829 H1800 0.950 . S
C1829 C1828 1.397 . S
C1829 C1830 1.334 . S
C1830 H1801 0.950 . S
C1830 C1829 1.334 . S
C1830 C1831 1.287 . S
C1831 C1830 1.287 . S
C1831 C1832 1.524 . S
C1831 H1834 0.999 . S
C1832 H1802 0.950 . S
C1832 C1831 1.524 . S
C1832 C1833 1.415 . S
C1833 H1803 0.950 . S
C1833 C1828 1.363 . S
C1833 C1832 1.415 . S
H1834 C1831 0.999 . S
H1835 C1816 0.913 . S
H1836 C1854 0.951 . S
H1837 C1856 0.951 . S
H1838 C1858 0.950 . S
H1839 C1859 0.950 . S
H1840 C1861 0.950 . S
H1841 C1864 0.950 . S
H1842 C1865 0.950 . S
H1843 C1867 0.950 . S
H1844 C1868 0.950 . S
H1845 C1869 0.951 . S
H1846 C1871 0.951 . S
H1847 C1873 0.950 . S
H1848 C1874 0.950 . S
H1849 C1876 0.950 . S
H1850 C1879 0.950 . S
H1851 C1880 0.950 . S
H1852 C1882 0.950 . S
H1853 C1883 0.950 . S
C1854 H1836 0.951 . S
C1854 C1855 1.366 . S
C1854 C1856 1.388 . S
C1855 C1854 1.366 . S
C1855 C1859 1.385 . S
C1856 H1837 0.951 . S
C1856 C1854 1.388 . S
C1856 C1857 1.366 . S
C1857 C1856 1.366 . S
C1857 C1858 1.414 . S
C1857 C1860 1.499 . S
C1858 H1838 0.950 . S
C1858 C1857 1.414 . S
C1858 C1859 1.374 . S
C1859 H1839 0.950 . S
C1859 C1855 1.385 . S
C1859 C1858 1.374 . S
C1860 C1857 1.499 . S
C1860 C1861 1.373 . S
C1860 C1862 1.389 . S
C1861 H1840 0.950 . S
C1861 C1860 1.373 . S
C1861 C1877 1.377 . S
C1862 C1860 1.389 . S
C1862 C1863 1.524 . S
C1862 C1876 1.377 . S
C1863 C1862 1.524 . S
C1863 C1864 1.397 . S
C1863 C1868 1.363 . S
C1864 H1841 0.950 . S
C1864 C1863 1.397 . S
C1864 C1865 1.334 . S
C1865 H1842 0.950 . S
C1865 C1864 1.334 . S
C1865 C1866 1.287 . S
C1866 C1865 1.287 . S
C1866 C1867 1.524 . S
C1866 H1885 0.913 . S
C1867 H1843 0.950 . S
C1867 C1866 1.524 . S
C1867 C1868 1.415 . S
C1868 H1844 0.950 . S
C1868 C1863 1.363 . S
C1868 C1867 1.415 . S
C1869 H1845 0.951 . S
C1869 C1870 1.366 . S
C1869 C1871 1.388 . S
C1870 C1869 1.366 . S
C1870 C1874 1.385 . S
C1871 H1846 0.951 . S
C1871 C1869 1.388 . S
C1871 C1872 1.366 . S
C1872 C1871 1.366 . S
C1872 C1873 1.414 . S
C1872 C1875 1.499 . S
C1873 H1847 0.950 . S
C1873 C1872 1.414 . S
C1873 C1874 1.374 . S
C1874 H1848 0.950 . S
C1874 C1870 1.385 . S
C1874 C1873 1.374 . S
C1875 C1872 1.499 . S
C1875 C1876 1.373 . S
C1875 C1877 1.389 . S
C1876 H1849 0.950 . S
C1876 C1862 1.377 . S
C1876 C1875 1.373 . S
C1877 C1861 1.377 . S
C1877 C1875 1.389 . S
C1877 C1878 1.524 . S
C1878 C1877 1.524 . S
C1878 C1879 1.397 . S
C1878 C1883 1.363 . S
C1879 H1850 0.950 . S
C1879 C1878 1.397 . S
C1879 C1880 1.334 . S
C1880 H1851 0.950 . S
C1880 C1879 1.334 . S
C1880 C1881 1.287 . S
C1881 C1880 1.287 . S
C1881 C1882 1.524 . S
C1881 H1884 0.999 . S
C1882 H1852 0.950 . S
C1882 C1881 1.524 . S
C1882 C1883 1.415 . S
C1883 H1853 0.950 . S
C1883 C1878 1.363 . S
C1883 C1882 1.415 . S
H1884 C1881 0.999 . S
H1885 C1866 0.913 . S
H1886 C1904 0.951 . S
H1887 C1906 0.951 . S
H1888 C1908 0.950 . S
H1889 C1909 0.950 . S
H1890 C1911 0.950 . S
H1891 C1914 0.950 . S
H1892 C1915 0.950 . S
H1893 C1917 0.950 . S
H1894 C1918 0.950 . S
H1895 C1919 0.951 . S
H1896 C1921 0.951 . S
H1897 C1923 0.950 . S
H1898 C1924 0.950 . S
H1899 C1926 0.950 . S
H1900 C1929 0.950 . S
H1901 C1930 0.950 . S
H1902 C1932 0.950 . S
H1903 C1933 0.950 . S
C1904 H1886 0.951 . S
C1904 C1905 1.366 . S
C1904 C1906 1.388 . S
C1905 C1904 1.366 . S
C1905 C1909 1.385 . S
C1906 H1887 0.951 . S
C1906 C1904 1.388 . S
C1906 C1907 1.366 . S
C1907 C1906 1.366 . S
C1907 C1908 1.414 . S
C1907 C1910 1.499 . S
C1908 H1888 0.950 . S
C1908 C1907 1.414 . S
C1908 C1909 1.374 . S
C1909 H1889 0.950 . S
C1909 C1905 1.385 . S
C1909 C1908 1.374 . S
C1910 C1907 1.499 . S
C1910 C1911 1.373 . S
C1910 C1912 1.389 . S
C1911 H1890 0.950 . S
C1911 C1910 1.373 . S
C1911 C1927 1.377 . S
C1912 C1910 1.389 . S
C1912 C1913 1.524 . S
C1912 C1926 1.377 . S
C1913 C1912 1.524 . S
C1913 C1914 1.397 . S
C1913 C1918 1.363 . S
C1914 H1891 0.950 . S
C1914 C1913 1.397 . S
C1914 C1915 1.334 . S
C1915 H1892 0.950 . S
C1915 C1914 1.334 . S
C1915 C1916 1.287 . S
C1916 C1915 1.287 . S
C1916 C1917 1.524 . S
C1916 H1935 0.913 . S
C1917 H1893 0.950 . S
C1917 C1916 1.524 . S
C1917 C1918 1.415 . S
C1918 H1894 0.950 . S
C1918 C1913 1.363 . S
C1918 C1917 1.415 . S
C1919 H1895 0.951 . S
C1919 C1920 1.366 . S
C1919 C1921 1.388 . S
C1920 C1919 1.366 . S
C1920 C1924 1.385 . S
C1921 H1896 0.951 . S
C1921 C1919 1.388 . S
C1921 C1922 1.366 . S
C1922 C1921 1.366 . S
C1922 C1923 1.414 . S
C1922 C1925 1.499 . S
C1923 H1897 0.950 . S
C1923 C1922 1.414 . S
C1923 C1924 1.374 . S
C1924 H1898 0.950 . S
C1924 C1920 1.385 . S
C1924 C1923 1.374 . S
C1925 C1922 1.499 . S
C1925 C1926 1.373 . S
C1925 C1927 1.389 . S
C1926 H1899 0.950 . S
C1926 C1912 1.377 . S
C1926 C1925 1.373 . S
C1927 C1911 1.377 . S
C1927 C1925 1.389 . S
C1927 C1928 1.524 . S
C1928 C1927 1.524 . S
C1928 C1929 1.397 . S
C1928 C1933 1.363 . S
C1929 H1900 0.950 . S
C1929 C1928 1.397 . S
C1929 C1930 1.334 . S
C1930 H1901 0.950 . S
C1930 C1929 1.334 . S
C1930 C1931 1.287 . S
C1931 C1930 1.287 . S
C1931 C1932 1.524 . S
C1931 H1934 0.999 . S
C1932 H1902 0.950 . S
C1932 C1931 1.524 . S
C1932 C1933 1.415 . S
C1933 H1903 0.950 . S
C1933 C1928 1.363 . S
C1933 C1932 1.415 . S
H1934 C1931 0.999 . S
H1935 C1916 0.913 . S
H1936 C1954 0.951 . S
H1937 C1956 0.951 . S
H1938 C1958 0.950 . S
H1939 C1959 0.950 . S
H1940 C1961 0.950 . S
H1941 C1964 0.950 . S
H1942 C1965 0.950 . S
H1943 C1967 0.950 . S
H1944 C1968 0.950 . S
H1945 C1969 0.951 . S
H1946 C1971 0.951 . S
H1947 C1973 0.950 . S
H1948 C1974 0.950 . S
H1949 C1976 0.950 . S
H1950 C1979 0.950 . S
H1951 C1980 0.950 . S
H1952 C1982 0.950 . S
H1953 C1983 0.950 . S
C1954 H1936 0.951 . S
C1954 C1955 1.366 . S
C1954 C1956 1.388 . S
C1955 C1954 1.366 . S
C1955 C1959 1.385 . S
C1956 H1937 0.951 . S
C1956 C1954 1.388 . S
C1956 C1957 1.366 . S
C1957 C1956 1.366 . S
C1957 C1958 1.414 . S
C1957 C1960 1.499 . S
C1958 H1938 0.950 . S
C1958 C1957 1.414 . S
C1958 C1959 1.374 . S
C1959 H1939 0.950 . S
C1959 C1955 1.385 . S
C1959 C1958 1.374 . S
C1960 C1957 1.499 . S
C1960 C1961 1.373 . S
C1960 C1962 1.389 . S
C1961 H1940 0.950 . S
C1961 C1960 1.373 . S
C1961 C1977 1.377 . S
C1962 C1960 1.389 . S
C1962 C1963 1.524 . S
C1962 C1976 1.377 . S
C1963 C1962 1.524 . S
C1963 C1964 1.397 . S
C1963 C1968 1.363 . S
C1964 H1941 0.950 . S
C1964 C1963 1.397 . S
C1964 C1965 1.334 . S
C1965 H1942 0.950 . S
C1965 C1964 1.334 . S
C1965 C1966 1.287 . S
C1966 C1965 1.287 . S
C1966 C1967 1.524 . S
C1966 H1985 0.913 . S
C1967 H1943 0.950 . S
C1967 C1966 1.524 . S
C1967 C1968 1.415 . S
C1968 H1944 0.950 . S
C1968 C1963 1.363 . S
C1968 C1967 1.415 . S
C1969 H1945 0.951 . S
C1969 C1970 1.366 . S
C1969 C1971 1.388 . S
C1970 C1969 1.366 . S
C1970 C1974 1.385 . S
C1971 H1946 0.951 . S
C1971 C1969 1.388 . S
C1971 C1972 1.366 . S
C1972 C1971 1.366 . S
C1972 C1973 1.414 . S
C1972 C1975 1.499 . S
C1973 H1947 0.950 . S
C1973 C1972 1.414 . S
C1973 C1974 1.374 . S
C1974 H1948 0.950 . S
C1974 C1970 1.385 . S
C1974 C1973 1.374 . S
C1975 C1972 1.499 . S
C1975 C1976 1.373 . S
C1975 C1977 1.389 . S
C1976 H1949 0.950 . S
C1976 C1962 1.377 . S
C1976 C1975 1.373 . S
C1977 C1961 1.377 . S
C1977 C1975 1.389 . S
C1977 C1978 1.524 . S
C1978 C1977 1.524 . S
C1978 C1979 1.397 . S
C1978 C1983 1.363 . S
C1979 H1950 0.950 . S
C1979 C1978 1.397 . S
C1979 C1980 1.334 . S
C1980 H1951 0.950 . S
C1980 C1979 1.334 . S
C1980 C1981 1.287 . S
C1981 C1980 1.287 . S
C1981 C1982 1.524 . S
C1981 H1984 0.999 . S
C1982 H1952 0.950 . S
C1982 C1981 1.524 . S
C1982 C1983 1.415 . S
C1983 H1953 0.950 . S
C1983 C1978 1.363 . S
C1983 C1982 1.415 . S
H1984 C1981 0.999 . S
H1985 C1966 0.913 . S
H1986 C2004 0.951 . S
H1987 C2006 0.951 . S
H1988 C2008 0.950 . S
H1989 C2009 0.950 . S
H1990 C2011 0.950 . S
H1991 C2014 0.950 . S
H1992 C2015 0.950 . S
H1993 C2017 0.950 . S
H1994 C2018 0.950 . S
H1995 C2019 0.951 . S
H1996 C2021 0.951 . S
H1997 C2023 0.950 . S
H1998 C2024 0.950 . S
H1999 C2026 0.950 . S
H2000 C2029 0.950 . S
H2001 C2030 0.950 . S
H2002 C2032 0.950 . S
H2003 C2033 0.950 . S
C2004 H1986 0.951 . S
C2004 C2005 1.366 . S
C2004 C2006 1.388 . S
C2005 C2004 1.366 . S
C2005 C2009 1.385 . S
C2006 H1987 0.951 . S
C2006 C2004 1.388 . S
C2006 C2007 1.366 . S
C2007 C2006 1.366 . S
C2007 C2008 1.414 . S
C2007 C2010 1.499 . S
C2008 H1988 0.950 . S
C2008 C2007 1.414 . S
C2008 C2009 1.374 . S
C2009 H1989 0.950 . S
C2009 C2005 1.385 . S
C2009 C2008 1.374 . S
C2010 C2007 1.499 . S
C2010 C2011 1.373 1_545 S
C2010 C2012 1.389 1_545 S
C2011 H1990 0.950 . S
C2011 C2010 1.373 1_565 S
C2011 C2027 1.377 . S
C2012 C2010 1.389 1_565 S
C2012 C2013 1.524 1_565 S
C2012 C2026 1.377 . S
C2013 C2012 1.524 1_545 S
C2013 C2014 1.397 . S
C2013 C2018 1.363 1_545 S
C2014 H1991 0.950 . S
C2014 C2013 1.397 . S
C2014 C2015 1.334 . S
C2015 H1992 0.950 . S
C2015 C2014 1.334 . S
C2015 C2016 1.287 . S
C2016 C2015 1.287 . S
C2016 C2017 1.524 . S
C2016 H2035 0.913 . S
C2017 H1993 0.950 . S
C2017 C2016 1.524 . S
C2017 C2018 1.415 1_545 S
C2018 H1994 0.950 . S
C2018 C2013 1.363 1_565 S
C2018 C2017 1.415 1_565 S
C2019 H1995 0.951 . S
C2019 C2020 1.366 . S
C2019 C2021 1.388 . S
C2020 C2019 1.366 . S
C2020 C2024 1.385 . S
C2021 H1996 0.951 . S
C2021 C2019 1.388 . S
C2021 C2022 1.366 . S
C2022 C2021 1.366 . S
C2022 C2023 1.414 . S
C2022 C2025 1.499 . S
C2023 H1997 0.950 . S
C2023 C2022 1.414 . S
C2023 C2024 1.374 . S
C2024 H1998 0.950 . S
C2024 C2020 1.385 . S
C2024 C2023 1.374 . S
C2025 C2022 1.499 . S
C2025 C2026 1.373 . S
C2025 C2027 1.389 . S
C2026 H1999 0.950 . S
C2026 C2012 1.377 . S
C2026 C2025 1.373 . S
C2027 C2011 1.377 . S
C2027 C2025 1.389 . S
C2027 C2028 1.524 . S
C2028 C2027 1.524 . S
C2028 C2029 1.397 . S
C2028 C2033 1.363 . S
C2029 H2000 0.950 . S
C2029 C2028 1.397 . S
C2029 C2030 1.334 . S
C2030 H2001 0.950 . S
C2030 C2029 1.334 . S
C2030 C2031 1.287 . S
C2031 C2030 1.287 . S
C2031 C2032 1.524 . S
C2031 H2034 0.999 . S
C2032 H2002 0.950 . S
C2032 C2031 1.524 . S
C2032 C2033 1.415 . S
C2033 H2003 0.950 . S
C2033 C2028 1.363 . S
C2033 C2032 1.415 . S
H2034 C2031 0.999 . S
H2035 C2016 0.913 . S
H2036 C2054 0.951 . S
H2037 C2056 0.962 . S
H2038 C2058 0.950 . S
H2039 C2059 0.950 . S
H2040 C2061 0.950 . S
H2041 C2064 0.950 . S
H2042 C2065 0.950 . S
H2043 C2067 0.950 . S
H2044 C2068 0.950 . S
H2045 C2069 0.951 . S
H2046 C2071 0.951 . S
H2047 C2073 0.950 . S
H2048 C2074 0.950 . S
H2049 C2076 0.950 . S
H2050 C2079 0.950 . S
H2051 C2080 0.950 . S
H2052 C2082 0.950 . S
H2053 C2083 0.950 . S
C2054 H2036 0.951 . S
C2054 C2055 1.366 . S
C2054 C2056 1.388 . S
C2055 C2054 1.366 . S
C2055 C2059 1.385 . S
C2056 H2037 0.962 . S
C2056 C2054 1.388 . S
C2056 C2057 1.366 . S
C2057 C2056 1.366 . S
C2057 C2058 1.414 . S
C2057 C2060 1.499 1_655 S
C2058 H2038 0.950 . S
C2058 C2057 1.414 . S
C2058 C2059 1.374 . S
C2059 H2039 0.950 . S
C2059 C2055 1.385 . S
C2059 C2058 1.374 . S
C2060 C2057 1.499 1_455 S
C2060 C2061 1.373 . S
C2060 C2062 1.389 . S
C2061 H2040 0.950 . S
C2061 C2060 1.373 . S
C2061 C2077 1.377 . S
C2062 C2060 1.389 . S
C2062 C2063 1.524 . S
C2062 C2076 1.377 . S
C2063 C2062 1.524 . S
C2063 C2064 1.397 . S
C2063 C2068 1.363 . S
C2064 H2041 0.950 . S
C2064 C2063 1.397 . S
C2064 C2065 1.334 . S
C2065 H2042 0.950 . S
C2065 C2064 1.334 . S
C2065 C2066 1.287 . S
C2066 C2065 1.287 . S
C2066 C2067 1.524 . S
C2066 H2085 0.913 . S
C2067 H2043 0.950 . S
C2067 C2066 1.524 . S
C2067 C2068 1.415 . S
C2068 H2044 0.950 . S
C2068 C2063 1.363 . S
C2068 C2067 1.415 . S
C2069 H2045 0.951 . S
C2069 C2070 1.366 . S
C2069 C2071 1.388 . S
C2070 C2069 1.366 . S
C2070 C2074 1.385 . S
C2071 H2046 0.951 . S
C2071 C2069 1.388 . S
C2071 C2072 1.366 . S
C2072 C2071 1.366 . S
C2072 C2073 1.414 . S
C2072 C2075 1.499 . S
C2073 H2047 0.950 . S
C2073 C2072 1.414 . S
C2073 C2074 1.374 . S
C2074 H2048 0.950 . S
C2074 C2070 1.385 . S
C2074 C2073 1.374 . S
C2075 C2072 1.499 . S
C2075 C2076 1.373 . S
C2075 C2077 1.389 . S
C2076 H2049 0.950 . S
C2076 C2062 1.377 . S
C2076 C2075 1.373 . S
C2077 C2061 1.377 . S
C2077 C2075 1.389 . S
C2077 C2078 1.524 . S
C2078 C2077 1.524 . S
C2078 C2079 1.397 . S
C2078 C2083 1.363 . S
C2079 H2050 0.950 . S
C2079 C2078 1.397 . S
C2079 C2080 1.334 . S
C2080 H2051 0.950 . S
C2080 C2079 1.334 . S
C2080 C2081 1.287 . S
C2081 C2080 1.287 . S
C2081 C2082 1.524 . S
C2081 H2084 0.999 . S
C2082 H2052 0.950 . S
C2082 C2081 1.524 . S
C2082 C2083 1.415 . S
C2083 H2053 0.950 . S
C2083 C2078 1.363 . S
C2083 C2082 1.415 . S
H2084 C2081 0.999 . S
H2085 C2066 0.913 . S
H2086 C2104 0.951 . S
H2087 C2106 0.951 . S
H2088 C2108 0.950 . S
H2089 C2109 0.950 . S
H2090 C2111 0.950 . S
H2091 C2114 0.950 . S
H2092 C2115 0.950 . S
H2093 C2117 0.950 . S
H2094 C2118 0.950 . S
H2095 C2119 0.951 . S
H2096 C2121 0.951 . S
H2097 C2123 0.950 . S
H2098 C2124 0.950 . S
H2099 C2126 0.950 . S
H2100 C2129 0.950 . S
H2101 C2130 0.950 . S
H2102 C2132 0.950 . S
H2103 C2133 0.950 . S
C2104 H2086 0.951 . S
C2104 C2105 1.366 . S
C2104 C2106 1.388 . S
C2105 C2104 1.366 . S
C2105 C2109 1.385 . S
C2106 H2087 0.951 . S
C2106 C2104 1.388 . S
C2106 C2107 1.366 . S
C2107 C2106 1.366 . S
C2107 C2108 1.414 . S
C2107 C2110 1.499 . S
C2108 H2088 0.950 . S
C2108 C2107 1.414 . S
C2108 C2109 1.374 . S
C2109 H2089 0.950 . S
C2109 C2105 1.385 . S
C2109 C2108 1.374 . S
C2110 C2107 1.499 . S
C2110 C2111 1.373 . S
C2110 C2112 1.389 . S
C2111 H2090 0.950 . S
C2111 C2110 1.373 . S
C2111 C2127 1.377 . S
C2112 C2110 1.389 . S
C2112 C2113 1.524 . S
C2112 C2126 1.377 . S
C2113 C2112 1.524 . S
C2113 C2114 1.397 . S
C2113 C2118 1.363 . S
C2114 H2091 0.950 . S
C2114 C2113 1.397 . S
C2114 C2115 1.334 . S
C2115 H2092 0.950 . S
C2115 C2114 1.334 . S
C2115 C2116 1.287 . S
C2116 C2115 1.287 . S
C2116 C2117 1.524 . S
C2116 H2135 0.913 . S
C2117 H2093 0.950 . S
C2117 C2116 1.524 . S
C2117 C2118 1.415 . S
C2118 H2094 0.950 . S
C2118 C2113 1.363 . S
C2118 C2117 1.415 . S
C2119 H2095 0.951 . S
C2119 C2120 1.366 . S
C2119 C2121 1.388 . S
C2120 C2119 1.366 . S
C2120 C2124 1.385 . S
C2121 H2096 0.951 . S
C2121 C2119 1.388 . S
C2121 C2122 1.366 . S
C2122 C2121 1.366 . S
C2122 C2123 1.414 . S
C2122 C2125 1.499 . S
C2123 H2097 0.950 . S
C2123 C2122 1.414 . S
C2123 C2124 1.374 . S
C2124 H2098 0.950 . S
C2124 C2120 1.385 . S
C2124 C2123 1.374 . S
C2125 C2122 1.499 . S
C2125 C2126 1.373 . S
C2125 C2127 1.389 . S
C2126 H2099 0.950 . S
C2126 C2112 1.377 . S
C2126 C2125 1.373 . S
C2127 C2111 1.377 . S
C2127 C2125 1.389 . S
C2127 C2128 1.524 . S
C2128 C2127 1.524 . S
C2128 C2129 1.397 . S
C2128 C2133 1.363 . S
C2129 H2100 0.950 . S
C2129 C2128 1.397 . S
C2129 C2130 1.334 . S
C2130 H2101 0.950 . S
C2130 C2129 1.334 . S
C2130 C2131 1.287 . S
C2131 C2130 1.287 . S
C2131 C2132 1.524 . S
C2131 H2134 0.999 . S
C2132 H2102 0.950 . S
C2132 C2131 1.524 . S
C2132 C2133 1.415 . S
C2133 H2103 0.950 . S
C2133 C2128 1.363 . S
C2133 C2132 1.415 . S
H2134 C2131 0.999 . S
H2135 C2116 0.913 . S
H2136 C2154 0.951 . S
H2137 C2156 0.951 . S
H2138 C2158 0.950 . S
H2139 C2159 0.950 . S
H2140 C2161 0.950 . S
H2141 C2164 0.950 . S
H2142 C2165 0.950 . S
H2143 C2167 0.950 . S
H2144 C2168 0.950 . S
H2145 C2169 0.951 . S
H2146 C2171 0.951 . S
H2147 C2173 0.950 . S
H2148 C2174 0.950 . S
H2149 C2176 0.950 . S
H2150 C2179 0.950 . S
H2151 C2180 0.950 . S
H2152 C2182 0.950 . S
H2153 C2183 0.950 . S
C2154 H2136 0.951 . S
C2154 C2155 1.366 . S
C2154 C2156 1.388 . S
C2155 C2154 1.366 . S
C2155 C2159 1.385 . S
C2156 H2137 0.951 . S
C2156 C2154 1.388 . S
C2156 C2157 1.366 . S
C2157 C2156 1.366 . S
C2157 C2158 1.414 . S
C2157 C2160 1.499 . S
C2158 H2138 0.950 . S
C2158 C2157 1.414 . S
C2158 C2159 1.374 . S
C2159 H2139 0.950 . S
C2159 C2155 1.385 . S
C2159 C2158 1.374 . S
C2160 C2157 1.499 . S
C2160 C2161 1.373 . S
C2160 C2162 1.389 . S
C2161 H2140 0.950 . S
C2161 C2160 1.373 . S
C2161 C2177 1.377 . S
C2162 C2160 1.389 . S
C2162 C2163 1.524 . S
C2162 C2176 1.377 . S
C2163 C2162 1.524 . S
C2163 C2164 1.397 . S
C2163 C2168 1.363 . S
C2164 H2141 0.950 . S
C2164 C2163 1.397 . S
C2164 C2165 1.334 . S
C2165 H2142 0.950 . S
C2165 C2164 1.334 . S
C2165 C2166 1.287 . S
C2166 C2165 1.287 . S
C2166 C2167 1.524 . S
C2166 H2185 0.913 . S
C2167 H2143 0.950 . S
C2167 C2166 1.524 . S
C2167 C2168 1.415 . S
C2168 H2144 0.950 . S
C2168 C2163 1.363 . S
C2168 C2167 1.415 . S
C2169 H2145 0.951 . S
C2169 C2170 1.366 . S
C2169 C2171 1.388 . S
C2170 C2169 1.366 . S
C2170 C2174 1.385 . S
C2171 H2146 0.951 . S
C2171 C2169 1.388 . S
C2171 C2172 1.366 . S
C2172 C2171 1.366 . S
C2172 C2173 1.414 . S
C2172 C2175 1.499 . S
C2173 H2147 0.950 . S
C2173 C2172 1.414 . S
C2173 C2174 1.374 . S
C2174 H2148 0.950 . S
C2174 C2170 1.385 . S
C2174 C2173 1.374 . S
C2175 C2172 1.499 . S
C2175 C2176 1.373 . S
C2175 C2177 1.389 . S
C2176 H2149 0.950 . S
C2176 C2162 1.377 . S
C2176 C2175 1.373 . S
C2177 C2161 1.377 . S
C2177 C2175 1.389 . S
C2177 C2178 1.524 . S
C2178 C2177 1.524 . S
C2178 C2179 1.397 . S
C2178 C2183 1.363 . S
C2179 H2150 0.950 . S
C2179 C2178 1.397 . S
C2179 C2180 1.334 . S
C2180 H2151 0.950 . S
C2180 C2179 1.334 . S
C2180 C2181 1.287 . S
C2181 C2180 1.287 . S
C2181 C2182 1.524 . S
C2181 H2184 0.999 . S
C2182 H2152 0.950 . S
C2182 C2181 1.524 . S
C2182 C2183 1.415 . S
C2183 H2153 0.950 . S
C2183 C2178 1.363 . S
C2183 C2182 1.415 . S
H2184 C2181 0.999 . S
H2185 C2166 0.913 . S
H2186 C2204 0.951 . S
H2187 C2206 0.951 . S
H2188 C2208 0.950 . S
H2189 C2209 0.950 . S
H2190 C2211 0.950 . S
H2191 C2214 0.950 . S
H2192 C2215 0.950 . S
H2193 C2217 0.950 . S
H2194 C2218 0.950 . S
H2195 C2219 0.951 . S
H2196 C2221 0.951 . S
H2197 C2223 0.950 . S
H2198 C2224 0.950 . S
H2199 C2226 0.950 . S
H2200 C2229 0.950 . S
H2201 C2230 0.950 . S
H2202 C2232 0.950 . S
H2203 C2233 0.950 . S
C2204 H2186 0.951 . S
C2204 C2205 1.366 . S
C2204 C2206 1.388 . S
C2205 C2204 1.366 . S
C2205 C2209 1.385 . S
C2206 H2187 0.951 . S
C2206 C2204 1.388 . S
C2206 C2207 1.366 . S
C2207 C2206 1.366 . S
C2207 C2208 1.414 . S
C2207 C2210 1.499 . S
C2208 H2188 0.950 . S
C2208 C2207 1.414 . S
C2208 C2209 1.374 . S
C2209 H2189 0.950 . S
C2209 C2205 1.385 . S
C2209 C2208 1.374 . S
C2210 C2207 1.499 . S
C2210 C2211 1.373 . S
C2210 C2212 1.389 . S
C2211 H2190 0.950 . S
C2211 C2210 1.373 . S
C2211 C2227 1.377 . S
C2212 C2210 1.389 . S
C2212 C2213 1.524 . S
C2212 C2226 1.377 . S
C2213 C2212 1.524 . S
C2213 C2214 1.397 . S
C2213 C2218 1.363 . S
C2214 H2191 0.950 . S
C2214 C2213 1.397 . S
C2214 C2215 1.334 . S
C2215 H2192 0.950 . S
C2215 C2214 1.334 . S
C2215 C2216 1.287 . S
C2216 C2215 1.287 . S
C2216 C2217 1.524 . S
C2216 H2235 0.913 . S
C2217 H2193 0.950 . S
C2217 C2216 1.524 . S
C2217 C2218 1.415 . S
C2218 H2194 0.950 . S
C2218 C2213 1.363 . S
C2218 C2217 1.415 . S
C2219 H2195 0.951 . S
C2219 C2220 1.366 . S
C2219 C2221 1.388 . S
C2220 C2219 1.366 . S
C2220 C2224 1.385 . S
C2221 H2196 0.951 . S
C2221 C2219 1.388 . S
C2221 C2222 1.366 . S
C2222 C2221 1.366 . S
C2222 C2223 1.414 . S
C2222 C2225 1.499 . S
C2223 H2197 0.950 . S
C2223 C2222 1.414 . S
C2223 C2224 1.374 . S
C2224 H2198 0.950 . S
C2224 C2220 1.385 . S
C2224 C2223 1.374 . S
C2225 C2222 1.499 . S
C2225 C2226 1.373 . S
C2225 C2227 1.389 . S
C2226 H2199 0.950 . S
C2226 C2212 1.377 . S
C2226 C2225 1.373 . S
C2227 C2211 1.377 . S
C2227 C2225 1.389 . S
C2227 C2228 1.524 . S
C2228 C2227 1.524 . S
C2228 C2229 1.397 . S
C2228 C2233 1.363 . S
C2229 H2200 0.950 . S
C2229 C2228 1.397 . S
C2229 C2230 1.334 . S
C2230 H2201 0.950 . S
C2230 C2229 1.334 . S
C2230 C2231 1.287 . S
C2231 C2230 1.287 . S
C2231 C2232 1.524 . S
C2231 H2234 0.999 . S
C2232 H2202 0.950 . S
C2232 C2231 1.524 . S
C2232 C2233 1.415 . S
C2233 H2203 0.950 . S
C2233 C2228 1.363 . S
C2233 C2232 1.415 . S
H2234 C2231 0.999 . S
H2235 C2216 0.913 . S
H2236 C2254 0.951 . S
H2237 C2256 0.951 . S
H2238 C2258 0.950 . S
H2239 C2259 0.950 . S
H2240 C2261 0.950 . S
H2241 C2264 0.950 . S
H2242 C2265 0.950 . S
H2243 C2267 0.950 . S
H2244 C2268 0.950 . S
H2245 C2269 0.951 . S
H2246 C2271 0.951 . S
H2247 C2273 0.950 . S
H2248 C2274 0.950 . S
H2249 C2276 0.950 . S
H2250 C2279 0.950 . S
H2251 C2280 0.950 . S
H2252 C2282 0.950 . S
H2253 C2283 0.950 . S
C2254 H2236 0.951 . S
C2254 C2255 1.366 . S
C2254 C2256 1.388 . S
C2255 C2254 1.366 . S
C2255 C2259 1.385 . S
C2256 H2237 0.951 . S
C2256 C2254 1.388 . S
C2256 C2257 1.366 . S
C2257 C2256 1.366 . S
C2257 C2258 1.414 . S
C2257 C2260 1.499 . S
C2258 H2238 0.950 . S
C2258 C2257 1.414 . S
C2258 C2259 1.374 . S
C2259 H2239 0.950 . S
C2259 C2255 1.385 . S
C2259 C2258 1.374 . S
C2260 C2257 1.499 . S
C2260 C2261 1.373 . S
C2260 C2262 1.389 . S
C2261 H2240 0.950 . S
C2261 C2260 1.373 . S
C2261 C2277 1.377 . S
C2262 C2260 1.389 . S
C2262 C2263 1.524 . S
C2262 C2276 1.377 . S
C2263 C2262 1.524 . S
C2263 C2264 1.397 . S
C2263 C2268 1.363 . S
C2264 H2241 0.950 . S
C2264 C2263 1.397 . S
C2264 C2265 1.334 . S
C2265 H2242 0.950 . S
C2265 C2264 1.334 . S
C2265 C2266 1.287 . S
C2266 C2265 1.287 . S
C2266 C2267 1.524 . S
C2266 H2285 0.913 . S
C2267 H2243 0.950 . S
C2267 C2266 1.524 . S
C2267 C2268 1.415 . S
C2268 H2244 0.950 . S
C2268 C2263 1.363 . S
C2268 C2267 1.415 . S
C2269 H2245 0.951 . S
C2269 C2270 1.366 . S
C2269 C2271 1.388 . S
C2270 C2269 1.366 . S
C2270 C2274 1.385 . S
C2271 H2246 0.951 . S
C2271 C2269 1.388 . S
C2271 C2272 1.366 . S
C2272 C2271 1.366 . S
C2272 C2273 1.414 . S
C2272 C2275 1.499 . S
C2273 H2247 0.950 . S
C2273 C2272 1.414 . S
C2273 C2274 1.374 . S
C2274 H2248 0.950 . S
C2274 C2270 1.385 . S
C2274 C2273 1.374 . S
C2275 C2272 1.499 . S
C2275 C2276 1.373 . S
C2275 C2277 1.389 . S
C2276 H2249 0.950 . S
C2276 C2262 1.377 . S
C2276 C2275 1.373 . S
C2277 C2261 1.377 . S
C2277 C2275 1.389 . S
C2277 C2278 1.524 . S
C2278 C2277 1.524 . S
C2278 C2279 1.397 . S
C2278 C2283 1.363 . S
C2279 H2250 0.950 . S
C2279 C2278 1.397 . S
C2279 C2280 1.334 . S
C2280 H2251 0.950 . S
C2280 C2279 1.334 . S
C2280 C2281 1.287 . S
C2281 C2280 1.287 . S
C2281 C2282 1.524 . S
C2281 H2284 0.999 . S
C2282 H2252 0.950 . S
C2282 C2281 1.524 . S
C2282 C2283 1.415 . S
C2283 H2253 0.950 . S
C2283 C2278 1.363 . S
C2283 C2282 1.415 . S
H2284 C2281 0.999 . S
H2285 C2266 0.913 . S
H2286 C2304 0.951 . S
H2287 C2306 0.951 . S
H2288 C2308 0.950 . S
H2289 C2309 0.950 . S
H2290 C2311 0.950 . S
H2291 C2314 0.950 . S
H2292 C2315 0.950 . S
H2293 C2317 0.950 . S
H2294 C2318 0.950 . S
H2295 C2319 0.951 . S
H2296 C2321 0.951 . S
H2297 C2323 0.950 . S
H2298 C2324 0.950 . S
H2299 C2326 0.950 . S
H2300 C2329 0.950 . S
H2301 C2330 0.950 . S
H2302 C2332 0.950 . S
H2303 C2333 0.950 . S
C2304 H2286 0.951 . S
C2304 C2305 1.366 . S
C2304 C2306 1.388 . S
C2305 C2304 1.366 . S
C2305 C2309 1.385 . S
C2306 H2287 0.951 . S
C2306 C2304 1.388 . S
C2306 C2307 1.366 . S
C2307 C2306 1.366 . S
C2307 C2308 1.414 . S
C2307 C2310 1.499 . S
C2308 H2288 0.950 . S
C2308 C2307 1.414 . S
C2308 C2309 1.374 . S
C2309 H2289 0.950 . S
C2309 C2305 1.385 . S
C2309 C2308 1.374 . S
C2310 C2307 1.499 . S
C2310 C2311 1.373 1_565 S
C2310 C2312 1.389 1_565 S
C2311 H2290 0.950 . S
C2311 C2310 1.373 1_545 S
C2311 C2327 1.377 . S
C2312 C2310 1.389 1_545 S
C2312 C2313 1.524 1_545 S
C2312 C2326 1.377 . S
C2313 C2312 1.524 1_565 S
C2313 C2314 1.397 . S
C2313 C2318 1.363 1_565 S
C2314 H2291 0.950 . S
C2314 C2313 1.397 . S
C2314 C2315 1.334 . S
C2315 H2292 0.950 . S
C2315 C2314 1.334 . S
C2315 C2316 1.287 . S
C2316 C2315 1.287 . S
C2316 C2317 1.524 . S
C2316 H2335 0.913 . S
C2317 H2293 0.950 . S
C2317 C2316 1.524 . S
C2317 C2318 1.415 1_565 S
C2318 H2294 0.950 . S
C2318 C2313 1.363 1_545 S
C2318 C2317 1.415 1_545 S
C2319 H2295 0.951 . S
C2319 C2320 1.366 . S
C2319 C2321 1.388 . S
C2320 C2319 1.366 . S
C2320 C2324 1.385 . S
C2321 H2296 0.951 . S
C2321 C2319 1.388 . S
C2321 C2322 1.366 . S
C2322 C2321 1.366 . S
C2322 C2323 1.414 . S
C2322 C2325 1.499 . S
C2323 H2297 0.950 . S
C2323 C2322 1.414 . S
C2323 C2324 1.374 . S
C2324 H2298 0.950 . S
C2324 C2320 1.385 . S
C2324 C2323 1.374 . S
C2325 C2322 1.499 . S
C2325 C2326 1.373 . S
C2325 C2327 1.389 . S
C2326 H2299 0.950 . S
C2326 C2312 1.377 . S
C2326 C2325 1.373 . S
C2327 C2311 1.377 . S
C2327 C2325 1.389 . S
C2327 C2328 1.524 . S
C2328 C2327 1.524 . S
C2328 C2329 1.397 . S
C2328 C2333 1.363 . S
C2329 H2300 0.950 . S
C2329 C2328 1.397 . S
C2329 C2330 1.334 . S
C2330 H2301 0.950 . S
C2330 C2329 1.334 . S
C2330 C2331 1.287 . S
C2331 C2330 1.287 . S
C2331 C2332 1.524 . S
C2331 H2334 0.999 . S
C2332 H2302 0.950 . S
C2332 C2331 1.524 . S
C2332 C2333 1.415 . S
C2333 H2303 0.950 . S
C2333 C2328 1.363 . S
C2333 C2332 1.415 . S
H2334 C2331 0.999 . S
H2335 C2316 0.913 . S
H2336 C2354 0.951 . S
H2337 C2356 0.951 . S
H2338 C2358 0.950 1_655 S
H2339 C2359 0.950 . S
H2340 C2361 0.950 . S
H2341 C2364 0.950 . S
H2342 C2365 0.950 . S
H2343 C2367 0.950 . S
H2344 C2368 0.950 . S
H2345 C2369 0.951 . S
H2346 C2371 0.951 . S
H2347 C2373 0.950 . S
H2348 C2374 0.950 . S
H2349 C2376 0.950 . S
H2350 C2379 0.950 . S
H2351 C2380 0.950 . S
H2352 C2382 0.950 . S
H2353 C2383 0.950 . S
C2354 H2336 0.951 . S
C2354 C2355 1.366 . S
C2354 C2356 1.388 . S
C2355 C2354 1.366 . S
C2355 C2359 1.385 . S
C2356 H2337 0.951 . S
C2356 C2354 1.388 . S
C2356 C2357 1.366 . S
C2357 C2356 1.366 . S
C2357 C2358 1.414 . S
C2357 C2360 1.499 1_455 S
C2358 H2338 0.950 1_455 S
C2358 C2357 1.414 . S
C2358 C2359 1.374 . S
C2359 H2339 0.950 . S
C2359 C2355 1.385 . S
C2359 C2358 1.374 . S
C2360 C2357 1.499 1_655 S
C2360 C2361 1.373 . S
C2360 C2362 1.389 . S
C2361 H2340 0.950 . S
C2361 C2360 1.373 . S
C2361 C2377 1.377 . S
C2362 C2360 1.389 . S
C2362 C2363 1.524 . S
C2362 C2376 1.377 . S
C2363 C2362 1.524 . S
C2363 C2364 1.397 . S
C2363 C2368 1.363 . S
C2364 H2341 0.950 . S
C2364 C2363 1.397 . S
C2364 C2365 1.334 1_655 S
C2365 H2342 0.950 . S
C2365 C2364 1.334 1_455 S
C2365 C2366 1.287 . S
C2366 C2365 1.287 . S
C2366 C2367 1.524 . S
C2366 H2385 0.913 . S
C2367 H2343 0.950 . S
C2367 C2366 1.524 . S
C2367 C2368 1.415 1_455 S
C2368 H2344 0.950 . S
C2368 C2363 1.363 . S
C2368 C2367 1.415 1_655 S
C2369 H2345 0.951 . S
C2369 C2370 1.366 . S
C2369 C2371 1.388 . S
C2370 C2369 1.366 . S
C2370 C2374 1.385 . S
C2371 H2346 0.951 . S
C2371 C2369 1.388 . S
C2371 C2372 1.366 . S
C2372 C2371 1.366 . S
C2372 C2373 1.414 . S
C2372 C2375 1.499 . S
C2373 H2347 0.950 . S
C2373 C2372 1.414 . S
C2373 C2374 1.374 . S
C2374 H2348 0.950 . S
C2374 C2370 1.385 . S
C2374 C2373 1.374 . S
C2375 C2372 1.499 . S
C2375 C2376 1.373 . S
C2375 C2377 1.389 . S
C2376 H2349 0.950 . S
C2376 C2362 1.377 . S
C2376 C2375 1.373 . S
C2377 C2361 1.377 . S
C2377 C2375 1.389 . S
C2377 C2378 1.524 . S
C2378 C2377 1.524 . S
C2378 C2379 1.397 . S
C2378 C2383 1.363 . S
C2379 H2350 0.950 . S
C2379 C2378 1.397 . S
C2379 C2380 1.334 . S
C2380 H2351 0.950 . S
C2380 C2379 1.334 . S
C2380 C2381 1.287 . S
C2381 C2380 1.287 . S
C2381 C2382 1.524 . S
C2381 H2384 0.999 . S
C2382 H2352 0.950 . S
C2382 C2381 1.524 . S
C2382 C2383 1.415 . S
C2383 H2353 0.950 . S
C2383 C2378 1.363 . S
C2383 C2382 1.415 . S
H2384 C2381 0.999 . S
H2385 C2366 0.913 . S
H2386 C2404 0.951 . S
H2387 C2406 0.951 . S
H2388 C2408 0.950 . S
H2389 C2409 0.950 . S
H2390 C2411 0.950 . S
H2391 C2414 0.950 . S
H2392 C2415 0.950 . S
H2393 C2417 0.950 . S
H2394 C2418 0.950 . S
H2395 C2419 0.951 . S
H2396 C2421 0.951 . S
H2397 C2423 0.950 . S
H2398 C2424 0.950 . S
H2399 C2426 0.950 . S
H2400 C2429 0.950 . S
H2401 C2430 0.950 . S
H2402 C2432 0.950 . S
H2403 C2433 0.950 . S
C2404 H2386 0.951 . S
C2404 C2405 1.366 . S
C2404 C2406 1.388 . S
C2405 C2404 1.366 . S
C2405 C2409 1.385 . S
C2406 H2387 0.951 . S
C2406 C2404 1.388 . S
C2406 C2407 1.366 . S
C2407 C2406 1.366 . S
C2407 C2408 1.414 . S
C2407 C2410 1.499 . S
C2408 H2388 0.950 . S
C2408 C2407 1.414 . S
C2408 C2409 1.374 . S
C2409 H2389 0.950 . S
C2409 C2405 1.385 . S
C2409 C2408 1.374 . S
C2410 C2407 1.499 . S
C2410 C2411 1.373 . S
C2410 C2412 1.389 . S
C2411 H2390 0.950 . S
C2411 C2410 1.373 . S
C2411 C2427 1.377 . S
C2412 C2410 1.389 . S
C2412 C2413 1.524 . S
C2412 C2426 1.377 . S
C2413 C2412 1.524 . S
C2413 C2414 1.397 . S
C2413 C2418 1.363 . S
C2414 H2391 0.950 . S
C2414 C2413 1.397 . S
C2414 C2415 1.334 . S
C2415 H2392 0.950 . S
C2415 C2414 1.334 . S
C2415 C2416 1.287 . S
C2416 C2415 1.287 . S
C2416 C2417 1.524 . S
C2416 H2435 0.913 . S
C2417 H2393 0.950 . S
C2417 C2416 1.524 . S
C2417 C2418 1.415 . S
C2418 H2394 0.950 . S
C2418 C2413 1.363 . S
C2418 C2417 1.415 . S
C2419 H2395 0.951 . S
C2419 C2420 1.366 . S
C2419 C2421 1.388 . S
C2420 C2419 1.366 . S
C2420 C2424 1.385 . S
C2421 H2396 0.951 . S
C2421 C2419 1.388 . S
C2421 C2422 1.366 . S
C2422 C2421 1.366 . S
C2422 C2423 1.414 . S
C2422 C2425 1.499 . S
C2423 H2397 0.950 . S
C2423 C2422 1.414 . S
C2423 C2424 1.374 . S
C2424 H2398 0.950 . S
C2424 C2420 1.385 . S
C2424 C2423 1.374 . S
C2425 C2422 1.499 . S
C2425 C2426 1.373 . S
C2425 C2427 1.389 . S
C2426 H2399 0.950 . S
C2426 C2412 1.377 . S
C2426 C2425 1.373 . S
C2427 C2411 1.377 . S
C2427 C2425 1.389 . S
C2427 C2428 1.524 . S
C2428 C2427 1.524 . S
C2428 C2429 1.397 . S
C2428 C2433 1.363 . S
C2429 H2400 0.950 . S
C2429 C2428 1.397 . S
C2429 C2430 1.334 . S
C2430 H2401 0.950 . S
C2430 C2429 1.334 . S
C2430 C2431 1.287 . S
C2431 C2430 1.287 . S
C2431 C2432 1.524 . S
C2431 H2434 0.999 . S
C2432 H2402 0.950 . S
C2432 C2431 1.524 . S
C2432 C2433 1.415 . S
C2433 H2403 0.950 . S
C2433 C2428 1.363 . S
C2433 C2432 1.415 . S
H2434 C2431 0.999 . S
H2435 C2416 0.913 . S
H2436 C2454 0.951 . S
H2437 C2456 0.951 . S
H2438 C2458 0.950 . S
H2439 C2459 0.950 . S
H2440 C2461 0.950 . S
H2441 C2464 0.950 . S
H2442 C2465 0.950 . S
H2443 C2467 0.950 . S
H2444 C2468 0.950 . S
H2445 C2469 0.951 . S
H2446 C2471 0.951 . S
H2447 C2473 0.950 . S
H2448 C2474 0.950 . S
H2449 C2476 0.950 . S
H2450 C2479 0.950 . S
H2451 C2480 0.950 . S
H2452 C2482 0.950 . S
H2453 C2483 0.950 . S
C2454 H2436 0.951 . S
C2454 C2455 1.366 . S
C2454 C2456 1.388 . S
C2455 C2454 1.366 . S
C2455 C2459 1.385 . S
C2456 H2437 0.951 . S
C2456 C2454 1.388 . S
C2456 C2457 1.366 . S
C2457 C2456 1.366 . S
C2457 C2458 1.414 . S
C2457 C2460 1.499 1_455 S
C2458 H2438 0.950 . S
C2458 C2457 1.414 . S
C2458 C2459 1.374 . S
C2459 H2439 0.950 . S
C2459 C2455 1.385 . S
C2459 C2458 1.374 . S
C2460 C2457 1.499 1_655 S
C2460 C2461 1.373 . S
C2460 C2462 1.389 . S
C2461 H2440 0.950 . S
C2461 C2460 1.373 . S
C2461 C2477 1.377 . S
C2462 C2460 1.389 . S
C2462 C2463 1.524 1_655 S
C2462 C2476 1.377 . S
C2463 C2462 1.524 1_455 S
C2463 C2464 1.397 . S
C2463 C2468 1.363 . S
C2464 H2441 0.950 . S
C2464 C2463 1.397 . S
C2464 C2465 1.334 . S
C2465 H2442 0.950 . S
C2465 C2464 1.334 . S
C2465 C2466 1.287 . S
C2466 C2465 1.287 . S
C2466 C2467 1.524 . S
C2466 H2485 0.913 . S
C2467 H2443 0.950 . S
C2467 C2466 1.524 . S
C2467 C2468 1.415 . S
C2468 H2444 0.950 . S
C2468 C2463 1.363 . S
C2468 C2467 1.415 . S
C2469 H2445 0.951 . S
C2469 C2470 1.366 . S
C2469 C2471 1.388 . S
C2470 C2469 1.366 . S
C2470 C2474 1.385 . S
C2471 H2446 0.951 . S
C2471 C2469 1.388 . S
C2471 C2472 1.366 . S
C2472 C2471 1.366 . S
C2472 C2473 1.414 . S
C2472 C2475 1.499 . S
C2473 H2447 0.950 . S
C2473 C2472 1.414 . S
C2473 C2474 1.374 . S
C2474 H2448 0.950 . S
C2474 C2470 1.385 . S
C2474 C2473 1.374 . S
C2475 C2472 1.499 . S
C2475 C2476 1.373 . S
C2475 C2477 1.389 . S
C2476 H2449 0.950 . S
C2476 C2462 1.377 . S
C2476 C2475 1.373 . S
C2477 C2461 1.377 . S
C2477 C2475 1.389 . S
C2477 C2478 1.524 . S
C2478 C2477 1.524 . S
C2478 C2479 1.397 . S
C2478 C2483 1.363 . S
C2479 H2450 0.950 . S
C2479 C2478 1.397 . S
C2479 C2480 1.334 . S
C2480 H2451 0.950 . S
C2480 C2479 1.334 . S
C2480 C2481 1.287 . S
C2481 C2480 1.287 . S
C2481 C2482 1.524 . S
C2481 H2484 0.999 . S
C2482 H2452 0.950 . S
C2482 C2481 1.524 . S
C2482 C2483 1.415 . S
C2483 H2453 0.950 . S
C2483 C2478 1.363 . S
C2483 C2482 1.415 . S
H2484 C2481 0.999 . S
H2485 C2466 0.913 . S
H2486 C2504 0.951 . S
H2487 C2506 0.951 . S
H2488 C2508 0.950 . S
H2489 C2509 0.950 . S
H2490 C2511 0.950 . S
H2491 C2514 0.950 . S
H2492 C2515 0.950 . S
H2493 C2517 0.950 . S
H2494 C2518 0.950 . S
H2495 C2519 0.951 . S
H2496 C2521 0.951 . S
H2497 C2523 0.950 . S
H2498 C2524 0.950 . S
H2499 C2526 0.950 . S
H2500 C2529 0.950 . S
H2501 C2530 0.950 . S
H2502 C2532 0.950 . S
H2503 C2533 0.950 . S
C2504 H2486 0.951 . S
C2504 C2505 1.366 . S
C2504 C2506 1.388 . S
C2505 C2504 1.366 . S
C2505 C2509 1.385 . S
C2506 H2487 0.951 . S
C2506 C2504 1.388 . S
C2506 C2507 1.366 . S
C2507 C2506 1.366 . S
C2507 C2508 1.414 . S
C2507 C2510 1.499 . S
C2508 H2488 0.950 . S
C2508 C2507 1.414 . S
C2508 C2509 1.374 . S
C2509 H2489 0.950 . S
C2509 C2505 1.385 . S
C2509 C2508 1.374 . S
C2510 C2507 1.499 . S
C2510 C2511 1.373 . S
C2510 C2512 1.389 . S
C2511 H2490 0.950 . S
C2511 C2510 1.373 . S
C2511 C2527 1.377 . S
C2512 C2510 1.389 . S
C2512 C2513 1.524 . S
C2512 C2526 1.377 . S
C2513 C2512 1.524 . S
C2513 C2514 1.397 . S
C2513 C2518 1.363 . S
C2514 H2491 0.950 . S
C2514 C2513 1.397 . S
C2514 C2515 1.334 . S
C2515 H2492 0.950 . S
C2515 C2514 1.334 . S
C2515 C2516 1.287 . S
C2516 C2515 1.287 . S
C2516 C2517 1.524 . S
C2516 H2535 0.913 . S
C2517 H2493 0.950 . S
C2517 C2516 1.524 . S
C2517 C2518 1.415 . S
C2518 H2494 0.950 . S
C2518 C2513 1.363 . S
C2518 C2517 1.415 . S
C2519 H2495 0.951 . S
C2519 C2520 1.366 . S
C2519 C2521 1.388 . S
C2520 C2519 1.366 . S
C2520 C2524 1.385 . S
C2521 H2496 0.951 . S
C2521 C2519 1.388 . S
C2521 C2522 1.366 . S
C2522 C2521 1.366 . S
C2522 C2523 1.414 . S
C2522 C2525 1.499 . S
C2523 H2497 0.950 . S
C2523 C2522 1.414 . S
C2523 C2524 1.374 . S
C2524 H2498 0.950 . S
C2524 C2520 1.385 . S
C2524 C2523 1.374 . S
C2525 C2522 1.499 . S
C2525 C2526 1.373 . S
C2525 C2527 1.389 . S
C2526 H2499 0.950 . S
C2526 C2512 1.377 . S
C2526 C2525 1.373 . S
C2527 C2511 1.377 . S
C2527 C2525 1.389 . S
C2527 C2528 1.524 . S
C2528 C2527 1.524 . S
C2528 C2529 1.397 . S
C2528 C2533 1.363 . S
C2529 H2500 0.950 . S
C2529 C2528 1.397 . S
C2529 C2530 1.334 . S
C2530 H2501 0.950 . S
C2530 C2529 1.334 . S
C2530 C2531 1.287 . S
C2531 C2530 1.287 . S
C2531 C2532 1.524 . S
C2531 H2534 0.999 . S
C2532 H2502 0.950 . S
C2532 C2531 1.524 . S
C2532 C2533 1.415 . S
C2533 H2503 0.950 . S
C2533 C2528 1.363 . S
C2533 C2532 1.415 . S
H2534 C2531 0.999 . S
H2535 C2516 0.913 . S
H2536 C2554 0.951 . S
H2537 C2556 0.951 . S
H2538 C2558 0.950 . S
H2539 C2559 0.950 . S
H2540 C2561 0.950 1_565 S
H2541 C2564 0.950 . S
H2542 C2565 0.950 . S
H2543 C2567 0.950 . S
H2544 C2568 0.950 1_545 S
H2545 C2569 0.951 . S
H2546 C2571 0.951 . S
H2547 C2573 0.950 . S
H2548 C2574 0.950 . S
H2549 C2576 0.950 . S
H2550 C2579 0.950 . S
H2551 C2580 0.950 . S
H2552 C2582 0.950 . S
H2553 C2583 0.950 . S
C2554 H2536 0.951 . S
C2554 C2555 1.366 . S
C2554 C2556 1.388 . S
C2555 C2554 1.366 . S
C2555 C2559 1.385 . S
C2556 H2537 0.951 . S
C2556 C2554 1.388 . S
C2556 C2557 1.366 . S
C2557 C2556 1.366 . S
C2557 C2558 1.414 . S
C2557 C2560 1.499 . S
C2558 H2538 0.950 . S
C2558 C2557 1.414 . S
C2558 C2559 1.374 . S
C2559 H2539 0.950 . S
C2559 C2555 1.385 . S
C2559 C2558 1.374 . S
C2560 C2557 1.499 . S
C2560 C2561 1.373 1_565 S
C2560 C2562 1.389 1_565 S
C2561 H2540 0.950 1_545 S
C2561 C2560 1.373 1_545 S
C2561 C2577 1.377 . S
C2562 C2560 1.389 1_545 S
C2562 C2563 1.524 1_545 S
C2562 C2576 1.377 . S
C2563 C2562 1.524 1_565 S
C2563 C2564 1.397 . S
C2563 C2568 1.363 . S
C2564 H2541 0.950 . S
C2564 C2563 1.397 . S
C2564 C2565 1.334 . S
C2565 H2542 0.950 . S
C2565 C2564 1.334 . S
C2565 C2566 1.287 . S
C2566 C2565 1.287 . S
C2566 C2567 1.524 . S
C2566 H2585 0.913 . S
C2567 H2543 0.950 . S
C2567 C2566 1.524 . S
C2567 C2568 1.415 . S
C2568 H2544 0.950 1_565 S
C2568 C2563 1.363 . S
C2568 C2567 1.415 . S
C2569 H2545 0.951 . S
C2569 C2570 1.366 . S
C2569 C2571 1.388 . S
C2570 C2569 1.366 . S
C2570 C2574 1.385 . S
C2571 H2546 0.951 . S
C2571 C2569 1.388 . S
C2571 C2572 1.366 . S
C2572 C2571 1.366 . S
C2572 C2573 1.414 . S
C2572 C2575 1.499 . S
C2573 H2547 0.950 . S
C2573 C2572 1.414 . S
C2573 C2574 1.374 . S
C2574 H2548 0.950 . S
C2574 C2570 1.385 . S
C2574 C2573 1.374 . S
C2575 C2572 1.499 . S
C2575 C2576 1.373 . S
C2575 C2577 1.389 . S
C2576 H2549 0.950 . S
C2576 C2562 1.377 . S
C2576 C2575 1.373 . S
C2577 C2561 1.377 . S
C2577 C2575 1.389 . S
C2577 C2578 1.524 . S
C2578 C2577 1.524 . S
C2578 C2579 1.397 . S
C2578 C2583 1.363 . S
C2579 H2550 0.950 . S
C2579 C2578 1.397 . S
C2579 C2580 1.334 . S
C2580 H2551 0.950 . S
C2580 C2579 1.334 . S
C2580 C2581 1.287 . S
C2581 C2580 1.287 . S
C2581 C2582 1.524 . S
C2581 H2584 0.999 . S
C2582 H2552 0.950 . S
C2582 C2581 1.524 . S
C2582 C2583 1.415 . S
C2583 H2553 0.950 . S
C2583 C2578 1.363 . S
C2583 C2582 1.415 . S
H2584 C2581 0.999 . S
H2585 C2566 0.913 . S
H2586 C2604 0.951 . S
H2587 C2606 0.951 . S
H2588 C2608 0.950 . S
H2589 C2609 0.950 . S
H2590 C2611 0.950 . S
H2591 C2614 0.950 . S
H2592 C2615 0.950 . S
H2593 C2617 0.950 . S
H2594 C2618 0.950 . S
H2595 C2619 0.951 . S
H2596 C2621 0.951 . S
H2597 C2623 0.950 . S
H2598 C2624 0.950 . S
H2599 C2626 0.950 . S
H2600 C2629 0.950 . S
H2601 C2630 0.950 . S
H2602 C2632 0.950 . S
H2603 C2633 0.950 . S
C2604 H2586 0.951 . S
C2604 C2605 1.366 . S
C2604 C2606 1.388 . S
C2605 C2604 1.366 . S
C2605 C2609 1.385 . S
C2606 H2587 0.951 . S
C2606 C2604 1.388 . S
C2606 C2607 1.366 . S
C2607 C2606 1.366 . S
C2607 C2608 1.414 . S
C2607 C2610 1.499 . S
C2608 H2588 0.950 . S
C2608 C2607 1.414 . S
C2608 C2609 1.374 . S
C2609 H2589 0.950 . S
C2609 C2605 1.385 . S
C2609 C2608 1.374 . S
C2610 C2607 1.499 . S
C2610 C2611 1.373 . S
C2610 C2612 1.389 . S
C2611 H2590 0.950 . S
C2611 C2610 1.373 . S
C2611 C2627 1.377 . S
C2612 C2610 1.389 . S
C2612 C2613 1.524 . S
C2612 C2626 1.377 . S
C2613 C2612 1.524 . S
C2613 C2614 1.397 . S
C2613 C2618 1.363 . S
C2614 H2591 0.950 . S
C2614 C2613 1.397 . S
C2614 C2615 1.334 . S
C2615 H2592 0.950 . S
C2615 C2614 1.334 . S
C2615 C2616 1.287 . S
C2616 C2615 1.287 . S
C2616 C2617 1.524 . S
C2616 H2635 0.913 . S
C2617 H2593 0.950 . S
C2617 C2616 1.524 . S
C2617 C2618 1.415 . S
C2618 H2594 0.950 . S
C2618 C2613 1.363 . S
C2618 C2617 1.415 . S
C2619 H2595 0.951 . S
C2619 C2620 1.366 . S
C2619 C2621 1.388 . S
C2620 C2619 1.366 . S
C2620 C2624 1.385 . S
C2621 H2596 0.951 . S
C2621 C2619 1.388 . S
C2621 C2622 1.366 . S
C2622 C2621 1.366 . S
C2622 C2623 1.414 . S
C2622 C2625 1.499 . S
C2623 H2597 0.950 . S
C2623 C2622 1.414 . S
C2623 C2624 1.374 . S
C2624 H2598 0.950 . S
C2624 C2620 1.385 . S
C2624 C2623 1.374 . S
C2625 C2622 1.499 . S
C2625 C2626 1.373 . S
C2625 C2627 1.389 . S
C2626 H2599 0.950 . S
C2626 C2612 1.377 . S
C2626 C2625 1.373 . S
C2627 C2611 1.377 . S
C2627 C2625 1.389 . S
C2627 C2628 1.524 . S
C2628 C2627 1.524 . S
C2628 C2629 1.397 . S
C2628 C2633 1.363 . S
C2629 H2600 0.950 . S
C2629 C2628 1.397 . S
C2629 C2630 1.334 . S
C2630 H2601 0.950 . S
C2630 C2629 1.334 . S
C2630 C2631 1.287 . S
C2631 C2630 1.287 . S
C2631 C2632 1.524 . S
C2631 H2634 0.999 . S
C2632 H2602 0.950 . S
C2632 C2631 1.524 . S
C2632 C2633 1.415 . S
C2633 H2603 0.950 . S
C2633 C2628 1.363 . S
C2633 C2632 1.415 . S
H2634 C2631 0.999 . S
H2635 C2616 0.913 . S
H2636 C2654 0.951 . S
H2637 C2656 0.951 . S
H2638 C2658 0.950 . S
H2639 C2659 0.950 . S
H2640 C2661 0.950 . S
H2641 C2664 0.950 . S
H2642 C2665 0.950 . S
H2643 C2667 0.950 . S
H2644 C2668 0.950 . S
H2645 C2669 0.951 . S
H2646 C2671 0.951 . S
H2647 C2673 0.950 . S
H2648 C2674 0.950 . S
H2649 C2676 0.950 . S
H2650 C2679 0.950 . S
H2651 C2680 0.950 . S
H2652 C2682 0.950 . S
H2653 C2683 0.950 . S
C2654 H2636 0.951 . S
C2654 C2655 1.366 . S
C2654 C2656 1.388 . S
C2655 C2654 1.366 . S
C2655 C2659 1.385 . S
C2656 H2637 0.951 . S
C2656 C2654 1.388 . S
C2656 C2657 1.366 . S
C2657 C2656 1.366 . S
C2657 C2658 1.414 . S
C2657 C2660 1.499 . S
C2658 H2638 0.950 . S
C2658 C2657 1.414 . S
C2658 C2659 1.374 . S
C2659 H2639 0.950 . S
C2659 C2655 1.385 . S
C2659 C2658 1.374 . S
C2660 C2657 1.499 . S
C2660 C2661 1.373 . S
C2660 C2662 1.389 . S
C2661 H2640 0.950 . S
C2661 C2660 1.373 . S
C2661 C2677 1.377 . S
C2662 C2660 1.389 . S
C2662 C2663 1.524 . S
C2662 C2676 1.377 . S
C2663 C2662 1.524 . S
C2663 C2664 1.397 . S
C2663 C2668 1.363 . S
C2664 H2641 0.950 . S
C2664 C2663 1.397 . S
C2664 C2665 1.334 . S
C2665 H2642 0.950 . S
C2665 C2664 1.334 . S
C2665 C2666 1.287 . S
C2666 C2665 1.287 . S
C2666 C2667 1.524 . S
C2666 H2685 0.913 . S
C2667 H2643 0.950 . S
C2667 C2666 1.524 . S
C2667 C2668 1.415 . S
C2668 H2644 0.950 . S
C2668 C2663 1.363 . S
C2668 C2667 1.415 . S
C2669 H2645 0.951 . S
C2669 C2670 1.366 . S
C2669 C2671 1.388 . S
C2670 C2669 1.366 . S
C2670 C2674 1.385 . S
C2671 H2646 0.951 . S
C2671 C2669 1.388 . S
C2671 C2672 1.366 . S
C2672 C2671 1.366 . S
C2672 C2673 1.414 . S
C2672 C2675 1.499 . S
C2673 H2647 0.950 . S
C2673 C2672 1.414 . S
C2673 C2674 1.374 . S
C2674 H2648 0.950 . S
C2674 C2670 1.385 . S
C2674 C2673 1.374 . S
C2675 C2672 1.499 . S
C2675 C2676 1.373 . S
C2675 C2677 1.389 . S
C2676 H2649 0.950 . S
C2676 C2662 1.377 . S
C2676 C2675 1.373 . S
C2677 C2661 1.377 . S
C2677 C2675 1.389 . S
C2677 C2678 1.524 . S
C2678 C2677 1.524 . S
C2678 C2679 1.397 . S
C2678 C2683 1.363 . S
C2679 H2650 0.950 . S
C2679 C2678 1.397 . S
C2679 C2680 1.334 . S
C2680 H2651 0.950 . S
C2680 C2679 1.334 . S
C2680 C2681 1.287 . S
C2681 C2680 1.287 . S
C2681 C2682 1.524 . S
C2681 H2684 0.999 . S
C2682 H2652 0.950 . S
C2682 C2681 1.524 . S
C2682 C2683 1.415 . S
C2683 H2653 0.950 . S
C2683 C2678 1.363 . S
C2683 C2682 1.415 . S
H2684 C2681 0.999 . S
H2685 C2666 0.913 . S
H2686 C2704 0.951 . S
H2687 C2706 0.951 . S
H2688 C2708 0.950 . S
H2689 C2709 0.950 . S
H2690 C2711 0.950 . S
H2691 C2714 0.950 . S
H2692 C2715 0.950 . S
H2693 C2717 0.950 . S
H2694 C2718 0.950 . S
H2695 C2719 0.951 . S
H2696 C2721 0.951 . S
H2697 C2723 0.950 . S
H2698 C2724 0.950 . S
H2699 C2726 0.950 . S
H2700 C2729 0.950 . S
H2701 C2730 0.950 . S
H2702 C2732 0.950 . S
H2703 C2733 0.950 . S
C2704 H2686 0.951 . S
C2704 C2705 1.366 . S
C2704 C2706 1.388 . S
C2705 C2704 1.366 . S
C2705 C2709 1.385 . S
C2706 H2687 0.951 . S
C2706 C2704 1.388 . S
C2706 C2707 1.366 . S
C2707 C2706 1.366 . S
C2707 C2708 1.414 . S
C2707 C2710 1.499 . S
C2708 H2688 0.950 . S
C2708 C2707 1.414 . S
C2708 C2709 1.374 . S
C2709 H2689 0.950 . S
C2709 C2705 1.385 . S
C2709 C2708 1.374 . S
C2710 C2707 1.499 . S
C2710 C2711 1.373 . S
C2710 C2712 1.389 . S
C2711 H2690 0.950 . S
C2711 C2710 1.373 . S
C2711 C2727 1.377 . S
C2712 C2710 1.389 . S
C2712 C2713 1.524 . S
C2712 C2726 1.377 . S
C2713 C2712 1.524 . S
C2713 C2714 1.397 . S
C2713 C2718 1.363 . S
C2714 H2691 0.950 . S
C2714 C2713 1.397 . S
C2714 C2715 1.334 . S
C2715 H2692 0.950 . S
C2715 C2714 1.334 . S
C2715 C2716 1.287 . S
C2716 C2715 1.287 . S
C2716 C2717 1.524 . S
C2716 H2735 0.913 . S
C2717 H2693 0.950 . S
C2717 C2716 1.524 . S
C2717 C2718 1.415 . S
C2718 H2694 0.950 . S
C2718 C2713 1.363 . S
C2718 C2717 1.415 . S
C2719 H2695 0.951 . S
C2719 C2720 1.366 . S
C2719 C2721 1.388 . S
C2720 C2719 1.366 . S
C2720 C2724 1.385 . S
C2721 H2696 0.951 . S
C2721 C2719 1.388 . S
C2721 C2722 1.366 . S
C2722 C2721 1.366 . S
C2722 C2723 1.414 . S
C2722 C2725 1.499 . S
C2723 H2697 0.950 . S
C2723 C2722 1.414 . S
C2723 C2724 1.374 . S
C2724 H2698 0.950 . S
C2724 C2720 1.385 . S
C2724 C2723 1.374 . S
C2725 C2722 1.499 . S
C2725 C2726 1.373 . S
C2725 C2727 1.389 . S
C2726 H2699 0.950 . S
C2726 C2712 1.377 . S
C2726 C2725 1.373 . S
C2727 C2711 1.377 . S
C2727 C2725 1.389 . S
C2727 C2728 1.524 . S
C2728 C2727 1.524 . S
C2728 C2729 1.397 . S
C2728 C2733 1.363 . S
C2729 H2700 0.950 . S
C2729 C2728 1.397 . S
C2729 C2730 1.334 . S
C2730 H2701 0.950 . S
C2730 C2729 1.334 . S
C2730 C2731 1.287 . S
C2731 C2730 1.287 . S
C2731 C2732 1.524 . S
C2731 H2734 0.999 . S
C2732 H2702 0.950 . S
C2732 C2731 1.524 . S
C2732 C2733 1.415 . S
C2733 H2703 0.950 . S
C2733 C2728 1.363 . S
C2733 C2732 1.415 . S
H2734 C2731 0.999 . S
H2735 C2716 0.913 . S
H2736 C2754 0.951 . S
H2737 C2756 0.951 . S
H2738 C2758 0.950 . S
H2739 C2759 0.950 . S
H2740 C2761 0.950 . S
H2741 C2764 0.950 . S
H2742 C2765 0.950 . S
H2743 C2767 0.950 . S
H2744 C2768 0.950 . S
H2745 C2769 0.951 . S
H2746 C2771 0.951 . S
H2747 C2773 0.950 . S
H2748 C2774 0.950 . S
H2749 C2776 0.950 . S
H2750 C2779 0.950 . S
H2751 C2780 0.950 . S
H2752 C2782 0.950 . S
H2753 C2783 0.950 . S
C2754 H2736 0.951 . S
C2754 C2755 1.366 . S
C2754 C2756 1.388 . S
C2755 C2754 1.366 . S
C2755 C2759 1.385 . S
C2756 H2737 0.951 . S
C2756 C2754 1.388 . S
C2756 C2757 1.366 . S
C2757 C2756 1.366 . S
C2757 C2758 1.414 . S
C2757 C2760 1.499 . S
C2758 H2738 0.950 . S
C2758 C2757 1.414 . S
C2758 C2759 1.374 . S
C2759 H2739 0.950 . S
C2759 C2755 1.385 . S
C2759 C2758 1.374 . S
C2760 C2757 1.499 . S
C2760 C2761 1.373 . S
C2760 C2762 1.389 . S
C2761 H2740 0.950 . S
C2761 C2760 1.373 . S
C2761 C2777 1.377 . S
C2762 C2760 1.389 . S
C2762 C2763 1.524 . S
C2762 C2776 1.377 . S
C2763 C2762 1.524 . S
C2763 C2764 1.397 . S
C2763 C2768 1.363 . S
C2764 H2741 0.950 . S
C2764 C2763 1.397 . S
C2764 C2765 1.334 . S
C2765 H2742 0.950 . S
C2765 C2764 1.334 . S
C2765 C2766 1.287 . S
C2766 C2765 1.287 . S
C2766 C2767 1.524 . S
C2766 H2785 0.913 . S
C2767 H2743 0.950 . S
C2767 C2766 1.524 . S
C2767 C2768 1.415 . S
C2768 H2744 0.950 . S
C2768 C2763 1.363 . S
C2768 C2767 1.415 . S
C2769 H2745 0.951 . S
C2769 C2770 1.366 1_545 S
C2769 C2771 1.388 . S
C2770 C2769 1.366 1_565 S
C2770 C2774 1.385 . S
C2771 H2746 0.951 . S
C2771 C2769 1.388 . S
C2771 C2772 1.366 1_545 S
C2772 C2771 1.366 1_565 S
C2772 C2773 1.414 . S
C2772 C2775 1.499 . S
C2773 H2747 0.950 . S
C2773 C2772 1.414 . S
C2773 C2774 1.374 . S
C2774 H2748 0.950 . S
C2774 C2770 1.385 . S
C2774 C2773 1.374 . S
C2775 C2772 1.499 . S
C2775 C2776 1.373 . S
C2775 C2777 1.389 . S
C2776 H2749 0.950 . S
C2776 C2762 1.377 . S
C2776 C2775 1.373 . S
C2777 C2761 1.377 . S
C2777 C2775 1.389 . S
C2777 C2778 1.524 . S
C2778 C2777 1.524 . S
C2778 C2779 1.397 . S
C2778 C2783 1.363 1_565 S
C2779 H2750 0.950 . S
C2779 C2778 1.397 . S
C2779 C2780 1.334 . S
C2780 H2751 0.950 . S
C2780 C2779 1.334 . S
C2780 C2781 1.287 1_565 S
C2781 C2780 1.287 1_545 S
C2781 C2782 1.524 . S
C2781 H2784 0.999 . S
C2782 H2752 0.950 . S
C2782 C2781 1.524 . S
C2782 C2783 1.415 . S
C2783 H2753 0.950 . S
C2783 C2778 1.363 1_545 S
C2783 C2782 1.415 . S
H2784 C2781 0.999 . S
H2785 C2766 0.913 . S
H2786 C2804 0.951 1_655 S
H2787 C2806 0.951 1_655 S
H2788 C2808 0.950 . S
H2789 C2809 0.950 . S
H2790 C2811 0.950 . S
H2791 C2814 0.950 . S
H2792 C2815 0.950 . S
H2793 C2817 0.950 . S
H2794 C2818 0.950 . S
H2795 C2819 0.951 . S
H2796 C2821 0.951 . S
H2797 C2823 0.950 1_655 S
H2798 C2824 0.950 1_655 S
H2799 C2826 0.950 . S
H2800 C2829 0.950 . S
H2801 C2830 0.950 . S
H2802 C2832 0.950 . S
H2803 C2833 0.950 . S
C2804 H2786 0.951 1_455 S
C2804 C2805 1.366 . S
C2804 C2806 1.388 . S
C2805 C2804 1.366 . S
C2805 C2809 1.385 . S
C2806 H2787 0.951 1_455 S
C2806 C2804 1.388 . S
C2806 C2807 1.366 . S
C2807 C2806 1.366 . S
C2807 C2808 1.414 . S
C2807 C2810 1.499 . S
C2808 H2788 0.950 . S
C2808 C2807 1.414 . S
C2808 C2809 1.374 . S
C2809 H2789 0.950 . S
C2809 C2805 1.385 . S
C2809 C2808 1.374 . S
C2810 C2807 1.499 . S
C2810 C2811 1.373 . S
C2810 C2812 1.361 1_455 S
C2811 H2790 0.950 . S
C2811 C2810 1.373 . S
C2811 C2827 1.377 . S
C2812 C2810 1.361 1_655 S
C2812 C2813 1.555 . S
C2812 C2826 1.376 . S
C2813 C2812 1.555 . S
C2813 C2814 1.397 . S
C2813 C2818 1.363 . S
C2814 H2791 0.950 . S
C2814 C2813 1.397 . S
C2814 C2815 1.334 . S
C2815 H2792 0.950 . S
C2815 C2814 1.334 . S
C2815 C2816 1.287 . S
C2816 C2815 1.287 . S
C2816 C2817 1.524 . S
C2816 H2835 0.913 . S
C2817 H2793 0.950 . S
C2817 C2816 1.524 . S
C2817 C2818 1.415 . S
C2818 H2794 0.950 . S
C2818 C2813 1.363 . S
C2818 C2817 1.415 . S
C2819 H2795 0.951 . S
C2819 C2820 1.366 . S
C2819 C2821 1.388 . S
C2820 C2819 1.366 . S
C2820 C2824 1.385 . S
C2821 H2796 0.951 . S
C2821 C2819 1.388 . S
C2821 C2822 1.366 . S
C2822 C2821 1.366 . S
C2822 C2823 1.414 . S
C2822 C2825 1.499 . S
C2823 H2797 0.950 1_455 S
C2823 C2822 1.414 . S
C2823 C2824 1.374 . S
C2824 H2798 0.950 1_455 S
C2824 C2820 1.385 . S
C2824 C2823 1.374 . S
C2825 C2822 1.499 . S
C2825 C2826 1.373 1_455 S
C2825 C2827 1.389 . S
C2826 H2799 0.950 . S
C2826 C2812 1.376 . S
C2826 C2825 1.373 1_655 S
C2827 C2811 1.377 . S
C2827 C2825 1.389 . S
C2827 C2828 1.524 . S
C2828 C2827 1.524 . S
C2828 C2829 1.397 . S
C2828 C2833 1.363 . S
C2829 H2800 0.950 . S
C2829 C2828 1.397 . S
C2829 C2830 1.334 . S
C2830 H2801 0.950 . S
C2830 C2829 1.334 . S
C2830 C2831 1.287 . S
C2831 C2830 1.287 . S
C2831 C2832 1.524 . S
C2831 H2834 0.999 . S
C2832 H2802 0.950 . S
C2832 C2831 1.524 . S
C2832 C2833 1.415 . S
C2833 H2803 0.950 . S
C2833 C2828 1.363 . S
C2833 C2832 1.415 . S
H2834 C2831 0.999 . S
H2835 C2816 0.913 . S
H2836 C2854 0.951 . S
H2837 C2856 0.951 . S
H2838 C2858 0.950 . S
H2839 C2859 0.950 . S
H2840 C2861 0.950 . S
H2841 C2864 0.950 . S
H2842 C2865 0.950 . S
H2843 C2867 0.950 . S
H2844 C2868 0.950 . S
H2845 C2869 0.951 . S
H2846 C2871 0.951 . S
H2847 C2873 0.950 . S
H2848 C2874 0.950 . S
H2849 C2876 0.950 . S
H2850 C2879 0.950 . S
H2851 C2880 0.950 . S
H2852 C2882 0.950 . S
H2853 C2883 0.950 . S
C2854 H2836 0.951 . S
C2854 C2855 1.366 . S
C2854 C2856 1.388 . S
C2855 C2854 1.366 . S
C2855 C2859 1.385 . S
C2856 H2837 0.951 . S
C2856 C2854 1.388 . S
C2856 C2857 1.366 . S
C2857 C2856 1.366 . S
C2857 C2858 1.414 . S
C2857 C2860 1.499 . S
C2858 H2838 0.950 . S
C2858 C2857 1.414 . S
C2858 C2859 1.374 . S
C2859 H2839 0.950 . S
C2859 C2855 1.385 . S
C2859 C2858 1.374 . S
C2860 C2857 1.499 . S
C2860 C2861 1.373 . S
C2860 C2862 1.389 . S
C2861 H2840 0.950 . S
C2861 C2860 1.373 . S
C2861 C2877 1.377 . S
C2862 C2860 1.389 . S
C2862 C2863 1.524 . S
C2862 C2876 1.377 . S
C2863 C2862 1.524 . S
C2863 C2864 1.397 . S
C2863 C2868 1.363 . S
C2864 H2841 0.950 . S
C2864 C2863 1.397 . S
C2864 C2865 1.334 . S
C2865 H2842 0.950 . S
C2865 C2864 1.334 . S
C2865 C2866 1.287 . S
C2866 C2865 1.287 . S
C2866 C2867 1.524 . S
C2866 H2885 0.913 . S
C2867 H2843 0.950 . S
C2867 C2866 1.524 . S
C2867 C2868 1.415 . S
C2868 H2844 0.950 . S
C2868 C2863 1.363 . S
C2868 C2867 1.415 . S
C2869 H2845 0.951 . S
C2869 C2870 1.366 . S
C2869 C2871 1.388 . S
C2870 C2869 1.366 . S
C2870 C2874 1.385 . S
C2871 H2846 0.951 . S
C2871 C2869 1.388 . S
C2871 C2872 1.366 . S
C2872 C2871 1.366 . S
C2872 C2873 1.414 . S
C2872 C2875 1.499 . S
C2873 H2847 0.950 . S
C2873 C2872 1.414 . S
C2873 C2874 1.374 . S
C2874 H2848 0.950 . S
C2874 C2870 1.385 . S
C2874 C2873 1.374 . S
C2875 C2872 1.499 . S
C2875 C2876 1.373 . S
C2875 C2877 1.389 . S
C2876 H2849 0.950 . S
C2876 C2862 1.377 . S
C2876 C2875 1.373 . S
C2877 C2861 1.377 . S
C2877 C2875 1.389 . S
C2877 C2878 1.524 . S
C2878 C2877 1.524 . S
C2878 C2879 1.397 . S
C2878 C2883 1.363 . S
C2879 H2850 0.950 . S
C2879 C2878 1.397 . S
C2879 C2880 1.334 . S
C2880 H2851 0.950 . S
C2880 C2879 1.334 . S
C2880 C2881 1.287 . S
C2881 C2880 1.287 . S
C2881 C2882 1.524 . S
C2881 H2884 0.999 . S
C2882 H2852 0.950 . S
C2882 C2881 1.524 . S
C2882 C2883 1.415 . S
C2883 H2853 0.950 . S
C2883 C2878 1.363 . S
C2883 C2882 1.415 . S
H2884 C2881 0.999 . S
H2885 C2866 0.913 . S
H2886 C2904 0.951 . S
H2887 C2906 0.951 . S
H2888 C2908 0.950 . S
H2889 C2909 0.950 . S
H2890 C2911 0.950 1_455 S
H2891 C2914 0.950 . S
H2892 C2915 0.950 . S
H2893 C2917 0.950 . S
H2894 C2918 0.950 . S
H2895 C2919 0.951 . S
H2896 C2921 0.951 . S
H2897 C2923 0.950 . S
H2898 C2924 0.950 . S
H2899 C2926 0.950 . S
H2900 C2929 0.950 . S
H2901 C2930 0.950 . S
H2902 C2932 0.950 . S
H2903 C2933 0.950 . S
C2904 H2886 0.951 . S
C2904 C2905 1.366 . S
C2904 C2906 1.388 . S
C2905 C2904 1.366 . S
C2905 C2909 1.385 . S
C2906 H2887 0.951 . S
C2906 C2904 1.388 . S
C2906 C2907 1.366 . S
C2907 C2906 1.366 . S
C2907 C2908 1.414 . S
C2907 C2910 1.499 . S
C2908 H2888 0.950 . S
C2908 C2907 1.414 . S
C2908 C2909 1.374 . S
C2909 H2889 0.950 . S
C2909 C2905 1.385 . S
C2909 C2908 1.374 . S
C2910 C2907 1.499 . S
C2910 C2911 1.373 . S
C2910 C2912 1.389 . S
C2911 H2890 0.950 1_655 S
C2911 C2910 1.373 . S
C2911 C2927 1.378 . S
C2912 C2910 1.389 . S
C2912 C2913 1.524 . S
C2912 C2926 1.377 . S
C2913 C2912 1.524 . S
C2913 C2914 1.397 . S
C2913 C2918 1.363 . S
C2914 H2891 0.950 . S
C2914 C2913 1.397 . S
C2914 C2915 1.334 . S
C2915 H2892 0.950 . S
C2915 C2914 1.334 . S
C2915 C2916 1.287 . S
C2916 C2915 1.287 . S
C2916 C2917 1.524 . S
C2916 H2935 0.913 . S
C2917 H2893 0.950 . S
C2917 C2916 1.524 . S
C2917 C2918 1.415 . S
C2918 H2894 0.950 . S
C2918 C2913 1.363 . S
C2918 C2917 1.415 . S
C2919 H2895 0.951 . S
C2919 C2920 1.366 . S
C2919 C2921 1.388 . S
C2920 C2919 1.366 . S
C2920 C2924 1.385 . S
C2921 H2896 0.951 . S
C2921 C2919 1.388 . S
C2921 C2922 1.366 . S
C2922 C2921 1.366 . S
C2922 C2923 1.414 . S
C2922 C2925 1.499 . S
C2923 H2897 0.950 . S
C2923 C2922 1.414 . S
C2923 C2924 1.374 . S
C2924 H2898 0.950 . S
C2924 C2920 1.385 . S
C2924 C2923 1.374 . S
C2925 C2922 1.499 . S
C2925 C2926 1.373 . S
C2925 C2927 1.402 . S
C2926 H2899 0.950 . S
C2926 C2912 1.377 . S
C2926 C2925 1.373 . S
C2927 C2911 1.378 . S
C2927 C2925 1.402 . S
C2927 C2928 1.510 1_655 S
C2928 C2927 1.510 1_455 S
C2928 C2929 1.397 . S
C2928 C2933 1.363 . S
C2929 H2900 0.950 . S
C2929 C2928 1.397 . S
C2929 C2930 1.334 . S
C2930 H2901 0.950 . S
C2930 C2929 1.334 . S
C2930 C2931 1.287 . S
C2931 C2930 1.287 . S
C2931 C2932 1.524 . S
C2931 H2934 0.999 . S
C2932 H2902 0.950 . S
C2932 C2931 1.524 . S
C2932 C2933 1.415 . S
C2933 H2903 0.950 . S
C2933 C2928 1.363 . S
C2933 C2932 1.415 . S
H2934 C2931 0.999 . S
H2935 C2916 0.913 . S
H2936 C2954 0.951 . S
H2937 C2956 0.951 . S
H2938 C2958 0.950 . S
H2939 C2959 0.950 . S
H2940 C2961 0.950 . S
H2941 C2964 0.950 . S
H2942 C2965 0.950 . S
H2943 C2967 0.950 . S
H2944 C2968 0.950 . S
H2945 C2969 0.951 . S
H2946 C2971 0.951 . S
H2947 C2973 0.950 . S
H2948 C2974 0.950 . S
H2949 C2976 0.950 . S
H2950 C2979 0.950 . S
H2951 C2980 0.950 . S
H2952 C2982 0.950 . S
H2953 C2983 0.950 . S
C2954 H2936 0.951 . S
C2954 C2955 1.366 . S
C2954 C2956 1.388 . S
C2955 C2954 1.366 . S
C2955 C2959 1.385 . S
C2956 H2937 0.951 . S
C2956 C2954 1.388 . S
C2956 C2957 1.366 . S
C2957 C2956 1.366 . S
C2957 C2958 1.414 . S
C2957 C2960 1.499 . S
C2958 H2938 0.950 . S
C2958 C2957 1.414 . S
C2958 C2959 1.374 . S
C2959 H2939 0.950 . S
C2959 C2955 1.385 . S
C2959 C2958 1.374 . S
C2960 C2957 1.499 . S
C2960 C2961 1.373 . S
C2960 C2962 1.389 . S
C2961 H2940 0.950 . S
C2961 C2960 1.373 . S
C2961 C2977 1.377 . S
C2962 C2960 1.389 . S
C2962 C2963 1.524 . S
C2962 C2976 1.377 . S
C2963 C2962 1.524 . S
C2963 C2964 1.397 . S
C2963 C2968 1.363 . S
C2964 H2941 0.950 . S
C2964 C2963 1.397 . S
C2964 C2965 1.334 . S
C2965 H2942 0.950 . S
C2965 C2964 1.334 . S
C2965 C2966 1.287 . S
C2966 C2965 1.287 . S
C2966 C2967 1.524 . S
C2966 H2985 0.913 . S
C2967 H2943 0.950 . S
C2967 C2966 1.524 . S
C2967 C2968 1.415 . S
C2968 H2944 0.950 . S
C2968 C2963 1.363 . S
C2968 C2967 1.415 . S
C2969 H2945 0.951 . S
C2969 C2970 1.366 . S
C2969 C2971 1.388 . S
C2970 C2969 1.366 . S
C2970 C2974 1.385 . S
C2971 H2946 0.951 . S
C2971 C2969 1.388 . S
C2971 C2972 1.366 . S
C2972 C2971 1.366 . S
C2972 C2973 1.414 . S
C2972 C2975 1.499 . S
C2973 H2947 0.950 . S
C2973 C2972 1.414 . S
C2973 C2974 1.374 . S
C2974 H2948 0.950 . S
C2974 C2970 1.385 . S
C2974 C2973 1.374 . S
C2975 C2972 1.499 . S
C2975 C2976 1.373 . S
C2975 C2977 1.389 . S
C2976 H2949 0.950 . S
C2976 C2962 1.377 . S
C2976 C2975 1.373 . S
C2977 C2961 1.377 . S
C2977 C2975 1.389 . S
C2977 C2978 1.524 . S
C2978 C2977 1.524 . S
C2978 C2979 1.397 . S
C2978 C2983 1.363 . S
C2979 H2950 0.950 . S
C2979 C2978 1.397 . S
C2979 C2980 1.334 . S
C2980 H2951 0.950 . S
C2980 C2979 1.334 . S
C2980 C2981 1.287 . S
C2981 C2980 1.287 . S
C2981 C2982 1.524 . S
C2981 H2984 0.999 . S
C2982 H2952 0.950 . S
C2982 C2981 1.524 . S
C2982 C2983 1.415 . S
C2983 H2953 0.950 . S
C2983 C2978 1.363 . S
C2983 C2982 1.415 . S
H2984 C2981 0.999 . S
H2985 C2966 0.913 . S
H2986 C3004 0.951 . S
H2987 C3006 0.951 . S
H2988 C3008 0.950 . S
H2989 C3009 0.950 . S
H2990 C3011 0.950 . S
H2991 C3014 0.950 1_545 S
H2992 C3015 0.950 . S
H2993 C3017 0.950 . S
H2994 C3018 0.950 . S
H2995 C3019 0.951 . S
H2996 C3021 0.951 . S
H2997 C3023 0.950 1_565 S
H2998 C3024 0.950 . S
H2999 C3026 0.950 1_565 S
H3000 C3029 0.950 . S
H3001 C3030 0.950 . S
H3002 C3032 0.950 . S
H3003 C3033 0.950 . S
C3004 H2986 0.951 . S
C3004 C3005 1.366 . S
C3004 C3006 1.388 . S
C3005 C3004 1.366 . S
C3005 C3009 1.385 . S
C3006 H2987 0.951 . S
C3006 C3004 1.388 . S
C3006 C3007 1.366 . S
C3007 C3006 1.366 . S
C3007 C3008 1.414 . S
C3007 C3010 1.499 . S
C3008 H2988 0.950 . S
C3008 C3007 1.414 . S
C3008 C3009 1.374 . S
C3009 H2989 0.950 . S
C3009 C3005 1.385 . S
C3009 C3008 1.374 . S
C3010 C3007 1.499 . S
C3010 C3011 1.373 . S
C3010 C3012 1.389 . S
C3011 H2990 0.950 . S
C3011 C3010 1.373 . S
C3011 C3027 1.377 . S
C3012 C3010 1.389 . S
C3012 C3013 1.524 1_545 S
C3012 C3026 1.377 . S
C3013 C3012 1.524 1_565 S
C3013 C3014 1.397 . S
C3013 C3018 1.363 . S
C3014 H2991 0.950 1_565 S
C3014 C3013 1.397 . S
C3014 C3015 1.334 . S
C3015 H2992 0.950 . S
C3015 C3014 1.334 . S
C3015 C3016 1.287 . S
C3016 C3015 1.287 . S
C3016 C3017 1.524 . S
C3016 H3035 0.913 . S
C3017 H2993 0.950 . S
C3017 C3016 1.524 . S
C3017 C3018 1.415 . S
C3018 H2994 0.950 . S
C3018 C3013 1.363 . S
C3018 C3017 1.415 . S
C3019 H2995 0.951 . S
C3019 C3020 1.366 . S
C3019 C3021 1.388 . S
C3020 C3019 1.366 . S
C3020 C3024 1.385 1_545 S
C3021 H2996 0.951 . S
C3021 C3019 1.388 . S
C3021 C3022 1.366 . S
C3022 C3021 1.366 . S
C3022 C3023 1.414 . S
C3022 C3025 1.499 . S
C3023 H2997 0.950 1_545 S
C3023 C3022 1.414 . S
C3023 C3024 1.374 1_545 S
C3024 H2998 0.950 . S
C3024 C3020 1.385 1_565 S
C3024 C3023 1.374 1_565 S
C3025 C3022 1.499 . S
C3025 C3026 1.373 . S
C3025 C3027 1.389 . S
C3026 H2999 0.950 1_545 S
C3026 C3012 1.377 . S
C3026 C3025 1.373 . S
C3027 C3011 1.377 . S
C3027 C3025 1.389 . S
C3027 C3028 1.524 . S
C3028 C3027 1.524 . S
C3028 C3029 1.397 . S
C3028 C3033 1.363 . S
C3029 H3000 0.950 . S
C3029 C3028 1.397 . S
C3029 C3030 1.334 . S
C3030 H3001 0.950 . S
C3030 C3029 1.334 . S
C3030 C3031 1.287 . S
C3031 C3030 1.287 . S
C3031 C3032 1.524 . S
C3031 H3034 0.999 . S
C3032 H3002 0.950 . S
C3032 C3031 1.524 . S
C3032 C3033 1.415 . S
C3033 H3003 0.950 . S
C3033 C3028 1.363 . S
C3033 C3032 1.415 . S
H3034 C3031 0.999 . S
H3035 C3016 0.913 . S
H3036 C3054 0.951 . S
H3037 C3056 0.951 . S
H3038 C3058 0.950 . S
H3039 C3059 0.950 . S
H3040 C3061 0.950 . S
H3041 C3064 0.950 . S
H3042 C3065 0.950 . S
H3043 C3067 0.950 . S
H3044 C3068 0.950 . S
H3045 C3069 0.951 . S
H3046 C3071 0.951 . S
H3047 C3073 0.950 . S
H3048 C3074 0.950 . S
H3049 C3076 0.950 . S
H3050 C3079 0.950 . S
H3051 C3080 0.950 . S
H3052 C3082 0.950 . S
H3053 C3083 0.950 . S
C3054 H3036 0.951 . S
C3054 C3055 1.366 . S
C3054 C3056 1.388 . S
C3055 C3054 1.366 . S
C3055 C3059 1.385 . S
C3056 H3037 0.951 . S
C3056 C3054 1.388 . S
C3056 C3057 1.366 . S
C3057 C3056 1.366 . S
C3057 C3058 1.414 . S
C3057 C3060 1.499 . S
C3058 H3038 0.950 . S
C3058 C3057 1.414 . S
C3058 C3059 1.374 . S
C3059 H3039 0.950 . S
C3059 C3055 1.385 . S
C3059 C3058 1.374 . S
C3060 C3057 1.499 . S
C3060 C3061 1.373 . S
C3060 C3062 1.389 . S
C3061 H3040 0.950 . S
C3061 C3060 1.373 . S
C3061 C3077 1.377 . S
C3062 C3060 1.389 . S
C3062 C3063 1.524 . S
C3062 C3076 1.377 . S
C3063 C3062 1.524 . S
C3063 C3064 1.397 . S
C3063 C3068 1.363 . S
C3064 H3041 0.950 . S
C3064 C3063 1.397 . S
C3064 C3065 1.334 . S
C3065 H3042 0.950 . S
C3065 C3064 1.334 . S
C3065 C3066 1.287 . S
C3066 C3065 1.287 . S
C3066 C3067 1.524 . S
C3066 H3085 0.913 . S
C3067 H3043 0.950 . S
C3067 C3066 1.524 . S
C3067 C3068 1.415 . S
C3068 H3044 0.950 . S
C3068 C3063 1.363 . S
C3068 C3067 1.415 . S
C3069 H3045 0.951 . S
C3069 C3070 1.366 . S
C3069 C3071 1.388 . S
C3070 C3069 1.366 . S
C3070 C3074 1.385 . S
C3071 H3046 0.951 . S
C3071 C3069 1.388 . S
C3071 C3072 1.366 . S
C3072 C3071 1.366 . S
C3072 C3073 1.414 . S
C3072 C3075 1.499 . S
C3073 H3047 0.950 . S
C3073 C3072 1.414 . S
C3073 C3074 1.374 . S
C3074 H3048 0.950 . S
C3074 C3070 1.385 . S
C3074 C3073 1.374 . S
C3075 C3072 1.499 . S
C3075 C3076 1.373 . S
C3075 C3077 1.389 . S
C3076 H3049 0.950 . S
C3076 C3062 1.377 . S
C3076 C3075 1.373 . S
C3077 C3061 1.377 . S
C3077 C3075 1.389 . S
C3077 C3078 1.524 . S
C3078 C3077 1.524 . S
C3078 C3079 1.397 . S
C3078 C3083 1.363 . S
C3079 H3050 0.950 . S
C3079 C3078 1.397 . S
C3079 C3080 1.334 . S
C3080 H3051 0.950 . S
C3080 C3079 1.334 . S
C3080 C3081 1.287 . S
C3081 C3080 1.287 . S
C3081 C3082 1.524 . S
C3081 H3084 0.999 . S
C3082 H3052 0.950 . S
C3082 C3081 1.524 . S
C3082 C3083 1.415 . S
C3083 H3053 0.950 . S
C3083 C3078 1.363 . S
C3083 C3082 1.415 . S
H3084 C3081 0.999 . S
H3085 C3066 0.913 . S
H3086 C3104 0.951 . S
H3087 C3106 0.951 . S
H3088 C3108 0.950 . S
H3089 C3109 0.950 . S
H3090 C3111 0.950 . S
H3091 C3114 0.950 . S
H3092 C3115 0.950 . S
H3093 C3117 0.950 . S
H3094 C3118 0.950 . S
H3095 C3119 0.951 . S
H3096 C3121 0.951 . S
H3097 C3123 0.950 . S
H3098 C3124 0.950 . S
H3099 C3126 0.950 . S
H3100 C3129 0.950 . S
H3101 C3130 0.950 . S
H3102 C3132 0.950 . S
H3103 C3133 0.950 . S
C3104 H3086 0.951 . S
C3104 C3105 1.366 . S
C3104 C3106 1.388 . S
C3105 C3104 1.366 . S
C3105 C3109 1.385 . S
C3106 H3087 0.951 . S
C3106 C3104 1.388 . S
C3106 C3107 1.366 . S
C3107 C3106 1.366 . S
C3107 C3108 1.414 . S
C3107 C3110 1.499 . S
C3108 H3088 0.950 . S
C3108 C3107 1.414 . S
C3108 C3109 1.374 . S
C3109 H3089 0.950 . S
C3109 C3105 1.385 . S
C3109 C3108 1.374 . S
C3110 C3107 1.499 . S
C3110 C3111 1.373 . S
C3110 C3112 1.389 . S
C3111 H3090 0.950 . S
C3111 C3110 1.373 . S
C3111 C3127 1.377 . S
C3112 C3110 1.389 . S
C3112 C3113 1.524 . S
C3112 C3126 1.377 . S
C3113 C3112 1.524 . S
C3113 C3114 1.397 . S
C3113 C3118 1.363 . S
C3114 H3091 0.950 . S
C3114 C3113 1.397 . S
C3114 C3115 1.334 . S
C3115 H3092 0.950 . S
C3115 C3114 1.334 . S
C3115 C3116 1.287 . S
C3116 C3115 1.287 . S
C3116 C3117 1.524 . S
C3116 H3135 0.913 . S
C3117 H3093 0.950 . S
C3117 C3116 1.524 . S
C3117 C3118 1.415 . S
C3118 H3094 0.950 . S
C3118 C3113 1.363 . S
C3118 C3117 1.415 . S
C3119 H3095 0.951 . S
C3119 C3120 1.366 . S
C3119 C3121 1.388 . S
C3120 C3119 1.366 . S
C3120 C3124 1.385 . S
C3121 H3096 0.951 . S
C3121 C3119 1.388 . S
C3121 C3122 1.366 . S
C3122 C3121 1.366 . S
C3122 C3123 1.414 . S
C3122 C3125 1.499 . S
C3123 H3097 0.950 . S
C3123 C3122 1.414 . S
C3123 C3124 1.374 . S
C3124 H3098 0.950 . S
C3124 C3120 1.385 . S
C3124 C3123 1.374 . S
C3125 C3122 1.499 . S
C3125 C3126 1.373 . S
C3125 C3127 1.389 . S
C3126 H3099 0.950 . S
C3126 C3112 1.377 . S
C3126 C3125 1.373 . S
C3127 C3111 1.377 . S
C3127 C3125 1.389 . S
C3127 C3128 1.524 . S
C3128 C3127 1.524 . S
C3128 C3129 1.397 . S
C3128 C3133 1.363 . S
C3129 H3100 0.950 . S
C3129 C3128 1.397 . S
C3129 C3130 1.334 . S
C3130 H3101 0.950 . S
C3130 C3129 1.334 . S
C3130 C3131 1.287 . S
C3131 C3130 1.287 . S
C3131 C3132 1.524 . S
C3131 H3134 0.999 . S
C3132 H3102 0.950 . S
C3132 C3131 1.524 . S
C3132 C3133 1.415 . S
C3133 H3103 0.950 . S
C3133 C3128 1.363 . S
C3133 C3132 1.415 . S
H3134 C3131 0.999 . S
H3135 C3116 0.913 . S
H3136 C3154 0.951 . S
H3137 C3156 0.951 . S
H3138 C3158 0.950 . S
H3139 C3159 0.950 . S
H3140 C3161 0.950 . S
H3141 C3164 0.950 . S
H3142 C3165 0.950 . S
H3143 C3167 0.950 . S
H3144 C3168 0.950 . S
H3145 C3169 0.951 . S
H3146 C3171 0.951 . S
H3147 C3173 0.950 . S
H3148 C3174 0.950 . S
H3149 C3176 0.950 . S
H3150 C3179 0.950 . S
H3151 C3180 0.950 . S
H3152 C3182 0.950 . S
H3153 C3183 0.950 . S
C3154 H3136 0.951 . S
C3154 C3155 1.366 . S
C3154 C3156 1.388 . S
C3155 C3154 1.366 . S
C3155 C3159 1.385 . S
C3156 H3137 0.951 . S
C3156 C3154 1.388 . S
C3156 C3157 1.366 . S
C3157 C3156 1.366 . S
C3157 C3158 1.414 . S
C3157 C3160 1.499 . S
C3158 H3138 0.950 . S
C3158 C3157 1.414 . S
C3158 C3159 1.374 . S
C3159 H3139 0.950 . S
C3159 C3155 1.385 . S
C3159 C3158 1.374 . S
C3160 C3157 1.499 . S
C3160 C3161 1.373 . S
C3160 C3162 1.389 . S
C3161 H3140 0.950 . S
C3161 C3160 1.373 . S
C3161 C3177 1.377 . S
C3162 C3160 1.389 . S
C3162 C3163 1.524 . S
C3162 C3176 1.377 . S
C3163 C3162 1.524 . S
C3163 C3164 1.397 . S
C3163 C3168 1.363 . S
C3164 H3141 0.950 . S
C3164 C3163 1.397 . S
C3164 C3165 1.334 . S
C3165 H3142 0.950 . S
C3165 C3164 1.334 . S
C3165 C3166 1.287 . S
C3166 C3165 1.287 . S
C3166 C3167 1.524 . S
C3166 H3185 0.913 . S
C3167 H3143 0.950 . S
C3167 C3166 1.524 . S
C3167 C3168 1.415 . S
C3168 H3144 0.950 . S
C3168 C3163 1.363 . S
C3168 C3167 1.415 . S
C3169 H3145 0.951 . S
C3169 C3170 1.366 . S
C3169 C3171 1.388 . S
C3170 C3169 1.366 . S
C3170 C3174 1.385 . S
C3171 H3146 0.951 . S
C3171 C3169 1.388 . S
C3171 C3172 1.366 . S
C3172 C3171 1.366 . S
C3172 C3173 1.414 . S
C3172 C3175 1.499 . S
C3173 H3147 0.950 . S
C3173 C3172 1.414 . S
C3173 C3174 1.374 . S
C3174 H3148 0.950 . S
C3174 C3170 1.385 . S
C3174 C3173 1.374 . S
C3175 C3172 1.499 . S
C3175 C3176 1.373 . S
C3175 C3177 1.389 . S
C3176 H3149 0.950 . S
C3176 C3162 1.377 . S
C3176 C3175 1.373 . S
C3177 C3161 1.377 . S
C3177 C3175 1.389 . S
C3177 C3178 1.524 . S
C3178 C3177 1.524 . S
C3178 C3179 1.397 . S
C3178 C3183 1.363 . S
C3179 H3150 0.950 . S
C3179 C3178 1.397 . S
C3179 C3180 1.334 . S
C3180 H3151 0.950 . S
C3180 C3179 1.334 . S
C3180 C3181 1.287 . S
C3181 C3180 1.287 . S
C3181 C3182 1.524 . S
C3181 H3184 0.999 . S
C3182 H3152 0.950 . S
C3182 C3181 1.524 . S
C3182 C3183 1.415 . S
C3183 H3153 0.950 . S
C3183 C3178 1.363 . S
C3183 C3182 1.415 . S
H3184 C3181 0.999 . S
H3185 C3166 0.913 . S
H3186 C3204 0.951 . S
H3187 C3206 0.951 . S
H3188 C3208 0.950 . S
H3189 C3209 0.950 . S
H3190 C3211 0.950 . S
H3191 C3214 0.950 . S
H3192 C3215 0.950 . S
H3193 C3217 0.950 . S
H3194 C3218 0.950 . S
H3195 C3219 0.951 . S
H3196 C3221 0.951 . S
H3197 C3223 0.950 . S
H3198 C3224 0.950 . S
H3199 C3226 0.950 . S
H3200 C3229 0.950 . S
H3201 C3230 0.950 . S
H3202 C3232 0.950 . S
H3203 C3233 0.950 . S
C3204 H3186 0.951 . S
C3204 C3205 1.366 . S
C3204 C3206 1.388 . S
C3205 C3204 1.366 . S
C3205 C3209 1.385 . S
C3206 H3187 0.951 . S
C3206 C3204 1.388 . S
C3206 C3207 1.366 . S
C3207 C3206 1.366 . S
C3207 C3208 1.414 . S
C3207 C3210 1.499 . S
C3208 H3188 0.950 . S
C3208 C3207 1.414 . S
C3208 C3209 1.374 . S
C3209 H3189 0.950 . S
C3209 C3205 1.385 . S
C3209 C3208 1.374 . S
C3210 C3207 1.499 . S
C3210 C3211 1.373 . S
C3210 C3212 1.389 . S
C3211 H3190 0.950 . S
C3211 C3210 1.373 . S
C3211 C3227 1.377 . S
C3212 C3210 1.389 . S
C3212 C3213 1.524 . S
C3212 C3226 1.377 . S
C3213 C3212 1.524 . S
C3213 C3214 1.397 . S
C3213 C3218 1.363 . S
C3214 H3191 0.950 . S
C3214 C3213 1.397 . S
C3214 C3215 1.334 . S
C3215 H3192 0.950 . S
C3215 C3214 1.334 . S
C3215 C3216 1.287 . S
C3216 C3215 1.287 . S
C3216 C3217 1.524 . S
C3216 H3235 0.913 . S
C3217 H3193 0.950 . S
C3217 C3216 1.524 . S
C3217 C3218 1.415 . S
C3218 H3194 0.950 . S
C3218 C3213 1.363 . S
C3218 C3217 1.415 . S
C3219 H3195 0.951 . S
C3219 C3220 1.366 . S
C3219 C3221 1.388 . S
C3220 C3219 1.366 . S
C3220 C3224 1.385 . S
C3221 H3196 0.951 . S
C3221 C3219 1.388 . S
C3221 C3222 1.366 . S
C3222 C3221 1.366 . S
C3222 C3223 1.414 . S
C3222 C3225 1.499 . S
C3223 H3197 0.950 . S
C3223 C3222 1.414 . S
C3223 C3224 1.374 . S
C3224 H3198 0.950 . S
C3224 C3220 1.385 . S
C3224 C3223 1.374 . S
C3225 C3222 1.499 . S
C3225 C3226 1.373 . S
C3225 C3227 1.389 . S
C3226 H3199 0.950 . S
C3226 C3212 1.377 . S
C3226 C3225 1.373 . S
C3227 C3211 1.377 . S
C3227 C3225 1.389 . S
C3227 C3228 1.524 . S
C3228 C3227 1.524 . S
C3228 C3229 1.397 . S
C3228 C3233 1.363 . S
C3229 H3200 0.950 . S
C3229 C3228 1.397 . S
C3229 C3230 1.334 . S
C3230 H3201 0.950 . S
C3230 C3229 1.334 . S
C3230 C3231 1.287 . S
C3231 C3230 1.287 . S
C3231 C3232 1.524 . S
C3231 H3234 0.999 . S
C3232 H3202 0.950 . S
C3232 C3231 1.524 . S
C3232 C3233 1.415 . S
C3233 H3203 0.950 . S
C3233 C3228 1.363 . S
C3233 C3232 1.415 . S
H3234 C3231 0.999 . S
H3235 C3216 0.913 . S
H3236 C3254 0.951 . S
H3237 C3256 0.951 . S
H3238 C3258 0.950 . S
H3239 C3259 0.950 . S
H3240 C3261 0.950 . S
H3241 C3264 0.950 . S
H3242 C3265 0.950 . S
H3243 C3267 0.950 . S
H3244 C3268 0.950 . S
H3245 C3269 0.951 . S
H3246 C3271 0.951 . S
H3247 C3273 0.950 . S
H3248 C3274 0.950 . S
H3249 C3276 0.950 . S
H3250 C3279 0.950 . S
H3251 C3280 0.950 . S
H3252 C3282 0.950 . S
H3253 C3283 0.950 . S
C3254 H3236 0.951 . S
C3254 C3255 1.366 . S
C3254 C3256 1.388 . S
C3255 C3254 1.366 . S
C3255 C3259 1.385 . S
C3256 H3237 0.951 . S
C3256 C3254 1.388 . S
C3256 C3257 1.366 . S
C3257 C3256 1.366 . S
C3257 C3258 1.414 . S
C3257 C3260 1.499 . S
C3258 H3238 0.950 . S
C3258 C3257 1.414 . S
C3258 C3259 1.374 . S
C3259 H3239 0.950 . S
C3259 C3255 1.385 . S
C3259 C3258 1.374 . S
C3260 C3257 1.499 . S
C3260 C3261 1.373 . S
C3260 C3262 1.389 . S
C3261 H3240 0.950 . S
C3261 C3260 1.373 . S
C3261 C3277 1.377 . S
C3262 C3260 1.389 . S
C3262 C3263 1.524 . S
C3262 C3276 1.377 . S
C3263 C3262 1.524 . S
C3263 C3264 1.397 . S
C3263 C3268 1.363 . S
C3264 H3241 0.950 . S
C3264 C3263 1.397 . S
C3264 C3265 1.334 . S
C3265 H3242 0.950 . S
C3265 C3264 1.334 . S
C3265 C3266 1.287 . S
C3266 C3265 1.287 . S
C3266 C3267 1.524 . S
C3266 H3285 0.913 . S
C3267 H3243 0.950 . S
C3267 C3266 1.524 . S
C3267 C3268 1.415 . S
C3268 H3244 0.950 . S
C3268 C3263 1.363 . S
C3268 C3267 1.415 . S
C3269 H3245 0.951 . S
C3269 C3270 1.366 . S
C3269 C3271 1.388 . S
C3270 C3269 1.366 . S
C3270 C3274 1.385 . S
C3271 H3246 0.951 . S
C3271 C3269 1.388 . S
C3271 C3272 1.366 . S
C3272 C3271 1.366 . S
C3272 C3273 1.414 . S
C3272 C3275 1.499 . S
C3273 H3247 0.950 . S
C3273 C3272 1.414 . S
C3273 C3274 1.374 . S
C3274 H3248 0.950 . S
C3274 C3270 1.385 . S
C3274 C3273 1.374 . S
C3275 C3272 1.499 . S
C3275 C3276 1.373 . S
C3275 C3277 1.389 . S
C3276 H3249 0.950 . S
C3276 C3262 1.377 . S
C3276 C3275 1.373 . S
C3277 C3261 1.377 . S
C3277 C3275 1.389 . S
C3277 C3278 1.524 . S
C3278 C3277 1.524 . S
C3278 C3279 1.397 . S
C3278 C3283 1.363 . S
C3279 H3250 0.950 . S
C3279 C3278 1.397 . S
C3279 C3280 1.334 . S
C3280 H3251 0.950 . S
C3280 C3279 1.334 . S
C3280 C3281 1.287 . S
C3281 C3280 1.287 . S
C3281 C3282 1.524 . S
C3281 H3284 0.999 . S
C3282 H3252 0.950 . S
C3282 C3281 1.524 . S
C3282 C3283 1.415 . S
C3283 H3253 0.950 . S
C3283 C3278 1.363 . S
C3283 C3282 1.415 . S
H3284 C3281 0.999 . S
H3285 C3266 0.913 . S
H3286 C3304 0.951 . S
H3287 C3306 0.951 . S
H3288 C3308 0.950 . S
H3289 C3309 0.950 . S
H3290 C3311 0.950 . S
H3291 C3314 0.950 . S
H3292 C3315 0.950 . S
H3293 C3317 0.950 . S
H3294 C3318 0.950 . S
H3295 C3319 0.951 . S
H3296 C3321 0.951 . S
H3297 C3323 0.950 . S
H3298 C3324 0.950 . S
H3299 C3326 0.950 . S
H3300 C3329 0.950 . S
H3301 C3330 0.950 . S
H3302 C3332 0.950 . S
H3303 C3333 0.950 . S
C3304 H3286 0.951 . S
C3304 C3305 1.366 . S
C3304 C3306 1.388 . S
C3305 C3304 1.366 . S
C3305 C3309 1.385 . S
C3306 H3287 0.951 . S
C3306 C3304 1.388 . S
C3306 C3307 1.366 . S
C3307 C3306 1.366 . S
C3307 C3308 1.414 . S
C3307 C3310 1.499 . S
C3308 H3288 0.950 . S
C3308 C3307 1.414 . S
C3308 C3309 1.374 . S
C3309 H3289 0.950 . S
C3309 C3305 1.385 . S
C3309 C3308 1.374 . S
C3310 C3307 1.499 . S
C3310 C3311 1.373 . S
C3310 C3312 1.389 . S
C3311 H3290 0.950 . S
C3311 C3310 1.373 . S
C3311 C3327 1.377 . S
C3312 C3310 1.389 . S
C3312 C3313 1.524 . S
C3312 C3326 1.377 . S
C3313 C3312 1.524 . S
C3313 C3314 1.397 . S
C3313 C3318 1.363 . S
C3314 H3291 0.950 . S
C3314 C3313 1.397 . S
C3314 C3315 1.334 . S
C3315 H3292 0.950 . S
C3315 C3314 1.334 . S
C3315 C3316 1.287 . S
C3316 C3315 1.287 . S
C3316 C3317 1.524 . S
C3316 H3335 0.913 . S
C3317 H3293 0.950 . S
C3317 C3316 1.524 . S
C3317 C3318 1.415 . S
C3318 H3294 0.950 . S
C3318 C3313 1.363 . S
C3318 C3317 1.415 . S
C3319 H3295 0.951 . S
C3319 C3320 1.366 . S
C3319 C3321 1.388 . S
C3320 C3319 1.366 . S
C3320 C3324 1.385 . S
C3321 H3296 0.951 . S
C3321 C3319 1.388 . S
C3321 C3322 1.366 . S
C3322 C3321 1.366 . S
C3322 C3323 1.414 . S
C3322 C3325 1.499 . S
C3323 H3297 0.950 . S
C3323 C3322 1.414 . S
C3323 C3324 1.374 . S
C3324 H3298 0.950 . S
C3324 C3320 1.385 . S
C3324 C3323 1.374 . S
C3325 C3322 1.499 . S
C3325 C3326 1.373 . S
C3325 C3327 1.389 . S
C3326 H3299 0.950 . S
C3326 C3312 1.377 . S
C3326 C3325 1.373 . S
C3327 C3311 1.377 . S
C3327 C3325 1.389 . S
C3327 C3328 1.524 . S
C3328 C3327 1.524 . S
C3328 C3329 1.397 . S
C3328 C3333 1.363 . S
C3329 H3300 0.950 . S
C3329 C3328 1.397 . S
C3329 C3330 1.334 . S
C3330 H3301 0.950 . S
C3330 C3329 1.334 . S
C3330 C3331 1.287 . S
C3331 C3330 1.287 . S
C3331 C3332 1.524 . S
C3331 H3334 0.999 . S
C3332 H3302 0.950 . S
C3332 C3331 1.524 . S
C3332 C3333 1.415 . S
C3333 H3303 0.950 . S
C3333 C3328 1.363 . S
C3333 C3332 1.415 . S
H3334 C3331 0.999 . S
H3335 C3316 0.913 . S
H3336 C3354 0.951 . S
H3337 C3356 0.951 . S
H3338 C3358 0.950 . S
H3339 C3359 0.950 . S
H3340 C3361 0.950 . S
H3341 C3364 0.950 . S
H3342 C3365 0.950 . S
H3343 C3367 0.950 . S
H3344 C3368 0.950 . S
H3345 C3369 0.951 . S
H3346 C3371 0.951 . S
H3347 C3373 0.950 . S
H3348 C3374 0.950 . S
H3349 C3376 0.950 . S
H3350 C3379 0.950 . S
H3351 C3380 0.950 . S
H3352 C3382 0.950 . S
H3353 C3383 0.950 . S
C3354 H3336 0.951 . S
C3354 C3355 1.366 . S
C3354 C3356 1.388 . S
C3355 C3354 1.366 . S
C3355 C3359 1.385 . S
C3356 H3337 0.951 . S
C3356 C3354 1.388 . S
C3356 C3357 1.366 . S
C3357 C3356 1.366 . S
C3357 C3358 1.414 . S
C3357 C3360 1.499 . S
C3358 H3338 0.950 . S
C3358 C3357 1.414 . S
C3358 C3359 1.374 . S
C3359 H3339 0.950 . S
C3359 C3355 1.385 . S
C3359 C3358 1.374 . S
C3360 C3357 1.499 . S
C3360 C3361 1.373 . S
C3360 C3362 1.389 . S
C3361 H3340 0.950 . S
C3361 C3360 1.373 . S
C3361 C3377 1.377 . S
C3362 C3360 1.389 . S
C3362 C3363 1.524 . S
C3362 C3376 1.377 . S
C3363 C3362 1.524 . S
C3363 C3364 1.397 . S
C3363 C3368 1.363 . S
C3364 H3341 0.950 . S
C3364 C3363 1.397 . S
C3364 C3365 1.334 . S
C3365 H3342 0.950 . S
C3365 C3364 1.334 . S
C3365 C3366 1.287 . S
C3366 C3365 1.287 . S
C3366 C3367 1.524 . S
C3366 H3385 0.913 . S
C3367 H3343 0.950 . S
C3367 C3366 1.524 . S
C3367 C3368 1.415 . S
C3368 H3344 0.950 . S
C3368 C3363 1.363 . S
C3368 C3367 1.415 . S
C3369 H3345 0.951 . S
C3369 C3370 1.366 . S
C3369 C3371 1.388 . S
C3370 C3369 1.366 . S
C3370 C3374 1.385 . S
C3371 H3346 0.951 . S
C3371 C3369 1.388 . S
C3371 C3372 1.366 . S
C3372 C3371 1.366 . S
C3372 C3373 1.414 . S
C3372 C3375 1.499 . S
C3373 H3347 0.950 . S
C3373 C3372 1.414 . S
C3373 C3374 1.374 . S
C3374 H3348 0.950 . S
C3374 C3370 1.385 . S
C3374 C3373 1.374 . S
C3375 C3372 1.499 . S
C3375 C3376 1.373 . S
C3375 C3377 1.389 . S
C3376 H3349 0.950 . S
C3376 C3362 1.377 . S
C3376 C3375 1.373 . S
C3377 C3361 1.377 . S
C3377 C3375 1.389 . S
C3377 C3378 1.524 . S
C3378 C3377 1.524 . S
C3378 C3379 1.397 . S
C3378 C3383 1.363 . S
C3379 H3350 0.950 . S
C3379 C3378 1.397 . S
C3379 C3380 1.334 . S
C3380 H3351 0.950 . S
C3380 C3379 1.334 . S
C3380 C3381 1.287 . S
C3381 C3380 1.287 . S
C3381 C3382 1.524 . S
C3381 H3384 0.999 . S
C3382 H3352 0.950 . S
C3382 C3381 1.524 . S
C3382 C3383 1.415 . S
C3383 H3353 0.950 . S
C3383 C3378 1.363 . S
C3383 C3382 1.415 . S
H3384 C3381 0.999 . S
H3385 C3366 0.913 . S
H3386 C3404 0.951 . S
H3387 C3406 0.951 . S
H3388 C3408 0.950 . S
H3389 C3409 0.950 . S
H3390 C3411 0.950 . S
H3391 C3414 0.950 . S
H3392 C3415 0.950 . S
H3393 C3417 0.950 . S
H3394 C3418 0.950 . S
H3395 C3419 0.951 . S
H3396 C3421 0.951 . S
H3397 C3423 0.950 . S
H3398 C3424 0.950 . S
H3399 C3426 0.950 . S
H3400 C3429 0.950 . S
H3401 C3430 0.950 . S
H3402 C3432 0.950 . S
H3403 C3433 0.950 . S
C3404 H3386 0.951 . S
C3404 C3405 1.366 . S
C3404 C3406 1.388 . S
C3405 C3404 1.366 . S
C3405 C3409 1.385 . S
C3406 H3387 0.951 . S
C3406 C3404 1.388 . S
C3406 C3407 1.366 . S
C3407 C3406 1.366 . S
C3407 C3408 1.414 . S
C3407 C3410 1.499 . S
C3408 H3388 0.950 . S
C3408 C3407 1.414 . S
C3408 C3409 1.374 . S
C3409 H3389 0.950 . S
C3409 C3405 1.385 . S
C3409 C3408 1.374 . S
C3410 C3407 1.499 . S
C3410 C3411 1.373 . S
C3410 C3412 1.389 . S
C3411 H3390 0.950 . S
C3411 C3410 1.373 . S
C3411 C3427 1.377 . S
C3412 C3410 1.389 . S
C3412 C3413 1.524 . S
C3412 C3426 1.377 . S
C3413 C3412 1.524 . S
C3413 C3414 1.397 . S
C3413 C3418 1.363 . S
C3414 H3391 0.950 . S
C3414 C3413 1.397 . S
C3414 C3415 1.334 . S
C3415 H3392 0.950 . S
C3415 C3414 1.334 . S
C3415 C3416 1.287 . S
C3416 C3415 1.287 . S
C3416 C3417 1.524 . S
C3416 H3435 0.913 . S
C3417 H3393 0.950 . S
C3417 C3416 1.524 . S
C3417 C3418 1.415 . S
C3418 H3394 0.950 . S
C3418 C3413 1.363 . S
C3418 C3417 1.415 . S
C3419 H3395 0.951 . S
C3419 C3420 1.366 . S
C3419 C3421 1.388 . S
C3420 C3419 1.366 . S
C3420 C3424 1.385 . S
C3421 H3396 0.951 . S
C3421 C3419 1.388 . S
C3421 C3422 1.366 . S
C3422 C3421 1.366 . S
C3422 C3423 1.414 . S
C3422 C3425 1.499 . S
C3423 H3397 0.950 . S
C3423 C3422 1.414 . S
C3423 C3424 1.374 . S
C3424 H3398 0.950 . S
C3424 C3420 1.385 . S
C3424 C3423 1.374 . S
C3425 C3422 1.499 . S
C3425 C3426 1.373 . S
C3425 C3427 1.389 . S
C3426 H3399 0.950 . S
C3426 C3412 1.377 . S
C3426 C3425 1.373 . S
C3427 C3411 1.377 . S
C3427 C3425 1.389 . S
C3427 C3428 1.524 . S
C3428 C3427 1.524 . S
C3428 C3429 1.397 . S
C3428 C3433 1.363 . S
C3429 H3400 0.950 . S
C3429 C3428 1.397 . S
C3429 C3430 1.334 . S
C3430 H3401 0.950 . S
C3430 C3429 1.334 . S
C3430 C3431 1.287 . S
C3431 C3430 1.287 . S
C3431 C3432 1.524 . S
C3431 H3434 0.999 . S
C3432 H3402 0.950 . S
C3432 C3431 1.524 . S
C3432 C3433 1.415 . S
C3433 H3403 0.950 . S
C3433 C3428 1.363 . S
C3433 C3432 1.415 . S
H3434 C3431 0.999 . S
H3435 C3416 0.913 . S
H3436 C3454 0.951 . S
H3437 C3456 0.951 . S
H3438 C3458 0.950 . S
H3439 C3459 0.950 . S
H3440 C3461 0.950 . S
H3441 C3464 0.950 . S
H3442 C3465 0.950 . S
H3443 C3467 0.950 . S
H3444 C3468 0.950 . S
H3445 C3469 0.951 . S
H3446 C3471 0.951 . S
H3447 C3473 0.950 . S
H3448 C3474 0.950 . S
H3449 C3476 0.950 . S
H3450 C3479 0.950 . S
H3451 C3480 0.950 . S
H3452 C3482 0.950 . S
H3453 C3483 0.950 . S
C3454 H3436 0.951 . S
C3454 C3455 1.366 . S
C3454 C3456 1.388 . S
C3455 C3454 1.366 . S
C3455 C3459 1.385 . S
C3456 H3437 0.951 . S
C3456 C3454 1.388 . S
C3456 C3457 1.366 . S
C3457 C3456 1.366 . S
C3457 C3458 1.414 . S
C3457 C3460 1.499 . S
C3458 H3438 0.950 . S
C3458 C3457 1.414 . S
C3458 C3459 1.374 . S
C3459 H3439 0.950 . S
C3459 C3455 1.385 . S
C3459 C3458 1.374 . S
C3460 C3457 1.499 . S
C3460 C3461 1.373 . S
C3460 C3462 1.389 . S
C3461 H3440 0.950 . S
C3461 C3460 1.373 . S
C3461 C3477 1.377 . S
C3462 C3460 1.389 . S
C3462 C3463 1.524 . S
C3462 C3476 1.377 . S
C3463 C3462 1.524 . S
C3463 C3464 1.397 . S
C3463 C3468 1.363 . S
C3464 H3441 0.950 . S
C3464 C3463 1.397 . S
C3464 C3465 1.334 . S
C3465 H3442 0.950 . S
C3465 C3464 1.334 . S
C3465 C3466 1.287 . S
C3466 C3465 1.287 . S
C3466 C3467 1.524 . S
C3466 H3485 0.913 . S
C3467 H3443 0.950 . S
C3467 C3466 1.524 . S
C3467 C3468 1.415 . S
C3468 H3444 0.950 . S
C3468 C3463 1.363 . S
C3468 C3467 1.415 . S
C3469 H3445 0.951 . S
C3469 C3470 1.366 . S
C3469 C3471 1.388 . S
C3470 C3469 1.366 . S
C3470 C3474 1.385 . S
C3471 H3446 0.951 . S
C3471 C3469 1.388 . S
C3471 C3472 1.366 . S
C3472 C3471 1.366 . S
C3472 C3473 1.414 . S
C3472 C3475 1.499 . S
C3473 H3447 0.950 . S
C3473 C3472 1.414 . S
C3473 C3474 1.374 . S
C3474 H3448 0.950 . S
C3474 C3470 1.385 . S
C3474 C3473 1.374 . S
C3475 C3472 1.499 . S
C3475 C3476 1.373 . S
C3475 C3477 1.389 . S
C3476 H3449 0.950 . S
C3476 C3462 1.377 . S
C3476 C3475 1.373 . S
C3477 C3461 1.377 . S
C3477 C3475 1.389 . S
C3477 C3478 1.524 . S
C3478 C3477 1.524 . S
C3478 C3479 1.397 . S
C3478 C3483 1.363 . S
C3479 H3450 0.950 . S
C3479 C3478 1.397 . S
C3479 C3480 1.334 . S
C3480 H3451 0.950 . S
C3480 C3479 1.334 . S
C3480 C3481 1.287 . S
C3481 C3480 1.287 . S
C3481 C3482 1.524 . S
C3481 H3484 0.999 . S
C3482 H3452 0.950 . S
C3482 C3481 1.524 . S
C3482 C3483 1.415 . S
C3483 H3453 0.950 . S
C3483 C3478 1.363 . S
C3483 C3482 1.415 . S
H3484 C3481 0.999 . S
H3485 C3466 0.913 . S
H3486 C3504 0.951 . S
H3487 C3506 0.951 . S
H3488 C3508 0.950 . S
H3489 C3509 0.950 . S
H3490 C3511 0.950 . S
H3491 C3514 0.950 . S
H3492 C3515 0.950 . S
H3493 C3517 0.950 . S
H3494 C3518 0.950 . S
H3495 C3519 0.951 . S
H3496 C3521 0.951 . S
H3497 C3523 0.950 . S
H3498 C3524 0.950 . S
H3499 C3526 0.950 . S
H3500 C3529 0.950 . S
H3501 C3530 0.950 . S
H3502 C3532 0.950 . S
H3503 C3533 0.950 . S
C3504 H3486 0.951 . S
C3504 C3505 1.366 . S
C3504 C3506 1.388 . S
C3505 C3504 1.366 . S
C3505 C3509 1.385 . S
C3506 H3487 0.951 . S
C3506 C3504 1.388 . S
C3506 C3507 1.366 . S
C3507 C3506 1.366 . S
C3507 C3508 1.414 . S
C3507 C3510 1.499 . S
C3508 H3488 0.950 . S
C3508 C3507 1.414 . S
C3508 C3509 1.374 . S
C3509 H3489 0.950 . S
C3509 C3505 1.385 . S
C3509 C3508 1.374 . S
C3510 C3507 1.499 . S
C3510 C3511 1.373 . S
C3510 C3512 1.389 . S
C3511 H3490 0.950 . S
C3511 C3510 1.373 . S
C3511 C3527 1.377 . S
C3512 C3510 1.389 . S
C3512 C3513 1.524 . S
C3512 C3526 1.377 . S
C3513 C3512 1.524 . S
C3513 C3514 1.397 . S
C3513 C3518 1.363 . S
C3514 H3491 0.950 . S
C3514 C3513 1.397 . S
C3514 C3515 1.334 . S
C3515 H3492 0.950 . S
C3515 C3514 1.334 . S
C3515 C3516 1.287 . S
C3516 C3515 1.287 . S
C3516 C3517 1.524 . S
C3516 H3535 0.913 . S
C3517 H3493 0.950 . S
C3517 C3516 1.524 . S
C3517 C3518 1.415 . S
C3518 H3494 0.950 . S
C3518 C3513 1.363 . S
C3518 C3517 1.415 . S
C3519 H3495 0.951 . S
C3519 C3520 1.366 . S
C3519 C3521 1.388 . S
C3520 C3519 1.366 . S
C3520 C3524 1.385 . S
C3521 H3496 0.951 . S
C3521 C3519 1.388 . S
C3521 C3522 1.366 . S
C3522 C3521 1.366 . S
C3522 C3523 1.414 . S
C3522 C3525 1.499 . S
C3523 H3497 0.950 . S
C3523 C3522 1.414 . S
C3523 C3524 1.374 . S
C3524 H3498 0.950 . S
C3524 C3520 1.385 . S
C3524 C3523 1.374 . S
C3525 C3522 1.499 . S
C3525 C3526 1.373 . S
C3525 C3527 1.389 . S
C3526 H3499 0.950 . S
C3526 C3512 1.377 . S
C3526 C3525 1.373 . S
C3527 C3511 1.377 . S
C3527 C3525 1.389 . S
C3527 C3528 1.524 . S
C3528 C3527 1.524 . S
C3528 C3529 1.397 . S
C3528 C3533 1.363 . S
C3529 H3500 0.950 . S
C3529 C3528 1.397 . S
C3529 C3530 1.334 . S
C3530 H3501 0.950 . S
C3530 C3529 1.334 . S
C3530 C3531 1.287 . S
C3531 C3530 1.287 . S
C3531 C3532 1.524 . S
C3531 H3534 0.999 . S
C3532 H3502 0.950 . S
C3532 C3531 1.524 . S
C3532 C3533 1.415 . S
C3533 H3503 0.950 . S
C3533 C3528 1.363 . S
C3533 C3532 1.415 . S
H3534 C3531 0.999 . S
H3535 C3516 0.913 . S
H3536 C3554 0.951 . S
H3537 C3556 0.951 . S
H3538 C3558 0.950 . S
H3539 C3559 0.950 . S
H3540 C3561 0.950 . S
H3541 C3564 0.950 . S
H3542 C3565 0.950 . S
H3543 C3567 0.950 . S
H3544 C3568 0.950 . S
H3545 C3569 0.951 . S
H3546 C3571 0.951 . S
H3547 C3573 0.950 . S
H3548 C3574 0.950 . S
H3549 C3576 0.950 . S
H3550 C3579 0.950 . S
H3551 C3580 0.950 . S
H3552 C3582 0.950 . S
H3553 C3583 0.950 . S
C3554 H3536 0.951 . S
C3554 C3555 1.366 . S
C3554 C3556 1.388 . S
C3555 C3554 1.366 . S
C3555 C3559 1.385 . S
C3556 H3537 0.951 . S
C3556 C3554 1.388 . S
C3556 C3557 1.366 . S
C3557 C3556 1.366 . S
C3557 C3558 1.414 . S
C3557 C3560 1.499 . S
C3558 H3538 0.950 . S
C3558 C3557 1.414 . S
C3558 C3559 1.374 . S
C3559 H3539 0.950 . S
C3559 C3555 1.385 . S
C3559 C3558 1.374 . S
C3560 C3557 1.499 . S
C3560 C3561 1.373 . S
C3560 C3562 1.389 . S
C3561 H3540 0.950 . S
C3561 C3560 1.373 . S
C3561 C3577 1.377 . S
C3562 C3560 1.389 . S
C3562 C3563 1.524 . S
C3562 C3576 1.377 . S
C3563 C3562 1.524 . S
C3563 C3564 1.397 . S
C3563 C3568 1.363 . S
C3564 H3541 0.950 . S
C3564 C3563 1.397 . S
C3564 C3565 1.334 . S
C3565 H3542 0.950 . S
C3565 C3564 1.334 . S
C3565 C3566 1.287 . S
C3566 C3565 1.287 . S
C3566 C3567 1.524 . S
C3566 H3585 0.913 . S
C3567 H3543 0.950 . S
C3567 C3566 1.524 . S
C3567 C3568 1.415 . S
C3568 H3544 0.950 . S
C3568 C3563 1.363 . S
C3568 C3567 1.415 . S
C3569 H3545 0.951 . S
C3569 C3570 1.366 . S
C3569 C3571 1.388 . S
C3570 C3569 1.366 . S
C3570 C3574 1.385 . S
C3571 H3546 0.951 . S
C3571 C3569 1.388 . S
C3571 C3572 1.366 . S
C3572 C3571 1.366 . S
C3572 C3573 1.414 . S
C3572 C3575 1.499 . S
C3573 H3547 0.950 . S
C3573 C3572 1.414 . S
C3573 C3574 1.374 . S
C3574 H3548 0.950 . S
C3574 C3570 1.385 . S
C3574 C3573 1.374 . S
C3575 C3572 1.499 . S
C3575 C3576 1.373 . S
C3575 C3577 1.389 . S
C3576 H3549 0.950 . S
C3576 C3562 1.377 . S
C3576 C3575 1.373 . S
C3577 C3561 1.377 . S
C3577 C3575 1.389 . S
C3577 C3578 1.524 . S
C3578 C3577 1.524 . S
C3578 C3579 1.397 . S
C3578 C3583 1.363 . S
C3579 H3550 0.950 . S
C3579 C3578 1.397 . S
C3579 C3580 1.334 . S
C3580 H3551 0.950 . S
C3580 C3579 1.334 . S
C3580 C3581 1.287 . S
C3581 C3580 1.287 . S
C3581 C3582 1.524 . S
C3581 H3584 0.999 . S
C3582 H3552 0.950 . S
C3582 C3581 1.524 . S
C3582 C3583 1.415 . S
C3583 H3553 0.950 . S
C3583 C3578 1.363 . S
C3583 C3582 1.415 . S
H3584 C3581 0.999 . S
H3585 C3566 0.913 . S
H3586 C3604 0.951 . S
H3587 C3606 0.951 . S
H3588 C3608 0.950 . S
H3589 C3609 0.950 . S
H3590 C3611 0.950 . S
H3591 C3614 0.950 . S
H3592 C3615 0.950 . S
H3593 C3617 0.950 . S
H3594 C3618 0.950 . S
H3595 C3619 0.951 . S
H3596 C3621 0.951 . S
H3597 C3623 0.950 . S
H3598 C3624 0.950 . S
H3599 C3626 0.950 . S
H3600 C3629 0.950 . S
H3601 C3630 0.950 . S
H3602 C3632 0.950 . S
H3603 C3633 0.950 . S
C3604 H3586 0.951 . S
C3604 C3605 1.366 . S
C3604 C3606 1.388 . S
C3605 C3604 1.366 . S
C3605 C3609 1.385 . S
C3606 H3587 0.951 . S
C3606 C3604 1.388 . S
C3606 C3607 1.366 . S
C3607 C3606 1.366 . S
C3607 C3608 1.414 . S
C3607 C3610 1.499 . S
C3608 H3588 0.950 . S
C3608 C3607 1.414 . S
C3608 C3609 1.374 . S
C3609 H3589 0.950 . S
C3609 C3605 1.385 . S
C3609 C3608 1.374 . S
C3610 C3607 1.499 . S
C3610 C3611 1.373 . S
C3610 C3612 1.389 . S
C3611 H3590 0.950 . S
C3611 C3610 1.373 . S
C3611 C3627 1.377 . S
C3612 C3610 1.389 . S
C3612 C3613 1.524 . S
C3612 C3626 1.377 . S
C3613 C3612 1.524 . S
C3613 C3614 1.397 . S
C3613 C3618 1.363 . S
C3614 H3591 0.950 . S
C3614 C3613 1.397 . S
C3614 C3615 1.334 . S
C3615 H3592 0.950 . S
C3615 C3614 1.334 . S
C3615 C3616 1.287 . S
C3616 C3615 1.287 . S
C3616 C3617 1.524 . S
C3616 H3635 0.913 . S
C3617 H3593 0.950 . S
C3617 C3616 1.524 . S
C3617 C3618 1.415 . S
C3618 H3594 0.950 . S
C3618 C3613 1.363 . S
C3618 C3617 1.415 . S
C3619 H3595 0.951 . S
C3619 C3620 1.366 . S
C3619 C3621 1.388 . S
C3620 C3619 1.366 . S
C3620 C3624 1.385 . S
C3621 H3596 0.951 . S
C3621 C3619 1.388 . S
C3621 C3622 1.366 . S
C3622 C3621 1.366 . S
C3622 C3623 1.414 . S
C3622 C3625 1.499 . S
C3623 H3597 0.950 . S
C3623 C3622 1.414 . S
C3623 C3624 1.374 . S
C3624 H3598 0.950 . S
C3624 C3620 1.385 . S
C3624 C3623 1.374 . S
C3625 C3622 1.499 . S
C3625 C3626 1.373 . S
C3625 C3627 1.389 . S
C3626 H3599 0.950 . S
C3626 C3612 1.377 . S
C3626 C3625 1.373 . S
C3627 C3611 1.377 . S
C3627 C3625 1.389 . S
C3627 C3628 1.524 . S
C3628 C3627 1.524 . S
C3628 C3629 1.397 . S
C3628 C3633 1.363 . S
C3629 H3600 0.950 . S
C3629 C3628 1.397 . S
C3629 C3630 1.334 . S
C3630 H3601 0.950 . S
C3630 C3629 1.334 . S
C3630 C3631 1.287 . S
C3631 C3630 1.287 . S
C3631 C3632 1.524 . S
C3631 H3634 0.999 . S
C3632 H3602 0.950 . S
C3632 C3631 1.524 . S
C3632 C3633 1.415 . S
C3633 H3603 0.950 . S
C3633 C3628 1.363 . S
C3633 C3632 1.415 . S
H3634 C3631 0.999 . S
H3635 C3616 0.913 . S
C955 C439 1.501 . S
C970 C585 1.563 . S
C1005 C465 1.832 . S
C1020 C625 1.806 . S
C1055 C401 1.695 . S
C1070 C664 1.653 . S
C1105 C369 1.524 . S
C1120 C624 1.484 . S
C1170 C665 1.462 . S
C1155 C305 1.475 . S
C1205 C343 1.211 . S
C1220 C584 1.284 1_556 S
C1270 C595 1.601 . S
C1255 C375 1.639 . S
C1320 C635 1.765 . S
C1305 C311 1.789 . S
C1355 C337 1.587 . S
C1370 C674 1.672 . S
C1405 C433 1.441 . S
C1420 C634 1.484 . S
C1455 C471 1.435 . S
C1470 C675 1.419 . S
C1520 C594 1.328 . S
C1505 C407 1.349 . S
C1570 C705 1.563 . S
C1555 C55 1.500 . S
C1605 C81 1.831 . S
C1620 C745 1.807 . S
C1655 C17 1.696 . S
C1670 C784 1.654 . S
C1705 C561 1.524 . S
C1720 C744 1.485 . S
C1755 C497 1.476 . S
C1770 C785 1.462 . S
C1805 C535 1.210 . S
C1820 C704 1.285 . S
C1855 C567 1.639 . S
C1870 C715 1.601 . S
C1905 C503 1.789 . S
C1920 C755 1.765 . S
C1970 C794 1.655 . S
C1955 C529 1.587 . S
C2005 C49 1.440 . S
C2020 C754 1.483 . S
C2070 C795 1.419 . S
C2055 C87 1.434 . S
C2105 C23 1.349 . S
C2120 C714 1.328 . S
C2170 C825 1.563 . S
C2155 C247 1.501 . S
C2205 C273 1.831 . S
C2220 C865 1.807 . S
C2270 C904 1.654 . S
C2255 C209 1.696 . S
C2320 C864 1.484 . S
C2305 C177 1.523 . S
C2370 C905 1.462 . S
C2355 C113 1.475 . S
C2405 C151 1.211 . S
C2420 C824 1.285 . S
C2455 C183 1.639 . S
C2470 C835 1.601 . S
C2505 C119 1.789 . S
C2520 C875 1.764 . S
C2570 C914 1.655 . S
C2555 C145 1.587 . S
C2605 C241 1.441 . S
C2620 C874 1.484 . S
C2655 C279 1.435 . S
C2670 C915 1.419 . S
C2705 C215 1.349 . S
C2720 C834 1.328 . S
C2755 C509 1.287 . S
C2770 C581 1.302 . S
C2820 C621 1.840 . S
C2805 C541 1.737 . S
C2855 C573 1.558 . S
C2870 C671 1.566 . S
C2905 C221 1.869 . S
C2920 C631 1.868 . S
C2955 C253 1.464 . S
C2970 C661 1.534 . S
C3020 C591 1.295 . S
C3005 C285 1.281 . S
C3055 C125 1.287 . S
C3070 C701 1.302 . S
C3105 C157 1.737 . S
C3120 C741 1.840 . S
C3155 C189 1.558 . S
C3170 C791 1.566 . S
C3205 C413 1.869 . S
C3220 C751 1.868 . S
C3270 C781 1.535 . S
C3255 C445 1.464 . S
C3305 C477 1.281 . S
C3320 C711 1.295 . S
C3355 C317 1.287 . S
C3370 C821 1.302 . S
C3405 C349 1.737 . S
C3420 C861 1.840 . S
C3470 C911 1.566 . S
C3455 C381 1.558 . S
C3505 C29 1.869 . S
C3520 C871 1.868 . S
C3555 C61 1.463 . S
C3570 C901 1.535 . S
C3605 C93 1.281 . S
C3620 C831 1.295 . S
