# Generated by pormake.
# Topology anh, (6,3)-cn, num edge types: 1
# Building blocks:
#     Node 0, Type 0, BuildingBlock: PAMTUU_clean_sbu_0, # of connection points: 6
#     Node 1, Type 0, BuildingBlock: PAMTUU_clean_sbu_0, # of connection points: 6
#     Node 2, Type 0, BuildingBlock: PAMTUU_clean_sbu_0, # of connection points: 6
#     Node 3, Type 1, BuildingBlock: PAMTOO_clean_linker_0, # of connection points: 3
#     Node 4, Type 1, BuildingBlock: PAMTOO_clean_linker_0, # of connection points: 3
#     Node 5, Type 1, BuildingBlock: PAMTOO_clean_linker_0, # of connection points: 3
#     Node 6, Type 1, BuildingBlock: PAMTOO_clean_linker_0, # of connection points: 3
#     Node 7, Type 1, BuildingBlock: PAMTOO_clean_linker_0, # of connection points: 3
#     Node 8, Type 1, BuildingBlock: PAMTOO_clean_linker_0, # of connection points: 3
#     Edge 9, Type (0, 1), BuildingBlock: UVAHIK_clean_linker_0, # of connection points: 2
#     Edge 10, Type (0, 1), BuildingBlock: UVAHIK_clean_linker_0, # of connection points: 2
#     Edge 11, Type (0, 1), BuildingBlock: UVAHIK_clean_linker_0, # of connection points: 2
#     Edge 12, Type (0, 1), BuildingBlock: UVAHIK_clean_linker_0, # of connection points: 2
#     Edge 13, Type (0, 1), BuildingBlock: UVAHIK_clean_linker_0, # of connection points: 2
#     Edge 14, Type (0, 1), BuildingBlock: UVAHIK_clean_linker_0, # of connection points: 2
#     Edge 15, Type (0, 1), BuildingBlock: UVAHIK_clean_linker_0, # of connection points: 2
#     Edge 16, Type (0, 1), BuildingBlock: UVAHIK_clean_linker_0, # of connection points: 2
#     Edge 17, Type (0, 1), BuildingBlock: UVAHIK_clean_linker_0, # of connection points: 2
#     Edge 18, Type (0, 1), BuildingBlock: UVAHIK_clean_linker_0, # of connection points: 2
#     Edge 19, Type (0, 1), BuildingBlock: UVAHIK_clean_linker_0, # of connection points: 2
#     Edge 20, Type (0, 1), BuildingBlock: UVAHIK_clean_linker_0, # of connection points: 2
#     Edge 21, Type (0, 1), BuildingBlock: UVAHIK_clean_linker_0, # of connection points: 2
#     Edge 22, Type (0, 1), BuildingBlock: UVAHIK_clean_linker_0, # of connection points: 2
#     Edge 23, Type (0, 1), BuildingBlock: UVAHIK_clean_linker_0, # of connection points: 2
#     Edge 24, Type (0, 1), BuildingBlock: UVAHIK_clean_linker_0, # of connection points: 2
#     Edge 25, Type (0, 1), BuildingBlock: UVAHIK_clean_linker_0, # of connection points: 2
#     Edge 26, Type (0, 1), BuildingBlock: UVAHIK_clean_linker_0, # of connection points: 2
# Relax obj value: 0.200
# Max RMSD: 0.150
# Mean RMSD: 0.124
data_MOF--net-anh--node1-PAMTUU_clean_sbu_0--node2-PAMTOO_clean_linker_0--edge1-UVAHIK_clean_linker_0
_symmetry_space_group_name_H-M    P1
_symmetry_Int_Tables_number       1
_symmetry_cell_setting            triclinic
loop_
_symmetry_equiv_pos_as_xyz
'x, y, z'
_cell_length_a     38.526684
_cell_length_b     38.639003
_cell_length_c     65.44149
_cell_angle_alpha  89.720167
_cell_angle_beta   92.0897
_cell_angle_gamma 120.39154
loop_
_atom_site_label
_atom_site_type_symbol
_atom_site_fract_x
_atom_site_fract_y
_atom_site_fract_z
_atom_type_partial_charge
Tb0 Tb 0.16131 0.6611 0.14449 0.0
Tb1 Tb 0.2076 0.61424 0.16095 0.0
C2 C 0.19398 0.62261 0.11364 0.0
C3 C 1.086 0.69149 0.1421 0.0
C4 C 1.01037 0.67166 0.15674 0.0
C5 C 1.02058 0.68542 0.13665 0.0
C6 C 1.0581 0.69521 0.1294 0.0
C7 C 1.07682 0.6798 0.16247 0.0
C8 C 1.03942 0.67019 0.16976 0.0
C9 C 0.12173 0.69403 0.13336 0.0
O10 O 0.11584 0.6036 0.1567 0.0
O11 O 0.14722 0.56826 0.15032 0.0
O12 O 0.18388 0.62526 0.18828 0.0
O13 O 0.16924 0.6731 0.17706 0.0
O14 O 0.20707 0.56983 0.17965 0.0
O15 O 0.25856 0.60768 0.16179 0.0
O16 O 0.24873 0.67823 0.16655 0.0
O17 O 0.2257 0.70215 0.14059 0.0
O18 O 0.16657 0.63199 0.11753 0.0
O19 O 0.21712 0.62008 0.12812 0.0
C20 C 0.11437 0.56914 0.15406 0.0
O21 O 0.15492 0.71201 0.14463 0.0
O22 O 0.11575 0.66038 0.12561 0.0
C23 C 0.17391 0.6525 0.19175 0.0
C24 C 0.24404 0.54161 0.16777 0.0
C25 C 0.24861 0.47365 0.15697 0.0
C26 C 0.22397 0.48416 0.14533 0.0
C27 C 0.22165 0.51792 0.15071 0.0
C28 C 0.2683 0.53111 0.17948 0.0
C29 C 0.27063 0.49746 0.17414 0.0
C30 C 0.242 0.57694 0.17383 0.0
C31 C 0.25429 0.70712 0.15399 0.0
H32 H 0.99875 0.68631 0.12609 0.0
H33 H 1.0645 0.70367 0.11357 0.0
H34 H 1.09784 0.67631 0.17247 0.0
H35 H 1.0327 0.66015 0.18536 0.0
H36 H 0.20651 0.46631 0.13208 0.0
H37 H 0.20253 0.52561 0.14159 0.0
H38 H 0.28571 0.54913 0.1927 0.0
H39 H 0.29052 0.49072 0.18319 0.0
Tb40 Tb 0.62505 1.03397 0.47415 0.0
Tb41 Tb 0.72002 0.08017 0.48877 0.0
C42 C 0.69175 1.06908 0.44304 0.0
C43 C 0.5174 1.00411 0.46502 0.0
C44 C 0.44811 1.00937 0.47063 0.0
C45 C 0.45106 0.98979 0.45326 0.0
C46 C 0.48539 0.9872 0.45051 0.0
C47 C 0.51532 1.02478 0.4821 0.0
C48 C 0.48079 1.02723 0.48493 0.0
C49 C 0.552 0.99872 0.46232 0.0
O50 O 0.63674 0.98622 0.48386 0.0
O51 O 0.70549 1.01896 0.4816 0.0
O52 O 0.68432 1.04954 0.51514 0.0
O53 O 0.62856 1.05272 0.50548 0.0
O54 O 0.77949 0.09585 0.48312 0.0
O55 O 0.76489 0.11337 0.51135 0.0
O56 O 0.70427 0.1269 0.49116 0.0
O57 O 0.64267 0.09767 0.47367 0.0
O58 O 0.65995 1.03601 0.44857 0.0
O59 O 0.71614 0.09541 0.45691 0.0
C60 C 0.67063 0.98568 0.48332 0.0
O61 O 0.58106 1.02604 0.45174 0.0
O62 O 0.56548 0.98892 0.47859 0.0
C63 C 0.65103 1.04886 0.5197 0.0
C64 C 0.82517 0.16086 0.4967 0.0
C65 C 0.87653 0.24397 0.49177 0.0
C66 C 0.86791 0.22766 0.51143 0.0
C67 C 0.84262 0.18641 0.51386 0.0
C68 C 0.83523 0.17697 0.47704 0.0
C69 C 0.86079 0.2181 0.47463 0.0
C70 C 0.79363 0.11866 0.49951 0.0
C71 C 0.67372 0.12896 0.48284 0.0
H72 H 0.42618 0.97507 0.44215 0.0
H73 H 0.48657 0.97117 0.43726 0.0
H74 H 0.54003 1.03831 0.49339 0.0
H75 H 0.47945 1.04266 0.49839 0.0
H76 H 0.87994 0.24694 0.52489 0.0
H77 H 0.83538 0.17466 0.52916 0.0
H78 H 0.82215 0.15815 0.46348 0.0
H79 H 0.86658 0.2299 0.45929 0.0
Tb80 Tb 0.70697 0.55145 0.81568 0.0
Tb81 Tb 0.75671 0.64882 0.81958 0.0
C82 C 0.73174 0.60482 0.77736 0.0
C83 C 0.66169 0.44089 0.82554 0.0
C84 C 0.63649 0.36583 0.84342 0.0
C85 C 0.65938 0.37687 0.82583 0.0
C86 C 0.67164 0.41404 0.81687 0.0
C87 C 0.64174 0.43108 0.84414 0.0
C88 C 0.62909 0.39379 0.85292 0.0
C89 C 0.66679 0.47575 0.81374 0.0
O90 O 0.77016 0.56809 0.81256 0.0
O91 O 0.80271 0.63267 0.82554 0.0
O92 O 0.7289 0.62418 0.84859 0.0
O93 O 0.73056 0.56621 0.84686 0.0
O94 O 0.77297 0.70492 0.80708 0.0
O95 O 0.7956 0.7005 0.83707 0.0
O96 O 0.69428 0.63396 0.81409 0.0
O97 O 0.66222 0.56794 0.82337 0.0
O98 O 0.70185 0.5744 0.78618 0.0
O99 O 0.76217 0.63295 0.7883 0.0
C100 C 0.80309 0.60034 0.81967 0.0
O101 O 0.65474 0.49802 0.8222 0.0
O102 O 0.70025 0.49716 0.80433 0.0
C103 C 0.72861 0.59361 0.85756 0.0
C104 C 0.77286 0.7463 0.83278 0.0
C105 C 0.72578 0.78065 0.84156 0.0
C106 C 0.7181 0.74471 0.8508 0.0
C107 C 0.74132 0.72758 0.84637 0.0
C108 C 0.78256 0.78364 0.82474 0.0
C109 C 0.75925 0.80082 0.82915 0.0
C110 C 0.79023 0.72357 0.82431 0.0
C111 C 0.66155 0.60099 0.81926 0.0
H112 H 0.66504 0.35559 0.81809 0.0
H113 H 0.68677 0.42076 0.80252 0.0
H114 H 0.63371 0.45112 0.85131 0.0
H115 H 0.61152 0.38588 0.86651 0.0
H116 H 0.69275 0.72869 0.86054 0.0
H117 H 0.73299 0.69848 0.8526 0.0
H118 H 0.80645 0.79822 0.81403 0.0
H119 H 0.76561 0.82832 0.82162 0.0
H120 H 0.77099 0.20802 0.22906 0.0
H121 H 0.66498 0.09217 0.21828 0.0
H122 H 0.71831 0.17111 0.1681 0.0
H123 H 0.62356 0.11264 0.16031 0.0
C124 C 0.622 0.09759 0.17504 0.0
O125 O 0.65879 0.10017 0.17927 0.0
H126 H 0.61567 0.11403 0.18692 0.0
C127 C 0.74797 0.18602 0.21866 0.0
C128 C 0.749 0.19463 0.19763 0.0
C129 C 0.71783 0.14942 0.22648 0.0
C130 C 0.68809 0.12093 0.21284 0.0
C131 C 0.68797 0.12872 0.19194 0.0
C132 C 0.71858 0.16541 0.1843 0.0
H133 H 0.68326 0.64256 0.55526 0.0
H134 H 0.70039 0.54083 0.55072 0.0
H135 H 0.67848 0.59087 0.49642 0.0
H136 H 0.63964 0.49697 0.49306 0.0
C137 C 0.65535 0.495 0.50722 0.0
O138 O 0.68926 0.53232 0.51132 0.0
H139 H 0.63375 0.48662 0.51973 0.0
C140 C 0.68535 0.62035 0.54619 0.0
C141 C 0.68065 0.62078 0.52481 0.0
C142 C 0.69299 0.59212 0.55591 0.0
C143 C 0.69424 0.56276 0.54377 0.0
C144 C 0.68823 0.56154 0.52245 0.0
C145 C 0.68226 0.59118 0.51291 0.0
H146 H 0.15818 0.60642 0.89397 0.0
H147 H 0.2687 0.6043 0.89107 0.0
H148 H 0.20684 0.60733 0.83569 0.0
H149 H 0.25531 0.56169 0.832 0.0
C150 C 0.27516 0.57584 0.84584 0.0
O151 O 0.27251 0.60897 0.85149 0.0
H152 H 0.26397 0.55317 0.85816 0.0
C153 C 0.18111 0.60573 0.88517 0.0
C154 C 0.17808 0.60653 0.86372 0.0
C155 C 0.21317 0.60429 0.89536 0.0
C156 C 0.24351 0.60507 0.88365 0.0
C157 C 0.2415 0.60616 0.86221 0.0
C158 C 0.20833 0.60624 0.85222 0.0
H159 H 1.03656 0.62194 0.39732 0.0
H160 H 1.09678 0.751 0.40011 0.0
H161 H 1.03827 0.68241 0.45271 0.0
H162 H 1.03554 0.75911 0.45005 0.0
C163 C 1.06145 0.77538 0.43995 0.0
O164 O 1.08149 0.75445 0.43836 0.0
H165 H 1.04975 0.77842 0.42464 0.0
C166 C 1.04479 0.64946 0.40559 0.0
C167 C 1.03407 0.64756 0.426 0.0
C168 C 1.0676 0.68654 0.39603 0.0
C169 C 1.07834 0.722 0.40697 0.0
C170 C 1.06735 0.7203 0.42729 0.0
C171 C 1.0455 0.68324 0.4368 0.0
H172 H 0.52277 0.92616 0.7311 0.0
H173 H 0.47575 1.00557 0.72092 0.0
H174 H 0.4854 0.96815 0.78154 0.0
H175 H 0.41376 0.9647 0.77284 0.0
C176 C 0.42707 0.99678 0.76856 0.0
O177 O 0.46354 1.01101 0.75944 0.0
H178 H 0.40549 0.99899 0.75767 0.0
C179 C 0.50962 0.94314 0.73674 0.0
C180 C 0.50398 0.94364 0.75773 0.0
C181 C 0.50066 0.96627 0.72324 0.0
C182 C 0.48253 0.98711 0.73088 0.0
C183 C 0.47658 0.98734 0.75186 0.0
C184 C 0.48847 0.96662 0.76526 0.0
H185 H 0.66294 0.49756 0.07315 0.0
H186 H 0.53963 0.41994 0.05279 0.0
H187 H 0.57298 0.42811 0.11667 0.0
H188 H 0.51083 0.34449 0.09942 0.0
C189 C 0.49434 0.35474 0.08908 0.0
O190 O 0.51338 0.39604 0.08942 0.0
H191 H 0.49344 0.3437 0.07329 0.0
C192 C 0.63206 0.47577 0.07652 0.0
C193 C 0.62163 0.46496 0.09686 0.0
C194 C 0.60282 0.45959 0.06052 0.0
C195 C 0.56276 0.43208 0.06494 0.0
C196 C 0.55233 0.42022 0.08511 0.0
C197 C 0.58169 0.43645 0.10104 0.0
C198 C 0.2589 0.4341 0.13006 0.0
C199 C 0.25366 0.43964 0.15068 0.0
C200 C 0.27039 0.40656 0.12453 0.0
C201 C 0.28832 0.33986 0.11595 0.0
H202 H 0.38385 0.36301 0.14857 0.0
C203 C 0.44232 0.32726 0.11608 0.0
C204 C 0.45224 0.33917 0.09583 0.0
C205 C 0.40663 0.32221 0.12368 0.0
C206 C 0.35663 0.35494 0.13954 0.0
H207 H 0.25248 0.41787 0.18141 0.0
H208 H 0.27308 0.37012 0.17177 0.0
H209 H 0.33986 0.3856 0.16046 0.0
H210 H 0.43221 0.35314 0.06732 0.0
H211 H 0.37065 0.34565 0.08058 0.0
H212 H 0.30615 0.3105 0.0946 0.0
C213 C 0.26881 0.38748 0.15993 0.0
C214 C 0.33135 0.36809 0.14639 0.0
C215 C 0.25722 0.41493 0.16545 0.0
C216 C 0.42481 0.34343 0.08293 0.0
C217 C 0.38943 0.33893 0.09056 0.0
C218 C 0.31347 0.32632 0.10916 0.0
C219 C 0.27694 0.38408 0.13952 0.0
C220 C 0.29787 0.36216 0.13428 0.0
C221 C 0.38073 0.32995 0.11128 0.0
C222 C 0.34891 0.33526 0.12046 0.0
H223 H 0.25667 0.45282 0.11832 0.0
H224 H 0.27686 0.40497 0.10871 0.0
H225 H 0.26235 0.33436 0.10645 0.0
H226 H 0.46318 0.32404 0.12634 0.0
H227 H 0.4005 0.31449 0.13959 0.0
C228 C 0.88819 0.31233 0.49979 0.0
C229 C 0.8988 0.28795 0.48896 0.0
C230 C 0.90508 0.35291 0.49517 0.0
C231 C 0.95061 0.42065 0.45214 0.0
H232 H 0.97414 0.50416 0.49216 0.0
C233 C 0.98129 0.57494 0.42657 0.0
C234 C 1.01416 0.60835 0.43628 0.0
C235 C 0.96615 0.53677 0.43473 0.0
C236 C 0.96791 0.48121 0.48082 0.0
H237 H 0.93719 0.28728 0.46578 0.0
H238 H 0.96736 0.35836 0.45796 0.0
H239 H 0.9542 0.43654 0.50359 0.0
H240 H 1.05606 0.62846 0.46249 0.0
H241 H 1.02995 0.56161 0.47668 0.0
H242 H 0.96515 0.46521 0.4294 0.0
C243 C 0.94521 0.34595 0.46964 0.0
C244 C 0.95619 0.44242 0.48735 0.0
C245 C 0.92811 0.30533 0.47416 0.0
C246 C 1.03042 0.6032 0.45482 0.0
C247 C 1.01546 0.56492 0.46292 0.0
C248 C 0.96241 0.45933 0.44564 0.0
C249 C 0.93307 0.36995 0.4797 0.0
C250 C 0.94732 0.41168 0.47306 0.0
C251 C 0.98383 0.53115 0.45267 0.0
C252 C 0.97095 0.49002 0.45986 0.0
H253 H 0.86529 0.2996 0.5111 0.0
H254 H 0.89475 0.3704 0.50306 0.0
H255 H 0.9434 0.3976 0.44069 0.0
H256 H 0.96794 0.57824 0.41238 0.0
H257 H 0.9411 0.51151 0.42673 0.0
C258 C 0.65461 0.7652 0.83858 0.0
C259 C 0.69564 0.79362 0.84213 0.0
C260 C 0.62667 0.77755 0.83501 0.0
C261 C 0.60794 0.86176 0.83682 0.0
H262 H 0.5574 0.82227 0.78308 0.0
C263 C 0.54825 0.94442 0.78657 0.0
C264 C 0.51725 0.92258 0.77192 0.0
C265 C 0.56356 0.92511 0.79878 0.0
C266 C 0.57017 0.83294 0.79833 0.0
H267 H 0.73903 0.85695 0.84646 0.0
H268 H 0.68994 0.87865 0.84016 0.0
H269 H 0.59505 0.79453 0.79951 0.0
H270 H 0.4761 0.86362 0.75912 0.0
H271 H 0.50125 0.82923 0.78113 0.0
H272 H 0.5831 0.90031 0.83565 0.0
C273 C 0.67957 0.84683 0.84016 0.0
C274 C 0.59197 0.81706 0.80771 0.0
C275 C 0.70766 0.83448 0.84358 0.0
C276 C 0.50037 0.88096 0.77024 0.0
C277 C 0.51501 0.86145 0.78276 0.0
C278 C 0.58544 0.87723 0.82758 0.0
C279 C 0.63917 0.81853 0.83504 0.0
C280 C 0.61176 0.83191 0.82681 0.0
C281 C 0.5476 0.88343 0.7968 0.0
C282 C 0.56709 0.86369 0.80797 0.0
H283 H 0.64442 0.73352 0.83718 0.0
H284 H 0.59563 0.75518 0.83119 0.0
H285 H 0.62284 0.87352 0.85162 0.0
H286 H 0.56176 0.97668 0.78798 0.0
H287 H 0.58904 0.94324 0.80911 0.0
C288 C 0.94508 0.6715 0.15654 0.0
C289 C 0.9682 0.65446 0.16309 0.0
C290 C 0.90353 0.65101 0.15899 0.0
C291 C 0.82216 0.54706 0.16003 0.0
H292 H 0.75633 0.59652 0.16169 0.0
C293 C 0.65916 0.46262 0.12851 0.0
C294 C 0.65252 0.485 0.11353 0.0
C295 C 0.69207 0.48168 0.14246 0.0
C296 C 0.77425 0.58216 0.16139 0.0
H297 H 0.96618 0.60395 0.17889 0.0
H298 H 0.89398 0.56884 0.18364 0.0
H299 H 0.82726 0.63497 0.17291 0.0
H300 H 0.6726 0.54487 0.10242 0.0
H301 H 0.73003 0.57799 0.12643 0.0
H302 H 0.77003 0.49513 0.14744 0.0
C303 C 0.90786 0.59769 0.17625 0.0
C304 C 0.81485 0.60419 0.16778 0.0
C305 C 0.94938 0.61809 0.1737 0.0
C306 C 0.67749 0.52689 0.11364 0.0
C307 C 0.71007 0.5459 0.12759 0.0
C308 C 0.78165 0.52507 0.15369 0.0
C309 C 0.88423 0.61308 0.16813 0.0
C310 C 0.83967 0.58745 0.16628 0.0
C311 C 0.71853 0.52342 0.14174 0.0
C312 C 0.75774 0.543 0.1534 0.0
H313 H 0.95879 0.69982 0.14863 0.0
H314 H 0.8863 0.66372 0.15244 0.0
H315 H 0.84039 0.53326 0.15846 0.0
H316 H 0.64018 0.43027 0.12877 0.0
H317 H 0.69769 0.46362 0.15329 0.0
C318 C 0.38722 1.01178 0.45804 0.0
C319 C 0.40959 1.00782 0.47437 0.0
C320 C 0.34731 1.00156 0.46039 0.0
C321 C 0.26359 0.92932 0.48983 0.0
H322 H 0.20436 0.96432 0.4547 0.0
C323 C 1.09833 0.82109 0.4701 0.0
C324 C 1.09095 0.816 0.44885 0.0
C325 C 0.13227 0.85541 0.47824 0.0
C326 C 0.22044 0.9544 0.46478 0.0
H327 H 0.40901 0.99402 0.50656 0.0
H328 H 0.33953 0.97704 0.51082 0.0
H329 H 0.27686 1.00835 0.46082 0.0
H330 H 0.11191 0.84308 0.41949 0.0
H331 H 0.17124 0.90288 0.43357 0.0
H332 H 0.20799 0.87459 0.49287 0.0
C333 C 0.35258 0.98719 0.49604 0.0
C334 C 0.26194 0.97957 0.46826 0.0
C335 C 0.39253 0.99727 0.49365 0.0
C336 C 0.11662 0.84677 0.43595 0.0
C337 C 0.15052 0.88106 0.44406 0.0
C338 C 0.2222 0.9043 0.48641 0.0
C339 C 0.32892 0.98731 0.47918 0.0
C340 C 0.2843 0.96643 0.47999 0.0
C341 C 0.15964 0.88498 0.46524 0.0
C342 C 0.20051 0.91573 0.47304 0.0
H343 H 0.39985 1.02063 0.44309 0.0
H344 H 0.33011 1.00191 0.44702 0.0
H345 H 0.27972 0.9179 0.49878 0.0
H346 H 1.0792 0.79742 0.48031 0.0
H347 H 0.13832 0.8577 0.49463 0.0
C348 C 0.63379 0.30114 0.85193 0.0
C349 C 0.61428 0.32329 0.84938 0.0
C350 C 0.61129 0.25934 0.85344 0.0
C351 C 0.50383 0.17214 0.85244 0.0
H352 H 0.54943 0.12426 0.81864 0.0
C353 C 0.42933 1.05518 0.78676 0.0
C354 C 0.43477 1.02192 0.78747 0.0
C355 C 0.44578 0.08427 0.80236 0.0
C356 C 0.53655 0.13698 0.82847 0.0
H357 H 0.55636 0.31977 0.84748 0.0
H358 H 0.51727 0.24756 0.8489 0.0
H359 H 0.5923 0.19169 0.83212 0.0
H360 H 0.45924 0.99155 0.80556 0.0
H361 H 0.48992 1.04368 0.83233 0.0
H362 H 0.44693 0.11828 0.84646 0.0
C363 C 0.54968 0.26168 0.85061 0.0
C364 C 0.56119 0.17571 0.83639 0.0
C365 C 0.57215 0.30337 0.84965 0.0
C366 C 0.45473 1.01696 0.80465 0.0
C367 C 0.47205 1.04654 0.82 0.0
C368 C 0.47895 0.13377 0.84397 0.0
C369 C 0.56884 0.23884 0.85171 0.0
C370 C 0.54489 0.1946 0.84778 0.0
C371 C 0.46868 0.08093 0.8186 0.0
C372 C 0.49505 0.11657 0.83142 0.0
H373 H 0.66634 0.31601 0.85193 0.0
H374 H 0.62729 0.24308 0.85495 0.0
H375 H 0.4903 0.18494 0.86172 0.0
H376 H 0.41456 1.05993 0.77355 0.0
H377 H 0.44343 0.11097 0.80089 0.0
C378 C 0.70403 0.9437 0.48145 0.0
C379 C 0.66978 0.94653 0.48533 0.0
C380 C 0.70362 0.90729 0.48389 0.0
C381 C 0.65171 0.81076 0.51127 0.0
H382 H 0.70039 0.77471 0.47221 0.0
C383 C 0.64206 0.65711 0.5212 0.0
C384 C 0.67477 0.65311 0.51563 0.0
C385 C 0.63971 0.69108 0.51575 0.0
C386 C 0.68708 0.78437 0.48349 0.0
H387 H 0.60808 0.91249 0.4948 0.0
H388 H 0.60755 0.84938 0.49926 0.0
H389 H 0.70037 0.83719 0.46651 0.0
H390 H 0.73056 0.68168 0.49976 0.0
H391 H 0.72728 0.74149 0.49061 0.0
H392 H 0.63949 0.75908 0.52864 0.0
C393 C 0.63482 0.87542 0.49432 0.0
C394 C 0.68697 0.82036 0.48014 0.0
C395 C 0.63506 0.91168 0.49163 0.0
C396 C 0.7046 0.68353 0.50395 0.0
C397 C 0.70262 0.71795 0.49874 0.0
C398 C 0.65224 0.77512 0.51475 0.0
C399 C 0.66913 0.87264 0.49055 0.0
C400 C 0.66917 0.83408 0.49395 0.0
C401 C 0.67051 0.72278 0.50492 0.0
C402 C 0.66978 0.76104 0.5009 0.0
H403 H 0.73137 0.96974 0.47657 0.0
H404 H 0.73074 0.90656 0.48099 0.0
H405 H 0.63832 0.82055 0.52246 0.0
H406 H 0.61868 0.63426 0.53029 0.0
H407 H 0.61383 0.69261 0.52038 0.0
C408 C 0.84547 0.56787 0.81454 0.0
C409 C 0.8421 0.60042 0.82157 0.0
C410 C 0.8822 0.56825 0.81668 0.0
C411 C 0.99325 0.63812 0.82756 0.0
H412 H 0.9939 0.54023 0.83985 0.0
C413 C 0.13526 0.63844 0.8604 0.0
C414 C 0.14322 0.60846 0.85407 0.0
C415 C 1.0997 0.6376 0.85399 0.0
C416 C 0.99436 0.5678 0.83615 0.0
H417 H 0.87541 0.65884 0.83659 0.0
H418 H 0.93842 0.65916 0.84066 0.0
H419 H 0.92984 0.53803 0.83387 0.0
H420 H 0.12 0.55429 0.83571 0.0
H421 H 1.0575 0.5526 0.82446 0.0
H422 H 1.0577 0.668 0.83036 0.0
C423 C 0.91312 0.63357 0.83303 0.0
C424 C 0.95745 0.56656 0.83268 0.0
C425 C 0.87659 0.63326 0.83081 0.0
C426 C 0.11501 0.57807 0.84067 0.0
C427 C 1.07898 0.57688 0.83443 0.0
C428 C 1.03004 0.63938 0.83117 0.0
C429 C 0.91673 0.60116 0.82598 0.0
C430 C 0.9562 0.60182 0.82858 0.0
C431 C 1.07057 0.60643 0.84121 0.0
C432 C 1.03124 0.60435 0.83576 0.0
H433 H 0.81973 0.54202 0.80731 0.0
H434 H 0.88355 0.54284 0.81081 0.0
H435 H 0.99401 0.66585 0.82393 0.0
H436 H 0.15623 0.66212 0.87083 0.0
H437 H 1.09436 0.66066 0.85973 0.0
C438 C 0.32544 0.75035 0.16823 0.0
C439 C 0.29333 0.74621 0.15544 0.0
C440 C 0.36186 0.78705 0.17008 0.0
C441 C 0.42218 0.88694 0.1452 0.0
H442 H 0.47973 0.91716 0.19787 0.0
C443 C 0.57955 1.03149 0.15549 0.0
C444 C 0.58765 1.0542 0.17359 0.0
C445 C 0.54521 0.99303 0.15333 0.0
C446 C 0.46405 0.90953 0.18305 0.0
H447 H 0.27489 0.77807 0.13449 0.0
H448 H 0.33794 0.84217 0.13798 0.0
H449 H 0.41669 0.85373 0.19393 0.0
H450 H 0.56694 1.05354 0.20395 0.0
H451 H 0.50699 0.987 0.20023 0.0
H452 H 0.46889 0.94342 0.13452 0.0
C453 C 0.33532 0.81678 0.14636 0.0
C454 C 0.42791 0.87262 0.1807 0.0
C455 C 0.2989 0.77993 0.14443 0.0
C456 C 0.56149 1.03684 0.18979 0.0
C457 C 0.52711 0.99848 0.18764 0.0
C458 C 0.45828 0.92394 0.14757 0.0
C459 C 0.36742 0.82105 0.15931 0.0
C460 C 0.40627 0.86064 0.16174 0.0
C461 C 0.51797 0.97611 0.16925 0.0
C462 C 0.47985 0.93595 0.16656 0.0
H463 H 0.32258 0.72511 0.17687 0.0
H464 H 0.38585 0.78855 0.17989 0.0
H465 H 0.40694 0.87888 0.13028 0.0
H466 H 0.5993 1.04397 0.14279 0.0
H467 H 0.53995 0.97666 0.13909 0.0
C468 C 0.70815 0.20261 0.49279 0.0
C469 C 0.67413 0.16797 0.48443 0.0
C470 C 0.7084 0.23893 0.4949 0.0
C471 C 0.65479 0.2928 0.477 0.0
H472 H 0.71059 0.36159 0.52414 0.0
C473 C 0.67006 0.44994 0.4852 0.0
C474 C 0.66566 0.46198 0.50472 0.0
C475 C 0.67384 0.41588 0.4826 0.0
C476 C 0.69459 0.34276 0.51092 0.0
H477 H 0.61357 0.14514 0.47171 0.0
H478 H 0.61376 0.20805 0.47559 0.0
H479 H 0.71003 0.29869 0.52001 0.0
H480 H 0.66382 0.44868 0.53692 0.0
H481 H 0.67022 0.38933 0.53253 0.0
H482 H 0.63838 0.3363 0.4682 0.0
C483 C 0.64066 0.20739 0.48026 0.0
C484 C 0.69469 0.30666 0.50839 0.0
C485 C 0.64045 0.17103 0.47811 0.0
C486 C 0.66715 0.44021 0.52168 0.0
C487 C 0.6709 0.40611 0.51911 0.0
C488 C 0.65469 0.3289 0.47952 0.0
C489 C 0.6746 0.24201 0.48878 0.0
C490 C 0.67471 0.28092 0.4914 0.0
C491 C 0.67349 0.39281 0.49947 0.0
C492 C 0.67453 0.35456 0.49655 0.0
H493 H 0.73485 0.20178 0.49776 0.0
H494 H 0.73544 0.26479 0.50117 0.0
H495 H 0.63942 0.27435 0.46357 0.0
H496 H 0.66925 0.46617 0.47182 0.0
H497 H 0.67669 0.40745 0.46727 0.0
C498 C 0.58676 0.56555 0.82492 0.0
C499 C 0.62302 0.60131 0.82135 0.0
C500 C 0.55065 0.56557 0.82716 0.0
C501 C 0.50894 0.63177 0.83901 0.0
H502 H 0.41001 0.54288 0.81577 0.0
C503 C 0.34847 0.60263 0.85758 0.0
C504 C 0.31835 0.58689 0.84185 0.0
C505 C 0.3868 0.60762 0.85463 0.0
C506 C 0.43729 0.5682 0.82225 0.0
H507 H 0.64921 0.6655 0.81762 0.0
H508 H 0.58623 0.66547 0.82139 0.0
H509 H 0.4736 0.54526 0.81128 0.0
H510 H 0.30541 0.5648 0.81055 0.0
H511 H 0.37191 0.5739 0.80529 0.0
H512 H 0.47237 0.65475 0.84986 0.0
C513 C 0.5858 0.6373 0.82257 0.0
C514 C 0.47392 0.5693 0.81988 0.0
C515 C 0.62199 0.63725 0.82022 0.0
C516 C 0.3279 0.57721 0.82296 0.0
C517 C 0.36604 0.58206 0.82003 0.0
C518 C 0.47214 0.63052 0.8415 0.0
C519 C 0.54945 0.6014 0.826 0.0
C520 C 0.51041 0.601 0.82827 0.0
C521 C 0.39596 0.59665 0.83591 0.0
C522 C 0.43566 0.59868 0.83315 0.0
H523 H 0.58616 0.53727 0.82601 0.0
H524 H 0.52364 0.53737 0.8301 0.0
H525 H 0.53619 0.65658 0.84584 0.0
H526 H 0.3419 0.60985 0.87239 0.0
H527 H 0.40872 0.61864 0.86731 0.0
C528 C 1.03854 0.53018 0.15584 0.0
C529 C 1.07531 0.53066 0.15606 0.0
C530 C 1.00196 0.4942 0.15826 0.0
C531 C 0.95579 0.38143 0.15863 0.0
H532 H 0.87082 0.386 0.18607 0.0
C533 C 0.8013 0.23648 0.17167 0.0
C534 C 0.7824 0.23399 0.19009 0.0
C535 C 0.83505 0.27274 0.16585 0.0
C536 C 0.89422 0.38382 0.17857 0.0
H537 H 1.10208 0.49317 0.15912 0.0
H538 H 1.03899 0.43104 0.1641 0.0
H539 H 0.93328 0.44747 0.18008 0.0
H540 H 0.78348 0.26911 0.21614 0.0
H541 H 0.84246 0.33089 0.20664 0.0
H542 H 0.91742 0.3175 0.15815 0.0
C543 C 1.0379 0.45814 0.16143 0.0
C544 C 0.93017 0.41953 0.17477 0.0
C545 C 1.0744 0.49404 0.15871 0.0
C546 C 0.79749 0.26927 0.20207 0.0
C547 C 0.83128 0.30524 0.19639 0.0
C548 C 0.91998 0.34563 0.16267 0.0
C549 C 1.00093 0.45749 0.16133 0.0
C550 C 0.96181 0.41908 0.16482 0.0
C551 C 0.85106 0.30767 0.17828 0.0
C552 C 0.88861 0.34611 0.17288 0.0
H553 H 1.03792 0.55769 0.15369 0.0
H554 H 0.97445 0.49533 0.15759 0.0
H555 H 0.97876 0.37938 0.1506 0.0
H556 H 0.79082 0.21012 0.16201 0.0
H557 H 0.84867 0.27321 0.1516 0.0
C558 C 0.23612 0.62324 0.08495 0.0
C559 C 0.19874 0.6152 0.09199 0.0
C560 C 0.24081 0.61922 0.06408 0.0
C561 C 0.18553 0.56861 0.01646 0.0
H562 H 0.26677 0.66165 -0.01145 0.0
C563 C 0.17891 0.5802 0.92883 0.0
C564 C 0.21464 0.60216 0.9182 0.0
C565 C 0.17966 0.5796 0.95019 0.0
C566 C 0.24443 0.635 -0.00394 0.0
H567 H 0.13667 0.59518 0.08283 0.0
H568 H 0.14461 0.58702 0.04667 0.0
H569 H 0.2638 0.66346 0.02569 0.0
H570 H 0.27951 0.64005 0.92209 0.0
H571 H 0.28104 0.63738 0.95928 0.0
H572 H 0.16631 0.53971 -0.01288 0.0
C573 C 0.17037 0.59691 0.05719 0.0
C574 C 0.2427 0.63618 0.01738 0.0
C575 C 0.16591 0.60177 0.07789 0.0
C576 C 0.25135 0.62255 0.92964 0.0
C577 C 0.25216 0.6215 0.95107 0.0
C578 C 0.18765 0.56713 -0.00479 0.0
C579 C 0.20795 0.60611 0.05 0.0
C580 C 0.21271 0.6033 0.02774 0.0
C581 C 0.21626 0.60033 0.96169 0.0
C582 C 0.21653 0.60064 -0.0154 0.0
H583 H 0.26199 0.63382 0.09545 0.0
H584 H 0.27009 0.62639 0.05893 0.0
H585 H 0.16236 0.54266 0.0241 0.0
H586 H 0.15007 0.5634 0.92066 0.0
H587 H 0.15123 0.56343 0.95764 0.0
C588 C 0.66596 1.05521 0.40669 0.0
C589 C 0.698 0.07729 0.4209 0.0
C590 C 0.67051 1.06325 0.38584 0.0
C591 C 0.73599 0.14079 0.34886 0.0
H592 H 0.67492 1.05342 0.30987 0.0
C593 C 0.7536 0.1553 0.26062 0.0
C594 C 0.7174 0.14104 0.24887 0.0
C595 C 0.7531 0.14803 0.28163 0.0
C596 C 0.69203 0.07812 0.32059 0.0
H597 H 0.76025 0.12503 0.42426 0.0
H598 H 0.76887 0.13817 0.38764 0.0
H599 H 0.67223 1.03944 0.34627 0.0
H600 H 0.65221 0.10806 0.25044 0.0
H601 H 0.65157 0.09404 0.28682 0.0
H602 H 0.75656 0.17914 0.32282 0.0
C603 C 0.73975 0.1152 0.39269 0.0
C604 C 0.69037 0.07023 0.34152 0.0
C605 C 0.73496 0.10752 0.4137 0.0
C606 C 0.68073 0.1189 0.25876 0.0
C607 C 0.68028 0.11103 0.27967 0.0
C608 C 0.73819 0.14855 0.32785 0.0
C609 C 0.7075 0.0932 0.37844 0.0
C610 C 0.71175 0.10152 0.35602 0.0
C611 C 0.71644 0.12566 0.29133 0.0
C612 C 0.71575 0.11736 0.31355 0.0
H613 H 0.63684 1.03209 0.41169 0.0
H614 H 0.64456 1.04633 0.37558 0.0
H615 H 0.75248 0.16581 0.35945 0.0
H616 H 0.78247 0.17168 0.2536 0.0
H617 H 0.78142 0.15929 0.29022 0.0
C618 C 0.76556 0.62561 0.74365 0.0
C619 C 0.73028 0.60677 0.75475 0.0
C620 C 0.76338 0.62453 0.72218 0.0
C621 C 0.69082 0.56942 0.67813 0.0
H622 H 0.77184 0.65599 0.64673 0.0
C623 C 0.68693 0.55839 0.58993 0.0
C624 C 0.69986 0.59369 0.57867 0.0
C625 C 0.69283 0.56003 0.61124 0.0
C626 C 0.74855 0.63169 0.65518 0.0
H627 H 0.66508 0.5738 0.75214 0.0
H628 H 0.6611 0.57376 0.71508 0.0
H629 H 0.77688 0.66036 0.6838 0.0
H630 H 0.73046 0.65869 0.58138 0.0
H631 H 0.73812 0.66131 0.61829 0.0
H632 H 0.66111 0.54186 0.64964 0.0
C633 C 0.69063 0.58776 0.72266 0.0
C634 C 0.75187 0.6339 0.67659 0.0
C635 C 0.69286 0.58809 0.74401 0.0
C636 C 0.71916 0.63066 0.5894 0.0
C637 C 0.72435 0.63225 0.61071 0.0
C638 C 0.68709 0.56757 0.65677 0.0
C639 C 0.7258 0.60526 0.71134 0.0
C640 C 0.72295 0.60286 0.68843 0.0
C641 C 0.71121 0.59697 0.62202 0.0
C642 C 0.71584 0.59868 0.64491 0.0
H643 H 0.79483 0.64005 0.75154 0.0
H644 H 0.79122 0.63799 0.71415 0.0
H645 H 0.66833 0.54435 0.68652 0.0
H646 H 0.67161 0.52925 0.58239 0.0
H647 H 0.68294 0.53215 0.6192 0.0
C648 C 0.65964 1.03697 0.55688 0.0
C649 C 0.6371 1.04173 0.54091 0.0
C650 C 0.6453 1.02901 0.57671 0.0
C651 C 0.57229 1.03508 0.60979 0.0
H652 H 0.58257 0.95593 0.64191 0.0
C653 C 0.49111 0.97477 0.68559 0.0
C654 C 0.51437 0.97206 0.70189 0.0
C655 C 0.50558 0.98249 0.66578 0.0
C656 C 0.57973 0.97832 0.63318 0.0
H657 H 0.58186 1.042 0.53329 0.0
H658 H 0.55687 1.02767 0.56758 0.0
H659 H 0.61028 0.97235 0.60797 0.0
H660 H 0.57151 0.97619 0.71012 0.0
H661 H 0.59622 0.98896 0.67571 0.0
H662 H 0.54152 1.04084 0.63498 0.0
C663 C 0.58587 1.03069 0.56496 0.0
C664 C 0.59575 0.98785 0.61377 0.0
C665 C 0.60017 1.03869 0.54522 0.0
C666 C 0.55225 0.97698 0.69788 0.0
C667 C 0.56656 0.98448 0.67814 0.0
C668 C 0.55615 1.02544 0.62917 0.0
C669 C 0.60815 1.02565 0.58094 0.0
C670 C 0.59217 1.01631 0.60183 0.0
C671 C 0.54354 0.98756 0.66188 0.0
C672 C 0.5597 0.99697 0.64107 0.0
H673 H 0.68824 1.03922 0.55407 0.0
H674 H 0.66343 1.02575 0.58875 0.0
H675 H 0.56956 1.05761 0.60114 0.0
H676 H 0.46173 0.97088 0.68812 0.0
H677 H 0.48697 0.98431 0.6535 0.0
C678 C 0.7002 0.60282 0.88947 0.0
C679 C 0.72092 0.58693 0.87954 0.0
C680 C 0.68881 0.59249 0.90965 0.0
C681 C 0.71135 0.55622 0.95689 0.0
H682 H 0.59719 0.50544 0.96641 0.0
C683 C 0.64646 0.47138 0.031 0.0
C684 C 0.61436 0.47303 0.0394 0.0
C685 C 0.6594 0.48664 0.01161 0.0
C686 C 0.62925 0.52019 0.96419 0.0
H687 H 0.74758 0.54937 0.88309 0.0
H688 H 0.72868 0.53233 0.91854 0.0
H689 H 0.62199 0.53303 0.93293 0.0
H690 H 0.57053 0.4918 0.03437 0.0
H691 H 0.59388 0.51981 0.00074 0.0
H692 H 0.71912 0.5444 -0.0119 0.0
C693 C 0.72089 0.55234 0.91065 0.0
C694 C 0.64337 0.53588 0.94498 0.0
C695 C 0.73155 0.56198 0.89038 0.0
C696 C 0.59507 0.4898 0.02804 0.0
C697 C 0.60845 0.50573 0.00877 0.0
C698 C 0.69739 0.54119 0.97619 0.0
C699 C 0.69875 0.56686 0.92031 0.0
C700 C 0.68444 0.55349 0.9411 0.0
C701 C 0.64102 0.50463 0.00035 0.0
C702 C 0.65605 0.52236 0.98003 0.0
H703 H 0.69142 0.62195 0.88142 0.0
H704 H 0.67186 0.60415 0.91686 0.0
H705 H 0.74323 0.57 0.95427 0.0
H706 H 0.66158 0.4583 0.03947 0.0
H707 H 0.68383 0.48423 0.00547 0.0
C708 C 0.15464 0.6879 0.21695 0.0
C709 C 0.1666 0.65977 0.21295 0.0
C710 C 0.14649 0.69402 0.2368 0.0
C711 C 0.16445 0.67914 0.29111 0.0
H712 H 1.06969 0.68742 0.29933 0.0
C713 C 1.0977 0.66305 0.37014 0.0
C714 C 1.08227 0.68786 0.37521 0.0
C715 C 0.11043 0.66298 0.35048 0.0
C716 C 1.0966 0.68579 0.29728 0.0
H717 H 0.17966 0.61626 0.22681 0.0
H718 H 0.16514 0.62679 0.26144 0.0
H719 H 1.08711 0.68043 0.26475 0.0
H720 H 1.06888 0.73269 0.36374 0.0
H721 H 1.09159 0.7329 0.32924 0.0
H722 H 0.17368 0.68405 0.32366 0.0
C723 C 0.16251 0.64442 0.24921 0.0
C724 C 0.10656 0.68173 0.27746 0.0
C725 C 0.17063 0.63823 0.22933 0.0
C726 C 1.08066 0.71329 0.36027 0.0
C727 C 1.09334 0.71314 0.3405 0.0
C728 C 0.15449 0.68321 0.31092 0.0
C729 C 0.15014 0.67223 0.25315 0.0
C730 C 0.1404 0.678 0.27417 0.0
C731 C 0.10816 0.68779 0.33537 0.0
C732 C 0.12022 0.68617 0.31425 0.0
H733 H 0.15131 0.70514 0.20474 0.0
H734 H 0.13753 0.71603 0.23935 0.0
H735 H 0.1911 0.67705 0.28907 0.0
H736 H 1.09997 0.6436 0.38141 0.0
H737 H 0.12129 0.64281 0.347 0.0
loop_
_geom_bond_atom_site_label_1
_geom_bond_atom_site_label_2
_geom_bond_distance
_geom_bond_site_symmetry_2
_ccdc_geom_bond_type
Tb0 C9 2.764 . S
Tb0 O10 2.325 . S
Tb0 O13 2.303 . S
Tb0 O17 2.322 1_655 S
Tb0 O18 2.349 . S
Tb0 O21 2.415 . S
Tb0 O22 2.399 . S
Tb1 O11 2.322 1_455 S
Tb1 O12 2.349 . S
Tb1 O14 2.415 . S
Tb1 O15 2.399 . S
Tb1 O16 2.325 . S
Tb1 O19 2.303 . S
Tb1 C30 2.764 . S
C2 O18 1.261 1_455 S
C2 O19 1.257 . S
C3 C6 1.358 . S
C3 C7 1.332 . S
C3 C9 1.504 . S
C4 C5 1.373 . S
C4 C8 1.308 . S
C5 C4 1.373 . S
C5 C6 1.429 . S
C5 H32 0.932 . S
C6 C3 1.358 . S
C6 C5 1.429 . S
C6 H33 0.930 . S
C7 C3 1.332 . S
C7 C8 1.394 . S
C7 H34 0.932 . S
C8 C4 1.308 . S
C8 C7 1.394 . S
C8 H35 0.929 . S
C9 Tb0 2.764 . S
C9 C3 1.504 . S
C9 O21 1.239 . S
C9 O22 1.263 . S
O10 Tb0 2.325 . S
O10 C20 1.236 . S
O11 Tb1 2.322 1_655 S
O11 C20 1.257 . S
O12 Tb1 2.349 . S
O12 C23 1.261 . S
O13 Tb0 2.303 . S
O13 C23 1.257 1_655 S
O14 Tb1 2.415 . S
O14 C30 1.239 . S
O15 Tb1 2.399 . S
O15 C30 1.263 . S
O16 Tb1 2.325 . S
O16 C31 1.236 . S
O17 Tb0 2.322 1_455 S
O17 C31 1.257 . S
O18 Tb0 2.349 . S
O18 C2 1.261 1_655 S
O19 Tb1 2.303 . S
O19 C2 1.257 . S
C20 O10 1.236 . S
C20 O11 1.257 . S
O21 Tb0 2.415 . S
O21 C9 1.239 . S
O22 Tb0 2.399 . S
O22 C9 1.263 . S
C23 O12 1.261 . S
C23 O13 1.257 1_455 S
C24 C27 1.358 . S
C24 C28 1.332 . S
C24 C30 1.504 . S
C25 C26 1.373 . S
C25 C29 1.308 . S
C26 C25 1.373 . S
C26 C27 1.429 . S
C26 H36 0.932 . S
C27 C24 1.358 . S
C27 C26 1.429 . S
C27 H37 0.930 . S
C28 C24 1.332 . S
C28 C29 1.394 . S
C28 H38 0.932 . S
C29 C25 1.308 . S
C29 C28 1.394 . S
C29 H39 0.929 . S
C30 Tb1 2.764 . S
C30 O14 1.239 . S
C30 O15 1.263 . S
C30 C24 1.504 . S
C31 O16 1.236 . S
C31 O17 1.257 . S
H32 C5 0.932 . S
H33 C6 0.930 . S
H34 C7 0.932 . S
H35 C8 0.929 . S
H36 C26 0.932 . S
H37 C27 0.930 . S
H38 C28 0.932 . S
H39 C29 0.929 . S
Tb40 C49 2.764 . S
Tb40 O50 2.325 . S
Tb40 O53 2.303 1_565 S
Tb40 O57 2.322 1_565 S
Tb40 O58 2.349 . S
Tb40 O61 2.415 . S
Tb40 O62 2.399 . S
Tb41 O51 2.322 1_545 S
Tb41 O52 2.349 . S
Tb41 O54 2.415 . S
Tb41 O55 2.399 . S
Tb41 O56 2.325 . S
Tb41 O59 2.303 . S
Tb41 C70 2.764 . S
C42 O58 1.261 1_545 S
C42 O59 1.257 . S
C43 C46 1.358 . S
C43 C47 1.332 . S
C43 C49 1.504 . S
C44 C45 1.373 . S
C44 C48 1.308 . S
C45 C44 1.373 . S
C45 C46 1.429 . S
C45 H72 0.932 . S
C46 C43 1.358 . S
C46 C45 1.429 . S
C46 H73 0.930 . S
C47 C43 1.332 . S
C47 C48 1.394 . S
C47 H74 0.932 . S
C48 C44 1.308 . S
C48 C47 1.394 . S
C48 H75 0.929 . S
C49 Tb40 2.764 . S
C49 C43 1.504 . S
C49 O61 1.239 . S
C49 O62 1.263 . S
O50 Tb40 2.325 . S
O50 C60 1.236 . S
O51 Tb41 2.322 1_565 S
O51 C60 1.257 . S
O52 Tb41 2.349 . S
O52 C63 1.261 . S
O53 Tb40 2.303 1_545 S
O53 C63 1.257 . S
O54 Tb41 2.415 . S
O54 C70 1.239 . S
O55 Tb41 2.399 . S
O55 C70 1.263 . S
O56 Tb41 2.325 . S
O56 C71 1.236 . S
O57 Tb40 2.322 1_545 S
O57 C71 1.257 . S
O58 Tb40 2.349 . S
O58 C42 1.261 1_565 S
O59 Tb41 2.303 . S
O59 C42 1.257 . S
C60 O50 1.236 . S
C60 O51 1.257 . S
O61 Tb40 2.415 . S
O61 C49 1.239 . S
O62 Tb40 2.399 . S
O62 C49 1.263 . S
C63 O52 1.261 . S
C63 O53 1.257 . S
C64 C67 1.358 . S
C64 C68 1.332 . S
C64 C70 1.504 . S
C65 C66 1.373 . S
C65 C69 1.308 . S
C66 C65 1.373 . S
C66 C67 1.429 . S
C66 H76 0.932 . S
C67 C64 1.358 . S
C67 C66 1.429 . S
C67 H77 0.930 . S
C68 C64 1.332 . S
C68 C69 1.394 . S
C68 H78 0.932 . S
C69 C65 1.308 . S
C69 C68 1.394 . S
C69 H79 0.929 . S
C70 Tb41 2.764 . S
C70 O54 1.239 . S
C70 O55 1.263 . S
C70 C64 1.504 . S
C71 O56 1.236 . S
C71 O57 1.257 . S
H72 C45 0.932 . S
H73 C46 0.930 . S
H74 C47 0.932 . S
H75 C48 0.929 . S
H76 C66 0.932 . S
H77 C67 0.930 . S
H78 C68 0.932 . S
H79 C69 0.929 . S
Tb80 C89 2.764 . S
Tb80 O90 2.325 . S
Tb80 O93 2.303 . S
Tb80 O97 2.322 . S
Tb80 O98 2.349 . S
Tb80 O101 2.415 . S
Tb80 O102 2.399 . S
Tb81 O91 2.322 . S
Tb81 O92 2.349 . S
Tb81 O94 2.415 . S
Tb81 O95 2.399 . S
Tb81 O96 2.325 . S
Tb81 O99 2.303 . S
Tb81 C110 2.764 . S
C82 O98 1.261 . S
C82 O99 1.257 . S
C83 C86 1.358 . S
C83 C87 1.332 . S
C83 C89 1.504 . S
C84 C85 1.373 . S
C84 C88 1.308 . S
C85 C84 1.373 . S
C85 C86 1.429 . S
C85 H112 0.932 . S
C86 C83 1.358 . S
C86 C85 1.429 . S
C86 H113 0.930 . S
C87 C83 1.332 . S
C87 C88 1.394 . S
C87 H114 0.932 . S
C88 C84 1.308 . S
C88 C87 1.394 . S
C88 H115 0.929 . S
C89 Tb80 2.764 . S
C89 C83 1.504 . S
C89 O101 1.239 . S
C89 O102 1.263 . S
O90 Tb80 2.325 . S
O90 C100 1.236 . S
O91 Tb81 2.322 . S
O91 C100 1.257 . S
O92 Tb81 2.349 . S
O92 C103 1.261 . S
O93 Tb80 2.303 . S
O93 C103 1.257 . S
O94 Tb81 2.415 . S
O94 C110 1.239 . S
O95 Tb81 2.399 . S
O95 C110 1.263 . S
O96 Tb81 2.325 . S
O96 C111 1.236 . S
O97 Tb80 2.322 . S
O97 C111 1.257 . S
O98 Tb80 2.349 . S
O98 C82 1.261 . S
O99 Tb81 2.303 . S
O99 C82 1.257 . S
C100 O90 1.236 . S
C100 O91 1.257 . S
O101 Tb80 2.415 . S
O101 C89 1.239 . S
O102 Tb80 2.399 . S
O102 C89 1.263 . S
C103 O92 1.261 . S
C103 O93 1.257 . S
C104 C107 1.358 . S
C104 C108 1.332 . S
C104 C110 1.504 . S
C105 C106 1.373 . S
C105 C109 1.308 . S
C106 C105 1.373 . S
C106 C107 1.429 . S
C106 H116 0.932 . S
C107 C104 1.358 . S
C107 C106 1.429 . S
C107 H117 0.930 . S
C108 C104 1.332 . S
C108 C109 1.394 . S
C108 H118 0.932 . S
C109 C105 1.308 . S
C109 C108 1.394 . S
C109 H119 0.929 . S
C110 Tb81 2.764 . S
C110 O94 1.239 . S
C110 O95 1.263 . S
C110 C104 1.504 . S
C111 O96 1.236 . S
C111 O97 1.257 . S
H112 C85 0.932 . S
H113 C86 0.930 . S
H114 C87 0.932 . S
H115 C88 0.929 . S
H116 C106 0.932 . S
H117 C107 0.930 . S
H118 C108 0.932 . S
H119 C109 0.929 . S
H120 C127 0.929 . S
H121 C130 0.930 . S
H122 C132 0.929 . S
H123 C124 0.969 . S
C124 H123 0.969 . S
C124 O125 1.550 . S
C124 H126 0.973 . S
O125 C124 1.550 . S
O125 C131 1.412 . S
H126 C124 0.973 . S
C127 H120 0.929 . S
C127 C128 1.400 . S
C127 C129 1.364 . S
C128 C127 1.400 . S
C128 C132 1.377 . S
C129 C127 1.364 . S
C129 C130 1.374 1_545 S
C130 H121 0.930 . S
C130 C129 1.374 1_565 S
C130 C131 1.383 . S
C131 O125 1.412 . S
C131 C130 1.383 . S
C131 C132 1.394 1_565 S
C132 H122 0.929 . S
C132 C128 1.377 . S
C132 C131 1.394 1_545 S
H133 C140 0.929 . S
H134 C143 0.930 . S
H135 C145 0.929 . S
H136 C137 0.969 . S
C137 H136 0.969 . S
C137 O138 1.550 . S
C137 H139 0.973 . S
O138 C137 1.550 . S
O138 C144 1.412 . S
H139 C137 0.973 . S
C140 H133 0.929 . S
C140 C141 1.400 . S
C140 C142 1.364 . S
C141 C140 1.400 . S
C141 C145 1.377 . S
C142 C140 1.364 . S
C142 C143 1.374 . S
C143 H134 0.930 . S
C143 C142 1.374 . S
C143 C144 1.383 . S
C144 O138 1.412 . S
C144 C143 1.383 . S
C144 C145 1.394 . S
C145 H135 0.929 . S
C145 C141 1.377 . S
C145 C144 1.394 . S
H146 C153 0.929 . S
H147 C156 0.930 . S
H148 C158 0.929 . S
H149 C150 0.969 . S
C150 H149 0.969 . S
C150 O151 1.550 . S
C150 H152 0.973 . S
O151 C150 1.550 . S
O151 C157 1.412 . S
H152 C150 0.973 . S
C153 H146 0.929 . S
C153 C154 1.400 . S
C153 C155 1.364 . S
C154 C153 1.400 . S
C154 C158 1.377 . S
C155 C153 1.364 . S
C155 C156 1.374 . S
C156 H147 0.930 . S
C156 C155 1.374 . S
C156 C157 1.383 . S
C157 O151 1.412 . S
C157 C156 1.383 . S
C157 C158 1.394 . S
C158 H148 0.929 . S
C158 C154 1.377 . S
C158 C157 1.394 . S
H159 C166 0.929 . S
H160 C169 0.930 . S
H161 C171 0.929 . S
H162 C163 0.969 . S
C163 H162 0.969 . S
C163 O164 1.550 . S
C163 H165 0.973 . S
O164 C163 1.550 . S
O164 C170 1.412 . S
H165 C163 0.973 . S
C166 H159 0.929 . S
C166 C167 1.400 . S
C166 C168 1.364 1_655 S
C167 C166 1.400 . S
C167 C171 1.377 1_655 S
C168 C166 1.364 1_455 S
C168 C169 1.374 . S
C169 H160 0.930 . S
C169 C168 1.374 . S
C169 C170 1.383 . S
C170 O164 1.412 . S
C170 C169 1.383 . S
C170 C171 1.394 . S
C171 H161 0.929 . S
C171 C167 1.377 1_455 S
C171 C170 1.394 . S
H172 C179 0.929 . S
H173 C182 0.930 . S
H174 C184 0.929 . S
H175 C176 0.969 . S
C176 H175 0.969 . S
C176 O177 1.550 . S
C176 H178 0.973 . S
O177 C176 1.550 . S
O177 C183 1.412 . S
H178 C176 0.973 . S
C179 H172 0.929 . S
C179 C180 1.400 . S
C179 C181 1.364 . S
C180 C179 1.400 . S
C180 C184 1.377 . S
C181 C179 1.364 . S
C181 C182 1.374 1_565 S
C182 H173 0.930 . S
C182 C181 1.374 1_545 S
C182 C183 1.383 . S
C183 O177 1.412 . S
C183 C182 1.383 . S
C183 C184 1.394 1_545 S
C184 H174 0.929 . S
C184 C180 1.377 . S
C184 C183 1.394 1_565 S
H185 C192 0.929 . S
H186 C195 0.930 . S
H187 C197 0.929 . S
H188 C189 0.969 . S
C189 H188 0.969 . S
C189 O190 1.550 . S
C189 H191 0.973 . S
O190 C189 1.550 . S
O190 C196 1.412 . S
H191 C189 0.973 . S
C192 H185 0.929 . S
C192 C193 1.400 . S
C192 C194 1.364 . S
C193 C192 1.400 . S
C193 C197 1.377 . S
C194 C192 1.364 . S
C194 C195 1.374 . S
C195 H186 0.930 . S
C195 C194 1.374 . S
C195 C196 1.383 . S
C196 O190 1.412 . S
C196 C195 1.383 . S
C196 C197 1.394 . S
C197 H187 0.929 . S
C197 C193 1.377 . S
C197 C196 1.394 . S
C198 C199 1.349 . S
C198 C200 1.327 . S
C198 H223 0.950 . S
C199 C198 1.349 . S
C199 C215 1.349 . S
C200 C198 1.327 . S
C200 C219 1.429 . S
C200 H224 0.950 . S
C201 C218 1.574 . S
C201 C220 1.368 . S
C201 H225 0.949 . S
H202 C206 0.949 . S
C203 C204 1.349 . S
C203 C205 1.327 . S
C203 H226 0.950 . S
C204 C203 1.349 . S
C204 C216 1.349 . S
C205 C203 1.327 . S
C205 C221 1.429 . S
C205 H227 0.950 . S
C206 H202 0.949 . S
C206 C214 1.574 . S
C206 C222 1.368 . S
H207 C215 0.950 . S
H208 C213 0.950 . S
H209 C214 0.949 . S
H210 C216 0.950 . S
H211 C217 0.950 . S
H212 C218 0.949 . S
C213 H208 0.950 . S
C213 C215 1.327 . S
C213 C219 1.429 . S
C214 C206 1.574 . S
C214 H209 0.949 . S
C214 C220 1.368 . S
C215 C199 1.349 . S
C215 H207 0.950 . S
C215 C213 1.327 . S
C216 C204 1.349 . S
C216 H210 0.950 . S
C216 C217 1.327 . S
C217 H211 0.950 . S
C217 C216 1.327 . S
C217 C221 1.429 . S
C218 C201 1.574 . S
C218 H212 0.949 . S
C218 C222 1.368 . S
C219 C200 1.429 . S
C219 C213 1.429 . S
C219 C220 1.523 . S
C220 C201 1.368 . S
C220 C214 1.368 . S
C220 C219 1.523 . S
C221 C205 1.429 . S
C221 C217 1.429 . S
C221 C222 1.523 . S
C222 C206 1.368 . S
C222 C218 1.368 . S
C222 C221 1.523 . S
H223 C198 0.950 . S
H224 C200 0.950 . S
H225 C201 0.949 . S
H226 C203 0.950 . S
H227 C205 0.950 . S
C228 C229 1.349 . S
C228 C230 1.327 . S
C228 H253 0.950 . S
C229 C228 1.349 . S
C229 C245 1.349 . S
C230 C228 1.327 . S
C230 C249 1.429 . S
C230 H254 0.950 . S
C231 C248 1.574 . S
C231 C250 1.368 . S
C231 H255 0.949 . S
H232 C236 0.949 . S
C233 C234 1.349 . S
C233 C235 1.327 . S
C233 H256 0.950 . S
C234 C233 1.349 . S
C234 C246 1.349 . S
C235 C233 1.327 . S
C235 C251 1.429 . S
C235 H257 0.950 . S
C236 H232 0.949 . S
C236 C244 1.574 . S
C236 C252 1.368 . S
H237 C245 0.950 . S
H238 C243 0.950 . S
H239 C244 0.949 . S
H240 C246 0.950 1_455 S
H241 C247 0.950 . S
H242 C248 0.949 . S
C243 H238 0.950 . S
C243 C245 1.327 . S
C243 C249 1.429 . S
C244 C236 1.574 . S
C244 H239 0.949 . S
C244 C250 1.368 . S
C245 C229 1.349 . S
C245 H237 0.950 . S
C245 C243 1.327 . S
C246 C234 1.349 . S
C246 H240 0.950 1_655 S
C246 C247 1.327 . S
C247 H241 0.950 . S
C247 C246 1.327 . S
C247 C251 1.429 . S
C248 C231 1.574 . S
C248 H242 0.949 . S
C248 C252 1.368 . S
C249 C230 1.429 . S
C249 C243 1.429 . S
C249 C250 1.523 . S
C250 C231 1.368 . S
C250 C244 1.368 . S
C250 C249 1.523 . S
C251 C235 1.429 . S
C251 C247 1.429 . S
C251 C252 1.523 . S
C252 C236 1.368 . S
C252 C248 1.368 . S
C252 C251 1.523 . S
H253 C228 0.950 . S
H254 C230 0.950 . S
H255 C231 0.949 . S
H256 C233 0.950 . S
H257 C235 0.950 . S
C258 C259 1.349 . S
C258 C260 1.327 . S
C258 H283 0.950 . S
C259 C258 1.349 . S
C259 C275 1.349 . S
C260 C258 1.327 . S
C260 C279 1.429 . S
C260 H284 0.950 . S
C261 C278 1.574 . S
C261 C280 1.368 . S
C261 H285 0.949 . S
H262 C266 0.949 . S
C263 C264 1.349 . S
C263 C265 1.327 . S
C263 H286 0.950 . S
C264 C263 1.349 . S
C264 C276 1.349 . S
C265 C263 1.327 . S
C265 C281 1.429 . S
C265 H287 0.950 . S
C266 H262 0.949 . S
C266 C274 1.574 . S
C266 C282 1.368 . S
H267 C275 0.950 . S
H268 C273 0.950 . S
H269 C274 0.949 . S
H270 C276 0.950 . S
H271 C277 0.950 . S
H272 C278 0.949 . S
C273 H268 0.950 . S
C273 C275 1.327 . S
C273 C279 1.429 . S
C274 C266 1.574 . S
C274 H269 0.949 . S
C274 C280 1.368 . S
C275 C259 1.349 . S
C275 H267 0.950 . S
C275 C273 1.327 . S
C276 C264 1.349 . S
C276 H270 0.950 . S
C276 C277 1.327 . S
C277 H271 0.950 . S
C277 C276 1.327 . S
C277 C281 1.429 . S
C278 C261 1.574 . S
C278 H272 0.949 . S
C278 C282 1.368 . S
C279 C260 1.429 . S
C279 C273 1.429 . S
C279 C280 1.523 . S
C280 C261 1.368 . S
C280 C274 1.368 . S
C280 C279 1.523 . S
C281 C265 1.429 . S
C281 C277 1.429 . S
C281 C282 1.523 . S
C282 C266 1.368 . S
C282 C278 1.368 . S
C282 C281 1.523 . S
H283 C258 0.950 . S
H284 C260 0.950 . S
H285 C261 0.949 . S
H286 C263 0.950 . S
H287 C265 0.950 . S
C288 C289 1.349 . S
C288 C290 1.327 . S
C288 H313 0.950 . S
C289 C288 1.349 . S
C289 C305 1.349 . S
C290 C288 1.327 . S
C290 C309 1.429 . S
C290 H314 0.950 . S
C291 C308 1.574 . S
C291 C310 1.368 . S
C291 H315 0.949 . S
H292 C296 0.949 . S
C293 C294 1.349 . S
C293 C295 1.327 . S
C293 H316 0.950 . S
C294 C293 1.349 . S
C294 C306 1.349 . S
C295 C293 1.327 . S
C295 C311 1.429 . S
C295 H317 0.950 . S
C296 H292 0.949 . S
C296 C304 1.574 . S
C296 C312 1.368 . S
H297 C305 0.950 . S
H298 C303 0.950 . S
H299 C304 0.949 . S
H300 C306 0.950 . S
H301 C307 0.950 . S
H302 C308 0.949 . S
C303 H298 0.950 . S
C303 C305 1.327 . S
C303 C309 1.429 . S
C304 C296 1.574 . S
C304 H299 0.949 . S
C304 C310 1.368 . S
C305 C289 1.349 . S
C305 H297 0.950 . S
C305 C303 1.327 . S
C306 C294 1.349 . S
C306 H300 0.950 . S
C306 C307 1.327 . S
C307 H301 0.950 . S
C307 C306 1.327 . S
C307 C311 1.429 . S
C308 C291 1.574 . S
C308 H302 0.949 . S
C308 C312 1.368 . S
C309 C290 1.429 . S
C309 C303 1.429 . S
C309 C310 1.523 . S
C310 C291 1.368 . S
C310 C304 1.368 . S
C310 C309 1.523 . S
C311 C295 1.429 . S
C311 C307 1.429 . S
C311 C312 1.523 . S
C312 C296 1.368 . S
C312 C308 1.368 . S
C312 C311 1.523 . S
H313 C288 0.950 . S
H314 C290 0.950 . S
H315 C291 0.949 . S
H316 C293 0.950 . S
H317 C295 0.950 . S
C318 C319 1.349 . S
C318 C320 1.327 . S
C318 H343 0.950 . S
C319 C318 1.349 . S
C319 C335 1.349 . S
C320 C318 1.327 . S
C320 C339 1.429 . S
C320 H344 0.950 . S
C321 C338 1.574 . S
C321 C340 1.368 . S
C321 H345 0.949 . S
H322 C326 0.949 . S
C323 C324 1.349 . S
C323 C325 1.327 . S
C323 H346 0.950 . S
C324 C323 1.349 . S
C324 C336 1.349 . S
C325 C323 1.327 . S
C325 C341 1.429 . S
C325 H347 0.950 . S
C326 H322 0.949 . S
C326 C334 1.574 . S
C326 C342 1.368 . S
H327 C335 0.950 . S
H328 C333 0.950 . S
H329 C334 0.949 . S
H330 C336 0.950 . S
H331 C337 0.950 . S
H332 C338 0.949 . S
C333 H328 0.950 . S
C333 C335 1.327 . S
C333 C339 1.429 . S
C334 C326 1.574 . S
C334 H329 0.949 . S
C334 C340 1.368 . S
C335 C319 1.349 . S
C335 H327 0.950 . S
C335 C333 1.327 . S
C336 C324 1.349 . S
C336 H330 0.950 . S
C336 C337 1.327 . S
C337 H331 0.950 . S
C337 C336 1.327 . S
C337 C341 1.429 . S
C338 C321 1.574 . S
C338 H332 0.949 . S
C338 C342 1.368 . S
C339 C320 1.429 . S
C339 C333 1.429 . S
C339 C340 1.523 . S
C340 C321 1.368 . S
C340 C334 1.368 . S
C340 C339 1.523 . S
C341 C325 1.429 . S
C341 C337 1.429 . S
C341 C342 1.523 . S
C342 C326 1.368 . S
C342 C338 1.368 . S
C342 C341 1.523 . S
H343 C318 0.950 . S
H344 C320 0.950 . S
H345 C321 0.949 . S
H346 C323 0.950 . S
H347 C325 0.950 . S
C348 C349 1.349 . S
C348 C350 1.327 . S
C348 H373 0.950 . S
C349 C348 1.349 . S
C349 C365 1.349 . S
C350 C348 1.327 . S
C350 C369 1.429 . S
C350 H374 0.950 . S
C351 C368 1.574 . S
C351 C370 1.368 . S
C351 H375 0.949 . S
H352 C356 0.949 . S
C353 C354 1.349 . S
C353 C355 1.327 . S
C353 H376 0.950 . S
C354 C353 1.349 . S
C354 C366 1.349 . S
C355 C353 1.327 . S
C355 C371 1.429 . S
C355 H377 0.950 . S
C356 H352 0.949 . S
C356 C364 1.574 . S
C356 C372 1.368 . S
H357 C365 0.950 . S
H358 C363 0.950 . S
H359 C364 0.949 . S
H360 C366 0.950 . S
H361 C367 0.950 . S
H362 C368 0.949 . S
C363 H358 0.950 . S
C363 C365 1.327 . S
C363 C369 1.429 . S
C364 C356 1.574 . S
C364 H359 0.949 . S
C364 C370 1.368 . S
C365 C349 1.349 . S
C365 H357 0.950 . S
C365 C363 1.327 . S
C366 C354 1.349 . S
C366 H360 0.950 . S
C366 C367 1.327 . S
C367 H361 0.950 . S
C367 C366 1.327 . S
C367 C371 1.429 . S
C368 C351 1.574 . S
C368 H362 0.949 . S
C368 C372 1.368 . S
C369 C350 1.429 . S
C369 C363 1.429 . S
C369 C370 1.523 . S
C370 C351 1.368 . S
C370 C364 1.368 . S
C370 C369 1.523 . S
C371 C355 1.429 . S
C371 C367 1.429 . S
C371 C372 1.523 . S
C372 C356 1.368 . S
C372 C368 1.368 . S
C372 C371 1.523 . S
H373 C348 0.950 . S
H374 C350 0.950 . S
H375 C351 0.949 . S
H376 C353 0.950 . S
H377 C355 0.950 . S
C378 C379 1.349 . S
C378 C380 1.327 . S
C378 H403 0.950 . S
C379 C378 1.349 . S
C379 C395 1.349 . S
C380 C378 1.327 . S
C380 C399 1.429 . S
C380 H404 0.950 . S
C381 C398 1.574 . S
C381 C400 1.368 . S
C381 H405 0.949 . S
H382 C386 0.949 . S
C383 C384 1.349 . S
C383 C385 1.327 . S
C383 H406 0.950 . S
C384 C383 1.349 . S
C384 C396 1.349 . S
C385 C383 1.327 . S
C385 C401 1.429 . S
C385 H407 0.950 . S
C386 H382 0.949 . S
C386 C394 1.574 . S
C386 C402 1.368 . S
H387 C395 0.950 . S
H388 C393 0.950 . S
H389 C394 0.949 . S
H390 C396 0.950 . S
H391 C397 0.950 . S
H392 C398 0.949 . S
C393 H388 0.950 . S
C393 C395 1.327 . S
C393 C399 1.429 . S
C394 C386 1.574 . S
C394 H389 0.949 . S
C394 C400 1.368 . S
C395 C379 1.349 . S
C395 H387 0.950 . S
C395 C393 1.327 . S
C396 C384 1.349 . S
C396 H390 0.950 . S
C396 C397 1.327 . S
C397 H391 0.950 . S
C397 C396 1.327 . S
C397 C401 1.429 . S
C398 C381 1.574 . S
C398 H392 0.949 . S
C398 C402 1.368 . S
C399 C380 1.429 . S
C399 C393 1.429 . S
C399 C400 1.523 . S
C400 C381 1.368 . S
C400 C394 1.368 . S
C400 C399 1.523 . S
C401 C385 1.429 . S
C401 C397 1.429 . S
C401 C402 1.523 . S
C402 C386 1.368 . S
C402 C398 1.368 . S
C402 C401 1.523 . S
H403 C378 0.950 . S
H404 C380 0.950 . S
H405 C381 0.949 . S
H406 C383 0.950 . S
H407 C385 0.950 . S
C408 C409 1.349 . S
C408 C410 1.327 . S
C408 H433 0.950 . S
C409 C408 1.349 . S
C409 C425 1.349 . S
C410 C408 1.327 . S
C410 C429 1.429 . S
C410 H434 0.950 . S
C411 C428 1.574 . S
C411 C430 1.368 . S
C411 H435 0.949 . S
H412 C416 0.949 . S
C413 C414 1.349 . S
C413 C415 1.327 . S
C413 H436 0.950 . S
C414 C413 1.349 . S
C414 C426 1.349 . S
C415 C413 1.327 . S
C415 C431 1.429 . S
C415 H437 0.950 . S
C416 H412 0.949 . S
C416 C424 1.574 . S
C416 C432 1.368 . S
H417 C425 0.950 . S
H418 C423 0.950 . S
H419 C424 0.949 . S
H420 C426 0.950 . S
H421 C427 0.950 . S
H422 C428 0.949 . S
C423 H418 0.950 . S
C423 C425 1.327 . S
C423 C429 1.429 . S
C424 C416 1.574 . S
C424 H419 0.949 . S
C424 C430 1.368 . S
C425 C409 1.349 . S
C425 H417 0.950 . S
C425 C423 1.327 . S
C426 C414 1.349 . S
C426 H420 0.950 . S
C426 C427 1.327 . S
C427 H421 0.950 . S
C427 C426 1.327 . S
C427 C431 1.429 . S
C428 C411 1.574 . S
C428 H422 0.949 . S
C428 C432 1.368 . S
C429 C410 1.429 . S
C429 C423 1.429 . S
C429 C430 1.523 . S
C430 C411 1.368 . S
C430 C424 1.368 . S
C430 C429 1.523 . S
C431 C415 1.429 . S
C431 C427 1.429 . S
C431 C432 1.523 . S
C432 C416 1.368 . S
C432 C428 1.368 . S
C432 C431 1.523 . S
H433 C408 0.950 . S
H434 C410 0.950 . S
H435 C411 0.949 . S
H436 C413 0.950 . S
H437 C415 0.950 . S
C438 C439 1.349 . S
C438 C440 1.327 . S
C438 H463 0.950 . S
C439 C438 1.349 . S
C439 C455 1.349 . S
C440 C438 1.327 . S
C440 C459 1.429 . S
C440 H464 0.950 . S
C441 C458 1.574 . S
C441 C460 1.368 . S
C441 H465 0.949 . S
H442 C446 0.949 . S
C443 C444 1.349 . S
C443 C445 1.327 . S
C443 H466 0.950 . S
C444 C443 1.349 . S
C444 C456 1.349 . S
C445 C443 1.327 . S
C445 C461 1.429 . S
C445 H467 0.950 . S
C446 H442 0.949 . S
C446 C454 1.574 . S
C446 C462 1.368 . S
H447 C455 0.950 . S
H448 C453 0.950 . S
H449 C454 0.949 . S
H450 C456 0.950 . S
H451 C457 0.950 . S
H452 C458 0.949 . S
C453 H448 0.950 . S
C453 C455 1.327 . S
C453 C459 1.429 . S
C454 C446 1.574 . S
C454 H449 0.949 . S
C454 C460 1.368 . S
C455 C439 1.349 . S
C455 H447 0.950 . S
C455 C453 1.327 . S
C456 C444 1.349 . S
C456 H450 0.950 . S
C456 C457 1.327 . S
C457 H451 0.950 . S
C457 C456 1.327 . S
C457 C461 1.429 . S
C458 C441 1.574 . S
C458 H452 0.949 . S
C458 C462 1.368 . S
C459 C440 1.429 . S
C459 C453 1.429 . S
C459 C460 1.523 . S
C460 C441 1.368 . S
C460 C454 1.368 . S
C460 C459 1.523 . S
C461 C445 1.429 . S
C461 C457 1.429 . S
C461 C462 1.523 . S
C462 C446 1.368 . S
C462 C458 1.368 . S
C462 C461 1.523 . S
H463 C438 0.950 . S
H464 C440 0.950 . S
H465 C441 0.949 . S
H466 C443 0.950 . S
H467 C445 0.950 . S
C468 C469 1.349 . S
C468 C470 1.327 . S
C468 H493 0.950 . S
C469 C468 1.349 . S
C469 C485 1.349 . S
C470 C468 1.327 . S
C470 C489 1.429 . S
C470 H494 0.950 . S
C471 C488 1.574 . S
C471 C490 1.368 . S
C471 H495 0.949 . S
H472 C476 0.949 . S
C473 C474 1.349 . S
C473 C475 1.327 . S
C473 H496 0.950 . S
C474 C473 1.349 . S
C474 C486 1.349 . S
C475 C473 1.327 . S
C475 C491 1.429 . S
C475 H497 0.950 . S
C476 H472 0.949 . S
C476 C484 1.574 . S
C476 C492 1.368 . S
H477 C485 0.950 . S
H478 C483 0.950 . S
H479 C484 0.949 . S
H480 C486 0.950 . S
H481 C487 0.950 . S
H482 C488 0.949 . S
C483 H478 0.950 . S
C483 C485 1.327 . S
C483 C489 1.429 . S
C484 C476 1.574 . S
C484 H479 0.949 . S
C484 C490 1.368 . S
C485 C469 1.349 . S
C485 H477 0.950 . S
C485 C483 1.327 . S
C486 C474 1.349 . S
C486 H480 0.950 . S
C486 C487 1.327 . S
C487 H481 0.950 . S
C487 C486 1.327 . S
C487 C491 1.429 . S
C488 C471 1.574 . S
C488 H482 0.949 . S
C488 C492 1.368 . S
C489 C470 1.429 . S
C489 C483 1.429 . S
C489 C490 1.523 . S
C490 C471 1.368 . S
C490 C484 1.368 . S
C490 C489 1.523 . S
C491 C475 1.429 . S
C491 C487 1.429 . S
C491 C492 1.523 . S
C492 C476 1.368 . S
C492 C488 1.368 . S
C492 C491 1.523 . S
H493 C468 0.950 . S
H494 C470 0.950 . S
H495 C471 0.949 . S
H496 C473 0.950 . S
H497 C475 0.950 . S
C498 C499 1.349 . S
C498 C500 1.327 . S
C498 H523 0.950 . S
C499 C498 1.349 . S
C499 C515 1.349 . S
C500 C498 1.327 . S
C500 C519 1.429 . S
C500 H524 0.950 . S
C501 C518 1.574 . S
C501 C520 1.368 . S
C501 H525 0.949 . S
H502 C506 0.949 . S
C503 C504 1.349 . S
C503 C505 1.327 . S
C503 H526 0.950 . S
C504 C503 1.349 . S
C504 C516 1.349 . S
C505 C503 1.327 . S
C505 C521 1.429 . S
C505 H527 0.950 . S
C506 H502 0.949 . S
C506 C514 1.574 . S
C506 C522 1.368 . S
H507 C515 0.950 . S
H508 C513 0.950 . S
H509 C514 0.949 . S
H510 C516 0.950 . S
H511 C517 0.950 . S
H512 C518 0.949 . S
C513 H508 0.950 . S
C513 C515 1.327 . S
C513 C519 1.429 . S
C514 C506 1.574 . S
C514 H509 0.949 . S
C514 C520 1.368 . S
C515 C499 1.349 . S
C515 H507 0.950 . S
C515 C513 1.327 . S
C516 C504 1.349 . S
C516 H510 0.950 . S
C516 C517 1.327 . S
C517 H511 0.950 . S
C517 C516 1.327 . S
C517 C521 1.429 . S
C518 C501 1.574 . S
C518 H512 0.949 . S
C518 C522 1.368 . S
C519 C500 1.429 . S
C519 C513 1.429 . S
C519 C520 1.523 . S
C520 C501 1.368 . S
C520 C514 1.368 . S
C520 C519 1.523 . S
C521 C505 1.429 . S
C521 C517 1.429 . S
C521 C522 1.523 . S
C522 C506 1.368 . S
C522 C518 1.368 . S
C522 C521 1.523 . S
H523 C498 0.950 . S
H524 C500 0.950 . S
H525 C501 0.949 . S
H526 C503 0.950 . S
H527 C505 0.950 . S
C528 C529 1.349 . S
C528 C530 1.327 . S
C528 H553 0.950 . S
C529 C528 1.349 . S
C529 C545 1.349 . S
C530 C528 1.327 . S
C530 C549 1.429 . S
C530 H554 0.950 . S
C531 C548 1.574 . S
C531 C550 1.368 . S
C531 H555 0.949 . S
H532 C536 0.949 . S
C533 C534 1.349 . S
C533 C535 1.327 . S
C533 H556 0.950 . S
C534 C533 1.349 . S
C534 C546 1.349 . S
C535 C533 1.327 . S
C535 C551 1.429 . S
C535 H557 0.950 . S
C536 H532 0.949 . S
C536 C544 1.574 . S
C536 C552 1.368 . S
H537 C545 0.950 . S
H538 C543 0.950 . S
H539 C544 0.949 . S
H540 C546 0.950 . S
H541 C547 0.950 . S
H542 C548 0.949 . S
C543 H538 0.950 . S
C543 C545 1.327 . S
C543 C549 1.429 . S
C544 C536 1.574 . S
C544 H539 0.949 . S
C544 C550 1.368 . S
C545 C529 1.349 . S
C545 H537 0.950 . S
C545 C543 1.327 . S
C546 C534 1.349 . S
C546 H540 0.950 . S
C546 C547 1.327 . S
C547 H541 0.950 . S
C547 C546 1.327 . S
C547 C551 1.429 . S
C548 C531 1.574 . S
C548 H542 0.949 . S
C548 C552 1.368 . S
C549 C530 1.429 . S
C549 C543 1.429 . S
C549 C550 1.523 . S
C550 C531 1.368 . S
C550 C544 1.368 . S
C550 C549 1.523 . S
C551 C535 1.429 . S
C551 C547 1.429 . S
C551 C552 1.523 . S
C552 C536 1.368 . S
C552 C548 1.368 . S
C552 C551 1.523 . S
H553 C528 0.950 . S
H554 C530 0.950 . S
H555 C531 0.949 . S
H556 C533 0.950 . S
H557 C535 0.950 . S
C558 C559 1.349 . S
C558 C560 1.327 . S
C558 H583 0.950 . S
C559 C558 1.349 . S
C559 C575 1.349 1_455 S
C560 C558 1.327 . S
C560 C579 1.429 . S
C560 H584 0.950 . S
C561 C578 1.574 1_554 S
C561 C580 1.368 . S
C561 H585 0.949 1_455 S
H562 C566 0.949 . S
C563 C564 1.349 . S
C563 C565 1.327 . S
C563 H586 0.950 . S
C564 C563 1.349 . S
C564 C576 1.349 . S
C565 C563 1.327 . S
C565 C581 1.429 . S
C565 H587 0.950 . S
C566 H562 0.949 . S
C566 C574 1.574 . S
C566 C582 1.368 1_554 S
H567 C575 0.950 . S
H568 C573 0.950 . S
H569 C574 0.949 . S
H570 C576 0.950 . S
H571 C577 0.950 . S
H572 C578 0.949 1_655 S
C573 H568 0.950 . S
C573 C575 1.327 . S
C573 C579 1.429 1_655 S
C574 C566 1.574 . S
C574 H569 0.949 . S
C574 C580 1.368 . S
C575 C559 1.349 1_655 S
C575 H567 0.950 . S
C575 C573 1.327 . S
C576 C564 1.349 . S
C576 H570 0.950 . S
C576 C577 1.327 . S
C577 H571 0.950 . S
C577 C576 1.327 . S
C577 C581 1.429 . S
C578 C561 1.574 1_556 S
C578 H572 0.949 1_455 S
C578 C582 1.368 . S
C579 C560 1.429 . S
C579 C573 1.429 1_455 S
C579 C580 1.523 . S
C580 C561 1.368 . S
C580 C574 1.368 . S
C580 C579 1.523 . S
C581 C565 1.429 . S
C581 C577 1.429 . S
C581 C582 1.523 . S
C582 C566 1.368 1_556 S
C582 C578 1.368 . S
C582 C581 1.523 . S
H583 C558 0.950 . S
H584 C560 0.950 . S
H585 C561 0.949 1_655 S
H586 C563 0.950 . S
H587 C565 0.950 . S
C588 C589 1.349 1_565 S
C588 C590 1.327 . S
C588 H613 0.950 . S
C589 C588 1.349 1_545 S
C589 C605 1.349 . S
C590 C588 1.327 . S
C590 C609 1.429 1_565 S
C590 H614 0.950 . S
C591 C608 1.574 . S
C591 C610 1.368 . S
C591 H615 0.949 . S
H592 C596 0.949 . S
C593 C594 1.349 . S
C593 C595 1.327 . S
C593 H616 0.950 . S
C594 C593 1.349 . S
C594 C606 1.349 1_545 S
C595 C593 1.327 . S
C595 C611 1.429 . S
C595 H617 0.950 . S
C596 H592 0.949 . S
C596 C604 1.574 . S
C596 C612 1.368 1_565 S
H597 C605 0.950 . S
H598 C603 0.950 . S
H599 C604 0.949 . S
H600 C606 0.950 . S
H601 C607 0.950 . S
H602 C608 0.949 . S
C603 H598 0.950 . S
C603 C605 1.327 . S
C603 C609 1.429 . S
C604 C596 1.574 . S
C604 H599 0.949 . S
C604 C610 1.368 1_565 S
C605 C589 1.349 . S
C605 H597 0.950 . S
C605 C603 1.327 . S
C606 C594 1.349 1_565 S
C606 H600 0.950 . S
C606 C607 1.327 . S
C607 H601 0.950 . S
C607 C606 1.327 . S
C607 C611 1.429 1_565 S
C608 C591 1.574 . S
C608 H602 0.949 . S
C608 C612 1.368 . S
C609 C590 1.429 1_545 S
C609 C603 1.429 . S
C609 C610 1.523 . S
C610 C591 1.368 . S
C610 C604 1.368 1_545 S
C610 C609 1.523 . S
C611 C595 1.429 . S
C611 C607 1.429 1_545 S
C611 C612 1.523 . S
C612 C596 1.368 1_545 S
C612 C608 1.368 . S
C612 C611 1.523 . S
H613 C588 0.950 . S
H614 C590 0.950 . S
H615 C591 0.949 . S
H616 C593 0.950 . S
H617 C595 0.950 . S
C618 C619 1.349 . S
C618 C620 1.327 . S
C618 H643 0.950 . S
C619 C618 1.349 . S
C619 C635 1.349 . S
C620 C618 1.327 . S
C620 C639 1.429 . S
C620 H644 0.950 . S
C621 C638 1.574 . S
C621 C640 1.368 . S
C621 H645 0.949 . S
H622 C626 0.949 . S
C623 C624 1.349 . S
C623 C625 1.327 . S
C623 H646 0.950 . S
C624 C623 1.349 . S
C624 C636 1.349 . S
C625 C623 1.327 . S
C625 C641 1.429 . S
C625 H647 0.950 . S
C626 H622 0.949 . S
C626 C634 1.574 . S
C626 C642 1.368 . S
H627 C635 0.950 . S
H628 C633 0.950 . S
H629 C634 0.949 . S
H630 C636 0.950 . S
H631 C637 0.950 . S
H632 C638 0.949 . S
C633 H628 0.950 . S
C633 C635 1.327 . S
C633 C639 1.429 . S
C634 C626 1.574 . S
C634 H629 0.949 . S
C634 C640 1.368 . S
C635 C619 1.349 . S
C635 H627 0.950 . S
C635 C633 1.327 . S
C636 C624 1.349 . S
C636 H630 0.950 . S
C636 C637 1.327 . S
C637 H631 0.950 . S
C637 C636 1.327 . S
C637 C641 1.429 . S
C638 C621 1.574 . S
C638 H632 0.949 . S
C638 C642 1.368 . S
C639 C620 1.429 . S
C639 C633 1.429 . S
C639 C640 1.523 . S
C640 C621 1.368 . S
C640 C634 1.368 . S
C640 C639 1.523 . S
C641 C625 1.429 . S
C641 C637 1.429 . S
C641 C642 1.523 . S
C642 C626 1.368 . S
C642 C638 1.368 . S
C642 C641 1.523 . S
H643 C618 0.950 . S
H644 C620 0.950 . S
H645 C621 0.949 . S
H646 C623 0.950 . S
H647 C625 0.950 . S
C648 C649 1.349 1_565 S
C648 C650 1.327 . S
C648 H673 0.950 . S
C649 C648 1.349 1_545 S
C649 C665 1.349 . S
C650 C648 1.327 . S
C650 C669 1.429 1_565 S
C650 H674 0.950 . S
C651 C668 1.574 . S
C651 C670 1.368 . S
C651 H675 0.949 . S
H652 C656 0.949 . S
C653 C654 1.341 1_545 S
C653 C655 1.327 . S
C653 H676 0.950 . S
C654 C653 1.341 1_565 S
C654 C666 1.357 . S
C655 C653 1.327 . S
C655 C671 1.429 . S
C655 H677 0.950 . S
C656 H652 0.949 . S
C656 C664 1.574 . S
C656 C672 1.368 1_565 S
H657 C665 0.950 . S
H658 C663 0.950 . S
H659 C664 0.949 . S
H660 C666 0.950 . S
H661 C667 0.950 . S
H662 C668 0.949 . S
C663 H658 0.950 . S
C663 C665 1.327 . S
C663 C669 1.429 . S
C664 C656 1.574 . S
C664 H659 0.949 . S
C664 C670 1.368 1_565 S
C665 C649 1.349 . S
C665 H657 0.950 . S
C665 C663 1.327 . S
C666 C654 1.357 . S
C666 H660 0.950 . S
C666 C667 1.327 . S
C667 H661 0.950 . S
C667 C666 1.327 . S
C667 C671 1.429 1_565 S
C668 C651 1.574 . S
C668 H662 0.949 . S
C668 C672 1.368 . S
C669 C650 1.429 1_545 S
C669 C663 1.429 . S
C669 C670 1.523 . S
C670 C651 1.368 . S
C670 C664 1.368 1_545 S
C670 C669 1.523 . S
C671 C655 1.429 . S
C671 C667 1.429 1_545 S
C671 C672 1.523 . S
C672 C656 1.368 1_545 S
C672 C668 1.368 . S
C672 C671 1.523 . S
H673 C648 0.950 . S
H674 C650 0.950 . S
H675 C651 0.949 . S
H676 C653 0.950 . S
H677 C655 0.950 . S
C678 C679 1.349 . S
C678 C680 1.327 . S
C678 H703 0.950 . S
C679 C678 1.349 . S
C679 C695 1.349 . S
C680 C678 1.327 . S
C680 C699 1.429 . S
C680 H704 0.950 . S
C681 C698 1.574 . S
C681 C700 1.368 . S
C681 H705 0.949 . S
H682 C686 0.949 1_554 S
C683 C684 1.349 . S
C683 C685 1.327 . S
C683 H706 0.950 . S
C684 C683 1.349 . S
C684 C696 1.349 . S
C685 C683 1.327 . S
C685 C701 1.429 . S
C685 H707 0.950 . S
C686 H682 0.949 1_556 S
C686 C694 1.574 . S
C686 C702 1.368 1_556 S
H687 C695 0.950 . S
H688 C693 0.950 . S
H689 C694 0.949 . S
H690 C696 0.950 . S
H691 C697 0.950 . S
H692 C698 0.949 1_554 S
C693 H688 0.950 . S
C693 C695 1.327 . S
C693 C699 1.429 . S
C694 C686 1.574 . S
C694 H689 0.949 . S
C694 C700 1.368 . S
C695 C679 1.349 . S
C695 H687 0.950 . S
C695 C693 1.327 . S
C696 C684 1.349 . S
C696 H690 0.950 . S
C696 C697 1.327 . S
C697 H691 0.950 . S
C697 C696 1.327 . S
C697 C701 1.429 . S
C698 C681 1.574 . S
C698 H692 0.949 1_556 S
C698 C702 1.368 1_556 S
C699 C680 1.429 . S
C699 C693 1.429 . S
C699 C700 1.523 . S
C700 C681 1.368 . S
C700 C694 1.368 . S
C700 C699 1.523 . S
C701 C685 1.429 . S
C701 C697 1.429 . S
C701 C702 1.523 . S
C702 C686 1.368 1_554 S
C702 C698 1.368 1_554 S
C702 C701 1.523 . S
H703 C678 0.950 . S
H704 C680 0.950 . S
H705 C681 0.949 . S
H706 C683 0.950 . S
H707 C685 0.950 . S
C708 C709 1.349 . S
C708 C710 1.327 . S
C708 H733 0.950 . S
C709 C708 1.349 . S
C709 C725 1.349 1_655 S
C710 C708 1.327 . S
C710 C729 1.429 1_655 S
C710 H734 0.950 . S
C711 C728 1.574 . S
C711 C730 1.368 . S
C711 H735 0.949 . S
H712 C716 0.949 . S
C713 C714 1.349 . S
C713 C715 1.327 . S
C713 H736 0.950 . S
C714 C713 1.349 . S
C714 C726 1.349 1_455 S
C715 C713 1.327 . S
C715 C731 1.429 . S
C715 H737 0.950 . S
C716 H712 0.949 . S
C716 C724 1.574 . S
C716 C732 1.368 1_655 S
H717 C725 0.950 . S
H718 C723 0.950 . S
H719 C724 0.949 . S
H720 C726 0.950 . S
H721 C727 0.950 . S
H722 C728 0.949 . S
C723 H718 0.950 . S
C723 C725 1.327 . S
C723 C729 1.429 . S
C724 C716 1.574 . S
C724 H719 0.949 . S
C724 C730 1.368 1_655 S
C725 C709 1.349 1_455 S
C725 H717 0.950 . S
C725 C723 1.327 . S
C726 C714 1.349 1_655 S
C726 H720 0.950 . S
C726 C727 1.327 . S
C727 H721 0.950 . S
C727 C726 1.327 . S
C727 C731 1.429 1_655 S
C728 C711 1.574 . S
C728 H722 0.949 . S
C728 C732 1.368 . S
C729 C710 1.429 1_455 S
C729 C723 1.429 . S
C729 C730 1.523 . S
C730 C711 1.368 . S
C730 C724 1.368 1_455 S
C730 C729 1.523 . S
C731 C715 1.429 . S
C731 C727 1.429 1_455 S
C731 C732 1.523 . S
C732 C716 1.368 1_455 S
C732 C728 1.368 . S
C732 C731 1.523 . S
H733 C708 0.950 . S
H734 C710 0.950 . S
H735 C711 0.949 . S
H736 C713 0.950 . S
H737 C715 0.950 . S
C199 C25 0.310 . S
C204 C189 0.496 . S
C229 C65 0.248 . S
C234 C167 0.210 . S
C259 C105 0.280 . S
C264 C180 0.215 . S
C289 C4 0.256 . S
C294 C193 0.198 . S
C324 C163 0.490 . S
C319 C44 0.363 . S
C354 C176 0.490 . S
C349 C84 0.362 . S
C379 C60 2.822 . S
C384 C141 2.788 . S
C409 C100 2.973 . S
C414 C154 2.931 1_655 S
C439 C31 3.103 . S
C444 C124 2.901 . S
C474 C137 2.926 . S
C469 C71 3.116 . S
C504 C150 2.778 . S
C499 C111 2.944 . S
C529 C20 2.830 . S
C534 C128 2.797 . S
C564 C155 1.748 . S
C559 C2 1.710 . S
C589 C42 1.697 . S
C594 C129 1.768 . S
C619 C82 1.722 . S
C624 C142 1.802 . S
C654 C181 1.286 . S
C649 C63 1.267 . S
C684 C194 1.340 . S
C679 C103 1.322 . S
C709 C23 1.266 1_655 S
C714 C168 1.297 . S
