# Generated by pormake.
# Topology pyr, (3,6)-cn, num edge types: 1
# Building blocks:
#     Node 0, Type 0, BuildingBlock: PAMTOO_clean_linker_0, # of connection points: 3
#     Node 1, Type 0, BuildingBlock: PAMTOO_clean_linker_0, # of connection points: 3
#     Node 2, Type 0, BuildingBlock: PAMTOO_clean_linker_0, # of connection points: 3
#     Node 3, Type 0, BuildingBlock: PAMTOO_clean_linker_0, # of connection points: 3
#     Node 4, Type 0, BuildingBlock: PAMTOO_clean_linker_0, # of connection points: 3
#     Node 5, Type 0, BuildingBlock: PAMTOO_clean_linker_0, # of connection points: 3
#     Node 6, Type 0, BuildingBlock: PAMTOO_clean_linker_0, # of connection points: 3
#     Node 7, Type 0, BuildingBlock: PAMTOO_clean_linker_0, # of connection points: 3
#     Node 8, Type 1, BuildingBlock: MIDCAF_clean_sbu_0, # of connection points: 6
#     Node 9, Type 1, BuildingBlock: MIDCAF_clean_sbu_0, # of connection points: 6
#     Node 10, Type 1, BuildingBlock: MIDCAF_clean_sbu_0, # of connection points: 6
#     Node 11, Type 1, BuildingBlock: MIDCAF_clean_sbu_0, # of connection points: 6
#     Edge 12, Type (0, 1), BuildingBlock: KIFKEQ_clean_linker_1, # of connection points: 2
#     Edge 13, Type (0, 1), BuildingBlock: KIFKEQ_clean_linker_1, # of connection points: 2
#     Edge 14, Type (0, 1), BuildingBlock: KIFKEQ_clean_linker_1, # of connection points: 2
#     Edge 15, Type (0, 1), BuildingBlock: KIFKEQ_clean_linker_1, # of connection points: 2
#     Edge 16, Type (0, 1), BuildingBlock: KIFKEQ_clean_linker_1, # of connection points: 2
#     Edge 17, Type (0, 1), BuildingBlock: KIFKEQ_clean_linker_1, # of connection points: 2
#     Edge 18, Type (0, 1), BuildingBlock: KIFKEQ_clean_linker_1, # of connection points: 2
#     Edge 19, Type (0, 1), BuildingBlock: KIFKEQ_clean_linker_1, # of connection points: 2
#     Edge 20, Type (0, 1), BuildingBlock: KIFKEQ_clean_linker_1, # of connection points: 2
#     Edge 21, Type (0, 1), BuildingBlock: KIFKEQ_clean_linker_1, # of connection points: 2
#     Edge 22, Type (0, 1), BuildingBlock: KIFKEQ_clean_linker_1, # of connection points: 2
#     Edge 23, Type (0, 1), BuildingBlock: KIFKEQ_clean_linker_1, # of connection points: 2
#     Edge 24, Type (0, 1), BuildingBlock: KIFKEQ_clean_linker_1, # of connection points: 2
#     Edge 25, Type (0, 1), BuildingBlock: KIFKEQ_clean_linker_1, # of connection points: 2
#     Edge 26, Type (0, 1), BuildingBlock: KIFKEQ_clean_linker_1, # of connection points: 2
#     Edge 27, Type (0, 1), BuildingBlock: KIFKEQ_clean_linker_1, # of connection points: 2
#     Edge 28, Type (0, 1), BuildingBlock: KIFKEQ_clean_linker_1, # of connection points: 2
#     Edge 29, Type (0, 1), BuildingBlock: KIFKEQ_clean_linker_1, # of connection points: 2
#     Edge 30, Type (0, 1), BuildingBlock: KIFKEQ_clean_linker_1, # of connection points: 2
#     Edge 31, Type (0, 1), BuildingBlock: KIFKEQ_clean_linker_1, # of connection points: 2
#     Edge 32, Type (0, 1), BuildingBlock: KIFKEQ_clean_linker_1, # of connection points: 2
#     Edge 33, Type (0, 1), BuildingBlock: KIFKEQ_clean_linker_1, # of connection points: 2
#     Edge 34, Type (0, 1), BuildingBlock: KIFKEQ_clean_linker_1, # of connection points: 2
#     Edge 35, Type (0, 1), BuildingBlock: KIFKEQ_clean_linker_1, # of connection points: 2
# Relax obj value: 0.095
# Max RMSD: 0.201
# Mean RMSD: 0.141
data_MOF--net-pry--node1-MIDCAF_clean_sbu_0--node2-PAMTOO_clean_linker_0--edge1-KIFKEQ_clean_linker_1
_symmetry_space_group_name_H-M    P1
_symmetry_Int_Tables_number       1
_symmetry_cell_setting            triclinic
loop_
_symmetry_equiv_pos_as_xyz
'x, y, z'
_cell_length_a     35.099691
_cell_length_b     36.379267
_cell_length_c     35.838607
_cell_angle_alpha  89.815251
_cell_angle_beta   91.210355
_cell_angle_gamma 94.975329
loop_
_atom_site_label
_atom_site_type_symbol
_atom_site_fract_x
_atom_site_fract_y
_atom_site_fract_z
_atom_type_partial_charge
H0 H 0.20252 0.26905 0.27559 0.0
H1 H 0.28559 0.18941 0.28717 0.0
H2 H 0.29926 0.27224 0.20257 0.0
H3 H 0.30312 0.1945 0.17893 0.0
C4 C 0.31874 0.18442 0.20376 0.0
O5 O 0.32522 0.21252 0.22962 0.0
H6 H 0.30042 0.16134 0.21642 0.0
C7 C 0.22909 0.25889 0.2671 0.0
C8 C 0.24921 0.27554 0.23681 0.0
C9 C 0.24224 0.22827 0.28604 0.0
C10 C 0.2758 0.21389 0.2741 0.0
C11 C 0.29557 0.2293 0.24351 0.0
C12 C 0.28291 0.26048 0.22564 0.0
H13 H 0.28124 0.88444 0.7522 0.0
H14 H 0.28764 0.81373 0.65662 0.0
H15 H 0.37559 0.81691 0.74106 0.0
H16 H 0.39724 0.82618 0.65872 0.0
C17 C 0.37616 0.80407 0.64755 0.0
O18 O 0.35289 0.79015 0.67581 0.0
H19 H 0.35854 0.81677 0.62563 0.0
C20 C 0.29543 0.864 0.73709 0.0
C21 C 0.32965 0.85142 0.75186 0.0
C22 C 0.28014 0.85117 0.70235 0.0
C23 C 0.29893 0.82456 0.68312 0.0
C24 C 0.33337 0.81273 0.69681 0.0
C25 C 0.3485 0.82585 0.73118 0.0
H26 H 0.80396 0.25012 0.86006 0.0
H27 H 0.7089 0.25997 0.78373 0.0
H28 H 0.79742 0.34769 0.792 0.0
H29 H 0.71482 0.36501 0.80329 0.0
C30 C 0.70151 0.34626 0.78125 0.0
O31 O 0.72925 0.32735 0.76485 0.0
H32 H 0.68027 0.32643 0.79503 0.0
C33 C 0.79021 0.26498 0.83807 0.0
C34 C 0.80645 0.30008 0.82689 0.0
C35 C 0.75475 0.25024 0.82306 0.0
C36 C 0.7362 0.27056 0.79582 0.0
C37 C 0.75095 0.30596 0.78586 0.0
C38 C 0.78631 0.32034 0.8006 0.0
H39 H 0.81547 0.75277 0.36149 0.0
H40 H 0.82733 0.67057 0.277 0.0
H41 H 0.88319 0.77878 0.26444 0.0
H42 H 0.86008 0.74194 0.18901 0.0
C43 C 0.85559 0.71363 0.20082 0.0
O44 O 0.87267 0.71307 0.23582 0.0
H45 H 0.82423 0.70606 0.20242 0.0
C46 C 0.82642 0.74481 0.33497 0.0
C47 C 0.85077 0.77039 0.31511 0.0
C48 C 0.81726 0.70863 0.32147 0.0
C49 C 0.83255 0.69852 0.28741 0.0
C50 C 0.85595 0.72396 0.26703 0.0
C51 C 0.86465 0.75973 0.28057 0.0
H52 H 0.88049 0.93282 0.83421 0.0
H53 H 0.85861 0.8535 0.9228 0.0
H54 H 0.94531 0.83795 0.84344 0.0
H55 H 0.88935 0.7708 0.87056 0.0
C56 C 0.89234 0.7781 0.9007 0.0
O57 O 0.9123 0.81238 0.90444 0.0
H58 H 0.86333 0.77894 0.91237 0.0
C59 C 0.88605 0.90733 0.84824 0.0
C60 C 0.91481 0.88651 0.83485 0.0
C61 C 0.86515 0.8958 0.87997 0.0
C62 C 0.87409 0.86322 0.89836 0.0
C63 C 0.90275 0.84241 0.88518 0.0
C64 C 0.92281 0.85387 0.85323 0.0
H65 H 0.71746 0.11965 0.3182 0.0
H66 H 0.67659 0.22687 0.30157 0.0
H67 H 0.77072 0.21423 0.37737 0.0
H68 H 0.73179 0.2699 0.4062 0.0
C69 C 0.70952 0.27104 0.38379 0.0
O70 O 0.72433 0.26047 0.35044 0.0
H71 H 0.68484 0.2515 0.39193 0.0
C72 C 0.71959 0.14893 0.32429 0.0
C73 C 0.74734 0.16386 0.35016 0.0
C74 C 0.69432 0.17152 0.30627 0.0
C75 C 0.69634 0.20931 0.31478 0.0
C76 C 0.72363 0.22446 0.34076 0.0
C77 C 0.74949 0.20195 0.3577 0.0
H78 H 0.34192 0.69349 0.12499 0.0
H79 H 0.3305 0.67074 0.24238 0.0
H80 H 0.3829 0.77534 0.20635 0.0
H81 H 0.40651 0.76854 0.28809 0.0
C82 C 0.4 0.73899 0.28067 0.0
O83 O 0.36385 0.73486 0.26421 0.0
H84 H 0.42239 0.73208 0.26088 0.0
C85 C 0.34686 0.70201 0.15377 0.0
C86 C 0.36428 0.73742 0.16177 0.0
C87 C 0.33427 0.67794 0.1826 0.0
C88 C 0.34003 0.68907 0.21992 0.0
C89 C 0.35771 0.72417 0.22827 0.0
C90 C 0.36898 0.74844 0.1993 0.0
H91 H 0.14846 0.30268 0.70834 0.0
H92 H 0.24303 0.36721 0.76093 0.0
H93 H 0.25862 0.31503 0.65619 0.0
H94 H 0.31649 0.30819 0.71843 0.0
C95 C 0.32224 0.33863 0.72162 0.0
O96 O 0.29151 0.35666 0.70874 0.0
H97 H 0.32727 0.34479 0.75178 0.0
C98 C 0.17809 0.31385 0.70805 0.0
C99 C 0.20158 0.30559 0.67832 0.0
C100 C 0.1926 0.33611 0.73793 0.0
C101 C 0.23138 0.34944 0.73851 0.0
C102 C 0.25499 0.34153 0.70919 0.0
C103 C 0.24012 0.31997 0.67911 0.0
Zn104 Zn 0.99093 0.06984 0.55781 0.0
Zn105 Zn 0.06581 0.98372 0.47602 0.0
Zn106 Zn 0.02963 0.02614 0.51842 0.0
C107 C 0.09635 0.05541 0.46161 0.0
C108 C 0.99076 0.97362 0.45205 0.0
O109 O 0.02772 0.00313 0.57639 0.0
O110 O 0.99396 0.04253 0.6053 0.0
C111 C 0.05526 0.11257 0.53456 0.0
O112 O 0.07538 0.0618 0.48962 0.0
O113 O 0.09675 0.023 0.44931 0.0
O114 O 0.02216 0.96008 0.4473 0.0
O115 O 0.98824 0.99939 0.4763 0.0
O116 O 0.02506 0.11565 0.55231 0.0
O117 O 0.06144 0.08157 0.51942 0.0
O118 O 0.97081 0.02789 0.49321 0.0
O119 O 0.94203 0.06534 0.52971 0.0
C120 C 0.94128 0.04497 0.50125 0.0
O121 O 0.05422 0.98486 0.55598 0.0
O122 O 0.08877 0.95554 0.51676 0.0
C123 C 0.01164 0.01375 0.60609 0.0
C124 C 0.07806 0.96065 0.54963 0.0
Zn125 Zn 0.51181 0.05369 0.97046 0.0
Zn126 Zn 0.5897 0.96451 0.05226 0.0
Zn127 Zn 0.55031 0.00841 0.01081 0.0
C128 C 0.63822 0.98891 0.99599 0.0
C129 C 0.5237 0.92259 0.02697 0.0
O130 O 0.52817 0.05074 0.04821 0.0
O131 O 0.49759 0.08694 0.01047 0.0
C132 C 0.58547 0.05654 0.94175 0.0
O133 O 0.60868 0.00606 0.98689 0.0
O134 O 0.63775 0.96836 0.0244 0.0
O135 O 0.55385 0.91979 0.04625 0.0
O136 O 0.51779 0.95341 0.01093 0.0
O137 O 0.55383 0.07004 0.93657 0.0
O138 O 0.58953 0.03291 0.96809 0.0
O139 O 0.50136 0.97489 0.9829 0.0
O140 O 0.47169 0.01667 0.95128 0.0
C141 C 0.47422 0.98345 0.9605 0.0
O142 O 0.55617 0.0323 0.06796 0.0
O143 O 0.58949 0.99298 0.09917 0.0
C144 C 0.50776 0.07831 0.04311 0.0
C145 C 0.57324 0.02261 0.09822 0.0
Zn146 Zn 0.60376 0.57757 0.55497 0.0
Zn147 Zn 0.50578 0.49043 0.47216 0.0
Zn148 Zn 0.55473 0.53429 0.51415 0.0
C149 C 0.57846 0.48819 0.44185 0.0
C150 C 0.48067 0.5615 0.4697 0.0
O151 O 0.52875 0.58727 0.52251 0.0
O152 O 0.57094 0.6189 0.55934 0.0
C153 C 0.58598 0.514 0.5969 0.0
O154 O 0.5871 0.51193 0.46801 0.0
O155 O 0.54429 0.47479 0.43713 0.0
O156 O 0.47281 0.52952 0.45648 0.0
O157 O 0.50912 0.56783 0.49284 0.0
O158 O 0.60722 0.54384 0.59792 0.0
O159 O 0.56343 0.5065 0.56856 0.0
O160 O 0.6088 0.54293 0.48329 0.0
O161 O 0.64589 0.58133 0.51889 0.0
C162 C 0.64048 0.56297 0.48913 0.0
O163 O 0.53165 0.48845 0.54985 0.0
O164 O 0.48958 0.45615 0.5133 0.0
C165 C 0.53896 0.61618 0.54229 0.0
C166 C 0.50588 0.46136 0.54483 0.0
Zn167 Zn 0.10598 0.53747 0.97722 0.0
Zn168 Zn 0.01698 0.44896 0.06733 0.0
Zn169 Zn 0.06199 0.49393 0.02177 0.0
C170 C 0.09336 0.44767 0.09251 0.0
C171 C 0.00871 0.42159 0.99357 0.0
O172 O 0.03683 0.54803 0.0162 0.0
O173 O 0.07524 0.5806 0.97787 0.0
C174 C 0.15073 0.52082 0.03989 0.0
O175 O 0.09889 0.47158 0.06609 0.0
O176 O 0.06014 0.43321 0.09898 0.0
O177 O 0.99629 0.41574 0.02609 0.0
O178 O 0.03415 0.44854 0.9874 0.0
O179 O 0.15252 0.53873 0.00963 0.0
O180 O 0.11957 0.50156 0.04852 0.0
O181 O 0.06399 0.46659 0.9668 0.0
O182 O 0.10183 0.50477 0.93299 0.0
C183 C 0.08148 0.47461 0.93617 0.0
O184 O 0.01835 0.52704 0.04474 0.0
O185 O 0.98602 0.48936 0.08382 0.0
C186 C 0.04561 0.57778 0.9974 0.0
C187 C 0.99206 0.52091 0.06912 0.0
H188 H 0.26777 0.20181 0.35309 0.0
H189 H 0.16486 0.21123 0.28683 0.0
H190 H 0.23065 0.16477 0.39913 0.0
H191 H 0.12791 0.17492 0.33297 0.0
H192 H 0.09532 0.06122 0.38701 0.0
H193 H 0.12886 0.10775 0.34814 0.0
H194 H 0.17577 0.16438 0.44672 0.0
H195 H 0.14183 0.11695 0.486 0.0
C196 C 0.23719 0.19637 0.3486 0.0
C197 C 0.21933 0.2093 0.31616 0.0
C198 C 0.21591 0.17551 0.37515 0.0
C199 C 0.17641 0.16681 0.36958 0.0
C200 C 0.15836 0.18098 0.33791 0.0
C201 C 0.17952 0.20202 0.31159 0.0
C202 C 0.11256 0.08375 0.40048 0.0
C203 C 0.11575 0.08568 0.43957 0.0
C204 C 0.13154 0.11058 0.37818 0.0
C205 C 0.15472 0.13993 0.39431 0.0
C206 C 0.15798 0.14209 0.43353 0.0
C207 C 0.13831 0.11528 0.45602 0.0
H208 H 0.33514 0.92304 0.77571 0.0
H209 H 0.36439 0.81452 0.80855 0.0
H210 H 0.36586 0.94879 0.83219 0.0
H211 H 0.39528 0.84042 0.86564 0.0
H212 H 0.48974 0.91609 0.93332 0.0
H213 H 0.45132 0.87989 0.88626 0.0
H214 H 0.3604 0.95157 0.89821 0.0
H215 H 0.39933 0.98821 0.94381 0.0
C216 C 0.34747 0.9045 0.79535 0.0
C217 C 0.34702 0.86665 0.78756 0.0
C218 C 0.36514 0.91928 0.82793 0.0
C219 C 0.38282 0.89667 0.85385 0.0
C220 C 0.3822 0.85871 0.84625 0.0
C221 C 0.36449 0.84388 0.8135 0.0
C222 C 0.46107 0.92328 0.92665 0.0
C223 C 0.44767 0.95518 0.94179 0.0
C224 C 0.43904 0.90265 0.89958 0.0
C225 C 0.40314 0.91346 0.88756 0.0
C226 C 0.38839 0.94315 0.90578 0.0
C227 C 0.4105 0.96391 0.93229 0.0
H228 H 0.63436 0.32702 0.74249 0.0
H229 H 0.72419 0.41499 0.75537 0.0
H230 H 0.59954 0.36554 0.69957 0.0
H231 H 0.69003 0.45329 0.71228 0.0
H232 H 0.60707 0.5281 0.66885 0.0
H233 H 0.63145 0.4852 0.71376 0.0
H234 H 0.6035 0.39531 0.63677 0.0
H235 H 0.57848 0.43848 0.59177 0.0
C236 C 0.64666 0.35455 0.73589 0.0
C237 C 0.68151 0.36847 0.75263 0.0
C238 C 0.62684 0.37651 0.71134 0.0
C239 C 0.64164 0.41271 0.70314 0.0
C240 C 0.67732 0.4259 0.71883 0.0
C241 C 0.69707 0.40397 0.74322 0.0
C242 C 0.60529 0.49903 0.66184 0.0
C243 C 0.59121 0.48667 0.62671 0.0
C244 C 0.61959 0.47452 0.68742 0.0
C245 C 0.62043 0.43707 0.67837 0.0
C246 C 0.6034 0.42406 0.64447 0.0
C247 C 0.58886 0.44872 0.61879 0.0
H248 H 0.89854 0.72597 0.13774 0.0
H249 H 0.85165 0.63928 0.21003 0.0
H250 H 0.9287 0.68054 0.10067 0.0
H251 H 0.88277 0.59398 0.17423 0.0
H252 H 0.91794 0.51482 0.08998 0.0
H253 H 0.88212 0.56236 0.11677 0.0
H254 H 0.98025 0.6417 0.10504 0.0
H255 H 0.01557 0.59411 0.07729 0.0
C256 C 0.89464 0.69712 0.14554 0.0
C257 C 0.87272 0.68595 0.17657 0.0
C258 C 0.9121 0.67113 0.12453 0.0
C259 C 0.90819 0.63351 0.13435 0.0
C260 C 0.88584 0.62252 0.16529 0.0
C261 C 0.86821 0.64843 0.18602 0.0
C262 C 0.93162 0.54257 0.09273 0.0
C263 C 0.96946 0.55084 0.08151 0.0
C264 C 0.91122 0.56979 0.10829 0.0
C265 C 0.9284 0.60583 0.11361 0.0
C266 C 0.9659 0.61439 0.10106 0.0
C267 C 0.98621 0.58714 0.08515 0.0
H268 H 0.33607 0.11298 0.19659 0.0
H269 H 0.38319 0.22499 0.17911 0.0
H270 H 0.38981 0.09013 0.16484 0.0
H271 H 0.4381 0.20223 0.14823 0.0
H272 H 0.48495 0.14779 0.04311 0.0
H273 H 0.44648 0.17525 0.08917 0.0
H274 H 0.45614 0.08093 0.16133 0.0
H275 H 0.49348 0.05268 0.11411 0.0
C276 C 0.35865 0.1327 0.18695 0.0
C277 C 0.35564 0.17077 0.19065 0.0
C278 C 0.38968 0.1196 0.16887 0.0
C279 C 0.41847 0.14425 0.15377 0.0
C280 C 0.4163 0.1824 0.15907 0.0
C281 C 0.38508 0.1955 0.17706 0.0
C282 C 0.47953 0.1332 0.06914 0.0
C283 C 0.49218 0.09796 0.07485 0.0
C284 C 0.45763 0.14913 0.0958 0.0
C285 C 0.44772 0.13024 0.12899 0.0
C286 C 0.46265 0.09604 0.13584 0.0
C287 C 0.48453 0.08001 0.10899 0.0
H288 H 0.26972 0.86822 0.62892 0.0
H289 H 0.21432 0.87144 0.73532 0.0
H290 H 0.2144 0.89136 0.59836 0.0
H291 H 0.15879 0.89613 0.70422 0.0
H292 H 0.09797 0.98404 0.62106 0.0
H293 H 0.14328 0.95592 0.6635 0.0
H294 H 0.14506 0.86381 0.58818 0.0
H295 H 0.10042 0.89164 0.54616 0.0
C296 C 0.24558 0.87344 0.64585 0.0
C297 C 0.24631 0.86704 0.68458 0.0
C298 C 0.21387 0.88694 0.62827 0.0
C299 C 0.182 0.89494 0.64881 0.0
C300 C 0.18295 0.89001 0.68772 0.0
C301 C 0.21478 0.87599 0.70546 0.0
C302 C 0.10706 0.95719 0.61434 0.0
C303 C 0.09612 0.94024 0.58008 0.0
C304 C 0.13305 0.94118 0.63854 0.0
C305 C 0.14831 0.90811 0.62864 0.0
C306 C 0.13438 0.88967 0.59614 0.0
C307 C 0.1087 0.90556 0.57215 0.0
H308 H 0.86999 0.26562 0.84924 0.0
H309 H 0.82484 0.37253 0.84635 0.0
H310 H 0.92645 0.29243 0.88379 0.0
H311 H 0.88168 0.39916 0.87932 0.0
H312 H 0.99694 0.44376 0.92159 0.0
H313 H 0.95394 0.41243 0.87489 0.0
H314 H 0.93411 0.3195 0.94932 0.0
H315 H 0.97703 0.35072 0.99587 0.0
C316 C 0.87212 0.29481 0.85563 0.0
C317 C 0.84259 0.31678 0.84497 0.0
C318 C 0.90462 0.31016 0.87517 0.0
C319 C 0.90858 0.34792 0.88401 0.0
C320 C 0.87981 0.37012 0.87225 0.0
C321 C 0.84715 0.35474 0.85323 0.0
C322 C 0.98443 0.41614 0.92745 0.0
C323 C 0.99023 0.39972 0.96241 0.0
C324 C 0.95954 0.39837 0.90087 0.0
C325 C 0.94039 0.36369 0.90863 0.0
C326 C 0.94858 0.3461 0.94244 0.0
C327 C 0.97303 0.36405 0.96916 0.0
H328 H 0.7638 0.65412 0.29592 0.0
H329 H 0.81671 0.69985 0.39748 0.0
H330 H 0.72518 0.60887 0.33243 0.0
H331 H 0.77621 0.65694 0.43386 0.0
H332 H 0.71767 0.56859 0.49743 0.0
H333 H 0.76358 0.59645 0.4534 0.0
H334 H 0.67221 0.60376 0.37148 0.0
H335 H 0.62701 0.57352 0.41498 0.0
C336 C 0.76729 0.65456 0.326 0.0
C337 C 0.79331 0.68097 0.34365 0.0
C338 C 0.74477 0.62879 0.34701 0.0
C339 C 0.74744 0.62895 0.38624 0.0
C340 C 0.77372 0.65521 0.40375 0.0
C341 C 0.7965 0.68057 0.3828 0.0
C342 C 0.70781 0.57497 0.46948 0.0
C343 C 0.66888 0.56925 0.45961 0.0
C344 C 0.73395 0.59149 0.44439 0.0
C345 C 0.72152 0.60372 0.40924 0.0
C346 C 0.68302 0.59485 0.39823 0.0
C347 C 0.65699 0.57742 0.42313 0.0
H348 H 0.25629 0.29295 0.16193 0.0
H349 H 0.20655 0.33014 0.26302 0.0
H350 H 0.22848 0.34122 0.12725 0.0
H351 H 0.17464 0.37533 0.22739 0.0
H352 H 0.12675 0.46454 0.16076 0.0
H353 H 0.17201 0.42882 0.19499 0.0
H354 H 0.17247 0.3543 0.10098 0.0
H355 H 0.13023 0.39201 0.06648 0.0
C356 C 0.23961 0.31138 0.17705 0.0
C357 C 0.23364 0.30688 0.21561 0.0
C358 C 0.22277 0.33887 0.15675 0.0
C359 C 0.19832 0.36215 0.17396 0.0
C360 C 0.19336 0.35846 0.21275 0.0
C361 C 0.21113 0.33166 0.23327 0.0
C362 C 0.13789 0.44127 0.14722 0.0
C363 C 0.12579 0.43131 0.11085 0.0
C364 C 0.16329 0.42026 0.16699 0.0
C365 C 0.17596 0.38801 0.15126 0.0
C366 C 0.16444 0.3791 0.1142 0.0
C367 C 0.13997 0.40065 0.09424 0.0
H368 H 0.78498 0.18549 0.84494 0.0
H369 H 0.67901 0.23777 0.83767 0.0
H370 H 0.75005 0.12963 0.87036 0.0
H371 H 0.64475 0.18236 0.86129 0.0
H372 H 0.66028 0.07219 0.96415 0.0
H373 H 0.70768 0.1136 0.93164 0.0
H374 H 0.6305 0.11594 0.83646 0.0
H375 H 0.58331 0.07525 0.86887 0.0
C376 C 0.75439 0.18507 0.84854 0.0
C377 C 0.73471 0.21589 0.83842 0.0
C378 C 0.73449 0.15312 0.8629 0.0
C379 C 0.69464 0.15146 0.86689 0.0
C380 C 0.6753 0.18245 0.85743 0.0
C381 C 0.69502 0.21423 0.84368 0.0
C382 C 0.65421 0.08037 0.9357 0.0
C383 C 0.618 0.0711 0.91915 0.0
C384 C 0.68128 0.10407 0.91715 0.0
C385 C 0.67229 0.11851 0.88192 0.0
C386 C 0.63782 0.10567 0.86387 0.0
C387 C 0.61087 0.08237 0.88238 0.0
H388 H 0.81077 0.81739 0.35698 0.0
H389 H 0.92251 0.80563 0.31231 0.0
H390 H 0.83589 0.87483 0.38775 0.0
H391 H 0.94689 0.8627 0.34193 0.0
H392 H 0.92466 0.93758 0.47675 0.0
H393 H 0.88315 0.89296 0.43994 0.0
H394 H 0.94233 0.92931 0.34015 0.0
H395 H 0.9843 0.97265 0.37717 0.0
C396 C 0.84052 0.82707 0.35345 0.0
C397 C 0.86448 0.80684 0.33183 0.0
C398 C 0.85481 0.86005 0.37097 0.0
C399 C 0.89323 0.87365 0.36687 0.0
C400 C 0.91687 0.85366 0.34486 0.0
C401 C 0.90279 0.82077 0.32774 0.0
C402 C 0.92752 0.93701 0.44672 0.0
C403 C 0.95763 0.95823 0.42967 0.0
C404 C 0.90391 0.9114 0.42563 0.0
C405 C 0.91016 0.90695 0.38727 0.0
C406 C 0.93743 0.93144 0.36978 0.0
C407 C 0.96117 0.95655 0.39084 0.0
H408 H 0.44312 0.77851 0.67194 0.0
H409 H 0.35605 0.76178 0.58554 0.0
H410 H 0.48026 0.73339 0.64222 0.0
H411 H 0.39343 0.71677 0.55521 0.0
H412 H 0.46022 0.61015 0.53913 0.0
H413 H 0.4183 0.65482 0.56299 0.0
H414 H 0.51688 0.73179 0.58499 0.0
H415 H 0.55842 0.6874 0.56163 0.0
C416 C 0.43199 0.76503 0.64658 0.0
C417 C 0.39719 0.77402 0.63062 0.0
C418 C 0.45329 0.73943 0.62936 0.0
C419 C 0.44016 0.72202 0.59588 0.0
C420 C 0.40439 0.72976 0.58086 0.0
C421 C 0.38308 0.75554 0.59812 0.0
C422 C 0.47274 0.63698 0.54818 0.0
C423 C 0.51265 0.64513 0.54879 0.0
C424 C 0.44877 0.6625 0.56202 0.0
C425 C 0.46438 0.6965 0.57677 0.0
C426 C 0.50403 0.70545 0.57488 0.0
C427 C 0.52783 0.6801 0.56116 0.0
H428 H 0.97277 0.94066 0.83479 0.0
H429 H 0.90782 0.8628 0.76281 0.0
H430 H 0.00717 0.96712 0.78108 0.0
H431 H 0.94083 0.8901 0.70846 0.0
H432 H 0.01353 0.9386 0.61546 0.0
H433 H 0.99811 0.9034 0.67256 0.0
H434 H 0.98988 0.00558 0.73194 0.0
H435 H 0.00622 0.04006 0.67594 0.0
C436 C 0.96613 0.92916 0.80733 0.0
C437 C 0.93762 0.90004 0.80264 0.0
C438 C 0.98564 0.94432 0.77652 0.0
C439 C 0.97654 0.93111 0.74021 0.0
C440 C 0.94899 0.90077 0.73592 0.0
C441 C 0.9298 0.88531 0.76691 0.0
C442 C 0.00959 0.95335 0.64109 0.0
C443 C 0.01082 0.99206 0.64117 0.0
C444 C 1.00028 0.93324 0.6737 0.0
C445 C 0.9923 0.95155 0.70692 0.0
C446 C 0.99617 0.99033 0.70725 0.0
C447 C 0.00532 0.01023 0.67491 0.0
H448 H 0.68757 0.19072 0.23319 0.0
H449 H 0.63883 0.11557 0.31607 0.0
H450 H 0.64889 0.15767 0.18462 0.0
H451 H 0.59821 0.08361 0.26815 0.0
H452 H 0.58689 1.00257 0.16981 0.0
H453 H 0.6083 0.04216 0.22148 0.0
H454 H 0.59107 0.13824 0.15379 0.0
H455 H 0.57202 0.09804 0.10097 0.0
C456 C 0.66766 0.1677 0.24104 0.0
C457 C 0.6664 0.15531 0.27812 0.0
C458 C 0.64523 0.14883 0.21328 0.0
C459 C 0.62059 0.11749 0.22218 0.0
C460 C 0.61753 0.10691 0.25994 0.0
C461 C 0.64055 0.12531 0.2875 0.0
C462 C 0.58704 0.03214 0.16609 0.0
C463 C 0.57775 0.04711 0.13123 0.0
C464 C 0.59903 0.05503 0.19597 0.0
C465 C 0.60178 0.09366 0.19202 0.0
C466 C 0.59 0.10866 0.15778 0.0
C467 C 0.5784 0.08561 0.12761 0.0
H468 H 0.39121 0.66385 0.28379 0.0
H469 H 0.416 0.75979 0.3534 0.0
H470 H 0.40346 0.624 0.33679 0.0
H471 H 0.42817 0.71998 0.4068 0.0
H472 H 0.50619 0.63457 0.46379 0.0
H473 H 0.47918 0.68005 0.42325 0.0
H474 H 0.38204 0.60228 0.39804 0.0
H475 H 0.40922 0.55674 0.43828 0.0
C476 C 0.39834 0.67629 0.31074 0.0
C477 C 0.40243 0.71476 0.31461 0.0
C478 C 0.40528 0.65355 0.34117 0.0
C479 C 0.41674 0.66883 0.37612 0.0
C480 C 0.41963 0.70739 0.38023 0.0
C481 C 0.41248 0.73014 0.34976 0.0
C482 C 0.47842 0.62764 0.45069 0.0
C483 C 0.46003 0.59195 0.45393 0.0
C484 C 0.46295 0.6537 0.42732 0.0
C485 C 0.42882 0.64449 0.4068 0.0
C486 C 0.40881 0.60992 0.41278 0.0
C487 C 0.42427 0.58392 0.43602 0.0
H488 H 0.12264 0.36244 0.72831 0.0
H489 H 0.20467 0.33598 0.81357 0.0
H490 H 0.08392 0.38872 0.77573 0.0
H491 H 0.16598 0.36233 0.86095 0.0
H492 H 0.08212 0.3998 0.94206 0.0
H493 H 0.10052 0.35812 0.89316 0.0
H494 H 0.10146 0.44728 0.81327 0.0
H495 H 0.08376 0.48875 0.86198 0.0
C496 C 0.13192 0.36147 0.75729 0.0
C497 C 0.16682 0.34746 0.76727 0.0
C498 C 0.10981 0.37659 0.78436 0.0
C499 C 0.12194 0.37755 0.82198 0.0
C500 C 0.1557 0.36158 0.83223 0.0
C501 C 0.17806 0.34689 0.8051 0.0
C502 C 0.08502 0.41004 0.91375 0.0
C503 C 0.08189 0.44749 0.90574 0.0
C504 C 0.09581 0.38632 0.8859 0.0
C505 C 0.10277 0.39959 0.84956 0.0
C506 C 0.09611 0.43621 0.84095 0.0
C507 C 0.08609 0.45999 0.86885 0.0
H508 H 0.84788 0.90869 0.9527 0.0
H509 H 0.81247 0.93269 0.83969 0.0
H510 H 0.79489 0.93929 0.97624 0.0
H511 H 0.76054 0.96585 0.86347 0.0
H512 H 0.64263 0.97105 0.92251 0.0
H513 H 0.70017 0.95478 0.89135 0.0
H514 H 0.76885 0.99459 0.98689 0.0
H515 H 0.71102 0.00834 0.0185 0.0
C516 C 0.82893 0.92073 0.93278 0.0
C517 C 0.83434 0.91764 0.89421 0.0
C518 C 0.79876 0.93906 0.94636 0.0
C519 C 0.77323 0.95545 0.92187 0.0
C520 C 0.77927 0.95335 0.88325 0.0
C521 C 0.8094 0.93464 0.86959 0.0
C522 C 0.67025 0.97728 0.93618 0.0
C523 C 0.67256 0.99066 0.97289 0.0
C524 C 0.70333 0.96792 0.91842 0.0
C525 C 0.7393 0.97231 0.93697 0.0
C526 C 0.74165 0.98946 0.97221 0.0
C527 C 0.7086 0.99795 0.99017 0.0
H528 H 0.78451 0.10658 0.3222 0.0
H529 H 0.76814 0.16605 0.42392 0.0
H530 H 0.8267 0.06718 0.35603 0.0
H531 H 0.81109 0.12803 0.45713 0.0
H532 H 0.867 0.04556 0.51963 0.0
H533 H 0.8159 0.06693 0.48041 0.0
H534 H 0.89038 0.07118 0.38573 0.0
H535 H 0.9411 0.04823 0.425 0.0
C536 C 0.78976 0.11115 0.35177 0.0
C537 C 0.77306 0.13962 0.37032 0.0
C538 C 0.81414 0.08873 0.37108 0.0
C539 C 0.82209 0.09413 0.4094 0.0
C540 C 0.80509 0.12246 0.42783 0.0
C541 C 0.78088 0.14478 0.40862 0.0
C542 C 0.87193 0.04976 0.49011 0.0
C543 C 0.90806 0.04567 0.4754 0.0
C544 C 0.84284 0.06246 0.46771 0.0
C545 C 0.84945 0.07205 0.43022 0.0
C546 C 0.88434 0.06426 0.41453 0.0
C547 C 0.9134 0.05096 0.43697 0.0
H548 H 0.35844 0.62202 0.14139 0.0
H549 H 0.26154 0.65468 0.20104 0.0
H550 H 0.31892 0.56972 0.11462 0.0
H551 H 0.22121 0.60397 0.17282 0.0
H552 H 0.14937 0.5167 0.11624 0.0
H553 H 0.19921 0.54241 0.15963 0.0
H554 H 0.27357 0.56798 0.0666 0.0
H555 H 0.2249 0.54046 0.0242 0.0
C556 C 0.32876 0.61748 0.14923 0.0
C557 C 0.31281 0.64237 0.17291 0.0
C558 C 0.30598 0.58773 0.13373 0.0
C559 C 0.26652 0.58292 0.14076 0.0
C560 C 0.25143 0.60636 0.16687 0.0
C561 C 0.27445 0.63565 0.18296 0.0
C562 C 0.17706 0.52617 0.10543 0.0
C563 C 0.18316 0.52672 0.06683 0.0
C564 C 0.20546 0.54156 0.13021 0.0
C565 C 0.24031 0.55811 0.11673 0.0
C566 C 0.24743 0.5554 0.07838 0.0
C567 C 0.21928 0.53981 0.05382 0.0
H568 H 0.38989 0.37657 0.74532 0.0
H569 H 0.33144 0.32954 0.64736 0.0
H570 H 0.44331 0.40081 0.70699 0.0
H571 H 0.38337 0.35497 0.60872 0.0
H572 H 0.48307 0.38827 0.54335 0.0
H573 H 0.44638 0.35315 0.59039 0.0
H574 H 0.45744 0.44831 0.66314 0.0
H575 H 0.49614 0.48248 0.61671 0.0
C576 C 0.38868 0.37127 0.71557 0.0
C577 C 0.35665 0.35129 0.69913 0.0
C578 C 0.41911 0.38532 0.69357 0.0
C579 C 0.41787 0.37994 0.65465 0.0
C580 C 0.386 0.35909 0.6386 0.0
C581 C 0.35593 0.34477 0.66061 0.0
C582 C 0.47852 0.40122 0.56989 0.0
C583 C 0.49194 0.43814 0.57631 0.0
C584 C 0.45715 0.38128 0.59672 0.0
C585 C 0.44778 0.39817 0.63019 0.0
C586 C 0.464 0.43425 0.6378 0.0
C587 C 0.48617 0.45396 0.61117 0.0
H588 H 0.88783 0.70437 0.88618 0.0
H589 H 0.94031 0.7854 0.96336 0.0
H590 H 0.92071 0.65627 0.91806 0.0
H591 H 0.97345 0.73737 0.99509 0.0
H592 H 0.06667 0.65098 0.99216 0.0
H593 H 0.02618 0.69981 0.97527 0.0
H594 H 0.9264 0.6217 0.97899 0.0
H595 H 0.96727 0.57258 0.99603 0.0
C596 C 0.90646 0.71185 0.90993 0.0
C597 C 0.91258 0.74883 0.92135 0.0
C598 C 0.92492 0.68428 0.92847 0.0
C599 C 0.94985 0.69306 0.95898 0.0
C600 C 0.95478 0.72985 0.97137 0.0
C601 C 0.93599 0.75737 0.95305 0.0
C602 C 0.03598 0.64444 0.99029 0.0
C603 C 0.0201 0.60802 0.99534 0.0
C604 C 0.01276 0.67244 0.98074 0.0
C605 C 0.97313 0.66455 0.97544 0.0
C606 C 0.95692 0.62849 0.98252 0.0
C607 C 0.98021 0.60048 0.99261 0.0
H608 H 0.36078 0.81224 0.15582 0.0
H609 H 0.40072 0.71911 0.09842 0.0
H610 H 0.39232 0.85387 0.11056 0.0
H611 H 0.43074 0.76066 0.05208 0.0
H612 H 0.53376 0.84995 0.03429 0.0
H613 H 0.48734 0.80244 0.0572 0.0
H614 H 0.39883 0.87762 0.04714 0.0
H615 H 0.44597 0.92571 0.02469 0.0
C616 C 0.37581 0.80059 0.13322 0.0
C617 C 0.3788 0.76236 0.13122 0.0
C618 C 0.39336 0.82445 0.10683 0.0
C619 C 0.41428 0.81065 0.07772 0.0
C620 C 0.41521 0.77223 0.07438 0.0
C621 C 0.39775 0.74838 0.10084 0.0
C622 C 0.50412 0.85597 0.03575 0.0
C623 C 0.4936 0.89166 0.02826 0.0
C624 C 0.47737 0.82863 0.04878 0.0
C625 C 0.43944 0.8364 0.05475 0.0
C626 C 0.42801 0.871 0.04351 0.0
C627 C 0.45489 0.89841 0.0302 0.0
H628 H 0.23719 0.25397 0.63892 0.0
H629 H 0.13011 0.30372 0.64568 0.0
H630 H 0.20935 0.21201 0.59104 0.0
H631 H 0.10141 0.25994 0.60059 0.0
H632 H 0.05094 0.1848 0.51696 0.0
H633 H 0.09335 0.23639 0.54108 0.0
H634 H 0.16762 0.15907 0.58923 0.0
H635 H 0.12647 0.1082 0.56276 0.0
C636 C 0.20781 0.25624 0.63003 0.0
C637 C 0.18575 0.28192 0.64679 0.0
C638 C 0.19165 0.23179 0.60281 0.0
C639 C 0.15287 0.23203 0.59201 0.0
C640 C 0.13144 0.25892 0.60757 0.0
C641 C 0.14774 0.28369 0.63425 0.0
C642 C 0.07732 0.17919 0.53127 0.0
C643 C 0.0857 0.14276 0.53793 0.0
C644 C 0.10135 0.20863 0.54567 0.0
C645 C 0.13346 0.20208 0.56822 0.0
C646 C 0.14343 0.16553 0.57195 0.0
C647 C 0.11984 0.13618 0.55677 0.0
H648 H 0.63922 0.29129 0.36251 0.0
H649 H 0.75117 0.33702 0.39892 0.0
H650 H 0.61509 0.35172 0.36762 0.0
H651 H 0.72758 0.39831 0.403 0.0
H652 H 0.64984 0.47534 0.46753 0.0
H653 H 0.68785 0.42762 0.44458 0.0
H654 H 0.61271 0.41309 0.34763 0.0
H655 H 0.57378 0.45959 0.3717 0.0
C656 C 0.65883 0.31462 0.37082 0.0
C657 C 0.69674 0.30948 0.38111 0.0
C658 C 0.64518 0.34945 0.37346 0.0
C659 C 0.66928 0.38014 0.38603 0.0
C660 C 0.70801 0.3753 0.39388 0.0
C661 C 0.72161 0.3403 0.39137 0.0
C662 C 0.64231 0.46294 0.44063 0.0
C663 C 0.60847 0.47068 0.42173 0.0
C664 C 0.6641 0.4354 0.42741 0.0
C665 C 0.6527 0.41553 0.39475 0.0
C666 C 0.62159 0.42683 0.37354 0.0
C667 C 0.59952 0.45384 0.38707 0.0
loop_
_geom_bond_atom_site_label_1
_geom_bond_atom_site_label_2
_geom_bond_distance
_geom_bond_site_symmetry_2
_ccdc_geom_bond_type
H0 C7 0.929 . S
H1 C10 0.930 . S
H2 C12 0.929 . S
H3 C4 0.969 . S
C4 H3 0.969 . S
C4 O5 1.550 . S
C4 H6 0.973 . S
O5 C4 1.550 . S
O5 C11 1.412 . S
H6 C4 0.973 . S
C7 H0 0.929 . S
C7 C8 1.400 . S
C7 C9 1.364 . S
C8 C7 1.400 . S
C8 C12 1.377 . S
C9 C7 1.364 . S
C9 C10 1.374 . S
C10 H1 0.930 . S
C10 C9 1.374 . S
C10 C11 1.383 . S
C11 O5 1.412 . S
C11 C10 1.383 . S
C11 C12 1.394 . S
C12 H2 0.929 . S
C12 C8 1.377 . S
C12 C11 1.394 . S
H13 C20 0.929 . S
H14 C23 0.930 . S
H15 C25 0.929 . S
H16 C17 0.969 . S
C17 H16 0.969 . S
C17 O18 1.550 . S
C17 H19 0.973 . S
O18 C17 1.550 . S
O18 C24 1.412 . S
H19 C17 0.973 . S
C20 H13 0.929 . S
C20 C21 1.400 . S
C20 C22 1.364 . S
C21 C20 1.400 . S
C21 C25 1.377 . S
C22 C20 1.364 . S
C22 C23 1.374 . S
C23 H14 0.930 . S
C23 C22 1.374 . S
C23 C24 1.383 . S
C24 O18 1.412 . S
C24 C23 1.383 . S
C24 C25 1.394 . S
C25 H15 0.929 . S
C25 C21 1.377 . S
C25 C24 1.394 . S
H26 C33 0.929 . S
H27 C36 0.930 . S
H28 C38 0.929 . S
H29 C30 0.969 . S
C30 H29 0.969 . S
C30 O31 1.550 . S
C30 H32 0.973 . S
O31 C30 1.550 . S
O31 C37 1.412 . S
H32 C30 0.973 . S
C33 H26 0.929 . S
C33 C34 1.400 . S
C33 C35 1.364 . S
C34 C33 1.400 . S
C34 C38 1.377 . S
C35 C33 1.364 . S
C35 C36 1.374 . S
C36 H27 0.930 . S
C36 C35 1.374 . S
C36 C37 1.383 . S
C37 O31 1.412 . S
C37 C36 1.383 . S
C37 C38 1.394 . S
C38 H28 0.929 . S
C38 C34 1.377 . S
C38 C37 1.394 . S
H39 C46 0.929 . S
H40 C49 0.930 . S
H41 C51 0.929 . S
H42 C43 0.969 . S
C43 H42 0.969 . S
C43 O44 1.550 . S
C43 H45 0.973 . S
O44 C43 1.550 . S
O44 C50 1.412 . S
H45 C43 0.973 . S
C46 H39 0.929 . S
C46 C47 1.400 . S
C46 C48 1.364 . S
C47 C46 1.400 . S
C47 C51 1.377 . S
C48 C46 1.364 . S
C48 C49 1.374 . S
C49 H40 0.930 . S
C49 C48 1.374 . S
C49 C50 1.383 . S
C50 O44 1.412 . S
C50 C49 1.383 . S
C50 C51 1.394 . S
C51 H41 0.929 . S
C51 C47 1.377 . S
C51 C50 1.394 . S
H52 C59 0.929 . S
H53 C62 0.930 . S
H54 C64 0.929 1_455 S
H55 C56 0.969 . S
C56 H55 0.969 . S
C56 O57 1.550 1_655 S
C56 H58 1.001 . S
O57 C56 1.550 1_455 S
O57 C63 1.412 1_455 S
H58 C56 1.001 . S
C59 H52 0.929 . S
C59 C60 1.400 . S
C59 C61 1.364 . S
C60 C59 1.400 . S
C60 C64 1.377 . S
C61 C59 1.364 . S
C61 C62 1.374 . S
C62 H53 0.930 . S
C62 C61 1.374 . S
C62 C63 1.383 . S
C63 O57 1.412 1_655 S
C63 C62 1.383 . S
C63 C64 1.394 . S
C64 H54 0.929 1_655 S
C64 C60 1.377 . S
C64 C63 1.394 . S
H65 C72 0.929 . S
H66 C75 0.930 . S
H67 C77 0.929 . S
H68 C69 0.969 . S
C69 H68 0.969 . S
C69 O70 1.550 . S
C69 H71 0.973 . S
O70 C69 1.550 . S
O70 C76 1.412 . S
H71 C69 0.973 . S
C72 H65 0.929 . S
C72 C73 1.400 . S
C72 C74 1.364 . S
C73 C72 1.400 . S
C73 C77 1.377 . S
C74 C72 1.364 . S
C74 C75 1.374 . S
C75 H66 0.930 . S
C75 C74 1.374 . S
C75 C76 1.383 . S
C76 O70 1.412 . S
C76 C75 1.383 . S
C76 C77 1.394 . S
C77 H67 0.929 . S
C77 C73 1.377 . S
C77 C76 1.394 . S
H78 C85 0.929 . S
H79 C88 0.930 . S
H80 C90 0.929 . S
H81 C82 0.969 . S
C82 H81 0.969 . S
C82 O83 1.550 . S
C82 H84 0.973 . S
O83 C82 1.550 . S
O83 C89 1.412 . S
H84 C82 0.973 . S
C85 H78 0.929 . S
C85 C86 1.400 . S
C85 C87 1.364 . S
C86 C85 1.400 . S
C86 C90 1.377 . S
C87 C85 1.364 . S
C87 C88 1.374 . S
C88 H79 0.930 . S
C88 C87 1.374 . S
C88 C89 1.383 . S
C89 O83 1.412 . S
C89 C88 1.383 . S
C89 C90 1.394 . S
C90 H80 0.929 . S
C90 C86 1.377 . S
C90 C89 1.394 . S
H91 C98 0.929 . S
H92 C101 0.930 . S
H93 C103 0.929 . S
H94 C95 0.969 . S
C95 H94 0.969 . S
C95 O96 1.550 . S
C95 H97 0.973 . S
O96 C95 1.550 . S
O96 C102 1.412 . S
H97 C95 0.973 . S
C98 H91 0.929 . S
C98 C99 1.400 . S
C98 C100 1.364 . S
C99 C98 1.400 . S
C99 C103 1.377 . S
C100 C98 1.364 . S
C100 C101 1.374 . S
C101 H92 0.930 . S
C101 C100 1.374 . S
C101 C102 1.383 . S
C102 O96 1.412 . S
C102 C101 1.383 . S
C102 C103 1.394 . S
C103 H93 0.929 . S
C103 C99 1.377 . S
C103 C102 1.394 . S
Zn104 O110 1.920 . S
Zn104 O116 1.898 . S
Zn104 O119 1.905 . S
Zn105 O113 1.905 1_565 S
Zn105 O114 1.898 . S
Zn105 O122 1.920 . S
Zn106 O109 2.080 1_455 S
Zn106 O112 2.114 . S
Zn106 O115 2.120 1_445 S
Zn106 O117 2.120 . S
Zn106 O118 2.114 1_455 S
Zn106 O121 2.080 . S
C107 O112 1.166 . S
C107 O113 1.182 . S
C108 O114 1.167 1_655 S
C108 O115 1.299 . S
O109 Zn106 2.080 1_655 S
O109 C123 1.305 . S
O110 Zn104 1.920 . S
O110 C123 1.234 . S
C111 O116 1.167 1_455 S
C111 O117 1.299 . S
O112 Zn106 2.114 . S
O112 C107 1.166 . S
O113 Zn105 1.905 1_545 S
O113 C107 1.182 . S
O114 Zn105 1.898 . S
O114 C108 1.167 1_455 S
O115 Zn106 2.120 1_665 S
O115 C108 1.299 . S
O116 Zn104 1.898 . S
O116 C111 1.167 1_655 S
O117 Zn106 2.120 . S
O117 C111 1.299 . S
O118 Zn106 2.114 1_655 S
O118 C120 1.166 . S
O119 Zn104 1.905 . S
O119 C120 1.182 . S
C120 O118 1.166 . S
C120 O119 1.182 . S
O121 Zn106 2.080 . S
O121 C124 1.305 1_545 S
O122 Zn105 1.920 . S
O122 C124 1.234 . S
C123 O109 1.305 . S
C123 O110 1.234 . S
C124 O121 1.305 1_565 S
C124 O122 1.234 . S
Zn125 O131 1.920 1_556 S
Zn125 O137 1.898 . S
Zn125 O140 1.905 . S
Zn126 O134 1.905 . S
Zn126 O135 1.898 . S
Zn126 O143 1.920 . S
Zn127 O130 2.080 . S
Zn127 O133 2.114 1_545 S
Zn127 O136 2.120 1_545 S
Zn127 O138 2.129 . S
Zn127 O139 2.114 1_544 S
Zn127 O142 2.080 . S
C128 O133 1.166 . S
C128 O134 1.182 . S
C129 O135 1.167 . S
C129 O136 1.299 . S
O130 Zn127 2.080 . S
O130 C144 1.305 . S
O131 Zn125 1.920 1_554 S
O131 C144 1.234 . S
C132 O137 1.167 . S
C132 O138 1.274 1_556 S
O133 Zn127 2.114 1_565 S
O133 C128 1.166 . S
O134 Zn126 1.905 . S
O134 C128 1.182 . S
O135 Zn126 1.898 . S
O135 C129 1.167 . S
O136 Zn127 2.120 1_565 S
O136 C129 1.299 . S
O137 Zn125 1.898 . S
O137 C132 1.167 . S
O138 Zn127 2.129 . S
O138 C132 1.274 1_554 S
O139 Zn127 2.114 1_566 S
O139 C141 1.166 . S
O140 Zn125 1.905 . S
O140 C141 1.182 1_545 S
C141 O139 1.166 . S
C141 O140 1.182 1_565 S
O142 Zn127 2.080 . S
O142 C145 1.305 . S
O143 Zn126 1.920 . S
O143 C145 1.234 1_565 S
C144 O130 1.305 . S
C144 O131 1.234 . S
C145 O142 1.305 . S
C145 O143 1.234 1_545 S
Zn146 O152 1.920 . S
Zn146 O158 1.898 . S
Zn146 O161 1.905 . S
Zn147 O155 1.905 . S
Zn147 O156 1.898 . S
Zn147 O164 1.920 . S
Zn148 O151 2.080 . S
Zn148 O154 2.114 . S
Zn148 O157 2.120 . S
Zn148 O159 2.120 . S
Zn148 O160 2.114 . S
Zn148 O163 2.080 . S
C149 O154 1.166 . S
C149 O155 1.182 . S
C150 O156 1.167 . S
C150 O157 1.299 . S
O151 Zn148 2.080 . S
O151 C165 1.305 . S
O152 Zn146 1.920 . S
O152 C165 1.234 . S
C153 O158 1.167 . S
C153 O159 1.299 . S
O154 Zn148 2.114 . S
O154 C149 1.166 . S
O155 Zn147 1.905 . S
O155 C149 1.182 . S
O156 Zn147 1.898 . S
O156 C150 1.167 . S
O157 Zn148 2.120 . S
O157 C150 1.299 . S
O158 Zn146 1.898 . S
O158 C153 1.167 . S
O159 Zn148 2.120 . S
O159 C153 1.299 . S
O160 Zn148 2.114 . S
O160 C162 1.166 . S
O161 Zn146 1.905 . S
O161 C162 1.182 . S
C162 O160 1.166 . S
C162 O161 1.182 . S
O163 Zn148 2.080 . S
O163 C166 1.305 . S
O164 Zn147 1.920 . S
O164 C166 1.234 . S
C165 O151 1.305 . S
C165 O152 1.234 . S
C166 O163 1.305 . S
C166 O164 1.234 . S
Zn167 O173 1.920 . S
Zn167 O179 1.898 . S
Zn167 O182 1.905 . S
Zn168 O176 1.905 1_655 S
Zn168 O177 1.898 . S
Zn168 O185 1.920 . S
Zn169 O172 2.080 1_554 S
Zn169 O175 2.114 . S
Zn169 O178 2.120 1_554 S
Zn169 O180 2.120 . S
Zn169 O181 2.114 1_554 S
Zn169 O184 2.080 . S
C170 O175 1.166 . S
C170 O176 1.182 . S
C171 O177 1.167 1_556 S
C171 O178 1.299 1_655 S
O172 Zn169 2.080 1_556 S
O172 C186 1.305 . S
O173 Zn167 1.920 . S
O173 C186 1.234 . S
C174 O179 1.167 1_554 S
C174 O180 1.299 . S
O175 Zn169 2.114 . S
O175 C170 1.166 . S
O176 Zn168 1.905 1_455 S
O176 C170 1.182 . S
O177 Zn168 1.898 . S
O177 C171 1.167 1_554 S
O178 Zn169 2.120 1_556 S
O178 C171 1.299 1_455 S
O179 Zn167 1.898 . S
O179 C174 1.167 1_556 S
O180 Zn169 2.120 . S
O180 C174 1.299 . S
O181 Zn169 2.114 1_556 S
O181 C183 1.166 . S
O182 Zn167 1.905 . S
O182 C183 1.182 . S
C183 O181 1.166 . S
C183 O182 1.182 . S
O184 Zn169 2.080 . S
O184 C187 1.305 . S
O185 Zn168 1.920 . S
O185 C187 1.234 1_655 S
C186 O172 1.305 . S
C186 O173 1.234 . S
C187 O184 1.305 . S
C187 O185 1.234 1_455 S
H188 C196 0.950 . S
H189 C201 0.950 . S
H190 C198 0.950 . S
H191 C200 0.950 . S
H192 C202 0.950 . S
H193 C204 0.950 . S
H194 C206 0.950 . S
H195 C207 0.950 . S
C196 H188 0.950 . S
C196 C197 1.386 . S
C196 C198 1.391 . S
C197 C196 1.386 . S
C197 C201 1.393 . S
C198 H190 0.950 . S
C198 C196 1.391 . S
C198 C199 1.400 . S
C199 C198 1.400 . S
C199 C200 1.398 . S
C199 C205 1.491 . S
C200 H191 0.950 . S
C200 C199 1.398 . S
C200 C201 1.391 . S
C201 H189 0.950 . S
C201 C197 1.393 . S
C201 C200 1.391 . S
C202 H192 0.950 . S
C202 C203 1.386 . S
C202 C204 1.391 . S
C203 C202 1.386 . S
C203 C207 1.393 . S
C204 H193 0.950 . S
C204 C202 1.391 . S
C204 C205 1.400 . S
C205 C199 1.491 . S
C205 C204 1.400 . S
C205 C206 1.398 . S
C206 H194 0.950 . S
C206 C205 1.398 . S
C206 C207 1.391 . S
C207 H195 0.950 . S
C207 C203 1.393 . S
C207 C206 1.391 . S
H208 C216 0.950 . S
H209 C221 0.950 . S
H210 C218 0.950 . S
H211 C220 0.950 . S
H212 C222 0.950 . S
H213 C224 0.950 . S
H214 C226 0.950 . S
H215 C227 0.950 1_545 S
C216 H208 0.950 . S
C216 C217 1.386 . S
C216 C218 1.391 . S
C217 C216 1.386 . S
C217 C221 1.393 . S
C218 H210 0.950 . S
C218 C216 1.391 . S
C218 C219 1.400 . S
C219 C218 1.400 . S
C219 C220 1.398 . S
C219 C225 1.491 . S
C220 H211 0.950 . S
C220 C219 1.398 . S
C220 C221 1.391 . S
C221 H209 0.950 . S
C221 C217 1.393 . S
C221 C220 1.391 . S
C222 H212 0.950 . S
C222 C223 1.386 . S
C222 C224 1.391 . S
C223 C222 1.386 . S
C223 C227 1.393 . S
C224 H213 0.950 . S
C224 C222 1.391 . S
C224 C225 1.400 . S
C225 C219 1.491 . S
C225 C224 1.400 . S
C225 C226 1.398 . S
C226 H214 0.950 . S
C226 C225 1.398 . S
C226 C227 1.391 . S
C227 H215 0.950 1_565 S
C227 C223 1.393 . S
C227 C226 1.391 . S
H228 C236 0.950 . S
H229 C241 0.950 . S
H230 C238 0.950 . S
H231 C240 0.950 . S
H232 C242 0.950 . S
H233 C244 0.950 . S
H234 C246 0.950 . S
H235 C247 0.950 . S
C236 H228 0.950 . S
C236 C237 1.386 . S
C236 C238 1.391 . S
C237 C236 1.386 . S
C237 C241 1.393 . S
C238 H230 0.950 . S
C238 C236 1.391 . S
C238 C239 1.400 . S
C239 C238 1.400 . S
C239 C240 1.398 . S
C239 C245 1.491 . S
C240 H231 0.950 . S
C240 C239 1.398 . S
C240 C241 1.391 . S
C241 H229 0.950 . S
C241 C237 1.393 . S
C241 C240 1.391 . S
C242 H232 0.950 . S
C242 C243 1.386 . S
C242 C244 1.391 . S
C243 C242 1.386 . S
C243 C247 1.393 . S
C244 H233 0.950 . S
C244 C242 1.391 . S
C244 C245 1.400 . S
C245 C239 1.491 . S
C245 C244 1.400 . S
C245 C246 1.398 . S
C246 H234 0.950 . S
C246 C245 1.398 . S
C246 C247 1.391 . S
C247 H235 0.950 . S
C247 C243 1.393 . S
C247 C246 1.391 . S
H248 C256 0.950 . S
H249 C261 0.950 . S
H250 C258 0.950 1_455 S
H251 C260 0.950 . S
H252 C262 0.950 . S
H253 C264 0.950 . S
H254 C266 0.950 . S
H255 C267 0.950 . S
C256 H248 0.950 . S
C256 C257 1.386 . S
C256 C258 1.391 . S
C257 C256 1.386 . S
C257 C261 1.393 . S
C258 H250 0.950 1_655 S
C258 C256 1.391 . S
C258 C259 1.400 . S
C259 C258 1.400 . S
C259 C260 1.398 . S
C259 C265 1.491 . S
C260 H251 0.950 . S
C260 C259 1.398 . S
C260 C261 1.391 . S
C261 H249 0.950 . S
C261 C257 1.393 . S
C261 C260 1.391 . S
C262 H252 0.950 . S
C262 C263 1.386 1_655 S
C262 C264 1.391 . S
C263 C262 1.386 1_455 S
C263 C267 1.393 . S
C264 H253 0.950 . S
C264 C262 1.391 . S
C264 C265 1.400 . S
C265 C259 1.491 . S
C265 C264 1.400 . S
C265 C266 1.398 1_655 S
C266 H254 0.950 . S
C266 C265 1.398 1_455 S
C266 C267 1.391 . S
C267 H255 0.950 . S
C267 C263 1.393 . S
C267 C266 1.391 . S
H268 C276 0.950 . S
H269 C281 0.950 . S
H270 C278 0.950 . S
H271 C280 0.950 . S
H272 C282 0.950 . S
H273 C284 0.950 . S
H274 C286 0.950 . S
H275 C287 0.950 . S
C276 H268 0.950 . S
C276 C277 1.386 . S
C276 C278 1.391 . S
C277 C276 1.386 . S
C277 C281 1.393 . S
C278 H270 0.950 . S
C278 C276 1.391 . S
C278 C279 1.400 . S
C279 C278 1.400 . S
C279 C280 1.398 . S
C279 C285 1.491 . S
C280 H271 0.950 . S
C280 C279 1.398 . S
C280 C281 1.391 . S
C281 H269 0.950 . S
C281 C277 1.393 . S
C281 C280 1.391 . S
C282 H272 0.950 . S
C282 C283 1.386 . S
C282 C284 1.391 . S
C283 C282 1.386 . S
C283 C287 1.393 . S
C284 H273 0.950 . S
C284 C282 1.391 . S
C284 C285 1.400 . S
C285 C279 1.491 . S
C285 C284 1.400 . S
C285 C286 1.398 . S
C286 H274 0.950 . S
C286 C285 1.398 . S
C286 C287 1.391 . S
C287 H275 0.950 . S
C287 C283 1.393 . S
C287 C286 1.391 . S
H288 C296 0.950 . S
H289 C301 0.950 . S
H290 C298 0.950 . S
H291 C300 0.950 . S
H292 C302 0.950 . S
H293 C304 0.950 . S
H294 C306 0.950 . S
H295 C307 0.950 . S
C296 H288 0.950 . S
C296 C297 1.386 . S
C296 C298 1.391 . S
C297 C296 1.386 . S
C297 C301 1.393 . S
C298 H290 0.950 . S
C298 C296 1.391 . S
C298 C299 1.400 . S
C299 C298 1.400 . S
C299 C300 1.398 . S
C299 C305 1.491 . S
C300 H291 0.950 . S
C300 C299 1.398 . S
C300 C301 1.391 . S
C301 H289 0.950 . S
C301 C297 1.393 . S
C301 C300 1.391 . S
C302 H292 0.950 . S
C302 C303 1.386 . S
C302 C304 1.391 . S
C303 C302 1.386 . S
C303 C307 1.393 . S
C304 H293 0.950 . S
C304 C302 1.391 . S
C304 C305 1.400 . S
C305 C299 1.491 . S
C305 C304 1.400 . S
C305 C306 1.398 . S
C306 H294 0.950 . S
C306 C305 1.398 . S
C306 C307 1.391 . S
C307 H295 0.950 . S
C307 C303 1.393 . S
C307 C306 1.391 . S
H308 C316 0.950 . S
H309 C321 0.950 . S
H310 C318 0.950 . S
H311 C320 0.950 . S
H312 C322 0.950 . S
H313 C324 0.950 . S
H314 C326 0.950 . S
H315 C327 0.950 . S
C316 H308 0.950 . S
C316 C317 1.386 . S
C316 C318 1.391 . S
C317 C316 1.386 . S
C317 C321 1.393 . S
C318 H310 0.950 . S
C318 C316 1.391 . S
C318 C319 1.400 . S
C319 C318 1.400 . S
C319 C320 1.398 . S
C319 C325 1.491 . S
C320 H311 0.950 . S
C320 C319 1.398 . S
C320 C321 1.391 . S
C321 H309 0.950 . S
C321 C317 1.393 . S
C321 C320 1.391 . S
C322 H312 0.950 . S
C322 C323 1.386 . S
C322 C324 1.391 . S
C323 C322 1.386 . S
C323 C327 1.393 . S
C324 H313 0.950 . S
C324 C322 1.391 . S
C324 C325 1.400 . S
C325 C319 1.491 . S
C325 C324 1.400 . S
C325 C326 1.398 . S
C326 H314 0.950 . S
C326 C325 1.398 . S
C326 C327 1.391 . S
C327 H315 0.950 . S
C327 C323 1.393 . S
C327 C326 1.391 . S
H328 C336 0.950 . S
H329 C341 0.950 . S
H330 C338 0.950 . S
H331 C340 0.950 . S
H332 C342 0.950 . S
H333 C344 0.950 . S
H334 C346 0.950 . S
H335 C347 0.950 . S
C336 H328 0.950 . S
C336 C337 1.386 . S
C336 C338 1.391 . S
C337 C336 1.386 . S
C337 C341 1.393 . S
C338 H330 0.950 . S
C338 C336 1.391 . S
C338 C339 1.400 . S
C339 C338 1.400 . S
C339 C340 1.398 . S
C339 C345 1.491 . S
C340 H331 0.950 . S
C340 C339 1.398 . S
C340 C341 1.391 . S
C341 H329 0.950 . S
C341 C337 1.393 . S
C341 C340 1.391 . S
C342 H332 0.950 . S
C342 C343 1.386 . S
C342 C344 1.391 . S
C343 C342 1.386 . S
C343 C347 1.393 . S
C344 H333 0.950 . S
C344 C342 1.391 . S
C344 C345 1.400 . S
C345 C339 1.491 . S
C345 C344 1.400 . S
C345 C346 1.398 . S
C346 H334 0.950 . S
C346 C345 1.398 . S
C346 C347 1.391 . S
C347 H335 0.950 . S
C347 C343 1.393 . S
C347 C346 1.391 . S
H348 C356 0.950 . S
H349 C361 0.950 . S
H350 C358 0.950 . S
H351 C360 0.950 . S
H352 C362 0.950 . S
H353 C364 0.950 . S
H354 C366 0.950 . S
H355 C367 0.950 . S
C356 H348 0.950 . S
C356 C357 1.386 . S
C356 C358 1.391 . S
C357 C356 1.386 . S
C357 C361 1.393 . S
C358 H350 0.950 . S
C358 C356 1.391 . S
C358 C359 1.400 . S
C359 C358 1.400 . S
C359 C360 1.398 . S
C359 C365 1.491 . S
C360 H351 0.950 . S
C360 C359 1.398 . S
C360 C361 1.391 . S
C361 H349 0.950 . S
C361 C357 1.393 . S
C361 C360 1.391 . S
C362 H352 0.950 . S
C362 C363 1.386 . S
C362 C364 1.391 . S
C363 C362 1.386 . S
C363 C367 1.393 . S
C364 H353 0.950 . S
C364 C362 1.391 . S
C364 C365 1.400 . S
C365 C359 1.491 . S
C365 C364 1.400 . S
C365 C366 1.398 . S
C366 H354 0.950 . S
C366 C365 1.398 . S
C366 C367 1.391 . S
C367 H355 0.950 . S
C367 C363 1.393 . S
C367 C366 1.391 . S
H368 C376 0.950 . S
H369 C381 0.950 . S
H370 C378 0.950 . S
H371 C380 0.950 . S
H372 C382 0.950 . S
H373 C384 0.950 . S
H374 C386 0.950 . S
H375 C387 0.950 . S
C376 H368 0.950 . S
C376 C377 1.386 . S
C376 C378 1.391 . S
C377 C376 1.386 . S
C377 C381 1.393 . S
C378 H370 0.950 . S
C378 C376 1.391 . S
C378 C379 1.400 . S
C379 C378 1.400 . S
C379 C380 1.398 . S
C379 C385 1.491 . S
C380 H371 0.950 . S
C380 C379 1.398 . S
C380 C381 1.391 . S
C381 H369 0.950 . S
C381 C377 1.393 . S
C381 C380 1.391 . S
C382 H372 0.950 . S
C382 C383 1.386 . S
C382 C384 1.391 . S
C383 C382 1.386 . S
C383 C387 1.393 . S
C384 H373 0.950 . S
C384 C382 1.391 . S
C384 C385 1.400 . S
C385 C379 1.491 . S
C385 C384 1.400 . S
C385 C386 1.398 . S
C386 H374 0.950 . S
C386 C385 1.398 . S
C386 C387 1.391 . S
C387 H375 0.950 . S
C387 C383 1.393 . S
C387 C386 1.391 . S
H388 C396 0.950 . S
H389 C401 0.950 . S
H390 C398 0.950 . S
H391 C400 0.950 . S
H392 C402 0.950 1_455 S
H393 C404 0.950 . S
H394 C406 0.950 . S
H395 C407 0.950 . S
C396 H388 0.950 . S
C396 C397 1.386 . S
C396 C398 1.391 . S
C397 C396 1.386 . S
C397 C401 1.393 . S
C398 H390 0.950 . S
C398 C396 1.391 . S
C398 C399 1.400 . S
C399 C398 1.400 . S
C399 C400 1.398 . S
C399 C405 1.491 . S
C400 H391 0.950 . S
C400 C399 1.398 . S
C400 C401 1.391 . S
C401 H389 0.950 . S
C401 C397 1.393 . S
C401 C400 1.391 . S
C402 H392 0.950 1_655 S
C402 C403 1.386 . S
C402 C404 1.391 . S
C403 C402 1.386 . S
C403 C407 1.393 . S
C404 H393 0.950 . S
C404 C402 1.391 . S
C404 C405 1.400 . S
C405 C399 1.491 . S
C405 C404 1.400 . S
C405 C406 1.398 . S
C406 H394 0.950 . S
C406 C405 1.398 . S
C406 C407 1.391 . S
C407 H395 0.950 . S
C407 C403 1.393 . S
C407 C406 1.391 . S
H408 C416 0.950 . S
H409 C421 0.950 . S
H410 C418 0.950 . S
H411 C420 0.950 . S
H412 C422 0.950 . S
H413 C424 0.950 . S
H414 C426 0.950 . S
H415 C427 0.950 . S
C416 H408 0.950 . S
C416 C417 1.386 . S
C416 C418 1.391 . S
C417 C416 1.386 . S
C417 C421 1.393 . S
C418 H410 0.950 . S
C418 C416 1.391 . S
C418 C419 1.400 . S
C419 C418 1.400 . S
C419 C420 1.398 . S
C419 C425 1.491 . S
C420 H411 0.950 . S
C420 C419 1.398 . S
C420 C421 1.391 . S
C421 H409 0.950 . S
C421 C417 1.393 . S
C421 C420 1.391 . S
C422 H412 0.950 . S
C422 C423 1.386 . S
C422 C424 1.391 . S
C423 C422 1.386 . S
C423 C427 1.393 . S
C424 H413 0.950 . S
C424 C422 1.391 . S
C424 C425 1.400 . S
C425 C419 1.491 . S
C425 C424 1.400 . S
C425 C426 1.398 . S
C426 H414 0.950 . S
C426 C425 1.398 . S
C426 C427 1.391 . S
C427 H415 0.950 . S
C427 C423 1.393 . S
C427 C426 1.391 . S
H428 C436 0.947 1_545 S
H429 C441 0.950 . S
H430 C438 0.950 . S
H431 C440 0.950 . S
H432 C442 0.950 . S
H433 C444 0.950 . S
H434 C446 0.950 . S
H435 C447 0.950 . S
C436 H428 0.947 1_565 S
C436 C437 1.389 . S
C436 C438 1.391 1_565 S
C437 C436 1.389 . S
C437 C441 1.393 1_655 S
C438 H430 0.950 . S
C438 C436 1.391 1_545 S
C438 C439 1.400 1_545 S
C439 C438 1.400 1_565 S
C439 C440 1.398 1_655 S
C439 C445 1.491 . S
C440 H431 0.950 . S
C440 C439 1.398 1_455 S
C440 C441 1.391 . S
C441 H429 0.950 . S
C441 C437 1.393 1_455 S
C441 C440 1.391 . S
C442 H432 0.950 . S
C442 C443 1.386 1_465 S
C442 C444 1.391 . S
C443 C442 1.386 1_645 S
C443 C447 1.393 . S
C444 H433 0.950 . S
C444 C442 1.391 . S
C444 C445 1.400 1_455 S
C445 C439 1.491 . S
C445 C444 1.400 1_655 S
C445 C446 1.398 1_565 S
C446 H434 0.950 . S
C446 C445 1.398 1_545 S
C446 C447 1.391 . S
C447 H435 0.950 . S
C447 C443 1.393 . S
C447 C446 1.391 . S
H448 C456 0.950 . S
H449 C461 0.950 . S
H450 C458 0.950 . S
H451 C460 0.950 . S
H452 C462 0.950 1_565 S
H453 C464 0.950 . S
H454 C466 0.950 . S
H455 C467 0.950 . S
C456 H448 0.950 . S
C456 C457 1.386 . S
C456 C458 1.391 . S
C457 C456 1.386 . S
C457 C461 1.393 . S
C458 H450 0.950 . S
C458 C456 1.391 . S
C458 C459 1.400 . S
C459 C458 1.400 . S
C459 C460 1.398 . S
C459 C465 1.491 . S
C460 H451 0.950 . S
C460 C459 1.398 . S
C460 C461 1.391 . S
C461 H449 0.950 . S
C461 C457 1.393 . S
C461 C460 1.391 . S
C462 H452 0.950 1_545 S
C462 C463 1.386 . S
C462 C464 1.391 . S
C463 C462 1.386 . S
C463 C467 1.393 . S
C464 H453 0.950 . S
C464 C462 1.391 . S
C464 C465 1.400 . S
C465 C459 1.491 . S
C465 C464 1.400 . S
C465 C466 1.398 . S
C466 H454 0.950 . S
C466 C465 1.398 . S
C466 C467 1.391 . S
C467 H455 0.950 . S
C467 C463 1.393 . S
C467 C466 1.391 . S
H468 C476 0.950 . S
H469 C481 0.950 . S
H470 C478 0.950 . S
H471 C480 0.950 . S
H472 C482 0.950 . S
H473 C484 0.950 . S
H474 C486 0.950 . S
H475 C487 0.950 . S
C476 H468 0.950 . S
C476 C477 1.386 . S
C476 C478 1.391 . S
C477 C476 1.386 . S
C477 C481 1.393 . S
C478 H470 0.950 . S
C478 C476 1.391 . S
C478 C479 1.400 . S
C479 C478 1.400 . S
C479 C480 1.398 . S
C479 C485 1.491 . S
C480 H471 0.950 . S
C480 C479 1.398 . S
C480 C481 1.391 . S
C481 H469 0.950 . S
C481 C477 1.393 . S
C481 C480 1.391 . S
C482 H472 0.950 . S
C482 C483 1.386 . S
C482 C484 1.391 . S
C483 C482 1.386 . S
C483 C487 1.393 . S
C484 H473 0.950 . S
C484 C482 1.391 . S
C484 C485 1.400 . S
C485 C479 1.491 . S
C485 C484 1.400 . S
C485 C486 1.398 . S
C486 H474 0.950 . S
C486 C485 1.398 . S
C486 C487 1.391 . S
C487 H475 0.950 . S
C487 C483 1.393 . S
C487 C486 1.391 . S
H488 C496 0.950 . S
H489 C501 0.950 . S
H490 C498 0.950 . S
H491 C500 0.950 . S
H492 C502 0.950 . S
H493 C504 0.950 . S
H494 C506 0.950 . S
H495 C507 0.950 . S
C496 H488 0.950 . S
C496 C497 1.386 . S
C496 C498 1.391 . S
C497 C496 1.386 . S
C497 C501 1.393 . S
C498 H490 0.950 . S
C498 C496 1.391 . S
C498 C499 1.400 . S
C499 C498 1.400 . S
C499 C500 1.398 . S
C499 C505 1.491 . S
C500 H491 0.950 . S
C500 C499 1.398 . S
C500 C501 1.391 . S
C501 H489 0.950 . S
C501 C497 1.393 . S
C501 C500 1.391 . S
C502 H492 0.950 . S
C502 C503 1.386 . S
C502 C504 1.391 . S
C503 C502 1.386 . S
C503 C507 1.393 . S
C504 H493 0.950 . S
C504 C502 1.391 . S
C504 C505 1.400 . S
C505 C499 1.491 . S
C505 C504 1.400 . S
C505 C506 1.398 . S
C506 H494 0.950 . S
C506 C505 1.398 . S
C506 C507 1.391 . S
C507 H495 0.950 . S
C507 C503 1.393 . S
C507 C506 1.391 . S
H508 C516 0.959 . S
H509 C521 0.950 . S
H510 C518 0.950 . S
H511 C520 0.950 . S
H512 C522 0.950 . S
H513 C524 0.950 . S
H514 C526 0.950 . S
H515 C527 0.950 . S
C516 H508 0.959 . S
C516 C517 1.374 1_554 S
C516 C518 1.394 . S
C517 C516 1.374 1_556 S
C517 C521 1.393 . S
C518 H510 0.950 . S
C518 C516 1.394 . S
C518 C519 1.400 1_554 S
C519 C518 1.400 1_556 S
C519 C520 1.398 . S
C519 C525 1.491 . S
C520 H511 0.950 . S
C520 C519 1.398 . S
C520 C521 1.391 . S
C521 H509 0.950 . S
C521 C517 1.393 . S
C521 C520 1.391 . S
C522 H512 0.950 . S
C522 C523 1.386 . S
C522 C524 1.391 . S
C523 C522 1.386 . S
C523 C527 1.393 1_556 S
C524 H513 0.950 . S
C524 C522 1.391 . S
C524 C525 1.400 . S
C525 C519 1.491 . S
C525 C524 1.400 . S
C525 C526 1.398 1_556 S
C526 H514 0.950 . S
C526 C525 1.398 1_554 S
C526 C527 1.391 . S
C527 H515 0.950 . S
C527 C523 1.393 1_554 S
C527 C526 1.391 . S
H528 C536 0.950 . S
H529 C541 0.950 . S
H530 C538 0.950 . S
H531 C540 0.950 . S
H532 C542 0.950 . S
H533 C544 0.950 . S
H534 C546 0.950 . S
H535 C547 0.950 . S
C536 H528 0.950 . S
C536 C537 1.386 . S
C536 C538 1.391 . S
C537 C536 1.386 . S
C537 C541 1.393 . S
C538 H530 0.950 . S
C538 C536 1.391 . S
C538 C539 1.400 . S
C539 C538 1.400 . S
C539 C540 1.398 . S
C539 C545 1.491 . S
C540 H531 0.950 . S
C540 C539 1.398 . S
C540 C541 1.391 . S
C541 H529 0.950 . S
C541 C537 1.393 . S
C541 C540 1.391 . S
C542 H532 0.950 . S
C542 C543 1.386 . S
C542 C544 1.391 . S
C543 C542 1.386 . S
C543 C547 1.393 . S
C544 H533 0.950 . S
C544 C542 1.391 . S
C544 C545 1.400 . S
C545 C539 1.491 . S
C545 C544 1.400 . S
C545 C546 1.398 . S
C546 H534 0.950 . S
C546 C545 1.398 . S
C546 C547 1.391 . S
C547 H535 0.950 . S
C547 C543 1.393 . S
C547 C546 1.391 . S
H548 C556 0.950 . S
H549 C561 0.950 . S
H550 C558 0.950 . S
H551 C560 0.950 . S
H552 C562 0.950 . S
H553 C564 0.950 . S
H554 C566 0.950 . S
H555 C567 0.950 . S
C556 H548 0.950 . S
C556 C557 1.386 . S
C556 C558 1.391 . S
C557 C556 1.386 . S
C557 C561 1.393 . S
C558 H550 0.950 . S
C558 C556 1.391 . S
C558 C559 1.400 . S
C559 C558 1.400 . S
C559 C560 1.398 . S
C559 C565 1.491 . S
C560 H551 0.950 . S
C560 C559 1.398 . S
C560 C561 1.391 . S
C561 H549 0.950 . S
C561 C557 1.393 . S
C561 C560 1.391 . S
C562 H552 0.950 . S
C562 C563 1.386 . S
C562 C564 1.391 . S
C563 C562 1.386 . S
C563 C567 1.393 . S
C564 H553 0.950 . S
C564 C562 1.391 . S
C564 C565 1.400 . S
C565 C559 1.491 . S
C565 C564 1.400 . S
C565 C566 1.398 . S
C566 H554 0.950 . S
C566 C565 1.398 . S
C566 C567 1.391 . S
C567 H555 0.950 . S
C567 C563 1.393 . S
C567 C566 1.391 . S
H568 C576 0.950 . S
H569 C581 0.950 . S
H570 C578 0.950 . S
H571 C580 0.950 . S
H572 C582 0.950 . S
H573 C584 0.950 . S
H574 C586 0.950 . S
H575 C587 0.950 . S
C576 H568 0.950 . S
C576 C577 1.386 . S
C576 C578 1.391 . S
C577 C576 1.386 . S
C577 C581 1.393 . S
C578 H570 0.950 . S
C578 C576 1.391 . S
C578 C579 1.400 . S
C579 C578 1.400 . S
C579 C580 1.398 . S
C579 C585 1.491 . S
C580 H571 0.950 . S
C580 C579 1.398 . S
C580 C581 1.391 . S
C581 H569 0.950 . S
C581 C577 1.393 . S
C581 C580 1.391 . S
C582 H572 0.950 . S
C582 C583 1.386 . S
C582 C584 1.391 . S
C583 C582 1.386 . S
C583 C587 1.393 . S
C584 H573 0.950 . S
C584 C582 1.391 . S
C584 C585 1.400 . S
C585 C579 1.491 . S
C585 C584 1.400 . S
C585 C586 1.398 . S
C586 H574 0.950 . S
C586 C585 1.398 . S
C586 C587 1.391 . S
C587 H575 0.950 . S
C587 C583 1.393 . S
C587 C586 1.391 . S
H588 C596 0.950 . S
H589 C601 0.950 . S
H590 C598 0.950 1_655 S
H591 C600 0.950 . S
H592 C602 0.950 . S
H593 C604 0.950 . S
H594 C606 0.950 1_655 S
H595 C607 0.950 . S
C596 H588 0.950 . S
C596 C597 1.386 1_655 S
C596 C598 1.391 1_655 S
C597 C596 1.386 1_455 S
C597 C601 1.393 1_556 S
C598 H590 0.950 1_455 S
C598 C596 1.391 1_455 S
C598 C599 1.400 . S
C599 C598 1.400 . S
C599 C600 1.398 1_556 S
C599 C605 1.491 . S
C600 H591 0.950 . S
C600 C599 1.398 1_554 S
C600 C601 1.391 . S
C601 H589 0.950 . S
C601 C597 1.393 1_554 S
C601 C600 1.391 . S
C602 H592 0.950 . S
C602 C603 1.386 1_554 S
C602 C604 1.391 . S
C603 C602 1.386 1_556 S
C603 C607 1.393 . S
C604 H593 0.950 . S
C604 C602 1.391 . S
C604 C605 1.400 1_554 S
C605 C599 1.491 . S
C605 C604 1.400 1_556 S
C605 C606 1.398 . S
C606 H594 0.950 1_455 S
C606 C605 1.398 . S
C606 C607 1.391 . S
C607 H595 0.950 . S
C607 C603 1.393 . S
C607 C606 1.391 . S
H608 C616 0.950 . S
H609 C621 0.950 1_556 S
H610 C618 0.950 . S
H611 C620 0.950 1_556 S
H612 C622 0.950 1_556 S
H613 C624 0.950 1_556 S
H614 C626 0.950 . S
H615 C627 0.950 . S
C616 H608 0.950 . S
C616 C617 1.386 . S
C616 C618 1.391 . S
C617 C616 1.386 . S
C617 C621 1.393 . S
C618 H610 0.950 . S
C618 C616 1.391 . S
C618 C619 1.400 . S
C619 C618 1.400 . S
C619 C620 1.398 . S
C619 C625 1.491 . S
C620 H611 0.950 1_554 S
C620 C619 1.398 . S
C620 C621 1.391 . S
C621 H609 0.950 1_554 S
C621 C617 1.393 . S
C621 C620 1.391 . S
C622 H612 0.950 1_554 S
C622 C623 1.386 . S
C622 C624 1.391 . S
C623 C622 1.386 . S
C623 C627 1.393 . S
C624 H613 0.950 1_554 S
C624 C622 1.391 . S
C624 C625 1.400 . S
C625 C619 1.491 . S
C625 C624 1.400 . S
C625 C626 1.398 . S
C626 H614 0.950 . S
C626 C625 1.398 . S
C626 C627 1.391 . S
C627 H615 0.950 . S
C627 C623 1.393 . S
C627 C626 1.391 . S
H628 C636 0.950 . S
H629 C641 0.950 . S
H630 C638 0.950 . S
H631 C640 0.950 . S
H632 C642 0.950 1_655 S
H633 C644 0.950 . S
H634 C646 0.950 . S
H635 C647 0.950 . S
C636 H628 0.950 . S
C636 C637 1.386 . S
C636 C638 1.391 . S
C637 C636 1.386 . S
C637 C641 1.393 . S
C638 H630 0.950 . S
C638 C636 1.391 . S
C638 C639 1.400 . S
C639 C638 1.400 . S
C639 C640 1.398 . S
C639 C645 1.491 . S
C640 H631 0.950 . S
C640 C639 1.398 . S
C640 C641 1.391 . S
C641 H629 0.950 . S
C641 C637 1.393 . S
C641 C640 1.391 . S
C642 H632 0.950 1_455 S
C642 C643 1.386 . S
C642 C644 1.391 . S
C643 C642 1.386 . S
C643 C647 1.393 . S
C644 H633 0.950 . S
C644 C642 1.391 . S
C644 C645 1.400 . S
C645 C639 1.491 . S
C645 C644 1.400 . S
C645 C646 1.398 . S
C646 H634 0.950 . S
C646 C645 1.398 . S
C646 C647 1.391 . S
C647 H635 0.950 . S
C647 C643 1.393 . S
C647 C646 1.391 . S
H648 C656 0.950 . S
H649 C661 0.950 . S
H650 C658 0.950 . S
H651 C660 0.950 . S
H652 C662 0.950 . S
H653 C664 0.950 . S
H654 C666 0.950 . S
H655 C667 0.950 . S
C656 H648 0.950 . S
C656 C657 1.386 . S
C656 C658 1.391 . S
C657 C656 1.386 . S
C657 C661 1.393 . S
C658 H650 0.950 . S
C658 C656 1.391 . S
C658 C659 1.400 . S
C659 C658 1.400 . S
C659 C660 1.398 . S
C659 C665 1.491 . S
C660 H651 0.950 . S
C660 C659 1.398 . S
C660 C661 1.391 . S
C661 H649 0.950 . S
C661 C657 1.393 . S
C661 C660 1.391 . S
C662 H652 0.950 . S
C662 C663 1.386 . S
C662 C664 1.391 . S
C663 C662 1.386 . S
C663 C667 1.393 . S
C664 H653 0.950 . S
C664 C662 1.391 . S
C664 C665 1.400 . S
C665 C659 1.491 . S
C665 C664 1.400 . S
C665 C666 1.398 . S
C666 H654 0.950 . S
C666 C665 1.398 . S
C666 C667 1.391 . S
C667 H655 0.950 . S
C667 C663 1.393 . S
C667 C666 1.391 . S
C197 C9 1.951 . S
C203 C107 1.783 . S
C217 C21 1.554 . S
C223 C141 1.407 . S
C243 C153 1.181 . S
C237 C30 1.218 . S
C257 C43 1.253 . S
C263 C187 1.266 . S
C283 C144 1.394 . S
C277 C4 1.442 . S
C303 C124 1.848 . S
C297 C22 2.006 . S
C323 C171 1.119 . S
C317 C34 1.212 . S
C343 C162 1.281 . S
C337 C48 1.381 . S
C357 C8 1.638 . S
C363 C170 1.539 . S
C383 C132 1.385 . S
C377 C35 1.518 . S
C397 C47 1.595 . S
C403 C108 1.438 . S
C417 C17 1.389 . S
C423 C165 1.340 . S
C443 C123 1.560 . S
C437 C60 1.650 . S
C457 C74 1.833 . S
C463 C145 1.743 . S
C477 C82 1.182 . S
C483 C150 1.113 . S
C497 C100 1.854 . S
C503 C183 1.754 . S
C517 C61 1.881 . S
C523 C128 1.744 1_556 S
C543 C120 1.610 . S
C537 C73 1.673 . S
C563 C174 1.491 . S
C557 C87 1.647 . S
C583 C166 1.122 . S
C577 C95 1.104 . S
C597 C56 1.586 1_455 S
C603 C186 1.589 . S
C623 C129 1.626 . S
C617 C86 1.705 . S
C643 C111 1.452 . S
C637 C99 1.543 . S
C657 C69 1.516 . S
C663 C149 1.430 . S
