# Generated by pormake.
# Topology ptr, (4,4)-cn, num edge types: 1
# Building blocks:
#     Node 0, Type 0, BuildingBlock: KUFVIS_clean_sbu_0, # of connection points: 4
#     Node 1, Type 0, BuildingBlock: KUFVIS_clean_sbu_0, # of connection points: 4
#     Node 2, Type 0, BuildingBlock: KUFVIS_clean_sbu_0, # of connection points: 4
#     Node 3, Type 0, BuildingBlock: KUFVIS_clean_sbu_0, # of connection points: 4
#     Node 4, Type 0, BuildingBlock: KUFVIS_clean_sbu_0, # of connection points: 4
#     Node 5, Type 0, BuildingBlock: KUFVIS_clean_sbu_0, # of connection points: 4
#     Node 6, Type 0, BuildingBlock: KUFVIS_clean_sbu_0, # of connection points: 4
#     Node 7, Type 0, BuildingBlock: KUFVIS_clean_sbu_0, # of connection points: 4
#     Node 8, Type 0, BuildingBlock: KUFVIS_clean_sbu_0, # of connection points: 4
#     Node 9, Type 0, BuildingBlock: KUFVIS_clean_sbu_0, # of connection points: 4
#     Node 10, Type 0, BuildingBlock: KUFVIS_clean_sbu_0, # of connection points: 4
#     Node 11, Type 0, BuildingBlock: KUFVIS_clean_sbu_0, # of connection points: 4
#     Node 12, Type 0, BuildingBlock: KUFVIS_clean_sbu_0, # of connection points: 4
#     Node 13, Type 0, BuildingBlock: KUFVIS_clean_sbu_0, # of connection points: 4
#     Node 14, Type 0, BuildingBlock: KUFVIS_clean_sbu_0, # of connection points: 4
#     Node 15, Type 0, BuildingBlock: KUFVIS_clean_sbu_0, # of connection points: 4
#     Node 16, Type 0, BuildingBlock: KUFVIS_clean_sbu_0, # of connection points: 4
#     Node 17, Type 0, BuildingBlock: KUFVIS_clean_sbu_0, # of connection points: 4
#     Node 18, Type 1, BuildingBlock: MUDLON_clean_linker_0, # of connection points: 4
#     Node 19, Type 1, BuildingBlock: MUDLON_clean_linker_0, # of connection points: 4
#     Node 20, Type 1, BuildingBlock: MUDLON_clean_linker_0, # of connection points: 4
#     Node 21, Type 1, BuildingBlock: MUDLON_clean_linker_0, # of connection points: 4
#     Node 22, Type 1, BuildingBlock: MUDLON_clean_linker_0, # of connection points: 4
#     Node 23, Type 1, BuildingBlock: MUDLON_clean_linker_0, # of connection points: 4
#     Node 24, Type 1, BuildingBlock: MUDLON_clean_linker_0, # of connection points: 4
#     Node 25, Type 1, BuildingBlock: MUDLON_clean_linker_0, # of connection points: 4
#     Node 26, Type 1, BuildingBlock: MUDLON_clean_linker_0, # of connection points: 4
#     Node 27, Type 1, BuildingBlock: MUDLON_clean_linker_0, # of connection points: 4
#     Node 28, Type 1, BuildingBlock: MUDLON_clean_linker_0, # of connection points: 4
#     Node 29, Type 1, BuildingBlock: MUDLON_clean_linker_0, # of connection points: 4
#     Node 30, Type 1, BuildingBlock: MUDLON_clean_linker_0, # of connection points: 4
#     Node 31, Type 1, BuildingBlock: MUDLON_clean_linker_0, # of connection points: 4
#     Node 32, Type 1, BuildingBlock: MUDLON_clean_linker_0, # of connection points: 4
#     Node 33, Type 1, BuildingBlock: MUDLON_clean_linker_0, # of connection points: 4
#     Node 34, Type 1, BuildingBlock: MUDLON_clean_linker_0, # of connection points: 4
#     Node 35, Type 1, BuildingBlock: MUDLON_clean_linker_0, # of connection points: 4
#     Edge 36, Type (0, 1), BuildingBlock: UVAHIK_clean_linker_0, # of connection points: 2
#     Edge 37, Type (0, 1), BuildingBlock: UVAHIK_clean_linker_0, # of connection points: 2
#     Edge 38, Type (0, 1), BuildingBlock: UVAHIK_clean_linker_0, # of connection points: 2
#     Edge 39, Type (0, 1), BuildingBlock: UVAHIK_clean_linker_0, # of connection points: 2
#     Edge 40, Type (0, 1), BuildingBlock: UVAHIK_clean_linker_0, # of connection points: 2
#     Edge 41, Type (0, 1), BuildingBlock: UVAHIK_clean_linker_0, # of connection points: 2
#     Edge 42, Type (0, 1), BuildingBlock: UVAHIK_clean_linker_0, # of connection points: 2
#     Edge 43, Type (0, 1), BuildingBlock: UVAHIK_clean_linker_0, # of connection points: 2
#     Edge 44, Type (0, 1), BuildingBlock: UVAHIK_clean_linker_0, # of connection points: 2
#     Edge 45, Type (0, 1), BuildingBlock: UVAHIK_clean_linker_0, # of connection points: 2
#     Edge 46, Type (0, 1), BuildingBlock: UVAHIK_clean_linker_0, # of connection points: 2
#     Edge 47, Type (0, 1), BuildingBlock: UVAHIK_clean_linker_0, # of connection points: 2
#     Edge 48, Type (0, 1), BuildingBlock: UVAHIK_clean_linker_0, # of connection points: 2
#     Edge 49, Type (0, 1), BuildingBlock: UVAHIK_clean_linker_0, # of connection points: 2
#     Edge 50, Type (0, 1), BuildingBlock: UVAHIK_clean_linker_0, # of connection points: 2
#     Edge 51, Type (0, 1), BuildingBlock: UVAHIK_clean_linker_0, # of connection points: 2
#     Edge 52, Type (0, 1), BuildingBlock: UVAHIK_clean_linker_0, # of connection points: 2
#     Edge 53, Type (0, 1), BuildingBlock: UVAHIK_clean_linker_0, # of connection points: 2
#     Edge 54, Type (0, 1), BuildingBlock: UVAHIK_clean_linker_0, # of connection points: 2
#     Edge 55, Type (0, 1), BuildingBlock: UVAHIK_clean_linker_0, # of connection points: 2
#     Edge 56, Type (0, 1), BuildingBlock: UVAHIK_clean_linker_0, # of connection points: 2
#     Edge 57, Type (0, 1), BuildingBlock: UVAHIK_clean_linker_0, # of connection points: 2
#     Edge 58, Type (0, 1), BuildingBlock: UVAHIK_clean_linker_0, # of connection points: 2
#     Edge 59, Type (0, 1), BuildingBlock: UVAHIK_clean_linker_0, # of connection points: 2
#     Edge 60, Type (0, 1), BuildingBlock: UVAHIK_clean_linker_0, # of connection points: 2
#     Edge 61, Type (0, 1), BuildingBlock: UVAHIK_clean_linker_0, # of connection points: 2
#     Edge 62, Type (0, 1), BuildingBlock: UVAHIK_clean_linker_0, # of connection points: 2
#     Edge 63, Type (0, 1), BuildingBlock: UVAHIK_clean_linker_0, # of connection points: 2
#     Edge 64, Type (0, 1), BuildingBlock: UVAHIK_clean_linker_0, # of connection points: 2
#     Edge 65, Type (0, 1), BuildingBlock: UVAHIK_clean_linker_0, # of connection points: 2
#     Edge 66, Type (0, 1), BuildingBlock: UVAHIK_clean_linker_0, # of connection points: 2
#     Edge 67, Type (0, 1), BuildingBlock: UVAHIK_clean_linker_0, # of connection points: 2
#     Edge 68, Type (0, 1), BuildingBlock: UVAHIK_clean_linker_0, # of connection points: 2
#     Edge 69, Type (0, 1), BuildingBlock: UVAHIK_clean_linker_0, # of connection points: 2
#     Edge 70, Type (0, 1), BuildingBlock: UVAHIK_clean_linker_0, # of connection points: 2
#     Edge 71, Type (0, 1), BuildingBlock: UVAHIK_clean_linker_0, # of connection points: 2
#     Edge 72, Type (0, 1), BuildingBlock: UVAHIK_clean_linker_0, # of connection points: 2
#     Edge 73, Type (0, 1), BuildingBlock: UVAHIK_clean_linker_0, # of connection points: 2
#     Edge 74, Type (0, 1), BuildingBlock: UVAHIK_clean_linker_0, # of connection points: 2
#     Edge 75, Type (0, 1), BuildingBlock: UVAHIK_clean_linker_0, # of connection points: 2
#     Edge 76, Type (0, 1), BuildingBlock: UVAHIK_clean_linker_0, # of connection points: 2
#     Edge 77, Type (0, 1), BuildingBlock: UVAHIK_clean_linker_0, # of connection points: 2
#     Edge 78, Type (0, 1), BuildingBlock: UVAHIK_clean_linker_0, # of connection points: 2
#     Edge 79, Type (0, 1), BuildingBlock: UVAHIK_clean_linker_0, # of connection points: 2
#     Edge 80, Type (0, 1), BuildingBlock: UVAHIK_clean_linker_0, # of connection points: 2
#     Edge 81, Type (0, 1), BuildingBlock: UVAHIK_clean_linker_0, # of connection points: 2
#     Edge 82, Type (0, 1), BuildingBlock: UVAHIK_clean_linker_0, # of connection points: 2
#     Edge 83, Type (0, 1), BuildingBlock: UVAHIK_clean_linker_0, # of connection points: 2
#     Edge 84, Type (0, 1), BuildingBlock: UVAHIK_clean_linker_0, # of connection points: 2
#     Edge 85, Type (0, 1), BuildingBlock: UVAHIK_clean_linker_0, # of connection points: 2
#     Edge 86, Type (0, 1), BuildingBlock: UVAHIK_clean_linker_0, # of connection points: 2
#     Edge 87, Type (0, 1), BuildingBlock: UVAHIK_clean_linker_0, # of connection points: 2
#     Edge 88, Type (0, 1), BuildingBlock: UVAHIK_clean_linker_0, # of connection points: 2
#     Edge 89, Type (0, 1), BuildingBlock: UVAHIK_clean_linker_0, # of connection points: 2
#     Edge 90, Type (0, 1), BuildingBlock: UVAHIK_clean_linker_0, # of connection points: 2
#     Edge 91, Type (0, 1), BuildingBlock: UVAHIK_clean_linker_0, # of connection points: 2
#     Edge 92, Type (0, 1), BuildingBlock: UVAHIK_clean_linker_0, # of connection points: 2
#     Edge 93, Type (0, 1), BuildingBlock: UVAHIK_clean_linker_0, # of connection points: 2
#     Edge 94, Type (0, 1), BuildingBlock: UVAHIK_clean_linker_0, # of connection points: 2
#     Edge 95, Type (0, 1), BuildingBlock: UVAHIK_clean_linker_0, # of connection points: 2
#     Edge 96, Type (0, 1), BuildingBlock: UVAHIK_clean_linker_0, # of connection points: 2
#     Edge 97, Type (0, 1), BuildingBlock: UVAHIK_clean_linker_0, # of connection points: 2
#     Edge 98, Type (0, 1), BuildingBlock: UVAHIK_clean_linker_0, # of connection points: 2
#     Edge 99, Type (0, 1), BuildingBlock: UVAHIK_clean_linker_0, # of connection points: 2
#     Edge 100, Type (0, 1), BuildingBlock: UVAHIK_clean_linker_0, # of connection points: 2
#     Edge 101, Type (0, 1), BuildingBlock: UVAHIK_clean_linker_0, # of connection points: 2
#     Edge 102, Type (0, 1), BuildingBlock: UVAHIK_clean_linker_0, # of connection points: 2
#     Edge 103, Type (0, 1), BuildingBlock: UVAHIK_clean_linker_0, # of connection points: 2
#     Edge 104, Type (0, 1), BuildingBlock: UVAHIK_clean_linker_0, # of connection points: 2
#     Edge 105, Type (0, 1), BuildingBlock: UVAHIK_clean_linker_0, # of connection points: 2
#     Edge 106, Type (0, 1), BuildingBlock: UVAHIK_clean_linker_0, # of connection points: 2
#     Edge 107, Type (0, 1), BuildingBlock: UVAHIK_clean_linker_0, # of connection points: 2
# Relax obj value: 0.037
# Max RMSD: 0.123
# Mean RMSD: 0.070
data_MOF--net-ptr--node1-KUFVIS_clean_sbu_0--node2-MUDLON_clean_linker_0--edge1-UVAHIK_clean_linker_0
_symmetry_space_group_name_H-M    P1
_symmetry_Int_Tables_number       1
_symmetry_cell_setting            triclinic
loop_
_symmetry_equiv_pos_as_xyz
'x, y, z'
_cell_length_a     127.05257
_cell_length_b     126.53554
_cell_length_c     77.471123
_cell_angle_alpha  89.701742
_cell_angle_beta   90.625942
_cell_angle_gamma 119.54845
loop_
_atom_site_label
_atom_site_type_symbol
_atom_site_fract_x
_atom_site_fract_y
_atom_site_fract_z
_atom_type_partial_charge
Mn0 Mn 0.99735 0.35955 0.0024 0.0
Mn1 Mn 0.02389 0.38545 0.99701 0.0
C2 C 0.99833 0.37408 0.98334 0.0
C3 C 0.98465 0.33918 0.99555 0.0
C4 C 0.00765 0.38055 0.02797 0.0
O5 O 0.00974 0.35572 0.01336 0.0
O6 O 0.02701 0.37253 0.00609 0.0
C7 C 0.03412 0.37753 0.96903 0.0
N8 N 0.03068 0.38542 0.97515 0.0
C9 C 0.03755 0.3976 0.94942 0.0
C10 C 0.04125 0.38964 0.94288 0.0
C11 C 0.03947 0.37954 0.9527 0.0
C12 C 0.03224 0.39511 0.96575 0.0
H13 H 0.03279 0.36976 0.97656 0.0
C14 C 0.02125 0.36184 0.01255 0.0
O15 O 0.98378 0.34366 0.01017 0.0
O16 O 0.99297 0.3465 0.98505 0.0
N17 N 0.02238 0.39878 0.98812 0.0
C18 C 0.0177 0.40518 0.99586 0.0
C19 C 0.01837 0.41535 0.98746 0.0
C20 C 0.024 0.41895 0.97133 0.0
C21 C 0.02891 0.41233 0.96374 0.0
C22 C 0.02794 0.40225 0.97269 0.0
H23 H 0.01345 0.40253 0.00832 0.0
O24 O 0.98799 0.36576 0.98917 0.0
O25 O 0.0078 0.37341 0.98835 0.0
O26 O 0.99891 0.37043 0.02281 0.0
O27 O 0.01754 0.38653 0.01974 0.0
C28 C 0.03458 0.41523 0.94753 0.0
C29 C 0.03882 0.40782 0.94032 0.0
H30 H 0.04538 0.39116 0.93029 0.0
H31 H 0.04225 0.37332 0.94771 0.0
H32 H 0.01457 0.42042 0.99342 0.0
H33 H 0.02446 0.42677 0.96486 0.0
H34 H 0.0356 0.42306 0.9404 0.0
H35 H 0.04297 0.41003 0.92771 0.0
Mn36 Mn 0.64054 0.64086 0.01532 0.0
Mn37 Mn 0.64126 0.61478 0.02144 0.0
C38 C 0.62774 0.62683 0.03515 0.0
C39 C 0.64834 0.66142 0.02149 0.0
C40 C 0.62937 0.6195 0.99035 0.0
O41 O 0.65631 0.64415 0.00404 0.0
O42 O 0.65702 0.62736 0.012 0.0
C43 C 0.65973 0.62269 0.04929 0.0
N44 N 0.64835 0.61493 0.04337 0.0
C45 C 0.64328 0.60345 0.06979 0.0
C46 C 0.65498 0.61127 0.07613 0.0
C47 C 0.66322 0.62095 0.06585 0.0
C48 C 0.64033 0.60562 0.05318 0.0
H49 H 0.66608 0.63015 0.04143 0.0
C50 C 0.66171 0.63792 0.00506 0.0
O51 O 0.64265 0.65674 0.00708 0.0
O52 O 0.64962 0.65419 0.03217 0.0
N53 N 0.62663 0.60182 0.03068 0.0
C54 C 0.61553 0.59547 0.023 0.0
C55 C 0.60615 0.58565 0.03176 0.0
C56 C 0.60831 0.58239 0.04823 0.0
C57 C 0.61983 0.58897 0.05579 0.0
C58 C 0.62885 0.59861 0.0464 0.0
H59 H 0.61382 0.5979 0.01031 0.0
O60 O 0.62548 0.6351 0.0291 0.0
O61 O 0.63758 0.62722 0.02975 0.0
O62 O 0.63076 0.6297 0.99535 0.0
O63 O 0.63351 0.61356 0.99867 0.0
C64 C 0.62267 0.58647 0.07242 0.0
C65 C 0.63438 0.59373 0.07943 0.0
H66 H 0.65769 0.60999 0.08893 0.0
H67 H 0.67224 0.62706 0.07069 0.0
H68 H 0.59728 0.58063 0.02583 0.0
H69 H 0.60102 0.57487 0.055 0.0
H70 H 0.61586 0.57912 0.08002 0.0
H71 H 0.6364 0.59184 0.09232 0.0
Mn72 Mn 0.35961 0.00129 0.01025 0.0
Mn73 Mn 0.38666 0.02659 0.01642 0.0
C74 C 0.37338 0.00097 0.02968 0.0
C75 C 0.33911 0.98958 0.01673 0.0
C76 C 0.38074 0.01006 0.98529 0.0
O77 O 0.35712 0.01464 0.99947 0.0
O78 O 0.37486 0.03104 0.00666 0.0
C79 C 0.3798 0.03818 0.04386 0.0
N80 N 0.38701 0.03379 0.03818 0.0
C81 C 0.39885 0.03993 0.06439 0.0
C82 C 0.3916 0.04459 0.07048 0.0
C83 C 0.382 0.04366 0.0602 0.0
C84 C 0.39619 0.03453 0.04803 0.0
H85 H 0.37243 0.0375 0.03596 0.0
C86 C 0.36417 0.02611 0.00017 0.0
O87 O 0.34335 0.98846 0.00209 0.0
O88 O 0.34673 0.99769 0.02739 0.0
N89 N 0.39901 0.02376 0.02599 0.0
C90 C 0.40473 0.01824 0.01861 0.0
C91 C 0.41432 0.01802 0.02749 0.0
C92 C 0.41805 0.02365 0.0437 0.0
C93 C 0.41215 0.02943 0.05091 0.0
C94 C 0.40262 0.02931 0.04151 0.0
H95 H 0.40197 0.014 0.00609 0.0
O96 O 0.36465 0.99093 0.02346 0.0
O97 O 0.37362 0.01093 0.02472 0.0
O98 O 0.37017 0.00204 0.98997 0.0
O99 O 0.38738 0.01975 0.99387 0.0
C100 C 0.41524 0.03518 0.06716 0.0
C101 C 0.40854 0.04034 0.07396 0.0
H102 H 0.39328 0.04883 0.08308 0.0
H103 H 0.37633 0.04718 0.06484 0.0
H104 H 0.41884 0.01355 0.02182 0.0
H105 H 0.42542 0.02342 0.05053 0.0
H106 H 0.42267 0.03555 0.07463 0.0
H107 H 0.41087 0.04454 0.0866 0.0
Mn108 Mn 0.99995 0.64284 0.00406 0.0
Mn109 Mn 0.02712 0.6445 0.99942 0.0
C110 C 0.00201 0.63025 0.98452 0.0
C111 C 0.98667 0.65001 0.99733 0.0
C112 C 0.0104 0.63188 0.02953 0.0
O113 O 0.01164 0.65883 0.01578 0.0
O114 O 0.0294 0.65996 0.00933 0.0
C115 C 0.03731 0.66356 0.97252 0.0
N116 N 0.03418 0.65216 0.97803 0.0
C117 C 0.04181 0.64807 0.9521 0.0
C118 C 0.04519 0.65981 0.94619 0.0
C119 C 0.04287 0.66756 0.95642 0.0
C120 C 0.03623 0.64457 0.96821 0.0
H121 H 0.03557 0.66956 0.98037 0.0
C122 C 0.02319 0.66446 0.01564 0.0
O123 O 0.9858 0.6443 0.01167 0.0
O124 O 0.99529 0.65162 0.98695 0.0
N125 N 0.02644 0.63027 0.9898 0.0
C126 C 0.0222 0.61908 0.99707 0.0
C127 C 0.02355 0.61014 0.98829 0.0
C128 C 0.02941 0.61286 0.97229 0.0
C129 C 0.03388 0.6245 0.96522 0.0
C130 C 0.03224 0.63302 0.97453 0.0
H131 H 0.01778 0.61696 0.00943 0.0
O132 O 0.9914 0.62765 0.99005 0.0
O133 O 0.01108 0.64034 0.99019 0.0
O134 O 0.00164 0.63331 0.02425 0.0
O135 O 0.02046 0.63616 0.02161 0.0
C136 C 0.03981 0.62794 0.94922 0.0
C137 C 0.04368 0.63969 0.94259 0.0
H138 H 0.0495 0.66293 0.93379 0.0
H139 H 0.04541 0.67661 0.95192 0.0
H140 H 0.0201 0.60119 0.99386 0.0
H141 H 0.0304 0.60593 0.96553 0.0
H142 H 0.0413 0.62157 0.9418 0.0
H143 H 0.04803 0.64216 0.93014 0.0
Mn144 Mn 0.36269 0.36653 0.01615 0.0
Mn145 Mn 0.38877 0.36561 0.01936 0.0
C146 C 0.37742 0.37901 0.03565 0.0
C147 C 0.34245 0.35897 0.02326 0.0
C148 C 0.38339 0.37848 0.99038 0.0
O149 O 0.35872 0.35077 0.00394 0.0
O150 O 0.37599 0.35028 0.00875 0.0
C151 C 0.38102 0.34591 0.04521 0.0
N152 N 0.3888 0.35752 0.04025 0.0
C153 C 0.40043 0.36143 0.06652 0.0
C154 C 0.39259 0.34948 0.07186 0.0
C155 C 0.38283 0.3417 0.06117 0.0
C156 C 0.39817 0.36511 0.05048 0.0
H157 H 0.37349 0.33991 0.03705 0.0
C158 C 0.36511 0.34556 0.00297 0.0
O159 O 0.34687 0.36483 0.00898 0.0
O160 O 0.34978 0.35739 0.03338 0.0
N161 N 0.402 0.37976 0.02949 0.0
C162 C 0.40857 0.39109 0.0226 0.0
C163 C 0.41866 0.39999 0.0317 0.0
C164 C 0.42195 0.39713 0.04768 0.0
C165 C 0.41513 0.38538 0.05442 0.0
C166 C 0.40525 0.37685 0.04468 0.0
H167 H 0.40615 0.39333 0.01027 0.0
O168 O 0.36911 0.3815 0.03062 0.0
O169 O 0.37669 0.36913 0.02946 0.0
O170 O 0.37319 0.37652 0.99602 0.0
O171 O 0.38973 0.37441 0.9977 0.0
C172 C 0.41768 0.38183 0.07049 0.0
C173 C 0.4103 0.36988 0.07657 0.0
H174 H 0.39393 0.34621 0.08417 0.0
H175 H 0.37671 0.33248 0.06524 0.0
H176 H 0.42389 0.40904 0.0264 0.0
H177 H 0.42971 0.40402 0.05467 0.0
H178 H 0.42521 0.38826 0.07836 0.0
H179 H 0.41227 0.3673 0.08903 0.0
Mn180 Mn 0.64165 0.00324 0.00627 0.0
Mn181 Mn 0.61642 0.9762 -0.00041 0.0
C182 C 0.62681 0.00192 0.98748 0.0
C183 C 0.66166 0.01711 -0.0004 0.0
C184 C 0.62056 0.99162 0.03152 0.0
O185 O 0.64632 0.99109 0.01582 0.0
O186 O 0.62955 0.97354 0.00905 0.0
C187 C 0.62549 0.96716 0.97146 0.0
N188 N 0.6172 0.97008 0.97742 0.0
C189 C 0.60613 0.96421 0.95053 0.0
C190 C 0.6145 0.96107 0.94414 0.0
C191 C 0.62424 0.96258 0.95464 0.0
C192 C 0.60784 0.96873 0.9674 0.0
H193 H 0.633 0.96834 0.97947 0.0
C194 C 0.64034 0.97951 0.01518 0.0
O195 O 0.65723 0.01714 0.01462 0.0
O196 O 0.65455 0.00888 0.98867 0.0
N197 N 0.60295 0.97728 0.99032 0.0
C198 C 0.59586 0.98106 0.99826 0.0
C199 C 0.58576 0.98023 0.98946 0.0
C200 C 0.58298 0.97542 0.97267 0.0
C201 C 0.59034 0.97148 0.96483 0.0
C202 C 0.60021 0.97241 0.9743 0.0
H203 H 0.59791 0.98471 0.01119 0.0
O204 O 0.63461 0.01232 0.99408 0.0
O205 O 0.62805 0.99266 0.99186 0.0
O206 O 0.63078 1.00047 0.02706 0.0
O207 O 0.61466 0.982 0.02246 0.0
C208 C 0.58833 0.96678 0.94792 0.0
C209 C 0.59625 0.9632 0.94075 0.0
H210 H 0.61359 0.95756 0.93116 0.0
H211 H 0.63077 0.96023 0.94977 0.0
H212 H 0.58012 0.98328 0.99559 0.0
H213 H 0.5752 0.97482 0.96591 0.0
H214 H 0.58082 0.96603 0.94024 0.0
H215 H 0.5947 0.95974 0.92767 0.0
Mn216 Mn 0.66884 0.69584 0.33814 0.0
Mn217 Mn 0.6949 0.72223 0.33237 0.0
C218 C 0.66953 0.70986 0.31833 0.0
C219 C 0.65638 0.67535 0.33145 0.0
C220 C 0.67836 0.71746 0.36291 0.0
O221 O 0.68149 0.69254 0.34938 0.0
O222 O 0.69844 0.70999 0.34308 0.0
C223 C 0.7059 0.71393 0.306 0.0
N224 N 0.70202 0.72172 0.31101 0.0
C225 C 0.70823 0.73262 0.28414 0.0
C226 C 0.71236 0.72475 0.27873 0.0
C227 C 0.71116 0.71535 0.2897 0.0
C228 C 0.70308 0.73077 0.30054 0.0
H229 H 0.70497 0.70667 0.31438 0.0
C230 C 0.69299 0.69924 0.34944 0.0
O231 O 0.6554 0.67983 0.346 0.0
O232 O 0.66475 0.6827 0.32104 0.0
N233 N 0.69297 0.73494 0.32198 0.0
C234 C 0.68807 0.74143 0.32885 0.0
C235 C 0.68835 0.75106 0.31938 0.0
C236 C 0.69375 0.75399 0.30305 0.0
C237 C 0.69886 0.74728 0.29634 0.0
C238 C 0.6984 0.73785 0.30642 0.0
H239 H 0.68395 0.73925 0.34142 0.0
O240 O 0.65925 0.7016 0.32441 0.0
O241 O 0.67909 0.70956 0.3238 0.0
O242 O 0.67015 0.70685 0.35833 0.0
O243 O 0.68806 0.72375 0.35439 0.0
C244 C 0.70419 0.74945 0.27991 0.0
C245 C 0.70884 0.7421 0.2738 0.0
H246 H 0.71639 0.72579 0.26614 0.0
H247 H 0.71428 0.7092 0.28558 0.0
H248 H 0.68439 0.75619 0.32464 0.0
H249 H 0.69387 0.76137 0.29573 0.0
H250 H 0.7046 0.75663 0.27178 0.0
H251 H 0.71277 0.74375 0.26105 0.0
Mn252 Mn 0.30323 0.97261 0.34866 0.0
Mn253 Mn 0.30252 0.94584 0.35499 0.0
C254 C 0.28961 0.95862 0.36788 0.0
C255 C 0.31143 0.99313 0.3555 0.0
C256 C 0.29161 0.95133 0.32343 0.0
O257 O 0.3191 0.97548 0.33824 0.0
O258 O 0.31849 0.95795 0.34562 0.0
C259 C 0.32082 0.95336 0.38306 0.0
N260 N 0.3094 0.94583 0.37705 0.0
C261 C 0.30389 0.93447 0.40359 0.0
C262 C 0.31561 0.94205 0.41002 0.0
C263 C 0.3241 0.95156 0.39973 0.0
C264 C 0.30114 0.93672 0.38689 0.0
H265 H 0.32735 0.9607 0.3752 0.0
C266 C 0.32386 0.96865 0.33913 0.0
O267 O 0.30614 0.98887 0.3407 0.0
O268 O 0.31214 0.98553 0.36608 0.0
N269 N 0.28767 0.93321 0.36418 0.0
C270 C 0.27664 0.92696 0.35626 0.0
C271 C 0.26712 0.91717 0.36486 0.0
C272 C 0.26905 0.91385 0.38141 0.0
C273 C 0.28049 0.92036 0.38926 0.0
C274 C 0.28967 0.92994 0.37999 0.0
H275 H 0.27511 0.92941 0.34349 0.0
O276 O 0.28785 0.96715 0.36162 0.0
O277 O 0.29939 0.95868 0.36299 0.0
O278 O 0.29379 0.96188 0.32809 0.0
O279 O 0.29491 0.94486 0.33222 0.0
C280 C 0.2831 0.91779 0.40597 0.0
C281 C 0.29478 0.92488 0.41316 0.0
H282 H 0.31817 0.94071 0.42288 0.0
H283 H 0.33314 0.95749 0.40464 0.0
H284 H 0.25831 0.91219 0.35872 0.0
H285 H 0.26168 0.90629 0.38799 0.0
H286 H 0.27615 0.91049 0.41349 0.0
H287 H 0.29664 0.92293 0.42611 0.0
Mn288 Mn 0.02347 0.32932 0.34746 0.0
Mn289 Mn 0.05037 0.3545 0.35508 0.0
C290 C 0.03643 0.32896 0.36838 0.0
C291 C 0.00276 0.31794 0.35271 0.0
C292 C 0.04541 0.3379 0.32418 0.0
O293 O 0.02157 0.34274 0.33566 0.0
O294 O 0.03898 0.35909 0.34417 0.0
C295 C 0.04273 0.36607 0.38153 0.0
N296 N 0.0501 0.36169 0.37657 0.0
C297 C 0.06102 0.36758 0.40358 0.0
C298 C 0.0536 0.37224 0.40893 0.0
C299 C 0.04439 0.37144 0.39788 0.0
C300 C 0.05892 0.36233 0.38715 0.0
H301 H 0.03563 0.36546 0.37307 0.0
C302 C 0.02859 0.35421 0.33671 0.0
O303 O 0.00736 0.31656 0.33858 0.0
O304 O 0.01015 0.32607 0.36353 0.0
N305 N 0.06234 0.35156 0.36575 0.0
C306 C 0.06831 0.34609 0.35899 0.0
C307 C 0.07768 0.34591 0.36854 0.0
C308 C 0.08091 0.35147 0.38485 0.0
C309 C 0.0747 0.35711 0.3915 0.0
C310 C 0.0655 0.35708 0.38134 0.0
H311 H 0.06594 0.34188 0.34641 0.0
O312 O 0.0279 0.3189 0.36187 0.0
O313 O 0.03696 0.3389 0.36274 0.0
O314 O 0.03467 0.32987 0.32819 0.0
O315 O 0.05171 0.34759 0.33295 0.0
C316 C 0.07714 0.36257 0.40794 0.0
C317 C 0.07027 0.36776 0.414 0.0
H318 H 0.05483 0.37637 0.42155 0.0
H319 H 0.03859 0.37496 0.40196 0.0
H320 H 0.08242 0.34152 0.36333 0.0
H321 H 0.08812 0.35129 0.39219 0.0
H322 H 0.08414 0.36266 0.41614 0.0
H323 H 0.0721 0.37177 0.42677 0.0
Mn324 Mn 0.66439 0.97164 0.33669 0.0
Mn325 Mn 0.69062 0.97159 0.33014 0.0
C326 C 0.66487 0.95795 0.31754 0.0
C327 C 0.65147 0.97934 0.33062 0.0
C328 C 0.67501 0.96056 0.36175 0.0
O329 O 0.67708 0.98781 0.34685 0.0
O330 O 0.69408 0.98758 0.33964 0.0
C331 C 0.70033 0.98987 0.30215 0.0
N332 N 0.69694 0.97849 0.30808 0.0
C333 C 0.70259 0.97307 0.2814 0.0
C334 C 0.70622 0.98476 0.27505 0.0
C335 C 0.70505 0.99318 0.28545 0.0
C336 C 0.69794 0.97029 0.29813 0.0
H337 H 0.69943 0.99636 0.3101 0.0
C338 C 0.68858 0.99283 0.34602 0.0
O339 O 0.65111 0.97418 0.34529 0.0
O340 O 0.65943 0.98015 0.31955 0.0
N341 N 0.68881 0.95679 0.32084 0.0
C342 C 0.68458 0.9458 0.32871 0.0
C343 C 0.68508 0.93635 0.32002 0.0
C344 C 0.69001 0.93832 0.3034 0.0
C345 C 0.69439 0.94973 0.29561 0.0
C346 C 0.69377 0.95885 0.30498 0.0
H347 H 0.68086 0.94424 0.34153 0.0
O348 O 0.65468 0.95601 0.32395 0.0
O349 O 0.67444 0.96798 0.32219 0.0
O350 O 0.6665 0.96256 0.35711 0.0
O351 O 0.68461 0.96396 0.35295 0.0
C352 C 0.69922 0.95238 0.27885 0.0
C353 C 0.70327 0.96403 0.27172 0.0
H354 H 0.70985 0.98734 0.26216 0.0
H355 H 0.70778 0.0022 0.28061 0.0
H356 H 0.68168 0.92756 0.32612 0.0
H357 H 0.69038 0.93101 0.29674 0.0
H358 H 0.69973 0.94549 0.27125 0.0
H359 H 0.70682 0.96591 0.25874 0.0
Mn360 Mn 0.02822 0.69882 0.34916 0.0
Mn361 Mn 0.0547 0.69892 0.35459 0.0
C362 C 0.04257 0.71218 0.36843 0.0
C363 C 0.00795 0.69122 0.3562 0.0
C364 C 0.04936 0.71055 0.3239 0.0
O365 O 0.02471 0.6827 0.3386 0.0
O366 O 0.04247 0.68331 0.34395 0.0
C367 C 0.04674 0.67962 0.38111 0.0
N368 N 0.05441 0.69123 0.37602 0.0
C369 C 0.0654 0.69577 0.40296 0.0
C370 C 0.05766 0.68384 0.40845 0.0
C371 C 0.04828 0.67574 0.39749 0.0
C372 C 0.06343 0.69912 0.38649 0.0
H373 H 0.0395 0.67338 0.37274 0.0
C374 C 0.03158 0.678 0.3381 0.0
O375 O 0.01213 0.6963 0.34135 0.0
O376 O 0.01548 0.69033 0.36674 0.0
N377 N 0.06741 0.71339 0.36486 0.0
C378 C 0.07386 0.72469 0.35781 0.0
C379 C 0.08354 0.73389 0.36717 0.0
C380 C 0.08656 0.73138 0.38359 0.0
C381 C 0.07987 0.71966 0.3905 0.0
C382 C 0.0704 0.71082 0.3805 0.0
H383 H 0.07163 0.72666 0.34516 0.0
O384 O 0.03426 0.71434 0.36231 0.0
O385 O 0.04215 0.70223 0.36324 0.0
O386 O 0.03876 0.70808 0.3285 0.0
O387 O 0.05593 0.70733 0.33253 0.0
C388 C 0.08214 0.71645 0.40701 0.0
C389 C 0.07488 0.70453 0.41326 0.0
H390 H 0.0588 0.68082 0.42109 0.0
H391 H 0.04224 0.66653 0.40167 0.0
H392 H 0.08866 0.74291 0.36174 0.0
H393 H 0.09401 0.73851 0.39078 0.0
H394 H 0.08935 0.72313 0.41509 0.0
H395 H 0.07661 0.70221 0.42605 0.0
Mn396 Mn 0.30893 0.3384 0.34126 0.0
Mn397 Mn 0.28266 0.31192 0.33727 0.0
C398 C 0.29428 0.33678 0.32174 0.0
C399 C 0.32907 0.35107 0.3337 0.0
C400 C 0.28803 0.32956 0.36681 0.0
O401 O 0.31284 0.32622 0.35284 0.0
O402 O 0.29523 0.30901 0.34813 0.0
C403 C 0.29041 0.29982 0.3118 0.0
N404 N 0.28269 0.30384 0.31653 0.0
C405 C 0.27058 0.29548 0.29088 0.0
C406 C 0.27836 0.29121 0.28575 0.0
C407 C 0.28835 0.29344 0.29622 0.0
C408 C 0.27314 0.30186 0.30647 0.0
H409 H 0.29805 0.30146 0.31986 0.0
C410 C 0.30615 0.3147 0.35377 0.0
O411 O 0.32494 0.35223 0.3484 0.0
O412 O 0.3216 0.34236 0.32364 0.0
N413 N 0.26964 0.31323 0.3268 0.0
C414 C 0.2634 0.31853 0.33314 0.0
C415 C 0.25336 0.31749 0.32391 0.0
C416 C 0.24971 0.31084 0.30844 0.0
C417 C 0.25618 0.30532 0.30231 0.0
C418 C 0.26617 0.30676 0.31197 0.0
H419 H 0.26608 0.32355 0.34511 0.0
O420 O 0.30249 0.34735 0.32731 0.0
O421 O 0.29494 0.32747 0.3276 0.0
O422 O 0.29851 0.33758 0.36183 0.0
O423 O 0.28153 0.3196 0.35874 0.0
C424 C 0.25316 0.29853 0.28691 0.0
C425 C 0.26042 0.29372 0.2811 0.0
H426 H 0.27678 0.28625 0.27377 0.0
H427 H 0.29442 0.2902 0.29232 0.0
H428 H 0.24841 0.32177 0.32874 0.0
H429 H 0.24196 0.31006 0.30136 0.0
H430 H 0.24537 0.29712 0.27928 0.0
H431 H 0.25815 0.28873 0.26906 0.0
Mn432 Mn 0.33166 0.02776 0.67164 0.0
Mn433 Mn 0.3573 0.05495 0.66917 0.0
C434 C 0.33265 0.0424 0.6528 0.0
C435 C 0.31977 0.00753 0.6634 0.0
C436 C 0.3393 0.0482 0.69814 0.0
O437 O 0.34427 0.02446 0.68307 0.0
O438 O 0.36096 0.04277 0.67976 0.0
C439 C 0.3702 0.04838 0.64349 0.0
N440 N 0.3656 0.0556 0.64843 0.0
C441 C 0.37257 0.06746 0.62242 0.0
C442 C 0.37745 0.0602 0.61711 0.0
C443 C 0.37623 0.05061 0.62767 0.0
C444 C 0.36669 0.06482 0.63833 0.0
H445 H 0.36925 0.04098 0.65156 0.0
C446 C 0.35563 0.03167 0.68475 0.0
O447 O 0.31839 0.01139 0.67823 0.0
O448 O 0.3283 0.01534 0.65356 0.0
N449 N 0.3552 0.06764 0.65909 0.0
C450 C 0.34955 0.07346 0.66576 0.0
C451 C 0.34974 0.08317 0.65662 0.0
C452 C 0.35582 0.08685 0.64081 0.0
C453 C 0.36168 0.08082 0.63431 0.0
C454 C 0.36127 0.07128 0.64406 0.0
H455 H 0.34489 0.07069 0.67793 0.0
O456 O 0.32224 0.03372 0.65789 0.0
O457 O 0.34216 0.0422 0.65877 0.0
O458 O 0.33174 0.03767 0.69249 0.0
O459 O 0.34926 0.05529 0.69067 0.0
C460 C 0.36774 0.08376 0.61839 0.0
C461 C 0.37315 0.07707 0.61243 0.0
H462 H 0.38207 0.06186 0.60489 0.0
H463 H 0.37992 0.04493 0.62362 0.0
H464 H 0.34519 0.08778 0.66173 0.0
H465 H 0.35586 0.09428 0.63374 0.0
H466 H 0.36813 0.09105 0.61051 0.0
H467 H 0.37764 0.07931 0.60006 0.0
Mn468 Mn 0.97158 0.30493 0.6767 0.0
Mn469 Mn 0.9723 0.27857 0.67805 0.0
C470 C 0.95935 0.28978 0.69574 0.0
C471 C 0.97865 0.32501 0.68514 0.0
C472 C 0.9587 0.28416 0.65051 0.0
O473 O 0.98729 0.30934 0.66436 0.0
O474 O 0.98685 0.29137 0.66617 0.0
C475 C 0.99349 0.2867 0.70144 0.0
N476 N 0.98168 0.27875 0.6976 0.0
C477 C 0.97979 0.26667 0.72269 0.0
C478 C 0.99195 0.27469 0.72686 0.0
C479 C 0.99881 0.28478 0.71623 0.0
C480 C 0.97497 0.2691 0.70784 0.0
H481 H 0.99881 0.29443 0.69326 0.0
C482 C 0.99187 0.30253 0.66155 0.0
O483 O 0.97295 0.32084 0.6706 0.0
O484 O 0.98053 0.31758 0.69461 0.0
N485 N 0.95897 0.26526 0.68923 0.0
C486 C 0.94723 0.2587 0.68379 0.0
C487 C 0.93907 0.24848 0.69329 0.0
C488 C 0.94311 0.24497 0.70805 0.0
C489 C 0.95527 0.25173 0.71321 0.0
C490 C 0.96297 0.26188 0.7033 0.0
H491 H 0.94411 0.26128 0.67236 0.0
O492 O 0.95672 0.29807 0.69105 0.0
O493 O 0.9692 0.29065 0.68937 0.0
O494 O 0.96162 0.29476 0.65598 0.0
O495 O 0.96223 0.27736 0.65778 0.0
C496 C 0.96004 0.24889 0.72788 0.0
C497 C 0.97226 0.25641 0.7327 0.0
H498 H 0.9961 0.27322 0.73824 0.0
H499 H 0.00818 0.29102 0.7194 0.0
H500 H 0.9297 0.24329 0.68921 0.0
H501 H 0.93678 0.2371 0.71537 0.0
H502 H 0.95436 0.241 0.73565 0.0
H503 H 0.97577 0.25424 0.74418 0.0
Mn504 Mn 0.69248 0.66313 0.67781 0.0
Mn505 Mn 0.71938 0.68896 0.68179 0.0
C506 C 0.70651 0.66421 0.69794 0.0
C507 C 0.67205 0.65148 0.68457 0.0
C508 C 0.71346 0.67082 0.65276 0.0
O509 O 0.68959 0.6757 0.66535 0.0
O510 O 0.70737 0.69263 0.67066 0.0
C511 C 0.71235 0.70175 0.70712 0.0
N512 N 0.71967 0.69722 0.70252 0.0
C513 C 0.73118 0.70433 0.72893 0.0
C514 C 0.72382 0.70913 0.73391 0.0
C515 C 0.71434 0.7078 0.72298 0.0
C516 C 0.72877 0.69839 0.71298 0.0
H517 H 0.70505 0.70072 0.69877 0.0
C518 C 0.69656 0.68718 0.66454 0.0
O519 O 0.67635 0.64972 0.67042 0.0
O520 O 0.67958 0.66014 0.69465 0.0
N521 N 0.7319 0.68688 0.69245 0.0
C522 C 0.73788 0.68132 0.68604 0.0
C523 C 0.74752 0.68166 0.69552 0.0
C524 C 0.751 0.68781 0.71139 0.0
C525 C 0.74481 0.69358 0.71764 0.0
C526 C 0.73533 0.69302 0.70756 0.0
H527 H 0.73529 0.67663 0.6738 0.0
O528 O 0.69792 0.65374 0.69264 0.0
O529 O 0.7065 0.67373 0.69155 0.0
O530 O 0.70297 0.66302 0.658 0.0
O531 O 0.72011 0.68097 0.66034 0.0
C532 C 0.74754 0.6997 0.73361 0.0
C533 C 0.7407 0.70503 0.73928 0.0
H534 H 0.7253 0.71378 0.74615 0.0
H535 H 0.70858 0.71144 0.72678 0.0
H536 H 0.75226 0.67719 0.69061 0.0
H537 H 0.75841 0.68801 0.71871 0.0
H538 H 0.75476 0.7002 0.74175 0.0
H539 H 0.74278 0.70956 0.75168 0.0
Mn540 Mn 0.33571 0.30933 0.66946 0.0
Mn541 Mn 0.36229 0.30942 0.66685 0.0
C542 C 0.33752 0.29611 0.65083 0.0
C543 C 0.32305 0.317 0.66135 0.0
C544 C 0.34462 0.29754 0.69613 0.0
O545 O 0.34766 0.32533 0.68092 0.0
O546 O 0.36501 0.32502 0.67681 0.0
C547 C 0.37399 0.32871 0.64052 0.0
N548 N 0.37019 0.31712 0.64589 0.0
C549 C 0.37826 0.31284 0.62059 0.0
C550 C 0.38232 0.32475 0.61482 0.0
C551 C 0.38012 0.33269 0.62479 0.0
C552 C 0.37211 0.30936 0.6363 0.0
H553 H 0.37237 0.33485 0.64819 0.0
C554 C 0.35915 0.3302 0.68205 0.0
O555 O 0.32186 0.31159 0.67605 0.0
O556 O 0.33172 0.31811 0.65144 0.0
N557 N 0.36123 0.29499 0.65735 0.0
C558 C 0.35645 0.28372 0.66452 0.0
C559 C 0.35768 0.27462 0.65601 0.0
C560 C 0.36401 0.27727 0.6404 0.0
C561 C 0.36906 0.289 0.63345 0.0
C562 C 0.36749 0.29768 0.64246 0.0
H563 H 0.35169 0.28166 0.67661 0.0
O564 O 0.32693 0.29398 0.65582 0.0
O565 O 0.34673 0.30606 0.65656 0.0
O566 O 0.33653 0.29984 0.69038 0.0
O567 O 0.3547 0.30101 0.6886 0.0
C568 C 0.37554 0.29241 0.61788 0.0
C569 C 0.38003 0.30429 0.61137 0.0
H570 H 0.38708 0.32787 0.60272 0.0
H571 H 0.38319 0.34188 0.62039 0.0
H572 H 0.3538 0.2656 0.66149 0.0
H573 H 0.36492 0.27022 0.63385 0.0
H574 H 0.37698 0.28592 0.6107 0.0
H575 H 0.38482 0.30674 0.59924 0.0
Mn576 Mn 0.69508 0.03012 0.68282 0.0
Mn577 Mn 0.72148 0.03019 0.68913 0.0
C578 C 0.70922 0.04348 0.70232 0.0
C579 C 0.67473 0.02262 0.68948 0.0
C580 C 0.71667 0.04206 0.65827 0.0
O581 O 0.69161 0.01398 0.67239 0.0
O582 O 0.70943 0.01477 0.67781 0.0
C583 C 0.71281 0.01046 0.71507 0.0
N584 N 0.72068 0.02212 0.71041 0.0
C585 C 0.73115 0.02613 0.73773 0.0
C586 C 0.72321 0.01413 0.74279 0.0
C587 C 0.71398 0.00628 0.73142 0.0
C588 C 0.72953 0.02978 0.72129 0.0
H589 H 0.70569 0.0044 0.70639 0.0
C590 C 0.69858 0.00941 0.67184 0.0
O591 O 0.67905 0.0277 0.67468 0.0
O592 O 0.68215 0.02166 0.70015 0.0
N593 N 0.73407 0.04443 0.70005 0.0
C594 C 0.74077 0.05581 0.69338 0.0
C595 C 0.75037 0.06478 0.70314 0.0
C596 C 0.75306 0.06194 0.71957 0.0
C597 C 0.7461 0.05015 0.7261 0.0
C598 C 0.73673 0.04155 0.71571 0.0
H599 H 0.73877 0.05805 0.68075 0.0
O600 O 0.70101 0.04565 0.69588 0.0
O601 O 0.70883 0.0335 0.69734 0.0
O602 O 0.7059 0.03935 0.6623 0.0
O603 O 0.72319 0.03897 0.66731 0.0
C604 C 0.74801 0.04663 0.7426 0.0
C605 C 0.74051 0.03464 0.74844 0.0
H606 H 0.72407 0.01088 0.7554 0.0
H607 H 0.70779 0.99703 0.73526 0.0
H608 H 0.75569 0.07387 0.69801 0.0
H609 H 0.76046 0.06889 0.72707 0.0
H610 H 0.75514 0.05311 0.75098 0.0
H611 H 0.74198 0.03208 0.76123 0.0
Mn612 Mn 0.97369 0.674 0.67342 0.0
Mn613 Mn 0.94715 0.64801 0.66813 0.0
C614 C 0.9594 0.67342 0.65416 0.0
C615 C 0.99406 0.68609 0.66657 0.0
C616 C 0.95289 0.66473 0.69899 0.0
O617 O 0.9769 0.66115 0.68431 0.0
O618 O 0.95951 0.6442 0.67758 0.0
C619 C 0.95434 0.63691 0.64038 0.0
N620 N 0.94688 0.64093 0.64628 0.0
C621 C 0.93521 0.63503 0.6199 0.0
C622 C 0.94273 0.63075 0.61357 0.0
C623 C 0.95235 0.63174 0.62385 0.0
C624 C 0.93765 0.64012 0.63646 0.0
H625 H 0.96176 0.63767 0.64824 0.0
C626 C 0.97027 0.64961 0.68387 0.0
O627 O 0.98986 0.6872 0.68124 0.0
O628 O 0.98646 0.67787 0.656 0.0
N629 N 0.93434 0.65023 0.65893 0.0
C630 C 0.92813 0.65508 0.66675 0.0
C631 C 0.91822 0.65484 0.65818 0.0
C632 C 0.91472 0.64953 0.64175 0.0
C633 C 0.9212 0.64453 0.634 0.0
C634 C 0.93092 0.64491 0.64324 0.0
H635 H 0.9307 0.65909 0.67944 0.0
O636 O 0.96791 0.68375 0.66001 0.0
O637 O 0.95968 0.6638 0.65947 0.0
O638 O 0.9632 0.67302 0.69385 0.0
O639 O 0.94644 0.65481 0.69077 0.0
C640 C 0.91846 0.63927 0.61741 0.0
C641 C 0.92549 0.63458 0.61033 0.0
H642 H 0.94124 0.62677 0.60082 0.0
H643 H 0.95823 0.62851 0.61903 0.0
H644 H 0.91326 0.65872 0.66425 0.0
H645 H 0.90706 0.64933 0.63521 0.0
H646 H 0.91105 0.63892 0.60991 0.0
H647 H 0.92339 0.6307 0.59748 0.0
H648 H 0.21606 0.34078 0.14184 0.0
N649 N 0.19884 0.31902 0.12824 0.0
H650 H 0.22735 0.3437 0.16877 0.0
H651 H 0.19583 0.30223 0.15134 0.0
H652 H 0.20747 0.30507 0.17811 0.0
H653 H 0.20453 0.30343 0.11448 0.0
H654 H 0.22091 0.30789 0.09445 0.0
H655 H 0.21147 0.34027 0.10964 0.0
H656 H 0.22741 0.34465 0.08919 0.0
H657 H 0.1999 0.34128 0.13011 0.0
H658 H 0.17558 0.30282 0.12463 0.0
H659 H 0.18301 0.34498 0.12954 0.0
H660 H 0.15832 0.30633 0.12554 0.0
H661 H 0.12877 0.35274 0.15216 0.0
H662 H 0.11786 0.34978 0.17915 0.0
H663 H 0.10652 0.31149 0.17772 0.0
H664 H 0.11756 0.31462 0.15059 0.0
H665 H 0.11003 0.315 0.12182 0.0
H666 H 0.09521 0.31344 0.10017 0.0
H667 H 0.11665 0.35203 0.09053 0.0
H668 H 0.13157 0.35335 0.11182 0.0
H669 H 0.15114 0.34767 0.14836 0.0
H670 H 0.16779 0.34339 0.1469 0.0
H671 H 0.14667 0.31356 0.11198 0.0
N672 N 0.12972 0.336 0.13296 0.0
H673 H 0.12978 0.31738 0.11458 0.0
C674 C 0.2049 0.32125 0.14474 0.0
C675 C 0.21381 0.33297 0.14989 0.0
C676 C 0.22033 0.33464 0.16525 0.0
C677 C 0.21825 0.3246 0.17546 0.0
C678 C 0.20923 0.31294 0.17042 0.0
C679 C 0.20257 0.31131 0.15524 0.0
C680 C 0.20667 0.32142 0.11366 0.0
C681 C 0.20931 0.31235 0.10865 0.0
C682 C 0.21868 0.31494 0.09716 0.0
C683 C 0.22561 0.32669 0.09032 0.0
C684 C 0.22244 0.33557 0.09449 0.0
C685 C 0.21315 0.333 0.10613 0.0
C686 C 0.18908 0.32172 0.127 0.0
C687 C 0.19095 0.33358 0.12857 0.0
C688 C 0.18115 0.33568 0.12861 0.0
C689 C 0.16918 0.32596 0.12769 0.0
C690 C 0.16735 0.31409 0.126 0.0
C691 C 0.17721 0.31204 0.12557 0.0
C692 C 0.12394 0.33394 0.14946 0.0
C693 C 0.12404 0.34375 0.15782 0.0
C694 C 0.11784 0.34203 0.17323 0.0
C695 C 0.11134 0.3304 0.18058 0.0
C696 C 0.11137 0.32054 0.17228 0.0
C697 C 0.11767 0.3223 0.15685 0.0
C698 C 0.12195 0.33433 0.11835 0.0
C699 C 0.11168 0.32305 0.11473 0.0
C700 C 0.10315 0.3222 0.10244 0.0
C701 C 0.10466 0.33263 0.09369 0.0
C702 C 0.11525 0.34377 0.0968 0.0
C703 C 0.12379 0.34458 0.10899 0.0
C704 C 0.13923 0.33298 0.13154 0.0
C705 C 0.15011 0.34017 0.14046 0.0
C706 C 0.15968 0.33777 0.13942 0.0
C707 C 0.15874 0.32823 0.12907 0.0
C708 C 0.14775 0.32092 0.12021 0.0
C709 C 0.13805 0.32318 0.12156 0.0
H710 H 0.70749 0.80906 0.15203 0.0
N711 N 0.69221 0.80704 0.12693 0.0
H712 H 0.70279 0.79734 0.17883 0.0
H713 H 0.66954 0.79134 0.1389 0.0
H714 H 0.66468 0.78007 0.16588 0.0
H715 H 0.67122 0.79441 0.10826 0.0
H716 H 0.66666 0.77763 0.0884 0.0
H717 H 0.70789 0.80145 0.11357 0.0
H718 H 0.7036 0.78501 0.09332 0.0
H719 H 0.71014 0.82856 0.11781 0.0
H720 H 0.67225 0.80991 0.13026 0.0
H721 H 0.71005 0.8478 0.11633 0.0
H722 H 0.67218 0.82912 0.12987 0.0
H723 H 0.70675 0.90455 0.15182 0.0
H724 H 0.70098 0.91008 0.17894 0.0
H725 H 0.66564 0.87815 0.17505 0.0
H726 H 0.67155 0.87264 0.14802 0.0
H727 H 0.67017 0.88145 0.12128 0.0
H728 H 0.66538 0.89314 0.10086 0.0
H729 H 0.70331 0.91494 0.08871 0.0
H730 H 0.70806 0.90325 0.10961 0.0
H731 H 0.71012 0.88097 0.1388 0.0
H732 H 0.70955 0.86151 0.13608 0.0
H733 H 0.6735 0.84579 0.11409 0.0
N734 N 0.69291 0.88621 0.13104 0.0
H735 H 0.67399 0.86517 0.11768 0.0
C736 C 0.68892 0.80117 0.14353 0.0
C737 C 0.69813 0.80287 0.15517 0.0
C738 C 0.6954 0.79619 0.1705 0.0
C739 C 0.68334 0.7877 0.17451 0.0
C740 C 0.67408 0.78638 0.16309 0.0
C741 C 0.67684 0.79297 0.1477 0.0
C742 C 0.68989 0.79906 0.11251 0.0
C743 C 0.67837 0.79253 0.10481 0.0
C744 C 0.6758 0.78298 0.0934 0.0
C745 C 0.68472 0.77985 0.08953 0.0
C746 C 0.69645 0.78702 0.09632 0.0
C747 C 0.69898 0.79648 0.10772 0.0
C748 C 0.69131 0.81785 0.12441 0.0
C749 C 0.7018 0.82864 0.12017 0.0
C750 C 0.70173 0.83963 0.11953 0.0
C751 C 0.69117 0.84011 0.12335 0.0
C752 C 0.68048 0.82915 0.1268 0.0
C753 C 0.68053 0.8181 0.12719 0.0
C754 C 0.6896 0.88827 0.14789 0.0
C755 C 0.69784 0.89865 0.15702 0.0
C756 C 0.69453 0.90176 0.1725 0.0
C757 C 0.68283 0.89457 0.17907 0.0
C758 C 0.67467 0.88393 0.17019 0.0
C759 C 0.67805 0.88075 0.15477 0.0
C760 C 0.68954 0.89148 0.11699 0.0
C761 C 0.67746 0.88854 0.114 0.0
C762 C 0.67471 0.89525 0.10223 0.0
C763 C 0.68397 0.90505 0.09322 0.0
C764 C 0.69598 0.90757 0.09562 0.0
C765 C 0.69871 0.90084 0.1074 0.0
C766 C 0.69221 0.87462 0.12833 0.0
C767 C 0.70213 0.87332 0.13332 0.0
C768 C 0.7018 0.86219 0.1316 0.0
C769 C 0.69152 0.85204 0.12467 0.0
C770 C 0.68154 0.85336 0.1196 0.0
C771 C 0.68185 0.86452 0.12151 0.0
H772 H 0.12139 0.78846 0.14244 0.0
N773 N 0.11919 0.80777 0.13052 0.0
H774 H 0.11338 0.77746 0.1692 0.0
H775 H 0.10881 0.81336 0.1558 0.0
H776 H 0.10079 0.80236 0.18296 0.0
H777 H 0.09866 0.80463 0.11667 0.0
H778 H 0.08545 0.78894 0.09607 0.0
H779 H 0.12506 0.79282 0.11212 0.0
H780 H 0.11187 0.77697 0.09231 0.0
H781 H 0.139 0.80436 0.13211 0.0
H782 H 0.12802 0.83134 0.12503 0.0
H783 H 0.15997 0.81976 0.12898 0.0
H784 H 0.14923 0.84717 0.12328 0.0
H785 H 0.2268 0.87389 0.14013 0.0
H786 H 0.23658 0.88534 0.16642 0.0
H787 H 0.20811 0.89436 0.17179 0.0
H788 H 0.19832 0.88275 0.14551 0.0
H789 H 0.20549 0.89175 0.11641 0.0
H790 H 0.21829 0.90742 0.09581 0.0
H791 H 0.23375 0.88529 0.08019 0.0
H792 H 0.22072 0.86958 0.10062 0.0
H793 H 0.19692 0.85081 0.14211 0.0
H794 H 0.17566 0.83546 0.14351 0.0
H795 H 0.16696 0.85625 0.10736 0.0
N796 N 0.20701 0.87148 0.12465 0.0
H797 H 0.18809 0.87193 0.107 0.0
C798 C 0.11577 0.80185 0.14711 0.0
C799 C 0.11715 0.79177 0.15127 0.0
C800 C 0.11254 0.78544 0.16667 0.0
C801 C 0.10641 0.789 0.17822 0.0
C802 C 0.10534 0.7993 0.17425 0.0
C803 C 0.11 0.80565 0.15884 0.0
C804 C 0.11285 0.79997 0.11607 0.0
C805 C 0.10171 0.79882 0.11099 0.0
C806 C 0.09412 0.78975 0.09938 0.0
C807 C 0.0975 0.78155 0.09268 0.0
C808 C 0.10898 0.78316 0.09704 0.0
C809 C 0.11658 0.79227 0.10856 0.0
C810 C 0.13181 0.81663 0.12847 0.0
C811 C 0.14104 0.81358 0.12976 0.0
C812 C 0.15317 0.82254 0.12828 0.0
C813 C 0.15644 0.83484 0.12599 0.0
C814 C 0.14715 0.83783 0.12472 0.0
C815 C 0.135 0.8288 0.12584 0.0
C816 C 0.21187 0.87745 0.14094 0.0
C817 C 0.22263 0.87825 0.14711 0.0
C818 C 0.22824 0.88487 0.16201 0.0
C819 C 0.22317 0.89084 0.17108 0.0
C820 C 0.21219 0.8898 0.16513 0.0
C821 C 0.20661 0.8832 0.15012 0.0
C822 C 0.21216 0.87946 0.11004 0.0
C823 C 0.21136 0.89011 0.10818 0.0
C824 C 0.21878 0.89912 0.09649 0.0
C825 C 0.22719 0.8977 0.08651 0.0
C826 C 0.22732 0.88666 0.08753 0.0
C827 C 0.21988 0.87766 0.0992 0.0
C828 C 0.19425 0.86257 0.12452 0.0
C829 C 0.1904 0.85207 0.13454 0.0
C830 C 0.17821 0.84321 0.13516 0.0
C831 C 0.16947 0.84446 0.12541 0.0
C832 C 0.17333 0.855 0.11526 0.0
C833 C 0.18555 0.86401 0.11493 0.0
H834 H 0.33005 0.21864 0.88237 0.0
N835 N 0.3085 0.19872 0.89087 0.0
H836 H 0.33462 0.23019 0.85559 0.0
H837 H 0.29432 0.19365 0.86307 0.0
H838 H 0.29887 0.20517 0.83599 0.0
H839 H 0.29556 0.20916 0.89895 0.0
H840 H 0.30119 0.22609 0.91864 0.0
H841 H 0.32661 0.2065 0.91613 0.0
H842 H 0.33194 0.22296 0.93622 0.0
H843 H 0.33118 0.2011 0.88945 0.0
H844 H 0.29327 0.17507 0.89415 0.0
H845 H 0.33599 0.18483 0.88928 0.0
H846 H 0.29788 0.15848 0.89263 0.0
H847 H 0.34562 0.13575 0.85873 0.0
H848 H 0.34226 0.12381 0.83236 0.0
H849 H 0.30427 0.10266 0.84421 0.0
H850 H 0.30762 0.11508 0.87018 0.0
H851 H 0.31115 0.11285 0.89911 0.0
H852 H 0.31339 0.09971 0.9202 0.0
H853 H 0.35221 0.12306 0.91947 0.0
H854 H 0.3498 0.13633 0.89867 0.0
H855 H 0.34045 0.15417 0.86864 0.0
H856 H 0.33523 0.17018 0.87122 0.0
H857 H 0.30595 0.14732 0.90539 0.0
N858 N 0.32956 0.1323 0.88279 0.0
H859 H 0.31075 0.13107 0.9016 0.0
C860 C 0.3118 0.20522 0.87469 0.0
C861 C 0.32325 0.2155 0.87224 0.0
C862 C 0.32586 0.2221 0.85688 0.0
C863 C 0.3171 0.21861 0.84367 0.0
C864 C 0.30576 0.20817 0.84601 0.0
C865 C 0.30317 0.20154 0.86137 0.0
C866 C 0.31068 0.20658 0.90561 0.0
C867 C 0.30337 0.21196 0.90734 0.0
C868 C 0.3066 0.22165 0.91868 0.0
C869 C 0.31718 0.22611 0.92883 0.0
C870 C 0.32394 0.22004 0.9282 0.0
C871 C 0.3208 0.21045 0.91666 0.0
C872 C 0.31181 0.18934 0.89215 0.0
C873 C 0.32385 0.19187 0.89057 0.0
C874 C 0.32659 0.18246 0.89018 0.0
C875 C 0.31734 0.17023 0.89071 0.0
C876 C 0.3053 0.16773 0.89246 0.0
C877 C 0.30261 0.1772 0.89326 0.0
C878 C 0.32693 0.12616 0.86645 0.0
C879 C 0.33653 0.12872 0.85539 0.0
C880 C 0.3346 0.12192 0.84039 0.0
C881 C 0.32302 0.1123 0.83638 0.0
C882 C 0.31328 0.10999 0.84715 0.0
C883 C 0.31519 0.11702 0.86197 0.0
C884 C 0.33036 0.12565 0.89739 0.0
C885 C 0.32012 0.11534 0.90381 0.0
C886 C 0.32142 0.10774 0.91577 0.0
C887 C 0.33299 0.11025 0.92142 0.0
C888 C 0.34316 0.12091 0.91559 0.0
C889 C 0.34182 0.12851 0.90369 0.0
C890 C 0.32612 0.14148 0.88501 0.0
C891 C 0.33288 0.15263 0.87663 0.0
C892 C 0.32994 0.16183 0.87832 0.0
C893 C 0.32026 0.16021 0.88877 0.0
C894 C 0.31341 0.14893 0.89711 0.0
C895 C 0.31622 0.13961 0.89509 0.0
H896 H 0.7989 0.1296 0.87222 0.0
N897 N 0.80537 0.11729 0.89528 0.0
H898 H 0.78727 0.1214 0.84558 0.0
H899 H 0.79968 0.0963 0.88039 0.0
H900 H 0.78854 0.08817 0.85333 0.0
H901 H 0.80262 0.10293 0.92199 0.0
H902 H 0.78545 0.09379 0.9418 0.0
H903 H 0.78827 0.12435 0.89904 0.0
H904 H 0.7712 0.1153 0.91866 0.0
H905 H 0.80858 0.14009 0.90196 0.0
H906 H 0.82718 0.1204 0.88977 0.0
H907 H 0.82776 0.15912 0.9019 0.0
H908 H 0.84634 0.1394 0.88887 0.0
H909 H 0.87884 0.20996 0.87179 0.0
H910 H 0.88638 0.22029 0.84423 0.0
H911 H 0.90536 0.20029 0.83662 0.0
H912 H 0.89761 0.18982 0.86421 0.0
H913 H 0.90581 0.19976 0.90174 0.0
H914 H 0.91764 0.21653 0.92165 0.0
H915 H 0.88855 0.22493 0.92267 0.0
H916 H 0.87666 0.20788 0.90301 0.0
H917 H 0.86241 0.19153 0.8799 0.0
H918 H 0.84295 0.17307 0.88311 0.0
H919 H 0.86109 0.15503 0.90594 0.0
N920 N 0.88475 0.19402 0.88714 0.0
H921 H 0.88057 0.17338 0.9017 0.0
C922 C 0.80003 0.11346 0.87837 0.0
C923 C 0.79674 0.12059 0.86812 0.0
C924 C 0.79015 0.1159 0.8528 0.0
C925 C 0.78682 0.10405 0.84738 0.0
C926 C 0.79069 0.09721 0.85728 0.0
C927 C 0.79716 0.10187 0.87265 0.0
C928 C 0.79675 0.11425 0.90897 0.0
C929 C 0.79598 0.10593 0.92159 0.0
C930 C 0.78618 0.10073 0.93287 0.0
C931 C 0.77692 0.10373 0.93161 0.0
C932 C 0.77813 0.11271 0.91977 0.0
C933 C 0.78796 0.11795 0.90858 0.0
C934 C 0.81647 0.12875 0.89609 0.0
C935 C 0.81678 0.13982 0.89935 0.0
C936 C 0.82779 0.15076 0.89914 0.0
C937 C 0.83867 0.15085 0.89547 0.0
C938 C 0.83824 0.13972 0.89217 0.0
C939 C 0.82729 0.12883 0.89256 0.0
C940 C 0.88757 0.19899 0.86997 0.0
C941 C 0.88431 0.20751 0.86401 0.0
C942 C 0.88866 0.21345 0.84825 0.0
C943 C 0.89649 0.21113 0.83834 0.0
C944 C 0.89941 0.20231 0.84407 0.0
C945 C 0.89494 0.19628 0.85971 0.0
C946 C 0.89046 0.20266 0.90086 0.0
C947 C 0.90191 0.20507 0.90658 0.0
C948 C 0.90867 0.21471 0.91781 0.0
C949 C 0.9041 0.22217 0.92351 0.0
C950 C 0.8923 0.21932 0.91854 0.0
C951 C 0.88552 0.20963 0.90726 0.0
C952 C 0.87299 0.18373 0.89023 0.0
C953 C 0.86222 0.18362 0.88553 0.0
C954 C 0.85104 0.17304 0.88756 0.0
C955 C 0.85041 0.16245 0.89458 0.0
C956 C 0.86121 0.16287 0.90005 0.0
C957 C 0.87235 0.17337 0.89779 0.0
H958 H 0.80715 0.70752 0.86382 0.0
N959 N 0.8059 0.69261 0.88896 0.0
H960 H 0.79529 0.70218 0.83697 0.0
H961 H 0.7911 0.66954 0.87673 0.0
H962 H 0.77963 0.66412 0.84984 0.0
H963 H 0.79424 0.6712 0.90683 0.0
H964 H 0.77733 0.66542 0.92642 0.0
H965 H 0.79914 0.70731 0.90304 0.0
H966 H 0.78274 0.70191 0.92346 0.0
H967 H 0.82678 0.71112 0.89924 0.0
H968 H 0.81002 0.67334 0.88504 0.0
H969 H 0.84633 0.71192 0.90201 0.0
H970 H 0.82955 0.67417 0.88678 0.0
H971 H 0.90726 0.7109 0.8758 0.0
H972 H 0.91458 0.70654 0.84929 0.0
H973 H 0.88063 0.67303 0.84359 0.0
H974 H 0.87369 0.67726 0.87064 0.0
H975 H 0.88188 0.67378 0.89943 0.0
H976 H 0.89291 0.66829 0.92034 0.0
H977 H 0.91357 0.70576 0.93641 0.0
H978 H 0.90232 0.71117 0.91558 0.0
H979 H 0.88099 0.71372 0.8833 0.0
H980 H 0.86115 0.71233 0.88381 0.0
H981 H 0.84567 0.67586 0.90423 0.0
N982 N 0.88665 0.69686 0.8918 0.0
H983 H 0.86542 0.67716 0.90284 0.0
C984 C 0.8001 0.689 0.87227 0.0
C985 C 0.8013 0.69803 0.86064 0.0
C986 C 0.79454 0.69494 0.8453 0.0
C987 C 0.78643 0.68271 0.8413 0.0
C988 C 0.78564 0.67364 0.85265 0.0
C989 C 0.79234 0.67674 0.86801 0.0
C990 C 0.79779 0.68965 0.90326 0.0
C991 C 0.79185 0.67796 0.91053 0.0
C992 C 0.78222 0.67471 0.92187 0.0
C993 C 0.77848 0.68313 0.9263 0.0
C994 C 0.78511 0.69508 0.91998 0.0
C995 C 0.7946 0.69825 0.9085 0.0
C996 C 0.81697 0.69228 0.89169 0.0
C997 C 0.82734 0.703 0.89672 0.0
C998 C 0.83852 0.70345 0.89812 0.0
C999 C 0.83962 0.69317 0.89432 0.0
C1000 C 0.82909 0.68226 0.8899 0.0
C1001 C 0.81786 0.6818 0.88873 0.0
C1002 C 0.88995 0.69451 0.87511 0.0
C1003 C 0.90137 0.7027 0.86867 0.0
C1004 C 0.9055 0.70019 0.85345 0.0
C1005 C 0.8982 0.68942 0.84419 0.0
C1006 C 0.88658 0.68132 0.85047 0.0
C1007 C 0.88252 0.68379 0.86586 0.0
C1008 C 0.89121 0.69292 0.90609 0.0
C1009 C 0.88845 0.68074 0.90788 0.0
C1010 C 0.8948 0.67761 0.9198 0.0
C1011 C 0.90413 0.68662 0.92992 0.0
C1012 C 0.90646 0.69866 0.92869 0.0
C1013 C 0.9 0.70175 0.91693 0.0
C1014 C 0.87479 0.69566 0.89316 0.0
C1015 C 0.8733 0.70546 0.88796 0.0
C1016 C 0.86195 0.70465 0.8884 0.0
C1017 C 0.85176 0.694 0.89423 0.0
C1018 C 0.85327 0.68416 0.89951 0.0
C1019 C 0.86464 0.68494 0.89888 0.0
H1020 H 0.76041 0.62485 0.47583 0.0
N1021 N 0.78191 0.63948 0.46241 0.0
H1022 H 0.75215 0.62759 0.50269 0.0
H1023 H 0.79469 0.65651 0.48759 0.0
H1024 H 0.78678 0.65895 0.51471 0.0
H1025 H 0.78716 0.66317 0.46013 0.0
H1026 H 0.77742 0.67107 0.44075 0.0
H1027 H 0.7677 0.62813 0.43558 0.0
H1028 H 0.75799 0.63601 0.41585 0.0
H1029 H 0.78614 0.6211 0.45923 0.0
H1030 H 0.80416 0.66019 0.46071 0.0
H1031 H 0.80562 0.62186 0.45678 0.0
H1032 H 0.82372 0.6611 0.45971 0.0
H1033 H 0.86962 0.63017 0.48049 0.0
H1034 H 0.8806 0.6359 0.50815 0.0
H1035 H 0.87884 0.66913 0.50817 0.0
H1036 H 0.86762 0.66319 0.48071 0.0
H1037 H 0.87849 0.66704 0.4545 0.0
H1038 H 0.89569 0.67449 0.43515 0.0
H1039 H 0.88358 0.63784 0.41797 0.0
H1040 H 0.86636 0.63035 0.43768 0.0
H1041 H 0.84163 0.62595 0.47362 0.0
H1042 H 0.82217 0.62529 0.47317 0.0
H1043 H 0.83796 0.65886 0.44414 0.0
N1044 N 0.86251 0.64309 0.46153 0.0
H1045 H 0.85755 0.65985 0.44576 0.0
C1046 C 0.77816 0.64037 0.47962 0.0
C1047 C 0.76625 0.63219 0.48445 0.0
C1048 C 0.76157 0.63376 0.49985 0.0
C1049 C 0.76876 0.64356 0.51089 0.0
C1050 C 0.78089 0.65145 0.50639 0.0
C1051 C 0.78551 0.64995 0.49087 0.0
C1052 C 0.77813 0.64502 0.44926 0.0
C1053 C 0.78107 0.65727 0.45022 0.0
C1054 C 0.77547 0.66178 0.4391 0.0
C1055 C 0.76683 0.65413 0.42686 0.0
C1056 C 0.76446 0.64208 0.42532 0.0
C1057 C 0.77007 0.63759 0.43643 0.0
C1058 C 0.79365 0.64051 0.46049 0.0
C1059 C 0.79434 0.62985 0.4592 0.0
C1060 C 0.80553 0.63033 0.45797 0.0
C1061 C 0.81638 0.64155 0.45836 0.0
C1062 C 0.81563 0.65228 0.45922 0.0
C1063 C 0.80439 0.65178 0.46005 0.0
C1064 C 0.86791 0.64626 0.47851 0.0
C1065 C 0.87145 0.63859 0.48663 0.0
C1066 C 0.87768 0.64186 0.5024 0.0
C1067 C 0.8806 0.65298 0.51022 0.0
C1068 C 0.87679 0.66056 0.5023 0.0
C1069 C 0.87039 0.65718 0.48665 0.0
C1070 C 0.87114 0.64805 0.44769 0.0
C1071 C 0.87934 0.66059 0.44639 0.0
C1072 C 0.88921 0.66486 0.43533 0.0
C1073 C 0.89103 0.65672 0.42523 0.0
C1074 C 0.88236 0.64431 0.42556 0.0
C1075 C 0.87253 0.64003 0.43678 0.0
C1076 C 0.85106 0.64283 0.45965 0.0
C1077 C 0.84085 0.63313 0.4671 0.0
C1078 C 0.82968 0.63274 0.46668 0.0
C1079 C 0.82835 0.64197 0.45847 0.0
C1080 C 0.8386 0.65166 0.45079 0.0
C1081 C 0.84987 0.65217 0.45154 0.0
H1082 H 0.37343 0.14228 0.48689 0.0
N1083 N 0.35853 0.1401 0.4611 0.0
H1084 H 0.36832 0.13067 0.51382 0.0
H1085 H 0.33568 0.12441 0.47252 0.0
H1086 H 0.33043 0.11322 0.49957 0.0
H1087 H 0.33764 0.12847 0.44192 0.0
H1088 H 0.33222 0.11122 0.42256 0.0
H1089 H 0.37336 0.13307 0.44855 0.0
H1090 H 0.36819 0.11613 0.42886 0.0
H1091 H 0.37635 0.16115 0.45018 0.0
H1092 H 0.33903 0.14362 0.46568 0.0
H1093 H 0.37665 0.18058 0.44827 0.0
H1094 H 0.33942 0.16303 0.46491 0.0
H1095 H 0.37604 0.23975 0.48243 0.0
H1096 H 0.37233 0.24629 0.51023 0.0
H1097 H 0.33818 0.2129 0.51373 0.0
H1098 H 0.34198 0.20649 0.48581 0.0
H1099 H 0.33745 0.21453 0.45992 0.0
H1100 H 0.33038 0.22573 0.44219 0.0
H1101 H 0.36668 0.24848 0.42348 0.0
H1102 H 0.37367 0.23694 0.44107 0.0
H1103 H 0.3784 0.21472 0.47028 0.0
H1104 H 0.37736 0.19505 0.46755 0.0
H1105 H 0.34042 0.17941 0.44908 0.0
N1106 N 0.36108 0.22014 0.46455 0.0
H1107 H 0.34138 0.19895 0.45271 0.0
C1108 C 0.355 0.1343 0.47773 0.0
C1109 C 0.36402 0.13608 0.48977 0.0
C1110 C 0.36106 0.12946 0.50517 0.0
C1111 C 0.34895 0.12094 0.50885 0.0
C1112 C 0.33986 0.11955 0.49704 0.0
C1113 C 0.34285 0.12608 0.4816 0.0
C1114 C 0.35588 0.13193 0.44681 0.0
C1115 C 0.34441 0.12597 0.43884 0.0
C1116 C 0.34135 0.11615 0.42772 0.0
C1117 C 0.34972 0.11218 0.42443 0.0
C1118 C 0.36147 0.1188 0.43141 0.0
C1119 C 0.36448 0.12855 0.44251 0.0
C1120 C 0.3578 0.15098 0.45835 0.0
C1121 C 0.36821 0.16151 0.45312 0.0
C1122 C 0.36839 0.17262 0.45223 0.0
C1123 C 0.35814 0.17348 0.4568 0.0
C1124 C 0.34748 0.16276 0.46123 0.0
C1125 C 0.34728 0.1516 0.46185 0.0
C1126 C 0.35932 0.2227 0.48205 0.0
C1127 C 0.36789 0.23375 0.4894 0.0
C1128 C 0.36575 0.23744 0.5053 0.0
C1129 C 0.35493 0.23013 0.51417 0.0
C1130 C 0.34654 0.21879 0.50711 0.0
C1131 C 0.34873 0.21508 0.4912 0.0
C1132 C 0.35615 0.22486 0.45176 0.0
C1133 C 0.34385 0.22166 0.45164 0.0
C1134 C 0.33983 0.22819 0.44163 0.0
C1135 C 0.348 0.23812 0.43164 0.0
C1136 C 0.36014 0.24084 0.43096 0.0
C1137 C 0.36415 0.23426 0.44097 0.0
C1138 C 0.36008 0.20843 0.46161 0.0
C1139 C 0.37011 0.20704 0.46554 0.0
C1140 C 0.3695 0.19578 0.46382 0.0
C1141 C 0.35882 0.18558 0.45793 0.0
C1142 C 0.34876 0.187 0.45381 0.0
C1143 C 0.34934 0.19828 0.45575 0.0
H1144 H 0.80246 0.11848 0.48667 0.0
N1145 N 0.79595 0.12904 0.46242 0.0
H1146 H 0.79204 0.10937 0.51362 0.0
H1147 H 0.77678 0.13054 0.47552 0.0
H1148 H 0.76666 0.12205 0.50273 0.0
H1149 H 0.7789 0.13214 0.4448 0.0
H1150 H 0.76439 0.118 0.42353 0.0
H1151 H 0.79608 0.11016 0.44821 0.0
H1152 H 0.78173 0.09602 0.42703 0.0
H1153 H 0.81856 0.13788 0.45213 0.0
H1154 H 0.79256 0.14871 0.46623 0.0
H1155 H 0.83397 0.15918 0.44852 0.0
H1156 H 0.80797 0.16999 0.46364 0.0
H1157 H 0.87936 0.21676 0.46746 0.0
H1158 H 0.89105 0.2254 0.49371 0.0
H1159 H 0.86485 0.23547 0.51037 0.0
H1160 H 0.85299 0.22658 0.48388 0.0
H1161 H 0.86269 0.23786 0.44358 0.0
H1162 H 0.87838 0.25033 0.42286 0.0
H1163 H 0.88758 0.22187 0.41776 0.0
H1164 H 0.87164 0.20935 0.43804 0.0
H1165 H 0.86176 0.19749 0.46553 0.0
H1166 H 0.84623 0.17628 0.46542 0.0
H1167 H 0.8204 0.18614 0.44514 0.0
N1168 N 0.85868 0.21703 0.45743 0.0
H1169 H 0.836 0.20758 0.4462 0.0
C1170 C 0.79053 0.12529 0.47917 0.0
C1171 C 0.79476 0.11943 0.4903 0.0
C1172 C 0.7888 0.11427 0.50572 0.0
C1173 C 0.77846 0.11494 0.5104 0.0
C1174 C 0.77447 0.12119 0.49945 0.0
C1175 C 0.78039 0.12624 0.48394 0.0
C1176 C 0.78852 0.12211 0.44809 0.0
C1177 C 0.77964 0.12437 0.44078 0.0
C1178 C 0.77135 0.11626 0.42869 0.0
C1179 C 0.77188 0.10587 0.42363 0.0
C1180 C 0.78114 0.10401 0.43044 0.0
C1181 C 0.78934 0.11204 0.44256 0.0
C1182 C 0.80449 0.14169 0.45969 0.0
C1183 C 0.81621 0.14489 0.4545 0.0
C1184 C 0.82502 0.15708 0.45259 0.0
C1185 C 0.82231 0.16639 0.45602 0.0
C1186 C 0.81041 0.16312 0.46074 0.0
C1187 C 0.80156 0.15089 0.46243 0.0
C1188 C 0.86523 0.22104 0.47362 0.0
C1189 C 0.87599 0.22068 0.47674 0.0
C1190 C 0.88276 0.22573 0.49177 0.0
C1191 C 0.87896 0.23125 0.50404 0.0
C1192 C 0.86799 0.23123 0.5012 0.0
C1193 C 0.86122 0.22618 0.4861 0.0
C1194 C 0.86604 0.22275 0.4425 0.0
C1195 C 0.86785 0.23419 0.43756 0.0
C1196 C 0.8769 0.24133 0.42586 0.0
C1197 C 0.8844 0.23719 0.41892 0.0
C1198 C 0.88195 0.22532 0.42282 0.0
C1199 C 0.87283 0.21815 0.43449 0.0
C1200 C 0.85001 0.20423 0.45609 0.0
C1201 C 0.8528 0.19518 0.46107 0.0
C1202 C 0.84386 0.18294 0.46082 0.0
C1203 C 0.83197 0.17941 0.45535 0.0
C1204 C 0.82935 0.18848 0.44978 0.0
C1205 C 0.83828 0.20074 0.45022 0.0
H1206 H 0.00521 0.55415 0.21371 0.0
N1207 N 0.98427 0.53371 0.22281 0.0
H1208 H 0.00876 0.5657 0.18705 0.0
H1209 H 0.96962 0.52789 0.19546 0.0
H1210 H 0.97314 0.53937 0.16851 0.0
H1211 H 0.97003 0.54254 0.23155 0.0
H1212 H 0.97462 0.55913 0.25144 0.0
H1213 H 0.00295 0.54297 0.24716 0.0
H1214 H 0.00726 0.55904 0.26754 0.0
H1215 H 0.00731 0.53708 0.22062 0.0
H1216 H 0.96991 0.51 0.22724 0.0
H1217 H 0.01303 0.52143 0.22121 0.0
H1218 H 0.97541 0.49402 0.22652 0.0
H1219 H 0.0247 0.472 0.19378 0.0
H1220 H 0.02126 0.46066 0.16679 0.0
H1221 H 0.98284 0.44165 0.17627 0.0
H1222 H 0.98632 0.45351 0.20289 0.0
H1223 H 0.98904 0.44956 0.2314 0.0
H1224 H 0.99016 0.43505 0.25109 0.0
H1225 H 0.02903 0.45756 0.25366 0.0
H1226 H 0.02782 0.4721 0.23384 0.0
H1227 H 0.0185 0.49094 0.20208 0.0
H1228 H 0.01266 0.50653 0.20412 0.0
H1229 H 0.98442 0.48394 0.23986 0.0
N1230 N 0.00836 0.46933 0.21693 0.0
H1231 H 0.98981 0.46809 0.23671 0.0
C1232 C 0.9871 0.5401 0.20654 0.0
C1233 C 0.99824 0.55073 0.20381 0.0
C1234 C 1.00026 0.55733 0.18852 0.0
C1235 C 0.99121 0.55348 0.17568 0.0
C1236 C 0.98023 0.54266 0.17825 0.0
C1237 C 0.97823 0.53605 0.19354 0.0
C1238 C 0.98611 0.54149 0.2375 0.0
C1239 C 0.97804 0.54593 0.23965 0.0
C1240 C 0.98069 0.55543 0.25111 0.0
C1241 C 0.99145 0.56063 0.26096 0.0
C1242 C 0.99907 0.55552 0.25981 0.0
C1243 C 0.99652 0.54615 0.24813 0.0
C1244 C 0.98813 0.52474 0.22419 0.0
C1245 C 1.00029 0.52775 0.22229 0.0
C1246 C 0.00355 0.51869 0.22237 0.0
C1247 C 0.9947 0.50634 0.22372 0.0
C1248 C 0.98254 0.50339 0.22574 0.0
C1249 C 0.97934 0.5125 0.22606 0.0
C1250 C 0.00581 0.46345 0.20037 0.0
C1251 C 0.01553 0.46556 0.18983 0.0
C1252 C 0.01355 0.4591 0.17448 0.0
C1253 C 0.00179 0.45026 0.16959 0.0
C1254 C 0.99198 0.44837 0.1799 0.0
C1255 C 0.99396 0.45507 0.19509 0.0
C1256 C 0.00839 0.46202 0.23122 0.0
C1257 C 0.99777 0.4516 0.23657 0.0
C1258 C 0.99842 0.44328 0.24784 0.0
C1259 C 0.00969 0.44511 0.25378 0.0
C1260 C 0.02023 0.45584 0.24914 0.0
C1261 C 0.01955 0.46421 0.23799 0.0
C1262 C 0.00471 0.47836 0.21924 0.0
C1263 C 0.01103 0.48937 0.21034 0.0
C1264 C 0.00774 0.49834 0.2117 0.0
C1265 C 0.99812 0.49665 0.22235 0.0
C1266 C 0.99178 0.48557 0.23136 0.0
C1267 C 0.99494 0.47647 0.22969 0.0
H1268 H 0.5648 0.52689 0.20074 0.0
N1269 N 0.55209 0.53001 0.22517 0.0
H1270 H 0.57203 0.53829 0.1738 0.0
H1271 H 0.54547 0.546 0.21192 0.0
H1272 H 0.55207 0.55695 0.18475 0.0
H1273 H 0.54417 0.54336 0.24288 0.0
H1274 H 0.55665 0.56055 0.26203 0.0
H1275 H 0.57346 0.53563 0.23855 0.0
H1276 H 0.58587 0.55251 0.25801 0.0
H1277 H 0.54833 0.50904 0.23806 0.0
H1278 H 0.52949 0.52736 0.2194 0.0
H1279 H 0.52907 0.49028 0.24131 0.0
H1280 H 0.51028 0.50855 0.22152 0.0
H1281 H 0.46891 0.43189 0.21087 0.0
H1282 H 0.45838 0.42486 0.18304 0.0
H1283 H 0.45656 0.45794 0.17835 0.0
H1284 H 0.4673 0.465 0.20599 0.0
H1285 H 0.45588 0.45805 0.23188 0.0
H1286 H 0.43844 0.44782 0.25071 0.0
H1287 H 0.45337 0.42659 0.27269 0.0
H1288 H 0.47085 0.4368 0.25352 0.0
H1289 H 0.49583 0.45596 0.22242 0.0
H1290 H 0.51471 0.47525 0.2233 0.0
H1291 H 0.49503 0.4934 0.23874 0.0
N1292 N 0.47368 0.45197 0.22783 0.0
H1293 H 0.47614 0.47411 0.23695 0.0
C1294 C 0.55453 0.53547 0.20827 0.0
C1295 C 0.56183 0.53329 0.1971 0.0
C1296 C 0.56592 0.5398 0.18169 0.0
C1297 C 0.56271 0.54862 0.1771 0.0
C1298 C 0.55491 0.55039 0.18799 0.0
C1299 C 0.55095 0.54397 0.20347 0.0
C1300 C 0.55799 0.53834 0.23919 0.0
C1301 C 0.55317 0.54519 0.24641 0.0
C1302 C 0.5603 0.55497 0.25741 0.0
C1303 C 0.57232 0.55801 0.2613 0.0
C1304 C 0.57674 0.55055 0.255 0.0
C1305 C 0.56964 0.54085 0.24403 0.0
C1306 C 0.54043 0.51953 0.2282 0.0
C1307 C 0.54001 0.50899 0.23466 0.0
C1308 C 0.52899 0.49825 0.23633 0.0
C1309 C 0.51807 0.49777 0.23134 0.0
C1310 C 0.51846 0.50853 0.22557 0.0
C1311 C 0.52952 0.51934 0.22416 0.0
C1312 C 0.4688 0.44887 0.21055 0.0
C1313 C 0.46643 0.4377 0.20365 0.0
C1314 C 0.46045 0.43372 0.18778 0.0
C1315 C 0.4566 0.44084 0.17861 0.0
C1316 C 0.45933 0.45224 0.18525 0.0
C1317 C 0.46547 0.45628 0.20102 0.0
C1318 C 0.46468 0.4481 0.24117 0.0
C1319 C 0.4556 0.45141 0.24095 0.0
C1320 C 0.44558 0.44551 0.2517 0.0
C1321 C 0.4445 0.43632 0.263 0.0
C1322 C 0.454 0.43367 0.26415 0.0
C1323 C 0.46398 0.43949 0.25324 0.0
C1324 C 0.48459 0.46351 0.22976 0.0
C1325 C 0.49564 0.46411 0.22612 0.0
C1326 C 0.50643 0.47516 0.22677 0.0
C1327 C 0.50648 0.48595 0.23126 0.0
C1328 C 0.49537 0.48533 0.23507 0.0
C1329 C 0.48451 0.47424 0.23422 0.0
H1330 H 0.54407 0.99192 0.21228 0.0
N1331 N 0.54352 0.01257 0.2213 0.0
H1332 H 0.55303 0.98898 0.18638 0.0
H1333 H 0.55253 0.02759 0.1946 0.0
H1334 H 0.56149 0.02467 0.16841 0.0
H1335 H 0.56511 0.02891 0.23317 0.0
H1336 H 0.57753 0.02591 0.25475 0.0
H1337 H 0.53567 0.99287 0.24333 0.0
H1338 H 0.54778 0.99001 0.26527 0.0
H1339 H 0.52469 0.98923 0.21731 0.0
H1340 H 0.53335 0.02617 0.22693 0.0
H1341 H 0.50328 0.98265 0.2186 0.0
H1342 H 0.51178 0.01982 0.22708 0.0
H1343 H 0.43767 0.96823 0.19994 0.0
H1344 H 0.42935 0.9712 0.17277 0.0
H1345 H 0.45435 0.00975 0.17567 0.0
H1346 H 0.46287 0.00665 0.20255 0.0
H1347 H 0.45576 0.00638 0.23051 0.0
H1348 H 0.44232 0.00813 0.25104 0.0
H1349 H 0.42525 0.96952 0.26086 0.0
H1350 H 0.43906 0.96797 0.24066 0.0
H1351 H 0.46633 0.97625 0.20246 0.0
H1352 H 0.48784 0.98287 0.20288 0.0
H1353 H 0.4935 0.00954 0.24189 0.0
N1354 N 0.45466 0.98518 0.2199 0.0
H1355 H 0.47219 0.00339 0.24066 0.0
C1356 C 0.5476 0.01001 0.20535 0.0
C1357 C 0.54763 0.99904 0.20266 0.0
C1358 C 0.55277 0.99736 0.1878 0.0
C1359 C 0.55802 0.00661 0.17537 0.0
C1360 C 0.55765 0.01743 0.17786 0.0
C1361 C 0.55247 0.01908 0.1927 0.0
C1362 C 0.54947 0.0112 0.23647 0.0
C1363 C 0.5612 0.02051 0.24043 0.0
C1364 C 0.56827 0.01877 0.25282 0.0
C1365 C 0.56371 0.00765 0.26165 0.0
C1366 C 0.55167 0.99859 0.25846 0.0
C1367 C 0.54465 1.00029 0.24594 0.0
C1368 C 0.53069 0.00824 0.22224 0.0
C1369 C 0.52201 0.99597 0.2197 0.0
C1370 C 0.50967 0.99222 0.22023 0.0
C1371 C 0.50569 0.00069 0.22284 0.0
C1372 C 0.51443 0.01297 0.22535 0.0
C1373 C 0.52678 0.01666 0.22514 0.0
C1374 C 0.45074 0.9872 0.2033 0.0
C1375 C 0.44144 0.97728 0.19454 0.0
C1376 C 0.43675 0.97899 0.17907 0.0
C1377 C 0.44119 0.99071 0.17223 0.0
C1378 C 0.45071 0.00064 0.1808 0.0
C1379 C 0.45554 0.99889 0.19614 0.0
C1380 C 0.44847 0.987 0.23411 0.0
C1381 C 0.44934 0.99834 0.23736 0.0
C1382 C 0.44154 0.99931 0.24902 0.0
C1383 C 0.43259 0.98895 0.25749 0.0
C1384 C 0.43212 0.97773 0.25477 0.0
C1385 C 0.43999 0.9768 0.24322 0.0
C1386 C 0.46748 0.98927 0.22135 0.0
C1387 C 0.47223 0.98356 0.21107 0.0
C1388 C 0.48455 0.9873 0.21147 0.0
C1389 C 0.4925 0.99674 0.22249 0.0
C1390 C 0.48773 0.00239 0.233 0.0
C1391 C 0.47539 0.99877 0.23237 0.0
H1392 H 0.43024 0.96502 0.8114 0.0
N1393 N 0.45112 0.9794 0.79618 0.0
H1394 H 0.42235 0.96901 0.83762 0.0
H1395 H 0.46366 0.99861 0.81803 0.0
H1396 H 0.45611 0.00252 0.84484 0.0
H1397 H 0.45886 0.00318 0.78819 0.0
H1398 H 0.44897 0.01058 0.7683 0.0
H1399 H 0.43341 0.9663 0.77403 0.0
H1400 H 0.4228 0.97345 0.7551 0.0
H1401 H 0.45853 0.96642 0.81434 0.0
H1402 H 0.47087 0.9948 0.77589 0.0
H1403 H 0.47806 0.96724 0.8137 0.0
H1404 H 0.49017 0.99529 0.77476 0.0
H1405 H 0.53522 0.96524 0.81263 0.0
H1406 H 0.54625 0.96897 0.84011 0.0
H1407 H 0.5495 0.00456 0.84273 0.0
H1408 H 0.5385 0.00076 0.81538 0.0
H1409 H 0.54944 0.00347 0.78891 0.0
H1410 H 0.56571 0.00869 0.7686 0.0
H1411 H 0.54629 0.97235 0.74739 0.0
H1412 H 0.53049 0.967 0.76884 0.0
H1413 H 0.50855 0.96168 0.79641 0.0
H1414 H 0.48934 0.96169 0.79575 0.0
H1415 H 0.5087 0.00077 0.78995 0.0
N1416 N 0.53061 0.98056 0.79496 0.0
H1417 H 0.52786 1.0005 0.78973 0.0
C1418 C 0.4475 0.98145 0.81285 0.0
C1419 C 0.43597 0.97313 0.81881 0.0
C1420 C 0.43152 0.97543 0.83387 0.0
C1421 C 0.43858 0.9861 0.84345 0.0
C1422 C 0.45034 0.9943 0.83769 0.0
C1423 C 0.45473 0.99204 0.82246 0.0
C1424 C 0.44698 0.98415 0.78233 0.0
C1425 C 0.45126 0.99668 0.78052 0.0
C1426 C 0.44542 0.00088 0.76932 0.0
C1427 C 0.4349 0.99265 0.76017 0.0
C1428 C 0.43095 0.98014 0.7616 0.0
C1429 C 0.43699 0.97599 0.77247 0.0
C1430 C 0.46306 0.98058 0.79543 0.0
C1431 C 0.46543 0.97285 0.80578 0.0
C1432 C 0.47659 0.97325 0.80525 0.0
C1433 C 0.48571 0.98128 0.79406 0.0
C1434 C 0.48343 0.9891 0.7837 0.0
C1435 C 0.47225 0.98878 0.78436 0.0
C1436 C 0.53606 0.98268 0.81192 0.0
C1437 C 0.53817 0.97376 0.8193 0.0
C1438 C 0.54443 0.9759 0.83499 0.0
C1439 C 0.54878 0.98709 0.84353 0.0
C1440 C 0.54637 0.99591 0.83635 0.0
C1441 C 0.54002 0.99371 0.82072 0.0
C1442 C 0.53888 0.98471 0.78069 0.0
C1443 C 0.54862 0.99665 0.77982 0.0
C1444 C 0.55792 0.99966 0.76799 0.0
C1445 C 0.55754 0.99088 0.75649 0.0
C1446 C 0.54717 0.97926 0.75639 0.0
C1447 C 0.53802 0.97621 0.76847 0.0
C1448 C 0.51957 0.98104 0.7933 0.0
C1449 C 0.50859 0.97021 0.79482 0.0
C1450 C 0.49765 0.97028 0.79463 0.0
C1451 C 0.49743 0.98126 0.79312 0.0
C1452 C 0.50849 0.99214 0.79108 0.0
C1453 C 0.51948 0.99202 0.7911 0.0
H1454 H 0.99513 0.53655 0.8199 0.0
N1455 N 0.01329 0.54646 0.79602 0.0
H1456 H 0.99442 0.54612 0.84687 0.0
H1457 H 0.03136 0.56574 0.81105 0.0
H1458 H 0.03083 0.57528 0.83819 0.0
H1459 H 0.0262 0.56025 0.76979 0.0
H1460 H 0.02155 0.57338 0.75162 0.0
H1461 H 0.99155 0.54617 0.79437 0.0
H1462 H 0.98676 0.55892 0.77612 0.0
H1463 H 0.9906 0.52791 0.7865 0.0
H1464 H 0.02661 0.53593 0.80135 0.0
H1465 H 0.98446 0.50654 0.78397 0.0
H1466 H 0.02034 0.51434 0.79968 0.0
H1467 H 0.96969 0.44089 0.81367 0.0
H1468 H 0.9722 0.43296 0.84146 0.0
H1469 H 0.01052 0.45849 0.84053 0.0
H1470 H 0.0079 0.46662 0.81306 0.0
H1471 H 0.0081 0.45781 0.78655 0.0
H1472 H 0.01015 0.44383 0.76736 0.0
H1473 H 0.97255 0.42828 0.75242 0.0
H1474 H 0.97064 0.44261 0.77149 0.0
H1475 H 0.97381 0.46797 0.80161 0.0
H1476 H 0.97999 0.48954 0.80125 0.0
H1477 H 0.01479 0.49764 0.78109 0.0
N1478 N 0.98691 0.45766 0.79411 0.0
H1479 H 0.00871 0.47617 0.78227 0.0
C1480 C 0.01333 0.5505 0.81342 0.0
C1481 C 0.00305 0.54486 0.82397 0.0
C1482 C 0.00266 0.55034 0.83942 0.0
C1483 C 0.01251 0.56155 0.84454 0.0
C1484 C 0.02302 0.56676 0.83444 0.0
C1485 C 0.02339 0.56128 0.81905 0.0
C1486 C 0.00928 0.55219 0.7834 0.0
C1487 C 0.01746 0.55973 0.7709 0.0
C1488 C 0.01479 0.56722 0.76056 0.0
C1489 C 0.00385 0.56731 0.7626 0.0
C1490 C 0.99536 0.55923 0.77446 0.0
C1491 C 0.99805 0.5518 0.7848 0.0
C1492 C 0.0092 0.53366 0.79399 0.0
C1493 C 0.99724 0.52515 0.78922 0.0
C1494 C 0.99367 0.51281 0.78792 0.0
C1495 C 0.00188 0.50863 0.79162 0.0
C1496 C 0.01381 0.51719 0.79639 0.0
C1497 C 0.0174 0.52953 0.79749 0.0
C1498 C 0.98858 0.45421 0.81123 0.0
C1499 C 0.97858 0.4449 0.81965 0.0
C1500 C 0.98002 0.44041 0.83548 0.0
C1501 C 0.99157 0.44508 0.84302 0.0
C1502 C 0.00155 0.45468 0.83486 0.0
C1503 C 1.00006 0.4593 0.81917 0.0
C1504 C 0.98916 0.45132 0.78046 0.0
C1505 C 1.00037 0.4517 0.77882 0.0
C1506 C 0.00151 0.44356 0.76793 0.0
C1507 C 0.99148 0.43481 0.75853 0.0
C1508 C 0.98049 0.43495 0.75937 0.0
C1509 C 0.97937 0.44313 0.77025 0.0
C1510 C 0.99068 0.47036 0.79188 0.0
C1511 C 0.98272 0.47442 0.79694 0.0
C1512 C 0.98627 0.48677 0.79664 0.0
C1513 C 0.99791 0.4954 0.79111 0.0
C1514 C 0.00582 0.49129 0.78567 0.0
C1515 C 0.00229 0.47892 0.78616 0.0
H1516 H 0.46304 0.46989 0.82365 0.0
N1517 N 0.45148 0.47561 0.79778 0.0
H1518 H 0.45407 0.45946 0.85047 0.0
H1519 H 0.43031 0.47072 0.81077 0.0
H1520 H 0.42119 0.46 0.83772 0.0
H1521 H 0.43865 0.47504 0.7701 0.0
H1522 H 0.4275 0.45799 0.75012 0.0
H1523 H 0.45251 0.45449 0.79697 0.0
H1524 H 0.4415 0.43755 0.77721 0.0
H1525 H 0.47114 0.47212 0.79511 0.0
H1526 H 0.46032 0.49947 0.79586 0.0
H1527 H 0.49217 0.48773 0.79359 0.0
H1528 H 0.48147 0.51534 0.79313 0.0
H1529 H 0.54745 0.52949 0.82217 0.0
H1530 H 0.55738 0.54022 0.849 0.0
H1531 H 0.55204 0.5701 0.83369 0.0
H1532 H 0.54192 0.55929 0.80729 0.0
H1533 H 0.53464 0.55341 0.77816 0.0
H1534 H 0.54785 0.56825 0.75667 0.0
H1535 H 0.57172 0.55307 0.75954 0.0
H1536 H 0.55864 0.53851 0.78123 0.0
H1537 H 0.52896 0.51685 0.77894 0.0
H1538 H 0.50742 0.50215 0.77691 0.0
H1539 H 0.49963 0.52565 0.80819 0.0
N1540 N 0.53957 0.53766 0.79615 0.0
H1541 H 0.52103 0.54062 0.80894 0.0
C1542 C 0.44737 0.47124 0.81506 0.0
C1543 C 0.45405 0.46813 0.82665 0.0
C1544 C 0.4489 0.46211 0.84208 0.0
C1545 C 0.43693 0.45888 0.84611 0.0
C1546 C 0.43042 0.46233 0.83486 0.0
C1547 C 0.43564 0.46852 0.81957 0.0
C1548 C 0.44649 0.46613 0.7849 0.0
C1549 C 0.43948 0.46696 0.77144 0.0
C1550 C 0.43306 0.45719 0.76017 0.0
C1551 C 0.43359 0.44641 0.76213 0.0
C1552 C 0.44103 0.44578 0.7752 0.0
C1553 C 0.44737 0.45551 0.78652 0.0
C1554 C 0.46408 0.48462 0.79583 0.0
C1555 C 0.47325 0.4815 0.79473 0.0
C1556 C 0.48537 0.49052 0.79365 0.0
C1557 C 0.48866 0.50291 0.79321 0.0
C1558 C 0.4794 0.50596 0.79379 0.0
C1559 C 0.46727 0.4969 0.79521 0.0
C1560 C 0.54409 0.5436 0.8126 0.0
C1561 C 0.54825 0.53826 0.82478 0.0
C1562 C 0.55389 0.54438 0.84005 0.0
C1563 C 0.55558 0.55603 0.84328 0.0
C1564 C 0.551 0.56119 0.83138 0.0
C1565 C 0.54522 0.55501 0.81625 0.0
C1566 C 0.54579 0.54497 0.78139 0.0
C1567 C 0.54262 0.55319 0.77395 0.0
C1568 C 0.55017 0.56165 0.76171 0.0
C1569 C 0.56084 0.56184 0.7565 0.0
C1570 C 0.56351 0.55308 0.76317 0.0
C1571 C 0.55608 0.54478 0.77556 0.0
C1572 C 0.52669 0.52972 0.79432 0.0
C1573 C 0.52255 0.51886 0.78514 0.0
C1574 C 0.51022 0.51041 0.78418 0.0
C1575 C 0.50169 0.51251 0.7927 0.0
C1576 C 0.50584 0.52367 0.80135 0.0
C1577 C 0.51818 0.53225 0.80198 0.0
H1578 H 0.66803 0.88138 0.54523 0.0
N1579 N 0.64609 0.86376 0.55705 0.0
H1580 H 0.67177 0.89263 0.51827 0.0
H1581 H 0.63037 0.85947 0.53141 0.0
H1582 H 0.63407 0.87053 0.50404 0.0
H1583 H 0.63313 0.8733 0.56879 0.0
H1584 H 0.63968 0.89033 0.5886 0.0
H1585 H 0.6669 0.87362 0.57656 0.0
H1586 H 0.6734 0.89035 0.59716 0.0
H1587 H 0.66387 0.85987 0.54321 0.0
H1588 H 0.63272 0.84434 0.57629 0.0
H1589 H 0.66458 0.84112 0.54426 0.0
H1590 H 0.63396 0.82575 0.57865 0.0
H1591 H 0.66937 0.79093 0.54326 0.0
H1592 H 0.67388 0.78387 0.51653 0.0
H1593 H 0.63625 0.76748 0.50124 0.0
H1594 H 0.6318 0.77435 0.5283 0.0
H1595 H 0.63307 0.76245 0.56423 0.0
H1596 H 0.63854 0.75061 0.58353 0.0
H1597 H 0.67225 0.78305 0.59583 0.0
H1598 H 0.66693 0.7946 0.57587 0.0
H1599 H 0.66739 0.80768 0.55443 0.0
H1600 H 0.66834 0.82723 0.5582 0.0
H1601 H 0.62933 0.80882 0.56254 0.0
N1602 N 0.64687 0.78527 0.55452 0.0
H1603 H 0.6287 0.78933 0.56014 0.0
C1604 C 0.64886 0.86959 0.54035 0.0
C1605 C 0.66059 0.87887 0.53626 0.0
C1606 C 0.66273 0.88525 0.52076 0.0
C1607 C 0.6532 0.88252 0.50902 0.0
C1608 C 0.64157 0.87297 0.51291 0.0
C1609 C 0.63944 0.86658 0.52843 0.0
C1610 C 0.64947 0.87218 0.57124 0.0
C1611 C 0.64182 0.87683 0.57526 0.0
C1612 C 0.64559 0.88656 0.58667 0.0
C1613 C 0.65713 0.89182 0.5945 0.0
C1614 C 0.66455 0.88669 0.59116 0.0
C1615 C 0.6608 0.87701 0.57954 0.0
C1616 C 0.64797 0.85346 0.55933 0.0
C1617 C 0.65726 0.85252 0.55095 0.0
C1618 C 0.65776 0.84172 0.55176 0.0
C1619 C 0.6492 0.83171 0.56132 0.0
C1620 C 0.64047 0.83304 0.57066 0.0
C1621 C 0.63981 0.84373 0.56952 0.0
C1622 C 0.6502 0.7831 0.53775 0.0
C1623 C 0.66215 0.78604 0.53401 0.0
C1624 C 0.66471 0.782 0.51868 0.0
C1625 C 0.65539 0.77497 0.50683 0.0
C1626 C 0.64359 0.77266 0.51024 0.0
C1627 C 0.64104 0.77667 0.52557 0.0
C1628 C 0.6495 0.77939 0.56858 0.0
C1629 C 0.64152 0.76703 0.57142 0.0
C1630 C 0.64467 0.76029 0.58252 0.0
C1631 C 0.65591 0.76582 0.59121 0.0
C1632 C 0.66363 0.77841 0.5891 0.0
C1633 C 0.66052 0.78511 0.5778 0.0
C1634 C 0.64794 0.797 0.55735 0.0
C1635 C 0.65909 0.80784 0.55667 0.0
C1636 C 0.65958 0.81908 0.55856 0.0
C1637 C 0.64891 0.81975 0.56071 0.0
C1638 C 0.6378 0.8088 0.56138 0.0
C1639 C 0.63737 0.7976 0.55986 0.0
H1640 H 0.23336 0.86498 0.53911 0.0
N1641 N 0.2151 0.86279 0.55803 0.0
H1642 H 0.24044 0.87579 0.51161 0.0
H1643 H 0.20334 0.87186 0.53811 0.0
H1644 H 0.21029 0.88258 0.51085 0.0
H1645 H 0.20791 0.87929 0.5662 0.0
H1646 H 0.21891 0.8969 0.58508 0.0
H1647 H 0.23262 0.86651 0.58027 0.0
H1648 H 0.24348 0.88398 0.59964 0.0
H1649 H 0.21325 0.84132 0.56353 0.0
H1650 H 0.19192 0.85914 0.55913 0.0
H1651 H 0.19485 0.82175 0.56653 0.0
H1652 H 0.17343 0.83958 0.56053 0.0
H1653 H 0.13365 0.76137 0.54553 0.0
H1654 H 0.12207 0.75397 0.51862 0.0
H1655 H 0.12016 0.78709 0.51457 0.0
H1656 H 0.13213 0.79454 0.54117 0.0
H1657 H 0.12062 0.78611 0.56771 0.0
H1658 H 0.10453 0.77561 0.58839 0.0
H1659 H 0.12379 0.75841 0.61028 0.0
H1660 H 0.13954 0.76845 0.58858 0.0
H1661 H 0.16109 0.78767 0.5502 0.0
H1662 H 0.17927 0.8075 0.54992 0.0
H1663 H 0.16006 0.82278 0.57648 0.0
N1664 N 0.13949 0.78187 0.56207 0.0
H1665 H 0.1417 0.80304 0.57551 0.0
C1666 C 0.21788 0.8676 0.54075 0.0
C1667 C 0.22817 0.86859 0.53279 0.0
C1668 C 0.23217 0.87474 0.5171 0.0
C1669 C 0.22596 0.88011 0.50916 0.0
C1670 C 0.21535 0.87867 0.51679 0.0
C1671 C 0.21132 0.87245 0.5324 0.0
C1672 C 0.21958 0.87166 0.57166 0.0
C1673 C 0.21551 0.88009 0.57363 0.0
C1674 C 0.22181 0.89017 0.58442 0.0
C1675 C 0.23209 0.89183 0.59367 0.0
C1676 C 0.23555 0.88288 0.59272 0.0
C1677 C 0.22937 0.87292 0.5817 0.0
C1678 C 0.20399 0.85163 0.56068 0.0
C1679 C 0.20455 0.84096 0.56305 0.0
C1680 C 0.19399 0.82977 0.56456 0.0
C1681 C 0.18254 0.82895 0.56337 0.0
C1682 C 0.18202 0.83978 0.56157 0.0
C1683 C 0.19265 0.85102 0.56045 0.0
C1684 C 0.13369 0.77842 0.54536 0.0
C1685 C 0.13087 0.76707 0.53865 0.0
C1686 C 0.12416 0.76284 0.52338 0.0
C1687 C 0.12004 0.76987 0.51454 0.0
C1688 C 0.12326 0.78147 0.52097 0.0
C1689 C 0.13005 0.78573 0.53623 0.0
C1690 C 0.13121 0.77787 0.57637 0.0
C1691 C 0.12147 0.78018 0.57703 0.0
C1692 C 0.11228 0.77422 0.58908 0.0
C1693 C 0.1127 0.76595 0.60093 0.0
C1694 C 0.12296 0.76443 0.60108 0.0
C1695 C 0.13206 0.77027 0.58883 0.0
C1696 C 0.15008 0.79376 0.56302 0.0
C1697 C 0.16084 0.79532 0.55598 0.0
C1698 C 0.17127 0.80668 0.556 0.0
C1699 C 0.17128 0.81683 0.56341 0.0
C1700 C 0.16043 0.81526 0.57051 0.0
C1701 C 0.14989 0.80388 0.57015 0.0
H1702 H 0.21419 0.33846 0.54458 0.0
N1703 N 0.21917 0.36059 0.55741 0.0
H1704 H 0.222 0.33488 0.518 0.0
H1705 H 0.23115 0.37666 0.53282 0.0
H1706 H 0.23882 0.37314 0.50582 0.0
H1707 H 0.24084 0.37506 0.57087 0.0
H1708 H 0.25238 0.3694 0.59058 0.0
H1709 H 0.20996 0.33921 0.57575 0.0
H1710 H 0.22128 0.33356 0.59571 0.0
H1711 H 0.19725 0.33955 0.55464 0.0
H1712 H 0.21404 0.37805 0.56385 0.0
H1713 H 0.17735 0.33773 0.55689 0.0
H1714 H 0.19417 0.37655 0.5649 0.0
H1715 H 0.1235 0.33501 0.54243 0.0
H1716 H 0.11127 0.33013 0.51606 0.0
H1717 H 0.1285 0.36827 0.50327 0.0
H1718 H 0.14083 0.3731 0.52974 0.0
H1719 H 0.12992 0.37102 0.56633 0.0
H1720 H 0.1126 0.36441 0.58524 0.0
H1721 H 0.11203 0.33028 0.59338 0.0
H1722 H 0.12917 0.33693 0.57381 0.0
H1723 H 0.14501 0.34161 0.5391 0.0
H1724 H 0.16402 0.34178 0.54155 0.0
H1725 H 0.17633 0.37037 0.57971 0.0
N1726 N 0.13918 0.35779 0.55459 0.0
H1727 H 0.15739 0.37073 0.57626 0.0
C1728 C 0.22211 0.35788 0.54069 0.0
C1729 C 0.21935 0.34605 0.53608 0.0
C1730 C 0.22383 0.34401 0.5208 0.0
C1731 C 0.23113 0.35374 0.50981 0.0
C1732 C 0.23341 0.36547 0.51412 0.0
C1733 C 0.22894 0.3675 0.52943 0.0
C1734 C 0.22457 0.35763 0.57175 0.0
C1735 C 0.23643 0.36609 0.57664 0.0
C1736 C 0.243 0.36283 0.58793 0.0
C1737 C 0.2378 0.35097 0.59461 0.0
C1738 C 0.22563 0.34271 0.59056 0.0
C1739 C 0.21908 0.34598 0.57922 0.0
C1740 C 0.20719 0.35897 0.55936 0.0
C1741 C 0.19669 0.34762 0.55732 0.0
C1742 C 0.18524 0.34663 0.55836 0.0
C1743 C 0.18403 0.35698 0.56106 0.0
C1744 C 0.19462 0.36829 0.5632 0.0
C1745 C 0.20603 0.36922 0.56246 0.0
C1746 C 0.13318 0.35447 0.53797 0.0
C1747 C 0.12485 0.34231 0.53379 0.0
C1748 C 0.11788 0.33952 0.51869 0.0
C1749 C 0.11893 0.34883 0.50766 0.0
C1750 C 0.12748 0.36093 0.51161 0.0
C1751 C 0.13457 0.3637 0.5266 0.0
C1752 C 0.13081 0.35451 0.56866 0.0
C1753 C 0.12623 0.36225 0.57258 0.0
C1754 C 0.11633 0.35843 0.58345 0.0
C1755 C 0.11079 0.34674 0.59079 0.0
C1756 C 0.1159 0.33925 0.58771 0.0
C1757 C 0.12579 0.34307 0.57668 0.0
C1758 C 0.14971 0.35635 0.55735 0.0
C1759 C 0.15166 0.34792 0.54808 0.0
C1760 C 0.16264 0.34794 0.54962 0.0
C1761 C 0.17188 0.35618 0.5607 0.0
C1762 C 0.16961 0.3641 0.57068 0.0
C1763 C 0.15872 0.36423 0.56889 0.0
C1764 C 0.99456 0.38394 0.04862 0.0
C1765 C 0.00609 0.38614 0.04374 0.0
C1766 C 0.99327 0.3903 0.0624 0.0
C1767 C 0.01131 0.41843 0.08824 0.0
H1768 H 0.98298 0.40444 0.11732 0.0
C1769 C 0.00482 0.44788 0.13834 0.0
C1770 C 1.00001 0.44256 0.15435 0.0
C1771 C 0.00438 0.4407 0.12444 0.0
C1772 C 0.99102 0.40847 0.10944 0.0
H1773 H 0.02522 0.39622 0.05 0.0
H1774 H 0.02296 0.40684 0.0745 0.0
H1775 H 0.98498 0.39205 0.09509 0.0
H1776 H 0.99081 0.42563 0.16842 0.0
H1777 H 0.99045 0.41306 0.14441 0.0
H1778 H 0.0177 0.43461 0.10311 0.0
C1779 C 0.01493 0.40061 0.06731 0.0
C1780 C 0.99209 0.4014 0.09649 0.0
C1781 C 0.01623 0.39443 0.05335 0.0
C1782 C 0.99446 0.4299 0.15611 0.0
C1783 C 0.99423 0.42272 0.1423 0.0
C1784 C 0.01034 0.42543 0.10132 0.0
C1785 C 0.00347 0.39887 0.07178 0.0
C1786 C 0.00227 0.40628 0.08572 0.0
C1787 C 0.9994 0.42804 0.12635 0.0
C1788 C 1.00017 0.42057 0.11211 0.0
H1789 H 0.98658 0.37768 0.04134 0.0
H1790 H 0.98432 0.38879 0.06527 0.0
H1791 H 0.01917 0.42264 0.08002 0.0
H1792 H 0.00907 0.45764 0.13668 0.0
H1793 H 0.00815 0.44512 0.11226 0.0
C1794 C 0.60795 0.61212 0.04806 0.0
C1795 C 0.62057 0.61908 0.04949 0.0
C1796 C 0.60118 0.60474 0.06176 0.0
C1797 C 0.60273 0.59993 0.10886 0.0
H1798 H 0.57637 0.56763 0.09852 0.0
C1799 C 0.57167 0.56894 0.16237 0.0
C1800 C 0.56813 0.55651 0.1617 0.0
C1801 C 0.57743 0.57656 0.1484 0.0
C1802 C 0.58376 0.57659 0.10165 0.0
H1803 H 0.63598 0.62489 0.06666 0.0
H1804 H 0.62428 0.61185 0.09052 0.0
H1805 H 0.58788 0.58113 0.07501 0.0
H1806 H 0.56762 0.54235 0.14545 0.0
H1807 H 0.57806 0.55574 0.1213 0.0
H1808 H 0.59895 0.59527 0.13547 0.0
C1809 C 0.61953 0.6119 0.07885 0.0
C1810 C 0.59026 0.58439 0.08815 0.0
C1811 C 0.62627 0.61923 0.06513 0.0
C1812 C 0.57034 0.55189 0.14653 0.0
C1813 C 0.5762 0.55955 0.13257 0.0
C1814 C 0.59629 0.59211 0.12234 0.0
C1815 C 0.60692 0.60441 0.07725 0.0
C1816 C 0.59983 0.59617 0.09158 0.0
C1817 C 0.57993 0.57202 0.1334 0.0
C1818 C 0.5867 0.58034 0.11893 0.0
H1819 H 0.60337 0.61218 0.03621 0.0
H1820 H 0.59146 0.59932 0.06023 0.0
H1821 H 0.60995 0.60897 0.112 0.0
H1822 H 0.57029 0.5729 0.1739 0.0
H1823 H 0.57998 0.58607 0.14941 0.0
C1824 C 0.38202 0.00632 0.05939 0.0
C1825 C 0.38109 1.00054 0.04361 0.0
C1826 C 0.38895 0.0055 0.07291 0.0
C1827 C 0.40116 0.98652 0.08977 0.0
H1828 H 0.42335 0.01554 0.1151 0.0
C1829 C 0.43332 0.98538 0.1419 0.0
C1830 C 0.43545 0.99257 0.15666 0.0
C1831 C 0.42726 0.98668 0.12759 0.0
C1832 C 0.4171 0.0073 0.10835 0.0
H1833 H 0.38583 0.9887 0.02978 0.0
H1834 H 0.39805 0.98728 0.0534 0.0
H1835 H 0.41118 0.0169 0.09169 0.0
H1836 H 0.4329 0.0067 0.16814 0.0
H1837 H 0.42198 0.00873 0.14348 0.0
H1838 H 0.40662 0.97676 0.10686 0.0
C1839 C 0.39359 0.99259 0.05529 0.0
C1840 C 0.41018 0.00812 0.09482 0.0
C1841 C 0.38668 0.99344 0.04177 0.0
C1842 C 0.43151 0.00116 0.15681 0.0
C1843 C 0.42529 0.00234 0.14262 0.0
C1844 C 0.40793 0.98564 0.10349 0.0
C1845 C 0.39485 0.99866 0.07098 0.0
C1846 C 0.40218 0.99776 0.08534 0.0
C1847 C 0.42302 0.99506 0.12784 0.0
C1848 C 0.416 0.99603 0.11297 0.0
H1849 H 0.37734 0.01142 0.06128 0.0
H1850 H 0.38956 0.01009 0.08495 0.0
H1851 H 0.39492 0.97833 0.08287 0.0
H1852 H 0.43637 0.97875 0.14144 0.0
H1853 H 0.42592 0.9811 0.11634 0.0
C1854 C 0.39584 0.01745 0.96139 0.0
C1855 C 0.38595 0.00781 0.96964 0.0
C1856 C 0.40138 0.01526 0.94744 0.0
C1857 C 0.39718 0.99157 0.9153 0.0
H1858 H 0.43206 0.01119 0.91158 0.0
C1859 C 0.42537 0.97945 0.86978 0.0
C1860 C 0.43342 0.98885 0.85888 0.0
C1861 C 0.41973 0.98187 0.88338 0.0
C1862 C 0.42231 0.0057 0.91242 0.0
H1863 H 0.37404 0.98829 0.96961 0.0
H1864 H 0.38391 0.98441 0.94566 0.0
H1865 H 0.42167 0.01511 0.93485 0.0
H1866 H 0.44198 0.00827 0.85412 0.0
H1867 H 0.43245 0.0125 0.87825 0.0
H1868 H 0.39797 0.98195 0.89311 0.0
C1869 C 0.38723 0.99373 0.94963 0.0
C1870 C 0.41632 0.00797 0.92569 0.0
C1871 C 0.38158 0.99594 0.96343 0.0
C1872 C 0.436 0.00081 0.86235 0.0
C1873 C 0.43048 0.00324 0.87612 0.0
C1874 C 0.40321 0.98919 0.9022 0.0
C1875 C 0.39729 0.00335 0.94153 0.0
C1876 C 0.40366 0.00096 0.92729 0.0
C1877 C 0.42216 0.99377 0.88659 0.0
C1878 C 0.41582 0.99625 0.90061 0.0
H1879 H 0.39937 0.02672 0.96577 0.0
H1880 H 0.4089 0.02294 0.94131 0.0
H1881 H 0.38743 0.98612 0.91588 0.0
H1882 H 0.42335 0.97017 0.86778 0.0
H1883 H 0.41349 0.97442 0.89143 0.0
C1884 C 0.00422 0.38338 0.95416 0.0
C1885 C 0.99863 0.38251 0.97002 0.0
C1886 C 0.00394 0.39093 0.94115 0.0
C1887 C 0.98618 0.40449 0.92504 0.0
H1888 H 0.01552 0.42688 0.90116 0.0
C1889 C 0.98589 0.4372 0.87319 0.0
C1890 C 0.99326 0.43938 0.85875 0.0
C1891 C 0.98702 0.43111 0.88758 0.0
C1892 C 0.0072 0.42057 0.90751 0.0
H1893 H 0.98768 0.38804 0.98446 0.0
H1894 H 0.98711 0.40125 0.96165 0.0
H1895 H 0.01638 0.41417 0.9242 0.0
H1896 H 0.00752 0.43689 0.8479 0.0
H1897 H 0.00922 0.42588 0.87263 0.0
H1898 H 0.97683 0.41037 0.90789 0.0
C1899 C 0.99192 0.39631 0.95939 0.0
C1900 C 0.00773 0.41335 0.92081 0.0
C1901 C 0.99228 0.38883 0.97243 0.0
C1902 C 0.00185 0.43547 0.85899 0.0
C1903 C 0.00284 0.4292 0.87323 0.0
C1904 C 0.98559 0.41154 0.91153 0.0
C1905 C 0.99778 0.39747 0.94364 0.0
C1906 C 0.99724 0.40525 0.92971 0.0
C1907 C 0.99539 0.42685 0.8877 0.0
C1908 C 0.99609 0.41967 0.90254 0.0
H1909 H 0.00871 0.37815 0.95181 0.0
H1910 H 0.00834 0.39149 0.92902 0.0
H1911 H 0.97791 0.39819 0.93154 0.0
H1912 H 0.97925 0.44021 0.87333 0.0
H1913 H 0.9813 0.42972 0.89858 0.0
C1914 C 0.6136 0.61709 0.96852 0.0
C1915 C 0.62222 0.61396 0.97445 0.0
C1916 C 0.60632 0.61126 0.95412 0.0
C1917 C 0.60491 0.595 0.91467 0.0
H1918 H 0.57003 0.58006 0.91859 0.0
C1919 C 0.57222 0.57505 0.85638 0.0
C1920 C 0.5627 0.56309 0.85849 0.0
C1921 C 0.57937 0.5816 0.87048 0.0
C1922 C 0.57975 0.5842 0.91735 0.0
H1923 H 0.63014 0.6025 0.96966 0.0
H1924 H 0.61762 0.59258 0.94426 0.0
H1925 H 0.58305 0.59121 0.94318 0.0
H1926 H 0.55303 0.54869 0.87699 0.0
H1927 H 0.56543 0.56027 0.90183 0.0
H1928 H 0.60163 0.58808 0.88881 0.0
C1929 C 0.61645 0.59945 0.95087 0.0
C1930 C 0.58718 0.59063 0.93133 0.0
C1931 C 0.62358 0.6051 0.96543 0.0
C1932 C 0.56033 0.55788 0.87503 0.0
C1933 C 0.56736 0.56451 0.88921 0.0
C1934 C 0.59749 0.58876 0.90059 0.0
C1935 C 0.60767 0.60238 0.94519 0.0
C1936 C 0.59982 0.59601 0.93015 0.0
C1937 C 0.57703 0.57638 0.88702 0.0
C1938 C 0.58485 0.58323 0.90185 0.0
H1939 H 0.61229 0.62382 0.97524 0.0
H1940 H 0.59965 0.61372 0.94992 0.0
H1941 H 0.61463 0.59911 0.91343 0.0
H1942 H 0.5743 0.57925 0.84373 0.0
H1943 H 0.58672 0.59075 0.86847 0.0
C1944 C 0.00846 0.62858 0.95496 0.0
C1945 C 0.00308 0.62302 0.97058 0.0
C1946 C 0.0092 0.62169 0.94147 0.0
C1947 C 0.9964 0.58995 0.92557 0.0
H1948 H 0.02578 0.60404 0.89867 0.0
C1949 C 0.00614 0.56226 0.87501 0.0
C1950 C 0.01155 0.56826 0.85956 0.0
C1951 C 0.00504 0.56868 0.88889 0.0
C1952 C 0.01746 0.59999 0.90593 0.0
H1953 H 0.99354 0.60594 0.98419 0.0
H1954 H 0.99518 0.59386 0.9609 0.0
H1955 H 0.02366 0.61578 0.92163 0.0
H1956 H 0.01969 0.58565 0.8464 0.0
H1957 H 0.01772 0.59679 0.87042 0.0
H1958 H 0.99012 0.57421 0.9095 0.0
C1959 C 0.9988 0.60351 0.95891 0.0
C1960 C 0.01626 0.60673 0.91919 0.0
C1961 C 0.99794 0.61041 0.97231 0.0
C1962 C 0.01574 0.5808 0.85826 0.0
C1963 C 0.01461 0.58719 0.87205 0.0
C1964 C 0.99758 0.58321 0.91221 0.0
C1965 C 0.00452 0.60908 0.94335 0.0
C1966 C 0.00573 0.60182 0.92921 0.0
C1967 C 0.00927 0.58124 0.88756 0.0
C1968 C 0.00811 0.58818 0.90218 0.0
H1969 H 0.01208 0.63825 0.95317 0.0
H1970 H 0.01339 0.62626 0.92955 0.0
H1971 H 0.98807 0.58594 0.93279 0.0
H1972 H 0.00288 0.55262 0.87644 0.0
H1973 H 0.001 0.56384 0.90072 0.0
C1974 C 0.38417 0.39433 0.97007 0.0
C1975 C 0.38839 0.38635 0.975 0.0
C1976 C 0.38932 0.40224 0.95615 0.0
C1977 C 0.4056 0.40647 0.91602 0.0
H1978 H 0.41641 0.44075 0.92222 0.0
C1979 C 0.41972 0.44051 0.85938 0.0
C1980 C 0.43099 0.45112 0.8613 0.0
C1981 C 0.41443 0.43269 0.87335 0.0
C1982 C 0.41344 0.43121 0.92034 0.0
H1983 H 0.40118 0.38027 0.96891 0.0
H1984 H 0.40998 0.39394 0.94429 0.0
H1985 H 0.40723 0.42666 0.94638 0.0
H1986 H 0.44542 0.46203 0.87936 0.0
H1987 H 0.43599 0.44844 0.90398 0.0
H1988 H 0.41168 0.41099 0.88993 0.0
C1989 C 0.40274 0.39409 0.95135 0.0
C1990 C 0.40814 0.42315 0.93409 0.0
C1991 C 0.39773 0.38631 0.96546 0.0
C1992 C 0.43674 0.4539 0.87755 0.0
C1993 C 0.43134 0.44617 0.89161 0.0
C1994 C 0.41072 0.41449 0.90219 0.0
C1995 C 0.39866 0.40221 0.94668 0.0
C1996 C 0.4042 0.41072 0.93207 0.0
C1997 C 0.4202 0.43542 0.88958 0.0
C1998 C 0.41472 0.42694 0.90424 0.0
H1999 H 0.37704 0.39465 0.97719 0.0
H2000 H 0.38595 0.40836 0.95272 0.0
H2001 H 0.40259 0.39692 0.91411 0.0
H2002 H 0.41516 0.43809 0.84695 0.0
H2003 H 0.40581 0.4245 0.87148 0.0
C2004 C 0.61984 0.99696 0.95707 0.0
C2005 C 0.61895 0.00148 0.97314 0.0
C2006 C 0.61249 0.99654 0.94328 0.0
C2007 C 0.60027 0.00259 0.91396 0.0
H2008 H 0.56612 0.98999 0.9227 0.0
C2009 C 0.56715 0.00087 0.86108 0.0
C2010 C 0.55634 0.98975 0.85937 0.0
C2011 C 0.57473 0.00311 0.87541 0.0
C2012 C 0.57564 0.99352 0.92008 0.0
H2013 H 0.61053 0.00998 0.98726 0.0
H2014 H 0.59741 0.00909 0.96314 0.0
H2015 H 0.57989 0.99275 0.94673 0.0
H2016 H 0.54482 0.9724 0.8716 0.0
H2017 H 0.55807 0.97632 0.89671 0.0
H2018 H 0.59601 0.00327 0.88731 0.0
C2019 C 0.60361 0.00564 0.96129 0.0
C2020 C 0.58352 0.99518 0.93383 0.0
C2021 C 0.6111 0.00618 0.97503 0.0
C2022 C 0.55313 0.98102 0.87252 0.0
C2023 C 0.56066 0.98331 0.88694 0.0
C2024 C 0.59241 0.00106 0.90025 0.0
C2025 C 0.60416 0.0007 0.94531 0.0
C2026 C 0.5959 0.99961 0.93089 0.0
C2027 C 0.57162 0.99431 0.88842 0.0
C2028 C 0.57999 0.99641 0.90314 0.0
H2029 H 0.62613 0.99362 0.95525 0.0
H2030 H 0.61309 0.99264 0.93117 0.0
H2031 H 0.60977 0.00612 0.91131 0.0
H2032 H 0.56993 0.00773 0.85108 0.0
H2033 H 0.58307 0.01171 0.87628 0.0
C2034 C 0.60361 0.98333 0.05287 0.0
C2035 C 0.6149 0.99282 0.04752 0.0
C2036 C 0.59782 0.98476 0.06717 0.0
C2037 C 0.59648 0.00841 0.09289 0.0
H2038 H 0.57947 0.98232 0.12572 0.0
C2039 C 0.57559 0.01482 0.15511 0.0
C2040 C 0.56435 0.00519 0.16029 0.0
C2041 C 0.58185 0.01334 0.14146 0.0
C2042 C 0.58405 0.98964 0.11655 0.0
H2043 H 0.62907 0.01119 0.05341 0.0
H2044 H 0.61898 0.01362 0.07841 0.0
H2045 H 0.59051 0.97961 0.10216 0.0
H2046 H 0.55074 0.98655 0.15491 0.0
H2047 H 0.56161 0.98399 0.13097 0.0
H2048 H 0.58996 0.01841 0.10715 0.0
C2049 C 0.61456 0.00512 0.07137 0.0
C2050 C 0.5904 0.9881 0.10307 0.0
C2051 C 0.62037 0.00368 0.0571 0.0
C2052 C 0.55945 0.99409 0.15137 0.0
C2053 C 0.5657 0.99262 0.13769 0.0
C2054 C 0.59011 0.00994 0.10633 0.0
C2055 C 0.60315 0.99572 0.07646 0.0
C2056 C 0.59667 0.99746 0.09107 0.0
C2057 C 0.57701 0.00221 0.13263 0.0
C2058 C 0.5838 1.00057 0.11831 0.0
H2059 H 0.59909 0.97484 0.04581 0.0
H2060 H 0.58899 0.97738 0.07065 0.0
H2061 H 0.60105 0.01572 0.08369 0.0
H2062 H 0.57972 0.02342 0.16191 0.0
H2063 H 0.59063 0.02085 0.13809 0.0
C2064 C 0.01796 0.62229 0.05121 0.0
C2065 C 0.00867 0.62442 0.04522 0.0
C2066 C 0.01613 0.61474 0.06541 0.0
C2067 C 0.99653 0.60098 0.10333 0.0
H2068 H 0.00859 0.5782 0.10127 0.0
C2069 C 0.98369 0.56302 0.15389 0.0
C2070 C 0.99303 0.56105 0.16006 0.0
C2071 C 0.98556 0.57063 0.13976 0.0
C2072 C 0.00527 0.58459 0.10212 0.0
H2073 H 0.99021 0.62036 0.04973 0.0
H2074 H 0.98702 0.60713 0.07438 0.0
H2075 H 0.01204 0.59195 0.07714 0.0
H2076 H 0.01156 0.5653 0.15594 0.0
H2077 H 0.01487 0.5787 0.13137 0.0
H2078 H 0.98973 0.59358 0.12829 0.0
C2079 C 0.99576 0.61141 0.06819 0.0
C2080 C 0.00726 0.59249 0.0883 0.0
C2081 C 0.99758 0.61896 0.05399 0.0
C2082 C 0.00422 0.56672 0.1516 0.0
C2083 C 0.00608 0.5743 0.13742 0.0
C2084 C 0.99453 0.59307 0.11714 0.0
C2085 C 0.00498 0.60913 0.07399 0.0
C2086 C 0.00292 0.60078 0.08875 0.0
C2087 C 0.99679 0.57643 0.13142 0.0
C2088 C 0.99887 0.58478 0.11669 0.0
H2089 H 0.02663 0.62634 0.04484 0.0
H2090 H 0.02348 0.61333 0.06971 0.0
H2091 H 0.99322 0.60737 0.1042 0.0
H2092 H 0.975 0.5589 0.16024 0.0
H2093 H 0.97818 0.57196 0.13533 0.0
C2094 C 0.39293 0.39857 0.0487 0.0
C2095 C 0.38563 0.38593 0.04988 0.0
C2096 C 0.40066 0.40513 0.06236 0.0
C2097 C 0.40512 0.40416 0.10907 0.0
H2098 H 0.43885 0.42686 0.0996 0.0
C2099 C 0.45235 0.43045 0.14981 0.0
C2100 C 0.44908 0.43598 0.16278 0.0
C2101 C 0.44478 0.42511 0.13549 0.0
C2102 C 0.42945 0.42055 0.10241 0.0
H2103 H 0.37974 0.37029 0.06655 0.0
H2104 H 0.39318 0.38174 0.09057 0.0
H2105 H 0.42493 0.41598 0.07574 0.0
H2106 H 0.43539 0.44033 0.17091 0.0
H2107 H 0.42209 0.43089 0.14595 0.0
H2108 H 0.40961 0.40878 0.13572 0.0
C2109 C 0.39317 0.38657 0.079 0.0
C2110 C 0.42149 0.41438 0.08877 0.0
C2111 C 0.38559 0.38001 0.06524 0.0
C2112 C 0.43819 0.43623 0.16103 0.0
C2113 C 0.43054 0.43074 0.14685 0.0
C2114 C 0.41303 0.41047 0.12266 0.0
C2115 C 0.4009 0.39918 0.07761 0.0
C2116 C 0.40926 0.40604 0.09198 0.0
C2117 C 0.43371 0.42505 0.13402 0.0
C2118 C 0.42529 0.41866 0.11948 0.0
H2119 H 0.39284 0.40332 0.03707 0.0
H2120 H 0.40639 0.41487 0.06105 0.0
H2121 H 0.39573 0.39785 0.1119 0.0
H2122 H 0.46072 0.43017 0.15083 0.0
H2123 H 0.44741 0.42073 0.12582 0.0
C2124 C 0.68495 0.735 0.3833 0.0
C2125 C 0.6764 0.72305 0.37847 0.0
C2126 C 0.68288 0.74057 0.39736 0.0
C2127 C 0.66486 0.73418 0.43703 0.0
H2128 H 0.67228 0.76768 0.43218 0.0
C2129 C 0.64954 0.75728 0.48698 0.0
C2130 C 0.65778 0.76936 0.49162 0.0
C2131 C 0.65193 0.75174 0.4732 0.0
C2132 C 0.67029 0.75837 0.43382 0.0
H2133 H 0.65903 0.70756 0.38494 0.0
H2134 H 0.65541 0.71733 0.40945 0.0
H2135 H 0.67628 0.75768 0.40835 0.0
H2136 H 0.67494 0.78511 0.4852 0.0
H2137 H 0.67922 0.77536 0.46126 0.0
H2138 H 0.65887 0.73486 0.46249 0.0
C2139 C 0.66377 0.72234 0.40239 0.0
C2140 C 0.67258 0.75263 0.42017 0.0
C2141 C 0.66582 0.71675 0.38828 0.0
C2142 C 0.66845 0.77578 0.48203 0.0
C2143 C 0.67084 0.77022 0.46821 0.0
C2144 C 0.66258 0.73992 0.45069 0.0
C2145 C 0.67222 0.73435 0.40699 0.0
C2146 C 0.66987 0.74046 0.42159 0.0
C2147 C 0.66264 0.75811 0.4637 0.0
C2148 C 0.66523 0.75207 0.44924 0.0
H2149 H 0.69322 0.74015 0.37611 0.0
H2150 H 0.68966 0.74976 0.40072 0.0
H2151 H 0.66283 0.72485 0.43864 0.0
H2152 H 0.64133 0.752 0.49423 0.0
H2153 H 0.64535 0.74245 0.46995 0.0
C2154 C 0.28768 0.95131 0.39806 0.0
C2155 C 0.28219 0.95108 0.38218 0.0
C2156 C 0.28075 0.94409 0.41173 0.0
C2157 C 0.26315 0.93227 0.44114 0.0
H2158 H 0.23949 0.89879 0.43076 0.0
C2159 C 0.23168 0.89934 0.49296 0.0
C2160 C 0.23101 0.88792 0.4937 0.0
C2161 C 0.23714 0.9071 0.47901 0.0
C2162 C 0.24608 0.90811 0.43383 0.0
H2163 H 0.26517 0.94408 0.36835 0.0
H2164 H 0.25295 0.93121 0.39225 0.0
H2165 H 0.25047 0.91276 0.40727 0.0
H2166 H 0.23524 0.87555 0.48018 0.0
H2167 H 0.24477 0.88914 0.45566 0.0
H2168 H 0.25881 0.92761 0.46772 0.0
C2169 C 0.26264 0.93676 0.39404 0.0
C2170 C 0.2523 0.91613 0.42039 0.0
C2171 C 0.26958 0.94411 0.38042 0.0
C2172 C 0.23568 0.88432 0.47998 0.0
C2173 C 0.24105 0.89205 0.46592 0.0
C2174 C 0.25684 0.92429 0.45455 0.0
C2175 C 0.26818 0.93656 0.40977 0.0
C2176 C 0.26101 0.92826 0.42392 0.0
C2177 C 0.24197 0.90358 0.46541 0.0
C2178 C 0.24832 0.91211 0.45105 0.0
H2179 H 0.29737 0.95693 0.3998 0.0
H2180 H 0.28531 0.94411 0.42363 0.0
H2181 H 0.26972 0.94158 0.44426 0.0
H2182 H 0.22828 0.90242 0.50343 0.0
H2183 H 0.23764 0.9159 0.47889 0.0
C2184 C 0.04359 0.33466 0.39859 0.0
C2185 C 0.04345 0.32868 0.38337 0.0
C2186 C 0.05071 0.33499 0.41263 0.0
C2187 C 0.07775 0.33195 0.42221 0.0
H2188 H 0.0702 0.3357 0.46937 0.0
C2189 C 0.10811 0.33637 0.48154 0.0
C2190 C 0.11048 0.34596 0.49285 0.0
C2191 C 0.0996 0.33329 0.46818 0.0
C2192 C 0.07243 0.33471 0.45623 0.0
H2193 H 0.04931 0.31711 0.37135 0.0
H2194 H 0.06173 0.3175 0.39598 0.0
H2195 H 0.05508 0.33088 0.44669 0.0
H2196 H 0.10579 0.35979 0.49914 0.0
H2197 H 0.09086 0.35435 0.47588 0.0
H2198 H 0.0951 0.33567 0.43197 0.0
C2199 C 0.05679 0.3224 0.39691 0.0
C2200 C 0.06379 0.33198 0.44321 0.0
C2201 C 0.04965 0.32211 0.38284 0.0
C2202 C 0.10424 0.35244 0.4905 0.0
C2203 C 0.09562 0.34925 0.47732 0.0
C2204 C 0.08635 0.33453 0.4353 0.0
C2205 C 0.05769 0.32916 0.41181 0.0
C2206 C 0.06641 0.3308 0.42595 0.0
C2207 C 0.09317 0.33961 0.4661 0.0
C2208 C 0.08384 0.33614 0.45237 0.0
H2209 H 0.03847 0.33941 0.39942 0.0
H2210 H 0.05117 0.34034 0.42376 0.0
H2211 H 0.0802 0.33127 0.40909 0.0
H2212 H 0.11283 0.33125 0.48307 0.0
H2213 H 0.09785 0.32579 0.45972 0.0
C2214 C 0.04488 0.3254 0.29859 0.0
C2215 C 0.05124 0.33571 0.30915 0.0
C2216 C 0.05073 0.32314 0.28504 0.0
C2217 C 0.0812 0.33054 0.27071 0.0
H2218 H 0.06681 0.32206 0.22495 0.0
C2219 C 0.10933 0.33707 0.21014 0.0
C2220 C 0.10433 0.32865 0.19657 0.0
C2221 C 0.10242 0.33617 0.22452 0.0
C2222 C 0.07087 0.3242 0.23772 0.0
H2223 H 0.06872 0.35182 0.31347 0.0
H2224 H 0.07877 0.3479 0.28996 0.0
H2225 H 0.05528 0.32387 0.24868 0.0
H2226 H 0.08826 0.31247 0.18766 0.0
H2227 H 0.07618 0.31079 0.21299 0.0
H2228 H 0.09684 0.33106 0.2598 0.0
C2229 C 0.06933 0.34148 0.29227 0.0
C2230 C 0.06427 0.32526 0.2513 0.0
C2231 C 0.0635 0.34377 0.30568 0.0
C2232 C 0.09238 0.31905 0.19797 0.0
C2233 C 0.08543 0.31816 0.21238 0.0
C2234 C 0.08777 0.32945 0.25719 0.0
C2235 C 0.06306 0.33109 0.28189 0.0
C2236 C 0.06949 0.32873 0.26784 0.0
C2237 C 0.09033 0.32681 0.22571 0.0
C2238 C 0.0828 0.32654 0.24045 0.0
H2239 H 0.03544 0.31899 0.30088 0.0
H2240 H 0.04567 0.31505 0.27726 0.0
H2241 H 0.08537 0.33297 0.28341 0.0
H2242 H 0.11855 0.3445 0.20952 0.0
H2243 H 0.10645 0.34306 0.23445 0.0
C2244 C 0.6638 0.72416 0.30454 0.0
C2245 C 0.66975 0.71734 0.30367 0.0
C2246 C 0.66416 0.73135 0.29055 0.0
C2247 C 0.67062 0.736 0.24363 0.0
H2248 H 0.67628 0.76845 0.25323 0.0
C2249 C 0.67157 0.76742 0.18903 0.0
C2250 C 0.68052 0.77974 0.18996 0.0
C2251 C 0.66936 0.75972 0.20314 0.0
C2252 C 0.67479 0.75945 0.25032 0.0
H2253 H 0.67958 0.71155 0.28719 0.0
H2254 H 0.68047 0.72427 0.26284 0.0
H2255 H 0.67407 0.75489 0.27707 0.0
H2256 H 0.69392 0.79365 0.20674 0.0
H2257 H 0.69035 0.78012 0.23115 0.0
H2258 H 0.67181 0.74068 0.21691 0.0
C2259 C 0.67564 0.72425 0.27428 0.0
C2260 C 0.67335 0.75161 0.26399 0.0
C2261 C 0.67531 0.71711 0.28828 0.0
C2262 C 0.68706 0.78419 0.20549 0.0
C2263 C 0.6849 0.77645 0.21957 0.0
C2264 C 0.67212 0.74385 0.22997 0.0
C2265 C 0.67026 0.73163 0.27534 0.0
C2266 C 0.67131 0.73981 0.26081 0.0
C2267 C 0.67611 0.76409 0.21851 0.0
C2268 C 0.67425 0.75568 0.23313 0.0
H2269 H 0.65915 0.72415 0.31618 0.0
H2270 H 0.65967 0.7367 0.29166 0.0
H2271 H 0.66893 0.72693 0.24068 0.0
H2272 H 0.66645 0.76361 0.17724 0.0
H2273 H 0.66239 0.75029 0.20194 0.0
C2274 C 0.2807 0.93387 0.30294 0.0
C2275 C 0.28447 0.946 0.30737 0.0
C2276 C 0.27355 0.92861 0.28828 0.0
C2277 C 0.26498 0.93581 0.24625 0.0
H2278 H 0.23836 0.90274 0.24915 0.0
C2279 C 0.24209 0.90602 0.18637 0.0
C2280 C 0.22949 0.89828 0.18651 0.0
C2281 C 0.2482 0.91265 0.20106 0.0
C2282 C 0.24566 0.91203 0.24816 0.0
H2283 H 0.28375 0.96214 0.29959 0.0
H2284 H 0.27127 0.95292 0.2739 0.0
H2285 H 0.25014 0.91275 0.275 0.0
H2286 H 0.21338 0.89161 0.20209 0.0
H2287 H 0.22407 0.90325 0.22782 0.0
H2288 H 0.26053 0.93505 0.21936 0.0
C2289 C 0.27391 0.94752 0.28183 0.0
C2290 C 0.2525 0.91771 0.26293 0.0
C2291 C 0.28103 0.95279 0.29659 0.0
C2292 C 0.22309 0.89753 0.20157 0.0
C2293 C 0.22922 0.90411 0.21633 0.0
C2294 C 0.25818 0.9301 0.23144 0.0
C2295 C 0.27001 0.93534 0.2776 0.0
C2296 C 0.26233 0.92961 0.2621 0.0
C2297 C 0.24186 0.91167 0.21628 0.0
C2298 C 0.24853 0.91809 0.2322 0.0
H2299 H 0.28316 0.92834 0.31088 0.0
H2300 H 0.27086 0.91927 0.28522 0.0
H2301 H 0.27253 0.94497 0.24518 0.0
H2302 H 0.24726 0.90693 0.17489 0.0
H2303 H 0.25795 0.9183 0.20063 0.0
C2304 C 0.65956 0.9376 0.30581 0.0
C2305 C 0.66491 0.95019 0.30355 0.0
C2306 C 0.65981 0.93029 0.29251 0.0
C2307 C 0.66419 0.92967 0.24543 0.0
H2308 H 0.67471 0.90649 0.25733 0.0
C2309 C 0.68669 0.9033 0.20899 0.0
C2310 C 0.67899 0.89864 0.19452 0.0
C2311 C 0.68356 0.90819 0.22285 0.0
C2312 C 0.67175 0.91292 0.25383 0.0
H2313 H 0.67356 0.96497 0.28534 0.0
H2314 H 0.6741 0.95229 0.26205 0.0
H2315 H 0.67147 0.91779 0.28016 0.0
H2316 H 0.66188 0.89525 0.18336 0.0
H2317 H 0.65641 0.9038 0.2076 0.0
H2318 H 0.66463 0.92491 0.21907 0.0
C2319 C 0.66988 0.94801 0.27411 0.0
C2320 C 0.66982 0.91933 0.2669 0.0
C2321 C 0.66973 0.9553 0.28747 0.0
C2322 C 0.66795 0.89867 0.1944 0.0
C2323 C 0.66487 0.90368 0.20819 0.0
C2324 C 0.666 0.92316 0.23238 0.0
C2325 C 0.66513 0.93546 0.27659 0.0
C2326 C 0.66621 0.92793 0.26282 0.0
C2327 C 0.67272 0.90864 0.22244 0.0
C2328 C 0.66996 0.91484 0.23643 0.0
H2329 H 0.65551 0.93347 0.31803 0.0
H2330 H 0.65589 0.92062 0.2947 0.0
H2331 H 0.66128 0.93613 0.24188 0.0
H2332 H 0.69522 0.90332 0.20947 0.0
H2333 H 0.68983 0.91202 0.2336 0.0
C2334 C 0.06631 0.72104 0.30284 0.0
C2335 C 0.05459 0.71799 0.30814 0.0
C2336 C 0.07155 0.72854 0.28857 0.0
C2337 C 0.06983 0.75189 0.26198 0.0
H2338 H 0.08905 0.7451 0.23006 0.0
C2339 C 0.08896 0.77895 0.19865 0.0
C2340 C 0.10067 0.78162 0.19388 0.0
C2341 C 0.08322 0.77133 0.21268 0.0
C2342 C 0.08383 0.74721 0.23897 0.0
H2343 H 0.03914 0.72038 0.30229 0.0
H2344 H 0.04828 0.73341 0.27725 0.0
H2345 H 0.07896 0.7312 0.25387 0.0
H2346 H 0.11568 0.77874 0.20051 0.0
H2347 H 0.1057 0.7655 0.22503 0.0
H2348 H 0.07474 0.76794 0.24708 0.0
C2349 C 0.05345 0.73007 0.28433 0.0
C2350 C 0.07803 0.73922 0.2526 0.0
C2351 C 0.04818 0.72253 0.29862 0.0
C2352 C 0.1066 0.77671 0.20369 0.0
C2353 C 0.10086 0.7691 0.21771 0.0
C2354 C 0.07564 0.75989 0.24833 0.0
C2355 C 0.06522 0.73321 0.2792 0.0
C2356 C 0.07101 0.7415 0.26433 0.0
C2357 C 0.08905 0.76621 0.22226 0.0
C2358 C 0.08277 0.75768 0.23672 0.0
H2359 H 0.07156 0.71777 0.30987 0.0
H2360 H 0.08069 0.73091 0.28511 0.0
H2361 H 0.06463 0.754 0.27092 0.0
H2362 H 0.08407 0.78244 0.19121 0.0
H2363 H 0.07407 0.76918 0.21571 0.0
C2364 C 0.2863 0.32945 0.29222 0.0
C2365 C 0.28654 0.33592 0.30697 0.0
C2366 C 0.27914 0.3287 0.27799 0.0
C2367 C 0.26338 0.34335 0.257 0.0
H2368 H 0.2443 0.31174 0.23569 0.0
C2369 C 0.22765 0.3346 0.20367 0.0
C2370 C 0.22599 0.3262 0.19071 0.0
C2371 C 0.23504 0.33606 0.21801 0.0
C2372 C 0.24968 0.3207 0.24124 0.0
H2373 H 0.28031 0.34746 0.31815 0.0
H2374 H 0.26754 0.34604 0.2933 0.0
H2375 H 0.25771 0.31413 0.25958 0.0
H2376 H 0.23099 0.31304 0.18214 0.0
H2377 H 0.24426 0.31589 0.20664 0.0
H2378 H 0.25579 0.35008 0.23805 0.0
C2379 C 0.27281 0.34145 0.29275 0.0
C2380 C 0.2573 0.32203 0.25513 0.0
C2381 C 0.28003 0.3422 0.30698 0.0
C2382 C 0.23198 0.31943 0.19214 0.0
C2383 C 0.23953 0.32104 0.20626 0.0
C2384 C 0.25592 0.34209 0.24283 0.0
C2385 C 0.27219 0.33458 0.27816 0.0
C2386 C 0.26419 0.33333 0.26326 0.0
C2387 C 0.2411 0.32929 0.21949 0.0
C2388 C 0.24896 0.33073 0.23475 0.0
H2389 H 0.29166 0.32494 0.29171 0.0
H2390 H 0.27907 0.32356 0.26682 0.0
H2391 H 0.26872 0.35223 0.26282 0.0
H2392 H 0.22308 0.3399 0.20283 0.0
H2393 H 0.23586 0.34237 0.22801 0.0
C2394 C 0.27089 0.32376 0.3873 0.0
C2395 C 0.28279 0.33203 0.38229 0.0
C2396 C 0.26565 0.32627 0.40131 0.0
C2397 C 0.26817 0.35161 0.42778 0.0
H2398 H 0.24724 0.32571 0.45877 0.0
C2399 C 0.249 0.36007 0.49045 0.0
C2400 C 0.23691 0.35174 0.4945 0.0
C2401 C 0.2547 0.3579 0.47668 0.0
C2402 C 0.25295 0.33301 0.45012 0.0
H2403 H 0.29856 0.34939 0.38839 0.0
H2404 H 0.28944 0.35367 0.41303 0.0
H2405 H 0.25733 0.32145 0.43548 0.0
H2406 H 0.22123 0.33475 0.48686 0.0
H2407 H 0.23119 0.33093 0.46286 0.0
H2408 H 0.26379 0.36318 0.44251 0.0
C2409 C 0.28412 0.34531 0.4059 0.0
C2410 C 0.25875 0.33058 0.43677 0.0
C2411 C 0.28937 0.34282 0.39184 0.0
C2412 C 0.2306 0.34126 0.48427 0.0
C2413 C 0.23631 0.33907 0.47052 0.0
C2414 C 0.26239 0.35406 0.44118 0.0
C2415 C 0.27216 0.33709 0.41075 0.0
C2416 C 0.26638 0.33983 0.42536 0.0
C2417 C 0.24846 0.34731 0.46666 0.0
C2418 C 0.25466 0.34477 0.45244 0.0
H2419 H 0.26548 0.31539 0.38024 0.0
H2420 H 0.25637 0.31981 0.4045 0.0
H2421 H 0.27383 0.35891 0.41908 0.0
H2422 H 0.25421 0.36812 0.49824 0.0
H2423 H 0.2641 0.36435 0.47419 0.0
C2424 C 0.68205 0.95001 0.38261 0.0
C2425 C 0.67342 0.95339 0.3777 0.0
C2426 C 0.68016 0.94259 0.397 0.0
C2427 C 0.66235 0.93156 0.43705 0.0
H2428 H 0.66951 0.90521 0.43316 0.0
C2429 C 0.64695 0.89371 0.48821 0.0
C2430 C 0.65531 0.89003 0.49327 0.0
C2431 C 0.64923 0.90137 0.47401 0.0
C2432 C 0.66759 0.9126 0.43452 0.0
H2433 H 0.65612 0.95174 0.38437 0.0
H2434 H 0.65282 0.93877 0.40935 0.0
H2435 H 0.67364 0.91908 0.40896 0.0
H2436 H 0.67248 0.89126 0.48707 0.0
H2437 H 0.67655 0.90478 0.46242 0.0
H2438 H 0.65627 0.92508 0.46259 0.0
C2439 C 0.6611 0.94196 0.40215 0.0
C2440 C 0.66997 0.92056 0.42066 0.0
C2441 C 0.66298 0.94935 0.38776 0.0
C2442 C 0.66591 0.89402 0.4836 0.0
C2443 C 0.66819 0.90167 0.46938 0.0
C2444 C 0.65997 0.92361 0.45091 0.0
C2445 C 0.66961 0.93839 0.40685 0.0
C2446 C 0.66735 0.93011 0.42175 0.0
C2447 C 0.65992 0.90553 0.46452 0.0
C2448 C 0.66252 0.91401 0.44979 0.0
H2449 H 0.69021 0.95294 0.37521 0.0
H2450 H 0.68697 0.94015 0.40042 0.0
H2451 H 0.6604 0.93893 0.4384 0.0
H2452 H 0.63876 0.89092 0.49548 0.0
H2453 H 0.6426 0.90404 0.47047 0.0
C2454 C 0.05705 0.73181 0.38258 0.0
C2455 C 0.04995 0.71913 0.3833 0.0
C2456 C 0.06417 0.73827 0.39681 0.0
C2457 C 0.06769 0.73594 0.44389 0.0
H2458 H 0.10142 0.75935 0.43599 0.0
C2459 C 0.1028 0.75258 0.49893 0.0
C2460 C 0.11193 0.76484 0.49919 0.0
C2461 C 0.09502 0.74778 0.48473 0.0
C2462 C 0.09199 0.75298 0.43842 0.0
H2463 H 0.04368 0.70329 0.39967 0.0
H2464 H 0.05611 0.71448 0.42451 0.0
H2465 H 0.08784 0.7498 0.41144 0.0
H2466 H 0.12005 0.78165 0.48461 0.0
H2467 H 0.10625 0.77333 0.45991 0.0
H2468 H 0.07177 0.73909 0.47084 0.0
C2469 C 0.05639 0.71949 0.41298 0.0
C2470 C 0.08421 0.74749 0.42434 0.0
C2471 C 0.0494 0.71306 0.39873 0.0
C2472 C 0.11306 0.7722 0.48488 0.0
C2473 C 0.10523 0.76739 0.47065 0.0
C2474 C 0.07543 0.74147 0.45795 0.0
C2475 C 0.06401 0.73214 0.4121 0.0
C2476 C 0.07202 0.73876 0.42694 0.0
C2477 C 0.09609 0.75513 0.47045 0.0
C2478 C 0.08772 0.74991 0.45541 0.0
H2479 H 0.05734 0.73667 0.37088 0.0
H2480 H 0.06982 0.74803 0.39584 0.0
H2481 H 0.05829 0.7294 0.44631 0.0
H2482 H 0.10154 0.74668 0.50982 0.0
H2483 H 0.08822 0.73826 0.48492 0.0
C2484 C 0.34527 0.06165 0.72414 0.0
C2485 C 0.33614 0.05278 0.71361 0.0
C2486 C 0.3423 0.06659 0.7381 0.0
C2487 C 0.3203 0.0746 0.75201 0.0
H2488 H 0.33305 0.07598 0.79818 0.0
C2489 C 0.32565 0.10899 0.80528 0.0
C2490 C 0.32146 0.10417 0.82176 0.0
C2491 C 0.32555 0.10151 0.79201 0.0
C2492 C 0.32935 0.07556 0.78538 0.0
H2493 H 0.31674 0.04212 0.70946 0.0
H2494 H 0.31158 0.05107 0.73365 0.0
H2495 H 0.33688 0.06496 0.7754 0.0
H2496 H 0.31372 0.08783 0.83731 0.0
H2497 H 0.31385 0.07476 0.81413 0.0
H2498 H 0.31325 0.08567 0.76181 0.0
C2499 C 0.32101 0.05402 0.73117 0.0
C2500 C 0.33159 0.06933 0.77238 0.0
C2501 C 0.32396 0.04887 0.71743 0.0
C2502 C 0.31688 0.0917 0.82464 0.0
C2503 C 0.31703 0.08427 0.81147 0.0
C2504 C 0.31828 0.08105 0.76493 0.0
C2505 C 0.33016 0.06295 0.74156 0.0
C2506 C 0.32714 0.06886 0.75557 0.0
C2507 C 0.32152 0.08915 0.79512 0.0
C2508 C 0.32285 0.08164 0.7817 0.0
H2509 H 0.35472 0.06483 0.72151 0.0
H2510 H 0.3495 0.07352 0.74589 0.0
H2511 H 0.31685 0.07441 0.73909 0.0
H2512 H 0.32924 0.11859 0.80281 0.0
H2513 H 0.32913 0.10548 0.77953 0.0
C2514 C 0.93985 0.27514 0.70946 0.0
C2515 C 0.95254 0.28136 0.70976 0.0
C2516 C 0.93337 0.26737 0.72302 0.0
C2517 C 0.93652 0.24949 0.75816 0.0
H2518 H 0.90863 0.24965 0.7776 0.0
C2519 C 0.91492 0.22384 0.82084 0.0
C2520 C 0.90235 0.21852 0.82281 0.0
C2521 C 0.92064 0.23127 0.80669 0.0
C2522 C 0.91626 0.24931 0.77213 0.0
H2523 H 0.96845 0.28538 0.72499 0.0
H2524 H 0.95719 0.27168 0.74864 0.0
H2525 H 0.91933 0.26318 0.75362 0.0
H2526 H 0.88587 0.21665 0.81144 0.0
H2527 H 0.89581 0.22933 0.78632 0.0
H2528 H 0.93341 0.2355 0.77625 0.0
C2529 C 0.95222 0.27247 0.73772 0.0
C2530 C 0.92242 0.25712 0.75843 0.0
C2531 C 0.95867 0.28024 0.72419 0.0
C2532 C 0.89559 0.2207 0.81025 0.0
C2533 C 0.90131 0.22802 0.79593 0.0
C2534 C 0.93028 0.24157 0.77164 0.0
C2535 C 0.9395 0.26586 0.73722 0.0
C2536 C 0.93269 0.25736 0.75141 0.0
C2537 C 0.91393 0.23345 0.794 0.0
C2538 C 0.92016 0.24147 0.77898 0.0
H2539 H 0.93496 0.27611 0.69859 0.0
H2540 H 0.92359 0.2624 0.72227 0.0
H2541 H 0.94432 0.24939 0.75293 0.0
H2542 H 0.92039 0.22251 0.8305 0.0
H2543 H 0.9304 0.23551 0.80592 0.0
C2544 C 0.71441 0.67122 0.72756 0.0
C2545 C 0.71414 0.66484 0.71269 0.0
C2546 C 0.72172 0.67199 0.74161 0.0
C2547 C 0.74886 0.66964 0.75236 0.0
H2548 H 0.73895 0.66999 0.79941 0.0
C2549 C 0.76607 0.67033 0.82722 0.0
C2550 C 0.77825 0.67946 0.82598 0.0
C2551 C 0.75814 0.66769 0.81323 0.0
C2552 C 0.74183 0.6698 0.78636 0.0
H2553 H 0.72026 0.65331 0.7012 0.0
H2554 H 0.73316 0.65464 0.72579 0.0
H2555 H 0.72482 0.66631 0.77573 0.0
H2556 H 0.79171 0.69275 0.80885 0.0
H2557 H 0.77778 0.68832 0.78452 0.0
H2558 H 0.76584 0.67298 0.76306 0.0
C2559 C 0.72803 0.65937 0.72644 0.0
C2560 C 0.73377 0.66782 0.77277 0.0
C2561 C 0.72064 0.65856 0.71242 0.0
C2562 C 0.78236 0.68574 0.81029 0.0
C2563 C 0.7744 0.68311 0.79628 0.0
C2564 C 0.75694 0.67162 0.76598 0.0
C2565 C 0.72881 0.66627 0.7411 0.0
C2566 C 0.7372 0.6678 0.75559 0.0
C2567 C 0.76217 0.67414 0.79766 0.0
C2568 C 0.75354 0.67176 0.78314 0.0
H2569 H 0.70911 0.67579 0.72819 0.0
H2570 H 0.72213 0.67741 0.75262 0.0
H2571 H 0.75185 0.66979 0.73928 0.0
H2572 H 0.76254 0.66541 0.83917 0.0
H2573 H 0.74882 0.66061 0.81466 0.0
C2574 C 0.72884 0.67688 0.62934 0.0
C2575 C 0.71852 0.6678 0.63762 0.0
C2576 C 0.73408 0.67397 0.61574 0.0
C2577 C 0.72825 0.64968 0.58397 0.0
H2578 H 0.76326 0.66705 0.58084 0.0
C2579 C 0.75458 0.63634 0.53623 0.0
C2580 C 0.76344 0.64596 0.52643 0.0
C2581 C 0.74912 0.63866 0.55018 0.0
C2582 C 0.75347 0.66216 0.58152 0.0
H2583 H 0.70558 0.6485 0.63798 0.0
H2584 H 0.71488 0.64337 0.61455 0.0
H2585 H 0.75352 0.6717 0.60422 0.0
H2586 H 0.77341 0.6656 0.52375 0.0
H2587 H 0.76414 0.6696 0.54834 0.0
H2588 H 0.72831 0.64001 0.56135 0.0
C2589 C 0.71879 0.65281 0.61831 0.0
C2590 C 0.74787 0.66486 0.59486 0.0
C2591 C 0.71347 0.65574 0.6318 0.0
C2592 C 0.76684 0.65796 0.53117 0.0
C2593 C 0.76148 0.66027 0.54523 0.0
C2594 C 0.73388 0.64689 0.57073 0.0
C2595 C 0.72923 0.66187 0.61019 0.0
C2596 C 0.73517 0.65875 0.59617 0.0
C2597 C 0.75249 0.65065 0.55478 0.0
C2598 C 0.74654 0.65318 0.56929 0.0
H2599 H 0.73292 0.68628 0.63339 0.0
H2600 H 0.74194 0.68124 0.60957 0.0
H2601 H 0.71846 0.64489 0.58441 0.0
H2602 H 0.75186 0.627 0.53315 0.0
H2603 H 0.74231 0.63108 0.55746 0.0
C2604 C 0.33958 0.05043 0.62338 0.0
C2605 C 0.33322 0.0501 0.63821 0.0
C2606 C 0.34025 0.05774 0.60941 0.0
C2607 C 0.3356 0.06932 0.57825 0.0
H2608 H 0.34026 0.10144 0.58761 0.0
C2609 C 0.33707 0.10064 0.52323 0.0
C2610 C 0.3459 0.11299 0.52434 0.0
C2611 C 0.33466 0.09293 0.53738 0.0
C2612 C 0.33903 0.09253 0.58478 0.0
H2613 H 0.32167 0.05614 0.64974 0.0
H2614 H 0.32282 0.06902 0.62525 0.0
H2615 H 0.33764 0.08778 0.61155 0.0
H2616 H 0.35887 0.12697 0.54147 0.0
H2617 H 0.35492 0.11342 0.56603 0.0
H2618 H 0.3374 0.07417 0.55156 0.0
C2619 C 0.32761 0.06395 0.62458 0.0
C2620 C 0.33739 0.08464 0.5985 0.0
C2621 C 0.3269 0.05656 0.63854 0.0
C2622 C 0.35211 0.11748 0.5401 0.0
C2623 C 0.34974 0.10974 0.55425 0.0
C2624 C 0.33728 0.0772 0.56457 0.0
C2625 C 0.33444 0.06473 0.60994 0.0
C2626 C 0.3357 0.07296 0.59539 0.0
C2627 C 0.34108 0.09734 0.55299 0.0
C2628 C 0.33904 0.08891 0.56765 0.0
H2629 H 0.34418 0.04517 0.62269 0.0
H2630 H 0.34564 0.05816 0.59842 0.0
H2631 H 0.3342 0.06035 0.57537 0.0
H2632 H 0.33221 0.0968 0.51126 0.0
H2633 H 0.3278 0.08348 0.53603 0.0
C2634 C 0.94667 0.28651 0.62626 0.0
C2635 C 0.95046 0.27928 0.63532 0.0
C2636 C 0.9386 0.28173 0.6123 0.0
C2637 C 0.91549 0.25263 0.59328 0.0
H2638 H 0.92104 0.27156 0.55146 0.0
C2639 C 0.89926 0.24459 0.51765 0.0
C2640 C 0.88667 0.23734 0.51939 0.0
C2641 C 0.90663 0.25018 0.53203 0.0
C2642 C 0.91938 0.26615 0.56304 0.0
H2643 H 0.94871 0.26133 0.63664 0.0
H2644 H 0.93476 0.25309 0.61228 0.0
H2645 H 0.93486 0.2803 0.57601 0.0
H2646 H 0.87191 0.23036 0.53761 0.0
H2647 H 0.8848 0.24021 0.5628 0.0
H2648 H 0.90017 0.23838 0.58018 0.0
C2649 C 0.93793 0.26241 0.6161 0.0
C2650 C 0.92723 0.2712 0.57716 0.0
C2651 C 0.94602 0.26719 0.63 0.0
C2652 C 0.88158 0.23593 0.53584 0.0
C2653 C 0.88897 0.24149 0.55027 0.0
C2654 C 0.90761 0.2476 0.57919 0.0
C2655 C 0.93409 0.26961 0.60713 0.0
C2656 C 0.92545 0.26445 0.59238 0.0
C2657 C 0.90158 0.24864 0.54852 0.0
C2658 C 0.90954 0.25425 0.56384 0.0
H2659 H 0.94987 0.29585 0.62999 0.0
H2660 H 0.93574 0.28748 0.60573 0.0
H2661 H 0.91378 0.24725 0.6049 0.0
H2662 H 0.90345 0.246 0.50512 0.0
H2663 H 0.91631 0.25553 0.53025 0.0
C2664 C 0.34435 0.29418 0.6217 0.0
C2665 C 0.33852 0.2887 0.63712 0.0
C2666 C 0.34524 0.28719 0.6085 0.0
C2667 C 0.33305 0.2552 0.5934 0.0
H2668 H 0.36302 0.26958 0.56785 0.0
C2669 C 0.3406 0.23359 0.53221 0.0
C2670 C 0.35212 0.2348 0.53001 0.0
C2671 C 0.33837 0.23925 0.54604 0.0
C2672 C 0.35465 0.26537 0.575 0.0
H2673 H 0.32831 0.27166 0.6506 0.0
H2674 H 0.33033 0.25941 0.62796 0.0
H2675 H 0.36 0.28143 0.58967 0.0
H2676 H 0.3701 0.24228 0.5412 0.0
H2677 H 0.36621 0.25214 0.56534 0.0
H2678 H 0.32775 0.23909 0.5785 0.0
C2679 C 0.33412 0.26907 0.62582 0.0
C2680 C 0.35285 0.27222 0.58745 0.0
C2681 C 0.33305 0.27606 0.63888 0.0
C2682 C 0.3612 0.24135 0.54237 0.0
C2683 C 0.35897 0.24701 0.55618 0.0
C2684 C 0.33483 0.24834 0.58085 0.0
C2685 C 0.34035 0.27456 0.61051 0.0
C2686 C 0.34206 0.26724 0.59692 0.0
C2687 C 0.34762 0.24626 0.55795 0.0
C2688 C 0.34569 0.25334 0.57156 0.0
H2689 H 0.34825 0.30389 0.61987 0.0
H2690 H 0.3498 0.29173 0.59675 0.0
H2691 H 0.32453 0.25109 0.60018 0.0
H2692 H 0.33345 0.22873 0.52281 0.0
H2693 H 0.32956 0.23858 0.54695 0.0
C2694 C 0.71521 0.05191 0.63066 0.0
C2695 C 0.72221 0.04963 0.64272 0.0
C2696 C 0.72065 0.05939 0.61634 0.0
C2697 C 0.74976 0.08418 0.60153 0.0
H2698 H 0.73713 0.07348 0.55529 0.0
C2699 C 0.7776 0.10806 0.54118 0.0
C2700 C 0.77156 0.10861 0.52617 0.0
C2701 C 0.77109 0.10146 0.55556 0.0
C2702 C 0.74067 0.07674 0.56813 0.0
H2703 H 0.74046 0.05343 0.64904 0.0
H2704 H 0.74986 0.06652 0.62432 0.0
H2705 H 0.72644 0.0608 0.57999 0.0
H2706 H 0.75383 0.10271 0.51476 0.0
H2707 H 0.74254 0.09168 0.54006 0.0
H2708 H 0.7639 0.10015 0.58986 0.0
C2709 C 0.74018 0.06254 0.62595 0.0
C2710 C 0.73455 0.06943 0.58226 0.0
C2711 C 0.73475 0.05497 0.64008 0.0
C2712 C 0.75883 0.10263 0.52612 0.0
C2713 C 0.75232 0.09612 0.54058 0.0
C2714 C 0.7558 0.09155 0.58745 0.0
C2715 C 0.73321 0.06487 0.61397 0.0
C2716 C 0.73914 0.07299 0.59907 0.0
C2717 C 0.75836 0.09532 0.55543 0.0
C2718 C 0.75145 0.08785 0.57052 0.0
H2719 H 0.70553 0.04794 0.63226 0.0
H2720 H 0.71507 0.06106 0.6073 0.0
H2721 H 0.7534 0.08723 0.6144 0.0
H2722 H 0.78738 0.11267 0.5418 0.0
H2723 H 0.77608 0.10094 0.56665 0.0
C2724 C 0.94455 0.67866 0.64101 0.0
C2725 C 0.95174 0.67314 0.63967 0.0
C2726 C 0.93713 0.67813 0.62717 0.0
C2727 C 0.9165 0.66714 0.60048 0.0
H2728 H 0.92811 0.6726 0.55339 0.0
C2729 C 0.88551 0.64887 0.54006 0.0
C2730 C 0.88817 0.65689 0.5261 0.0
C2731 C 0.89319 0.65224 0.55448 0.0
C2732 C 0.92477 0.67114 0.56649 0.0
H2733 H 0.95785 0.66382 0.62261 0.0
H2734 H 0.94496 0.66292 0.59836 0.0
H2735 H 0.94225 0.67639 0.57729 0.0
H2736 H 0.90083 0.67476 0.51631 0.0
H2737 H 0.91437 0.6806 0.54147 0.0
H2738 H 0.89893 0.66155 0.5896 0.0
C2739 C 0.94483 0.66746 0.61011 0.0
C2740 C 0.93283 0.67323 0.58014 0.0
C2741 C 0.95208 0.66783 0.62401 0.0
C2742 C 0.89852 0.66844 0.52697 0.0
C2743 C 0.9063 0.67175 0.54127 0.0
C2744 C 0.90839 0.66486 0.5868 0.0
C2745 C 0.93711 0.67241 0.61164 0.0
C2746 C 0.92876 0.67112 0.59727 0.0
C2747 C 0.90377 0.66363 0.55509 0.0
C2748 C 0.91243 0.66675 0.56968 0.0
H2749 H 0.9444 0.68304 0.65291 0.0
H2750 H 0.93139 0.68216 0.62862 0.0
H2751 H 0.9131 0.66544 0.61353 0.0
H2752 H 0.87756 0.63993 0.53973 0.0
H2753 H 0.89108 0.64579 0.56491 0.0
C2754 C 0.95214 0.67886 0.7209 0.0
C2755 C 0.94776 0.66696 0.71475 0.0
C2756 C 0.94667 0.68108 0.73492 0.0
C2757 C 0.92828 0.66721 0.77311 0.0
H2758 H 0.91876 0.69183 0.76772 0.0
C2759 C 0.90024 0.6745 0.82503 0.0
C2760 C 0.90295 0.6865 0.82847 0.0
C2761 C 0.90528 0.67189 0.81086 0.0
C2762 C 0.9215 0.68505 0.76959 0.0
H2763 H 0.93442 0.64803 0.71887 0.0
H2764 H 0.92505 0.65193 0.74361 0.0
H2765 H 0.92897 0.68793 0.74421 0.0
H2766 H 0.91285 0.70508 0.81919 0.0
H2767 H 0.92207 0.70063 0.79509 0.0
H2768 H 0.92118 0.66452 0.79863 0.0
C2769 C 0.93266 0.65952 0.73745 0.0
C2770 C 0.92732 0.68279 0.75607 0.0
C2771 C 0.93801 0.6573 0.72326 0.0
C2772 C 0.91069 0.69576 0.81716 0.0
C2773 C 0.91585 0.69317 0.80313 0.0
C2774 C 0.92262 0.66957 0.78675 0.0
C2775 C 0.93683 0.67144 0.74325 0.0
C2776 C 0.93075 0.67385 0.75769 0.0
C2777 C 0.91329 0.68121 0.79983 0.0
C2778 C 0.91914 0.67853 0.78518 0.0
H2779 H 0.9596 0.68651 0.71461 0.0
H2780 H 0.95012 0.69035 0.73924 0.0
H2781 H 0.93093 0.66033 0.77473 0.0
H2782 H 0.89444 0.66713 0.83352 0.0
H2783 H 0.90291 0.66253 0.80859 0.0
C2784 C 0.35056 0.28698 0.71853 0.0
C2785 C 0.34202 0.29 0.71193 0.0
C2786 C 0.34787 0.27934 0.73283 0.0
C2787 C 0.32719 0.26685 0.76993 0.0
H2788 H 0.33683 0.24215 0.7693 0.0
C2789 C 0.31092 0.2288 0.82105 0.0
C2790 C 0.31965 0.22613 0.82786 0.0
C2791 C 0.31352 0.23641 0.80672 0.0
C2792 C 0.33418 0.24907 0.76975 0.0
H2793 H 0.32396 0.2874 0.71545 0.0
H2794 H 0.31925 0.27399 0.74028 0.0
H2795 H 0.34175 0.25604 0.74496 0.0
H2796 H 0.33785 0.22912 0.82467 0.0
H2797 H 0.34245 0.24251 0.79975 0.0
H2798 H 0.31959 0.25984 0.79471 0.0
C2799 C 0.32809 0.27766 0.73449 0.0
C2800 C 0.33701 0.25705 0.75581 0.0
C2801 C 0.33078 0.28532 0.72019 0.0
C2802 C 0.33097 0.23108 0.81982 0.0
C2803 C 0.33356 0.23866 0.80545 0.0
C2804 C 0.32434 0.25885 0.78385 0.0
C2805 C 0.33657 0.2745 0.74089 0.0
C2806 C 0.33357 0.26605 0.75575 0.0
C2807 C 0.3249 0.2415 0.79883 0.0
C2808 C 0.32781 0.24988 0.78393 0.0
H2809 H 0.35932 0.29043 0.71255 0.0
H2810 H 0.35468 0.27724 0.7376 0.0
H2811 H 0.32456 0.27378 0.77041 0.0
H2812 H 0.30215 0.22523 0.82705 0.0
H2813 H 0.30661 0.23831 0.8018 0.0
C2814 C 0.72362 0.06328 0.71609 0.0
C2815 C 0.71658 0.0506 0.7171 0.0
C2816 C 0.73076 0.06992 0.73019 0.0
C2817 C 0.7345 0.06827 0.77733 0.0
H2818 H 0.76816 0.09165 0.76885 0.0
C2819 C 0.76966 0.08631 0.83232 0.0
C2820 C 0.77881 0.09856 0.83203 0.0
C2821 C 0.7619 0.08114 0.81819 0.0
C2822 C 0.75874 0.08529 0.77145 0.0
H2823 H 0.71041 0.03497 0.73387 0.0
H2824 H 0.72287 0.0465 0.75851 0.0
H2825 H 0.75447 0.08168 0.74456 0.0
H2826 H 0.787 0.11494 0.81646 0.0
H2827 H 0.7732 0.10599 0.79196 0.0
H2828 H 0.73867 0.07191 0.80418 0.0
C2829 C 0.72309 0.05135 0.74684 0.0
C2830 C 0.75091 0.07956 0.75751 0.0
C2831 C 0.71609 0.04473 0.7327 0.0
C2832 C 0.77999 0.10551 0.8172 0.0
C2833 C 0.77216 0.10034 0.80306 0.0
C2834 C 0.74229 0.07407 0.79125 0.0
C2835 C 0.73068 0.064 0.74564 0.0
C2836 C 0.73875 0.07083 0.76032 0.0
C2837 C 0.76298 0.08809 0.80342 0.0
C2838 C 0.75456 0.08251 0.78851 0.0
H2839 H 0.72385 0.06798 0.70425 0.0
H2840 H 0.73636 0.07968 0.72899 0.0
H2841 H 0.72512 0.06174 0.7799 0.0
H2842 H 0.76834 0.08072 0.8436 0.0
H2843 H 0.75507 0.07164 0.81884 0.0
C2844 C 0.02326 0.34607 0.02999 0.0
C2845 C 0.02846 0.35636 0.01923 0.0
C2846 C 0.0303 0.34125 0.03664 0.0
C2847 C 0.05881 0.34074 0.03009 0.0
H2848 H 0.05779 0.3353 0.07947 0.0
C2849 C 0.09751 0.33947 0.06774 0.0
C2850 C 0.09481 0.33219 0.08259 0.0
C2851 C 0.08837 0.34027 0.05863 0.0
C2852 C 0.05804 0.33651 0.06561 0.0
H2853 H 0.04505 0.36941 0.00662 0.0
H2854 H 0.05722 0.36099 0.01817 0.0
H2855 H 0.04353 0.34054 0.06611 0.0
H2856 H 0.08021 0.3196 0.09903 0.0
H2857 H 0.06427 0.32066 0.0828 0.0
H2858 H 0.0734 0.33685 0.02957 0.0
C2859 C 0.04772 0.35664 0.02144 0.0
C2860 C 0.04987 0.33954 0.05797 0.0
C2861 C 0.04076 0.36153 0.01495 0.0
C2862 C 0.08265 0.32523 0.08758 0.0
C2863 C 0.0735 0.32597 0.07841 0.0
C2864 C 0.06692 0.33761 0.03771 0.0
C2865 C 0.04261 0.34652 0.03247 0.0
C2866 C 0.05034 0.34194 0.04019 0.0
C2867 C 0.07628 0.33374 0.06409 0.0
C2868 C 0.06681 0.33572 0.05562 0.0
H2869 H 0.01382 0.34186 0.03351 0.0
H2870 H 0.02611 0.33341 0.04505 0.0
H2871 H 0.05926 0.34237 0.01631 0.0
H2872 H 0.10675 0.34481 0.06337 0.0
H2873 H 0.09089 0.34642 0.04775 0.0
C2874 C 0.64957 0.68156 0.01587 0.0
C2875 C 0.65292 0.67435 0.02583 0.0
C2876 C 0.65348 0.69362 0.02055 0.0
C2877 C 0.67686 0.71914 0.04591 0.0
H2878 H 0.65321 0.72997 0.049 0.0
C2879 C 0.68601 0.7609 0.08572 0.0
C2880 C 0.68162 0.76855 0.07984 0.0
C2881 C 0.68292 0.75006 0.07719 0.0
C2882 C 0.65999 0.72718 0.04792 0.0
H2883 H 0.66319 0.6742 0.04828 0.0
H2884 H 0.67009 0.69522 0.05633 0.0
H2885 H 0.64718 0.70984 0.03738 0.0
H2886 H 0.67054 0.77078 0.0603 0.0
H2887 H 0.66518 0.75179 0.04521 0.0
H2888 H 0.68966 0.73638 0.05649 0.0
C2889 C 0.66446 0.69158 0.0449 0.0
C2890 C 0.65652 0.71564 0.04129 0.0
C2891 C 0.66045 0.67951 0.04034 0.0
C2892 C 0.67403 0.76506 0.06518 0.0
C2893 C 0.67095 0.75418 0.05657 0.0
C2894 C 0.68035 0.73069 0.05241 0.0
C2895 C 0.66095 0.69874 0.03514 0.0
C2896 C 0.66486 0.7114 0.04057 0.0
C2897 C 0.67536 0.74654 0.0625 0.0
C2898 C 0.6719 0.73476 0.05387 0.0
H2899 H 0.64376 0.67783 0.00462 0.0
H2900 H 0.6507 0.69895 0.01273 0.0
H2901 H 0.68354 0.71621 0.04522 0.0
H2902 H 0.69163 0.76315 0.09722 0.0
H2903 H 0.68624 0.74429 0.08242 0.0
C2904 C 0.32177 0.98371 0.03673 0.0
C2905 C 0.32635 0.98148 0.02161 0.0
C2906 C 0.31011 0.97549 0.0423 0.0
C2907 C 0.28089 0.94865 0.02891 0.0
H2908 H 0.2779 0.94228 0.07813 0.0
C2909 C 0.24081 0.90639 0.06074 0.0
C2910 C 0.23672 0.90813 0.07671 0.0
C2911 C 0.25085 0.91597 0.05277 0.0
C2912 C 0.27851 0.94406 0.06438 0.0
H2913 H 0.32216 0.96906 0.00015 0.0
H2914 H 0.3019 0.95455 0.01007 0.0
H2915 H 0.29704 0.95781 0.06659 0.0
H2916 H 0.23981 0.92145 0.09653 0.0
H2917 H 0.25711 0.93811 0.08251 0.0
H2918 H 0.26234 0.93457 0.02679 0.0
C2919 C 0.30723 0.96275 0.0175 0.0
C2920 C 0.28951 0.953 0.05774 0.0
C2921 C 0.31887 0.97104 0.01185 0.0
C2922 C 0.2426 0.91979 0.08415 0.0
C2923 C 0.25263 0.92932 0.07622 0.0
C2924 C 0.26987 0.93962 0.03557 0.0
C2925 C 0.30278 0.96476 0.03298 0.0
C2926 C 0.29086 0.95543 0.03992 0.0
C2927 C 0.25706 0.92746 0.06066 0.0
C2928 C 0.26857 0.93724 0.0534 0.0
H2929 H 0.32727 0.99173 0.04445 0.0
H2930 H 0.3069 0.97749 0.05406 0.0
H2931 H 0.28156 0.95035 0.01514 0.0
H2932 H 0.23642 0.89755 0.05459 0.0
H2933 H 0.25406 0.91423 0.0408 0.0
C2934 C 0.34942 0.02993 0.98297 0.0
C2935 C 0.35988 0.03432 0.99337 0.0
C2936 C 0.34573 0.0379 0.97626 0.0
C2937 C 0.35784 0.07054 0.96644 0.0
H2938 H 0.32402 0.0617 0.96268 0.0
C2939 C 0.34358 0.10524 0.94503 0.0
C2940 C 0.33456 0.10132 0.93214 0.0
C2941 C 0.34591 0.0969 0.95375 0.0
C2942 C 0.3335 0.06426 0.96358 0.0
H2943 H 0.3744 0.05052 0.00538 0.0
H2944 H 0.36787 0.06425 0.99402 0.0
H2945 H 0.32955 0.04733 0.97526 0.0
H2946 H 0.32071 0.08546 0.91864 0.0
H2947 H 0.32469 0.07094 0.93401 0.0
H2948 H 0.3618 0.08745 0.95479 0.0
C2949 C 0.36268 0.05472 0.99062 0.0
C2950 C 0.33667 0.05602 0.97073 0.0
C2951 C 0.36639 0.04681 0.99721 0.0
C2952 C 0.3276 0.0888 0.92867 0.0
C2953 C 0.3299 0.08046 0.93745 0.0
C2954 C 0.35468 0.07878 0.9594 0.0
C2955 C 0.3524 0.05042 0.97988 0.0
C2956 C 0.34889 0.05907 0.97225 0.0
C2957 C 0.33924 0.08445 0.94983 0.0
C2958 C 0.34249 0.07575 0.95789 0.0
H2959 H 0.34419 0.02037 0.97976 0.0
H2960 H 0.33782 0.03429 0.96791 0.0
H2961 H 0.36732 0.07311 0.96705 0.0
H2962 H 0.34896 0.11479 0.94823 0.0
H2963 H 0.35303 0.10023 0.96345 0.0
C2964 C 0.97882 0.3213 0.97635 0.0
C2965 C 0.97639 0.32636 0.99082 0.0
C2966 C 0.97085 0.30933 0.97142 0.0
C2967 C 0.93915 0.28578 0.97332 0.0
H2968 H 0.95144 0.26457 0.95924 0.0
C2969 C 0.90769 0.23691 0.94764 0.0
C2970 C 0.91203 0.2334 0.93342 0.0
C2971 C 0.9153 0.24764 0.95665 0.0
C2972 C 0.94785 0.2704 0.96299 0.0
H2973 H 0.96374 0.32285 0.01155 0.0
H2974 H 0.94968 0.30191 0.00274 0.0
H2975 H 0.96528 0.2845 0.97129 0.0
H2976 H 0.92762 0.23858 0.91717 0.0
H2977 H 0.94076 0.25722 0.93261 0.0
H2978 H 0.92178 0.27188 0.96446 0.0
C2979 C 0.95779 0.30723 0.99528 0.0
C2980 C 0.95579 0.2818 0.96995 0.0
C2981 C 0.96585 0.31918 0.00035 0.0
C2982 C 0.92408 0.24087 0.92832 0.0
C2983 C 0.93163 0.25157 0.93722 0.0
C2984 C 0.9312 0.2744 0.96621 0.0
C2985 C 0.96021 0.30221 0.98074 0.0
C2986 C 0.95157 0.28969 0.9749 0.0
C2987 C 0.92737 0.25509 0.95153 0.0
C2988 C 0.93551 0.26667 0.96065 0.0
H2989 H 0.98686 0.3266 0.96875 0.0
H2990 H 0.97288 0.30575 0.96005 0.0
H2991 H 0.93566 0.29173 0.97693 0.0
H2992 H 0.89846 0.2313 0.95191 0.0
H2993 H 0.91175 0.25003 0.96769 0.0
C2994 C 0.68129 0.63782 0.0022 0.0
C2995 C 0.67411 0.64311 0.99805 0.0
C2996 C 0.69293 0.64255 0.99555 0.0
C2997 C 0.71764 0.67002 0.97473 0.0
H2998 H 0.7284 0.64754 0.96068 0.0
C2999 C 0.7594 0.68385 0.93199 0.0
C3000 C 0.7672 0.67929 0.93632 0.0
C3001 C 0.74851 0.67987 0.94066 0.0
C3002 C 0.72559 0.65393 0.96475 0.0
H3003 H 0.67361 0.65761 0.98365 0.0
H3004 H 0.69381 0.66569 0.97169 0.0
H3005 H 0.70841 0.63974 0.97317 0.0
H3006 H 0.76966 0.66708 0.95355 0.0
H3007 H 0.75047 0.65995 0.96848 0.0
H3008 H 0.73476 0.68418 0.96584 0.0
C3009 C 0.69053 0.65801 0.98038 0.0
C3010 C 0.71412 0.64948 0.97193 0.0
C3011 C 0.6789 0.65333 0.98716 0.0
C3012 C 0.76383 0.67068 0.9497 0.0
C3013 C 0.75285 0.66661 0.95828 0.0
C3014 C 0.72907 0.67446 0.96741 0.0
C3015 C 0.69768 0.65265 0.98444 0.0
C3016 C 0.70998 0.65745 0.97699 0.0
C3017 C 0.74506 0.67113 0.95379 0.0
C3018 C 0.73315 0.66647 0.96229 0.0
H3019 H 0.67797 0.63003 0.01071 0.0
H3020 H 0.69824 0.63833 0.99926 0.0
H3021 H 0.71486 0.67645 0.97875 0.0
H3022 H 0.76151 0.69026 0.92151 0.0
H3023 H 0.74261 0.68338 0.93671 0.0
C3024 C 0.96692 0.64958 0.00124 0.0
C3025 C 0.9781 0.65435 0.99287 0.0
C3026 C 0.95863 0.65336 0.99652 0.0
C3027 C 0.95614 0.67832 0.97694 0.0
H3028 H 0.9238 0.65387 0.96295 0.0
C3029 C 0.92483 0.69073 0.93842 0.0
C3030 C 0.91224 0.68367 0.94026 0.0
C3031 C 0.93256 0.68745 0.94682 0.0
C3032 C 0.93269 0.66084 0.96715 0.0
H3033 H 0.98952 0.66701 0.97329 0.0
H3034 H 0.97515 0.67382 0.96534 0.0
H3035 H 0.9379 0.64764 0.97423 0.0
H3036 H 0.89786 0.66788 0.95276 0.0
H3037 H 0.91139 0.66235 0.96804 0.0
H3038 H 0.95099 0.69155 0.97023 0.0
C3039 C 0.97277 0.6671 0.97545 0.0
C3040 C 0.94078 0.65724 0.97353 0.0
C3041 C 0.98096 0.66315 0.97994 0.0
C3042 C 0.90754 0.67343 0.95106 0.0
C3043 C 0.91531 0.67024 0.9597 0.0
C3044 C 0.948 0.68193 0.97086 0.0
C3045 C 0.96149 0.66215 0.98358 0.0
C3046 C 0.95264 0.66595 0.97818 0.0
C3047 C 0.92793 0.6771 0.95749 0.0
C3048 C 0.93623 0.67324 0.96553 0.0
H3049 H 0.96447 0.64276 0.01123 0.0
H3050 H 0.95 0.64944 0.00301 0.0
H3051 H 0.9652 0.68521 0.98066 0.0
H3052 H 0.92869 0.69854 0.92993 0.0
H3053 H 0.94217 0.69282 0.94443 0.0
C3054 C 0.36711 0.32852 0.99015 0.0
C3055 C 0.35968 0.3333 0.99512 0.0
C3056 C 0.36208 0.31686 0.98318 0.0
C3057 C 0.33447 0.28729 0.98196 0.0
H3058 H 0.34867 0.2822 0.941 0.0
C3059 C 0.31373 0.24089 0.94637 0.0
C3060 C 0.32175 0.23769 0.93865 0.0
C3061 C 0.31803 0.25236 0.95386 0.0
C3062 C 0.3447 0.28339 0.9526 0.0
H3063 H 0.34108 0.32948 0.99673 0.0
H3064 H 0.33229 0.30899 0.98465 0.0
H3065 H 0.35669 0.30261 0.95253 0.0
H3066 H 0.34069 0.24408 0.93327 0.0
H3067 H 0.34818 0.26367 0.94701 0.0
H3068 H 0.32264 0.26802 0.98227 0.0
C3069 C 0.34202 0.31435 0.98616 0.0
C3070 C 0.34926 0.29512 0.95914 0.0
C3071 C 0.34707 0.32611 0.99295 0.0
C3072 C 0.33421 0.24609 0.93924 0.0
C3073 C 0.33852 0.25747 0.94687 0.0
C3074 C 0.32996 0.2755 0.97551 0.0
C3075 C 0.34949 0.30963 0.98117 0.0
C3076 C 0.34425 0.29719 0.97393 0.0
C3077 C 0.33048 0.26087 0.95393 0.0
C3078 C 0.33508 0.27339 0.96081 0.0
H3079 H 0.37685 0.33379 0.99162 0.0
H3080 H 0.36804 0.31341 0.9796 0.0
H3081 H 0.33051 0.28861 0.99348 0.0
H3082 H 0.30409 0.23461 0.94639 0.0
H3083 H 0.31156 0.25465 0.95911 0.0
C3084 C 0.67711 0.02861 0.97718 0.0
C3085 C 0.67403 0.02643 0.9947 0.0
C3086 C 0.68851 0.03786 0.9723 0.0
C3087 C 0.71982 0.05532 0.98502 0.0
H3088 H 0.72104 0.07927 0.95246 0.0
C3089 C 0.76535 0.09365 0.9586 0.0
C3090 C 0.76542 0.09654 0.94105 0.0
C3091 C 0.75441 0.08616 0.96696 0.0
C3092 C 0.72089 0.0726 0.96139 0.0
H3093 H 0.68056 0.03198 0.02088 0.0
H3094 H 0.70077 0.048 0.01226 0.0
H3095 H 0.70159 0.0637 0.96341 0.0
H3096 H 0.75414 0.09367 0.91843 0.0
H3097 H 0.73523 0.08044 0.9327 0.0
H3098 H 0.73903 0.06374 0.98236 0.0
C3099 C 0.69424 0.04261 0.00238 0.0
C3100 C 0.70975 0.06374 0.96774 0.0
C3101 C 0.6827 0.03349 0.00728 0.0
C3102 C 0.75436 0.09184 0.93207 0.0
C3103 C 0.74349 0.08426 0.94032 0.0
C3104 C 0.73099 0.06407 0.97842 0.0
C3105 C 0.69715 0.04497 0.98484 0.0
C3106 C 0.70909 0.05492 0.97939 0.0
C3107 C 0.74333 0.08126 0.95787 0.0
C3108 C 0.73165 0.07269 0.96626 0.0
H3109 H 0.67061 0.02335 0.96719 0.0
H3110 H 0.69061 0.03946 0.95869 0.0
H3111 H 0.71951 0.04856 0.99396 0.0
H3112 H 0.77376 0.09718 0.96584 0.0
H3113 H 0.75466 0.08419 0.98053 0.0
C3114 C 0.64007 0.95977 0.02006 0.0
C3115 C 0.64608 0.97249 0.02175 0.0
C3116 C 0.64531 0.95306 0.02637 0.0
C3117 C 0.66763 0.95436 0.05814 0.0
H3118 H 0.66453 0.92666 0.0326 0.0
C3119 C 0.68859 0.92583 0.08339 0.0
C3120 C 0.68117 0.91314 0.08246 0.0
C3121 C 0.68539 0.93352 0.07461 0.0
C3122 C 0.66541 0.93432 0.03994 0.0
H3123 H 0.66245 0.98813 0.03131 0.0
H3124 H 0.67162 0.97639 0.04231 0.0
H3125 H 0.65698 0.93937 0.01994 0.0
H3126 H 0.66481 0.8986 0.07098 0.0
H3127 H 0.6591 0.91202 0.05591 0.0
H3128 H 0.67586 0.94921 0.07826 0.0
C3129 C 0.66277 0.97161 0.03619 0.0
C3130 C 0.66108 0.9416 0.03269 0.0
C3131 C 0.65754 0.97835 0.02982 0.0
C3132 C 0.67066 0.90833 0.07211 0.0
C3133 C 0.66746 0.91603 0.06332 0.0
C3134 C 0.67195 0.94707 0.0654 0.0
C3135 C 0.6567 0.95889 0.03457 0.0
C3136 C 0.66201 0.95162 0.04179 0.0
C3137 C 0.67468 0.92872 0.0647 0.0
C3138 C 0.67077 0.93688 0.05647 0.0
H3139 H 0.63125 0.95492 0.0139 0.0
H3140 H 0.64031 0.94327 0.02512 0.0
H3141 H 0.66835 0.96191 0.06559 0.0
H3142 H 0.69668 0.92986 0.09139 0.0
H3143 H 0.69123 0.94325 0.07577 0.0
C3144 C 0.02399 0.68173 0.03272 0.0
C3145 C 0.02986 0.67699 0.0227 0.0
C3146 C 0.03042 0.69356 0.03933 0.0
C3147 C 0.05805 0.72305 0.0328 0.0
H3148 H 0.05502 0.72838 0.08128 0.0
C3149 C 0.09278 0.76631 0.06888 0.0
C3150 C 0.08877 0.77079 0.08239 0.0
C3151 C 0.08479 0.75546 0.06052 0.0
C3152 C 0.05583 0.72714 0.06764 0.0
H3153 H 0.04709 0.68108 0.01156 0.0
H3154 H 0.0582 0.70162 0.02302 0.0
H3155 H 0.04241 0.7083 0.0688 0.0
H3156 H 0.07306 0.76744 0.09732 0.0
H3157 H 0.05909 0.74883 0.08231 0.0
H3158 H 0.07147 0.74186 0.03158 0.0
C3159 C 0.04863 0.69622 0.02573 0.0
C3160 C 0.04861 0.7156 0.06051 0.0
C3161 C 0.04226 0.68439 0.01929 0.0
C3162 C 0.07647 0.76437 0.08685 0.0
C3163 C 0.06847 0.75357 0.07841 0.0
C3164 C 0.06521 0.73462 0.03988 0.0
C3165 C 0.04281 0.70092 0.03586 0.0
C3166 C 0.04978 0.71339 0.04309 0.0
C3167 C 0.07257 0.74884 0.06537 0.0
C3168 C 0.06432 0.73677 0.05746 0.0
H3169 H 0.01445 0.67629 0.03558 0.0
H3170 H 0.02568 0.69698 0.04703 0.0
H3171 H 0.05902 0.72165 0.01926 0.0
H3172 H 0.10215 0.77109 0.06493 0.0
H3173 H 0.08833 0.75207 0.05064 0.0
C3174 C 0.32233 0.35749 0.01764 0.0
C3175 C 0.3297 0.35457 0.02797 0.0
C3176 C 0.31046 0.35386 0.02248 0.0
C3177 C 0.28547 0.33228 0.05004 0.0
H3178 H 0.27528 0.35656 0.04825 0.0
C3179 C 0.2372 0.32157 0.06881 0.0
C3180 C 0.23672 0.32994 0.08023 0.0
C3181 C 0.24801 0.32429 0.06062 0.0
C3182 C 0.27799 0.34968 0.0488 0.0
H3183 H 0.33032 0.34532 0.05127 0.0
H3184 H 0.30958 0.33897 0.05973 0.0
H3185 H 0.29522 0.36154 0.03764 0.0
H3186 H 0.24733 0.34779 0.09182 0.0
H3187 H 0.26601 0.35258 0.0773 0.0
H3188 H 0.26832 0.32051 0.06158 0.0
C3189 C 0.31296 0.34401 0.04783 0.0
C3190 C 0.28936 0.35249 0.04259 0.0
C3191 C 0.32487 0.34771 0.04304 0.0
C3192 C 0.24724 0.34121 0.08285 0.0
C3193 C 0.258 0.34396 0.07457 0.0
C3194 C 0.27404 0.32943 0.05613 0.0
C3195 C 0.30567 0.34717 0.0377 0.0
C3196 C 0.29329 0.34388 0.04335 0.0
C3197 C 0.25855 0.33547 0.06356 0.0
C3198 C 0.27025 0.33816 0.0558 0.0
H3199 H 0.32577 0.36274 0.00591 0.0
H3200 H 0.30502 0.35631 0.01431 0.0
H3201 H 0.2882 0.32542 0.05065 0.0
H3202 H 0.22924 0.31287 0.06628 0.0
H3203 H 0.24814 0.31763 0.05203 0.0
C3204 C 0.69526 0.68248 0.36353 0.0
C3205 C 0.70054 0.69438 0.35697 0.0
C3206 C 0.70249 0.67796 0.3704 0.0
C3207 C 0.73284 0.68797 0.389 0.0
H3208 H 0.72579 0.65519 0.3784 0.0
C3209 C 0.76501 0.67022 0.40999 0.0
C3210 C 0.7596 0.6584 0.41683 0.0
C3211 C 0.75798 0.67447 0.40173 0.0
C3212 C 0.72782 0.66433 0.38161 0.0
H3213 H 0.71765 0.71083 0.35247 0.0
H3214 H 0.73017 0.70293 0.36435 0.0
H3215 H 0.71298 0.66281 0.36632 0.0
H3216 H 0.74253 0.64178 0.4203 0.0
H3217 H 0.73029 0.64918 0.40595 0.0
H3218 H 0.7476 0.68948 0.4044 0.0
C3219 C 0.72043 0.69713 0.36437 0.0
C3220 C 0.72047 0.66869 0.3747 0.0
C3221 C 0.71323 0.70164 0.35747 0.0
C3222 C 0.74702 0.65086 0.41491 0.0
C3223 C 0.73999 0.65511 0.40669 0.0
C3224 C 0.74017 0.68361 0.39593 0.0
C3225 C 0.71516 0.68526 0.37092 0.0
C3226 C 0.7229 0.68056 0.37832 0.0
C3227 C 0.74536 0.66701 0.40017 0.0
C3228 C 0.73775 0.67174 0.39234 0.0
H3229 H 0.68553 0.67663 0.36335 0.0
H3230 H 0.69815 0.66881 0.37551 0.0
H3231 H 0.73485 0.69709 0.39225 0.0
H3232 H 0.77469 0.67621 0.41109 0.0
H3233 H 0.76242 0.68362 0.3966 0.0
C3234 C 0.32261 0.01039 0.37598 0.0
C3235 C 0.31597 0.00593 0.36056 0.0
C3236 C 0.32619 0.02215 0.3816 0.0
C3237 C 0.33047 0.05212 0.36779 0.0
H3238 H 0.32818 0.05603 0.41699 0.0
C3239 C 0.3386 0.09716 0.40047 0.0
C3240 C 0.34592 0.10048 0.41542 0.0
C3241 C 0.33471 0.08583 0.39268 0.0
C3242 C 0.32894 0.0551 0.40323 0.0
H3243 H 0.30814 0.01044 0.3387 0.0
H3244 H 0.31424 0.03101 0.34868 0.0
H3245 H 0.32195 0.03596 0.40535 0.0
H3246 H 0.35476 0.09445 0.43399 0.0
H3247 H 0.34807 0.07486 0.4204 0.0
H3248 H 0.33742 0.07137 0.36582 0.0
C3249 C 0.3168 0.02542 0.35632 0.0
C3250 C 0.32541 0.0436 0.39655 0.0
C3251 C 0.31326 0.01363 0.35063 0.0
C3252 C 0.34929 0.09227 0.42234 0.0
C3253 C 0.34533 0.08097 0.41467 0.0
C3254 C 0.33395 0.06366 0.3745 0.0
C3255 C 0.32314 0.02975 0.37203 0.0
C3256 C 0.32633 0.04198 0.37879 0.0
C3257 C 0.33792 0.07757 0.39986 0.0
C3258 C 0.33342 0.06529 0.39234 0.0
H3259 H 0.32495 0.00473 0.38385 0.0
H3260 H 0.33132 0.02527 0.39354 0.0
H3261 H 0.33134 0.0512 0.35407 0.0
H3262 H 0.33589 0.10331 0.39483 0.0
H3263 H 0.32896 0.08342 0.38129 0.0
C3264 C 0.98496 0.31308 0.37115 0.0
C3265 C 0.98982 0.31021 0.35691 0.0
C3266 C 0.97307 0.30531 0.37623 0.0
C3267 C 0.94368 0.27909 0.36245 0.0
H3268 H 0.93886 0.27478 0.41188 0.0
C3269 C 0.89948 0.24186 0.39507 0.0
C3270 C 0.89553 0.2457 0.40941 0.0
C3271 C 0.91056 0.24971 0.38728 0.0
C3272 C 0.94002 0.27596 0.39804 0.0
H3273 H 0.98592 0.29711 0.33647 0.0
H3274 H 0.96516 0.28336 0.34557 0.0
H3275 H 0.95889 0.28849 0.40084 0.0
H3276 H 0.90012 0.26086 0.42667 0.0
H3277 H 0.91924 0.2745 0.413 0.0
H3278 H 0.9247 0.26631 0.35982 0.0
C3279 C 0.9705 0.29172 0.35267 0.0
C3280 C 0.95151 0.28386 0.39169 0.0
C3281 C 0.9824 0.29958 0.34749 0.0
C3282 C 0.90277 0.25764 0.4155 0.0
C3283 C 0.91382 0.26542 0.40781 0.0
C3284 C 0.93214 0.27109 0.36884 0.0
C3285 C 0.96577 0.29438 0.36732 0.0
C3286 C 0.95348 0.28566 0.37383 0.0
C3287 C 0.91794 0.2615 0.39381 0.0
C3288 C 0.93018 0.26957 0.38673 0.0
H3289 H 0.99039 0.32128 0.37856 0.0
H3290 H 0.96964 0.30782 0.38729 0.0
H3291 H 0.94485 0.2803 0.34862 0.0
H3292 H 0.89408 0.23274 0.39002 0.0
H3293 H 0.91353 0.24643 0.37653 0.0
C3294 C 0.03037 0.37473 0.33415 0.0
C3295 C 0.02463 0.36246 0.32909 0.0
C3296 C 0.02703 0.38273 0.32674 0.0
C3297 C 0.01445 0.38789 0.28731 0.0
H3298 H 0.01161 0.41189 0.31484 0.0
C3299 C 0.019 0.43191 0.25843 0.0
C3300 C 0.01054 0.43538 0.26341 0.0
C3301 C 0.01944 0.4223 0.26668 0.0
C3302 C 0.01226 0.40517 0.307 0.0
H3303 H 0.01073 0.34896 0.31241 0.0
H3304 H 0.00503 0.36308 0.29921 0.0
H3305 H 0.0142 0.39603 0.32913 0.0
H3306 H 0.996 0.43161 0.28108 0.0
H3307 H 0.99688 0.41483 0.29573 0.0
H3308 H 0.01279 0.3972 0.26517 0.0
C3309 C 0.0121 0.36643 0.30899 0.0
C3310 C 0.01382 0.39615 0.31516 0.0
C3311 C 0.01533 0.35835 0.31659 0.0
C3312 C 0.0026 0.42911 0.27697 0.0
C3313 C 0.00313 0.41956 0.28538 0.0
C3314 C 0.01302 0.39699 0.27914 0.0
C3315 C 0.01796 0.37871 0.31397 0.0
C3316 C 0.0151 0.38753 0.30539 0.0
C3317 C 0.01149 0.41599 0.28019 0.0
C3318 C 0.01209 0.40582 0.2889 0.0
H3319 H 0.03751 0.37822 0.34382 0.0
H3320 H 0.0318 0.39217 0.3307 0.0
H3321 H 0.01549 0.38142 0.27945 0.0
H3322 H 0.02513 0.43646 0.24787 0.0
H3323 H 0.02607 0.41985 0.26254 0.0
C3324 C 0.63738 0.65538 0.3358 0.0
C3325 C 0.64795 0.66263 0.32637 0.0
C3326 C 0.62893 0.64375 0.32996 0.0
C3327 C 0.61939 0.62559 0.2897 0.0
H3328 H 0.60189 0.59812 0.32028 0.0
C3329 C 0.59235 0.57699 0.2639 0.0
C3330 C 0.58065 0.56954 0.27034 0.0
C3331 C 0.60013 0.58812 0.27165 0.0
C3332 C 0.60663 0.60575 0.31162 0.0
H3333 H 0.6582 0.66314 0.30388 0.0
H3334 H 0.64369 0.64284 0.29396 0.0
H3335 H 0.61656 0.61791 0.33233 0.0
H3336 H 0.56802 0.56788 0.29017 0.0
H3337 H 0.58174 0.58747 0.30384 0.0
H3338 H 0.60964 0.61345 0.269 0.0
C3339 C 0.64171 0.64622 0.3056 0.0
C3340 C 0.61503 0.61708 0.31851 0.0
C3341 C 0.6501 0.65784 0.31136 0.0
C3342 C 0.57696 0.57344 0.28489 0.0
C3343 C 0.58484 0.5846 0.29277 0.0
C3344 C 0.61109 0.61429 0.28285 0.0
C3345 C 0.6309 0.63911 0.3146 0.0
C3346 C 0.62163 0.6271 0.30759 0.0
C3347 C 0.59645 0.59211 0.28607 0.0
C3348 C 0.60472 0.60421 0.29369 0.0
H3349 H 0.63547 0.65884 0.34741 0.0
H3350 H 0.62068 0.63855 0.33717 0.0
H3351 H 0.62405 0.63316 0.28093 0.0
H3352 H 0.59542 0.57436 0.25257 0.0
H3353 H 0.60907 0.59363 0.2663 0.0
C3354 C 0.34276 0.96726 0.33692 0.0
C3355 C 0.33622 0.97317 0.33235 0.0
C3356 C 0.35421 0.97107 0.33013 0.0
C3357 C 0.37267 0.98606 0.29255 0.0
H3358 H 0.39864 0.98714 0.32065 0.0
C3359 C 0.41823 0.9969 0.26259 0.0
C3360 C 0.42319 0.98963 0.26801 0.0
C3361 C 0.40865 0.99673 0.27151 0.0
C3362 C 0.39146 0.98679 0.31259 0.0
H3363 H 0.33672 0.98789 0.31724 0.0
H3364 H 0.35675 0.99447 0.30518 0.0
H3365 H 0.37993 0.98355 0.33428 0.0
H3366 H 0.42221 0.97686 0.28758 0.0
H3367 H 0.40527 0.97626 0.30279 0.0
H3368 H 0.38394 0.98885 0.27078 0.0
C3369 C 0.35295 0.98687 0.31406 0.0
C3370 C 0.38076 0.98478 0.32042 0.0
C3371 C 0.34151 0.98314 0.32102 0.0
C3372 C 0.41853 0.98246 0.2829 0.0
C3373 C 0.4089 0.98224 0.29176 0.0
C3374 C 0.38333 0.98799 0.2847 0.0
C3375 C 0.35938 0.98083 0.31849 0.0
C3376 C 0.37118 0.9842 0.31044 0.0
C3377 C 0.40371 0.98923 0.28602 0.0
C3378 C 0.39279 0.98819 0.29459 0.0
H3379 H 0.33902 0.9596 0.34569 0.0
H3380 H 0.35887 0.96614 0.33364 0.0
H3381 H 0.36539 0.98551 0.2845 0.0
H3382 H 0.42146 0.00243 0.25107 0.0
H3383 H 0.40501 0.00238 0.26686 0.0
C3384 C 0.63346 0.98154 0.33777 0.0
C3385 C 0.6429 0.98374 0.32645 0.0
C3386 C 0.62494 0.98506 0.33334 0.0
C3387 C 0.61941 0.00509 0.30419 0.0
H3388 H 0.58559 0.98101 0.30967 0.0
C3389 C 0.58086 0.01429 0.28317 0.0
C3390 C 0.57181 0.00512 0.27285 0.0
C3391 C 0.58924 0.01218 0.29222 0.0
C3392 C 0.59499 0.98784 0.30812 0.0
H3393 H 0.65101 0.99165 0.30184 0.0
H3394 H 0.63614 0.99778 0.29412 0.0
H3395 H 0.60123 0.97676 0.3205 0.0
H3396 H 0.56444 0.98646 0.26425 0.0
H3397 H 0.57886 0.98277 0.28023 0.0
H3398 H 0.61316 0.01601 0.2913 0.0
C3399 C 0.63536 0.9934 0.30646 0.0
C3400 C 0.60395 0.98545 0.31445 0.0
C3401 C 0.64383 0.98982 0.31083 0.0
C3402 C 0.57111 0.99368 0.27232 0.0
C3403 C 0.57941 0.99155 0.28145 0.0
C3404 C 0.61044 0.00751 0.29795 0.0
C3405 C 0.62573 0.99093 0.31756 0.0
C3406 C 0.61626 0.99396 0.31227 0.0
C3407 C 0.58869 0.00083 0.29127 0.0
C3408 C 0.59814 0.99881 0.29956 0.0
H3409 H 0.63252 0.9769 0.34992 0.0
H3410 H 0.61769 0.98314 0.34223 0.0
H3411 H 0.62882 0.01187 0.30248 0.0
H3412 H 0.58157 0.02316 0.28409 0.0
H3413 H 0.59622 0.01947 0.29986 0.0
C3414 C 0.01432 0.65794 0.32814 0.0
C3415 C 0.02683 0.66575 0.33043 0.0
C3416 C 0.00997 0.64631 0.32117 0.0
C3417 C 0.01892 0.62886 0.29338 0.0
H3418 H 0.9936 0.60033 0.31593 0.0
C3419 C 0.00744 0.58111 0.27157 0.0
C3420 C 0.99522 0.57197 0.27106 0.0
C3421 C 0.01094 0.59223 0.27957 0.0
C3422 C 1.00056 0.6082 0.30933 0.0
H3423 H 0.04455 0.66746 0.32704 0.0
H3424 H 0.03695 0.64732 0.31467 0.0
H3425 H 1.00007 0.62049 0.32788 0.0
H3426 H 0.97716 0.5673 0.2793 0.0
H3427 H 0.9832 0.58689 0.29263 0.0
H3428 H 0.01933 0.61678 0.27464 0.0
C3429 C 0.03053 0.65018 0.31832 0.0
C3430 C 0.00427 0.61974 0.3162 0.0
C3431 C 0.03486 0.6617 0.32549 0.0
C3432 C 0.98663 0.57417 0.27919 0.0
C3433 C 0.99012 0.58538 0.28704 0.0
C3434 C 0.01514 0.61738 0.2864 0.0
C3435 C 0.01805 0.64236 0.3161 0.0
C3436 C 0.01359 0.63016 0.3084 0.0
C3437 C 0.00231 0.59463 0.28708 0.0
C3438 C 0.00602 0.60687 0.29439 0.0
H3439 H 0.00789 0.66076 0.33189 0.0
H3440 H 1.0003 0.64047 0.31951 0.0
H3441 H 0.026 0.63676 0.28695 0.0
H3442 H 0.01433 0.57989 0.26527 0.0
H3443 H 0.02044 0.59902 0.27966 0.0
C3444 C 0.3444 0.36083 0.3105 0.0
C3445 C 0.34151 0.35972 0.32811 0.0
C3446 C 0.35584 0.36961 0.3049 0.0
C3447 C 0.38736 0.38755 0.3166 0.0
H3448 H 0.38834 0.41026 0.282 0.0
C3449 C 0.43279 0.42584 0.28971 0.0
C3450 C 0.43296 0.42866 0.27212 0.0
C3451 C 0.42182 0.41814 0.29787 0.0
C3452 C 0.38828 0.40391 0.29147 0.0
H3453 H 0.34843 0.36665 0.35373 0.0
H3454 H 0.36867 0.38181 0.34388 0.0
H3455 H 0.36897 0.39497 0.29348 0.0
H3456 H 0.42189 0.4254 0.24917 0.0
H3457 H 0.40293 0.41172 0.26307 0.0
H3458 H 0.40658 0.39602 0.31405 0.0
C3459 C 0.36197 0.37595 0.33448 0.0
C3460 C 0.37716 0.39521 0.29812 0.0
C3461 C 0.35041 0.36732 0.34008 0.0
C3462 C 0.422 0.4236 0.26284 0.0
C3463 C 0.4111 0.41577 0.27088 0.0
C3464 C 0.3985 0.39612 0.30969 0.0
C3465 C 0.36469 0.37729 0.31681 0.0
C3466 C 0.37659 0.38688 0.3106 0.0
C3467 C 0.41082 0.41293 0.28853 0.0
C3468 C 0.3991 0.40433 0.29685 0.0
H3469 H 0.33773 0.35514 0.30097 0.0
H3470 H 0.35777 0.37043 0.29122 0.0
H3471 H 0.38712 0.38118 0.32619 0.0
H3472 H 0.44113 0.42965 0.29715 0.0
H3473 H 0.42199 0.41632 0.31151 0.0
C3474 C 0.30429 0.29457 0.36112 0.0
C3475 C 0.31116 0.30734 0.3615 0.0
C3476 C 0.30877 0.28748 0.36842 0.0
C3477 C 0.31674 0.27492 0.39424 0.0
H3478 H 0.35005 0.28258 0.38857 0.0
C3479 C 0.33653 0.24949 0.43203 0.0
C3480 C 0.34406 0.24618 0.42317 0.0
C3481 C 0.33296 0.25727 0.42446 0.0
C3482 C 0.3407 0.28028 0.39016 0.0
H3483 H 0.3283 0.32261 0.36971 0.0
H3484 H 0.33608 0.31012 0.38271 0.0
H3485 H 0.34305 0.29562 0.37527 0.0
H3486 H 0.35382 0.24852 0.3994 0.0
H3487 H 0.34748 0.26208 0.38604 0.0
H3488 H 0.31426 0.25948 0.40876 0.0
C3489 C 0.32723 0.30566 0.37657 0.0
C3490 C 0.33673 0.28783 0.38272 0.0
C3491 C 0.32274 0.31281 0.36921 0.0
C3492 C 0.34805 0.25094 0.40658 0.0
C3493 C 0.34445 0.25874 0.39896 0.0
C3494 C 0.32069 0.2674 0.40165 0.0
C3495 C 0.32023 0.29291 0.37637 0.0
C3496 C 0.32468 0.28519 0.38461 0.0
C3497 C 0.33682 0.26194 0.40781 0.0
C3498 C 0.33271 0.26998 0.39971 0.0
H3499 H 0.2954 0.28999 0.35512 0.0
H3500 H 0.30324 0.27768 0.36772 0.0
H3501 H 0.30743 0.2727 0.39614 0.0
H3502 H 0.33354 0.24625 0.44501 0.0
H3503 H 0.32729 0.25975 0.43178 0.0
C3504 C 0.70858 0.01186 0.34938 0.0
C3505 C 0.69605 0.00545 0.35247 0.0
C3506 C 0.71571 0.02372 0.35539 0.0
C3507 C 0.71699 0.04479 0.38866 0.0
H3508 H 0.74298 0.06878 0.3606 0.0
C3509 C 0.75008 0.09253 0.41515 0.0
C3510 C 0.76238 0.09647 0.41232 0.0
C3511 C 0.74109 0.08255 0.40613 0.0
C3512 C 0.73579 0.06218 0.36862 0.0
H3513 H 0.68123 0.00662 0.36423 0.0
H3514 H 0.69378 0.02738 0.37482 0.0
H3515 H 0.72884 0.049 0.3483 0.0
H3516 H 0.77488 0.09349 0.39705 0.0
H3517 H 0.75925 0.076 0.38155 0.0
H3518 H 0.72414 0.05781 0.40915 0.0
C3519 C 0.69803 0.02314 0.36777 0.0
C3520 C 0.72769 0.05085 0.36157 0.0
C3521 C 0.69084 0.01126 0.36165 0.0
C3522 C 0.76548 0.09059 0.39967 0.0
C3523 C 0.7565 0.08063 0.39065 0.0
C3524 C 0.72511 0.05612 0.39573 0.0
C3525 C 0.71055 0.02949 0.3647 0.0
C3526 C 0.71835 0.04194 0.37162 0.0
C3527 C 0.74419 0.07631 0.39405 0.0
C3528 C 0.73476 0.06486 0.3859 0.0
H3529 H 0.71292 0.00772 0.34231 0.0
H3530 H 0.72535 0.02829 0.35302 0.0
H3531 H 0.70996 0.03809 0.39679 0.0
H3532 H 0.74739 0.09682 0.4249 0.0
H3533 H 0.73169 0.07956 0.40889 0.0
C3534 C 0.98639 0.68519 0.34899 0.0
C3535 C 0.99538 0.68723 0.36136 0.0
C3536 C 0.97463 0.68188 0.35415 0.0
C3537 C 0.95835 0.68602 0.38868 0.0
H3538 H 0.93029 0.65545 0.3758 0.0
C3539 C 0.91358 0.66815 0.42463 0.0
C3540 C 0.90257 0.66101 0.41591 0.0
C3541 C 0.92456 0.67169 0.41649 0.0
C3542 C 0.93796 0.66415 0.37926 0.0
H3543 H 0.99912 0.68741 0.38878 0.0
H3544 H 0.9787 0.68202 0.39774 0.0
H3545 H 0.95009 0.66092 0.36392 0.0
H3546 H 0.89438 0.65209 0.39174 0.0
H3547 H 0.91362 0.65867 0.37714 0.0
H3548 H 0.94641 0.68953 0.40364 0.0
C3549 C 0.98073 0.68283 0.38409 0.0
C3550 C 0.9493 0.66722 0.3725 0.0
C3551 C 0.99238 0.68585 0.37894 0.0
C3552 C 0.90276 0.65758 0.39875 0.0
C3553 C 0.91379 0.6613 0.39046 0.0
C3554 C 0.94702 0.68309 0.39514 0.0
C3555 C 0.97178 0.68086 0.37176 0.0
C3556 C 0.95961 0.67805 0.37748 0.0
C3557 C 0.92486 0.66835 0.39927 0.0
C3558 C 0.9367 0.67197 0.39089 0.0
H3559 H 0.98846 0.68617 0.33535 0.0
H3560 H 0.96784 0.68042 0.34444 0.0
H3561 H 0.96618 0.69451 0.39251 0.0
H3562 H 0.91371 0.6707 0.43799 0.0
H3563 H 0.93281 0.6768 0.42393 0.0
C3564 C 0.37389 0.03504 0.70152 0.0
C3565 C 0.36326 0.02707 0.69255 0.0
C3566 C 0.38157 0.03102 0.70811 0.0
C3567 C 0.38328 0.00296 0.718 0.0
H3568 H 0.41769 0.02602 0.71972 0.0
C3569 C 0.42061 0.99061 0.73577 0.0
C3570 C 0.42755 0.99698 0.75035 0.0
C3571 C 0.4129 0.99408 0.72761 0.0
C3572 C 0.4081 0.0195 0.71926 0.0
H3573 H 0.35227 0.00859 0.68344 0.0
H3574 H 0.36592 0.00162 0.69427 0.0
H3575 H 0.40381 0.0322 0.70748 0.0
H3576 H 0.43175 0.01215 0.76749 0.0
H3577 H 0.41887 0.01851 0.75261 0.0
H3578 H 0.38781 0.99018 0.72935 0.0
C3579 C 0.3682 0.01092 0.69673 0.0
C3580 C 0.40009 0.02304 0.71242 0.0
C3581 C 0.36037 0.01491 0.69044 0.0
C3582 C 0.42684 0.00715 0.75612 0.0
C3583 C 0.41936 0.01076 0.74771 0.0
C3584 C 0.39134 0.99935 0.7245 0.0
C3585 C 0.37897 0.01896 0.70555 0.0
C3586 C 0.38753 0.0149 0.71198 0.0
C3587 C 0.4122 0.00415 0.73357 0.0
C3588 C 0.40378 0.00765 0.72542 0.0
H3589 H 0.37628 0.04444 0.70352 0.0
H3590 H 0.38953 0.03741 0.71527 0.0
H3591 H 0.3737 0.99645 0.71813 0.0
H3592 H 0.42105 0.98289 0.73068 0.0
H3593 H 0.40752 0.98892 0.71661 0.0
C3594 C 0.98858 0.3419 0.70671 0.0
C3595 C 0.98215 0.33741 0.69114 0.0
C3596 C 0.99099 0.35321 0.71307 0.0
C3597 C 0.99126 0.3819 0.70096 0.0
H3598 H 0.98699 0.3837 0.75013 0.0
C3599 C 0.98631 0.42056 0.73325 0.0
C3600 C 0.99215 0.42489 0.74927 0.0
C3601 C 0.98618 0.41055 0.72537 0.0
C3602 C 0.98838 0.38341 0.7364 0.0
H3603 H 0.97348 0.34141 0.6698 0.0
H3604 H 0.97747 0.361 0.68103 0.0
H3605 H 0.98495 0.36512 0.73787 0.0
H3606 H 0.00252 0.42213 0.76948 0.0
H3607 H 0.00243 0.40487 0.75565 0.0
H3608 H 0.99442 0.40017 0.69954 0.0
C3609 C 0.98083 0.3559 0.68823 0.0
C3610 C 0.98724 0.37275 0.72936 0.0
C3611 C 0.97848 0.34462 0.68183 0.0
C3612 C 0.99807 0.41915 0.75703 0.0
C3613 C 0.99789 0.40915 0.74921 0.0
C3614 C 0.99235 0.39256 0.70801 0.0
C3615 C 0.98696 0.36026 0.70407 0.0
C3616 C 0.98864 0.37183 0.71155 0.0
C3617 C 0.9918 0.40462 0.73342 0.0
C3618 C 0.9909 0.39343 0.72582 0.0
H3619 H 0.99159 0.33659 0.71414 0.0
H3620 H 0.99593 0.35637 0.72515 0.0
H3621 H 0.99256 0.38157 0.68722 0.0
H3622 H 0.98173 0.42482 0.72688 0.0
H3623 H 0.98135 0.40724 0.71324 0.0
C3624 C 0.65221 0.63233 0.6812 0.0
C3625 C 0.65927 0.64357 0.68943 0.0
C3626 C 0.64046 0.62438 0.68677 0.0
C3627 C 0.62106 0.61799 0.72526 0.0
H3628 H 0.59597 0.59529 0.69429 0.0
C3629 C 0.57359 0.58396 0.74975 0.0
C3630 C 0.56981 0.5718 0.74555 0.0
C3631 C 0.58338 0.59343 0.74127 0.0
C3632 C 0.6029 0.60159 0.70306 0.0
H3633 H 0.65938 0.65557 0.70936 0.0
H3634 H 0.63875 0.64195 0.71867 0.0
H3635 H 0.61523 0.61084 0.68253 0.0
H3636 H 0.57283 0.56004 0.72853 0.0
H3637 H 0.58987 0.57663 0.71355 0.0
H3638 H 0.60868 0.60874 0.74574 0.0
C3639 C 0.64238 0.63904 0.70829 0.0
C3640 C 0.61396 0.61047 0.69637 0.0
C3641 C 0.65419 0.64691 0.70289 0.0
C3642 C 0.57559 0.56933 0.73206 0.0
C3643 C 0.58529 0.57881 0.72344 0.0
C3644 C 0.60996 0.60923 0.73189 0.0
C3645 C 0.63543 0.62755 0.70056 0.0
C3646 C 0.62327 0.61868 0.70741 0.0
C3647 C 0.5895 0.59094 0.7283 0.0
C3648 C 0.60082 0.60084 0.7209 0.0
H3649 H 0.6559 0.62948 0.67083 0.0
H3650 H 0.6355 0.61557 0.68063 0.0
H3651 H 0.62804 0.62393 0.73425 0.0
H3652 H 0.56938 0.58614 0.76019 0.0
H3653 H 0.58639 0.6027 0.74518 0.0
C3654 C 0.69998 0.70665 0.65121 0.0
C3655 C 0.69189 0.69479 0.65673 0.0
C3656 C 0.6957 0.71418 0.64481 0.0
C3657 C 0.66809 0.71397 0.6278 0.0
H3658 H 0.6867 0.74839 0.63823 0.0
C3659 C 0.65152 0.74797 0.61042 0.0
C3660 C 0.6599 0.75831 0.60124 0.0
C3661 C 0.6551 0.74027 0.61835 0.0
C3662 C 0.68143 0.7388 0.6352 0.0
H3663 H 0.67292 0.68149 0.65976 0.0
H3664 H 0.66544 0.69475 0.64902 0.0
H3665 H 0.69336 0.73464 0.64958 0.0
H3666 H 0.67872 0.76866 0.59353 0.0
H3667 H 0.68497 0.75547 0.60786 0.0
H3668 H 0.65606 0.71821 0.61363 0.0
C3669 C 0.6751 0.69816 0.64927 0.0
C3670 C 0.68528 0.73091 0.6416 0.0
C3671 C 0.67939 0.69056 0.65548 0.0
C3672 C 0.67203 0.76095 0.60074 0.0
C3673 C 0.67563 0.75335 0.60887 0.0
C3674 C 0.66417 0.72185 0.62159 0.0
C3675 C 0.68322 0.71012 0.64399 0.0
C3676 C 0.67876 0.71841 0.63778 0.0
C3677 C 0.66716 0.74283 0.61751 0.0
C3678 C 0.67088 0.73436 0.62505 0.0
H3679 H 0.70966 0.71016 0.65183 0.0
H3680 H 0.70223 0.7232 0.64046 0.0
H3681 H 0.66292 0.70444 0.6244 0.0
H3682 H 0.64215 0.74574 0.61138 0.0
H3683 H 0.64842 0.73229 0.62512 0.0
C3684 C 0.30991 0.99237 0.63972 0.0
C3685 C 0.31142 0.99503 0.65745 0.0
C3686 C 0.30113 0.98091 0.6339 0.0
C3687 C 0.28387 0.94913 0.64423 0.0
H3688 H 0.25911 0.94838 0.61372 0.0
C3689 C 0.2441 0.90364 0.6196 0.0
C3690 C 0.23998 0.90344 0.60266 0.0
C3691 C 0.25227 0.91467 0.62745 0.0
C3692 C 0.26603 0.94838 0.62199 0.0
H3693 H 0.30531 0.98768 0.68304 0.0
H3694 H 0.2902 0.96741 0.6728 0.0
H3695 H 0.2751 0.96775 0.62467 0.0
H3696 H 0.24125 0.91451 0.58052 0.0
H3697 H 0.25578 0.93362 0.59378 0.0
H3698 H 0.27525 0.92987 0.64098 0.0
C3699 C 0.29571 0.9743 0.66347 0.0
C3700 C 0.27514 0.9595 0.62834 0.0
C3701 C 0.30432 0.98587 0.6693 0.0
C3702 C 0.24411 0.91444 0.59373 0.0
C3703 C 0.25243 0.92542 0.60141 0.0
C3704 C 0.2749 0.938 0.63757 0.0
C3705 C 0.2939 0.97182 0.64572 0.0
C3706 C 0.28416 0.95997 0.63942 0.0
C3707 C 0.25667 0.92572 0.61838 0.0
C3708 C 0.26589 0.93747 0.62625 0.0
H3709 H 0.31521 0.99927 0.63029 0.0
H3710 H 0.2999 0.97915 0.62014 0.0
H3711 H 0.29078 0.94931 0.65274 0.0
H3712 H 0.24102 0.89526 0.62674 0.0
H3713 H 0.25512 0.91451 0.64062 0.0
C3714 C 0.01198 0.32031 0.65347 0.0
C3715 C 0.00383 0.30774 0.65316 0.0
C3716 C 0.02364 0.32498 0.64676 0.0
C3717 C 0.04159 0.31807 0.61666 0.0
H3718 H 0.06915 0.33982 0.64497 0.0
C3719 C 0.08982 0.33002 0.5978 0.0
C3720 C 0.09914 0.34208 0.60017 0.0
C3721 C 0.0784 0.326 0.6049 0.0
C3722 C 0.06157 0.33389 0.63678 0.0
H3723 H 0.00143 0.29028 0.64507 0.0
H3724 H 0.02162 0.29845 0.63315 0.0
H3725 H 0.04867 0.33304 0.65516 0.0
H3726 H 0.10381 0.35915 0.61273 0.0
H3727 H 0.08381 0.35228 0.62454 0.0
H3728 H 0.05435 0.31901 0.59814 0.0
C3729 C 0.01903 0.30468 0.63865 0.0
C3730 C 0.04984 0.33001 0.64264 0.0
C3731 C 0.00748 0.30001 0.64556 0.0
C3732 C 0.09682 0.34986 0.61038 0.0
C3733 C 0.08536 0.34587 0.61734 0.0
C3734 C 0.05329 0.32204 0.61072 0.0
C3735 C 0.02729 0.3172 0.63936 0.0
C3736 C 0.03973 0.32196 0.63271 0.0
C3737 C 0.07592 0.33394 0.61443 0.0
C3738 C 0.06346 0.32989 0.62077 0.0
H3739 H 0.00947 0.3265 0.65931 0.0
H3740 H 0.0298 0.33468 0.64736 0.0
H3741 H 0.03397 0.31199 0.60863 0.0
H3742 H 0.09117 0.32377 0.58988 0.0
H3743 H 0.07146 0.31667 0.60269 0.0
C3744 C 0.30503 0.31963 0.66653 0.0
C3745 C 0.31463 0.32133 0.65586 0.0
C3746 C 0.29669 0.32313 0.66095 0.0
C3747 C 0.28432 0.32898 0.62108 0.0
H3748 H 0.27152 0.34383 0.65197 0.0
C3749 C 0.24438 0.3356 0.60066 0.0
C3750 C 0.2454 0.34696 0.60424 0.0
C3751 C 0.25239 0.3323 0.60813 0.0
C3752 C 0.27505 0.33974 0.64317 0.0
H3753 H 0.32318 0.32833 0.63117 0.0
H3754 H 0.30871 0.33454 0.62152 0.0
H3755 H 0.28691 0.33906 0.66248 0.0
H3756 H 0.25535 0.36351 0.61917 0.0
H3757 H 0.26948 0.35782 0.63202 0.0
H3758 H 0.27267 0.32985 0.60169 0.0
C3759 C 0.30752 0.33033 0.63409 0.0
C3760 C 0.28379 0.33691 0.64923 0.0
C3761 C 0.31586 0.32683 0.63966 0.0
C3762 C 0.25438 0.35475 0.61599 0.0
C3763 C 0.26241 0.35144 0.62348 0.0
C3764 C 0.27559 0.33178 0.61505 0.0
C3765 C 0.29776 0.32839 0.64458 0.0
C3766 C 0.28854 0.33152 0.63824 0.0
C3767 C 0.26166 0.34028 0.61935 0.0
C3768 C 0.27083 0.33718 0.62601 0.0
H3769 H 0.30383 0.3154 0.67908 0.0
H3770 H 0.28922 0.3214 0.66929 0.0
H3771 H 0.28767 0.3247 0.61233 0.0
H3772 H 0.23768 0.32942 0.59153 0.0
H3773 H 0.25144 0.32355 0.60489 0.0
C3774 C 0.7022 0.99361 0.65823 0.0
C3775 C 0.69401 0.99723 0.66403 0.0
C3776 C 0.69803 0.98209 0.65113 0.0
C3777 C 0.67272 0.95114 0.65119 0.0
H3778 H 0.68574 0.94812 0.60763 0.0
C3779 C 0.65373 0.90528 0.61497 0.0
C3780 C 0.66166 0.90318 0.60488 0.0
C3781 C 0.65766 0.91652 0.62296 0.0
C3782 C 0.68215 0.94874 0.61996 0.0
H3783 H 0.67499 0.99153 0.66701 0.0
H3784 H 0.6677 0.97122 0.65481 0.0
H3785 H 0.69245 0.96818 0.61974 0.0
H3786 H 0.68019 0.91127 0.59597 0.0
H3787 H 0.68719 0.93051 0.61065 0.0
H3788 H 0.66267 0.93172 0.65173 0.0
C3789 C 0.67736 0.9774 0.65573 0.0
C3790 C 0.68595 0.96026 0.62682 0.0
C3791 C 0.68153 0.98903 0.66259 0.0
C3792 C 0.6738 0.91244 0.60372 0.0
C3793 C 0.67778 0.92361 0.61191 0.0
C3794 C 0.66904 0.93958 0.64445 0.0
C3795 C 0.68558 0.97384 0.64988 0.0
C3796 C 0.68128 0.96159 0.64249 0.0
C3797 C 0.6697 0.92592 0.62129 0.0
C3798 C 0.67372 0.93821 0.62874 0.0
H3799 H 0.71188 0.9997 0.6591 0.0
H3800 H 0.70457 0.97955 0.64683 0.0
H3801 H 0.66908 0.95192 0.66339 0.0
H3802 H 0.64437 0.89831 0.61645 0.0
H3803 H 0.65113 0.91792 0.62997 0.0
C3804 C 0.01545 0.70162 0.67413 0.0
C3805 C 0.00687 0.694 0.66184 0.0
C3806 C 0.02751 0.70923 0.66945 0.0
C3807 C 0.0495 0.71395 0.63473 0.0
H3808 H 0.06733 0.74637 0.65406 0.0
C3809 C 0.09864 0.74594 0.61494 0.0
C3810 C 0.102 0.75817 0.61186 0.0
C3811 C 0.08785 0.73819 0.62334 0.0
C3812 C 0.06247 0.73738 0.64844 0.0
H3813 H 0.00419 0.68842 0.635 0.0
H3814 H 0.02503 0.70187 0.62673 0.0
H3815 H 0.04676 0.73272 0.66352 0.0
H3816 H 0.09685 0.77194 0.61626 0.0
H3817 H 0.07779 0.75831 0.63008 0.0
H3818 H 0.06487 0.71877 0.61895 0.0
C3819 C 0.0226 0.70179 0.64009 0.0
C3820 C 0.0507 0.72947 0.65405 0.0
C3821 C 0.01059 0.69412 0.64481 0.0
C3822 C 0.09448 0.76254 0.61807 0.0
C3823 C 0.08359 0.75473 0.62626 0.0
C3824 C 0.06118 0.72189 0.62899 0.0
C3825 C 0.03124 0.70944 0.65234 0.0
C3826 C 0.04401 0.71769 0.64713 0.0
C3827 C 0.08 0.74238 0.62866 0.0
C3828 C 0.06781 0.73375 0.63565 0.0
H3829 H 0.01285 0.70169 0.68738 0.0
H3830 H 0.03393 0.71485 0.67929 0.0
H3831 H 0.04474 0.70489 0.62931 0.0
H3832 H 0.10406 0.74215 0.61024 0.0
H3833 H 0.08555 0.72882 0.6253 0.0
C3834 C 0.96839 0.62922 0.68937 0.0
C3835 C 0.97519 0.64195 0.6908 0.0
C3836 C 0.97283 0.62189 0.69597 0.0
C3837 C 0.98679 0.60863 0.70308 0.0
H3838 H 0.00139 0.61576 0.74878 0.0
C3839 C 0.00467 0.57918 0.73593 0.0
C3840 C 0.00161 0.57636 0.75338 0.0
C3841 C 0.00264 0.58784 0.72751 0.0
C3842 C 0.99731 0.61364 0.73601 0.0
H3843 H 0.99214 0.65692 0.70017 0.0
H3844 H 0.99992 0.64407 0.71169 0.0
H3845 H 0.99557 0.62962 0.73535 0.0
H3846 H 0.9943 0.58066 0.77577 0.0
H3847 H 0.99053 0.59549 0.76106 0.0
H3848 H 0.98814 0.59242 0.70401 0.0
C3849 C 0.99108 0.6398 0.70555 0.0
C3850 C 0.9941 0.62165 0.72823 0.0
C3851 C 0.98663 0.64716 0.69889 0.0
C3852 C 0.99658 0.58246 0.76225 0.0
C3853 C 0.99459 0.59111 0.75387 0.0
C3854 C 0.99001 0.60062 0.71085 0.0
C3855 C 0.98421 0.62707 0.70419 0.0
C3856 C 0.98861 0.61913 0.7118 0.0
C3857 C 0.99758 0.59391 0.73641 0.0
C3858 C 0.99512 0.60292 0.72753 0.0
H3859 H 0.95955 0.62484 0.68321 0.0
H3860 H 0.96722 0.61212 0.69494 0.0
H3861 H 0.98272 0.60651 0.69031 0.0
H3862 H 0.00853 0.57462 0.72873 0.0
H3863 H 0.00511 0.58986 0.71407 0.0
C3864 C 0.37889 0.34802 0.69119 0.0
C3865 C 0.36625 0.3426 0.68945 0.0
C3866 C 0.38573 0.35974 0.69782 0.0
C3867 C 0.38357 0.38272 0.72427 0.0
H3868 H 0.41498 0.40427 0.70456 0.0
C3869 C 0.41363 0.43202 0.74834 0.0
C3870 C 0.42586 0.43557 0.75138 0.0
C3871 C 0.40606 0.42125 0.73947 0.0
C3872 C 0.40626 0.39834 0.71026 0.0
H3873 H 0.3509 0.34539 0.69338 0.0
H3874 H 0.36289 0.36595 0.70486 0.0
H3875 H 0.40214 0.38436 0.69167 0.0
H3876 H 0.43984 0.43082 0.74698 0.0
H3877 H 0.42663 0.412 0.73159 0.0
H3878 H 0.38776 0.3967 0.74296 0.0
C3879 C 0.36748 0.36102 0.70123 0.0
C3880 C 0.3989 0.38692 0.7029 0.0
C3881 C 0.36061 0.34924 0.69459 0.0
C3882 C 0.43043 0.42828 0.74494 0.0
C3883 C 0.42289 0.41756 0.736 0.0
C3884 C 0.39092 0.39417 0.73161 0.0
C3885 C 0.38013 0.36642 0.70286 0.0
C3886 C 0.38754 0.37889 0.70997 0.0
C3887 C 0.41057 0.41384 0.73336 0.0
C3888 C 0.40242 0.40204 0.72483 0.0
H3889 H 0.38358 0.34321 0.68745 0.0
H3890 H 0.39542 0.36351 0.6992 0.0
H3891 H 0.37494 0.37672 0.73016 0.0
H3892 H 0.40979 0.43736 0.75328 0.0
H3893 H 0.39664 0.41869 0.7375 0.0
C3894 C 0.6536 0.01826 0.68232 0.0
C3895 C 0.66206 0.01853 0.6944 0.0
C3896 C 0.64174 0.0147 0.68732 0.0
C3897 C 0.61985 0.99876 0.72275 0.0
H3898 H 0.60329 0.01504 0.70372 0.0
C3899 C 0.57131 0.98425 0.74306 0.0
C3900 C 0.56832 0.99344 0.74592 0.0
C3901 C 0.582 0.98681 0.73475 0.0
C3902 C 0.60781 0.01045 0.70928 0.0
H3903 H 0.66476 0.01542 0.72124 0.0
H3904 H 0.64434 0.00959 0.73003 0.0
H3905 H 0.6235 0.02061 0.69372 0.0
H3906 H 0.57418 0.01248 0.74134 0.0
H3907 H 0.59312 0.01707 0.7277 0.0
H3908 H 0.60455 0.98907 0.73896 0.0
C3909 C 0.64666 0.01177 0.71658 0.0
C3910 C 0.61935 0.01353 0.70334 0.0
C3911 C 0.65843 0.01519 0.71155 0.0
C3912 C 0.57622 0.00519 0.7397 0.0
C3913 C 0.58704 0.0078 0.7316 0.0
C3914 C 0.60841 0.99578 0.7288 0.0
C3915 C 0.63812 0.01143 0.70455 0.0
C3916 C 0.62558 0.0078 0.71012 0.0
C3917 C 0.5902 0.99868 0.72932 0.0
C3918 C 0.60222 0.00161 0.72222 0.0
H3919 H 0.65613 0.02077 0.66899 0.0
H3920 H 0.6354 0.01441 0.67763 0.0
H3921 H 0.62423 0.99397 0.72808 0.0
H3922 H 0.56563 0.97512 0.74781 0.0
H3923 H 0.58394 0.97947 0.73289 0.0
loop_
_geom_bond_atom_site_label_1
_geom_bond_atom_site_label_2
_geom_bond_distance
_geom_bond_site_symmetry_2
_ccdc_geom_bond_type
Mn0 O5 2.095 1_655 S
Mn0 O15 2.162 . S
Mn0 O16 2.297 1_554 S
Mn0 O24 2.385 1_554 S
Mn0 O25 2.209 1_654 S
Mn0 O26 2.094 . S
Mn1 O6 2.121 . S
Mn1 N8 2.257 1_554 S
Mn1 N17 2.282 . S
Mn1 O25 2.215 1_554 S
Mn1 O27 2.117 . S
C2 O24 1.234 1_455 S
C2 O25 1.283 . S
C3 O15 1.281 1_556 S
C3 O16 1.236 . S
C4 O26 1.230 1_455 S
C4 O27 1.291 . S
O5 Mn0 2.095 1_455 S
O5 C14 1.250 . S
O6 Mn1 2.121 . S
O6 C14 1.258 . S
C7 N8 1.326 . S
C7 C11 1.460 . S
C7 H13 0.929 . S
N8 Mn1 2.257 1_556 S
N8 C7 1.326 . S
N8 C12 1.362 . S
C9 C10 1.258 . S
C9 C12 1.431 . S
C9 C29 1.449 . S
C10 C9 1.258 . S
C10 C11 1.477 . S
C10 H30 0.931 . S
C11 C7 1.460 . S
C11 C10 1.477 . S
C11 H31 0.930 . S
C12 N8 1.362 . S
C12 C9 1.431 . S
C12 C22 1.476 . S
H13 C7 0.929 . S
C14 O5 1.250 . S
C14 O6 1.258 . S
O15 Mn0 2.162 . S
O15 C3 1.281 1_554 S
O16 Mn0 2.297 1_556 S
O16 C3 1.236 . S
N17 Mn1 2.282 . S
N17 C18 1.328 . S
N17 C22 1.318 1_554 S
C18 N17 1.328 . S
C18 C19 1.436 1_554 S
C18 H23 0.929 . S
C19 C18 1.436 1_556 S
C19 C20 1.325 . S
C19 H32 0.920 1_556 S
C20 C19 1.325 . S
C20 C21 1.373 . S
C20 H33 0.929 . S
C21 C20 1.373 . S
C21 C22 1.396 . S
C21 C28 1.403 . S
C22 C12 1.476 . S
C22 N17 1.318 1_556 S
C22 C21 1.396 . S
H23 C18 0.929 . S
O24 Mn0 2.385 1_556 S
O24 C2 1.234 1_655 S
O25 Mn0 2.209 1_456 S
O25 Mn1 2.215 1_556 S
O25 C2 1.283 . S
O26 Mn0 2.094 . S
O26 C4 1.230 1_655 S
O27 Mn1 2.117 . S
O27 C4 1.291 . S
C28 C21 1.403 . S
C28 C29 1.399 . S
C28 H34 0.929 . S
C29 C9 1.449 . S
C29 C28 1.399 . S
C29 H35 0.930 . S
H30 C10 0.931 . S
H31 C11 0.930 . S
H32 C19 0.920 1_554 S
H33 C20 0.929 . S
H34 C28 0.929 . S
H35 C29 0.930 . S
Mn36 O41 2.095 1_554 S
Mn36 O51 2.162 . S
Mn36 O52 2.297 . S
Mn36 O60 2.385 . S
Mn36 O61 2.209 . S
Mn36 O62 2.094 1_554 S
Mn37 O42 2.121 1_554 S
Mn37 N44 2.257 . S
Mn37 N53 2.282 . S
Mn37 O61 2.215 . S
Mn37 O63 2.117 1_554 S
C38 O60 1.234 . S
C38 O61 1.283 . S
C39 O51 1.281 . S
C39 O52 1.236 . S
C40 O62 1.240 . S
C40 O63 1.264 . S
O41 Mn36 2.095 1_556 S
O41 C50 1.250 . S
O42 Mn37 2.121 1_556 S
O42 C50 1.258 . S
C43 N44 1.326 . S
C43 C47 1.460 . S
C43 H49 0.929 . S
N44 Mn37 2.257 . S
N44 C43 1.326 . S
N44 C48 1.362 . S
C45 C46 1.258 . S
C45 C48 1.431 . S
C45 C65 1.449 . S
C46 C45 1.258 . S
C46 C47 1.477 . S
C46 H66 0.931 . S
C47 C43 1.460 . S
C47 C46 1.477 . S
C47 H67 0.930 . S
C48 N44 1.362 . S
C48 C45 1.431 . S
C48 C58 1.476 . S
H49 C43 0.929 . S
C50 O41 1.250 . S
C50 O42 1.258 . S
O51 Mn36 2.162 . S
O51 C39 1.281 . S
O52 Mn36 2.297 . S
O52 C39 1.236 . S
N53 Mn37 2.282 . S
N53 C54 1.328 . S
N53 C58 1.318 . S
C54 N53 1.328 . S
C54 C55 1.457 . S
C54 H59 0.929 . S
C55 C54 1.457 . S
C55 C56 1.291 . S
C55 H68 0.931 . S
C56 C55 1.291 . S
C56 C57 1.373 . S
C56 H69 0.929 . S
C57 C56 1.373 . S
C57 C58 1.396 . S
C57 C64 1.403 . S
C58 C48 1.476 . S
C58 N53 1.318 . S
C58 C57 1.396 . S
H59 C54 0.929 . S
O60 Mn36 2.385 . S
O60 C38 1.234 . S
O61 Mn36 2.209 . S
O61 Mn37 2.215 . S
O61 C38 1.283 . S
O62 Mn36 2.094 1_556 S
O62 C40 1.240 . S
O63 Mn37 2.117 1_556 S
O63 C40 1.264 . S
C64 C57 1.403 . S
C64 C65 1.399 . S
C64 H70 0.929 . S
C65 C45 1.449 . S
C65 C64 1.399 . S
C65 H71 0.930 . S
H66 C46 0.931 . S
H67 C47 0.930 . S
H68 C55 0.931 . S
H69 C56 0.929 . S
H70 C64 0.929 . S
H71 C65 0.930 . S
Mn72 O77 2.095 1_564 S
Mn72 O87 2.162 . S
Mn72 O88 2.297 . S
Mn72 O96 2.385 . S
Mn72 O97 2.209 1_565 S
Mn72 O98 2.094 1_554 S
Mn73 O78 2.121 . S
Mn73 N80 2.257 . S
Mn73 N89 2.282 . S
Mn73 O97 2.215 . S
Mn73 O99 2.117 1_554 S
C74 O96 1.211 1_545 S
C74 O97 1.307 . S
C75 O87 1.281 . S
C75 O88 1.236 . S
C76 O98 1.242 . S
C76 O99 1.260 1_565 S
O77 Mn72 2.095 1_546 S
O77 C86 1.250 . S
O78 Mn73 2.121 . S
O78 C86 1.258 1_554 S
C79 N80 1.326 . S
C79 C83 1.460 . S
C79 H85 0.929 . S
N80 Mn73 2.257 . S
N80 C79 1.326 . S
N80 C84 1.362 . S
C81 C82 1.258 . S
C81 C84 1.431 . S
C81 C101 1.449 . S
C82 C81 1.258 . S
C82 C83 1.477 . S
C82 H102 0.931 . S
C83 C79 1.460 . S
C83 C82 1.477 . S
C83 H103 0.930 . S
C84 N80 1.362 . S
C84 C81 1.431 . S
C84 C94 1.476 . S
H85 C79 0.929 . S
C86 O77 1.250 . S
C86 O78 1.258 1_556 S
O87 Mn72 2.162 . S
O87 C75 1.281 . S
O88 Mn72 2.297 . S
O88 C75 1.236 . S
N89 Mn73 2.282 . S
N89 C90 1.328 . S
N89 C94 1.318 . S
C90 N89 1.328 . S
C90 C91 1.457 . S
C90 H95 0.929 . S
C91 C90 1.457 . S
C91 C92 1.291 . S
C91 H104 0.931 . S
C92 C91 1.291 . S
C92 C93 1.373 . S
C92 H105 0.929 . S
C93 C92 1.373 . S
C93 C94 1.396 . S
C93 C100 1.403 . S
C94 C84 1.476 . S
C94 N89 1.318 . S
C94 C93 1.396 . S
H95 C90 0.929 . S
O96 Mn72 2.385 . S
O96 C74 1.211 1_565 S
O97 Mn72 2.209 1_545 S
O97 Mn73 2.215 . S
O97 C74 1.307 . S
O98 Mn72 2.094 1_556 S
O98 C76 1.242 . S
O99 Mn73 2.117 1_556 S
O99 C76 1.260 1_545 S
C100 C93 1.403 . S
C100 C101 1.399 . S
C100 H106 0.929 . S
C101 C81 1.449 . S
C101 C100 1.399 . S
C101 H107 0.930 . S
H102 C82 0.931 . S
H103 C83 0.930 . S
H104 C91 0.931 . S
H105 C92 0.929 . S
H106 C100 0.929 . S
H107 C101 0.930 . S
Mn108 O113 2.095 1_655 S
Mn108 O123 2.162 . S
Mn108 O124 2.297 1_554 S
Mn108 O132 2.385 1_554 S
Mn108 O133 2.209 1_654 S
Mn108 O134 2.094 . S
Mn109 O114 2.121 . S
Mn109 N116 2.257 1_554 S
Mn109 N125 2.282 . S
Mn109 O133 2.215 1_554 S
Mn109 O135 2.117 . S
C110 O132 1.185 1_455 S
C110 O133 1.305 . S
C111 O123 1.281 1_556 S
C111 O124 1.236 . S
C112 O134 1.231 1_455 S
C112 O135 1.272 . S
O113 Mn108 2.095 1_455 S
O113 C122 1.250 . S
O114 Mn109 2.121 . S
O114 C122 1.258 . S
C115 N116 1.326 . S
C115 C119 1.460 . S
C115 H121 0.929 . S
N116 Mn109 2.257 1_556 S
N116 C115 1.326 . S
N116 C120 1.362 . S
C117 C118 1.258 . S
C117 C120 1.431 . S
C117 C137 1.449 . S
C118 C117 1.258 . S
C118 C119 1.477 . S
C118 H138 0.931 . S
C119 C115 1.460 . S
C119 C118 1.477 . S
C119 H139 0.930 . S
C120 N116 1.362 . S
C120 C117 1.431 . S
C120 C130 1.476 . S
H121 C115 0.929 . S
C122 O113 1.250 . S
C122 O114 1.258 . S
O123 Mn108 2.162 . S
O123 C111 1.281 1_554 S
O124 Mn108 2.297 1_556 S
O124 C111 1.236 . S
N125 Mn109 2.282 . S
N125 C126 1.328 . S
N125 C130 1.318 1_554 S
C126 N125 1.328 . S
C126 C127 1.450 1_554 S
C126 H131 0.929 . S
C127 C126 1.450 1_556 S
C127 C128 1.302 . S
C127 H140 0.927 1_556 S
C128 C127 1.302 . S
C128 C129 1.373 . S
C128 H141 0.929 . S
C129 C128 1.373 . S
C129 C130 1.396 . S
C129 C136 1.403 . S
C130 C120 1.476 . S
C130 N125 1.318 1_556 S
C130 C129 1.396 . S
H131 C126 0.929 . S
O132 Mn108 2.385 1_556 S
O132 C110 1.185 1_655 S
O133 Mn108 2.209 1_456 S
O133 Mn109 2.215 1_556 S
O133 C110 1.305 . S
O134 Mn108 2.094 . S
O134 C112 1.231 1_655 S
O135 Mn109 2.117 . S
O135 C112 1.272 . S
C136 C129 1.403 . S
C136 C137 1.399 . S
C136 H142 0.929 . S
C137 C117 1.449 . S
C137 C136 1.399 . S
C137 H143 0.930 . S
H138 C118 0.931 . S
H139 C119 0.930 . S
H140 C127 0.927 1_554 S
H141 C128 0.929 . S
H142 C136 0.929 . S
H143 C137 0.930 . S
Mn144 O149 2.095 1_554 S
Mn144 O159 2.162 . S
Mn144 O160 2.297 . S
Mn144 O168 2.385 . S
Mn144 O169 2.209 . S
Mn144 O170 2.094 1_554 S
Mn145 O150 2.121 . S
Mn145 N152 2.257 . S
Mn145 N161 2.282 . S
Mn145 O169 2.215 . S
Mn145 O171 2.117 1_554 S
C146 O168 1.234 . S
C146 O169 1.283 . S
C147 O159 1.281 . S
C147 O160 1.236 . S
C148 O170 1.240 . S
C148 O171 1.264 . S
O149 Mn144 2.095 1_556 S
O149 C158 1.250 . S
O150 Mn145 2.121 . S
O150 C158 1.258 1_554 S
C151 N152 1.326 . S
C151 C155 1.460 . S
C151 H157 0.929 . S
N152 Mn145 2.257 . S
N152 C151 1.326 . S
N152 C156 1.362 . S
C153 C154 1.258 . S
C153 C156 1.431 . S
C153 C173 1.449 . S
C154 C153 1.258 . S
C154 C155 1.477 . S
C154 H174 0.931 . S
C155 C151 1.460 . S
C155 C154 1.477 . S
C155 H175 0.930 . S
C156 N152 1.362 . S
C156 C153 1.431 . S
C156 C166 1.476 . S
H157 C151 0.929 . S
C158 O149 1.250 . S
C158 O150 1.258 1_556 S
O159 Mn144 2.162 . S
O159 C147 1.281 . S
O160 Mn144 2.297 . S
O160 C147 1.236 . S
N161 Mn145 2.282 . S
N161 C162 1.328 . S
N161 C166 1.318 . S
C162 N161 1.328 . S
C162 C163 1.457 . S
C162 H167 0.929 . S
C163 C162 1.457 . S
C163 C164 1.291 . S
C163 H176 0.931 . S
C164 C163 1.291 . S
C164 C165 1.373 . S
C164 H177 0.929 . S
C165 C164 1.373 . S
C165 C166 1.396 . S
C165 C172 1.403 . S
C166 C156 1.476 . S
C166 N161 1.318 . S
C166 C165 1.396 . S
H167 C162 0.929 . S
O168 Mn144 2.385 . S
O168 C146 1.234 . S
O169 Mn144 2.209 . S
O169 Mn145 2.215 . S
O169 C146 1.283 . S
O170 Mn144 2.094 1_556 S
O170 C148 1.240 . S
O171 Mn145 2.117 1_556 S
O171 C148 1.264 . S
C172 C165 1.403 . S
C172 C173 1.399 . S
C172 H178 0.929 . S
C173 C153 1.449 . S
C173 C172 1.399 . S
C173 H179 0.930 . S
H174 C154 0.931 . S
H175 C155 0.930 . S
H176 C163 0.931 . S
H177 C164 0.929 . S
H178 C172 0.929 . S
H179 C173 0.930 . S
Mn180 O185 2.095 1_545 S
Mn180 O195 2.162 . S
Mn180 O196 2.297 1_554 S
Mn180 O204 2.385 1_554 S
Mn180 O205 2.209 1_544 S
Mn180 O206 2.094 . S
Mn181 O186 2.121 . S
Mn181 N188 2.257 1_554 S
Mn181 N197 2.282 . S
Mn181 O205 2.215 1_554 S
Mn181 O207 2.117 . S
C182 O204 1.234 . S
C182 O205 1.283 1_545 S
C183 O195 1.331 . S
C183 O196 1.212 1_554 S
C184 O206 1.240 . S
C184 O207 1.264 1_545 S
O185 Mn180 2.095 1_565 S
O185 C194 1.250 . S
O186 Mn181 2.121 . S
O186 C194 1.258 . S
C187 N188 1.326 . S
C187 C191 1.460 . S
C187 H193 0.929 . S
N188 Mn181 2.257 1_556 S
N188 C187 1.326 . S
N188 C192 1.362 . S
C189 C190 1.258 . S
C189 C192 1.431 . S
C189 C209 1.449 . S
C190 C189 1.258 . S
C190 C191 1.477 . S
C190 H210 0.931 . S
C191 C187 1.460 . S
C191 C190 1.477 . S
C191 H211 0.930 . S
C192 N188 1.362 . S
C192 C189 1.431 . S
C192 C202 1.476 . S
H193 C187 0.929 . S
C194 O185 1.250 . S
C194 O186 1.258 . S
O195 Mn180 2.162 . S
O195 C183 1.331 . S
O196 Mn180 2.297 1_556 S
O196 C183 1.212 1_556 S
N197 Mn181 2.282 . S
N197 C198 1.328 . S
N197 C202 1.318 1_554 S
C198 N197 1.328 . S
C198 C199 1.458 1_554 S
C198 H203 0.929 . S
C199 C198 1.458 1_556 S
C199 C200 1.289 . S
C199 H212 0.931 1_556 S
C200 C199 1.289 . S
C200 C201 1.373 . S
C200 H213 0.929 . S
C201 C200 1.373 . S
C201 C202 1.396 . S
C201 C208 1.403 . S
C202 C192 1.476 . S
C202 N197 1.318 1_556 S
C202 C201 1.396 . S
H203 C198 0.929 . S
O204 Mn180 2.385 1_556 S
O204 C182 1.234 . S
O205 Mn180 2.209 1_566 S
O205 Mn181 2.215 1_556 S
O205 C182 1.283 1_565 S
O206 Mn180 2.094 . S
O206 C184 1.240 . S
O207 Mn181 2.117 . S
O207 C184 1.264 1_565 S
C208 C201 1.403 . S
C208 C209 1.399 . S
C208 H214 0.929 . S
C209 C189 1.449 . S
C209 C208 1.399 . S
C209 H215 0.930 . S
H210 C190 0.931 . S
H211 C191 0.930 . S
H212 C199 0.931 1_554 S
H213 C200 0.929 . S
H214 C208 0.929 . S
H215 C209 0.930 . S
Mn216 O221 2.095 . S
Mn216 O231 2.162 . S
Mn216 O232 2.297 . S
Mn216 O240 2.385 . S
Mn216 O241 2.209 . S
Mn216 O242 2.094 . S
Mn217 O222 2.121 . S
Mn217 N224 2.257 . S
Mn217 N233 2.282 . S
Mn217 O241 2.215 . S
Mn217 O243 2.117 . S
C218 O240 1.234 . S
C218 O241 1.283 . S
C219 O231 1.281 . S
C219 O232 1.236 . S
C220 O242 1.240 . S
C220 O243 1.264 . S
O221 Mn216 2.095 . S
O221 C230 1.250 . S
O222 Mn217 2.121 . S
O222 C230 1.258 . S
C223 N224 1.326 . S
C223 C227 1.460 . S
C223 H229 0.929 . S
N224 Mn217 2.257 . S
N224 C223 1.326 . S
N224 C228 1.362 . S
C225 C226 1.258 . S
C225 C228 1.431 . S
C225 C245 1.449 . S
C226 C225 1.258 . S
C226 C227 1.477 . S
C226 H246 0.931 . S
C227 C223 1.460 . S
C227 C226 1.477 . S
C227 H247 0.930 . S
C228 N224 1.362 . S
C228 C225 1.431 . S
C228 C238 1.476 . S
H229 C223 0.929 . S
C230 O221 1.250 . S
C230 O222 1.258 . S
O231 Mn216 2.162 . S
O231 C219 1.281 . S
O232 Mn216 2.297 . S
O232 C219 1.236 . S
N233 Mn217 2.282 . S
N233 C234 1.328 . S
N233 C238 1.318 . S
C234 N233 1.328 . S
C234 C235 1.457 . S
C234 H239 0.929 . S
C235 C234 1.457 . S
C235 C236 1.291 . S
C235 H248 0.931 . S
C236 C235 1.291 . S
C236 C237 1.373 . S
C236 H249 0.929 . S
C237 C236 1.373 . S
C237 C238 1.396 . S
C237 C244 1.403 . S
C238 C228 1.476 . S
C238 N233 1.318 . S
C238 C237 1.396 . S
H239 C234 0.929 . S
O240 Mn216 2.385 . S
O240 C218 1.234 . S
O241 Mn216 2.209 . S
O241 Mn217 2.215 . S
O241 C218 1.283 . S
O242 Mn216 2.094 . S
O242 C220 1.240 . S
O243 Mn217 2.117 . S
O243 C220 1.264 . S
C244 C237 1.403 . S
C244 C245 1.399 . S
C244 H250 0.929 . S
C245 C225 1.449 . S
C245 C244 1.399 . S
C245 H251 0.930 . S
H246 C226 0.931 . S
H247 C227 0.930 . S
H248 C235 0.931 . S
H249 C236 0.929 . S
H250 C244 0.929 . S
H251 C245 0.930 . S
Mn252 O257 2.095 . S
Mn252 O267 2.162 . S
Mn252 O268 2.297 . S
Mn252 O276 2.385 . S
Mn252 O277 2.209 . S
Mn252 O278 2.094 . S
Mn253 O258 2.121 . S
Mn253 N260 2.257 . S
Mn253 N269 2.282 . S
Mn253 O277 2.215 . S
Mn253 O279 2.117 . S
C254 O276 1.234 . S
C254 O277 1.283 . S
C255 O267 1.281 1_545 S
C255 O268 1.217 1_545 S
C256 O278 1.240 . S
C256 O279 1.264 . S
O257 Mn252 2.095 . S
O257 C266 1.250 . S
O258 Mn253 2.121 . S
O258 C266 1.258 . S
C259 N260 1.326 . S
C259 C263 1.460 . S
C259 H265 0.929 . S
N260 Mn253 2.257 . S
N260 C259 1.326 . S
N260 C264 1.362 . S
C261 C262 1.258 . S
C261 C264 1.431 . S
C261 C281 1.449 . S
C262 C261 1.258 . S
C262 C263 1.477 . S
C262 H282 0.931 . S
C263 C259 1.460 . S
C263 C262 1.477 . S
C263 H283 0.930 . S
C264 N260 1.362 . S
C264 C261 1.431 . S
C264 C274 1.476 . S
H265 C259 0.929 . S
C266 O257 1.250 . S
C266 O258 1.258 . S
O267 Mn252 2.162 . S
O267 C255 1.281 1_565 S
O268 Mn252 2.297 . S
O268 C255 1.217 1_565 S
N269 Mn253 2.282 . S
N269 C270 1.328 . S
N269 C274 1.318 . S
C270 N269 1.328 . S
C270 C271 1.457 . S
C270 H275 0.929 . S
C271 C270 1.457 . S
C271 C272 1.291 . S
C271 H284 0.931 . S
C272 C271 1.291 . S
C272 C273 1.373 . S
C272 H285 0.929 . S
C273 C272 1.373 . S
C273 C274 1.396 . S
C273 C280 1.403 . S
C274 C264 1.476 . S
C274 N269 1.318 . S
C274 C273 1.396 . S
H275 C270 0.929 . S
O276 Mn252 2.385 . S
O276 C254 1.234 . S
O277 Mn252 2.209 . S
O277 Mn253 2.215 . S
O277 C254 1.283 . S
O278 Mn252 2.094 . S
O278 C256 1.240 . S
O279 Mn253 2.117 . S
O279 C256 1.264 . S
C280 C273 1.403 . S
C280 C281 1.399 . S
C280 H286 0.929 . S
C281 C261 1.449 . S
C281 C280 1.399 . S
C281 H287 0.930 . S
H282 C262 0.931 . S
H283 C263 0.930 . S
H284 C271 0.931 . S
H285 C272 0.929 . S
H286 C280 0.929 . S
H287 C281 0.930 . S
Mn288 O293 2.095 . S
Mn288 O303 2.162 . S
Mn288 O304 2.297 . S
Mn288 O312 2.385 . S
Mn288 O313 2.209 . S
Mn288 O314 2.094 . S
Mn289 O294 2.121 . S
Mn289 N296 2.257 . S
Mn289 N305 2.282 . S
Mn289 O313 2.215 . S
Mn289 O315 2.117 . S
C290 O312 1.234 . S
C290 O313 1.283 . S
C291 O303 1.261 1_655 S
C291 O304 1.230 1_655 S
C292 O314 1.240 . S
C292 O315 1.264 . S
O293 Mn288 2.095 . S
O293 C302 1.250 . S
O294 Mn289 2.121 . S
O294 C302 1.258 . S
C295 N296 1.326 . S
C295 C299 1.460 . S
C295 H301 0.929 . S
N296 Mn289 2.257 . S
N296 C295 1.326 . S
N296 C300 1.362 . S
C297 C298 1.258 . S
C297 C300 1.431 . S
C297 C317 1.449 . S
C298 C297 1.258 . S
C298 C299 1.477 . S
C298 H318 0.931 . S
C299 C295 1.460 . S
C299 C298 1.477 . S
C299 H319 0.930 . S
C300 N296 1.362 . S
C300 C297 1.431 . S
C300 C310 1.476 . S
H301 C295 0.929 . S
C302 O293 1.250 . S
C302 O294 1.258 . S
O303 Mn288 2.162 . S
O303 C291 1.261 1_455 S
O304 Mn288 2.297 . S
O304 C291 1.230 1_455 S
N305 Mn289 2.282 . S
N305 C306 1.328 . S
N305 C310 1.318 . S
C306 N305 1.328 . S
C306 C307 1.457 . S
C306 H311 0.929 . S
C307 C306 1.457 . S
C307 C308 1.291 . S
C307 H320 0.931 . S
C308 C307 1.291 . S
C308 C309 1.373 . S
C308 H321 0.929 . S
C309 C308 1.373 . S
C309 C310 1.396 . S
C309 C316 1.403 . S
C310 C300 1.476 . S
C310 N305 1.318 . S
C310 C309 1.396 . S
H311 C306 0.929 . S
O312 Mn288 2.385 . S
O312 C290 1.234 . S
O313 Mn288 2.209 . S
O313 Mn289 2.215 . S
O313 C290 1.283 . S
O314 Mn288 2.094 . S
O314 C292 1.240 . S
O315 Mn289 2.117 . S
O315 C292 1.264 . S
C316 C309 1.403 . S
C316 C317 1.399 . S
C316 H322 0.929 . S
C317 C297 1.449 . S
C317 C316 1.399 . S
C317 H323 0.930 . S
H318 C298 0.931 . S
H319 C299 0.930 . S
H320 C307 0.931 . S
H321 C308 0.929 . S
H322 C316 0.929 . S
H323 C317 0.930 . S
Mn324 O329 2.095 . S
Mn324 O339 2.162 . S
Mn324 O340 2.297 . S
Mn324 O348 2.385 . S
Mn324 O349 2.209 . S
Mn324 O350 2.094 . S
Mn325 O330 2.121 . S
Mn325 N332 2.257 . S
Mn325 N341 2.282 . S
Mn325 O349 2.215 . S
Mn325 O351 2.117 . S
C326 O348 1.234 . S
C326 O349 1.283 . S
C327 O339 1.281 . S
C327 O340 1.236 . S
C328 O350 1.240 . S
C328 O351 1.264 . S
O329 Mn324 2.095 . S
O329 C338 1.250 . S
O330 Mn325 2.121 . S
O330 C338 1.258 . S
C331 N332 1.326 . S
C331 C335 1.460 . S
C331 H337 0.929 . S
N332 Mn325 2.257 . S
N332 C331 1.326 . S
N332 C336 1.362 . S
C333 C334 1.258 . S
C333 C336 1.431 . S
C333 C353 1.449 . S
C334 C333 1.258 . S
C334 C335 1.477 . S
C334 H354 0.931 . S
C335 C331 1.460 . S
C335 C334 1.477 . S
C335 H355 0.930 1_565 S
C336 N332 1.362 . S
C336 C333 1.431 . S
C336 C346 1.476 . S
H337 C331 0.929 . S
C338 O329 1.250 . S
C338 O330 1.258 . S
O339 Mn324 2.162 . S
O339 C327 1.281 . S
O340 Mn324 2.297 . S
O340 C327 1.236 . S
N341 Mn325 2.282 . S
N341 C342 1.328 . S
N341 C346 1.318 . S
C342 N341 1.328 . S
C342 C343 1.457 . S
C342 H347 0.929 . S
C343 C342 1.457 . S
C343 C344 1.291 . S
C343 H356 0.931 . S
C344 C343 1.291 . S
C344 C345 1.373 . S
C344 H357 0.929 . S
C345 C344 1.373 . S
C345 C346 1.396 . S
C345 C352 1.403 . S
C346 C336 1.476 . S
C346 N341 1.318 . S
C346 C345 1.396 . S
H347 C342 0.929 . S
O348 Mn324 2.385 . S
O348 C326 1.234 . S
O349 Mn324 2.209 . S
O349 Mn325 2.215 . S
O349 C326 1.283 . S
O350 Mn324 2.094 . S
O350 C328 1.240 . S
O351 Mn325 2.117 . S
O351 C328 1.264 . S
C352 C345 1.403 . S
C352 C353 1.399 . S
C352 H358 0.929 . S
C353 C333 1.449 . S
C353 C352 1.399 . S
C353 H359 0.930 . S
H354 C334 0.931 . S
H355 C335 0.930 1_545 S
H356 C343 0.931 . S
H357 C344 0.929 . S
H358 C352 0.929 . S
H359 C353 0.930 . S
Mn360 O365 2.095 . S
Mn360 O375 2.162 . S
Mn360 O376 2.297 . S
Mn360 O384 2.385 . S
Mn360 O385 2.209 . S
Mn360 O386 2.094 . S
Mn361 O366 2.121 . S
Mn361 N368 2.257 . S
Mn361 N377 2.282 . S
Mn361 O385 2.215 . S
Mn361 O387 2.117 . S
C362 O384 1.234 . S
C362 O385 1.283 . S
C363 O375 1.281 . S
C363 O376 1.236 . S
C364 O386 1.240 . S
C364 O387 1.264 . S
O365 Mn360 2.095 . S
O365 C374 1.250 . S
O366 Mn361 2.121 . S
O366 C374 1.258 . S
C367 N368 1.326 . S
C367 C371 1.460 . S
C367 H373 0.929 . S
N368 Mn361 2.257 . S
N368 C367 1.326 . S
N368 C372 1.362 . S
C369 C370 1.258 . S
C369 C372 1.431 . S
C369 C389 1.449 . S
C370 C369 1.258 . S
C370 C371 1.477 . S
C370 H390 0.931 . S
C371 C367 1.460 . S
C371 C370 1.477 . S
C371 H391 0.930 . S
C372 N368 1.362 . S
C372 C369 1.431 . S
C372 C382 1.476 . S
H373 C367 0.929 . S
C374 O365 1.250 . S
C374 O366 1.258 . S
O375 Mn360 2.162 . S
O375 C363 1.281 . S
O376 Mn360 2.297 . S
O376 C363 1.236 . S
N377 Mn361 2.282 . S
N377 C378 1.328 . S
N377 C382 1.318 . S
C378 N377 1.328 . S
C378 C379 1.457 . S
C378 H383 0.929 . S
C379 C378 1.457 . S
C379 C380 1.291 . S
C379 H392 0.931 . S
C380 C379 1.291 . S
C380 C381 1.373 . S
C380 H393 0.929 . S
C381 C380 1.373 . S
C381 C382 1.396 . S
C381 C388 1.403 . S
C382 C372 1.476 . S
C382 N377 1.318 . S
C382 C381 1.396 . S
H383 C378 0.929 . S
O384 Mn360 2.385 . S
O384 C362 1.234 . S
O385 Mn360 2.209 . S
O385 Mn361 2.215 . S
O385 C362 1.283 . S
O386 Mn360 2.094 . S
O386 C364 1.240 . S
O387 Mn361 2.117 . S
O387 C364 1.264 . S
C388 C381 1.403 . S
C388 C389 1.399 . S
C388 H394 0.929 . S
C389 C369 1.449 . S
C389 C388 1.399 . S
C389 H395 0.930 . S
H390 C370 0.931 . S
H391 C371 0.930 . S
H392 C379 0.931 . S
H393 C380 0.929 . S
H394 C388 0.929 . S
H395 C389 0.930 . S
Mn396 O401 2.095 . S
Mn396 O411 2.162 . S
Mn396 O412 2.297 . S
Mn396 O420 2.385 . S
Mn396 O421 2.209 . S
Mn396 O422 2.094 . S
Mn397 O402 2.121 . S
Mn397 N404 2.257 . S
Mn397 N413 2.282 . S
Mn397 O421 2.215 . S
Mn397 O423 2.117 . S
C398 O420 1.234 . S
C398 O421 1.283 . S
C399 O411 1.281 . S
C399 O412 1.236 . S
C400 O422 1.240 . S
C400 O423 1.264 . S
O401 Mn396 2.095 . S
O401 C410 1.250 . S
O402 Mn397 2.121 . S
O402 C410 1.258 . S
C403 N404 1.326 . S
C403 C407 1.460 . S
C403 H409 0.929 . S
N404 Mn397 2.257 . S
N404 C403 1.326 . S
N404 C408 1.362 . S
C405 C406 1.258 . S
C405 C408 1.431 . S
C405 C425 1.449 . S
C406 C405 1.258 . S
C406 C407 1.477 . S
C406 H426 0.931 . S
C407 C403 1.460 . S
C407 C406 1.477 . S
C407 H427 0.930 . S
C408 N404 1.362 . S
C408 C405 1.431 . S
C408 C418 1.476 . S
H409 C403 0.929 . S
C410 O401 1.250 . S
C410 O402 1.258 . S
O411 Mn396 2.162 . S
O411 C399 1.281 . S
O412 Mn396 2.297 . S
O412 C399 1.236 . S
N413 Mn397 2.282 . S
N413 C414 1.328 . S
N413 C418 1.318 . S
C414 N413 1.328 . S
C414 C415 1.457 . S
C414 H419 0.929 . S
C415 C414 1.457 . S
C415 C416 1.291 . S
C415 H428 0.931 . S
C416 C415 1.291 . S
C416 C417 1.373 . S
C416 H429 0.929 . S
C417 C416 1.373 . S
C417 C418 1.396 . S
C417 C424 1.403 . S
C418 C408 1.476 . S
C418 N413 1.318 . S
C418 C417 1.396 . S
H419 C414 0.929 . S
O420 Mn396 2.385 . S
O420 C398 1.234 . S
O421 Mn396 2.209 . S
O421 Mn397 2.215 . S
O421 C398 1.283 . S
O422 Mn396 2.094 . S
O422 C400 1.240 . S
O423 Mn397 2.117 . S
O423 C400 1.264 . S
C424 C417 1.403 . S
C424 C425 1.399 . S
C424 H430 0.929 . S
C425 C405 1.449 . S
C425 C424 1.399 . S
C425 H431 0.930 . S
H426 C406 0.931 . S
H427 C407 0.930 . S
H428 C415 0.931 . S
H429 C416 0.929 . S
H430 C424 0.929 . S
H431 C425 0.930 . S
Mn432 O437 2.095 . S
Mn432 O447 2.162 . S
Mn432 O448 2.297 . S
Mn432 O456 2.385 . S
Mn432 O457 2.209 . S
Mn432 O458 2.094 . S
Mn433 O438 2.121 . S
Mn433 N440 2.257 . S
Mn433 N449 2.282 . S
Mn433 O457 2.215 . S
Mn433 O459 2.117 . S
C434 O456 1.234 . S
C434 O457 1.283 . S
C435 O447 1.281 . S
C435 O448 1.236 . S
C436 O458 1.240 . S
C436 O459 1.264 . S
O437 Mn432 2.095 . S
O437 C446 1.250 . S
O438 Mn433 2.121 . S
O438 C446 1.258 . S
C439 N440 1.326 . S
C439 C443 1.460 . S
C439 H445 0.929 . S
N440 Mn433 2.257 . S
N440 C439 1.326 . S
N440 C444 1.362 . S
C441 C442 1.258 . S
C441 C444 1.431 . S
C441 C461 1.449 . S
C442 C441 1.258 . S
C442 C443 1.477 . S
C442 H462 0.931 . S
C443 C439 1.460 . S
C443 C442 1.477 . S
C443 H463 0.930 . S
C444 N440 1.362 . S
C444 C441 1.431 . S
C444 C454 1.476 . S
H445 C439 0.929 . S
C446 O437 1.250 . S
C446 O438 1.258 . S
O447 Mn432 2.162 . S
O447 C435 1.281 . S
O448 Mn432 2.297 . S
O448 C435 1.236 . S
N449 Mn433 2.282 . S
N449 C450 1.328 . S
N449 C454 1.318 . S
C450 N449 1.328 . S
C450 C451 1.457 . S
C450 H455 0.929 . S
C451 C450 1.457 . S
C451 C452 1.291 . S
C451 H464 0.931 . S
C452 C451 1.291 . S
C452 C453 1.373 . S
C452 H465 0.929 . S
C453 C452 1.373 . S
C453 C454 1.396 . S
C453 C460 1.403 . S
C454 C444 1.476 . S
C454 N449 1.318 . S
C454 C453 1.396 . S
H455 C450 0.929 . S
O456 Mn432 2.385 . S
O456 C434 1.234 . S
O457 Mn432 2.209 . S
O457 Mn433 2.215 . S
O457 C434 1.283 . S
O458 Mn432 2.094 . S
O458 C436 1.240 . S
O459 Mn433 2.117 . S
O459 C436 1.264 . S
C460 C453 1.403 . S
C460 C461 1.399 . S
C460 H466 0.929 . S
C461 C441 1.449 . S
C461 C460 1.399 . S
C461 H467 0.930 . S
H462 C442 0.931 . S
H463 C443 0.930 . S
H464 C451 0.931 . S
H465 C452 0.929 . S
H466 C460 0.929 . S
H467 C461 0.930 . S
Mn468 O473 2.095 . S
Mn468 O483 2.162 . S
Mn468 O484 2.297 . S
Mn468 O492 2.385 . S
Mn468 O493 2.209 . S
Mn468 O494 2.094 . S
Mn469 O474 2.121 . S
Mn469 N476 2.257 . S
Mn469 N485 2.282 . S
Mn469 O493 2.215 . S
Mn469 O495 2.117 . S
C470 O492 1.234 . S
C470 O493 1.283 . S
C471 O483 1.281 . S
C471 O484 1.236 . S
C472 O494 1.240 . S
C472 O495 1.264 . S
O473 Mn468 2.095 . S
O473 C482 1.250 . S
O474 Mn469 2.121 . S
O474 C482 1.258 . S
C475 N476 1.326 . S
C475 C479 1.460 . S
C475 H481 0.929 . S
N476 Mn469 2.257 . S
N476 C475 1.326 . S
N476 C480 1.362 . S
C477 C478 1.258 . S
C477 C480 1.431 . S
C477 C497 1.449 . S
C478 C477 1.258 . S
C478 C479 1.477 . S
C478 H498 0.931 . S
C479 C475 1.460 . S
C479 C478 1.477 . S
C479 H499 0.930 1_655 S
C480 N476 1.362 . S
C480 C477 1.431 . S
C480 C490 1.476 . S
H481 C475 0.929 . S
C482 O473 1.250 . S
C482 O474 1.258 . S
O483 Mn468 2.162 . S
O483 C471 1.281 . S
O484 Mn468 2.297 . S
O484 C471 1.236 . S
N485 Mn469 2.282 . S
N485 C486 1.328 . S
N485 C490 1.318 . S
C486 N485 1.328 . S
C486 C487 1.457 . S
C486 H491 0.929 . S
C487 C486 1.457 . S
C487 C488 1.291 . S
C487 H500 0.931 . S
C488 C487 1.291 . S
C488 C489 1.373 . S
C488 H501 0.929 . S
C489 C488 1.373 . S
C489 C490 1.396 . S
C489 C496 1.403 . S
C490 C480 1.476 . S
C490 N485 1.318 . S
C490 C489 1.396 . S
H491 C486 0.929 . S
O492 Mn468 2.385 . S
O492 C470 1.234 . S
O493 Mn468 2.209 . S
O493 Mn469 2.215 . S
O493 C470 1.283 . S
O494 Mn468 2.094 . S
O494 C472 1.240 . S
O495 Mn469 2.117 . S
O495 C472 1.264 . S
C496 C489 1.403 . S
C496 C497 1.399 . S
C496 H502 0.929 . S
C497 C477 1.449 . S
C497 C496 1.399 . S
C497 H503 0.930 . S
H498 C478 0.931 . S
H499 C479 0.930 1_455 S
H500 C487 0.931 . S
H501 C488 0.929 . S
H502 C496 0.929 . S
H503 C497 0.930 . S
Mn504 O509 2.095 . S
Mn504 O519 2.162 . S
Mn504 O520 2.297 . S
Mn504 O528 2.385 . S
Mn504 O529 2.209 . S
Mn504 O530 2.094 . S
Mn505 O510 2.121 . S
Mn505 N512 2.257 . S
Mn505 N521 2.282 . S
Mn505 O529 2.215 . S
Mn505 O531 2.117 . S
C506 O528 1.234 . S
C506 O529 1.283 . S
C507 O519 1.281 . S
C507 O520 1.236 . S
C508 O530 1.240 . S
C508 O531 1.264 . S
O509 Mn504 2.095 . S
O509 C518 1.250 . S
O510 Mn505 2.121 . S
O510 C518 1.258 . S
C511 N512 1.326 . S
C511 C515 1.460 . S
C511 H517 0.929 . S
N512 Mn505 2.257 . S
N512 C511 1.326 . S
N512 C516 1.362 . S
C513 C514 1.258 . S
C513 C516 1.431 . S
C513 C533 1.449 . S
C514 C513 1.258 . S
C514 C515 1.477 . S
C514 H534 0.931 . S
C515 C511 1.460 . S
C515 C514 1.477 . S
C515 H535 0.930 . S
C516 N512 1.362 . S
C516 C513 1.431 . S
C516 C526 1.476 . S
H517 C511 0.929 . S
C518 O509 1.250 . S
C518 O510 1.258 . S
O519 Mn504 2.162 . S
O519 C507 1.281 . S
O520 Mn504 2.297 . S
O520 C507 1.236 . S
N521 Mn505 2.282 . S
N521 C522 1.328 . S
N521 C526 1.318 . S
C522 N521 1.328 . S
C522 C523 1.457 . S
C522 H527 0.929 . S
C523 C522 1.457 . S
C523 C524 1.291 . S
C523 H536 0.931 . S
C524 C523 1.291 . S
C524 C525 1.373 . S
C524 H537 0.929 . S
C525 C524 1.373 . S
C525 C526 1.396 . S
C525 C532 1.403 . S
C526 C516 1.476 . S
C526 N521 1.318 . S
C526 C525 1.396 . S
H527 C522 0.929 . S
O528 Mn504 2.385 . S
O528 C506 1.234 . S
O529 Mn504 2.209 . S
O529 Mn505 2.215 . S
O529 C506 1.283 . S
O530 Mn504 2.094 . S
O530 C508 1.240 . S
O531 Mn505 2.117 . S
O531 C508 1.264 . S
C532 C525 1.403 . S
C532 C533 1.399 . S
C532 H538 0.929 . S
C533 C513 1.449 . S
C533 C532 1.399 . S
C533 H539 0.930 . S
H534 C514 0.931 . S
H535 C515 0.930 . S
H536 C523 0.931 . S
H537 C524 0.929 . S
H538 C532 0.929 . S
H539 C533 0.930 . S
Mn540 O545 2.095 . S
Mn540 O555 2.162 . S
Mn540 O556 2.297 . S
Mn540 O564 2.385 . S
Mn540 O565 2.209 . S
Mn540 O566 2.094 . S
Mn541 O546 2.121 . S
Mn541 N548 2.257 . S
Mn541 N557 2.282 . S
Mn541 O565 2.215 . S
Mn541 O567 2.117 . S
C542 O564 1.234 . S
C542 O565 1.283 . S
C543 O555 1.281 . S
C543 O556 1.236 . S
C544 O566 1.240 . S
C544 O567 1.264 . S
O545 Mn540 2.095 . S
O545 C554 1.250 . S
O546 Mn541 2.121 . S
O546 C554 1.258 . S
C547 N548 1.326 . S
C547 C551 1.460 . S
C547 H553 0.929 . S
N548 Mn541 2.257 . S
N548 C547 1.326 . S
N548 C552 1.362 . S
C549 C550 1.258 . S
C549 C552 1.431 . S
C549 C569 1.449 . S
C550 C549 1.258 . S
C550 C551 1.477 . S
C550 H570 0.931 . S
C551 C547 1.460 . S
C551 C550 1.477 . S
C551 H571 0.930 . S
C552 N548 1.362 . S
C552 C549 1.431 . S
C552 C562 1.476 . S
H553 C547 0.929 . S
C554 O545 1.250 . S
C554 O546 1.258 . S
O555 Mn540 2.162 . S
O555 C543 1.281 . S
O556 Mn540 2.297 . S
O556 C543 1.236 . S
N557 Mn541 2.282 . S
N557 C558 1.328 . S
N557 C562 1.318 . S
C558 N557 1.328 . S
C558 C559 1.457 . S
C558 H563 0.929 . S
C559 C558 1.457 . S
C559 C560 1.291 . S
C559 H572 0.931 . S
C560 C559 1.291 . S
C560 C561 1.373 . S
C560 H573 0.929 . S
C561 C560 1.373 . S
C561 C562 1.396 . S
C561 C568 1.403 . S
C562 C552 1.476 . S
C562 N557 1.318 . S
C562 C561 1.396 . S
H563 C558 0.929 . S
O564 Mn540 2.385 . S
O564 C542 1.234 . S
O565 Mn540 2.209 . S
O565 Mn541 2.215 . S
O565 C542 1.283 . S
O566 Mn540 2.094 . S
O566 C544 1.240 . S
O567 Mn541 2.117 . S
O567 C544 1.264 . S
C568 C561 1.403 . S
C568 C569 1.399 . S
C568 H574 0.929 . S
C569 C549 1.449 . S
C569 C568 1.399 . S
C569 H575 0.930 . S
H570 C550 0.931 . S
H571 C551 0.930 . S
H572 C559 0.931 . S
H573 C560 0.929 . S
H574 C568 0.929 . S
H575 C569 0.930 . S
Mn576 O581 2.095 . S
Mn576 O591 2.162 . S
Mn576 O592 2.297 . S
Mn576 O600 2.385 . S
Mn576 O601 2.209 . S
Mn576 O602 2.094 . S
Mn577 O582 2.121 . S
Mn577 N584 2.257 . S
Mn577 N593 2.282 . S
Mn577 O601 2.215 . S
Mn577 O603 2.117 . S
C578 O600 1.234 . S
C578 O601 1.283 . S
C579 O591 1.281 . S
C579 O592 1.236 . S
C580 O602 1.240 . S
C580 O603 1.264 . S
O581 Mn576 2.095 . S
O581 C590 1.250 . S
O582 Mn577 2.121 . S
O582 C590 1.258 . S
C583 N584 1.326 . S
C583 C587 1.460 . S
C583 H589 0.929 . S
N584 Mn577 2.257 . S
N584 C583 1.326 . S
N584 C588 1.362 . S
C585 C586 1.258 . S
C585 C588 1.431 . S
C585 C605 1.449 . S
C586 C585 1.258 . S
C586 C587 1.477 . S
C586 H606 0.931 . S
C587 C583 1.460 . S
C587 C586 1.477 . S
C587 H607 0.930 1_545 S
C588 N584 1.362 . S
C588 C585 1.431 . S
C588 C598 1.476 . S
H589 C583 0.929 . S
C590 O581 1.250 . S
C590 O582 1.258 . S
O591 Mn576 2.162 . S
O591 C579 1.281 . S
O592 Mn576 2.297 . S
O592 C579 1.236 . S
N593 Mn577 2.282 . S
N593 C594 1.328 . S
N593 C598 1.318 . S
C594 N593 1.328 . S
C594 C595 1.457 . S
C594 H599 0.929 . S
C595 C594 1.457 . S
C595 C596 1.291 . S
C595 H608 0.931 . S
C596 C595 1.291 . S
C596 C597 1.373 . S
C596 H609 0.929 . S
C597 C596 1.373 . S
C597 C598 1.396 . S
C597 C604 1.403 . S
C598 C588 1.476 . S
C598 N593 1.318 . S
C598 C597 1.396 . S
H599 C594 0.929 . S
O600 Mn576 2.385 . S
O600 C578 1.234 . S
O601 Mn576 2.209 . S
O601 Mn577 2.215 . S
O601 C578 1.283 . S
O602 Mn576 2.094 . S
O602 C580 1.240 . S
O603 Mn577 2.117 . S
O603 C580 1.264 . S
C604 C597 1.403 . S
C604 C605 1.399 . S
C604 H610 0.929 . S
C605 C585 1.449 . S
C605 C604 1.399 . S
C605 H611 0.930 . S
H606 C586 0.931 . S
H607 C587 0.930 1_565 S
H608 C595 0.931 . S
H609 C596 0.929 . S
H610 C604 0.929 . S
H611 C605 0.930 . S
Mn612 O617 2.095 . S
Mn612 O627 2.162 . S
Mn612 O628 2.297 . S
Mn612 O636 2.385 . S
Mn612 O637 2.209 . S
Mn612 O638 2.094 . S
Mn613 O618 2.121 . S
Mn613 N620 2.257 . S
Mn613 N629 2.282 . S
Mn613 O637 2.215 . S
Mn613 O639 2.117 . S
C614 O636 1.234 . S
C614 O637 1.283 . S
C615 O627 1.282 1_455 S
C615 O628 1.236 1_455 S
C616 O638 1.240 . S
C616 O639 1.264 . S
O617 Mn612 2.095 . S
O617 C626 1.250 . S
O618 Mn613 2.121 . S
O618 C626 1.258 . S
C619 N620 1.326 . S
C619 C623 1.460 . S
C619 H625 0.929 . S
N620 Mn613 2.257 . S
N620 C619 1.326 . S
N620 C624 1.362 . S
C621 C622 1.258 . S
C621 C624 1.431 . S
C621 C641 1.449 . S
C622 C621 1.258 . S
C622 C623 1.477 . S
C622 H642 0.931 . S
C623 C619 1.460 . S
C623 C622 1.477 . S
C623 H643 0.930 . S
C624 N620 1.362 . S
C624 C621 1.431 . S
C624 C634 1.476 . S
H625 C619 0.929 . S
C626 O617 1.250 . S
C626 O618 1.258 . S
O627 Mn612 2.162 . S
O627 C615 1.282 1_655 S
O628 Mn612 2.297 . S
O628 C615 1.236 1_655 S
N629 Mn613 2.282 . S
N629 C630 1.328 . S
N629 C634 1.318 . S
C630 N629 1.328 . S
C630 C631 1.457 . S
C630 H635 0.929 . S
C631 C630 1.457 . S
C631 C632 1.291 . S
C631 H644 0.931 . S
C632 C631 1.291 . S
C632 C633 1.373 . S
C632 H645 0.929 . S
C633 C632 1.373 . S
C633 C634 1.396 . S
C633 C640 1.403 . S
C634 C624 1.476 . S
C634 N629 1.318 . S
C634 C633 1.396 . S
H635 C630 0.929 . S
O636 Mn612 2.385 . S
O636 C614 1.234 . S
O637 Mn612 2.209 . S
O637 Mn613 2.215 . S
O637 C614 1.283 . S
O638 Mn612 2.094 . S
O638 C616 1.240 . S
O639 Mn613 2.117 . S
O639 C616 1.264 . S
C640 C633 1.403 . S
C640 C641 1.399 . S
C640 H646 0.929 . S
C641 C621 1.449 . S
C641 C640 1.399 . S
C641 H647 0.930 . S
H642 C622 0.931 . S
H643 C623 0.930 . S
H644 C631 0.931 . S
H645 C632 0.929 . S
H646 C640 0.929 . S
H647 C641 0.930 . S
H648 C675 0.929 . S
N649 C674 1.433 . S
N649 C680 1.435 . S
N649 C686 1.423 . S
H650 C676 0.930 . S
H651 C679 0.931 . S
H652 C678 0.929 . S
H653 C681 0.930 . S
H654 C682 0.932 . S
H655 C685 0.929 . S
H656 C684 0.931 . S
H657 C687 0.929 . S
H658 C691 0.932 . S
H659 C688 0.931 . S
H660 C690 0.929 . S
H661 C693 0.929 . S
H662 C694 0.930 . S
H663 C696 0.929 . S
H664 C697 0.931 . S
H665 C699 0.930 . S
H666 C700 0.932 . S
H667 C702 0.931 . S
H668 C703 0.929 . S
H669 C705 0.929 . S
H670 C706 0.931 . S
H671 C708 0.929 . S
N672 C692 1.433 . S
N672 C698 1.435 . S
N672 C704 1.423 . S
H673 C709 0.932 . S
C674 N649 1.433 . S
C674 C675 1.363 . S
C674 C679 1.370 . S
C675 H648 0.929 . S
C675 C674 1.363 . S
C675 C676 1.385 . S
C676 H650 0.930 . S
C676 C675 1.385 . S
C676 C677 1.357 . S
C677 C676 1.357 . S
C677 C678 1.406 . S
C678 H652 0.929 . S
C678 C677 1.406 . S
C678 C679 1.391 . S
C679 H651 0.931 . S
C679 C674 1.370 . S
C679 C678 1.391 . S
C680 N649 1.435 . S
C680 C681 1.358 . S
C680 C685 1.371 . S
C681 H653 0.930 . S
C681 C680 1.358 . S
C681 C682 1.405 . S
C682 H654 0.932 . S
C682 C681 1.405 . S
C682 C683 1.383 . S
C683 C682 1.383 . S
C683 C684 1.393 . S
C684 H656 0.931 . S
C684 C683 1.393 . S
C684 C685 1.382 . S
C685 H655 0.929 . S
C685 C680 1.371 . S
C685 C684 1.382 . S
C686 N649 1.423 . S
C686 C687 1.362 . S
C686 C691 1.388 . S
C687 H657 0.929 . S
C687 C686 1.362 . S
C687 C688 1.376 . S
C688 H659 0.931 . S
C688 C687 1.376 . S
C688 C689 1.396 . S
C689 C688 1.396 . S
C689 C690 1.348 . S
C689 C707 1.472 . S
C690 H660 0.929 . S
C690 C689 1.348 . S
C690 C691 1.443 . S
C691 H658 0.932 . S
C691 C686 1.388 . S
C691 C690 1.443 . S
C692 N672 1.433 . S
C692 C693 1.363 . S
C692 C697 1.370 . S
C693 H661 0.929 . S
C693 C692 1.363 . S
C693 C694 1.385 . S
C694 H662 0.930 . S
C694 C693 1.385 . S
C694 C695 1.357 . S
C695 C694 1.357 . S
C695 C696 1.406 . S
C696 H663 0.929 . S
C696 C695 1.406 . S
C696 C697 1.391 . S
C697 H664 0.931 . S
C697 C692 1.370 . S
C697 C696 1.391 . S
C698 N672 1.435 . S
C698 C699 1.358 . S
C698 C703 1.371 . S
C699 H665 0.930 . S
C699 C698 1.358 . S
C699 C700 1.405 . S
C700 H666 0.932 . S
C700 C699 1.405 . S
C700 C701 1.383 . S
C701 C700 1.383 . S
C701 C702 1.393 . S
C702 H667 0.931 . S
C702 C701 1.393 . S
C702 C703 1.382 . S
C703 H668 0.929 . S
C703 C698 1.371 . S
C703 C702 1.382 . S
C704 N672 1.423 . S
C704 C705 1.362 . S
C704 C709 1.388 . S
C705 H669 0.929 . S
C705 C704 1.362 . S
C705 C706 1.376 . S
C706 H670 0.931 . S
C706 C705 1.376 . S
C706 C707 1.396 . S
C707 C689 1.472 . S
C707 C706 1.396 . S
C707 C708 1.348 . S
C708 H671 0.929 . S
C708 C707 1.348 . S
C708 C709 1.443 . S
C709 H673 0.932 . S
C709 C704 1.388 . S
C709 C708 1.443 . S
H710 C737 0.929 . S
N711 C736 1.433 . S
N711 C742 1.435 . S
N711 C748 1.423 . S
H712 C738 0.930 . S
H713 C741 0.931 . S
H714 C740 0.929 . S
H715 C743 0.930 . S
H716 C744 0.932 . S
H717 C747 0.929 . S
H718 C746 0.931 . S
H719 C749 0.929 . S
H720 C753 0.932 . S
H721 C750 0.931 . S
H722 C752 0.929 . S
H723 C755 0.929 . S
H724 C756 0.930 . S
H725 C758 0.929 . S
H726 C759 0.931 . S
H727 C761 0.930 . S
H728 C762 0.932 . S
H729 C764 0.931 . S
H730 C765 0.929 . S
H731 C767 0.929 . S
H732 C768 0.931 . S
H733 C770 0.929 . S
N734 C754 1.433 . S
N734 C760 1.435 . S
N734 C766 1.423 . S
H735 C771 0.932 . S
C736 N711 1.433 . S
C736 C737 1.363 . S
C736 C741 1.370 . S
C737 H710 0.929 . S
C737 C736 1.363 . S
C737 C738 1.385 . S
C738 H712 0.930 . S
C738 C737 1.385 . S
C738 C739 1.357 . S
C739 C738 1.357 . S
C739 C740 1.406 . S
C740 H714 0.929 . S
C740 C739 1.406 . S
C740 C741 1.391 . S
C741 H713 0.931 . S
C741 C736 1.370 . S
C741 C740 1.391 . S
C742 N711 1.435 . S
C742 C743 1.358 . S
C742 C747 1.371 . S
C743 H715 0.930 . S
C743 C742 1.358 . S
C743 C744 1.405 . S
C744 H716 0.932 . S
C744 C743 1.405 . S
C744 C745 1.383 . S
C745 C744 1.383 . S
C745 C746 1.393 . S
C746 H718 0.931 . S
C746 C745 1.393 . S
C746 C747 1.382 . S
C747 H717 0.929 . S
C747 C742 1.371 . S
C747 C746 1.382 . S
C748 N711 1.423 . S
C748 C749 1.362 . S
C748 C753 1.388 . S
C749 H719 0.929 . S
C749 C748 1.362 . S
C749 C750 1.376 . S
C750 H721 0.931 . S
C750 C749 1.376 . S
C750 C751 1.396 . S
C751 C750 1.396 . S
C751 C752 1.348 . S
C751 C769 1.472 . S
C752 H722 0.929 . S
C752 C751 1.348 . S
C752 C753 1.443 . S
C753 H720 0.932 . S
C753 C748 1.388 . S
C753 C752 1.443 . S
C754 N734 1.433 . S
C754 C755 1.363 . S
C754 C759 1.370 . S
C755 H723 0.929 . S
C755 C754 1.363 . S
C755 C756 1.385 . S
C756 H724 0.930 . S
C756 C755 1.385 . S
C756 C757 1.357 . S
C757 C756 1.357 . S
C757 C758 1.406 . S
C758 H725 0.929 . S
C758 C757 1.406 . S
C758 C759 1.391 . S
C759 H726 0.931 . S
C759 C754 1.370 . S
C759 C758 1.391 . S
C760 N734 1.435 . S
C760 C761 1.358 . S
C760 C765 1.371 . S
C761 H727 0.930 . S
C761 C760 1.358 . S
C761 C762 1.405 . S
C762 H728 0.932 . S
C762 C761 1.405 . S
C762 C763 1.383 . S
C763 C762 1.383 . S
C763 C764 1.393 . S
C764 H729 0.931 . S
C764 C763 1.393 . S
C764 C765 1.382 . S
C765 H730 0.929 . S
C765 C760 1.371 . S
C765 C764 1.382 . S
C766 N734 1.423 . S
C766 C767 1.362 . S
C766 C771 1.388 . S
C767 H731 0.929 . S
C767 C766 1.362 . S
C767 C768 1.376 . S
C768 H732 0.931 . S
C768 C767 1.376 . S
C768 C769 1.396 . S
C769 C751 1.472 . S
C769 C768 1.396 . S
C769 C770 1.348 . S
C770 H733 0.929 . S
C770 C769 1.348 . S
C770 C771 1.443 . S
C771 H735 0.932 . S
C771 C766 1.388 . S
C771 C770 1.443 . S
H772 C799 0.929 . S
N773 C798 1.433 . S
N773 C804 1.435 . S
N773 C810 1.423 . S
H774 C800 0.930 . S
H775 C803 0.931 . S
H776 C802 0.929 . S
H777 C805 0.930 . S
H778 C806 0.932 . S
H779 C809 0.929 . S
H780 C808 0.931 . S
H781 C811 0.929 . S
H782 C815 0.932 . S
H783 C812 0.931 . S
H784 C814 0.929 . S
H785 C817 0.929 . S
H786 C818 0.930 . S
H787 C820 0.929 . S
H788 C821 0.931 . S
H789 C823 0.930 . S
H790 C824 0.932 . S
H791 C826 0.931 . S
H792 C827 0.929 . S
H793 C829 0.929 . S
H794 C830 0.931 . S
H795 C832 0.929 . S
N796 C816 1.433 . S
N796 C822 1.435 . S
N796 C828 1.423 . S
H797 C833 0.932 . S
C798 N773 1.433 . S
C798 C799 1.363 . S
C798 C803 1.370 . S
C799 H772 0.929 . S
C799 C798 1.363 . S
C799 C800 1.385 . S
C800 H774 0.930 . S
C800 C799 1.385 . S
C800 C801 1.357 . S
C801 C800 1.357 . S
C801 C802 1.406 . S
C802 H776 0.929 . S
C802 C801 1.406 . S
C802 C803 1.391 . S
C803 H775 0.931 . S
C803 C798 1.370 . S
C803 C802 1.391 . S
C804 N773 1.435 . S
C804 C805 1.358 . S
C804 C809 1.371 . S
C805 H777 0.930 . S
C805 C804 1.358 . S
C805 C806 1.405 . S
C806 H778 0.932 . S
C806 C805 1.405 . S
C806 C807 1.383 . S
C807 C806 1.383 . S
C807 C808 1.393 . S
C808 H780 0.931 . S
C808 C807 1.393 . S
C808 C809 1.382 . S
C809 H779 0.929 . S
C809 C804 1.371 . S
C809 C808 1.382 . S
C810 N773 1.423 . S
C810 C811 1.362 . S
C810 C815 1.388 . S
C811 H781 0.929 . S
C811 C810 1.362 . S
C811 C812 1.376 . S
C812 H783 0.931 . S
C812 C811 1.376 . S
C812 C813 1.396 . S
C813 C812 1.396 . S
C813 C814 1.348 . S
C813 C831 1.472 . S
C814 H784 0.929 . S
C814 C813 1.348 . S
C814 C815 1.443 . S
C815 H782 0.932 . S
C815 C810 1.388 . S
C815 C814 1.443 . S
C816 N796 1.433 . S
C816 C817 1.363 . S
C816 C821 1.370 . S
C817 H785 0.929 . S
C817 C816 1.363 . S
C817 C818 1.385 . S
C818 H786 0.930 . S
C818 C817 1.385 . S
C818 C819 1.357 . S
C819 C818 1.357 . S
C819 C820 1.406 . S
C820 H787 0.929 . S
C820 C819 1.406 . S
C820 C821 1.391 . S
C821 H788 0.931 . S
C821 C816 1.370 . S
C821 C820 1.391 . S
C822 N796 1.435 . S
C822 C823 1.358 . S
C822 C827 1.371 . S
C823 H789 0.930 . S
C823 C822 1.358 . S
C823 C824 1.405 . S
C824 H790 0.932 . S
C824 C823 1.405 . S
C824 C825 1.383 . S
C825 C824 1.383 . S
C825 C826 1.393 . S
C826 H791 0.931 . S
C826 C825 1.393 . S
C826 C827 1.382 . S
C827 H792 0.929 . S
C827 C822 1.371 . S
C827 C826 1.382 . S
C828 N796 1.423 . S
C828 C829 1.362 . S
C828 C833 1.388 . S
C829 H793 0.929 . S
C829 C828 1.362 . S
C829 C830 1.376 . S
C830 H794 0.931 . S
C830 C829 1.376 . S
C830 C831 1.396 . S
C831 C813 1.472 . S
C831 C830 1.396 . S
C831 C832 1.348 . S
C832 H795 0.929 . S
C832 C831 1.348 . S
C832 C833 1.443 . S
C833 H797 0.932 . S
C833 C828 1.388 . S
C833 C832 1.443 . S
H834 C861 0.929 . S
N835 C860 1.433 . S
N835 C866 1.435 . S
N835 C872 1.423 . S
H836 C862 0.930 . S
H837 C865 0.931 . S
H838 C864 0.929 . S
H839 C867 0.930 . S
H840 C868 0.932 . S
H841 C871 0.929 . S
H842 C870 0.931 . S
H843 C873 0.929 . S
H844 C877 0.932 . S
H845 C874 0.931 . S
H846 C876 0.929 . S
H847 C879 0.929 . S
H848 C880 0.930 . S
H849 C882 0.929 . S
H850 C883 0.931 . S
H851 C885 0.930 . S
H852 C886 0.932 . S
H853 C888 0.931 . S
H854 C889 0.929 . S
H855 C891 0.929 . S
H856 C892 0.931 . S
H857 C894 0.929 . S
N858 C878 1.433 . S
N858 C884 1.435 . S
N858 C890 1.423 . S
H859 C895 0.932 . S
C860 N835 1.433 . S
C860 C861 1.363 . S
C860 C865 1.370 . S
C861 H834 0.929 . S
C861 C860 1.363 . S
C861 C862 1.385 . S
C862 H836 0.930 . S
C862 C861 1.385 . S
C862 C863 1.357 . S
C863 C862 1.357 . S
C863 C864 1.406 . S
C864 H838 0.929 . S
C864 C863 1.406 . S
C864 C865 1.391 . S
C865 H837 0.931 . S
C865 C860 1.370 . S
C865 C864 1.391 . S
C866 N835 1.435 . S
C866 C867 1.358 . S
C866 C871 1.371 . S
C867 H839 0.930 . S
C867 C866 1.358 . S
C867 C868 1.405 . S
C868 H840 0.932 . S
C868 C867 1.405 . S
C868 C869 1.383 . S
C869 C868 1.383 . S
C869 C870 1.393 . S
C870 H842 0.931 . S
C870 C869 1.393 . S
C870 C871 1.382 . S
C871 H841 0.929 . S
C871 C866 1.371 . S
C871 C870 1.382 . S
C872 N835 1.423 . S
C872 C873 1.362 . S
C872 C877 1.388 . S
C873 H843 0.929 . S
C873 C872 1.362 . S
C873 C874 1.376 . S
C874 H845 0.931 . S
C874 C873 1.376 . S
C874 C875 1.396 . S
C875 C874 1.396 . S
C875 C876 1.348 . S
C875 C893 1.472 . S
C876 H846 0.929 . S
C876 C875 1.348 . S
C876 C877 1.443 . S
C877 H844 0.932 . S
C877 C872 1.388 . S
C877 C876 1.443 . S
C878 N858 1.433 . S
C878 C879 1.363 . S
C878 C883 1.370 . S
C879 H847 0.929 . S
C879 C878 1.363 . S
C879 C880 1.385 . S
C880 H848 0.930 . S
C880 C879 1.385 . S
C880 C881 1.357 . S
C881 C880 1.357 . S
C881 C882 1.406 . S
C882 H849 0.929 . S
C882 C881 1.406 . S
C882 C883 1.391 . S
C883 H850 0.931 . S
C883 C878 1.370 . S
C883 C882 1.391 . S
C884 N858 1.435 . S
C884 C885 1.358 . S
C884 C889 1.371 . S
C885 H851 0.930 . S
C885 C884 1.358 . S
C885 C886 1.405 . S
C886 H852 0.932 . S
C886 C885 1.405 . S
C886 C887 1.383 . S
C887 C886 1.383 . S
C887 C888 1.393 . S
C888 H853 0.931 . S
C888 C887 1.393 . S
C888 C889 1.382 . S
C889 H854 0.929 . S
C889 C884 1.371 . S
C889 C888 1.382 . S
C890 N858 1.423 . S
C890 C891 1.362 . S
C890 C895 1.388 . S
C891 H855 0.929 . S
C891 C890 1.362 . S
C891 C892 1.376 . S
C892 H856 0.931 . S
C892 C891 1.376 . S
C892 C893 1.396 . S
C893 C875 1.472 . S
C893 C892 1.396 . S
C893 C894 1.348 . S
C894 H857 0.929 . S
C894 C893 1.348 . S
C894 C895 1.443 . S
C895 H859 0.932 . S
C895 C890 1.388 . S
C895 C894 1.443 . S
H896 C923 0.929 . S
N897 C922 1.433 . S
N897 C928 1.435 . S
N897 C934 1.423 . S
H898 C924 0.930 . S
H899 C927 0.931 . S
H900 C926 0.929 . S
H901 C929 0.930 . S
H902 C930 0.932 . S
H903 C933 0.929 . S
H904 C932 0.931 . S
H905 C935 0.929 . S
H906 C939 0.932 . S
H907 C936 0.931 . S
H908 C938 0.929 . S
H909 C941 0.929 . S
H910 C942 0.930 . S
H911 C944 0.929 . S
H912 C945 0.931 . S
H913 C947 0.930 . S
H914 C948 0.932 . S
H915 C950 0.931 . S
H916 C951 0.929 . S
H917 C953 0.929 . S
H918 C954 0.931 . S
H919 C956 0.929 . S
N920 C940 1.433 . S
N920 C946 1.435 . S
N920 C952 1.423 . S
H921 C957 0.932 . S
C922 N897 1.433 . S
C922 C923 1.363 . S
C922 C927 1.370 . S
C923 H896 0.929 . S
C923 C922 1.363 . S
C923 C924 1.385 . S
C924 H898 0.930 . S
C924 C923 1.385 . S
C924 C925 1.357 . S
C925 C924 1.357 . S
C925 C926 1.406 . S
C926 H900 0.929 . S
C926 C925 1.406 . S
C926 C927 1.391 . S
C927 H899 0.931 . S
C927 C922 1.370 . S
C927 C926 1.391 . S
C928 N897 1.435 . S
C928 C929 1.358 . S
C928 C933 1.371 . S
C929 H901 0.930 . S
C929 C928 1.358 . S
C929 C930 1.405 . S
C930 H902 0.932 . S
C930 C929 1.405 . S
C930 C931 1.383 . S
C931 C930 1.383 . S
C931 C932 1.393 . S
C932 H904 0.931 . S
C932 C931 1.393 . S
C932 C933 1.382 . S
C933 H903 0.929 . S
C933 C928 1.371 . S
C933 C932 1.382 . S
C934 N897 1.423 . S
C934 C935 1.362 . S
C934 C939 1.388 . S
C935 H905 0.929 . S
C935 C934 1.362 . S
C935 C936 1.376 . S
C936 H907 0.931 . S
C936 C935 1.376 . S
C936 C937 1.396 . S
C937 C936 1.396 . S
C937 C938 1.348 . S
C937 C955 1.472 . S
C938 H908 0.929 . S
C938 C937 1.348 . S
C938 C939 1.443 . S
C939 H906 0.932 . S
C939 C934 1.388 . S
C939 C938 1.443 . S
C940 N920 1.433 . S
C940 C941 1.363 . S
C940 C945 1.370 . S
C941 H909 0.929 . S
C941 C940 1.363 . S
C941 C942 1.385 . S
C942 H910 0.930 . S
C942 C941 1.385 . S
C942 C943 1.357 . S
C943 C942 1.357 . S
C943 C944 1.406 . S
C944 H911 0.929 . S
C944 C943 1.406 . S
C944 C945 1.391 . S
C945 H912 0.931 . S
C945 C940 1.370 . S
C945 C944 1.391 . S
C946 N920 1.435 . S
C946 C947 1.358 . S
C946 C951 1.371 . S
C947 H913 0.930 . S
C947 C946 1.358 . S
C947 C948 1.405 . S
C948 H914 0.932 . S
C948 C947 1.405 . S
C948 C949 1.383 . S
C949 C948 1.383 . S
C949 C950 1.393 . S
C950 H915 0.931 . S
C950 C949 1.393 . S
C950 C951 1.382 . S
C951 H916 0.929 . S
C951 C946 1.371 . S
C951 C950 1.382 . S
C952 N920 1.423 . S
C952 C953 1.362 . S
C952 C957 1.388 . S
C953 H917 0.929 . S
C953 C952 1.362 . S
C953 C954 1.376 . S
C954 H918 0.931 . S
C954 C953 1.376 . S
C954 C955 1.396 . S
C955 C937 1.472 . S
C955 C954 1.396 . S
C955 C956 1.348 . S
C956 H919 0.929 . S
C956 C955 1.348 . S
C956 C957 1.443 . S
C957 H921 0.932 . S
C957 C952 1.388 . S
C957 C956 1.443 . S
H958 C985 0.929 . S
N959 C984 1.433 . S
N959 C990 1.435 . S
N959 C996 1.423 . S
H960 C986 0.930 . S
H961 C989 0.931 . S
H962 C988 0.929 . S
H963 C991 0.930 . S
H964 C992 0.932 . S
H965 C995 0.929 . S
H966 C994 0.931 . S
H967 C997 0.929 . S
H968 C1001 0.932 . S
H969 C998 0.931 . S
H970 C1000 0.929 . S
H971 C1003 0.929 . S
H972 C1004 0.930 . S
H973 C1006 0.929 . S
H974 C1007 0.931 . S
H975 C1009 0.930 . S
H976 C1010 0.932 . S
H977 C1012 0.931 . S
H978 C1013 0.929 . S
H979 C1015 0.929 . S
H980 C1016 0.931 . S
H981 C1018 0.929 . S
N982 C1002 1.433 . S
N982 C1008 1.435 . S
N982 C1014 1.423 . S
H983 C1019 0.932 . S
C984 N959 1.433 . S
C984 C985 1.363 . S
C984 C989 1.370 . S
C985 H958 0.929 . S
C985 C984 1.363 . S
C985 C986 1.385 . S
C986 H960 0.930 . S
C986 C985 1.385 . S
C986 C987 1.357 . S
C987 C986 1.357 . S
C987 C988 1.406 . S
C988 H962 0.929 . S
C988 C987 1.406 . S
C988 C989 1.391 . S
C989 H961 0.931 . S
C989 C984 1.370 . S
C989 C988 1.391 . S
C990 N959 1.435 . S
C990 C991 1.358 . S
C990 C995 1.371 . S
C991 H963 0.930 . S
C991 C990 1.358 . S
C991 C992 1.405 . S
C992 H964 0.932 . S
C992 C991 1.405 . S
C992 C993 1.383 . S
C993 C992 1.383 . S
C993 C994 1.393 . S
C994 H966 0.931 . S
C994 C993 1.393 . S
C994 C995 1.382 . S
C995 H965 0.929 . S
C995 C990 1.371 . S
C995 C994 1.382 . S
C996 N959 1.423 . S
C996 C997 1.362 . S
C996 C1001 1.388 . S
C997 H967 0.929 . S
C997 C996 1.362 . S
C997 C998 1.376 . S
C998 H969 0.931 . S
C998 C997 1.376 . S
C998 C999 1.396 . S
C999 C998 1.396 . S
C999 C1000 1.348 . S
C999 C1017 1.472 . S
C1000 H970 0.929 . S
C1000 C999 1.348 . S
C1000 C1001 1.443 . S
C1001 H968 0.932 . S
C1001 C996 1.388 . S
C1001 C1000 1.443 . S
C1002 N982 1.433 . S
C1002 C1003 1.363 . S
C1002 C1007 1.370 . S
C1003 H971 0.929 . S
C1003 C1002 1.363 . S
C1003 C1004 1.385 . S
C1004 H972 0.930 . S
C1004 C1003 1.385 . S
C1004 C1005 1.357 . S
C1005 C1004 1.357 . S
C1005 C1006 1.406 . S
C1006 H973 0.929 . S
C1006 C1005 1.406 . S
C1006 C1007 1.391 . S
C1007 H974 0.931 . S
C1007 C1002 1.370 . S
C1007 C1006 1.391 . S
C1008 N982 1.435 . S
C1008 C1009 1.358 . S
C1008 C1013 1.371 . S
C1009 H975 0.930 . S
C1009 C1008 1.358 . S
C1009 C1010 1.405 . S
C1010 H976 0.932 . S
C1010 C1009 1.405 . S
C1010 C1011 1.383 . S
C1011 C1010 1.383 . S
C1011 C1012 1.393 . S
C1012 H977 0.931 . S
C1012 C1011 1.393 . S
C1012 C1013 1.382 . S
C1013 H978 0.929 . S
C1013 C1008 1.371 . S
C1013 C1012 1.382 . S
C1014 N982 1.423 . S
C1014 C1015 1.362 . S
C1014 C1019 1.388 . S
C1015 H979 0.929 . S
C1015 C1014 1.362 . S
C1015 C1016 1.376 . S
C1016 H980 0.931 . S
C1016 C1015 1.376 . S
C1016 C1017 1.396 . S
C1017 C999 1.472 . S
C1017 C1016 1.396 . S
C1017 C1018 1.348 . S
C1018 H981 0.929 . S
C1018 C1017 1.348 . S
C1018 C1019 1.443 . S
C1019 H983 0.932 . S
C1019 C1014 1.388 . S
C1019 C1018 1.443 . S
H1020 C1047 0.929 . S
N1021 C1046 1.433 . S
N1021 C1052 1.435 . S
N1021 C1058 1.423 . S
H1022 C1048 0.930 . S
H1023 C1051 0.931 . S
H1024 C1050 0.929 . S
H1025 C1053 0.930 . S
H1026 C1054 0.932 . S
H1027 C1057 0.929 . S
H1028 C1056 0.931 . S
H1029 C1059 0.929 . S
H1030 C1063 0.932 . S
H1031 C1060 0.931 . S
H1032 C1062 0.929 . S
H1033 C1065 0.929 . S
H1034 C1066 0.930 . S
H1035 C1068 0.929 . S
H1036 C1069 0.931 . S
H1037 C1071 0.930 . S
H1038 C1072 0.932 . S
H1039 C1074 0.931 . S
H1040 C1075 0.929 . S
H1041 C1077 0.929 . S
H1042 C1078 0.931 . S
H1043 C1080 0.929 . S
N1044 C1064 1.433 . S
N1044 C1070 1.435 . S
N1044 C1076 1.423 . S
H1045 C1081 0.932 . S
C1046 N1021 1.433 . S
C1046 C1047 1.363 . S
C1046 C1051 1.370 . S
C1047 H1020 0.929 . S
C1047 C1046 1.363 . S
C1047 C1048 1.385 . S
C1048 H1022 0.930 . S
C1048 C1047 1.385 . S
C1048 C1049 1.357 . S
C1049 C1048 1.357 . S
C1049 C1050 1.406 . S
C1050 H1024 0.929 . S
C1050 C1049 1.406 . S
C1050 C1051 1.391 . S
C1051 H1023 0.931 . S
C1051 C1046 1.370 . S
C1051 C1050 1.391 . S
C1052 N1021 1.435 . S
C1052 C1053 1.358 . S
C1052 C1057 1.371 . S
C1053 H1025 0.930 . S
C1053 C1052 1.358 . S
C1053 C1054 1.405 . S
C1054 H1026 0.932 . S
C1054 C1053 1.405 . S
C1054 C1055 1.383 . S
C1055 C1054 1.383 . S
C1055 C1056 1.393 . S
C1056 H1028 0.931 . S
C1056 C1055 1.393 . S
C1056 C1057 1.382 . S
C1057 H1027 0.929 . S
C1057 C1052 1.371 . S
C1057 C1056 1.382 . S
C1058 N1021 1.423 . S
C1058 C1059 1.362 . S
C1058 C1063 1.388 . S
C1059 H1029 0.929 . S
C1059 C1058 1.362 . S
C1059 C1060 1.376 . S
C1060 H1031 0.931 . S
C1060 C1059 1.376 . S
C1060 C1061 1.396 . S
C1061 C1060 1.396 . S
C1061 C1062 1.348 . S
C1061 C1079 1.472 . S
C1062 H1032 0.929 . S
C1062 C1061 1.348 . S
C1062 C1063 1.443 . S
C1063 H1030 0.932 . S
C1063 C1058 1.388 . S
C1063 C1062 1.443 . S
C1064 N1044 1.433 . S
C1064 C1065 1.363 . S
C1064 C1069 1.370 . S
C1065 H1033 0.929 . S
C1065 C1064 1.363 . S
C1065 C1066 1.385 . S
C1066 H1034 0.930 . S
C1066 C1065 1.385 . S
C1066 C1067 1.357 . S
C1067 C1066 1.357 . S
C1067 C1068 1.406 . S
C1068 H1035 0.929 . S
C1068 C1067 1.406 . S
C1068 C1069 1.391 . S
C1069 H1036 0.931 . S
C1069 C1064 1.370 . S
C1069 C1068 1.391 . S
C1070 N1044 1.435 . S
C1070 C1071 1.358 . S
C1070 C1075 1.371 . S
C1071 H1037 0.930 . S
C1071 C1070 1.358 . S
C1071 C1072 1.405 . S
C1072 H1038 0.932 . S
C1072 C1071 1.405 . S
C1072 C1073 1.383 . S
C1073 C1072 1.383 . S
C1073 C1074 1.393 . S
C1074 H1039 0.931 . S
C1074 C1073 1.393 . S
C1074 C1075 1.382 . S
C1075 H1040 0.929 . S
C1075 C1070 1.371 . S
C1075 C1074 1.382 . S
C1076 N1044 1.423 . S
C1076 C1077 1.362 . S
C1076 C1081 1.388 . S
C1077 H1041 0.929 . S
C1077 C1076 1.362 . S
C1077 C1078 1.376 . S
C1078 H1042 0.931 . S
C1078 C1077 1.376 . S
C1078 C1079 1.396 . S
C1079 C1061 1.472 . S
C1079 C1078 1.396 . S
C1079 C1080 1.348 . S
C1080 H1043 0.929 . S
C1080 C1079 1.348 . S
C1080 C1081 1.443 . S
C1081 H1045 0.932 . S
C1081 C1076 1.388 . S
C1081 C1080 1.443 . S
H1082 C1109 0.929 . S
N1083 C1108 1.433 . S
N1083 C1114 1.435 . S
N1083 C1120 1.423 . S
H1084 C1110 0.930 . S
H1085 C1113 0.931 . S
H1086 C1112 0.929 . S
H1087 C1115 0.930 . S
H1088 C1116 0.932 . S
H1089 C1119 0.929 . S
H1090 C1118 0.931 . S
H1091 C1121 0.929 . S
H1092 C1125 0.932 . S
H1093 C1122 0.931 . S
H1094 C1124 0.929 . S
H1095 C1127 0.929 . S
H1096 C1128 0.930 . S
H1097 C1130 0.929 . S
H1098 C1131 0.931 . S
H1099 C1133 0.930 . S
H1100 C1134 0.932 . S
H1101 C1136 0.931 . S
H1102 C1137 0.929 . S
H1103 C1139 0.929 . S
H1104 C1140 0.931 . S
H1105 C1142 0.929 . S
N1106 C1126 1.433 . S
N1106 C1132 1.435 . S
N1106 C1138 1.423 . S
H1107 C1143 0.932 . S
C1108 N1083 1.433 . S
C1108 C1109 1.363 . S
C1108 C1113 1.370 . S
C1109 H1082 0.929 . S
C1109 C1108 1.363 . S
C1109 C1110 1.385 . S
C1110 H1084 0.930 . S
C1110 C1109 1.385 . S
C1110 C1111 1.357 . S
C1111 C1110 1.357 . S
C1111 C1112 1.406 . S
C1112 H1086 0.929 . S
C1112 C1111 1.406 . S
C1112 C1113 1.391 . S
C1113 H1085 0.931 . S
C1113 C1108 1.370 . S
C1113 C1112 1.391 . S
C1114 N1083 1.435 . S
C1114 C1115 1.358 . S
C1114 C1119 1.371 . S
C1115 H1087 0.930 . S
C1115 C1114 1.358 . S
C1115 C1116 1.405 . S
C1116 H1088 0.932 . S
C1116 C1115 1.405 . S
C1116 C1117 1.383 . S
C1117 C1116 1.383 . S
C1117 C1118 1.393 . S
C1118 H1090 0.931 . S
C1118 C1117 1.393 . S
C1118 C1119 1.382 . S
C1119 H1089 0.929 . S
C1119 C1114 1.371 . S
C1119 C1118 1.382 . S
C1120 N1083 1.423 . S
C1120 C1121 1.362 . S
C1120 C1125 1.388 . S
C1121 H1091 0.929 . S
C1121 C1120 1.362 . S
C1121 C1122 1.376 . S
C1122 H1093 0.931 . S
C1122 C1121 1.376 . S
C1122 C1123 1.396 . S
C1123 C1122 1.396 . S
C1123 C1124 1.348 . S
C1123 C1141 1.472 . S
C1124 H1094 0.929 . S
C1124 C1123 1.348 . S
C1124 C1125 1.443 . S
C1125 H1092 0.932 . S
C1125 C1120 1.388 . S
C1125 C1124 1.443 . S
C1126 N1106 1.433 . S
C1126 C1127 1.363 . S
C1126 C1131 1.370 . S
C1127 H1095 0.929 . S
C1127 C1126 1.363 . S
C1127 C1128 1.385 . S
C1128 H1096 0.930 . S
C1128 C1127 1.385 . S
C1128 C1129 1.357 . S
C1129 C1128 1.357 . S
C1129 C1130 1.406 . S
C1130 H1097 0.929 . S
C1130 C1129 1.406 . S
C1130 C1131 1.391 . S
C1131 H1098 0.931 . S
C1131 C1126 1.370 . S
C1131 C1130 1.391 . S
C1132 N1106 1.435 . S
C1132 C1133 1.358 . S
C1132 C1137 1.371 . S
C1133 H1099 0.930 . S
C1133 C1132 1.358 . S
C1133 C1134 1.405 . S
C1134 H1100 0.932 . S
C1134 C1133 1.405 . S
C1134 C1135 1.383 . S
C1135 C1134 1.383 . S
C1135 C1136 1.393 . S
C1136 H1101 0.931 . S
C1136 C1135 1.393 . S
C1136 C1137 1.382 . S
C1137 H1102 0.929 . S
C1137 C1132 1.371 . S
C1137 C1136 1.382 . S
C1138 N1106 1.423 . S
C1138 C1139 1.362 . S
C1138 C1143 1.388 . S
C1139 H1103 0.929 . S
C1139 C1138 1.362 . S
C1139 C1140 1.376 . S
C1140 H1104 0.931 . S
C1140 C1139 1.376 . S
C1140 C1141 1.396 . S
C1141 C1123 1.472 . S
C1141 C1140 1.396 . S
C1141 C1142 1.348 . S
C1142 H1105 0.929 . S
C1142 C1141 1.348 . S
C1142 C1143 1.443 . S
C1143 H1107 0.932 . S
C1143 C1138 1.388 . S
C1143 C1142 1.443 . S
H1144 C1171 0.929 . S
N1145 C1170 1.433 . S
N1145 C1176 1.435 . S
N1145 C1182 1.423 . S
H1146 C1172 0.930 . S
H1147 C1175 0.931 . S
H1148 C1174 0.929 . S
H1149 C1177 0.930 . S
H1150 C1178 0.932 . S
H1151 C1181 0.929 . S
H1152 C1180 0.931 . S
H1153 C1183 0.929 . S
H1154 C1187 0.932 . S
H1155 C1184 0.931 . S
H1156 C1186 0.929 . S
H1157 C1189 0.929 . S
H1158 C1190 0.930 . S
H1159 C1192 0.929 . S
H1160 C1193 0.931 . S
H1161 C1195 0.930 . S
H1162 C1196 0.932 . S
H1163 C1198 0.931 . S
H1164 C1199 0.929 . S
H1165 C1201 0.929 . S
H1166 C1202 0.931 . S
H1167 C1204 0.929 . S
N1168 C1188 1.433 . S
N1168 C1194 1.435 . S
N1168 C1200 1.423 . S
H1169 C1205 0.932 . S
C1170 N1145 1.433 . S
C1170 C1171 1.363 . S
C1170 C1175 1.370 . S
C1171 H1144 0.929 . S
C1171 C1170 1.363 . S
C1171 C1172 1.385 . S
C1172 H1146 0.930 . S
C1172 C1171 1.385 . S
C1172 C1173 1.357 . S
C1173 C1172 1.357 . S
C1173 C1174 1.406 . S
C1174 H1148 0.929 . S
C1174 C1173 1.406 . S
C1174 C1175 1.391 . S
C1175 H1147 0.931 . S
C1175 C1170 1.370 . S
C1175 C1174 1.391 . S
C1176 N1145 1.435 . S
C1176 C1177 1.358 . S
C1176 C1181 1.371 . S
C1177 H1149 0.930 . S
C1177 C1176 1.358 . S
C1177 C1178 1.405 . S
C1178 H1150 0.932 . S
C1178 C1177 1.405 . S
C1178 C1179 1.383 . S
C1179 C1178 1.383 . S
C1179 C1180 1.393 . S
C1180 H1152 0.931 . S
C1180 C1179 1.393 . S
C1180 C1181 1.382 . S
C1181 H1151 0.929 . S
C1181 C1176 1.371 . S
C1181 C1180 1.382 . S
C1182 N1145 1.423 . S
C1182 C1183 1.362 . S
C1182 C1187 1.388 . S
C1183 H1153 0.929 . S
C1183 C1182 1.362 . S
C1183 C1184 1.376 . S
C1184 H1155 0.931 . S
C1184 C1183 1.376 . S
C1184 C1185 1.396 . S
C1185 C1184 1.396 . S
C1185 C1186 1.348 . S
C1185 C1203 1.472 . S
C1186 H1156 0.929 . S
C1186 C1185 1.348 . S
C1186 C1187 1.443 . S
C1187 H1154 0.932 . S
C1187 C1182 1.388 . S
C1187 C1186 1.443 . S
C1188 N1168 1.433 . S
C1188 C1189 1.363 . S
C1188 C1193 1.370 . S
C1189 H1157 0.929 . S
C1189 C1188 1.363 . S
C1189 C1190 1.385 . S
C1190 H1158 0.930 . S
C1190 C1189 1.385 . S
C1190 C1191 1.357 . S
C1191 C1190 1.357 . S
C1191 C1192 1.406 . S
C1192 H1159 0.929 . S
C1192 C1191 1.406 . S
C1192 C1193 1.391 . S
C1193 H1160 0.931 . S
C1193 C1188 1.370 . S
C1193 C1192 1.391 . S
C1194 N1168 1.435 . S
C1194 C1195 1.358 . S
C1194 C1199 1.371 . S
C1195 H1161 0.930 . S
C1195 C1194 1.358 . S
C1195 C1196 1.405 . S
C1196 H1162 0.932 . S
C1196 C1195 1.405 . S
C1196 C1197 1.383 . S
C1197 C1196 1.383 . S
C1197 C1198 1.393 . S
C1198 H1163 0.931 . S
C1198 C1197 1.393 . S
C1198 C1199 1.382 . S
C1199 H1164 0.929 . S
C1199 C1194 1.371 . S
C1199 C1198 1.382 . S
C1200 N1168 1.423 . S
C1200 C1201 1.362 . S
C1200 C1205 1.388 . S
C1201 H1165 0.929 . S
C1201 C1200 1.362 . S
C1201 C1202 1.376 . S
C1202 H1166 0.931 . S
C1202 C1201 1.376 . S
C1202 C1203 1.396 . S
C1203 C1185 1.472 . S
C1203 C1202 1.396 . S
C1203 C1204 1.348 . S
C1204 H1167 0.929 . S
C1204 C1203 1.348 . S
C1204 C1205 1.443 . S
C1205 H1169 0.932 . S
C1205 C1200 1.388 . S
C1205 C1204 1.443 . S
H1206 C1233 0.929 . S
N1207 C1232 1.433 . S
N1207 C1238 1.435 . S
N1207 C1244 1.423 . S
H1208 C1234 0.930 . S
H1209 C1237 0.931 . S
H1210 C1236 0.929 . S
H1211 C1239 0.930 . S
H1212 C1240 0.932 . S
H1213 C1243 0.929 . S
H1214 C1242 0.931 . S
H1215 C1245 0.929 . S
H1216 C1249 0.932 1_655 S
H1217 C1246 0.931 . S
H1218 C1248 0.939 . S
H1219 C1251 0.929 . S
H1220 C1252 0.930 . S
H1221 C1254 0.929 . S
H1222 C1255 0.931 . S
H1223 C1257 0.930 . S
H1224 C1258 0.932 . S
H1225 C1260 0.931 . S
H1226 C1261 0.929 . S
H1227 C1263 0.929 . S
H1228 C1264 0.931 . S
H1229 C1266 0.967 . S
N1230 C1250 1.433 . S
N1230 C1256 1.435 . S
N1230 C1262 1.423 . S
H1231 C1267 0.932 1_655 S
C1232 N1207 1.433 . S
C1232 C1233 1.363 . S
C1232 C1237 1.370 1_455 S
C1233 H1206 0.929 . S
C1233 C1232 1.363 . S
C1233 C1234 1.385 . S
C1234 H1208 0.930 . S
C1234 C1233 1.385 . S
C1234 C1235 1.357 1_455 S
C1235 C1234 1.357 1_655 S
C1235 C1236 1.406 . S
C1236 H1210 0.929 . S
C1236 C1235 1.406 . S
C1236 C1237 1.391 . S
C1237 H1209 0.931 . S
C1237 C1232 1.370 1_655 S
C1237 C1236 1.391 . S
C1238 N1207 1.435 . S
C1238 C1239 1.358 1_455 S
C1238 C1243 1.371 . S
C1239 H1211 0.930 . S
C1239 C1238 1.358 1_655 S
C1239 C1240 1.405 . S
C1240 H1212 0.932 . S
C1240 C1239 1.405 . S
C1240 C1241 1.383 1_655 S
C1241 C1240 1.383 1_455 S
C1241 C1242 1.393 . S
C1242 H1214 0.931 . S
C1242 C1241 1.393 . S
C1242 C1243 1.382 . S
C1243 H1213 0.929 . S
C1243 C1238 1.371 . S
C1243 C1242 1.382 . S
C1244 N1207 1.423 . S
C1244 C1245 1.362 . S
C1244 C1249 1.388 . S
C1245 H1215 0.929 . S
C1245 C1244 1.362 . S
C1245 C1246 1.376 . S
C1246 H1217 0.931 . S
C1246 C1245 1.376 . S
C1246 C1247 1.396 . S
C1247 C1246 1.396 . S
C1247 C1248 1.348 . S
C1247 C1265 1.472 . S
C1248 H1218 0.939 . S
C1248 C1247 1.348 . S
C1248 C1249 1.443 . S
C1249 H1216 0.932 1_455 S
C1249 C1244 1.388 . S
C1249 C1248 1.443 . S
C1250 N1230 1.433 . S
C1250 C1251 1.363 . S
C1250 C1255 1.370 1_455 S
C1251 H1219 0.929 . S
C1251 C1250 1.363 . S
C1251 C1252 1.385 . S
C1252 H1220 0.930 . S
C1252 C1251 1.385 . S
C1252 C1253 1.357 1_455 S
C1253 C1252 1.357 1_655 S
C1253 C1254 1.406 . S
C1254 H1221 0.929 . S
C1254 C1253 1.406 . S
C1254 C1255 1.391 . S
C1255 H1222 0.931 . S
C1255 C1250 1.370 1_655 S
C1255 C1254 1.391 . S
C1256 N1230 1.435 . S
C1256 C1257 1.358 1_455 S
C1256 C1261 1.371 . S
C1257 H1223 0.930 . S
C1257 C1256 1.358 1_655 S
C1257 C1258 1.405 . S
C1258 H1224 0.932 . S
C1258 C1257 1.405 . S
C1258 C1259 1.383 1_655 S
C1259 C1258 1.383 1_455 S
C1259 C1260 1.393 . S
C1260 H1225 0.931 . S
C1260 C1259 1.393 . S
C1260 C1261 1.382 . S
C1261 H1226 0.929 . S
C1261 C1256 1.371 . S
C1261 C1260 1.382 . S
C1262 N1230 1.423 . S
C1262 C1263 1.362 . S
C1262 C1267 1.388 . S
C1263 H1227 0.929 . S
C1263 C1262 1.362 . S
C1263 C1264 1.376 . S
C1264 H1228 0.931 . S
C1264 C1263 1.376 . S
C1264 C1265 1.396 . S
C1265 C1247 1.472 . S
C1265 C1264 1.396 . S
C1265 C1266 1.348 . S
C1266 H1229 0.967 . S
C1266 C1265 1.348 . S
C1266 C1267 1.443 . S
C1267 H1231 0.932 1_455 S
C1267 C1262 1.388 . S
C1267 C1266 1.443 . S
H1268 C1295 0.929 . S
N1269 C1294 1.433 . S
N1269 C1300 1.435 . S
N1269 C1306 1.423 . S
H1270 C1296 0.930 . S
H1271 C1299 0.931 . S
H1272 C1298 0.929 . S
H1273 C1301 0.930 . S
H1274 C1302 0.932 . S
H1275 C1305 0.929 . S
H1276 C1304 0.931 . S
H1277 C1307 0.929 . S
H1278 C1311 0.932 . S
H1279 C1308 0.931 . S
H1280 C1310 0.929 . S
H1281 C1313 0.929 . S
H1282 C1314 0.930 . S
H1283 C1316 0.929 . S
H1284 C1317 0.931 . S
H1285 C1319 0.930 . S
H1286 C1320 0.932 . S
H1287 C1322 0.931 . S
H1288 C1323 0.929 . S
H1289 C1325 0.929 . S
H1290 C1326 0.931 . S
H1291 C1328 0.929 . S
N1292 C1312 1.433 . S
N1292 C1318 1.435 . S
N1292 C1324 1.423 . S
H1293 C1329 0.932 . S
C1294 N1269 1.433 . S
C1294 C1295 1.363 . S
C1294 C1299 1.370 . S
C1295 H1268 0.929 . S
C1295 C1294 1.363 . S
C1295 C1296 1.385 . S
C1296 H1270 0.930 . S
C1296 C1295 1.385 . S
C1296 C1297 1.357 . S
C1297 C1296 1.357 . S
C1297 C1298 1.406 . S
C1298 H1272 0.929 . S
C1298 C1297 1.406 . S
C1298 C1299 1.391 . S
C1299 H1271 0.931 . S
C1299 C1294 1.370 . S
C1299 C1298 1.391 . S
C1300 N1269 1.435 . S
C1300 C1301 1.358 . S
C1300 C1305 1.371 . S
C1301 H1273 0.930 . S
C1301 C1300 1.358 . S
C1301 C1302 1.405 . S
C1302 H1274 0.932 . S
C1302 C1301 1.405 . S
C1302 C1303 1.383 . S
C1303 C1302 1.383 . S
C1303 C1304 1.393 . S
C1304 H1276 0.931 . S
C1304 C1303 1.393 . S
C1304 C1305 1.382 . S
C1305 H1275 0.929 . S
C1305 C1300 1.371 . S
C1305 C1304 1.382 . S
C1306 N1269 1.423 . S
C1306 C1307 1.362 . S
C1306 C1311 1.388 . S
C1307 H1277 0.929 . S
C1307 C1306 1.362 . S
C1307 C1308 1.376 . S
C1308 H1279 0.931 . S
C1308 C1307 1.376 . S
C1308 C1309 1.396 . S
C1309 C1308 1.396 . S
C1309 C1310 1.348 . S
C1309 C1327 1.472 . S
C1310 H1280 0.929 . S
C1310 C1309 1.348 . S
C1310 C1311 1.443 . S
C1311 H1278 0.932 . S
C1311 C1306 1.388 . S
C1311 C1310 1.443 . S
C1312 N1292 1.433 . S
C1312 C1313 1.363 . S
C1312 C1317 1.370 . S
C1313 H1281 0.929 . S
C1313 C1312 1.363 . S
C1313 C1314 1.385 . S
C1314 H1282 0.930 . S
C1314 C1313 1.385 . S
C1314 C1315 1.357 . S
C1315 C1314 1.357 . S
C1315 C1316 1.406 . S
C1316 H1283 0.929 . S
C1316 C1315 1.406 . S
C1316 C1317 1.391 . S
C1317 H1284 0.931 . S
C1317 C1312 1.370 . S
C1317 C1316 1.391 . S
C1318 N1292 1.435 . S
C1318 C1319 1.358 . S
C1318 C1323 1.371 . S
C1319 H1285 0.930 . S
C1319 C1318 1.358 . S
C1319 C1320 1.405 . S
C1320 H1286 0.932 . S
C1320 C1319 1.405 . S
C1320 C1321 1.383 . S
C1321 C1320 1.383 . S
C1321 C1322 1.393 . S
C1322 H1287 0.931 . S
C1322 C1321 1.393 . S
C1322 C1323 1.382 . S
C1323 H1288 0.929 . S
C1323 C1318 1.371 . S
C1323 C1322 1.382 . S
C1324 N1292 1.423 . S
C1324 C1325 1.362 . S
C1324 C1329 1.388 . S
C1325 H1289 0.929 . S
C1325 C1324 1.362 . S
C1325 C1326 1.376 . S
C1326 H1290 0.931 . S
C1326 C1325 1.376 . S
C1326 C1327 1.396 . S
C1327 C1309 1.472 . S
C1327 C1326 1.396 . S
C1327 C1328 1.348 . S
C1328 H1291 0.929 . S
C1328 C1327 1.348 . S
C1328 C1329 1.443 . S
C1329 H1293 0.932 . S
C1329 C1324 1.388 . S
C1329 C1328 1.443 . S
H1330 C1357 0.929 . S
N1331 C1356 1.433 . S
N1331 C1362 1.435 . S
N1331 C1368 1.423 . S
H1332 C1358 0.930 . S
H1333 C1361 0.931 . S
H1334 C1360 0.929 . S
H1335 C1363 0.930 . S
H1336 C1364 0.932 . S
H1337 C1367 0.929 . S
H1338 C1366 0.931 . S
H1339 C1369 0.929 . S
H1340 C1373 0.932 1_545 S
H1341 C1370 0.931 . S
H1342 C1372 0.976 . S
H1343 C1375 0.929 . S
H1344 C1376 0.930 . S
H1345 C1378 0.929 . S
H1346 C1379 0.931 . S
H1347 C1381 0.930 . S
H1348 C1382 0.932 . S
H1349 C1384 0.931 . S
H1350 C1385 0.929 . S
H1351 C1387 0.929 . S
H1352 C1388 0.931 . S
H1353 C1390 0.940 . S
N1354 C1374 1.433 . S
N1354 C1380 1.435 . S
N1354 C1386 1.423 . S
H1355 C1391 0.932 1_545 S
C1356 N1331 1.433 . S
C1356 C1357 1.363 . S
C1356 C1361 1.370 1_565 S
C1357 H1330 0.929 . S
C1357 C1356 1.363 . S
C1357 C1358 1.385 . S
C1358 H1332 0.930 . S
C1358 C1357 1.385 . S
C1358 C1359 1.357 1_565 S
C1359 C1358 1.357 1_545 S
C1359 C1360 1.406 . S
C1360 H1334 0.929 . S
C1360 C1359 1.406 . S
C1360 C1361 1.391 . S
C1361 H1333 0.931 . S
C1361 C1356 1.370 1_545 S
C1361 C1360 1.391 . S
C1362 N1331 1.435 . S
C1362 C1363 1.358 1_565 S
C1362 C1367 1.371 . S
C1363 H1335 0.930 . S
C1363 C1362 1.358 1_545 S
C1363 C1364 1.405 . S
C1364 H1336 0.932 . S
C1364 C1363 1.405 . S
C1364 C1365 1.383 1_545 S
C1365 C1364 1.383 1_565 S
C1365 C1366 1.393 . S
C1366 H1338 0.931 . S
C1366 C1365 1.393 . S
C1366 C1367 1.382 . S
C1367 H1337 0.929 . S
C1367 C1362 1.371 . S
C1367 C1366 1.382 . S
C1368 N1331 1.423 . S
C1368 C1369 1.362 . S
C1368 C1373 1.388 . S
C1369 H1339 0.929 . S
C1369 C1368 1.362 . S
C1369 C1370 1.376 . S
C1370 H1341 0.931 . S
C1370 C1369 1.376 . S
C1370 C1371 1.396 . S
C1371 C1370 1.396 . S
C1371 C1372 1.348 . S
C1371 C1389 1.472 . S
C1372 H1342 0.976 . S
C1372 C1371 1.348 . S
C1372 C1373 1.443 . S
C1373 H1340 0.932 1_565 S
C1373 C1368 1.388 . S
C1373 C1372 1.443 . S
C1374 N1354 1.433 . S
C1374 C1375 1.363 . S
C1374 C1379 1.370 1_565 S
C1375 H1343 0.929 . S
C1375 C1374 1.363 . S
C1375 C1376 1.385 . S
C1376 H1344 0.930 . S
C1376 C1375 1.385 . S
C1376 C1377 1.357 1_565 S
C1377 C1376 1.357 1_545 S
C1377 C1378 1.406 . S
C1378 H1345 0.929 . S
C1378 C1377 1.406 . S
C1378 C1379 1.391 . S
C1379 H1346 0.931 . S
C1379 C1374 1.370 1_545 S
C1379 C1378 1.391 . S
C1380 N1354 1.435 . S
C1380 C1381 1.358 1_565 S
C1380 C1385 1.371 . S
C1381 H1347 0.930 . S
C1381 C1380 1.358 1_545 S
C1381 C1382 1.405 . S
C1382 H1348 0.932 . S
C1382 C1381 1.405 . S
C1382 C1383 1.383 1_545 S
C1383 C1382 1.383 1_565 S
C1383 C1384 1.393 . S
C1384 H1349 0.931 . S
C1384 C1383 1.393 . S
C1384 C1385 1.382 . S
C1385 H1350 0.929 . S
C1385 C1380 1.371 . S
C1385 C1384 1.382 . S
C1386 N1354 1.423 . S
C1386 C1387 1.362 . S
C1386 C1391 1.388 . S
C1387 H1351 0.929 . S
C1387 C1386 1.362 . S
C1387 C1388 1.376 . S
C1388 H1352 0.931 . S
C1388 C1387 1.376 . S
C1388 C1389 1.396 . S
C1389 C1371 1.472 . S
C1389 C1388 1.396 . S
C1389 C1390 1.348 . S
C1390 H1353 0.940 . S
C1390 C1389 1.348 . S
C1390 C1391 1.443 . S
C1391 H1355 0.932 1_565 S
C1391 C1386 1.388 . S
C1391 C1390 1.443 . S
H1392 C1419 0.929 . S
N1393 C1418 1.433 . S
N1393 C1424 1.435 . S
N1393 C1430 1.423 . S
H1394 C1420 0.930 . S
H1395 C1423 0.931 . S
H1396 C1422 0.929 . S
H1397 C1425 0.930 . S
H1398 C1426 0.932 . S
H1399 C1429 0.929 . S
H1400 C1428 0.931 . S
H1401 C1431 0.929 . S
H1402 C1435 0.989 . S
H1403 C1432 0.931 . S
H1404 C1434 0.915 1_545 S
H1405 C1437 0.929 . S
H1406 C1438 0.930 . S
H1407 C1440 0.929 . S
H1408 C1441 0.931 . S
H1409 C1443 0.930 . S
H1410 C1444 0.932 . S
H1411 C1446 0.931 . S
H1412 C1447 0.929 . S
H1413 C1449 0.929 . S
H1414 C1450 0.931 . S
H1415 C1452 0.886 1_545 S
N1416 C1436 1.433 . S
N1416 C1442 1.435 . S
N1416 C1448 1.423 . S
H1417 C1453 0.965 . S
C1418 N1393 1.433 . S
C1418 C1419 1.363 . S
C1418 C1423 1.360 1_565 S
C1419 H1392 0.929 . S
C1419 C1418 1.363 . S
C1419 C1420 1.385 . S
C1420 H1394 0.930 . S
C1420 C1419 1.385 . S
C1420 C1421 1.357 . S
C1421 C1420 1.357 . S
C1421 C1422 1.406 1_565 S
C1422 H1396 0.929 . S
C1422 C1421 1.406 1_545 S
C1422 C1423 1.411 . S
C1423 H1395 0.931 . S
C1423 C1418 1.360 1_545 S
C1423 C1422 1.411 . S
C1424 N1393 1.435 . S
C1424 C1425 1.358 1_565 S
C1424 C1429 1.371 . S
C1425 H1397 0.930 . S
C1425 C1424 1.358 1_545 S
C1425 C1426 1.405 . S
C1426 H1398 0.932 . S
C1426 C1425 1.405 . S
C1426 C1427 1.383 . S
C1427 C1426 1.383 . S
C1427 C1428 1.393 1_545 S
C1428 H1400 0.931 . S
C1428 C1427 1.393 1_565 S
C1428 C1429 1.382 . S
C1429 H1399 0.929 . S
C1429 C1424 1.371 . S
C1429 C1428 1.382 . S
C1430 N1393 1.423 . S
C1430 C1431 1.362 . S
C1430 C1435 1.371 1_565 S
C1431 H1401 0.929 . S
C1431 C1430 1.362 . S
C1431 C1432 1.376 . S
C1432 H1403 0.931 . S
C1432 C1431 1.376 . S
C1432 C1433 1.396 . S
C1433 C1432 1.396 . S
C1433 C1434 1.406 . S
C1433 C1451 1.472 . S
C1434 H1404 0.915 1_565 S
C1434 C1433 1.406 . S
C1434 C1435 1.366 1_565 S
C1435 H1402 0.989 . S
C1435 C1430 1.371 1_545 S
C1435 C1434 1.366 1_545 S
C1436 N1416 1.433 . S
C1436 C1437 1.363 . S
C1436 C1441 1.370 1_565 S
C1437 H1405 0.929 . S
C1437 C1436 1.363 . S
C1437 C1438 1.385 . S
C1438 H1406 0.930 . S
C1438 C1437 1.385 . S
C1438 C1439 1.357 . S
C1439 C1438 1.357 . S
C1439 C1440 1.406 1_565 S
C1440 H1407 0.929 . S
C1440 C1439 1.406 1_545 S
C1440 C1441 1.391 . S
C1441 H1408 0.931 . S
C1441 C1436 1.370 1_545 S
C1441 C1440 1.391 . S
C1442 N1416 1.435 . S
C1442 C1443 1.358 1_565 S
C1442 C1447 1.371 . S
C1443 H1409 0.930 . S
C1443 C1442 1.358 1_545 S
C1443 C1444 1.405 . S
C1444 H1410 0.932 . S
C1444 C1443 1.405 . S
C1444 C1445 1.383 . S
C1445 C1444 1.383 . S
C1445 C1446 1.393 1_545 S
C1446 H1411 0.931 . S
C1446 C1445 1.393 1_565 S
C1446 C1447 1.382 . S
C1447 H1412 0.929 . S
C1447 C1442 1.371 . S
C1447 C1446 1.382 . S
C1448 N1416 1.423 . S
C1448 C1449 1.362 . S
C1448 C1453 1.325 1_565 S
C1449 H1413 0.929 . S
C1449 C1448 1.362 . S
C1449 C1450 1.376 . S
C1450 H1414 0.931 . S
C1450 C1449 1.376 . S
C1450 C1451 1.396 . S
C1451 C1433 1.472 . S
C1451 C1450 1.396 . S
C1451 C1452 1.367 . S
C1452 H1415 0.886 1_565 S
C1452 C1451 1.367 . S
C1452 C1453 1.508 1_565 S
C1453 H1417 0.965 . S
C1453 C1448 1.325 1_545 S
C1453 C1452 1.508 1_545 S
H1454 C1481 0.929 . S
N1455 C1480 1.433 . S
N1455 C1486 1.435 . S
N1455 C1492 1.423 . S
H1456 C1482 0.930 . S
H1457 C1485 0.931 . S
H1458 C1484 0.929 . S
H1459 C1487 0.930 . S
H1460 C1488 0.932 . S
H1461 C1491 0.929 . S
H1462 C1490 0.931 . S
H1463 C1493 0.929 . S
H1464 C1497 0.932 1_455 S
H1465 C1494 0.931 . S
H1466 C1496 0.973 . S
H1467 C1499 0.929 . S
H1468 C1500 0.930 . S
H1469 C1502 0.929 . S
H1470 C1503 0.931 . S
H1471 C1505 0.930 . S
H1472 C1506 0.932 . S
H1473 C1508 0.931 . S
H1474 C1509 0.929 . S
H1475 C1511 0.929 . S
H1476 C1512 0.931 . S
H1477 C1514 0.941 . S
N1478 C1498 1.433 . S
N1478 C1504 1.435 . S
N1478 C1510 1.423 . S
H1479 C1515 0.932 1_455 S
C1480 N1455 1.433 . S
C1480 C1481 1.363 . S
C1480 C1485 1.370 1_655 S
C1481 H1454 0.929 . S
C1481 C1480 1.363 . S
C1481 C1482 1.385 . S
C1482 H1456 0.930 . S
C1482 C1481 1.385 . S
C1482 C1483 1.357 1_655 S
C1483 C1482 1.357 1_455 S
C1483 C1484 1.406 . S
C1484 H1458 0.929 . S
C1484 C1483 1.406 . S
C1484 C1485 1.391 . S
C1485 H1457 0.931 . S
C1485 C1480 1.370 1_455 S
C1485 C1484 1.391 . S
C1486 N1455 1.435 . S
C1486 C1487 1.358 1_655 S
C1486 C1491 1.371 . S
C1487 H1459 0.930 . S
C1487 C1486 1.358 1_455 S
C1487 C1488 1.405 . S
C1488 H1460 0.932 . S
C1488 C1487 1.405 . S
C1488 C1489 1.383 1_455 S
C1489 C1488 1.383 1_655 S
C1489 C1490 1.393 . S
C1490 H1462 0.931 . S
C1490 C1489 1.393 . S
C1490 C1491 1.382 . S
C1491 H1461 0.929 . S
C1491 C1486 1.371 . S
C1491 C1490 1.382 . S
C1492 N1455 1.423 . S
C1492 C1493 1.362 . S
C1492 C1497 1.388 . S
C1493 H1463 0.929 . S
C1493 C1492 1.362 . S
C1493 C1494 1.376 . S
C1494 H1465 0.931 . S
C1494 C1493 1.376 . S
C1494 C1495 1.396 . S
C1495 C1494 1.396 . S
C1495 C1496 1.348 . S
C1495 C1513 1.472 . S
C1496 H1466 0.973 . S
C1496 C1495 1.348 . S
C1496 C1497 1.443 . S
C1497 H1464 0.932 1_655 S
C1497 C1492 1.388 . S
C1497 C1496 1.443 . S
C1498 N1478 1.433 . S
C1498 C1499 1.363 . S
C1498 C1503 1.370 1_655 S
C1499 H1467 0.929 . S
C1499 C1498 1.363 . S
C1499 C1500 1.385 . S
C1500 H1468 0.930 . S
C1500 C1499 1.385 . S
C1500 C1501 1.357 1_655 S
C1501 C1500 1.357 1_455 S
C1501 C1502 1.406 . S
C1502 H1469 0.929 . S
C1502 C1501 1.406 . S
C1502 C1503 1.391 . S
C1503 H1470 0.931 . S
C1503 C1498 1.370 1_455 S
C1503 C1502 1.391 . S
C1504 N1478 1.435 . S
C1504 C1505 1.358 1_655 S
C1504 C1509 1.371 . S
C1505 H1471 0.930 . S
C1505 C1504 1.358 1_455 S
C1505 C1506 1.405 . S
C1506 H1472 0.932 . S
C1506 C1505 1.405 . S
C1506 C1507 1.383 1_455 S
C1507 C1506 1.383 1_655 S
C1507 C1508 1.393 . S
C1508 H1473 0.931 . S
C1508 C1507 1.393 . S
C1508 C1509 1.382 . S
C1509 H1474 0.929 . S
C1509 C1504 1.371 . S
C1509 C1508 1.382 . S
C1510 N1478 1.423 . S
C1510 C1511 1.362 . S
C1510 C1515 1.388 . S
C1511 H1475 0.929 . S
C1511 C1510 1.362 . S
C1511 C1512 1.376 . S
C1512 H1476 0.931 . S
C1512 C1511 1.376 . S
C1512 C1513 1.396 . S
C1513 C1495 1.472 . S
C1513 C1512 1.396 . S
C1513 C1514 1.348 . S
C1514 H1477 0.941 . S
C1514 C1513 1.348 . S
C1514 C1515 1.443 . S
C1515 H1479 0.932 1_655 S
C1515 C1510 1.388 . S
C1515 C1514 1.443 . S
H1516 C1543 0.929 . S
N1517 C1542 1.433 . S
N1517 C1548 1.435 . S
N1517 C1554 1.423 . S
H1518 C1544 0.930 . S
H1519 C1547 0.931 . S
H1520 C1546 0.929 . S
H1521 C1549 0.930 . S
H1522 C1550 0.932 . S
H1523 C1553 0.929 . S
H1524 C1552 0.931 . S
H1525 C1555 0.929 . S
H1526 C1559 0.932 . S
H1527 C1556 0.931 . S
H1528 C1558 0.929 . S
H1529 C1561 0.929 . S
H1530 C1562 0.930 . S
H1531 C1564 0.929 . S
H1532 C1565 0.931 . S
H1533 C1567 0.930 . S
H1534 C1568 0.932 . S
H1535 C1570 0.931 . S
H1536 C1571 0.929 . S
H1537 C1573 0.929 . S
H1538 C1574 0.931 . S
H1539 C1576 0.929 . S
N1540 C1560 1.433 . S
N1540 C1566 1.435 . S
N1540 C1572 1.423 . S
H1541 C1577 0.932 . S
C1542 N1517 1.433 . S
C1542 C1543 1.363 . S
C1542 C1547 1.370 . S
C1543 H1516 0.929 . S
C1543 C1542 1.363 . S
C1543 C1544 1.385 . S
C1544 H1518 0.930 . S
C1544 C1543 1.385 . S
C1544 C1545 1.357 . S
C1545 C1544 1.357 . S
C1545 C1546 1.406 . S
C1546 H1520 0.929 . S
C1546 C1545 1.406 . S
C1546 C1547 1.391 . S
C1547 H1519 0.931 . S
C1547 C1542 1.370 . S
C1547 C1546 1.391 . S
C1548 N1517 1.435 . S
C1548 C1549 1.358 . S
C1548 C1553 1.371 . S
C1549 H1521 0.930 . S
C1549 C1548 1.358 . S
C1549 C1550 1.405 . S
C1550 H1522 0.932 . S
C1550 C1549 1.405 . S
C1550 C1551 1.383 . S
C1551 C1550 1.383 . S
C1551 C1552 1.393 . S
C1552 H1524 0.931 . S
C1552 C1551 1.393 . S
C1552 C1553 1.382 . S
C1553 H1523 0.929 . S
C1553 C1548 1.371 . S
C1553 C1552 1.382 . S
C1554 N1517 1.423 . S
C1554 C1555 1.362 . S
C1554 C1559 1.388 . S
C1555 H1525 0.929 . S
C1555 C1554 1.362 . S
C1555 C1556 1.376 . S
C1556 H1527 0.931 . S
C1556 C1555 1.376 . S
C1556 C1557 1.396 . S
C1557 C1556 1.396 . S
C1557 C1558 1.348 . S
C1557 C1575 1.472 . S
C1558 H1528 0.929 . S
C1558 C1557 1.348 . S
C1558 C1559 1.443 . S
C1559 H1526 0.932 . S
C1559 C1554 1.388 . S
C1559 C1558 1.443 . S
C1560 N1540 1.433 . S
C1560 C1561 1.363 . S
C1560 C1565 1.370 . S
C1561 H1529 0.929 . S
C1561 C1560 1.363 . S
C1561 C1562 1.385 . S
C1562 H1530 0.930 . S
C1562 C1561 1.385 . S
C1562 C1563 1.357 . S
C1563 C1562 1.357 . S
C1563 C1564 1.406 . S
C1564 H1531 0.929 . S
C1564 C1563 1.406 . S
C1564 C1565 1.391 . S
C1565 H1532 0.931 . S
C1565 C1560 1.370 . S
C1565 C1564 1.391 . S
C1566 N1540 1.435 . S
C1566 C1567 1.358 . S
C1566 C1571 1.371 . S
C1567 H1533 0.930 . S
C1567 C1566 1.358 . S
C1567 C1568 1.405 . S
C1568 H1534 0.932 . S
C1568 C1567 1.405 . S
C1568 C1569 1.383 . S
C1569 C1568 1.383 . S
C1569 C1570 1.393 . S
C1570 H1535 0.931 . S
C1570 C1569 1.393 . S
C1570 C1571 1.382 . S
C1571 H1536 0.929 . S
C1571 C1566 1.371 . S
C1571 C1570 1.382 . S
C1572 N1540 1.423 . S
C1572 C1573 1.362 . S
C1572 C1577 1.388 . S
C1573 H1537 0.929 . S
C1573 C1572 1.362 . S
C1573 C1574 1.376 . S
C1574 H1538 0.931 . S
C1574 C1573 1.376 . S
C1574 C1575 1.396 . S
C1575 C1557 1.472 . S
C1575 C1574 1.396 . S
C1575 C1576 1.348 . S
C1576 H1539 0.929 . S
C1576 C1575 1.348 . S
C1576 C1577 1.443 . S
C1577 H1541 0.932 . S
C1577 C1572 1.388 . S
C1577 C1576 1.443 . S
H1578 C1605 0.929 . S
N1579 C1604 1.433 . S
N1579 C1610 1.435 . S
N1579 C1616 1.423 . S
H1580 C1606 0.930 . S
H1581 C1609 0.931 . S
H1582 C1608 0.929 . S
H1583 C1611 0.930 . S
H1584 C1612 0.932 . S
H1585 C1615 0.929 . S
H1586 C1614 0.931 . S
H1587 C1617 0.929 . S
H1588 C1621 0.932 . S
H1589 C1618 0.931 . S
H1590 C1620 0.929 . S
H1591 C1623 0.929 . S
H1592 C1624 0.930 . S
H1593 C1626 0.929 . S
H1594 C1627 0.931 . S
H1595 C1629 0.930 . S
H1596 C1630 0.932 . S
H1597 C1632 0.931 . S
H1598 C1633 0.929 . S
H1599 C1635 0.929 . S
H1600 C1636 0.931 . S
H1601 C1638 0.929 . S
N1602 C1622 1.433 . S
N1602 C1628 1.435 . S
N1602 C1634 1.423 . S
H1603 C1639 0.932 . S
C1604 N1579 1.433 . S
C1604 C1605 1.363 . S
C1604 C1609 1.370 . S
C1605 H1578 0.929 . S
C1605 C1604 1.363 . S
C1605 C1606 1.385 . S
C1606 H1580 0.930 . S
C1606 C1605 1.385 . S
C1606 C1607 1.357 . S
C1607 C1606 1.357 . S
C1607 C1608 1.406 . S
C1608 H1582 0.929 . S
C1608 C1607 1.406 . S
C1608 C1609 1.391 . S
C1609 H1581 0.931 . S
C1609 C1604 1.370 . S
C1609 C1608 1.391 . S
C1610 N1579 1.435 . S
C1610 C1611 1.358 . S
C1610 C1615 1.371 . S
C1611 H1583 0.930 . S
C1611 C1610 1.358 . S
C1611 C1612 1.405 . S
C1612 H1584 0.932 . S
C1612 C1611 1.405 . S
C1612 C1613 1.383 . S
C1613 C1612 1.383 . S
C1613 C1614 1.393 . S
C1614 H1586 0.931 . S
C1614 C1613 1.393 . S
C1614 C1615 1.382 . S
C1615 H1585 0.929 . S
C1615 C1610 1.371 . S
C1615 C1614 1.382 . S
C1616 N1579 1.423 . S
C1616 C1617 1.362 . S
C1616 C1621 1.388 . S
C1617 H1587 0.929 . S
C1617 C1616 1.362 . S
C1617 C1618 1.376 . S
C1618 H1589 0.931 . S
C1618 C1617 1.376 . S
C1618 C1619 1.396 . S
C1619 C1618 1.396 . S
C1619 C1620 1.348 . S
C1619 C1637 1.472 . S
C1620 H1590 0.929 . S
C1620 C1619 1.348 . S
C1620 C1621 1.443 . S
C1621 H1588 0.932 . S
C1621 C1616 1.388 . S
C1621 C1620 1.443 . S
C1622 N1602 1.433 . S
C1622 C1623 1.363 . S
C1622 C1627 1.370 . S
C1623 H1591 0.929 . S
C1623 C1622 1.363 . S
C1623 C1624 1.385 . S
C1624 H1592 0.930 . S
C1624 C1623 1.385 . S
C1624 C1625 1.357 . S
C1625 C1624 1.357 . S
C1625 C1626 1.406 . S
C1626 H1593 0.929 . S
C1626 C1625 1.406 . S
C1626 C1627 1.391 . S
C1627 H1594 0.931 . S
C1627 C1622 1.370 . S
C1627 C1626 1.391 . S
C1628 N1602 1.435 . S
C1628 C1629 1.358 . S
C1628 C1633 1.371 . S
C1629 H1595 0.930 . S
C1629 C1628 1.358 . S
C1629 C1630 1.405 . S
C1630 H1596 0.932 . S
C1630 C1629 1.405 . S
C1630 C1631 1.383 . S
C1631 C1630 1.383 . S
C1631 C1632 1.393 . S
C1632 H1597 0.931 . S
C1632 C1631 1.393 . S
C1632 C1633 1.382 . S
C1633 H1598 0.929 . S
C1633 C1628 1.371 . S
C1633 C1632 1.382 . S
C1634 N1602 1.423 . S
C1634 C1635 1.362 . S
C1634 C1639 1.388 . S
C1635 H1599 0.929 . S
C1635 C1634 1.362 . S
C1635 C1636 1.376 . S
C1636 H1600 0.931 . S
C1636 C1635 1.376 . S
C1636 C1637 1.396 . S
C1637 C1619 1.472 . S
C1637 C1636 1.396 . S
C1637 C1638 1.348 . S
C1638 H1601 0.929 . S
C1638 C1637 1.348 . S
C1638 C1639 1.443 . S
C1639 H1603 0.932 . S
C1639 C1634 1.388 . S
C1639 C1638 1.443 . S
H1640 C1667 0.929 . S
N1641 C1666 1.433 . S
N1641 C1672 1.435 . S
N1641 C1678 1.423 . S
H1642 C1668 0.930 . S
H1643 C1671 0.931 . S
H1644 C1670 0.929 . S
H1645 C1673 0.930 . S
H1646 C1674 0.932 . S
H1647 C1677 0.929 . S
H1648 C1676 0.931 . S
H1649 C1679 0.929 . S
H1650 C1683 0.932 . S
H1651 C1680 0.931 . S
H1652 C1682 0.929 . S
H1653 C1685 0.929 . S
H1654 C1686 0.930 . S
H1655 C1688 0.929 . S
H1656 C1689 0.931 . S
H1657 C1691 0.930 . S
H1658 C1692 0.932 . S
H1659 C1694 0.931 . S
H1660 C1695 0.929 . S
H1661 C1697 0.929 . S
H1662 C1698 0.931 . S
H1663 C1700 0.929 . S
N1664 C1684 1.433 . S
N1664 C1690 1.435 . S
N1664 C1696 1.423 . S
H1665 C1701 0.932 . S
C1666 N1641 1.433 . S
C1666 C1667 1.363 . S
C1666 C1671 1.370 . S
C1667 H1640 0.929 . S
C1667 C1666 1.363 . S
C1667 C1668 1.385 . S
C1668 H1642 0.930 . S
C1668 C1667 1.385 . S
C1668 C1669 1.357 . S
C1669 C1668 1.357 . S
C1669 C1670 1.406 . S
C1670 H1644 0.929 . S
C1670 C1669 1.406 . S
C1670 C1671 1.391 . S
C1671 H1643 0.931 . S
C1671 C1666 1.370 . S
C1671 C1670 1.391 . S
C1672 N1641 1.435 . S
C1672 C1673 1.358 . S
C1672 C1677 1.371 . S
C1673 H1645 0.930 . S
C1673 C1672 1.358 . S
C1673 C1674 1.405 . S
C1674 H1646 0.932 . S
C1674 C1673 1.405 . S
C1674 C1675 1.383 . S
C1675 C1674 1.383 . S
C1675 C1676 1.393 . S
C1676 H1648 0.931 . S
C1676 C1675 1.393 . S
C1676 C1677 1.382 . S
C1677 H1647 0.929 . S
C1677 C1672 1.371 . S
C1677 C1676 1.382 . S
C1678 N1641 1.423 . S
C1678 C1679 1.362 . S
C1678 C1683 1.388 . S
C1679 H1649 0.929 . S
C1679 C1678 1.362 . S
C1679 C1680 1.376 . S
C1680 H1651 0.931 . S
C1680 C1679 1.376 . S
C1680 C1681 1.396 . S
C1681 C1680 1.396 . S
C1681 C1682 1.348 . S
C1681 C1699 1.472 . S
C1682 H1652 0.929 . S
C1682 C1681 1.348 . S
C1682 C1683 1.443 . S
C1683 H1650 0.932 . S
C1683 C1678 1.388 . S
C1683 C1682 1.443 . S
C1684 N1664 1.433 . S
C1684 C1685 1.363 . S
C1684 C1689 1.370 . S
C1685 H1653 0.929 . S
C1685 C1684 1.363 . S
C1685 C1686 1.385 . S
C1686 H1654 0.930 . S
C1686 C1685 1.385 . S
C1686 C1687 1.357 . S
C1687 C1686 1.357 . S
C1687 C1688 1.406 . S
C1688 H1655 0.929 . S
C1688 C1687 1.406 . S
C1688 C1689 1.391 . S
C1689 H1656 0.931 . S
C1689 C1684 1.370 . S
C1689 C1688 1.391 . S
C1690 N1664 1.435 . S
C1690 C1691 1.358 . S
C1690 C1695 1.371 . S
C1691 H1657 0.930 . S
C1691 C1690 1.358 . S
C1691 C1692 1.405 . S
C1692 H1658 0.932 . S
C1692 C1691 1.405 . S
C1692 C1693 1.383 . S
C1693 C1692 1.383 . S
C1693 C1694 1.393 . S
C1694 H1659 0.931 . S
C1694 C1693 1.393 . S
C1694 C1695 1.382 . S
C1695 H1660 0.929 . S
C1695 C1690 1.371 . S
C1695 C1694 1.382 . S
C1696 N1664 1.423 . S
C1696 C1697 1.362 . S
C1696 C1701 1.388 . S
C1697 H1661 0.929 . S
C1697 C1696 1.362 . S
C1697 C1698 1.376 . S
C1698 H1662 0.931 . S
C1698 C1697 1.376 . S
C1698 C1699 1.396 . S
C1699 C1681 1.472 . S
C1699 C1698 1.396 . S
C1699 C1700 1.348 . S
C1700 H1663 0.929 . S
C1700 C1699 1.348 . S
C1700 C1701 1.443 . S
C1701 H1665 0.932 . S
C1701 C1696 1.388 . S
C1701 C1700 1.443 . S
H1702 C1729 0.929 . S
N1703 C1728 1.433 . S
N1703 C1734 1.435 . S
N1703 C1740 1.423 . S
H1704 C1730 0.930 . S
H1705 C1733 0.931 . S
H1706 C1732 0.929 . S
H1707 C1735 0.930 . S
H1708 C1736 0.932 . S
H1709 C1739 0.929 . S
H1710 C1738 0.931 . S
H1711 C1741 0.929 . S
H1712 C1745 0.932 . S
H1713 C1742 0.931 . S
H1714 C1744 0.929 . S
H1715 C1747 0.929 . S
H1716 C1748 0.930 . S
H1717 C1750 0.929 . S
H1718 C1751 0.931 . S
H1719 C1753 0.930 . S
H1720 C1754 0.932 . S
H1721 C1756 0.931 . S
H1722 C1757 0.929 . S
H1723 C1759 0.929 . S
H1724 C1760 0.931 . S
H1725 C1762 0.929 . S
N1726 C1746 1.433 . S
N1726 C1752 1.435 . S
N1726 C1758 1.423 . S
H1727 C1763 0.932 . S
C1728 N1703 1.433 . S
C1728 C1729 1.363 . S
C1728 C1733 1.370 . S
C1729 H1702 0.929 . S
C1729 C1728 1.363 . S
C1729 C1730 1.385 . S
C1730 H1704 0.930 . S
C1730 C1729 1.385 . S
C1730 C1731 1.357 . S
C1731 C1730 1.357 . S
C1731 C1732 1.406 . S
C1732 H1706 0.929 . S
C1732 C1731 1.406 . S
C1732 C1733 1.391 . S
C1733 H1705 0.931 . S
C1733 C1728 1.370 . S
C1733 C1732 1.391 . S
C1734 N1703 1.435 . S
C1734 C1735 1.358 . S
C1734 C1739 1.371 . S
C1735 H1707 0.930 . S
C1735 C1734 1.358 . S
C1735 C1736 1.405 . S
C1736 H1708 0.932 . S
C1736 C1735 1.405 . S
C1736 C1737 1.383 . S
C1737 C1736 1.383 . S
C1737 C1738 1.393 . S
C1738 H1710 0.931 . S
C1738 C1737 1.393 . S
C1738 C1739 1.382 . S
C1739 H1709 0.929 . S
C1739 C1734 1.371 . S
C1739 C1738 1.382 . S
C1740 N1703 1.423 . S
C1740 C1741 1.362 . S
C1740 C1745 1.388 . S
C1741 H1711 0.929 . S
C1741 C1740 1.362 . S
C1741 C1742 1.376 . S
C1742 H1713 0.931 . S
C1742 C1741 1.376 . S
C1742 C1743 1.396 . S
C1743 C1742 1.396 . S
C1743 C1744 1.348 . S
C1743 C1761 1.472 . S
C1744 H1714 0.929 . S
C1744 C1743 1.348 . S
C1744 C1745 1.443 . S
C1745 H1712 0.932 . S
C1745 C1740 1.388 . S
C1745 C1744 1.443 . S
C1746 N1726 1.433 . S
C1746 C1747 1.363 . S
C1746 C1751 1.370 . S
C1747 H1715 0.929 . S
C1747 C1746 1.363 . S
C1747 C1748 1.385 . S
C1748 H1716 0.930 . S
C1748 C1747 1.385 . S
C1748 C1749 1.357 . S
C1749 C1748 1.357 . S
C1749 C1750 1.406 . S
C1750 H1717 0.929 . S
C1750 C1749 1.406 . S
C1750 C1751 1.391 . S
C1751 H1718 0.931 . S
C1751 C1746 1.370 . S
C1751 C1750 1.391 . S
C1752 N1726 1.435 . S
C1752 C1753 1.358 . S
C1752 C1757 1.371 . S
C1753 H1719 0.930 . S
C1753 C1752 1.358 . S
C1753 C1754 1.405 . S
C1754 H1720 0.932 . S
C1754 C1753 1.405 . S
C1754 C1755 1.383 . S
C1755 C1754 1.383 . S
C1755 C1756 1.393 . S
C1756 H1721 0.931 . S
C1756 C1755 1.393 . S
C1756 C1757 1.382 . S
C1757 H1722 0.929 . S
C1757 C1752 1.371 . S
C1757 C1756 1.382 . S
C1758 N1726 1.423 . S
C1758 C1759 1.362 . S
C1758 C1763 1.388 . S
C1759 H1723 0.929 . S
C1759 C1758 1.362 . S
C1759 C1760 1.376 . S
C1760 H1724 0.931 . S
C1760 C1759 1.376 . S
C1760 C1761 1.396 . S
C1761 C1743 1.472 . S
C1761 C1760 1.396 . S
C1761 C1762 1.348 . S
C1762 H1725 0.929 . S
C1762 C1761 1.348 . S
C1762 C1763 1.443 . S
C1763 H1727 0.932 . S
C1763 C1758 1.388 . S
C1763 C1762 1.443 . S
C1764 C1765 1.349 . S
C1764 C1766 1.327 . S
C1764 H1789 0.950 . S
C1765 C1764 1.349 . S
C1765 C1781 1.349 1_655 S
C1766 C1764 1.327 . S
C1766 C1785 1.429 . S
C1766 H1790 0.950 . S
C1767 C1784 1.574 . S
C1767 C1786 1.368 1_455 S
C1767 H1791 0.949 . S
H1768 C1772 0.949 . S
C1769 C1770 1.349 1_455 S
C1769 C1771 1.327 . S
C1769 H1792 0.950 . S
C1770 C1769 1.349 1_655 S
C1770 C1782 1.349 . S
C1771 C1769 1.327 . S
C1771 C1787 1.429 1_455 S
C1771 H1793 0.950 . S
C1772 H1768 0.949 . S
C1772 C1780 1.574 . S
C1772 C1788 1.368 . S
H1773 C1781 0.950 . S
H1774 C1779 0.950 . S
H1775 C1780 0.949 . S
H1776 C1782 0.950 . S
H1777 C1783 0.950 . S
H1778 C1784 0.949 . S
C1779 H1774 0.950 . S
C1779 C1781 1.327 . S
C1779 C1785 1.429 1_455 S
C1780 C1772 1.574 . S
C1780 H1775 0.949 . S
C1780 C1786 1.368 . S
C1781 C1765 1.349 1_455 S
C1781 H1773 0.950 . S
C1781 C1779 1.327 . S
C1782 C1770 1.349 . S
C1782 H1776 0.950 . S
C1782 C1783 1.327 . S
C1783 H1777 0.950 . S
C1783 C1782 1.327 . S
C1783 C1787 1.429 . S
C1784 C1767 1.574 . S
C1784 H1778 0.949 . S
C1784 C1788 1.368 1_455 S
C1785 C1766 1.429 . S
C1785 C1779 1.429 1_655 S
C1785 C1786 1.523 . S
C1786 C1767 1.368 1_655 S
C1786 C1780 1.368 . S
C1786 C1785 1.523 . S
C1787 C1771 1.429 1_655 S
C1787 C1783 1.429 . S
C1787 C1788 1.523 . S
C1788 C1772 1.368 . S
C1788 C1784 1.368 1_655 S
C1788 C1787 1.523 . S
H1789 C1764 0.950 . S
H1790 C1766 0.950 . S
H1791 C1767 0.949 . S
H1792 C1769 0.950 . S
H1793 C1771 0.950 . S
C1794 C1795 1.349 . S
C1794 C1796 1.327 . S
C1794 H1819 0.950 . S
C1795 C1794 1.349 . S
C1795 C1811 1.349 . S
C1796 C1794 1.327 . S
C1796 C1815 1.429 . S
C1796 H1820 0.950 . S
C1797 C1814 1.574 . S
C1797 C1816 1.368 . S
C1797 H1821 0.949 . S
H1798 C1802 0.949 . S
C1799 C1800 1.349 . S
C1799 C1801 1.327 . S
C1799 H1822 0.950 . S
C1800 C1799 1.349 . S
C1800 C1812 1.349 . S
C1801 C1799 1.327 . S
C1801 C1817 1.429 . S
C1801 H1823 0.950 . S
C1802 H1798 0.949 . S
C1802 C1810 1.574 . S
C1802 C1818 1.368 . S
H1803 C1811 0.950 . S
H1804 C1809 0.950 . S
H1805 C1810 0.949 . S
H1806 C1812 0.950 . S
H1807 C1813 0.950 . S
H1808 C1814 0.949 . S
C1809 H1804 0.950 . S
C1809 C1811 1.327 . S
C1809 C1815 1.429 . S
C1810 C1802 1.574 . S
C1810 H1805 0.949 . S
C1810 C1816 1.368 . S
C1811 C1795 1.349 . S
C1811 H1803 0.950 . S
C1811 C1809 1.327 . S
C1812 C1800 1.349 . S
C1812 H1806 0.950 . S
C1812 C1813 1.327 . S
C1813 H1807 0.950 . S
C1813 C1812 1.327 . S
C1813 C1817 1.429 . S
C1814 C1797 1.574 . S
C1814 H1808 0.949 . S
C1814 C1818 1.368 . S
C1815 C1796 1.429 . S
C1815 C1809 1.429 . S
C1815 C1816 1.523 . S
C1816 C1797 1.368 . S
C1816 C1810 1.368 . S
C1816 C1815 1.523 . S
C1817 C1801 1.429 . S
C1817 C1813 1.429 . S
C1817 C1818 1.523 . S
C1818 C1802 1.368 . S
C1818 C1814 1.368 . S
C1818 C1817 1.523 . S
H1819 C1794 0.950 . S
H1820 C1796 0.950 . S
H1821 C1797 0.949 . S
H1822 C1799 0.950 . S
H1823 C1801 0.950 . S
C1824 C1825 1.349 . S
C1824 C1826 1.327 . S
C1824 H1849 0.950 . S
C1825 C1824 1.349 . S
C1825 C1841 1.349 1_545 S
C1826 C1824 1.327 . S
C1826 C1845 1.429 . S
C1826 H1850 0.950 . S
C1827 C1844 1.574 . S
C1827 C1846 1.368 1_565 S
C1827 H1851 0.949 . S
H1828 C1832 0.949 . S
C1829 C1830 1.349 1_565 S
C1829 C1831 1.327 . S
C1829 H1852 0.950 . S
C1830 C1829 1.349 1_545 S
C1830 C1842 1.349 . S
C1831 C1829 1.327 . S
C1831 C1847 1.429 1_565 S
C1831 H1853 0.950 . S
C1832 H1828 0.949 . S
C1832 C1840 1.574 . S
C1832 C1848 1.368 . S
H1833 C1841 0.950 . S
H1834 C1839 0.950 . S
H1835 C1840 0.949 . S
H1836 C1842 0.950 . S
H1837 C1843 0.950 . S
H1838 C1844 0.949 . S
C1839 H1834 0.950 . S
C1839 C1841 1.327 . S
C1839 C1845 1.429 1_565 S
C1840 C1832 1.574 . S
C1840 H1835 0.949 . S
C1840 C1846 1.368 . S
C1841 C1825 1.349 1_565 S
C1841 H1833 0.950 . S
C1841 C1839 1.327 . S
C1842 C1830 1.349 . S
C1842 H1836 0.950 . S
C1842 C1843 1.327 . S
C1843 H1837 0.950 . S
C1843 C1842 1.327 . S
C1843 C1847 1.429 . S
C1844 C1827 1.574 . S
C1844 H1838 0.949 . S
C1844 C1848 1.368 1_565 S
C1845 C1826 1.429 . S
C1845 C1839 1.429 1_545 S
C1845 C1846 1.523 . S
C1846 C1827 1.368 1_545 S
C1846 C1840 1.368 . S
C1846 C1845 1.523 . S
C1847 C1831 1.429 1_545 S
C1847 C1843 1.429 . S
C1847 C1848 1.523 . S
C1848 C1832 1.368 . S
C1848 C1844 1.368 1_545 S
C1848 C1847 1.523 . S
H1849 C1824 0.950 . S
H1850 C1826 0.950 . S
H1851 C1827 0.949 . S
H1852 C1829 0.950 . S
H1853 C1831 0.950 . S
C1854 C1855 1.349 1_545 S
C1854 C1856 1.327 . S
C1854 H1879 0.950 . S
C1855 C1854 1.349 1_565 S
C1855 C1871 1.349 . S
C1856 C1854 1.327 . S
C1856 C1875 1.429 1_545 S
C1856 H1880 0.950 . S
C1857 C1874 1.574 . S
C1857 C1876 1.368 . S
C1857 H1881 0.949 . S
H1858 C1862 0.949 . S
C1859 C1860 1.349 . S
C1859 C1861 1.327 . S
C1859 H1882 0.950 . S
C1860 C1859 1.349 . S
C1860 C1872 1.349 1_565 S
C1861 C1859 1.327 . S
C1861 C1877 1.429 . S
C1861 H1883 0.950 . S
C1862 H1858 0.949 . S
C1862 C1870 1.574 . S
C1862 C1878 1.368 1_545 S
H1863 C1871 0.950 . S
H1864 C1869 0.950 . S
H1865 C1870 0.949 . S
H1866 C1872 0.950 . S
H1867 C1873 0.950 . S
H1868 C1874 0.949 . S
C1869 H1864 0.950 . S
C1869 C1871 1.327 . S
C1869 C1875 1.429 . S
C1870 C1862 1.574 . S
C1870 H1865 0.949 . S
C1870 C1876 1.368 1_545 S
C1871 C1855 1.349 . S
C1871 H1863 0.950 . S
C1871 C1869 1.327 . S
C1872 C1860 1.349 1_545 S
C1872 H1866 0.950 . S
C1872 C1873 1.327 . S
C1873 H1867 0.950 . S
C1873 C1872 1.327 . S
C1873 C1877 1.429 1_545 S
C1874 C1857 1.574 . S
C1874 H1868 0.949 . S
C1874 C1878 1.368 . S
C1875 C1856 1.429 1_565 S
C1875 C1869 1.429 . S
C1875 C1876 1.523 . S
C1876 C1857 1.368 . S
C1876 C1870 1.368 1_565 S
C1876 C1875 1.523 . S
C1877 C1861 1.429 . S
C1877 C1873 1.429 1_565 S
C1877 C1878 1.523 . S
C1878 C1862 1.368 1_565 S
C1878 C1874 1.368 . S
C1878 C1877 1.523 . S
H1879 C1854 0.950 . S
H1880 C1856 0.950 . S
H1881 C1857 0.949 . S
H1882 C1859 0.950 . S
H1883 C1861 0.950 . S
C1884 C1885 1.349 . S
C1884 C1886 1.327 . S
C1884 H1909 0.950 . S
C1885 C1884 1.349 . S
C1885 C1901 1.349 1_455 S
C1886 C1884 1.327 . S
C1886 C1905 1.429 . S
C1886 H1910 0.950 . S
C1887 C1904 1.574 . S
C1887 C1906 1.368 1_655 S
C1887 H1911 0.949 . S
H1888 C1892 0.949 . S
C1889 C1890 1.349 1_655 S
C1889 C1891 1.327 . S
C1889 H1912 0.950 . S
C1890 C1889 1.349 1_455 S
C1890 C1902 1.349 . S
C1891 C1889 1.327 . S
C1891 C1907 1.429 1_655 S
C1891 H1913 0.950 . S
C1892 H1888 0.949 . S
C1892 C1900 1.574 . S
C1892 C1908 1.368 . S
H1893 C1901 0.950 . S
H1894 C1899 0.950 . S
H1895 C1900 0.949 . S
H1896 C1902 0.950 . S
H1897 C1903 0.950 . S
H1898 C1904 0.949 . S
C1899 H1894 0.950 . S
C1899 C1901 1.327 . S
C1899 C1905 1.429 1_655 S
C1900 C1892 1.574 . S
C1900 H1895 0.949 . S
C1900 C1906 1.368 . S
C1901 C1885 1.349 1_655 S
C1901 H1893 0.950 . S
C1901 C1899 1.327 . S
C1902 C1890 1.349 . S
C1902 H1896 0.950 . S
C1902 C1903 1.327 . S
C1903 H1897 0.950 . S
C1903 C1902 1.327 . S
C1903 C1907 1.429 . S
C1904 C1887 1.574 . S
C1904 H1898 0.949 . S
C1904 C1908 1.368 1_655 S
C1905 C1886 1.429 . S
C1905 C1899 1.429 1_455 S
C1905 C1906 1.523 . S
C1906 C1887 1.368 1_455 S
C1906 C1900 1.368 . S
C1906 C1905 1.523 . S
C1907 C1891 1.429 1_455 S
C1907 C1903 1.429 . S
C1907 C1908 1.523 . S
C1908 C1892 1.368 . S
C1908 C1904 1.368 1_455 S
C1908 C1907 1.523 . S
H1909 C1884 0.950 . S
H1910 C1886 0.950 . S
H1911 C1887 0.949 . S
H1912 C1889 0.950 . S
H1913 C1891 0.950 . S
C1914 C1915 1.349 . S
C1914 C1916 1.327 . S
C1914 H1939 0.950 . S
C1915 C1914 1.349 . S
C1915 C1931 1.349 . S
C1916 C1914 1.327 . S
C1916 C1935 1.429 . S
C1916 H1940 0.950 . S
C1917 C1934 1.574 . S
C1917 C1936 1.368 . S
C1917 H1941 0.949 . S
H1918 C1922 0.949 . S
C1919 C1920 1.349 . S
C1919 C1921 1.327 . S
C1919 H1942 0.950 . S
C1920 C1919 1.349 . S
C1920 C1932 1.349 . S
C1921 C1919 1.327 . S
C1921 C1937 1.429 . S
C1921 H1943 0.950 . S
C1922 H1918 0.949 . S
C1922 C1930 1.574 . S
C1922 C1938 1.368 . S
H1923 C1931 0.950 . S
H1924 C1929 0.950 . S
H1925 C1930 0.949 . S
H1926 C1932 0.950 . S
H1927 C1933 0.950 . S
H1928 C1934 0.949 . S
C1929 H1924 0.950 . S
C1929 C1931 1.327 . S
C1929 C1935 1.429 . S
C1930 C1922 1.574 . S
C1930 H1925 0.949 . S
C1930 C1936 1.368 . S
C1931 C1915 1.349 . S
C1931 H1923 0.950 . S
C1931 C1929 1.327 . S
C1932 C1920 1.349 . S
C1932 H1926 0.950 . S
C1932 C1933 1.327 . S
C1933 H1927 0.950 . S
C1933 C1932 1.327 . S
C1933 C1937 1.429 . S
C1934 C1917 1.574 . S
C1934 H1928 0.949 . S
C1934 C1938 1.368 . S
C1935 C1916 1.429 . S
C1935 C1929 1.429 . S
C1935 C1936 1.523 . S
C1936 C1917 1.368 . S
C1936 C1930 1.368 . S
C1936 C1935 1.523 . S
C1937 C1921 1.429 . S
C1937 C1933 1.429 . S
C1937 C1938 1.523 . S
C1938 C1922 1.368 . S
C1938 C1934 1.368 . S
C1938 C1937 1.523 . S
H1939 C1914 0.950 . S
H1940 C1916 0.950 . S
H1941 C1917 0.949 . S
H1942 C1919 0.950 . S
H1943 C1921 0.950 . S
C1944 C1945 1.349 . S
C1944 C1946 1.327 . S
C1944 H1969 0.950 . S
C1945 C1944 1.349 . S
C1945 C1961 1.349 1_455 S
C1946 C1944 1.327 . S
C1946 C1965 1.429 . S
C1946 H1970 0.950 . S
C1947 C1964 1.574 . S
C1947 C1966 1.368 1_655 S
C1947 H1971 0.949 . S
H1948 C1952 0.949 . S
C1949 C1950 1.349 1_655 S
C1949 C1951 1.327 . S
C1949 H1972 0.950 . S
C1950 C1949 1.349 1_455 S
C1950 C1962 1.349 . S
C1951 C1949 1.327 . S
C1951 C1967 1.429 1_655 S
C1951 H1973 0.950 . S
C1952 H1948 0.949 . S
C1952 C1960 1.574 . S
C1952 C1968 1.368 . S
H1953 C1961 0.950 . S
H1954 C1959 0.950 . S
H1955 C1960 0.949 . S
H1956 C1962 0.950 . S
H1957 C1963 0.950 . S
H1958 C1964 0.949 . S
C1959 H1954 0.950 . S
C1959 C1961 1.327 . S
C1959 C1965 1.429 1_655 S
C1960 C1952 1.574 . S
C1960 H1955 0.949 . S
C1960 C1966 1.368 . S
C1961 C1945 1.349 1_655 S
C1961 H1953 0.950 . S
C1961 C1959 1.327 . S
C1962 C1950 1.349 . S
C1962 H1956 0.950 . S
C1962 C1963 1.327 . S
C1963 H1957 0.950 . S
C1963 C1962 1.327 . S
C1963 C1967 1.429 . S
C1964 C1947 1.574 . S
C1964 H1958 0.949 . S
C1964 C1968 1.368 1_655 S
C1965 C1946 1.429 . S
C1965 C1959 1.429 1_455 S
C1965 C1966 1.523 . S
C1966 C1947 1.368 1_455 S
C1966 C1960 1.368 . S
C1966 C1965 1.523 . S
C1967 C1951 1.429 1_455 S
C1967 C1963 1.429 . S
C1967 C1968 1.523 . S
C1968 C1952 1.368 . S
C1968 C1964 1.368 1_455 S
C1968 C1967 1.523 . S
H1969 C1944 0.950 . S
H1970 C1946 0.950 . S
H1971 C1947 0.949 . S
H1972 C1949 0.950 . S
H1973 C1951 0.950 . S
C1974 C1975 1.349 . S
C1974 C1976 1.327 . S
C1974 H1999 0.950 . S
C1975 C1974 1.349 . S
C1975 C1991 1.349 . S
C1976 C1974 1.327 . S
C1976 C1995 1.429 . S
C1976 H2000 0.950 . S
C1977 C1994 1.574 . S
C1977 C1996 1.368 . S
C1977 H2001 0.949 . S
H1978 C1982 0.949 . S
C1979 C1980 1.349 . S
C1979 C1981 1.327 . S
C1979 H2002 0.950 . S
C1980 C1979 1.349 . S
C1980 C1992 1.349 . S
C1981 C1979 1.327 . S
C1981 C1997 1.429 . S
C1981 H2003 0.950 . S
C1982 H1978 0.949 . S
C1982 C1990 1.574 . S
C1982 C1998 1.368 . S
H1983 C1991 0.950 . S
H1984 C1989 0.950 . S
H1985 C1990 0.949 . S
H1986 C1992 0.950 . S
H1987 C1993 0.950 . S
H1988 C1994 0.949 . S
C1989 H1984 0.950 . S
C1989 C1991 1.327 . S
C1989 C1995 1.429 . S
C1990 C1982 1.574 . S
C1990 H1985 0.949 . S
C1990 C1996 1.368 . S
C1991 C1975 1.349 . S
C1991 H1983 0.950 . S
C1991 C1989 1.327 . S
C1992 C1980 1.349 . S
C1992 H1986 0.950 . S
C1992 C1993 1.327 . S
C1993 H1987 0.950 . S
C1993 C1992 1.327 . S
C1993 C1997 1.429 . S
C1994 C1977 1.574 . S
C1994 H1988 0.949 . S
C1994 C1998 1.368 . S
C1995 C1976 1.429 . S
C1995 C1989 1.429 . S
C1995 C1996 1.523 . S
C1996 C1977 1.368 . S
C1996 C1990 1.368 . S
C1996 C1995 1.523 . S
C1997 C1981 1.429 . S
C1997 C1993 1.429 . S
C1997 C1998 1.523 . S
C1998 C1982 1.368 . S
C1998 C1994 1.368 . S
C1998 C1997 1.523 . S
H1999 C1974 0.950 . S
H2000 C1976 0.950 . S
H2001 C1977 0.949 . S
H2002 C1979 0.950 . S
H2003 C1981 0.950 . S
C2004 C2005 1.349 1_565 S
C2004 C2006 1.327 . S
C2004 H2029 0.950 . S
C2005 C2004 1.349 1_545 S
C2005 C2021 1.348 . S
C2006 C2004 1.327 . S
C2006 C2025 1.492 . S
C2006 H2030 0.950 . S
C2007 C2024 1.574 . S
C2007 C2026 1.368 1_545 S
C2007 H2031 0.949 . S
H2008 C2012 0.949 . S
C2009 C2010 1.349 1_545 S
C2009 C2011 1.327 . S
C2009 H2032 0.950 . S
C2010 C2009 1.349 1_565 S
C2010 C2022 1.349 . S
C2011 C2009 1.327 . S
C2011 C2027 1.429 1_545 S
C2011 H2033 0.950 . S
C2012 H2008 0.949 . S
C2012 C2020 1.574 . S
C2012 C2028 1.368 . S
H2013 C2021 0.950 . S
H2014 C2019 0.950 . S
H2015 C2020 0.949 . S
H2016 C2022 0.950 . S
H2017 C2023 0.950 . S
H2018 C2024 0.949 . S
C2019 H2014 0.950 . S
C2019 C2021 1.327 . S
C2019 C2025 1.399 1_545 S
C2020 C2012 1.574 . S
C2020 H2015 0.949 . S
C2020 C2026 1.368 . S
C2021 C2005 1.348 . S
C2021 H2013 0.950 . S
C2021 C2019 1.327 . S
C2022 C2010 1.349 . S
C2022 H2016 0.950 . S
C2022 C2023 1.327 . S
C2023 H2017 0.950 . S
C2023 C2022 1.327 . S
C2023 C2027 1.429 . S
C2024 C2007 1.574 . S
C2024 H2018 0.949 . S
C2024 C2028 1.368 1_545 S
C2025 C2006 1.492 . S
C2025 C2019 1.399 1_565 S
C2025 C2026 1.497 . S
C2026 C2007 1.368 1_565 S
C2026 C2020 1.368 . S
C2026 C2025 1.497 . S
C2027 C2011 1.429 1_565 S
C2027 C2023 1.429 . S
C2027 C2028 1.523 . S
C2028 C2012 1.368 . S
C2028 C2024 1.368 1_565 S
C2028 C2027 1.523 . S
H2029 C2004 0.950 . S
H2030 C2006 0.950 . S
H2031 C2007 0.949 . S
H2032 C2009 0.950 . S
H2033 C2011 0.950 . S
C2034 C2035 1.349 1_565 S
C2034 C2036 1.327 . S
C2034 H2059 0.950 . S
C2035 C2034 1.349 1_545 S
C2035 C2051 1.349 . S
C2036 C2034 1.327 . S
C2036 C2055 1.429 1_565 S
C2036 H2060 0.950 . S
C2037 C2054 1.574 . S
C2037 C2056 1.368 . S
C2037 H2061 0.949 . S
H2038 C2042 0.949 . S
C2039 C2040 1.349 . S
C2039 C2041 1.327 . S
C2039 H2062 0.950 . S
C2040 C2039 1.349 . S
C2040 C2052 1.349 1_545 S
C2041 C2039 1.327 . S
C2041 C2057 1.429 . S
C2041 H2063 0.950 . S
C2042 H2038 0.949 . S
C2042 C2050 1.574 . S
C2042 C2058 1.368 1_565 S
H2043 C2051 0.950 . S
H2044 C2049 0.950 . S
H2045 C2050 0.949 . S
H2046 C2052 0.950 . S
H2047 C2053 0.950 . S
H2048 C2054 0.949 . S
C2049 H2044 0.950 . S
C2049 C2051 1.327 . S
C2049 C2055 1.429 . S
C2050 C2042 1.574 . S
C2050 H2045 0.949 . S
C2050 C2056 1.368 1_565 S
C2051 C2035 1.349 . S
C2051 H2043 0.950 . S
C2051 C2049 1.327 . S
C2052 C2040 1.349 1_565 S
C2052 H2046 0.950 . S
C2052 C2053 1.327 . S
C2053 H2047 0.950 . S
C2053 C2052 1.327 . S
C2053 C2057 1.429 1_565 S
C2054 C2037 1.574 . S
C2054 H2048 0.949 . S
C2054 C2058 1.368 . S
C2055 C2036 1.429 1_545 S
C2055 C2049 1.429 . S
C2055 C2056 1.523 . S
C2056 C2037 1.368 . S
C2056 C2050 1.368 1_545 S
C2056 C2055 1.523 . S
C2057 C2041 1.429 . S
C2057 C2053 1.429 1_545 S
C2057 C2058 1.523 . S
C2058 C2042 1.368 1_545 S
C2058 C2054 1.368 . S
C2058 C2057 1.523 . S
H2059 C2034 0.950 . S
H2060 C2036 0.950 . S
H2061 C2037 0.949 . S
H2062 C2039 0.950 . S
H2063 C2041 0.950 . S
C2064 C2065 1.349 1_455 S
C2064 C2066 1.327 . S
C2064 H2089 0.950 . S
C2065 C2064 1.349 1_655 S
C2065 C2081 1.349 . S
C2066 C2064 1.327 . S
C2066 C2085 1.429 1_455 S
C2066 H2090 0.950 . S
C2067 C2084 1.574 . S
C2067 C2086 1.368 . S
C2067 H2091 0.949 . S
H2068 C2072 0.949 . S
C2069 C2070 1.349 . S
C2069 C2071 1.327 . S
C2069 H2092 0.950 . S
C2070 C2069 1.349 . S
C2070 C2082 1.349 1_655 S
C2071 C2069 1.327 . S
C2071 C2087 1.429 . S
C2071 H2093 0.950 . S
C2072 H2068 0.949 . S
C2072 C2080 1.574 . S
C2072 C2088 1.368 1_455 S
H2073 C2081 0.950 . S
H2074 C2079 0.950 . S
H2075 C2080 0.949 . S
H2076 C2082 0.950 . S
H2077 C2083 0.950 . S
H2078 C2084 0.949 . S
C2079 H2074 0.950 . S
C2079 C2081 1.327 . S
C2079 C2085 1.429 . S
C2080 C2072 1.574 . S
C2080 H2075 0.949 . S
C2080 C2086 1.368 1_455 S
C2081 C2065 1.349 . S
C2081 H2073 0.950 . S
C2081 C2079 1.327 . S
C2082 C2070 1.349 1_455 S
C2082 H2076 0.950 . S
C2082 C2083 1.327 . S
C2083 H2077 0.950 . S
C2083 C2082 1.327 . S
C2083 C2087 1.429 1_455 S
C2084 C2067 1.574 . S
C2084 H2078 0.949 . S
C2084 C2088 1.368 . S
C2085 C2066 1.429 1_655 S
C2085 C2079 1.429 . S
C2085 C2086 1.523 . S
C2086 C2067 1.368 . S
C2086 C2080 1.368 1_655 S
C2086 C2085 1.523 . S
C2087 C2071 1.429 . S
C2087 C2083 1.429 1_655 S
C2087 C2088 1.523 . S
C2088 C2072 1.368 1_655 S
C2088 C2084 1.368 . S
C2088 C2087 1.523 . S
H2089 C2064 0.950 . S
H2090 C2066 0.950 . S
H2091 C2067 0.949 . S
H2092 C2069 0.950 . S
H2093 C2071 0.950 . S
C2094 C2095 1.349 . S
C2094 C2096 1.327 . S
C2094 H2119 0.950 . S
C2095 C2094 1.349 . S
C2095 C2111 1.349 . S
C2096 C2094 1.327 . S
C2096 C2115 1.429 . S
C2096 H2120 0.950 . S
C2097 C2114 1.574 . S
C2097 C2116 1.368 . S
C2097 H2121 0.949 . S
H2098 C2102 0.949 . S
C2099 C2100 1.349 . S
C2099 C2101 1.327 . S
C2099 H2122 0.950 . S
C2100 C2099 1.349 . S
C2100 C2112 1.349 . S
C2101 C2099 1.327 . S
C2101 C2117 1.429 . S
C2101 H2123 0.950 . S
C2102 H2098 0.949 . S
C2102 C2110 1.574 . S
C2102 C2118 1.368 . S
H2103 C2111 0.950 . S
H2104 C2109 0.950 . S
H2105 C2110 0.949 . S
H2106 C2112 0.950 . S
H2107 C2113 0.950 . S
H2108 C2114 0.949 . S
C2109 H2104 0.950 . S
C2109 C2111 1.327 . S
C2109 C2115 1.429 . S
C2110 C2102 1.574 . S
C2110 H2105 0.949 . S
C2110 C2116 1.368 . S
C2111 C2095 1.349 . S
C2111 H2103 0.950 . S
C2111 C2109 1.327 . S
C2112 C2100 1.349 . S
C2112 H2106 0.950 . S
C2112 C2113 1.327 . S
C2113 H2107 0.950 . S
C2113 C2112 1.327 . S
C2113 C2117 1.429 . S
C2114 C2097 1.574 . S
C2114 H2108 0.949 . S
C2114 C2118 1.368 . S
C2115 C2096 1.429 . S
C2115 C2109 1.429 . S
C2115 C2116 1.523 . S
C2116 C2097 1.368 . S
C2116 C2110 1.368 . S
C2116 C2115 1.523 . S
C2117 C2101 1.429 . S
C2117 C2113 1.429 . S
C2117 C2118 1.523 . S
C2118 C2102 1.368 . S
C2118 C2114 1.368 . S
C2118 C2117 1.523 . S
H2119 C2094 0.950 . S
H2120 C2096 0.950 . S
H2121 C2097 0.949 . S
H2122 C2099 0.950 . S
H2123 C2101 0.950 . S
C2124 C2125 1.349 . S
C2124 C2126 1.327 . S
C2124 H2149 0.950 . S
C2125 C2124 1.349 . S
C2125 C2141 1.349 . S
C2126 C2124 1.327 . S
C2126 C2145 1.429 . S
C2126 H2150 0.950 . S
C2127 C2144 1.574 . S
C2127 C2146 1.368 . S
C2127 H2151 0.949 . S
H2128 C2132 0.949 . S
C2129 C2130 1.349 . S
C2129 C2131 1.327 . S
C2129 H2152 0.950 . S
C2130 C2129 1.349 . S
C2130 C2142 1.349 . S
C2131 C2129 1.327 . S
C2131 C2147 1.429 . S
C2131 H2153 0.950 . S
C2132 H2128 0.949 . S
C2132 C2140 1.574 . S
C2132 C2148 1.368 . S
H2133 C2141 0.950 . S
H2134 C2139 0.950 . S
H2135 C2140 0.949 . S
H2136 C2142 0.950 . S
H2137 C2143 0.950 . S
H2138 C2144 0.949 . S
C2139 H2134 0.950 . S
C2139 C2141 1.327 . S
C2139 C2145 1.429 . S
C2140 C2132 1.574 . S
C2140 H2135 0.949 . S
C2140 C2146 1.368 . S
C2141 C2125 1.349 . S
C2141 H2133 0.950 . S
C2141 C2139 1.327 . S
C2142 C2130 1.349 . S
C2142 H2136 0.950 . S
C2142 C2143 1.327 . S
C2143 H2137 0.950 . S
C2143 C2142 1.327 . S
C2143 C2147 1.429 . S
C2144 C2127 1.574 . S
C2144 H2138 0.949 . S
C2144 C2148 1.368 . S
C2145 C2126 1.429 . S
C2145 C2139 1.429 . S
C2145 C2146 1.523 . S
C2146 C2127 1.368 . S
C2146 C2140 1.368 . S
C2146 C2145 1.523 . S
C2147 C2131 1.429 . S
C2147 C2143 1.429 . S
C2147 C2148 1.523 . S
C2148 C2132 1.368 . S
C2148 C2144 1.368 . S
C2148 C2147 1.523 . S
H2149 C2124 0.950 . S
H2150 C2126 0.950 . S
H2151 C2127 0.949 . S
H2152 C2129 0.950 . S
H2153 C2131 0.950 . S
C2154 C2155 1.349 . S
C2154 C2156 1.327 . S
C2154 H2179 0.950 . S
C2155 C2154 1.349 . S
C2155 C2171 1.349 . S
C2156 C2154 1.327 . S
C2156 C2175 1.429 . S
C2156 H2180 0.950 . S
C2157 C2174 1.574 . S
C2157 C2176 1.368 . S
C2157 H2181 0.949 . S
H2158 C2162 0.949 . S
C2159 C2160 1.349 . S
C2159 C2161 1.327 . S
C2159 H2182 0.950 . S
C2160 C2159 1.349 . S
C2160 C2172 1.349 . S
C2161 C2159 1.327 . S
C2161 C2177 1.429 . S
C2161 H2183 0.950 . S
C2162 H2158 0.949 . S
C2162 C2170 1.574 . S
C2162 C2178 1.368 . S
H2163 C2171 0.950 . S
H2164 C2169 0.950 . S
H2165 C2170 0.949 . S
H2166 C2172 0.950 . S
H2167 C2173 0.950 . S
H2168 C2174 0.949 . S
C2169 H2164 0.950 . S
C2169 C2171 1.327 . S
C2169 C2175 1.429 . S
C2170 C2162 1.574 . S
C2170 H2165 0.949 . S
C2170 C2176 1.368 . S
C2171 C2155 1.349 . S
C2171 H2163 0.950 . S
C2171 C2169 1.327 . S
C2172 C2160 1.349 . S
C2172 H2166 0.950 . S
C2172 C2173 1.327 . S
C2173 H2167 0.950 . S
C2173 C2172 1.327 . S
C2173 C2177 1.429 . S
C2174 C2157 1.574 . S
C2174 H2168 0.949 . S
C2174 C2178 1.368 . S
C2175 C2156 1.429 . S
C2175 C2169 1.429 . S
C2175 C2176 1.523 . S
C2176 C2157 1.368 . S
C2176 C2170 1.368 . S
C2176 C2175 1.523 . S
C2177 C2161 1.429 . S
C2177 C2173 1.429 . S
C2177 C2178 1.523 . S
C2178 C2162 1.368 . S
C2178 C2174 1.368 . S
C2178 C2177 1.523 . S
H2179 C2154 0.950 . S
H2180 C2156 0.950 . S
H2181 C2157 0.949 . S
H2182 C2159 0.950 . S
H2183 C2161 0.950 . S
C2184 C2185 1.349 . S
C2184 C2186 1.327 . S
C2184 H2209 0.950 . S
C2185 C2184 1.349 . S
C2185 C2201 1.349 . S
C2186 C2184 1.327 . S
C2186 C2205 1.429 . S
C2186 H2210 0.950 . S
C2187 C2204 1.574 . S
C2187 C2206 1.368 . S
C2187 H2211 0.949 . S
H2188 C2192 0.949 . S
C2189 C2190 1.349 . S
C2189 C2191 1.327 . S
C2189 H2212 0.950 . S
C2190 C2189 1.349 . S
C2190 C2202 1.349 . S
C2191 C2189 1.327 . S
C2191 C2207 1.429 . S
C2191 H2213 0.950 . S
C2192 H2188 0.949 . S
C2192 C2200 1.574 . S
C2192 C2208 1.368 . S
H2193 C2201 0.950 . S
H2194 C2199 0.950 . S
H2195 C2200 0.949 . S
H2196 C2202 0.950 . S
H2197 C2203 0.950 . S
H2198 C2204 0.949 . S
C2199 H2194 0.950 . S
C2199 C2201 1.327 . S
C2199 C2205 1.429 . S
C2200 C2192 1.574 . S
C2200 H2195 0.949 . S
C2200 C2206 1.368 . S
C2201 C2185 1.349 . S
C2201 H2193 0.950 . S
C2201 C2199 1.327 . S
C2202 C2190 1.349 . S
C2202 H2196 0.950 . S
C2202 C2203 1.327 . S
C2203 H2197 0.950 . S
C2203 C2202 1.327 . S
C2203 C2207 1.429 . S
C2204 C2187 1.574 . S
C2204 H2198 0.949 . S
C2204 C2208 1.368 . S
C2205 C2186 1.429 . S
C2205 C2199 1.429 . S
C2205 C2206 1.523 . S
C2206 C2187 1.368 . S
C2206 C2200 1.368 . S
C2206 C2205 1.523 . S
C2207 C2191 1.429 . S
C2207 C2203 1.429 . S
C2207 C2208 1.523 . S
C2208 C2192 1.368 . S
C2208 C2204 1.368 . S
C2208 C2207 1.523 . S
H2209 C2184 0.950 . S
H2210 C2186 0.950 . S
H2211 C2187 0.949 . S
H2212 C2189 0.950 . S
H2213 C2191 0.950 . S
C2214 C2215 1.349 . S
C2214 C2216 1.327 . S
C2214 H2239 0.950 . S
C2215 C2214 1.349 . S
C2215 C2231 1.349 . S
C2216 C2214 1.327 . S
C2216 C2235 1.429 . S
C2216 H2240 0.950 . S
C2217 C2234 1.574 . S
C2217 C2236 1.368 . S
C2217 H2241 0.949 . S
H2218 C2222 0.949 . S
C2219 C2220 1.349 . S
C2219 C2221 1.327 . S
C2219 H2242 0.950 . S
C2220 C2219 1.349 . S
C2220 C2232 1.349 . S
C2221 C2219 1.327 . S
C2221 C2237 1.429 . S
C2221 H2243 0.950 . S
C2222 H2218 0.949 . S
C2222 C2230 1.574 . S
C2222 C2238 1.368 . S
H2223 C2231 0.950 . S
H2224 C2229 0.950 . S
H2225 C2230 0.949 . S
H2226 C2232 0.950 . S
H2227 C2233 0.950 . S
H2228 C2234 0.949 . S
C2229 H2224 0.950 . S
C2229 C2231 1.327 . S
C2229 C2235 1.429 . S
C2230 C2222 1.574 . S
C2230 H2225 0.949 . S
C2230 C2236 1.368 . S
C2231 C2215 1.349 . S
C2231 H2223 0.950 . S
C2231 C2229 1.327 . S
C2232 C2220 1.349 . S
C2232 H2226 0.950 . S
C2232 C2233 1.327 . S
C2233 H2227 0.950 . S
C2233 C2232 1.327 . S
C2233 C2237 1.429 . S
C2234 C2217 1.574 . S
C2234 H2228 0.949 . S
C2234 C2238 1.368 . S
C2235 C2216 1.429 . S
C2235 C2229 1.429 . S
C2235 C2236 1.523 . S
C2236 C2217 1.368 . S
C2236 C2230 1.368 . S
C2236 C2235 1.523 . S
C2237 C2221 1.429 . S
C2237 C2233 1.429 . S
C2237 C2238 1.523 . S
C2238 C2222 1.368 . S
C2238 C2234 1.368 . S
C2238 C2237 1.523 . S
H2239 C2214 0.950 . S
H2240 C2216 0.950 . S
H2241 C2217 0.949 . S
H2242 C2219 0.950 . S
H2243 C2221 0.950 . S
C2244 C2245 1.349 . S
C2244 C2246 1.327 . S
C2244 H2269 0.950 . S
C2245 C2244 1.349 . S
C2245 C2261 1.349 . S
C2246 C2244 1.327 . S
C2246 C2265 1.429 . S
C2246 H2270 0.950 . S
C2247 C2264 1.574 . S
C2247 C2266 1.368 . S
C2247 H2271 0.949 . S
H2248 C2252 0.949 . S
C2249 C2250 1.349 . S
C2249 C2251 1.327 . S
C2249 H2272 0.950 . S
C2250 C2249 1.349 . S
C2250 C2262 1.349 . S
C2251 C2249 1.327 . S
C2251 C2267 1.429 . S
C2251 H2273 0.950 . S
C2252 H2248 0.949 . S
C2252 C2260 1.574 . S
C2252 C2268 1.368 . S
H2253 C2261 0.950 . S
H2254 C2259 0.950 . S
H2255 C2260 0.949 . S
H2256 C2262 0.950 . S
H2257 C2263 0.950 . S
H2258 C2264 0.949 . S
C2259 H2254 0.950 . S
C2259 C2261 1.327 . S
C2259 C2265 1.429 . S
C2260 C2252 1.574 . S
C2260 H2255 0.949 . S
C2260 C2266 1.368 . S
C2261 C2245 1.349 . S
C2261 H2253 0.950 . S
C2261 C2259 1.327 . S
C2262 C2250 1.349 . S
C2262 H2256 0.950 . S
C2262 C2263 1.327 . S
C2263 H2257 0.950 . S
C2263 C2262 1.327 . S
C2263 C2267 1.429 . S
C2264 C2247 1.574 . S
C2264 H2258 0.949 . S
C2264 C2268 1.368 . S
C2265 C2246 1.429 . S
C2265 C2259 1.429 . S
C2265 C2266 1.523 . S
C2266 C2247 1.368 . S
C2266 C2260 1.368 . S
C2266 C2265 1.523 . S
C2267 C2251 1.429 . S
C2267 C2263 1.429 . S
C2267 C2268 1.523 . S
C2268 C2252 1.368 . S
C2268 C2264 1.368 . S
C2268 C2267 1.523 . S
H2269 C2244 0.950 . S
H2270 C2246 0.950 . S
H2271 C2247 0.949 . S
H2272 C2249 0.950 . S
H2273 C2251 0.950 . S
C2274 C2275 1.349 . S
C2274 C2276 1.327 . S
C2274 H2299 0.950 . S
C2275 C2274 1.349 . S
C2275 C2291 1.349 . S
C2276 C2274 1.327 . S
C2276 C2295 1.429 . S
C2276 H2300 0.950 . S
C2277 C2294 1.574 . S
C2277 C2296 1.368 . S
C2277 H2301 0.949 . S
H2278 C2282 0.949 . S
C2279 C2280 1.349 . S
C2279 C2281 1.327 . S
C2279 H2302 0.950 . S
C2280 C2279 1.349 . S
C2280 C2292 1.349 . S
C2281 C2279 1.327 . S
C2281 C2297 1.429 . S
C2281 H2303 0.950 . S
C2282 H2278 0.949 . S
C2282 C2290 1.574 . S
C2282 C2298 1.368 . S
H2283 C2291 0.950 . S
H2284 C2289 0.950 . S
H2285 C2290 0.949 . S
H2286 C2292 0.950 . S
H2287 C2293 0.950 . S
H2288 C2294 0.949 . S
C2289 H2284 0.950 . S
C2289 C2291 1.327 . S
C2289 C2295 1.429 . S
C2290 C2282 1.574 . S
C2290 H2285 0.949 . S
C2290 C2296 1.368 . S
C2291 C2275 1.349 . S
C2291 H2283 0.950 . S
C2291 C2289 1.327 . S
C2292 C2280 1.349 . S
C2292 H2286 0.950 . S
C2292 C2293 1.327 . S
C2293 H2287 0.950 . S
C2293 C2292 1.327 . S
C2293 C2297 1.429 . S
C2294 C2277 1.574 . S
C2294 H2288 0.949 . S
C2294 C2298 1.368 . S
C2295 C2276 1.429 . S
C2295 C2289 1.429 . S
C2295 C2296 1.523 . S
C2296 C2277 1.368 . S
C2296 C2290 1.368 . S
C2296 C2295 1.523 . S
C2297 C2281 1.429 . S
C2297 C2293 1.429 . S
C2297 C2298 1.523 . S
C2298 C2282 1.368 . S
C2298 C2294 1.368 . S
C2298 C2297 1.523 . S
H2299 C2274 0.950 . S
H2300 C2276 0.950 . S
H2301 C2277 0.949 . S
H2302 C2279 0.950 . S
H2303 C2281 0.950 . S
C2304 C2305 1.349 . S
C2304 C2306 1.327 . S
C2304 H2329 0.950 . S
C2305 C2304 1.349 . S
C2305 C2321 1.349 . S
C2306 C2304 1.327 . S
C2306 C2325 1.429 . S
C2306 H2330 0.950 . S
C2307 C2324 1.574 . S
C2307 C2326 1.368 . S
C2307 H2331 0.949 . S
H2308 C2312 0.949 . S
C2309 C2310 1.349 . S
C2309 C2311 1.327 . S
C2309 H2332 0.950 . S
C2310 C2309 1.349 . S
C2310 C2322 1.349 . S
C2311 C2309 1.327 . S
C2311 C2327 1.429 . S
C2311 H2333 0.950 . S
C2312 H2308 0.949 . S
C2312 C2320 1.574 . S
C2312 C2328 1.368 . S
H2313 C2321 0.950 . S
H2314 C2319 0.950 . S
H2315 C2320 0.949 . S
H2316 C2322 0.950 . S
H2317 C2323 0.950 . S
H2318 C2324 0.949 . S
C2319 H2314 0.950 . S
C2319 C2321 1.327 . S
C2319 C2325 1.429 . S
C2320 C2312 1.574 . S
C2320 H2315 0.949 . S
C2320 C2326 1.368 . S
C2321 C2305 1.349 . S
C2321 H2313 0.950 . S
C2321 C2319 1.327 . S
C2322 C2310 1.349 . S
C2322 H2316 0.950 . S
C2322 C2323 1.327 . S
C2323 H2317 0.950 . S
C2323 C2322 1.327 . S
C2323 C2327 1.429 . S
C2324 C2307 1.574 . S
C2324 H2318 0.949 . S
C2324 C2328 1.368 . S
C2325 C2306 1.429 . S
C2325 C2319 1.429 . S
C2325 C2326 1.523 . S
C2326 C2307 1.368 . S
C2326 C2320 1.368 . S
C2326 C2325 1.523 . S
C2327 C2311 1.429 . S
C2327 C2323 1.429 . S
C2327 C2328 1.523 . S
C2328 C2312 1.368 . S
C2328 C2324 1.368 . S
C2328 C2327 1.523 . S
H2329 C2304 0.950 . S
H2330 C2306 0.950 . S
H2331 C2307 0.949 . S
H2332 C2309 0.950 . S
H2333 C2311 0.950 . S
C2334 C2335 1.349 . S
C2334 C2336 1.327 . S
C2334 H2359 0.950 . S
C2335 C2334 1.349 . S
C2335 C2351 1.349 . S
C2336 C2334 1.327 . S
C2336 C2355 1.429 . S
C2336 H2360 0.950 . S
C2337 C2354 1.574 . S
C2337 C2356 1.368 . S
C2337 H2361 0.949 . S
H2338 C2342 0.949 . S
C2339 C2340 1.349 . S
C2339 C2341 1.327 . S
C2339 H2362 0.950 . S
C2340 C2339 1.349 . S
C2340 C2352 1.349 . S
C2341 C2339 1.327 . S
C2341 C2357 1.429 . S
C2341 H2363 0.950 . S
C2342 H2338 0.949 . S
C2342 C2350 1.574 . S
C2342 C2358 1.368 . S
H2343 C2351 0.950 . S
H2344 C2349 0.950 . S
H2345 C2350 0.949 . S
H2346 C2352 0.950 . S
H2347 C2353 0.950 . S
H2348 C2354 0.949 . S
C2349 H2344 0.950 . S
C2349 C2351 1.327 . S
C2349 C2355 1.429 . S
C2350 C2342 1.574 . S
C2350 H2345 0.949 . S
C2350 C2356 1.368 . S
C2351 C2335 1.349 . S
C2351 H2343 0.950 . S
C2351 C2349 1.327 . S
C2352 C2340 1.349 . S
C2352 H2346 0.950 . S
C2352 C2353 1.327 . S
C2353 H2347 0.950 . S
C2353 C2352 1.327 . S
C2353 C2357 1.429 . S
C2354 C2337 1.574 . S
C2354 H2348 0.949 . S
C2354 C2358 1.368 . S
C2355 C2336 1.429 . S
C2355 C2349 1.429 . S
C2355 C2356 1.523 . S
C2356 C2337 1.368 . S
C2356 C2350 1.368 . S
C2356 C2355 1.523 . S
C2357 C2341 1.429 . S
C2357 C2353 1.429 . S
C2357 C2358 1.523 . S
C2358 C2342 1.368 . S
C2358 C2354 1.368 . S
C2358 C2357 1.523 . S
H2359 C2334 0.950 . S
H2360 C2336 0.950 . S
H2361 C2337 0.949 . S
H2362 C2339 0.950 . S
H2363 C2341 0.950 . S
C2364 C2365 1.349 . S
C2364 C2366 1.327 . S
C2364 H2389 0.950 . S
C2365 C2364 1.349 . S
C2365 C2381 1.349 . S
C2366 C2364 1.327 . S
C2366 C2385 1.429 . S
C2366 H2390 0.950 . S
C2367 C2384 1.574 . S
C2367 C2386 1.368 . S
C2367 H2391 0.949 . S
H2368 C2372 0.949 . S
C2369 C2370 1.349 . S
C2369 C2371 1.327 . S
C2369 H2392 0.950 . S
C2370 C2369 1.349 . S
C2370 C2382 1.349 . S
C2371 C2369 1.327 . S
C2371 C2387 1.429 . S
C2371 H2393 0.950 . S
C2372 H2368 0.949 . S
C2372 C2380 1.574 . S
C2372 C2388 1.368 . S
H2373 C2381 0.950 . S
H2374 C2379 0.950 . S
H2375 C2380 0.949 . S
H2376 C2382 0.950 . S
H2377 C2383 0.950 . S
H2378 C2384 0.949 . S
C2379 H2374 0.950 . S
C2379 C2381 1.327 . S
C2379 C2385 1.429 . S
C2380 C2372 1.574 . S
C2380 H2375 0.949 . S
C2380 C2386 1.368 . S
C2381 C2365 1.349 . S
C2381 H2373 0.950 . S
C2381 C2379 1.327 . S
C2382 C2370 1.349 . S
C2382 H2376 0.950 . S
C2382 C2383 1.327 . S
C2383 H2377 0.950 . S
C2383 C2382 1.327 . S
C2383 C2387 1.429 . S
C2384 C2367 1.574 . S
C2384 H2378 0.949 . S
C2384 C2388 1.368 . S
C2385 C2366 1.429 . S
C2385 C2379 1.429 . S
C2385 C2386 1.523 . S
C2386 C2367 1.368 . S
C2386 C2380 1.368 . S
C2386 C2385 1.523 . S
C2387 C2371 1.429 . S
C2387 C2383 1.429 . S
C2387 C2388 1.523 . S
C2388 C2372 1.368 . S
C2388 C2384 1.368 . S
C2388 C2387 1.523 . S
H2389 C2364 0.950 . S
H2390 C2366 0.950 . S
H2391 C2367 0.949 . S
H2392 C2369 0.950 . S
H2393 C2371 0.950 . S
C2394 C2395 1.349 . S
C2394 C2396 1.327 . S
C2394 H2419 0.950 . S
C2395 C2394 1.349 . S
C2395 C2411 1.349 . S
C2396 C2394 1.327 . S
C2396 C2415 1.429 . S
C2396 H2420 0.950 . S
C2397 C2414 1.574 . S
C2397 C2416 1.368 . S
C2397 H2421 0.949 . S
H2398 C2402 0.949 . S
C2399 C2400 1.349 . S
C2399 C2401 1.327 . S
C2399 H2422 0.950 . S
C2400 C2399 1.349 . S
C2400 C2412 1.349 . S
C2401 C2399 1.327 . S
C2401 C2417 1.429 . S
C2401 H2423 0.950 . S
C2402 H2398 0.949 . S
C2402 C2410 1.574 . S
C2402 C2418 1.368 . S
H2403 C2411 0.950 . S
H2404 C2409 0.950 . S
H2405 C2410 0.949 . S
H2406 C2412 0.950 . S
H2407 C2413 0.950 . S
H2408 C2414 0.949 . S
C2409 H2404 0.950 . S
C2409 C2411 1.327 . S
C2409 C2415 1.429 . S
C2410 C2402 1.574 . S
C2410 H2405 0.949 . S
C2410 C2416 1.368 . S
C2411 C2395 1.349 . S
C2411 H2403 0.950 . S
C2411 C2409 1.327 . S
C2412 C2400 1.349 . S
C2412 H2406 0.950 . S
C2412 C2413 1.327 . S
C2413 H2407 0.950 . S
C2413 C2412 1.327 . S
C2413 C2417 1.429 . S
C2414 C2397 1.574 . S
C2414 H2408 0.949 . S
C2414 C2418 1.368 . S
C2415 C2396 1.429 . S
C2415 C2409 1.429 . S
C2415 C2416 1.523 . S
C2416 C2397 1.368 . S
C2416 C2410 1.368 . S
C2416 C2415 1.523 . S
C2417 C2401 1.429 . S
C2417 C2413 1.429 . S
C2417 C2418 1.523 . S
C2418 C2402 1.368 . S
C2418 C2414 1.368 . S
C2418 C2417 1.523 . S
H2419 C2394 0.950 . S
H2420 C2396 0.950 . S
H2421 C2397 0.949 . S
H2422 C2399 0.950 . S
H2423 C2401 0.950 . S
C2424 C2425 1.349 . S
C2424 C2426 1.327 . S
C2424 H2449 0.950 . S
C2425 C2424 1.349 . S
C2425 C2441 1.349 . S
C2426 C2424 1.327 . S
C2426 C2445 1.429 . S
C2426 H2450 0.950 . S
C2427 C2444 1.574 . S
C2427 C2446 1.368 . S
C2427 H2451 0.949 . S
H2428 C2432 0.949 . S
C2429 C2430 1.349 . S
C2429 C2431 1.327 . S
C2429 H2452 0.950 . S
C2430 C2429 1.349 . S
C2430 C2442 1.349 . S
C2431 C2429 1.327 . S
C2431 C2447 1.429 . S
C2431 H2453 0.950 . S
C2432 H2428 0.949 . S
C2432 C2440 1.574 . S
C2432 C2448 1.368 . S
H2433 C2441 0.950 . S
H2434 C2439 0.950 . S
H2435 C2440 0.949 . S
H2436 C2442 0.950 . S
H2437 C2443 0.950 . S
H2438 C2444 0.949 . S
C2439 H2434 0.950 . S
C2439 C2441 1.327 . S
C2439 C2445 1.429 . S
C2440 C2432 1.574 . S
C2440 H2435 0.949 . S
C2440 C2446 1.368 . S
C2441 C2425 1.349 . S
C2441 H2433 0.950 . S
C2441 C2439 1.327 . S
C2442 C2430 1.349 . S
C2442 H2436 0.950 . S
C2442 C2443 1.327 . S
C2443 H2437 0.950 . S
C2443 C2442 1.327 . S
C2443 C2447 1.429 . S
C2444 C2427 1.574 . S
C2444 H2438 0.949 . S
C2444 C2448 1.368 . S
C2445 C2426 1.429 . S
C2445 C2439 1.429 . S
C2445 C2446 1.523 . S
C2446 C2427 1.368 . S
C2446 C2440 1.368 . S
C2446 C2445 1.523 . S
C2447 C2431 1.429 . S
C2447 C2443 1.429 . S
C2447 C2448 1.523 . S
C2448 C2432 1.368 . S
C2448 C2444 1.368 . S
C2448 C2447 1.523 . S
H2449 C2424 0.950 . S
H2450 C2426 0.950 . S
H2451 C2427 0.949 . S
H2452 C2429 0.950 . S
H2453 C2431 0.950 . S
C2454 C2455 1.349 . S
C2454 C2456 1.327 . S
C2454 H2479 0.950 . S
C2455 C2454 1.349 . S
C2455 C2471 1.349 . S
C2456 C2454 1.327 . S
C2456 C2475 1.429 . S
C2456 H2480 0.950 . S
C2457 C2474 1.574 . S
C2457 C2476 1.368 . S
C2457 H2481 0.949 . S
H2458 C2462 0.949 . S
C2459 C2460 1.349 . S
C2459 C2461 1.327 . S
C2459 H2482 0.950 . S
C2460 C2459 1.349 . S
C2460 C2472 1.349 . S
C2461 C2459 1.327 . S
C2461 C2477 1.429 . S
C2461 H2483 0.950 . S
C2462 H2458 0.949 . S
C2462 C2470 1.574 . S
C2462 C2478 1.368 . S
H2463 C2471 0.950 . S
H2464 C2469 0.950 . S
H2465 C2470 0.949 . S
H2466 C2472 0.950 . S
H2467 C2473 0.950 . S
H2468 C2474 0.949 . S
C2469 H2464 0.950 . S
C2469 C2471 1.327 . S
C2469 C2475 1.429 . S
C2470 C2462 1.574 . S
C2470 H2465 0.949 . S
C2470 C2476 1.368 . S
C2471 C2455 1.349 . S
C2471 H2463 0.950 . S
C2471 C2469 1.327 . S
C2472 C2460 1.349 . S
C2472 H2466 0.950 . S
C2472 C2473 1.327 . S
C2473 H2467 0.950 . S
C2473 C2472 1.327 . S
C2473 C2477 1.429 . S
C2474 C2457 1.574 . S
C2474 H2468 0.949 . S
C2474 C2478 1.368 . S
C2475 C2456 1.429 . S
C2475 C2469 1.429 . S
C2475 C2476 1.523 . S
C2476 C2457 1.368 . S
C2476 C2470 1.368 . S
C2476 C2475 1.523 . S
C2477 C2461 1.429 . S
C2477 C2473 1.429 . S
C2477 C2478 1.523 . S
C2478 C2462 1.368 . S
C2478 C2474 1.368 . S
C2478 C2477 1.523 . S
H2479 C2454 0.950 . S
H2480 C2456 0.950 . S
H2481 C2457 0.949 . S
H2482 C2459 0.950 . S
H2483 C2461 0.950 . S
C2484 C2485 1.349 . S
C2484 C2486 1.327 . S
C2484 H2509 0.950 . S
C2485 C2484 1.349 . S
C2485 C2501 1.349 . S
C2486 C2484 1.327 . S
C2486 C2505 1.429 . S
C2486 H2510 0.950 . S
C2487 C2504 1.574 . S
C2487 C2506 1.368 . S
C2487 H2511 0.949 . S
H2488 C2492 0.949 . S
C2489 C2490 1.349 . S
C2489 C2491 1.327 . S
C2489 H2512 0.950 . S
C2490 C2489 1.349 . S
C2490 C2502 1.349 . S
C2491 C2489 1.327 . S
C2491 C2507 1.429 . S
C2491 H2513 0.950 . S
C2492 H2488 0.949 . S
C2492 C2500 1.574 . S
C2492 C2508 1.368 . S
H2493 C2501 0.950 . S
H2494 C2499 0.950 . S
H2495 C2500 0.949 . S
H2496 C2502 0.950 . S
H2497 C2503 0.950 . S
H2498 C2504 0.949 . S
C2499 H2494 0.950 . S
C2499 C2501 1.327 . S
C2499 C2505 1.429 . S
C2500 C2492 1.574 . S
C2500 H2495 0.949 . S
C2500 C2506 1.368 . S
C2501 C2485 1.349 . S
C2501 H2493 0.950 . S
C2501 C2499 1.327 . S
C2502 C2490 1.349 . S
C2502 H2496 0.950 . S
C2502 C2503 1.327 . S
C2503 H2497 0.950 . S
C2503 C2502 1.327 . S
C2503 C2507 1.429 . S
C2504 C2487 1.574 . S
C2504 H2498 0.949 . S
C2504 C2508 1.368 . S
C2505 C2486 1.429 . S
C2505 C2499 1.429 . S
C2505 C2506 1.523 . S
C2506 C2487 1.368 . S
C2506 C2500 1.368 . S
C2506 C2505 1.523 . S
C2507 C2491 1.429 . S
C2507 C2503 1.429 . S
C2507 C2508 1.523 . S
C2508 C2492 1.368 . S
C2508 C2504 1.368 . S
C2508 C2507 1.523 . S
H2509 C2484 0.950 . S
H2510 C2486 0.950 . S
H2511 C2487 0.949 . S
H2512 C2489 0.950 . S
H2513 C2491 0.950 . S
C2514 C2515 1.349 . S
C2514 C2516 1.327 . S
C2514 H2539 0.950 . S
C2515 C2514 1.349 . S
C2515 C2531 1.349 . S
C2516 C2514 1.327 . S
C2516 C2535 1.429 . S
C2516 H2540 0.950 . S
C2517 C2534 1.574 . S
C2517 C2536 1.368 . S
C2517 H2541 0.949 . S
H2518 C2522 0.949 . S
C2519 C2520 1.349 . S
C2519 C2521 1.327 . S
C2519 H2542 0.950 . S
C2520 C2519 1.349 . S
C2520 C2532 1.349 . S
C2521 C2519 1.327 . S
C2521 C2537 1.429 . S
C2521 H2543 0.950 . S
C2522 H2518 0.949 . S
C2522 C2530 1.574 . S
C2522 C2538 1.368 . S
H2523 C2531 0.950 . S
H2524 C2529 0.950 . S
H2525 C2530 0.949 . S
H2526 C2532 0.950 . S
H2527 C2533 0.950 . S
H2528 C2534 0.949 . S
C2529 H2524 0.950 . S
C2529 C2531 1.327 . S
C2529 C2535 1.429 . S
C2530 C2522 1.574 . S
C2530 H2525 0.949 . S
C2530 C2536 1.368 . S
C2531 C2515 1.349 . S
C2531 H2523 0.950 . S
C2531 C2529 1.327 . S
C2532 C2520 1.349 . S
C2532 H2526 0.950 . S
C2532 C2533 1.327 . S
C2533 H2527 0.950 . S
C2533 C2532 1.327 . S
C2533 C2537 1.429 . S
C2534 C2517 1.574 . S
C2534 H2528 0.949 . S
C2534 C2538 1.368 . S
C2535 C2516 1.429 . S
C2535 C2529 1.429 . S
C2535 C2536 1.523 . S
C2536 C2517 1.368 . S
C2536 C2530 1.368 . S
C2536 C2535 1.523 . S
C2537 C2521 1.429 . S
C2537 C2533 1.429 . S
C2537 C2538 1.523 . S
C2538 C2522 1.368 . S
C2538 C2534 1.368 . S
C2538 C2537 1.523 . S
H2539 C2514 0.950 . S
H2540 C2516 0.950 . S
H2541 C2517 0.949 . S
H2542 C2519 0.950 . S
H2543 C2521 0.950 . S
C2544 C2545 1.349 . S
C2544 C2546 1.327 . S
C2544 H2569 0.950 . S
C2545 C2544 1.349 . S
C2545 C2561 1.349 . S
C2546 C2544 1.327 . S
C2546 C2565 1.429 . S
C2546 H2570 0.950 . S
C2547 C2564 1.574 . S
C2547 C2566 1.368 . S
C2547 H2571 0.949 . S
H2548 C2552 0.949 . S
C2549 C2550 1.349 . S
C2549 C2551 1.327 . S
C2549 H2572 0.950 . S
C2550 C2549 1.349 . S
C2550 C2562 1.349 . S
C2551 C2549 1.327 . S
C2551 C2567 1.429 . S
C2551 H2573 0.950 . S
C2552 H2548 0.949 . S
C2552 C2560 1.574 . S
C2552 C2568 1.368 . S
H2553 C2561 0.950 . S
H2554 C2559 0.950 . S
H2555 C2560 0.949 . S
H2556 C2562 0.950 . S
H2557 C2563 0.950 . S
H2558 C2564 0.949 . S
C2559 H2554 0.950 . S
C2559 C2561 1.327 . S
C2559 C2565 1.429 . S
C2560 C2552 1.574 . S
C2560 H2555 0.949 . S
C2560 C2566 1.368 . S
C2561 C2545 1.349 . S
C2561 H2553 0.950 . S
C2561 C2559 1.327 . S
C2562 C2550 1.349 . S
C2562 H2556 0.950 . S
C2562 C2563 1.327 . S
C2563 H2557 0.950 . S
C2563 C2562 1.327 . S
C2563 C2567 1.429 . S
C2564 C2547 1.574 . S
C2564 H2558 0.949 . S
C2564 C2568 1.368 . S
C2565 C2546 1.429 . S
C2565 C2559 1.429 . S
C2565 C2566 1.523 . S
C2566 C2547 1.368 . S
C2566 C2560 1.368 . S
C2566 C2565 1.523 . S
C2567 C2551 1.429 . S
C2567 C2563 1.429 . S
C2567 C2568 1.523 . S
C2568 C2552 1.368 . S
C2568 C2564 1.368 . S
C2568 C2567 1.523 . S
H2569 C2544 0.950 . S
H2570 C2546 0.950 . S
H2571 C2547 0.949 . S
H2572 C2549 0.950 . S
H2573 C2551 0.950 . S
C2574 C2575 1.349 . S
C2574 C2576 1.327 . S
C2574 H2599 0.950 . S
C2575 C2574 1.349 . S
C2575 C2591 1.349 . S
C2576 C2574 1.327 . S
C2576 C2595 1.429 . S
C2576 H2600 0.950 . S
C2577 C2594 1.574 . S
C2577 C2596 1.368 . S
C2577 H2601 0.949 . S
H2578 C2582 0.949 . S
C2579 C2580 1.349 . S
C2579 C2581 1.327 . S
C2579 H2602 0.950 . S
C2580 C2579 1.349 . S
C2580 C2592 1.349 . S
C2581 C2579 1.327 . S
C2581 C2597 1.429 . S
C2581 H2603 0.950 . S
C2582 H2578 0.949 . S
C2582 C2590 1.574 . S
C2582 C2598 1.368 . S
H2583 C2591 0.950 . S
H2584 C2589 0.950 . S
H2585 C2590 0.949 . S
H2586 C2592 0.950 . S
H2587 C2593 0.950 . S
H2588 C2594 0.949 . S
C2589 H2584 0.950 . S
C2589 C2591 1.327 . S
C2589 C2595 1.429 . S
C2590 C2582 1.574 . S
C2590 H2585 0.949 . S
C2590 C2596 1.368 . S
C2591 C2575 1.349 . S
C2591 H2583 0.950 . S
C2591 C2589 1.327 . S
C2592 C2580 1.349 . S
C2592 H2586 0.950 . S
C2592 C2593 1.327 . S
C2593 H2587 0.950 . S
C2593 C2592 1.327 . S
C2593 C2597 1.429 . S
C2594 C2577 1.574 . S
C2594 H2588 0.949 . S
C2594 C2598 1.368 . S
C2595 C2576 1.429 . S
C2595 C2589 1.429 . S
C2595 C2596 1.523 . S
C2596 C2577 1.368 . S
C2596 C2590 1.368 . S
C2596 C2595 1.523 . S
C2597 C2581 1.429 . S
C2597 C2593 1.429 . S
C2597 C2598 1.523 . S
C2598 C2582 1.368 . S
C2598 C2594 1.368 . S
C2598 C2597 1.523 . S
H2599 C2574 0.950 . S
H2600 C2576 0.950 . S
H2601 C2577 0.949 . S
H2602 C2579 0.950 . S
H2603 C2581 0.950 . S
C2604 C2605 1.349 . S
C2604 C2606 1.327 . S
C2604 H2629 0.950 . S
C2605 C2604 1.349 . S
C2605 C2621 1.349 . S
C2606 C2604 1.327 . S
C2606 C2625 1.429 . S
C2606 H2630 0.950 . S
C2607 C2624 1.574 . S
C2607 C2626 1.368 . S
C2607 H2631 0.949 . S
H2608 C2612 0.949 . S
C2609 C2610 1.349 . S
C2609 C2611 1.327 . S
C2609 H2632 0.950 . S
C2610 C2609 1.349 . S
C2610 C2622 1.349 . S
C2611 C2609 1.327 . S
C2611 C2627 1.429 . S
C2611 H2633 0.950 . S
C2612 H2608 0.949 . S
C2612 C2620 1.574 . S
C2612 C2628 1.368 . S
H2613 C2621 0.950 . S
H2614 C2619 0.950 . S
H2615 C2620 0.949 . S
H2616 C2622 0.950 . S
H2617 C2623 0.950 . S
H2618 C2624 0.949 . S
C2619 H2614 0.950 . S
C2619 C2621 1.327 . S
C2619 C2625 1.429 . S
C2620 C2612 1.574 . S
C2620 H2615 0.949 . S
C2620 C2626 1.368 . S
C2621 C2605 1.349 . S
C2621 H2613 0.950 . S
C2621 C2619 1.327 . S
C2622 C2610 1.349 . S
C2622 H2616 0.950 . S
C2622 C2623 1.327 . S
C2623 H2617 0.950 . S
C2623 C2622 1.327 . S
C2623 C2627 1.429 . S
C2624 C2607 1.574 . S
C2624 H2618 0.949 . S
C2624 C2628 1.368 . S
C2625 C2606 1.429 . S
C2625 C2619 1.429 . S
C2625 C2626 1.523 . S
C2626 C2607 1.368 . S
C2626 C2620 1.368 . S
C2626 C2625 1.523 . S
C2627 C2611 1.429 . S
C2627 C2623 1.429 . S
C2627 C2628 1.523 . S
C2628 C2612 1.368 . S
C2628 C2624 1.368 . S
C2628 C2627 1.523 . S
H2629 C2604 0.950 . S
H2630 C2606 0.950 . S
H2631 C2607 0.949 . S
H2632 C2609 0.950 . S
H2633 C2611 0.950 . S
C2634 C2635 1.349 . S
C2634 C2636 1.327 . S
C2634 H2659 0.950 . S
C2635 C2634 1.349 . S
C2635 C2651 1.349 . S
C2636 C2634 1.327 . S
C2636 C2655 1.429 . S
C2636 H2660 0.950 . S
C2637 C2654 1.574 . S
C2637 C2656 1.368 . S
C2637 H2661 0.949 . S
H2638 C2642 0.949 . S
C2639 C2640 1.349 . S
C2639 C2641 1.327 . S
C2639 H2662 0.950 . S
C2640 C2639 1.349 . S
C2640 C2652 1.349 . S
C2641 C2639 1.327 . S
C2641 C2657 1.429 . S
C2641 H2663 0.950 . S
C2642 H2638 0.949 . S
C2642 C2650 1.574 . S
C2642 C2658 1.368 . S
H2643 C2651 0.950 . S
H2644 C2649 0.950 . S
H2645 C2650 0.949 . S
H2646 C2652 0.950 . S
H2647 C2653 0.950 . S
H2648 C2654 0.949 . S
C2649 H2644 0.950 . S
C2649 C2651 1.327 . S
C2649 C2655 1.429 . S
C2650 C2642 1.574 . S
C2650 H2645 0.949 . S
C2650 C2656 1.368 . S
C2651 C2635 1.349 . S
C2651 H2643 0.950 . S
C2651 C2649 1.327 . S
C2652 C2640 1.349 . S
C2652 H2646 0.950 . S
C2652 C2653 1.327 . S
C2653 H2647 0.950 . S
C2653 C2652 1.327 . S
C2653 C2657 1.429 . S
C2654 C2637 1.574 . S
C2654 H2648 0.949 . S
C2654 C2658 1.368 . S
C2655 C2636 1.429 . S
C2655 C2649 1.429 . S
C2655 C2656 1.523 . S
C2656 C2637 1.368 . S
C2656 C2650 1.368 . S
C2656 C2655 1.523 . S
C2657 C2641 1.429 . S
C2657 C2653 1.429 . S
C2657 C2658 1.523 . S
C2658 C2642 1.368 . S
C2658 C2654 1.368 . S
C2658 C2657 1.523 . S
H2659 C2634 0.950 . S
H2660 C2636 0.950 . S
H2661 C2637 0.949 . S
H2662 C2639 0.950 . S
H2663 C2641 0.950 . S
C2664 C2665 1.349 . S
C2664 C2666 1.327 . S
C2664 H2689 0.950 . S
C2665 C2664 1.349 . S
C2665 C2681 1.349 . S
C2666 C2664 1.327 . S
C2666 C2685 1.429 . S
C2666 H2690 0.950 . S
C2667 C2684 1.574 . S
C2667 C2686 1.368 . S
C2667 H2691 0.949 . S
H2668 C2672 0.949 . S
C2669 C2670 1.349 . S
C2669 C2671 1.327 . S
C2669 H2692 0.950 . S
C2670 C2669 1.349 . S
C2670 C2682 1.349 . S
C2671 C2669 1.327 . S
C2671 C2687 1.429 . S
C2671 H2693 0.950 . S
C2672 H2668 0.949 . S
C2672 C2680 1.574 . S
C2672 C2688 1.368 . S
H2673 C2681 0.950 . S
H2674 C2679 0.950 . S
H2675 C2680 0.949 . S
H2676 C2682 0.950 . S
H2677 C2683 0.950 . S
H2678 C2684 0.949 . S
C2679 H2674 0.950 . S
C2679 C2681 1.327 . S
C2679 C2685 1.429 . S
C2680 C2672 1.574 . S
C2680 H2675 0.949 . S
C2680 C2686 1.368 . S
C2681 C2665 1.349 . S
C2681 H2673 0.950 . S
C2681 C2679 1.327 . S
C2682 C2670 1.349 . S
C2682 H2676 0.950 . S
C2682 C2683 1.327 . S
C2683 H2677 0.950 . S
C2683 C2682 1.327 . S
C2683 C2687 1.429 . S
C2684 C2667 1.574 . S
C2684 H2678 0.949 . S
C2684 C2688 1.368 . S
C2685 C2666 1.429 . S
C2685 C2679 1.429 . S
C2685 C2686 1.523 . S
C2686 C2667 1.368 . S
C2686 C2680 1.368 . S
C2686 C2685 1.523 . S
C2687 C2671 1.429 . S
C2687 C2683 1.429 . S
C2687 C2688 1.523 . S
C2688 C2672 1.368 . S
C2688 C2684 1.368 . S
C2688 C2687 1.523 . S
H2689 C2664 0.950 . S
H2690 C2666 0.950 . S
H2691 C2667 0.949 . S
H2692 C2669 0.950 . S
H2693 C2671 0.950 . S
C2694 C2695 1.349 . S
C2694 C2696 1.327 . S
C2694 H2719 0.950 . S
C2695 C2694 1.349 . S
C2695 C2711 1.349 . S
C2696 C2694 1.327 . S
C2696 C2715 1.429 . S
C2696 H2720 0.950 . S
C2697 C2714 1.574 . S
C2697 C2716 1.368 . S
C2697 H2721 0.949 . S
H2698 C2702 0.949 . S
C2699 C2700 1.349 . S
C2699 C2701 1.327 . S
C2699 H2722 0.950 . S
C2700 C2699 1.349 . S
C2700 C2712 1.349 . S
C2701 C2699 1.327 . S
C2701 C2717 1.429 . S
C2701 H2723 0.950 . S
C2702 H2698 0.949 . S
C2702 C2710 1.574 . S
C2702 C2718 1.368 . S
H2703 C2711 0.950 . S
H2704 C2709 0.950 . S
H2705 C2710 0.949 . S
H2706 C2712 0.950 . S
H2707 C2713 0.950 . S
H2708 C2714 0.949 . S
C2709 H2704 0.950 . S
C2709 C2711 1.327 . S
C2709 C2715 1.429 . S
C2710 C2702 1.574 . S
C2710 H2705 0.949 . S
C2710 C2716 1.368 . S
C2711 C2695 1.349 . S
C2711 H2703 0.950 . S
C2711 C2709 1.327 . S
C2712 C2700 1.349 . S
C2712 H2706 0.950 . S
C2712 C2713 1.327 . S
C2713 H2707 0.950 . S
C2713 C2712 1.327 . S
C2713 C2717 1.429 . S
C2714 C2697 1.574 . S
C2714 H2708 0.949 . S
C2714 C2718 1.368 . S
C2715 C2696 1.429 . S
C2715 C2709 1.429 . S
C2715 C2716 1.523 . S
C2716 C2697 1.368 . S
C2716 C2710 1.368 . S
C2716 C2715 1.523 . S
C2717 C2701 1.429 . S
C2717 C2713 1.429 . S
C2717 C2718 1.523 . S
C2718 C2702 1.368 . S
C2718 C2714 1.368 . S
C2718 C2717 1.523 . S
H2719 C2694 0.950 . S
H2720 C2696 0.950 . S
H2721 C2697 0.949 . S
H2722 C2699 0.950 . S
H2723 C2701 0.950 . S
C2724 C2725 1.349 . S
C2724 C2726 1.327 . S
C2724 H2749 0.950 . S
C2725 C2724 1.349 . S
C2725 C2741 1.349 . S
C2726 C2724 1.327 . S
C2726 C2745 1.429 . S
C2726 H2750 0.950 . S
C2727 C2744 1.574 . S
C2727 C2746 1.368 . S
C2727 H2751 0.949 . S
H2728 C2732 0.949 . S
C2729 C2730 1.349 . S
C2729 C2731 1.327 . S
C2729 H2752 0.950 . S
C2730 C2729 1.349 . S
C2730 C2742 1.349 . S
C2731 C2729 1.327 . S
C2731 C2747 1.429 . S
C2731 H2753 0.950 . S
C2732 H2728 0.949 . S
C2732 C2740 1.574 . S
C2732 C2748 1.368 . S
H2733 C2741 0.950 . S
H2734 C2739 0.950 . S
H2735 C2740 0.949 . S
H2736 C2742 0.950 . S
H2737 C2743 0.950 . S
H2738 C2744 0.949 . S
C2739 H2734 0.950 . S
C2739 C2741 1.327 . S
C2739 C2745 1.429 . S
C2740 C2732 1.574 . S
C2740 H2735 0.949 . S
C2740 C2746 1.368 . S
C2741 C2725 1.349 . S
C2741 H2733 0.950 . S
C2741 C2739 1.327 . S
C2742 C2730 1.349 . S
C2742 H2736 0.950 . S
C2742 C2743 1.327 . S
C2743 H2737 0.950 . S
C2743 C2742 1.327 . S
C2743 C2747 1.429 . S
C2744 C2727 1.574 . S
C2744 H2738 0.949 . S
C2744 C2748 1.368 . S
C2745 C2726 1.429 . S
C2745 C2739 1.429 . S
C2745 C2746 1.523 . S
C2746 C2727 1.368 . S
C2746 C2740 1.368 . S
C2746 C2745 1.523 . S
C2747 C2731 1.429 . S
C2747 C2743 1.429 . S
C2747 C2748 1.523 . S
C2748 C2732 1.368 . S
C2748 C2744 1.368 . S
C2748 C2747 1.523 . S
H2749 C2724 0.950 . S
H2750 C2726 0.950 . S
H2751 C2727 0.949 . S
H2752 C2729 0.950 . S
H2753 C2731 0.950 . S
C2754 C2755 1.349 . S
C2754 C2756 1.327 . S
C2754 H2779 0.950 . S
C2755 C2754 1.349 . S
C2755 C2771 1.349 . S
C2756 C2754 1.327 . S
C2756 C2775 1.429 . S
C2756 H2780 0.950 . S
C2757 C2774 1.574 . S
C2757 C2776 1.368 . S
C2757 H2781 0.949 . S
H2758 C2762 0.949 . S
C2759 C2760 1.349 . S
C2759 C2761 1.327 . S
C2759 H2782 0.950 . S
C2760 C2759 1.349 . S
C2760 C2772 1.349 . S
C2761 C2759 1.327 . S
C2761 C2777 1.429 . S
C2761 H2783 0.950 . S
C2762 H2758 0.949 . S
C2762 C2770 1.574 . S
C2762 C2778 1.368 . S
H2763 C2771 0.950 . S
H2764 C2769 0.950 . S
H2765 C2770 0.949 . S
H2766 C2772 0.950 . S
H2767 C2773 0.950 . S
H2768 C2774 0.949 . S
C2769 H2764 0.950 . S
C2769 C2771 1.327 . S
C2769 C2775 1.429 . S
C2770 C2762 1.574 . S
C2770 H2765 0.949 . S
C2770 C2776 1.368 . S
C2771 C2755 1.349 . S
C2771 H2763 0.950 . S
C2771 C2769 1.327 . S
C2772 C2760 1.349 . S
C2772 H2766 0.950 . S
C2772 C2773 1.327 . S
C2773 H2767 0.950 . S
C2773 C2772 1.327 . S
C2773 C2777 1.429 . S
C2774 C2757 1.574 . S
C2774 H2768 0.949 . S
C2774 C2778 1.368 . S
C2775 C2756 1.429 . S
C2775 C2769 1.429 . S
C2775 C2776 1.523 . S
C2776 C2757 1.368 . S
C2776 C2770 1.368 . S
C2776 C2775 1.523 . S
C2777 C2761 1.429 . S
C2777 C2773 1.429 . S
C2777 C2778 1.523 . S
C2778 C2762 1.368 . S
C2778 C2774 1.368 . S
C2778 C2777 1.523 . S
H2779 C2754 0.950 . S
H2780 C2756 0.950 . S
H2781 C2757 0.949 . S
H2782 C2759 0.950 . S
H2783 C2761 0.950 . S
C2784 C2785 1.349 . S
C2784 C2786 1.327 . S
C2784 H2809 0.950 . S
C2785 C2784 1.349 . S
C2785 C2801 1.349 . S
C2786 C2784 1.327 . S
C2786 C2805 1.429 . S
C2786 H2810 0.950 . S
C2787 C2804 1.574 . S
C2787 C2806 1.368 . S
C2787 H2811 0.949 . S
H2788 C2792 0.949 . S
C2789 C2790 1.349 . S
C2789 C2791 1.327 . S
C2789 H2812 0.950 . S
C2790 C2789 1.349 . S
C2790 C2802 1.349 . S
C2791 C2789 1.327 . S
C2791 C2807 1.429 . S
C2791 H2813 0.950 . S
C2792 H2788 0.949 . S
C2792 C2800 1.574 . S
C2792 C2808 1.368 . S
H2793 C2801 0.950 . S
H2794 C2799 0.950 . S
H2795 C2800 0.949 . S
H2796 C2802 0.950 . S
H2797 C2803 0.950 . S
H2798 C2804 0.949 . S
C2799 H2794 0.950 . S
C2799 C2801 1.327 . S
C2799 C2805 1.429 . S
C2800 C2792 1.574 . S
C2800 H2795 0.949 . S
C2800 C2806 1.368 . S
C2801 C2785 1.349 . S
C2801 H2793 0.950 . S
C2801 C2799 1.327 . S
C2802 C2790 1.349 . S
C2802 H2796 0.950 . S
C2802 C2803 1.327 . S
C2803 H2797 0.950 . S
C2803 C2802 1.327 . S
C2803 C2807 1.429 . S
C2804 C2787 1.574 . S
C2804 H2798 0.949 . S
C2804 C2808 1.368 . S
C2805 C2786 1.429 . S
C2805 C2799 1.429 . S
C2805 C2806 1.523 . S
C2806 C2787 1.368 . S
C2806 C2800 1.368 . S
C2806 C2805 1.523 . S
C2807 C2791 1.429 . S
C2807 C2803 1.429 . S
C2807 C2808 1.523 . S
C2808 C2792 1.368 . S
C2808 C2804 1.368 . S
C2808 C2807 1.523 . S
H2809 C2784 0.950 . S
H2810 C2786 0.950 . S
H2811 C2787 0.949 . S
H2812 C2789 0.950 . S
H2813 C2791 0.950 . S
C2814 C2815 1.349 . S
C2814 C2816 1.327 . S
C2814 H2839 0.950 . S
C2815 C2814 1.349 . S
C2815 C2831 1.349 . S
C2816 C2814 1.327 . S
C2816 C2835 1.429 . S
C2816 H2840 0.950 . S
C2817 C2834 1.574 . S
C2817 C2836 1.368 . S
C2817 H2841 0.949 . S
H2818 C2822 0.949 . S
C2819 C2820 1.349 . S
C2819 C2821 1.327 . S
C2819 H2842 0.950 . S
C2820 C2819 1.349 . S
C2820 C2832 1.349 . S
C2821 C2819 1.327 . S
C2821 C2837 1.429 . S
C2821 H2843 0.950 . S
C2822 H2818 0.949 . S
C2822 C2830 1.574 . S
C2822 C2838 1.368 . S
H2823 C2831 0.950 . S
H2824 C2829 0.950 . S
H2825 C2830 0.949 . S
H2826 C2832 0.950 . S
H2827 C2833 0.950 . S
H2828 C2834 0.949 . S
C2829 H2824 0.950 . S
C2829 C2831 1.327 . S
C2829 C2835 1.429 . S
C2830 C2822 1.574 . S
C2830 H2825 0.949 . S
C2830 C2836 1.368 . S
C2831 C2815 1.349 . S
C2831 H2823 0.950 . S
C2831 C2829 1.327 . S
C2832 C2820 1.349 . S
C2832 H2826 0.950 . S
C2832 C2833 1.327 . S
C2833 H2827 0.950 . S
C2833 C2832 1.327 . S
C2833 C2837 1.429 . S
C2834 C2817 1.574 . S
C2834 H2828 0.949 . S
C2834 C2838 1.368 . S
C2835 C2816 1.429 . S
C2835 C2829 1.429 . S
C2835 C2836 1.523 . S
C2836 C2817 1.368 . S
C2836 C2830 1.368 . S
C2836 C2835 1.523 . S
C2837 C2821 1.429 . S
C2837 C2833 1.429 . S
C2837 C2838 1.523 . S
C2838 C2822 1.368 . S
C2838 C2834 1.368 . S
C2838 C2837 1.523 . S
H2839 C2814 0.950 . S
H2840 C2816 0.950 . S
H2841 C2817 0.949 . S
H2842 C2819 0.950 . S
H2843 C2821 0.950 . S
C2844 C2845 1.349 . S
C2844 C2846 1.327 . S
C2844 H2869 0.950 . S
C2845 C2844 1.349 . S
C2845 C2861 1.349 . S
C2846 C2844 1.327 . S
C2846 C2865 1.429 . S
C2846 H2870 0.950 . S
C2847 C2864 1.574 . S
C2847 C2866 1.368 . S
C2847 H2871 0.949 . S
H2848 C2852 0.949 . S
C2849 C2850 1.349 . S
C2849 C2851 1.327 . S
C2849 H2872 0.950 . S
C2850 C2849 1.349 . S
C2850 C2862 1.349 . S
C2851 C2849 1.327 . S
C2851 C2867 1.429 . S
C2851 H2873 0.950 . S
C2852 H2848 0.949 . S
C2852 C2860 1.574 . S
C2852 C2868 1.368 . S
H2853 C2861 0.950 . S
H2854 C2859 0.950 . S
H2855 C2860 0.949 . S
H2856 C2862 0.950 . S
H2857 C2863 0.950 . S
H2858 C2864 0.949 . S
C2859 H2854 0.950 . S
C2859 C2861 1.327 . S
C2859 C2865 1.429 . S
C2860 C2852 1.574 . S
C2860 H2855 0.949 . S
C2860 C2866 1.368 . S
C2861 C2845 1.349 . S
C2861 H2853 0.950 . S
C2861 C2859 1.327 . S
C2862 C2850 1.349 . S
C2862 H2856 0.950 . S
C2862 C2863 1.327 . S
C2863 H2857 0.950 . S
C2863 C2862 1.327 . S
C2863 C2867 1.429 . S
C2864 C2847 1.574 . S
C2864 H2858 0.949 . S
C2864 C2868 1.368 . S
C2865 C2846 1.429 . S
C2865 C2859 1.429 . S
C2865 C2866 1.523 . S
C2866 C2847 1.368 . S
C2866 C2860 1.368 . S
C2866 C2865 1.523 . S
C2867 C2851 1.429 . S
C2867 C2863 1.429 . S
C2867 C2868 1.523 . S
C2868 C2852 1.368 . S
C2868 C2864 1.368 . S
C2868 C2867 1.523 . S
H2869 C2844 0.950 . S
H2870 C2846 0.950 . S
H2871 C2847 0.949 . S
H2872 C2849 0.950 . S
H2873 C2851 0.950 . S
C2874 C2875 1.349 . S
C2874 C2876 1.327 . S
C2874 H2899 0.950 . S
C2875 C2874 1.349 . S
C2875 C2891 1.349 . S
C2876 C2874 1.327 . S
C2876 C2895 1.429 . S
C2876 H2900 0.950 . S
C2877 C2894 1.574 . S
C2877 C2896 1.368 . S
C2877 H2901 0.949 . S
H2878 C2882 0.949 . S
C2879 C2880 1.349 . S
C2879 C2881 1.327 . S
C2879 H2902 0.950 . S
C2880 C2879 1.349 . S
C2880 C2892 1.349 . S
C2881 C2879 1.327 . S
C2881 C2897 1.429 . S
C2881 H2903 0.950 . S
C2882 H2878 0.949 . S
C2882 C2890 1.574 . S
C2882 C2898 1.368 . S
H2883 C2891 0.950 . S
H2884 C2889 0.950 . S
H2885 C2890 0.949 . S
H2886 C2892 0.950 . S
H2887 C2893 0.950 . S
H2888 C2894 0.949 . S
C2889 H2884 0.950 . S
C2889 C2891 1.327 . S
C2889 C2895 1.429 . S
C2890 C2882 1.574 . S
C2890 H2885 0.949 . S
C2890 C2896 1.368 . S
C2891 C2875 1.349 . S
C2891 H2883 0.950 . S
C2891 C2889 1.327 . S
C2892 C2880 1.349 . S
C2892 H2886 0.950 . S
C2892 C2893 1.327 . S
C2893 H2887 0.950 . S
C2893 C2892 1.327 . S
C2893 C2897 1.429 . S
C2894 C2877 1.574 . S
C2894 H2888 0.949 . S
C2894 C2898 1.368 . S
C2895 C2876 1.429 . S
C2895 C2889 1.429 . S
C2895 C2896 1.523 . S
C2896 C2877 1.368 . S
C2896 C2890 1.368 . S
C2896 C2895 1.523 . S
C2897 C2881 1.429 . S
C2897 C2893 1.429 . S
C2897 C2898 1.523 . S
C2898 C2882 1.368 . S
C2898 C2894 1.368 . S
C2898 C2897 1.523 . S
H2899 C2874 0.950 . S
H2900 C2876 0.950 . S
H2901 C2877 0.949 . S
H2902 C2879 0.950 . S
H2903 C2881 0.950 . S
C2904 C2905 1.349 . S
C2904 C2906 1.327 . S
C2904 H2929 0.950 . S
C2905 C2904 1.349 . S
C2905 C2921 1.349 . S
C2906 C2904 1.327 . S
C2906 C2925 1.429 . S
C2906 H2930 0.950 . S
C2907 C2924 1.574 . S
C2907 C2926 1.368 . S
C2907 H2931 0.949 . S
H2908 C2912 0.949 . S
C2909 C2910 1.349 . S
C2909 C2911 1.327 . S
C2909 H2932 0.950 . S
C2910 C2909 1.349 . S
C2910 C2922 1.349 . S
C2911 C2909 1.327 . S
C2911 C2927 1.429 . S
C2911 H2933 0.950 . S
C2912 H2908 0.949 . S
C2912 C2920 1.574 . S
C2912 C2928 1.368 . S
H2913 C2921 0.950 . S
H2914 C2919 0.950 . S
H2915 C2920 0.949 . S
H2916 C2922 0.950 . S
H2917 C2923 0.950 . S
H2918 C2924 0.949 . S
C2919 H2914 0.950 . S
C2919 C2921 1.327 . S
C2919 C2925 1.429 . S
C2920 C2912 1.574 . S
C2920 H2915 0.949 . S
C2920 C2926 1.368 . S
C2921 C2905 1.349 . S
C2921 H2913 0.950 . S
C2921 C2919 1.327 . S
C2922 C2910 1.349 . S
C2922 H2916 0.950 . S
C2922 C2923 1.327 . S
C2923 H2917 0.950 . S
C2923 C2922 1.327 . S
C2923 C2927 1.429 . S
C2924 C2907 1.574 . S
C2924 H2918 0.949 . S
C2924 C2928 1.368 . S
C2925 C2906 1.429 . S
C2925 C2919 1.429 . S
C2925 C2926 1.523 . S
C2926 C2907 1.368 . S
C2926 C2920 1.368 . S
C2926 C2925 1.523 . S
C2927 C2911 1.429 . S
C2927 C2923 1.429 . S
C2927 C2928 1.523 . S
C2928 C2912 1.368 . S
C2928 C2924 1.368 . S
C2928 C2927 1.523 . S
H2929 C2904 0.950 . S
H2930 C2906 0.950 . S
H2931 C2907 0.949 . S
H2932 C2909 0.950 . S
H2933 C2911 0.950 . S
C2934 C2935 1.349 . S
C2934 C2936 1.327 . S
C2934 H2959 0.950 . S
C2935 C2934 1.349 . S
C2935 C2951 1.321 1_556 S
C2936 C2934 1.327 . S
C2936 C2955 1.429 . S
C2936 H2960 0.950 . S
C2937 C2954 1.574 . S
C2937 C2956 1.368 . S
C2937 H2961 0.949 . S
H2938 C2942 0.949 . S
C2939 C2940 1.349 . S
C2939 C2941 1.327 . S
C2939 H2962 0.950 . S
C2940 C2939 1.349 . S
C2940 C2952 1.349 . S
C2941 C2939 1.327 . S
C2941 C2957 1.429 . S
C2941 H2963 0.950 . S
C2942 H2938 0.949 . S
C2942 C2950 1.574 . S
C2942 C2958 1.368 . S
H2943 C2951 0.996 . S
H2944 C2949 0.950 1_554 S
H2945 C2950 0.949 . S
H2946 C2952 0.950 . S
H2947 C2953 0.950 . S
H2948 C2954 0.949 . S
C2949 H2944 0.950 1_556 S
C2949 C2951 1.312 1_556 S
C2949 C2955 1.429 . S
C2950 C2942 1.574 . S
C2950 H2945 0.949 . S
C2950 C2956 1.368 . S
C2951 C2935 1.321 1_554 S
C2951 H2943 0.996 . S
C2951 C2949 1.312 1_554 S
C2952 C2940 1.349 . S
C2952 H2946 0.950 . S
C2952 C2953 1.327 . S
C2953 H2947 0.950 . S
C2953 C2952 1.327 . S
C2953 C2957 1.429 . S
C2954 C2937 1.574 . S
C2954 H2948 0.949 . S
C2954 C2958 1.368 . S
C2955 C2936 1.429 . S
C2955 C2949 1.429 . S
C2955 C2956 1.523 . S
C2956 C2937 1.368 . S
C2956 C2950 1.368 . S
C2956 C2955 1.523 . S
C2957 C2941 1.429 . S
C2957 C2953 1.429 . S
C2957 C2958 1.523 . S
C2958 C2942 1.368 . S
C2958 C2954 1.368 . S
C2958 C2957 1.523 . S
H2959 C2934 0.950 . S
H2960 C2936 0.950 . S
H2961 C2937 0.949 . S
H2962 C2939 0.950 . S
H2963 C2941 0.950 . S
C2964 C2965 1.349 . S
C2964 C2966 1.327 . S
C2964 H2989 0.950 . S
C2965 C2964 1.349 . S
C2965 C2981 1.349 . S
C2966 C2964 1.327 . S
C2966 C2985 1.429 . S
C2966 H2990 0.950 . S
C2967 C2984 1.574 . S
C2967 C2986 1.368 . S
C2967 H2991 0.949 . S
H2968 C2972 0.949 . S
C2969 C2970 1.349 . S
C2969 C2971 1.327 . S
C2969 H2992 0.950 . S
C2970 C2969 1.349 . S
C2970 C2982 1.349 . S
C2971 C2969 1.327 . S
C2971 C2987 1.429 . S
C2971 H2993 0.950 . S
C2972 H2968 0.949 . S
C2972 C2980 1.574 . S
C2972 C2988 1.368 . S
H2973 C2981 0.950 1_554 S
H2974 C2979 0.950 . S
H2975 C2980 0.949 . S
H2976 C2982 0.950 . S
H2977 C2983 0.950 . S
H2978 C2984 0.949 . S
C2979 H2974 0.950 . S
C2979 C2981 1.327 . S
C2979 C2985 1.429 . S
C2980 C2972 1.574 . S
C2980 H2975 0.949 . S
C2980 C2986 1.368 . S
C2981 C2965 1.349 . S
C2981 H2973 0.950 1_556 S
C2981 C2979 1.327 . S
C2982 C2970 1.349 . S
C2982 H2976 0.950 . S
C2982 C2983 1.327 . S
C2983 H2977 0.950 . S
C2983 C2982 1.327 . S
C2983 C2987 1.429 . S
C2984 C2967 1.574 . S
C2984 H2978 0.949 . S
C2984 C2988 1.368 . S
C2985 C2966 1.429 . S
C2985 C2979 1.429 . S
C2985 C2986 1.523 . S
C2986 C2967 1.368 . S
C2986 C2980 1.368 . S
C2986 C2985 1.523 . S
C2987 C2971 1.429 . S
C2987 C2983 1.429 . S
C2987 C2988 1.523 . S
C2988 C2972 1.368 . S
C2988 C2984 1.368 . S
C2988 C2987 1.523 . S
H2989 C2964 0.950 . S
H2990 C2966 0.950 . S
H2991 C2967 0.949 . S
H2992 C2969 0.950 . S
H2993 C2971 0.950 . S
C2994 C2995 1.349 . S
C2994 C2996 1.327 . S
C2994 H3019 0.950 . S
C2995 C2994 1.349 . S
C2995 C3011 1.349 . S
C2996 C2994 1.327 . S
C2996 C3015 1.429 . S
C2996 H3020 0.950 . S
C2997 C3014 1.574 . S
C2997 C3016 1.368 . S
C2997 H3021 0.949 . S
H2998 C3002 0.949 . S
C2999 C3000 1.349 . S
C2999 C3001 1.327 . S
C2999 H3022 0.950 . S
C3000 C2999 1.349 . S
C3000 C3012 1.349 . S
C3001 C2999 1.327 . S
C3001 C3017 1.429 . S
C3001 H3023 0.950 . S
C3002 H2998 0.949 . S
C3002 C3010 1.574 . S
C3002 C3018 1.368 . S
H3003 C3011 0.950 1_554 S
H3004 C3009 0.950 . S
H3005 C3010 0.949 . S
H3006 C3012 0.950 . S
H3007 C3013 0.950 . S
H3008 C3014 0.949 . S
C3009 H3004 0.950 . S
C3009 C3011 1.327 . S
C3009 C3015 1.429 . S
C3010 C3002 1.574 . S
C3010 H3005 0.949 . S
C3010 C3016 1.368 . S
C3011 C2995 1.349 . S
C3011 H3003 0.950 1_556 S
C3011 C3009 1.327 . S
C3012 C3000 1.349 . S
C3012 H3006 0.950 . S
C3012 C3013 1.327 . S
C3013 H3007 0.950 . S
C3013 C3012 1.327 . S
C3013 C3017 1.429 . S
C3014 C2997 1.574 . S
C3014 H3008 0.949 . S
C3014 C3018 1.368 . S
C3015 C2996 1.429 . S
C3015 C3009 1.429 . S
C3015 C3016 1.523 . S
C3016 C2997 1.368 . S
C3016 C3010 1.368 . S
C3016 C3015 1.523 . S
C3017 C3001 1.429 . S
C3017 C3013 1.429 . S
C3017 C3018 1.523 . S
C3018 C3002 1.368 . S
C3018 C3014 1.368 . S
C3018 C3017 1.523 . S
H3019 C2994 0.950 . S
H3020 C2996 0.950 . S
H3021 C2997 0.949 . S
H3022 C2999 0.950 . S
H3023 C3001 0.950 . S
C3024 C3025 1.349 . S
C3024 C3026 1.327 . S
C3024 H3049 0.950 . S
C3025 C3024 1.349 . S
C3025 C3041 1.349 . S
C3026 C3024 1.327 . S
C3026 C3045 1.429 . S
C3026 H3050 0.950 . S
C3027 C3044 1.574 . S
C3027 C3046 1.368 . S
C3027 H3051 0.949 . S
H3028 C3032 0.949 . S
C3029 C3030 1.349 . S
C3029 C3031 1.327 . S
C3029 H3052 0.950 . S
C3030 C3029 1.349 . S
C3030 C3042 1.349 . S
C3031 C3029 1.327 . S
C3031 C3047 1.429 . S
C3031 H3053 0.950 . S
C3032 H3028 0.949 . S
C3032 C3040 1.574 . S
C3032 C3048 1.368 . S
H3033 C3041 0.950 . S
H3034 C3039 0.950 . S
H3035 C3040 0.949 . S
H3036 C3042 0.950 . S
H3037 C3043 0.950 . S
H3038 C3044 0.949 . S
C3039 H3034 0.950 . S
C3039 C3041 1.327 . S
C3039 C3045 1.429 . S
C3040 C3032 1.574 . S
C3040 H3035 0.949 . S
C3040 C3046 1.368 . S
C3041 C3025 1.349 . S
C3041 H3033 0.950 . S
C3041 C3039 1.327 . S
C3042 C3030 1.349 . S
C3042 H3036 0.950 . S
C3042 C3043 1.327 . S
C3043 H3037 0.950 . S
C3043 C3042 1.327 . S
C3043 C3047 1.429 . S
C3044 C3027 1.574 . S
C3044 H3038 0.949 . S
C3044 C3048 1.368 . S
C3045 C3026 1.429 . S
C3045 C3039 1.429 . S
C3045 C3046 1.523 . S
C3046 C3027 1.368 . S
C3046 C3040 1.368 . S
C3046 C3045 1.523 . S
C3047 C3031 1.429 . S
C3047 C3043 1.429 . S
C3047 C3048 1.523 . S
C3048 C3032 1.368 . S
C3048 C3044 1.368 . S
C3048 C3047 1.523 . S
H3049 C3024 0.950 . S
H3050 C3026 0.950 . S
H3051 C3027 0.949 . S
H3052 C3029 0.950 . S
H3053 C3031 0.950 . S
C3054 C3055 1.349 . S
C3054 C3056 1.327 . S
C3054 H3079 0.950 . S
C3055 C3054 1.349 . S
C3055 C3071 1.345 1_556 S
C3056 C3054 1.327 . S
C3056 C3075 1.429 . S
C3056 H3080 0.950 . S
C3057 C3074 1.574 . S
C3057 C3076 1.368 . S
C3057 H3081 0.949 . S
H3058 C3062 0.949 . S
C3059 C3060 1.349 . S
C3059 C3061 1.327 . S
C3059 H3082 0.950 . S
C3060 C3059 1.349 . S
C3060 C3072 1.349 . S
C3061 C3059 1.327 . S
C3061 C3077 1.429 . S
C3061 H3083 0.950 . S
C3062 H3058 0.949 . S
C3062 C3070 1.574 . S
C3062 C3078 1.368 . S
H3063 C3071 0.955 . S
H3064 C3069 0.950 1_554 S
H3065 C3070 0.949 . S
H3066 C3072 0.950 . S
H3067 C3073 0.950 . S
H3068 C3074 0.949 . S
C3069 H3064 0.950 1_556 S
C3069 C3071 1.325 1_556 S
C3069 C3075 1.429 . S
C3070 C3062 1.574 . S
C3070 H3065 0.949 . S
C3070 C3076 1.368 . S
C3071 C3055 1.345 1_554 S
C3071 H3063 0.955 . S
C3071 C3069 1.325 1_554 S
C3072 C3060 1.349 . S
C3072 H3066 0.950 . S
C3072 C3073 1.327 . S
C3073 H3067 0.950 . S
C3073 C3072 1.327 . S
C3073 C3077 1.429 . S
C3074 C3057 1.574 . S
C3074 H3068 0.949 . S
C3074 C3078 1.368 . S
C3075 C3056 1.429 . S
C3075 C3069 1.429 . S
C3075 C3076 1.523 . S
C3076 C3057 1.368 . S
C3076 C3070 1.368 . S
C3076 C3075 1.523 . S
C3077 C3061 1.429 . S
C3077 C3073 1.429 . S
C3077 C3078 1.523 . S
C3078 C3062 1.368 . S
C3078 C3074 1.368 . S
C3078 C3077 1.523 . S
H3079 C3054 0.950 . S
H3080 C3056 0.950 . S
H3081 C3057 0.949 . S
H3082 C3059 0.950 . S
H3083 C3061 0.950 . S
C3084 C3085 1.349 . S
C3084 C3086 1.327 . S
C3084 H3109 0.950 . S
C3085 C3084 1.349 . S
C3085 C3101 1.341 1_556 S
C3086 C3084 1.327 . S
C3086 C3105 1.429 . S
C3086 H3110 0.950 . S
C3087 C3104 1.574 . S
C3087 C3106 1.368 . S
C3087 H3111 0.949 . S
H3088 C3092 0.949 . S
C3089 C3090 1.349 . S
C3089 C3091 1.327 . S
C3089 H3112 0.950 . S
C3090 C3089 1.349 . S
C3090 C3102 1.349 . S
C3091 C3089 1.327 . S
C3091 C3107 1.429 . S
C3091 H3113 0.950 . S
C3092 H3088 0.949 . S
C3092 C3100 1.574 . S
C3092 C3108 1.368 . S
H3093 C3101 0.966 . S
H3094 C3099 0.947 . S
H3095 C3100 0.949 . S
H3096 C3102 0.950 . S
H3097 C3103 0.950 . S
H3098 C3104 0.949 . S
C3099 H3094 0.947 . S
C3099 C3101 1.320 1_556 S
C3099 C3105 1.429 . S
C3100 C3092 1.574 . S
C3100 H3095 0.949 . S
C3100 C3106 1.368 . S
C3101 C3085 1.341 1_554 S
C3101 H3093 0.966 . S
C3101 C3099 1.320 1_554 S
C3102 C3090 1.349 . S
C3102 H3096 0.950 . S
C3102 C3103 1.327 . S
C3103 H3097 0.950 . S
C3103 C3102 1.327 . S
C3103 C3107 1.429 . S
C3104 C3087 1.574 . S
C3104 H3098 0.949 . S
C3104 C3108 1.368 . S
C3105 C3086 1.429 . S
C3105 C3099 1.429 . S
C3105 C3106 1.523 . S
C3106 C3087 1.368 . S
C3106 C3100 1.368 . S
C3106 C3105 1.523 . S
C3107 C3091 1.429 . S
C3107 C3103 1.429 . S
C3107 C3108 1.523 . S
C3108 C3092 1.368 . S
C3108 C3104 1.368 . S
C3108 C3107 1.523 . S
H3109 C3084 0.950 . S
H3110 C3086 0.950 . S
H3111 C3087 0.949 . S
H3112 C3089 0.950 . S
H3113 C3091 0.950 . S
C3114 C3115 1.349 . S
C3114 C3116 1.327 . S
C3114 H3139 0.950 . S
C3115 C3114 1.349 . S
C3115 C3131 1.349 . S
C3116 C3114 1.327 . S
C3116 C3135 1.429 . S
C3116 H3140 0.950 . S
C3117 C3134 1.574 . S
C3117 C3136 1.368 . S
C3117 H3141 0.949 . S
H3118 C3122 0.949 . S
C3119 C3120 1.349 . S
C3119 C3121 1.327 . S
C3119 H3142 0.950 . S
C3120 C3119 1.349 . S
C3120 C3132 1.349 . S
C3121 C3119 1.327 . S
C3121 C3137 1.429 . S
C3121 H3143 0.950 . S
C3122 H3118 0.949 . S
C3122 C3130 1.574 . S
C3122 C3138 1.368 . S
H3123 C3131 0.950 . S
H3124 C3129 0.950 . S
H3125 C3130 0.949 . S
H3126 C3132 0.950 . S
H3127 C3133 0.950 . S
H3128 C3134 0.949 . S
C3129 H3124 0.950 . S
C3129 C3131 1.327 . S
C3129 C3135 1.429 . S
C3130 C3122 1.574 . S
C3130 H3125 0.949 . S
C3130 C3136 1.368 . S
C3131 C3115 1.349 . S
C3131 H3123 0.950 . S
C3131 C3129 1.327 . S
C3132 C3120 1.349 . S
C3132 H3126 0.950 . S
C3132 C3133 1.327 . S
C3133 H3127 0.950 . S
C3133 C3132 1.327 . S
C3133 C3137 1.429 . S
C3134 C3117 1.574 . S
C3134 H3128 0.949 . S
C3134 C3138 1.368 . S
C3135 C3116 1.429 . S
C3135 C3129 1.429 . S
C3135 C3136 1.523 . S
C3136 C3117 1.368 . S
C3136 C3130 1.368 . S
C3136 C3135 1.523 . S
C3137 C3121 1.429 . S
C3137 C3133 1.429 . S
C3137 C3138 1.523 . S
C3138 C3122 1.368 . S
C3138 C3134 1.368 . S
C3138 C3137 1.523 . S
H3139 C3114 0.950 . S
H3140 C3116 0.950 . S
H3141 C3117 0.949 . S
H3142 C3119 0.950 . S
H3143 C3121 0.950 . S
C3144 C3145 1.349 . S
C3144 C3146 1.327 . S
C3144 H3169 0.950 . S
C3145 C3144 1.349 . S
C3145 C3161 1.349 . S
C3146 C3144 1.327 . S
C3146 C3165 1.429 . S
C3146 H3170 0.950 . S
C3147 C3164 1.574 . S
C3147 C3166 1.368 . S
C3147 H3171 0.949 . S
H3148 C3152 0.949 . S
C3149 C3150 1.349 . S
C3149 C3151 1.327 . S
C3149 H3172 0.950 . S
C3150 C3149 1.349 . S
C3150 C3162 1.349 . S
C3151 C3149 1.327 . S
C3151 C3167 1.429 . S
C3151 H3173 0.950 . S
C3152 H3148 0.949 . S
C3152 C3160 1.574 . S
C3152 C3168 1.368 . S
H3153 C3161 0.950 . S
H3154 C3159 0.950 . S
H3155 C3160 0.949 . S
H3156 C3162 0.950 . S
H3157 C3163 0.950 . S
H3158 C3164 0.949 . S
C3159 H3154 0.950 . S
C3159 C3161 1.327 . S
C3159 C3165 1.429 . S
C3160 C3152 1.574 . S
C3160 H3155 0.949 . S
C3160 C3166 1.368 . S
C3161 C3145 1.349 . S
C3161 H3153 0.950 . S
C3161 C3159 1.327 . S
C3162 C3150 1.349 . S
C3162 H3156 0.950 . S
C3162 C3163 1.327 . S
C3163 H3157 0.950 . S
C3163 C3162 1.327 . S
C3163 C3167 1.429 . S
C3164 C3147 1.574 . S
C3164 H3158 0.949 . S
C3164 C3168 1.368 . S
C3165 C3146 1.429 . S
C3165 C3159 1.429 . S
C3165 C3166 1.523 . S
C3166 C3147 1.368 . S
C3166 C3160 1.368 . S
C3166 C3165 1.523 . S
C3167 C3151 1.429 . S
C3167 C3163 1.429 . S
C3167 C3168 1.523 . S
C3168 C3152 1.368 . S
C3168 C3164 1.368 . S
C3168 C3167 1.523 . S
H3169 C3144 0.950 . S
H3170 C3146 0.950 . S
H3171 C3147 0.949 . S
H3172 C3149 0.950 . S
H3173 C3151 0.950 . S
C3174 C3175 1.349 . S
C3174 C3176 1.327 . S
C3174 H3199 0.950 . S
C3175 C3174 1.349 . S
C3175 C3191 1.349 . S
C3176 C3174 1.327 . S
C3176 C3195 1.429 . S
C3176 H3200 0.950 . S
C3177 C3194 1.574 . S
C3177 C3196 1.368 . S
C3177 H3201 0.949 . S
H3178 C3182 0.949 . S
C3179 C3180 1.349 . S
C3179 C3181 1.327 . S
C3179 H3202 0.950 . S
C3180 C3179 1.349 . S
C3180 C3192 1.349 . S
C3181 C3179 1.327 . S
C3181 C3197 1.429 . S
C3181 H3203 0.950 . S
C3182 H3178 0.949 . S
C3182 C3190 1.574 . S
C3182 C3198 1.368 . S
H3183 C3191 0.950 . S
H3184 C3189 0.950 . S
H3185 C3190 0.949 . S
H3186 C3192 0.950 . S
H3187 C3193 0.950 . S
H3188 C3194 0.949 . S
C3189 H3184 0.950 . S
C3189 C3191 1.327 . S
C3189 C3195 1.429 . S
C3190 C3182 1.574 . S
C3190 H3185 0.949 . S
C3190 C3196 1.368 . S
C3191 C3175 1.349 . S
C3191 H3183 0.950 . S
C3191 C3189 1.327 . S
C3192 C3180 1.349 . S
C3192 H3186 0.950 . S
C3192 C3193 1.327 . S
C3193 H3187 0.950 . S
C3193 C3192 1.327 . S
C3193 C3197 1.429 . S
C3194 C3177 1.574 . S
C3194 H3188 0.949 . S
C3194 C3198 1.368 . S
C3195 C3176 1.429 . S
C3195 C3189 1.429 . S
C3195 C3196 1.523 . S
C3196 C3177 1.368 . S
C3196 C3190 1.368 . S
C3196 C3195 1.523 . S
C3197 C3181 1.429 . S
C3197 C3193 1.429 . S
C3197 C3198 1.523 . S
C3198 C3182 1.368 . S
C3198 C3194 1.368 . S
C3198 C3197 1.523 . S
H3199 C3174 0.950 . S
H3200 C3176 0.950 . S
H3201 C3177 0.949 . S
H3202 C3179 0.950 . S
H3203 C3181 0.950 . S
C3204 C3205 1.349 . S
C3204 C3206 1.327 . S
C3204 H3229 0.950 . S
C3205 C3204 1.349 . S
C3205 C3221 1.349 . S
C3206 C3204 1.327 . S
C3206 C3225 1.429 . S
C3206 H3230 0.950 . S
C3207 C3224 1.574 . S
C3207 C3226 1.368 . S
C3207 H3231 0.949 . S
H3208 C3212 0.949 . S
C3209 C3210 1.349 . S
C3209 C3211 1.327 . S
C3209 H3232 0.950 . S
C3210 C3209 1.349 . S
C3210 C3222 1.349 . S
C3211 C3209 1.327 . S
C3211 C3227 1.429 . S
C3211 H3233 0.950 . S
C3212 H3208 0.949 . S
C3212 C3220 1.574 . S
C3212 C3228 1.368 . S
H3213 C3221 0.950 . S
H3214 C3219 0.950 . S
H3215 C3220 0.949 . S
H3216 C3222 0.950 . S
H3217 C3223 0.950 . S
H3218 C3224 0.949 . S
C3219 H3214 0.950 . S
C3219 C3221 1.327 . S
C3219 C3225 1.429 . S
C3220 C3212 1.574 . S
C3220 H3215 0.949 . S
C3220 C3226 1.368 . S
C3221 C3205 1.349 . S
C3221 H3213 0.950 . S
C3221 C3219 1.327 . S
C3222 C3210 1.349 . S
C3222 H3216 0.950 . S
C3222 C3223 1.327 . S
C3223 H3217 0.950 . S
C3223 C3222 1.327 . S
C3223 C3227 1.429 . S
C3224 C3207 1.574 . S
C3224 H3218 0.949 . S
C3224 C3228 1.368 . S
C3225 C3206 1.429 . S
C3225 C3219 1.429 . S
C3225 C3226 1.523 . S
C3226 C3207 1.368 . S
C3226 C3220 1.368 . S
C3226 C3225 1.523 . S
C3227 C3211 1.429 . S
C3227 C3223 1.429 . S
C3227 C3228 1.523 . S
C3228 C3212 1.368 . S
C3228 C3224 1.368 . S
C3228 C3227 1.523 . S
H3229 C3204 0.950 . S
H3230 C3206 0.950 . S
H3231 C3207 0.949 . S
H3232 C3209 0.950 . S
H3233 C3211 0.950 . S
C3234 C3235 1.349 . S
C3234 C3236 1.327 . S
C3234 H3259 0.950 . S
C3235 C3234 1.349 . S
C3235 C3251 1.349 . S
C3236 C3234 1.327 . S
C3236 C3255 1.429 . S
C3236 H3260 0.950 . S
C3237 C3254 1.574 . S
C3237 C3256 1.368 . S
C3237 H3261 0.949 . S
H3238 C3242 0.949 . S
C3239 C3240 1.349 . S
C3239 C3241 1.327 . S
C3239 H3262 0.950 . S
C3240 C3239 1.349 . S
C3240 C3252 1.349 . S
C3241 C3239 1.327 . S
C3241 C3257 1.429 . S
C3241 H3263 0.950 . S
C3242 H3238 0.949 . S
C3242 C3250 1.574 . S
C3242 C3258 1.368 . S
H3243 C3251 0.950 . S
H3244 C3249 0.950 . S
H3245 C3250 0.949 . S
H3246 C3252 0.950 . S
H3247 C3253 0.950 . S
H3248 C3254 0.949 . S
C3249 H3244 0.950 . S
C3249 C3251 1.327 . S
C3249 C3255 1.429 . S
C3250 C3242 1.574 . S
C3250 H3245 0.949 . S
C3250 C3256 1.368 . S
C3251 C3235 1.349 . S
C3251 H3243 0.950 . S
C3251 C3249 1.327 . S
C3252 C3240 1.349 . S
C3252 H3246 0.950 . S
C3252 C3253 1.327 . S
C3253 H3247 0.950 . S
C3253 C3252 1.327 . S
C3253 C3257 1.429 . S
C3254 C3237 1.574 . S
C3254 H3248 0.949 . S
C3254 C3258 1.368 . S
C3255 C3236 1.429 . S
C3255 C3249 1.429 . S
C3255 C3256 1.523 . S
C3256 C3237 1.368 . S
C3256 C3250 1.368 . S
C3256 C3255 1.523 . S
C3257 C3241 1.429 . S
C3257 C3253 1.429 . S
C3257 C3258 1.523 . S
C3258 C3242 1.368 . S
C3258 C3254 1.368 . S
C3258 C3257 1.523 . S
H3259 C3234 0.950 . S
H3260 C3236 0.950 . S
H3261 C3237 0.949 . S
H3262 C3239 0.950 . S
H3263 C3241 0.950 . S
C3264 C3265 1.349 . S
C3264 C3266 1.327 . S
C3264 H3289 0.950 . S
C3265 C3264 1.349 . S
C3265 C3281 1.349 . S
C3266 C3264 1.327 . S
C3266 C3285 1.429 . S
C3266 H3290 0.950 . S
C3267 C3284 1.574 . S
C3267 C3286 1.368 . S
C3267 H3291 0.949 . S
H3268 C3272 0.949 . S
C3269 C3270 1.349 . S
C3269 C3271 1.327 . S
C3269 H3292 0.950 . S
C3270 C3269 1.349 . S
C3270 C3282 1.349 . S
C3271 C3269 1.327 . S
C3271 C3287 1.429 . S
C3271 H3293 0.950 . S
C3272 H3268 0.949 . S
C3272 C3280 1.574 . S
C3272 C3288 1.368 . S
H3273 C3281 0.950 . S
H3274 C3279 0.950 . S
H3275 C3280 0.949 . S
H3276 C3282 0.950 . S
H3277 C3283 0.950 . S
H3278 C3284 0.949 . S
C3279 H3274 0.950 . S
C3279 C3281 1.327 . S
C3279 C3285 1.429 . S
C3280 C3272 1.574 . S
C3280 H3275 0.949 . S
C3280 C3286 1.368 . S
C3281 C3265 1.349 . S
C3281 H3273 0.950 . S
C3281 C3279 1.327 . S
C3282 C3270 1.349 . S
C3282 H3276 0.950 . S
C3282 C3283 1.327 . S
C3283 H3277 0.950 . S
C3283 C3282 1.327 . S
C3283 C3287 1.429 . S
C3284 C3267 1.574 . S
C3284 H3278 0.949 . S
C3284 C3288 1.368 . S
C3285 C3266 1.429 . S
C3285 C3279 1.429 . S
C3285 C3286 1.523 . S
C3286 C3267 1.368 . S
C3286 C3280 1.368 . S
C3286 C3285 1.523 . S
C3287 C3271 1.429 . S
C3287 C3283 1.429 . S
C3287 C3288 1.523 . S
C3288 C3272 1.368 . S
C3288 C3284 1.368 . S
C3288 C3287 1.523 . S
H3289 C3264 0.950 . S
H3290 C3266 0.950 . S
H3291 C3267 0.949 . S
H3292 C3269 0.950 . S
H3293 C3271 0.950 . S
C3294 C3295 1.349 . S
C3294 C3296 1.327 . S
C3294 H3319 0.950 . S
C3295 C3294 1.349 . S
C3295 C3311 1.349 . S
C3296 C3294 1.327 . S
C3296 C3315 1.429 . S
C3296 H3320 0.950 1_455 S
C3297 C3314 1.574 . S
C3297 C3316 1.368 . S
C3297 H3321 0.949 . S
H3298 C3302 0.947 1_655 S
C3299 C3300 1.349 . S
C3299 C3301 1.327 . S
C3299 H3322 0.950 . S
C3300 C3299 1.349 . S
C3300 C3312 1.349 1_455 S
C3301 C3299 1.327 . S
C3301 C3317 1.429 . S
C3301 H3323 0.950 . S
C3302 H3298 0.947 1_455 S
C3302 C3310 1.575 . S
C3302 C3318 1.369 . S
H3303 C3311 0.950 . S
H3304 C3309 0.950 . S
H3305 C3310 0.949 1_655 S
H3306 C3312 0.950 . S
H3307 C3313 0.950 . S
H3308 C3314 0.949 . S
C3309 H3304 0.950 . S
C3309 C3311 1.327 . S
C3309 C3315 1.429 . S
C3310 C3302 1.575 . S
C3310 H3305 0.949 1_455 S
C3310 C3316 1.368 . S
C3311 C3295 1.349 . S
C3311 H3303 0.950 . S
C3311 C3309 1.327 . S
C3312 C3300 1.349 1_655 S
C3312 H3306 0.950 . S
C3312 C3313 1.327 . S
C3313 H3307 0.950 . S
C3313 C3312 1.327 . S
C3313 C3317 1.429 1_655 S
C3314 C3297 1.574 . S
C3314 H3308 0.949 . S
C3314 C3318 1.368 . S
C3315 C3296 1.429 . S
C3315 C3309 1.429 . S
C3315 C3316 1.523 . S
C3316 C3297 1.368 . S
C3316 C3310 1.368 . S
C3316 C3315 1.523 . S
C3317 C3301 1.429 . S
C3317 C3313 1.429 1_455 S
C3317 C3318 1.523 . S
C3318 C3302 1.369 . S
C3318 C3314 1.368 . S
C3318 C3317 1.523 . S
H3319 C3294 0.950 . S
H3320 C3296 0.950 1_655 S
H3321 C3297 0.949 . S
H3322 C3299 0.950 . S
H3323 C3301 0.950 . S
C3324 C3325 1.349 . S
C3324 C3326 1.327 . S
C3324 H3349 0.950 . S
C3325 C3324 1.349 . S
C3325 C3341 1.349 . S
C3326 C3324 1.327 . S
C3326 C3345 1.429 . S
C3326 H3350 0.950 . S
C3327 C3344 1.574 . S
C3327 C3346 1.368 . S
C3327 H3351 0.949 . S
H3328 C3332 0.949 . S
C3329 C3330 1.349 . S
C3329 C3331 1.327 . S
C3329 H3352 0.950 . S
C3330 C3329 1.349 . S
C3330 C3342 1.349 . S
C3331 C3329 1.327 . S
C3331 C3347 1.429 . S
C3331 H3353 0.950 . S
C3332 H3328 0.949 . S
C3332 C3340 1.574 . S
C3332 C3348 1.368 . S
H3333 C3341 0.950 . S
H3334 C3339 0.950 . S
H3335 C3340 0.949 . S
H3336 C3342 0.950 . S
H3337 C3343 0.950 . S
H3338 C3344 0.949 . S
C3339 H3334 0.950 . S
C3339 C3341 1.327 . S
C3339 C3345 1.429 . S
C3340 C3332 1.574 . S
C3340 H3335 0.949 . S
C3340 C3346 1.368 . S
C3341 C3325 1.349 . S
C3341 H3333 0.950 . S
C3341 C3339 1.327 . S
C3342 C3330 1.349 . S
C3342 H3336 0.950 . S
C3342 C3343 1.327 . S
C3343 H3337 0.950 . S
C3343 C3342 1.327 . S
C3343 C3347 1.429 . S
C3344 C3327 1.574 . S
C3344 H3338 0.949 . S
C3344 C3348 1.368 . S
C3345 C3326 1.429 . S
C3345 C3339 1.429 . S
C3345 C3346 1.523 . S
C3346 C3327 1.368 . S
C3346 C3340 1.368 . S
C3346 C3345 1.523 . S
C3347 C3331 1.429 . S
C3347 C3343 1.429 . S
C3347 C3348 1.523 . S
C3348 C3332 1.368 . S
C3348 C3344 1.368 . S
C3348 C3347 1.523 . S
H3349 C3324 0.950 . S
H3350 C3326 0.950 . S
H3351 C3327 0.949 . S
H3352 C3329 0.950 . S
H3353 C3331 0.950 . S
C3354 C3355 1.349 . S
C3354 C3356 1.327 . S
C3354 H3379 0.950 . S
C3355 C3354 1.349 . S
C3355 C3371 1.349 . S
C3356 C3354 1.327 . S
C3356 C3375 1.429 . S
C3356 H3380 0.950 . S
C3357 C3374 1.574 . S
C3357 C3376 1.368 . S
C3357 H3381 0.949 . S
H3358 C3362 0.949 . S
C3359 C3360 1.349 . S
C3359 C3361 1.327 . S
C3359 H3382 0.950 . S
C3360 C3359 1.349 . S
C3360 C3372 1.349 . S
C3361 C3359 1.327 . S
C3361 C3377 1.429 . S
C3361 H3383 0.950 . S
C3362 H3358 0.949 . S
C3362 C3370 1.574 . S
C3362 C3378 1.368 . S
H3363 C3371 0.950 . S
H3364 C3369 0.950 . S
H3365 C3370 0.949 . S
H3366 C3372 0.955 1_545 S
H3367 C3373 0.950 . S
H3368 C3374 0.949 . S
C3369 H3364 0.950 . S
C3369 C3371 1.327 . S
C3369 C3375 1.429 . S
C3370 C3362 1.574 . S
C3370 H3365 0.949 . S
C3370 C3376 1.368 . S
C3371 C3355 1.349 . S
C3371 H3363 0.950 . S
C3371 C3369 1.327 . S
C3372 C3360 1.349 . S
C3372 H3366 0.955 1_565 S
C3372 C3373 1.327 . S
C3373 H3367 0.950 . S
C3373 C3372 1.327 . S
C3373 C3377 1.429 . S
C3374 C3357 1.574 . S
C3374 H3368 0.949 . S
C3374 C3378 1.368 . S
C3375 C3356 1.429 . S
C3375 C3369 1.429 . S
C3375 C3376 1.523 . S
C3376 C3357 1.368 . S
C3376 C3370 1.368 . S
C3376 C3375 1.523 . S
C3377 C3361 1.429 . S
C3377 C3373 1.429 . S
C3377 C3378 1.523 . S
C3378 C3362 1.368 . S
C3378 C3374 1.368 . S
C3378 C3377 1.523 . S
H3379 C3354 0.950 . S
H3380 C3356 0.950 . S
H3381 C3357 0.949 . S
H3382 C3359 0.950 . S
H3383 C3361 0.950 . S
C3384 C3385 1.349 . S
C3384 C3386 1.327 . S
C3384 H3409 0.950 . S
C3385 C3384 1.349 . S
C3385 C3401 1.349 . S
C3386 C3384 1.327 . S
C3386 C3405 1.429 . S
C3386 H3410 0.950 . S
C3387 C3404 1.578 1_565 S
C3387 C3406 1.368 . S
C3387 H3411 0.949 1_565 S
H3388 C3392 0.949 . S
C3389 C3390 1.349 1_545 S
C3389 C3391 1.327 . S
C3389 H3412 0.950 . S
C3390 C3389 1.349 1_565 S
C3390 C3402 1.349 . S
C3391 C3389 1.327 . S
C3391 C3407 1.429 1_545 S
C3391 H3413 0.950 . S
C3392 H3388 0.949 . S
C3392 C3400 1.574 . S
C3392 C3408 1.368 . S
H3393 C3401 0.950 . S
H3394 C3399 0.950 1_545 S
H3395 C3400 0.949 . S
H3396 C3402 0.950 . S
H3397 C3403 0.950 . S
H3398 C3404 0.943 . S
C3399 H3394 0.950 1_565 S
C3399 C3401 1.327 . S
C3399 C3405 1.429 . S
C3400 C3392 1.574 . S
C3400 H3395 0.949 . S
C3400 C3406 1.368 . S
C3401 C3385 1.349 . S
C3401 H3393 0.950 . S
C3401 C3399 1.327 . S
C3402 C3390 1.349 . S
C3402 H3396 0.950 . S
C3402 C3403 1.327 . S
C3403 H3397 0.950 . S
C3403 C3402 1.327 . S
C3403 C3407 1.429 . S
C3404 C3387 1.578 1_545 S
C3404 H3398 0.943 . S
C3404 C3408 1.371 1_545 S
C3405 C3386 1.429 . S
C3405 C3399 1.429 . S
C3405 C3406 1.523 . S
C3406 C3387 1.368 . S
C3406 C3400 1.368 . S
C3406 C3405 1.523 . S
C3407 C3391 1.429 1_565 S
C3407 C3403 1.429 . S
C3407 C3408 1.523 . S
C3408 C3392 1.368 . S
C3408 C3404 1.371 1_565 S
C3408 C3407 1.523 . S
H3409 C3384 0.950 . S
H3410 C3386 0.950 . S
H3411 C3387 0.949 1_545 S
H3412 C3389 0.950 . S
H3413 C3391 0.950 . S
C3414 C3415 1.349 . S
C3414 C3416 1.327 . S
C3414 H3439 0.950 . S
C3415 C3414 1.349 . S
C3415 C3431 1.349 . S
C3416 C3414 1.327 . S
C3416 C3435 1.429 . S
C3416 H3440 0.950 . S
C3417 C3434 1.574 . S
C3417 C3436 1.368 . S
C3417 H3441 0.949 . S
H3418 C3422 0.949 1_655 S
C3419 C3420 1.349 . S
C3419 C3421 1.327 . S
C3419 H3442 0.950 . S
C3420 C3419 1.349 . S
C3420 C3432 1.349 1_455 S
C3421 C3419 1.327 . S
C3421 C3437 1.429 . S
C3421 H3443 0.950 . S
C3422 H3418 0.949 1_455 S
C3422 C3430 1.574 . S
C3422 C3438 1.368 . S
H3423 C3431 0.950 . S
H3424 C3429 0.950 . S
H3425 C3430 0.949 . S
H3426 C3432 0.950 . S
H3427 C3433 0.930 1_655 S
H3428 C3434 0.949 . S
C3429 H3424 0.950 . S
C3429 C3431 1.327 . S
C3429 C3435 1.429 . S
C3430 C3422 1.574 . S
C3430 H3425 0.949 . S
C3430 C3436 1.368 . S
C3431 C3415 1.349 . S
C3431 H3423 0.950 . S
C3431 C3429 1.327 . S
C3432 C3420 1.349 1_655 S
C3432 H3426 0.950 . S
C3432 C3433 1.338 1_655 S
C3433 H3427 0.930 1_455 S
C3433 C3432 1.338 1_455 S
C3433 C3437 1.438 . S
C3434 C3417 1.574 . S
C3434 H3428 0.949 . S
C3434 C3438 1.368 . S
C3435 C3416 1.429 . S
C3435 C3429 1.429 . S
C3435 C3436 1.523 . S
C3436 C3417 1.368 . S
C3436 C3430 1.368 . S
C3436 C3435 1.523 . S
C3437 C3421 1.429 . S
C3437 C3433 1.438 . S
C3437 C3438 1.523 . S
C3438 C3422 1.368 . S
C3438 C3434 1.368 . S
C3438 C3437 1.523 . S
H3439 C3414 0.950 . S
H3440 C3416 0.950 . S
H3441 C3417 0.949 . S
H3442 C3419 0.950 . S
H3443 C3421 0.950 . S
C3444 C3445 1.349 . S
C3444 C3446 1.327 . S
C3444 H3469 0.950 . S
C3445 C3444 1.349 . S
C3445 C3461 1.349 . S
C3446 C3444 1.327 . S
C3446 C3465 1.429 . S
C3446 H3470 0.950 . S
C3447 C3464 1.574 . S
C3447 C3466 1.368 . S
C3447 H3471 0.949 . S
H3448 C3452 0.949 . S
C3449 C3450 1.349 . S
C3449 C3451 1.327 . S
C3449 H3472 0.950 . S
C3450 C3449 1.349 . S
C3450 C3462 1.349 . S
C3451 C3449 1.327 . S
C3451 C3467 1.429 . S
C3451 H3473 0.950 . S
C3452 H3448 0.949 . S
C3452 C3460 1.574 . S
C3452 C3468 1.368 . S
H3453 C3461 0.950 . S
H3454 C3459 0.950 . S
H3455 C3460 0.949 . S
H3456 C3462 0.950 . S
H3457 C3463 0.950 . S
H3458 C3464 0.949 . S
C3459 H3454 0.950 . S
C3459 C3461 1.327 . S
C3459 C3465 1.429 . S
C3460 C3452 1.574 . S
C3460 H3455 0.949 . S
C3460 C3466 1.368 . S
C3461 C3445 1.349 . S
C3461 H3453 0.950 . S
C3461 C3459 1.327 . S
C3462 C3450 1.349 . S
C3462 H3456 0.950 . S
C3462 C3463 1.327 . S
C3463 H3457 0.950 . S
C3463 C3462 1.327 . S
C3463 C3467 1.429 . S
C3464 C3447 1.574 . S
C3464 H3458 0.949 . S
C3464 C3468 1.368 . S
C3465 C3446 1.429 . S
C3465 C3459 1.429 . S
C3465 C3466 1.523 . S
C3466 C3447 1.368 . S
C3466 C3460 1.368 . S
C3466 C3465 1.523 . S
C3467 C3451 1.429 . S
C3467 C3463 1.429 . S
C3467 C3468 1.523 . S
C3468 C3452 1.368 . S
C3468 C3464 1.368 . S
C3468 C3467 1.523 . S
H3469 C3444 0.950 . S
H3470 C3446 0.950 . S
H3471 C3447 0.949 . S
H3472 C3449 0.950 . S
H3473 C3451 0.950 . S
C3474 C3475 1.349 . S
C3474 C3476 1.327 . S
C3474 H3499 0.950 . S
C3475 C3474 1.349 . S
C3475 C3491 1.349 . S
C3476 C3474 1.327 . S
C3476 C3495 1.429 . S
C3476 H3500 0.950 . S
C3477 C3494 1.574 . S
C3477 C3496 1.368 . S
C3477 H3501 0.949 . S
H3478 C3482 0.949 . S
C3479 C3480 1.349 . S
C3479 C3481 1.327 . S
C3479 H3502 0.950 . S
C3480 C3479 1.349 . S
C3480 C3492 1.349 . S
C3481 C3479 1.327 . S
C3481 C3497 1.429 . S
C3481 H3503 0.950 . S
C3482 H3478 0.949 . S
C3482 C3490 1.574 . S
C3482 C3498 1.368 . S
H3483 C3491 0.950 . S
H3484 C3489 0.950 . S
H3485 C3490 0.949 . S
H3486 C3492 0.950 . S
H3487 C3493 0.950 . S
H3488 C3494 0.949 . S
C3489 H3484 0.950 . S
C3489 C3491 1.327 . S
C3489 C3495 1.429 . S
C3490 C3482 1.574 . S
C3490 H3485 0.949 . S
C3490 C3496 1.368 . S
C3491 C3475 1.349 . S
C3491 H3483 0.950 . S
C3491 C3489 1.327 . S
C3492 C3480 1.349 . S
C3492 H3486 0.950 . S
C3492 C3493 1.327 . S
C3493 H3487 0.950 . S
C3493 C3492 1.327 . S
C3493 C3497 1.429 . S
C3494 C3477 1.574 . S
C3494 H3488 0.949 . S
C3494 C3498 1.368 . S
C3495 C3476 1.429 . S
C3495 C3489 1.429 . S
C3495 C3496 1.523 . S
C3496 C3477 1.368 . S
C3496 C3490 1.368 . S
C3496 C3495 1.523 . S
C3497 C3481 1.429 . S
C3497 C3493 1.429 . S
C3497 C3498 1.523 . S
C3498 C3482 1.368 . S
C3498 C3494 1.368 . S
C3498 C3497 1.523 . S
H3499 C3474 0.950 . S
H3500 C3476 0.950 . S
H3501 C3477 0.949 . S
H3502 C3479 0.950 . S
H3503 C3481 0.950 . S
C3504 C3505 1.349 . S
C3504 C3506 1.327 . S
C3504 H3529 0.950 . S
C3505 C3504 1.349 . S
C3505 C3521 1.349 . S
C3506 C3504 1.327 . S
C3506 C3525 1.429 . S
C3506 H3530 0.950 . S
C3507 C3524 1.574 . S
C3507 C3526 1.368 . S
C3507 H3531 0.949 . S
H3508 C3512 0.949 . S
C3509 C3510 1.349 . S
C3509 C3511 1.327 . S
C3509 H3532 0.950 . S
C3510 C3509 1.349 . S
C3510 C3522 1.349 . S
C3511 C3509 1.327 . S
C3511 C3527 1.429 . S
C3511 H3533 0.950 . S
C3512 H3508 0.949 . S
C3512 C3520 1.574 . S
C3512 C3528 1.368 . S
H3513 C3521 0.950 . S
H3514 C3519 0.950 . S
H3515 C3520 0.949 . S
H3516 C3522 0.950 . S
H3517 C3523 0.950 . S
H3518 C3524 0.949 . S
C3519 H3514 0.950 . S
C3519 C3521 1.327 . S
C3519 C3525 1.429 . S
C3520 C3512 1.574 . S
C3520 H3515 0.949 . S
C3520 C3526 1.368 . S
C3521 C3505 1.349 . S
C3521 H3513 0.950 . S
C3521 C3519 1.327 . S
C3522 C3510 1.349 . S
C3522 H3516 0.950 . S
C3522 C3523 1.327 . S
C3523 H3517 0.950 . S
C3523 C3522 1.327 . S
C3523 C3527 1.429 . S
C3524 C3507 1.574 . S
C3524 H3518 0.949 . S
C3524 C3528 1.368 . S
C3525 C3506 1.429 . S
C3525 C3519 1.429 . S
C3525 C3526 1.523 . S
C3526 C3507 1.368 . S
C3526 C3520 1.368 . S
C3526 C3525 1.523 . S
C3527 C3511 1.429 . S
C3527 C3523 1.429 . S
C3527 C3528 1.523 . S
C3528 C3512 1.368 . S
C3528 C3524 1.368 . S
C3528 C3527 1.523 . S
H3529 C3504 0.950 . S
H3530 C3506 0.950 . S
H3531 C3507 0.949 . S
H3532 C3509 0.950 . S
H3533 C3511 0.950 . S
C3534 C3535 1.349 . S
C3534 C3536 1.327 . S
C3534 H3559 0.950 . S
C3535 C3534 1.349 . S
C3535 C3551 1.349 . S
C3536 C3534 1.327 . S
C3536 C3555 1.429 . S
C3536 H3560 0.950 . S
C3537 C3554 1.574 . S
C3537 C3556 1.368 . S
C3537 H3561 0.949 . S
H3538 C3542 0.949 . S
C3539 C3540 1.349 . S
C3539 C3541 1.327 . S
C3539 H3562 0.950 . S
C3540 C3539 1.349 . S
C3540 C3552 1.349 . S
C3541 C3539 1.327 . S
C3541 C3557 1.429 . S
C3541 H3563 0.950 . S
C3542 H3538 0.949 . S
C3542 C3550 1.574 . S
C3542 C3558 1.368 . S
H3543 C3551 0.950 . S
H3544 C3549 0.950 . S
H3545 C3550 0.949 . S
H3546 C3552 0.950 . S
H3547 C3553 0.950 . S
H3548 C3554 0.949 . S
C3549 H3544 0.950 . S
C3549 C3551 1.327 . S
C3549 C3555 1.429 . S
C3550 C3542 1.574 . S
C3550 H3545 0.949 . S
C3550 C3556 1.368 . S
C3551 C3535 1.349 . S
C3551 H3543 0.950 . S
C3551 C3549 1.327 . S
C3552 C3540 1.349 . S
C3552 H3546 0.950 . S
C3552 C3553 1.327 . S
C3553 H3547 0.950 . S
C3553 C3552 1.327 . S
C3553 C3557 1.429 . S
C3554 C3537 1.574 . S
C3554 H3548 0.949 . S
C3554 C3558 1.368 . S
C3555 C3536 1.429 . S
C3555 C3549 1.429 . S
C3555 C3556 1.523 . S
C3556 C3537 1.368 . S
C3556 C3550 1.368 . S
C3556 C3555 1.523 . S
C3557 C3541 1.429 . S
C3557 C3553 1.429 . S
C3557 C3558 1.523 . S
C3558 C3542 1.368 . S
C3558 C3554 1.368 . S
C3558 C3557 1.523 . S
H3559 C3534 0.950 . S
H3560 C3536 0.950 . S
H3561 C3537 0.949 . S
H3562 C3539 0.950 . S
H3563 C3541 0.950 . S
C3564 C3565 1.349 . S
C3564 C3566 1.327 . S
C3564 H3589 0.950 . S
C3565 C3564 1.349 . S
C3565 C3581 1.349 . S
C3566 C3564 1.327 . S
C3566 C3585 1.429 . S
C3566 H3590 0.950 . S
C3567 C3584 1.574 . S
C3567 C3586 1.368 . S
C3567 H3591 0.949 . S
H3568 C3572 0.949 . S
C3569 C3570 1.349 . S
C3569 C3571 1.327 . S
C3569 H3592 0.884 1_545 S
C3570 C3569 1.349 . S
C3570 C3582 1.349 . S
C3571 C3569 1.327 . S
C3571 C3587 1.429 . S
C3571 H3593 0.950 . S
C3572 H3568 0.949 . S
C3572 C3580 1.574 . S
C3572 C3588 1.368 . S
H3573 C3581 0.950 . S
H3574 C3579 0.950 . S
H3575 C3580 0.949 . S
H3576 C3582 0.950 . S
H3577 C3583 0.950 . S
H3578 C3584 0.949 . S
C3579 H3574 0.950 . S
C3579 C3581 1.327 . S
C3579 C3585 1.429 . S
C3580 C3572 1.574 . S
C3580 H3575 0.949 . S
C3580 C3586 1.368 . S
C3581 C3565 1.349 . S
C3581 H3573 0.950 . S
C3581 C3579 1.327 . S
C3582 C3570 1.349 . S
C3582 H3576 0.950 . S
C3582 C3583 1.327 . S
C3583 H3577 0.950 . S
C3583 C3582 1.327 . S
C3583 C3587 1.429 . S
C3584 C3567 1.574 . S
C3584 H3578 0.949 . S
C3584 C3588 1.368 . S
C3585 C3566 1.429 . S
C3585 C3579 1.429 . S
C3585 C3586 1.523 . S
C3586 C3567 1.368 . S
C3586 C3580 1.368 . S
C3586 C3585 1.523 . S
C3587 C3571 1.429 . S
C3587 C3583 1.429 . S
C3587 C3588 1.523 . S
C3588 C3572 1.368 . S
C3588 C3584 1.368 . S
C3588 C3587 1.523 . S
H3589 C3564 0.950 . S
H3590 C3566 0.950 . S
H3591 C3567 0.949 . S
H3592 C3569 0.884 1_565 S
H3593 C3571 0.950 . S
C3594 C3595 1.349 . S
C3594 C3596 1.327 . S
C3594 H3619 0.950 . S
C3595 C3594 1.349 . S
C3595 C3611 1.349 . S
C3596 C3594 1.327 . S
C3596 C3615 1.429 . S
C3596 H3620 0.950 . S
C3597 C3614 1.574 . S
C3597 C3616 1.368 . S
C3597 H3621 0.949 . S
H3598 C3602 0.949 . S
C3599 C3600 1.349 . S
C3599 C3601 1.327 . S
C3599 H3622 0.950 . S
C3600 C3599 1.349 . S
C3600 C3612 1.349 . S
C3601 C3599 1.327 . S
C3601 C3617 1.429 . S
C3601 H3623 0.950 . S
C3602 H3598 0.949 . S
C3602 C3610 1.574 . S
C3602 C3618 1.368 . S
H3603 C3611 0.950 . S
H3604 C3609 0.950 . S
H3605 C3610 0.949 . S
H3606 C3612 0.950 1_455 S
H3607 C3613 1.021 . S
H3608 C3614 0.949 . S
C3609 H3604 0.950 . S
C3609 C3611 1.327 . S
C3609 C3615 1.429 . S
C3610 C3602 1.574 . S
C3610 H3605 0.949 . S
C3610 C3616 1.368 . S
C3611 C3595 1.349 . S
C3611 H3603 0.950 . S
C3611 C3609 1.327 . S
C3612 C3600 1.349 . S
C3612 H3606 0.950 1_655 S
C3612 C3613 1.327 . S
C3613 H3607 1.021 . S
C3613 C3612 1.327 . S
C3613 C3617 1.429 . S
C3614 C3597 1.574 . S
C3614 H3608 0.949 . S
C3614 C3618 1.368 . S
C3615 C3596 1.429 . S
C3615 C3609 1.429 . S
C3615 C3616 1.523 . S
C3616 C3597 1.368 . S
C3616 C3610 1.368 . S
C3616 C3615 1.523 . S
C3617 C3601 1.429 . S
C3617 C3613 1.429 . S
C3617 C3618 1.523 . S
C3618 C3602 1.368 . S
C3618 C3614 1.368 . S
C3618 C3617 1.523 . S
H3619 C3594 0.950 . S
H3620 C3596 0.950 . S
H3621 C3597 0.949 . S
H3622 C3599 0.950 . S
H3623 C3601 0.950 . S
C3624 C3625 1.349 . S
C3624 C3626 1.327 . S
C3624 H3649 0.950 . S
C3625 C3624 1.349 . S
C3625 C3641 1.349 . S
C3626 C3624 1.327 . S
C3626 C3645 1.429 . S
C3626 H3650 0.950 . S
C3627 C3644 1.574 . S
C3627 C3646 1.368 . S
C3627 H3651 0.949 . S
H3628 C3632 0.949 . S
C3629 C3630 1.349 . S
C3629 C3631 1.327 . S
C3629 H3652 0.950 . S
C3630 C3629 1.349 . S
C3630 C3642 1.349 . S
C3631 C3629 1.327 . S
C3631 C3647 1.429 . S
C3631 H3653 0.950 . S
C3632 H3628 0.949 . S
C3632 C3640 1.574 . S
C3632 C3648 1.368 . S
H3633 C3641 0.950 . S
H3634 C3639 0.950 . S
H3635 C3640 0.949 . S
H3636 C3642 0.950 . S
H3637 C3643 0.950 . S
H3638 C3644 0.949 . S
C3639 H3634 0.950 . S
C3639 C3641 1.327 . S
C3639 C3645 1.429 . S
C3640 C3632 1.574 . S
C3640 H3635 0.949 . S
C3640 C3646 1.368 . S
C3641 C3625 1.349 . S
C3641 H3633 0.950 . S
C3641 C3639 1.327 . S
C3642 C3630 1.349 . S
C3642 H3636 0.950 . S
C3642 C3643 1.327 . S
C3643 H3637 0.950 . S
C3643 C3642 1.327 . S
C3643 C3647 1.429 . S
C3644 C3627 1.574 . S
C3644 H3638 0.949 . S
C3644 C3648 1.368 . S
C3645 C3626 1.429 . S
C3645 C3639 1.429 . S
C3645 C3646 1.523 . S
C3646 C3627 1.368 . S
C3646 C3640 1.368 . S
C3646 C3645 1.523 . S
C3647 C3631 1.429 . S
C3647 C3643 1.429 . S
C3647 C3648 1.523 . S
C3648 C3632 1.368 . S
C3648 C3644 1.368 . S
C3648 C3647 1.523 . S
H3649 C3624 0.950 . S
H3650 C3626 0.950 . S
H3651 C3627 0.949 . S
H3652 C3629 0.950 . S
H3653 C3631 0.950 . S
C3654 C3655 1.349 . S
C3654 C3656 1.327 . S
C3654 H3679 0.950 . S
C3655 C3654 1.349 . S
C3655 C3671 1.349 . S
C3656 C3654 1.327 . S
C3656 C3675 1.429 . S
C3656 H3680 0.950 . S
C3657 C3674 1.574 . S
C3657 C3676 1.368 . S
C3657 H3681 0.949 . S
H3658 C3662 0.949 . S
C3659 C3660 1.349 . S
C3659 C3661 1.327 . S
C3659 H3682 0.950 . S
C3660 C3659 1.349 . S
C3660 C3672 1.349 . S
C3661 C3659 1.327 . S
C3661 C3677 1.429 . S
C3661 H3683 0.950 . S
C3662 H3658 0.949 . S
C3662 C3670 1.574 . S
C3662 C3678 1.368 . S
H3663 C3671 0.950 . S
H3664 C3669 0.950 . S
H3665 C3670 0.949 . S
H3666 C3672 0.950 . S
H3667 C3673 0.950 . S
H3668 C3674 0.949 . S
C3669 H3664 0.950 . S
C3669 C3671 1.327 . S
C3669 C3675 1.429 . S
C3670 C3662 1.574 . S
C3670 H3665 0.949 . S
C3670 C3676 1.368 . S
C3671 C3655 1.349 . S
C3671 H3663 0.950 . S
C3671 C3669 1.327 . S
C3672 C3660 1.349 . S
C3672 H3666 0.950 . S
C3672 C3673 1.327 . S
C3673 H3667 0.950 . S
C3673 C3672 1.327 . S
C3673 C3677 1.429 . S
C3674 C3657 1.574 . S
C3674 H3668 0.949 . S
C3674 C3678 1.368 . S
C3675 C3656 1.429 . S
C3675 C3669 1.429 . S
C3675 C3676 1.523 . S
C3676 C3657 1.368 . S
C3676 C3670 1.368 . S
C3676 C3675 1.523 . S
C3677 C3661 1.429 . S
C3677 C3673 1.429 . S
C3677 C3678 1.523 . S
C3678 C3662 1.368 . S
C3678 C3674 1.368 . S
C3678 C3677 1.523 . S
H3679 C3654 0.950 . S
H3680 C3656 0.950 . S
H3681 C3657 0.949 . S
H3682 C3659 0.950 . S
H3683 C3661 0.950 . S
C3684 C3685 1.349 . S
C3684 C3686 1.327 . S
C3684 H3709 0.950 . S
C3685 C3684 1.349 . S
C3685 C3701 1.349 . S
C3686 C3684 1.327 . S
C3686 C3705 1.429 . S
C3686 H3710 0.950 . S
C3687 C3704 1.574 . S
C3687 C3706 1.368 . S
C3687 H3711 0.949 . S
H3688 C3692 0.949 . S
C3689 C3690 1.349 . S
C3689 C3691 1.327 . S
C3689 H3712 0.950 . S
C3690 C3689 1.349 . S
C3690 C3702 1.349 . S
C3691 C3689 1.327 . S
C3691 C3707 1.429 . S
C3691 H3713 0.950 . S
C3692 H3688 0.949 . S
C3692 C3700 1.574 . S
C3692 C3708 1.368 . S
H3693 C3701 0.950 . S
H3694 C3699 0.950 . S
H3695 C3700 0.949 . S
H3696 C3702 0.950 . S
H3697 C3703 0.950 . S
H3698 C3704 0.949 . S
C3699 H3694 0.950 . S
C3699 C3701 1.327 . S
C3699 C3705 1.429 . S
C3700 C3692 1.574 . S
C3700 H3695 0.949 . S
C3700 C3706 1.368 . S
C3701 C3685 1.349 . S
C3701 H3693 0.950 . S
C3701 C3699 1.327 . S
C3702 C3690 1.349 . S
C3702 H3696 0.950 . S
C3702 C3703 1.327 . S
C3703 H3697 0.950 . S
C3703 C3702 1.327 . S
C3703 C3707 1.429 . S
C3704 C3687 1.574 . S
C3704 H3698 0.949 . S
C3704 C3708 1.368 . S
C3705 C3686 1.429 . S
C3705 C3699 1.429 . S
C3705 C3706 1.523 . S
C3706 C3687 1.368 . S
C3706 C3700 1.368 . S
C3706 C3705 1.523 . S
C3707 C3691 1.429 . S
C3707 C3703 1.429 . S
C3707 C3708 1.523 . S
C3708 C3692 1.368 . S
C3708 C3704 1.368 . S
C3708 C3707 1.523 . S
H3709 C3684 0.950 . S
H3710 C3686 0.950 . S
H3711 C3687 0.949 . S
H3712 C3689 0.950 . S
H3713 C3691 0.950 . S
C3714 C3715 1.349 . S
C3714 C3716 1.327 . S
C3714 H3739 0.950 . S
C3715 C3714 1.349 . S
C3715 C3731 1.349 . S
C3716 C3714 1.327 . S
C3716 C3735 1.429 . S
C3716 H3740 0.950 . S
C3717 C3734 1.574 . S
C3717 C3736 1.368 . S
C3717 H3741 0.949 . S
H3718 C3722 0.949 . S
C3719 C3720 1.349 . S
C3719 C3721 1.327 . S
C3719 H3742 0.950 . S
C3720 C3719 1.349 . S
C3720 C3732 1.349 . S
C3721 C3719 1.327 . S
C3721 C3737 1.429 . S
C3721 H3743 0.950 . S
C3722 H3718 0.949 . S
C3722 C3730 1.574 . S
C3722 C3738 1.368 . S
H3723 C3731 0.972 . S
H3724 C3729 0.950 . S
H3725 C3730 0.949 . S
H3726 C3732 0.950 . S
H3727 C3733 0.950 . S
H3728 C3734 0.949 . S
C3729 H3724 0.950 . S
C3729 C3731 1.327 . S
C3729 C3735 1.429 . S
C3730 C3722 1.574 . S
C3730 H3725 0.949 . S
C3730 C3736 1.368 . S
C3731 C3715 1.349 . S
C3731 H3723 0.972 . S
C3731 C3729 1.327 . S
C3732 C3720 1.349 . S
C3732 H3726 0.950 . S
C3732 C3733 1.327 . S
C3733 H3727 0.950 . S
C3733 C3732 1.327 . S
C3733 C3737 1.429 . S
C3734 C3717 1.574 . S
C3734 H3728 0.949 . S
C3734 C3738 1.368 . S
C3735 C3716 1.429 . S
C3735 C3729 1.429 . S
C3735 C3736 1.523 . S
C3736 C3717 1.368 . S
C3736 C3730 1.368 . S
C3736 C3735 1.523 . S
C3737 C3721 1.429 . S
C3737 C3733 1.429 . S
C3737 C3738 1.523 . S
C3738 C3722 1.368 . S
C3738 C3734 1.368 . S
C3738 C3737 1.523 . S
H3739 C3714 0.950 . S
H3740 C3716 0.950 . S
H3741 C3717 0.949 . S
H3742 C3719 0.950 . S
H3743 C3721 0.950 . S
C3744 C3745 1.349 . S
C3744 C3746 1.327 . S
C3744 H3769 0.950 . S
C3745 C3744 1.349 . S
C3745 C3761 1.349 . S
C3746 C3744 1.327 . S
C3746 C3765 1.429 . S
C3746 H3770 0.950 . S
C3747 C3764 1.574 . S
C3747 C3766 1.368 . S
C3747 H3771 0.949 . S
H3748 C3752 0.949 . S
C3749 C3750 1.349 . S
C3749 C3751 1.327 . S
C3749 H3772 0.950 . S
C3750 C3749 1.349 . S
C3750 C3762 1.349 . S
C3751 C3749 1.327 . S
C3751 C3767 1.429 . S
C3751 H3773 0.950 . S
C3752 H3748 0.949 . S
C3752 C3760 1.574 . S
C3752 C3768 1.368 . S
H3753 C3761 0.950 . S
H3754 C3759 0.950 . S
H3755 C3760 0.949 . S
H3756 C3762 0.950 . S
H3757 C3763 0.950 . S
H3758 C3764 0.949 . S
C3759 H3754 0.950 . S
C3759 C3761 1.327 . S
C3759 C3765 1.429 . S
C3760 C3752 1.574 . S
C3760 H3755 0.949 . S
C3760 C3766 1.368 . S
C3761 C3745 1.349 . S
C3761 H3753 0.950 . S
C3761 C3759 1.327 . S
C3762 C3750 1.349 . S
C3762 H3756 0.950 . S
C3762 C3763 1.327 . S
C3763 H3757 0.950 . S
C3763 C3762 1.327 . S
C3763 C3767 1.429 . S
C3764 C3747 1.574 . S
C3764 H3758 0.949 . S
C3764 C3768 1.368 . S
C3765 C3746 1.429 . S
C3765 C3759 1.429 . S
C3765 C3766 1.523 . S
C3766 C3747 1.368 . S
C3766 C3760 1.368 . S
C3766 C3765 1.523 . S
C3767 C3751 1.429 . S
C3767 C3763 1.429 . S
C3767 C3768 1.523 . S
C3768 C3752 1.368 . S
C3768 C3764 1.368 . S
C3768 C3767 1.523 . S
H3769 C3744 0.950 . S
H3770 C3746 0.950 . S
H3771 C3747 0.949 . S
H3772 C3749 0.950 . S
H3773 C3751 0.950 . S
C3774 C3775 1.349 . S
C3774 C3776 1.327 . S
C3774 H3799 0.950 . S
C3775 C3774 1.349 . S
C3775 C3791 1.349 . S
C3776 C3774 1.327 . S
C3776 C3795 1.429 . S
C3776 H3800 0.950 . S
C3777 C3794 1.574 . S
C3777 C3796 1.368 . S
C3777 H3801 0.949 . S
H3778 C3782 0.949 . S
C3779 C3780 1.349 . S
C3779 C3781 1.327 . S
C3779 H3802 0.950 . S
C3780 C3779 1.349 . S
C3780 C3792 1.349 . S
C3781 C3779 1.327 . S
C3781 C3797 1.429 . S
C3781 H3803 0.950 . S
C3782 H3778 0.949 . S
C3782 C3790 1.574 . S
C3782 C3798 1.368 . S
H3783 C3791 0.950 . S
H3784 C3789 0.950 . S
H3785 C3790 0.949 . S
H3786 C3792 0.950 . S
H3787 C3793 0.950 . S
H3788 C3794 0.949 . S
C3789 H3784 0.950 . S
C3789 C3791 1.327 . S
C3789 C3795 1.429 . S
C3790 C3782 1.574 . S
C3790 H3785 0.949 . S
C3790 C3796 1.368 . S
C3791 C3775 1.349 . S
C3791 H3783 0.950 . S
C3791 C3789 1.327 . S
C3792 C3780 1.349 . S
C3792 H3786 0.950 . S
C3792 C3793 1.327 . S
C3793 H3787 0.950 . S
C3793 C3792 1.327 . S
C3793 C3797 1.429 . S
C3794 C3777 1.574 . S
C3794 H3788 0.949 . S
C3794 C3798 1.368 . S
C3795 C3776 1.429 . S
C3795 C3789 1.429 . S
C3795 C3796 1.523 . S
C3796 C3777 1.368 . S
C3796 C3790 1.368 . S
C3796 C3795 1.523 . S
C3797 C3781 1.429 . S
C3797 C3793 1.429 . S
C3797 C3798 1.523 . S
C3798 C3782 1.368 . S
C3798 C3794 1.368 . S
C3798 C3797 1.523 . S
H3799 C3774 0.950 . S
H3800 C3776 0.950 . S
H3801 C3777 0.949 . S
H3802 C3779 0.950 . S
H3803 C3781 0.950 . S
C3804 C3805 1.349 . S
C3804 C3806 1.327 . S
C3804 H3829 0.950 . S
C3805 C3804 1.349 . S
C3805 C3821 1.349 . S
C3806 C3804 1.327 . S
C3806 C3825 1.429 . S
C3806 H3830 0.950 . S
C3807 C3824 1.574 . S
C3807 C3826 1.368 . S
C3807 H3831 0.949 . S
H3808 C3812 0.949 . S
C3809 C3810 1.349 . S
C3809 C3811 1.327 . S
C3809 H3832 0.950 . S
C3810 C3809 1.349 . S
C3810 C3822 1.349 . S
C3811 C3809 1.327 . S
C3811 C3827 1.429 . S
C3811 H3833 0.950 . S
C3812 H3808 0.949 . S
C3812 C3820 1.574 . S
C3812 C3828 1.368 . S
H3813 C3821 0.950 . S
H3814 C3819 0.950 . S
H3815 C3820 0.949 . S
H3816 C3822 0.950 . S
H3817 C3823 0.950 . S
H3818 C3824 0.949 . S
C3819 H3814 0.950 . S
C3819 C3821 1.327 . S
C3819 C3825 1.429 . S
C3820 C3812 1.574 . S
C3820 H3815 0.949 . S
C3820 C3826 1.368 . S
C3821 C3805 1.349 . S
C3821 H3813 0.950 . S
C3821 C3819 1.327 . S
C3822 C3810 1.349 . S
C3822 H3816 0.950 . S
C3822 C3823 1.327 . S
C3823 H3817 0.950 . S
C3823 C3822 1.327 . S
C3823 C3827 1.429 . S
C3824 C3807 1.574 . S
C3824 H3818 0.949 . S
C3824 C3828 1.368 . S
C3825 C3806 1.429 . S
C3825 C3819 1.429 . S
C3825 C3826 1.523 . S
C3826 C3807 1.368 . S
C3826 C3820 1.368 . S
C3826 C3825 1.523 . S
C3827 C3811 1.429 . S
C3827 C3823 1.429 . S
C3827 C3828 1.523 . S
C3828 C3812 1.368 . S
C3828 C3824 1.368 . S
C3828 C3827 1.523 . S
H3829 C3804 0.950 . S
H3830 C3806 0.950 . S
H3831 C3807 0.949 . S
H3832 C3809 0.950 . S
H3833 C3811 0.950 . S
C3834 C3835 1.349 . S
C3834 C3836 1.327 . S
C3834 H3859 0.950 . S
C3835 C3834 1.349 . S
C3835 C3851 1.349 . S
C3836 C3834 1.327 . S
C3836 C3855 1.429 . S
C3836 H3860 0.950 . S
C3837 C3854 1.574 . S
C3837 C3856 1.368 . S
C3837 H3861 0.949 . S
H3838 C3842 0.949 . S
C3839 C3840 1.349 . S
C3839 C3841 1.327 . S
C3839 H3862 0.950 1_655 S
C3840 C3839 1.349 . S
C3840 C3852 1.349 . S
C3841 C3839 1.327 . S
C3841 C3857 1.429 . S
C3841 H3863 0.963 . S
C3842 H3838 0.949 . S
C3842 C3850 1.574 . S
C3842 C3858 1.368 . S
H3843 C3851 0.950 . S
H3844 C3849 0.950 . S
H3845 C3850 0.949 . S
H3846 C3852 0.950 . S
H3847 C3853 0.950 . S
H3848 C3854 0.949 . S
C3849 H3844 0.950 . S
C3849 C3851 1.327 . S
C3849 C3855 1.429 . S
C3850 C3842 1.574 . S
C3850 H3845 0.949 . S
C3850 C3856 1.368 . S
C3851 C3835 1.349 . S
C3851 H3843 0.950 . S
C3851 C3849 1.327 . S
C3852 C3840 1.349 . S
C3852 H3846 0.950 . S
C3852 C3853 1.327 . S
C3853 H3847 0.950 . S
C3853 C3852 1.327 . S
C3853 C3857 1.429 . S
C3854 C3837 1.574 . S
C3854 H3848 0.949 . S
C3854 C3858 1.368 . S
C3855 C3836 1.429 . S
C3855 C3849 1.429 . S
C3855 C3856 1.523 . S
C3856 C3837 1.368 . S
C3856 C3850 1.368 . S
C3856 C3855 1.523 . S
C3857 C3841 1.429 . S
C3857 C3853 1.429 . S
C3857 C3858 1.523 . S
C3858 C3842 1.368 . S
C3858 C3854 1.368 . S
C3858 C3857 1.523 . S
H3859 C3834 0.950 . S
H3860 C3836 0.950 . S
H3861 C3837 0.949 . S
H3862 C3839 0.950 1_455 S
H3863 C3841 0.963 . S
C3864 C3865 1.349 . S
C3864 C3866 1.327 . S
C3864 H3889 0.950 . S
C3865 C3864 1.349 . S
C3865 C3881 1.349 . S
C3866 C3864 1.327 . S
C3866 C3885 1.429 . S
C3866 H3890 0.950 . S
C3867 C3884 1.574 . S
C3867 C3886 1.368 . S
C3867 H3891 0.949 . S
H3868 C3872 0.949 . S
C3869 C3870 1.349 . S
C3869 C3871 1.327 . S
C3869 H3892 0.950 . S
C3870 C3869 1.349 . S
C3870 C3882 1.349 . S
C3871 C3869 1.327 . S
C3871 C3887 1.429 . S
C3871 H3893 0.950 . S
C3872 H3868 0.949 . S
C3872 C3880 1.574 . S
C3872 C3888 1.368 . S
H3873 C3881 0.950 . S
H3874 C3879 0.950 . S
H3875 C3880 0.949 . S
H3876 C3882 0.950 . S
H3877 C3883 0.950 . S
H3878 C3884 0.949 . S
C3879 H3874 0.950 . S
C3879 C3881 1.327 . S
C3879 C3885 1.429 . S
C3880 C3872 1.574 . S
C3880 H3875 0.949 . S
C3880 C3886 1.368 . S
C3881 C3865 1.349 . S
C3881 H3873 0.950 . S
C3881 C3879 1.327 . S
C3882 C3870 1.349 . S
C3882 H3876 0.950 . S
C3882 C3883 1.327 . S
C3883 H3877 0.950 . S
C3883 C3882 1.327 . S
C3883 C3887 1.429 . S
C3884 C3867 1.574 . S
C3884 H3878 0.949 . S
C3884 C3888 1.368 . S
C3885 C3866 1.429 . S
C3885 C3879 1.429 . S
C3885 C3886 1.523 . S
C3886 C3867 1.368 . S
C3886 C3880 1.368 . S
C3886 C3885 1.523 . S
C3887 C3871 1.429 . S
C3887 C3883 1.429 . S
C3887 C3888 1.523 . S
C3888 C3872 1.368 . S
C3888 C3884 1.368 . S
C3888 C3887 1.523 . S
H3889 C3864 0.950 . S
H3890 C3866 0.950 . S
H3891 C3867 0.949 . S
H3892 C3869 0.950 . S
H3893 C3871 0.950 . S
C3894 C3895 1.349 . S
C3894 C3896 1.327 . S
C3894 H3919 0.950 . S
C3895 C3894 1.349 . S
C3895 C3911 1.349 . S
C3896 C3894 1.327 . S
C3896 C3915 1.429 . S
C3896 H3920 0.950 . S
C3897 C3914 1.566 . S
C3897 C3916 1.368 . S
C3897 H3921 0.949 1_545 S
H3898 C3902 0.949 . S
C3899 C3900 1.349 1_565 S
C3899 C3901 1.327 . S
C3899 H3922 0.950 . S
C3900 C3899 1.349 1_545 S
C3900 C3912 1.349 . S
C3901 C3899 1.327 . S
C3901 C3917 1.429 1_565 S
C3901 H3923 0.950 . S
C3902 H3898 0.949 . S
C3902 C3910 1.574 . S
C3902 C3918 1.368 . S
H3903 C3911 0.950 . S
H3904 C3909 0.950 1_565 S
H3905 C3910 0.949 . S
H3906 C3912 0.950 . S
H3907 C3913 0.950 . S
H3908 C3914 0.936 1_565 S
C3909 H3904 0.950 1_545 S
C3909 C3911 1.327 . S
C3909 C3915 1.429 . S
C3910 C3902 1.574 . S
C3910 H3905 0.949 . S
C3910 C3916 1.368 . S
C3911 C3895 1.349 . S
C3911 H3903 0.950 . S
C3911 C3909 1.327 . S
C3912 C3900 1.349 . S
C3912 H3906 0.950 . S
C3912 C3913 1.327 . S
C3913 H3907 0.950 . S
C3913 C3912 1.327 . S
C3913 C3917 1.429 . S
C3914 C3897 1.566 . S
C3914 H3908 0.936 1_545 S
C3914 C3918 1.391 . S
C3915 C3896 1.429 . S
C3915 C3909 1.429 . S
C3915 C3916 1.523 . S
C3916 C3897 1.368 . S
C3916 C3910 1.368 . S
C3916 C3915 1.523 . S
C3917 C3901 1.429 1_545 S
C3917 C3913 1.429 . S
C3917 C3918 1.523 . S
C3918 C3902 1.368 . S
C3918 C3914 1.391 . S
C3918 C3917 1.523 . S
H3919 C3894 0.950 . S
H3920 C3896 0.950 . S
H3921 C3897 0.949 1_565 S
H3922 C3899 0.950 . S
H3923 C3901 0.950 . S
C1765 C4 1.534 1_655 S
C1770 C1253 1.501 . S
C1795 C38 1.740 . S
C1800 C1297 1.702 . S
C1830 C1377 1.498 . S
C1825 C74 1.537 . S
C1855 C76 1.520 . S
C1860 C1421 1.481 . S
C1885 C2 1.639 . S
C1890 C1501 1.605 . S
C1915 C40 1.573 . S
C1920 C1563 1.513 . S
C1945 C110 1.633 . S
C1950 C1483 1.558 . S
C1980 C1545 1.502 . S
C1975 C148 1.568 . S
C2010 C1439 1.599 . S
C2005 C182 1.627 . S
C2035 C184 1.573 . S
C2040 C1359 1.527 . S
C2070 C1235 1.475 . S
C2065 C112 1.522 1_655 S
C2095 C146 1.669 . S
C2100 C1315 1.632 . S
C2125 C220 1.649 . S
C2130 C1625 1.585 . S
C2155 C254 1.792 . S
C2160 C1669 1.752 . S
C2190 C1749 1.596 . S
C2185 C290 1.663 . S
C2215 C292 1.569 . S
C2220 C695 1.504 . S
C2245 C218 1.716 . S
C2250 C739 1.682 . S
C2275 C256 1.586 . S
C2280 C819 1.524 . S
C2305 C326 1.711 . S
C2310 C757 1.673 . S
C2335 C364 1.621 . S
C2340 C801 1.553 . S
C2370 C677 1.661 . S
C2365 C398 1.725 . S
C2400 C1731 1.613 . S
C2395 C400 1.679 . S
C2430 C1607 1.487 . S
C2425 C328 1.544 . S
C2460 C1687 1.684 . S
C2455 C362 1.721 . S
C2485 C436 1.615 . S
C2490 C881 1.552 . S
C2515 C470 1.779 . S
C2520 C943 1.705 . S
C2545 C506 1.665 . S
C2550 C987 1.631 . S
C2575 C508 1.605 . S
C2580 C1049 1.566 . S
C2610 C1111 1.685 . S
C2605 C434 1.720 . S
C2640 C1191 1.546 . S
C2635 C472 1.609 . S
C2670 C1129 1.723 . S
C2665 C542 1.762 . S
C2700 C1173 1.552 . S
C2695 C580 1.621 . S
C2725 C614 1.710 . S
C2730 C1067 1.676 . S
C2760 C1005 1.586 . S
C2755 C616 1.624 . S
C2785 C544 1.554 . S
C2790 C863 1.497 . S
C2820 C925 1.627 . S
C2815 C578 1.694 . S
C2850 C701 1.501 . S
C2845 C14 1.544 . S
C2875 C39 1.526 . S
C2880 C745 1.472 . S
C2910 C825 1.441 . S
C2905 C75 1.522 . S
C2940 C887 1.342 . S
C2935 C86 1.368 . S
C2970 C949 1.486 . S
C2965 C3 1.555 . S
C3000 C993 1.461 . S
C2995 C50 1.482 . S
C3025 C111 1.555 . S
C3030 C1011 1.502 . S
C3055 C158 1.433 . S
C3060 C869 1.390 . S
C3085 C183 1.607 1_556 S
C3090 C931 1.557 . S
C3115 C194 1.516 . S
C3120 C763 1.499 . S
C3150 C807 1.387 . S
C3145 C122 1.428 . S
C3175 C147 1.444 . S
C3180 C683 1.380 . S
C3210 C1055 1.497 . S
C3205 C230 1.524 . S
C3235 C255 1.623 . S
C3240 C1117 1.548 . S
C3265 C291 1.572 . S
C3270 C1197 1.466 . S
C3300 C1259 1.309 . S
C3295 C302 1.318 . S
C3325 C219 1.543 . S
C3330 C1303 1.492 . S
C3355 C266 1.394 . S
C3360 C1383 1.393 . S
C3385 C327 1.388 . S
C3390 C1365 1.323 . S
C3415 C374 1.376 . S
C3420 C1241 1.358 . S
C3450 C1321 1.560 . S
C3445 C399 1.613 . S
C3475 C410 1.525 . S
C3480 C1135 1.506 . S
C3505 C338 1.502 1_545 S
C3510 C1179 1.463 . S
C3540 C1073 1.462 . S
C3535 C363 1.516 1_655 S
C3570 C1427 1.413 . S
C3565 C446 1.413 . S
C3595 C471 1.447 . S
C3600 C1507 1.394 . S
C3625 C507 1.484 . S
C3630 C1569 1.411 . S
C3660 C1631 1.356 . S
C3655 C518 1.395 . S
C3690 C1675 1.557 . S
C3685 C435 1.613 1_565 S
C3715 C482 1.546 1_455 S
C3720 C1755 1.516 . S
C3745 C543 1.514 . S
C3750 C1737 1.438 . S
C3775 C590 1.501 1_565 S
C3780 C1613 1.460 . S
C3810 C1693 1.604 . S
C3805 C615 1.659 . S
C3840 C1489 1.398 . S
C3835 C626 1.395 . S
C3870 C1551 1.423 . S
C3865 C554 1.460 . S
C3895 C579 1.391 . S
C3900 C1445 1.345 . S
