# Generated by pormake.
# Topology zzz, (3,6)-cn, num edge types: 1
# Building blocks:
#     Node 0, Type 0, BuildingBlock: ESEHIV_clean_linker_0, # of connection points: 3
#     Node 1, Type 0, BuildingBlock: ESEHIV_clean_linker_0, # of connection points: 3
#     Node 2, Type 0, BuildingBlock: ESEHIV_clean_linker_0, # of connection points: 3
#     Node 3, Type 0, BuildingBlock: ESEHIV_clean_linker_0, # of connection points: 3
#     Node 4, Type 0, BuildingBlock: ESEHIV_clean_linker_0, # of connection points: 3
#     Node 5, Type 0, BuildingBlock: ESEHIV_clean_linker_0, # of connection points: 3
#     Node 6, Type 0, BuildingBlock: ESEHIV_clean_linker_0, # of connection points: 3
#     Node 7, Type 0, BuildingBlock: ESEHIV_clean_linker_0, # of connection points: 3
#     Node 8, Type 1, BuildingBlock: BETFAJ_clean_sbu_0, # of connection points: 6
#     Node 9, Type 1, BuildingBlock: BETFAJ_clean_sbu_0, # of connection points: 6
#     Node 10, Type 1, BuildingBlock: BETFAJ_clean_sbu_0, # of connection points: 6
#     Node 11, Type 1, BuildingBlock: BETFAJ_clean_sbu_0, # of connection points: 6
#     Edge 12, Type (0, 1), BuildingBlock: OJICUG_clean_linker_0, # of connection points: 2
#     Edge 13, Type (0, 1), BuildingBlock: OJICUG_clean_linker_0, # of connection points: 2
#     Edge 14, Type (0, 1), BuildingBlock: OJICUG_clean_linker_0, # of connection points: 2
#     Edge 15, Type (0, 1), BuildingBlock: OJICUG_clean_linker_0, # of connection points: 2
#     Edge 16, Type (0, 1), BuildingBlock: OJICUG_clean_linker_0, # of connection points: 2
#     Edge 17, Type (0, 1), BuildingBlock: OJICUG_clean_linker_0, # of connection points: 2
#     Edge 18, Type (0, 1), BuildingBlock: OJICUG_clean_linker_0, # of connection points: 2
#     Edge 19, Type (0, 1), BuildingBlock: OJICUG_clean_linker_0, # of connection points: 2
#     Edge 20, Type (0, 1), BuildingBlock: OJICUG_clean_linker_0, # of connection points: 2
#     Edge 21, Type (0, 1), BuildingBlock: OJICUG_clean_linker_0, # of connection points: 2
#     Edge 22, Type (0, 1), BuildingBlock: OJICUG_clean_linker_0, # of connection points: 2
#     Edge 23, Type (0, 1), BuildingBlock: OJICUG_clean_linker_0, # of connection points: 2
#     Edge 24, Type (0, 1), BuildingBlock: OJICUG_clean_linker_0, # of connection points: 2
#     Edge 25, Type (0, 1), BuildingBlock: OJICUG_clean_linker_0, # of connection points: 2
#     Edge 26, Type (0, 1), BuildingBlock: OJICUG_clean_linker_0, # of connection points: 2
#     Edge 27, Type (0, 1), BuildingBlock: OJICUG_clean_linker_0, # of connection points: 2
#     Edge 28, Type (0, 1), BuildingBlock: OJICUG_clean_linker_0, # of connection points: 2
#     Edge 29, Type (0, 1), BuildingBlock: OJICUG_clean_linker_0, # of connection points: 2
#     Edge 30, Type (0, 1), BuildingBlock: OJICUG_clean_linker_0, # of connection points: 2
#     Edge 31, Type (0, 1), BuildingBlock: OJICUG_clean_linker_0, # of connection points: 2
#     Edge 32, Type (0, 1), BuildingBlock: OJICUG_clean_linker_0, # of connection points: 2
#     Edge 33, Type (0, 1), BuildingBlock: OJICUG_clean_linker_0, # of connection points: 2
#     Edge 34, Type (0, 1), BuildingBlock: OJICUG_clean_linker_0, # of connection points: 2
#     Edge 35, Type (0, 1), BuildingBlock: OJICUG_clean_linker_0, # of connection points: 2
# Relax obj value: 0.637
# Max RMSD: 0.271
# Mean RMSD: 0.253
data_MOF--net-zzz--node1-BETFAJ_clean_sbu_0--node2-ESEHIV_clean_linker_0--edge1-OJICUG_clean_linker_0
_symmetry_space_group_name_H-M    P1
_symmetry_Int_Tables_number       1
_symmetry_cell_setting            triclinic
loop_
_symmetry_equiv_pos_as_xyz
'x, y, z'
_cell_length_a     31.996149
_cell_length_b     31.942056
_cell_length_c     10.388886
_cell_angle_alpha  89.998601
_cell_angle_beta   89.741773
_cell_angle_gamma 89.990083
loop_
_atom_site_label
_atom_site_type_symbol
_atom_site_fract_x
_atom_site_fract_y
_atom_site_fract_z
_atom_type_partial_charge
H0 H 0.80846 0.44599 0.43936 0.0
H1 H 0.69786 0.45539 0.20765 0.0
H2 H 0.74942 0.56533 0.38628 0.0
C3 C 0.78226 0.46378 0.40283 0.0
C4 C 0.78122 0.50681 0.42956 0.0
C5 C 0.75341 0.44479 0.31929 0.0
C6 C 0.7208 0.46939 0.27076 0.0
C7 C 0.71874 0.51264 0.29361 0.0
C8 C 0.74977 0.53178 0.37133 0.0
H9 H 0.09262 0.81184 0.45937 0.0
H10 H 0.0811 0.70012 0.23297 0.0
H11 H 0.97336 0.75117 0.42816 0.0
C12 C 0.07446 0.78528 0.42686 0.0
C13 C 0.03206 0.78396 0.46083 0.0
C14 C 0.09241 0.75607 0.34218 0.0
C15 C 0.0676 0.72314 0.29757 0.0
C16 C 0.02485 0.72064 0.32719 0.0
C17 C 1.00654 0.75189 0.40746 0.0
H18 H 0.73598 0.10231 0.35808 0.0
H19 H 0.85183 0.08364 0.15955 0.0
H20 H 0.80902 0.99129 0.43427 0.0
C21 C 0.76404 0.08376 0.34367 0.0
C22 C 0.76839 0.04555 0.40927 0.0
C23 C 0.7938 0.09702 0.25303 0.0
C24 C 0.82914 0.07294 0.23033 0.0
C25 C 0.83573 0.03528 0.29603 0.0
C26 C 0.80464 1.02068 0.38418 0.0
H27 H 0.4511 0.73221 0.40571 0.0
H28 H 0.56347 0.8055 0.40183 0.0
H29 H 0.45172 0.85209 0.21922 0.0
C30 C 0.46664 0.76141 0.38252 0.0
C31 C 0.44617 0.7917 0.3076 0.0
C32 C 0.5084 0.76596 0.41928 0.0
C33 C 0.53067 0.80219 0.37881 0.0
C34 C 0.50977 0.83416 0.30828 0.0
C35 C 0.46749 0.82852 0.27621 0.0
H36 H 0.23489 0.61294 0.20442 0.0
H37 H 0.34949 0.59967 0.41127 0.0
H38 H 0.30186 0.49598 0.18844 0.0
C39 C 0.26233 0.59447 0.22747 0.0
C40 C 0.26504 0.55329 0.18152 0.0
C41 C 0.29227 0.61092 0.31159 0.0
C42 C 0.32678 0.58679 0.34485 0.0
C43 C 0.33125 0.54558 0.30008 0.0
C44 C 0.2995 0.52815 0.22054 0.0
H45 H 0.95478 0.23047 0.21184 0.0
H46 H 0.95155 0.34711 0.41731 0.0
H47 H 0.06204 0.31116 0.20421 0.0
C48 C 0.96894 0.26015 0.23715 0.0
C49 C 1.00948 0.26816 0.19227 0.0
C50 C 0.94796 0.28785 0.32043 0.0
C51 C 0.96768 0.32529 0.35452 0.0
C52 C 1.00877 0.33425 0.31472 0.0
C53 C 0.03018 0.30505 0.23438 0.0
H54 H 0.31472 0.94309 0.18856 0.0
H55 H 0.19621 0.94779 0.38272 0.0
H56 H 0.24375 0.05719 0.1863 0.0
C57 C 0.28603 0.95952 0.21194 0.0
C58 C 0.2821 1.00114 0.17145 0.0
C59 C 0.25584 0.94033 0.29085 0.0
C60 C 0.21962 0.96265 0.32241 0.0
C61 C 0.21454 1.0048 0.28657 0.0
C62 C 0.24656 1.02449 0.21228 0.0
H63 H 0.60226 0.30392 0.1613 0.0
H64 H 0.48133 0.24496 0.18147 0.0
H65 H 0.58512 0.19541 0.39762 0.0
C66 C 0.58268 0.2782 0.19343 0.0
C67 C 0.59864 0.24921 0.28179 0.0
C68 C 0.54062 0.2776 0.15626 0.0
C69 C 0.51411 0.24565 0.20674 0.0
C70 C 0.53086 0.21457 0.29035 0.0
C71 C 0.57277 0.21747 0.32798 0.0
Sm72 Sm 0.06688 1.0189 0.86948 0.0
Sm73 Sm 0.99402 0.04134 0.75795 0.0
C74 C 0.13517 0.98739 0.97612 0.0
C75 C 0.1478 0.94532 1.01439 0.0
C76 C 0.11706 0.91495 0.03481 0.0
C77 C 0.12844 0.87446 0.0672 0.0
C78 C 0.17079 0.8635 0.07976 0.0
C79 C 0.20177 0.8936 0.0568 0.0
C80 C 0.19024 0.93444 1.02262 0.0
C81 C 0.08374 0.05455 0.63084 0.0
C82 C 1.01811 0.94351 0.71857 0.0
C83 C 0.92409 0.0626 0.64089 0.0
C84 C 0.89653 0.09879 0.65883 0.0
C85 C 0.91091 0.13306 0.7298 0.0
C86 C 0.89411 0.17262 0.70828 0.0
C87 C 0.86279 0.17829 0.61449 0.0
C88 C 0.84259 0.14235 0.56642 0.0
C89 C 0.86005 0.10276 0.58645 0.0
C90 C 0.98123 0.02642 1.01876 0.0
C91 C 0.04057 0.11475 0.91293 0.0
O92 O 0.10473 1.00442 0.04253 0.0
O93 O 0.13053 0.99211 0.85262 0.0
O94 O 0.05555 0.02775 0.65408 0.0
O95 O 0.09817 0.06839 0.73879 0.0
O96 O 0.0474 0.95217 0.80345 0.0
O97 O 0.99383 0.97381 0.67682 0.0
O98 O 0.96131 0.0719 0.59643 0.0
O99 O 0.92509 0.03547 0.73455 0.0
O100 O 1.00114 1.00259 0.94262 0.0
O101 O 0.97233 0.06084 0.96015 0.0
O102 O 1.02047 0.10755 0.80441 0.0
O103 O 0.05703 0.08251 0.97359 0.0
H104 H 0.08419 0.92263 1.02695 0.0
H105 H 0.10393 0.85191 0.08711 0.0
H106 H 0.23449 0.88569 0.06698 0.0
H107 H 0.21428 0.95758 1.00418 0.0
H108 H 0.93828 0.13019 0.79017 0.0
H109 H 0.91009 0.19884 0.75184 0.0
H110 H 0.81668 0.14513 0.50046 0.0
H111 H 0.84753 0.0761 0.53608 0.0
Sm112 Sm 0.53438 0.06098 0.87252 0.0
Sm113 Sm 0.51765 0.99123 0.73298 0.0
C114 C 0.56542 0.12318 1.00972 0.0
C115 C 0.60328 0.14883 1.0117 0.0
C116 C 0.62193 0.15606 0.13048 0.0
C117 C 0.66131 0.17381 0.13709 0.0
C118 C 0.68393 0.18333 1.02401 0.0
C119 C 0.66378 0.17917 0.9045 0.0
C120 C 0.62355 0.16196 0.89833 0.0
C121 C 0.49715 0.08482 0.64482 0.0
C122 C 0.61052 1.02396 0.68515 0.0
C123 C 0.48585 0.92751 0.6021 0.0
C124 C 0.44453 0.90762 0.60114 0.0
C125 C 0.40896 0.93195 0.62382 0.0
C126 C 0.36945 0.91459 0.6124 0.0
C127 C 0.36447 0.87254 0.57478 0.0
C128 C 0.40019 0.84725 0.56125 0.0
C129 C 0.44011 0.86469 0.57586 0.0
C130 C 0.55092 0.96871 0.96915 0.0
C131 C 0.44178 0.0289 0.91784 0.0
O132 O 0.5704 0.08379 0.04005 0.0
O133 O 0.53952 0.12888 0.91502 0.0
O134 O 0.52608 0.05759 0.65398 0.0
O135 O 0.48449 0.09594 0.75815 0.0
O136 O 0.60122 0.0465 0.78825 0.0
O137 O 0.58104 1.0012 0.63213 0.0
O138 O 0.48761 0.96576 0.55764 0.0
O139 O 0.50709 0.92284 0.70746 0.0
O140 O 0.52258 0.99578 0.95149 0.0
O141 O 0.56629 0.95735 0.85897 0.0
O142 O 0.45059 1.00912 0.80912 0.0
O143 O 0.47218 0.04837 0.97782 0.0
H144 H 0.60745 0.14508 0.21852 0.0
H145 H 0.67557 0.17542 0.23128 0.0
H146 H 0.68045 0.18577 0.81581 0.0
H147 H 0.60965 0.15628 0.80506 0.0
H148 H 0.41156 0.96508 0.64327 0.0
H149 H 0.34289 0.93546 0.62122 0.0
H150 H 0.39718 0.81483 0.53252 0.0
H151 H 0.46743 0.8452 0.56194 0.0
Sm152 Sm 0.49564 0.53169 0.85445 0.0
Sm153 Sm 0.5613 0.5107 0.70256 0.0
C154 C 0.43544 0.56591 0.99523 0.0
C155 C 0.41266 0.60567 0.98774 0.0
C156 C 0.43329 0.64171 0.94526 0.0
C157 C 0.41441 0.68063 0.9573 0.0
C158 C 0.37469 0.68436 1.01515 0.0
C159 C 0.35189 0.64768 0.04145 0.0
C160 C 0.37089 0.60842 1.02791 0.0
C161 C 0.46712 0.50026 0.62156 0.0
C162 C 0.53435 0.60564 0.66569 0.0
C163 C 0.6186 0.47753 0.54936 0.0
C164 C 0.6434 0.43975 0.52545 0.0
C165 C 0.64208 0.42254 0.40214 0.0
C166 C 0.66228 0.38514 0.37574 0.0
C167 C 0.68365 0.36333 0.4733 0.0
C168 C 0.68714 0.3819 0.59559 0.0
C169 C 0.66722 0.42009 0.6215 0.0
C170 C 0.59106 0.54563 0.9276 0.0
C171 C 0.52299 0.43728 0.89512 0.0
O172 O 0.47507 0.56842 1.02442 0.0
O173 O 0.42825 0.53948 0.90282 0.0
O174 O 0.49596 0.52702 0.63484 0.0
O175 O 0.45672 0.48555 0.73324 0.0
O176 O 0.5157 0.59788 0.77696 0.0
O177 O 0.55095 0.57414 0.6022 0.0
O178 O 0.57852 0.47507 0.5271 0.0
O179 O 0.62774 0.50055 0.64874 0.0
O180 O 0.56215 0.51834 0.92187 0.0
O181 O 0.60143 0.55773 0.81303 0.0
O182 O 0.54247 0.44473 0.78484 0.0
O183 O 0.5055 0.46873 0.95633 0.0
H184 H 0.46522 0.64024 0.91193 0.0
H185 H 0.43328 0.70788 0.93537 0.0
H186 H 0.32089 0.64962 0.08266 0.0
H187 H 0.35392 0.58055 0.05571 0.0
H188 H 0.62407 0.43731 0.32656 0.0
H189 H 0.65794 0.37181 0.2809 0.0
H190 H 0.70284 0.36559 0.67294 0.0
H191 H 0.6688 0.4331 0.71763 0.0
Sm192 Sm 1.01255 0.49742 0.88376 0.0
Sm193 Sm 0.03127 0.5654 0.73606 0.0
C194 C 0.98011 0.43604 1.02453 0.0
C195 C 0.94038 0.41302 1.02311 0.0
C196 C 0.90363 0.43368 0.98833 0.0
C197 C 0.86522 0.41401 1.00242 0.0
C198 C 0.86253 0.37328 0.05424 0.0
C199 C 0.8997 0.35119 0.07797 0.0
C200 C 0.9385 0.3709 0.06113 0.0
C201 C 0.0454 0.47144 0.64913 0.0
C202 C 0.93821 0.53446 0.69336 0.0
C203 C 0.06247 0.62555 0.58954 0.0
C204 C 0.10017 0.65076 0.56908 0.0
C205 C 0.11749 0.65119 0.44565 0.0
C206 C 0.15498 0.6715 0.4223 0.0
C207 C 0.17684 0.69115 0.52302 0.0
C208 C 0.15832 0.69277 0.64599 0.0
C209 C 0.11998 0.6728 0.66888 0.0
C210 C 0.99435 0.59197 0.96294 0.0
C211 C 0.10611 0.5286 0.92329 0.0
O212 O 0.978 0.47556 0.05673 0.0
O213 O 1.00491 0.42954 0.92707 0.0
O214 O 1.01785 0.4995 0.66441 0.0
O215 O 0.06002 0.46052 0.76022 0.0
O216 O 0.94616 0.51479 0.80276 0.0
O217 O 0.96903 0.55346 0.63339 0.0
O218 O 0.06517 0.58583 0.56058 0.0
O219 O 0.03985 0.63285 0.69158 0.0
O220 O 1.02287 0.56427 0.9551 0.0
O221 O 0.98204 0.60248 0.84899 0.0
O222 O 0.0977 0.54875 0.81534 0.0
O223 O 0.0757 0.5088 0.98303 0.0
H224 H 0.90433 0.46601 0.95778 0.0
H225 H 0.83751 0.43254 0.98428 0.0
H226 H 0.89853 0.31974 0.11646 0.0
H227 H 0.96685 0.35403 0.08338 0.0
H228 H 0.10282 0.6343 0.36748 0.0
H229 H 0.16838 0.66851 0.32681 0.0
H230 H 0.17474 0.70701 0.72574 0.0
H231 H 0.10701 0.67287 0.76534 0.0
C232 C 0.18276 0.0612 0.42662 0.0
C233 C 0.17738 0.02718 0.34248 0.0
H234 H 0.15709 0.09699 0.58335 0.0
C235 C 0.13769 1.00797 0.33829 0.0
H236 H 0.21296 0.0763 0.43405 0.0
C237 C 0.10562 1.01975 0.42354 0.0
C238 C 0.11244 0.05079 0.51699 0.0
H239 H 0.13258 0.9812 0.27643 0.0
H240 H 0.07673 1.00208 0.42311 0.0
C241 C 0.1507 0.07281 0.51306 0.0
C242 C 0.4841 0.18772 0.46537 0.0
C243 C 0.50655 0.17989 0.35151 0.0
H244 H 0.46271 0.16353 0.64643 0.0
C245 C 0.51841 0.13827 0.32527 0.0
H246 H 0.47537 0.21946 0.49048 0.0
C247 C 0.51265 0.10629 0.41617 0.0
C248 C 0.49404 0.11503 0.53548 0.0
H249 H 0.53604 0.13125 0.23992 0.0
H250 H 0.52542 0.07551 0.39658 0.0
C251 C 0.47753 0.15556 0.55576 0.0
C252 C 0.40851 0.54015 0.33001 0.0
C253 C 0.36859 0.52236 0.34821 0.0
H254 H 0.47108 0.54681 0.40044 0.0
C255 C 0.36392 0.49127 0.44278 0.0
H256 H 0.41285 0.56501 0.26049 0.0
C257 C 0.39731 0.48124 0.52509 0.0
C258 C 0.43602 0.5022 0.51473 0.0
H259 H 0.33346 0.47768 0.46128 0.0
H260 H 0.39173 0.45942 0.60311 0.0
C261 C 0.44182 0.53011 0.4117 0.0
C262 C 1.00643 0.4115 0.35793 0.0
C263 C 0.028 0.37317 0.36882 0.0
H264 H 0.99543 0.47279 0.43552 0.0
C265 C 0.06054 0.37048 0.45885 0.0
H266 H 0.98055 0.41434 0.29183 0.0
C267 C 0.06862 0.40392 0.54362 0.0
C268 C 0.04442 0.44085 0.53997 0.0
H269 H 0.07718 0.34124 0.47162 0.0
H270 H 0.09188 0.39966 0.61791 0.0
C271 C 1.01468 0.44496 0.44161 0.0
C272 C 0.91286 0.03621 0.30869 0.0
C273 C 0.87676 1.01483 0.26832 0.0
H274 H 0.97505 0.0561 0.26122 0.0
C275 C 0.88039 0.98789 0.16154 0.0
H276 H 0.91058 0.05903 0.38499 0.0
C277 C 0.91767 0.98645 0.08863 0.0
C278 C 0.95186 1.01213 0.12088 0.0
H279 H 0.85291 0.97222 0.12471 0.0
H280 H 0.91784 0.96933 0.9986 0.0
C281 C 0.94981 0.03509 0.23575 0.0
C282 C 0.5629 0.86779 0.16111 0.0
C283 C 0.53076 0.87208 0.25287 0.0
H284 H 0.59489 0.89524 0.99952 0.0
C285 C 0.51118 0.91146 0.26486 0.0
H286 H 0.57811 0.8378 0.14762 0.0
C287 C 0.52057 0.94432 0.18003 0.0
C288 C 0.5496 0.93866 0.07964 0.0
H289 H 0.48569 0.91561 0.33241 0.0
H290 H 0.5026 0.973 0.18684 0.0
C291 C 0.57219 0.90071 0.07532 0.0
C292 C 0.64345 0.52812 0.25058 0.0
C293 C 0.68572 0.53586 0.2215 0.0
H294 H 0.58029 0.52427 0.18166 0.0
C295 C 0.69531 0.55352 0.10122 0.0
H296 H 0.63518 0.51465 0.34149 0.0
C297 C 0.66379 0.5599 1.0093 0.0
C298 C 0.62206 0.54782 0.03448 0.0
H299 H 0.72759 0.55894 0.07406 0.0
H300 H 0.67281 0.57124 0.91494 0.0
C301 C 0.61201 0.53349 0.15828 0.0
C302 C 1.01138 0.64469 0.28642 0.0
C303 C 1.00141 0.68671 0.25936 0.0
H304 H 1.01786 0.58181 0.21507 0.0
C305 C 0.98207 0.69548 0.14134 0.0
H306 H 0.02643 0.63696 0.37517 0.0
C307 C 0.97648 0.66372 0.04908 0.0
C308 C 0.99097 0.62256 0.07151 0.0
H309 H 0.97494 0.72754 0.11544 0.0
H310 H 0.96393 0.67231 0.95611 0.0
C311 C 1.00674 0.61307 0.1937 0.0
C312 C 0.88287 0.24425 0.32786 0.0
C313 C 0.90886 0.27398 0.38662 0.0
H314 H 0.84862 0.18846 0.35517 0.0
C315 C 0.90283 0.28216 0.51867 0.0
H316 H 0.88423 0.23905 0.22489 0.0
C317 C 0.87859 0.25505 0.59362 0.0
C318 C 0.86263 0.21809 0.53884 0.0
H319 H 0.92074 0.30592 0.56805 0.0
H320 H 0.87806 0.25964 0.69689 0.0
C321 C 0.8609 0.21569 0.40348 0.0
C322 C 0.29534 0.8727 0.30548 0.0
C323 C 0.26677 0.90107 0.36049 0.0
H324 H 0.35122 0.83848 0.33852 0.0
C325 C 0.25924 0.89848 0.49403 0.0
H326 H 0.30001 0.87159 0.20221 0.0
C327 C 0.28734 0.87695 0.57224 0.0
C328 C 0.324 0.86054 0.51703 0.0
H329 H 0.23635 0.91829 0.54088 0.0
H330 H 0.28532 0.88154 0.67545 0.0
C331 C 0.32427 0.85255 0.38415 0.0
C332 C 0.64005 0.26199 0.47926 0.0
C333 C 0.63912 0.25803 0.34452 0.0
H334 H 0.66072 0.29989 0.63479 0.0
C335 C 0.6721 0.27512 0.27218 0.0
H336 H 0.61591 0.24807 0.53885 0.0
C337 C 0.69922 0.3037 0.32945 0.0
C338 C 0.69027 0.3178 0.45482 0.0
H339 H 0.67311 0.27127 0.16858 0.0
H340 H 0.71963 0.32167 0.26716 0.0
C341 C 0.66639 0.2916 0.5351 0.0
C342 C 0.26505 0.68392 0.31805 0.0
C343 C 0.28247 0.64965 0.38301 0.0
H344 H 0.21823 0.73074 0.32319 0.0
C345 C 0.27828 0.64736 0.51748 0.0
H346 H 0.26883 0.68723 0.21489 0.0
C347 C 0.24839 0.67212 0.57927 0.0
C348 C 0.22229 0.69781 0.50478 0.0
H349 H 0.29241 0.62196 0.57099 0.0
H350 H 0.23999 0.66413 0.67738 0.0
C351 C 0.2363 0.70946 0.38136 0.0
C352 C 0.16185 0.79265 0.34176 0.0
C353 C 0.13333 0.7659 0.27969 0.0
H354 H 0.19987 0.84691 0.31886 0.0
C355 C 0.13808 0.7597 0.14601 0.0
H356 H 0.16162 0.7959 0.44553 0.0
C357 C 0.16229 0.78753 0.07409 0.0
C358 C 0.18007 0.82227 0.13538 0.0
H359 H 0.1182 0.73841 0.09338 0.0
H360 H 0.1593 0.78709 0.9702 0.0
C361 C 0.18512 0.82113 0.26921 0.0
C362 C 0.77775 0.12493 0.03679 0.0
C363 C 0.78438 0.1326 0.16815 0.0
H364 H 0.74005 0.14001 0.8752 0.0
C365 C 0.77247 0.17125 0.22027 0.0
H366 H 0.7878 0.09576 0.9933 0.0
C367 C 0.74793 0.1984 0.14783 0.0
C368 C 0.7302 0.18363 0.03279 0.0
H369 H 0.77758 0.17819 0.3209 0.0
H370 H 0.73487 0.22533 0.196 0.0
C371 C 0.7509 0.15094 0.96794 0.0
C372 C 0.4017 0.78952 0.10978 0.0
C373 C 0.40646 0.78045 0.24171 0.0
H374 H 0.38208 0.76565 0.9278 0.0
C375 C 0.37985 0.75038 0.29699 0.0
H376 H 0.42001 0.81365 0.06308 0.0
C377 C 0.36003 0.72143 0.21782 0.0
C378 C 0.3651 0.72397 0.08359 0.0
H379 H 0.38025 0.74455 0.3997 0.0
H380 H 0.34853 0.69315 0.2625 0.0
C381 C 0.37969 0.76183 0.03123 0.0
C382 C 0.79203 0.37608 0.32167 0.0
C383 C 0.76361 0.40318 0.26037 0.0
H384 H 0.84873 0.34185 0.29687 0.0
C385 C 0.75641 0.39675 0.12787 0.0
H386 H 0.79574 0.37667 0.4252 0.0
C387 C 0.78523 0.37393 0.05501 0.0
C388 C 0.82228 0.36037 0.11363 0.0
H389 H 0.73326 0.4145 0.07566 0.0
H390 H 0.78333 0.37578 0.95102 0.0
C391 C 0.82192 0.35491 0.24785 0.0
C392 C 0.05289 0.20307 0.16033 0.0
C393 C 0.02839 0.23524 0.10699 0.0
H394 H 0.07616 0.14018 0.14167 0.0
C395 C 1.01173 0.22885 0.98322 0.0
H396 H 0.06494 0.20629 0.2571 0.0
C397 C 1.01767 0.19078 0.91726 0.0
C398 C 0.0401 0.15758 0.97366 0.0
H399 H 0.99157 0.25237 0.94105 0.0
H400 H 1.00266 0.18663 0.8249 0.0
C401 C 0.05876 0.16485 0.09453 0.0
C402 C 0.32625 1.00161 0.97112 0.0
C403 C 0.3179 1.01837 0.09401 0.0
H404 H 0.37089 0.99193 0.81947 0.0
C405 C 0.34972 0.04159 0.15399 0.0
H406 H 0.30294 0.98249 0.92381 0.0
C407 C 0.38929 0.04638 0.09498 0.0
C408 C 0.39829 0.02785 0.97452 0.0
H409 H 0.34494 0.05368 0.25034 0.0
H410 H 0.4134 0.06312 0.14662 0.0
C411 C 0.36563 1.00648 0.91206 0.0
C412 C 0.5025 0.34621 0.12877 0.0
C413 C 0.52638 0.31365 0.07456 0.0
H414 H 0.48284 0.41044 0.1161 0.0
C415 C 0.54615 0.32118 0.95514 0.0
H416 H 0.48795 0.34202 0.22224 0.0
C417 C 0.54372 0.36055 0.8946 0.0
C418 C 0.52179 0.39392 0.95222 0.0
H419 H 0.56569 0.2972 0.91219 0.0
H420 H 0.56066 0.36529 0.80529 0.0
C421 C 0.50022 0.38574 0.06853 0.0
C422 C 0.19866 0.51149 0.15223 0.0
C423 C 0.22929 0.53831 0.10043 0.0
H424 H 0.13602 0.48747 0.13832 0.0
C425 C 0.22009 0.55921 0.98444 0.0
H426 H 0.20414 0.49592 0.24323 0.0
C427 C 0.18096 0.55474 0.92458 0.0
C428 C 0.14942 0.52961 0.97964 0.0
H429 H 0.24252 0.58094 0.94362 0.0
H430 H 0.17487 0.57253 0.8379 0.0
C431 C 0.15929 0.5072 0.09275 0.0
C432 C 0.99303 0.85216 0.49109 0.0
C433 C 1.01691 0.81943 0.54385 0.0
H434 H 0.97446 0.91681 0.50432 0.0
C435 C 0.03694 0.82675 0.66242 0.0
H436 H 0.97825 0.84813 0.39832 0.0
C437 C 0.03577 0.86631 0.72158 0.0
C438 C 1.01422 0.89993 0.66478 0.0
H439 H 0.05635 0.80259 0.7045 0.0
H440 H 0.0534 0.87097 0.8092 0.0
C441 C 0.99147 0.89182 0.5512 0.0
C442 C 0.72239 0.05899 0.60301 0.0
C443 C 0.73305 0.03317 0.49762 0.0
H444 H 0.67637 0.07628 0.74489 0.0
C445 C 0.70414 1.00228 0.46067 0.0
H446 H 0.7434 0.0838 0.63219 0.0
C447 C 0.6651 0.99847 0.5237 0.0
C448 C 0.65375 1.02535 0.62614 0.0
H449 H 0.71066 0.98269 0.37787 0.0
H450 H 0.64321 0.97524 0.48912 0.0
C451 C 0.68361 0.05492 0.66692 0.0
C452 C 0.54479 0.69615 0.42443 0.0
C453 C 0.52685 0.72992 0.49196 0.0
H454 H 0.56126 0.63089 0.42517 0.0
C455 C 0.51486 0.72326 0.62093 0.0
H456 H 0.55291 0.69968 0.32367 0.0
C457 C 0.51908 0.68366 0.67904 0.0
C458 C 0.53482 0.64916 0.60943 0.0
H459 H 0.49968 0.74814 0.67445 0.0
H460 H 0.50845 0.67982 0.77721 0.0
C461 C 0.54891 0.65643 0.48241 0.0
C462 C 0.84867 0.54722 0.45162 0.0
C463 C 0.81648 0.52367 0.50901 0.0
H464 H 0.9121 0.56899 0.46367 0.0
C465 C 0.82348 0.50707 0.63277 0.0
H466 H 0.84482 0.55944 0.35513 0.0
C467 C 0.86215 0.51206 0.69471 0.0
C468 C 0.89532 0.53349 0.63444 0.0
H469 H 0.79968 0.48802 0.67866 0.0
H470 H 0.86646 0.49757 0.78772 0.0
C471 C 0.88753 0.55211 0.51349 0.0
loop_
_geom_bond_atom_site_label_1
_geom_bond_atom_site_label_2
_geom_bond_distance
_geom_bond_site_symmetry_2
_ccdc_geom_bond_type
H0 C3 0.931 . S
H1 C6 0.928 . S
H2 C8 0.930 . S
C3 H0 0.931 . S
C3 C4 1.413 . S
C3 C5 1.360 . S
C4 C3 1.413 . S
C4 C8 1.429 . S
C5 C3 1.360 . S
C5 C6 1.372 . S
C6 H1 0.928 . S
C6 C5 1.372 . S
C6 C7 1.404 . S
C7 C6 1.404 . S
C7 C8 1.391 . S
C8 H2 0.930 . S
C8 C4 1.429 . S
C8 C7 1.391 . S
H9 C12 0.931 . S
H10 C15 0.928 . S
H11 C17 0.930 . S
C12 H9 0.931 . S
C12 C13 1.413 . S
C12 C14 1.360 . S
C13 C12 1.413 . S
C13 C17 1.429 1_655 S
C14 C12 1.360 . S
C14 C15 1.372 . S
C15 H10 0.928 . S
C15 C14 1.372 . S
C15 C16 1.404 . S
C16 C15 1.404 . S
C16 C17 1.390 1_655 S
C17 H11 0.930 . S
C17 C13 1.429 1_455 S
C17 C16 1.390 1_455 S
H18 C21 0.931 . S
H19 C24 0.928 . S
H20 C26 0.929 . S
C21 H18 0.931 . S
C21 C22 1.413 . S
C21 C23 1.360 . S
C22 C21 1.413 . S
C22 C26 1.429 1_565 S
C23 C21 1.360 . S
C23 C24 1.372 . S
C24 H19 0.928 . S
C24 C23 1.372 . S
C24 C25 1.405 . S
C25 C24 1.405 . S
C25 C26 1.390 1_565 S
C26 H20 0.929 . S
C26 C22 1.429 1_545 S
C26 C25 1.390 1_545 S
H27 C30 0.931 . S
H28 C33 0.928 . S
H29 C35 0.930 . S
C30 H27 0.931 . S
C30 C31 1.413 . S
C30 C32 1.360 . S
C31 C30 1.413 . S
C31 C35 1.429 . S
C32 C30 1.360 . S
C32 C33 1.372 . S
C33 H28 0.928 . S
C33 C32 1.372 . S
C33 C34 1.404 . S
C34 C33 1.404 . S
C34 C35 1.391 . S
C35 H29 0.930 . S
C35 C31 1.429 . S
C35 C34 1.391 . S
H36 C39 0.931 1_556 S
H37 C42 0.928 . S
H38 C44 0.930 . S
C39 H36 0.931 1_554 S
C39 C40 1.413 1_554 S
C39 C41 1.360 . S
C40 C39 1.413 1_556 S
C40 C44 1.429 . S
C41 C39 1.360 . S
C41 C42 1.372 . S
C42 H37 0.928 . S
C42 C41 1.372 . S
C42 C43 1.404 . S
C43 C42 1.404 . S
C43 C44 1.391 1_554 S
C44 H38 0.930 . S
C44 C40 1.429 . S
C44 C43 1.391 1_556 S
H45 C48 0.930 1_556 S
H46 C51 0.928 . S
H47 C53 0.930 . S
C48 H45 0.930 1_554 S
C48 C49 1.413 1_554 S
C48 C50 1.360 . S
C49 C48 1.413 1_556 S
C49 C53 1.429 1_655 S
C50 C48 1.360 . S
C50 C51 1.372 . S
C51 H46 0.928 . S
C51 C50 1.372 . S
C51 C52 1.404 . S
C52 C51 1.404 . S
C52 C53 1.391 1_654 S
C53 H47 0.930 . S
C53 C49 1.429 1_455 S
C53 C52 1.391 1_456 S
H54 C57 0.931 1_556 S
H55 C60 0.928 . S
H56 C62 0.930 . S
C57 H54 0.931 1_554 S
C57 C58 1.413 1_554 S
C57 C59 1.360 . S
C58 C57 1.413 1_556 S
C58 C62 1.429 1_565 S
C59 C57 1.360 . S
C59 C60 1.372 . S
C60 H55 0.928 . S
C60 C59 1.372 . S
C60 C61 1.404 . S
C61 C60 1.404 . S
C61 C62 1.391 1_564 S
C62 H56 0.930 . S
C62 C58 1.429 1_545 S
C62 C61 1.391 1_546 S
H63 C66 0.931 1_556 S
H64 C69 0.928 . S
H65 C71 0.930 . S
C66 H63 0.931 1_554 S
C66 C67 1.413 . S
C66 C68 1.360 1_554 S
C67 C66 1.413 . S
C67 C71 1.429 . S
C68 C66 1.360 1_556 S
C68 C69 1.372 . S
C69 H64 0.928 . S
C69 C68 1.372 . S
C69 C70 1.404 1_556 S
C70 C69 1.404 1_554 S
C70 C71 1.391 . S
C71 H65 0.930 . S
C71 C67 1.429 . S
C71 C70 1.391 . S
Sm72 C74 2.846 1_556 S
Sm72 O92 2.543 1_556 S
Sm72 O93 2.450 . S
Sm72 O94 2.681 1_565 S
Sm72 O95 2.464 . S
Sm72 O96 2.396 . S
Sm72 O100 2.386 1_455 S
Sm72 O103 2.408 1_565 S
Sm73 C83 2.846 . S
Sm73 O94 2.386 1_655 S
Sm73 O97 2.408 1_545 S
Sm73 O98 2.543 . S
Sm73 O99 2.450 . S
Sm73 O100 2.681 1_545 S
Sm73 O101 2.464 . S
Sm73 O102 2.396 . S
C74 Sm72 2.846 1_554 S
C74 C75 1.506 . S
C74 O92 1.261 . S
C74 O93 1.242 1_554 S
C75 C74 1.506 . S
C75 C76 1.358 . S
C75 C80 1.382 . S
C76 C75 1.358 . S
C76 C77 1.385 . S
C76 H104 0.930 . S
C77 C76 1.385 . S
C77 C78 1.395 . S
C77 H105 0.929 . S
C78 C77 1.395 . S
C78 C79 1.335 . S
C79 C78 1.335 . S
C79 C80 1.398 . S
C79 H106 0.930 . S
C80 C75 1.382 . S
C80 C79 1.398 . S
C80 H107 0.929 . S
C81 O94 1.271 1_565 S
C81 O95 1.251 . S
C82 O96 1.252 1_655 S
C82 O97 1.272 . S
C83 Sm73 2.846 . S
C83 C84 1.506 . S
C83 O98 1.261 . S
C83 O99 1.242 . S
C84 C83 1.506 . S
C84 C85 1.358 . S
C84 C89 1.382 . S
C85 C84 1.358 . S
C85 C86 1.385 . S
C85 H108 0.930 . S
C86 C85 1.385 . S
C86 C87 1.395 . S
C86 H109 0.929 . S
C87 C86 1.395 . S
C87 C88 1.335 . S
C88 C87 1.335 . S
C88 C89 1.398 . S
C88 H110 0.930 . S
C89 C84 1.382 . S
C89 C88 1.398 . S
C89 H111 0.929 . S
C90 O100 1.271 1_545 S
C90 O101 1.251 . S
C91 O102 1.252 1_455 S
C91 O103 1.272 . S
O92 Sm72 2.543 1_554 S
O92 C74 1.261 . S
O93 Sm72 2.450 . S
O93 C74 1.242 1_556 S
O94 Sm72 2.681 1_545 S
O94 Sm73 2.386 1_455 S
O94 C81 1.271 1_545 S
O95 Sm72 2.464 . S
O95 C81 1.251 . S
O96 Sm72 2.396 . S
O96 C82 1.252 1_455 S
O97 Sm73 2.408 1_565 S
O97 C82 1.272 . S
O98 Sm73 2.543 . S
O98 C83 1.261 . S
O99 Sm73 2.450 . S
O99 C83 1.242 . S
O100 Sm72 2.386 1_655 S
O100 Sm73 2.681 1_565 S
O100 C90 1.271 1_565 S
O101 Sm73 2.464 . S
O101 C90 1.251 . S
O102 Sm73 2.396 . S
O102 C91 1.252 1_655 S
O103 Sm72 2.408 1_545 S
O103 C91 1.272 . S
H104 C76 0.930 . S
H105 C77 0.929 . S
H106 C79 0.930 . S
H107 C80 0.929 . S
H108 C85 0.930 . S
H109 C86 0.929 . S
H110 C88 0.930 . S
H111 C89 0.929 . S
Sm112 C114 2.846 1_556 S
Sm112 O132 2.543 1_556 S
Sm112 O133 2.450 . S
Sm112 O134 2.681 . S
Sm112 O135 2.464 . S
Sm112 O136 2.396 . S
Sm112 O140 2.386 1_545 S
Sm112 O143 2.408 . S
Sm113 C123 2.846 . S
Sm113 O134 2.386 1_565 S
Sm113 O137 2.408 . S
Sm113 O138 2.543 . S
Sm113 O139 2.450 . S
Sm113 O140 2.681 . S
Sm113 O141 2.464 . S
Sm113 O142 2.396 . S
C114 Sm112 2.846 1_554 S
C114 C115 1.506 . S
C114 O132 1.261 . S
C114 O133 1.242 1_554 S
C115 C114 1.506 . S
C115 C116 1.358 . S
C115 C120 1.382 . S
C116 C115 1.358 . S
C116 C117 1.385 . S
C116 H144 0.927 1_545 S
C117 C116 1.385 . S
C117 C118 1.395 . S
C117 H145 0.929 . S
C118 C117 1.395 . S
C118 C119 1.335 . S
C119 C118 1.335 . S
C119 C120 1.398 . S
C119 H146 0.930 . S
C120 C115 1.382 . S
C120 C119 1.398 . S
C120 H147 0.929 . S
C121 O134 1.271 . S
C121 O135 1.251 . S
C122 O136 1.252 1_565 S
C122 O137 1.272 . S
C123 Sm113 2.846 . S
C123 C124 1.506 . S
C123 O138 1.261 . S
C123 O139 1.242 . S
C124 C123 1.506 . S
C124 C125 1.358 . S
C124 C129 1.382 . S
C125 C124 1.358 . S
C125 C126 1.385 . S
C125 H148 0.920 1_565 S
C126 C125 1.385 . S
C126 C127 1.395 . S
C126 H149 0.929 . S
C127 C126 1.395 . S
C127 C128 1.335 . S
C128 C127 1.335 . S
C128 C129 1.398 . S
C128 H150 0.930 . S
C129 C124 1.382 . S
C129 C128 1.398 . S
C129 H151 0.929 . S
C130 O140 1.271 . S
C130 O141 1.251 . S
C131 O142 1.252 1_545 S
C131 O143 1.272 . S
O132 Sm112 2.543 1_554 S
O132 C114 1.261 . S
O133 Sm112 2.450 . S
O133 C114 1.242 1_556 S
O134 Sm112 2.681 . S
O134 Sm113 2.386 1_545 S
O134 C121 1.271 . S
O135 Sm112 2.464 . S
O135 C121 1.251 . S
O136 Sm112 2.396 . S
O136 C122 1.252 1_545 S
O137 Sm113 2.408 . S
O137 C122 1.272 . S
O138 Sm113 2.543 . S
O138 C123 1.261 . S
O139 Sm113 2.450 . S
O139 C123 1.242 . S
O140 Sm112 2.386 1_565 S
O140 Sm113 2.681 . S
O140 C130 1.271 . S
O141 Sm113 2.464 . S
O141 C130 1.251 . S
O142 Sm113 2.396 . S
O142 C131 1.252 1_565 S
O143 Sm112 2.408 . S
O143 C131 1.272 . S
H144 C116 0.927 1_565 S
H145 C117 0.929 . S
H146 C119 0.930 . S
H147 C120 0.929 . S
H148 C125 0.920 1_545 S
H149 C126 0.929 . S
H150 C128 0.930 . S
H151 C129 0.929 . S
Sm152 C154 2.846 1_556 S
Sm152 O172 2.543 1_556 S
Sm152 O173 2.450 . S
Sm152 O174 2.681 . S
Sm152 O175 2.464 . S
Sm152 O176 2.396 . S
Sm152 O180 2.386 . S
Sm152 O183 2.408 . S
Sm153 C163 2.846 . S
Sm153 O174 2.386 . S
Sm153 O177 2.408 . S
Sm153 O178 2.543 . S
Sm153 O179 2.450 . S
Sm153 O180 2.681 . S
Sm153 O181 2.464 . S
Sm153 O182 2.396 . S
C154 Sm152 2.846 1_554 S
C154 C155 1.506 . S
C154 O172 1.261 . S
C154 O173 1.242 1_554 S
C155 C154 1.506 . S
C155 C156 1.358 . S
C155 C160 1.382 . S
C156 C155 1.358 . S
C156 C157 1.385 . S
C156 H184 0.930 . S
C157 C156 1.385 . S
C157 C158 1.395 . S
C157 H185 0.929 . S
C158 C157 1.395 . S
C158 C159 1.335 . S
C159 C158 1.335 . S
C159 C160 1.398 . S
C159 H186 0.930 . S
C160 C155 1.382 . S
C160 C159 1.398 . S
C160 H187 0.929 . S
C161 O174 1.271 . S
C161 O175 1.251 . S
C162 O176 1.252 . S
C162 O177 1.272 . S
C163 Sm153 2.846 . S
C163 C164 1.506 . S
C163 O178 1.261 . S
C163 O179 1.242 . S
C164 C163 1.506 . S
C164 C165 1.358 . S
C164 C169 1.382 . S
C165 C164 1.358 . S
C165 C166 1.385 . S
C165 H188 0.930 . S
C166 C165 1.385 . S
C166 C167 1.395 . S
C166 H189 0.929 . S
C167 C166 1.395 . S
C167 C168 1.335 . S
C168 C167 1.335 . S
C168 C169 1.398 . S
C168 H190 0.930 . S
C169 C164 1.382 . S
C169 C168 1.398 . S
C169 H191 0.929 . S
C170 O180 1.271 . S
C170 O181 1.251 . S
C171 O182 1.252 . S
C171 O183 1.272 . S
O172 Sm152 2.543 1_554 S
O172 C154 1.261 . S
O173 Sm152 2.450 . S
O173 C154 1.242 1_556 S
O174 Sm152 2.681 . S
O174 Sm153 2.386 . S
O174 C161 1.271 . S
O175 Sm152 2.464 . S
O175 C161 1.251 . S
O176 Sm152 2.396 . S
O176 C162 1.252 . S
O177 Sm153 2.408 . S
O177 C162 1.272 . S
O178 Sm153 2.543 . S
O178 C163 1.261 . S
O179 Sm153 2.450 . S
O179 C163 1.242 . S
O180 Sm152 2.386 . S
O180 Sm153 2.681 . S
O180 C170 1.271 . S
O181 Sm153 2.464 . S
O181 C170 1.251 . S
O182 Sm153 2.396 . S
O182 C171 1.252 . S
O183 Sm152 2.408 . S
O183 C171 1.272 . S
H184 C156 0.930 . S
H185 C157 0.929 . S
H186 C159 0.930 . S
H187 C160 0.929 . S
H188 C165 0.930 . S
H189 C166 0.929 . S
H190 C168 0.930 . S
H191 C169 0.929 . S
Sm192 C194 2.846 1_556 S
Sm192 O212 2.543 1_556 S
Sm192 O213 2.450 . S
Sm192 O214 2.681 1_655 S
Sm192 O215 2.464 . S
Sm192 O216 2.396 . S
Sm192 O220 2.386 . S
Sm192 O223 2.408 1_655 S
Sm193 C203 2.846 . S
Sm193 O214 2.386 . S
Sm193 O217 2.408 1_455 S
Sm193 O218 2.543 . S
Sm193 O219 2.450 . S
Sm193 O220 2.681 1_455 S
Sm193 O221 2.464 . S
Sm193 O222 2.396 . S
C194 Sm192 2.846 1_554 S
C194 C195 1.506 . S
C194 O212 1.261 . S
C194 O213 1.242 1_554 S
C195 C194 1.506 . S
C195 C196 1.358 . S
C195 C200 1.382 . S
C196 C195 1.358 . S
C196 C197 1.385 . S
C196 H224 0.930 . S
C197 C196 1.385 . S
C197 C198 1.395 . S
C197 H225 0.929 . S
C198 C197 1.395 . S
C198 C199 1.335 . S
C199 C198 1.335 . S
C199 C200 1.398 . S
C199 H226 0.930 . S
C200 C195 1.382 . S
C200 C199 1.398 . S
C200 H227 0.929 . S
C201 O214 1.271 1_655 S
C201 O215 1.252 . S
C202 O216 1.252 . S
C202 O217 1.272 . S
C203 Sm193 2.846 . S
C203 C204 1.506 . S
C203 O218 1.261 . S
C203 O219 1.242 . S
C204 C203 1.506 . S
C204 C205 1.358 . S
C204 C209 1.382 . S
C205 C204 1.358 . S
C205 C206 1.385 . S
C205 H228 0.930 . S
C206 C205 1.385 . S
C206 C207 1.395 . S
C206 H229 0.929 . S
C207 C206 1.395 . S
C207 C208 1.335 . S
C208 C207 1.335 . S
C208 C209 1.398 . S
C208 H230 0.930 . S
C209 C204 1.382 . S
C209 C208 1.398 . S
C209 H231 0.929 . S
C210 O220 1.269 1_455 S
C210 O221 1.254 . S
C211 O222 1.252 . S
C211 O223 1.272 . S
O212 Sm192 2.543 1_554 S
O212 C194 1.261 . S
O213 Sm192 2.450 . S
O213 C194 1.242 1_556 S
O214 Sm192 2.681 1_455 S
O214 Sm193 2.386 . S
O214 C201 1.271 1_455 S
O215 Sm192 2.464 . S
O215 C201 1.252 . S
O216 Sm192 2.396 . S
O216 C202 1.252 . S
O217 Sm193 2.408 1_655 S
O217 C202 1.272 . S
O218 Sm193 2.543 . S
O218 C203 1.261 . S
O219 Sm193 2.450 . S
O219 C203 1.242 . S
O220 Sm192 2.386 . S
O220 Sm193 2.681 1_655 S
O220 C210 1.269 1_655 S
O221 Sm193 2.464 . S
O221 C210 1.254 . S
O222 Sm193 2.396 . S
O222 C211 1.252 . S
O223 Sm192 2.408 1_455 S
O223 C211 1.272 . S
H224 C196 0.930 . S
H225 C197 0.929 . S
H226 C199 0.930 . S
H227 C200 0.929 . S
H228 C205 0.930 . S
H229 C206 0.929 . S
H230 C208 0.930 . S
H231 C209 0.929 . S
C232 C233 1.389 . S
C232 H236 0.950 . S
C232 C241 1.390 . S
C233 C232 1.389 . S
C233 C235 1.386 1_545 S
H234 C241 0.950 . S
C235 C233 1.386 1_565 S
C235 C237 1.390 . S
C235 H239 0.950 . S
H236 C232 0.950 . S
C237 C235 1.390 . S
C237 C238 1.384 1_565 S
C237 H240 0.950 . S
C238 C237 1.384 1_545 S
C238 C241 1.391 . S
H239 C235 0.950 . S
H240 C237 0.950 . S
C241 C232 1.390 . S
C241 H234 0.950 . S
C241 C238 1.391 . S
C242 C243 1.387 . S
C242 H246 0.950 . S
C242 C251 1.390 . S
C243 C242 1.387 . S
C243 C245 1.387 . S
H244 C251 0.950 . S
C245 C243 1.387 . S
C245 C247 1.390 . S
C245 H249 0.950 . S
H246 C242 0.950 . S
C247 C245 1.390 . S
C247 C248 1.387 . S
C247 H250 0.950 . S
C248 C247 1.387 . S
C248 C251 1.387 . S
H249 C245 0.950 . S
H250 C247 0.950 . S
C251 C242 1.390 . S
C251 H244 0.950 . S
C251 C248 1.387 . S
C252 C253 1.387 . S
C252 H256 0.950 . S
C252 C261 1.390 . S
C253 C252 1.387 . S
C253 C255 1.387 . S
H254 C261 0.950 . S
C255 C253 1.387 . S
C255 C257 1.390 . S
C255 H259 0.950 . S
H256 C252 0.950 . S
C257 C255 1.390 . S
C257 C258 1.387 . S
C257 H260 0.950 . S
C258 C257 1.387 . S
C258 C261 1.387 . S
H259 C255 0.950 . S
H260 C257 0.950 . S
C261 C252 1.390 . S
C261 H254 0.950 . S
C261 C258 1.387 . S
C262 C263 1.387 1_655 S
C262 H266 0.950 . S
C262 C271 1.390 . S
C263 C262 1.387 1_455 S
C263 C265 1.387 . S
H264 C271 0.950 . S
C265 C263 1.387 . S
C265 C267 1.390 . S
C265 H269 0.950 . S
H266 C262 0.950 . S
C267 C265 1.390 . S
C267 C268 1.387 . S
C267 H270 0.950 . S
C268 C267 1.387 . S
C268 C271 1.387 1_455 S
H269 C265 0.950 . S
H270 C267 0.950 . S
C271 C262 1.390 . S
C271 H264 0.950 . S
C271 C268 1.387 1_655 S
C272 C273 1.386 . S
C272 H276 0.950 . S
C272 C281 1.390 . S
C273 C272 1.386 . S
C273 C275 1.389 1_545 S
H274 C281 0.950 . S
C275 C273 1.389 1_565 S
C275 C277 1.390 . S
C275 H279 0.950 . S
H276 C272 0.950 . S
C277 C275 1.390 . S
C277 C278 1.385 . S
C277 H280 0.950 . S
C278 C277 1.385 . S
C278 C281 1.390 1_565 S
H279 C275 0.950 . S
H280 C277 0.950 . S
C281 C272 1.390 . S
C281 H274 0.950 . S
C281 C278 1.390 1_545 S
C282 C283 1.387 . S
C282 H286 0.950 . S
C282 C291 1.390 . S
C283 C282 1.387 . S
C283 C285 1.387 . S
H284 C291 0.950 . S
C285 C283 1.387 . S
C285 C287 1.390 . S
C285 H289 0.950 . S
H286 C282 0.950 . S
C287 C285 1.390 . S
C287 C288 1.387 . S
C287 H290 0.950 . S
C288 C287 1.387 . S
C288 C291 1.387 . S
H289 C285 0.950 . S
H290 C287 0.950 . S
C291 C282 1.390 . S
C291 H284 0.950 . S
C291 C288 1.387 . S
C292 C293 1.387 . S
C292 H296 0.950 . S
C292 C301 1.390 . S
C293 C292 1.387 . S
C293 C295 1.387 . S
H294 C301 0.950 . S
C295 C293 1.387 . S
C295 C297 1.390 . S
C295 H299 0.950 . S
H296 C292 0.950 . S
C297 C295 1.390 . S
C297 C298 1.387 . S
C297 H300 0.950 . S
C298 C297 1.387 . S
C298 C301 1.387 . S
H299 C295 0.950 . S
H300 C297 0.950 . S
C301 C292 1.390 . S
C301 H294 0.950 . S
C301 C298 1.387 . S
C302 C303 1.363 1_455 S
C302 H306 0.950 . S
C302 C311 1.390 . S
C303 C302 1.363 1_655 S
C303 C305 1.413 . S
H304 C311 0.950 . S
C305 C303 1.413 . S
C305 C307 1.390 . S
C305 H309 0.950 . S
H306 C302 0.950 . S
C307 C305 1.390 . S
C307 C308 1.387 . S
C307 H310 0.950 . S
C308 C307 1.387 . S
C308 C311 1.387 1_655 S
H309 C305 0.950 . S
H310 C307 0.950 . S
C311 C302 1.390 . S
C311 H304 0.950 . S
C311 C308 1.387 1_455 S
C312 C313 1.387 . S
C312 H316 0.950 . S
C312 C321 1.390 . S
C313 C312 1.387 . S
C313 C315 1.387 . S
H314 C321 0.950 . S
C315 C313 1.387 . S
C315 C317 1.390 . S
C315 H319 0.950 . S
H316 C312 0.950 . S
C317 C315 1.390 . S
C317 C318 1.387 . S
C317 H320 0.950 . S
C318 C317 1.387 . S
C318 C321 1.387 . S
H319 C315 0.950 . S
H320 C317 0.950 . S
C321 C312 1.390 . S
C321 H314 0.950 . S
C321 C318 1.387 . S
C322 C323 1.387 . S
C322 H326 0.950 . S
C322 C331 1.390 . S
C323 C322 1.387 . S
C323 C325 1.388 . S
H324 C331 0.950 . S
C325 C323 1.388 . S
C325 C327 1.392 . S
C325 H329 0.948 1_565 S
H326 C322 0.950 . S
C327 C325 1.392 . S
C327 C328 1.387 . S
C327 H330 0.950 . S
C328 C327 1.387 . S
C328 C331 1.387 . S
H329 C325 0.948 1_545 S
H330 C327 0.950 . S
C331 C322 1.390 . S
C331 H324 0.950 . S
C331 C328 1.387 . S
C332 C333 1.387 . S
C332 H336 0.950 . S
C332 C341 1.390 . S
C333 C332 1.387 . S
C333 C335 1.387 . S
H334 C341 0.950 . S
C335 C333 1.387 . S
C335 C337 1.390 . S
C335 H339 0.950 . S
H336 C332 0.950 . S
C337 C335 1.390 . S
C337 C338 1.387 . S
C337 H340 0.950 . S
C338 C337 1.387 . S
C338 C341 1.387 . S
H339 C335 0.950 . S
H340 C337 0.950 . S
C341 C332 1.390 . S
C341 H334 0.950 . S
C341 C338 1.387 . S
C342 C343 1.387 . S
C342 H346 0.950 . S
C342 C351 1.390 . S
C343 C342 1.387 . S
C343 C345 1.387 . S
H344 C351 0.950 . S
C345 C343 1.387 . S
C345 C347 1.390 . S
C345 H349 0.950 . S
H346 C342 0.950 . S
C347 C345 1.390 . S
C347 C348 1.387 . S
C347 H350 0.950 . S
C348 C347 1.387 . S
C348 C351 1.387 . S
H349 C345 0.950 . S
H350 C347 0.950 . S
C351 C342 1.390 . S
C351 H344 0.950 . S
C351 C348 1.387 . S
C352 C353 1.387 . S
C352 H356 0.950 1_455 S
C352 C361 1.390 . S
C353 C352 1.387 . S
C353 C355 1.387 . S
H354 C361 0.950 . S
C355 C353 1.387 . S
C355 C357 1.390 . S
C355 H359 0.950 . S
H356 C352 0.950 1_655 S
C357 C355 1.390 . S
C357 C358 1.387 . S
C357 H360 0.950 . S
C358 C357 1.387 . S
C358 C361 1.387 . S
H359 C355 0.950 . S
H360 C357 0.950 . S
C361 C352 1.390 . S
C361 H354 0.950 . S
C361 C358 1.387 . S
C362 C363 1.387 . S
C362 H366 0.950 1_545 S
C362 C371 1.390 . S
C363 C362 1.387 . S
C363 C365 1.387 . S
H364 C371 0.950 . S
C365 C363 1.387 . S
C365 C367 1.390 . S
C365 H369 0.950 . S
H366 C362 0.950 1_565 S
C367 C365 1.390 . S
C367 C368 1.387 . S
C367 H370 0.950 . S
C368 C367 1.387 . S
C368 C371 1.387 . S
H369 C365 0.950 . S
H370 C367 0.950 . S
C371 C362 1.390 . S
C371 H364 0.950 . S
C371 C368 1.387 . S
C372 C373 1.387 . S
C372 H376 0.950 . S
C372 C381 1.390 . S
C373 C372 1.387 . S
C373 C375 1.387 . S
H374 C381 0.950 . S
C375 C373 1.387 . S
C375 C377 1.390 . S
C375 H379 0.950 . S
H376 C372 0.950 . S
C377 C375 1.390 . S
C377 C378 1.387 . S
C377 H380 0.950 . S
C378 C377 1.387 . S
C378 C381 1.387 . S
H379 C375 0.950 . S
H380 C377 0.950 . S
C381 C372 1.390 . S
C381 H374 0.950 . S
C381 C378 1.387 . S
C382 C383 1.387 . S
C382 H386 0.950 . S
C382 C391 1.390 . S
C383 C382 1.387 . S
C383 C385 1.387 . S
H384 C391 0.950 . S
C385 C383 1.387 . S
C385 C387 1.390 . S
C385 H389 0.950 . S
H386 C382 0.950 . S
C387 C385 1.390 . S
C387 C388 1.387 . S
C387 H390 0.950 . S
C388 C387 1.387 . S
C388 C391 1.387 . S
H389 C385 0.950 . S
H390 C387 0.950 . S
C391 C382 1.390 . S
C391 H384 0.950 . S
C391 C388 1.387 . S
C392 C393 1.387 . S
C392 H396 0.950 1_556 S
C392 C401 1.390 . S
C393 C392 1.387 . S
C393 C395 1.387 . S
H394 C401 0.950 1_554 S
C395 C393 1.387 . S
C395 C397 1.390 . S
C395 H399 0.950 . S
H396 C392 0.950 1_554 S
C397 C395 1.390 . S
C397 C398 1.387 . S
C397 H400 0.950 . S
C398 C397 1.387 . S
C398 C401 1.387 . S
H399 C395 0.950 . S
H400 C397 0.950 . S
C401 C392 1.390 . S
C401 H394 0.950 1_556 S
C401 C398 1.387 . S
C402 C403 1.387 . S
C402 H406 0.950 . S
C402 C411 1.390 . S
C403 C402 1.387 . S
C403 C405 1.387 . S
H404 C411 0.950 . S
C405 C403 1.387 . S
C405 C407 1.390 . S
C405 H409 0.950 1_556 S
H406 C402 0.950 . S
C407 C405 1.390 . S
C407 C408 1.387 . S
C407 H410 0.950 1_556 S
C408 C407 1.387 . S
C408 C411 1.387 . S
H409 C405 0.950 1_554 S
H410 C407 0.950 1_554 S
C411 C402 1.390 . S
C411 H404 0.950 . S
C411 C408 1.387 . S
C412 C413 1.387 . S
C412 H416 0.950 1_556 S
C412 C421 1.390 . S
C413 C412 1.387 . S
C413 C415 1.387 . S
H414 C421 0.950 1_554 S
C415 C413 1.387 . S
C415 C417 1.390 . S
C415 H419 0.950 . S
H416 C412 0.950 1_554 S
C417 C415 1.390 . S
C417 C418 1.387 . S
C417 H420 0.950 . S
C418 C417 1.387 . S
C418 C421 1.387 . S
H419 C415 0.950 . S
H420 C417 0.950 . S
C421 C412 1.390 . S
C421 H414 0.950 1_556 S
C421 C418 1.387 . S
C422 C423 1.387 . S
C422 H426 0.950 . S
C422 C431 1.390 . S
C423 C422 1.387 . S
C423 C425 1.387 . S
H424 C431 0.950 . S
C425 C423 1.387 . S
C425 C427 1.390 . S
C425 H429 0.950 . S
H426 C422 0.950 . S
C427 C425 1.390 . S
C427 C428 1.387 . S
C427 H430 0.950 . S
C428 C427 1.387 . S
C428 C431 1.387 . S
H429 C425 0.950 . S
H430 C427 0.950 . S
C431 C422 1.390 . S
C431 H424 0.950 . S
C431 C428 1.387 . S
C432 C433 1.387 . S
C432 H436 0.950 . S
C432 C441 1.390 . S
C433 C432 1.387 . S
C433 C435 1.387 . S
H434 C441 0.950 . S
C435 C433 1.387 . S
C435 C437 1.390 . S
C435 H439 0.950 1_655 S
H436 C432 0.950 . S
C437 C435 1.390 . S
C437 C438 1.387 . S
C437 H440 0.950 . S
C438 C437 1.387 . S
C438 C441 1.387 . S
H439 C435 0.950 1_455 S
H440 C437 0.950 . S
C441 C432 1.390 . S
C441 H434 0.950 . S
C441 C438 1.387 . S
C442 C443 1.387 . S
C442 H446 0.950 . S
C442 C451 1.390 . S
C443 C442 1.387 . S
C443 C445 1.387 . S
H444 C451 0.950 . S
C445 C443 1.387 . S
C445 C447 1.390 . S
C445 H449 0.950 . S
H446 C442 0.950 . S
C447 C445 1.390 . S
C447 C448 1.387 . S
C447 H450 0.950 . S
C448 C447 1.387 . S
C448 C451 1.387 . S
H449 C445 0.950 . S
H450 C447 0.950 . S
C451 C442 1.390 . S
C451 H444 0.950 . S
C451 C448 1.387 . S
C452 C453 1.387 . S
C452 H456 0.950 . S
C452 C461 1.390 . S
C453 C452 1.387 . S
C453 C455 1.387 . S
H454 C461 0.950 . S
C455 C453 1.387 . S
C455 C457 1.390 . S
C455 H459 0.950 . S
H456 C452 0.950 . S
C457 C455 1.390 . S
C457 C458 1.387 . S
C457 H460 0.950 . S
C458 C457 1.387 . S
C458 C461 1.387 . S
H459 C455 0.950 . S
H460 C457 0.950 . S
C461 C452 1.390 . S
C461 H454 0.950 . S
C461 C458 1.387 . S
C462 C463 1.387 . S
C462 H466 0.950 . S
C462 C471 1.390 . S
C463 C462 1.387 . S
C463 C465 1.387 . S
H464 C471 0.950 . S
C465 C463 1.387 . S
C465 C467 1.390 . S
C465 H469 0.950 . S
H466 C462 0.950 . S
C467 C465 1.390 . S
C467 C468 1.387 . S
C467 H470 0.950 . S
C468 C467 1.387 . S
C468 C471 1.387 . S
H469 C465 0.950 . S
H470 C467 0.950 . S
C471 C462 1.390 . S
C471 H464 0.950 . S
C471 C468 1.387 . S
C233 C61 1.983 1_545 S
C238 C81 2.256 1_545 S
C248 C121 2.281 . S
C243 C70 2.027 . S
C258 C161 2.292 . S
C253 C43 2.032 . S
C268 C201 2.273 1_455 S
C263 C52 2.008 1_455 S
C278 C90 2.257 1_564 S
C273 C25 1.985 1_545 S
C283 C34 2.035 . S
C288 C130 2.283 1_554 S
C293 C7 2.026 . S
C298 C170 2.292 1_554 S
C303 C16 2.003 . S
C308 C210 2.272 1_654 S
C318 C87 0.908 . S
C313 C50 0.956 . S
C328 C127 0.894 . S
C323 C59 0.934 . S
C338 C167 0.884 . S
C333 C67 0.925 . S
C343 C41 0.937 . S
C348 C207 0.886 . S
C353 C14 0.966 1_455 S
C358 C78 0.916 . S
C368 C118 0.892 . S
C363 C23 0.935 1_545 S
C378 C158 0.876 . S
C373 C31 0.914 . S
C383 C5 0.949 . S
C388 C198 0.899 . S
C393 C49 2.305 1_455 S
C398 C91 2.609 . S
C403 C58 2.251 1_545 S
C408 C131 2.554 . S
C418 C171 2.538 . S
C413 C68 2.235 . S
C428 C211 2.594 . S
C423 C40 2.289 . S
C433 C13 2.304 . S
C438 C82 2.616 . S
C448 C122 2.553 . S
C443 C22 2.250 . S
C458 C162 2.540 . S
C453 C32 2.243 . S
C463 C4 2.287 . S
C468 C202 2.598 . S
