# Generated by pormake.
# Topology ctn, (3,4)-cn, num edge types: 1
# Building blocks:
#     Node 0, Type 0, BuildingBlock: CUQRIR_clean_linker_1, # of connection points: 3
#     Node 1, Type 0, BuildingBlock: CUQRIR_clean_linker_1, # of connection points: 3
#     Node 2, Type 0, BuildingBlock: CUQRIR_clean_linker_1, # of connection points: 3
#     Node 3, Type 0, BuildingBlock: CUQRIR_clean_linker_1, # of connection points: 3
#     Node 4, Type 0, BuildingBlock: CUQRIR_clean_linker_1, # of connection points: 3
#     Node 5, Type 0, BuildingBlock: CUQRIR_clean_linker_1, # of connection points: 3
#     Node 6, Type 0, BuildingBlock: CUQRIR_clean_linker_1, # of connection points: 3
#     Node 7, Type 0, BuildingBlock: CUQRIR_clean_linker_1, # of connection points: 3
#     Node 8, Type 0, BuildingBlock: CUQRIR_clean_linker_1, # of connection points: 3
#     Node 9, Type 0, BuildingBlock: CUQRIR_clean_linker_1, # of connection points: 3
#     Node 10, Type 0, BuildingBlock: CUQRIR_clean_linker_1, # of connection points: 3
#     Node 11, Type 0, BuildingBlock: CUQRIR_clean_linker_1, # of connection points: 3
#     Node 12, Type 0, BuildingBlock: CUQRIR_clean_linker_1, # of connection points: 3
#     Node 13, Type 0, BuildingBlock: CUQRIR_clean_linker_1, # of connection points: 3
#     Node 14, Type 0, BuildingBlock: CUQRIR_clean_linker_1, # of connection points: 3
#     Node 15, Type 0, BuildingBlock: CUQRIR_clean_linker_1, # of connection points: 3
#     Node 16, Type 1, BuildingBlock: TATPOV_clean_sbu_0, # of connection points: 4
#     Node 17, Type 1, BuildingBlock: TATPOV_clean_sbu_0, # of connection points: 4
#     Node 18, Type 1, BuildingBlock: TATPOV_clean_sbu_0, # of connection points: 4
#     Node 19, Type 1, BuildingBlock: TATPOV_clean_sbu_0, # of connection points: 4
#     Node 20, Type 1, BuildingBlock: TATPOV_clean_sbu_0, # of connection points: 4
#     Node 21, Type 1, BuildingBlock: TATPOV_clean_sbu_0, # of connection points: 4
#     Node 22, Type 1, BuildingBlock: TATPOV_clean_sbu_0, # of connection points: 4
#     Node 23, Type 1, BuildingBlock: TATPOV_clean_sbu_0, # of connection points: 4
#     Node 24, Type 1, BuildingBlock: TATPOV_clean_sbu_0, # of connection points: 4
#     Node 25, Type 1, BuildingBlock: TATPOV_clean_sbu_0, # of connection points: 4
#     Node 26, Type 1, BuildingBlock: TATPOV_clean_sbu_0, # of connection points: 4
#     Node 27, Type 1, BuildingBlock: TATPOV_clean_sbu_0, # of connection points: 4
#     Edge 28, Type (0, 1), None
#     Edge 29, Type (0, 1), None
#     Edge 30, Type (0, 1), None
#     Edge 31, Type (0, 1), None
#     Edge 32, Type (0, 1), None
#     Edge 33, Type (0, 1), None
#     Edge 34, Type (0, 1), None
#     Edge 35, Type (0, 1), None
#     Edge 36, Type (0, 1), None
#     Edge 37, Type (0, 1), None
#     Edge 38, Type (0, 1), None
#     Edge 39, Type (0, 1), None
#     Edge 40, Type (0, 1), None
#     Edge 41, Type (0, 1), None
#     Edge 42, Type (0, 1), None
#     Edge 43, Type (0, 1), None
#     Edge 44, Type (0, 1), None
#     Edge 45, Type (0, 1), None
#     Edge 46, Type (0, 1), None
#     Edge 47, Type (0, 1), None
#     Edge 48, Type (0, 1), None
#     Edge 49, Type (0, 1), None
#     Edge 50, Type (0, 1), None
#     Edge 51, Type (0, 1), None
#     Edge 52, Type (0, 1), None
#     Edge 53, Type (0, 1), None
#     Edge 54, Type (0, 1), None
#     Edge 55, Type (0, 1), None
#     Edge 56, Type (0, 1), None
#     Edge 57, Type (0, 1), None
#     Edge 58, Type (0, 1), None
#     Edge 59, Type (0, 1), None
#     Edge 60, Type (0, 1), None
#     Edge 61, Type (0, 1), None
#     Edge 62, Type (0, 1), None
#     Edge 63, Type (0, 1), None
#     Edge 64, Type (0, 1), None
#     Edge 65, Type (0, 1), None
#     Edge 66, Type (0, 1), None
#     Edge 67, Type (0, 1), None
#     Edge 68, Type (0, 1), None
#     Edge 69, Type (0, 1), None
#     Edge 70, Type (0, 1), None
#     Edge 71, Type (0, 1), None
#     Edge 72, Type (0, 1), None
#     Edge 73, Type (0, 1), None
#     Edge 74, Type (0, 1), None
#     Edge 75, Type (0, 1), None
# Relax obj value: 0.104
# Max RMSD: 0.205
# Mean RMSD: 0.125
data_MOF--net-ctn--node1-TATPOV_clean_sbu_0--node2-CUQRIR_clean_linker_1--edge1-none
_symmetry_space_group_name_H-M    P1
_symmetry_Int_Tables_number       1
_symmetry_cell_setting            triclinic
loop_
_symmetry_equiv_pos_as_xyz
'x, y, z'
_cell_length_a     20.219156
_cell_length_b     18.12601
_cell_length_c     18.913378
_cell_angle_alpha  98.97315
_cell_angle_beta   87.230254
_cell_angle_gamma 96.532033
loop_
_atom_site_label
_atom_site_type_symbol
_atom_site_fract_x
_atom_site_fract_y
_atom_site_fract_z
_atom_type_partial_charge
C0 C 0.01577 0.92643 0.06958 0.0
N1 N 0.05667 0.96611 0.02639 0.0
N2 N 0.95181 0.94052 0.06689 0.0
C3 C 0.03668 0.87357 0.11687 0.0
C4 C 0.95402 0.98626 0.01712 0.0
N5 N 0.0179 1.00828 0.99739 0.0
C6 C 0.89232 1.01112 0.98987 0.0
H7 H 0.06037 0.82705 0.08371 0.0
H8 H 0.99335 0.8481 0.14632 0.0
H9 H 0.07296 0.90436 0.15619 0.0
H10 H 0.878 0.06183 0.02557 0.0
H11 H 0.85018 0.96626 0.98987 0.0
H12 H 0.90092 0.0238 0.93438 0.0
C13 C 0.2662 0.78208 0.25199 0.0
N14 N 0.28179 0.746 0.30542 0.0
N15 N 0.31675 0.78518 0.20324 0.0
C16 C 0.20002 0.8122 0.24746 0.0
C17 C 0.36619 0.75684 0.23309 0.0
N18 N 0.34595 0.73539 0.29698 0.0
C19 C 0.43728 0.75805 0.20474 0.0
H20 H 0.17197 0.77883 0.20202 0.0
H21 H 0.20826 0.87156 0.23818 0.0
H22 H 0.1697 0.81013 0.29776 0.0
H23 H 0.46699 0.72672 0.23507 0.0
H24 H 0.46008 0.81706 0.20763 0.0
H25 H 0.43915 0.73111 0.14846 0.0
C26 C 0.98245 0.55856 0.09369 0.0
N27 N 0.00823 0.49662 0.10898 0.0
N28 N 0.93083 0.53766 0.04948 0.0
C29 C 0.00975 0.63897 0.11827 0.0
C30 C 0.92425 0.4618 0.04155 0.0
N31 N 0.97316 0.43561 0.07432 0.0
C32 C 0.86219 0.41382 0.0137 0.0
H33 H 0.9928 0.65608 0.17452 0.0
H34 H 0.99285 0.67778 0.08474 0.0
H35 H 0.06502 0.64464 0.11593 0.0
H36 H 0.85627 0.41795 0.95669 0.0
H37 H 0.81805 0.436 0.04318 0.0
H38 H 0.86186 0.35424 0.02065 0.0
C39 C 0.68257 0.74844 0.24358 0.0
N40 N 0.74591 0.7806 0.23499 0.0
N41 N 0.66614 0.74915 0.31385 0.0
C42 C 0.63737 0.71099 0.18413 0.0
C43 C 0.72165 0.78169 0.34769 0.0
N44 N 0.76745 0.80821 0.30056 0.0
C45 C 0.72885 0.79341 0.42795 0.0
H46 H 0.63143 0.75091 0.14654 0.0
H47 H 0.58776 0.69037 0.2051 0.0
H48 H 0.65948 0.66166 0.15411 0.0
H49 H 0.78199 0.80579 0.44228 0.0
H50 H 0.70794 0.74209 0.44993 0.0
H51 H 0.70091 0.84058 0.45308 0.0
C52 C 0.03176 0.06128 0.51863 0.0
N53 N 0.07903 0.02204 0.53901 0.0
N54 N 0.02328 0.0454 0.44719 0.0
C55 C 0.98638 0.10403 0.57119 0.0
C56 C 0.07758 1.01041 0.42392 0.0
N57 N 0.11806 1.00983 0.47909 0.0
C58 C 0.08979 0.97171 0.34858 0.0
H59 H 0.93847 0.06935 0.57885 0.0
H60 H 0.97577 0.15504 0.55002 0.0
H61 H 0.00987 0.1197 0.62392 0.0
H62 H 0.04687 0.92976 0.33203 0.0
H63 H 0.13493 0.94165 0.34464 0.0
H64 H 0.09513 1.01365 0.31118 0.0
C65 C 0.2157 0.7878 0.79313 0.0
N66 N 0.25316 0.74908 0.82825 0.0
N67 N 0.20382 0.75094 0.7266 0.0
C68 C 0.20206 0.86862 0.81785 0.0
C69 C 0.2392 0.6905 0.72019 0.0
N70 N 0.26895 0.68899 0.78306 0.0
C71 C 0.2343 0.62747 0.65751 0.0
H72 H 0.1553 0.86907 0.85103 0.0
H73 H 0.1971 0.89879 0.772 0.0
H74 H 0.24332 0.90107 0.84961 0.0
H75 H 0.25504 0.64942 0.60853 0.0
H76 H 0.18115 0.60669 0.64842 0.0
H77 H 0.26048 0.57905 0.66476 0.0
C78 C 0.90931 0.57405 0.44294 0.0
N79 N 0.97154 0.60977 0.43971 0.0
N80 N 0.89348 0.55783 0.50901 0.0
C81 C 0.86715 0.54447 0.37868 0.0
C82 C 0.94655 0.59134 0.54674 0.0
N83 N 0.98925 0.63277 0.50717 0.0
C84 C 0.95467 0.58673 0.62479 0.0
H85 H 0.88377 0.57425 0.33282 0.0
H86 H 0.81413 0.55178 0.39291 0.0
H87 H 0.87051 0.48337 0.36276 0.0
H88 H 0.93172 0.53205 0.63866 0.0
H89 H 0.92919 0.63173 0.65814 0.0
H90 H 0.00822 0.59469 0.63779 0.0
C91 C 0.76759 0.85926 0.87004 0.0
N92 N 0.81894 0.81729 0.84602 0.0
N93 N 0.75917 0.90974 0.82659 0.0
C94 C 0.72491 0.85302 0.93765 0.0
C95 C 0.81062 0.90317 0.77828 0.0
N96 N 0.8463 0.84547 0.78707 0.0
C97 C 0.82523 0.95317 0.72104 0.0
H98 H 0.69392 0.79791 0.93206 0.0
H99 H 0.69204 0.89848 0.95043 0.0
H100 H 0.75687 0.85827 0.98459 0.0
H101 H 0.81987 1.01245 0.74385 0.0
H102 H 0.78902 0.93551 0.67774 0.0
H103 H 0.87653 0.95152 0.69778 0.0
C104 C 0.26759 0.35926 0.37004 0.0
N105 N 0.31894 0.31729 0.34602 0.0
N106 N 0.25917 0.40974 0.32659 0.0
C107 C 0.22491 0.35302 0.43765 0.0
C108 C 0.31062 0.40317 0.27828 0.0
N109 N 0.3463 0.34547 0.28707 0.0
C110 C 0.32522 0.45317 0.22104 0.0
H111 H 0.19392 0.29791 0.43206 0.0
H112 H 0.19204 0.39848 0.45043 0.0
H113 H 0.25687 0.35827 0.48459 0.0
H114 H 0.31987 0.51245 0.24385 0.0
H115 H 0.28902 0.43551 0.17774 0.0
H116 H 0.37653 0.45152 0.19778 0.0
C117 C 0.48245 0.05856 0.59369 0.0
N118 N 0.50823 0.99662 0.60898 0.0
N119 N 0.43083 0.03766 0.54948 0.0
C120 C 0.50975 0.13897 0.61827 0.0
C121 C 0.42425 0.9618 0.54155 0.0
N122 N 0.47316 0.93561 0.57432 0.0
C123 C 0.36219 0.91382 0.5137 0.0
H124 H 0.4928 0.15609 0.67452 0.0
H125 H 0.49285 0.17778 0.58474 0.0
H126 H 0.56502 0.14464 0.61593 0.0
H127 H 0.35627 0.91795 0.45669 0.0
H128 H 0.31805 0.936 0.54318 0.0
H129 H 0.36186 0.85424 0.52065 0.0
C130 C 0.18257 0.24844 0.74358 0.0
N131 N 0.24591 0.2806 0.73499 0.0
N132 N 0.16614 0.24915 0.81385 0.0
C133 C 0.13737 0.21099 0.68413 0.0
C134 C 0.22165 0.28169 0.84769 0.0
N135 N 0.26745 0.30821 0.80056 0.0
C136 C 0.22885 0.29342 0.92795 0.0
H137 H 0.13143 0.25091 0.64654 0.0
H138 H 0.08776 0.19037 0.7051 0.0
H139 H 0.15948 0.16166 0.65411 0.0
H140 H 0.28199 0.30579 0.94228 0.0
H141 H 0.20794 0.24209 0.94993 0.0
H142 H 0.20092 0.34058 0.95308 0.0
C143 C 0.7662 0.28208 0.75199 0.0
N144 N 0.78179 0.246 0.80542 0.0
N145 N 0.81675 0.28518 0.70324 0.0
C146 C 0.70002 0.3122 0.74746 0.0
C147 C 0.86619 0.25684 0.73309 0.0
N148 N 0.84595 0.23539 0.79698 0.0
C149 C 0.93728 0.25805 0.70474 0.0
H150 H 0.67197 0.27883 0.70202 0.0
H151 H 0.70826 0.37156 0.73818 0.0
H152 H 0.6697 0.31013 0.79776 0.0
H153 H 0.96699 0.22672 0.73507 0.0
H154 H 0.96008 0.31706 0.70763 0.0
H155 H 0.93915 0.23111 0.64846 0.0
C156 C 0.51577 0.42643 0.56958 0.0
N157 N 0.55667 0.46611 0.52639 0.0
N158 N 0.45181 0.44052 0.56689 0.0
C159 C 0.53668 0.37357 0.61687 0.0
C160 C 0.45402 0.48626 0.51712 0.0
N161 N 0.5179 0.50828 0.49739 0.0
C162 C 0.39232 0.51112 0.48987 0.0
H163 H 0.56037 0.32705 0.58371 0.0
H164 H 0.49335 0.3481 0.64632 0.0
H165 H 0.57296 0.40436 0.65619 0.0
H166 H 0.378 0.56183 0.52557 0.0
H167 H 0.35018 0.46626 0.48987 0.0
H168 H 0.40092 0.5238 0.43438 0.0
C169 C 0.53176 0.56128 0.01863 0.0
N170 N 0.57903 0.52204 0.03901 0.0
N171 N 0.52328 0.5454 0.94719 0.0
C172 C 0.48638 0.60403 0.07119 0.0
C173 C 0.57758 0.51041 0.92392 0.0
N174 N 0.61806 0.50983 0.97909 0.0
C175 C 0.58979 0.47171 0.84858 0.0
H176 H 0.43847 0.56935 0.07885 0.0
H177 H 0.47577 0.65504 0.05002 0.0
H178 H 0.50987 0.6197 0.12392 0.0
H179 H 0.54687 0.42976 0.83203 0.0
H180 H 0.63493 0.44165 0.84464 0.0
H181 H 0.59513 0.51365 0.81118 0.0
C182 C 0.7157 0.2878 0.29313 0.0
N183 N 0.75316 0.24908 0.32825 0.0
N184 N 0.70382 0.25094 0.2266 0.0
C185 C 0.70206 0.36862 0.31785 0.0
C186 C 0.7392 0.1905 0.22019 0.0
N187 N 0.76895 0.18899 0.28306 0.0
C188 C 0.7343 0.12747 0.15751 0.0
H189 H 0.6553 0.36907 0.35103 0.0
H190 H 0.6971 0.39879 0.272 0.0
H191 H 0.74332 0.40107 0.34961 0.0
H192 H 0.75504 0.14942 0.10854 0.0
H193 H 0.68115 0.10669 0.14842 0.0
H194 H 0.76048 0.07905 0.16476 0.0
C195 C 0.40931 0.07405 0.94294 0.0
N196 N 0.47154 0.10977 0.93971 0.0
N197 N 0.39348 0.05783 0.00901 0.0
C198 C 0.36715 0.04447 0.87868 0.0
C199 C 0.44655 0.09134 0.04674 0.0
N200 N 0.48925 0.13277 0.00717 0.0
C201 C 0.45467 0.08673 0.12479 0.0
H202 H 0.38377 0.07425 0.83282 0.0
H203 H 0.31413 0.05178 0.89291 0.0
H204 H 0.37051 0.98337 0.86276 0.0
H205 H 0.43172 0.03204 0.13866 0.0
H206 H 0.42919 0.13173 0.15814 0.0
H207 H 0.50822 0.09469 0.13779 0.0
Zn208 Zn 0.36792 0.8258 0.99956 0.0
Zn209 Zn 0.24569 0.8852 0.03383 0.0
O210 O 0.26753 0.83812 0.11996 0.0
O211 O 0.36411 0.79388 0.09381 0.0
O212 O 0.15251 0.9177 0.04863 0.0
O213 O 0.39861 0.93422 1.00008 0.0
O214 O 0.30275 0.98021 0.03047 0.0
C215 C 0.31638 0.80681 0.13771 0.0
C216 C 0.27641 0.77368 0.89502 0.0
O217 O 0.24425 0.81895 0.938 0.0
O218 O 0.33293 0.75911 0.91119 0.0
C219 C 0.12328 0.95846 0.01322 0.0
O220 O 0.15588 0.9847 0.95923 0.0
C221 C 0.36467 0.98938 0.01688 0.0
Zn222 Zn 0.06897 0.45391 0.29385 0.0
Zn223 Zn 0.13077 0.57451 0.29537 0.0
O224 O 0.07642 0.60769 0.38697 0.0
O225 O 1.00054 0.51617 0.35193 0.0
O226 O 0.18536 0.66981 0.29175 0.0
O227 O 0.14602 0.41252 0.33763 0.0
O228 O 0.20531 0.50476 0.29544 0.0
C229 C 0.01643 0.57927 0.39013 0.0
C230 C 0.0481 0.49441 0.16521 0.0
O231 O 0.07274 0.55493 0.20364 0.0
O232 O 0.05202 0.43237 0.18682 0.0
C233 C 0.23718 0.69224 0.32825 0.0
O234 O 0.25498 0.65066 0.3736 0.0
C235 C 0.20278 0.44401 0.32145 0.0
Zn236 Zn 0.8082 0.60094 0.89659 0.0
Zn237 Zn 0.78915 0.67975 0.02408 0.0
O238 O 0.87149 0.63837 0.05315 0.0
O239 O 0.87283 0.55581 0.95483 0.0
O240 O 0.75739 0.74475 0.11406 0.0
O241 O 0.83828 0.6914 0.83484 0.0
O242 O 0.80731 0.74739 0.93972 0.0
C243 C 0.89295 0.57999 0.01775 0.0
C244 C 0.68126 0.54826 0.97163 0.0
O245 O 0.70669 0.59527 0.02297 0.0
O246 O 0.71073 0.54681 0.91 0.0
C247 C 0.78471 0.77144 0.17328 0.0
O248 O 0.84973 0.77463 0.17693 0.0
C249 C 0.82657 0.75209 0.87426 0.0
Zn250 Zn 0.82955 0.02958 0.39528 0.0
Zn251 Zn 0.889 1.00611 0.27281 0.0
O252 O 0.83688 0.09414 0.25915 0.0
O253 O 0.7854 0.11335 0.3643 0.0
O254 O 0.93996 0.98224 0.18455 0.0
O255 O 0.91307 0.05849 0.44796 0.0
O256 O 0.96338 0.02444 0.3451 0.0
C257 C 0.7976 0.1307 0.30231 0.0
C258 C 0.80305 0.87714 0.31588 0.0
O259 O 0.83552 0.90617 0.26676 0.0
O260 O 0.79473 0.91786 0.376 0.0
C261 C 0.9126 0.95232 0.12652 0.0
O262 O 0.84749 0.94688 0.12247 0.0
C263 C 0.96603 0.0458 0.41228 0.0
Zn264 Zn 0.3082 0.10094 0.3966 0.0
Zn265 Zn 0.28915 0.17975 0.52408 0.0
O266 O 0.37149 0.13837 0.55315 0.0
O267 O 0.37283 0.05581 0.45483 0.0
O268 O 0.25739 0.24475 0.61406 0.0
O269 O 0.33828 0.1914 0.33484 0.0
O270 O 0.30731 0.24739 0.43973 0.0
C271 C 0.39295 0.07999 0.51775 0.0
C272 C 0.18126 0.04826 0.47163 0.0
O273 O 0.20669 0.09527 0.52297 0.0
O274 O 0.21073 0.04681 0.41 0.0
C275 C 0.28471 0.27144 0.67328 0.0
O276 O 0.34973 0.27463 0.67693 0.0
C277 C 0.32657 0.25209 0.37426 0.0
Zn278 Zn 0.32955 0.52959 0.89528 0.0
Zn279 Zn 0.389 0.50611 0.77281 0.0
O280 O 0.33688 0.59414 0.75915 0.0
O281 O 0.2854 0.61335 0.8643 0.0
O282 O 0.43996 0.48224 0.68455 0.0
O283 O 0.41307 0.55849 0.94796 0.0
O284 O 0.46338 0.52444 0.8451 0.0
C285 C 0.2976 0.6307 0.80231 0.0
C286 C 0.30306 0.37714 0.81588 0.0
O287 O 0.33552 0.40617 0.76676 0.0
O288 O 0.29473 0.41786 0.876 0.0
C289 C 0.4126 0.45232 0.62652 0.0
O290 O 0.34749 0.44688 0.62247 0.0
C291 C 0.46603 0.5458 0.91228 0.0
Zn292 Zn 0.86792 0.3258 0.49956 0.0
Zn293 Zn 0.74569 0.3852 0.53383 0.0
O294 O 0.76753 0.33812 0.61996 0.0
O295 O 0.86411 0.29388 0.59381 0.0
O296 O 0.65251 0.4177 0.54863 0.0
O297 O 0.89861 0.43423 0.50007 0.0
O298 O 0.80275 0.48021 0.53047 0.0
C299 C 0.81638 0.30681 0.63771 0.0
C300 C 0.77641 0.27368 0.39502 0.0
O301 O 0.74425 0.31895 0.438 0.0
O302 O 0.83293 0.25911 0.41119 0.0
C303 C 0.62328 0.45846 0.51322 0.0
O304 O 0.65588 0.4847 0.45923 0.0
C305 C 0.86467 0.48938 0.51688 0.0
Zn306 Zn 0.56897 0.9539 0.79385 0.0
Zn307 Zn 0.63077 0.07451 0.79537 0.0
O308 O 0.57642 0.10769 0.88697 0.0
O309 O 0.50055 0.01617 0.85193 0.0
O310 O 0.68536 0.16981 0.79175 0.0
O311 O 0.64602 0.91252 0.83763 0.0
O312 O 0.70531 1.00476 0.79544 0.0
C313 C 0.51643 0.07927 0.89013 0.0
C314 C 0.5481 0.99441 0.6652 0.0
O315 O 0.57274 0.05493 0.70364 0.0
O316 O 0.55202 0.93237 0.68682 0.0
C317 C 0.73718 0.19224 0.82825 0.0
O318 O 0.75498 0.15066 0.8736 0.0
C319 C 0.70278 0.94401 0.82145 0.0
Zn320 Zn 0.00415 0.3319 0.8939 0.0
Zn321 Zn 0.99589 0.22424 0.94538 0.0
O322 O 0.09099 0.23763 0.90617 0.0
O323 O 0.06314 0.28506 0.81463 0.0
O324 O 0.99229 0.12352 0.97888 0.0
O325 O 0.04288 0.39433 0.9853 0.0
O326 O 0.97238 0.31128 0.02726 0.0
C327 C 0.10417 0.25249 0.8434 0.0
C328 C 0.88792 0.25221 0.85256 0.0
O329 O 0.92467 0.20377 0.86609 0.0
O330 O 0.90611 0.3207 0.8741 0.0
C331 C 0.03596 0.07715 0.97615 0.0
O332 O 0.09771 0.09906 0.95844 0.0
C333 C 0.003 0.37778 0.03543 0.0
Zn334 Zn 0.50415 0.8319 0.3939 0.0
Zn335 Zn 0.49589 0.72424 0.44538 0.0
O336 O 0.59099 0.73763 0.40617 0.0
O337 O 0.56314 0.78506 0.31463 0.0
O338 O 0.49229 0.62352 0.47888 0.0
O339 O 0.54288 0.89433 0.4853 0.0
O340 O 0.47238 0.81128 0.52726 0.0
C341 C 0.60417 0.75249 0.3434 0.0
C342 C 0.38792 0.75221 0.35256 0.0
O343 O 0.42467 0.70377 0.36609 0.0
O344 O 0.40611 0.8207 0.3741 0.0
C345 C 0.53596 0.57715 0.47615 0.0
O346 O 0.59771 0.59906 0.45844 0.0
C347 C 0.503 0.87778 0.53543 0.0
Zn348 Zn 0.94805 0.83636 0.58814 0.0
Zn349 Zn 0.0365 0.83036 0.66015 0.0
O350 O 0.08334 0.92104 0.60379 0.0
O351 O 0.98716 0.94263 0.57023 0.0
O352 O 0.11332 0.80896 0.71015 0.0
O353 O 0.8775 0.81058 0.67048 0.0
O354 O 0.95691 0.84191 0.74527 0.0
C355 C 0.04999 0.96173 0.57271 0.0
C356 C 0.99939 0.70728 0.53369 0.0
O357 O 0.02129 0.72772 0.59637 0.0
O358 O 0.96951 0.75313 0.50656 0.0
C359 C 0.1569 0.76613 0.68346 0.0
O360 O 0.15295 0.73317 0.61665 0.0
C361 C 0.89434 0.82158 0.73571 0.0
Zn362 Zn 0.44805 0.33636 0.08814 0.0
Zn363 Zn 0.5365 0.33036 0.16015 0.0
O364 O 0.58334 0.42104 0.10379 0.0
O365 O 0.48716 0.44263 0.07023 0.0
O366 O 0.61332 0.30896 0.21015 0.0
O367 O 0.3775 0.31058 0.17048 0.0
O368 O 0.45691 0.34191 0.24527 0.0
C369 C 0.54999 0.46173 0.07271 0.0
C370 C 0.49939 0.20728 0.03369 0.0
O371 O 0.52129 0.22772 0.09637 0.0
O372 O 0.46951 0.25313 0.00656 0.0
C373 C 0.6569 0.26613 0.18346 0.0
O374 O 0.65295 0.23317 0.11665 0.0
C375 C 0.39434 0.32158 0.23571 0.0
loop_
_geom_bond_atom_site_label_1
_geom_bond_atom_site_label_2
_geom_bond_distance
_geom_bond_site_symmetry_2
_ccdc_geom_bond_type
C0 N1 1.317 . S
C0 N2 1.348 1_465 S
C0 C3 1.485 . S
N1 C0 1.317 . S
N1 N5 1.370 1_565 S
N2 C0 1.348 1_645 S
N2 C4 1.346 . S
C3 C0 1.485 . S
C3 H7 0.960 . S
C3 H8 0.961 . S
C3 H9 0.960 . S
C4 N2 1.346 . S
C4 N5 1.307 1_655 S
C4 C6 1.486 . S
N5 N1 1.370 1_545 S
N5 C4 1.307 1_455 S
C6 C4 1.486 . S
C6 H10 0.960 . S
C6 H11 0.960 . S
C6 H12 0.959 . S
H7 C3 0.960 . S
H8 C3 0.961 . S
H9 C3 0.960 . S
H10 C6 0.960 . S
H11 C6 0.960 . S
H12 C6 0.959 . S
C13 N14 1.317 . S
C13 N15 1.348 . S
C13 C16 1.485 . S
N14 C13 1.317 . S
N14 N18 1.370 . S
N15 C13 1.348 . S
N15 C17 1.346 . S
C16 C13 1.485 . S
C16 H20 0.960 . S
C16 H21 0.961 . S
C16 H22 0.960 . S
C17 N15 1.346 . S
C17 N18 1.307 . S
C17 C19 1.486 . S
N18 N14 1.370 . S
N18 C17 1.307 . S
C19 C17 1.486 . S
C19 H23 0.960 . S
C19 H24 0.960 . S
C19 H25 0.959 . S
H20 C16 0.960 . S
H21 C16 0.961 . S
H22 C16 0.960 . S
H23 C19 0.960 . S
H24 C19 0.960 . S
H25 C19 0.959 . S
C26 N27 1.319 . S
C26 N28 1.348 . S
C26 C29 1.485 . S
N27 C26 1.319 . S
N27 N31 1.371 . S
N28 C26 1.348 . S
N28 C30 1.346 . S
C29 C26 1.485 . S
C29 H33 0.960 . S
C29 H34 0.961 . S
C29 H35 0.960 1_655 S
C30 N28 1.346 . S
C30 N31 1.307 . S
C30 C32 1.486 1_554 S
N31 N27 1.371 . S
N31 C30 1.307 . S
C32 C30 1.486 1_556 S
C32 H36 0.960 . S
C32 H37 0.960 . S
C32 H38 0.959 . S
H33 C29 0.960 . S
H34 C29 0.961 . S
H35 C29 0.960 1_455 S
H36 C32 0.960 . S
H37 C32 0.960 . S
H38 C32 0.959 . S
C39 N40 1.317 . S
C39 N41 1.348 . S
C39 C42 1.485 . S
N40 C39 1.317 . S
N40 N44 1.370 . S
N41 C39 1.348 . S
N41 C43 1.346 . S
C42 C39 1.485 . S
C42 H46 0.960 . S
C42 H47 0.961 . S
C42 H48 0.960 . S
C43 N41 1.346 . S
C43 N44 1.307 . S
C43 C45 1.486 . S
N44 N40 1.370 . S
N44 C43 1.307 . S
C45 C43 1.486 . S
C45 H49 0.960 . S
C45 H50 0.960 . S
C45 H51 0.959 . S
H46 C42 0.960 . S
H47 C42 0.961 . S
H48 C42 0.960 . S
H49 C45 0.960 . S
H50 C45 0.960 . S
H51 C45 0.959 . S
C52 N53 1.317 . S
C52 N54 1.348 . S
C52 C55 1.485 1_455 S
N53 C52 1.317 . S
N53 N57 1.370 . S
N54 C52 1.348 . S
N54 C56 1.346 1_565 S
C55 C52 1.485 1_655 S
C55 H59 0.960 . S
C55 H60 0.961 . S
C55 H61 0.960 . S
C56 N54 1.346 1_545 S
C56 N57 1.307 1_545 S
C56 C58 1.486 . S
N57 N53 1.370 . S
N57 C56 1.307 1_565 S
C58 C56 1.486 . S
C58 H62 0.960 . S
C58 H63 0.960 . S
C58 H64 0.959 . S
H59 C55 0.960 . S
H60 C55 0.961 . S
H61 C55 0.960 . S
H62 C58 0.960 . S
H63 C58 0.960 . S
H64 C58 0.959 . S
C65 N66 1.317 . S
C65 N67 1.348 . S
C65 C68 1.485 . S
N66 C65 1.317 . S
N66 N70 1.370 . S
N67 C65 1.348 . S
N67 C69 1.346 . S
C68 C65 1.485 . S
C68 H72 0.960 . S
C68 H73 0.961 . S
C68 H74 0.960 . S
C69 N67 1.346 . S
C69 N70 1.307 . S
C69 C71 1.486 . S
N70 N66 1.370 . S
N70 C69 1.307 . S
C71 C69 1.486 . S
C71 H75 0.960 . S
C71 H76 0.960 . S
C71 H77 0.959 . S
H72 C68 0.960 . S
H73 C68 0.961 . S
H74 C68 0.960 . S
H75 C71 0.960 . S
H76 C71 0.960 . S
H77 C71 0.959 . S
C78 N79 1.317 . S
C78 N80 1.348 . S
C78 C81 1.485 . S
N79 C78 1.317 . S
N79 N83 1.370 . S
N80 C78 1.348 . S
N80 C82 1.346 . S
C81 C78 1.485 . S
C81 H85 0.960 . S
C81 H86 0.961 . S
C81 H87 0.960 . S
C82 N80 1.346 . S
C82 N83 1.307 . S
C82 C84 1.486 . S
N83 N79 1.370 . S
N83 C82 1.307 . S
C84 C82 1.486 . S
C84 H88 0.960 . S
C84 H89 0.960 . S
C84 H90 0.959 . S
H85 C81 0.960 . S
H86 C81 0.961 . S
H87 C81 0.960 . S
H88 C84 0.960 . S
H89 C84 0.960 . S
H90 C84 0.959 . S
C91 N92 1.317 . S
C91 N93 1.348 . S
C91 C94 1.485 . S
N92 C91 1.317 . S
N92 N96 1.370 . S
N93 C91 1.348 . S
N93 C95 1.346 . S
C94 C91 1.485 . S
C94 H98 0.960 . S
C94 H99 0.961 . S
C94 H100 0.960 . S
C95 N93 1.346 . S
C95 N96 1.307 . S
C95 C97 1.486 . S
N96 N92 1.370 . S
N96 C95 1.307 . S
C97 C95 1.486 . S
C97 H101 0.960 . S
C97 H102 0.960 . S
C97 H103 0.959 . S
H98 C94 0.960 . S
H99 C94 0.961 . S
H100 C94 0.960 . S
H101 C97 0.960 . S
H102 C97 0.960 . S
H103 C97 0.959 . S
C104 N105 1.317 . S
C104 N106 1.348 . S
C104 C107 1.485 . S
N105 C104 1.317 . S
N105 N109 1.370 . S
N106 C104 1.348 . S
N106 C108 1.346 . S
C107 C104 1.485 . S
C107 H111 0.960 . S
C107 H112 0.961 . S
C107 H113 0.960 . S
C108 N106 1.346 . S
C108 N109 1.307 . S
C108 C110 1.486 . S
N109 N105 1.370 . S
N109 C108 1.307 . S
C110 C108 1.486 . S
C110 H114 0.960 . S
C110 H115 0.960 . S
C110 H116 0.959 . S
H111 C107 0.960 . S
H112 C107 0.961 . S
H113 C107 0.960 . S
H114 C110 0.960 . S
H115 C110 0.960 . S
H116 C110 0.959 . S
C117 N118 1.317 1_545 S
C117 N119 1.348 . S
C117 C120 1.485 . S
N118 C117 1.317 1_565 S
N118 N122 1.370 . S
N119 C117 1.348 . S
N119 C121 1.346 1_545 S
C120 C117 1.485 . S
C120 H124 0.960 . S
C120 H125 0.961 . S
C120 H126 0.960 . S
C121 N119 1.346 1_565 S
C121 N122 1.307 . S
C121 C123 1.486 . S
N122 N118 1.370 . S
N122 C121 1.307 . S
C123 C121 1.486 . S
C123 H127 0.960 . S
C123 H128 0.960 . S
C123 H129 0.959 . S
H124 C120 0.960 . S
H125 C120 0.961 . S
H126 C120 0.960 . S
H127 C123 0.960 . S
H128 C123 0.960 . S
H129 C123 0.959 . S
C130 N131 1.317 . S
C130 N132 1.348 . S
C130 C133 1.485 . S
N131 C130 1.317 . S
N131 N135 1.370 . S
N132 C130 1.348 . S
N132 C134 1.346 . S
C133 C130 1.485 . S
C133 H137 0.960 . S
C133 H138 0.961 . S
C133 H139 0.960 . S
C134 N132 1.346 . S
C134 N135 1.307 . S
C134 C136 1.486 . S
N135 N131 1.370 . S
N135 C134 1.307 . S
C136 C134 1.486 . S
C136 H140 0.960 . S
C136 H141 0.960 . S
C136 H142 0.959 . S
H137 C133 0.960 . S
H138 C133 0.961 . S
H139 C133 0.960 . S
H140 C136 0.960 . S
H141 C136 0.960 . S
H142 C136 0.959 . S
C143 N144 1.317 . S
C143 N145 1.348 . S
C143 C146 1.485 . S
N144 C143 1.317 . S
N144 N148 1.370 . S
N145 C143 1.348 . S
N145 C147 1.346 . S
C146 C143 1.485 . S
C146 H150 0.960 . S
C146 H151 0.961 . S
C146 H152 0.960 . S
C147 N145 1.346 . S
C147 N148 1.307 . S
C147 C149 1.486 . S
N148 N144 1.370 . S
N148 C147 1.307 . S
C149 C147 1.486 . S
C149 H153 0.960 . S
C149 H154 0.960 . S
C149 H155 0.959 . S
H150 C146 0.960 . S
H151 C146 0.961 . S
H152 C146 0.960 . S
H153 C149 0.960 . S
H154 C149 0.960 . S
H155 C149 0.959 . S
C156 N157 1.317 . S
C156 N158 1.348 . S
C156 C159 1.485 . S
N157 C156 1.317 . S
N157 N161 1.370 . S
N158 C156 1.348 . S
N158 C160 1.346 . S
C159 C156 1.485 . S
C159 H163 0.960 . S
C159 H164 0.961 . S
C159 H165 0.960 . S
C160 N158 1.346 . S
C160 N161 1.307 . S
C160 C162 1.486 . S
N161 N157 1.370 . S
N161 C160 1.307 . S
C162 C160 1.486 . S
C162 H166 0.960 . S
C162 H167 0.960 . S
C162 H168 0.959 . S
H163 C159 0.960 . S
H164 C159 0.961 . S
H165 C159 0.960 . S
H166 C162 0.960 . S
H167 C162 0.960 . S
H168 C162 0.959 . S
C169 N170 1.317 1_556 S
C169 N171 1.348 . S
C169 C172 1.485 . S
N170 C169 1.317 1_554 S
N170 N174 1.370 1_554 S
N171 C169 1.348 . S
N171 C173 1.346 . S
C172 C169 1.485 . S
C172 H176 0.960 . S
C172 H177 0.961 . S
C172 H178 0.960 1_556 S
C173 N171 1.346 . S
C173 N174 1.307 . S
C173 C175 1.486 . S
N174 N170 1.370 1_556 S
N174 C173 1.307 . S
C175 C173 1.486 . S
C175 H179 0.960 . S
C175 H180 0.960 . S
C175 H181 0.959 . S
H176 C172 0.960 . S
H177 C172 0.961 . S
H178 C172 0.960 1_554 S
H179 C175 0.960 . S
H180 C175 0.960 . S
H181 C175 0.959 . S
C182 N183 1.317 . S
C182 N184 1.348 . S
C182 C185 1.485 . S
N183 C182 1.317 . S
N183 N187 1.370 . S
N184 C182 1.348 . S
N184 C186 1.346 . S
C185 C182 1.485 . S
C185 H189 0.960 . S
C185 H190 0.961 . S
C185 H191 0.960 . S
C186 N184 1.346 . S
C186 N187 1.307 . S
C186 C188 1.486 . S
N187 N183 1.370 . S
N187 C186 1.307 . S
C188 C186 1.486 . S
C188 H192 0.960 . S
C188 H193 0.960 . S
C188 H194 0.959 . S
H189 C185 0.960 . S
H190 C185 0.961 . S
H191 C185 0.960 . S
H192 C188 0.960 . S
H193 C188 0.960 . S
H194 C188 0.959 . S
C195 N196 1.317 . S
C195 N197 1.348 . S
C195 C198 1.485 1_545 S
N196 C195 1.317 . S
N196 N200 1.370 . S
N197 C195 1.348 . S
N197 C199 1.346 1_556 S
C198 C195 1.485 1_565 S
C198 H202 0.960 . S
C198 H203 0.961 . S
C198 H204 0.960 . S
C199 N197 1.346 1_554 S
C199 N200 1.307 1_554 S
C199 C201 1.486 . S
N200 N196 1.370 . S
N200 C199 1.307 1_556 S
C201 C199 1.486 . S
C201 H205 0.960 . S
C201 H206 0.960 . S
C201 H207 0.959 . S
H202 C198 0.960 . S
H203 C198 0.961 . S
H204 C198 0.960 . S
H205 C201 0.960 . S
H206 C201 0.960 . S
H207 C201 0.959 . S
Zn208 O211 2.030 . S
Zn208 O213 2.050 1_554 S
Zn208 O218 2.068 1_554 S
Zn209 O210 1.962 . S
Zn209 O212 1.986 . S
Zn209 O214 1.996 . S
Zn209 O217 1.943 1_554 S
O210 Zn209 1.962 . S
O210 C215 1.254 . S
O211 Zn208 2.030 . S
O211 C215 1.269 . S
O212 Zn209 1.986 . S
O212 C219 1.262 . S
O213 Zn208 2.050 1_556 S
O213 C221 1.260 . S
O214 Zn209 1.996 . S
O214 C221 1.257 1_554 S
C215 O210 1.254 . S
C215 O211 1.269 . S
C216 O217 1.249 . S
C216 O218 1.270 . S
O217 Zn209 1.943 1_556 S
O217 C216 1.249 . S
O218 Zn208 2.068 1_556 S
O218 C216 1.270 . S
C219 O212 1.262 . S
C219 O220 1.232 . S
O220 C219 1.232 . S
C221 O213 1.260 . S
C221 O214 1.257 1_556 S
Zn222 O225 2.031 . S
Zn222 O227 2.049 . S
Zn222 O232 2.067 . S
Zn223 O224 1.962 . S
Zn223 O226 1.986 . S
Zn223 O228 1.996 . S
Zn223 O231 1.943 . S
O224 Zn223 1.962 . S
O224 C229 1.254 . S
O225 Zn222 2.031 . S
O225 C229 1.269 . S
O226 Zn223 1.986 . S
O226 C233 1.262 . S
O227 Zn222 2.049 . S
O227 C235 1.260 . S
O228 Zn223 1.996 . S
O228 C235 1.257 . S
C229 O224 1.254 . S
C229 O225 1.269 . S
C230 O231 1.249 . S
C230 O232 1.270 . S
O231 Zn223 1.943 . S
O231 C230 1.249 . S
O232 Zn222 2.067 . S
O232 C230 1.270 . S
C233 O226 1.262 . S
C233 O234 1.232 . S
O234 C233 1.232 . S
C235 O227 1.260 . S
C235 O228 1.257 . S
Zn236 O239 2.031 . S
Zn236 O241 2.049 . S
Zn236 O246 2.067 . S
Zn237 O238 1.962 . S
Zn237 O240 1.986 . S
Zn237 O242 1.996 1_554 S
Zn237 O245 1.943 . S
O238 Zn237 1.962 . S
O238 C243 1.254 . S
O239 Zn236 2.031 . S
O239 C243 1.269 1_556 S
O240 Zn237 1.986 . S
O240 C247 1.262 . S
O241 Zn236 2.049 . S
O241 C249 1.260 . S
O242 Zn237 1.996 1_556 S
O242 C249 1.257 . S
C243 O238 1.254 . S
C243 O239 1.269 1_554 S
C244 O245 1.249 1_556 S
C244 O246 1.270 . S
O245 Zn237 1.943 . S
O245 C244 1.249 1_554 S
O246 Zn236 2.067 . S
O246 C244 1.270 . S
C247 O240 1.262 . S
C247 O248 1.232 . S
O248 C247 1.232 . S
C249 O241 1.260 . S
C249 O242 1.257 . S
Zn250 O253 2.031 . S
Zn250 O255 2.049 1_545 S
Zn250 O260 2.067 1_545 S
Zn251 O252 1.962 . S
Zn251 O254 1.986 . S
Zn251 O256 1.996 . S
Zn251 O259 1.943 1_545 S
O252 Zn251 1.962 . S
O252 C257 1.254 . S
O253 Zn250 2.031 . S
O253 C257 1.269 . S
O254 Zn251 1.986 . S
O254 C261 1.262 . S
O255 Zn250 2.049 1_565 S
O255 C263 1.260 . S
O256 Zn251 1.996 . S
O256 C263 1.257 1_545 S
C257 O252 1.254 . S
C257 O253 1.269 . S
C258 O259 1.249 . S
C258 O260 1.270 . S
O259 Zn251 1.943 1_565 S
O259 C258 1.249 . S
O260 Zn250 2.067 1_565 S
O260 C258 1.270 . S
C261 O254 1.262 . S
C261 O262 1.232 . S
O262 C261 1.232 . S
C263 O255 1.260 . S
C263 O256 1.257 1_565 S
Zn264 O267 2.031 . S
Zn264 O269 2.049 . S
Zn264 O274 2.067 . S
Zn265 O266 1.962 . S
Zn265 O268 1.986 . S
Zn265 O270 1.996 . S
Zn265 O273 1.943 . S
O266 Zn265 1.962 . S
O266 C271 1.254 . S
O267 Zn264 2.031 . S
O267 C271 1.269 . S
O268 Zn265 1.986 . S
O268 C275 1.262 . S
O269 Zn264 2.049 . S
O269 C277 1.260 . S
O270 Zn265 1.996 . S
O270 C277 1.257 . S
C271 O266 1.254 . S
C271 O267 1.269 . S
C272 O273 1.249 . S
C272 O274 1.270 . S
O273 Zn265 1.943 . S
O273 C272 1.249 . S
O274 Zn264 2.067 . S
O274 C272 1.270 . S
C275 O268 1.262 . S
C275 O276 1.232 . S
O276 C275 1.232 . S
C277 O269 1.260 . S
C277 O270 1.257 . S
Zn278 O281 2.031 . S
Zn278 O283 2.049 . S
Zn278 O288 2.067 . S
Zn279 O280 1.962 . S
Zn279 O282 1.986 . S
Zn279 O284 1.996 . S
Zn279 O287 1.943 . S
O280 Zn279 1.962 . S
O280 C285 1.254 . S
O281 Zn278 2.031 . S
O281 C285 1.269 . S
O282 Zn279 1.986 . S
O282 C289 1.262 . S
O283 Zn278 2.049 . S
O283 C291 1.260 . S
O284 Zn279 1.996 . S
O284 C291 1.257 . S
C285 O280 1.254 . S
C285 O281 1.269 . S
C286 O287 1.249 . S
C286 O288 1.270 . S
O287 Zn279 1.943 . S
O287 C286 1.249 . S
O288 Zn278 2.067 . S
O288 C286 1.270 . S
C289 O282 1.262 . S
C289 O290 1.232 . S
O290 C289 1.232 . S
C291 O283 1.260 . S
C291 O284 1.257 . S
Zn292 O295 2.031 . S
Zn292 O297 2.049 . S
Zn292 O302 2.067 . S
Zn293 O294 1.962 . S
Zn293 O296 1.986 . S
Zn293 O298 1.996 . S
Zn293 O301 1.943 . S
O294 Zn293 1.962 . S
O294 C299 1.254 . S
O295 Zn292 2.031 . S
O295 C299 1.269 . S
O296 Zn293 1.986 . S
O296 C303 1.262 . S
O297 Zn292 2.049 . S
O297 C305 1.260 . S
O298 Zn293 1.996 . S
O298 C305 1.257 . S
C299 O294 1.254 . S
C299 O295 1.269 . S
C300 O301 1.249 . S
C300 O302 1.270 . S
O301 Zn293 1.943 . S
O301 C300 1.249 . S
O302 Zn292 2.067 . S
O302 C300 1.270 . S
C303 O296 1.262 . S
C303 O304 1.232 . S
O304 C303 1.232 . S
C305 O297 1.260 . S
C305 O298 1.257 . S
Zn306 O309 2.031 . S
Zn306 O311 2.049 . S
Zn306 O316 2.067 . S
Zn307 O308 1.962 . S
Zn307 O310 1.986 . S
Zn307 O312 1.996 1_545 S
Zn307 O315 1.943 . S
O308 Zn307 1.962 . S
O308 C313 1.254 . S
O309 Zn306 2.031 . S
O309 C313 1.269 1_565 S
O310 Zn307 1.986 . S
O310 C317 1.262 . S
O311 Zn306 2.049 . S
O311 C319 1.260 . S
O312 Zn307 1.996 1_565 S
O312 C319 1.257 . S
C313 O308 1.254 . S
C313 O309 1.269 1_545 S
C314 O315 1.249 1_565 S
C314 O316 1.270 . S
O315 Zn307 1.943 . S
O315 C314 1.249 1_545 S
O316 Zn306 2.067 . S
O316 C314 1.270 . S
C317 O310 1.262 . S
C317 O318 1.232 . S
O318 C317 1.232 . S
C319 O311 1.260 . S
C319 O312 1.257 . S
Zn320 O323 2.031 . S
Zn320 O325 2.049 1_455 S
Zn320 O330 2.067 1_455 S
Zn321 O322 1.962 . S
Zn321 O324 1.986 1_556 S
Zn321 O326 1.996 . S
Zn321 O329 1.943 1_455 S
O322 Zn321 1.962 . S
O322 C327 1.254 . S
O323 Zn320 2.031 . S
O323 C327 1.269 . S
O324 Zn321 1.986 1_554 S
O324 C331 1.262 1_554 S
O325 Zn320 2.049 1_655 S
O325 C333 1.260 1_556 S
O326 Zn321 1.996 . S
O326 C333 1.257 1_456 S
C327 O322 1.254 . S
C327 O323 1.269 . S
C328 O329 1.249 . S
C328 O330 1.270 . S
O329 Zn321 1.943 1_655 S
O329 C328 1.249 . S
O330 Zn320 2.067 1_655 S
O330 C328 1.270 . S
C331 O324 1.262 1_556 S
C331 O332 1.232 . S
O332 C331 1.232 . S
C333 O325 1.260 1_554 S
C333 O326 1.257 1_654 S
Zn334 O337 2.031 . S
Zn334 O339 2.049 . S
Zn334 O344 2.067 . S
Zn335 O336 1.962 . S
Zn335 O338 1.986 . S
Zn335 O340 1.996 . S
Zn335 O343 1.943 . S
O336 Zn335 1.962 . S
O336 C341 1.254 . S
O337 Zn334 2.031 . S
O337 C341 1.269 . S
O338 Zn335 1.986 . S
O338 C345 1.262 . S
O339 Zn334 2.049 . S
O339 C347 1.260 . S
O340 Zn335 1.996 . S
O340 C347 1.257 . S
C341 O336 1.254 . S
C341 O337 1.269 . S
C342 O343 1.249 . S
C342 O344 1.270 . S
O343 Zn335 1.943 . S
O343 C342 1.249 . S
O344 Zn334 2.067 . S
O344 C342 1.270 . S
C345 O338 1.262 . S
C345 O346 1.232 . S
O346 C345 1.232 . S
C347 O339 1.260 . S
C347 O340 1.257 . S
Zn348 O351 2.043 . S
Zn348 O353 2.049 . S
Zn348 O358 2.067 . S
Zn349 O350 1.962 . S
Zn349 O352 1.986 . S
Zn349 O354 1.996 1_455 S
Zn349 O357 1.943 . S
O350 Zn349 1.962 . S
O350 C355 1.254 . S
O351 Zn348 2.043 . S
O351 C355 1.260 1_655 S
O352 Zn349 1.986 . S
O352 C359 1.262 . S
O353 Zn348 2.049 . S
O353 C361 1.260 . S
O354 Zn349 1.996 1_655 S
O354 C361 1.257 . S
C355 O350 1.254 . S
C355 O351 1.260 1_455 S
C356 O357 1.249 1_655 S
C356 O358 1.270 . S
O357 Zn349 1.943 . S
O357 C356 1.249 1_455 S
O358 Zn348 2.067 . S
O358 C356 1.270 . S
C359 O352 1.262 . S
C359 O360 1.232 . S
O360 C359 1.232 . S
C361 O353 1.260 . S
C361 O354 1.257 . S
Zn362 O365 2.031 . S
Zn362 O367 2.049 . S
Zn362 O372 2.067 . S
Zn363 O364 1.962 . S
Zn363 O366 1.986 . S
Zn363 O368 1.996 . S
Zn363 O371 1.943 . S
O364 Zn363 1.962 . S
O364 C369 1.254 . S
O365 Zn362 2.031 . S
O365 C369 1.269 . S
O366 Zn363 1.986 . S
O366 C373 1.262 . S
O367 Zn362 2.049 . S
O367 C375 1.260 . S
O368 Zn363 1.996 . S
O368 C375 1.257 . S
C369 O364 1.254 . S
C369 O365 1.269 . S
C370 O371 1.249 . S
C370 O372 1.270 . S
O371 Zn363 1.943 . S
O371 C370 1.249 . S
O372 Zn362 2.067 . S
O372 C370 1.270 . S
C373 O366 1.262 . S
C373 O374 1.232 . S
O374 C373 1.232 . S
C375 O367 1.260 . S
C375 O368 1.257 . S
C216 N66 1.254 . S
C229 N79 1.552 1_455 S
N92 C249 1.784 . S
C263 N54 1.531 1_655 S
C275 N131 1.554 . S
C289 N158 1.282 . S
N145 C299 1.529 . S
C314 N118 1.790 . S
N148 C328 1.798 . S
C347 N122 1.333 . S
N132 C327 1.244 . S
C345 N161 1.454 . S
N96 C361 1.879 . S
N53 C355 1.662 . S
N67 C359 1.257 . S
N83 C356 1.380 . S
N44 C258 1.429 . S
N187 C257 1.494 . S
C221 N197 1.176 1_565 S
C235 N106 1.433 . S
N57 C272 2.012 1_565 S
C317 N144 1.490 . S
C271 N119 1.501 . S
C303 N157 1.724 . S
C300 N183 1.254 . S
N196 C313 1.552 . S
N105 C277 1.784 . S
C291 N171 1.531 . S
N40 C247 1.554 . S
C261 N2 1.282 . S
C215 N15 1.529 . S
C230 N27 1.788 1_455 S
N18 C342 1.798 . S
N31 C333 1.333 . S
N41 C341 1.244 . S
N5 C331 1.454 1_554 S
C375 N109 1.879 . S
C369 N170 1.662 . S
C373 N184 1.257 . S
N200 C370 1.381 1_556 S
N135 C286 1.429 . S
C285 N70 1.494 . S
C305 N80 1.176 . S
C319 N93 1.433 . S
N174 C244 2.012 . S
C233 N14 1.490 . S
N28 C243 1.501 . S
C219 N1 1.724 . S
