# Generated by pormake.
# Topology anh, (6,3)-cn, num edge types: 1
# Building blocks:
#     Node 0, Type 0, BuildingBlock: PAMTUU_clean_sbu_0, # of connection points: 6
#     Node 1, Type 0, BuildingBlock: PAMTUU_clean_sbu_0, # of connection points: 6
#     Node 2, Type 0, BuildingBlock: PAMTUU_clean_sbu_0, # of connection points: 6
#     Node 3, Type 1, BuildingBlock: VETTIZ_charged_linker_0, # of connection points: 3
#     Node 4, Type 1, BuildingBlock: VETTIZ_charged_linker_0, # of connection points: 3
#     Node 5, Type 1, BuildingBlock: VETTIZ_charged_linker_0, # of connection points: 3
#     Node 6, Type 1, BuildingBlock: VETTIZ_charged_linker_0, # of connection points: 3
#     Node 7, Type 1, BuildingBlock: VETTIZ_charged_linker_0, # of connection points: 3
#     Node 8, Type 1, BuildingBlock: VETTIZ_charged_linker_0, # of connection points: 3
#     Edge 9, Type (0, 1), BuildingBlock: KIFKEQ_clean_linker_1, # of connection points: 2
#     Edge 10, Type (0, 1), BuildingBlock: KIFKEQ_clean_linker_1, # of connection points: 2
#     Edge 11, Type (0, 1), BuildingBlock: KIFKEQ_clean_linker_1, # of connection points: 2
#     Edge 12, Type (0, 1), BuildingBlock: KIFKEQ_clean_linker_1, # of connection points: 2
#     Edge 13, Type (0, 1), BuildingBlock: KIFKEQ_clean_linker_1, # of connection points: 2
#     Edge 14, Type (0, 1), BuildingBlock: KIFKEQ_clean_linker_1, # of connection points: 2
#     Edge 15, Type (0, 1), BuildingBlock: KIFKEQ_clean_linker_1, # of connection points: 2
#     Edge 16, Type (0, 1), BuildingBlock: KIFKEQ_clean_linker_1, # of connection points: 2
#     Edge 17, Type (0, 1), BuildingBlock: KIFKEQ_clean_linker_1, # of connection points: 2
#     Edge 18, Type (0, 1), BuildingBlock: KIFKEQ_clean_linker_1, # of connection points: 2
#     Edge 19, Type (0, 1), BuildingBlock: KIFKEQ_clean_linker_1, # of connection points: 2
#     Edge 20, Type (0, 1), BuildingBlock: KIFKEQ_clean_linker_1, # of connection points: 2
#     Edge 21, Type (0, 1), BuildingBlock: KIFKEQ_clean_linker_1, # of connection points: 2
#     Edge 22, Type (0, 1), BuildingBlock: KIFKEQ_clean_linker_1, # of connection points: 2
#     Edge 23, Type (0, 1), BuildingBlock: KIFKEQ_clean_linker_1, # of connection points: 2
#     Edge 24, Type (0, 1), BuildingBlock: KIFKEQ_clean_linker_1, # of connection points: 2
#     Edge 25, Type (0, 1), BuildingBlock: KIFKEQ_clean_linker_1, # of connection points: 2
#     Edge 26, Type (0, 1), BuildingBlock: KIFKEQ_clean_linker_1, # of connection points: 2
# Relax obj value: 0.239
# Max RMSD: 0.190
# Mean RMSD: 0.158
data_MOF--net-anh--node1-PAMTUU_clean_sbu_0--node2-VETTIZ_charged_linker_0--edge1-KIFKEQ_clean_linker_1
_symmetry_space_group_name_H-M    P1
_symmetry_Int_Tables_number       1
_symmetry_cell_setting            triclinic
loop_
_symmetry_equiv_pos_as_xyz
'x, y, z'
_cell_length_a     37.467127
_cell_length_b     37.416628
_cell_length_c     67.706256
_cell_angle_alpha  93.309477
_cell_angle_beta   90.608953
_cell_angle_gamma 120.1048
loop_
_atom_site_label
_atom_site_type_symbol
_atom_site_fract_x
_atom_site_fract_y
_atom_site_fract_z
_atom_type_partial_charge
Tb0 Tb 0.0968 0.60196 0.16028 0.0
Tb1 Tb 0.14769 0.55583 0.16179 0.0
C2 C 0.1242 0.57639 0.12175 0.0
C3 C 1.00489 0.6069 0.1642 0.0
C4 C 0.92184 0.54405 0.16383 0.0
C5 C 0.93394 0.57749 0.15197 0.0
C6 C 0.97535 0.60879 0.15213 0.0
C7 C 0.99193 0.57522 0.17732 0.0
C8 C 0.95063 0.54391 0.17709 0.0
C9 C 1.0486 0.62997 0.15941 0.0
O10 O 1.04731 0.53448 0.15696 0.0
O11 O 0.08385 0.5043 0.16701 0.0
O12 O 0.15404 0.58515 0.19134 0.0
O13 O 0.09122 0.57954 0.18939 0.0
O14 O 0.18699 0.53952 0.14712 0.0
O15 O 0.16674 0.51974 0.17635 0.0
O16 O 0.19734 0.6222 0.15983 0.0
O17 O 0.16118 0.65538 0.16737 0.0
O18 O 0.12431 0.60747 0.13165 0.0
O19 O 0.12217 0.5461 0.13141 0.0
C20 C 1.04766 0.50121 0.16272 0.0
O21 O 0.07558 0.63929 0.17404 0.0
O22 O 1.05685 0.61391 0.14373 0.0
C23 C 0.12255 0.58398 0.20004 0.0
C24 C 0.23578 0.54075 0.16917 0.0
C25 C 0.32134 0.58216 0.17753 0.0
C26 C 0.29606 0.59073 0.18966 0.0
C27 C 0.25348 0.57045 0.18537 0.0
C28 C 0.26091 0.53113 0.15758 0.0
C29 C 0.30339 0.55177 0.16167 0.0
C30 C 0.19243 0.52352 0.16266 0.0
C31 C 0.19719 0.65719 0.16446 0.0
H32 H 0.91195 0.57773 0.14153 0.0
H33 H 0.98478 0.63243 0.14166 0.0
H34 H 1.01419 0.57262 0.18654 0.0
H35 H 0.94176 0.51812 0.1862 0.0
H36 H 0.3094 0.61406 0.20194 0.0
H37 H 0.23465 0.57885 0.19432 0.0
H38 H 0.24785 0.50866 0.14493 0.0
H39 H 0.32239 0.54437 0.15229 0.0
Tb40 Tb 0.59112 0.06403 0.49579 0.0
Tb41 Tb 0.68897 0.11263 0.50019 0.0
C42 C 0.64359 0.09225 0.45731 0.0
C43 C 0.4851 0.97837 0.50172 0.0
C44 C 0.43107 0.89717 0.51191 0.0
C45 C 0.42768 0.90942 0.49307 0.0
C46 C 0.45435 0.94967 0.48806 0.0
C47 C 0.48883 0.96621 0.52058 0.0
C48 C 0.46171 0.92593 0.52569 0.0
C49 C 0.51349 1.02027 0.49576 0.0
O50 O 0.60666 1.01412 0.50138 0.0
O51 O 0.67655 1.04742 0.49714 0.0
O52 O 0.66571 0.08433 0.52798 0.0
O53 O 0.61053 0.09259 0.52551 0.0
O54 O 0.74896 0.13283 0.49053 0.0
O55 O 0.73927 0.15412 0.51918 0.0
O56 O 0.67207 0.1627 0.50306 0.0
O57 O 0.60399 0.12851 0.49237 0.0
O58 O 0.60768 0.07012 0.46506 0.0
O59 O 0.67798 0.11282 0.46835 0.0
C60 C 0.64141 1.01264 0.49978 0.0
O61 O 0.53597 1.04817 0.5098 0.0
O62 O 0.5349 1.02231 0.48043 0.0
C63 C 0.63593 0.08707 0.53635 0.0
C64 C 0.78488 0.2052 0.49927 0.0
C65 C 0.79403 0.2813 0.48907 0.0
C66 C 0.79922 0.27501 0.50891 0.0
C67 C 0.79493 0.23738 0.51395 0.0
C68 C 0.78386 0.21316 0.47928 0.0
C69 C 0.78839 0.25079 0.47426 0.0
C70 C 0.76486 0.16195 0.50496 0.0
C71 C 0.63821 0.1638 0.49803 0.0
H72 H 0.40377 0.88804 0.4823 0.0
H73 H 0.45098 0.95841 0.47347 0.0
H74 H 0.51261 0.9877 0.53136 0.0
H75 H 0.4648 0.91717 0.54031 0.0
H76 H 0.80387 0.298 0.52068 0.0
H77 H 0.79585 0.23215 0.52948 0.0
H78 H 0.77646 0.18929 0.46752 0.0
H79 H 0.78571 0.25529 0.45877 0.0
Tb80 Tb 0.61912 0.55298 0.82612 0.0
Tb81 Tb 0.669 0.65056 0.83234 0.0
C82 C 0.64611 0.60612 0.78987 0.0
C83 C 0.57515 0.43923 0.832 0.0
C84 C 0.55963 0.36306 0.84534 0.0
C85 C 0.58981 0.38293 0.83142 0.0
C86 C 0.59738 0.42063 0.82474 0.0
C87 C 0.547 0.42065 0.84688 0.0
C88 C 0.53942 0.383 0.85353 0.0
C89 C 0.57734 0.47501 0.82276 0.0
O90 O 0.68533 0.56744 0.82532 0.0
O91 O 0.71919 0.63558 0.83745 0.0
O92 O 0.64041 0.62668 0.86003 0.0
O93 O 0.64248 0.56735 0.85651 0.0
O94 O 0.69052 0.70789 0.8204 0.0
O95 O 0.70366 0.70471 0.85115 0.0
O96 O 0.60374 0.63742 0.82774 0.0
O97 O 0.5696 0.56853 0.83281 0.0
O98 O 0.61511 0.57481 0.79754 0.0
O99 O 0.67623 0.63499 0.8015 0.0
C100 C 0.72021 0.60131 0.83209 0.0
O101 O 0.56807 0.49838 0.83396 0.0
O102 O 0.60845 0.49671 0.8118 0.0
C103 C 0.64009 0.59537 0.86783 0.0
C104 C 0.67865 0.74906 0.84302 0.0
C105 C 0.6125 0.76336 0.83853 0.0
C106 C 0.64926 0.78698 0.82878 0.0
C107 C 0.68222 0.77991 0.83105 0.0
C108 C 0.64437 0.72994 0.85497 0.0
C109 C 0.61152 0.7372 0.85279 0.0
C110 C 0.70145 0.7276 0.83789 0.0
C111 C 0.5686 0.60315 0.83089 0.0
H112 H 0.60545 0.36795 0.82465 0.0
H113 H 0.61909 0.43407 0.8132 0.0
H114 H 0.52925 0.43413 0.85274 0.0
H115 H 0.51615 0.36841 0.86432 0.0
H116 H 0.65102 0.80809 0.81803 0.0
H117 H 0.70824 0.79489 0.82167 0.0
H118 H 0.64065 0.7058 0.86428 0.0
H119 H 0.58366 0.71882 0.86058 0.0
C120 C 0.73395 0.18942 0.17976 0.0
C121 C 0.77025 0.22381 0.19031 0.0
C122 C 0.77053 0.22334 0.21108 0.0
C123 C 0.70375 0.15858 0.2109 0.0
C124 C 0.70094 0.15676 0.19047 0.0
C125 C 0.6599 0.11628 0.18316 0.0
H126 H 0.47709 0.94146 0.21551 0.0
C127 C 0.6665 0.12195 0.21855 0.0
C128 C 0.63922 0.09574 0.20251 0.0
H129 H 0.50336 0.95817 0.15394 0.0
H130 H 0.56951 1.02345 0.16342 0.0
H131 H 0.56264 0.95936 0.22819 0.0
H132 H 0.50477 1.03313 0.22888 0.0
H133 H 0.53415 1.04807 0.25125 0.0
H134 H 0.4938 0.9948 0.24621 0.0
H135 H 0.52704 0.95564 0.24654 0.0
H136 H 0.58192 0.99078 0.25023 0.0
C137 C 0.6702 0.08763 0.17041 0.0
C138 C 0.6319 0.12737 0.17147 0.0
C139 C 0.6615 0.11268 0.29402 0.0
C140 C 0.63207 0.08428 0.30645 0.0
C141 C 0.59482 0.05172 0.29748 0.0
C142 C 0.58747 1.04667 0.27689 0.0
C143 C 0.61747 0.07444 0.2646 0.0
C144 C 0.65346 0.10708 0.27326 0.0
C145 C 0.68116 0.13414 0.25791 0.0
C146 C 0.65637 0.11181 0.23854 0.0
C147 C 0.61917 0.07675 0.2426 0.0
C148 C 0.72217 0.13341 0.25939 0.0
C149 C 0.68572 0.17764 0.26174 0.0
C150 C 0.49597 0.9587 0.20368 0.0
C151 C 0.48281 0.94329 0.18386 0.0
C152 C 0.51119 0.96799 0.1695 0.0
C153 C 0.54978 1.00616 0.17495 0.0
C154 C 0.56179 1.02064 0.19515 0.0
C155 C 0.53419 0.99567 0.20878 0.0
C156 C 0.55 1.01144 0.22957 0.0
C157 C 0.5912 0.05009 0.2269 0.0
C158 C 0.59993 0.05778 0.20664 0.0
C159 C 0.55551 0.97772 0.23932 0.0
C160 C 0.51916 1.02221 0.23968 0.0
H161 H 0.74279 0.19534 0.23687 0.0
H162 H 0.73174 0.18758 0.16375 0.0
H163 H 0.62506 0.14849 0.18076 0.0
H164 H 0.60219 0.0991 0.16676 0.0
H165 H 0.64713 0.14313 0.15804 0.0
H166 H 0.69098 0.08032 0.17893 0.0
H167 H 0.68595 0.10268 0.15694 0.0
H168 H 0.64178 0.05807 0.16572 0.0
H169 H 0.69046 0.13828 0.30021 0.0
H170 H 0.57082 1.02998 0.30643 0.0
H171 H 0.55843 1.02095 0.27143 0.0
H172 H 0.71653 0.10269 0.26352 0.0
H173 H 0.74407 0.15707 0.27081 0.0
H174 H 0.73752 0.13789 0.24515 0.0
H175 H 0.65849 0.17579 0.26911 0.0
H176 H 0.68703 0.19251 0.24789 0.0
H177 H 0.71346 0.19858 0.27142 0.0
H178 H 0.79628 0.24803 0.21996 0.0
C179 C 0.73857 0.19203 0.22111 0.0
C180 C 0.64132 0.69873 0.51301 0.0
C181 C 0.64199 0.73415 0.52363 0.0
C182 C 0.64236 0.73397 0.54437 0.0
C183 C 0.64174 0.66781 0.54411 0.0
C184 C 0.64139 0.66574 0.52366 0.0
C185 C 0.64177 0.62538 0.51629 0.0
H186 H 0.63671 0.44293 0.54788 0.0
C187 C 0.642 0.63078 0.55166 0.0
C188 C 0.64196 0.6044 0.53559 0.0
H189 H 0.64556 0.47106 0.48682 0.0
H190 H 0.64557 0.53649 0.49652 0.0
H191 H 0.70547 0.53017 0.56213 0.0
H192 H 0.57343 0.4702 0.56058 0.0
H193 H 0.58998 0.49837 0.58366 0.0
H194 H 0.60276 0.45868 0.57755 0.0
H195 H 0.67556 0.49521 0.58022 0.0
H196 H 0.69469 0.55021 0.58375 0.0
C197 C 0.68103 0.63707 0.50499 0.0
C198 C 0.60287 0.59688 0.50316 0.0
C199 C 0.64426 0.62357 0.62705 0.0
C200 C 0.64645 0.59569 0.63949 0.0
C201 C 0.64659 0.56077 0.63063 0.0
C202 C 0.64464 0.55366 0.60996 0.0
C203 C 0.64316 0.58206 0.59762 0.0
C204 C 0.64312 0.61633 0.60628 0.0
C205 C 0.64257 0.64369 0.59096 0.0
C206 C 0.64227 0.62029 0.5716 0.0
C207 C 0.6423 0.58404 0.5756 0.0
C208 C 0.68296 0.68633 0.59432 0.0
C209 C 0.60197 0.645 0.59295 0.0
C210 C 0.63817 0.46227 0.53625 0.0
C211 C 0.64039 0.44985 0.51646 0.0
C212 C 0.64361 0.47844 0.50232 0.0
C213 C 0.64353 0.51657 0.5079 0.0
C214 C 0.64119 0.52797 0.52805 0.0
C215 C 0.63926 0.50028 0.54153 0.0
C216 C 0.64034 0.51605 0.56237 0.0
C217 C 0.6416 0.55673 0.55984 0.0
C218 C 0.64179 0.56558 0.53964 0.0
C219 C 0.68079 0.52308 0.57283 0.0
C220 C 0.59982 0.48427 0.57171 0.0
H221 H 0.64226 0.70551 0.57014 0.0
H222 H 0.6413 0.69705 0.49701 0.0
H223 H 0.57467 0.58904 0.51142 0.0
H224 H 0.60203 0.56759 0.49837 0.0
H225 H 0.60209 0.61229 0.48974 0.0
H226 H 0.70897 0.65822 0.51454 0.0
H227 H 0.68148 0.65302 0.49157 0.0
H228 H 0.68281 0.60913 0.50031 0.0
H229 H 0.64434 0.6509 0.63334 0.0
H230 H 0.6477 0.53848 0.63977 0.0
H231 H 0.64429 0.52606 0.60448 0.0
H232 H 0.70848 0.68309 0.60087 0.0
H233 H 0.67851 0.70791 0.60456 0.0
H234 H 0.69517 0.70114 0.58037 0.0
H235 H 0.57664 0.61537 0.59795 0.0
H236 H 0.58977 0.64854 0.57871 0.0
H237 H 0.60613 0.67019 0.60392 0.0
H238 H 0.64284 0.75935 0.55319 0.0
C239 C 0.64206 0.70195 0.55437 0.0
C240 C 0.25353 0.60248 0.84615 0.0
C241 C 0.28731 0.60155 0.85665 0.0
C242 C 0.28473 0.60083 0.87735 0.0
C243 C 0.21868 0.60006 0.87715 0.0
C244 C 0.21918 0.60158 0.85681 0.0
C245 C 0.17911 0.60142 0.84957 0.0
H246 H 0.99466 0.59623 0.88211 0.0
C247 C 0.1801 0.59818 0.88473 0.0
C248 C 0.15541 0.59908 0.86881 0.0
H249 H 1.02517 0.60248 0.82085 0.0
H250 H 0.08942 0.60155 0.83007 0.0
H251 H 1.01449 0.52761 0.88952 0.0
H252 H 0.08147 0.65965 0.9001 0.0
H253 H 0.09202 0.6411 0.92124 0.0
H254 H 1.03939 0.6263 0.91467 0.0
H255 H 1.00465 0.5535 0.91 0.0
H256 H 1.04184 0.53646 0.91208 0.0
C257 C 0.15296 0.56329 0.83522 0.0
C258 C 0.19106 0.64157 0.83966 0.0
C259 C 0.16097 0.5875 0.95954 0.0
C260 C 0.12868 0.58247 0.97174 0.0
C261 C 0.0937 0.58091 0.96288 0.0
C262 C 0.09085 0.58446 0.94248 0.0
C263 C 0.12311 0.58915 0.93035 0.0
C264 C 0.15721 0.59026 0.93896 0.0
C265 C 0.18769 0.59385 0.92376 0.0
C266 C 0.16655 0.59512 0.90454 0.0
C267 C 0.12893 0.5928 0.90855 0.0
C268 C 0.19131 0.55425 0.92386 0.0
C269 C 0.22852 0.63526 0.92897 0.0
C270 C 1.01474 0.5981 0.87034 0.0
C271 C 1.00345 0.6003 0.8507 0.0
C272 C 1.03172 0.60098 0.83629 0.0
C273 C 1.06933 0.60059 0.8416 0.0
C274 C 0.07974 0.59882 0.86165 0.0
C275 C 1.05135 0.59718 0.87526 0.0
C276 C 1.06333 0.59344 0.89574 0.0
C277 C 0.10399 0.59448 0.89302 0.0
C278 C 0.11567 0.59759 0.87294 0.0
C279 C 1.02939 0.55082 0.90237 0.0
C280 C 1.06914 0.63177 0.90877 0.0
H281 H 0.25371 0.59962 0.90305 0.0
H282 H 0.25342 0.60302 0.83019 0.0
H283 H 0.21036 0.66897 0.85011 0.0
H284 H 0.16314 0.64267 0.83505 0.0
H285 H 0.20898 0.64386 0.82634 0.0
H286 H 0.14496 0.53444 0.84246 0.0
H287 H 0.17019 0.56433 0.8218 0.0
H288 H 0.12379 0.56188 0.83051 0.0
H289 H 0.1882 0.58848 0.96579 0.0
H290 H 1.06858 0.57756 0.97186 0.0
H291 H 1.06345 0.58357 0.93705 0.0
H292 H 0.16227 0.52732 0.92845 0.0
H293 H 0.21659 0.55886 0.93429 0.0
H294 H 0.19605 0.54381 0.909 0.0
H295 H 0.22237 0.65916 0.93599 0.0
H296 H 0.24585 0.64946 0.91578 0.0
H297 H 0.24883 0.63107 0.9395 0.0
H298 H 0.3089 0.60062 0.8862 0.0
C299 C 0.25183 0.60024 0.88734 0.0
C300 C 0.92004 0.56262 0.452 0.0
C301 C 0.88624 0.54127 0.43827 0.0
C302 C 0.8927 0.54922 0.4181 0.0
C303 C 0.96661 0.58992 0.42523 0.0
C304 C 0.95976 0.58617 0.4452 0.0
C305 C 0.99918 0.60438 0.45769 0.0
H306 H 0.20411 0.67709 0.46339 0.0
C307 C 1.01155 0.60861 0.42283 0.0
C308 C 1.03067 0.61719 0.44183 0.0
H309 H 0.12432 0.6639 0.51142 0.0
H310 H 1.06617 0.63941 0.48799 0.0
H311 H 0.13826 0.59218 0.43636 0.0
H312 H 0.17172 0.72036 0.43702 0.0
H313 H 0.16294 0.70148 0.41207 0.0
H314 H 0.20392 0.70201 0.4266 0.0
H315 H 0.18736 0.63204 0.42885 0.0
H316 H 0.14323 0.60569 0.4117 0.0
C317 C 0.99812 0.56981 0.46974 0.0
C318 C 1.0038 0.64232 0.47049 0.0
C319 C 1.06679 0.61469 0.3541 0.0
C320 C 0.10619 0.62586 0.34737 0.0
C321 C 0.13954 0.64004 0.3613 0.0
C322 C 0.1337 0.64284 0.38162 0.0
C323 C 0.09402 0.631 0.38813 0.0
C324 C 1.06142 0.61743 0.37444 0.0
C325 C 1.02119 0.60488 0.38409 0.0
C326 C 1.03522 0.61415 0.40583 0.0
C327 C 0.07781 0.62903 0.40807 0.0
C328 C 0.99189 0.55794 0.37873 0.0
C329 C 1.00455 0.63285 0.37733 0.0
C330 C 0.17382 0.66776 0.46887 0.0
C331 C 0.16833 0.67129 0.48924 0.0
C332 C 0.12895 0.66077 0.49579 0.0
C333 C 0.09543 0.64693 0.48216 0.0
C334 C 0.10148 0.64386 0.46179 0.0
C335 C 0.14026 0.65453 0.45546 0.0
C336 C 0.1416 0.65211 0.43325 0.0
C337 C 0.09709 0.63797 0.42729 0.0
C338 C 0.07371 0.63261 0.44405 0.0
C339 C 0.15347 0.61904 0.42705 0.0
C340 C 0.17176 0.69607 0.42675 0.0
H341 H 0.93596 0.5766 0.39587 0.0
H342 H 0.91662 0.55743 0.4676 0.0
H343 H 0.98843 0.6571 0.46302 0.0
H344 H 1.0364 0.66727 0.47292 0.0
H345 H 0.98971 0.63324 0.48503 0.0
H346 H 0.98391 0.53984 0.46059 0.0
H347 H 0.9797 0.56514 0.48308 0.0
H348 H 1.02896 0.57577 0.47448 0.0
H349 H 1.0404 0.60305 0.34378 0.0
H350 H 0.17024 0.64921 0.35645 0.0
H351 H 0.1603 0.65383 0.39147 0.0
H352 H 1.00939 0.54113 0.37816 0.0
H353 H 0.97595 0.55245 0.36401 0.0
H354 H 0.96856 0.54264 0.3898 0.0
H355 H 1.03031 0.66504 0.37601 0.0
H356 H 0.98406 0.63587 0.38807 0.0
H357 H 0.98781 0.62116 0.36265 0.0
H358 H 0.86713 0.53416 0.40723 0.0
C359 C 0.93275 0.57354 0.41151 0.0
C360 C 0.40009 0.83723 0.77779 0.0
C361 C 0.4136 0.81034 0.7705 0.0
C362 C 0.42636 0.81308 0.7508 0.0
C363 C 0.42217 0.8752 0.74825 0.0
C364 C 0.40649 0.8704 0.76692 0.0
C365 C 0.40588 0.90812 0.77526 0.0
H366 H 0.47975 0.11177 0.7724 0.0
C367 C 0.43236 0.91671 0.7425 0.0
C368 C 0.42311 0.93613 0.75838 0.0
H369 H 0.42198 1.03427 0.82057 0.0
H370 H 0.40241 0.97321 0.79881 0.0
H371 H 0.52801 0.06691 0.75616 0.0
H372 H 0.41165 0.05499 0.73921 0.0
H373 H 0.42672 1.03779 0.71786 0.0
H374 H 0.45816 0.09073 0.72802 0.0
H375 H 0.52101 0.10667 0.74627 0.0
H376 H 0.52461 0.06911 0.73024 0.0
C377 C 0.43473 0.92568 0.79436 0.0
C378 C 0.36048 0.89591 0.77854 0.0
C379 C 0.50085 0.96986 0.67746 0.0
C380 C 0.51255 1.00695 0.66849 0.0
C381 C 0.50573 1.03718 0.67817 0.0
C382 C 0.48823 1.03107 0.69667 0.0
C383 C 0.47756 0.99443 0.70571 0.0
C384 C 0.48271 0.96398 0.69593 0.0
C385 C 0.46683 0.92603 0.70749 0.0
C386 C 0.45109 0.93884 0.72564 0.0
C387 C 0.45885 0.97949 0.72471 0.0
C388 C 0.5038 0.92014 0.71282 0.0
C389 C 0.43138 0.88899 0.69501 0.0
C390 C 0.46311 0.08158 0.77827 0.0
C391 C 0.45361 0.07778 0.79835 0.0
C392 C 0.43018 1.038 0.80523 0.0
C393 C 0.41928 1.00266 0.79264 0.0
C394 C 0.43269 1.00728 0.77313 0.0
C395 C 0.45277 1.04612 0.76601 0.0
C396 C 0.46454 1.04517 0.7449 0.0
C397 C 0.45111 0.99963 0.74109 0.0
C398 C 0.43266 0.97777 0.7577 0.0
C399 C 0.512 0.07349 0.74419 0.0
C400 C 0.43926 0.05801 0.73175 0.0
H401 H 0.44196 0.84674 0.72506 0.0
H402 H 0.38953 0.83571 0.79272 0.0
H403 H 0.34005 0.87568 0.76574 0.0
H404 H 0.35598 0.92296 0.77976 0.0
H405 H 0.3493 0.8786 0.79203 0.0
H406 H 0.45623 0.91341 0.79536 0.0
H407 H 0.41669 0.91776 0.80794 0.0
H408 H 0.45558 0.95961 0.79486 0.0
H409 H 0.50512 0.94585 0.67013 0.0
H410 H 0.51445 0.06591 0.67147 0.0
H411 H 0.48415 0.05535 0.70336 0.0
H412 H 0.53275 0.95055 0.71552 0.0
H413 H 0.50907 0.90237 0.70063 0.0
H414 H 0.50008 0.9047 0.72667 0.0
H415 H 0.41129 0.89867 0.68756 0.0
H416 H 0.41062 0.86356 0.70403 0.0
H417 H 0.44372 0.8766 0.68333 0.0
H418 H 0.43697 0.79289 0.74463 0.0
C419 C 0.43015 0.84506 0.73955 0.0
C420 C 0.64326 0.42483 0.1214 0.0
C421 C 0.65583 0.40265 0.10862 0.0
C422 C 0.64565 0.39862 0.08816 0.0
C423 C 0.61951 0.44589 0.09333 0.0
C424 C 0.62579 0.44646 0.1135 0.0
C425 C 0.61707 0.47646 0.12505 0.0
H426 H 0.55769 0.61899 0.1263 0.0
C427 C 0.60756 0.47726 0.08989 0.0
C428 C 0.60597 0.49504 0.10846 0.0
H429 H 0.58636 0.56898 0.17617 0.0
H430 H 0.60501 0.52906 0.15394 0.0
H431 H 0.63827 0.63329 0.10189 0.0
H432 H 0.51059 0.53728 0.09938 0.0
H433 H 0.5259 0.54721 0.07487 0.0
H434 H 0.52782 0.58798 0.09118 0.0
H435 H 0.59878 0.63914 0.0899 0.0
H436 H 0.62482 0.61598 0.07686 0.0
C437 C 0.65721 0.50914 0.13688 0.0
C438 C 0.57982 0.45121 0.13795 0.0
C439 C 0.59747 0.51497 0.01997 0.0
C440 C 0.59107 0.54571 0.01247 0.0
C441 C 0.58185 0.57023 0.02564 0.0
C442 C 0.58015 0.56504 0.04599 0.0
C443 C 0.58803 0.53518 0.05333 0.0
C444 C 0.59595 0.51035 0.04036 0.0
C445 C 0.60474 0.48108 0.05091 0.0
C446 C 0.60126 0.4928 0.07234 0.0
C447 C 0.59164 0.52462 0.07364 0.0
C448 C 0.64919 0.49117 0.04641 0.0
C449 C 0.57077 0.43617 0.04434 0.0
C450 C 0.56917 0.60044 0.1325 0.0
C451 C 0.57022 0.59693 0.15308 0.0
C452 C 0.58472 0.5718 0.1604 0.0
C453 C 0.59529 0.54843 0.14743 0.0
C454 C 0.5916 0.55034 0.12689 0.0
C455 C 0.57989 0.57693 0.11975 0.0
C456 C 0.57811 0.57515 0.09747 0.0
C457 C 0.58899 0.54179 0.09245 0.0
C458 C 0.59664 0.52736 0.10973 0.0
C459 C 0.61141 0.61804 0.09103 0.0
C460 C 0.53343 0.56147 0.09019 0.0
H461 H 0.62223 0.41741 0.06468 0.0
H462 H 0.65086 0.42928 0.13715 0.0
H463 H 0.55699 0.42128 0.12995 0.0
H464 H 0.5622 0.46695 0.14155 0.0
H465 H 0.58993 0.44401 0.15191 0.0
H466 H 0.68515 0.51462 0.12891 0.0
H467 H 0.65942 0.49885 0.15168 0.0
H468 H 0.66007 0.54001 0.13878 0.0
H469 H 0.6051 0.49595 0.01027 0.0
H470 H 0.57618 0.59368 0.02017 0.0
H471 H 0.57328 0.58486 0.05525 0.0
H472 H 0.67026 0.52521 0.04627 0.0
H473 H 0.6499 0.47684 0.03169 0.0
H474 H 0.6632 0.48126 0.05768 0.0
H475 H 0.54038 0.43418 0.04193 0.0
H476 H 0.56561 0.41418 0.05568 0.0
H477 H 0.57821 0.42515 0.03025 0.0
H478 H 0.65427 0.38112 0.07798 0.0
C479 C 0.62741 0.42004 0.08045 0.0
H480 H 0.37805 0.62569 0.15122 0.0
H481 H 0.36593 0.58913 0.21115 0.0
H482 H 0.45101 0.64793 0.15325 0.0
H483 H 0.4398 0.61202 0.21346 0.0
H484 H 0.51934 0.55873 0.18281 0.0
H485 H 0.46876 0.57405 0.19627 0.0
H486 H 0.52212 0.68741 0.16633 0.0
H487 H 0.57342 0.67196 0.15273 0.0
C488 C 0.39154 0.62375 0.16507 0.0
C489 C 0.36655 0.60491 0.18086 0.0
C490 C 0.4335 0.63698 0.16637 0.0
C491 C 0.45118 0.63125 0.18346 0.0
C492 C 0.42691 0.61639 0.20004 0.0
C493 C 0.38477 0.60335 0.19875 0.0
C494 C 0.52174 0.58796 0.17981 0.0
C495 C 0.54964 0.61352 0.1662 0.0
C496 C 0.49261 0.59687 0.18763 0.0
C497 C 0.49072 0.63143 0.18193 0.0
C498 C 0.52227 0.66003 0.17059 0.0
C499 C 0.5515 0.65109 0.16274 0.0
H500 H 0.74149 0.28519 0.46207 0.0
H501 H 0.84243 0.36139 0.50445 0.0
H502 H 0.74411 0.34718 0.45066 0.0
H503 H 0.84445 0.42303 0.49331 0.0
H504 H 0.84658 0.53079 0.47346 0.0
H505 H 0.80823 0.46435 0.48813 0.0
H506 H 0.80179 0.40083 0.43178 0.0
H507 H 0.84102 0.46634 0.41736 0.0
C508 C 0.76406 0.31514 0.46904 0.0
C509 C 0.79258 0.31852 0.48379 0.0
C510 C 0.76509 0.35048 0.46269 0.0
C511 C 0.79447 0.38988 0.47106 0.0
C512 C 0.82098 0.39302 0.48678 0.0
C513 C 0.82009 0.3577 0.49306 0.0
C514 C 0.83582 0.50259 0.46404 0.0
C515 C 0.84849 0.50409 0.44444 0.0
C516 C 0.8138 0.46459 0.47246 0.0
C517 C 0.80322 0.42761 0.46124 0.0
C518 C 0.80972 0.42885 0.44085 0.0
C519 C 0.83224 0.46674 0.43252 0.0
H520 H 0.55132 0.76511 0.85995 0.0
H521 H 0.58498 0.75135 0.80038 0.0
H522 H 0.48761 0.76022 0.8467 0.0
H523 H 0.52256 0.74731 0.78723 0.0
H524 H 0.44332 0.83522 0.80884 0.0
H525 H 0.47924 0.81036 0.82828 0.0
H526 H 0.44683 0.71008 0.78387 0.0
H527 H 0.40959 0.73474 0.76413 0.0
C528 C 0.54501 0.76096 0.84408 0.0
C529 C 0.57363 0.76008 0.83114 0.0
C530 C 0.50857 0.7579 0.83651 0.0
C531 C 0.50005 0.75334 0.81592 0.0
C532 C 0.52778 0.7502 0.80315 0.0
C533 C 0.5641 0.75356 0.81067 0.0
C534 C 0.44178 0.80665 0.80347 0.0
C535 C 0.42405 0.78749 0.78459 0.0
C536 C 0.46266 0.79237 0.81476 0.0
C537 C 0.46669 0.75885 0.80741 0.0
C538 C 0.44493 0.73664 0.78968 0.0
C539 C 0.42375 0.75084 0.77835 0.0
H540 H 0.84816 0.52786 0.17833 0.0
H541 H 0.9051 0.47725 0.13972 0.0
H542 H 0.77987 0.47103 0.16674 0.0
H543 H 0.83702 0.4199 0.12827 0.0
H544 H 0.66133 0.37445 0.14467 0.0
H545 H 0.72692 0.39373 0.16176 0.0
H546 H 0.7885 0.42989 0.1068 0.0
H547 H 0.72416 0.41253 0.09001 0.0
C548 C 0.84587 0.50371 0.16785 0.0
C549 C 0.88137 0.50655 0.15984 0.0
C550 C 0.80696 0.47095 0.16136 0.0
C551 C 0.80317 0.44095 0.14661 0.0
C552 C 0.83905 0.4425 0.13965 0.0
C553 C 0.87787 0.47519 0.14618 0.0
C554 C 0.68865 0.38512 0.1361 0.0
C555 C 0.6878 0.39378 0.11618 0.0
C556 C 0.72613 0.39607 0.1459 0.0
C557 C 0.76291 0.41457 0.13573 0.0
C558 C 0.7607 0.41598 0.11509 0.0
C559 C 0.72345 0.40575 0.10538 0.0
H560 H 0.38546 0.87489 0.54488 0.0
H561 H 0.4081 0.8247 0.49061 0.0
H562 H 0.32308 0.80836 0.54874 0.0
H563 H 0.34563 0.75919 0.4939 0.0
H564 H 0.22888 0.65158 0.49317 0.0
H565 H 0.2982 0.69728 0.50797 0.0
H566 H 0.25989 0.78316 0.52988 0.0
H567 H 0.19078 0.73682 0.51581 0.0
C568 C 0.37779 0.84919 0.53414 0.0
C569 C 0.40077 0.85502 0.51717 0.0
C570 C 0.34198 0.8112 0.53627 0.0
C571 C 0.3287 0.77867 0.52141 0.0
C572 C 0.35468 0.7833 0.50571 0.0
C573 C 0.39034 0.8211 0.50363 0.0
C574 C 0.2351 0.67951 0.50185 0.0
C575 C 0.20498 0.69127 0.50303 0.0
C576 C 0.27473 0.70572 0.51028 0.0
C577 C 0.28502 0.7445 0.51958 0.0
C578 C 0.25327 0.7536 0.52287 0.0
C579 C 0.21353 0.72709 0.5147 0.0
H580 H 0.60482 0.32567 0.85276 0.0
H581 H 0.47986 0.30096 0.84427 0.0
H582 H 0.57973 0.25135 0.84909 0.0
H583 H 0.455 0.22747 0.83997 0.0
H584 H 0.4149 0.09598 0.82823 0.0
H585 H 0.44211 0.16142 0.84844 0.0
H586 H 0.55759 0.20945 0.81901 0.0
H587 H 0.53128 0.14398 0.79984 0.0
C588 C 0.57194 0.30427 0.85059 0.0
C589 C 0.54438 0.31902 0.84846 0.0
C590 C 0.55754 0.26179 0.84843 0.0
C591 C 0.51547 0.23349 0.84373 0.0
C592 C 0.48753 0.24817 0.84368 0.0
C593 C 0.50185 0.2905 0.84609 0.0
C594 C 0.44639 0.12031 0.82648 0.0
C595 C 0.47061 0.11537 0.8121 0.0
C596 C 0.46194 0.1578 0.83798 0.0
C597 C 0.50191 0.19091 0.83524 0.0
C598 C 0.52688 0.18468 0.82176 0.0
C599 C 0.51147 0.14734 0.81041 0.0
H600 H 0.57545 0.93167 0.50465 0.0
H601 H 0.70713 0.99636 0.49951 0.0
H602 H 0.5757 0.86691 0.50818 0.0
H603 H 0.70762 0.93189 0.5028 0.0
H604 H 0.70638 0.81582 0.52549 0.0
H605 H 0.70606 0.87947 0.51963 0.0
H606 H 0.57862 0.80718 0.49884 0.0
H607 H 0.57934 0.74337 0.50501 0.0
C608 C 0.60474 0.93251 0.50416 0.0
C609 C 0.64127 0.9709 0.50171 0.0
C610 C 0.60492 0.8945 0.50613 0.0
C611 C 0.64171 0.89207 0.50593 0.0
C612 C 0.67819 0.93064 0.50342 0.0
C613 C 0.67795 0.96852 0.50136 0.0
C614 C 0.67847 0.81306 0.51902 0.0
C615 C 0.64346 0.77288 0.51506 0.0
C616 C 0.67809 0.8504 0.51571 0.0
C617 C 0.64232 0.8506 0.50856 0.0
C618 C 0.60723 0.81021 0.50444 0.0
C619 C 0.60776 0.77272 0.50764 0.0
H620 H 0.79667 0.6608 0.85038 0.0
H621 H 0.74106 0.54141 0.81821 0.0
H622 H 0.8619 0.6611 0.85372 0.0
H623 H 0.80666 0.54167 0.82143 0.0
H624 H 0.94338 0.5648 0.8184 0.0
H625 H 0.87785 0.56443 0.81362 0.0
H626 H 0.90361 0.63874 0.86854 0.0
H627 H 0.96836 0.63921 0.87317 0.0
C628 C 0.79792 0.63432 0.84392 0.0
C629 C 0.76192 0.60107 0.83398 0.0
C630 C 0.8361 0.63435 0.84596 0.0
C631 C 0.84146 0.60135 0.838 0.0
C632 C 0.80551 0.56823 0.82783 0.0
C633 C 0.76704 0.56796 0.82602 0.0
C634 C 0.93553 0.58147 0.82947 0.0
C635 C 0.96286 0.60189 0.84633 0.0
C636 C 0.89701 0.58095 0.8268 0.0
C637 C 0.8835 0.60152 0.8406 0.0
C638 C 0.91137 0.62254 0.85719 0.0
C639 C 0.9493 0.6225 0.85999 0.0
H640 H 0.27788 0.6761 0.15549 0.0
H641 H 0.21372 0.73691 0.17823 0.0
H642 H 0.34337 0.7422 0.15888 0.0
H643 H 0.27906 0.80296 0.18173 0.0
H644 H 0.40819 0.9137 0.20305 0.0
H645 H 0.34322 0.84836 0.1983 0.0
H646 H 0.39221 0.81061 0.14937 0.0
H647 H 0.45801 0.87666 0.15429 0.0
C648 C 0.27727 0.7034 0.16121 0.0
C649 C 0.2389 0.69958 0.16649 0.0
C650 C 0.31558 0.74215 0.16311 0.0
C651 C 0.31842 0.77982 0.17071 0.0
C652 C 0.27994 0.77582 0.17603 0.0
C653 C 0.24158 0.73719 0.17389 0.0
C654 C 0.40576 0.89184 0.19118 0.0
C655 C 0.44022 0.90219 0.17924 0.0
C656 C 0.36742 0.85357 0.18829 0.0
C657 C 0.36053 0.82223 0.17336 0.0
C658 C 0.39488 0.83255 0.16125 0.0
C659 C 0.43326 0.87135 0.16397 0.0
H660 H 0.57236 0.17974 0.49999 0.0
H661 H 0.70494 0.24601 0.49962 0.0
H662 H 0.57286 0.24568 0.50339 0.0
H663 H 0.70551 0.3122 0.50246 0.0
H664 H 0.69021 0.42953 0.49213 0.0
H665 H 0.69066 0.3638 0.48747 0.0
H666 H 0.58806 0.30659 0.52533 0.0
H667 H 0.58843 0.37208 0.53033 0.0
C668 C 0.60188 0.2082 0.50048 0.0
C669 C 0.63858 0.20598 0.49945 0.0
C670 C 0.60222 0.24679 0.50256 0.0
C671 C 0.63924 0.28601 0.50329 0.0
C672 C 0.67596 0.28377 0.50188 0.0
C673 C 0.67565 0.24511 0.50029 0.0
C674 C 0.66737 0.403 0.49938 0.0
C675 C 0.6391 0.40759 0.51162 0.0
C676 C 0.66782 0.36471 0.49682 0.0
C677 C 0.6393 0.32814 0.50589 0.0
C678 C 0.61059 0.33274 0.51775 0.0
C679 C 0.61087 0.3711 0.52071 0.0
H680 H 0.54976 0.66727 0.82716 0.0
H681 H 0.48976 0.53871 0.83884 0.0
H682 H 0.48451 0.66681 0.83126 0.0
H683 H 0.42465 0.53742 0.84226 0.0
H684 H 0.3108 0.54342 0.86198 0.0
H685 H 0.37488 0.54454 0.85584 0.0
H686 H 0.41917 0.65799 0.82684 0.0
H687 H 0.3542 0.65697 0.83372 0.0
C688 C 0.52285 0.63866 0.83064 0.0
C689 C 0.52682 0.60317 0.8328 0.0
C690 C 0.48442 0.63822 0.83291 0.0
C691 C 0.447 0.60218 0.83746 0.0
C692 C 0.45124 0.56665 0.83928 0.0
C693 C 0.48955 0.56718 0.83709 0.0
C694 C 0.33356 0.56836 0.85384 0.0
C695 C 0.32511 0.59942 0.84808 0.0
C696 C 0.37149 0.56915 0.85023 0.0
C697 C 0.40462 0.60129 0.84056 0.0
C698 C 0.396 0.6323 0.83441 0.0
C699 C 0.35762 0.63143 0.83808 0.0
H700 H 0.96449 0.48102 0.15744 0.0
H701 H 1.03467 0.42394 0.17305 0.0
H702 H 0.90007 0.41626 0.16206 0.0
H703 H 0.97106 0.35907 0.17698 0.0
H704 H 0.85253 0.24866 0.19781 0.0
H705 H 0.9152 0.31174 0.19119 0.0
H706 H 0.84358 0.35011 0.15747 0.0
H707 H 0.78001 0.28635 0.16481 0.0
C708 C 0.96658 0.45475 0.16177 0.0
C709 C 1.00633 0.45939 0.16485 0.0
C710 C 0.92885 0.41664 0.16436 0.0
C711 C 0.92806 0.3802 0.17014 0.0
C712 C 0.96811 0.38503 0.17295 0.0
C713 C 1.00568 0.42311 0.17048 0.0
C714 C 0.84969 0.2699 0.18859 0.0
C715 C 0.80965 0.26031 0.1817 0.0
C716 C 0.88664 0.30717 0.18468 0.0
C717 C 0.88683 0.33836 0.17355 0.0
C718 C 0.84667 0.32846 0.16623 0.0
C719 C 0.80937 0.29076 0.17018 0.0
H720 H 0.14926 0.64175 0.09861 0.0
H721 H 0.10509 0.51045 0.09488 0.0
H722 H 0.1529 0.64179 0.06261 0.0
H723 H 0.10815 0.51045 0.0587 0.0
H724 H 1.06982 0.52507 0.99424 0.0
H725 H 1.07064 0.52246 0.03028 0.0
H726 H 0.19278 0.63024 0.03494 0.0
H727 H 0.19211 0.63253 -0.00122 0.0
C728 C 0.14029 0.61283 0.09013 0.0
C729 C 0.12677 0.57605 0.09973 0.0
C730 C 0.14267 0.61295 0.06945 0.0
C731 C 0.1309 0.57616 0.0577 0.0
C732 C 0.11729 0.53931 0.06728 0.0
C733 C 0.11566 0.53933 0.08803 0.0
C734 C 0.097 0.54802 0.00295 0.0
C735 C 0.13088 0.57908 0.9936 0.0
C736 C 0.09755 0.54639 0.0236 0.0
C737 C 0.13169 0.57622 0.03556 0.0
C738 C 0.16586 0.60694 0.0262 0.0
C739 C 0.16562 0.6081 0.00548 0.0
H740 H 0.58141 1.04345 0.4298 0.0
H741 H 0.70817 0.1434 0.4345 0.0
H742 H 0.58223 1.04369 0.39393 0.0
H743 H 0.70887 0.14353 0.39822 0.0
H744 H 0.67098 0.15471 0.33238 0.0
H745 H 0.6768 0.15844 0.36868 0.0
H746 H 0.61491 1.02509 0.36694 0.0
H747 H 0.6099 1.02127 0.33101 0.0
C748 C 0.60957 0.06559 0.42323 0.0
C749 C 0.64478 0.09331 0.43522 0.0
C750 C 0.61008 0.06554 0.40254 0.0
C751 C 0.6457 0.09341 0.39306 0.0
C752 C 0.68084 0.12172 0.40499 0.0
C753 C 0.68049 0.12147 0.4258 0.0
C754 C 0.65917 0.1262 0.33971 0.0
C755 C 0.63924 0.08764 0.32858 0.0
C756 C 0.66245 0.12836 0.36057 0.0
C757 C 0.64571 0.09203 0.37084 0.0
C758 C 0.62728 0.0537 0.35965 0.0
C759 C 0.62429 0.05155 0.33893 0.0
H760 H 0.58144 0.56561 0.76251 0.0
H761 H 0.71287 0.65117 0.76733 0.0
H762 H 0.58279 0.56711 0.72646 0.0
H763 H 0.71424 0.65205 0.73114 0.0
H764 H 0.70076 0.59315 0.66589 0.0
H765 H 0.70168 0.59898 0.7021 0.0
H766 H 0.59728 0.61791 0.69945 0.0
H767 H 0.59676 0.61264 0.6631 0.0
C768 C 0.61066 0.58481 0.7559 0.0
C769 C 0.64708 0.6082 0.76789 0.0
C770 C 0.61135 0.58585 0.73521 0.0
C771 C 0.6486 0.6097 0.72586 0.0
C772 C 0.68505 0.6332 0.73784 0.0
C773 C 0.68423 0.63281 0.75859 0.0
C774 C 0.6782 0.59889 0.67303 0.0
C775 C 0.64863 0.60236 0.66158 0.0
C776 C 0.67887 0.60245 0.6938 0.0
C777 C 0.6495 0.6088 0.70372 0.0
C778 C 0.6202 0.61277 0.69228 0.0
C779 C 0.62005 0.61004 0.67147 0.0
H780 H 0.60685 0.12448 0.56112 0.0
H781 H 0.64374 1.03213 0.55846 0.0
H782 H 0.58 0.10464 0.59365 0.0
H783 H 0.61491 1.01051 0.59088 0.0
H784 H 0.58117 1.00421 0.65727 0.0
H785 H 0.61669 1.02588 0.62622 0.0
H786 H 0.52051 1.04758 0.60483 0.0
H787 H 0.48646 1.02763 0.63595 0.0
C788 C 0.60954 0.10014 0.56767 0.0
C789 C 0.62718 0.07973 0.55734 0.0
C790 C 0.5937 0.08836 0.5862 0.0
C791 C 0.59416 0.05513 0.59468 0.0
C792 C 0.61401 1.03621 0.58481 0.0
C793 C 0.63063 1.0486 0.56629 0.0
C794 C 0.56765 1.01327 0.64576 0.0
C795 C 0.5314 1.0147 0.64898 0.0
C796 C 0.58792 1.02568 0.62801 0.0
C797 C 0.57199 1.03937 0.61316 0.0
C798 C 0.53451 1.03863 0.61615 0.0
C799 C 0.5147 1.02681 0.6339 0.0
H800 H 0.64223 0.53631 0.88875 0.0
H801 H 0.62357 0.64134 0.89519 0.0
H802 H 0.62946 0.52499 0.92359 0.0
H803 H 0.6097 0.6293 0.93004 0.0
H804 H 0.63172 0.62034 0.99624 0.0
H805 H 0.64354 0.6332 0.96137 0.0
H806 H 0.57338 0.50141 0.94573 0.0
H807 H 0.56203 0.48862 0.98066 0.0
C808 C 0.63533 0.55697 0.8976 0.0
C809 C 0.63391 0.58974 0.8892 0.0
C810 C 0.62767 0.55026 0.91756 0.0
C811 C 0.61822 0.57602 0.92958 0.0
C812 C 0.61726 0.60911 0.92123 0.0
C813 C 0.62509 0.61594 0.90124 0.0
C814 C 0.61837 0.59417 0.98532 0.0
C815 C 0.596 0.55346 0.99117 0.0
C816 C 0.62515 0.60153 0.96533 0.0
C817 C 0.6096 0.56834 0.95076 0.0
C818 C 0.58647 0.52765 0.95661 0.0
C819 C 0.57985 0.52029 0.9766 0.0
H820 H 0.18608 0.60689 0.22761 0.0
H821 H 1.05723 0.5713 0.22175 0.0
H822 H 0.18477 0.61871 0.2635 0.0
H823 H 1.05572 0.58205 0.2573 0.0
H824 H 0.07602 0.64947 0.31708 0.0
H825 H 0.08234 0.63979 0.28169 0.0
H826 H 0.15578 0.58333 0.29368 0.0
H827 H 0.14984 0.59358 0.32922 0.0
C828 C 0.15747 0.60123 0.23399 0.0
C829 C 0.1219 0.58855 0.22184 0.0
C830 C 0.15667 0.60789 0.25452 0.0
C831 C 0.12027 0.60188 0.26322 0.0
C832 C 0.08453 0.588 0.25105 0.0
C833 C 0.08536 0.58156 0.23064 0.0
C834 C 0.09348 0.63496 0.31216 0.0
C835 C 0.11215 0.622 0.3259 0.0
C836 C 0.09706 0.62933 0.29188 0.0
C837 C 0.11916 0.61032 0.28485 0.0
C838 C 0.13882 0.59835 0.29862 0.0
C839 C 0.13539 0.60419 0.31895 0.0
loop_
_geom_bond_atom_site_label_1
_geom_bond_atom_site_label_2
_geom_bond_distance
_geom_bond_site_symmetry_2
_ccdc_geom_bond_type
Tb0 C9 2.764 1_455 S
Tb0 O10 2.325 1_455 S
Tb0 O13 2.303 . S
Tb0 O17 2.322 . S
Tb0 O18 2.349 . S
Tb0 O21 2.415 1_455 S
Tb0 O22 2.399 1_455 S
Tb1 O11 2.322 . S
Tb1 O12 2.349 . S
Tb1 O14 2.415 . S
Tb1 O15 2.399 . S
Tb1 O16 2.325 . S
Tb1 O19 2.303 . S
Tb1 C30 2.764 . S
C2 O18 1.261 . S
C2 O19 1.257 . S
C3 C6 1.358 . S
C3 C7 1.332 . S
C3 C9 1.504 . S
C4 C5 1.373 . S
C4 C8 1.308 . S
C5 C4 1.373 . S
C5 C6 1.429 . S
C5 H32 0.932 . S
C6 C3 1.358 . S
C6 C5 1.429 . S
C6 H33 0.930 . S
C7 C3 1.332 . S
C7 C8 1.394 . S
C7 H34 0.932 . S
C8 C4 1.308 . S
C8 C7 1.394 . S
C8 H35 0.929 . S
C9 Tb0 2.764 1_655 S
C9 C3 1.504 . S
C9 O21 1.239 . S
C9 O22 1.263 . S
O10 Tb0 2.325 1_655 S
O10 C20 1.236 . S
O11 Tb1 2.322 . S
O11 C20 1.257 1_455 S
O12 Tb1 2.349 . S
O12 C23 1.261 . S
O13 Tb0 2.303 . S
O13 C23 1.257 . S
O14 Tb1 2.415 . S
O14 C30 1.239 . S
O15 Tb1 2.399 . S
O15 C30 1.263 . S
O16 Tb1 2.325 . S
O16 C31 1.236 . S
O17 Tb0 2.322 . S
O17 C31 1.257 . S
O18 Tb0 2.349 . S
O18 C2 1.261 . S
O19 Tb1 2.303 . S
O19 C2 1.257 . S
C20 O10 1.236 . S
C20 O11 1.257 1_655 S
O21 Tb0 2.415 1_655 S
O21 C9 1.239 . S
O22 Tb0 2.399 1_655 S
O22 C9 1.263 . S
C23 O12 1.261 . S
C23 O13 1.257 . S
C24 C27 1.358 . S
C24 C28 1.332 . S
C24 C30 1.504 . S
C25 C26 1.373 . S
C25 C29 1.308 . S
C26 C25 1.373 . S
C26 C27 1.429 . S
C26 H36 0.932 . S
C27 C24 1.358 . S
C27 C26 1.429 . S
C27 H37 0.930 . S
C28 C24 1.332 . S
C28 C29 1.394 . S
C28 H38 0.932 . S
C29 C25 1.308 . S
C29 C28 1.394 . S
C29 H39 0.929 . S
C30 Tb1 2.764 . S
C30 O14 1.239 . S
C30 O15 1.263 . S
C30 C24 1.504 . S
C31 O16 1.236 . S
C31 O17 1.257 . S
H32 C5 0.932 . S
H33 C6 0.930 . S
H34 C7 0.932 . S
H35 C8 0.929 . S
H36 C26 0.932 . S
H37 C27 0.930 . S
H38 C28 0.932 . S
H39 C29 0.929 . S
Tb40 C49 2.764 . S
Tb40 O50 2.325 . S
Tb40 O53 2.303 1_565 S
Tb40 O57 2.322 1_565 S
Tb40 O58 2.349 1_565 S
Tb40 O61 2.415 . S
Tb40 O62 2.399 . S
Tb41 O51 2.322 1_545 S
Tb41 O52 2.349 . S
Tb41 O54 2.415 . S
Tb41 O55 2.399 . S
Tb41 O56 2.325 . S
Tb41 O59 2.303 . S
Tb41 C70 2.764 . S
C42 O58 1.261 . S
C42 O59 1.257 . S
C43 C46 1.358 . S
C43 C47 1.332 . S
C43 C49 1.504 . S
C44 C45 1.373 . S
C44 C48 1.308 . S
C45 C44 1.373 . S
C45 C46 1.429 . S
C45 H72 0.932 . S
C46 C43 1.358 . S
C46 C45 1.429 . S
C46 H73 0.930 . S
C47 C43 1.332 . S
C47 C48 1.394 . S
C47 H74 0.932 . S
C48 C44 1.308 . S
C48 C47 1.394 . S
C48 H75 0.929 . S
C49 Tb40 2.764 . S
C49 C43 1.504 . S
C49 O61 1.239 . S
C49 O62 1.263 . S
O50 Tb40 2.325 . S
O50 C60 1.236 . S
O51 Tb41 2.322 1_565 S
O51 C60 1.257 . S
O52 Tb41 2.349 . S
O52 C63 1.261 . S
O53 Tb40 2.303 1_545 S
O53 C63 1.257 . S
O54 Tb41 2.415 . S
O54 C70 1.239 . S
O55 Tb41 2.399 . S
O55 C70 1.263 . S
O56 Tb41 2.325 . S
O56 C71 1.236 . S
O57 Tb40 2.322 1_545 S
O57 C71 1.257 . S
O58 Tb40 2.349 1_545 S
O58 C42 1.261 . S
O59 Tb41 2.303 . S
O59 C42 1.257 . S
C60 O50 1.236 . S
C60 O51 1.257 . S
O61 Tb40 2.415 . S
O61 C49 1.239 . S
O62 Tb40 2.399 . S
O62 C49 1.263 . S
C63 O52 1.261 . S
C63 O53 1.257 . S
C64 C67 1.358 . S
C64 C68 1.332 . S
C64 C70 1.504 . S
C65 C66 1.373 . S
C65 C69 1.308 . S
C66 C65 1.373 . S
C66 C67 1.429 . S
C66 H76 0.932 . S
C67 C64 1.358 . S
C67 C66 1.429 . S
C67 H77 0.930 . S
C68 C64 1.332 . S
C68 C69 1.394 . S
C68 H78 0.932 . S
C69 C65 1.308 . S
C69 C68 1.394 . S
C69 H79 0.929 . S
C70 Tb41 2.764 . S
C70 O54 1.239 . S
C70 O55 1.263 . S
C70 C64 1.504 . S
C71 O56 1.236 . S
C71 O57 1.257 . S
H72 C45 0.932 . S
H73 C46 0.930 . S
H74 C47 0.932 . S
H75 C48 0.929 . S
H76 C66 0.932 . S
H77 C67 0.930 . S
H78 C68 0.932 . S
H79 C69 0.929 . S
Tb80 C89 2.764 . S
Tb80 O90 2.325 . S
Tb80 O93 2.303 . S
Tb80 O97 2.322 . S
Tb80 O98 2.349 . S
Tb80 O101 2.415 . S
Tb80 O102 2.399 . S
Tb81 O91 2.322 . S
Tb81 O92 2.349 . S
Tb81 O94 2.415 . S
Tb81 O95 2.399 . S
Tb81 O96 2.325 . S
Tb81 O99 2.303 . S
Tb81 C110 2.764 . S
C82 O98 1.261 . S
C82 O99 1.257 . S
C83 C86 1.358 . S
C83 C87 1.332 . S
C83 C89 1.504 . S
C84 C85 1.373 . S
C84 C88 1.308 . S
C85 C84 1.373 . S
C85 C86 1.429 . S
C85 H112 0.932 . S
C86 C83 1.358 . S
C86 C85 1.429 . S
C86 H113 0.930 . S
C87 C83 1.332 . S
C87 C88 1.394 . S
C87 H114 0.932 . S
C88 C84 1.308 . S
C88 C87 1.394 . S
C88 H115 0.929 . S
C89 Tb80 2.764 . S
C89 C83 1.504 . S
C89 O101 1.239 . S
C89 O102 1.263 . S
O90 Tb80 2.325 . S
O90 C100 1.236 . S
O91 Tb81 2.322 . S
O91 C100 1.257 . S
O92 Tb81 2.349 . S
O92 C103 1.261 . S
O93 Tb80 2.303 . S
O93 C103 1.257 . S
O94 Tb81 2.415 . S
O94 C110 1.239 . S
O95 Tb81 2.399 . S
O95 C110 1.263 . S
O96 Tb81 2.325 . S
O96 C111 1.236 . S
O97 Tb80 2.322 . S
O97 C111 1.257 . S
O98 Tb80 2.349 . S
O98 C82 1.261 . S
O99 Tb81 2.303 . S
O99 C82 1.257 . S
C100 O90 1.236 . S
C100 O91 1.257 . S
O101 Tb80 2.415 . S
O101 C89 1.239 . S
O102 Tb80 2.399 . S
O102 C89 1.263 . S
C103 O92 1.261 . S
C103 O93 1.257 . S
C104 C107 1.358 . S
C104 C108 1.332 . S
C104 C110 1.504 . S
C105 C106 1.373 . S
C105 C109 1.308 . S
C106 C105 1.373 . S
C106 C107 1.429 . S
C106 H116 0.932 . S
C107 C104 1.358 . S
C107 C106 1.429 . S
C107 H117 0.930 . S
C108 C104 1.332 . S
C108 C109 1.394 . S
C108 H118 0.932 . S
C109 C105 1.308 . S
C109 C108 1.394 . S
C109 H119 0.929 . S
C110 Tb81 2.764 . S
C110 O94 1.239 . S
C110 O95 1.263 . S
C110 C104 1.504 . S
C111 O96 1.236 . S
C111 O97 1.257 . S
H112 C85 0.932 . S
H113 C86 0.930 . S
H114 C87 0.932 . S
H115 C88 0.929 . S
H116 C106 0.932 . S
H117 C107 0.930 . S
H118 C108 0.932 . S
H119 C109 0.929 . S
C120 C121 1.391 . S
C120 C124 1.391 . S
C120 H162 0.948 . S
C121 C120 1.391 . S
C121 C122 1.391 . S
C122 C121 1.391 . S
C122 H178 0.947 . S
C122 C179 1.392 . S
C123 C124 1.391 . S
C123 C127 1.397 . S
C123 C179 1.419 . S
C124 C120 1.391 . S
C124 C123 1.391 . S
C124 C125 1.399 . S
C125 C124 1.399 . S
C125 C128 1.396 . S
C125 C137 1.453 . S
C125 C138 1.684 . S
H126 C150 0.948 . S
C127 C123 1.397 . S
C127 C128 1.394 . S
C127 C146 1.723 . S
C128 C125 1.396 . S
C128 C127 1.394 . S
C128 C158 1.723 1_545 S
H129 C152 0.947 . S
H130 C153 0.948 . S
H131 C159 0.982 . S
H132 C160 0.979 . S
H133 C160 0.980 . S
H134 C160 0.983 . S
H135 C159 0.979 . S
H136 C159 0.977 . S
C137 C125 1.453 . S
C137 H166 0.982 . S
C137 H167 0.979 . S
C137 H168 0.977 . S
C138 C125 1.684 . S
C138 H163 0.979 . S
C138 H164 0.980 . S
C138 H165 0.983 . S
C139 C140 1.391 . S
C139 C144 1.391 . S
C139 H169 0.948 . S
C140 C139 1.391 . S
C140 C141 1.391 . S
C141 C140 1.391 . S
C141 C142 1.392 1_545 S
C141 H170 0.947 1_545 S
C142 C141 1.392 1_565 S
C142 C143 1.419 1_565 S
C142 H171 0.948 . S
C143 C142 1.419 1_545 S
C143 C144 1.391 . S
C143 C147 1.397 . S
C144 C139 1.391 . S
C144 C143 1.391 . S
C144 C145 1.399 . S
C145 C144 1.399 . S
C145 C146 1.396 . S
C145 C148 1.453 . S
C145 C149 1.684 . S
C146 C127 1.723 . S
C146 C145 1.396 . S
C146 C147 1.394 . S
C147 C143 1.397 . S
C147 C146 1.394 . S
C147 C157 1.723 1_545 S
C148 C145 1.453 . S
C148 H172 0.982 . S
C148 H173 0.979 . S
C148 H174 0.977 . S
C149 C145 1.684 . S
C149 H175 0.979 . S
C149 H176 0.980 . S
C149 H177 0.983 . S
C150 H126 0.948 . S
C150 C151 1.391 . S
C150 C155 1.391 . S
C151 C150 1.391 . S
C151 C152 1.391 . S
C152 H129 0.947 . S
C152 C151 1.391 . S
C152 C153 1.392 . S
C153 H130 0.948 . S
C153 C152 1.392 . S
C153 C154 1.419 . S
C154 C153 1.419 . S
C154 C155 1.391 . S
C154 C158 1.397 . S
C155 C150 1.391 . S
C155 C154 1.391 . S
C155 C156 1.399 . S
C156 C155 1.399 . S
C156 C157 1.396 . S
C156 C159 1.453 . S
C156 C160 1.684 . S
C157 C147 1.723 1_565 S
C157 C156 1.396 . S
C157 C158 1.394 . S
C158 C128 1.723 1_565 S
C158 C154 1.397 . S
C158 C157 1.394 . S
C159 H131 0.982 . S
C159 H135 0.979 . S
C159 H136 0.977 . S
C159 C156 1.453 . S
C160 H132 0.979 . S
C160 H133 0.980 . S
C160 H134 0.983 . S
C160 C156 1.684 . S
H161 C179 0.948 . S
H162 C120 0.948 . S
H163 C138 0.979 . S
H164 C138 0.980 . S
H165 C138 0.983 . S
H166 C137 0.982 . S
H167 C137 0.979 . S
H168 C137 0.977 . S
H169 C139 0.948 . S
H170 C141 0.947 1_565 S
H171 C142 0.948 . S
H172 C148 0.982 . S
H173 C148 0.979 . S
H174 C148 0.977 . S
H175 C149 0.979 . S
H176 C149 0.980 . S
H177 C149 0.983 . S
H178 C122 0.947 . S
C179 C122 1.392 . S
C179 C123 1.419 . S
C179 H161 0.948 . S
C180 C181 1.391 . S
C180 C184 1.391 . S
C180 H222 0.948 . S
C181 C180 1.391 . S
C181 C182 1.391 . S
C182 C181 1.391 . S
C182 H238 0.947 . S
C182 C239 1.392 . S
C183 C184 1.391 . S
C183 C187 1.397 . S
C183 C239 1.419 . S
C184 C180 1.391 . S
C184 C183 1.391 . S
C184 C185 1.399 . S
C185 C184 1.399 . S
C185 C188 1.396 . S
C185 C197 1.453 . S
C185 C198 1.684 . S
H186 C210 0.948 . S
C187 C183 1.397 . S
C187 C188 1.394 . S
C187 C206 1.723 . S
C188 C185 1.396 . S
C188 C187 1.394 . S
C188 C218 1.723 . S
H189 C212 0.947 . S
H190 C213 0.948 . S
H191 C219 0.982 . S
H192 C220 0.979 . S
H193 C220 0.980 . S
H194 C220 0.983 . S
H195 C219 0.979 . S
H196 C219 0.977 . S
C197 C185 1.453 . S
C197 H226 0.982 . S
C197 H227 0.979 . S
C197 H228 0.977 . S
C198 C185 1.684 . S
C198 H223 0.979 . S
C198 H224 0.980 . S
C198 H225 0.983 . S
C199 C200 1.391 . S
C199 C204 1.391 . S
C199 H229 0.948 . S
C200 C199 1.391 . S
C200 C201 1.391 . S
C201 C200 1.391 . S
C201 C202 1.392 . S
C201 H230 0.947 . S
C202 C201 1.392 . S
C202 C203 1.419 . S
C202 H231 0.948 . S
C203 C202 1.419 . S
C203 C204 1.391 . S
C203 C207 1.397 . S
C204 C199 1.391 . S
C204 C203 1.391 . S
C204 C205 1.399 . S
C205 C204 1.399 . S
C205 C206 1.396 . S
C205 C208 1.453 . S
C205 C209 1.684 . S
C206 C187 1.723 . S
C206 C205 1.396 . S
C206 C207 1.394 . S
C207 C203 1.397 . S
C207 C206 1.394 . S
C207 C217 1.723 . S
C208 C205 1.453 . S
C208 H232 0.982 . S
C208 H233 0.979 . S
C208 H234 0.977 . S
C209 C205 1.684 . S
C209 H235 0.979 . S
C209 H236 0.980 . S
C209 H237 0.983 . S
C210 H186 0.948 . S
C210 C211 1.391 . S
C210 C215 1.391 . S
C211 C210 1.391 . S
C211 C212 1.391 . S
C212 H189 0.947 . S
C212 C211 1.391 . S
C212 C213 1.392 . S
C213 H190 0.948 . S
C213 C212 1.392 . S
C213 C214 1.419 . S
C214 C213 1.419 . S
C214 C215 1.391 . S
C214 C218 1.397 . S
C215 C210 1.391 . S
C215 C214 1.391 . S
C215 C216 1.399 . S
C216 C215 1.399 . S
C216 C217 1.396 . S
C216 C219 1.453 . S
C216 C220 1.684 . S
C217 C207 1.723 . S
C217 C216 1.396 . S
C217 C218 1.394 . S
C218 C188 1.723 . S
C218 C214 1.397 . S
C218 C217 1.394 . S
C219 H191 0.982 . S
C219 H195 0.979 . S
C219 H196 0.977 . S
C219 C216 1.453 . S
C220 H192 0.979 . S
C220 H193 0.980 . S
C220 H194 0.983 . S
C220 C216 1.684 . S
H221 C239 0.948 . S
H222 C180 0.948 . S
H223 C198 0.979 . S
H224 C198 0.980 . S
H225 C198 0.983 . S
H226 C197 0.982 . S
H227 C197 0.979 . S
H228 C197 0.977 . S
H229 C199 0.948 . S
H230 C201 0.947 . S
H231 C202 0.948 . S
H232 C208 0.982 . S
H233 C208 0.979 . S
H234 C208 0.977 . S
H235 C209 0.979 . S
H236 C209 0.980 . S
H237 C209 0.983 . S
H238 C182 0.947 . S
C239 C182 1.392 . S
C239 C183 1.419 . S
C239 H221 0.948 . S
C240 C241 1.391 . S
C240 C244 1.391 . S
C240 H282 0.948 . S
C241 C240 1.391 . S
C241 C242 1.391 . S
C242 C241 1.391 . S
C242 H298 0.947 . S
C242 C299 1.392 . S
C243 C244 1.391 . S
C243 C247 1.397 . S
C243 C299 1.419 . S
C244 C240 1.391 . S
C244 C243 1.391 . S
C244 C245 1.399 . S
C245 C244 1.399 . S
C245 C248 1.396 . S
C245 C257 1.453 . S
C245 C258 1.684 . S
H246 C270 0.948 . S
C247 C243 1.397 . S
C247 C248 1.394 . S
C247 C266 1.723 . S
C248 C245 1.396 . S
C248 C247 1.394 . S
C248 C278 1.723 . S
H249 C272 0.947 . S
H250 C273 0.948 . S
H251 C279 0.982 . S
H252 C280 0.979 1_455 S
H253 C280 0.980 . S
H254 C280 0.983 . S
H255 C279 0.979 . S
H256 C279 0.977 . S
C257 C245 1.453 . S
C257 H286 0.982 . S
C257 H287 0.979 . S
C257 H288 0.977 . S
C258 C245 1.684 . S
C258 H283 0.979 . S
C258 H284 0.980 . S
C258 H285 0.983 . S
C259 C260 1.391 . S
C259 C264 1.391 . S
C259 H289 0.948 . S
C260 C259 1.391 . S
C260 C261 1.391 . S
C261 C260 1.391 . S
C261 C262 1.392 . S
C261 H290 0.947 . S
C262 C261 1.392 . S
C262 C263 1.419 . S
C262 H291 0.948 . S
C263 C262 1.419 . S
C263 C264 1.391 . S
C263 C267 1.397 . S
C264 C259 1.391 . S
C264 C263 1.391 . S
C264 C265 1.399 . S
C265 C264 1.399 . S
C265 C266 1.396 . S
C265 C268 1.453 . S
C265 C269 1.684 . S
C266 C247 1.723 . S
C266 C265 1.396 . S
C266 C267 1.394 . S
C267 C263 1.397 . S
C267 C266 1.394 . S
C267 C277 1.723 . S
C268 C265 1.453 . S
C268 H292 0.982 . S
C268 H293 0.979 . S
C268 H294 0.977 . S
C269 C265 1.684 . S
C269 H295 0.979 . S
C269 H296 0.980 . S
C269 H297 0.983 . S
C270 H246 0.948 . S
C270 C271 1.391 . S
C270 C275 1.391 . S
C271 C270 1.391 . S
C271 C272 1.391 . S
C272 H249 0.947 . S
C272 C271 1.391 . S
C272 C273 1.392 1_655 S
C273 H250 0.948 . S
C273 C272 1.392 1_455 S
C273 C274 1.419 . S
C274 C273 1.419 . S
C274 C275 1.391 1_455 S
C274 C278 1.397 . S
C275 C270 1.391 . S
C275 C274 1.391 1_655 S
C275 C276 1.399 . S
C276 C275 1.399 . S
C276 C277 1.396 1_655 S
C276 C279 1.453 . S
C276 C280 1.684 . S
C277 C267 1.723 . S
C277 C276 1.396 1_455 S
C277 C278 1.394 . S
C278 C248 1.723 . S
C278 C274 1.397 . S
C278 C277 1.394 . S
C279 H251 0.982 . S
C279 H255 0.979 . S
C279 H256 0.977 . S
C279 C276 1.453 . S
C280 H252 0.979 1_655 S
C280 H253 0.980 . S
C280 H254 0.983 . S
C280 C276 1.684 . S
H281 C299 0.948 . S
H282 C240 0.948 . S
H283 C258 0.979 . S
H284 C258 0.980 . S
H285 C258 0.983 . S
H286 C257 0.982 . S
H287 C257 0.979 . S
H288 C257 0.977 . S
H289 C259 0.948 . S
H290 C261 0.947 . S
H291 C262 0.948 . S
H292 C268 0.982 . S
H293 C268 0.979 . S
H294 C268 0.977 . S
H295 C269 0.979 . S
H296 C269 0.980 . S
H297 C269 0.983 . S
H298 C242 0.947 . S
C299 C242 1.392 . S
C299 C243 1.419 . S
C299 H281 0.948 . S
C300 C301 1.391 . S
C300 C304 1.391 . S
C300 H342 0.948 . S
C301 C300 1.391 . S
C301 C302 1.391 . S
C302 C301 1.391 . S
C302 H358 0.947 . S
C302 C359 1.392 . S
C303 C304 1.391 . S
C303 C307 1.397 . S
C303 C359 1.419 . S
C304 C300 1.391 . S
C304 C303 1.391 . S
C304 C305 1.399 . S
C305 C304 1.399 . S
C305 C308 1.396 . S
C305 C317 1.453 . S
C305 C318 1.684 . S
H306 C330 0.948 . S
C307 C303 1.397 . S
C307 C308 1.394 . S
C307 C326 1.723 . S
C308 C305 1.396 . S
C308 C307 1.394 . S
C308 C338 1.723 1_655 S
H309 C332 0.947 . S
H310 C333 0.948 . S
H311 C339 0.982 . S
H312 C340 0.979 . S
H313 C340 0.980 . S
H314 C340 0.983 . S
H315 C339 0.979 . S
H316 C339 0.977 . S
C317 C305 1.453 . S
C317 H346 0.982 1_655 S
C317 H347 0.979 . S
C317 H348 0.977 1_655 S
C318 C305 1.684 . S
C318 H343 0.979 . S
C318 H344 0.980 . S
C318 H345 0.983 . S
C319 C320 1.391 1_655 S
C319 C324 1.391 . S
C319 H349 0.948 . S
C320 C319 1.391 1_455 S
C320 C321 1.391 . S
C321 C320 1.391 . S
C321 C322 1.392 . S
C321 H350 0.947 . S
C322 C321 1.392 . S
C322 C323 1.419 . S
C322 H351 0.948 . S
C323 C322 1.419 . S
C323 C324 1.391 1_455 S
C323 C327 1.397 . S
C324 C319 1.391 . S
C324 C323 1.391 1_655 S
C324 C325 1.399 . S
C325 C324 1.399 . S
C325 C326 1.396 . S
C325 C328 1.453 . S
C325 C329 1.684 . S
C326 C307 1.723 . S
C326 C325 1.396 . S
C326 C327 1.394 1_655 S
C327 C323 1.397 . S
C327 C326 1.394 1_455 S
C327 C337 1.723 . S
C328 C325 1.453 . S
C328 H352 0.982 . S
C328 H353 0.979 . S
C328 H354 0.977 . S
C329 C325 1.684 . S
C329 H355 0.979 . S
C329 H356 0.980 . S
C329 H357 0.983 . S
C330 H306 0.948 . S
C330 C331 1.391 . S
C330 C335 1.391 . S
C331 C330 1.391 . S
C331 C332 1.391 . S
C332 H309 0.947 . S
C332 C331 1.391 . S
C332 C333 1.392 . S
C333 H310 0.948 . S
C333 C332 1.392 . S
C333 C334 1.419 . S
C334 C333 1.419 . S
C334 C335 1.391 . S
C334 C338 1.397 . S
C335 C330 1.391 . S
C335 C334 1.391 . S
C335 C336 1.399 . S
C336 C335 1.399 . S
C336 C337 1.396 . S
C336 C339 1.453 . S
C336 C340 1.684 . S
C337 C327 1.723 . S
C337 C336 1.396 . S
C337 C338 1.394 . S
C338 C308 1.723 1_455 S
C338 C334 1.397 . S
C338 C337 1.394 . S
C339 H311 0.982 . S
C339 H315 0.979 . S
C339 H316 0.977 . S
C339 C336 1.453 . S
C340 H312 0.979 . S
C340 H313 0.980 . S
C340 H314 0.983 . S
C340 C336 1.684 . S
H341 C359 0.948 . S
H342 C300 0.948 . S
H343 C318 0.979 . S
H344 C318 0.980 . S
H345 C318 0.983 . S
H346 C317 0.982 1_455 S
H347 C317 0.979 . S
H348 C317 0.977 1_455 S
H349 C319 0.948 . S
H350 C321 0.947 . S
H351 C322 0.948 . S
H352 C328 0.982 . S
H353 C328 0.979 . S
H354 C328 0.977 . S
H355 C329 0.979 . S
H356 C329 0.980 . S
H357 C329 0.983 . S
H358 C302 0.947 . S
C359 C302 1.392 . S
C359 C303 1.419 . S
C359 H341 0.948 . S
C360 C361 1.391 . S
C360 C364 1.391 . S
C360 H402 0.948 . S
C361 C360 1.391 . S
C361 C362 1.391 . S
C362 C361 1.391 . S
C362 H418 0.947 . S
C362 C419 1.392 . S
C363 C364 1.391 . S
C363 C367 1.397 . S
C363 C419 1.419 . S
C364 C360 1.391 . S
C364 C363 1.391 . S
C364 C365 1.399 . S
C365 C364 1.399 . S
C365 C368 1.396 . S
C365 C377 1.453 1_565 S
C365 C378 1.684 . S
H366 C390 0.948 . S
C367 C363 1.397 . S
C367 C368 1.394 . S
C367 C386 1.723 . S
C368 C365 1.396 . S
C368 C367 1.394 . S
C368 C398 1.723 1_565 S
H369 C392 0.947 . S
H370 C393 0.948 . S
H371 C399 0.982 . S
H372 C400 0.979 . S
H373 C400 0.980 . S
H374 C400 0.983 . S
H375 C399 0.979 . S
H376 C399 0.977 . S
C377 C365 1.453 1_545 S
C377 H406 0.982 . S
C377 H407 0.978 1_545 S
C377 H408 0.978 . S
C378 C365 1.684 . S
C378 H403 0.979 . S
C378 H404 0.980 . S
C378 H405 0.983 . S
C379 C380 1.391 . S
C379 C384 1.391 . S
C379 H409 0.948 . S
C380 C379 1.391 . S
C380 C381 1.391 1_565 S
C381 C380 1.391 1_545 S
C381 C382 1.392 . S
C381 H410 0.947 . S
C382 C381 1.392 . S
C382 C383 1.419 . S
C382 H411 0.948 . S
C383 C382 1.419 . S
C383 C384 1.391 1_545 S
C383 C387 1.397 . S
C384 C379 1.391 . S
C384 C383 1.391 1_565 S
C384 C385 1.399 . S
C385 C384 1.399 . S
C385 C386 1.396 . S
C385 C388 1.453 . S
C385 C389 1.684 . S
C386 C367 1.723 . S
C386 C385 1.396 . S
C386 C387 1.394 1_565 S
C387 C383 1.397 . S
C387 C386 1.394 1_545 S
C387 C397 1.723 . S
C388 C385 1.453 . S
C388 H412 0.982 . S
C388 H413 0.979 . S
C388 H414 0.977 . S
C389 C385 1.684 . S
C389 H415 0.979 . S
C389 H416 0.980 . S
C389 H417 0.983 . S
C390 H366 0.948 . S
C390 C391 1.391 . S
C390 C395 1.391 . S
C391 C390 1.391 . S
C391 C392 1.391 . S
C392 H369 0.947 . S
C392 C391 1.391 . S
C392 C393 1.392 . S
C393 H370 0.948 . S
C393 C392 1.392 . S
C393 C394 1.419 . S
C394 C393 1.419 . S
C394 C395 1.391 . S
C394 C398 1.397 . S
C395 C390 1.391 . S
C395 C394 1.391 . S
C395 C396 1.399 . S
C396 C395 1.399 . S
C396 C397 1.396 . S
C396 C399 1.453 . S
C396 C400 1.684 . S
C397 C387 1.723 . S
C397 C396 1.396 . S
C397 C398 1.394 . S
C398 C368 1.723 1_545 S
C398 C394 1.397 . S
C398 C397 1.394 . S
C399 H371 0.982 . S
C399 H375 0.979 . S
C399 H376 0.977 . S
C399 C396 1.453 . S
C400 H372 0.979 . S
C400 H373 0.980 . S
C400 H374 0.983 . S
C400 C396 1.684 . S
H401 C419 0.948 . S
H402 C360 0.948 . S
H403 C378 0.979 . S
H404 C378 0.980 . S
H405 C378 0.983 . S
H406 C377 0.982 . S
H407 C377 0.978 1_565 S
H408 C377 0.978 . S
H409 C379 0.948 . S
H410 C381 0.947 . S
H411 C382 0.948 . S
H412 C388 0.982 . S
H413 C388 0.979 . S
H414 C388 0.977 . S
H415 C389 0.979 . S
H416 C389 0.980 . S
H417 C389 0.983 . S
H418 C362 0.947 . S
C419 C362 1.392 . S
C419 C363 1.419 . S
C419 H401 0.948 . S
C420 C421 1.391 . S
C420 C424 1.391 . S
C420 H462 0.948 . S
C421 C420 1.391 . S
C421 C422 1.391 . S
C422 C421 1.391 . S
C422 H478 0.947 . S
C422 C479 1.392 . S
C423 C424 1.391 . S
C423 C427 1.397 . S
C423 C479 1.419 . S
C424 C420 1.391 . S
C424 C423 1.391 . S
C424 C425 1.399 . S
C425 C424 1.399 . S
C425 C428 1.396 . S
C425 C437 1.453 . S
C425 C438 1.684 . S
H426 C450 0.948 . S
C427 C423 1.397 . S
C427 C428 1.394 . S
C427 C446 1.723 . S
C428 C425 1.396 . S
C428 C427 1.394 . S
C428 C458 1.723 . S
H429 C452 0.947 . S
H430 C453 0.948 . S
H431 C459 0.982 . S
H432 C460 0.979 . S
H433 C460 0.980 . S
H434 C460 0.983 . S
H435 C459 0.979 . S
H436 C459 0.977 . S
C437 C425 1.453 . S
C437 H466 0.982 . S
C437 H467 0.979 . S
C437 H468 0.977 . S
C438 C425 1.684 . S
C438 H463 0.979 . S
C438 H464 0.980 . S
C438 H465 0.983 . S
C439 C440 1.391 . S
C439 C444 1.391 . S
C439 H469 0.948 . S
C440 C439 1.391 . S
C440 C441 1.391 . S
C441 C440 1.391 . S
C441 C442 1.392 . S
C441 H470 0.947 . S
C442 C441 1.392 . S
C442 C443 1.419 . S
C442 H471 0.948 . S
C443 C442 1.419 . S
C443 C444 1.391 . S
C443 C447 1.397 . S
C444 C439 1.391 . S
C444 C443 1.391 . S
C444 C445 1.399 . S
C445 C444 1.399 . S
C445 C446 1.396 . S
C445 C448 1.453 . S
C445 C449 1.684 . S
C446 C427 1.723 . S
C446 C445 1.396 . S
C446 C447 1.394 . S
C447 C443 1.397 . S
C447 C446 1.394 . S
C447 C457 1.723 . S
C448 C445 1.453 . S
C448 H472 0.982 . S
C448 H473 0.979 . S
C448 H474 0.977 . S
C449 C445 1.684 . S
C449 H475 0.979 . S
C449 H476 0.980 . S
C449 H477 0.983 . S
C450 H426 0.948 . S
C450 C451 1.391 . S
C450 C455 1.391 . S
C451 C450 1.391 . S
C451 C452 1.391 . S
C452 H429 0.947 . S
C452 C451 1.391 . S
C452 C453 1.392 . S
C453 H430 0.948 . S
C453 C452 1.392 . S
C453 C454 1.419 . S
C454 C453 1.419 . S
C454 C455 1.391 . S
C454 C458 1.397 . S
C455 C450 1.391 . S
C455 C454 1.391 . S
C455 C456 1.399 . S
C456 C455 1.399 . S
C456 C457 1.396 . S
C456 C459 1.453 . S
C456 C460 1.684 . S
C457 C447 1.723 . S
C457 C456 1.396 . S
C457 C458 1.394 . S
C458 C428 1.723 . S
C458 C454 1.397 . S
C458 C457 1.394 . S
C459 H431 0.982 . S
C459 H435 0.979 . S
C459 H436 0.977 . S
C459 C456 1.453 . S
C460 H432 0.979 . S
C460 H433 0.980 . S
C460 H434 0.983 . S
C460 C456 1.684 . S
H461 C479 0.948 . S
H462 C420 0.948 . S
H463 C438 0.979 . S
H464 C438 0.980 . S
H465 C438 0.983 . S
H466 C437 0.982 . S
H467 C437 0.979 . S
H468 C437 0.977 . S
H469 C439 0.948 . S
H470 C441 0.947 . S
H471 C442 0.948 . S
H472 C448 0.982 . S
H473 C448 0.979 . S
H474 C448 0.977 . S
H475 C449 0.979 . S
H476 C449 0.980 . S
H477 C449 0.983 . S
H478 C422 0.947 . S
C479 C422 1.392 . S
C479 C423 1.419 . S
C479 H461 0.948 . S
H480 C488 0.950 . S
H481 C493 0.950 . S
H482 C490 0.950 . S
H483 C492 0.950 . S
H484 C494 0.950 . S
H485 C496 0.950 . S
H486 C498 0.950 . S
H487 C499 0.950 . S
C488 H480 0.950 . S
C488 C489 1.386 . S
C488 C490 1.391 . S
C489 C488 1.386 . S
C489 C493 1.393 . S
C490 H482 0.950 . S
C490 C488 1.391 . S
C490 C491 1.400 . S
C491 C490 1.400 . S
C491 C492 1.398 . S
C491 C497 1.491 . S
C492 H483 0.950 . S
C492 C491 1.398 . S
C492 C493 1.391 . S
C493 H481 0.950 . S
C493 C489 1.393 . S
C493 C492 1.391 . S
C494 H484 0.950 . S
C494 C495 1.386 . S
C494 C496 1.391 . S
C495 C494 1.386 . S
C495 C499 1.393 . S
C496 H485 0.950 . S
C496 C494 1.391 . S
C496 C497 1.400 . S
C497 C491 1.491 . S
C497 C496 1.400 . S
C497 C498 1.398 . S
C498 H486 0.950 . S
C498 C497 1.398 . S
C498 C499 1.391 . S
C499 H487 0.950 . S
C499 C495 1.393 . S
C499 C498 1.391 . S
H500 C508 0.950 . S
H501 C513 0.950 . S
H502 C510 0.950 . S
H503 C512 0.950 . S
H504 C514 0.950 . S
H505 C516 0.950 . S
H506 C518 0.950 . S
H507 C519 0.950 . S
C508 H500 0.950 . S
C508 C509 1.386 . S
C508 C510 1.391 . S
C509 C508 1.386 . S
C509 C513 1.393 . S
C510 H502 0.950 . S
C510 C508 1.391 . S
C510 C511 1.400 . S
C511 C510 1.400 . S
C511 C512 1.398 . S
C511 C517 1.491 . S
C512 H503 0.950 . S
C512 C511 1.398 . S
C512 C513 1.391 . S
C513 H501 0.950 . S
C513 C509 1.393 . S
C513 C512 1.391 . S
C514 H504 0.950 . S
C514 C515 1.386 . S
C514 C516 1.391 . S
C515 C514 1.386 . S
C515 C519 1.393 . S
C516 H505 0.950 . S
C516 C514 1.391 . S
C516 C517 1.400 . S
C517 C511 1.491 . S
C517 C516 1.400 . S
C517 C518 1.398 . S
C518 H506 0.950 . S
C518 C517 1.398 . S
C518 C519 1.391 . S
C519 H507 0.950 . S
C519 C515 1.393 . S
C519 C518 1.391 . S
H520 C528 0.950 . S
H521 C533 0.950 . S
H522 C530 0.950 . S
H523 C532 0.950 . S
H524 C534 0.950 . S
H525 C536 0.950 . S
H526 C538 0.950 . S
H527 C539 0.950 . S
C528 H520 0.950 . S
C528 C529 1.386 . S
C528 C530 1.391 . S
C529 C528 1.386 . S
C529 C533 1.393 . S
C530 H522 0.950 . S
C530 C528 1.391 . S
C530 C531 1.400 . S
C531 C530 1.400 . S
C531 C532 1.398 . S
C531 C537 1.491 . S
C532 H523 0.950 . S
C532 C531 1.398 . S
C532 C533 1.391 . S
C533 H521 0.950 . S
C533 C529 1.393 . S
C533 C532 1.391 . S
C534 H524 0.950 . S
C534 C535 1.386 . S
C534 C536 1.391 . S
C535 C534 1.386 . S
C535 C539 1.393 . S
C536 H525 0.950 . S
C536 C534 1.391 . S
C536 C537 1.400 . S
C537 C531 1.491 . S
C537 C536 1.400 . S
C537 C538 1.398 . S
C538 H526 0.950 . S
C538 C537 1.398 . S
C538 C539 1.391 . S
C539 H527 0.950 . S
C539 C535 1.393 . S
C539 C538 1.391 . S
H540 C548 0.950 . S
H541 C553 0.950 . S
H542 C550 0.950 . S
H543 C552 0.950 . S
H544 C554 0.950 . S
H545 C556 0.950 . S
H546 C558 0.950 . S
H547 C559 0.950 . S
C548 H540 0.950 . S
C548 C549 1.386 . S
C548 C550 1.391 . S
C549 C548 1.386 . S
C549 C553 1.393 . S
C550 H542 0.950 . S
C550 C548 1.391 . S
C550 C551 1.400 . S
C551 C550 1.400 . S
C551 C552 1.398 . S
C551 C557 1.491 . S
C552 H543 0.950 . S
C552 C551 1.398 . S
C552 C553 1.391 . S
C553 H541 0.950 . S
C553 C549 1.393 . S
C553 C552 1.391 . S
C554 H544 0.950 . S
C554 C555 1.386 . S
C554 C556 1.391 . S
C555 C554 1.386 . S
C555 C559 1.393 . S
C556 H545 0.950 . S
C556 C554 1.391 . S
C556 C557 1.400 . S
C557 C551 1.491 . S
C557 C556 1.400 . S
C557 C558 1.398 . S
C558 H546 0.950 . S
C558 C557 1.398 . S
C558 C559 1.391 . S
C559 H547 0.950 . S
C559 C555 1.393 . S
C559 C558 1.391 . S
H560 C568 0.950 . S
H561 C573 0.950 . S
H562 C570 0.950 . S
H563 C572 0.950 . S
H564 C574 0.950 . S
H565 C576 0.950 . S
H566 C578 0.950 . S
H567 C579 0.950 . S
C568 H560 0.950 . S
C568 C569 1.386 . S
C568 C570 1.391 . S
C569 C568 1.386 . S
C569 C573 1.393 . S
C570 H562 0.950 . S
C570 C568 1.391 . S
C570 C571 1.400 . S
C571 C570 1.400 . S
C571 C572 1.398 . S
C571 C577 1.491 . S
C572 H563 0.950 . S
C572 C571 1.398 . S
C572 C573 1.391 . S
C573 H561 0.950 . S
C573 C569 1.393 . S
C573 C572 1.391 . S
C574 H564 0.950 . S
C574 C575 1.386 . S
C574 C576 1.391 . S
C575 C574 1.386 . S
C575 C579 1.393 . S
C576 H565 0.950 . S
C576 C574 1.391 . S
C576 C577 1.400 . S
C577 C571 1.491 . S
C577 C576 1.400 . S
C577 C578 1.398 . S
C578 H566 0.950 . S
C578 C577 1.398 . S
C578 C579 1.391 . S
C579 H567 0.950 . S
C579 C575 1.393 . S
C579 C578 1.391 . S
H580 C588 0.950 . S
H581 C593 0.950 . S
H582 C590 0.950 . S
H583 C592 0.950 . S
H584 C594 0.950 . S
H585 C596 0.950 . S
H586 C598 0.950 . S
H587 C599 0.950 . S
C588 H580 0.950 . S
C588 C589 1.386 . S
C588 C590 1.391 . S
C589 C588 1.386 . S
C589 C593 1.393 . S
C590 H582 0.950 . S
C590 C588 1.391 . S
C590 C591 1.400 . S
C591 C590 1.400 . S
C591 C592 1.398 . S
C591 C597 1.491 . S
C592 H583 0.950 . S
C592 C591 1.398 . S
C592 C593 1.391 . S
C593 H581 0.950 . S
C593 C589 1.393 . S
C593 C592 1.391 . S
C594 H584 0.950 . S
C594 C595 1.386 . S
C594 C596 1.391 . S
C595 C594 1.386 . S
C595 C599 1.393 . S
C596 H585 0.950 . S
C596 C594 1.391 . S
C596 C597 1.400 . S
C597 C591 1.491 . S
C597 C596 1.400 . S
C597 C598 1.398 . S
C598 H586 0.950 . S
C598 C597 1.398 . S
C598 C599 1.391 . S
C599 H587 0.950 . S
C599 C595 1.393 . S
C599 C598 1.391 . S
H600 C608 0.950 . S
H601 C613 0.950 . S
H602 C610 0.950 . S
H603 C612 0.950 . S
H604 C614 0.950 . S
H605 C616 0.950 . S
H606 C618 0.950 . S
H607 C619 0.950 . S
C608 H600 0.950 . S
C608 C609 1.386 . S
C608 C610 1.391 . S
C609 C608 1.386 . S
C609 C613 1.393 . S
C610 H602 0.950 . S
C610 C608 1.391 . S
C610 C611 1.400 . S
C611 C610 1.400 . S
C611 C612 1.398 . S
C611 C617 1.491 . S
C612 H603 0.950 . S
C612 C611 1.398 . S
C612 C613 1.391 . S
C613 H601 0.950 . S
C613 C609 1.393 . S
C613 C612 1.391 . S
C614 H604 0.950 . S
C614 C615 1.386 . S
C614 C616 1.391 . S
C615 C614 1.386 . S
C615 C619 1.393 . S
C616 H605 0.950 . S
C616 C614 1.391 . S
C616 C617 1.400 . S
C617 C611 1.491 . S
C617 C616 1.400 . S
C617 C618 1.398 . S
C618 H606 0.950 . S
C618 C617 1.398 . S
C618 C619 1.391 . S
C619 H607 0.950 . S
C619 C615 1.393 . S
C619 C618 1.391 . S
H620 C628 0.950 . S
H621 C633 0.950 . S
H622 C630 0.950 . S
H623 C632 0.950 . S
H624 C634 0.950 . S
H625 C636 0.950 . S
H626 C638 0.950 . S
H627 C639 0.950 . S
C628 H620 0.950 . S
C628 C629 1.386 . S
C628 C630 1.391 . S
C629 C628 1.386 . S
C629 C633 1.393 . S
C630 H622 0.950 . S
C630 C628 1.391 . S
C630 C631 1.400 . S
C631 C630 1.400 . S
C631 C632 1.398 . S
C631 C637 1.491 . S
C632 H623 0.950 . S
C632 C631 1.398 . S
C632 C633 1.391 . S
C633 H621 0.950 . S
C633 C629 1.393 . S
C633 C632 1.391 . S
C634 H624 0.950 . S
C634 C635 1.386 . S
C634 C636 1.391 . S
C635 C634 1.386 . S
C635 C639 1.393 . S
C636 H625 0.950 . S
C636 C634 1.391 . S
C636 C637 1.400 . S
C637 C631 1.491 . S
C637 C636 1.400 . S
C637 C638 1.398 . S
C638 H626 0.950 . S
C638 C637 1.398 . S
C638 C639 1.391 . S
C639 H627 0.950 . S
C639 C635 1.393 . S
C639 C638 1.391 . S
H640 C648 0.950 . S
H641 C653 0.950 . S
H642 C650 0.950 . S
H643 C652 0.950 . S
H644 C654 0.950 . S
H645 C656 0.950 . S
H646 C658 0.950 . S
H647 C659 0.950 . S
C648 H640 0.950 . S
C648 C649 1.386 . S
C648 C650 1.391 . S
C649 C648 1.386 . S
C649 C653 1.393 . S
C650 H642 0.950 . S
C650 C648 1.391 . S
C650 C651 1.400 . S
C651 C650 1.400 . S
C651 C652 1.398 . S
C651 C657 1.491 . S
C652 H643 0.950 . S
C652 C651 1.398 . S
C652 C653 1.391 . S
C653 H641 0.950 . S
C653 C649 1.393 . S
C653 C652 1.391 . S
C654 H644 0.950 . S
C654 C655 1.386 . S
C654 C656 1.391 . S
C655 C654 1.386 . S
C655 C659 1.393 . S
C656 H645 0.950 . S
C656 C654 1.391 . S
C656 C657 1.400 . S
C657 C651 1.491 . S
C657 C656 1.400 . S
C657 C658 1.398 . S
C658 H646 0.950 . S
C658 C657 1.398 . S
C658 C659 1.391 . S
C659 H647 0.950 . S
C659 C655 1.393 . S
C659 C658 1.391 . S
H660 C668 0.950 . S
H661 C673 0.950 . S
H662 C670 0.950 . S
H663 C672 0.950 . S
H664 C674 0.950 . S
H665 C676 0.950 . S
H666 C678 0.950 . S
H667 C679 0.950 . S
C668 H660 0.950 . S
C668 C669 1.386 . S
C668 C670 1.391 . S
C669 C668 1.386 . S
C669 C673 1.393 . S
C670 H662 0.950 . S
C670 C668 1.391 . S
C670 C671 1.400 . S
C671 C670 1.400 . S
C671 C672 1.398 . S
C671 C677 1.491 . S
C672 H663 0.950 . S
C672 C671 1.398 . S
C672 C673 1.391 . S
C673 H661 0.950 . S
C673 C669 1.393 . S
C673 C672 1.391 . S
C674 H664 0.950 . S
C674 C675 1.386 . S
C674 C676 1.391 . S
C675 C674 1.386 . S
C675 C679 1.393 . S
C676 H665 0.950 . S
C676 C674 1.391 . S
C676 C677 1.400 . S
C677 C671 1.491 . S
C677 C676 1.400 . S
C677 C678 1.398 . S
C678 H666 0.950 . S
C678 C677 1.398 . S
C678 C679 1.391 . S
C679 H667 0.950 . S
C679 C675 1.393 . S
C679 C678 1.391 . S
H680 C688 0.950 . S
H681 C693 0.950 . S
H682 C690 0.950 . S
H683 C692 0.950 . S
H684 C694 0.950 . S
H685 C696 0.950 . S
H686 C698 0.950 . S
H687 C699 0.950 . S
C688 H680 0.950 . S
C688 C689 1.386 . S
C688 C690 1.391 . S
C689 C688 1.386 . S
C689 C693 1.393 . S
C690 H682 0.950 . S
C690 C688 1.391 . S
C690 C691 1.400 . S
C691 C690 1.400 . S
C691 C692 1.398 . S
C691 C697 1.491 . S
C692 H683 0.950 . S
C692 C691 1.398 . S
C692 C693 1.391 . S
C693 H681 0.950 . S
C693 C689 1.393 . S
C693 C692 1.391 . S
C694 H684 0.950 . S
C694 C695 1.386 . S
C694 C696 1.391 . S
C695 C694 1.386 . S
C695 C699 1.393 . S
C696 H685 0.950 . S
C696 C694 1.391 . S
C696 C697 1.400 . S
C697 C691 1.491 . S
C697 C696 1.400 . S
C697 C698 1.398 . S
C698 H686 0.950 . S
C698 C697 1.398 . S
C698 C699 1.391 . S
C699 H687 0.950 . S
C699 C695 1.393 . S
C699 C698 1.391 . S
H700 C708 0.950 . S
H701 C713 0.950 . S
H702 C710 0.950 . S
H703 C712 0.950 . S
H704 C714 0.950 . S
H705 C716 0.950 . S
H706 C718 0.950 . S
H707 C719 0.950 . S
C708 H700 0.950 . S
C708 C709 1.386 . S
C708 C710 1.391 . S
C709 C708 1.386 . S
C709 C713 1.393 . S
C710 H702 0.950 . S
C710 C708 1.391 . S
C710 C711 1.400 . S
C711 C710 1.400 . S
C711 C712 1.398 . S
C711 C717 1.491 . S
C712 H703 0.950 . S
C712 C711 1.398 . S
C712 C713 1.391 . S
C713 H701 0.950 . S
C713 C709 1.393 . S
C713 C712 1.391 . S
C714 H704 0.950 . S
C714 C715 1.386 . S
C714 C716 1.391 . S
C715 C714 1.386 . S
C715 C719 1.393 . S
C716 H705 0.950 . S
C716 C714 1.391 . S
C716 C717 1.400 . S
C717 C711 1.491 . S
C717 C716 1.400 . S
C717 C718 1.398 . S
C718 H706 0.950 . S
C718 C717 1.398 . S
C718 C719 1.391 . S
C719 H707 0.950 . S
C719 C715 1.393 . S
C719 C718 1.391 . S
H720 C728 0.950 . S
H721 C733 0.950 . S
H722 C730 0.950 . S
H723 C732 0.950 . S
H724 C734 0.933 1_556 S
H725 C736 0.950 . S
H726 C738 0.950 . S
H727 C739 0.950 . S
C728 H720 0.950 . S
C728 C729 1.386 . S
C728 C730 1.391 . S
C729 C728 1.386 . S
C729 C733 1.393 . S
C730 H722 0.950 . S
C730 C728 1.391 . S
C730 C731 1.400 . S
C731 C730 1.400 . S
C731 C732 1.398 . S
C731 C737 1.491 . S
C732 H723 0.950 . S
C732 C731 1.398 . S
C732 C733 1.391 . S
C733 H721 0.950 . S
C733 C729 1.393 . S
C733 C732 1.391 . S
C734 H724 0.933 1_554 S
C734 C735 1.386 . S
C734 C736 1.391 . S
C735 C734 1.386 . S
C735 C739 1.393 . S
C736 H725 0.950 . S
C736 C734 1.391 . S
C736 C737 1.400 . S
C737 C731 1.491 . S
C737 C736 1.400 . S
C737 C738 1.398 . S
C738 H726 0.950 . S
C738 C737 1.398 . S
C738 C739 1.391 . S
C739 H727 0.950 . S
C739 C735 1.393 . S
C739 C738 1.391 . S
H740 C748 0.927 1_565 S
H741 C753 0.950 . S
H742 C750 0.950 1_565 S
H743 C752 0.950 . S
H744 C754 0.950 . S
H745 C756 0.950 . S
H746 C758 0.950 1_565 S
H747 C759 0.950 1_565 S
C748 H740 0.927 1_545 S
C748 C749 1.407 . S
C748 C750 1.393 . S
C749 C748 1.407 . S
C749 C753 1.393 . S
C750 H742 0.950 1_545 S
C750 C748 1.393 . S
C750 C751 1.400 . S
C751 C750 1.400 . S
C751 C752 1.398 . S
C751 C757 1.491 . S
C752 H743 0.950 . S
C752 C751 1.398 . S
C752 C753 1.391 . S
C753 H741 0.950 . S
C753 C749 1.393 . S
C753 C752 1.391 . S
C754 H744 0.950 . S
C754 C755 1.386 . S
C754 C756 1.391 . S
C755 C754 1.386 . S
C755 C759 1.393 . S
C756 H745 0.950 . S
C756 C754 1.391 . S
C756 C757 1.400 . S
C757 C751 1.491 . S
C757 C756 1.400 . S
C757 C758 1.398 . S
C758 H746 0.950 1_545 S
C758 C757 1.398 . S
C758 C759 1.391 . S
C759 H747 0.950 1_545 S
C759 C755 1.393 . S
C759 C758 1.391 . S
H760 C768 0.950 . S
H761 C773 0.950 . S
H762 C770 0.950 . S
H763 C772 0.950 . S
H764 C774 0.950 . S
H765 C776 0.950 . S
H766 C778 0.950 . S
H767 C779 0.950 . S
C768 H760 0.950 . S
C768 C769 1.386 . S
C768 C770 1.391 . S
C769 C768 1.386 . S
C769 C773 1.393 . S
C770 H762 0.950 . S
C770 C768 1.391 . S
C770 C771 1.400 . S
C771 C770 1.400 . S
C771 C772 1.398 . S
C771 C777 1.491 . S
C772 H763 0.950 . S
C772 C771 1.398 . S
C772 C773 1.391 . S
C773 H761 0.950 . S
C773 C769 1.393 . S
C773 C772 1.391 . S
C774 H764 0.950 . S
C774 C775 1.386 . S
C774 C776 1.391 . S
C775 C774 1.386 . S
C775 C779 1.393 . S
C776 H765 0.950 . S
C776 C774 1.391 . S
C776 C777 1.400 . S
C777 C771 1.491 . S
C777 C776 1.400 . S
C777 C778 1.398 . S
C778 H766 0.950 . S
C778 C777 1.398 . S
C778 C779 1.391 . S
C779 H767 0.950 . S
C779 C775 1.393 . S
C779 C778 1.391 . S
H780 C788 0.950 . S
H781 C793 0.950 . S
H782 C790 0.950 . S
H783 C792 0.950 . S
H784 C794 0.950 . S
H785 C796 0.950 . S
H786 C798 0.950 . S
H787 C799 0.950 . S
C788 H780 0.950 . S
C788 C789 1.386 . S
C788 C790 1.391 . S
C789 C788 1.386 . S
C789 C793 1.393 1_545 S
C790 H782 0.950 . S
C790 C788 1.391 . S
C790 C791 1.400 . S
C791 C790 1.400 . S
C791 C792 1.398 1_545 S
C791 C797 1.491 . S
C792 H783 0.950 . S
C792 C791 1.398 1_565 S
C792 C793 1.391 . S
C793 H781 0.950 . S
C793 C789 1.393 1_565 S
C793 C792 1.391 . S
C794 H784 0.950 . S
C794 C795 1.386 . S
C794 C796 1.391 . S
C795 C794 1.386 . S
C795 C799 1.393 1_565 S
C796 H785 0.950 . S
C796 C794 1.391 . S
C796 C797 1.400 1_565 S
C797 C791 1.491 . S
C797 C796 1.400 1_545 S
C797 C798 1.398 . S
C798 H786 0.950 . S
C798 C797 1.398 . S
C798 C799 1.391 . S
C799 H787 0.950 . S
C799 C795 1.393 1_545 S
C799 C798 1.391 . S
H800 C808 0.950 . S
H801 C813 0.950 . S
H802 C810 0.950 . S
H803 C812 0.950 . S
H804 C814 0.950 . S
H805 C816 0.950 . S
H806 C818 0.950 . S
H807 C819 0.950 . S
C808 H800 0.950 . S
C808 C809 1.386 . S
C808 C810 1.391 . S
C809 C808 1.386 . S
C809 C813 1.393 . S
C810 H802 0.950 . S
C810 C808 1.391 . S
C810 C811 1.400 . S
C811 C810 1.400 . S
C811 C812 1.398 . S
C811 C817 1.491 . S
C812 H803 0.950 . S
C812 C811 1.398 . S
C812 C813 1.391 . S
C813 H801 0.950 . S
C813 C809 1.393 . S
C813 C812 1.391 . S
C814 H804 0.950 . S
C814 C815 1.386 . S
C814 C816 1.391 . S
C815 C814 1.386 . S
C815 C819 1.393 . S
C816 H805 0.950 . S
C816 C814 1.391 . S
C816 C817 1.400 . S
C817 C811 1.491 . S
C817 C816 1.400 . S
C817 C818 1.398 . S
C818 H806 0.950 . S
C818 C817 1.398 . S
C818 C819 1.391 . S
C819 H807 0.950 . S
C819 C815 1.393 . S
C819 C818 1.391 . S
H820 C828 0.950 . S
H821 C833 0.950 . S
H822 C830 0.950 . S
H823 C832 0.950 . S
H824 C834 0.950 . S
H825 C836 0.950 . S
H826 C838 0.950 . S
H827 C839 0.950 . S
C828 H820 0.950 . S
C828 C829 1.386 . S
C828 C830 1.391 . S
C829 C828 1.386 . S
C829 C833 1.393 1_455 S
C830 H822 0.950 . S
C830 C828 1.391 . S
C830 C831 1.400 . S
C831 C830 1.400 . S
C831 C832 1.398 1_455 S
C831 C837 1.491 . S
C832 H823 0.950 . S
C832 C831 1.398 1_655 S
C832 C833 1.391 . S
C833 H821 0.950 . S
C833 C829 1.393 1_655 S
C833 C832 1.391 . S
C834 H824 0.950 . S
C834 C835 1.402 . S
C834 C836 1.391 . S
C835 C834 1.402 . S
C835 C839 1.369 1_655 S
C836 H825 0.950 . S
C836 C834 1.391 . S
C836 C837 1.400 1_655 S
C837 C831 1.491 . S
C837 C836 1.400 1_455 S
C837 C838 1.398 . S
C838 H826 0.950 . S
C838 C837 1.398 . S
C838 C839 1.391 . S
C839 H827 0.950 . S
C839 C835 1.369 1_455 S
C839 C838 1.391 . S
C489 C25 0.432 . S
C495 C451 0.369 . S
C509 C65 0.376 . S
C515 C301 0.271 . S
C529 C105 0.481 . S
C535 C361 0.331 . S
C549 C4 0.372 . S
C555 C421 0.391 . S
C575 C331 0.330 . S
C569 C44 0.377 . S
C595 C391 0.413 . S
C589 C84 0.462 . S
C609 C60 2.912 . S
C615 C181 2.755 . S
C629 C100 3.095 . S
C635 C271 3.081 . S
C649 C31 3.111 . S
C655 C151 3.097 . S
C675 C211 3.093 . S
C669 C71 3.101 . S
C695 C241 2.769 . S
C689 C111 2.920 . S
C709 C20 2.913 . S
C715 C121 2.757 . S
C735 C260 1.775 1_554 S
C729 C2 1.750 . S
C749 C42 1.751 . S
C755 C140 1.764 . S
C769 C82 1.761 . S
C775 C200 1.760 . S
C795 C380 1.049 . S
C789 C63 1.072 . S
C815 C440 1.091 1_556 S
C809 C103 1.099 . S
C829 C23 1.061 . S
C835 C320 1.051 1_655 S
