# Generated by pormake.
# Topology zzz, (3,6)-cn, num edge types: 1
# Building blocks:
#     Node 0, Type 0, BuildingBlock: BETDIP_clean_linker_0, # of connection points: 3
#     Node 1, Type 0, BuildingBlock: BETDIP_clean_linker_0, # of connection points: 3
#     Node 2, Type 0, BuildingBlock: BETDIP_clean_linker_0, # of connection points: 3
#     Node 3, Type 0, BuildingBlock: BETDIP_clean_linker_0, # of connection points: 3
#     Node 4, Type 0, BuildingBlock: BETDIP_clean_linker_0, # of connection points: 3
#     Node 5, Type 0, BuildingBlock: BETDIP_clean_linker_0, # of connection points: 3
#     Node 6, Type 0, BuildingBlock: BETDIP_clean_linker_0, # of connection points: 3
#     Node 7, Type 0, BuildingBlock: BETDIP_clean_linker_0, # of connection points: 3
#     Node 8, Type 1, BuildingBlock: INOVEN_clean_sbu_0, # of connection points: 6
#     Node 9, Type 1, BuildingBlock: INOVEN_clean_sbu_0, # of connection points: 6
#     Node 10, Type 1, BuildingBlock: INOVEN_clean_sbu_0, # of connection points: 6
#     Node 11, Type 1, BuildingBlock: INOVEN_clean_sbu_0, # of connection points: 6
#     Edge 12, Type (0, 1), BuildingBlock: UVAHIK_clean_linker_0, # of connection points: 2
#     Edge 13, Type (0, 1), BuildingBlock: UVAHIK_clean_linker_0, # of connection points: 2
#     Edge 14, Type (0, 1), BuildingBlock: UVAHIK_clean_linker_0, # of connection points: 2
#     Edge 15, Type (0, 1), BuildingBlock: UVAHIK_clean_linker_0, # of connection points: 2
#     Edge 16, Type (0, 1), BuildingBlock: UVAHIK_clean_linker_0, # of connection points: 2
#     Edge 17, Type (0, 1), BuildingBlock: UVAHIK_clean_linker_0, # of connection points: 2
#     Edge 18, Type (0, 1), BuildingBlock: UVAHIK_clean_linker_0, # of connection points: 2
#     Edge 19, Type (0, 1), BuildingBlock: UVAHIK_clean_linker_0, # of connection points: 2
#     Edge 20, Type (0, 1), BuildingBlock: UVAHIK_clean_linker_0, # of connection points: 2
#     Edge 21, Type (0, 1), BuildingBlock: UVAHIK_clean_linker_0, # of connection points: 2
#     Edge 22, Type (0, 1), BuildingBlock: UVAHIK_clean_linker_0, # of connection points: 2
#     Edge 23, Type (0, 1), BuildingBlock: UVAHIK_clean_linker_0, # of connection points: 2
#     Edge 24, Type (0, 1), BuildingBlock: UVAHIK_clean_linker_0, # of connection points: 2
#     Edge 25, Type (0, 1), BuildingBlock: UVAHIK_clean_linker_0, # of connection points: 2
#     Edge 26, Type (0, 1), BuildingBlock: UVAHIK_clean_linker_0, # of connection points: 2
#     Edge 27, Type (0, 1), BuildingBlock: UVAHIK_clean_linker_0, # of connection points: 2
#     Edge 28, Type (0, 1), BuildingBlock: UVAHIK_clean_linker_0, # of connection points: 2
#     Edge 29, Type (0, 1), BuildingBlock: UVAHIK_clean_linker_0, # of connection points: 2
#     Edge 30, Type (0, 1), BuildingBlock: UVAHIK_clean_linker_0, # of connection points: 2
#     Edge 31, Type (0, 1), BuildingBlock: UVAHIK_clean_linker_0, # of connection points: 2
#     Edge 32, Type (0, 1), BuildingBlock: UVAHIK_clean_linker_0, # of connection points: 2
#     Edge 33, Type (0, 1), BuildingBlock: UVAHIK_clean_linker_0, # of connection points: 2
#     Edge 34, Type (0, 1), BuildingBlock: UVAHIK_clean_linker_0, # of connection points: 2
#     Edge 35, Type (0, 1), BuildingBlock: UVAHIK_clean_linker_0, # of connection points: 2
# Relax obj value: 0.218
# Max RMSD: 0.170
# Mean RMSD: 0.156
data_MOF--net-zzz--node1-INOVEN_clean_sbu_0--node2-BETDIP_clean_linker_0--edge1-UVAHIK_clean_linker_0
_symmetry_space_group_name_H-M    P1
_symmetry_Int_Tables_number       1
_symmetry_cell_setting            triclinic
loop_
_symmetry_equiv_pos_as_xyz
'x, y, z'
_cell_length_a     67.374187
_cell_length_b     67.386622
_cell_length_c     17.091344
_cell_angle_alpha  89.979747
_cell_angle_beta   90.018431
_cell_angle_gamma 90.020529
loop_
_atom_site_label
_atom_site_type_symbol
_atom_site_fract_x
_atom_site_fract_y
_atom_site_fract_z
_atom_type_partial_charge
H0 H 0.76035 0.54617 0.41379 0.0
H1 H 0.73959 0.53297 0.18086 0.0
H2 H 0.80137 0.52666 0.23659 0.0
H3 H 0.7243 0.57457 0.27725 0.0
C4 C 0.71736 0.56006 0.28208 0.0
C5 C 0.76334 0.5412 0.3547 0.0
C6 C 0.78298 0.53695 0.33134 0.0
C7 C 0.7477 0.54006 0.29974 0.0
C8 C 0.75162 0.53401 0.22278 0.0
C9 C 0.77083 0.52862 0.20067 0.0
C10 C 0.78637 0.53029 0.25477 0.0
N11 N 0.72791 0.54471 0.32119 0.0
H12 H 1.00969 0.75431 0.42498 0.0
H13 H 1.01316 0.73974 0.17969 0.0
H14 H 0.01684 0.80055 0.25355 0.0
H15 H 0.97955 0.71755 0.28171 0.0
C16 C 0.99466 0.71199 0.28534 0.0
C17 C 1.01097 0.75896 0.36453 0.0
C18 C 1.01297 0.77928 0.34616 0.0
C19 C 1.01066 0.74467 0.30407 0.0
C20 C 1.01277 0.75074 0.22594 0.0
C21 C 1.01497 0.77083 0.20762 0.0
C22 C 1.01488 0.78497 0.26773 0.0
N23 N 1.00936 0.7241 0.32122 0.0
H24 H 0.77654 1.00565 0.431 0.0
H25 H 0.79526 0.99129 0.19641 0.0
H26 H 0.73405 0.98551 0.25979 0.0
H27 H 0.82035 0.97317 0.33652 0.0
C28 C 0.8235 0.98853 0.32148 0.0
C29 C 0.77301 1.00052 0.37257 0.0
C30 C 0.75329 0.99522 0.35326 0.0
C31 C 0.78832 0.9984 0.31654 0.0
C32 C 0.78371 0.99209 0.24046 0.0
C33 C 0.7642 0.98744 0.22049 0.0
C34 C 0.74923 0.98873 0.27688 0.0
N35 N 0.80838 1.00286 0.33522 0.0
H36 H 0.52056 0.78646 0.4189 0.0
H37 H 0.54833 0.8036 0.2022 0.0
H38 H 0.55198 0.7432 0.28228 0.0
H39 H 0.5551 0.83275 0.32788 0.0
C40 C 0.53976 0.83381 0.3085 0.0
C41 C 0.52945 0.7827 0.36825 0.0
C42 C 0.53667 0.76319 0.35879 0.0
C43 C 0.53427 0.79748 0.3128 0.0
C44 C 0.54536 0.7924 0.2462 0.0
C45 C 0.55161 0.77282 0.23391 0.0
C46 C 0.54762 0.75851 0.29161 0.0
N47 N 0.52705 0.81721 0.32079 0.0
H48 H 0.28152 0.50914 0.98751 0.0
H49 H 0.2958 0.5372 0.20759 0.0
H50 H 0.23547 0.53543 0.12811 0.0
H51 H 0.32245 0.54845 0.08519 0.0
C52 C 0.32623 0.53318 0.09942 0.0
C53 C 0.27687 0.51684 0.04 0.0
C54 C 0.25673 0.52193 0.05057 0.0
C55 C 0.29113 0.52271 0.0961 0.0
C56 C 0.28501 0.53296 0.16357 0.0
C57 C 0.26496 0.53712 0.17569 0.0
C58 C 0.25099 0.53176 0.11904 0.0
N59 N 0.31161 0.51833 0.08565 0.0
H60 H 0.02634 0.28183 0.94485 0.0
H61 H 0.02982 0.29798 0.18857 0.0
H62 H 0.03233 0.23662 0.12111 0.0
H63 H 0.99606 0.31888 0.07361 0.0
C64 C 1.01113 0.32462 0.07573 0.0
C65 C 0.028 0.27758 0.00564 0.0
C66 C 0.02925 0.25737 0.02633 0.0
C67 C 0.02805 0.29226 0.06458 0.0
C68 C 0.02971 0.28669 0.14341 0.0
C69 C 0.03183 0.26671 0.16383 0.0
C70 C 0.03148 0.25219 0.10514 0.0
N71 N 0.02675 0.31271 0.04548 0.0
H72 H 0.25461 0.0236 0.99309 0.0
H73 H 0.23961 0.98505 0.18592 0.0
H74 H 0.29687 0.98076 0.0785 0.0
H75 H 0.20961 0.98526 0.07289 0.0
C76 C 0.20827 1.00016 0.09683 0.0
C77 C 0.25856 1.01172 0.03289 0.0
C78 C 0.2774 1.00261 0.02756 0.0
C79 C 0.24454 1.00482 0.08808 0.0
C80 C 0.24993 0.98975 0.14095 0.0
C81 C 0.26872 0.98107 0.13712 0.0
C82 C 0.28215 0.98728 0.07979 0.0
N83 N 0.22506 1.01295 0.09145 0.0
H84 H 0.50964 0.26039 0.94668 0.0
H85 H 0.50716 0.24253 0.1889 0.0
H86 H 0.50748 0.30439 0.12907 0.0
H87 H 0.53919 0.22094 0.06463 0.0
C88 C 0.5239 0.216 0.07036 0.0
C89 C 0.50872 0.26424 0.00809 0.0
C90 C 0.50893 0.28434 0.03123 0.0
C91 C 0.50836 0.24912 0.06539 0.0
C92 C 0.50758 0.25414 0.14499 0.0
C93 C 0.50666 0.27402 0.16781 0.0
C94 C 0.50751 0.28896 0.11094 0.0
N95 N 0.50852 0.22878 0.04395 0.0
Gd96 Gd 0.02592 1.01066 0.78948 0.0
Gd97 Gd 1.0043 0.02207 0.63319 0.0
C98 C 1.01453 0.97647 0.65847 0.0
C99 C 0.03295 0.99417 0.92143 0.0
C100 C 0.04382 0.97552 0.93291 0.0
C101 C 0.05709 0.96912 0.87474 0.0
C102 C 0.03821 0.96237 0.99237 0.0
C103 C 0.05719 0.936 0.92988 0.0
C104 C 0.04495 0.94274 0.99115 0.0
C105 C 0.06372 0.94955 0.87323 0.0
C106 C 0.0531 1.01439 0.67182 0.0
C107 C 0.01962 0.05665 0.75597 0.0
C108 C 0.99381 0.04087 0.50941 0.0
C109 C 0.99865 0.06157 0.48922 0.0
C110 C 0.98325 0.07523 0.4771 0.0
C111 C 0.0182 0.06857 0.4973 0.0
C112 C 1.00652 0.10264 0.4916 0.0
C113 C 0.0221 0.08888 0.49811 0.0
C114 C 0.98714 0.0956 0.4783 0.0
C115 C 0.98077 1.01079 0.75341 0.0
O116 O 0.01871 0.98107 0.73218 0.0
O117 O 1.01034 0.99015 0.60534 0.0
O118 O 0.04346 1.00924 0.89557 0.0
O119 O 0.01604 0.99192 0.88437 0.0
O120 O 0.05765 1.01026 0.74356 0.0
O121 O 0.03462 0.01665 0.66862 0.0
O122 O 1.0149 0.0515 0.68333 0.0
O123 O 0.02259 0.04329 0.81156 0.0
O124 O 0.98218 0.03902 0.57033 0.0
O125 O 1.00863 0.02823 0.50987 0.0
O126 O 0.97728 1.00637 0.68064 0.0
O127 O 0.99609 0.02152 0.7583 0.0
H128 H 0.0614 0.97888 0.82751 0.0
H129 H 0.02769 0.96692 0.03681 0.0
H130 H 0.0395 0.93253 0.03515 0.0
H131 H 0.07325 0.94479 0.82576 0.0
H132 H 0.96806 0.07017 0.47126 0.0
H133 H 0.03038 0.05846 0.50808 0.0
H134 H 0.03716 0.09374 0.50907 0.0
H135 H 0.97488 0.10582 0.47104 0.0
Gd136 Gd 0.51925 0.03483 0.75222 0.0
Gd137 Gd 0.50829 1.01029 0.60178 0.0
C138 C 0.5545 0.01727 0.63754 0.0
C139 C 0.53685 0.04658 0.87688 0.0
C140 C 0.55769 0.04283 0.89951 0.0
C141 C 0.57337 0.05134 0.85669 0.0
C142 C 0.56201 0.02813 0.95521 0.0
C143 C 0.59676 0.02856 0.91677 0.0
C144 C 0.58135 0.02102 0.96361 0.0
C145 C 0.5927 0.04424 0.86516 0.0
C146 C 0.50907 0.05605 0.6244 0.0
C147 C 0.47362 0.02474 0.72479 0.0
C148 C 0.49395 1.00098 0.46784 0.0
C149 C 0.47601 0.9894 0.44831 0.0
C150 C 0.47357 0.96979 0.4752 0.0
C151 C 0.46004 0.99893 0.41144 0.0
C152 C 0.43897 0.97028 0.43554 0.0
C153 C 0.44166 0.98951 0.40551 0.0
C154 C 0.45522 0.96026 0.46833 0.0
C155 C 0.51046 0.98573 0.72848 0.0
O156 O 0.54928 0.02506 0.70576 0.0
O157 O 0.54133 1.01165 0.58447 0.0
O158 O 0.5341 0.05821 0.81633 0.0
O159 O 0.52539 0.03084 0.87555 0.0
O160 O 0.50418 0.061 0.69544 0.0
O161 O 0.51956 0.04051 0.62495 0.0
O162 O 0.47847 0.01949 0.65238 0.0
O163 O 0.48711 0.02935 0.7781 0.0
O164 O 0.50876 0.99124 0.4999 0.0
O165 O 0.49047 0.01816 0.50137 0.0
O166 O 0.50581 0.97972 0.65881 0.0
O167 O 0.5133 1.00411 0.72499 0.0
H168 H 0.57064 0.06278 0.81347 0.0
H169 H 0.55024 0.02128 0.98894 0.0
H170 H 0.584 1.00889 0.00387 0.0
H171 H 0.60436 0.05065 0.82958 0.0
H172 H 0.48556 0.96206 0.50443 0.0
H173 H 0.46153 1.01402 0.39032 0.0
H174 H 0.4294 0.99741 0.37876 0.0
H175 H 0.45349 0.94543 0.49181 0.0
Gd176 Gd 0.51048 0.53064 0.78515 0.0
Gd177 Gd 0.53056 0.51916 0.62372 0.0
C178 C 0.52109 0.56457 0.65251 0.0
C179 C 0.50805 0.54761 0.9188 0.0
C180 C 0.51405 0.56827 0.93554 0.0
C181 C 0.49947 0.58307 0.94145 0.0
C182 C 0.53413 0.57395 0.93068 0.0
C183 C 0.52465 0.60873 0.92731 0.0
C184 C 0.53935 0.59396 0.92665 0.0
C185 C 0.50469 0.60309 0.9369 0.0
C186 C 0.48229 0.52454 0.67331 0.0
C187 C 0.51517 0.48459 0.75023 0.0
C188 C 0.53968 0.49982 0.49982 0.0
C189 C 0.53489 0.4789 0.48371 0.0
C190 C 0.55021 0.46556 0.46608 0.0
C191 C 0.51592 0.47146 0.50164 0.0
C192 C 0.52828 0.43767 0.4935 0.0
C193 C 0.51264 0.45107 0.50617 0.0
C194 C 0.54694 0.44511 0.47089 0.0
C195 C 0.55522 0.53161 0.73824 0.0
O196 O 0.51915 0.55984 0.72757 0.0
O197 O 0.52323 0.55091 0.59738 0.0
O198 O 0.49273 0.54579 0.8722 0.0
O199 O 0.52234 0.53517 0.90166 0.0
O200 O 0.47818 0.52842 0.74597 0.0
O201 O 0.50085 0.52353 0.66715 0.0
O202 O 0.52171 0.48968 0.67953 0.0
O203 O 0.51049 0.49784 0.80443 0.0
O204 O 0.55216 0.50233 0.55773 0.0
O205 O 0.52469 0.51224 0.50202 0.0
O206 O 0.55799 0.53548 0.66449 0.0
O207 O 0.54011 0.52072 0.74647 0.0
H208 H 0.4839 0.57916 0.94481 0.0
H209 H 0.5458 0.56297 0.92614 0.0
H210 H 0.5549 0.59783 0.92141 0.0
H211 H 0.49297 0.61408 0.93735 0.0
H212 H 0.56499 0.47096 0.45293 0.0
H213 H 0.50388 0.48136 0.51711 0.0
H214 H 0.49814 0.44587 0.52434 0.0
H215 H 0.55918 0.43514 0.45895 0.0
Gd216 Gd 1.01444 0.50637 0.75249 0.0
Gd217 Gd 0.0276 0.53104 0.60504 0.0
C218 C 0.98094 0.52623 0.63504 0.0
C219 C 0.9946 0.49362 0.87019 0.0
C220 C 0.97318 0.49639 0.88481 0.0
C221 C 0.9604 0.47994 0.88239 0.0
C222 C 0.96497 0.51556 0.8869 0.0
C223 C 0.93175 0.50185 0.87534 0.0
C224 C 0.9445 0.51825 0.88223 0.0
C225 C 0.93987 0.48264 0.87752 0.0
C226 C 0.02486 0.4854 0.62444 0.0
C227 C 0.06054 0.51481 0.7327 0.0
C228 C 0.04379 0.54042 0.47459 0.0
C229 C 0.06342 0.54964 0.46205 0.0
C230 C 0.06503 0.56842 0.42678 0.0
C231 C 0.08047 0.54081 0.49413 0.0
C232 C 0.10002 0.56986 0.46156 0.0
C233 C 0.0985 0.55086 0.4945 0.0
C234 C 0.08328 0.5784 0.42587 0.0
C235 C 0.02544 0.55508 0.73321 0.0
O236 O 0.98543 0.51824 0.70373 0.0
O237 O 0.99471 0.53116 0.58325 0.0
O238 O 0.99869 0.48244 0.80968 0.0
O239 O 1.0058 0.50954 0.87401 0.0
O240 O 0.02924 0.48012 0.69556 0.0
O241 O 1.01485 0.50126 0.62477 0.0
O242 O 0.05648 0.52027 0.65964 0.0
O243 O 0.04642 0.51075 0.78421 0.0
O244 O 0.03055 0.55179 0.50864 0.0
O245 O 0.04396 0.52221 0.5022 0.0
O246 O 0.03081 0.56124 0.6646 0.0
O247 O 0.02189 0.53686 0.72807 0.0
H248 H 0.96635 0.46502 0.88031 0.0
H249 H 0.97434 0.5286 0.88793 0.0
H250 H 0.93876 0.53326 0.88013 0.0
H251 H 0.93037 0.46969 0.87398 0.0
H252 H 0.05208 0.57556 0.40194 0.0
H253 H 0.07984 0.52627 0.52084 0.0
H254 H 0.11133 0.54373 0.52047 0.0
H255 H 0.08423 0.59296 0.39924 0.0
C256 C 0.17593 0.98992 0.15348 0.0
C257 C 0.19052 1.00465 0.14526 0.0
C258 C 0.15991 0.99257 0.20425 0.0
C259 C 0.13017 0.02896 0.31453 0.0
H260 H 0.12105 0.98449 0.45418 0.0
C261 C 0.06251 0.02128 0.53089 0.0
C262 C 0.06771 1.01535 0.60702 0.0
C263 C 0.07682 0.02147 0.47092 0.0
C264 C 0.12337 0.99704 0.41562 0.0
H265 H 0.19935 0.03417 0.18163 0.0
H266 H 0.17106 0.03892 0.27067 0.0
H267 H 0.1471 0.98244 0.35578 0.0
H268 H 0.09198 1.00522 0.68018 0.0
H269 H 0.11662 1.00524 0.57625 0.0
H270 H 0.10627 0.04351 0.37532 0.0
C271 C 0.17211 0.02527 0.23749 0.0
C272 C 0.13823 0.99582 0.35886 0.0
C273 C 0.18833 0.02253 0.18676 0.0
C274 C 0.08745 1.00982 0.62211 0.0
C275 C 0.10159 1.00976 0.56247 0.0
C276 C 0.11502 0.03007 0.37097 0.0
C277 C 0.15796 1.0101 0.24804 0.0
C278 C 0.14191 1.01176 0.30777 0.0
C279 C 0.09647 1.01542 0.48601 0.0
C280 C 0.11162 1.01417 0.42265 0.0
H281 H 0.17717 0.97602 0.12199 0.0
H282 H 0.14915 0.98071 0.21011 0.0
H283 H 0.13258 0.04144 0.27575 0.0
H284 H 0.04744 0.0256 0.51762 0.0
H285 H 0.07242 0.02583 0.41243 0.0
C286 C 0.53499 0.18322 0.12142 0.0
C287 C 0.5199 0.19742 0.11434 0.0
C288 C 0.53244 0.16648 0.16879 0.0
C289 C 0.49444 0.13795 0.28528 0.0
H290 H 0.54151 0.11818 0.39006 0.0
C291 C 0.49467 0.08613 0.55946 0.0
C292 C 0.50772 0.06988 0.55713 0.0
C293 C 0.49474 0.10035 0.49954 0.0
C294 C 0.52826 0.12341 0.36067 0.0
H295 H 0.49017 0.20527 0.15106 0.0
H296 H 0.48594 0.17658 0.23672 0.0
H297 H 0.54437 0.14568 0.29885 0.0
H298 H 0.53073 0.05547 0.48925 0.0
H299 H 0.53124 0.0806 0.38562 0.0
H300 H 0.47832 0.1161 0.3514 0.0
C301 C 0.49958 0.17786 0.20369 0.0
C302 C 0.52986 0.13916 0.30768 0.0
C303 C 0.50199 0.19442 0.15466 0.0
C304 C 0.52049 0.06783 0.49263 0.0
C305 C 0.52085 0.08224 0.43353 0.0
C306 C 0.4928 0.12242 0.33965 0.0
C307 C 0.51489 0.16373 0.21244 0.0
C308 C 0.51301 0.14668 0.26867 0.0
C309 C 0.50815 0.09879 0.43683 0.0
C310 C 0.50972 0.11494 0.37766 0.0
H311 H 0.54892 0.18516 0.0907 0.0
H312 H 0.5444 0.15579 0.17151 0.0
H313 H 0.48112 0.14297 0.25595 0.0
H314 H 0.48465 0.08807 0.60844 0.0
H315 H 0.48486 0.11298 0.50381 0.0
C316 C 0.34891 0.51094 0.179 0.0
C317 C 0.34413 0.52971 0.14832 0.0
C318 C 0.36495 0.50876 0.23094 0.0
C319 C 0.39314 0.53788 0.37474 0.0
H320 H 0.43206 0.49552 0.36732 0.0
C321 C 0.44705 0.52448 0.62943 0.0
C322 C 0.46722 0.52217 0.61073 0.0
C323 C 0.43251 0.5238 0.57117 0.0
C324 C 0.42132 0.50746 0.3699 0.0
H325 H 0.35272 0.56066 0.14558 0.0
H326 H 0.38049 0.55691 0.23576 0.0
H327 H 0.406 0.49736 0.26687 0.0
H328 H 0.48785 0.51679 0.51637 0.0
H329 H 0.46238 0.51537 0.41382 0.0
H330 H 0.40824 0.54803 0.47726 0.0
C331 C 0.37185 0.5439 0.22056 0.0
C332 C 0.40633 0.50842 0.31282 0.0
C333 C 0.356 0.54603 0.16855 0.0
C334 C 0.47248 0.51854 0.53252 0.0
C335 C 0.45786 0.51769 0.47393 0.0
C336 C 0.4079 0.53679 0.43199 0.0
C337 C 0.37633 0.52534 0.25357 0.0
C338 C 0.39213 0.52374 0.3144 0.0
C339 C 0.43773 0.52068 0.49251 0.0
C340 C 0.42219 0.5216 0.43042 0.0
H341 H 0.34001 0.49807 0.16449 0.0
H342 H 0.368 0.49427 0.25558 0.0
H343 H 0.38234 0.54975 0.3782 0.0
H344 H 0.44246 0.52722 0.68921 0.0
H345 H 0.41713 0.52587 0.58772 0.0
C346 C 0.99931 0.35714 0.12665 0.0
C347 C 1.01483 0.34347 0.11814 0.0
C348 C 1.00168 0.37411 0.17286 0.0
C349 C 0.03968 0.4041 0.28381 0.0
H350 H 0.99281 0.42277 0.39287 0.0
C351 C 0.03944 0.45556 0.55886 0.0
C352 C 0.02629 0.47174 0.55678 0.0
C353 C 0.03942 0.44142 0.49876 0.0
C354 C 1.00599 0.41784 0.36225 0.0
H355 H 0.04511 0.33677 0.15118 0.0
H356 H 0.04906 0.36579 0.23505 0.0
H357 H 0.99008 0.39505 0.30275 0.0
H358 H 1.00315 0.48609 0.48929 0.0
H359 H 1.0027 0.46101 0.3854 0.0
H360 H 0.05564 0.42644 0.34797 0.0
C361 C 0.0352 0.36397 0.20386 0.0
C362 C 1.00446 0.40197 0.30985 0.0
C363 C 0.03296 0.34722 0.15586 0.0
C364 C 1.01348 0.4738 0.49238 0.0
C365 C 1.01316 0.45942 0.43316 0.0
C366 C 0.04126 0.41973 0.3377 0.0
C367 C 0.01948 0.37758 0.21404 0.0
C368 C 0.02125 0.39483 0.26937 0.0
C369 C 0.02596 0.44295 0.43623 0.0
C370 C 0.02441 0.4268 0.37723 0.0
H371 H 0.98519 0.35461 0.09792 0.0
H372 H 0.98938 0.38438 0.17664 0.0
H373 H 0.05294 0.39941 0.25328 0.0
H374 H 0.04948 0.45363 0.60778 0.0
H375 H 0.04938 0.42884 0.50281 0.0
C376 C 0.84414 1.01076 0.23375 0.0
C377 C 0.84135 0.99263 0.27296 0.0
C378 C 0.86021 1.01327 0.18219 0.0
C379 C 0.89495 0.98345 0.06111 0.0
H380 H 0.92389 0.03287 0.03948 0.0
C381 C 0.94844 0.99751 0.80288 0.0
C382 C 0.96611 1.00796 0.81723 0.0
C383 C 0.93391 0.99577 0.86099 0.0
C384 C 0.91608 0.0189 0.04523 0.0
H385 H 0.85348 0.96326 0.2912 0.0
H386 H 0.88155 0.9677 0.20315 0.0
H387 H 0.89763 0.03005 0.13767 0.0
H388 H 0.98256 0.02454 0.90434 0.0
H389 H 0.95724 0.02132 0.00648 0.0
H390 H 0.91346 0.97216 0.96973 0.0
C391 C 0.87123 0.97987 0.21045 0.0
C392 C 0.90084 0.01736 0.10097 0.0
C393 C 0.85522 0.97737 0.26153 0.0
C394 C 0.96907 0.0164 0.89153 0.0
C395 C 0.95449 1.01469 0.94981 0.0
C396 C 0.91011 0.98499 0.00548 0.0
C397 C 0.87378 0.9977 0.1688 0.0
C398 C 0.89007 0.99959 0.10973 0.0
C399 C 0.93665 1.00442 0.93519 0.0
C400 C 0.92086 1.00274 0.99645 0.0
H401 H 0.83364 0.02278 0.24102 0.0
H402 H 0.8616 0.02717 0.15083 0.0
H403 H 0.88685 0.96961 0.06516 0.0
H404 H 0.94568 0.9909 0.74615 0.0
H405 H 0.9203 0.98797 0.84703 0.0
C406 C 0.51761 0.85093 0.21002 0.0
C407 C 0.53384 0.85141 0.26155 0.0
C408 C 0.51386 0.86697 0.1596 0.0
C409 C 0.53937 0.9113 0.07274 0.0
H410 H 0.48638 0.92401 0.00018 0.0
C411 C 0.52299 0.97772 0.864 0.0
C412 C 0.51148 0.97274 0.79834 0.0
C413 C 0.52487 0.96434 0.9267 0.0
C414 C 0.50128 0.92063 0.01995 0.0
H415 H 0.55836 0.86925 0.30305 0.0
H416 H 0.55137 0.89751 0.21863 0.0
H417 H 0.49093 0.89821 0.09882 0.0
H418 H 0.49259 0.95016 0.74743 0.0
H419 H 0.49548 0.92712 0.85696 0.0
H420 H 0.5496 0.93392 0.99416 0.0
C421 C 0.54186 0.8846 0.21445 0.0
C422 C 0.50393 0.90571 0.07624 0.0
C423 C 0.54577 0.86847 0.2637 0.0
C424 C 0.50153 0.95442 0.79739 0.0
C425 C 0.5031 0.94126 0.86034 0.0
C426 C 0.53667 0.92639 0.01732 0.0
C427 C 0.52612 0.88398 0.16023 0.0
C428 C 0.52306 0.90061 0.10293 0.0
C429 C 0.51497 0.9459 0.92539 0.0
C430 C 0.51763 0.93107 0.98944 0.0
H431 H 0.50828 0.83787 0.20636 0.0
H432 H 0.50176 0.86567 0.11828 0.0
H433 H 0.55438 0.90766 0.09006 0.0
H434 H 0.53104 0.99162 0.86577 0.0
H435 H 0.53411 0.96837 0.97606 0.0
C436 C 0.69309 0.53734 0.21379 0.0
C437 C 0.69862 0.55642 0.2386 0.0
C438 C 0.67656 0.53469 0.16479 0.0
C439 C 0.64335 0.5636 0.03004 0.0
H440 H 0.61312 0.51472 0.02807 0.0
C441 C 0.58705 0.54698 0.78341 0.0
C442 C 0.57028 0.53534 0.79991 0.0
C443 C 0.60192 0.54969 0.83965 0.0
C444 C 0.62115 0.52863 0.02831 0.0
H445 H 0.69079 0.58751 0.23483 0.0
H446 H 0.66143 0.58292 0.15393 0.0
H447 H 0.63938 0.51916 0.12385 0.0
H448 H 0.55611 0.51719 0.88829 0.0
H449 H 0.58131 0.52287 0.98807 0.0
H450 H 0.62456 0.5735 0.93731 0.0
C451 C 0.67017 0.56998 0.16881 0.0
C452 C 0.63656 0.53105 0.08275 0.0
C453 C 0.68689 0.57264 0.21619 0.0
C454 C 0.56863 0.5266 0.87425 0.0
C455 C 0.58334 0.52958 0.93111 0.0
C456 C 0.62776 0.56132 0.97664 0.0
C457 C 0.66497 0.55103 0.14058 0.0
C458 C 0.64803 0.54853 0.0842 0.0
C459 C 0.60035 0.54104 0.91456 0.0
C460 C 0.61651 0.54373 0.97419 0.0
H461 H 0.70197 0.52455 0.22948 0.0
H462 H 0.67335 0.51987 0.14388 0.0
H463 H 0.65193 0.57716 0.02762 0.0
H464 H 0.58887 0.55375 0.72637 0.0
H465 H 0.61488 0.55824 0.82338 0.0
C466 C 0.98446 0.67899 0.23329 0.0
C467 C 0.9995 0.69303 0.24551 0.0
C468 C 0.98803 0.6619 0.18894 0.0
C469 C 0.02873 0.63272 0.08969 0.0
H470 H 0.98457 0.61257 0.96764 0.0
C471 C 0.03553 0.58524 0.80737 0.0
C472 C 0.02411 0.56782 0.80352 0.0
C473 C 0.03341 0.59842 0.87001 0.0
C474 C 0.99699 0.61788 0.0021 0.0
H475 H 0.03016 0.70029 0.22091 0.0
H476 H 0.03624 0.67112 0.14012 0.0
H477 H 0.97923 0.63984 0.05826 0.0
H478 H 1.00161 0.55045 0.86204 0.0
H479 H 0.99728 0.57398 0.97094 0.0
H480 H 0.04663 0.61139 0.02839 0.0
C481 C 0.02181 0.67268 0.16716 0.0
C482 C 0.99396 0.63352 0.05473 0.0
C483 C 0.01835 0.68954 0.21341 0.0
C484 C 1.01069 0.56367 0.86415 0.0
C485 C 1.00817 0.57716 0.92601 0.0
C486 C 0.03182 0.61738 0.0356 0.0
C487 C 1.00662 0.65867 0.15325 0.0
C488 C 1.00979 0.64131 0.09933 0.0
C489 C 0.01946 0.59473 0.92923 0.0
C490 C 0.01599 0.60986 0.99109 0.0
H491 H 0.96979 0.68133 0.25762 0.0
H492 H 0.97603 0.65136 0.18219 0.0
H493 H 0.04129 0.63783 0.12366 0.0
H494 H 0.04598 0.58881 0.76129 0.0
H495 H 0.04218 0.6119 0.87065 0.0
C496 C 0.01865 0.26555 0.3005 0.0
C497 C 0.03345 0.26045 0.24633 0.0
C498 C 0.01739 0.25548 0.37196 0.0
C499 C 1.00683 0.21709 0.45234 0.0
H500 H 0.05052 0.18788 0.54456 0.0
C501 C 0.02775 0.13278 0.47199 0.0
C502 C 1.01039 0.12416 0.50221 0.0
C503 C 0.03122 0.15306 0.48035 0.0
C504 C 0.0381 0.19608 0.52059 0.0
H505 H 0.05991 0.24292 0.22732 0.0
H506 H 0.05768 0.22523 0.35048 0.0
H507 H 0.05637 0.22091 0.4903 0.0
H508 H 0.98366 0.12992 0.56936 0.0
H509 H 0.98944 0.1656 0.58137 0.0
H510 H 0.98889 0.19174 0.47712 0.0
C511 C 0.04703 0.23692 0.33918 0.0
C512 C 0.04143 0.21498 0.4896 0.0
C513 C 0.04822 0.24688 0.26798 0.0
C514 C 0.99691 0.1362 0.54342 0.0
C515 C 1.00033 0.15656 0.55135 0.0
C516 C 1.00348 0.19828 0.48374 0.0
C517 C 0.03094 0.24025 0.38997 0.0
C518 C 0.02615 0.22498 0.44971 0.0
C519 C 0.01737 0.16523 0.5187 0.0
C520 C 0.0194 0.18706 0.51286 0.0
H521 H 1.00715 0.27607 0.28503 0.0
H522 H 1.00498 0.25856 0.41035 0.0
H523 H 0.99467 0.22432 0.42222 0.0
H524 H 0.03836 0.12402 0.43934 0.0
H525 H 0.04427 0.15937 0.4529 0.0
C526 C 0.28302 0.94855 0.17688 0.0
C527 C 0.2758 0.96731 0.19798 0.0
C528 C 0.29584 0.93831 0.22686 0.0
C529 C 0.32433 0.9438 0.41579 0.0
H530 H 0.36854 0.93166 0.27886 0.0
C531 C 0.40262 0.9721 0.46163 0.0
C532 C 0.41901 0.96116 0.4351 0.0
C533 C 0.38347 0.96449 0.45443 0.0
C534 C 0.35634 0.93443 0.31864 0.0
H535 H 0.27444 0.98926 0.28995 0.0
H536 H 0.29735 0.97204 0.37581 0.0
H537 H 0.33535 0.93222 0.2263 0.0
H538 H 0.42847 0.93321 0.38495 0.0
H539 H 0.39475 0.91996 0.37078 0.0
H540 H 0.34598 0.94783 0.50641 0.0
C541 C 0.29292 0.96472 0.32221 0.0
C542 C 0.33712 0.9347 0.28847 0.0
C543 C 0.27977 0.97472 0.2729 0.0
C544 C 0.41603 0.94196 0.4054 0.0
C545 C 0.39679 0.9344 0.39739 0.0
C546 C 0.34365 0.94375 0.44579 0.0
C547 C 0.30216 0.94704 0.29749 0.0
C548 C 0.32098 0.94053 0.33551 0.0
C549 C 0.38029 0.94583 0.41995 0.0
C550 C 0.35991 0.94012 0.39632 0.0
H551 H 0.28002 0.94257 0.11921 0.0
H552 H 0.30214 0.92442 0.20699 0.0
H553 H 0.31221 0.94779 0.4543 0.0
H554 H 0.40459 0.98682 0.48598 0.0
H555 H 0.37109 0.97379 0.47146 0.0
C556 C 0.52088 0.27497 0.30273 0.0
C557 C 0.50545 0.27973 0.25089 0.0
C558 C 0.52244 0.28486 0.37447 0.0
C559 C 0.53229 0.32359 0.45392 0.0
H560 H 0.48855 0.35048 0.55609 0.0
C561 C 0.50759 0.40687 0.48315 0.0
C562 C 0.5253 0.41611 0.50661 0.0
C563 C 0.50511 0.38646 0.49226 0.0
C564 C 0.50101 0.34296 0.52916 0.0
H565 H 0.47834 0.29648 0.23593 0.0
H566 H 0.48097 0.31377 0.35993 0.0
H567 H 0.4835 0.31743 0.50089 0.0
H568 H 0.55371 0.41136 0.56354 0.0
H569 H 0.54953 0.37552 0.5776 0.0
H570 H 0.54935 0.34965 0.47616 0.0
C571 C 0.4919 0.30248 0.34662 0.0
C572 C 0.49814 0.32403 0.49776 0.0
C573 C 0.49044 0.29274 0.27504 0.0
C574 C 0.54012 0.40459 0.54273 0.0
C575 C 0.53764 0.38412 0.55175 0.0
C576 C 0.53516 0.34246 0.48543 0.0
C577 C 0.50853 0.29954 0.39506 0.0
C578 C 0.51334 0.31484 0.45462 0.0
C579 C 0.52029 0.37478 0.52487 0.0
C580 C 0.51915 0.35288 0.51821 0.0
H581 H 0.53258 0.2649 0.28507 0.0
H582 H 0.53529 0.28213 0.41097 0.0
H583 H 0.54436 0.317 0.42118 0.0
H584 H 0.49593 0.41527 0.4547 0.0
H585 H 0.49173 0.3797 0.46936 0.0
C586 C 0.26125 0.56725 0.25919 0.0
C587 C 0.25801 0.54691 0.24747 0.0
C588 C 0.25032 0.5775 0.31592 0.0
C589 C 0.21191 0.57023 0.47214 0.0
H590 H 0.18414 0.61157 0.35872 0.0
C591 C 0.13048 0.58116 0.53172 0.0
C592 C 0.11945 0.57998 0.46213 0.0
C593 C 0.15051 0.58645 0.5298 0.0
C594 C 0.19179 0.6002 0.3918 0.0
H595 H 0.2425 0.52088 0.2888 0.0
H596 H 0.22347 0.53846 0.38719 0.0
H597 H 0.21692 0.60131 0.31594 0.0
H598 H 0.11999 0.58505 0.33724 0.0
H599 H 0.15499 0.59356 0.33279 0.0
H600 H 0.18596 0.56739 0.54213 0.0
C601 C 0.23442 0.54672 0.35416 0.0
C602 C 0.21078 0.5945 0.36796 0.0
C603 C 0.2452 0.53658 0.29739 0.0
C604 C 0.12822 0.5859 0.39162 0.0
C605 C 0.14832 0.59091 0.38944 0.0
C606 C 0.19283 0.57571 0.49522 0.0
C607 C 0.23611 0.56746 0.36153 0.0
C608 C 0.22039 0.57843 0.40438 0.0
C609 C 0.15996 0.59029 0.458 0.0
C610 C 0.18199 0.58976 0.45167 0.0
H611 H 0.27107 0.57544 0.22075 0.0
H612 H 0.25206 0.59343 0.32067 0.0
H613 H 0.2192 0.55818 0.50275 0.0
H614 H 0.12388 0.57692 0.58706 0.0
H615 H 0.15887 0.5863 0.58394 0.0
C616 C 1.00789 0.79284 0.09444 0.0
C617 C 0.01911 0.77742 0.127 0.0
C618 C 1.01496 0.80321 0.02969 0.0
C619 C 0.0631 0.81968 0.97129 0.0
H620 H 0.03084 0.85365 0.83976 0.0
C621 C 0.06618 0.90281 0.98497 0.0
C622 C 0.06115 0.91454 0.92022 0.0
C623 C 0.06677 0.8822 0.97826 0.0
C624 C 0.04036 0.84409 0.87425 0.0
H625 H 0.04532 0.75917 0.11326 0.0
H626 H 0.05788 0.77747 -0.00026 0.0
H627 H 0.01855 0.82099 0.87673 0.0
H628 H 0.05395 0.91407 0.79648 0.0
H629 H 0.05476 0.87794 0.78502 0.0
H630 H 0.08428 0.84333 0.97328 0.0
C631 C 0.04364 0.78157 0.02428 0.0
C632 C 0.03324 0.82541 0.89579 0.0
C633 C 0.03643 0.77106 0.0889 0.0
C634 C 0.05793 0.90536 0.84737 0.0
C635 C 0.05833 0.8847 0.84079 0.0
C636 C 0.07022 0.83833 0.94966 0.0
C637 C 0.03353 0.79847 0.99694 0.0
C638 C 0.04389 0.81367 0.94926 0.0
C639 C 0.06217 0.87289 0.90677 0.0
C640 C 0.05827 0.85125 0.90571 0.0
H641 H 0.99444 0.79789 0.12291 0.0
H642 H 1.00682 0.81621 0.01074 0.0
H643 H 0.07176 0.81101 0.01231 0.0
H644 H 0.06889 0.90954 0.04154 0.0
H645 H 0.0695 0.87354 0.03056 0.0
C646 C 0.75548 0.99989 0.08939 0.0
C647 C 0.75839 0.98363 0.13904 0.0
C648 C 0.74256 0.99832 0.02593 0.0
C649 C 0.6968 0.97073 0.00075 0.0
H650 H 0.68811 1.01208 0.84689 0.0
C651 C 0.62517 1.01376 0.99077 0.0
C652 C 0.61676 0.01944 0.91911 0.0
C653 C 0.64366 1.00455 0.99288 0.0
C654 C 0.69033 1.00014 0.8884 0.0
H655 H 0.75287 0.95233 0.15598 0.0
H656 H 0.7312 0.94914 0.04208 0.0
H657 H 0.72196 1.00249 0.88109 0.0
H658 H 0.62106 0.0197 0.79335 0.0
H659 H 0.65372 1.00388 0.79726 0.0
H660 H 0.66525 0.96884 0.00994 0.0
C661 C 0.73813 0.96335 0.05353 0.0
C662 C 0.70972 0.99473 0.90846 0.0
C663 C 0.75069 0.96506 0.11819 0.0
C664 C 0.62733 0.01578 0.84952 0.0
C665 C 0.64593 1.00661 0.85164 0.0
C666 C 0.67753 0.97601 0.98026 0.0
C667 C 0.73248 0.98038 0.01116 0.0
C668 C 0.71317 0.98091 0.96881 0.0
C669 C 0.65418 1.00077 0.92341 0.0
C670 C 0.67413 0.99164 0.92784 0.0
H671 H 0.76127 1.01437 0.10501 0.0
H672 H 0.73876 1.01181 0.99496 0.0
H673 H 0.69862 0.96002 0.0474 0.0
H674 H 0.61755 0.01665 0.0454 0.0
H675 H 0.64989 1.0007 0.04931 0.0
C676 C 0.55026 0.77268 0.08743 0.0
C677 C 0.5595 0.76633 0.15686 0.0
C678 C 0.55266 0.76188 0.01829 0.0
C679 C 0.57409 0.71375 0.94307 0.0
H680 H 0.51864 0.70379 0.89705 0.0
C681 C 0.54501 0.63565 0.86405 0.0
C682 C 0.53005 0.62992 0.91706 0.0
C683 C 0.5505 0.6556 0.85686 0.0
C684 C 0.53426 0.70649 0.90802 0.0
H685 H 0.58134 0.74611 0.20475 0.0
H686 H 0.58467 0.72668 0.08667 0.0
H687 H 0.52848 0.73578 0.94755 0.0
H688 H 0.50898 0.6407 0.003 0.0
H689 H 0.51839 0.67527 0.99023 0.0
H690 H 0.57925 0.68345 0.91126 0.0
C691 C 0.57559 0.73992 0.08422 0.0
C692 C 0.54003 0.725 0.93624 0.0
C693 C 0.57347 0.75092 0.1528 0.0
C694 C 0.52033 0.64459 0.96084 0.0
C695 C 0.52568 0.66445 0.95321 0.0
C696 C 0.56824 0.6951 0.91544 0.0
C697 C 0.56396 0.74432 0.01796 0.0
C698 C 0.55979 0.72837 0.95988 0.0
C699 C 0.54096 0.67016 0.9019 0.0
C700 C 0.54804 0.69096 0.90326 0.0
H701 H 0.53959 0.78469 0.08798 0.0
H702 H 0.54407 0.76616 0.96745 0.0
H703 H 0.58954 0.71603 0.95814 0.0
H704 H 0.55249 0.62472 0.82819 0.0
H705 H 0.56229 0.65961 0.81682 0.0
C706 C 0.78631 0.50434 0.11034 0.0
C707 C 0.77528 0.52176 0.12063 0.0
C708 C 0.7952 0.50029 0.03866 0.0
C709 C 0.81834 0.53067 0.89159 0.0
H710 H 0.84239 0.47963 0.84816 0.0
C711 C 0.90026 0.51973 0.90686 0.0
C712 C 0.91013 0.5049 0.86443 0.0
C713 C 0.87991 0.52247 0.89824 0.0
C714 C 0.83566 0.49404 0.85712 0.0
H715 H 0.76272 0.54738 0.06251 0.0
H716 H 0.77828 0.54029 0.93603 0.0
H717 H 0.80887 0.48103 0.90043 0.0
H718 H 0.90652 0.48192 0.77664 0.0
H719 H 0.87066 0.48652 0.76257 0.0
H720 H 0.84545 0.54363 0.85147 0.0
C721 C 0.7803 0.52988 0.98366 0.0
C722 C 0.81646 0.49484 0.8878 0.0
C723 C 0.77133 0.53392 0.0558 0.0
C724 C 0.89923 0.49319 0.81147 0.0
C725 C 0.87877 0.49595 0.80275 0.0
C726 C 0.83739 0.52988 0.85982 0.0
C727 C 0.79333 0.51366 0.97576 0.0
C728 C 0.80839 0.51307 0.91222 0.0
C729 C 0.86884 0.51046 0.84691 0.0
C730 C 0.84686 0.51151 0.84903 0.0
H731 H 0.78931 0.49464 0.15952 0.0
H732 H 0.80515 0.4877 0.03559 0.0
H733 H 0.81259 0.54505 0.9084 0.0
H734 H 0.90815 0.52882 0.94887 0.0
H735 H 0.87271 0.53341 0.93492 0.0
C736 C 1.00861 0.23098 0.96564 0.0
C737 C 0.02685 0.241 0.96918 0.0
C738 C 1.00725 0.21223 0.93083 0.0
C739 C 0.03256 0.17517 0.80504 0.0
H740 H 1.00618 0.13718 0.94035 0.0
C741 C 0.01794 0.09274 0.71757 0.0
C742 C 0.02112 0.07819 0.77541 0.0
C743 C 0.0189 0.113 0.73576 0.0
C744 C 1.01368 0.14755 0.90197 0.0
H745 H 0.05785 0.23965 0.93706 0.0
H746 H 0.05546 0.20695 0.87423 0.0
H747 H 1.0068 0.17215 0.97624 0.0
H748 H 0.02787 0.07381 0.89829 0.0
H749 H 0.02934 0.10908 0.93017 0.0
H750 H 0.03949 0.15039 0.73088 0.0
C751 C 0.04214 0.21367 0.8978 0.0
C752 C 1.01383 0.16767 0.92208 0.0
C753 C 0.04352 0.23243 0.93326 0.0
C754 C 0.02532 0.08451 0.85209 0.0
C755 C 0.02607 0.10478 0.87049 0.0
C756 C 0.03219 0.15499 0.78433 0.0
C757 C 0.02414 0.20302 0.89889 0.0
C758 C 0.02335 0.18175 0.87422 0.0
C759 C 0.02279 0.11931 0.81264 0.0
C760 C 0.02292 0.14089 0.83305 0.0
H761 H 0.99565 0.23712 0.99432 0.0
H762 H 0.99312 0.20456 0.93185 0.0
H763 H 0.03996 0.18563 0.76677 0.0
H764 H 1.01443 0.0885 0.65823 0.0
H765 H 0.01612 0.12374 0.68995 0.0
C766 C 0.30036 0.02838 0.97037 0.0
C767 C 0.29298 1.00889 0.97082 0.0
C768 C 0.31821 0.03287 0.9315 0.0
C769 C 0.35635 1.0116 0.79371 0.0
H770 H 0.39246 0.04547 0.90899 0.0
C771 C 0.43732 0.02396 0.68909 0.0
C772 C 0.4522 0.02538 0.74662 0.0
C773 C 0.41718 0.02422 0.70972 0.0
C774 C 0.38267 0.03582 0.87621 0.0
H775 H 0.29771 0.97917 0.92662 0.0
H776 H 0.32859 0.98676 0.86011 0.0
H777 H 0.35831 0.04198 0.95282 0.0
H778 H 0.45738 0.02813 0.87136 0.0
H779 H 0.42247 0.02796 0.90753 0.0
H780 H 0.38095 1.00451 0.71983 0.0
C781 C 0.32078 0.99877 0.88868 0.0
C782 C 0.36287 0.0341 0.90066 0.0
C783 C 0.30303 0.99435 0.92717 0.0
C784 C 0.44638 0.02715 0.82532 0.0
C785 C 0.42624 0.0272 0.84605 0.0
C786 C 0.37618 1.01318 0.76971 0.0
C787 C 0.32902 0.01795 0.89223 0.0
C788 C 0.34947 0.02168 0.86061 0.0
C789 C 0.41129 0.02569 0.78863 0.0
C790 C 0.38976 0.02507 0.81128 0.0
H791 H 0.29303 0.03986 0.00402 0.0
H792 H 0.32384 0.0479 0.93441 0.0
H793 H 0.3465 1.00215 0.76032 0.0
H794 H 0.4412 0.02271 0.62778 0.0
H795 H 0.40624 0.02337 0.66347 0.0
C796 C 0.52842 0.3134 0.98498 0.0
C797 C 0.51177 0.30107 0.97563 0.0
C798 C 0.52923 0.332 0.94894 0.0
C799 C 0.50733 0.36538 0.8001 0.0
H800 H 0.52161 0.40623 0.9499 0.0
C801 C 0.52065 0.4485 0.71719 0.0
C802 C 0.5135 0.46303 0.76932 0.0
C803 C 0.51969 0.42826 0.73606 0.0
C804 C 0.51745 0.39507 0.90732 0.0
H805 H 0.48338 0.29805 0.91779 0.0
H806 H 0.48487 0.3307 0.85331 0.0
H807 H 0.52207 0.37156 0.98932 0.0
H808 H 0.49948 0.46738 0.88223 0.0
H809 H 0.49794 0.43221 0.91527 0.0
H810 H 0.50274 0.38913 0.71797 0.0
C811 C 0.49734 0.32587 0.88849 0.0
C812 C 0.51794 0.37513 0.9297 0.0
C813 C 0.49651 0.30715 0.92498 0.0
C814 C 0.50521 0.45671 0.84063 0.0
C815 C 0.50438 0.43649 0.85972 0.0
C816 C 0.50706 0.38544 0.77729 0.0
C817 C 0.51338 0.33882 0.90271 0.0
C818 C 0.51291 0.35999 0.87657 0.0
C819 C 0.51176 0.42199 0.80802 0.0
C820 C 0.512 0.40056 0.83092 0.0
H821 H 0.54034 0.3091 0.02404 0.0
H822 H 0.54196 0.34142 0.96001 0.0
H823 H 0.50341 0.35409 0.75772 0.0
H824 H 0.52745 0.45276 0.66238 0.0
H825 H 0.52574 0.41756 0.69537 0.0
C826 C 0.23154 0.53445 0.95646 0.0
C827 C 0.24114 0.51816 0.99105 0.0
C828 C 0.21354 0.53203 0.91684 0.0
C829 C 0.17 0.4986 0.91401 0.0
H830 H 0.15346 0.53289 0.74395 0.0
C831 C 0.08699 0.5104 0.83598 0.0
C832 C 0.08176 0.51321 0.75704 0.0
C833 C 0.10698 0.50941 0.85871 0.0
C834 C 0.15781 0.52299 0.79082 0.0
H835 H 0.23985 0.48644 0.00905 0.0
H836 H 0.20851 0.48197 0.93772 0.0
H837 H 0.18792 0.53308 0.78639 0.0
H838 H 0.09374 0.51665 0.64013 0.0
H839 H 0.12834 0.51468 0.67917 0.0
H840 H 0.13992 0.48834 0.91778 0.0
C841 C 0.2148 0.49672 0.94193 0.0
C842 C 0.17762 0.52326 0.81583 0.0
C843 C 0.23291 0.49918 0.98165 0.0
C844 C 0.09709 0.51472 0.70147 0.0
C845 C 0.11705 0.51366 0.72405 0.0
C846 C 0.15019 0.49827 0.88879 0.0
C847 C 0.20456 0.51322 0.91103 0.0
C848 C 0.18396 0.51131 0.87863 0.0
C849 C 0.12233 0.51111 0.8031 0.0
C850 C 0.14371 0.51067 0.82753 0.0
H851 H 0.2374 0.5493 0.96425 0.0
H852 H 0.20611 0.54515 0.89502 0.0
H853 H 0.17418 0.48934 0.96307 0.0
H854 H 0.07564 0.50925 0.88062 0.0
H855 H 0.11037 0.50773 0.92028 0.0
C856 C 0.99587 0.80219 0.43988 0.0
C857 C 1.01353 0.79516 0.40633 0.0
C858 C 0.99558 0.82037 0.48006 0.0
C859 C 0.02761 0.85979 0.56822 0.0
H860 H 0.98492 0.89493 0.50542 0.0
C861 C 0.01966 0.9402 0.68943 0.0
C862 C 1.01421 0.95509 0.63561 0.0
C863 C 0.01915 0.92008 0.66831 0.0
C864 C 0.997 0.88536 0.52344 0.0
H865 H 0.0448 0.80118 0.39049 0.0
H866 H 0.04447 0.8326 0.46179 0.0
H867 H 0.98489 0.86052 0.4615 0.0
H868 H 1.00405 0.96023 0.5169 0.0
H869 H 1.00331 0.92529 0.48009 0.0
H870 H 0.03997 0.88482 0.62864 0.0
C871 C 0.03084 0.82413 0.45793 0.0
C872 C 0.99684 0.8655 0.49908 0.0
C873 C 0.03108 0.80608 0.41726 0.0
C874 C 1.0083 0.94926 0.56006 0.0
C875 C 1.00774 0.92915 0.53907 0.0
C876 C 0.0277 0.87965 0.59308 0.0
C877 C 1.01297 0.83186 0.48771 0.0
C878 C 1.01227 0.85249 0.52021 0.0
C879 C 1.01312 0.91426 0.59288 0.0
C880 C 1.01254 0.8928 0.57003 0.0
H881 H 0.98208 0.79423 0.43091 0.0
H882 H 0.98159 0.82574 0.50292 0.0
H883 H 0.03968 0.85019 0.58612 0.0
H884 H 0.02432 0.94403 0.74819 0.0
H885 H 0.02318 0.90906 0.71157 0.0
C886 C 0.73227 1.01424 0.45055 0.0
C887 C 0.73633 0.99666 0.40935 0.0
C888 C 0.71408 0.01667 0.48996 0.0
C889 C 0.66814 0.98871 0.55339 0.0
H890 H 0.64284 0.04011 0.53356 0.0
C891 C 0.58293 0.99997 0.57084 0.0
C892 C 0.57601 1.01526 0.61962 0.0
C893 C 0.60326 0.99796 0.55497 0.0
C894 C 0.64978 0.02571 0.54019 0.0
H895 H 0.72506 0.96736 0.382 0.0
H896 H 0.69358 0.97162 0.44803 0.0
H897 H 0.67732 0.03602 0.49268 0.0
H898 H 0.58501 0.04077 0.68818 0.0
H899 H 0.62044 0.03767 0.65806 0.0
H900 H 0.64018 0.97827 0.59737 0.0
C901 C 0.70426 0.98359 0.4514 0.0
C902 C 0.66965 0.02335 0.51721 0.0
C903 C 0.72236 0.98117 0.41271 0.0
C904 C 0.58988 0.0287 0.65104 0.0
C905 C 0.61015 0.02701 0.63343 0.0
C906 C 0.64821 0.991 0.57503 0.0
C907 C 0.69953 1.00156 0.48908 0.0
C908 C 0.67908 1.00471 0.5221 0.0
C909 C 0.61711 1.01149 0.58585 0.0
C910 C 0.63869 1.00945 0.5676 0.0
H911 H 0.74267 0.0265 0.44885 0.0
H912 H 0.71124 0.0306 0.51947 0.0
H913 H 0.67487 0.97423 0.56035 0.0
H914 H 0.57264 0.98937 0.5458 0.0
H915 H 0.60813 0.98596 0.51745 0.0
C916 C 0.51325 0.73895 0.42199 0.0
C917 C 0.53245 0.74687 0.41507 0.0
C918 C 0.51021 0.72057 0.45906 0.0
C919 C 0.53419 0.68227 0.58643 0.0
H920 H 0.50172 0.64534 0.46864 0.0
C921 C 0.52075 0.60089 0.68859 0.0
C922 C 0.52131 0.58603 0.63058 0.0
C923 C 0.52088 0.62106 0.66825 0.0
C924 C 0.5109 0.65542 0.50221 0.0
H925 H 0.56335 0.74227 0.44419 0.0
H926 H 0.5581 0.71056 0.51014 0.0
H927 H 0.50375 0.67994 0.42749 0.0
H928 H 0.52243 0.58101 0.50535 0.0
H929 H 0.52276 0.61608 0.47002 0.0
H930 H 0.54174 0.65761 0.66003 0.0
C931 C 0.54532 0.71843 0.48749 0.0
C932 C 0.51185 0.67537 0.47918 0.0
C933 C 0.54835 0.73664 0.44981 0.0
C934 C 0.52197 0.59196 0.55169 0.0
C935 C 0.52201 0.61213 0.53137 0.0
C936 C 0.53314 0.66232 0.60983 0.0
C937 C 0.52631 0.70981 0.49048 0.0
C938 C 0.52374 0.68904 0.52022 0.0
C939 C 0.52147 0.62699 0.58931 0.0
C940 C 0.52172 0.64853 0.56726 0.0
H941 H 0.50079 0.74636 0.39457 0.0
H942 H 0.49534 0.71449 0.46097 0.0
H943 H 0.54339 0.69237 0.61986 0.0
H944 H 0.52022 0.59698 0.75002 0.0
H945 H 0.52023 0.63202 0.71449 0.0
C946 C 0.80253 0.53018 0.45502 0.0
C947 C 0.80054 0.54007 0.38306 0.0
C948 C 0.82074 0.53051 0.49549 0.0
C949 C 0.87038 0.55608 0.50031 0.0
H950 H 0.8892 0.50589 0.58249 0.0
C951 C 0.95386 0.54014 0.54896 0.0
C952 C 0.95957 0.52917 0.61526 0.0
C953 C 0.93375 0.5426 0.5301 0.0
C954 C 0.88412 0.5201 0.56071 0.0
H955 H 0.81561 0.5589 0.29936 0.0
H956 H 0.84704 0.55942 0.3686 0.0
H957 H 0.85503 0.50876 0.53646 0.0
H958 H 0.94836 0.512 0.71316 0.0
H959 H 0.91339 0.51647 0.68063 0.0
H960 H 0.89962 0.56724 0.52245 0.0
C961 C 0.83475 0.5515 0.39487 0.0
C962 C 0.86444 0.52178 0.53453 0.0
C963 C 0.8167 0.55112 0.3547 0.0
C964 C 0.94458 0.52072 0.66212 0.0
C965 C 0.92448 0.52311 0.64307 0.0
C966 C 0.89005 0.55436 0.52594 0.0
C967 C 0.83726 0.54085 0.46501 0.0
C968 C 0.85738 0.53969 0.50234 0.0
C969 C 0.91876 0.53406 0.57673 0.0
C970 C 0.89734 0.53625 0.55505 0.0
H971 H 0.79036 0.52144 0.47801 0.0
H972 H 0.822 0.52233 0.54982 0.0
H973 H 0.86543 0.57026 0.4778 0.0
H974 H 0.96494 0.54683 0.51136 0.0
H975 H 0.92995 0.5509 0.47793 0.0
loop_
_geom_bond_atom_site_label_1
_geom_bond_atom_site_label_2
_geom_bond_distance
_geom_bond_site_symmetry_2
_ccdc_geom_bond_type
H0 C5 0.930 . S
H1 C8 0.930 . S
H2 C10 0.930 . S
H3 C4 1.016 . S
C4 H3 1.016 . S
C4 N11 1.286 . S
C5 H0 0.930 . S
C5 C6 1.397 . S
C5 C7 1.361 . S
C6 C5 1.397 . S
C6 C10 1.390 . S
C7 C5 1.361 . S
C7 C8 1.393 . S
C7 N11 1.413 . S
C8 H1 0.930 . S
C8 C7 1.393 . S
C8 C9 1.399 . S
C9 C8 1.399 . S
C9 C10 1.381 . S
C10 H2 0.930 . S
C10 C6 1.390 . S
C10 C9 1.381 . S
N11 C4 1.286 . S
N11 C7 1.413 . S
H12 C17 0.930 . S
H13 C20 0.930 . S
H14 C22 0.930 . S
H15 C16 1.016 . S
C16 H15 1.016 . S
C16 N23 1.286 1_655 S
C17 H12 0.930 . S
C17 C18 1.390 1_455 S
C17 C19 1.361 . S
C18 C17 1.390 1_655 S
C18 C22 1.396 . S
C19 C17 1.361 . S
C19 C20 1.393 . S
C19 N23 1.413 . S
C20 H13 0.930 . S
C20 C19 1.393 . S
C20 C21 1.399 1_455 S
C21 C20 1.399 1_655 S
C21 C22 1.381 . S
C22 H14 0.930 . S
C22 C18 1.396 . S
C22 C21 1.381 . S
N23 C16 1.286 1_455 S
N23 C19 1.413 . S
H24 C29 0.930 . S
H25 C32 0.936 . S
H26 C34 0.930 . S
H27 C28 1.016 . S
C28 H27 1.016 . S
C28 N35 1.286 1_565 S
C29 H24 0.930 . S
C29 C30 1.397 1_545 S
C29 C31 1.361 . S
C30 C29 1.397 1_565 S
C30 C34 1.390 . S
C31 C29 1.361 . S
C31 C32 1.399 . S
C31 N35 1.413 . S
C32 H25 0.936 . S
C32 C31 1.399 . S
C32 C33 1.391 1_545 S
C33 C32 1.391 1_565 S
C33 C34 1.381 . S
C34 H26 0.930 . S
C34 C30 1.390 . S
C34 C33 1.381 . S
N35 C28 1.286 1_545 S
N35 C31 1.413 . S
H36 C41 0.930 . S
H37 C44 0.930 . S
H38 C46 0.930 . S
H39 C40 1.016 . S
C40 H39 1.016 . S
C40 N47 1.286 . S
C41 H36 0.930 . S
C41 C42 1.397 . S
C41 C43 1.361 . S
C42 C41 1.397 . S
C42 C46 1.390 . S
C43 C41 1.361 . S
C43 C44 1.393 . S
C43 N47 1.413 . S
C44 H37 0.930 . S
C44 C43 1.393 . S
C44 C45 1.399 . S
C45 C44 1.399 . S
C45 C46 1.381 . S
C46 H38 0.930 . S
C46 C42 1.390 . S
C46 C45 1.381 . S
N47 C40 1.286 . S
N47 C43 1.413 . S
H48 C53 0.930 . S
H49 C56 0.930 . S
H50 C58 0.930 1_556 S
H51 C52 1.016 . S
C52 H51 1.016 . S
C52 N59 1.286 . S
C53 H48 0.930 . S
C53 C54 1.397 . S
C53 C55 1.361 1_556 S
C54 C53 1.397 . S
C54 C58 1.384 1_556 S
C55 C53 1.361 1_554 S
C55 C56 1.393 . S
C55 N59 1.413 . S
C56 H49 0.930 . S
C56 C55 1.393 . S
C56 C57 1.399 . S
C57 C56 1.399 . S
C57 C58 1.388 . S
C58 H50 0.930 1_554 S
C58 C54 1.384 1_554 S
C58 C57 1.388 . S
N59 C52 1.286 . S
N59 C55 1.413 . S
H60 C65 0.930 . S
H61 C68 0.930 . S
H62 C70 0.930 1_556 S
H63 C64 1.016 . S
C64 H63 1.016 . S
C64 N71 1.286 . S
C65 H60 0.930 . S
C65 C66 1.397 . S
C65 C67 1.361 1_556 S
C66 C65 1.397 . S
C66 C70 1.385 1_556 S
C67 C65 1.361 1_554 S
C67 C68 1.393 . S
C67 N71 1.413 . S
C68 H61 0.930 . S
C68 C67 1.393 . S
C68 C69 1.399 . S
C69 C68 1.399 . S
C69 C70 1.387 . S
C70 H62 0.930 1_554 S
C70 C66 1.385 1_554 S
C70 C69 1.387 . S
N71 C64 1.286 . S
N71 C67 1.413 . S
H72 C77 0.930 . S
H73 C80 0.930 . S
H74 C82 0.930 1_556 S
H75 C76 1.016 . S
C76 H75 1.016 . S
C76 N83 1.286 . S
C77 H72 0.930 . S
C77 C78 1.397 . S
C77 C79 1.361 1_556 S
C78 C77 1.397 . S
C78 C82 1.384 1_556 S
C79 C77 1.361 1_554 S
C79 C80 1.393 . S
C79 N83 1.413 . S
C80 H73 0.930 . S
C80 C79 1.393 . S
C80 C81 1.399 . S
C81 C80 1.399 . S
C81 C82 1.388 . S
C82 H74 0.930 1_554 S
C82 C78 1.384 1_554 S
C82 C81 1.388 . S
N83 C76 1.286 . S
N83 C79 1.413 . S
H84 C89 0.930 . S
H85 C92 0.930 . S
H86 C94 0.930 1_556 S
H87 C88 1.016 . S
C88 H87 1.016 . S
C88 N95 1.286 . S
C89 H84 0.930 . S
C89 C90 1.397 . S
C89 C91 1.361 1_556 S
C90 C89 1.397 . S
C90 C94 1.385 1_556 S
C91 C89 1.361 1_554 S
C91 C92 1.393 . S
C91 N95 1.413 . S
C92 H85 0.930 . S
C92 C91 1.393 . S
C92 C93 1.399 . S
C93 C92 1.399 . S
C93 C94 1.386 . S
C94 H86 0.930 1_554 S
C94 C90 1.385 1_554 S
C94 C93 1.386 . S
N95 C88 1.286 . S
N95 C91 1.413 . S
Gd96 C99 2.818 . S
Gd96 O116 2.377 . S
Gd96 O118 2.448 . S
Gd96 O119 2.506 . S
Gd96 O120 2.435 . S
Gd96 O121 2.717 1_565 S
Gd96 O123 2.395 1_565 S
Gd96 O127 2.327 1_455 S
Gd97 C108 2.818 . S
Gd97 O117 2.395 1_545 S
Gd97 O121 2.327 1_655 S
Gd97 O122 2.377 . S
Gd97 O124 2.448 . S
Gd97 O125 2.506 1_655 S
Gd97 O126 2.435 . S
Gd97 O127 2.717 1_545 S
C98 O116 1.240 1_655 S
C98 O117 1.240 . S
C99 Gd96 2.818 . S
C99 C100 1.510 . S
C99 O118 1.249 . S
C99 O119 1.252 . S
C100 C99 1.510 . S
C100 C101 1.404 . S
C100 C102 1.352 . S
C101 C100 1.404 . S
C101 C105 1.389 . S
C101 H128 0.930 . S
C102 C100 1.352 . S
C102 C104 1.374 . S
C102 H129 0.931 1_455 S
C103 C104 1.359 . S
C103 C105 1.364 . S
C104 C102 1.374 . S
C104 C103 1.359 . S
C104 H130 0.931 1_455 S
C105 C101 1.389 . S
C105 C103 1.364 . S
C105 H131 0.931 . S
C106 O120 1.256 1_545 S
C106 O121 1.257 . S
C107 O122 1.240 1_455 S
C107 O123 1.240 . S
C108 Gd97 2.818 . S
C108 C109 1.510 . S
C108 O124 1.249 . S
C108 O125 1.252 1_655 S
C109 C108 1.510 . S
C109 C110 1.404 . S
C109 C111 1.352 1_655 S
C110 C109 1.404 . S
C110 C114 1.389 . S
C110 H132 0.930 . S
C111 C109 1.352 1_455 S
C111 C113 1.374 . S
C111 H133 0.931 . S
C112 C113 1.359 1_655 S
C112 C114 1.364 . S
C113 C111 1.374 . S
C113 C112 1.359 1_455 S
C113 H134 0.931 . S
C114 C110 1.389 . S
C114 C112 1.364 . S
C114 H135 0.931 . S
C115 O126 1.256 . S
C115 O127 1.257 1_545 S
O116 Gd96 2.377 . S
O116 C98 1.240 1_455 S
O117 Gd97 2.395 1_565 S
O117 C98 1.240 . S
O118 Gd96 2.448 . S
O118 C99 1.249 . S
O119 Gd96 2.506 . S
O119 C99 1.252 . S
O120 Gd96 2.435 . S
O120 C106 1.256 1_565 S
O121 Gd96 2.717 1_545 S
O121 Gd97 2.327 1_455 S
O121 C106 1.257 . S
O122 Gd97 2.377 . S
O122 C107 1.240 1_655 S
O123 Gd96 2.395 1_545 S
O123 C107 1.240 . S
O124 Gd97 2.448 . S
O124 C108 1.249 . S
O125 Gd97 2.506 1_455 S
O125 C108 1.252 1_455 S
O126 Gd97 2.435 . S
O126 C115 1.256 . S
O127 Gd96 2.327 1_655 S
O127 Gd97 2.717 1_565 S
O127 C115 1.257 1_565 S
H128 C101 0.930 . S
H129 C102 0.931 1_655 S
H130 C104 0.931 1_655 S
H131 C105 0.931 . S
H132 C110 0.930 . S
H133 C111 0.931 . S
H134 C113 0.931 . S
H135 C114 0.931 . S
Gd136 C139 2.818 . S
Gd136 O156 2.377 . S
Gd136 O158 2.448 . S
Gd136 O159 2.506 . S
Gd136 O160 2.435 . S
Gd136 O161 2.717 . S
Gd136 O163 2.395 . S
Gd136 O167 2.327 1_545 S
Gd137 C148 2.818 . S
Gd137 O157 2.395 . S
Gd137 O161 2.327 1_565 S
Gd137 O162 2.377 . S
Gd137 O164 2.448 . S
Gd137 O165 2.506 1_565 S
Gd137 O166 2.435 . S
Gd137 O167 2.717 . S
C138 O156 1.240 1_565 S
C138 O157 1.240 . S
C139 Gd136 2.818 . S
C139 C140 1.510 . S
C139 O158 1.249 . S
C139 O159 1.252 . S
C140 C139 1.510 . S
C140 C141 1.404 . S
C140 C142 1.352 . S
C141 C140 1.404 . S
C141 C145 1.389 . S
C141 H168 0.930 . S
C142 C140 1.352 . S
C142 C144 1.374 . S
C142 H169 0.931 1_545 S
C143 C144 1.359 . S
C143 C145 1.364 . S
C144 C142 1.374 . S
C144 C143 1.359 . S
C144 H170 0.931 1_545 S
C145 C141 1.389 . S
C145 C143 1.364 . S
C145 H171 0.931 . S
C146 O160 1.256 . S
C146 O161 1.257 . S
C147 O162 1.240 1_545 S
C147 O163 1.240 . S
C148 Gd137 2.818 . S
C148 C149 1.510 . S
C148 O164 1.249 . S
C148 O165 1.252 1_565 S
C149 C148 1.510 . S
C149 C150 1.404 . S
C149 C151 1.352 1_565 S
C150 C149 1.404 . S
C150 C154 1.389 . S
C150 H172 0.930 . S
C151 C149 1.352 1_545 S
C151 C153 1.379 . S
C151 H173 0.931 . S
C152 C153 1.303 1_565 S
C152 C154 1.364 . S
C153 C151 1.379 . S
C153 C152 1.303 1_545 S
C153 H174 0.983 . S
C154 C150 1.389 . S
C154 C152 1.364 . S
C154 H175 0.931 . S
C155 O166 1.256 . S
C155 O167 1.257 . S
O156 Gd136 2.377 . S
O156 C138 1.240 1_545 S
O157 Gd137 2.395 . S
O157 C138 1.240 . S
O158 Gd136 2.448 . S
O158 C139 1.249 . S
O159 Gd136 2.506 . S
O159 C139 1.252 . S
O160 Gd136 2.435 . S
O160 C146 1.256 . S
O161 Gd136 2.717 . S
O161 Gd137 2.327 1_545 S
O161 C146 1.257 . S
O162 Gd137 2.377 . S
O162 C147 1.240 1_565 S
O163 Gd136 2.395 . S
O163 C147 1.240 . S
O164 Gd137 2.448 . S
O164 C148 1.249 . S
O165 Gd137 2.506 1_545 S
O165 C148 1.252 1_545 S
O166 Gd137 2.435 . S
O166 C155 1.256 . S
O167 Gd136 2.327 1_565 S
O167 Gd137 2.717 . S
O167 C155 1.257 . S
H168 C141 0.930 . S
H169 C142 0.931 1_565 S
H170 C144 0.931 1_565 S
H171 C145 0.931 . S
H172 C150 0.930 . S
H173 C151 0.931 . S
H174 C153 0.983 . S
H175 C154 0.931 . S
Gd176 C179 2.818 . S
Gd176 O196 2.377 . S
Gd176 O198 2.448 . S
Gd176 O199 2.506 . S
Gd176 O200 2.435 . S
Gd176 O201 2.717 . S
Gd176 O203 2.395 . S
Gd176 O207 2.327 . S
Gd177 C188 2.818 . S
Gd177 O197 2.395 . S
Gd177 O201 2.327 . S
Gd177 O202 2.377 . S
Gd177 O204 2.448 . S
Gd177 O205 2.506 . S
Gd177 O206 2.435 . S
Gd177 O207 2.717 . S
C178 O196 1.240 . S
C178 O197 1.240 . S
C179 Gd176 2.818 . S
C179 C180 1.510 . S
C179 O198 1.249 . S
C179 O199 1.252 . S
C180 C179 1.510 . S
C180 C181 1.404 . S
C180 C182 1.352 . S
C181 C180 1.404 . S
C181 C185 1.389 . S
C181 H208 0.930 . S
C182 C180 1.352 . S
C182 C184 1.374 . S
C182 H209 0.931 . S
C183 C184 1.359 . S
C183 C185 1.364 . S
C184 C182 1.374 . S
C184 C183 1.359 . S
C184 H210 0.931 . S
C185 C181 1.389 . S
C185 C183 1.364 . S
C185 H211 0.931 . S
C186 O200 1.256 . S
C186 O201 1.257 . S
C187 O202 1.240 . S
C187 O203 1.240 . S
C188 Gd177 2.818 . S
C188 C189 1.510 . S
C188 O204 1.249 . S
C188 O205 1.252 . S
C189 C188 1.510 . S
C189 C190 1.404 . S
C189 C191 1.352 . S
C190 C189 1.404 . S
C190 C194 1.389 . S
C190 H212 0.930 . S
C191 C189 1.352 . S
C191 C193 1.374 . S
C191 H213 0.931 . S
C192 C193 1.359 . S
C192 C194 1.364 . S
C193 C191 1.374 . S
C193 C192 1.359 . S
C193 H214 0.931 . S
C194 C190 1.389 . S
C194 C192 1.364 . S
C194 H215 0.931 . S
C195 O206 1.256 . S
C195 O207 1.257 . S
O196 Gd176 2.377 . S
O196 C178 1.240 . S
O197 Gd177 2.395 . S
O197 C178 1.240 . S
O198 Gd176 2.448 . S
O198 C179 1.249 . S
O199 Gd176 2.506 . S
O199 C179 1.252 . S
O200 Gd176 2.435 . S
O200 C186 1.256 . S
O201 Gd176 2.717 . S
O201 Gd177 2.327 . S
O201 C186 1.257 . S
O202 Gd177 2.377 . S
O202 C187 1.240 . S
O203 Gd176 2.395 . S
O203 C187 1.240 . S
O204 Gd177 2.448 . S
O204 C188 1.249 . S
O205 Gd177 2.506 . S
O205 C188 1.252 . S
O206 Gd177 2.435 . S
O206 C195 1.256 . S
O207 Gd176 2.327 . S
O207 Gd177 2.717 . S
O207 C195 1.257 . S
H208 C181 0.930 . S
H209 C182 0.931 . S
H210 C184 0.931 . S
H211 C185 0.931 . S
H212 C190 0.930 . S
H213 C191 0.931 . S
H214 C193 0.931 . S
H215 C194 0.931 . S
Gd216 C219 2.818 . S
Gd216 O236 2.377 . S
Gd216 O238 2.448 . S
Gd216 O239 2.506 . S
Gd216 O240 2.435 . S
Gd216 O241 2.717 1_655 S
Gd216 O243 2.395 1_655 S
Gd216 O247 2.327 . S
Gd217 C228 2.818 . S
Gd217 O237 2.395 1_455 S
Gd217 O241 2.327 . S
Gd217 O242 2.377 . S
Gd217 O244 2.448 . S
Gd217 O245 2.506 . S
Gd217 O246 2.435 . S
Gd217 O247 2.718 1_455 S
C218 O236 1.240 . S
C218 O237 1.240 . S
C219 Gd216 2.818 . S
C219 C220 1.510 . S
C219 O238 1.249 . S
C219 O239 1.252 . S
C220 C219 1.510 . S
C220 C221 1.404 . S
C220 C222 1.352 . S
C221 C220 1.404 . S
C221 C225 1.389 . S
C221 H248 0.930 . S
C222 C220 1.352 . S
C222 C224 1.374 . S
C222 H249 0.931 . S
C223 C224 1.359 . S
C223 C225 1.364 . S
C224 C222 1.374 . S
C224 C223 1.359 . S
C224 H250 0.931 . S
C225 C221 1.389 . S
C225 C223 1.364 . S
C225 H251 0.931 . S
C226 O240 1.256 1_455 S
C226 O241 1.257 . S
C227 O242 1.240 . S
C227 O243 1.240 . S
C228 Gd217 2.818 . S
C228 C229 1.510 . S
C228 O244 1.249 . S
C228 O245 1.252 . S
C229 C228 1.510 . S
C229 C230 1.404 . S
C229 C231 1.352 . S
C230 C229 1.404 . S
C230 C234 1.389 . S
C230 H252 0.930 . S
C231 C229 1.352 . S
C231 C233 1.374 . S
C231 H253 0.931 . S
C232 C233 1.359 . S
C232 C234 1.364 . S
C233 C231 1.374 . S
C233 C232 1.359 . S
C233 H254 0.931 . S
C234 C230 1.389 . S
C234 C232 1.364 . S
C234 H255 0.931 . S
C235 O246 1.256 . S
C235 O247 1.258 1_455 S
O236 Gd216 2.377 . S
O236 C218 1.240 . S
O237 Gd217 2.395 1_655 S
O237 C218 1.240 . S
O238 Gd216 2.448 . S
O238 C219 1.249 . S
O239 Gd216 2.506 . S
O239 C219 1.252 . S
O240 Gd216 2.435 . S
O240 C226 1.256 1_655 S
O241 Gd216 2.717 1_455 S
O241 Gd217 2.327 . S
O241 C226 1.257 . S
O242 Gd217 2.377 . S
O242 C227 1.240 . S
O243 Gd216 2.395 1_455 S
O243 C227 1.240 . S
O244 Gd217 2.448 . S
O244 C228 1.249 . S
O245 Gd217 2.506 . S
O245 C228 1.252 . S
O246 Gd217 2.435 . S
O246 C235 1.256 . S
O247 Gd216 2.327 . S
O247 Gd217 2.718 1_655 S
O247 C235 1.258 1_655 S
H248 C221 0.930 . S
H249 C222 0.931 . S
H250 C224 0.931 . S
H251 C225 0.931 . S
H252 C230 0.930 . S
H253 C231 0.931 . S
H254 C233 0.931 . S
H255 C234 0.931 . S
C256 C257 1.349 1_565 S
C256 C258 1.327 . S
C256 H281 0.950 . S
C257 C256 1.349 1_545 S
C257 C273 1.349 . S
C258 C256 1.327 . S
C258 C277 1.429 1_565 S
C258 H282 0.950 . S
C259 C276 1.574 . S
C259 C278 1.368 . S
C259 H283 0.949 . S
H260 C264 0.949 . S
C261 C262 1.349 . S
C261 C263 1.327 . S
C261 H284 0.950 . S
C262 C261 1.349 . S
C262 C274 1.349 1_545 S
C263 C261 1.327 . S
C263 C279 1.429 . S
C263 H285 0.950 . S
C264 H260 0.949 . S
C264 C272 1.574 . S
C264 C280 1.368 1_565 S
H265 C273 0.950 . S
H266 C271 0.950 . S
H267 C272 0.949 . S
H268 C274 0.950 . S
H269 C275 0.950 . S
H270 C276 0.949 . S
C271 H266 0.950 . S
C271 C273 1.327 . S
C271 C277 1.429 . S
C272 C264 1.574 . S
C272 H267 0.949 . S
C272 C278 1.368 1_565 S
C273 C257 1.349 . S
C273 H265 0.950 . S
C273 C271 1.327 . S
C274 C262 1.349 1_565 S
C274 H268 0.950 . S
C274 C275 1.327 . S
C275 H269 0.950 . S
C275 C274 1.327 . S
C275 C279 1.429 1_565 S
C276 C259 1.574 . S
C276 H270 0.949 . S
C276 C280 1.368 . S
C277 C258 1.429 1_545 S
C277 C271 1.429 . S
C277 C278 1.523 . S
C278 C259 1.368 . S
C278 C272 1.368 1_545 S
C278 C277 1.523 . S
C279 C263 1.429 . S
C279 C275 1.429 1_545 S
C279 C280 1.523 . S
C280 C264 1.368 1_545 S
C280 C276 1.368 . S
C280 C279 1.523 . S
H281 C256 0.950 . S
H282 C258 0.950 . S
H283 C259 0.949 . S
H284 C261 0.950 . S
H285 C263 0.950 . S
C286 C287 1.349 . S
C286 C288 1.327 . S
C286 H311 0.950 . S
C287 C286 1.349 . S
C287 C303 1.349 . S
C288 C286 1.327 . S
C288 C307 1.429 . S
C288 H312 0.950 . S
C289 C306 1.574 . S
C289 C308 1.368 . S
C289 H313 0.949 . S
H290 C294 0.949 . S
C291 C292 1.349 . S
C291 C293 1.327 . S
C291 H314 0.950 . S
C292 C291 1.349 . S
C292 C304 1.349 . S
C293 C291 1.327 . S
C293 C309 1.429 . S
C293 H315 0.950 . S
C294 H290 0.949 . S
C294 C302 1.574 . S
C294 C310 1.368 . S
H295 C303 0.950 . S
H296 C301 0.950 . S
H297 C302 0.949 . S
H298 C304 0.950 . S
H299 C305 0.950 . S
H300 C306 0.949 . S
C301 H296 0.950 . S
C301 C303 1.327 . S
C301 C307 1.429 . S
C302 C294 1.574 . S
C302 H297 0.949 . S
C302 C308 1.368 . S
C303 C287 1.349 . S
C303 H295 0.950 . S
C303 C301 1.327 . S
C304 C292 1.349 . S
C304 H298 0.950 . S
C304 C305 1.327 . S
C305 H299 0.950 . S
C305 C304 1.327 . S
C305 C309 1.429 . S
C306 C289 1.574 . S
C306 H300 0.949 . S
C306 C310 1.368 . S
C307 C288 1.429 . S
C307 C301 1.429 . S
C307 C308 1.523 . S
C308 C289 1.368 . S
C308 C302 1.368 . S
C308 C307 1.523 . S
C309 C293 1.429 . S
C309 C305 1.429 . S
C309 C310 1.523 . S
C310 C294 1.368 . S
C310 C306 1.368 . S
C310 C309 1.523 . S
H311 C286 0.950 . S
H312 C288 0.950 . S
H313 C289 0.949 . S
H314 C291 0.950 . S
H315 C293 0.950 . S
C316 C317 1.349 . S
C316 C318 1.327 . S
C316 H341 0.950 . S
C317 C316 1.349 . S
C317 C333 1.349 . S
C318 C316 1.327 . S
C318 C337 1.429 . S
C318 H342 0.950 . S
C319 C336 1.574 . S
C319 C338 1.368 . S
C319 H343 0.949 . S
H320 C324 0.949 . S
C321 C322 1.349 . S
C321 C323 1.327 . S
C321 H344 0.950 . S
C322 C321 1.349 . S
C322 C334 1.349 . S
C323 C321 1.327 . S
C323 C339 1.429 . S
C323 H345 0.950 . S
C324 H320 0.949 . S
C324 C332 1.574 . S
C324 C340 1.368 . S
H325 C333 0.950 . S
H326 C331 0.950 . S
H327 C332 0.949 . S
H328 C334 0.950 . S
H329 C335 0.950 . S
H330 C336 0.949 . S
C331 H326 0.950 . S
C331 C333 1.327 . S
C331 C337 1.429 . S
C332 C324 1.574 . S
C332 H327 0.949 . S
C332 C338 1.368 . S
C333 C317 1.349 . S
C333 H325 0.950 . S
C333 C331 1.327 . S
C334 C322 1.349 . S
C334 H328 0.950 . S
C334 C335 1.327 . S
C335 H329 0.950 . S
C335 C334 1.327 . S
C335 C339 1.429 . S
C336 C319 1.574 . S
C336 H330 0.949 . S
C336 C340 1.368 . S
C337 C318 1.429 . S
C337 C331 1.429 . S
C337 C338 1.523 . S
C338 C319 1.368 . S
C338 C332 1.368 . S
C338 C337 1.523 . S
C339 C323 1.429 . S
C339 C335 1.429 . S
C339 C340 1.523 . S
C340 C324 1.368 . S
C340 C336 1.368 . S
C340 C339 1.523 . S
H341 C316 0.950 . S
H342 C318 0.950 . S
H343 C319 0.949 . S
H344 C321 0.950 . S
H345 C323 0.950 . S
C346 C347 1.339 1_655 S
C346 C348 1.328 . S
C346 H371 0.960 . S
C347 C346 1.339 1_455 S
C347 C363 1.349 . S
C348 C346 1.328 . S
C348 C367 1.429 1_655 S
C348 H372 0.950 . S
C349 C366 1.574 . S
C349 C368 1.368 . S
C349 H373 0.949 . S
H350 C354 0.949 . S
C351 C352 1.349 . S
C351 C353 1.327 . S
C351 H374 0.950 . S
C352 C351 1.349 . S
C352 C364 1.349 1_455 S
C353 C351 1.327 . S
C353 C369 1.429 . S
C353 H375 0.950 . S
C354 H350 0.949 . S
C354 C362 1.574 . S
C354 C370 1.368 1_655 S
H355 C363 0.950 . S
H356 C361 0.950 . S
H357 C362 0.949 . S
H358 C364 0.950 . S
H359 C365 0.950 . S
H360 C366 0.949 . S
C361 H356 0.950 . S
C361 C363 1.327 . S
C361 C367 1.429 . S
C362 C354 1.574 . S
C362 H357 0.949 . S
C362 C368 1.368 1_655 S
C363 C347 1.349 . S
C363 H355 0.950 . S
C363 C361 1.327 . S
C364 C352 1.349 1_655 S
C364 H358 0.950 . S
C364 C365 1.327 . S
C365 H359 0.950 . S
C365 C364 1.327 . S
C365 C369 1.429 1_655 S
C366 C349 1.574 . S
C366 H360 0.949 . S
C366 C370 1.368 . S
C367 C348 1.429 1_455 S
C367 C361 1.429 . S
C367 C368 1.523 . S
C368 C349 1.368 . S
C368 C362 1.368 1_455 S
C368 C367 1.523 . S
C369 C353 1.429 . S
C369 C365 1.429 1_455 S
C369 C370 1.523 . S
C370 C354 1.368 1_455 S
C370 C366 1.368 . S
C370 C369 1.523 . S
H371 C346 0.960 . S
H372 C348 0.950 . S
H373 C349 0.949 . S
H374 C351 0.950 . S
H375 C353 0.950 . S
C376 C377 1.349 1_545 S
C376 C378 1.327 . S
C376 H401 0.950 . S
C377 C376 1.349 1_565 S
C377 C393 1.349 . S
C378 C376 1.327 . S
C378 C397 1.429 1_545 S
C378 H402 0.950 . S
C379 C396 1.574 1_554 S
C379 C398 1.368 . S
C379 H403 0.949 . S
H380 C384 0.949 . S
C381 C382 1.312 1_565 S
C381 C383 1.327 . S
C381 H404 0.950 . S
C382 C381 1.312 1_545 S
C382 C394 1.385 . S
C383 C381 1.327 . S
C383 C399 1.431 1_565 S
C383 H405 0.950 . S
C384 H380 0.949 . S
C384 C392 1.574 . S
C384 C400 1.353 1_544 S
H385 C393 0.950 . S
H386 C391 0.950 . S
H387 C392 0.949 . S
H388 C394 0.950 . S
H389 C395 0.950 . S
H390 C396 0.949 . S
C391 H386 0.950 . S
C391 C393 1.327 . S
C391 C397 1.429 . S
C392 C384 1.574 . S
C392 H387 0.949 . S
C392 C398 1.368 1_545 S
C393 C377 1.349 . S
C393 H385 0.950 . S
C393 C391 1.327 . S
C394 C382 1.385 . S
C394 H388 0.950 . S
C394 C395 1.327 . S
C395 H389 0.950 . S
C395 C394 1.327 . S
C395 C399 1.426 . S
C396 C379 1.574 1_556 S
C396 H390 0.949 . S
C396 C400 1.384 . S
C397 C378 1.429 1_565 S
C397 C391 1.429 . S
C397 C398 1.523 . S
C398 C379 1.368 . S
C398 C392 1.368 1_565 S
C398 C397 1.523 . S
C399 C383 1.431 1_545 S
C399 C395 1.426 . S
C399 C400 1.523 1_545 S
C400 C384 1.353 1_566 S
C400 C396 1.384 . S
C400 C399 1.523 1_565 S
H401 C376 0.950 . S
H402 C378 0.950 . S
H403 C379 0.949 . S
H404 C381 0.950 . S
H405 C383 0.950 . S
C406 C407 1.349 . S
C406 C408 1.327 . S
C406 H431 0.950 . S
C407 C406 1.349 . S
C407 C423 1.349 . S
C408 C406 1.327 . S
C408 C427 1.429 . S
C408 H432 0.950 . S
C409 C426 1.574 . S
C409 C428 1.368 . S
C409 H433 0.949 . S
H410 C414 0.949 . S
C411 C412 1.349 . S
C411 C413 1.327 . S
C411 H434 0.950 . S
C412 C411 1.349 . S
C412 C424 1.349 . S
C413 C411 1.327 . S
C413 C429 1.429 . S
C413 H435 0.950 . S
C414 H410 0.949 . S
C414 C422 1.574 1_556 S
C414 C430 1.368 . S
H415 C423 0.950 . S
H416 C421 0.950 . S
H417 C422 0.949 . S
H418 C424 0.950 . S
H419 C425 0.950 . S
H420 C426 0.949 . S
C421 H416 0.950 . S
C421 C423 1.327 . S
C421 C427 1.429 . S
C422 C414 1.574 1_554 S
C422 H417 0.949 . S
C422 C428 1.368 . S
C423 C407 1.349 . S
C423 H415 0.950 . S
C423 C421 1.327 . S
C424 C412 1.349 . S
C424 H418 0.950 . S
C424 C425 1.327 . S
C425 H419 0.950 . S
C425 C424 1.327 . S
C425 C429 1.429 . S
C426 C409 1.574 . S
C426 H420 0.949 . S
C426 C430 1.368 1_554 S
C427 C408 1.429 . S
C427 C421 1.429 . S
C427 C428 1.523 . S
C428 C409 1.368 . S
C428 C422 1.368 . S
C428 C427 1.523 . S
C429 C413 1.429 . S
C429 C425 1.429 . S
C429 C430 1.523 . S
C430 C414 1.368 . S
C430 C426 1.368 1_556 S
C430 C429 1.523 . S
H431 C406 0.950 . S
H432 C408 0.950 . S
H433 C409 0.949 . S
H434 C411 0.950 . S
H435 C413 0.950 . S
C436 C437 1.349 . S
C436 C438 1.327 . S
C436 H461 0.950 . S
C437 C436 1.349 . S
C437 C453 1.349 . S
C438 C436 1.327 . S
C438 C457 1.429 . S
C438 H462 0.950 . S
C439 C456 1.574 1_554 S
C439 C458 1.368 . S
C439 H463 0.949 . S
H440 C444 0.949 . S
C441 C442 1.349 . S
C441 C443 1.327 . S
C441 H464 0.950 . S
C442 C441 1.349 . S
C442 C454 1.349 . S
C443 C441 1.327 . S
C443 C459 1.429 . S
C443 H465 0.950 . S
C444 H440 0.949 . S
C444 C452 1.574 . S
C444 C460 1.368 1_554 S
H445 C453 0.950 . S
H446 C451 0.950 . S
H447 C452 0.949 . S
H448 C454 0.950 . S
H449 C455 0.950 . S
H450 C456 0.949 . S
C451 H446 0.950 . S
C451 C453 1.327 . S
C451 C457 1.429 . S
C452 C444 1.574 . S
C452 H447 0.949 . S
C452 C458 1.368 . S
C453 C437 1.349 . S
C453 H445 0.950 . S
C453 C451 1.327 . S
C454 C442 1.349 . S
C454 H448 0.950 . S
C454 C455 1.327 . S
C455 H449 0.950 . S
C455 C454 1.327 . S
C455 C459 1.429 . S
C456 C439 1.574 1_556 S
C456 H450 0.949 . S
C456 C460 1.368 . S
C457 C438 1.429 . S
C457 C451 1.429 . S
C457 C458 1.523 . S
C458 C439 1.368 . S
C458 C452 1.368 . S
C458 C457 1.523 . S
C459 C443 1.429 . S
C459 C455 1.429 . S
C459 C460 1.523 . S
C460 C444 1.368 1_556 S
C460 C456 1.368 . S
C460 C459 1.523 . S
H461 C436 0.950 . S
H462 C438 0.950 . S
H463 C439 0.949 . S
H464 C441 0.950 . S
H465 C443 0.950 . S
C466 C467 1.349 . S
C466 C468 1.327 . S
C466 H491 0.950 . S
C467 C466 1.349 . S
C467 C483 1.349 1_655 S
C468 C466 1.327 . S
C468 C487 1.441 . S
C468 H492 0.950 . S
C469 C486 1.574 1_554 S
C469 C488 1.365 . S
C469 H493 0.949 . S
H470 C474 0.949 . S
C471 C472 1.349 . S
C471 C473 1.327 . S
C471 H494 0.950 . S
C472 C471 1.349 . S
C472 C484 1.349 1_455 S
C473 C471 1.327 . S
C473 C489 1.429 . S
C473 H495 0.950 . S
C474 H470 0.949 . S
C474 C482 1.574 . S
C474 C490 1.339 1_654 S
H475 C483 0.950 . S
H476 C481 0.950 . S
H477 C482 0.949 . S
H478 C484 0.950 . S
H479 C485 0.950 . S
H480 C486 0.949 . S
C481 H476 0.950 . S
C481 C483 1.327 . S
C481 C487 1.416 1_455 S
C482 C474 1.574 . S
C482 H477 0.949 . S
C482 C488 1.372 1_655 S
C483 C467 1.349 1_455 S
C483 H475 0.950 . S
C483 C481 1.327 . S
C484 C472 1.349 1_655 S
C484 H478 0.950 . S
C484 C485 1.327 . S
C485 H479 0.950 . S
C485 C484 1.327 . S
C485 C489 1.429 1_655 S
C486 C469 1.574 1_556 S
C486 H480 0.949 . S
C486 C490 1.398 . S
C487 C468 1.441 . S
C487 C481 1.416 1_655 S
C487 C488 1.523 1_655 S
C488 C469 1.365 . S
C488 C482 1.372 1_455 S
C488 C487 1.523 1_455 S
C489 C473 1.429 . S
C489 C485 1.429 1_455 S
C489 C490 1.525 . S
C490 C474 1.339 1_456 S
C490 C486 1.398 . S
C490 C489 1.525 . S
H491 C466 0.950 . S
H492 C468 0.950 . S
H493 C469 0.949 . S
H494 C471 0.950 . S
H495 C473 0.950 . S
C496 C497 1.349 . S
C496 C498 1.327 . S
C496 H521 0.950 . S
C497 C496 1.349 . S
C497 C513 1.349 . S
C498 C496 1.327 . S
C498 C517 1.429 . S
C498 H522 0.950 . S
C499 C516 1.574 . S
C499 C518 1.368 1_655 S
C499 H523 0.946 1_655 S
H500 C504 0.949 . S
C501 C502 1.349 . S
C501 C503 1.327 . S
C501 H524 0.950 . S
C502 C501 1.349 . S
C502 C514 1.349 . S
C503 C501 1.327 . S
C503 C519 1.429 . S
C503 H525 0.950 . S
C504 H500 0.949 . S
C504 C512 1.574 . S
C504 C520 1.368 . S
H505 C513 0.955 . S
H506 C511 0.950 . S
H507 C512 0.951 . S
H508 C514 0.950 . S
H509 C515 0.950 . S
H510 C516 0.949 . S
C511 H506 0.950 . S
C511 C513 1.327 . S
C511 C517 1.429 . S
C512 C504 1.574 . S
C512 H507 0.951 . S
C512 C518 1.368 1_655 S
C513 C497 1.349 . S
C513 H505 0.955 . S
C513 C511 1.327 . S
C514 C502 1.349 . S
C514 H508 0.950 . S
C514 C515 1.327 . S
C515 H509 0.950 . S
C515 C514 1.327 . S
C515 C519 1.429 . S
C516 C499 1.574 . S
C516 H510 0.949 . S
C516 C520 1.368 . S
C517 C498 1.429 . S
C517 C511 1.429 . S
C517 C518 1.523 . S
C518 C499 1.368 1_455 S
C518 C512 1.368 1_455 S
C518 C517 1.523 . S
C519 C503 1.429 . S
C519 C515 1.429 . S
C519 C520 1.523 . S
C520 C504 1.368 . S
C520 C516 1.368 . S
C520 C519 1.523 . S
H521 C496 0.950 . S
H522 C498 0.950 . S
H523 C499 0.946 1_455 S
H524 C501 0.950 . S
H525 C503 0.950 . S
C526 C527 1.349 . S
C526 C528 1.334 . S
C526 H551 0.950 . S
C527 C526 1.349 . S
C527 C543 1.349 . S
C528 C526 1.334 . S
C528 C547 1.433 . S
C528 H552 0.940 1_545 S
C529 C546 1.574 1_545 S
C529 C548 1.368 1_545 S
C529 H553 0.949 . S
H530 C534 0.949 . S
C531 C532 1.349 . S
C531 C533 1.327 . S
C531 H554 0.950 . S
C532 C531 1.349 . S
C532 C544 1.349 . S
C533 C531 1.327 . S
C533 C549 1.429 . S
C533 H555 0.950 . S
C534 H530 0.949 . S
C534 C542 1.574 . S
C534 C550 1.368 . S
H535 C543 0.950 . S
H536 C541 0.950 . S
H537 C542 0.949 . S
H538 C544 0.950 . S
H539 C545 0.950 . S
H540 C546 0.952 . S
C541 H536 0.950 . S
C541 C543 1.327 . S
C541 C547 1.429 . S
C542 C534 1.574 . S
C542 H537 0.949 . S
C542 C548 1.368 . S
C543 C527 1.349 . S
C543 H535 0.950 . S
C543 C541 1.327 . S
C544 C532 1.349 . S
C544 H538 0.950 . S
C544 C545 1.327 . S
C545 H539 0.950 . S
C545 C544 1.327 . S
C545 C549 1.429 . S
C546 C529 1.574 1_565 S
C546 H540 0.952 . S
C546 C550 1.368 . S
C547 C528 1.433 . S
C547 C541 1.429 . S
C547 C548 1.523 1_545 S
C548 C529 1.368 1_565 S
C548 C542 1.368 . S
C548 C547 1.523 1_565 S
C549 C533 1.429 . S
C549 C545 1.429 . S
C549 C550 1.523 . S
C550 C534 1.368 . S
C550 C546 1.368 . S
C550 C549 1.523 . S
H551 C526 0.950 . S
H552 C528 0.940 1_565 S
H553 C529 0.949 . S
H554 C531 0.950 . S
H555 C533 0.950 . S
C556 C557 1.349 . S
C556 C558 1.327 . S
C556 H581 0.950 . S
C557 C556 1.349 . S
C557 C573 1.349 . S
C558 C556 1.327 . S
C558 C577 1.429 . S
C558 H582 0.950 . S
C559 C576 1.574 . S
C559 C578 1.368 . S
C559 H583 0.949 . S
H560 C564 0.949 . S
C561 C562 1.349 . S
C561 C563 1.327 . S
C561 H584 0.950 . S
C562 C561 1.349 . S
C562 C574 1.349 . S
C563 C561 1.327 . S
C563 C579 1.429 . S
C563 H585 0.950 . S
C564 H560 0.949 . S
C564 C572 1.574 . S
C564 C580 1.368 . S
H565 C573 0.950 . S
H566 C571 0.950 . S
H567 C572 0.949 . S
H568 C574 0.950 . S
H569 C575 0.950 . S
H570 C576 0.949 . S
C571 H566 0.950 . S
C571 C573 1.327 . S
C571 C577 1.429 . S
C572 C564 1.574 . S
C572 H567 0.949 . S
C572 C578 1.368 . S
C573 C557 1.349 . S
C573 H565 0.950 . S
C573 C571 1.327 . S
C574 C562 1.349 . S
C574 H568 0.950 . S
C574 C575 1.327 . S
C575 H569 0.950 . S
C575 C574 1.327 . S
C575 C579 1.429 . S
C576 C559 1.574 . S
C576 H570 0.949 . S
C576 C580 1.368 . S
C577 C558 1.429 . S
C577 C571 1.429 . S
C577 C578 1.523 . S
C578 C559 1.368 . S
C578 C572 1.368 . S
C578 C577 1.523 . S
C579 C563 1.429 . S
C579 C575 1.429 . S
C579 C580 1.523 . S
C580 C564 1.368 . S
C580 C576 1.368 . S
C580 C579 1.523 . S
H581 C556 0.950 . S
H582 C558 0.950 . S
H583 C559 0.949 . S
H584 C561 0.950 . S
H585 C563 0.950 . S
C586 C587 1.349 . S
C586 C588 1.327 . S
C586 H611 0.950 . S
C587 C586 1.349 . S
C587 C603 1.349 . S
C588 C586 1.327 . S
C588 C607 1.429 . S
C588 H612 0.950 . S
C589 C606 1.574 . S
C589 C608 1.368 . S
C589 H613 0.949 . S
H590 C594 0.949 . S
C591 C592 1.349 . S
C591 C593 1.327 . S
C591 H614 0.950 . S
C592 C591 1.349 . S
C592 C604 1.349 . S
C593 C591 1.327 . S
C593 C609 1.429 . S
C593 H615 0.950 . S
C594 H590 0.949 . S
C594 C602 1.574 . S
C594 C610 1.368 . S
H595 C603 0.950 . S
H596 C601 0.950 . S
H597 C602 0.949 . S
H598 C604 0.950 . S
H599 C605 0.950 . S
H600 C606 0.949 . S
C601 H596 0.950 . S
C601 C603 1.327 . S
C601 C607 1.429 . S
C602 C594 1.574 . S
C602 H597 0.949 . S
C602 C608 1.368 . S
C603 C587 1.349 . S
C603 H595 0.950 . S
C603 C601 1.327 . S
C604 C592 1.349 . S
C604 H598 0.950 . S
C604 C605 1.327 . S
C605 H599 0.950 . S
C605 C604 1.327 . S
C605 C609 1.429 . S
C606 C589 1.574 . S
C606 H600 0.949 . S
C606 C610 1.368 . S
C607 C588 1.429 . S
C607 C601 1.429 . S
C607 C608 1.523 . S
C608 C589 1.368 . S
C608 C602 1.368 . S
C608 C607 1.523 . S
C609 C593 1.429 . S
C609 C605 1.429 . S
C609 C610 1.523 . S
C610 C594 1.368 . S
C610 C606 1.368 . S
C610 C609 1.523 . S
H611 C586 0.950 . S
H612 C588 0.950 . S
H613 C589 0.949 . S
H614 C591 0.950 . S
H615 C593 0.950 . S
C616 C617 1.349 . S
C616 C618 1.327 . S
C616 H641 0.950 . S
C617 C616 1.349 . S
C617 C633 1.349 1_655 S
C618 C616 1.327 . S
C618 C637 1.429 1_655 S
C618 H642 0.950 . S
C619 C636 1.574 . S
C619 C638 1.368 . S
C619 H643 0.949 . S
H620 C624 0.966 . S
C621 C622 1.349 1_554 S
C621 C623 1.327 . S
C621 H644 0.950 . S
C622 C621 1.349 1_556 S
C622 C634 1.349 . S
C623 C621 1.327 . S
C623 C639 1.429 . S
C623 H645 0.950 . S
C624 H620 0.966 . S
C624 C632 1.579 . S
C624 C640 1.344 1_655 S
H625 C633 0.950 . S
H626 C631 0.950 . S
H627 C632 0.949 . S
H628 C634 0.950 . S
H629 C635 0.950 1_655 S
H630 C636 0.949 . S
C631 H626 0.950 . S
C631 C633 1.327 . S
C631 C637 1.429 . S
C632 C624 1.579 . S
C632 H627 0.949 . S
C632 C638 1.368 1_655 S
C633 C617 1.349 1_455 S
C633 H625 0.950 . S
C633 C631 1.327 . S
C634 C622 1.349 . S
C634 H628 0.950 . S
C634 C635 1.327 . S
C635 H629 0.950 1_455 S
C635 C634 1.327 . S
C635 C639 1.429 1_556 S
C636 C619 1.574 . S
C636 H630 0.949 . S
C636 C640 1.368 . S
C637 C618 1.429 1_455 S
C637 C631 1.429 . S
C637 C638 1.523 . S
C638 C619 1.368 . S
C638 C632 1.368 1_455 S
C638 C637 1.523 . S
C639 C623 1.429 . S
C639 C635 1.429 1_554 S
C639 C640 1.523 . S
C640 C624 1.344 1_455 S
C640 C636 1.368 . S
C640 C639 1.523 . S
H641 C616 0.950 . S
H642 C618 0.950 . S
H643 C619 0.949 . S
H644 C621 0.950 . S
H645 C623 0.950 . S
C646 C647 1.349 1_545 S
C646 C648 1.327 . S
C646 H671 0.950 . S
C647 C646 1.349 1_565 S
C647 C663 1.349 . S
C648 C646 1.327 . S
C648 C667 1.429 . S
C648 H672 0.950 . S
C649 C666 1.574 . S
C649 C668 1.368 1_565 S
C649 H673 0.949 . S
H650 C654 0.949 . S
C651 C652 1.349 1_554 S
C651 C653 1.327 . S
C651 H674 0.929 1_545 S
C652 C651 1.349 1_556 S
C652 C664 1.349 . S
C653 C651 1.327 . S
C653 C669 1.429 . S
C653 H675 0.950 1_545 S
C654 H650 0.949 . S
C654 C662 1.574 . S
C654 C670 1.368 . S
H655 C663 0.950 . S
H656 C661 0.950 . S
H657 C662 0.949 . S
H658 C664 0.950 . S
H659 C665 0.950 . S
H660 C666 0.949 . S
C661 H656 0.950 . S
C661 C663 1.327 . S
C661 C667 1.429 1_565 S
C662 C654 1.574 . S
C662 H657 0.949 . S
C662 C668 1.368 . S
C663 C647 1.349 . S
C663 H655 0.950 . S
C663 C661 1.327 . S
C664 C652 1.349 . S
C664 H658 0.950 . S
C664 C665 1.327 1_556 S
C665 H659 0.950 . S
C665 C664 1.327 1_554 S
C665 C669 1.429 . S
C666 C649 1.574 . S
C666 H660 0.949 . S
C666 C670 1.368 1_565 S
C667 C648 1.429 . S
C667 C661 1.429 1_545 S
C667 C668 1.523 . S
C668 C649 1.368 1_545 S
C668 C662 1.368 . S
C668 C667 1.523 . S
C669 C653 1.429 . S
C669 C665 1.429 . S
C669 C670 1.523 . S
C670 C654 1.368 . S
C670 C666 1.368 1_545 S
C670 C669 1.523 . S
H671 C646 0.950 . S
H672 C648 0.950 . S
H673 C649 0.949 . S
H674 C651 0.929 1_565 S
H675 C653 0.950 1_565 S
C676 C677 1.349 . S
C676 C678 1.327 . S
C676 H701 0.950 . S
C677 C676 1.349 . S
C677 C693 1.349 . S
C678 C676 1.327 . S
C678 C697 1.429 . S
C678 H702 0.950 . S
C679 C696 1.574 . S
C679 C698 1.368 . S
C679 H703 0.949 . S
H680 C684 0.949 . S
C681 C682 1.349 . S
C681 C683 1.327 . S
C681 H704 0.950 . S
C682 C681 1.349 . S
C682 C694 1.349 1_556 S
C683 C681 1.327 . S
C683 C699 1.429 1_556 S
C683 H705 0.950 . S
C684 H680 0.949 . S
C684 C692 1.574 . S
C684 C700 1.368 . S
H685 C693 0.950 . S
H686 C691 0.950 . S
H687 C692 0.949 . S
H688 C694 0.950 . S
H689 C695 0.950 . S
H690 C696 0.949 . S
C691 H686 0.950 . S
C691 C693 1.327 . S
C691 C697 1.429 . S
C692 C684 1.574 . S
C692 H687 0.949 . S
C692 C698 1.368 . S
C693 C677 1.349 . S
C693 H685 0.950 . S
C693 C691 1.327 . S
C694 C682 1.349 1_554 S
C694 H688 0.950 . S
C694 C695 1.327 . S
C695 H689 0.950 . S
C695 C694 1.327 . S
C695 C699 1.429 . S
C696 C679 1.574 . S
C696 H690 0.949 . S
C696 C700 1.368 . S
C697 C678 1.429 . S
C697 C691 1.429 . S
C697 C698 1.523 . S
C698 C679 1.368 . S
C698 C692 1.368 . S
C698 C697 1.523 . S
C699 C683 1.429 1_554 S
C699 C695 1.429 . S
C699 C700 1.523 . S
C700 C684 1.368 . S
C700 C696 1.368 . S
C700 C699 1.523 . S
H701 C676 0.950 . S
H702 C678 0.950 . S
H703 C679 0.949 . S
H704 C681 0.950 . S
H705 C683 0.950 . S
C706 C707 1.349 . S
C706 C708 1.327 . S
C706 H731 0.950 . S
C707 C706 1.349 . S
C707 C723 1.349 . S
C708 C706 1.327 . S
C708 C727 1.429 . S
C708 H732 0.950 . S
C709 C726 1.574 . S
C709 C728 1.368 . S
C709 H733 0.949 . S
H710 C714 0.949 . S
C711 C712 1.349 1_554 S
C711 C713 1.327 . S
C711 H734 0.950 . S
C712 C711 1.349 1_556 S
C712 C724 1.349 . S
C713 C711 1.327 . S
C713 C729 1.429 . S
C713 H735 0.950 . S
C714 H710 0.949 . S
C714 C722 1.574 . S
C714 C730 1.368 . S
H715 C723 0.950 . S
H716 C721 0.950 . S
H717 C722 0.949 . S
H718 C724 0.950 . S
H719 C725 0.950 . S
H720 C726 0.949 . S
C721 H716 0.950 . S
C721 C723 1.327 . S
C721 C727 1.429 . S
C722 C714 1.574 . S
C722 H717 0.949 . S
C722 C728 1.368 . S
C723 C707 1.349 . S
C723 H715 0.950 . S
C723 C721 1.327 . S
C724 C712 1.349 . S
C724 H718 0.950 . S
C724 C725 1.327 1_556 S
C725 H719 0.950 . S
C725 C724 1.327 1_554 S
C725 C729 1.429 . S
C726 C709 1.574 . S
C726 H720 0.949 . S
C726 C730 1.368 . S
C727 C708 1.429 . S
C727 C721 1.429 . S
C727 C728 1.523 . S
C728 C709 1.368 . S
C728 C722 1.368 . S
C728 C727 1.523 . S
C729 C713 1.429 . S
C729 C725 1.429 . S
C729 C730 1.523 . S
C730 C714 1.368 . S
C730 C726 1.368 . S
C730 C729 1.523 . S
H731 C706 0.950 . S
H732 C708 0.950 . S
H733 C709 0.949 . S
H734 C711 0.950 . S
H735 C713 0.950 . S
C736 C737 1.370 . S
C736 C738 1.327 . S
C736 H761 0.929 1_455 S
C737 C736 1.370 . S
C737 C753 1.349 . S
C738 C736 1.327 . S
C738 C757 1.454 . S
C738 H762 0.925 1_455 S
C739 C756 1.574 . S
C739 C758 1.368 . S
C739 H763 0.949 . S
H740 C744 0.949 1_655 S
C741 C742 1.349 . S
C741 C743 1.327 . S
C741 H764 0.950 . S
C742 C741 1.349 . S
C742 C754 1.349 . S
C743 C741 1.327 . S
C743 C759 1.429 . S
C743 H765 0.950 . S
C744 H740 0.949 1_455 S
C744 C752 1.574 . S
C744 C760 1.368 . S
H745 C753 0.950 . S
H746 C751 0.950 . S
H747 C752 0.949 1_655 S
H748 C754 0.950 1_655 S
H749 C755 0.950 1_655 S
H750 C756 0.949 . S
C751 H746 0.950 . S
C751 C753 1.327 . S
C751 C757 1.429 . S
C752 C744 1.574 . S
C752 H747 0.949 1_455 S
C752 C758 1.368 . S
C753 C737 1.349 . S
C753 H745 0.950 . S
C753 C751 1.327 . S
C754 C742 1.349 . S
C754 H748 0.950 1_455 S
C754 C755 1.327 . S
C755 H749 0.950 1_455 S
C755 C754 1.327 . S
C755 C759 1.429 . S
C756 C739 1.574 . S
C756 H750 0.949 . S
C756 C760 1.368 . S
C757 C738 1.454 . S
C757 C751 1.429 . S
C757 C758 1.523 . S
C758 C739 1.368 . S
C758 C752 1.368 . S
C758 C757 1.523 . S
C759 C743 1.429 . S
C759 C755 1.429 . S
C759 C760 1.523 . S
C760 C744 1.368 . S
C760 C756 1.368 . S
C760 C759 1.523 . S
H761 C736 0.929 1_655 S
H762 C738 0.925 1_655 S
H763 C739 0.949 . S
H764 C741 0.950 . S
H765 C743 0.950 . S
C766 C767 1.349 . S
C766 C768 1.327 . S
C766 H791 0.950 . S
C767 C766 1.349 . S
C767 C783 1.349 1_545 S
C768 C766 1.327 . S
C768 C787 1.429 . S
C768 H792 0.950 . S
C769 C786 1.574 . S
C769 C788 1.368 1_565 S
C769 H793 0.949 . S
H770 C774 0.949 . S
C771 C772 1.340 1_565 S
C771 C773 1.328 . S
C771 H794 0.959 . S
C772 C771 1.340 1_545 S
C772 C784 1.349 . S
C773 C771 1.328 . S
C773 C789 1.429 1_565 S
C773 H795 0.950 . S
C774 H770 0.949 . S
C774 C782 1.574 . S
C774 C790 1.368 . S
H775 C783 0.950 . S
H776 C781 0.950 . S
H777 C782 0.949 . S
H778 C784 0.950 . S
H779 C785 0.950 . S
H780 C786 0.949 . S
C781 H776 0.950 . S
C781 C783 1.327 . S
C781 C787 1.429 1_565 S
C782 C774 1.574 . S
C782 H777 0.949 . S
C782 C788 1.368 . S
C783 C767 1.349 1_565 S
C783 H775 0.950 . S
C783 C781 1.327 . S
C784 C772 1.349 . S
C784 H778 0.950 . S
C784 C785 1.327 . S
C785 H779 0.950 . S
C785 C784 1.327 . S
C785 C789 1.429 . S
C786 C769 1.574 . S
C786 H780 0.949 . S
C786 C790 1.368 1_565 S
C787 C768 1.429 . S
C787 C781 1.429 1_545 S
C787 C788 1.523 . S
C788 C769 1.368 1_545 S
C788 C782 1.368 . S
C788 C787 1.523 . S
C789 C773 1.429 1_545 S
C789 C785 1.429 . S
C789 C790 1.523 . S
C790 C774 1.368 . S
C790 C786 1.368 1_545 S
C790 C789 1.523 . S
H791 C766 0.950 . S
H792 C768 0.950 . S
H793 C769 0.949 . S
H794 C771 0.959 . S
H795 C773 0.950 . S
C796 C797 1.349 . S
C796 C798 1.327 . S
C796 H821 0.950 . S
C797 C796 1.349 . S
C797 C813 1.349 . S
C798 C796 1.327 . S
C798 C817 1.429 . S
C798 H822 0.950 . S
C799 C816 1.574 . S
C799 C818 1.368 . S
C799 H823 0.949 . S
H800 C804 0.949 . S
C801 C802 1.349 . S
C801 C803 1.327 . S
C801 H824 0.950 . S
C802 C801 1.349 . S
C802 C814 1.349 . S
C803 C801 1.327 . S
C803 C819 1.429 . S
C803 H825 0.950 . S
C804 H800 0.949 . S
C804 C812 1.574 . S
C804 C820 1.368 . S
H805 C813 0.950 . S
H806 C811 0.950 . S
H807 C812 0.949 . S
H808 C814 0.950 . S
H809 C815 0.950 . S
H810 C816 0.949 . S
C811 H806 0.950 . S
C811 C813 1.327 . S
C811 C817 1.429 . S
C812 C804 1.574 . S
C812 H807 0.949 . S
C812 C818 1.368 . S
C813 C797 1.349 . S
C813 H805 0.950 . S
C813 C811 1.327 . S
C814 C802 1.349 . S
C814 H808 0.950 . S
C814 C815 1.327 . S
C815 H809 0.950 . S
C815 C814 1.327 . S
C815 C819 1.429 . S
C816 C799 1.574 . S
C816 H810 0.949 . S
C816 C820 1.368 . S
C817 C798 1.429 . S
C817 C811 1.429 . S
C817 C818 1.523 . S
C818 C799 1.368 . S
C818 C812 1.368 . S
C818 C817 1.523 . S
C819 C803 1.429 . S
C819 C815 1.429 . S
C819 C820 1.523 . S
C820 C804 1.368 . S
C820 C816 1.368 . S
C820 C819 1.523 . S
H821 C796 0.950 . S
H822 C798 0.950 . S
H823 C799 0.949 . S
H824 C801 0.950 . S
H825 C803 0.950 . S
C826 C827 1.349 . S
C826 C828 1.327 . S
C826 H851 0.950 . S
C827 C826 1.349 . S
C827 C843 1.349 . S
C828 C826 1.327 . S
C828 C847 1.429 . S
C828 H852 0.950 . S
C829 C846 1.574 . S
C829 C848 1.368 . S
C829 H853 0.949 . S
H830 C834 0.949 . S
C831 C832 1.349 . S
C831 C833 1.327 . S
C831 H854 0.950 . S
C832 C831 1.349 . S
C832 C844 1.349 . S
C833 C831 1.327 . S
C833 C849 1.429 . S
C833 H855 0.950 . S
C834 H830 0.949 . S
C834 C842 1.574 . S
C834 C850 1.368 . S
H835 C843 0.950 . S
H836 C841 0.950 . S
H837 C842 0.949 . S
H838 C844 0.950 . S
H839 C845 0.950 . S
H840 C846 0.949 . S
C841 H836 0.950 . S
C841 C843 1.327 . S
C841 C847 1.429 . S
C842 C834 1.574 . S
C842 H837 0.949 . S
C842 C848 1.368 . S
C843 C827 1.349 . S
C843 H835 0.950 . S
C843 C841 1.327 . S
C844 C832 1.349 . S
C844 H838 0.950 . S
C844 C845 1.327 . S
C845 H839 0.950 . S
C845 C844 1.327 . S
C845 C849 1.429 . S
C846 C829 1.574 . S
C846 H840 0.949 . S
C846 C850 1.368 . S
C847 C828 1.429 . S
C847 C841 1.429 . S
C847 C848 1.523 . S
C848 C829 1.368 . S
C848 C842 1.368 . S
C848 C847 1.523 . S
C849 C833 1.429 . S
C849 C845 1.429 . S
C849 C850 1.523 . S
C850 C834 1.368 . S
C850 C846 1.368 . S
C850 C849 1.523 . S
H851 C826 0.950 . S
H852 C828 0.950 . S
H853 C829 0.949 . S
H854 C831 0.950 . S
H855 C833 0.950 . S
C856 C857 1.349 . S
C856 C858 1.327 . S
C856 H881 0.950 . S
C857 C856 1.349 . S
C857 C873 1.349 1_655 S
C858 C856 1.327 . S
C858 C877 1.429 . S
C858 H882 0.950 . S
C859 C876 1.574 . S
C859 C878 1.368 1_455 S
C859 H883 0.949 . S
H860 C864 0.949 . S
C861 C862 1.349 1_455 S
C861 C863 1.327 . S
C861 H884 0.950 . S
C862 C861 1.349 1_655 S
C862 C874 1.349 . S
C863 C861 1.327 . S
C863 C879 1.429 1_455 S
C863 H885 0.950 . S
C864 H860 0.949 . S
C864 C872 1.574 . S
C864 C880 1.368 . S
H865 C873 0.950 . S
H866 C871 0.950 . S
H867 C872 0.949 . S
H868 C874 0.950 . S
H869 C875 0.950 . S
H870 C876 0.949 . S
C871 H866 0.950 . S
C871 C873 1.327 . S
C871 C877 1.429 1_455 S
C872 C864 1.574 . S
C872 H867 0.949 . S
C872 C878 1.368 . S
C873 C857 1.349 1_455 S
C873 H865 0.950 . S
C873 C871 1.327 . S
C874 C862 1.349 . S
C874 H868 0.950 . S
C874 C875 1.327 . S
C875 H869 0.950 . S
C875 C874 1.327 . S
C875 C879 1.429 . S
C876 C859 1.574 . S
C876 H870 0.949 . S
C876 C880 1.368 1_455 S
C877 C858 1.429 . S
C877 C871 1.429 1_655 S
C877 C878 1.523 . S
C878 C859 1.368 1_655 S
C878 C872 1.368 . S
C878 C877 1.523 . S
C879 C863 1.429 1_655 S
C879 C875 1.429 . S
C879 C880 1.523 . S
C880 C864 1.368 . S
C880 C876 1.368 1_655 S
C880 C879 1.523 . S
H881 C856 0.950 . S
H882 C858 0.950 . S
H883 C859 0.949 . S
H884 C861 0.950 . S
H885 C863 0.950 . S
C886 C887 1.349 1_545 S
C886 C888 1.327 . S
C886 H911 0.950 . S
C887 C886 1.349 1_565 S
C887 C903 1.349 . S
C888 C886 1.327 . S
C888 C907 1.429 1_545 S
C888 H912 0.950 . S
C889 C906 1.574 . S
C889 C908 1.368 . S
C889 H913 0.949 . S
H890 C894 0.949 . S
C891 C892 1.349 . S
C891 C893 1.327 . S
C891 H914 0.950 . S
C892 C891 1.349 . S
C892 C904 1.349 1_565 S
C893 C891 1.327 . S
C893 C909 1.429 . S
C893 H915 0.950 . S
C894 H890 0.949 . S
C894 C902 1.574 . S
C894 C910 1.368 1_545 S
H895 C903 0.950 . S
H896 C901 0.950 . S
H897 C902 0.949 . S
H898 C904 0.950 . S
H899 C905 0.950 . S
H900 C906 0.949 . S
C901 H896 0.950 . S
C901 C903 1.327 . S
C901 C907 1.429 . S
C902 C894 1.574 . S
C902 H897 0.949 . S
C902 C908 1.368 1_545 S
C903 C887 1.349 . S
C903 H895 0.950 . S
C903 C901 1.327 . S
C904 C892 1.349 1_545 S
C904 H898 0.950 . S
C904 C905 1.327 . S
C905 H899 0.950 . S
C905 C904 1.327 . S
C905 C909 1.429 1_545 S
C906 C889 1.574 . S
C906 H900 0.949 . S
C906 C910 1.368 . S
C907 C888 1.429 1_565 S
C907 C901 1.429 . S
C907 C908 1.523 . S
C908 C889 1.368 . S
C908 C902 1.368 1_565 S
C908 C907 1.523 . S
C909 C893 1.429 . S
C909 C905 1.429 1_565 S
C909 C910 1.523 . S
C910 C894 1.368 1_565 S
C910 C906 1.368 . S
C910 C909 1.523 . S
H911 C886 0.950 . S
H912 C888 0.950 . S
H913 C889 0.949 . S
H914 C891 0.950 . S
H915 C893 0.950 . S
C916 C917 1.349 . S
C916 C918 1.327 . S
C916 H941 0.950 . S
C917 C916 1.349 . S
C917 C933 1.349 . S
C918 C916 1.327 . S
C918 C937 1.429 . S
C918 H942 0.950 . S
C919 C936 1.574 . S
C919 C938 1.368 . S
C919 H943 0.949 . S
H920 C924 0.949 . S
C921 C922 1.349 . S
C921 C923 1.327 . S
C921 H944 0.950 . S
C922 C921 1.349 . S
C922 C934 1.349 . S
C923 C921 1.327 . S
C923 C939 1.429 . S
C923 H945 0.950 . S
C924 H920 0.949 . S
C924 C932 1.574 . S
C924 C940 1.368 . S
H925 C933 0.950 . S
H926 C931 0.950 . S
H927 C932 0.949 . S
H928 C934 0.950 . S
H929 C935 0.950 . S
H930 C936 0.949 . S
C931 H926 0.950 . S
C931 C933 1.327 . S
C931 C937 1.429 . S
C932 C924 1.574 . S
C932 H927 0.949 . S
C932 C938 1.368 . S
C933 C917 1.349 . S
C933 H925 0.950 . S
C933 C931 1.327 . S
C934 C922 1.349 . S
C934 H928 0.950 . S
C934 C935 1.327 . S
C935 H929 0.950 . S
C935 C934 1.327 . S
C935 C939 1.429 . S
C936 C919 1.574 . S
C936 H930 0.949 . S
C936 C940 1.368 . S
C937 C918 1.429 . S
C937 C931 1.429 . S
C937 C938 1.523 . S
C938 C919 1.368 . S
C938 C932 1.368 . S
C938 C937 1.523 . S
C939 C923 1.429 . S
C939 C935 1.429 . S
C939 C940 1.523 . S
C940 C924 1.368 . S
C940 C936 1.368 . S
C940 C939 1.523 . S
H941 C916 0.950 . S
H942 C918 0.950 . S
H943 C919 0.949 . S
H944 C921 0.950 . S
H945 C923 0.950 . S
C946 C947 1.349 . S
C946 C948 1.327 . S
C946 H971 0.950 . S
C947 C946 1.349 . S
C947 C963 1.349 . S
C948 C946 1.327 . S
C948 C967 1.429 . S
C948 H972 0.950 . S
C949 C966 1.574 . S
C949 C968 1.368 . S
C949 H973 0.949 . S
H950 C954 0.949 . S
C951 C952 1.349 . S
C951 C953 1.327 . S
C951 H974 0.950 . S
C952 C951 1.349 . S
C952 C964 1.349 . S
C953 C951 1.327 . S
C953 C969 1.429 . S
C953 H975 0.950 . S
C954 H950 0.949 . S
C954 C962 1.574 . S
C954 C970 1.368 . S
H955 C963 0.950 . S
H956 C961 0.950 . S
H957 C962 0.949 . S
H958 C964 0.950 . S
H959 C965 0.950 . S
H960 C966 0.949 . S
C961 H956 0.950 . S
C961 C963 1.327 . S
C961 C967 1.429 . S
C962 C954 1.574 . S
C962 H957 0.949 . S
C962 C968 1.368 . S
C963 C947 1.349 . S
C963 H955 0.950 . S
C963 C961 1.327 . S
C964 C952 1.349 . S
C964 H958 0.950 . S
C964 C965 1.327 . S
C965 H959 0.950 . S
C965 C964 1.327 . S
C965 C969 1.429 . S
C966 C949 1.574 . S
C966 H960 0.949 . S
C966 C970 1.368 . S
C967 C948 1.429 . S
C967 C961 1.429 . S
C967 C968 1.523 . S
C968 C949 1.368 . S
C968 C962 1.368 . S
C968 C967 1.523 . S
C969 C953 1.429 . S
C969 C965 1.429 . S
C969 C970 1.523 . S
C970 C954 1.368 . S
C970 C966 1.368 . S
C970 C969 1.523 . S
H971 C946 0.950 . S
H972 C948 0.950 . S
H973 C949 0.949 . S
H974 C951 0.950 . S
H975 C953 0.950 . S
C257 C76 1.730 . S
C262 C106 1.831 . S
C292 C146 1.831 . S
C287 C88 1.731 . S
C322 C186 1.830 . S
C317 C52 1.730 . S
C352 C226 1.831 . S
C347 C64 1.731 . S
C382 C115 1.838 . S
C377 C28 1.732 . S
C407 C40 1.731 . S
C412 C155 1.830 . S
C437 C4 1.732 . S
C442 C195 1.831 . S
C467 C16 1.731 . S
C472 C235 1.831 . S
C502 C112 0.351 . S
C497 C69 0.384 . S
C532 C152 0.351 . S
C527 C81 0.384 . S
C562 C192 0.350 . S
C557 C93 0.384 . S
C587 C57 0.384 . S
C592 C232 0.350 . S
C617 C21 0.399 . S
C622 C103 0.351 . S
C652 C143 0.351 . S
C647 C33 0.399 . S
C682 C183 0.350 . S
C677 C45 0.399 . S
C707 C9 0.399 . S
C712 C223 0.350 . S
C737 C66 1.877 . S
C742 C107 2.073 . S
C767 C78 1.877 . S
C772 C147 2.073 . S
C802 C187 2.073 . S
C797 C90 1.877 . S
C832 C227 2.073 . S
C827 C54 1.877 . S
C857 C18 1.881 . S
C862 C98 2.073 . S
C892 C138 2.073 . S
C887 C30 1.879 . S
C922 C178 2.073 . S
C917 C42 1.879 . S
C947 C6 1.879 . S
C952 C218 2.073 . S
