# Generated by pormake.
# Topology zzz, (3,6)-cn, num edge types: 1
# Building blocks:
#     Node 0, Type 0, BuildingBlock: QEWDON_clean_linker_0, # of connection points: 3
#     Node 1, Type 0, BuildingBlock: QEWDON_clean_linker_0, # of connection points: 3
#     Node 2, Type 0, BuildingBlock: QEWDON_clean_linker_0, # of connection points: 3
#     Node 3, Type 0, BuildingBlock: QEWDON_clean_linker_0, # of connection points: 3
#     Node 4, Type 0, BuildingBlock: QEWDON_clean_linker_0, # of connection points: 3
#     Node 5, Type 0, BuildingBlock: QEWDON_clean_linker_0, # of connection points: 3
#     Node 6, Type 0, BuildingBlock: QEWDON_clean_linker_0, # of connection points: 3
#     Node 7, Type 0, BuildingBlock: QEWDON_clean_linker_0, # of connection points: 3
#     Node 8, Type 1, BuildingBlock: MIFKUJ_clean_sbu_0, # of connection points: 6
#     Node 9, Type 1, BuildingBlock: MIFKUJ_clean_sbu_0, # of connection points: 6
#     Node 10, Type 1, BuildingBlock: MIFKUJ_clean_sbu_0, # of connection points: 6
#     Node 11, Type 1, BuildingBlock: MIFKUJ_clean_sbu_0, # of connection points: 6
#     Edge 12, Type (0, 1), BuildingBlock: CIFDUS_clean_linker_0, # of connection points: 2
#     Edge 13, Type (0, 1), BuildingBlock: CIFDUS_clean_linker_0, # of connection points: 2
#     Edge 14, Type (0, 1), BuildingBlock: CIFDUS_clean_linker_0, # of connection points: 2
#     Edge 15, Type (0, 1), BuildingBlock: CIFDUS_clean_linker_0, # of connection points: 2
#     Edge 16, Type (0, 1), BuildingBlock: CIFDUS_clean_linker_0, # of connection points: 2
#     Edge 17, Type (0, 1), BuildingBlock: CIFDUS_clean_linker_0, # of connection points: 2
#     Edge 18, Type (0, 1), BuildingBlock: CIFDUS_clean_linker_0, # of connection points: 2
#     Edge 19, Type (0, 1), BuildingBlock: CIFDUS_clean_linker_0, # of connection points: 2
#     Edge 20, Type (0, 1), BuildingBlock: CIFDUS_clean_linker_0, # of connection points: 2
#     Edge 21, Type (0, 1), BuildingBlock: CIFDUS_clean_linker_0, # of connection points: 2
#     Edge 22, Type (0, 1), BuildingBlock: CIFDUS_clean_linker_0, # of connection points: 2
#     Edge 23, Type (0, 1), BuildingBlock: CIFDUS_clean_linker_0, # of connection points: 2
#     Edge 24, Type (0, 1), BuildingBlock: CIFDUS_clean_linker_0, # of connection points: 2
#     Edge 25, Type (0, 1), BuildingBlock: CIFDUS_clean_linker_0, # of connection points: 2
#     Edge 26, Type (0, 1), BuildingBlock: CIFDUS_clean_linker_0, # of connection points: 2
#     Edge 27, Type (0, 1), BuildingBlock: CIFDUS_clean_linker_0, # of connection points: 2
#     Edge 28, Type (0, 1), BuildingBlock: CIFDUS_clean_linker_0, # of connection points: 2
#     Edge 29, Type (0, 1), BuildingBlock: CIFDUS_clean_linker_0, # of connection points: 2
#     Edge 30, Type (0, 1), BuildingBlock: CIFDUS_clean_linker_0, # of connection points: 2
#     Edge 31, Type (0, 1), BuildingBlock: CIFDUS_clean_linker_0, # of connection points: 2
#     Edge 32, Type (0, 1), BuildingBlock: CIFDUS_clean_linker_0, # of connection points: 2
#     Edge 33, Type (0, 1), BuildingBlock: CIFDUS_clean_linker_0, # of connection points: 2
#     Edge 34, Type (0, 1), BuildingBlock: CIFDUS_clean_linker_0, # of connection points: 2
#     Edge 35, Type (0, 1), BuildingBlock: CIFDUS_clean_linker_0, # of connection points: 2
# Relax obj value: 0.053
# Max RMSD: 0.101
# Mean RMSD: 0.040
data_MOF--net-zzz--node1-MIFKUJ_clean_sbu_0--node2-QEWDON_clean_linker_0--edge1-CIFDUS_clean_linker_0
_symmetry_space_group_name_H-M    P1
_symmetry_Int_Tables_number       1
_symmetry_cell_setting            triclinic
loop_
_symmetry_equiv_pos_as_xyz
'x, y, z'
_cell_length_a     47.997739
_cell_length_b     47.656441
_cell_length_c     14.215167
_cell_angle_alpha  90.184238
_cell_angle_beta   89.933949
_cell_angle_gamma 90.140043
loop_
_atom_site_label
_atom_site_type_symbol
_atom_site_fract_x
_atom_site_fract_y
_atom_site_fract_z
_atom_type_partial_charge
H0 H 0.74154 0.55042 0.91475 0.0
C1 C 0.75228 0.54631 0.98025 0.0
C2 C 0.77969 0.53644 0.97701 0.0
C3 C 0.73908 0.55157 0.06737 0.0
H4 H 0.81582 0.52602 0.05859 0.0
C5 C 0.7941 0.53231 0.06092 0.0
C6 C 0.78181 0.53772 0.14798 0.0
C7 C 0.75425 0.54751 0.15168 0.0
C8 C 0.70988 0.56213 0.06866 0.0
H9 H 0.74473 0.55159 0.21946 0.0
C10 C 0.6904 0.55249 0.00161 0.0
C11 C 0.66353 0.56408 -0.00328 0.0
C12 C 0.70165 0.58292 0.13331 0.0
H13 H 0.71613 0.59111 0.18493 0.0
C14 C 0.67479 0.59409 0.12998 0.0
H15 H 0.69626 0.5363 0.95177 0.0
C16 C 0.6559 0.58494 0.06178 0.0
H17 H 0.63524 0.59404 0.06029 0.0
H18 H 0.66871 0.6102 0.17974 0.0
H19 H 0.99952 0.74293 -0.00156 0.0
C20 C 0.00659 0.75212 0.06394 0.0
C21 C 0.01617 0.77991 0.06334 0.0
C22 C 1.00482 0.73687 0.14886 0.0
H23 H 0.02947 0.8147 0.14891 0.0
C24 C 0.02383 0.79263 0.14809 0.0
C25 C 0.02175 0.77849 0.23342 0.0
C26 C 0.01242 0.75051 0.23407 0.0
C27 C 0.99283 0.70779 0.14839 0.0
H28 H 0.0109 0.73975 0.30082 0.0
C29 C 0.99551 0.69003 0.06872 0.0
C30 C 0.98126 0.6642 0.06412 0.0
C31 C 0.97678 0.69829 0.22507 0.0
H32 H 0.97347 0.71131 0.28653 0.0
C33 C 0.96367 0.67215 0.2222 0.0
H34 H 0.00786 0.69652 0.00882 0.0
C35 C 0.96562 0.65534 0.14211 0.0
H36 H 0.95465 0.63544 0.1407 0.0
H37 H 0.95131 0.66521 0.28151 0.0
H38 H 0.74467 0.99419 0.86617 0.0
C39 C 0.7395 0.99984 0.93796 0.0
C40 C 0.71426 0.01366 0.95788 0.0
C41 C 0.75697 0.99094 0.01185 0.0
H42 H 0.6896 0.03262 0.06694 0.0
C43 C 0.70837 0.0209 0.05124 0.0
C44 C 0.72358 0.00954 0.12556 0.0
C45 C 0.74811 0.99471 0.1059 0.0
C46 C 0.78286 0.97505 -0.00905 0.0
H47 H 0.75992 0.98582 0.16344 0.0
C48 C 0.80267 0.9852 0.92574 0.0
C49 C 0.82742 0.97012 0.90769 0.0
C50 C 0.78789 0.94952 0.03694 0.0
H51 H 0.7729 0.94106 0.08639 0.0
C52 C 0.81217 0.93446 0.01899 0.0
H53 H 0.7989 1.00487 0.88994 0.0
C54 C 0.83182 0.94466 0.95538 0.0
H55 H 0.85081 0.93279 0.94504 0.0
H56 H 0.81587 0.91486 0.05514 0.0
H57 H 0.50271 0.78382 0.89541 0.0
C58 C 0.49804 0.77062 0.95527 0.0
C59 C 0.48643 0.74403 0.93914 0.0
C60 C 0.50485 0.77948 0.04731 0.0
H61 H 0.47499 0.70475 0.00221 0.0
C62 C 0.48196 0.72607 0.0153 0.0
C63 C 0.4889 0.73387 0.10698 0.0
C64 C 0.50015 0.76074 0.12315 0.0
C65 C 0.51833 0.8075 0.06269 0.0
H66 H 0.50525 0.7668 0.19454 0.0
C67 C 0.51228 0.83056 0.00362 0.0
C68 C 0.52561 0.85661 0.01673 0.0
C69 C 0.53809 0.81122 0.1349 0.0
H70 H 0.5441 0.794 0.17989 0.0
C71 C 0.55101 0.83716 0.14883 0.0
H72 H 0.49685 0.82859 0.94843 0.0
C73 C 0.54481 0.85973 0.09044 0.0
H74 H 0.55539 0.87956 0.10188 0.0
H75 H 0.56615 0.83969 0.20459 0.0
H76 H 0.25511 0.54139 0.22273 0.0
C77 C 0.24695 0.53371 0.15641 0.0
C78 C 0.2205 0.52109 0.15421 0.0
C79 C 0.26243 0.53698 0.07243 0.0
H80 H 0.18861 0.50339 0.06591 0.0
C81 C 0.20964 0.51183 0.06847 0.0
C82 C 0.22401 0.51587 -0.01548 0.0
C83 C 0.25044 0.52839 -0.01387 0.0
C84 C 0.29069 0.54999 0.07421 0.0
H85 H 0.26139 0.53152 0.92031 0.0
C86 C 0.30973 0.54356 0.14641 0.0
C87 C 0.33685 0.55489 0.14574 0.0
C88 C 0.29905 0.5685 0.00248 0.0
H89 H 0.2848 0.57442 0.94704 0.0
C90 C 0.32589 0.57982 0.00184 0.0
H91 H 0.30383 0.52905 0.20155 0.0
C92 C 0.34477 0.57295 0.07259 0.0
H93 H 0.36548 0.58205 0.07089 0.0
H94 H 0.33209 0.594 0.94624 0.0
H95 H 0.0117 0.25768 0.28159 0.0
C96 C 0.01658 0.24571 0.21877 0.0
C97 C 0.02938 0.21961 0.22847 0.0
C98 C 0.00855 0.25552 0.12953 0.0
H99 H 0.04537 0.18359 0.1567 0.0
C100 C 0.03482 0.20347 0.14833 0.0
C101 C 0.0237 0.21066 0.06061 0.0
C102 C 0.01145 0.23743 0.05072 0.0
C103 C 0.99484 0.28351 0.12231 0.0
H104 H 1.00343 0.24381 0.98304 0.0
C105 C 1.00338 0.3059 0.18108 0.0
C106 C 0.98858 0.33132 0.1832 0.0
C107 C 0.97195 0.28757 0.06221 0.0
H108 H 0.96443 0.27081 0.01731 0.0
C109 C 0.95768 0.31308 0.06216 0.0
H110 H 0.02109 0.30333 0.22746 0.0
C111 C 0.9657 0.33472 0.12286 0.0
H112 H 0.95407 0.35417 0.12252 0.0
H113 H 0.93997 0.3159 0.01612 0.0
H114 H 0.26008 0.9806 0.25762 0.0
C115 C 0.27078 0.98634 0.19332 0.0
C116 C 0.29915 0.99348 0.19664 0.0
C117 C 0.25676 0.98532 0.10594 0.0
H118 H 0.33506 1.00604 0.11724 0.0
C119 C 0.31309 1.00069 0.11391 0.0
C120 C 0.2997 1.00014 0.02695 0.0
C121 C 0.27154 0.99227 0.02291 0.0
C122 C 0.22717 0.97592 0.09991 0.0
H123 H 0.26122 0.9917 0.95519 0.0
C124 C 0.20711 0.98464 0.16661 0.0
C125 C 0.179 0.97664 0.15654 0.0
C126 C 0.21872 0.95831 0.0254 0.0
H127 H 0.23364 0.95062 0.97434 0.0
C128 C 0.19092 0.95022 0.01603 0.0
H129 H 0.21307 0.99834 0.22421 0.0
C130 C 0.17111 0.9595 0.08064 0.0
H131 H 0.14958 0.95312 0.07185 0.0
H132 H 0.18469 0.93677 0.95821 0.0
H133 H 0.53078 0.25814 0.21398 0.0
C134 C 0.52328 0.27303 0.16268 0.0
C135 C 0.52067 0.3011 0.18999 0.0
C136 C 0.5173 0.26477 0.069 0.0
H137 H 0.50949 0.34264 0.14787 0.0
C138 C 0.51207 0.32105 0.12489 0.0
C139 C 0.50819 0.31422 0.03041 0.0
C140 C 0.50963 0.28585 0.00318 0.0
C141 C 0.52074 0.23468 0.03912 0.0
H142 H 0.50542 0.28061 0.93053 0.0
C143 C 0.51832 0.21236 0.10448 0.0
C144 C 0.5235 0.18436 0.07721 0.0
C145 C 0.5277 0.22802 0.94526 0.0
H146 H 0.53094 0.24413 0.89302 0.0
C147 C 0.53144 0.20026 0.91709 0.0
H148 H 0.51305 0.21662 0.17709 0.0
C149 C 0.52938 0.17861 0.98219 0.0
H150 H 0.53273 0.1573 0.95814 0.0
H151 H 0.53654 0.19554 0.84455 0.0
Zn152 Zn 0.01348 0.0371 0.59155 0.0
Zn153 Zn 0.02501 0.95967 0.63439 0.0
C154 C 0.00771 0.07483 0.73452 0.0
O155 O 0.9866 0.0795 0.67805 0.0
C156 C 0.04872 0.91512 0.5292 0.0
O157 O 0.07022 0.92224 0.58119 0.0
O158 O 0.01349 0.07255 0.51579 0.0
O159 O 0.04355 0.01518 0.52186 0.0
O160 O 0.05887 0.98451 0.62463 0.0
C161 C 0.03742 0.08416 0.51891 0.0
O162 O 0.05805 0.07112 0.56068 0.0
O163 O 0.02359 0.05389 0.71862 0.0
C164 C 0.01236 0.91476 0.74645 0.0
O165 O 0.99202 0.91419 0.68468 0.0
O166 O 0.02908 0.93548 0.74677 0.0
O167 O 0.9865 0.97652 0.63709 0.0
O168 O 0.9748 0.0203 0.60339 0.0
O169 O 0.02674 0.92998 0.53246 0.0
C170 C 0.06228 0.99837 0.54961 0.0
C171 C 0.96813 0.99546 0.62724 0.0
Zn172 Zn 0.47942 0.02775 0.60138 0.0
Zn173 Zn 0.54058 0.012 0.50677 0.0
C174 C 0.43406 0.01703 0.71737 0.0
O175 O 0.4394 0.99233 0.68018 0.0
C176 C 0.59037 0.02777 0.42713 0.0
O177 O 0.5802 0.05071 0.46536 0.0
O178 O 0.45524 0.00967 0.5018 0.0
O179 O 0.49524 0.06365 0.54597 0.0
O180 O 0.52065 0.04268 0.43699 0.0
C181 C 0.43309 0.02354 0.48616 0.0
O182 O 0.43072 0.04886 0.52218 0.0
O183 O 0.45053 0.03738 0.70026 0.0
C184 C 0.57673 1.00723 0.65128 0.0
O185 O 0.57891 0.98364 0.60389 0.0
O186 O 0.55849 0.02516 0.62733 0.0
O187 O 0.52011 0.97612 0.53981 0.0
O188 O 0.50388 0.99864 0.66363 0.0
O189 O 0.57559 1.00549 0.42854 0.0
C190 C 0.50776 0.06416 0.46706 0.0
C191 C 0.51166 0.97587 0.62478 0.0
Zn192 Zn 0.51017 0.48272 0.56673 0.0
Zn193 Zn 0.4862 0.56307 0.5469 0.0
C194 C 0.51605 0.45563 0.73437 0.0
O195 O 0.54108 0.46479 0.71294 0.0
C196 C 0.46494 0.5926 0.39255 0.0
O197 O 0.44207 0.58781 0.44077 0.0
O198 O 0.5311 0.45096 0.50427 0.0
O199 O 0.48012 0.49389 0.47398 0.0
O200 O 0.46328 0.52813 0.55929 0.0
C201 C 0.51766 0.42788 0.50584 0.0
O202 O 0.49211 0.42775 0.53902 0.0
O203 O 0.4956 0.46316 0.68357 0.0
C204 C 0.48384 0.61706 0.60951 0.0
O205 O 0.50668 0.61603 0.55862 0.0
O206 O 0.46996 0.5946 0.62212 0.0
O207 O 0.52475 0.55793 0.59882 0.0
O208 O 0.53757 0.51316 0.60964 0.0
O209 O 0.48729 0.58029 0.41692 0.0
C210 C 0.46189 0.51276 0.48667 0.0
C211 C 0.54247 0.53927 0.6211 0.0
Zn212 Zn 0.04524 0.50751 0.57916 0.0
Zn213 Zn 0.95833 0.51474 0.55415 0.0
C214 C 0.09105 0.52602 0.67261 0.0
O215 O 0.08235 0.54743 0.6227 0.0
C216 C 0.91843 0.50157 0.42407 0.0
O217 O 0.92421 0.47762 0.46495 0.0
O218 O 0.06936 0.51552 0.46574 0.0
O219 O 0.02627 0.47016 0.54935 0.0
O220 O 0.98179 0.48072 0.53143 0.0
C221 C 0.08496 0.49423 0.45275 0.0
O222 O 0.0803 0.47142 0.50199 0.0
O223 O 0.07638 0.50368 0.67371 0.0
C224 C 0.91005 0.52341 0.65216 0.0
O225 O 0.9135 0.54684 0.60497 0.0
O226 O 0.92895 0.50479 0.64824 0.0
O227 O 0.97688 0.54857 0.61051 0.0
O228 O 0.02218 0.54068 0.62733 0.0
O229 O 0.93371 0.52279 0.44204 0.0
C230 C 1.00161 0.46323 0.52628 0.0
C231 C 1.00076 0.556 0.64027 0.0
H232 H 0.17417 0.96413 0.34215 0.0
H233 H 0.13497 0.00996 0.11784 0.0
H234 H 0.09608 0.0222 0.22152 0.0
H235 H 0.07197 0.01746 0.37249 0.0
H236 H 0.10961 0.96936 0.59532 0.0
H237 H 0.15026 0.96036 0.49607 0.0
C238 C 0.15726 0.97715 0.31693 0.0
C239 C 0.15737 0.98637 0.22314 0.0
C240 C 0.13458 0.9834 0.37627 0.0
C241 C 0.13524 1.00281 0.19012 0.0
C242 C 0.11301 0.00969 0.24919 0.0
C243 C 0.08912 1.00516 0.39979 0.0
C244 C 0.0876 0.99401 0.49125 0.0
C245 C 0.11224 0.99973 0.3419 0.0
C246 C 0.11008 0.97807 0.52505 0.0
C247 C 0.13339 0.97294 0.46835 0.0
H248 H 0.48869 0.17474 0.22841 0.0
H249 H 0.56122 0.14196 0.08574 0.0
H250 H 0.56271 0.10259 0.19372 0.0
H251 H 0.54318 0.07668 0.32542 0.0
H252 H 0.47179 0.10908 0.47453 0.0
H253 H 0.47044 0.14958 0.36844 0.0
C254 C 0.50496 0.15913 0.22153 0.0
C255 C 0.52449 0.16117 0.14754 0.0
C256 C 0.50596 0.13646 0.28508 0.0
C257 C 0.54542 0.14064 0.14001 0.0
C258 C 0.54646 0.11815 0.2023 0.0
C259 C 0.52729 0.09258 0.33509 0.0
C260 C 0.50749 0.08971 0.40749 0.0
C261 C 0.52671 0.11569 0.27434 0.0
C262 C 0.48731 0.11077 0.41946 0.0
C263 C 0.48648 0.13388 0.35857 0.0
H264 H 0.3897 0.5359 0.12432 0.0
H265 H 0.32895 0.558 0.33528 0.0
H266 H 0.36253 0.54746 0.45979 0.0
H267 H 0.40932 0.53209 0.50836 0.0
H268 H 0.46919 0.50764 0.29732 0.0
H269 H 0.43592 0.51903 0.17295 0.0
C270 C 0.38391 0.53845 0.19763 0.0
C271 C 0.357 0.54779 0.22088 0.0
C272 C 0.40316 0.53196 0.26859 0.0
C273 C 0.34953 0.55068 0.31596 0.0
C274 C 0.36873 0.54476 0.387 0.0
C275 C 0.41501 0.5293 0.43505 0.0
C276 C 0.44165 0.51924 0.41178 0.0
C277 C 0.39561 0.5354 0.36413 0.0
C278 C 0.44876 0.51534 0.31678 0.0
C279 C 0.42978 0.52191 0.24573 0.0
H280 H 0.9546 0.35899 0.30415 0.0
H281 H 0.04017 0.35401 0.21364 0.0
H282 H 0.05257 0.39272 0.31968 0.0
H283 H 0.03824 0.43016 0.4299 0.0
H284 H 0.95264 0.43429 0.52156 0.0
H285 H 0.94111 0.39367 0.424 0.0
C286 C 0.97595 0.36642 0.30774 0.0
C287 C 0.99638 0.35396 0.25038 0.0
C288 C 0.98291 0.38851 0.36912 0.0
C289 C 0.02409 0.36335 0.25704 0.0
C290 C 0.03116 0.38548 0.31754 0.0
C291 C 0.01719 0.42181 0.43001 0.0
C292 C 0.99619 0.43557 0.48173 0.0
C293 C 0.01066 0.39847 0.3731 0.0
C294 C 0.96902 0.42451 0.48076 0.0
C295 C 0.96242 0.40124 0.42509 0.0
H296 H 0.85825 0.94057 0.78083 0.0
H297 H 0.84637 0.02431 0.88955 0.0
H298 H 0.88684 0.04068 0.80028 0.0
H299 H 0.92912 0.0298 0.70702 0.0
H300 H 0.94233 0.94502 0.60981 0.0
H301 H 0.89804 0.93052 0.67875 0.0
C302 C 0.86442 0.96245 0.78488 0.0
C303 C 0.84943 0.98105 0.84304 0.0
C304 C 0.88818 0.97152 0.73568 0.0
C305 C 0.85738 0.00949 0.84526 0.0
C306 C 0.8807 0.01884 0.79473 0.0
C307 C 0.92193 1.00834 0.69905 0.0
C308 C 0.93902 0.9885 0.65347 0.0
C309 C 0.89674 0.99987 0.74175 0.0
C310 C 0.92962 0.96065 0.64485 0.0
C311 C 0.90433 0.95232 0.68453 0.0
H312 H 0.52835 0.85824 0.82508 0.0
H313 H 0.51025 0.90918 0.06869 0.0
H314 H 0.50348 0.95015 0.96843 0.0
H315 H 0.50426 0.97181 0.81329 0.0
H316 H 0.52437 0.92209 0.56823 0.0
H317 H 0.5288 0.88032 0.66716 0.0
C318 C 0.52263 0.87828 0.85574 0.0
C319 C 0.51973 0.88074 0.95405 0.0
C320 C 0.51933 0.90195 0.79761 0.0
C321 C 0.51268 0.90686 -0.00672 0.0
C322 C 0.50882 0.93026 0.93601 0.0
C323 C 0.50952 0.95185 0.78103 0.0
C324 C 0.51397 0.95016 0.6832 0.0
C325 C 0.51237 0.92811 0.83831 0.0
C326 C 0.52088 0.92406 0.64325 0.0
C327 C 0.52339 0.90015 0.69983 0.0
H328 H 0.63191 0.59682 0.88321 0.0
H329 H 0.65088 0.51035 0.94371 0.0
H330 H 0.61715 0.49495 0.8253 0.0
H331 H 0.58027 0.5061 0.71176 0.0
H332 H 0.56079 0.59279 0.65392 0.0
H333 H 0.59699 0.60797 0.76288 0.0
C334 C 0.62858 0.57461 0.87057 0.0
C335 C 0.64365 0.55476 0.92278 0.0
C336 C 0.60916 0.56592 0.80251 0.0
C337 C 0.63957 0.52604 0.90432 0.0
C338 C 0.62024 0.51723 0.83677 0.0
C339 C 0.58412 0.52831 0.7219 0.0
C340 C 0.56751 0.54819 0.67505 0.0
C341 C 0.60469 0.53699 0.78618 0.0
C342 C 0.57305 0.57693 0.68915 0.0
C343 C 0.5937 0.58569 0.75193 0.0
H344 H 0.02566 0.64534 0.96041 0.0
H345 H 0.93587 0.64489 0.9713 0.0
H346 H 0.93407 0.61411 0.83394 0.0
H347 H 0.95771 0.58455 0.71906 0.0
H348 H 0.04756 0.58202 0.71174 0.0
H349 H 0.04964 0.61703 0.83774 0.0
C350 C 0.00577 0.6387 0.93178 0.0
C351 C 0.98093 0.64714 0.97639 0.0
C352 C 1.00488 0.62046 0.85344 0.0
C353 C 0.95526 0.63834 0.93895 0.0
C354 C 0.95421 0.62083 0.86023 0.0
C355 C 0.97784 0.59192 0.74358 0.0
C356 C 1.00246 0.58047 0.70558 0.0
C357 C 0.97887 0.61134 0.818 0.0
C358 C 0.02825 0.59032 0.7394 0.0
C359 C 0.02946 0.61029 0.81195 0.0
H360 H 0.0735 0.19254 0.30403 0.0
H361 H 0.98738 0.21313 0.35412 0.0
H362 H 0.98263 0.17292 0.45865 0.0
H363 H 1.00016 0.12655 0.50608 0.0
H364 H 0.08578 0.10491 0.44967 0.0
H365 H 0.09343 0.15044 0.37554 0.0
C366 C 0.05407 0.18879 0.34111 0.0
C367 C 0.03072 0.20529 0.32025 0.0
C368 C 0.05105 0.16472 0.39633 0.0
C369 C 0.00567 0.20065 0.36912 0.0
C370 C 1.00276 0.17728 0.42726 0.0
C371 C 0.02047 0.13196 0.47783 0.0
C372 C 0.04213 0.11227 0.48021 0.0
C373 C 0.02477 0.15821 0.43603 0.0
C374 C 0.06867 0.11968 0.44671 0.0
C375 C 0.07311 0.14571 0.40486 0.0
H376 H 0.34421 0.96227 0.23441 0.0
H377 H 0.29216 0.02744 0.34912 0.0
H378 H 0.32949 0.04124 0.45752 0.0
H379 H 0.37929 0.04014 0.49711 0.0
H380 H 0.43232 0.97688 0.37372 0.0
H381 H 0.39234 0.9571 0.28963 0.0
C382 C 0.34078 0.97878 0.2859 0.0
C383 C 0.31567 0.99395 0.2841 0.0
C384 C 0.36283 0.98758 0.34334 0.0
C385 C 0.31125 0.01537 0.3502 0.0
C386 C 0.33279 0.02357 0.41065 0.0
C387 C 0.38212 0.02198 0.45195 0.0
C388 C 0.40886 0.01044 0.43934 0.0
C389 C 0.3591 0.01082 0.40388 0.0
C390 C 0.41203 0.98641 0.38308 0.0
C391 C 0.38917 0.97504 0.33544 0.0
H392 H 0.56264 0.33545 0.23679 0.0
H393 H 0.49178 0.2918 0.35143 0.0
H394 H 0.48804 0.32679 0.47721 0.0
H395 H 0.49715 0.37536 0.52546 0.0
H396 H 0.5643 0.42183 0.3964 0.0
H397 H 0.57741 0.38035 0.30512 0.0
C398 C 0.54733 0.33294 0.29245 0.0
C399 C 0.52732 0.31144 0.28508 0.0
C400 C 0.54396 0.35433 0.35918 0.0
C401 C 0.50742 0.30817 0.3564 0.0
C402 C 0.50495 0.32853 0.42691 0.0
C403 C 0.51495 0.3763 0.47847 0.0
C404 C 0.52919 0.40185 0.46517 0.0
C405 C 0.52178 0.35268 0.42435 0.0
C406 C 0.55269 0.40255 0.40636 0.0
C407 C 0.56019 0.37883 0.35424 0.0
H408 H 0.19444 0.47544 0.22027 0.0
H409 H 0.20328 0.56433 0.26674 0.0
H410 H 0.16096 0.56436 0.36392 0.0
H411 H 0.11846 0.53961 0.41998 0.0
H412 H 0.10939 0.45105 0.363 0.0
H413 H 0.15419 0.45051 0.28248 0.0
C414 C 0.18745 0.49465 0.25399 0.0
C415 C 0.2018 0.5198 0.23673 0.0
C416 C 0.16245 0.49474 0.30444 0.0
C417 C 0.1927 0.54464 0.28027 0.0
C418 C 0.16821 0.54474 0.33404 0.0
C419 C 0.1262 0.52037 0.38859 0.0
C420 C 0.11047 0.49552 0.3955 0.0
C421 C 0.15229 0.52011 0.34326 0.0
C422 C 0.12102 0.47049 0.3573 0.0
C423 C 0.14673 0.47009 0.3121 0.0
H424 H 0.05485 0.81721 0.00456 0.0
H425 H 0.97411 0.78329 0.93375 0.0
H426 H 0.96655 0.82173 0.82335 0.0
H427 H 0.98006 0.86835 0.76533 0.0
H428 H 0.05857 0.90459 0.85204 0.0
H429 H 0.06927 0.86244 0.9415 0.0
C430 C 0.03573 0.81807 0.964 0.0
C431 C 0.01491 0.79773 0.97833 0.0
C432 C 0.0307 0.84117 0.90636 0.0
C433 C 0.99054 0.79861 0.92377 0.0
C434 C 0.98599 0.82088 0.86196 0.0
C435 C 0.9995 0.86704 0.80388 0.0
C436 C 0.01829 0.88973 0.80333 0.0
C437 C 0.0054 0.84288 0.85605 0.0
C438 C 0.04352 0.88762 0.85272 0.0
C439 C 0.04979 0.86343 0.90313 0.0
H440 H 0.65874 1.00704 -0.01262 0.0
H441 H 0.71831 0.02496 0.7671 0.0
H442 H 0.68016 0.02657 0.65257 0.0
H443 H 0.62994 0.02072 0.61561 0.0
H444 H 0.57134 1.00615 0.84016 0.0
H445 H 0.60936 1.00708 0.95505 0.0
C446 C 0.66365 0.01248 0.91526 0.0
C447 C 0.69159 0.01645 0.88674 0.0
C448 C 0.64175 0.0143 0.85118 0.0
C449 C 0.69715 0.02176 0.79134 0.0
C450 C 0.67532 0.02289 0.726 0.0
C451 C 0.62562 0.01854 0.69019 0.0
C452 C 0.59814 0.01378 0.7207 0.0
C453 C 0.64758 0.01899 0.75523 0.0
C454 C 0.59239 0.01039 0.81639 0.0
C455 C 0.6141 0.01061 0.88145 0.0
H456 H 0.44302 0.71355 0.87287 0.0
H457 H 0.52308 0.74702 0.79217 0.0
H458 H 0.52655 0.71224 0.66647 0.0
H459 H 0.51255 0.66593 0.60858 0.0
H460 H 0.43612 0.62825 0.70789 0.0
H461 H 0.42576 0.67054 0.79889 0.0
C462 C 0.46085 0.71367 0.82583 0.0
C463 C 0.48312 0.7322 0.84336 0.0
C464 C 0.46386 0.69208 0.75978 0.0
C465 C 0.50574 0.73283 0.78066 0.0
C466 C 0.50798 0.71257 0.70991 0.0
C467 C 0.49342 0.66708 0.64906 0.0
C468 C 0.4755 0.64373 0.65384 0.0
C469 C 0.48813 0.69098 0.70363 0.0
C470 C 0.45055 0.64574 0.705 0.0
C471 C 0.44456 0.66994 0.75661 0.0
H472 H 0.81224 0.49282 0.92634 0.0
H473 H 0.78279 0.57322 0.83056 0.0
H474 H 0.81969 0.5746 0.71191 0.0
H475 H 0.86472 0.55701 0.65643 0.0
H476 H 0.89668 0.47876 0.76381 0.0
H477 H 0.85468 0.47276 0.85892 0.0
C478 C 0.81359 0.51034 0.87791 0.0
C479 C 0.79524 0.53311 0.88793 0.0
C480 C 0.83581 0.51179 0.81445 0.0
C481 C 0.79669 0.55545 0.82401 0.0
C482 C 0.81806 0.55645 0.75734 0.0
C483 C 0.86247 0.53854 0.70024 0.0
C484 C 0.88404 0.51867 0.70488 0.0
C485 C 0.83852 0.53545 0.75553 0.0
C486 C 0.88056 0.49458 0.76033 0.0
C487 C 0.85652 0.49108 0.81433 0.0
H488 H 0.01826 0.15386 0.08358 0.0
H489 H 0.02479 0.21696 0.86645 0.0
H490 H 0.02088 0.18018 0.74664 0.0
H491 H 0.01494 0.13002 0.7044 0.0
H492 H 0.01461 0.06747 0.92272 0.0
H493 H 0.0186 0.10443 0.04254 0.0
C494 C 0.02003 0.15993 0.01047 0.0
C495 C 0.02236 0.18856 -0.01481 0.0
C496 C 0.01919 0.13868 0.94231 0.0
C497 C 0.02282 0.19538 0.88896 0.0
C498 C 0.02084 0.17428 0.82021 0.0
C499 C 0.01618 0.12459 0.77836 0.0
C500 C 0.01445 0.09623 0.80557 0.0
C501 C 0.01895 0.1459 0.84625 0.0
C502 C 0.01615 0.08918 0.90082 0.0
C503 C 0.01818 0.11029 0.96895 0.0
H504 H 0.3354 0.04321 -0.00478 0.0
H505 H 0.30342 0.96712 0.87046 0.0
H506 H 0.34171 0.96711 0.75668 0.0
H507 H 0.38789 0.98452 0.71043 0.0
H508 H 0.42122 0.05932 0.84052 0.0
H509 H 0.37895 0.06386 0.93595 0.0
C510 C 0.33651 0.02701 0.94155 0.0
C511 C 0.31688 1.00499 0.9418 0.0
C512 C 0.35923 0.02646 0.87954 0.0
C513 C 0.31821 0.98432 0.87139 0.0
C514 C 0.34035 0.98408 0.80739 0.0
C515 C 0.38589 1.00187 0.75953 0.0
C516 C 0.40791 0.02118 0.77037 0.0
C517 C 0.36162 1.00428 0.81392 0.0
C518 C 0.4047 0.044 0.83205 0.0
C519 C 0.38054 0.04661 0.88635 0.0
H520 H 0.53797 0.36201 0.03007 0.0
H521 H 0.47293 0.31933 0.87654 0.0
H522 H 0.46764 0.36064 0.77449 0.0
H523 H 0.48201 0.40932 0.73035 0.0
H524 H 0.54622 0.45069 0.89208 0.0
H525 H 0.55019 0.40986 -0.00646 0.0
C526 C 0.52219 0.36177 0.97543 0.0
C527 C 0.50551 0.33775 0.96217 0.0
C528 C 0.51873 0.38563 0.92004 0.0
C529 C 0.48605 0.33752 0.88835 0.0
C530 C 0.48284 0.36125 0.83078 0.0
C531 C 0.4963 0.40955 0.78934 0.0
C532 C 0.51364 0.43307 0.80457 0.0
C533 C 0.49893 0.38557 0.84661 0.0
C534 C 0.53257 0.43292 0.87963 0.0
C535 C 0.53503 0.4095 0.93705 0.0
H536 H 0.20382 0.55601 0.87387 0.0
H537 H 0.20605 0.46643 0.90968 0.0
H538 H 0.16454 0.46119 0.81089 0.0
H539 H 0.12364 0.48304 0.7356 0.0
H540 H 0.12058 0.57323 0.70982 0.0
H541 H 0.16599 0.57737 0.78446 0.0
C542 C 0.19591 0.5353 0.85616 0.0
C543 C 0.20802 0.51162 0.89731 0.0
C544 C 0.1712 0.53268 0.8044 0.0
C545 C 0.19725 0.48486 0.87672 0.0
C546 C 0.17322 0.48195 0.82203 0.0
C547 C 0.13295 0.50356 0.74649 0.0
C548 C 0.11852 0.5278 0.7189 0.0
C549 C 0.15925 0.50585 0.78945 0.0
C550 C 0.13109 0.55423 0.73145 0.0
C551 C 0.15717 0.55665 0.77364 0.0
H552 H 0.06825 0.80639 0.28559 0.0
H553 H 0.98323 0.79079 0.36744 0.0
H554 H 0.98397 0.83248 0.46881 0.0
H555 H 0.00683 0.87699 0.51548 0.0
H556 H 0.09198 0.89232 0.43325 0.0
H557 H 0.0931 0.84747 0.34882 0.0
C558 C 0.05029 0.81157 0.32868 0.0
C559 C 0.02576 0.79556 0.31962 0.0
C560 C 0.05057 0.83612 0.38346 0.0
C561 C 1.00246 0.80255 0.37459 0.0
C562 C 1.00272 0.82672 0.4309 0.0
C563 C 0.02555 0.87046 0.47867 0.0
C564 C 0.04906 0.88816 0.47796 0.0
C565 C 0.02623 0.84434 0.43233 0.0
C566 C 0.07353 0.87918 0.43308 0.0
C567 C 0.07422 0.8535 0.38545 0.0
H568 H 0.7048 0.05298 0.23009 0.0
H569 H 0.70796 0.96276 0.22068 0.0
H570 H 0.66665 0.95995 0.32127 0.0
H571 H 0.62453 0.9834 0.38471 0.0
H572 H 0.62074 0.07391 0.38396 0.0
H573 H 0.66682 0.07636 0.31337 0.0
C574 C 0.69712 0.03275 0.25379 0.0
C575 C 0.7092 1.00816 0.21764 0.0
C576 C 0.67241 0.03135 0.30629 0.0
C577 C 0.69913 0.98201 0.24825 0.0
C578 C 0.67508 0.98041 0.30392 0.0
C579 C 0.63388 1.00361 0.3693 0.0
C580 C 0.61889 0.02839 0.38743 0.0
C581 C 0.66061 1.00494 0.32842 0.0
C582 C 0.63158 0.05446 0.36941 0.0
C583 C 0.65806 0.05594 0.32946 0.0
H584 H 0.44514 0.6995 0.14267 0.0
H585 H 0.52886 0.71812 0.23336 0.0
H586 H 0.5296 0.6748 0.32591 0.0
H587 H 0.5075 0.62993 0.37133 0.0
H588 H 0.42369 0.61176 0.28005 0.0
H589 H 0.42236 0.65604 0.19355 0.0
C590 C 0.46341 0.69425 0.1839 0.0
C591 C 0.48694 0.71196 0.18104 0.0
C592 C 0.464 0.66894 0.23389 0.0
C593 C 0.51037 0.70506 0.23531 0.0
C594 C 0.51096 0.68004 0.28683 0.0
C595 C 0.48911 0.63551 0.33141 0.0
C596 C 0.46588 0.61738 0.33046 0.0
C597 C 0.48818 0.66144 0.28442 0.0
C598 C 0.44193 0.62521 0.28055 0.0
C599 C 0.44107 0.65062 0.23198 0.0
H600 H 0.80527 0.48993 0.20544 0.0
H601 H 0.80041 0.5781 0.26932 0.0
H602 H 0.84337 0.57499 0.36235 0.0
H603 H 0.88557 0.54809 0.40691 0.0
H604 H 0.89067 0.46031 0.33325 0.0
H605 H 0.84485 0.46247 0.26002 0.0
C606 C 0.81313 0.5082 0.24283 0.0
C607 C 0.79974 0.53413 0.23146 0.0
C608 C 0.83854 0.50654 0.29072 0.0
C609 C 0.81016 0.55783 0.27869 0.0
C610 C 0.83505 0.55615 0.32994 0.0
C611 C 0.87672 0.52957 0.37384 0.0
C612 C 0.89174 0.50422 0.37343 0.0
C613 C 0.85007 0.53086 0.33271 0.0
C614 C 0.87969 0.48016 0.33305 0.0
C615 C 0.85339 0.48129 0.29197 0.0
loop_
_geom_bond_atom_site_label_1
_geom_bond_atom_site_label_2
_geom_bond_distance
_geom_bond_site_symmetry_2
_ccdc_geom_bond_type
H0 C1 0.949 . S
C1 H0 0.949 . S
C1 C2 1.395 . S
C1 C3 1.391 1_556 S
C2 C1 1.395 . S
C2 C5 1.390 1_556 S
C3 C1 1.391 1_554 S
C3 C7 1.387 . S
C3 C8 1.491 . S
H4 C5 0.950 . S
C5 C2 1.390 1_554 S
C5 H4 0.950 . S
C5 C6 1.378 . S
C6 C5 1.378 . S
C6 C7 1.409 . S
C7 C3 1.387 . S
C7 C6 1.409 . S
C7 H9 0.951 . S
C8 C3 1.491 . S
C8 C10 1.382 1_554 S
C8 C12 1.404 . S
H9 C7 0.951 . S
C10 C8 1.382 1_556 S
C10 C11 1.390 . S
C10 H15 0.949 . S
C11 C10 1.390 . S
C11 C16 1.399 1_556 S
C12 C8 1.404 . S
C12 H13 0.950 . S
C12 C14 1.375 . S
H13 C12 0.950 . S
C14 C12 1.375 . S
C14 C16 1.382 . S
C14 H18 0.950 . S
H15 C10 0.949 . S
C16 C11 1.399 1_554 S
C16 C14 1.382 . S
C16 H17 0.952 . S
H17 C16 0.952 . S
H18 C14 0.950 . S
H19 C20 0.949 . S
C20 H19 0.949 . S
C20 C21 1.395 . S
C20 C22 1.391 1_556 S
C21 C20 1.395 . S
C21 C24 1.390 1_556 S
C22 C20 1.391 1_554 S
C22 C26 1.387 . S
C22 C27 1.491 . S
H23 C24 0.950 . S
C24 C21 1.390 1_554 S
C24 H23 0.950 . S
C24 C25 1.378 . S
C25 C24 1.378 . S
C25 C26 1.409 . S
C26 C22 1.387 . S
C26 C25 1.409 . S
C26 H28 0.951 . S
C27 C22 1.491 . S
C27 C29 1.382 1_554 S
C27 C31 1.404 . S
H28 C26 0.951 . S
C29 C27 1.382 1_556 S
C29 C30 1.390 . S
C29 H34 0.949 . S
C30 C29 1.390 . S
C30 C35 1.399 1_556 S
C31 C27 1.404 . S
C31 H32 0.950 . S
C31 C33 1.375 . S
H32 C31 0.950 . S
C33 C31 1.375 . S
C33 C35 1.382 . S
C33 H37 0.950 . S
H34 C29 0.949 . S
C35 C30 1.399 1_554 S
C35 C33 1.382 . S
C35 H36 0.952 . S
H36 C35 0.952 . S
H37 C33 0.950 . S
H38 C39 0.949 . S
C39 H38 0.949 . S
C39 C40 1.395 . S
C39 C41 1.391 1_556 S
C40 C39 1.395 . S
C40 C43 1.390 1_556 S
C41 C39 1.391 1_554 S
C41 C45 1.387 . S
C41 C46 1.491 . S
H42 C43 0.950 . S
C43 C40 1.390 1_554 S
C43 H42 0.950 . S
C43 C44 1.378 . S
C44 C43 1.378 . S
C44 C45 1.409 . S
C45 C41 1.387 . S
C45 C44 1.409 . S
C45 H47 0.951 . S
C46 C41 1.491 . S
C46 C48 1.382 1_554 S
C46 C50 1.404 . S
H47 C45 0.951 . S
C48 C46 1.382 1_556 S
C48 C49 1.390 . S
C48 H53 0.949 . S
C49 C48 1.390 . S
C49 C54 1.399 1_556 S
C50 C46 1.404 . S
C50 H51 0.950 . S
C50 C52 1.375 . S
H51 C50 0.950 . S
C52 C50 1.375 . S
C52 C54 1.382 . S
C52 H56 0.950 . S
H53 C48 0.949 . S
C54 C49 1.399 1_554 S
C54 C52 1.382 . S
C54 H55 0.952 . S
H55 C54 0.952 . S
H56 C52 0.950 . S
H57 C58 0.949 . S
C58 H57 0.949 . S
C58 C59 1.395 . S
C58 C60 1.391 1_556 S
C59 C58 1.395 . S
C59 C62 1.390 1_556 S
C60 C58 1.391 1_554 S
C60 C64 1.387 . S
C60 C65 1.491 . S
H61 C62 0.950 . S
C62 C59 1.390 1_554 S
C62 H61 0.950 . S
C62 C63 1.378 . S
C63 C62 1.378 . S
C63 C64 1.409 . S
C64 C60 1.387 . S
C64 C63 1.409 . S
C64 H66 0.951 . S
C65 C60 1.491 . S
C65 C67 1.382 1_554 S
C65 C69 1.404 . S
H66 C64 0.951 . S
C67 C65 1.382 1_556 S
C67 C68 1.390 . S
C67 H72 0.949 . S
C68 C67 1.390 . S
C68 C73 1.399 1_556 S
C69 C65 1.404 . S
C69 H70 0.950 . S
C69 C71 1.375 . S
H70 C69 0.950 . S
C71 C69 1.375 . S
C71 C73 1.382 . S
C71 H75 0.950 . S
H72 C67 0.949 . S
C73 C68 1.399 1_554 S
C73 C71 1.382 . S
C73 H74 0.952 . S
H74 C73 0.952 . S
H75 C71 0.950 . S
H76 C77 0.949 . S
C77 H76 0.949 . S
C77 C78 1.395 . S
C77 C79 1.391 . S
C78 C77 1.395 . S
C78 C81 1.390 . S
C79 C77 1.391 . S
C79 C83 1.387 . S
C79 C84 1.491 . S
H80 C81 0.950 . S
C81 C78 1.390 . S
C81 H80 0.950 . S
C81 C82 1.378 . S
C82 C81 1.378 . S
C82 C83 1.409 . S
C83 C79 1.387 . S
C83 C82 1.409 . S
C83 H85 0.951 1_554 S
C84 C79 1.491 . S
C84 C86 1.382 . S
C84 C88 1.404 . S
H85 C83 0.951 1_556 S
C86 C84 1.382 . S
C86 C87 1.390 . S
C86 H91 0.949 . S
C87 C86 1.390 . S
C87 C92 1.399 . S
C88 C84 1.404 . S
C88 H89 0.950 . S
C88 C90 1.375 . S
H89 C88 0.950 . S
C90 C88 1.375 . S
C90 C92 1.382 . S
C90 H94 0.950 . S
H91 C86 0.949 . S
C92 C87 1.399 . S
C92 C90 1.382 . S
C92 H93 0.952 . S
H93 C92 0.952 . S
H94 C90 0.950 . S
H95 C96 0.949 . S
C96 H95 0.949 . S
C96 C97 1.395 . S
C96 C98 1.391 . S
C97 C96 1.395 . S
C97 C100 1.390 . S
C98 C96 1.391 . S
C98 C102 1.387 . S
C98 C103 1.491 . S
H99 C100 0.950 . S
C100 C97 1.390 . S
C100 H99 0.950 . S
C100 C101 1.378 . S
C101 C100 1.378 . S
C101 C102 1.409 . S
C102 C98 1.387 . S
C102 C101 1.409 . S
C102 H104 0.951 1_554 S
C103 C98 1.491 . S
C103 C105 1.382 . S
C103 C107 1.404 1_455 S
H104 C102 0.951 1_556 S
C105 C103 1.382 . S
C105 C106 1.390 . S
C105 H110 0.949 . S
C106 C105 1.390 . S
C106 C111 1.399 1_455 S
C107 C103 1.404 1_655 S
C107 H108 0.950 . S
C107 C109 1.375 . S
H108 C107 0.950 . S
C109 C107 1.375 . S
C109 C111 1.382 . S
C109 H113 0.950 . S
H110 C105 0.949 . S
C111 C106 1.399 1_655 S
C111 C109 1.382 . S
C111 H112 0.952 . S
H112 C111 0.952 . S
H113 C109 0.950 . S
H114 C115 0.949 . S
C115 H114 0.949 . S
C115 C116 1.395 . S
C115 C117 1.391 . S
C116 C115 1.395 . S
C116 C119 1.390 . S
C117 C115 1.391 . S
C117 C121 1.387 . S
C117 C122 1.491 . S
H118 C119 0.950 . S
C119 C116 1.390 . S
C119 H118 0.950 . S
C119 C120 1.378 . S
C120 C119 1.378 . S
C120 C121 1.409 . S
C121 C117 1.387 . S
C121 C120 1.409 . S
C121 H123 0.951 1_554 S
C122 C117 1.491 . S
C122 C124 1.382 . S
C122 C126 1.404 1_545 S
H123 C121 0.951 1_556 S
C124 C122 1.382 . S
C124 C125 1.390 . S
C124 H129 0.949 . S
C125 C124 1.390 . S
C125 C130 1.399 1_545 S
C126 C122 1.404 1_565 S
C126 H127 0.950 . S
C126 C128 1.375 . S
H127 C126 0.950 . S
C128 C126 1.375 . S
C128 C130 1.382 . S
C128 H132 0.950 . S
H129 C124 0.949 . S
C130 C125 1.399 1_565 S
C130 C128 1.382 . S
C130 H131 0.952 . S
H131 C130 0.952 . S
H132 C128 0.950 . S
H133 C134 0.949 . S
C134 H133 0.949 . S
C134 C135 1.395 . S
C134 C136 1.391 . S
C135 C134 1.395 . S
C135 C138 1.390 . S
C136 C134 1.391 . S
C136 C140 1.387 . S
C136 C141 1.491 . S
H137 C138 0.950 . S
C138 C135 1.390 . S
C138 H137 0.950 . S
C138 C139 1.378 . S
C139 C138 1.378 . S
C139 C140 1.409 . S
C140 C136 1.387 . S
C140 C139 1.409 . S
C140 H142 0.951 1_554 S
C141 C136 1.491 . S
C141 C143 1.382 . S
C141 C145 1.404 . S
H142 C140 0.951 1_556 S
C143 C141 1.382 . S
C143 C144 1.390 . S
C143 H148 0.949 . S
C144 C143 1.390 . S
C144 C149 1.399 . S
C145 C141 1.404 . S
C145 H146 0.950 . S
C145 C147 1.375 . S
H146 C145 0.950 . S
C147 C145 1.375 . S
C147 C149 1.382 . S
C147 H151 0.950 . S
H148 C143 0.949 . S
C149 C144 1.399 . S
C149 C147 1.382 . S
C149 H150 0.952 . S
H150 C149 0.952 . S
H151 C147 0.950 . S
Zn152 O158 1.969 1_455 S
Zn152 O159 1.965 . S
Zn152 O163 2.024 . S
Zn152 O168 1.969 1_455 S
Zn153 O160 1.969 . S
Zn153 O166 1.969 . S
Zn153 O167 1.965 1_455 S
Zn153 O169 2.024 1_455 S
C154 O155 1.229 1_455 S
C154 O163 1.058 . S
O155 C154 1.229 1_655 S
C156 O157 1.229 1_655 S
C156 O169 1.058 . S
O157 C156 1.229 1_455 S
O158 Zn152 1.969 1_655 S
O158 C161 1.267 1_655 S
O159 Zn152 1.965 . S
O159 C170 1.260 . S
O160 Zn153 1.969 . S
O160 C170 1.258 1_565 S
C161 O158 1.267 1_455 S
C161 O162 1.228 . S
O162 C161 1.228 . S
O163 Zn152 2.024 . S
O163 C154 1.058 . S
C164 O165 1.200 1_455 S
C164 O166 1.288 . S
O165 C164 1.200 1_655 S
O166 Zn153 1.969 . S
O166 C164 1.288 . S
O167 Zn153 1.965 1_655 S
O167 C171 1.260 1_565 S
O168 Zn152 1.969 1_655 S
O168 C171 1.258 . S
O169 Zn153 2.024 1_655 S
O169 C156 1.058 . S
C170 O159 1.260 . S
C170 O160 1.258 1_545 S
C171 O167 1.260 1_545 S
C171 O168 1.258 . S
Zn172 O178 1.969 1_545 S
Zn172 O179 1.965 . S
Zn172 O183 2.024 . S
Zn172 O188 1.969 1_545 S
Zn173 O180 1.969 . S
Zn173 O186 1.969 . S
Zn173 O187 1.965 1_545 S
Zn173 O189 2.024 1_545 S
C174 O175 1.229 1_545 S
C174 O183 1.058 . S
O175 C174 1.229 1_565 S
C176 O177 1.229 1_565 S
C176 O189 1.058 . S
O177 C176 1.229 1_545 S
O178 Zn172 1.969 1_565 S
O178 C181 1.267 1_565 S
O179 Zn172 1.965 . S
O179 C190 1.260 . S
O180 Zn173 1.969 . S
O180 C190 1.258 . S
C181 O178 1.267 1_545 S
C181 O182 1.228 . S
O182 C181 1.228 . S
O183 Zn172 2.024 . S
O183 C174 1.058 . S
C184 O185 1.228 1_545 S
C184 O186 1.267 . S
O185 C184 1.228 1_565 S
O186 Zn173 1.969 . S
O186 C184 1.267 . S
O187 Zn173 1.965 1_565 S
O187 C191 1.260 . S
O188 Zn172 1.969 1_565 S
O188 C191 1.258 . S
O189 Zn173 2.024 1_565 S
O189 C176 1.058 . S
C190 O179 1.260 . S
C190 O180 1.258 . S
C191 O187 1.260 . S
C191 O188 1.258 . S
Zn192 O198 1.969 . S
Zn192 O199 1.965 . S
Zn192 O203 2.024 . S
Zn192 O208 1.969 . S
Zn193 O200 1.969 . S
Zn193 O206 1.969 . S
Zn193 O207 1.965 . S
Zn193 O209 2.024 . S
C194 O195 1.229 . S
C194 O203 1.058 . S
O195 C194 1.229 . S
C196 O197 1.229 . S
C196 O209 1.058 . S
O197 C196 1.229 . S
O198 Zn192 1.969 . S
O198 C201 1.267 . S
O199 Zn192 1.965 . S
O199 C210 1.260 . S
O200 Zn193 1.969 . S
O200 C210 1.258 . S
C201 O198 1.267 . S
C201 O202 1.228 . S
O202 C201 1.228 . S
O203 Zn192 2.024 . S
O203 C194 1.058 . S
C204 O205 1.228 . S
C204 O206 1.267 . S
O205 C204 1.228 . S
O206 Zn193 1.969 . S
O206 C204 1.267 . S
O207 Zn193 1.965 . S
O207 C211 1.260 . S
O208 Zn192 1.969 . S
O208 C211 1.258 . S
O209 Zn193 2.024 . S
O209 C196 1.058 . S
C210 O199 1.260 . S
C210 O200 1.258 . S
C211 O207 1.260 . S
C211 O208 1.258 . S
Zn212 O218 1.969 . S
Zn212 O219 1.965 . S
Zn212 O223 2.024 . S
Zn212 O228 1.969 . S
Zn213 O220 1.969 . S
Zn213 O226 1.969 . S
Zn213 O227 1.965 . S
Zn213 O229 2.024 . S
C214 O215 1.229 . S
C214 O223 1.058 . S
O215 C214 1.229 . S
C216 O217 1.229 . S
C216 O229 1.058 . S
O217 C216 1.229 . S
O218 Zn212 1.969 . S
O218 C221 1.267 . S
O219 Zn212 1.965 . S
O219 C230 1.278 . S
O220 Zn213 1.969 . S
O220 C230 1.231 1_655 S
C221 O218 1.267 . S
C221 O222 1.228 . S
O222 C221 1.228 . S
O223 Zn212 2.024 . S
O223 C214 1.058 . S
C224 O225 1.228 . S
C224 O226 1.267 . S
O225 C224 1.228 . S
O226 Zn213 1.969 . S
O226 C224 1.267 . S
O227 Zn213 1.965 . S
O227 C231 1.260 1_655 S
O228 Zn212 1.969 . S
O228 C231 1.258 . S
O229 Zn213 2.024 . S
O229 C216 1.058 . S
C230 O219 1.278 . S
C230 O220 1.231 1_455 S
C231 O227 1.260 1_455 S
C231 O228 1.258 . S
H232 C238 0.930 . S
H233 C241 0.930 . S
H234 C242 0.930 . S
H235 C243 0.930 . S
H236 C246 0.930 . S
H237 C247 0.930 . S
C238 H232 0.930 . S
C238 C239 1.355 . S
C238 C240 1.415 . S
C239 C238 1.355 . S
C239 C241 1.419 . S
C240 C238 1.415 . S
C240 C245 1.425 . S
C240 C247 1.409 . S
C241 H233 0.930 . S
C241 C239 1.419 . S
C241 C242 1.362 . S
C242 H234 0.930 . S
C242 C241 1.362 . S
C242 C245 1.409 . S
C243 H235 0.930 . S
C243 C244 1.355 . S
C243 C245 1.415 . S
C244 C243 1.355 . S
C244 C246 1.419 . S
C245 C240 1.425 . S
C245 C242 1.409 . S
C245 C243 1.415 . S
C246 H236 0.930 . S
C246 C244 1.419 . S
C246 C247 1.362 . S
C247 H237 0.930 . S
C247 C240 1.409 . S
C247 C246 1.362 . S
H248 C254 0.930 . S
H249 C257 0.930 . S
H250 C258 0.930 . S
H251 C259 0.930 . S
H252 C262 0.930 . S
H253 C263 0.930 . S
C254 H248 0.930 . S
C254 C255 1.355 . S
C254 C256 1.415 . S
C255 C254 1.355 . S
C255 C257 1.419 . S
C256 C254 1.415 . S
C256 C261 1.425 . S
C256 C263 1.409 . S
C257 H249 0.930 . S
C257 C255 1.419 . S
C257 C258 1.362 . S
C258 H250 0.930 . S
C258 C257 1.362 . S
C258 C261 1.409 . S
C259 H251 0.930 . S
C259 C260 1.355 . S
C259 C261 1.415 . S
C260 C259 1.355 . S
C260 C262 1.419 . S
C261 C256 1.425 . S
C261 C258 1.409 . S
C261 C259 1.415 . S
C262 H252 0.930 . S
C262 C260 1.419 . S
C262 C263 1.362 . S
C263 H253 0.930 . S
C263 C256 1.409 . S
C263 C262 1.362 . S
H264 C270 0.930 . S
H265 C273 0.930 . S
H266 C274 0.930 . S
H267 C275 0.930 . S
H268 C278 0.930 . S
H269 C279 0.930 . S
C270 H264 0.930 . S
C270 C271 1.355 . S
C270 C272 1.415 . S
C271 C270 1.355 . S
C271 C273 1.419 . S
C272 C270 1.415 . S
C272 C277 1.425 . S
C272 C279 1.409 . S
C273 H265 0.930 . S
C273 C271 1.419 . S
C273 C274 1.362 . S
C274 H266 0.930 . S
C274 C273 1.362 . S
C274 C277 1.409 . S
C275 H267 0.930 . S
C275 C276 1.355 . S
C275 C277 1.415 . S
C276 C275 1.355 . S
C276 C278 1.419 . S
C277 C272 1.425 . S
C277 C274 1.409 . S
C277 C275 1.415 . S
C278 H268 0.930 . S
C278 C276 1.419 . S
C278 C279 1.362 . S
C279 H269 0.930 . S
C279 C272 1.409 . S
C279 C278 1.362 . S
H280 C286 0.930 1_655 S
H281 C289 0.930 . S
H282 C290 0.930 . S
H283 C291 0.930 . S
H284 C294 0.930 . S
H285 C295 0.930 . S
C286 H280 0.930 1_455 S
C286 C287 1.355 . S
C286 C288 1.415 . S
C287 C286 1.355 . S
C287 C289 1.419 . S
C288 C286 1.415 . S
C288 C293 1.425 . S
C288 C295 1.409 1_455 S
C289 H281 0.930 . S
C289 C287 1.419 . S
C289 C290 1.362 . S
C290 H282 0.930 . S
C290 C289 1.362 . S
C290 C293 1.409 . S
C291 H283 0.930 . S
C291 C292 1.355 . S
C291 C293 1.415 . S
C292 C291 1.355 . S
C292 C294 1.419 1_455 S
C293 C288 1.425 . S
C293 C290 1.409 . S
C293 C291 1.415 . S
C294 H284 0.930 . S
C294 C292 1.419 1_655 S
C294 C295 1.362 . S
C295 H285 0.930 . S
C295 C288 1.409 1_655 S
C295 C294 1.362 . S
H296 C302 0.930 . S
H297 C305 0.930 . S
H298 C306 0.930 . S
H299 C307 0.930 . S
H300 C310 0.930 . S
H301 C311 0.930 . S
C302 H296 0.930 . S
C302 C303 1.355 . S
C302 C304 1.415 . S
C303 C302 1.355 . S
C303 C305 1.419 1_565 S
C304 C302 1.415 . S
C304 C309 1.425 1_565 S
C304 C311 1.409 . S
C305 H297 0.930 . S
C305 C303 1.419 1_545 S
C305 C306 1.362 . S
C306 H298 0.930 . S
C306 C305 1.362 . S
C306 C309 1.409 . S
C307 H299 0.930 . S
C307 C308 1.355 1_545 S
C307 C309 1.415 . S
C308 C307 1.355 1_565 S
C308 C310 1.419 . S
C309 C304 1.425 1_545 S
C309 C306 1.409 . S
C309 C307 1.415 . S
C310 H300 0.930 . S
C310 C308 1.419 . S
C310 C311 1.362 . S
C311 H301 0.930 . S
C311 C304 1.409 . S
C311 C310 1.362 . S
H312 C318 0.930 . S
H313 C321 0.930 1_554 S
H314 C322 0.930 . S
H315 C323 0.930 . S
H316 C326 0.930 . S
H317 C327 0.930 . S
C318 H312 0.930 . S
C318 C319 1.355 . S
C318 C320 1.415 . S
C319 C318 1.355 . S
C319 C321 1.419 . S
C320 C318 1.415 . S
C320 C325 1.425 . S
C320 C327 1.409 . S
C321 H313 0.930 1_556 S
C321 C319 1.419 . S
C321 C322 1.362 . S
C322 H314 0.930 . S
C322 C321 1.362 . S
C322 C325 1.409 . S
C323 H315 0.930 . S
C323 C324 1.355 . S
C323 C325 1.415 . S
C324 C323 1.355 . S
C324 C326 1.419 . S
C325 C320 1.425 . S
C325 C322 1.409 . S
C325 C323 1.415 . S
C326 H316 0.930 . S
C326 C324 1.419 . S
C326 C327 1.362 . S
C327 H317 0.930 . S
C327 C320 1.409 . S
C327 C326 1.362 . S
H328 C334 0.930 . S
H329 C337 0.930 . S
H330 C338 0.930 . S
H331 C339 0.930 . S
H332 C342 0.930 . S
H333 C343 0.930 . S
C334 H328 0.930 . S
C334 C335 1.355 . S
C334 C336 1.415 . S
C335 C334 1.355 . S
C335 C337 1.419 . S
C336 C334 1.415 . S
C336 C341 1.425 . S
C336 C343 1.409 . S
C337 H329 0.930 . S
C337 C335 1.419 . S
C337 C338 1.362 . S
C338 H330 0.930 . S
C338 C337 1.362 . S
C338 C341 1.409 . S
C339 H331 0.930 . S
C339 C340 1.355 . S
C339 C341 1.415 . S
C340 C339 1.355 . S
C340 C342 1.419 . S
C341 C336 1.425 . S
C341 C338 1.409 . S
C341 C339 1.415 . S
C342 H332 0.930 . S
C342 C340 1.419 . S
C342 C343 1.362 . S
C343 H333 0.930 . S
C343 C336 1.409 . S
C343 C342 1.362 . S
H344 C350 0.930 . S
H345 C353 0.930 . S
H346 C354 0.930 . S
H347 C355 0.930 . S
H348 C358 0.930 . S
H349 C359 0.930 . S
C350 H344 0.930 . S
C350 C351 1.355 1_455 S
C350 C352 1.415 . S
C351 C350 1.355 1_655 S
C351 C353 1.419 . S
C352 C350 1.415 . S
C352 C357 1.425 1_455 S
C352 C359 1.409 . S
C353 H345 0.930 . S
C353 C351 1.419 . S
C353 C354 1.362 . S
C354 H346 0.930 . S
C354 C353 1.362 . S
C354 C357 1.409 . S
C355 H347 0.930 . S
C355 C356 1.355 . S
C355 C357 1.415 . S
C356 C355 1.355 . S
C356 C358 1.419 1_655 S
C357 C352 1.425 1_655 S
C357 C354 1.409 . S
C357 C355 1.415 . S
C358 H348 0.930 . S
C358 C356 1.419 1_455 S
C358 C359 1.362 . S
C359 H349 0.930 . S
C359 C352 1.409 . S
C359 C358 1.362 . S
H360 C366 0.930 . S
H361 C369 0.930 . S
H362 C370 0.930 . S
H363 C371 0.930 . S
H364 C374 0.930 . S
H365 C375 0.930 . S
C366 H360 0.930 . S
C366 C367 1.355 . S
C366 C368 1.415 . S
C367 C366 1.355 . S
C367 C369 1.419 1_455 S
C368 C366 1.415 . S
C368 C373 1.425 1_455 S
C368 C375 1.409 . S
C369 H361 0.930 . S
C369 C367 1.419 1_655 S
C369 C370 1.362 . S
C370 H362 0.930 . S
C370 C369 1.362 . S
C370 C373 1.409 . S
C371 H363 0.930 . S
C371 C372 1.355 1_655 S
C371 C373 1.415 . S
C372 C371 1.355 1_455 S
C372 C374 1.419 . S
C373 C368 1.425 1_655 S
C373 C370 1.409 . S
C373 C371 1.415 . S
C374 H364 0.930 . S
C374 C372 1.419 . S
C374 C375 1.362 . S
C375 H365 0.930 . S
C375 C368 1.409 . S
C375 C374 1.362 . S
H376 C382 0.930 1_565 S
H377 C385 0.930 . S
H378 C386 0.930 . S
H379 C387 0.930 . S
H380 C390 0.930 . S
H381 C391 0.930 . S
C382 H376 0.930 1_545 S
C382 C383 1.355 . S
C382 C384 1.415 . S
C383 C382 1.355 . S
C383 C385 1.419 . S
C384 C382 1.415 . S
C384 C389 1.425 . S
C384 C391 1.409 1_545 S
C385 H377 0.930 . S
C385 C383 1.419 . S
C385 C386 1.362 . S
C386 H378 0.930 . S
C386 C385 1.362 . S
C386 C389 1.409 . S
C387 H379 0.930 . S
C387 C388 1.384 . S
C387 C389 1.415 . S
C388 C387 1.384 . S
C388 C390 1.393 1_545 S
C389 C384 1.425 . S
C389 C386 1.409 . S
C389 C387 1.415 . S
C390 H380 0.930 . S
C390 C388 1.393 1_565 S
C390 C391 1.362 . S
C391 H381 0.930 . S
C391 C384 1.409 1_565 S
C391 C390 1.362 . S
H392 C398 0.930 . S
H393 C401 0.930 . S
H394 C402 0.930 . S
H395 C403 0.930 . S
H396 C406 0.930 . S
H397 C407 0.930 . S
C398 H392 0.930 . S
C398 C399 1.355 . S
C398 C400 1.415 . S
C399 C398 1.355 . S
C399 C401 1.419 . S
C400 C398 1.415 . S
C400 C405 1.425 . S
C400 C407 1.409 . S
C401 H393 0.930 . S
C401 C399 1.419 . S
C401 C402 1.362 . S
C402 H394 0.930 . S
C402 C401 1.362 . S
C402 C405 1.409 . S
C403 H395 0.930 . S
C403 C404 1.355 . S
C403 C405 1.415 . S
C404 C403 1.355 . S
C404 C406 1.419 . S
C405 C400 1.425 . S
C405 C402 1.409 . S
C405 C403 1.415 . S
C406 H396 0.930 . S
C406 C404 1.419 . S
C406 C407 1.362 . S
C407 H397 0.930 . S
C407 C400 1.409 . S
C407 C406 1.362 . S
H408 C414 0.930 . S
H409 C417 0.930 . S
H410 C418 0.930 . S
H411 C419 0.930 . S
H412 C422 0.930 . S
H413 C423 0.930 . S
C414 H408 0.930 . S
C414 C415 1.355 . S
C414 C416 1.415 . S
C415 C414 1.355 . S
C415 C417 1.419 . S
C416 C414 1.415 . S
C416 C421 1.425 . S
C416 C423 1.409 . S
C417 H409 0.930 . S
C417 C415 1.419 . S
C417 C418 1.362 . S
C418 H410 0.930 . S
C418 C417 1.362 . S
C418 C421 1.409 . S
C419 H411 0.930 . S
C419 C420 1.355 . S
C419 C421 1.415 . S
C420 C419 1.355 . S
C420 C422 1.419 . S
C421 C416 1.425 . S
C421 C418 1.409 . S
C421 C419 1.415 . S
C422 H412 0.930 . S
C422 C420 1.419 . S
C422 C423 1.362 . S
C423 H413 0.930 . S
C423 C416 1.409 . S
C423 C422 1.362 . S
H424 C430 0.930 . S
H425 C433 0.930 . S
H426 C434 0.930 . S
H427 C435 0.930 . S
H428 C438 0.930 . S
H429 C439 0.930 . S
C430 H424 0.930 . S
C430 C431 1.355 1_455 S
C430 C432 1.415 . S
C431 C430 1.355 1_655 S
C431 C433 1.419 . S
C432 C430 1.415 . S
C432 C437 1.425 1_455 S
C432 C439 1.409 . S
C433 H425 0.930 . S
C433 C431 1.419 . S
C433 C434 1.362 . S
C434 H426 0.930 . S
C434 C433 1.362 . S
C434 C437 1.409 . S
C435 H427 0.930 . S
C435 C436 1.355 1_655 S
C435 C437 1.415 . S
C436 C435 1.355 1_455 S
C436 C438 1.419 . S
C437 C432 1.425 1_655 S
C437 C434 1.409 . S
C437 C435 1.415 . S
C438 H428 0.930 . S
C438 C436 1.419 . S
C438 C439 1.362 . S
C439 H429 0.930 . S
C439 C432 1.409 . S
C439 C438 1.362 . S
H440 C446 0.930 1_554 S
H441 C449 0.930 . S
H442 C450 0.930 . S
H443 C451 0.930 . S
H444 C454 0.930 . S
H445 C455 0.930 1_554 S
C446 H440 0.930 1_556 S
C446 C447 1.355 . S
C446 C448 1.415 . S
C447 C446 1.355 . S
C447 C449 1.419 . S
C448 C446 1.415 . S
C448 C453 1.425 . S
C448 C455 1.409 1_565 S
C449 H441 0.930 . S
C449 C447 1.419 . S
C449 C450 1.362 . S
C450 H442 0.930 . S
C450 C449 1.362 . S
C450 C453 1.409 . S
C451 H443 0.930 . S
C451 C452 1.355 . S
C451 C453 1.415 1_545 S
C452 C451 1.355 . S
C452 C454 1.419 . S
C453 C448 1.425 . S
C453 C450 1.409 . S
C453 C451 1.415 1_565 S
C454 H444 0.930 . S
C454 C452 1.419 . S
C454 C455 1.362 . S
C455 H445 0.930 1_556 S
C455 C448 1.409 1_545 S
C455 C454 1.362 . S
H456 C462 0.930 . S
H457 C465 0.930 . S
H458 C466 0.930 . S
H459 C467 0.930 . S
H460 C470 0.930 . S
H461 C471 0.930 . S
C462 H456 0.930 . S
C462 C463 1.355 . S
C462 C464 1.415 . S
C463 C462 1.355 . S
C463 C465 1.419 . S
C464 C462 1.415 . S
C464 C469 1.425 . S
C464 C471 1.409 . S
C465 H457 0.930 . S
C465 C463 1.419 . S
C465 C466 1.362 . S
C466 H458 0.930 . S
C466 C465 1.362 . S
C466 C469 1.409 . S
C467 H459 0.930 . S
C467 C468 1.355 . S
C467 C469 1.415 . S
C468 C467 1.355 . S
C468 C470 1.419 . S
C469 C464 1.425 . S
C469 C466 1.409 . S
C469 C467 1.415 . S
C470 H460 0.930 . S
C470 C468 1.419 . S
C470 C471 1.362 . S
C471 H461 0.930 . S
C471 C464 1.409 . S
C471 C470 1.362 . S
H472 C478 0.930 . S
H473 C481 0.930 1_554 S
H474 C482 0.930 1_554 S
H475 C483 0.930 . S
H476 C486 0.930 . S
H477 C487 0.930 . S
C478 H472 0.930 . S
C478 C479 1.355 . S
C478 C480 1.415 . S
C479 C478 1.355 . S
C479 C481 1.419 . S
C480 C478 1.415 . S
C480 C485 1.425 . S
C480 C487 1.409 . S
C481 H473 0.930 1_556 S
C481 C479 1.419 . S
C481 C482 1.362 . S
C482 H474 0.930 1_556 S
C482 C481 1.362 . S
C482 C485 1.409 . S
C483 H475 0.930 . S
C483 C484 1.355 . S
C483 C485 1.415 . S
C484 C483 1.355 . S
C484 C486 1.419 . S
C485 C480 1.425 . S
C485 C482 1.409 . S
C485 C483 1.415 . S
C486 H476 0.930 . S
C486 C484 1.419 . S
C486 C487 1.362 . S
C487 H477 0.930 . S
C487 C480 1.409 . S
C487 C486 1.362 . S
H488 C494 0.922 1_554 S
H489 C497 0.930 . S
H490 C498 0.930 . S
H491 C499 0.930 . S
H492 C502 0.930 1_655 S
H493 C503 0.914 1_654 S
C494 H488 0.922 1_556 S
C494 C495 1.357 . S
C494 C496 1.419 . S
C495 C494 1.357 . S
C495 C497 1.419 . S
C496 C494 1.419 . S
C496 C501 1.425 . S
C496 C503 1.424 . S
C497 H489 0.930 . S
C497 C495 1.419 . S
C497 C498 1.362 . S
C498 H490 0.930 . S
C498 C497 1.362 . S
C498 C501 1.409 . S
C499 H491 0.930 . S
C499 C500 1.355 . S
C499 C501 1.415 . S
C500 C499 1.355 . S
C500 C502 1.419 . S
C501 C496 1.425 . S
C501 C498 1.409 . S
C501 C499 1.415 . S
C502 H492 0.930 1_455 S
C502 C500 1.419 . S
C502 C503 1.364 . S
C503 H493 0.914 1_456 S
C503 C496 1.424 . S
C503 C502 1.364 . S
H504 C510 0.930 . S
H505 C513 0.930 . S
H506 C514 0.930 . S
H507 C515 0.930 1_565 S
H508 C518 0.930 . S
H509 C519 0.930 . S
C510 H504 0.930 . S
C510 C511 1.355 . S
C510 C512 1.415 . S
C511 C510 1.355 . S
C511 C513 1.419 1_545 S
C512 C510 1.415 . S
C512 C517 1.425 . S
C512 C519 1.409 . S
C513 H505 0.930 . S
C513 C511 1.419 1_565 S
C513 C514 1.362 . S
C514 H506 0.930 . S
C514 C513 1.362 . S
C514 C517 1.409 1_565 S
C515 H507 0.930 1_545 S
C515 C516 1.355 . S
C515 C517 1.415 . S
C516 C515 1.355 . S
C516 C518 1.419 . S
C517 C512 1.425 . S
C517 C514 1.409 1_545 S
C517 C515 1.415 . S
C518 H508 0.930 . S
C518 C516 1.419 . S
C518 C519 1.362 . S
C519 H509 0.930 . S
C519 C512 1.409 . S
C519 C518 1.362 . S
H520 C526 0.930 . S
H521 C529 0.930 . S
H522 C530 0.930 . S
H523 C531 0.930 . S
H524 C534 0.930 . S
H525 C535 0.930 . S
C526 H520 0.930 . S
C526 C527 1.355 . S
C526 C528 1.415 . S
C527 C526 1.355 . S
C527 C529 1.419 1_556 S
C528 C526 1.415 . S
C528 C533 1.425 . S
C528 C535 1.409 . S
C529 H521 0.930 . S
C529 C527 1.419 1_554 S
C529 C530 1.362 . S
C530 H522 0.930 . S
C530 C529 1.362 . S
C530 C533 1.409 1_554 S
C531 H523 0.930 . S
C531 C532 1.355 . S
C531 C533 1.415 . S
C532 C531 1.355 . S
C532 C534 1.419 . S
C533 C528 1.425 . S
C533 C530 1.409 1_556 S
C533 C531 1.415 . S
C534 H524 0.930 . S
C534 C532 1.419 . S
C534 C535 1.362 . S
C535 H525 0.930 . S
C535 C528 1.409 . S
C535 C534 1.362 . S
H536 C542 0.930 . S
H537 C545 0.930 . S
H538 C546 0.930 1_554 S
H539 C547 0.930 . S
H540 C550 0.930 . S
H541 C551 0.930 . S
C542 H536 0.930 . S
C542 C543 1.355 . S
C542 C544 1.415 . S
C543 C542 1.355 . S
C543 C545 1.419 1_556 S
C544 C542 1.415 . S
C544 C549 1.425 . S
C544 C551 1.409 . S
C545 H537 0.930 . S
C545 C543 1.419 1_554 S
C545 C546 1.362 1_554 S
C546 H538 0.930 1_556 S
C546 C545 1.362 1_556 S
C546 C549 1.409 . S
C547 H539 0.930 . S
C547 C548 1.355 . S
C547 C549 1.415 . S
C548 C547 1.355 . S
C548 C550 1.419 . S
C549 C544 1.425 . S
C549 C546 1.409 . S
C549 C547 1.415 . S
C550 H540 0.930 . S
C550 C548 1.419 . S
C550 C551 1.362 . S
C551 H541 0.930 . S
C551 C544 1.409 . S
C551 C550 1.362 . S
H552 C558 0.930 . S
H553 C561 0.930 . S
H554 C562 0.930 . S
H555 C563 0.930 . S
H556 C566 0.930 1_455 S
H557 C567 0.930 1_455 S
C558 H552 0.930 . S
C558 C559 1.355 . S
C558 C560 1.415 . S
C559 C558 1.355 . S
C559 C561 1.419 . S
C560 C558 1.415 . S
C560 C565 1.425 . S
C560 C567 1.409 . S
C561 H553 0.930 . S
C561 C559 1.419 . S
C561 C562 1.362 . S
C562 H554 0.930 . S
C562 C561 1.362 . S
C562 C565 1.409 . S
C563 H555 0.930 . S
C563 C564 1.355 . S
C563 C565 1.415 . S
C564 C563 1.355 . S
C564 C566 1.419 . S
C565 C560 1.425 . S
C565 C562 1.409 . S
C565 C563 1.415 . S
C566 H556 0.930 1_655 S
C566 C564 1.419 . S
C566 C567 1.362 . S
C567 H557 0.930 1_655 S
C567 C560 1.409 . S
C567 C566 1.362 . S
H568 C574 0.930 . S
H569 C577 0.930 . S
H570 C578 0.930 . S
H571 C579 0.930 . S
H572 C582 0.927 1_545 S
H573 C583 0.935 . S
C574 H568 0.930 . S
C574 C575 1.355 . S
C574 C576 1.415 . S
C575 C574 1.355 . S
C575 C577 1.419 . S
C576 C574 1.415 . S
C576 C581 1.425 . S
C576 C583 1.405 1_565 S
C577 H569 0.930 . S
C577 C575 1.419 . S
C577 C578 1.362 . S
C578 H570 0.930 . S
C578 C577 1.362 . S
C578 C581 1.409 . S
C579 H571 0.930 . S
C579 C580 1.355 . S
C579 C581 1.415 . S
C580 C579 1.355 . S
C580 C582 1.422 . S
C581 C576 1.425 . S
C581 C578 1.409 . S
C581 C579 1.415 . S
C582 H572 0.927 1_565 S
C582 C580 1.422 . S
C582 C583 1.362 1_565 S
C583 H573 0.935 . S
C583 C576 1.405 1_545 S
C583 C582 1.362 1_545 S
H584 C590 0.930 . S
H585 C593 0.930 . S
H586 C594 0.930 . S
H587 C595 0.930 . S
H588 C598 0.930 . S
H589 C599 0.930 . S
C590 H584 0.930 . S
C590 C591 1.355 . S
C590 C592 1.415 . S
C591 C590 1.355 . S
C591 C593 1.419 . S
C592 C590 1.415 . S
C592 C597 1.425 . S
C592 C599 1.409 . S
C593 H585 0.930 . S
C593 C591 1.419 . S
C593 C594 1.362 . S
C594 H586 0.930 . S
C594 C593 1.362 . S
C594 C597 1.409 . S
C595 H587 0.930 . S
C595 C596 1.355 . S
C595 C597 1.415 . S
C596 C595 1.355 . S
C596 C598 1.419 . S
C597 C592 1.425 . S
C597 C594 1.409 . S
C597 C595 1.415 . S
C598 H588 0.930 . S
C598 C596 1.419 . S
C598 C599 1.362 . S
C599 H589 0.930 . S
C599 C592 1.409 . S
C599 C598 1.362 . S
H600 C606 0.930 . S
H601 C609 0.930 . S
H602 C610 0.930 . S
H603 C611 0.930 . S
H604 C614 0.930 . S
H605 C615 0.930 . S
C606 H600 0.930 . S
C606 C607 1.355 . S
C606 C608 1.415 . S
C607 C606 1.355 . S
C607 C609 1.419 . S
C608 C606 1.415 . S
C608 C613 1.425 . S
C608 C615 1.409 . S
C609 H601 0.930 . S
C609 C607 1.419 . S
C609 C610 1.362 . S
C610 H602 0.930 . S
C610 C609 1.362 . S
C610 C613 1.409 . S
C611 H603 0.930 . S
C611 C612 1.355 . S
C611 C613 1.415 . S
C612 C611 1.355 . S
C612 C614 1.419 . S
C613 C608 1.425 . S
C613 C610 1.409 . S
C613 C611 1.415 . S
C614 H604 0.930 . S
C614 C612 1.419 . S
C614 C615 1.362 . S
C615 H605 0.930 . S
C615 C608 1.409 . S
C615 C614 1.362 . S
C239 C125 1.458 . S
C244 C170 1.556 . S
C260 C190 1.539 . S
C255 C144 1.447 . S
C276 C210 1.496 . S
C271 C87 1.526 . S
C292 C230 1.510 . S
C287 C106 1.528 . S
C308 C171 1.548 1_565 S
C303 C49 1.547 . S
C319 C68 1.520 . S
C324 C191 1.556 . S
C335 C11 1.553 . S
C340 C211 1.541 . S
C351 C30 1.529 . S
C356 C231 1.496 1_655 S
C372 C161 0.913 . S
C367 C97 0.941 . S
C388 C181 1.051 . S
C383 C116 1.044 . S
C404 C201 0.993 . S
C399 C135 0.970 . S
C415 C78 0.922 . S
C420 C221 0.921 . S
C431 C21 0.987 . S
C436 C164 1.019 . S
C452 C184 1.038 . S
C447 C40 1.045 . S
C468 C204 0.975 . S
C463 C59 0.954 . S
C479 C2 0.923 . S
C484 C224 0.921 . S
C495 C101 1.542 1_556 S
C500 C154 1.454 . S
C511 C120 1.533 1_556 S
C516 C174 1.487 . S
C532 C194 1.387 . S
C527 C139 1.472 1_556 S
C548 C214 1.383 . S
C543 C82 1.479 1_556 S
C559 C25 1.482 . S
C564 C156 1.385 . S
C580 C176 1.385 . S
C575 C44 1.482 . S
C596 C196 1.458 . S
C591 C63 1.542 . S
C607 C6 1.483 . S
C612 C216 1.386 . S
