# Generated by pormake.
# Topology dag, (6,3)-cn, num edge types: 1
# Building blocks:
#     Node 0, Type 0, BuildingBlock: IZENUY_clean_sbu_0, # of connection points: 6
#     Node 1, Type 0, BuildingBlock: IZENUY_clean_sbu_0, # of connection points: 6
#     Node 2, Type 0, BuildingBlock: IZENUY_clean_sbu_0, # of connection points: 6
#     Node 3, Type 0, BuildingBlock: IZENUY_clean_sbu_0, # of connection points: 6
#     Node 4, Type 1, BuildingBlock: PAMTOO_clean_linker_0, # of connection points: 3
#     Node 5, Type 1, BuildingBlock: PAMTOO_clean_linker_0, # of connection points: 3
#     Node 6, Type 1, BuildingBlock: PAMTOO_clean_linker_0, # of connection points: 3
#     Node 7, Type 1, BuildingBlock: PAMTOO_clean_linker_0, # of connection points: 3
#     Node 8, Type 1, BuildingBlock: PAMTOO_clean_linker_0, # of connection points: 3
#     Node 9, Type 1, BuildingBlock: PAMTOO_clean_linker_0, # of connection points: 3
#     Node 10, Type 1, BuildingBlock: PAMTOO_clean_linker_0, # of connection points: 3
#     Node 11, Type 1, BuildingBlock: PAMTOO_clean_linker_0, # of connection points: 3
#     Edge 12, Type (0, 1), BuildingBlock: OJICUG_clean_linker_0, # of connection points: 2
#     Edge 13, Type (0, 1), BuildingBlock: OJICUG_clean_linker_0, # of connection points: 2
#     Edge 14, Type (0, 1), BuildingBlock: OJICUG_clean_linker_0, # of connection points: 2
#     Edge 15, Type (0, 1), BuildingBlock: OJICUG_clean_linker_0, # of connection points: 2
#     Edge 16, Type (0, 1), BuildingBlock: OJICUG_clean_linker_0, # of connection points: 2
#     Edge 17, Type (0, 1), BuildingBlock: OJICUG_clean_linker_0, # of connection points: 2
#     Edge 18, Type (0, 1), BuildingBlock: OJICUG_clean_linker_0, # of connection points: 2
#     Edge 19, Type (0, 1), BuildingBlock: OJICUG_clean_linker_0, # of connection points: 2
#     Edge 20, Type (0, 1), BuildingBlock: OJICUG_clean_linker_0, # of connection points: 2
#     Edge 21, Type (0, 1), BuildingBlock: OJICUG_clean_linker_0, # of connection points: 2
#     Edge 22, Type (0, 1), BuildingBlock: OJICUG_clean_linker_0, # of connection points: 2
#     Edge 23, Type (0, 1), BuildingBlock: OJICUG_clean_linker_0, # of connection points: 2
#     Edge 24, Type (0, 1), BuildingBlock: OJICUG_clean_linker_0, # of connection points: 2
#     Edge 25, Type (0, 1), BuildingBlock: OJICUG_clean_linker_0, # of connection points: 2
#     Edge 26, Type (0, 1), BuildingBlock: OJICUG_clean_linker_0, # of connection points: 2
#     Edge 27, Type (0, 1), BuildingBlock: OJICUG_clean_linker_0, # of connection points: 2
#     Edge 28, Type (0, 1), BuildingBlock: OJICUG_clean_linker_0, # of connection points: 2
#     Edge 29, Type (0, 1), BuildingBlock: OJICUG_clean_linker_0, # of connection points: 2
#     Edge 30, Type (0, 1), BuildingBlock: OJICUG_clean_linker_0, # of connection points: 2
#     Edge 31, Type (0, 1), BuildingBlock: OJICUG_clean_linker_0, # of connection points: 2
#     Edge 32, Type (0, 1), BuildingBlock: OJICUG_clean_linker_0, # of connection points: 2
#     Edge 33, Type (0, 1), BuildingBlock: OJICUG_clean_linker_0, # of connection points: 2
#     Edge 34, Type (0, 1), BuildingBlock: OJICUG_clean_linker_0, # of connection points: 2
#     Edge 35, Type (0, 1), BuildingBlock: OJICUG_clean_linker_0, # of connection points: 2
# Relax obj value: 0.091
# Max RMSD: 0.115
# Mean RMSD: 0.093
data_MOF--net-dag--node1-IZENUY_clean_sbu_0--node2-PAMTOO_clean_linker_0--edge1-OJICUG_clean_linker_0
_symmetry_space_group_name_H-M    P1
_symmetry_Int_Tables_number       1
_symmetry_cell_setting            triclinic
loop_
_symmetry_equiv_pos_as_xyz
'x, y, z'
_cell_length_a     28.723067
_cell_length_b     29.681783
_cell_length_c     26.163307
_cell_angle_alpha  89.973433
_cell_angle_beta   94.176141
_cell_angle_gamma 90.056185
loop_
_atom_site_label
_atom_site_type_symbol
_atom_site_fract_x
_atom_site_fract_y
_atom_site_fract_z
_atom_type_partial_charge
Fe0 Fe 0.20952 0.86256 0.01796 0.0
Fe1 Fe 0.1104 0.89998 0.01122 0.0
O2 O 0.14836 0.8536 0.00895 0.0
Fe3 Fe 0.12488 0.79889 0.99751 0.0
O4 O 0.15237 0.77818 0.0574 0.0
O5 O 0.22167 0.80789 0.04922 0.0
O6 O 0.2048 0.88621 0.08169 0.0
C7 C 0.17921 0.91948 0.08999 0.0
C8 C 0.20545 0.80088 0.93998 0.0
O9 O 0.14815 0.93253 0.05674 0.0
C10 C 0.06804 0.84842 0.93089 0.0
O11 O 0.20811 0.91899 0.98764 0.0
O12 O 0.13524 0.92539 0.95677 0.0
O13 O 0.17383 0.77952 0.96139 0.0
O14 O 0.21839 0.83951 0.95538 0.0
C15 C 0.06379 0.83852 0.06564 0.0
O16 O 0.06522 0.87684 0.96629 0.0
O17 O 0.09558 0.81548 0.93621 0.0
C18 C 0.17765 0.93584 0.95562 0.0
O19 O 0.08368 0.87643 0.0656 0.0
O20 O 0.07188 0.80899 0.03221 0.0
C21 C 0.19552 0.78003 0.07022 0.0
Fe22 Fe 0.70431 0.64122 0.51116 0.0
Fe23 Fe 0.62334 0.70915 0.49059 0.0
O24 O 0.64362 0.65352 0.50406 0.0
Fe25 Fe 0.60285 0.60996 0.51061 0.0
O26 O 0.63957 0.5773 0.55682 0.0
O27 O 0.70081 0.6199 0.57614 0.0
O28 O 0.72057 0.69604 0.5402 0.0
C29 C 0.69612 0.72457 0.56247 0.0
C30 C 0.66549 0.56686 0.45455 0.0
O31 O 0.65342 0.72989 0.549 0.0
C32 C 0.56126 0.66088 0.42875 0.0
O33 O 0.71223 0.66136 0.44704 0.0
O34 O 0.67219 0.72419 0.45205 0.0
O35 O 0.62399 0.57998 0.45696 0.0
O36 O 0.69834 0.58399 0.48336 0.0
C37 C 0.56218 0.67687 0.56275 0.0
O38 O 0.5913 0.69196 0.43102 0.0
O39 O 0.55805 0.63393 0.46563 0.0
C40 C 0.70046 0.69961 0.42955 0.0
O41 O 0.57077 0.70389 0.527 0.0
O42 O 0.57975 0.63794 0.56462 0.0
C43 C 0.67315 0.58916 0.58763 0.0
Fe44 Fe 0.87619 0.20361 0.05233 0.0
Fe45 Fe 0.89043 0.10233 0.03995 0.0
O46 O 0.85257 0.14889 0.04103 0.0
Fe47 Fe 0.79145 0.1402 0.03051 0.0
O48 O 0.78038 0.19431 0.99736 0.0
O49 O 0.8503 0.22346 0.99148 0.0
O50 O 0.92983 0.19284 0.01913 0.0
C51 C 0.93791 0.16328 0.98577 0.0
C52 C 0.79415 0.20291 0.10755 0.0
O53 O 0.91799 0.12537 0.98585 0.0
C54 C 0.82214 0.06723 0.09454 0.0
O55 O 0.90438 0.18754 0.11441 0.0
O56 O 0.93501 0.12581 0.08542 0.0
O57 O 0.78119 0.16428 0.09221 0.0
O58 O 0.82648 0.22379 0.08679 0.0
C59 C 0.82279 0.08206 0.96021 0.0
O60 O 0.86465 0.07752 0.0941 0.0
O61 O 0.79207 0.08419 0.06205 0.0
C62 C 0.93207 0.15471 0.12034 0.0
O63 O 0.85333 0.06926 0.99417 0.0
O64 O 0.79737 0.11561 0.96751 0.0
C65 C 0.80784 0.2206 0.97588 0.0
Fe66 Fe 0.39804 0.39143 0.54053 0.0
Fe67 Fe 0.29678 0.36027 0.54198 0.0
O68 O 0.35745 0.34786 0.54798 0.0
Fe69 Fe 0.37779 0.29233 0.56168 0.0
O70 O 0.41086 0.31 0.62034 0.0
O71 O 0.44351 0.36792 0.585 0.0
O72 O 0.37748 0.42174 0.59438 0.0
C73 C 0.33604 0.43502 0.59694 0.0
C74 C 0.43807 0.32428 0.48804 0.0
O75 O 0.30313 0.41787 0.56835 0.0
C76 C 0.30295 0.2749 0.49364 0.0
O77 O 0.36058 0.42354 0.49459 0.0
O78 O 0.29932 0.38059 0.47641 0.0
O79 O 0.42957 0.29712 0.52373 0.0
O80 O 0.42057 0.36324 0.48638 0.0
C81 C 0.30216 0.30314 0.62468 0.0
O82 O 0.27975 0.30499 0.51493 0.0
O83 O 0.34625 0.27059 0.50447 0.0
C84 C 0.32684 0.41127 0.46422 0.0
O85 O 0.29012 0.3412 0.60675 0.0
O86 O 0.32986 0.2781 0.60191 0.0
C87 C 0.44072 0.34115 0.62207 0.0
H88 H 0.08989 0.05413 0.19331 0.0
H89 H 0.11565 0.16998 0.29024 0.0
H90 H 0.22388 0.07177 0.27514 0.0
H91 H 0.22163 0.1039 0.37963 0.0
C92 C 0.20352 0.13669 0.37261 0.0
O93 O 0.2011 0.14641 0.32094 0.0
H94 H 0.16777 0.13341 0.38612 0.0
C95 C 0.11262 0.07302 0.22046 0.0
C96 C 0.15828 0.05765 0.23242 0.0
C97 C 0.09681 0.11363 0.24059 0.0
C98 C 0.1272 0.13869 0.27403 0.0
C99 C 0.17266 0.12309 0.28714 0.0
C100 C 0.18848 0.08313 0.26553 0.0
H101 H 0.40156 0.6075 0.63224 0.0
H102 H 0.28533 0.62616 0.72459 0.0
H103 H 0.38487 0.73335 0.70999 0.0
H104 H 0.3593 0.71885 0.81329 0.0
C105 C 0.32337 0.70506 0.80606 0.0
O106 O 0.30987 0.70782 0.75446 0.0
H107 H 0.32424 0.66918 0.81862 0.0
C108 C 0.38151 0.62901 0.65602 0.0
C109 C 0.39741 0.67257 0.66779 0.0
C110 C 0.3412 0.61209 0.67604 0.0
C111 C 0.31587 0.63938 0.7077 0.0
C112 C 0.33168 0.68317 0.71998 0.0
C113 C 0.37217 0.7 0.69946 0.0
H114 H 0.89224 0.90646 0.13471 0.0
H115 H 0.78102 0.87557 0.23032 0.0
H116 H 0.89206 0.78002 0.21512 0.0
H117 H 0.79662 0.73719 0.22483 0.0
C118 C 0.78086 0.76524 0.24586 0.0
O119 O 0.8147 0.79677 0.25978 0.0
H120 H 0.75283 0.78066 0.21988 0.0
C121 C 0.87556 0.88306 0.15956 0.0
C122 C 0.897 0.84178 0.17201 0.0
C123 C 0.83374 0.89533 0.17996 0.0
C124 C 0.81274 0.86585 0.2132 0.0
C125 C 0.83354 0.82399 0.2254 0.0
C126 C 0.87552 0.81179 0.20451 0.0
H127 H 0.5922 0.45017 0.69396 0.0
H128 H 0.62595 0.33572 0.7904 0.0
H129 H 0.72778 0.44028 0.77443 0.0
H130 H 0.76885 0.34642 0.78391 0.0
C131 C 0.73948 0.33039 0.80264 0.0
O132 O 0.71034 0.36337 0.81914 0.0
H133 H 0.72036 0.30818 0.7739 0.0
C134 C 0.61632 0.43275 0.72099 0.0
C135 C 0.66099 0.45087 0.73253 0.0
C136 C 0.60327 0.39121 0.74126 0.0
C137 C 0.63535 0.36785 0.77435 0.0
C138 C 0.68 0.3858 0.78658 0.0
C139 C 0.69302 0.42698 0.76528 0.0
H140 H 0.59887 0.39444 0.41835 0.0
H141 H 0.61427 0.26959 0.33809 0.0
H142 H 0.71434 0.37652 0.32474 0.0
H143 H 0.67619 0.33502 0.23019 0.0
C144 C 0.67643 0.29895 0.24201 0.0
O145 O 0.68939 0.2953 0.2937 0.0
H146 H 0.64034 0.28574 0.23415 0.0
C147 C 0.6186 0.37317 0.39401 0.0
C148 C 0.65888 0.39019 0.37398 0.0
C149 C 0.60236 0.32981 0.38162 0.0
C150 C 0.62719 0.30276 0.34908 0.0
C151 C 0.66766 0.31968 0.32853 0.0
C152 C 0.6838 0.36322 0.34156 0.0
H153 H 0.1077 0.09537 0.91362 0.0
H154 H 0.10975 0.22369 0.83737 0.0
H155 H 0.22041 0.12799 0.82077 0.0
H156 H 0.24903 0.22224 0.83452 0.0
C157 C 0.22157 0.23838 0.8084 0.0
O158 O 0.18745 0.20753 0.79322 0.0
H159 H 0.2059 0.26636 0.82961 0.0
C160 C 0.12477 0.11921 0.8896 0.0
C161 C 0.16677 0.10723 0.86948 0.0
C162 C 0.10379 0.16088 0.87823 0.0
C163 C 0.1259 0.19155 0.84711 0.0
C164 C 0.16805 0.17963 0.82646 0.0
C165 C 0.18847 0.13741 0.83762 0.0
H166 H 0.4068 0.55382 0.36115 0.0
H167 H 0.37012 0.67057 0.26943 0.0
H168 H 0.26912 0.56544 0.28604 0.0
H169 H 0.25926 0.60292 0.18323 0.0
C170 C 0.28086 0.63375 0.19016 0.0
O171 O 0.28538 0.64271 0.24199 0.0
H172 H 0.31563 0.62708 0.17537 0.0
C173 C 0.38185 0.57196 0.33574 0.0
C174 C 0.3369 0.55406 0.32532 0.0
C175 C 0.39429 0.61403 0.31622 0.0
C176 C 0.36117 0.63818 0.28515 0.0
C177 C 0.31638 0.62024 0.27375 0.0
C178 C 0.30398 0.57871 0.29459 0.0
H179 H 0.91314 0.95129 0.85354 0.0
H180 H 0.8903 0.83724 0.75326 0.0
H181 H 0.78076 0.93412 0.76826 0.0
H182 H 0.74869 0.83914 0.7598 0.0
C183 C 0.77688 0.82522 0.73743 0.0
O184 O 0.80477 0.85983 0.72223 0.0
H185 H 0.79776 0.80134 0.76266 0.0
C186 C 0.89121 0.9329 0.82518 0.0
C187 C 0.84563 0.94808 0.81256 0.0
C188 C 0.90773 0.89283 0.8045 0.0
C189 C 0.87825 0.86828 0.76963 0.0
C190 C 0.83274 0.8835 0.75616 0.0
C191 C 0.81624 0.92307 0.77805 0.0
C192 C 0.15279 0.94222 0.17347 0.0
C193 C 0.18596 0.94622 0.13701 0.0
H194 H 0.11859 0.97467 0.23346 0.0
C195 C 0.21592 0.98365 0.13865 0.0
H196 H 0.12883 0.91396 0.17213 0.0
C197 C 0.21018 0.01845 0.17385 0.0
C198 C 0.17391 0.01634 0.20704 0.0
H199 H 0.24089 0.98783 0.10989 0.0
H200 H 0.23112 0.04868 0.17183 0.0
C201 C 0.1468 0.97699 0.20825 0.0
C202 C 0.52326 0.66351 0.64325 0.0
C203 C 0.52425 0.68641 0.59637 0.0
H204 H 0.48178 0.64255 0.70368 0.0
C205 C 0.4856 0.71281 0.57901 0.0
H206 H 0.55269 0.64332 0.65779 0.0
C207 C 0.44488 0.71235 0.60548 0.0
C208 C 0.44281 0.68606 0.64984 0.0
H209 H 0.48538 0.73068 0.54288 0.0
H210 H 0.41398 0.72944 0.58913 0.0
C211 C 0.48292 0.66339 0.66976 0.0
C212 C 0.83591 0.02023 0.17245 0.0
C213 C 0.81108 0.02733 0.12489 0.0
H214 H 0.86106 0.97176 0.22844 0.0
C215 C 0.78431 0.992 0.10225 0.0
H216 H 0.85687 0.04698 0.19054 0.0
C217 C 0.78704 0.9488 0.12388 0.0
C218 C 0.81577 0.94095 0.16872 0.0
H219 H 0.76537 0.99655 0.06526 0.0
H220 H 0.77035 0.92088 0.10311 0.0
C221 C 0.83811 0.97735 0.19429 0.0
C222 C 0.47724 0.38681 0.69236 0.0
C223 C 0.47563 0.34599 0.66546 0.0
H224 H 0.5189 0.43256 0.73931 0.0
C225 C 0.51341 0.31609 0.67177 0.0
H226 H 0.44859 0.41046 0.68748 0.0
C227 C 0.55411 0.32893 0.70105 0.0
C228 C 0.55724 0.37183 0.72393 0.0
H229 H 0.51309 0.2848 0.65044 0.0
H230 H 0.58437 0.30712 0.70191 0.0
C231 C 0.51753 0.39951 0.72168 0.0
C232 C 0.7063 0.49317 0.44331 0.0
C233 C 0.67302 0.52528 0.42531 0.0
H234 H 0.72808 0.42395 0.44028 0.0
C235 C 0.64172 0.51439 0.38338 0.0
H236 H 0.73067 0.50064 0.47577 0.0
C237 C 0.64066 0.47102 0.36299 0.0
C238 C 0.67085 0.43776 0.38415 0.0
H239 H 0.61604 0.5386 0.36843 0.0
H240 H 0.61383 0.46248 0.33328 0.0
C241 C 0.70498 0.44943 0.423 0.0
C242 C 0.98103 0.13916 0.91118 0.0
C243 C 0.97643 0.16948 0.95174 0.0
H244 H 0.02497 0.11368 0.85532 0.0
C245 C 0.01123 0.20239 0.96197 0.0
H246 H 0.95467 0.11379 0.90177 0.0
C247 C 0.05166 0.20235 0.93492 0.0
C248 C 0.05751 0.16959 0.89727 0.0
H249 H 0.00859 0.22631 0.99287 0.0
H250 H 0.07956 0.22581 0.94575 0.0
C251 C 0.02112 0.13922 0.8843 0.0
C252 C 0.28399 0.4717 0.41471 0.0
C253 C 0.31818 0.43786 0.41725 0.0
H254 H 0.26293 0.53572 0.38244 0.0
C255 C 0.35292 0.43842 0.38233 0.0
H256 H 0.25759 0.47241 0.44225 0.0
C257 C 0.35615 0.47441 0.34851 0.0
C258 C 0.32495 0.51076 0.34947 0.0
H259 H 0.38002 0.41299 0.38428 0.0
H260 H 0.38528 0.47556 0.32445 0.0
C261 C 0.28725 0.50798 0.38076 0.0
C262 C 0.99963 0.82074 0.87525 0.0
C263 C 0.03473 0.85299 0.88592 0.0
H264 H 0.93091 0.80827 0.84011 0.0
C265 C 0.03158 0.89489 0.86115 0.0
H266 H 0.00118 0.78846 0.89465 0.0
C267 C 0.99196 0.90608 0.82989 0.0
C268 C 0.95435 0.87584 0.82359 0.0
H269 H 0.05826 0.92029 0.86909 0.0
H270 H 0.98916 0.93975 0.81392 0.0
C271 C 0.9595 0.83214 0.84416 0.0
C272 C 0.84863 0.06183 0.87545 0.0
C273 C 0.81688 0.05543 0.913 0.0
H274 H 0.88203 0.03248 0.81288 0.0
C275 C 0.78846 0.01689 0.91113 0.0
H276 H 0.87139 0.091 0.87689 0.0
C277 C 0.79423 0.98352 0.87424 0.0
C278 C 0.82905 0.98812 0.83956 0.0
H279 H 0.76457 0.01094 0.94062 0.0
H280 H 0.77459 0.95244 0.8759 0.0
C281 C 0.85474 0.0284 0.83901 0.0
C282 C 0.47654 0.33815 0.40727 0.0
C283 C 0.47585 0.31493 0.45401 0.0
H284 H 0.51761 0.35978 0.34674 0.0
C285 C 0.51477 0.28872 0.47097 0.0
H286 H 0.44695 0.3583 0.39305 0.0
C287 C 0.55537 0.28961 0.44423 0.0
C288 C 0.55711 0.31615 0.39998 0.0
H289 H 0.51528 0.27068 0.507 0.0
H290 H 0.58643 0.2726 0.46028 0.0
C291 C 0.51678 0.33872 0.38052 0.0
C292 C 0.16275 0.98261 0.87771 0.0
C293 C 0.18841 0.97548 0.92476 0.0
H294 H 0.13734 0.03107 0.82188 0.0
C295 C 0.21644 0.01042 0.9463 0.0
H296 H 0.14099 0.95609 0.86037 0.0
C297 C 0.21415 0.05345 0.92426 0.0
C298 C 0.18453 0.06149 0.88015 0.0
H299 H 0.23616 0.00579 0.98282 0.0
H300 H 0.23183 0.08122 0.94434 0.0
C301 C 0.16095 0.02531 0.85547 0.0
C302 C 0.52215 0.61692 0.35851 0.0
C303 C 0.52537 0.6574 0.38609 0.0
H304 H 0.47805 0.57203 0.31308 0.0
C305 C 0.48771 0.6876 0.38231 0.0
H306 H 0.55061 0.59294 0.36155 0.0
C307 C 0.44573 0.6754 0.35504 0.0
C308 C 0.44111 0.63278 0.33166 0.0
H309 H 0.48921 0.71855 0.40432 0.0
H310 H 0.41579 0.69743 0.35622 0.0
C311 C 0.48052 0.60484 0.33122 0.0
C312 C 0.29463 0.50837 0.60794 0.0
C313 C 0.3285 0.47677 0.62581 0.0
H314 H 0.27188 0.57729 0.61078 0.0
C315 C 0.35987 0.48816 0.66747 0.0
H316 H 0.27012 0.50047 0.57575 0.0
C317 C 0.36041 0.53157 0.68767 0.0
C318 C 0.32963 0.56437 0.66655 0.0
H319 H 0.3859 0.46431 0.6824 0.0
H320 H 0.3873 0.54055 0.71714 0.0
C321 C 0.29542 0.55216 0.62803 0.0
C322 C 0.02011 0.8631 0.13971 0.0
C323 C 0.02504 0.83247 0.09949 0.0
H324 H 0.9757 0.88915 0.19482 0.0
C325 C 0.99017 0.79963 0.08918 0.0
H326 H 0.04645 0.88847 0.14915 0.0
C327 C 0.94946 0.79999 0.11582 0.0
C328 C 0.94337 0.83301 0.15314 0.0
H329 H 0.99298 0.77551 0.05852 0.0
H330 H 0.92158 0.77651 0.10496 0.0
C331 C 0.97973 0.86339 0.16612 0.0
C332 C 0.64587 0.56426 0.66999 0.0
C333 C 0.68071 0.56318 0.63523 0.0
H334 H 0.61328 0.52977 0.7297 0.0
C335 C 0.71475 0.52922 0.6396 0.0
H336 H 0.61896 0.58985 0.66674 0.0
C337 C 0.71131 0.4944 0.67545 0.0
C338 C 0.67362 0.49325 0.70686 0.0
H339 H 0.7413 0.52731 0.6123 0.0
H340 H 0.73548 0.46642 0.67526 0.0
C341 C 0.64251 0.52978 0.70574 0.0
C342 C 0.00186 0.18402 0.17235 0.0
C343 C 0.96649 0.15156 0.16453 0.0
H344 H 0.07181 0.19729 0.20344 0.0
C345 C 0.97092 0.11025 0.19044 0.0
H346 H 0.99941 0.21579 0.15192 0.0
C347 C 0.01188 0.09975 0.21983 0.0
C348 C 0.04951 0.13011 0.22319 0.0
H349 H 0.94412 0.08464 0.18461 0.0
H350 H 0.01551 0.06644 0.23664 0.0
C351 C 0.04327 0.17333 0.20163 0.0
C352 C 0.26543 0.74381 0.11634 0.0
C353 C 0.21682 0.74495 0.1048 0.0
H354 H 0.32357 0.70774 0.15256 0.0
C355 C 0.18913 0.7107 0.12424 0.0
H356 H 0.28778 0.76981 0.10241 0.0
C357 C 0.20978 0.67519 0.1527 0.0
C358 C 0.25844 0.67313 0.16201 0.0
H359 H 0.15157 0.71068 0.1165 0.0
H360 H 0.18784 0.64878 0.16648 0.0
C361 C 0.28599 0.70831 0.14487 0.0
C362 C 0.6914 0.78505 0.62884 0.0
C363 C 0.71781 0.75229 0.60495 0.0
H364 H 0.68945 0.83376 0.68916 0.0
C365 C 0.76429 0.74481 0.62385 0.0
H366 H 0.65557 0.79184 0.61525 0.0
C367 C 0.78345 0.76874 0.66639 0.0
C368 C 0.75648 0.80036 0.69099 0.0
H369 H 0.78565 0.71993 0.60639 0.0
H370 H 0.81916 0.76213 0.68062 0.0
C371 C 0.71064 0.80898 0.67126 0.0
C372 C 0.72969 0.20422 0.16747 0.0
C373 C 0.76708 0.22621 0.14592 0.0
H374 H 0.6721 0.21 0.21492 0.0
C375 C 0.77667 0.27133 0.15949 0.0
H376 H 0.72155 0.16936 0.1584 0.0
C377 C 0.74824 0.29445 0.1919 0.0
C378 C 0.70956 0.27301 0.21111 0.0
H379 H 0.80538 0.28922 0.14404 0.0
H380 H 0.75563 0.32949 0.20077 0.0
C381 C 0.70134 0.22737 0.19985 0.0
C382 C 0.24859 0.31275 0.69556 0.0
C383 C 0.28159 0.28661 0.67158 0.0
H384 H 0.20379 0.31794 0.75742 0.0
C385 C 0.29499 0.24475 0.6932 0.0
H386 H 0.23736 0.34509 0.67995 0.0
C387 C 0.2759 0.2295 0.73774 0.0
C388 C 0.24331 0.25585 0.76171 0.0
H389 H 0.32023 0.22372 0.67577 0.0
H390 H 0.28647 0.197 0.75348 0.0
C391 C 0.22946 0.29739 0.74 0.0
C392 C 0.70825 0.75872 0.36184 0.0
C393 C 0.7216 0.71673 0.38318 0.0
H394 H 0.7166 0.80668 0.30171 0.0
C395 C 0.75481 0.69086 0.35919 0.0
H396 H 0.68285 0.77957 0.37928 0.0
C397 C 0.77396 0.70647 0.31484 0.0
C398 C 0.75995 0.74801 0.29323 0.0
H399 H 0.76604 0.65845 0.37458 0.0
H400 H 0.79958 0.68598 0.29725 0.0
C401 C 0.72736 0.77422 0.31739 0.0
C402 C 0.81933 0.28105 0.911 0.0
C403 C 0.78983 0.24953 0.93268 0.0
H404 H 0.82649 0.33129 0.85318 0.0
C405 C 0.74354 0.2452 0.9117 0.0
H406 H 0.85514 0.2854 0.92622 0.0
C407 C 0.72738 0.27138 0.86964 0.0
C408 C 0.75718 0.30224 0.84769 0.0
H409 H 0.71989 0.2213 0.92742 0.0
H410 H 0.69164 0.26744 0.85397 0.0
C411 C 0.80308 0.30727 0.8691 0.0
C412 C 0.22937 0.24383 0.44941 0.0
C413 C 0.27803 0.24109 0.46007 0.0
H414 H 0.1679 0.21302 0.41323 0.0
C415 C 0.3023 0.20486 0.43974 0.0
H416 H 0.20961 0.27145 0.464 0.0
C417 C 0.27827 0.17145 0.41085 0.0
C418 C 0.22955 0.17346 0.40201 0.0
H419 H 0.3398 0.20186 0.44678 0.0
H420 H 0.29761 0.14358 0.39612 0.0
C421 C 0.20542 0.21043 0.42047 0.0
C422 C 0.22295 0.73258 0.88808 0.0
C423 C 0.2323 0.77781 0.90134 0.0
H424 H 0.24438 0.67432 0.84728 0.0
C425 C 0.26951 0.79993 0.87964 0.0
H426 H 0.19436 0.7146 0.90366 0.0
C427 C 0.29804 0.77676 0.84751 0.0
C428 C 0.29012 0.731 0.83669 0.0
H429 H 0.27745 0.83487 0.88852 0.0
H430 H 0.32718 0.7942 0.83232 0.0
C431 C 0.25154 0.70946 0.85591 0.0
loop_
_geom_bond_atom_site_label_1
_geom_bond_atom_site_label_2
_geom_bond_distance
_geom_bond_site_symmetry_2
_ccdc_geom_bond_type
Fe0 O2 1.918 1_554 S
Fe0 O5 1.997 . S
Fe0 O6 2.002 . S
Fe0 O11 1.976 1_554 S
Fe0 O14 1.996 1_554 S
Fe1 O2 1.918 1_554 S
Fe1 O9 1.997 . S
Fe1 O12 1.996 1_554 S
Fe1 O16 1.976 1_554 S
Fe1 O19 2.002 . S
O2 Fe0 1.918 1_556 S
O2 Fe1 1.918 1_556 S
O2 Fe3 1.918 . S
Fe3 O2 1.918 . S
Fe3 O4 2.002 1_556 S
Fe3 O13 1.976 . S
Fe3 O17 1.996 . S
Fe3 O20 1.997 1_556 S
O4 Fe3 2.002 1_554 S
O4 C21 1.295 . S
O5 Fe0 1.997 . S
O5 C21 1.235 . S
O6 Fe0 2.002 . S
O6 C7 1.295 . S
C7 O6 1.295 . S
C7 O9 1.235 . S
C8 O13 1.287 . S
C8 O14 1.255 . S
O9 Fe1 1.997 . S
O9 C7 1.235 . S
C10 O16 1.287 . S
C10 O17 1.255 . S
O11 Fe0 1.976 1_556 S
O11 C18 1.287 . S
O12 Fe1 1.996 1_556 S
O12 C18 1.255 . S
O13 Fe3 1.976 . S
O13 C8 1.287 . S
O14 Fe0 1.996 1_556 S
O14 C8 1.255 . S
C15 O19 1.295 . S
C15 O20 1.235 . S
O16 Fe1 1.976 1_556 S
O16 C10 1.287 . S
O17 Fe3 1.996 . S
O17 C10 1.255 . S
C18 O11 1.287 . S
C18 O12 1.255 . S
O19 Fe1 2.002 . S
O19 C15 1.295 . S
O20 Fe3 1.997 1_554 S
O20 C15 1.235 . S
C21 O4 1.295 . S
C21 O5 1.235 . S
Fe22 O24 1.918 . S
Fe22 O27 1.997 . S
Fe22 O28 2.002 . S
Fe22 O33 1.976 . S
Fe22 O36 1.996 . S
Fe23 O24 1.918 . S
Fe23 O31 1.997 . S
Fe23 O34 1.996 . S
Fe23 O38 1.976 . S
Fe23 O41 2.002 . S
O24 Fe22 1.918 . S
O24 Fe23 1.918 . S
O24 Fe25 1.918 . S
Fe25 O24 1.918 . S
Fe25 O26 2.002 . S
Fe25 O35 1.976 . S
Fe25 O39 1.996 . S
Fe25 O42 1.997 . S
O26 Fe25 2.002 . S
O26 C43 1.295 . S
O27 Fe22 1.997 . S
O27 C43 1.235 . S
O28 Fe22 2.002 . S
O28 C29 1.295 . S
C29 O28 1.295 . S
C29 O31 1.235 . S
C30 O35 1.287 . S
C30 O36 1.255 . S
O31 Fe23 1.997 . S
O31 C29 1.235 . S
C32 O38 1.287 . S
C32 O39 1.255 . S
O33 Fe22 1.976 . S
O33 C40 1.287 . S
O34 Fe23 1.996 . S
O34 C40 1.255 . S
O35 Fe25 1.976 . S
O35 C30 1.287 . S
O36 Fe22 1.996 . S
O36 C30 1.255 . S
C37 O41 1.295 . S
C37 O42 1.235 . S
O38 Fe23 1.976 . S
O38 C32 1.287 . S
O39 Fe25 1.996 . S
O39 C32 1.255 . S
C40 O33 1.287 . S
C40 O34 1.255 . S
O41 Fe23 2.002 . S
O41 C37 1.295 . S
O42 Fe25 1.997 . S
O42 C37 1.235 . S
C43 O26 1.295 . S
C43 O27 1.235 . S
Fe44 O46 1.918 . S
Fe44 O49 1.997 . S
Fe44 O50 2.002 . S
Fe44 O55 1.976 . S
Fe44 O58 1.996 . S
Fe45 O46 1.918 . S
Fe45 O53 1.997 1_554 S
Fe45 O56 1.996 . S
Fe45 O60 1.976 . S
Fe45 O63 2.002 1_554 S
O46 Fe44 1.918 . S
O46 Fe45 1.918 . S
O46 Fe47 1.918 . S
Fe47 O46 1.918 . S
Fe47 O48 2.002 1_554 S
Fe47 O57 1.976 . S
Fe47 O61 1.996 . S
Fe47 O64 1.997 1_554 S
O48 Fe47 2.002 1_556 S
O48 C65 1.295 . S
O49 Fe44 1.997 . S
O49 C65 1.235 1_554 S
O50 Fe44 2.002 . S
O50 C51 1.295 1_554 S
C51 O50 1.295 1_556 S
C51 O53 1.235 . S
C52 O57 1.287 . S
C52 O58 1.255 . S
O53 Fe45 1.997 1_556 S
O53 C51 1.235 . S
C54 O60 1.287 . S
C54 O61 1.255 . S
O55 Fe44 1.976 . S
O55 C62 1.287 . S
O56 Fe45 1.996 . S
O56 C62 1.255 . S
O57 Fe47 1.976 . S
O57 C52 1.287 . S
O58 Fe44 1.996 . S
O58 C52 1.255 . S
C59 O63 1.295 . S
C59 O64 1.235 . S
O60 Fe45 1.976 . S
O60 C54 1.287 . S
O61 Fe47 1.996 . S
O61 C54 1.255 . S
C62 O55 1.287 . S
C62 O56 1.255 . S
O63 Fe45 2.002 1_556 S
O63 C59 1.295 . S
O64 Fe47 1.997 1_556 S
O64 C59 1.235 . S
C65 O48 1.295 . S
C65 O49 1.235 1_556 S
Fe66 O68 1.918 . S
Fe66 O71 1.997 . S
Fe66 O72 2.002 . S
Fe66 O77 1.976 . S
Fe66 O80 1.996 . S
Fe67 O68 1.918 . S
Fe67 O75 1.997 . S
Fe67 O78 1.996 . S
Fe67 O82 1.976 . S
Fe67 O85 2.002 . S
O68 Fe66 1.918 . S
O68 Fe67 1.918 . S
O68 Fe69 1.918 . S
Fe69 O68 1.918 . S
Fe69 O70 2.002 . S
Fe69 O79 1.976 . S
Fe69 O83 1.996 . S
Fe69 O86 1.997 . S
O70 Fe69 2.002 . S
O70 C87 1.295 . S
O71 Fe66 1.997 . S
O71 C87 1.235 . S
O72 Fe66 2.002 . S
O72 C73 1.295 . S
C73 O72 1.295 . S
C73 O75 1.235 . S
C74 O79 1.287 . S
C74 O80 1.255 . S
O75 Fe67 1.997 . S
O75 C73 1.235 . S
C76 O82 1.287 . S
C76 O83 1.255 . S
O77 Fe66 1.976 . S
O77 C84 1.287 . S
O78 Fe67 1.996 . S
O78 C84 1.255 . S
O79 Fe69 1.976 . S
O79 C74 1.287 . S
O80 Fe66 1.996 . S
O80 C74 1.255 . S
C81 O85 1.295 . S
C81 O86 1.235 . S
O82 Fe67 1.976 . S
O82 C76 1.287 . S
O83 Fe69 1.996 . S
O83 C76 1.255 . S
C84 O77 1.287 . S
C84 O78 1.255 . S
O85 Fe67 2.002 . S
O85 C81 1.295 . S
O86 Fe69 1.997 . S
O86 C81 1.235 . S
C87 O70 1.295 . S
C87 O71 1.235 . S
H88 C95 0.929 . S
H89 C98 0.930 . S
H90 C100 0.929 . S
H91 C92 0.969 . S
C92 H91 0.969 . S
C92 O93 1.550 . S
C92 H94 0.973 . S
O93 C92 1.550 . S
O93 C99 1.412 . S
H94 C92 0.973 . S
C95 H88 0.929 . S
C95 C96 1.400 . S
C95 C97 1.364 . S
C96 C95 1.400 . S
C96 C100 1.377 . S
C97 C95 1.364 . S
C97 C98 1.374 . S
C98 H89 0.930 . S
C98 C97 1.374 . S
C98 C99 1.383 . S
C99 O93 1.412 . S
C99 C98 1.383 . S
C99 C100 1.394 . S
C100 H90 0.929 . S
C100 C96 1.377 . S
C100 C99 1.394 . S
H101 C108 0.929 . S
H102 C111 0.930 . S
H103 C113 0.929 . S
H104 C105 0.969 . S
C105 H104 0.969 . S
C105 O106 1.550 . S
C105 H107 0.973 . S
O106 C105 1.550 . S
O106 C112 1.412 . S
H107 C105 0.973 . S
C108 H101 0.929 . S
C108 C109 1.400 . S
C108 C110 1.364 . S
C109 C108 1.400 . S
C109 C113 1.377 . S
C110 C108 1.364 . S
C110 C111 1.374 . S
C111 H102 0.930 . S
C111 C110 1.374 . S
C111 C112 1.383 . S
C112 O106 1.412 . S
C112 C111 1.383 . S
C112 C113 1.394 . S
C113 H103 0.929 . S
C113 C109 1.377 . S
C113 C112 1.394 . S
H114 C121 0.929 . S
H115 C124 0.930 . S
H116 C126 0.929 . S
H117 C118 0.969 . S
C118 H117 0.969 . S
C118 O119 1.550 . S
C118 H120 0.973 . S
O119 C118 1.550 . S
O119 C125 1.412 . S
H120 C118 0.973 . S
C121 H114 0.929 . S
C121 C122 1.400 . S
C121 C123 1.364 . S
C122 C121 1.400 . S
C122 C126 1.377 . S
C123 C121 1.364 . S
C123 C124 1.374 . S
C124 H115 0.930 . S
C124 C123 1.374 . S
C124 C125 1.383 . S
C125 O119 1.412 . S
C125 C124 1.383 . S
C125 C126 1.394 . S
C126 H116 0.929 . S
C126 C122 1.377 . S
C126 C125 1.394 . S
H127 C134 0.929 . S
H128 C137 0.930 . S
H129 C139 0.929 . S
H130 C131 0.969 . S
C131 H130 0.969 . S
C131 O132 1.550 . S
C131 H133 0.973 . S
O132 C131 1.550 . S
O132 C138 1.412 . S
H133 C131 0.973 . S
C134 H127 0.929 . S
C134 C135 1.400 . S
C134 C136 1.364 . S
C135 C134 1.400 . S
C135 C139 1.377 . S
C136 C134 1.364 . S
C136 C137 1.374 . S
C137 H128 0.930 . S
C137 C136 1.374 . S
C137 C138 1.383 . S
C138 O132 1.412 . S
C138 C137 1.383 . S
C138 C139 1.394 . S
C139 H129 0.929 . S
C139 C135 1.377 . S
C139 C138 1.394 . S
H140 C147 0.929 . S
H141 C150 0.930 . S
H142 C152 0.929 . S
H143 C144 0.969 . S
C144 H143 0.969 . S
C144 O145 1.550 . S
C144 H146 0.973 . S
O145 C144 1.550 . S
O145 C151 1.412 . S
H146 C144 0.973 . S
C147 H140 0.929 . S
C147 C148 1.400 . S
C147 C149 1.364 . S
C148 C147 1.400 . S
C148 C152 1.377 . S
C149 C147 1.364 . S
C149 C150 1.374 . S
C150 H141 0.930 . S
C150 C149 1.374 . S
C150 C151 1.383 . S
C151 O145 1.412 . S
C151 C150 1.383 . S
C151 C152 1.394 . S
C152 H142 0.929 . S
C152 C148 1.377 . S
C152 C151 1.394 . S
H153 C160 0.929 . S
H154 C163 0.930 . S
H155 C165 0.929 . S
H156 C157 0.969 . S
C157 H156 0.969 . S
C157 O158 1.550 . S
C157 H159 0.973 . S
O158 C157 1.550 . S
O158 C164 1.412 . S
H159 C157 0.973 . S
C160 H153 0.929 . S
C160 C161 1.400 . S
C160 C162 1.364 . S
C161 C160 1.400 . S
C161 C165 1.377 . S
C162 C160 1.364 . S
C162 C163 1.374 . S
C163 H154 0.930 . S
C163 C162 1.374 . S
C163 C164 1.383 . S
C164 O158 1.412 . S
C164 C163 1.383 . S
C164 C165 1.394 . S
C165 H155 0.929 . S
C165 C161 1.377 . S
C165 C164 1.394 . S
H166 C173 0.929 . S
H167 C176 0.930 . S
H168 C178 0.929 . S
H169 C170 0.969 . S
C170 H169 0.969 . S
C170 O171 1.550 . S
C170 H172 0.973 . S
O171 C170 1.550 . S
O171 C177 1.412 . S
H172 C170 0.973 . S
C173 H166 0.929 . S
C173 C174 1.400 . S
C173 C175 1.364 . S
C174 C173 1.400 . S
C174 C178 1.377 . S
C175 C173 1.364 . S
C175 C176 1.374 . S
C176 H167 0.930 . S
C176 C175 1.374 . S
C176 C177 1.383 . S
C177 O171 1.412 . S
C177 C176 1.383 . S
C177 C178 1.394 . S
C178 H168 0.929 . S
C178 C174 1.377 . S
C178 C177 1.394 . S
H179 C186 0.929 . S
H180 C189 0.930 . S
H181 C191 0.929 . S
H182 C183 0.969 . S
C183 H182 0.969 . S
C183 O184 1.550 . S
C183 H185 0.973 . S
O184 C183 1.550 . S
O184 C190 1.412 . S
H185 C183 0.973 . S
C186 H179 0.929 . S
C186 C187 1.400 . S
C186 C188 1.364 . S
C187 C186 1.400 . S
C187 C191 1.377 . S
C188 C186 1.364 . S
C188 C189 1.374 . S
C189 H180 0.930 . S
C189 C188 1.374 . S
C189 C190 1.383 . S
C190 O184 1.412 . S
C190 C189 1.383 . S
C190 C191 1.394 . S
C191 H181 0.929 . S
C191 C187 1.377 . S
C191 C190 1.394 . S
C192 C193 1.387 . S
C192 H196 0.950 . S
C192 C201 1.390 . S
C193 C192 1.387 . S
C193 C195 1.387 . S
H194 C201 0.950 . S
C195 C193 1.387 . S
C195 C197 1.390 1_565 S
C195 H199 0.950 . S
H196 C192 0.950 . S
C197 C195 1.390 1_545 S
C197 C198 1.387 . S
C197 H200 0.950 . S
C198 C197 1.387 . S
C198 C201 1.387 1_545 S
H199 C195 0.950 . S
H200 C197 0.950 . S
C201 C192 1.390 . S
C201 H194 0.950 . S
C201 C198 1.387 1_565 S
C202 C203 1.387 . S
C202 H206 0.950 . S
C202 C211 1.390 . S
C203 C202 1.387 . S
C203 C205 1.387 . S
H204 C211 0.950 . S
C205 C203 1.387 . S
C205 C207 1.390 . S
C205 H209 0.950 . S
H206 C202 0.950 . S
C207 C205 1.390 . S
C207 C208 1.387 . S
C207 H210 0.950 . S
C208 C207 1.387 . S
C208 C211 1.387 . S
H209 C205 0.950 . S
H210 C207 0.950 . S
C211 C202 1.390 . S
C211 H204 0.950 . S
C211 C208 1.387 . S
C212 C213 1.387 . S
C212 H216 0.950 1_565 S
C212 C221 1.390 . S
C213 C212 1.387 . S
C213 C215 1.387 . S
H214 C221 0.950 . S
C215 C213 1.387 . S
C215 C217 1.390 . S
C215 H219 0.950 . S
H216 C212 0.950 1_545 S
C217 C215 1.390 . S
C217 C218 1.387 . S
C217 H220 0.950 . S
C218 C217 1.387 . S
C218 C221 1.387 . S
H219 C215 0.950 . S
H220 C217 0.950 . S
C221 C212 1.390 . S
C221 H214 0.950 . S
C221 C218 1.387 . S
C222 C223 1.387 . S
C222 H226 0.950 . S
C222 C231 1.390 . S
C223 C222 1.387 . S
C223 C225 1.387 . S
H224 C231 0.950 . S
C225 C223 1.387 . S
C225 C227 1.390 . S
C225 H229 0.950 . S
H226 C222 0.950 . S
C227 C225 1.390 . S
C227 C228 1.387 . S
C227 H230 0.950 . S
C228 C227 1.387 . S
C228 C231 1.387 . S
H229 C225 0.950 . S
H230 C227 0.950 . S
C231 C222 1.390 . S
C231 H224 0.950 . S
C231 C228 1.387 . S
C232 C233 1.387 . S
C232 H236 0.950 . S
C232 C241 1.390 . S
C233 C232 1.387 . S
C233 C235 1.387 . S
H234 C241 0.950 . S
C235 C233 1.387 . S
C235 C237 1.390 . S
C235 H239 0.950 . S
H236 C232 0.950 . S
C237 C235 1.390 . S
C237 C238 1.387 . S
C237 H240 0.950 . S
C238 C237 1.387 . S
C238 C241 1.387 . S
H239 C235 0.950 . S
H240 C237 0.950 . S
C241 C232 1.390 . S
C241 H234 0.950 . S
C241 C238 1.387 . S
C242 C243 1.387 . S
C242 H246 0.950 . S
C242 C251 1.390 . S
C243 C242 1.387 . S
C243 C245 1.387 . S
H244 C251 0.950 . S
C245 C243 1.387 . S
C245 C247 1.390 . S
C245 H249 0.950 1_556 S
H246 C242 0.950 . S
C247 C245 1.390 . S
C247 C248 1.387 . S
C247 H250 0.950 . S
C248 C247 1.387 . S
C248 C251 1.387 . S
H249 C245 0.950 1_554 S
H250 C247 0.950 . S
C251 C242 1.390 . S
C251 H244 0.950 . S
C251 C248 1.387 . S
C252 C253 1.387 . S
C252 H256 0.950 . S
C252 C261 1.390 . S
C253 C252 1.387 . S
C253 C255 1.387 . S
H254 C261 0.950 . S
C255 C253 1.387 . S
C255 C257 1.390 . S
C255 H259 0.950 . S
H256 C252 0.950 . S
C257 C255 1.390 . S
C257 C258 1.387 . S
C257 H260 0.950 . S
C258 C257 1.387 . S
C258 C261 1.387 . S
H259 C255 0.950 . S
H260 C257 0.950 . S
C261 C252 1.390 . S
C261 H254 0.950 . S
C261 C258 1.387 . S
C262 C263 1.388 . S
C262 H266 0.955 . S
C262 C271 1.390 . S
C263 C262 1.388 . S
C263 C265 1.389 . S
H264 C271 0.950 . S
C265 C263 1.389 . S
C265 C267 1.390 . S
C265 H269 0.950 . S
H266 C262 0.955 . S
C267 C265 1.390 . S
C267 C268 1.387 . S
C267 H270 0.950 . S
C268 C267 1.387 . S
C268 C271 1.387 . S
H269 C265 0.950 . S
H270 C267 0.950 . S
C271 C262 1.390 . S
C271 H264 0.950 . S
C271 C268 1.387 . S
C272 C273 1.387 . S
C272 H276 0.950 . S
C272 C281 1.390 . S
C273 C272 1.387 . S
C273 C275 1.387 . S
H274 C281 0.950 . S
C275 C273 1.387 . S
C275 C277 1.390 1_545 S
C275 H279 0.950 1_545 S
H276 C272 0.950 . S
C277 C275 1.390 1_565 S
C277 C278 1.387 . S
C277 H280 0.950 . S
C278 C277 1.387 . S
C278 C281 1.387 1_565 S
H279 C275 0.950 1_565 S
H280 C277 0.950 . S
C281 C272 1.390 . S
C281 H274 0.950 . S
C281 C278 1.387 1_545 S
C282 C283 1.387 . S
C282 H286 0.950 . S
C282 C291 1.390 . S
C283 C282 1.387 . S
C283 C285 1.387 . S
H284 C291 0.950 . S
C285 C283 1.387 . S
C285 C287 1.390 . S
C285 H289 0.950 . S
H286 C282 0.950 . S
C287 C285 1.390 . S
C287 C288 1.387 . S
C287 H290 0.950 . S
C288 C287 1.387 . S
C288 C291 1.387 . S
H289 C285 0.950 . S
H290 C287 0.950 . S
C291 C282 1.390 . S
C291 H284 0.950 . S
C291 C288 1.387 . S
C292 C293 1.388 1_545 S
C292 H296 0.950 1_545 S
C292 C301 1.390 . S
C293 C292 1.388 1_565 S
C293 C295 1.389 1_565 S
H294 C301 0.950 . S
C295 C293 1.389 1_545 S
C295 C297 1.390 . S
C295 H299 0.950 1_556 S
H296 C292 0.950 1_565 S
C297 C295 1.390 . S
C297 C298 1.387 . S
C297 H300 0.950 . S
C298 C297 1.387 . S
C298 C301 1.387 . S
H299 C295 0.950 1_554 S
H300 C297 0.950 . S
C301 C292 1.390 . S
C301 H294 0.950 . S
C301 C298 1.387 . S
C302 C303 1.387 . S
C302 H306 0.950 . S
C302 C311 1.390 . S
C303 C302 1.387 . S
C303 C305 1.387 . S
H304 C311 0.950 . S
C305 C303 1.387 . S
C305 C307 1.390 . S
C305 H309 0.950 . S
H306 C302 0.950 . S
C307 C305 1.390 . S
C307 C308 1.387 . S
C307 H310 0.950 . S
C308 C307 1.387 . S
C308 C311 1.387 . S
H309 C305 0.950 . S
H310 C307 0.950 . S
C311 C302 1.390 . S
C311 H304 0.950 . S
C311 C308 1.387 . S
C312 C313 1.387 . S
C312 H316 0.950 . S
C312 C321 1.390 . S
C313 C312 1.387 . S
C313 C315 1.387 . S
H314 C321 0.950 . S
C315 C313 1.387 . S
C315 C317 1.390 . S
C315 H319 0.950 . S
H316 C312 0.950 . S
C317 C315 1.390 . S
C317 C318 1.387 . S
C317 H320 0.950 . S
C318 C317 1.387 . S
C318 C321 1.387 . S
H319 C315 0.950 . S
H320 C317 0.950 . S
C321 C312 1.390 . S
C321 H314 0.950 . S
C321 C318 1.387 . S
C322 C323 1.386 1_655 S
C322 H326 0.950 1_655 S
C322 C331 1.390 . S
C323 C322 1.386 1_455 S
C323 C325 1.383 1_455 S
H324 C331 0.950 . S
C325 C323 1.383 1_655 S
C325 C327 1.390 . S
C325 H329 0.950 . S
H326 C322 0.950 1_455 S
C327 C325 1.390 . S
C327 C328 1.387 . S
C327 H330 0.950 . S
C328 C327 1.387 . S
C328 C331 1.387 . S
H329 C325 0.950 . S
H330 C327 0.950 . S
C331 C322 1.390 . S
C331 H324 0.950 . S
C331 C328 1.387 . S
C332 C333 1.387 . S
C332 H336 0.950 . S
C332 C341 1.390 . S
C333 C332 1.387 . S
C333 C335 1.387 . S
H334 C341 0.950 . S
C335 C333 1.387 . S
C335 C337 1.390 . S
C335 H339 0.950 . S
H336 C332 0.950 . S
C337 C335 1.390 . S
C337 C338 1.387 . S
C337 H340 0.950 . S
C338 C337 1.387 . S
C338 C341 1.387 . S
H339 C335 0.950 . S
H340 C337 0.950 . S
C341 C332 1.390 . S
C341 H334 0.950 . S
C341 C338 1.387 . S
C342 C343 1.387 . S
C342 H346 0.950 . S
C342 C351 1.390 . S
C343 C342 1.387 . S
C343 C345 1.387 . S
H344 C351 0.950 . S
C345 C343 1.387 . S
C345 C347 1.390 . S
C345 H349 0.950 1_455 S
H346 C342 0.950 . S
C347 C345 1.390 . S
C347 C348 1.387 . S
C347 H350 0.950 . S
C348 C347 1.387 . S
C348 C351 1.387 . S
H349 C345 0.950 1_655 S
H350 C347 0.950 . S
C351 C342 1.390 . S
C351 H344 0.950 . S
C351 C348 1.387 . S
C352 C353 1.387 . S
C352 H356 0.950 . S
C352 C361 1.390 . S
C353 C352 1.387 . S
C353 C355 1.387 . S
H354 C361 0.950 . S
C355 C353 1.387 . S
C355 C357 1.390 . S
C355 H359 0.950 . S
H356 C352 0.950 . S
C357 C355 1.390 . S
C357 C358 1.387 . S
C357 H360 0.950 . S
C358 C357 1.387 . S
C358 C361 1.387 . S
H359 C355 0.950 . S
H360 C357 0.950 . S
C361 C352 1.390 . S
C361 H354 0.950 . S
C361 C358 1.387 . S
C362 C363 1.387 . S
C362 H366 0.950 . S
C362 C371 1.390 . S
C363 C362 1.387 . S
C363 C365 1.387 . S
H364 C371 0.950 . S
C365 C363 1.387 . S
C365 C367 1.390 . S
C365 H369 0.950 . S
H366 C362 0.950 . S
C367 C365 1.390 . S
C367 C368 1.387 . S
C367 H370 0.950 . S
C368 C367 1.387 . S
C368 C371 1.387 . S
H369 C365 0.950 . S
H370 C367 0.950 . S
C371 C362 1.390 . S
C371 H364 0.950 . S
C371 C368 1.387 . S
C372 C373 1.387 . S
C372 H376 0.950 . S
C372 C381 1.390 . S
C373 C372 1.387 . S
C373 C375 1.387 . S
H374 C381 0.950 . S
C375 C373 1.387 . S
C375 C377 1.390 . S
C375 H379 0.950 . S
H376 C372 0.950 . S
C377 C375 1.390 . S
C377 C378 1.387 . S
C377 H380 0.950 . S
C378 C377 1.387 . S
C378 C381 1.387 . S
H379 C375 0.950 . S
H380 C377 0.950 . S
C381 C372 1.390 . S
C381 H374 0.950 . S
C381 C378 1.387 . S
C382 C383 1.387 . S
C382 H386 0.950 . S
C382 C391 1.390 . S
C383 C382 1.387 . S
C383 C385 1.387 . S
H384 C391 0.950 . S
C385 C383 1.387 . S
C385 C387 1.390 . S
C385 H389 0.950 . S
H386 C382 0.950 . S
C387 C385 1.390 . S
C387 C388 1.387 . S
C387 H390 0.950 . S
C388 C387 1.387 . S
C388 C391 1.387 . S
H389 C385 0.950 . S
H390 C387 0.950 . S
C391 C382 1.390 . S
C391 H384 0.950 . S
C391 C388 1.387 . S
C392 C393 1.387 . S
C392 H396 0.950 . S
C392 C401 1.390 . S
C393 C392 1.387 . S
C393 C395 1.387 . S
H394 C401 0.950 . S
C395 C393 1.387 . S
C395 C397 1.390 . S
C395 H399 0.950 . S
H396 C392 0.950 . S
C397 C395 1.390 . S
C397 C398 1.387 . S
C397 H400 0.950 . S
C398 C397 1.387 . S
C398 C401 1.387 . S
H399 C395 0.950 . S
H400 C397 0.950 . S
C401 C392 1.390 . S
C401 H394 0.950 . S
C401 C398 1.387 . S
C402 C403 1.387 . S
C402 H406 0.950 1_556 S
C402 C411 1.390 . S
C403 C402 1.387 . S
C403 C405 1.387 . S
H404 C411 0.950 . S
C405 C403 1.387 . S
C405 C407 1.390 . S
C405 H409 0.950 . S
H406 C402 0.950 1_554 S
C407 C405 1.390 . S
C407 C408 1.387 . S
C407 H410 0.950 . S
C408 C407 1.387 . S
C408 C411 1.387 . S
H409 C405 0.950 . S
H410 C407 0.950 . S
C411 C402 1.390 . S
C411 H404 0.950 . S
C411 C408 1.387 . S
C412 C413 1.387 . S
C412 H416 0.950 . S
C412 C421 1.390 . S
C413 C412 1.387 . S
C413 C415 1.387 . S
H414 C421 0.950 . S
C415 C413 1.387 . S
C415 C417 1.390 . S
C415 H419 0.950 . S
H416 C412 0.950 . S
C417 C415 1.390 . S
C417 C418 1.387 . S
C417 H420 0.950 . S
C418 C417 1.387 . S
C418 C421 1.387 . S
H419 C415 0.950 . S
H420 C417 0.950 . S
C421 C412 1.390 . S
C421 H414 0.950 . S
C421 C418 1.387 . S
C422 C423 1.387 . S
C422 H426 0.950 . S
C422 C431 1.390 . S
C423 C422 1.387 . S
C423 C425 1.387 . S
H424 C431 0.950 . S
C425 C423 1.387 . S
C425 C427 1.390 . S
C425 H429 0.950 . S
H426 C422 0.950 . S
C427 C425 1.390 . S
C427 C428 1.387 . S
C427 H430 0.950 . S
C428 C427 1.387 . S
C428 C431 1.387 . S
H429 C425 0.950 . S
H430 C427 0.950 . S
C431 C422 1.390 . S
C431 H424 0.950 . S
C431 C428 1.387 . S
C193 C7 1.416 . S
C198 C96 1.354 . S
C203 C37 1.284 . S
C208 C109 1.262 . S
C213 C54 1.469 1_565 S
C218 C123 1.423 . S
C228 C136 1.407 . S
C223 C87 1.446 . S
C238 C148 1.308 . S
C233 C30 1.324 . S
C243 C51 1.513 1_455 S
C248 C162 1.437 . S
C253 C84 1.355 . S
C258 C174 1.292 . S
C263 C10 1.422 1_655 S
C268 C188 1.380 . S
C273 C59 1.389 . S
C278 C187 1.329 . S
C288 C149 1.394 . S
C283 C74 1.487 . S
C298 C161 1.335 . S
C293 C18 1.340 . S
C303 C32 1.426 . S
C308 C175 1.391 . S
C318 C110 1.460 . S
C313 C73 1.487 . S
C323 C15 1.315 . S
C328 C122 1.286 . S
C338 C135 1.363 . S
C333 C43 1.420 . S
C348 C97 1.387 . S
C343 C62 1.425 1_455 S
C358 C170 1.343 . S
C353 C21 1.395 . S
C368 C183 1.314 . S
C363 C29 1.420 . S
C373 C52 1.477 . S
C378 C144 1.408 . S
C388 C157 1.490 . S
C383 C81 1.502 . S
C398 C118 1.393 . S
C393 C40 1.426 . S
C403 C65 1.458 . S
C408 C131 1.355 . S
C418 C92 1.388 . S
C413 C76 1.450 . S
C428 C105 1.329 . S
C423 C8 1.421 . S
