# Generated by pormake.
# Topology pto, (3,4)-cn, num edge types: 1
# Building blocks:
#     Node 0, Type 0, BuildingBlock: WUSLED_clean_sbu_0, # of connection points: 3
#     Node 1, Type 0, BuildingBlock: WUSLED_clean_sbu_0, # of connection points: 3
#     Node 2, Type 0, BuildingBlock: WUSLED_clean_sbu_0, # of connection points: 3
#     Node 3, Type 0, BuildingBlock: WUSLED_clean_sbu_0, # of connection points: 3
#     Node 4, Type 0, BuildingBlock: WUSLED_clean_sbu_0, # of connection points: 3
#     Node 5, Type 0, BuildingBlock: WUSLED_clean_sbu_0, # of connection points: 3
#     Node 6, Type 0, BuildingBlock: WUSLED_clean_sbu_0, # of connection points: 3
#     Node 7, Type 0, BuildingBlock: WUSLED_clean_sbu_0, # of connection points: 3
#     Node 8, Type 1, BuildingBlock: NAWXER_clean_linker_0, # of connection points: 4
#     Node 9, Type 1, BuildingBlock: NAWXER_clean_linker_0, # of connection points: 4
#     Node 10, Type 1, BuildingBlock: NAWXER_clean_linker_0, # of connection points: 4
#     Node 11, Type 1, BuildingBlock: NAWXER_clean_linker_0, # of connection points: 4
#     Node 12, Type 1, BuildingBlock: NAWXER_clean_linker_0, # of connection points: 4
#     Node 13, Type 1, BuildingBlock: NAWXER_clean_linker_0, # of connection points: 4
#     Edge 14, Type (0, 1), BuildingBlock: MIFKUJ_clean_linker_0, # of connection points: 2
#     Edge 15, Type (0, 1), BuildingBlock: MIFKUJ_clean_linker_0, # of connection points: 2
#     Edge 16, Type (0, 1), BuildingBlock: MIFKUJ_clean_linker_0, # of connection points: 2
#     Edge 17, Type (0, 1), BuildingBlock: MIFKUJ_clean_linker_0, # of connection points: 2
#     Edge 18, Type (0, 1), BuildingBlock: MIFKUJ_clean_linker_0, # of connection points: 2
#     Edge 19, Type (0, 1), BuildingBlock: MIFKUJ_clean_linker_0, # of connection points: 2
#     Edge 20, Type (0, 1), BuildingBlock: MIFKUJ_clean_linker_0, # of connection points: 2
#     Edge 21, Type (0, 1), BuildingBlock: MIFKUJ_clean_linker_0, # of connection points: 2
#     Edge 22, Type (0, 1), BuildingBlock: MIFKUJ_clean_linker_0, # of connection points: 2
#     Edge 23, Type (0, 1), BuildingBlock: MIFKUJ_clean_linker_0, # of connection points: 2
#     Edge 24, Type (0, 1), BuildingBlock: MIFKUJ_clean_linker_0, # of connection points: 2
#     Edge 25, Type (0, 1), BuildingBlock: MIFKUJ_clean_linker_0, # of connection points: 2
#     Edge 26, Type (0, 1), BuildingBlock: MIFKUJ_clean_linker_0, # of connection points: 2
#     Edge 27, Type (0, 1), BuildingBlock: MIFKUJ_clean_linker_0, # of connection points: 2
#     Edge 28, Type (0, 1), BuildingBlock: MIFKUJ_clean_linker_0, # of connection points: 2
#     Edge 29, Type (0, 1), BuildingBlock: MIFKUJ_clean_linker_0, # of connection points: 2
#     Edge 30, Type (0, 1), BuildingBlock: MIFKUJ_clean_linker_0, # of connection points: 2
#     Edge 31, Type (0, 1), BuildingBlock: MIFKUJ_clean_linker_0, # of connection points: 2
#     Edge 32, Type (0, 1), BuildingBlock: MIFKUJ_clean_linker_0, # of connection points: 2
#     Edge 33, Type (0, 1), BuildingBlock: MIFKUJ_clean_linker_0, # of connection points: 2
#     Edge 34, Type (0, 1), BuildingBlock: MIFKUJ_clean_linker_0, # of connection points: 2
#     Edge 35, Type (0, 1), BuildingBlock: MIFKUJ_clean_linker_0, # of connection points: 2
#     Edge 36, Type (0, 1), BuildingBlock: MIFKUJ_clean_linker_0, # of connection points: 2
#     Edge 37, Type (0, 1), BuildingBlock: MIFKUJ_clean_linker_0, # of connection points: 2
# Relax obj value: 0.000
# Max RMSD: 0.010
# Mean RMSD: 0.005
data_MOF--net-pto--node1-WUSLED_clean_sbu_0--node2-NAWXER_clean_linker_0--edge1-MIFKUJ_clean_linker_0
_symmetry_space_group_name_H-M    P1
_symmetry_Int_Tables_number       1
_symmetry_cell_setting            triclinic
loop_
_symmetry_equiv_pos_as_xyz
'x, y, z'
_cell_length_a     62.952861
_cell_length_b     85.352715
_cell_length_c     74.125836
_cell_angle_alpha  89.549742
_cell_angle_beta   90.583705
_cell_angle_gamma 90.509064
loop_
_atom_site_label
_atom_site_type_symbol
_atom_site_fract_x
_atom_site_fract_y
_atom_site_fract_z
_atom_type_partial_charge
C0 C 0.23816 0.23396 0.33398 0.0
C1 C 0.25213 0.22203 0.32914 0.0
C2 C 0.24113 0.20642 0.3552 0.0
C3 C 0.25361 0.20837 0.33966 0.0
C4 C 0.22725 0.21851 0.35998 0.0
C5 C 0.22579 0.23214 0.34946 0.0
U6 U 0.25454 0.2599 0.2941 0.0
O7 O 0.23478 0.27385 0.27543 0.0
O8 O 0.25881 0.28547 0.29244 0.0
C9 C 0.243 0.28722 0.2809 0.0
C10 C 0.23619 0.24833 0.32302 0.0
C11 C 0.22769 0.2995 0.28529 0.0
C12 C 0.20068 0.31039 0.30466 0.0
C13 C 0.21484 0.29836 0.30062 0.0
C14 C 0.21203 0.32469 0.27803 0.0
C15 C 0.19921 0.32376 0.29346 0.0
C16 C 0.22612 0.31268 0.27402 0.0
C17 C 0.29834 0.24663 0.2624 0.0
C18 C 0.30518 0.25832 0.23297 0.0
C19 C 0.33097 0.24086 0.24664 0.0
C20 C 0.31786 0.23892 0.26162 0.0
C21 C 0.32475 0.25051 0.23209 0.0
C22 C 0.29213 0.25645 0.24804 0.0
C23 C 0.28471 0.24423 0.27823 0.0
O24 O 0.25258 0.25797 0.32367 0.0
O25 O 0.2286 0.24638 0.3066 0.0
O26 O 0.26437 0.24201 0.2748 0.0
O27 O 0.28831 0.25377 0.29177 0.0
H28 H 0.26178 0.22325 0.31718 0.0
H29 H 0.26429 0.19924 0.33547 0.0
H30 H 0.21765 0.21753 0.37199 0.0
H31 H 0.21498 0.24127 0.35343 0.0
H32 H 0.19119 0.30936 0.31672 0.0
H33 H 0.21589 0.28824 0.30949 0.0
H34 H 0.21106 0.33466 0.26895 0.0
H35 H 0.23586 0.31372 0.26209 0.0
H36 H 0.30005 0.26598 0.22209 0.0
H37 H 0.34582 0.23455 0.2463 0.0
H38 H 0.32292 0.23131 0.27259 0.0
H39 H 0.27718 0.26261 0.24845 0.0
C40 C 0.24145 0.7897 0.68677 0.0
C41 C 0.25302 0.80256 0.69347 0.0
C42 C 0.24538 0.81741 0.66593 0.0
C43 C 0.25492 0.81632 0.68316 0.0
C44 C 0.23384 0.80443 0.65932 0.0
C45 C 0.2319 0.79073 0.66966 0.0
U46 U 0.25669 0.76331 0.72673 0.0
O47 O 0.23671 0.74833 0.74399 0.0
O48 O 0.26162 0.73778 0.72764 0.0
C49 C 0.24543 0.73533 0.73839 0.0
C50 C 0.23931 0.77511 0.69731 0.0
C51 C 0.23063 0.7227 0.73305 0.0
C52 C 0.19843 0.71349 0.71796 0.0
C53 C 0.21265 0.72566 0.72223 0.0
C54 C 0.22027 0.69526 0.73494 0.0
C55 C 0.20205 0.69814 0.72432 0.0
C56 C 0.23438 0.70742 0.73927 0.0
C57 C 0.2988 0.77693 0.76122 0.0
C58 C 0.32654 0.76319 0.77799 0.0
C59 C 0.30972 0.78576 0.79109 0.0
C60 C 0.29697 0.78739 0.77564 0.0
C61 C 0.32476 0.77371 0.7924 0.0
C62 C 0.31366 0.76475 0.76259 0.0
C63 C 0.28561 0.77927 0.74476 0.0
O64 O 0.25591 0.76588 0.69717 0.0
O65 O 0.23101 0.77651 0.71341 0.0
O66 O 0.26511 0.78085 0.74732 0.0
O67 O 0.28999 0.77051 0.73078 0.0
H68 H 0.26061 0.80193 0.70664 0.0
H69 H 0.2641 0.82603 0.68857 0.0
H70 H 0.22605 0.80494 0.64624 0.0
H71 H 0.22289 0.78091 0.66428 0.0
H72 H 0.18467 0.71607 0.7096 0.0
H73 H 0.20954 0.73739 0.71722 0.0
H74 H 0.22339 0.68365 0.74027 0.0
H75 H 0.24815 0.70492 0.74766 0.0
H76 H 0.33782 0.75369 0.77867 0.0
H77 H 0.30813 0.79415 0.80187 0.0
H78 H 0.28577 0.79694 0.77488 0.0
H79 H 0.31547 0.75645 0.75175 0.0
C80 C 0.72647 0.77949 0.26556 0.0
C81 C 0.73034 0.76786 0.25275 0.0
C82 C 0.6998 0.77649 0.23487 0.0
C83 C 0.71714 0.76638 0.23753 0.0
C84 C 0.69592 0.78801 0.24791 0.0
C85 C 0.70915 0.78948 0.26308 0.0
U86 U 0.7702 0.76482 0.29738 0.0
O87 O 0.79692 0.77766 0.30992 0.0
O88 O 0.77293 0.76626 0.32694 0.0
C89 C 0.78959 0.77564 0.32632 0.0
C90 C 0.74036 0.7814 0.28148 0.0
C91 C 0.78825 0.78992 0.33722 0.0
C92 C 0.77151 0.81467 0.34426 0.0
C93 C 0.77254 0.80114 0.33375 0.0
C94 C 0.80194 0.8059 0.36176 0.0
C95 C 0.78624 0.81723 0.35839 0.0
C96 C 0.80291 0.79238 0.35127 0.0
C97 C 0.79526 0.72474 0.28804 0.0
C98 C 0.82624 0.71431 0.30372 0.0
C99 C 0.807 0.69828 0.28211 0.0
C100 C 0.79281 0.71051 0.27895 0.0
C101 C 0.82401 0.70004 0.29442 0.0
C102 C 0.81197 0.72657 0.30054 0.0
C103 C 0.78033 0.73749 0.28403 0.0
O104 O 0.73665 0.7717 0.29496 0.0
O105 O 0.76069 0.78323 0.27811 0.0
O106 O 0.78888 0.75081 0.27862 0.0
O107 O 0.76499 0.73933 0.2957 0.0
H108 H 0.74365 0.76001 0.25447 0.0
H109 H 0.72074 0.7575 0.22769 0.0
H110 H 0.68253 0.79581 0.24649 0.0
H111 H 0.70586 0.79847 0.27289 0.0
H112 H 0.75938 0.82322 0.34117 0.0
H113 H 0.76112 0.79944 0.32288 0.0
H114 H 0.81333 0.80737 0.37267 0.0
H115 H 0.81511 0.78382 0.35416 0.0
H116 H 0.83924 0.7161 0.31319 0.0
H117 H 0.80454 0.68738 0.27497 0.0
H118 H 0.77992 0.70887 0.26933 0.0
H119 H 0.81408 0.7375 0.3077 0.0
C120 C 0.75903 0.2148 0.70932 0.0
C121 C 0.77529 0.21683 0.69669 0.0
C122 C 0.76658 0.19146 0.68342 0.0
C123 C 0.77903 0.20526 0.68382 0.0
C124 C 0.75023 0.18961 0.69609 0.0
C125 C 0.74652 0.20117 0.7089 0.0
U126 U 0.76935 0.25468 0.73148 0.0
O127 O 0.74636 0.2713 0.74257 0.0
O128 O 0.77071 0.26085 0.7602 0.0
C129 C 0.75337 0.26931 0.7592 0.0
C130 C 0.75483 0.2267 0.72306 0.0
C131 C 0.73701 0.26625 0.77305 0.0
C132 C 0.72365 0.25157 0.79894 0.0
C133 C 0.73869 0.25366 0.78534 0.0
C134 C 0.70468 0.27435 0.78799 0.0
C135 C 0.70654 0.26194 0.80049 0.0
C136 C 0.71981 0.27651 0.77449 0.0
C137 C 0.81165 0.28275 0.713 0.0
C138 C 0.81709 0.30908 0.72457 0.0
C139 C 0.84148 0.29859 0.70276 0.0
C140 C 0.82974 0.28461 0.70232 0.0
C141 C 0.83532 0.311 0.71389 0.0
C142 C 0.80539 0.29505 0.72416 0.0
C143 C 0.79967 0.26789 0.71244 0.0
O144 O 0.77015 0.22907 0.73493 0.0
O145 O 0.74623 0.23974 0.71707 0.0
O146 O 0.7794 0.26901 0.70824 0.0
O147 O 0.80335 0.25819 0.72594 0.0
H148 H 0.78512 0.22732 0.69684 0.0
H149 H 0.79187 0.20701 0.67438 0.0
H150 H 0.7401 0.17929 0.69599 0.0
H151 H 0.73382 0.19945 0.7185 0.0
H152 H 0.72538 0.24181 0.80825 0.0
H153 H 0.75172 0.2455 0.7846 0.0
H154 H 0.69182 0.28264 0.78895 0.0
H155 H 0.71823 0.28637 0.76529 0.0
H156 H 0.81205 0.31833 0.73344 0.0
H157 H 0.85525 0.29975 0.69419 0.0
H158 H 0.83479 0.27524 0.69362 0.0
H159 H 0.7915 0.29377 0.73259 0.0
C160 C 0.79674 0.72175 0.74001 0.0
C161 C 0.80993 0.72302 0.72491 0.0
C162 C 0.82601 0.69785 0.73243 0.0
C163 C 0.82443 0.71115 0.72113 0.0
C164 C 0.81263 0.69669 0.74749 0.0
C165 C 0.79816 0.70852 0.75123 0.0
U166 U 0.77034 0.76156 0.73141 0.0
O167 O 0.7366 0.76789 0.73366 0.0
O168 O 0.76059 0.77936 0.75086 0.0
C169 C 0.74024 0.77727 0.74735 0.0
C170 C 0.78141 0.73404 0.74435 0.0
C171 C 0.7265 0.77483 0.76312 0.0
C172 C 0.71986 0.76367 0.79286 0.0
C173 C 0.73298 0.7655 0.77783 0.0
C174 C 0.69344 0.78017 0.77848 0.0
C175 C 0.69994 0.77101 0.79337 0.0
C176 C 0.70662 0.78207 0.76353 0.0
C177 C 0.78786 0.7877 0.69191 0.0
C178 C 0.77259 0.81328 0.68571 0.0
C179 C 0.80031 0.80335 0.66657 0.0
C180 C 0.80119 0.78967 0.67704 0.0
C181 C 0.78604 0.81536 0.67079 0.0
C182 C 0.77352 0.79956 0.6962 0.0
C183 C 0.78926 0.77326 0.70281 0.0
O184 O 0.78964 0.74731 0.75011 0.0
O185 O 0.76582 0.73599 0.73264 0.0
O186 O 0.77267 0.76382 0.7019 0.0
O187 O 0.79663 0.77501 0.71933 0.0
H188 H 0.80904 0.7332 0.71611 0.0
H189 H 0.83462 0.71249 0.70952 0.0
H190 H 0.81315 0.68652 0.75631 0.0
H191 H 0.78803 0.70733 0.7629 0.0
H192 H 0.72522 0.7564 0.80402 0.0
H193 H 0.74821 0.75969 0.77773 0.0
H194 H 0.67832 0.78612 0.77852 0.0
H195 H 0.70134 0.78932 0.75231 0.0
H196 H 0.76159 0.82234 0.68946 0.0
H197 H 0.81065 0.80444 0.65504 0.0
H198 H 0.81231 0.7806 0.67351 0.0
H199 H 0.76313 0.79824 0.70769 0.0
C200 C 0.72752 0.24257 0.26482 0.0
C201 C 0.73142 0.2544 0.25198 0.0
C202 C 0.70066 0.24575 0.23426 0.0
C203 C 0.71811 0.25597 0.23682 0.0
C204 C 0.69674 0.23406 0.24734 0.0
C205 C 0.71006 0.23249 0.26244 0.0
U206 U 0.77226 0.25657 0.29629 0.0
O207 O 0.77523 0.25464 0.32582 0.0
O208 O 0.79857 0.2433 0.30859 0.0
C209 C 0.79153 0.24516 0.32506 0.0
C210 C 0.74156 0.24047 0.28063 0.0
C211 C 0.78986 0.23075 0.33601 0.0
C212 C 0.77257 0.20592 0.34319 0.0
C213 C 0.77382 0.2196 0.33267 0.0
C214 C 0.80341 0.21442 0.36044 0.0
C215 C 0.7874 0.20314 0.35719 0.0
C216 C 0.80461 0.22808 0.34995 0.0
C217 C 0.79917 0.2964 0.28694 0.0
C218 C 0.82774 0.30738 0.30535 0.0
C219 C 0.815 0.32153 0.27899 0.0
C220 C 0.80027 0.30955 0.27556 0.0
C221 C 0.82899 0.3206 0.29389 0.0
C222 C 0.81297 0.29536 0.30188 0.0
C223 C 0.78355 0.28396 0.28289 0.0
O224 O 0.76178 0.23852 0.27708 0.0
O225 O 0.7384 0.25008 0.29408 0.0
O226 O 0.76822 0.28212 0.29465 0.0
O227 O 0.79141 0.27064 0.27738 0.0
H228 H 0.74484 0.26231 0.25362 0.0
H229 H 0.72174 0.265 0.22695 0.0
H230 H 0.68327 0.22616 0.24598 0.0
H231 H 0.70675 0.22335 0.27227 0.0
H232 H 0.76019 0.19742 0.34019 0.0
H233 H 0.76234 0.22145 0.32189 0.0
H234 H 0.81489 0.21279 0.37126 0.0
H235 H 0.81707 0.23659 0.35273 0.0
H236 H 0.83838 0.30622 0.31684 0.0
H237 H 0.81524 0.33163 0.27006 0.0
H238 H 0.78967 0.31057 0.26401 0.0
H239 H 0.81234 0.28525 0.3108 0.0
C240 C 0.24131 0.23278 0.68673 0.0
C241 C 0.25554 0.22092 0.69174 0.0
C242 C 0.24398 0.20525 0.66598 0.0
C243 C 0.25688 0.20727 0.68145 0.0
C244 C 0.22983 0.21726 0.66104 0.0
C245 C 0.22852 0.23088 0.67133 0.0
U246 U 0.25809 0.2584 0.72655 0.0
O247 O 0.26263 0.28397 0.72803 0.0
O248 O 0.23873 0.27231 0.74493 0.0
C249 C 0.24706 0.28569 0.7395 0.0
C250 C 0.23952 0.24714 0.69746 0.0
C251 C 0.23187 0.29821 0.73521 0.0
C252 C 0.20107 0.3082 0.71888 0.0
C253 C 0.21567 0.29619 0.72226 0.0
C254 C 0.21893 0.32436 0.74117 0.0
C255 C 0.20243 0.3224 0.72842 0.0
C256 C 0.23347 0.31239 0.74453 0.0
C257 C 0.30147 0.24441 0.75918 0.0
C258 C 0.31065 0.25832 0.78672 0.0
C259 C 0.33087 0.23562 0.77803 0.0
C260 C 0.31808 0.23397 0.76262 0.0
C261 C 0.32726 0.24776 0.79035 0.0
C262 C 0.29787 0.25666 0.77126 0.0
C263 C 0.28796 0.24227 0.74306 0.0
O264 O 0.2319 0.24519 0.71377 0.0
O265 O 0.25604 0.25666 0.69697 0.0
O266 O 0.29174 0.25195 0.72958 0.0
O267 O 0.2676 0.24024 0.74615 0.0
H268 H 0.26552 0.22219 0.70365 0.0
H269 H 0.26778 0.19821 0.68576 0.0
H270 H 0.2199 0.21622 0.64908 0.0
H271 H 0.2175 0.23995 0.66723 0.0
H272 H 0.18847 0.30624 0.70908 0.0
H273 H 0.21422 0.2853 0.71493 0.0
H274 H 0.22071 0.33522 0.74853 0.0
H275 H 0.24594 0.31417 0.75451 0.0
H276 H 0.30727 0.2677 0.79599 0.0
H277 H 0.34371 0.22744 0.78021 0.0
H278 H 0.32114 0.22449 0.75338 0.0
H279 H 0.28509 0.26485 0.7688 0.0
C280 C 0.21428 0.73899 0.31362 0.0
C281 C 0.21877 0.72729 0.30106 0.0
C282 C 0.18997 0.71102 0.3129 0.0
C283 C 0.20674 0.7134 0.30073 0.0
C284 C 0.18561 0.72283 0.32546 0.0
C285 C 0.19766 0.73667 0.3258 0.0
U286 U 0.25676 0.76636 0.29434 0.0
O287 O 0.25684 0.79199 0.29095 0.0
O288 O 0.28096 0.7808 0.30816 0.0
C289 C 0.27268 0.79403 0.3024 0.0
C290 C 0.22667 0.75368 0.3141 0.0
C291 C 0.26952 0.80607 0.31619 0.0
C292 C 0.25168 0.81583 0.34274 0.0
C293 C 0.2545 0.80407 0.3299 0.0
C294 C 0.27888 0.8316 0.32826 0.0
C295 C 0.26378 0.82978 0.34202 0.0
C296 C 0.28169 0.81986 0.31549 0.0
C297 C 0.28646 0.75385 0.25188 0.0
C298 C 0.31578 0.76861 0.23875 0.0
C299 C 0.30152 0.7458 0.22342 0.0
C300 C 0.28684 0.74359 0.23724 0.0
C301 C 0.31616 0.75835 0.22397 0.0
C302 C 0.30099 0.7664 0.25258 0.0
C303 C 0.27073 0.75123 0.26615 0.0
O304 O 0.24702 0.75219 0.31781 0.0
O305 O 0.22288 0.76354 0.30077 0.0
O306 O 0.25411 0.76043 0.26556 0.0
O307 O 0.27845 0.74925 0.28255 0.0
H308 H 0.23151 0.72892 0.29149 0.0
H309 H 0.21037 0.70464 0.29076 0.0
H310 H 0.17302 0.7213 0.33518 0.0
H311 H 0.19401 0.74558 0.33561 0.0
H312 H 0.23979 0.8141 0.35304 0.0
H313 H 0.24493 0.79348 0.3306 0.0
H314 H 0.28873 0.84204 0.32746 0.0
H315 H 0.29341 0.82156 0.30504 0.0
H316 H 0.3267 0.77846 0.23951 0.0
H317 H 0.30158 0.73754 0.21241 0.0
H318 H 0.27576 0.73381 0.23651 0.0
H319 H 0.30086 0.77448 0.26378 0.0
C320 C 0.98203 0.45846 0.30204 0.0
C321 C 0.96521 0.45603 0.31414 0.0
C322 C 0.9942 0.47222 0.30257 0.0
C323 C 0.99023 0.48376 0.3155 0.0
C324 C 0.96097 0.46777 0.32682 0.0
C325 C 0.9733 0.48149 0.32744 0.0
C326 C 1.003 0.49848 0.31611 0.0
C327 C 0.0483 0.45925 0.3284 0.0
C328 C 0.06387 0.45724 0.31513 0.0
C329 C 0.03585 0.47275 0.32853 0.0
C330 C 0.03858 0.48447 0.31531 0.0
C331 C 0.06672 0.46913 0.30209 0.0
C332 C 0.05432 0.48263 0.30227 0.0
C333 C 0.02544 0.4988 0.31517 0.0
C334 C 0.04683 0.56714 0.32703 0.0
C335 C 0.06319 0.56909 0.31439 0.0
C336 C 0.03446 0.55344 0.3273 0.0
C337 C 0.03794 0.54149 0.31476 0.0
C338 C 0.06689 0.55699 0.30207 0.0
C339 C 0.05446 0.54332 0.30231 0.0
C340 C 0.02511 0.5268 0.31494 0.0
C341 C 0.97958 0.56547 0.30092 0.0
C342 C 0.96356 0.56769 0.31373 0.0
C343 C 0.99235 0.55215 0.30165 0.0
C344 C 0.98953 0.54084 0.31531 0.0
C345 C 0.96065 0.55627 0.32729 0.0
C346 C 0.97341 0.54293 0.32798 0.0
C347 C 1.00267 0.5265 0.31598 0.0
H348 H 0.98591 0.44967 0.29217 0.0
H349 H 0.00667 0.47386 0.29275 0.0
H350 H 0.9479 0.46649 0.33612 0.0
H351 H 0.96967 0.49032 0.33734 0.0
H352 H 0.04593 0.4505 0.33886 0.0
H353 H 0.02416 0.47407 0.33902 0.0
H354 H 0.07834 0.46792 0.29153 0.0
H355 H 0.05678 0.49154 0.29199 0.0
H356 H 0.04384 0.57609 0.33694 0.0
H357 H 0.02231 0.55214 0.33746 0.0
H358 H 0.07924 0.55815 0.29207 0.0
H359 H 0.05759 0.53423 0.2926 0.0
H360 H 0.98231 0.57406 0.29035 0.0
H361 H 1.00433 0.55064 0.29144 0.0
H362 H 0.94824 0.55749 0.33718 0.0
H363 H 0.97076 0.53426 0.3385 0.0
N364 N 0.99254 0.51235 0.31663 0.0
N365 N 0.03557 0.51293 0.31448 0.0
C366 C 0.97798 0.45448 0.69696 0.0
C367 C 0.96142 0.4529 0.70945 0.0
C368 C 0.99044 0.46813 0.69641 0.0
C369 C 0.98692 0.48035 0.70862 0.0
C370 C 0.95756 0.46529 0.72133 0.0
C371 C 0.97016 0.47887 0.72089 0.0
C372 C 0.99995 0.49495 0.70826 0.0
C373 C 0.04532 0.45613 0.72207 0.0
C374 C 0.06129 0.45379 0.70925 0.0
C375 C 0.03263 0.46949 0.72131 0.0
C376 C 0.03543 0.48073 0.70757 0.0
C377 C 0.06422 0.46517 0.69563 0.0
C378 C 0.05152 0.47854 0.69489 0.0
C379 C 0.02237 0.49512 0.70686 0.0
C380 C 0.0452 0.56274 0.71999 0.0
C381 C 0.06109 0.56506 0.70701 0.0
C382 C 0.03256 0.54918 0.71986 0.0
C383 C 0.03531 0.53774 0.70657 0.0
C384 C 0.06401 0.55347 0.69388 0.0
C385 C 0.05131 0.53993 0.69373 0.0
C386 C 0.02232 0.52314 0.7065 0.0
C387 C 0.97717 0.56293 0.69626 0.0
C388 C 0.96201 0.56475 0.70988 0.0
C389 C 0.98947 0.54937 0.69553 0.0
C390 C 0.98698 0.53741 0.70849 0.0
C391 C 0.95926 0.5526 0.7226 0.0
C392 C 0.97152 0.53904 0.72184 0.0
C393 C 0.99994 0.52298 0.70805 0.0
H394 H 0.98107 0.44527 0.6874 0.0
H395 H 1.00269 0.46917 0.68632 0.0
H396 H 0.94498 0.4644 0.73116 0.0
H397 H 0.96694 0.48817 0.73033 0.0
H398 H 0.04253 0.44758 0.73268 0.0
H399 H 0.02071 0.47108 0.73156 0.0
H400 H 0.0766 0.46388 0.68572 0.0
H401 H 0.05419 0.48716 0.68432 0.0
H402 H 0.04282 0.57126 0.73051 0.0
H403 H 0.02084 0.54755 0.73031 0.0
H404 H 0.07599 0.55492 0.68361 0.0
H405 H 0.05388 0.53121 0.68346 0.0
H406 H 0.97973 0.57208 0.68628 0.0
H407 H 1.00092 0.54824 0.68482 0.0
H408 H 0.94746 0.55348 0.73307 0.0
H409 H 0.9691 0.5299 0.73184 0.0
N410 N 0.98969 0.5089 0.70894 0.0
N411 N 0.03261 0.5092 0.70587 0.0
C412 C 0.23612 0.0664 0.48295 0.0
C413 C 0.25061 0.06832 0.46874 0.0
C414 C 0.23636 0.0529 0.49377 0.0
C415 C 0.25139 0.04112 0.49089 0.0
C416 C 0.2654 0.05637 0.46571 0.0
C417 C 0.26573 0.04293 0.47662 0.0
C418 C 0.25155 0.02651 0.50191 0.0
C419 C 0.26548 0.0657 0.54077 0.0
C420 C 0.2501 0.06749 0.55423 0.0
C421 C 0.26547 0.05237 0.5299 0.0
C422 C 0.24995 0.04059 0.53214 0.0
C423 C 0.23479 0.05555 0.5566 0.0
C424 C 0.23481 0.04222 0.54575 0.0
C425 C 0.24991 0.02625 0.52094 0.0
C426 C 0.26568 0.95853 0.54018 0.0
C427 C 0.25074 0.95652 0.55401 0.0
C428 C 0.26549 0.972 0.52927 0.0
C429 C 0.25013 0.98361 0.53177 0.0
C430 C 0.23556 0.96827 0.55662 0.0
C431 C 0.23533 0.98168 0.54566 0.0
C432 C 0.25004 0.9982 0.52073 0.0
C433 C 0.23742 0.95878 0.48159 0.0
C434 C 0.25208 0.95781 0.46745 0.0
C435 C 0.23728 0.97189 0.49284 0.0
C436 C 0.25208 0.98415 0.49041 0.0
C437 C 0.26672 0.97016 0.46496 0.0
C438 C 0.26667 0.98318 0.47627 0.0
C439 C 0.25176 0.99846 0.5017 0.0
H440 H 0.22459 0.07537 0.48578 0.0
H441 H 0.22463 0.05163 0.50427 0.0
H442 H 0.27652 0.05726 0.4547 0.0
H443 H 0.27725 0.03391 0.47391 0.0
H444 H 0.27745 0.07468 0.53853 0.0
H445 H 0.27768 0.05123 0.51982 0.0
H446 H 0.22295 0.05641 0.56703 0.0
H447 H 0.22287 0.0332 0.54791 0.0
H448 H 0.27782 0.94986 0.53803 0.0
H449 H 0.27756 0.97342 0.51907 0.0
H450 H 0.22371 0.96703 0.56703 0.0
H451 H 0.22344 0.99053 0.54798 0.0
H452 H 0.22572 0.94959 0.48367 0.0
H453 H 0.22535 0.97254 0.50322 0.0
H454 H 0.27836 0.96971 0.45432 0.0
H455 H 0.27813 0.99252 0.474 0.0
N456 N 0.25256 0.0126 0.49312 0.0
N457 N 0.24905 0.01211 0.52953 0.0
C458 C 0.48045 0.7771 0.95004 0.0
C459 C 0.46304 0.76675 0.94856 0.0
C460 C 0.49343 0.77698 0.96547 0.0
C461 C 0.48961 0.76621 0.97956 0.0
C462 C 0.459 0.75618 0.96278 0.0
C463 C 0.47214 0.75592 0.9781 0.0
C464 C 0.5027 0.76622 0.99636 0.0
C465 C 0.54815 0.75557 0.95159 0.0
C466 C 0.56472 0.76659 0.94949 0.0
C467 C 0.53523 0.75581 0.96684 0.0
C468 C 0.53838 0.76723 0.98019 0.0
C469 C 0.56803 0.77784 0.96302 0.0
C470 C 0.55507 0.77811 0.97822 0.0
C471 C 0.52515 0.76748 0.99665 0.0
C472 C 0.54755 0.75708 0.07511 0.0
C473 C 0.56368 0.76846 0.07724 0.0
C474 C 0.53486 0.75682 0.05951 0.0
C475 C 0.53785 0.76805 0.04578 0.0
C476 C 0.56682 0.77953 0.06333 0.0
C477 C 0.55412 0.77927 0.04775 0.0
C478 C 0.52491 0.76775 0.02893 0.0
C479 C 0.47866 0.77743 0.07368 0.0
C480 C 0.46247 0.76607 0.07553 0.0
C481 C 0.49186 0.7775 0.05858 0.0
C482 C 0.48931 0.7661 0.04513 0.0
C483 C 0.45995 0.75472 0.06199 0.0
C484 C 0.47313 0.75481 0.04693 0.0
C485 C 0.50251 0.76632 0.02865 0.0
H486 H 0.4837 0.78557 0.93944 0.0
H487 H 0.50622 0.7855 0.9665 0.0
H488 H 0.44575 0.74802 0.96199 0.0
H489 H 0.46867 0.74762 0.98883 0.0
H490 H 0.54541 0.74656 0.94161 0.0
H491 H 0.52293 0.74695 0.96829 0.0
H492 H 0.58052 0.78658 0.96177 0.0
H493 H 0.55796 0.78694 0.9884 0.0
H494 H 0.54461 0.74842 0.08557 0.0
H495 H 0.52284 0.74774 0.05812 0.0
H496 H 0.57934 0.78827 0.06434 0.0
H497 H 0.55696 0.78791 0.03724 0.0
H498 H 0.48082 0.78649 0.08369 0.0
H499 H 0.5038 0.78665 0.05728 0.0
H500 H 0.44784 0.74568 0.06306 0.0
H501 H 0.47075 0.74595 0.03669 0.0
N502 N 0.49237 0.76556 0.01239 0.0
N503 N 0.53528 0.76834 0.01292 0.0
C504 C 0.76761 0.06357 0.48565 0.0
C505 C 0.78228 0.06537 0.47155 0.0
C506 C 0.76762 0.05008 0.49652 0.0
C507 C 0.78255 0.0382 0.49376 0.0
C508 C 0.79693 0.05331 0.46864 0.0
C509 C 0.79701 0.03989 0.47958 0.0
C510 C 0.78251 0.02362 0.50484 0.0
C511 C 0.7965 0.0628 0.54397 0.0
C512 C 0.7816 0.06418 0.55789 0.0
C513 C 0.79631 0.04966 0.53278 0.0
C514 C 0.78101 0.03773 0.5351 0.0
C515 C 0.76642 0.05216 0.56023 0.0
C516 C 0.76621 0.03907 0.54902 0.0
C517 C 0.78099 0.0234 0.52388 0.0
C518 C 0.79642 0.95554 0.54296 0.0
C519 C 0.78172 0.95359 0.557 0.0
C520 C 0.79625 0.96903 0.53211 0.0
C521 C 0.78115 0.98079 0.53486 0.0
C522 C 0.76688 0.96552 0.55991 0.0
C523 C 0.76666 0.97897 0.54901 0.0
C524 C 0.78099 0.99536 0.52377 0.0
C525 C 0.76712 0.9558 0.48546 0.0
C526 C 0.78185 0.95428 0.47143 0.0
C527 C 0.76719 0.96916 0.49628 0.0
C528 C 0.78223 0.9812 0.49353 0.0
C529 C 0.79657 0.96652 0.46848 0.0
C530 C 0.7967 0.97983 0.47937 0.0
C531 C 0.78241 0.99556 0.50472 0.0
H532 H 0.75616 0.07262 0.48837 0.0
H533 H 0.75582 0.0489 0.50698 0.0
H534 H 0.80817 0.05411 0.4577 0.0
H535 H 0.80845 0.03079 0.47696 0.0
H536 H 0.80863 0.07171 0.542 0.0
H537 H 0.80834 0.04871 0.52252 0.0
H538 H 0.75458 0.05291 0.57068 0.0
H539 H 0.75435 0.02998 0.55118 0.0
H540 H 0.80801 0.94658 0.54024 0.0
H541 H 0.80805 0.97032 0.52166 0.0
H542 H 0.7556 0.9646 0.57081 0.0
H543 H 0.75507 0.98797 0.55161 0.0
H544 H 0.75562 0.9466 0.48821 0.0
H545 H 0.75539 0.97011 0.50673 0.0
H546 H 0.80786 0.96593 0.45758 0.0
H547 H 0.80824 0.98905 0.47677 0.0
N548 N 0.78328 0.00968 0.49608 0.0
N549 N 0.78017 0.00929 0.53252 0.0
C550 C 0.47807 0.26615 0.95121 0.0
C551 C 0.46146 0.25512 0.94921 0.0
C552 C 0.49084 0.26621 0.96679 0.0
C553 C 0.48749 0.25509 0.98058 0.0
C554 C 0.4579 0.24424 0.96323 0.0
C555 C 0.47072 0.24426 0.97874 0.0
C556 C 0.50062 0.25504 0.99733 0.0
C557 C 0.54539 0.24511 0.9518 0.0
C558 C 0.5628 0.25546 0.95048 0.0
C559 C 0.53244 0.24518 0.96705 0.0
C560 C 0.5363 0.25592 0.98104 0.0
C561 C 0.56692 0.26594 0.96464 0.0
C562 C 0.55381 0.26616 0.97974 0.0
C563 C 0.52309 0.25601 0.99755 0.0
C564 C 0.54551 0.24395 0.07566 0.0
C565 C 0.56237 0.25474 0.07783 0.0
C566 C 0.5326 0.24433 0.06019 0.0
C567 C 0.53607 0.25566 0.04664 0.0
C568 C 0.56594 0.26594 0.06414 0.0
C569 C 0.55299 0.26633 0.04869 0.0
C570 C 0.523 0.25593 0.02985 0.0
C571 C 0.47785 0.26615 0.07505 0.0
C572 C 0.4609 0.2554 0.07672 0.0
C573 C 0.49085 0.26603 0.05985 0.0
C574 C 0.4874 0.25498 0.04614 0.0
C575 C 0.45735 0.24448 0.06288 0.0
C576 C 0.47041 0.24432 0.04774 0.0
C577 C 0.50056 0.25495 0.02963 0.0
H578 H 0.48135 0.27467 0.94067 0.0
H579 H 0.50327 0.275 0.96807 0.0
H580 H 0.445 0.23579 0.96236 0.0
H581 H 0.46758 0.23573 0.9893 0.0
H582 H 0.54207 0.23672 0.94124 0.0
H583 H 0.51961 0.23669 0.96797 0.0
H584 H 0.58019 0.27408 0.96396 0.0
H585 H 0.55731 0.27442 0.99042 0.0
H586 H 0.54222 0.23522 0.08596 0.0
H587 H 0.52007 0.23565 0.05874 0.0
H588 H 0.57899 0.27424 0.06518 0.0
H589 H 0.5562 0.27503 0.03832 0.0
H590 H 0.48078 0.27489 0.08531 0.0
H591 H 0.50338 0.27474 0.0587 0.0
H592 H 0.44458 0.23594 0.06382 0.0
H593 H 0.4673 0.23576 0.0373 0.0
N594 N 0.49033 0.25445 0.01338 0.0
N595 N 0.5333 0.25652 0.01381 0.0
H596 H 0.20694 0.35528 0.29075 0.0
H597 H 0.18268 0.37669 0.29678 0.0
H598 H 0.13426 0.34339 0.31257 0.0
H599 H 0.15832 0.32179 0.30598 0.0
H600 H 0.11798 0.36573 0.29084 0.0
H601 H 0.16082 0.36489 0.34423 0.0
H602 H 0.19396 0.36453 0.36223 0.0
H603 H 0.21236 0.40904 0.33965 0.0
H604 H 0.17945 0.40957 0.32131 0.0
H605 H 0.0516 0.42684 0.32225 0.0
H606 H 0.07339 0.4033 0.32138 0.0
H607 H 0.12763 0.43135 0.30585 0.0
H608 H 0.10626 0.45499 0.30754 0.0
H609 H 0.13908 0.41012 0.33014 0.0
H610 H 0.09769 0.40953 0.27472 0.0
H611 H 0.06439 0.40993 0.25691 0.0
H612 H 0.04303 0.36804 0.28386 0.0
H613 H 0.07616 0.36748 0.30196 0.0
C614 C 0.19109 0.35247 0.2954 0.0
C615 C 0.18457 0.33679 0.29783 0.0
C616 C 0.1773 0.36475 0.29903 0.0
C617 C 0.15671 0.36168 0.30534 0.0
C618 C 0.1501 0.34605 0.30779 0.0
C619 C 0.16393 0.33372 0.30416 0.0
C620 C 0.14202 0.37483 0.3089 0.0
C621 C 0.12243 0.3753 0.29969 0.0
C622 C 0.14793 0.38746 0.32024 0.0
C623 C 0.16773 0.38721 0.33129 0.0
C624 C 0.172 0.37455 0.343 0.0
C625 C 0.19074 0.37432 0.35328 0.0
C626 C 0.20528 0.38674 0.35206 0.0
C627 C 0.20109 0.39943 0.34057 0.0
C628 C 0.18238 0.3997 0.33025 0.0
C629 C 0.06824 0.42804 0.31888 0.0
C630 C 0.07712 0.44285 0.31487 0.0
C631 C 0.08063 0.41453 0.3182 0.0
C632 C 0.1021 0.4155 0.31328 0.0
C633 C 0.11109 0.43028 0.3096 0.0
C634 C 0.09876 0.44379 0.31038 0.0
C635 C 0.11527 0.40118 0.31177 0.0
C636 C 0.13456 0.40049 0.32141 0.0
C637 C 0.10907 0.38835 0.30085 0.0
C638 C 0.0893 0.38855 0.2898 0.0
C639 C 0.08584 0.40045 0.27691 0.0
C640 C 0.06701 0.4007 0.26675 0.0
C641 C 0.05159 0.38904 0.26928 0.0
C642 C 0.05499 0.37707 0.28192 0.0
C643 C 0.0738 0.37677 0.29212 0.0
H644 H 0.03702 0.38926 0.2614 0.0
H645 H 0.21977 0.38654 0.36003 0.0
H646 H 0.15853 0.69901 0.72486 0.0
H647 H 0.13351 0.67729 0.72002 0.0
H648 H 0.18581 0.64624 0.71044 0.0
H649 H 0.21087 0.66797 0.71481 0.0
H650 H 0.15333 0.64107 0.68676 0.0
H651 H 0.16179 0.64666 0.75106 0.0
H652 H 0.1615 0.66092 0.77986 0.0
H653 H 0.09525 0.67087 0.77229 0.0
H654 H 0.09522 0.65684 0.7433 0.0
H655 H 0.10403 0.56715 0.70173 0.0
H656 H 0.12661 0.59055 0.70282 0.0
H657 H 0.07195 0.61876 0.71435 0.0
H658 H 0.04923 0.59536 0.71327 0.0
H659 H 0.1042 0.62631 0.7361 0.0
H660 H 0.09511 0.61956 0.67254 0.0
H661 H 0.09529 0.6053 0.64375 0.0
H662 H 0.16232 0.59761 0.64967 0.0
H663 H 0.16249 0.61164 0.67864 0.0
C664 C 0.16469 0.68761 0.72146 0.0
C665 C 0.18672 0.6852 0.72034 0.0
C666 C 0.15038 0.67518 0.71885 0.0
C667 C 0.15779 0.66008 0.71511 0.0
C668 C 0.17972 0.65776 0.71339 0.0
C669 C 0.19404 0.67017 0.71604 0.0
C670 C 0.1428 0.64659 0.71349 0.0
C671 C 0.14273 0.63774 0.69761 0.0
C672 C 0.1286 0.64247 0.72747 0.0
C673 C 0.12856 0.65085 0.74492 0.0
C674 C 0.1472 0.652 0.75547 0.0
C675 C 0.14709 0.66002 0.77184 0.0
C676 C 0.12838 0.66684 0.77788 0.0
C677 C 0.10974 0.66561 0.76758 0.0
C678 C 0.10977 0.65761 0.75118 0.0
C679 C 0.09675 0.57835 0.70427 0.0
C680 C 0.0748 0.57937 0.70735 0.0
C681 C 0.1097 0.59174 0.7049 0.0
C682 C 0.10096 0.60648 0.70846 0.0
C683 C 0.07906 0.60753 0.71159 0.0
C684 C 0.06611 0.59413 0.71101 0.0
C685 C 0.11479 0.62069 0.70939 0.0
C686 C 0.11467 0.62968 0.72517 0.0
C687 C 0.12879 0.62494 0.6953 0.0
C688 C 0.12877 0.61654 0.67785 0.0
C689 C 0.10986 0.61473 0.66777 0.0
C690 C 0.10991 0.6067 0.65141 0.0
C691 C 0.1288 0.60052 0.6449 0.0
C692 C 0.1477 0.60239 0.65473 0.0
C693 C 0.14773 0.61039 0.67112 0.0
H694 H 0.1288 0.59431 0.63223 0.0
H695 H 0.12833 0.67304 0.79055 0.0
H696 H 0.84188 0.68978 0.32634 0.0
H697 H 0.86613 0.66779 0.33093 0.0
H698 H 0.86494 0.65885 0.27374 0.0
H699 H 0.84092 0.68082 0.26904 0.0
H700 H 0.85926 0.63228 0.29266 0.0
H701 H 0.90792 0.67612 0.29429 0.0
H702 H 0.92195 0.70145 0.30514 0.0
H703 H 0.92955 0.68212 0.35845 0.0
H704 H 0.91528 0.65672 0.34796 0.0
H705 H 0.94558 0.581 0.2836 0.0
H706 H 0.9224 0.60377 0.28185 0.0
H707 H 0.9263 0.60867 0.33966 0.0
H708 H 0.94998 0.58607 0.34147 0.0
H709 H 0.92993 0.63697 0.32246 0.0
H710 H 0.88254 0.59297 0.32081 0.0
H711 H 0.86855 0.56757 0.31016 0.0
H712 H 0.8583 0.58715 0.25728 0.0
H713 H 0.87252 0.61262 0.26755 0.0
C714 C 0.84699 0.68325 0.31472 0.0
C715 C 0.83935 0.68704 0.29732 0.0
C716 C 0.86083 0.67066 0.31737 0.0
C717 C 0.86743 0.66169 0.30267 0.0
C718 C 0.85998 0.66554 0.2853 0.0
C719 C 0.84617 0.67809 0.28265 0.0
C720 C 0.88169 0.64803 0.3053 0.0
C721 C 0.87482 0.63336 0.29899 0.0
C722 C 0.90172 0.64931 0.31406 0.0
C723 C 0.91031 0.66457 0.32038 0.0
C724 C 0.91241 0.67731 0.30836 0.0
C725 C 0.92044 0.69167 0.31443 0.0
C726 C 0.92658 0.69341 0.33248 0.0
C727 C 0.92475 0.68077 0.34448 0.0
C728 C 0.91671 0.66638 0.33847 0.0
C729 C 0.94171 0.587 0.29594 0.0
C730 C 0.94962 0.58168 0.31268 0.0
C731 C 0.92829 0.59995 0.29493 0.0
C732 C 0.9224 0.60783 0.31065 0.0
C733 C 0.93056 0.60274 0.32737 0.0
C734 C 0.94395 0.58974 0.32839 0.0
C735 C 0.90762 0.6213 0.30955 0.0
C736 C 0.91434 0.6359 0.3162 0.0
C737 C 0.8874 0.61996 0.30113 0.0
C738 C 0.87878 0.60467 0.29491 0.0
C739 C 0.87746 0.59183 0.30687 0.0
C740 C 0.86946 0.57742 0.30091 0.0
C741 C 0.86259 0.57573 0.28304 0.0
C742 C 0.86365 0.58847 0.27111 0.0
C743 C 0.87167 0.6029 0.277 0.0
H744 H 0.85639 0.56457 0.27845 0.0
H745 H 0.93281 0.70453 0.33716 0.0
H746 H 0.8786 0.3145 0.71437 0.0
H747 H 0.89928 0.33886 0.71419 0.0
H748 H 0.8414 0.3655 0.71457 0.0
H749 H 0.82055 0.34114 0.71426 0.0
H750 H 0.8689 0.37733 0.69034 0.0
H751 H 0.87173 0.36214 0.75244 0.0
H752 H 0.87788 0.3445 0.77843 0.0
H753 H 0.94361 0.34072 0.7643 0.0
H754 H 0.93778 0.35818 0.73805 0.0
H755 H 0.91816 0.45053 0.71194 0.0
H756 H 0.8964 0.42662 0.71313 0.0
H757 H 0.95287 0.39863 0.70942 0.0
H758 H 0.97474 0.42251 0.7084 0.0
H759 H 0.92543 0.38791 0.73588 0.0
H760 H 0.92197 0.40291 0.67332 0.0
H761 H 0.91546 0.42082 0.64764 0.0
H762 H 0.8503 0.42529 0.66322 0.0
H763 H 0.8565 0.40757 0.68917 0.0
C764 C 0.87025 0.32554 0.71431 0.0
C765 C 0.84791 0.32586 0.71432 0.0
C766 C 0.88211 0.33946 0.71438 0.0
C767 C 0.87191 0.35403 0.71455 0.0
C768 C 0.84961 0.35441 0.7145 0.0
C769 C 0.83773 0.34047 0.71447 0.0
C770 C 0.88455 0.36883 0.71442 0.0
C771 C 0.88103 0.37975 0.70046 0.0
C772 C 0.90069 0.37186 0.72742 0.0
C773 C 0.90426 0.36134 0.74317 0.0
C774 C 0.88746 0.35744 0.75478 0.0
C775 C 0.89089 0.34749 0.76958 0.0
C776 C 0.91111 0.34146 0.77299 0.0
C777 C 0.92795 0.34539 0.76162 0.0
C778 C 0.92459 0.35532 0.74679 0.0
C779 C 0.92594 0.43928 0.71147 0.0
C780 C 0.94816 0.4384 0.71005 0.0
C781 C 0.91349 0.42563 0.71203 0.0
C782 C 0.92301 0.41084 0.71124 0.0
C783 C 0.9452 0.40992 0.71002 0.0
C784 C 0.95765 0.42356 0.7093 0.0
C785 C 0.90982 0.39633 0.71176 0.0
C786 C 0.91325 0.38548 0.7258 0.0
C787 C 0.89354 0.39339 0.69889 0.0
C788 C 0.88976 0.40405 0.6833 0.0
C789 C 0.9063 0.40782 0.67137 0.0
C790 C 0.90266 0.41792 0.65674 0.0
C791 C 0.88249 0.42423 0.65383 0.0
C792 C 0.86592 0.42042 0.66551 0.0
C793 C 0.86948 0.41034 0.68017 0.0
H794 H 0.8797 0.43203 0.64249 0.0
H795 H 0.91374 0.33377 0.78446 0.0
H796 H 0.27676 0.18991 0.36486 0.0
H797 H 0.27886 0.1663 0.3837 0.0
H798 H 0.21081 0.16646 0.38984 0.0
H799 H 0.20856 0.18998 0.37095 0.0
H800 H 0.23007 0.16148 0.42159 0.0
H801 H 0.23498 0.1404 0.36202 0.0
H802 H 0.24938 0.1378 0.33139 0.0
H803 H 0.31029 0.1256 0.35371 0.0
H804 H 0.29632 0.12833 0.3845 0.0
H805 H 0.21573 0.08434 0.45623 0.0
H806 H 0.21499 0.10778 0.43715 0.0
H807 H 0.2834 0.1079 0.43494 0.0
H808 H 0.28437 0.08465 0.4544 0.0
H809 H 0.26484 0.11278 0.40147 0.0
H810 H 0.25946 0.13353 0.46112 0.0
H811 H 0.24467 0.13583 0.49164 0.0
H812 H 0.18413 0.14846 0.46892 0.0
H813 H 0.19849 0.146 0.43823 0.0
C814 C 0.26221 0.18482 0.37005 0.0
C815 C 0.24248 0.19187 0.36638 0.0
C816 C 0.26344 0.17133 0.38085 0.0
C817 C 0.24497 0.16452 0.3881 0.0
C818 C 0.22528 0.17152 0.38446 0.0
C819 C 0.22404 0.18501 0.3737 0.0
C820 C 0.24616 0.15026 0.39974 0.0
C821 C 0.23743 0.15077 0.41708 0.0
C822 C 0.25621 0.13638 0.39406 0.0
C823 C 0.26466 0.13474 0.37556 0.0
C824 C 0.2515 0.13729 0.3604 0.0
C825 C 0.25957 0.13577 0.34301 0.0
C826 C 0.28075 0.13158 0.3406 0.0
C827 C 0.29389 0.12887 0.35559 0.0
C828 C 0.2859 0.13039 0.37301 0.0
C829 C 0.23067 0.08944 0.45192 0.0
C830 C 0.25012 0.08259 0.45698 0.0
C831 C 0.2302 0.10282 0.44092 0.0
C832 C 0.24915 0.10967 0.43472 0.0
C833 C 0.26858 0.10279 0.43953 0.0
C834 C 0.26908 0.08945 0.45062 0.0
C835 C 0.24864 0.12401 0.42323 0.0
C836 C 0.25751 0.12351 0.40595 0.0
C837 C 0.23867 0.13789 0.42893 0.0
C838 C 0.23 0.13943 0.44737 0.0
C839 C 0.24295 0.13667 0.46262 0.0
C840 C 0.23465 0.13802 0.47996 0.0
C841 C 0.21346 0.14225 0.48222 0.0
C842 C 0.20053 0.14517 0.46715 0.0
C843 C 0.20875 0.1438 0.44978 0.0
H844 H 0.20706 0.1433 0.49565 0.0
H845 H 0.28697 0.1304 0.32713 0.0
H846 H 0.36755 0.76846 0.79345 0.0
H847 H 0.39078 0.76677 0.82 0.0
H848 H 0.33699 0.774 0.85449 0.0
H849 H 0.31374 0.77596 0.82792 0.0
H850 H 0.36883 0.7911 0.86579 0.0
H851 H 0.36049 0.73735 0.84956 0.0
H852 H 0.36078 0.7144 0.82957 0.0
H853 H 0.42761 0.72103 0.82093 0.0
H854 H 0.42766 0.74417 0.84068 0.0
H855 H 0.41964 0.76677 0.94767 0.0
H856 H 0.39623 0.76764 0.92108 0.0
H857 H 0.45087 0.76855 0.88647 0.0
H858 H 0.47441 0.76768 0.91304 0.0
H859 H 0.41864 0.74705 0.87559 0.0
H860 H 0.42591 0.80122 0.89251 0.0
H861 H 0.42467 0.82349 0.91344 0.0
H862 H 0.35818 0.81495 0.92192 0.0
H863 H 0.3591 0.79246 0.90123 0.0
C864 C 0.36064 0.76953 0.8067 0.0
C865 C 0.33879 0.77229 0.80859 0.0
C866 C 0.37394 0.76855 0.82189 0.0
C867 C 0.36563 0.77004 0.83931 0.0
C868 C 0.3438 0.77282 0.84121 0.0
C869 C 0.33053 0.77395 0.82602 0.0
C870 C 0.37977 0.76907 0.85551 0.0
C871 C 0.37947 0.78134 0.86803 0.0
C872 C 0.394 0.75649 0.85835 0.0
C873 C 0.39403 0.74259 0.84646 0.0
C874 C 0.37521 0.73399 0.84328 0.0
C875 C 0.37532 0.72093 0.83202 0.0
C876 C 0.39419 0.71628 0.82395 0.0
C877 C 0.413 0.72466 0.82717 0.0
C878 C 0.41297 0.73774 0.83841 0.0
C879 C 0.42666 0.76707 0.93439 0.0
C880 C 0.44885 0.76718 0.93242 0.0
C881 C 0.41328 0.76765 0.91923 0.0
C882 C 0.42183 0.76824 0.90182 0.0
C883 C 0.44397 0.76812 0.89979 0.0
C884 C 0.45738 0.76773 0.91496 0.0
C885 C 0.40763 0.76906 0.88574 0.0
C886 C 0.40793 0.75677 0.87328 0.0
C887 C 0.39323 0.78151 0.88306 0.0
C888 C 0.39263 0.79506 0.89546 0.0
C889 C 0.41107 0.804 0.89896 0.0
C890 C 0.41041 0.81668 0.91076 0.0
C891 C 0.39137 0.8206 0.91905 0.0
C892 C 0.37293 0.81188 0.91551 0.0
C893 C 0.3735 0.79917 0.90374 0.0
H894 H 0.39089 0.83043 0.92817 0.0
H895 H 0.39424 0.70617 0.81523 0.0
H896 H 0.75093 0.83155 0.37178 0.0
H897 H 0.74955 0.85486 0.39071 0.0
H898 H 0.81789 0.8587 0.38949 0.0
H899 H 0.81938 0.83544 0.37053 0.0
H900 H 0.80362 0.86235 0.42307 0.0
H901 H 0.78602 0.88326 0.36434 0.0
H902 H 0.76579 0.88491 0.33574 0.0
H903 H 0.70852 0.8934 0.36494 0.0
H904 H 0.72837 0.89159 0.39374 0.0
H905 H 0.81616 0.93869 0.45806 0.0
H906 H 0.8161 0.91569 0.43873 0.0
H907 H 0.74762 0.91414 0.43976 0.0
H908 H 0.74749 0.93763 0.45841 0.0
H909 H 0.76105 0.90906 0.40664 0.0
H910 H 0.77817 0.88848 0.46523 0.0
H911 H 0.79795 0.88673 0.49405 0.0
H912 H 0.85541 0.87732 0.46552 0.0
H913 H 0.83603 0.87922 0.4365 0.0
C914 C 0.76565 0.83746 0.37537 0.0
C915 C 0.78527 0.83161 0.36962 0.0
C916 C 0.76484 0.85078 0.38622 0.0
C917 C 0.78361 0.85863 0.39142 0.0
C918 C 0.8032 0.85282 0.38571 0.0
C919 C 0.80403 0.83949 0.3749 0.0
C920 C 0.78292 0.87273 0.40308 0.0
C921 C 0.79453 0.87264 0.41936 0.0
C922 C 0.77058 0.886 0.39852 0.0
C923 C 0.75864 0.88713 0.3812 0.0
C924 C 0.76908 0.88536 0.36467 0.0
C925 C 0.75769 0.88634 0.34842 0.0
C926 C 0.73587 0.88921 0.34852 0.0
C927 C 0.72541 0.89115 0.36488 0.0
C928 C 0.73673 0.89016 0.38117 0.0
C929 C 0.80105 0.93359 0.45404 0.0
C930 C 0.78182 0.94005 0.45986 0.0
C931 C 0.80105 0.92029 0.44314 0.0
C932 C 0.78186 0.91301 0.43798 0.0
C933 C 0.76264 0.9195 0.44362 0.0
C934 C 0.76261 0.93285 0.45446 0.0
C935 C 0.78187 0.89873 0.42658 0.0
C936 C 0.77012 0.89876 0.41037 0.0
C937 C 0.794 0.88537 0.43124 0.0
C938 C 0.80568 0.88413 0.44868 0.0
C939 C 0.79506 0.88615 0.46509 0.0
C940 C 0.80619 0.88511 0.48147 0.0
C941 C 0.82793 0.88196 0.48161 0.0
C942 C 0.83857 0.87978 0.46538 0.0
C943 C 0.82752 0.88082 0.44897 0.0
H944 H 0.83652 0.88116 0.4943 0.0
H945 H 0.72708 0.88997 0.33592 0.0
H946 H 0.66318 0.264 0.79851 0.0
H947 H 0.63782 0.26184 0.82323 0.0
H948 H 0.68946 0.25387 0.86082 0.0
H949 H 0.71482 0.25576 0.83611 0.0
H950 H 0.65788 0.23494 0.86858 0.0
H951 H 0.66446 0.29003 0.85649 0.0
H952 H 0.66394 0.31408 0.83785 0.0
H953 H 0.5981 0.30604 0.82498 0.0
H954 H 0.59831 0.28181 0.84336 0.0
H955 H 0.60617 0.25519 0.9501 0.0
H956 H 0.62939 0.25512 0.92378 0.0
H957 H 0.5745 0.25516 0.8885 0.0
H958 H 0.55114 0.2552 0.91482 0.0
H959 H 0.60626 0.27745 0.87898 0.0
H960 H 0.60015 0.22262 0.89301 0.0
H961 H 0.60155 0.19924 0.91272 0.0
H962 H 0.66784 0.20778 0.9232 0.0
H963 H 0.66676 0.23136 0.90376 0.0
C964 C 0.66911 0.26182 0.81206 0.0
C965 C 0.69101 0.26011 0.81537 0.0
C966 C 0.65461 0.2606 0.82619 0.0
C967 C 0.66172 0.25792 0.84397 0.0
C968 C 0.68355 0.25593 0.84724 0.0
C969 C 0.69804 0.25699 0.83309 0.0
C970 C 0.6465 0.25735 0.85922 0.0
C971 C 0.64677 0.24433 0.87094 0.0
C972 C 0.63166 0.26944 0.86217 0.0
C973 C 0.63147 0.28402 0.85114 0.0
C974 C 0.64992 0.29332 0.84957 0.0
C975 C 0.64967 0.307 0.83907 0.0
C976 C 0.63101 0.31156 0.83019 0.0
C977 C 0.61255 0.30248 0.83184 0.0
C978 C 0.61272 0.28878 0.84231 0.0
C979 C 0.59906 0.25522 0.93673 0.0
C980 C 0.57685 0.25521 0.9345 0.0
C981 C 0.61232 0.25508 0.92172 0.0
C982 C 0.60365 0.25505 0.9042 0.0
C983 C 0.58149 0.25516 0.90191 0.0
C984 C 0.56819 0.25509 0.91694 0.0
C985 C 0.6178 0.25512 0.8883 0.0
C986 C 0.61732 0.26804 0.8765 0.0
C987 C 0.6326 0.24305 0.88541 0.0
C988 C 0.63332 0.22884 0.89706 0.0
C989 C 0.61499 0.21959 0.89964 0.0
C990 C 0.61573 0.20629 0.91074 0.0
C991 C 0.63476 0.20205 0.91924 0.0
C992 C 0.6531 0.21109 0.91663 0.0
C993 C 0.65244 0.22442 0.90555 0.0
H994 H 0.63531 0.19174 0.92783 0.0
H995 H 0.63085 0.32215 0.82207 0.0
H996 H 0.25261 0.81999 0.62965 0.0
H997 H 0.25454 0.84387 0.61131 0.0
H998 H 0.24491 0.87175 0.65876 0.0
H999 H 0.2424 0.84785 0.67715 0.0
H1000 H 0.22014 0.88155 0.63103 0.0
H1001 H 0.2937 0.86952 0.63981 0.0
H1002 H 0.32561 0.85299 0.63951 0.0
H1003 H 0.31898 0.84746 0.5822 0.0
H1004 H 0.28684 0.86379 0.58218 0.0
H1005 H 0.2456 0.95491 0.59063 0.0
H1006 H 0.24559 0.93157 0.60994 0.0
H1007 H 0.25671 0.90267 0.56356 0.0
H1008 H 0.25679 0.92601 0.54415 0.0
H1009 H 0.28119 0.89366 0.59132 0.0
H1010 H 0.20722 0.90506 0.5826 0.0
H1011 H 0.17522 0.92151 0.58278 0.0
H1012 H 0.18249 0.92804 0.6399 0.0
H1013 H 0.21473 0.9118 0.64002 0.0
C1014 C 0.2508 0.83119 0.63619 0.0
C1015 C 0.24733 0.83199 0.65488 0.0
C1016 C 0.25211 0.84485 0.6257 0.0
C1017 C 0.25007 0.85963 0.63368 0.0
C1018 C 0.2466 0.86048 0.65232 0.0
C1019 C 0.24534 0.84682 0.66284 0.0
C1020 C 0.25103 0.87414 0.62246 0.0
C1021 C 0.23364 0.88432 0.62256 0.0
C1022 C 0.2684 0.87758 0.61106 0.0
C1023 C 0.28774 0.86776 0.61103 0.0
C1024 C 0.29894 0.86468 0.62716 0.0
C1025 C 0.31709 0.85536 0.62705 0.0
C1026 C 0.32429 0.84914 0.61086 0.0
C1027 C 0.31337 0.85226 0.59474 0.0
C1028 C 0.2952 0.86156 0.59478 0.0
C1029 C 0.24788 0.94357 0.58451 0.0
C1030 C 0.25106 0.94232 0.56581 0.0
C1031 C 0.24789 0.93023 0.59558 0.0
C1032 C 0.25086 0.91532 0.58819 0.0
C1033 C 0.25438 0.91405 0.56958 0.0
C1034 C 0.25447 0.9274 0.5585 0.0
C1035 C 0.25028 0.90105 0.59985 0.0
C1036 C 0.26772 0.89091 0.59983 0.0
C1037 C 0.23293 0.89763 0.61131 0.0
C1038 C 0.21351 0.90735 0.61128 0.0
C1039 C 0.20209 0.91011 0.59518 0.0
C1040 C 0.18389 0.91937 0.59523 0.0
C1041 C 0.17686 0.92585 0.61133 0.0
C1042 C 0.18797 0.92303 0.62743 0.0
C1043 C 0.2062 0.91379 0.62745 0.0
H1044 H 0.16276 0.93302 0.61135 0.0
H1045 H 0.33835 0.84194 0.6108 0.0
H1046 H 0.68533 0.74973 0.21826 0.0
H1047 H 0.66229 0.74769 0.19159 0.0
H1048 H 0.65941 0.79808 0.18802 0.0
H1049 H 0.68264 0.80024 0.21449 0.0
H1050 H 0.62042 0.78484 0.18411 0.0
H1051 H 0.68998 0.7775 0.15938 0.0
H1052 H 0.72508 0.76515 0.15687 0.0
H1053 H 0.69513 0.72083 0.14574 0.0
H1054 H 0.65982 0.73287 0.14844 0.0
H1055 H 0.57769 0.79407 0.09614 0.0
H1056 H 0.60059 0.79458 0.12292 0.0
H1057 H 0.60297 0.74409 0.12301 0.0
H1058 H 0.58066 0.7435 0.09579 0.0
H1059 H 0.6416 0.75635 0.12914 0.0
H1060 H 0.57215 0.76355 0.15304 0.0
H1061 H 0.5369 0.77567 0.15554 0.0
H1062 H 0.5663 0.81981 0.16848 0.0
H1063 H 0.60176 0.80801 0.16579 0.0
C1064 C 0.68 0.76039 0.21169 0.0
C1065 C 0.68587 0.77515 0.21856 0.0
C1066 C 0.66677 0.7592 0.19646 0.0
C1067 C 0.65922 0.77274 0.18773 0.0
C1068 C 0.66497 0.78747 0.19458 0.0
C1069 C 0.67821 0.78868 0.20977 0.0
C1070 C 0.64513 0.7716 0.17156 0.0
C1071 C 0.62516 0.77877 0.17201 0.0
C1072 C 0.65105 0.7633 0.15596 0.0
C1073 C 0.67226 0.75605 0.15431 0.0
C1074 C 0.69088 0.76509 0.15655 0.0
C1075 C 0.71081 0.75815 0.15507 0.0
C1076 C 0.71234 0.74221 0.1512 0.0
C1077 C 0.69392 0.73318 0.14877 0.0
C1078 C 0.67395 0.74005 0.15026 0.0
C1079 C 0.58321 0.78307 0.10175 0.0
C1080 C 0.57729 0.76874 0.0938 0.0
C1081 C 0.59614 0.78337 0.11719 0.0
C1082 C 0.6033 0.76936 0.12513 0.0
C1083 C 0.59757 0.75504 0.11717 0.0
C1084 C 0.58464 0.75473 0.1017 0.0
C1085 C 0.61695 0.7697 0.14163 0.0
C1086 C 0.63683 0.76237 0.14126 0.0
C1087 C 0.61092 0.7778 0.15734 0.0
C1088 C 0.58962 0.78492 0.15905 0.0
C1089 C 0.57111 0.77587 0.15628 0.0
C1090 C 0.55109 0.78268 0.15776 0.0
C1091 C 0.54936 0.79851 0.16212 0.0
C1092 C 0.56766 0.80755 0.16507 0.0
C1093 C 0.58772 0.80081 0.16359 0.0
H1094 H 0.53385 0.80375 0.16326 0.0
H1095 H 0.72778 0.73686 0.15005 0.0
H1096 H 0.77622 0.19497 0.64753 0.0
H1097 H 0.78154 0.17434 0.62531 0.0
H1098 H 0.77057 0.13919 0.66636 0.0
H1099 H 0.76599 0.15969 0.68874 0.0
H1100 H 0.80309 0.13116 0.64565 0.0
H1101 H 0.73166 0.14957 0.63567 0.0
H1102 H 0.70429 0.1694 0.62925 0.0
H1103 H 0.73382 0.18047 0.5787 0.0
H1104 H 0.76154 0.16083 0.58494 0.0
H1105 H 0.77627 0.06433 0.59449 0.0
H1106 H 0.77617 0.08686 0.61455 0.0
H1107 H 0.78841 0.11768 0.56939 0.0
H1108 H 0.78793 0.09516 0.54907 0.0
H1109 H 0.75773 0.12916 0.59058 0.0
H1110 H 0.82768 0.10921 0.59959 0.0
H1111 H 0.85476 0.08917 0.60599 0.0
H1112 H 0.82805 0.08087 0.65831 0.0
H1113 H 0.8006 0.10071 0.65212 0.0
C1114 C 0.77521 0.18285 0.65188 0.0
C1115 C 0.77052 0.179 0.66991 0.0
C1116 C 0.77806 0.17106 0.63911 0.0
C1117 C 0.77617 0.1552 0.6441 0.0
C1118 C 0.77202 0.15133 0.66217 0.0
C1119 C 0.76919 0.16309 0.67492 0.0
C1120 C 0.77818 0.14255 0.63052 0.0
C1121 C 0.79304 0.13065 0.63369 0.0
C1122 C 0.76548 0.14209 0.61465 0.0
C1123 C 0.7488 0.15386 0.61086 0.0
C1124 C 0.73241 0.15632 0.62325 0.0
C1125 C 0.71682 0.16751 0.61963 0.0
C1126 C 0.71735 0.17622 0.6036 0.0
C1127 C 0.73345 0.17373 0.59113 0.0
C1128 C 0.7491 0.16257 0.59469 0.0
C1129 C 0.7788 0.0759 0.58877 0.0
C1130 C 0.78207 0.07793 0.57015 0.0
C1131 C 0.77897 0.08877 0.60031 0.0
C1132 C 0.78254 0.10397 0.59353 0.0
C1133 C 0.78572 0.10606 0.57494 0.0
C1134 C 0.7856 0.09317 0.56337 0.0
C1135 C 0.78242 0.11764 0.60585 0.0
C1136 C 0.76792 0.12974 0.60245 0.0
C1137 C 0.79544 0.11827 0.62152 0.0
C1138 C 0.81197 0.10636 0.62532 0.0
C1139 C 0.82747 0.10303 0.61241 0.0
C1140 C 0.84291 0.09172 0.61601 0.0
C1141 C 0.8431 0.08373 0.63253 0.0
C1142 C 0.82787 0.08706 0.64551 0.0
C1143 C 0.81239 0.09835 0.64197 0.0
H1144 H 0.85506 0.07498 0.63529 0.0
H1145 H 0.70527 0.18488 0.60082 0.0
H1146 H 0.36793 0.25459 0.23121 0.0
H1147 H 0.39066 0.25633 0.20467 0.0
H1148 H 0.3355 0.25217 0.16999 0.0
H1149 H 0.31271 0.25013 0.19649 0.0
H1150 H 0.36732 0.23289 0.15963 0.0
H1151 H 0.36016 0.28706 0.17484 0.0
H1152 H 0.36153 0.31009 0.19469 0.0
H1153 H 0.4284 0.30343 0.20335 0.0
H1154 H 0.42737 0.2802 0.18375 0.0
H1155 H 0.41758 0.25251 0.07735 0.0
H1156 H 0.39445 0.25242 0.10362 0.0
H1157 H 0.44901 0.25883 0.13855 0.0
H1158 H 0.47227 0.25899 0.11227 0.0
H1159 H 0.41726 0.27719 0.14875 0.0
H1160 H 0.42455 0.22288 0.13417 0.0
H1161 H 0.42344 0.19968 0.11455 0.0
H1162 H 0.35671 0.20633 0.1051 0.0
H1163 H 0.35748 0.22971 0.12447 0.0
C1164 C 0.36064 0.25401 0.21793 0.0
C1165 C 0.3385 0.25222 0.21596 0.0
C1166 C 0.37363 0.25514 0.20278 0.0
C1167 C 0.36477 0.2545 0.18533 0.0
C1168 C 0.34268 0.25273 0.18332 0.0
C1169 C 0.32966 0.25169 0.19847 0.0
C1170 C 0.3786 0.25525 0.16921 0.0
C1171 C 0.37801 0.24269 0.1571 0.0
C1172 C 0.39296 0.26783 0.16617 0.0
C1173 C 0.39363 0.28179 0.17797 0.0
C1174 C 0.37512 0.29042 0.18111 0.0
C1175 C 0.37584 0.30353 0.19229 0.0
C1176 C 0.39503 0.3082 0.20032 0.0
C1177 C 0.41354 0.29978 0.19715 0.0
C1178 C 0.4129 0.28665 0.18599 0.0
C1179 C 0.42469 0.25378 0.09063 0.0
C1180 C 0.4468 0.25564 0.09272 0.0
C1181 C 0.41143 0.25375 0.10565 0.0
C1182 C 0.42 0.25539 0.12311 0.0
C1183 C 0.44203 0.25753 0.12522 0.0
C1184 C 0.4553 0.25765 0.11018 0.0
C1185 C 0.40598 0.25482 0.13915 0.0
C1186 C 0.40655 0.2674 0.15125 0.0
C1187 C 0.39164 0.24222 0.14224 0.0
C1188 C 0.39112 0.22814 0.13063 0.0
C1189 C 0.40967 0.21947 0.12779 0.0
C1190 C 0.4091 0.20628 0.11674 0.0
C1191 C 0.39003 0.20156 0.10854 0.0
C1192 C 0.37148 0.21001 0.11143 0.0
C1193 C 0.37197 0.22323 0.12246 0.0
H1194 H 0.38962 0.19134 0.09999 0.0
H1195 H 0.39556 0.31835 0.20897 0.0
H1196 H 0.85096 0.68186 0.75664 0.0
H1197 H 0.87513 0.66035 0.75074 0.0
H1198 H 0.86086 0.66385 0.69383 0.0
H1199 H 0.83603 0.68512 0.69971 0.0
H1200 H 0.8602 0.63389 0.70482 0.0
H1201 H 0.90841 0.67695 0.71071 0.0
H1202 H 0.92464 0.70028 0.72483 0.0
H1203 H 0.94233 0.67278 0.77126 0.0
H1204 H 0.92593 0.64932 0.75752 0.0
H1205 H 0.94306 0.58108 0.68211 0.0
H1206 H 0.92141 0.60469 0.68406 0.0
H1207 H 0.92974 0.60464 0.74188 0.0
H1208 H 0.95181 0.5813 0.74 0.0
H1209 H 0.93447 0.63382 0.72786 0.0
H1210 H 0.88392 0.59123 0.72249 0.0
H1211 H 0.86767 0.568 0.70815 0.0
H1212 H 0.85465 0.59494 0.6602 0.0
H1213 H 0.87109 0.61829 0.67418 0.0
C1214 C 0.85285 0.67802 0.74286 0.0
C1215 C 0.84149 0.68521 0.72865 0.0
C1216 C 0.86688 0.66582 0.73949 0.0
C1217 C 0.87002 0.66058 0.72181 0.0
C1218 C 0.85876 0.66774 0.70757 0.0
C1219 C 0.8447 0.67998 0.71094 0.0
C1220 C 0.8846 0.64733 0.71837 0.0
C1221 C 0.87656 0.63399 0.70957 0.0
C1222 C 0.90586 0.64732 0.72483 0.0
C1223 C 0.91578 0.6614 0.73314 0.0
C1224 C 0.91562 0.6759 0.72399 0.0
C1225 C 0.92487 0.68914 0.73192 0.0
C1226 C 0.93447 0.68802 0.74895 0.0
C1227 C 0.93487 0.67363 0.75807 0.0
C1228 C 0.92562 0.66036 0.75021 0.0
C1229 C 0.94045 0.58618 0.69522 0.0
C1230 C 0.94909 0.57925 0.71091 0.0
C1231 C 0.92793 0.59961 0.69633 0.0
C1232 C 0.92376 0.60635 0.71314 0.0
C1233 C 0.93268 0.59962 0.72877 0.0
C1234 C 0.94515 0.58619 0.72769 0.0
C1235 C 0.90995 0.62033 0.71456 0.0
C1236 C 0.91816 0.63379 0.72298 0.0
C1237 C 0.88888 0.62047 0.7077 0.0
C1238 C 0.87895 0.60645 0.6993 0.0
C1239 C 0.87775 0.59216 0.70883 0.0
C1240 C 0.86847 0.57898 0.70078 0.0
C1241 C 0.86019 0.57998 0.68325 0.0
C1242 C 0.86111 0.59418 0.67376 0.0
C1243 C 0.87039 0.60739 0.68174 0.0
H1244 H 0.85301 0.56977 0.67705 0.0
H1245 H 0.94164 0.69828 0.75506 0.0
H1246 H 0.84056 0.33357 0.32639 0.0
H1247 H 0.86529 0.35538 0.33173 0.0
H1248 H 0.87714 0.35879 0.27462 0.0
H1249 H 0.85305 0.33669 0.26925 0.0
H1250 H 0.91337 0.3621 0.29338 0.0
H1251 H 0.84298 0.38376 0.29565 0.0
H1252 H 0.80627 0.38586 0.30662 0.0
H1253 H 0.82975 0.39465 0.36022 0.0
H1254 H 0.86662 0.39239 0.3496 0.0
H1255 H 0.95195 0.43988 0.28412 0.0
H1256 H 0.93077 0.41583 0.28284 0.0
H1257 H 0.9266 0.41517 0.34085 0.0
H1258 H 0.94834 0.43904 0.34235 0.0
H1259 H 0.88783 0.4097 0.32414 0.0
H1260 H 0.95843 0.39005 0.32123 0.0
H1261 H 0.99506 0.38831 0.31001 0.0
H1262 H 0.97128 0.37599 0.25746 0.0
H1263 H 0.93447 0.37789 0.2683 0.0
C1264 C 0.84865 0.33882 0.31499 0.0
C1265 C 0.84467 0.33344 0.29736 0.0
C1266 C 0.86264 0.35139 0.31805 0.0
C1267 C 0.87287 0.35889 0.30355 0.0
C1268 C 0.86938 0.35325 0.28602 0.0
C1269 C 0.85543 0.3407 0.28295 0.0
C1270 C 0.88684 0.37281 0.30648 0.0
C1271 C 0.90771 0.37256 0.29996 0.0
C1272 C 0.87968 0.38633 0.31548 0.0
C1273 C 0.85754 0.38773 0.32187 0.0
C1274 C 0.84031 0.38601 0.30981 0.0
C1275 C 0.81947 0.38726 0.31595 0.0
C1276 C 0.81568 0.39034 0.33412 0.0
C1277 C 0.83271 0.39223 0.34616 0.0
C1278 C 0.85358 0.39098 0.34009 0.0
C1279 C 0.94684 0.43454 0.29666 0.0
C1280 C 0.95202 0.44142 0.31336 0.0
C1281 C 0.93464 0.4208 0.29588 0.0
C1282 C 0.92727 0.41362 0.31176 0.0
C1283 C 0.93212 0.42052 0.32843 0.0
C1284 C 0.94447 0.43422 0.32925 0.0
C1285 C 0.91422 0.39905 0.31082 0.0
C1286 C 0.89353 0.39919 0.3177 0.0
C1287 C 0.92154 0.38544 0.30213 0.0
C1288 C 0.94367 0.38425 0.29555 0.0
C1289 C 0.96099 0.3871 0.30724 0.0
C1290 C 0.98179 0.38606 0.30096 0.0
C1291 C 0.98549 0.38207 0.28303 0.0
C1292 C 0.96839 0.37909 0.27135 0.0
C1293 C 0.94755 0.38013 0.27756 0.0
H1294 H 1.0016 0.38126 0.27819 0.0
H1295 H 0.79954 0.3913 0.33885 0.0
H1296 H 0.18387 0.3409 0.75368 0.0
H1297 H 0.15894 0.36226 0.74876 0.0
H1298 H 0.1596 0.3538 0.69148 0.0
H1299 H 0.18521 0.33267 0.69625 0.0
H1300 H 0.16262 0.38461 0.69833 0.0
H1301 H 0.11701 0.34265 0.71685 0.0
H1302 H 0.10473 0.3208 0.73616 0.0
H1303 H 0.09808 0.35228 0.78061 0.0
H1304 H 0.11061 0.37429 0.76163 0.0
H1305 H 0.07493 0.43552 0.68142 0.0
H1306 H 0.09779 0.4125 0.68321 0.0
H1307 H 0.10157 0.41709 0.74106 0.0
H1308 H 0.07882 0.4401 0.73938 0.0
H1309 H 0.09494 0.38717 0.73184 0.0
H1310 H 0.14263 0.42876 0.71363 0.0
H1311 H 0.155 0.45053 0.69424 0.0
H1312 H 0.15751 0.41954 0.64897 0.0
H1313 H 0.14488 0.39762 0.66805 0.0
C1314 C 0.17886 0.34363 0.74 0.0
C1315 C 0.18662 0.33507 0.72535 0.0
C1316 C 0.1644 0.35575 0.73723 0.0
C1317 C 0.15717 0.35954 0.71976 0.0
C1318 C 0.16488 0.35105 0.70508 0.0
C1319 C 0.17939 0.3389 0.70785 0.0
C1320 C 0.14193 0.37258 0.71691 0.0
C1321 C 0.14764 0.38504 0.70541 0.0
C1322 C 0.12255 0.3733 0.72639 0.0
C1323 C 0.11492 0.3601 0.73784 0.0
C1324 C 0.11308 0.3449 0.73078 0.0
C1325 C 0.10605 0.33249 0.74166 0.0
C1326 C 0.10067 0.33515 0.75961 0.0
C1327 C 0.10227 0.35024 0.7667 0.0
C1328 C 0.10931 0.36269 0.75588 0.0
C1329 C 0.08077 0.4317 0.69451 0.0
C1330 C 0.07505 0.43969 0.71026 0.0
C1331 C 0.09381 0.41852 0.69552 0.0
C1332 C 0.10158 0.41313 0.71226 0.0
C1333 C 0.09574 0.42099 0.72799 0.0
C1334 C 0.08266 0.43413 0.72701 0.0
C1335 C 0.11578 0.3993 0.71348 0.0
C1336 C 0.10984 0.38668 0.72466 0.0
C1337 C 0.13493 0.39843 0.70368 0.0
C1338 C 0.14259 0.41159 0.69222 0.0
C1339 C 0.14566 0.42662 0.6995 0.0
C1340 C 0.15275 0.43898 0.68858 0.0
C1341 C 0.15698 0.43643 0.67037 0.0
C1342 C 0.15419 0.4215 0.66307 0.0
C1343 C 0.14708 0.4091 0.67393 0.0
H1344 H 0.16247 0.44602 0.66193 0.0
H1345 H 0.09522 0.32552 0.76801 0.0
H1346 H 0.20377 0.68088 0.30864 0.0
H1347 H 0.18248 0.65677 0.3085 0.0
H1348 H 0.12569 0.68368 0.31633 0.0
H1349 H 0.14686 0.70783 0.31646 0.0
H1350 H 0.12616 0.65875 0.33823 0.0
H1351 H 0.13773 0.66801 0.27504 0.0
H1352 H 0.15906 0.67292 0.24782 0.0
H1353 H 0.1914 0.62934 0.25618 0.0
H1354 H 0.17045 0.62427 0.2836 0.0
H1355 H 0.05008 0.59942 0.31809 0.0
H1356 H 0.07186 0.62328 0.31774 0.0
H1357 H 0.12797 0.59565 0.30967 0.0
H1358 H 0.10627 0.57174 0.30999 0.0
H1359 H 0.12825 0.62074 0.288 0.0
H1360 H 0.11677 0.61135 0.35101 0.0
H1361 H 0.0956 0.60633 0.3783 0.0
H1362 H 0.06339 0.65002 0.37043 0.0
H1363 H 0.08417 0.65521 0.34295 0.0
C1364 C 0.18672 0.68169 0.31014 0.0
C1365 C 0.17704 0.69631 0.31255 0.0
C1366 C 0.17456 0.66788 0.31007 0.0
C1367 C 0.15243 0.6684 0.31224 0.0
C1368 C 0.14274 0.68297 0.31468 0.0
C1369 C 0.15488 0.69677 0.3148 0.0
C1370 C 0.13939 0.65376 0.31224 0.0
C1371 C 0.1264 0.65055 0.32713 0.0
C1372 C 0.1401 0.64283 0.29798 0.0
C1373 C 0.15267 0.64584 0.28147 0.0
C1374 C 0.14951 0.65954 0.27115 0.0
C1375 C 0.16151 0.66234 0.25567 0.0
C1376 C 0.17662 0.65147 0.2503 0.0
C1377 C 0.17971 0.63776 0.26037 0.0
C1378 C 0.16777 0.63491 0.27587 0.0
C1379 C 0.06708 0.5984 0.3164 0.0
C1380 C 0.07643 0.58365 0.31413 0.0
C1381 C 0.07952 0.61206 0.31618 0.0
C1382 C 0.10161 0.61127 0.31389 0.0
C1383 C 0.11096 0.59658 0.31144 0.0
C1384 C 0.09852 0.58291 0.31158 0.0
C1385 C 0.11495 0.62576 0.31396 0.0
C1386 C 0.12801 0.62894 0.2991 0.0
C1387 C 0.11434 0.63665 0.32826 0.0
C1388 C 0.10188 0.63359 0.34483 0.0
C1389 C 0.10506 0.61983 0.35503 0.0
C1390 C 0.09315 0.61696 0.37054 0.0
C1391 C 0.07812 0.62783 0.37607 0.0
C1392 C 0.07501 0.64161 0.36612 0.0
C1393 C 0.08687 0.64452 0.35058 0.0
H1394 H 0.06892 0.62559 0.38809 0.0
H1395 H 0.18589 0.65366 0.23831 0.0
H1396 H 0.81944 0.83204 0.65666 0.0
H1397 H 0.81818 0.85552 0.63766 0.0
H1398 H 0.74982 0.85556 0.64094 0.0
H1399 H 0.75091 0.83173 0.65953 0.0
H1400 H 0.76268 0.86079 0.60682 0.0
H1401 H 0.78007 0.88149 0.6652 0.0
H1402 H 0.8005 0.88364 0.69364 0.0
H1403 H 0.85678 0.89533 0.66399 0.0
H1404 H 0.83674 0.89304 0.63534 0.0
H1405 H 0.74769 0.93712 0.57053 0.0
H1406 H 0.74819 0.91406 0.59022 0.0
H1407 H 0.81668 0.91417 0.58924 0.0
H1408 H 0.81635 0.93767 0.57019 0.0
H1409 H 0.80328 0.90896 0.62249 0.0
H1410 H 0.78654 0.88784 0.56423 0.0
H1411 H 0.76656 0.88553 0.53557 0.0
H1412 H 0.70969 0.87439 0.56467 0.0
H1413 H 0.72928 0.87684 0.59353 0.0
C1414 C 0.80411 0.83696 0.65326 0.0
C1415 C 0.78527 0.82996 0.65963 0.0
C1416 C 0.80343 0.8505 0.64252 0.0
C1417 C 0.78391 0.85742 0.63802 0.0
C1418 C 0.76507 0.85046 0.6443 0.0
C1419 C 0.76573 0.83691 0.65505 0.0
C1420 C 0.78318 0.87178 0.6265 0.0
C1421 C 0.7713 0.8714 0.61038 0.0
C1422 C 0.79487 0.88551 0.6309 0.0
C1423 C 0.80694 0.88695 0.64811 0.0
C1424 C 0.79683 0.8844 0.66473 0.0
C1425 C 0.80834 0.88567 0.68089 0.0
C1426 C 0.82994 0.88958 0.68062 0.0
C1427 C 0.84006 0.89228 0.66418 0.0
C1428 C 0.82862 0.89102 0.64798 0.0
C1429 C 0.76289 0.93235 0.57462 0.0
C1430 C 0.78199 0.93929 0.56871 0.0
C1431 C 0.76314 0.91903 0.58574 0.0
C1432 C 0.78247 0.91222 0.59105 0.0
C1433 C 0.80156 0.91916 0.58528 0.0
C1434 C 0.80133 0.93252 0.57422 0.0
C1435 C 0.78281 0.89797 0.60277 0.0
C1436 C 0.79462 0.89836 0.61893 0.0
C1437 C 0.77113 0.88423 0.59837 0.0
C1438 C 0.75933 0.88267 0.58104 0.0
C1439 C 0.76974 0.88501 0.56452 0.0
C1440 C 0.75849 0.88366 0.54824 0.0
C1441 C 0.73685 0.87985 0.5483 0.0
C1442 C 0.72644 0.87736 0.56464 0.0
C1443 C 0.73761 0.87871 0.58096 0.0
H1444 H 0.72817 0.87881 0.53568 0.0
H1445 H 0.83882 0.89055 0.69314 0.0
H1446 H 0.68334 0.22206 0.21397 0.0
H1447 H 0.66004 0.22426 0.18758 0.0
H1448 H 0.66354 0.27466 0.19069 0.0
H1449 H 0.68626 0.27256 0.21759 0.0
H1450 H 0.62357 0.26515 0.18432 0.0
H1451 H 0.69158 0.25459 0.15898 0.0
H1452 H 0.72509 0.24029 0.15523 0.0
H1453 H 0.69012 0.19893 0.14011 0.0
H1454 H 0.65638 0.21292 0.14401 0.0
H1455 H 0.57897 0.27937 0.09713 0.0
H1456 H 0.60273 0.27833 0.12338 0.0
H1457 H 0.60095 0.22783 0.12207 0.0
H1458 H 0.57785 0.22876 0.09539 0.0
H1459 H 0.64059 0.23816 0.12729 0.0
H1460 H 0.57253 0.24866 0.15324 0.0
H1461 H 0.53908 0.26304 0.15694 0.0
H1462 H 0.57423 0.30464 0.17081 0.0
H1463 H 0.60792 0.29056 0.16695 0.0
C1464 C 0.67901 0.23363 0.20918 0.0
C1465 C 0.68671 0.24714 0.21795 0.0
C1466 C 0.66586 0.23487 0.19394 0.0
C1467 C 0.66024 0.24963 0.18698 0.0
C1468 C 0.66773 0.26314 0.19576 0.0
C1469 C 0.68088 0.26192 0.21105 0.0
C1470 C 0.64636 0.25091 0.17067 0.0
C1471 C 0.62745 0.25944 0.17176 0.0
C1472 C 0.65117 0.2432 0.15438 0.0
C1473 C 0.67145 0.23477 0.15195 0.0
C1474 C 0.69103 0.24241 0.15499 0.0
C1475 C 0.71007 0.23436 0.15281 0.0
C1476 C 0.70973 0.2187 0.14747 0.0
C1477 C 0.69036 0.21106 0.14426 0.0
C1478 C 0.67127 0.21905 0.14643 0.0
C1479 C 0.58375 0.26803 0.10233 0.0
C1480 C 0.57643 0.25415 0.09413 0.0
C1481 C 0.59718 0.26746 0.11747 0.0
C1482 C 0.60345 0.253 0.12486 0.0
C1483 C 0.59627 0.23912 0.11666 0.0
C1484 C 0.58288 0.23968 0.1015 0.0
C1485 C 0.61772 0.25229 0.14098 0.0
C1486 C 0.63672 0.24389 0.13983 0.0
C1487 C 0.61299 0.26013 0.15721 0.0
C1488 C 0.59275 0.26859 0.15963 0.0
C1489 C 0.57313 0.2609 0.15694 0.0
C1490 C 0.55413 0.269 0.15909 0.0
C1491 C 0.55453 0.28476 0.16406 0.0
C1492 C 0.57394 0.29244 0.16694 0.0
C1493 C 0.593 0.28441 0.16479 0.0
H1494 H 0.5398 0.291 0.16572 0.0
H1495 H 0.72449 0.21249 0.1458 0.0
H1496 H 0.27951 0.18885 0.65661 0.0
H1497 H 0.28131 0.16516 0.63834 0.0
H1498 H 0.21314 0.16524 0.63191 0.0
H1499 H 0.21115 0.1886 0.65064 0.0
H1500 H 0.22707 0.13625 0.63883 0.0
H1501 H 0.24597 0.17819 0.59812 0.0
H1502 H 0.26653 0.20128 0.58793 0.0
H1503 H 0.32379 0.17432 0.58935 0.0
H1504 H 0.3036 0.15111 0.59979 0.0
H1505 H 0.21585 0.08445 0.56512 0.0
H1506 H 0.21573 0.10742 0.58459 0.0
H1507 H 0.28404 0.10569 0.58907 0.0
H1508 H 0.28428 0.08268 0.56959 0.0
H1509 H 0.27118 0.13514 0.58377 0.0
H1510 H 0.25235 0.093 0.62365 0.0
H1511 H 0.23194 0.06984 0.63384 0.0
H1512 H 0.17487 0.09702 0.6342 0.0
H1513 H 0.19489 0.1203 0.62376 0.0
C1514 C 0.26487 0.18374 0.65147 0.0
C1515 C 0.24518 0.1907 0.65504 0.0
C1516 C 0.26595 0.17028 0.64087 0.0
C1517 C 0.24738 0.16352 0.63353 0.0
C1518 C 0.22769 0.17027 0.63734 0.0
C1519 C 0.2266 0.18372 0.64793 0.0
C1520 C 0.2484 0.14944 0.62186 0.0
C1521 C 0.23652 0.13607 0.62668 0.0
C1522 C 0.26116 0.14904 0.60624 0.0
C1523 C 0.27331 0.16296 0.59991 0.0
C1524 C 0.26297 0.17722 0.59639 0.0
C1525 C 0.27455 0.19032 0.59055 0.0
C1526 C 0.29646 0.18928 0.58804 0.0
C1527 C 0.30682 0.17512 0.59133 0.0
C1528 C 0.29532 0.16198 0.59719 0.0
C1529 C 0.23085 0.08887 0.57036 0.0
C1530 C 0.25007 0.08165 0.56585 0.0
C1531 C 0.23075 0.10202 0.58149 0.0
C1532 C 0.24985 0.10818 0.58852 0.0
C1533 C 0.2691 0.10116 0.58383 0.0
C1534 C 0.26921 0.08802 0.57264 0.0
C1535 C 0.24973 0.12198 0.60067 0.0
C1536 C 0.26178 0.13529 0.59596 0.0
C1537 C 0.23716 0.12232 0.6164 0.0
C1538 C 0.22509 0.10836 0.62276 0.0
C1539 C 0.23541 0.09401 0.62577 0.0
C1540 C 0.22392 0.08087 0.63161 0.0
C1541 C 0.20211 0.08195 0.63462 0.0
C1542 C 0.19176 0.09619 0.63184 0.0
C1543 C 0.20318 0.10937 0.62598 0.0
H1544 H 0.19324 0.07176 0.63915 0.0
H1545 H 0.3054 0.19944 0.58351 0.0
H1546 H 0.30906 0.75559 0.18766 0.0
H1547 H 0.3349 0.75771 0.1634 0.0
H1548 H 0.38431 0.7684 0.20223 0.0
H1549 H 0.35847 0.76626 0.22667 0.0
H1550 H 0.38777 0.78678 0.17231 0.0
H1551 H 0.3801 0.73199 0.18488 0.0
H1552 H 0.36064 0.70714 0.18971 0.0
H1553 H 0.33526 0.70971 0.13579 0.0
H1554 H 0.35433 0.73471 0.13072 0.0
H1555 H 0.47255 0.77165 0.11108 0.0
H1556 H 0.44863 0.77135 0.13693 0.0
H1557 H 0.39582 0.76029 0.10161 0.0
H1558 H 0.41953 0.76069 0.07575 0.0
H1559 H 0.3957 0.74179 0.13101 0.0
H1560 H 0.40282 0.79708 0.11887 0.0
H1561 H 0.42244 0.8219 0.11422 0.0
H1562 H 0.4494 0.81817 0.16751 0.0
H1563 H 0.43014 0.79321 0.17239 0.0
C1564 C 0.32544 0.75833 0.19108 0.0
C1565 C 0.33173 0.76058 0.20914 0.0
C1566 C 0.3402 0.75957 0.17718 0.0
C1567 C 0.36163 0.76296 0.18101 0.0
C1568 C 0.36787 0.76573 0.19896 0.0
C1569 C 0.35307 0.76454 0.2129 0.0
C1570 C 0.37751 0.76324 0.16628 0.0
C1571 C 0.38974 0.77686 0.16344 0.0
C1572 C 0.37988 0.75039 0.15452 0.0
C1573 C 0.3685 0.7353 0.15748 0.0
C1574 C 0.37025 0.72732 0.1741 0.0
C1575 C 0.35931 0.71319 0.17687 0.0
C1576 C 0.34669 0.70686 0.16308 0.0
C1577 C 0.34502 0.71463 0.14647 0.0
C1578 C 0.35591 0.72877 0.14363 0.0
C1579 C 0.4558 0.76933 0.10879 0.0
C1580 C 0.44799 0.76616 0.09132 0.0
C1581 C 0.44215 0.76914 0.12359 0.0
C1582 C 0.42039 0.76589 0.12121 0.0
C1583 C 0.41256 0.76276 0.1038 0.0
C1584 C 0.42617 0.76293 0.08903 0.0
C1585 C 0.40575 0.76541 0.13684 0.0
C1586 C 0.39379 0.7517 0.1399 0.0
C1587 C 0.4037 0.77816 0.1488 0.0
C1588 C 0.41522 0.7932 0.14592 0.0
C1589 C 0.41307 0.80149 0.12954 0.0
C1590 C 0.42409 0.81559 0.12688 0.0
C1591 C 0.43721 0.82158 0.14054 0.0
C1592 C 0.43926 0.8135 0.15693 0.0
C1593 C 0.42828 0.79938 0.15965 0.0
H1594 H 0.44573 0.83251 0.13845 0.0
H1595 H 0.33823 0.69593 0.16526 0.0
H1596 H 0.7519 0.18852 0.37074 0.0
H1597 H 0.75021 0.16488 0.38959 0.0
H1598 H 0.81849 0.16142 0.38828 0.0
H1599 H 0.82025 0.18475 0.369 0.0
H1600 H 0.80025 0.13323 0.38371 0.0
H1601 H 0.79331 0.17577 0.42517 0.0
H1602 H 0.77776 0.19991 0.43719 0.0
H1603 H 0.71759 0.17643 0.44312 0.0
H1604 H 0.73272 0.1522 0.43089 0.0
H1605 H 0.8165 0.08148 0.45784 0.0
H1606 H 0.8163 0.1044 0.43791 0.0
H1607 H 0.74785 0.10486 0.43891 0.0
H1608 H 0.74784 0.08171 0.45858 0.0
H1609 H 0.76502 0.13423 0.44326 0.0
H1610 H 0.77252 0.09139 0.40255 0.0
H1611 H 0.78842 0.06727 0.39082 0.0
H1612 H 0.84794 0.09137 0.38372 0.0
H1613 H 0.83248 0.1156 0.39567 0.0
C1614 C 0.76654 0.18264 0.3743 0.0
C1615 C 0.78623 0.1886 0.36841 0.0
C1616 C 0.76557 0.1692 0.38523 0.0
C1617 C 0.78425 0.16147 0.39056 0.0
C1618 C 0.80387 0.16721 0.38442 0.0
C1619 C 0.80486 0.18064 0.37351 0.0
C1620 C 0.7834 0.14745 0.4026 0.0
C1621 C 0.79276 0.13351 0.39682 0.0
C1622 C 0.77321 0.14768 0.41955 0.0
C1623 C 0.76409 0.16222 0.42693 0.0
C1624 C 0.77671 0.17579 0.4289 0.0
C1625 C 0.76798 0.18948 0.43577 0.0
C1626 C 0.74668 0.18972 0.44087 0.0
C1627 C 0.73408 0.17624 0.43914 0.0
C1628 C 0.74272 0.16252 0.43225 0.0
C1629 C 0.80137 0.08632 0.45369 0.0
C1630 C 0.78218 0.07964 0.45978 0.0
C1631 C 0.80129 0.09948 0.44233 0.0
C1632 C 0.78205 0.10626 0.43676 0.0
C1633 C 0.76288 0.09983 0.44305 0.0
C1634 C 0.76293 0.08662 0.45437 0.0
C1635 C 0.78198 0.12006 0.4244 0.0
C1636 C 0.77244 0.13395 0.43012 0.0
C1637 C 0.79205 0.1198 0.40742 0.0
C1638 C 0.80139 0.10527 0.40017 0.0
C1639 C 0.78905 0.09151 0.39863 0.0
C1640 C 0.79797 0.07783 0.39192 0.0
C1641 C 0.81919 0.07778 0.38658 0.0
C1642 C 0.83151 0.09143 0.38789 0.0
C1643 C 0.82267 0.10514 0.39462 0.0
H1644 H 0.82607 0.06717 0.38138 0.0
H1645 H 0.73995 0.20033 0.4462 0.0
H1646 H 0.34195 0.22425 0.81241 0.0
H1647 H 0.36437 0.22657 0.83931 0.0
H1648 H 0.36479 0.27689 0.83337 0.0
H1649 H 0.34296 0.27462 0.80597 0.0
H1650 H 0.40371 0.2666 0.84141 0.0
H1651 H 0.33434 0.25871 0.86548 0.0
H1652 H 0.2995 0.24574 0.8692 0.0
H1653 H 0.33024 0.20364 0.88725 0.0
H1654 H 0.3653 0.2163 0.88339 0.0
H1655 H 0.44598 0.28029 0.92998 0.0
H1656 H 0.42317 0.27991 0.90307 0.0
H1657 H 0.42276 0.22939 0.90423 0.0
H1658 H 0.44583 0.22964 0.93092 0.0
H1659 H 0.38302 0.24112 0.89908 0.0
H1660 H 0.45255 0.24918 0.87394 0.0
H1661 H 0.48715 0.26257 0.87048 0.0
H1662 H 0.45553 0.30501 0.85484 0.0
H1663 H 0.42071 0.29192 0.85846 0.0
C1664 C 0.34695 0.23582 0.81669 0.0
C1665 C 0.34063 0.24925 0.80698 0.0
C1666 C 0.3596 0.23714 0.83222 0.0
C1667 C 0.36606 0.25192 0.83853 0.0
C1668 C 0.35992 0.26536 0.82881 0.0
C1669 C 0.34729 0.26405 0.81324 0.0
C1670 C 0.37944 0.25328 0.85512 0.0
C1671 C 0.39902 0.26124 0.85409 0.0
C1672 C 0.37353 0.24606 0.87162 0.0
C1673 C 0.35246 0.23841 0.87399 0.0
C1674 C 0.33368 0.24665 0.8701 0.0
C1675 C 0.31389 0.23936 0.87226 0.0
C1676 C 0.31266 0.22386 0.87842 0.0
C1677 C 0.33122 0.21564 0.88247 0.0
C1678 C 0.35106 0.22287 0.88031 0.0
C1679 C 0.44128 0.26909 0.92439 0.0
C1680 C 0.44779 0.25499 0.93266 0.0
C1681 C 0.42816 0.26889 0.90903 0.0
C1682 C 0.42134 0.25461 0.90157 0.0
C1683 C 0.42775 0.24054 0.90979 0.0
C1684 C 0.44089 0.24072 0.92511 0.0
C1685 C 0.40735 0.25428 0.8853 0.0
C1686 C 0.38764 0.24653 0.8864 0.0
C1687 C 0.4131 0.26175 0.86892 0.0
C1688 C 0.43402 0.26962 0.86666 0.0
C1689 C 0.45297 0.26141 0.86991 0.0
C1690 C 0.47262 0.26893 0.86789 0.0
C1691 C 0.47354 0.28464 0.86249 0.0
C1692 C 0.4548 0.29285 0.85905 0.0
C1693 C 0.4351 0.28538 0.86107 0.0
H1694 H 0.48877 0.29045 0.86093 0.0
H1695 H 0.29732 0.21824 0.88008 0.0
H1696 H 0.25777 0.82689 0.37858 0.0
H1697 H 0.25442 0.84791 0.40064 0.0
H1698 H 0.25984 0.88233 0.35799 0.0
H1699 H 0.26305 0.86144 0.3359 0.0
H1700 H 0.28545 0.88954 0.38579 0.0
H1701 H 0.21211 0.87413 0.37816 0.0
H1702 H 0.18184 0.8556 0.3779 0.0
H1703 H 0.19293 0.84491 0.4339 0.0
H1704 H 0.22347 0.86323 0.43442 0.0
H1705 H 0.25553 0.95807 0.43072 0.0
H1706 H 0.25648 0.93568 0.41045 0.0
H1707 H 0.2493 0.90417 0.45581 0.0
H1708 H 0.24814 0.92662 0.47621 0.0
H1709 H 0.22529 0.89454 0.42802 0.0
H1710 H 0.29789 0.91014 0.43609 0.0
H1711 H 0.32836 0.92849 0.43668 0.0
H1712 H 0.31919 0.93836 0.38025 0.0
H1713 H 0.28847 0.92023 0.37939 0.0
C1714 C 0.25796 0.83893 0.37386 0.0
C1715 C 0.26078 0.84246 0.35546 0.0
C1716 C 0.25607 0.85094 0.3865 0.0
C1717 C 0.25679 0.86672 0.38098 0.0
C1718 C 0.25935 0.87026 0.3626 0.0
C1719 C 0.26126 0.85828 0.34998 0.0
C1720 C 0.25558 0.87962 0.39431 0.0
C1721 C 0.27215 0.89073 0.39486 0.0
C1722 C 0.23859 0.88092 0.40657 0.0
C1723 C 0.22022 0.86993 0.40628 0.0
C1724 C 0.20821 0.86773 0.39038 0.0
C1725 C 0.19098 0.85728 0.39019 0.0
C1726 C 0.1855 0.84905 0.40586 0.0
C1727 C 0.19721 0.85128 0.42176 0.0
C1728 C 0.21447 0.8617 0.42202 0.0
C1729 C 0.25427 0.94637 0.43641 0.0
C1730 C 0.25198 0.94412 0.45511 0.0
C1731 C 0.2548 0.93357 0.4248 0.0
C1732 C 0.25334 0.9182 0.43162 0.0
C1733 C 0.25051 0.91591 0.45023 0.0
C1734 C 0.24983 0.92874 0.46187 0.0
C1735 C 0.25501 0.90458 0.41928 0.0
C1736 C 0.2386 0.89332 0.41897 0.0
C1737 C 0.27221 0.90307 0.40727 0.0
C1738 C 0.29076 0.91392 0.40772 0.0
C1739 C 0.30228 0.91631 0.42384 0.0
C1740 C 0.31961 0.92666 0.42421 0.0
C1741 C 0.32568 0.93461 0.40852 0.0
C1742 C 0.31446 0.9322 0.3924 0.0
C1743 C 0.2971 0.92188 0.39196 0.0
H1744 H 0.3391 0.94263 0.40884 0.0
H1745 H 0.17215 0.84097 0.40569 0.0
H1746 H 0.65699 0.76575 0.7941 0.0
H1747 H 0.63407 0.76409 0.82049 0.0
H1748 H 0.68854 0.77105 0.85539 0.0
H1749 H 0.71159 0.77254 0.82903 0.0
H1750 H 0.66323 0.74914 0.8691 0.0
H1751 H 0.65361 0.80106 0.84531 0.0
H1752 H 0.64558 0.82088 0.8219 0.0
H1753 H 0.58299 0.80131 0.81496 0.0
H1754 H 0.59076 0.78122 0.83816 0.0
H1755 H 0.60791 0.77066 0.94818 0.0
H1756 H 0.63058 0.77059 0.9216 0.0
H1757 H 0.57583 0.76144 0.88773 0.0
H1758 H 0.55295 0.7619 0.91422 0.0
H1759 H 0.60096 0.78409 0.87342 0.0
H1760 H 0.61073 0.73246 0.89807 0.0
H1761 H 0.6191 0.71301 0.92182 0.0
H1762 H 0.68184 0.7326 0.9276 0.0
H1763 H 0.67375 0.75231 0.90406 0.0
C1764 C 0.66408 0.76698 0.80739 0.0
C1765 C 0.6861 0.76938 0.80945 0.0
C1766 C 0.65095 0.76603 0.82248 0.0
C1767 C 0.6595 0.7677 0.83995 0.0
C1768 C 0.68155 0.76974 0.84206 0.0
C1769 C 0.69472 0.77056 0.82698 0.0
C1770 C 0.64545 0.7675 0.85599 0.0
C1771 C 0.64978 0.75692 0.87014 0.0
C1772 C 0.6276 0.77742 0.85723 0.0
C1773 C 0.62284 0.78954 0.84335 0.0
C1774 C 0.63819 0.80091 0.8387 0.0
C1775 C 0.63368 0.8122 0.82548 0.0
C1776 C 0.6138 0.81233 0.81691 0.0
C1777 C 0.59838 0.80118 0.82159 0.0
C1778 C 0.60283 0.78985 0.83478 0.0
C1779 C 0.60066 0.76874 0.93506 0.0
C1780 C 0.5786 0.76628 0.93334 0.0
C1781 C 0.61368 0.76855 0.91989 0.0
C1782 C 0.60496 0.76584 0.90267 0.0
C1783 C 0.58293 0.76349 0.90088 0.0
C1784 C 0.5699 0.76364 0.91606 0.0
C1785 C 0.61876 0.76574 0.88651 0.0
C1786 C 0.61439 0.77628 0.87235 0.0
C1787 C 0.63662 0.75584 0.88531 0.0
C1788 C 0.64156 0.74395 0.89941 0.0
C1789 C 0.62626 0.73269 0.9045 0.0
C1790 C 0.63096 0.72161 0.91791 0.0
C1791 C 0.65097 0.72159 0.92625 0.0
C1792 C 0.66634 0.73264 0.92115 0.0
C1793 C 0.66171 0.74376 0.90776 0.0
H1794 H 0.65458 0.713 0.93662 0.0
H1795 H 0.61034 0.82108 0.80668 0.0
loop_
_geom_bond_atom_site_label_1
_geom_bond_atom_site_label_2
_geom_bond_distance
_geom_bond_site_symmetry_2
_ccdc_geom_bond_type
C0 C1 1.264 . S
C0 C5 1.479 . S
C0 C10 1.465 . S
C1 C0 1.264 . S
C1 C3 1.339 . S
C1 H28 0.931 . S
C2 C3 1.395 . S
C2 C4 1.320 . S
C3 C1 1.339 . S
C3 C2 1.395 . S
C3 H29 0.929 . S
C4 C2 1.320 . S
C4 C5 1.405 . S
C4 H30 0.930 . S
C5 C0 1.479 . S
C5 C4 1.405 . S
C5 H31 0.931 . S
U6 O7 2.454 . S
U6 O8 2.458 . S
U6 C9 2.984 . S
U6 C10 2.847 . S
U6 C23 2.882 . S
U6 O24 2.441 . S
U6 O25 2.420 . S
U6 O26 2.455 . S
U6 O27 2.449 . S
O7 U6 2.454 . S
O7 C9 1.353 . S
O8 U6 2.458 . S
O8 C9 1.286 . S
C9 U6 2.984 . S
C9 O7 1.353 . S
C9 O8 1.286 . S
C9 C11 1.363 . S
C10 C0 1.465 . S
C10 U6 2.847 . S
C10 O24 1.249 . S
C10 O25 1.202 . S
C11 C9 1.363 . S
C11 C13 1.408 . S
C11 C16 1.342 . S
C12 C13 1.310 . S
C12 C15 1.461 . S
C12 H32 0.932 . S
C13 C11 1.408 . S
C13 C12 1.310 . S
C13 H33 0.930 . S
C14 C15 1.474 . S
C14 C16 1.285 . S
C14 H34 0.929 . S
C15 C12 1.461 . S
C15 C14 1.474 . S
C16 C11 1.342 . S
C16 C14 1.285 . S
C16 H35 0.930 . S
C17 C20 1.424 . S
C17 C22 1.245 . S
C17 C23 1.428 . S
C18 C21 1.260 . S
C18 C22 1.477 . S
C18 H36 0.932 . S
C19 C20 1.384 . S
C19 C21 1.479 . S
C19 H37 0.929 . S
C20 C17 1.424 . S
C20 C19 1.384 . S
C20 H38 0.928 . S
C21 C18 1.260 . S
C21 C19 1.479 . S
C22 C17 1.245 . S
C22 C18 1.477 . S
C22 H39 0.932 . S
C23 U6 2.882 . S
C23 C17 1.428 . S
C23 O26 1.301 . S
C23 O27 1.282 . S
O24 U6 2.441 . S
O24 C10 1.249 . S
O25 U6 2.420 . S
O25 C10 1.202 . S
O26 U6 2.455 . S
O26 C23 1.301 . S
O27 U6 2.449 . S
O27 C23 1.282 . S
H28 C1 0.931 . S
H29 C3 0.929 . S
H30 C4 0.930 . S
H31 C5 0.931 . S
H32 C12 0.932 . S
H33 C13 0.930 . S
H34 C14 0.929 . S
H35 C16 0.930 . S
H36 C18 0.932 . S
H37 C19 0.929 . S
H38 C20 0.928 . S
H39 C22 0.932 . S
C40 C41 1.264 . S
C40 C45 1.479 . S
C40 C50 1.465 . S
C41 C40 1.264 . S
C41 C43 1.339 . S
C41 H68 0.931 . S
C42 C43 1.395 . S
C42 C44 1.320 . S
C43 C41 1.339 . S
C43 C42 1.395 . S
C43 H69 0.929 . S
C44 C42 1.320 . S
C44 C45 1.405 . S
C44 H70 0.930 . S
C45 C40 1.479 . S
C45 C44 1.405 . S
C45 H71 0.931 . S
U46 O47 2.454 . S
U46 O48 2.458 . S
U46 C49 2.984 . S
U46 C50 2.847 . S
U46 C63 2.882 . S
U46 O64 2.441 . S
U46 O65 2.420 . S
U46 O66 2.455 . S
U46 O67 2.449 . S
O47 U46 2.454 . S
O47 C49 1.353 . S
O48 U46 2.458 . S
O48 C49 1.286 . S
C49 U46 2.984 . S
C49 O47 1.353 . S
C49 O48 1.286 . S
C49 C51 1.363 . S
C50 C40 1.465 . S
C50 U46 2.847 . S
C50 O64 1.249 . S
C50 O65 1.202 . S
C51 C49 1.363 . S
C51 C53 1.408 . S
C51 C56 1.342 . S
C52 C53 1.310 . S
C52 C55 1.461 . S
C52 H72 0.932 . S
C53 C51 1.408 . S
C53 C52 1.310 . S
C53 H73 0.930 . S
C54 C55 1.474 . S
C54 C56 1.285 . S
C54 H74 0.929 . S
C55 C52 1.461 . S
C55 C54 1.474 . S
C56 C51 1.342 . S
C56 C54 1.285 . S
C56 H75 0.930 . S
C57 C60 1.424 . S
C57 C62 1.245 . S
C57 C63 1.428 . S
C58 C61 1.260 . S
C58 C62 1.477 . S
C58 H76 0.932 . S
C59 C60 1.384 . S
C59 C61 1.479 . S
C59 H77 0.929 . S
C60 C57 1.424 . S
C60 C59 1.384 . S
C60 H78 0.928 . S
C61 C58 1.260 . S
C61 C59 1.479 . S
C62 C57 1.245 . S
C62 C58 1.477 . S
C62 H79 0.932 . S
C63 U46 2.882 . S
C63 C57 1.428 . S
C63 O66 1.301 . S
C63 O67 1.282 . S
O64 U46 2.441 . S
O64 C50 1.249 . S
O65 U46 2.420 . S
O65 C50 1.202 . S
O66 U46 2.455 . S
O66 C63 1.301 . S
O67 U46 2.449 . S
O67 C63 1.282 . S
H68 C41 0.931 . S
H69 C43 0.929 . S
H70 C44 0.930 . S
H71 C45 0.931 . S
H72 C52 0.932 . S
H73 C53 0.930 . S
H74 C54 0.929 . S
H75 C56 0.930 . S
H76 C58 0.932 . S
H77 C59 0.929 . S
H78 C60 0.928 . S
H79 C62 0.932 . S
C80 C81 1.264 . S
C80 C85 1.479 . S
C80 C90 1.465 . S
C81 C80 1.264 . S
C81 C83 1.339 . S
C81 H108 0.931 . S
C82 C83 1.395 . S
C82 C84 1.320 . S
C83 C81 1.339 . S
C83 C82 1.395 . S
C83 H109 0.929 . S
C84 C82 1.320 . S
C84 C85 1.405 . S
C84 H110 0.930 . S
C85 C80 1.479 . S
C85 C84 1.405 . S
C85 H111 0.931 . S
U86 O87 2.454 . S
U86 O88 2.458 . S
U86 C89 2.984 . S
U86 C90 2.847 . S
U86 C103 2.882 . S
U86 O104 2.441 . S
U86 O105 2.420 . S
U86 O106 2.455 . S
U86 O107 2.449 . S
O87 U86 2.454 . S
O87 C89 1.353 . S
O88 U86 2.458 . S
O88 C89 1.286 . S
C89 U86 2.984 . S
C89 O87 1.353 . S
C89 O88 1.286 . S
C89 C91 1.363 . S
C90 C80 1.465 . S
C90 U86 2.847 . S
C90 O104 1.249 . S
C90 O105 1.202 . S
C91 C89 1.363 . S
C91 C93 1.408 . S
C91 C96 1.342 . S
C92 C93 1.310 . S
C92 C95 1.461 . S
C92 H112 0.932 . S
C93 C91 1.408 . S
C93 C92 1.310 . S
C93 H113 0.930 . S
C94 C95 1.474 . S
C94 C96 1.285 . S
C94 H114 0.929 . S
C95 C92 1.461 . S
C95 C94 1.474 . S
C96 C91 1.342 . S
C96 C94 1.285 . S
C96 H115 0.930 . S
C97 C100 1.424 . S
C97 C102 1.245 . S
C97 C103 1.428 . S
C98 C101 1.260 . S
C98 C102 1.477 . S
C98 H116 0.932 . S
C99 C100 1.384 . S
C99 C101 1.479 . S
C99 H117 0.929 . S
C100 C97 1.424 . S
C100 C99 1.384 . S
C100 H118 0.928 . S
C101 C98 1.260 . S
C101 C99 1.479 . S
C102 C97 1.245 . S
C102 C98 1.477 . S
C102 H119 0.932 . S
C103 U86 2.882 . S
C103 C97 1.428 . S
C103 O106 1.301 . S
C103 O107 1.282 . S
O104 U86 2.441 . S
O104 C90 1.249 . S
O105 U86 2.420 . S
O105 C90 1.202 . S
O106 U86 2.455 . S
O106 C103 1.301 . S
O107 U86 2.449 . S
O107 C103 1.282 . S
H108 C81 0.931 . S
H109 C83 0.929 . S
H110 C84 0.930 . S
H111 C85 0.931 . S
H112 C92 0.932 . S
H113 C93 0.930 . S
H114 C94 0.929 . S
H115 C96 0.930 . S
H116 C98 0.932 . S
H117 C99 0.929 . S
H118 C100 0.928 . S
H119 C102 0.932 . S
C120 C121 1.264 . S
C120 C125 1.479 . S
C120 C130 1.465 . S
C121 C120 1.264 . S
C121 C123 1.339 . S
C121 H148 0.931 . S
C122 C123 1.395 . S
C122 C124 1.320 . S
C123 C121 1.339 . S
C123 C122 1.395 . S
C123 H149 0.929 . S
C124 C122 1.320 . S
C124 C125 1.405 . S
C124 H150 0.930 . S
C125 C120 1.479 . S
C125 C124 1.405 . S
C125 H151 0.931 . S
U126 O127 2.454 . S
U126 O128 2.458 . S
U126 C129 2.984 . S
U126 C130 2.847 . S
U126 C143 2.882 . S
U126 O144 2.441 . S
U126 O145 2.420 . S
U126 O146 2.455 . S
U126 O147 2.449 . S
O127 U126 2.454 . S
O127 C129 1.353 . S
O128 U126 2.458 . S
O128 C129 1.286 . S
C129 U126 2.984 . S
C129 O127 1.353 . S
C129 O128 1.286 . S
C129 C131 1.363 . S
C130 C120 1.465 . S
C130 U126 2.847 . S
C130 O144 1.249 . S
C130 O145 1.202 . S
C131 C129 1.363 . S
C131 C133 1.408 . S
C131 C136 1.342 . S
C132 C133 1.310 . S
C132 C135 1.461 . S
C132 H152 0.932 . S
C133 C131 1.408 . S
C133 C132 1.310 . S
C133 H153 0.930 . S
C134 C135 1.474 . S
C134 C136 1.285 . S
C134 H154 0.929 . S
C135 C132 1.461 . S
C135 C134 1.474 . S
C136 C131 1.342 . S
C136 C134 1.285 . S
C136 H155 0.930 . S
C137 C140 1.424 . S
C137 C142 1.245 . S
C137 C143 1.428 . S
C138 C141 1.260 . S
C138 C142 1.477 . S
C138 H156 0.932 . S
C139 C140 1.384 . S
C139 C141 1.479 . S
C139 H157 0.929 . S
C140 C137 1.424 . S
C140 C139 1.384 . S
C140 H158 0.928 . S
C141 C138 1.260 . S
C141 C139 1.479 . S
C142 C137 1.245 . S
C142 C138 1.477 . S
C142 H159 0.932 . S
C143 U126 2.882 . S
C143 C137 1.428 . S
C143 O146 1.301 . S
C143 O147 1.282 . S
O144 U126 2.441 . S
O144 C130 1.249 . S
O145 U126 2.420 . S
O145 C130 1.202 . S
O146 U126 2.455 . S
O146 C143 1.301 . S
O147 U126 2.449 . S
O147 C143 1.282 . S
H148 C121 0.931 . S
H149 C123 0.929 . S
H150 C124 0.930 . S
H151 C125 0.931 . S
H152 C132 0.932 . S
H153 C133 0.930 . S
H154 C134 0.929 . S
H155 C136 0.930 . S
H156 C138 0.932 . S
H157 C139 0.929 . S
H158 C140 0.928 . S
H159 C142 0.932 . S
C160 C161 1.264 . S
C160 C165 1.479 . S
C160 C170 1.465 . S
C161 C160 1.264 . S
C161 C163 1.339 . S
C161 H188 0.931 . S
C162 C163 1.395 . S
C162 C164 1.320 . S
C163 C161 1.339 . S
C163 C162 1.395 . S
C163 H189 0.929 . S
C164 C162 1.320 . S
C164 C165 1.405 . S
C164 H190 0.930 . S
C165 C160 1.479 . S
C165 C164 1.405 . S
C165 H191 0.931 . S
U166 O167 2.454 . S
U166 O168 2.458 . S
U166 C169 2.984 . S
U166 C170 2.847 . S
U166 C183 2.882 . S
U166 O184 2.441 . S
U166 O185 2.420 . S
U166 O186 2.455 . S
U166 O187 2.449 . S
O167 U166 2.454 . S
O167 C169 1.353 . S
O168 U166 2.458 . S
O168 C169 1.286 . S
C169 U166 2.984 . S
C169 O167 1.353 . S
C169 O168 1.286 . S
C169 C171 1.363 . S
C170 C160 1.465 . S
C170 U166 2.847 . S
C170 O184 1.249 . S
C170 O185 1.202 . S
C171 C169 1.363 . S
C171 C173 1.408 . S
C171 C176 1.342 . S
C172 C173 1.310 . S
C172 C175 1.461 . S
C172 H192 0.932 . S
C173 C171 1.408 . S
C173 C172 1.310 . S
C173 H193 0.930 . S
C174 C175 1.474 . S
C174 C176 1.285 . S
C174 H194 0.929 . S
C175 C172 1.461 . S
C175 C174 1.474 . S
C176 C171 1.342 . S
C176 C174 1.285 . S
C176 H195 0.930 . S
C177 C180 1.424 . S
C177 C182 1.245 . S
C177 C183 1.428 . S
C178 C181 1.260 . S
C178 C182 1.477 . S
C178 H196 0.932 . S
C179 C180 1.384 . S
C179 C181 1.479 . S
C179 H197 0.929 . S
C180 C177 1.424 . S
C180 C179 1.384 . S
C180 H198 0.928 . S
C181 C178 1.260 . S
C181 C179 1.479 . S
C182 C177 1.245 . S
C182 C178 1.477 . S
C182 H199 0.932 . S
C183 U166 2.882 . S
C183 C177 1.428 . S
C183 O186 1.301 . S
C183 O187 1.282 . S
O184 U166 2.441 . S
O184 C170 1.249 . S
O185 U166 2.420 . S
O185 C170 1.202 . S
O186 U166 2.455 . S
O186 C183 1.301 . S
O187 U166 2.449 . S
O187 C183 1.282 . S
H188 C161 0.931 . S
H189 C163 0.929 . S
H190 C164 0.930 . S
H191 C165 0.931 . S
H192 C172 0.932 . S
H193 C173 0.930 . S
H194 C174 0.929 . S
H195 C176 0.930 . S
H196 C178 0.932 . S
H197 C179 0.929 . S
H198 C180 0.928 . S
H199 C182 0.932 . S
C200 C201 1.264 . S
C200 C205 1.479 . S
C200 C210 1.465 . S
C201 C200 1.264 . S
C201 C203 1.339 . S
C201 H228 0.931 . S
C202 C203 1.395 . S
C202 C204 1.320 . S
C203 C201 1.339 . S
C203 C202 1.395 . S
C203 H229 0.929 . S
C204 C202 1.320 . S
C204 C205 1.405 . S
C204 H230 0.930 . S
C205 C200 1.479 . S
C205 C204 1.405 . S
C205 H231 0.931 . S
U206 O207 2.454 . S
U206 O208 2.458 . S
U206 C209 2.984 . S
U206 C210 2.847 . S
U206 C223 2.882 . S
U206 O224 2.441 . S
U206 O225 2.420 . S
U206 O226 2.455 . S
U206 O227 2.449 . S
O207 U206 2.454 . S
O207 C209 1.353 . S
O208 U206 2.458 . S
O208 C209 1.286 . S
C209 U206 2.984 . S
C209 O207 1.353 . S
C209 O208 1.286 . S
C209 C211 1.363 . S
C210 C200 1.465 . S
C210 U206 2.847 . S
C210 O224 1.249 . S
C210 O225 1.202 . S
C211 C209 1.363 . S
C211 C213 1.408 . S
C211 C216 1.342 . S
C212 C213 1.310 . S
C212 C215 1.461 . S
C212 H232 0.932 . S
C213 C211 1.408 . S
C213 C212 1.310 . S
C213 H233 0.930 . S
C214 C215 1.474 . S
C214 C216 1.285 . S
C214 H234 0.929 . S
C215 C212 1.461 . S
C215 C214 1.474 . S
C216 C211 1.342 . S
C216 C214 1.285 . S
C216 H235 0.930 . S
C217 C220 1.424 . S
C217 C222 1.245 . S
C217 C223 1.428 . S
C218 C221 1.260 . S
C218 C222 1.477 . S
C218 H236 0.932 . S
C219 C220 1.384 . S
C219 C221 1.479 . S
C219 H237 0.929 . S
C220 C217 1.424 . S
C220 C219 1.384 . S
C220 H238 0.928 . S
C221 C218 1.260 . S
C221 C219 1.479 . S
C222 C217 1.245 . S
C222 C218 1.477 . S
C222 H239 0.932 . S
C223 U206 2.882 . S
C223 C217 1.428 . S
C223 O226 1.301 . S
C223 O227 1.282 . S
O224 U206 2.441 . S
O224 C210 1.249 . S
O225 U206 2.420 . S
O225 C210 1.202 . S
O226 U206 2.455 . S
O226 C223 1.301 . S
O227 U206 2.449 . S
O227 C223 1.282 . S
H228 C201 0.931 . S
H229 C203 0.929 . S
H230 C204 0.930 . S
H231 C205 0.931 . S
H232 C212 0.932 . S
H233 C213 0.930 . S
H234 C214 0.929 . S
H235 C216 0.930 . S
H236 C218 0.932 . S
H237 C219 0.929 . S
H238 C220 0.928 . S
H239 C222 0.932 . S
C240 C241 1.264 . S
C240 C245 1.479 . S
C240 C250 1.465 . S
C241 C240 1.264 . S
C241 C243 1.339 . S
C241 H268 0.931 . S
C242 C243 1.395 . S
C242 C244 1.320 . S
C243 C241 1.339 . S
C243 C242 1.395 . S
C243 H269 0.929 . S
C244 C242 1.320 . S
C244 C245 1.405 . S
C244 H270 0.930 . S
C245 C240 1.479 . S
C245 C244 1.405 . S
C245 H271 0.931 . S
U246 O247 2.454 . S
U246 O248 2.458 . S
U246 C249 2.984 . S
U246 C250 2.847 . S
U246 C263 2.882 . S
U246 O264 2.441 . S
U246 O265 2.420 . S
U246 O266 2.455 . S
U246 O267 2.449 . S
O247 U246 2.454 . S
O247 C249 1.353 . S
O248 U246 2.458 . S
O248 C249 1.286 . S
C249 U246 2.984 . S
C249 O247 1.353 . S
C249 O248 1.286 . S
C249 C251 1.363 . S
C250 C240 1.465 . S
C250 U246 2.847 . S
C250 O264 1.249 . S
C250 O265 1.202 . S
C251 C249 1.363 . S
C251 C253 1.408 . S
C251 C256 1.342 . S
C252 C253 1.310 . S
C252 C255 1.461 . S
C252 H272 0.932 . S
C253 C251 1.408 . S
C253 C252 1.310 . S
C253 H273 0.930 . S
C254 C255 1.474 . S
C254 C256 1.285 . S
C254 H274 0.929 . S
C255 C252 1.461 . S
C255 C254 1.474 . S
C256 C251 1.342 . S
C256 C254 1.285 . S
C256 H275 0.930 . S
C257 C260 1.424 . S
C257 C262 1.245 . S
C257 C263 1.428 . S
C258 C261 1.260 . S
C258 C262 1.477 . S
C258 H276 0.932 . S
C259 C260 1.384 . S
C259 C261 1.479 . S
C259 H277 0.929 . S
C260 C257 1.424 . S
C260 C259 1.384 . S
C260 H278 0.928 . S
C261 C258 1.260 . S
C261 C259 1.479 . S
C262 C257 1.245 . S
C262 C258 1.477 . S
C262 H279 0.932 . S
C263 U246 2.882 . S
C263 C257 1.428 . S
C263 O266 1.301 . S
C263 O267 1.282 . S
O264 U246 2.441 . S
O264 C250 1.249 . S
O265 U246 2.420 . S
O265 C250 1.202 . S
O266 U246 2.455 . S
O266 C263 1.301 . S
O267 U246 2.449 . S
O267 C263 1.282 . S
H268 C241 0.931 . S
H269 C243 0.929 . S
H270 C244 0.930 . S
H271 C245 0.931 . S
H272 C252 0.932 . S
H273 C253 0.930 . S
H274 C254 0.929 . S
H275 C256 0.930 . S
H276 C258 0.932 . S
H277 C259 0.929 . S
H278 C260 0.928 . S
H279 C262 0.932 . S
C280 C281 1.264 . S
C280 C285 1.479 . S
C280 C290 1.465 . S
C281 C280 1.264 . S
C281 C283 1.339 . S
C281 H308 0.931 . S
C282 C283 1.395 . S
C282 C284 1.320 . S
C283 C281 1.339 . S
C283 C282 1.395 . S
C283 H309 0.929 . S
C284 C282 1.320 . S
C284 C285 1.405 . S
C284 H310 0.930 . S
C285 C280 1.479 . S
C285 C284 1.405 . S
C285 H311 0.931 . S
U286 O287 2.454 . S
U286 O288 2.458 . S
U286 C289 2.984 . S
U286 C290 2.847 . S
U286 C303 2.882 . S
U286 O304 2.441 . S
U286 O305 2.420 . S
U286 O306 2.455 . S
U286 O307 2.449 . S
O287 U286 2.454 . S
O287 C289 1.353 . S
O288 U286 2.458 . S
O288 C289 1.286 . S
C289 U286 2.984 . S
C289 O287 1.353 . S
C289 O288 1.286 . S
C289 C291 1.363 . S
C290 C280 1.465 . S
C290 U286 2.847 . S
C290 O304 1.249 . S
C290 O305 1.202 . S
C291 C289 1.363 . S
C291 C293 1.408 . S
C291 C296 1.342 . S
C292 C293 1.310 . S
C292 C295 1.461 . S
C292 H312 0.932 . S
C293 C291 1.408 . S
C293 C292 1.310 . S
C293 H313 0.930 . S
C294 C295 1.474 . S
C294 C296 1.285 . S
C294 H314 0.929 . S
C295 C292 1.461 . S
C295 C294 1.474 . S
C296 C291 1.342 . S
C296 C294 1.285 . S
C296 H315 0.930 . S
C297 C300 1.424 . S
C297 C302 1.245 . S
C297 C303 1.428 . S
C298 C301 1.260 . S
C298 C302 1.477 . S
C298 H316 0.932 . S
C299 C300 1.384 . S
C299 C301 1.479 . S
C299 H317 0.929 . S
C300 C297 1.424 . S
C300 C299 1.384 . S
C300 H318 0.928 . S
C301 C298 1.260 . S
C301 C299 1.479 . S
C302 C297 1.245 . S
C302 C298 1.477 . S
C302 H319 0.932 . S
C303 U286 2.882 . S
C303 C297 1.428 . S
C303 O306 1.301 . S
C303 O307 1.282 . S
O304 U286 2.441 . S
O304 C290 1.249 . S
O305 U286 2.420 . S
O305 C290 1.202 . S
O306 U286 2.455 . S
O306 C303 1.301 . S
O307 U286 2.449 . S
O307 C303 1.282 . S
H308 C281 0.931 . S
H309 C283 0.929 . S
H310 C284 0.930 . S
H311 C285 0.931 . S
H312 C292 0.932 . S
H313 C293 0.930 . S
H314 C294 0.929 . S
H315 C296 0.930 . S
H316 C298 0.932 . S
H317 C299 0.929 . S
H318 C300 0.928 . S
H319 C302 0.932 . S
C320 C321 1.384 . S
C320 C322 1.384 . S
C320 H348 0.931 . S
C321 C320 1.384 . S
C321 C324 1.382 . S
C322 C320 1.384 . S
C322 C323 1.381 . S
C322 H349 0.930 . S
C323 C322 1.381 . S
C323 C325 1.381 . S
C323 C326 1.487 . S
C324 C321 1.382 . S
C324 C325 1.387 . S
C324 H350 0.930 . S
C325 C323 1.381 . S
C325 C324 1.387 . S
C325 H351 0.931 . S
C326 C323 1.487 . S
C326 C333 1.399 1_655 S
C326 N364 1.343 . S
C327 C328 1.384 . S
C327 C329 1.384 . S
C327 H352 0.931 . S
C328 C327 1.384 . S
C328 C331 1.382 . S
C329 C327 1.384 . S
C329 C330 1.381 . S
C329 H353 0.930 . S
C330 C329 1.381 . S
C330 C332 1.381 . S
C330 C333 1.487 . S
C331 C328 1.382 . S
C331 C332 1.387 . S
C331 H354 0.930 . S
C332 C330 1.381 . S
C332 C331 1.387 . S
C332 H355 0.931 . S
C333 C326 1.399 1_455 S
C333 C330 1.487 . S
C333 N365 1.343 . S
C334 C335 1.384 . S
C334 C336 1.384 . S
C334 H356 0.931 . S
C335 C334 1.384 . S
C335 C338 1.382 . S
C336 C334 1.384 . S
C336 C337 1.381 . S
C336 H357 0.930 . S
C337 C336 1.381 . S
C337 C339 1.381 . S
C337 C340 1.487 . S
C338 C335 1.382 . S
C338 C339 1.387 . S
C338 H358 0.930 . S
C339 C337 1.381 . S
C339 C338 1.387 . S
C339 H359 0.931 . S
C340 C337 1.487 . S
C340 C347 1.399 1_455 S
C340 N365 1.343 . S
C341 C342 1.384 . S
C341 C343 1.384 . S
C341 H360 0.931 . S
C342 C341 1.384 . S
C342 C345 1.382 . S
C343 C341 1.384 . S
C343 C344 1.381 . S
C343 H361 0.930 . S
C344 C343 1.381 . S
C344 C346 1.381 . S
C344 C347 1.487 . S
C345 C342 1.382 . S
C345 C346 1.387 . S
C345 H362 0.930 . S
C346 C344 1.381 . S
C346 C345 1.387 . S
C346 H363 0.931 . S
C347 C340 1.399 1_655 S
C347 C344 1.487 . S
C347 N364 1.343 . S
H348 C320 0.931 . S
H349 C322 0.930 . S
H350 C324 0.930 . S
H351 C325 0.931 . S
H352 C327 0.931 . S
H353 C329 0.930 . S
H354 C331 0.930 . S
H355 C332 0.931 . S
H356 C334 0.931 . S
H357 C336 0.930 . S
H358 C338 0.930 . S
H359 C339 0.931 . S
H360 C341 0.931 . S
H361 C343 0.930 . S
H362 C345 0.930 . S
H363 C346 0.931 . S
N364 C326 1.343 . S
N364 C347 1.343 . S
N365 C333 1.343 . S
N365 C340 1.343 . S
C366 C367 1.384 . S
C366 C368 1.384 . S
C366 H394 0.931 . S
C367 C366 1.384 . S
C367 C370 1.382 . S
C368 C366 1.384 . S
C368 C369 1.381 . S
C368 H395 0.930 . S
C369 C368 1.381 . S
C369 C371 1.381 . S
C369 C372 1.487 . S
C370 C367 1.382 . S
C370 C371 1.387 . S
C370 H396 0.930 . S
C371 C369 1.381 . S
C371 C370 1.387 . S
C371 H397 0.931 . S
C372 C369 1.487 . S
C372 C379 1.399 1_655 S
C372 N410 1.343 . S
C373 C374 1.384 . S
C373 C375 1.384 . S
C373 H398 0.931 . S
C374 C373 1.384 . S
C374 C377 1.382 . S
C375 C373 1.384 . S
C375 C376 1.381 . S
C375 H399 0.930 . S
C376 C375 1.381 . S
C376 C378 1.381 . S
C376 C379 1.487 . S
C377 C374 1.382 . S
C377 C378 1.387 . S
C377 H400 0.930 . S
C378 C376 1.381 . S
C378 C377 1.387 . S
C378 H401 0.931 . S
C379 C372 1.399 1_455 S
C379 C376 1.487 . S
C379 N411 1.343 . S
C380 C381 1.384 . S
C380 C382 1.384 . S
C380 H402 0.931 . S
C381 C380 1.384 . S
C381 C384 1.382 . S
C382 C380 1.384 . S
C382 C383 1.381 . S
C382 H403 0.930 . S
C383 C382 1.381 . S
C383 C385 1.381 . S
C383 C386 1.487 . S
C384 C381 1.382 . S
C384 C385 1.387 . S
C384 H404 0.930 . S
C385 C383 1.381 . S
C385 C384 1.387 . S
C385 H405 0.931 . S
C386 C383 1.487 . S
C386 C393 1.399 1_455 S
C386 N411 1.343 . S
C387 C388 1.384 . S
C387 C389 1.384 . S
C387 H406 0.931 . S
C388 C387 1.384 . S
C388 C391 1.382 . S
C389 C387 1.384 . S
C389 C390 1.381 . S
C389 H407 0.930 . S
C390 C389 1.381 . S
C390 C392 1.381 . S
C390 C393 1.487 . S
C391 C388 1.382 . S
C391 C392 1.387 . S
C391 H408 0.930 . S
C392 C390 1.381 . S
C392 C391 1.387 . S
C392 H409 0.931 . S
C393 C386 1.399 1_655 S
C393 C390 1.487 . S
C393 N410 1.343 . S
H394 C366 0.931 . S
H395 C368 0.930 . S
H396 C370 0.930 . S
H397 C371 0.931 . S
H398 C373 0.931 . S
H399 C375 0.930 . S
H400 C377 0.930 . S
H401 C378 0.931 . S
H402 C380 0.931 . S
H403 C382 0.930 . S
H404 C384 0.930 . S
H405 C385 0.931 . S
H406 C387 0.931 . S
H407 C389 0.930 . S
H408 C391 0.930 . S
H409 C392 0.931 . S
N410 C372 1.343 . S
N410 C393 1.343 . S
N411 C379 1.343 . S
N411 C386 1.343 . S
C412 C413 1.384 . S
C412 C414 1.384 . S
C412 H440 0.931 . S
C413 C412 1.384 . S
C413 C416 1.382 . S
C414 C412 1.384 . S
C414 C415 1.381 . S
C414 H441 0.930 . S
C415 C414 1.381 . S
C415 C417 1.381 . S
C415 C418 1.487 . S
C416 C413 1.382 . S
C416 C417 1.387 . S
C416 H442 0.930 . S
C417 C415 1.381 . S
C417 C416 1.387 . S
C417 H443 0.931 . S
C418 C415 1.487 . S
C418 C425 1.399 . S
C418 N456 1.343 . S
C419 C420 1.384 . S
C419 C421 1.384 . S
C419 H444 0.931 . S
C420 C419 1.384 . S
C420 C423 1.382 . S
C421 C419 1.384 . S
C421 C422 1.381 . S
C421 H445 0.930 . S
C422 C421 1.381 . S
C422 C424 1.381 . S
C422 C425 1.487 . S
C423 C420 1.382 . S
C423 C424 1.387 . S
C423 H446 0.930 . S
C424 C422 1.381 . S
C424 C423 1.387 . S
C424 H447 0.931 . S
C425 C418 1.399 . S
C425 C422 1.487 . S
C425 N457 1.343 . S
C426 C427 1.384 . S
C426 C428 1.384 . S
C426 H448 0.931 . S
C427 C426 1.384 . S
C427 C430 1.382 . S
C428 C426 1.384 . S
C428 C429 1.381 . S
C428 H449 0.930 . S
C429 C428 1.381 . S
C429 C431 1.381 . S
C429 C432 1.487 . S
C430 C427 1.382 . S
C430 C431 1.387 . S
C430 H450 0.930 . S
C431 C429 1.381 . S
C431 C430 1.387 . S
C431 H451 0.931 . S
C432 C429 1.487 . S
C432 C439 1.399 . S
C432 N457 1.343 1_565 S
C433 C434 1.384 . S
C433 C435 1.384 . S
C433 H452 0.931 . S
C434 C433 1.384 . S
C434 C437 1.382 . S
C435 C433 1.384 . S
C435 C436 1.381 . S
C435 H453 0.930 . S
C436 C435 1.381 . S
C436 C438 1.381 . S
C436 C439 1.487 . S
C437 C434 1.382 . S
C437 C438 1.387 . S
C437 H454 0.930 . S
C438 C436 1.381 . S
C438 C437 1.387 . S
C438 H455 0.931 . S
C439 C432 1.399 . S
C439 C436 1.487 . S
C439 N456 1.343 1_565 S
H440 C412 0.931 . S
H441 C414 0.930 . S
H442 C416 0.930 . S
H443 C417 0.931 . S
H444 C419 0.931 . S
H445 C421 0.930 . S
H446 C423 0.930 . S
H447 C424 0.931 . S
H448 C426 0.931 . S
H449 C428 0.930 . S
H450 C430 0.930 . S
H451 C431 0.931 . S
H452 C433 0.931 . S
H453 C435 0.930 . S
H454 C437 0.930 . S
H455 C438 0.931 . S
N456 C418 1.343 . S
N456 C439 1.343 1_545 S
N457 C425 1.343 . S
N457 C432 1.343 1_545 S
C458 C459 1.384 . S
C458 C460 1.384 . S
C458 H486 0.931 . S
C459 C458 1.384 . S
C459 C462 1.382 . S
C460 C458 1.384 . S
C460 C461 1.381 . S
C460 H487 0.930 . S
C461 C460 1.381 . S
C461 C463 1.381 . S
C461 C464 1.487 . S
C462 C459 1.382 . S
C462 C463 1.387 . S
C462 H488 0.930 . S
C463 C461 1.381 . S
C463 C462 1.387 . S
C463 H489 0.931 . S
C464 C461 1.487 . S
C464 C471 1.399 . S
C464 N502 1.343 1_556 S
C465 C466 1.384 . S
C465 C467 1.384 . S
C465 H490 0.931 . S
C466 C465 1.384 . S
C466 C469 1.382 . S
C467 C465 1.384 . S
C467 C468 1.381 . S
C467 H491 0.930 . S
C468 C467 1.381 . S
C468 C470 1.381 . S
C468 C471 1.487 . S
C469 C466 1.382 . S
C469 C470 1.387 . S
C469 H492 0.930 . S
C470 C468 1.381 . S
C470 C469 1.387 . S
C470 H493 0.931 . S
C471 C464 1.399 . S
C471 C468 1.487 . S
C471 N503 1.343 1_556 S
C472 C473 1.384 . S
C472 C474 1.384 . S
C472 H494 0.931 . S
C473 C472 1.384 . S
C473 C476 1.382 . S
C474 C472 1.384 . S
C474 C475 1.381 . S
C474 H495 0.930 . S
C475 C474 1.381 . S
C475 C477 1.381 . S
C475 C478 1.487 . S
C476 C473 1.382 . S
C476 C477 1.387 . S
C476 H496 0.930 . S
C477 C475 1.381 . S
C477 C476 1.387 . S
C477 H497 0.931 . S
C478 C475 1.487 . S
C478 C485 1.399 . S
C478 N503 1.343 . S
C479 C480 1.384 . S
C479 C481 1.384 . S
C479 H498 0.931 . S
C480 C479 1.384 . S
C480 C483 1.382 . S
C481 C479 1.384 . S
C481 C482 1.381 . S
C481 H499 0.930 . S
C482 C481 1.381 . S
C482 C484 1.381 . S
C482 C485 1.487 . S
C483 C480 1.382 . S
C483 C484 1.387 . S
C483 H500 0.930 . S
C484 C482 1.381 . S
C484 C483 1.387 . S
C484 H501 0.931 . S
C485 C478 1.399 . S
C485 C482 1.487 . S
C485 N502 1.343 . S
H486 C458 0.931 . S
H487 C460 0.930 . S
H488 C462 0.930 . S
H489 C463 0.931 . S
H490 C465 0.931 . S
H491 C467 0.930 . S
H492 C469 0.930 . S
H493 C470 0.931 . S
H494 C472 0.931 . S
H495 C474 0.930 . S
H496 C476 0.930 . S
H497 C477 0.931 . S
H498 C479 0.931 . S
H499 C481 0.930 . S
H500 C483 0.930 . S
H501 C484 0.931 . S
N502 C464 1.343 1_554 S
N502 C485 1.343 . S
N503 C471 1.343 1_554 S
N503 C478 1.343 . S
C504 C505 1.384 . S
C504 C506 1.384 . S
C504 H532 0.931 . S
C505 C504 1.384 . S
C505 C508 1.382 . S
C506 C504 1.384 . S
C506 C507 1.381 . S
C506 H533 0.930 . S
C507 C506 1.381 . S
C507 C509 1.381 . S
C507 C510 1.487 . S
C508 C505 1.382 . S
C508 C509 1.387 . S
C508 H534 0.930 . S
C509 C507 1.381 . S
C509 C508 1.387 . S
C509 H535 0.931 . S
C510 C507 1.487 . S
C510 C517 1.399 . S
C510 N548 1.394 . S
C511 C512 1.384 . S
C511 C513 1.384 . S
C511 H536 0.931 . S
C512 C511 1.384 . S
C512 C515 1.382 . S
C513 C511 1.384 . S
C513 C514 1.381 . S
C513 H537 0.930 . S
C514 C513 1.381 . S
C514 C516 1.381 . S
C514 C517 1.487 . S
C515 C512 1.382 . S
C515 C516 1.387 . S
C515 H538 0.930 . S
C516 C514 1.381 . S
C516 C515 1.387 . S
C516 H539 0.931 . S
C517 C510 1.399 . S
C517 C514 1.487 . S
C517 N549 1.374 . S
C518 C519 1.384 . S
C518 C520 1.384 . S
C518 H540 0.931 . S
C519 C518 1.384 . S
C519 C522 1.382 . S
C520 C518 1.384 . S
C520 C521 1.381 . S
C520 H541 0.930 . S
C521 C520 1.381 . S
C521 C523 1.381 . S
C521 C524 1.487 . S
C522 C519 1.382 . S
C522 C523 1.387 . S
C522 H542 0.930 . S
C523 C521 1.381 . S
C523 C522 1.387 . S
C523 H543 0.931 . S
C524 C521 1.487 . S
C524 C531 1.399 . S
C524 N549 1.312 1_565 S
C525 C526 1.384 . S
C525 C527 1.384 . S
C525 H544 0.931 . S
C526 C525 1.384 . S
C526 C529 1.382 . S
C527 C525 1.384 . S
C527 C528 1.381 . S
C527 H545 0.930 . S
C528 C527 1.381 . S
C528 C530 1.381 . S
C528 C531 1.487 . S
C529 C526 1.382 . S
C529 C530 1.387 . S
C529 H546 0.930 . S
C530 C528 1.381 . S
C530 C529 1.387 . S
C530 H547 0.931 . S
C531 C524 1.399 . S
C531 C528 1.487 . S
C531 N548 1.293 1_565 S
H532 C504 0.931 . S
H533 C506 0.930 . S
H534 C508 0.930 . S
H535 C509 0.931 . S
H536 C511 0.931 . S
H537 C513 0.930 . S
H538 C515 0.930 . S
H539 C516 0.931 . S
H540 C518 0.931 . S
H541 C520 0.930 . S
H542 C522 0.930 . S
H543 C523 0.931 . S
H544 C525 0.931 . S
H545 C527 0.930 . S
H546 C529 0.930 . S
H547 C530 0.931 . S
N548 C510 1.394 . S
N548 C531 1.293 1_545 S
N549 C517 1.374 . S
N549 C524 1.312 1_545 S
C550 C551 1.384 . S
C550 C552 1.384 . S
C550 H578 0.931 . S
C551 C550 1.384 . S
C551 C554 1.382 . S
C552 C550 1.384 . S
C552 C553 1.381 . S
C552 H579 0.930 . S
C553 C552 1.381 . S
C553 C555 1.381 . S
C553 C556 1.487 . S
C554 C551 1.382 . S
C554 C555 1.387 . S
C554 H580 0.930 . S
C555 C553 1.381 . S
C555 C554 1.387 . S
C555 H581 0.931 . S
C556 C553 1.487 . S
C556 C563 1.399 . S
C556 N594 1.343 1_556 S
C557 C558 1.384 . S
C557 C559 1.384 . S
C557 H582 0.931 . S
C558 C557 1.384 . S
C558 C561 1.382 . S
C559 C557 1.384 . S
C559 C560 1.381 . S
C559 H583 0.930 . S
C560 C559 1.381 . S
C560 C562 1.381 . S
C560 C563 1.487 . S
C561 C558 1.382 . S
C561 C562 1.387 . S
C561 H584 0.930 . S
C562 C560 1.381 . S
C562 C561 1.387 . S
C562 H585 0.931 . S
C563 C556 1.399 . S
C563 C560 1.487 . S
C563 N595 1.343 1_556 S
C564 C565 1.384 . S
C564 C566 1.384 . S
C564 H586 0.931 . S
C565 C564 1.384 . S
C565 C568 1.382 . S
C566 C564 1.384 . S
C566 C567 1.381 . S
C566 H587 0.930 . S
C567 C566 1.381 . S
C567 C569 1.381 . S
C567 C570 1.487 . S
C568 C565 1.382 . S
C568 C569 1.387 . S
C568 H588 0.930 . S
C569 C567 1.381 . S
C569 C568 1.387 . S
C569 H589 0.931 . S
C570 C567 1.487 . S
C570 C577 1.399 . S
C570 N595 1.343 . S
C571 C572 1.384 . S
C571 C573 1.384 . S
C571 H590 0.931 . S
C572 C571 1.384 . S
C572 C575 1.382 . S
C573 C571 1.384 . S
C573 C574 1.381 . S
C573 H591 0.930 . S
C574 C573 1.381 . S
C574 C576 1.381 . S
C574 C577 1.487 . S
C575 C572 1.382 . S
C575 C576 1.387 . S
C575 H592 0.930 . S
C576 C574 1.381 . S
C576 C575 1.387 . S
C576 H593 0.931 . S
C577 C570 1.399 . S
C577 C574 1.487 . S
C577 N594 1.343 . S
H578 C550 0.931 . S
H579 C552 0.930 . S
H580 C554 0.930 . S
H581 C555 0.931 . S
H582 C557 0.931 . S
H583 C559 0.930 . S
H584 C561 0.930 . S
H585 C562 0.931 . S
H586 C564 0.931 . S
H587 C566 0.930 . S
H588 C568 0.930 . S
H589 C569 0.931 . S
H590 C571 0.931 . S
H591 C573 0.930 . S
H592 C575 0.930 . S
H593 C576 0.931 . S
N594 C556 1.343 1_554 S
N594 C577 1.343 . S
N595 C563 1.343 1_554 S
N595 C570 1.343 . S
H596 C614 0.951 . S
H597 C616 0.951 . S
H598 C618 0.950 . S
H599 C619 0.950 . S
H600 C621 0.950 . S
H601 C624 0.950 . S
H602 C625 0.950 . S
H603 C627 0.950 . S
H604 C628 0.950 . S
H605 C629 0.951 . S
H606 C631 0.951 . S
H607 C633 0.950 . S
H608 C634 0.950 . S
H609 C636 0.950 . S
H610 C639 0.950 . S
H611 C640 0.950 . S
H612 C642 0.950 . S
H613 C643 0.950 . S
C614 H596 0.951 . S
C614 C615 1.366 . S
C614 C616 1.388 . S
C615 C614 1.366 . S
C615 C619 1.385 . S
C616 H597 0.951 . S
C616 C614 1.388 . S
C616 C617 1.366 . S
C617 C616 1.366 . S
C617 C618 1.414 . S
C617 C620 1.499 . S
C618 H598 0.950 . S
C618 C617 1.414 . S
C618 C619 1.374 . S
C619 H599 0.950 . S
C619 C615 1.385 . S
C619 C618 1.374 . S
C620 C617 1.499 . S
C620 C621 1.373 . S
C620 C622 1.389 . S
C621 H600 0.950 . S
C621 C620 1.373 . S
C621 C637 1.377 . S
C622 C620 1.389 . S
C622 C623 1.524 . S
C622 C636 1.377 . S
C623 C622 1.524 . S
C623 C624 1.397 . S
C623 C628 1.363 . S
C624 H601 0.950 . S
C624 C623 1.397 . S
C624 C625 1.334 . S
C625 H602 0.950 . S
C625 C624 1.334 . S
C625 C626 1.287 . S
C626 C625 1.287 . S
C626 C627 1.524 . S
C626 H645 0.913 . S
C627 H603 0.950 . S
C627 C626 1.524 . S
C627 C628 1.415 . S
C628 H604 0.950 . S
C628 C623 1.363 . S
C628 C627 1.415 . S
C629 H605 0.951 . S
C629 C630 1.366 . S
C629 C631 1.388 . S
C630 C629 1.366 . S
C630 C634 1.385 . S
C631 H606 0.951 . S
C631 C629 1.388 . S
C631 C632 1.366 . S
C632 C631 1.366 . S
C632 C633 1.414 . S
C632 C635 1.499 . S
C633 H607 0.950 . S
C633 C632 1.414 . S
C633 C634 1.374 . S
C634 H608 0.950 . S
C634 C630 1.385 . S
C634 C633 1.374 . S
C635 C632 1.499 . S
C635 C636 1.373 . S
C635 C637 1.389 . S
C636 H609 0.950 . S
C636 C622 1.377 . S
C636 C635 1.373 . S
C637 C621 1.377 . S
C637 C635 1.389 . S
C637 C638 1.524 . S
C638 C637 1.524 . S
C638 C639 1.397 . S
C638 C643 1.363 . S
C639 H610 0.950 . S
C639 C638 1.397 . S
C639 C640 1.334 . S
C640 H611 0.950 . S
C640 C639 1.334 . S
C640 C641 1.287 . S
C641 C640 1.287 . S
C641 C642 1.524 . S
C641 H644 0.999 . S
C642 H612 0.950 . S
C642 C641 1.524 . S
C642 C643 1.415 . S
C643 H613 0.950 . S
C643 C638 1.363 . S
C643 C642 1.415 . S
H644 C641 0.999 . S
H645 C626 0.913 . S
H646 C664 0.951 . S
H647 C666 0.951 . S
H648 C668 0.950 . S
H649 C669 0.950 . S
H650 C671 0.950 . S
H651 C674 0.950 . S
H652 C675 0.950 . S
H653 C677 0.950 . S
H654 C678 0.950 . S
H655 C679 0.951 . S
H656 C681 0.951 . S
H657 C683 0.950 . S
H658 C684 0.950 . S
H659 C686 0.950 . S
H660 C689 0.950 . S
H661 C690 0.950 . S
H662 C692 0.950 . S
H663 C693 0.950 . S
C664 H646 0.951 . S
C664 C665 1.366 . S
C664 C666 1.388 . S
C665 C664 1.366 . S
C665 C669 1.385 . S
C666 H647 0.951 . S
C666 C664 1.388 . S
C666 C667 1.366 . S
C667 C666 1.366 . S
C667 C668 1.414 . S
C667 C670 1.499 . S
C668 H648 0.950 . S
C668 C667 1.414 . S
C668 C669 1.374 . S
C669 H649 0.950 . S
C669 C665 1.385 . S
C669 C668 1.374 . S
C670 C667 1.499 . S
C670 C671 1.373 . S
C670 C672 1.389 . S
C671 H650 0.950 . S
C671 C670 1.373 . S
C671 C687 1.377 . S
C672 C670 1.389 . S
C672 C673 1.524 . S
C672 C686 1.377 . S
C673 C672 1.524 . S
C673 C674 1.397 . S
C673 C678 1.363 . S
C674 H651 0.950 . S
C674 C673 1.397 . S
C674 C675 1.334 . S
C675 H652 0.950 . S
C675 C674 1.334 . S
C675 C676 1.287 . S
C676 C675 1.287 . S
C676 C677 1.524 . S
C676 H695 0.913 . S
C677 H653 0.950 . S
C677 C676 1.524 . S
C677 C678 1.415 . S
C678 H654 0.950 . S
C678 C673 1.363 . S
C678 C677 1.415 . S
C679 H655 0.951 . S
C679 C680 1.366 . S
C679 C681 1.388 . S
C680 C679 1.366 . S
C680 C684 1.385 . S
C681 H656 0.951 . S
C681 C679 1.388 . S
C681 C682 1.366 . S
C682 C681 1.366 . S
C682 C683 1.414 . S
C682 C685 1.499 . S
C683 H657 0.950 . S
C683 C682 1.414 . S
C683 C684 1.374 . S
C684 H658 0.950 . S
C684 C680 1.385 . S
C684 C683 1.374 . S
C685 C682 1.499 . S
C685 C686 1.373 . S
C685 C687 1.389 . S
C686 H659 0.950 . S
C686 C672 1.377 . S
C686 C685 1.373 . S
C687 C671 1.377 . S
C687 C685 1.389 . S
C687 C688 1.524 . S
C688 C687 1.524 . S
C688 C689 1.397 . S
C688 C693 1.363 . S
C689 H660 0.950 . S
C689 C688 1.397 . S
C689 C690 1.334 . S
C690 H661 0.950 . S
C690 C689 1.334 . S
C690 C691 1.287 . S
C691 C690 1.287 . S
C691 C692 1.524 . S
C691 H694 0.999 . S
C692 H662 0.950 . S
C692 C691 1.524 . S
C692 C693 1.415 . S
C693 H663 0.950 . S
C693 C688 1.363 . S
C693 C692 1.415 . S
H694 C691 0.999 . S
H695 C676 0.913 . S
H696 C714 0.951 . S
H697 C716 0.951 . S
H698 C718 0.950 . S
H699 C719 0.950 . S
H700 C721 0.950 . S
H701 C724 0.950 . S
H702 C725 0.950 . S
H703 C727 0.950 . S
H704 C728 0.950 . S
H705 C729 0.951 . S
H706 C731 0.951 . S
H707 C733 0.950 . S
H708 C734 0.950 . S
H709 C736 0.950 . S
H710 C739 0.950 . S
H711 C740 0.950 . S
H712 C742 0.950 . S
H713 C743 0.950 . S
C714 H696 0.951 . S
C714 C715 1.366 . S
C714 C716 1.388 . S
C715 C714 1.366 . S
C715 C719 1.385 . S
C716 H697 0.951 . S
C716 C714 1.388 . S
C716 C717 1.366 . S
C717 C716 1.366 . S
C717 C718 1.414 . S
C717 C720 1.499 . S
C718 H698 0.950 . S
C718 C717 1.414 . S
C718 C719 1.374 . S
C719 H699 0.950 . S
C719 C715 1.385 . S
C719 C718 1.374 . S
C720 C717 1.499 . S
C720 C721 1.373 . S
C720 C722 1.389 . S
C721 H700 0.950 . S
C721 C720 1.373 . S
C721 C737 1.377 . S
C722 C720 1.389 . S
C722 C723 1.524 . S
C722 C736 1.377 . S
C723 C722 1.524 . S
C723 C724 1.397 . S
C723 C728 1.363 . S
C724 H701 0.950 . S
C724 C723 1.397 . S
C724 C725 1.334 . S
C725 H702 0.950 . S
C725 C724 1.334 . S
C725 C726 1.287 . S
C726 C725 1.287 . S
C726 C727 1.524 . S
C726 H745 0.913 . S
C727 H703 0.950 . S
C727 C726 1.524 . S
C727 C728 1.415 . S
C728 H704 0.950 . S
C728 C723 1.363 . S
C728 C727 1.415 . S
C729 H705 0.951 . S
C729 C730 1.366 . S
C729 C731 1.388 . S
C730 C729 1.366 . S
C730 C734 1.385 . S
C731 H706 0.951 . S
C731 C729 1.388 . S
C731 C732 1.366 . S
C732 C731 1.366 . S
C732 C733 1.414 . S
C732 C735 1.499 . S
C733 H707 0.950 . S
C733 C732 1.414 . S
C733 C734 1.374 . S
C734 H708 0.950 . S
C734 C730 1.385 . S
C734 C733 1.374 . S
C735 C732 1.499 . S
C735 C736 1.373 . S
C735 C737 1.389 . S
C736 H709 0.950 . S
C736 C722 1.377 . S
C736 C735 1.373 . S
C737 C721 1.377 . S
C737 C735 1.389 . S
C737 C738 1.524 . S
C738 C737 1.524 . S
C738 C739 1.397 . S
C738 C743 1.363 . S
C739 H710 0.950 . S
C739 C738 1.397 . S
C739 C740 1.334 . S
C740 H711 0.950 . S
C740 C739 1.334 . S
C740 C741 1.287 . S
C741 C740 1.287 . S
C741 C742 1.524 . S
C741 H744 0.999 . S
C742 H712 0.950 . S
C742 C741 1.524 . S
C742 C743 1.415 . S
C743 H713 0.950 . S
C743 C738 1.363 . S
C743 C742 1.415 . S
H744 C741 0.999 . S
H745 C726 0.913 . S
H746 C764 0.951 . S
H747 C766 0.951 . S
H748 C768 0.950 . S
H749 C769 0.950 . S
H750 C771 0.950 . S
H751 C774 0.950 . S
H752 C775 0.950 . S
H753 C777 0.950 . S
H754 C778 0.950 . S
H755 C779 0.951 . S
H756 C781 0.951 . S
H757 C783 0.950 . S
H758 C784 0.950 . S
H759 C786 0.950 . S
H760 C789 0.950 . S
H761 C790 0.950 . S
H762 C792 0.950 . S
H763 C793 0.950 . S
C764 H746 0.951 . S
C764 C765 1.366 . S
C764 C766 1.388 . S
C765 C764 1.366 . S
C765 C769 1.385 . S
C766 H747 0.951 . S
C766 C764 1.388 . S
C766 C767 1.366 . S
C767 C766 1.366 . S
C767 C768 1.414 . S
C767 C770 1.499 . S
C768 H748 0.950 . S
C768 C767 1.414 . S
C768 C769 1.374 . S
C769 H749 0.950 . S
C769 C765 1.385 . S
C769 C768 1.374 . S
C770 C767 1.499 . S
C770 C771 1.373 . S
C770 C772 1.389 . S
C771 H750 0.950 . S
C771 C770 1.373 . S
C771 C787 1.377 . S
C772 C770 1.389 . S
C772 C773 1.524 . S
C772 C786 1.377 . S
C773 C772 1.524 . S
C773 C774 1.397 . S
C773 C778 1.363 . S
C774 H751 0.950 . S
C774 C773 1.397 . S
C774 C775 1.334 . S
C775 H752 0.950 . S
C775 C774 1.334 . S
C775 C776 1.287 . S
C776 C775 1.287 . S
C776 C777 1.524 . S
C776 H795 0.913 . S
C777 H753 0.950 . S
C777 C776 1.524 . S
C777 C778 1.415 . S
C778 H754 0.950 . S
C778 C773 1.363 . S
C778 C777 1.415 . S
C779 H755 0.951 . S
C779 C780 1.366 . S
C779 C781 1.388 . S
C780 C779 1.366 . S
C780 C784 1.385 . S
C781 H756 0.951 . S
C781 C779 1.388 . S
C781 C782 1.366 . S
C782 C781 1.366 . S
C782 C783 1.414 . S
C782 C785 1.499 . S
C783 H757 0.950 . S
C783 C782 1.414 . S
C783 C784 1.374 . S
C784 H758 0.950 . S
C784 C780 1.385 . S
C784 C783 1.374 . S
C785 C782 1.499 . S
C785 C786 1.373 . S
C785 C787 1.389 . S
C786 H759 0.950 . S
C786 C772 1.377 . S
C786 C785 1.373 . S
C787 C771 1.377 . S
C787 C785 1.389 . S
C787 C788 1.524 . S
C788 C787 1.524 . S
C788 C789 1.397 . S
C788 C793 1.363 . S
C789 H760 0.950 . S
C789 C788 1.397 . S
C789 C790 1.334 . S
C790 H761 0.950 . S
C790 C789 1.334 . S
C790 C791 1.287 . S
C791 C790 1.287 . S
C791 C792 1.524 . S
C791 H794 0.999 . S
C792 H762 0.950 . S
C792 C791 1.524 . S
C792 C793 1.415 . S
C793 H763 0.950 . S
C793 C788 1.363 . S
C793 C792 1.415 . S
H794 C791 0.999 . S
H795 C776 0.913 . S
H796 C814 0.951 . S
H797 C816 0.951 . S
H798 C818 0.950 . S
H799 C819 0.950 . S
H800 C821 0.950 . S
H801 C824 0.950 . S
H802 C825 0.950 . S
H803 C827 0.950 . S
H804 C828 0.950 . S
H805 C829 0.951 . S
H806 C831 0.951 . S
H807 C833 0.950 . S
H808 C834 0.950 . S
H809 C836 0.950 . S
H810 C839 0.950 . S
H811 C840 0.950 . S
H812 C842 0.950 . S
H813 C843 0.950 . S
C814 H796 0.951 . S
C814 C815 1.366 . S
C814 C816 1.388 . S
C815 C814 1.366 . S
C815 C819 1.385 . S
C816 H797 0.951 . S
C816 C814 1.388 . S
C816 C817 1.366 . S
C817 C816 1.366 . S
C817 C818 1.414 . S
C817 C820 1.499 . S
C818 H798 0.950 . S
C818 C817 1.414 . S
C818 C819 1.374 . S
C819 H799 0.950 . S
C819 C815 1.385 . S
C819 C818 1.374 . S
C820 C817 1.499 . S
C820 C821 1.373 . S
C820 C822 1.389 . S
C821 H800 0.950 . S
C821 C820 1.373 . S
C821 C837 1.377 . S
C822 C820 1.389 . S
C822 C823 1.524 . S
C822 C836 1.377 . S
C823 C822 1.524 . S
C823 C824 1.397 . S
C823 C828 1.363 . S
C824 H801 0.950 . S
C824 C823 1.397 . S
C824 C825 1.334 . S
C825 H802 0.950 . S
C825 C824 1.334 . S
C825 C826 1.287 . S
C826 C825 1.287 . S
C826 C827 1.524 . S
C826 H845 0.913 . S
C827 H803 0.950 . S
C827 C826 1.524 . S
C827 C828 1.415 . S
C828 H804 0.950 . S
C828 C823 1.363 . S
C828 C827 1.415 . S
C829 H805 0.951 . S
C829 C830 1.366 . S
C829 C831 1.388 . S
C830 C829 1.366 . S
C830 C834 1.385 . S
C831 H806 0.951 . S
C831 C829 1.388 . S
C831 C832 1.366 . S
C832 C831 1.366 . S
C832 C833 1.414 . S
C832 C835 1.499 . S
C833 H807 0.950 . S
C833 C832 1.414 . S
C833 C834 1.374 . S
C834 H808 0.950 . S
C834 C830 1.385 . S
C834 C833 1.374 . S
C835 C832 1.499 . S
C835 C836 1.373 . S
C835 C837 1.389 . S
C836 H809 0.950 . S
C836 C822 1.377 . S
C836 C835 1.373 . S
C837 C821 1.377 . S
C837 C835 1.389 . S
C837 C838 1.524 . S
C838 C837 1.524 . S
C838 C839 1.397 . S
C838 C843 1.363 . S
C839 H810 0.950 . S
C839 C838 1.397 . S
C839 C840 1.334 . S
C840 H811 0.950 . S
C840 C839 1.334 . S
C840 C841 1.287 . S
C841 C840 1.287 . S
C841 C842 1.524 . S
C841 H844 0.999 . S
C842 H812 0.950 . S
C842 C841 1.524 . S
C842 C843 1.415 . S
C843 H813 0.950 . S
C843 C838 1.363 . S
C843 C842 1.415 . S
H844 C841 0.999 . S
H845 C826 0.913 . S
H846 C864 0.951 . S
H847 C866 0.951 . S
H848 C868 0.950 . S
H849 C869 0.950 . S
H850 C871 0.950 . S
H851 C874 0.950 . S
H852 C875 0.950 . S
H853 C877 0.950 . S
H854 C878 0.950 . S
H855 C879 0.951 . S
H856 C881 0.951 . S
H857 C883 0.950 . S
H858 C884 0.950 . S
H859 C886 0.950 . S
H860 C889 0.950 . S
H861 C890 0.950 . S
H862 C892 0.950 . S
H863 C893 0.950 . S
C864 H846 0.951 . S
C864 C865 1.366 . S
C864 C866 1.388 . S
C865 C864 1.366 . S
C865 C869 1.385 . S
C866 H847 0.951 . S
C866 C864 1.388 . S
C866 C867 1.366 . S
C867 C866 1.366 . S
C867 C868 1.414 . S
C867 C870 1.499 . S
C868 H848 0.950 . S
C868 C867 1.414 . S
C868 C869 1.374 . S
C869 H849 0.950 . S
C869 C865 1.385 . S
C869 C868 1.374 . S
C870 C867 1.499 . S
C870 C871 1.373 . S
C870 C872 1.389 . S
C871 H850 0.950 . S
C871 C870 1.373 . S
C871 C887 1.377 . S
C872 C870 1.389 . S
C872 C873 1.524 . S
C872 C886 1.377 . S
C873 C872 1.524 . S
C873 C874 1.397 . S
C873 C878 1.363 . S
C874 H851 0.950 . S
C874 C873 1.397 . S
C874 C875 1.334 . S
C875 H852 0.950 . S
C875 C874 1.334 . S
C875 C876 1.287 . S
C876 C875 1.287 . S
C876 C877 1.524 . S
C876 H895 0.913 . S
C877 H853 0.950 . S
C877 C876 1.524 . S
C877 C878 1.415 . S
C878 H854 0.950 . S
C878 C873 1.363 . S
C878 C877 1.415 . S
C879 H855 0.951 . S
C879 C880 1.366 . S
C879 C881 1.388 . S
C880 C879 1.366 . S
C880 C884 1.385 . S
C881 H856 0.951 . S
C881 C879 1.388 . S
C881 C882 1.366 . S
C882 C881 1.366 . S
C882 C883 1.414 . S
C882 C885 1.499 . S
C883 H857 0.950 . S
C883 C882 1.414 . S
C883 C884 1.374 . S
C884 H858 0.950 . S
C884 C880 1.385 . S
C884 C883 1.374 . S
C885 C882 1.499 . S
C885 C886 1.373 . S
C885 C887 1.389 . S
C886 H859 0.950 . S
C886 C872 1.377 . S
C886 C885 1.373 . S
C887 C871 1.377 . S
C887 C885 1.389 . S
C887 C888 1.524 . S
C888 C887 1.524 . S
C888 C889 1.397 . S
C888 C893 1.363 . S
C889 H860 0.950 . S
C889 C888 1.397 . S
C889 C890 1.334 . S
C890 H861 0.950 . S
C890 C889 1.334 . S
C890 C891 1.287 . S
C891 C890 1.287 . S
C891 C892 1.524 . S
C891 H894 0.999 . S
C892 H862 0.950 . S
C892 C891 1.524 . S
C892 C893 1.415 . S
C893 H863 0.950 . S
C893 C888 1.363 . S
C893 C892 1.415 . S
H894 C891 0.999 . S
H895 C876 0.913 . S
H896 C914 0.951 . S
H897 C916 0.951 . S
H898 C918 0.950 . S
H899 C919 0.950 . S
H900 C921 0.950 . S
H901 C924 0.950 . S
H902 C925 0.950 . S
H903 C927 0.950 . S
H904 C928 0.950 . S
H905 C929 0.951 . S
H906 C931 0.951 . S
H907 C933 0.950 . S
H908 C934 0.950 . S
H909 C936 0.950 . S
H910 C939 0.950 . S
H911 C940 0.950 . S
H912 C942 0.950 . S
H913 C943 0.950 . S
C914 H896 0.951 . S
C914 C915 1.366 . S
C914 C916 1.388 . S
C915 C914 1.366 . S
C915 C919 1.385 . S
C916 H897 0.951 . S
C916 C914 1.388 . S
C916 C917 1.366 . S
C917 C916 1.366 . S
C917 C918 1.414 . S
C917 C920 1.499 . S
C918 H898 0.950 . S
C918 C917 1.414 . S
C918 C919 1.374 . S
C919 H899 0.950 . S
C919 C915 1.385 . S
C919 C918 1.374 . S
C920 C917 1.499 . S
C920 C921 1.373 . S
C920 C922 1.389 . S
C921 H900 0.950 . S
C921 C920 1.373 . S
C921 C937 1.377 . S
C922 C920 1.389 . S
C922 C923 1.524 . S
C922 C936 1.377 . S
C923 C922 1.524 . S
C923 C924 1.397 . S
C923 C928 1.363 . S
C924 H901 0.950 . S
C924 C923 1.397 . S
C924 C925 1.334 . S
C925 H902 0.950 . S
C925 C924 1.334 . S
C925 C926 1.287 . S
C926 C925 1.287 . S
C926 C927 1.524 . S
C926 H945 0.913 . S
C927 H903 0.950 . S
C927 C926 1.524 . S
C927 C928 1.415 . S
C928 H904 0.950 . S
C928 C923 1.363 . S
C928 C927 1.415 . S
C929 H905 0.951 . S
C929 C930 1.366 . S
C929 C931 1.388 . S
C930 C929 1.366 . S
C930 C934 1.385 . S
C931 H906 0.951 . S
C931 C929 1.388 . S
C931 C932 1.366 . S
C932 C931 1.366 . S
C932 C933 1.414 . S
C932 C935 1.499 . S
C933 H907 0.950 . S
C933 C932 1.414 . S
C933 C934 1.374 . S
C934 H908 0.950 . S
C934 C930 1.385 . S
C934 C933 1.374 . S
C935 C932 1.499 . S
C935 C936 1.373 . S
C935 C937 1.389 . S
C936 H909 0.950 . S
C936 C922 1.377 . S
C936 C935 1.373 . S
C937 C921 1.377 . S
C937 C935 1.389 . S
C937 C938 1.524 . S
C938 C937 1.524 . S
C938 C939 1.397 . S
C938 C943 1.363 . S
C939 H910 0.950 . S
C939 C938 1.397 . S
C939 C940 1.334 . S
C940 H911 0.950 . S
C940 C939 1.334 . S
C940 C941 1.287 . S
C941 C940 1.287 . S
C941 C942 1.524 . S
C941 H944 0.999 . S
C942 H912 0.950 . S
C942 C941 1.524 . S
C942 C943 1.415 . S
C943 H913 0.950 . S
C943 C938 1.363 . S
C943 C942 1.415 . S
H944 C941 0.999 . S
H945 C926 0.913 . S
H946 C964 0.951 . S
H947 C966 0.951 . S
H948 C968 0.950 . S
H949 C969 0.950 . S
H950 C971 0.950 . S
H951 C974 0.950 . S
H952 C975 0.950 . S
H953 C977 0.950 . S
H954 C978 0.950 . S
H955 C979 0.951 . S
H956 C981 0.951 . S
H957 C983 0.950 . S
H958 C984 0.950 . S
H959 C986 0.950 . S
H960 C989 0.950 . S
H961 C990 0.950 . S
H962 C992 0.950 . S
H963 C993 0.950 . S
C964 H946 0.951 . S
C964 C965 1.366 . S
C964 C966 1.388 . S
C965 C964 1.366 . S
C965 C969 1.385 . S
C966 H947 0.951 . S
C966 C964 1.388 . S
C966 C967 1.366 . S
C967 C966 1.366 . S
C967 C968 1.414 . S
C967 C970 1.499 . S
C968 H948 0.950 . S
C968 C967 1.414 . S
C968 C969 1.374 . S
C969 H949 0.950 . S
C969 C965 1.385 . S
C969 C968 1.374 . S
C970 C967 1.499 . S
C970 C971 1.373 . S
C970 C972 1.389 . S
C971 H950 0.950 . S
C971 C970 1.373 . S
C971 C987 1.377 . S
C972 C970 1.389 . S
C972 C973 1.524 . S
C972 C986 1.377 . S
C973 C972 1.524 . S
C973 C974 1.397 . S
C973 C978 1.363 . S
C974 H951 0.950 . S
C974 C973 1.397 . S
C974 C975 1.334 . S
C975 H952 0.950 . S
C975 C974 1.334 . S
C975 C976 1.287 . S
C976 C975 1.287 . S
C976 C977 1.524 . S
C976 H995 0.913 . S
C977 H953 0.950 . S
C977 C976 1.524 . S
C977 C978 1.415 . S
C978 H954 0.950 . S
C978 C973 1.363 . S
C978 C977 1.415 . S
C979 H955 0.951 . S
C979 C980 1.366 . S
C979 C981 1.388 . S
C980 C979 1.366 . S
C980 C984 1.385 . S
C981 H956 0.951 . S
C981 C979 1.388 . S
C981 C982 1.366 . S
C982 C981 1.366 . S
C982 C983 1.414 . S
C982 C985 1.499 . S
C983 H957 0.950 . S
C983 C982 1.414 . S
C983 C984 1.374 . S
C984 H958 0.950 . S
C984 C980 1.385 . S
C984 C983 1.374 . S
C985 C982 1.499 . S
C985 C986 1.373 . S
C985 C987 1.389 . S
C986 H959 0.950 . S
C986 C972 1.377 . S
C986 C985 1.373 . S
C987 C971 1.377 . S
C987 C985 1.389 . S
C987 C988 1.524 . S
C988 C987 1.524 . S
C988 C989 1.397 . S
C988 C993 1.363 . S
C989 H960 0.950 . S
C989 C988 1.397 . S
C989 C990 1.334 . S
C990 H961 0.950 . S
C990 C989 1.334 . S
C990 C991 1.287 . S
C991 C990 1.287 . S
C991 C992 1.524 . S
C991 H994 0.999 . S
C992 H962 0.950 . S
C992 C991 1.524 . S
C992 C993 1.415 . S
C993 H963 0.950 . S
C993 C988 1.363 . S
C993 C992 1.415 . S
H994 C991 0.999 . S
H995 C976 0.913 . S
H996 C1014 0.951 . S
H997 C1016 0.951 . S
H998 C1018 0.950 . S
H999 C1019 0.950 . S
H1000 C1021 0.950 . S
H1001 C1024 0.950 . S
H1002 C1025 0.950 . S
H1003 C1027 0.950 . S
H1004 C1028 0.950 . S
H1005 C1029 0.951 . S
H1006 C1031 0.951 . S
H1007 C1033 0.950 . S
H1008 C1034 0.950 . S
H1009 C1036 0.950 . S
H1010 C1039 0.950 . S
H1011 C1040 0.950 . S
H1012 C1042 0.950 . S
H1013 C1043 0.950 . S
C1014 H996 0.951 . S
C1014 C1015 1.366 . S
C1014 C1016 1.388 . S
C1015 C1014 1.366 . S
C1015 C1019 1.385 . S
C1016 H997 0.951 . S
C1016 C1014 1.388 . S
C1016 C1017 1.366 . S
C1017 C1016 1.366 . S
C1017 C1018 1.414 . S
C1017 C1020 1.499 . S
C1018 H998 0.950 . S
C1018 C1017 1.414 . S
C1018 C1019 1.374 . S
C1019 H999 0.950 . S
C1019 C1015 1.385 . S
C1019 C1018 1.374 . S
C1020 C1017 1.499 . S
C1020 C1021 1.373 . S
C1020 C1022 1.389 . S
C1021 H1000 0.950 . S
C1021 C1020 1.373 . S
C1021 C1037 1.377 . S
C1022 C1020 1.389 . S
C1022 C1023 1.524 . S
C1022 C1036 1.377 . S
C1023 C1022 1.524 . S
C1023 C1024 1.397 . S
C1023 C1028 1.363 . S
C1024 H1001 0.950 . S
C1024 C1023 1.397 . S
C1024 C1025 1.334 . S
C1025 H1002 0.950 . S
C1025 C1024 1.334 . S
C1025 C1026 1.287 . S
C1026 C1025 1.287 . S
C1026 C1027 1.524 . S
C1026 H1045 0.913 . S
C1027 H1003 0.950 . S
C1027 C1026 1.524 . S
C1027 C1028 1.415 . S
C1028 H1004 0.950 . S
C1028 C1023 1.363 . S
C1028 C1027 1.415 . S
C1029 H1005 0.951 . S
C1029 C1030 1.366 . S
C1029 C1031 1.388 . S
C1030 C1029 1.366 . S
C1030 C1034 1.385 . S
C1031 H1006 0.951 . S
C1031 C1029 1.388 . S
C1031 C1032 1.366 . S
C1032 C1031 1.366 . S
C1032 C1033 1.414 . S
C1032 C1035 1.499 . S
C1033 H1007 0.950 . S
C1033 C1032 1.414 . S
C1033 C1034 1.374 . S
C1034 H1008 0.950 . S
C1034 C1030 1.385 . S
C1034 C1033 1.374 . S
C1035 C1032 1.499 . S
C1035 C1036 1.373 . S
C1035 C1037 1.389 . S
C1036 H1009 0.950 . S
C1036 C1022 1.377 . S
C1036 C1035 1.373 . S
C1037 C1021 1.377 . S
C1037 C1035 1.389 . S
C1037 C1038 1.524 . S
C1038 C1037 1.524 . S
C1038 C1039 1.397 . S
C1038 C1043 1.363 . S
C1039 H1010 0.950 . S
C1039 C1038 1.397 . S
C1039 C1040 1.334 . S
C1040 H1011 0.950 . S
C1040 C1039 1.334 . S
C1040 C1041 1.287 . S
C1041 C1040 1.287 . S
C1041 C1042 1.524 . S
C1041 H1044 0.999 . S
C1042 H1012 0.950 . S
C1042 C1041 1.524 . S
C1042 C1043 1.415 . S
C1043 H1013 0.950 . S
C1043 C1038 1.363 . S
C1043 C1042 1.415 . S
H1044 C1041 0.999 . S
H1045 C1026 0.913 . S
H1046 C1064 0.951 . S
H1047 C1066 0.951 . S
H1048 C1068 0.950 . S
H1049 C1069 0.950 . S
H1050 C1071 0.950 . S
H1051 C1074 0.950 . S
H1052 C1075 0.950 . S
H1053 C1077 0.950 . S
H1054 C1078 0.950 . S
H1055 C1079 0.951 . S
H1056 C1081 0.951 . S
H1057 C1083 0.950 . S
H1058 C1084 0.950 . S
H1059 C1086 0.950 . S
H1060 C1089 0.950 . S
H1061 C1090 0.950 . S
H1062 C1092 0.950 . S
H1063 C1093 0.950 . S
C1064 H1046 0.951 . S
C1064 C1065 1.366 . S
C1064 C1066 1.388 . S
C1065 C1064 1.366 . S
C1065 C1069 1.385 . S
C1066 H1047 0.951 . S
C1066 C1064 1.388 . S
C1066 C1067 1.366 . S
C1067 C1066 1.366 . S
C1067 C1068 1.414 . S
C1067 C1070 1.499 . S
C1068 H1048 0.950 . S
C1068 C1067 1.414 . S
C1068 C1069 1.374 . S
C1069 H1049 0.950 . S
C1069 C1065 1.385 . S
C1069 C1068 1.374 . S
C1070 C1067 1.499 . S
C1070 C1071 1.373 . S
C1070 C1072 1.389 . S
C1071 H1050 0.950 . S
C1071 C1070 1.373 . S
C1071 C1087 1.377 . S
C1072 C1070 1.389 . S
C1072 C1073 1.524 . S
C1072 C1086 1.377 . S
C1073 C1072 1.524 . S
C1073 C1074 1.397 . S
C1073 C1078 1.363 . S
C1074 H1051 0.950 . S
C1074 C1073 1.397 . S
C1074 C1075 1.334 . S
C1075 H1052 0.950 . S
C1075 C1074 1.334 . S
C1075 C1076 1.287 . S
C1076 C1075 1.287 . S
C1076 C1077 1.524 . S
C1076 H1095 0.913 . S
C1077 H1053 0.950 . S
C1077 C1076 1.524 . S
C1077 C1078 1.415 . S
C1078 H1054 0.950 . S
C1078 C1073 1.363 . S
C1078 C1077 1.415 . S
C1079 H1055 0.951 . S
C1079 C1080 1.366 . S
C1079 C1081 1.388 . S
C1080 C1079 1.366 . S
C1080 C1084 1.385 . S
C1081 H1056 0.951 . S
C1081 C1079 1.388 . S
C1081 C1082 1.366 . S
C1082 C1081 1.366 . S
C1082 C1083 1.414 . S
C1082 C1085 1.499 . S
C1083 H1057 0.950 . S
C1083 C1082 1.414 . S
C1083 C1084 1.374 . S
C1084 H1058 0.950 . S
C1084 C1080 1.385 . S
C1084 C1083 1.374 . S
C1085 C1082 1.499 . S
C1085 C1086 1.373 . S
C1085 C1087 1.389 . S
C1086 H1059 0.950 . S
C1086 C1072 1.377 . S
C1086 C1085 1.373 . S
C1087 C1071 1.377 . S
C1087 C1085 1.389 . S
C1087 C1088 1.524 . S
C1088 C1087 1.524 . S
C1088 C1089 1.397 . S
C1088 C1093 1.363 . S
C1089 H1060 0.950 . S
C1089 C1088 1.397 . S
C1089 C1090 1.334 . S
C1090 H1061 0.950 . S
C1090 C1089 1.334 . S
C1090 C1091 1.287 . S
C1091 C1090 1.287 . S
C1091 C1092 1.524 . S
C1091 H1094 0.999 . S
C1092 H1062 0.950 . S
C1092 C1091 1.524 . S
C1092 C1093 1.415 . S
C1093 H1063 0.950 . S
C1093 C1088 1.363 . S
C1093 C1092 1.415 . S
H1094 C1091 0.999 . S
H1095 C1076 0.913 . S
H1096 C1114 0.951 . S
H1097 C1116 0.951 . S
H1098 C1118 0.950 . S
H1099 C1119 0.950 . S
H1100 C1121 0.950 . S
H1101 C1124 0.950 . S
H1102 C1125 0.950 . S
H1103 C1127 0.950 . S
H1104 C1128 0.950 . S
H1105 C1129 0.951 . S
H1106 C1131 0.951 . S
H1107 C1133 0.950 . S
H1108 C1134 0.950 . S
H1109 C1136 0.950 . S
H1110 C1139 0.950 . S
H1111 C1140 0.950 . S
H1112 C1142 0.950 . S
H1113 C1143 0.950 . S
C1114 H1096 0.951 . S
C1114 C1115 1.366 . S
C1114 C1116 1.388 . S
C1115 C1114 1.366 . S
C1115 C1119 1.385 . S
C1116 H1097 0.951 . S
C1116 C1114 1.388 . S
C1116 C1117 1.366 . S
C1117 C1116 1.366 . S
C1117 C1118 1.414 . S
C1117 C1120 1.499 . S
C1118 H1098 0.950 . S
C1118 C1117 1.414 . S
C1118 C1119 1.374 . S
C1119 H1099 0.950 . S
C1119 C1115 1.385 . S
C1119 C1118 1.374 . S
C1120 C1117 1.499 . S
C1120 C1121 1.373 . S
C1120 C1122 1.389 . S
C1121 H1100 0.950 . S
C1121 C1120 1.373 . S
C1121 C1137 1.377 . S
C1122 C1120 1.389 . S
C1122 C1123 1.524 . S
C1122 C1136 1.377 . S
C1123 C1122 1.524 . S
C1123 C1124 1.397 . S
C1123 C1128 1.363 . S
C1124 H1101 0.950 . S
C1124 C1123 1.397 . S
C1124 C1125 1.334 . S
C1125 H1102 0.950 . S
C1125 C1124 1.334 . S
C1125 C1126 1.287 . S
C1126 C1125 1.287 . S
C1126 C1127 1.524 . S
C1126 H1145 0.913 . S
C1127 H1103 0.950 . S
C1127 C1126 1.524 . S
C1127 C1128 1.415 . S
C1128 H1104 0.950 . S
C1128 C1123 1.363 . S
C1128 C1127 1.415 . S
C1129 H1105 0.951 . S
C1129 C1130 1.366 . S
C1129 C1131 1.388 . S
C1130 C1129 1.366 . S
C1130 C1134 1.385 . S
C1131 H1106 0.951 . S
C1131 C1129 1.388 . S
C1131 C1132 1.366 . S
C1132 C1131 1.366 . S
C1132 C1133 1.414 . S
C1132 C1135 1.499 . S
C1133 H1107 0.950 . S
C1133 C1132 1.414 . S
C1133 C1134 1.374 . S
C1134 H1108 0.950 . S
C1134 C1130 1.385 . S
C1134 C1133 1.374 . S
C1135 C1132 1.499 . S
C1135 C1136 1.373 . S
C1135 C1137 1.389 . S
C1136 H1109 0.950 . S
C1136 C1122 1.377 . S
C1136 C1135 1.373 . S
C1137 C1121 1.377 . S
C1137 C1135 1.389 . S
C1137 C1138 1.524 . S
C1138 C1137 1.524 . S
C1138 C1139 1.397 . S
C1138 C1143 1.363 . S
C1139 H1110 0.950 . S
C1139 C1138 1.397 . S
C1139 C1140 1.334 . S
C1140 H1111 0.950 . S
C1140 C1139 1.334 . S
C1140 C1141 1.287 . S
C1141 C1140 1.287 . S
C1141 C1142 1.524 . S
C1141 H1144 0.999 . S
C1142 H1112 0.950 . S
C1142 C1141 1.524 . S
C1142 C1143 1.415 . S
C1143 H1113 0.950 . S
C1143 C1138 1.363 . S
C1143 C1142 1.415 . S
H1144 C1141 0.999 . S
H1145 C1126 0.913 . S
H1146 C1164 0.951 . S
H1147 C1166 0.951 . S
H1148 C1168 0.950 . S
H1149 C1169 0.950 . S
H1150 C1171 0.950 . S
H1151 C1174 0.950 . S
H1152 C1175 0.950 . S
H1153 C1177 0.950 . S
H1154 C1178 0.950 . S
H1155 C1179 0.951 . S
H1156 C1181 0.951 . S
H1157 C1183 0.950 . S
H1158 C1184 0.950 . S
H1159 C1186 0.950 . S
H1160 C1189 0.950 . S
H1161 C1190 0.950 . S
H1162 C1192 0.950 . S
H1163 C1193 0.950 . S
C1164 H1146 0.951 . S
C1164 C1165 1.366 . S
C1164 C1166 1.388 . S
C1165 C1164 1.366 . S
C1165 C1169 1.385 . S
C1166 H1147 0.951 . S
C1166 C1164 1.388 . S
C1166 C1167 1.366 . S
C1167 C1166 1.366 . S
C1167 C1168 1.414 . S
C1167 C1170 1.499 . S
C1168 H1148 0.950 . S
C1168 C1167 1.414 . S
C1168 C1169 1.374 . S
C1169 H1149 0.950 . S
C1169 C1165 1.385 . S
C1169 C1168 1.374 . S
C1170 C1167 1.499 . S
C1170 C1171 1.373 . S
C1170 C1172 1.389 . S
C1171 H1150 0.950 . S
C1171 C1170 1.373 . S
C1171 C1187 1.377 . S
C1172 C1170 1.389 . S
C1172 C1173 1.524 . S
C1172 C1186 1.377 . S
C1173 C1172 1.524 . S
C1173 C1174 1.397 . S
C1173 C1178 1.363 . S
C1174 H1151 0.950 . S
C1174 C1173 1.397 . S
C1174 C1175 1.334 . S
C1175 H1152 0.950 . S
C1175 C1174 1.334 . S
C1175 C1176 1.287 . S
C1176 C1175 1.287 . S
C1176 C1177 1.524 . S
C1176 H1195 0.913 . S
C1177 H1153 0.950 . S
C1177 C1176 1.524 . S
C1177 C1178 1.415 . S
C1178 H1154 0.950 . S
C1178 C1173 1.363 . S
C1178 C1177 1.415 . S
C1179 H1155 0.951 . S
C1179 C1180 1.366 . S
C1179 C1181 1.388 . S
C1180 C1179 1.366 . S
C1180 C1184 1.385 . S
C1181 H1156 0.951 . S
C1181 C1179 1.388 . S
C1181 C1182 1.366 . S
C1182 C1181 1.366 . S
C1182 C1183 1.414 . S
C1182 C1185 1.499 . S
C1183 H1157 0.950 . S
C1183 C1182 1.414 . S
C1183 C1184 1.374 . S
C1184 H1158 0.950 . S
C1184 C1180 1.385 . S
C1184 C1183 1.374 . S
C1185 C1182 1.499 . S
C1185 C1186 1.373 . S
C1185 C1187 1.389 . S
C1186 H1159 0.950 . S
C1186 C1172 1.377 . S
C1186 C1185 1.373 . S
C1187 C1171 1.377 . S
C1187 C1185 1.389 . S
C1187 C1188 1.524 . S
C1188 C1187 1.524 . S
C1188 C1189 1.397 . S
C1188 C1193 1.363 . S
C1189 H1160 0.950 . S
C1189 C1188 1.397 . S
C1189 C1190 1.334 . S
C1190 H1161 0.950 . S
C1190 C1189 1.334 . S
C1190 C1191 1.287 . S
C1191 C1190 1.287 . S
C1191 C1192 1.524 . S
C1191 H1194 0.999 . S
C1192 H1162 0.950 . S
C1192 C1191 1.524 . S
C1192 C1193 1.415 . S
C1193 H1163 0.950 . S
C1193 C1188 1.363 . S
C1193 C1192 1.415 . S
H1194 C1191 0.999 . S
H1195 C1176 0.913 . S
H1196 C1214 0.951 . S
H1197 C1216 0.951 . S
H1198 C1218 0.950 . S
H1199 C1219 0.950 . S
H1200 C1221 0.950 . S
H1201 C1224 0.950 . S
H1202 C1225 0.950 . S
H1203 C1227 0.950 . S
H1204 C1228 0.950 . S
H1205 C1229 0.951 . S
H1206 C1231 0.951 . S
H1207 C1233 0.950 . S
H1208 C1234 0.950 . S
H1209 C1236 0.950 . S
H1210 C1239 0.950 . S
H1211 C1240 0.950 . S
H1212 C1242 0.950 . S
H1213 C1243 0.950 . S
C1214 H1196 0.951 . S
C1214 C1215 1.366 . S
C1214 C1216 1.388 . S
C1215 C1214 1.366 . S
C1215 C1219 1.385 . S
C1216 H1197 0.951 . S
C1216 C1214 1.388 . S
C1216 C1217 1.366 . S
C1217 C1216 1.366 . S
C1217 C1218 1.414 . S
C1217 C1220 1.499 . S
C1218 H1198 0.950 . S
C1218 C1217 1.414 . S
C1218 C1219 1.374 . S
C1219 H1199 0.950 . S
C1219 C1215 1.385 . S
C1219 C1218 1.374 . S
C1220 C1217 1.499 . S
C1220 C1221 1.373 . S
C1220 C1222 1.389 . S
C1221 H1200 0.950 . S
C1221 C1220 1.373 . S
C1221 C1237 1.377 . S
C1222 C1220 1.389 . S
C1222 C1223 1.524 . S
C1222 C1236 1.377 . S
C1223 C1222 1.524 . S
C1223 C1224 1.397 . S
C1223 C1228 1.363 . S
C1224 H1201 0.950 . S
C1224 C1223 1.397 . S
C1224 C1225 1.334 . S
C1225 H1202 0.950 . S
C1225 C1224 1.334 . S
C1225 C1226 1.287 . S
C1226 C1225 1.287 . S
C1226 C1227 1.524 . S
C1226 H1245 0.913 . S
C1227 H1203 0.950 . S
C1227 C1226 1.524 . S
C1227 C1228 1.415 . S
C1228 H1204 0.950 . S
C1228 C1223 1.363 . S
C1228 C1227 1.415 . S
C1229 H1205 0.951 . S
C1229 C1230 1.366 . S
C1229 C1231 1.388 . S
C1230 C1229 1.366 . S
C1230 C1234 1.385 . S
C1231 H1206 0.951 . S
C1231 C1229 1.388 . S
C1231 C1232 1.366 . S
C1232 C1231 1.366 . S
C1232 C1233 1.414 . S
C1232 C1235 1.499 . S
C1233 H1207 0.950 . S
C1233 C1232 1.414 . S
C1233 C1234 1.374 . S
C1234 H1208 0.950 . S
C1234 C1230 1.385 . S
C1234 C1233 1.374 . S
C1235 C1232 1.499 . S
C1235 C1236 1.373 . S
C1235 C1237 1.389 . S
C1236 H1209 0.950 . S
C1236 C1222 1.377 . S
C1236 C1235 1.373 . S
C1237 C1221 1.377 . S
C1237 C1235 1.389 . S
C1237 C1238 1.524 . S
C1238 C1237 1.524 . S
C1238 C1239 1.397 . S
C1238 C1243 1.363 . S
C1239 H1210 0.950 . S
C1239 C1238 1.397 . S
C1239 C1240 1.334 . S
C1240 H1211 0.950 . S
C1240 C1239 1.334 . S
C1240 C1241 1.287 . S
C1241 C1240 1.287 . S
C1241 C1242 1.524 . S
C1241 H1244 0.999 . S
C1242 H1212 0.950 . S
C1242 C1241 1.524 . S
C1242 C1243 1.415 . S
C1243 H1213 0.950 . S
C1243 C1238 1.363 . S
C1243 C1242 1.415 . S
H1244 C1241 0.999 . S
H1245 C1226 0.913 . S
H1246 C1264 0.951 . S
H1247 C1266 0.951 . S
H1248 C1268 0.950 . S
H1249 C1269 0.950 . S
H1250 C1271 0.950 . S
H1251 C1274 0.950 . S
H1252 C1275 0.950 . S
H1253 C1277 0.950 . S
H1254 C1278 0.950 . S
H1255 C1279 0.951 . S
H1256 C1281 0.951 . S
H1257 C1283 0.950 . S
H1258 C1284 0.950 . S
H1259 C1286 0.950 . S
H1260 C1289 0.950 . S
H1261 C1290 0.950 . S
H1262 C1292 0.950 . S
H1263 C1293 0.950 . S
C1264 H1246 0.951 . S
C1264 C1265 1.366 . S
C1264 C1266 1.388 . S
C1265 C1264 1.366 . S
C1265 C1269 1.385 . S
C1266 H1247 0.951 . S
C1266 C1264 1.388 . S
C1266 C1267 1.366 . S
C1267 C1266 1.366 . S
C1267 C1268 1.414 . S
C1267 C1270 1.499 . S
C1268 H1248 0.950 . S
C1268 C1267 1.414 . S
C1268 C1269 1.374 . S
C1269 H1249 0.950 . S
C1269 C1265 1.385 . S
C1269 C1268 1.374 . S
C1270 C1267 1.499 . S
C1270 C1271 1.373 . S
C1270 C1272 1.389 . S
C1271 H1250 0.950 . S
C1271 C1270 1.373 . S
C1271 C1287 1.377 . S
C1272 C1270 1.389 . S
C1272 C1273 1.524 . S
C1272 C1286 1.377 . S
C1273 C1272 1.524 . S
C1273 C1274 1.397 . S
C1273 C1278 1.363 . S
C1274 H1251 0.950 . S
C1274 C1273 1.397 . S
C1274 C1275 1.334 . S
C1275 H1252 0.950 . S
C1275 C1274 1.334 . S
C1275 C1276 1.287 . S
C1276 C1275 1.287 . S
C1276 C1277 1.524 . S
C1276 H1295 0.913 . S
C1277 H1253 0.950 . S
C1277 C1276 1.524 . S
C1277 C1278 1.415 . S
C1278 H1254 0.950 . S
C1278 C1273 1.363 . S
C1278 C1277 1.415 . S
C1279 H1255 0.951 . S
C1279 C1280 1.366 . S
C1279 C1281 1.388 . S
C1280 C1279 1.366 . S
C1280 C1284 1.385 . S
C1281 H1256 0.951 . S
C1281 C1279 1.388 . S
C1281 C1282 1.366 . S
C1282 C1281 1.366 . S
C1282 C1283 1.414 . S
C1282 C1285 1.499 . S
C1283 H1257 0.950 . S
C1283 C1282 1.414 . S
C1283 C1284 1.374 . S
C1284 H1258 0.950 . S
C1284 C1280 1.385 . S
C1284 C1283 1.374 . S
C1285 C1282 1.499 . S
C1285 C1286 1.373 . S
C1285 C1287 1.389 . S
C1286 H1259 0.950 . S
C1286 C1272 1.377 . S
C1286 C1285 1.373 . S
C1287 C1271 1.377 . S
C1287 C1285 1.389 . S
C1287 C1288 1.524 . S
C1288 C1287 1.524 . S
C1288 C1289 1.397 . S
C1288 C1293 1.363 . S
C1289 H1260 0.950 . S
C1289 C1288 1.397 . S
C1289 C1290 1.334 . S
C1290 H1261 0.950 . S
C1290 C1289 1.334 . S
C1290 C1291 1.287 . S
C1291 C1290 1.287 . S
C1291 C1292 1.524 . S
C1291 H1294 0.999 . S
C1292 H1262 0.950 . S
C1292 C1291 1.524 . S
C1292 C1293 1.415 . S
C1293 H1263 0.950 . S
C1293 C1288 1.363 . S
C1293 C1292 1.415 . S
H1294 C1291 0.999 . S
H1295 C1276 0.913 . S
H1296 C1314 0.951 . S
H1297 C1316 0.951 . S
H1298 C1318 0.950 . S
H1299 C1319 0.950 . S
H1300 C1321 0.950 . S
H1301 C1324 0.950 . S
H1302 C1325 0.950 . S
H1303 C1327 0.950 . S
H1304 C1328 0.950 . S
H1305 C1329 0.951 . S
H1306 C1331 0.951 . S
H1307 C1333 0.950 . S
H1308 C1334 0.950 . S
H1309 C1336 0.950 . S
H1310 C1339 0.950 . S
H1311 C1340 0.950 . S
H1312 C1342 0.950 . S
H1313 C1343 0.950 . S
C1314 H1296 0.951 . S
C1314 C1315 1.366 . S
C1314 C1316 1.388 . S
C1315 C1314 1.366 . S
C1315 C1319 1.385 . S
C1316 H1297 0.951 . S
C1316 C1314 1.388 . S
C1316 C1317 1.366 . S
C1317 C1316 1.366 . S
C1317 C1318 1.414 . S
C1317 C1320 1.499 . S
C1318 H1298 0.950 . S
C1318 C1317 1.414 . S
C1318 C1319 1.374 . S
C1319 H1299 0.950 . S
C1319 C1315 1.385 . S
C1319 C1318 1.374 . S
C1320 C1317 1.499 . S
C1320 C1321 1.373 . S
C1320 C1322 1.389 . S
C1321 H1300 0.950 . S
C1321 C1320 1.373 . S
C1321 C1337 1.377 . S
C1322 C1320 1.389 . S
C1322 C1323 1.524 . S
C1322 C1336 1.377 . S
C1323 C1322 1.524 . S
C1323 C1324 1.397 . S
C1323 C1328 1.363 . S
C1324 H1301 0.950 . S
C1324 C1323 1.397 . S
C1324 C1325 1.334 . S
C1325 H1302 0.950 . S
C1325 C1324 1.334 . S
C1325 C1326 1.287 . S
C1326 C1325 1.287 . S
C1326 C1327 1.524 . S
C1326 H1345 0.913 . S
C1327 H1303 0.950 . S
C1327 C1326 1.524 . S
C1327 C1328 1.415 . S
C1328 H1304 0.950 . S
C1328 C1323 1.363 . S
C1328 C1327 1.415 . S
C1329 H1305 0.951 . S
C1329 C1330 1.366 . S
C1329 C1331 1.388 . S
C1330 C1329 1.366 . S
C1330 C1334 1.385 . S
C1331 H1306 0.951 . S
C1331 C1329 1.388 . S
C1331 C1332 1.366 . S
C1332 C1331 1.366 . S
C1332 C1333 1.414 . S
C1332 C1335 1.499 . S
C1333 H1307 0.950 . S
C1333 C1332 1.414 . S
C1333 C1334 1.374 . S
C1334 H1308 0.950 . S
C1334 C1330 1.385 . S
C1334 C1333 1.374 . S
C1335 C1332 1.499 . S
C1335 C1336 1.373 . S
C1335 C1337 1.389 . S
C1336 H1309 0.950 . S
C1336 C1322 1.377 . S
C1336 C1335 1.373 . S
C1337 C1321 1.377 . S
C1337 C1335 1.389 . S
C1337 C1338 1.524 . S
C1338 C1337 1.524 . S
C1338 C1339 1.397 . S
C1338 C1343 1.363 . S
C1339 H1310 0.950 . S
C1339 C1338 1.397 . S
C1339 C1340 1.334 . S
C1340 H1311 0.950 . S
C1340 C1339 1.334 . S
C1340 C1341 1.287 . S
C1341 C1340 1.287 . S
C1341 C1342 1.524 . S
C1341 H1344 0.999 . S
C1342 H1312 0.950 . S
C1342 C1341 1.524 . S
C1342 C1343 1.415 . S
C1343 H1313 0.950 . S
C1343 C1338 1.363 . S
C1343 C1342 1.415 . S
H1344 C1341 0.999 . S
H1345 C1326 0.913 . S
H1346 C1364 0.951 . S
H1347 C1366 0.951 . S
H1348 C1368 0.950 . S
H1349 C1369 0.950 . S
H1350 C1371 0.950 . S
H1351 C1374 0.950 . S
H1352 C1375 0.950 . S
H1353 C1377 0.950 . S
H1354 C1378 0.950 . S
H1355 C1379 0.951 . S
H1356 C1381 0.951 . S
H1357 C1383 0.950 . S
H1358 C1384 0.950 . S
H1359 C1386 0.950 . S
H1360 C1389 0.950 . S
H1361 C1390 0.950 . S
H1362 C1392 0.950 . S
H1363 C1393 0.950 . S
C1364 H1346 0.951 . S
C1364 C1365 1.366 . S
C1364 C1366 1.388 . S
C1365 C1364 1.366 . S
C1365 C1369 1.385 . S
C1366 H1347 0.951 . S
C1366 C1364 1.388 . S
C1366 C1367 1.366 . S
C1367 C1366 1.366 . S
C1367 C1368 1.414 . S
C1367 C1370 1.499 . S
C1368 H1348 0.950 . S
C1368 C1367 1.414 . S
C1368 C1369 1.374 . S
C1369 H1349 0.950 . S
C1369 C1365 1.385 . S
C1369 C1368 1.374 . S
C1370 C1367 1.499 . S
C1370 C1371 1.373 . S
C1370 C1372 1.389 . S
C1371 H1350 0.950 . S
C1371 C1370 1.373 . S
C1371 C1387 1.377 . S
C1372 C1370 1.389 . S
C1372 C1373 1.524 . S
C1372 C1386 1.377 . S
C1373 C1372 1.524 . S
C1373 C1374 1.397 . S
C1373 C1378 1.363 . S
C1374 H1351 0.950 . S
C1374 C1373 1.397 . S
C1374 C1375 1.334 . S
C1375 H1352 0.950 . S
C1375 C1374 1.334 . S
C1375 C1376 1.287 . S
C1376 C1375 1.287 . S
C1376 C1377 1.524 . S
C1376 H1395 0.913 . S
C1377 H1353 0.950 . S
C1377 C1376 1.524 . S
C1377 C1378 1.415 . S
C1378 H1354 0.950 . S
C1378 C1373 1.363 . S
C1378 C1377 1.415 . S
C1379 H1355 0.951 . S
C1379 C1380 1.366 . S
C1379 C1381 1.388 . S
C1380 C1379 1.366 . S
C1380 C1384 1.385 . S
C1381 H1356 0.951 . S
C1381 C1379 1.388 . S
C1381 C1382 1.366 . S
C1382 C1381 1.366 . S
C1382 C1383 1.414 . S
C1382 C1385 1.499 . S
C1383 H1357 0.950 . S
C1383 C1382 1.414 . S
C1383 C1384 1.374 . S
C1384 H1358 0.950 . S
C1384 C1380 1.385 . S
C1384 C1383 1.374 . S
C1385 C1382 1.499 . S
C1385 C1386 1.373 . S
C1385 C1387 1.389 . S
C1386 H1359 0.950 . S
C1386 C1372 1.377 . S
C1386 C1385 1.373 . S
C1387 C1371 1.377 . S
C1387 C1385 1.389 . S
C1387 C1388 1.524 . S
C1388 C1387 1.524 . S
C1388 C1389 1.397 . S
C1388 C1393 1.363 . S
C1389 H1360 0.950 . S
C1389 C1388 1.397 . S
C1389 C1390 1.334 . S
C1390 H1361 0.950 . S
C1390 C1389 1.334 . S
C1390 C1391 1.287 . S
C1391 C1390 1.287 . S
C1391 C1392 1.524 . S
C1391 H1394 0.999 . S
C1392 H1362 0.950 . S
C1392 C1391 1.524 . S
C1392 C1393 1.415 . S
C1393 H1363 0.950 . S
C1393 C1388 1.363 . S
C1393 C1392 1.415 . S
H1394 C1391 0.999 . S
H1395 C1376 0.913 . S
H1396 C1414 0.951 . S
H1397 C1416 0.951 . S
H1398 C1418 0.950 . S
H1399 C1419 0.950 . S
H1400 C1421 0.950 . S
H1401 C1424 0.950 . S
H1402 C1425 0.950 . S
H1403 C1427 0.950 . S
H1404 C1428 0.950 . S
H1405 C1429 0.951 . S
H1406 C1431 0.951 . S
H1407 C1433 0.950 . S
H1408 C1434 0.950 . S
H1409 C1436 0.950 . S
H1410 C1439 0.950 . S
H1411 C1440 0.950 . S
H1412 C1442 0.950 . S
H1413 C1443 0.950 . S
C1414 H1396 0.951 . S
C1414 C1415 1.366 . S
C1414 C1416 1.388 . S
C1415 C1414 1.366 . S
C1415 C1419 1.385 . S
C1416 H1397 0.951 . S
C1416 C1414 1.388 . S
C1416 C1417 1.366 . S
C1417 C1416 1.366 . S
C1417 C1418 1.414 . S
C1417 C1420 1.499 . S
C1418 H1398 0.950 . S
C1418 C1417 1.414 . S
C1418 C1419 1.374 . S
C1419 H1399 0.950 . S
C1419 C1415 1.385 . S
C1419 C1418 1.374 . S
C1420 C1417 1.499 . S
C1420 C1421 1.373 . S
C1420 C1422 1.389 . S
C1421 H1400 0.950 . S
C1421 C1420 1.373 . S
C1421 C1437 1.377 . S
C1422 C1420 1.389 . S
C1422 C1423 1.524 . S
C1422 C1436 1.377 . S
C1423 C1422 1.524 . S
C1423 C1424 1.397 . S
C1423 C1428 1.363 . S
C1424 H1401 0.950 . S
C1424 C1423 1.397 . S
C1424 C1425 1.334 . S
C1425 H1402 0.950 . S
C1425 C1424 1.334 . S
C1425 C1426 1.287 . S
C1426 C1425 1.287 . S
C1426 C1427 1.524 . S
C1426 H1445 0.913 . S
C1427 H1403 0.950 . S
C1427 C1426 1.524 . S
C1427 C1428 1.415 . S
C1428 H1404 0.950 . S
C1428 C1423 1.363 . S
C1428 C1427 1.415 . S
C1429 H1405 0.951 . S
C1429 C1430 1.366 . S
C1429 C1431 1.388 . S
C1430 C1429 1.366 . S
C1430 C1434 1.385 . S
C1431 H1406 0.951 . S
C1431 C1429 1.388 . S
C1431 C1432 1.366 . S
C1432 C1431 1.366 . S
C1432 C1433 1.414 . S
C1432 C1435 1.499 . S
C1433 H1407 0.950 . S
C1433 C1432 1.414 . S
C1433 C1434 1.374 . S
C1434 H1408 0.950 . S
C1434 C1430 1.385 . S
C1434 C1433 1.374 . S
C1435 C1432 1.499 . S
C1435 C1436 1.373 . S
C1435 C1437 1.389 . S
C1436 H1409 0.950 . S
C1436 C1422 1.377 . S
C1436 C1435 1.373 . S
C1437 C1421 1.377 . S
C1437 C1435 1.389 . S
C1437 C1438 1.524 . S
C1438 C1437 1.524 . S
C1438 C1439 1.397 . S
C1438 C1443 1.363 . S
C1439 H1410 0.950 . S
C1439 C1438 1.397 . S
C1439 C1440 1.334 . S
C1440 H1411 0.950 . S
C1440 C1439 1.334 . S
C1440 C1441 1.287 . S
C1441 C1440 1.287 . S
C1441 C1442 1.524 . S
C1441 H1444 0.999 . S
C1442 H1412 0.950 . S
C1442 C1441 1.524 . S
C1442 C1443 1.415 . S
C1443 H1413 0.950 . S
C1443 C1438 1.363 . S
C1443 C1442 1.415 . S
H1444 C1441 0.999 . S
H1445 C1426 0.913 . S
H1446 C1464 0.951 . S
H1447 C1466 0.951 . S
H1448 C1468 0.950 . S
H1449 C1469 0.950 . S
H1450 C1471 0.950 . S
H1451 C1474 0.950 . S
H1452 C1475 0.950 . S
H1453 C1477 0.950 . S
H1454 C1478 0.950 . S
H1455 C1479 0.951 . S
H1456 C1481 0.951 . S
H1457 C1483 0.950 . S
H1458 C1484 0.950 . S
H1459 C1486 0.950 . S
H1460 C1489 0.950 . S
H1461 C1490 0.950 . S
H1462 C1492 0.950 . S
H1463 C1493 0.950 . S
C1464 H1446 0.951 . S
C1464 C1465 1.366 . S
C1464 C1466 1.388 . S
C1465 C1464 1.366 . S
C1465 C1469 1.385 . S
C1466 H1447 0.951 . S
C1466 C1464 1.388 . S
C1466 C1467 1.366 . S
C1467 C1466 1.366 . S
C1467 C1468 1.414 . S
C1467 C1470 1.499 . S
C1468 H1448 0.950 . S
C1468 C1467 1.414 . S
C1468 C1469 1.374 . S
C1469 H1449 0.950 . S
C1469 C1465 1.385 . S
C1469 C1468 1.374 . S
C1470 C1467 1.499 . S
C1470 C1471 1.373 . S
C1470 C1472 1.389 . S
C1471 H1450 0.950 . S
C1471 C1470 1.373 . S
C1471 C1487 1.377 . S
C1472 C1470 1.389 . S
C1472 C1473 1.524 . S
C1472 C1486 1.377 . S
C1473 C1472 1.524 . S
C1473 C1474 1.397 . S
C1473 C1478 1.363 . S
C1474 H1451 0.950 . S
C1474 C1473 1.397 . S
C1474 C1475 1.334 . S
C1475 H1452 0.950 . S
C1475 C1474 1.334 . S
C1475 C1476 1.287 . S
C1476 C1475 1.287 . S
C1476 C1477 1.524 . S
C1476 H1495 0.913 . S
C1477 H1453 0.950 . S
C1477 C1476 1.524 . S
C1477 C1478 1.415 . S
C1478 H1454 0.950 . S
C1478 C1473 1.363 . S
C1478 C1477 1.415 . S
C1479 H1455 0.951 . S
C1479 C1480 1.366 . S
C1479 C1481 1.388 . S
C1480 C1479 1.366 . S
C1480 C1484 1.385 . S
C1481 H1456 0.951 . S
C1481 C1479 1.388 . S
C1481 C1482 1.366 . S
C1482 C1481 1.366 . S
C1482 C1483 1.414 . S
C1482 C1485 1.499 . S
C1483 H1457 0.950 . S
C1483 C1482 1.414 . S
C1483 C1484 1.374 . S
C1484 H1458 0.950 . S
C1484 C1480 1.385 . S
C1484 C1483 1.374 . S
C1485 C1482 1.499 . S
C1485 C1486 1.373 . S
C1485 C1487 1.389 . S
C1486 H1459 0.950 . S
C1486 C1472 1.377 . S
C1486 C1485 1.373 . S
C1487 C1471 1.377 . S
C1487 C1485 1.389 . S
C1487 C1488 1.524 . S
C1488 C1487 1.524 . S
C1488 C1489 1.397 . S
C1488 C1493 1.363 . S
C1489 H1460 0.950 . S
C1489 C1488 1.397 . S
C1489 C1490 1.334 . S
C1490 H1461 0.950 . S
C1490 C1489 1.334 . S
C1490 C1491 1.287 . S
C1491 C1490 1.287 . S
C1491 C1492 1.524 . S
C1491 H1494 0.999 . S
C1492 H1462 0.950 . S
C1492 C1491 1.524 . S
C1492 C1493 1.415 . S
C1493 H1463 0.950 . S
C1493 C1488 1.363 . S
C1493 C1492 1.415 . S
H1494 C1491 0.999 . S
H1495 C1476 0.913 . S
H1496 C1514 0.951 . S
H1497 C1516 0.951 . S
H1498 C1518 0.950 . S
H1499 C1519 0.950 . S
H1500 C1521 0.950 . S
H1501 C1524 0.950 . S
H1502 C1525 0.950 . S
H1503 C1527 0.950 . S
H1504 C1528 0.950 . S
H1505 C1529 0.951 . S
H1506 C1531 0.951 . S
H1507 C1533 0.950 . S
H1508 C1534 0.950 . S
H1509 C1536 0.950 . S
H1510 C1539 0.950 . S
H1511 C1540 0.950 . S
H1512 C1542 0.950 . S
H1513 C1543 0.950 . S
C1514 H1496 0.951 . S
C1514 C1515 1.366 . S
C1514 C1516 1.388 . S
C1515 C1514 1.366 . S
C1515 C1519 1.385 . S
C1516 H1497 0.951 . S
C1516 C1514 1.388 . S
C1516 C1517 1.366 . S
C1517 C1516 1.366 . S
C1517 C1518 1.414 . S
C1517 C1520 1.499 . S
C1518 H1498 0.950 . S
C1518 C1517 1.414 . S
C1518 C1519 1.374 . S
C1519 H1499 0.950 . S
C1519 C1515 1.385 . S
C1519 C1518 1.374 . S
C1520 C1517 1.499 . S
C1520 C1521 1.373 . S
C1520 C1522 1.389 . S
C1521 H1500 0.950 . S
C1521 C1520 1.373 . S
C1521 C1537 1.377 . S
C1522 C1520 1.389 . S
C1522 C1523 1.524 . S
C1522 C1536 1.377 . S
C1523 C1522 1.524 . S
C1523 C1524 1.397 . S
C1523 C1528 1.363 . S
C1524 H1501 0.950 . S
C1524 C1523 1.397 . S
C1524 C1525 1.334 . S
C1525 H1502 0.950 . S
C1525 C1524 1.334 . S
C1525 C1526 1.287 . S
C1526 C1525 1.287 . S
C1526 C1527 1.524 . S
C1526 H1545 0.913 . S
C1527 H1503 0.950 . S
C1527 C1526 1.524 . S
C1527 C1528 1.415 . S
C1528 H1504 0.950 . S
C1528 C1523 1.363 . S
C1528 C1527 1.415 . S
C1529 H1505 0.951 . S
C1529 C1530 1.366 . S
C1529 C1531 1.388 . S
C1530 C1529 1.366 . S
C1530 C1534 1.385 . S
C1531 H1506 0.951 . S
C1531 C1529 1.388 . S
C1531 C1532 1.366 . S
C1532 C1531 1.366 . S
C1532 C1533 1.414 . S
C1532 C1535 1.499 . S
C1533 H1507 0.950 . S
C1533 C1532 1.414 . S
C1533 C1534 1.374 . S
C1534 H1508 0.950 . S
C1534 C1530 1.385 . S
C1534 C1533 1.374 . S
C1535 C1532 1.499 . S
C1535 C1536 1.373 . S
C1535 C1537 1.389 . S
C1536 H1509 0.950 . S
C1536 C1522 1.377 . S
C1536 C1535 1.373 . S
C1537 C1521 1.377 . S
C1537 C1535 1.389 . S
C1537 C1538 1.524 . S
C1538 C1537 1.524 . S
C1538 C1539 1.397 . S
C1538 C1543 1.363 . S
C1539 H1510 0.950 . S
C1539 C1538 1.397 . S
C1539 C1540 1.334 . S
C1540 H1511 0.950 . S
C1540 C1539 1.334 . S
C1540 C1541 1.287 . S
C1541 C1540 1.287 . S
C1541 C1542 1.524 . S
C1541 H1544 0.999 . S
C1542 H1512 0.950 . S
C1542 C1541 1.524 . S
C1542 C1543 1.415 . S
C1543 H1513 0.950 . S
C1543 C1538 1.363 . S
C1543 C1542 1.415 . S
H1544 C1541 0.999 . S
H1545 C1526 0.913 . S
H1546 C1564 0.951 . S
H1547 C1566 0.951 . S
H1548 C1568 0.950 . S
H1549 C1569 0.950 . S
H1550 C1571 0.950 . S
H1551 C1574 0.950 . S
H1552 C1575 0.950 . S
H1553 C1577 0.950 . S
H1554 C1578 0.950 . S
H1555 C1579 0.951 . S
H1556 C1581 0.951 . S
H1557 C1583 0.950 . S
H1558 C1584 0.950 . S
H1559 C1586 0.950 . S
H1560 C1589 0.950 . S
H1561 C1590 0.950 . S
H1562 C1592 0.950 . S
H1563 C1593 0.950 . S
C1564 H1546 0.951 . S
C1564 C1565 1.366 . S
C1564 C1566 1.388 . S
C1565 C1564 1.366 . S
C1565 C1569 1.385 . S
C1566 H1547 0.951 . S
C1566 C1564 1.388 . S
C1566 C1567 1.366 . S
C1567 C1566 1.366 . S
C1567 C1568 1.414 . S
C1567 C1570 1.499 . S
C1568 H1548 0.950 . S
C1568 C1567 1.414 . S
C1568 C1569 1.374 . S
C1569 H1549 0.950 . S
C1569 C1565 1.385 . S
C1569 C1568 1.374 . S
C1570 C1567 1.499 . S
C1570 C1571 1.373 . S
C1570 C1572 1.389 . S
C1571 H1550 0.950 . S
C1571 C1570 1.373 . S
C1571 C1587 1.377 . S
C1572 C1570 1.389 . S
C1572 C1573 1.524 . S
C1572 C1586 1.377 . S
C1573 C1572 1.524 . S
C1573 C1574 1.397 . S
C1573 C1578 1.363 . S
C1574 H1551 0.950 . S
C1574 C1573 1.397 . S
C1574 C1575 1.334 . S
C1575 H1552 0.950 . S
C1575 C1574 1.334 . S
C1575 C1576 1.287 . S
C1576 C1575 1.287 . S
C1576 C1577 1.524 . S
C1576 H1595 0.913 . S
C1577 H1553 0.950 . S
C1577 C1576 1.524 . S
C1577 C1578 1.415 . S
C1578 H1554 0.950 . S
C1578 C1573 1.363 . S
C1578 C1577 1.415 . S
C1579 H1555 0.951 . S
C1579 C1580 1.366 . S
C1579 C1581 1.388 . S
C1580 C1579 1.366 . S
C1580 C1584 1.385 . S
C1581 H1556 0.951 . S
C1581 C1579 1.388 . S
C1581 C1582 1.366 . S
C1582 C1581 1.366 . S
C1582 C1583 1.414 . S
C1582 C1585 1.499 . S
C1583 H1557 0.950 . S
C1583 C1582 1.414 . S
C1583 C1584 1.374 . S
C1584 H1558 0.950 . S
C1584 C1580 1.385 . S
C1584 C1583 1.374 . S
C1585 C1582 1.499 . S
C1585 C1586 1.373 . S
C1585 C1587 1.389 . S
C1586 H1559 0.950 . S
C1586 C1572 1.377 . S
C1586 C1585 1.373 . S
C1587 C1571 1.377 . S
C1587 C1585 1.389 . S
C1587 C1588 1.524 . S
C1588 C1587 1.524 . S
C1588 C1589 1.397 . S
C1588 C1593 1.363 . S
C1589 H1560 0.950 . S
C1589 C1588 1.397 . S
C1589 C1590 1.334 . S
C1590 H1561 0.950 . S
C1590 C1589 1.334 . S
C1590 C1591 1.287 . S
C1591 C1590 1.287 . S
C1591 C1592 1.524 . S
C1591 H1594 0.999 . S
C1592 H1562 0.950 . S
C1592 C1591 1.524 . S
C1592 C1593 1.415 . S
C1593 H1563 0.950 . S
C1593 C1588 1.363 . S
C1593 C1592 1.415 . S
H1594 C1591 0.999 . S
H1595 C1576 0.913 . S
H1596 C1614 0.951 . S
H1597 C1616 0.951 . S
H1598 C1618 0.950 . S
H1599 C1619 0.950 . S
H1600 C1621 0.950 . S
H1601 C1624 0.950 . S
H1602 C1625 0.950 . S
H1603 C1627 0.950 . S
H1604 C1628 0.950 . S
H1605 C1629 0.951 . S
H1606 C1631 0.951 . S
H1607 C1633 0.950 . S
H1608 C1634 0.950 . S
H1609 C1636 0.950 . S
H1610 C1639 0.950 . S
H1611 C1640 0.950 . S
H1612 C1642 0.950 . S
H1613 C1643 0.950 . S
C1614 H1596 0.951 . S
C1614 C1615 1.366 . S
C1614 C1616 1.388 . S
C1615 C1614 1.366 . S
C1615 C1619 1.385 . S
C1616 H1597 0.951 . S
C1616 C1614 1.388 . S
C1616 C1617 1.366 . S
C1617 C1616 1.366 . S
C1617 C1618 1.414 . S
C1617 C1620 1.499 . S
C1618 H1598 0.950 . S
C1618 C1617 1.414 . S
C1618 C1619 1.374 . S
C1619 H1599 0.950 . S
C1619 C1615 1.385 . S
C1619 C1618 1.374 . S
C1620 C1617 1.499 . S
C1620 C1621 1.373 . S
C1620 C1622 1.389 . S
C1621 H1600 0.950 . S
C1621 C1620 1.373 . S
C1621 C1637 1.377 . S
C1622 C1620 1.389 . S
C1622 C1623 1.524 . S
C1622 C1636 1.377 . S
C1623 C1622 1.524 . S
C1623 C1624 1.397 . S
C1623 C1628 1.363 . S
C1624 H1601 0.950 . S
C1624 C1623 1.397 . S
C1624 C1625 1.334 . S
C1625 H1602 0.950 . S
C1625 C1624 1.334 . S
C1625 C1626 1.287 . S
C1626 C1625 1.287 . S
C1626 C1627 1.524 . S
C1626 H1645 0.913 . S
C1627 H1603 0.950 . S
C1627 C1626 1.524 . S
C1627 C1628 1.415 . S
C1628 H1604 0.950 . S
C1628 C1623 1.363 . S
C1628 C1627 1.415 . S
C1629 H1605 0.951 . S
C1629 C1630 1.366 . S
C1629 C1631 1.388 . S
C1630 C1629 1.366 . S
C1630 C1634 1.385 . S
C1631 H1606 0.951 . S
C1631 C1629 1.388 . S
C1631 C1632 1.366 . S
C1632 C1631 1.366 . S
C1632 C1633 1.414 . S
C1632 C1635 1.499 . S
C1633 H1607 0.950 . S
C1633 C1632 1.414 . S
C1633 C1634 1.374 . S
C1634 H1608 0.950 . S
C1634 C1630 1.385 . S
C1634 C1633 1.374 . S
C1635 C1632 1.499 . S
C1635 C1636 1.373 . S
C1635 C1637 1.389 . S
C1636 H1609 0.950 . S
C1636 C1622 1.377 . S
C1636 C1635 1.373 . S
C1637 C1621 1.377 . S
C1637 C1635 1.389 . S
C1637 C1638 1.524 . S
C1638 C1637 1.524 . S
C1638 C1639 1.397 . S
C1638 C1643 1.363 . S
C1639 H1610 0.950 . S
C1639 C1638 1.397 . S
C1639 C1640 1.334 . S
C1640 H1611 0.950 . S
C1640 C1639 1.334 . S
C1640 C1641 1.287 . S
C1641 C1640 1.287 . S
C1641 C1642 1.524 . S
C1641 H1644 0.999 . S
C1642 H1612 0.950 . S
C1642 C1641 1.524 . S
C1642 C1643 1.415 . S
C1643 H1613 0.950 . S
C1643 C1638 1.363 . S
C1643 C1642 1.415 . S
H1644 C1641 0.999 . S
H1645 C1626 0.913 . S
H1646 C1664 0.951 . S
H1647 C1666 0.951 . S
H1648 C1668 0.950 . S
H1649 C1669 0.950 . S
H1650 C1671 0.950 . S
H1651 C1674 0.950 . S
H1652 C1675 0.950 . S
H1653 C1677 0.950 . S
H1654 C1678 0.950 . S
H1655 C1679 0.951 . S
H1656 C1681 0.951 . S
H1657 C1683 0.950 . S
H1658 C1684 0.950 . S
H1659 C1686 0.950 . S
H1660 C1689 0.950 . S
H1661 C1690 0.950 . S
H1662 C1692 0.950 . S
H1663 C1693 0.950 . S
C1664 H1646 0.951 . S
C1664 C1665 1.366 . S
C1664 C1666 1.388 . S
C1665 C1664 1.366 . S
C1665 C1669 1.385 . S
C1666 H1647 0.951 . S
C1666 C1664 1.388 . S
C1666 C1667 1.366 . S
C1667 C1666 1.366 . S
C1667 C1668 1.414 . S
C1667 C1670 1.499 . S
C1668 H1648 0.950 . S
C1668 C1667 1.414 . S
C1668 C1669 1.374 . S
C1669 H1649 0.950 . S
C1669 C1665 1.385 . S
C1669 C1668 1.374 . S
C1670 C1667 1.499 . S
C1670 C1671 1.373 . S
C1670 C1672 1.389 . S
C1671 H1650 0.950 . S
C1671 C1670 1.373 . S
C1671 C1687 1.377 . S
C1672 C1670 1.389 . S
C1672 C1673 1.524 . S
C1672 C1686 1.377 . S
C1673 C1672 1.524 . S
C1673 C1674 1.397 . S
C1673 C1678 1.363 . S
C1674 H1651 0.950 . S
C1674 C1673 1.397 . S
C1674 C1675 1.334 . S
C1675 H1652 0.950 . S
C1675 C1674 1.334 . S
C1675 C1676 1.287 . S
C1676 C1675 1.287 . S
C1676 C1677 1.524 . S
C1676 H1695 0.913 . S
C1677 H1653 0.950 . S
C1677 C1676 1.524 . S
C1677 C1678 1.415 . S
C1678 H1654 0.950 . S
C1678 C1673 1.363 . S
C1678 C1677 1.415 . S
C1679 H1655 0.951 . S
C1679 C1680 1.366 . S
C1679 C1681 1.388 . S
C1680 C1679 1.366 . S
C1680 C1684 1.385 . S
C1681 H1656 0.951 . S
C1681 C1679 1.388 . S
C1681 C1682 1.366 . S
C1682 C1681 1.366 . S
C1682 C1683 1.414 . S
C1682 C1685 1.499 . S
C1683 H1657 0.950 . S
C1683 C1682 1.414 . S
C1683 C1684 1.374 . S
C1684 H1658 0.950 . S
C1684 C1680 1.385 . S
C1684 C1683 1.374 . S
C1685 C1682 1.499 . S
C1685 C1686 1.373 . S
C1685 C1687 1.389 . S
C1686 H1659 0.950 . S
C1686 C1672 1.377 . S
C1686 C1685 1.373 . S
C1687 C1671 1.377 . S
C1687 C1685 1.389 . S
C1687 C1688 1.524 . S
C1688 C1687 1.524 . S
C1688 C1689 1.397 . S
C1688 C1693 1.363 . S
C1689 H1660 0.950 . S
C1689 C1688 1.397 . S
C1689 C1690 1.334 . S
C1690 H1661 0.950 . S
C1690 C1689 1.334 . S
C1690 C1691 1.287 . S
C1691 C1690 1.287 . S
C1691 C1692 1.524 . S
C1691 H1694 0.999 . S
C1692 H1662 0.950 . S
C1692 C1691 1.524 . S
C1692 C1693 1.415 . S
C1693 H1663 0.950 . S
C1693 C1688 1.363 . S
C1693 C1692 1.415 . S
H1694 C1691 0.999 . S
H1695 C1676 0.913 . S
H1696 C1714 0.951 . S
H1697 C1716 0.951 . S
H1698 C1718 0.950 . S
H1699 C1719 0.950 . S
H1700 C1721 0.950 . S
H1701 C1724 0.950 . S
H1702 C1725 0.950 . S
H1703 C1727 0.950 . S
H1704 C1728 0.950 . S
H1705 C1729 0.951 . S
H1706 C1731 0.951 . S
H1707 C1733 0.950 . S
H1708 C1734 0.950 . S
H1709 C1736 0.950 . S
H1710 C1739 0.950 . S
H1711 C1740 0.950 . S
H1712 C1742 0.950 . S
H1713 C1743 0.950 . S
C1714 H1696 0.951 . S
C1714 C1715 1.366 . S
C1714 C1716 1.388 . S
C1715 C1714 1.366 . S
C1715 C1719 1.385 . S
C1716 H1697 0.951 . S
C1716 C1714 1.388 . S
C1716 C1717 1.366 . S
C1717 C1716 1.366 . S
C1717 C1718 1.414 . S
C1717 C1720 1.499 . S
C1718 H1698 0.950 . S
C1718 C1717 1.414 . S
C1718 C1719 1.374 . S
C1719 H1699 0.950 . S
C1719 C1715 1.385 . S
C1719 C1718 1.374 . S
C1720 C1717 1.499 . S
C1720 C1721 1.373 . S
C1720 C1722 1.389 . S
C1721 H1700 0.950 . S
C1721 C1720 1.373 . S
C1721 C1737 1.377 . S
C1722 C1720 1.389 . S
C1722 C1723 1.524 . S
C1722 C1736 1.377 . S
C1723 C1722 1.524 . S
C1723 C1724 1.397 . S
C1723 C1728 1.363 . S
C1724 H1701 0.950 . S
C1724 C1723 1.397 . S
C1724 C1725 1.334 . S
C1725 H1702 0.950 . S
C1725 C1724 1.334 . S
C1725 C1726 1.287 . S
C1726 C1725 1.287 . S
C1726 C1727 1.524 . S
C1726 H1745 0.913 . S
C1727 H1703 0.950 . S
C1727 C1726 1.524 . S
C1727 C1728 1.415 . S
C1728 H1704 0.950 . S
C1728 C1723 1.363 . S
C1728 C1727 1.415 . S
C1729 H1705 0.951 . S
C1729 C1730 1.366 . S
C1729 C1731 1.388 . S
C1730 C1729 1.366 . S
C1730 C1734 1.385 . S
C1731 H1706 0.951 . S
C1731 C1729 1.388 . S
C1731 C1732 1.366 . S
C1732 C1731 1.366 . S
C1732 C1733 1.414 . S
C1732 C1735 1.499 . S
C1733 H1707 0.950 . S
C1733 C1732 1.414 . S
C1733 C1734 1.374 . S
C1734 H1708 0.950 . S
C1734 C1730 1.385 . S
C1734 C1733 1.374 . S
C1735 C1732 1.499 . S
C1735 C1736 1.373 . S
C1735 C1737 1.389 . S
C1736 H1709 0.950 . S
C1736 C1722 1.377 . S
C1736 C1735 1.373 . S
C1737 C1721 1.377 . S
C1737 C1735 1.389 . S
C1737 C1738 1.524 . S
C1738 C1737 1.524 . S
C1738 C1739 1.397 . S
C1738 C1743 1.363 . S
C1739 H1710 0.950 . S
C1739 C1738 1.397 . S
C1739 C1740 1.334 . S
C1740 H1711 0.950 . S
C1740 C1739 1.334 . S
C1740 C1741 1.287 . S
C1741 C1740 1.287 . S
C1741 C1742 1.524 . S
C1741 H1744 0.999 . S
C1742 H1712 0.950 . S
C1742 C1741 1.524 . S
C1742 C1743 1.415 . S
C1743 H1713 0.950 . S
C1743 C1738 1.363 . S
C1743 C1742 1.415 . S
H1744 C1741 0.999 . S
H1745 C1726 0.913 . S
H1746 C1764 0.951 . S
H1747 C1766 0.951 . S
H1748 C1768 0.950 . S
H1749 C1769 0.950 . S
H1750 C1771 0.950 . S
H1751 C1774 0.950 . S
H1752 C1775 0.950 . S
H1753 C1777 0.950 . S
H1754 C1778 0.950 . S
H1755 C1779 0.951 . S
H1756 C1781 0.951 . S
H1757 C1783 0.950 . S
H1758 C1784 0.950 . S
H1759 C1786 0.950 . S
H1760 C1789 0.950 . S
H1761 C1790 0.950 . S
H1762 C1792 0.950 . S
H1763 C1793 0.950 . S
C1764 H1746 0.951 . S
C1764 C1765 1.366 . S
C1764 C1766 1.388 . S
C1765 C1764 1.366 . S
C1765 C1769 1.385 . S
C1766 H1747 0.951 . S
C1766 C1764 1.388 . S
C1766 C1767 1.366 . S
C1767 C1766 1.366 . S
C1767 C1768 1.414 . S
C1767 C1770 1.499 . S
C1768 H1748 0.950 . S
C1768 C1767 1.414 . S
C1768 C1769 1.374 . S
C1769 H1749 0.950 . S
C1769 C1765 1.385 . S
C1769 C1768 1.374 . S
C1770 C1767 1.499 . S
C1770 C1771 1.373 . S
C1770 C1772 1.389 . S
C1771 H1750 0.950 . S
C1771 C1770 1.373 . S
C1771 C1787 1.377 . S
C1772 C1770 1.389 . S
C1772 C1773 1.524 . S
C1772 C1786 1.377 . S
C1773 C1772 1.524 . S
C1773 C1774 1.397 . S
C1773 C1778 1.363 . S
C1774 H1751 0.950 . S
C1774 C1773 1.397 . S
C1774 C1775 1.334 . S
C1775 H1752 0.950 . S
C1775 C1774 1.334 . S
C1775 C1776 1.287 . S
C1776 C1775 1.287 . S
C1776 C1777 1.524 . S
C1776 H1795 0.913 . S
C1777 H1753 0.950 . S
C1777 C1776 1.524 . S
C1777 C1778 1.415 . S
C1778 H1754 0.950 . S
C1778 C1773 1.363 . S
C1778 C1777 1.415 . S
C1779 H1755 0.951 . S
C1779 C1780 1.366 . S
C1779 C1781 1.388 . S
C1780 C1779 1.366 . S
C1780 C1784 1.385 . S
C1781 H1756 0.951 . S
C1781 C1779 1.388 . S
C1781 C1782 1.366 . S
C1782 C1781 1.366 . S
C1782 C1783 1.414 . S
C1782 C1785 1.499 . S
C1783 H1757 0.950 . S
C1783 C1782 1.414 . S
C1783 C1784 1.374 . S
C1784 H1758 0.950 . S
C1784 C1780 1.385 . S
C1784 C1783 1.374 . S
C1785 C1782 1.499 . S
C1785 C1786 1.373 . S
C1785 C1787 1.389 . S
C1786 H1759 0.950 . S
C1786 C1772 1.377 . S
C1786 C1785 1.373 . S
C1787 C1771 1.377 . S
C1787 C1785 1.389 . S
C1787 C1788 1.524 . S
C1788 C1787 1.524 . S
C1788 C1789 1.397 . S
C1788 C1793 1.363 . S
C1789 H1760 0.950 . S
C1789 C1788 1.397 . S
C1789 C1790 1.334 . S
C1790 H1761 0.950 . S
C1790 C1789 1.334 . S
C1790 C1791 1.287 . S
C1791 C1790 1.287 . S
C1791 C1792 1.524 . S
C1791 H1794 0.999 . S
C1792 H1762 0.950 . S
C1792 C1791 1.524 . S
C1792 C1793 1.415 . S
C1793 H1763 0.950 . S
C1793 C1788 1.363 . S
C1793 C1792 1.415 . S
H1794 C1791 0.999 . S
H1795 C1776 0.913 . S
C630 C328 1.541 . S
C615 C15 1.547 . S
C680 C381 1.559 . S
C665 C55 1.562 . S
C730 C342 1.588 . S
C715 C101 1.571 . S
C780 C367 1.599 . S
C765 C141 1.600 . S
C830 C413 1.516 . S
C815 C2 1.498 . S
C880 C459 1.519 . S
C865 C61 1.504 . S
C915 C95 1.621 . S
C930 C526 1.619 . S
C980 C558 1.517 . S
C965 C135 1.521 . S
C1030 C427 1.511 . S
C1015 C42 1.489 . S
C1065 C82 1.517 . S
C1080 C473 1.541 . S
C1130 C512 1.604 . S
C1115 C122 1.616 . S
C1180 C572 1.532 . S
C1165 C21 1.513 . S
C1215 C162 1.596 . S
C1230 C388 1.594 . S
C1280 C321 1.582 . S
C1265 C221 1.578 . S
C1315 C255 1.563 . S
C1330 C374 1.559 . S
C1365 C282 1.528 . S
C1380 C335 1.540 . S
C1430 C519 1.616 . S
C1415 C181 1.629 . S
C1480 C565 1.531 . S
C1465 C202 1.529 . S
C1530 C420 1.516 . S
C1515 C242 1.510 . S
C1565 C301 1.514 . S
C1580 C480 1.528 . S
C1630 C505 1.619 . S
C1615 C215 1.623 . S
C1680 C551 1.527 . S
C1665 C261 1.522 . S
C1730 C434 1.514 . S
C1715 C295 1.518 . S
C1765 C175 1.525 . S
C1780 C466 1.524 . S
