# Generated by pormake.
# Topology pto, (3,4)-cn, num edge types: 1
# Building blocks:
#     Node 0, Type 0, BuildingBlock: WUSLED_clean_sbu_0, # of connection points: 3
#     Node 1, Type 0, BuildingBlock: WUSLED_clean_sbu_0, # of connection points: 3
#     Node 2, Type 0, BuildingBlock: WUSLED_clean_sbu_0, # of connection points: 3
#     Node 3, Type 0, BuildingBlock: WUSLED_clean_sbu_0, # of connection points: 3
#     Node 4, Type 0, BuildingBlock: WUSLED_clean_sbu_0, # of connection points: 3
#     Node 5, Type 0, BuildingBlock: WUSLED_clean_sbu_0, # of connection points: 3
#     Node 6, Type 0, BuildingBlock: WUSLED_clean_sbu_0, # of connection points: 3
#     Node 7, Type 0, BuildingBlock: WUSLED_clean_sbu_0, # of connection points: 3
#     Node 8, Type 1, BuildingBlock: MIFKUJ_clean_linker_1, # of connection points: 4
#     Node 9, Type 1, BuildingBlock: MIFKUJ_clean_linker_1, # of connection points: 4
#     Node 10, Type 1, BuildingBlock: MIFKUJ_clean_linker_1, # of connection points: 4
#     Node 11, Type 1, BuildingBlock: MIFKUJ_clean_linker_1, # of connection points: 4
#     Node 12, Type 1, BuildingBlock: MIFKUJ_clean_linker_1, # of connection points: 4
#     Node 13, Type 1, BuildingBlock: MIFKUJ_clean_linker_1, # of connection points: 4
#     Edge 14, Type (0, 1), BuildingBlock: AJUNOK_clean_linker_0, # of connection points: 2
#     Edge 15, Type (0, 1), BuildingBlock: AJUNOK_clean_linker_0, # of connection points: 2
#     Edge 16, Type (0, 1), BuildingBlock: AJUNOK_clean_linker_0, # of connection points: 2
#     Edge 17, Type (0, 1), BuildingBlock: AJUNOK_clean_linker_0, # of connection points: 2
#     Edge 18, Type (0, 1), BuildingBlock: AJUNOK_clean_linker_0, # of connection points: 2
#     Edge 19, Type (0, 1), BuildingBlock: AJUNOK_clean_linker_0, # of connection points: 2
#     Edge 20, Type (0, 1), BuildingBlock: AJUNOK_clean_linker_0, # of connection points: 2
#     Edge 21, Type (0, 1), BuildingBlock: AJUNOK_clean_linker_0, # of connection points: 2
#     Edge 22, Type (0, 1), BuildingBlock: AJUNOK_clean_linker_0, # of connection points: 2
#     Edge 23, Type (0, 1), BuildingBlock: AJUNOK_clean_linker_0, # of connection points: 2
#     Edge 24, Type (0, 1), BuildingBlock: AJUNOK_clean_linker_0, # of connection points: 2
#     Edge 25, Type (0, 1), BuildingBlock: AJUNOK_clean_linker_0, # of connection points: 2
#     Edge 26, Type (0, 1), BuildingBlock: AJUNOK_clean_linker_0, # of connection points: 2
#     Edge 27, Type (0, 1), BuildingBlock: AJUNOK_clean_linker_0, # of connection points: 2
#     Edge 28, Type (0, 1), BuildingBlock: AJUNOK_clean_linker_0, # of connection points: 2
#     Edge 29, Type (0, 1), BuildingBlock: AJUNOK_clean_linker_0, # of connection points: 2
#     Edge 30, Type (0, 1), BuildingBlock: AJUNOK_clean_linker_0, # of connection points: 2
#     Edge 31, Type (0, 1), BuildingBlock: AJUNOK_clean_linker_0, # of connection points: 2
#     Edge 32, Type (0, 1), BuildingBlock: AJUNOK_clean_linker_0, # of connection points: 2
#     Edge 33, Type (0, 1), BuildingBlock: AJUNOK_clean_linker_0, # of connection points: 2
#     Edge 34, Type (0, 1), BuildingBlock: AJUNOK_clean_linker_0, # of connection points: 2
#     Edge 35, Type (0, 1), BuildingBlock: AJUNOK_clean_linker_0, # of connection points: 2
#     Edge 36, Type (0, 1), BuildingBlock: AJUNOK_clean_linker_0, # of connection points: 2
#     Edge 37, Type (0, 1), BuildingBlock: AJUNOK_clean_linker_0, # of connection points: 2
# Relax obj value: 0.001
# Max RMSD: 0.012
# Mean RMSD: 0.005
data_MOF--net-pto--node1-WUSLED_clean_sbu_0--node2-MIFKUJ_clean_linker_1--edge1-AJUNOK_clean_linker_0
_symmetry_space_group_name_H-M    P1
_symmetry_Int_Tables_number       1
_symmetry_cell_setting            triclinic
loop_
_symmetry_equiv_pos_as_xyz
'x, y, z'
_cell_length_a     40.287871
_cell_length_b     59.273177
_cell_length_c     50.018931
_cell_angle_alpha  89.457477
_cell_angle_beta   90.742184
_cell_angle_gamma 90.67686
loop_
_atom_site_label
_atom_site_type_symbol
_atom_site_fract_x
_atom_site_fract_y
_atom_site_fract_z
_atom_type_partial_charge
C0 C 0.24009 0.23132 0.36535 0.0
C1 C 0.26595 0.21634 0.36028 0.0
C2 C 0.2455 0.19068 0.39485 0.0
C3 C 0.26866 0.19618 0.37494 0.0
C4 C 0.21941 0.20562 0.39958 0.0
C5 C 0.2168 0.22579 0.38499 0.0
U6 U 0.26441 0.26996 0.30724 0.0
O7 O 0.23402 0.29194 0.28142 0.0
O8 O 0.27403 0.30665 0.30616 0.0
C9 C 0.24891 0.31048 0.28979 0.0
C10 C 0.23712 0.25271 0.35035 0.0
C11 C 0.22732 0.32942 0.29666 0.0
C12 C 0.17501 0.34439 0.31211 0.0
C13 C 0.19578 0.32599 0.30777 0.0
C14 C 0.2175 0.36977 0.29515 0.0
C15 C 0.18544 0.36642 0.30531 0.0
C16 C 0.23815 0.35144 0.29079 0.0
C17 C 0.32781 0.25041 0.25677 0.0
C18 C 0.34225 0.27314 0.21783 0.0
C19 C 0.36962 0.23752 0.2261 0.0
C20 C 0.35097 0.2343 0.24924 0.0
C21 C 0.3653 0.25689 0.21003 0.0
C22 C 0.32363 0.26992 0.24102 0.0
C23 C 0.30808 0.24659 0.28096 0.0
O24 O 0.26354 0.26593 0.35097 0.0
O25 O 0.22354 0.25113 0.3264 0.0
O26 O 0.27588 0.24467 0.27695 0.0
O27 O 0.31599 0.25942 0.30141 0.0
H28 H 0.28402 0.22025 0.34501 0.0
H29 H 0.28865 0.1848 0.37053 0.0
H30 H 0.20126 0.20182 0.41481 0.0
H31 H 0.19663 0.23713 0.38911 0.0
H32 H 0.15047 0.34135 0.32009 0.0
H33 H 0.18698 0.30912 0.31262 0.0
H34 H 0.22654 0.3866 0.29037 0.0
H35 H 0.26248 0.35445 0.28238 0.0
H36 H 0.33883 0.28842 0.20611 0.0
H37 H 0.38709 0.22469 0.22053 0.0
H38 H 0.35451 0.21915 0.26119 0.0
H39 H 0.30594 0.2826 0.24666 0.0
C40 C 0.23825 0.81629 0.66725 0.0
C41 C 0.25933 0.83381 0.67601 0.0
C42 C 0.2443 0.85644 0.63685 0.0
C43 C 0.26225 0.85377 0.66097 0.0
C44 C 0.22306 0.83886 0.62829 0.0
C45 C 0.22013 0.81895 0.64336 0.0
U46 U 0.26303 0.77872 0.72632 0.0
O47 O 0.23248 0.75723 0.7526 0.0
O48 O 0.27136 0.74211 0.72843 0.0
C49 C 0.2466 0.73855 0.74484 0.0
C50 C 0.23495 0.7952 0.68279 0.0
C51 C 0.22413 0.71967 0.73801 0.0
C52 C 0.17604 0.70398 0.71453 0.0
C53 C 0.19704 0.72237 0.72037 0.0
C54 C 0.20918 0.68014 0.74376 0.0
C55 C 0.1821 0.68264 0.72603 0.0
C56 C 0.23001 0.69848 0.74963 0.0
C57 C 0.3294 0.79848 0.77598 0.0
C58 C 0.34048 0.77859 0.81782 0.0
C59 C 0.37795 0.80828 0.80292 0.0
C60 C 0.35813 0.81161 0.78009 0.0
C61 C 0.36934 0.79173 0.82201 0.0
C62 C 0.32075 0.78185 0.7949 0.0
C63 C 0.30883 0.80223 0.75187 0.0
O64 O 0.26086 0.78195 0.68247 0.0
O65 O 0.2223 0.79726 0.70673 0.0
O66 O 0.27686 0.80446 0.75594 0.0
O67 O 0.31532 0.78915 0.73158 0.0
H68 H 0.27352 0.83203 0.69445 0.0
H69 H 0.27877 0.86704 0.66803 0.0
H70 H 0.20838 0.84062 0.61011 0.0
H71 H 0.20361 0.80563 0.63638 0.0
H72 H 0.15529 0.70636 0.70085 0.0
H73 H 0.19215 0.73865 0.71119 0.0
H74 H 0.21402 0.66404 0.75337 0.0
H75 H 0.2507 0.69612 0.7634 0.0
H76 H 0.33331 0.76572 0.83221 0.0
H77 H 0.39971 0.81892 0.80588 0.0
H78 H 0.36515 0.82453 0.7657 0.0
H79 H 0.29872 0.77146 0.79198 0.0
C80 C 0.71967 0.7997 0.25864 0.0
C81 C 0.72456 0.78091 0.24234 0.0
C82 C 0.68043 0.79344 0.21212 0.0
C83 C 0.70516 0.77784 0.21922 0.0
C84 C 0.67576 0.81227 0.22852 0.0
C85 C 0.69519 0.81534 0.2516 0.0
U86 U 0.78373 0.77898 0.3095 0.0
O87 O 0.82476 0.79695 0.32979 0.0
O88 O 0.78468 0.78167 0.3534 0.0
C89 C 0.81126 0.79474 0.35349 0.0
C90 C 0.73972 0.80308 0.28308 0.0
C91 C 0.80868 0.81567 0.3689 0.0
C92 C 0.79298 0.85502 0.3723 0.0
C93 C 0.79466 0.83514 0.3575 0.0
C94 C 0.81865 0.83603 0.41021 0.0
C95 C 0.80529 0.85574 0.39874 0.0
C96 C 0.82043 0.8162 0.39538 0.0
C97 C 0.82075 0.7201 0.29832 0.0
C98 C 0.86375 0.70272 0.3259 0.0
C99 C 0.83824 0.68191 0.28941 0.0
C100 C 0.8183 0.70038 0.28322 0.0
C101 C 0.86095 0.68277 0.31096 0.0
C102 C 0.84365 0.72126 0.31969 0.0
C103 C 0.79911 0.73909 0.29122 0.0
O104 O 0.7321 0.78973 0.30326 0.0
O105 O 0.77188 0.80517 0.27953 0.0
O106 O 0.81416 0.75786 0.28374 0.0
O107 O 0.77412 0.74243 0.30729 0.0
H108 H 0.74344 0.76869 0.24749 0.0
H109 H 0.70977 0.76342 0.20672 0.0
H110 H 0.65683 0.82451 0.22361 0.0
H111 H 0.69105 0.82991 0.26399 0.0
H112 H 0.78251 0.86992 0.36295 0.0
H113 H 0.78523 0.83499 0.33711 0.0
H114 H 0.82754 0.83588 0.43074 0.0
H115 H 0.83103 0.80126 0.40458 0.0
H116 H 0.88113 0.70384 0.34255 0.0
H117 H 0.8361 0.66698 0.27715 0.0
H118 H 0.80092 0.69926 0.26655 0.0
H119 H 0.84588 0.73643 0.33153 0.0
C120 C 0.76766 0.20964 0.69478 0.0
C121 C 0.76041 0.21398 0.66762 0.0
C122 C 0.77736 0.17603 0.65598 0.0
C123 C 0.76509 0.19729 0.64844 0.0
C124 C 0.78486 0.17179 0.68306 0.0
C125 C 0.78 0.1884 0.70224 0.0
U126 U 0.78166 0.2672 0.72855 0.0
O127 O 0.74596 0.28977 0.74721 0.0
O128 O 0.78638 0.27517 0.77135 0.0
C129 C 0.75913 0.28713 0.77121 0.0
C130 C 0.7612 0.22643 0.71579 0.0
C131 C 0.73583 0.28213 0.79296 0.0
C132 C 0.68728 0.26268 0.81076 0.0
C133 C 0.70932 0.26674 0.78975 0.0
C134 C 0.7183 0.28911 0.83837 0.0
C135 C 0.69171 0.27374 0.83533 0.0
C136 C 0.74015 0.29323 0.81738 0.0
C137 C 0.84292 0.31035 0.70046 0.0
C138 C 0.85297 0.34626 0.72238 0.0
C139 C 0.8836 0.33685 0.68271 0.0
C140 C 0.86667 0.31616 0.68131 0.0
C141 C 0.87714 0.35204 0.70339 0.0
C142 C 0.83605 0.32553 0.72098 0.0
C143 C 0.82586 0.28832 0.69907 0.0
O144 O 0.78574 0.23031 0.73278 0.0
O145 O 0.74548 0.24485 0.7084 0.0
O146 O 0.79377 0.289 0.69408 0.0
O147 O 0.83375 0.27397 0.71823 0.0
H148 H 0.75078 0.23015 0.66118 0.0
H149 H 0.75907 0.20097 0.6277 0.0
H150 H 0.79369 0.15541 0.68953 0.0
H151 H 0.78543 0.18451 0.72304 0.0
H152 H 0.66697 0.25077 0.80792 0.0
H153 H 0.70562 0.25796 0.77103 0.0
H154 H 0.72192 0.2982 0.85688 0.0
H155 H 0.76038 0.30522 0.82018 0.0
H156 H 0.84751 0.35764 0.73852 0.0
H157 H 0.90158 0.34105 0.66748 0.0
H158 H 0.87215 0.30466 0.66528 0.0
H159 H 0.81776 0.32128 0.73596 0.0
C160 C 0.81916 0.71959 0.7442 0.0
C161 C 0.83846 0.71975 0.72103 0.0
C162 C 0.86341 0.68412 0.73474 0.0
C163 C 0.86037 0.70206 0.71627 0.0
C164 C 0.84373 0.68403 0.75774 0.0
C165 C 0.82189 0.70162 0.76244 0.0
U166 U 0.77902 0.77724 0.72987 0.0
O167 O 0.72668 0.78673 0.73393 0.0
O168 O 0.76512 0.80334 0.75845 0.0
C169 C 0.73316 0.80042 0.7539 0.0
C170 C 0.79596 0.73783 0.7499 0.0
C171 C 0.71301 0.79674 0.77787 0.0
C172 C 0.69896 0.77461 0.81737 0.0
C173 C 0.7177 0.77764 0.79422 0.0
C174 C 0.67039 0.80959 0.80785 0.0
C175 C 0.67532 0.79067 0.82456 0.0
C176 C 0.68916 0.81261 0.78473 0.0
C177 C 0.80451 0.81443 0.67078 0.0
C178 C 0.77572 0.84907 0.65921 0.0
C179 C 0.82597 0.83934 0.63608 0.0
C180 C 0.82839 0.8196 0.65148 0.0
C181 C 0.79946 0.85422 0.63961 0.0
C182 C 0.77822 0.82933 0.67467 0.0
C183 C 0.80753 0.79361 0.68682 0.0
O184 O 0.80954 0.75698 0.75764 0.0
O185 O 0.77143 0.74049 0.73262 0.0
O186 O 0.78164 0.7799 0.68606 0.0
O187 O 0.81992 0.79623 0.71104 0.0
H188 H 0.83659 0.73352 0.70671 0.0
H189 H 0.87518 0.70251 0.69835 0.0
H190 H 0.84495 0.67018 0.772 0.0
H191 H 0.80701 0.70117 0.78033 0.0
H192 H 0.70286 0.75967 0.8296 0.0
H193 H 0.73593 0.76515 0.78912 0.0
H194 H 0.65242 0.82225 0.81294 0.0
H195 H 0.68523 0.82744 0.77231 0.0
H196 H 0.75506 0.86022 0.6624 0.0
H197 H 0.84508 0.8431 0.62162 0.0
H198 H 0.84901 0.80838 0.64839 0.0
H199 H 0.75963 0.82566 0.68961 0.0
C200 C 0.71459 0.24666 0.25875 0.0
C201 C 0.69801 0.26706 0.25382 0.0
C202 C 0.67497 0.25221 0.21225 0.0
C203 C 0.67826 0.26976 0.23082 0.0
C204 C 0.69201 0.23198 0.217 0.0
C205 C 0.7115 0.22921 0.24011 0.0
U206 U 0.77944 0.26704 0.30977 0.0
O207 O 0.78098 0.26327 0.35357 0.0
O208 O 0.82047 0.24889 0.32947 0.0
C209 C 0.80728 0.25036 0.35329 0.0
C210 C 0.73511 0.2432 0.28309 0.0
C211 C 0.80416 0.22894 0.36817 0.0
C212 C 0.78054 0.19123 0.37309 0.0
C213 C 0.78314 0.2116 0.35885 0.0
C214 C 0.8197 0.20542 0.40623 0.0
C215 C 0.79898 0.18787 0.39685 0.0
C216 C 0.82231 0.22577 0.39196 0.0
C217 C 0.81692 0.32665 0.29906 0.0
C218 C 0.86144 0.34359 0.32567 0.0
C219 C 0.83432 0.36536 0.29063 0.0
C220 C 0.81387 0.34688 0.28462 0.0
C221 C 0.85814 0.36401 0.31135 0.0
C222 C 0.84084 0.32503 0.31964 0.0
C223 C 0.795 0.30759 0.29196 0.0
O224 O 0.7672 0.24156 0.27926 0.0
O225 O 0.72783 0.25559 0.30383 0.0
O226 O 0.77017 0.30355 0.30816 0.0
O227 O 0.80979 0.28919 0.28412 0.0
H228 H 0.70027 0.28092 0.26772 0.0
H229 H 0.66581 0.28565 0.22739 0.0
H230 H 0.68986 0.2182 0.20299 0.0
H231 H 0.72413 0.21337 0.24348 0.0
H232 H 0.76389 0.17818 0.36566 0.0
H233 H 0.76876 0.21384 0.34057 0.0
H234 H 0.83423 0.20328 0.42443 0.0
H235 H 0.8386 0.23901 0.39946 0.0
H236 H 0.87968 0.34208 0.34167 0.0
H237 H 0.83175 0.38067 0.27883 0.0
H238 H 0.79571 0.34837 0.26855 0.0
H239 H 0.84355 0.30947 0.33095 0.0
C240 C 0.2374 0.22999 0.66529 0.0
C241 C 0.25906 0.21305 0.6742 0.0
C242 C 0.24439 0.19022 0.63543 0.0
C243 C 0.26245 0.19328 0.65941 0.0
C244 C 0.22267 0.20725 0.62669 0.0
C245 C 0.21927 0.22697 0.64148 0.0
U246 U 0.25998 0.26772 0.72437 0.0
O247 O 0.26573 0.30458 0.72666 0.0
O248 O 0.2278 0.2872 0.75066 0.0
C249 C 0.24029 0.30668 0.74265 0.0
C250 C 0.23316 0.25072 0.68075 0.0
C251 C 0.21615 0.32464 0.73611 0.0
C252 C 0.19847 0.35699 0.70929 0.0
C253 C 0.21951 0.33859 0.71335 0.0
C254 C 0.16971 0.3474 0.75011 0.0
C255 C 0.17384 0.36187 0.72796 0.0
C256 C 0.19075 0.32909 0.75421 0.0
C257 C 0.32646 0.24952 0.77474 0.0
C258 C 0.34065 0.27222 0.81356 0.0
C259 C 0.36917 0.23711 0.80606 0.0
C260 C 0.3503 0.23374 0.78274 0.0
C261 C 0.3644 0.2563 0.82182 0.0
C262 C 0.32179 0.26884 0.7902 0.0
C263 C 0.30657 0.24558 0.75035 0.0
O264 O 0.22045 0.24785 0.70462 0.0
O265 O 0.25845 0.26493 0.68052 0.0
O266 O 0.31267 0.25941 0.73028 0.0
O267 O 0.2747 0.24202 0.7541 0.0
H268 H 0.27323 0.21511 0.69259 0.0
H269 H 0.27934 0.18043 0.66662 0.0
H270 H 0.20789 0.20516 0.60862 0.0
H271 H 0.20228 0.23982 0.63442 0.0
H272 H 0.2022 0.36786 0.69203 0.0
H273 H 0.23887 0.33568 0.69901 0.0
H274 H 0.15046 0.35045 0.76452 0.0
H275 H 0.18764 0.31867 0.77194 0.0
H276 H 0.33686 0.28735 0.82503 0.0
H277 H 0.38718 0.22453 0.81198 0.0
H278 H 0.35421 0.21875 0.77102 0.0
H279 H 0.30356 0.28126 0.7842 0.0
C280 C 0.19868 0.73604 0.33468 0.0
C281 C 0.20925 0.71974 0.31657 0.0
C282 C 0.16592 0.69381 0.33169 0.0
C283 C 0.19301 0.69879 0.3151 0.0
C284 C 0.15512 0.71033 0.34948 0.0
C285 C 0.17145 0.73126 0.35102 0.0
U286 U 0.26122 0.77851 0.30768 0.0
O287 O 0.25949 0.81548 0.30416 0.0
O288 O 0.2987 0.79955 0.32839 0.0
C289 C 0.28466 0.8185 0.32079 0.0
C290 C 0.21593 0.75799 0.33663 0.0
C291 C 0.27984 0.8352 0.34192 0.0
C292 C 0.24831 0.85038 0.37865 0.0
C293 C 0.25261 0.83388 0.35913 0.0
C294 C 0.29865 0.86935 0.36416 0.0
C295 C 0.27121 0.86837 0.38124 0.0
C296 C 0.30286 0.85294 0.34468 0.0
C297 C 0.30729 0.76318 0.24358 0.0
C298 C 0.36017 0.77826 0.2281 0.0
C299 C 0.32327 0.75866 0.19729 0.0
C300 C 0.30045 0.75522 0.21777 0.0
C301 C 0.35346 0.77011 0.20223 0.0
C302 C 0.33719 0.77492 0.24859 0.0
C303 C 0.28321 0.75848 0.26491 0.0
O304 O 0.24791 0.75697 0.34201 0.0
O305 O 0.20871 0.7726 0.31756 0.0
O306 O 0.25666 0.77115 0.26468 0.0
O307 O 0.29561 0.75504 0.28903 0.0
H308 H 0.23009 0.72324 0.30363 0.0
H309 H 0.20146 0.68655 0.30084 0.0
H310 H 0.13432 0.70693 0.36249 0.0
H311 H 0.16291 0.74368 0.36504 0.0
H312 H 0.22723 0.849 0.39181 0.0
H313 H 0.23468 0.82019 0.35738 0.0
H314 H 0.31658 0.88306 0.36559 0.0
H315 H 0.32403 0.8542 0.33157 0.0
H316 H 0.38345 0.78679 0.23265 0.0
H317 H 0.3173 0.75233 0.17754 0.0
H318 H 0.27749 0.74617 0.2135 0.0
H319 H 0.34299 0.78124 0.26838 0.0
H320 H 0.9558 0.49256 0.29099 0.0
H321 H 0.92081 0.45864 0.28968 0.0
H322 H 0.97383 0.43148 0.35799 0.0
H323 H 1.00863 0.46577 0.35967 0.0
H324 H 0.96094 0.52344 0.32644 0.0
H325 H 0.03579 0.47202 0.28797 0.0
H326 H 0.06895 0.43807 0.28303 0.0
H327 H 0.12302 0.45415 0.35559 0.0
H328 H 0.08895 0.4878 0.36099 0.0
H329 H 0.08714 0.55856 0.36465 0.0
H330 H 0.1186 0.59419 0.36481 0.0
H331 H 0.06853 0.6147 0.29189 0.0
H332 H 0.0373 0.57898 0.29163 0.0
H333 H 0.08397 0.52441 0.32938 0.0
H334 H 1.00706 0.58045 0.362 0.0
H335 H 0.97279 0.61447 0.36018 0.0
H336 H 0.92275 0.58925 0.28956 0.0
H337 H 0.95725 0.55564 0.29102 0.0
C338 C 0.98492 0.4818 0.32542 0.0
C339 C 0.9599 0.47939 0.30579 0.0
C340 C 0.93989 0.46003 0.30506 0.0
C341 C 0.94441 0.44261 0.32394 0.0
C342 C 0.96989 0.4447 0.34323 0.0
C343 C 0.98981 0.46423 0.34412 0.0
C344 C 1.00485 0.50308 0.32667 0.0
C345 C 0.98788 0.52365 0.32678 0.0
C346 C 0.04001 0.50335 0.3276 0.0
C347 C 0.05965 0.48241 0.32499 0.0
C348 C 0.05446 0.46812 0.30303 0.0
C349 C 0.07368 0.44884 0.30006 0.0
C350 C 0.09884 0.44362 0.31877 0.0
C351 C 0.10375 0.45775 0.34091 0.0
C352 C 0.08446 0.47703 0.34392 0.0
C353 C 0.05956 0.56618 0.32832 0.0
C354 C 0.08312 0.57064 0.34858 0.0
C355 C 0.10115 0.59095 0.34861 0.0
C356 C 0.0961 0.60714 0.32828 0.0
C357 C 0.07275 0.60257 0.30787 0.0
C358 C 0.05487 0.5822 0.30776 0.0
C359 C 0.03997 0.54476 0.32873 0.0
C360 C 0.05703 0.52417 0.32916 0.0
C361 C 1.00482 0.54448 0.32751 0.0
C362 C 0.98484 0.56545 0.32659 0.0
C363 C 0.98897 0.58235 0.34596 0.0
C364 C 0.96937 0.60173 0.34497 0.0
C365 C 0.9449 0.60429 0.32493 0.0
C366 C 0.94103 0.58749 0.3055 0.0
C367 C 0.96076 0.5683 0.30632 0.0
H368 H 0.07772 0.56001 0.67019 0.0
H369 H 0.11215 0.59432 0.67208 0.0
H370 H 0.07103 0.61002 0.74891 0.0
H371 H 0.0364 0.57582 0.7468 0.0
H372 H 0.07866 0.52384 0.70575 0.0
H373 H 0.99773 0.5801 0.67524 0.0
H374 H 0.96688 0.61523 0.6807 0.0
H375 H 0.92649 0.58926 0.7545 0.0
H376 H 0.95763 0.55444 0.74924 0.0
H377 H 0.95222 0.48723 0.74277 0.0
H378 H 0.92255 0.45085 0.74214 0.0
H379 H 0.97383 0.43296 0.67025 0.0
H380 H 1.0033 0.46926 0.67086 0.0
H381 H 0.95571 0.52262 0.71047 0.0
H382 H 0.03112 0.47029 0.74609 0.0
H383 H 0.06357 0.43586 0.75039 0.0
H384 H 0.11649 0.45379 0.67862 0.0
H385 H 0.0831 0.48802 0.67385 0.0
C386 C 0.05438 0.56539 0.70828 0.0
C387 C 0.07606 0.57089 0.68739 0.0
C388 C 0.0958 0.59042 0.68855 0.0
C389 C 0.09456 0.60471 0.71079 0.0
C390 C 0.07239 0.59939 0.73146 0.0
C391 C 0.0526 0.57986 0.73028 0.0
C392 C 0.03467 0.54406 0.70749 0.0
C393 C 0.05174 0.52357 0.70621 0.0
C394 C 0.99964 0.54371 0.70952 0.0
C395 C 0.98025 0.56473 0.71199 0.0
C396 C 0.98235 0.58204 0.69265 0.0
C397 C 0.96464 0.60202 0.6957 0.0
C398 C 0.94472 0.60506 0.71822 0.0
C399 C 0.94219 0.58755 0.73724 0.0
C400 C 0.95972 0.56758 0.73412 0.0
C401 C 0.98036 0.48087 0.70708 0.0
C402 C 0.9569 0.47554 0.72677 0.0
C403 C 0.94002 0.45476 0.72643 0.0
C404 C 0.94634 0.43895 0.70641 0.0
C405 C 0.96909 0.4446 0.6863 0.0
C406 C 0.98585 0.46536 0.68659 0.0
C407 C 0.99967 0.50239 0.70816 0.0
C408 C 0.9826 0.52287 0.70961 0.0
C409 C 0.0348 0.50274 0.70723 0.0
C410 C 0.05445 0.48169 0.70952 0.0
C411 C 0.04942 0.46673 0.73108 0.0
C412 C 0.06822 0.44717 0.73369 0.0
C413 C 0.09281 0.44229 0.715 0.0
C414 C 0.09765 0.45713 0.69327 0.0
C415 C 0.07876 0.47673 0.69064 0.0
H416 H 0.20725 0.98863 0.56636 0.0
H417 H 0.20602 0.9531 0.59178 0.0
H418 H 0.29873 0.93412 0.55651 0.0
H419 H 0.29992 0.96965 0.53113 0.0
H420 H 0.25045 0.02336 0.5663 0.0
H421 H 0.21203 0.96819 0.50163 0.0
H422 H 0.21442 0.93398 0.47459 0.0
H423 H 0.30573 0.95816 0.43961 0.0
H424 H 0.30383 0.99193 0.46723 0.0
H425 H 0.29966 0.05978 0.46549 0.0
H426 H 0.29794 0.09477 0.43912 0.0
H427 H 0.20781 0.11345 0.47867 0.0
H428 H 0.20887 0.07805 0.50421 0.0
H429 H 0.25892 0.02474 0.46745 0.0
H430 H 0.29925 0.07877 0.53073 0.0
H431 H 0.29843 0.11398 0.55588 0.0
H432 H 0.20683 0.09275 0.59284 0.0
H433 H 0.20776 0.05749 0.56768 0.0
C434 C 0.2534 0.98169 0.54651 0.0
C435 C 0.22735 0.97684 0.56413 0.0
C436 C 0.22667 0.95656 0.57864 0.0
C437 C 0.25203 0.94071 0.57583 0.0
C438 C 0.27844 0.94577 0.55859 0.0
C439 C 0.27917 0.96608 0.54413 0.0
C440 C 0.25368 1.00315 0.53085 0.0
C441 C 0.25188 0.02365 0.54465 0.0
C442 C 0.25657 1.00357 0.50264 0.0
C443 C 0.25789 0.9826 0.48661 0.0
C444 C 0.23274 0.96602 0.48834 0.0
C445 C 0.23394 0.94659 0.47269 0.0
C446 C 0.26014 0.94348 0.45484 0.0
C447 C 0.28534 0.96003 0.45328 0.0
C448 C 0.28416 0.9794 0.46892 0.0
C449 C 0.25465 0.06637 0.48713 0.0
C450 C 0.2795 0.07139 0.46847 0.0
C451 C 0.27868 0.0915 0.45361 0.0
C452 C 0.25301 0.10703 0.45711 0.0
C453 C 0.22794 0.10184 0.47555 0.0
C454 C 0.22868 0.0817 0.49033 0.0
C455 C 0.25554 0.04493 0.50287 0.0
C456 C 0.25755 0.02445 0.4891 0.0
C457 C 0.25322 0.04453 0.53111 0.0
C458 C 0.25329 0.06561 0.547 0.0
C459 C 0.27886 0.08175 0.54411 0.0
C460 C 0.27833 0.10188 0.55843 0.0
C461 C 0.25228 0.10626 0.57601 0.0
C462 C 0.2272 0.08983 0.57942 0.0
C463 C 0.22771 0.0697 0.56506 0.0
H464 H 0.45863 0.81204 0.97853 0.0
H465 H 0.42621 0.81348 0.93683 0.0
H466 H 0.47382 0.75295 0.91027 0.0
H467 H 0.50611 0.75145 0.9521 0.0
H468 H 0.46117 0.78201 0.01781 0.0
H469 H 0.5388 0.81245 0.95453 0.0
H470 H 0.57139 0.81392 0.91357 0.0
H471 H 0.61807 0.75123 0.93615 0.0
H472 H 0.58551 0.74988 0.97718 0.0
H473 H 0.58806 0.75105 0.06047 0.0
H474 H 0.622 0.75354 0.10137 0.0
H475 H 0.57125 0.81436 0.12289 0.0
H476 H 0.53806 0.81219 0.08165 0.0
H477 H 0.58414 0.77909 0.01864 0.0
H478 H 0.50842 0.75051 0.084 0.0
H479 H 0.47452 0.74918 0.12426 0.0
H480 H 0.42225 0.8084 0.0968 0.0
H481 H 0.45708 0.81023 0.05716 0.0
C482 C 0.48514 0.7818 0.96834 0.0
C483 C 0.46204 0.79902 0.96378 0.0
C484 C 0.44353 0.79984 0.93998 0.0
C485 C 0.4478 0.78348 0.92022 0.0
C486 C 0.47055 0.76605 0.92493 0.0
C487 C 0.48897 0.76517 0.94882 0.0
C488 C 0.50494 0.78126 0.99363 0.0
C489 C 0.48809 0.78167 0.01802 0.0
C490 C 0.54004 0.78016 0.99387 0.0
C491 C 0.55955 0.78097 0.96886 0.0
C492 C 0.55587 0.79894 0.95058 0.0
C493 C 0.57449 0.79976 0.9272 0.0
C494 C 0.59745 0.78278 0.92177 0.0
C495 C 0.60102 0.76477 0.94004 0.0
C496 C 0.58235 0.76394 0.96342 0.0
C497 C 0.56021 0.78127 0.06812 0.0
C498 C 0.58419 0.76489 0.07403 0.0
C499 C 0.60336 0.76622 0.0975 0.0
C500 C 0.59898 0.784 0.11547 0.0
C501 C 0.57513 0.80046 0.10942 0.0
C502 C 0.55598 0.79913 0.08598 0.0
C503 C 0.54036 0.78013 0.04289 0.0
C504 C 0.55722 0.77936 0.01849 0.0
C505 C 0.50524 0.78104 0.04265 0.0
C506 C 0.48561 0.78063 0.06765 0.0
C507 C 0.49015 0.76349 0.0869 0.0
C508 C 0.47059 0.76264 0.1098 0.0
C509 C 0.44598 0.77884 0.11385 0.0
C510 C 0.44152 0.796 0.09459 0.0
C511 C 0.46117 0.7969 0.07176 0.0
H512 H 0.74462 0.98445 0.56893 0.0
H513 H 0.74643 0.94895 0.59446 0.0
H514 H 0.8392 0.9327 0.55738 0.0
H515 H 0.8375 0.96821 0.5321 0.0
H516 H 0.78474 0.02035 0.56796 0.0
H517 H 0.74861 0.965 0.50427 0.0
H518 H 0.75247 0.92985 0.47921 0.0
H519 H 0.84215 0.95467 0.44219 0.0
H520 H 0.83894 0.9894 0.46804 0.0
H521 H 0.83816 0.05636 0.46974 0.0
H522 H 0.83947 0.0913 0.44333 0.0
H523 H 0.74664 0.1111 0.47774 0.0
H524 H 0.74533 0.07605 0.50416 0.0
H525 H 0.79532 0.02202 0.46929 0.0
H526 H 0.8326 0.07664 0.53439 0.0
H527 H 0.83095 0.11049 0.56207 0.0
H528 H 0.73889 0.08695 0.59635 0.0
H529 H 0.7401 0.05347 0.56812 0.0
C530 C 0.79063 0.97886 0.54824 0.0
C531 C 0.76538 0.97327 0.56633 0.0
C532 C 0.76642 0.953 0.58089 0.0
C533 C 0.79269 0.93793 0.57758 0.0
C534 C 0.81825 0.94374 0.55985 0.0
C535 C 0.81731 0.96404 0.54542 0.0
C536 C 0.78932 1.00029 0.53255 0.0
C537 C 0.78653 0.02071 0.54634 0.0
C538 C 0.79231 1.00076 0.50436 0.0
C539 C 0.79379 0.97973 0.4884 0.0
C540 C 0.7693 0.96279 0.49097 0.0
C541 C 0.77138 0.94278 0.4765 0.0
C542 C 0.7979 0.93936 0.45906 0.0
C543 C 0.82189 0.95658 0.45597 0.0
C544 C 0.81987 0.97654 0.47051 0.0
C545 C 0.79176 0.06359 0.48907 0.0
C546 C 0.81799 0.06816 0.47153 0.0
C547 C 0.81865 0.08808 0.45637 0.0
C548 C 0.79295 0.10379 0.45826 0.0
C549 C 0.7668 0.0993 0.47595 0.0
C550 C 0.76609 0.07932 0.49108 0.0
C551 C 0.79106 0.04213 0.50473 0.0
C552 C 0.79339 0.02167 0.49091 0.0
C553 C 0.78758 0.04164 0.53288 0.0
C554 C 0.78634 0.06255 0.54902 0.0
C555 C 0.81185 0.07889 0.54763 0.0
C556 C 0.81108 0.0981 0.56365 0.0
C557 C 0.78494 0.10125 0.58155 0.0
C558 C 0.75927 0.08501 0.58267 0.0
C559 C 0.76004 0.06583 0.56667 0.0
H560 H 0.45802 0.29765 0.9742 0.0
H561 H 0.42479 0.29673 0.93281 0.0
H562 H 0.46908 0.23332 0.91228 0.0
H563 H 0.50227 0.23432 0.95354 0.0
H564 H 0.45843 0.26929 0.01621 0.0
H565 H 0.5393 0.29516 0.95249 0.0
H566 H 0.57553 0.29561 0.91351 0.0
H567 H 0.61657 0.23182 0.93889 0.0
H568 H 0.5806 0.23154 0.97795 0.0
H569 H 0.57812 0.23013 0.05849 0.0
H570 H 0.61056 0.22796 0.1001 0.0
H571 H 0.57271 0.29263 0.12353 0.0
H572 H 0.53974 0.29447 0.08209 0.0
H573 H 0.58075 0.26074 0.01814 0.0
H574 H 0.50066 0.23359 0.0803 0.0
H575 H 0.46774 0.23276 0.12104 0.0
H576 H 0.42526 0.29695 0.09903 0.0
H577 H 0.45827 0.29772 0.05818 0.0
C578 C 0.48287 0.26616 0.9669 0.0
C579 C 0.46056 0.28355 0.96078 0.0
C580 C 0.4415 0.28297 0.9372 0.0
C581 C 0.44417 0.26487 0.91942 0.0
C582 C 0.46668 0.24757 0.9255 0.0
C583 C 0.4857 0.24815 0.94906 0.0
C584 C 0.50235 0.26639 0.99235 0.0
C585 C 0.48525 0.26784 0.01661 0.0
C586 C 0.53725 0.2638 0.99293 0.0
C587 C 0.55726 0.26333 0.96819 0.0
C588 C 0.5558 0.28114 0.94949 0.0
C589 C 0.5765 0.28138 0.92724 0.0
C590 C 0.5992 0.26391 0.92338 0.0
C591 C 0.59987 0.24576 0.94167 0.0
C592 C 0.57924 0.24554 0.96392 0.0
C593 C 0.55626 0.26235 0.0673 0.0
C594 C 0.57674 0.24381 0.07263 0.0
C595 C 0.59531 0.24262 0.09638 0.0
C596 C 0.59395 0.26002 0.11523 0.0
C597 C 0.57368 0.2787 0.10972 0.0
C598 C 0.55495 0.27983 0.086 0.0
C599 C 0.53685 0.26353 0.04189 0.0
C600 C 0.55395 0.26234 0.01769 0.0
C601 C 0.50197 0.26617 0.04138 0.0
C602 C 0.48219 0.26582 0.06627 0.0
C603 C 0.48451 0.2476 0.08434 0.0
C604 C 0.46566 0.24712 0.1076 0.0
C605 C 0.44379 0.26472 0.11314 0.0
C606 C 0.44149 0.28297 0.09506 0.0
C607 C 0.46042 0.28346 0.07179 0.0
C608 C 0.14653 0.3895 0.33253 0.0
C609 C 0.1628 0.38587 0.30824 0.0
C610 C 0.12592 0.4082 0.33583 0.0
C611 C 0.1205 0.42379 0.31485 0.0
H612 H 0.15018 0.37799 0.34924 0.0
H613 H 0.11398 0.41042 0.35489 0.0
S614 S 0.15673 0.42164 0.24711 0.0
N615 N 0.17143 0.39912 0.26268 0.0
N616 N 0.13321 0.43436 0.269 0.0
C617 C 0.13639 0.42022 0.29041 0.0
C618 C 0.15742 0.40126 0.28709 0.0
C619 C 0.12542 0.6647 0.72342 0.0
C620 C 0.15994 0.66303 0.72015 0.0
C621 C 0.10438 0.64585 0.72005 0.0
C622 C 0.11704 0.62472 0.71297 0.0
H623 H 0.11471 0.68054 0.72935 0.0
H624 H 0.078 0.64781 0.72312 0.0
S625 S 0.20547 0.61174 0.70096 0.0
N626 N 0.20567 0.63882 0.70841 0.0
N627 N 0.1663 0.60338 0.70245 0.0
C628 C 0.15143 0.62298 0.70906 0.0
C629 C 0.17282 0.64212 0.71258 0.0
C630 C 0.91657 0.66522 0.31989 0.0
C631 C 0.88185 0.66287 0.31734 0.0
C632 C 0.93689 0.64625 0.32325 0.0
C633 C 0.92313 0.62432 0.3241 0.0
H634 H 0.92819 0.68174 0.31831 0.0
H635 H 0.96357 0.64868 0.32421 0.0
S636 S 0.83352 0.60936 0.32231 0.0
N637 N 0.83452 0.63708 0.31879 0.0
N638 N 0.87264 0.60154 0.32487 0.0
C639 C 0.88842 0.62187 0.32287 0.0
C640 C 0.8678 0.64111 0.31955 0.0
C641 C 0.8779 0.39418 0.70803 0.0
C642 C 0.89538 0.37396 0.70498 0.0
C643 C 0.89454 0.41511 0.70877 0.0
C644 C 0.92927 0.41659 0.70646 0.0
H645 H 0.85107 0.39386 0.70934 0.0
H646 H 0.88006 0.43029 0.71063 0.0
S647 S 0.98685 0.36851 0.70114 0.0
N648 N 0.94956 0.35664 0.70169 0.0
N649 N 0.98078 0.39594 0.70305 0.0
C650 C 0.94711 0.39647 0.70412 0.0
C651 C 0.93019 0.37518 0.70338 0.0
C652 C 0.22037 0.15501 0.4134 0.0
C653 C 0.24824 0.16934 0.41059 0.0
C654 C 0.22217 0.13493 0.42839 0.0
C655 C 0.25189 0.12839 0.44124 0.0
H656 H 0.19704 0.15926 0.4037 0.0
H657 H 0.20017 0.12431 0.42971 0.0
S658 S 0.33122 0.16085 0.44183 0.0
N659 N 0.30601 0.17614 0.42293 0.0
N660 N 0.30935 0.13848 0.45125 0.0
C661 C 0.27984 0.14269 0.43883 0.0
C662 C 0.27803 0.16312 0.42349 0.0
C663 C 0.37471 0.78905 0.87187 0.0
C664 C 0.38981 0.78868 0.84667 0.0
C665 C 0.39362 0.78723 0.89551 0.0
C666 C 0.42829 0.78469 0.89485 0.0
H667 H 0.34814 0.79123 0.87333 0.0
H668 H 0.381 0.78779 0.91449 0.0
S669 S 0.47968 0.78204 0.83399 0.0
N670 N 0.44137 0.785 0.82245 0.0
N671 N 0.47693 0.78171 0.86691 0.0
C672 C 0.44363 0.78393 0.86979 0.0
C673 C 0.42441 0.78594 0.84571 0.0
C674 C 0.77446 0.8894 0.4151 0.0
C675 C 0.80402 0.877 0.4143 0.0
C676 C 0.77261 0.90942 0.42976 0.0
C677 C 0.80034 0.91793 0.44398 0.0
H678 H 0.75245 0.88346 0.40453 0.0
H679 H 0.74938 0.91844 0.4297 0.0
S680 S 0.88359 0.89193 0.44833 0.0
N681 N 0.86176 0.87489 0.42878 0.0
N682 N 0.85808 0.9122 0.45672 0.0
C683 C 0.83002 0.9057 0.44337 0.0
C684 C 0.8319 0.88531 0.42849 0.0
C685 C 0.63396 0.2721 0.85347 0.0
C686 C 0.66835 0.26972 0.85766 0.0
C687 C 0.61169 0.26998 0.87475 0.0
C688 C 0.62298 0.26512 0.90091 0.0
H689 H 0.62428 0.2762 0.83374 0.0
H690 H 0.58544 0.27222 0.87072 0.0
S691 S 0.71056 0.25651 0.92217 0.0
N692 N 0.71252 0.26149 0.88969 0.0
N693 N 0.67084 0.25777 0.92968 0.0
C694 C 0.65726 0.26226 0.90522 0.0
C695 C 0.67989 0.26452 0.88361 0.0
C696 C 0.24354 0.89869 0.63343 0.0
C697 C 0.24721 0.8777 0.62094 0.0
C698 C 0.24514 0.91895 0.61872 0.0
C699 C 0.25087 0.91902 0.59101 0.0
H700 H 0.23883 0.89944 0.65467 0.0
H701 H 0.24205 0.93471 0.62915 0.0
S702 S 0.26283 0.86864 0.54891 0.0
N703 N 0.25753 0.85826 0.57933 0.0
N704 N 0.26017 0.89629 0.55167 0.0
C705 C 0.25491 0.89817 0.57833 0.0
C706 C 0.25311 0.87754 0.59328 0.0
C707 C 0.65532 0.80865 0.16962 0.0
C708 C 0.6598 0.79042 0.18749 0.0
C709 C 0.63569 0.80639 0.14642 0.0
C710 C 0.61978 0.78582 0.14015 0.0
H711 H 0.66734 0.82476 0.17347 0.0
H712 H 0.63323 0.82083 0.13313 0.0
S713 S 0.62168 0.73339 0.18122 0.0
N714 N 0.64549 0.75138 0.19792 0.0
N715 N 0.60866 0.74714 0.15427 0.0
C716 C 0.62386 0.76749 0.15791 0.0
C717 C 0.64384 0.76979 0.18157 0.0
C718 C 0.75374 0.15217 0.61911 0.0
C719 C 0.78078 0.1579 0.63589 0.0
C720 C 0.75547 0.13405 0.60134 0.0
C721 C 0.78444 0.12115 0.59943 0.0
H722 H 0.73073 0.16136 0.62025 0.0
H723 H 0.73387 0.13003 0.58908 0.0
S724 S 0.86265 0.12993 0.63814 0.0
N725 N 0.83781 0.14982 0.64875 0.0
N726 N 0.84101 0.11568 0.61553 0.0
C727 C 0.81193 0.12706 0.61564 0.0
C728 C 0.81009 0.14542 0.63385 0.0
C729 C 0.41944 0.25672 0.18586 0.0
C730 C 0.38488 0.25995 0.18522 0.0
C731 C 0.43832 0.25862 0.16257 0.0
C732 C 0.42338 0.26381 0.13771 0.0
H733 H 0.43202 0.25271 0.20455 0.0
H734 H 0.46486 0.25602 0.16403 0.0
S735 S 0.33353 0.27269 0.12498 0.0
N736 N 0.33635 0.26792 0.1575 0.0
N737 N 0.37181 0.27146 0.11372 0.0
C738 C 0.38887 0.26714 0.13678 0.0
C739 C 0.36964 0.26522 0.16052 0.0
C740 C 0.88567 0.65375 0.70546 0.0
C741 C 0.88648 0.66522 0.72998 0.0
C742 C 0.90525 0.63464 0.70149 0.0
C743 C 0.92626 0.62633 0.72191 0.0
H744 H 0.869 0.65914 0.68954 0.0
H745 H 0.90314 0.62589 0.68261 0.0
S746 S 0.94084 0.65209 0.78838 0.0
N747 N 0.91248 0.66818 0.77396 0.0
N748 N 0.94909 0.63228 0.76652 0.0
C749 C 0.92834 0.63822 0.74606 0.0
C750 C 0.90851 0.65765 0.75009 0.0
C751 C 0.91452 0.38167 0.31866 0.0
C752 C 0.87976 0.38386 0.3174 0.0
C753 C 0.9354 0.40068 0.32165 0.0
C754 C 0.92219 0.42247 0.32341 0.0
H755 H 0.92569 0.36528 0.31634 0.0
H756 H 0.96204 0.3984 0.32162 0.0
S757 S 0.83293 0.43687 0.32512 0.0
N758 N 0.83314 0.40926 0.32105 0.0
N759 N 0.87231 0.44488 0.32642 0.0
C760 C 0.88751 0.42472 0.32347 0.0
C761 C 0.86632 0.40545 0.32053 0.0
C762 C 0.13754 0.38758 0.70035 0.0
C763 C 0.15335 0.38248 0.7249 0.0
C764 C 0.1181 0.40698 0.69722 0.0
C765 C 0.11377 0.42197 0.71852 0.0
H766 H 0.13989 0.37635 0.68354 0.0
H767 H 0.10601 0.41011 0.67809 0.0
S768 S 0.15258 0.41751 0.786 0.0
N769 N 0.16517 0.39485 0.77028 0.0
N770 N 0.12868 0.43117 0.76441 0.0
C771 C 0.12997 0.41728 0.74298 0.0
C772 C 0.14973 0.39759 0.74616 0.0
C773 C 0.11402 0.67027 0.32755 0.0
C774 C 0.14879 0.67149 0.33043 0.0
C775 C 0.09725 0.64941 0.32651 0.0
C776 C 0.11458 0.62898 0.32865 0.0
H777 H 0.09968 0.68558 0.32591 0.0
H778 H 0.07044 0.64926 0.32443 0.0
S779 S 0.20574 0.62291 0.33638 0.0
N780 N 0.19996 0.65045 0.33543 0.0
N781 N 0.16846 0.61126 0.33332 0.0
C782 C 0.14934 0.62995 0.33146 0.0
C783 C 0.16643 0.65119 0.33234 0.0
C784 C 0.79113 0.89604 0.63567 0.0
C785 C 0.79693 0.87526 0.62325 0.0
C786 C 0.78949 0.91618 0.62076 0.0
C787 C 0.79367 0.91632 0.59287 0.0
H788 H 0.78844 0.89681 0.65717 0.0
H789 H 0.78554 0.93183 0.63121 0.0
S790 S 0.8061 0.86625 0.5504 0.0
N791 N 0.80453 0.85592 0.58114 0.0
N792 N 0.80165 0.89378 0.5532 0.0
C793 C 0.79877 0.89563 0.58013 0.0
C794 C 0.80035 0.87512 0.59529 0.0
C795 C 0.66722 0.25044 0.16258 0.0
C796 C 0.654 0.25491 0.18784 0.0
C797 C 0.64774 0.25237 0.13926 0.0
C798 C 0.6142 0.2587 0.14029 0.0
H799 H 0.69292 0.24554 0.16083 0.0
H800 H 0.6591 0.24897 0.12023 0.0
S801 S 0.56722 0.27083 0.20176 0.0
N802 N 0.60513 0.26524 0.21268 0.0
N803 N 0.56829 0.26853 0.1689 0.0
C804 C 0.60063 0.26311 0.16548 0.0
C805 C 0.62057 0.26128 0.18922 0.0
C806 C 0.24433 0.14797 0.63288 0.0
C807 C 0.24752 0.16906 0.61994 0.0
C808 C 0.24593 0.12777 0.61856 0.0
C809 C 0.25115 0.12788 0.59079 0.0
H810 H 0.23996 0.14708 0.65419 0.0
H811 H 0.2432 0.11193 0.62933 0.0
S812 S 0.26179 0.17859 0.54754 0.0
N813 N 0.25691 0.18879 0.57783 0.0
N814 N 0.25949 0.15088 0.55088 0.0
C815 C 0.25473 0.14884 0.57765 0.0
C816 C 0.25296 0.1694 0.59221 0.0
C817 C 0.38598 0.75416 0.16463 0.0
C818 C 0.37809 0.77281 0.18047 0.0
C819 C 0.40838 0.75621 0.14352 0.0
C820 C 0.42372 0.77702 0.13729 0.0
H821 H 0.37474 0.7378 0.16858 0.0
H822 H 0.41319 0.74146 0.13162 0.0
S823 S 0.41224 0.83091 0.17298 0.0
N824 N 0.38764 0.81276 0.18858 0.0
N825 N 0.43032 0.8165 0.14924 0.0
C826 C 0.41645 0.79575 0.15319 0.0
C827 C 0.3936 0.79366 0.17472 0.0
C828 C 0.79111 0.16615 0.43965 0.0
C829 C 0.79672 0.16616 0.41193 0.0
C830 C 0.78942 0.14592 0.4544 0.0
C831 C 0.79364 0.12494 0.44204 0.0
H832 H 0.78787 0.18192 0.45002 0.0
H833 H 0.78534 0.14672 0.47574 0.0
S834 S 0.80857 0.11569 0.36995 0.0
N835 N 0.80643 0.14337 0.3727 0.0
N836 N 0.80285 0.10537 0.40034 0.0
C837 C 0.79902 0.1247 0.41431 0.0
C838 C 0.80059 0.14528 0.39928 0.0
C839 C 0.41893 0.2568 0.84657 0.0
C840 C 0.38427 0.25953 0.84679 0.0
C841 C 0.43811 0.25887 0.87003 0.0
C842 C 0.42341 0.26376 0.89465 0.0
H843 H 0.43134 0.25305 0.82808 0.0
H844 H 0.46471 0.25665 0.86889 0.0
S845 S 0.33346 0.27129 0.90629 0.0
N846 N 0.33592 0.26669 0.87387 0.0
N847 N 0.37196 0.27057 0.91797 0.0
C848 C 0.3888 0.26659 0.89515 0.0
C849 C 0.36925 0.26448 0.87125 0.0
C850 C 0.29364 0.89301 0.41786 0.0
C851 C 0.26674 0.88634 0.40141 0.0
C852 C 0.29099 0.91109 0.43555 0.0
C853 C 0.26133 0.92325 0.4375 0.0
H854 H 0.31707 0.8843 0.41687 0.0
H855 H 0.31245 0.91573 0.44765 0.0
S856 S 0.18385 0.91291 0.39838 0.0
N857 N 0.20956 0.89343 0.38804 0.0
N858 N 0.20458 0.92745 0.42126 0.0
C859 C 0.23405 0.91652 0.42151 0.0
C860 C 0.23675 0.89807 0.40348 0.0
C861 C 0.62122 0.79042 0.84884 0.0
C862 C 0.65592 0.7879 0.84949 0.0
C863 C 0.60249 0.78853 0.87223 0.0
C864 C 0.61774 0.78406 0.89716 0.0
H865 H 0.60841 0.7938 0.83008 0.0
H866 H 0.57582 0.79048 0.87076 0.0
S867 S 0.70806 0.77748 0.90993 0.0
N868 N 0.70491 0.78158 0.8773 0.0
N869 N 0.66975 0.77806 0.92123 0.0
C870 C 0.65242 0.78157 0.8981 0.0
C871 C 0.67148 0.78348 0.87429 0.0
loop_
_geom_bond_atom_site_label_1
_geom_bond_atom_site_label_2
_geom_bond_distance
_geom_bond_site_symmetry_2
_ccdc_geom_bond_type
C0 C1 1.264 . S
C0 C5 1.479 . S
C0 C10 1.465 . S
C1 C0 1.264 . S
C1 C3 1.339 . S
C1 H28 0.931 . S
C2 C3 1.395 . S
C2 C4 1.320 . S
C3 C1 1.339 . S
C3 C2 1.395 . S
C3 H29 0.929 . S
C4 C2 1.320 . S
C4 C5 1.405 . S
C4 H30 0.930 . S
C5 C0 1.479 . S
C5 C4 1.405 . S
C5 H31 0.931 . S
U6 O7 2.454 . S
U6 O8 2.458 . S
U6 C9 2.984 . S
U6 C10 2.847 . S
U6 C23 2.882 . S
U6 O24 2.441 . S
U6 O25 2.420 . S
U6 O26 2.455 . S
U6 O27 2.449 . S
O7 U6 2.454 . S
O7 C9 1.353 . S
O8 U6 2.458 . S
O8 C9 1.286 . S
C9 U6 2.984 . S
C9 O7 1.353 . S
C9 O8 1.286 . S
C9 C11 1.363 . S
C10 C0 1.465 . S
C10 U6 2.847 . S
C10 O24 1.249 . S
C10 O25 1.202 . S
C11 C9 1.363 . S
C11 C13 1.408 . S
C11 C16 1.342 . S
C12 C13 1.310 . S
C12 C15 1.461 . S
C12 H32 0.932 . S
C13 C11 1.408 . S
C13 C12 1.310 . S
C13 H33 0.930 . S
C14 C15 1.474 . S
C14 C16 1.285 . S
C14 H34 0.929 . S
C15 C12 1.461 . S
C15 C14 1.474 . S
C16 C11 1.342 . S
C16 C14 1.285 . S
C16 H35 0.930 . S
C17 C20 1.424 . S
C17 C22 1.245 . S
C17 C23 1.428 . S
C18 C21 1.260 . S
C18 C22 1.477 . S
C18 H36 0.932 . S
C19 C20 1.384 . S
C19 C21 1.479 . S
C19 H37 0.929 . S
C20 C17 1.424 . S
C20 C19 1.384 . S
C20 H38 0.928 . S
C21 C18 1.260 . S
C21 C19 1.479 . S
C22 C17 1.245 . S
C22 C18 1.477 . S
C22 H39 0.932 . S
C23 U6 2.882 . S
C23 C17 1.428 . S
C23 O26 1.301 . S
C23 O27 1.282 . S
O24 U6 2.441 . S
O24 C10 1.249 . S
O25 U6 2.420 . S
O25 C10 1.202 . S
O26 U6 2.455 . S
O26 C23 1.301 . S
O27 U6 2.449 . S
O27 C23 1.282 . S
H28 C1 0.931 . S
H29 C3 0.929 . S
H30 C4 0.930 . S
H31 C5 0.931 . S
H32 C12 0.932 . S
H33 C13 0.930 . S
H34 C14 0.929 . S
H35 C16 0.930 . S
H36 C18 0.932 . S
H37 C19 0.929 . S
H38 C20 0.928 . S
H39 C22 0.932 . S
C40 C41 1.264 . S
C40 C45 1.479 . S
C40 C50 1.465 . S
C41 C40 1.264 . S
C41 C43 1.339 . S
C41 H68 0.931 . S
C42 C43 1.395 . S
C42 C44 1.320 . S
C43 C41 1.339 . S
C43 C42 1.395 . S
C43 H69 0.929 . S
C44 C42 1.320 . S
C44 C45 1.405 . S
C44 H70 0.930 . S
C45 C40 1.479 . S
C45 C44 1.405 . S
C45 H71 0.931 . S
U46 O47 2.454 . S
U46 O48 2.458 . S
U46 C49 2.984 . S
U46 C50 2.847 . S
U46 C63 2.882 . S
U46 O64 2.441 . S
U46 O65 2.420 . S
U46 O66 2.455 . S
U46 O67 2.449 . S
O47 U46 2.454 . S
O47 C49 1.353 . S
O48 U46 2.458 . S
O48 C49 1.286 . S
C49 U46 2.984 . S
C49 O47 1.353 . S
C49 O48 1.286 . S
C49 C51 1.363 . S
C50 C40 1.465 . S
C50 U46 2.847 . S
C50 O64 1.249 . S
C50 O65 1.202 . S
C51 C49 1.363 . S
C51 C53 1.408 . S
C51 C56 1.342 . S
C52 C53 1.310 . S
C52 C55 1.461 . S
C52 H72 0.932 . S
C53 C51 1.408 . S
C53 C52 1.310 . S
C53 H73 0.930 . S
C54 C55 1.474 . S
C54 C56 1.285 . S
C54 H74 0.929 . S
C55 C52 1.461 . S
C55 C54 1.474 . S
C56 C51 1.342 . S
C56 C54 1.285 . S
C56 H75 0.930 . S
C57 C60 1.424 . S
C57 C62 1.245 . S
C57 C63 1.428 . S
C58 C61 1.260 . S
C58 C62 1.477 . S
C58 H76 0.932 . S
C59 C60 1.384 . S
C59 C61 1.479 . S
C59 H77 0.929 . S
C60 C57 1.424 . S
C60 C59 1.384 . S
C60 H78 0.928 . S
C61 C58 1.260 . S
C61 C59 1.479 . S
C62 C57 1.245 . S
C62 C58 1.477 . S
C62 H79 0.932 . S
C63 U46 2.882 . S
C63 C57 1.428 . S
C63 O66 1.301 . S
C63 O67 1.282 . S
O64 U46 2.441 . S
O64 C50 1.249 . S
O65 U46 2.420 . S
O65 C50 1.202 . S
O66 U46 2.455 . S
O66 C63 1.301 . S
O67 U46 2.449 . S
O67 C63 1.282 . S
H68 C41 0.931 . S
H69 C43 0.929 . S
H70 C44 0.930 . S
H71 C45 0.931 . S
H72 C52 0.932 . S
H73 C53 0.930 . S
H74 C54 0.929 . S
H75 C56 0.930 . S
H76 C58 0.932 . S
H77 C59 0.929 . S
H78 C60 0.928 . S
H79 C62 0.932 . S
C80 C81 1.264 . S
C80 C85 1.479 . S
C80 C90 1.465 . S
C81 C80 1.264 . S
C81 C83 1.339 . S
C81 H108 0.931 . S
C82 C83 1.395 . S
C82 C84 1.320 . S
C83 C81 1.339 . S
C83 C82 1.395 . S
C83 H109 0.929 . S
C84 C82 1.320 . S
C84 C85 1.405 . S
C84 H110 0.930 . S
C85 C80 1.479 . S
C85 C84 1.405 . S
C85 H111 0.931 . S
U86 O87 2.454 . S
U86 O88 2.458 . S
U86 C89 2.984 . S
U86 C90 2.847 . S
U86 C103 2.882 . S
U86 O104 2.441 . S
U86 O105 2.420 . S
U86 O106 2.455 . S
U86 O107 2.449 . S
O87 U86 2.454 . S
O87 C89 1.353 . S
O88 U86 2.458 . S
O88 C89 1.286 . S
C89 U86 2.984 . S
C89 O87 1.353 . S
C89 O88 1.286 . S
C89 C91 1.363 . S
C90 C80 1.465 . S
C90 U86 2.847 . S
C90 O104 1.249 . S
C90 O105 1.202 . S
C91 C89 1.363 . S
C91 C93 1.408 . S
C91 C96 1.342 . S
C92 C93 1.310 . S
C92 C95 1.461 . S
C92 H112 0.932 . S
C93 C91 1.408 . S
C93 C92 1.310 . S
C93 H113 0.930 . S
C94 C95 1.474 . S
C94 C96 1.285 . S
C94 H114 0.929 . S
C95 C92 1.461 . S
C95 C94 1.474 . S
C96 C91 1.342 . S
C96 C94 1.285 . S
C96 H115 0.930 . S
C97 C100 1.424 . S
C97 C102 1.245 . S
C97 C103 1.428 . S
C98 C101 1.260 . S
C98 C102 1.477 . S
C98 H116 0.932 . S
C99 C100 1.384 . S
C99 C101 1.479 . S
C99 H117 0.929 . S
C100 C97 1.424 . S
C100 C99 1.384 . S
C100 H118 0.928 . S
C101 C98 1.260 . S
C101 C99 1.479 . S
C102 C97 1.245 . S
C102 C98 1.477 . S
C102 H119 0.932 . S
C103 U86 2.882 . S
C103 C97 1.428 . S
C103 O106 1.301 . S
C103 O107 1.282 . S
O104 U86 2.441 . S
O104 C90 1.249 . S
O105 U86 2.420 . S
O105 C90 1.202 . S
O106 U86 2.455 . S
O106 C103 1.301 . S
O107 U86 2.449 . S
O107 C103 1.282 . S
H108 C81 0.931 . S
H109 C83 0.929 . S
H110 C84 0.930 . S
H111 C85 0.931 . S
H112 C92 0.932 . S
H113 C93 0.930 . S
H114 C94 0.929 . S
H115 C96 0.930 . S
H116 C98 0.932 . S
H117 C99 0.929 . S
H118 C100 0.928 . S
H119 C102 0.932 . S
C120 C121 1.264 . S
C120 C125 1.479 . S
C120 C130 1.465 . S
C121 C120 1.264 . S
C121 C123 1.339 . S
C121 H148 0.931 . S
C122 C123 1.395 . S
C122 C124 1.320 . S
C123 C121 1.339 . S
C123 C122 1.395 . S
C123 H149 0.929 . S
C124 C122 1.320 . S
C124 C125 1.405 . S
C124 H150 0.930 . S
C125 C120 1.479 . S
C125 C124 1.405 . S
C125 H151 0.931 . S
U126 O127 2.454 . S
U126 O128 2.458 . S
U126 C129 2.984 . S
U126 C130 2.847 . S
U126 C143 2.882 . S
U126 O144 2.441 . S
U126 O145 2.420 . S
U126 O146 2.455 . S
U126 O147 2.449 . S
O127 U126 2.454 . S
O127 C129 1.353 . S
O128 U126 2.458 . S
O128 C129 1.286 . S
C129 U126 2.984 . S
C129 O127 1.353 . S
C129 O128 1.286 . S
C129 C131 1.363 . S
C130 C120 1.465 . S
C130 U126 2.847 . S
C130 O144 1.249 . S
C130 O145 1.202 . S
C131 C129 1.363 . S
C131 C133 1.408 . S
C131 C136 1.342 . S
C132 C133 1.310 . S
C132 C135 1.461 . S
C132 H152 0.932 . S
C133 C131 1.408 . S
C133 C132 1.310 . S
C133 H153 0.930 . S
C134 C135 1.474 . S
C134 C136 1.285 . S
C134 H154 0.929 . S
C135 C132 1.461 . S
C135 C134 1.474 . S
C136 C131 1.342 . S
C136 C134 1.285 . S
C136 H155 0.930 . S
C137 C140 1.424 . S
C137 C142 1.245 . S
C137 C143 1.428 . S
C138 C141 1.260 . S
C138 C142 1.477 . S
C138 H156 0.932 . S
C139 C140 1.384 . S
C139 C141 1.479 . S
C139 H157 0.929 . S
C140 C137 1.424 . S
C140 C139 1.384 . S
C140 H158 0.928 . S
C141 C138 1.260 . S
C141 C139 1.479 . S
C142 C137 1.245 . S
C142 C138 1.477 . S
C142 H159 0.932 . S
C143 U126 2.882 . S
C143 C137 1.428 . S
C143 O146 1.301 . S
C143 O147 1.282 . S
O144 U126 2.441 . S
O144 C130 1.249 . S
O145 U126 2.420 . S
O145 C130 1.202 . S
O146 U126 2.455 . S
O146 C143 1.301 . S
O147 U126 2.449 . S
O147 C143 1.282 . S
H148 C121 0.931 . S
H149 C123 0.929 . S
H150 C124 0.930 . S
H151 C125 0.931 . S
H152 C132 0.932 . S
H153 C133 0.930 . S
H154 C134 0.929 . S
H155 C136 0.930 . S
H156 C138 0.932 . S
H157 C139 0.929 . S
H158 C140 0.928 . S
H159 C142 0.932 . S
C160 C161 1.264 . S
C160 C165 1.479 . S
C160 C170 1.465 . S
C161 C160 1.264 . S
C161 C163 1.339 . S
C161 H188 0.931 . S
C162 C163 1.395 . S
C162 C164 1.320 . S
C163 C161 1.339 . S
C163 C162 1.395 . S
C163 H189 0.929 . S
C164 C162 1.320 . S
C164 C165 1.405 . S
C164 H190 0.930 . S
C165 C160 1.479 . S
C165 C164 1.405 . S
C165 H191 0.931 . S
U166 O167 2.454 . S
U166 O168 2.458 . S
U166 C169 2.984 . S
U166 C170 2.847 . S
U166 C183 2.882 . S
U166 O184 2.441 . S
U166 O185 2.420 . S
U166 O186 2.455 . S
U166 O187 2.449 . S
O167 U166 2.454 . S
O167 C169 1.353 . S
O168 U166 2.458 . S
O168 C169 1.286 . S
C169 U166 2.984 . S
C169 O167 1.353 . S
C169 O168 1.286 . S
C169 C171 1.363 . S
C170 C160 1.465 . S
C170 U166 2.847 . S
C170 O184 1.249 . S
C170 O185 1.202 . S
C171 C169 1.363 . S
C171 C173 1.408 . S
C171 C176 1.342 . S
C172 C173 1.310 . S
C172 C175 1.461 . S
C172 H192 0.932 . S
C173 C171 1.408 . S
C173 C172 1.310 . S
C173 H193 0.930 . S
C174 C175 1.474 . S
C174 C176 1.285 . S
C174 H194 0.929 . S
C175 C172 1.461 . S
C175 C174 1.474 . S
C176 C171 1.342 . S
C176 C174 1.285 . S
C176 H195 0.930 . S
C177 C180 1.424 . S
C177 C182 1.245 . S
C177 C183 1.428 . S
C178 C181 1.260 . S
C178 C182 1.477 . S
C178 H196 0.932 . S
C179 C180 1.384 . S
C179 C181 1.479 . S
C179 H197 0.929 . S
C180 C177 1.424 . S
C180 C179 1.384 . S
C180 H198 0.928 . S
C181 C178 1.260 . S
C181 C179 1.479 . S
C182 C177 1.245 . S
C182 C178 1.477 . S
C182 H199 0.932 . S
C183 U166 2.882 . S
C183 C177 1.428 . S
C183 O186 1.301 . S
C183 O187 1.282 . S
O184 U166 2.441 . S
O184 C170 1.249 . S
O185 U166 2.420 . S
O185 C170 1.202 . S
O186 U166 2.455 . S
O186 C183 1.301 . S
O187 U166 2.449 . S
O187 C183 1.282 . S
H188 C161 0.931 . S
H189 C163 0.929 . S
H190 C164 0.930 . S
H191 C165 0.931 . S
H192 C172 0.932 . S
H193 C173 0.930 . S
H194 C174 0.929 . S
H195 C176 0.930 . S
H196 C178 0.932 . S
H197 C179 0.929 . S
H198 C180 0.928 . S
H199 C182 0.932 . S
C200 C201 1.264 . S
C200 C205 1.479 . S
C200 C210 1.465 . S
C201 C200 1.264 . S
C201 C203 1.339 . S
C201 H228 0.931 . S
C202 C203 1.395 . S
C202 C204 1.320 . S
C203 C201 1.339 . S
C203 C202 1.395 . S
C203 H229 0.929 . S
C204 C202 1.320 . S
C204 C205 1.405 . S
C204 H230 0.930 . S
C205 C200 1.479 . S
C205 C204 1.405 . S
C205 H231 0.931 . S
U206 O207 2.454 . S
U206 O208 2.458 . S
U206 C209 2.984 . S
U206 C210 2.847 . S
U206 C223 2.882 . S
U206 O224 2.441 . S
U206 O225 2.420 . S
U206 O226 2.455 . S
U206 O227 2.449 . S
O207 U206 2.454 . S
O207 C209 1.353 . S
O208 U206 2.458 . S
O208 C209 1.286 . S
C209 U206 2.984 . S
C209 O207 1.353 . S
C209 O208 1.286 . S
C209 C211 1.363 . S
C210 C200 1.465 . S
C210 U206 2.847 . S
C210 O224 1.249 . S
C210 O225 1.202 . S
C211 C209 1.363 . S
C211 C213 1.408 . S
C211 C216 1.342 . S
C212 C213 1.310 . S
C212 C215 1.461 . S
C212 H232 0.932 . S
C213 C211 1.408 . S
C213 C212 1.310 . S
C213 H233 0.930 . S
C214 C215 1.474 . S
C214 C216 1.285 . S
C214 H234 0.929 . S
C215 C212 1.461 . S
C215 C214 1.474 . S
C216 C211 1.342 . S
C216 C214 1.285 . S
C216 H235 0.930 . S
C217 C220 1.424 . S
C217 C222 1.245 . S
C217 C223 1.428 . S
C218 C221 1.260 . S
C218 C222 1.477 . S
C218 H236 0.932 . S
C219 C220 1.384 . S
C219 C221 1.479 . S
C219 H237 0.929 . S
C220 C217 1.424 . S
C220 C219 1.384 . S
C220 H238 0.928 . S
C221 C218 1.260 . S
C221 C219 1.479 . S
C222 C217 1.245 . S
C222 C218 1.477 . S
C222 H239 0.932 . S
C223 U206 2.882 . S
C223 C217 1.428 . S
C223 O226 1.301 . S
C223 O227 1.282 . S
O224 U206 2.441 . S
O224 C210 1.249 . S
O225 U206 2.420 . S
O225 C210 1.202 . S
O226 U206 2.455 . S
O226 C223 1.301 . S
O227 U206 2.449 . S
O227 C223 1.282 . S
H228 C201 0.931 . S
H229 C203 0.929 . S
H230 C204 0.930 . S
H231 C205 0.931 . S
H232 C212 0.932 . S
H233 C213 0.930 . S
H234 C214 0.929 . S
H235 C216 0.930 . S
H236 C218 0.932 . S
H237 C219 0.929 . S
H238 C220 0.928 . S
H239 C222 0.932 . S
C240 C241 1.264 . S
C240 C245 1.479 . S
C240 C250 1.465 . S
C241 C240 1.264 . S
C241 C243 1.339 . S
C241 H268 0.931 . S
C242 C243 1.395 . S
C242 C244 1.320 . S
C243 C241 1.339 . S
C243 C242 1.395 . S
C243 H269 0.929 . S
C244 C242 1.320 . S
C244 C245 1.405 . S
C244 H270 0.930 . S
C245 C240 1.479 . S
C245 C244 1.405 . S
C245 H271 0.931 . S
U246 O247 2.454 . S
U246 O248 2.458 . S
U246 C249 2.984 . S
U246 C250 2.847 . S
U246 C263 2.882 . S
U246 O264 2.441 . S
U246 O265 2.420 . S
U246 O266 2.455 . S
U246 O267 2.449 . S
O247 U246 2.454 . S
O247 C249 1.353 . S
O248 U246 2.458 . S
O248 C249 1.286 . S
C249 U246 2.984 . S
C249 O247 1.353 . S
C249 O248 1.286 . S
C249 C251 1.363 . S
C250 C240 1.465 . S
C250 U246 2.847 . S
C250 O264 1.249 . S
C250 O265 1.202 . S
C251 C249 1.363 . S
C251 C253 1.408 . S
C251 C256 1.342 . S
C252 C253 1.310 . S
C252 C255 1.461 . S
C252 H272 0.932 . S
C253 C251 1.408 . S
C253 C252 1.310 . S
C253 H273 0.930 . S
C254 C255 1.474 . S
C254 C256 1.285 . S
C254 H274 0.929 . S
C255 C252 1.461 . S
C255 C254 1.474 . S
C256 C251 1.342 . S
C256 C254 1.285 . S
C256 H275 0.930 . S
C257 C260 1.424 . S
C257 C262 1.245 . S
C257 C263 1.428 . S
C258 C261 1.260 . S
C258 C262 1.477 . S
C258 H276 0.932 . S
C259 C260 1.384 . S
C259 C261 1.479 . S
C259 H277 0.929 . S
C260 C257 1.424 . S
C260 C259 1.384 . S
C260 H278 0.928 . S
C261 C258 1.260 . S
C261 C259 1.479 . S
C262 C257 1.245 . S
C262 C258 1.477 . S
C262 H279 0.932 . S
C263 U246 2.882 . S
C263 C257 1.428 . S
C263 O266 1.301 . S
C263 O267 1.282 . S
O264 U246 2.441 . S
O264 C250 1.249 . S
O265 U246 2.420 . S
O265 C250 1.202 . S
O266 U246 2.455 . S
O266 C263 1.301 . S
O267 U246 2.449 . S
O267 C263 1.282 . S
H268 C241 0.931 . S
H269 C243 0.929 . S
H270 C244 0.930 . S
H271 C245 0.931 . S
H272 C252 0.932 . S
H273 C253 0.930 . S
H274 C254 0.929 . S
H275 C256 0.930 . S
H276 C258 0.932 . S
H277 C259 0.929 . S
H278 C260 0.928 . S
H279 C262 0.932 . S
C280 C281 1.264 . S
C280 C285 1.479 . S
C280 C290 1.465 . S
C281 C280 1.264 . S
C281 C283 1.339 . S
C281 H308 0.931 . S
C282 C283 1.395 . S
C282 C284 1.320 . S
C283 C281 1.339 . S
C283 C282 1.395 . S
C283 H309 0.929 . S
C284 C282 1.320 . S
C284 C285 1.405 . S
C284 H310 0.930 . S
C285 C280 1.479 . S
C285 C284 1.405 . S
C285 H311 0.931 . S
U286 O287 2.454 . S
U286 O288 2.458 . S
U286 C289 2.984 . S
U286 C290 2.847 . S
U286 C303 2.882 . S
U286 O304 2.441 . S
U286 O305 2.420 . S
U286 O306 2.455 . S
U286 O307 2.449 . S
O287 U286 2.454 . S
O287 C289 1.353 . S
O288 U286 2.458 . S
O288 C289 1.286 . S
C289 U286 2.984 . S
C289 O287 1.353 . S
C289 O288 1.286 . S
C289 C291 1.363 . S
C290 C280 1.465 . S
C290 U286 2.847 . S
C290 O304 1.249 . S
C290 O305 1.202 . S
C291 C289 1.363 . S
C291 C293 1.408 . S
C291 C296 1.342 . S
C292 C293 1.310 . S
C292 C295 1.461 . S
C292 H312 0.932 . S
C293 C291 1.408 . S
C293 C292 1.310 . S
C293 H313 0.930 . S
C294 C295 1.474 . S
C294 C296 1.285 . S
C294 H314 0.929 . S
C295 C292 1.461 . S
C295 C294 1.474 . S
C296 C291 1.342 . S
C296 C294 1.285 . S
C296 H315 0.930 . S
C297 C300 1.424 . S
C297 C302 1.245 . S
C297 C303 1.428 . S
C298 C301 1.260 . S
C298 C302 1.477 . S
C298 H316 0.932 . S
C299 C300 1.384 . S
C299 C301 1.479 . S
C299 H317 0.929 . S
C300 C297 1.424 . S
C300 C299 1.384 . S
C300 H318 0.928 . S
C301 C298 1.260 . S
C301 C299 1.479 . S
C302 C297 1.245 . S
C302 C298 1.477 . S
C302 H319 0.932 . S
C303 U286 2.882 . S
C303 C297 1.428 . S
C303 O306 1.301 . S
C303 O307 1.282 . S
O304 U286 2.441 . S
O304 C290 1.249 . S
O305 U286 2.420 . S
O305 C290 1.202 . S
O306 U286 2.455 . S
O306 C303 1.301 . S
O307 U286 2.449 . S
O307 C303 1.282 . S
H308 C281 0.931 . S
H309 C283 0.929 . S
H310 C284 0.930 . S
H311 C285 0.931 . S
H312 C292 0.932 . S
H313 C293 0.930 . S
H314 C294 0.929 . S
H315 C296 0.930 . S
H316 C298 0.932 . S
H317 C299 0.929 . S
H318 C300 0.928 . S
H319 C302 0.932 . S
H320 C339 0.949 . S
H321 C340 0.950 . S
H322 C342 0.950 . S
H323 C343 0.950 . S
H324 C345 0.950 . S
H325 C348 0.950 . S
H326 C349 0.950 . S
H327 C351 0.951 . S
H328 C352 0.949 . S
H329 C354 0.949 . S
H330 C355 0.950 . S
H331 C357 0.950 . S
H332 C358 0.950 . S
H333 C360 0.950 . S
H334 C363 0.950 . S
H335 C364 0.950 . S
H336 C366 0.951 . S
H337 C367 0.949 . S
C338 C339 1.376 . S
C338 C343 1.386 . S
C338 C344 1.483 . S
C339 H320 0.949 . S
C339 C338 1.376 . S
C339 C340 1.397 . S
C340 H321 0.950 . S
C340 C339 1.397 . S
C340 C341 1.391 . S
C341 C340 1.391 . S
C341 C342 1.405 . S
C342 H322 0.950 . S
C342 C341 1.405 . S
C342 C343 1.367 . S
C343 H323 0.950 . S
C343 C338 1.386 . S
C343 C342 1.367 . S
C344 C338 1.483 . S
C344 C345 1.382 . S
C344 C346 1.403 1_655 S
C345 H324 0.950 . S
C345 C344 1.382 . S
C345 C361 1.411 . S
C346 C344 1.403 1_455 S
C346 C347 1.489 . S
C346 C360 1.411 . S
C347 C346 1.489 . S
C347 C348 1.383 . S
C347 C352 1.382 . S
C348 H325 0.950 . S
C348 C347 1.383 . S
C348 C349 1.395 . S
C349 H326 0.950 . S
C349 C348 1.395 . S
C349 C350 1.288 . S
C350 C349 1.288 . S
C350 C351 1.392 . S
C351 H327 0.951 . S
C351 C350 1.392 . S
C351 C352 1.392 . S
C352 H328 0.949 . S
C352 C347 1.382 . S
C352 C351 1.392 . S
C353 C354 1.376 . S
C353 C358 1.386 . S
C353 C359 1.483 . S
C354 H329 0.949 . S
C354 C353 1.376 . S
C354 C355 1.397 . S
C355 H330 0.950 . S
C355 C354 1.397 . S
C355 C356 1.391 . S
C356 C355 1.391 . S
C356 C357 1.405 . S
C357 H331 0.950 . S
C357 C356 1.405 . S
C357 C358 1.367 . S
C358 H332 0.950 . S
C358 C353 1.386 . S
C358 C357 1.367 . S
C359 C353 1.483 . S
C359 C360 1.382 . S
C359 C361 1.403 1_455 S
C360 H333 0.950 . S
C360 C346 1.411 . S
C360 C359 1.382 . S
C361 C345 1.411 . S
C361 C359 1.403 1_655 S
C361 C362 1.489 . S
C362 C361 1.489 . S
C362 C363 1.383 . S
C362 C367 1.382 . S
C363 H334 0.950 . S
C363 C362 1.383 . S
C363 C364 1.395 . S
C364 H335 0.950 . S
C364 C363 1.395 . S
C364 C365 1.288 . S
C365 C364 1.288 . S
C365 C366 1.392 . S
C366 H336 0.951 . S
C366 C365 1.392 . S
C366 C367 1.392 . S
C367 H337 0.949 . S
C367 C362 1.382 . S
C367 C366 1.392 . S
H368 C387 0.949 . S
H369 C388 0.950 . S
H370 C390 0.950 . S
H371 C391 0.950 . S
H372 C393 0.950 . S
H373 C396 0.950 . S
H374 C397 0.950 . S
H375 C399 0.951 . S
H376 C400 0.949 . S
H377 C402 0.949 . S
H378 C403 0.950 . S
H379 C405 0.950 . S
H380 C406 0.950 . S
H381 C408 0.950 . S
H382 C411 0.950 . S
H383 C412 0.950 . S
H384 C414 0.951 . S
H385 C415 0.949 . S
C386 C387 1.376 . S
C386 C391 1.386 . S
C386 C392 1.483 . S
C387 H368 0.949 . S
C387 C386 1.376 . S
C387 C388 1.397 . S
C388 H369 0.950 . S
C388 C387 1.397 . S
C388 C389 1.391 . S
C389 C388 1.391 . S
C389 C390 1.405 . S
C390 H370 0.950 . S
C390 C389 1.405 . S
C390 C391 1.367 . S
C391 H371 0.950 . S
C391 C386 1.386 . S
C391 C390 1.367 . S
C392 C386 1.483 . S
C392 C393 1.382 . S
C392 C394 1.403 1_455 S
C393 H372 0.950 . S
C393 C392 1.382 . S
C393 C409 1.411 . S
C394 C392 1.403 1_655 S
C394 C395 1.489 . S
C394 C408 1.411 . S
C395 C394 1.489 . S
C395 C396 1.383 . S
C395 C400 1.382 . S
C396 H373 0.950 . S
C396 C395 1.383 . S
C396 C397 1.395 . S
C397 H374 0.950 . S
C397 C396 1.395 . S
C397 C398 1.288 . S
C398 C397 1.288 . S
C398 C399 1.392 . S
C399 H375 0.951 . S
C399 C398 1.392 . S
C399 C400 1.392 . S
C400 H376 0.949 . S
C400 C395 1.382 . S
C400 C399 1.392 . S
C401 C402 1.376 . S
C401 C406 1.386 . S
C401 C407 1.483 . S
C402 H377 0.949 . S
C402 C401 1.376 . S
C402 C403 1.397 . S
C403 H378 0.950 . S
C403 C402 1.397 . S
C403 C404 1.391 . S
C404 C403 1.391 . S
C404 C405 1.405 . S
C405 H379 0.950 . S
C405 C404 1.405 . S
C405 C406 1.367 . S
C406 H380 0.950 . S
C406 C401 1.386 . S
C406 C405 1.367 . S
C407 C401 1.483 . S
C407 C408 1.382 . S
C407 C409 1.403 1_655 S
C408 H381 0.950 . S
C408 C394 1.411 . S
C408 C407 1.382 . S
C409 C393 1.411 . S
C409 C407 1.403 1_455 S
C409 C410 1.489 . S
C410 C409 1.489 . S
C410 C411 1.383 . S
C410 C415 1.382 . S
C411 H382 0.950 . S
C411 C410 1.383 . S
C411 C412 1.395 . S
C412 H383 0.950 . S
C412 C411 1.395 . S
C412 C413 1.288 . S
C413 C412 1.288 . S
C413 C414 1.392 . S
C414 H384 0.951 . S
C414 C413 1.392 . S
C414 C415 1.392 . S
C415 H385 0.949 . S
C415 C410 1.382 . S
C415 C414 1.392 . S
H416 C435 0.949 . S
H417 C436 0.950 . S
H418 C438 0.950 . S
H419 C439 0.950 . S
H420 C441 0.950 . S
H421 C444 0.950 . S
H422 C445 0.950 . S
H423 C447 0.951 . S
H424 C448 0.949 . S
H425 C450 0.949 . S
H426 C451 0.950 . S
H427 C453 0.950 . S
H428 C454 0.950 . S
H429 C456 0.950 . S
H430 C459 0.950 . S
H431 C460 0.950 . S
H432 C462 0.951 . S
H433 C463 0.949 . S
C434 C435 1.376 . S
C434 C439 1.386 . S
C434 C440 1.483 . S
C435 H416 0.949 . S
C435 C434 1.376 . S
C435 C436 1.397 . S
C436 H417 0.950 . S
C436 C435 1.397 . S
C436 C437 1.391 . S
C437 C436 1.391 . S
C437 C438 1.405 . S
C438 H418 0.950 . S
C438 C437 1.405 . S
C438 C439 1.367 . S
C439 H419 0.950 . S
C439 C434 1.386 . S
C439 C438 1.367 . S
C440 C434 1.483 . S
C440 C441 1.382 1_565 S
C440 C442 1.403 . S
C441 H420 0.950 . S
C441 C440 1.382 1_545 S
C441 C457 1.411 . S
C442 C440 1.403 . S
C442 C443 1.489 . S
C442 C456 1.411 1_565 S
C443 C442 1.489 . S
C443 C444 1.383 . S
C443 C448 1.382 . S
C444 H421 0.950 . S
C444 C443 1.383 . S
C444 C445 1.395 . S
C445 H422 0.950 . S
C445 C444 1.395 . S
C445 C446 1.288 . S
C446 C445 1.288 . S
C446 C447 1.392 . S
C447 H423 0.951 . S
C447 C446 1.392 . S
C447 C448 1.392 . S
C448 H424 0.949 . S
C448 C443 1.382 . S
C448 C447 1.392 . S
C449 C450 1.376 . S
C449 C454 1.386 . S
C449 C455 1.483 . S
C450 H425 0.949 . S
C450 C449 1.376 . S
C450 C451 1.397 . S
C451 H426 0.950 . S
C451 C450 1.397 . S
C451 C452 1.391 . S
C452 C451 1.391 . S
C452 C453 1.405 . S
C453 H427 0.950 . S
C453 C452 1.405 . S
C453 C454 1.367 . S
C454 H428 0.950 . S
C454 C449 1.386 . S
C454 C453 1.367 . S
C455 C449 1.483 . S
C455 C456 1.382 . S
C455 C457 1.403 . S
C456 H429 0.950 . S
C456 C442 1.411 1_545 S
C456 C455 1.382 . S
C457 C441 1.411 . S
C457 C455 1.403 . S
C457 C458 1.489 . S
C458 C457 1.489 . S
C458 C459 1.383 . S
C458 C463 1.382 . S
C459 H430 0.950 . S
C459 C458 1.383 . S
C459 C460 1.395 . S
C460 H431 0.950 . S
C460 C459 1.395 . S
C460 C461 1.288 . S
C461 C460 1.288 . S
C461 C462 1.392 . S
C462 H432 0.951 . S
C462 C461 1.392 . S
C462 C463 1.392 . S
C463 H433 0.949 . S
C463 C458 1.382 . S
C463 C462 1.392 . S
H464 C483 0.949 . S
H465 C484 0.950 . S
H466 C486 0.950 . S
H467 C487 0.950 . S
H468 C489 0.950 . S
H469 C492 0.950 . S
H470 C493 0.950 . S
H471 C495 0.951 . S
H472 C496 0.949 . S
H473 C498 0.949 . S
H474 C499 0.950 . S
H475 C501 0.950 . S
H476 C502 0.950 . S
H477 C504 0.950 . S
H478 C507 0.950 . S
H479 C508 0.950 . S
H480 C510 0.951 . S
H481 C511 0.949 . S
C482 C483 1.376 . S
C482 C487 1.386 . S
C482 C488 1.483 . S
C483 H464 0.949 . S
C483 C482 1.376 . S
C483 C484 1.397 . S
C484 H465 0.950 . S
C484 C483 1.397 . S
C484 C485 1.391 . S
C485 C484 1.391 . S
C485 C486 1.405 . S
C486 H466 0.950 . S
C486 C485 1.405 . S
C486 C487 1.367 . S
C487 H467 0.950 . S
C487 C482 1.386 . S
C487 C486 1.367 . S
C488 C482 1.483 . S
C488 C489 1.382 1_556 S
C488 C490 1.403 . S
C489 H468 0.950 . S
C489 C488 1.382 1_554 S
C489 C505 1.411 . S
C490 C488 1.403 . S
C490 C491 1.489 . S
C490 C504 1.411 1_556 S
C491 C490 1.489 . S
C491 C492 1.383 . S
C491 C496 1.382 . S
C492 H469 0.950 . S
C492 C491 1.383 . S
C492 C493 1.395 . S
C493 H470 0.950 . S
C493 C492 1.395 . S
C493 C494 1.288 . S
C494 C493 1.288 . S
C494 C495 1.392 . S
C495 H471 0.951 . S
C495 C494 1.392 . S
C495 C496 1.392 . S
C496 H472 0.949 . S
C496 C491 1.382 . S
C496 C495 1.392 . S
C497 C498 1.376 . S
C497 C502 1.386 . S
C497 C503 1.483 . S
C498 H473 0.949 . S
C498 C497 1.376 . S
C498 C499 1.397 . S
C499 H474 0.950 . S
C499 C498 1.397 . S
C499 C500 1.391 . S
C500 C499 1.391 . S
C500 C501 1.405 . S
C501 H475 0.950 . S
C501 C500 1.405 . S
C501 C502 1.367 . S
C502 H476 0.950 . S
C502 C497 1.386 . S
C502 C501 1.367 . S
C503 C497 1.483 . S
C503 C504 1.382 . S
C503 C505 1.403 . S
C504 H477 0.950 . S
C504 C490 1.411 1_554 S
C504 C503 1.382 . S
C505 C489 1.411 . S
C505 C503 1.403 . S
C505 C506 1.489 . S
C506 C505 1.489 . S
C506 C507 1.383 . S
C506 C511 1.382 . S
C507 H478 0.950 . S
C507 C506 1.383 . S
C507 C508 1.395 . S
C508 H479 0.950 . S
C508 C507 1.395 . S
C508 C509 1.288 . S
C509 C508 1.288 . S
C509 C510 1.392 . S
C510 H480 0.951 . S
C510 C509 1.392 . S
C510 C511 1.392 . S
C511 H481 0.949 . S
C511 C506 1.382 . S
C511 C510 1.392 . S
H512 C531 0.949 . S
H513 C532 0.950 . S
H514 C534 0.950 . S
H515 C535 0.950 . S
H516 C537 0.950 . S
H517 C540 0.950 . S
H518 C541 0.950 . S
H519 C543 0.951 . S
H520 C544 0.949 . S
H521 C546 0.949 . S
H522 C547 0.950 . S
H523 C549 0.950 . S
H524 C550 0.950 . S
H525 C552 0.950 . S
H526 C555 0.950 . S
H527 C556 0.950 . S
H528 C558 0.951 . S
H529 C559 0.949 . S
C530 C531 1.376 . S
C530 C535 1.386 . S
C530 C536 1.483 . S
C531 H512 0.949 . S
C531 C530 1.376 . S
C531 C532 1.397 . S
C532 H513 0.950 . S
C532 C531 1.397 . S
C532 C533 1.391 . S
C533 C532 1.391 . S
C533 C534 1.405 . S
C534 H514 0.950 . S
C534 C533 1.405 . S
C534 C535 1.367 . S
C535 H515 0.950 . S
C535 C530 1.386 . S
C535 C534 1.367 . S
C536 C530 1.483 . S
C536 C537 1.382 1_565 S
C536 C538 1.403 . S
C537 H516 0.950 . S
C537 C536 1.382 1_545 S
C537 C553 1.411 . S
C538 C536 1.403 . S
C538 C539 1.489 . S
C538 C552 1.411 1_565 S
C539 C538 1.489 . S
C539 C540 1.383 . S
C539 C544 1.382 . S
C540 H517 0.950 . S
C540 C539 1.383 . S
C540 C541 1.395 . S
C541 H518 0.950 . S
C541 C540 1.395 . S
C541 C542 1.288 . S
C542 C541 1.288 . S
C542 C543 1.392 . S
C543 H519 0.951 . S
C543 C542 1.392 . S
C543 C544 1.392 . S
C544 H520 0.949 . S
C544 C539 1.382 . S
C544 C543 1.392 . S
C545 C546 1.376 . S
C545 C550 1.386 . S
C545 C551 1.483 . S
C546 H521 0.949 . S
C546 C545 1.376 . S
C546 C547 1.397 . S
C547 H522 0.950 . S
C547 C546 1.397 . S
C547 C548 1.391 . S
C548 C547 1.391 . S
C548 C549 1.405 . S
C549 H523 0.950 . S
C549 C548 1.405 . S
C549 C550 1.367 . S
C550 H524 0.950 . S
C550 C545 1.386 . S
C550 C549 1.367 . S
C551 C545 1.483 . S
C551 C552 1.382 . S
C551 C553 1.403 . S
C552 H525 0.950 . S
C552 C538 1.411 1_545 S
C552 C551 1.382 . S
C553 C537 1.411 . S
C553 C551 1.403 . S
C553 C554 1.489 . S
C554 C553 1.489 . S
C554 C555 1.383 . S
C554 C559 1.382 . S
C555 H526 0.950 . S
C555 C554 1.383 . S
C555 C556 1.395 . S
C556 H527 0.950 . S
C556 C555 1.395 . S
C556 C557 1.288 . S
C557 C556 1.288 . S
C557 C558 1.392 . S
C558 H528 0.951 . S
C558 C557 1.392 . S
C558 C559 1.392 . S
C559 H529 0.949 . S
C559 C554 1.382 . S
C559 C558 1.392 . S
H560 C579 0.949 . S
H561 C580 0.950 . S
H562 C582 0.950 . S
H563 C583 0.950 . S
H564 C585 0.950 . S
H565 C588 0.950 . S
H566 C589 0.950 . S
H567 C591 0.951 . S
H568 C592 0.949 . S
H569 C594 0.949 . S
H570 C595 0.950 . S
H571 C597 0.950 . S
H572 C598 0.950 . S
H573 C600 0.950 . S
H574 C603 0.950 . S
H575 C604 0.950 . S
H576 C606 0.951 . S
H577 C607 0.949 . S
C578 C579 1.376 . S
C578 C583 1.386 . S
C578 C584 1.483 . S
C579 H560 0.949 . S
C579 C578 1.376 . S
C579 C580 1.397 . S
C580 H561 0.950 . S
C580 C579 1.397 . S
C580 C581 1.391 . S
C581 C580 1.391 . S
C581 C582 1.405 . S
C582 H562 0.950 . S
C582 C581 1.405 . S
C582 C583 1.367 . S
C583 H563 0.950 . S
C583 C578 1.386 . S
C583 C582 1.367 . S
C584 C578 1.483 . S
C584 C585 1.382 1_556 S
C584 C586 1.403 . S
C585 H564 0.950 . S
C585 C584 1.382 1_554 S
C585 C601 1.411 . S
C586 C584 1.403 . S
C586 C587 1.489 . S
C586 C600 1.411 1_556 S
C587 C586 1.489 . S
C587 C588 1.383 . S
C587 C592 1.382 . S
C588 H565 0.950 . S
C588 C587 1.383 . S
C588 C589 1.395 . S
C589 H566 0.950 . S
C589 C588 1.395 . S
C589 C590 1.288 . S
C590 C589 1.288 . S
C590 C591 1.392 . S
C591 H567 0.951 . S
C591 C590 1.392 . S
C591 C592 1.392 . S
C592 H568 0.949 . S
C592 C587 1.382 . S
C592 C591 1.392 . S
C593 C594 1.376 . S
C593 C598 1.386 . S
C593 C599 1.483 . S
C594 H569 0.949 . S
C594 C593 1.376 . S
C594 C595 1.397 . S
C595 H570 0.950 . S
C595 C594 1.397 . S
C595 C596 1.391 . S
C596 C595 1.391 . S
C596 C597 1.405 . S
C597 H571 0.950 . S
C597 C596 1.405 . S
C597 C598 1.367 . S
C598 H572 0.950 . S
C598 C593 1.386 . S
C598 C597 1.367 . S
C599 C593 1.483 . S
C599 C600 1.382 . S
C599 C601 1.403 . S
C600 H573 0.950 . S
C600 C586 1.411 1_554 S
C600 C599 1.382 . S
C601 C585 1.411 . S
C601 C599 1.403 . S
C601 C602 1.489 . S
C602 C601 1.489 . S
C602 C603 1.383 . S
C602 C607 1.382 . S
C603 H574 0.950 . S
C603 C602 1.383 . S
C603 C604 1.395 . S
C604 H575 0.950 . S
C604 C603 1.395 . S
C604 C605 1.288 . S
C605 C604 1.288 . S
C605 C606 1.392 . S
C606 H576 0.951 . S
C606 C605 1.392 . S
C606 C607 1.392 . S
C607 H577 0.949 . S
C607 C602 1.382 . S
C607 C606 1.392 . S
C608 C609 1.369 . S
C608 C610 1.419 . S
C608 H612 0.930 . S
C609 C608 1.369 . S
C609 C618 1.429 . S
C610 C608 1.419 . S
C610 C611 1.363 . S
C610 H613 0.929 . S
C611 C610 1.363 . S
C611 C617 1.428 . S
H612 C608 0.930 . S
H613 C610 0.929 . S
S614 N615 1.613 . S
S614 N616 1.610 . S
N615 S614 1.613 . S
N615 C618 1.350 . S
N616 S614 1.610 . S
N616 C617 1.351 . S
C617 C611 1.428 . S
C617 N616 1.351 . S
C617 C618 1.434 . S
C618 C609 1.429 . S
C618 N615 1.350 . S
C618 C617 1.434 . S
C619 C620 1.369 . S
C619 C621 1.419 . S
C619 H623 0.930 . S
C620 C619 1.369 . S
C620 C629 1.429 . S
C621 C619 1.419 . S
C621 C622 1.363 . S
C621 H624 0.929 . S
C622 C621 1.363 . S
C622 C628 1.428 . S
H623 C619 0.930 . S
H624 C621 0.929 . S
S625 N626 1.613 . S
S625 N627 1.610 . S
N626 S625 1.613 . S
N626 C629 1.350 . S
N627 S625 1.610 . S
N627 C628 1.351 . S
C628 C622 1.428 . S
C628 N627 1.351 . S
C628 C629 1.434 . S
C629 C620 1.429 . S
C629 N626 1.350 . S
C629 C628 1.434 . S
C630 C631 1.369 . S
C630 C632 1.419 . S
C630 H634 0.930 . S
C631 C630 1.369 . S
C631 C640 1.429 . S
C632 C630 1.419 . S
C632 C633 1.363 . S
C632 H635 0.929 . S
C633 C632 1.363 . S
C633 C639 1.428 . S
H634 C630 0.930 . S
H635 C632 0.929 . S
S636 N637 1.613 . S
S636 N638 1.610 . S
N637 S636 1.613 . S
N637 C640 1.350 . S
N638 S636 1.610 . S
N638 C639 1.351 . S
C639 C633 1.428 . S
C639 N638 1.351 . S
C639 C640 1.434 . S
C640 C631 1.429 . S
C640 N637 1.350 . S
C640 C639 1.434 . S
C641 C642 1.369 . S
C641 C643 1.419 . S
C641 H645 0.930 . S
C642 C641 1.369 . S
C642 C651 1.429 . S
C643 C641 1.419 . S
C643 C644 1.363 . S
C643 H646 0.929 . S
C644 C643 1.363 . S
C644 C650 1.428 . S
H645 C641 0.930 . S
H646 C643 0.929 . S
S647 N648 1.613 . S
S647 N649 1.610 . S
N648 S647 1.613 . S
N648 C651 1.350 . S
N649 S647 1.610 . S
N649 C650 1.351 . S
C650 C644 1.428 . S
C650 N649 1.351 . S
C650 C651 1.434 . S
C651 C642 1.429 . S
C651 N648 1.350 . S
C651 C650 1.434 . S
C652 C653 1.369 . S
C652 C654 1.419 . S
C652 H656 0.930 . S
C653 C652 1.369 . S
C653 C662 1.429 . S
C654 C652 1.419 . S
C654 C655 1.363 . S
C654 H657 0.929 . S
C655 C654 1.363 . S
C655 C661 1.428 . S
H656 C652 0.930 . S
H657 C654 0.929 . S
S658 N659 1.613 . S
S658 N660 1.610 . S
N659 S658 1.613 . S
N659 C662 1.350 . S
N660 S658 1.610 . S
N660 C661 1.351 . S
C661 C655 1.428 . S
C661 N660 1.351 . S
C661 C662 1.434 . S
C662 C653 1.429 . S
C662 N659 1.350 . S
C662 C661 1.434 . S
C663 C664 1.369 . S
C663 C665 1.419 . S
C663 H667 0.930 . S
C664 C663 1.369 . S
C664 C673 1.429 . S
C665 C663 1.419 . S
C665 C666 1.363 . S
C665 H668 0.929 . S
C666 C665 1.363 . S
C666 C672 1.428 . S
H667 C663 0.930 . S
H668 C665 0.929 . S
S669 N670 1.613 . S
S669 N671 1.610 . S
N670 S669 1.613 . S
N670 C673 1.350 . S
N671 S669 1.610 . S
N671 C672 1.351 . S
C672 C666 1.428 . S
C672 N671 1.351 . S
C672 C673 1.434 . S
C673 C664 1.429 . S
C673 N670 1.350 . S
C673 C672 1.434 . S
C674 C675 1.369 . S
C674 C676 1.419 . S
C674 H678 0.930 . S
C675 C674 1.369 . S
C675 C684 1.429 . S
C676 C674 1.419 . S
C676 C677 1.363 . S
C676 H679 0.929 . S
C677 C676 1.363 . S
C677 C683 1.428 . S
H678 C674 0.930 . S
H679 C676 0.929 . S
S680 N681 1.613 . S
S680 N682 1.610 . S
N681 S680 1.613 . S
N681 C684 1.350 . S
N682 S680 1.610 . S
N682 C683 1.351 . S
C683 C677 1.428 . S
C683 N682 1.351 . S
C683 C684 1.434 . S
C684 C675 1.429 . S
C684 N681 1.350 . S
C684 C683 1.434 . S
C685 C686 1.369 . S
C685 C687 1.419 . S
C685 H689 0.930 . S
C686 C685 1.369 . S
C686 C695 1.429 . S
C687 C685 1.419 . S
C687 C688 1.363 . S
C687 H690 0.929 . S
C688 C687 1.363 . S
C688 C694 1.428 . S
H689 C685 0.930 . S
H690 C687 0.929 . S
S691 N692 1.613 . S
S691 N693 1.610 . S
N692 S691 1.613 . S
N692 C695 1.350 . S
N693 S691 1.610 . S
N693 C694 1.351 . S
C694 C688 1.428 . S
C694 N693 1.351 . S
C694 C695 1.434 . S
C695 C686 1.429 . S
C695 N692 1.350 . S
C695 C694 1.434 . S
C696 C697 1.369 . S
C696 C698 1.419 . S
C696 H700 0.930 . S
C697 C696 1.369 . S
C697 C706 1.429 . S
C698 C696 1.419 . S
C698 C699 1.363 . S
C698 H701 0.929 . S
C699 C698 1.363 . S
C699 C705 1.428 . S
H700 C696 0.930 . S
H701 C698 0.929 . S
S702 N703 1.613 . S
S702 N704 1.610 . S
N703 S702 1.613 . S
N703 C706 1.350 . S
N704 S702 1.610 . S
N704 C705 1.351 . S
C705 C699 1.428 . S
C705 N704 1.351 . S
C705 C706 1.434 . S
C706 C697 1.429 . S
C706 N703 1.350 . S
C706 C705 1.434 . S
C707 C708 1.369 . S
C707 C709 1.419 . S
C707 H711 0.930 . S
C708 C707 1.369 . S
C708 C717 1.429 . S
C709 C707 1.419 . S
C709 C710 1.363 . S
C709 H712 0.929 . S
C710 C709 1.363 . S
C710 C716 1.428 . S
H711 C707 0.930 . S
H712 C709 0.929 . S
S713 N714 1.613 . S
S713 N715 1.610 . S
N714 S713 1.613 . S
N714 C717 1.350 . S
N715 S713 1.610 . S
N715 C716 1.351 . S
C716 C710 1.428 . S
C716 N715 1.351 . S
C716 C717 1.434 . S
C717 C708 1.429 . S
C717 N714 1.350 . S
C717 C716 1.434 . S
C718 C719 1.369 . S
C718 C720 1.419 . S
C718 H722 0.930 . S
C719 C718 1.369 . S
C719 C728 1.429 . S
C720 C718 1.419 . S
C720 C721 1.363 . S
C720 H723 0.929 . S
C721 C720 1.363 . S
C721 C727 1.428 . S
H722 C718 0.930 . S
H723 C720 0.929 . S
S724 N725 1.613 . S
S724 N726 1.610 . S
N725 S724 1.613 . S
N725 C728 1.350 . S
N726 S724 1.610 . S
N726 C727 1.351 . S
C727 C721 1.428 . S
C727 N726 1.351 . S
C727 C728 1.434 . S
C728 C719 1.429 . S
C728 N725 1.350 . S
C728 C727 1.434 . S
C729 C730 1.369 . S
C729 C731 1.419 . S
C729 H733 0.930 . S
C730 C729 1.369 . S
C730 C739 1.429 . S
C731 C729 1.419 . S
C731 C732 1.363 . S
C731 H734 0.929 . S
C732 C731 1.363 . S
C732 C738 1.428 . S
H733 C729 0.930 . S
H734 C731 0.929 . S
S735 N736 1.613 . S
S735 N737 1.610 . S
N736 S735 1.613 . S
N736 C739 1.350 . S
N737 S735 1.610 . S
N737 C738 1.351 . S
C738 C732 1.428 . S
C738 N737 1.351 . S
C738 C739 1.434 . S
C739 C730 1.429 . S
C739 N736 1.350 . S
C739 C738 1.434 . S
C740 C741 1.369 . S
C740 C742 1.419 . S
C740 H744 0.930 . S
C741 C740 1.369 . S
C741 C750 1.429 . S
C742 C740 1.419 . S
C742 C743 1.363 . S
C742 H745 0.929 . S
C743 C742 1.363 . S
C743 C749 1.428 . S
H744 C740 0.930 . S
H745 C742 0.929 . S
S746 N747 1.613 . S
S746 N748 1.610 . S
N747 S746 1.613 . S
N747 C750 1.350 . S
N748 S746 1.610 . S
N748 C749 1.351 . S
C749 C743 1.428 . S
C749 N748 1.351 . S
C749 C750 1.434 . S
C750 C741 1.429 . S
C750 N747 1.350 . S
C750 C749 1.434 . S
C751 C752 1.369 . S
C751 C753 1.419 . S
C751 H755 0.930 . S
C752 C751 1.369 . S
C752 C761 1.429 . S
C753 C751 1.419 . S
C753 C754 1.363 . S
C753 H756 0.929 . S
C754 C753 1.363 . S
C754 C760 1.428 . S
H755 C751 0.930 . S
H756 C753 0.929 . S
S757 N758 1.613 . S
S757 N759 1.610 . S
N758 S757 1.613 . S
N758 C761 1.350 . S
N759 S757 1.610 . S
N759 C760 1.351 . S
C760 C754 1.428 . S
C760 N759 1.351 . S
C760 C761 1.434 . S
C761 C752 1.429 . S
C761 N758 1.350 . S
C761 C760 1.434 . S
C762 C763 1.369 . S
C762 C764 1.419 . S
C762 H766 0.930 . S
C763 C762 1.369 . S
C763 C772 1.429 . S
C764 C762 1.419 . S
C764 C765 1.363 . S
C764 H767 0.929 . S
C765 C764 1.363 . S
C765 C771 1.428 . S
H766 C762 0.930 . S
H767 C764 0.929 . S
S768 N769 1.613 . S
S768 N770 1.610 . S
N769 S768 1.613 . S
N769 C772 1.350 . S
N770 S768 1.610 . S
N770 C771 1.351 . S
C771 C765 1.428 . S
C771 N770 1.351 . S
C771 C772 1.434 . S
C772 C763 1.429 . S
C772 N769 1.350 . S
C772 C771 1.434 . S
C773 C774 1.369 . S
C773 C775 1.419 . S
C773 H777 0.930 . S
C774 C773 1.369 . S
C774 C783 1.429 . S
C775 C773 1.419 . S
C775 C776 1.363 . S
C775 H778 0.929 . S
C776 C775 1.363 . S
C776 C782 1.428 . S
H777 C773 0.930 . S
H778 C775 0.929 . S
S779 N780 1.613 . S
S779 N781 1.610 . S
N780 S779 1.613 . S
N780 C783 1.350 . S
N781 S779 1.610 . S
N781 C782 1.351 . S
C782 C776 1.428 . S
C782 N781 1.351 . S
C782 C783 1.434 . S
C783 C774 1.429 . S
C783 N780 1.350 . S
C783 C782 1.434 . S
C784 C785 1.369 . S
C784 C786 1.419 . S
C784 H788 0.930 . S
C785 C784 1.369 . S
C785 C794 1.429 . S
C786 C784 1.419 . S
C786 C787 1.363 . S
C786 H789 0.929 . S
C787 C786 1.363 . S
C787 C793 1.428 . S
H788 C784 0.930 . S
H789 C786 0.929 . S
S790 N791 1.613 . S
S790 N792 1.610 . S
N791 S790 1.613 . S
N791 C794 1.350 . S
N792 S790 1.610 . S
N792 C793 1.351 . S
C793 C787 1.428 . S
C793 N792 1.351 . S
C793 C794 1.434 . S
C794 C785 1.429 . S
C794 N791 1.350 . S
C794 C793 1.434 . S
C795 C796 1.369 . S
C795 C797 1.419 . S
C795 H799 0.930 . S
C796 C795 1.369 . S
C796 C805 1.429 . S
C797 C795 1.419 . S
C797 C798 1.363 . S
C797 H800 0.929 . S
C798 C797 1.363 . S
C798 C804 1.428 . S
H799 C795 0.930 . S
H800 C797 0.929 . S
S801 N802 1.613 . S
S801 N803 1.610 . S
N802 S801 1.613 . S
N802 C805 1.350 . S
N803 S801 1.610 . S
N803 C804 1.351 . S
C804 C798 1.428 . S
C804 N803 1.351 . S
C804 C805 1.434 . S
C805 C796 1.429 . S
C805 N802 1.350 . S
C805 C804 1.434 . S
C806 C807 1.369 . S
C806 C808 1.419 . S
C806 H810 0.930 . S
C807 C806 1.369 . S
C807 C816 1.429 . S
C808 C806 1.419 . S
C808 C809 1.363 . S
C808 H811 0.929 . S
C809 C808 1.363 . S
C809 C815 1.428 . S
H810 C806 0.930 . S
H811 C808 0.929 . S
S812 N813 1.613 . S
S812 N814 1.610 . S
N813 S812 1.613 . S
N813 C816 1.350 . S
N814 S812 1.610 . S
N814 C815 1.351 . S
C815 C809 1.428 . S
C815 N814 1.351 . S
C815 C816 1.434 . S
C816 C807 1.429 . S
C816 N813 1.350 . S
C816 C815 1.434 . S
C817 C818 1.369 . S
C817 C819 1.419 . S
C817 H821 0.930 . S
C818 C817 1.369 . S
C818 C827 1.429 . S
C819 C817 1.419 . S
C819 C820 1.363 . S
C819 H822 0.929 . S
C820 C819 1.363 . S
C820 C826 1.428 . S
H821 C817 0.930 . S
H822 C819 0.929 . S
S823 N824 1.613 . S
S823 N825 1.610 . S
N824 S823 1.613 . S
N824 C827 1.350 . S
N825 S823 1.610 . S
N825 C826 1.351 . S
C826 C820 1.428 . S
C826 N825 1.351 . S
C826 C827 1.434 . S
C827 C818 1.429 . S
C827 N824 1.350 . S
C827 C826 1.434 . S
C828 C829 1.369 . S
C828 C830 1.419 . S
C828 H832 0.930 . S
C829 C828 1.369 . S
C829 C838 1.429 . S
C830 C828 1.419 . S
C830 C831 1.363 . S
C830 H833 0.929 . S
C831 C830 1.363 . S
C831 C837 1.428 . S
H832 C828 0.930 . S
H833 C830 0.929 . S
S834 N835 1.613 . S
S834 N836 1.610 . S
N835 S834 1.613 . S
N835 C838 1.350 . S
N836 S834 1.610 . S
N836 C837 1.351 . S
C837 C831 1.428 . S
C837 N836 1.351 . S
C837 C838 1.434 . S
C838 C829 1.429 . S
C838 N835 1.350 . S
C838 C837 1.434 . S
C839 C840 1.369 . S
C839 C841 1.419 . S
C839 H843 0.930 . S
C840 C839 1.369 . S
C840 C849 1.429 . S
C841 C839 1.419 . S
C841 C842 1.363 . S
C841 H844 0.929 . S
C842 C841 1.363 . S
C842 C848 1.428 . S
H843 C839 0.930 . S
H844 C841 0.929 . S
S845 N846 1.613 . S
S845 N847 1.610 . S
N846 S845 1.613 . S
N846 C849 1.350 . S
N847 S845 1.610 . S
N847 C848 1.351 . S
C848 C842 1.428 . S
C848 N847 1.351 . S
C848 C849 1.434 . S
C849 C840 1.429 . S
C849 N846 1.350 . S
C849 C848 1.434 . S
C850 C851 1.369 . S
C850 C852 1.419 . S
C850 H854 0.930 . S
C851 C850 1.369 . S
C851 C860 1.429 . S
C852 C850 1.419 . S
C852 C853 1.363 . S
C852 H855 0.929 . S
C853 C852 1.363 . S
C853 C859 1.428 . S
H854 C850 0.930 . S
H855 C852 0.929 . S
S856 N857 1.613 . S
S856 N858 1.610 . S
N857 S856 1.613 . S
N857 C860 1.350 . S
N858 S856 1.610 . S
N858 C859 1.351 . S
C859 C853 1.428 . S
C859 N858 1.351 . S
C859 C860 1.434 . S
C860 C851 1.429 . S
C860 N857 1.350 . S
C860 C859 1.434 . S
C861 C862 1.369 . S
C861 C863 1.419 . S
C861 H865 0.930 . S
C862 C861 1.369 . S
C862 C871 1.429 . S
C863 C861 1.419 . S
C863 C864 1.363 . S
C863 H866 0.929 . S
C864 C863 1.363 . S
C864 C870 1.428 . S
H865 C861 0.930 . S
H866 C863 0.929 . S
S867 N868 1.613 . S
S867 N869 1.610 . S
N868 S867 1.613 . S
N868 C871 1.350 . S
N869 S867 1.610 . S
N869 C870 1.351 . S
C870 C864 1.428 . S
C870 N869 1.351 . S
C870 C871 1.434 . S
C871 C862 1.429 . S
C871 N868 1.350 . S
C871 C870 1.434 . S
C611 C350 1.580 . S
C609 C15 1.582 . S
C622 C389 1.597 . S
C620 C55 1.607 . S
C633 C365 1.587 . S
C631 C101 1.604 . S
C644 C404 1.627 . S
C642 C141 1.641 . S
C655 C452 1.554 . S
C653 C2 1.533 . S
C666 C485 1.540 . S
C664 C61 1.515 . S
C675 C95 1.691 . S
C677 C542 1.707 . S
C688 C590 1.543 . S
C686 C135 1.536 . S
C699 C437 1.563 . S
C697 C42 1.527 . S
C708 C82 1.521 . S
C710 C500 1.551 . S
C721 C557 1.644 . S
C719 C122 1.716 . S
C732 C605 1.534 . S
C730 C21 1.517 . S
C741 C162 1.643 . S
C743 C398 1.602 . S
C754 C341 1.599 . S
C752 C221 1.613 . S
C763 C255 1.607 . S
C765 C413 1.603 . S
C774 C282 1.560 . S
C776 C356 1.576 . S
C787 C533 1.676 . S
C785 C181 1.729 . S
C798 C596 1.552 . S
C796 C202 1.553 . S
C809 C461 1.581 . S
C807 C242 1.573 . S
C818 C301 1.518 . S
C820 C509 1.553 . S
C831 C548 1.687 . S
C829 C215 1.698 . S
C842 C581 1.537 . S
C840 C261 1.550 . S
C853 C446 1.538 . S
C851 C295 1.562 . S
C862 C175 1.543 . S
C864 C494 1.527 . S
