# Generated by pormake.
# Topology pto, (3,4)-cn, num edge types: 1
# Building blocks:
#     Node 0, Type 0, BuildingBlock: KAKCAD_clean_linker_0, # of connection points: 3
#     Node 1, Type 0, BuildingBlock: KAKCAD_clean_linker_0, # of connection points: 3
#     Node 2, Type 0, BuildingBlock: KAKCAD_clean_linker_0, # of connection points: 3
#     Node 3, Type 0, BuildingBlock: KAKCAD_clean_linker_0, # of connection points: 3
#     Node 4, Type 0, BuildingBlock: KAKCAD_clean_linker_0, # of connection points: 3
#     Node 5, Type 0, BuildingBlock: KAKCAD_clean_linker_0, # of connection points: 3
#     Node 6, Type 0, BuildingBlock: KAKCAD_clean_linker_0, # of connection points: 3
#     Node 7, Type 0, BuildingBlock: KAKCAD_clean_linker_0, # of connection points: 3
#     Node 8, Type 1, BuildingBlock: KOZSID_clean_sbu_0, # of connection points: 4
#     Node 9, Type 1, BuildingBlock: KOZSID_clean_sbu_0, # of connection points: 4
#     Node 10, Type 1, BuildingBlock: KOZSID_clean_sbu_0, # of connection points: 4
#     Node 11, Type 1, BuildingBlock: KOZSID_clean_sbu_0, # of connection points: 4
#     Node 12, Type 1, BuildingBlock: KOZSID_clean_sbu_0, # of connection points: 4
#     Node 13, Type 1, BuildingBlock: KOZSID_clean_sbu_0, # of connection points: 4
#     Edge 14, Type (0, 1), None
#     Edge 15, Type (0, 1), None
#     Edge 16, Type (0, 1), None
#     Edge 17, Type (0, 1), None
#     Edge 18, Type (0, 1), None
#     Edge 19, Type (0, 1), None
#     Edge 20, Type (0, 1), None
#     Edge 21, Type (0, 1), None
#     Edge 22, Type (0, 1), None
#     Edge 23, Type (0, 1), None
#     Edge 24, Type (0, 1), None
#     Edge 25, Type (0, 1), None
#     Edge 26, Type (0, 1), None
#     Edge 27, Type (0, 1), None
#     Edge 28, Type (0, 1), None
#     Edge 29, Type (0, 1), None
#     Edge 30, Type (0, 1), None
#     Edge 31, Type (0, 1), None
#     Edge 32, Type (0, 1), None
#     Edge 33, Type (0, 1), None
#     Edge 34, Type (0, 1), None
#     Edge 35, Type (0, 1), None
#     Edge 36, Type (0, 1), None
#     Edge 37, Type (0, 1), None
# Relax obj value: 0.000
# Max RMSD: 0.039
# Mean RMSD: 0.017
data_MOF--net-pto--node1-KOZSID_clean_sbu_0--node2-KAKCAD_clean_linker_0--edge1-none
_symmetry_space_group_name_H-M    P1
_symmetry_Int_Tables_number       1
_symmetry_cell_setting            triclinic
loop_
_symmetry_equiv_pos_as_xyz
'x, y, z'
_cell_length_a     27.079074
_cell_length_b     36.282243
_cell_length_c     31.766595
_cell_angle_alpha  86.541568
_cell_angle_beta   86.346291
_cell_angle_gamma 94.768168
loop_
_atom_site_label
_atom_site_type_symbol
_atom_site_fract_x
_atom_site_fract_y
_atom_site_fract_z
_atom_type_partial_charge
C0 C 0.25734 0.16363 0.4419 0.0
C1 C 0.25204 0.12863 0.42542 0.0
C2 C 0.26091 0.19583 0.41488 0.0
C3 C 0.2595 0.19344 0.37092 0.0
C4 C 0.25334 0.15817 0.35476 0.0
C5 C 0.24965 0.12607 0.38179 0.0
C6 C 0.26621 0.22736 0.34166 0.0
C7 C 0.29762 0.22794 0.30465 0.0
C8 C 0.30385 0.25918 0.27601 0.0
C9 C 0.27801 0.29015 0.28452 0.0
C10 C 0.24713 0.29073 0.32184 0.0
C11 C 0.24161 0.25906 0.35035 0.0
C12 C 0.22042 0.32427 0.33029 0.0
C13 C 0.24251 0.36004 0.31723 0.0
C14 C 0.17201 0.32093 0.35001 0.0
C15 C 0.14617 0.35234 0.35562 0.0
C16 C 0.16778 0.38769 0.34103 0.0
C17 C 0.33797 0.25964 0.23745 0.0
C18 C 0.38547 0.24698 0.23996 0.0
C19 C 0.32364 0.27316 0.19803 0.0
C20 C 0.35626 0.2742 0.16196 0.0
C21 C 0.40383 0.26205 0.16481 0.0
C22 C 0.41814 0.24825 0.20394 0.0
C23 C 0.21628 0.39128 0.32207 0.0
H24 H 0.25933 0.16597 0.47561 0.0
H25 H 0.26606 0.22252 0.42826 0.0
H26 H 0.25144 0.15539 0.32113 0.0
H27 H 0.24543 0.09921 0.36865 0.0
H28 H 0.31735 0.20391 0.29805 0.0
H29 H 0.21804 0.2589 0.37922 0.0
H30 H 0.28227 0.31395 0.26191 0.0
H31 H 0.28014 0.36403 0.30302 0.0
H32 H 0.15336 0.29398 0.36001 0.0
H33 H 0.1086 0.34887 0.37007 0.0
H34 H 0.39773 0.23677 0.26995 0.0
H35 H 0.28708 0.28268 0.19504 0.0
H36 H 0.23395 0.41832 0.31102 0.0
H37 H 0.4548 0.2388 0.20665 0.0
H38 H 0.34458 0.28472 0.13188 0.0
C39 C 0.36073 0.81812 0.87416 0.0
C40 C 0.39157 0.78924 0.88086 0.0
C41 C 0.32894 0.81778 0.8411 0.0
C42 C 0.327 0.78844 0.81414 0.0
C43 C 0.35834 0.75992 0.82035 0.0
C44 C 0.39036 0.76038 0.85315 0.0
C45 C 0.29168 0.78711 0.78019 0.0
C46 C 0.28624 0.81883 0.75394 0.0
C47 C 0.25281 0.81781 0.72178 0.0
C48 C 0.2245 0.78425 0.71622 0.0
C49 C 0.22941 0.75212 0.74232 0.0
C50 C 0.26312 0.75399 0.77417 0.0
C51 C 0.19888 0.71667 0.73729 0.0
C52 C 0.14813 0.71648 0.72993 0.0
C53 C 0.21987 0.6825 0.74173 0.0
C54 C 0.19063 0.64905 0.74003 0.0
C55 C 0.13991 0.64907 0.73373 0.0
C56 C 0.24836 0.85175 0.69382 0.0
C57 C 0.24921 0.88685 0.71063 0.0
C58 C 0.24492 0.8496 0.64998 0.0
C59 C 0.24332 0.88177 0.6236 0.0
C60 C 0.24512 0.91661 0.64055 0.0
C61 C 0.24767 0.91896 0.68422 0.0
C62 C 0.11893 0.68294 0.72817 0.0
H63 H 0.36011 0.84054 0.89515 0.0
H64 H 0.30489 0.83999 0.83733 0.0
H65 H 0.35827 0.73725 0.79965 0.0
H66 H 0.4143 0.73809 0.85669 0.0
H67 H 0.30917 0.84416 0.75789 0.0
H68 H 0.2662 0.7298 0.79526 0.0
H69 H 0.1986 0.78315 0.69162 0.0
H70 H 0.13062 0.74217 0.7268 0.0
H71 H 0.25895 0.68159 0.74674 0.0
H72 H 0.20743 0.62311 0.74414 0.0
H73 H 0.25109 0.88953 0.74427 0.0
H74 H 0.24475 0.82315 0.63588 0.0
H75 H 0.07975 0.68338 0.72327 0.0
H76 H 0.24886 0.94568 0.69779 0.0
H77 H 0.24142 0.87955 0.58987 0.0
C78 C 0.65303 0.75127 0.22288 0.0
C79 C 0.6545 0.78272 0.19447 0.0
C80 C 0.68475 0.75036 0.25588 0.0
C81 C 0.71832 0.781 0.26155 0.0
C82 C 0.71941 0.81265 0.23364 0.0
C83 C 0.68803 0.81345 0.20038 0.0
C84 C 0.75246 0.77983 0.29626 0.0
C85 C 0.77922 0.74888 0.30352 0.0
C86 C 0.81163 0.74718 0.33638 0.0
C87 C 0.81757 0.77773 0.36165 0.0
C88 C 0.79142 0.80934 0.35448 0.0
C89 C 0.75856 0.80974 0.32191 0.0
C90 C 0.79773 0.84198 0.38082 0.0
C91 C 0.80435 0.83738 0.42441 0.0
C92 C 0.79567 0.87821 0.36263 0.0
C93 C 0.79839 0.90872 0.38748 0.0
C94 C 0.80434 0.90384 0.43085 0.0
C95 C 0.83964 0.71371 0.34329 0.0
C96 C 0.81806 0.67822 0.33564 0.0
C97 C 0.88866 0.71689 0.35596 0.0
C98 C 0.91554 0.68564 0.35993 0.0
C99 C 0.89437 0.65067 0.35062 0.0
C100 C 0.8453 0.64721 0.33874 0.0
C101 C 0.80795 0.86808 0.44911 0.0
H102 H 0.62707 0.72737 0.2199 0.0
H103 H 0.68265 0.72579 0.27728 0.0
H104 H 0.74532 0.83652 0.237 0.0
H105 H 0.69086 0.8379 0.17878 0.0
H106 H 0.77562 0.72646 0.28258 0.0
H107 H 0.73667 0.83309 0.3169 0.0
H108 H 0.84265 0.77697 0.38682 0.0
H109 H 0.80546 0.81003 0.43975 0.0
H110 H 0.79187 0.88313 0.32909 0.0
H111 H 0.79588 0.93619 0.37282 0.0
H112 H 0.78005 0.67429 0.327 0.0
H113 H 0.90695 0.74363 0.36159 0.0
H114 H 0.81233 0.86383 0.48268 0.0
H115 H 0.82797 0.62044 0.33189 0.0
H116 H 0.95352 0.68901 0.36889 0.0
C117 C 0.84394 0.18925 0.6719 0.0
C118 C 0.80334 0.16265 0.67127 0.0
C119 C 0.8413 0.2191 0.69761 0.0
C120 C 0.79751 0.22349 0.72253 0.0
C121 C 0.7568 0.19671 0.72144 0.0
C122 C 0.75994 0.16643 0.69649 0.0
C123 C 0.79413 0.25565 0.74959 0.0
C124 C 0.81933 0.29061 0.73696 0.0
C125 C 0.81555 0.32084 0.76238 0.0
C126 C 0.78621 0.31596 0.80068 0.0
C127 C 0.76073 0.28157 0.8137 0.0
C128 C 0.76516 0.25157 0.78828 0.0
C129 C 0.72855 0.27727 0.8535 0.0
C130 C 0.74595 0.29054 0.89101 0.0
C131 C 0.6796 0.26094 0.85385 0.0
C132 C 0.64822 0.25881 0.89073 0.0
C133 C 0.66545 0.27262 0.92792 0.0
C134 C 0.84267 0.35758 0.7498 0.0
C135 C 0.89339 0.3604 0.73623 0.0
C136 C 0.81887 0.39027 0.75446 0.0
C137 C 0.8457 0.42495 0.74779 0.0
C138 C 0.89682 0.42755 0.73658 0.0
C139 C 0.9203 0.39517 0.7298 0.0
C140 C 0.71474 0.28793 0.92803 0.0
H141 H 0.87784 0.18678 0.65264 0.0
H142 H 0.87379 0.23854 0.69808 0.0
H143 H 0.72197 0.19938 0.7392 0.0
H144 H 0.7279 0.14652 0.69594 0.0
H145 H 0.84091 0.29474 0.70691 0.0
H146 H 0.74658 0.22483 0.79933 0.0
H147 H 0.78307 0.33907 0.8205 0.0
H148 H 0.78368 0.30291 0.89165 0.0
H149 H 0.66519 0.25073 0.82529 0.0
H150 H 0.61027 0.24686 0.89014 0.0
H151 H 0.91275 0.33572 0.73257 0.0
H152 H 0.77969 0.38898 0.7643 0.0
H153 H 0.72874 0.29839 0.95661 0.0
H154 H 0.95982 0.39675 0.72119 0.0
H155 H 0.82702 0.44972 0.75299 0.0
C156 C 0.78291 0.88738 0.62635 0.0
C157 C 0.78556 0.92215 0.64347 0.0
C158 C 0.77553 0.85488 0.65303 0.0
C159 C 0.77036 0.85675 0.69723 0.0
C160 C 0.7735 0.89184 0.71404 0.0
C161 C 0.78099 0.92417 0.68744 0.0
C162 C 0.76219 0.82252 0.72607 0.0
C163 C 0.78978 0.79192 0.71935 0.0
C164 C 0.78561 0.76127 0.74896 0.0
C165 C 0.75275 0.76097 0.78511 0.0
C166 C 0.72393 0.79084 0.79201 0.0
C167 C 0.72871 0.82131 0.76202 0.0
C168 C 0.69168 0.79122 0.83193 0.0
C169 C 0.66435 0.7589 0.84983 0.0
C170 C 0.68847 0.8239 0.85297 0.0
C171 C 0.66229 0.82356 0.89241 0.0
C172 C 0.64071 0.79014 0.91372 0.0
C173 C 0.81824 0.73068 0.7441 0.0
C174 C 0.8188 0.71039 0.70781 0.0
C175 C 0.84879 0.7214 0.77642 0.0
C176 C 0.87881 0.6921 0.77294 0.0
C177 C 0.87828 0.67058 0.73744 0.0
C178 C 0.84818 0.68043 0.70465 0.0
C179 C 0.63827 0.75865 0.88941 0.0
H180 H 0.78622 0.88541 0.59241 0.0
H181 H 0.77308 0.82834 0.63907 0.0
H182 H 0.77064 0.89434 0.7479 0.0
H183 H 0.78305 0.95085 0.70112 0.0
H184 H 0.81647 0.79274 0.69231 0.0
H185 H 0.70636 0.84433 0.76668 0.0
H186 H 0.75067 0.73773 0.80845 0.0
H187 H 0.66303 0.73367 0.83321 0.0
H188 H 0.70721 0.84989 0.83954 0.0
H189 H 0.65938 0.85013 0.90485 0.0
H190 H 0.7955 0.71708 0.68244 0.0
H191 H 0.8497 0.73706 0.80439 0.0
H192 H 0.61596 0.73346 0.90015 0.0
H193 H 0.8463 0.66453 0.67695 0.0
H194 H 0.90257 0.68649 0.79828 0.0
C195 C 0.66891 0.244 0.23111 0.0
C196 C 0.68185 0.26597 0.1934 0.0
C197 C 0.70084 0.2439 0.26404 0.0
C198 C 0.74659 0.26564 0.25999 0.0
C199 C 0.75965 0.28737 0.22211 0.0
C200 C 0.72763 0.28761 0.18929 0.0
C201 C 0.78039 0.26603 0.29524 0.0
C202 C 0.78755 0.23315 0.31897 0.0
C203 C 0.81952 0.23331 0.35225 0.0
C204 C 0.84468 0.26718 0.36148 0.0
C205 C 0.83747 0.30045 0.33846 0.0
C206 C 0.80536 0.29947 0.30541 0.0
C207 C 0.86373 0.33637 0.34813 0.0
C208 C 0.91482 0.33909 0.35455 0.0
C209 C 0.83843 0.36875 0.34839 0.0
C210 C 0.864 0.40321 0.35299 0.0
C211 C 0.91527 0.40594 0.35749 0.0
C212 C 0.82473 0.19837 0.37835 0.0
C213 C 0.82511 0.16398 0.35986 0.0
C214 C 0.82673 0.19887 0.42247 0.0
C215 C 0.82761 0.16593 0.44745 0.0
C216 C 0.82633 0.13171 0.429 0.0
C217 C 0.82565 0.13094 0.38502 0.0
C218 C 0.9404 0.37366 0.35903 0.0
H219 H 0.63361 0.2274 0.2355 0.0
H220 H 0.68921 0.22729 0.293 0.0
H221 H 0.79495 0.30396 0.21759 0.0
H222 H 0.73905 0.3044 0.16041 0.0
H223 H 0.76781 0.20738 0.31166 0.0
H224 H 0.7998 0.32497 0.28746 0.0
H225 H 0.86959 0.26778 0.38685 0.0
H226 H 0.93544 0.31477 0.3542 0.0
H227 H 0.79897 0.36753 0.34415 0.0
H228 H 0.84413 0.42792 0.35155 0.0
H229 H 0.82436 0.16253 0.32596 0.0
H230 H 0.8257 0.22458 0.43799 0.0
H231 H 0.98014 0.37539 0.36211 0.0
H232 H 0.82442 0.10475 0.37028 0.0
H233 H 0.82761 0.16707 0.48143 0.0
C234 C 0.34942 0.28978 0.90092 0.0
C235 C 0.3928 0.27112 0.89819 0.0
C236 C 0.31866 0.29097 0.86726 0.0
C237 C 0.33077 0.27387 0.82978 0.0
C238 C 0.37423 0.25514 0.82714 0.0
C239 C 0.40476 0.25365 0.86103 0.0
C240 C 0.29798 0.27563 0.7938 0.0
C241 C 0.2749 0.30794 0.78404 0.0
C242 C 0.24009 0.3094 0.75291 0.0
C243 C 0.23289 0.27849 0.72814 0.0
C244 C 0.25846 0.24649 0.73544 0.0
C245 C 0.28911 0.24503 0.7696 0.0
C246 C 0.25461 0.21467 0.70741 0.0
C247 C 0.21055 0.20413 0.68824 0.0
C248 C 0.29595 0.19432 0.69964 0.0
C249 C 0.29324 0.16416 0.6744 0.0
C250 C 0.24959 0.1538 0.65468 0.0
C251 C 0.21105 0.34291 0.74781 0.0
C252 C 0.20292 0.36494 0.78222 0.0
C253 C 0.19082 0.35336 0.70948 0.0
C254 C 0.16294 0.38432 0.70613 0.0
C255 C 0.1556 0.40653 0.74062 0.0
C256 C 0.17727 0.39656 0.77832 0.0
C257 C 0.20817 0.17425 0.66205 0.0
H258 H 0.33886 0.30305 0.92938 0.0
H259 H 0.285 0.30497 0.87086 0.0
H260 H 0.38515 0.2421 0.79863 0.0
H261 H 0.43827 0.23941 0.85784 0.0
H262 H 0.28462 0.33217 0.80099 0.0
H263 H 0.30584 0.21971 0.77781 0.0
H264 H 0.20766 0.27923 0.70316 0.0
H265 H 0.17766 0.21868 0.69365 0.0
H266 H 0.33104 0.20177 0.71279 0.0
H267 H 0.32575 0.14891 0.67063 0.0
H268 H 0.21576 0.35787 0.81297 0.0
H269 H 0.19636 0.33785 0.68181 0.0
H270 H 0.17396 0.16758 0.64719 0.0
H271 H 0.17471 0.41298 0.80551 0.0
H272 H 0.14673 0.39034 0.67651 0.0
C273 C 0.2356 0.89591 0.36813 0.0
C274 C 0.24838 0.89186 0.41025 0.0
C275 C 0.23887 0.86655 0.34161 0.0
C276 C 0.2538 0.83238 0.35706 0.0
C277 C 0.26553 0.82814 0.39943 0.0
C278 C 0.26337 0.8577 0.42561 0.0
C279 C 0.25775 0.80121 0.32913 0.0
C280 C 0.28709 0.80614 0.29069 0.0
C281 C 0.2929 0.77616 0.26542 0.0
C282 C 0.26833 0.74135 0.27811 0.0
C283 C 0.23805 0.73598 0.31601 0.0
C284 C 0.23338 0.76608 0.34154 0.0
C285 C 0.21046 0.6992 0.32803 0.0
C286 C 0.23306 0.66622 0.32158 0.0
C287 C 0.16038 0.69671 0.34369 0.0
C288 C 0.13306 0.66217 0.35092 0.0
C289 C 0.15532 0.62957 0.34276 0.0
C290 C 0.32585 0.78046 0.22622 0.0
C291 C 0.30829 0.79348 0.18794 0.0
C292 C 0.37421 0.76932 0.22657 0.0
C293 C 0.40469 0.77116 0.18912 0.0
C294 C 0.38714 0.78391 0.1507 0.0
C295 C 0.33868 0.79501 0.15035 0.0
C296 C 0.20571 0.63173 0.32887 0.0
H297 H 0.22421 0.92204 0.35551 0.0
H298 H 0.22946 0.87044 0.3091 0.0
H299 H 0.27735 0.80215 0.41206 0.0
H300 H 0.27332 0.85388 0.45799 0.0
H301 H 0.30652 0.83295 0.28105 0.0
H302 H 0.2108 0.76223 0.37115 0.0
H303 H 0.27227 0.71859 0.2579 0.0
H304 H 0.27173 0.66709 0.31018 0.0
H305 H 0.1417 0.72151 0.34864 0.0
H306 H 0.09404 0.66096 0.36138 0.0
H307 H 0.27084 0.80178 0.18704 0.0
H308 H 0.38818 0.75887 0.25578 0.0
H309 H 0.22342 0.60679 0.32238 0.0
H310 H 0.32427 0.80454 0.12095 0.0
H311 H 0.44188 0.76232 0.19002 0.0
C312 C 0.10897 0.57385 0.38539 0.0
C313 C 0.12774 0.58374 0.42314 0.0
C314 C 0.10199 0.56116 0.45447 0.0
C315 C 0.06931 0.5387 0.43412 0.0
N316 N 0.07295 0.54538 0.39165 0.0
Co317 Co 0.03206 0.51938 0.35004 0.0
N318 N 0.99013 0.48946 0.39637 0.0
C319 C 0.99163 0.49311 0.43837 0.0
C320 C 0.95903 0.46814 0.46246 0.0
C321 C 0.93583 0.44699 0.43415 0.0
C322 C 0.95586 0.46026 0.39432 0.0
N323 N 0.99322 0.49176 0.30833 0.0
C324 C 0.96005 0.46152 0.31465 0.0
C325 C 0.94497 0.44883 0.27672 0.0
C326 C 0.97013 0.47148 0.24527 0.0
C327 C 0.99915 0.49644 0.2657 0.0
N328 N 0.07211 0.55069 0.30368 0.0
C329 C 0.0661 0.55038 0.26175 0.0
C330 C 0.09625 0.57686 0.23768 0.0
C331 C 0.12248 0.59579 0.26595 0.0
C332 C 0.10692 0.57952 0.30582 0.0
N333 N 0.07974 0.48063 0.34822 0.0
C334 C 0.13905 0.42057 0.34399 0.0
C335 C 0.13352 0.44356 0.30806 0.0
C336 C 0.10364 0.47305 0.31078 0.0
C337 C 0.11595 0.42885 0.38236 0.0
C338 C 0.08737 0.45918 0.3839 0.0
N339 N 0.98421 0.55826 0.35185 0.0
C340 C 0.92915 0.59728 0.3164 0.0
C341 C 0.924 0.61811 0.35168 0.0
C342 C 0.94804 0.60785 0.38753 0.0
C343 C 0.977 0.57768 0.38721 0.0
C344 C 0.95945 0.56791 0.31701 0.0
H345 H 0.99359 0.57096 0.41589 0.0
H346 H 0.9628 0.55391 0.28861 0.0
H347 H 0.09963 0.48885 0.28198 0.0
H348 H 0.07117 0.46436 0.41424 0.0
C349 C 0.02997 0.51534 0.45409 0.0
C350 C 0.12456 0.59358 0.34475 0.0
C351 C 0.9436 0.44288 0.3557 0.0
C352 C 0.03254 0.5244 0.24588 0.0
H353 H 0.15595 0.60584 0.4276 0.0
H354 H 0.10503 0.56225 0.4882 0.0
H355 H 0.95481 0.4643 0.49661 0.0
H356 H 0.90871 0.42354 0.44192 0.0
H357 H 0.91925 0.42516 0.2722 0.0
H358 H 0.96832 0.46949 0.21153 0.0
H359 H 0.09844 0.58207 0.20367 0.0
H360 H 0.14935 0.61935 0.25808 0.0
H361 H 0.15088 0.43808 0.27766 0.0
H362 H 0.12002 0.41203 0.41108 0.0
H363 H 0.911 0.60432 0.28793 0.0
H364 H 0.94428 0.62293 0.41582 0.0
C365 C 0.08899 0.59444 0.77424 0.0
C366 C 0.10304 0.60565 0.81307 0.0
C367 C 0.07514 0.58329 0.84325 0.0
C368 C 0.04571 0.55982 0.82126 0.0
N369 N 0.05364 0.56541 0.77878 0.0
Co370 Co 0.01706 0.53892 0.73488 0.0
N371 N 0.97274 0.50832 0.77942 0.0
C372 C 0.97331 0.51002 0.82188 0.0
C373 C 0.94041 0.48434 0.84441 0.0
C374 C 0.91797 0.46457 0.81469 0.0
C375 C 0.93846 0.47952 0.7755 0.0
N376 N 0.98054 0.51241 0.69106 0.0
C377 C 0.9458 0.48299 0.69558 0.0
C378 C 0.93149 0.4719 0.6568 0.0
C379 C 0.95891 0.49464 0.62662 0.0
C380 C 0.98815 0.51826 0.64862 0.0
N381 N 0.06137 0.56953 0.69046 0.0
C382 C 0.06094 0.56772 0.64807 0.0
C383 C 0.09434 0.59313 0.62556 0.0
C384 C 0.11698 0.61281 0.65531 0.0
C385 C 0.09588 0.59821 0.69436 0.0
N386 N 0.0646 0.49979 0.73573 0.0
C387 C 0.12465 0.43916 0.73833 0.0
C388 C 0.11697 0.4585 0.69998 0.0
C389 C 0.08663 0.48812 0.69937 0.0
C390 C 0.10193 0.45154 0.77513 0.0
C391 C 0.07385 0.48198 0.77322 0.0
N392 N 0.96939 0.57799 0.73423 0.0
C393 C 0.92953 0.62674 0.6974 0.0
C394 C 0.90836 0.63779 0.73555 0.0
C395 C 0.9168 0.61715 0.7726 0.0
C396 C 0.94738 0.58813 0.77128 0.0
C397 C 0.95919 0.59676 0.69743 0.0
H398 H 0.95307 0.57473 0.80096 0.0
H399 H 0.97414 0.58967 0.66739 0.0
H400 H 0.08122 0.50097 0.6691 0.0
H401 H 0.05925 0.49009 0.8027 0.0
C402 C 0.00798 0.53415 0.8396 0.0
C403 C 0.10834 0.61353 0.73408 0.0
C404 C 0.92664 0.46387 0.73572 0.0
C405 C 0.02602 0.54382 0.63044 0.0
H406 H 0.12974 0.62831 0.819 0.0
H407 H 0.07511 0.58479 0.87718 0.0
H408 H 0.93481 0.47961 0.87841 0.0
H409 H 0.8908 0.44102 0.82131 0.0
H410 H 0.90487 0.44914 0.651 0.0
H411 H 0.95883 0.49323 0.59267 0.0
H412 H 0.10032 0.59761 0.59155 0.0
H413 H 0.14498 0.63591 0.64901 0.0
H414 H 0.1341 0.45109 0.67034 0.0
H415 H 0.10459 0.43767 0.80587 0.0
H416 H 0.92433 0.64155 0.66762 0.0
H417 H 0.90007 0.62329 0.80296 0.0
C418 C 0.29242 0.97135 0.59741 0.0
C419 C 0.33772 0.96318 0.61209 0.0
C420 C 0.37343 0.9857 0.58859 0.0
C421 C 0.34805 0.00635 0.56111 0.0
N422 N 0.29821 0.99858 0.56586 0.0
Co423 Co 0.24739 0.0223 0.53255 0.0
N424 N 0.30018 0.0518 0.49448 0.0
C425 C 0.34973 0.04922 0.49418 0.0
C426 C 0.37671 0.07294 0.46437 0.0
C427 C 0.34237 0.09202 0.4447 0.0
C428 C 0.29627 0.07889 0.46389 0.0
N429 N 0.19659 0.04775 0.50096 0.0
C430 C 0.20259 0.07654 0.47128 0.0
C431 C 0.15732 0.08798 0.45998 0.0
C432 C 0.12137 0.06596 0.4838 0.0
C433 C 0.14669 0.04257 0.50826 0.0
N434 N 0.19463 0.99111 0.56902 0.0
C435 C 0.14497 0.99064 0.56623 0.0
C436 C 0.11803 0.96457 0.5934 0.0
C437 C 0.1526 0.94675 0.61429 0.0
C438 C 0.19875 0.96316 0.59861 0.0
N439 N 0.24747 0.06255 0.57255 0.0
C440 C 0.2482 0.12229 0.62616 0.0
C441 C 0.20465 0.09943 0.62206 0.0
C442 C 0.20502 0.07013 0.59513 0.0
C443 C 0.29117 0.11441 0.60275 0.0
C444 C 0.29018 0.08453 0.57709 0.0
N445 N 0.24757 0.98212 0.49236 0.0
C446 C 0.20535 0.94202 0.44507 0.0
C447 C 0.24791 0.92342 0.43787 0.0
C448 C 0.29037 0.93497 0.45778 0.0
C449 C 0.28962 0.96437 0.48416 0.0
C450 C 0.20578 0.97083 0.47262 0.0
H451 H 0.32366 0.97203 0.49765 0.0
H452 H 0.17175 0.98328 0.47773 0.0
H453 H 0.17051 0.05405 0.59303 0.0
H454 H 0.32461 0.08005 0.56094 0.0
C455 C 0.36997 0.02885 0.52655 0.0
C456 C 0.24537 0.95079 0.61231 0.0
C457 C 0.25024 0.09452 0.45382 0.0
C458 C 0.12485 0.01538 0.53817 0.0
H459 H 0.34437 0.94218 0.63624 0.0
H460 H 0.41327 0.98568 0.58994 0.0
H461 H 0.41672 0.07723 0.45907 0.0
H462 H 0.35043 0.11404 0.42007 0.0
H463 H 0.15102 0.11027 0.43728 0.0
H464 H 0.08157 0.06722 0.48375 0.0
H465 H 0.07805 0.95895 0.59726 0.0
H466 H 0.14481 0.92401 0.63807 0.0
H467 H 0.17035 0.10373 0.63978 0.0
H468 H 0.32582 0.13142 0.60359 0.0
H469 H 0.17153 0.93381 0.43029 0.0
H470 H 0.32435 0.92158 0.45265 0.0
C471 C 0.44071 0.81972 0.08984 0.0
C472 C 0.42461 0.85381 0.09932 0.0
C473 C 0.4567 0.88029 0.07745 0.0
C474 C 0.4905 0.86107 0.05587 0.0
N475 N 0.48147 0.82383 0.06227 0.0
Co476 Co 0.52216 0.78561 0.03761 0.0
N477 N 0.57179 0.82449 0.00927 0.0
C478 C 0.57569 0.86074 0.01675 0.0
C479 C 0.62024 0.87889 1.00159 0.0
C480 C 0.64529 0.85268 0.9821 0.0
C481 C 0.61311 0.82069 0.9841 0.0
N482 N 0.56187 0.74772 0.0111 0.0
C483 C 0.60229 0.75249 0.98314 0.0
C484 C 0.62276 0.71914 0.97759 0.0
C485 C 0.59093 0.69204 0.99882 0.0
C486 C 0.55416 0.71049 0.0176 0.0
N487 N 0.47376 0.74641 0.06749 0.0
C488 C 0.4756 0.70929 0.06693 0.0
C489 C 0.4386 0.68931 0.09217 0.0
C490 C 0.41221 0.71521 0.11068 0.0
C491 C 0.43485 0.74965 0.09572 0.0
N492 N 0.48232 0.78684 0.98753 0.0
C493 C 0.4237 0.78855 0.91728 0.0
C494 C 0.43037 0.75512 0.93963 0.0
C495 C 0.45981 0.75486 0.97412 0.0
C496 C 0.44766 0.82112 0.93051 0.0
C497 C 0.47665 0.81964 0.96541 0.0
N498 N 0.5624 0.78446 0.08828 0.0
C499 C 0.61118 0.75137 0.13695 0.0
C500 C 0.62192 0.78322 0.1584 0.0
C501 C 0.60132 0.81552 0.14473 0.0
C502 C 0.57197 0.81551 0.11009 0.0
C503 C 0.58133 0.7525 0.10273 0.0
H504 H 0.55732 0.84105 0.10199 0.0
H505 H 0.57425 0.72696 0.08882 0.0
H506 H 0.46382 0.72846 0.98954 0.0
H507 H 0.49436 0.84531 0.97401 0.0
C508 C 0.5358 0.87685 0.03625 0.0
C509 C 0.41946 0.78449 0.11086 0.0
C510 C 0.62009 0.78792 0.95993 0.0
C511 C 0.51352 0.69411 0.04348 0.0
H512 H 0.39438 0.8592 0.12136 0.0
H513 H 0.45724 0.91001 0.07934 0.0
H514 H 0.63298 0.90767 0.00431 0.0
H515 H 0.6828 0.85692 0.96777 0.0
H516 H 0.65646 0.71472 0.95909 0.0
H517 H 0.59434 0.66248 1.00051 0.0
H518 H 0.43228 0.65948 0.0973 0.0
H519 H 0.38057 0.70946 0.1334 0.0
H520 H 0.41233 0.72913 0.93108 0.0
H521 H 0.44455 0.84766 0.91382 0.0
H522 H 0.62627 0.72555 0.14601 0.0
H523 H 0.60731 0.84078 0.1609 0.0
C524 C 0.84095 0.97725 0.60837 0.0
C525 C 0.88297 0.96762 0.62776 0.0
C526 C 0.92042 0.99432 0.61428 0.0
C527 C 0.89923 0.01866 0.58753 0.0
N528 N 0.85084 0.00892 0.58338 0.0
Co529 Co 0.80624 0.03571 0.54741 0.0
N530 N 0.8635 0.06331 0.51346 0.0
C531 C 0.91095 0.06624 0.52425 0.0
C532 C 0.94241 0.08796 0.49552 0.0
C533 C 0.91285 0.1001 0.4651 0.0
C534 C 0.86478 0.08512 0.47707 0.0
N535 N 0.76114 0.06276 0.51202 0.0
C536 C 0.77107 0.08448 0.47573 0.0
C537 C 0.72823 0.09884 0.4624 0.0
C538 C 0.6906 0.08648 0.49192 0.0
C539 C 0.7123 0.06522 0.52146 0.0
N540 N 0.74934 0.0079 0.58124 0.0
C541 C 0.70208 0.01684 0.58379 0.0
C542 C 0.6709 0.99192 0.60932 0.0
C543 C 0.70046 0.96566 0.62376 0.0
C544 C 0.74815 0.97615 0.60612 0.0
N545 N 0.8061 0.07525 0.58689 0.0
C546 C 0.8052 0.13218 0.64251 0.0
C547 C 0.79719 0.09503 0.65785 0.0
C548 C 0.79844 0.06694 0.62954 0.0
C549 C 0.81375 0.14029 0.59903 0.0
C550 C 0.81345 0.11156 0.57184 0.0
N551 N 0.80639 0.99613 0.50822 0.0
C552 C 0.76168 0.95259 0.46714 0.0
C553 C 0.80532 0.936 0.45718 0.0
C554 C 0.84968 0.95035 0.47246 0.0
C555 C 0.84953 0.98072 0.49753 0.0
C556 C 0.76292 0.98244 0.49297 0.0
H557 H 0.88424 0.99133 0.5088 0.0
H558 H 0.72852 0.99403 0.50114 0.0
H559 H 0.79303 0.03853 0.64217 0.0
H560 H 0.81892 0.11896 0.5386 0.0
C561 C 0.92511 0.04598 0.55972 0.0
C562 C 0.79187 0.95674 0.61556 0.0
C563 C 0.82097 0.09681 0.45663 0.0
C564 C 0.68714 0.04432 0.5559 0.0
H565 H 0.88629 0.94366 0.64907 0.0
H566 H 0.95903 0.9948 0.62139 0.0
H567 H 0.98209 0.09422 0.49653 0.0
H568 H 0.9249 0.11898 0.43801 0.0
H569 H 0.7249 0.11746 0.43499 0.0
H570 H 0.652 0.09215 0.4917 0.0
H571 H 0.63107 0.99184 0.61517 0.0
H572 H 0.68831 0.94156 0.64474 0.0
H573 H 0.79051 0.08779 0.69144 0.0
H574 H 0.81954 0.16875 0.58602 0.0
H575 H 0.72672 0.9421 0.45569 0.0
H576 H 0.88417 0.93826 0.46497 0.0
C577 C 0.46184 0.3 0.1091 0.0
C578 C 0.449 0.33348 0.12373 0.0
C579 C 0.47846 0.36073 0.10068 0.0
C580 C 0.50776 0.34246 0.07368 0.0
N581 N 0.4985 0.30514 0.07764 0.0
Co582 Co 0.53557 0.26797 0.04697 0.0
N583 N 0.57942 0.3082 0.01354 0.0
C584 C 0.57669 0.34518 0.0149 0.0
C585 C 0.60899 0.36599 0.98617 0.0
C586 C 0.63353 0.34086 0.96472 0.0
C587 C 0.61504 0.30595 0.982 0.0
N588 N 0.57392 0.2308 0.01768 0.0
C589 C 0.61181 0.23588 0.98733 0.0
C590 C 0.62904 0.20244 0.97667 0.0
C591 C 0.60029 0.1752 1.00044 0.0
C592 C 0.5676 0.19348 0.02444 0.0
N593 N 0.49042 0.22779 0.07905 0.0
C594 C 0.49029 0.19087 0.07502 0.0
C595 C 0.45424 0.17014 0.1005 0.0
C596 C 0.42999 0.19527 0.1223 0.0
C597 C 0.45305 0.23001 0.10904 0.0
N598 N 0.4888 0.26861 1.00118 0.0
C599 C 0.4256 0.27014 0.93393 0.0
C600 C 0.44485 0.23733 0.94764 0.0
C601 C 0.47579 0.23711 0.98122 0.0
C602 C 0.43804 0.30209 0.95476 0.0
C603 C 0.46958 0.30076 0.98786 0.0
N604 N 0.58243 0.2673 0.0927 0.0
C605 C 0.62258 0.23371 0.14713 0.0
C606 C 0.64769 0.26641 0.15855 0.0
C607 C 0.6397 0.29955 0.1363 0.0
C608 C 0.60712 0.29939 0.10389 0.0
C609 C 0.59059 0.23475 0.11433 0.0
H610 H 0.60235 0.32562 0.08853 0.0
H611 H 0.57288 0.20881 0.10712 0.0
H612 H 0.48885 0.21111 0.99032 0.0
H613 H 0.47817 0.32621 0.00192 0.0
C614 C 0.5436 0.35955 0.04372 0.0
C615 C 0.43915 0.26408 0.1269 0.0
C616 C 0.63133 0.27153 0.96654 0.0
C617 C 0.52754 0.17639 0.05028 0.0
H618 H 0.42158 0.33787 0.1488 0.0
H619 H 0.47876 0.39033 0.1035 0.0
H620 H 0.61367 0.39588 0.98107 0.0
H621 H 0.66137 0.34763 0.93886 0.0
H622 H 0.65864 0.19814 0.95342 0.0
H623 H 0.60201 0.14557 0.99939 0.0
H624 H 0.44735 0.14025 0.10374 0.0
H625 H 0.39942 0.18873 0.14593 0.0
H626 H 0.43565 0.21175 0.93283 0.0
H627 H 0.42428 0.32826 0.94504 0.0
H628 H 0.62802 0.20726 0.16306 0.0
H629 H 0.65787 0.3257 0.14428 0.0
loop_
_geom_bond_atom_site_label_1
_geom_bond_atom_site_label_2
_geom_bond_distance
_geom_bond_site_symmetry_2
_ccdc_geom_bond_type
C0 C1 1.386 . S
C0 C2 1.397 . S
C0 H24 0.931 . S
C1 C0 1.386 . S
C1 C5 1.397 . S
C2 C0 1.397 . S
C2 C3 1.384 . S
C2 H25 0.930 . S
C3 C2 1.384 . S
C3 C4 1.377 . S
C3 C6 1.481 . S
C4 C3 1.377 . S
C4 C5 1.389 . S
C4 H26 0.929 . S
C5 C1 1.397 . S
C5 C4 1.389 . S
C5 H27 0.931 . S
C6 C3 1.481 . S
C6 C7 1.387 . S
C6 C11 1.390 . S
C7 C6 1.387 . S
C7 C8 1.401 . S
C7 H28 0.930 . S
C8 C7 1.401 . S
C8 C9 1.376 . S
C8 C17 1.511 . S
C9 C8 1.376 . S
C9 C10 1.392 . S
C9 H30 0.931 . S
C10 C9 1.392 . S
C10 C11 1.361 . S
C10 C12 1.500 . S
C11 C6 1.390 . S
C11 C10 1.361 . S
C11 H29 0.931 . S
C12 C10 1.500 . S
C12 C13 1.371 . S
C12 C14 1.365 . S
C13 C12 1.371 . S
C13 C23 1.386 . S
C13 H31 0.931 . S
C14 C12 1.365 . S
C14 C15 1.409 . S
C14 H32 0.929 . S
C15 C14 1.409 . S
C15 C16 1.380 . S
C15 H33 0.930 . S
C16 C15 1.380 . S
C16 C23 1.357 . S
C17 C8 1.511 . S
C17 C18 1.341 . S
C17 C19 1.371 . S
C18 C17 1.341 . S
C18 C22 1.394 . S
C18 H34 0.930 . S
C19 C17 1.371 . S
C19 C20 1.392 . S
C19 H35 0.931 . S
C20 C19 1.392 . S
C20 C21 1.331 . S
C20 H38 0.932 . S
C21 C20 1.331 . S
C21 C22 1.336 . S
C22 C18 1.394 . S
C22 C21 1.336 . S
C22 H37 0.929 . S
C23 C13 1.386 . S
C23 C16 1.357 . S
C23 H36 0.928 . S
H24 C0 0.931 . S
H25 C2 0.930 . S
H26 C4 0.929 . S
H27 C5 0.931 . S
H28 C7 0.930 . S
H29 C11 0.931 . S
H30 C9 0.931 . S
H31 C13 0.931 . S
H32 C14 0.929 . S
H33 C15 0.930 . S
H34 C18 0.930 . S
H35 C19 0.931 . S
H36 C23 0.928 . S
H37 C22 0.929 . S
H38 C20 0.932 . S
C39 C40 1.386 . S
C39 C41 1.397 . S
C39 H63 0.931 . S
C40 C39 1.386 . S
C40 C44 1.397 . S
C41 C39 1.397 . S
C41 C42 1.384 . S
C41 H64 0.930 . S
C42 C41 1.384 . S
C42 C43 1.377 . S
C42 C45 1.481 . S
C43 C42 1.377 . S
C43 C44 1.389 . S
C43 H65 0.929 . S
C44 C40 1.397 . S
C44 C43 1.389 . S
C44 H66 0.931 . S
C45 C42 1.481 . S
C45 C46 1.387 . S
C45 C50 1.390 . S
C46 C45 1.387 . S
C46 C47 1.401 . S
C46 H67 0.930 . S
C47 C46 1.401 . S
C47 C48 1.376 . S
C47 C56 1.511 . S
C48 C47 1.376 . S
C48 C49 1.392 . S
C48 H69 0.931 . S
C49 C48 1.392 . S
C49 C50 1.361 . S
C49 C51 1.500 . S
C50 C45 1.390 . S
C50 C49 1.361 . S
C50 H68 0.931 . S
C51 C49 1.500 . S
C51 C52 1.371 . S
C51 C53 1.365 . S
C52 C51 1.371 . S
C52 C62 1.386 . S
C52 H70 0.931 . S
C53 C51 1.365 . S
C53 C54 1.409 . S
C53 H71 0.929 . S
C54 C53 1.409 . S
C54 C55 1.380 . S
C54 H72 0.930 . S
C55 C54 1.380 . S
C55 C62 1.357 . S
C56 C47 1.511 . S
C56 C57 1.341 . S
C56 C58 1.371 . S
C57 C56 1.341 . S
C57 C61 1.394 . S
C57 H73 0.930 . S
C58 C56 1.371 . S
C58 C59 1.392 . S
C58 H74 0.931 . S
C59 C58 1.392 . S
C59 C60 1.331 . S
C59 H77 0.932 . S
C60 C59 1.331 . S
C60 C61 1.336 . S
C61 C57 1.394 . S
C61 C60 1.336 . S
C61 H76 0.929 . S
C62 C52 1.386 . S
C62 C55 1.357 . S
C62 H75 0.928 . S
H63 C39 0.931 . S
H64 C41 0.930 . S
H65 C43 0.929 . S
H66 C44 0.931 . S
H67 C46 0.930 . S
H68 C50 0.931 . S
H69 C48 0.931 . S
H70 C52 0.931 . S
H71 C53 0.929 . S
H72 C54 0.930 . S
H73 C57 0.930 . S
H74 C58 0.931 . S
H75 C62 0.928 . S
H76 C61 0.929 . S
H77 C59 0.932 . S
C78 C79 1.386 . S
C78 C80 1.397 . S
C78 H102 0.931 . S
C79 C78 1.386 . S
C79 C83 1.397 . S
C80 C78 1.397 . S
C80 C81 1.384 . S
C80 H103 0.930 . S
C81 C80 1.384 . S
C81 C82 1.377 . S
C81 C84 1.481 . S
C82 C81 1.377 . S
C82 C83 1.389 . S
C82 H104 0.929 . S
C83 C79 1.397 . S
C83 C82 1.389 . S
C83 H105 0.931 . S
C84 C81 1.481 . S
C84 C85 1.387 . S
C84 C89 1.390 . S
C85 C84 1.387 . S
C85 C86 1.401 . S
C85 H106 0.930 . S
C86 C85 1.401 . S
C86 C87 1.376 . S
C86 C95 1.511 . S
C87 C86 1.376 . S
C87 C88 1.392 . S
C87 H108 0.931 . S
C88 C87 1.392 . S
C88 C89 1.361 . S
C88 C90 1.500 . S
C89 C84 1.390 . S
C89 C88 1.361 . S
C89 H107 0.931 . S
C90 C88 1.500 . S
C90 C91 1.371 . S
C90 C92 1.365 . S
C91 C90 1.371 . S
C91 C101 1.386 . S
C91 H109 0.931 . S
C92 C90 1.365 . S
C92 C93 1.409 . S
C92 H110 0.929 . S
C93 C92 1.409 . S
C93 C94 1.380 . S
C93 H111 0.930 . S
C94 C93 1.380 . S
C94 C101 1.357 . S
C95 C86 1.511 . S
C95 C96 1.341 . S
C95 C97 1.371 . S
C96 C95 1.341 . S
C96 C100 1.394 . S
C96 H112 0.930 . S
C97 C95 1.371 . S
C97 C98 1.392 . S
C97 H113 0.931 . S
C98 C97 1.392 . S
C98 C99 1.331 . S
C98 H116 0.932 . S
C99 C98 1.331 . S
C99 C100 1.336 . S
C100 C96 1.394 . S
C100 C99 1.336 . S
C100 H115 0.929 . S
C101 C91 1.386 . S
C101 C94 1.357 . S
C101 H114 0.928 . S
H102 C78 0.931 . S
H103 C80 0.930 . S
H104 C82 0.929 . S
H105 C83 0.931 . S
H106 C85 0.930 . S
H107 C89 0.931 . S
H108 C87 0.931 . S
H109 C91 0.931 . S
H110 C92 0.929 . S
H111 C93 0.930 . S
H112 C96 0.930 . S
H113 C97 0.931 . S
H114 C101 0.928 . S
H115 C100 0.929 . S
H116 C98 0.932 . S
C117 C118 1.386 . S
C117 C119 1.397 . S
C117 H141 0.931 . S
C118 C117 1.386 . S
C118 C122 1.397 . S
C119 C117 1.397 . S
C119 C120 1.384 . S
C119 H142 0.930 . S
C120 C119 1.384 . S
C120 C121 1.377 . S
C120 C123 1.481 . S
C121 C120 1.377 . S
C121 C122 1.389 . S
C121 H143 0.929 . S
C122 C118 1.397 . S
C122 C121 1.389 . S
C122 H144 0.931 . S
C123 C120 1.481 . S
C123 C124 1.387 . S
C123 C128 1.390 . S
C124 C123 1.387 . S
C124 C125 1.401 . S
C124 H145 0.930 . S
C125 C124 1.401 . S
C125 C126 1.376 . S
C125 C134 1.511 . S
C126 C125 1.376 . S
C126 C127 1.392 . S
C126 H147 0.931 . S
C127 C126 1.392 . S
C127 C128 1.361 . S
C127 C129 1.500 . S
C128 C123 1.390 . S
C128 C127 1.361 . S
C128 H146 0.931 . S
C129 C127 1.500 . S
C129 C130 1.371 . S
C129 C131 1.365 . S
C130 C129 1.371 . S
C130 C140 1.386 . S
C130 H148 0.931 . S
C131 C129 1.365 . S
C131 C132 1.409 . S
C131 H149 0.929 . S
C132 C131 1.409 . S
C132 C133 1.380 . S
C132 H150 0.930 . S
C133 C132 1.380 . S
C133 C140 1.357 . S
C134 C125 1.511 . S
C134 C135 1.341 . S
C134 C136 1.371 . S
C135 C134 1.341 . S
C135 C139 1.394 . S
C135 H151 0.930 . S
C136 C134 1.371 . S
C136 C137 1.392 . S
C136 H152 0.931 . S
C137 C136 1.392 . S
C137 C138 1.331 . S
C137 H155 0.932 . S
C138 C137 1.331 . S
C138 C139 1.336 . S
C139 C135 1.394 . S
C139 C138 1.336 . S
C139 H154 0.929 . S
C140 C130 1.386 . S
C140 C133 1.357 . S
C140 H153 0.928 . S
H141 C117 0.931 . S
H142 C119 0.930 . S
H143 C121 0.929 . S
H144 C122 0.931 . S
H145 C124 0.930 . S
H146 C128 0.931 . S
H147 C126 0.931 . S
H148 C130 0.931 . S
H149 C131 0.929 . S
H150 C132 0.930 . S
H151 C135 0.930 . S
H152 C136 0.931 . S
H153 C140 0.928 . S
H154 C139 0.929 . S
H155 C137 0.932 . S
C156 C157 1.386 . S
C156 C158 1.397 . S
C156 H180 0.931 . S
C157 C156 1.386 . S
C157 C161 1.397 . S
C158 C156 1.397 . S
C158 C159 1.384 . S
C158 H181 0.930 . S
C159 C158 1.384 . S
C159 C160 1.377 . S
C159 C162 1.481 . S
C160 C159 1.377 . S
C160 C161 1.389 . S
C160 H182 0.929 . S
C161 C157 1.397 . S
C161 C160 1.389 . S
C161 H183 0.931 . S
C162 C159 1.481 . S
C162 C163 1.387 . S
C162 C167 1.390 . S
C163 C162 1.387 . S
C163 C164 1.401 . S
C163 H184 0.930 . S
C164 C163 1.401 . S
C164 C165 1.376 . S
C164 C173 1.511 . S
C165 C164 1.376 . S
C165 C166 1.392 . S
C165 H186 0.931 . S
C166 C165 1.392 . S
C166 C167 1.361 . S
C166 C168 1.500 . S
C167 C162 1.390 . S
C167 C166 1.361 . S
C167 H185 0.931 . S
C168 C166 1.500 . S
C168 C169 1.371 . S
C168 C170 1.365 . S
C169 C168 1.371 . S
C169 C179 1.386 . S
C169 H187 0.931 . S
C170 C168 1.365 . S
C170 C171 1.409 . S
C170 H188 0.929 . S
C171 C170 1.409 . S
C171 C172 1.380 . S
C171 H189 0.930 . S
C172 C171 1.380 . S
C172 C179 1.357 . S
C173 C164 1.511 . S
C173 C174 1.341 . S
C173 C175 1.371 . S
C174 C173 1.341 . S
C174 C178 1.394 . S
C174 H190 0.930 . S
C175 C173 1.371 . S
C175 C176 1.392 . S
C175 H191 0.931 . S
C176 C175 1.392 . S
C176 C177 1.331 . S
C176 H194 0.932 . S
C177 C176 1.331 . S
C177 C178 1.336 . S
C178 C174 1.394 . S
C178 C177 1.336 . S
C178 H193 0.929 . S
C179 C169 1.386 . S
C179 C172 1.357 . S
C179 H192 0.928 . S
H180 C156 0.931 . S
H181 C158 0.930 . S
H182 C160 0.929 . S
H183 C161 0.931 . S
H184 C163 0.930 . S
H185 C167 0.931 . S
H186 C165 0.931 . S
H187 C169 0.931 . S
H188 C170 0.929 . S
H189 C171 0.930 . S
H190 C174 0.930 . S
H191 C175 0.931 . S
H192 C179 0.928 . S
H193 C178 0.929 . S
H194 C176 0.932 . S
C195 C196 1.386 . S
C195 C197 1.397 . S
C195 H219 0.931 . S
C196 C195 1.386 . S
C196 C200 1.397 . S
C197 C195 1.397 . S
C197 C198 1.384 . S
C197 H220 0.930 . S
C198 C197 1.384 . S
C198 C199 1.377 . S
C198 C201 1.481 . S
C199 C198 1.377 . S
C199 C200 1.389 . S
C199 H221 0.929 . S
C200 C196 1.397 . S
C200 C199 1.389 . S
C200 H222 0.931 . S
C201 C198 1.481 . S
C201 C202 1.387 . S
C201 C206 1.390 . S
C202 C201 1.387 . S
C202 C203 1.401 . S
C202 H223 0.930 . S
C203 C202 1.401 . S
C203 C204 1.376 . S
C203 C212 1.511 . S
C204 C203 1.376 . S
C204 C205 1.392 . S
C204 H225 0.931 . S
C205 C204 1.392 . S
C205 C206 1.361 . S
C205 C207 1.500 . S
C206 C201 1.390 . S
C206 C205 1.361 . S
C206 H224 0.931 . S
C207 C205 1.500 . S
C207 C208 1.371 . S
C207 C209 1.365 . S
C208 C207 1.371 . S
C208 C218 1.386 . S
C208 H226 0.931 . S
C209 C207 1.365 . S
C209 C210 1.409 . S
C209 H227 0.929 . S
C210 C209 1.409 . S
C210 C211 1.380 . S
C210 H228 0.930 . S
C211 C210 1.380 . S
C211 C218 1.357 . S
C212 C203 1.511 . S
C212 C213 1.341 . S
C212 C214 1.371 . S
C213 C212 1.341 . S
C213 C217 1.394 . S
C213 H229 0.930 . S
C214 C212 1.371 . S
C214 C215 1.392 . S
C214 H230 0.931 . S
C215 C214 1.392 . S
C215 C216 1.331 . S
C215 H233 0.932 . S
C216 C215 1.331 . S
C216 C217 1.336 . S
C217 C213 1.394 . S
C217 C216 1.336 . S
C217 H232 0.929 . S
C218 C208 1.386 . S
C218 C211 1.357 . S
C218 H231 0.928 . S
H219 C195 0.931 . S
H220 C197 0.930 . S
H221 C199 0.929 . S
H222 C200 0.931 . S
H223 C202 0.930 . S
H224 C206 0.931 . S
H225 C204 0.931 . S
H226 C208 0.931 . S
H227 C209 0.929 . S
H228 C210 0.930 . S
H229 C213 0.930 . S
H230 C214 0.931 . S
H231 C218 0.928 . S
H232 C217 0.929 . S
H233 C215 0.932 . S
C234 C235 1.386 . S
C234 C236 1.397 . S
C234 H258 0.931 . S
C235 C234 1.386 . S
C235 C239 1.397 . S
C236 C234 1.397 . S
C236 C237 1.384 . S
C236 H259 0.930 . S
C237 C236 1.384 . S
C237 C238 1.377 . S
C237 C240 1.481 . S
C238 C237 1.377 . S
C238 C239 1.389 . S
C238 H260 0.929 . S
C239 C235 1.397 . S
C239 C238 1.389 . S
C239 H261 0.931 . S
C240 C237 1.481 . S
C240 C241 1.387 . S
C240 C245 1.390 . S
C241 C240 1.387 . S
C241 C242 1.401 . S
C241 H262 0.930 . S
C242 C241 1.401 . S
C242 C243 1.376 . S
C242 C251 1.511 . S
C243 C242 1.376 . S
C243 C244 1.392 . S
C243 H264 0.931 . S
C244 C243 1.392 . S
C244 C245 1.361 . S
C244 C246 1.500 . S
C245 C240 1.390 . S
C245 C244 1.361 . S
C245 H263 0.931 . S
C246 C244 1.500 . S
C246 C247 1.371 . S
C246 C248 1.365 . S
C247 C246 1.371 . S
C247 C257 1.386 . S
C247 H265 0.931 . S
C248 C246 1.365 . S
C248 C249 1.409 . S
C248 H266 0.929 . S
C249 C248 1.409 . S
C249 C250 1.380 . S
C249 H267 0.930 . S
C250 C249 1.380 . S
C250 C257 1.357 . S
C251 C242 1.511 . S
C251 C252 1.341 . S
C251 C253 1.371 . S
C252 C251 1.341 . S
C252 C256 1.394 . S
C252 H268 0.930 . S
C253 C251 1.371 . S
C253 C254 1.392 . S
C253 H269 0.931 . S
C254 C253 1.392 . S
C254 C255 1.331 . S
C254 H272 0.932 . S
C255 C254 1.331 . S
C255 C256 1.336 . S
C256 C252 1.394 . S
C256 C255 1.336 . S
C256 H271 0.929 . S
C257 C247 1.386 . S
C257 C250 1.357 . S
C257 H270 0.928 . S
H258 C234 0.931 . S
H259 C236 0.930 . S
H260 C238 0.929 . S
H261 C239 0.931 . S
H262 C241 0.930 . S
H263 C245 0.931 . S
H264 C243 0.931 . S
H265 C247 0.931 . S
H266 C248 0.929 . S
H267 C249 0.930 . S
H268 C252 0.930 . S
H269 C253 0.931 . S
H270 C257 0.928 . S
H271 C256 0.929 . S
H272 C254 0.932 . S
C273 C274 1.386 . S
C273 C275 1.397 . S
C273 H297 0.931 . S
C274 C273 1.386 . S
C274 C278 1.397 . S
C275 C273 1.397 . S
C275 C276 1.384 . S
C275 H298 0.930 . S
C276 C275 1.384 . S
C276 C277 1.377 . S
C276 C279 1.481 . S
C277 C276 1.377 . S
C277 C278 1.389 . S
C277 H299 0.929 . S
C278 C274 1.397 . S
C278 C277 1.389 . S
C278 H300 0.931 . S
C279 C276 1.481 . S
C279 C280 1.387 . S
C279 C284 1.390 . S
C280 C279 1.387 . S
C280 C281 1.401 . S
C280 H301 0.930 . S
C281 C280 1.401 . S
C281 C282 1.376 . S
C281 C290 1.511 . S
C282 C281 1.376 . S
C282 C283 1.392 . S
C282 H303 0.931 . S
C283 C282 1.392 . S
C283 C284 1.361 . S
C283 C285 1.500 . S
C284 C279 1.390 . S
C284 C283 1.361 . S
C284 H302 0.931 . S
C285 C283 1.500 . S
C285 C286 1.371 . S
C285 C287 1.365 . S
C286 C285 1.371 . S
C286 C296 1.386 . S
C286 H304 0.931 . S
C287 C285 1.365 . S
C287 C288 1.409 . S
C287 H305 0.929 . S
C288 C287 1.409 . S
C288 C289 1.380 . S
C288 H306 0.930 . S
C289 C288 1.380 . S
C289 C296 1.357 . S
C290 C281 1.511 . S
C290 C291 1.341 . S
C290 C292 1.371 . S
C291 C290 1.341 . S
C291 C295 1.394 . S
C291 H307 0.930 . S
C292 C290 1.371 . S
C292 C293 1.392 . S
C292 H308 0.931 . S
C293 C292 1.392 . S
C293 C294 1.331 . S
C293 H311 0.932 . S
C294 C293 1.331 . S
C294 C295 1.336 . S
C295 C291 1.394 . S
C295 C294 1.336 . S
C295 H310 0.929 . S
C296 C286 1.386 . S
C296 C289 1.357 . S
C296 H309 0.928 . S
H297 C273 0.931 . S
H298 C275 0.930 . S
H299 C277 0.929 . S
H300 C278 0.931 . S
H301 C280 0.930 . S
H302 C284 0.931 . S
H303 C282 0.931 . S
H304 C286 0.931 . S
H305 C287 0.929 . S
H306 C288 0.930 . S
H307 C291 0.930 . S
H308 C292 0.931 . S
H309 C296 0.928 . S
H310 C295 0.929 . S
H311 C293 0.932 . S
C312 C313 1.443 . S
C312 N316 1.376 . S
C312 C350 1.389 . S
C313 C312 1.443 . S
C313 C314 1.340 . S
C313 H353 0.951 . S
C314 C313 1.340 . S
C314 C315 1.439 . S
C314 H354 0.950 . S
C315 C314 1.439 . S
C315 N316 1.374 . S
C315 C349 1.395 . S
N316 C312 1.376 . S
N316 C315 1.374 . S
N316 Co317 2.008 . S
Co317 N316 2.008 . S
Co317 N318 1.995 1_455 S
Co317 N323 2.008 . S
Co317 N328 1.995 . S
Co317 N333 2.282 . S
Co317 N339 2.282 1_455 S
N318 Co317 1.995 1_655 S
N318 C319 1.376 . S
N318 C322 1.383 . S
C319 N318 1.376 . S
C319 C320 1.446 . S
C319 C349 1.391 1_655 S
C320 C319 1.446 . S
C320 C321 1.339 . S
C320 H355 0.949 . S
C321 C320 1.339 . S
C321 C322 1.439 . S
C321 H356 0.950 . S
C322 N318 1.383 . S
C322 C321 1.439 . S
C322 C351 1.392 . S
N323 Co317 2.008 . S
N323 C324 1.376 1_455 S
N323 C327 1.374 . S
C324 N323 1.376 1_655 S
C324 C325 1.443 . S
C324 C351 1.389 . S
C325 C324 1.443 . S
C325 C326 1.340 . S
C325 H357 0.951 . S
C326 C325 1.340 . S
C326 C327 1.439 1_655 S
C326 H358 0.950 . S
C327 N323 1.374 . S
C327 C326 1.439 1_455 S
C327 C352 1.395 . S
N328 Co317 1.995 . S
N328 C329 1.376 . S
N328 C332 1.383 . S
C329 N328 1.376 . S
C329 C330 1.446 . S
C329 C352 1.391 . S
C330 C329 1.446 . S
C330 C331 1.339 . S
C330 H359 0.949 . S
C331 C330 1.339 . S
C331 C332 1.439 . S
C331 H360 0.950 . S
C332 N328 1.383 . S
C332 C331 1.439 . S
C332 C350 1.392 . S
N333 Co317 2.282 . S
N333 C336 1.332 . S
N333 C338 1.332 . S
C334 C335 1.386 . S
C334 C337 1.388 . S
C335 C334 1.386 . S
C335 C336 1.382 . S
C335 H361 0.950 . S
C336 N333 1.332 . S
C336 C335 1.382 . S
C336 H347 0.952 . S
C337 C334 1.388 . S
C337 C338 1.382 . S
C337 H362 0.950 . S
C338 N333 1.332 . S
C338 C337 1.382 . S
C338 H348 0.948 . S
N339 Co317 2.282 1_655 S
N339 C343 1.332 . S
N339 C344 1.332 . S
C340 C341 1.388 . S
C340 C344 1.382 . S
C340 H363 0.950 . S
C341 C340 1.388 . S
C341 C342 1.386 . S
C342 C341 1.386 . S
C342 C343 1.382 . S
C342 H364 0.950 . S
C343 N339 1.332 . S
C343 C342 1.382 . S
C343 H345 0.952 . S
C344 N339 1.332 . S
C344 C340 1.382 . S
C344 H346 0.948 . S
H345 C343 0.952 . S
H346 C344 0.948 . S
H347 C336 0.952 . S
H348 C338 0.948 . S
C349 C315 1.395 . S
C349 C319 1.391 1_455 S
C350 C312 1.389 . S
C350 C332 1.392 . S
C351 C322 1.392 . S
C351 C324 1.389 . S
C352 C327 1.395 . S
C352 C329 1.391 . S
H353 C313 0.951 . S
H354 C314 0.950 . S
H355 C320 0.949 . S
H356 C321 0.950 . S
H357 C325 0.951 . S
H358 C326 0.950 . S
H359 C330 0.949 . S
H360 C331 0.950 . S
H361 C335 0.950 . S
H362 C337 0.950 . S
H363 C340 0.950 . S
H364 C342 0.950 . S
C365 C366 1.443 . S
C365 N369 1.376 . S
C365 C403 1.389 . S
C366 C365 1.443 . S
C366 C367 1.340 . S
C366 H406 0.951 . S
C367 C366 1.340 . S
C367 C368 1.439 . S
C367 H407 0.950 . S
C368 C367 1.439 . S
C368 N369 1.374 . S
C368 C402 1.395 . S
N369 C365 1.376 . S
N369 C368 1.374 . S
N369 Co370 2.008 . S
Co370 N369 2.008 . S
Co370 N371 1.995 1_455 S
Co370 N376 2.008 1_455 S
Co370 N381 1.995 . S
Co370 N386 2.282 . S
Co370 N392 2.282 1_455 S
N371 Co370 1.995 1_655 S
N371 C372 1.376 . S
N371 C375 1.383 . S
C372 N371 1.376 . S
C372 C373 1.446 . S
C372 C402 1.391 1_655 S
C373 C372 1.446 . S
C373 C374 1.339 . S
C373 H408 0.949 . S
C374 C373 1.339 . S
C374 C375 1.439 . S
C374 H409 0.950 . S
C375 N371 1.383 . S
C375 C374 1.439 . S
C375 C404 1.392 . S
N376 Co370 2.008 1_655 S
N376 C377 1.376 . S
N376 C380 1.374 . S
C377 N376 1.376 . S
C377 C378 1.443 . S
C377 C404 1.389 . S
C378 C377 1.443 . S
C378 C379 1.340 . S
C378 H410 0.951 . S
C379 C378 1.340 . S
C379 C380 1.439 . S
C379 H411 0.950 . S
C380 N376 1.374 . S
C380 C379 1.439 . S
C380 C405 1.395 1_655 S
N381 Co370 1.995 . S
N381 C382 1.376 . S
N381 C385 1.383 . S
C382 N381 1.376 . S
C382 C383 1.446 . S
C382 C405 1.391 . S
C383 C382 1.446 . S
C383 C384 1.339 . S
C383 H412 0.949 . S
C384 C383 1.339 . S
C384 C385 1.439 . S
C384 H413 0.950 . S
C385 N381 1.383 . S
C385 C384 1.439 . S
C385 C403 1.392 . S
N386 Co370 2.282 . S
N386 C389 1.332 . S
N386 C391 1.332 . S
C387 C388 1.386 . S
C387 C390 1.388 . S
C388 C387 1.386 . S
C388 C389 1.382 . S
C388 H414 0.950 . S
C389 N386 1.332 . S
C389 C388 1.382 . S
C389 H400 0.952 . S
C390 C387 1.388 . S
C390 C391 1.382 . S
C390 H415 0.950 . S
C391 N386 1.332 . S
C391 C390 1.382 . S
C391 H401 0.948 . S
N392 Co370 2.282 1_655 S
N392 C396 1.332 . S
N392 C397 1.332 . S
C393 C394 1.388 . S
C393 C397 1.382 . S
C393 H416 0.950 . S
C394 C393 1.388 . S
C394 C395 1.386 . S
C395 C394 1.386 . S
C395 C396 1.382 . S
C395 H417 0.950 . S
C396 N392 1.332 . S
C396 C395 1.382 . S
C396 H398 0.952 . S
C397 N392 1.332 . S
C397 C393 1.382 . S
C397 H399 0.948 . S
H398 C396 0.952 . S
H399 C397 0.948 . S
H400 C389 0.952 . S
H401 C391 0.948 . S
C402 C368 1.395 . S
C402 C372 1.391 1_455 S
C403 C365 1.389 . S
C403 C385 1.392 . S
C404 C375 1.392 . S
C404 C377 1.389 . S
C405 C380 1.395 1_455 S
C405 C382 1.391 . S
H406 C366 0.951 . S
H407 C367 0.950 . S
H408 C373 0.949 . S
H409 C374 0.950 . S
H410 C378 0.951 . S
H411 C379 0.950 . S
H412 C383 0.949 . S
H413 C384 0.950 . S
H414 C388 0.950 . S
H415 C390 0.950 . S
H416 C393 0.950 . S
H417 C395 0.950 . S
C418 C419 1.443 . S
C418 N422 1.376 . S
C418 C456 1.389 . S
C419 C418 1.443 . S
C419 C420 1.340 . S
C419 H459 0.951 . S
C420 C419 1.340 . S
C420 C421 1.439 . S
C420 H460 0.950 . S
C421 C420 1.439 . S
C421 N422 1.374 . S
C421 C455 1.395 1_565 S
N422 C418 1.376 . S
N422 C421 1.374 . S
N422 Co423 2.008 1_565 S
Co423 N422 2.008 1_545 S
Co423 N424 1.995 . S
Co423 N429 2.008 . S
Co423 N434 1.995 1_545 S
Co423 N439 2.282 . S
Co423 N445 2.282 1_545 S
N424 Co423 1.995 . S
N424 C425 1.376 . S
N424 C428 1.383 . S
C425 N424 1.376 . S
C425 C426 1.446 . S
C425 C455 1.391 . S
C426 C425 1.446 . S
C426 C427 1.339 . S
C426 H461 0.949 . S
C427 C426 1.339 . S
C427 C428 1.439 . S
C427 H462 0.950 . S
C428 N424 1.383 . S
C428 C427 1.439 . S
C428 C457 1.392 . S
N429 Co423 2.008 . S
N429 C430 1.376 . S
N429 C433 1.374 . S
C430 N429 1.376 . S
C430 C431 1.443 . S
C430 C457 1.389 . S
C431 C430 1.443 . S
C431 C432 1.340 . S
C431 H463 0.951 . S
C432 C431 1.340 . S
C432 C433 1.439 . S
C432 H464 0.950 . S
C433 N429 1.374 . S
C433 C432 1.439 . S
C433 C458 1.395 . S
N434 Co423 1.995 1_565 S
N434 C435 1.376 . S
N434 C438 1.383 . S
C435 N434 1.376 . S
C435 C436 1.446 . S
C435 C458 1.391 1_565 S
C436 C435 1.446 . S
C436 C437 1.339 . S
C436 H465 0.949 . S
C437 C436 1.339 . S
C437 C438 1.439 . S
C437 H466 0.950 . S
C438 N434 1.383 . S
C438 C437 1.439 . S
C438 C456 1.392 . S
N439 Co423 2.282 . S
N439 C442 1.332 . S
N439 C444 1.332 . S
C440 C441 1.386 . S
C440 C443 1.388 . S
C441 C440 1.386 . S
C441 C442 1.382 . S
C441 H467 0.950 . S
C442 N439 1.332 . S
C442 C441 1.382 . S
C442 H453 0.952 . S
C443 C440 1.388 . S
C443 C444 1.382 . S
C443 H468 0.950 . S
C444 N439 1.332 . S
C444 C443 1.382 . S
C444 H454 0.948 . S
N445 Co423 2.282 1_565 S
N445 C449 1.332 . S
N445 C450 1.332 . S
C446 C447 1.388 . S
C446 C450 1.382 . S
C446 H469 0.950 . S
C447 C446 1.388 . S
C447 C448 1.386 . S
C448 C447 1.386 . S
C448 C449 1.382 . S
C448 H470 0.950 . S
C449 N445 1.332 . S
C449 C448 1.382 . S
C449 H451 0.952 . S
C450 N445 1.332 . S
C450 C446 1.382 . S
C450 H452 0.948 . S
H451 C449 0.952 . S
H452 C450 0.948 . S
H453 C442 0.952 . S
H454 C444 0.948 . S
C455 C421 1.395 1_545 S
C455 C425 1.391 . S
C456 C418 1.389 . S
C456 C438 1.392 . S
C457 C428 1.392 . S
C457 C430 1.389 . S
C458 C433 1.395 . S
C458 C435 1.391 1_545 S
H459 C419 0.951 . S
H460 C420 0.950 . S
H461 C426 0.949 . S
H462 C427 0.950 . S
H463 C431 0.951 . S
H464 C432 0.950 . S
H465 C436 0.949 . S
H466 C437 0.950 . S
H467 C441 0.950 . S
H468 C443 0.950 . S
H469 C446 0.950 . S
H470 C448 0.950 . S
C471 C472 1.443 . S
C471 N475 1.376 . S
C471 C509 1.389 . S
C472 C471 1.443 . S
C472 C473 1.340 . S
C472 H512 0.951 . S
C473 C472 1.340 . S
C473 C474 1.439 . S
C473 H513 0.950 . S
C474 C473 1.439 . S
C474 N475 1.374 . S
C474 C508 1.395 . S
N475 C471 1.376 . S
N475 C474 1.374 . S
N475 Co476 2.008 . S
Co476 N475 2.008 . S
Co476 N477 1.995 1_554 S
Co476 N482 2.008 1_554 S
Co476 N487 1.995 . S
Co476 N492 2.282 1_554 S
Co476 N498 2.282 . S
N477 Co476 1.995 1_556 S
N477 C478 1.371 1_556 S
N477 C481 1.383 . S
C478 N477 1.371 1_554 S
C478 C479 1.427 1_554 S
C478 C508 1.411 . S
C479 C478 1.427 1_556 S
C479 C480 1.339 . S
C479 H514 0.949 . S
C480 C479 1.339 . S
C480 C481 1.439 . S
C480 H515 0.950 . S
C481 N477 1.383 . S
C481 C480 1.439 . S
C481 C510 1.392 . S
N482 Co476 2.008 1_556 S
N482 C483 1.376 . S
N482 C486 1.374 . S
C483 N482 1.376 . S
C483 C484 1.443 . S
C483 C510 1.389 . S
C484 C483 1.443 . S
C484 C485 1.340 . S
C484 H516 0.951 . S
C485 C484 1.340 . S
C485 C486 1.439 . S
C485 H517 0.950 . S
C486 N482 1.374 . S
C486 C485 1.439 . S
C486 C511 1.395 1_556 S
N487 Co476 1.995 . S
N487 C488 1.376 . S
N487 C491 1.383 . S
C488 N487 1.376 . S
C488 C489 1.446 . S
C488 C511 1.391 . S
C489 C488 1.446 . S
C489 C490 1.339 . S
C489 H518 0.949 . S
C490 C489 1.339 . S
C490 C491 1.439 . S
C490 H519 0.950 . S
C491 N487 1.383 . S
C491 C490 1.439 . S
C491 C509 1.392 . S
N492 Co476 2.282 1_556 S
N492 C495 1.332 . S
N492 C497 1.332 . S
C493 C494 1.386 . S
C493 C496 1.388 . S
C494 C493 1.386 . S
C494 C495 1.382 . S
C494 H520 0.950 . S
C495 N492 1.332 . S
C495 C494 1.382 . S
C495 H506 0.952 . S
C496 C493 1.388 . S
C496 C497 1.382 . S
C496 H521 0.950 . S
C497 N492 1.332 . S
C497 C496 1.382 . S
C497 H507 0.948 . S
N498 Co476 2.282 . S
N498 C502 1.332 . S
N498 C503 1.332 . S
C499 C500 1.388 . S
C499 C503 1.382 . S
C499 H522 0.950 . S
C500 C499 1.388 . S
C500 C501 1.386 . S
C501 C500 1.386 . S
C501 C502 1.382 . S
C501 H523 0.950 . S
C502 N498 1.332 . S
C502 C501 1.382 . S
C502 H504 0.952 . S
C503 N498 1.332 . S
C503 C499 1.382 . S
C503 H505 0.948 . S
H504 C502 0.952 . S
H505 C503 0.948 . S
H506 C495 0.952 . S
H507 C497 0.948 . S
C508 C474 1.395 . S
C508 C478 1.411 . S
C509 C471 1.389 . S
C509 C491 1.392 . S
C510 C481 1.392 . S
C510 C483 1.389 . S
C511 C486 1.395 1_554 S
C511 C488 1.391 . S
H512 C472 0.951 . S
H513 C473 0.950 . S
H514 C479 0.949 . S
H515 C480 0.950 . S
H516 C484 0.951 . S
H517 C485 0.950 . S
H518 C489 0.949 . S
H519 C490 0.950 . S
H520 C494 0.950 . S
H521 C496 0.950 . S
H522 C499 0.950 . S
H523 C501 0.950 . S
C524 C525 1.443 . S
C524 N528 1.351 1_565 S
C524 C562 1.389 . S
C525 C524 1.443 . S
C525 C526 1.340 . S
C525 H565 0.951 . S
C526 C525 1.340 . S
C526 C527 1.439 1_565 S
C526 H566 0.950 . S
C527 C526 1.439 1_545 S
C527 N528 1.374 . S
C527 C561 1.395 . S
N528 C524 1.351 1_545 S
N528 C527 1.374 . S
N528 Co529 2.027 . S
Co529 N528 2.027 . S
Co529 N530 1.995 . S
Co529 N535 2.008 . S
Co529 N540 2.004 . S
Co529 N545 2.282 . S
Co529 N551 2.282 1_545 S
N530 Co529 1.995 . S
N530 C531 1.376 . S
N530 C534 1.383 . S
C531 N530 1.376 . S
C531 C532 1.446 . S
C531 C561 1.391 . S
C532 C531 1.446 . S
C532 C533 1.339 . S
C532 H567 0.949 . S
C533 C532 1.339 . S
C533 C534 1.439 . S
C533 H568 0.950 . S
C534 N530 1.383 . S
C534 C533 1.439 . S
C534 C563 1.392 . S
N535 Co529 2.008 . S
N535 C536 1.376 . S
N535 C539 1.374 . S
C536 N535 1.376 . S
C536 C537 1.443 . S
C536 C563 1.389 . S
C537 C536 1.443 . S
C537 C538 1.340 . S
C537 H569 0.951 . S
C538 C537 1.340 . S
C538 C539 1.439 . S
C538 H570 0.950 . S
C539 N535 1.374 . S
C539 C538 1.439 . S
C539 C564 1.395 . S
N540 Co529 2.004 . S
N540 C541 1.380 . S
N540 C544 1.366 1_545 S
C541 N540 1.380 . S
C541 C542 1.446 1_545 S
C541 C564 1.391 . S
C542 C541 1.446 1_565 S
C542 C543 1.339 . S
C542 H571 0.949 . S
C543 C542 1.339 . S
C543 C544 1.439 . S
C543 H572 0.950 . S
C544 N540 1.366 1_565 S
C544 C543 1.439 . S
C544 C562 1.392 . S
N545 Co529 2.282 . S
N545 C548 1.332 . S
N545 C550 1.332 . S
C546 C547 1.386 . S
C546 C549 1.388 . S
C547 C546 1.386 . S
C547 C548 1.382 . S
C547 H573 0.950 . S
C548 N545 1.332 . S
C548 C547 1.382 . S
C548 H559 0.952 . S
C549 C546 1.388 . S
C549 C550 1.382 . S
C549 H574 0.950 . S
C550 N545 1.332 . S
C550 C549 1.382 . S
C550 H560 0.948 . S
N551 Co529 2.282 1_565 S
N551 C555 1.332 . S
N551 C556 1.332 . S
C552 C553 1.388 . S
C552 C556 1.382 . S
C552 H575 0.950 . S
C553 C552 1.388 . S
C553 C554 1.386 . S
C554 C553 1.386 . S
C554 C555 1.382 . S
C554 H576 0.950 . S
C555 N551 1.332 . S
C555 C554 1.382 . S
C555 H557 0.952 . S
C556 N551 1.332 . S
C556 C552 1.382 . S
C556 H558 0.948 . S
H557 C555 0.952 . S
H558 C556 0.948 . S
H559 C548 0.952 . S
H560 C550 0.948 . S
C561 C527 1.395 . S
C561 C531 1.391 . S
C562 C524 1.389 . S
C562 C544 1.392 . S
C563 C534 1.392 . S
C563 C536 1.389 . S
C564 C539 1.395 . S
C564 C541 1.391 . S
H565 C525 0.951 . S
H566 C526 0.950 . S
H567 C532 0.949 . S
H568 C533 0.950 . S
H569 C537 0.951 . S
H570 C538 0.950 . S
H571 C542 0.949 . S
H572 C543 0.950 . S
H573 C547 0.950 . S
H574 C549 0.950 . S
H575 C552 0.950 . S
H576 C554 0.950 . S
C577 C578 1.443 . S
C577 N581 1.376 . S
C577 C615 1.389 . S
C578 C577 1.443 . S
C578 C579 1.340 . S
C578 H618 0.951 . S
C579 C578 1.340 . S
C579 C580 1.439 . S
C579 H619 0.950 . S
C580 C579 1.439 . S
C580 N581 1.374 . S
C580 C614 1.395 . S
N581 C577 1.376 . S
N581 C580 1.374 . S
N581 Co582 2.008 . S
Co582 N581 2.008 . S
Co582 N583 1.995 . S
Co582 N588 2.008 . S
Co582 N593 1.995 . S
Co582 N598 2.282 1_554 S
Co582 N604 2.282 . S
N583 Co582 1.995 . S
N583 C584 1.376 . S
N583 C587 1.383 1_554 S
C584 N583 1.376 . S
C584 C585 1.446 1_554 S
C584 C614 1.391 . S
C585 C584 1.446 1_556 S
C585 C586 1.339 . S
C585 H620 0.949 . S
C586 C585 1.339 . S
C586 C587 1.439 . S
C586 H621 0.950 . S
C587 N583 1.383 1_556 S
C587 C586 1.439 . S
C587 C616 1.392 . S
N588 Co582 2.008 . S
N588 C589 1.376 1_554 S
N588 C592 1.374 . S
C589 N588 1.376 1_556 S
C589 C590 1.443 . S
C589 C616 1.389 . S
C590 C589 1.443 . S
C590 C591 1.340 . S
C590 H622 0.951 . S
C591 C590 1.340 . S
C591 C592 1.439 1_556 S
C591 H623 0.950 . S
C592 N588 1.374 . S
C592 C591 1.439 1_554 S
C592 C617 1.395 . S
N593 Co582 1.995 . S
N593 C594 1.376 . S
N593 C597 1.383 . S
C594 N593 1.376 . S
C594 C595 1.446 . S
C594 C617 1.391 . S
C595 C594 1.446 . S
C595 C596 1.339 . S
C595 H624 0.949 . S
C596 C595 1.339 . S
C596 C597 1.439 . S
C596 H625 0.950 . S
C597 N593 1.383 . S
C597 C596 1.439 . S
C597 C615 1.392 . S
N598 Co582 2.282 1_556 S
N598 C601 1.332 . S
N598 C603 1.332 . S
C599 C600 1.386 . S
C599 C602 1.388 . S
C600 C599 1.386 . S
C600 C601 1.382 . S
C600 H626 0.950 . S
C601 N598 1.332 . S
C601 C600 1.382 . S
C601 H612 0.952 1_556 S
C602 C599 1.388 . S
C602 C603 1.382 . S
C602 H627 0.950 . S
C603 N598 1.332 . S
C603 C602 1.382 . S
C603 H613 0.948 . S
N604 Co582 2.282 . S
N604 C608 1.332 . S
N604 C609 1.332 . S
C605 C606 1.388 . S
C605 C609 1.382 . S
C605 H628 0.950 . S
C606 C605 1.388 . S
C606 C607 1.386 . S
C607 C606 1.386 . S
C607 C608 1.382 . S
C607 H629 0.950 . S
C608 N604 1.332 . S
C608 C607 1.382 . S
C608 H610 0.952 . S
C609 N604 1.332 . S
C609 C605 1.382 . S
C609 H611 0.948 . S
H610 C608 0.952 . S
H611 C609 0.948 . S
H612 C601 0.952 1_554 S
H613 C603 0.948 . S
C614 C580 1.395 . S
C614 C584 1.391 . S
C615 C577 1.389 . S
C615 C597 1.392 . S
C616 C587 1.392 . S
C616 C589 1.389 . S
C617 C592 1.395 . S
C617 C594 1.391 . S
H618 C578 0.951 . S
H619 C579 0.950 . S
H620 C585 0.949 . S
H621 C586 0.950 . S
H622 C590 0.951 . S
H623 C591 0.950 . S
H624 C595 0.949 . S
H625 C596 0.950 . S
H626 C600 0.950 . S
H627 C602 0.950 . S
H628 C605 0.950 . S
H629 C607 0.950 . S
C334 C16 1.651 . S
C403 C55 1.579 . S
C341 C99 1.623 . S
C404 C138 1.586 . S
C457 C1 1.759 . S
C493 C40 1.584 . S
C94 C553 1.685 . S
C616 C133 1.578 . S
C456 C60 1.657 . S
C79 C500 1.618 . S
C546 C118 1.660 . S
C615 C21 1.636 . S
C177 C394 1.617 . S
C351 C211 1.601 . S
C255 C387 1.600 . S
C289 C350 1.623 . S
C562 C157 1.709 . S
C606 C196 1.607 . S
C440 C250 1.755 . S
C294 C509 1.585 . S
C563 C216 1.659 . S
C599 C235 1.615 . S
C447 C274 1.737 . S
C172 C510 1.616 . S
