# Generated by pormake.
# Topology zzz, (3,6)-cn, num edge types: 1
# Building blocks:
#     Node 0, Type 0, BuildingBlock: MIDCAF_clean_linker_0, # of connection points: 3
#     Node 1, Type 0, BuildingBlock: MIDCAF_clean_linker_0, # of connection points: 3
#     Node 2, Type 0, BuildingBlock: MIDCAF_clean_linker_0, # of connection points: 3
#     Node 3, Type 0, BuildingBlock: MIDCAF_clean_linker_0, # of connection points: 3
#     Node 4, Type 0, BuildingBlock: MIDCAF_clean_linker_0, # of connection points: 3
#     Node 5, Type 0, BuildingBlock: MIDCAF_clean_linker_0, # of connection points: 3
#     Node 6, Type 0, BuildingBlock: MIDCAF_clean_linker_0, # of connection points: 3
#     Node 7, Type 0, BuildingBlock: MIDCAF_clean_linker_0, # of connection points: 3
#     Node 8, Type 1, BuildingBlock: GEDQOX_clean_sbu_0, # of connection points: 6
#     Node 9, Type 1, BuildingBlock: GEDQOX_clean_sbu_0, # of connection points: 6
#     Node 10, Type 1, BuildingBlock: GEDQOX_clean_sbu_0, # of connection points: 6
#     Node 11, Type 1, BuildingBlock: GEDQOX_clean_sbu_0, # of connection points: 6
#     Edge 12, Type (0, 1), BuildingBlock: OJICUG_clean_linker_0, # of connection points: 2
#     Edge 13, Type (0, 1), BuildingBlock: OJICUG_clean_linker_0, # of connection points: 2
#     Edge 14, Type (0, 1), BuildingBlock: OJICUG_clean_linker_0, # of connection points: 2
#     Edge 15, Type (0, 1), BuildingBlock: OJICUG_clean_linker_0, # of connection points: 2
#     Edge 16, Type (0, 1), BuildingBlock: OJICUG_clean_linker_0, # of connection points: 2
#     Edge 17, Type (0, 1), BuildingBlock: OJICUG_clean_linker_0, # of connection points: 2
#     Edge 18, Type (0, 1), BuildingBlock: OJICUG_clean_linker_0, # of connection points: 2
#     Edge 19, Type (0, 1), BuildingBlock: OJICUG_clean_linker_0, # of connection points: 2
#     Edge 20, Type (0, 1), BuildingBlock: OJICUG_clean_linker_0, # of connection points: 2
#     Edge 21, Type (0, 1), BuildingBlock: OJICUG_clean_linker_0, # of connection points: 2
#     Edge 22, Type (0, 1), BuildingBlock: OJICUG_clean_linker_0, # of connection points: 2
#     Edge 23, Type (0, 1), BuildingBlock: OJICUG_clean_linker_0, # of connection points: 2
#     Edge 24, Type (0, 1), BuildingBlock: OJICUG_clean_linker_0, # of connection points: 2
#     Edge 25, Type (0, 1), BuildingBlock: OJICUG_clean_linker_0, # of connection points: 2
#     Edge 26, Type (0, 1), BuildingBlock: OJICUG_clean_linker_0, # of connection points: 2
#     Edge 27, Type (0, 1), BuildingBlock: OJICUG_clean_linker_0, # of connection points: 2
#     Edge 28, Type (0, 1), BuildingBlock: OJICUG_clean_linker_0, # of connection points: 2
#     Edge 29, Type (0, 1), BuildingBlock: OJICUG_clean_linker_0, # of connection points: 2
#     Edge 30, Type (0, 1), BuildingBlock: OJICUG_clean_linker_0, # of connection points: 2
#     Edge 31, Type (0, 1), BuildingBlock: OJICUG_clean_linker_0, # of connection points: 2
#     Edge 32, Type (0, 1), BuildingBlock: OJICUG_clean_linker_0, # of connection points: 2
#     Edge 33, Type (0, 1), BuildingBlock: OJICUG_clean_linker_0, # of connection points: 2
#     Edge 34, Type (0, 1), BuildingBlock: OJICUG_clean_linker_0, # of connection points: 2
#     Edge 35, Type (0, 1), BuildingBlock: OJICUG_clean_linker_0, # of connection points: 2
# Relax obj value: 0.317
# Max RMSD: 0.322
# Mean RMSD: 0.197
data_MOF--net-zzz--node1-GEDQOX_clean_sbu_0--node2-MIDCAF_clean_linker_0--edge1-OJICUG_clean_linker_0
_symmetry_space_group_name_H-M    P1
_symmetry_Int_Tables_number       1
_symmetry_cell_setting            triclinic
loop_
_symmetry_equiv_pos_as_xyz
'x, y, z'
_cell_length_a     48.815365
_cell_length_b     45.638063
_cell_length_c     17.960773
_cell_angle_alpha  79.520557
_cell_angle_beta   90.477191
_cell_angle_gamma 104.3535
loop_
_atom_site_label
_atom_site_type_symbol
_atom_site_fract_x
_atom_site_fract_y
_atom_site_fract_z
_atom_type_partial_charge
C0 C 0.82474 0.50139 0.38321 0.0
C1 C 0.82117 0.52785 0.40742 0.0
C2 C 0.80161 0.54314 0.37151 0.0
C3 C 0.78676 0.5329 0.31033 0.0
H4 H 0.71521 0.53351 0.18307 0.0
H5 H 0.67206 0.54718 0.13909 0.0
H6 H 0.6801 0.51386 0.93225 0.0
H7 H 0.72369 0.50042 0.97555 0.0
H8 H 0.80349 0.50963 0.95259 0.0
H9 H 0.84437 0.50433 0.88626 0.0
H10 H 0.85051 0.42784 0.06254 0.0
H11 H 0.81097 0.43552 0.13192 0.0
H12 H 0.81442 0.47178 0.30203 0.0
H13 H 0.83987 0.48931 0.40949 0.0
H14 H 0.7984 0.56351 0.3894 0.0
H15 H 0.77262 0.54585 0.28191 0.0
N16 N 0.75711 0.50948 0.18274 0.0
N17 N 0.76307 0.4928 0.06913 0.0
N18 N 0.7942 0.4867 0.16765 0.0
C19 C 0.74823 0.50555 0.11242 0.0
C20 C 0.78589 0.48303 0.09698 0.0
C21 C 0.78003 0.50005 0.21075 0.0
C22 C 0.72285 0.51551 0.08327 0.0
C23 C 0.70799 0.5292 0.12797 0.0
C24 C 0.68318 0.53701 0.10289 0.0
C25 C 0.67259 0.53135 0.03255 0.0
C26 C 0.68788 0.51868 0.98652 0.0
C27 C 0.71276 0.51079 0.01166 0.0
C28 C 0.80449 0.47331 0.04769 0.0
C29 C 0.81318 0.49117 0.97594 0.0
C30 C 0.83671 0.48791 0.93769 0.0
C31 C 0.85161 0.46611 0.9696 0.0
C32 C 0.84052 0.44576 0.03738 0.0
C33 C 0.81759 0.4498 0.07684 0.0
C34 C 0.79168 0.50756 0.28314 0.0
C35 C 0.81029 0.49147 0.3214 0.0
C36 C 0.96573 0.78175 0.49321 0.0
C37 C 0.98675 0.79194 0.54348 0.0
C38 C 0.01172 0.78168 0.54434 0.0
C39 C 0.01711 0.76532 0.4897 0.0
H40 H 0.00901 0.67155 0.31912 0.0
H41 H 0.00731 0.62936 0.25037 0.0
H42 H 0.99451 0.68796 0.04218 0.0
H43 H 0.99708 0.72989 0.11 0.0
H44 H 0.04132 0.7976 0.08958 0.0
H45 H 0.05159 0.84802 0.00727 0.0
H46 H 0.05493 0.89121 0.2033 0.0
H47 H 0.04539 0.84116 0.28562 0.0
H48 H 0.95583 0.76061 0.39573 0.0
H49 H 0.94629 0.7892 0.49039 0.0
H50 H 0.02809 0.78837 0.58344 0.0
H51 H 0.03783 0.76091 0.48614 0.0
N52 N 0.00169 0.73025 0.32962 0.0
N53 N 0.02362 0.75895 0.21357 0.0
N54 N 0.02201 0.78349 0.31577 0.0
C55 C 0.00984 0.73153 0.25616 0.0
C56 C 0.02993 0.78498 0.24302 0.0
C57 C 0.00807 0.75653 0.35932 0.0
C58 C 0.00359 0.7041 0.21978 0.0
C59 C 0.00531 0.67508 0.25898 0.0
C60 C 0.00435 0.65097 0.21946 0.0
C61 C 0.0014 0.65546 0.14026 0.0
C62 C 0.9977 0.68392 0.10256 0.0
C63 C 0.99896 0.70792 0.14164 0.0
C64 C 0.04184 0.81527 0.19416 0.0
C65 C 0.04492 0.81787 0.11531 0.0
C66 C 0.05071 0.84674 0.06806 0.0
C67 C 0.05355 0.8735 0.09878 0.0
C68 C 0.05295 0.87105 0.17784 0.0
C69 C 0.0472 0.84224 0.22506 0.0
C70 C 0.99742 0.75828 0.43425 0.0
C71 C 0.97104 0.76503 0.43918 0.0
C72 C 0.67987 0.971 0.30815 0.0
C73 C 0.69197 0.96466 0.37863 0.0
C74 C 0.72167 0.9705 0.38143 0.0
C75 C 0.73886 0.98436 0.31595 0.0
H76 H 0.81518 0.98997 0.17221 0.0
H77 H 0.86226 0.98669 0.13576 0.0
H78 H 0.86691 0.06237 0.94878 0.0
H79 H 0.81999 0.0653 0.98369 0.0
H80 H 0.75523 0.07404 0.92101 0.0
H81 H 0.72283 0.09601 0.8368 0.0
H82 H 0.67222 0.09749 0.03193 0.0
H83 H 0.70463 0.07651 0.11478 0.0
H84 H 0.68681 0.99089 0.1908 0.0
H85 H 0.65717 0.96717 0.30352 0.0
H86 H 0.73164 0.96553 0.43474 0.0
H87 H 0.76164 0.9901 0.32023 0.0
N88 N 0.77024 0.01134 0.16428 0.0
N89 N 0.77268 0.0502 0.05653 0.0
N90 N 0.73206 0.03351 0.13602 0.0
C91 C 0.7849 0.02993 0.10158 0.0
C92 C 0.74638 0.05232 0.07416 0.0
C93 C 0.7436 0.01296 0.18111 0.0
C94 C 0.81365 0.02786 0.08091 0.0
C95 C 0.82622 0.00587 0.12323 0.0
C96 C 0.85325 1.00403 0.1025 0.0
C97 C 0.86828 0.02411 0.03901 0.0
C98 C 0.85572 0.0461 0.99704 0.0
C99 C 0.8288 0.04793 0.01758 0.0
C100 C 0.73195 0.07275 0.02426 0.0
C101 C 0.73772 0.08014 0.94566 0.0
C102 C 0.7191 0.09262 0.89749 0.0
C103 C 0.69455 0.09795 0.92736 0.0
C104 C 0.69085 0.09387 0.00645 0.0
C105 C 0.70929 0.08137 0.05425 0.0
C106 C 0.72654 0.99288 0.2471 0.0
C107 C 0.69693 0.98498 0.24339 0.0
C108 C 0.62141 0.74334 0.27429 0.0
C109 C 0.61029 0.74868 0.20214 0.0
C110 C 0.61083 0.77902 0.16756 0.0
C111 C 0.61775 0.80262 0.20928 0.0
H112 H 0.62538 0.8973 0.23608 0.0
H113 H 0.60876 0.93513 0.14972 0.0
H114 H 0.53393 0.91826 0.29457 0.0
H115 H 0.5501 0.87786 0.37927 0.0
H116 H 0.54071 0.78428 0.50091 0.0
H117 H 0.52752 0.73561 0.59162 0.0
H118 H 0.61374 0.74983 0.66293 0.0
H119 H 0.62675 0.7981 0.5717 0.0
H120 H 0.63362 0.76126 0.37473 0.0
H121 H 0.62222 0.72032 0.30116 0.0
H122 H 0.60278 0.784 0.11154 0.0
H123 H 0.61481 0.82498 0.18377 0.0
N124 N 0.61064 0.84195 0.31033 0.0
N125 N 0.58774 0.84118 0.42587 0.0
N126 N 0.60931 0.80167 0.41116 0.0
C127 C 0.59659 0.85562 0.3531 0.0
C128 C 0.59506 0.8144 0.45544 0.0
C129 C 0.61691 0.81496 0.33844 0.0
C130 C 0.58885 0.88401 0.31414 0.0
C131 C 0.60545 0.90175 0.25031 0.0
C132 C 0.59591 0.92398 0.20059 0.0
C133 C 0.56962 0.93 0.21356 0.0
C134 C 0.55392 0.91389 0.28094 0.0
C135 C 0.56339 0.89105 0.33059 0.0
C136 C 0.58466 0.79527 0.53008 0.0
C137 C 0.55641 0.77785 0.53915 0.0
C138 C 0.54898 0.74968 0.59047 0.0
C139 C 0.56974 0.73835 0.63338 0.0
C140 C 0.59734 0.75745 0.62968 0.0
C141 C 0.6047 0.78549 0.57859 0.0
C142 C 0.6237 0.79595 0.28636 0.0
C143 C 0.62814 0.76687 0.31619 0.0
C144 C 0.22382 0.58562 0.31362 0.0
C145 C 0.22755 0.55924 0.2894 0.0
C146 C 0.24722 0.54409 0.32526 0.0
C147 C 0.26202 0.5544 0.38642 0.0
H148 H 0.33448 0.55578 0.51148 0.0
H149 H 0.37816 0.54311 0.55422 0.0
H150 H 0.36959 0.57536 0.76233 0.0
H151 H 0.32545 0.58779 0.72025 0.0
H152 H 0.23697 0.65105 0.56606 0.0
H153 H 0.19726 0.6583 0.63559 0.0
H154 H 0.2035 0.58147 0.81069 0.0
H155 H 0.24454 0.57656 0.74416 0.0
H156 H 0.23397 0.61524 0.39485 0.0
H157 H 0.2086 0.59759 0.28738 0.0
H158 H 0.25053 0.52376 0.30737 0.0
H159 H 0.27625 0.54157 0.41483 0.0
N160 N 0.29177 0.57836 0.51346 0.0
N161 N 0.28552 0.5946 0.62754 0.0
N162 N 0.25404 0.60008 0.52957 0.0
C163 C 0.30068 0.58237 0.58371 0.0
C164 C 0.26236 0.6038 0.6002 0.0
C165 C 0.26852 0.58722 0.48601 0.0
C166 C 0.32649 0.57312 0.61204 0.0
C167 C 0.3417 0.56008 0.56658 0.0
C168 C 0.36684 0.55287 0.59092 0.0
C169 C 0.37742 0.55848 0.66131 0.0
C170 C 0.36184 0.57058 0.708 0.0
C171 C 0.33663 0.57788 0.68358 0.0
C172 C 0.24355 0.61313 0.64973 0.0
C173 C 0.23033 0.63659 0.62093 0.0
C174 C 0.2073 0.64038 0.66046 0.0
C175 C 0.19622 0.61987 0.72801 0.0
C176 C 0.21117 0.59803 0.75949 0.0
C177 C 0.23479 0.595 0.72115 0.0
C178 C 0.25694 0.57967 0.41362 0.0
C179 C 0.23822 0.59561 0.37543 0.0
C180 C 0.08374 0.30434 0.21112 0.0
C181 C 0.06285 0.29512 0.15966 0.0
C182 C 0.03843 0.30642 0.15787 0.0
C183 C 0.03325 0.32267 0.21301 0.0
H184 H 0.03969 0.41428 0.38412 0.0
H185 H 0.04091 0.45665 0.45184 0.0
H186 H 0.05281 0.39846 0.66167 0.0
H187 H 0.05065 0.35633 0.59487 0.0
H188 H 0.00813 0.28773 0.61408 0.0
H189 H 0.99763 0.2372 0.69594 0.0
H190 H 0.9967 0.19451 0.49975 0.0
H191 H 0.00645 0.24466 0.41786 0.0
H192 H 0.09365 0.32455 0.30991 0.0
H193 H 0.10276 0.29609 0.21474 0.0
H194 H 0.02221 0.30054 0.1178 0.0
H195 H 0.0128 0.32778 0.21595 0.0
N196 N 0.04737 0.35606 0.37455 0.0
N197 N 0.02588 0.32679 0.49055 0.0
N198 N 0.02842 0.3026 0.3882 0.0
C199 C 0.03909 0.35447 0.44803 0.0
C200 C 0.02031 0.3008 0.46096 0.0
C201 C 0.04178 0.32983 0.34476 0.0
C202 C 0.04464 0.3819 0.48435 0.0
C203 C 0.04302 0.41085 0.44445 0.0
C204 C 0.04373 0.43507 0.48336 0.0
C205 C 0.04635 0.43078 0.56265 0.0
C206 C 0.04986 0.40236 0.60116 0.0
C207 C 0.04883 0.37823 0.56268 0.0
C208 C 0.00877 0.27034 0.50947 0.0
C209 C 0.00506 0.26755 0.5882 0.0
C210 C 0.99914 0.23861 0.63519 0.0
C211 C 0.9968 0.21194 0.60436 0.0
C212 C 0.99824 0.21457 0.5253 0.0
C213 C 0.00411 0.24345 0.47834 0.0
C214 C 0.05265 0.32856 0.26975 0.0
C215 C 0.07867 0.32097 0.26555 0.0
C216 C 0.32858 0.04426 0.31208 0.0
C217 C 0.33431 0.07513 0.27504 0.0
C218 C 0.32197 0.09562 0.3042 0.0
C219 C 0.30506 0.0856 0.3711 0.0
H220 H 0.21181 0.05559 0.49686 0.0
H221 H 0.16655 0.06133 0.53888 0.0
H222 H 0.19926 0.06953 0.76085 0.0
H223 H 0.24395 0.06193 0.71958 0.0
H224 H 0.312 0.97309 0.61329 0.0
H225 H 0.34767 0.95568 0.69285 0.0
H226 H 0.34982 0.02821 0.82023 0.0
H227 H 0.31247 0.04329 0.74492 0.0
H228 H 0.30953 0.01097 0.40921 0.0
H229 H 0.33808 0.02808 0.29123 0.0
H230 H 0.32614 0.11954 0.27659 0.0
H231 H 0.29677 0.10208 0.39443 0.0
N232 N 0.26629 0.05599 0.50912 0.0
N233 N 0.27094 0.03424 0.63639 0.0
N234 N 0.30182 0.03007 0.54197 0.0
C235 C 0.25704 0.04963 0.58304 0.0
C236 C 0.29312 0.0241 0.61579 0.0
C237 C 0.28877 0.04625 0.48855 0.0
C238 C 0.23127 0.0579 0.60522 0.0
C239 C 0.20942 0.05905 0.55431 0.0
C240 C 0.18346 0.06253 0.57847 0.0
C241 C 0.17894 0.06553 0.65378 0.0
C242 C 0.20157 0.06638 0.70313 0.0
C243 C 0.22731 0.06225 0.67939 0.0
C244 C 0.30981 0.00962 0.67293 0.0
C245 C 0.31958 0.98448 0.66016 0.0
C246 C 0.34028 0.97481 0.70533 0.0
C247 C 0.35254 0.99098 0.76208 0.0
C248 C 0.34101 0.01475 0.77802 0.0
C249 C 0.31961 0.02368 0.73446 0.0
C250 C 0.30096 0.05521 0.41056 0.0
C251 C 0.31233 0.03449 0.37961 0.0
C252 C 0.43446 0.34901 0.45546 0.0
C253 C 0.4397 0.33925 0.53191 0.0
C254 C 0.43456 0.30754 0.56062 0.0
C255 C 0.42943 0.28661 0.51126 0.0
H256 H 0.43541 0.20188 0.49444 0.0
H257 H 0.45166 0.16119 0.56982 0.0
H258 H 0.51443 0.16822 0.3946 0.0
H259 H 0.49896 0.21155 0.31948 0.0
H260 H 0.5111 0.30975 0.20578 0.0
H261 H 0.52268 0.3567 0.10892 0.0
H262 H 0.43478 0.34107 0.05182 0.0
H263 H 0.42341 0.29465 0.14941 0.0
H264 H 0.42831 0.33693 0.34629 0.0
H265 H 0.43781 0.37321 0.43135 0.0
H266 H 0.4374 0.29924 0.61991 0.0
H267 H 0.42869 0.26274 0.53399 0.0
N268 N 0.44414 0.25248 0.40674 0.0
N269 N 0.46556 0.2532 0.2893 0.0
N270 N 0.44378 0.29235 0.30619 0.0
C271 C 0.45794 0.23899 0.36292 0.0
C272 C 0.45766 0.27974 0.2606 0.0
C273 C 0.43709 0.27909 0.37942 0.0
C274 C 0.46602 0.21052 0.40065 0.0
C275 C 0.45267 0.19496 0.47101 0.0
C276 C 0.46184 0.17098 0.51449 0.0
C277 C 0.48439 0.16086 0.48892 0.0
C278 C 0.49722 0.17552 0.41695 0.0
C279 C 0.48814 0.20013 0.37325 0.0
C280 C 0.46643 0.29826 0.1843 0.0
C281 C 0.49459 0.3155 0.16963 0.0
C282 C 0.50112 0.34267 0.11464 0.0
C283 C 0.47954 0.35316 0.07356 0.0
C284 C 0.45184 0.33415 0.08342 0.0
C285 C 0.44538 0.30715 0.13828 0.0
C286 C 0.42942 0.29723 0.43265 0.0
C287 C 0.42916 0.32809 0.40624 0.0
Nd288 Nd 0.00743 0.02552 0.79585 0.0
Nd289 Nd 0.04035 0.05926 0.91087 0.0
C290 C 0.97415 0.98438 0.72635 0.0
C291 C 0.97491 0.95412 0.70983 0.0
C292 C 0.95317 0.93821 0.66988 0.0
C293 C 0.9544 0.91006 0.65112 0.0
C294 C 0.97747 0.89732 0.67196 0.0
C295 C 0.99891 0.91313 0.71363 0.0
C296 C 0.99766 0.94127 0.73224 0.0
C297 C 0.06365 0.05134 0.75531 0.0
C298 C 0.03876 0.98835 0.93201 0.0
C299 C 0.07345 0.10071 0.97957 0.0
C300 C 0.07208 0.13023 1.00127 0.0
C301 C 0.0886 0.15836 0.96101 0.0
C302 C 0.08717 0.18633 0.98056 0.0
C303 C 0.06922 0.18681 0.04096 0.0
C304 C 0.053 0.1586 0.08173 0.0
C305 C 0.0544 0.13071 0.06218 0.0
C306 C 0.98403 0.03382 0.95157 0.0
C307 C 0.00934 0.09653 0.77385 0.0
O308 O 0.97048 0.98557 0.7977 0.0
O309 O 0.9935 0.00792 0.69093 0.0
O310 O 0.04346 0.05096 0.70784 0.0
O311 O 0.054 0.03734 0.82032 0.0
O312 O 0.01737 0.98707 0.88617 0.0
O313 O 0.05474 0.01494 0.94309 0.0
O314 O 0.07602 0.10071 0.90708 0.0
O315 O 0.05616 0.07553 0.01592 0.0
O316 O 0.00418 0.03489 0.99926 0.0
O317 O 0.99378 0.04748 0.88639 0.0
O318 O 0.03047 0.09771 0.82053 0.0
O319 O 0.9934 0.07001 0.76219 0.0
H320 H 0.93547 0.94782 0.65202 0.0
H321 H 0.93771 0.89879 0.61819 0.0
H322 H 0.01679 0.90386 0.73146 0.0
H323 H 0.01465 0.95321 0.76326 0.0
H324 H 0.10255 0.15874 0.91407 0.0
H325 H 0.09985 0.20759 0.94771 0.0
H326 H 0.03941 0.15798 0.12964 0.0
H327 H 0.04156 0.10954 0.09503 0.0
Nd328 Nd 0.53265 0.01776 0.79472 0.0
Nd329 Nd 0.51805 0.06154 0.88237 0.0
C330 C 0.54317 0.97106 0.74131 0.0
C331 C 0.56737 0.9657 0.70276 0.0
C332 C 0.56635 0.93652 0.68685 0.0
C333 C 0.5885 0.93196 0.64497 0.0
C334 C 0.61198 0.9566 0.61818 0.0
C335 C 0.61316 0.98562 0.63653 0.0
C336 C 0.5911 0.99008 0.67855 0.0
C337 C 0.52362 0.06987 0.70476 0.0
C338 C 0.58402 0.07302 0.82327 0.0
C339 C 0.50472 0.10541 0.94118 0.0
C340 C 0.47861 0.10448 0.9826 0.0
C341 C 0.47227 0.13146 0.99574 0.0
C342 C 0.44708 0.12985 0.03511 0.0
C343 C 0.4279 0.10119 0.06155 0.0
C344 C 0.43446 0.07432 0.04746 0.0
C345 C 0.45945 0.07598 0.00826 0.0
C346 C 0.52706 0.00919 0.9723 0.0
C347 C 0.46634 0.00742 0.84982 0.0
O348 O 0.54637 0.97418 0.81203 0.0
O349 O 0.53113 0.99124 0.70254 0.0
O350 O 0.54402 0.05762 0.69175 0.0
O351 O 0.50888 0.05455 0.7629 0.0
O352 O 0.57729 0.045 0.80834 0.0
O353 O 0.56455 0.08591 0.84399 0.0
O354 O 0.50184 0.10347 0.86967 0.0
O355 O 0.52 0.08763 0.97575 0.0
O356 O 0.5063 0.02109 0.98368 0.0
O357 O 0.54196 0.02475 0.91465 0.0
O358 O 0.47329 0.03493 0.86741 0.0
O359 O 0.48558 0.99453 0.82811 0.0
H360 H 0.54818 0.91743 0.70546 0.0
H361 H 0.58703 0.90928 0.63262 0.0
H362 H 0.63058 0.00529 0.61582 0.0
H363 H 0.59218 0.0128 0.69028 0.0
H364 H 0.48676 0.15368 0.97576 0.0
H365 H 0.4426 0.15098 0.04463 0.0
H366 H 0.42062 0.05181 0.06832 0.0
H367 H 0.46395 0.05487 0.99863 0.0
Nd368 Nd 0.50857 0.55072 0.90726 0.0
Nd369 Nd 0.54147 0.53904 0.78653 0.0
C370 C 0.48291 0.57609 0.99551 0.0
C371 C 0.49921 0.60327 0.02288 0.0
C372 C 0.48835 0.6165 0.07664 0.0
C373 C 0.506 0.64109 0.10443 0.0
C374 C 0.53453 0.65253 0.07838 0.0
C375 C 0.54496 0.63926 0.02393 0.0
C376 C 0.52754 0.61488 0.99683 0.0
C377 C 0.56249 0.54782 0.94696 0.0
C378 C 0.54358 0.60908 0.77992 0.0
C379 C 0.57073 0.51544 0.7023 0.0
C380 C 0.55979 0.48622 0.67511 0.0
C381 C 0.55302 0.4581 0.72697 0.0
C382 C 0.53399 0.43242 0.70832 0.0
C383 C 0.52157 0.43444 0.63749 0.0
C384 C 0.5306 0.46146 0.58301 0.0
C385 C 0.54973 0.48708 0.60146 0.0
C386 C 0.48771 0.54207 0.74607 0.0
C387 C 0.50469 0.48041 0.91234 0.0
O388 O 0.47989 0.58033 0.9222 0.0
O389 O 0.49136 0.55123 0.02084 0.0
O390 O 0.54032 0.53591 0.99119 0.0
O391 O 0.55629 0.56176 0.88459 0.0
O392 O 0.5201 0.59715 0.82216 0.0
O393 O 0.55995 0.59127 0.76757 0.0
O394 O 0.57383 0.5133 0.7754 0.0
O395 O 0.55863 0.53736 0.67414 0.0
O396 O 0.50991 0.55352 0.70146 0.0
O397 O 0.49372 0.52816 0.80877 0.0
O398 O 0.52778 0.49167 0.868 0.0
O399 O 0.48905 0.49875 0.92623 0.0
H400 H 0.4666 0.60758 0.0978 0.0
H401 H 0.49744 0.65106 0.14638 0.0
H402 H 0.56692 0.64702 1.00403 0.0
H403 H 0.53655 0.60446 0.95678 0.0
H404 H 0.56067 0.4565 0.78394 0.0
H405 H 0.52764 0.41167 0.75096 0.0
H406 H 0.52193 0.46321 0.5271 0.0
H407 H 0.55479 0.5083 0.56008 0.0
Nd408 Nd 0.01509 0.5669 0.7934 0.0
Nd409 Nd 0.03278 0.52012 0.90715 0.0
C410 C 0.9855 0.60271 0.71728 0.0
C411 C 0.95925 0.59343 0.6777 0.0
C412 C 0.94218 0.61378 0.65505 0.0
C413 C 0.91705 0.60406 0.61814 0.0
C414 C 0.90867 0.57381 0.60373 0.0
C415 C 0.92589 0.55357 0.6274 0.0
C416 C 0.95081 0.56325 0.66414 0.0
C417 C 0.0328 0.52396 0.72991 0.0
C418 C 0.96783 0.50326 0.87316 0.0
C419 C 0.0623 0.48426 0.98337 0.0
C420 C 0.08871 0.4935 0.02232 0.0
C421 C 0.10574 0.47308 0.04452 0.0
C422 C 0.13106 0.48278 0.08067 0.0
C423 C 0.13964 0.51306 0.09474 0.0
C424 C 0.12244 0.53337 0.07152 0.0
C425 C 0.09734 0.52371 0.03553 0.0
C426 C 0.01491 0.56297 0.97046 0.0
C427 C 0.08013 0.58353 0.82671 0.0
O428 O 0.98324 0.59429 0.79102 0.0
O429 O 0.0078 0.59729 0.68816 0.0
O430 O 0.0384 0.55298 0.70031 0.0
O431 O 0.01734 0.51813 0.78941 0.0
O432 O 0.97299 0.5323 0.83879 0.0
O433 O 0.9884 0.49056 0.89798 0.0
O434 O 0.06439 0.49245 0.90957 0.0
O435 O 0.04018 0.48998 0.01268 0.0
O436 O 0.00923 0.53393 0.99978 0.0
O437 O 0.03054 0.56892 0.91117 0.0
O438 O 0.07489 0.55453 0.86134 0.0
O439 O 0.0596 0.59633 0.80199 0.0
H440 H 0.94829 0.63708 0.6658 0.0
H441 H 0.90416 0.62014 0.60112 0.0
H442 H 0.92051 0.53036 0.61597 0.0
H443 H 0.9637 0.54715 0.68151 0.0
H444 H 0.09948 0.44976 0.03399 0.0
H445 H 0.14393 0.46665 0.09739 0.0
H446 H 0.12798 0.5566 0.08273 0.0
H447 H 0.08448 0.53986 0.01847 0.0
C448 C 0.13142 0.0779 0.63447 0.0
C449 C 0.15019 0.06513 0.68222 0.0
H450 H 0.08919 0.08345 0.6202 0.0
C451 C 0.14056 0.04992 0.75625 0.0
H452 H 0.13817 0.09034 0.57773 0.0
C453 C 0.11276 0.04671 0.78094 0.0
C454 C 0.09376 0.05809 0.73184 0.0
H455 H 0.15405 0.03926 0.79446 0.0
H456 H 0.10586 0.03413 0.83754 0.0
C457 C 0.10341 0.07419 0.65887 0.0
C458 C 0.5235 0.13603 0.5415 0.0
C459 C 0.49461 0.136 0.53955 0.0
H460 H 0.55534 0.11505 0.5951 0.0
C461 C 0.47553 0.11302 0.59077 0.0
H462 H 0.53897 0.15336 0.50384 0.0
C463 C 0.4851 0.092 0.6447 0.0
C464 C 0.51391 0.09251 0.64749 0.0
H465 H 0.45301 0.11126 0.5899 0.0
H466 H 0.46979 0.07505 0.68379 0.0
C467 C 0.53299 0.11429 0.59439 0.0
C468 C 0.42823 0.56281 0.63043 0.0
C469 C 0.40538 0.55326 0.68368 0.0
H470 H 0.47208 0.56672 0.60872 0.0
C471 C 0.40969 0.53939 0.75795 0.0
H472 H 0.4257 0.57401 0.57313 0.0
C473 C 0.43639 0.53517 0.77838 0.0
C474 C 0.45917 0.545 0.72498 0.0
H475 H 0.39242 0.53166 0.80003 0.0
H476 H 0.43928 0.52459 0.836 0.0
C477 C 0.45483 0.55878 0.65091 0.0
C478 C 0.02889 0.44658 0.67684 0.0
C479 C 0.04381 0.45493 0.60621 0.0
H480 H 0.01396 0.46173 0.77138 0.0
C481 C 0.0557 0.48633 0.57771 0.0
H482 H 0.01897 0.4227 0.70007 0.0
C483 C 0.05254 0.50875 0.61857 0.0
C484 C 0.03741 0.50026 0.68868 0.0
H485 H 0.06756 0.49359 0.52403 0.0
H486 H 0.06177 0.53277 0.59495 0.0
C487 C 0.02584 0.46895 0.71767 0.0
C488 C 0.90564 0.02755 0.94032 0.0
C489 C 0.89726 0.02297 0.0172 0.0
H490 H 0.93965 0.03432 0.85946 0.0
C491 C 0.91727 0.01914 0.07258 0.0
H492 H 0.89062 0.02991 0.89628 0.0
C493 C 0.94532 0.02134 0.05136 0.0
C494 C 0.95389 0.02752 0.97445 0.0
H495 H 0.91157 0.01576 0.13224 0.0
H496 H 0.96051 0.01937 0.09514 0.0
C497 C 0.93367 0.02988 0.91918 0.0
C498 C 0.52904 0.94713 0.14364 0.0
C499 C 0.55835 0.95151 0.15443 0.0
H500 H 0.49623 0.96202 0.07804 0.0
C501 C 0.57698 0.97557 0.10452 0.0
H502 H 0.51383 0.92876 0.1794 0.0
C503 C 0.56682 0.99357 0.04434 0.0
C504 C 0.53767 0.98893 0.03374 0.0
H505 H 0.5996 0.98076 0.11158 0.0
H506 H 0.58183 0.01166 0.00702 0.0
C507 C 0.51885 0.96591 0.08471 0.0
C508 C 0.6219 0.52744 0.06306 0.0
C509 C 0.64476 0.53683 0.0099 0.0
H510 H 0.57808 0.52362 0.08448 0.0
C511 C 0.64052 0.55061 0.93547 0.0
H512 H 0.62437 0.51631 0.12047 0.0
C513 C 0.61385 0.55485 0.91479 0.0
C514 C 0.59105 0.5451 0.9681 0.0
H515 H 0.65782 0.55818 0.89346 0.0
H516 H 0.61098 0.56533 0.85706 0.0
C517 C 0.59534 0.53147 0.04234 0.0
C518 C 0.01863 0.64011 0.02503 0.0
C519 C 0.00386 0.63151 0.0959 0.0
H520 H 0.03348 0.62531 0.92976 0.0
C521 C 0.99208 0.60006 0.12394 0.0
H522 H 0.02845 0.66404 1.00211 0.0
C523 C 0.99522 0.57782 0.08244 0.0
C524 C 0.01024 0.58654 0.01216 0.0
H525 H 0.98033 0.59261 0.17778 0.0
H526 H 0.98608 0.55376 0.10577 0.0
C527 C 0.02169 0.61791 0.98359 0.0
C528 C 0.01549 0.18157 0.71363 0.0
C529 C 0.99677 0.1822 0.6539 0.0
H530 H 0.0341 0.15415 0.79809 0.0
C531 C 0.9806 0.15422 0.6373 0.0
H532 H 0.02859 0.20268 0.72716 0.0
C533 C 0.98397 0.12619 0.67771 0.0
C534 C 0.00368 0.12571 0.73509 0.0
H535 H 0.96584 0.15402 0.59192 0.0
H536 H 0.97177 0.10499 0.66247 0.0
C537 C 0.0189 0.15367 0.75374 0.0
C538 C 0.39985 0.97878 0.75241 0.0
C539 C 0.37968 0.98659 0.79585 0.0
H540 H 0.44317 0.97832 0.73736 0.0
C541 C 0.3876 0.99474 0.86642 0.0
H542 H 0.39504 0.97267 0.6975 0.0
C543 C 0.4157 0.99898 0.88781 0.0
C544 C 0.43615 0.99396 0.84059 0.0
H545 H 0.37259 0.99978 0.90312 0.0
H546 H 0.42176 0.00797 0.93903 0.0
C547 C 0.4277 0.98207 0.77512 0.0
C548 C 0.48036 0.35531 0.61322 0.0
C549 C 0.45673 0.36191 0.57455 0.0
H550 H 0.5196 0.37324 0.6626 0.0
C551 C 0.45309 0.39193 0.56499 0.0
H552 H 0.48415 0.33259 0.62061 0.0
C553 C 0.4738 0.41533 0.58776 0.0
C554 C 0.49836 0.40906 0.62117 0.0
H555 H 0.43495 0.39765 0.53649 0.0
H556 H 0.471 0.43852 0.57731 0.0
C557 C 0.50092 0.37866 0.63655 0.0
C558 C 0.15935 0.60498 0.83537 0.0
C559 C 0.1673 0.61788 0.75885 0.0
H560 H 0.12514 0.58357 0.91687 0.0
C561 C 0.14612 0.62459 0.70941 0.0
H562 H 0.17493 0.60048 0.87618 0.0
C563 C 0.11771 0.61617 0.73408 0.0
C564 C 0.1098 0.60018 0.80794 0.0
H565 H 0.1509 0.63411 0.64994 0.0
H566 H 0.10178 0.61965 0.69337 0.0
C567 C 0.13084 0.59563 0.85922 0.0
C568 C 0.06939 0.9312 0.06474 0.0
C569 C 0.05298 0.90309 0.04948 0.0
H570 H 0.07787 0.98038 0.03931 0.0
C571 C 0.03338 0.90345 0.99183 0.0
H572 H 0.0848 0.93159 0.10853 0.0
C573 C 0.02936 0.93121 0.95258 0.0
C574 C 0.04486 0.95929 0.96995 0.0
H575 H 0.02008 0.88223 0.97945 0.0
H576 H 0.01348 0.93052 0.91001 0.0
C577 C 0.06542 0.95909 0.02514 0.0
C578 C 0.65081 0.11707 0.89794 0.0
C579 C 0.67004 0.10081 0.87931 0.0
H580 H 0.60803 0.12117 0.89408 0.0
C581 C 0.66228 0.08138 0.82617 0.0
H582 H 0.65639 0.13281 0.93726 0.0
C583 C 0.63473 0.07497 0.80095 0.0
C584 C 0.61437 0.08776 0.8285 0.0
H585 H 0.67641 0.06847 0.81014 0.0
H586 H 0.62879 0.05782 0.76525 0.0
C587 C 0.62312 0.11052 0.87289 0.0
C588 C 0.59305 0.72324 0.09195 0.0
C589 C 0.593 0.72268 0.17032 0.0
H590 H 0.57404 0.70189 1.00117 0.0
C591 C 0.5735 0.69891 0.21809 0.0
H592 H 0.60771 0.74133 0.05378 0.0
C593 C 0.55425 0.67641 0.18813 0.0
C594 C 0.55407 0.67719 0.10978 0.0
H595 H 0.57242 0.69822 0.27862 0.0
H596 H 0.53964 0.6583 0.22639 0.0
C597 C 0.57377 0.7007 0.06196 0.0
C598 C 0.90172 0.46156 0.98905 0.0
C599 C 0.8806 0.46812 0.93919 0.0
H600 H 0.94604 0.4669 0.006 0.0
C601 C 0.8887 0.48108 0.86277 0.0
H602 H 0.89682 0.45199 0.04845 0.0
C603 C 0.91727 0.49073 0.83952 0.0
C604 C 0.9382 0.48639 0.89128 0.0
H605 H 0.87319 0.48545 0.82163 0.0
H606 H 0.92307 0.50286 0.78197 0.0
C607 C 0.93018 0.47026 0.96496 0.0
C608 C 0.03977 0.24642 0.11343 0.0
C609 C 0.0643 0.26988 0.11829 0.0
H610 H 0.02201 0.20246 0.08417 0.0
C611 C 0.09029 0.26682 0.09145 0.0
H612 H 0.0194 0.24749 0.1345 0.0
C613 C 0.09184 0.2404 0.06389 0.0
C614 C 0.06745 0.21638 0.06257 0.0
H615 H 0.10958 0.28448 0.09358 0.0
H616 H 0.11235 0.23827 0.04657 0.0
C617 C 0.04132 0.22017 0.08576 0.0
C618 C 0.35414 0.06969 0.15192 0.0
C619 C 0.35557 0.08608 0.21135 0.0
H620 H 0.37544 0.06247 0.05597 0.0
C621 C 0.37946 0.1103 0.21518 0.0
H622 H 0.33582 0.0511 0.14742 0.0
C623 C 0.40245 0.11646 0.16378 0.0
C624 C 0.40185 0.09863 0.1073 0.0
H625 H 0.38116 0.12309 0.26098 0.0
H626 H 0.42132 0.13387 0.17138 0.0
C627 C 0.37693 0.07607 0.10003 0.0
C628 C 0.46614 0.40345 0.03157 0.0
C629 C 0.4852 0.38504 0.02736 0.0
H630 H 0.45719 0.44763 0.99915 0.0
C631 C 0.51019 0.39806 0.98234 0.0
H632 H 0.44689 0.39449 0.06665 0.0
C633 C 0.51612 0.42869 0.94359 0.0
C634 C 0.49733 0.44725 0.94924 0.0
H635 H 0.52529 0.38462 0.97735 0.0
H636 H 0.5358 0.43799 0.91053 0.0
C637 C 0.47214 0.4341 0.99322 0.0
C638 C 0.19347 0.51503 0.24816 0.0
C639 C 0.20874 0.54605 0.23234 0.0
H640 H 0.15937 0.48033 0.21762 0.0
C641 C 0.20345 0.56506 0.16601 0.0
H642 H 0.19696 0.49995 0.29937 0.0
C643 C 0.18218 0.55375 0.11863 0.0
C644 C 0.16544 0.52332 0.13726 0.0
H645 H 0.21519 0.58896 0.15212 0.0
H646 H 0.1782 0.5692 0.06871 0.0
C647 C 0.17195 0.50379 0.20121 0.0
C648 C 0.00851 0.84115 0.58914 0.0
C649 C 0.9846 0.81682 0.58536 0.0
H650 H 0.02497 0.88538 0.61818 0.0
C651 C 0.95846 0.81839 0.61478 0.0
H652 H 0.02888 0.84131 0.56544 0.0
C653 C 0.95619 0.84404 0.6448 0.0
C654 C 0.98001 0.86873 0.64631 0.0
H655 H 0.93964 0.80002 0.61353 0.0
H656 H 0.93571 0.84467 0.66616 0.0
C657 C 0.00626 0.86665 0.61925 0.0
C658 C 0.64593 0.9375 0.45022 0.0
C659 C 0.67359 0.95634 0.44886 0.0
H660 H 0.60467 0.9231 0.50396 0.0
C661 C 0.68193 0.97118 0.51044 0.0
H662 H 0.63895 0.92526 0.40439 0.0
C663 C 0.66238 0.96948 0.56844 0.0
C664 C 0.634 0.9531 0.56594 0.0
H665 H 0.703 0.98595 0.51135 0.0
H666 H 0.66921 0.98226 0.61336 0.0
C667 C 0.6263 0.93602 0.50788 0.0
C668 C 0.53791 0.69173 0.71654 0.0
C669 C 0.56353 0.70569 0.67487 0.0
H670 H 0.51171 0.65067 0.7829 0.0
C671 C 0.58282 0.68764 0.66963 0.0
H672 H 0.52262 0.70488 0.72209 0.0
C673 C 0.57653 0.65647 0.70409 0.0
C674 C 0.55083 0.64246 0.74517 0.0
H675 H 0.60257 0.69738 0.63695 0.0
H676 H 0.59175 0.64329 0.69784 0.0
C677 C 0.53172 0.6606 0.75158 0.0
C678 C 0.84521 0.52181 0.5309 0.0
C679 C 0.83999 0.54092 0.46464 0.0
H680 H 0.87028 0.51756 0.62856 0.0
C681 C 0.85525 0.57194 0.44921 0.0
H682 H 0.83348 0.4979 0.54452 0.0
C683 C 0.87665 0.58313 0.49654 0.0
C684 C 0.88306 0.56354 0.56052 0.0
H685 H 0.85182 0.58709 0.39807 0.0
H686 H 0.8892 0.60662 0.48049 0.0
C687 C 0.86637 0.53306 0.57866 0.0
loop_
_geom_bond_atom_site_label_1
_geom_bond_atom_site_label_2
_geom_bond_distance
_geom_bond_site_symmetry_2
_ccdc_geom_bond_type
C0 C1 1.384 . S
C0 H13 0.947 . S
C0 C35 1.382 . S
C1 C0 1.384 . S
C1 C2 1.378 . S
C2 C1 1.378 . S
C2 C3 1.378 . S
C2 H14 0.952 . S
C3 C2 1.378 . S
C3 H15 0.950 . S
C3 C34 1.383 . S
H4 C23 0.947 . S
H5 C24 0.946 . S
H6 C26 0.953 . S
H7 C27 0.945 . S
H8 C29 0.952 . S
H9 C30 0.949 . S
H10 C32 0.950 . S
H11 C33 0.956 . S
H12 C35 0.951 . S
H13 C0 0.947 . S
H14 C2 0.952 . S
H15 C3 0.950 . S
N16 C19 1.382 . S
N16 C21 1.363 . S
N17 C19 1.371 1_556 S
N17 C20 1.372 . S
N18 C20 1.361 1_554 S
N18 C21 1.377 . S
C19 N16 1.382 . S
C19 N17 1.371 1_554 S
C19 C22 1.480 1_554 S
C20 N17 1.372 . S
C20 N18 1.361 1_556 S
C20 C28 1.457 . S
C21 N16 1.363 . S
C21 N18 1.377 . S
C21 C34 1.479 . S
C22 C19 1.480 1_556 S
C22 C23 1.383 1_556 S
C22 C27 1.385 . S
C23 H4 0.947 . S
C23 C22 1.383 1_554 S
C23 C24 1.388 . S
C24 H5 0.946 . S
C24 C23 1.388 . S
C24 C25 1.384 1_554 S
C25 C24 1.384 1_556 S
C25 C26 1.377 . S
C26 H6 0.953 . S
C26 C25 1.377 . S
C26 C27 1.369 . S
C27 H7 0.945 . S
C27 C22 1.385 . S
C27 C26 1.369 . S
C28 C20 1.457 . S
C28 C29 1.372 . S
C28 C33 1.364 . S
C29 H8 0.952 . S
C29 C28 1.372 . S
C29 C30 1.389 . S
C30 H9 0.949 . S
C30 C29 1.389 . S
C30 C31 1.387 . S
C31 C30 1.387 . S
C31 C32 1.372 . S
C32 H10 0.950 . S
C32 C31 1.372 . S
C32 C33 1.379 . S
C33 H11 0.956 . S
C33 C28 1.364 . S
C33 C32 1.379 . S
C34 C3 1.383 . S
C34 C21 1.479 . S
C34 C35 1.398 . S
C35 C0 1.382 . S
C35 H12 0.951 . S
C35 C34 1.398 . S
C36 C37 1.384 . S
C36 H49 0.947 . S
C36 C71 1.382 . S
C37 C36 1.384 . S
C37 C38 1.378 . S
C38 C37 1.378 . S
C38 C39 1.378 . S
C38 H50 0.952 . S
C39 C38 1.378 . S
C39 H51 0.950 . S
C39 C70 1.383 . S
H40 C59 0.947 . S
H41 C60 0.946 . S
H42 C62 0.953 . S
H43 C63 0.945 . S
H44 C65 0.952 . S
H45 C66 0.949 . S
H46 C68 0.950 . S
H47 C69 0.948 1_554 S
H48 C71 0.951 . S
H49 C36 0.947 . S
H50 C38 0.952 . S
H51 C39 0.950 . S
N52 C55 1.382 . S
N52 C57 1.363 . S
N53 C55 1.371 1_556 S
N53 C56 1.372 . S
N54 C56 1.361 1_554 S
N54 C57 1.377 . S
C55 N52 1.382 . S
C55 N53 1.371 1_554 S
C55 C58 1.480 . S
C56 N53 1.372 . S
C56 N54 1.361 1_556 S
C56 C64 1.457 . S
C57 N52 1.363 . S
C57 N54 1.377 . S
C57 C70 1.479 . S
C58 C55 1.480 . S
C58 C59 1.383 . S
C58 C63 1.385 1_554 S
C59 H40 0.947 . S
C59 C58 1.383 . S
C59 C60 1.388 . S
C60 H41 0.946 . S
C60 C59 1.388 . S
C60 C61 1.384 . S
C61 C60 1.384 . S
C61 C62 1.377 1_554 S
C62 H42 0.953 . S
C62 C61 1.377 1_556 S
C62 C63 1.369 . S
C63 H43 0.945 . S
C63 C58 1.385 1_556 S
C63 C62 1.369 . S
C64 C56 1.457 . S
C64 C65 1.372 . S
C64 C69 1.364 . S
C65 H44 0.952 . S
C65 C64 1.372 . S
C65 C66 1.389 . S
C66 H45 0.949 . S
C66 C65 1.389 . S
C66 C67 1.387 . S
C67 C66 1.387 . S
C67 C68 1.372 . S
C68 H46 0.950 . S
C68 C67 1.372 . S
C68 C69 1.379 . S
C69 H47 0.948 1_556 S
C69 C64 1.364 . S
C69 C68 1.379 . S
C70 C39 1.383 . S
C70 C57 1.479 . S
C70 C71 1.398 . S
C71 C36 1.382 . S
C71 H48 0.951 . S
C71 C70 1.398 . S
C72 C73 1.384 . S
C72 H85 0.947 . S
C72 C107 1.382 . S
C73 C72 1.384 . S
C73 C74 1.378 . S
C74 C73 1.378 . S
C74 C75 1.378 . S
C74 H86 0.952 . S
C75 C74 1.378 . S
C75 H87 0.950 . S
C75 C106 1.383 . S
H76 C95 0.947 . S
H77 C96 0.946 . S
H78 C98 0.953 . S
H79 C99 0.945 . S
H80 C101 0.952 . S
H81 C102 0.949 . S
H82 C104 0.950 . S
H83 C105 0.948 . S
H84 C107 0.951 . S
H85 C72 0.947 . S
H86 C74 0.952 . S
H87 C75 0.950 . S
N88 C91 1.382 1_554 S
N88 C93 1.363 . S
N89 C91 1.371 . S
N89 C92 1.372 . S
N90 C92 1.361 1_554 S
N90 C93 1.377 . S
C91 N88 1.382 1_556 S
C91 N89 1.371 . S
C91 C94 1.480 . S
C92 N89 1.372 . S
C92 N90 1.361 1_556 S
C92 C100 1.457 . S
C93 N88 1.363 . S
C93 N90 1.377 . S
C93 C106 1.479 . S
C94 C91 1.480 . S
C94 C95 1.383 1_556 S
C94 C99 1.385 . S
C95 H76 0.947 . S
C95 C94 1.383 1_554 S
C95 C96 1.388 . S
C96 H77 0.946 . S
C96 C95 1.388 . S
C96 C97 1.384 1_554 S
C97 C96 1.384 1_556 S
C97 C98 1.377 . S
C98 H78 0.953 . S
C98 C97 1.377 . S
C98 C99 1.369 . S
C99 H79 0.945 . S
C99 C94 1.385 . S
C99 C98 1.369 . S
C100 C92 1.457 . S
C100 C101 1.372 . S
C100 C105 1.364 . S
C101 H80 0.952 . S
C101 C100 1.372 . S
C101 C102 1.389 . S
C102 H81 0.949 . S
C102 C101 1.389 . S
C102 C103 1.387 . S
C103 C102 1.387 . S
C103 C104 1.372 . S
C104 H82 0.950 . S
C104 C103 1.372 . S
C104 C105 1.379 . S
C105 H83 0.948 . S
C105 C100 1.364 . S
C105 C104 1.379 . S
C106 C75 1.383 . S
C106 C93 1.479 . S
C106 C107 1.398 . S
C107 C72 1.382 . S
C107 H84 0.951 . S
C107 C106 1.398 . S
C108 C109 1.384 . S
C108 H121 0.947 . S
C108 C143 1.382 . S
C109 C108 1.384 . S
C109 C110 1.378 . S
C110 C109 1.378 . S
C110 C111 1.378 . S
C110 H122 0.952 . S
C111 C110 1.378 . S
C111 H123 0.950 . S
C111 C142 1.383 . S
H112 C131 0.947 . S
H113 C132 0.946 . S
H114 C134 0.953 . S
H115 C135 0.945 . S
H116 C137 0.952 . S
H117 C138 0.949 . S
H118 C140 0.950 . S
H119 C141 0.948 . S
H120 C143 0.951 . S
H121 C108 0.947 . S
H122 C110 0.952 . S
H123 C111 0.950 . S
N124 C127 1.382 . S
N124 C129 1.363 . S
N125 C127 1.371 . S
N125 C128 1.372 . S
N126 C128 1.361 . S
N126 C129 1.377 . S
C127 N124 1.382 . S
C127 N125 1.371 . S
C127 C130 1.480 . S
C128 N125 1.372 . S
C128 N126 1.361 . S
C128 C136 1.457 . S
C129 N124 1.363 . S
C129 N126 1.377 . S
C129 C142 1.479 . S
C130 C127 1.480 . S
C130 C131 1.383 . S
C130 C135 1.385 . S
C131 H112 0.947 . S
C131 C130 1.383 . S
C131 C132 1.388 . S
C132 H113 0.946 . S
C132 C131 1.388 . S
C132 C133 1.384 . S
C133 C132 1.384 . S
C133 C134 1.377 . S
C134 H114 0.953 . S
C134 C133 1.377 . S
C134 C135 1.369 . S
C135 H115 0.945 . S
C135 C130 1.385 . S
C135 C134 1.369 . S
C136 C128 1.457 . S
C136 C137 1.372 . S
C136 C141 1.364 . S
C137 H116 0.952 . S
C137 C136 1.372 . S
C137 C138 1.389 . S
C138 H117 0.949 . S
C138 C137 1.389 . S
C138 C139 1.387 . S
C139 C138 1.387 . S
C139 C140 1.372 . S
C140 H118 0.950 . S
C140 C139 1.372 . S
C140 C141 1.379 . S
C141 H119 0.948 . S
C141 C136 1.364 . S
C141 C140 1.379 . S
C142 C111 1.383 . S
C142 C129 1.479 . S
C142 C143 1.398 . S
C143 C108 1.382 . S
C143 H120 0.951 . S
C143 C142 1.398 . S
C144 C145 1.384 . S
C144 H157 0.947 . S
C144 C179 1.382 . S
C145 C144 1.384 . S
C145 C146 1.378 . S
C146 C145 1.378 . S
C146 C147 1.378 . S
C146 H158 0.952 . S
C147 C146 1.378 . S
C147 H159 0.950 . S
C147 C178 1.383 . S
H148 C167 0.947 . S
H149 C168 0.946 . S
H150 C170 0.953 . S
H151 C171 0.945 . S
H152 C173 0.952 . S
H153 C174 0.949 . S
H154 C176 0.950 . S
H155 C177 0.948 . S
H156 C179 0.951 . S
H157 C144 0.947 . S
H158 C146 0.952 . S
H159 C147 0.950 . S
N160 C163 1.382 . S
N160 C165 1.363 . S
N161 C163 1.371 . S
N161 C164 1.372 . S
N162 C164 1.361 . S
N162 C165 1.377 . S
C163 N160 1.382 . S
C163 N161 1.371 . S
C163 C166 1.480 . S
C164 N161 1.372 . S
C164 N162 1.361 . S
C164 C172 1.457 . S
C165 N160 1.363 . S
C165 N162 1.377 . S
C165 C178 1.479 . S
C166 C163 1.480 . S
C166 C167 1.383 . S
C166 C171 1.385 . S
C167 H148 0.947 . S
C167 C166 1.383 . S
C167 C168 1.388 . S
C168 H149 0.946 . S
C168 C167 1.388 . S
C168 C169 1.384 . S
C169 C168 1.384 . S
C169 C170 1.377 . S
C170 H150 0.953 . S
C170 C169 1.377 . S
C170 C171 1.369 . S
C171 H151 0.945 . S
C171 C166 1.385 . S
C171 C170 1.369 . S
C172 C164 1.457 . S
C172 C173 1.372 . S
C172 C177 1.364 . S
C173 H152 0.952 . S
C173 C172 1.372 . S
C173 C174 1.389 . S
C174 H153 0.949 . S
C174 C173 1.389 . S
C174 C175 1.387 . S
C175 C174 1.387 . S
C175 C176 1.372 . S
C176 H154 0.950 . S
C176 C175 1.372 . S
C176 C177 1.379 . S
C177 H155 0.948 . S
C177 C172 1.364 . S
C177 C176 1.379 . S
C178 C147 1.383 . S
C178 C165 1.479 . S
C178 C179 1.398 . S
C179 C144 1.382 . S
C179 H156 0.951 . S
C179 C178 1.398 . S
C180 C181 1.384 . S
C180 H193 0.947 . S
C180 C215 1.382 . S
C181 C180 1.384 . S
C181 C182 1.378 . S
C182 C181 1.378 . S
C182 C183 1.378 . S
C182 H194 0.952 . S
C183 C182 1.378 . S
C183 H195 0.950 . S
C183 C214 1.383 . S
H184 C203 0.947 . S
H185 C204 0.946 . S
H186 C206 0.953 . S
H187 C207 0.945 . S
H188 C209 0.952 . S
H189 C210 0.949 . S
H190 C212 0.950 . S
H191 C213 0.948 . S
H192 C215 0.951 . S
H193 C180 0.947 . S
H194 C182 0.952 . S
H195 C183 0.950 . S
N196 C199 1.382 . S
N196 C201 1.363 . S
N197 C199 1.371 . S
N197 C200 1.372 . S
N198 C200 1.361 . S
N198 C201 1.377 . S
C199 N196 1.382 . S
C199 N197 1.371 . S
C199 C202 1.480 . S
C200 N197 1.372 . S
C200 N198 1.361 . S
C200 C208 1.457 . S
C201 N196 1.363 . S
C201 N198 1.377 . S
C201 C214 1.479 . S
C202 C199 1.480 . S
C202 C203 1.383 . S
C202 C207 1.385 . S
C203 H184 0.947 . S
C203 C202 1.383 . S
C203 C204 1.388 . S
C204 H185 0.946 . S
C204 C203 1.388 . S
C204 C205 1.384 . S
C205 C204 1.384 . S
C205 C206 1.377 . S
C206 H186 0.953 . S
C206 C205 1.377 . S
C206 C207 1.369 . S
C207 H187 0.945 . S
C207 C202 1.385 . S
C207 C206 1.369 . S
C208 C200 1.457 . S
C208 C209 1.372 . S
C208 C213 1.364 . S
C209 H188 0.952 . S
C209 C208 1.372 . S
C209 C210 1.389 . S
C210 H189 0.949 . S
C210 C209 1.389 . S
C210 C211 1.387 . S
C211 C210 1.387 . S
C211 C212 1.372 . S
C212 H190 0.950 . S
C212 C211 1.372 . S
C212 C213 1.379 . S
C213 H191 0.948 . S
C213 C208 1.364 . S
C213 C212 1.379 . S
C214 C183 1.383 . S
C214 C201 1.479 . S
C214 C215 1.398 . S
C215 C180 1.382 . S
C215 H192 0.951 . S
C215 C214 1.398 . S
C216 C217 1.384 . S
C216 H229 0.947 . S
C216 C251 1.382 . S
C217 C216 1.384 . S
C217 C218 1.378 . S
C218 C217 1.378 . S
C218 C219 1.378 . S
C218 H230 0.952 . S
C219 C218 1.378 . S
C219 H231 0.950 . S
C219 C250 1.383 . S
H220 C239 0.947 . S
H221 C240 0.946 . S
H222 C242 0.953 . S
H223 C243 0.945 . S
H224 C245 0.952 . S
H225 C246 0.949 . S
H226 C248 0.950 . S
H227 C249 0.948 . S
H228 C251 0.951 . S
H229 C216 0.947 . S
H230 C218 0.952 . S
H231 C219 0.950 . S
N232 C235 1.382 . S
N232 C237 1.363 . S
N233 C235 1.371 . S
N233 C236 1.372 . S
N234 C236 1.361 . S
N234 C237 1.377 . S
C235 N232 1.382 . S
C235 N233 1.371 . S
C235 C238 1.480 . S
C236 N233 1.372 . S
C236 N234 1.361 . S
C236 C244 1.457 . S
C237 N232 1.363 . S
C237 N234 1.377 . S
C237 C250 1.479 . S
C238 C235 1.480 . S
C238 C239 1.383 . S
C238 C243 1.385 . S
C239 H220 0.947 . S
C239 C238 1.383 . S
C239 C240 1.388 . S
C240 H221 0.946 . S
C240 C239 1.388 . S
C240 C241 1.384 . S
C241 C240 1.384 . S
C241 C242 1.377 . S
C242 H222 0.953 . S
C242 C241 1.377 . S
C242 C243 1.369 . S
C243 H223 0.945 . S
C243 C238 1.385 . S
C243 C242 1.369 . S
C244 C236 1.457 . S
C244 C245 1.372 . S
C244 C249 1.364 . S
C245 H224 0.952 . S
C245 C244 1.372 . S
C245 C246 1.389 . S
C246 H225 0.949 . S
C246 C245 1.389 . S
C246 C247 1.387 . S
C247 C246 1.387 . S
C247 C248 1.372 . S
C248 H226 0.950 . S
C248 C247 1.372 . S
C248 C249 1.379 . S
C249 H227 0.948 . S
C249 C244 1.364 . S
C249 C248 1.379 . S
C250 C219 1.383 . S
C250 C237 1.479 . S
C250 C251 1.398 . S
C251 C216 1.382 . S
C251 H228 0.951 . S
C251 C250 1.398 . S
C252 C253 1.384 . S
C252 H265 0.947 . S
C252 C287 1.382 . S
C253 C252 1.384 . S
C253 C254 1.378 . S
C254 C253 1.378 . S
C254 C255 1.378 . S
C254 H266 0.952 . S
C255 C254 1.378 . S
C255 H267 0.950 . S
C255 C286 1.383 . S
H256 C275 0.947 . S
H257 C276 0.946 . S
H258 C278 0.953 . S
H259 C279 0.945 . S
H260 C281 0.952 . S
H261 C282 0.949 1_556 S
H262 C284 0.950 . S
H263 C285 0.948 . S
H264 C287 0.951 . S
H265 C252 0.947 . S
H266 C254 0.952 . S
H267 C255 0.950 . S
N268 C271 1.382 . S
N268 C273 1.363 . S
N269 C271 1.371 . S
N269 C272 1.372 . S
N270 C272 1.361 . S
N270 C273 1.377 . S
C271 N268 1.382 . S
C271 N269 1.371 . S
C271 C274 1.480 . S
C272 N269 1.372 . S
C272 N270 1.361 . S
C272 C280 1.457 . S
C273 N268 1.363 . S
C273 N270 1.377 . S
C273 C286 1.479 . S
C274 C271 1.480 . S
C274 C275 1.383 . S
C274 C279 1.385 . S
C275 H256 0.947 . S
C275 C274 1.383 . S
C275 C276 1.388 . S
C276 H257 0.946 . S
C276 C275 1.388 . S
C276 C277 1.384 . S
C277 C276 1.384 . S
C277 C278 1.377 . S
C278 H258 0.953 . S
C278 C277 1.377 . S
C278 C279 1.369 . S
C279 H259 0.945 . S
C279 C274 1.385 . S
C279 C278 1.369 . S
C280 C272 1.457 . S
C280 C281 1.372 . S
C280 C285 1.364 . S
C281 H260 0.952 . S
C281 C280 1.372 . S
C281 C282 1.389 . S
C282 H261 0.949 1_554 S
C282 C281 1.389 . S
C282 C283 1.387 . S
C283 C282 1.387 . S
C283 C284 1.372 . S
C284 H262 0.950 . S
C284 C283 1.372 . S
C284 C285 1.379 . S
C285 H263 0.948 . S
C285 C280 1.364 . S
C285 C284 1.379 . S
C286 C255 1.383 . S
C286 C273 1.479 . S
C286 C287 1.398 . S
C287 C252 1.382 . S
C287 H264 0.951 . S
C287 C286 1.398 . S
Nd288 C290 2.836 1_445 S
Nd288 O308 2.500 1_445 S
Nd288 O309 2.492 1_545 S
Nd288 O310 2.487 . S
Nd288 O311 2.682 . S
Nd288 O312 2.410 1_545 S
Nd288 O317 2.414 1_455 S
Nd288 O319 2.424 . S
Nd289 C299 2.836 1_556 S
Nd289 O311 2.414 . S
Nd289 O313 2.424 1_545 S
Nd289 O314 2.500 . S
Nd289 O315 2.492 1_556 S
Nd289 O316 2.487 1_455 S
Nd289 O317 2.682 1_455 S
Nd289 O318 2.410 . S
C290 Nd288 2.836 1_665 S
C290 C291 1.498 . S
C290 O308 1.258 . S
C290 O309 1.239 1_655 S
C291 C290 1.498 . S
C291 C292 1.366 . S
C291 C296 1.407 1_655 S
C292 C291 1.366 . S
C292 C293 1.392 . S
C292 H320 0.930 . S
C293 C292 1.392 . S
C293 C294 1.398 . S
C293 H321 0.929 . S
C294 C293 1.398 . S
C294 C295 1.352 . S
C295 C294 1.352 . S
C295 C296 1.384 1_655 S
C295 H322 0.930 1_655 S
C296 C291 1.407 1_455 S
C296 C295 1.384 1_455 S
C296 H323 0.929 . S
C297 O310 1.241 . S
C297 O311 1.273 . S
C298 O312 1.251 . S
C298 O313 1.268 . S
C299 Nd289 2.836 1_554 S
C299 C300 1.498 . S
C299 O314 1.258 1_554 S
C299 O315 1.239 . S
C300 C299 1.498 . S
C300 C301 1.366 . S
C300 C305 1.407 . S
C301 C300 1.366 . S
C301 C302 1.392 . S
C301 H324 0.930 . S
C302 C301 1.392 . S
C302 C303 1.398 . S
C302 H325 0.929 . S
C303 C302 1.398 . S
C303 C304 1.352 . S
C304 C303 1.352 . S
C304 C305 1.384 . S
C304 H326 0.930 . S
C305 C300 1.407 . S
C305 C304 1.384 . S
C305 H327 0.929 . S
C306 O316 1.241 . S
C306 O317 1.273 . S
C307 O318 1.251 . S
C307 O319 1.268 . S
O308 Nd288 2.500 1_665 S
O308 C290 1.258 . S
O309 Nd288 2.492 1_565 S
O309 C290 1.239 1_455 S
O310 Nd288 2.487 . S
O310 C297 1.241 . S
O311 Nd288 2.682 . S
O311 Nd289 2.414 . S
O311 C297 1.273 . S
O312 Nd288 2.410 1_565 S
O312 C298 1.251 . S
O313 Nd289 2.424 1_565 S
O313 C298 1.268 . S
O314 Nd289 2.500 . S
O314 C299 1.258 1_556 S
O315 Nd289 2.492 1_554 S
O315 C299 1.239 . S
O316 Nd289 2.487 1_655 S
O316 C306 1.241 . S
O317 Nd288 2.414 1_655 S
O317 Nd289 2.682 1_655 S
O317 C306 1.273 . S
O318 Nd289 2.410 . S
O318 C307 1.251 . S
O319 Nd288 2.424 . S
O319 C307 1.268 . S
H320 C292 0.930 . S
H321 C293 0.929 . S
H322 C295 0.930 1_455 S
H323 C296 0.929 . S
H324 C301 0.930 . S
H325 C302 0.929 . S
H326 C304 0.930 . S
H327 C305 0.929 . S
Nd328 C330 2.835 1_545 S
Nd328 O348 2.500 1_545 S
Nd328 O349 2.492 . S
Nd328 O350 2.487 . S
Nd328 O351 2.682 . S
Nd328 O352 2.410 . S
Nd328 O357 2.414 . S
Nd328 O359 2.424 . S
Nd329 C339 2.836 1_556 S
Nd329 O351 2.414 . S
Nd329 O353 2.424 . S
Nd329 O354 2.500 . S
Nd329 O355 2.492 1_556 S
Nd329 O356 2.487 1_556 S
Nd329 O357 2.682 . S
Nd329 O358 2.410 . S
C330 Nd328 2.835 1_565 S
C330 C331 1.499 . S
C330 O348 1.259 . S
C330 O349 1.238 1_565 S
C331 C330 1.499 . S
C331 C332 1.366 . S
C331 C336 1.407 1_565 S
C332 C331 1.366 . S
C332 C333 1.392 . S
C332 H360 0.930 . S
C333 C332 1.392 . S
C333 C334 1.398 . S
C333 H361 0.929 . S
C334 C333 1.398 . S
C334 C335 1.352 . S
C335 C334 1.352 . S
C335 C336 1.384 1_565 S
C335 H362 0.930 1_565 S
C336 C331 1.407 1_545 S
C336 C335 1.384 1_545 S
C336 H363 0.929 . S
C337 O350 1.241 . S
C337 O351 1.273 . S
C338 O352 1.251 . S
C338 O353 1.268 . S
C339 Nd329 2.836 1_554 S
C339 C340 1.498 . S
C339 O354 1.258 1_554 S
C339 O355 1.239 . S
C340 C339 1.498 . S
C340 C341 1.366 . S
C340 C345 1.407 . S
C341 C340 1.366 . S
C341 C342 1.392 . S
C341 H364 0.930 1_554 S
C342 C341 1.392 . S
C342 C343 1.398 . S
C342 H365 0.929 . S
C343 C342 1.398 . S
C343 C344 1.352 . S
C344 C343 1.352 . S
C344 C345 1.384 . S
C344 H366 0.930 . S
C345 C340 1.407 . S
C345 C344 1.384 . S
C345 H367 0.929 . S
C346 O356 1.241 1_566 S
C346 O357 1.273 1_565 S
C347 O358 1.251 . S
C347 O359 1.268 . S
O348 Nd328 2.500 1_565 S
O348 C330 1.259 . S
O349 Nd328 2.492 . S
O349 C330 1.238 1_545 S
O350 Nd328 2.487 . S
O350 C337 1.241 . S
O351 Nd328 2.682 . S
O351 Nd329 2.414 . S
O351 C337 1.273 . S
O352 Nd328 2.410 . S
O352 C338 1.251 . S
O353 Nd329 2.424 . S
O353 C338 1.268 . S
O354 Nd329 2.500 . S
O354 C339 1.258 1_556 S
O355 Nd329 2.492 1_554 S
O355 C339 1.239 . S
O356 Nd329 2.487 1_554 S
O356 C346 1.241 1_544 S
O357 Nd328 2.414 . S
O357 Nd329 2.682 . S
O357 C346 1.273 1_545 S
O358 Nd329 2.410 . S
O358 C347 1.251 . S
O359 Nd328 2.424 . S
O359 C347 1.268 . S
H360 C332 0.930 . S
H361 C333 0.929 . S
H362 C335 0.930 1_545 S
H363 C336 0.929 . S
H364 C341 0.930 1_556 S
H365 C342 0.929 . S
H366 C344 0.930 . S
H367 C345 0.929 . S
Nd368 C370 2.836 . S
Nd368 O388 2.500 . S
Nd368 O389 2.492 1_556 S
Nd368 O390 2.487 . S
Nd368 O391 2.682 . S
Nd368 O392 2.410 . S
Nd368 O397 2.414 . S
Nd368 O399 2.424 . S
Nd369 C379 2.836 . S
Nd369 O391 2.414 . S
Nd369 O393 2.424 . S
Nd369 O394 2.500 . S
Nd369 O395 2.492 . S
Nd369 O396 2.487 . S
Nd369 O397 2.682 . S
Nd369 O398 2.410 . S
C370 Nd368 2.836 . S
C370 C371 1.498 1_556 S
C370 O388 1.258 . S
C370 O389 1.239 1_556 S
C371 C370 1.498 1_554 S
C371 C372 1.366 1_554 S
C371 C376 1.407 . S
C372 C371 1.366 1_556 S
C372 C373 1.392 1_556 S
C372 H400 0.930 . S
C373 C372 1.392 1_554 S
C373 C374 1.398 . S
C373 H401 0.929 1_554 S
C374 C373 1.398 . S
C374 C375 1.352 . S
C375 C374 1.352 . S
C375 C376 1.384 . S
C375 H402 0.930 . S
C376 C371 1.407 . S
C376 C375 1.384 . S
C376 H403 0.929 . S
C377 O390 1.241 . S
C377 O391 1.273 . S
C378 O392 1.251 . S
C378 O393 1.268 . S
C379 Nd369 2.836 . S
C379 C380 1.498 . S
C379 O394 1.258 . S
C379 O395 1.239 . S
C380 C379 1.498 . S
C380 C381 1.366 . S
C380 C385 1.407 . S
C381 C380 1.366 . S
C381 C382 1.392 . S
C381 H404 0.930 . S
C382 C381 1.392 . S
C382 C383 1.398 . S
C382 H405 0.929 . S
C383 C382 1.398 . S
C383 C384 1.352 . S
C384 C383 1.352 . S
C384 C385 1.384 . S
C384 H406 0.930 . S
C385 C380 1.407 . S
C385 C384 1.384 . S
C385 H407 0.929 . S
C386 O396 1.241 . S
C386 O397 1.273 . S
C387 O398 1.251 . S
C387 O399 1.268 . S
O388 Nd368 2.500 . S
O388 C370 1.258 . S
O389 Nd368 2.492 1_554 S
O389 C370 1.239 1_554 S
O390 Nd368 2.487 . S
O390 C377 1.241 . S
O391 Nd368 2.682 . S
O391 Nd369 2.414 . S
O391 C377 1.273 . S
O392 Nd368 2.410 . S
O392 C378 1.251 . S
O393 Nd369 2.424 . S
O393 C378 1.268 . S
O394 Nd369 2.500 . S
O394 C379 1.258 . S
O395 Nd369 2.492 . S
O395 C379 1.239 . S
O396 Nd369 2.487 . S
O396 C386 1.241 . S
O397 Nd368 2.414 . S
O397 Nd369 2.682 . S
O397 C386 1.273 . S
O398 Nd369 2.410 . S
O398 C387 1.251 . S
O399 Nd368 2.424 . S
O399 C387 1.268 . S
H400 C372 0.930 . S
H401 C373 0.929 1_556 S
H402 C375 0.930 . S
H403 C376 0.929 . S
H404 C381 0.930 . S
H405 C382 0.929 . S
H406 C384 0.930 . S
H407 C385 0.929 . S
Nd408 C410 2.836 1_455 S
Nd408 O428 2.500 1_455 S
Nd408 O429 2.492 1_455 S
Nd408 O430 2.487 . S
Nd408 O431 2.682 . S
Nd408 O432 2.410 1_455 S
Nd408 O437 2.414 . S
Nd408 O439 2.424 . S
Nd409 C419 2.836 1_556 S
Nd409 O431 2.414 . S
Nd409 O433 2.424 1_455 S
Nd409 O434 2.500 1_556 S
Nd409 O435 2.492 1_556 S
Nd409 O436 2.487 . S
Nd409 O437 2.682 . S
Nd409 O438 2.410 . S
C410 Nd408 2.836 1_655 S
C410 C411 1.498 . S
C410 O428 1.258 . S
C410 O429 1.239 . S
C411 C410 1.498 . S
C411 C412 1.366 . S
C411 C416 1.407 . S
C412 C411 1.366 . S
C412 C413 1.392 . S
C412 H440 0.930 . S
C413 C412 1.392 . S
C413 C414 1.398 . S
C413 H441 0.929 . S
C414 C413 1.398 . S
C414 C415 1.352 . S
C415 C414 1.352 . S
C415 C416 1.384 . S
C415 H442 0.930 . S
C416 C411 1.407 . S
C416 C415 1.384 . S
C416 H443 0.929 . S
C417 O430 1.241 . S
C417 O431 1.273 . S
C418 O432 1.251 . S
C418 O433 1.268 . S
C419 Nd409 2.836 1_554 S
C419 C420 1.498 . S
C419 O434 1.258 . S
C419 O435 1.239 . S
C420 C419 1.498 . S
C420 C421 1.366 . S
C420 C425 1.407 . S
C421 C420 1.366 . S
C421 C422 1.392 . S
C421 H444 0.930 . S
C422 C421 1.392 . S
C422 C423 1.398 . S
C422 H445 0.929 . S
C423 C422 1.398 . S
C423 C424 1.352 . S
C424 C423 1.352 . S
C424 C425 1.384 . S
C424 H446 0.930 . S
C425 C420 1.407 . S
C425 C424 1.384 . S
C425 H447 0.929 . S
C426 O436 1.241 . S
C426 O437 1.273 . S
C427 O438 1.251 . S
C427 O439 1.268 . S
O428 Nd408 2.500 1_655 S
O428 C410 1.258 . S
O429 Nd408 2.492 1_655 S
O429 C410 1.239 . S
O430 Nd408 2.487 . S
O430 C417 1.241 . S
O431 Nd408 2.682 . S
O431 Nd409 2.414 . S
O431 C417 1.273 . S
O432 Nd408 2.410 1_655 S
O432 C418 1.251 . S
O433 Nd409 2.424 1_655 S
O433 C418 1.268 . S
O434 Nd409 2.500 1_554 S
O434 C419 1.258 . S
O435 Nd409 2.492 1_554 S
O435 C419 1.239 . S
O436 Nd409 2.487 . S
O436 C426 1.241 . S
O437 Nd408 2.414 . S
O437 Nd409 2.682 . S
O437 C426 1.273 . S
O438 Nd409 2.410 . S
O438 C427 1.251 . S
O439 Nd408 2.424 . S
O439 C427 1.268 . S
H440 C412 0.930 . S
H441 C413 0.929 . S
H442 C415 0.930 . S
H443 C416 0.929 . S
H444 C421 0.930 . S
H445 C422 0.929 . S
H446 C424 0.930 . S
H447 C425 0.929 . S
C448 C449 1.387 . S
C448 H452 0.950 . S
C448 C457 1.390 . S
C449 C448 1.387 . S
C449 C451 1.387 . S
H450 C457 0.950 . S
C451 C449 1.387 . S
C451 C453 1.390 . S
C451 H455 0.950 . S
H452 C448 0.950 . S
C453 C451 1.390 . S
C453 C454 1.387 . S
C453 H456 0.950 . S
C454 C453 1.387 . S
C454 C457 1.387 . S
H455 C451 0.950 . S
H456 C453 0.950 . S
C457 C448 1.390 . S
C457 H450 0.950 . S
C457 C454 1.387 . S
C458 C459 1.387 . S
C458 H462 0.950 . S
C458 C467 1.390 . S
C459 C458 1.387 . S
C459 C461 1.387 . S
H460 C467 0.950 . S
C461 C459 1.387 . S
C461 C463 1.390 . S
C461 H465 0.950 . S
H462 C458 0.950 . S
C463 C461 1.390 . S
C463 C464 1.387 . S
C463 H466 0.950 . S
C464 C463 1.387 . S
C464 C467 1.387 . S
H465 C461 0.950 . S
H466 C463 0.950 . S
C467 C458 1.390 . S
C467 H460 0.950 . S
C467 C464 1.387 . S
C468 C469 1.387 . S
C468 H472 0.950 . S
C468 C477 1.390 . S
C469 C468 1.387 . S
C469 C471 1.387 . S
H470 C477 0.950 . S
C471 C469 1.387 . S
C471 C473 1.390 . S
C471 H475 0.950 . S
H472 C468 0.950 . S
C473 C471 1.390 . S
C473 C474 1.387 . S
C473 H476 0.950 . S
C474 C473 1.387 . S
C474 C477 1.387 . S
H475 C471 0.950 . S
H476 C473 0.950 . S
C477 C468 1.390 . S
C477 H470 0.950 . S
C477 C474 1.387 . S
C478 C479 1.387 . S
C478 H482 0.950 . S
C478 C487 1.390 . S
C479 C478 1.387 . S
C479 C481 1.387 . S
H480 C487 0.950 . S
C481 C479 1.387 . S
C481 C483 1.390 . S
C481 H485 0.950 . S
H482 C478 0.950 . S
C483 C481 1.390 . S
C483 C484 1.387 . S
C483 H486 0.950 . S
C484 C483 1.387 . S
C484 C487 1.387 . S
H485 C481 0.950 . S
H486 C483 0.950 . S
C487 C478 1.390 . S
C487 H480 0.950 . S
C487 C484 1.387 . S
C488 C489 1.387 . S
C488 H492 0.950 . S
C488 C497 1.390 1_565 S
C489 C488 1.387 . S
C489 C491 1.387 1_565 S
H490 C497 0.950 . S
C491 C489 1.387 1_545 S
C491 C493 1.390 . S
C491 H495 0.950 1_556 S
H492 C488 0.950 . S
C493 C491 1.390 . S
C493 C494 1.387 . S
C493 H496 0.950 . S
C494 C493 1.387 . S
C494 C497 1.387 . S
H495 C491 0.950 1_554 S
H496 C493 0.950 . S
C497 C488 1.390 1_545 S
C497 H490 0.950 . S
C497 C494 1.387 . S
C498 C499 1.387 . S
C498 H502 0.950 . S
C498 C507 1.390 . S
C499 C498 1.387 . S
C499 C501 1.387 1_565 S
H500 C507 0.950 . S
C501 C499 1.387 1_545 S
C501 C503 1.390 . S
C501 H505 0.950 . S
H502 C498 0.950 . S
C503 C501 1.390 . S
C503 C504 1.387 1_545 S
C503 H506 0.950 . S
C504 C503 1.387 1_565 S
C504 C507 1.387 . S
H505 C501 0.950 . S
H506 C503 0.950 . S
C507 C498 1.390 . S
C507 H500 0.950 . S
C507 C504 1.387 . S
C508 C509 1.387 . S
C508 H512 0.950 1_556 S
C508 C517 1.390 . S
C509 C508 1.387 . S
C509 C511 1.387 . S
H510 C517 0.950 1_554 S
C511 C509 1.387 . S
C511 C513 1.390 . S
C511 H515 0.950 . S
H512 C508 0.950 1_554 S
C513 C511 1.390 . S
C513 C514 1.387 . S
C513 H516 0.950 . S
C514 C513 1.387 . S
C514 C517 1.387 . S
H515 C511 0.950 . S
H516 C513 0.950 . S
C517 C508 1.390 . S
C517 H510 0.950 1_556 S
C517 C514 1.387 . S
C518 C519 1.387 . S
C518 H522 0.950 . S
C518 C527 1.390 . S
C519 C518 1.387 . S
C519 C521 1.387 1_556 S
H520 C527 0.950 . S
C521 C519 1.387 1_554 S
C521 C523 1.390 1_554 S
C521 H525 0.950 . S
H522 C518 0.950 . S
C523 C521 1.390 1_556 S
C523 C524 1.387 . S
C523 H526 0.950 1_556 S
C524 C523 1.387 . S
C524 C527 1.387 . S
H525 C521 0.950 . S
H526 C523 0.950 1_554 S
C527 C518 1.390 . S
C527 H520 0.950 . S
C527 C524 1.387 . S
C528 C529 1.387 . S
C528 H532 0.950 . S
C528 C537 1.390 . S
C529 C528 1.387 . S
C529 C531 1.387 . S
H530 C537 0.950 . S
C531 C529 1.387 . S
C531 C533 1.390 . S
C531 H535 0.950 . S
H532 C528 0.950 . S
C533 C531 1.390 . S
C533 C534 1.387 . S
C533 H536 0.950 . S
C534 C533 1.387 . S
C534 C537 1.387 . S
H535 C531 0.950 . S
H536 C533 0.950 . S
C537 C528 1.390 . S
C537 H530 0.950 . S
C537 C534 1.387 . S
C538 C539 1.387 . S
C538 H542 0.950 . S
C538 C547 1.390 . S
C539 C538 1.387 . S
C539 C541 1.387 . S
H540 C547 0.950 . S
C541 C539 1.387 . S
C541 C543 1.390 . S
C541 H545 0.950 1_556 S
H542 C538 0.950 . S
C543 C541 1.390 . S
C543 C544 1.387 . S
C543 H546 0.950 . S
C544 C543 1.387 . S
C544 C547 1.387 . S
H545 C541 0.950 1_554 S
H546 C543 0.950 . S
C547 C538 1.390 . S
C547 H540 0.950 . S
C547 C544 1.387 . S
C548 C549 1.387 . S
C548 H552 0.950 . S
C548 C557 1.390 . S
C549 C548 1.387 . S
C549 C551 1.387 . S
H550 C557 0.950 . S
C551 C549 1.387 . S
C551 C553 1.390 . S
C551 H555 0.950 . S
H552 C548 0.950 . S
C553 C551 1.390 . S
C553 C554 1.387 . S
C553 H556 0.950 . S
C554 C553 1.387 . S
C554 C557 1.387 . S
H555 C551 0.950 . S
H556 C553 0.950 . S
C557 C548 1.390 . S
C557 H550 0.950 . S
C557 C554 1.387 . S
C558 C559 1.387 . S
C558 H562 0.950 . S
C558 C567 1.390 . S
C559 C558 1.387 . S
C559 C561 1.387 . S
H560 C567 0.950 . S
C561 C559 1.387 . S
C561 C563 1.390 . S
C561 H565 0.950 . S
H562 C558 0.950 . S
C563 C561 1.390 . S
C563 C564 1.387 . S
C563 H566 0.950 . S
C564 C563 1.387 . S
C564 C567 1.387 . S
H565 C561 0.950 . S
H566 C563 0.950 . S
C567 C558 1.390 . S
C567 H560 0.950 . S
C567 C564 1.387 . S
C568 C569 1.387 . S
C568 H572 0.950 . S
C568 C577 1.390 . S
C569 C568 1.387 . S
C569 C571 1.387 . S
H570 C577 0.950 . S
C571 C569 1.387 . S
C571 C573 1.390 . S
C571 H575 0.950 . S
H572 C568 0.950 . S
C573 C571 1.390 . S
C573 C574 1.387 . S
C573 H576 0.950 . S
C574 C573 1.387 . S
C574 C577 1.387 . S
H575 C571 0.950 . S
H576 C573 0.950 . S
C577 C568 1.390 . S
C577 H570 0.950 . S
C577 C574 1.387 . S
C578 C579 1.387 1_545 S
C578 H582 0.950 . S
C578 C587 1.390 . S
C579 C578 1.387 1_565 S
C579 C581 1.387 . S
H580 C587 0.950 . S
C581 C579 1.387 . S
C581 C583 1.390 1_565 S
C581 H585 0.950 . S
H582 C578 0.950 . S
C583 C581 1.390 1_545 S
C583 C584 1.387 . S
C583 H586 0.950 1_545 S
C584 C583 1.387 . S
C584 C587 1.387 . S
H585 C581 0.950 . S
H586 C583 0.950 1_565 S
C587 C578 1.390 . S
C587 H580 0.950 . S
C587 C584 1.387 . S
C588 C589 1.387 . S
C588 H592 0.950 . S
C588 C597 1.390 . S
C589 C588 1.387 . S
C589 C591 1.387 . S
H590 C597 0.950 1_556 S
C591 C589 1.387 . S
C591 C593 1.390 . S
C591 H595 0.950 . S
H592 C588 0.950 . S
C593 C591 1.390 . S
C593 C594 1.387 . S
C593 H596 0.950 . S
C594 C593 1.387 . S
C594 C597 1.387 . S
H595 C591 0.950 . S
H596 C593 0.950 . S
C597 C588 1.390 . S
C597 H590 0.950 1_554 S
C597 C594 1.387 . S
C598 C599 1.387 . S
C598 H602 0.950 . S
C598 C607 1.390 . S
C599 C598 1.387 . S
C599 C601 1.387 . S
H600 C607 0.950 . S
C601 C599 1.387 . S
C601 C603 1.390 . S
C601 H605 0.950 . S
H602 C598 0.950 . S
C603 C601 1.390 . S
C603 C604 1.387 . S
C603 H606 0.950 . S
C604 C603 1.387 . S
C604 C607 1.387 . S
H605 C601 0.950 . S
H606 C603 0.950 . S
C607 C598 1.390 . S
C607 H600 0.950 . S
C607 C604 1.387 . S
C608 C609 1.387 . S
C608 H612 0.950 . S
C608 C617 1.390 . S
C609 C608 1.387 . S
C609 C611 1.387 . S
H610 C617 0.950 . S
C611 C609 1.387 . S
C611 C613 1.390 . S
C611 H615 0.950 . S
H612 C608 0.950 . S
C613 C611 1.390 . S
C613 C614 1.387 . S
C613 H616 0.950 . S
C614 C613 1.387 . S
C614 C617 1.387 . S
H615 C611 0.950 . S
H616 C613 0.950 . S
C617 C608 1.390 . S
C617 H610 0.950 . S
C617 C614 1.387 . S
C618 C619 1.387 . S
C618 H622 0.950 . S
C618 C627 1.390 . S
C619 C618 1.387 . S
C619 C621 1.387 . S
H620 C627 0.950 . S
C621 C619 1.387 . S
C621 C623 1.390 . S
C621 H625 0.950 . S
H622 C618 0.950 . S
C623 C621 1.390 . S
C623 C624 1.387 . S
C623 H626 0.950 . S
C624 C623 1.387 . S
C624 C627 1.387 . S
H625 C621 0.950 . S
H626 C623 0.950 . S
C627 C618 1.390 . S
C627 H620 0.950 . S
C627 C624 1.387 . S
C628 C629 1.387 1_554 S
C628 H632 0.950 . S
C628 C637 1.390 . S
C629 C628 1.387 1_556 S
C629 C631 1.387 . S
H630 C637 0.950 . S
C631 C629 1.387 . S
C631 C633 1.390 . S
C631 H635 0.950 . S
H632 C628 0.950 . S
C633 C631 1.390 . S
C633 C634 1.387 . S
C633 H636 0.950 . S
C634 C633 1.387 . S
C634 C637 1.387 1_556 S
H635 C631 0.950 . S
H636 C633 0.950 . S
C637 C628 1.390 . S
C637 H630 0.950 . S
C637 C634 1.387 1_554 S
C638 C639 1.387 . S
C638 H642 0.950 . S
C638 C647 1.390 . S
C639 C638 1.387 . S
C639 C641 1.387 . S
H640 C647 0.950 . S
C641 C639 1.387 . S
C641 C643 1.390 . S
C641 H645 0.950 . S
H642 C638 0.950 . S
C643 C641 1.390 . S
C643 C644 1.387 . S
C643 H646 0.950 . S
C644 C643 1.387 . S
C644 C647 1.387 . S
H645 C641 0.950 . S
H646 C643 0.950 . S
C647 C638 1.390 . S
C647 H640 0.950 . S
C647 C644 1.387 . S
C648 C649 1.387 . S
C648 H652 0.950 . S
C648 C657 1.390 . S
C649 C648 1.387 . S
C649 C651 1.387 . S
H650 C657 0.950 . S
C651 C649 1.387 . S
C651 C653 1.390 . S
C651 H655 0.950 . S
H652 C648 0.950 . S
C653 C651 1.390 . S
C653 C654 1.387 . S
C653 H656 0.950 . S
C654 C653 1.387 . S
C654 C657 1.387 . S
H655 C651 0.950 . S
H656 C653 0.950 . S
C657 C648 1.390 . S
C657 H650 0.950 . S
C657 C654 1.387 . S
C658 C659 1.387 . S
C658 H662 0.950 . S
C658 C667 1.390 . S
C659 C658 1.387 . S
C659 C661 1.387 1_565 S
H660 C667 0.950 . S
C661 C659 1.387 1_545 S
C661 C663 1.384 . S
C661 H665 0.950 . S
H662 C658 0.950 . S
C663 C661 1.384 . S
C663 C664 1.364 1_545 S
C663 H666 0.979 . S
C664 C663 1.364 1_565 S
C664 C667 1.387 . S
H665 C661 0.950 . S
H666 C663 0.979 . S
C667 C658 1.390 . S
C667 H660 0.950 . S
C667 C664 1.387 . S
C668 C669 1.387 . S
C668 H672 0.950 . S
C668 C677 1.390 . S
C669 C668 1.387 . S
C669 C671 1.387 . S
H670 C677 0.950 . S
C671 C669 1.387 . S
C671 C673 1.390 . S
C671 H675 0.950 . S
H672 C668 0.950 . S
C673 C671 1.390 . S
C673 C674 1.387 . S
C673 H676 0.950 . S
C674 C673 1.387 . S
C674 C677 1.387 . S
H675 C671 0.950 . S
H676 C673 0.950 . S
C677 C668 1.390 . S
C677 H670 0.950 . S
C677 C674 1.387 . S
C678 C679 1.387 . S
C678 H682 0.950 . S
C678 C687 1.390 . S
C679 C678 1.387 . S
C679 C681 1.387 . S
H680 C687 0.950 . S
C681 C679 1.387 . S
C681 C683 1.390 . S
C681 H685 0.950 . S
H682 C678 0.950 . S
C683 C681 1.390 . S
C683 C684 1.387 . S
C683 H686 0.950 . S
C684 C683 1.387 . S
C684 C687 1.387 . S
H685 C681 0.950 . S
H686 C683 0.950 . S
C687 C678 1.390 . S
C687 H680 0.950 . S
C687 C684 1.387 . S
C449 C241 1.403 . S
C454 C297 1.359 . S
C464 C337 2.234 . S
C459 C277 2.275 . S
C474 C386 1.544 . S
C469 C169 1.464 . S
C484 C417 2.068 . S
C479 C205 2.118 . S
C494 C306 1.361 . S
C489 C97 1.350 . S
C499 C133 2.374 . S
C504 C346 2.234 1_554 S
C509 C25 1.546 . S
C514 C377 1.545 . S
C519 C61 2.014 1_556 S
C524 C426 2.068 1_655 S
C534 C307 1.913 . S
C529 C211 1.560 . S
C544 C347 1.823 . S
C539 C247 1.544 . S
C554 C383 0.839 . S
C549 C253 0.826 . S
C559 C175 1.527 . S
C564 C427 1.897 . S
C569 C67 1.436 . S
C574 C298 1.913 1_655 S
C584 C338 1.824 . S
C579 C103 1.452 . S
C594 C374 0.839 . S
C589 C109 0.839 . S
C599 C31 1.590 . S
C604 C418 1.897 . S
C609 C181 2.053 . S
C614 C303 2.169 . S
C619 C217 1.755 . S
C624 C343 1.776 . S
C634 C387 3.144 . S
C629 C283 2.658 1_556 S
C644 C423 1.789 . S
C639 C145 1.696 . S
C649 C37 2.015 . S
C654 C294 2.169 . S
C664 C334 1.776 . S
C659 C73 1.766 . S
C674 C378 3.145 . S
C669 C139 2.718 . S
C679 C1 1.754 . S
C684 C414 1.789 . S
