# Generated by pormake.
# Topology eea, (3,6)-cn, num edge types: 1
# Building blocks:
#     Node 0, Type 0, BuildingBlock: VETTIZ_charged_linker_0, # of connection points: 3
#     Node 1, Type 0, BuildingBlock: VETTIZ_charged_linker_0, # of connection points: 3
#     Node 2, Type 0, BuildingBlock: VETTIZ_charged_linker_0, # of connection points: 3
#     Node 3, Type 0, BuildingBlock: VETTIZ_charged_linker_0, # of connection points: 3
#     Node 4, Type 0, BuildingBlock: VETTIZ_charged_linker_0, # of connection points: 3
#     Node 5, Type 0, BuildingBlock: VETTIZ_charged_linker_0, # of connection points: 3
#     Node 6, Type 0, BuildingBlock: VETTIZ_charged_linker_0, # of connection points: 3
#     Node 7, Type 0, BuildingBlock: VETTIZ_charged_linker_0, # of connection points: 3
#     Node 8, Type 0, BuildingBlock: VETTIZ_charged_linker_0, # of connection points: 3
#     Node 9, Type 0, BuildingBlock: VETTIZ_charged_linker_0, # of connection points: 3
#     Node 10, Type 0, BuildingBlock: VETTIZ_charged_linker_0, # of connection points: 3
#     Node 11, Type 0, BuildingBlock: VETTIZ_charged_linker_0, # of connection points: 3
#     Node 12, Type 0, BuildingBlock: VETTIZ_charged_linker_0, # of connection points: 3
#     Node 13, Type 0, BuildingBlock: VETTIZ_charged_linker_0, # of connection points: 3
#     Node 14, Type 0, BuildingBlock: VETTIZ_charged_linker_0, # of connection points: 3
#     Node 15, Type 0, BuildingBlock: VETTIZ_charged_linker_0, # of connection points: 3
#     Node 16, Type 0, BuildingBlock: VETTIZ_charged_linker_0, # of connection points: 3
#     Node 17, Type 0, BuildingBlock: VETTIZ_charged_linker_0, # of connection points: 3
#     Node 18, Type 1, BuildingBlock: LEVNOQ01_clean_sbu_1, # of connection points: 6
#     Node 19, Type 1, BuildingBlock: LEVNOQ01_clean_sbu_1, # of connection points: 6
#     Node 20, Type 1, BuildingBlock: LEVNOQ01_clean_sbu_1, # of connection points: 6
#     Node 21, Type 1, BuildingBlock: LEVNOQ01_clean_sbu_1, # of connection points: 6
#     Node 22, Type 1, BuildingBlock: LEVNOQ01_clean_sbu_1, # of connection points: 6
#     Node 23, Type 1, BuildingBlock: LEVNOQ01_clean_sbu_1, # of connection points: 6
#     Node 24, Type 1, BuildingBlock: LEVNOQ01_clean_sbu_1, # of connection points: 6
#     Node 25, Type 1, BuildingBlock: LEVNOQ01_clean_sbu_1, # of connection points: 6
#     Node 26, Type 1, BuildingBlock: LEVNOQ01_clean_sbu_1, # of connection points: 6
#     Edge 27, Type (0, 1), None
#     Edge 28, Type (0, 1), None
#     Edge 29, Type (0, 1), None
#     Edge 30, Type (0, 1), None
#     Edge 31, Type (0, 1), None
#     Edge 32, Type (0, 1), None
#     Edge 33, Type (0, 1), None
#     Edge 34, Type (0, 1), None
#     Edge 35, Type (0, 1), None
#     Edge 36, Type (0, 1), None
#     Edge 37, Type (0, 1), None
#     Edge 38, Type (0, 1), None
#     Edge 39, Type (0, 1), None
#     Edge 40, Type (0, 1), None
#     Edge 41, Type (0, 1), None
#     Edge 42, Type (0, 1), None
#     Edge 43, Type (0, 1), None
#     Edge 44, Type (0, 1), None
#     Edge 45, Type (0, 1), None
#     Edge 46, Type (0, 1), None
#     Edge 47, Type (0, 1), None
#     Edge 48, Type (0, 1), None
#     Edge 49, Type (0, 1), None
#     Edge 50, Type (0, 1), None
#     Edge 51, Type (0, 1), None
#     Edge 52, Type (0, 1), None
#     Edge 53, Type (0, 1), None
#     Edge 54, Type (0, 1), None
#     Edge 55, Type (0, 1), None
#     Edge 56, Type (0, 1), None
#     Edge 57, Type (0, 1), None
#     Edge 58, Type (0, 1), None
#     Edge 59, Type (0, 1), None
#     Edge 60, Type (0, 1), None
#     Edge 61, Type (0, 1), None
#     Edge 62, Type (0, 1), None
#     Edge 63, Type (0, 1), None
#     Edge 64, Type (0, 1), None
#     Edge 65, Type (0, 1), None
#     Edge 66, Type (0, 1), None
#     Edge 67, Type (0, 1), None
#     Edge 68, Type (0, 1), None
#     Edge 69, Type (0, 1), None
#     Edge 70, Type (0, 1), None
#     Edge 71, Type (0, 1), None
#     Edge 72, Type (0, 1), None
#     Edge 73, Type (0, 1), None
#     Edge 74, Type (0, 1), None
#     Edge 75, Type (0, 1), None
#     Edge 76, Type (0, 1), None
#     Edge 77, Type (0, 1), None
#     Edge 78, Type (0, 1), None
#     Edge 79, Type (0, 1), None
#     Edge 80, Type (0, 1), None
# Relax obj value: 0.096
# Max RMSD: 0.182
# Mean RMSD: 0.092
data_MOF--net-eea--node1-LEVNOQ01_clean_sbu_1--node2-VETTIZ_charged_linker_0--edge1-none
_symmetry_space_group_name_H-M    P1
_symmetry_Int_Tables_number       1
_symmetry_cell_setting            triclinic
loop_
_symmetry_equiv_pos_as_xyz
'x, y, z'
_cell_length_a     35.829327
_cell_length_b     35.594889
_cell_length_c     37.271675
_cell_angle_alpha  90.689877
_cell_angle_beta   90.299402
_cell_angle_gamma 120.48959
loop_
_atom_site_label
_atom_site_type_symbol
_atom_site_fract_x
_atom_site_fract_y
_atom_site_fract_z
_atom_type_partial_charge
C0 C 0.14353 0.16605 0.34926 0.0
C1 C 0.15414 0.20758 0.36179 0.0
C2 C 0.17391 0.22213 0.39591 0.0
C3 C 0.17914 0.15708 0.40109 0.0
C4 C 0.1567 0.14174 0.36889 0.0
C5 C 0.15402 0.10049 0.35582 0.0
H6 H 0.19766 0.94053 0.38507 0.0
C7 C 0.19246 0.12594 0.4124 0.0
C8 C 0.17668 0.09226 0.38631 0.0
H9 H 0.1572 0.97011 0.28556 0.0
H10 H 0.14861 0.02613 0.31575 0.0
H11 H 0.2659 0.0247 0.38873 0.0
H12 H 0.14729 0.96782 0.44592 0.0
H13 H 0.18769 0.00403 0.47622 0.0
H14 H 0.19153 0.95948 0.45599 0.0
H15 H 0.26071 -0.00079 0.43097 0.0
H16 H 0.28056 0.05689 0.42764 0.0
C17 C 0.17944 0.10986 0.32018 0.0
C18 C 0.10573 0.06464 0.35249 0.0
C19 C 0.29585 0.15814 0.51807 0.0
C20 C 0.31228 0.13354 0.5336 0.0
C21 C 0.29796 0.09102 0.52135 0.0
C22 C 0.26829 0.07338 0.49283 0.0
C23 C 0.25303 0.09865 0.47664 0.0
C24 C 0.26598 0.13995 0.48966 0.0
C25 C 0.24393 0.16057 0.47019 0.0
C26 C 0.21786 0.1257 0.44179 0.0
C27 C 0.22384 0.09001 0.4459 0.0
C28 C 0.27921 0.20351 0.45354 0.0
C29 C 0.21446 0.16667 0.49697 0.0
C30 C 0.18466 0.95759 0.37034 0.0
C31 C 0.17681 0.95073 0.33362 0.0
C32 C 0.16261 0.97493 0.3143 0.0
C33 C 0.15872 0.00792 0.33168 0.0
C34 C 0.17206 0.01815 0.36783 0.0
C35 C 0.18512 0.99323 0.38621 0.0
C36 C 0.20879 0.01451 0.42029 0.0
C37 C 0.20624 0.05544 0.42048 0.0
C38 C 0.18362 0.0569 0.39044 0.0
C39 C 0.25629 0.02418 0.41715 0.0
C40 C 0.18279 0.98479 0.45142 0.0
H41 H 0.20304 0.21018 0.44087 0.0
H42 H 0.12845 0.15409 0.3231 0.0
H43 H 0.08817 0.06369 0.37731 0.0
H44 H 0.10097 0.03169 0.34876 0.0
H45 H 0.0899 0.07108 0.32958 0.0
H46 H 0.2027 0.14528 0.31679 0.0
H47 H 0.1572 0.09845 0.29651 0.0
H48 H 0.19991 0.09478 0.31921 0.0
H49 H 0.30544 0.19044 0.52837 0.0
H50 H 0.30934 0.07141 0.53409 0.0
H51 H 0.25799 0.04049 0.48483 0.0
H52 H 0.30339 0.1982 0.43927 0.0
H53 H 0.29666 0.22898 0.47466 0.0
H54 H 0.26619 0.21655 0.43353 0.0
H55 H 0.20057 0.13994 0.51678 0.0
H56 H 0.18611 0.16525 0.48372 0.0
H57 H 0.23288 0.19799 0.51219 0.0
H58 H 0.18244 0.2542 0.40608 0.0
C59 C 0.18639 0.19687 0.41578 0.0
C60 C -0.00281 0.23795 0.33434 0.0
C61 C 0.01243 0.28134 0.34546 0.0
C62 C 0.98759 0.29038 0.36941 0.0
C63 C 0.93908 0.21329 0.37718 0.0
C64 C 0.95958 0.20443 0.34997 0.0
C65 C 0.93715 0.15628 0.34123 0.0
H66 H 0.76927 0.95467 0.37541 0.0
C67 C 0.90615 0.17171 0.39239 0.0
C68 C 0.90361 0.13799 0.37091 0.0
H69 H 0.85076 -0.00055 0.28199 0.0
H70 H 0.89736 0.06868 0.31134 0.0
H71 H 0.85257 0.00214 0.43357 0.0
H72 H 0.76225 0.03746 0.39253 0.0
H73 H 0.76687 0.04308 0.44007 0.0
H74 H 0.74823 0.99066 0.41957 0.0
H75 H 0.8019 0.98497 0.45499 0.0
H76 H 0.84965 0.03666 0.46616 0.0
C77 C 0.97031 0.14086 0.3447 0.0
C78 C 0.916 0.14856 0.30331 0.0
C79 C 0.85864 0.17372 0.51877 0.0
C80 C 0.83868 0.14132 0.54455 0.0
C81 C 0.81752 0.09726 0.53361 0.0
C82 C 0.81906 0.08582 0.4975 0.0
C83 C 0.84248 0.11906 0.47261 0.0
C84 C 0.86129 0.16217 0.48353 0.0
C85 C 0.8885 0.1936 0.45523 0.0
C86 C 0.88409 0.16223 0.42545 0.0
C87 C 0.85688 0.1187 0.43554 0.0
C88 C 0.93568 0.22058 0.46998 0.0
C89 C 0.86811 0.22149 0.44487 0.0
C90 C 0.79785 0.97905 0.36181 0.0
C91 C 0.80592 0.97212 0.32614 0.0
C92 C 0.84351 0.00441 0.30924 0.0
C93 C 0.87013 0.0448 0.32599 0.0
C94 C 0.85899 0.05306 0.35989 0.0
C95 C 0.82469 0.02003 0.37815 0.0
C96 C 0.81844 0.03564 0.41425 0.0
C97 C 0.85071 0.08429 0.41203 0.0
C98 C 0.87459 0.09402 0.38026 0.0
C99 C 0.83099 0.0137 0.44392 0.0
C100 C 0.77138 0.02616 0.41696 0.0
H101 H 0.93457 0.26515 0.40476 0.0
H102 H 0.01502 0.23034 0.31508 0.0
H103 H 0.91489 0.17747 0.29371 0.0
H104 H 0.88175 0.1217 0.30294 0.0
H105 H 0.93415 0.14121 0.28305 0.0
H106 H 0.98937 0.15358 0.37011 0.0
H107 H 0.99336 0.15274 0.32206 0.0
H108 H 0.95471 0.10499 0.34544 0.0
H109 H 0.87474 0.20793 0.52646 0.0
H110 H 0.80226 0.07212 0.55336 0.0
H111 H 0.80338 0.05177 0.4905 0.0
H112 H 0.94631 0.19865 0.48122 0.0
H113 H 0.93831 0.2435 0.49167 0.0
H114 H 0.95953 0.24006 0.44957 0.0
H115 H 0.83429 0.20714 0.45447 0.0
H116 H 0.86569 0.22362 0.41536 0.0
H117 H 0.88695 0.25498 0.45657 0.0
H118 H -0.00162 0.32354 0.37811 0.0
C119 C 0.95096 0.2565 0.38534 0.0
C120 C 0.00566 0.7972 0.36181 0.0
C121 C 0.03621 0.79524 0.38472 0.0
C122 C 0.02446 0.78166 0.42035 0.0
C123 C 0.95302 0.76854 0.40986 0.0
C124 C 0.9639 0.78377 0.37529 0.0
C125 C 0.92619 0.78384 0.35671 0.0
H126 H 0.71061 0.71455 0.36246 0.0
C127 C 0.90736 0.75352 0.41566 0.0
C128 C 0.89057 0.76152 0.3846 0.0
H129 H 0.80222 0.80553 0.28738 0.0
H130 H 0.85957 0.7967 0.31468 0.0
H131 H 0.74933 0.64747 0.37586 0.0
H132 H 0.76705 0.76666 0.42266 0.0
H133 H 0.7696 0.73628 0.458 0.0
H134 H 0.72013 0.71484 0.43203 0.0
H135 H 0.70787 0.65062 0.40025 0.0
H136 H 0.7479 0.64273 0.42294 0.0
C137 C 0.91513 0.75709 0.32139 0.0
C138 C 0.93877 0.83187 0.35136 0.0
C139 C 0.84356 0.68844 0.53518 0.0
C140 C 0.80177 0.66868 0.54903 0.0
C141 C 0.7668 0.66113 0.52672 0.0
C142 C 0.77415 0.675 0.49091 0.0
C143 C 0.8168 0.69612 0.47767 0.0
C144 C 0.85023 0.70143 0.49968 0.0
C145 C 0.89298 0.7222 0.48135 0.0
C146 C 0.88055 0.73165 0.44509 0.0
C147 C 0.83615 0.71615 0.44292 0.0
C148 C 0.90713 0.68753 0.4786 0.0
C149 C 0.92473 0.76459 0.50267 0.0
C150 C 0.74261 0.73129 0.3508 0.0
C151 C 0.75185 0.75958 0.32216 0.0
C152 C 0.79446 0.78299 0.30919 0.0
C153 C 0.82757 0.77831 0.32535 0.0
C154 C 0.81798 0.75178 0.35569 0.0
C155 C 0.77593 0.72922 0.36792 0.0
C156 C 0.77216 0.71019 0.40419 0.0
C157 C 0.81858 0.72349 0.41156 0.0
C158 C 0.84554 0.747 0.38283 0.0
C159 C 0.74257 0.66009 0.40096 0.0
C160 C 0.75605 0.73266 0.43075 0.0
H161 H 0.97751 0.75754 0.45991 0.0
H162 H 0.01369 0.8079 0.33442 0.0
H163 H 0.95977 0.85305 0.37383 0.0
H164 H 0.91046 0.83634 0.35141 0.0
H165 H 0.95686 0.84471 0.32607 0.0
H166 H 0.91057 0.7243 0.32647 0.0
H167 H 0.94165 0.77367 0.30178 0.0
H168 H 0.88494 0.75196 0.30874 0.0
H169 H 0.87079 0.69346 0.55167 0.0
H170 H 0.73421 0.64532 0.53711 0.0
H171 H 0.74654 0.66914 0.47506 0.0
H172 H 0.87867 0.65378 0.47759 0.0
H173 H 0.92744 0.68972 0.50205 0.0
H174 H 0.92472 0.68991 0.45364 0.0
H175 H 0.90719 0.77887 0.51646 0.0
H176 H 0.94802 0.79098 0.48528 0.0
H177 H 0.94292 0.75814 0.52357 0.0
H178 H 0.04638 0.77919 0.4388 0.0
C179 C 0.98358 0.76831 0.43281 0.0
C180 C 0.22864 0.21997 0.64469 0.0
C181 C 0.27051 0.2418 0.62973 0.0
C182 C 0.28418 0.28067 0.61098 0.0
C183 C 0.21214 0.2684 0.61238 0.0
C184 C 0.19985 0.23465 0.63592 0.0
C185 C 0.15436 0.2188 0.64919 0.0
H186 H 0.96091 0.20291 0.60819 0.0
C187 C 0.17439 0.27105 0.60215 0.0
C188 C 0.1399 0.24299 0.62422 0.0
H189 H 0.9939 0.17092 0.71008 0.0
H190 H 0.06563 0.19041 0.68732 0.0
H191 H 0.03227 0.28792 0.61323 0.0
H192 H 0.0194 0.17908 0.55185 0.0
H193 H 0.04112 0.22418 0.52349 0.0
H194 H 0.98932 0.20596 0.54351 0.0
H195 H 0.00826 0.27553 0.5692 0.0
H196 H 0.06578 0.31184 0.5764 0.0
C197 C 0.15799 0.2343 0.68865 0.0
C198 C 0.1263 0.16892 0.64438 0.0
C199 C 0.1761 0.33258 0.47927 0.0
C200 C 0.14417 0.33617 0.46045 0.0
C201 C 0.1038 0.32249 0.47644 0.0
C202 C 0.09475 0.30437 0.51027 0.0
C203 C 0.12628 0.29974 0.52861 0.0
C204 C 0.16659 0.31492 0.51376 0.0
C205 C 0.19709 0.31095 0.5391 0.0
C206 C 0.16712 0.28859 0.57077 0.0
C207 C 0.12566 0.28113 0.56362 0.0
C208 C 0.23485 0.3576 0.54878 0.0
C209 C 0.21201 0.28168 0.52057 0.0
C210 C 0.98282 0.19825 0.62517 0.0
C211 C 0.97161 0.18423 0.66029 0.0
C212 C 0.0018 0.18093 0.68251 0.0
C213 C 0.04351 0.19321 0.66962 0.0
C214 C 0.05537 0.2111 0.63513 0.0
C215 C 0.02494 0.21363 0.61396 0.0
C216 C 0.04385 0.24122 0.58177 0.0
C217 C 0.09091 0.2547 0.58641 0.0
C218 C 0.09776 0.23615 0.61704 0.0
C219 C 0.03708 0.28106 0.58495 0.0
C220 C 0.0224 0.21149 0.54822 0.0
H221 H 0.26703 0.32352 0.58781 0.0
H222 H 0.21822 0.19153 0.66109 0.0
H223 H 0.12617 0.15926 0.61587 0.0
H224 H 0.09237 0.15668 0.65215 0.0
H225 H 0.13902 0.15221 0.66117 0.0
H226 H 0.18757 0.26678 0.69315 0.0
H227 H 0.15984 0.21108 0.7072 0.0
H228 H 0.13088 0.23883 0.69644 0.0
H229 H 0.20771 0.34401 0.46779 0.0
H230 H 0.07852 0.32483 0.46237 0.0
H231 H 0.06316 0.29406 0.52036 0.0
H232 H 0.23053 0.3837 0.53689 0.0
H233 H 0.26633 0.36281 0.53894 0.0
H234 H 0.23743 0.36405 0.57819 0.0
H235 H 0.18364 0.24921 0.51343 0.0
H236 H 0.23403 0.27611 0.53737 0.0
H237 H 0.22968 0.29676 0.49551 0.0
H238 H 0.31697 0.29967 0.60119 0.0
C239 C 0.25526 0.29431 0.60269 0.0
C240 C 0.8634 0.8568 0.65512 0.0
C241 C 0.86445 0.81959 0.64445 0.0
C242 C 0.8578 0.80722 0.60781 0.0
C243 C 0.82653 0.85287 0.59941 0.0
C244 C 0.83856 0.86835 0.63431 0.0
C245 C 0.80985 0.88331 0.65024 0.0
H246 H 0.74735 0.01692 0.62055 0.0
C247 C 0.79402 0.864 0.58768 0.0
C248 C 0.78414 0.88162 0.6173 0.0
H249 H 0.76107 0.96678 0.72209 0.0
H250 H 0.75037 0.90194 0.69209 0.0
H251 H 0.79354 -0.00182 0.56779 0.0
H252 H 0.66367 0.90036 0.59719 0.0
H253 H 0.67024 0.89541 0.55101 0.0
H254 H 0.6742 0.94479 0.56861 0.0
H255 H 0.74617 0.00044 0.55472 0.0
H256 H 0.76362 0.96946 0.52898 0.0
C257 C 0.83849 0.92992 0.6665 0.0
C258 C 0.77973 0.84887 0.67786 0.0
C259 C 0.73933 0.83842 0.45952 0.0
C260 C 0.7144 0.85155 0.4401 0.0
C261 C 0.70365 0.88088 0.45599 0.0
C262 C 0.71558 0.89491 0.49171 0.0
C263 C 0.73897 0.87989 0.51122 0.0
C264 C 0.75139 0.85301 0.4948 0.0
C265 C 0.7768 0.84085 0.51938 0.0
C266 C 0.77624 0.86359 0.55362 0.0
C267 C 0.75308 0.88541 0.54896 0.0
C268 C 0.82288 0.85943 0.50411 0.0
C269 C 0.75151 0.79079 0.52375 0.0
C270 C 0.74776 0.99166 0.63616 0.0
C271 C 0.75858 -0.00196 0.67309 0.0
C272 C 0.75537 0.96353 0.69333 0.0
C273 C 0.75005 0.92642 0.67599 0.0
C274 C 0.74822 0.92465 0.63857 0.0
C275 C 0.7409 0.95315 0.61951 0.0
C276 C 0.73174 0.93948 0.58036 0.0
C277 C 0.74508 0.90513 0.57887 0.0
C278 C 0.75647 0.89863 0.61318 0.0
C279 C 0.76011 0.9789 0.55649 0.0
C280 C 0.6825 0.91915 0.57359 0.0
H281 H 0.83033 0.81072 0.55815 0.0
H282 H 0.86891 0.86696 0.68315 0.0
H283 H 0.77487 0.81605 0.67159 0.0
H284 H 0.74636 0.84315 0.67717 0.0
H285 H 0.79328 0.85813 0.70556 0.0
H286 H 0.87091 0.93614 0.67509 0.0
H287 H 0.82447 0.93524 0.69106 0.0
H288 H 0.84391 0.9553 0.64674 0.0
H289 H 0.74869 0.81657 0.4477 0.0
H290 H 0.68478 0.89171 0.44125 0.0
H291 H 0.70617 0.91677 0.50281 0.0
H292 H 0.8336 0.89076 0.49028 0.0
H293 H 0.82381 0.83634 0.4843 0.0
H294 H 0.84772 0.86731 0.52509 0.0
H295 H 0.71646 0.77862 0.52773 0.0
H296 H 0.76217 0.7801 0.54737 0.0
H297 H 0.75449 0.77424 0.49957 0.0
H298 H 0.8602 0.77961 0.5984 0.0
C299 C 0.83896 0.82423 0.58488 0.0
C300 C 0.99114 0.77194 0.64457 0.0
C301 C 0.96647 0.73002 0.6288 0.0
C302 C 0.98532 0.71696 0.602 0.0
C303 C 0.04993 0.7884 0.60368 0.0
C304 C 0.03272 0.80068 0.63145 0.0
C305 C 0.06307 0.84718 0.64369 0.0
H306 H 0.24168 0.0421 0.60863 0.0
C307 C 0.09127 0.82684 0.59327 0.0
C308 C 0.09917 0.86157 0.61646 0.0
H309 H 0.16861 0.00571 0.70645 0.0
H310 H 0.11823 0.93427 0.68058 0.0
H311 H 0.2521 0.96625 0.60777 0.0
H312 H 0.15686 0.98193 0.5496 0.0
H313 H 0.17744 0.95742 0.521 0.0
H314 H 0.21347 0.01144 0.53969 0.0
H315 H 0.26574 -0.00117 0.5683 0.0
H316 H 0.2456 0.94103 0.56562 0.0
C317 C 0.07915 0.84673 0.68228 0.0
C318 C 0.03935 0.87315 0.64043 0.0
C319 C 0.16423 0.81834 0.47949 0.0
C320 C 0.19613 0.85016 0.45757 0.0
C321 C 0.21808 0.89397 0.46927 0.0
C322 C 0.20829 0.90584 0.50257 0.0
C323 C 0.17504 0.87371 0.52366 0.0
C324 C 0.15363 0.83082 0.51182 0.0
C325 C 0.11547 0.80196 0.53477 0.0
C326 C 0.11882 0.83391 0.56365 0.0
C327 C 0.15363 0.87581 0.55706 0.0
C328 C 0.12225 0.76559 0.55013 0.0
C329 C 0.07401 0.78549 0.51132 0.0
C330 C 0.21344 0.01967 0.62377 0.0
C331 C 0.20812 0.02997 0.65906 0.0
C332 C 0.17247 -0.00114 0.67876 0.0
C333 C 0.14406 0.95714 0.66407 0.0
C334 C 0.15247 0.94607 0.62991 0.0
C335 C 0.18681 0.97724 0.61056 0.0
C336 C 0.19531 0.95851 0.57753 0.0
C337 C 0.16162 0.91085 0.58055 0.0
C338 C 0.13525 0.9038 0.61046 0.0
C339 C 0.24215 0.96666 0.57951 0.0
C340 C 0.18571 0.97856 0.545 0.0
H341 H 0.03911 0.7337 0.56902 0.0
H342 H 0.97776 0.78273 0.66555 0.0
H343 H 0.02428 0.86814 0.61331 0.0
H344 H 0.0612 0.90857 0.6442 0.0
H345 H 0.01328 0.86231 0.66059 0.0
H346 H 0.07763 0.81536 0.68792 0.0
H347 H 0.0592 0.85126 0.70266 0.0
H348 H 0.11361 0.87191 0.68658 0.0
H349 H 0.14541 0.78468 0.4703 0.0
H350 H 0.24192 0.91906 0.45227 0.0
H351 H 0.22583 0.93984 0.50995 0.0
H352 H 0.15715 0.7781 0.5559 0.0
H353 H 0.11082 0.7378 0.5308 0.0
H354 H 0.10604 0.75343 0.57609 0.0
H355 H 0.07766 0.81158 0.49304 0.0
H356 H 0.04479 0.77755 0.52666 0.0
H357 H 0.06758 0.75662 0.49474 0.0
H358 H 0.96741 0.68469 0.58981 0.0
C359 C 0.02696 0.74565 0.58972 0.0
C360 C 0.81021 0.49939 0.68261 0.0
C361 C 0.82084 0.54093 0.69514 0.0
C362 C 0.84061 0.55547 0.72926 0.0
C363 C 0.8458 0.4904 0.73444 0.0
C364 C 0.82336 0.47507 0.70224 0.0
C365 C 0.82065 0.4338 0.68917 0.0
H366 H 0.86421 0.27378 0.71843 0.0
C367 C 0.8591 0.45925 0.74576 0.0
C368 C 0.8433 0.42556 0.71967 0.0
H369 H 0.82378 0.3034 0.61892 0.0
H370 H 0.81519 0.35941 0.64912 0.0
H371 H 0.93246 0.35793 0.72209 0.0
H372 H 0.81386 0.30111 0.7793 0.0
H373 H 0.85427 0.33731 0.80959 0.0
H374 H 0.85808 0.29274 0.78935 0.0
H375 H 0.92726 0.33245 0.76434 0.0
H376 H 0.94714 0.39013 0.76099 0.0
C377 C 0.84607 0.44315 0.65353 0.0
C378 C 0.77235 0.39797 0.68585 0.0
C379 C 0.96251 0.49142 0.8514 0.0
C380 C 0.97892 0.4668 0.86694 0.0
C381 C 0.96457 0.42428 0.8547 0.0
C382 C 0.9349 0.40664 0.82619 0.0
C383 C 0.91965 0.43193 0.80999 0.0
C384 C 0.93263 0.47323 0.823 0.0
C385 C 0.91059 0.49387 0.80353 0.0
C386 C 0.8845 0.459 0.77514 0.0
C387 C 0.89045 0.42329 0.77925 0.0
C388 C 0.94588 0.5368 0.78687 0.0
C389 C 0.88114 0.5 0.83031 0.0
C390 C 0.85122 0.29085 0.70371 0.0
C391 C 0.84338 0.284 0.66698 0.0
C392 C 0.82919 0.30821 0.64766 0.0
C393 C 0.8253 0.3412 0.66505 0.0
C394 C 0.83863 0.35142 0.7012 0.0
C395 C 0.85168 0.32649 0.71957 0.0
C396 C 0.87536 0.34777 0.75366 0.0
C397 C 0.87283 0.38871 0.75384 0.0
C398 C 0.85022 0.39018 0.7238 0.0
C399 C 0.92286 0.35742 0.75051 0.0
C400 C 0.84936 0.31806 0.78479 0.0
H401 H 0.86973 0.54351 0.77421 0.0
H402 H 0.79512 0.48743 0.65645 0.0
H403 H 0.7548 0.39703 0.71067 0.0
H404 H 0.76757 0.36501 0.68212 0.0
H405 H 0.75654 0.40441 0.66294 0.0
H406 H 0.86934 0.47856 0.65014 0.0
H407 H 0.82382 0.43174 0.62986 0.0
H408 H 0.86652 0.42805 0.65257 0.0
H409 H 0.97211 0.52373 0.8617 0.0
H410 H 0.97595 0.40466 0.86744 0.0
H411 H 0.92458 0.37374 0.81819 0.0
H412 H 0.97004 0.53146 0.7726 0.0
H413 H 0.96335 0.56226 0.80798 0.0
H414 H 0.93287 0.54984 0.76686 0.0
H415 H 0.86725 0.47328 0.85013 0.0
H416 H 0.8528 0.49858 0.81707 0.0
H417 H 0.89957 0.53133 0.84552 0.0
H418 H 0.84916 0.58755 0.73942 0.0
C419 C 0.85308 0.5302 0.74912 0.0
C420 C 0.66389 0.57133 0.66769 0.0
C421 C 0.67915 0.61472 0.6788 0.0
C422 C 0.65432 0.62378 0.70276 0.0
C423 C 0.60579 0.54669 0.71053 0.0
C424 C 0.62628 0.53782 0.68331 0.0
C425 C 0.60383 0.48967 0.67458 0.0
H426 H 0.43591 0.28808 0.70875 0.0
C427 C 0.57284 0.50511 0.72574 0.0
C428 C 0.57028 0.47139 0.70425 0.0
H429 H 0.51742 0.33284 0.61535 0.0
H430 H 0.56401 0.40207 0.64468 0.0
H431 H 0.51911 0.33546 0.76692 0.0
H432 H 0.42891 0.37093 0.72584 0.0
H433 H 0.43352 0.37652 0.77339 0.0
H434 H 0.41485 0.3241 0.75287 0.0
H435 H 0.46849 0.31842 0.78837 0.0
H436 H 0.5163 0.37007 0.79949 0.0
C437 C 0.63697 0.47423 0.67805 0.0
C438 C 0.58269 0.48196 0.63665 0.0
C439 C 0.52537 0.50713 0.85213 0.0
C440 C 0.50538 0.47472 0.8779 0.0
C441 C 0.48419 0.43066 0.86695 0.0
C442 C 0.48571 0.41923 0.83083 0.0
C443 C 0.50916 0.45247 0.80596 0.0
C444 C 0.528 0.49558 0.81689 0.0
C445 C 0.55522 0.52701 0.78859 0.0
C446 C 0.55078 0.49564 0.7588 0.0
C447 C 0.52355 0.45211 0.76888 0.0
C448 C 0.60241 0.55396 0.80333 0.0
C449 C 0.53486 0.55494 0.77825 0.0
C450 C 0.46449 0.31246 0.69515 0.0
C451 C 0.47258 0.30552 0.65949 0.0
C452 C 0.51016 0.3378 0.64258 0.0
C453 C 0.53678 0.3782 0.65933 0.0
C454 C 0.52563 0.38647 0.69323 0.0
C455 C 0.49133 0.35344 0.71149 0.0
C456 C 0.48507 0.36905 0.74758 0.0
C457 C 0.51737 0.4177 0.74537 0.0
C458 C 0.54124 0.42743 0.7136 0.0
C459 C 0.49759 0.3471 0.77726 0.0
C460 C 0.43802 0.3596 0.75027 0.0
H461 H 0.6013 0.59856 0.73812 0.0
H462 H 0.68171 0.56371 0.64842 0.0
H463 H 0.58158 0.51087 0.62706 0.0
H464 H 0.54844 0.45511 0.63628 0.0
H465 H 0.60084 0.47462 0.61639 0.0
H466 H 0.65603 0.48695 0.70346 0.0
H467 H 0.66002 0.4861 0.65541 0.0
H468 H 0.62136 0.43836 0.67879 0.0
H469 H 0.54149 0.54134 0.85983 0.0
H470 H 0.46891 0.40552 0.88669 0.0
H471 H 0.47001 0.38518 0.82382 0.0
H472 H 0.61303 0.53201 0.81455 0.0
H473 H 0.60505 0.57686 0.82504 0.0
H474 H 0.62626 0.57346 0.78292 0.0
H475 H 0.50105 0.54062 0.78787 0.0
H476 H 0.53242 0.55706 0.74874 0.0
H477 H 0.55374 0.58842 0.78994 0.0
H478 H 0.66512 0.65694 0.71146 0.0
C479 C 0.61768 0.5899 0.71869 0.0
C480 C 0.67234 0.13054 0.69516 0.0
C481 C 0.70287 0.12855 0.71806 0.0
C482 C 0.69111 0.11496 0.75369 0.0
C483 C 0.61969 0.1019 0.7432 0.0
C484 C 0.63058 0.11713 0.70864 0.0
C485 C 0.59288 0.11722 0.69006 0.0
H486 H 0.37729 0.04789 0.69577 0.0
C487 C 0.57404 0.08689 0.74901 0.0
C488 C 0.55725 0.09491 0.71795 0.0
H489 H 0.46893 0.13896 0.62075 0.0
H490 H 0.52628 0.13014 0.64805 0.0
H491 H 0.41613 0.98084 0.70919 0.0
H492 H 0.43355 0.09993 0.75594 0.0
H493 H 0.43632 0.0697 0.79131 0.0
H494 H 0.38677 0.04806 0.76542 0.0
H495 H 0.37458 0.98396 0.73347 0.0
H496 H 0.41455 0.97609 0.75628 0.0
C497 C 0.5818 0.09048 0.65474 0.0
C498 C 0.60548 0.16526 0.68472 0.0
C499 C 0.51021 0.02178 0.86851 0.0
C500 C 0.46841 0.00204 0.88236 0.0
C501 C 0.43345 0.9945 0.86005 0.0
C502 C 0.44081 0.00838 0.82424 0.0
C503 C 0.48346 0.02949 0.81101 0.0
C504 C 0.51689 0.03479 0.83302 0.0
C505 C 0.55964 0.05555 0.81469 0.0
C506 C 0.54722 0.06501 0.77843 0.0
C507 C 0.50283 0.04952 0.77627 0.0
C508 C 0.57377 0.02086 0.81193 0.0
C509 C 0.5914 0.09792 0.83602 0.0
C510 C 0.40929 0.06465 0.68412 0.0
C511 C 0.41854 0.09297 0.65549 0.0
C512 C 0.46115 0.1164 0.64254 0.0
C513 C 0.49427 0.11172 0.65871 0.0
C514 C 0.48468 0.08517 0.68903 0.0
C515 C 0.44261 0.06259 0.70125 0.0
C516 C 0.43884 0.04355 0.73751 0.0
C517 C 0.48526 0.05687 0.7449 0.0
C518 C 0.51222 0.08039 0.71618 0.0
C519 C 0.40928 0.99344 0.73426 0.0
C520 C 0.42268 0.06598 0.76407 0.0
H521 H 0.64417 0.09086 0.79325 0.0
H522 H 0.68037 0.14125 0.66777 0.0
H523 H 0.62649 0.18643 0.70719 0.0
H524 H 0.57718 0.16975 0.68478 0.0
H525 H 0.62357 0.1781 0.65943 0.0
H526 H 0.57722 0.05768 0.65981 0.0
H527 H 0.60834 0.10706 0.63513 0.0
H528 H 0.55163 0.08538 0.64208 0.0
H529 H 0.53743 0.02679 0.88501 0.0
H530 H 0.40086 0.9787 0.87044 0.0
H531 H 0.41321 0.00253 0.80839 0.0
H532 H 0.5453 0.98711 0.81092 0.0
H533 H 0.59408 0.02305 0.83538 0.0
H534 H 0.59135 0.02324 0.78697 0.0
H535 H 0.57387 0.11222 0.84981 0.0
H536 H 0.6147 0.12431 0.81864 0.0
H537 H 0.60958 0.09146 0.85692 0.0
H538 H 0.71302 0.11246 0.77214 0.0
C539 C 0.65025 0.10163 0.76615 0.0
C540 C 0.89529 0.55326 0.97801 0.0
C541 C 0.93716 0.57508 0.96305 0.0
C542 C 0.95085 0.61396 0.9443 0.0
C543 C 0.87882 0.60171 0.9457 0.0
C544 C 0.86652 0.56796 0.96924 0.0
C545 C 0.82103 0.55212 0.98251 0.0
H546 H 0.62762 0.53636 0.94156 0.0
C547 C 0.84107 0.60438 0.93548 0.0
C548 C 0.80658 0.57633 0.95754 0.0
H549 H 0.66057 0.50424 0.04341 0.0
H550 H 0.7323 0.52373 0.02064 0.0
H551 H 0.69903 0.62135 0.94659 0.0
H552 H 0.68605 0.51248 0.8852 0.0
H553 H 0.70781 0.55758 0.85684 0.0
H554 H 0.65601 0.53941 0.87686 0.0
H555 H 0.675 0.60897 0.90257 0.0
H556 H 0.73253 0.64526 0.90975 0.0
C557 C 0.82466 0.56761 0.02197 0.0
C558 C 0.79296 0.50224 0.97769 0.0
C559 C 0.8428 0.66593 0.81261 0.0
C560 C 0.81088 0.66953 0.79378 0.0
C561 C 0.77052 0.65588 0.80978 0.0
C562 C 0.76146 0.63776 0.84361 0.0
C563 C 0.79299 0.63311 0.86195 0.0
C564 C 0.83329 0.64827 0.8471 0.0
C565 C 0.86379 0.64429 0.87243 0.0
C566 C 0.83381 0.62193 0.9041 0.0
C567 C 0.79236 0.61449 0.89695 0.0
C568 C 0.90155 0.69093 0.88211 0.0
C569 C 0.87868 0.615 0.85389 0.0
C570 C 0.64952 0.53167 0.95852 0.0
C571 C 0.63831 0.51762 0.99364 0.0
C572 C 0.66848 0.51428 0.01584 0.0
C573 C 0.71018 0.52656 0.00294 0.0
C574 C 0.72205 0.54447 0.96847 0.0
C575 C 0.69164 0.54704 0.9473 0.0
C576 C 0.71056 0.57463 0.91512 0.0
C577 C 0.7576 0.58807 0.91974 0.0
C578 C 0.76444 0.5695 0.95037 0.0
C579 C 0.70382 0.61449 0.91831 0.0
C580 C 0.68908 0.5449 0.88157 0.0
H581 H 0.93371 0.65682 0.92114 0.0
H582 H 0.88487 0.52482 0.9944 0.0
H583 H 0.79283 0.49258 0.94918 0.0
H584 H 0.75903 0.49 0.98545 0.0
H585 H 0.80566 0.48552 0.99448 0.0
H586 H 0.85424 0.6001 0.02648 0.0
H587 H 0.82652 0.54439 0.04052 0.0
H588 H 0.79754 0.57214 0.02977 0.0
H589 H 0.87441 0.67734 0.80112 0.0
H590 H 0.74525 0.65824 0.79571 0.0
H591 H 0.72988 0.62747 0.85371 0.0
H592 H 0.89725 0.71703 0.87022 0.0
H593 H 0.93303 0.69613 0.87227 0.0
H594 H 0.90414 0.69737 0.91152 0.0
H595 H 0.85031 0.58254 0.84675 0.0
H596 H 0.9007 0.60942 0.8707 0.0
H597 H 0.89636 0.63008 0.82884 0.0
H598 H 0.98364 0.63295 0.93451 0.0
C599 C 0.92194 0.62761 0.93601 0.0
C600 C 0.53001 0.19012 0.98846 0.0
C601 C 0.53106 0.15291 0.97779 0.0
C602 C 0.5244 0.14053 0.94115 0.0
C603 C 0.49312 0.18617 0.93276 0.0
C604 C 0.50516 0.20166 0.96765 0.0
C605 C 0.47645 0.21663 0.98358 0.0
H606 H 0.41404 0.35029 0.95388 0.0
C607 C 0.46062 0.1973 0.92103 0.0
C608 C 0.45074 0.21493 0.95064 0.0
H609 H 0.42769 0.30011 0.05542 0.0
H610 H 0.41696 0.23525 0.02543 0.0
H611 H 0.46022 0.33151 0.90112 0.0
H612 H 0.33032 0.23377 0.93052 0.0
H613 H 0.33689 0.22877 0.88435 0.0
H614 H 0.34088 0.27818 0.9019 0.0
H615 H 0.41287 0.33381 0.88805 0.0
H616 H 0.43029 0.3028 0.86232 0.0
C617 C 0.5051 0.26324 -0.00016 0.0
C618 C 0.44634 0.1822 0.01122 0.0
C619 C 0.40594 0.17174 0.79286 0.0
C620 C 0.38103 0.18489 0.77343 0.0
C621 C 0.37029 0.21423 0.78932 0.0
C622 C 0.38222 0.22825 0.82505 0.0
C623 C 0.4056 0.21322 0.84456 0.0
C624 C 0.418 0.18633 0.82814 0.0
C625 C 0.4434 0.17416 0.85272 0.0
C626 C 0.44284 0.1969 0.88696 0.0
C627 C 0.4197 0.21873 0.8823 0.0
C628 C 0.48948 0.19273 0.83746 0.0
C629 C 0.41811 0.1241 0.85709 0.0
C630 C 0.41443 0.32502 0.96949 0.0
C631 C 0.42524 0.33139 0.00642 0.0
C632 C 0.422 0.29687 0.02667 0.0
C633 C 0.41667 0.25975 0.00932 0.0
C634 C 0.41484 0.25799 0.9719 0.0
C635 C 0.40756 0.2865 0.95284 0.0
C636 C 0.3984 0.27284 0.91369 0.0
C637 C 0.4117 0.23846 0.91221 0.0
C638 C 0.42308 0.23195 0.94651 0.0
C639 C 0.42678 0.31224 0.88982 0.0
C640 C 0.34915 0.25253 0.90691 0.0
H641 H 0.49692 0.14401 0.8915 0.0
H642 H 0.53552 0.20028 0.01649 0.0
H643 H 0.44149 0.14938 0.00496 0.0
H644 H 0.41297 0.17647 0.01052 0.0
H645 H 0.45989 0.19147 0.03891 0.0
H646 H 0.53751 0.26945 0.00844 0.0
H647 H 0.49107 0.26857 0.02438 0.0
H648 H 0.51054 0.28862 0.98007 0.0
H649 H 0.4153 0.14989 0.78104 0.0
H650 H 0.35142 0.22506 0.77458 0.0
H651 H 0.37281 0.25012 0.83615 0.0
H652 H 0.5002 0.22405 0.82362 0.0
H653 H 0.49041 0.16963 0.81766 0.0
H654 H 0.51433 0.20062 0.85844 0.0
H655 H 0.38306 0.11194 0.86107 0.0
H656 H 0.42876 0.11341 0.88071 0.0
H657 H 0.42107 0.10754 0.83291 0.0
H658 H 0.52681 0.11292 0.93175 0.0
C659 C 0.50556 0.15753 0.91822 0.0
C660 C 0.65779 0.10525 0.97792 0.0
C661 C 0.63311 0.06334 0.96213 0.0
C662 C 0.65195 0.05028 0.93532 0.0
C663 C 0.71657 0.12171 0.93702 0.0
C664 C 0.69937 0.13398 0.9648 0.0
C665 C 0.72973 0.18048 0.97705 0.0
H666 H 0.90833 0.3754 0.94199 0.0
C667 C 0.75792 0.16014 0.92662 0.0
C668 C 0.76583 0.19487 0.94983 0.0
H669 H 0.83532 0.33899 0.03985 0.0
H670 H 0.78493 0.26755 0.01397 0.0
H671 H 0.91877 0.29958 0.94112 0.0
H672 H 0.82348 0.3152 0.88297 0.0
H673 H 0.84411 0.29074 0.85437 0.0
H674 H 0.8801 0.34476 0.87308 0.0
H675 H 0.93239 0.33213 0.90163 0.0
H676 H 0.91226 0.27433 0.89899 0.0
C677 C 0.74581 0.18001 0.01564 0.0
C678 C 0.70603 0.20646 0.97381 0.0
C679 C 0.83087 0.15167 0.81283 0.0
C680 C 0.86278 0.18349 0.79092 0.0
C681 C 0.88474 0.2273 0.80262 0.0
C682 C 0.87494 0.23916 0.83593 0.0
C683 C 0.84169 0.20702 0.85701 0.0
C684 C 0.82027 0.16414 0.84516 0.0
C685 C 0.78211 0.13528 0.86811 0.0
C686 C 0.78547 0.16722 0.89699 0.0
C687 C 0.82028 0.20912 0.89041 0.0
C688 C 0.78889 0.0989 0.88345 0.0
C689 C 0.74065 0.11882 0.84466 0.0
C690 C 0.8801 0.35297 0.95714 0.0
C691 C 0.8748 0.36326 0.99244 0.0
C692 C 0.83917 0.33215 0.01215 0.0
C693 C 0.81076 0.29043 -0.00254 0.0
C694 C 0.81914 0.27937 0.96329 0.0
C695 C 0.85347 0.31054 0.94393 0.0
C696 C 0.86197 0.29182 0.9109 0.0
C697 C 0.82828 0.24416 0.91391 0.0
C698 C 0.80192 0.2371 0.94383 0.0
C699 C 0.90881 0.29997 0.91287 0.0
C700 C 0.85235 0.31187 0.87838 0.0
H701 H 0.70574 0.06703 0.90234 0.0
H702 H 0.64441 0.11603 -0.0011 0.0
H703 H 0.69098 0.20149 0.94668 0.0
H704 H 0.72788 0.24188 0.9776 0.0
H705 H 0.67994 0.19561 0.99395 0.0
H706 H 0.74424 0.14862 0.02128 0.0
H707 H 0.72587 0.18457 0.03602 0.0
H708 H 0.78028 0.20517 0.01994 0.0
H709 H 0.81205 0.11801 0.80363 0.0
H710 H 0.90858 0.25239 0.78563 0.0
H711 H 0.89249 0.27316 0.84331 0.0
H712 H 0.82379 0.1114 0.88924 0.0
H713 H 0.77747 0.07112 0.86412 0.0
H714 H 0.77266 0.08672 0.90941 0.0
H715 H 0.74432 0.1449 0.82637 0.0
H716 H 0.71144 0.11091 0.86 0.0
H717 H 0.73419 0.08994 0.82809 0.0
H718 H 0.63403 0.01802 0.92312 0.0
C719 C 0.69359 0.07897 0.92305 0.0
C720 C 0.47685 0.83272 0.01594 0.0
C721 C 0.48747 0.87426 0.02846 0.0
C722 C 0.50725 0.88881 0.06258 0.0
C723 C 0.51244 0.82374 0.06777 0.0
C724 C 0.48999 0.8084 0.03557 0.0
C725 C 0.48728 0.76713 0.02251 0.0
H726 H 0.53081 0.6071 0.0518 0.0
C727 C 0.52573 0.79258 0.07909 0.0
C728 C 0.50993 0.75889 0.05301 0.0
H729 H 0.49045 0.63675 0.95227 0.0
H730 H 0.48184 0.69275 0.98246 0.0
H731 H 0.59906 0.69121 0.05548 0.0
H732 H 0.48044 0.63444 0.11265 0.0
H733 H 0.52085 0.67063 0.14295 0.0
H734 H 0.52464 0.62604 0.12272 0.0
H735 H 0.59384 0.66576 0.09774 0.0
H736 H 0.61373 0.72344 0.09436 0.0
C737 C 0.51271 0.77648 0.98687 0.0
C738 C 0.43899 0.73131 0.01918 0.0
C739 C 0.62915 0.82477 0.18473 0.0
C740 C 0.64555 0.80015 0.20028 0.0
C741 C 0.63118 0.75761 0.18805 0.0
C742 C 0.6015 0.73996 0.15955 0.0
C743 C 0.58626 0.76526 0.14334 0.0
C744 C 0.59926 0.80658 0.15634 0.0
C745 C 0.57723 0.82721 0.13686 0.0
C746 C 0.55112 0.79233 0.10848 0.0
C747 C 0.55706 0.75662 0.1126 0.0
C748 C 0.61252 0.87013 0.12019 0.0
C749 C 0.54779 0.83336 0.16364 0.0
C750 C 0.51783 0.62416 0.03707 0.0
C751 C 0.51002 0.61733 0.00034 0.0
C752 C 0.49584 0.64154 0.98101 0.0
C753 C 0.49194 0.67453 -0.0016 0.0
C754 C 0.50525 0.68475 0.03455 0.0
C755 C 0.51829 0.6598 0.05294 0.0
C756 C 0.54195 0.68108 0.08702 0.0
C757 C 0.53944 0.72203 0.0872 0.0
C758 C 0.51683 0.7235 0.05715 0.0
C759 C 0.58945 0.69073 0.08389 0.0
C760 C 0.51594 0.65138 0.11815 0.0
H761 H 0.53636 0.87685 0.10754 0.0
H762 H 0.46176 0.82075 0.98978 0.0
H763 H 0.42143 0.73037 0.044 0.0
H764 H 0.43421 0.69834 0.01545 0.0
H765 H 0.42318 0.73775 -0.00374 0.0
H766 H 0.53598 0.81189 0.98348 0.0
H767 H 0.49047 0.76506 0.9632 0.0
H768 H 0.53318 0.76138 0.98592 0.0
H769 H 0.63878 0.85709 0.19501 0.0
H770 H 0.64255 0.73799 0.2008 0.0
H771 H 0.59116 0.70706 0.15156 0.0
H772 H 0.63666 0.86478 0.10591 0.0
H773 H 0.63001 0.8956 0.14129 0.0
H774 H 0.5995 0.88318 0.10019 0.0
H775 H 0.53391 0.80666 0.18348 0.0
H776 H 0.51944 0.83194 0.1504 0.0
H777 H 0.56623 0.86471 0.17883 0.0
H778 H 0.51579 0.92088 0.07274 0.0
C779 C 0.51971 0.86354 0.08245 0.0
C780 C 0.33053 0.90466 0.00102 0.0
C781 C 0.34578 0.94805 0.01214 0.0
C782 C 0.32094 0.9571 0.03609 0.0
C783 C 0.27241 0.88001 0.04384 0.0
C784 C 0.29291 0.87115 0.01663 0.0
C785 C 0.27046 0.823 0.00789 0.0
H786 H 0.10256 0.62139 0.04205 0.0
C787 C 0.23946 0.83843 0.05905 0.0
C788 C 0.23691 0.80471 0.03756 0.0
H789 H 0.18406 0.66617 0.94864 0.0
H790 H 0.23064 0.7354 0.97798 0.0
H791 H 0.18575 0.66879 0.10021 0.0
H792 H 0.09554 0.70422 0.05914 0.0
H793 H 0.10014 0.70982 0.10668 0.0
H794 H 0.08149 0.6574 0.08617 0.0
H795 H 0.13512 0.65173 0.12166 0.0
H796 H 0.18293 0.70339 0.13278 0.0
C797 C 0.3036 0.80755 0.01136 0.0
C798 C 0.24933 0.8153 0.96996 0.0
C799 C 0.19198 0.84042 0.18543 0.0
C800 C 0.17199 0.80801 0.2112 0.0
C801 C 0.15081 0.76395 0.20025 0.0
C802 C 0.15233 0.75253 0.16413 0.0
C803 C 0.17577 0.78577 0.13926 0.0
C804 C 0.19461 0.82888 0.1502 0.0
C805 C 0.22183 0.86032 0.12189 0.0
C806 C 0.21739 0.82895 0.09211 0.0
C807 C 0.19016 0.78542 0.10218 0.0
C808 C 0.26901 0.88726 0.13664 0.0
C809 C 0.20147 0.88824 0.11156 0.0
C810 C 0.13114 0.64577 0.02845 0.0
C811 C 0.13922 0.63884 0.99278 0.0
C812 C 0.1768 0.67112 0.97588 0.0
C813 C 0.20341 0.71152 0.99262 0.0
C814 C 0.19226 0.71979 0.02653 0.0
C815 C 0.15796 0.68676 0.04478 0.0
C816 C 0.1517 0.70236 0.08088 0.0
C817 C 0.18399 0.75102 0.07867 0.0
C818 C 0.20787 0.76075 0.0469 0.0
C819 C 0.16422 0.68041 0.11056 0.0
C820 C 0.10465 0.6929 0.08357 0.0
H821 H 0.26791 0.93187 0.07143 0.0
H822 H 0.34836 0.89705 0.98175 0.0
H823 H 0.24822 0.84421 0.96037 0.0
H824 H 0.21508 0.78845 0.96958 0.0
H825 H 0.26748 0.80796 0.9497 0.0
H826 H 0.32265 0.82026 0.03678 0.0
H827 H 0.32666 0.81944 0.98873 0.0
H828 H 0.28798 0.77168 0.01209 0.0
H829 H 0.2081 0.87463 0.19314 0.0
H830 H 0.13552 0.7388 0.21999 0.0
H831 H 0.13662 0.71847 0.15711 0.0
H832 H 0.27964 0.86531 0.14785 0.0
H833 H 0.27166 0.91016 0.15835 0.0
H834 H 0.29287 0.90677 0.11623 0.0
H835 H 0.16766 0.87392 0.12119 0.0
H836 H 0.19903 0.89037 0.08205 0.0
H837 H 0.22035 0.92173 0.12325 0.0
H838 H 0.33174 0.99026 0.0448 0.0
C839 C 0.2843 0.92322 0.05201 0.0
C840 C 0.339 0.46385 0.0285 0.0
C841 C 0.36953 0.46188 0.0514 0.0
C842 C 0.35777 0.44827 0.08703 0.0
C843 C 0.28635 0.43518 0.07653 0.0
C844 C 0.29723 0.45042 0.04197 0.0
C845 C 0.25953 0.4505 0.02339 0.0
H846 H 0.04396 0.38126 0.02912 0.0
C847 C 0.24069 0.42017 0.08234 0.0
C848 C 0.2239 0.42818 0.05127 0.0
H849 H 0.13559 0.47222 0.95405 0.0
H850 H 0.19293 0.46338 0.98135 0.0
H851 H 0.08265 0.31416 0.04252 0.0
H852 H 0.10042 0.43337 0.08933 0.0
H853 H 0.10295 0.40297 0.12467 0.0
H854 H 0.05348 0.38156 0.09869 0.0
H855 H 0.0412 0.31733 0.06692 0.0
H856 H 0.08122 0.30942 0.0896 0.0
C857 C 0.24847 0.42376 0.98806 0.0
C858 C 0.27212 0.49854 0.01805 0.0
C859 C 0.17687 0.35508 0.20184 0.0
C860 C 0.13507 0.33534 0.21569 0.0
C861 C 0.10011 0.3278 0.19338 0.0
C862 C 0.10747 0.34167 0.15757 0.0
C863 C 0.15012 0.36278 0.14434 0.0
C864 C 0.18354 0.36808 0.16635 0.0
C865 C 0.22629 0.38884 0.14802 0.0
C866 C 0.21387 0.3983 0.11176 0.0
C867 C 0.16948 0.38281 0.10959 0.0
C868 C 0.24042 0.35415 0.14526 0.0
C869 C 0.25805 0.43122 0.16935 0.0
C870 C 0.07596 0.39799 0.01747 0.0
C871 C 0.08521 0.42629 0.98882 0.0
C872 C 0.12782 0.44969 0.97585 0.0
C873 C 0.16093 0.445 0.99202 0.0
C874 C 0.15133 0.41847 0.02236 0.0
C875 C 0.10927 0.39592 0.03459 0.0
C876 C 0.1055 0.37689 0.07085 0.0
C877 C 0.15192 0.39016 0.07823 0.0
C878 C 0.17888 0.41368 0.0495 0.0
C879 C 0.0759 0.32679 0.06762 0.0
C880 C 0.0894 0.39937 0.09742 0.0
H881 H 0.31082 0.42415 0.12658 0.0
H882 H 0.34703 0.47456 0.00111 0.0
H883 H 0.29312 0.51971 0.04052 0.0
H884 H 0.24382 0.50302 0.01809 0.0
H885 H 0.29023 0.51139 0.99276 0.0
H886 H 0.24391 0.39097 0.99314 0.0
H887 H 0.275 0.44035 0.96846 0.0
H888 H 0.21828 0.41863 0.97541 0.0
H889 H 0.20409 0.36009 0.21834 0.0
H890 H 0.06752 0.312 0.20377 0.0
H891 H 0.07986 0.33582 0.14172 0.0
H892 H 0.21196 0.32041 0.14426 0.0
H893 H 0.26073 0.35634 0.16871 0.0
H894 H 0.258 0.35653 0.1203 0.0
H895 H 0.24052 0.44551 0.18313 0.0
H896 H 0.28135 0.4576 0.15196 0.0
H897 H 0.27623 0.42476 0.19025 0.0
H898 H 0.37969 0.44578 0.10548 0.0
C899 C 0.3169 0.43492 0.09949 0.0
C900 C 0.56197 0.88661 0.31136 0.0
C901 C 0.60384 0.90844 0.29641 0.0
C902 C 0.61752 0.94732 0.27766 0.0
C903 C 0.54547 0.93503 0.27905 0.0
C904 C 0.53318 0.90128 0.3026 0.0
C905 C 0.48769 0.88543 0.31586 0.0
H906 H 0.29424 0.86955 0.27485 0.0
C907 C 0.50772 0.93769 0.26882 0.0
C908 C 0.47323 0.90962 0.29088 0.0
H909 H 0.32722 0.83755 0.37674 0.0
H910 H 0.39895 0.85703 0.35398 0.0
H911 H 0.36562 0.95455 0.27989 0.0
H912 H 0.35271 0.84569 0.21851 0.0
H913 H 0.37446 0.8908 0.19015 0.0
H914 H 0.32266 0.8726 0.21015 0.0
H915 H 0.34158 0.94215 0.23586 0.0
H916 H 0.39911 0.97847 0.24305 0.0
C917 C 0.49131 0.90093 0.35531 0.0
C918 C 0.45963 0.83555 0.31104 0.0
C919 C 0.50945 -0.00076 0.14595 0.0
C920 C 0.47752 0.00282 0.12712 0.0
C921 C 0.43715 0.98912 0.1431 0.0
C922 C 0.42808 0.97099 0.17692 0.0
C923 C 0.45961 0.96637 0.19527 0.0
C924 C 0.49994 0.98156 0.18043 0.0
C925 C 0.53043 0.9776 0.20577 0.0
C926 C 0.50045 0.95522 0.23743 0.0
C927 C 0.45899 0.94775 0.23028 0.0
C928 C 0.56818 0.02424 0.21546 0.0
C929 C 0.54536 0.94834 0.18724 0.0
C930 C 0.31615 0.86488 0.29183 0.0
C931 C 0.30494 0.85086 0.32695 0.0
C932 C 0.33512 0.84756 0.34917 0.0
C933 C 0.37683 0.85984 0.33627 0.0
C934 C 0.38869 0.87772 0.30179 0.0
C935 C 0.35827 0.88026 0.28061 0.0
C936 C 0.37718 0.90785 0.24842 0.0
C937 C 0.42423 0.92132 0.25306 0.0
C938 C 0.43108 0.90277 0.2837 0.0
C939 C 0.37041 0.94769 0.2516 0.0
C940 C 0.35573 0.87811 0.21488 0.0
H941 H 0.60036 0.99016 0.25449 0.0
H942 H 0.55156 0.85817 0.32776 0.0
H943 H 0.45951 0.82589 0.28254 0.0
H944 H 0.42571 0.82331 0.31881 0.0
H945 H 0.47235 0.81885 0.32784 0.0
H946 H 0.52089 0.93342 0.35982 0.0
H947 H 0.49317 0.87772 0.37387 0.0
H948 H 0.46419 0.90546 0.36311 0.0
H949 H 0.54106 0.01068 0.13447 0.0
H950 H 0.41186 0.99146 0.12902 0.0
H951 H 0.39649 0.96067 0.18701 0.0
H952 H 0.56386 0.05034 0.20359 0.0
H953 H 0.59966 0.02947 0.20562 0.0
H954 H 0.57076 0.03068 0.24487 0.0
H955 H 0.517 0.91586 0.18009 0.0
H956 H 0.56738 0.94277 0.20405 0.0
H957 H 0.56304 0.96342 0.16219 0.0
H958 H 0.65031 0.96632 0.26788 0.0
C959 C 0.58859 0.96095 0.26937 0.0
C960 C 0.19669 0.52345 0.32179 0.0
C961 C 0.19774 0.48624 0.31112 0.0
C962 C 0.1911 0.47388 0.27448 0.0
C963 C 0.15984 0.51954 0.26608 0.0
C964 C 0.17187 0.53501 0.30098 0.0
C965 C 0.14315 0.54997 0.3169 0.0
H966 H 0.08066 0.68359 0.28721 0.0
C967 C 0.12734 0.53068 0.25435 0.0
C968 C 0.11746 0.54829 0.28396 0.0
H969 H 0.09437 0.63345 0.38875 0.0
H970 H 0.08369 0.56861 0.35875 0.0
H971 H 0.12686 0.66487 0.23446 0.0
H972 H -0.003 0.56701 0.26384 0.0
H973 H 0.00357 0.56209 0.21765 0.0
H974 H 0.00752 0.61145 0.23527 0.0
H975 H 0.07948 0.66711 0.22136 0.0
H976 H 0.09696 0.63614 0.19565 0.0
C977 C 0.1718 0.59658 0.33318 0.0
C978 C 0.11303 0.51553 0.34452 0.0
C979 C 0.07266 0.50509 0.12618 0.0
C980 C 0.04774 0.51823 0.10675 0.0
C981 C 0.03699 0.54756 0.12264 0.0
C982 C 0.04892 0.5616 0.15837 0.0
C983 C 0.07231 0.54657 0.17788 0.0
C984 C 0.08472 0.51968 0.16146 0.0
C985 C 0.11012 0.50752 0.18605 0.0
C986 C 0.10957 0.53027 0.22028 0.0
C987 C 0.08642 0.55209 0.21562 0.0
C988 C 0.15621 0.5261 0.17077 0.0
C989 C 0.08484 0.45746 0.19042 0.0
C990 C 0.08107 0.65833 0.30282 0.0
C991 C 0.09188 0.66471 0.33975 0.0
C992 C 0.08867 0.6302 0.35999 0.0
C993 C 0.08337 0.59309 0.34265 0.0
C994 C 0.08153 0.59133 0.30523 0.0
C995 C 0.07422 0.61982 0.28617 0.0
C996 C 0.06506 0.60616 0.24701 0.0
C997 C 0.0784 0.57181 0.24553 0.0
C998 C 0.08979 0.56531 0.27984 0.0
C999 C 0.09343 0.64557 0.22315 0.0
C1000 C 0.01582 0.58582 0.24024 0.0
H1001 H 0.16365 0.47739 0.22482 0.0
H1002 H 0.20219 0.5336 0.34983 0.0
H1003 H 0.10816 0.48271 0.33825 0.0
H1004 H 0.07966 0.50982 0.34383 0.0
H1005 H 0.12657 0.52478 0.37223 0.0
H1006 H 0.20422 0.6028 0.34176 0.0
H1007 H 0.15777 0.60189 0.35773 0.0
H1008 H 0.17723 0.62197 0.31342 0.0
H1009 H 0.08202 0.48324 0.11436 0.0
H1010 H 0.01812 0.55839 0.1079 0.0
H1011 H 0.03951 0.58346 0.16946 0.0
H1012 H 0.16693 0.55744 0.15695 0.0
H1013 H 0.15713 0.50302 0.15096 0.0
H1014 H 0.18105 0.53398 0.19176 0.0
H1015 H 0.04979 0.4453 0.19439 0.0
H1016 H 0.09549 0.44678 0.21404 0.0
H1017 H 0.08782 0.44091 0.16624 0.0
H1018 H 0.19349 0.44626 0.26507 0.0
C1019 C 0.17227 0.4909 0.25155 0.0
C1020 C 0.32445 0.43858 0.31126 0.0
C1021 C 0.29977 0.39667 0.29548 0.0
C1022 C 0.31861 0.38361 0.26867 0.0
C1023 C 0.38323 0.45504 0.27037 0.0
C1024 C 0.36603 0.46731 0.29815 0.0
C1025 C 0.39639 0.51381 0.31041 0.0
H1026 H 0.57499 0.70873 0.27534 0.0
C1027 C 0.42458 0.49347 0.25997 0.0
C1028 C 0.43249 0.5282 0.28318 0.0
H1029 H 0.50196 0.67234 0.37319 0.0
H1030 H 0.45158 0.60089 0.34732 0.0
H1031 H 0.58544 0.63293 0.27448 0.0
H1032 H 0.49012 0.64851 0.21632 0.0
H1033 H 0.51078 0.62408 0.18772 0.0
H1034 H 0.54674 0.6781 0.20645 0.0
H1035 H 0.59905 0.66546 0.23497 0.0
H1036 H 0.57891 0.60766 0.23235 0.0
C1037 C 0.41246 0.51333 0.34899 0.0
C1038 C 0.37268 0.53979 0.30717 0.0
C1039 C 0.49754 0.485 0.14618 0.0
C1040 C 0.52945 0.51682 0.12427 0.0
C1041 C 0.5514 0.56064 0.13598 0.0
C1042 C 0.54161 0.5725 0.16928 0.0
C1043 C 0.50835 0.54036 0.19037 0.0
C1044 C 0.48694 0.49747 0.17852 0.0
C1045 C 0.44877 0.46861 0.20146 0.0
C1046 C 0.45213 0.50055 0.23035 0.0
C1047 C 0.48694 0.54246 0.22377 0.0
C1048 C 0.45556 0.43224 0.21681 0.0
C1049 C 0.40732 0.45215 0.17801 0.0
C1050 C 0.54676 0.68631 0.29049 0.0
C1051 C 0.54145 0.6966 0.32579 0.0
C1052 C 0.50581 0.66549 0.3455 0.0
C1053 C 0.4774 0.62376 0.33081 0.0
C1054 C 0.48579 0.6127 0.29664 0.0
C1055 C 0.52013 0.64387 0.27728 0.0
C1056 C 0.52862 0.62515 0.24425 0.0
C1057 C 0.49494 0.57749 0.24727 0.0
C1058 C 0.46857 0.57043 0.27718 0.0
C1059 C 0.57547 0.63331 0.24622 0.0
C1060 C 0.519 0.6452 0.21174 0.0
H1061 H 0.3724 0.40036 0.23569 0.0
H1062 H 0.31106 0.44936 0.33225 0.0
H1063 H 0.35762 0.53481 0.28004 0.0
H1064 H 0.39454 0.57521 0.31095 0.0
H1065 H 0.34661 0.52895 0.32732 0.0
H1066 H 0.41095 0.48196 0.35461 0.0
H1067 H 0.3925 0.51783 0.36938 0.0
H1068 H 0.44692 0.53852 0.35331 0.0
H1069 H 0.47872 0.45135 0.13699 0.0
H1070 H 0.57525 0.58572 0.11899 0.0
H1071 H 0.55916 0.60649 0.17667 0.0
H1072 H 0.49045 0.44474 0.2226 0.0
H1073 H 0.44414 0.40446 0.19748 0.0
H1074 H 0.43933 0.42005 0.24276 0.0
H1075 H 0.41099 0.47823 0.15971 0.0
H1076 H 0.37811 0.44424 0.19336 0.0
H1077 H 0.40086 0.42326 0.16145 0.0
H1078 H 0.3007 0.35135 0.25646 0.0
C1079 C 0.36025 0.4123 0.2564 0.0
O1080 O 0.44487 0.94934 0.92707 0.0
Mg1081 Mg 0.49629 0.95629 0.96094 0.0
O1082 O 0.49017 0.01631 0.94265 0.0
Mg1083 Mg 0.49703 0.01033 0.00448 0.0
O1084 O 0.48789 0.94025 0.01372 0.0
O1085 O 0.48875 0.89759 0.96908 0.0
O1086 O 0.5037 0.01063 0.06715 0.0
O1087 O 0.4208 0.97385 0.00743 0.0
Mg1088 Mg 0.46102 0.05573 0.03051 0.0
O1089 O 0.51225 0.08136 -0.00301 0.0
O1090 O 0.4629 0.03795 0.08213 0.0
O1091 O 0.39979 0.02196 0.00632 0.0
O1092 O 0.49152 0.12048 0.02996 0.0
C1093 C 0.58692 0.03438 0.97094 0.0
C1094 C 0.46321 0.98918 0.91989 0.0
C1095 C 0.4861 0.90454 0.00276 0.0
C1096 C 0.48398 0.01996 0.09081 0.0
C1097 C 0.3905 0.98267 0.00505 0.0
C1098 C 0.51457 0.11815 0.00446 0.0
O1099 O 0.56273 0.00337 0.94933 0.0
O1100 O 0.57063 0.04186 -0.00151 0.0
O1101 O 0.04475 0.51555 0.8951 0.0
Mg1102 Mg 0.04502 0.55641 0.93597 0.0
O1103 O 0.98857 0.47826 0.92876 0.0
Mg1104 Mg 0.00771 0.50008 0.98839 0.0
O1105 O 0.07413 0.56818 0.98493 0.0
O1106 O 0.10273 0.61137 0.93718 0.0
O1107 O 0.02006 0.51795 0.04842 0.0
O1108 O 0.05671 0.47303 0.98653 0.0
Mg1109 Mg 0.988 0.42759 0.01788 0.0
O1110 O 0.93991 0.43331 -0.00498 0.0
O1111 O 0.0266 0.46227 0.06321 0.0
O1112 O 0.01288 0.40362 0.97879 0.0
O1113 O 0.92921 0.38233 0.03537 0.0
C1114 C 0.96641 0.5574 0.96315 0.0
C1115 C 0.00675 0.48422 0.89858 0.0
C1116 C 0.10493 0.60356 0.97058 0.0
C1117 C 0.03113 0.49898 0.07103 0.0
C1118 C 0.05104 0.4355 0.97863 0.0
C1119 C 0.91418 0.39677 0.01109 0.0
O1120 O 0.99344 0.56863 0.93785 0.0
O1121 O 0.96548 0.53232 0.98766 0.0
O1122 O 0.53391 0.46943 0.08243 0.0
Mg1123 Mg 0.47744 0.44201 0.05017 0.0
O1124 O 0.51615 0.5153 0.06216 0.0
Mg1125 Mg 0.4957 0.48568 0.00125 0.0
O1126 O 0.46562 0.40888 0.00395 0.0
O1127 O 0.44283 0.37759 0.0577 0.0
O1128 O 0.48499 0.46974 0.93999 0.0
O1129 O 0.56327 0.48948 -0.00373 0.0
Mg1130 Mg 0.57256 0.56485 0.96837 0.0
O1131 O 0.51747 0.55581 0.98938 0.0
O1132 O 0.55035 0.52232 0.92299 0.0
O1133 O 0.60679 0.55682 0.01184 0.0
O1134 O 0.56592 0.61912 0.96605 0.0
C1135 C 0.41215 0.4688 0.04011 0.0
C1136 C 0.53272 0.50401 0.08719 0.0
C1137 C 0.44433 0.37446 0.02333 0.0
C1138 C 0.51366 0.48874 0.91586 0.0
C1139 C 0.60064 0.5189 0.00743 0.0
C1140 C 0.53 0.5958 0.98254 0.0
O1141 O 0.43309 0.46132 0.06346 0.0
O1142 O 0.42612 0.47633 0.00809 0.0
O1143 O 0.11153 0.28266 0.26041 0.0
Mg1144 Mg 0.16295 0.28962 0.29428 0.0
O1145 O 0.15683 0.34962 0.27598 0.0
Mg1146 Mg 0.16368 0.34365 0.33781 0.0
O1147 O 0.15455 0.27357 0.34706 0.0
O1148 O 0.15541 0.23092 0.30242 0.0
O1149 O 0.17035 0.34396 0.40048 0.0
O1150 O 0.08745 0.30715 0.34076 0.0
Mg1151 Mg 0.12766 0.38904 0.36382 0.0
O1152 O 0.1789 0.41467 0.33032 0.0
O1153 O 0.12952 0.37126 0.41544 0.0
O1154 O 0.06642 0.35525 0.33962 0.0
O1155 O 0.15813 0.45378 0.36327 0.0
C1156 C 0.25358 0.36771 0.30428 0.0
C1157 C 0.12986 0.3225 0.25323 0.0
C1158 C 0.15276 0.23786 0.3361 0.0
C1159 C 0.15061 0.35328 0.42413 0.0
C1160 C 0.05715 0.31596 0.33836 0.0
C1161 C 0.18121 0.45146 0.33778 0.0
O1162 O 0.22939 0.33669 0.28267 0.0
O1163 O 0.23728 0.37518 0.33183 0.0
O1164 O 0.71139 0.84891 0.22842 0.0
Mg1165 Mg 0.71169 0.88976 0.26931 0.0
O1166 O 0.65524 0.8116 0.26209 0.0
Mg1167 Mg 0.67437 0.83341 0.32173 0.0
O1168 O 0.74081 0.90149 0.31827 0.0
O1169 O 0.76943 0.9447 0.27053 0.0
O1170 O 0.68673 0.85128 0.38176 0.0
O1171 O 0.72336 0.80634 0.31987 0.0
Mg1172 Mg 0.65464 0.76091 0.35123 0.0
O1173 O 0.60657 0.76665 0.32836 0.0
O1174 O 0.69325 0.79559 0.39656 0.0
O1175 O 0.67951 0.73692 0.31215 0.0
O1176 O 0.59585 0.71568 0.36872 0.0
C1177 C 0.6331 0.89077 0.29651 0.0
C1178 C 0.6734 0.81757 0.2319 0.0
C1179 C 0.77161 0.93687 0.30393 0.0
C1180 C 0.6978 0.8323 0.40437 0.0
C1181 C 0.71767 0.76879 0.31198 0.0
C1182 C 0.58083 0.73011 0.34443 0.0
O1183 O 0.66014 0.90201 0.27122 0.0
O1184 O 0.63215 0.86566 0.321 0.0
O1185 O 0.20057 0.80275 0.41573 0.0
Mg1186 Mg 0.14408 0.77533 0.38348 0.0
O1187 O 0.18282 0.84863 0.39546 0.0
Mg1188 Mg 0.16235 0.81899 0.33455 0.0
O1189 O 0.13225 0.74219 0.33727 0.0
O1190 O 0.10947 0.71092 0.39102 0.0
O1191 O 0.15162 0.80304 0.2733 0.0
O1192 O 0.2299 0.82276 0.32957 0.0
Mg1193 Mg 0.23921 0.8981 0.30167 0.0
O1194 O 0.18414 0.88914 0.32269 0.0
O1195 O 0.217 0.85558 0.2563 0.0
O1196 O 0.27345 0.89009 0.34515 0.0
O1197 O 0.23265 0.95241 0.29932 0.0
C1198 C 0.07882 0.80216 0.37342 0.0
C1199 C 0.19939 0.83733 0.42049 0.0
C1200 C 0.11097 0.70778 0.35665 0.0
C1201 C 0.18029 0.82202 0.24916 0.0
C1202 C 0.26728 0.85216 0.34074 0.0
C1203 C 0.19672 0.92913 0.31582 0.0
O1204 O 0.09976 0.79467 0.39678 0.0
O1205 O 0.09278 0.80968 0.3414 0.0
O1206 O 0.77824 0.616 0.59375 0.0
Mg1207 Mg 0.82966 0.62297 0.62763 0.0
O1208 O 0.82353 0.68297 0.60932 0.0
Mg1209 Mg 0.83039 0.677 0.67114 0.0
O1210 O 0.82126 0.60692 0.68041 0.0
O1211 O 0.82212 0.56427 0.63576 0.0
O1212 O 0.83707 0.67732 0.73382 0.0
O1213 O 0.75416 0.64052 0.6741 0.0
Mg1214 Mg 0.79438 0.7224 0.69714 0.0
O1215 O 0.84562 0.74803 0.66364 0.0
O1216 O 0.79624 0.70462 0.74877 0.0
O1217 O 0.73315 0.68862 0.67295 0.0
O1218 O 0.82487 0.78714 0.6966 0.0
C1219 C 0.92029 0.70106 0.63761 0.0
C1220 C 0.79657 0.65584 0.58656 0.0
C1221 C 0.81947 0.57121 0.66944 0.0
C1222 C 0.81733 0.68664 0.75747 0.0
C1223 C 0.72386 0.64933 0.6717 0.0
C1224 C 0.84793 0.78482 0.67111 0.0
O1225 O 0.89609 0.67004 0.61601 0.0
O1226 O 0.904 0.70853 0.66516 0.0
O1227 O 0.3781 0.18229 0.56177 0.0
Mg1228 Mg 0.37837 0.22313 0.60265 0.0
O1229 O 0.32193 0.14498 0.59542 0.0
Mg1230 Mg 0.34104 0.16678 0.65506 0.0
O1231 O 0.40748 0.23487 0.65162 0.0
O1232 O 0.43608 0.27808 0.60388 0.0
O1233 O 0.35338 0.18463 0.71509 0.0
O1234 O 0.39003 0.13971 0.6532 0.0
Mg1235 Mg 0.32131 0.09427 0.68455 0.0
O1236 O 0.27324 0.10001 0.66166 0.0
O1237 O 0.35989 0.12894 0.72989 0.0
O1238 O 0.3462 0.0703 0.64548 0.0
O1239 O 0.2625 0.04903 0.70202 0.0
C1240 C 0.29976 0.22412 0.62983 0.0
C1241 C 0.3401 0.15095 0.56524 0.0
C1242 C 0.43827 0.27026 0.63728 0.0
C1243 C 0.36443 0.16565 0.7377 0.0
C1244 C 0.38436 0.10217 0.64532 0.0
C1245 C 0.24749 0.06347 0.67772 0.0
O1246 O 0.3268 0.23536 0.60454 0.0
O1247 O 0.29882 0.19902 0.65433 0.0
O1248 O 0.86724 0.1361 0.74908 0.0
Mg1249 Mg 0.81076 0.10866 0.71682 0.0
O1250 O 0.84947 0.18196 0.72881 0.0
Mg1251 Mg 0.82902 0.15232 0.6679 0.0
O1252 O 0.79893 0.07553 0.67061 0.0
O1253 O 0.77616 0.04424 0.72436 0.0
O1254 O 0.8183 0.13637 0.60664 0.0
O1255 O 0.89658 0.15611 0.66292 0.0
Mg1256 Mg 0.90588 0.23148 0.635 0.0
O1257 O 0.8508 0.22246 0.65602 0.0
O1258 O 0.88366 0.18894 0.58963 0.0
O1259 O 0.94011 0.22346 0.67847 0.0
O1260 O 0.89925 0.28576 0.63267 0.0
C1261 C 0.74547 0.13546 0.70676 0.0
C1262 C 0.86605 0.17067 0.75384 0.0
C1263 C 0.77766 0.04111 0.69 0.0
C1264 C 0.84697 0.15536 0.5825 0.0
C1265 C 0.93395 0.18553 0.67408 0.0
C1266 C 0.86334 0.26245 0.64917 0.0
O1267 O 0.76642 0.12798 0.73011 0.0
O1268 O 0.75944 0.14299 0.67474 0.0
loop_
_geom_bond_atom_site_label_1
_geom_bond_atom_site_label_2
_geom_bond_distance
_geom_bond_site_symmetry_2
_ccdc_geom_bond_type
C0 C1 1.391 . S
C0 C4 1.391 . S
C0 H42 0.948 . S
C1 C0 1.391 . S
C1 C2 1.391 . S
C2 C1 1.391 . S
C2 H58 0.947 . S
C2 C59 1.392 . S
C3 C4 1.391 . S
C3 C7 1.397 . S
C3 C59 1.419 . S
C4 C0 1.391 . S
C4 C3 1.391 . S
C4 C5 1.399 . S
C5 C4 1.399 . S
C5 C8 1.396 . S
C5 C17 1.453 . S
C5 C18 1.684 . S
H6 C30 0.948 . S
C7 C3 1.397 . S
C7 C8 1.394 . S
C7 C26 1.723 . S
C8 C5 1.396 . S
C8 C7 1.394 . S
C8 C38 1.723 . S
H9 C32 0.947 1_565 S
H10 C33 0.948 . S
H11 C39 0.982 . S
H12 C40 0.979 . S
H13 C40 0.980 . S
H14 C40 0.983 1_565 S
H15 C39 0.979 . S
H16 C39 0.977 . S
C17 C5 1.453 . S
C17 H46 0.982 . S
C17 H47 0.979 . S
C17 H48 0.977 . S
C18 C5 1.684 . S
C18 H43 0.979 . S
C18 H44 0.980 . S
C18 H45 0.983 . S
C19 C20 1.391 . S
C19 C24 1.391 . S
C19 H49 0.948 . S
C20 C19 1.391 . S
C20 C21 1.391 . S
C21 C20 1.391 . S
C21 C22 1.392 . S
C21 H50 0.947 . S
C22 C21 1.392 . S
C22 C23 1.419 . S
C22 H51 0.948 . S
C23 C22 1.419 . S
C23 C24 1.391 . S
C23 C27 1.397 . S
C24 C19 1.391 . S
C24 C23 1.391 . S
C24 C25 1.399 . S
C25 C24 1.399 . S
C25 C26 1.396 . S
C25 C28 1.453 . S
C25 C29 1.684 . S
C26 C7 1.723 . S
C26 C25 1.396 . S
C26 C27 1.394 . S
C27 C23 1.397 . S
C27 C26 1.394 . S
C27 C37 1.723 . S
C28 C25 1.453 . S
C28 H52 0.982 . S
C28 H53 0.979 . S
C28 H54 0.977 . S
C29 C25 1.684 . S
C29 H55 0.979 . S
C29 H56 0.980 . S
C29 H57 0.983 . S
C30 H6 0.948 . S
C30 C31 1.391 . S
C30 C35 1.391 1_565 S
C31 C30 1.391 . S
C31 C32 1.391 1_565 S
C32 H9 0.947 1_545 S
C32 C31 1.391 1_545 S
C32 C33 1.392 . S
C33 H10 0.948 . S
C33 C32 1.392 . S
C33 C34 1.419 . S
C34 C33 1.419 . S
C34 C35 1.391 . S
C34 C38 1.397 . S
C35 C30 1.391 1_545 S
C35 C34 1.391 . S
C35 C36 1.399 . S
C36 C35 1.399 . S
C36 C37 1.396 . S
C36 C39 1.453 . S
C36 C40 1.684 . S
C37 C27 1.723 . S
C37 C36 1.396 . S
C37 C38 1.394 . S
C38 C8 1.723 . S
C38 C34 1.397 . S
C38 C37 1.394 . S
C39 H11 0.982 . S
C39 H15 0.979 . S
C39 H16 0.977 . S
C39 C36 1.453 . S
C40 H12 0.979 . S
C40 H13 0.980 . S
C40 H14 0.983 1_545 S
C40 C36 1.684 . S
H41 C59 0.948 . S
H42 C0 0.948 . S
H43 C18 0.979 . S
H44 C18 0.980 . S
H45 C18 0.983 . S
H46 C17 0.982 . S
H47 C17 0.979 . S
H48 C17 0.977 . S
H49 C19 0.948 . S
H50 C21 0.947 . S
H51 C22 0.948 . S
H52 C28 0.982 . S
H53 C28 0.979 . S
H54 C28 0.977 . S
H55 C29 0.979 . S
H56 C29 0.980 . S
H57 C29 0.983 . S
H58 C2 0.947 . S
C59 C2 1.392 . S
C59 C3 1.419 . S
C59 H41 0.948 . S
C60 C61 1.391 1_655 S
C60 C64 1.391 . S
C60 H102 0.948 . S
C61 C60 1.391 1_455 S
C61 C62 1.391 . S
C62 C61 1.391 . S
C62 H118 0.947 . S
C62 C119 1.392 1_455 S
C63 C64 1.391 . S
C63 C67 1.397 . S
C63 C119 1.419 . S
C64 C60 1.391 . S
C64 C63 1.391 . S
C64 C65 1.399 . S
C65 C64 1.399 . S
C65 C68 1.396 . S
C65 C77 1.453 . S
C65 C78 1.684 . S
H66 C90 0.948 . S
C67 C63 1.397 . S
C67 C68 1.394 . S
C67 C86 1.723 . S
C68 C65 1.396 . S
C68 C67 1.394 . S
C68 C98 1.723 . S
H69 C92 0.947 1_565 S
H70 C93 0.948 . S
H71 C99 0.982 . S
H72 C100 0.979 . S
H73 C100 0.980 . S
H74 C100 0.983 . S
H75 C99 0.979 1_565 S
H76 C99 0.977 . S
C77 C65 1.453 . S
C77 H106 0.982 . S
C77 H107 0.979 . S
C77 H108 0.977 . S
C78 C65 1.684 . S
C78 H103 0.979 . S
C78 H104 0.980 . S
C78 H105 0.983 . S
C79 C80 1.391 . S
C79 C84 1.391 . S
C79 H109 0.948 . S
C80 C79 1.391 . S
C80 C81 1.391 . S
C81 C80 1.391 . S
C81 C82 1.392 . S
C81 H110 0.947 . S
C82 C81 1.392 . S
C82 C83 1.419 . S
C82 H111 0.948 . S
C83 C82 1.419 . S
C83 C84 1.391 . S
C83 C87 1.397 . S
C84 C79 1.391 . S
C84 C83 1.391 . S
C84 C85 1.399 . S
C85 C84 1.399 . S
C85 C86 1.396 . S
C85 C88 1.453 . S
C85 C89 1.684 . S
C86 C67 1.723 . S
C86 C85 1.396 . S
C86 C87 1.394 . S
C87 C83 1.397 . S
C87 C86 1.394 . S
C87 C97 1.723 . S
C88 C85 1.453 . S
C88 H112 0.982 . S
C88 H113 0.979 . S
C88 H114 0.977 . S
C89 C85 1.684 . S
C89 H115 0.979 . S
C89 H116 0.980 . S
C89 H117 0.983 . S
C90 H66 0.948 . S
C90 C91 1.391 . S
C90 C95 1.391 1_565 S
C91 C90 1.391 . S
C91 C92 1.391 1_565 S
C92 H69 0.947 1_545 S
C92 C91 1.391 1_545 S
C92 C93 1.392 . S
C93 H70 0.948 . S
C93 C92 1.392 . S
C93 C94 1.419 . S
C94 C93 1.419 . S
C94 C95 1.391 . S
C94 C98 1.397 . S
C95 C90 1.391 1_545 S
C95 C94 1.391 . S
C95 C96 1.399 . S
C96 C95 1.399 . S
C96 C97 1.396 . S
C96 C99 1.453 . S
C96 C100 1.684 . S
C97 C87 1.723 . S
C97 C96 1.396 . S
C97 C98 1.394 . S
C98 C68 1.723 . S
C98 C94 1.397 . S
C98 C97 1.394 . S
C99 H71 0.982 . S
C99 H75 0.979 1_545 S
C99 H76 0.977 . S
C99 C96 1.453 . S
C100 H72 0.979 . S
C100 H73 0.980 . S
C100 H74 0.983 . S
C100 C96 1.684 . S
H101 C119 0.948 . S
H102 C60 0.948 . S
H103 C78 0.979 . S
H104 C78 0.980 . S
H105 C78 0.983 . S
H106 C77 0.982 . S
H107 C77 0.979 . S
H108 C77 0.977 . S
H109 C79 0.948 . S
H110 C81 0.947 . S
H111 C82 0.948 . S
H112 C88 0.982 . S
H113 C88 0.979 . S
H114 C88 0.977 . S
H115 C89 0.979 . S
H116 C89 0.980 . S
H117 C89 0.983 . S
H118 C62 0.947 . S
C119 C62 1.392 1_655 S
C119 C63 1.419 . S
C119 H101 0.948 . S
C120 C121 1.391 1_655 S
C120 C124 1.391 . S
C120 H162 0.948 . S
C121 C120 1.391 1_455 S
C121 C122 1.391 . S
C122 C121 1.391 . S
C122 H178 0.947 . S
C122 C179 1.392 1_455 S
C123 C124 1.391 . S
C123 C127 1.397 . S
C123 C179 1.419 . S
C124 C120 1.391 . S
C124 C123 1.391 . S
C124 C125 1.399 . S
C125 C124 1.399 . S
C125 C128 1.396 . S
C125 C137 1.453 . S
C125 C138 1.684 . S
H126 C150 0.948 . S
C127 C123 1.397 . S
C127 C128 1.394 . S
C127 C146 1.723 . S
C128 C125 1.396 . S
C128 C127 1.394 . S
C128 C158 1.723 . S
H129 C152 0.947 . S
H130 C153 0.948 . S
H131 C159 0.982 . S
H132 C160 0.979 . S
H133 C160 0.980 . S
H134 C160 0.983 . S
H135 C159 0.979 . S
H136 C159 0.977 . S
C137 C125 1.453 . S
C137 H166 0.982 . S
C137 H167 0.979 . S
C137 H168 0.977 . S
C138 C125 1.684 . S
C138 H163 0.979 . S
C138 H164 0.980 . S
C138 H165 0.983 . S
C139 C140 1.391 . S
C139 C144 1.391 . S
C139 H169 0.948 . S
C140 C139 1.391 . S
C140 C141 1.391 . S
C141 C140 1.391 . S
C141 C142 1.392 . S
C141 H170 0.947 . S
C142 C141 1.392 . S
C142 C143 1.419 . S
C142 H171 0.948 . S
C143 C142 1.419 . S
C143 C144 1.391 . S
C143 C147 1.397 . S
C144 C139 1.391 . S
C144 C143 1.391 . S
C144 C145 1.399 . S
C145 C144 1.399 . S
C145 C146 1.396 . S
C145 C148 1.453 . S
C145 C149 1.684 . S
C146 C127 1.723 . S
C146 C145 1.396 . S
C146 C147 1.394 . S
C147 C143 1.397 . S
C147 C146 1.394 . S
C147 C157 1.723 . S
C148 C145 1.453 . S
C148 H172 0.982 . S
C148 H173 0.979 . S
C148 H174 0.977 . S
C149 C145 1.684 . S
C149 H175 0.979 . S
C149 H176 0.980 . S
C149 H177 0.983 . S
C150 H126 0.948 . S
C150 C151 1.391 . S
C150 C155 1.391 . S
C151 C150 1.391 . S
C151 C152 1.391 . S
C152 H129 0.947 . S
C152 C151 1.391 . S
C152 C153 1.392 . S
C153 H130 0.948 . S
C153 C152 1.392 . S
C153 C154 1.419 . S
C154 C153 1.419 . S
C154 C155 1.391 . S
C154 C158 1.397 . S
C155 C150 1.391 . S
C155 C154 1.391 . S
C155 C156 1.399 . S
C156 C155 1.399 . S
C156 C157 1.396 . S
C156 C159 1.453 . S
C156 C160 1.684 . S
C157 C147 1.723 . S
C157 C156 1.396 . S
C157 C158 1.394 . S
C158 C128 1.723 . S
C158 C154 1.397 . S
C158 C157 1.394 . S
C159 H131 0.982 . S
C159 H135 0.979 . S
C159 H136 0.977 . S
C159 C156 1.453 . S
C160 H132 0.979 . S
C160 H133 0.980 . S
C160 H134 0.983 . S
C160 C156 1.684 . S
H161 C179 0.948 . S
H162 C120 0.948 . S
H163 C138 0.979 . S
H164 C138 0.980 . S
H165 C138 0.983 . S
H166 C137 0.982 . S
H167 C137 0.979 . S
H168 C137 0.977 . S
H169 C139 0.948 . S
H170 C141 0.947 . S
H171 C142 0.948 . S
H172 C148 0.982 . S
H173 C148 0.979 . S
H174 C148 0.977 . S
H175 C149 0.979 . S
H176 C149 0.980 . S
H177 C149 0.983 . S
H178 C122 0.947 . S
C179 C122 1.392 1_655 S
C179 C123 1.419 . S
C179 H161 0.948 . S
C180 C181 1.391 . S
C180 C184 1.391 . S
C180 H222 0.948 . S
C181 C180 1.391 . S
C181 C182 1.391 . S
C182 C181 1.391 . S
C182 H238 0.947 . S
C182 C239 1.392 . S
C183 C184 1.391 . S
C183 C187 1.397 . S
C183 C239 1.419 . S
C184 C180 1.391 . S
C184 C183 1.391 . S
C184 C185 1.399 . S
C185 C184 1.399 . S
C185 C188 1.396 . S
C185 C197 1.453 . S
C185 C198 1.684 . S
H186 C210 0.948 . S
C187 C183 1.397 . S
C187 C188 1.394 . S
C187 C206 1.723 . S
C188 C185 1.396 . S
C188 C187 1.394 . S
C188 C218 1.723 . S
H189 C212 0.946 1_655 S
H190 C213 0.948 . S
H191 C219 0.982 . S
H192 C220 0.979 . S
H193 C220 0.980 . S
H194 C220 0.983 1_655 S
H195 C219 0.979 . S
H196 C219 0.977 . S
C197 C185 1.453 . S
C197 H226 0.982 . S
C197 H227 0.979 . S
C197 H228 0.977 . S
C198 C185 1.684 . S
C198 H223 0.979 . S
C198 H224 0.980 . S
C198 H225 0.983 . S
C199 C200 1.391 . S
C199 C204 1.391 . S
C199 H229 0.948 . S
C200 C199 1.391 . S
C200 C201 1.391 . S
C201 C200 1.391 . S
C201 C202 1.392 . S
C201 H230 0.947 . S
C202 C201 1.392 . S
C202 C203 1.419 . S
C202 H231 0.948 . S
C203 C202 1.419 . S
C203 C204 1.391 . S
C203 C207 1.397 . S
C204 C199 1.391 . S
C204 C203 1.391 . S
C204 C205 1.399 . S
C205 C204 1.399 . S
C205 C206 1.396 . S
C205 C208 1.453 . S
C205 C209 1.684 . S
C206 C187 1.723 . S
C206 C205 1.396 . S
C206 C207 1.394 . S
C207 C203 1.397 . S
C207 C206 1.394 . S
C207 C217 1.723 . S
C208 C205 1.453 . S
C208 H232 0.982 . S
C208 H233 0.979 . S
C208 H234 0.977 . S
C209 C205 1.684 . S
C209 H235 0.979 . S
C209 H236 0.980 . S
C209 H237 0.983 . S
C210 H186 0.948 . S
C210 C211 1.391 . S
C210 C215 1.391 1_655 S
C211 C210 1.391 . S
C211 C212 1.391 1_655 S
C212 H189 0.946 1_455 S
C212 C211 1.391 1_455 S
C212 C213 1.392 . S
C213 H190 0.948 . S
C213 C212 1.392 . S
C213 C214 1.419 . S
C214 C213 1.419 . S
C214 C215 1.391 . S
C214 C218 1.397 . S
C215 C210 1.391 1_455 S
C215 C214 1.391 . S
C215 C216 1.399 . S
C216 C215 1.399 . S
C216 C217 1.396 . S
C216 C219 1.453 . S
C216 C220 1.684 . S
C217 C207 1.723 . S
C217 C216 1.396 . S
C217 C218 1.394 . S
C218 C188 1.723 . S
C218 C214 1.397 . S
C218 C217 1.394 . S
C219 H191 0.982 . S
C219 H195 0.979 . S
C219 H196 0.977 . S
C219 C216 1.453 . S
C220 H192 0.979 . S
C220 H193 0.980 . S
C220 H194 0.983 1_455 S
C220 C216 1.684 . S
H221 C239 0.948 . S
H222 C180 0.948 . S
H223 C198 0.979 . S
H224 C198 0.980 . S
H225 C198 0.983 . S
H226 C197 0.982 . S
H227 C197 0.979 . S
H228 C197 0.977 . S
H229 C199 0.948 . S
H230 C201 0.947 . S
H231 C202 0.948 . S
H232 C208 0.982 . S
H233 C208 0.979 . S
H234 C208 0.977 . S
H235 C209 0.979 . S
H236 C209 0.980 . S
H237 C209 0.983 . S
H238 C182 0.947 . S
C239 C182 1.392 . S
C239 C183 1.419 . S
C239 H221 0.948 . S
C240 C241 1.391 . S
C240 C244 1.391 . S
C240 H282 0.948 . S
C241 C240 1.391 . S
C241 C242 1.391 . S
C242 C241 1.391 . S
C242 H298 0.947 . S
C242 C299 1.392 . S
C243 C244 1.391 . S
C243 C247 1.397 . S
C243 C299 1.419 . S
C244 C240 1.391 . S
C244 C243 1.391 . S
C244 C245 1.399 . S
C245 C244 1.399 . S
C245 C248 1.396 . S
C245 C257 1.453 . S
C245 C258 1.684 . S
H246 C270 0.948 . S
C247 C243 1.397 . S
C247 C248 1.394 . S
C247 C266 1.723 . S
C248 C245 1.396 . S
C248 C247 1.394 . S
C248 C278 1.723 . S
H249 C272 0.947 1_545 S
H250 C273 0.948 . S
H251 C279 0.982 . S
H252 C280 0.979 . S
H253 C280 0.980 . S
H254 C280 0.983 . S
H255 C279 0.979 1_545 S
H256 C279 0.977 . S
C257 C245 1.453 . S
C257 H286 0.982 . S
C257 H287 0.979 . S
C257 H288 0.977 . S
C258 C245 1.684 . S
C258 H283 0.979 . S
C258 H284 0.980 . S
C258 H285 0.983 . S
C259 C260 1.391 . S
C259 C264 1.391 . S
C259 H289 0.948 . S
C260 C259 1.391 . S
C260 C261 1.391 . S
C261 C260 1.391 . S
C261 C262 1.392 . S
C261 H290 0.947 . S
C262 C261 1.392 . S
C262 C263 1.419 . S
C262 H291 0.948 . S
C263 C262 1.419 . S
C263 C264 1.391 . S
C263 C267 1.397 . S
C264 C259 1.391 . S
C264 C263 1.391 . S
C264 C265 1.399 . S
C265 C264 1.399 . S
C265 C266 1.396 . S
C265 C268 1.453 . S
C265 C269 1.684 . S
C266 C247 1.723 . S
C266 C265 1.396 . S
C266 C267 1.394 . S
C267 C263 1.397 . S
C267 C266 1.394 . S
C267 C277 1.723 . S
C268 C265 1.453 . S
C268 H292 0.982 . S
C268 H293 0.979 . S
C268 H294 0.977 . S
C269 C265 1.684 . S
C269 H295 0.979 . S
C269 H296 0.980 . S
C269 H297 0.983 . S
C270 H246 0.948 . S
C270 C271 1.391 . S
C270 C275 1.391 1_545 S
C271 C270 1.391 . S
C271 C272 1.391 1_545 S
C272 H249 0.947 1_565 S
C272 C271 1.391 1_565 S
C272 C273 1.392 . S
C273 H250 0.948 . S
C273 C272 1.392 . S
C273 C274 1.419 . S
C274 C273 1.419 . S
C274 C275 1.391 . S
C274 C278 1.397 . S
C275 C270 1.391 1_565 S
C275 C274 1.391 . S
C275 C276 1.399 . S
C276 C275 1.399 . S
C276 C277 1.396 . S
C276 C279 1.453 . S
C276 C280 1.684 . S
C277 C267 1.723 . S
C277 C276 1.396 . S
C277 C278 1.394 . S
C278 C248 1.723 . S
C278 C274 1.397 . S
C278 C277 1.394 . S
C279 H251 0.982 . S
C279 H255 0.979 1_565 S
C279 H256 0.977 . S
C279 C276 1.453 . S
C280 H252 0.979 . S
C280 H253 0.980 . S
C280 H254 0.983 . S
C280 C276 1.684 . S
H281 C299 0.948 . S
H282 C240 0.948 . S
H283 C258 0.979 . S
H284 C258 0.980 . S
H285 C258 0.983 . S
H286 C257 0.982 . S
H287 C257 0.979 . S
H288 C257 0.977 . S
H289 C259 0.948 . S
H290 C261 0.947 . S
H291 C262 0.948 . S
H292 C268 0.982 . S
H293 C268 0.979 . S
H294 C268 0.977 . S
H295 C269 0.979 . S
H296 C269 0.980 . S
H297 C269 0.983 . S
H298 C242 0.947 . S
C299 C242 1.392 . S
C299 C243 1.419 . S
C299 H281 0.948 . S
C300 C301 1.391 1_455 S
C300 C304 1.391 . S
C300 H342 0.948 . S
C301 C300 1.391 1_655 S
C301 C302 1.391 . S
C302 C301 1.391 . S
C302 H358 0.947 . S
C302 C359 1.392 1_655 S
C303 C304 1.391 . S
C303 C307 1.397 . S
C303 C359 1.419 . S
C304 C300 1.391 . S
C304 C303 1.391 . S
C304 C305 1.399 . S
C305 C304 1.399 . S
C305 C308 1.396 . S
C305 C317 1.453 . S
C305 C318 1.684 . S
H306 C330 0.948 . S
C307 C303 1.397 . S
C307 C308 1.394 . S
C307 C326 1.723 . S
C308 C305 1.396 . S
C308 C307 1.394 . S
C308 C338 1.723 . S
H309 C332 0.947 1_545 S
H310 C333 0.948 . S
H311 C339 0.982 . S
H312 C340 0.979 . S
H313 C340 0.980 . S
H314 C340 0.983 1_545 S
H315 C339 0.979 . S
H316 C339 0.977 . S
C317 C305 1.453 . S
C317 H346 0.982 . S
C317 H347 0.979 . S
C317 H348 0.977 . S
C318 C305 1.684 . S
C318 H343 0.979 . S
C318 H344 0.980 . S
C318 H345 0.983 . S
C319 C320 1.391 . S
C319 C324 1.391 . S
C319 H349 0.948 . S
C320 C319 1.391 . S
C320 C321 1.391 . S
C321 C320 1.391 . S
C321 C322 1.392 . S
C321 H350 0.947 . S
C322 C321 1.392 . S
C322 C323 1.419 . S
C322 H351 0.948 . S
C323 C322 1.419 . S
C323 C324 1.391 . S
C323 C327 1.397 . S
C324 C319 1.391 . S
C324 C323 1.391 . S
C324 C325 1.399 . S
C325 C324 1.399 . S
C325 C326 1.396 . S
C325 C328 1.453 . S
C325 C329 1.684 . S
C326 C307 1.723 . S
C326 C325 1.396 . S
C326 C327 1.394 . S
C327 C323 1.397 . S
C327 C326 1.394 . S
C327 C337 1.723 . S
C328 C325 1.453 . S
C328 H352 0.982 . S
C328 H353 0.979 . S
C328 H354 0.977 . S
C329 C325 1.684 . S
C329 H355 0.979 . S
C329 H356 0.980 . S
C329 H357 0.983 . S
C330 H306 0.948 . S
C330 C331 1.391 . S
C330 C335 1.391 1_545 S
C331 C330 1.391 . S
C331 C332 1.391 1_545 S
C332 H309 0.947 1_565 S
C332 C331 1.391 1_565 S
C332 C333 1.392 . S
C333 H310 0.948 . S
C333 C332 1.392 . S
C333 C334 1.419 . S
C334 C333 1.419 . S
C334 C335 1.391 . S
C334 C338 1.397 . S
C335 C330 1.391 1_565 S
C335 C334 1.391 . S
C335 C336 1.399 . S
C336 C335 1.399 . S
C336 C337 1.396 . S
C336 C339 1.453 . S
C336 C340 1.684 . S
C337 C327 1.723 . S
C337 C336 1.396 . S
C337 C338 1.394 . S
C338 C308 1.723 . S
C338 C334 1.397 . S
C338 C337 1.394 . S
C339 H311 0.982 . S
C339 H315 0.979 . S
C339 H316 0.977 . S
C339 C336 1.453 . S
C340 H312 0.979 . S
C340 H313 0.980 . S
C340 H314 0.983 1_565 S
C340 C336 1.684 . S
H341 C359 0.948 . S
H342 C300 0.948 . S
H343 C318 0.979 . S
H344 C318 0.980 . S
H345 C318 0.983 . S
H346 C317 0.982 . S
H347 C317 0.979 . S
H348 C317 0.977 . S
H349 C319 0.948 . S
H350 C321 0.947 . S
H351 C322 0.948 . S
H352 C328 0.982 . S
H353 C328 0.979 . S
H354 C328 0.977 . S
H355 C329 0.979 . S
H356 C329 0.980 . S
H357 C329 0.983 . S
H358 C302 0.947 . S
C359 C302 1.392 1_455 S
C359 C303 1.419 . S
C359 H341 0.948 . S
C360 C361 1.391 . S
C360 C364 1.391 . S
C360 H402 0.948 . S
C361 C360 1.391 . S
C361 C362 1.391 . S
C362 C361 1.391 . S
C362 H418 0.947 . S
C362 C419 1.392 . S
C363 C364 1.391 . S
C363 C367 1.397 . S
C363 C419 1.419 . S
C364 C360 1.391 . S
C364 C363 1.391 . S
C364 C365 1.399 . S
C365 C364 1.399 . S
C365 C368 1.396 . S
C365 C377 1.453 . S
C365 C378 1.684 . S
H366 C390 0.948 . S
C367 C363 1.397 . S
C367 C368 1.394 . S
C367 C386 1.723 . S
C368 C365 1.396 . S
C368 C367 1.394 . S
C368 C398 1.723 . S
H369 C392 0.947 . S
H370 C393 0.948 . S
H371 C399 0.982 . S
H372 C400 0.979 . S
H373 C400 0.980 . S
H374 C400 0.983 . S
H375 C399 0.979 . S
H376 C399 0.977 . S
C377 C365 1.453 . S
C377 H406 0.982 . S
C377 H407 0.979 . S
C377 H408 0.977 . S
C378 C365 1.684 . S
C378 H403 0.979 . S
C378 H404 0.980 . S
C378 H405 0.983 . S
C379 C380 1.391 . S
C379 C384 1.391 . S
C379 H409 0.948 . S
C380 C379 1.391 . S
C380 C381 1.391 . S
C381 C380 1.391 . S
C381 C382 1.392 . S
C381 H410 0.947 . S
C382 C381 1.392 . S
C382 C383 1.419 . S
C382 H411 0.948 . S
C383 C382 1.419 . S
C383 C384 1.391 . S
C383 C387 1.397 . S
C384 C379 1.391 . S
C384 C383 1.391 . S
C384 C385 1.399 . S
C385 C384 1.399 . S
C385 C386 1.396 . S
C385 C388 1.453 . S
C385 C389 1.684 . S
C386 C367 1.723 . S
C386 C385 1.396 . S
C386 C387 1.394 . S
C387 C383 1.397 . S
C387 C386 1.394 . S
C387 C397 1.723 . S
C388 C385 1.453 . S
C388 H412 0.982 1_655 S
C388 H413 0.979 . S
C388 H414 0.977 . S
C389 C385 1.684 . S
C389 H415 0.979 . S
C389 H416 0.980 . S
C389 H417 0.983 . S
C390 H366 0.948 . S
C390 C391 1.391 . S
C390 C395 1.391 . S
C391 C390 1.391 . S
C391 C392 1.391 . S
C392 H369 0.947 . S
C392 C391 1.391 . S
C392 C393 1.392 . S
C393 H370 0.948 . S
C393 C392 1.392 . S
C393 C394 1.419 . S
C394 C393 1.419 . S
C394 C395 1.391 . S
C394 C398 1.397 . S
C395 C390 1.391 . S
C395 C394 1.391 . S
C395 C396 1.399 . S
C396 C395 1.399 . S
C396 C397 1.396 . S
C396 C399 1.453 . S
C396 C400 1.684 . S
C397 C387 1.723 . S
C397 C396 1.396 . S
C397 C398 1.394 . S
C398 C368 1.723 . S
C398 C394 1.397 . S
C398 C397 1.394 . S
C399 H371 0.982 . S
C399 H375 0.979 . S
C399 H376 0.977 . S
C399 C396 1.453 . S
C400 H372 0.979 . S
C400 H373 0.980 . S
C400 H374 0.983 . S
C400 C396 1.684 . S
H401 C419 0.948 . S
H402 C360 0.948 . S
H403 C378 0.979 . S
H404 C378 0.980 . S
H405 C378 0.983 . S
H406 C377 0.982 . S
H407 C377 0.979 . S
H408 C377 0.977 . S
H409 C379 0.948 . S
H410 C381 0.947 . S
H411 C382 0.948 . S
H412 C388 0.982 1_455 S
H413 C388 0.979 . S
H414 C388 0.977 . S
H415 C389 0.979 . S
H416 C389 0.980 . S
H417 C389 0.983 . S
H418 C362 0.947 . S
C419 C362 1.392 . S
C419 C363 1.419 . S
C419 H401 0.948 . S
C420 C421 1.391 . S
C420 C424 1.391 . S
C420 H462 0.948 . S
C421 C420 1.391 . S
C421 C422 1.391 . S
C422 C421 1.391 . S
C422 H478 0.947 . S
C422 C479 1.392 . S
C423 C424 1.391 . S
C423 C427 1.397 . S
C423 C479 1.419 . S
C424 C420 1.391 . S
C424 C423 1.391 . S
C424 C425 1.399 . S
C425 C424 1.399 . S
C425 C428 1.396 . S
C425 C437 1.453 . S
C425 C438 1.684 . S
H426 C450 0.948 . S
C427 C423 1.397 . S
C427 C428 1.394 . S
C427 C446 1.723 . S
C428 C425 1.396 . S
C428 C427 1.394 . S
C428 C458 1.723 . S
H429 C452 0.947 . S
H430 C453 0.948 . S
H431 C459 0.982 . S
H432 C460 0.979 . S
H433 C460 0.980 . S
H434 C460 0.983 . S
H435 C459 0.979 . S
H436 C459 0.977 . S
C437 C425 1.453 . S
C437 H466 0.982 . S
C437 H467 0.979 . S
C437 H468 0.977 . S
C438 C425 1.684 . S
C438 H463 0.979 . S
C438 H464 0.980 . S
C438 H465 0.983 . S
C439 C440 1.391 . S
C439 C444 1.391 . S
C439 H469 0.948 . S
C440 C439 1.391 . S
C440 C441 1.391 . S
C441 C440 1.391 . S
C441 C442 1.392 . S
C441 H470 0.947 . S
C442 C441 1.392 . S
C442 C443 1.419 . S
C442 H471 0.948 . S
C443 C442 1.419 . S
C443 C444 1.391 . S
C443 C447 1.397 . S
C444 C439 1.391 . S
C444 C443 1.391 . S
C444 C445 1.399 . S
C445 C444 1.399 . S
C445 C446 1.396 . S
C445 C448 1.453 . S
C445 C449 1.684 . S
C446 C427 1.723 . S
C446 C445 1.396 . S
C446 C447 1.394 . S
C447 C443 1.397 . S
C447 C446 1.394 . S
C447 C457 1.723 . S
C448 C445 1.453 . S
C448 H472 0.982 . S
C448 H473 0.979 . S
C448 H474 0.977 . S
C449 C445 1.684 . S
C449 H475 0.979 . S
C449 H476 0.980 . S
C449 H477 0.983 . S
C450 H426 0.948 . S
C450 C451 1.391 . S
C450 C455 1.391 . S
C451 C450 1.391 . S
C451 C452 1.391 . S
C452 H429 0.947 . S
C452 C451 1.391 . S
C452 C453 1.392 . S
C453 H430 0.948 . S
C453 C452 1.392 . S
C453 C454 1.419 . S
C454 C453 1.419 . S
C454 C455 1.391 . S
C454 C458 1.397 . S
C455 C450 1.391 . S
C455 C454 1.391 . S
C455 C456 1.399 . S
C456 C455 1.399 . S
C456 C457 1.396 . S
C456 C459 1.453 . S
C456 C460 1.684 . S
C457 C447 1.723 . S
C457 C456 1.396 . S
C457 C458 1.394 . S
C458 C428 1.723 . S
C458 C454 1.397 . S
C458 C457 1.394 . S
C459 H431 0.982 . S
C459 H435 0.979 . S
C459 H436 0.977 . S
C459 C456 1.453 . S
C460 H432 0.979 . S
C460 H433 0.980 . S
C460 H434 0.983 . S
C460 C456 1.684 . S
H461 C479 0.948 . S
H462 C420 0.948 . S
H463 C438 0.979 . S
H464 C438 0.980 . S
H465 C438 0.983 . S
H466 C437 0.982 . S
H467 C437 0.979 . S
H468 C437 0.977 . S
H469 C439 0.948 . S
H470 C441 0.947 . S
H471 C442 0.948 . S
H472 C448 0.982 . S
H473 C448 0.979 . S
H474 C448 0.977 . S
H475 C449 0.979 . S
H476 C449 0.980 . S
H477 C449 0.983 . S
H478 C422 0.947 . S
C479 C422 1.392 . S
C479 C423 1.419 . S
C479 H461 0.948 . S
C480 C481 1.391 . S
C480 C484 1.391 . S
C480 H522 0.948 . S
C481 C480 1.391 . S
C481 C482 1.391 . S
C482 C481 1.391 . S
C482 H538 0.947 . S
C482 C539 1.392 . S
C483 C484 1.391 . S
C483 C487 1.397 . S
C483 C539 1.419 . S
C484 C480 1.391 . S
C484 C483 1.391 . S
C484 C485 1.399 . S
C485 C484 1.399 . S
C485 C488 1.396 . S
C485 C497 1.453 . S
C485 C498 1.684 . S
H486 C510 0.948 . S
C487 C483 1.397 . S
C487 C488 1.394 . S
C487 C506 1.723 . S
C488 C485 1.396 . S
C488 C487 1.394 . S
C488 C518 1.723 . S
H489 C512 0.947 . S
H490 C513 0.948 . S
H491 C519 0.982 . S
H492 C520 0.979 . S
H493 C520 0.980 . S
H494 C520 0.983 . S
H495 C519 0.979 . S
H496 C519 0.977 . S
C497 C485 1.453 . S
C497 H526 0.982 . S
C497 H527 0.979 . S
C497 H528 0.977 . S
C498 C485 1.684 . S
C498 H523 0.979 . S
C498 H524 0.980 . S
C498 H525 0.983 . S
C499 C500 1.391 . S
C499 C504 1.391 . S
C499 H529 0.948 . S
C500 C499 1.391 . S
C500 C501 1.391 . S
C501 C500 1.391 . S
C501 C502 1.392 . S
C501 H530 0.947 . S
C502 C501 1.392 . S
C502 C503 1.419 . S
C502 H531 0.948 . S
C503 C502 1.419 . S
C503 C504 1.391 . S
C503 C507 1.397 . S
C504 C499 1.391 . S
C504 C503 1.391 . S
C504 C505 1.399 . S
C505 C504 1.399 . S
C505 C506 1.396 . S
C505 C508 1.453 . S
C505 C509 1.684 . S
C506 C487 1.723 . S
C506 C505 1.396 . S
C506 C507 1.394 . S
C507 C503 1.397 . S
C507 C506 1.394 . S
C507 C517 1.723 . S
C508 C505 1.453 . S
C508 H532 0.982 1_545 S
C508 H533 0.979 . S
C508 H534 0.977 . S
C509 C505 1.684 . S
C509 H535 0.979 . S
C509 H536 0.980 . S
C509 H537 0.983 . S
C510 H486 0.948 . S
C510 C511 1.391 . S
C510 C515 1.391 . S
C511 C510 1.391 . S
C511 C512 1.391 . S
C512 H489 0.947 . S
C512 C511 1.391 . S
C512 C513 1.392 . S
C513 H490 0.948 . S
C513 C512 1.392 . S
C513 C514 1.419 . S
C514 C513 1.419 . S
C514 C515 1.391 . S
C514 C518 1.397 . S
C515 C510 1.391 . S
C515 C514 1.391 . S
C515 C516 1.399 . S
C516 C515 1.399 . S
C516 C517 1.396 . S
C516 C519 1.453 . S
C516 C520 1.684 . S
C517 C507 1.723 . S
C517 C516 1.396 . S
C517 C518 1.394 . S
C518 C488 1.723 . S
C518 C514 1.397 . S
C518 C517 1.394 . S
C519 H491 0.982 . S
C519 H495 0.979 . S
C519 H496 0.977 . S
C519 C516 1.453 . S
C520 H492 0.979 . S
C520 H493 0.980 . S
C520 H494 0.983 . S
C520 C516 1.684 . S
H521 C539 0.948 . S
H522 C480 0.948 . S
H523 C498 0.979 . S
H524 C498 0.980 . S
H525 C498 0.983 . S
H526 C497 0.982 . S
H527 C497 0.979 . S
H528 C497 0.977 . S
H529 C499 0.948 . S
H530 C501 0.947 . S
H531 C502 0.948 . S
H532 C508 0.982 1_565 S
H533 C508 0.979 . S
H534 C508 0.977 . S
H535 C509 0.979 . S
H536 C509 0.980 . S
H537 C509 0.983 . S
H538 C482 0.947 . S
C539 C482 1.392 . S
C539 C483 1.419 . S
C539 H521 0.948 . S
C540 C541 1.391 1_554 S
C540 C544 1.391 1_554 S
C540 H582 0.948 . S
C541 C540 1.391 1_556 S
C541 C542 1.391 . S
C542 C541 1.391 . S
C542 H598 0.947 . S
C542 C599 1.392 . S
C543 C544 1.391 . S
C543 C547 1.397 . S
C543 C599 1.419 . S
C544 C540 1.391 1_556 S
C544 C543 1.391 . S
C544 C545 1.393 1_556 S
C545 C544 1.393 1_554 S
C545 C548 1.377 1_554 S
C545 C557 1.475 . S
C545 C558 1.696 . S
H546 C570 0.948 . S
C547 C543 1.397 . S
C547 C548 1.394 . S
C547 C566 1.723 . S
C548 C545 1.377 1_556 S
C548 C547 1.394 . S
C548 C578 1.723 . S
H549 C572 0.947 . S
H550 C573 0.948 . S
H551 C579 0.982 . S
H552 C580 0.979 . S
H553 C580 0.980 . S
H554 C580 0.983 . S
H555 C579 0.979 . S
H556 C579 0.977 . S
C557 C545 1.475 . S
C557 H586 0.982 . S
C557 H587 0.979 . S
C557 H588 0.977 . S
C558 C545 1.696 . S
C558 H583 0.979 . S
C558 H584 0.980 . S
C558 H585 0.983 . S
C559 C560 1.391 . S
C559 C564 1.391 . S
C559 H589 0.948 . S
C560 C559 1.391 . S
C560 C561 1.391 . S
C561 C560 1.391 . S
C561 C562 1.392 . S
C561 H590 0.947 . S
C562 C561 1.392 . S
C562 C563 1.419 . S
C562 H591 0.948 . S
C563 C562 1.419 . S
C563 C564 1.391 . S
C563 C567 1.397 . S
C564 C559 1.391 . S
C564 C563 1.391 . S
C564 C565 1.399 . S
C565 C564 1.399 . S
C565 C566 1.396 . S
C565 C568 1.453 . S
C565 C569 1.684 . S
C566 C547 1.723 . S
C566 C565 1.396 . S
C566 C567 1.394 . S
C567 C563 1.397 . S
C567 C566 1.394 . S
C567 C577 1.723 . S
C568 C565 1.453 . S
C568 H592 0.982 . S
C568 H593 0.979 . S
C568 H594 0.977 . S
C569 C565 1.684 . S
C569 H595 0.979 . S
C569 H596 0.980 . S
C569 H597 0.983 . S
C570 H546 0.948 . S
C570 C571 1.391 1_556 S
C570 C575 1.391 . S
C571 C570 1.391 1_554 S
C571 C572 1.391 . S
C572 H549 0.947 . S
C572 C571 1.391 . S
C572 C573 1.392 . S
C573 H550 0.948 . S
C573 C572 1.392 . S
C573 C574 1.419 1_554 S
C574 C573 1.419 1_556 S
C574 C575 1.391 . S
C574 C578 1.397 . S
C575 C570 1.391 . S
C575 C574 1.391 . S
C575 C576 1.399 . S
C576 C575 1.399 . S
C576 C577 1.396 . S
C576 C579 1.453 . S
C576 C580 1.684 . S
C577 C567 1.723 . S
C577 C576 1.396 . S
C577 C578 1.394 . S
C578 C548 1.723 . S
C578 C574 1.397 . S
C578 C577 1.394 . S
C579 H551 0.982 . S
C579 H555 0.979 . S
C579 H556 0.977 . S
C579 C576 1.453 . S
C580 H552 0.979 . S
C580 H553 0.980 . S
C580 H554 0.983 . S
C580 C576 1.684 . S
H581 C599 0.948 . S
H582 C540 0.948 . S
H583 C558 0.979 . S
H584 C558 0.980 . S
H585 C558 0.983 . S
H586 C557 0.982 . S
H587 C557 0.979 . S
H588 C557 0.977 . S
H589 C559 0.948 . S
H590 C561 0.947 . S
H591 C562 0.948 . S
H592 C568 0.982 . S
H593 C568 0.979 . S
H594 C568 0.977 . S
H595 C569 0.979 . S
H596 C569 0.980 . S
H597 C569 0.983 . S
H598 C542 0.947 . S
C599 C542 1.392 . S
C599 C543 1.419 . S
C599 H581 0.948 . S
C600 C601 1.391 . S
C600 C604 1.377 1_554 S
C600 H642 0.948 . S
C601 C600 1.391 . S
C601 C602 1.391 1_554 S
C602 C601 1.391 1_556 S
C602 H658 0.947 . S
C602 C659 1.392 . S
C603 C604 1.418 . S
C603 C607 1.397 . S
C603 C659 1.419 . S
C604 C600 1.377 1_556 S
C604 C603 1.418 . S
C604 C605 1.394 1_556 S
C605 C604 1.394 1_554 S
C605 C608 1.396 1_554 S
C605 C617 1.453 . S
C605 C618 1.684 . S
H606 C630 0.948 . S
C607 C603 1.397 . S
C607 C608 1.394 . S
C607 C626 1.723 . S
C608 C605 1.396 1_556 S
C608 C607 1.394 . S
C608 C638 1.723 . S
H609 C632 0.947 . S
H610 C633 0.948 . S
H611 C639 0.982 . S
H612 C640 0.979 . S
H613 C640 0.980 . S
H614 C640 0.983 . S
H615 C639 0.979 . S
H616 C639 0.977 . S
C617 C605 1.453 . S
C617 H646 0.982 1_554 S
C617 H647 0.979 . S
C617 H648 0.977 . S
C618 C605 1.684 . S
C618 H643 0.979 . S
C618 H644 0.980 . S
C618 H645 0.983 . S
C619 C620 1.391 . S
C619 C624 1.391 . S
C619 H649 0.948 . S
C620 C619 1.391 . S
C620 C621 1.391 . S
C621 C620 1.391 . S
C621 C622 1.392 . S
C621 H650 0.947 . S
C622 C621 1.392 . S
C622 C623 1.419 . S
C622 H651 0.948 . S
C623 C622 1.419 . S
C623 C624 1.391 . S
C623 C627 1.397 . S
C624 C619 1.391 . S
C624 C623 1.391 . S
C624 C625 1.399 . S
C625 C624 1.399 . S
C625 C626 1.396 . S
C625 C628 1.453 . S
C625 C629 1.684 . S
C626 C607 1.723 . S
C626 C625 1.396 . S
C626 C627 1.394 . S
C627 C623 1.397 . S
C627 C626 1.394 . S
C627 C637 1.723 . S
C628 C625 1.453 . S
C628 H652 0.982 . S
C628 H653 0.979 . S
C628 H654 0.977 . S
C629 C625 1.684 . S
C629 H655 0.979 . S
C629 H656 0.980 . S
C629 H657 0.983 . S
C630 H606 0.948 . S
C630 C631 1.391 1_556 S
C630 C635 1.391 . S
C631 C630 1.391 1_554 S
C631 C632 1.391 . S
C632 H609 0.947 . S
C632 C631 1.391 . S
C632 C633 1.392 . S
C633 H610 0.948 . S
C633 C632 1.392 . S
C633 C634 1.419 1_554 S
C634 C633 1.419 1_556 S
C634 C635 1.391 . S
C634 C638 1.397 . S
C635 C630 1.391 . S
C635 C634 1.391 . S
C635 C636 1.399 . S
C636 C635 1.399 . S
C636 C637 1.396 . S
C636 C639 1.453 . S
C636 C640 1.684 . S
C637 C627 1.723 . S
C637 C636 1.396 . S
C637 C638 1.394 . S
C638 C608 1.723 . S
C638 C634 1.397 . S
C638 C637 1.394 . S
C639 H611 0.982 . S
C639 H615 0.979 . S
C639 H616 0.977 . S
C639 C636 1.453 . S
C640 H612 0.979 . S
C640 H613 0.980 . S
C640 H614 0.983 . S
C640 C636 1.684 . S
H641 C659 0.948 . S
H642 C600 0.948 . S
H643 C618 0.979 . S
H644 C618 0.980 . S
H645 C618 0.983 . S
H646 C617 0.982 1_556 S
H647 C617 0.979 . S
H648 C617 0.977 . S
H649 C619 0.948 . S
H650 C621 0.947 . S
H651 C622 0.948 . S
H652 C628 0.982 . S
H653 C628 0.979 . S
H654 C628 0.977 . S
H655 C629 0.979 . S
H656 C629 0.980 . S
H657 C629 0.983 . S
H658 C602 0.947 . S
C659 C602 1.392 . S
C659 C603 1.419 . S
C659 H641 0.948 . S
C660 C661 1.391 1_554 S
C660 C664 1.391 1_554 S
C660 H702 0.948 . S
C661 C660 1.391 1_556 S
C661 C662 1.391 . S
C662 C661 1.391 . S
C662 H718 0.947 . S
C662 C719 1.392 . S
C663 C664 1.391 . S
C663 C667 1.397 . S
C663 C719 1.419 . S
C664 C660 1.391 1_556 S
C664 C663 1.391 . S
C664 C665 1.399 . S
C665 C664 1.399 . S
C665 C668 1.396 . S
C665 C677 1.453 1_556 S
C665 C678 1.684 1_556 S
H666 C690 0.948 . S
C667 C663 1.397 . S
C667 C668 1.394 . S
C667 C686 1.723 . S
C668 C665 1.396 . S
C668 C667 1.394 . S
C668 C698 1.723 . S
H669 C692 0.947 . S
H670 C693 0.948 . S
H671 C699 0.982 . S
H672 C700 0.979 . S
H673 C700 0.980 . S
H674 C700 0.983 . S
H675 C699 0.979 . S
H676 C699 0.977 . S
C677 C665 1.453 1_554 S
C677 H706 0.982 . S
C677 H707 0.979 . S
C677 H708 0.977 . S
C678 C665 1.684 1_554 S
C678 H703 0.979 . S
C678 H704 0.980 . S
C678 H705 0.983 . S
C679 C680 1.391 . S
C679 C684 1.391 . S
C679 H709 0.948 . S
C680 C679 1.391 . S
C680 C681 1.391 . S
C681 C680 1.391 . S
C681 C682 1.392 . S
C681 H710 0.947 . S
C682 C681 1.392 . S
C682 C683 1.419 . S
C682 H711 0.948 . S
C683 C682 1.419 . S
C683 C684 1.391 . S
C683 C687 1.397 . S
C684 C679 1.391 . S
C684 C683 1.391 . S
C684 C685 1.399 . S
C685 C684 1.399 . S
C685 C686 1.396 . S
C685 C688 1.453 . S
C685 C689 1.684 . S
C686 C667 1.723 . S
C686 C685 1.396 . S
C686 C687 1.394 . S
C687 C683 1.397 . S
C687 C686 1.394 . S
C687 C697 1.723 . S
C688 C685 1.453 . S
C688 H712 0.982 . S
C688 H713 0.979 . S
C688 H714 0.977 . S
C689 C685 1.684 . S
C689 H715 0.979 . S
C689 H716 0.980 . S
C689 H717 0.983 . S
C690 H666 0.948 . S
C690 C691 1.391 1_556 S
C690 C695 1.391 . S
C691 C690 1.391 1_554 S
C691 C692 1.391 . S
C692 H669 0.947 . S
C692 C691 1.391 . S
C692 C693 1.392 . S
C693 H670 0.948 . S
C693 C692 1.392 . S
C693 C694 1.419 1_554 S
C694 C693 1.419 1_556 S
C694 C695 1.391 . S
C694 C698 1.397 . S
C695 C690 1.391 . S
C695 C694 1.391 . S
C695 C696 1.399 . S
C696 C695 1.399 . S
C696 C697 1.396 . S
C696 C699 1.453 . S
C696 C700 1.684 . S
C697 C687 1.723 . S
C697 C696 1.396 . S
C697 C698 1.394 . S
C698 C668 1.723 . S
C698 C694 1.397 . S
C698 C697 1.394 . S
C699 H671 0.982 . S
C699 H675 0.979 . S
C699 H676 0.977 . S
C699 C696 1.453 . S
C700 H672 0.979 . S
C700 H673 0.980 . S
C700 H674 0.983 . S
C700 C696 1.684 . S
H701 C719 0.948 . S
H702 C660 0.948 . S
H703 C678 0.979 . S
H704 C678 0.980 . S
H705 C678 0.983 . S
H706 C677 0.982 . S
H707 C677 0.979 . S
H708 C677 0.977 . S
H709 C679 0.948 . S
H710 C681 0.947 . S
H711 C682 0.948 . S
H712 C688 0.982 . S
H713 C688 0.979 . S
H714 C688 0.977 . S
H715 C689 0.979 . S
H716 C689 0.980 . S
H717 C689 0.983 . S
H718 C662 0.947 . S
C719 C662 1.392 . S
C719 C663 1.419 . S
C719 H701 0.948 . S
C720 C721 1.391 1_556 S
C720 C724 1.391 1_556 S
C720 H762 0.948 . S
C721 C720 1.391 1_554 S
C721 C722 1.391 . S
C722 C721 1.391 . S
C722 H778 0.947 . S
C722 C779 1.392 . S
C723 C724 1.391 . S
C723 C727 1.397 . S
C723 C779 1.419 . S
C724 C720 1.391 1_554 S
C724 C723 1.391 . S
C724 C725 1.399 . S
C725 C724 1.399 . S
C725 C728 1.396 . S
C725 C737 1.453 1_554 S
C725 C738 1.684 1_554 S
H726 C750 0.948 . S
C727 C723 1.397 . S
C727 C728 1.394 . S
C727 C746 1.723 . S
C728 C725 1.396 . S
C728 C727 1.394 . S
C728 C758 1.723 . S
H729 C752 0.947 . S
H730 C753 0.948 . S
H731 C759 0.982 . S
H732 C760 0.979 . S
H733 C760 0.980 . S
H734 C760 0.983 . S
H735 C759 0.979 . S
H736 C759 0.977 . S
C737 C725 1.453 1_556 S
C737 H766 0.982 . S
C737 H767 0.979 . S
C737 H768 0.977 . S
C738 C725 1.684 1_556 S
C738 H763 0.979 1_556 S
C738 H764 0.980 . S
C738 H765 0.983 . S
C739 C740 1.391 . S
C739 C744 1.391 . S
C739 H769 0.948 . S
C740 C739 1.391 . S
C740 C741 1.391 . S
C741 C740 1.391 . S
C741 C742 1.392 . S
C741 H770 0.947 . S
C742 C741 1.392 . S
C742 C743 1.419 . S
C742 H771 0.948 . S
C743 C742 1.419 . S
C743 C744 1.391 . S
C743 C747 1.397 . S
C744 C739 1.391 . S
C744 C743 1.391 . S
C744 C745 1.399 . S
C745 C744 1.399 . S
C745 C746 1.396 . S
C745 C748 1.453 . S
C745 C749 1.684 . S
C746 C727 1.723 . S
C746 C745 1.396 . S
C746 C747 1.394 . S
C747 C743 1.397 . S
C747 C746 1.394 . S
C747 C757 1.723 . S
C748 C745 1.453 . S
C748 H772 0.982 . S
C748 H773 0.979 . S
C748 H774 0.977 . S
C749 C745 1.684 . S
C749 H775 0.979 . S
C749 H776 0.980 . S
C749 H777 0.983 . S
C750 H726 0.948 . S
C750 C751 1.391 1_554 S
C750 C755 1.391 . S
C751 C750 1.391 1_556 S
C751 C752 1.391 . S
C752 H729 0.947 . S
C752 C751 1.391 . S
C752 C753 1.392 . S
C753 H730 0.948 . S
C753 C752 1.392 . S
C753 C754 1.419 1_556 S
C754 C753 1.419 1_554 S
C754 C755 1.391 . S
C754 C758 1.397 . S
C755 C750 1.391 . S
C755 C754 1.391 . S
C755 C756 1.399 . S
C756 C755 1.399 . S
C756 C757 1.396 . S
C756 C759 1.453 . S
C756 C760 1.684 . S
C757 C747 1.723 . S
C757 C756 1.396 . S
C757 C758 1.394 . S
C758 C728 1.723 . S
C758 C754 1.397 . S
C758 C757 1.394 . S
C759 H731 0.982 . S
C759 H735 0.979 . S
C759 H736 0.977 . S
C759 C756 1.453 . S
C760 H732 0.979 . S
C760 H733 0.980 . S
C760 H734 0.983 . S
C760 C756 1.684 . S
H761 C779 0.948 . S
H762 C720 0.948 . S
H763 C738 0.979 1_554 S
H764 C738 0.980 . S
H765 C738 0.983 . S
H766 C737 0.982 . S
H767 C737 0.979 . S
H768 C737 0.977 . S
H769 C739 0.948 . S
H770 C741 0.947 . S
H771 C742 0.948 . S
H772 C748 0.982 . S
H773 C748 0.979 . S
H774 C748 0.977 . S
H775 C749 0.979 . S
H776 C749 0.980 . S
H777 C749 0.983 . S
H778 C722 0.947 . S
C779 C722 1.392 . S
C779 C723 1.419 . S
C779 H761 0.948 . S
C780 C781 1.391 1_556 S
C780 C784 1.391 1_556 S
C780 H822 0.948 . S
C781 C780 1.391 1_554 S
C781 C782 1.391 . S
C782 C781 1.391 . S
C782 H838 0.947 . S
C782 C839 1.392 . S
C783 C784 1.391 . S
C783 C787 1.397 . S
C783 C839 1.419 . S
C784 C780 1.391 1_554 S
C784 C783 1.391 . S
C784 C785 1.405 . S
C785 C784 1.405 . S
C785 C788 1.420 . S
C785 C797 1.446 1_554 S
C785 C798 1.659 1_554 S
H786 C810 0.948 . S
C787 C783 1.397 . S
C787 C788 1.394 . S
C787 C806 1.723 . S
C788 C785 1.420 . S
C788 C787 1.394 . S
C788 C818 1.723 . S
H789 C812 0.947 . S
H790 C813 0.948 . S
H791 C819 0.982 . S
H792 C820 0.979 . S
H793 C820 0.980 . S
H794 C820 0.983 . S
H795 C819 0.979 . S
H796 C819 0.977 . S
C797 C785 1.446 1_556 S
C797 H826 0.982 1_556 S
C797 H827 0.979 . S
C797 H828 0.977 . S
C798 C785 1.659 1_556 S
C798 H823 0.979 . S
C798 H824 0.980 . S
C798 H825 0.983 . S
C799 C800 1.391 . S
C799 C804 1.391 . S
C799 H829 0.948 . S
C800 C799 1.391 . S
C800 C801 1.391 . S
C801 C800 1.391 . S
C801 C802 1.392 . S
C801 H830 0.947 . S
C802 C801 1.392 . S
C802 C803 1.419 . S
C802 H831 0.948 . S
C803 C802 1.419 . S
C803 C804 1.391 . S
C803 C807 1.397 . S
C804 C799 1.391 . S
C804 C803 1.391 . S
C804 C805 1.399 . S
C805 C804 1.399 . S
C805 C806 1.396 . S
C805 C808 1.453 . S
C805 C809 1.684 . S
C806 C787 1.723 . S
C806 C805 1.396 . S
C806 C807 1.394 . S
C807 C803 1.397 . S
C807 C806 1.394 . S
C807 C817 1.723 . S
C808 C805 1.453 . S
C808 H832 0.982 . S
C808 H833 0.979 . S
C808 H834 0.977 . S
C809 C805 1.684 . S
C809 H835 0.979 . S
C809 H836 0.980 . S
C809 H837 0.983 . S
C810 H786 0.948 . S
C810 C811 1.391 1_554 S
C810 C815 1.391 . S
C811 C810 1.391 1_556 S
C811 C812 1.391 . S
C812 H789 0.947 . S
C812 C811 1.391 . S
C812 C813 1.392 . S
C813 H790 0.948 . S
C813 C812 1.392 . S
C813 C814 1.419 1_556 S
C814 C813 1.419 1_554 S
C814 C815 1.391 . S
C814 C818 1.397 . S
C815 C810 1.391 . S
C815 C814 1.391 . S
C815 C816 1.399 . S
C816 C815 1.399 . S
C816 C817 1.396 . S
C816 C819 1.453 . S
C816 C820 1.684 . S
C817 C807 1.723 . S
C817 C816 1.396 . S
C817 C818 1.394 . S
C818 C788 1.723 . S
C818 C814 1.397 . S
C818 C817 1.394 . S
C819 H791 0.982 . S
C819 H795 0.979 . S
C819 H796 0.977 . S
C819 C816 1.453 . S
C820 H792 0.979 . S
C820 H793 0.980 . S
C820 H794 0.983 . S
C820 C816 1.684 . S
H821 C839 0.948 . S
H822 C780 0.948 . S
H823 C798 0.979 . S
H824 C798 0.980 . S
H825 C798 0.983 . S
H826 C797 0.982 1_554 S
H827 C797 0.979 . S
H828 C797 0.977 . S
H829 C799 0.948 . S
H830 C801 0.947 . S
H831 C802 0.948 . S
H832 C808 0.982 . S
H833 C808 0.979 . S
H834 C808 0.977 . S
H835 C809 0.979 . S
H836 C809 0.980 . S
H837 C809 0.983 . S
H838 C782 0.947 . S
C839 C782 1.392 . S
C839 C783 1.419 . S
C839 H821 0.948 . S
C840 C841 1.391 1_556 S
C840 C844 1.391 1_556 S
C840 H882 0.948 . S
C841 C840 1.391 1_554 S
C841 C842 1.391 . S
C842 C841 1.391 . S
C842 H898 0.947 . S
C842 C899 1.392 . S
C843 C844 1.391 . S
C843 C847 1.397 . S
C843 C899 1.419 . S
C844 C840 1.391 1_554 S
C844 C843 1.391 . S
C844 C845 1.399 . S
C845 C844 1.399 . S
C845 C848 1.396 . S
C845 C857 1.453 1_554 S
C845 C858 1.684 1_554 S
H846 C870 0.948 . S
C847 C843 1.397 . S
C847 C848 1.394 . S
C847 C866 1.723 . S
C848 C845 1.396 . S
C848 C847 1.394 . S
C848 C878 1.723 . S
H849 C872 0.947 . S
H850 C873 0.948 . S
H851 C879 0.982 . S
H852 C880 0.979 . S
H853 C880 0.980 . S
H854 C880 0.983 . S
H855 C879 0.979 . S
H856 C879 0.977 . S
C857 C845 1.453 1_556 S
C857 H886 0.982 . S
C857 H887 0.979 . S
C857 H888 0.977 . S
C858 C845 1.684 1_556 S
C858 H883 0.979 1_556 S
C858 H884 0.980 . S
C858 H885 0.983 . S
C859 C860 1.391 . S
C859 C864 1.391 . S
C859 H889 0.948 . S
C860 C859 1.391 . S
C860 C861 1.391 . S
C861 C860 1.391 . S
C861 C862 1.392 . S
C861 H890 0.947 . S
C862 C861 1.392 . S
C862 C863 1.419 . S
C862 H891 0.948 . S
C863 C862 1.419 . S
C863 C864 1.391 . S
C863 C867 1.397 . S
C864 C859 1.391 . S
C864 C863 1.391 . S
C864 C865 1.399 . S
C865 C864 1.399 . S
C865 C866 1.396 . S
C865 C868 1.453 . S
C865 C869 1.684 . S
C866 C847 1.723 . S
C866 C865 1.396 . S
C866 C867 1.394 . S
C867 C863 1.397 . S
C867 C866 1.394 . S
C867 C877 1.723 . S
C868 C865 1.453 . S
C868 H892 0.982 . S
C868 H893 0.979 . S
C868 H894 0.977 . S
C869 C865 1.684 . S
C869 H895 0.979 . S
C869 H896 0.980 . S
C869 H897 0.983 . S
C870 H846 0.948 . S
C870 C871 1.391 . S
C870 C875 1.391 . S
C871 C870 1.391 . S
C871 C872 1.391 1_554 S
C872 H849 0.947 . S
C872 C871 1.391 1_556 S
C872 C873 1.392 . S
C873 H850 0.948 . S
C873 C872 1.392 . S
C873 C874 1.419 1_556 S
C874 C873 1.419 1_554 S
C874 C875 1.391 . S
C874 C878 1.397 . S
C875 C870 1.391 . S
C875 C874 1.391 . S
C875 C876 1.399 . S
C876 C875 1.399 . S
C876 C877 1.396 . S
C876 C879 1.453 . S
C876 C880 1.684 . S
C877 C867 1.723 . S
C877 C876 1.396 . S
C877 C878 1.394 . S
C878 C848 1.723 . S
C878 C874 1.397 . S
C878 C877 1.394 . S
C879 H851 0.982 . S
C879 H855 0.979 . S
C879 H856 0.977 . S
C879 C876 1.453 . S
C880 H852 0.979 . S
C880 H853 0.980 . S
C880 H854 0.983 . S
C880 C876 1.684 . S
H881 C899 0.948 . S
H882 C840 0.948 . S
H883 C858 0.979 1_554 S
H884 C858 0.980 . S
H885 C858 0.983 . S
H886 C857 0.982 . S
H887 C857 0.979 . S
H888 C857 0.977 . S
H889 C859 0.948 . S
H890 C861 0.947 . S
H891 C862 0.948 . S
H892 C868 0.982 . S
H893 C868 0.979 . S
H894 C868 0.977 . S
H895 C869 0.979 . S
H896 C869 0.980 . S
H897 C869 0.983 . S
H898 C842 0.947 . S
C899 C842 1.392 . S
C899 C843 1.419 . S
C899 H881 0.948 . S
C900 C901 1.391 . S
C900 C904 1.391 . S
C900 H942 0.948 . S
C901 C900 1.391 . S
C901 C902 1.391 . S
C902 C901 1.391 . S
C902 H958 0.947 . S
C902 C959 1.392 . S
C903 C904 1.391 . S
C903 C907 1.397 . S
C903 C959 1.419 . S
C904 C900 1.391 . S
C904 C903 1.391 . S
C904 C905 1.399 . S
C905 C904 1.399 . S
C905 C908 1.396 . S
C905 C917 1.453 . S
C905 C918 1.684 . S
H906 C930 0.948 . S
C907 C903 1.397 . S
C907 C908 1.394 . S
C907 C926 1.723 . S
C908 C905 1.396 . S
C908 C907 1.394 . S
C908 C938 1.723 . S
H909 C932 0.947 . S
H910 C933 0.948 . S
H911 C939 0.982 1_545 S
H912 C940 0.979 . S
H913 C940 0.980 . S
H914 C940 0.983 . S
H915 C939 0.979 . S
H916 C939 0.977 . S
C917 C905 1.453 . S
C917 H946 0.982 . S
C917 H947 0.979 . S
C917 H948 0.977 . S
C918 C905 1.684 . S
C918 H943 0.979 . S
C918 H944 0.980 . S
C918 H945 0.983 . S
C919 C920 1.391 1_565 S
C919 C924 1.391 . S
C919 H949 0.948 . S
C920 C919 1.391 1_545 S
C920 C921 1.391 1_545 S
C921 C920 1.391 1_565 S
C921 C922 1.392 . S
C921 H950 0.947 1_565 S
C922 C921 1.392 . S
C922 C923 1.419 . S
C922 H951 0.948 . S
C923 C922 1.419 . S
C923 C924 1.391 . S
C923 C927 1.397 . S
C924 C919 1.391 . S
C924 C923 1.391 . S
C924 C925 1.399 . S
C925 C924 1.399 . S
C925 C926 1.396 . S
C925 C928 1.453 . S
C925 C929 1.684 . S
C926 C907 1.723 . S
C926 C925 1.396 . S
C926 C927 1.394 . S
C927 C923 1.397 . S
C927 C926 1.394 . S
C927 C937 1.723 . S
C928 C925 1.453 . S
C928 H952 0.982 1_565 S
C928 H953 0.979 1_565 S
C928 H954 0.977 . S
C929 C925 1.684 . S
C929 H955 0.979 . S
C929 H956 0.980 . S
C929 H957 0.983 . S
C930 H906 0.948 . S
C930 C931 1.391 . S
C930 C935 1.391 . S
C931 C930 1.391 . S
C931 C932 1.391 . S
C932 H909 0.947 . S
C932 C931 1.391 . S
C932 C933 1.392 . S
C933 H910 0.948 . S
C933 C932 1.392 . S
C933 C934 1.419 . S
C934 C933 1.419 . S
C934 C935 1.391 . S
C934 C938 1.397 . S
C935 C930 1.391 . S
C935 C934 1.391 . S
C935 C936 1.399 . S
C936 C935 1.399 . S
C936 C937 1.396 . S
C936 C939 1.453 . S
C936 C940 1.684 . S
C937 C927 1.723 . S
C937 C936 1.396 . S
C937 C938 1.394 . S
C938 C908 1.723 . S
C938 C934 1.397 . S
C938 C937 1.394 . S
C939 H911 0.982 1_565 S
C939 H915 0.979 . S
C939 H916 0.977 . S
C939 C936 1.453 . S
C940 H912 0.979 . S
C940 H913 0.980 . S
C940 H914 0.983 . S
C940 C936 1.684 . S
H941 C959 0.948 . S
H942 C900 0.948 . S
H943 C918 0.979 . S
H944 C918 0.980 . S
H945 C918 0.983 . S
H946 C917 0.982 . S
H947 C917 0.979 . S
H948 C917 0.977 . S
H949 C919 0.948 . S
H950 C921 0.947 1_545 S
H951 C922 0.948 . S
H952 C928 0.982 1_545 S
H953 C928 0.979 1_545 S
H954 C928 0.977 . S
H955 C929 0.979 . S
H956 C929 0.980 . S
H957 C929 0.983 . S
H958 C902 0.947 . S
C959 C902 1.392 . S
C959 C903 1.419 . S
C959 H941 0.948 . S
C960 C961 1.391 . S
C960 C964 1.391 . S
C960 H1002 0.948 . S
C961 C960 1.391 . S
C961 C962 1.391 . S
C962 C961 1.391 . S
C962 H1018 0.947 . S
C962 C1019 1.392 . S
C963 C964 1.391 . S
C963 C967 1.397 . S
C963 C1019 1.419 . S
C964 C960 1.391 . S
C964 C963 1.391 . S
C964 C965 1.399 . S
C965 C964 1.399 . S
C965 C968 1.396 . S
C965 C977 1.453 . S
C965 C978 1.684 . S
H966 C990 0.948 . S
C967 C963 1.397 . S
C967 C968 1.394 . S
C967 C986 1.723 . S
C968 C965 1.396 . S
C968 C967 1.394 . S
C968 C998 1.723 . S
H969 C992 0.947 . S
H970 C993 0.948 . S
H971 C999 0.982 . S
H972 C1000 0.979 1_655 S
H973 C1000 0.980 . S
H974 C1000 0.983 . S
H975 C999 0.979 . S
H976 C999 0.977 . S
C977 C965 1.453 . S
C977 H1006 0.982 . S
C977 H1007 0.979 . S
C977 H1008 0.977 . S
C978 C965 1.684 . S
C978 H1003 0.979 . S
C978 H1004 0.980 . S
C978 H1005 0.983 . S
C979 C980 1.389 1_455 S
C979 C984 1.391 . S
C979 H1009 0.948 . S
C980 C979 1.389 1_655 S
C980 C981 1.392 1_655 S
C981 C980 1.392 1_455 S
C981 C982 1.392 . S
C981 H1010 0.947 . S
C982 C981 1.392 . S
C982 C983 1.419 . S
C982 H1011 0.948 . S
C983 C982 1.419 . S
C983 C984 1.391 . S
C983 C987 1.397 . S
C984 C979 1.391 . S
C984 C983 1.391 . S
C984 C985 1.399 . S
C985 C984 1.399 . S
C985 C986 1.396 . S
C985 C988 1.453 . S
C985 C989 1.684 . S
C986 C967 1.723 . S
C986 C985 1.396 . S
C986 C987 1.394 . S
C987 C983 1.397 . S
C987 C986 1.394 . S
C987 C997 1.723 . S
C988 C985 1.453 . S
C988 H1012 0.982 . S
C988 H1013 0.979 . S
C988 H1014 0.977 . S
C989 C985 1.684 . S
C989 H1015 0.979 1_455 S
C989 H1016 0.980 . S
C989 H1017 0.983 . S
C990 H966 0.948 . S
C990 C991 1.391 . S
C990 C995 1.391 . S
C991 C990 1.391 . S
C991 C992 1.391 . S
C992 H969 0.947 . S
C992 C991 1.391 . S
C992 C993 1.392 . S
C993 H970 0.948 . S
C993 C992 1.392 . S
C993 C994 1.419 . S
C994 C993 1.419 . S
C994 C995 1.391 . S
C994 C998 1.397 . S
C995 C990 1.391 . S
C995 C994 1.391 . S
C995 C996 1.399 . S
C996 C995 1.399 . S
C996 C997 1.396 . S
C996 C999 1.453 . S
C996 C1000 1.684 . S
C997 C987 1.723 . S
C997 C996 1.396 . S
C997 C998 1.394 . S
C998 C968 1.723 . S
C998 C994 1.397 . S
C998 C997 1.394 . S
C999 H971 0.982 . S
C999 H975 0.979 . S
C999 H976 0.977 . S
C999 C996 1.453 . S
C1000 H972 0.979 1_455 S
C1000 H973 0.980 . S
C1000 H974 0.983 . S
C1000 C996 1.684 . S
H1001 C1019 0.948 . S
H1002 C960 0.948 . S
H1003 C978 0.979 . S
H1004 C978 0.980 . S
H1005 C978 0.983 . S
H1006 C977 0.982 . S
H1007 C977 0.979 . S
H1008 C977 0.977 . S
H1009 C979 0.948 . S
H1010 C981 0.947 . S
H1011 C982 0.948 . S
H1012 C988 0.982 . S
H1013 C988 0.979 . S
H1014 C988 0.977 . S
H1015 C989 0.979 1_655 S
H1016 C989 0.980 . S
H1017 C989 0.983 . S
H1018 C962 0.947 . S
C1019 C962 1.392 . S
C1019 C963 1.419 . S
C1019 H1001 0.948 . S
C1020 C1021 1.391 . S
C1020 C1024 1.391 . S
C1020 H1062 0.948 . S
C1021 C1020 1.391 . S
C1021 C1022 1.391 . S
C1022 C1021 1.391 . S
C1022 H1078 0.947 . S
C1022 C1079 1.392 . S
C1023 C1024 1.391 . S
C1023 C1027 1.397 . S
C1023 C1079 1.419 . S
C1024 C1020 1.391 . S
C1024 C1023 1.391 . S
C1024 C1025 1.399 . S
C1025 C1024 1.399 . S
C1025 C1028 1.396 . S
C1025 C1037 1.453 . S
C1025 C1038 1.684 . S
H1026 C1050 0.948 . S
C1027 C1023 1.397 . S
C1027 C1028 1.394 . S
C1027 C1046 1.723 . S
C1028 C1025 1.396 . S
C1028 C1027 1.394 . S
C1028 C1058 1.723 . S
H1029 C1052 0.947 . S
H1030 C1053 0.948 . S
H1031 C1059 0.982 . S
H1032 C1060 0.979 . S
H1033 C1060 0.980 . S
H1034 C1060 0.983 . S
H1035 C1059 0.979 . S
H1036 C1059 0.977 . S
C1037 C1025 1.453 . S
C1037 H1066 0.982 . S
C1037 H1067 0.979 . S
C1037 H1068 0.977 . S
C1038 C1025 1.684 . S
C1038 H1063 0.979 . S
C1038 H1064 0.980 . S
C1038 H1065 0.983 . S
C1039 C1040 1.391 . S
C1039 C1044 1.391 . S
C1039 H1069 0.948 . S
C1040 C1039 1.391 . S
C1040 C1041 1.391 . S
C1041 C1040 1.391 . S
C1041 C1042 1.392 . S
C1041 H1070 0.947 . S
C1042 C1041 1.392 . S
C1042 C1043 1.419 . S
C1042 H1071 0.948 . S
C1043 C1042 1.419 . S
C1043 C1044 1.391 . S
C1043 C1047 1.397 . S
C1044 C1039 1.391 . S
C1044 C1043 1.391 . S
C1044 C1045 1.399 . S
C1045 C1044 1.399 . S
C1045 C1046 1.396 . S
C1045 C1048 1.453 . S
C1045 C1049 1.684 . S
C1046 C1027 1.723 . S
C1046 C1045 1.396 . S
C1046 C1047 1.394 . S
C1047 C1043 1.397 . S
C1047 C1046 1.394 . S
C1047 C1057 1.723 . S
C1048 C1045 1.453 . S
C1048 H1072 0.982 . S
C1048 H1073 0.979 . S
C1048 H1074 0.977 . S
C1049 C1045 1.684 . S
C1049 H1075 0.979 . S
C1049 H1076 0.980 . S
C1049 H1077 0.983 . S
C1050 H1026 0.948 . S
C1050 C1051 1.391 . S
C1050 C1055 1.391 . S
C1051 C1050 1.391 . S
C1051 C1052 1.391 . S
C1052 H1029 0.947 . S
C1052 C1051 1.391 . S
C1052 C1053 1.392 . S
C1053 H1030 0.948 . S
C1053 C1052 1.392 . S
C1053 C1054 1.419 . S
C1054 C1053 1.419 . S
C1054 C1055 1.391 . S
C1054 C1058 1.397 . S
C1055 C1050 1.391 . S
C1055 C1054 1.391 . S
C1055 C1056 1.399 . S
C1056 C1055 1.399 . S
C1056 C1057 1.396 . S
C1056 C1059 1.453 . S
C1056 C1060 1.684 . S
C1057 C1047 1.723 . S
C1057 C1056 1.396 . S
C1057 C1058 1.394 . S
C1058 C1028 1.723 . S
C1058 C1054 1.397 . S
C1058 C1057 1.394 . S
C1059 H1031 0.982 . S
C1059 H1035 0.979 . S
C1059 H1036 0.977 . S
C1059 C1056 1.453 . S
C1060 H1032 0.979 . S
C1060 H1033 0.980 . S
C1060 H1034 0.983 . S
C1060 C1056 1.684 . S
H1061 C1079 0.948 . S
H1062 C1020 0.948 . S
H1063 C1038 0.979 . S
H1064 C1038 0.980 . S
H1065 C1038 0.983 . S
H1066 C1037 0.982 . S
H1067 C1037 0.979 . S
H1068 C1037 0.977 . S
H1069 C1039 0.948 . S
H1070 C1041 0.947 . S
H1071 C1042 0.948 . S
H1072 C1048 0.982 . S
H1073 C1048 0.979 . S
H1074 C1048 0.977 . S
H1075 C1049 0.979 . S
H1076 C1049 0.980 . S
H1077 C1049 0.983 . S
H1078 C1022 0.947 . S
C1079 C1022 1.392 . S
C1079 C1023 1.419 . S
C1079 H1061 0.948 . S
O1080 Mg1081 1.990 . S
O1080 C1094 1.273 . S
Mg1081 O1080 1.990 . S
Mg1081 O1084 2.180 1_556 S
Mg1081 O1085 2.117 . S
Mg1081 O1099 2.030 1_565 S
O1082 Mg1083 2.072 1_556 S
O1082 C1094 1.250 1_545 S
Mg1083 O1082 2.072 1_554 S
Mg1083 O1084 2.099 1_545 S
Mg1083 O1086 2.079 . S
Mg1083 O1087 2.072 1_545 S
Mg1083 O1089 2.099 . S
Mg1083 O1100 2.079 . S
O1084 Mg1081 2.180 1_554 S
O1084 Mg1083 2.099 1_565 S
O1084 C1095 1.279 1_554 S
O1085 Mg1081 2.117 . S
O1085 C1095 1.250 . S
O1086 Mg1083 2.079 . S
O1086 C1096 1.264 . S
O1087 Mg1083 2.072 1_565 S
O1087 C1097 1.260 . S
Mg1088 O1089 2.180 . S
Mg1088 O1090 2.030 . S
Mg1088 O1091 1.990 1_545 S
Mg1088 O1092 2.117 . S
O1089 Mg1083 2.099 . S
O1089 Mg1088 2.180 . S
O1089 C1098 1.279 1_554 S
O1090 Mg1088 2.030 . S
O1090 C1096 1.248 . S
O1091 Mg1088 1.990 1_565 S
O1091 C1097 1.253 . S
O1092 Mg1088 2.117 . S
O1092 C1098 1.250 1_554 S
C1093 O1099 1.248 . S
C1093 O1100 1.264 1_556 S
C1094 O1080 1.273 . S
C1094 O1082 1.250 1_565 S
C1095 O1084 1.279 1_556 S
C1095 O1085 1.250 . S
C1096 O1086 1.264 . S
C1096 O1090 1.248 . S
C1097 O1087 1.260 . S
C1097 O1091 1.253 . S
C1098 O1089 1.279 1_556 S
C1098 O1092 1.250 1_556 S
O1099 Mg1081 2.030 1_545 S
O1099 C1093 1.248 . S
O1100 Mg1083 2.079 . S
O1100 C1093 1.264 1_554 S
O1101 Mg1102 1.990 . S
O1101 C1115 1.253 . S
Mg1102 O1101 1.990 . S
Mg1102 O1105 2.180 1_556 S
Mg1102 O1106 2.117 . S
Mg1102 O1120 2.030 1_455 S
O1103 Mg1104 2.072 1_556 S
O1103 C1115 1.260 1_655 S
Mg1104 O1103 2.072 1_554 S
Mg1104 O1105 2.099 1_655 S
Mg1104 O1107 2.079 . S
Mg1104 O1108 2.072 1_655 S
Mg1104 O1110 2.099 . S
Mg1104 O1121 2.079 . S
O1105 Mg1102 2.180 1_554 S
O1105 Mg1104 2.099 1_455 S
O1105 C1116 1.276 1_554 S
O1106 Mg1102 2.117 . S
O1106 C1116 1.269 . S
O1107 Mg1104 2.079 . S
O1107 C1117 1.264 1_655 S
O1108 Mg1104 2.072 1_455 S
O1108 C1118 1.260 . S
Mg1109 O1110 2.180 . S
Mg1109 O1111 2.030 1_655 S
Mg1109 O1112 1.990 1_655 S
Mg1109 O1113 2.117 . S
O1110 Mg1104 2.099 . S
O1110 Mg1109 2.180 . S
O1110 C1119 1.279 1_554 S
O1111 Mg1109 2.030 1_455 S
O1111 C1117 1.248 . S
O1112 Mg1109 1.990 1_455 S
O1112 C1118 1.253 . S
O1113 Mg1109 2.117 . S
O1113 C1119 1.250 1_554 S
C1114 O1120 1.248 . S
C1114 O1121 1.264 1_556 S
C1115 O1101 1.253 . S
C1115 O1103 1.260 1_455 S
C1116 O1105 1.276 1_556 S
C1116 O1106 1.269 . S
C1117 O1107 1.264 1_455 S
C1117 O1111 1.248 . S
C1118 O1108 1.260 . S
C1118 O1112 1.253 . S
C1119 O1110 1.279 1_556 S
C1119 O1113 1.250 1_556 S
O1120 Mg1102 2.030 1_655 S
O1120 C1114 1.248 . S
O1121 Mg1104 2.079 . S
O1121 C1114 1.264 1_554 S
O1122 Mg1123 1.990 . S
O1122 C1136 1.253 . S
Mg1123 O1122 1.990 . S
Mg1123 O1126 2.180 . S
Mg1123 O1127 2.117 . S
Mg1123 O1141 2.030 . S
O1124 Mg1125 2.072 1_554 S
O1124 C1136 1.260 . S
Mg1125 O1124 2.072 1_556 S
Mg1125 O1126 2.099 1_556 S
Mg1125 O1128 2.079 . S
Mg1125 O1129 2.072 . S
Mg1125 O1131 2.099 . S
Mg1125 O1142 2.079 1_556 S
O1126 Mg1123 2.180 . S
O1126 Mg1125 2.099 1_554 S
O1126 C1137 1.279 . S
O1127 Mg1123 2.117 . S
O1127 C1137 1.250 . S
O1128 Mg1125 2.079 . S
O1128 C1138 1.264 . S
O1129 Mg1125 2.072 . S
O1129 C1139 1.260 . S
Mg1130 O1131 2.180 . S
Mg1130 O1132 2.030 . S
Mg1130 O1133 1.990 . S
Mg1130 O1134 2.139 . S
O1131 Mg1125 2.099 . S
O1131 Mg1130 2.180 . S
O1131 C1140 1.279 1_556 S
O1132 Mg1130 2.030 . S
O1132 C1138 1.248 . S
O1133 Mg1130 1.990 . S
O1133 C1139 1.253 . S
O1134 Mg1130 2.139 . S
O1134 C1140 1.242 1_556 S
C1135 O1141 1.248 . S
C1135 O1142 1.264 . S
C1136 O1122 1.253 . S
C1136 O1124 1.260 . S
C1137 O1126 1.279 . S
C1137 O1127 1.250 . S
C1138 O1128 1.264 . S
C1138 O1132 1.248 . S
C1139 O1129 1.260 . S
C1139 O1133 1.253 . S
C1140 O1131 1.279 1_554 S
C1140 O1134 1.242 1_554 S
O1141 Mg1123 2.030 . S
O1141 C1135 1.248 . S
O1142 Mg1125 2.079 1_554 S
O1142 C1135 1.264 . S
O1143 Mg1144 1.990 . S
O1143 C1157 1.253 . S
Mg1144 O1143 1.990 . S
Mg1144 O1147 2.180 . S
Mg1144 O1148 2.117 . S
Mg1144 O1162 2.030 . S
O1145 Mg1146 2.072 . S
O1145 C1157 1.260 . S
Mg1146 O1145 2.072 . S
Mg1146 O1147 2.099 . S
Mg1146 O1149 2.079 . S
Mg1146 O1150 2.072 . S
Mg1146 O1152 2.099 . S
Mg1146 O1163 2.079 . S
O1147 Mg1144 2.180 . S
O1147 Mg1146 2.099 . S
O1147 C1158 1.279 . S
O1148 Mg1144 2.117 . S
O1148 C1158 1.250 . S
O1149 Mg1146 2.079 . S
O1149 C1159 1.264 . S
O1150 Mg1146 2.072 . S
O1150 C1160 1.260 . S
Mg1151 O1152 2.180 . S
Mg1151 O1153 2.030 . S
Mg1151 O1154 1.990 . S
Mg1151 O1155 2.117 . S
O1152 Mg1146 2.099 . S
O1152 Mg1151 2.180 . S
O1152 C1161 1.279 . S
O1153 Mg1151 2.030 . S
O1153 C1159 1.248 . S
O1154 Mg1151 1.990 . S
O1154 C1160 1.253 . S
O1155 Mg1151 2.117 . S
O1155 C1161 1.250 . S
C1156 O1162 1.248 . S
C1156 O1163 1.264 . S
C1157 O1143 1.253 . S
C1157 O1145 1.260 . S
C1158 O1147 1.279 . S
C1158 O1148 1.250 . S
C1159 O1149 1.264 . S
C1159 O1153 1.248 . S
C1160 O1150 1.260 . S
C1160 O1154 1.253 . S
C1161 O1152 1.279 . S
C1161 O1155 1.250 . S
O1162 Mg1144 2.030 . S
O1162 C1156 1.248 . S
O1163 Mg1146 2.079 . S
O1163 C1156 1.264 . S
O1164 Mg1165 1.990 . S
O1164 C1178 1.253 . S
Mg1165 O1164 1.990 . S
Mg1165 O1168 2.180 . S
Mg1165 O1169 2.117 . S
Mg1165 O1183 2.030 . S
O1166 Mg1167 2.072 . S
O1166 C1178 1.260 . S
Mg1167 O1166 2.072 . S
Mg1167 O1168 2.099 . S
Mg1167 O1170 2.079 . S
Mg1167 O1171 2.072 . S
Mg1167 O1173 2.099 . S
Mg1167 O1184 2.079 . S
O1168 Mg1165 2.180 . S
O1168 Mg1167 2.099 . S
O1168 C1179 1.279 . S
O1169 Mg1165 2.117 . S
O1169 C1179 1.250 . S
O1170 Mg1167 2.079 . S
O1170 C1180 1.264 . S
O1171 Mg1167 2.072 . S
O1171 C1181 1.260 . S
Mg1172 O1173 2.180 . S
Mg1172 O1174 2.030 . S
Mg1172 O1175 1.990 . S
Mg1172 O1176 2.117 . S
O1173 Mg1167 2.099 . S
O1173 Mg1172 2.180 . S
O1173 C1182 1.279 . S
O1174 Mg1172 2.030 . S
O1174 C1180 1.248 . S
O1175 Mg1172 1.990 . S
O1175 C1181 1.253 . S
O1176 Mg1172 2.117 . S
O1176 C1182 1.250 . S
C1177 O1183 1.248 . S
C1177 O1184 1.264 . S
C1178 O1164 1.253 . S
C1178 O1166 1.260 . S
C1179 O1168 1.279 . S
C1179 O1169 1.250 . S
C1180 O1170 1.264 . S
C1180 O1174 1.248 . S
C1181 O1171 1.260 . S
C1181 O1175 1.253 . S
C1182 O1173 1.279 . S
C1182 O1176 1.250 . S
O1183 Mg1165 2.030 . S
O1183 C1177 1.248 . S
O1184 Mg1167 2.079 . S
O1184 C1177 1.264 . S
O1185 Mg1186 1.990 . S
O1185 C1199 1.253 . S
Mg1186 O1185 1.990 . S
Mg1186 O1189 2.180 . S
Mg1186 O1190 2.117 . S
Mg1186 O1204 2.030 . S
O1187 Mg1188 2.072 . S
O1187 C1199 1.260 . S
Mg1188 O1187 2.072 . S
Mg1188 O1189 2.099 . S
Mg1188 O1191 2.079 . S
Mg1188 O1192 2.072 . S
Mg1188 O1194 2.099 . S
Mg1188 O1205 2.079 . S
O1189 Mg1186 2.180 . S
O1189 Mg1188 2.099 . S
O1189 C1200 1.279 . S
O1190 Mg1186 2.117 . S
O1190 C1200 1.250 . S
O1191 Mg1188 2.079 . S
O1191 C1201 1.264 . S
O1192 Mg1188 2.072 . S
O1192 C1202 1.260 . S
Mg1193 O1194 2.180 . S
Mg1193 O1195 2.030 . S
Mg1193 O1196 1.990 . S
Mg1193 O1197 2.117 . S
O1194 Mg1188 2.099 . S
O1194 Mg1193 2.180 . S
O1194 C1203 1.279 . S
O1195 Mg1193 2.030 . S
O1195 C1201 1.248 . S
O1196 Mg1193 1.990 . S
O1196 C1202 1.253 . S
O1197 Mg1193 2.117 . S
O1197 C1203 1.250 . S
C1198 O1204 1.248 . S
C1198 O1205 1.264 . S
C1199 O1185 1.253 . S
C1199 O1187 1.260 . S
C1200 O1189 1.279 . S
C1200 O1190 1.250 . S
C1201 O1191 1.264 . S
C1201 O1195 1.248 . S
C1202 O1192 1.260 . S
C1202 O1196 1.253 . S
C1203 O1194 1.279 . S
C1203 O1197 1.250 . S
O1204 Mg1186 2.030 . S
O1204 C1198 1.248 . S
O1205 Mg1188 2.079 . S
O1205 C1198 1.264 . S
O1206 Mg1207 1.990 . S
O1206 C1220 1.253 . S
Mg1207 O1206 1.990 . S
Mg1207 O1210 2.180 . S
Mg1207 O1211 2.117 . S
Mg1207 O1225 2.030 . S
O1208 Mg1209 2.072 . S
O1208 C1220 1.260 . S
Mg1209 O1208 2.072 . S
Mg1209 O1210 2.099 . S
Mg1209 O1212 2.079 . S
Mg1209 O1213 2.072 . S
Mg1209 O1215 2.099 . S
Mg1209 O1226 2.079 . S
O1210 Mg1207 2.180 . S
O1210 Mg1209 2.099 . S
O1210 C1221 1.279 . S
O1211 Mg1207 2.117 . S
O1211 C1221 1.250 . S
O1212 Mg1209 2.079 . S
O1212 C1222 1.264 . S
O1213 Mg1209 2.072 . S
O1213 C1223 1.260 . S
Mg1214 O1215 2.180 . S
Mg1214 O1216 2.030 . S
Mg1214 O1217 1.990 . S
Mg1214 O1218 2.117 . S
O1215 Mg1209 2.099 . S
O1215 Mg1214 2.180 . S
O1215 C1224 1.279 . S
O1216 Mg1214 2.030 . S
O1216 C1222 1.248 . S
O1217 Mg1214 1.990 . S
O1217 C1223 1.253 . S
O1218 Mg1214 2.117 . S
O1218 C1224 1.250 . S
C1219 O1225 1.248 . S
C1219 O1226 1.264 . S
C1220 O1206 1.253 . S
C1220 O1208 1.260 . S
C1221 O1210 1.279 . S
C1221 O1211 1.250 . S
C1222 O1212 1.264 . S
C1222 O1216 1.248 . S
C1223 O1213 1.260 . S
C1223 O1217 1.253 . S
C1224 O1215 1.279 . S
C1224 O1218 1.250 . S
O1225 Mg1207 2.030 . S
O1225 C1219 1.248 . S
O1226 Mg1209 2.079 . S
O1226 C1219 1.264 . S
O1227 Mg1228 1.990 . S
O1227 C1241 1.253 . S
Mg1228 O1227 1.990 . S
Mg1228 O1231 2.180 . S
Mg1228 O1232 2.117 . S
Mg1228 O1246 2.030 . S
O1229 Mg1230 2.072 . S
O1229 C1241 1.260 . S
Mg1230 O1229 2.072 . S
Mg1230 O1231 2.099 . S
Mg1230 O1233 2.079 . S
Mg1230 O1234 2.072 . S
Mg1230 O1236 2.099 . S
Mg1230 O1247 2.079 . S
O1231 Mg1228 2.180 . S
O1231 Mg1230 2.099 . S
O1231 C1242 1.279 . S
O1232 Mg1228 2.117 . S
O1232 C1242 1.250 . S
O1233 Mg1230 2.079 . S
O1233 C1243 1.264 . S
O1234 Mg1230 2.072 . S
O1234 C1244 1.260 . S
Mg1235 O1236 2.180 . S
Mg1235 O1237 2.030 . S
Mg1235 O1238 1.990 . S
Mg1235 O1239 2.117 . S
O1236 Mg1230 2.099 . S
O1236 Mg1235 2.180 . S
O1236 C1245 1.279 . S
O1237 Mg1235 2.030 . S
O1237 C1243 1.248 . S
O1238 Mg1235 1.990 . S
O1238 C1244 1.253 . S
O1239 Mg1235 2.117 . S
O1239 C1245 1.250 . S
C1240 O1246 1.248 . S
C1240 O1247 1.264 . S
C1241 O1227 1.253 . S
C1241 O1229 1.260 . S
C1242 O1231 1.279 . S
C1242 O1232 1.250 . S
C1243 O1233 1.264 . S
C1243 O1237 1.248 . S
C1244 O1234 1.260 . S
C1244 O1238 1.253 . S
C1245 O1236 1.279 . S
C1245 O1239 1.250 . S
O1246 Mg1228 2.030 . S
O1246 C1240 1.248 . S
O1247 Mg1230 2.079 . S
O1247 C1240 1.264 . S
O1248 Mg1249 1.990 . S
O1248 C1262 1.253 . S
Mg1249 O1248 1.990 . S
Mg1249 O1252 2.180 . S
Mg1249 O1253 2.117 . S
Mg1249 O1267 2.030 . S
O1250 Mg1251 2.072 . S
O1250 C1262 1.260 . S
Mg1251 O1250 2.072 . S
Mg1251 O1252 2.099 . S
Mg1251 O1254 2.079 . S
Mg1251 O1255 2.072 . S
Mg1251 O1257 2.099 . S
Mg1251 O1268 2.079 . S
O1252 Mg1249 2.180 . S
O1252 Mg1251 2.099 . S
O1252 C1263 1.279 . S
O1253 Mg1249 2.117 . S
O1253 C1263 1.250 . S
O1254 Mg1251 2.079 . S
O1254 C1264 1.264 . S
O1255 Mg1251 2.072 . S
O1255 C1265 1.260 . S
Mg1256 O1257 2.180 . S
Mg1256 O1258 2.030 . S
Mg1256 O1259 1.990 . S
Mg1256 O1260 2.117 . S
O1257 Mg1251 2.099 . S
O1257 Mg1256 2.180 . S
O1257 C1266 1.279 . S
O1258 Mg1256 2.030 . S
O1258 C1264 1.248 . S
O1259 Mg1256 1.990 . S
O1259 C1265 1.253 . S
O1260 Mg1256 2.117 . S
O1260 C1266 1.250 . S
C1261 O1267 1.248 . S
C1261 O1268 1.264 . S
C1262 O1248 1.253 . S
C1262 O1250 1.260 . S
C1263 O1252 1.279 . S
C1263 O1253 1.250 . S
C1264 O1254 1.264 . S
C1264 O1258 1.248 . S
C1265 O1255 1.260 . S
C1265 O1259 1.253 . S
C1266 O1257 1.279 . S
C1266 O1260 1.250 . S
O1267 Mg1249 2.030 . S
O1267 C1261 1.248 . S
O1268 Mg1251 2.079 . S
O1268 C1261 1.264 . S
C781 C1097 1.700 . S
C871 C1118 1.713 . S
C751 C1140 1.202 1_556 S
C691 C1119 1.205 1_554 S
C1139 C571 1.774 1_556 S
C601 C1098 1.215 1_554 S
C1093 C661 1.520 . S
C1114 C541 1.527 . S
C631 C1137 1.472 . S
C811 C1116 1.367 . S
C841 C1135 1.426 . S
C1095 C721 1.262 1_556 S
C1160 C61 1.700 . S
C151 C1181 1.713 . S
C31 C1203 1.202 . S
C1051 C1182 1.205 . S
C931 C1202 1.774 . S
C961 C1161 1.215 . S
C1021 C1156 1.520 . S
C901 C1177 1.527 . S
C1200 C991 1.471 . S
C91 C1179 1.363 . S
C1198 C121 1.426 . S
C1 C1158 1.262 . S
C1223 C421 1.700 . S
C511 C1244 1.713 . S
C1266 C391 1.202 . S
C1245 C331 1.205 . S
C1265 C211 1.774 . S
C241 C1224 1.215 . S
C301 C1219 1.520 . S
C181 C1240 1.527 . S
C1263 C271 1.472 . S
C451 C1242 1.363 . S
C481 C1261 1.425 . S
C361 C1221 1.262 . S
C920 C1096 1.306 . S
C1117 C980 1.551 1_455 S
C1040 C1136 1.550 . S
C380 C1115 1.581 1_655 S
C440 C1138 1.526 . S
C1094 C500 1.568 1_565 S
C200 C1159 1.306 . S
C260 C1180 1.552 . S
C320 C1199 1.550 . S
C740 C1178 1.581 . S
C1201 C800 1.526 . S
C860 C1157 1.574 . S
C560 C1222 1.306 . S
C620 C1243 1.552 . S
C1262 C680 1.550 . S
C20 C1241 1.581 . S
C80 C1264 1.526 . S
C140 C1220 1.575 . S
