# Generated by pormake.
# Topology rtl, (3,6)-cn, num edge types: 1
# Building blocks:
#     Node 0, Type 0, BuildingBlock: VETTIZ_charged_linker_0, # of connection points: 3
#     Node 1, Type 0, BuildingBlock: VETTIZ_charged_linker_0, # of connection points: 3
#     Node 2, Type 0, BuildingBlock: VETTIZ_charged_linker_0, # of connection points: 3
#     Node 3, Type 0, BuildingBlock: VETTIZ_charged_linker_0, # of connection points: 3
#     Node 4, Type 1, BuildingBlock: LEVNOQ01_clean_sbu_1, # of connection points: 6
#     Node 5, Type 1, BuildingBlock: LEVNOQ01_clean_sbu_1, # of connection points: 6
#     Edge 6, Type (0, 1), BuildingBlock: XIVTED_clean_linker_0, # of connection points: 2
#     Edge 7, Type (0, 1), BuildingBlock: XIVTED_clean_linker_0, # of connection points: 2
#     Edge 8, Type (0, 1), BuildingBlock: XIVTED_clean_linker_0, # of connection points: 2
#     Edge 9, Type (0, 1), BuildingBlock: XIVTED_clean_linker_0, # of connection points: 2
#     Edge 10, Type (0, 1), BuildingBlock: XIVTED_clean_linker_0, # of connection points: 2
#     Edge 11, Type (0, 1), BuildingBlock: XIVTED_clean_linker_0, # of connection points: 2
#     Edge 12, Type (0, 1), BuildingBlock: XIVTED_clean_linker_0, # of connection points: 2
#     Edge 13, Type (0, 1), BuildingBlock: XIVTED_clean_linker_0, # of connection points: 2
#     Edge 14, Type (0, 1), BuildingBlock: XIVTED_clean_linker_0, # of connection points: 2
#     Edge 15, Type (0, 1), BuildingBlock: XIVTED_clean_linker_0, # of connection points: 2
#     Edge 16, Type (0, 1), BuildingBlock: XIVTED_clean_linker_0, # of connection points: 2
#     Edge 17, Type (0, 1), BuildingBlock: XIVTED_clean_linker_0, # of connection points: 2
# Relax obj value: 0.027
# Max RMSD: 0.061
# Mean RMSD: 0.048
data_MOF--net-rtl--node1-LEVNOQ01_clean_sbu_1--node2-VETTIZ_charged_linker_0--edge1-XIVTED_clean_linker_0
_symmetry_space_group_name_H-M    P1
_symmetry_Int_Tables_number       1
_symmetry_cell_setting            triclinic
loop_
_symmetry_equiv_pos_as_xyz
'x, y, z'
_cell_length_a     37.185606
_cell_length_b     42.354071
_cell_length_c     29.892939
_cell_angle_alpha  89.93226
_cell_angle_beta   97.799316
_cell_angle_gamma 89.739845
loop_
_atom_site_label
_atom_site_type_symbol
_atom_site_fract_x
_atom_site_fract_y
_atom_site_fract_z
_atom_type_partial_charge
C0 C 0.2326 0.90698 0.93236 0.0
C1 C 0.20701 0.93129 0.92216 0.0
C2 C 0.19632 0.94957 0.95746 0.0
C3 C 0.23545 0.91851 0.01242 0.0
C4 C 0.24677 0.9013 0.97754 0.0
C5 C 0.27521 0.87713 0.99425 0.0
H6 H 0.36274 0.79378 0.16911 0.0
C7 C 0.25474 0.90618 0.05545 0.0
C8 C 0.27846 0.88217 0.04495 0.0
H9 H 0.37127 0.78316 0.0273 0.0
H10 H 0.33347 0.82937 0.00989 0.0
H11 H 0.3755 0.86611 0.17134 0.0
H12 H 0.27723 0.81224 0.15896 0.0
H13 H 0.2751 0.8416 0.20028 0.0
H14 H 0.31098 0.81287 0.20804 0.0
H15 H 0.35694 0.85287 0.22031 0.0
H16 H 0.34417 0.89047 0.19397 0.0
C17 C 0.31082 0.8856 0.97542 0.0
C18 C 0.25996 0.84413 0.98005 0.0
C19 C 0.21898 0.94293 0.20603 0.0
C20 C 0.23131 0.9341 0.25106 0.0
C21 C 0.26142 0.91353 0.25956 0.0
C22 C 0.27741 0.90041 0.22417 0.0
C23 C 0.26344 0.90788 0.17947 0.0
C24 C 0.23558 0.92965 0.17086 0.0
C25 C 0.22586 0.93578 0.12093 0.0
C26 C 0.25165 0.91321 0.10132 0.0
C27 C 0.27309 0.89665 0.13595 0.0
C28 C 0.23436 0.97075 0.1115 0.0
C29 C 0.18564 0.9266 0.10724 0.0
C30 C 0.35642 0.80156 0.13438 0.0
C31 C 0.36942 0.78476 0.09946 0.0
C32 C 0.36145 0.79583 0.05472 0.0
C33 C 0.33929 0.82248 0.04467 0.0
C34 C 0.32505 0.83824 0.07976 0.0
C35 C 0.33472 0.82835 0.12385 0.0
C36 C 0.31873 0.84896 0.157 0.0
C37 C 0.29667 0.87213 0.12541 0.0
C38 C 0.29991 0.86537 0.08019 0.0
C39 C 0.35027 0.86538 0.18753 0.0
C40 C 0.2943 0.82801 0.18278 0.0
H41 H 0.20084 0.95773 0.02798 0.0
H42 H 0.24182 0.8931 0.90566 0.0
H43 H 0.23122 0.84214 0.98627 0.0
H44 H 0.27445 0.82463 -0.00075 0.0
H45 H 0.26074 0.83997 0.94351 0.0
H46 H 0.31288 0.9115 0.97001 0.0
H47 H 0.31229 0.87384 0.94253 0.0
H48 H 0.33534 0.87951 -0.00084 0.0
H49 H 0.19616 0.95889 0.19818 0.0
H50 H 0.27241 0.90712 0.29379 0.0
H51 H 0.29959 0.88439 0.23306 0.0
H52 H 0.2572 0.97961 0.13613 0.0
H53 H 0.21048 0.98617 0.11397 0.0
H54 H 0.2435 0.97414 0.07813 0.0
H55 H 0.1798 0.90363 0.1228 0.0
H56 H 0.17829 0.92338 0.07058 0.0
H57 H 0.16721 0.94466 0.11881 0.0
H58 H 0.17679 0.96856 0.95009 0.0
C59 C 0.21028 0.94323 0.00254 0.0
C60 C 0.72802 0.60281 0.72976 0.0
C61 C 0.70241 0.57852 0.7305 0.0
C62 C 0.68813 0.56411 0.68938 0.0
C63 C 0.72285 0.59947 0.64808 0.0
C64 C 0.73763 0.61295 0.68845 0.0
C65 C 0.76262 0.63985 0.68178 0.0
H66 H 0.83404 0.73765 0.53882 0.0
C67 C 0.73728 0.61647 0.61117 0.0
C68 C 0.76094 0.63992 0.63082 0.0
H69 H 0.84437 0.7434 0.68432 0.0
H70 H 0.81184 0.69417 0.6868 0.0
H71 H 0.8462 0.65871 0.53455 0.0
H72 H 0.75613 0.72336 0.52294 0.0
H73 H 0.7423 0.69252 0.4858 0.0
H74 H 0.78104 0.71591 0.47669 0.0
H75 H 0.83424 0.68421 0.48682 0.0
H76 H 0.81435 0.64556 0.48961 0.0
C77 C 0.80105 0.63137 0.70557 0.0
C78 C 0.74625 0.67046 0.69935 0.0
C79 C 0.68933 0.59249 0.44725 0.0
C80 C 0.69701 0.60532 0.40612 0.0
C81 C 0.72517 0.62752 0.40675 0.0
C82 C 0.74441 0.63769 0.44764 0.0
C83 C 0.73531 0.62575 0.4885 0.0
C84 C 0.70882 0.60295 0.48788 0.0
C85 C 0.70351 0.59247 0.5347 0.0
C86 C 0.73042 0.61352 0.56343 0.0
C87 C 0.74852 0.63321 0.53609 0.0
C88 C 0.714 0.55708 0.53996 0.0
C89 C 0.66381 0.59997 0.54151 0.0
C90 C 0.82947 0.72821 0.57127 0.0
C91 C 0.84121 0.74462 0.61138 0.0
C92 C 0.83545 0.73122 0.65296 0.0
C93 C 0.81632 0.70279 0.65424 0.0
C94 C 0.80279 0.68768 0.61351 0.0
C95 C 0.81024 0.7001 0.57304 0.0
C96 C 0.79274 0.68177 0.53297 0.0
C97 C 0.77244 0.65687 0.55591 0.0
C98 C 0.77866 0.66022 0.60303 0.0
C99 C 0.82326 0.66686 0.50929 0.0
C100 C 0.76685 0.70435 0.50266 0.0
H101 H 0.68598 0.56285 0.61815 0.0
H102 H 0.73987 0.61423 0.76064 0.0
H103 H 0.71605 0.66966 0.69434 0.0
H104 H 0.75284 0.69182 0.68096 0.0
H105 H 0.75528 0.67378 0.73599 0.0
H106 H 0.80712 0.60592 0.70098 0.0
H107 H 0.80342 0.63599 0.74242 0.0
H108 H 0.82276 0.6442 0.69152 0.0
H109 H 0.6684 0.57485 0.44784 0.0
H110 H 0.73158 0.63783 0.37562 0.0
H111 H 0.76501 0.65511 0.44588 0.0
H112 H 0.7355 0.55079 0.51897 0.0
H113 H 0.69027 0.54171 0.52928 0.0
H114 H 0.72577 0.55086 0.57483 0.0
H115 H 0.65551 0.62364 0.52743 0.0
H116 H 0.65971 0.60097 0.57731 0.0
H117 H 0.64484 0.58232 0.52406 0.0
H118 H 0.66799 0.54566 0.68871 0.0
C119 C 0.69831 0.57435 0.64829 0.0
C120 C 0.7912 0.11454 0.15153 0.0
C121 C 0.81545 0.08898 0.16026 0.0
C122 C 0.82525 0.07145 0.12366 0.0
C123 C 0.78752 0.1049 0.07083 0.0
C124 C 0.77736 0.1219 0.10661 0.0
C125 C 0.75069 0.14779 0.09086 0.0
H126 H 0.66448 0.23468 0.91748 0.0
C127 C 0.76918 0.11881 0.02846 0.0
C128 C 0.74727 0.14385 0.03985 0.0
H129 H 0.65776 0.24519 0.05966 0.0
H130 H 0.69607 0.19905 0.07648 0.0
H131 H 0.74886 0.2174 0.92668 0.0
H132 H 0.65294 0.1602 0.91634 0.0
H133 H 0.68341 0.14007 0.88641 0.0
H134 H 0.66733 0.17889 0.86794 0.0
H135 H 0.71759 0.21384 0.87565 0.0
H136 H 0.75474 0.18654 0.88918 0.0
C137 C 0.76813 0.17971 0.10655 0.0
C138 C 0.71448 0.14085 0.10916 0.0
C139 C 0.80215 0.08068 0.87781 0.0
C140 C 0.79278 0.09176 0.83339 0.0
C141 C 0.7657 0.11517 0.82461 0.0
C142 C 0.74945 0.12848 0.85978 0.0
C143 C 0.76072 0.11863 0.9044 0.0
C144 C 0.78598 0.09456 0.91275 0.0
C145 C 0.79518 0.08774 0.96243 0.0
C146 C 0.77169 0.11201 0.98243 0.0
C147 C 0.75182 0.13012 0.94825 0.0
C148 C 0.83626 0.09408 0.97605 0.0
C149 C 0.7833 0.0535 0.97116 0.0
C150 C 0.67139 0.2269 0.95213 0.0
C151 C 0.65872 0.24343 0.98744 0.0
C152 C 0.66759 0.23263 0.03214 0.0
C153 C 0.68983 0.20598 0.04175 0.0
C154 C 0.70312 0.18996 0.00619 0.0
C155 C 0.69315 0.20008 0.96221 0.0
C156 C 0.70859 0.1795 0.9286 0.0
C157 C 0.72993 0.15563 0.9596 0.0
C158 C 0.72715 0.16214 0.00508 0.0
C159 C 0.73362 0.20019 0.90328 0.0
C160 C 0.67662 0.16392 0.89785 0.0
H161 H 0.82013 0.06498 0.053 0.0
H162 H 0.78284 0.12818 0.17899 0.0
H163 H 0.7103 0.11501 0.1126 0.0
H164 H 0.69051 0.14907 0.08605 0.0
H165 H 0.71403 0.15163 0.14293 0.0
H166 H 0.79699 0.18039 0.10048 0.0
H167 H 0.76754 0.18331 0.14325 0.0
H168 H 0.75499 0.20016 0.08814 0.0
H169 H 0.82318 0.06296 0.88559 0.0
H170 H 0.75789 0.12385 0.79055 0.0
H171 H 0.72963 0.14669 0.85096 0.0
H172 H 0.84496 0.11499 0.95774 0.0
H173 H 0.85286 0.07358 0.96774 0.0
H174 H 0.8435 0.09981 0.01211 0.0
H175 H 0.75895 0.0468 0.94724 0.0
H176 H 0.77494 0.05041 0.005 0.0
H177 H 0.80519 0.03629 0.96687 0.0
H178 H 0.84417 0.05187 0.12944 0.0
C179 C 0.8114 0.07919 0.07919 0.0
C180 C 0.25286 0.42775 0.33958 0.0
C181 C 0.28059 0.45013 0.33879 0.0
C182 C 0.29598 0.46395 0.37991 0.0
C183 C 0.2586 0.43094 0.42131 0.0
C184 C 0.24269 0.41831 0.38085 0.0
C185 C 0.21617 0.39261 0.38719 0.0
H186 H 0.1351 0.30002 0.52741 0.0
C187 C 0.24324 0.41452 0.45813 0.0
C188 C 0.21813 0.39225 0.43811 0.0
H189 H 0.12479 0.29547 0.38183 0.0
H190 H 0.16429 0.34065 0.38085 0.0
H191 H 0.2201 0.31022 0.54094 0.0
H192 H 0.12999 0.37446 0.53664 0.0
H193 H 0.16427 0.39011 0.57651 0.0
H194 H 0.14574 0.3517 0.58612 0.0
H195 H 0.19193 0.31297 0.58502 0.0
H196 H 0.2312 0.33756 0.58457 0.0
C197 C 0.23056 0.36135 0.36896 0.0
C198 C 0.17822 0.40299 0.36384 0.0
C199 C 0.29193 0.43552 0.62312 0.0
C200 C 0.28275 0.42307 0.66378 0.0
C201 C 0.25312 0.40233 0.66225 0.0
C202 C 0.23377 0.39316 0.62099 0.0
C203 C 0.24416 0.40467 0.5806 0.0
C204 C 0.27207 0.42622 0.58199 0.0
C205 C 0.27809 0.43678 0.53539 0.0
C206 C 0.25024 0.41691 0.50599 0.0
C207 C 0.23083 0.39795 0.53286 0.0
C208 C 0.31748 0.4281 0.52863 0.0
C209 C 0.26922 0.47248 0.53086 0.0
C210 C 0.14084 0.30911 0.49524 0.0
C211 C 0.12659 0.29441 0.45458 0.0
C212 C 0.13552 0.30641 0.41355 0.0
C213 C 0.15843 0.33263 0.41313 0.0
C214 C 0.17305 0.34667 0.45424 0.0
C215 C 0.16405 0.33488 0.49432 0.0
C216 C 0.1834 0.35158 0.53488 0.0
C217 C 0.20548 0.37552 0.51256 0.0
C218 C 0.19926 0.3726 0.46543 0.0
C219 C 0.20784 0.32701 0.56325 0.0
C220 C 0.15457 0.36769 0.56027 0.0
H221 H 0.29823 0.46548 0.45128 0.0
H222 H 0.23993 0.41696 0.30874 0.0
H223 H 0.1738 0.42867 0.36886 0.0
H224 H 0.1558 0.39119 0.37787 0.0
H225 H 0.17537 0.39858 0.3269 0.0
H226 H 0.26075 0.36096 0.37294 0.0
H227 H 0.22059 0.35825 0.3325 0.0
H228 H 0.22336 0.34032 0.38768 0.0
H229 H 0.31411 0.45204 0.62335 0.0
H230 H 0.24552 0.39243 0.69304 0.0
H231 H 0.2119 0.37692 0.62217 0.0
H232 H 0.32496 0.40434 0.54297 0.0
H233 H 0.33707 0.44537 0.54583 0.0
H234 H 0.32145 0.42665 0.49282 0.0
H235 H 0.24608 0.47874 0.54921 0.0
H236 H 0.26046 0.47982 0.49559 0.0
H237 H 0.29285 0.48694 0.54518 0.0
H238 H 0.3176 0.48105 0.38056 0.0
C239 C 0.28499 0.4546 0.42109 0.0
O240 O 0.00482 0.04461 0.6436 0.0
Mg241 Mg 0.04325 0.04769 0.59779 0.0
O242 O 0.96725 0.02395 0.58885 0.0
Mg243 Mg 0.011 0.01117 0.54273 0.0
O244 O 0.02995 0.06525 0.53415 0.0
O245 O 0.05168 0.09403 0.59509 0.0
O246 O 0.05803 0.00213 0.49571 0.0
O247 O 0.96904 0.02666 0.48137 0.0
Mg248 Mg 0.00823 0.96368 0.49392 0.0
O249 O 0.98322 0.96036 0.5501 0.0
O250 O 0.06294 0.95102 0.49955 0.0
O251 O 0.98256 0.98864 0.43676 0.0
O252 O 0.97935 0.92406 0.49459 0.0
C253 C 0.08467 -0.0008 0.62179 0.0
C254 C 0.97322 0.03557 0.62835 0.0
C255 C 0.04079 0.0921 0.55248 0.0
C256 C 0.07597 0.97706 0.4898 0.0
C257 C 0.96537 0.01382 0.44255 0.0
C258 C 0.97134 0.93349 0.53294 0.0
O259 O 0.09411 0.02675 0.61321 0.0
O260 O 0.05294 0.99023 0.60494 0.0
O261 O 0.54656 0.49009 0.1458 0.0
Mg262 Mg 0.5144 0.45739 0.10576 0.0
O263 O 0.53162 0.52906 0.09715 0.0
Mg264 Mg 0.4938 0.50885 0.0349 0.0
O265 O 0.52035 0.45877 0.03886 0.0
O266 O 0.53864 0.41827 0.08511 0.0
O267 O 0.45536 0.48835 0.97248 0.0
O268 O 0.53924 0.5216 0.99046 0.0
Mg269 Mg 0.46582 0.56098 0.96261 0.0
O270 O 0.46907 0.559 0.03086 0.0
O271 O 0.4289 0.528 0.93175 0.0
O272 O 0.51887 0.56157 0.94559 0.0
O273 O 0.44626 0.60045 0.99008 0.0
C274 C 0.43839 0.47491 0.104 0.0
C275 C 0.54844 0.51873 0.13434 0.0
C276 C 0.53488 0.43085 0.0454 0.0
C277 C 0.43237 0.49879 0.94012 0.0
C278 C 0.54385 0.54235 0.96069 0.0
C279 C 0.45519 0.58719 0.02889 0.0
O280 O 0.46038 0.45269 0.11607 0.0
O281 O 0.44706 0.49731 0.07889 0.0
H282 H 0.13239 0.23834 0.41016 0.0
H283 H 0.01928 0.14957 0.57638 0.0
H284 H 0.07021 0.28509 0.50256 0.0
H285 H 0.06373 0.10097 0.46959 0.0
H286 H 0.03101 0.19985 0.54209 0.0
H287 H 0.10171 0.18869 0.42323 0.0
C288 C 0.11168 0.23829 0.43239 0.0
C289 C 0.10417 0.2657 0.45588 0.0
C290 C 0.03768 0.17833 0.52543 0.0
C291 C 0.06934 0.20914 0.47127 0.0
C292 C 0.03091 0.1496 0.54503 0.0
C293 C 0.04084 0.12127 0.52585 0.0
C294 C 0.05538 0.17886 0.48685 0.0
C295 C 0.0557 0.12245 0.48525 0.0
C296 C 0.09428 0.20994 0.43994 0.0
C297 C 0.07732 0.26433 0.48448 0.0
N298 N 0.06328 0.15093 0.46746 0.0
N299 N 0.06123 0.23647 0.49176 0.0
H300 H 0.3476 0.73369 0.14403 0.0
H301 H 0.50555 0.62677 0.0696 0.0
H302 H 0.43504 0.76712 0.07573 0.0
H303 H 0.39688 0.59349 0.07387 0.0
H304 H 0.49026 0.67584 0.10609 0.0
H305 H 0.37562 0.68094 0.14931 0.0
C306 C 0.37317 0.73005 0.13117 0.0
C307 C 0.38893 0.75451 0.10894 0.0
C308 C 0.47022 0.65725 0.10079 0.0
C309 C 0.42115 0.69476 0.11546 0.0
C310 C 0.4791 0.6291 0.08068 0.0
C311 C 0.45237 0.60627 0.06895 0.0
C312 C 0.4344 0.66238 0.10901 0.0
C313 C 0.41821 0.61059 0.08278 0.0
C314 C 0.38905 0.70005 0.13419 0.0
C315 C 0.42189 0.74868 0.0926 0.0
N316 N 0.40987 0.63852 0.10134 0.0
N317 N 0.43682 0.7193 0.09591 0.0
H318 H 0.9014 0.76969 0.66304 0.0
H319 H 0.90412 0.91638 0.49802 0.0
H320 H 0.81634 0.79242 0.55465 0.0
H321 H 0.98355 0.90463 0.61592 0.0
H322 H 0.86799 0.87442 0.52489 0.0
H323 H 0.92896 0.82143 0.65288 0.0
C324 C 0.88835 0.7857 0.63749 0.0
C325 C 0.85702 0.77654 0.60896 0.0
C326 C 0.89293 0.88123 0.54556 0.0
C327 C 0.88814 0.83547 0.59727 0.0
C328 C 0.91341 0.90531 0.53027 0.0
C329 C 0.9466 0.9138 0.55497 0.0
C330 C 0.90623 0.86486 0.58532 0.0
C331 C 0.95784 0.89872 0.59626 0.0
C332 C 0.90405 0.81517 0.63171 0.0
C333 C 0.84108 0.79816 0.57654 0.0
N334 N 0.93794 0.87444 0.60988 0.0
N335 N 0.85697 0.8264 0.57135 0.0
H336 H 0.58628 0.25056 0.98863 0.0
H337 H 0.60001 0.43352 0.01428 0.0
H338 H 0.68206 0.30146 0.96559 0.0
H339 H 0.49846 0.38376 -0.00074 0.0
H340 H 0.62855 0.388 0.98258 0.0
H341 H 0.5516 0.30002 0.98125 0.0
C342 C 0.59975 0.27224 0.98143 0.0
C343 C 0.63688 0.27231 0.97808 0.0
C344 C 0.5997 0.38742 0.98453 0.0
C345 C 0.59791 0.32893 0.97028 0.0
C346 C 0.58335 0.41359 0.00203 0.0
C347 C 0.54692 0.41222 0.00902 0.0
C348 C 0.57949 0.35963 0.97519 0.0
C349 C 0.52662 0.38563 0.99397 0.0
C350 C 0.58005 0.30043 0.97698 0.0
C351 C 0.65337 0.30076 0.96858 0.0
N352 N 0.54335 0.36004 0.97872 0.0
N353 N 0.63391 0.32812 0.9658 0.0
H354 H 0.19975 0.99206 0.26499 0.0
H355 H 0.12862 0.93246 0.49155 0.0
H356 H 0.21793 0.8992 0.32377 0.0
H357 H 0.0926 0.02026 0.4268 0.0
H358 H 0.17059 0.92518 0.43668 0.0
H359 H 0.1672 0.0069 0.32821 0.0
C360 C 0.19703 0.97483 0.2911 0.0
C361 C 0.21195 0.94438 0.28909 0.0
C362 C 0.15388 0.94627 0.43459 0.0
C363 C 0.17529 0.96136 0.36164 0.0
C364 C 0.13006 0.95054 0.46617 0.0
C365 C 0.10684 0.97683 0.46344 0.0
C366 C 0.15436 0.96827 0.39948 0.0
C367 C 0.11005 -0.00037 0.43004 0.0
C368 C 0.17867 0.9834 0.32729 0.0
C369 C 0.20776 0.92316 0.32415 0.0
N370 N 0.13299 0.99459 0.39881 0.0
N371 N 0.18989 0.93205 0.35872 0.0
H372 H 0.6842 0.51979 0.76049 0.0
H373 H 0.58319 0.59481 0.95277 0.0
H374 H 0.68801 0.61828 0.79797 0.0
H375 H 0.58111 0.49515 0.92392 0.0
H376 H 0.63098 0.60152 0.90539 0.0
H377 H 0.65449 0.50819 0.82694 0.0
C378 C 0.6791 0.53893 0.78282 0.0
C379 C 0.68837 0.57013 0.77326 0.0
C380 C 0.62067 0.57802 0.90985 0.0
C381 C 0.65471 0.55694 0.84952 0.0
C382 C 0.59352 0.57421 0.93711 0.0
C383 C 0.57824 0.54446 0.94184 0.0
C384 C 0.63194 0.55201 0.88605 0.0
C385 C 0.59242 0.51846 0.92101 0.0
C386 C 0.66239 0.53223 0.82093 0.0
C387 C 0.68173 0.59384 0.80393 0.0
N388 N 0.61805 0.52293 0.89311 0.0
N389 N 0.66503 0.58679 0.84027 0.0
H390 H 0.84552 0.12755 0.22947 0.0
H391 H 0.93079 0.9804 0.37288 0.0
H392 H 0.82087 0.03014 0.19713 0.0
H393 H 0.94054 0.07505 0.42621 0.0
H394 H 0.88952 -0.00039 0.30886 0.0
H395 H 0.87841 0.11059 0.30267 0.0
C396 C 0.84653 0.10269 0.23809 0.0
C397 C 0.83099 0.08013 0.20695 0.0
C398 C 0.90044 0.01634 0.33446 0.0
C399 C 0.86864 0.06066 0.28994 0.0
C400 C 0.92428 0.00536 0.37101 0.0
C401 C 0.93942 0.02621 0.40469 0.0
C402 C 0.89188 0.04863 0.33081 0.0
C403 C 0.92946 0.05824 0.40082 0.0
C404 C 0.8654 0.09304 0.2797 0.0
C405 C 0.83313 0.04826 0.21968 0.0
N406 N 0.90656 0.06861 0.36412 0.0
N407 N 0.85186 0.03951 0.25989 0.0
H408 H 0.25778 0.43898 0.74271 0.0
H409 H 0.4559 0.4552 0.88369 0.0
H410 H 0.35673 0.42398 0.68507 0.0
H411 H 0.35926 0.49619 0.92449 0.0
H412 H 0.41874 0.43197 0.81762 0.0
H413 H 0.29377 0.44978 0.8157 0.0
C414 C 0.28711 0.43787 0.74549 0.0
C415 C 0.30433 0.43077 0.70776 0.0
C416 C 0.40561 0.44544 0.84164 0.0
C417 C 0.34566 0.44287 0.7912 0.0
C418 C 0.42668 0.45825 0.87954 0.0
C419 C 0.41035 0.47732 0.90938 0.0
C420 C 0.3681 0.45172 0.83407 0.0
C421 C 0.37263 0.4814 0.90218 0.0
C422 C 0.30761 0.44403 0.78712 0.0
C423 C 0.34242 0.42983 0.71319 0.0
N424 N 0.35276 0.46887 0.86508 0.0
N425 N 0.36185 0.43581 0.75418 0.0
H426 H 0.72031 0.59298 0.32455 0.0
H427 H 0.52245 0.54642 0.20442 0.0
H428 H 0.6234 0.59811 0.38902 0.0
H429 H 0.61879 0.53762 0.14003 0.0
H430 H 0.55811 0.57235 0.26874 0.0
H431 H 0.68308 0.57858 0.25373 0.0
C432 C 0.69118 0.59124 0.32374 0.0
C433 C 0.67497 0.59647 0.36287 0.0
C434 C 0.57145 0.56532 0.24028 0.0
C435 C 0.63223 0.57999 0.28201 0.0
C436 C 0.55103 0.55082 0.20351 0.0
C437 C 0.56787 0.54035 0.16712 0.0
C438 C 0.60906 0.56888 0.24079 0.0
C439 C 0.60498 0.54581 0.16752 0.0
C440 C 0.66996 0.58299 0.28333 0.0
C441 C 0.63713 0.59368 0.35993 0.0
N442 N 0.62452 0.5595 0.2041 0.0
N443 N 0.61709 0.58555 0.32028 0.0
H444 H 0.82415 0.13013 0.77742 0.0
H445 H 0.91185 0.0002 0.63435 0.0
H446 H 0.81116 0.03173 0.80871 0.0
H447 H 0.96704 0.08544 0.6828 0.0
H448 H 0.86373 0.01236 0.68145 0.0
H449 H 0.86491 0.1151 0.72343 0.0
C450 C 0.82936 0.1053 0.77226 0.0
C451 C 0.81432 0.08211 0.79749 0.0
C452 C 0.88646 0.02826 0.68146 0.0
C453 C 0.86089 0.06484 0.73586 0.0
C454 C 0.91368 0.02145 0.65465 0.0
C455 C 0.94343 0.04179 0.65507 0.0
C456 C 0.88873 0.05603 0.70731 0.0
C457 C 0.94474 0.069 0.68189 0.0
C458 C 0.85277 0.09679 0.74174 0.0
C459 C 0.82244 0.05027 0.78998 0.0
N460 N 0.91765 0.07545 0.70658 0.0
N461 N 0.84527 0.04247 0.75967 0.0
H462 H 0.29037 0.4082 0.272 0.0
H463 H 0.40508 0.52556 0.1386 0.0
H464 H 0.30565 0.50647 0.3078 0.0
H465 H 0.39546 0.42525 0.11629 0.0
H466 H 0.35845 0.52233 0.18954 0.0
H467 H 0.31847 0.41738 0.20474 0.0
C468 C 0.29901 0.43193 0.26541 0.0
C469 C 0.29553 0.45659 0.29592 0.0
C470 C 0.366 0.50118 0.17266 0.0
C471 C 0.32912 0.46708 0.21883 0.0
C472 C 0.39227 0.50309 0.14328 0.0
C473 C 0.40421 0.47555 0.12371 0.0
C474 C 0.35168 0.47157 0.18199 0.0
C475 C 0.38718 0.44696 0.13114 0.0
C476 C 0.31542 0.43711 0.22695 0.0
C477 C 0.30825 0.48662 0.28569 0.0
N478 N 0.3621 0.44567 0.16001 0.0
N479 N 0.32481 0.49098 0.2482 0.0
H480 H 0.2096 0.9868 0.87725 0.0
H481 H 0.06688 0.94595 0.66756 0.0
H482 H 0.17041 0.89139 0.86005 0.0
H483 H 0.15322 0.01287 0.66056 0.0
H484 H 0.09994 0.92555 0.73877 0.0
H485 H 0.18344 -0.00142 0.79936 0.0
C486 C 0.19547 0.96837 0.85689 0.0
C487 C 0.19204 0.93816 0.87479 0.0
C488 C 0.11179 0.94431 0.721 0.0
C489 C 0.16178 0.95141 0.78609 0.0
C490 C 0.09306 0.95586 0.68035 0.0
C491 C 0.10701 0.9815 0.65841 0.0
C492 C 0.1442 0.9589 0.73984 0.0
C493 C 0.14107 0.99344 0.67659 0.0
C494 C 0.18077 0.97498 0.81248 0.0
C495 C 0.17362 0.91496 0.84713 0.0
N496 N 0.1581 0.98247 0.71659 0.0
N497 N 0.15869 0.92216 0.80416 0.0
loop_
_geom_bond_atom_site_label_1
_geom_bond_atom_site_label_2
_geom_bond_distance
_geom_bond_site_symmetry_2
_ccdc_geom_bond_type
C0 C1 1.391 . S
C0 C4 1.391 . S
C0 H42 0.948 . S
C1 C0 1.391 . S
C1 C2 1.391 . S
C2 C1 1.391 . S
C2 H58 0.947 . S
C2 C59 1.392 1_556 S
C3 C4 1.391 1_554 S
C3 C7 1.397 . S
C3 C59 1.419 . S
C4 C0 1.391 . S
C4 C3 1.391 1_556 S
C4 C5 1.399 . S
C5 C4 1.399 . S
C5 C8 1.396 1_556 S
C5 C17 1.453 . S
C5 C18 1.684 . S
H6 C30 0.948 . S
C7 C3 1.397 . S
C7 C8 1.394 . S
C7 C26 1.723 . S
C8 C5 1.396 1_554 S
C8 C7 1.394 . S
C8 C38 1.723 . S
H9 C32 0.947 . S
H10 C33 0.948 . S
H11 C39 0.982 . S
H12 C40 0.979 . S
H13 C40 0.980 . S
H14 C40 0.983 . S
H15 C39 0.979 . S
H16 C39 0.977 . S
C17 C5 1.453 . S
C17 H46 0.982 . S
C17 H47 0.979 . S
C17 H48 0.977 . S
C18 C5 1.684 . S
C18 H43 0.979 . S
C18 H44 0.980 . S
C18 H45 0.983 . S
C19 C20 1.391 . S
C19 C24 1.391 . S
C19 H49 0.948 . S
C20 C19 1.391 . S
C20 C21 1.391 . S
C21 C20 1.391 . S
C21 C22 1.392 . S
C21 H50 0.947 . S
C22 C21 1.392 . S
C22 C23 1.419 . S
C22 H51 0.948 . S
C23 C22 1.419 . S
C23 C24 1.391 . S
C23 C27 1.397 . S
C24 C19 1.391 . S
C24 C23 1.391 . S
C24 C25 1.399 . S
C25 C24 1.399 . S
C25 C26 1.396 . S
C25 C28 1.453 . S
C25 C29 1.684 . S
C26 C7 1.723 . S
C26 C25 1.396 . S
C26 C27 1.394 . S
C27 C23 1.397 . S
C27 C26 1.394 . S
C27 C37 1.723 . S
C28 C25 1.453 . S
C28 H52 0.982 . S
C28 H53 0.979 . S
C28 H54 0.977 . S
C29 C25 1.684 . S
C29 H55 0.979 . S
C29 H56 0.980 . S
C29 H57 0.983 . S
C30 H6 0.948 . S
C30 C31 1.391 . S
C30 C35 1.391 . S
C31 C30 1.391 . S
C31 C32 1.391 . S
C32 H9 0.947 . S
C32 C31 1.391 . S
C32 C33 1.392 . S
C33 H10 0.948 . S
C33 C32 1.392 . S
C33 C34 1.419 . S
C34 C33 1.419 . S
C34 C35 1.391 . S
C34 C38 1.397 . S
C35 C30 1.391 . S
C35 C34 1.391 . S
C35 C36 1.399 . S
C36 C35 1.399 . S
C36 C37 1.396 . S
C36 C39 1.453 . S
C36 C40 1.684 . S
C37 C27 1.723 . S
C37 C36 1.396 . S
C37 C38 1.394 . S
C38 C8 1.723 . S
C38 C34 1.397 . S
C38 C37 1.394 . S
C39 H11 0.982 . S
C39 H15 0.979 . S
C39 H16 0.977 . S
C39 C36 1.453 . S
C40 H12 0.979 . S
C40 H13 0.980 . S
C40 H14 0.983 . S
C40 C36 1.684 . S
H41 C59 0.948 . S
H42 C0 0.948 . S
H43 C18 0.979 . S
H44 C18 0.980 . S
H45 C18 0.983 . S
H46 C17 0.982 . S
H47 C17 0.979 . S
H48 C17 0.977 . S
H49 C19 0.948 . S
H50 C21 0.947 . S
H51 C22 0.948 . S
H52 C28 0.982 . S
H53 C28 0.979 . S
H54 C28 0.977 . S
H55 C29 0.979 . S
H56 C29 0.980 . S
H57 C29 0.983 . S
H58 C2 0.947 . S
C59 C2 1.392 1_554 S
C59 C3 1.419 . S
C59 H41 0.948 . S
C60 C61 1.391 . S
C60 C64 1.391 . S
C60 H102 0.948 . S
C61 C60 1.391 . S
C61 C62 1.391 . S
C62 C61 1.391 . S
C62 H118 0.947 . S
C62 C119 1.392 . S
C63 C64 1.391 . S
C63 C67 1.397 . S
C63 C119 1.419 . S
C64 C60 1.391 . S
C64 C63 1.391 . S
C64 C65 1.399 . S
C65 C64 1.399 . S
C65 C68 1.396 . S
C65 C77 1.453 . S
C65 C78 1.684 . S
H66 C90 0.948 . S
C67 C63 1.397 . S
C67 C68 1.394 . S
C67 C86 1.723 . S
C68 C65 1.396 . S
C68 C67 1.394 . S
C68 C98 1.723 . S
H69 C92 0.947 . S
H70 C93 0.948 . S
H71 C99 0.982 . S
H72 C100 0.979 . S
H73 C100 0.980 . S
H74 C100 0.983 . S
H75 C99 0.979 . S
H76 C99 0.977 . S
C77 C65 1.453 . S
C77 H106 0.982 . S
C77 H107 0.979 . S
C77 H108 0.977 . S
C78 C65 1.684 . S
C78 H103 0.979 . S
C78 H104 0.980 . S
C78 H105 0.983 . S
C79 C80 1.391 . S
C79 C84 1.391 . S
C79 H109 0.948 . S
C80 C79 1.391 . S
C80 C81 1.391 . S
C81 C80 1.391 . S
C81 C82 1.392 . S
C81 H110 0.947 . S
C82 C81 1.392 . S
C82 C83 1.419 . S
C82 H111 0.948 . S
C83 C82 1.419 . S
C83 C84 1.391 . S
C83 C87 1.397 . S
C84 C79 1.391 . S
C84 C83 1.391 . S
C84 C85 1.399 . S
C85 C84 1.399 . S
C85 C86 1.396 . S
C85 C88 1.453 . S
C85 C89 1.684 . S
C86 C67 1.723 . S
C86 C85 1.396 . S
C86 C87 1.394 . S
C87 C83 1.397 . S
C87 C86 1.394 . S
C87 C97 1.723 . S
C88 C85 1.453 . S
C88 H112 0.982 . S
C88 H113 0.979 . S
C88 H114 0.977 . S
C89 C85 1.684 . S
C89 H115 0.979 . S
C89 H116 0.980 . S
C89 H117 0.983 . S
C90 H66 0.948 . S
C90 C91 1.391 . S
C90 C95 1.391 . S
C91 C90 1.391 . S
C91 C92 1.391 . S
C92 H69 0.947 . S
C92 C91 1.391 . S
C92 C93 1.392 . S
C93 H70 0.948 . S
C93 C92 1.392 . S
C93 C94 1.419 . S
C94 C93 1.419 . S
C94 C95 1.391 . S
C94 C98 1.397 . S
C95 C90 1.391 . S
C95 C94 1.391 . S
C95 C96 1.399 . S
C96 C95 1.399 . S
C96 C97 1.396 . S
C96 C99 1.453 . S
C96 C100 1.684 . S
C97 C87 1.723 . S
C97 C96 1.396 . S
C97 C98 1.394 . S
C98 C68 1.723 . S
C98 C94 1.397 . S
C98 C97 1.394 . S
C99 H71 0.982 . S
C99 H75 0.979 . S
C99 H76 0.977 . S
C99 C96 1.453 . S
C100 H72 0.979 . S
C100 H73 0.980 . S
C100 H74 0.983 . S
C100 C96 1.684 . S
H101 C119 0.948 . S
H102 C60 0.948 . S
H103 C78 0.979 . S
H104 C78 0.980 . S
H105 C78 0.983 . S
H106 C77 0.982 . S
H107 C77 0.979 . S
H108 C77 0.977 . S
H109 C79 0.948 . S
H110 C81 0.947 . S
H111 C82 0.948 . S
H112 C88 0.982 . S
H113 C88 0.979 . S
H114 C88 0.977 . S
H115 C89 0.979 . S
H116 C89 0.980 . S
H117 C89 0.983 . S
H118 C62 0.947 . S
C119 C62 1.392 . S
C119 C63 1.419 . S
C119 H101 0.948 . S
C120 C121 1.391 . S
C120 C124 1.391 . S
C120 H162 0.948 . S
C121 C120 1.391 . S
C121 C122 1.391 . S
C122 C121 1.391 . S
C122 H178 0.947 . S
C122 C179 1.392 . S
C123 C124 1.391 . S
C123 C127 1.397 . S
C123 C179 1.419 . S
C124 C120 1.391 . S
C124 C123 1.391 . S
C124 C125 1.399 . S
C125 C124 1.399 . S
C125 C128 1.396 . S
C125 C137 1.453 . S
C125 C138 1.684 . S
H126 C150 0.948 . S
C127 C123 1.397 . S
C127 C128 1.394 . S
C127 C146 1.723 1_554 S
C128 C125 1.396 . S
C128 C127 1.394 . S
C128 C158 1.723 . S
H129 C152 0.947 . S
H130 C153 0.948 . S
H131 C159 0.982 . S
H132 C160 0.979 . S
H133 C160 0.980 . S
H134 C160 0.983 . S
H135 C159 0.979 . S
H136 C159 0.977 . S
C137 C125 1.453 . S
C137 H166 0.982 . S
C137 H167 0.979 . S
C137 H168 0.977 . S
C138 C125 1.684 . S
C138 H163 0.979 . S
C138 H164 0.980 . S
C138 H165 0.983 . S
C139 C140 1.391 . S
C139 C144 1.391 . S
C139 H169 0.948 . S
C140 C139 1.391 . S
C140 C141 1.391 . S
C141 C140 1.391 . S
C141 C142 1.392 . S
C141 H170 0.947 . S
C142 C141 1.392 . S
C142 C143 1.419 . S
C142 H171 0.948 . S
C143 C142 1.419 . S
C143 C144 1.391 . S
C143 C147 1.397 . S
C144 C139 1.391 . S
C144 C143 1.391 . S
C144 C145 1.399 . S
C145 C144 1.399 . S
C145 C146 1.396 . S
C145 C148 1.453 . S
C145 C149 1.684 . S
C146 C127 1.723 1_556 S
C146 C145 1.396 . S
C146 C147 1.394 . S
C147 C143 1.397 . S
C147 C146 1.394 . S
C147 C157 1.723 . S
C148 C145 1.453 . S
C148 H172 0.982 . S
C148 H173 0.979 . S
C148 H174 0.977 1_556 S
C149 C145 1.684 . S
C149 H175 0.979 . S
C149 H176 0.980 1_556 S
C149 H177 0.983 . S
C150 H126 0.948 . S
C150 C151 1.380 1_556 S
C150 C155 1.391 . S
C151 C150 1.380 1_554 S
C151 C152 1.402 . S
C152 H129 0.947 . S
C152 C151 1.402 . S
C152 C153 1.392 . S
C153 H130 0.948 . S
C153 C152 1.392 . S
C153 C154 1.419 . S
C154 C153 1.419 . S
C154 C155 1.391 1_554 S
C154 C158 1.397 . S
C155 C150 1.391 . S
C155 C154 1.391 1_556 S
C155 C156 1.399 . S
C156 C155 1.399 . S
C156 C157 1.396 . S
C156 C159 1.453 . S
C156 C160 1.684 . S
C157 C147 1.723 . S
C157 C156 1.396 . S
C157 C158 1.394 1_556 S
C158 C128 1.723 . S
C158 C154 1.397 . S
C158 C157 1.394 1_554 S
C159 H131 0.982 . S
C159 H135 0.979 . S
C159 H136 0.977 . S
C159 C156 1.453 . S
C160 H132 0.979 . S
C160 H133 0.980 . S
C160 H134 0.983 . S
C160 C156 1.684 . S
H161 C179 0.948 . S
H162 C120 0.948 . S
H163 C138 0.979 . S
H164 C138 0.980 . S
H165 C138 0.983 . S
H166 C137 0.982 . S
H167 C137 0.979 . S
H168 C137 0.977 . S
H169 C139 0.948 . S
H170 C141 0.947 . S
H171 C142 0.948 . S
H172 C148 0.982 . S
H173 C148 0.979 . S
H174 C148 0.977 1_554 S
H175 C149 0.979 . S
H176 C149 0.980 1_554 S
H177 C149 0.983 . S
H178 C122 0.947 . S
C179 C122 1.392 . S
C179 C123 1.419 . S
C179 H161 0.948 . S
C180 C181 1.391 . S
C180 C184 1.391 . S
C180 H222 0.948 . S
C181 C180 1.391 . S
C181 C182 1.391 . S
C182 C181 1.391 . S
C182 H238 0.947 . S
C182 C239 1.392 . S
C183 C184 1.391 . S
C183 C187 1.397 . S
C183 C239 1.419 . S
C184 C180 1.391 . S
C184 C183 1.391 . S
C184 C185 1.399 . S
C185 C184 1.399 . S
C185 C188 1.396 . S
C185 C197 1.453 . S
C185 C198 1.684 . S
H186 C210 0.948 . S
C187 C183 1.397 . S
C187 C188 1.394 . S
C187 C206 1.723 . S
C188 C185 1.396 . S
C188 C187 1.394 . S
C188 C218 1.723 . S
H189 C212 0.947 . S
H190 C213 0.948 . S
H191 C219 0.982 . S
H192 C220 0.979 . S
H193 C220 0.980 . S
H194 C220 0.983 . S
H195 C219 0.979 . S
H196 C219 0.977 . S
C197 C185 1.453 . S
C197 H226 0.982 . S
C197 H227 0.979 . S
C197 H228 0.977 . S
C198 C185 1.684 . S
C198 H223 0.979 . S
C198 H224 0.980 . S
C198 H225 0.983 . S
C199 C200 1.391 . S
C199 C204 1.391 . S
C199 H229 0.948 . S
C200 C199 1.391 . S
C200 C201 1.391 . S
C201 C200 1.391 . S
C201 C202 1.392 . S
C201 H230 0.947 . S
C202 C201 1.392 . S
C202 C203 1.419 . S
C202 H231 0.948 . S
C203 C202 1.419 . S
C203 C204 1.391 . S
C203 C207 1.397 . S
C204 C199 1.391 . S
C204 C203 1.391 . S
C204 C205 1.399 . S
C205 C204 1.399 . S
C205 C206 1.396 . S
C205 C208 1.453 . S
C205 C209 1.684 . S
C206 C187 1.723 . S
C206 C205 1.396 . S
C206 C207 1.394 . S
C207 C203 1.397 . S
C207 C206 1.394 . S
C207 C217 1.723 . S
C208 C205 1.453 . S
C208 H232 0.982 . S
C208 H233 0.979 . S
C208 H234 0.977 . S
C209 C205 1.684 . S
C209 H235 0.979 . S
C209 H236 0.980 . S
C209 H237 0.983 . S
C210 H186 0.948 . S
C210 C211 1.391 . S
C210 C215 1.391 . S
C211 C210 1.391 . S
C211 C212 1.391 . S
C212 H189 0.947 . S
C212 C211 1.391 . S
C212 C213 1.392 . S
C213 H190 0.948 . S
C213 C212 1.392 . S
C213 C214 1.419 . S
C214 C213 1.419 . S
C214 C215 1.391 . S
C214 C218 1.397 . S
C215 C210 1.391 . S
C215 C214 1.391 . S
C215 C216 1.399 . S
C216 C215 1.399 . S
C216 C217 1.396 . S
C216 C219 1.453 . S
C216 C220 1.684 . S
C217 C207 1.723 . S
C217 C216 1.396 . S
C217 C218 1.394 . S
C218 C188 1.723 . S
C218 C214 1.397 . S
C218 C217 1.394 . S
C219 H191 0.982 . S
C219 H195 0.979 . S
C219 H196 0.977 . S
C219 C216 1.453 . S
C220 H192 0.979 . S
C220 H193 0.980 . S
C220 H194 0.983 . S
C220 C216 1.684 . S
H221 C239 0.948 . S
H222 C180 0.948 . S
H223 C198 0.979 . S
H224 C198 0.980 . S
H225 C198 0.983 . S
H226 C197 0.982 . S
H227 C197 0.979 . S
H228 C197 0.977 . S
H229 C199 0.948 . S
H230 C201 0.947 . S
H231 C202 0.948 . S
H232 C208 0.982 . S
H233 C208 0.979 . S
H234 C208 0.977 . S
H235 C209 0.979 . S
H236 C209 0.980 . S
H237 C209 0.983 . S
H238 C182 0.947 . S
C239 C182 1.392 . S
C239 C183 1.419 . S
C239 H221 0.948 . S
O240 Mg241 1.990 1_655 S
O240 C254 1.253 . S
Mg241 O240 1.990 1_455 S
Mg241 O244 2.180 . S
Mg241 O245 2.117 . S
Mg241 O259 2.030 . S
O242 Mg243 2.072 1_655 S
O242 C254 1.260 . S
Mg243 O242 2.072 1_455 S
Mg243 O244 2.099 . S
Mg243 O246 2.079 1_545 S
Mg243 O247 2.072 1_455 S
Mg243 O249 2.099 1_445 S
Mg243 O260 2.079 1_545 S
O244 Mg241 2.180 . S
O244 Mg243 2.099 . S
O244 C255 1.279 . S
O245 Mg241 2.117 . S
O245 C255 1.250 . S
O246 Mg243 2.079 1_565 S
O246 C256 1.264 . S
O247 Mg243 2.072 1_655 S
O247 C257 1.260 . S
Mg248 O249 2.180 . S
Mg248 O250 2.030 1_655 S
Mg248 O251 1.956 1_565 S
Mg248 O252 2.117 . S
O249 Mg243 2.099 1_665 S
O249 Mg248 2.180 . S
O249 C258 1.279 . S
O250 Mg248 2.030 1_455 S
O250 C256 1.248 . S
O251 Mg248 1.956 1_545 S
O251 C257 1.287 . S
O252 Mg248 2.117 . S
O252 C258 1.250 . S
C253 O259 1.248 1_565 S
C253 O260 1.264 . S
C254 O240 1.253 . S
C254 O242 1.260 . S
C255 O244 1.279 . S
C255 O245 1.250 . S
C256 O246 1.264 . S
C256 O250 1.248 . S
C257 O247 1.260 . S
C257 O251 1.287 . S
C258 O249 1.279 . S
C258 O252 1.250 . S
O259 Mg241 2.030 . S
O259 C253 1.248 1_545 S
O260 Mg243 2.079 1_565 S
O260 C253 1.264 . S
O261 Mg262 1.990 . S
O261 C275 1.253 . S
Mg262 O261 1.990 . S
Mg262 O265 2.180 . S
Mg262 O266 2.117 . S
Mg262 O280 2.030 . S
O263 Mg264 2.072 . S
O263 C275 1.260 . S
Mg264 O263 2.072 . S
Mg264 O265 2.099 . S
Mg264 O267 2.079 1_554 S
Mg264 O268 2.072 1_554 S
Mg264 O270 2.099 . S
Mg264 O281 2.079 . S
O265 Mg262 2.180 . S
O265 Mg264 2.099 . S
O265 C276 1.279 . S
O266 Mg262 2.117 . S
O266 C276 1.250 . S
O267 Mg264 2.079 1_556 S
O267 C277 1.264 . S
O268 Mg264 2.072 1_556 S
O268 C278 1.260 . S
Mg269 O270 2.180 1_556 S
Mg269 O271 2.030 . S
Mg269 O272 1.990 . S
Mg269 O273 2.119 1_556 S
O270 Mg264 2.099 . S
O270 Mg269 2.180 1_554 S
O270 C279 1.279 . S
O271 Mg269 2.030 . S
O271 C277 1.248 . S
O272 Mg269 1.990 . S
O272 C278 1.253 . S
O273 Mg269 2.119 1_554 S
O273 C279 1.248 . S
C274 O280 1.248 . S
C274 O281 1.264 . S
C275 O261 1.253 . S
C275 O263 1.260 . S
C276 O265 1.279 . S
C276 O266 1.250 . S
C277 O267 1.264 . S
C277 O271 1.248 . S
C278 O268 1.260 . S
C278 O272 1.253 . S
C279 O270 1.279 . S
C279 O273 1.248 . S
O280 Mg262 2.030 . S
O280 C274 1.248 . S
O281 Mg264 2.079 . S
O281 C274 1.264 . S
H282 C288 0.930 . S
H283 C292 0.930 . S
H284 C297 0.929 . S
H285 C295 0.929 . S
H286 C290 0.929 . S
H287 C296 0.929 . S
C288 H282 0.930 . S
C288 C289 1.367 . S
C288 C296 1.378 . S
C289 C288 1.367 . S
C289 C297 1.433 . S
C290 H286 0.929 . S
C290 C292 1.378 . S
C290 C294 1.350 . S
C291 C294 1.463 . S
C291 C296 1.350 . S
C291 N299 1.427 . S
C292 H283 0.930 . S
C292 C290 1.378 . S
C292 C293 1.367 . S
C293 C292 1.367 . S
C293 C295 1.433 . S
C294 C290 1.350 . S
C294 C291 1.463 . S
C294 N298 1.427 . S
C295 H285 0.929 . S
C295 C293 1.433 . S
C295 N298 1.384 . S
C296 H287 0.929 . S
C296 C288 1.378 . S
C296 C291 1.350 . S
C297 H284 0.929 . S
C297 C289 1.433 . S
C297 N299 1.384 . S
N298 C294 1.427 . S
N298 C295 1.384 . S
N299 C291 1.427 . S
N299 C297 1.384 . S
H300 C306 0.930 . S
H301 C310 0.930 . S
H302 C315 0.929 . S
H303 C313 0.929 . S
H304 C308 0.929 . S
H305 C314 0.929 . S
C306 H300 0.930 . S
C306 C307 1.367 . S
C306 C314 1.378 . S
C307 C306 1.367 . S
C307 C315 1.433 . S
C308 H304 0.929 . S
C308 C310 1.378 . S
C308 C312 1.350 . S
C309 C312 1.463 . S
C309 C314 1.350 . S
C309 N317 1.427 . S
C310 H301 0.930 . S
C310 C308 1.378 . S
C310 C311 1.367 . S
C311 C310 1.367 . S
C311 C313 1.433 . S
C312 C308 1.350 . S
C312 C309 1.463 . S
C312 N316 1.427 . S
C313 H303 0.929 . S
C313 C311 1.433 . S
C313 N316 1.384 . S
C314 H305 0.929 . S
C314 C306 1.378 . S
C314 C309 1.350 . S
C315 H302 0.929 . S
C315 C307 1.433 . S
C315 N317 1.384 . S
N316 C312 1.427 . S
N316 C313 1.384 . S
N317 C309 1.427 . S
N317 C315 1.384 . S
H318 C324 0.930 . S
H319 C328 0.930 . S
H320 C333 0.929 . S
H321 C331 0.929 . S
H322 C326 0.929 . S
H323 C332 0.929 . S
C324 H318 0.930 . S
C324 C325 1.367 . S
C324 C332 1.378 . S
C325 C324 1.367 . S
C325 C333 1.433 . S
C326 H322 0.929 . S
C326 C328 1.378 . S
C326 C330 1.350 . S
C327 C330 1.463 . S
C327 C332 1.350 . S
C327 N335 1.427 . S
C328 H319 0.930 . S
C328 C326 1.378 . S
C328 C329 1.367 . S
C329 C328 1.367 . S
C329 C331 1.433 . S
C330 C326 1.350 . S
C330 C327 1.463 . S
C330 N334 1.427 . S
C331 H321 0.929 . S
C331 C329 1.433 . S
C331 N334 1.384 . S
C332 H323 0.929 . S
C332 C324 1.378 . S
C332 C327 1.350 . S
C333 H320 0.929 . S
C333 C325 1.433 . S
C333 N335 1.384 . S
N334 C330 1.427 . S
N334 C331 1.384 . S
N335 C327 1.427 . S
N335 C333 1.384 . S
H336 C342 0.930 . S
H337 C346 0.930 . S
H338 C351 0.929 . S
H339 C349 0.929 . S
H340 C344 0.929 . S
H341 C350 0.929 . S
C342 H336 0.930 . S
C342 C343 1.367 . S
C342 C350 1.378 . S
C343 C342 1.367 . S
C343 C351 1.433 1_556 S
C344 H340 0.929 . S
C344 C346 1.378 . S
C344 C348 1.350 . S
C345 C348 1.463 . S
C345 C350 1.350 1_554 S
C345 N353 1.427 . S
C346 H337 0.930 . S
C346 C344 1.378 . S
C346 C347 1.367 . S
C347 C346 1.367 . S
C347 C349 1.433 . S
C348 C344 1.350 . S
C348 C345 1.463 . S
C348 N352 1.427 . S
C349 H339 0.929 . S
C349 C347 1.433 . S
C349 N352 1.384 . S
C350 H341 0.929 . S
C350 C342 1.378 . S
C350 C345 1.350 1_556 S
C351 H338 0.929 . S
C351 C343 1.433 1_554 S
C351 N353 1.384 . S
N352 C348 1.427 . S
N352 C349 1.384 . S
N353 C345 1.427 . S
N353 C351 1.384 . S
H354 C360 0.930 . S
H355 C364 0.930 . S
H356 C369 0.929 . S
H357 C367 0.929 . S
H358 C362 0.929 . S
H359 C368 0.917 1_545 S
C360 H354 0.930 . S
C360 C361 1.367 . S
C360 C368 1.378 . S
C361 C360 1.367 . S
C361 C369 1.433 . S
C362 H358 0.929 . S
C362 C364 1.378 . S
C362 C366 1.350 . S
C363 C366 1.463 . S
C363 C368 1.350 . S
C363 N371 1.427 . S
C364 H355 0.930 . S
C364 C362 1.378 . S
C364 C365 1.367 . S
C365 C364 1.367 . S
C365 C367 1.433 1_565 S
C366 C362 1.350 . S
C366 C363 1.463 . S
C366 N370 1.427 . S
C367 H357 0.929 . S
C367 C365 1.433 1_545 S
C367 N370 1.384 1_545 S
C368 H359 0.917 1_565 S
C368 C360 1.378 . S
C368 C363 1.350 . S
C369 H356 0.929 . S
C369 C361 1.433 . S
C369 N371 1.384 . S
N370 C366 1.427 . S
N370 C367 1.384 1_565 S
N371 C363 1.427 . S
N371 C369 1.384 . S
H372 C378 0.930 . S
H373 C382 0.930 . S
H374 C387 0.929 . S
H375 C385 0.929 . S
H376 C380 0.929 . S
H377 C386 0.929 . S
C378 H372 0.930 . S
C378 C379 1.367 . S
C378 C386 1.378 . S
C379 C378 1.367 . S
C379 C387 1.433 . S
C380 H376 0.929 . S
C380 C382 1.378 . S
C380 C384 1.350 . S
C381 C384 1.463 . S
C381 C386 1.350 . S
C381 N389 1.427 . S
C382 H373 0.930 . S
C382 C380 1.378 . S
C382 C383 1.367 . S
C383 C382 1.367 . S
C383 C385 1.433 . S
C384 C380 1.350 . S
C384 C381 1.463 . S
C384 N388 1.427 . S
C385 H375 0.929 . S
C385 C383 1.433 . S
C385 N388 1.384 . S
C386 H377 0.929 . S
C386 C378 1.378 . S
C386 C381 1.350 . S
C387 H374 0.929 . S
C387 C379 1.433 . S
C387 N389 1.384 . S
N388 C384 1.427 . S
N388 C385 1.384 . S
N389 C381 1.427 . S
N389 C387 1.384 . S
H390 C396 0.930 . S
H391 C400 0.927 . S
H392 C405 0.929 . S
H393 C403 0.929 . S
H394 C398 0.929 . S
H395 C404 0.929 . S
C396 H390 0.930 . S
C396 C397 1.367 . S
C396 C404 1.378 . S
C397 C396 1.367 . S
C397 C405 1.433 . S
C398 H394 0.929 . S
C398 C400 1.378 . S
C398 C402 1.350 . S
C399 C402 1.463 . S
C399 C404 1.350 . S
C399 N407 1.427 . S
C400 H391 0.927 . S
C400 C398 1.378 . S
C400 C401 1.367 . S
C401 C400 1.367 . S
C401 C403 1.433 . S
C402 C398 1.350 . S
C402 C399 1.463 . S
C402 N406 1.427 . S
C403 H393 0.929 . S
C403 C401 1.433 . S
C403 N406 1.384 . S
C404 H395 0.929 . S
C404 C396 1.378 . S
C404 C399 1.350 . S
C405 H392 0.929 . S
C405 C397 1.433 . S
C405 N407 1.384 . S
N406 C402 1.427 . S
N406 C403 1.384 . S
N407 C399 1.427 . S
N407 C405 1.384 . S
H408 C414 0.930 . S
H409 C418 0.930 . S
H410 C423 0.929 . S
H411 C421 0.929 . S
H412 C416 0.929 . S
H413 C422 0.929 . S
C414 H408 0.930 . S
C414 C415 1.367 . S
C414 C422 1.378 . S
C415 C414 1.367 . S
C415 C423 1.433 . S
C416 H412 0.929 . S
C416 C418 1.378 . S
C416 C420 1.350 . S
C417 C420 1.463 . S
C417 C422 1.350 . S
C417 N425 1.427 . S
C418 H409 0.930 . S
C418 C416 1.378 . S
C418 C419 1.367 . S
C419 C418 1.367 . S
C419 C421 1.433 . S
C420 C416 1.350 . S
C420 C417 1.463 . S
C420 N424 1.427 . S
C421 H411 0.929 . S
C421 C419 1.433 . S
C421 N424 1.384 . S
C422 H413 0.929 . S
C422 C414 1.378 . S
C422 C417 1.350 . S
C423 H410 0.929 . S
C423 C415 1.433 . S
C423 N425 1.384 . S
N424 C420 1.427 . S
N424 C421 1.384 . S
N425 C417 1.427 . S
N425 C423 1.384 . S
H426 C432 0.930 . S
H427 C436 0.930 . S
H428 C441 0.929 . S
H429 C439 0.929 . S
H430 C434 0.929 . S
H431 C440 0.929 . S
C432 H426 0.930 . S
C432 C433 1.367 . S
C432 C440 1.378 . S
C433 C432 1.367 . S
C433 C441 1.433 . S
C434 H430 0.929 . S
C434 C436 1.378 . S
C434 C438 1.350 . S
C435 C438 1.463 . S
C435 C440 1.350 . S
C435 N443 1.427 . S
C436 H427 0.930 . S
C436 C434 1.378 . S
C436 C437 1.367 . S
C437 C436 1.367 . S
C437 C439 1.433 . S
C438 C434 1.350 . S
C438 C435 1.463 . S
C438 N442 1.427 . S
C439 H429 0.929 . S
C439 C437 1.433 . S
C439 N442 1.384 . S
C440 H431 0.929 . S
C440 C432 1.378 . S
C440 C435 1.350 . S
C441 H428 0.929 . S
C441 C433 1.433 . S
C441 N443 1.384 . S
N442 C438 1.427 . S
N442 C439 1.384 . S
N443 C435 1.427 . S
N443 C441 1.384 . S
H444 C450 0.930 . S
H445 C454 0.930 . S
H446 C459 0.929 . S
H447 C457 0.929 . S
H448 C452 0.929 . S
H449 C458 0.929 . S
C450 H444 0.930 . S
C450 C451 1.367 . S
C450 C458 1.378 . S
C451 C450 1.367 . S
C451 C459 1.433 . S
C452 H448 0.929 . S
C452 C454 1.378 . S
C452 C456 1.350 . S
C453 C456 1.463 . S
C453 C458 1.350 . S
C453 N461 1.427 . S
C454 H445 0.930 . S
C454 C452 1.378 . S
C454 C455 1.367 . S
C455 C454 1.367 . S
C455 C457 1.433 . S
C456 C452 1.350 . S
C456 C453 1.463 . S
C456 N460 1.427 . S
C457 H447 0.929 . S
C457 C455 1.433 . S
C457 N460 1.384 . S
C458 H449 0.929 . S
C458 C450 1.378 . S
C458 C453 1.350 . S
C459 H446 0.929 . S
C459 C451 1.433 . S
C459 N461 1.384 . S
N460 C456 1.427 . S
N460 C457 1.384 . S
N461 C453 1.427 . S
N461 C459 1.384 . S
H462 C468 0.930 . S
H463 C472 0.930 . S
H464 C477 0.929 . S
H465 C475 0.929 . S
H466 C470 0.929 . S
H467 C476 0.929 . S
C468 H462 0.930 . S
C468 C469 1.367 . S
C468 C476 1.378 . S
C469 C468 1.367 . S
C469 C477 1.433 . S
C470 H466 0.929 . S
C470 C472 1.378 . S
C470 C474 1.350 . S
C471 C474 1.463 . S
C471 C476 1.350 . S
C471 N479 1.427 . S
C472 H463 0.930 . S
C472 C470 1.378 . S
C472 C473 1.367 . S
C473 C472 1.367 . S
C473 C475 1.433 . S
C474 C470 1.350 . S
C474 C471 1.463 . S
C474 N478 1.427 . S
C475 H465 0.929 . S
C475 C473 1.433 . S
C475 N478 1.384 . S
C476 H467 0.929 . S
C476 C468 1.378 . S
C476 C471 1.350 . S
C477 H464 0.929 . S
C477 C469 1.433 . S
C477 N479 1.384 . S
N478 C474 1.427 . S
N478 C475 1.384 . S
N479 C471 1.427 . S
N479 C477 1.384 . S
H480 C486 0.930 1_545 S
H481 C490 0.930 . S
H482 C495 0.929 . S
H483 C493 0.929 . S
H484 C488 0.929 . S
H485 C494 0.929 1_545 S
C486 H480 0.930 1_565 S
C486 C487 1.367 . S
C486 C494 1.378 . S
C487 C486 1.367 . S
C487 C495 1.433 . S
C488 H484 0.929 . S
C488 C490 1.378 . S
C488 C492 1.350 . S
C489 C492 1.463 . S
C489 C494 1.350 . S
C489 N497 1.427 . S
C490 H481 0.930 . S
C490 C488 1.378 . S
C490 C491 1.367 . S
C491 C490 1.367 . S
C491 C493 1.433 1_565 S
C492 C488 1.350 . S
C492 C489 1.463 . S
C492 N496 1.412 1_565 S
C493 H483 0.929 . S
C493 C491 1.433 1_545 S
C493 N496 1.386 . S
C494 H485 0.929 1_565 S
C494 C486 1.378 . S
C494 C489 1.350 . S
C495 H482 0.929 . S
C495 C487 1.433 . S
C495 N497 1.384 . S
N496 C492 1.412 1_545 S
N496 C493 1.386 . S
N497 C489 1.427 . S
N497 C495 1.384 . S
C293 C255 1.346 . S
C289 C211 1.546 . S
C307 C31 1.458 . S
C311 C279 1.350 . S
C325 C91 1.632 . S
C329 C258 1.460 . S
C343 C151 1.650 1_556 S
C347 C276 1.471 . S
C365 C256 1.622 . S
C361 C20 1.588 . S
C383 C278 1.582 . S
C379 C61 1.536 . S
C397 C121 1.585 . S
C401 C257 1.511 . S
C415 C200 1.607 . S
C419 C277 1.538 . S
C437 C275 1.516 . S
C433 C80 1.545 . S
C455 C254 1.591 . S
C451 C140 1.630 . S
C473 C274 1.622 . S
C469 C181 1.599 . S
C487 C1 1.546 . S
C491 C253 1.544 . S
