# Generated by pormake.
# Topology ssa, (4,4)-cn, num edge types: 1
# Building blocks:
#     Node 0, Type 0, BuildingBlock: NAWXER_clean_sbu_0, # of connection points: 4
#     Node 1, Type 0, BuildingBlock: NAWXER_clean_sbu_0, # of connection points: 4
#     Node 2, Type 0, BuildingBlock: NAWXER_clean_sbu_0, # of connection points: 4
#     Node 3, Type 0, BuildingBlock: NAWXER_clean_sbu_0, # of connection points: 4
#     Node 4, Type 0, BuildingBlock: NAWXER_clean_sbu_0, # of connection points: 4
#     Node 5, Type 0, BuildingBlock: NAWXER_clean_sbu_0, # of connection points: 4
#     Node 6, Type 1, BuildingBlock: GIZVER_clean_linker_0, # of connection points: 4
#     Node 7, Type 1, BuildingBlock: GIZVER_clean_linker_0, # of connection points: 4
#     Node 8, Type 1, BuildingBlock: GIZVER_clean_linker_0, # of connection points: 4
#     Node 9, Type 1, BuildingBlock: GIZVER_clean_linker_0, # of connection points: 4
#     Node 10, Type 1, BuildingBlock: GIZVER_clean_linker_0, # of connection points: 4
#     Node 11, Type 1, BuildingBlock: GIZVER_clean_linker_0, # of connection points: 4
#     Edge 12, Type (0, 1), BuildingBlock: CIFDUS_clean_linker_0, # of connection points: 2
#     Edge 13, Type (0, 1), BuildingBlock: CIFDUS_clean_linker_0, # of connection points: 2
#     Edge 14, Type (0, 1), BuildingBlock: CIFDUS_clean_linker_0, # of connection points: 2
#     Edge 15, Type (0, 1), BuildingBlock: CIFDUS_clean_linker_0, # of connection points: 2
#     Edge 16, Type (0, 1), BuildingBlock: CIFDUS_clean_linker_0, # of connection points: 2
#     Edge 17, Type (0, 1), BuildingBlock: CIFDUS_clean_linker_0, # of connection points: 2
#     Edge 18, Type (0, 1), BuildingBlock: CIFDUS_clean_linker_0, # of connection points: 2
#     Edge 19, Type (0, 1), BuildingBlock: CIFDUS_clean_linker_0, # of connection points: 2
#     Edge 20, Type (0, 1), BuildingBlock: CIFDUS_clean_linker_0, # of connection points: 2
#     Edge 21, Type (0, 1), BuildingBlock: CIFDUS_clean_linker_0, # of connection points: 2
#     Edge 22, Type (0, 1), BuildingBlock: CIFDUS_clean_linker_0, # of connection points: 2
#     Edge 23, Type (0, 1), BuildingBlock: CIFDUS_clean_linker_0, # of connection points: 2
#     Edge 24, Type (0, 1), BuildingBlock: CIFDUS_clean_linker_0, # of connection points: 2
#     Edge 25, Type (0, 1), BuildingBlock: CIFDUS_clean_linker_0, # of connection points: 2
#     Edge 26, Type (0, 1), BuildingBlock: CIFDUS_clean_linker_0, # of connection points: 2
#     Edge 27, Type (0, 1), BuildingBlock: CIFDUS_clean_linker_0, # of connection points: 2
#     Edge 28, Type (0, 1), BuildingBlock: CIFDUS_clean_linker_0, # of connection points: 2
#     Edge 29, Type (0, 1), BuildingBlock: CIFDUS_clean_linker_0, # of connection points: 2
#     Edge 30, Type (0, 1), BuildingBlock: CIFDUS_clean_linker_0, # of connection points: 2
#     Edge 31, Type (0, 1), BuildingBlock: CIFDUS_clean_linker_0, # of connection points: 2
#     Edge 32, Type (0, 1), BuildingBlock: CIFDUS_clean_linker_0, # of connection points: 2
#     Edge 33, Type (0, 1), BuildingBlock: CIFDUS_clean_linker_0, # of connection points: 2
#     Edge 34, Type (0, 1), BuildingBlock: CIFDUS_clean_linker_0, # of connection points: 2
#     Edge 35, Type (0, 1), BuildingBlock: CIFDUS_clean_linker_0, # of connection points: 2
# Relax obj value: 0.007
# Max RMSD: 0.038
# Mean RMSD: 0.029
data_MOF--net-ssa--node1-NAWXER_clean_sbu_0--node2-GIZVER_clean_linker_0--edge1-CIFDUS_clean_linker_0
_symmetry_space_group_name_H-M    P1
_symmetry_Int_Tables_number       1
_symmetry_cell_setting            triclinic
loop_
_symmetry_equiv_pos_as_xyz
'x, y, z'
_cell_length_a     45.468687
_cell_length_b     45.641905
_cell_length_c     26.414678
_cell_angle_alpha  89.878336
_cell_angle_beta   89.525206
_cell_angle_gamma 119.60077
loop_
_atom_site_label
_atom_site_type_symbol
_atom_site_fract_x
_atom_site_fract_y
_atom_site_fract_z
_atom_type_partial_charge
C0 C 0.03371 0.52674 0.03468 0.0
C1 C 0.95747 0.41048 -0.01571 0.0
O2 O 1.00746 0.50554 0.05914 0.0
Zn3 Zn 0.99478 0.46792 0.01312 0.0
O4 O 0.04204 0.51817 -0.00668 0.0
Zn5 Zn 0.02505 0.47616 0.94533 0.0
O6 O 1.01354 0.49284 0.8849 0.0
O7 O 0.97967 0.48545 0.94976 0.0
O8 O 0.98245 0.42709 0.95385 0.0
O9 O 0.9545 0.42437 0.02426 0.0
O10 O 0.03594 0.45802 0.02031 0.0
O11 O 0.06387 0.46919 0.94734 0.0
C12 C 0.98828 0.49411 0.90362 0.0
C13 C 0.0604 0.45981 -0.00655 0.0
C14 C 0.50097 0.0728 0.42962 0.0
C15 C 0.5424 0.9947 0.39178 0.0
O16 O 0.48971 0.04744 0.45977 0.0
Zn17 Zn 0.49404 1.00339 0.47151 0.0
O18 O 0.52025 0.07541 0.39264 0.0
Zn19 Zn 0.52073 0.03383 0.40653 0.0
O20 O 0.46987 0.99523 0.39302 0.0
O21 O 0.44825 0.96653 0.46415 0.0
O22 O 0.54834 0.02087 0.36656 0.0
O23 O 0.52254 0.9858 0.4303 0.0
O24 O 0.51649 0.01392 0.53675 0.0
O25 O 0.548 0.04756 0.47477 0.0
C26 C 0.44516 0.97135 0.41753 0.0
C27 C 0.54426 0.03883 0.52138 0.0
C28 C 0.49507 0.46683 0.89799 0.0
C29 C 0.531 0.57313 -0.01702 0.0
O30 O 0.49627 0.49357 0.88178 0.0
Zn31 Zn 0.51269 0.52004 0.9419 0.0
O32 O 0.50325 0.46545 0.94388 0.0
Zn33 Zn 0.51987 0.4987 0.0077 0.0
O34 O 0.48366 0.47599 0.05598 0.0
O35 O 0.46996 0.49849 -0.00701 0.0
O36 O 0.53209 0.55134 0.01269 0.0
O37 O 0.52113 0.5654 0.93771 0.0
O38 O 0.56295 0.52628 0.95146 0.0
O39 O 0.56185 0.50038 0.023 0.0
C40 C 0.46234 0.48229 0.03512 0.0
C41 C 0.57783 0.51728 -0.0159 0.0
C42 C 0.0424 0.56605 0.41754 0.0
C43 C 0.96753 0.45534 0.49207 0.0
O44 O 0.05088 0.56239 0.46213 0.0
Zn45 Zn 0.0332 0.52553 0.52083 0.0
O46 O 1.01623 0.54219 0.3973 0.0
Zn47 Zn 1.00403 0.51038 0.45307 0.0
O48 O 0.9876 0.53353 0.50729 0.0
O49 O 0.02147 0.54797 0.57296 0.0
O50 O 0.96483 0.46582 0.44868 0.0
O51 O 0.99164 0.4748 0.52141 0.0
O52 O 0.07252 0.52013 0.52805 0.0
O53 O 0.04646 0.50163 0.45498 0.0
C54 C 0.99634 0.54716 0.55083 0.0
C55 C 0.07061 0.50687 0.48502 0.0
C56 C 0.5381 0.99574 0.02847 0.0
C57 C 0.50878 0.07115 0.93822 0.0
O58 O 0.54013 0.02262 0.04615 0.0
Zn59 Zn 0.52229 0.03375 -0.01314 0.0
O60 O 0.52669 0.98596 -0.016 0.0
Zn61 Zn 0.50909 1.00153 0.92132 0.0
O62 O 0.54445 1.00883 0.87239 0.0
O63 O 0.56246 0.04522 0.93527 0.0
O64 O 0.50438 0.04567 0.91213 0.0
O65 O 0.51866 0.07433 -0.01623 0.0
O66 O 0.47117 0.99396 -0.01484 0.0
O67 O 0.46323 0.96377 0.9161 0.0
C68 C 0.56839 0.03411 0.8943 0.0
C69 C 0.45181 0.96901 0.95718 0.0
C70 C 0.59421 0.55842 0.56433 0.0
C71 C 0.49158 0.52459 0.46791 0.0
O72 O 0.56743 0.55873 0.57732 0.0
Zn73 Zn 0.5427 0.54246 0.51541 0.0
O74 O 0.59664 0.54885 0.5197 0.0
Zn75 Zn 0.56594 0.53187 0.45358 0.0
O76 O 0.59181 0.56702 0.40431 0.0
O77 O 0.56865 0.58325 0.46357 0.0
O78 O 0.51419 0.52151 0.44266 0.0
O79 O 0.49782 0.53666 0.51235 0.0
O80 O 0.53247 0.49114 0.50975 0.0
O81 O 0.56125 0.48772 0.44411 0.0
C82 C 0.58637 0.58956 0.42297 0.0
C83 C 0.54092 0.47378 0.48111 0.0
H84 H 0.24845 0.51981 0.16734 0.0
H85 H 0.23676 0.51402 0.32942 0.0
H86 H 0.14915 0.46987 0.23439 0.0
H87 H 0.29335 0.56105 0.22228 0.0
H88 H 0.28837 0.5583 0.28938 0.0
H89 H 0.30145 0.5159 0.17616 0.0
H90 H 0.36963 0.49379 0.25681 0.0
H91 H 0.31379 0.53252 0.337 0.0
C92 C 0.23223 0.51062 0.2006 0.0
C93 C 0.19695 0.49213 0.195 0.0
C94 C 0.24666 0.51865 0.24905 0.0
C95 C 0.22554 0.50743 0.29222 0.0
C96 C 0.19016 0.48941 0.28745 0.0
C97 C 0.17632 0.48179 0.23864 0.0
C98 C 0.284 0.54295 0.25467 0.0
C99 C 0.30457 0.52524 0.25661 0.0
C100 C 0.31218 0.51383 0.21154 0.0
C101 C 0.33501 0.50152 0.21167 0.0
C102 C 0.34991 0.50057 0.25745 0.0
C103 C 0.34241 0.51132 0.30304 0.0
C104 C 0.3193 0.52336 0.3024 0.0
H105 H 0.72898 0.21242 0.6379 0.0
H106 H 0.76081 0.20982 0.78989 0.0
H107 H 0.69821 0.11791 0.71009 0.0
H108 H 0.75898 0.26347 0.68195 0.0
H109 H 0.7564 0.25981 0.74908 0.0
H110 H 0.81229 0.28119 0.6378 0.0
H111 H 0.9019 0.32424 0.72871 0.0
H112 H 0.8047 0.26529 0.79922 0.0
C113 C 0.73097 0.1983 0.66945 0.0
C114 C 0.71154 0.16307 0.66991 0.0
C115 C 0.75023 0.21539 0.71203 0.0
C116 C 0.74881 0.19668 0.75552 0.0
C117 C 0.72894 0.16129 0.75635 0.0
C118 C 0.71361 0.14506 0.71116 0.0
C119 C 0.76632 0.25327 0.71483 0.0
C120 C 0.80437 0.27045 0.71791 0.0
C121 C 0.82442 0.28441 0.6741 0.0
C122 C 0.85983 0.30389 0.67745 0.0
C123 C 0.87487 0.30784 0.72507 0.0
C124 C 0.85532 0.29359 0.76904 0.0
C125 C 0.82002 0.2751 0.7652 0.0
H126 H 0.55597 0.75164 0.12799 0.0
H127 H 0.56757 0.75931 0.28966 0.0
H128 H 0.60168 0.70162 0.2038 0.0
H129 H 0.51976 0.76446 0.17963 0.0
H130 H 0.52056 0.76219 0.24665 0.0
H131 H 0.55481 0.81719 0.1344 0.0
H132 H 0.58253 0.90519 0.22343 0.0
H133 H 0.55649 0.81197 0.29724 0.0
C134 C 0.56602 0.747 0.16227 0.0
C135 C 0.58187 0.7273 0.16021 0.0
C136 C 0.5608 0.75857 0.20904 0.0
C137 C 0.57246 0.75106 0.25373 0.0
C138 C 0.58745 0.73047 0.25253 0.0
C139 C 0.59258 0.7195 0.20533 0.0
C140 C 0.53712 0.77276 0.21254 0.0
C141 C 0.55543 0.81072 0.2153 0.0
C142 C 0.56095 0.8298 0.17065 0.0
C143 C 0.57119 0.86428 0.17317 0.0
C144 C 0.57776 0.87955 0.22075 0.0
C145 C 0.57311 0.8614 0.2657 0.0
C146 C 0.56209 0.82678 0.26277 0.0
H147 H 0.7897 0.60242 0.70782 0.0
H148 H 0.79414 0.59578 0.87053 0.0
H149 H 0.69874 0.56134 0.7982 0.0
H150 H 0.8439 0.63808 0.7596 0.0
H151 H 0.84575 0.62524 0.82278 0.0
H152 H 0.8499 0.6088 0.68712 0.0
H153 H 0.87395 0.53042 0.71273 0.0
H154 H 0.85176 0.57547 0.83922 0.0
C155 C 0.77702 0.59449 0.74428 0.0
C156 C 0.74186 0.5815 0.74772 0.0
C157 C 0.79611 0.59907 0.78845 0.0
C158 C 0.77965 0.5908 0.83612 0.0
C159 C 0.74451 0.57709 0.83928 0.0
C160 C 0.72593 0.57166 0.79513 0.0
C161 C 0.83419 0.61573 0.78515 0.0
C162 C 0.84529 0.59174 0.76503 0.0
C163 C 0.85156 0.59111 0.71274 0.0
C164 C 0.86234 0.56921 0.69431 0.0
C165 C 0.86521 0.547 0.72756 0.0
C166 C 0.86483 0.55131 0.77982 0.0
C167 C 0.85285 0.57231 0.79873 0.0
H168 H 0.29293 0.78079 0.10584 0.0
H169 H 0.29087 0.78407 0.26845 0.0
H170 H 0.35014 0.87503 0.1823 0.0
H171 H 0.2779 0.7305 0.15617 0.0
H172 H 0.27956 0.7322 0.22341 0.0
H173 H 0.22594 0.71439 0.11316 0.0
H174 H 0.13634 0.66856 0.20558 0.0
H175 H 0.2322 0.73123 0.27406 0.0
C176 C 0.30005 0.79525 0.1405 0.0
C177 C 0.32155 0.8303 0.13835 0.0
C178 C 0.28907 0.77852 0.18741 0.0
C179 C 0.29901 0.79717 0.23241 0.0
C180 C 0.3208 0.8322 0.23112 0.0
C181 C 0.33164 0.84842 0.18381 0.0
C182 C 0.271 0.74061 0.18979 0.0
C183 C 0.23311 0.72548 0.19296 0.0
C184 C 0.21346 0.71144 0.14944 0.0
C185 C 0.17815 0.69119 0.15351 0.0
C186 C 0.16292 0.68681 0.20131 0.0
C187 C 0.1817 0.70143 0.24499 0.0
C188 C 0.21704 0.72113 0.24045 0.0
H189 H 0.45628 0.27136 0.76522 0.0
H190 H 0.47743 0.26697 0.60651 0.0
H191 H 0.51109 0.36239 0.6776 0.0
H192 H 0.4314 0.21783 0.72489 0.0
H193 H 0.42885 0.21713 0.65746 0.0
H194 H 0.47433 0.20907 0.76717 0.0
H195 H 0.52798 0.17194 0.67688 0.0
H196 H 0.47013 0.21082 0.60443 0.0
C197 C 0.46825 0.28393 0.72994 0.0
C198 C 0.48371 0.31917 0.72639 0.0
C199 C 0.46637 0.26479 0.68697 0.0
C200 C 0.4803 0.28134 0.64047 0.0
C201 C 0.49681 0.31654 0.63755 0.0
C202 C 0.49894 0.33513 0.68061 0.0
C203 C 0.44687 0.2268 0.68951 0.0
C204 C 0.47034 0.21236 0.68618 0.0
C205 C 0.48211 0.20454 0.73047 0.0
C206 C 0.50303 0.18998 0.72748 0.0
C207 C 0.51293 0.18435 0.6796 0.0
C208 C 0.50119 0.19179 0.6351 0.0
C209 C 0.47986 0.20573 0.63866 0.0
H210 H 0.12727 0.50435 -0.00189 0.0
H211 H 0.05058 0.4063 0.05008 0.0
H212 H 0.08956 0.40514 0.11225 0.0
H213 H 0.14157 0.43597 0.1608 0.0
H214 H 0.21565 0.5371 0.11584 0.0
H215 H 0.18234 0.53286 0.04138 0.0
C216 C 0.11969 0.48227 0.02182 0.0
C217 C 0.08638 0.45525 0.01938 0.0
C218 C 0.14167 0.48263 0.05934 0.0
C219 C 0.07629 0.42715 0.05115 0.0
C220 C 0.09846 0.42664 0.08693 0.0
C221 C 0.15066 0.45693 0.13432 0.0
C222 C 0.18083 0.48696 0.14442 0.0
C223 C 0.13063 0.45488 0.09288 0.0
C224 C 0.19262 0.51361 0.1091 0.0
C225 C 0.17337 0.51133 0.06667 0.0
H226 H 0.60789 0.08684 0.49565 0.0
H227 H 0.54333 0.03697 0.62503 0.0
H228 H 0.58922 0.07316 0.68172 0.0
H229 H 0.6469 0.11861 0.69408 0.0
H230 H 0.71291 0.16678 0.5657 0.0
H231 H 0.66628 0.13219 0.50828 0.0
C232 C 0.60379 0.08377 0.53628 0.0
C233 C 0.5722 0.05916 0.5562 0.0
C234 C 0.63023 0.10455 0.56844 0.0
C235 C 0.5674 0.05551 0.60883 0.0
C236 C 0.59354 0.07632 0.64115 0.0
C237 C 0.6513 0.12132 0.65346 0.0
C238 C 0.6835 0.14466 0.63396 0.0
C239 C 0.62494 0.10082 0.62127 0.0
C240 C 0.68842 0.14883 0.58142 0.0
C241 C 0.66188 0.12893 0.5488 0.0
H242 H 0.5901 0.62217 0.01997 0.0
H243 H 0.48705 0.5965 -0.00866 0.0
H244 H 0.4953 0.64656 0.03728 0.0
H245 H 0.52951 0.69246 0.09611 0.0
H246 H 0.63341 0.71947 0.12177 0.0
H247 H 0.62761 0.67475 0.06511 0.0
C248 C 0.56979 0.62808 0.02306 0.0
C249 C 0.53799 0.60585 0.00313 0.0
C250 C 0.5749 0.65708 0.04885 0.0
C251 C 0.51174 0.61352 0.00665 0.0
C252 C 0.51643 0.64202 0.03295 0.0
C253 C 0.55126 0.68947 0.08774 0.0
C254 C 0.58166 0.70883 0.11382 0.0
C255 C 0.54762 0.66342 0.05556 0.0
C256 C 0.60959 0.70451 0.10265 0.0
C257 C 0.60623 0.67878 0.0706 0.0
H258 H 0.93192 0.53125 0.53032 0.0
H259 H 1.01695 0.59536 0.62389 0.0
H260 H 0.98334 0.61692 0.6656 0.0
H261 H 0.92793 0.61079 0.68423 0.0
H262 H 0.84065 0.53865 0.60257 0.0
H263 H 0.87715 0.52858 0.54471 0.0
C264 C 0.94323 0.5503 0.55938 0.0
C265 C 0.97676 0.56148 0.57448 0.0
C266 C 0.9234 0.56163 0.58433 0.0
C267 C 0.99106 0.58602 0.61225 0.0
C268 C 0.97194 0.59853 0.63574 0.0
C269 C 0.91722 0.5942 0.65202 0.0
C270 C 0.88187 0.57583 0.6469 0.0
C271 C 0.93787 0.58582 0.62303 0.0
C272 C 0.86785 0.55355 0.60633 0.0
C273 C 0.88868 0.54719 0.57424 0.0
H274 H 0.42184 0.90079 0.95674 0.0
H275 H 0.40785 0.98307 0.00605 0.0
H276 H 0.36081 0.94489 0.06085 0.0
H277 H 0.33096 0.8908 0.10564 0.0
H278 H 0.34878 0.8097 0.06292 0.0
H279 H 0.38612 0.84416 -0.006 0.0
C280 C 0.40761 0.90999 -0.02189 0.0
C281 C 0.41816 0.94459 -0.02249 0.0
C282 C 0.38159 0.88813 0.01142 0.0
C283 C 0.40005 0.95647 0.00603 0.0
C284 C 0.37334 0.93471 0.03762 0.0
C285 C 0.34256 0.88049 0.08064 0.0
C286 C 0.33747 0.84794 0.0899 0.0
C287 C 0.36503 0.90088 0.04243 0.0
C288 C 0.35216 0.83465 0.05664 0.0
C289 C 0.37382 0.85449 0.01747 0.0
H290 H 0.57441 0.43911 0.49612 0.0
H291 H 0.47492 0.42858 0.4925 0.0
H292 H 0.45047 0.37208 0.5292 0.0
H293 H 0.45921 0.33167 0.57821 0.0
H294 H 0.55935 0.34547 0.59346 0.0
H295 H 0.58185 0.39386 0.53521 0.0
C296 C 0.5473 0.42385 0.50197 0.0
C297 C 0.52635 0.43767 0.492 0.0
C298 C 0.53368 0.39202 0.52548 0.0
C299 C 0.49135 0.41822 0.50027 0.0
C300 C 0.47742 0.38602 0.5213 0.0
C301 C 0.48565 0.34439 0.56667 0.0
C302 C 0.50762 0.33505 0.58917 0.0
C303 C 0.49854 0.37338 0.53625 0.0
C304 C 0.54202 0.35206 0.57559 0.0
C305 C 0.55489 0.38001 0.54302 0.0
H306 H 0.51601 0.92766 0.40641 0.0
H307 H 0.6033 0.01554 0.34504 0.0
H308 H 0.62694 0.98048 0.31619 0.0
H309 H 0.61814 0.92453 0.29628 0.0
H310 H 0.5249 0.83654 0.34115 0.0
H311 H 0.50966 0.8715 0.39259 0.0
C312 C 0.54043 0.93914 0.38731 0.0
C313 C 0.55773 0.97401 0.3771 0.0
C314 C 0.55307 0.91865 0.3689 0.0
C315 C 0.58929 0.98866 0.35237 0.0
C316 C 0.60291 0.96867 0.33632 0.0
C317 C 0.59492 0.91293 0.31858 0.0
C318 C 0.57222 0.87815 0.31353 0.0
C319 C 0.58443 0.93354 0.34279 0.0
C320 C 0.54276 0.86323 0.3438 0.0
C321 C 0.53362 0.88338 0.37226 0.0
H322 H 0.63454 0.5777 -0.0271 0.0
H323 H 0.59722 0.47073 -0.02996 0.0
H324 H 0.65107 0.4802 0.93404 0.0
H325 H 0.70402 0.5187 0.88859 0.0
H326 H 0.7417 0.62565 0.89307 0.0
H327 H 0.69325 0.61679 0.94516 0.0
C328 C 0.63873 0.55665 0.96562 0.0
C329 C 0.61219 0.52363 -0.02674 0.0
C330 C 0.66983 0.56236 0.94551 0.0
C331 C 0.61754 0.49635 0.96422 0.0
C332 C 0.64823 0.50177 0.94354 0.0
C333 C 0.70243 0.54004 0.9034 0.0
C334 C 0.72624 0.57273 0.88746 0.0
C335 C 0.67403 0.53461 0.93214 0.0
C336 C 0.72382 0.60032 0.90574 0.0
C337 C 0.69579 0.5952 0.93466 0.0
H338 H 0.11018 0.60258 0.42282 0.0
H339 H 0.02408 0.59953 0.35032 0.0
H340 H 0.06183 0.65024 0.30124 0.0
H341 H 0.1189 0.69009 0.27126 0.0
H342 H 0.20401 0.68408 0.33041 0.0
H343 H 0.16763 0.64461 0.39558 0.0
C344 C 0.09972 0.61334 0.3967 0.0
C345 C 0.06453 0.59739 0.38965 0.0
C346 C 0.12157 0.64138 0.36709 0.0
C347 C 0.05115 0.61124 0.35564 0.0
C348 C 0.07269 0.6403 0.32799 0.0
C349 C 0.12961 0.68047 0.29887 0.0
C350 C 0.16396 0.68926 0.29473 0.0
C351 C 0.10794 0.65489 0.33231 0.0
C352 C 0.17772 0.67775 0.33216 0.0
C353 C 0.15673 0.65453 0.36886 0.0
H354 H 0.55577 0.12311 0.88391 0.0
H355 H 0.45185 0.07617 0.93356 0.0
H356 H 0.44181 0.11276 0.87646 0.0
H357 H 0.46097 0.15258 0.80445 0.0
H358 H 0.56456 0.1977 0.75256 0.0
H359 H 0.57664 0.16774 0.81873 0.0
C360 C 0.53125 0.12172 0.88311 0.0
C361 C 0.50464 0.09753 0.913 0.0
C362 C 0.52559 0.1422 0.84935 0.0
C363 C 0.47272 0.09512 0.91123 0.0
C364 C 0.46698 0.11582 0.87836 0.0
C365 C 0.48641 0.15658 0.80856 0.0
C366 C 0.51178 0.17713 0.77341 0.0
C367 C 0.49297 0.13873 0.84611 0.0
C368 C 0.54453 0.18171 0.77882 0.0
C369 C 0.55143 0.16458 0.81659 0.0
H370 H 0.45613 0.55818 0.46686 0.0
H371 H 0.45364 0.46726 0.41632 0.0
H372 H 0.40193 0.45149 0.36924 0.0
H373 H 0.36174 0.46671 0.33465 0.0
H374 H 0.36938 0.56197 0.37368 0.0
H375 H 0.41334 0.5721 0.43492 0.0
C376 C 0.4438 0.53468 0.44618 0.0
C377 C 0.4585 0.51388 0.44473 0.0
C378 C 0.41489 0.52654 0.41732 0.0
C379 C 0.44275 0.48368 0.41749 0.0
C380 C 0.41321 0.47467 0.39072 0.0
C381 C 0.37286 0.48965 0.35673 0.0
C382 C 0.36262 0.51379 0.34869 0.0
C383 C 0.39971 0.49641 0.3891 0.0
C384 C 0.37656 0.54283 0.37896 0.0
C385 C 0.40213 0.54889 0.41354 0.0
H386 H 0.96379 0.36256 0.93451 0.0
H387 H 0.88967 0.38724 -0.0087 0.0
H388 H 0.84754 0.34663 0.93346 0.0
H389 H 0.83693 0.31497 0.85377 0.0
H390 H 0.91219 0.29196 0.79593 0.0
H391 H 0.94866 0.32075 0.86741 0.0
C392 C 0.93799 0.35799 0.93556 0.0
C393 C 0.92985 0.37804 0.96641 0.0
C394 C 0.91441 0.33553 0.90111 0.0
C395 C 0.89642 0.37195 -0.03209 0.0
C396 C 0.87249 0.34909 0.93427 0.0
C397 C 0.86074 0.31515 0.85782 0.0
C398 C 0.87226 0.30212 0.81896 0.0
C399 C 0.88188 0.3323 0.89866 0.0
C400 C 0.90317 0.30254 0.82478 0.0
C401 C 0.92403 0.31899 0.86561 0.0
H402 H 0.92873 0.49053 0.93007 0.0
H403 H 1.00423 0.52501 0.81065 0.0
H404 H 0.97304 0.54697 0.7638 0.0
H405 H 0.92542 0.55701 0.75757 0.0
H406 H 0.84796 0.52047 0.87396 0.0
H407 H 0.87981 0.49959 0.92264 0.0
C408 C 0.93841 0.50281 0.89374 0.0
C409 C 0.96887 0.50617 0.87385 0.0
C410 C 0.92028 0.51524 0.867 0.0
C411 C 0.98087 0.52199 0.82667 0.0
C412 C 0.96313 0.53466 0.80004 0.0
C413 C 0.91502 0.54392 0.79321 0.0
C414 C 0.88385 0.53953 0.81162 0.0
C415 C 0.93291 0.53142 0.81993 0.0
C416 C 0.87169 0.52392 0.85887 0.0
C417 C 0.88981 0.51186 0.88642 0.0
H418 H 0.41092 0.90311 0.42062 0.0
H419 H 0.41211 0.98894 0.3502 0.0
H420 H 0.36839 0.95197 0.29118 0.0
H421 H 0.33581 0.89649 0.25272 0.0
H422 H 0.34074 0.81166 0.31572 0.0
H423 H 0.37481 0.84647 0.38533 0.0
C424 C 0.40084 0.91347 0.39318 0.0
C425 C 0.41444 0.94852 0.38961 0.0
C426 C 0.37692 0.89219 0.35777 0.0
C427 C 0.40185 0.96193 0.35343 0.0
C428 C 0.377 0.94085 0.31963 0.0
C429 C 0.34418 0.88551 0.28176 0.0
C430 C 0.33598 0.85154 0.27831 0.0
C431 C 0.36532 0.9061 0.32024 0.0
C432 C 0.34631 0.8376 0.31726 0.0
C433 C 0.36621 0.85764 0.35694 0.0
H434 H 0.50207 0.4115 0.91418 0.0
H435 H 0.46824 0.45811 0.80384 0.0
H436 H 0.45838 0.41409 0.74327 0.0
H437 H 0.46344 0.36524 0.71929 0.0
H438 H 0.49974 0.31948 0.82657 0.0
H439 H 0.50375 0.35981 0.89138 0.0
C440 C 0.49216 0.41179 0.87709 0.0
C441 C 0.48617 0.43825 0.86342 0.0
C442 C 0.48703 0.38661 0.842 0.0
C443 C 0.47335 0.43825 0.81521 0.0
C444 C 0.46767 0.41307 0.78054 0.0
C445 C 0.47213 0.36403 0.75697 0.0
C446 C 0.48185 0.33989 0.76807 0.0
C447 C 0.47511 0.38763 0.79318 0.0
C448 C 0.49223 0.33795 0.81725 0.0
C449 C 0.49473 0.36113 0.85406 0.0
H450 H 0.06551 0.45574 0.42743 0.0
H451 H 0.13804 0.54876 0.49683 0.0
H452 H 0.18349 0.54955 0.44551 0.0
H453 H 0.20011 0.52878 0.37087 0.0
H454 H 0.12804 0.4338 0.30488 0.0
H455 H 0.08492 0.42873 0.36521 0.0
C456 C 0.09147 0.47561 0.4323 0.0
C457 C 0.0985 0.50229 0.46535 0.0
C458 C 0.11738 0.47589 0.40267 0.0
C459 C 0.13213 0.52786 0.47174 0.0
C460 C 0.15805 0.52849 0.44202 0.0
C461 C 0.1754 0.50635 0.3706 0.0
C462 C 0.16716 0.48225 0.3321 0.0
C463 C 0.15069 0.50334 0.40587 0.0
C464 C 0.13483 0.45338 0.33283 0.0
C465 C 0.11012 0.45035 0.36748 0.0
H466 H 0.61674 0.09764 0.91397 0.0
H467 H 0.59841 1.00945 0.82955 0.0
H468 H 0.65575 0.04026 0.79347 0.0
H469 H 0.7071 0.09422 0.77695 0.0
H470 H 0.71735 0.1843 0.84687 0.0
H471 H 0.6699 0.15025 0.90241 0.0
C472 C 0.62537 0.08496 0.88811 0.0
C473 C 0.60323 0.05151 0.87368 0.0
C474 C 0.65763 0.10311 0.86617 0.0
C475 C 0.6148 0.03542 0.84032 0.0
C476 C 0.64765 0.05292 0.82017 0.0
C477 C 0.69907 0.10653 0.80444 0.0
C478 C 0.71461 0.14205 0.80472 0.0
C479 C 0.66878 0.08714 0.83147 0.0
C480 C 0.70568 0.1572 0.8439 0.0
C481 C 0.67777 0.1377 0.87514 0.0
H482 H 0.55865 0.62973 0.4308 0.0
H483 H 0.63814 0.62114 0.354 0.0
H484 H 0.65112 0.67074 0.3022 0.0
H485 H 0.63493 0.7115 0.27188 0.0
H486 H 0.54828 0.71216 0.33935 0.0
H487 H 0.54476 0.67264 0.40382 0.0
C488 C 0.57924 0.63906 0.40335 0.0
C489 C 0.59728 0.6217 0.3959 0.0
C490 C 0.5855 0.66652 0.37233 0.0
C491 C 0.62371 0.63392 0.36001 0.0
C492 C 0.63115 0.66229 0.33052 0.0
C493 C 0.61524 0.7031 0.30066 0.0
C494 C 0.59142 0.71441 0.29944 0.0
C495 C 0.6114 0.67802 0.33519 0.0
C496 C 0.56716 0.7043 0.33876 0.0
C497 C 0.56468 0.68108 0.3754 0.0
H498 H 0.55001 0.13218 0.46224 0.0
H499 H 0.44257 0.07471 0.43902 0.0
H500 H 0.43376 0.11211 0.49572 0.0
H501 H 0.45563 0.15317 0.5648 0.0
H502 H 0.56241 0.20556 0.59598 0.0
H503 H 0.57277 0.17845 0.5235 0.0
C504 C 0.52491 0.12898 0.46783 0.0
C505 C 0.497 0.10133 0.44597 0.0
C506 C 0.51995 0.14911 0.50319 0.0
C507 C 0.46439 0.09637 0.45479 0.0
C508 C 0.45936 0.11742 0.48778 0.0
C509 C 0.48125 0.15941 0.55465 0.0
C510 C 0.50822 0.18112 0.58565 0.0
C511 C 0.48677 0.14272 0.51421 0.0
C512 C 0.54128 0.18869 0.57273 0.0
C513 C 0.54717 0.17318 0.53138 0.0
H514 H 0.42616 0.5146 0.0258 0.0
H515 H 0.42822 0.43309 0.1057 0.0
H516 H 0.38206 0.4268 0.16097 0.0
H517 H 0.34799 0.45033 0.19471 0.0
H518 H 0.3518 0.53693 0.12212 0.0
H519 H 0.38737 0.53435 0.05451 0.0
C520 C 0.41593 0.49493 0.05454 0.0
C521 C 0.43072 0.47452 0.06207 0.0
C522 C 0.3904 0.49243 0.08753 0.0
C523 C 0.41743 0.44931 0.09961 0.0
C524 C 0.39107 0.44572 0.13118 0.0
C525 C 0.35618 0.46833 0.16363 0.0
C526 C 0.34779 0.49418 0.16407 0.0
C527 C 0.37839 0.46805 0.12678 0.0
C528 C 0.35781 0.51674 0.12285 0.0
C529 C 0.37859 0.51558 0.0845 0.0
H530 H 0.97818 0.40946 0.54061 0.0
H531 H 0.89919 0.42772 0.48812 0.0
H532 H 0.85706 0.37888 0.53667 0.0
H533 H 0.84476 0.33677 0.60398 0.0
H534 H 0.92352 0.31636 0.65183 0.0
H535 H 0.96364 0.36007 0.59466 0.0
C536 C 0.95159 0.40216 0.53894 0.0
C537 C 0.94168 0.42213 0.51146 0.0
C538 C 0.92762 0.374 0.56655 0.0
C539 C 0.90725 0.4125 0.509 0.0
C540 C 0.88325 0.38477 0.53704 0.0
C541 C 0.87036 0.341 0.6008 0.0
C542 C 0.88126 0.32388 0.63349 0.0
C543 C 0.89336 0.36604 0.56736 0.0
C544 C 0.91465 0.32987 0.62845 0.0
C545 C 0.93765 0.35484 0.59565 0.0
H546 H 0.51261 0.92864 0.025 0.0
H547 H 0.59154 0.01893 0.09286 0.0
H548 H 0.61444 0.98601 0.13284 0.0
H549 H 0.61005 0.9315 0.15156 0.0
H550 H 0.52428 0.84041 0.09689 0.0
H551 H 0.50799 0.87389 0.04452 0.0
C552 C 0.53479 0.94106 0.04871 0.0
C553 C 0.55025 0.97602 0.05658 0.0
C554 C 0.5472 0.92193 0.07234 0.0
C555 C 0.57891 0.99193 0.08721 0.0
C556 C 0.59222 0.9732 0.10939 0.0
C557 C 0.58772 0.91883 0.12824 0.0
C558 C 0.56799 0.88335 0.12956 0.0
C559 C 0.57633 0.93816 0.10256 0.0
C560 C 0.54015 0.86754 0.097 0.0
C561 C 0.5303 0.88673 0.06781 0.0
H562 H 0.64846 0.54828 0.55658 0.0
H563 H 0.60285 0.59127 0.65352 0.0
H564 H 0.64722 0.60574 0.71558 0.0
H565 H 0.69657 0.60324 0.74466 0.0
H566 H 0.7407 0.55695 0.65215 0.0
H567 H 0.69997 0.54774 0.58499 0.0
C568 C 0.64839 0.56104 0.59113 0.0
C569 C 0.6222 0.56848 0.60055 0.0
C570 C 0.67377 0.56883 0.62719 0.0
C571 C 0.62247 0.58498 0.64551 0.0
C572 C 0.6479 0.59336 0.68096 0.0
C573 C 0.69732 0.59111 0.70975 0.0
C574 C 0.72118 0.58022 0.70366 0.0
C575 C 0.67327 0.58491 0.67254 0.0
C576 C 0.72252 0.56549 0.65771 0.0
C577 C 0.69906 0.55997 0.61961 0.0
H578 H 0.10106 0.56283 0.02246 0.0
H579 H 1.01617 0.56726 0.08807 0.0
H580 H 0.05436 0.6245 0.11823 0.0
H581 H 0.11197 0.67043 0.13227 0.0
H582 H 0.19676 0.65969 0.0816 0.0
H583 H 0.15858 0.60937 0.03502 0.0
C584 C 0.0909 0.57646 0.04306 0.0
C585 C 0.05599 0.56097 0.05349 0.0
C586 C 0.11302 0.60859 0.06167 0.0
C587 C 0.04306 0.57864 0.08038 0.0
C588 C 0.06482 0.61137 0.09711 0.0
C589 C 0.12221 0.65717 0.11095 0.0
C590 C 0.15725 0.66849 0.11201 0.0
C591 C 0.0999 0.62624 0.08887 0.0
C592 C 0.17008 0.65186 0.08193 0.0
C593 C 0.14813 0.62253 0.05605 0.0
loop_
_geom_bond_atom_site_label_1
_geom_bond_atom_site_label_2
_geom_bond_distance
_geom_bond_site_symmetry_2
_ccdc_geom_bond_type
C0 O2 1.247 . S
C0 O4 1.258 . S
C1 O8 1.247 . S
C1 O9 1.258 1_556 S
O2 C0 1.247 . S
O2 Zn3 2.028 1_455 S
Zn3 O2 2.028 1_655 S
Zn3 O7 2.035 . S
Zn3 O9 2.035 . S
Zn3 O10 2.028 1_655 S
O4 C0 1.258 . S
O4 Zn5 2.035 1_554 S
Zn5 O4 2.035 1_556 S
Zn5 O6 2.028 1_455 S
Zn5 O8 2.028 1_455 S
Zn5 O11 2.035 1_556 S
O6 Zn5 2.028 1_655 S
O6 C12 1.247 . S
O7 Zn3 2.035 . S
O7 C12 1.258 1_554 S
O8 C1 1.247 . S
O8 Zn5 2.028 1_655 S
O9 C1 1.258 1_554 S
O9 Zn3 2.035 . S
O10 Zn3 2.028 1_455 S
O10 C13 1.247 . S
O11 Zn5 2.035 1_554 S
O11 C13 1.258 . S
C12 O6 1.247 . S
C12 O7 1.258 1_556 S
C13 O10 1.247 . S
C13 O11 1.258 . S
C14 O16 1.247 . S
C14 O18 1.258 . S
C15 O22 1.247 . S
C15 O23 1.258 . S
O16 C14 1.247 . S
O16 Zn17 2.028 1_545 S
Zn17 O16 2.028 1_565 S
Zn17 O21 2.035 . S
Zn17 O23 2.035 . S
Zn17 O24 2.028 1_565 S
O18 C14 1.258 . S
O18 Zn19 2.035 . S
Zn19 O18 2.035 . S
Zn19 O20 2.028 1_545 S
Zn19 O22 2.028 1_545 S
Zn19 O25 2.035 . S
O20 Zn19 2.028 1_565 S
O20 C26 1.247 . S
O21 Zn17 2.035 . S
O21 C26 1.258 . S
O22 C15 1.247 . S
O22 Zn19 2.028 1_565 S
O23 C15 1.258 . S
O23 Zn17 2.035 . S
O24 Zn17 2.028 1_545 S
O24 C27 1.247 . S
O25 Zn19 2.035 . S
O25 C27 1.258 . S
C26 O20 1.247 . S
C26 O21 1.258 . S
C27 O24 1.247 . S
C27 O25 1.258 . S
C28 O30 1.247 . S
C28 O32 1.258 1_556 S
C29 O36 1.247 . S
C29 O37 1.258 . S
O30 C28 1.247 . S
O30 Zn31 2.028 . S
Zn31 O30 2.028 . S
Zn31 O35 2.035 1_556 S
Zn31 O37 2.035 1_556 S
Zn31 O38 2.028 . S
O32 C28 1.258 1_554 S
O32 Zn33 2.035 . S
Zn33 O32 2.035 . S
Zn33 O34 2.028 . S
Zn33 O36 2.028 . S
Zn33 O39 2.035 . S
O34 Zn33 2.028 . S
O34 C40 1.247 . S
O35 Zn31 2.035 1_554 S
O35 C40 1.258 . S
O36 C29 1.247 . S
O36 Zn33 2.028 . S
O37 C29 1.258 . S
O37 Zn31 2.035 1_554 S
O38 Zn31 2.028 . S
O38 C41 1.247 . S
O39 Zn33 2.035 . S
O39 C41 1.258 1_554 S
C40 O34 1.247 . S
C40 O35 1.258 . S
C41 O38 1.247 . S
C41 O39 1.258 1_556 S
C42 O44 1.247 . S
C42 O46 1.258 . S
C43 O50 1.247 . S
C43 O51 1.258 . S
O44 C42 1.247 . S
O44 Zn45 2.028 . S
Zn45 O44 2.028 . S
Zn45 O49 2.035 1_455 S
Zn45 O51 2.035 1_455 S
Zn45 O52 2.028 . S
O46 C42 1.258 . S
O46 Zn47 2.035 1_455 S
Zn47 O46 2.035 1_655 S
Zn47 O48 2.028 . S
Zn47 O50 2.028 . S
Zn47 O53 2.035 1_655 S
O48 Zn47 2.028 . S
O48 C54 1.247 . S
O49 Zn45 2.035 1_655 S
O49 C54 1.258 . S
O50 C43 1.247 . S
O50 Zn47 2.028 . S
O51 C43 1.258 . S
O51 Zn45 2.035 1_655 S
O52 Zn45 2.028 . S
O52 C55 1.247 . S
O53 Zn47 2.035 1_455 S
O53 C55 1.258 . S
C54 O48 1.247 . S
C54 O49 1.258 . S
C55 O52 1.247 . S
C55 O53 1.258 . S
C56 O58 1.247 . S
C56 O60 1.246 1_554 S
C57 O64 1.247 . S
C57 O65 1.258 1_556 S
O58 C56 1.247 . S
O58 Zn59 2.028 1_565 S
Zn59 O58 2.028 1_545 S
Zn59 O63 2.035 . S
Zn59 O65 2.035 . S
Zn59 O66 2.028 1_545 S
O60 C56 1.246 1_556 S
O60 Zn61 2.042 . S
Zn61 O60 2.042 . S
Zn61 O62 2.028 1_565 S
Zn61 O64 2.028 1_565 S
Zn61 O67 2.039 . S
O62 Zn61 2.028 1_545 S
O62 C68 1.247 . S
O63 Zn59 2.035 . S
O63 C68 1.258 1_554 S
O64 C57 1.247 . S
O64 Zn61 2.028 1_545 S
O65 C57 1.258 1_554 S
O65 Zn59 2.035 . S
O66 Zn59 2.028 1_565 S
O66 C69 1.247 . S
O67 Zn61 2.039 . S
O67 C69 1.251 1_556 S
C68 O62 1.247 . S
C68 O63 1.258 1_556 S
C69 O66 1.247 . S
C69 O67 1.251 1_554 S
C70 O72 1.247 . S
C70 O74 1.258 . S
C71 O78 1.247 . S
C71 O79 1.258 . S
O72 C70 1.247 . S
O72 Zn73 2.028 . S
Zn73 O72 2.028 . S
Zn73 O77 2.035 . S
Zn73 O79 2.035 . S
Zn73 O80 2.028 . S
O74 C70 1.258 . S
O74 Zn75 2.035 . S
Zn75 O74 2.035 . S
Zn75 O76 2.028 . S
Zn75 O78 2.028 . S
Zn75 O81 2.035 . S
O76 Zn75 2.028 . S
O76 C82 1.247 . S
O77 Zn73 2.035 . S
O77 C82 1.258 . S
O78 C71 1.247 . S
O78 Zn75 2.028 . S
O79 C71 1.258 . S
O79 Zn73 2.035 . S
O80 Zn73 2.028 . S
O80 C83 1.247 . S
O81 Zn75 2.035 . S
O81 C83 1.258 . S
C82 O76 1.247 . S
C82 O77 1.258 . S
C83 O80 1.247 . S
C83 O81 1.258 . S
H84 C92 0.930 . S
H85 C95 0.930 . S
H86 C97 0.930 . S
H87 C98 0.970 . S
H88 C98 0.970 . S
H89 C100 0.930 . S
H90 C102 0.930 . S
H91 C104 0.930 . S
C92 H84 0.930 . S
C92 C93 1.382 . S
C92 C94 1.426 . S
C93 C92 1.382 . S
C93 C97 1.389 . S
C94 C92 1.426 . S
C94 C95 1.375 . S
C94 C98 1.532 . S
C95 H85 0.930 . S
C95 C94 1.375 . S
C95 C96 1.416 . S
C96 C95 1.416 . S
C96 C97 1.371 . S
C97 H86 0.930 . S
C97 C93 1.389 . S
C97 C96 1.371 . S
C98 H87 0.970 . S
C98 H88 0.970 . S
C98 C94 1.532 . S
C98 C99 1.499 . S
C99 C98 1.499 . S
C99 C100 1.370 . S
C99 C104 1.415 . S
C100 H89 0.930 . S
C100 C99 1.370 . S
C100 C101 1.407 . S
C101 C100 1.407 . S
C101 C102 1.365 . S
C102 H90 0.930 . S
C102 C101 1.365 . S
C102 C103 1.393 . S
C103 C102 1.393 . S
C103 C104 1.387 . S
C104 H91 0.930 . S
C104 C99 1.415 . S
C104 C103 1.387 . S
H105 C113 0.930 . S
H106 C116 0.930 . S
H107 C118 0.930 . S
H108 C119 0.970 . S
H109 C119 0.970 . S
H110 C121 0.930 . S
H111 C123 0.930 . S
H112 C125 0.930 . S
C113 H105 0.930 . S
C113 C114 1.382 . S
C113 C115 1.426 . S
C114 C113 1.382 . S
C114 C118 1.389 . S
C115 C113 1.426 . S
C115 C116 1.375 . S
C115 C119 1.532 . S
C116 H106 0.930 . S
C116 C115 1.375 . S
C116 C117 1.416 . S
C117 C116 1.416 . S
C117 C118 1.371 . S
C118 H107 0.930 . S
C118 C114 1.389 . S
C118 C117 1.371 . S
C119 H108 0.970 . S
C119 H109 0.970 . S
C119 C115 1.532 . S
C119 C120 1.499 . S
C120 C119 1.499 . S
C120 C121 1.370 . S
C120 C125 1.415 . S
C121 H110 0.930 . S
C121 C120 1.370 . S
C121 C122 1.407 . S
C122 C121 1.407 . S
C122 C123 1.365 . S
C123 H111 0.930 . S
C123 C122 1.365 . S
C123 C124 1.393 . S
C124 C123 1.393 . S
C124 C125 1.387 . S
C125 H112 0.930 . S
C125 C120 1.415 . S
C125 C124 1.387 . S
H126 C134 0.930 . S
H127 C137 0.930 . S
H128 C139 0.930 . S
H129 C140 0.970 . S
H130 C140 0.970 . S
H131 C142 0.930 . S
H132 C144 0.930 . S
H133 C146 0.930 . S
C134 H126 0.930 . S
C134 C135 1.382 . S
C134 C136 1.426 . S
C135 C134 1.382 . S
C135 C139 1.389 . S
C136 C134 1.426 . S
C136 C137 1.375 . S
C136 C140 1.532 . S
C137 H127 0.930 . S
C137 C136 1.375 . S
C137 C138 1.416 . S
C138 C137 1.416 . S
C138 C139 1.371 . S
C139 H128 0.930 . S
C139 C135 1.389 . S
C139 C138 1.371 . S
C140 H129 0.970 . S
C140 H130 0.970 . S
C140 C136 1.532 . S
C140 C141 1.499 . S
C141 C140 1.499 . S
C141 C142 1.370 . S
C141 C146 1.415 . S
C142 H131 0.930 . S
C142 C141 1.370 . S
C142 C143 1.407 . S
C143 C142 1.407 . S
C143 C144 1.365 . S
C144 H132 0.930 . S
C144 C143 1.365 . S
C144 C145 1.393 . S
C145 C144 1.393 . S
C145 C146 1.387 . S
C146 H133 0.930 . S
C146 C141 1.415 . S
C146 C145 1.387 . S
H147 C155 0.930 . S
H148 C158 0.930 . S
H149 C160 0.930 . S
H150 C161 0.970 . S
H151 C161 0.970 . S
H152 C163 0.930 . S
H153 C165 0.930 . S
H154 C167 0.930 . S
C155 H147 0.930 . S
C155 C156 1.382 . S
C155 C157 1.426 . S
C156 C155 1.382 . S
C156 C160 1.389 . S
C157 C155 1.426 . S
C157 C158 1.375 . S
C157 C161 1.532 . S
C158 H148 0.930 . S
C158 C157 1.375 . S
C158 C159 1.416 . S
C159 C158 1.416 . S
C159 C160 1.371 . S
C160 H149 0.930 . S
C160 C156 1.389 . S
C160 C159 1.371 . S
C161 H150 0.970 . S
C161 H151 0.970 . S
C161 C157 1.532 . S
C161 C162 1.499 . S
C162 C161 1.499 . S
C162 C163 1.370 . S
C162 C167 1.415 . S
C163 H152 0.930 . S
C163 C162 1.370 . S
C163 C164 1.407 . S
C164 C163 1.407 . S
C164 C165 1.365 . S
C165 H153 0.930 . S
C165 C164 1.365 . S
C165 C166 1.393 . S
C166 C165 1.393 . S
C166 C167 1.387 . S
C167 H154 0.930 . S
C167 C162 1.415 . S
C167 C166 1.387 . S
H168 C176 0.930 . S
H169 C179 0.930 . S
H170 C181 0.930 . S
H171 C182 0.970 . S
H172 C182 0.970 . S
H173 C184 0.930 . S
H174 C186 0.930 . S
H175 C188 0.930 . S
C176 H168 0.930 . S
C176 C177 1.382 . S
C176 C178 1.426 . S
C177 C176 1.382 . S
C177 C181 1.389 . S
C178 C176 1.426 . S
C178 C179 1.375 . S
C178 C182 1.532 . S
C179 H169 0.930 . S
C179 C178 1.375 . S
C179 C180 1.416 . S
C180 C179 1.416 . S
C180 C181 1.371 . S
C181 H170 0.930 . S
C181 C177 1.389 . S
C181 C180 1.371 . S
C182 H171 0.970 . S
C182 H172 0.970 . S
C182 C178 1.532 . S
C182 C183 1.499 . S
C183 C182 1.499 . S
C183 C184 1.370 . S
C183 C188 1.415 . S
C184 H173 0.930 . S
C184 C183 1.370 . S
C184 C185 1.407 . S
C185 C184 1.407 . S
C185 C186 1.365 . S
C186 H174 0.930 . S
C186 C185 1.365 . S
C186 C187 1.393 . S
C187 C186 1.393 . S
C187 C188 1.387 . S
C188 H175 0.930 . S
C188 C183 1.415 . S
C188 C187 1.387 . S
H189 C197 0.930 . S
H190 C200 0.930 . S
H191 C202 0.930 . S
H192 C203 0.970 . S
H193 C203 0.970 . S
H194 C205 0.930 . S
H195 C207 0.930 . S
H196 C209 0.930 . S
C197 H189 0.930 . S
C197 C198 1.382 . S
C197 C199 1.426 . S
C198 C197 1.382 . S
C198 C202 1.389 . S
C199 C197 1.426 . S
C199 C200 1.375 . S
C199 C203 1.532 . S
C200 H190 0.930 . S
C200 C199 1.375 . S
C200 C201 1.416 . S
C201 C200 1.416 . S
C201 C202 1.371 . S
C202 H191 0.930 . S
C202 C198 1.389 . S
C202 C201 1.371 . S
C203 H192 0.970 . S
C203 H193 0.970 . S
C203 C199 1.532 . S
C203 C204 1.499 . S
C204 C203 1.499 . S
C204 C205 1.370 . S
C204 C209 1.415 . S
C205 H194 0.930 . S
C205 C204 1.370 . S
C205 C206 1.407 . S
C206 C205 1.407 . S
C206 C207 1.365 . S
C207 H195 0.930 . S
C207 C206 1.365 . S
C207 C208 1.393 . S
C208 C207 1.393 . S
C208 C209 1.387 . S
C209 H196 0.930 . S
C209 C204 1.415 . S
C209 C208 1.387 . S
H210 C216 0.930 . S
H211 C219 0.930 . S
H212 C220 0.930 . S
H213 C221 0.930 . S
H214 C224 0.930 . S
H215 C225 0.930 . S
C216 H210 0.930 . S
C216 C217 1.355 . S
C216 C218 1.415 . S
C217 C216 1.355 . S
C217 C219 1.419 . S
C218 C216 1.415 . S
C218 C223 1.425 . S
C218 C225 1.409 . S
C219 H211 0.930 . S
C219 C217 1.419 . S
C219 C220 1.362 . S
C220 H212 0.930 . S
C220 C219 1.362 . S
C220 C223 1.409 . S
C221 H213 0.930 . S
C221 C222 1.355 . S
C221 C223 1.415 . S
C222 C221 1.355 . S
C222 C224 1.419 . S
C223 C218 1.425 . S
C223 C220 1.409 . S
C223 C221 1.415 . S
C224 H214 0.930 . S
C224 C222 1.419 . S
C224 C225 1.362 . S
C225 H215 0.930 . S
C225 C218 1.409 . S
C225 C224 1.362 . S
H226 C232 0.930 . S
H227 C235 0.930 . S
H228 C236 0.930 . S
H229 C237 0.930 . S
H230 C240 0.930 . S
H231 C241 0.930 . S
C232 H226 0.930 . S
C232 C233 1.355 . S
C232 C234 1.415 . S
C233 C232 1.355 . S
C233 C235 1.419 . S
C234 C232 1.415 . S
C234 C239 1.425 . S
C234 C241 1.409 . S
C235 H227 0.930 . S
C235 C233 1.419 . S
C235 C236 1.362 . S
C236 H228 0.930 . S
C236 C235 1.362 . S
C236 C239 1.409 . S
C237 H229 0.930 . S
C237 C238 1.355 . S
C237 C239 1.415 . S
C238 C237 1.355 . S
C238 C240 1.419 . S
C239 C234 1.425 . S
C239 C236 1.409 . S
C239 C237 1.415 . S
C240 H230 0.930 . S
C240 C238 1.419 . S
C240 C241 1.362 . S
C241 H231 0.930 . S
C241 C234 1.409 . S
C241 C240 1.362 . S
H242 C248 0.930 . S
H243 C251 0.930 . S
H244 C252 0.930 . S
H245 C253 0.930 . S
H246 C256 0.930 . S
H247 C257 0.930 . S
C248 H242 0.930 . S
C248 C249 1.355 . S
C248 C250 1.415 . S
C249 C248 1.355 . S
C249 C251 1.419 . S
C250 C248 1.415 . S
C250 C255 1.425 . S
C250 C257 1.409 . S
C251 H243 0.930 . S
C251 C249 1.419 . S
C251 C252 1.362 . S
C252 H244 0.930 . S
C252 C251 1.362 . S
C252 C255 1.409 . S
C253 H245 0.930 . S
C253 C254 1.355 . S
C253 C255 1.415 . S
C254 C253 1.355 . S
C254 C256 1.419 . S
C255 C250 1.425 . S
C255 C252 1.409 . S
C255 C253 1.415 . S
C256 H246 0.930 . S
C256 C254 1.419 . S
C256 C257 1.362 . S
C257 H247 0.930 . S
C257 C250 1.409 . S
C257 C256 1.362 . S
H258 C264 0.930 . S
H259 C267 0.930 . S
H260 C268 0.930 . S
H261 C269 0.930 . S
H262 C272 0.930 . S
H263 C273 0.930 . S
C264 H258 0.930 . S
C264 C265 1.355 . S
C264 C266 1.415 . S
C265 C264 1.355 . S
C265 C267 1.419 . S
C266 C264 1.415 . S
C266 C271 1.425 . S
C266 C273 1.409 . S
C267 H259 0.930 . S
C267 C265 1.419 . S
C267 C268 1.362 . S
C268 H260 0.930 . S
C268 C267 1.362 . S
C268 C271 1.409 . S
C269 H261 0.930 . S
C269 C270 1.355 . S
C269 C271 1.415 . S
C270 C269 1.355 . S
C270 C272 1.419 . S
C271 C266 1.425 . S
C271 C268 1.409 . S
C271 C269 1.415 . S
C272 H262 0.930 . S
C272 C270 1.419 . S
C272 C273 1.362 . S
C273 H263 0.930 . S
C273 C266 1.409 . S
C273 C272 1.362 . S
H274 C280 0.930 . S
H275 C283 0.930 . S
H276 C284 0.930 . S
H277 C285 0.930 . S
H278 C288 0.930 . S
H279 C289 0.930 . S
C280 H274 0.930 . S
C280 C281 1.355 . S
C280 C282 1.415 . S
C281 C280 1.355 . S
C281 C283 1.419 . S
C282 C280 1.415 . S
C282 C287 1.425 . S
C282 C289 1.409 . S
C283 H275 0.930 . S
C283 C281 1.419 . S
C283 C284 1.362 . S
C284 H276 0.930 . S
C284 C283 1.362 . S
C284 C287 1.409 . S
C285 H277 0.930 . S
C285 C286 1.355 . S
C285 C287 1.415 . S
C286 C285 1.355 . S
C286 C288 1.419 . S
C287 C282 1.425 . S
C287 C284 1.409 . S
C287 C285 1.415 . S
C288 H278 0.930 . S
C288 C286 1.419 . S
C288 C289 1.362 . S
C289 H279 0.930 . S
C289 C282 1.409 . S
C289 C288 1.362 . S
H290 C296 0.930 . S
H291 C299 0.930 . S
H292 C300 0.930 . S
H293 C301 0.930 . S
H294 C304 0.930 . S
H295 C305 0.930 . S
C296 H290 0.930 . S
C296 C297 1.355 . S
C296 C298 1.415 . S
C297 C296 1.355 . S
C297 C299 1.419 . S
C298 C296 1.415 . S
C298 C303 1.425 . S
C298 C305 1.409 . S
C299 H291 0.930 . S
C299 C297 1.419 . S
C299 C300 1.362 . S
C300 H292 0.930 . S
C300 C299 1.362 . S
C300 C303 1.409 . S
C301 H293 0.930 . S
C301 C302 1.355 . S
C301 C303 1.415 . S
C302 C301 1.355 . S
C302 C304 1.419 . S
C303 C298 1.425 . S
C303 C300 1.409 . S
C303 C301 1.415 . S
C304 H294 0.930 . S
C304 C302 1.419 . S
C304 C305 1.362 . S
C305 H295 0.930 . S
C305 C298 1.409 . S
C305 C304 1.362 . S
H306 C312 0.930 . S
H307 C315 0.930 . S
H308 C316 0.930 . S
H309 C317 0.930 . S
H310 C320 0.930 . S
H311 C321 0.930 . S
C312 H306 0.930 . S
C312 C313 1.355 . S
C312 C314 1.415 . S
C313 C312 1.355 . S
C313 C315 1.419 . S
C314 C312 1.415 . S
C314 C319 1.425 . S
C314 C321 1.409 . S
C315 H307 0.930 . S
C315 C313 1.419 . S
C315 C316 1.362 . S
C316 H308 0.930 . S
C316 C315 1.362 . S
C316 C319 1.409 . S
C317 H309 0.930 . S
C317 C318 1.355 . S
C317 C319 1.415 . S
C318 C317 1.355 . S
C318 C320 1.419 . S
C319 C314 1.425 . S
C319 C316 1.409 . S
C319 C317 1.415 . S
C320 H310 0.930 . S
C320 C318 1.419 . S
C320 C321 1.362 . S
C321 H311 0.930 . S
C321 C314 1.409 . S
C321 C320 1.362 . S
H322 C328 0.930 . S
H323 C331 0.930 1_554 S
H324 C332 0.930 . S
H325 C333 0.930 . S
H326 C336 0.930 . S
H327 C337 0.930 . S
C328 H322 0.930 . S
C328 C329 1.355 . S
C328 C330 1.415 . S
C329 C328 1.355 . S
C329 C331 1.419 . S
C330 C328 1.415 . S
C330 C335 1.425 . S
C330 C337 1.409 . S
C331 H323 0.930 1_556 S
C331 C329 1.419 . S
C331 C332 1.362 . S
C332 H324 0.930 . S
C332 C331 1.362 . S
C332 C335 1.409 . S
C333 H325 0.930 . S
C333 C334 1.355 . S
C333 C335 1.415 . S
C334 C333 1.355 . S
C334 C336 1.419 . S
C335 C330 1.425 . S
C335 C332 1.409 . S
C335 C333 1.415 . S
C336 H326 0.930 . S
C336 C334 1.419 . S
C336 C337 1.362 . S
C337 H327 0.930 . S
C337 C330 1.409 . S
C337 C336 1.362 . S
H338 C344 0.930 . S
H339 C347 0.930 . S
H340 C348 0.930 . S
H341 C349 0.930 . S
H342 C352 0.930 . S
H343 C353 0.930 . S
C344 H338 0.930 . S
C344 C345 1.355 . S
C344 C346 1.415 . S
C345 C344 1.355 . S
C345 C347 1.419 . S
C346 C344 1.415 . S
C346 C351 1.425 . S
C346 C353 1.409 . S
C347 H339 0.930 . S
C347 C345 1.419 . S
C347 C348 1.362 . S
C348 H340 0.930 . S
C348 C347 1.362 . S
C348 C351 1.409 . S
C349 H341 0.930 . S
C349 C350 1.355 . S
C349 C351 1.415 . S
C350 C349 1.355 . S
C350 C352 1.419 . S
C351 C346 1.425 . S
C351 C348 1.409 . S
C351 C349 1.415 . S
C352 H342 0.930 . S
C352 C350 1.419 . S
C352 C353 1.362 . S
C353 H343 0.930 . S
C353 C346 1.409 . S
C353 C352 1.362 . S
H354 C360 0.930 . S
H355 C363 0.930 . S
H356 C364 0.930 . S
H357 C365 0.930 . S
H358 C368 0.930 . S
H359 C369 0.930 . S
C360 H354 0.930 . S
C360 C361 1.355 . S
C360 C362 1.415 . S
C361 C360 1.355 . S
C361 C363 1.419 . S
C362 C360 1.415 . S
C362 C367 1.425 . S
C362 C369 1.409 . S
C363 H355 0.930 . S
C363 C361 1.419 . S
C363 C364 1.362 . S
C364 H356 0.930 . S
C364 C363 1.362 . S
C364 C367 1.409 . S
C365 H357 0.930 . S
C365 C366 1.355 . S
C365 C367 1.415 . S
C366 C365 1.355 . S
C366 C368 1.419 . S
C367 C362 1.425 . S
C367 C364 1.409 . S
C367 C365 1.415 . S
C368 H358 0.930 . S
C368 C366 1.419 . S
C368 C369 1.362 . S
C369 H359 0.930 . S
C369 C362 1.409 . S
C369 C368 1.362 . S
H370 C376 0.930 . S
H371 C379 0.930 . S
H372 C380 0.930 . S
H373 C381 0.930 . S
H374 C384 0.930 . S
H375 C385 0.930 . S
C376 H370 0.930 . S
C376 C377 1.355 . S
C376 C378 1.415 . S
C377 C376 1.355 . S
C377 C379 1.419 . S
C378 C376 1.415 . S
C378 C383 1.425 . S
C378 C385 1.409 . S
C379 H371 0.930 . S
C379 C377 1.419 . S
C379 C380 1.362 . S
C380 H372 0.930 . S
C380 C379 1.362 . S
C380 C383 1.409 . S
C381 H373 0.930 . S
C381 C382 1.355 . S
C381 C383 1.415 . S
C382 C381 1.355 . S
C382 C384 1.419 . S
C383 C378 1.425 . S
C383 C380 1.409 . S
C383 C381 1.415 . S
C384 H374 0.930 . S
C384 C382 1.419 . S
C384 C385 1.362 . S
C385 H375 0.930 . S
C385 C378 1.409 . S
C385 C384 1.362 . S
H386 C392 0.930 . S
H387 C395 0.930 . S
H388 C396 0.930 . S
H389 C397 0.930 . S
H390 C400 0.930 . S
H391 C401 0.930 . S
C392 H386 0.930 . S
C392 C393 1.355 . S
C392 C394 1.415 . S
C393 C392 1.355 . S
C393 C395 1.419 . S
C394 C392 1.415 . S
C394 C399 1.425 . S
C394 C401 1.409 . S
C395 H387 0.930 . S
C395 C393 1.419 . S
C395 C396 1.362 . S
C396 H388 0.930 . S
C396 C395 1.362 . S
C396 C399 1.409 . S
C397 H389 0.930 . S
C397 C398 1.355 . S
C397 C399 1.415 . S
C398 C397 1.355 . S
C398 C400 1.419 . S
C399 C394 1.425 . S
C399 C396 1.409 . S
C399 C397 1.415 . S
C400 H390 0.930 . S
C400 C398 1.419 . S
C400 C401 1.362 . S
C401 H391 0.930 . S
C401 C394 1.409 . S
C401 C400 1.362 . S
H402 C408 0.930 . S
H403 C411 0.930 . S
H404 C412 0.930 . S
H405 C413 0.930 . S
H406 C416 0.930 . S
H407 C417 0.930 . S
C408 H402 0.930 . S
C408 C409 1.355 . S
C408 C410 1.415 . S
C409 C408 1.355 . S
C409 C411 1.419 . S
C410 C408 1.415 . S
C410 C415 1.425 . S
C410 C417 1.409 . S
C411 H403 0.930 . S
C411 C409 1.419 . S
C411 C412 1.362 . S
C412 H404 0.930 . S
C412 C411 1.362 . S
C412 C415 1.409 . S
C413 H405 0.930 . S
C413 C414 1.355 . S
C413 C415 1.415 . S
C414 C413 1.355 . S
C414 C416 1.419 . S
C415 C410 1.425 . S
C415 C412 1.409 . S
C415 C413 1.415 . S
C416 H406 0.930 . S
C416 C414 1.419 . S
C416 C417 1.362 . S
C417 H407 0.930 . S
C417 C410 1.409 . S
C417 C416 1.362 . S
H418 C424 0.930 . S
H419 C427 0.930 . S
H420 C428 0.930 . S
H421 C429 0.930 . S
H422 C432 0.930 . S
H423 C433 0.930 . S
C424 H418 0.930 . S
C424 C425 1.355 . S
C424 C426 1.415 . S
C425 C424 1.355 . S
C425 C427 1.419 . S
C426 C424 1.415 . S
C426 C431 1.425 . S
C426 C433 1.409 . S
C427 H419 0.930 . S
C427 C425 1.419 . S
C427 C428 1.362 . S
C428 H420 0.930 . S
C428 C427 1.362 . S
C428 C431 1.409 . S
C429 H421 0.930 . S
C429 C430 1.355 . S
C429 C431 1.415 . S
C430 C429 1.355 . S
C430 C432 1.419 . S
C431 C426 1.425 . S
C431 C428 1.409 . S
C431 C429 1.415 . S
C432 H422 0.930 . S
C432 C430 1.419 . S
C432 C433 1.362 . S
C433 H423 0.930 . S
C433 C426 1.409 . S
C433 C432 1.362 . S
H434 C440 0.930 . S
H435 C443 0.930 . S
H436 C444 0.930 . S
H437 C445 0.930 . S
H438 C448 0.930 . S
H439 C449 0.930 . S
C440 H434 0.930 . S
C440 C441 1.355 . S
C440 C442 1.415 . S
C441 C440 1.355 . S
C441 C443 1.419 . S
C442 C440 1.415 . S
C442 C447 1.425 . S
C442 C449 1.409 . S
C443 H435 0.930 . S
C443 C441 1.419 . S
C443 C444 1.362 . S
C444 H436 0.930 . S
C444 C443 1.362 . S
C444 C447 1.409 . S
C445 H437 0.930 . S
C445 C446 1.355 . S
C445 C447 1.415 . S
C446 C445 1.355 . S
C446 C448 1.419 . S
C447 C442 1.425 . S
C447 C444 1.409 . S
C447 C445 1.415 . S
C448 H438 0.930 . S
C448 C446 1.419 . S
C448 C449 1.362 . S
C449 H439 0.930 . S
C449 C442 1.409 . S
C449 C448 1.362 . S
H450 C456 0.930 . S
H451 C459 0.930 . S
H452 C460 0.930 . S
H453 C461 0.930 . S
H454 C464 0.930 . S
H455 C465 0.930 . S
C456 H450 0.930 . S
C456 C457 1.355 . S
C456 C458 1.415 . S
C457 C456 1.355 . S
C457 C459 1.419 . S
C458 C456 1.415 . S
C458 C463 1.425 . S
C458 C465 1.409 . S
C459 H451 0.930 . S
C459 C457 1.419 . S
C459 C460 1.362 . S
C460 H452 0.930 . S
C460 C459 1.362 . S
C460 C463 1.409 . S
C461 H453 0.930 . S
C461 C462 1.355 . S
C461 C463 1.415 . S
C462 C461 1.355 . S
C462 C464 1.419 . S
C463 C458 1.425 . S
C463 C460 1.409 . S
C463 C461 1.415 . S
C464 H454 0.930 . S
C464 C462 1.419 . S
C464 C465 1.362 . S
C465 H455 0.930 . S
C465 C458 1.409 . S
C465 C464 1.362 . S
H466 C472 0.930 . S
H467 C475 0.930 1_554 S
H468 C476 0.930 . S
H469 C477 0.930 . S
H470 C480 0.930 . S
H471 C481 0.930 . S
C472 H466 0.930 . S
C472 C473 1.355 . S
C472 C474 1.415 . S
C473 C472 1.355 . S
C473 C475 1.419 . S
C474 C472 1.415 . S
C474 C479 1.425 . S
C474 C481 1.409 . S
C475 H467 0.930 1_556 S
C475 C473 1.419 . S
C475 C476 1.362 . S
C476 H468 0.930 . S
C476 C475 1.362 . S
C476 C479 1.409 . S
C477 H469 0.930 . S
C477 C478 1.355 . S
C477 C479 1.415 . S
C478 C477 1.355 . S
C478 C480 1.419 . S
C479 C474 1.425 . S
C479 C476 1.409 . S
C479 C477 1.415 . S
C480 H470 0.930 . S
C480 C478 1.419 . S
C480 C481 1.362 . S
C481 H471 0.930 . S
C481 C474 1.409 . S
C481 C480 1.362 . S
H482 C488 0.930 . S
H483 C491 0.930 . S
H484 C492 0.930 . S
H485 C493 0.930 . S
H486 C496 0.930 . S
H487 C497 0.930 . S
C488 H482 0.930 . S
C488 C489 1.355 . S
C488 C490 1.415 . S
C489 C488 1.355 . S
C489 C491 1.419 . S
C490 C488 1.415 . S
C490 C495 1.425 . S
C490 C497 1.409 . S
C491 H483 0.930 . S
C491 C489 1.419 . S
C491 C492 1.362 . S
C492 H484 0.930 . S
C492 C491 1.362 . S
C492 C495 1.409 . S
C493 H485 0.930 . S
C493 C494 1.355 . S
C493 C495 1.415 . S
C494 C493 1.355 . S
C494 C496 1.419 . S
C495 C490 1.425 . S
C495 C492 1.409 . S
C495 C493 1.415 . S
C496 H486 0.930 . S
C496 C494 1.419 . S
C496 C497 1.362 . S
C497 H487 0.930 . S
C497 C490 1.409 . S
C497 C496 1.362 . S
H498 C504 0.930 . S
H499 C507 0.930 . S
H500 C508 0.930 . S
H501 C509 0.930 . S
H502 C512 0.930 . S
H503 C513 0.930 . S
C504 H498 0.930 . S
C504 C505 1.355 . S
C504 C506 1.415 . S
C505 C504 1.355 . S
C505 C507 1.419 . S
C506 C504 1.415 . S
C506 C511 1.425 . S
C506 C513 1.409 . S
C507 H499 0.930 . S
C507 C505 1.419 . S
C507 C508 1.362 . S
C508 H500 0.930 . S
C508 C507 1.362 . S
C508 C511 1.409 . S
C509 H501 0.930 . S
C509 C510 1.355 . S
C509 C511 1.415 . S
C510 C509 1.355 . S
C510 C512 1.419 . S
C511 C506 1.425 . S
C511 C508 1.409 . S
C511 C509 1.415 . S
C512 H502 0.930 . S
C512 C510 1.419 . S
C512 C513 1.362 . S
C513 H503 0.930 . S
C513 C506 1.409 . S
C513 C512 1.362 . S
H514 C520 0.930 . S
H515 C523 0.930 . S
H516 C524 0.930 . S
H517 C525 0.930 . S
H518 C528 0.930 . S
H519 C529 0.930 . S
C520 H514 0.930 . S
C520 C521 1.355 . S
C520 C522 1.415 . S
C521 C520 1.355 . S
C521 C523 1.419 . S
C522 C520 1.415 . S
C522 C527 1.425 . S
C522 C529 1.409 . S
C523 H515 0.930 . S
C523 C521 1.419 . S
C523 C524 1.362 . S
C524 H516 0.930 . S
C524 C523 1.362 . S
C524 C527 1.409 . S
C525 H517 0.930 . S
C525 C526 1.355 . S
C525 C527 1.415 . S
C526 C525 1.355 . S
C526 C528 1.419 . S
C527 C522 1.425 . S
C527 C524 1.409 . S
C527 C525 1.415 . S
C528 H518 0.930 . S
C528 C526 1.419 . S
C528 C529 1.362 . S
C529 H519 0.930 . S
C529 C522 1.409 . S
C529 C528 1.362 . S
H530 C536 0.930 . S
H531 C539 0.930 . S
H532 C540 0.930 . S
H533 C541 0.930 . S
H534 C544 0.930 . S
H535 C545 0.930 . S
C536 H530 0.930 . S
C536 C537 1.355 . S
C536 C538 1.415 . S
C537 C536 1.355 . S
C537 C539 1.419 . S
C538 C536 1.415 . S
C538 C543 1.425 . S
C538 C545 1.409 . S
C539 H531 0.930 . S
C539 C537 1.419 . S
C539 C540 1.362 . S
C540 H532 0.930 . S
C540 C539 1.362 . S
C540 C543 1.409 . S
C541 H533 0.930 . S
C541 C542 1.355 . S
C541 C543 1.415 . S
C542 C541 1.355 . S
C542 C544 1.419 . S
C543 C538 1.425 . S
C543 C540 1.409 . S
C543 C541 1.415 . S
C544 H534 0.930 . S
C544 C542 1.419 . S
C544 C545 1.362 . S
C545 H535 0.930 . S
C545 C538 1.409 . S
C545 C544 1.362 . S
H546 C552 0.930 . S
H547 C555 0.930 . S
H548 C556 0.930 . S
H549 C557 0.930 . S
H550 C560 0.930 . S
H551 C561 0.930 . S
C552 H546 0.930 . S
C552 C553 1.355 . S
C552 C554 1.415 . S
C553 C552 1.355 . S
C553 C555 1.419 . S
C554 C552 1.415 . S
C554 C559 1.425 . S
C554 C561 1.409 . S
C555 H547 0.930 . S
C555 C553 1.419 . S
C555 C556 1.362 . S
C556 H548 0.930 . S
C556 C555 1.362 . S
C556 C559 1.409 . S
C557 H549 0.930 . S
C557 C558 1.355 . S
C557 C559 1.415 . S
C558 C557 1.355 . S
C558 C560 1.419 . S
C559 C554 1.425 . S
C559 C556 1.409 . S
C559 C557 1.415 . S
C560 H550 0.930 . S
C560 C558 1.419 . S
C560 C561 1.362 . S
C561 H551 0.930 . S
C561 C554 1.409 . S
C561 C560 1.362 . S
H562 C568 0.930 . S
H563 C571 0.930 . S
H564 C572 0.930 . S
H565 C573 0.930 . S
H566 C576 0.930 . S
H567 C577 0.930 . S
C568 H562 0.930 . S
C568 C569 1.355 . S
C568 C570 1.415 . S
C569 C568 1.355 . S
C569 C571 1.419 . S
C570 C568 1.415 . S
C570 C575 1.425 . S
C570 C577 1.409 . S
C571 H563 0.930 . S
C571 C569 1.419 . S
C571 C572 1.362 . S
C572 H564 0.930 . S
C572 C571 1.362 . S
C572 C575 1.409 . S
C573 H565 0.930 . S
C573 C574 1.355 . S
C573 C575 1.415 . S
C574 C573 1.355 . S
C574 C576 1.419 . S
C575 C570 1.425 . S
C575 C572 1.409 . S
C575 C573 1.415 . S
C576 H566 0.930 . S
C576 C574 1.419 . S
C576 C577 1.362 . S
C577 H567 0.930 . S
C577 C570 1.409 . S
C577 C576 1.362 . S
H578 C584 0.930 . S
H579 C587 0.930 . S
H580 C588 0.930 . S
H581 C589 0.930 . S
H582 C592 0.930 . S
H583 C593 0.930 . S
C584 H578 0.930 . S
C584 C585 1.355 . S
C584 C586 1.415 . S
C585 C584 1.355 . S
C585 C587 1.419 . S
C586 C584 1.415 . S
C586 C591 1.425 . S
C586 C593 1.409 . S
C587 H579 0.930 . S
C587 C585 1.419 . S
C587 C588 1.362 . S
C588 H580 0.930 . S
C588 C587 1.362 . S
C588 C591 1.409 . S
C589 H581 0.930 . S
C589 C590 1.355 . S
C589 C591 1.415 . S
C590 C589 1.355 . S
C590 C592 1.419 . S
C591 C586 1.425 . S
C591 C588 1.409 . S
C591 C589 1.415 . S
C592 H582 0.930 . S
C592 C590 1.419 . S
C592 C593 1.362 . S
C593 H583 0.930 . S
C593 C586 1.409 . S
C593 C592 1.362 . S
C217 C13 1.562 . S
C222 C93 1.365 . S
C233 C27 1.621 . S
C238 C114 1.471 . S
C254 C135 1.459 . S
C249 C29 1.581 . S
C270 C164 1.503 . S
C265 C54 1.621 . S
C286 C177 1.416 . S
C281 C69 1.567 . S
C302 C201 1.537 . S
C297 C83 1.600 . S
C313 C15 1.556 . S
C318 C145 1.399 . S
C329 C41 1.616 . S
C334 C159 1.498 . S
C350 C187 1.413 . S
C345 C42 1.562 . S
C366 C206 1.524 . S
C361 C57 1.613 . S
C377 C71 1.576 . S
C382 C103 1.409 . S
C398 C124 1.488 . S
C393 C1 1.619 . S
C414 C166 1.550 . S
C409 C12 1.592 . S
C425 C26 1.644 . S
C430 C180 1.436 . S
C446 C198 1.561 . S
C441 C28 1.604 . S
C457 C55 1.653 . S
C462 C96 1.414 . S
C473 C68 1.607 . S
C478 C117 1.349 . S
C489 C82 1.638 . S
C494 C138 1.387 . S
C505 C14 1.611 . S
C510 C208 1.567 . S
C526 C101 1.461 . S
C521 C40 1.643 . S
C537 C43 1.623 . S
C542 C122 1.419 . S
C553 C56 1.645 . S
C558 C143 1.430 . S
C569 C70 1.608 . S
C574 C156 1.577 . S
C585 C0 1.641 . S
C590 C185 1.406 . S
