# Generated by pormake.
# Topology tsx, (6,3)-cn, num edge types: 1
# Building blocks:
#     Node 0, Type 0, BuildingBlock: VOLQOD_clean_sbu_1, # of connection points: 6
#     Node 1, Type 0, BuildingBlock: VOLQOD_clean_sbu_1, # of connection points: 6
#     Node 2, Type 1, BuildingBlock: BETDIP_clean_linker_0, # of connection points: 3
#     Node 3, Type 1, BuildingBlock: BETDIP_clean_linker_0, # of connection points: 3
#     Node 4, Type 1, BuildingBlock: BETDIP_clean_linker_0, # of connection points: 3
#     Node 5, Type 1, BuildingBlock: BETDIP_clean_linker_0, # of connection points: 3
#     Edge 6, Type (0, 1), BuildingBlock: TEMPAE_clean_linker_10, # of connection points: 2
#     Edge 7, Type (0, 1), BuildingBlock: TEMPAE_clean_linker_10, # of connection points: 2
#     Edge 8, Type (0, 1), BuildingBlock: TEMPAE_clean_linker_10, # of connection points: 2
#     Edge 9, Type (0, 1), BuildingBlock: TEMPAE_clean_linker_10, # of connection points: 2
#     Edge 10, Type (0, 1), BuildingBlock: TEMPAE_clean_linker_10, # of connection points: 2
#     Edge 11, Type (0, 1), BuildingBlock: TEMPAE_clean_linker_10, # of connection points: 2
#     Edge 12, Type (0, 1), BuildingBlock: TEMPAE_clean_linker_10, # of connection points: 2
#     Edge 13, Type (0, 1), BuildingBlock: TEMPAE_clean_linker_10, # of connection points: 2
#     Edge 14, Type (0, 1), BuildingBlock: TEMPAE_clean_linker_10, # of connection points: 2
#     Edge 15, Type (0, 1), BuildingBlock: TEMPAE_clean_linker_10, # of connection points: 2
#     Edge 16, Type (0, 1), BuildingBlock: TEMPAE_clean_linker_10, # of connection points: 2
#     Edge 17, Type (0, 1), BuildingBlock: TEMPAE_clean_linker_10, # of connection points: 2
# Relax obj value: 0.057
# Max RMSD: 0.118
# Mean RMSD: 0.105
data_MOF--net-tsx--node1-VOLQOD_clean_sbu_1--node2-BETDIP_clean_linker_0--edge1-TEMPAE_clean_linker_10
_symmetry_space_group_name_H-M    P1
_symmetry_Int_Tables_number       1
_symmetry_cell_setting            triclinic
loop_
_symmetry_equiv_pos_as_xyz
'x, y, z'
_cell_length_a     21.41502
_cell_length_b     22.173684
_cell_length_c     37.928842
_cell_angle_alpha  90.308935
_cell_angle_beta   99.042865
_cell_angle_gamma 90.013659
loop_
_atom_site_label
_atom_site_type_symbol
_atom_site_fract_x
_atom_site_fract_y
_atom_site_fract_z
_atom_type_partial_charge
O0 O 0.05494 0.01972 0.09256 0.0
Zn1 Zn 0.07002 0.01779 0.0413 0.0
O2 O 0.99003 0.01999 0.00821 0.0
Zn3 Zn 0.98513 0.95085 0.97593 0.0
Zn4 Zn 0.91892 0.01803 0.03508 0.0
Zn5 Zn 0.98618 0.09349 0.97986 0.0
O6 O 0.97868 0.97609 0.92459 0.0
O7 O 0.97307 0.07603 0.92717 0.0
O8 O 0.12258 0.94473 0.03257 0.0
O9 O 0.06289 0.90064 0.9865 0.0
O10 O 0.91097 0.89778 0.98086 0.0
O11 O 0.86562 0.94393 0.02232 0.0
O12 O 0.86287 0.09162 0.02489 0.0
O13 O 0.12291 0.08988 0.0343 0.0
O14 O 0.91392 0.14455 0.98888 0.0
O15 O 0.06588 0.14248 0.9912 0.0
C16 C 0.00497 0.01803 0.10686 0.0
C17 C 0.97295 0.02725 0.90942 0.0
C18 C 0.86789 0.90049 1.00043 0.0
C19 C 0.11326 0.90275 0.00925 0.0
C20 C 0.86828 0.13859 0.00638 0.0
C21 C 0.11611 0.13516 0.01359 0.0
O22 O 0.95013 0.01586 0.08816 0.0
O23 O 0.56927 0.50034 0.58416 0.0
Zn24 Zn 0.58886 0.49795 0.53349 0.0
O25 O 0.51099 0.48808 0.49891 0.0
Zn26 Zn 0.51477 0.41099 0.47378 0.0
Zn27 Zn 0.43737 0.48944 0.52342 0.0
Zn28 Zn 0.5019 0.55443 0.46475 0.0
O29 O 0.51362 0.42493 0.42108 0.0
O30 O 0.50389 0.52443 0.4149 0.0
O31 O 0.65128 0.4307 0.5295 0.0
O32 O 0.59698 0.36868 0.49003 0.0
O33 O 0.4425 0.35548 0.48117 0.0
O34 O 0.3866 0.41377 0.51262 0.0
O35 O 0.37881 0.55918 0.50867 0.0
O36 O 0.63263 0.57551 0.52425 0.0
O37 O 0.42119 0.59992 0.46479 0.0
O38 O 0.5713 0.61541 0.47735 0.0
C39 C 0.51758 0.4993 0.59691 0.0
C40 C 0.50929 0.47207 0.40182 0.0
C41 C 0.39436 0.36457 0.49643 0.0
C42 C 0.64726 0.38205 0.51126 0.0
C43 C 0.37793 0.59835 0.48422 0.0
C44 C 0.62003 0.61724 0.50129 0.0
O45 O 0.4644 0.49527 0.57657 0.0
H46 H 0.06975 0.98373 0.47909 0.0
H47 H 0.01811 0.09422 0.38636 0.0
H48 H 0.08509 0.91322 0.37525 0.0
H49 H 0.03378 0.16971 0.42778 0.0
C50 C 0.01327 0.15061 0.44966 0.0
C51 C 0.06462 0.98943 0.45041 0.0
C52 C 0.08127 0.9425 0.42886 0.0
C53 C 0.04164 0.04403 0.43534 0.0
C54 C 0.03547 0.05194 0.39808 0.0
C55 C 0.0513 0.00501 0.37588 0.0
C56 C 0.07316 0.95016 0.39173 0.0
N57 N 0.02233 0.08873 0.4583 0.0
H58 H 0.95271 0.98114 0.54204 0.0
H59 H 0.02674 0.06868 0.6406 0.0
H60 H 0.85606 0.96515 0.6329 0.0
H61 H 0.05262 0.14078 0.60498 0.0
C62 C 0.06723 0.11635 0.58276 0.0
C63 C 0.94794 0.9922 0.56933 0.0
C64 C 0.90055 0.96509 0.58575 0.0
C65 C 0.9907 0.03308 0.58829 0.0
C66 C 0.98935 0.043 0.62487 0.0
C67 C 0.94173 0.01742 0.64163 0.0
C68 C 0.89544 0.98176 0.62101 0.0
N69 N 0.03609 0.06184 0.57039 0.0
H70 H 0.51242 0.48731 0.96554 0.0
H71 H 0.46113 0.57888 0.86577 0.0
H72 H 0.57728 0.42026 0.87106 0.0
H73 H 0.45912 0.66041 0.90258 0.0
C74 C 0.44037 0.64246 0.92537 0.0
C75 C 0.51516 0.49089 0.93736 0.0
C76 C 0.54817 0.4475 0.92067 0.0
C77 C 0.48588 0.53947 0.91816 0.0
C78 C 0.48673 0.54327 0.88118 0.0
C79 C 0.51846 0.49944 0.86373 0.0
C80 C 0.55001 0.45244 0.88391 0.0
N81 N 0.45435 0.5825 0.93682 0.0
H82 H 0.50034 0.45959 0.03384 0.0
H83 H 0.60975 0.50557 0.13534 0.0
H84 H 0.43477 0.40748 0.13026 0.0
H85 H 0.53759 0.54992 0.01889 0.0
C86 C 0.58554 0.55273 0.03323 0.0
C87 C 0.50666 0.45932 0.06273 0.0
C88 C 0.46209 0.42995 0.07988 0.0
C89 C 0.55883 0.48836 0.0829 0.0
C90 C 0.56818 0.48459 0.12025 0.0
C91 C 0.52368 0.45549 0.13795 0.0
C92 C 0.47033 0.42914 0.11729 0.0
N93 N 0.60179 0.52316 0.06655 0.0
C94 C 0.21934 0.17643 0.04362 0.0
C95 C 0.16733 0.18055 0.01623 0.0
C96 C 0.26675 0.22047 0.04792 0.0
C97 C 0.26237 0.26973 0.02407 0.0
C98 C 0.21138 0.27312 0.99552 0.0
C99 C 0.16415 0.22857 0.99202 0.0
C100 C 0.3204 0.21533 0.07882 0.0
C101 C 0.20577 0.32463 0.96936 0.0
C102 C 0.34732 0.40499 0.06888 0.0
C103 C 0.40747 0.39803 0.0593 0.0
C104 C 0.29777 0.3662 0.05524 0.0
C105 C 0.30875 0.31965 0.03129 0.0
C106 C 0.3677 0.31608 0.01892 0.0
C107 C 0.41665 0.35543 0.03319 0.0
C108 C 0.23549 0.3718 0.06894 0.0
C109 C 0.38083 0.26769 0.99294 0.0
H110 H 0.22244 0.13941 0.06236 0.0
H111 H 0.12442 0.23181 0.97056 0.0
H112 H 0.36651 0.21721 0.06903 0.0
H113 H 0.31889 0.25391 0.09743 0.0
H114 H 0.31827 0.17284 0.09398 0.0
H115 H 0.16764 0.31693 0.9463 0.0
H116 H 0.19536 0.36696 0.98302 0.0
H117 H 0.2511 0.33144 0.95922 0.0
H118 H 0.33997 0.43888 0.08853 0.0
H119 H 0.46317 0.35015 0.02568 0.0
H120 H 0.23036 0.33371 0.08714 0.0
H121 H 0.19539 0.36933 0.0466 0.0
H122 H 0.23201 0.41467 0.0838 0.0
H123 H 0.38869 0.22409 0.00717 0.0
H124 H 0.42354 0.27815 0.98081 0.0
H125 H 0.3399 0.2618 0.97132 0.0
C126 C 0.15085 0.80917 0.98256 0.0
C127 C 0.16389 0.85863 0.00579 0.0
C128 C 0.19942 0.7722 0.97413 0.0
C129 C 0.26271 0.78481 0.98937 0.0
C130 C 0.27595 0.83217 0.01462 0.0
C131 C 0.22626 0.86865 0.02257 0.0
C132 C 0.18323 0.72178 0.94728 0.0
C133 C 0.34284 0.8464 0.03173 0.0
C134 C 0.37891 0.66129 0.97542 0.0
C135 C 0.40008 0.68109 0.94426 0.0
C136 C 0.33657 0.69615 0.99165 0.0
C137 C 0.31477 0.75169 0.97615 0.0
C138 C 0.33828 0.77297 0.94561 0.0
C139 C 0.3809 0.7374 0.9301 0.0
C140 C 0.31315 0.67231 0.02443 0.0
C141 C 0.31615 0.83199 0.92828 0.0
H142 H 0.10271 0.80056 0.96981 0.0
H143 H 0.23677 0.90664 0.04063 0.0
H144 H 0.20292 0.73215 0.92262 0.0
H145 H 0.20482 0.67885 0.95799 0.0
H146 H 0.13139 0.71502 0.94002 0.0
H147 H 0.34438 0.87882 0.05429 0.0
H148 H 0.36808 0.80465 0.04164 0.0
H149 H 0.36891 0.86631 0.01154 0.0
H150 H 0.39429 0.61803 0.98678 0.0
H151 H 0.3977 0.7528 0.90617 0.0
H152 H 0.2628 0.65888 0.01744 0.0
H153 H 0.31579 0.70788 0.0453 0.0
H154 H 0.34065 0.63253 0.03577 0.0
H155 H 0.26507 0.82888 0.91727 0.0
H156 H 0.34239 0.84411 0.90628 0.0
H157 H 0.32189 0.86896 0.94835 0.0
C158 C 0.77639 0.85069 0.02217 0.0
C159 C 0.82165 0.85048 0.99915 0.0
C160 C 0.73608 0.80129 0.02365 0.0
C161 C 0.741 0.75047 0.00151 0.0
C162 C 0.78458 0.75093 0.9771 0.0
C163 C 0.8245 0.80092 0.97624 0.0
C164 C 0.68994 0.80253 0.04996 0.0
C165 C 0.7907 0.69771 0.95288 0.0
C166 C 0.69049 0.60426 0.03966 0.0
C167 C 0.62818 0.59861 0.02207 0.0
C168 C 0.72871 0.65222 0.03201 0.0
C169 C 0.70389 0.69533 0.00613 0.0
C170 C 0.64209 0.68794 0.98695 0.0
C171 C 0.60492 0.63948 0.99519 0.0
C172 C 0.79462 0.65828 0.05282 0.0
C173 C 0.61409 0.73269 0.95901 0.0
H174 H 0.77347 0.88884 0.03983 0.0
H175 H 0.859 0.80045 0.95817 0.0
H176 H 0.6415 0.79211 0.03619 0.0
H177 H 0.70294 0.76737 0.07052 0.0
H178 H 0.68916 0.84692 0.06361 0.0
H179 H 0.82229 0.7075 0.93302 0.0
H180 H 0.81012 0.65855 0.9691 0.0
H181 H 0.7436 0.68423 0.93844 0.0
H182 H 0.70895 0.5722 0.06015 0.0
H183 H 0.55674 0.63494 0.9816 0.0
H184 H 0.79737 0.69922 0.06995 0.0
H185 H 0.82955 0.66378 0.03435 0.0
H186 H 0.80838 0.61864 0.0701 0.0
H187 H 0.60507 0.77595 0.97215 0.0
H188 H 0.5688 0.71643 0.94351 0.0
H189 H 0.64768 0.74214 0.94025 0.0
C190 C 0.82587 0.2372 0.98232 0.0
C191 C 0.81896 0.18597 0.00292 0.0
C192 C 0.7772 0.27939 0.97485 0.0
C193 C 0.72018 0.27065 0.98859 0.0
C194 C 0.71409 0.22115 0.01121 0.0
C195 C 0.76357 0.17905 0.018 0.0
C196 C 0.78573 0.33172 0.95063 0.0
C197 C 0.65443 0.21124 0.02694 0.0
C198 C 0.61923 0.41064 0.97517 0.0
C199 C 0.58328 0.39847 0.94165 0.0
C200 C 0.65998 0.36703 0.99277 0.0
C201 C 0.66567 0.31052 0.97606 0.0
C202 C 0.62581 0.29641 0.94364 0.0
C203 C 0.58474 0.34045 0.92697 0.0
C204 C 0.70042 0.38329 0.02779 0.0
C205 C 0.63025 0.23658 0.92497 0.0
H206 H 0.86871 0.2435 0.97089 0.0
H207 H 0.758 0.13989 0.0342 0.0
H208 H 0.75134 0.32782 0.92558 0.0
H209 H 0.77624 0.37496 0.96362 0.0
H210 H 0.83413 0.33357 0.94361 0.0
H211 H 0.66121 0.17727 0.04863 0.0
H212 H 0.63811 0.25411 0.03766 0.0
H213 H 0.61631 0.19511 0.00577 0.0
H214 H 0.61844 0.45534 0.98675 0.0
H215 H 0.55562 0.33023 0.9016 0.0
H216 H 0.74861 0.39539 0.02293 0.0
H217 H 0.70494 0.34451 0.04637 0.0
H218 H 0.68079 0.4224 0.04085 0.0
H219 H 0.67582 0.23413 0.91456 0.0
H220 H 0.59118 0.23011 0.90226 0.0
H221 H 0.62936 0.19881 0.94392 0.0
C222 C 0.72616 0.66499 0.50653 0.0
C223 C 0.66064 0.67094 0.50417 0.0
C224 C 0.76584 0.7155 0.51308 0.0
C225 C 0.73927 0.77241 0.51914 0.0
C226 C 0.67273 0.77885 0.5153 0.0
C227 C 0.63406 0.72801 0.50717 0.0
C228 C 0.83635 0.70725 0.51554 0.0
C229 C 0.64257 0.83811 0.52283 0.0
C230 C 0.84014 0.86893 0.5882 0.0
C231 C 0.85912 0.91621 0.56772 0.0
C232 C 0.80011 0.82304 0.57269 0.0
C233 C 0.78094 0.8221 0.5353 0.0
C234 C 0.80155 0.86808 0.51404 0.0
C235 C 0.83952 0.91527 0.53057 0.0
C236 C 0.77829 0.77555 0.59654 0.0
C237 C 0.78383 0.86719 0.47393 0.0
H238 H 0.74638 0.6207 0.50379 0.0
H239 H 0.58321 0.73218 0.50545 0.0
H240 H 0.85722 0.74463 0.50189 0.0
H241 H 0.85878 0.70797 0.54396 0.0
H242 H 0.84827 0.66374 0.50355 0.0
H243 H 0.59041 0.83733 0.51471 0.0
H244 H 0.65309 0.84806 0.55187 0.0
H245 H 0.66237 0.87556 0.50879 0.0
H246 H 0.85685 0.86723 0.61665 0.0
H247 H 0.85349 0.95141 0.51435 0.0
H248 H 0.7975 0.7309 0.59051 0.0
H249 H 0.72594 0.77201 0.59151 0.0
H250 H 0.79359 0.78555 0.62534 0.0
H251 H 0.7976 0.82342 0.46308 0.0
H252 H 0.80685 0.90419 0.46106 0.0
H253 H 0.73187 0.87149 0.46641 0.0
C254 C 0.76254 0.36 0.5313 0.0
C255 C 0.7039 0.34331 0.51161 0.0
C256 C 0.818 0.32832 0.5275 0.0
C257 C 0.81469 0.27923 0.50326 0.0
C258 C 0.75522 0.26006 0.48496 0.0
C259 C 0.70063 0.29212 0.48946 0.0
C260 C 0.88042 0.34922 0.54806 0.0
C261 C 0.74956 0.20773 0.45896 0.0
C262 C 0.94833 0.24265 0.45221 0.0
C263 C 0.96966 0.18756 0.4673 0.0
C264 C 0.90005 0.27473 0.46503 0.0
C265 C 0.87326 0.25142 0.49401 0.0
C266 C 0.89807 0.19798 0.51108 0.0
C267 C 0.94573 0.16632 0.4973 0.0
C268 C 0.875 0.33153 0.44604 0.0
C269 C 0.87199 0.17229 0.54255 0.0
H270 H 0.76561 0.39918 0.5487 0.0
H271 H 0.65561 0.27839 0.47436 0.0
H272 H 0.90824 0.31026 0.56019 0.0
H273 H 0.90858 0.37124 0.52956 0.0
H274 H 0.87406 0.38195 0.56948 0.0
H275 H 0.69954 0.19611 0.44862 0.0
H276 H 0.77361 0.21916 0.43599 0.0
H277 H 0.77326 0.16728 0.47191 0.0
H278 H 0.96723 0.2592 0.42918 0.0
H279 H 0.96278 0.12407 0.50941 0.0
H280 H 0.87318 0.36874 0.4655 0.0
H281 H 0.826 0.32363 0.43223 0.0
H282 H 0.90432 0.34622 0.42594 0.0
H283 H 0.863 0.20853 0.5614 0.0
H284 H 0.90457 0.13867 0.5572 0.0
H285 H 0.82624 0.14961 0.53297 0.0
C286 C 0.2832 0.32906 0.48869 0.0
C287 C 0.34772 0.3163 0.49769 0.0
C288 C 0.23748 0.28795 0.49634 0.0
C289 C 0.25708 0.23426 0.51487 0.0
C290 C 0.3222 0.21937 0.52176 0.0
C291 C 0.36692 0.26044 0.51261 0.0
C292 C 0.16839 0.30411 0.48708 0.0
C293 C 0.34496 0.16275 0.54163 0.0
C294 C 0.15142 0.19219 0.58196 0.0
C295 C 0.11762 0.14311 0.56538 0.0
C296 C 0.19841 0.22059 0.56624 0.0
C297 C 0.21094 0.20023 0.53258 0.0
C298 C 0.17759 0.14987 0.51586 0.0
C299 C 0.13155 0.12144 0.53271 0.0
C300 C 0.23391 0.27313 0.5855 0.0
C301 C 0.18845 0.12735 0.47971 0.0
H302 H 0.26859 0.37224 0.47687 0.0
H303 H 0.41698 0.25092 0.51967 0.0
H304 H 0.14042 0.26443 0.47575 0.0
H305 H 0.15003 0.31812 0.51164 0.0
H306 H 0.16064 0.34168 0.46762 0.0
H307 H 0.39568 0.1537 0.54066 0.0
H308 H 0.33867 0.16755 0.57001 0.0
H309 H 0.31665 0.12322 0.53046 0.0
H310 H 0.14095 0.20857 0.60739 0.0
H311 H 0.10575 0.0831 0.51999 0.0
H312 H 0.22249 0.31508 0.57002 0.0
H313 H 0.28566 0.26578 0.58784 0.0
H314 H 0.22198 0.28011 0.6127 0.0
H315 H 0.16106 0.15574 0.45875 0.0
H316 H 0.17258 0.07989 0.475 0.0
H317 H 0.23898 0.13044 0.47659 0.0
C318 C 0.28006 0.64615 0.50079 0.0
C319 C 0.3271 0.6443 0.47883 0.0
C320 C 0.23342 0.69126 0.49657 0.0
C321 C 0.23404 0.73544 0.46985 0.0
C322 C 0.28079 0.73326 0.44732 0.0
C323 C 0.32661 0.68777 0.45206 0.0
C324 C 0.18406 0.69216 0.52094 0.0
C325 C 0.28298 0.77952 0.4184 0.0
C326 C 0.09457 0.8304 0.42983 0.0
C327 C 0.11201 0.88705 0.44482 0.0
C328 C 0.13133 0.77918 0.43986 0.0
C329 C 0.18686 0.785 0.46535 0.0
C330 C 0.20175 0.8411 0.48266 0.0
C331 C 0.16403 0.89156 0.47219 0.0
C332 C 0.11338 0.72 0.42111 0.0
C333 C 0.26043 0.84911 0.51009 0.0
H334 H 0.27999 0.61274 0.52153 0.0
H335 H 0.36255 0.68676 0.43488 0.0
H336 H 0.18845 0.73432 0.53702 0.0
H337 H 0.13599 0.69181 0.50495 0.0
H338 H 0.18848 0.65311 0.53938 0.0
H339 H 0.32201 0.77099 0.40289 0.0
H340 H 0.23762 0.77948 0.39968 0.0
H341 H 0.28931 0.82527 0.43043 0.0
H342 H 0.05368 0.8267 0.40908 0.0
H343 H 0.17779 0.93534 0.48374 0.0
H344 H 0.11797 0.68234 0.44047 0.0
H345 H 0.14598 0.71063 0.40172 0.0
H346 H 0.06424 0.72062 0.4064 0.0
H347 H 0.26497 0.81188 0.52973 0.0
H348 H 0.26035 0.89272 0.52464 0.0
H349 H 0.30277 0.84778 0.49658 0.0
C350 C 0.0525 0.05987 0.16614 0.0
C351 C 0.01068 0.01946 0.14609 0.0
C352 C 0.05777 0.06237 0.2035 0.0
C353 C 0.02234 0.02168 0.22119 0.0
C354 C 0.98039 0.98041 0.20095 0.0
C355 C 0.9741 0.98069 0.16354 0.0
C356 C 0.10114 0.10856 0.22399 0.0
C357 C 0.94354 0.93482 0.21884 0.0
C358 C 0.08803 0.98312 0.31722 0.0
C359 C 0.04552 0.0125 0.33629 0.0
C360 C 0.08058 0.9853 0.27987 0.0
C361 C 0.03129 0.02025 0.26092 0.0
C362 C 0.99006 0.05255 0.27989 0.0
C363 C 0.99686 0.04738 0.31723 0.0
C364 C 0.12472 0.94899 0.26064 0.0
C365 C 0.93829 0.09206 0.2607 0.0
H366 H 0.08018 0.09035 0.15249 0.0
H367 H 0.94197 0.9493 0.14793 0.0
H368 H 0.07501 0.13519 0.24179 0.0
H369 H 0.1406 0.08563 0.2412 0.0
H370 H 0.12138 0.14001 0.20607 0.0
H371 H 0.91349 0.90543 0.19926 0.0
H372 H 0.97667 0.90593 0.23683 0.0
H373 H 0.91283 0.95812 0.23555 0.0
H374 H 0.12726 0.95779 0.33142 0.0
H375 H 0.96317 0.06988 0.3313 0.0
H376 H 0.15146 0.97935 0.24529 0.0
H377 H 0.09702 0.9177 0.24124 0.0
H378 H 0.15907 0.92219 0.27926 0.0
H379 H 0.95803 0.12361 0.24267 0.0
H380 H 0.91424 0.11871 0.27951 0.0
H381 H 0.90245 0.06382 0.24389 0.0
C382 C 0.01427 0.00327 0.85348 0.0
C383 C 0.96784 0.03015 0.87044 0.0
C384 C 0.01057 0.00598 0.81628 0.0
C385 C 0.95772 0.03402 0.79563 0.0
C386 C 0.91047 0.06096 0.81279 0.0
C387 C 0.91683 0.05979 0.85019 0.0
C388 C 0.06299 0.97856 0.7991 0.0
C389 C 0.85223 0.08909 0.79163 0.0
C390 C 0.96717 0.07595 0.69953 0.0
C391 C 0.94264 0.02392 0.68098 0.0
C392 C 0.97246 0.08 0.73687 0.0
C393 C 0.95037 0.03196 0.75603 0.0
C394 C 0.92333 0.98046 0.73749 0.0
C395 C 0.9212 0.97645 0.70046 0.0
C396 C 0.00332 0.13491 0.7559 0.0
C397 C 0.89762 0.92889 0.75683 0.0
H398 H 0.054 0.98096 0.86942 0.0
H399 H 0.88095 0.08031 0.86358 0.0
H400 H 0.04475 0.93909 0.78254 0.0
H401 H 0.08047 0.01172 0.78111 0.0
H402 H 0.10342 0.96355 0.81914 0.0
H403 H 0.82043 0.10893 0.80908 0.0
H404 H 0.8658 0.12489 0.77399 0.0
H405 H 0.82552 0.0544 0.77418 0.0
H406 H 0.98288 0.11348 0.68499 0.0
H407 H 0.90385 0.93514 0.68701 0.0
H408 H 0.04549 0.12104 0.77501 0.0
H409 H 0.97033 0.15724 0.77161 0.0
H410 H 0.01828 0.16827 0.73713 0.0
H411 H 0.93694 0.90575 0.77405 0.0
H412 H 0.87212 0.89512 0.73812 0.0
H413 H 0.8648 0.94614 0.77444 0.0
C414 C 0.46236 0.5094 0.6502 0.0
C415 C 0.51889 0.50274 0.63615 0.0
C416 C 0.46233 0.51161 0.68718 0.0
C417 C 0.52017 0.50662 0.71082 0.0
C418 C 0.57749 0.50059 0.69691 0.0
C419 C 0.5762 0.49893 0.65975 0.0
C420 C 0.40024 0.51849 0.70095 0.0
C421 C 0.64006 0.49472 0.7213 0.0
C422 C 0.52551 0.55693 0.8074 0.0
C423 C 0.5185 0.50188 0.82447 0.0
C424 C 0.52627 0.55923 0.77043 0.0
C425 C 0.52024 0.5052 0.75009 0.0
C426 C 0.51319 0.44956 0.76715 0.0
C427 C 0.51205 0.44863 0.80401 0.0
C428 C 0.53351 0.61946 0.75313 0.0
C429 C 0.50662 0.39093 0.74643 0.0
H430 H 0.41782 0.51279 0.63227 0.0
H431 H 0.62012 0.49377 0.64922 0.0
H432 H 0.39133 0.47809 0.71656 0.0
H433 H 0.40227 0.55797 0.71919 0.0
H434 H 0.35972 0.52438 0.67906 0.0
H435 H 0.68059 0.49235 0.7063 0.0
H436 H 0.6473 0.53363 0.74001 0.0
H437 H 0.63998 0.45339 0.73765 0.0
H438 H 0.53127 0.59819 0.82302 0.0
H439 H 0.50546 0.40602 0.81681 0.0
H440 H 0.49237 0.62777 0.73203 0.0
H441 H 0.57633 0.61922 0.74004 0.0
H442 H 0.53736 0.65734 0.77264 0.0
H443 H 0.46378 0.39226 0.72578 0.0
H444 H 0.5031 0.35134 0.76385 0.0
H445 H 0.54785 0.3845 0.73238 0.0
C446 C 0.56476 0.43592 0.35291 0.0
C447 C 0.51372 0.46648 0.36369 0.0
C448 C 0.57197 0.4336 0.31678 0.0
C449 C 0.52552 0.46037 0.29088 0.0
C450 C 0.47305 0.49009 0.30173 0.0
C451 C 0.46855 0.49394 0.33817 0.0
C452 C 0.62981 0.40368 0.30641 0.0
C453 C 0.42138 0.51731 0.27484 0.0
C454 C 0.5565 0.50363 0.19843 0.0
C455 C 0.53069 0.45424 0.17776 0.0
C456 C 0.55802 0.50489 0.23558 0.0
C457 C 0.53102 0.45667 0.25234 0.0
C458 C 0.50635 0.40611 0.2319 0.0
C459 C 0.50791 0.40488 0.19511 0.0
C460 C 0.58687 0.55866 0.25673 0.0
C461 C 0.47584 0.35435 0.24861 0.0
H462 H 0.6001 0.41552 0.37291 0.0
H463 H 0.42913 0.51751 0.34674 0.0
H464 H 0.61569 0.36517 0.28812 0.0
H465 H 0.65565 0.43615 0.2918 0.0
H466 H 0.66257 0.38693 0.32995 0.0
H467 H 0.38234 0.53627 0.28758 0.0
H468 H 0.44107 0.5538 0.25998 0.0
H469 H 0.40153 0.48256 0.25503 0.0
H470 H 0.57379 0.54234 0.18557 0.0
H471 H 0.48987 0.36547 0.17981 0.0
H472 H 0.61994 0.54359 0.28055 0.0
H473 H 0.54917 0.58545 0.26638 0.0
H474 H 0.61285 0.58852 0.24058 0.0
H475 H 0.5097 0.33439 0.27056 0.0
H476 H 0.45906 0.31823 0.22898 0.0
H477 H 0.43489 0.37119 0.26045 0.0
loop_
_geom_bond_atom_site_label_1
_geom_bond_atom_site_label_2
_geom_bond_distance
_geom_bond_site_symmetry_2
_ccdc_geom_bond_type
O0 Zn1 1.953 . S
O0 C16 1.225 1_565 S
Zn1 O0 1.953 . S
Zn1 O2 1.949 1_565 S
Zn1 O8 1.919 . S
Zn1 O13 1.924 1_565 S
O2 Zn1 1.949 1_545 S
O2 Zn3 1.923 1_444 S
O2 Zn4 1.950 1_455 S
O2 Zn5 1.945 1_554 S
Zn3 O2 1.923 1_666 S
Zn3 O6 1.933 . S
Zn3 O9 1.941 1_655 S
Zn3 O10 1.965 . S
Zn4 O2 1.950 1_655 S
Zn4 O11 1.938 1_545 S
Zn4 O12 1.906 . S
Zn4 O22 1.953 . S
Zn5 O2 1.945 1_556 S
Zn5 O7 1.932 . S
Zn5 O14 1.977 1_455 S
Zn5 O15 1.910 . S
O6 Zn3 1.933 . S
O6 C17 1.226 1_565 S
O7 Zn5 1.932 . S
O7 C17 1.307 1_455 S
O8 Zn1 1.919 . S
O8 C19 1.253 1_554 S
O9 Zn3 1.941 1_455 S
O9 C19 1.283 . S
O10 Zn3 1.965 . S
O10 C18 1.303 1_556 S
O11 Zn4 1.938 1_565 S
O11 C18 1.247 . S
O12 Zn4 1.906 . S
O12 C20 1.304 1_554 S
O13 Zn1 1.924 1_545 S
O13 C21 1.311 . S
O14 Zn5 1.977 1_655 S
O14 C20 1.272 . S
O15 Zn5 1.910 . S
O15 C21 1.231 1_556 S
C16 O0 1.225 1_545 S
C16 O22 1.298 1_455 S
C17 O6 1.226 1_545 S
C17 O7 1.307 1_655 S
C18 O10 1.303 1_554 S
C18 O11 1.247 . S
C19 O8 1.253 1_556 S
C19 O9 1.283 . S
C20 O12 1.304 1_556 S
C20 O14 1.272 . S
C21 O13 1.311 . S
C21 O15 1.231 1_554 S
O22 Zn4 1.953 . S
O22 C16 1.298 1_655 S
O23 Zn24 1.953 . S
O23 C39 1.225 . S
Zn24 O23 1.953 . S
Zn24 O25 1.949 . S
Zn24 O31 1.919 . S
Zn24 O36 1.924 . S
O25 Zn24 1.949 . S
O25 Zn26 1.923 . S
O25 Zn27 1.950 . S
O25 Zn28 1.945 . S
Zn26 O25 1.923 . S
Zn26 O29 1.933 . S
Zn26 O32 1.941 . S
Zn26 O33 1.965 . S
Zn27 O25 1.950 . S
Zn27 O34 1.938 . S
Zn27 O35 1.906 . S
Zn27 O45 1.953 . S
Zn28 O25 1.945 . S
Zn28 O30 1.932 . S
Zn28 O37 1.977 . S
Zn28 O38 1.910 . S
O29 Zn26 1.933 . S
O29 C40 1.226 . S
O30 Zn28 1.932 . S
O30 C40 1.307 . S
O31 Zn24 1.919 . S
O31 C42 1.253 . S
O32 Zn26 1.941 . S
O32 C42 1.283 . S
O33 Zn26 1.965 . S
O33 C41 1.303 . S
O34 Zn27 1.938 . S
O34 C41 1.247 . S
O35 Zn27 1.906 . S
O35 C43 1.304 . S
O36 Zn24 1.924 . S
O36 C44 1.311 . S
O37 Zn28 1.977 . S
O37 C43 1.272 . S
O38 Zn28 1.910 . S
O38 C44 1.231 . S
C39 O23 1.225 . S
C39 O45 1.298 . S
C40 O29 1.226 . S
C40 O30 1.307 . S
C41 O33 1.303 . S
C41 O34 1.247 . S
C42 O31 1.253 . S
C42 O32 1.283 . S
C43 O35 1.304 . S
C43 O37 1.272 . S
C44 O36 1.311 . S
C44 O38 1.231 . S
O45 Zn27 1.953 . S
O45 C39 1.298 . S
H46 C51 0.930 . S
H47 C54 0.930 . S
H48 C56 0.930 . S
H49 C50 1.016 . S
C50 H49 1.016 . S
C50 N57 1.286 . S
C51 H46 0.930 . S
C51 C52 1.397 . S
C51 C53 1.361 1_465 S
C52 C51 1.397 . S
C52 C56 1.390 . S
C53 C51 1.361 1_645 S
C53 C54 1.393 . S
C53 N57 1.413 . S
C54 H47 0.930 . S
C54 C53 1.393 . S
C54 C55 1.399 1_655 S
C55 C54 1.399 1_455 S
C55 C56 1.381 1_545 S
C56 H48 0.930 . S
C56 C52 1.390 . S
C56 C55 1.381 1_565 S
N57 C50 1.286 . S
N57 C53 1.413 . S
H58 C63 0.930 . S
H59 C66 0.930 . S
H60 C68 0.930 . S
H61 C62 1.016 . S
C62 H61 1.016 . S
C62 N69 1.286 . S
C63 H58 0.930 . S
C63 C64 1.397 . S
C63 C65 1.361 1_665 S
C64 C63 1.397 . S
C64 C68 1.390 . S
C65 C63 1.361 1_445 S
C65 C66 1.393 . S
C65 N69 1.413 . S
C66 H59 0.930 . S
C66 C65 1.393 . S
C66 C67 1.399 1_455 S
C67 C66 1.399 1_655 S
C67 C68 1.381 1_545 S
C68 H60 0.930 . S
C68 C64 1.390 . S
C68 C67 1.381 1_565 S
N69 C62 1.286 . S
N69 C65 1.413 . S
H70 C75 0.930 . S
H71 C78 0.930 . S
H72 C80 0.930 . S
H73 C74 1.016 . S
C74 H73 1.016 . S
C74 N81 1.286 . S
C75 H70 0.930 . S
C75 C76 1.397 . S
C75 C77 1.361 . S
C76 C75 1.397 . S
C76 C80 1.390 . S
C77 C75 1.361 . S
C77 C78 1.393 . S
C77 N81 1.413 . S
C78 H71 0.930 . S
C78 C77 1.393 . S
C78 C79 1.399 . S
C79 C78 1.399 . S
C79 C80 1.381 . S
C80 H72 0.930 . S
C80 C76 1.390 . S
C80 C79 1.381 . S
N81 C74 1.286 . S
N81 C77 1.413 . S
H82 C87 0.930 . S
H83 C90 0.930 . S
H84 C92 0.930 . S
H85 C86 1.016 . S
C86 H85 1.016 . S
C86 N93 1.286 . S
C87 H82 0.930 . S
C87 C88 1.397 . S
C87 C89 1.361 . S
C88 C87 1.397 . S
C88 C92 1.390 . S
C89 C87 1.361 . S
C89 C90 1.393 . S
C89 N93 1.413 . S
C90 H83 0.930 . S
C90 C89 1.393 . S
C90 C91 1.399 . S
C91 C90 1.399 . S
C91 C92 1.381 . S
C92 H84 0.930 . S
C92 C88 1.390 . S
C92 C91 1.381 . S
N93 C86 1.286 . S
N93 C89 1.413 . S
C94 C95 1.391 . S
C94 C96 1.394 . S
C94 H110 0.931 . S
C95 C94 1.391 . S
C95 C99 1.376 . S
C96 C94 1.394 . S
C96 C97 1.369 . S
C96 C100 1.531 . S
C97 C96 1.369 . S
C97 C98 1.410 . S
C97 C105 1.503 . S
C98 C97 1.410 . S
C98 C99 1.392 . S
C98 C101 1.511 1_554 S
C99 C95 1.376 . S
C99 C98 1.392 . S
C99 H111 0.929 1_554 S
C100 C96 1.531 . S
C100 H112 0.960 . S
C100 H113 0.962 . S
C100 H114 0.960 . S
C101 C98 1.511 1_556 S
C101 H115 0.961 . S
C101 H116 0.961 . S
C101 H117 0.961 . S
C102 C103 1.370 . S
C102 C104 1.363 . S
C102 H118 0.931 . S
C103 C102 1.370 . S
C103 C107 1.408 . S
C104 C102 1.363 . S
C104 C105 1.370 . S
C104 C108 1.524 . S
C105 C97 1.503 . S
C105 C104 1.370 . S
C105 C106 1.403 . S
C106 C105 1.403 . S
C106 C107 1.404 . S
C106 C109 1.539 . S
C107 C103 1.408 . S
C107 C106 1.404 . S
C107 H119 0.930 . S
C108 C104 1.524 . S
C108 H120 0.956 . S
C108 H121 0.961 . S
C108 H122 0.961 . S
C109 C106 1.539 . S
C109 H123 0.958 . S
C109 H124 0.961 . S
C109 H125 0.960 . S
H110 C94 0.931 . S
H111 C99 0.929 1_556 S
H112 C100 0.960 . S
H113 C100 0.962 . S
H114 C100 0.960 . S
H115 C101 0.961 . S
H116 C101 0.961 . S
H117 C101 0.961 . S
H118 C102 0.931 . S
H119 C107 0.930 . S
H120 C108 0.956 . S
H121 C108 0.961 . S
H122 C108 0.961 . S
H123 C109 0.958 . S
H124 C109 0.961 . S
H125 C109 0.960 . S
C126 C127 1.391 . S
C126 C128 1.394 . S
C126 H142 0.931 . S
C127 C126 1.391 . S
C127 C131 1.376 1_556 S
C128 C126 1.394 . S
C128 C129 1.369 . S
C128 C132 1.531 . S
C129 C128 1.369 . S
C129 C130 1.410 1_556 S
C129 C137 1.503 . S
C130 C129 1.410 1_554 S
C130 C131 1.392 . S
C130 C133 1.511 . S
C131 C127 1.376 1_554 S
C131 C130 1.392 . S
C131 H143 0.929 . S
C132 C128 1.531 . S
C132 H144 0.960 . S
C132 H145 0.962 . S
C132 H146 0.960 . S
C133 C130 1.511 . S
C133 H147 0.961 . S
C133 H148 0.961 . S
C133 H149 0.961 . S
C134 C135 1.370 . S
C134 C136 1.363 . S
C134 H150 0.931 . S
C135 C134 1.370 . S
C135 C139 1.408 . S
C136 C134 1.363 . S
C136 C137 1.370 . S
C136 C140 1.524 . S
C137 C129 1.503 . S
C137 C136 1.370 . S
C137 C138 1.403 . S
C138 C137 1.403 . S
C138 C139 1.404 . S
C138 C141 1.539 . S
C139 C135 1.408 . S
C139 C138 1.404 . S
C139 H151 0.930 . S
C140 C136 1.524 . S
C140 H152 0.956 . S
C140 H153 0.961 . S
C140 H154 0.961 . S
C141 C138 1.539 . S
C141 H155 0.958 . S
C141 H156 0.961 . S
C141 H157 0.960 . S
H142 C126 0.931 . S
H143 C131 0.929 . S
H144 C132 0.960 . S
H145 C132 0.962 . S
H146 C132 0.960 . S
H147 C133 0.961 . S
H148 C133 0.961 . S
H149 C133 0.961 . S
H150 C134 0.931 . S
H151 C139 0.930 . S
H152 C140 0.956 . S
H153 C140 0.961 . S
H154 C140 0.961 . S
H155 C141 0.958 . S
H156 C141 0.961 . S
H157 C141 0.960 . S
C158 C159 1.391 . S
C158 C160 1.394 . S
C158 H174 0.931 . S
C159 C158 1.391 . S
C159 C163 1.376 1_554 S
C160 C158 1.394 . S
C160 C161 1.369 . S
C160 C164 1.531 . S
C161 C160 1.369 . S
C161 C162 1.390 1_554 S
C161 C169 1.503 . S
C162 C161 1.390 1_556 S
C162 C163 1.399 . S
C162 C165 1.525 . S
C163 C159 1.376 1_556 S
C163 C162 1.399 . S
C163 H175 0.929 . S
C164 C160 1.531 . S
C164 H176 0.960 . S
C164 H177 0.962 . S
C164 H178 0.960 . S
C165 C162 1.525 . S
C165 H179 0.961 . S
C165 H180 0.961 . S
C165 H181 0.961 . S
C166 C167 1.370 . S
C166 C168 1.363 . S
C166 H182 0.931 . S
C167 C166 1.370 . S
C167 C171 1.408 . S
C168 C166 1.363 . S
C168 C169 1.370 . S
C168 C172 1.524 . S
C169 C161 1.503 . S
C169 C168 1.370 . S
C169 C170 1.403 . S
C170 C169 1.403 . S
C170 C171 1.404 . S
C170 C173 1.539 . S
C171 C167 1.408 . S
C171 C170 1.404 . S
C171 H183 0.930 . S
C172 C168 1.524 . S
C172 H184 0.956 . S
C172 H185 0.961 . S
C172 H186 0.961 . S
C173 C170 1.539 . S
C173 H187 0.958 . S
C173 H188 0.961 . S
C173 H189 0.960 . S
H174 C158 0.931 . S
H175 C163 0.929 . S
H176 C164 0.960 . S
H177 C164 0.962 . S
H178 C164 0.960 . S
H179 C165 0.961 . S
H180 C165 0.961 . S
H181 C165 0.961 . S
H182 C166 0.931 . S
H183 C171 0.930 . S
H184 C172 0.956 . S
H185 C172 0.961 . S
H186 C172 0.961 . S
H187 C173 0.958 . S
H188 C173 0.961 . S
H189 C173 0.960 . S
C190 C191 1.391 . S
C190 C192 1.394 . S
C190 H206 0.931 . S
C191 C190 1.391 . S
C191 C195 1.376 . S
C192 C190 1.394 . S
C192 C193 1.369 . S
C192 C196 1.531 . S
C193 C192 1.369 . S
C193 C194 1.410 . S
C193 C201 1.503 . S
C194 C193 1.410 . S
C194 C195 1.392 . S
C194 C197 1.511 . S
C195 C191 1.376 . S
C195 C194 1.392 . S
C195 H207 0.929 . S
C196 C192 1.531 . S
C196 H208 0.960 . S
C196 H209 0.962 . S
C196 H210 0.960 . S
C197 C194 1.511 . S
C197 H211 0.961 . S
C197 H212 0.961 . S
C197 H213 0.961 . S
C198 C199 1.370 . S
C198 C200 1.363 . S
C198 H214 0.931 . S
C199 C198 1.370 . S
C199 C203 1.408 . S
C200 C198 1.363 . S
C200 C201 1.370 . S
C200 C204 1.524 1_556 S
C201 C193 1.503 . S
C201 C200 1.370 . S
C201 C202 1.403 . S
C202 C201 1.403 . S
C202 C203 1.404 . S
C202 C205 1.539 . S
C203 C199 1.408 . S
C203 C202 1.404 . S
C203 H215 0.930 . S
C204 C200 1.524 1_554 S
C204 H216 0.956 . S
C204 H217 0.961 . S
C204 H218 0.961 . S
C205 C202 1.539 . S
C205 H219 0.958 . S
C205 H220 0.961 . S
C205 H221 0.960 . S
H206 C190 0.931 . S
H207 C195 0.929 . S
H208 C196 0.960 . S
H209 C196 0.962 . S
H210 C196 0.960 . S
H211 C197 0.961 . S
H212 C197 0.961 . S
H213 C197 0.961 . S
H214 C198 0.931 . S
H215 C203 0.930 . S
H216 C204 0.956 . S
H217 C204 0.961 . S
H218 C204 0.961 . S
H219 C205 0.958 . S
H220 C205 0.961 . S
H221 C205 0.960 . S
C222 C223 1.391 . S
C222 C224 1.394 . S
C222 H238 0.931 . S
C223 C222 1.391 . S
C223 C227 1.376 . S
C224 C222 1.394 . S
C224 C225 1.369 . S
C224 C228 1.531 . S
C225 C224 1.369 . S
C225 C226 1.410 . S
C225 C233 1.503 . S
C226 C225 1.410 . S
C226 C227 1.392 . S
C226 C229 1.511 . S
C227 C223 1.376 . S
C227 C226 1.392 . S
C227 H239 0.929 . S
C228 C224 1.531 . S
C228 H240 0.960 . S
C228 H241 0.962 . S
C228 H242 0.960 . S
C229 C226 1.511 . S
C229 H243 0.961 . S
C229 H244 0.961 . S
C229 H245 0.961 . S
C230 C231 1.370 . S
C230 C232 1.363 . S
C230 H246 0.931 . S
C231 C230 1.370 . S
C231 C235 1.408 . S
C232 C230 1.363 . S
C232 C233 1.370 . S
C232 C236 1.524 . S
C233 C225 1.503 . S
C233 C232 1.370 . S
C233 C234 1.403 . S
C234 C233 1.403 . S
C234 C235 1.404 . S
C234 C237 1.539 . S
C235 C231 1.408 . S
C235 C234 1.404 . S
C235 H247 0.930 . S
C236 C232 1.524 . S
C236 H248 0.956 . S
C236 H249 0.961 . S
C236 H250 0.961 . S
C237 C234 1.539 . S
C237 H251 0.958 . S
C237 H252 0.961 . S
C237 H253 0.960 . S
H238 C222 0.931 . S
H239 C227 0.929 . S
H240 C228 0.960 . S
H241 C228 0.962 . S
H242 C228 0.960 . S
H243 C229 0.961 . S
H244 C229 0.961 . S
H245 C229 0.961 . S
H246 C230 0.931 . S
H247 C235 0.930 . S
H248 C236 0.956 . S
H249 C236 0.961 . S
H250 C236 0.961 . S
H251 C237 0.958 . S
H252 C237 0.961 . S
H253 C237 0.960 . S
C254 C255 1.391 . S
C254 C256 1.394 . S
C254 H270 0.931 . S
C255 C254 1.391 . S
C255 C259 1.376 . S
C256 C254 1.394 . S
C256 C257 1.369 . S
C256 C260 1.531 . S
C257 C256 1.369 . S
C257 C258 1.410 . S
C257 C265 1.503 . S
C258 C257 1.410 . S
C258 C259 1.392 . S
C258 C261 1.511 . S
C259 C255 1.376 . S
C259 C258 1.392 . S
C259 H271 0.929 . S
C260 C256 1.531 . S
C260 H272 0.960 . S
C260 H273 0.962 . S
C260 H274 0.960 . S
C261 C258 1.511 . S
C261 H275 0.961 . S
C261 H276 0.961 . S
C261 H277 0.961 . S
C262 C263 1.370 . S
C262 C264 1.363 . S
C262 H278 0.931 . S
C263 C262 1.370 . S
C263 C267 1.408 . S
C264 C262 1.363 . S
C264 C265 1.370 . S
C264 C268 1.524 . S
C265 C257 1.503 . S
C265 C264 1.370 . S
C265 C266 1.403 . S
C266 C265 1.403 . S
C266 C267 1.404 . S
C266 C269 1.539 . S
C267 C263 1.408 . S
C267 C266 1.404 . S
C267 H279 0.930 . S
C268 C264 1.524 . S
C268 H280 0.956 . S
C268 H281 0.961 . S
C268 H282 0.961 . S
C269 C266 1.539 . S
C269 H283 0.958 . S
C269 H284 0.961 . S
C269 H285 0.960 . S
H270 C254 0.931 . S
H271 C259 0.929 . S
H272 C260 0.960 . S
H273 C260 0.962 . S
H274 C260 0.960 . S
H275 C261 0.961 . S
H276 C261 0.961 . S
H277 C261 0.961 . S
H278 C262 0.931 . S
H279 C267 0.930 . S
H280 C268 0.956 . S
H281 C268 0.961 . S
H282 C268 0.961 . S
H283 C269 0.958 . S
H284 C269 0.961 . S
H285 C269 0.960 . S
C286 C287 1.391 . S
C286 C288 1.394 . S
C286 H302 0.931 . S
C287 C286 1.391 . S
C287 C291 1.376 . S
C288 C286 1.394 . S
C288 C289 1.369 . S
C288 C292 1.531 . S
C289 C288 1.369 . S
C289 C290 1.410 . S
C289 C297 1.503 . S
C290 C289 1.410 . S
C290 C291 1.392 . S
C290 C293 1.511 . S
C291 C287 1.376 . S
C291 C290 1.392 . S
C291 H303 0.929 . S
C292 C288 1.531 . S
C292 H304 0.960 . S
C292 H305 0.962 . S
C292 H306 0.960 . S
C293 C290 1.511 . S
C293 H307 0.961 . S
C293 H308 0.961 . S
C293 H309 0.961 . S
C294 C295 1.370 . S
C294 C296 1.363 . S
C294 H310 0.931 . S
C295 C294 1.370 . S
C295 C299 1.408 . S
C296 C294 1.363 . S
C296 C297 1.370 . S
C296 C300 1.524 . S
C297 C289 1.503 . S
C297 C296 1.370 . S
C297 C298 1.403 . S
C298 C297 1.403 . S
C298 C299 1.404 . S
C298 C301 1.539 . S
C299 C295 1.408 . S
C299 C298 1.404 . S
C299 H311 0.930 . S
C300 C296 1.524 . S
C300 H312 0.956 . S
C300 H313 0.961 . S
C300 H314 0.961 . S
C301 C298 1.539 . S
C301 H315 0.958 . S
C301 H316 0.961 . S
C301 H317 0.960 . S
H302 C286 0.931 . S
H303 C291 0.929 . S
H304 C292 0.960 . S
H305 C292 0.962 . S
H306 C292 0.960 . S
H307 C293 0.961 . S
H308 C293 0.961 . S
H309 C293 0.961 . S
H310 C294 0.931 . S
H311 C299 0.930 . S
H312 C300 0.956 . S
H313 C300 0.961 . S
H314 C300 0.961 . S
H315 C301 0.958 . S
H316 C301 0.961 . S
H317 C301 0.960 . S
C318 C319 1.391 . S
C318 C320 1.394 . S
C318 H334 0.931 . S
C319 C318 1.391 . S
C319 C323 1.376 . S
C320 C318 1.394 . S
C320 C321 1.369 . S
C320 C324 1.531 . S
C321 C320 1.369 . S
C321 C322 1.410 . S
C321 C329 1.503 . S
C322 C321 1.410 . S
C322 C323 1.392 . S
C322 C325 1.511 . S
C323 C319 1.376 . S
C323 C322 1.392 . S
C323 H335 0.929 . S
C324 C320 1.531 . S
C324 H336 0.960 . S
C324 H337 0.962 . S
C324 H338 0.960 . S
C325 C322 1.511 . S
C325 H339 0.961 . S
C325 H340 0.961 . S
C325 H341 0.961 . S
C326 C327 1.370 . S
C326 C328 1.363 . S
C326 H342 0.931 . S
C327 C326 1.370 . S
C327 C331 1.408 . S
C328 C326 1.363 . S
C328 C329 1.370 . S
C328 C332 1.524 . S
C329 C321 1.503 . S
C329 C328 1.370 . S
C329 C330 1.403 . S
C330 C329 1.403 . S
C330 C331 1.404 . S
C330 C333 1.539 . S
C331 C327 1.408 . S
C331 C330 1.404 . S
C331 H343 0.930 . S
C332 C328 1.524 . S
C332 H344 0.956 . S
C332 H345 0.961 . S
C332 H346 0.961 . S
C333 C330 1.539 . S
C333 H347 0.958 . S
C333 H348 0.961 . S
C333 H349 0.960 . S
H334 C318 0.931 . S
H335 C323 0.929 . S
H336 C324 0.960 . S
H337 C324 0.962 . S
H338 C324 0.960 . S
H339 C325 0.961 . S
H340 C325 0.961 . S
H341 C325 0.961 . S
H342 C326 0.931 . S
H343 C331 0.930 . S
H344 C332 0.956 . S
H345 C332 0.961 . S
H346 C332 0.961 . S
H347 C333 0.958 . S
H348 C333 0.961 . S
H349 C333 0.960 . S
C350 C351 1.391 . S
C350 C352 1.394 . S
C350 H366 0.931 . S
C351 C350 1.391 . S
C351 C355 1.376 1_445 S
C352 C350 1.394 . S
C352 C353 1.369 . S
C352 C356 1.531 . S
C353 C352 1.369 . S
C353 C354 1.410 1_445 S
C353 C361 1.503 . S
C354 C353 1.410 1_665 S
C354 C355 1.392 . S
C354 C357 1.511 . S
C355 C351 1.376 1_665 S
C355 C354 1.392 . S
C355 H367 0.929 . S
C356 C352 1.531 . S
C356 H368 0.960 . S
C356 H369 0.962 . S
C356 H370 0.960 . S
C357 C354 1.511 . S
C357 H371 0.961 . S
C357 H372 0.961 . S
C357 H373 0.961 . S
C358 C359 1.370 1_565 S
C358 C360 1.363 . S
C358 H374 0.931 . S
C359 C358 1.370 1_545 S
C359 C363 1.408 1_455 S
C360 C358 1.363 . S
C360 C361 1.370 1_565 S
C360 C364 1.524 . S
C361 C353 1.503 . S
C361 C360 1.370 1_545 S
C361 C362 1.403 1_455 S
C362 C361 1.403 1_655 S
C362 C363 1.404 . S
C362 C365 1.539 . S
C363 C359 1.408 1_655 S
C363 C362 1.404 . S
C363 H375 0.930 . S
C364 C360 1.524 . S
C364 H376 0.956 . S
C364 H377 0.961 . S
C364 H378 0.961 . S
C365 C362 1.539 . S
C365 H379 0.958 . S
C365 H380 0.961 . S
C365 H381 0.960 . S
H366 C350 0.931 . S
H367 C355 0.929 . S
H368 C356 0.960 . S
H369 C356 0.962 . S
H370 C356 0.960 . S
H371 C357 0.961 . S
H372 C357 0.961 . S
H373 C357 0.961 . S
H374 C358 0.931 . S
H375 C363 0.930 . S
H376 C364 0.956 . S
H377 C364 0.961 . S
H378 C364 0.961 . S
H379 C365 0.958 . S
H380 C365 0.961 . S
H381 C365 0.960 . S
C382 C383 1.391 1_465 S
C382 C384 1.394 . S
C382 H398 0.931 . S
C383 C382 1.391 1_645 S
C383 C387 1.376 . S
C384 C382 1.394 . S
C384 C385 1.376 1_455 S
C384 C388 1.531 . S
C385 C384 1.376 1_655 S
C385 C386 1.401 1_565 S
C385 C393 1.503 1_565 S
C386 C385 1.401 1_545 S
C386 C387 1.392 . S
C386 C389 1.511 . S
C387 C383 1.376 . S
C387 C386 1.392 . S
C387 H399 0.929 . S
C388 C384 1.531 . S
C388 H400 0.960 . S
C388 H401 0.962 . S
C388 H402 0.960 . S
C389 C386 1.511 . S
C389 H403 0.961 . S
C389 H404 0.961 . S
C389 H405 0.961 . S
C390 C391 1.370 1_455 S
C390 C392 1.363 . S
C390 H406 0.931 . S
C391 C390 1.370 1_655 S
C391 C395 1.408 1_545 S
C392 C390 1.363 . S
C392 C393 1.370 1_455 S
C392 C396 1.524 . S
C393 C385 1.503 1_545 S
C393 C392 1.370 1_655 S
C393 C394 1.403 1_545 S
C394 C393 1.403 1_565 S
C394 C395 1.404 . S
C394 C397 1.539 . S
C395 C391 1.408 1_565 S
C395 C394 1.404 . S
C395 H407 0.930 . S
C396 C392 1.524 . S
C396 H408 0.956 . S
C396 H409 0.961 . S
C396 H410 0.961 . S
C397 C394 1.539 . S
C397 H411 0.958 . S
C397 H412 0.961 . S
C397 H413 0.960 . S
H398 C382 0.931 . S
H399 C387 0.929 . S
H400 C388 0.960 . S
H401 C388 0.962 . S
H402 C388 0.960 . S
H403 C389 0.961 . S
H404 C389 0.961 . S
H405 C389 0.961 . S
H406 C390 0.931 . S
H407 C395 0.930 . S
H408 C396 0.956 . S
H409 C396 0.961 . S
H410 C396 0.961 . S
H411 C397 0.958 . S
H412 C397 0.961 . S
H413 C397 0.960 . S
C414 C415 1.391 . S
C414 C416 1.394 . S
C414 H430 0.931 . S
C415 C414 1.391 . S
C415 C419 1.376 . S
C416 C414 1.394 . S
C416 C417 1.369 . S
C416 C420 1.531 . S
C417 C416 1.369 . S
C417 C418 1.410 . S
C417 C425 1.503 . S
C418 C417 1.410 . S
C418 C419 1.392 . S
C418 C421 1.511 . S
C419 C415 1.376 . S
C419 C418 1.392 . S
C419 H431 0.929 . S
C420 C416 1.531 . S
C420 H432 0.960 . S
C420 H433 0.962 . S
C420 H434 0.960 . S
C421 C418 1.511 . S
C421 H435 0.961 . S
C421 H436 0.961 . S
C421 H437 0.961 . S
C422 C423 1.370 . S
C422 C424 1.363 . S
C422 H438 0.931 . S
C423 C422 1.370 . S
C423 C427 1.408 . S
C424 C422 1.363 . S
C424 C425 1.370 . S
C424 C428 1.524 . S
C425 C417 1.503 . S
C425 C424 1.370 . S
C425 C426 1.403 . S
C426 C425 1.403 . S
C426 C427 1.404 . S
C426 C429 1.539 . S
C427 C423 1.408 . S
C427 C426 1.404 . S
C427 H439 0.930 . S
C428 C424 1.524 . S
C428 H440 0.956 . S
C428 H441 0.961 . S
C428 H442 0.961 . S
C429 C426 1.539 . S
C429 H443 0.958 . S
C429 H444 0.961 . S
C429 H445 0.960 . S
H430 C414 0.931 . S
H431 C419 0.929 . S
H432 C420 0.960 . S
H433 C420 0.962 . S
H434 C420 0.960 . S
H435 C421 0.961 . S
H436 C421 0.961 . S
H437 C421 0.961 . S
H438 C422 0.931 . S
H439 C427 0.930 . S
H440 C428 0.956 . S
H441 C428 0.961 . S
H442 C428 0.961 . S
H443 C429 0.958 . S
H444 C429 0.961 . S
H445 C429 0.960 . S
C446 C447 1.391 . S
C446 C448 1.394 . S
C446 H462 0.931 . S
C447 C446 1.391 . S
C447 C451 1.376 . S
C448 C446 1.394 . S
C448 C449 1.369 . S
C448 C452 1.531 . S
C449 C448 1.369 . S
C449 C450 1.410 . S
C449 C457 1.503 . S
C450 C449 1.410 . S
C450 C451 1.392 . S
C450 C453 1.511 . S
C451 C447 1.376 . S
C451 C450 1.392 . S
C451 H463 0.929 . S
C452 C448 1.531 . S
C452 H464 0.960 . S
C452 H465 0.962 . S
C452 H466 0.960 . S
C453 C450 1.511 . S
C453 H467 0.961 . S
C453 H468 0.961 . S
C453 H469 0.961 . S
C454 C455 1.370 . S
C454 C456 1.363 . S
C454 H470 0.931 . S
C455 C454 1.370 . S
C455 C459 1.408 . S
C456 C454 1.363 . S
C456 C457 1.370 . S
C456 C460 1.524 . S
C457 C449 1.503 . S
C457 C456 1.370 . S
C457 C458 1.403 . S
C458 C457 1.403 . S
C458 C459 1.404 . S
C458 C461 1.539 . S
C459 C455 1.408 . S
C459 C458 1.404 . S
C459 H471 0.930 . S
C460 C456 1.524 . S
C460 H472 0.956 . S
C460 H473 0.961 . S
C460 H474 0.961 . S
C461 C458 1.539 . S
C461 H475 0.958 . S
C461 H476 0.961 . S
C461 H477 0.960 . S
H462 C446 0.931 . S
H463 C451 0.929 . S
H464 C452 0.960 . S
H465 C452 0.962 . S
H466 C452 0.960 . S
H467 C453 0.961 . S
H468 C453 0.961 . S
H469 C453 0.961 . S
H470 C454 0.931 . S
H471 C459 0.930 . S
H472 C460 0.956 . S
H473 C460 0.961 . S
H474 C460 0.961 . S
H475 C461 0.958 . S
H476 C461 0.961 . S
H477 C461 0.960 . S
C103 C88 1.519 . S
C95 C21 1.509 . S
C127 C19 1.412 . S
C135 C74 1.383 . S
C159 C18 1.350 . S
C167 C86 1.366 . S
C191 C20 1.509 . S
C199 C76 1.502 . S
C223 C44 1.503 . S
C231 C64 1.526 . S
C255 C42 1.390 . S
C263 C50 1.394 . S
C295 C62 1.373 . S
C287 C41 1.380 . S
C327 C52 1.511 . S
C319 C43 1.484 . S
C351 C16 1.525 . S
C359 C55 1.529 . S
C383 C17 1.489 . S
C391 C67 1.486 . S
C423 C79 1.523 . S
C415 C39 1.526 . S
C447 C40 1.489 . S
C455 C91 1.486 . S
