# Generated by pormake.
# Topology hwx, (6,3)-cn, num edge types: 1
# Building blocks:
#     Node 0, Type 0, BuildingBlock: IZENUY_clean_sbu_0, # of connection points: 6
#     Node 1, Type 0, BuildingBlock: IZENUY_clean_sbu_0, # of connection points: 6
#     Node 2, Type 0, BuildingBlock: IZENUY_clean_sbu_0, # of connection points: 6
#     Node 3, Type 0, BuildingBlock: IZENUY_clean_sbu_0, # of connection points: 6
#     Node 4, Type 1, BuildingBlock: QEWDON_clean_linker_0, # of connection points: 3
#     Node 5, Type 1, BuildingBlock: QEWDON_clean_linker_0, # of connection points: 3
#     Node 6, Type 1, BuildingBlock: QEWDON_clean_linker_0, # of connection points: 3
#     Node 7, Type 1, BuildingBlock: QEWDON_clean_linker_0, # of connection points: 3
#     Node 8, Type 1, BuildingBlock: QEWDON_clean_linker_0, # of connection points: 3
#     Node 9, Type 1, BuildingBlock: QEWDON_clean_linker_0, # of connection points: 3
#     Node 10, Type 1, BuildingBlock: QEWDON_clean_linker_0, # of connection points: 3
#     Node 11, Type 1, BuildingBlock: QEWDON_clean_linker_0, # of connection points: 3
#     Edge 12, Type (0, 1), BuildingBlock: XIVTED_clean_linker_0, # of connection points: 2
#     Edge 13, Type (0, 1), BuildingBlock: XIVTED_clean_linker_0, # of connection points: 2
#     Edge 14, Type (0, 1), BuildingBlock: XIVTED_clean_linker_0, # of connection points: 2
#     Edge 15, Type (0, 1), BuildingBlock: XIVTED_clean_linker_0, # of connection points: 2
#     Edge 16, Type (0, 1), BuildingBlock: XIVTED_clean_linker_0, # of connection points: 2
#     Edge 17, Type (0, 1), BuildingBlock: XIVTED_clean_linker_0, # of connection points: 2
#     Edge 18, Type (0, 1), BuildingBlock: XIVTED_clean_linker_0, # of connection points: 2
#     Edge 19, Type (0, 1), BuildingBlock: XIVTED_clean_linker_0, # of connection points: 2
#     Edge 20, Type (0, 1), BuildingBlock: XIVTED_clean_linker_0, # of connection points: 2
#     Edge 21, Type (0, 1), BuildingBlock: XIVTED_clean_linker_0, # of connection points: 2
#     Edge 22, Type (0, 1), BuildingBlock: XIVTED_clean_linker_0, # of connection points: 2
#     Edge 23, Type (0, 1), BuildingBlock: XIVTED_clean_linker_0, # of connection points: 2
#     Edge 24, Type (0, 1), BuildingBlock: XIVTED_clean_linker_0, # of connection points: 2
#     Edge 25, Type (0, 1), BuildingBlock: XIVTED_clean_linker_0, # of connection points: 2
#     Edge 26, Type (0, 1), BuildingBlock: XIVTED_clean_linker_0, # of connection points: 2
#     Edge 27, Type (0, 1), BuildingBlock: XIVTED_clean_linker_0, # of connection points: 2
#     Edge 28, Type (0, 1), BuildingBlock: XIVTED_clean_linker_0, # of connection points: 2
#     Edge 29, Type (0, 1), BuildingBlock: XIVTED_clean_linker_0, # of connection points: 2
#     Edge 30, Type (0, 1), BuildingBlock: XIVTED_clean_linker_0, # of connection points: 2
#     Edge 31, Type (0, 1), BuildingBlock: XIVTED_clean_linker_0, # of connection points: 2
#     Edge 32, Type (0, 1), BuildingBlock: XIVTED_clean_linker_0, # of connection points: 2
#     Edge 33, Type (0, 1), BuildingBlock: XIVTED_clean_linker_0, # of connection points: 2
#     Edge 34, Type (0, 1), BuildingBlock: XIVTED_clean_linker_0, # of connection points: 2
#     Edge 35, Type (0, 1), BuildingBlock: XIVTED_clean_linker_0, # of connection points: 2
# Relax obj value: 0.005
# Max RMSD: 0.117
# Mean RMSD: 0.091
data_MOF--net-hwx--node1-IZENUY_clean_sbu_0--node2-QEWDON_clean_linker_0--edge1-XIVTED_clean_linker_0
_symmetry_space_group_name_H-M    P1
_symmetry_Int_Tables_number       1
_symmetry_cell_setting            triclinic
loop_
_symmetry_equiv_pos_as_xyz
'x, y, z'
_cell_length_a     54.494086
_cell_length_b     54.530037
_cell_length_c     20.449198
_cell_angle_alpha  92.450384
_cell_angle_beta   92.365628
_cell_angle_gamma 90.070988
loop_
_atom_site_label
_atom_site_type_symbol
_atom_site_fract_x
_atom_site_fract_y
_atom_site_fract_z
_atom_type_partial_charge
Fe0 Fe 0.23999 0.25333 0.08763 0.0
Fe1 Fe 0.24257 0.2481 0.93792 0.0
O2 O 0.22972 0.23929 0.01161 0.0
Fe3 Fe 0.20659 0.21633 0.00907 0.0
O4 O 0.19052 0.22934 0.07934 0.0
O5 O 0.20924 0.26434 0.10475 0.0
O6 O 0.24585 0.28349 0.05424 0.0
C7 C 0.2382 0.29298 0.00167 0.0
C8 C 0.23421 0.20321 0.11649 0.0
O9 O 0.23274 0.27967 0.9511 0.0
C10 C 0.2396 0.19832 0.91501 0.0
O11 O 0.27146 0.24322 0.07588 0.0
O12 O 0.27323 0.25499 0.97479 0.0
O13 O 0.22527 0.19678 0.06048 0.0
O14 O 0.23591 0.22571 0.13448 0.0
C15 C 0.19195 0.24199 0.90282 0.0
O16 O 0.25334 0.21704 0.91983 0.0
O17 O 0.2184 0.19899 0.93817 0.0
C18 C 0.28378 0.24795 0.02696 0.0
O19 O 0.21421 0.24293 0.88743 0.0
O20 O 0.18632 0.23439 0.9576 0.0
C21 C 0.19038 0.25085 0.10504 0.0
Fe22 Fe 0.27176 0.75586 0.59547 0.0
Fe23 Fe 0.30468 0.72049 0.5179 0.0
O24 O 0.28113 0.74282 0.51957 0.0
Fe25 Fe 0.26713 0.75214 0.44497 0.0
O26 O 0.27711 0.78354 0.46225 0.0
O27 O 0.26517 0.78648 0.56383 0.0
O28 O 0.30262 0.76711 0.61757 0.0
C29 C 0.32163 0.75392 0.6193 0.0
C30 C 0.22718 0.75024 0.52921 0.0
O31 O 0.32144 0.73275 0.59156 0.0
C32 C 0.27067 0.70276 0.41851 0.0
O33 O 0.27654 0.72747 0.64018 0.0
O34 O 0.28698 0.69993 0.56451 0.0
O35 O 0.23671 0.75802 0.47851 0.0
O36 O 0.24041 0.74552 0.57908 0.0
C37 C 0.31742 0.74772 0.41604 0.0
O38 O 0.29224 0.70385 0.44396 0.0
O39 O 0.25655 0.72107 0.4229 0.0
C40 C 0.27831 0.70527 0.61949 0.0
O41 O 0.32391 0.73976 0.47104 0.0
O42 O 0.29493 0.74807 0.39764 0.0
C43 C 0.27278 0.79632 0.51333 0.0
Fe44 Fe 0.77035 0.78245 0.91714 0.0
Fe45 Fe 0.7733 0.78043 0.06697 0.0
O46 O 0.78291 0.79335 0.99419 0.0
Fe47 Fe 0.80518 0.81715 -0.00152 0.0
O48 O 0.79266 0.83256 0.92661 0.0
O49 O 0.75846 0.81273 0.89872 0.0
O50 O 0.73999 0.77537 0.94739 0.0
C51 C 0.72925 0.78289 -0.00178 0.0
C52 C 0.82066 0.78946 0.89351 0.0
O53 O 0.74151 0.7892 0.05002 0.0
C54 C 0.82276 0.78507 0.09494 0.0
O55 O 0.78143 0.75146 0.93046 0.0
O56 O 0.768 0.74946 0.02997 0.0
O57 O 0.8261 0.79888 0.94967 0.0
O58 O 0.79845 0.78749 0.8731 0.0
C59 C 0.77755 0.83128 0.10167 0.0
O60 O 0.80449 0.77075 0.08878 0.0
O61 O 0.82179 0.80613 0.07124 0.0
C62 C 0.77623 0.73907 0.97885 0.0
O63 O 0.77682 0.80904 0.11716 0.0
O64 O 0.78579 0.83701 0.04763 0.0
C65 C 0.77137 0.83202 0.89942 0.0
Fe66 Fe 0.70585 0.32161 0.51072 0.0
Fe67 Fe 0.7409 0.28715 0.58453 0.0
O68 O 0.72702 0.29677 0.50993 0.0
Fe69 Fe 0.73442 0.28156 0.43488 0.0
O70 O 0.74557 0.30988 0.40287 0.0
O71 O 0.71476 0.33331 0.43223 0.0
O72 O 0.72839 0.34254 0.54975 0.0
C73 C 0.73989 0.339 0.60316 0.0
C74 C 0.68317 0.29053 0.41825 0.0
O75 O 0.74123 0.31774 0.62559 0.0
C76 C 0.7321 0.24205 0.5126 0.0
O77 O 0.69314 0.31435 0.58957 0.0
O78 O 0.71109 0.27978 0.61569 0.0
O79 O 0.70385 0.28522 0.39549 0.0
O80 O 0.68155 0.30285 0.47144 0.0
C81 C 0.78038 0.28486 0.50568 0.0
O82 O 0.74325 0.25475 0.5578 0.0
O83 O 0.72396 0.25196 0.46143 0.0
C84 C 0.69338 0.29461 0.62016 0.0
O85 O 0.77164 0.29376 0.55784 0.0
O86 O 0.76636 0.27523 0.46065 0.0
C87 C 0.73387 0.32979 0.39996 0.0
H88 H 0.2609 0.53933 0.10161 0.0
C89 C 0.25725 0.54984 0.05848 0.0
C90 C 0.24914 0.57432 0.06513 0.0
C91 C 0.26218 0.53944 0.99632 0.0
H92 H 0.24137 0.60734 0.01431 0.0
C93 C 0.24589 0.58804 0.00879 0.0
C94 C 0.25093 0.57801 0.94645 0.0
C95 C 0.25867 0.55348 0.94069 0.0
C96 C 0.27523 0.51577 0.98955 0.0
H97 H 0.26305 0.54548 0.89316 0.0
C98 C 0.26326 0.49309 0.99561 0.0
C99 C 0.27582 0.47097 0.98191 0.0
C100 C 0.29989 0.51609 0.97216 0.0
H101 H 0.30935 0.53337 0.9672 0.0
C102 C 0.31245 0.49424 0.96018 0.0
H103 H 0.24414 0.49268 0.00818 0.0
C104 C 0.30047 0.47182 0.96445 0.0
H105 H 0.31049 0.45503 0.95416 0.0
H106 H 0.33144 0.49468 0.94667 0.0
H107 H 0.98248 0.73154 0.40371 0.0
C108 C 0.97237 0.73764 0.44594 0.0
C109 C 0.94988 0.74986 0.43704 0.0
C110 C 0.98117 0.73233 0.50946 0.0
H111 H 0.91868 0.76549 0.48419 0.0
C112 C 0.93631 0.75657 0.49156 0.0
C113 C 0.94432 0.7505 0.55482 0.0
C114 C 0.96706 0.73878 0.56371 0.0
C115 C 1.00292 0.71653 0.51878 0.0
H116 H 0.97313 0.7334 0.61217 0.0
C117 C 0.02699 0.726 0.51866 0.0
C118 C 0.04728 0.7107 0.53237 0.0
C119 C 0.99927 0.6917 0.53093 0.0
H120 H 0.98087 0.68416 0.5313 0.0
C121 C 0.01927 0.67643 0.54303 0.0
H122 H 0.02983 0.74527 0.5102 0.0
C123 C 0.04309 0.68583 0.54406 0.0
H124 H 0.05832 0.67358 0.55381 0.0
H125 H 0.0163 0.65727 0.5522 0.0
H126 H 0.79288 0.49551 0.93242 0.0
C127 C 0.78761 0.48476 0.973 0.0
C128 C 0.77934 0.46053 0.96101 0.0
C129 C 0.79113 0.49428 0.03787 0.0
H130 H 0.76758 0.42743 0.0039 0.0
C131 C 0.77383 0.44618 0.01363 0.0
C132 C 0.77697 0.45535 0.07843 0.0
C133 C 0.78543 0.47955 0.09035 0.0
C134 C 0.8044 0.51786 0.05119 0.0
H135 H 0.78872 0.48652 0.1404 0.0
C136 C 0.79604 0.53997 0.02465 0.0
C137 C 0.80985 0.56179 0.03594 0.0
C138 C 0.82648 0.51787 0.08922 0.0
H139 H 0.83337 0.50108 0.10964 0.0
C140 C 0.84019 0.53934 0.1 0.0
H141 H 0.77899 0.54019 0.99548 0.0
C142 C 0.83203 0.56113 0.07344 0.0
H143 H 0.84285 0.57766 0.08329 0.0
H144 H 0.85723 0.5391 0.1291 0.0
H145 H 0.03502 0.2518 0.58387 0.0
C146 C 0.04179 0.25956 0.54011 0.0
C147 C 0.06623 0.26772 0.53945 0.0
C148 C 0.02669 0.25919 0.48258 0.0
H149 H 0.09399 0.28245 0.4805 0.0
C150 C 0.07503 0.27652 0.48127 0.0
C151 C 0.06071 0.27519 0.4226 0.0
C152 C 0.03628 0.26683 0.42387 0.0
C153 C 1.00318 0.24561 0.48061 0.0
H154 H 0.02523 0.26482 0.37865 0.0
C155 C 0.98031 0.25769 0.48135 0.0
C156 C 0.95833 0.24387 0.47732 0.0
C157 C 1.00391 0.21987 0.47686 0.0
H158 H 0.02134 0.21033 0.4763 0.0
C159 C 0.98223 0.20623 0.47311 0.0
H160 H 0.97963 0.27756 0.48416 0.0
C161 C 0.9596 0.2181 0.47306 0.0
H162 H 0.94299 0.20709 0.47027 0.0
H163 H 0.98297 0.18638 0.47004 0.0
H164 H 0.76549 0.9877 0.42157 0.0
C165 C 0.75809 0.98073 0.46557 0.0
C166 C 0.75042 0.95615 0.46627 0.0
C167 C 0.75835 0.9958 0.52317 0.0
H168 H 0.73646 0.9281 0.52552 0.0
C169 C 0.74204 0.94716 0.52469 0.0
C170 C 0.7433 0.96145 0.58343 0.0
C171 C 0.75113 0.98604 0.58207 0.0
C172 C 0.77113 0.01974 0.52465 0.0
H173 H 0.75304 0.99711 0.6273 0.0
C174 C 0.75828 0.04216 0.52744 0.0
C175 C 0.77135 0.06455 0.53067 0.0
C176 C 0.79688 0.0199 0.52429 0.0
H177 H 0.80702 1.00282 0.52214 0.0
C178 C 0.80978 0.04203 0.52755 0.0
H179 H 0.73839 0.04218 0.5277 0.0
C180 C 0.79714 0.06422 0.53103 0.0
H181 H 0.80751 0.08123 0.53351 0.0
H182 H 0.82964 0.04198 0.52759 0.0
H183 H 0.5274 0.24177 0.09 0.0
C184 C 0.53722 0.24773 0.04843 0.0
C185 C 0.55916 0.26112 0.05897 0.0
C186 C 0.52872 0.24083 0.98442 0.0
H187 H 0.58954 0.27786 0.01354 0.0
C188 C 0.57222 0.26818 0.00516 0.0
C189 C 0.5644 0.26088 0.94106 0.0
C190 C 0.54265 0.24708 0.93097 0.0
C191 C 0.50681 0.22478 0.97388 0.0
H192 H 0.53666 0.24105 0.88167 0.0
C193 C 0.48363 0.2321 0.99602 0.0
C194 C 0.46321 0.21617 0.98715 0.0
C195 C 0.50932 0.20156 0.9426 0.0
H196 H 0.52697 0.19554 0.92544 0.0
C197 C 0.48925 0.18569 0.93437 0.0
H198 H 0.48151 0.25007 0.01983 0.0
C199 C 0.46638 0.19286 0.9566 0.0
H200 H 0.45098 0.18035 0.94862 0.0
H201 H 0.4914 0.16777 0.91049 0.0
H202 H 0.29083 0.03805 0.60017 0.0
C203 C 0.28407 0.0488 0.55989 0.0
C204 C 0.27221 0.07127 0.57282 0.0
C205 C 0.28835 0.041 0.49476 0.0
H206 H 0.25578 0.10319 0.53146 0.0
C207 C 0.26457 0.08571 0.52083 0.0
C208 C 0.26926 0.07858 0.45594 0.0
C209 C 0.28069 0.05593 0.44318 0.0
C210 C 0.3035 0.01901 0.47988 0.0
H211 H 0.28478 0.05044 0.39322 0.0
C212 C 0.29736 0.99553 0.50093 0.0
C213 C 0.31143 0.97476 0.48226 0.0
C214 C 0.32411 0.02165 0.4417 0.0
H215 H 0.32935 0.03952 0.42554 0.0
C216 C 0.33808 1.00137 0.42352 0.0
H217 H 0.28156 0.99348 0.53071 0.0
C218 C 0.33172 0.97813 0.44293 0.0
H219 H 0.34254 0.96271 0.42572 0.0
H220 H 0.35374 1.00361 0.39342 0.0
H221 H 0.48608 0.76576 0.93192 0.0
C222 C 0.47474 0.7684 0.97397 0.0
C223 C 0.45072 0.77756 0.96562 0.0
C224 C 0.48347 0.76082 0.03561 0.0
H225 H 0.41741 0.78669 0.01404 0.0
C226 C 0.43602 0.77996 0.0203 0.0
C227 C 0.44402 0.77158 0.0815 0.0
C228 C 0.46799 0.76242 0.08902 0.0
C229 C 0.50697 0.74734 0.04192 0.0
H230 H 0.4742 0.75516 0.13536 0.0
C231 C 0.52957 0.75826 0.02834 0.0
C232 C 0.55147 0.7446 0.03327 0.0
C233 C 0.50657 0.72287 0.06077 0.0
H234 H 0.48938 0.7141 0.07113 0.0
C235 C 0.5282 0.70934 0.06526 0.0
H236 H 0.53011 0.77715 0.01396 0.0
C237 C 0.55051 0.72007 0.05137 0.0
H238 H 0.56714 0.70927 0.0555 0.0
H239 H 0.52767 0.69046 0.07947 0.0
H240 H 0.18476 0.29225 0.18566 0.0
H241 H 0.05709 0.24517 0.31184 0.0
H242 H 0.14584 0.22795 0.10626 0.0
H243 H 0.09408 0.31044 0.39177 0.0
H244 H 0.08584 0.24298 0.22359 0.0
H245 H 0.14916 0.30284 0.25074 0.0
C246 C 0.16871 0.28047 0.18146 0.0
C247 C 0.16851 0.25895 0.14118 0.0
C248 C 0.08746 0.25806 0.25974 0.0
C249 C 0.12767 0.271 0.21527 0.0
C250 C 0.07077 0.25951 0.30981 0.0
C251 C 0.07332 0.27783 0.35996 0.0
C252 C 0.10701 0.27493 0.25995 0.0
C253 C 0.09171 0.29571 0.35483 0.0
C254 C 0.14836 0.28654 0.21855 0.0
C255 C 0.14707 0.24451 0.13737 0.0
N256 N 0.10811 0.29356 0.30653 0.0
N257 N 0.12768 0.25068 0.17426 0.0
H258 H 0.29225 0.65712 0.60873 0.0
H259 H 0.21933 0.61571 0.91649 0.0
H260 H 0.25016 0.70755 0.72767 0.0
H261 H 0.28348 0.57786 0.84709 0.0
H262 H 0.2241 0.64595 0.83291 0.0
H263 H 0.28285 0.6244 0.68189 0.0
C264 C 0.28093 0.66131 0.65005 0.0
C265 C 0.27216 0.68519 0.66248 0.0
C266 C 0.23695 0.63086 0.83579 0.0
C267 C 0.26113 0.6477 0.74581 0.0
C268 C 0.2343 0.61359 0.8835 0.0
C269 C 0.25117 0.59424 0.8896 0.0
C270 C 0.25641 0.62862 0.79315 0.0
C271 C 0.26983 0.59221 0.84419 0.0
C272 C 0.27562 0.64261 0.69178 0.0
C273 C 0.25753 0.68948 0.7167 0.0
N274 N 0.272 0.60924 0.79815 0.0
N275 N 0.25244 0.6709 0.75638 0.0
H276 H 0.86202 0.81438 0.13237 0.0
H277 H 0.92966 0.7149 0.35254 0.0
H278 H 0.83392 0.74101 0.15074 0.0
H279 H 0.94195 0.79283 0.37698 0.0
H280 H 0.90086 0.7221 0.25959 0.0
H281 H 0.89713 0.80458 0.204 0.0
C282 C 0.86324 0.79613 0.15115 0.0
C283 C 0.84472 0.77858 0.136 0.0
C284 C 0.91028 0.73756 0.28438 0.0
C285 C 0.88524 0.76723 0.21806 0.0
C286 C 0.92692 0.73344 0.33667 0.0
C287 C 0.93833 0.75332 0.37153 0.0
C288 C 0.90517 0.76174 0.26697 0.0
C289 C 0.9337 0.77705 0.35059 0.0
C290 C 0.88336 0.79058 0.19212 0.0
C291 C 0.84757 0.7552 0.16162 0.0
N292 N 0.91738 0.78063 0.29986 0.0
N293 N 0.8674 0.75023 0.20163 0.0
H294 H 0.72598 0.38744 0.59955 0.0
H295 H 0.81013 0.42536 0.91777 0.0
H296 H 0.77536 0.3387 0.70083 0.0
H297 H 0.74692 0.46731 0.85704 0.0
H298 H 0.80411 0.39838 0.8199 0.0
H299 H 0.73938 0.42109 0.67663 0.0
C300 C 0.73987 0.38389 0.63738 0.0
C301 C 0.74938 0.36016 0.64434 0.0
C302 C 0.79177 0.41372 0.82717 0.0
C303 C 0.76486 0.39851 0.73184 0.0
C304 C 0.79534 0.4292 0.88264 0.0
C305 C 0.77898 0.44847 0.89502 0.0
C306 C 0.77153 0.41737 0.784 0.0
C307 C 0.75996 0.45266 0.84866 0.0
C308 C 0.74743 0.40307 0.68136 0.0
C309 C 0.7673 0.35661 0.69419 0.0
N310 N 0.75652 0.43699 0.79532 0.0
N311 N 0.77438 0.37552 0.73606 0.0
H312 H 0.64127 0.31788 0.40612 0.0
H313 H 0.5751 0.22593 0.14026 0.0
H314 H 0.6744 0.25038 0.33674 0.0
H315 H 0.5709 0.30441 0.12542 0.0
H316 H 0.60229 0.23188 0.23859 0.0
H317 H 0.60636 0.31009 0.32781 0.0
C318 C 0.64096 0.30122 0.37529 0.0
C319 C 0.66076 0.28479 0.3774 0.0
C320 C 0.59494 0.24777 0.21454 0.0
C321 C 0.62093 0.27567 0.28923 0.0
C322 C 0.57932 0.24441 0.15903 0.0
C323 C 0.57077 0.26475 0.12525 0.0
C324 C 0.60167 0.27163 0.23682 0.0
C325 C 0.5771 0.28832 0.15054 0.0
C326 C 0.62115 0.29687 0.33062 0.0
C327 C 0.65957 0.26357 0.33614 0.0
N328 N 0.59226 0.29116 0.2049 0.0
N329 N 0.63996 0.25958 0.29376 0.0
H330 H 0.28361 0.18894 0.85717 0.0
H331 H 0.2314 0.07354 0.64496 0.0
H332 H 0.21222 0.15714 0.88273 0.0
H333 H 0.30737 0.09543 0.64806 0.0
H334 H 0.22506 0.10166 0.73942 0.0
H335 H 0.29375 0.15336 0.78626 0.0
C336 C 0.27012 0.17446 0.84824 0.0
C337 C 0.2469 0.17625 0.8754 0.0
C338 C 0.2433 0.09991 0.72066 0.0
C339 C 0.2584 0.13544 0.79423 0.0
C340 C 0.24693 0.08366 0.66727 0.0
C341 C 0.27 0.08196 0.63981 0.0
C342 C 0.26277 0.11501 0.74553 0.0
C343 C 0.28942 0.09598 0.6689 0.0
C344 C 0.27596 0.15408 0.80795 0.0
C345 C 0.23026 0.15674 0.86249 0.0
N346 N 0.2853 0.11222 0.7196 0.0
N347 N 0.23624 0.13734 0.8224 0.0
H348 H 0.31035 0.75694 0.2865 0.0
H349 H 0.4515 0.77955 0.2155 0.0
H350 H 0.3675 0.75193 0.43806 0.0
H351 H 0.39574 0.75793 0.06791 0.0
H352 H 0.42106 0.77519 0.29987 0.0
H353 H 0.3415 0.76423 0.20767 0.0
C354 C 0.32945 0.75748 0.30338 0.0
C355 C 0.3363 0.75357 0.36898 0.0
C356 C 0.41561 0.77158 0.24885 0.0
C357 C 0.37219 0.76196 0.27853 0.0
C358 C 0.43293 0.77399 0.20075 0.0
C359 C 0.42614 0.76954 0.13422 0.0
C360 C 0.39135 0.76484 0.23009 0.0
C361 C 0.40177 0.76238 0.1181 0.0
C362 C 0.34726 0.76156 0.25819 0.0
C363 C 0.36141 0.75463 0.38783 0.0
N364 N 0.38533 0.76038 0.16551 0.0
N365 N 0.3785 0.7587 0.34273 0.0
H366 H 0.72989 0.83671 0.81867 0.0
H367 H 0.77378 0.9655 0.69318 0.0
H368 H 0.7934 0.87698 0.89797 0.0
H369 H 0.70881 0.92747 0.61515 0.0
H370 H 0.77696 0.93664 0.78092 0.0
H371 H 0.7184 0.87212 0.75412 0.0
C372 C 0.74133 0.853 0.82289 0.0
C373 C 0.76288 0.85365 0.86306 0.0
C374 C 0.76173 0.93481 0.74532 0.0
C375 C 0.74977 0.8943 0.7896 0.0
C376 C 0.75971 0.95156 0.69557 0.0
C377 C 0.74118 0.94876 0.64606 0.0
C378 C 0.74524 0.91496 0.7454 0.0
C379 C 0.72368 0.93004 0.65158 0.0
C380 C 0.73473 0.87325 0.78614 0.0
C381 C 0.77684 0.87541 0.86696 0.0
N382 N 0.72638 0.9136 0.69952 0.0
N383 N 0.77016 0.8947 0.83038 0.0
H384 H 0.87075 0.79686 0.90995 0.0
H385 H 0.89627 0.73754 0.55424 0.0
H386 H 0.8153 0.76564 0.77397 0.0
H387 H 0.95375 0.77096 0.67929 0.0
H388 H 0.86723 0.7455 0.63949 0.0
H389 H 0.90217 0.78566 0.83132 0.0
C390 C 0.86517 0.78762 0.86378 0.0
C391 C 0.84028 0.78239 0.84835 0.0
C392 C 0.88616 0.75114 0.64872 0.0
C393 C 0.87608 0.76946 0.75865 0.0
C394 C 0.90275 0.74666 0.59984 0.0
C395 C 0.92735 0.75401 0.60932 0.0
C396 C 0.89407 0.76314 0.70797 0.0
C397 C 0.93488 0.76515 0.67003 0.0
C398 C 0.88312 0.78124 0.81899 0.0
C399 C 0.83417 0.77029 0.78793 0.0
N400 N 0.91822 0.7696 0.71705 0.0
N401 N 0.85189 0.76433 0.74549 0.0
H402 H 0.77058 0.32712 0.3119 0.0
H403 H 0.75009 0.46363 0.18813 0.0
H404 H 0.71547 0.37627 0.38757 0.0
H405 H 0.79474 0.40908 0.09145 0.0
H406 H 0.7408 0.43382 0.27069 0.0
H407 H 0.78297 0.35878 0.23889 0.0
C408 C 0.76107 0.34455 0.31325 0.0
C409 C 0.74179 0.3489 0.35566 0.0
C410 C 0.75272 0.42845 0.23154 0.0
C411 C 0.75604 0.3854 0.27226 0.0
C412 C 0.75813 0.44549 0.18479 0.0
C413 C 0.77297 0.4387 0.13262 0.0
C414 C 0.76246 0.40458 0.22629 0.0
C415 C 0.7829 0.41494 0.13035 0.0
C416 C 0.76817 0.36265 0.27151 0.0
C417 C 0.73028 0.37198 0.35536 0.0
N418 N 0.77741 0.39876 0.17627 0.0
N419 N 0.73756 0.38933 0.3143 0.0
H420 H 0.14206 0.24644 0.91806 0.0
H421 H 0.11285 0.25 0.53423 0.0
H422 H 0.19728 0.24877 0.77288 0.0
H423 H 0.0597 0.2753 0.67255 0.0
H424 H 0.14255 0.24476 0.62392 0.0
H425 H 0.11031 0.25303 0.83162 0.0
C426 C 0.14752 0.24837 0.8682 0.0
C427 C 0.1724 0.24692 0.85267 0.0
C428 C 0.12448 0.25164 0.63489 0.0
C429 C 0.13627 0.25422 0.75411 0.0
C430 C 0.10748 0.25482 0.58354 0.0
C431 C 0.08387 0.26381 0.59556 0.0
C432 C 0.11792 0.25708 0.69944 0.0
C433 C 0.07775 0.26854 0.66101 0.0
C434 C 0.12941 0.2522 0.81909 0.0
C435 C 0.17841 0.2497 0.78735 0.0
N436 N 0.09473 0.26516 0.71072 0.0
N437 N 0.1605 0.25303 0.74062 0.0
H438 H 0.22911 0.69554 0.33823 0.0
H439 H 0.28133 0.57233 0.17142 0.0
H440 H 0.29583 0.65976 0.40337 0.0
H441 H 0.21381 0.60657 0.10649 0.0
H442 H 0.28332 0.60058 0.26743 0.0
H443 H 0.22005 0.6603 0.26266 0.0
C444 C 0.24174 0.68023 0.3371 0.0
C445 C 0.26347 0.68084 0.37653 0.0
C446 C 0.26784 0.6017 0.23276 0.0
C447 C 0.25321 0.64042 0.29024 0.0
C448 C 0.26656 0.58535 0.17821 0.0
C449 C 0.24752 0.58726 0.13038 0.0
C450 C 0.25005 0.62021 0.23939 0.0
C451 C 0.22905 0.60474 0.14159 0.0
C452 C 0.23656 0.66009 0.29398 0.0
C453 C 0.27905 0.66033 0.37327 0.0
N454 N 0.23096 0.62077 0.19434 0.0
N455 N 0.27373 0.64113 0.33055 0.0
H456 H 0.32809 0.79542 0.70033 0.0
H457 H 0.4539 0.74657 0.85747 0.0
H458 H 0.36588 0.73063 0.62954 0.0
H459 H 0.41933 0.81375 0.92386 0.0
H460 H 0.42559 0.74455 0.76195 0.0
H461 H 0.36397 0.80583 0.77243 0.0
C462 C 0.34396 0.78348 0.69952 0.0
C463 C 0.34374 0.76188 0.65958 0.0
C464 C 0.42444 0.76 0.79672 0.0
C465 C 0.38492 0.77372 0.74178 0.0
C466 C 0.44087 0.76134 0.85101 0.0
C467 C 0.43878 0.78016 0.89944 0.0
C468 C 0.4056 0.77748 0.79102 0.0
C469 C 0.42127 0.79862 0.88843 0.0
C470 C 0.36448 0.78947 0.74058 0.0
C471 C 0.36498 0.74727 0.66018 0.0
N472 N 0.40505 0.79657 0.83612 0.0
N473 N 0.38453 0.75332 0.701 0.0
H474 H 0.77328 0.88122 0.08688 0.0
H475 H 0.76864 0.90971 0.47023 0.0
H476 H 0.76894 0.82571 0.23048 0.0
H477 H 0.74239 0.96287 0.33342 0.0
H478 H 0.77384 0.88025 0.37991 0.0
H479 H 0.7661 0.91282 0.17348 0.0
C480 C 0.77074 0.87566 0.13637 0.0
C481 C 0.77187 0.85075 0.15147 0.0
C482 C 0.76675 0.89827 0.36944 0.0
C483 C 0.76395 0.88669 0.25018 0.0
C484 C 0.7636 0.91514 0.42115 0.0
C485 C 0.75434 0.93867 0.40976 0.0
C486 C 0.76105 0.9049 0.30514 0.0
C487 C 0.74935 0.94487 0.3445 0.0
C488 C 0.76659 0.89368 0.18556 0.0
C489 C 0.76831 0.84461 0.21634 0.0
N490 N 0.75274 0.92804 0.29442 0.0
N491 N 0.76473 0.86243 0.26318 0.0
H492 H 0.66081 0.32755 0.6717 0.0
H493 H 0.58192 0.22819 0.84911 0.0
H494 H 0.68 0.25076 0.67 0.0
H495 H 0.58399 0.30485 0.91005 0.0
H496 H 0.61259 0.23613 0.76772 0.0
H497 H 0.62763 0.31942 0.74483 0.0
C498 C 0.65803 0.30895 0.68658 0.0
C499 C 0.67334 0.28982 0.66494 0.0
C500 C 0.60616 0.25122 0.79859 0.0
C501 C 0.6351 0.28038 0.74805 0.0
C502 C 0.58851 0.24675 0.84447 0.0
C503 C 0.58042 0.26592 0.88617 0.0
C504 C 0.61547 0.27509 0.79377 0.0
C505 C 0.58981 0.28958 0.87888 0.0
C506 C 0.6391 0.30436 0.72842 0.0
C507 C 0.66881 0.26609 0.68593 0.0
N508 N 0.6068 0.29351 0.83356 0.0
N509 N 0.65003 0.26202 0.72609 0.0
H510 H 0.25536 0.21034 0.2392 0.0
H511 H 0.24964 0.06905 0.3308 0.0
H512 H 0.22767 0.15308 0.10326 0.0
H513 H 0.2785 0.12778 0.45994 0.0
H514 H 0.24202 0.0988 0.2454 0.0
H515 H 0.26448 0.17965 0.31942 0.0
C516 C 0.2512 0.19129 0.2261 0.0
C517 C 0.24058 0.18435 0.16439 0.0
C518 C 0.24999 0.10511 0.29252 0.0
C519 C 0.25102 0.14889 0.2566 0.0
C520 C 0.25439 0.08815 0.34115 0.0
C521 C 0.26442 0.09598 0.40292 0.0
C522 C 0.25579 0.13002 0.30579 0.0
C523 C 0.27021 0.12096 0.41368 0.0
C524 C 0.25644 0.17371 0.27206 0.0
C525 C 0.23579 0.15929 0.15028 0.0
N526 N 0.26578 0.13701 0.36578 0.0
N527 N 0.24096 0.14246 0.19616 0.0
H528 H 0.23427 0.32011 0.8916 0.0
H529 H 0.25527 0.44987 0.08603 0.0
H530 H 0.24288 0.32779 0.10231 0.0
H531 H 0.26972 0.43681 0.88196 0.0
H532 H 0.24163 0.40693 0.09087 0.0
H533 H 0.23837 0.36464 0.88577 0.0
C534 C 0.23679 0.33114 0.9367 0.0
C535 C 0.23854 0.32011 -0.00249 0.0
C536 C 0.24747 0.4136 0.04485 0.0
C537 C 0.24312 0.37117 0.99109 0.0
C538 C 0.25504 0.43808 0.04202 0.0
C539 C 0.26365 0.44673 0.98359 0.0
C540 C 0.2483 0.39787 0.98861 0.0
C541 C 0.26328 0.43073 0.92798 0.0
C542 C 0.23919 0.35657 0.93329 0.0
C543 C 0.24172 0.33544 0.05429 0.0
N544 N 0.25584 0.40707 0.93188 0.0
N545 N 0.24401 0.36016 0.0497 0.0
H546 H 0.19189 0.76097 0.43439 0.0
H547 H 0.08243 0.70381 0.62839 0.0
H548 H 0.20052 0.73285 0.62817 0.0
H549 H 0.07047 0.73908 0.44512 0.0
H550 H 0.12561 0.7157 0.62977 0.0
H551 H 0.14749 0.75431 0.4375 0.0
C552 C 0.18449 0.75353 0.47773 0.0
C553 C 0.20008 0.74742 0.53106 0.0
C554 C 0.1136 0.72102 0.58934 0.0
C555 C 0.1492 0.73968 0.53474 0.0
C556 C 0.08893 0.71418 0.58849 0.0
C557 C 0.07289 0.72027 0.53624 0.0
C558 C 0.12253 0.73392 0.53725 0.0
C559 C 0.08222 0.73405 0.48635 0.0
C560 C 0.1591 0.74976 0.47946 0.0
C561 C 0.18934 0.73784 0.58584 0.0
N562 N 0.10651 0.7402 0.4877 0.0
N563 N 0.16467 0.73417 0.58606 0.0
H564 H 0.80495 0.71031 0.89917 0.0
H565 H 0.76566 0.58421 0.0549 0.0
H566 H 0.75267 0.70598 0.05114 0.0
H567 H 0.8348 0.59401 0.96424 0.0
H568 H 0.75482 0.62676 0.03134 0.0
H569 H 0.8105 0.66563 0.90146 0.0
C570 C 0.79444 0.69995 0.93242 0.0
C571 C 0.77848 0.71193 0.97541 0.0
C572 C 0.77221 0.61946 0.01579 0.0
C573 C 0.78455 0.6609 0.97778 0.0
C574 C 0.77828 0.59515 0.0287 0.0
C575 C 0.80118 0.58569 0.01172 0.0
C576 C 0.78904 0.63425 0.98499 0.0
C577 C 0.81702 0.60072 0.97849 0.0
C578 C 0.79767 0.6745 0.93384 0.0
C579 C 0.76536 0.69757 0.01761 0.0
N580 N 0.81072 0.62428 0.96644 0.0
N581 N 0.76869 0.67287 0.01775 0.0
H582 H 0.8046 0.26899 0.39782 0.0
H583 H 0.93972 0.27661 0.56849 0.0
H584 H 0.81796 0.29685 0.59695 0.0
H585 H 0.92097 0.23708 0.38629 0.0
H586 H 0.89672 0.29033 0.57404 0.0
H587 H 0.8485 0.26335 0.38747 0.0
C588 C 0.81676 0.274 0.43951 0.0
C589 C 0.8074 0.28312 0.49873 0.0
C590 C 0.90213 0.2789 0.53251 0.0
C591 C 0.85816 0.27663 0.48696 0.0
C592 C 0.92665 0.27126 0.52909 0.0
C593 C 0.93379 0.25565 0.47695 0.0
C594 C 0.88482 0.27102 0.48307 0.0
C595 C 0.91616 0.24899 0.42749 0.0
C596 C 0.84193 0.27077 0.43347 0.0
C597 C 0.82428 0.28958 0.55054 0.0
N598 N 0.89255 0.25661 0.4319 0.0
N599 N 0.84884 0.28605 0.54363 0.0
H600 H 0.71931 0.20643 0.41666 0.0
H601 H 0.77427 0.09879 0.63068 0.0
H602 H 0.74443 0.21561 0.61923 0.0
H603 H 0.74122 0.08522 0.43758 0.0
H604 H 0.7599 0.14117 0.62944 0.0
H605 H 0.72376 0.1618 0.42438 0.0
C606 C 0.72548 0.19911 0.46289 0.0
C607 C 0.73183 0.2149 0.5171 0.0
C608 C 0.7554 0.12895 0.58754 0.0
C609 C 0.73702 0.1639 0.52619 0.0
C610 C 0.76353 0.10472 0.58849 0.0
C611 C 0.75879 0.08859 0.53432 0.0
C612 C 0.74283 0.13733 0.53138 0.0
C613 C 0.74502 0.09715 0.4805 0.0
C614 C 0.72803 0.17362 0.46725 0.0
C615 C 0.73964 0.20429 0.57579 0.0
N616 N 0.73778 0.12108 0.47995 0.0
N617 N 0.7422 0.17959 0.57852 0.0
H618 H 0.31627 0.27106 0.95192 0.0
H619 H 0.43111 0.19103 0.05923 0.0
H620 H 0.31337 0.221 0.10924 0.0
H621 H 0.43831 0.25817 0.95771 0.0
H622 H 0.38804 0.20106 0.07767 0.0
H623 H 0.36079 0.266 0.95184 0.0
C624 C 0.32502 0.25909 0.98677 0.0
C625 C 0.31101 0.24635 0.03051 0.0
C626 C 0.39911 0.21377 0.05216 0.0
C627 C 0.36213 0.24028 0.03012 0.0
C628 C 0.42367 0.20805 0.04153 0.0
C629 C 0.43827 0.22377 0.00672 0.0
C630 C 0.38889 0.23516 0.02667 0.0
C631 C 0.42774 0.24561 0.98507 0.0
C632 C 0.35048 0.2563 0.98685 0.0
C633 C 0.32343 0.23121 0.07477 0.0
N634 N 0.40361 0.25049 0.99454 0.0
N635 N 0.34825 0.22835 0.07288 0.0
H636 H 0.24699 0.833 0.5766 0.0
H637 H 0.34266 0.9371 0.5129 0.0
H638 H 0.30809 0.82055 0.45194 0.0
H639 H 0.26534 0.95408 0.49384 0.0
H640 H 0.3322 0.89405 0.52379 0.0
H641 H 0.25523 0.87757 0.57672 0.0
C642 C 0.26211 0.83965 0.54945 0.0
C643 C 0.27682 0.82316 0.51385 0.0
C644 C 0.31757 0.9073 0.51775 0.0
C645 C 0.28665 0.87356 0.51554 0.0
C646 C 0.32346 0.9319 0.51115 0.0
C647 C 0.30489 0.94935 0.50043 0.0
C648 C 0.29292 0.89997 0.51552 0.0
C649 C 0.28032 0.9414 0.5017 0.0
C650 C 0.26672 0.86495 0.54943 0.0
C651 C 0.29618 0.83266 0.47947 0.0
N652 N 0.27501 0.91721 0.50874 0.0
N653 N 0.30071 0.85718 0.48181 0.0
H654 H 0.69792 0.76408 0.90091 0.0
H655 H 0.57517 0.78308 0.09921 0.0
H656 H 0.69832 0.79789 0.09582 0.0
H657 H 0.58288 0.72971 0.93995 0.0
H658 H 0.61811 0.79591 0.08755 0.0
H659 H 0.65363 0.75865 0.9039 0.0
C660 C 0.68872 0.77052 0.94431 0.0
C661 C 0.70203 0.78121 -0.00143 0.0
C662 C 0.61026 0.78163 0.05466 0.0
C663 C 0.651 0.77507 0.00199 0.0
C664 C 0.58578 0.77449 0.06092 0.0
C665 C 0.57562 0.75539 0.02033 0.0
C666 C 0.62442 0.76974 0.00695 0.0
C667 C 0.59012 0.74453 0.97209 0.0
C668 C 0.66337 0.76736 0.94593 0.0
C669 C 0.68889 0.78934 0.05312 0.0
N670 N 0.61377 0.75182 0.96679 0.0
N671 N 0.6641 0.78601 0.05357 0.0
loop_
_geom_bond_atom_site_label_1
_geom_bond_atom_site_label_2
_geom_bond_distance
_geom_bond_site_symmetry_2
_ccdc_geom_bond_type
Fe0 O2 1.918 . S
Fe0 O5 1.997 . S
Fe0 O6 2.002 . S
Fe0 O11 1.976 . S
Fe0 O14 1.996 . S
Fe1 O2 1.918 1_556 S
Fe1 O9 1.997 . S
Fe1 O12 1.996 . S
Fe1 O16 1.976 . S
Fe1 O19 2.002 . S
O2 Fe0 1.918 . S
O2 Fe1 1.918 1_554 S
O2 Fe3 1.918 1_554 S
Fe3 O2 1.918 1_556 S
Fe3 O4 2.002 1_556 S
Fe3 O13 1.976 1_556 S
Fe3 O17 1.996 . S
Fe3 O20 1.997 . S
O4 Fe3 2.002 1_554 S
O4 C21 1.295 . S
O5 Fe0 1.997 . S
O5 C21 1.235 . S
O6 Fe0 2.002 . S
O6 C7 1.295 . S
C7 O6 1.295 . S
C7 O9 1.235 1_554 S
C8 O13 1.287 . S
C8 O14 1.255 . S
O9 Fe1 1.997 . S
O9 C7 1.235 1_556 S
C10 O16 1.287 . S
C10 O17 1.255 . S
O11 Fe0 1.976 . S
O11 C18 1.287 . S
O12 Fe1 1.996 . S
O12 C18 1.255 1_556 S
O13 Fe3 1.976 1_554 S
O13 C8 1.287 . S
O14 Fe0 1.996 . S
O14 C8 1.255 . S
C15 O19 1.295 . S
C15 O20 1.235 . S
O16 Fe1 1.976 . S
O16 C10 1.287 . S
O17 Fe3 1.996 . S
O17 C10 1.255 . S
C18 O11 1.287 . S
C18 O12 1.255 1_554 S
O19 Fe1 2.002 . S
O19 C15 1.295 . S
O20 Fe3 1.997 . S
O20 C15 1.235 . S
C21 O4 1.295 . S
C21 O5 1.235 . S
Fe22 O24 1.918 . S
Fe22 O27 1.997 . S
Fe22 O28 2.002 . S
Fe22 O33 1.976 . S
Fe22 O36 1.996 . S
Fe23 O24 1.918 . S
Fe23 O31 1.997 . S
Fe23 O34 1.996 . S
Fe23 O38 1.976 . S
Fe23 O41 2.002 . S
O24 Fe22 1.918 . S
O24 Fe23 1.918 . S
O24 Fe25 1.918 . S
Fe25 O24 1.918 . S
Fe25 O26 2.002 . S
Fe25 O35 1.976 . S
Fe25 O39 1.996 . S
Fe25 O42 1.997 . S
O26 Fe25 2.002 . S
O26 C43 1.295 . S
O27 Fe22 1.997 . S
O27 C43 1.235 . S
O28 Fe22 2.002 . S
O28 C29 1.295 . S
C29 O28 1.295 . S
C29 O31 1.235 . S
C30 O35 1.287 . S
C30 O36 1.255 . S
O31 Fe23 1.997 . S
O31 C29 1.235 . S
C32 O38 1.287 . S
C32 O39 1.255 . S
O33 Fe22 1.976 . S
O33 C40 1.287 . S
O34 Fe23 1.996 . S
O34 C40 1.255 . S
O35 Fe25 1.976 . S
O35 C30 1.287 . S
O36 Fe22 1.996 . S
O36 C30 1.255 . S
C37 O41 1.295 . S
C37 O42 1.235 . S
O38 Fe23 1.976 . S
O38 C32 1.287 . S
O39 Fe25 1.996 . S
O39 C32 1.255 . S
C40 O33 1.287 . S
C40 O34 1.255 . S
O41 Fe23 2.002 . S
O41 C37 1.295 . S
O42 Fe25 1.997 . S
O42 C37 1.235 . S
C43 O26 1.295 . S
C43 O27 1.235 . S
Fe44 O46 1.918 1_556 S
Fe44 O49 1.997 . S
Fe44 O50 2.002 . S
Fe44 O55 1.976 . S
Fe44 O58 1.996 . S
Fe45 O46 1.918 . S
Fe45 O53 1.997 . S
Fe45 O56 1.996 . S
Fe45 O60 1.976 . S
Fe45 O63 2.002 . S
O46 Fe44 1.918 1_554 S
O46 Fe45 1.918 . S
O46 Fe47 1.918 . S
Fe47 O46 1.918 . S
Fe47 O48 2.002 1_554 S
Fe47 O57 1.976 1_554 S
Fe47 O61 1.996 . S
Fe47 O64 1.997 . S
O48 Fe47 2.002 1_556 S
O48 C65 1.295 . S
O49 Fe44 1.997 . S
O49 C65 1.235 . S
O50 Fe44 2.002 . S
O50 C51 1.295 1_556 S
C51 O50 1.295 1_554 S
C51 O53 1.235 . S
C52 O57 1.287 . S
C52 O58 1.255 . S
O53 Fe45 1.997 . S
O53 C51 1.235 . S
C54 O60 1.287 . S
C54 O61 1.255 . S
O55 Fe44 1.976 . S
O55 C62 1.287 1_556 S
O56 Fe45 1.996 . S
O56 C62 1.255 . S
O57 Fe47 1.976 1_556 S
O57 C52 1.287 . S
O58 Fe44 1.996 . S
O58 C52 1.255 . S
C59 O63 1.295 . S
C59 O64 1.235 . S
O60 Fe45 1.976 . S
O60 C54 1.287 . S
O61 Fe47 1.996 . S
O61 C54 1.255 . S
C62 O55 1.287 1_554 S
C62 O56 1.255 . S
O63 Fe45 2.002 . S
O63 C59 1.295 . S
O64 Fe47 1.997 . S
O64 C59 1.235 . S
C65 O48 1.295 . S
C65 O49 1.235 . S
Fe66 O68 1.918 . S
Fe66 O71 1.997 . S
Fe66 O72 2.002 . S
Fe66 O77 1.976 . S
Fe66 O80 1.996 . S
Fe67 O68 1.918 . S
Fe67 O75 1.997 . S
Fe67 O78 1.996 . S
Fe67 O82 1.976 . S
Fe67 O85 2.002 . S
O68 Fe66 1.918 . S
O68 Fe67 1.918 . S
O68 Fe69 1.918 . S
Fe69 O68 1.918 . S
Fe69 O70 2.002 . S
Fe69 O79 1.976 . S
Fe69 O83 1.996 . S
Fe69 O86 1.997 . S
O70 Fe69 2.002 . S
O70 C87 1.295 . S
O71 Fe66 1.997 . S
O71 C87 1.235 . S
O72 Fe66 2.002 . S
O72 C73 1.295 . S
C73 O72 1.295 . S
C73 O75 1.235 . S
C74 O79 1.287 . S
C74 O80 1.255 . S
O75 Fe67 1.997 . S
O75 C73 1.235 . S
C76 O82 1.287 . S
C76 O83 1.255 . S
O77 Fe66 1.976 . S
O77 C84 1.287 . S
O78 Fe67 1.996 . S
O78 C84 1.255 . S
O79 Fe69 1.976 . S
O79 C74 1.287 . S
O80 Fe66 1.996 . S
O80 C74 1.255 . S
C81 O85 1.295 . S
C81 O86 1.235 . S
O82 Fe67 1.976 . S
O82 C76 1.287 . S
O83 Fe69 1.996 . S
O83 C76 1.255 . S
C84 O77 1.287 . S
C84 O78 1.255 . S
O85 Fe67 2.002 . S
O85 C81 1.295 . S
O86 Fe69 1.997 . S
O86 C81 1.235 . S
C87 O70 1.295 . S
C87 O71 1.235 . S
H88 C89 0.949 . S
C89 H88 0.949 . S
C89 C90 1.395 . S
C89 C91 1.391 1_554 S
C90 C89 1.395 . S
C90 C93 1.390 . S
C91 C89 1.391 1_556 S
C91 C95 1.387 . S
C91 C96 1.491 . S
H92 C93 0.950 . S
C93 C90 1.390 . S
C93 H92 0.950 . S
C93 C94 1.378 1_554 S
C94 C93 1.378 1_556 S
C94 C95 1.409 . S
C95 C91 1.387 . S
C95 C94 1.409 . S
C95 H97 0.951 . S
C96 C91 1.491 . S
C96 C98 1.382 1_556 S
C96 C100 1.404 . S
H97 C95 0.951 . S
C98 C96 1.382 1_554 S
C98 C99 1.390 1_554 S
C98 H103 0.949 . S
C99 C98 1.390 1_556 S
C99 C104 1.399 . S
C100 C96 1.404 . S
C100 H101 0.950 . S
C100 C102 1.375 . S
H101 C100 0.950 . S
C102 C100 1.375 . S
C102 C104 1.382 . S
C102 H106 0.950 . S
H103 C98 0.949 . S
C104 C99 1.399 . S
C104 C102 1.382 . S
C104 H105 0.952 . S
H105 C104 0.952 . S
H106 C102 0.950 . S
H107 C108 0.949 . S
C108 H107 0.949 . S
C108 C109 1.395 . S
C108 C110 1.391 . S
C109 C108 1.395 . S
C109 C112 1.390 . S
C110 C108 1.391 . S
C110 C114 1.387 . S
C110 C115 1.491 1_655 S
H111 C112 0.950 . S
C112 C109 1.390 . S
C112 H111 0.950 . S
C112 C113 1.378 . S
C113 C112 1.378 . S
C113 C114 1.409 . S
C114 C110 1.387 . S
C114 C113 1.409 . S
C114 H116 0.951 . S
C115 C110 1.491 1_455 S
C115 C117 1.382 . S
C115 C119 1.404 . S
H116 C114 0.951 . S
C117 C115 1.382 . S
C117 C118 1.390 . S
C117 H122 0.949 . S
C118 C117 1.390 . S
C118 C123 1.399 . S
C119 C115 1.404 . S
C119 H120 0.950 . S
C119 C121 1.375 . S
H120 C119 0.950 . S
C121 C119 1.375 . S
C121 C123 1.382 . S
C121 H125 0.950 . S
H122 C117 0.949 . S
C123 C118 1.399 . S
C123 C121 1.382 . S
C123 H124 0.952 . S
H124 C123 0.952 . S
H125 C121 0.950 . S
H126 C127 0.949 . S
C127 H126 0.949 . S
C127 C128 1.395 . S
C127 C129 1.391 1_556 S
C128 C127 1.395 . S
C128 C131 1.390 1_556 S
C129 C127 1.391 1_554 S
C129 C133 1.387 . S
C129 C134 1.491 . S
H130 C131 0.950 . S
C131 C128 1.390 1_554 S
C131 H130 0.950 . S
C131 C132 1.378 . S
C132 C131 1.378 . S
C132 C133 1.409 . S
C133 C129 1.387 . S
C133 C132 1.409 . S
C133 H135 0.951 . S
C134 C129 1.491 . S
C134 C136 1.382 . S
C134 C138 1.404 . S
H135 C133 0.951 . S
C136 C134 1.382 . S
C136 C137 1.390 . S
C136 H141 0.949 1_554 S
C137 C136 1.390 . S
C137 C142 1.399 . S
C138 C134 1.404 . S
C138 H139 0.950 . S
C138 C140 1.375 . S
H139 C138 0.950 . S
C140 C138 1.375 . S
C140 C142 1.382 . S
C140 H144 0.950 . S
H141 C136 0.949 1_556 S
C142 C137 1.399 . S
C142 C140 1.382 . S
C142 H143 0.952 . S
H143 C142 0.952 . S
H144 C140 0.950 . S
H145 C146 0.949 . S
C146 H145 0.949 . S
C146 C147 1.395 . S
C146 C148 1.391 . S
C147 C146 1.395 . S
C147 C150 1.390 . S
C148 C146 1.391 . S
C148 C152 1.387 . S
C148 C153 1.491 1_455 S
H149 C150 0.950 . S
C150 C147 1.390 . S
C150 H149 0.950 . S
C150 C151 1.378 . S
C151 C150 1.378 . S
C151 C152 1.409 . S
C152 C148 1.387 . S
C152 C151 1.409 . S
C152 H154 0.951 . S
C153 C148 1.491 1_655 S
C153 C155 1.382 . S
C153 C157 1.404 . S
H154 C152 0.951 . S
C155 C153 1.382 . S
C155 C156 1.390 . S
C155 H160 0.949 . S
C156 C155 1.390 . S
C156 C161 1.399 . S
C157 C153 1.404 . S
C157 H158 0.950 . S
C157 C159 1.375 . S
H158 C157 0.950 . S
C159 C157 1.375 . S
C159 C161 1.382 . S
C159 H163 0.950 . S
H160 C155 0.949 . S
C161 C156 1.399 . S
C161 C159 1.382 . S
C161 H162 0.952 . S
H162 C161 0.952 . S
H163 C159 0.950 . S
H164 C165 0.949 . S
C165 H164 0.949 . S
C165 C166 1.395 . S
C165 C167 1.391 . S
C166 C165 1.395 . S
C166 C169 1.390 . S
C167 C165 1.391 . S
C167 C171 1.387 . S
C167 C172 1.491 1_565 S
H168 C169 0.950 . S
C169 C166 1.390 . S
C169 H168 0.950 . S
C169 C170 1.378 . S
C170 C169 1.378 . S
C170 C171 1.409 . S
C171 C167 1.387 . S
C171 C170 1.409 . S
C171 H173 0.951 . S
C172 C167 1.491 1_545 S
C172 C174 1.382 . S
C172 C176 1.404 . S
H173 C171 0.951 . S
C174 C172 1.382 . S
C174 C175 1.390 . S
C174 H179 0.949 . S
C175 C174 1.390 . S
C175 C180 1.399 . S
C176 C172 1.404 . S
C176 H177 0.950 . S
C176 C178 1.375 . S
H177 C176 0.950 . S
C178 C176 1.375 . S
C178 C180 1.382 . S
C178 H182 0.950 . S
H179 C174 0.949 . S
C180 C175 1.399 . S
C180 C178 1.382 . S
C180 H181 0.952 . S
H181 C180 0.952 . S
H182 C178 0.950 . S
H183 C184 0.949 . S
C184 H183 0.949 . S
C184 C185 1.395 . S
C184 C186 1.391 1_554 S
C185 C184 1.395 . S
C185 C188 1.390 . S
C186 C184 1.391 1_556 S
C186 C190 1.387 . S
C186 C191 1.491 . S
H187 C188 0.950 . S
C188 C185 1.390 . S
C188 H187 0.950 . S
C188 C189 1.378 1_554 S
C189 C188 1.378 1_556 S
C189 C190 1.409 . S
C190 C186 1.387 . S
C190 C189 1.409 . S
C190 H192 0.951 . S
C191 C186 1.491 . S
C191 C193 1.382 1_556 S
C191 C195 1.404 . S
H192 C190 0.951 . S
C193 C191 1.382 1_554 S
C193 C194 1.390 1_554 S
C193 H198 0.949 . S
C194 C193 1.390 1_556 S
C194 C199 1.399 . S
C195 C191 1.404 . S
C195 H196 0.950 . S
C195 C197 1.375 . S
H196 C195 0.950 . S
C197 C195 1.375 . S
C197 C199 1.382 . S
C197 H201 0.950 . S
H198 C193 0.949 . S
C199 C194 1.399 . S
C199 C197 1.382 . S
C199 H200 0.952 . S
H200 C199 0.952 . S
H201 C197 0.950 . S
H202 C203 0.949 . S
C203 H202 0.949 . S
C203 C204 1.395 . S
C203 C205 1.391 . S
C204 C203 1.395 . S
C204 C207 1.390 . S
C205 C203 1.391 . S
C205 C209 1.387 . S
C205 C210 1.491 1_545 S
H206 C207 0.950 . S
C207 C204 1.390 . S
C207 H206 0.950 . S
C207 C208 1.378 . S
C208 C207 1.378 . S
C208 C209 1.409 . S
C209 C205 1.387 . S
C209 C208 1.409 . S
C209 H211 0.951 . S
C210 C205 1.491 1_565 S
C210 C212 1.382 . S
C210 C214 1.404 . S
H211 C209 0.951 . S
C212 C210 1.382 . S
C212 C213 1.390 . S
C212 H217 0.949 . S
C213 C212 1.390 . S
C213 C218 1.399 . S
C214 C210 1.404 . S
C214 H215 0.950 . S
C214 C216 1.375 . S
H215 C214 0.950 . S
C216 C214 1.375 . S
C216 C218 1.382 . S
C216 H220 0.950 . S
H217 C212 0.949 . S
C218 C213 1.399 . S
C218 C216 1.382 . S
C218 H219 0.952 . S
H219 C218 0.952 . S
H220 C216 0.950 . S
H221 C222 0.949 . S
C222 H221 0.949 . S
C222 C223 1.395 . S
C222 C224 1.391 1_556 S
C223 C222 1.395 . S
C223 C226 1.390 1_556 S
C224 C222 1.391 1_554 S
C224 C228 1.387 . S
C224 C229 1.491 . S
H225 C226 0.950 . S
C226 C223 1.390 1_554 S
C226 H225 0.950 . S
C226 C227 1.378 . S
C227 C226 1.378 . S
C227 C228 1.409 . S
C228 C224 1.387 . S
C228 C227 1.409 . S
C228 H230 0.951 . S
C229 C224 1.491 . S
C229 C231 1.382 . S
C229 C233 1.404 . S
H230 C228 0.951 . S
C231 C229 1.382 . S
C231 C232 1.390 . S
C231 H236 0.949 1_554 S
C232 C231 1.390 . S
C232 C237 1.399 . S
C233 C229 1.404 . S
C233 H234 0.950 . S
C233 C235 1.375 . S
H234 C233 0.950 . S
C235 C233 1.375 . S
C235 C237 1.382 . S
C235 H239 0.950 . S
H236 C231 0.949 1_556 S
C237 C232 1.399 . S
C237 C235 1.382 . S
C237 H238 0.952 . S
H238 C237 0.952 . S
H239 C235 0.950 . S
H240 C246 0.930 . S
H241 C250 0.930 . S
H242 C255 0.929 . S
H243 C253 0.929 . S
H244 C248 0.929 . S
H245 C254 0.929 . S
C246 H240 0.930 . S
C246 C247 1.367 . S
C246 C254 1.378 . S
C247 C246 1.367 . S
C247 C255 1.433 . S
C248 H244 0.929 . S
C248 C250 1.378 . S
C248 C252 1.350 . S
C249 C252 1.463 . S
C249 C254 1.350 . S
C249 N257 1.427 . S
C250 H241 0.930 . S
C250 C248 1.378 . S
C250 C251 1.367 . S
C251 C250 1.367 . S
C251 C253 1.433 . S
C252 C248 1.350 . S
C252 C249 1.463 . S
C252 N256 1.427 . S
C253 H243 0.929 . S
C253 C251 1.433 . S
C253 N256 1.384 . S
C254 H245 0.929 . S
C254 C246 1.378 . S
C254 C249 1.350 . S
C255 H242 0.929 . S
C255 C247 1.433 . S
C255 N257 1.384 . S
N256 C252 1.427 . S
N256 C253 1.384 . S
N257 C249 1.427 . S
N257 C255 1.384 . S
H258 C264 0.930 . S
H259 C268 0.930 . S
H260 C273 0.929 . S
H261 C271 0.929 . S
H262 C266 0.929 . S
H263 C272 0.929 . S
C264 H258 0.930 . S
C264 C265 1.367 . S
C264 C272 1.378 . S
C265 C264 1.367 . S
C265 C273 1.433 . S
C266 H262 0.929 . S
C266 C268 1.378 . S
C266 C270 1.350 . S
C267 C270 1.463 . S
C267 C272 1.350 . S
C267 N275 1.427 . S
C268 H259 0.930 . S
C268 C266 1.378 . S
C268 C269 1.367 . S
C269 C268 1.367 . S
C269 C271 1.433 . S
C270 C266 1.350 . S
C270 C267 1.463 . S
C270 N274 1.427 . S
C271 H261 0.929 . S
C271 C269 1.433 . S
C271 N274 1.384 . S
C272 H263 0.929 . S
C272 C264 1.378 . S
C272 C267 1.350 . S
C273 H260 0.929 . S
C273 C265 1.433 . S
C273 N275 1.384 . S
N274 C270 1.427 . S
N274 C271 1.384 . S
N275 C267 1.427 . S
N275 C273 1.384 . S
H276 C282 0.930 . S
H277 C286 0.930 . S
H278 C291 0.929 . S
H279 C289 0.929 . S
H280 C284 0.929 . S
H281 C290 0.929 . S
C282 H276 0.930 . S
C282 C283 1.367 . S
C282 C290 1.378 . S
C283 C282 1.367 . S
C283 C291 1.433 . S
C284 H280 0.929 . S
C284 C286 1.378 . S
C284 C288 1.350 . S
C285 C288 1.463 . S
C285 C290 1.350 . S
C285 N293 1.427 . S
C286 H277 0.930 . S
C286 C284 1.378 . S
C286 C287 1.367 . S
C287 C286 1.367 . S
C287 C289 1.433 . S
C288 C284 1.350 . S
C288 C285 1.463 . S
C288 N292 1.427 . S
C289 H279 0.929 . S
C289 C287 1.433 . S
C289 N292 1.384 . S
C290 H281 0.929 . S
C290 C282 1.378 . S
C290 C285 1.350 . S
C291 H278 0.929 . S
C291 C283 1.433 . S
C291 N293 1.384 . S
N292 C288 1.427 . S
N292 C289 1.384 . S
N293 C285 1.427 . S
N293 C291 1.384 . S
H294 C300 0.930 . S
H295 C304 0.930 . S
H296 C309 0.929 . S
H297 C307 0.929 . S
H298 C302 0.929 . S
H299 C308 0.929 . S
C300 H294 0.930 . S
C300 C301 1.367 . S
C300 C308 1.378 . S
C301 C300 1.367 . S
C301 C309 1.433 . S
C302 H298 0.929 . S
C302 C304 1.378 . S
C302 C306 1.350 . S
C303 C306 1.463 . S
C303 C308 1.350 . S
C303 N311 1.427 . S
C304 H295 0.930 . S
C304 C302 1.378 . S
C304 C305 1.367 . S
C305 C304 1.367 . S
C305 C307 1.433 . S
C306 C302 1.350 . S
C306 C303 1.463 . S
C306 N310 1.427 . S
C307 H297 0.929 . S
C307 C305 1.433 . S
C307 N310 1.384 . S
C308 H299 0.929 . S
C308 C300 1.378 . S
C308 C303 1.350 . S
C309 H296 0.929 . S
C309 C301 1.433 . S
C309 N311 1.384 . S
N310 C306 1.427 . S
N310 C307 1.384 . S
N311 C303 1.427 . S
N311 C309 1.384 . S
H312 C318 0.930 . S
H313 C322 0.930 . S
H314 C327 0.929 . S
H315 C325 0.929 . S
H316 C320 0.929 . S
H317 C326 0.929 . S
C318 H312 0.930 . S
C318 C319 1.367 . S
C318 C326 1.378 . S
C319 C318 1.367 . S
C319 C327 1.433 . S
C320 H316 0.929 . S
C320 C322 1.378 . S
C320 C324 1.350 . S
C321 C324 1.463 . S
C321 C326 1.350 . S
C321 N329 1.427 . S
C322 H313 0.930 . S
C322 C320 1.378 . S
C322 C323 1.367 . S
C323 C322 1.367 . S
C323 C325 1.433 . S
C324 C320 1.350 . S
C324 C321 1.463 . S
C324 N328 1.427 . S
C325 H315 0.929 . S
C325 C323 1.433 . S
C325 N328 1.384 . S
C326 H317 0.929 . S
C326 C318 1.378 . S
C326 C321 1.350 . S
C327 H314 0.929 . S
C327 C319 1.433 . S
C327 N329 1.384 . S
N328 C324 1.427 . S
N328 C325 1.384 . S
N329 C321 1.427 . S
N329 C327 1.384 . S
H330 C336 0.930 . S
H331 C340 0.930 . S
H332 C345 0.929 . S
H333 C343 0.929 . S
H334 C338 0.929 . S
H335 C344 0.929 . S
C336 H330 0.930 . S
C336 C337 1.367 . S
C336 C344 1.378 . S
C337 C336 1.367 . S
C337 C345 1.433 . S
C338 H334 0.929 . S
C338 C340 1.378 . S
C338 C342 1.350 . S
C339 C342 1.463 . S
C339 C344 1.350 . S
C339 N347 1.427 . S
C340 H331 0.930 . S
C340 C338 1.378 . S
C340 C341 1.367 . S
C341 C340 1.367 . S
C341 C343 1.433 . S
C342 C338 1.350 . S
C342 C339 1.463 . S
C342 N346 1.427 . S
C343 H333 0.929 . S
C343 C341 1.433 . S
C343 N346 1.384 . S
C344 H335 0.929 . S
C344 C336 1.378 . S
C344 C339 1.350 . S
C345 H332 0.929 . S
C345 C337 1.433 . S
C345 N347 1.384 . S
N346 C342 1.427 . S
N346 C343 1.384 . S
N347 C339 1.427 . S
N347 C345 1.384 . S
H348 C354 0.930 . S
H349 C358 0.930 . S
H350 C363 0.929 . S
H351 C361 0.929 . S
H352 C356 0.929 . S
H353 C362 0.929 . S
C354 H348 0.930 . S
C354 C355 1.367 . S
C354 C362 1.378 . S
C355 C354 1.367 . S
C355 C363 1.433 . S
C356 H352 0.929 . S
C356 C358 1.378 . S
C356 C360 1.350 . S
C357 C360 1.463 . S
C357 C362 1.350 . S
C357 N365 1.427 . S
C358 H349 0.930 . S
C358 C356 1.378 . S
C358 C359 1.367 . S
C359 C358 1.367 . S
C359 C361 1.433 . S
C360 C356 1.350 . S
C360 C357 1.463 . S
C360 N364 1.427 . S
C361 H351 0.929 . S
C361 C359 1.433 . S
C361 N364 1.384 . S
C362 H353 0.929 . S
C362 C354 1.378 . S
C362 C357 1.350 . S
C363 H350 0.929 . S
C363 C355 1.433 . S
C363 N365 1.384 . S
N364 C360 1.427 . S
N364 C361 1.384 . S
N365 C357 1.427 . S
N365 C363 1.384 . S
H366 C372 0.930 . S
H367 C376 0.930 . S
H368 C381 0.929 . S
H369 C379 0.929 . S
H370 C374 0.929 . S
H371 C380 0.929 . S
C372 H366 0.930 . S
C372 C373 1.367 . S
C372 C380 1.378 . S
C373 C372 1.367 . S
C373 C381 1.433 . S
C374 H370 0.929 . S
C374 C376 1.378 . S
C374 C378 1.350 . S
C375 C378 1.463 . S
C375 C380 1.350 . S
C375 N383 1.427 . S
C376 H367 0.930 . S
C376 C374 1.378 . S
C376 C377 1.367 . S
C377 C376 1.367 . S
C377 C379 1.433 . S
C378 C374 1.350 . S
C378 C375 1.463 . S
C378 N382 1.427 . S
C379 H369 0.929 . S
C379 C377 1.433 . S
C379 N382 1.384 . S
C380 H371 0.929 . S
C380 C372 1.378 . S
C380 C375 1.350 . S
C381 H368 0.929 . S
C381 C373 1.433 . S
C381 N383 1.384 . S
N382 C378 1.427 . S
N382 C379 1.384 . S
N383 C375 1.427 . S
N383 C381 1.384 . S
H384 C390 0.930 . S
H385 C394 0.930 . S
H386 C399 0.929 . S
H387 C397 0.929 . S
H388 C392 0.929 . S
H389 C398 0.929 . S
C390 H384 0.930 . S
C390 C391 1.367 . S
C390 C398 1.378 . S
C391 C390 1.367 . S
C391 C399 1.433 . S
C392 H388 0.929 . S
C392 C394 1.378 . S
C392 C396 1.350 . S
C393 C396 1.463 . S
C393 C398 1.350 . S
C393 N401 1.427 . S
C394 H385 0.930 . S
C394 C392 1.378 . S
C394 C395 1.367 . S
C395 C394 1.367 . S
C395 C397 1.433 . S
C396 C392 1.350 . S
C396 C393 1.463 . S
C396 N400 1.427 . S
C397 H387 0.929 . S
C397 C395 1.433 . S
C397 N400 1.384 . S
C398 H389 0.929 . S
C398 C390 1.378 . S
C398 C393 1.350 . S
C399 H386 0.929 . S
C399 C391 1.433 . S
C399 N401 1.384 . S
N400 C396 1.427 . S
N400 C397 1.384 . S
N401 C393 1.427 . S
N401 C399 1.384 . S
H402 C408 0.930 . S
H403 C412 0.930 . S
H404 C417 0.929 . S
H405 C415 0.929 . S
H406 C410 0.929 . S
H407 C416 0.929 . S
C408 H402 0.930 . S
C408 C409 1.367 . S
C408 C416 1.378 . S
C409 C408 1.367 . S
C409 C417 1.433 . S
C410 H406 0.929 . S
C410 C412 1.378 . S
C410 C414 1.350 . S
C411 C414 1.463 . S
C411 C416 1.350 . S
C411 N419 1.427 . S
C412 H403 0.930 . S
C412 C410 1.378 . S
C412 C413 1.367 . S
C413 C412 1.367 . S
C413 C415 1.433 . S
C414 C410 1.350 . S
C414 C411 1.463 . S
C414 N418 1.427 . S
C415 H405 0.929 . S
C415 C413 1.433 . S
C415 N418 1.384 . S
C416 H407 0.929 . S
C416 C408 1.378 . S
C416 C411 1.350 . S
C417 H404 0.929 . S
C417 C409 1.433 . S
C417 N419 1.384 . S
N418 C414 1.427 . S
N418 C415 1.384 . S
N419 C411 1.427 . S
N419 C417 1.384 . S
H420 C426 0.930 . S
H421 C430 0.930 . S
H422 C435 0.929 . S
H423 C433 0.929 . S
H424 C428 0.929 . S
H425 C434 0.929 . S
C426 H420 0.930 . S
C426 C427 1.367 . S
C426 C434 1.378 . S
C427 C426 1.367 . S
C427 C435 1.433 . S
C428 H424 0.929 . S
C428 C430 1.378 . S
C428 C432 1.350 . S
C429 C432 1.463 . S
C429 C434 1.350 . S
C429 N437 1.427 . S
C430 H421 0.930 . S
C430 C428 1.378 . S
C430 C431 1.367 . S
C431 C430 1.367 . S
C431 C433 1.433 . S
C432 C428 1.350 . S
C432 C429 1.463 . S
C432 N436 1.427 . S
C433 H423 0.929 . S
C433 C431 1.433 . S
C433 N436 1.384 . S
C434 H425 0.929 . S
C434 C426 1.378 . S
C434 C429 1.350 . S
C435 H422 0.929 . S
C435 C427 1.433 . S
C435 N437 1.384 . S
N436 C432 1.427 . S
N436 C433 1.384 . S
N437 C429 1.427 . S
N437 C435 1.384 . S
H438 C444 0.930 . S
H439 C448 0.930 . S
H440 C453 0.929 . S
H441 C451 0.929 . S
H442 C446 0.929 . S
H443 C452 0.929 . S
C444 H438 0.930 . S
C444 C445 1.367 . S
C444 C452 1.378 . S
C445 C444 1.367 . S
C445 C453 1.433 . S
C446 H442 0.929 . S
C446 C448 1.378 . S
C446 C450 1.350 . S
C447 C450 1.463 . S
C447 C452 1.350 . S
C447 N455 1.427 . S
C448 H439 0.930 . S
C448 C446 1.378 . S
C448 C449 1.367 . S
C449 C448 1.367 . S
C449 C451 1.433 . S
C450 C446 1.350 . S
C450 C447 1.463 . S
C450 N454 1.427 . S
C451 H441 0.929 . S
C451 C449 1.433 . S
C451 N454 1.384 . S
C452 H443 0.929 . S
C452 C444 1.378 . S
C452 C447 1.350 . S
C453 H440 0.929 . S
C453 C445 1.433 . S
C453 N455 1.384 . S
N454 C450 1.427 . S
N454 C451 1.384 . S
N455 C447 1.427 . S
N455 C453 1.384 . S
H456 C462 0.930 . S
H457 C466 0.930 . S
H458 C471 0.929 . S
H459 C469 0.929 . S
H460 C464 0.929 . S
H461 C470 0.929 . S
C462 H456 0.930 . S
C462 C463 1.367 . S
C462 C470 1.378 . S
C463 C462 1.367 . S
C463 C471 1.433 . S
C464 H460 0.929 . S
C464 C466 1.378 . S
C464 C468 1.350 . S
C465 C468 1.463 . S
C465 C470 1.350 . S
C465 N473 1.427 . S
C466 H457 0.930 . S
C466 C464 1.378 . S
C466 C467 1.367 . S
C467 C466 1.367 . S
C467 C469 1.433 . S
C468 C464 1.350 . S
C468 C465 1.463 . S
C468 N472 1.427 . S
C469 H459 0.929 . S
C469 C467 1.433 . S
C469 N472 1.384 . S
C470 H461 0.929 . S
C470 C462 1.378 . S
C470 C465 1.350 . S
C471 H458 0.929 . S
C471 C463 1.433 . S
C471 N473 1.384 . S
N472 C468 1.427 . S
N472 C469 1.384 . S
N473 C465 1.427 . S
N473 C471 1.384 . S
H474 C480 0.930 . S
H475 C484 0.930 . S
H476 C489 0.929 . S
H477 C487 0.929 . S
H478 C482 0.929 . S
H479 C488 0.929 . S
C480 H474 0.930 . S
C480 C481 1.367 . S
C480 C488 1.378 . S
C481 C480 1.367 . S
C481 C489 1.433 . S
C482 H478 0.929 . S
C482 C484 1.378 . S
C482 C486 1.350 . S
C483 C486 1.463 . S
C483 C488 1.350 . S
C483 N491 1.427 . S
C484 H475 0.930 . S
C484 C482 1.378 . S
C484 C485 1.367 . S
C485 C484 1.367 . S
C485 C487 1.433 . S
C486 C482 1.350 . S
C486 C483 1.463 . S
C486 N490 1.427 . S
C487 H477 0.929 . S
C487 C485 1.433 . S
C487 N490 1.384 . S
C488 H479 0.929 . S
C488 C480 1.378 . S
C488 C483 1.350 . S
C489 H476 0.929 . S
C489 C481 1.433 . S
C489 N491 1.384 . S
N490 C486 1.427 . S
N490 C487 1.384 . S
N491 C483 1.427 . S
N491 C489 1.384 . S
H492 C498 0.930 . S
H493 C502 0.930 . S
H494 C507 0.929 . S
H495 C505 0.929 . S
H496 C500 0.929 . S
H497 C506 0.929 . S
C498 H492 0.930 . S
C498 C499 1.367 . S
C498 C506 1.378 . S
C499 C498 1.367 . S
C499 C507 1.433 . S
C500 H496 0.929 . S
C500 C502 1.378 . S
C500 C504 1.350 . S
C501 C504 1.463 . S
C501 C506 1.350 . S
C501 N509 1.427 . S
C502 H493 0.930 . S
C502 C500 1.378 . S
C502 C503 1.367 . S
C503 C502 1.367 . S
C503 C505 1.433 . S
C504 C500 1.350 . S
C504 C501 1.463 . S
C504 N508 1.427 . S
C505 H495 0.929 . S
C505 C503 1.433 . S
C505 N508 1.384 . S
C506 H497 0.929 . S
C506 C498 1.378 . S
C506 C501 1.350 . S
C507 H494 0.929 . S
C507 C499 1.433 . S
C507 N509 1.384 . S
N508 C504 1.427 . S
N508 C505 1.384 . S
N509 C501 1.427 . S
N509 C507 1.384 . S
H510 C516 0.930 . S
H511 C520 0.930 . S
H512 C525 0.929 . S
H513 C523 0.929 . S
H514 C518 0.929 . S
H515 C524 0.929 . S
C516 H510 0.930 . S
C516 C517 1.367 . S
C516 C524 1.378 . S
C517 C516 1.367 . S
C517 C525 1.433 . S
C518 H514 0.929 . S
C518 C520 1.378 . S
C518 C522 1.350 . S
C519 C522 1.463 . S
C519 C524 1.350 . S
C519 N527 1.427 . S
C520 H511 0.930 . S
C520 C518 1.378 . S
C520 C521 1.367 . S
C521 C520 1.367 . S
C521 C523 1.433 . S
C522 C518 1.350 . S
C522 C519 1.463 . S
C522 N526 1.427 . S
C523 H513 0.929 . S
C523 C521 1.433 . S
C523 N526 1.384 . S
C524 H515 0.929 . S
C524 C516 1.378 . S
C524 C519 1.350 . S
C525 H512 0.929 . S
C525 C517 1.433 . S
C525 N527 1.384 . S
N526 C522 1.427 . S
N526 C523 1.384 . S
N527 C519 1.427 . S
N527 C525 1.384 . S
H528 C534 0.930 . S
H529 C538 0.930 . S
H530 C543 0.929 . S
H531 C541 0.929 . S
H532 C536 0.929 . S
H533 C542 0.929 . S
C534 H528 0.930 . S
C534 C535 1.367 1_556 S
C534 C542 1.378 . S
C535 C534 1.367 1_554 S
C535 C543 1.433 . S
C536 H532 0.929 . S
C536 C538 1.378 . S
C536 C540 1.350 . S
C537 C540 1.463 . S
C537 C542 1.350 1_554 S
C537 N545 1.427 . S
C538 H529 0.930 . S
C538 C536 1.378 . S
C538 C539 1.367 . S
C539 C538 1.367 . S
C539 C541 1.433 1_554 S
C540 C536 1.350 . S
C540 C537 1.463 . S
C540 N544 1.427 1_554 S
C541 H531 0.929 . S
C541 C539 1.433 1_556 S
C541 N544 1.384 . S
C542 H533 0.929 . S
C542 C534 1.378 . S
C542 C537 1.350 1_556 S
C543 H530 0.929 . S
C543 C535 1.433 . S
C543 N545 1.384 . S
N544 C540 1.427 1_556 S
N544 C541 1.384 . S
N545 C537 1.427 . S
N545 C543 1.384 . S
H546 C552 0.930 . S
H547 C556 0.930 . S
H548 C561 0.929 . S
H549 C559 0.929 . S
H550 C554 0.929 . S
H551 C560 0.929 . S
C552 H546 0.930 . S
C552 C553 1.367 . S
C552 C560 1.378 . S
C553 C552 1.367 . S
C553 C561 1.433 . S
C554 H550 0.929 . S
C554 C556 1.378 . S
C554 C558 1.350 . S
C555 C558 1.463 . S
C555 C560 1.350 . S
C555 N563 1.427 . S
C556 H547 0.930 . S
C556 C554 1.378 . S
C556 C557 1.367 . S
C557 C556 1.367 . S
C557 C559 1.433 . S
C558 C554 1.350 . S
C558 C555 1.463 . S
C558 N562 1.427 . S
C559 H549 0.929 . S
C559 C557 1.433 . S
C559 N562 1.384 . S
C560 H551 0.929 . S
C560 C552 1.378 . S
C560 C555 1.350 . S
C561 H548 0.929 . S
C561 C553 1.433 . S
C561 N563 1.384 . S
N562 C558 1.427 . S
N562 C559 1.384 . S
N563 C555 1.427 . S
N563 C561 1.384 . S
H564 C570 0.930 . S
H565 C574 0.930 . S
H566 C579 0.929 . S
H567 C577 0.929 . S
H568 C572 0.929 . S
H569 C578 0.929 . S
C570 H564 0.930 . S
C570 C571 1.367 1_556 S
C570 C578 1.378 . S
C571 C570 1.367 1_554 S
C571 C579 1.433 . S
C572 H568 0.929 . S
C572 C574 1.378 . S
C572 C576 1.350 . S
C573 C576 1.463 . S
C573 C578 1.350 1_554 S
C573 N581 1.427 . S
C574 H565 0.930 . S
C574 C572 1.378 . S
C574 C575 1.367 . S
C575 C574 1.367 . S
C575 C577 1.433 1_554 S
C576 C572 1.350 . S
C576 C573 1.463 . S
C576 N580 1.427 1_554 S
C577 H567 0.929 . S
C577 C575 1.433 1_556 S
C577 N580 1.384 . S
C578 H569 0.929 . S
C578 C570 1.378 . S
C578 C573 1.350 1_556 S
C579 H566 0.929 . S
C579 C571 1.433 . S
C579 N581 1.384 . S
N580 C576 1.427 1_556 S
N580 C577 1.384 . S
N581 C573 1.427 . S
N581 C579 1.384 . S
H582 C588 0.930 . S
H583 C592 0.930 . S
H584 C597 0.929 . S
H585 C595 0.929 . S
H586 C590 0.929 . S
H587 C596 0.929 . S
C588 H582 0.930 . S
C588 C589 1.367 . S
C588 C596 1.378 . S
C589 C588 1.367 . S
C589 C597 1.433 . S
C590 H586 0.929 . S
C590 C592 1.378 . S
C590 C594 1.350 . S
C591 C594 1.463 . S
C591 C596 1.350 . S
C591 N599 1.427 . S
C592 H583 0.930 . S
C592 C590 1.378 . S
C592 C593 1.367 . S
C593 C592 1.367 . S
C593 C595 1.433 . S
C594 C590 1.350 . S
C594 C591 1.463 . S
C594 N598 1.427 . S
C595 H585 0.929 . S
C595 C593 1.433 . S
C595 N598 1.384 . S
C596 H587 0.929 . S
C596 C588 1.378 . S
C596 C591 1.350 . S
C597 H584 0.929 . S
C597 C589 1.433 . S
C597 N599 1.384 . S
N598 C594 1.427 . S
N598 C595 1.384 . S
N599 C591 1.427 . S
N599 C597 1.384 . S
H600 C606 0.930 . S
H601 C610 0.930 . S
H602 C615 0.929 . S
H603 C613 0.929 . S
H604 C608 0.929 . S
H605 C614 0.929 . S
C606 H600 0.930 . S
C606 C607 1.367 . S
C606 C614 1.378 . S
C607 C606 1.367 . S
C607 C615 1.433 . S
C608 H604 0.929 . S
C608 C610 1.378 . S
C608 C612 1.350 . S
C609 C612 1.463 . S
C609 C614 1.350 . S
C609 N617 1.427 . S
C610 H601 0.930 . S
C610 C608 1.378 . S
C610 C611 1.367 . S
C611 C610 1.367 . S
C611 C613 1.433 . S
C612 C608 1.350 . S
C612 C609 1.463 . S
C612 N616 1.427 . S
C613 H603 0.929 . S
C613 C611 1.433 . S
C613 N616 1.384 . S
C614 H605 0.929 . S
C614 C606 1.378 . S
C614 C609 1.350 . S
C615 H602 0.929 . S
C615 C607 1.433 . S
C615 N617 1.384 . S
N616 C612 1.427 . S
N616 C613 1.384 . S
N617 C609 1.427 . S
N617 C615 1.384 . S
H618 C624 0.930 . S
H619 C628 0.930 . S
H620 C633 0.929 . S
H621 C631 0.929 . S
H622 C626 0.929 . S
H623 C632 0.929 . S
C624 H618 0.930 . S
C624 C625 1.367 1_556 S
C624 C632 1.378 . S
C625 C624 1.367 1_554 S
C625 C633 1.433 . S
C626 H622 0.929 . S
C626 C628 1.378 . S
C626 C630 1.350 . S
C627 C630 1.463 . S
C627 C632 1.350 1_554 S
C627 N635 1.427 . S
C628 H619 0.930 . S
C628 C626 1.378 . S
C628 C629 1.367 . S
C629 C628 1.367 . S
C629 C631 1.433 1_554 S
C630 C626 1.350 . S
C630 C627 1.463 . S
C630 N634 1.427 1_554 S
C631 H621 0.929 . S
C631 C629 1.433 1_556 S
C631 N634 1.384 . S
C632 H623 0.929 . S
C632 C624 1.378 . S
C632 C627 1.350 1_556 S
C633 H620 0.929 . S
C633 C625 1.433 . S
C633 N635 1.384 . S
N634 C630 1.427 1_556 S
N634 C631 1.384 . S
N635 C627 1.427 . S
N635 C633 1.384 . S
H636 C642 0.930 . S
H637 C646 0.930 . S
H638 C651 0.929 . S
H639 C649 0.929 . S
H640 C644 0.929 . S
H641 C650 0.929 . S
C642 H636 0.930 . S
C642 C643 1.367 . S
C642 C650 1.378 . S
C643 C642 1.367 . S
C643 C651 1.433 . S
C644 H640 0.929 . S
C644 C646 1.378 . S
C644 C648 1.350 . S
C645 C648 1.463 . S
C645 C650 1.350 . S
C645 N653 1.427 . S
C646 H637 0.930 . S
C646 C644 1.378 . S
C646 C647 1.367 . S
C647 C646 1.367 . S
C647 C649 1.433 . S
C648 C644 1.350 . S
C648 C645 1.463 . S
C648 N652 1.427 . S
C649 H639 0.929 . S
C649 C647 1.433 . S
C649 N652 1.384 . S
C650 H641 0.929 . S
C650 C642 1.378 . S
C650 C645 1.350 . S
C651 H638 0.929 . S
C651 C643 1.433 . S
C651 N653 1.384 . S
N652 C648 1.427 . S
N652 C649 1.384 . S
N653 C645 1.427 . S
N653 C651 1.384 . S
H654 C660 0.930 . S
H655 C664 0.930 . S
H656 C669 0.929 . S
H657 C667 0.929 1_556 S
H658 C662 0.929 . S
H659 C668 0.929 . S
C660 H654 0.930 . S
C660 C661 1.367 . S
C660 C668 1.378 . S
C661 C660 1.367 . S
C661 C669 1.433 . S
C662 H658 0.929 . S
C662 C664 1.378 . S
C662 C666 1.350 . S
C663 C666 1.463 . S
C663 C668 1.350 . S
C663 N671 1.427 . S
C664 H655 0.930 . S
C664 C662 1.378 . S
C664 C665 1.367 . S
C665 C664 1.367 . S
C665 C667 1.433 . S
C666 C662 1.350 . S
C666 C663 1.463 . S
C666 N670 1.427 . S
C667 H657 0.929 1_554 S
C667 C665 1.433 . S
C667 N670 1.384 . S
C668 H659 0.929 . S
C668 C660 1.378 . S
C668 C663 1.350 . S
C669 H656 0.929 . S
C669 C661 1.433 . S
C669 N671 1.384 . S
N670 C666 1.427 . S
N670 C667 1.384 . S
N671 C663 1.427 . S
N671 C669 1.384 . S
C247 C21 1.527 . S
C251 C151 1.529 . S
C265 C40 1.505 . S
C269 C94 1.498 . S
C287 C109 1.479 . S
C283 C54 1.518 . S
C301 C73 1.539 . S
C305 C128 1.505 . S
C323 C185 1.466 . S
C319 C74 1.502 . S
C341 C204 1.497 . S
C337 C10 1.537 . S
C359 C227 1.546 . S
C355 C37 1.539 . S
C377 C170 1.515 . S
C373 C65 1.512 . S
C391 C52 1.473 . S
C395 C113 1.469 . S
C409 C87 1.526 . S
C413 C132 1.527 . S
C427 C15 1.575 . S
C431 C147 1.529 . S
C449 C90 1.479 . S
C445 C32 1.521 . S
C463 C29 1.558 . S
C467 C223 1.520 . S
C485 C166 1.514 . S
C481 C59 1.558 . S
C503 C189 1.484 . S
C499 C84 1.487 . S
C517 C8 1.489 . S
C521 C208 1.486 . S
C539 C99 1.392 1_554 S
C535 C7 1.509 . S
C557 C118 1.367 . S
C553 C30 1.486 . S
C571 C62 1.499 . S
C575 C137 1.381 . S
C589 C81 1.522 . S
C593 C156 1.391 . S
C611 C175 1.366 . S
C607 C76 1.498 . S
C625 C18 1.484 . S
C629 C194 1.378 1_554 S
C643 C43 1.504 . S
C647 C213 1.393 . S
C661 C51 1.516 . S
C665 C232 1.402 . S
