# Generated by pormake.
# Topology tbo, (3,4)-cn, num edge types: 1
# Building blocks:
#     Node 0, Type 0, BuildingBlock: PAMTOO_clean_linker_0, # of connection points: 3
#     Node 1, Type 0, BuildingBlock: PAMTOO_clean_linker_0, # of connection points: 3
#     Node 2, Type 0, BuildingBlock: PAMTOO_clean_linker_0, # of connection points: 3
#     Node 3, Type 0, BuildingBlock: PAMTOO_clean_linker_0, # of connection points: 3
#     Node 4, Type 0, BuildingBlock: PAMTOO_clean_linker_0, # of connection points: 3
#     Node 5, Type 0, BuildingBlock: PAMTOO_clean_linker_0, # of connection points: 3
#     Node 6, Type 0, BuildingBlock: PAMTOO_clean_linker_0, # of connection points: 3
#     Node 7, Type 0, BuildingBlock: PAMTOO_clean_linker_0, # of connection points: 3
#     Node 8, Type 0, BuildingBlock: PAMTOO_clean_linker_0, # of connection points: 3
#     Node 9, Type 0, BuildingBlock: PAMTOO_clean_linker_0, # of connection points: 3
#     Node 10, Type 0, BuildingBlock: PAMTOO_clean_linker_0, # of connection points: 3
#     Node 11, Type 0, BuildingBlock: PAMTOO_clean_linker_0, # of connection points: 3
#     Node 12, Type 0, BuildingBlock: PAMTOO_clean_linker_0, # of connection points: 3
#     Node 13, Type 0, BuildingBlock: PAMTOO_clean_linker_0, # of connection points: 3
#     Node 14, Type 0, BuildingBlock: PAMTOO_clean_linker_0, # of connection points: 3
#     Node 15, Type 0, BuildingBlock: PAMTOO_clean_linker_0, # of connection points: 3
#     Node 16, Type 0, BuildingBlock: PAMTOO_clean_linker_0, # of connection points: 3
#     Node 17, Type 0, BuildingBlock: PAMTOO_clean_linker_0, # of connection points: 3
#     Node 18, Type 0, BuildingBlock: PAMTOO_clean_linker_0, # of connection points: 3
#     Node 19, Type 0, BuildingBlock: PAMTOO_clean_linker_0, # of connection points: 3
#     Node 20, Type 0, BuildingBlock: PAMTOO_clean_linker_0, # of connection points: 3
#     Node 21, Type 0, BuildingBlock: PAMTOO_clean_linker_0, # of connection points: 3
#     Node 22, Type 0, BuildingBlock: PAMTOO_clean_linker_0, # of connection points: 3
#     Node 23, Type 0, BuildingBlock: PAMTOO_clean_linker_0, # of connection points: 3
#     Node 24, Type 0, BuildingBlock: PAMTOO_clean_linker_0, # of connection points: 3
#     Node 25, Type 0, BuildingBlock: PAMTOO_clean_linker_0, # of connection points: 3
#     Node 26, Type 0, BuildingBlock: PAMTOO_clean_linker_0, # of connection points: 3
#     Node 27, Type 0, BuildingBlock: PAMTOO_clean_linker_0, # of connection points: 3
#     Node 28, Type 0, BuildingBlock: PAMTOO_clean_linker_0, # of connection points: 3
#     Node 29, Type 0, BuildingBlock: PAMTOO_clean_linker_0, # of connection points: 3
#     Node 30, Type 0, BuildingBlock: PAMTOO_clean_linker_0, # of connection points: 3
#     Node 31, Type 0, BuildingBlock: PAMTOO_clean_linker_0, # of connection points: 3
#     Node 32, Type 1, BuildingBlock: ESEHIV_clean_sbu_0, # of connection points: 4
#     Node 33, Type 1, BuildingBlock: ESEHIV_clean_sbu_0, # of connection points: 4
#     Node 34, Type 1, BuildingBlock: ESEHIV_clean_sbu_0, # of connection points: 4
#     Node 35, Type 1, BuildingBlock: ESEHIV_clean_sbu_0, # of connection points: 4
#     Node 36, Type 1, BuildingBlock: ESEHIV_clean_sbu_0, # of connection points: 4
#     Node 37, Type 1, BuildingBlock: ESEHIV_clean_sbu_0, # of connection points: 4
#     Node 38, Type 1, BuildingBlock: ESEHIV_clean_sbu_0, # of connection points: 4
#     Node 39, Type 1, BuildingBlock: ESEHIV_clean_sbu_0, # of connection points: 4
#     Node 40, Type 1, BuildingBlock: ESEHIV_clean_sbu_0, # of connection points: 4
#     Node 41, Type 1, BuildingBlock: ESEHIV_clean_sbu_0, # of connection points: 4
#     Node 42, Type 1, BuildingBlock: ESEHIV_clean_sbu_0, # of connection points: 4
#     Node 43, Type 1, BuildingBlock: ESEHIV_clean_sbu_0, # of connection points: 4
#     Node 44, Type 1, BuildingBlock: ESEHIV_clean_sbu_0, # of connection points: 4
#     Node 45, Type 1, BuildingBlock: ESEHIV_clean_sbu_0, # of connection points: 4
#     Node 46, Type 1, BuildingBlock: ESEHIV_clean_sbu_0, # of connection points: 4
#     Node 47, Type 1, BuildingBlock: ESEHIV_clean_sbu_0, # of connection points: 4
#     Node 48, Type 1, BuildingBlock: ESEHIV_clean_sbu_0, # of connection points: 4
#     Node 49, Type 1, BuildingBlock: ESEHIV_clean_sbu_0, # of connection points: 4
#     Node 50, Type 1, BuildingBlock: ESEHIV_clean_sbu_0, # of connection points: 4
#     Node 51, Type 1, BuildingBlock: ESEHIV_clean_sbu_0, # of connection points: 4
#     Node 52, Type 1, BuildingBlock: ESEHIV_clean_sbu_0, # of connection points: 4
#     Node 53, Type 1, BuildingBlock: ESEHIV_clean_sbu_0, # of connection points: 4
#     Node 54, Type 1, BuildingBlock: ESEHIV_clean_sbu_0, # of connection points: 4
#     Node 55, Type 1, BuildingBlock: ESEHIV_clean_sbu_0, # of connection points: 4
#     Edge 56, Type (0, 1), BuildingBlock: ZUJKAS_clean_linker_0, # of connection points: 2
#     Edge 57, Type (0, 1), BuildingBlock: ZUJKAS_clean_linker_0, # of connection points: 2
#     Edge 58, Type (0, 1), BuildingBlock: ZUJKAS_clean_linker_0, # of connection points: 2
#     Edge 59, Type (0, 1), BuildingBlock: ZUJKAS_clean_linker_0, # of connection points: 2
#     Edge 60, Type (0, 1), BuildingBlock: ZUJKAS_clean_linker_0, # of connection points: 2
#     Edge 61, Type (0, 1), BuildingBlock: ZUJKAS_clean_linker_0, # of connection points: 2
#     Edge 62, Type (0, 1), BuildingBlock: ZUJKAS_clean_linker_0, # of connection points: 2
#     Edge 63, Type (0, 1), BuildingBlock: ZUJKAS_clean_linker_0, # of connection points: 2
#     Edge 64, Type (0, 1), BuildingBlock: ZUJKAS_clean_linker_0, # of connection points: 2
#     Edge 65, Type (0, 1), BuildingBlock: ZUJKAS_clean_linker_0, # of connection points: 2
#     Edge 66, Type (0, 1), BuildingBlock: ZUJKAS_clean_linker_0, # of connection points: 2
#     Edge 67, Type (0, 1), BuildingBlock: ZUJKAS_clean_linker_0, # of connection points: 2
#     Edge 68, Type (0, 1), BuildingBlock: ZUJKAS_clean_linker_0, # of connection points: 2
#     Edge 69, Type (0, 1), BuildingBlock: ZUJKAS_clean_linker_0, # of connection points: 2
#     Edge 70, Type (0, 1), BuildingBlock: ZUJKAS_clean_linker_0, # of connection points: 2
#     Edge 71, Type (0, 1), BuildingBlock: ZUJKAS_clean_linker_0, # of connection points: 2
#     Edge 72, Type (0, 1), BuildingBlock: ZUJKAS_clean_linker_0, # of connection points: 2
#     Edge 73, Type (0, 1), BuildingBlock: ZUJKAS_clean_linker_0, # of connection points: 2
#     Edge 74, Type (0, 1), BuildingBlock: ZUJKAS_clean_linker_0, # of connection points: 2
#     Edge 75, Type (0, 1), BuildingBlock: ZUJKAS_clean_linker_0, # of connection points: 2
#     Edge 76, Type (0, 1), BuildingBlock: ZUJKAS_clean_linker_0, # of connection points: 2
#     Edge 77, Type (0, 1), BuildingBlock: ZUJKAS_clean_linker_0, # of connection points: 2
#     Edge 78, Type (0, 1), BuildingBlock: ZUJKAS_clean_linker_0, # of connection points: 2
#     Edge 79, Type (0, 1), BuildingBlock: ZUJKAS_clean_linker_0, # of connection points: 2
#     Edge 80, Type (0, 1), BuildingBlock: ZUJKAS_clean_linker_0, # of connection points: 2
#     Edge 81, Type (0, 1), BuildingBlock: ZUJKAS_clean_linker_0, # of connection points: 2
#     Edge 82, Type (0, 1), BuildingBlock: ZUJKAS_clean_linker_0, # of connection points: 2
#     Edge 83, Type (0, 1), BuildingBlock: ZUJKAS_clean_linker_0, # of connection points: 2
#     Edge 84, Type (0, 1), BuildingBlock: ZUJKAS_clean_linker_0, # of connection points: 2
#     Edge 85, Type (0, 1), BuildingBlock: ZUJKAS_clean_linker_0, # of connection points: 2
#     Edge 86, Type (0, 1), BuildingBlock: ZUJKAS_clean_linker_0, # of connection points: 2
#     Edge 87, Type (0, 1), BuildingBlock: ZUJKAS_clean_linker_0, # of connection points: 2
#     Edge 88, Type (0, 1), BuildingBlock: ZUJKAS_clean_linker_0, # of connection points: 2
#     Edge 89, Type (0, 1), BuildingBlock: ZUJKAS_clean_linker_0, # of connection points: 2
#     Edge 90, Type (0, 1), BuildingBlock: ZUJKAS_clean_linker_0, # of connection points: 2
#     Edge 91, Type (0, 1), BuildingBlock: ZUJKAS_clean_linker_0, # of connection points: 2
#     Edge 92, Type (0, 1), BuildingBlock: ZUJKAS_clean_linker_0, # of connection points: 2
#     Edge 93, Type (0, 1), BuildingBlock: ZUJKAS_clean_linker_0, # of connection points: 2
#     Edge 94, Type (0, 1), BuildingBlock: ZUJKAS_clean_linker_0, # of connection points: 2
#     Edge 95, Type (0, 1), BuildingBlock: ZUJKAS_clean_linker_0, # of connection points: 2
#     Edge 96, Type (0, 1), BuildingBlock: ZUJKAS_clean_linker_0, # of connection points: 2
#     Edge 97, Type (0, 1), BuildingBlock: ZUJKAS_clean_linker_0, # of connection points: 2
#     Edge 98, Type (0, 1), BuildingBlock: ZUJKAS_clean_linker_0, # of connection points: 2
#     Edge 99, Type (0, 1), BuildingBlock: ZUJKAS_clean_linker_0, # of connection points: 2
#     Edge 100, Type (0, 1), BuildingBlock: ZUJKAS_clean_linker_0, # of connection points: 2
#     Edge 101, Type (0, 1), BuildingBlock: ZUJKAS_clean_linker_0, # of connection points: 2
#     Edge 102, Type (0, 1), BuildingBlock: ZUJKAS_clean_linker_0, # of connection points: 2
#     Edge 103, Type (0, 1), BuildingBlock: ZUJKAS_clean_linker_0, # of connection points: 2
#     Edge 104, Type (0, 1), BuildingBlock: ZUJKAS_clean_linker_0, # of connection points: 2
#     Edge 105, Type (0, 1), BuildingBlock: ZUJKAS_clean_linker_0, # of connection points: 2
#     Edge 106, Type (0, 1), BuildingBlock: ZUJKAS_clean_linker_0, # of connection points: 2
#     Edge 107, Type (0, 1), BuildingBlock: ZUJKAS_clean_linker_0, # of connection points: 2
#     Edge 108, Type (0, 1), BuildingBlock: ZUJKAS_clean_linker_0, # of connection points: 2
#     Edge 109, Type (0, 1), BuildingBlock: ZUJKAS_clean_linker_0, # of connection points: 2
#     Edge 110, Type (0, 1), BuildingBlock: ZUJKAS_clean_linker_0, # of connection points: 2
#     Edge 111, Type (0, 1), BuildingBlock: ZUJKAS_clean_linker_0, # of connection points: 2
#     Edge 112, Type (0, 1), BuildingBlock: ZUJKAS_clean_linker_0, # of connection points: 2
#     Edge 113, Type (0, 1), BuildingBlock: ZUJKAS_clean_linker_0, # of connection points: 2
#     Edge 114, Type (0, 1), BuildingBlock: ZUJKAS_clean_linker_0, # of connection points: 2
#     Edge 115, Type (0, 1), BuildingBlock: ZUJKAS_clean_linker_0, # of connection points: 2
#     Edge 116, Type (0, 1), BuildingBlock: ZUJKAS_clean_linker_0, # of connection points: 2
#     Edge 117, Type (0, 1), BuildingBlock: ZUJKAS_clean_linker_0, # of connection points: 2
#     Edge 118, Type (0, 1), BuildingBlock: ZUJKAS_clean_linker_0, # of connection points: 2
#     Edge 119, Type (0, 1), BuildingBlock: ZUJKAS_clean_linker_0, # of connection points: 2
#     Edge 120, Type (0, 1), BuildingBlock: ZUJKAS_clean_linker_0, # of connection points: 2
#     Edge 121, Type (0, 1), BuildingBlock: ZUJKAS_clean_linker_0, # of connection points: 2
#     Edge 122, Type (0, 1), BuildingBlock: ZUJKAS_clean_linker_0, # of connection points: 2
#     Edge 123, Type (0, 1), BuildingBlock: ZUJKAS_clean_linker_0, # of connection points: 2
#     Edge 124, Type (0, 1), BuildingBlock: ZUJKAS_clean_linker_0, # of connection points: 2
#     Edge 125, Type (0, 1), BuildingBlock: ZUJKAS_clean_linker_0, # of connection points: 2
#     Edge 126, Type (0, 1), BuildingBlock: ZUJKAS_clean_linker_0, # of connection points: 2
#     Edge 127, Type (0, 1), BuildingBlock: ZUJKAS_clean_linker_0, # of connection points: 2
#     Edge 128, Type (0, 1), BuildingBlock: ZUJKAS_clean_linker_0, # of connection points: 2
#     Edge 129, Type (0, 1), BuildingBlock: ZUJKAS_clean_linker_0, # of connection points: 2
#     Edge 130, Type (0, 1), BuildingBlock: ZUJKAS_clean_linker_0, # of connection points: 2
#     Edge 131, Type (0, 1), BuildingBlock: ZUJKAS_clean_linker_0, # of connection points: 2
#     Edge 132, Type (0, 1), BuildingBlock: ZUJKAS_clean_linker_0, # of connection points: 2
#     Edge 133, Type (0, 1), BuildingBlock: ZUJKAS_clean_linker_0, # of connection points: 2
#     Edge 134, Type (0, 1), BuildingBlock: ZUJKAS_clean_linker_0, # of connection points: 2
#     Edge 135, Type (0, 1), BuildingBlock: ZUJKAS_clean_linker_0, # of connection points: 2
#     Edge 136, Type (0, 1), BuildingBlock: ZUJKAS_clean_linker_0, # of connection points: 2
#     Edge 137, Type (0, 1), BuildingBlock: ZUJKAS_clean_linker_0, # of connection points: 2
#     Edge 138, Type (0, 1), BuildingBlock: ZUJKAS_clean_linker_0, # of connection points: 2
#     Edge 139, Type (0, 1), BuildingBlock: ZUJKAS_clean_linker_0, # of connection points: 2
#     Edge 140, Type (0, 1), BuildingBlock: ZUJKAS_clean_linker_0, # of connection points: 2
#     Edge 141, Type (0, 1), BuildingBlock: ZUJKAS_clean_linker_0, # of connection points: 2
#     Edge 142, Type (0, 1), BuildingBlock: ZUJKAS_clean_linker_0, # of connection points: 2
#     Edge 143, Type (0, 1), BuildingBlock: ZUJKAS_clean_linker_0, # of connection points: 2
#     Edge 144, Type (0, 1), BuildingBlock: ZUJKAS_clean_linker_0, # of connection points: 2
#     Edge 145, Type (0, 1), BuildingBlock: ZUJKAS_clean_linker_0, # of connection points: 2
#     Edge 146, Type (0, 1), BuildingBlock: ZUJKAS_clean_linker_0, # of connection points: 2
#     Edge 147, Type (0, 1), BuildingBlock: ZUJKAS_clean_linker_0, # of connection points: 2
#     Edge 148, Type (0, 1), BuildingBlock: ZUJKAS_clean_linker_0, # of connection points: 2
#     Edge 149, Type (0, 1), BuildingBlock: ZUJKAS_clean_linker_0, # of connection points: 2
#     Edge 150, Type (0, 1), BuildingBlock: ZUJKAS_clean_linker_0, # of connection points: 2
#     Edge 151, Type (0, 1), BuildingBlock: ZUJKAS_clean_linker_0, # of connection points: 2
# Relax obj value: 0.022
# Max RMSD: 0.178
# Mean RMSD: 0.113
data_MOF--net-tbo--node1-ESEHIV_clean_sbu_0--node2-PAMTOO_clean_linker_0--edge1-ZUJKAS_clean_linker_0
_symmetry_space_group_name_H-M    P1
_symmetry_Int_Tables_number       1
_symmetry_cell_setting            triclinic
loop_
_symmetry_equiv_pos_as_xyz
'x, y, z'
_cell_length_a     91.803214
_cell_length_b     95.190433
_cell_length_c     95.067264
_cell_angle_alpha  90.317564
_cell_angle_beta   93.106952
_cell_angle_gamma 97.322676
loop_
_atom_site_label
_atom_site_type_symbol
_atom_site_fract_x
_atom_site_fract_y
_atom_site_fract_z
_atom_type_partial_charge
H0 H 0.16496 0.20335 0.19816 0.0
H1 H 0.16779 0.16931 0.22749 0.0
H2 H 0.19799 0.17538 0.1945 0.0
H3 H 0.18968 0.14568 0.1998 0.0
C4 C 0.18587 0.14623 0.21068 0.0
O5 O 0.18999 0.15974 0.21613 0.0
H6 H 0.17366 0.14381 0.20995 0.0
C7 C 0.17016 0.19436 0.20189 0.0
C8 C 0.18208 0.19034 0.1948 0.0
C9 C 0.16487 0.18694 0.21374 0.0
C10 C 0.1716 0.17517 0.21837 0.0
C11 C 0.18352 0.17102 0.21145 0.0
C12 C 0.18882 0.1787 0.1998 0.0
H13 H 0.86671 0.19854 0.20298 0.0
H14 H 0.82418 0.19284 0.18081 0.0
H15 H 0.85548 0.22863 0.17185 0.0
H16 H 0.82362 0.23395 0.17456 0.0
C17 C 0.81829 0.22379 0.1697 0.0
O18 O 0.8289 0.21569 0.16589 0.0
H19 H 0.81131 0.21809 0.17761 0.0
C20 C 0.85902 0.20189 0.19502 0.0
C21 C 0.86299 0.21433 0.18749 0.0
C22 C 0.84505 0.19405 0.19281 0.0
C23 C 0.83497 0.19878 0.18284 0.0
C24 C 0.83872 0.21128 0.17543 0.0
C25 C 0.85267 0.21906 0.17776 0.0
H26 H 0.85117 0.85517 0.18985 0.0
H27 H 0.8206 0.88578 0.18457 0.0
H28 H 0.84989 0.88762 0.2214 0.0
H29 H 0.81959 0.89279 0.22657 0.0
C30 C 0.81687 0.89821 0.21661 0.0
O31 O 0.82881 0.89938 0.20823 0.0
H32 H 0.80738 0.89162 0.21103 0.0
C33 C 0.84653 0.86428 0.19367 0.0
C34 C 0.85204 0.87067 0.20661 0.0
C35 C 0.83517 0.86953 0.18556 0.0
C36 C 0.82922 0.88139 0.19066 0.0
C37 C 0.83452 0.88786 0.20355 0.0
C38 C 0.84594 0.88255 0.21144 0.0
H39 H 0.13347 0.85138 0.20618 0.0
H40 H 0.13668 0.82773 0.16791 0.0
H41 H 0.17079 0.86103 0.18078 0.0
H42 H 0.16191 0.86057 0.15161 0.0
C43 C 0.16061 0.84898 0.14936 0.0
O44 O 0.16194 0.84159 0.16171 0.0
H45 H 0.14948 0.84577 0.14424 0.0
C46 C 0.13932 0.84935 0.19693 0.0
C47 C 0.15276 0.85764 0.19464 0.0
C48 C 0.13335 0.83849 0.1874 0.0
C49 C 0.14108 0.83596 0.17546 0.0
C50 C 0.15449 0.84415 0.17311 0.0
C51 C 0.16032 0.85489 0.18269 0.0
H52 H 0.17578 0.89126 0.8382 0.0
H53 H 0.16224 0.85202 0.85896 0.0
H54 H 0.20275 0.877 0.87245 0.0
H55 H 0.20293 0.84584 0.86974 0.0
C56 C 0.19224 0.8424 0.87446 0.0
O57 O 0.18495 0.85393 0.87679 0.0
H58 H 0.18539 0.8349 0.86701 0.0
C59 C 0.17789 0.88339 0.84599 0.0
C60 C 0.19064 0.88563 0.85505 0.0
C61 C 0.16749 0.87137 0.84737 0.0
C62 C 0.17005 0.86143 0.85778 0.0
C63 C 0.18276 0.86346 0.8667 0.0
C64 C 0.19298 0.87555 0.86541 0.0
H65 H 0.17589 0.23467 0.89788 0.0
H66 H 0.16879 0.2064 0.86191 0.0
H67 H 0.20327 0.20151 0.89295 0.0
H68 H 0.21019 0.19967 0.86293 0.0
C69 C 0.1999 0.19305 0.85896 0.0
O70 O 0.18993 0.19151 0.86939 0.0
H71 H 0.19516 0.19859 0.84986 0.0
C72 C 0.17902 0.22593 0.89187 0.0
C73 C 0.19065 0.21872 0.89712 0.0
C74 C 0.17098 0.22159 0.8792 0.0
C75 C 0.17474 0.20989 0.87173 0.0
C76 C 0.18639 0.20275 0.87669 0.0
C77 C 0.19425 0.20713 0.88933 0.0
H78 H 0.83583 0.18172 0.89515 0.0
H79 H 0.87446 0.21285 0.89826 0.0
H80 H 0.869 0.1822 0.86473 0.0
H81 H 0.89735 0.18633 0.87912 0.0
C82 C 0.89906 0.19812 0.87976 0.0
O83 O 0.88613 0.20352 0.87621 0.0
H84 H 0.90279 0.20129 0.89079 0.0
C85 C 0.84621 0.18633 0.89123 0.0
C86 C 0.85135 0.18056 0.87907 0.0
C87 C 0.85442 0.19807 0.89825 0.0
C88 C 0.86799 0.20375 0.89314 0.0
C89 C 0.87316 0.19798 0.88111 0.0
C90 C 0.86479 0.18658 0.87401 0.0
H91 H 0.81494 0.8814 0.87835 0.0
H92 H 0.84482 0.84996 0.88045 0.0
H93 H 0.84674 0.87988 0.84685 0.0
H94 H 0.84999 0.85041 0.83922 0.0
C95 C 0.85679 0.84757 0.84858 0.0
O96 O 0.85871 0.85877 0.85813 0.0
H97 H 0.8508 0.83811 0.85348 0.0
C98 C 0.82366 0.87643 0.87391 0.0
C99 C 0.82989 0.88199 0.86158 0.0
C100 C 0.82876 0.8648 0.88083 0.0
C101 C 0.84068 0.85894 0.8754 0.0
C102 C 0.84717 0.86443 0.86321 0.0
C103 C 0.84176 0.8759 0.85635 0.0
H104 H 0.17084 0.72933 0.68129 0.0
H105 H 0.16884 0.6975 0.71363 0.0
H106 H 0.20083 0.69794 0.68258 0.0
H107 H 0.18481 0.67019 0.68961 0.0
C108 C 0.18512 0.67158 0.70127 0.0
O109 O 0.19069 0.68536 0.70496 0.0
H110 H 0.17364 0.6693 0.70461 0.0
C111 C 0.1747 0.72009 0.68609 0.0
C112 C 0.18657 0.71436 0.68034 0.0
C113 C 0.16823 0.71427 0.69828 0.0
C114 C 0.17372 0.70243 0.70447 0.0
C115 C 0.18543 0.69663 0.69881 0.0
C116 C 0.19184 0.70263 0.68687 0.0
H117 H 0.86709 0.71211 0.70921 0.0
H118 H 0.82284 0.70491 0.69073 0.0
H119 H 0.85352 0.73823 0.67534 0.0
H120 H 0.82347 0.74432 0.68151 0.0
C121 C 0.81741 0.73516 0.67541 0.0
O122 O 0.8267 0.72534 0.67254 0.0
H123 H 0.80848 0.73019 0.68191 0.0
C124 C 0.85871 0.71482 0.70161 0.0
C125 C 0.86208 0.72613 0.69239 0.0
C126 C 0.84461 0.70703 0.70115 0.0
C127 C 0.83383 0.71066 0.69124 0.0
C128 C 0.83708 0.72194 0.68206 0.0
C129 C 0.85115 0.72962 0.68261 0.0
H130 H 0.86216 0.36544 0.70242 0.0
H131 H 0.83151 0.39619 0.70223 0.0
H132 H 0.86543 0.39762 0.73504 0.0
H133 H 0.83741 0.40492 0.74502 0.0
C134 C 0.8325 0.40837 0.73487 0.0
O135 O 0.84301 0.40955 0.72493 0.0
H136 H 0.8232 0.40019 0.73141 0.0
C137 C 0.85821 0.37452 0.70715 0.0
C138 C 0.86551 0.38082 0.71951 0.0
C139 C 0.84582 0.37986 0.70084 0.0
C140 C 0.84084 0.39172 0.70699 0.0
C141 C 0.84792 0.39807 0.71925 0.0
C142 C 0.8602 0.39265 0.72546 0.0
H143 H 0.16498 0.37209 0.72086 0.0
H144 H 0.16819 0.34386 0.68589 0.0
H145 H 0.19933 0.38121 0.6919 0.0
H146 H 0.18771 0.37574 0.66321 0.0
C147 C 0.18712 0.36399 0.66284 0.0
O148 O 0.19104 0.35901 0.67591 0.0
H149 H 0.17559 0.35956 0.65969 0.0
C150 C 0.17061 0.36917 0.71175 0.0
C151 C 0.18287 0.37815 0.70746 0.0
C152 C 0.16518 0.35674 0.7041 0.0
C153 C 0.17214 0.35339 0.69194 0.0
C154 C 0.18437 0.36228 0.68758 0.0
C155 C 0.18975 0.37455 0.69535 0.0
H156 H 0.16855 0.37983 0.34711 0.0
H157 H 0.1602 0.34094 0.37001 0.0
H158 H 0.19775 0.37074 0.38203 0.0
H159 H 0.20181 0.34005 0.37898 0.0
C160 C 0.19197 0.3356 0.38461 0.0
O161 O 0.18331 0.34605 0.38719 0.0
H162 H 0.18555 0.32721 0.37779 0.0
C163 C 0.17143 0.373 0.35563 0.0
C164 C 0.18415 0.37703 0.36441 0.0
C165 C 0.16276 0.35992 0.35742 0.0
C166 C 0.16681 0.35098 0.36827 0.0
C167 C 0.17943 0.35487 0.37698 0.0
C168 C 0.18806 0.36784 0.37509 0.0
H169 H 0.16133 0.71999 0.36698 0.0
H170 H 0.15916 0.68727 0.3352 0.0
H171 H 0.1916 0.68898 0.36968 0.0
H172 H 0.2018 0.68272 0.34138 0.0
C173 C 0.19172 0.67612 0.3369 0.0
O174 O 0.18095 0.67514 0.34661 0.0
H175 H 0.18784 0.68149 0.32729 0.0
C176 C 0.16559 0.71091 0.36259 0.0
C177 C 0.17742 0.7055 0.36978 0.0
C178 C 0.15889 0.70453 0.35009 0.0
C179 C 0.16408 0.69234 0.34485 0.0
C180 C 0.17591 0.68678 0.35187 0.0
C181 C 0.18247 0.69331 0.36436 0.0
H182 H 0.81805 0.65053 0.39409 0.0
H183 H 0.85046 0.68647 0.38785 0.0
H184 H 0.84991 0.64885 0.3627 0.0
H185 H 0.8791 0.66198 0.37064 0.0
C186 C 0.87719 0.67324 0.37169 0.0
O187 O 0.86283 0.6746 0.3675 0.0
H188 H 0.8794 0.67644 0.38297 0.0
C189 C 0.8276 0.65536 0.38885 0.0
C190 C 0.83332 0.64782 0.37815 0.0
C191 C 0.83368 0.66927 0.3925 0.0
C192 C 0.84558 0.67575 0.38519 0.0
C193 C 0.85138 0.66833 0.37449 0.0
C194 C 0.84524 0.65446 0.37095 0.0
H195 H 0.82316 0.36601 0.3972 0.0
H196 H 0.85165 0.33325 0.39667 0.0
H197 H 0.85155 0.3628 0.36298 0.0
H198 H 0.85378 0.33409 0.35388 0.0
C199 C 0.85959 0.33014 0.36335 0.0
O200 O 0.86318 0.34105 0.37306 0.0
H201 H 0.85196 0.32155 0.36793 0.0
C202 C 0.83122 0.36066 0.39212 0.0
C203 C 0.83653 0.36585 0.37923 0.0
C204 C 0.83668 0.34897 0.39872 0.0
C205 C 0.84744 0.34241 0.39206 0.0
C206 C 0.85276 0.34743 0.37925 0.0
C207 C 0.84739 0.35913 0.37294 0.0
H208 H 0.67083 0.22186 0.68915 0.0
H209 H 0.66924 0.18989 0.72127 0.0
H210 H 0.70154 0.1911 0.69038 0.0
H211 H 0.68877 0.16269 0.69672 0.0
C212 C 0.68587 0.16414 0.7078 0.0
O213 O 0.691 0.17779 0.71232 0.0
H214 H 0.67366 0.16239 0.70803 0.0
C215 C 0.67503 0.2128 0.694 0.0
C216 C 0.68709 0.20738 0.68829 0.0
C217 C 0.6684 0.20661 0.70593 0.0
C218 C 0.67397 0.19478 0.71201 0.0
C219 C 0.68584 0.18923 0.70638 0.0
C220 C 0.69242 0.19558 0.69466 0.0
H221 H 0.36494 0.21168 0.72396 0.0
H222 H 0.3248 0.19777 0.69965 0.0
H223 H 0.35041 0.23696 0.68969 0.0
H224 H 0.3169 0.2358 0.69086 0.0
C225 C 0.31407 0.22554 0.68505 0.0
O226 O 0.32667 0.2195 0.68293 0.0
H227 H 0.30663 0.21839 0.69151 0.0
C228 C 0.35691 0.21355 0.71562 0.0
C229 C 0.3593 0.22568 0.70724 0.0
C230 C 0.34452 0.20344 0.71301 0.0
C231 C 0.33445 0.20545 0.70182 0.0
C232 C 0.33654 0.2176 0.69357 0.0
C233 C 0.34894 0.22765 0.69622 0.0
H234 H 0.35082 0.86487 0.69163 0.0
H235 H 0.32032 0.8958 0.69088 0.0
H236 H 0.35279 0.89619 0.72493 0.0
H237 H 0.32375 0.90196 0.73344 0.0
C238 C 0.31983 0.90698 0.72364 0.0
O239 O 0.33089 0.9085 0.71427 0.0
H240 H 0.31017 0.89994 0.7189 0.0
C241 C 0.34659 0.87375 0.69644 0.0
C242 C 0.3534 0.87975 0.70915 0.0
C243 C 0.33471 0.87952 0.68963 0.0
C244 C 0.32956 0.89129 0.69579 0.0
C245 C 0.33604 0.8972 0.70848 0.0
C246 C 0.34795 0.8915 0.71507 0.0
H247 H 0.65216 0.86202 0.7103 0.0
H248 H 0.64908 0.83112 0.67663 0.0
H249 H 0.685 0.86463 0.67937 0.0
H250 H 0.67404 0.85699 0.64939 0.0
C251 C 0.66798 0.84647 0.65177 0.0
O252 O 0.67274 0.8424 0.66496 0.0
H253 H 0.656 0.84745 0.6514 0.0
C254 C 0.65655 0.85785 0.70102 0.0
C255 C 0.66956 0.86482 0.6958 0.0
C256 C 0.64902 0.84567 0.6942 0.0
C257 C 0.65479 0.84037 0.68218 0.0
C258 C 0.66762 0.84732 0.67683 0.0
C259 C 0.67501 0.85945 0.68361 0.0
H260 H 0.66595 0.89039 0.33978 0.0
H261 H 0.66027 0.85206 0.36394 0.0
H262 H 0.69719 0.88326 0.37375 0.0
H263 H 0.70387 0.85474 0.37304 0.0
C264 C 0.69396 0.84916 0.37781 0.0
O265 O 0.68404 0.85853 0.38012 0.0
H266 H 0.68883 0.84068 0.37034 0.0
C267 C 0.66966 0.88384 0.34819 0.0
C268 C 0.68275 0.88846 0.35626 0.0
C269 C 0.6613 0.87079 0.35097 0.0
C270 C 0.66633 0.86227 0.36177 0.0
C271 C 0.6793 0.86677 0.36978 0.0
C272 C 0.68734 0.87986 0.36717 0.0
H273 H 0.66516 0.23383 0.37523 0.0
H274 H 0.66332 0.203 0.34167 0.0
H275 H 0.69452 0.2019 0.37681 0.0
H276 H 0.70557 0.19659 0.34877 0.0
C277 C 0.6954 0.19071 0.34361 0.0
O278 O 0.68424 0.18961 0.35289 0.0
H279 H 0.69223 0.19685 0.33426 0.0
C280 C 0.66942 0.22495 0.37044 0.0
C281 C 0.68079 0.21878 0.3776 0.0
C282 C 0.663 0.21943 0.35748 0.0
C283 C 0.66807 0.20744 0.35166 0.0
C284 C 0.67947 0.20119 0.3586 0.0
C285 C 0.68573 0.20681 0.37156 0.0
H286 H 0.31532 0.16145 0.40534 0.0
H287 H 0.35072 0.18811 0.38696 0.0
H288 H 0.33162 0.14984 0.36581 0.0
H289 H 0.36152 0.15457 0.35995 0.0
C290 C 0.36426 0.16541 0.36453 0.0
O291 O 0.35158 0.17176 0.36494 0.0
H292 H 0.36921 0.1645 0.3754 0.0
C293 C 0.32284 0.16362 0.39698 0.0
C294 C 0.32235 0.15396 0.38567 0.0
C295 C 0.33294 0.17608 0.39754 0.0
C296 C 0.34269 0.17871 0.38667 0.0
C297 C 0.34219 0.16919 0.37535 0.0
C298 C 0.33196 0.15698 0.37478 0.0
H299 H 0.30985 0.86867 0.38591 0.0
H300 H 0.34249 0.83995 0.3848 0.0
H301 H 0.3405 0.87117 0.35283 0.0
H302 H 0.34561 0.84309 0.34222 0.0
C303 C 0.35153 0.83928 0.35169 0.0
O304 O 0.35379 0.84996 0.36177 0.0
H305 H 0.34454 0.82995 0.3558 0.0
C306 C 0.31913 0.86505 0.38104 0.0
C307 C 0.32428 0.87153 0.36859 0.0
C308 C 0.32554 0.85359 0.38703 0.0
C309 C 0.33724 0.84862 0.38036 0.0
C310 C 0.34245 0.85486 0.368 0.0
C311 C 0.33607 0.8663 0.36222 0.0
H312 H 0.65993 0.71205 0.19388 0.0
H313 H 0.66356 0.67843 0.2235 0.0
H314 H 0.69275 0.68387 0.18974 0.0
H315 H 0.68017 0.6541 0.19526 0.0
C316 C 0.67985 0.65473 0.20693 0.0
O317 O 0.68506 0.66838 0.21144 0.0
H318 H 0.66822 0.65207 0.20972 0.0
C319 C 0.66541 0.70327 0.19769 0.0
C320 C 0.67711 0.69913 0.19032 0.0
C321 C 0.66038 0.69598 0.20971 0.0
C322 C 0.6671 0.68416 0.21422 0.0
C323 C 0.67861 0.67972 0.2069 0.0
C324 C 0.68363 0.68724 0.19506 0.0
H325 H 0.37235 0.68542 0.2038 0.0
H326 H 0.33087 0.6737 0.18068 0.0
H327 H 0.35937 0.71034 0.16871 0.0
H328 H 0.32673 0.71188 0.17147 0.0
C329 C 0.32288 0.70227 0.16488 0.0
O330 O 0.33431 0.69447 0.16298 0.0
H331 H 0.31412 0.6957 0.17043 0.0
C332 C 0.36447 0.68729 0.19534 0.0
C333 C 0.36754 0.69901 0.18654 0.0
C334 C 0.35129 0.67804 0.1934 0.0
C335 C 0.34119 0.68056 0.18235 0.0
C336 C 0.34411 0.69221 0.17356 0.0
C337 C 0.35722 0.70142 0.17566 0.0
H338 H 0.32486 0.39168 0.19403 0.0
H339 H 0.35949 0.3651 0.19843 0.0
H340 H 0.35711 0.39765 0.22904 0.0
H341 H 0.38728 0.39413 0.22359 0.0
C342 C 0.38563 0.38302 0.21956 0.0
O343 O 0.37142 0.37701 0.22173 0.0
H344 H 0.38742 0.38322 0.20807 0.0
C345 C 0.33455 0.38876 0.19972 0.0
C346 C 0.33994 0.39614 0.21225 0.0
C347 C 0.34155 0.37759 0.19449 0.0
C348 C 0.35407 0.37382 0.20203 0.0
C349 C 0.35956 0.38102 0.21445 0.0
C350 C 0.35254 0.39211 0.21951 0.0
H351 H 0.64834 0.35877 0.22412 0.0
H352 H 0.65893 0.33269 0.18986 0.0
H353 H 0.69012 0.36734 0.20522 0.0
H354 H 0.6898 0.36526 0.17577 0.0
C355 C 0.68501 0.35403 0.17393 0.0
O356 O 0.68472 0.34696 0.18658 0.0
H357 H 0.67358 0.35382 0.16928 0.0
C358 C 0.65595 0.35621 0.21647 0.0
C359 C 0.66964 0.36464 0.2158 0.0
C360 C 0.65198 0.34454 0.20727 0.0
C361 C 0.66186 0.34142 0.19726 0.0
C362 C 0.67549 0.34974 0.19652 0.0
C363 C 0.67944 0.36115 0.20587 0.0
H364 H 0.6798 0.39771 0.8405 0.0
H365 H 0.66976 0.35709 0.85993 0.0
H366 H 0.71076 0.38246 0.87067 0.0
H367 H 0.71064 0.3503 0.86561 0.0
C368 C 0.70037 0.34694 0.87108 0.0
O369 O 0.69426 0.35869 0.87524 0.0
H370 H 0.69254 0.34037 0.86359 0.0
C371 C 0.68287 0.38961 0.84765 0.0
C372 C 0.69652 0.3917 0.85537 0.0
C373 C 0.67307 0.37718 0.84922 0.0
C374 C 0.67709 0.36679 0.85858 0.0
C375 C 0.69071 0.36865 0.86609 0.0
C376 C 0.7004 0.38104 0.86449 0.0
H377 H 0.66483 0.73311 0.8866 0.0
H378 H 0.65955 0.70704 0.84892 0.0
H379 H 0.69276 0.70068 0.88076 0.0
H380 H 0.70068 0.70084 0.8506 0.0
C381 C 0.69077 0.69382 0.84634 0.0
O382 O 0.68041 0.69186 0.85639 0.0
H383 H 0.68609 0.69911 0.83704 0.0
C384 C 0.66812 0.7247 0.88024 0.0
C385 C 0.67984 0.71752 0.88528 0.0
C386 C 0.66061 0.7211 0.86711 0.0
C387 C 0.66499 0.71001 0.85909 0.0
C388 C 0.67658 0.70275 0.86401 0.0
C389 C 0.68396 0.70653 0.87702 0.0
H390 H 0.31381 0.67826 0.88709 0.0
H391 H 0.35257 0.70591 0.87655 0.0
H392 H 0.33995 0.66732 0.85331 0.0
H393 H 0.3714 0.67301 0.85603 0.0
C394 C 0.3724 0.68421 0.85973 0.0
O395 O 0.35941 0.68962 0.85643 0.0
H396 H 0.37478 0.68434 0.87136 0.0
C397 C 0.32307 0.68079 0.88054 0.0
C398 C 0.32565 0.67116 0.86995 0.0
C399 C 0.33273 0.69339 0.88308 0.0
C400 C 0.34502 0.69626 0.87487 0.0
C401 C 0.34757 0.68681 0.86425 0.0
C402 C 0.33786 0.67442 0.86171 0.0
H403 H 0.32378 0.38375 0.8894 0.0
H404 H 0.3509 0.34994 0.8926 0.0
H405 H 0.35726 0.38059 0.85993 0.0
H406 H 0.35948 0.35249 0.85071 0.0
C407 C 0.36395 0.34778 0.86045 0.0
O408 O 0.36638 0.35796 0.87105 0.0
H409 H 0.3557 0.33901 0.86377 0.0
C410 C 0.33238 0.37822 0.88549 0.0
C411 C 0.33983 0.38357 0.8737 0.0
C412 C 0.33629 0.36615 0.89257 0.0
C413 C 0.3478 0.35937 0.88754 0.0
C414 C 0.35532 0.36458 0.8758 0.0
C415 C 0.35142 0.37672 0.86903 0.0
Cu416 Cu 0.25828 0.29039 0.04876 0.0
N417 N 0.2567 0.30509 0.03593 0.0
N418 N 0.26219 0.3183 0.01702 0.0
C419 C 0.26578 0.30764 0.02531 0.0
C420 C 0.25031 0.32263 0.02269 0.0
C421 C 0.24696 0.31448 0.03438 0.0
O422 O 0.26126 0.27464 0.03635 0.0
C423 C 0.27222 0.30826 0.06922 0.0
O424 O 0.26043 0.31423 0.06568 0.0
H425 H 0.27465 0.30149 0.02352 0.0
H426 H 0.23805 0.31533 0.04118 0.0
N427 N 0.24144 0.2856 0.05899 0.0
N428 N 0.22755 0.27539 0.07579 0.0
C429 C 0.24127 0.27835 0.07114 0.0
C430 C 0.22736 0.28739 0.05579 0.0
C431 C 0.21879 0.28116 0.06613 0.0
C432 C 0.25177 0.26368 0.0345 0.0
O433 O 0.24183 0.26078 0.04383 0.0
H434 H 0.25102 0.27484 0.07612 0.0
H435 H 0.22353 0.29252 0.04643 0.0
O436 O 0.27418 0.29693 0.06273 0.0
H437 H 0.24449 0.33112 0.01876 0.0
H438 H 0.20698 0.28083 0.06636 0.0
Cu439 Cu 0.76236 0.28632 0.02621 0.0
N440 N 0.76289 0.30215 0.03804 0.0
N441 N 0.76071 0.31449 0.05778 0.0
C442 C 0.76378 0.30215 0.05223 0.0
C443 C 0.7582 0.32265 0.04654 0.0
C444 C 0.75951 0.31503 0.03444 0.0
O445 O 0.75684 0.26947 0.03697 0.0
C446 C 0.75379 0.2974 1.00089 0.0
O447 O 0.7668 0.30479 1.00326 0.0
H448 H 0.76574 0.29293 0.05827 0.0
H449 H 0.75705 0.31834 0.02382 0.0
N450 N 0.78088 0.28475 0.01988 0.0
N451 N 0.79787 0.27709 1.00687 0.0
C452 C 0.78343 0.2762 0.00925 0.0
C453 C 0.79413 0.29131 0.0245 0.0
C454 C 0.80468 0.28657 0.01649 0.0
C455 C 0.74703 0.26854 0.04598 0.0
O456 O 0.73842 0.27852 0.04664 0.0
H457 H 0.77479 0.26931 1.00352 0.0
H458 H 0.79597 0.29898 0.03306 0.0
O459 O 0.74922 0.28817 0.00982 0.0
H460 H 0.75448 0.33298 0.04691 0.0
H461 H 0.8164 0.28996 0.01756 0.0
Cu462 Cu 0.74827 0.79168 0.03789 0.0
N463 N 0.74805 0.80641 0.02481 0.0
N464 N 0.75503 0.81896 1.00587 0.0
C465 C 0.75724 0.80788 0.01417 0.0
C466 C 0.74395 0.82474 0.01154 0.0
C467 C 0.73971 0.81702 0.02324 0.0
O468 O 0.7475 0.77483 0.02587 0.0
C469 C 0.76565 0.80838 0.05691 0.0
O470 O 0.75508 0.81599 0.05339 0.0
H471 H 0.76525 0.80072 0.01244 0.0
H472 H 0.73125 0.81915 0.03011 0.0
N473 N 0.73245 0.78898 0.04983 0.0
N474 N 0.71968 0.77993 0.06787 0.0
C475 C 0.73171 0.77953 0.06037 0.0
C476 C 0.72039 0.79559 0.05064 0.0
C477 C 0.71253 0.79006 0.06177 0.0
C478 C 0.73486 0.77106 0.01978 0.0
O479 O 0.72383 0.77771 0.02316 0.0
H480 H 0.74009 0.77271 0.06268 0.0
H481 H 0.71742 0.8038 0.04368 0.0
O482 O 0.76555 0.7964 0.05077 0.0
H483 H 0.73938 0.834 1.00764 0.0
H484 H 0.70227 0.79317 0.06503 0.0
Cu485 Cu 0.27419 0.79241 0.02232 0.0
N486 N 0.27467 0.808 0.03439 0.0
N487 N 0.26743 0.82094 0.05172 0.0
C488 C 0.26633 0.80803 0.04557 0.0
C489 C 0.2769 0.8294 0.04412 0.0
C490 C 0.28143 0.82134 0.03345 0.0
O491 O 0.2745 0.7759 0.0341 0.0
C492 C 0.25583 0.80282 1.00266 0.0
O493 O 0.26603 0.8137 1.00495 0.0
H494 H 0.259 0.7989 0.04867 0.0
H495 H 0.28865 0.82508 0.02527 0.0
N496 N 0.29014 0.79348 0.0109 0.0
N497 N 0.30318 0.78745 0.99317 0.0
C498 C 0.29016 0.78544 0.99926 0.0
C499 C 0.30363 0.80094 0.01231 0.0
C500 C 0.31174 0.79718 1.00137 0.0
C501 C 0.28619 0.77584 0.04192 0.0
O502 O 0.29677 0.78644 0.04106 0.0
H503 H 0.2809 0.77785 0.99565 0.0
H504 H 0.30741 0.80829 0.02084 0.0
O505 O 0.25681 0.79158 0.00965 0.0
H506 H 0.28005 0.84064 0.04596 0.0
H507 H 0.32306 0.80121 0.99966 0.0
Cu508 Cu 0.01338 0.26276 0.28595 0.0
N509 N 0.02382 0.24705 0.28512 0.0
N510 N 0.04089 0.23349 0.27925 0.0
C511 C 0.03614 0.24636 0.27817 0.0
C512 C 0.03112 0.22584 0.28724 0.0
C513 C 0.02064 0.2342 0.29083 0.0
O514 O 0.02763 0.27946 0.28896 0.0
C515 C 0.99395 0.25253 0.26381 0.0
O516 O 0.99512 0.2406 0.2704 0.0
H517 H 0.04131 0.25508 0.2722 0.0
H518 H 0.01124 0.23103 0.29698 0.0
N519 N 1.00066 0.26179 0.3008 0.0
N520 N 0.98264 0.26714 0.31412 0.0
C521 C 0.98914 0.26918 0.30172 0.0
C522 C 1.00152 0.25483 0.31303 0.0
C523 C 0.99043 0.25806 0.32123 0.0
C524 C 0.03563 0.27985 0.30033 0.0
O525 O 0.03372 0.26913 0.30898 0.0
H526 H 0.98574 0.27603 0.29346 0.0
H527 H 1.00991 0.24824 0.316 0.0
O528 O 1.00144 0.26387 0.26862 0.0
H529 H 0.0315 0.21498 0.29038 0.0
H530 H 0.98861 0.25438 0.33181 0.0
Cu531 Cu 0.77561 0.04786 0.29558 0.0
N532 N 0.79277 0.06045 0.29409 0.0
N533 N 0.80721 0.0788 0.28569 0.0
C534 C 0.79344 0.07192 0.28588 0.0
C535 C 0.81558 0.07133 0.29416 0.0
C536 C 0.80662 0.06001 0.29937 0.0
O537 O 0.75961 0.05967 0.29599 0.0
C538 C 0.78567 0.02647 0.28112 0.0
O539 O 0.79564 0.02928 0.29152 0.0
H540 H 0.78405 0.07481 0.2797 0.0
H541 H 0.8101 0.05185 0.30614 0.0
N542 N 0.77547 0.03764 0.31226 0.0
N543 N 0.76776 0.02053 0.32706 0.0
C544 C 0.76512 0.02677 0.31466 0.0
C545 C 0.78501 0.03843 0.32361 0.0
C546 C 0.7803 0.02777 0.33274 0.0
C547 C 0.76063 0.0678 0.30684 0.0
O548 O 0.77162 0.0671 0.31615 0.0
H549 H 0.75608 0.0232 0.30717 0.0
H550 H 0.79473 0.04609 0.32511 0.0
O551 O 0.77484 0.0337 0.28034 0.0
H552 H 0.82733 0.07376 0.29629 0.0
H553 H 0.78568 0.0255 0.34274 0.0
Cu554 Cu 0.99943 0.77866 0.27746 0.0
N555 N 0.99209 0.79609 0.2755 0.0
N556 N 0.97663 0.81185 0.2697 0.0
C557 C 0.97811 0.79802 0.27177 0.0
C558 C 0.99029 0.81883 0.27236 0.0
C559 C 0.99976 0.8091 0.27588 0.0
O560 O 0.98403 0.76456 0.28356 0.0
C561 C 1.00485 0.7792 0.24814 0.0
O562 O 0.99416 0.78712 0.24682 0.0
H563 H 0.96932 0.78935 0.27026 0.0
H564 H 0.01153 0.8113 0.27803 0.0
N565 N 0.01515 0.7796 0.29092 0.0
N566 N 0.03527 0.77354 0.30249 0.0
C567 C 0.02484 0.77011 0.29203 0.0
C568 C 0.01952 0.78939 0.30105 0.0
C569 C 0.03197 0.7857 0.30818 0.0
C570 C 0.97836 0.76736 0.29501 0.0
O571 O 0.98298 0.77947 0.30147 0.0
H572 H 0.02437 0.761 0.28508 0.0
H573 H 0.01407 0.79856 0.30309 0.0
O574 O 1.00757 0.77365 0.25998 0.0
H575 H 0.99342 0.83009 0.27123 0.0
H576 H 0.038 0.79146 0.31696 0.0
Cu577 Cu 0.23006 1.00441 0.30681 0.0
N578 N 0.22842 0.01284 0.32436 0.0
N579 N 0.23394 0.02821 0.34224 0.0
C580 C 0.23783 0.02378 0.32965 0.0
C581 C 0.22154 0.01971 0.345 0.0
C582 C 0.21818 0.01015 0.33395 0.0
O583 O 0.2316 0.01992 0.29311 0.0
C584 C 0.24563 0.98456 0.31927 0.0
O585 O 0.23428 0.98424 0.32714 0.0
H586 H 0.24715 0.02863 0.32413 0.0
H587 H 0.20896 1.00187 0.33301 0.0
N588 N 0.21332 0.99189 0.30147 0.0
N589 N 0.19948 0.97389 0.29007 0.0
C590 C 0.21323 0.9805 0.29301 0.0
C591 C 0.19916 0.99255 0.30402 0.0
C592 C 0.19059 0.98144 0.29704 0.0
C593 C 0.22146 0.02792 0.2937 0.0
O594 O 0.21146 0.02496 0.30298 0.0
H595 H 0.22311 0.97726 0.28902 0.0
H596 H 0.19525 1.00073 0.31019 0.0
O597 O 0.24648 0.99305 0.30889 0.0
H598 H 0.21539 0.0203 0.35434 0.0
H599 H 0.17871 0.97942 0.29675 0.0
Cu600 Cu 0.01793 0.79167 0.77327 0.0
N601 N 0.02984 0.77699 0.77295 0.0
N602 N 0.04759 0.76452 0.76651 0.0
C603 C 0.04075 0.77612 0.76414 0.0
C604 C 0.04066 0.75782 0.77722 0.0
C605 C 0.02971 0.76549 0.78114 0.0
O606 O 0.03143 0.80912 0.77359 0.0
C607 C 0.99829 0.77794 0.75314 0.0
O608 O 1.00122 0.76704 0.7607 0.0
H609 H 0.04374 0.784 0.75628 0.0
H610 H 0.02212 0.76279 0.7893 0.0
N611 N 1.00611 0.791 0.78888 0.0
N612 N 0.98787 0.79548 0.80245 0.0
C613 C 0.99315 0.79625 0.7894 0.0
C614 C 1.00916 0.78669 0.80203 0.0
C615 C 0.99796 0.78936 0.81038 0.0
C616 C 0.03117 0.81931 0.78226 0.0
O617 O 0.02025 0.81905 0.79066 0.0
H618 H 0.98809 0.80114 0.78046 0.0
H619 H 0.01906 0.78234 0.80544 0.0
O620 O 1.00481 0.79018 0.75654 0.0
H621 H 0.04316 0.74796 0.78179 0.0
H622 H 0.99747 0.78711 0.82149 0.0
Cu623 Cu 0.28135 0.052 0.80961 0.0
N624 N 0.29828 0.06506 0.8093 0.0
N625 N 0.31273 0.08404 0.80225 0.0
C626 C 0.29901 0.07703 0.80181 0.0
C627 C 0.32102 0.0762 0.81038 0.0
C628 C 0.31201 0.06451 0.81483 0.0
O629 O 0.26504 0.06311 0.81143 0.0
C630 C 0.29162 0.03351 0.79161 0.0
O631 O 0.30257 0.03607 0.80112 0.0
H632 H 0.28975 0.08019 0.79562 0.0
H633 H 0.31534 0.05599 0.82123 0.0
N634 N 0.28194 0.03964 0.82471 0.0
N635 N 0.27691 0.01942 0.83629 0.0
C636 C 0.27447 0.02656 0.82437 0.0
C637 C 0.28942 0.04094 0.83732 0.0
C638 C 0.28625 0.02845 0.84456 0.0
C639 C 0.26566 0.07038 0.82281 0.0
O640 O 0.27648 0.06926 0.83218 0.0
H641 H 0.26726 0.02243 0.81551 0.0
H642 H 0.29669 0.05023 0.84096 0.0
O643 O 0.28033 0.0399 0.79278 0.0
H644 H 0.33274 0.07863 0.81274 0.0
H645 H 0.29065 0.02614 0.85496 0.0
Cu646 Cu 0.01955 0.29843 0.79455 0.0
N647 N 1.0086 0.31377 0.79425 0.0
N648 N 0.99123 0.32744 0.78792 0.0
C649 C 0.99664 0.31508 0.78571 0.0
C650 C 1.00019 0.33411 0.79831 0.0
C651 C 0.01085 0.32566 0.80219 0.0
O652 O 1.00557 0.28141 0.79371 0.0
C653 C 0.04084 0.31119 0.77795 0.0
O654 O 0.04057 0.32119 0.78748 0.0
H655 H 0.99215 0.30718 0.77788 0.0
H656 H 0.01965 0.32804 0.81022 0.0
N657 N 0.03147 0.29806 0.81117 0.0
N658 N 0.04922 0.29193 0.82616 0.0
C659 C 0.04455 0.293 0.81251 0.0
C660 C 0.0278 0.30042 0.8244 0.0
C661 C 0.03871 0.29667 0.83366 0.0
C662 C 1.00887 0.26946 0.79779 0.0
O663 O 0.02267 0.26809 0.80122 0.0
H664 H 0.05002 0.28928 0.80367 0.0
H665 H 0.01757 0.30398 0.82714 0.0
O666 O 0.03211 0.29977 0.7788 0.0
H667 H 0.99906 0.3443 0.80293 0.0
H668 H 0.03869 0.29704 0.84504 0.0
Cu669 Cu 0.76178 0.02485 0.78345 0.0
N670 N 0.77941 0.03748 0.78968 0.0
N671 N 0.79415 0.05489 0.80086 0.0
C672 C 0.78015 0.04887 0.79823 0.0
C673 C 0.80252 0.04692 0.79375 0.0
C674 C 0.79336 0.03616 0.78681 0.0
O675 O 0.75309 0.04152 0.77414 0.0
C676 C 0.76541 1.00073 0.80212 0.0
O677 O 0.75315 1.00375 0.80724 0.0
H678 H 0.7707 0.05249 0.80271 0.0
H679 H 0.79661 0.0279 0.78026 0.0
N680 N 0.74411 0.01218 0.77731 0.0
N681 N 0.7294 0.99368 0.76784 0.0
C682 C 0.74336 1.00019 0.7696 0.0
C683 C 0.73025 0.01336 0.78057 0.0
C684 C 0.72114 1.00199 0.77471 0.0
C685 C 0.74554 0.04954 0.78067 0.0
O686 O 0.74295 0.047 0.79394 0.0
H687 H 0.75292 0.99617 0.76572 0.0
H688 H 0.72701 0.02178 0.7869 0.0
O689 O 0.77093 0.00816 0.79216 0.0
H690 H 0.81438 0.04879 0.79348 0.0
H691 H 0.70934 1.00005 0.77543 0.0
Cu692 Cu 0.24894 0.7903 0.53344 0.0
N693 N 0.2481 0.80583 0.54548 0.0
N694 N 0.25534 0.82083 0.56355 0.0
C695 C 0.25957 0.81215 0.55366 0.0
C696 C 0.24062 0.82019 0.5612 0.0
C697 C 0.2362 0.81093 0.55011 0.0
O698 O 0.24808 0.77379 0.54565 0.0
C699 C 0.27071 0.78698 0.51314 0.0
O700 O 0.26552 0.77346 0.51263 0.0
H701 H 0.2707 0.80982 0.55276 0.0
H702 H 0.22499 0.80751 0.54633 0.0
N703 N 0.23232 0.78692 0.52089 0.0
N704 N 0.21854 0.77824 0.5018 0.0
C705 C 0.23223 0.78297 0.50722 0.0
C706 C 0.21816 0.78471 0.52422 0.0
C707 C 0.20965 0.77947 0.51249 0.0
C708 C 0.25545 0.77341 0.55736 0.0
O709 O 0.26688 0.78299 0.5601 0.0
H710 H 0.24209 0.78263 0.50162 0.0
H711 H 0.21438 0.78591 0.53468 0.0
O712 O 0.26604 0.79499 0.5222 0.0
H713 H 0.23337 0.82528 0.56761 0.0
H714 H 0.19789 0.77627 0.51209 0.0
Cu715 Cu 0.73284 0.75318 0.51808 0.0
N716 N 0.73478 0.73702 0.50776 0.0
N717 N 0.74384 0.72311 0.4924 0.0
C718 C 0.74426 0.73638 0.49757 0.0
C719 C 0.73366 0.71509 0.49964 0.0
C720 C 0.72805 0.72374 0.50912 0.0
O721 O 0.73486 0.76893 0.50524 0.0
C722 C 0.75107 0.76586 0.54115 0.0
O723 O 0.7447 0.77722 0.53844 0.0
H724 H 0.75166 0.74542 0.49437 0.0
H725 H 0.71984 0.72056 0.51662 0.0
N726 N 0.71445 0.75165 0.52563 0.0
N727 N 0.69756 0.75525 0.54079 0.0
C728 C 0.71195 0.75475 0.53902 0.0
C729 C 0.70117 0.74992 0.51868 0.0
C730 C 0.6907 0.75221 0.52802 0.0
C731 C 0.72838 0.77988 0.50645 0.0
O732 O 0.72086 0.78143 0.5176 0.0
H733 H 0.72062 0.75773 0.54705 0.0
H734 H 0.69938 0.74803 0.50745 0.0
O735 O 0.74782 0.75492 0.53332 0.0
H736 H 0.73052 0.7038 0.49823 0.0
H737 H 0.67907 0.75233 0.52548 0.0
Cu738 Cu 0.75331 0.29211 0.5459 0.0
N739 N 0.73775 0.2917 0.53227 0.0
N740 N 0.72475 0.28527 0.51212 0.0
C741 C 0.7348 0.28179 0.52197 0.0
C742 C 0.72121 0.29788 0.51646 0.0
C743 C 0.72929 0.30185 0.52883 0.0
O744 O 0.7708 0.29473 0.53484 0.0
C745 C 0.75687 0.27303 0.56851 0.0
O746 O 0.76901 0.28153 0.57181 0.0
H747 H 0.74066 0.27266 0.52127 0.0
H748 H 0.72957 0.3118 0.53442 0.0
N749 N 0.75376 0.30717 0.55882 0.0
N750 N 0.76167 0.32161 0.57715 0.0
C751 C 0.76545 0.31275 0.56718 0.0
C752 C 0.7422 0.31275 0.56359 0.0
C753 C 0.74703 0.32172 0.57477 0.0
C754 C 0.77295 0.30683 0.52904 0.0
O755 O 0.76454 0.31642 0.53227 0.0
H756 H 0.77631 0.3096 0.56651 0.0
H757 H 0.73091 0.3099 0.55974 0.0
O758 O 0.74973 0.27486 0.55694 0.0
H759 H 0.71367 0.30404 0.51089 0.0
H760 H 0.74013 0.32746 0.58095 0.0
Cu761 Cu 0.28124 0.28359 0.53189 0.0
N762 N 0.28337 0.29983 0.54328 0.0
N763 N 0.27783 0.31489 0.55972 0.0
C764 C 0.27549 0.30152 0.55453 0.0
C765 C 0.28785 0.32185 0.55149 0.0
C766 C 0.29123 0.31253 0.54134 0.0
O767 O 0.27658 0.26732 0.54363 0.0
C768 C 0.26951 0.29439 0.50769 0.0
O769 O 0.28251 0.30201 0.50869 0.0
H770 H 0.26794 0.29314 0.55865 0.0
H771 H 0.29844 0.31498 0.53281 0.0
N772 N 0.29858 0.28122 0.52344 0.0
N773 N 0.3131 0.27277 0.50825 0.0
C774 C 0.29916 0.27398 0.51136 0.0
C775 C 0.31264 0.28475 0.52823 0.0
C776 C 0.32167 0.2795 0.51885 0.0
C777 C 0.26447 0.26415 0.54945 0.0
O778 O 0.25348 0.27142 0.54649 0.0
H779 H 0.28946 0.26916 0.50531 0.0
H780 H 0.31605 0.29038 0.53801 0.0
O781 O 0.26619 0.28529 0.51713 0.0
H782 H 0.29192 0.33302 0.5523 0.0
H783 H 0.33355 0.28039 0.51985 0.0
Cu784 Cu 0.78208 0.55728 0.80271 0.0
N785 N 0.79842 0.57099 0.80168 0.0
N786 N 0.81234 0.58951 0.79295 0.0
C787 C 0.79966 0.58065 0.79143 0.0
C788 C 0.81937 0.58527 0.80472 0.0
C789 C 0.81076 0.57378 0.81007 0.0
O790 O 0.76506 0.56768 0.80328 0.0
C791 C 0.79427 0.5389 0.78612 0.0
O792 O 0.80529 0.54357 0.79503 0.0
H793 H 0.79123 0.58126 0.78312 0.0
H794 H 0.81339 0.56785 0.81932 0.0
N795 N 0.78267 0.54607 0.81872 0.0
N796 N 0.77705 0.52678 0.83163 0.0
C797 C 0.77558 0.53284 0.81893 0.0
C798 C 0.78897 0.54856 0.83176 0.0
C799 C 0.78554 0.53663 0.83976 0.0
C800 C 0.76541 0.57589 0.81399 0.0
O801 O 0.77653 0.57616 0.82334 0.0
H802 H 0.7695 0.52777 0.80981 0.0
H803 H 0.79535 0.55839 0.83531 0.0
O804 O 0.78214 0.54401 0.78695 0.0
H805 H 0.83003 0.59 0.80903 0.0
H806 H 0.78875 0.53546 0.85077 0.0
Cu807 Cu 0.26272 0.52921 0.78999 0.0
N808 N 0.28014 0.52169 0.7951 0.0
N809 N 0.29491 0.50636 0.80374 0.0
C810 C 0.28088 0.50886 0.80084 0.0
C811 C 0.30329 0.51817 0.79955 0.0
C812 C 0.29416 0.52758 0.79427 0.0
O813 O 0.2484 0.51355 0.78335 0.0
C814 C 0.26158 0.53903 0.81834 0.0
O815 O 0.26988 0.5292 0.82182 0.0
H816 H 0.2712 0.5017 0.80313 0.0
H817 H 0.29751 0.53802 0.7902 0.0
N818 N 0.26517 0.54248 0.77558 0.0
N819 N 0.26073 0.56084 0.76205 0.0
C820 C 0.25651 0.5527 0.77309 0.0
C821 C 0.27528 0.54414 0.76579 0.0
C822 C 0.27256 0.55545 0.75742 0.0
C823 C 0.25219 0.50655 0.77302 0.0
O824 O 0.26489 0.51069 0.76763 0.0
H825 H 0.24714 0.55396 0.7792 0.0
H826 H 0.28399 0.53762 0.7648 0.0
O827 O 0.25641 0.53958 0.8057 0.0
H828 H 0.31517 0.51997 0.80017 0.0
H829 H 0.27892 0.55945 0.74872 0.0
Cu830 Cu 0.27719 0.53398 0.29565 0.0
N831 N 0.27577 0.52447 0.31277 0.0
N832 N 0.2677 0.50746 0.32762 0.0
C833 C 0.26716 0.51211 0.31425 0.0
C834 C 0.27711 0.51733 0.33487 0.0
C835 C 0.28205 0.52784 0.32568 0.0
O836 O 0.27726 0.5193 0.28104 0.0
C837 C 0.26299 0.55568 0.30443 0.0
O838 O 0.27443 0.55609 0.3134 0.0
H839 H 0.26075 0.5066 0.30554 0.0
H840 H 0.2895 0.53733 0.3283 0.0
N841 N 0.29482 0.54591 0.2945 0.0
N842 N 0.31065 0.56278 0.2855 0.0
C843 C 0.29722 0.55518 0.28403 0.0
C844 C 0.30721 0.54759 0.30292 0.0
C845 C 0.317 0.55811 0.29742 0.0
C846 C 0.28722 0.51128 0.28363 0.0
O847 O 0.29587 0.51389 0.29506 0.0
H848 H 0.28908 0.55651 0.27563 0.0
H849 H 0.30905 0.54159 0.31233 0.0
O850 O 0.26149 0.54627 0.29464 0.0
H851 H 0.28003 0.51713 0.34604 0.0
H852 H 0.32795 0.56192 0.30174 0.0
Cu853 Cu 0.75205 0.50794 0.29548 0.0
N854 N 0.76872 0.49838 0.29691 0.0
N855 N 0.78336 0.48233 0.30411 0.0
C856 C 0.76965 0.48618 0.30385 0.0
C857 C 0.79128 0.49253 0.29683 0.0
C858 C 0.78224 0.50239 0.29244 0.0
O859 O 0.73525 0.49332 0.29487 0.0
C860 C 0.75798 0.51819 0.32368 0.0
O861 O 0.76167 0.50556 0.32642 0.0
H862 H 0.76053 0.4806 0.30912 0.0
H863 H 0.78538 0.51196 0.28667 0.0
N864 N 0.75171 0.51928 0.2794 0.0
N865 N 0.74663 0.53699 0.26517 0.0
C866 C 0.74537 0.53129 0.27814 0.0
C867 C 0.75726 0.51729 0.26686 0.0
C868 C 0.75416 0.52817 0.25808 0.0
C869 C 0.72387 0.49327 0.28661 0.0
O870 O 0.7222 0.50451 0.27903 0.0
H871 H 0.73965 0.53551 0.28653 0.0
H872 H 0.76308 0.50852 0.26426 0.0
O873 O 0.75264 0.5207 0.31147 0.0
H874 H 0.80282 0.49298 0.29487 0.0
H875 H 0.75733 0.52947 0.24732 0.0
Cu876 Cu 0.52042 0.28566 0.78325 0.0
N877 N 0.50886 0.28496 0.79905 0.0
N878 N 0.49126 0.28998 0.81305 0.0
C879 C 0.49684 0.29161 0.80019 0.0
C880 C 0.50013 0.28193 0.82025 0.0
C881 C 0.51093 0.27883 0.8116 0.0
O882 O 0.50677 0.28489 0.76691 0.0
C883 C 0.54236 0.30438 0.79574 0.0
O884 O 0.54091 0.29437 0.80521 0.0
H885 H 0.49253 0.29787 0.79185 0.0
H886 H 0.51985 0.27279 0.8144 0.0
N887 N 0.53163 0.27051 0.78218 0.0
N888 N 0.54868 0.25749 0.77509 0.0
C889 C 0.54314 0.26998 0.77401 0.0
C890 C 0.52984 0.25795 0.78869 0.0
C891 C 0.54031 0.24992 0.78436 0.0
C892 C 0.49802 0.27342 0.76552 0.0
O893 O 0.49949 0.26326 0.77459 0.0
H894 H 0.54711 0.2785 0.76716 0.0
H895 H 0.52138 0.25475 0.79592 0.0
O896 O 0.5341 0.30296 0.78451 0.0
H897 H 0.49892 0.2785 0.83101 0.0
H898 H 0.54164 0.23934 0.78785 0.0
Cu899 Cu 0.50557 0.79937 0.79043 0.0
N900 N 0.52012 0.80035 0.80519 0.0
N901 N 0.53961 0.79447 0.81804 0.0
C902 C 0.53111 0.79219 0.80598 0.0
C903 C 0.5337 0.80451 0.82512 0.0
C904 C 0.52165 0.80804 0.81722 0.0
O905 O 0.51567 0.79806 0.77319 0.0
C906 C 0.48459 0.78335 0.8047 0.0
O907 O 0.48743 0.79464 0.81289 0.0
H908 H 0.53275 0.78464 0.79784 0.0
H909 H 0.51429 0.81538 0.82027 0.0
N910 N 0.49509 0.81512 0.78937 0.0
N911 N 0.47786 0.82865 0.78218 0.0
C912 C 0.48261 0.8158 0.78136 0.0
C913 C 0.49839 0.82799 0.7955 0.0
C914 C 0.4878 0.83632 0.79112 0.0
C915 C 0.52339 0.80938 0.76957 0.0
O916 O 0.52339 0.82092 0.77722 0.0
H917 H 0.47737 0.80708 0.77478 0.0
H918 H 0.50798 0.83123 0.8024 0.0
O919 O 0.49152 0.78288 0.79352 0.0
H920 H 0.53749 0.80865 0.83548 0.0
H921 H 0.48751 0.8472 0.79431 0.0
Cu922 Cu 0.51036 0.77218 0.2839 0.0
N923 N 0.49728 0.77183 0.29849 0.0
N924 N 0.47879 0.77755 0.311 0.0
C925 C 0.48577 0.77932 0.29882 0.0
C926 C 0.48626 0.76855 0.31857 0.0
C927 C 0.49763 0.76508 0.31087 0.0
O928 O 0.49851 0.77098 0.26629 0.0
C929 C 0.53046 0.79221 0.29767 0.0
O930 O 0.52722 0.7835 0.30804 0.0
H931 H 0.48288 0.78624 0.29042 0.0
H932 H 0.5058 0.75841 0.31427 0.0
N933 N 0.52173 0.75708 0.28444 0.0
N934 N 0.53918 0.74385 0.27882 0.0
C935 C 0.53384 0.75639 0.27716 0.0
C936 C 0.51932 0.74456 0.29096 0.0
C937 C 0.53004 0.73641 0.28755 0.0
C938 C 0.49115 0.75899 0.26331 0.0
O939 O 0.49227 0.74846 0.27201 0.0
H940 H 0.53832 0.76478 0.27039 0.0
H941 H 0.51014 0.74135 0.29738 0.0
O942 O 0.52401 0.7895 0.2856 0.0
H943 H 0.48377 0.76472 0.32897 0.0
H944 H 0.53092 0.72578 0.29116 0.0
Cu945 Cu 0.50897 0.28208 0.28773 0.0
N946 N 0.49627 0.27141 0.2994 0.0
N947 N 0.47917 0.25574 0.30833 0.0
C948 C 0.48459 0.26155 0.29643 0.0
C949 C 0.48769 0.26225 0.31905 0.0
C950 C 0.4982 0.27185 0.31352 0.0
O951 O 0.50199 0.30033 0.28384 0.0
C952 C 0.53212 0.26991 0.29891 0.0
O953 O 0.52244 0.25906 0.29489 0.0
H954 H 0.48043 0.25846 0.28585 0.0
H955 H 0.50681 0.27864 0.31936 0.0
N956 N 0.50967 0.27353 0.27015 0.0
N957 N 0.52043 0.27039 0.25004 0.0
C958 C 0.52239 0.27268 0.26405 0.0
C959 C 0.49916 0.27161 0.25964 0.0
C960 C 0.50579 0.26971 0.24717 0.0
C961 C 0.49225 0.30531 0.29077 0.0
O962 O 0.48835 0.29933 0.30263 0.0
H963 H 0.53305 0.27553 0.26946 0.0
H964 H 0.48775 0.27296 0.26073 0.0
O965 O 0.52868 0.28236 0.29686 0.0
H966 H 0.48637 0.26028 0.33014 0.0
H967 H 0.50045 0.26911 0.23671 0.0
H968 H 0.16549 0.1995 0.17272 0.0
H969 H 0.1739 0.2136 0.15261 0.0
H970 H 0.2189 0.21382 0.1683 0.0
H971 H 0.21053 0.19953 0.18838 0.0
H972 H 0.18867 0.23981 0.15215 0.0
H973 H 0.22184 0.20241 0.12781 0.0
H974 H 0.20943 0.19716 0.14147 0.0
H975 H 0.22737 0.20657 0.1459 0.0
C976 C 0.17719 0.20251 0.17188 0.0
C977 C 0.18734 0.19837 0.18219 0.0
C978 C 0.18199 0.21056 0.16034 0.0
C979 C 0.19706 0.21466 0.15878 0.0
C980 C 0.20724 0.21051 0.16903 0.0
H981 H 0.24493 0.26929 0.09859 0.0
H982 H 0.23762 0.25476 0.11873 0.0
C983 C 0.20244 0.20236 0.18055 0.0
C984 C 0.20197 0.22372 0.14671 0.0
H985 H 0.22372 0.22564 0.11848 0.0
C986 C 0.19629 0.23666 0.14477 0.0
C987 C 0.21194 0.21968 0.13704 0.0
C988 C 0.2179 0.20564 0.13804 0.0
C989 C 0.20037 0.24566 0.13357 0.0
C990 C 0.21033 0.24161 0.12393 0.0
C991 C 0.21612 0.22875 0.1259 0.0
C992 C 0.21471 0.2505 0.11163 0.0
C993 C 0.19418 0.25956 0.13226 0.0
C994 C 0.20429 0.25286 0.10083 0.0
C995 C 0.20845 0.26106 0.08917 0.0
C996 C 0.22316 0.26713 0.08801 0.0
C997 C 0.23356 0.26472 0.09892 0.0
C998 C 0.22939 0.25644 0.11053 0.0
H999 H 0.18947 0.2626 0.14219 0.0
H1000 H 0.20279 0.26818 0.12938 0.0
H1001 H 0.18527 0.2586 0.12381 0.0
H1002 H 0.19294 0.24818 0.10132 0.0
H1003 H 0.20013 0.26241 0.08098 0.0
H1004 H 0.79769 0.20498 0.15541 0.0
H1005 H 0.78281 0.20897 0.13386 0.0
H1006 H 0.80267 0.25256 0.1338 0.0
H1007 H 0.81771 0.24851 0.15511 0.0
H1008 H 0.7624 0.2278 0.12813 0.0
H1009 H 0.81 0.23837 0.09464 0.0
H1010 H 0.81148 0.2307 0.1119 0.0
H1011 H 0.81175 0.24954 0.11006 0.0
C1012 C 0.79879 0.2154 0.15076 0.0
C1013 C 0.80876 0.22646 0.15688 0.0
C1014 C 0.79031 0.21767 0.13851 0.0
C1015 C 0.79178 0.23101 0.13214 0.0
C1016 C 0.80156 0.24212 0.13841 0.0
H1017 H 0.73859 0.27161 0.07281 0.0
H1018 H 0.74743 0.2597 0.09363 0.0
C1019 C 0.81007 0.23984 0.1506 0.0
C1020 C 0.78324 0.23335 0.11887 0.0
H1021 H 0.78727 0.24508 0.08534 0.0
C1022 C 0.7678 0.23143 0.1187 0.0
C1023 C 0.79029 0.23777 0.1065 0.0
C1024 C 0.80679 0.23908 0.1057 0.0
C1025 C 0.75925 0.23443 0.10663 0.0
C1026 C 0.76635 0.23973 0.09455 0.0
C1027 C 0.78178 0.24108 0.0946 0.0
C1028 C 0.7583 0.2448 0.082 0.0
C1029 C 0.74272 0.23189 0.10697 0.0
C1030 C 0.76116 0.24023 0.06846 0.0
C1031 C 0.75637 0.24723 0.05654 0.0
C1032 C 0.74852 0.25886 0.05793 0.0
C1033 C 0.74453 0.26262 0.07138 0.0
C1034 C 0.74953 0.25576 0.08333 0.0
H1035 H 0.73918 0.22344 0.11453 0.0
H1036 H 0.73865 0.24175 0.11049 0.0
H1037 H 0.73748 0.22884 0.0964 0.0
H1038 H 0.76787 0.23179 0.06716 0.0
H1039 H 0.75956 0.24407 0.0463 0.0
H1040 H 0.85107 0.85879 0.16528 0.0
H1041 H 0.84186 0.84667 0.14325 0.0
H1042 H 0.79756 0.85276 0.1523 0.0
H1043 H 0.80661 0.86435 0.1747 0.0
H1044 H 0.79937 0.82576 0.14271 0.0
H1045 H 0.8281 0.86526 0.10756 0.0
H1046 H 0.84002 0.85789 0.12032 0.0
H1047 H 0.82669 0.86864 0.12609 0.0
C1048 C 0.83934 0.85746 0.16268 0.0
C1049 C 0.82959 0.86259 0.17183 0.0
C1050 C 0.83411 0.85066 0.14996 0.0
C1051 C 0.81903 0.84897 0.14599 0.0
C1052 C 0.80926 0.854 0.1551 0.0
H1053 H 0.77127 0.83515 0.06732 0.0
H1054 H 0.78579 0.84353 0.08855 0.0
C1055 C 0.81447 0.86076 0.16785 0.0
C1056 C 0.81339 0.84191 0.13239 0.0
H1057 H 0.81497 0.84478 0.09667 0.0
C1058 C 0.80283 0.82986 0.13263 0.0
C1059 C 0.81788 0.8473 0.11924 0.0
C1060 C 0.82869 0.86055 0.11821 0.0
C1061 C 0.79644 0.82324 0.12011 0.0
C1062 C 0.8009 0.82865 0.10696 0.0
C1063 C 0.81169 0.84052 0.10674 0.0
C1064 C 0.79322 0.82335 0.0934 0.0
C1065 C 0.78447 0.8109 0.12107 0.0
C1066 C 0.79286 0.80924 0.08873 0.0
C1067 C 0.78446 0.80434 0.07646 0.0
C1068 C 0.77631 0.8135 0.0687 0.0
C1069 C 0.7773 0.82775 0.07309 0.0
C1070 C 0.78565 0.8326 0.08524 0.0
H1071 H 0.78045 0.80971 0.13186 0.0
H1072 H 0.77501 0.81217 0.11361 0.0
H1073 H 0.78883 0.80098 0.11819 0.0
H1074 H 0.79884 0.80196 0.09472 0.0
H1075 H 0.78392 0.79331 0.07335 0.0
H1076 H 0.15805 0.84495 0.12074 0.0
H1077 H 0.1773 0.84092 0.10488 0.0
H1078 H 0.20898 0.84296 0.14029 0.0
H1079 H 0.18983 0.84748 0.15612 0.0
H1080 H 0.22003 0.85759 0.11826 0.0
H1081 H 0.19437 0.8043 0.09999 0.0
H1082 H 0.18245 0.81766 0.09708 0.0
H1083 H 0.18803 0.81329 0.11479 0.0
C1084 C 0.1691 0.8444 0.12513 0.0
C1085 C 0.17237 0.84606 0.13969 0.0
C1086 C 0.18007 0.84205 0.11608 0.0
C1087 C 0.1945 0.84125 0.12144 0.0
C1088 C 0.19788 0.84335 0.13594 0.0
H1089 H 0.25895 0.80498 0.07389 0.0
H1090 H 0.24233 0.8106 0.09177 0.0
C1091 C 0.18694 0.84583 0.14498 0.0
C1092 C 0.2061 0.83841 0.11191 0.0
H1093 H 0.21454 0.81487 0.08738 0.0
C1094 C 0.21888 0.84821 0.11155 0.0
C1095 C 0.2047 0.82606 0.10334 0.0
C1096 C 0.19172 0.81465 0.1039 0.0
C1097 C 0.23018 0.84612 0.10267 0.0
C1098 C 0.22848 0.83407 0.09366 0.0
C1099 C 0.2158 0.82417 0.0942 0.0
C1100 C 0.23967 0.83137 0.08361 0.0
C1101 C 0.24391 0.8567 0.10323 0.0
C1102 C 0.24387 0.84123 0.07317 0.0
C1103 C 0.25351 0.83808 0.06303 0.0
C1104 C 0.25888 0.8249 0.063 0.0
C1105 C 0.25488 0.81517 0.07361 0.0
C1106 C 0.24541 0.81838 0.08382 0.0
H1107 H 0.24541 0.86265 0.11341 0.0
H1108 H 0.25385 0.85143 0.10176 0.0
H1109 H 0.243 0.86449 0.09469 0.0
H1110 H 0.23932 0.85117 0.07256 0.0
H1111 H 0.25623 0.84568 0.05485 0.0
H1112 H 0.18643 0.81418 0.88108 0.0
H1113 H 0.19199 0.80289 0.90361 0.0
H1114 H 0.21082 0.8435 0.92107 0.0
H1115 H 0.2054 0.85476 0.89861 0.0
H1116 H 0.22074 0.80386 0.91792 0.0
H1117 H 0.18127 0.827 0.95034 0.0
H1118 H 0.17936 0.82613 0.93132 0.0
H1119 H 0.19194 0.83987 0.94006 0.0
C1120 C 0.19164 0.82067 0.8898 0.0
C1121 C 0.19527 0.83536 0.88825 0.0
C1122 C 0.19479 0.81423 0.90261 0.0
C1123 C 0.20151 0.82243 0.91406 0.0
C1124 C 0.2053 0.83706 0.91246 0.0
H1125 H 0.24817 0.8265 0.99022 0.0
H1126 H 0.23207 0.82812 0.96929 0.0
C1127 C 0.20226 0.84347 0.89965 0.0
C1128 C 0.20543 0.81576 0.92752 0.0
H1129 H 0.20188 0.81859 0.96291 0.0
C1130 C 0.21639 0.80675 0.92776 0.0
C1131 C 0.19961 0.8195 0.94028 0.0
C1132 C 0.18728 0.82855 0.94052 0.0
C1133 C 0.2226 0.80236 0.94056 0.0
C1134 C 0.2175 0.80695 0.95338 0.0
C1135 C 0.20578 0.8151 0.95307 0.0
C1136 C 0.22576 0.80551 0.96699 0.0
C1137 C 0.23532 0.79377 0.94031 0.0
C1138 C 0.22722 0.79223 0.97291 0.0
C1139 C 0.2365 0.79125 0.98499 0.0
C1140 C 0.24443 0.80355 0.99121 0.0
C1141 C 0.24232 0.81682 0.98561 0.0
C1142 C 0.23307 0.81778 0.97366 0.0
H1143 H 0.23904 0.79251 0.9295 0.0
H1144 H 0.24477 0.79885 0.94711 0.0
H1145 H 0.23193 0.78307 0.94452 0.0
H1146 H 0.22149 0.78265 0.968 0.0
H1147 H 0.2379 0.78089 0.9891 0.0
H1148 H 0.19918 0.2457 0.90759 0.0
H1149 H 0.21195 0.25272 0.93029 0.0
H1150 H 0.21359 0.20884 0.94035 0.0
H1151 H 0.20061 0.20169 0.91782 0.0
H1152 H 0.20255 0.24544 0.95709 0.0
H1153 H 0.25638 0.22688 0.94881 0.0
H1154 H 0.24317 0.22914 0.93447 0.0
H1155 H 0.24076 0.21369 0.9453 0.0
C1156 C 0.2022 0.23751 0.91463 0.0
C1157 C 0.19885 0.2231 0.9108 0.0
C1158 C 0.2096 0.24156 0.92758 0.0
C1159 C 0.21395 0.23132 0.93695 0.0
C1160 C 0.21067 0.21695 0.93317 0.0
H1161 H 0.23233 0.24038 0.02689 0.0
H1162 H 0.22432 0.23208 1.00301 0.0
C1163 C 0.20323 0.21288 0.92025 0.0
C1164 C 0.22116 0.23565 0.95099 0.0
H1165 H 0.2522 0.2339 0.97222 0.0
C1166 C 0.21343 0.24297 0.96036 0.0
C1167 C 0.23543 0.23253 0.95522 0.0
C1168 C 0.24451 0.22524 0.9454 0.0
C1169 C 0.21941 0.24696 0.97392 0.0
C1170 C 0.23345 0.24345 0.97833 0.0
C1171 C 0.24137 0.23644 0.96887 0.0
C1172 C 0.23993 0.24703 0.99277 0.0
C1173 C 0.21066 0.25499 0.98346 0.0
C1174 C 0.25187 0.25774 0.99497 0.0
C1175 C 0.25653 0.26252 1.00867 0.0
C1176 C 0.24933 0.25664 0.0204 0.0
C1177 C 0.23808 0.24522 0.01814 0.0
C1178 C 0.23343 0.24049 1.00448 0.0
H1179 H 0.20154 0.25941 0.97756 0.0
H1180 H 0.20584 0.24771 0.99155 0.0
H1181 H 0.21787 0.26379 0.989 0.0
H1182 H 0.25708 0.26289 0.98608 0.0
H1183 H 0.2652 0.27135 0.00998 0.0
H1184 H 0.86957 0.20752 0.9228 0.0
H1185 H 0.86052 0.22009 0.94241 0.0
H1186 H 0.81746 0.21653 0.92117 0.0
H1187 H 0.82642 0.20398 0.90154 0.0
H1188 H 0.84895 0.24549 0.94115 0.0
H1189 H 0.8082 0.20306 0.96068 0.0
H1190 H 0.82209 0.19953 0.94887 0.0
H1191 H 0.80564 0.20622 0.94217 0.0
C1192 C 0.85816 0.20936 0.92234 0.0
C1193 C 0.8487 0.20474 0.91063 0.0
C1194 C 0.853 0.2165 0.93356 0.0
C1195 C 0.83828 0.21908 0.93333 0.0
C1196 C 0.82877 0.21435 0.92173 0.0
H1197 H 0.78501 0.26664 0.98201 0.0
H1198 H 0.79565 0.25262 0.96463 0.0
C1199 C 0.83391 0.20719 0.91051 0.0
C1200 C 0.83307 0.2274 0.94483 0.0
H1201 H 0.80705 0.22647 0.96926 0.0
C1202 C 0.83989 0.2413 0.9474 0.0
C1203 C 0.82125 0.22188 0.95296 0.0
C1204 C 0.81395 0.20681 0.95115 0.0
C1205 C 0.83489 0.25 0.95759 0.0
C1206 C 0.8229 0.24457 0.96552 0.0
C1207 C 0.81623 0.2306 0.96311 0.0
C1208 C 0.81675 0.25334 0.97606 0.0
C1209 C 0.84216 0.26508 0.95948 0.0
C1210 C 0.82511 0.25839 0.98827 0.0
C1211 C 0.81902 0.26637 0.9983 0.0
C1212 C 0.80443 0.26935 0.99633 0.0
C1213 C 0.79618 0.26435 0.984 0.0
C1214 C 0.80226 0.25639 0.97401 0.0
H1215 H 0.84912 0.2685 0.9506 0.0
H1216 H 0.8338 0.27245 0.9604 0.0
H1217 H 0.84929 0.26597 0.96933 0.0
H1218 H 0.83625 0.25595 0.99014 0.0
H1219 H 0.82561 0.2699 1.00775 0.0
H1220 H 0.8416 0.85477 0.90504 0.0
H1221 H 0.82951 0.84581 0.92614 0.0
H1222 H 0.78754 0.85325 0.90707 0.0
H1223 H 0.79936 0.8615 0.88577 0.0
H1224 H 0.81412 0.85915 0.94426 0.0
H1225 H 0.77763 0.81349 0.92041 0.0
H1226 H 0.79251 0.82286 0.91121 0.0
H1227 H 0.77515 0.82973 0.91168 0.0
C1228 C 0.82976 0.85424 0.90521 0.0
C1229 C 0.8215 0.85889 0.89363 0.0
C1230 C 0.82286 0.84921 0.91735 0.0
C1231 C 0.80755 0.84863 0.91817 0.0
C1232 C 0.7993 0.85326 0.90663 0.0
H1233 H 0.7446 0.83238 0.98303 0.0
H1234 H 0.75779 0.83968 0.96198 0.0
C1235 C 0.80615 0.8582 0.89449 0.0
C1236 C 0.80023 0.84375 0.93124 0.0
H1237 H 0.77203 0.82083 0.94341 0.0
C1238 C 0.80502 0.85067 0.94408 0.0
C1239 C 0.78833 0.83266 0.93107 0.0
C1240 C 0.7832 0.82416 0.91788 0.0
C1241 C 0.798 0.84709 0.95661 0.0
C1242 C 0.78592 0.83625 0.95634 0.0
C1243 C 0.78122 0.82922 0.94357 0.0
C1244 C 0.77804 0.83202 0.96923 0.0
C1245 C 0.80333 0.85514 0.97001 0.0
C1246 C 0.78501 0.8252 0.98025 0.0
C1247 C 0.77749 0.82098 0.99226 0.0
C1248 C 0.76283 0.82352 0.99354 0.0
C1249 C 0.75591 0.8304 0.98247 0.0
C1250 C 0.76341 0.83451 0.9704 0.0
H1251 H 0.8109 0.86488 0.96797 0.0
H1252 H 0.79388 0.85812 0.97568 0.0
H1253 H 0.80929 0.84826 0.97704 0.0
H1254 H 0.79625 0.82305 0.97952 0.0
H1255 H 0.78321 0.81583 1.00061 0.0
H1256 H 0.14117 0.17046 0.22419 0.0
H1257 H 0.12025 0.17837 0.23559 0.0
H1258 H 0.1394 0.22184 0.23167 0.0
H1259 H 0.1603 0.21405 0.22033 0.0
H1260 H 0.119 0.19431 0.25999 0.0
H1261 H 0.09828 0.2224 0.21356 0.0
H1262 H 0.11181 0.21031 0.21235 0.0
H1263 H 0.11721 0.22814 0.21874 0.0
C1264 C 0.14098 0.1817 0.22584 0.0
C1265 C 0.15236 0.19162 0.22119 0.0
C1266 C 0.12898 0.18621 0.23231 0.0
C1267 C 0.12808 0.20072 0.23423 0.0
C1268 C 0.13962 0.21061 0.22996 0.0
H1269 H 0.06529 0.24983 0.27067 0.0
H1270 H 0.08648 0.24177 0.26003 0.0
C1271 C 0.15158 0.20612 0.22348 0.0
C1272 C 0.11516 0.20552 0.24082 0.0
H1273 H 0.08728 0.22583 0.23515 0.0
C1274 C 0.11202 0.20113 0.25453 0.0
C1275 C 0.10605 0.21446 0.23371 0.0
C1276 C 0.10839 0.21901 0.21873 0.0
C1277 C 0.10021 0.20565 0.26141 0.0
C1278 C 0.09114 0.21463 0.25432 0.0
C1279 C 0.09427 0.219 0.24061 0.0
C1280 C 0.07824 0.21948 0.26087 0.0
C1281 C 0.09775 0.20103 0.27635 0.0
C1282 C 0.06643 0.20967 0.26471 0.0
C1283 C 0.05423 0.21425 0.27072 0.0
C1284 C 0.05351 0.22878 0.27299 0.0
C1285 C 0.06533 0.23859 0.26899 0.0
C1286 C 0.07752 0.23399 0.26296 0.0
H1287 H 0.10773 0.19736 0.28149 0.0
H1288 H 0.09455 0.2098 0.28278 0.0
H1289 H 0.08871 0.1921 0.27627 0.0
H1290 H 0.06655 0.19844 0.2629 0.0
H1291 H 0.04528 0.20637 0.27337 0.0
H1292 H 0.86184 0.1731 0.19991 0.0
H1293 H 0.85569 0.15301 0.21539 0.0
H1294 H 0.81294 0.16598 0.22046 0.0
H1295 H 0.81904 0.18619 0.20512 0.0
H1296 H 0.84797 0.15467 0.24369 0.0
H1297 H 0.80369 0.12359 0.21022 0.0
H1298 H 0.81651 0.13747 0.2033 0.0
H1299 H 0.80124 0.14183 0.21277 0.0
C1300 C 0.85111 0.17166 0.2043 0.0
C1301 C 0.84092 0.18125 0.2013 0.0
C1302 C 0.84761 0.16016 0.21309 0.0
C1303 C 0.83382 0.15795 0.21894 0.0
C1304 C 0.82354 0.16736 0.21582 0.0
H1305 H 0.79116 0.09948 0.27734 0.0
H1306 H 0.79837 0.11893 0.26146 0.0
C1307 C 0.82704 0.17888 0.20704 0.0
C1308 C 0.83045 0.1462 0.22885 0.0
H1309 H 0.8067 0.1163 0.23394 0.0
C1310 C 0.83902 0.14621 0.24154 0.0
C1311 C 0.81876 0.13522 0.22599 0.0
C1312 C 0.80958 0.1344 0.21228 0.0
C1313 C 0.83595 0.1357 0.25164 0.0
C1314 C 0.82417 0.12479 0.24883 0.0
C1315 C 0.8157 0.12471 0.23608 0.0
C1316 C 0.82025 0.11343 0.25905 0.0
C1317 C 0.84507 0.13659 0.26539 0.0
C1318 C 0.8302 0.10393 0.263 0.0
C1319 C 0.8261 0.09279 0.27209 0.0
C1320 C 0.81192 0.09087 0.27723 0.0
C1321 C 0.80208 0.10055 0.2734 0.0
C1322 C 0.8062 0.11169 0.26437 0.0
H1323 H 0.85116 0.14734 0.26731 0.0
H1324 H 0.83806 0.13381 0.27438 0.0
H1325 H 0.85324 0.12897 0.26507 0.0
H1326 H 0.84101 0.10492 0.25879 0.0
H1327 H 0.83384 0.0854 0.27468 0.0
H1328 H 0.85575 0.84284 0.21093 0.0
H1329 H 0.87666 0.83344 0.22278 0.0
H1330 H 0.89689 0.8759 0.233 0.0
H1331 H 0.87611 0.88546 0.2209 0.0
H1332 H 0.9066 0.83963 0.21548 0.0
H1333 H 0.89922 0.85473 0.27096 0.0
H1334 H 0.88459 0.85407 0.25739 0.0
H1335 H 0.89904 0.8687 0.25833 0.0
C1336 C 0.86464 0.85022 0.21566 0.0
C1337 C 0.86425 0.86494 0.21486 0.0
C1338 C 0.87656 0.84481 0.22251 0.0
C1339 C 0.88829 0.85395 0.22887 0.0
C1340 C 0.88784 0.86863 0.22837 0.0
H1341 H 0.97138 0.83931 0.27166 0.0
H1342 H 0.95011 0.84956 0.26165 0.0
C1343 C 0.87593 0.87408 0.22146 0.0
C1344 C 0.90131 0.84808 0.23534 0.0
H1345 H 0.92083 0.84467 0.26652 0.0
C1346 C 0.9097 0.84069 0.22665 0.0
C1347 C 0.90539 0.84957 0.24988 0.0
C1348 C 0.89656 0.8571 0.25976 0.0
C1349 C 0.92213 0.83488 0.23206 0.0
C1350 C 0.9261 0.83614 0.24666 0.0
C1351 C 0.91777 0.84364 0.25535 0.0
C1352 C 0.93885 0.82976 0.25309 0.0
C1353 C 0.9311 0.82772 0.22199 0.0
C1354 C 0.93952 0.81515 0.2519 0.0
C1355 C 0.95177 0.80925 0.25747 0.0
C1356 C 0.96362 0.81781 0.26452 0.0
C1357 C 0.96267 0.83239 0.26609 0.0
C1358 C 0.95043 0.83828 0.26045 0.0
H1359 H 0.92924 0.83125 0.21099 0.0
H1360 H 0.94304 0.8299 0.22499 0.0
H1361 H 0.9278 0.8161 0.22221 0.0
H1362 H 0.93058 0.80828 0.24657 0.0
H1363 H 0.95201 0.79803 0.25595 0.0
H1364 H 0.16454 0.88455 0.18836 0.0
H1365 H 0.17344 0.90403 0.20485 0.0
H1366 H 0.16288 0.87668 0.23985 0.0
H1367 H 0.15421 0.85709 0.22346 0.0
H1368 H 0.15647 0.9154 0.22558 0.0
H1369 H 0.20601 0.89461 0.24925 0.0
H1370 H 0.19701 0.88801 0.23272 0.0
H1371 H 0.18925 0.88254 0.24906 0.0
C1372 C 0.16433 0.88263 0.19958 0.0
C1373 C 0.1587 0.86928 0.20462 0.0
C1374 C 0.16932 0.89378 0.20896 0.0
C1375 C 0.16893 0.89174 0.22355 0.0
C1376 C 0.16345 0.87841 0.22863 0.0
H1377 H 0.1742 0.95558 0.28997 0.0
H1378 H 0.16666 0.93561 0.27378 0.0
C1379 C 0.15838 0.86728 0.21926 0.0
C1380 C 0.17373 0.90371 0.23343 0.0
H1381 H 0.19914 0.91521 0.2599 0.0
C1382 C 0.16581 0.91539 0.23307 0.0
C1383 C 0.18598 0.90367 0.24309 0.0
C1384 C 0.19517 0.89161 0.24354 0.0
C1385 C 0.16972 0.92699 0.24229 0.0
C1386 C 0.18177 0.92682 0.25217 0.0
C1387 C 0.18982 0.91523 0.25239 0.0
C1388 C 0.18639 0.93874 0.26215 0.0
C1389 C 0.16107 0.93944 0.24126 0.0
C1390 C 0.20009 0.94693 0.26112 0.0
C1391 C 0.20441 0.95839 0.2703 0.0
C1392 C 0.19515 0.96184 0.28079 0.0
C1393 C 0.18151 0.95341 0.28191 0.0
C1394 C 0.17718 0.94197 0.27268 0.0
H1395 H 0.15421 0.93924 0.23125 0.0
H1396 H 0.15366 0.93914 0.25012 0.0
H1397 H 0.16854 0.94958 0.24202 0.0
H1398 H 0.20735 0.94458 0.25305 0.0
H1399 H 0.21489 0.96469 0.26895 0.0
H1400 H 0.13951 0.86353 0.85516 0.0
H1401 H 0.11706 0.85887 0.83987 0.0
H1402 H 0.14203 0.86986 0.80351 0.0
H1403 H 0.16464 0.8745 0.81877 0.0
H1404 H 0.10644 0.88001 0.81501 0.0
H1405 H 0.11858 0.82586 0.801 0.0
H1406 H 0.1253 0.83402 0.81769 0.0
H1407 H 0.13298 0.84068 0.80175 0.0
C1408 C 0.14022 0.86497 0.84392 0.0
C1409 C 0.15383 0.86927 0.83813 0.0
C1410 C 0.1274 0.86242 0.83523 0.0
C1411 C 0.12797 0.86406 0.82063 0.0
C1412 C 0.14144 0.86862 0.8148 0.0
H1413 H 0.05493 0.82417 0.76595 0.0
H1414 H 0.07865 0.83801 0.77249 0.0
C1415 C 0.15429 0.87127 0.8235 0.0
C1416 C 0.11452 0.86009 0.81155 0.0
H1417 H 0.09522 0.8317 0.79416 0.0
C1418 C 0.10401 0.86954 0.81023 0.0
C1419 C 0.11155 0.84651 0.80526 0.0
C1420 C 0.12263 0.83609 0.80642 0.0
C1421 C 0.09028 0.86552 0.80312 0.0
C1422 C 0.08691 0.85156 0.7976 0.0
C1423 C 0.09777 0.84239 0.79837 0.0
C1424 C 0.07186 0.84567 0.79228 0.0
C1425 C 0.07952 0.87622 0.80175 0.0
C1426 C 0.06 0.8457 0.80101 0.0
C1427 C 0.04639 0.83794 0.79722 0.0
C1428 C 0.04446 0.82975 0.78476 0.0
C1429 C 0.05609 0.83033 0.77566 0.0
C1430 C 0.06966 0.83823 0.77938 0.0
H1431 H 0.08536 0.88716 0.80138 0.0
H1432 H 0.07208 0.87423 0.79215 0.0
H1433 H 0.07275 0.8756 0.81111 0.0
H1434 H 0.06149 0.85101 0.81119 0.0
H1435 H 0.0377 0.83767 0.80452 0.0
H1436 H 0.21562 0.17513 0.87404 0.0
H1437 H 0.22336 0.15271 0.8662 0.0
H1438 H 0.2003 0.15644 0.82592 0.0
H1439 H 0.19265 0.17888 0.83371 0.0
H1440 H 0.20647 0.12707 0.85594 0.0
H1441 H 0.24256 0.15224 0.8155 0.0
H1442 H 0.23566 0.16236 0.8292 0.0
H1443 H 0.22381 0.15589 0.8143 0.0
C1444 C 0.21216 0.17108 0.86355 0.0
C1445 C 0.20367 0.17877 0.85443 0.0
C1446 C 0.21656 0.15831 0.85907 0.0
C1447 C 0.21261 0.15301 0.84538 0.0
C1448 C 0.20371 0.16045 0.83642 0.0
H1449 H 0.24594 0.081 0.80397 0.0
H1450 H 0.23081 0.09997 0.80845 0.0
C1451 C 0.19929 0.17322 0.8409 0.0
C1452 C 0.21806 0.13985 0.84048 0.0
H1453 H 0.24118 0.12751 0.81767 0.0
C1454 C 0.21398 0.12715 0.84751 0.0
C1455 C 0.22777 0.13992 0.82939 0.0
C1456 C 0.23284 0.15333 0.82169 0.0
C1457 C 0.21954 0.11458 0.84393 0.0
C1458 C 0.2297 0.11477 0.83322 0.0
C1459 C 0.23337 0.12735 0.82585 0.0
C1460 C 0.23778 0.1025 0.83054 0.0
C1461 C 0.21452 0.10122 0.85172 0.0
C1462 C 0.24671 0.09764 0.84142 0.0
C1463 C 0.2553 0.08691 0.83889 0.0
C1464 C 0.25528 0.08077 0.82539 0.0
C1465 C 0.24612 0.08543 0.81451 0.0
C1466 C 0.23752 0.09629 0.81704 0.0
H1467 H 0.20349 0.10156 0.85588 0.0
H1468 H 0.21409 0.0917 0.84483 0.0
H1469 H 0.22237 0.10015 0.86083 0.0
H1470 H 0.24738 0.10245 0.85182 0.0
H1471 H 0.26223 0.08363 0.84753 0.0
H1472 H 0.9234 0.21778 0.88468 0.0
H1473 H 0.94104 0.22748 0.86768 0.0
H1474 H 0.91735 0.20085 0.83494 0.0
H1475 H 0.89983 0.1909 0.85206 0.0
H1476 H 0.94763 0.20155 0.83424 0.0
H1477 H 0.93198 0.25573 0.83743 0.0
H1478 H 0.93724 0.24911 0.85434 0.0
H1479 H 0.92115 0.24056 0.8446 0.0
C1480 C 0.92206 0.21394 0.87388 0.0
C1481 C 0.91036 0.20358 0.86962 0.0
C1482 C 0.93205 0.21954 0.86417 0.0
C1483 C 0.93035 0.21504 0.85002 0.0
C1484 C 0.91881 0.20449 0.84581 0.0
H1485 H 0.97967 0.26741 0.7897 0.0
H1486 H 0.95959 0.252 0.7997 0.0
C1487 C 0.90886 0.19883 0.85554 0.0
C1488 C 0.94053 0.22152 0.83962 0.0
H1489 H 0.95438 0.2534 0.82651 0.0
C1490 C 0.94902 0.21286 0.83241 0.0
C1491 C 0.94206 0.23622 0.837 0.0
C1492 C 0.93251 0.24593 0.84364 0.0
C1493 C 0.95952 0.21865 0.82312 0.0
C1494 C 0.96173 0.23349 0.82124 0.0
C1495 C 0.95277 0.24203 0.828 0.0
C1496 C 0.97381 0.24064 0.81308 0.0
C1497 C 0.9681 0.20881 0.81544 0.0
C1498 C 0.98849 0.23904 0.8169 0.0
C1499 C 0.99999 0.24772 0.81106 0.0
C1500 C 0.997 0.25834 0.80151 0.0
C1501 C 0.98232 0.25937 0.79708 0.0
C1502 C 0.97083 0.25058 0.8028 0.0
H1503 H 0.96177 0.1981 0.81403 0.0
H1504 H 0.97103 0.21296 0.80493 0.0
H1505 H 0.9784 0.20765 0.82175 0.0
H1506 H 0.99108 0.2317 0.82504 0.0
H1507 H 0.01118 0.24671 0.81475 0.0
H1508 H 0.84502 0.90487 0.84867 0.0
H1509 H 0.83496 0.92515 0.83779 0.0
H1510 H 0.79126 0.90713 0.84749 0.0
H1511 H 0.80104 0.88665 0.85792 0.0
H1512 H 0.80897 0.924 0.8147 0.0
H1513 H 0.80018 0.94912 0.86602 0.0
H1514 H 0.81359 0.93697 0.86423 0.0
H1515 H 0.79439 0.93039 0.86402 0.0
C1516 C 0.83324 0.90509 0.84831 0.0
C1517 C 0.82389 0.89412 0.85433 0.0
C1518 C 0.82753 0.91674 0.84215 0.0
C1519 C 0.81239 0.91771 0.84199 0.0
C1520 C 0.803 0.90668 0.84768 0.0
H1521 H 0.75451 0.98024 0.82025 0.0
H1522 H 0.76628 0.96023 0.8293 0.0
C1523 C 0.80866 0.895 0.85372 0.0
C1524 C 0.80631 0.93029 0.83606 0.0
H1525 H 0.79085 0.95949 0.84551 0.0
C1526 C 0.8051 0.93184 0.8214 0.0
C1527 C 0.80117 0.9404 0.84484 0.0
C1528 C 0.80243 0.93928 0.86067 0.0
C1529 C 0.79852 0.94308 0.81525 0.0
C1530 C 0.79338 0.95326 0.82405 0.0
C1531 C 0.79477 0.95173 0.83874 0.0
C1532 C 0.78625 0.96542 0.81829 0.0
C1533 C 0.79667 0.94361 0.7994 0.0
C1534 C 0.79357 0.97516 0.80917 0.0
C1535 C 0.7868 0.98657 0.80386 0.0
C1536 C 0.77263 0.98863 0.80773 0.0
C1537 C 0.76542 0.979 0.81704 0.0
C1538 C 0.77215 0.96753 0.82224 0.0
H1539 H 0.79717 0.93309 0.79446 0.0
H1540 H 0.78604 0.94727 0.79599 0.0
H1541 H 0.8057 0.95113 0.79539 0.0
H1542 H 0.80461 0.97404 0.80626 0.0
H1543 H 0.79274 0.99385 0.79683 0.0
H1544 H 0.17452 0.13309 0.234 0.0
H1545 H 0.18345 0.11355 0.24729 0.0
H1546 H 0.22042 0.115 0.22099 0.0
H1547 H 0.21155 0.13463 0.20777 0.0
H1548 H 0.18703 0.08721 0.23552 0.0
H1549 H 0.23985 0.11292 0.26074 0.0
H1550 H 0.22584 0.12296 0.25355 0.0
H1551 H 0.23751 0.11514 0.24203 0.0
C1552 C 0.18466 0.12935 0.23121 0.0
C1553 C 0.19226 0.13526 0.21978 0.0
C1554 C 0.18974 0.11818 0.23877 0.0
C1555 C 0.20265 0.1128 0.2352 0.0
C1556 C 0.21056 0.11906 0.2241 0.0
H1557 H 0.23893 0.03778 0.27189 0.0
H1558 H 0.23565 0.05807 0.25647 0.0
C1559 C 0.20546 0.13023 0.21651 0.0
C1560 C 0.20716 0.10006 0.24249 0.0
H1561 H 0.23408 0.08825 0.264 0.0
C1562 C 0.19735 0.08746 0.2417 0.0
C1563 C 0.22072 0.10027 0.25041 0.0
C1564 C 0.23158 0.11355 0.25187 0.0
C1565 C 0.20055 0.07521 0.24878 0.0
C1566 C 0.21384 0.07555 0.25713 0.0
C1567 C 0.22392 0.08798 0.25757 0.0
C1568 C 0.21656 0.0636 0.26659 0.0
C1569 C 0.18958 0.06199 0.24738 0.0
C1570 C 0.20717 0.06018 0.27754 0.0
C1571 C 0.209 0.04873 0.28626 0.0
C1572 C 0.22035 0.04033 0.28437 0.0
C1573 C 0.23005 0.04395 0.2736 0.0
C1574 C 0.22819 0.05555 0.26481 0.0
H1575 H 0.18232 0.06208 0.23765 0.0
H1576 H 0.19521 0.05234 0.24723 0.0
H1577 H 0.18251 0.06136 0.25652 0.0
H1578 H 0.1983 0.06636 0.2793 0.0
H1579 H 0.20136 0.04644 0.29448 0.0
H1580 H 0.20401 0.90282 0.87642 0.0
H1581 H 0.22017 0.92519 0.87437 0.0
H1582 H 0.21731 0.92029 0.82914 0.0
H1583 H 0.20115 0.89795 0.8311 0.0
H1584 H 0.24733 0.93191 0.86198 0.0
H1585 H 0.20361 0.959 0.83534 0.0
H1586 H 0.19972 0.94228 0.84411 0.0
H1587 H 0.20654 0.94286 0.8267 0.0
C1588 C 0.20696 0.90643 0.86605 0.0
C1589 C 0.2012 0.8987 0.85391 0.0
C1590 C 0.21615 0.91922 0.8649 0.0
C1591 C 0.2197 0.92451 0.8516 0.0
C1592 C 0.21442 0.91655 0.83949 0.0
H1593 H 0.26836 0.99813 0.81751 0.0
H1594 H 0.25534 0.97483 0.82227 0.0
C1595 C 0.20519 0.90381 0.84063 0.0
C1596 C 0.22865 0.93848 0.85032 0.0
H1597 H 0.22792 0.9711 0.83578 0.0
C1598 C 0.24308 0.94053 0.85635 0.0
C1599 C 0.22301 0.94973 0.84305 0.0
C1600 C 0.20733 0.94845 0.83705 0.0
C1601 C 0.25221 0.9534 0.85487 0.0
C1602 C 0.24666 0.96449 0.8473 0.0
C1603 C 0.23215 0.96252 0.84151 0.0
C1604 C 0.25576 0.97814 0.84482 0.0
C1605 C 0.26782 0.95495 0.86104 0.0
C1606 C 0.26046 0.98766 0.85597 0.0
C1607 C 0.26784 1.00109 0.85326 0.0
C1608 C 0.27053 1.00521 0.83935 0.0
C1609 C 0.2662 0.99542 0.8283 0.0
C1610 C 0.25884 0.98206 0.83101 0.0
H1611 H 0.27123 0.94461 0.8643 0.0
H1612 H 0.27553 0.95985 0.85332 0.0
H1613 H 0.26878 0.96202 0.87046 0.0
H1614 H 0.25798 0.98489 0.86669 0.0
H1615 H 0.27093 0.00843 0.86197 0.0
H1616 H 0.17026 0.25025 0.87757 0.0
H1617 H 0.14999 0.26265 0.86852 0.0
H1618 H 0.12334 0.22256 0.85979 0.0
H1619 H 0.14368 0.21012 0.86855 0.0
H1620 H 0.12078 0.23995 0.83833 0.0
H1621 H 0.11346 0.26898 0.88757 0.0
H1622 H 0.13177 0.27257 0.88165 0.0
H1623 H 0.12493 0.25497 0.88705 0.0
C1624 C 0.16003 0.24408 0.87383 0.0
C1625 C 0.15858 0.22918 0.87384 0.0
C1626 C 0.14841 0.25119 0.8687 0.0
C1627 C 0.13498 0.24358 0.8637 0.0
C1628 C 0.13355 0.2287 0.86361 0.0
H1629 H 0.05183 0.27757 0.85057 0.0
H1630 H 0.07275 0.266 0.85927 0.0
C1631 C 0.14521 0.22159 0.8686 0.0
C1632 C 0.12251 0.25106 0.85826 0.0
H1633 H 0.1004 0.27575 0.86695 0.0
C1634 C 0.11631 0.24775 0.84462 0.0
C1635 C 0.11648 0.26112 0.86649 0.0
C1636 C 0.12189 0.26453 0.88155 0.0
C1637 C 0.10438 0.25424 0.83896 0.0
C1638 C 0.0987 0.26467 0.847 0.0
C1639 C 0.10483 0.2679 0.86069 0.0
C1640 C 0.08608 0.27199 0.84164 0.0
C1641 C 0.09774 0.24952 0.82457 0.0
C1642 C 0.0866 0.27946 0.82892 0.0
C1643 C 0.07456 0.28603 0.82386 0.0
C1644 C 0.06182 0.28551 0.83154 0.0
C1645 C 0.06149 0.27833 0.84445 0.0
C1646 C 0.07346 0.27164 0.84942 0.0
H1647 H 0.1004 0.23884 0.82169 0.0
H1648 H 0.0856 0.24925 0.82406 0.0
H1649 H 0.10229 0.25707 0.81658 0.0
H1650 H 0.09634 0.28027 0.8229 0.0
H1651 H 0.07526 0.29165 0.81401 0.0
H1652 H 0.84033 0.15548 0.89057 0.0
H1653 H 0.82944 0.13378 0.87794 0.0
H1654 H 0.83258 0.15589 0.8385 0.0
H1655 H 0.8438 0.17743 0.85104 0.0
H1656 H 0.80521 0.12651 0.86048 0.0
H1657 H 0.85555 0.12331 0.83164 0.0
H1658 H 0.85506 0.13549 0.84614 0.0
H1659 H 0.84816 0.13968 0.82878 0.0
C1660 C 0.83852 0.15571 0.87922 0.0
C1661 C 0.84305 0.16804 0.87173 0.0
C1662 C 0.83234 0.14333 0.87202 0.0
C1663 C 0.83056 0.14313 0.85725 0.0
C1664 C 0.83427 0.15569 0.84986 0.0
H1665 H 0.77992 0.07772 0.80433 0.0
H1666 H 0.78848 0.09889 0.81866 0.0
C1667 C 0.8406 0.16799 0.85702 0.0
C1668 C 0.82526 0.12972 0.84952 0.0
H1669 H 0.83433 0.10763 0.82393 0.0
C1670 C 0.81159 0.12232 0.85253 0.0
C1671 C 0.83375 0.12413 0.83937 0.0
C1672 C 0.84901 0.13098 0.83639 0.0
C1673 C 0.80601 0.10963 0.84542 0.0
C1674 C 0.81419 0.10442 0.83477 0.0
C1675 C 0.82799 0.11169 0.83198 0.0
C1676 C 0.80873 0.09144 0.82637 0.0
C1677 C 0.79157 0.10183 0.8496 0.0
C1678 C 0.81746 0.0804 0.82557 0.0
C1679 C 0.8127 0.06842 0.81718 0.0
C1680 C 0.79908 0.06722 0.80951 0.0
C1681 C 0.79035 0.07827 0.81033 0.0
C1682 C 0.7952 0.09033 0.81857 0.0
H1683 H 0.78915 0.10465 0.86051 0.0
H1684 H 0.78256 0.10479 0.84241 0.0
H1685 H 0.79155 0.09018 0.84888 0.0
H1686 H 0.82797 0.08105 0.83145 0.0
H1687 H 0.81958 0.06001 0.81683 0.0
H1688 H 0.86629 0.84561 0.82178 0.0
H1689 H 0.88888 0.8372 0.81445 0.0
H1690 H 0.90289 0.83239 0.858 0.0
H1691 H 0.88007 0.84053 0.86535 0.0
H1692 H 0.91793 0.84694 0.81935 0.0
H1693 H 0.906 0.79345 0.84211 0.0
H1694 H 0.89241 0.80555 0.84049 0.0
H1695 H 0.90627 0.80759 0.85473 0.0
C1696 C 0.87424 0.84287 0.82979 0.0
C1697 C 0.87145 0.8438 0.84415 0.0
C1698 C 0.88715 0.83804 0.82559 0.0
C1699 C 0.89753 0.83391 0.83564 0.0
C1700 C 0.89494 0.8352 0.85002 0.0
H1701 H 0.98146 0.8012 0.82947 0.0
H1702 H 0.95969 0.81055 0.83727 0.0
C1703 C 0.88199 0.84 0.85422 0.0
C1704 C 0.91094 0.82817 0.83099 0.0
H1705 H 0.92949 0.79918 0.83291 0.0
C1706 C 0.92042 0.83648 0.82229 0.0
C1707 C 0.91422 0.81449 0.83476 0.0
C1708 C 0.90413 0.80468 0.84342 0.0
C1709 C 0.93313 0.83159 0.81746 0.0
C1710 C 0.93642 0.81794 0.82127 0.0
C1711 C 0.92699 0.80965 0.83001 0.0
C1712 C 0.94962 0.81209 0.81635 0.0
C1713 C 0.94311 0.84119 0.80852 0.0
C1714 C 0.95116 0.80958 0.80197 0.0
C1715 C 0.96359 0.80407 0.79742 0.0
C1716 C 0.97483 0.8009 0.80715 0.0
C1717 C 0.9731 0.80331 0.82159 0.0
C1718 C 0.96064 0.80876 0.82611 0.0
H1719 H 0.94097 0.85239 0.80927 0.0
H1720 H 0.95484 0.84063 0.81169 0.0
H1721 H 0.94121 0.83772 0.79733 0.0
H1722 H 0.94267 0.81179 0.79424 0.0
H1723 H 0.96428 0.80217 0.78626 0.0
H1724 H 0.83354 0.91975 0.23162 0.0
H1725 H 0.82626 0.94242 0.23933 0.0
H1726 H 0.78375 0.93176 0.21768 0.0
H1727 H 0.79097 0.9091 0.21004 0.0
H1728 H 0.81618 0.96508 0.22347 0.0
H1729 H 0.77362 0.94027 0.25831 0.0
H1730 H 0.78746 0.93062 0.25148 0.0
H1731 H 0.77196 0.93414 0.24031 0.0
C1732 C 0.8227 0.92234 0.22842 0.0
C1733 C 0.81283 0.91267 0.22025 0.0
C1734 C 0.81854 0.93526 0.23283 0.0
C1735 C 0.80437 0.93871 0.22927 0.0
C1736 C 0.79463 0.92923 0.22077 0.0
H1737 H 0.76487 0.01178 0.26236 0.0
H1738 H 0.76813 0.9911 0.24763 0.0
C1739 C 0.79881 0.91633 0.21633 0.0
C1740 C 0.79979 0.95213 0.23466 0.0
H1741 H 0.77672 0.96515 0.25713 0.0
C1742 C 0.80748 0.96509 0.23075 0.0
C1743 C 0.78833 0.95218 0.24406 0.0
C1744 C 0.7799 0.93858 0.24891 0.0
C1745 C 0.80425 0.97805 0.23619 0.0
C1746 C 0.79321 0.97807 0.24604 0.0
C1747 C 0.78513 0.96515 0.24954 0.0
C1748 C 0.79113 0.99113 0.25404 0.0
C1749 C 0.8128 0.99161 0.2314 0.0
C1750 C 0.80289 0.99797 0.26254 0.0
C1751 C 0.80105 0.00964 0.2709 0.0
C1752 C 0.78736 0.01481 0.27108 0.0
C1753 C 0.77557 0.00813 0.26238 0.0
C1754 C 0.77742 0.9963 0.25401 0.0
H1755 H 0.81692 0.99032 0.22076 0.0
H1756 H 0.80597 1.00044 0.23116 0.0
H1757 H 0.82247 0.99454 0.23882 0.0
H1758 H 0.81348 0.99405 0.26302 0.0
H1759 H 0.8104 0.01447 0.27744 0.0
H1760 H 0.10844 0.84764 0.19659 0.0
H1761 H 0.08606 0.8332 0.20348 0.0
H1762 H 0.10349 0.79534 0.19106 0.0
H1763 H 0.12616 0.8097 0.18439 0.0
H1764 H 0.06968 0.79993 0.18299 0.0
H1765 H 0.09017 0.8047 0.23921 0.0
H1766 H 0.09224 0.82062 0.22898 0.0
H1767 H 0.10238 0.80636 0.22487 0.0
C1768 C 0.10754 0.83625 0.19529 0.0
C1769 C 0.11917 0.82981 0.19012 0.0
C1770 C 0.0947 0.82804 0.19913 0.0
C1771 C 0.09321 0.81325 0.1978 0.0
C1772 C 0.10447 0.80677 0.19208 0.0
H1773 H 0.0286 0.76453 0.24767 0.0
H1774 H 0.04975 0.76957 0.23314 0.0
C1775 C 0.11737 0.81499 0.18826 0.0
C1776 C 0.08035 0.80467 0.20349 0.0
H1777 H 0.06524 0.79547 0.2346 0.0
C1778 C 0.06872 0.79875 0.19425 0.0
C1779 C 0.07928 0.80304 0.21816 0.0
C1780 C 0.0917 0.80891 0.22844 0.0
C1781 C 0.05571 0.79172 0.19941 0.0
C1782 C 0.05433 0.79077 0.21415 0.0
C1783 C 0.06628 0.79617 0.2233 0.0
C1784 C 0.04033 0.78533 0.2205 0.0
C1785 C 0.04354 0.78549 0.18907 0.0
C1786 C 0.02776 0.79211 0.21786 0.0
C1787 C 0.01561 0.78921 0.22611 0.0
C1788 C 0.01589 0.77961 0.23728 0.0
C1789 C 0.02805 0.77205 0.23921 0.0
C1790 C 0.04016 0.77492 0.23091 0.0
H1791 H 0.04792 0.78285 0.17885 0.0
H1792 H 0.03732 0.77578 0.19326 0.0
H1793 H 0.03579 0.79338 0.18701 0.0
H1794 H 0.02772 0.80038 0.21008 0.0
H1795 H 1.00645 0.79523 0.22434 0.0
H1796 H 0.87031 0.24299 0.19146 0.0
H1797 H 0.89453 0.25556 0.19901 0.0
H1798 H 0.91308 0.21617 0.19781 0.0
H1799 H 0.88917 0.20373 0.1899 0.0
H1800 H 0.90891 0.25059 0.22347 0.0
H1801 H 0.94485 0.24228 0.18043 0.0
H1802 H 0.92503 0.23961 0.178 0.0
H1803 H 0.9348 0.22576 0.18517 0.0
C1804 C 0.87967 0.23712 0.19242 0.0
C1805 C 0.87785 0.22236 0.19019 0.0
C1806 C 0.89347 0.24429 0.19677 0.0
C1807 C 0.90568 0.23685 0.19879 0.0
C1808 C 0.90395 0.22222 0.196 0.0
H1809 H 0.98013 0.22993 0.24869 0.0
H1810 H 0.95985 0.22961 0.231 0.0
C1811 C 0.89021 0.21508 0.19167 0.0
C1812 C 0.91973 0.24377 0.20557 0.0
H1813 H 0.95693 0.24491 0.20408 0.0
C1814 C 0.91943 0.24977 0.21906 0.0
C1815 C 0.93345 0.24275 0.19979 0.0
C1816 C 0.93454 0.23738 0.18498 0.0
C1817 C 0.93243 0.25359 0.22741 0.0
C1818 C 0.94605 0.25146 0.22204 0.0
C1819 C 0.94644 0.24645 0.20818 0.0
C1820 C 0.95958 0.2523 0.23137 0.0
C1821 C 0.93144 0.25887 0.24228 0.0
C1822 C 0.96641 0.26523 0.23716 0.0
C1823 C 0.97809 0.26546 0.24731 0.0
C1824 C 0.983 0.25274 0.25184 0.0
C1825 C 0.97654 0.2399 0.24552 0.0
C1826 C 0.96498 0.2397 0.23535 0.0
H1827 H 0.91988 0.2587 0.24525 0.0
H1828 H 0.93716 0.25228 0.24984 0.0
H1829 H 0.93698 0.26991 0.24335 0.0
H1830 H 0.96243 0.27508 0.23412 0.0
H1831 H 0.98287 0.27552 0.25198 0.0
H1832 H 0.17309 0.72252 0.65575 0.0
H1833 H 0.18475 0.73114 0.63427 0.0
H1834 H 0.22751 0.72897 0.65465 0.0
H1835 H 0.21594 0.72014 0.67599 0.0
H1836 H 0.20347 0.75422 0.62878 0.0
H1837 H 0.23092 0.70681 0.61921 0.0
H1838 H 0.21716 0.70708 0.63202 0.0
H1839 H 0.23592 0.71453 0.63632 0.0
C1840 C 0.18498 0.72395 0.65566 0.0
C1841 C 0.19357 0.72049 0.66754 0.0
C1842 C 0.19164 0.72882 0.64335 0.0
C1843 C 0.20703 0.73037 0.64266 0.0
C1844 C 0.21562 0.72741 0.6547 0.0
H1845 H 0.26808 0.76974 0.58367 0.0
H1846 H 0.25621 0.75839 0.60391 0.0
C1847 C 0.20898 0.72243 0.66694 0.0
C1848 C 0.21412 0.73532 0.62949 0.0
H1849 H 0.23858 0.72724 0.60566 0.0
C1850 C 0.21104 0.74824 0.62368 0.0
C1851 C 0.22398 0.72752 0.62272 0.0
C1852 C 0.22708 0.71315 0.6278 0.0
C1853 C 0.2178 0.7537 0.61158 0.0
C1854 C 0.22789 0.74606 0.60507 0.0
C1855 C 0.23089 0.73311 0.61073 0.0
C1856 C 0.23552 0.75156 0.59244 0.0
C1857 C 0.21434 0.76775 0.60592 0.0
C1858 C 0.22797 0.75107 0.57918 0.0
C1859 C 0.23476 0.75742 0.56754 0.0
C1860 C 0.24923 0.76449 0.56896 0.0
C1861 C 0.25695 0.76439 0.58216 0.0
C1862 C 0.25018 0.75794 0.59377 0.0
H1863 H 0.20749 0.77309 0.61301 0.0
H1864 H 0.22469 0.77487 0.6044 0.0
H1865 H 0.20833 0.76605 0.59548 0.0
H1866 H 0.21667 0.74613 0.57793 0.0
H1867 H 0.22843 0.75731 0.55758 0.0
H1868 H 0.79306 0.7231 0.65991 0.0
H1869 H 0.78335 0.73053 0.63696 0.0
H1870 H 0.81802 0.76571 0.63715 0.0
H1871 H 0.82788 0.75812 0.66 0.0
H1872 H 0.77343 0.75609 0.6294 0.0
H1873 H 0.82137 0.74608 0.59926 0.0
H1874 H 0.81862 0.73943 0.61679 0.0
H1875 H 0.8257 0.75767 0.61429 0.0
C1876 C 0.79851 0.73246 0.65506 0.0
C1877 C 0.81104 0.7402 0.66175 0.0
C1878 C 0.793 0.73669 0.64199 0.0
C1879 C 0.80004 0.7486 0.63532 0.0
C1880 C 0.81254 0.75638 0.64203 0.0
H1881 H 0.75793 0.78604 0.56198 0.0
H1882 H 0.77095 0.78336 0.5848 0.0
C1883 C 0.81808 0.75213 0.6551 0.0
C1884 C 0.79422 0.75282 0.62135 0.0
H1885 H 0.80241 0.75625 0.58683 0.0
C1886 C 0.77978 0.75621 0.6201 0.0
C1887 C 0.80251 0.75283 0.60924 0.0
C1888 C 0.81786 0.74869 0.60987 0.0
C1889 C 0.77331 0.75946 0.607 0.0
C1890 C 0.78164 0.75956 0.59489 0.0
C1891 C 0.79613 0.75632 0.59617 0.0
C1892 C 0.77507 0.76188 0.58065 0.0
C1893 C 0.75746 0.76223 0.60615 0.0
C1894 C 0.77366 0.75093 0.57056 0.0
C1895 C 0.76635 0.75245 0.55751 0.0
C1896 C 0.76033 0.76499 0.55428 0.0
C1897 C 0.76236 0.77622 0.56417 0.0
C1898 C 0.76971 0.77468 0.57724 0.0
H1899 H 0.75175 0.75879 0.6158 0.0
H1900 H 0.75703 0.77376 0.60492 0.0
H1901 H 0.75136 0.75666 0.59691 0.0
H1902 H 0.77779 0.741 0.57296 0.0
H1903 H 0.76506 0.74362 0.55012 0.0
H1904 H 0.81613 0.3743 0.69494 0.0
H1905 H 0.80323 0.36439 0.67326 0.0
H1906 H 0.84478 0.36052 0.65547 0.0
H1907 H 0.85779 0.37043 0.6772 0.0
H1908 H 0.80481 0.37505 0.64649 0.0
H1909 H 0.82228 0.32129 0.64788 0.0
H1910 H 0.82466 0.33309 0.66299 0.0
H1911 H 0.83712 0.33557 0.64901 0.0
C1912 C 0.82255 0.37134 0.68643 0.0
C1913 C 0.83801 0.37318 0.68783 0.0
C1914 C 0.81514 0.36563 0.67404 0.0
C1915 C 0.823 0.36156 0.66277 0.0
C1916 C 0.83845 0.36329 0.66413 0.0
H1917 H 0.79158 0.32731 0.57907 0.0
H1918 H 0.80707 0.33745 0.59934 0.0
C1919 C 0.84588 0.36897 0.67656 0.0
C1920 C 0.81494 0.35601 0.64946 0.0
H1921 H 0.80845 0.32707 0.62746 0.0
C1922 C 0.80561 0.36456 0.64234 0.0
C1923 C 0.81604 0.34234 0.64398 0.0
C1924 C 0.82546 0.33247 0.6514 0.0
C1925 C 0.79734 0.35982 0.62996 0.0
C1926 C 0.79824 0.34607 0.62463 0.0
C1927 C 0.80778 0.33761 0.63156 0.0
C1928 C 0.78888 0.34007 0.61222 0.0
C1929 C 0.78778 0.36962 0.62264 0.0
C1930 C 0.77352 0.33804 0.61277 0.0
C1931 C 0.76463 0.33217 0.60125 0.0
C1932 C 0.77089 0.32812 0.58888 0.0
C1933 C 0.78633 0.33017 0.5884 0.0
C1934 C 0.79522 0.33601 0.59997 0.0
H1935 H 0.79131 0.38086 0.62572 0.0
H1936 H 0.78798 0.36858 0.61101 0.0
H1937 H 0.77625 0.36682 0.62561 0.0
H1938 H 0.76838 0.3408 0.62221 0.0
H1939 H 0.75286 0.33053 0.60224 0.0
H1940 H 0.21387 0.37788 0.65646 0.0
H1941 H 0.23063 0.37099 0.63909 0.0
H1942 H 0.20051 0.3333 0.6288 0.0
H1943 H 0.18373 0.34024 0.64605 0.0
H1944 H 0.2441 0.3457 0.63727 0.0
H1945 H 0.20701 0.35244 0.59041 0.0
H1946 H 0.20442 0.35983 0.6075 0.0
H1947 H 0.1986 0.34137 0.60373 0.0
C1948 C 0.21084 0.36819 0.65038 0.0
C1949 C 0.19739 0.35975 0.65226 0.0
C1950 C 0.2204 0.36424 0.64054 0.0
C1951 C 0.21665 0.35179 0.63247 0.0
C1952 C 0.20343 0.34312 0.63469 0.0
H1953 H 0.25103 0.30442 0.5687 0.0
H1954 H 0.23758 0.31422 0.58686 0.0
C1955 C 0.19389 0.34706 0.64453 0.0
C1956 C 0.22654 0.34776 0.62177 0.0
H1957 H 0.22774 0.34051 0.5867 0.0
C1958 C 0.24062 0.34469 0.62618 0.0
C1959 C 0.22196 0.34654 0.60733 0.0
C1960 C 0.20723 0.35034 0.6019 0.0
C1961 C 0.25002 0.3398 0.61658 0.0
C1962 C 0.24526 0.33822 0.60219 0.0
C1963 C 0.23134 0.34169 0.59775 0.0
C1964 C 0.25409 0.33216 0.59164 0.0
C1965 C 0.26469 0.33586 0.62198 0.0
C1966 C 0.26791 0.33899 0.58827 0.0
C1967 C 0.27581 0.33328 0.5779 0.0
C1968 C 0.26998 0.32068 0.57069 0.0
C1969 C 0.2561 0.31394 0.57415 0.0
C1970 C 0.24827 0.31961 0.58449 0.0
H1971 H 0.26537 0.33488 0.63363 0.0
H1972 H 0.26678 0.32569 0.61719 0.0
H1973 H 0.27355 0.34419 0.61904 0.0
H1974 H 0.27249 0.34883 0.5935 0.0
H1975 H 0.28646 0.33873 0.57556 0.0
H1976 H 0.18665 0.3082 0.39389 0.0
H1977 H 0.19604 0.29843 0.41594 0.0
H1978 H 0.21836 0.33974 0.42797 0.0
H1979 H 0.20897 0.34951 0.40597 0.0
H1980 H 0.22587 0.29871 0.42436 0.0
H1981 H 0.19689 0.32659 0.46347 0.0
H1982 H 0.19095 0.32517 0.44503 0.0
H1983 H 0.20593 0.33826 0.45096 0.0
C1984 C 0.19344 0.31519 0.40133 0.0
C1985 C 0.19708 0.3296 0.39833 0.0
C1986 C 0.19877 0.30962 0.41389 0.0
C1987 C 0.20768 0.31842 0.42367 0.0
C1988 C 0.21122 0.33284 0.42071 0.0
H1989 H 0.27574 0.30895 0.48381 0.0
H1990 H 0.25906 0.31256 0.46371 0.0
C1991 C 0.20596 0.33839 0.40814 0.0
C1992 C 0.21423 0.31241 0.43649 0.0
H1993 H 0.2183 0.31653 0.47224 0.0
C1994 C 0.22402 0.30241 0.43485 0.0
C1995 C 0.21166 0.31712 0.45016 0.0
C1996 C 0.20067 0.32727 0.45256 0.0
C1997 C 0.232 0.29767 0.44649 0.0
C1998 C 0.23016 0.30312 0.46004 0.0
C1999 C 0.21973 0.31245 0.4618 0.0
C2000 C 0.24007 0.30042 0.47221 0.0
C2001 C 0.24267 0.28718 0.44418 0.0
C2002 C 0.23483 0.29251 0.48372 0.0
C2003 C 0.24439 0.29035 0.49527 0.0
C2004 C 0.25925 0.29628 0.49552 0.0
C2005 C 0.26436 0.30426 0.48398 0.0
C2006 C 0.25487 0.30628 0.47244 0.0
H2007 H 0.24014 0.28137 0.434 0.0
H2008 H 0.25396 0.29293 0.44403 0.0
H2009 H 0.24253 0.2794 0.45285 0.0
H2010 H 0.22338 0.288 0.48372 0.0
H2011 H 0.24013 0.28419 0.50404 0.0
H2012 H 0.18473 0.73391 0.37455 0.0
H2013 H 0.19309 0.74606 0.39678 0.0
H2014 H 0.19354 0.70578 0.41722 0.0
H2015 H 0.18513 0.6935 0.39491 0.0
H2016 H 0.17804 0.7444 0.42104 0.0
H2017 H 0.23327 0.72736 0.4309 0.0
H2018 H 0.2234 0.7254 0.4139 0.0
H2019 H 0.21863 0.7131 0.42769 0.0
C2020 C 0.1867 0.72761 0.38375 0.0
C2021 C 0.18417 0.71272 0.38297 0.0
C2022 C 0.19152 0.73458 0.39645 0.0
C2023 C 0.19402 0.72686 0.40868 0.0
C2024 C 0.19193 0.71198 0.40788 0.0
H2025 H 0.19464 0.75905 0.4946 0.0
H2026 H 0.18873 0.74686 0.47199 0.0
C2027 C 0.18712 0.70496 0.39512 0.0
C2028 C 0.19787 0.73448 0.42237 0.0
H2029 H 0.22405 0.73984 0.44951 0.0
C2030 C 0.18812 0.74342 0.42725 0.0
C2031 C 0.21109 0.73332 0.43041 0.0
C2032 C 0.22229 0.72439 0.42544 0.0
C2033 C 0.19113 0.75108 0.43997 0.0
C2034 C 0.20416 0.74965 0.4482 0.0
C2035 C 0.21402 0.74086 0.44325 0.0
C2036 C 0.20773 0.75721 0.46194 0.0
C2037 C 0.18044 0.76086 0.44438 0.0
C2038 C 0.22049 0.76698 0.46393 0.0
C2039 C 0.2239 0.77406 0.47688 0.0
C2040 C 0.21467 0.77144 0.4882 0.0
C2041 C 0.20189 0.76161 0.48613 0.0
C2042 C 0.19849 0.75455 0.47318 0.0
H2043 H 0.17314 0.76356 0.43535 0.0
H2044 H 0.17339 0.75555 0.45241 0.0
H2045 H 0.18633 0.77083 0.4491 0.0
H2046 H 0.22779 0.76921 0.45541 0.0
H2047 H 0.23375 0.78163 0.47799 0.0
H2048 H 0.82694 0.6965 0.39215 0.0
H2049 H 0.81364 0.70805 0.40969 0.0
H2050 H 0.8118 0.67062 0.43523 0.0
H2051 H 0.82541 0.65923 0.41805 0.0
H2052 H 0.78564 0.69832 0.41727 0.0
H2053 H 0.82434 0.70179 0.46425 0.0
H2054 H 0.82999 0.69855 0.44675 0.0
H2055 H 0.82104 0.68427 0.45675 0.0
C2056 C 0.82402 0.6909 0.40169 0.0
C2057 C 0.82716 0.67695 0.40372 0.0
C2058 C 0.81636 0.69746 0.41164 0.0
C2059 C 0.81187 0.69024 0.42382 0.0
C2060 C 0.81539 0.67649 0.42605 0.0
H2061 H 0.7531 0.69731 0.49008 0.0
H2062 H 0.76961 0.68996 0.47284 0.0
C2063 C 0.82303 0.66994 0.41614 0.0
C2064 C 0.80242 0.6965 0.43365 0.0
H2065 H 0.79916 0.70396 0.46842 0.0
C2066 C 0.78867 0.69976 0.42842 0.0
C2067 C 0.8064 0.69831 0.44819 0.0
C2068 C 0.82131 0.69568 0.4543 0.0
C2069 C 0.77855 0.70428 0.43745 0.0
C2070 C 0.78237 0.70568 0.45203 0.0
C2071 C 0.79624 0.70274 0.45723 0.0
C2072 C 0.77205 0.71004 0.46212 0.0
C2073 C 0.76366 0.70706 0.43141 0.0
C2074 C 0.76799 0.72374 0.46175 0.0
C2075 C 0.75854 0.72794 0.47154 0.0
C2076 C 0.75301 0.71851 0.4819 0.0
C2077 C 0.75701 0.70474 0.48214 0.0
C2078 C 0.76652 0.70057 0.47238 0.0
H2079 H 0.76136 0.70278 0.4205 0.0
H2080 H 0.75482 0.70228 0.4381 0.0
H2081 H 0.76325 0.71865 0.43115 0.0
H2082 H 0.77226 0.73124 0.45399 0.0
H2083 H 0.75555 0.73856 0.47099 0.0
H2084 H 0.85259 0.3389 0.42096 0.0
H2085 H 0.84375 0.32954 0.44323 0.0
H2086 H 0.80002 0.33832 0.43071 0.0
H2087 H 0.80859 0.34702 0.40807 0.0
H2088 H 0.83224 0.34192 0.4642 0.0
H2089 H 0.79133 0.29806 0.44333 0.0
H2090 H 0.80465 0.3076 0.43244 0.0
H2091 H 0.78801 0.31478 0.43608 0.0
C2092 C 0.84102 0.33861 0.42278 0.0
C2093 C 0.83131 0.34362 0.41255 0.0
C2094 C 0.836 0.33334 0.43562 0.0
C2095 C 0.82114 0.33293 0.43861 0.0
C2096 C 0.81145 0.33816 0.42855 0.0
H2097 H 0.78217 0.3325 0.51813 0.0
H2098 H 0.79538 0.33765 0.49691 0.0
C2099 C 0.81644 0.34335 0.41566 0.0
C2100 C 0.81593 0.32756 0.45244 0.0
H2101 H 0.78959 0.30469 0.4675 0.0
C2102 C 0.82301 0.33368 0.46489 0.0
C2103 C 0.80409 0.31656 0.45346 0.0
C2104 C 0.79669 0.30876 0.44061 0.0
C2105 C 0.81819 0.32956 0.47823 0.0
C2106 C 0.80573 0.31925 0.47921 0.0
C2107 C 0.79905 0.31268 0.4668 0.0
C2108 C 0.79878 0.31596 0.49284 0.0
C2109 C 0.82654 0.33634 0.49116 0.0
C2110 C 0.7961 0.30197 0.4977 0.0
C2111 C 0.78839 0.29893 0.50993 0.0
C2112 C 0.78307 0.30983 0.51742 0.0
C2113 C 0.78613 0.32383 0.51269 0.0
C2114 C 0.7938 0.32684 0.50056 0.0
H2115 H 0.83821 0.33991 0.48905 0.0
H2116 H 0.8215 0.34582 0.49425 0.0
H2117 H 0.82624 0.32894 0.50015 0.0
H2118 H 0.79974 0.29336 0.49187 0.0
H2119 H 0.78609 0.28803 0.51319 0.0
H2120 H 0.16317 0.71708 0.72635 0.0
H2121 H 0.14245 0.72603 0.73679 0.0
H2122 H 0.12491 0.73557 0.69546 0.0
H2123 H 0.1452 0.72584 0.68482 0.0
H2124 H 0.13352 0.75145 0.73691 0.0
H2125 H 0.08919 0.71364 0.7108 0.0
H2126 H 0.10836 0.71143 0.71019 0.0
H2127 H 0.10046 0.72368 0.69862 0.0
C2128 C 0.1548 0.72083 0.7194 0.0
C2129 C 0.15585 0.72049 0.70467 0.0
C2130 C 0.14299 0.7261 0.72544 0.0
C2131 C 0.13188 0.73124 0.71695 0.0
C2132 C 0.13309 0.73133 0.70226 0.0
H2133 H 0.05414 0.76973 0.73932 0.0
H2134 H 0.07473 0.76222 0.72702 0.0
C2135 C 0.14486 0.72594 0.69619 0.0
C2136 C 0.11923 0.73665 0.72358 0.0
H2137 H 0.08165 0.73229 0.72416 0.0
C2138 C 0.12219 0.74722 0.73412 0.0
C2139 C 0.10438 0.73116 0.72 0.0
C2140 C 0.10037 0.71926 0.70939 0.0
C2141 C 0.11081 0.75244 0.74108 0.0
C2142 C 0.09602 0.74694 0.73749 0.0
C2143 C 0.093 0.73653 0.72686 0.0
C2144 C 0.08358 0.75159 0.74497 0.0
C2145 C 0.11464 0.76387 0.7522 0.0
C2146 C 0.08164 0.74802 0.75912 0.0
C2147 C 0.06985 0.75223 0.76615 0.0
C2148 C 0.05977 0.76019 0.75922 0.0
C2149 C 0.06177 0.76377 0.74503 0.0
C2150 C 0.07349 0.75942 0.73796 0.0
H2151 H 0.1262 0.76893 0.75181 0.0
H2152 H 0.1072 0.77216 0.75095 0.0
H2153 H 0.1132 0.75916 0.76277 0.0
H2154 H 0.08921 0.74189 0.76471 0.0
H2155 H 0.06874 0.74939 0.77708 0.0
H2156 H 0.82902 0.68094 0.69544 0.0
H2157 H 0.82408 0.66124 0.7117 0.0
H2158 H 0.84816 0.68637 0.74527 0.0
H2159 H 0.85271 0.70624 0.72925 0.0
H2160 H 0.84469 0.6471 0.72679 0.0
H2161 H 0.80956 0.67194 0.76292 0.0
H2162 H 0.81367 0.67903 0.7458 0.0
H2163 H 0.82701 0.6822 0.76038 0.0
C2164 C 0.83305 0.68235 0.70634 0.0
C2165 C 0.84124 0.69517 0.71105 0.0
C2166 C 0.83032 0.67106 0.71558 0.0
C2167 C 0.83561 0.67241 0.72972 0.0
C2168 C 0.84376 0.68518 0.73446 0.0
H2169 H 0.82983 0.61391 0.80027 0.0
H2170 H 0.83675 0.63404 0.78494 0.0
C2171 C 0.8465 0.69647 0.72524 0.0
C2172 C 0.83299 0.66031 0.73939 0.0
H2173 H 0.81688 0.64988 0.76982 0.0
C2174 C 0.83858 0.64768 0.73618 0.0
C2175 C 0.82509 0.66114 0.75168 0.0
C2176 C 0.81836 0.67425 0.75538 0.0
C2177 C 0.83654 0.63588 0.74497 0.0
C2178 C 0.82853 0.63668 0.75718 0.0
C2179 C 0.82308 0.64934 0.76048 0.0
C2180 C 0.82505 0.62427 0.7663 0.0
C2181 C 0.84311 0.6227 0.7412 0.0
C2182 C 0.81619 0.61216 0.76088 0.0
C2183 C 0.81227 0.60069 0.76957 0.0
C2184 C 0.81707 0.60111 0.78389 0.0
C2185 C 0.8261 0.6132 0.78927 0.0
C2186 C 0.82998 0.62473 0.78055 0.0
H2187 H 0.85215 0.62504 0.73391 0.0
H2188 H 0.84745 0.61765 0.75078 0.0
H2189 H 0.83446 0.61498 0.73587 0.0
H2190 H 0.81209 0.61167 0.74997 0.0
H2191 H 0.80545 0.59148 0.76506 0.0
H2192 H 0.86993 0.35293 0.72279 0.0
H2193 H 0.89119 0.34362 0.73421 0.0
H2194 H 0.91191 0.38619 0.74307 0.0
H2195 H 0.89082 0.39561 0.73154 0.0
H2196 H 0.92111 0.34809 0.728 0.0
H2197 H 0.91323 0.36754 0.78183 0.0
H2198 H 0.89907 0.36681 0.76781 0.0
H2199 H 0.91402 0.38101 0.76864 0.0
C2200 C 0.87905 0.36034 0.72705 0.0
C2201 C 0.87857 0.37505 0.72628 0.0
C2202 C 0.89118 0.35498 0.73365 0.0
C2203 C 0.90305 0.36419 0.73972 0.0
C2204 C 0.90273 0.37886 0.73877 0.0
H2205 H 0.98607 0.35477 0.78474 0.0
H2206 H 0.96468 0.36327 0.77279 0.0
C2207 C 0.89064 0.38423 0.73216 0.0
C2208 C 0.91586 0.35847 0.74689 0.0
H2209 H 0.93549 0.35808 0.77846 0.0
C2210 C 0.92422 0.3502 0.73905 0.0
C2211 C 0.91992 0.36123 0.76131 0.0
C2212 C 0.91103 0.36952 0.77045 0.0
C2213 C 0.93672 0.34492 0.74514 0.0
C2214 C 0.94082 0.34774 0.75956 0.0
C2215 C 0.93239 0.35594 0.76741 0.0
C2216 C 0.95389 0.34242 0.76671 0.0
C2217 C 0.94565 0.33673 0.73596 0.0
C2218 C 0.95493 0.32784 0.76744 0.0
C2219 C 0.96717 0.32293 0.77431 0.0
C2220 C 0.97861 0.33248 0.78073 0.0
C2221 C 0.97745 0.34708 0.78007 0.0
C2222 C 0.96523 0.35197 0.77317 0.0
H2223 H 0.94346 0.33877 0.7246 0.0
H2224 H 0.95761 0.33946 0.73861 0.0
H2225 H 0.94268 0.32522 0.73769 0.0
H2226 H 0.94617 0.32022 0.76286 0.0
H2227 H 0.96752 0.31163 0.7748 0.0
H2228 H 0.18624 0.38171 0.7361 0.0
H2229 H 0.1951 0.40351 0.74938 0.0
H2230 H 0.20107 0.42605 0.71047 0.0
H2231 H 0.19184 0.40441 0.69712 0.0
H2232 H 0.22241 0.41937 0.74836 0.0
H2233 H 0.17827 0.45185 0.7331 0.0
H2234 H 0.17619 0.43287 0.73054 0.0
H2235 H 0.18594 0.44434 0.71826 0.0
C2236 C 0.18924 0.39136 0.73037 0.0
C2237 C 0.18831 0.39135 0.71555 0.0
C2238 C 0.19434 0.40378 0.73798 0.0
C2239 C 0.19849 0.41644 0.73091 0.0
C2240 C 0.19762 0.41646 0.71613 0.0
H2241 H 0.25869 0.48908 0.7522 0.0
H2242 H 0.24454 0.46706 0.74357 0.0
C2243 C 0.19255 0.40405 0.70851 0.0
C2244 C 0.20461 0.42943 0.73894 0.0
H2245 H 0.20079 0.46439 0.74326 0.0
C2246 C 0.21757 0.42916 0.7474 0.0
C2247 C 0.19816 0.44214 0.73784 0.0
C2248 C 0.18379 0.44282 0.72956 0.0
C2249 C 0.22467 0.44145 0.75421 0.0
C2250 C 0.21873 0.45435 0.75238 0.0
C2251 C 0.20537 0.45449 0.74453 0.0
C2252 C 0.22689 0.46793 0.75759 0.0
C2253 C 0.23865 0.44062 0.76311 0.0
C2254 C 0.22143 0.47591 0.7681 0.0
C2255 C 0.22953 0.48859 0.77312 0.0
C2256 C 0.24312 0.4935 0.76755 0.0
C2257 C 0.24831 0.4856 0.75678 0.0
C2258 C 0.24027 0.47296 0.75185 0.0
H2259 H 0.23957 0.42961 0.76653 0.0
H2260 H 0.24824 0.44421 0.75683 0.0
H2261 H 0.23921 0.44758 0.77259 0.0
H2262 H 0.21104 0.4722 0.77257 0.0
H2263 H 0.22523 0.49447 0.78139 0.0
H2264 H 0.15458 0.33384 0.34543 0.0
H2265 H 0.132 0.32562 0.33151 0.0
H2266 H 0.11876 0.36743 0.33358 0.0
H2267 H 0.14126 0.37567 0.34797 0.0
H2268 H 0.09726 0.34722 0.34101 0.0
H2269 H 0.1184 0.33101 0.29104 0.0
H2270 H 0.12758 0.32338 0.30567 0.0
H2271 H 0.12961 0.34235 0.30381 0.0
C2272 C 0.1469 0.34132 0.34288 0.0
C2273 C 0.14964 0.35537 0.34789 0.0
C2274 C 0.1341 0.33666 0.33473 0.0
C2275 C 0.12381 0.34597 0.33127 0.0
C2276 C 0.12664 0.36011 0.33599 0.0
H2277 H 0.04544 0.3023 0.28371 0.0
H2278 H 0.06542 0.32148 0.28972 0.0
C2279 C 0.1395 0.36481 0.34417 0.0
C2280 C 0.10951 0.34039 0.32407 0.0
H2281 H 0.0947 0.31844 0.29706 0.0
C2282 C 0.09665 0.34123 0.3312 0.0
C2283 C 0.1086 0.33282 0.31114 0.0
C2284 C 0.12179 0.33248 0.30241 0.0
C2285 C 0.08318 0.33365 0.32639 0.0
C2286 C 0.08264 0.32484 0.31431 0.0
C2287 C 0.09518 0.32502 0.30647 0.0
C2288 C 0.06989 0.31401 0.31077 0.0
C2289 C 0.06976 0.33471 0.33463 0.0
C2290 C 0.06592 0.30344 0.32056 0.0
C2291 C 0.05466 0.29252 0.31717 0.0
C2292 C 0.04713 0.29188 0.30387 0.0
C2293 C 0.05101 0.30255 0.29407 0.0
C2294 C 0.06239 0.31349 0.29747 0.0
H2295 H 0.07055 0.34512 0.34016 0.0
H2296 H 0.05954 0.33326 0.32768 0.0
H2297 H 0.06893 0.32635 0.34274 0.0
H2298 H 0.0718 0.30343 0.33076 0.0
H2299 H 0.05199 0.28448 0.32497 0.0
H2300 H 0.18365 0.66031 0.31273 0.0
H2301 H 0.19178 0.6378 0.30574 0.0
H2302 H 0.21685 0.63702 0.34537 0.0
H2303 H 0.20859 0.65942 0.35241 0.0
H2304 H 0.22008 0.6326 0.30222 0.0
H2305 H 0.19561 0.59696 0.3428 0.0
H2306 H 0.19 0.6142 0.33948 0.0
H2307 H 0.20635 0.61252 0.35035 0.0
C2308 C 0.19074 0.6552 0.32001 0.0
C2309 C 0.19555 0.66161 0.3331 0.0
C2310 C 0.1954 0.64237 0.316 0.0
C2311 C 0.20483 0.63559 0.32506 0.0
C2312 C 0.20936 0.64185 0.33828 0.0
H2313 H 0.26203 0.57309 0.32691 0.0
H2314 H 0.24616 0.59123 0.33017 0.0
C2315 C 0.2047 0.65468 0.34229 0.0
C2316 C 0.21067 0.62247 0.32042 0.0
H2317 H 0.21526 0.58885 0.33057 0.0
C2318 C 0.21882 0.62294 0.30828 0.0
C2319 C 0.20895 0.60981 0.32824 0.0
C2320 C 0.19962 0.60826 0.34085 0.0
C2321 C 0.22599 0.61143 0.30426 0.0
C2322 C 0.22484 0.59903 0.31248 0.0
C2323 C 0.21616 0.59834 0.32425 0.0
C2324 C 0.23396 0.58741 0.31014 0.0
C2325 C 0.23541 0.61291 0.2917 0.0
C2326 C 0.23232 0.57898 0.29779 0.0
C2327 C 0.24149 0.56841 0.29584 0.0
C2328 C 0.25247 0.56618 0.30621 0.0
C2329 C 0.25381 0.57451 0.31861 0.0
C2330 C 0.24467 0.58492 0.32056 0.0
H2331 H 0.23686 0.62392 0.28769 0.0
H2332 H 0.24642 0.60972 0.29445 0.0
H2333 H 0.23015 0.6058 0.28307 0.0
H2334 H 0.22398 0.58058 0.28966 0.0
H2335 H 0.24014 0.56217 0.28619 0.0
H2336 H 0.88932 0.7007 0.3766 0.0
H2337 H 0.90605 0.71566 0.36195 0.0
H2338 H 0.90439 0.6814 0.33177 0.0
H2339 H 0.88753 0.66647 0.34637 0.0
H2340 H 0.93392 0.70971 0.35389 0.0
H2341 H 0.89578 0.71538 0.30738 0.0
H2342 H 0.88937 0.70943 0.32423 0.0
H2343 H 0.8971 0.69754 0.31289 0.0
C2344 C 0.89255 0.69641 0.36683 0.0
C2345 C 0.8874 0.6824 0.36269 0.0
C2346 C 0.90206 0.70493 0.35848 0.0
C2347 C 0.90638 0.69966 0.34574 0.0
C2348 C 0.90104 0.68573 0.34147 0.0
H2349 H 0.96733 0.74048 0.2857 0.0
H2350 H 0.94997 0.72323 0.29747 0.0
C2351 C 0.89154 0.67719 0.34984 0.0
C2352 C 0.91692 0.70863 0.33727 0.0
H2353 H 0.92053 0.72549 0.30578 0.0
C2354 C 0.931 0.71315 0.34337 0.0
C2355 C 0.9131 0.71298 0.3235 0.0
C2356 C 0.89799 0.7087 0.3166 0.0
C2357 C 0.94136 0.72201 0.33611 0.0
C2358 C 0.93744 0.72668 0.32249 0.0
C2359 C 0.92348 0.72189 0.31623 0.0
C2360 C 0.94743 0.73717 0.31498 0.0
C2361 C 0.95646 0.72629 0.34308 0.0
C2362 C 0.95143 0.75077 0.32076 0.0
C2363 C 0.96128 0.76059 0.31411 0.0
C2364 C 0.96729 0.75704 0.30147 0.0
C2365 C 0.96294 0.74352 0.29545 0.0
C2366 C 0.95303 0.73366 0.30215 0.0
H2367 H 0.95905 0.71885 0.35154 0.0
H2368 H 0.96508 0.72673 0.33528 0.0
H2369 H 0.95688 0.73698 0.34791 0.0
H2370 H 0.94699 0.75377 0.33051 0.0
H2371 H 0.96428 0.77094 0.31899 0.0
H2372 H 0.85215 0.38843 0.36672 0.0
H2373 H 0.8427 0.40818 0.35445 0.0
H2374 H 0.79844 0.3909 0.36324 0.0
H2375 H 0.80786 0.37119 0.37571 0.0
H2376 H 0.82468 0.4081 0.3313 0.0
H2377 H 0.79859 0.43137 0.37559 0.0
H2378 H 0.81088 0.41814 0.3782 0.0
H2379 H 0.79195 0.41302 0.37241 0.0
C2380 C 0.8404 0.38884 0.36608 0.0
C2381 C 0.83078 0.37821 0.37225 0.0
C2382 C 0.83501 0.40018 0.35908 0.0
C2383 C 0.81985 0.40121 0.35806 0.0
C2384 C 0.8102 0.3906 0.36418 0.0
H2385 H 0.76693 0.45863 0.31349 0.0
H2386 H 0.77575 0.43899 0.32641 0.0
C2387 C 0.81561 0.37929 0.37129 0.0
C2388 C 0.8142 0.41308 0.35011 0.0
H2389 H 0.79348 0.44034 0.35279 0.0
C2390 C 0.81792 0.41518 0.33605 0.0
C2391 C 0.80535 0.42236 0.35624 0.0
C2392 C 0.80156 0.42122 0.37148 0.0
C2393 C 0.81293 0.42613 0.32796 0.0
C2394 C 0.80405 0.43535 0.33408 0.0
C2395 C 0.80025 0.43323 0.34809 0.0
C2396 C 0.79875 0.44734 0.32615 0.0
C2397 C 0.817 0.42762 0.31283 0.0
C2398 C 0.80873 0.45868 0.32178 0.0
C2399 C 0.80373 0.47005 0.31449 0.0
C2400 C 0.78858 0.47039 0.31137 0.0
C2401 C 0.77863 0.45894 0.31578 0.0
C2402 C 0.78366 0.44762 0.32314 0.0
H2403 H 0.82099 0.4179 0.30878 0.0
H2404 H 0.80744 0.42994 0.30596 0.0
H2405 H 0.82591 0.43657 0.31204 0.0
H2406 H 0.82042 0.45882 0.32419 0.0
H2407 H 0.81178 0.47868 0.31155 0.0
H2408 H 0.18476 0.66227 0.72848 0.0
H2409 H 0.19883 0.64457 0.73954 0.0
H2410 H 0.22023 0.64006 0.70077 0.0
H2411 H 0.20639 0.65791 0.68983 0.0
H2412 H 0.19815 0.6168 0.73155 0.0
H2413 H 0.25494 0.64428 0.72933 0.0
H2414 H 0.23893 0.65334 0.72652 0.0
H2415 H 0.2449 0.64299 0.71255 0.0
C2416 C 0.19259 0.65757 0.72241 0.0
C2417 C 0.19441 0.66133 0.70829 0.0
C2418 C 0.2006 0.64747 0.72871 0.0
C2419 C 0.21071 0.64106 0.72105 0.0
C2420 C 0.21273 0.64503 0.707 0.0
H2421 H 0.26214 0.57135 0.73551 0.0
H2422 H 0.25012 0.59099 0.72588 0.0
C2423 C 0.20474 0.65516 0.70072 0.0
C2424 C 0.21849 0.62966 0.72749 0.0
H2425 H 0.25256 0.61975 0.735 0.0
C2426 C 0.21005 0.61751 0.73241 0.0
C2427 C 0.23403 0.63053 0.72856 0.0
C2428 C 0.24375 0.64354 0.72409 0.0
C2429 C 0.21668 0.60611 0.73808 0.0
C2430 C 0.2322 0.60695 0.73908 0.0
C2431 C 0.24067 0.6191 0.73421 0.0
C2432 C 0.23984 0.59528 0.74511 0.0
C2433 C 0.20699 0.59312 0.74265 0.0
C2434 C 0.23829 0.59132 0.7592 0.0
C2435 C 0.24521 0.58013 0.76477 0.0
C2436 C 0.2539 0.57266 0.75638 0.0
C2437 C 0.25566 0.57687 0.74233 0.0
C2438 C 0.24873 0.58808 0.73678 0.0
H2439 H 0.19555 0.5927 0.73805 0.0
H2440 H 0.21144 0.58331 0.73954 0.0
H2441 H 0.20657 0.59329 0.75429 0.0
H2442 H 0.23176 0.59692 0.76593 0.0
H2443 H 0.24384 0.57745 0.7757 0.0
H2444 H 0.21415 0.38178 0.36441 0.0
H2445 H 0.2296 0.40417 0.36038 0.0
H2446 H 0.19086 0.4253 0.35504 0.0
H2447 H 0.17534 0.40301 0.3593 0.0
H2448 H 0.22827 0.42073 0.33577 0.0
H2449 H 0.21804 0.45086 0.38364 0.0
H2450 H 0.21413 0.4318 0.38227 0.0
H2451 H 0.2017 0.44279 0.374 0.0
C2452 C 0.20894 0.39124 0.36258 0.0
C2453 C 0.19353 0.39065 0.36222 0.0
C2454 C 0.21777 0.40399 0.36023 0.0
C2455 C 0.21137 0.4164 0.35761 0.0
C2456 C 0.19601 0.41588 0.35728 0.0
H2457 H 0.24236 0.49299 0.31632 0.0
H2458 H 0.22971 0.47066 0.32433 0.0
C2459 C 0.18716 0.40312 0.35957 0.0
C2460 C 0.2207 0.42973 0.35444 0.0
H2461 H 0.23007 0.46409 0.36538 0.0
C2462 C 0.22877 0.43018 0.3423 0.0
C2463 C 0.22144 0.44197 0.36308 0.0
C2464 C 0.21348 0.44187 0.37655 0.0
C2465 C 0.23717 0.44271 0.33829 0.0
C2466 C 0.2374 0.45511 0.3466 0.0
C2467 C 0.22976 0.45456 0.35901 0.0
C2468 C 0.24499 0.46886 0.34215 0.0
C2469 C 0.24565 0.44267 0.32514 0.0
C2470 C 0.2576 0.47538 0.34972 0.0
C2471 C 0.26499 0.48815 0.34509 0.0
C2472 C 0.25982 0.49463 0.33285 0.0
C2473 C 0.2469 0.48818 0.32557 0.0
C2474 C 0.23959 0.47543 0.33016 0.0
H2475 H 0.24702 0.43174 0.32175 0.0
H2476 H 0.2396 0.44762 0.31646 0.0
H2477 H 0.25668 0.44891 0.32681 0.0
H2478 H 0.26187 0.47045 0.35905 0.0
H2479 H 0.27492 0.49275 0.35091 0.0
H2480 H 0.13301 0.69067 0.33808 0.0
H2481 H 0.1119 0.70126 0.32782 0.0
H2482 H 0.13527 0.74298 0.33602 0.0
H2483 H 0.15648 0.73254 0.34574 0.0
H2484 H 0.09519 0.71849 0.34099 0.0
H2485 H 0.1202 0.74683 0.29583 0.0
H2486 H 0.12889 0.73348 0.30533 0.0
H2487 H 0.13059 0.75136 0.3121 0.0
C2488 C 0.13376 0.70209 0.33741 0.0
C2489 C 0.14644 0.71074 0.34278 0.0
C2490 C 0.12165 0.70813 0.33163 0.0
C2491 C 0.12204 0.72293 0.33098 0.0
C2492 C 0.13478 0.73155 0.33612 0.0
H2493 H 0.06182 0.78434 0.31466 0.0
H2494 H 0.08246 0.77135 0.32133 0.0
C2495 C 0.14685 0.72554 0.34185 0.0
C2496 C 0.10887 0.72945 0.32578 0.0
H2497 H 0.0976 0.75408 0.30298 0.0
C2498 C 0.09566 0.72613 0.33255 0.0
C2499 C 0.10947 0.73944 0.31477 0.0
C2500 C 0.12301 0.74288 0.30649 0.0
C2501 C 0.08324 0.73289 0.32897 0.0
C2502 C 0.08399 0.74316 0.31825 0.0
C2503 C 0.09708 0.74628 0.31128 0.0
C2504 C 0.07136 0.75093 0.31425 0.0
C2505 C 0.06954 0.72935 0.337 0.0
C2506 C 0.05829 0.74378 0.30795 0.0
C2507 C 0.04647 0.75118 0.30413 0.0
C2508 C 0.04745 0.76589 0.30653 0.0
C2509 C 0.0606 0.77301 0.31282 0.0
C2510 C 0.07245 0.76561 0.31656 0.0
H2511 H 0.07169 0.7234 0.34676 0.0
H2512 H 0.06493 0.73914 0.33988 0.0
H2513 H 0.0611 0.7227 0.33023 0.0
H2514 H 0.05727 0.73248 0.30592 0.0
H2515 H 0.0365 0.74533 0.29943 0.0
H2516 H 0.82355 0.62665 0.39603 0.0
H2517 H 0.81048 0.60324 0.3898 0.0
H2518 H 0.81467 0.61235 0.34573 0.0
H2519 H 0.82746 0.63592 0.35181 0.0
H2520 H 0.78354 0.59802 0.37217 0.0
H2521 H 0.82956 0.57301 0.35135 0.0
H2522 H 0.83248 0.58855 0.36265 0.0
H2523 H 0.82737 0.59013 0.34427 0.0
C2524 C 0.82168 0.62369 0.385 0.0
C2525 C 0.8265 0.63318 0.3744 0.0
C2526 C 0.81427 0.6103 0.38148 0.0
C2527 C 0.81172 0.60608 0.36733 0.0
C2528 C 0.81674 0.61537 0.35673 0.0
H2529 H 0.75133 0.54529 0.32174 0.0
H2530 H 0.7634 0.56601 0.33493 0.0
C2531 C 0.8241 0.62881 0.36022 0.0
C2532 C 0.80321 0.5922 0.3636 0.0
H2533 H 0.80542 0.56095 0.34665 0.0
C2534 C 0.78833 0.58984 0.36672 0.0
C2535 C 0.80958 0.58152 0.35667 0.0
C2536 C 0.82566 0.58332 0.35363 0.0
C2537 C 0.77947 0.57724 0.36253 0.0
C2538 C 0.78566 0.56684 0.355 0.0
C2539 C 0.80069 0.56898 0.3524 0.0
C2540 C 0.77663 0.55412 0.34878 0.0
C2541 C 0.76352 0.5752 0.36607 0.0
C2542 C 0.77988 0.54055 0.35238 0.0
C2543 C 0.77298 0.52865 0.34486 0.0
C2544 C 0.76288 0.53019 0.33348 0.0
C2545 C 0.75906 0.54374 0.33043 0.0
C2546 C 0.76591 0.5556 0.33801 0.0
H2547 H 0.76154 0.58207 0.37508 0.0
H2548 H 0.75666 0.57805 0.35681 0.0
H2549 H 0.75988 0.56399 0.36868 0.0
H2550 H 0.78818 0.53922 0.36064 0.0
H2551 H 0.77619 0.51837 0.34746 0.0
H2552 H 0.87836 0.34014 0.34315 0.0
H2553 H 0.89972 0.3298 0.3351 0.0
H2554 H 0.8932 0.2971 0.36618 0.0
H2555 H 0.8718 0.30735 0.37415 0.0
H2556 H 0.92601 0.32411 0.34975 0.0
H2557 H 0.89299 0.27467 0.32903 0.0
H2558 H 0.88478 0.29025 0.33347 0.0
H2559 H 0.89032 0.27872 0.34711 0.0
C2560 C 0.88154 0.33075 0.34825 0.0
C2561 C 0.87329 0.32435 0.35905 0.0
C2562 C 0.89373 0.32487 0.34367 0.0
C2563 C 0.89787 0.31249 0.34983 0.0
C2564 C 0.89 0.30645 0.36105 0.0
H2565 H 0.96418 0.25762 0.33443 0.0
H2566 H 0.9441 0.26909 0.34322 0.0
C2567 C 0.87783 0.31234 0.36563 0.0
C2568 C 0.91032 0.30583 0.34444 0.0
H2569 H 0.91889 0.27553 0.32923 0.0
C2570 C 0.92446 0.31351 0.34521 0.0
C2571 C 0.90829 0.29199 0.33851 0.0
C2572 C 0.89327 0.28344 0.33684 0.0
C2573 C 0.93666 0.30762 0.34051 0.0
C2574 C 0.93463 0.29377 0.33459 0.0
C2575 C 0.92047 0.28612 0.33378 0.0
C2576 C 0.94702 0.28696 0.32924 0.0
C2577 C 0.95168 0.31616 0.34225 0.0
C2578 C 0.95527 0.29306 0.3183 0.0
C2579 C 0.96688 0.28656 0.3133 0.0
C2580 C 0.97045 0.27374 0.31906 0.0
C2581 C 0.96197 0.26757 0.32987 0.0
C2582 C 0.95039 0.27408 0.33487 0.0
H2583 H 0.95198 0.32472 0.35029 0.0
H2584 H 0.96021 0.30931 0.34535 0.0
H2585 H 0.95452 0.32117 0.33208 0.0
H2586 H 0.9527 0.30283 0.31357 0.0
H2587 H 0.97315 0.29172 0.30505 0.0
H2588 H 0.84829 0.43324 0.74444 0.0
H2589 H 0.83916 0.45577 0.74971 0.0
H2590 H 0.79524 0.43764 0.73589 0.0
H2591 H 0.80431 0.41513 0.73065 0.0
H2592 H 0.82309 0.47362 0.73153 0.0
H2593 H 0.79109 0.45227 0.77652 0.0
H2594 H 0.8052 0.44324 0.76931 0.0
H2595 H 0.78755 0.4427 0.76008 0.0
C2596 C 0.83672 0.43415 0.74244 0.0
C2597 C 0.82701 0.42247 0.73716 0.0
C2598 C 0.83151 0.44698 0.74544 0.0
C2599 C 0.81649 0.44833 0.74335 0.0
C2600 C 0.80683 0.43678 0.73778 0.0
H2601 H 0.77273 0.51967 0.77286 0.0
H2602 H 0.77646 0.49797 0.76005 0.0
C2603 C 0.81204 0.42396 0.73473 0.0
C2604 C 0.81097 0.46177 0.74728 0.0
H2605 H 0.79057 0.47629 0.77121 0.0
C2606 C 0.81589 0.47419 0.74014 0.0
C2607 C 0.80144 0.46248 0.75841 0.0
C2608 C 0.79605 0.44951 0.76663 0.0
C2609 C 0.8118 0.48735 0.74401 0.0
C2610 C 0.8028 0.48818 0.75556 0.0
C2611 C 0.79742 0.47567 0.76234 0.0
C2612 C 0.80024 0.502 0.76177 0.0
C2613 C 0.81724 0.50027 0.73574 0.0
C2614 C 0.81232 0.51151 0.76689 0.0
C2615 C 0.81022 0.52381 0.77414 0.0
C2616 C 0.79598 0.52691 0.77656 0.0
C2617 C 0.78383 0.51765 0.77104 0.0
C2618 C 0.78595 0.50522 0.76379 0.0
H2619 H 0.81927 0.49737 0.72475 0.0
H2620 H 0.80926 0.50812 0.73548 0.0
H2621 H 0.82781 0.50535 0.74076 0.0
H2622 H 0.82344 0.50915 0.76578 0.0
H2623 H 0.81984 0.53068 0.77826 0.0
H2624 H 0.15927 0.34864 0.73089 0.0
H2625 H 0.13655 0.33595 0.73897 0.0
H2626 H 0.11874 0.33111 0.69604 0.0
H2627 H 0.14137 0.34427 0.68788 0.0
H2628 H 0.10024 0.34196 0.71287 0.0
H2629 H 0.11874 0.29495 0.7384 0.0
H2630 H 0.12992 0.31077 0.74473 0.0
H2631 H 0.12988 0.30572 0.72642 0.0
C2632 C 0.15057 0.34477 0.72314 0.0
C2633 C 0.15207 0.34755 0.70875 0.0
C2634 C 0.13766 0.33733 0.72776 0.0
C2635 C 0.12603 0.33236 0.71809 0.0
C2636 C 0.12764 0.33472 0.70366 0.0
H2637 H 0.04756 0.29153 0.75884 0.0
H2638 H 0.06657 0.29488 0.74151 0.0
C2639 C 0.14059 0.34219 0.69902 0.0
C2640 C 0.1117 0.32622 0.72333 0.0
H2641 H 0.09671 0.30288 0.74731 0.0
C2642 C 0.09937 0.33319 0.72014 0.0
C2643 C 0.11045 0.3146 0.7326 0.0
C2644 C 0.12294 0.30599 0.7356 0.0
C2645 C 0.08621 0.32961 0.72687 0.0
C2646 C 0.08548 0.31897 0.73721 0.0
C2647 C 0.09737 0.3112 0.73954 0.0
C2648 C 0.07328 0.31697 0.74686 0.0
C2649 C 0.07338 0.33761 0.7232 0.0
C2650 C 0.07087 0.32823 0.75565 0.0
C2651 C 0.06014 0.32635 0.76552 0.0
C2652 C 0.05161 0.31314 0.76688 0.0
C2653 C 0.05391 0.30186 0.75798 0.0
C2654 C 0.06475 0.30375 0.7481 0.0
H2655 H 0.07376 0.34162 0.71225 0.0
H2656 H 0.06273 0.33086 0.72432 0.0
H2657 H 0.0739 0.3469 0.73041 0.0
H2658 H 0.07756 0.33842 0.7551 0.0
H2659 H 0.05869 0.33525 0.77222 0.0
H2660 H 0.86911 0.75495 0.69187 0.0
H2661 H 0.89352 0.76855 0.69588 0.0
H2662 H 0.91279 0.72961 0.69959 0.0
H2663 H 0.88859 0.71602 0.69517 0.0
H2664 H 0.91016 0.76745 0.72004 0.0
H2665 H 0.94189 0.75274 0.67582 0.0
H2666 H 0.92203 0.74975 0.67529 0.0
H2667 H 0.93273 0.73728 0.68379 0.0
C2668 C 0.87861 0.74931 0.69316 0.0
C2669 C 0.87694 0.73441 0.69329 0.0
C2670 C 0.89253 0.75709 0.69548 0.0
C2671 C 0.905 0.7501 0.69782 0.0
C2672 C 0.90339 0.73524 0.69747 0.0
H2673 H 0.98511 0.75309 0.74153 0.0
H2674 H 0.9633 0.7494 0.72551 0.0
C2675 C 0.88951 0.72747 0.69516 0.0
C2676 C 0.91939 0.75809 0.70246 0.0
H2677 H 0.95615 0.75983 0.69768 0.0
C2678 C 0.9202 0.76615 0.71495 0.0
C2679 C 0.93246 0.75642 0.69576 0.0
C2680 C 0.93222 0.74869 0.68184 0.0
C2681 C 0.9338 0.77154 0.72157 0.0
C2682 C 0.9469 0.76895 0.7154 0.0
C2683 C 0.94607 0.76175 0.7024 0.0
C2684 C 0.9613 0.77169 0.72332 0.0
C2685 C 0.93408 0.77904 0.73563 0.0
C2686 C 0.96766 0.7855 0.72704 0.0
C2687 C 0.98018 0.78766 0.73626 0.0
C2688 C 0.98644 0.77602 0.74189 0.0
C2689 C 0.98047 0.76227 0.73749 0.0
C2690 C 0.96805 0.76014 0.72827 0.0
H2691 H 0.92294 0.77866 0.73975 0.0
H2692 H 0.94126 0.77422 0.74351 0.0
H2693 H 0.93866 0.79032 0.73453 0.0
H2694 H 0.96266 0.79455 0.72319 0.0
H2695 H 0.98457 0.79838 0.73942 0.0
H2696 H 0.67358 0.21598 0.6639 0.0
H2697 H 0.68519 0.22559 0.64277 0.0
H2698 H 0.728 0.22328 0.663 0.0
H2699 H 0.71647 0.21347 0.684 0.0
H2700 H 0.70343 0.24921 0.63839 0.0
H2701 H 0.73214 0.20316 0.62654 0.0
H2702 H 0.71831 0.20246 0.63938 0.0
H2703 H 0.73693 0.21016 0.64396 0.0
C2704 C 0.68547 0.21756 0.66386 0.0
C2705 C 0.69408 0.21383 0.67561 0.0
C2706 C 0.69211 0.22301 0.65174 0.0
C2707 C 0.7075 0.22486 0.6511 0.0
C2708 C 0.71612 0.22152 0.66299 0.0
H2709 H 0.76939 0.26582 0.59384 0.0
H2710 H 0.75711 0.2533 0.61323 0.0
C2711 C 0.7095 0.21598 0.67505 0.0
C2712 C 0.71455 0.23062 0.63817 0.0
H2713 H 0.73937 0.22437 0.61397 0.0
C2714 C 0.71117 0.24369 0.63299 0.0
C2715 C 0.72466 0.22344 0.63103 0.0
C2716 C 0.72812 0.20896 0.63542 0.0
C2717 C 0.71787 0.24992 0.62117 0.0
C2718 C 0.72819 0.24288 0.61426 0.0
C2719 C 0.73149 0.22977 0.61931 0.0
C2720 C 0.73588 0.2492 0.60196 0.0
C2721 C 0.71417 0.26418 0.61635 0.0
C2722 C 0.72815 0.25064 0.589 0.0
C2723 C 0.73517 0.25768 0.57782 0.0
C2724 C 0.75007 0.26352 0.57941 0.0
C2725 C 0.75792 0.26149 0.59222 0.0
C2726 C 0.75091 0.25435 0.60335 0.0
H2727 H 0.7079 0.26929 0.62417 0.0
H2728 H 0.72435 0.27136 0.61439 0.0
H2729 H 0.70738 0.26283 0.60629 0.0
H2730 H 0.71657 0.24661 0.58765 0.0
H2731 H 0.72875 0.25905 0.56814 0.0
H2732 H 0.29827 0.20552 0.66771 0.0
H2733 H 0.28715 0.20875 0.64402 0.0
H2734 H 0.30167 0.25363 0.64732 0.0
H2735 H 0.31302 0.25038 0.6708 0.0
H2736 H 0.2657 0.22533 0.63403 0.0
H2737 H 0.31948 0.24185 0.61135 0.0
H2738 H 0.31793 0.23383 0.62845 0.0
H2739 H 0.31644 0.25238 0.62637 0.0
C2740 C 0.29896 0.21606 0.66335 0.0
C2741 C 0.3064 0.22772 0.67102 0.0
C2742 C 0.29261 0.2179 0.64989 0.0
C2743 C 0.29375 0.23139 0.64387 0.0
C2744 C 0.30088 0.24309 0.65169 0.0
H2745 H 0.24955 0.2662 0.57324 0.0
H2746 H 0.25484 0.25544 0.59591 0.0
C2747 C 0.30727 0.24125 0.6651 0.0
C2748 C 0.2879 0.23325 0.62927 0.0
H2749 H 0.29817 0.24591 0.59736 0.0
C2750 C 0.27278 0.2297 0.62594 0.0
C2751 C 0.29722 0.23866 0.61868 0.0
C2752 C 0.31369 0.24176 0.62132 0.0
C2753 C 0.26665 0.23195 0.61239 0.0
C2754 C 0.27587 0.23813 0.60203 0.0
C2755 C 0.29106 0.24121 0.60528 0.0
C2756 C 0.27017 0.24223 0.58793 0.0
C2757 C 0.2504 0.22763 0.60932 0.0
C2758 C 0.27677 0.2382 0.5758 0.0
C2759 C 0.27399 0.24456 0.56291 0.0
C2760 C 0.26441 0.25494 0.56187 0.0
C2761 C 0.25683 0.25809 0.57371 0.0
C2762 C 0.25982 0.2519 0.58668 0.0
H2763 H 0.24609 0.21891 0.61629 0.0
H2764 H 0.24443 0.23681 0.61132 0.0
H2765 H 0.24796 0.22415 0.59818 0.0
H2766 H 0.28476 0.23075 0.57649 0.0
H2767 H 0.27995 0.24194 0.55393 0.0
H2768 H 0.32636 0.89367 0.66614 0.0
H2769 H 0.31343 0.88372 0.64444 0.0
H2770 H 0.31421 0.84158 0.66057 0.0
H2771 H 0.32698 0.85147 0.68245 0.0
H2772 H 0.32201 0.86359 0.62476 0.0
H2773 H 0.27002 0.84402 0.64975 0.0
H2774 H 0.28397 0.85689 0.6582 0.0
H2775 H 0.28647 0.83849 0.65788 0.0
C2776 C 0.32373 0.88228 0.66511 0.0
C2777 C 0.3276 0.87337 0.6761 0.0
C2778 C 0.31641 0.87661 0.65266 0.0
C2779 C 0.31269 0.86192 0.65095 0.0
C2780 C 0.31681 0.85296 0.66174 0.0
H2781 H 0.28154 0.81402 0.57467 0.0
H2782 H 0.29573 0.82451 0.59536 0.0
C2783 C 0.32422 0.85862 0.67419 0.0
C2784 C 0.30438 0.85605 0.63791 0.0
H2785 H 0.27141 0.83819 0.62568 0.0
C2786 C 0.31096 0.85802 0.62495 0.0
C2787 C 0.28988 0.84896 0.63816 0.0
C2788 C 0.28206 0.84702 0.6517 0.0
C2789 C 0.3035 0.85291 0.61226 0.0
C2790 C 0.28911 0.84556 0.61255 0.0
C2791 C 0.28246 0.84376 0.62548 0.0
C2792 C 0.28077 0.83963 0.59954 0.0
C2793 C 0.31098 0.85558 0.59861 0.0
C2794 C 0.26755 0.84457 0.59501 0.0
C2795 C 0.2594 0.83866 0.58304 0.0
C2796 C 0.26422 0.82755 0.57541 0.0
C2797 C 0.27754 0.8227 0.58 0.0
C2798 C 0.2857 0.82867 0.59192 0.0
H2799 H 0.32047 0.86407 0.59978 0.0
H2800 H 0.31511 0.84573 0.59516 0.0
H2801 H 0.30312 0.8586 0.59021 0.0
H2802 H 0.26352 0.85302 0.60075 0.0
H2803 H 0.24932 0.84279 0.57981 0.0
H2804 H 0.65903 0.81799 0.65211 0.0
H2805 H 0.663 0.80001 0.6346 0.0
H2806 H 0.68549 0.83258 0.60936 0.0
H2807 H 0.6819 0.85047 0.62702 0.0
H2808 H 0.65406 0.79707 0.60688 0.0
H2809 H 0.7149 0.80432 0.61271 0.0
H2810 H 0.70368 0.81172 0.62511 0.0
H2811 H 0.70763 0.82057 0.6088 0.0
C2812 C 0.66496 0.82122 0.64288 0.0
C2813 C 0.67046 0.83552 0.64102 0.0
C2814 C 0.66716 0.811 0.63288 0.0
C2815 C 0.67481 0.81492 0.62084 0.0
C2816 C 0.67993 0.82927 0.61878 0.0
H2817 H 0.67623 0.77237 0.54124 0.0
H2818 H 0.66934 0.78512 0.56172 0.0
C2819 C 0.67781 0.83948 0.62881 0.0
C2820 C 0.67725 0.80409 0.61027 0.0
H2821 H 0.70408 0.79142 0.59232 0.0
C2822 C 0.665 0.79571 0.60378 0.0
C2823 C 0.69154 0.80213 0.60645 0.0
C2824 C 0.70519 0.81006 0.61374 0.0
C2825 C 0.66664 0.7858 0.59317 0.0
C2826 C 0.68088 0.78448 0.58875 0.0
C2827 C 0.69314 0.7925 0.59562 0.0
C2828 C 0.68342 0.77531 0.5767 0.0
C2829 C 0.65311 0.77681 0.58688 0.0
C2830 C 0.69362 0.76554 0.57826 0.0
C2831 C 0.69771 0.75841 0.56653 0.0
C2832 C 0.69163 0.76085 0.55302 0.0
C2833 C 0.68089 0.7701 0.55155 0.0
C2834 C 0.67693 0.77737 0.56327 0.0
H2835 H 0.64417 0.77559 0.59438 0.0
H2836 H 0.64896 0.78205 0.57734 0.0
H2837 H 0.65556 0.76612 0.58381 0.0
H2838 H 0.69879 0.7638 0.58851 0.0
H2839 H 0.70595 0.75128 0.56793 0.0
H2840 H 0.70973 0.86298 0.40002 0.0
H2841 H 0.71697 0.85324 0.42284 0.0
H2842 H 0.69589 0.8119 0.40929 0.0
H2843 H 0.68837 0.82169 0.38665 0.0
H2844 H 0.6888 0.81903 0.43568 0.0
H2845 H 0.74932 0.82849 0.43123 0.0
H2846 H 0.74023 0.84402 0.42907 0.0
H2847 H 0.73647 0.82977 0.41638 0.0
C2848 C 0.70674 0.85181 0.40196 0.0
C2849 C 0.69862 0.84304 0.39162 0.0
C2850 C 0.71094 0.84625 0.41492 0.0
C2851 C 0.70718 0.8318 0.41766 0.0
C2852 C 0.69897 0.82306 0.40735 0.0
H2853 H 0.73941 0.77757 0.48052 0.0
H2854 H 0.73485 0.7916 0.45971 0.0
C2855 C 0.69471 0.82864 0.39443 0.0
C2856 C 0.71139 0.8258 0.43142 0.0
H2857 H 0.74086 0.81989 0.45306 0.0
C2858 C 0.70018 0.81924 0.43951 0.0
C2859 C 0.72625 0.82601 0.43631 0.0
C2860 C 0.73879 0.83233 0.42776 0.0
C2861 C 0.70341 0.81276 0.45232 0.0
C2862 C 0.71826 0.81314 0.45732 0.0
C2863 C 0.72948 0.81978 0.44927 0.0
C2864 C 0.72235 0.80581 0.47038 0.0
C2865 C 0.6909 0.80512 0.4601 0.0
C2866 C 0.71729 0.80948 0.4834 0.0
C2867 C 0.71979 0.80141 0.49533 0.0
C2868 C 0.72752 0.78963 0.49445 0.0
C2869 C 0.73335 0.78653 0.48157 0.0
C2870 C 0.73077 0.79455 0.46965 0.0
H2871 H 0.68064 0.80299 0.45326 0.0
H2872 H 0.69378 0.7949 0.46427 0.0
H2873 H 0.68862 0.81178 0.46914 0.0
H2874 H 0.71107 0.81835 0.48425 0.0
H2875 H 0.71528 0.80416 0.50512 0.0
H2876 H 0.68739 0.24673 0.38528 0.0
H2877 H 0.69535 0.25667 0.40859 0.0
H2878 H 0.69656 0.21462 0.4248 0.0
H2879 H 0.68831 0.20451 0.40149 0.0
H2880 H 0.67959 0.2505 0.43368 0.0
H2881 H 0.73679 0.2369 0.43891 0.0
H2882 H 0.72673 0.2372 0.42207 0.0
H2883 H 0.7226 0.2227 0.43379 0.0
C2884 C 0.68935 0.23956 0.39378 0.0
C2885 C 0.68709 0.22479 0.3915 0.0
C2886 C 0.69397 0.24528 0.40709 0.0
C2887 C 0.69661 0.23641 0.41842 0.0
C2888 C 0.69478 0.22168 0.41615 0.0
H2889 H 0.72355 0.25708 0.50674 0.0
H2890 H 0.71625 0.24466 0.48432 0.0
C2891 C 0.6901 0.21592 0.40281 0.0
C2892 C 0.70049 0.24264 0.43272 0.0
H2893 H 0.72809 0.24794 0.45852 0.0
C2894 C 0.69019 0.24993 0.43912 0.0
C2895 C 0.71426 0.24178 0.43985 0.0
C2896 C 0.72582 0.23432 0.43332 0.0
C2897 C 0.69329 0.25641 0.45245 0.0
C2898 C 0.70723 0.2559 0.45945 0.0
C2899 C 0.71743 0.24838 0.45315 0.0
C2900 C 0.71154 0.26342 0.47312 0.0
C2901 C 0.68149 0.26354 0.45899 0.0
C2902 C 0.71149 0.27813 0.47428 0.0
C2903 C 0.71562 0.28525 0.48708 0.0
C2904 C 0.72008 0.27784 0.499 0.0
C2905 C 0.72027 0.26312 0.49777 0.0
C2906 C 0.71606 0.256 0.48496 0.0
H2907 H 0.67035 0.25931 0.45452 0.0
H2908 H 0.68177 0.26217 0.47059 0.0
H2909 H 0.68328 0.27505 0.45677 0.0
H2910 H 0.70844 0.28417 0.46521 0.0
H2911 H 0.71564 0.29661 0.48752 0.0
H2912 H 0.33126 0.17066 0.4257 0.0
H2913 H 0.33003 0.1877 0.44485 0.0
H2914 H 0.33374 0.22189 0.41515 0.0
H2915 H 0.33497 0.20492 0.39595 0.0
H2916 H 0.35108 0.22795 0.44037 0.0
H2917 H 0.2933 0.20709 0.45041 0.0
H2918 H 0.30585 0.19408 0.45126 0.0
H2919 H 0.30207 0.20246 0.4348 0.0
C2920 C 0.33178 0.1818 0.42325 0.0
C2921 C 0.33307 0.18644 0.4093 0.0
C2922 C 0.3311 0.19152 0.43419 0.0
C2923 C 0.33157 0.20602 0.43137 0.0
C2924 C 0.33334 0.21073 0.41754 0.0
H2925 H 0.29932 0.26904 0.48245 0.0
H2926 H 0.30506 0.25346 0.46358 0.0
C2927 C 0.33407 0.20103 0.40659 0.0
C2928 C 0.3297 0.21624 0.44273 0.0
H2929 H 0.30521 0.22477 0.4661 0.0
C2930 C 0.34107 0.22728 0.44603 0.0
C2931 C 0.31655 0.21542 0.44994 0.0
C2932 C 0.30368 0.20421 0.44637 0.0
C2933 C 0.33965 0.23749 0.45643 0.0
C2934 C 0.3266 0.23649 0.46381 0.0
C2935 C 0.31524 0.22547 0.46047 0.0
C2936 C 0.32418 0.24694 0.47478 0.0
C2937 C 0.35197 0.24942 0.45921 0.0
C2938 C 0.33316 0.2486 0.48727 0.0
C2939 C 0.32989 0.25754 0.49809 0.0
C2940 C 0.31749 0.26481 0.49664 0.0
C2941 C 0.30881 0.26342 0.48395 0.0
C2942 C 0.31211 0.25457 0.47315 0.0
H2943 H 0.35952 0.25062 0.45042 0.0
H2944 H 0.34756 0.25962 0.46081 0.0
H2945 H 0.35847 0.24718 0.46893 0.0
H2946 H 0.34236 0.24261 0.48885 0.0
H2947 H 0.33667 0.25827 0.5078 0.0
H2948 H 0.32095 0.82525 0.39303 0.0
H2949 H 0.31262 0.81413 0.41481 0.0
H2950 H 0.30974 0.85529 0.43282 0.0
H2951 H 0.31796 0.86649 0.41101 0.0
H2952 H 0.32478 0.81651 0.44154 0.0
H2953 H 0.26975 0.83475 0.44027 0.0
H2954 H 0.28109 0.83622 0.4253 0.0
H2955 H 0.2845 0.84898 0.43952 0.0
C2956 C 0.31856 0.83196 0.40162 0.0
C2957 C 0.32008 0.84679 0.40021 0.0
C2958 C 0.31376 0.82557 0.41408 0.0
C2959 C 0.31032 0.83382 0.42544 0.0
C2960 C 0.31194 0.84864 0.42411 0.0
H2961 H 0.28068 0.81505 0.5095 0.0
H2962 H 0.29135 0.82615 0.48866 0.0
C2963 C 0.31667 0.85504 0.41162 0.0
C2964 C 0.30535 0.82692 0.43872 0.0
H2965 H 0.2774 0.82382 0.46133 0.0
C2966 C 0.31439 0.81806 0.44582 0.0
C2967 C 0.29177 0.8289 0.44435 0.0
C2968 C 0.28114 0.83761 0.43691 0.0
C2969 C 0.31035 0.81137 0.45846 0.0
C2970 C 0.29684 0.81345 0.46412 0.0
C2971 C 0.2878 0.82229 0.45704 0.0
C2972 C 0.29172 0.80647 0.47729 0.0
C2973 C 0.32071 0.80233 0.46581 0.0
C2974 C 0.28856 0.79166 0.47798 0.0
C2975 C 0.28244 0.78524 0.48992 0.0
C2976 C 0.2793 0.7935 0.50144 0.0
C2977 C 0.28297 0.80831 0.50089 0.0
C2978 C 0.28903 0.81471 0.48894 0.0
H2979 H 0.33202 0.80454 0.46206 0.0
H2980 H 0.32118 0.80409 0.47739 0.0
H2981 H 0.31667 0.791 0.46363 0.0
H2982 H 0.29032 0.78508 0.46905 0.0
H2983 H 0.27967 0.77383 0.4899 0.0
H2984 H 0.66446 0.23455 0.70981 0.0
H2985 H 0.6443 0.24391 0.72118 0.0
H2986 H 0.62363 0.20136 0.72761 0.0
H2987 H 0.64361 0.19192 0.7162 0.0
H2988 H 0.61379 0.24038 0.71476 0.0
H2989 H 0.62653 0.21856 0.76731 0.0
H2990 H 0.63923 0.21948 0.7534 0.0
H2991 H 0.62407 0.20551 0.7534 0.0
C2992 C 0.65555 0.22717 0.71352 0.0
C2993 C 0.65578 0.21245 0.71219 0.0
C2994 C 0.64406 0.23255 0.72008 0.0
C2995 C 0.63258 0.22335 0.72552 0.0
C2996 C 0.63255 0.20868 0.72384 0.0
H2997 H 0.5536 0.23048 0.76945 0.0
H2998 H 0.57403 0.22291 0.75725 0.0
C2999 C 0.64401 0.2033 0.7173 0.0
C3000 C 0.62062 0.22902 0.73295 0.0
H3001 H 0.60384 0.22802 0.76425 0.0
C3002 C 0.61167 0.23777 0.72561 0.0
C3003 C 0.61786 0.22564 0.74713 0.0
C3004 C 0.6275 0.2169 0.75584 0.0
C3005 C 0.59978 0.24285 0.73191 0.0
C3006 C 0.5969 0.2393 0.74603 0.0
C3007 C 0.60599 0.23071 0.75342 0.0
C3008 C 0.58438 0.24413 0.7533 0.0
C3009 C 0.59013 0.2516 0.72324 0.0
C3010 C 0.5834 0.2586 0.75533 0.0
C3011 C 0.57169 0.263 0.76239 0.0
C3012 C 0.56075 0.25301 0.7677 0.0
C3013 C 0.56185 0.23851 0.7657 0.0
C3014 C 0.57353 0.23414 0.75864 0.0
H3015 H 0.59147 0.25036 0.71177 0.0
H3016 H 0.57836 0.24863 0.72533 0.0
H3017 H 0.59318 0.26295 0.72609 0.0
H3018 H 0.5918 0.26653 0.75162 0.0
H3019 H 0.57139 0.27423 0.7639 0.0
H3020 H 0.34552 0.20284 0.74166 0.0
H3021 H 0.34153 0.18211 0.75672 0.0
H3022 H 0.33461 0.15491 0.71986 0.0
H3023 H 0.33811 0.17572 0.70475 0.0
H3024 H 0.31457 0.14732 0.7378 0.0
H3025 H 0.36871 0.15383 0.76713 0.0
H3026 H 0.35963 0.16931 0.76872 0.0
H3027 H 0.365 0.16405 0.75172 0.0
C3028 C 0.34325 0.19241 0.7368 0.0
C3029 C 0.34218 0.19084 0.72207 0.0
C3030 C 0.34108 0.18057 0.7454 0.0
C3031 C 0.33813 0.16691 0.73944 0.0
C3032 C 0.33698 0.16533 0.7247 0.0
H3033 H 0.33827 0.08986 0.78925 0.0
H3034 H 0.34494 0.10987 0.77368 0.0
C3035 C 0.33893 0.1772 0.71608 0.0
C3036 C 0.33551 0.15434 0.74857 0.0
H3037 H 0.34968 0.13793 0.7771 0.0
C3038 C 0.32232 0.1452 0.74631 0.0
C3039 C 0.34574 0.15139 0.75952 0.0
C3040 C 0.36062 0.16008 0.76182 0.0
C3041 C 0.31888 0.13346 0.75491 0.0
C3042 C 0.32866 0.13107 0.76643 0.0
C3043 C 0.34206 0.13993 0.76844 0.0
C3044 C 0.32511 0.11945 0.77651 0.0
C3045 C 0.30488 0.12365 0.75141 0.0
C3046 C 0.31204 0.11847 0.78364 0.0
C3047 C 0.30818 0.10701 0.79237 0.0
C3048 C 0.31748 0.09649 0.79441 0.0
C3049 C 0.33096 0.09788 0.7879 0.0
C3050 C 0.33472 0.10925 0.77897 0.0
H3051 H 0.30128 0.12424 0.7401 0.0
H3052 H 0.30625 0.11249 0.75385 0.0
H3053 H 0.29597 0.12682 0.7577 0.0
H3054 H 0.30469 0.12646 0.7823 0.0
H3055 H 0.29785 0.10629 0.79747 0.0
H3056 H 0.37847 0.89439 0.72166 0.0
H3057 H 0.39922 0.88486 0.73369 0.0
H3058 H 0.37826 0.84236 0.7248 0.0
H3059 H 0.35742 0.85182 0.71273 0.0
H3060 H 0.39959 0.868 0.75694 0.0
H3061 H 0.41921 0.84051 0.71135 0.0
H3062 H 0.4062 0.85316 0.70931 0.0
H3063 H 0.4002 0.83532 0.71452 0.0
C3064 C 0.37823 0.883 0.72228 0.0
C3065 C 0.36624 0.87388 0.71619 0.0
C3066 C 0.39015 0.87757 0.72912 0.0
C3067 C 0.39044 0.86289 0.73001 0.0
C3068 C 0.37849 0.85373 0.72398 0.0
H3069 H 0.45341 0.81228 0.77096 0.0
H3070 H 0.43204 0.82033 0.75846 0.0
C3071 C 0.36655 0.85916 0.71709 0.0
C3072 C 0.40305 0.85725 0.73765 0.0
H3073 H 0.43057 0.83667 0.73376 0.0
C3074 C 0.40638 0.86118 0.75184 0.0
C3075 C 0.41191 0.8483 0.73105 0.0
C3076 C 0.40932 0.84416 0.71569 0.0
C3077 C 0.4182 0.85636 0.75962 0.0
C3078 C 0.42713 0.84751 0.75299 0.0
C3079 C 0.42372 0.84344 0.73884 0.0
C3080 C 0.44021 0.84262 0.76048 0.0
C3081 C 0.42089 0.8606 0.77495 0.0
C3082 C 0.45205 0.85244 0.76561 0.0
C3083 C 0.46434 0.84787 0.77269 0.0
C3084 C 0.46514 0.83335 0.77479 0.0
C3085 C 0.45331 0.82352 0.76947 0.0
C3086 C 0.44102 0.82811 0.76236 0.0
H3087 H 0.41097 0.86412 0.77936 0.0
H3088 H 0.42422 0.85169 0.78133 0.0
H3089 H 0.42991 0.86954 0.77599 0.0
H3090 H 0.45185 0.86367 0.76401 0.0
H3091 H 0.47329 0.85577 0.77633 0.0
H3092 H 0.67528 0.86972 0.72406 0.0
H3093 H 0.68662 0.89172 0.73577 0.0
H3094 H 0.69261 0.9113 0.69535 0.0
H3095 H 0.68103 0.88943 0.68355 0.0
H3096 H 0.71529 0.90765 0.73242 0.0
H3097 H 0.66886 0.93781 0.71742 0.0
H3098 H 0.66715 0.91871 0.71653 0.0
H3099 H 0.67641 0.92909 0.70319 0.0
C3100 C 0.67896 0.87873 0.71767 0.0
C3101 C 0.67717 0.87788 0.70289 0.0
C3102 C 0.68552 0.89124 0.72436 0.0
C3103 C 0.69029 0.90314 0.71641 0.0
C3104 C 0.68884 0.90225 0.70166 0.0
H3105 H 0.74273 0.98146 0.74695 0.0
H3106 H 0.73388 0.95924 0.7344 0.0
C3107 C 0.68234 0.88973 0.69494 0.0
C3108 C 0.69648 0.91658 0.7236 0.0
H3109 H 0.68966 0.95048 0.72949 0.0
C3110 C 0.70974 0.91704 0.73176 0.0
C3111 C 0.68909 0.92873 0.72282 0.0
C3112 C 0.67453 0.92862 0.71462 0.0
C3113 C 0.71586 0.92942 0.73913 0.0
C3114 C 0.70855 0.94161 0.7382 0.0
C3115 C 0.69527 0.94112 0.73008 0.0
C3116 C 0.71421 0.95487 0.74598 0.0
C3117 C 0.72991 0.92927 0.7481 0.0
C3118 C 0.70599 0.95982 0.75653 0.0
C3119 C 0.71102 0.97247 0.76375 0.0
C3120 C 0.72434 0.9805 0.76049 0.0
C3121 C 0.73255 0.97548 0.74988 0.0
C3122 C 0.72751 0.96278 0.74268 0.0
H3123 H 0.73253 0.91833 0.74994 0.0
H3124 H 0.73915 0.93522 0.74271 0.0
H3125 H 0.72914 0.93453 0.75845 0.0
H3126 H 0.69569 0.95385 0.75922 0.0
H3127 H 0.70451 0.97585 0.77197 0.0
H3128 H 0.63544 0.85871 0.36102 0.0
H3129 H 0.61278 0.84955 0.34757 0.0
H3130 H 0.63246 0.86332 0.309 0.0
H3131 H 0.65543 0.87219 0.32239 0.0
H3132 H 0.5943 0.86359 0.32886 0.0
H3133 H 0.61884 0.82068 0.30212 0.0
H3134 H 0.6279 0.8302 0.31728 0.0
H3135 H 0.62769 0.83851 0.30039 0.0
C3136 C 0.635 0.85972 0.34966 0.0
C3137 C 0.64729 0.86602 0.34276 0.0
C3138 C 0.622 0.85459 0.34201 0.0
C3139 C 0.62101 0.85562 0.32728 0.0
C3140 C 0.63308 0.86226 0.32034 0.0
H3141 H 0.54638 0.80767 0.27804 0.0
H3142 H 0.56772 0.8258 0.28274 0.0
C3143 C 0.64614 0.86742 0.32802 0.0
C3144 C 0.60738 0.84926 0.31939 0.0
H3145 H 0.59337 0.82065 0.29885 0.0
C3146 C 0.59411 0.85434 0.3221 0.0
C3147 C 0.60719 0.83727 0.31048 0.0
C3148 C 0.62112 0.83123 0.3074 0.0
C3149 C 0.58057 0.84734 0.31671 0.0
C3150 C 0.58031 0.83482 0.30858 0.0
C3151 C 0.59362 0.83026 0.30509 0.0
C3152 C 0.5665 0.82522 0.3054 0.0
C3153 C 0.56662 0.85314 0.32014 0.0
C3154 C 0.55878 0.81897 0.31656 0.0
C3155 C 0.54676 0.80862 0.31394 0.0
C3156 C 0.54218 0.80428 0.30007 0.0
C3157 C 0.54961 0.81087 0.28883 0.0
C3158 C 0.56179 0.82118 0.29149 0.0
H3159 H 0.56866 0.86475 0.32215 0.0
H3160 H 0.55801 0.85093 0.31147 0.0
H3161 H 0.56237 0.84805 0.32983 0.0
H3162 H 0.5624 0.8217 0.32738 0.0
H3163 H 0.54126 0.80376 0.32283 0.0
H3164 H 0.68883 0.17716 0.31795 0.0
H3165 H 0.69599 0.15451 0.31011 0.0
H3166 H 0.71673 0.14916 0.35119 0.0
H3167 H 0.70945 0.17174 0.35906 0.0
H3168 H 0.72412 0.14771 0.30867 0.0
H3169 H 0.69294 0.11053 0.34403 0.0
H3170 H 0.68895 0.12846 0.34147 0.0
H3171 H 0.70388 0.12491 0.35343 0.0
C3172 C 0.69475 0.17104 0.32534 0.0
C3173 C 0.69863 0.1762 0.33911 0.0
C3174 C 0.69886 0.15812 0.32085 0.0
C3175 C 0.70677 0.15001 0.33008 0.0
C3176 C 0.71038 0.15504 0.34394 0.0
H3177 H 0.7579 0.08218 0.33104 0.0
H3178 H 0.74313 0.10113 0.33497 0.0
C3179 C 0.70629 0.16796 0.34842 0.0
C3180 C 0.71207 0.13679 0.32503 0.0
H3181 H 0.71282 0.10184 0.33273 0.0
C3182 C 0.72146 0.13762 0.31378 0.0
C3183 C 0.70856 0.12358 0.33162 0.0
C3184 C 0.69791 0.12175 0.34321 0.0
C3185 C 0.72806 0.12584 0.30948 0.0
C3186 C 0.72501 0.11279 0.31647 0.0
C3187 C 0.71517 0.11182 0.32735 0.0
C3188 C 0.73317 0.10054 0.3138 0.0
C3189 C 0.73884 0.12767 0.298 0.0
C3190 C 0.73231 0.09358 0.30061 0.0
C3191 C 0.74084 0.08259 0.29828 0.0
C3192 C 0.75038 0.07842 0.30912 0.0
C3193 C 0.75079 0.08515 0.32239 0.0
C3194 C 0.74229 0.096 0.3247 0.0
H3195 H 0.74187 0.13898 0.29536 0.0
H3196 H 0.74902 0.12307 0.30119 0.0
H3197 H 0.73385 0.122 0.28834 0.0
H3198 H 0.72517 0.09674 0.29209 0.0
H3199 H 0.74025 0.07762 0.28796 0.0
H3200 H 0.35919 0.17614 0.33822 0.0
H3201 H 0.37704 0.18965 0.32342 0.0
H3202 H 0.41145 0.1865 0.35554 0.0
H3203 H 0.39371 0.17312 0.37033 0.0
H3204 H 0.39526 0.21592 0.33134 0.0
H3205 H 0.42812 0.17305 0.31871 0.0
H3206 H 0.4097 0.16962 0.32477 0.0
H3207 H 0.42507 0.17447 0.33713 0.0
C3208 C 0.37057 0.17841 0.34209 0.0
C3209 C 0.37507 0.17384 0.35549 0.0
C3210 C 0.38072 0.18604 0.33364 0.0
C3211 C 0.39556 0.18891 0.33835 0.0
C3212 C 0.40008 0.1842 0.35165 0.0
H3213 H 0.47643 0.23608 0.32862 0.0
H3214 H 0.45489 0.21917 0.33266 0.0
C3215 C 0.38994 0.17667 0.36013 0.0
C3216 C 0.40632 0.19741 0.32979 0.0
H3217 H 0.43977 0.19689 0.31599 0.0
C3218 C 0.40485 0.21174 0.32767 0.0
C3219 C 0.41873 0.19184 0.32497 0.0
C3220 C 0.42047 0.17636 0.32637 0.0
C3221 C 0.41607 0.22094 0.32183 0.0
C3222 C 0.42891 0.21553 0.3178 0.0
C3223 C 0.42991 0.201 0.3191 0.0
C3224 C 0.44221 0.22503 0.31426 0.0
C3225 C 0.41454 0.23651 0.32093 0.0
C3226 C 0.44237 0.2337 0.30235 0.0
C3227 C 0.45472 0.24352 0.30006 0.0
C3228 C 0.46702 0.24477 0.30968 0.0
C3229 C 0.46701 0.23559 0.3212 0.0
C3230 C 0.45475 0.22583 0.32346 0.0
H3231 H 0.40483 0.23924 0.32633 0.0
H3232 H 0.42455 0.24297 0.32568 0.0
H3233 H 0.4133 0.23949 0.3097 0.0
H3234 H 0.43286 0.23308 0.29501 0.0
H3235 H 0.45445 0.25045 0.29109 0.0
H3236 H 0.31349 0.89336 0.38217 0.0
H3237 H 0.30197 0.91289 0.37173 0.0
H3238 H 0.30875 0.89746 0.33018 0.0
H3239 H 0.3195 0.87745 0.34047 0.0
H3240 H 0.31258 0.93424 0.35534 0.0
H3241 H 0.26597 0.90209 0.32586 0.0
H3242 H 0.27763 0.89452 0.33884 0.0
H3243 H 0.28366 0.89793 0.32134 0.0
C3244 C 0.31231 0.89393 0.3708 0.0
C3245 C 0.31738 0.88366 0.36222 0.0
C3246 C 0.30583 0.90523 0.36483 0.0
C3247 C 0.30424 0.9066 0.35013 0.0
C3248 C 0.30951 0.89653 0.34153 0.0
H3249 H 0.26382 0.97263 0.30159 0.0
H3250 H 0.2798 0.95433 0.30778 0.0
C3251 C 0.31588 0.88515 0.34748 0.0
C3252 C 0.29725 0.91868 0.3439 0.0
H3253 H 0.26858 0.92682 0.3222 0.0
C3254 C 0.30299 0.93257 0.34805 0.0
C3255 C 0.28474 0.9166 0.33432 0.0
C3256 C 0.27754 0.90199 0.32991 0.0
C3257 C 0.29648 0.94435 0.3431 0.0
C3258 C 0.28387 0.94224 0.33374 0.0
C3259 C 0.27836 0.92842 0.32925 0.0
C3260 C 0.27525 0.95403 0.32989 0.0
C3261 C 0.30302 0.959 0.34805 0.0
C3262 C 0.26749 0.95994 0.34023 0.0
C3263 C 0.25833 0.97018 0.33671 0.0
C3264 C 0.25677 0.97489 0.32277 0.0
C3265 C 0.26491 0.96932 0.31243 0.0
C3266 C 0.27396 0.95883 0.31595 0.0
H3267 H 0.31453 0.9592 0.35237 0.0
H3268 H 0.3028 0.96666 0.3393 0.0
H3269 H 0.29639 0.96255 0.3565 0.0
H3270 H 0.26817 0.95632 0.351 0.0
H3271 H 0.25225 0.97425 0.34494 0.0
H3272 H 0.67207 0.14409 0.72499 0.0
H3273 H 0.68279 0.12546 0.73812 0.0
H3274 H 0.72556 0.1411 0.72381 0.0
H3275 H 0.71483 0.15984 0.71069 0.0
H3276 H 0.6974 0.10435 0.72663 0.0
H3277 H 0.73355 0.13681 0.76652 0.0
H3278 H 0.71887 0.14367 0.75639 0.0
H3279 H 0.73598 0.14208 0.7486 0.0
C3280 C 0.68379 0.14366 0.7248 0.0
C3281 C 0.69265 0.15343 0.71687 0.0
C3282 C 0.6899 0.13299 0.73227 0.0
C3283 C 0.705 0.13194 0.73207 0.0
C3284 C 0.71393 0.14184 0.72433 0.0
H3285 H 0.74745 0.05706 0.75293 0.0
H3286 H 0.73781 0.07703 0.74113 0.0
C3287 C 0.70781 0.1525 0.71682 0.0
C3288 C 0.71122 0.12004 0.73936 0.0
H3289 H 0.7361 0.11233 0.76534 0.0
C3290 C 0.70585 0.1061 0.73511 0.0
C3291 C 0.72215 0.12231 0.7505 0.0
C3292 C 0.72792 0.13701 0.7559 0.0
C3293 C 0.71122 0.09439 0.74157 0.0
C3294 C 0.72239 0.09666 0.7525 0.0
C3295 C 0.72763 0.1106 0.75688 0.0
C3296 C 0.72852 0.08468 0.7597 0.0
C3297 C 0.70469 0.07966 0.73682 0.0
C3298 C 0.72679 0.0825 0.77413 0.0
C3299 C 0.7323 0.07109 0.78092 0.0
C3300 C 0.73977 0.06168 0.77344 0.0
C3301 C 0.74169 0.06404 0.75901 0.0
C3302 C 0.73613 0.07542 0.75222 0.0
H3303 H 0.694 0.07967 0.73076 0.0
H3304 H 0.71238 0.07522 0.72992 0.0
H3305 H 0.70301 0.07257 0.74598 0.0
H3306 H 0.72101 0.08953 0.78013 0.0
H3307 H 0.73067 0.06966 0.79205 0.0
H3308 H 0.67299 0.91377 0.34938 0.0
H3309 H 0.68784 0.93638 0.34504 0.0
H3310 H 0.72744 0.91709 0.35321 0.0
H3311 H 0.71275 0.89433 0.3568 0.0
H3312 H 0.70755 0.95248 0.36275 0.0
H3313 H 0.73549 0.93613 0.31621 0.0
H3314 H 0.71984 0.92543 0.323 0.0
H3315 H 0.73793 0.92515 0.33121 0.0
C3316 C 0.68485 0.91427 0.34998 0.0
C3317 C 0.69166 0.90221 0.35339 0.0
C3318 C 0.69333 0.92723 0.34763 0.0
C3319 C 0.70874 0.92838 0.34861 0.0
C3320 C 0.71556 0.9164 0.35211 0.0
H3321 H 0.77808 0.99927 0.34177 0.0
H3322 H 0.76379 0.97696 0.3485 0.0
C3323 C 0.70713 0.90343 0.35435 0.0
C3324 C 0.71771 0.94217 0.34633 0.0
H3325 H 0.74474 0.95852 0.32656 0.0
C3326 C 0.71564 0.95381 0.3548 0.0
C3327 C 0.72826 0.94389 0.33594 0.0
C3328 C 0.73043 0.93202 0.32598 0.0
C3329 C 0.72394 0.96709 0.35325 0.0
C3330 C 0.73454 0.96873 0.34297 0.0
C3331 C 0.73669 0.95712 0.33455 0.0
C3332 C 0.74295 0.98262 0.3402 0.0
C3333 C 0.72142 0.97929 0.36261 0.0
C3334 C 0.73589 0.99312 0.33342 0.0
C3335 C 0.744 1.00576 0.32951 0.0
C3336 C 0.75931 0.00812 0.33236 0.0
C3337 C 0.76629 0.99777 0.33958 0.0
C3338 C 0.75817 0.98503 0.34336 0.0
H3339 H 0.7148 0.97571 0.37168 0.0
H3340 H 0.73208 0.98512 0.36667 0.0
H3341 H 0.71544 0.9868 0.35638 0.0
H3342 H 0.72416 0.99137 0.3308 0.0
H3343 H 0.73835 0.01362 0.32407 0.0
H3344 H 0.66097 0.2477 0.35405 0.0
H3345 H 0.63986 0.25863 0.34445 0.0
H3346 H 0.61624 0.21724 0.33518 0.0
H3347 H 0.6372 0.20621 0.34498 0.0
H3348 H 0.62423 0.25579 0.31709 0.0
H3349 H 0.58914 0.23679 0.36059 0.0
H3350 H 0.60887 0.23698 0.36168 0.0
H3351 H 0.59734 0.22314 0.35198 0.0
C3352 C 0.65128 0.24092 0.34997 0.0
C3353 C 0.65072 0.22607 0.35041 0.0
C3354 C 0.63926 0.24719 0.34441 0.0
C3355 C 0.62641 0.23876 0.3393 0.0
C3356 C 0.62599 0.22395 0.33926 0.0
H3357 H 0.5409 0.24425 0.30418 0.0
H3358 H 0.56433 0.23882 0.31425 0.0
C3359 C 0.63803 0.21766 0.34475 0.0
C3360 C 0.61326 0.24538 0.33435 0.0
H3361 H 0.57721 0.24653 0.34081 0.0
C3362 C 0.61397 0.25391 0.32233 0.0
C3363 C 0.59996 0.24305 0.34132 0.0
C3364 C 0.59875 0.23461 0.35469 0.0
C3365 C 0.60148 0.25954 0.31667 0.0
C3366 C 0.58802 0.25674 0.32335 0.0
C3367 C 0.58752 0.24867 0.33568 0.0
C3368 C 0.57396 0.26066 0.31699 0.0
C3369 C 0.60257 0.26786 0.30323 0.0
C3370 C 0.57147 0.27485 0.31517 0.0
C3371 C 0.55789 0.27807 0.30932 0.0
C3372 C 0.54662 0.26713 0.30525 0.0
C3373 C 0.54926 0.253 0.30716 0.0
C3374 C 0.5627 0.24983 0.31296 0.0
H3375 H 0.61309 0.26715 0.29818 0.0
H3376 H 0.5933 0.26402 0.29561 0.0
H3377 H 0.60188 0.27918 0.3056 0.0
H3378 H 0.57994 0.2834 0.3184 0.0
H3379 H 0.55621 0.28905 0.30801 0.0
H3380 H 0.29322 0.15048 0.39167 0.0
H3381 H 0.27582 0.12868 0.3895 0.0
H3382 H 0.31037 0.10595 0.37579 0.0
H3383 H 0.32784 0.12748 0.37836 0.0
H3384 H 0.26806 0.11349 0.36513 0.0
H3385 H 0.2917 0.07923 0.40466 0.0
H3386 H 0.29681 0.09819 0.40453 0.0
H3387 H 0.30526 0.08685 0.39308 0.0
C3388 C 0.29715 0.14076 0.38848 0.0
C3389 C 0.31189 0.1407 0.38515 0.0
C3390 C 0.2872 0.12834 0.3872 0.0
C3391 C 0.29185 0.11565 0.38271 0.0
C3392 C 0.3066 0.11554 0.37959 0.0
H3393 H 0.26304 0.03736 0.34387 0.0
H3394 H 0.27537 0.05864 0.35601 0.0
C3395 C 0.31653 0.12791 0.38086 0.0
C3396 C 0.28117 0.10277 0.38002 0.0
H3397 H 0.27609 0.06717 0.3858 0.0
C3398 C 0.26957 0.10341 0.36989 0.0
C3399 C 0.28315 0.08965 0.38628 0.0
C3400 C 0.29482 0.08846 0.39785 0.0
C3401 C 0.26055 0.0911 0.36513 0.0
C3402 C 0.26313 0.07788 0.37078 0.0
C3403 C 0.2742 0.07734 0.38145 0.0
C3404 C 0.25559 0.06443 0.36461 0.0
C3405 C 0.24892 0.0922 0.35348 0.0
C3406 C 0.24044 0.06051 0.3657 0.0
C3407 C 0.23334 0.04833 0.35872 0.0
C3408 C 0.24131 0.03999 0.35051 0.0
C3409 C 0.25657 0.04372 0.3499 0.0
C3410 C 0.26365 0.0558 0.35692 0.0
H3411 H 0.24958 0.10302 0.34903 0.0
H3412 H 0.24999 0.08455 0.34485 0.0
H3413 H 0.23787 0.0895 0.35766 0.0
H3414 H 0.23408 0.067 0.3717 0.0
H3415 H 0.22157 0.04574 0.35933 0.0
H3416 H 0.372 0.8283 0.369 0.0
H3417 H 0.39451 0.81897 0.3625 0.0
H3418 H 0.3855 0.82968 0.31914 0.0
H3419 H 0.36323 0.83923 0.32567 0.0
H3420 H 0.39673 0.79702 0.34451 0.0
H3421 H 0.42836 0.84579 0.32493 0.0
H3422 H 0.41237 0.84618 0.33509 0.0
H3423 H 0.41029 0.84204 0.31654 0.0
C3424 C 0.37502 0.82887 0.35814 0.0
C3425 C 0.36599 0.83464 0.34788 0.0
C3426 C 0.38782 0.8235 0.35441 0.0
C3427 C 0.39187 0.82381 0.34035 0.0
C3428 C 0.38286 0.82963 0.33011 0.0
H3429 H 0.45855 0.78894 0.29404 0.0
H3430 H 0.43761 0.80018 0.30134 0.0
C3431 C 0.37009 0.83503 0.33383 0.0
C3432 C 0.405 0.81732 0.33626 0.0
H3433 H 0.4373 0.824 0.31971 0.0
C3434 C 0.40565 0.80296 0.33919 0.0
C3435 C 0.41665 0.82504 0.32926 0.0
C3436 C 0.41699 0.84065 0.32638 0.0
C3437 C 0.41743 0.79605 0.33509 0.0
C3438 C 0.42901 0.80374 0.328 0.0
C3439 C 0.4284 0.8181 0.32509 0.0
C3440 C 0.44189 0.79706 0.32362 0.0
C3441 C 0.41721 0.78047 0.33806 0.0
C3442 C 0.45141 0.79174 0.33371 0.0
C3443 C 0.46347 0.78538 0.32959 0.0
C3444 C 0.46634 0.78421 0.31524 0.0
C3445 C 0.45684 0.78972 0.30516 0.0
C3446 C 0.44479 0.79612 0.30932 0.0
H3447 H 0.40603 0.77539 0.34038 0.0
H3448 H 0.42107 0.77483 0.329 0.0
H3449 H 0.4247 0.77915 0.34738 0.0
H3450 H 0.44958 0.79261 0.34483 0.0
H3451 H 0.47063 0.78156 0.33771 0.0
H3452 H 0.29232 0.91564 0.72156 0.0
H3453 H 0.28507 0.93824 0.72936 0.0
H3454 H 0.33015 0.95274 0.7427 0.0
H3455 H 0.33743 0.93016 0.73485 0.0
H3456 H 0.28841 0.94947 0.75664 0.0
H3457 H 0.3181 0.98615 0.71977 0.0
H3458 H 0.31482 0.96723 0.71674 0.0
H3459 H 0.32966 0.97478 0.72869 0.0
C3460 C 0.3007 0.92374 0.72597 0.0
C3461 C 0.31548 0.92125 0.72744 0.0
C3462 C 0.29654 0.93663 0.73044 0.0
C3463 C 0.30709 0.94729 0.7364 0.0
C3464 C 0.32187 0.94482 0.73783 0.0
H3465 H 0.31609 0.02319 0.78364 0.0
H3466 H 0.31773 1.00284 0.76851 0.0
C3467 C 0.32602 0.93192 0.7334 0.0
C3468 C 0.30257 0.96063 0.74195 0.0
H3469 H 0.30975 0.99667 0.74032 0.0
C3470 C 0.29286 0.9598 0.75293 0.0
C3471 C 0.30834 0.97409 0.73705 0.0
C3472 C 0.3182 0.97566 0.72481 0.0
C3473 C 0.28946 0.97206 0.75969 0.0
C3474 C 0.29572 0.98554 0.75516 0.0
C3475 C 0.30493 0.98635 0.74378 0.0
C3476 C 0.29436 0.99874 0.76317 0.0
C3477 C 0.27988 0.97048 0.77213 0.0
C3478 C 0.28068 1.00354 0.76491 0.0
C3479 C 0.27969 0.01531 0.77364 0.0
C3480 C 0.29237 0.0224 0.78076 0.0
C3481 C 0.30607 0.01792 0.77842 0.0
C3482 C 0.30705 1.00627 0.76973 0.0
H3483 H 0.27802 0.95935 0.77578 0.0
H3484 H 0.2849 0.97731 0.78107 0.0
H3485 H 0.26902 0.97384 0.76911 0.0
H3486 H 0.27076 0.99802 0.75976 0.0
H3487 H 0.26898 0.0185 0.77524 0.0
H3488 H 0.63993 0.81733 0.69726 0.0
H3489 H 0.61647 0.8063 0.70584 0.0
H3490 H 0.60297 0.84764 0.71148 0.0
H3491 H 0.62612 0.85867 0.70266 0.0
H3492 H 0.60567 0.81063 0.73226 0.0
H3493 H 0.56732 0.82579 0.68985 0.0
H3494 H 0.58682 0.82628 0.68773 0.0
H3495 H 0.57985 0.84066 0.69648 0.0
C3496 C 0.63186 0.82403 0.70016 0.0
C3497 C 0.63487 0.83887 0.69932 0.0
C3498 C 0.61851 0.81773 0.70508 0.0
C3499 C 0.60789 0.82615 0.70904 0.0
C3500 C 0.61088 0.84093 0.70818 0.0
H3501 H 0.53674 0.83247 0.75667 0.0
H3502 H 0.55597 0.83334 0.73992 0.0
C3503 C 0.6242 0.84723 0.70333 0.0
C3504 C 0.59407 0.81972 0.71501 0.0
H3505 H 0.55698 0.82054 0.7124 0.0
C3506 C 0.59497 0.81245 0.72776 0.0
C3507 C 0.58014 0.82203 0.70904 0.0
C3508 C 0.57844 0.82899 0.69494 0.0
C3509 C 0.5824 0.80848 0.73531 0.0
C3510 C 0.5686 0.81172 0.72981 0.0
C3511 C 0.56758 0.81811 0.71659 0.0
C3512 C 0.55568 0.81062 0.73856 0.0
C3513 C 0.5841 0.80178 0.74956 0.0
C3514 C 0.54882 0.79749 0.74302 0.0
C3515 C 0.53772 0.79694 0.75265 0.0
C3516 C 0.53345 0.80953 0.75795 0.0
C3517 C 0.53988 0.82259 0.75289 0.0
C3518 C 0.55084 0.82311 0.74327 0.0
H3519 H 0.59581 0.80143 0.75297 0.0
H3520 H 0.57896 0.80773 0.75762 0.0
H3521 H 0.57839 0.79078 0.74914 0.0
H3522 H 0.55232 0.78772 0.73937 0.0
H3523 H 0.53295 0.78673 0.75636 0.0
H3524 H 0.377 0.23923 0.68773 0.0
H3525 H 0.40104 0.25338 0.69224 0.0
H3526 H 0.39671 0.24858 0.73697 0.0
H3527 H 0.37244 0.23518 0.73259 0.0
H3528 H 0.41002 0.27472 0.73076 0.0
H3529 H 0.43595 0.23321 0.70331 0.0
H3530 H 0.42295 0.24192 0.69291 0.0
H3531 H 0.4168 0.23076 0.70717 0.0
C3532 C 0.38101 0.24149 0.69853 0.0
C3533 C 0.37292 0.23583 0.70981 0.0
C3534 C 0.39483 0.24945 0.70108 0.0
C3535 C 0.40084 0.25172 0.71493 0.0
C3536 C 0.39236 0.24686 0.72618 0.0
H3537 H 0.4791 0.2496 0.75964 0.0
H3538 H 0.45678 0.24706 0.74445 0.0
C3539 C 0.37854 0.23906 0.72366 0.0
C3540 C 0.41633 0.25805 0.71795 0.0
H3541 H 0.45158 0.2506 0.71599 0.0
C3542 C 0.41917 0.26965 0.72732 0.0
C3543 C 0.42823 0.25137 0.71344 0.0
C3544 C 0.42592 0.23857 0.70374 0.0
C3545 C 0.43342 0.27411 0.73311 0.0
C3546 C 0.44519 0.26695 0.72914 0.0
C3547 C 0.44252 0.25607 0.71896 0.0
C3548 C 0.45959 0.26872 0.73723 0.0
C3549 C 0.43558 0.2857 0.74421 0.0
C3550 C 0.46882 0.28169 0.738 0.0
C3551 C 0.48168 0.28322 0.74684 0.0
C3552 C 0.48546 0.27177 0.75496 0.0
C3553 C 0.47649 0.25867 0.75363 0.0
C3554 C 0.46372 0.25718 0.74489 0.0
H3555 H 0.42497 0.28882 0.74742 0.0
H3556 H 0.44168 0.28224 0.75371 0.0
H3557 H 0.44217 0.29519 0.74004 0.0
H3558 H 0.46596 0.29066 0.73199 0.0
H3559 H 0.48842 0.29343 0.7476 0.0
H3560 H 0.68674 0.68894 0.16571 0.0
H3561 H 0.69513 0.70239 0.14516 0.0
H3562 H 0.68706 0.74108 0.16541 0.0
H3563 H 0.67951 0.72789 0.18624 0.0
H3564 H 0.68078 0.71806 0.1273 0.0
H3565 H 0.72771 0.75275 0.15306 0.0
H3566 H 0.71849 0.73758 0.16171 0.0
H3567 H 0.71089 0.75412 0.16139 0.0
C3568 C 0.68702 0.70034 0.16593 0.0
C3569 C 0.68245 0.70727 0.17774 0.0
C3570 C 0.69171 0.70802 0.15409 0.0
C3571 C 0.69199 0.72282 0.15376 0.0
C3572 C 0.68732 0.72974 0.16548 0.0
H3573 H 0.70434 0.7874 0.08975 0.0
H3574 H 0.69762 0.77316 0.11039 0.0
C3575 C 0.68276 0.72211 0.17734 0.0
C3576 C 0.69661 0.73095 0.14101 0.0
H3577 H 0.71959 0.75947 0.13002 0.0
C3578 C 0.68937 0.72702 0.1279 0.0
C3579 C 0.70786 0.74267 0.14171 0.0
C3580 C 0.71679 0.74694 0.1552 0.0
C3581 C 0.69279 0.73466 0.11561 0.0
C3582 C 0.70375 0.74654 0.11642 0.0
C3583 C 0.7111 0.75042 0.12946 0.0
C3584 C 0.70773 0.75507 0.10382 0.0
C3585 C 0.68449 0.73018 0.10186 0.0
C3586 C 0.71571 0.74966 0.09332 0.0
C3587 C 0.71963 0.7578 0.08155 0.0
C3588 C 0.71555 0.7715 0.07998 0.0
C3589 C 0.7075 0.77685 0.09053 0.0
C3590 C 0.70372 0.76876 0.10237 0.0
H3591 H 0.67496 0.72199 0.10333 0.0
H3592 H 0.6805 0.73947 0.0966 0.0
H3593 H 0.692 0.72578 0.09473 0.0
H3594 H 0.71898 0.73915 0.09427 0.0
H3595 H 0.72571 0.7533 0.07359 0.0
H3596 H 0.29514 0.69571 0.15216 0.0
H3597 H 0.28588 0.70388 0.12929 0.0
H3598 H 0.32835 0.72754 0.12332 0.0
H3599 H 0.33761 0.7194 0.14613 0.0
H3600 H 0.285 0.73235 0.12119 0.0
H3601 H 0.31884 0.70496 0.08614 0.0
H3602 H 0.31615 0.69978 0.10417 0.0
H3603 H 0.32952 0.71456 0.1003 0.0
C3604 C 0.30249 0.70258 0.14589 0.0
C3605 C 0.3171 0.70692 0.1508 0.0
C3606 C 0.29721 0.70721 0.13286 0.0
C3607 C 0.30651 0.7161 0.12453 0.0
C3608 C 0.32109 0.72043 0.12946 0.0
H3609 H 0.31093 0.77185 0.05751 0.0
H3610 H 0.31354 0.75506 0.07639 0.0
C3611 C 0.32634 0.71587 0.14248 0.0
C3612 C 0.30088 0.72159 0.11103 0.0
H3613 H 0.30841 0.72496 0.07637 0.0
C3614 C 0.28986 0.73052 0.11131 0.0
C3615 C 0.30719 0.71907 0.09817 0.0
C3616 C 0.31848 0.70895 0.09711 0.0
C3617 C 0.28576 0.73785 0.09924 0.0
C3618 C 0.29273 0.73598 0.08657 0.0
C3619 C 0.30311 0.72639 0.08612 0.0
C3620 C 0.29093 0.74526 0.07433 0.0
C3621 C 0.27472 0.74822 0.10036 0.0
C3622 C 0.27737 0.74512 0.0667 0.0
C3623 C 0.27581 0.75479 0.05582 0.0
C3624 C 0.2878 0.76471 0.05247 0.0
C3625 C 0.30144 0.76444 0.05986 0.0
C3626 C 0.30298 0.7548 0.07064 0.0
H3627 H 0.27188 0.74984 0.11141 0.0
H3628 H 0.27907 0.75863 0.09601 0.0
H3629 H 0.26448 0.74418 0.0941 0.0
H3630 H 0.26798 0.73769 0.06928 0.0
H3631 H 0.26518 0.75472 0.05028 0.0
H3632 H 0.31278 0.36877 0.18574 0.0
H3633 H 0.30353 0.35569 0.16416 0.0
H3634 H 0.34798 0.35517 0.15187 0.0
H3635 H 0.3573 0.36862 0.17319 0.0
H3636 H 0.32972 0.36248 0.1301 0.0
H3637 H 0.30426 0.31381 0.15538 0.0
H3638 H 0.29798 0.32961 0.16184 0.0
H3639 H 0.31698 0.32706 0.16484 0.0
C3640 C 0.3206 0.36597 0.17841 0.0
C3641 C 0.33581 0.36973 0.18127 0.0
C3642 C 0.3153 0.35831 0.16615 0.0
C3643 C 0.32506 0.35418 0.1565 0.0
C3644 C 0.34023 0.35809 0.15921 0.0
H3645 H 0.29363 0.29625 0.08487 0.0
H3646 H 0.30843 0.30673 0.10563 0.0
C3647 C 0.34554 0.36573 0.17147 0.0
C3648 C 0.31944 0.34626 0.14334 0.0
H3649 H 0.2975 0.31653 0.13095 0.0
C3650 C 0.32281 0.35236 0.1303 0.0
C3651 C 0.31063 0.33291 0.14354 0.0
C3652 C 0.30736 0.32538 0.15714 0.0
C3653 C 0.31707 0.34583 0.11753 0.0
C3654 C 0.30754 0.33291 0.11777 0.0
C3655 C 0.30472 0.32647 0.13076 0.0
C3656 C 0.29939 0.32665 0.10478 0.0
C3657 C 0.32114 0.3529 0.10388 0.0
C3658 C 0.28941 0.33432 0.09746 0.0
C3659 C 0.281 0.32839 0.08574 0.0
C3660 C 0.28229 0.31459 0.081 0.0
C3661 C 0.29246 0.30694 0.08818 0.0
C3662 C 0.30087 0.31289 0.10006 0.0
H3663 H 0.33174 0.35998 0.10517 0.0
H3664 H 0.32202 0.34495 0.09547 0.0
H3665 H 0.31249 0.35946 0.10039 0.0
H3666 H 0.28786 0.34483 0.10102 0.0
H3667 H 0.27327 0.33461 0.0805 0.0
H3668 H 0.67954 0.34953 0.14566 0.0
H3669 H 0.69527 0.34036 0.12881 0.0
H3670 H 0.72746 0.33497 0.16248 0.0
H3671 H 0.71186 0.34459 0.17936 0.0
H3672 H 0.74018 0.34729 0.14024 0.0
H3673 H 0.70251 0.30021 0.12165 0.0
H3674 H 0.69367 0.3159 0.12004 0.0
H3675 H 0.69946 0.31011 0.13723 0.0
C3676 C 0.68986 0.34616 0.14949 0.0
C3677 C 0.6943 0.34736 0.16385 0.0
C3678 C 0.69881 0.34086 0.13987 0.0
C3679 C 0.71236 0.3366 0.14443 0.0
C3680 C 0.71694 0.33799 0.15876 0.0
H3681 H 0.75526 0.29529 0.07875 0.0
H3682 H 0.74648 0.29982 0.1018 0.0
C3683 C 0.70801 0.3434 0.16839 0.0
C3684 C 0.722 0.33146 0.13403 0.0
H3685 H 0.72147 0.3088 0.10605 0.0
C3686 C 0.7362 0.33871 0.1329 0.0
C3687 C 0.71698 0.32004 0.12468 0.0
C3688 C 0.70238 0.31102 0.12606 0.0
C3689 C 0.74513 0.33542 0.12213 0.0
C3690 C 0.73954 0.32487 0.112 0.0
C3691 C 0.72572 0.31704 0.11367 0.0
C3692 C 0.74722 0.32244 0.09901 0.0
C3693 C 0.7604 0.34337 0.12168 0.0
C3694 C 0.75094 0.33368 0.08985 0.0
C3695 C 0.75622 0.33117 0.07669 0.0
C3696 C 0.75757 0.3173 0.0722 0.0
C3697 C 0.75444 0.30613 0.08169 0.0
C3698 C 0.74931 0.30868 0.09493 0.0
H3699 H 0.76491 0.34672 0.13244 0.0
H3700 H 0.76806 0.33687 0.11685 0.0
H3701 H 0.7599 0.3531 0.11539 0.0
H3702 H 0.74914 0.34436 0.09258 0.0
H3703 H 0.75874 0.34009 0.06985 0.0
H3704 H 0.72716 0.34298 0.88359 0.0
H3705 H 0.732 0.33021 0.9053 0.0
H3706 H 0.68536 0.31919 0.90923 0.0
H3707 H 0.68048 0.33197 0.88742 0.0
H3708 H 0.70086 0.33173 0.93364 0.0
H3709 H 0.72766 0.28729 0.91347 0.0
H3710 H 0.73521 0.30424 0.90707 0.0
H3711 H 0.71641 0.2974 0.90228 0.0
C3712 C 0.71797 0.33763 0.88897 0.0
C3713 C 0.70346 0.33831 0.88382 0.0
C3714 C 0.72073 0.33029 0.90131 0.0
C3715 C 0.70904 0.32355 0.90872 0.0
C3716 C 0.69452 0.32418 0.90356 0.0
H3717 H 0.73011 0.28037 0.98834 0.0
H3718 H 0.71634 0.28489 0.9662 0.0
C3719 C 0.69176 0.33145 0.89116 0.0
C3720 C 0.71207 0.31695 0.92244 0.0
H3721 H 0.73224 0.29305 0.93818 0.0
C3722 C 0.70745 0.32306 0.93463 0.0
C3723 C 0.72052 0.30555 0.92369 0.0
C3724 C 0.72513 0.29813 0.91092 0.0
C3725 C 0.71196 0.31874 0.94807 0.0
C3726 C 0.7213 0.30806 0.9493 0.0
C3727 C 0.7251 0.30127 0.93715 0.0
C3728 C 0.72889 0.30531 0.9629 0.0
C3729 C 0.7073 0.32602 0.9609 0.0
C3730 C 0.74044 0.31527 0.96821 0.0
C3731 C 0.74836 0.31268 0.98063 0.0
C3732 C 0.74481 0.30009 0.98806 0.0
C3733 C 0.73304 0.29018 0.98285 0.0
C3734 C 0.7252 0.29272 0.97024 0.0
H3735 H 0.69764 0.33168 0.9584 0.0
H3736 H 0.70458 0.31824 0.96933 0.0
H3737 H 0.71654 0.33387 0.96505 0.0
H3738 H 0.74348 0.325 0.9626 0.0
H3739 H 0.75731 0.32056 0.98439 0.0
H3740 H 0.66781 0.72314 0.91014 0.0
H3741 H 0.68065 0.72961 0.93297 0.0
H3742 H 0.72228 0.7268 0.91495 0.0
H3743 H 0.70954 0.7205 0.892 0.0
H3744 H 0.70109 0.71344 0.9491 0.0
H3745 H 0.72663 0.76707 0.93392 0.0
H3746 H 0.71102 0.75764 0.92402 0.0
H3747 H 0.72897 0.7524 0.92261 0.0
C3748 C 0.67971 0.72402 0.91099 0.0
C3749 C 0.68764 0.72138 0.89921 0.0
C3750 C 0.68702 0.72762 0.92407 0.0
C3751 C 0.70242 0.72879 0.92563 0.0
C3752 C 0.7104 0.72608 0.91395 0.0
H3753 H 0.75494 0.76438 1.00107 0.0
H3754 H 0.74924 0.7518 0.97834 0.0
C3755 C 0.70308 0.72239 0.90087 0.0
C3756 C 0.71002 0.73287 0.93954 0.0
H3757 H 0.73092 0.76028 0.95733 0.0
C3758 C 0.70773 0.72363 0.95089 0.0
C3759 C 0.71884 0.74608 0.94181 0.0
C3760 C 0.72151 0.75646 0.93001 0.0
C3761 C 0.71369 0.7274 0.96452 0.0
C3762 C 0.72186 0.74092 0.96697 0.0
C3763 C 0.72469 0.74991 0.95549 0.0
C3764 C 0.72599 0.74664 0.98147 0.0
C3765 C 0.71105 0.71687 0.9762 0.0
C3766 C 0.71492 0.74771 0.99087 0.0
C3767 C 0.71815 0.7548 1.00377 0.0
C3768 C 0.73252 0.76109 1.00759 0.0
C3769 C 0.7438 0.75947 0.9985 0.0
C3770 C 0.74053 0.75239 0.98548 0.0
H3771 H 0.7097 0.70582 0.97205 0.0
H3772 H 0.72021 0.71814 0.98441 0.0
H3773 H 0.70073 0.7185 0.9812 0.0
H3774 H 0.70357 0.7437 0.98795 0.0
H3775 H 0.70919 0.75592 0.01049 0.0
H3776 H 0.35287 0.70745 0.90221 0.0
H3777 H 0.34847 0.72418 0.92067 0.0
H3778 H 0.3023 0.71901 0.90782 0.0
H3779 H 0.30661 0.70227 0.88934 0.0
H3780 H 0.33681 0.74977 0.91846 0.0
H3781 H 0.30204 0.71126 0.94999 0.0
H3782 H 0.31304 0.70582 0.93627 0.0
H3783 H 0.29563 0.71194 0.93186 0.0
C3784 C 0.34179 0.70992 0.90328 0.0
C3785 C 0.33007 0.70348 0.89435 0.0
C3786 C 0.33929 0.71945 0.91385 0.0
C3787 C 0.32503 0.72267 0.91575 0.0
C3788 C 0.31334 0.71641 0.90675 0.0
H3789 H 0.28496 0.77623 0.97152 0.0
H3790 H 0.29106 0.76123 0.95235 0.0
C3791 C 0.31582 0.70686 0.8962 0.0
C3792 C 0.32241 0.7327 0.92704 0.0
H3793 H 0.30309 0.73554 0.95638 0.0
C3794 C 0.32951 0.74666 0.92681 0.0
C3795 C 0.31292 0.72858 0.93794 0.0
C3796 C 0.30557 0.71355 0.93915 0.0
C3797 C 0.32706 0.75672 0.937 0.0
C3798 C 0.31741 0.75264 0.94776 0.0
C3799 C 0.31043 0.73865 0.94806 0.0
C3800 C 0.31417 0.76269 0.95876 0.0
C3801 C 0.33452 0.77172 0.93599 0.0
C3802 C 0.32519 0.76861 0.96865 0.0
C3803 C 0.32172 0.77716 0.9797 0.0
C3804 C 0.30714 0.77983 0.98109 0.0
C3805 C 0.29624 0.77419 0.97091 0.0
C3806 C 0.29971 0.76567 0.9599 0.0
H3807 H 0.33895 0.7739 0.92546 0.0
H3808 H 0.32676 0.77943 0.93811 0.0
H3809 H 0.34382 0.77348 0.94401 0.0
H3810 H 0.33638 0.76624 0.96809 0.0
H3811 H 0.33033 0.7812 0.98745 0.0
H3812 H 0.3068 0.36473 0.89713 0.0
H3813 H 0.29425 0.35712 0.91834 0.0
H3814 H 0.33515 0.34724 0.93782 0.0
H3815 H 0.34793 0.35541 0.9169 0.0
H3816 H 0.29082 0.33162 0.9314 0.0
H3817 H 0.32145 0.37207 0.96777 0.0
H3818 H 0.32236 0.37315 0.94889 0.0
H3819 H 0.33317 0.36172 0.95879 0.0
C3820 C 0.3132 0.36112 0.90598 0.0
C3821 C 0.32846 0.36084 0.90529 0.0
C3822 C 0.30596 0.35666 0.91809 0.0
C3823 C 0.31377 0.35185 0.92982 0.0
C3824 C 0.32892 0.35121 0.92905 0.0
H3825 H 0.29076 0.31771 0.01129 0.0
H3826 H 0.30278 0.32582 0.98994 0.0
C3827 C 0.33619 0.35571 0.91697 0.0
C3828 C 0.30602 0.34733 0.94276 0.0
H3829 H 0.30605 0.35349 0.97826 0.0
C3830 C 0.2941 0.33647 0.94163 0.0
C3831 C 0.31025 0.35366 0.95613 0.0
C3832 C 0.32241 0.36589 0.95799 0.0
C3833 C 0.28654 0.33157 0.9535 0.0
C3834 C 0.29088 0.3378 0.96687 0.0
C3835 C 0.30274 0.34869 0.96801 0.0
C3836 C 0.28343 0.33299 0.97985 0.0
C3837 C 0.27419 0.31951 0.9517 0.0
C3838 C 0.26857 0.3345 0.98141 0.0
C3839 C 0.26163 0.32985 0.99364 0.0
C3840 C 0.2694 0.32356 1.00457 0.0
C3841 C 0.28435 0.32227 1.00303 0.0
C3842 C 0.29128 0.32699 0.99085 0.0
H3843 H 0.27436 0.31384 0.94148 0.0
H3844 H 0.27482 0.31179 0.96036 0.0
H3845 H 0.26351 0.32376 0.95204 0.0
H3846 H 0.26234 0.3393 0.97317 0.0
H3847 H 0.25012 0.33095 0.99442 0.0
H3848 H 0.65582 0.72321 0.21589 0.0
H3849 H 0.63547 0.73115 0.22803 0.0
H3850 H 0.61682 0.68772 0.23331 0.0
H3851 H 0.63711 0.67968 0.2211 0.0
H3852 H 0.60563 0.72652 0.22071 0.0
H3853 H 0.61718 0.70386 0.27318 0.0
H3854 H 0.63042 0.70546 0.25973 0.0
H3855 H 0.61551 0.69122 0.25891 0.0
C3856 C 0.64737 0.71532 0.21958 0.0
C3857 C 0.64815 0.70078 0.2175 0.0
C3858 C 0.63576 0.71989 0.22659 0.0
C3859 C 0.62469 0.71005 0.23177 0.0
C3860 C 0.62539 0.69552 0.2297 0.0
H3861 H 0.54392 0.71669 0.27367 0.0
H3862 H 0.56468 0.70878 0.26223 0.0
C3863 C 0.63702 0.69094 0.2227 0.0
C3864 C 0.6122 0.71503 0.23892 0.0
H3865 H 0.59462 0.71343 0.26979 0.0
C3866 C 0.60327 0.72372 0.23146 0.0
C3867 C 0.60908 0.71135 0.25295 0.0
C3868 C 0.61862 0.70257 0.26173 0.0
C3869 C 0.59119 0.7286 0.23755 0.0
C3870 C 0.58807 0.72493 0.25158 0.0
C3871 C 0.597 0.71624 0.25904 0.0
C3872 C 0.57553 0.72989 0.25867 0.0
C3873 C 0.58165 0.73738 0.22876 0.0
C3874 C 0.57479 0.7444 0.2607 0.0
C3875 C 0.56292 0.74898 0.26731 0.0
C3876 C 0.55156 0.73914 0.27214 0.0
C3877 C 0.55248 0.7246 0.27025 0.0
C3878 C 0.56434 0.72004 0.26364 0.0
H3879 H 0.58314 0.73614 0.21732 0.0
H3880 H 0.56984 0.73442 0.23071 0.0
H3881 H 0.58469 0.74873 0.23163 0.0
H3882 H 0.58346 0.75221 0.25727 0.0
H3883 H 0.56276 0.76024 0.26878 0.0
H3884 H 0.35663 0.67762 0.22203 0.0
H3885 H 0.35125 0.65771 0.23787 0.0
H3886 H 0.33273 0.63133 0.2027 0.0
H3887 H 0.33842 0.65106 0.18666 0.0
H3888 H 0.31478 0.63212 0.22749 0.0
H3889 H 0.37187 0.62068 0.24065 0.0
H3890 H 0.36866 0.6389 0.24192 0.0
H3891 H 0.36701 0.63018 0.22503 0.0
C3892 C 0.35164 0.66752 0.2176 0.0
C3893 C 0.34802 0.66593 0.20304 0.0
C3894 C 0.34855 0.65618 0.22668 0.0
C3895 C 0.34176 0.64305 0.2214 0.0
C3896 C 0.33804 0.6414 0.20693 0.0
H3897 H 0.30541 0.56397 0.25736 0.0
H3898 H 0.31355 0.58352 0.24194 0.0
C3899 C 0.3412 0.65271 0.19782 0.0
C3900 C 0.33797 0.63119 0.23107 0.0
H3901 H 0.35288 0.60785 0.25295 0.0
C3902 C 0.32308 0.62676 0.23304 0.0
C3903 C 0.34888 0.62439 0.23836 0.0
C3904 C 0.36502 0.62866 0.23637 0.0
C3905 C 0.31877 0.61572 0.24222 0.0
C3906 C 0.32965 0.60869 0.24933 0.0
C3907 C 0.34457 0.61323 0.24746 0.0
C3908 C 0.32568 0.59645 0.25854 0.0
C3909 C 0.30259 0.61189 0.24444 0.0
C3910 C 0.3304 0.59694 0.27285 0.0
C3911 C 0.32586 0.58568 0.28168 0.0
C3912 C 0.31651 0.5738 0.2763 0.0
C3913 C 0.31233 0.57313 0.26185 0.0
C3914 C 0.31695 0.58429 0.25304 0.0
H3915 H 0.29624 0.62075 0.24161 0.0
H3916 H 0.29818 0.60267 0.23761 0.0
H3917 H 0.30073 0.609 0.25556 0.0
H3918 H 0.33725 0.60619 0.27727 0.0
H3919 H 0.32922 0.58648 0.29278 0.0
H3920 H 0.4078 0.37016 0.20863 0.0
H3921 H 0.42641 0.35798 0.22134 0.0
H3922 H 0.40723 0.36578 0.26059 0.0
H3923 H 0.38854 0.37795 0.24787 0.0
H3924 H 0.44715 0.36909 0.24322 0.0
H3925 H 0.40987 0.32284 0.26111 0.0
H3926 H 0.40447 0.33427 0.2472 0.0
H3927 H 0.40456 0.33984 0.26529 0.0
C3928 C 0.40748 0.36915 0.21996 0.0
C3929 C 0.39663 0.37484 0.22727 0.0
C3930 C 0.41814 0.36224 0.22721 0.0
C3931 C 0.41813 0.36082 0.2419 0.0
C3932 C 0.40731 0.36652 0.24923 0.0
H3933 H 0.4714 0.31875 0.30292 0.0
H3934 H 0.45438 0.3334 0.29139 0.0
C3935 C 0.39667 0.37348 0.24198 0.0
C3936 C 0.42961 0.35361 0.24954 0.0
H3937 H 0.43462 0.325 0.26994 0.0
C3938 C 0.44443 0.35943 0.24905 0.0
C3939 C 0.42605 0.34104 0.25718 0.0
C3940 C 0.4104 0.33402 0.25768 0.0
C3941 C 0.45575 0.35314 0.25615 0.0
C3942 C 0.4522 0.34049 0.2637 0.0
C3943 C 0.43737 0.33471 0.26421 0.0
C3944 C 0.46364 0.33288 0.27097 0.0
C3945 C 0.47137 0.36027 0.25572 0.0
C3946 C 0.47472 0.32787 0.26343 0.0
C3947 C 0.48458 0.31957 0.27004 0.0
C3948 C 0.48345 0.31594 0.28431 0.0
C3949 C 0.47262 0.32134 0.29193 0.0
C3950 C 0.46283 0.32969 0.28534 0.0
H3951 H 0.47175 0.37171 0.25327 0.0
H3952 H 0.47762 0.3592 0.2659 0.0
H3953 H 0.47694 0.35522 0.24733 0.0
H3954 H 0.4754 0.32991 0.25227 0.0
H3955 H 0.49266 0.31548 0.26379 0.0
H3956 H 0.68355 0.39061 0.20893 0.0
H3957 H 0.69061 0.41122 0.22436 0.0
H3958 H 0.67136 0.38826 0.25917 0.0
H3959 H 0.66452 0.36737 0.24387 0.0
H3960 H 0.66413 0.4177 0.25491 0.0
H3961 H 0.72388 0.413 0.25681 0.0
H3962 H 0.71508 0.41212 0.23941 0.0
H3963 H 0.70997 0.3984 0.25178 0.0
C3964 C 0.68095 0.38985 0.2199 0.0
C3965 C 0.6736 0.37727 0.22519 0.0
C3966 C 0.68493 0.40167 0.22868 0.0
C3967 C 0.68162 0.40119 0.2429 0.0
C3968 C 0.67401 0.3888 0.2482 0.0
H3969 H 0.72517 0.46774 0.29937 0.0
H3970 H 0.71283 0.44466 0.29118 0.0
C3971 C 0.67007 0.37691 0.23943 0.0
C3972 C 0.68635 0.41363 0.25218 0.0
H3973 H 0.71703 0.43474 0.26501 0.0
C3974 C 0.67568 0.42137 0.25729 0.0
C3975 C 0.7014 0.41824 0.25541 0.0
C3976 C 0.71327 0.40996 0.25069 0.0
C3977 C 0.67974 0.43401 0.26504 0.0
C3978 C 0.69484 0.43903 0.26759 0.0
C3979 C 0.70546 0.43092 0.263 0.0
C3980 C 0.70004 0.45306 0.27418 0.0
C3981 C 0.66786 0.44193 0.27033 0.0
C3982 C 0.69662 0.46548 0.26758 0.0
C3983 C 0.70363 0.47871 0.27226 0.0
C3984 C 0.71432 0.47974 0.28352 0.0
C3985 C 0.71705 0.46734 0.29063 0.0
C3986 C 0.71001 0.45412 0.28596 0.0
H3987 H 0.65745 0.43476 0.27143 0.0
H3988 H 0.67131 0.44715 0.28066 0.0
H3989 H 0.66559 0.45022 0.26266 0.0
H3990 H 0.68917 0.46491 0.2583 0.0
H3991 H 0.70128 0.48804 0.26653 0.0
H3992 H 0.66724 0.38178 0.82116 0.0
H3993 H 0.64369 0.37596 0.80759 0.0
H3994 H 0.62314 0.3612 0.84546 0.0
H3995 H 0.64641 0.36728 0.85904 0.0
H3996 H 0.62874 0.34928 0.80464 0.0
H3997 H 0.59291 0.38435 0.82801 0.0
H3998 H 0.61274 0.38756 0.83022 0.0
H3999 H 0.60238 0.37533 0.84148 0.0
C4000 C 0.65759 0.3776 0.82661 0.0
C4001 C 0.65866 0.37492 0.84115 0.0
C4002 C 0.64418 0.37426 0.81886 0.0
C4003 C 0.6316 0.36837 0.82555 0.0
C4004 C 0.63259 0.36606 0.84012 0.0
H4005 H 0.55661 0.31288 0.8206 0.0
H4006 H 0.57737 0.3313 0.82472 0.0
C4007 C 0.64596 0.36934 0.84784 0.0
C4008 C 0.61781 0.36311 0.81729 0.0
H4009 H 0.58057 0.3619 0.81815 0.0
C4010 C 0.61821 0.35233 0.80724 0.0
C4011 C 0.6041 0.36719 0.82062 0.0
C4012 C 0.60302 0.37936 0.83057 0.0
C4013 C 0.6052 0.3446 0.80144 0.0
C4014 C 0.59151 0.34786 0.80577 0.0
C4015 C 0.5911 0.3594 0.81492 0.0
C4016 C 0.57791 0.33791 0.803 0.0
C4017 C 0.60618 0.33226 0.79166 0.0
C4018 C 0.57112 0.33574 0.78943 0.0
C4019 C 0.55912 0.32515 0.78702 0.0
C4020 C 0.55391 0.31658 0.79815 0.0
C4021 C 0.56044 0.3192 0.81178 0.0
C4022 C 0.57227 0.32978 0.81417 0.0
H4023 H 0.61774 0.33061 0.79003 0.0
H4024 H 0.60036 0.3224 0.79596 0.0
H4025 H 0.60071 0.33414 0.78127 0.0
H4026 H 0.5753 0.34199 0.7807 0.0
H4027 H 0.55428 0.32337 0.77642 0.0
H4028 H 0.68543 0.67955 0.82092 0.0
H4029 H 0.69431 0.65745 0.81378 0.0
H4030 H 0.71565 0.65465 0.85504 0.0
H4031 H 0.70666 0.67667 0.86221 0.0
H4032 H 0.72322 0.65241 0.81277 0.0
H4033 H 0.69389 0.61484 0.84905 0.0
H4034 H 0.68873 0.63226 0.84577 0.0
H4035 H 0.70387 0.63002 0.85803 0.0
C4036 C 0.69188 0.67411 0.82849 0.0
C4037 C 0.69538 0.67978 0.84213 0.0
C4038 C 0.69695 0.66151 0.8244 0.0
C4039 C 0.70549 0.65427 0.83392 0.0
C4040 C 0.70882 0.65986 0.8476 0.0
H4041 H 0.76158 0.59063 0.83771 0.0
H4042 H 0.74528 0.60848 0.84087 0.0
C4043 C 0.70377 0.67246 0.85168 0.0
C4044 C 0.71165 0.64135 0.82934 0.0
H4045 H 0.71456 0.60706 0.83827 0.0
C4046 C 0.72114 0.64242 0.81818 0.0
C4047 C 0.70888 0.62829 0.83635 0.0
C4048 C 0.69817 0.62621 0.84787 0.0
C4049 C 0.72858 0.63104 0.81438 0.0
C4050 C 0.72629 0.61816 0.8218 0.0
C4051 C 0.71632 0.61692 0.83258 0.0
C4052 C 0.73534 0.60649 0.81969 0.0
C4053 C 0.73944 0.63313 0.80298 0.0
C4054 C 0.73498 0.59912 0.80677 0.0
C4055 C 0.74438 0.58878 0.8049 0.0
C4056 C 0.75429 0.58569 0.81592 0.0
C4057 C 0.7542 0.59278 0.82894 0.0
C4058 C 0.74483 0.603 0.8308 0.0
H4059 H 0.74174 0.64441 0.79993 0.0
H4060 H 0.74998 0.62933 0.80649 0.0
H4061 H 0.73492 0.62687 0.79349 0.0
H4062 H 0.72756 0.60148 0.79811 0.0
H4063 H 0.74416 0.58349 0.79476 0.0
H4064 H 0.38277 0.68021 0.8337 0.0
H4065 H 0.40285 0.69474 0.82238 0.0
H4066 H 0.40907 0.72275 0.85864 0.0
H4067 H 0.38914 0.7082 0.86997 0.0
H4068 H 0.40542 0.72371 0.81574 0.0
H4069 H 0.45053 0.71235 0.85336 0.0
H4070 H 0.43274 0.70172 0.85222 0.0
H4071 H 0.43536 0.71826 0.86184 0.0
C4072 C 0.38857 0.6894 0.83926 0.0
C4073 C 0.38475 0.69294 0.85282 0.0
C4074 C 0.39996 0.69768 0.8328 0.0
C4075 C 0.40765 0.70961 0.83982 0.0
C4076 C 0.40354 0.71336 0.85321 0.0
H4077 H 0.46967 0.7812 0.82867 0.0
H4078 H 0.45144 0.76199 0.83557 0.0
C4079 C 0.39216 0.70511 0.85965 0.0
C4080 C 0.41972 0.71845 0.83308 0.0
H4081 H 0.4557 0.73246 0.83855 0.0
C4082 C 0.41649 0.72546 0.82057 0.0
C4083 C 0.43415 0.7206 0.83937 0.0
C4084 C 0.43847 0.71273 0.85236 0.0
C4085 C 0.42713 0.73525 0.81463 0.0
C4086 C 0.44135 0.7379 0.82133 0.0
C4087 C 0.44475 0.73042 0.83349 0.0
C4088 C 0.45242 0.74937 0.81675 0.0
C4089 C 0.42292 0.7432 0.80166 0.0
C4090 C 0.45907 0.74858 0.80386 0.0
C4091 C 0.46959 0.7596 0.79985 0.0
C4092 C 0.47356 0.77154 0.80868 0.0
C4093 C 0.46686 0.77219 0.82159 0.0
C4094 C 0.45645 0.76121 0.82558 0.0
H4095 H 0.41092 0.74126 0.79885 0.0
H4096 H 0.42618 0.75476 0.80329 0.0
H4097 H 0.42885 0.73981 0.79263 0.0
H4098 H 0.4562 0.73943 0.79698 0.0
H4099 H 0.47458 0.75878 0.78986 0.0
H4100 H 0.35767 0.40657 0.86433 0.0
H4101 H 0.35027 0.42758 0.85253 0.0
H4102 H 0.30469 0.41008 0.85411 0.0
H4103 H 0.31201 0.38922 0.86613 0.0
H4104 H 0.33558 0.43081 0.82786 0.0
H4105 H 0.30354 0.4487 0.87074 0.0
H4106 H 0.31533 0.43504 0.87321 0.0
H4107 H 0.29712 0.4309 0.86502 0.0
C4108 C 0.34607 0.4072 0.86215 0.0
C4109 C 0.33542 0.39627 0.86629 0.0
C4110 C 0.34185 0.41924 0.85543 0.0
C4111 C 0.3269 0.4206 0.85268 0.0
C4112 C 0.31627 0.40953 0.8565 0.0
H4113 H 0.2789 0.48047 0.80705 0.0
H4114 H 0.28701 0.45989 0.81881 0.0
C4115 C 0.32047 0.39757 0.86333 0.0
C4116 C 0.32244 0.43344 0.84556 0.0
H4117 H 0.30085 0.45996 0.84856 0.0
C4118 C 0.32807 0.43723 0.83245 0.0
C4119 C 0.31267 0.4419 0.85154 0.0
C4120 C 0.30693 0.43903 0.86596 0.0
C4121 C 0.32397 0.44902 0.82507 0.0
C4122 C 0.314 0.45726 0.83094 0.0
C4123 C 0.30842 0.45355 0.84405 0.0
C4124 C 0.30924 0.46979 0.82364 0.0
C4125 C 0.33009 0.45247 0.81091 0.0
C4126 C 0.31903 0.48226 0.82252 0.0
C4127 C 0.31439 0.49419 0.81596 0.0
C4128 C 0.29983 0.49393 0.8103 0.0
C4129 C 0.29011 0.48129 0.81139 0.0
C4130 C 0.29474 0.46942 0.81806 0.0
H4131 H 0.33582 0.44383 0.80682 0.0
H4132 H 0.32114 0.45447 0.80313 0.0
H4133 H 0.33806 0.46227 0.81189 0.0
H4134 H 0.33023 0.48281 0.8269 0.0
H4135 H 0.32221 0.50366 0.81556 0.0
H4136 H 0.69377 0.63458 0.19416 0.0
H4137 H 0.70599 0.61571 0.20522 0.0
H4138 H 0.69812 0.6317 0.24628 0.0
H4139 H 0.68556 0.65046 0.23518 0.0
H4140 H 0.73012 0.61596 0.22345 0.0
H4141 H 0.68043 0.59063 0.24867 0.0
H4142 H 0.67962 0.60417 0.23555 0.0
H4143 H 0.68561 0.60892 0.25346 0.0
C4144 C 0.69477 0.63415 0.20555 0.0
C4145 C 0.68879 0.64405 0.21382 0.0
C4146 C 0.70174 0.62334 0.21187 0.0
C4147 C 0.70279 0.62209 0.2266 0.0
C4148 C 0.69719 0.63223 0.2349 0.0
H4149 H 0.73832 0.55868 0.28052 0.0
H4150 H 0.7282 0.57963 0.27155 0.0
C4151 C 0.69016 0.64303 0.22857 0.0
C4152 C 0.7096 0.61008 0.23314 0.0
H4153 H 0.70258 0.581 0.25391 0.0
C4154 C 0.72408 0.60833 0.23011 0.0
C4155 C 0.70176 0.60007 0.24185 0.0
C4156 C 0.68595 0.60092 0.24499 0.0
C4157 C 0.73092 0.59694 0.23556 0.0
C4158 C 0.72303 0.58687 0.24414 0.0
C4159 C 0.70864 0.58872 0.24735 0.0
C4160 C 0.72936 0.57414 0.24958 0.0
C4161 C 0.74662 0.59587 0.23221 0.0
C4162 C 0.73323 0.56394 0.24024 0.0
C4163 C 0.73891 0.55184 0.24533 0.0
C4164 C 0.74085 0.5496 0.25992 0.0
C4165 C 0.73689 0.55986 0.26924 0.0
C4166 C 0.73115 0.57194 0.26413 0.0
H4167 H 0.75232 0.60618 0.22878 0.0
H4168 H 0.75292 0.59221 0.24149 0.0
H4169 H 0.74671 0.58806 0.22351 0.0
H4170 H 0.73166 0.56522 0.22897 0.0
H4171 H 0.74154 0.54415 0.23776 0.0
H4172 H 0.72641 0.3952 0.85325 0.0
H4173 H 0.74279 0.41751 0.85159 0.0
H4174 H 0.70556 0.4408 0.853 0.0
H4175 H 0.68919 0.41863 0.85497 0.0
H4176 H 0.7417 0.43792 0.83055 0.0
H4177 H 0.73493 0.46084 0.88315 0.0
H4178 H 0.72974 0.44228 0.87892 0.0
H4179 H 0.71777 0.45508 0.87361 0.0
C4180 C 0.72175 0.40509 0.85337 0.0
C4181 C 0.70651 0.40516 0.85424 0.0
C4182 C 0.73111 0.41781 0.85238 0.0
C4183 C 0.72541 0.4308 0.85241 0.0
C4184 C 0.71021 0.4309 0.85324 0.0
H4185 H 0.75257 0.51157 0.81948 0.0
H4186 H 0.742 0.48772 0.82526 0.0
C4187 C 0.70085 0.41821 0.85417 0.0
C4188 C 0.73518 0.44426 0.85082 0.0
H4189 H 0.74523 0.47695 0.8659 0.0
C4190 C 0.74265 0.44639 0.83836 0.0
C4191 C 0.73656 0.45521 0.86111 0.0
C4192 C 0.72945 0.45322 0.87502 0.0
C4193 C 0.75084 0.45945 0.8356 0.0
C4194 C 0.75143 0.47069 0.8455 0.0
C4195 C 0.74463 0.46834 0.85828 0.0
C4196 C 0.75808 0.4852 0.84223 0.0
C4197 C 0.75857 0.46122 0.822 0.0
C4198 C 0.77043 0.49185 0.85012 0.0
C4199 C 0.77664 0.50556 0.84676 0.0
C4200 C 0.7705 0.51285 0.83552 0.0
C4201 C 0.75787 0.5062 0.82794 0.0
C4202 C 0.75175 0.49255 0.83125 0.0
H4203 H 0.76045 0.45085 0.8175 0.0
H4204 H 0.75165 0.46641 0.81419 0.0
H4205 H 0.76932 0.46801 0.8236 0.0
H4206 H 0.77539 0.48636 0.85871 0.0
H4207 H 0.78637 0.51032 0.85278 0.0
H4208 H 0.63482 0.71033 0.85257 0.0
H4209 H 0.61483 0.7231 0.84367 0.0
H4210 H 0.6378 0.76204 0.86142 0.0
H4211 H 0.65819 0.74953 0.86969 0.0
H4212 H 0.59657 0.73745 0.85743 0.0
H4213 H 0.6282 0.77437 0.82205 0.0
H4214 H 0.63556 0.75932 0.82976 0.0
H4215 H 0.63579 0.77541 0.83986 0.0
C4216 C 0.63579 0.72166 0.85437 0.0
C4217 C 0.64825 0.72887 0.8618 0.0
C4218 C 0.62425 0.72894 0.84937 0.0
C4219 C 0.62487 0.7436 0.85163 0.0
C4220 C 0.63717 0.7508 0.85922 0.0
H4221 H 0.56294 0.8047 0.83558 0.0
H4222 H 0.58353 0.79224 0.84379 0.0
C4223 C 0.64876 0.74355 0.86415 0.0
C4224 C 0.61244 0.75125 0.84642 0.0
H4225 H 0.60397 0.77915 0.82636 0.0
C4226 C 0.5982 0.74651 0.85057 0.0
C4227 C 0.6145 0.76309 0.83743 0.0
C4228 C 0.62931 0.76827 0.83189 0.0
C4229 C 0.58607 0.75338 0.84619 0.0
C4230 C 0.58818 0.76529 0.83735 0.0
C4231 C 0.60238 0.77006 0.83319 0.0
C4232 C 0.57573 0.77286 0.83224 0.0
C4233 C 0.5711 0.74803 0.85126 0.0
C4234 C 0.5646 0.76618 0.82288 0.0
C4235 C 0.55284 0.77329 0.81814 0.0
C4236 C 0.55192 0.78724 0.82269 0.0
C4237 C 0.56319 0.79393 0.83199 0.0
C4238 C 0.57501 0.78685 0.83664 0.0
H4239 H 0.5718 0.74067 0.86023 0.0
H4240 H 0.56536 0.75699 0.85455 0.0
H4241 H 0.56433 0.74226 0.84251 0.0
H4242 H 0.56501 0.75545 0.81923 0.0
H4243 H 0.54433 0.76775 0.81109 0.0
H4244 H 0.29544 0.66654 0.86933 0.0
H4245 H 0.27952 0.64427 0.86356 0.0
H4246 H 0.31783 0.62306 0.85918 0.0
H4247 H 0.33375 0.64506 0.86514 0.0
H4248 H 0.29524 0.62207 0.83487 0.0
H4249 H 0.27329 0.6051 0.88647 0.0
H4250 H 0.27384 0.62339 0.8814 0.0
H4251 H 0.29068 0.61621 0.88539 0.0
C4252 C 0.30045 0.65707 0.86739 0.0
C4253 C 0.31585 0.65759 0.86754 0.0
C4254 C 0.29135 0.64438 0.8641 0.0
C4255 C 0.29754 0.63208 0.861 0.0
C4256 C 0.31287 0.63248 0.86155 0.0
H4257 H 0.2772 0.5449 0.84348 0.0
H4258 H 0.28251 0.56807 0.8551 0.0
C4259 C 0.32194 0.64508 0.86485 0.0
C4260 C 0.28827 0.61899 0.85598 0.0
H4261 H 0.26686 0.58958 0.86705 0.0
C4262 C 0.28883 0.61504 0.84182 0.0
C4263 C 0.28005 0.6099 0.86516 0.0
C4264 C 0.27937 0.61374 0.88049 0.0
C4265 C 0.28179 0.60197 0.83666 0.0
C4266 C 0.27376 0.59269 0.84588 0.0
C4267 C 0.27288 0.5968 0.85999 0.0
C4268 C 0.26763 0.57816 0.84124 0.0
C4269 C 0.28363 0.59791 0.82153 0.0
C4270 C 0.25685 0.57598 0.83015 0.0
C4271 C 0.25386 0.56277 0.8234 0.0
C4272 C 0.26157 0.55152 0.8277 0.0
C4273 C 0.27116 0.55336 0.8398 0.0
C4274 C 0.2742 0.5666 0.84649 0.0
H4275 H 0.29234 0.60516 0.81664 0.0
H4276 H 0.28646 0.58694 0.82081 0.0
H4277 H 0.27314 0.59835 0.81529 0.0
H4278 H 0.25148 0.58474 0.8261 0.0
H4279 H 0.24625 0.56167 0.81422 0.0
H4280 H 0.39255 0.36151 0.86107 0.0
H4281 H 0.41468 0.35206 0.85381 0.0
H4282 H 0.38879 0.31191 0.84351 0.0
H4283 H 0.36681 0.32117 0.85119 0.0
H4284 H 0.41416 0.30792 0.85698 0.0
H4285 H 0.42559 0.34621 0.81402 0.0
H4286 H 0.42514 0.35454 0.83094 0.0
H4287 H 0.40869 0.34463 0.82306 0.0
C4288 C 0.39164 0.3506 0.85747 0.0
C4289 C 0.37799 0.34196 0.85703 0.0
C4290 C 0.40427 0.34526 0.85314 0.0
C4291 C 0.40342 0.3313 0.84791 0.0
C4292 C 0.38979 0.32269 0.84751 0.0
H4293 H 0.46722 0.2964 0.7977 0.0
H4294 H 0.44605 0.30634 0.80642 0.0
C4295 C 0.37722 0.32798 0.85194 0.0
C4296 C 0.41665 0.32556 0.84286 0.0
H4297 H 0.44366 0.331 0.81933 0.0
C4298 C 0.4206 0.31298 0.84874 0.0
C4299 C 0.42495 0.332 0.83194 0.0
C4300 C 0.42082 0.34501 0.82451 0.0
C4301 C 0.4326 0.30672 0.8441 0.0
C4302 C 0.4412 0.3134 0.8335 0.0
C4303 C 0.43719 0.32593 0.82755 0.0
C4304 C 0.4542 0.30742 0.82824 0.0
C4305 C 0.43565 0.29277 0.85034 0.0
C4306 C 0.46598 0.30487 0.83753 0.0
C4307 C 0.47806 0.2991 0.83257 0.0
C4308 C 0.47877 0.29594 0.81816 0.0
C4309 C 0.46709 0.29877 0.80883 0.0
C4310 C 0.45495 0.30444 0.81382 0.0
H4311 H 0.42576 0.28712 0.85503 0.0
H4312 H 0.43937 0.28574 0.84228 0.0
H4313 H 0.44445 0.29477 0.85885 0.0
H4314 H 0.46592 0.30745 0.84863 0.0
H4315 H 0.48697 0.29733 0.84 0.0
H4316 H 0.33583 0.40272 0.23983 0.0
H4317 H 0.32498 0.4228 0.24899 0.0
H4318 H 0.31587 0.43649 0.20667 0.0
H4319 H 0.32718 0.41666 0.19733 0.0
H4320 H 0.33532 0.45355 0.24106 0.0
H4321 H 0.27585 0.43529 0.22879 0.0
H4322 H 0.28912 0.4229 0.23124 0.0
H4323 H 0.28888 0.43331 0.21561 0.0
C4324 C 0.33164 0.41001 0.23241 0.0
C4325 C 0.33253 0.40802 0.2178 0.0
C4326 C 0.32531 0.42144 0.23769 0.0
C4327 C 0.31953 0.43109 0.22852 0.0
C4328 C 0.32011 0.42907 0.21394 0.0
H4329 H 0.27928 0.5065 0.25522 0.0
H4330 H 0.28644 0.48759 0.24014 0.0
C4331 C 0.32655 0.41767 0.20862 0.0
C4332 C 0.31367 0.44364 0.23437 0.0
H4333 H 0.28182 0.45691 0.24127 0.0
C4334 C 0.32363 0.45435 0.24099 0.0
C4335 C 0.29843 0.44476 0.23411 0.0
C4336 C 0.28735 0.43348 0.22711 0.0
C4337 C 0.31877 0.46596 0.24768 0.0
C4338 C 0.30348 0.46674 0.24812 0.0
C4339 C 0.29351 0.45631 0.24099 0.0
C4340 C 0.29784 0.47754 0.25707 0.0
C4341 C 0.33011 0.47726 0.25435 0.0
C4342 C 0.30134 0.47786 0.2716 0.0
C4343 C 0.29737 0.48857 0.28011 0.0
C4344 C 0.28959 0.49921 0.27439 0.0
C4345 C 0.28529 0.49848 0.25993 0.0
C4346 C 0.28941 0.48771 0.25132 0.0
H4347 H 0.34081 0.4776 0.24935 0.0
H4348 H 0.32637 0.48789 0.25355 0.0
H4349 H 0.33198 0.47487 0.26567 0.0
H4350 H 0.30748 0.46995 0.27637 0.0
H4351 H 0.30066 0.48862 0.29123 0.0
H4352 H 0.64619 0.31561 0.20601 0.0
H4353 H 0.62267 0.30098 0.20903 0.0
H4354 H 0.6017 0.33865 0.21369 0.0
H4355 H 0.62513 0.35335 0.2106 0.0
H4356 H 0.59708 0.31964 0.23538 0.0
H4357 H 0.58488 0.29237 0.1835 0.0
H4358 H 0.60297 0.29117 0.19126 0.0
H4359 H 0.59804 0.30812 0.18599 0.0
C4360 C 0.63651 0.32078 0.2074 0.0
C4361 C 0.63754 0.33564 0.20814 0.0
C4362 C 0.62306 0.3124 0.20907 0.0
C4363 C 0.61041 0.31873 0.21141 0.0
C4364 C 0.61134 0.33356 0.21184 0.0
H4365 H 0.52035 0.2858 0.22616 0.0
H4366 H 0.54234 0.29593 0.21439 0.0
C4367 C 0.62475 0.34194 0.21018 0.0
C4368 C 0.59654 0.30998 0.21479 0.0
H4369 H 0.56994 0.28382 0.2022 0.0
C4370 C 0.59112 0.31187 0.22809 0.0
C4371 C 0.58877 0.29988 0.20524 0.0
C4372 C 0.59386 0.29781 0.19064 0.0
C4373 C 0.57825 0.3038 0.23218 0.0
C4374 C 0.57067 0.29346 0.22279 0.0
C4375 C 0.5759 0.29167 0.2094 0.0
C4376 C 0.55723 0.28462 0.22698 0.0
C4377 C 0.5728 0.30639 0.24656 0.0
C4378 C 0.55831 0.27437 0.23739 0.0
C4379 C 0.54582 0.2686 0.24409 0.0
C4380 C 0.53206 0.27297 0.24048 0.0
C4381 C 0.53078 0.28215 0.22907 0.0
C4382 C 0.54333 0.28798 0.22238 0.0
H4383 H 0.57849 0.31633 0.25156 0.0
H4384 H 0.56078 0.30698 0.24584 0.0
H4385 H 0.5748 0.29744 0.25353 0.0
H4386 H 0.56897 0.27164 0.24104 0.0
H4387 H 0.54704 0.26149 0.25281 0.0
H4388 H 0.37128 0.72806 0.18685 0.0
H4389 H 0.39378 0.74391 0.19372 0.0
H4390 H 0.41732 0.70774 0.19942 0.0
H4391 H 0.39513 0.69198 0.19216 0.0
H4392 H 0.40774 0.74412 0.21926 0.0
H4393 H 0.44705 0.73418 0.17974 0.0
H4394 H 0.42747 0.72908 0.17682 0.0
H4395 H 0.43866 0.71774 0.18646 0.0
C4396 C 0.38137 0.72354 0.18919 0.0
C4397 C 0.38142 0.70877 0.18905 0.0
C4398 C 0.39419 0.7326 0.19315 0.0
C4399 C 0.4073 0.72704 0.19689 0.0
C4400 C 0.40746 0.71232 0.19626 0.0
H4401 H 0.47968 0.73394 0.25112 0.0
H4402 H 0.46024 0.72973 0.23254 0.0
C4403 C 0.3947 0.7033 0.19231 0.0
C4404 C 0.42033 0.73623 0.20317 0.0
H4405 H 0.45783 0.74115 0.2033 0.0
C4406 C 0.41867 0.74386 0.21554 0.0
C4407 C 0.43457 0.73599 0.19825 0.0
C4408 C 0.43701 0.72892 0.18449 0.0
C4409 C 0.43095 0.75012 0.2238 0.0
C4410 C 0.44521 0.74875 0.21951 0.0
C4411 C 0.44686 0.7421 0.20659 0.0
C4412 C 0.45824 0.7519 0.22939 0.0
C4413 C 0.42864 0.75715 0.23763 0.0
C4414 C 0.46382 0.76582 0.23351 0.0
C4415 C 0.47506 0.76829 0.24417 0.0
C4416 C 0.48071 0.75684 0.25087 0.0
C4417 C 0.47547 0.74298 0.24625 0.0
C4418 C 0.46441 0.74055 0.23558 0.0
H4419 H 0.41681 0.75657 0.23982 0.0
H4420 H 0.43442 0.75207 0.24641 0.0
H4421 H 0.43337 0.76846 0.23746 0.0
H4422 H 0.45921 0.77472 0.22878 0.0
H4423 H 0.47888 0.77908 0.24753 0.0
loop_
_geom_bond_atom_site_label_1
_geom_bond_atom_site_label_2
_geom_bond_distance
_geom_bond_site_symmetry_2
_ccdc_geom_bond_type
H0 C7 0.929 . S
H1 C10 0.930 . S
H2 C12 0.929 . S
H3 C4 0.969 . S
C4 H3 0.969 . S
C4 O5 1.550 . S
C4 H6 0.973 . S
O5 C4 1.550 . S
O5 C11 1.412 . S
H6 C4 0.973 . S
C7 H0 0.929 . S
C7 C8 1.400 . S
C7 C9 1.364 . S
C8 C7 1.400 . S
C8 C12 1.377 . S
C9 C7 1.364 . S
C9 C10 1.374 . S
C10 H1 0.930 . S
C10 C9 1.374 . S
C10 C11 1.383 . S
C11 O5 1.412 . S
C11 C10 1.383 . S
C11 C12 1.394 . S
C12 H2 0.929 . S
C12 C8 1.377 . S
C12 C11 1.394 . S
H13 C20 0.929 . S
H14 C23 0.930 . S
H15 C25 0.929 . S
H16 C17 0.969 . S
C17 H16 0.969 . S
C17 O18 1.550 . S
C17 H19 0.973 . S
O18 C17 1.550 . S
O18 C24 1.412 . S
H19 C17 0.973 . S
C20 H13 0.929 . S
C20 C21 1.400 . S
C20 C22 1.364 . S
C21 C20 1.400 . S
C21 C25 1.377 . S
C22 C20 1.364 . S
C22 C23 1.374 . S
C23 H14 0.930 . S
C23 C22 1.374 . S
C23 C24 1.383 . S
C24 O18 1.412 . S
C24 C23 1.383 . S
C24 C25 1.394 . S
C25 H15 0.929 . S
C25 C21 1.377 . S
C25 C24 1.394 . S
H26 C33 0.929 . S
H27 C36 0.930 . S
H28 C38 0.929 . S
H29 C30 0.969 . S
C30 H29 0.969 . S
C30 O31 1.550 . S
C30 H32 0.973 . S
O31 C30 1.550 . S
O31 C37 1.412 . S
H32 C30 0.973 . S
C33 H26 0.929 . S
C33 C34 1.400 . S
C33 C35 1.364 . S
C34 C33 1.400 . S
C34 C38 1.377 . S
C35 C33 1.364 . S
C35 C36 1.374 . S
C36 H27 0.930 . S
C36 C35 1.374 . S
C36 C37 1.383 . S
C37 O31 1.412 . S
C37 C36 1.383 . S
C37 C38 1.394 . S
C38 H28 0.929 . S
C38 C34 1.377 . S
C38 C37 1.394 . S
H39 C46 0.929 . S
H40 C49 0.930 . S
H41 C51 0.929 . S
H42 C43 0.969 . S
C43 H42 0.969 . S
C43 O44 1.550 . S
C43 H45 0.973 . S
O44 C43 1.550 . S
O44 C50 1.412 . S
H45 C43 0.973 . S
C46 H39 0.929 . S
C46 C47 1.400 . S
C46 C48 1.364 . S
C47 C46 1.400 . S
C47 C51 1.377 . S
C48 C46 1.364 . S
C48 C49 1.374 . S
C49 H40 0.930 . S
C49 C48 1.374 . S
C49 C50 1.383 . S
C50 O44 1.412 . S
C50 C49 1.383 . S
C50 C51 1.394 . S
C51 H41 0.929 . S
C51 C47 1.377 . S
C51 C50 1.394 . S
H52 C59 0.929 . S
H53 C62 0.930 . S
H54 C64 0.929 . S
H55 C56 0.969 . S
C56 H55 0.969 . S
C56 O57 1.550 . S
C56 H58 0.973 . S
O57 C56 1.550 . S
O57 C63 1.412 . S
H58 C56 0.973 . S
C59 H52 0.929 . S
C59 C60 1.400 . S
C59 C61 1.364 . S
C60 C59 1.400 . S
C60 C64 1.377 . S
C61 C59 1.364 . S
C61 C62 1.374 . S
C62 H53 0.930 . S
C62 C61 1.374 . S
C62 C63 1.383 . S
C63 O57 1.412 . S
C63 C62 1.383 . S
C63 C64 1.394 . S
C64 H54 0.929 . S
C64 C60 1.377 . S
C64 C63 1.394 . S
H65 C72 0.929 . S
H66 C75 0.930 . S
H67 C77 0.929 . S
H68 C69 0.969 . S
C69 H68 0.969 . S
C69 O70 1.550 . S
C69 H71 0.973 . S
O70 C69 1.550 . S
O70 C76 1.412 . S
H71 C69 0.973 . S
C72 H65 0.929 . S
C72 C73 1.400 . S
C72 C74 1.364 . S
C73 C72 1.400 . S
C73 C77 1.377 . S
C74 C72 1.364 . S
C74 C75 1.374 . S
C75 H66 0.930 . S
C75 C74 1.374 . S
C75 C76 1.383 . S
C76 O70 1.412 . S
C76 C75 1.383 . S
C76 C77 1.394 . S
C77 H67 0.929 . S
C77 C73 1.377 . S
C77 C76 1.394 . S
H78 C85 0.929 . S
H79 C88 0.930 . S
H80 C90 0.929 . S
H81 C82 0.969 . S
C82 H81 0.969 . S
C82 O83 1.550 . S
C82 H84 0.973 . S
O83 C82 1.550 . S
O83 C89 1.412 . S
H84 C82 0.973 . S
C85 H78 0.929 . S
C85 C86 1.400 . S
C85 C87 1.364 . S
C86 C85 1.400 . S
C86 C90 1.377 . S
C87 C85 1.364 . S
C87 C88 1.374 . S
C88 H79 0.930 . S
C88 C87 1.374 . S
C88 C89 1.383 . S
C89 O83 1.412 . S
C89 C88 1.383 . S
C89 C90 1.394 . S
C90 H80 0.929 . S
C90 C86 1.377 . S
C90 C89 1.394 . S
H91 C98 0.929 . S
H92 C101 0.930 . S
H93 C103 0.929 . S
H94 C95 0.969 . S
C95 H94 0.969 . S
C95 O96 1.550 . S
C95 H97 0.973 . S
O96 C95 1.550 . S
O96 C102 1.412 . S
H97 C95 0.973 . S
C98 H91 0.929 . S
C98 C99 1.400 . S
C98 C100 1.364 . S
C99 C98 1.400 . S
C99 C103 1.377 . S
C100 C98 1.364 . S
C100 C101 1.374 . S
C101 H92 0.930 . S
C101 C100 1.374 . S
C101 C102 1.383 . S
C102 O96 1.412 . S
C102 C101 1.383 . S
C102 C103 1.394 . S
C103 H93 0.929 . S
C103 C99 1.377 . S
C103 C102 1.394 . S
H104 C111 0.929 . S
H105 C114 0.930 . S
H106 C116 0.929 . S
H107 C108 0.969 . S
C108 H107 0.969 . S
C108 O109 1.550 . S
C108 H110 0.973 . S
O109 C108 1.550 . S
O109 C115 1.412 . S
H110 C108 0.973 . S
C111 H104 0.929 . S
C111 C112 1.400 . S
C111 C113 1.364 . S
C112 C111 1.400 . S
C112 C116 1.377 . S
C113 C111 1.364 . S
C113 C114 1.374 . S
C114 H105 0.930 . S
C114 C113 1.374 . S
C114 C115 1.383 . S
C115 O109 1.412 . S
C115 C114 1.383 . S
C115 C116 1.394 . S
C116 H106 0.929 . S
C116 C112 1.377 . S
C116 C115 1.394 . S
H117 C124 0.929 . S
H118 C127 0.930 . S
H119 C129 0.929 . S
H120 C121 0.969 . S
C121 H120 0.969 . S
C121 O122 1.550 . S
C121 H123 0.973 . S
O122 C121 1.550 . S
O122 C128 1.412 . S
H123 C121 0.973 . S
C124 H117 0.929 . S
C124 C125 1.400 . S
C124 C126 1.364 . S
C125 C124 1.400 . S
C125 C129 1.377 . S
C126 C124 1.364 . S
C126 C127 1.374 . S
C127 H118 0.930 . S
C127 C126 1.374 . S
C127 C128 1.383 . S
C128 O122 1.412 . S
C128 C127 1.383 . S
C128 C129 1.394 . S
C129 H119 0.929 . S
C129 C125 1.377 . S
C129 C128 1.394 . S
H130 C137 0.929 . S
H131 C140 0.930 . S
H132 C142 0.929 . S
H133 C134 0.969 . S
C134 H133 0.969 . S
C134 O135 1.550 . S
C134 H136 0.973 . S
O135 C134 1.550 . S
O135 C141 1.412 . S
H136 C134 0.973 . S
C137 H130 0.929 . S
C137 C138 1.400 . S
C137 C139 1.364 . S
C138 C137 1.400 . S
C138 C142 1.377 . S
C139 C137 1.364 . S
C139 C140 1.374 . S
C140 H131 0.930 . S
C140 C139 1.374 . S
C140 C141 1.383 . S
C141 O135 1.412 . S
C141 C140 1.383 . S
C141 C142 1.394 . S
C142 H132 0.929 . S
C142 C138 1.377 . S
C142 C141 1.394 . S
H143 C150 0.929 . S
H144 C153 0.930 . S
H145 C155 0.929 . S
H146 C147 0.969 . S
C147 H146 0.969 . S
C147 O148 1.550 . S
C147 H149 0.973 . S
O148 C147 1.550 . S
O148 C154 1.412 . S
H149 C147 0.973 . S
C150 H143 0.929 . S
C150 C151 1.400 . S
C150 C152 1.364 . S
C151 C150 1.400 . S
C151 C155 1.377 . S
C152 C150 1.364 . S
C152 C153 1.374 . S
C153 H144 0.930 . S
C153 C152 1.374 . S
C153 C154 1.383 . S
C154 O148 1.412 . S
C154 C153 1.383 . S
C154 C155 1.394 . S
C155 H145 0.929 . S
C155 C151 1.377 . S
C155 C154 1.394 . S
H156 C163 0.929 . S
H157 C166 0.930 . S
H158 C168 0.929 . S
H159 C160 0.969 . S
C160 H159 0.969 . S
C160 O161 1.550 . S
C160 H162 0.973 . S
O161 C160 1.550 . S
O161 C167 1.412 . S
H162 C160 0.973 . S
C163 H156 0.929 . S
C163 C164 1.400 . S
C163 C165 1.364 . S
C164 C163 1.400 . S
C164 C168 1.377 . S
C165 C163 1.364 . S
C165 C166 1.374 . S
C166 H157 0.930 . S
C166 C165 1.374 . S
C166 C167 1.383 . S
C167 O161 1.412 . S
C167 C166 1.383 . S
C167 C168 1.394 . S
C168 H158 0.929 . S
C168 C164 1.377 . S
C168 C167 1.394 . S
H169 C176 0.929 . S
H170 C179 0.930 . S
H171 C181 0.929 . S
H172 C173 0.969 . S
C173 H172 0.969 . S
C173 O174 1.550 . S
C173 H175 0.973 . S
O174 C173 1.550 . S
O174 C180 1.412 . S
H175 C173 0.973 . S
C176 H169 0.929 . S
C176 C177 1.400 . S
C176 C178 1.364 . S
C177 C176 1.400 . S
C177 C181 1.377 . S
C178 C176 1.364 . S
C178 C179 1.374 . S
C179 H170 0.930 . S
C179 C178 1.374 . S
C179 C180 1.383 . S
C180 O174 1.412 . S
C180 C179 1.383 . S
C180 C181 1.394 . S
C181 H171 0.929 . S
C181 C177 1.377 . S
C181 C180 1.394 . S
H182 C189 0.929 . S
H183 C192 0.930 . S
H184 C194 0.929 . S
H185 C186 0.969 . S
C186 H185 0.969 . S
C186 O187 1.550 . S
C186 H188 0.973 . S
O187 C186 1.550 . S
O187 C193 1.412 . S
H188 C186 0.973 . S
C189 H182 0.929 . S
C189 C190 1.400 . S
C189 C191 1.364 . S
C190 C189 1.400 . S
C190 C194 1.377 . S
C191 C189 1.364 . S
C191 C192 1.374 . S
C192 H183 0.930 . S
C192 C191 1.374 . S
C192 C193 1.383 . S
C193 O187 1.412 . S
C193 C192 1.383 . S
C193 C194 1.394 . S
C194 H184 0.929 . S
C194 C190 1.377 . S
C194 C193 1.394 . S
H195 C202 0.929 . S
H196 C205 0.930 . S
H197 C207 0.929 . S
H198 C199 0.969 . S
C199 H198 0.969 . S
C199 O200 1.550 . S
C199 H201 0.973 . S
O200 C199 1.550 . S
O200 C206 1.412 . S
H201 C199 0.973 . S
C202 H195 0.929 . S
C202 C203 1.400 . S
C202 C204 1.364 . S
C203 C202 1.400 . S
C203 C207 1.377 . S
C204 C202 1.364 . S
C204 C205 1.374 . S
C205 H196 0.930 . S
C205 C204 1.374 . S
C205 C206 1.383 . S
C206 O200 1.412 . S
C206 C205 1.383 . S
C206 C207 1.394 . S
C207 H197 0.929 . S
C207 C203 1.377 . S
C207 C206 1.394 . S
H208 C215 0.929 . S
H209 C218 0.930 . S
H210 C220 0.929 . S
H211 C212 0.969 . S
C212 H211 0.969 . S
C212 O213 1.550 . S
C212 H214 0.973 . S
O213 C212 1.550 . S
O213 C219 1.412 . S
H214 C212 0.973 . S
C215 H208 0.929 . S
C215 C216 1.400 . S
C215 C217 1.364 . S
C216 C215 1.400 . S
C216 C220 1.377 . S
C217 C215 1.364 . S
C217 C218 1.374 . S
C218 H209 0.930 . S
C218 C217 1.374 . S
C218 C219 1.383 . S
C219 O213 1.412 . S
C219 C218 1.383 . S
C219 C220 1.394 . S
C220 H210 0.929 . S
C220 C216 1.377 . S
C220 C219 1.394 . S
H221 C228 0.929 . S
H222 C231 0.930 . S
H223 C233 0.929 . S
H224 C225 0.969 . S
C225 H224 0.969 . S
C225 O226 1.550 . S
C225 H227 0.973 . S
O226 C225 1.550 . S
O226 C232 1.412 . S
H227 C225 0.973 . S
C228 H221 0.929 . S
C228 C229 1.400 . S
C228 C230 1.364 . S
C229 C228 1.400 . S
C229 C233 1.377 . S
C230 C228 1.364 . S
C230 C231 1.374 . S
C231 H222 0.930 . S
C231 C230 1.374 . S
C231 C232 1.383 . S
C232 O226 1.412 . S
C232 C231 1.383 . S
C232 C233 1.394 . S
C233 H223 0.929 . S
C233 C229 1.377 . S
C233 C232 1.394 . S
H234 C241 0.929 . S
H235 C244 0.930 . S
H236 C246 0.929 . S
H237 C238 0.969 . S
C238 H237 0.969 . S
C238 O239 1.550 . S
C238 H240 0.973 . S
O239 C238 1.550 . S
O239 C245 1.412 . S
H240 C238 0.973 . S
C241 H234 0.929 . S
C241 C242 1.400 . S
C241 C243 1.364 . S
C242 C241 1.400 . S
C242 C246 1.377 . S
C243 C241 1.364 . S
C243 C244 1.374 . S
C244 H235 0.930 . S
C244 C243 1.374 . S
C244 C245 1.383 . S
C245 O239 1.412 . S
C245 C244 1.383 . S
C245 C246 1.394 . S
C246 H236 0.929 . S
C246 C242 1.377 . S
C246 C245 1.394 . S
H247 C254 0.929 . S
H248 C257 0.930 . S
H249 C259 0.929 . S
H250 C251 0.969 . S
C251 H250 0.969 . S
C251 O252 1.550 . S
C251 H253 0.973 . S
O252 C251 1.550 . S
O252 C258 1.412 . S
H253 C251 0.973 . S
C254 H247 0.929 . S
C254 C255 1.400 . S
C254 C256 1.364 . S
C255 C254 1.400 . S
C255 C259 1.377 . S
C256 C254 1.364 . S
C256 C257 1.374 . S
C257 H248 0.930 . S
C257 C256 1.374 . S
C257 C258 1.383 . S
C258 O252 1.412 . S
C258 C257 1.383 . S
C258 C259 1.394 . S
C259 H249 0.929 . S
C259 C255 1.377 . S
C259 C258 1.394 . S
H260 C267 0.929 . S
H261 C270 0.930 . S
H262 C272 0.929 . S
H263 C264 0.969 . S
C264 H263 0.969 . S
C264 O265 1.550 . S
C264 H266 0.973 . S
O265 C264 1.550 . S
O265 C271 1.412 . S
H266 C264 0.973 . S
C267 H260 0.929 . S
C267 C268 1.400 . S
C267 C269 1.364 . S
C268 C267 1.400 . S
C268 C272 1.377 . S
C269 C267 1.364 . S
C269 C270 1.374 . S
C270 H261 0.930 . S
C270 C269 1.374 . S
C270 C271 1.383 . S
C271 O265 1.412 . S
C271 C270 1.383 . S
C271 C272 1.394 . S
C272 H262 0.929 . S
C272 C268 1.377 . S
C272 C271 1.394 . S
H273 C280 0.929 . S
H274 C283 0.930 . S
H275 C285 0.929 . S
H276 C277 0.969 . S
C277 H276 0.969 . S
C277 O278 1.550 . S
C277 H279 0.973 . S
O278 C277 1.550 . S
O278 C284 1.412 . S
H279 C277 0.973 . S
C280 H273 0.929 . S
C280 C281 1.400 . S
C280 C282 1.364 . S
C281 C280 1.400 . S
C281 C285 1.377 . S
C282 C280 1.364 . S
C282 C283 1.374 . S
C283 H274 0.930 . S
C283 C282 1.374 . S
C283 C284 1.383 . S
C284 O278 1.412 . S
C284 C283 1.383 . S
C284 C285 1.394 . S
C285 H275 0.929 . S
C285 C281 1.377 . S
C285 C284 1.394 . S
H286 C293 0.929 . S
H287 C296 0.930 . S
H288 C298 0.929 . S
H289 C290 0.969 . S
C290 H289 0.969 . S
C290 O291 1.550 . S
C290 H292 0.973 . S
O291 C290 1.550 . S
O291 C297 1.412 . S
H292 C290 0.973 . S
C293 H286 0.929 . S
C293 C294 1.400 . S
C293 C295 1.364 . S
C294 C293 1.400 . S
C294 C298 1.377 . S
C295 C293 1.364 . S
C295 C296 1.374 . S
C296 H287 0.930 . S
C296 C295 1.374 . S
C296 C297 1.383 . S
C297 O291 1.412 . S
C297 C296 1.383 . S
C297 C298 1.394 . S
C298 H288 0.929 . S
C298 C294 1.377 . S
C298 C297 1.394 . S
H299 C306 0.929 . S
H300 C309 0.930 . S
H301 C311 0.929 . S
H302 C303 0.969 . S
C303 H302 0.969 . S
C303 O304 1.550 . S
C303 H305 0.973 . S
O304 C303 1.550 . S
O304 C310 1.412 . S
H305 C303 0.973 . S
C306 H299 0.929 . S
C306 C307 1.400 . S
C306 C308 1.364 . S
C307 C306 1.400 . S
C307 C311 1.377 . S
C308 C306 1.364 . S
C308 C309 1.374 . S
C309 H300 0.930 . S
C309 C308 1.374 . S
C309 C310 1.383 . S
C310 O304 1.412 . S
C310 C309 1.383 . S
C310 C311 1.394 . S
C311 H301 0.929 . S
C311 C307 1.377 . S
C311 C310 1.394 . S
H312 C319 0.929 . S
H313 C322 0.930 . S
H314 C324 0.929 . S
H315 C316 0.969 . S
C316 H315 0.969 . S
C316 O317 1.550 . S
C316 H318 0.973 . S
O317 C316 1.550 . S
O317 C323 1.412 . S
H318 C316 0.973 . S
C319 H312 0.929 . S
C319 C320 1.400 . S
C319 C321 1.364 . S
C320 C319 1.400 . S
C320 C324 1.377 . S
C321 C319 1.364 . S
C321 C322 1.374 . S
C322 H313 0.930 . S
C322 C321 1.374 . S
C322 C323 1.383 . S
C323 O317 1.412 . S
C323 C322 1.383 . S
C323 C324 1.394 . S
C324 H314 0.929 . S
C324 C320 1.377 . S
C324 C323 1.394 . S
H325 C332 0.929 . S
H326 C335 0.930 . S
H327 C337 0.929 . S
H328 C329 0.969 . S
C329 H328 0.969 . S
C329 O330 1.550 . S
C329 H331 0.973 . S
O330 C329 1.550 . S
O330 C336 1.412 . S
H331 C329 0.973 . S
C332 H325 0.929 . S
C332 C333 1.400 . S
C332 C334 1.364 . S
C333 C332 1.400 . S
C333 C337 1.377 . S
C334 C332 1.364 . S
C334 C335 1.374 . S
C335 H326 0.930 . S
C335 C334 1.374 . S
C335 C336 1.383 . S
C336 O330 1.412 . S
C336 C335 1.383 . S
C336 C337 1.394 . S
C337 H327 0.929 . S
C337 C333 1.377 . S
C337 C336 1.394 . S
H338 C345 0.929 . S
H339 C348 0.930 . S
H340 C350 0.929 . S
H341 C342 0.969 . S
C342 H341 0.969 . S
C342 O343 1.550 . S
C342 H344 0.973 . S
O343 C342 1.550 . S
O343 C349 1.412 . S
H344 C342 0.973 . S
C345 H338 0.929 . S
C345 C346 1.400 . S
C345 C347 1.364 . S
C346 C345 1.400 . S
C346 C350 1.377 . S
C347 C345 1.364 . S
C347 C348 1.374 . S
C348 H339 0.930 . S
C348 C347 1.374 . S
C348 C349 1.383 . S
C349 O343 1.412 . S
C349 C348 1.383 . S
C349 C350 1.394 . S
C350 H340 0.929 . S
C350 C346 1.377 . S
C350 C349 1.394 . S
H351 C358 0.929 . S
H352 C361 0.930 . S
H353 C363 0.929 . S
H354 C355 0.969 . S
C355 H354 0.969 . S
C355 O356 1.550 . S
C355 H357 0.973 . S
O356 C355 1.550 . S
O356 C362 1.412 . S
H357 C355 0.973 . S
C358 H351 0.929 . S
C358 C359 1.400 . S
C358 C360 1.364 . S
C359 C358 1.400 . S
C359 C363 1.377 . S
C360 C358 1.364 . S
C360 C361 1.374 . S
C361 H352 0.930 . S
C361 C360 1.374 . S
C361 C362 1.383 . S
C362 O356 1.412 . S
C362 C361 1.383 . S
C362 C363 1.394 . S
C363 H353 0.929 . S
C363 C359 1.377 . S
C363 C362 1.394 . S
H364 C371 0.929 . S
H365 C374 0.930 . S
H366 C376 0.929 . S
H367 C368 0.969 . S
C368 H367 0.969 . S
C368 O369 1.550 . S
C368 H370 0.973 . S
O369 C368 1.550 . S
O369 C375 1.412 . S
H370 C368 0.973 . S
C371 H364 0.929 . S
C371 C372 1.400 . S
C371 C373 1.364 . S
C372 C371 1.400 . S
C372 C376 1.377 . S
C373 C371 1.364 . S
C373 C374 1.374 . S
C374 H365 0.930 . S
C374 C373 1.374 . S
C374 C375 1.383 . S
C375 O369 1.412 . S
C375 C374 1.383 . S
C375 C376 1.394 . S
C376 H366 0.929 . S
C376 C372 1.377 . S
C376 C375 1.394 . S
H377 C384 0.929 . S
H378 C387 0.930 . S
H379 C389 0.929 . S
H380 C381 0.969 . S
C381 H380 0.969 . S
C381 O382 1.550 . S
C381 H383 0.973 . S
O382 C381 1.550 . S
O382 C388 1.412 . S
H383 C381 0.973 . S
C384 H377 0.929 . S
C384 C385 1.400 . S
C384 C386 1.364 . S
C385 C384 1.400 . S
C385 C389 1.377 . S
C386 C384 1.364 . S
C386 C387 1.374 . S
C387 H378 0.930 . S
C387 C386 1.374 . S
C387 C388 1.383 . S
C388 O382 1.412 . S
C388 C387 1.383 . S
C388 C389 1.394 . S
C389 H379 0.929 . S
C389 C385 1.377 . S
C389 C388 1.394 . S
H390 C397 0.929 . S
H391 C400 0.930 . S
H392 C402 0.929 . S
H393 C394 0.969 . S
C394 H393 0.969 . S
C394 O395 1.550 . S
C394 H396 0.973 . S
O395 C394 1.550 . S
O395 C401 1.412 . S
H396 C394 0.973 . S
C397 H390 0.929 . S
C397 C398 1.400 . S
C397 C399 1.364 . S
C398 C397 1.400 . S
C398 C402 1.377 . S
C399 C397 1.364 . S
C399 C400 1.374 . S
C400 H391 0.930 . S
C400 C399 1.374 . S
C400 C401 1.383 . S
C401 O395 1.412 . S
C401 C400 1.383 . S
C401 C402 1.394 . S
C402 H392 0.929 . S
C402 C398 1.377 . S
C402 C401 1.394 . S
H403 C410 0.929 . S
H404 C413 0.930 . S
H405 C415 0.929 . S
H406 C407 0.969 . S
C407 H406 0.969 . S
C407 O408 1.550 . S
C407 H409 0.973 . S
O408 C407 1.550 . S
O408 C414 1.412 . S
H409 C407 0.973 . S
C410 H403 0.929 . S
C410 C411 1.400 . S
C410 C412 1.364 . S
C411 C410 1.400 . S
C411 C415 1.377 . S
C412 C410 1.364 . S
C412 C413 1.374 . S
C413 H404 0.930 . S
C413 C412 1.374 . S
C413 C414 1.383 . S
C414 O408 1.412 . S
C414 C413 1.383 . S
C414 C415 1.394 . S
C415 H405 0.929 . S
C415 C411 1.377 . S
C415 C414 1.394 . S
Cu416 N417 1.999 . S
Cu416 O422 1.974 . S
Cu416 N427 1.985 . S
Cu416 O436 1.959 . S
N417 Cu416 1.999 . S
N417 C419 1.263 . S
N417 C421 1.389 . S
N418 C419 1.358 . S
N418 C420 1.400 . S
C419 N417 1.263 . S
C419 N418 1.358 . S
C419 H425 0.930 . S
C420 N418 1.400 . S
C420 C421 1.351 . S
C420 H437 0.930 . S
C421 N417 1.389 . S
C421 C420 1.351 . S
C421 H426 0.930 . S
O422 Cu416 1.974 . S
O422 C432 1.282 . S
C423 O424 1.261 . S
C423 O436 1.251 . S
O424 C423 1.261 . S
H425 C419 0.930 . S
H426 C421 0.930 . S
N427 Cu416 1.985 . S
N427 C429 1.335 . S
N427 C430 1.390 . S
N428 C429 1.345 . S
N428 C431 1.336 . S
C429 N427 1.335 . S
C429 N428 1.345 . S
C429 H434 0.930 . S
C430 N427 1.390 . S
C430 C431 1.346 . S
C430 H435 0.930 . S
C431 N428 1.336 . S
C431 C430 1.346 . S
C431 H438 0.929 . S
C432 O422 1.282 . S
C432 O433 1.216 . S
O433 C432 1.216 . S
H434 C429 0.930 . S
H435 C430 0.930 . S
O436 Cu416 1.959 . S
O436 C423 1.251 . S
H437 C420 0.930 . S
H438 C431 0.929 . S
Cu439 N440 1.999 . S
Cu439 O445 1.974 . S
Cu439 N450 1.985 . S
Cu439 O459 1.955 . S
N440 Cu439 1.999 . S
N440 C442 1.263 . S
N440 C444 1.389 . S
N441 C442 1.358 . S
N441 C443 1.400 . S
C442 N440 1.263 . S
C442 N441 1.358 . S
C442 H448 0.930 . S
C443 N441 1.400 . S
C443 C444 1.351 . S
C443 H460 0.930 . S
C444 N440 1.389 . S
C444 C443 1.351 . S
C444 H449 0.930 . S
O445 Cu439 1.974 . S
O445 C455 1.282 . S
C446 O447 1.261 1_556 S
C446 O459 1.253 1_556 S
O447 C446 1.261 1_554 S
H448 C442 0.930 . S
H449 C444 0.930 . S
N450 Cu439 1.985 . S
N450 C452 1.335 1_554 S
N450 C453 1.390 . S
N451 C452 1.345 . S
N451 C454 1.336 . S
C452 N450 1.335 1_556 S
C452 N451 1.345 . S
C452 H457 0.930 . S
C453 N450 1.390 . S
C453 C454 1.346 1_554 S
C453 H458 0.930 . S
C454 N451 1.336 . S
C454 C453 1.346 1_556 S
C454 H461 0.929 . S
C455 O445 1.282 . S
C455 O456 1.216 . S
O456 C455 1.216 . S
H457 C452 0.930 . S
H458 C453 0.930 . S
O459 Cu439 1.955 . S
O459 C446 1.253 1_554 S
H460 C443 0.930 . S
H461 C454 0.929 . S
Cu462 N463 1.999 . S
Cu462 O468 1.974 . S
Cu462 N473 1.985 . S
Cu462 O482 1.959 . S
N463 Cu462 1.999 . S
N463 C465 1.263 . S
N463 C467 1.389 . S
N464 C465 1.358 1_556 S
N464 C466 1.400 1_556 S
C465 N463 1.263 . S
C465 N464 1.358 1_554 S
C465 H471 0.930 . S
C466 N464 1.400 1_554 S
C466 C467 1.351 . S
C466 H483 0.930 . S
C467 N463 1.389 . S
C467 C466 1.351 . S
C467 H472 0.930 . S
O468 Cu462 1.974 . S
O468 C478 1.282 . S
C469 O470 1.261 . S
C469 O482 1.251 . S
O470 C469 1.261 . S
H471 C465 0.930 . S
H472 C467 0.930 . S
N473 Cu462 1.985 . S
N473 C475 1.335 . S
N473 C476 1.390 . S
N474 C475 1.345 . S
N474 C477 1.336 . S
C475 N473 1.335 . S
C475 N474 1.345 . S
C475 H480 0.930 . S
C476 N473 1.390 . S
C476 C477 1.346 . S
C476 H481 0.930 . S
C477 N474 1.336 . S
C477 C476 1.346 . S
C477 H484 0.929 . S
C478 O468 1.282 . S
C478 O479 1.216 . S
O479 C478 1.216 . S
H480 C475 0.930 . S
H481 C476 0.930 . S
O482 Cu462 1.959 . S
O482 C469 1.251 . S
H483 C466 0.930 . S
H484 C477 0.929 . S
Cu485 N486 1.948 1_556 S
Cu485 O491 1.914 1_556 S
Cu485 N496 2.036 . S
Cu485 O505 2.019 . S
N486 Cu485 1.948 1_554 S
N486 C488 1.263 . S
N486 C490 1.389 . S
N487 C488 1.358 . S
N487 C489 1.400 . S
C488 N486 1.263 . S
C488 N487 1.358 . S
C488 H494 0.930 . S
C489 N487 1.400 . S
C489 C490 1.351 . S
C489 H506 0.930 . S
C490 N486 1.389 . S
C490 C489 1.351 . S
C490 H495 0.996 . S
O491 Cu485 1.914 1_554 S
O491 C501 1.282 . S
C492 O493 1.261 . S
C492 O505 1.251 . S
O493 C492 1.261 . S
H494 C488 0.930 . S
H495 C490 0.996 . S
N496 Cu485 2.036 . S
N496 C498 1.335 . S
N496 C499 1.390 . S
N497 C498 1.345 . S
N497 C500 1.336 . S
C498 N496 1.335 . S
C498 N497 1.345 . S
C498 H503 0.930 . S
C499 N496 1.390 . S
C499 C500 1.346 . S
C499 H504 0.999 . S
C500 N497 1.336 . S
C500 C499 1.346 . S
C500 H507 0.929 . S
C501 O491 1.282 . S
C501 O502 1.216 . S
O502 C501 1.216 . S
H503 C498 0.930 . S
H504 C499 0.999 . S
O505 Cu485 2.019 . S
O505 C492 1.251 . S
H506 C489 0.930 . S
H507 C500 0.929 . S
Cu508 N509 1.999 . S
Cu508 O514 1.974 . S
Cu508 N519 1.956 1_455 S
Cu508 O528 1.959 1_455 S
N509 Cu508 1.999 . S
N509 C511 1.263 . S
N509 C513 1.389 . S
N510 C511 1.358 . S
N510 C512 1.400 . S
C511 N509 1.263 . S
C511 N510 1.358 . S
C511 H517 0.930 . S
C512 N510 1.400 . S
C512 C513 1.351 . S
C512 H529 0.930 . S
C513 N509 1.389 . S
C513 C512 1.351 . S
C513 H518 0.930 . S
O514 Cu508 1.974 . S
O514 C524 1.282 . S
C515 O516 1.261 . S
C515 O528 1.251 . S
O516 C515 1.261 . S
H517 C511 0.930 . S
H518 C513 0.930 . S
N519 Cu508 1.956 1_655 S
N519 C521 1.379 . S
N519 C522 1.382 1_655 S
N520 C521 1.345 . S
N520 C523 1.336 . S
C521 N519 1.379 . S
C521 N520 1.345 . S
C521 H526 0.930 . S
C522 N519 1.382 1_455 S
C522 C523 1.346 1_455 S
C522 H527 0.930 . S
C523 N520 1.336 . S
C523 C522 1.346 1_655 S
C523 H530 0.929 . S
C524 O514 1.282 . S
C524 O525 1.216 . S
O525 C524 1.216 . S
H526 C521 0.930 . S
H527 C522 0.930 . S
O528 Cu508 1.959 1_655 S
O528 C515 1.251 . S
H529 C512 0.930 . S
H530 C523 0.929 . S
Cu531 N532 1.999 . S
Cu531 O537 1.974 . S
Cu531 N542 1.985 . S
Cu531 O551 1.959 . S
N532 Cu531 1.999 . S
N532 C534 1.263 . S
N532 C536 1.389 . S
N533 C534 1.358 . S
N533 C535 1.400 . S
C534 N532 1.263 . S
C534 N533 1.358 . S
C534 H540 0.930 . S
C535 N533 1.400 . S
C535 C536 1.351 . S
C535 H552 0.930 . S
C536 N532 1.389 . S
C536 C535 1.351 . S
C536 H541 0.930 . S
O537 Cu531 1.974 . S
O537 C547 1.282 . S
C538 O539 1.261 . S
C538 O551 1.251 . S
O539 C538 1.261 . S
H540 C534 0.930 . S
H541 C536 0.930 . S
N542 Cu531 1.985 . S
N542 C544 1.334 1_545 S
N542 C545 1.390 . S
N543 C544 1.345 . S
N543 C546 1.336 1_565 S
C544 N542 1.334 1_565 S
C544 N543 1.345 . S
C544 H549 0.930 . S
C545 N542 1.390 . S
C545 C546 1.346 . S
C545 H550 0.930 . S
C546 N543 1.336 1_545 S
C546 C545 1.346 . S
C546 H553 0.929 . S
C547 O537 1.282 . S
C547 O548 1.216 . S
O548 C547 1.216 . S
H549 C544 0.930 . S
H550 C545 0.930 . S
O551 Cu531 1.959 . S
O551 C538 1.251 . S
H552 C535 0.930 . S
H553 C546 0.929 . S
Cu554 N555 1.999 1_455 S
Cu554 O560 1.974 1_455 S
Cu554 N565 1.985 . S
Cu554 O574 1.959 . S
N555 Cu554 1.999 1_655 S
N555 C557 1.263 . S
N555 C559 1.389 . S
N556 C557 1.358 . S
N556 C558 1.400 . S
C557 N555 1.263 . S
C557 N556 1.358 . S
C557 H563 0.930 . S
C558 N556 1.400 . S
C558 C559 1.351 . S
C558 H575 0.930 . S
C559 N555 1.389 . S
C559 C558 1.351 . S
C559 H564 0.930 . S
O560 Cu554 1.974 1_655 S
O560 C570 1.282 . S
C561 O562 1.261 . S
C561 O574 1.251 . S
O562 C561 1.261 . S
H563 C557 0.930 . S
H564 C559 0.930 . S
N565 Cu554 1.985 . S
N565 C567 1.335 . S
N565 C568 1.390 . S
N566 C567 1.345 . S
N566 C569 1.336 . S
C567 N565 1.335 . S
C567 N566 1.345 . S
C567 H572 0.930 . S
C568 N565 1.390 . S
C568 C569 1.346 . S
C568 H573 0.930 . S
C569 N566 1.336 . S
C569 C568 1.346 . S
C569 H576 0.929 . S
C570 O560 1.282 . S
C570 O571 1.216 . S
O571 C570 1.216 . S
H572 C567 0.930 . S
H573 C568 0.930 . S
O574 Cu554 1.959 . S
O574 C561 1.251 . S
H575 C558 0.930 . S
H576 C569 0.929 . S
Cu577 N578 2.037 . S
Cu577 O583 2.022 . S
Cu577 N588 1.949 1_545 S
Cu577 O597 1.912 1_545 S
N578 Cu577 2.037 . S
N578 C580 1.263 . S
N578 C582 1.389 . S
N579 C580 1.358 . S
N579 C581 1.400 . S
C580 N578 1.263 . S
C580 N579 1.358 . S
C580 H586 0.930 . S
C581 N579 1.400 . S
C581 C582 1.351 . S
C581 H598 0.930 . S
C582 N578 1.389 . S
C582 C581 1.351 . S
C582 H587 0.930 . S
O583 Cu577 2.022 . S
O583 C593 1.282 . S
C584 O585 1.261 . S
C584 O597 1.251 . S
O585 C584 1.261 . S
H586 C580 0.930 . S
H587 C582 0.930 . S
N588 Cu577 1.949 1_565 S
N588 C590 1.335 . S
N588 C591 1.390 . S
N589 C590 1.345 . S
N589 C592 1.336 . S
C590 N588 1.335 . S
C590 N589 1.345 . S
C590 H595 0.930 . S
C591 N588 1.390 . S
C591 C592 1.346 . S
C591 H596 0.930 . S
C592 N589 1.336 . S
C592 C591 1.346 . S
C592 H599 0.929 . S
C593 O583 1.282 . S
C593 O594 1.216 . S
O594 C593 1.216 . S
H595 C590 0.930 . S
H596 C591 0.930 . S
O597 Cu577 1.912 1_565 S
O597 C584 1.251 . S
H598 C581 0.930 . S
H599 C592 0.929 . S
Cu600 N601 1.999 . S
Cu600 O606 1.974 . S
Cu600 N611 1.985 . S
Cu600 O620 1.959 1_455 S
N601 Cu600 1.999 . S
N601 C603 1.263 . S
N601 C605 1.389 . S
N602 C603 1.358 . S
N602 C604 1.400 . S
C603 N601 1.263 . S
C603 N602 1.358 . S
C603 H609 0.930 . S
C604 N602 1.400 . S
C604 C605 1.351 . S
C604 H621 0.930 . S
C605 N601 1.389 . S
C605 C604 1.351 . S
C605 H610 0.930 . S
O606 Cu600 1.974 . S
O606 C616 1.282 . S
C607 O608 1.261 . S
C607 O620 1.251 . S
O608 C607 1.261 . S
H609 C603 0.930 . S
H610 C605 0.930 . S
N611 Cu600 1.985 . S
N611 C613 1.335 1_455 S
N611 C614 1.390 . S
N612 C613 1.345 . S
N612 C615 1.336 . S
C613 N611 1.335 1_655 S
C613 N612 1.345 . S
C613 H618 0.930 . S
C614 N611 1.390 . S
C614 C615 1.346 1_455 S
C614 H619 0.930 . S
C615 N612 1.336 . S
C615 C614 1.346 1_655 S
C615 H622 0.929 . S
C616 O606 1.282 . S
C616 O617 1.216 . S
O617 C616 1.216 . S
H618 C613 0.930 . S
H619 C614 0.930 . S
O620 Cu600 1.959 1_655 S
O620 C607 1.251 . S
H621 C604 0.930 . S
H622 C615 0.929 . S
Cu623 N624 1.999 . S
Cu623 O629 1.974 . S
Cu623 N634 1.985 . S
Cu623 O643 1.959 . S
N624 Cu623 1.999 . S
N624 C626 1.263 . S
N624 C628 1.389 . S
N625 C626 1.358 . S
N625 C627 1.400 . S
C626 N624 1.263 . S
C626 N625 1.358 . S
C626 H632 0.930 . S
C627 N625 1.400 . S
C627 C628 1.351 . S
C627 H644 0.930 . S
C628 N624 1.389 . S
C628 C627 1.351 . S
C628 H633 0.930 . S
O629 Cu623 1.974 . S
O629 C639 1.282 . S
C630 O631 1.261 . S
C630 O643 1.251 . S
O631 C630 1.261 . S
H632 C626 0.930 . S
H633 C628 0.930 . S
N634 Cu623 1.985 . S
N634 C636 1.335 . S
N634 C637 1.390 . S
N635 C636 1.345 . S
N635 C638 1.336 . S
C636 N634 1.335 . S
C636 N635 1.345 . S
C636 H641 0.930 . S
C637 N634 1.390 . S
C637 C638 1.346 . S
C637 H642 0.930 . S
C638 N635 1.336 . S
C638 C637 1.346 . S
C638 H645 0.929 . S
C639 O629 1.282 . S
C639 O640 1.216 . S
O640 C639 1.216 . S
H641 C636 0.930 . S
H642 C637 0.930 . S
O643 Cu623 1.959 . S
O643 C630 1.251 . S
H644 C627 0.930 . S
H645 C638 0.929 . S
Cu646 N647 1.999 . S
Cu646 O652 1.988 . S
Cu646 N657 1.985 . S
Cu646 O666 1.959 . S
N647 Cu646 1.999 . S
N647 C649 1.263 1_455 S
N647 C651 1.389 . S
N648 C649 1.358 . S
N648 C650 1.400 . S
C649 N647 1.263 1_655 S
C649 N648 1.358 . S
C649 H655 0.930 . S
C650 N648 1.400 . S
C650 C651 1.351 1_655 S
C650 H667 0.930 . S
C651 N647 1.389 . S
C651 C650 1.351 1_455 S
C651 H656 0.930 . S
O652 Cu646 1.988 . S
O652 C662 1.274 1_455 S
C653 O654 1.261 . S
C653 O666 1.251 . S
O654 C653 1.261 . S
H655 C649 0.930 . S
H656 C651 0.930 . S
N657 Cu646 1.985 . S
N657 C659 1.335 . S
N657 C660 1.390 . S
N658 C659 1.345 . S
N658 C661 1.336 . S
C659 N657 1.335 . S
C659 N658 1.345 . S
C659 H664 0.930 . S
C660 N657 1.390 . S
C660 C661 1.346 . S
C660 H665 0.930 . S
C661 N658 1.336 . S
C661 C660 1.346 . S
C661 H668 0.929 . S
C662 O652 1.274 1_655 S
C662 O663 1.216 1_655 S
O663 C662 1.216 1_455 S
H664 C659 0.930 . S
H665 C660 0.930 . S
O666 Cu646 1.959 . S
O666 C653 1.251 . S
H667 C650 0.930 . S
H668 C661 0.929 . S
Cu669 N670 1.999 . S
Cu669 O675 1.974 . S
Cu669 N680 1.985 1_545 S
Cu669 O689 1.951 1_545 S
N670 Cu669 1.999 . S
N670 C672 1.263 . S
N670 C674 1.389 . S
N671 C672 1.358 . S
N671 C673 1.400 . S
C672 N670 1.263 . S
C672 N671 1.358 . S
C672 H678 0.930 . S
C673 N671 1.400 . S
C673 C674 1.351 . S
C673 H690 0.930 . S
C674 N670 1.389 . S
C674 C673 1.351 . S
C674 H679 0.930 . S
O675 Cu669 1.974 . S
O675 C685 1.282 . S
C676 O677 1.261 . S
C676 O689 1.255 . S
O677 C676 1.261 . S
H678 C672 0.930 . S
H679 C674 0.930 . S
N680 Cu669 1.985 1_565 S
N680 C682 1.335 . S
N680 C683 1.403 . S
N681 C682 1.345 . S
N681 C684 1.336 . S
C682 N680 1.335 . S
C682 N681 1.345 . S
C682 H687 0.930 . S
C683 N680 1.403 . S
C683 C684 1.394 . S
C683 H688 0.881 1_565 S
C684 N681 1.336 . S
C684 C683 1.394 . S
C684 H691 0.929 . S
C685 O675 1.282 . S
C685 O686 1.216 . S
O686 C685 1.216 . S
H687 C682 0.930 . S
H688 C683 0.881 1_545 S
O689 Cu669 1.951 1_565 S
O689 C676 1.255 . S
H690 C673 0.930 . S
H691 C684 0.929 . S
Cu692 N693 1.999 . S
Cu692 O698 1.974 . S
Cu692 N703 1.985 . S
Cu692 O712 1.959 . S
N693 Cu692 1.999 . S
N693 C695 1.263 . S
N693 C697 1.389 . S
N694 C695 1.358 . S
N694 C696 1.400 . S
C695 N693 1.263 . S
C695 N694 1.358 . S
C695 H701 0.930 . S
C696 N694 1.400 . S
C696 C697 1.351 . S
C696 H713 0.930 . S
C697 N693 1.389 . S
C697 C696 1.351 . S
C697 H702 0.930 . S
O698 Cu692 1.974 . S
O698 C708 1.282 . S
C699 O700 1.261 . S
C699 O712 1.251 . S
O700 C699 1.261 . S
H701 C695 0.930 . S
H702 C697 0.930 . S
N703 Cu692 1.985 . S
N703 C705 1.335 . S
N703 C706 1.390 . S
N704 C705 1.345 . S
N704 C707 1.336 . S
C705 N703 1.335 . S
C705 N704 1.345 . S
C705 H710 0.930 . S
C706 N703 1.390 . S
C706 C707 1.346 . S
C706 H711 0.930 . S
C707 N704 1.336 . S
C707 C706 1.346 . S
C707 H714 0.929 . S
C708 O698 1.282 . S
C708 O709 1.216 . S
O709 C708 1.216 . S
H710 C705 0.930 . S
H711 C706 0.930 . S
O712 Cu692 1.959 . S
O712 C699 1.251 . S
H713 C696 0.930 . S
H714 C707 0.929 . S
Cu715 N716 1.999 . S
Cu715 O721 1.974 . S
Cu715 N726 1.985 . S
Cu715 O735 1.959 . S
N716 Cu715 1.999 . S
N716 C718 1.263 . S
N716 C720 1.389 . S
N717 C718 1.358 . S
N717 C719 1.400 . S
C718 N716 1.263 . S
C718 N717 1.358 . S
C718 H724 0.930 . S
C719 N717 1.400 . S
C719 C720 1.351 . S
C719 H736 0.930 . S
C720 N716 1.389 . S
C720 C719 1.351 . S
C720 H725 0.930 . S
O721 Cu715 1.974 . S
O721 C731 1.282 . S
C722 O723 1.261 . S
C722 O735 1.251 . S
O723 C722 1.261 . S
H724 C718 0.930 . S
H725 C720 0.930 . S
N726 Cu715 1.985 . S
N726 C728 1.335 . S
N726 C729 1.390 . S
N727 C728 1.345 . S
N727 C730 1.336 . S
C728 N726 1.335 . S
C728 N727 1.345 . S
C728 H733 0.930 . S
C729 N726 1.390 . S
C729 C730 1.346 . S
C729 H734 0.930 . S
C730 N727 1.336 . S
C730 C729 1.346 . S
C730 H737 0.929 . S
C731 O721 1.282 . S
C731 O732 1.216 . S
O732 C731 1.216 . S
H733 C728 0.930 . S
H734 C729 0.930 . S
O735 Cu715 1.959 . S
O735 C722 1.251 . S
H736 C719 0.930 . S
H737 C730 0.929 . S
Cu738 N739 1.999 . S
Cu738 O744 1.974 . S
Cu738 N749 1.985 . S
Cu738 O758 1.959 . S
N739 Cu738 1.999 . S
N739 C741 1.263 . S
N739 C743 1.389 . S
N740 C741 1.358 . S
N740 C742 1.400 . S
C741 N739 1.263 . S
C741 N740 1.358 . S
C741 H747 0.930 . S
C742 N740 1.400 . S
C742 C743 1.351 . S
C742 H759 0.930 . S
C743 N739 1.389 . S
C743 C742 1.351 . S
C743 H748 0.930 . S
O744 Cu738 1.974 . S
O744 C754 1.282 . S
C745 O746 1.261 . S
C745 O758 1.251 . S
O746 C745 1.261 . S
H747 C741 0.930 . S
H748 C743 0.930 . S
N749 Cu738 1.985 . S
N749 C751 1.335 . S
N749 C752 1.390 . S
N750 C751 1.345 . S
N750 C753 1.336 . S
C751 N749 1.335 . S
C751 N750 1.345 . S
C751 H756 0.930 . S
C752 N749 1.390 . S
C752 C753 1.346 . S
C752 H757 0.930 . S
C753 N750 1.336 . S
C753 C752 1.346 . S
C753 H760 0.929 . S
C754 O744 1.282 . S
C754 O755 1.216 . S
O755 C754 1.216 . S
H756 C751 0.930 . S
H757 C752 0.930 . S
O758 Cu738 1.959 . S
O758 C745 1.251 . S
H759 C742 0.930 . S
H760 C753 0.929 . S
Cu761 N762 1.999 . S
Cu761 O767 1.974 . S
Cu761 N772 1.985 . S
Cu761 O781 1.959 . S
N762 Cu761 1.999 . S
N762 C764 1.263 . S
N762 C766 1.389 . S
N763 C764 1.358 . S
N763 C765 1.400 . S
C764 N762 1.263 . S
C764 N763 1.358 . S
C764 H770 0.930 . S
C765 N763 1.400 . S
C765 C766 1.351 . S
C765 H782 0.930 . S
C766 N762 1.389 . S
C766 C765 1.351 . S
C766 H771 0.930 . S
O767 Cu761 1.974 . S
O767 C777 1.282 . S
C768 O769 1.261 . S
C768 O781 1.251 . S
O769 C768 1.261 . S
H770 C764 0.930 . S
H771 C766 0.930 . S
N772 Cu761 1.985 . S
N772 C774 1.335 . S
N772 C775 1.390 . S
N773 C774 1.345 . S
N773 C776 1.336 . S
C774 N772 1.335 . S
C774 N773 1.345 . S
C774 H779 0.930 . S
C775 N772 1.390 . S
C775 C776 1.346 . S
C775 H780 0.930 . S
C776 N773 1.336 . S
C776 C775 1.346 . S
C776 H783 0.929 . S
C777 O767 1.282 . S
C777 O778 1.216 . S
O778 C777 1.216 . S
H779 C774 0.930 . S
H780 C775 0.930 . S
O781 Cu761 1.959 . S
O781 C768 1.251 . S
H782 C765 0.930 . S
H783 C776 0.929 . S
Cu784 N785 1.999 . S
Cu784 O790 1.974 . S
Cu784 N795 1.985 . S
Cu784 O804 1.959 . S
N785 Cu784 1.999 . S
N785 C787 1.263 . S
N785 C789 1.389 . S
N786 C787 1.358 . S
N786 C788 1.400 . S
C787 N785 1.263 . S
C787 N786 1.358 . S
C787 H793 0.930 . S
C788 N786 1.400 . S
C788 C789 1.351 . S
C788 H805 0.930 . S
C789 N785 1.389 . S
C789 C788 1.351 . S
C789 H794 0.930 . S
O790 Cu784 1.974 . S
O790 C800 1.282 . S
C791 O792 1.261 . S
C791 O804 1.251 . S
O792 C791 1.261 . S
H793 C787 0.930 . S
H794 C789 0.930 . S
N795 Cu784 1.985 . S
N795 C797 1.335 . S
N795 C798 1.390 . S
N796 C797 1.345 . S
N796 C799 1.336 . S
C797 N795 1.335 . S
C797 N796 1.345 . S
C797 H802 0.930 . S
C798 N795 1.390 . S
C798 C799 1.346 . S
C798 H803 0.930 . S
C799 N796 1.336 . S
C799 C798 1.346 . S
C799 H806 0.929 . S
C800 O790 1.282 . S
C800 O801 1.216 . S
O801 C800 1.216 . S
H802 C797 0.930 . S
H803 C798 0.930 . S
O804 Cu784 1.959 . S
O804 C791 1.251 . S
H805 C788 0.930 . S
H806 C799 0.929 . S
Cu807 N808 1.999 . S
Cu807 O813 1.974 . S
Cu807 N818 1.985 . S
Cu807 O827 1.959 . S
N808 Cu807 1.999 . S
N808 C810 1.263 . S
N808 C812 1.389 . S
N809 C810 1.358 . S
N809 C811 1.400 . S
C810 N808 1.263 . S
C810 N809 1.358 . S
C810 H816 0.930 . S
C811 N809 1.400 . S
C811 C812 1.351 . S
C811 H828 0.930 . S
C812 N808 1.389 . S
C812 C811 1.351 . S
C812 H817 0.930 . S
O813 Cu807 1.974 . S
O813 C823 1.282 . S
C814 O815 1.261 . S
C814 O827 1.251 . S
O815 C814 1.261 . S
H816 C810 0.930 . S
H817 C812 0.930 . S
N818 Cu807 1.985 . S
N818 C820 1.335 . S
N818 C821 1.390 . S
N819 C820 1.345 . S
N819 C822 1.336 . S
C820 N818 1.335 . S
C820 N819 1.345 . S
C820 H825 0.930 . S
C821 N818 1.390 . S
C821 C822 1.346 . S
C821 H826 0.930 . S
C822 N819 1.336 . S
C822 C821 1.346 . S
C822 H829 0.929 . S
C823 O813 1.282 . S
C823 O824 1.216 . S
O824 C823 1.216 . S
H825 C820 0.930 . S
H826 C821 0.930 . S
O827 Cu807 1.959 . S
O827 C814 1.251 . S
H828 C811 0.930 . S
H829 C822 0.929 . S
Cu830 N831 1.999 . S
Cu830 O836 1.974 . S
Cu830 N841 1.985 . S
Cu830 O850 1.959 . S
N831 Cu830 1.999 . S
N831 C833 1.263 . S
N831 C835 1.389 . S
N832 C833 1.358 . S
N832 C834 1.400 . S
C833 N831 1.263 . S
C833 N832 1.358 . S
C833 H839 0.930 . S
C834 N832 1.400 . S
C834 C835 1.351 . S
C834 H851 0.930 . S
C835 N831 1.389 . S
C835 C834 1.351 . S
C835 H840 0.930 . S
O836 Cu830 1.974 . S
O836 C846 1.282 . S
C837 O838 1.261 . S
C837 O850 1.251 . S
O838 C837 1.261 . S
H839 C833 0.930 . S
H840 C835 0.930 . S
N841 Cu830 1.985 . S
N841 C843 1.335 . S
N841 C844 1.390 . S
N842 C843 1.345 . S
N842 C845 1.336 . S
C843 N841 1.335 . S
C843 N842 1.345 . S
C843 H848 0.930 . S
C844 N841 1.390 . S
C844 C845 1.346 . S
C844 H849 0.930 . S
C845 N842 1.336 . S
C845 C844 1.346 . S
C845 H852 0.929 . S
C846 O836 1.282 . S
C846 O847 1.216 . S
O847 C846 1.216 . S
H848 C843 0.930 . S
H849 C844 0.930 . S
O850 Cu830 1.959 . S
O850 C837 1.251 . S
H851 C834 0.930 . S
H852 C845 0.929 . S
Cu853 N854 1.999 . S
Cu853 O859 1.974 . S
Cu853 N864 1.985 . S
Cu853 O873 1.959 . S
N854 Cu853 1.999 . S
N854 C856 1.263 . S
N854 C858 1.389 . S
N855 C856 1.358 . S
N855 C857 1.400 . S
C856 N854 1.263 . S
C856 N855 1.358 . S
C856 H862 0.930 . S
C857 N855 1.400 . S
C857 C858 1.351 . S
C857 H874 0.930 . S
C858 N854 1.389 . S
C858 C857 1.351 . S
C858 H863 0.930 . S
O859 Cu853 1.974 . S
O859 C869 1.282 . S
C860 O861 1.261 . S
C860 O873 1.251 . S
O861 C860 1.261 . S
H862 C856 0.930 . S
H863 C858 0.930 . S
N864 Cu853 1.985 . S
N864 C866 1.335 . S
N864 C867 1.390 . S
N865 C866 1.345 . S
N865 C868 1.336 . S
C866 N864 1.335 . S
C866 N865 1.345 . S
C866 H871 0.930 . S
C867 N864 1.390 . S
C867 C868 1.346 . S
C867 H872 0.930 . S
C868 N865 1.336 . S
C868 C867 1.346 . S
C868 H875 0.929 . S
C869 O859 1.282 . S
C869 O870 1.216 . S
O870 C869 1.216 . S
H871 C866 0.930 . S
H872 C867 0.930 . S
O873 Cu853 1.959 . S
O873 C860 1.251 . S
H874 C857 0.930 . S
H875 C868 0.929 . S
Cu876 N877 1.999 . S
Cu876 O882 1.974 . S
Cu876 N887 1.985 . S
Cu876 O896 1.959 . S
N877 Cu876 1.999 . S
N877 C879 1.263 . S
N877 C881 1.389 . S
N878 C879 1.358 . S
N878 C880 1.400 . S
C879 N877 1.263 . S
C879 N878 1.358 . S
C879 H885 0.930 . S
C880 N878 1.400 . S
C880 C881 1.351 . S
C880 H897 0.930 . S
C881 N877 1.389 . S
C881 C880 1.351 . S
C881 H886 0.930 . S
O882 Cu876 1.974 . S
O882 C892 1.282 . S
C883 O884 1.261 . S
C883 O896 1.251 . S
O884 C883 1.261 . S
H885 C879 0.930 . S
H886 C881 0.930 . S
N887 Cu876 1.985 . S
N887 C889 1.335 . S
N887 C890 1.390 . S
N888 C889 1.345 . S
N888 C891 1.336 . S
C889 N887 1.335 . S
C889 N888 1.345 . S
C889 H894 0.930 . S
C890 N887 1.390 . S
C890 C891 1.346 . S
C890 H895 0.930 . S
C891 N888 1.336 . S
C891 C890 1.346 . S
C891 H898 0.929 . S
C892 O882 1.282 . S
C892 O893 1.216 . S
O893 C892 1.216 . S
H894 C889 0.930 . S
H895 C890 0.930 . S
O896 Cu876 1.959 . S
O896 C883 1.251 . S
H897 C880 0.930 . S
H898 C891 0.929 . S
Cu899 N900 1.999 . S
Cu899 O905 1.974 . S
Cu899 N910 1.985 . S
Cu899 O919 1.959 . S
N900 Cu899 1.999 . S
N900 C902 1.263 . S
N900 C904 1.389 . S
N901 C902 1.358 . S
N901 C903 1.400 . S
C902 N900 1.263 . S
C902 N901 1.358 . S
C902 H908 0.930 . S
C903 N901 1.400 . S
C903 C904 1.351 . S
C903 H920 0.930 . S
C904 N900 1.389 . S
C904 C903 1.351 . S
C904 H909 0.930 . S
O905 Cu899 1.974 . S
O905 C915 1.282 . S
C906 O907 1.261 . S
C906 O919 1.251 . S
O907 C906 1.261 . S
H908 C902 0.930 . S
H909 C904 0.930 . S
N910 Cu899 1.985 . S
N910 C912 1.335 . S
N910 C913 1.390 . S
N911 C912 1.345 . S
N911 C914 1.336 . S
C912 N910 1.335 . S
C912 N911 1.345 . S
C912 H917 0.930 . S
C913 N910 1.390 . S
C913 C914 1.346 . S
C913 H918 0.930 . S
C914 N911 1.336 . S
C914 C913 1.346 . S
C914 H921 0.929 . S
C915 O905 1.282 . S
C915 O916 1.216 . S
O916 C915 1.216 . S
H917 C912 0.930 . S
H918 C913 0.930 . S
O919 Cu899 1.959 . S
O919 C906 1.251 . S
H920 C903 0.930 . S
H921 C914 0.929 . S
Cu922 N923 1.999 . S
Cu922 O928 1.974 . S
Cu922 N933 1.985 . S
Cu922 O942 1.959 . S
N923 Cu922 1.999 . S
N923 C925 1.263 . S
N923 C927 1.389 . S
N924 C925 1.358 . S
N924 C926 1.400 . S
C925 N923 1.263 . S
C925 N924 1.358 . S
C925 H931 0.930 . S
C926 N924 1.400 . S
C926 C927 1.351 . S
C926 H943 0.930 . S
C927 N923 1.389 . S
C927 C926 1.351 . S
C927 H932 0.930 . S
O928 Cu922 1.974 . S
O928 C938 1.282 . S
C929 O930 1.261 . S
C929 O942 1.251 . S
O930 C929 1.261 . S
H931 C925 0.930 . S
H932 C927 0.930 . S
N933 Cu922 1.985 . S
N933 C935 1.335 . S
N933 C936 1.390 . S
N934 C935 1.345 . S
N934 C937 1.336 . S
C935 N933 1.335 . S
C935 N934 1.345 . S
C935 H940 0.930 . S
C936 N933 1.390 . S
C936 C937 1.346 . S
C936 H941 0.930 . S
C937 N934 1.336 . S
C937 C936 1.346 . S
C937 H944 0.929 . S
C938 O928 1.282 . S
C938 O939 1.216 . S
O939 C938 1.216 . S
H940 C935 0.930 . S
H941 C936 0.930 . S
O942 Cu922 1.959 . S
O942 C929 1.251 . S
H943 C926 0.930 . S
H944 C937 0.929 . S
Cu945 N946 1.999 . S
Cu945 O951 1.974 . S
Cu945 N956 1.985 . S
Cu945 O965 1.959 . S
N946 Cu945 1.999 . S
N946 C948 1.263 . S
N946 C950 1.389 . S
N947 C948 1.358 . S
N947 C949 1.400 . S
C948 N946 1.263 . S
C948 N947 1.358 . S
C948 H954 0.930 . S
C949 N947 1.400 . S
C949 C950 1.351 . S
C949 H966 0.930 . S
C950 N946 1.389 . S
C950 C949 1.351 . S
C950 H955 0.930 . S
O951 Cu945 1.974 . S
O951 C961 1.282 . S
C952 O953 1.261 . S
C952 O965 1.251 . S
O953 C952 1.261 . S
H954 C948 0.930 . S
H955 C950 0.930 . S
N956 Cu945 1.985 . S
N956 C958 1.335 . S
N956 C959 1.390 . S
N957 C958 1.345 . S
N957 C960 1.336 . S
C958 N956 1.335 . S
C958 N957 1.345 . S
C958 H963 0.930 . S
C959 N956 1.390 . S
C959 C960 1.346 . S
C959 H964 0.930 . S
C960 N957 1.336 . S
C960 C959 1.346 . S
C960 H967 0.929 . S
C961 O951 1.282 . S
C961 O962 1.216 . S
O962 C961 1.216 . S
H963 C958 0.930 . S
H964 C959 0.930 . S
O965 Cu945 1.959 . S
O965 C952 1.251 . S
H966 C949 0.930 . S
H967 C960 0.929 . S
H968 C976 0.929 . S
H969 C978 0.930 . S
H970 C980 0.930 . S
H971 C983 0.929 . S
H972 C986 0.930 . S
H973 C988 0.960 . S
H974 C988 0.960 . S
H975 C988 0.960 . S
C976 H968 0.929 . S
C976 C977 1.377 . S
C976 C978 1.384 . S
C977 C976 1.377 . S
C977 C983 1.390 . S
C978 H969 0.930 . S
C978 C976 1.384 . S
C978 C979 1.372 . S
C979 C978 1.372 . S
C979 C980 1.400 . S
C979 C984 1.490 . S
C980 H970 0.930 . S
C980 C979 1.400 . S
C980 C983 1.386 . S
H981 C997 0.930 . S
H982 C998 0.931 . S
C983 H971 0.929 . S
C983 C977 1.390 . S
C983 C980 1.386 . S
C984 C979 1.490 . S
C984 C986 1.395 . S
C984 C987 1.403 . S
H985 C991 0.930 . S
C986 H972 0.930 . S
C986 C984 1.395 . S
C986 C989 1.403 . S
C987 C984 1.403 . S
C987 C988 1.524 . S
C987 C991 1.400 . S
C988 H973 0.960 . S
C988 H974 0.960 . S
C988 H975 0.960 . S
C988 C987 1.524 . S
C989 C986 1.403 . S
C989 C990 1.392 . S
C989 C993 1.495 . S
C990 C989 1.392 . S
C990 C991 1.385 . S
C990 C992 1.478 . S
C991 H985 0.930 . S
C991 C987 1.400 . S
C991 C990 1.385 . S
C992 C990 1.478 . S
C992 C994 1.381 . S
C992 C998 1.383 . S
C993 C989 1.495 . S
C993 H999 0.959 . S
C993 H1000 0.961 . S
C993 H1001 0.960 . S
C994 C992 1.381 . S
C994 C995 1.394 . S
C994 H1002 0.930 . S
C995 C994 1.394 . S
C995 C996 1.383 . S
C995 H1003 0.929 . S
C996 C995 1.383 . S
C996 C997 1.377 . S
C997 H981 0.930 . S
C997 C996 1.377 . S
C997 C998 1.379 . S
C998 H982 0.931 . S
C998 C992 1.383 . S
C998 C997 1.379 . S
H999 C993 0.959 . S
H1000 C993 0.961 . S
H1001 C993 0.960 . S
H1002 C994 0.930 . S
H1003 C995 0.929 . S
H1004 C1012 0.929 . S
H1005 C1014 0.930 . S
H1006 C1016 0.930 . S
H1007 C1019 0.929 . S
H1008 C1022 0.930 . S
H1009 C1024 0.960 . S
H1010 C1024 0.960 . S
H1011 C1024 0.960 . S
C1012 H1004 0.929 . S
C1012 C1013 1.377 . S
C1012 C1014 1.384 . S
C1013 C1012 1.377 . S
C1013 C1019 1.390 . S
C1014 H1005 0.930 . S
C1014 C1012 1.384 . S
C1014 C1015 1.372 . S
C1015 C1014 1.372 . S
C1015 C1016 1.400 . S
C1015 C1020 1.490 . S
C1016 H1006 0.930 . S
C1016 C1015 1.400 . S
C1016 C1019 1.386 . S
H1017 C1033 0.930 . S
H1018 C1034 0.931 . S
C1019 H1007 0.929 . S
C1019 C1013 1.390 . S
C1019 C1016 1.386 . S
C1020 C1015 1.490 . S
C1020 C1022 1.395 . S
C1020 C1023 1.403 . S
H1021 C1027 0.930 . S
C1022 H1008 0.930 . S
C1022 C1020 1.395 . S
C1022 C1025 1.403 . S
C1023 C1020 1.403 . S
C1023 C1024 1.524 . S
C1023 C1027 1.400 . S
C1024 H1009 0.960 . S
C1024 H1010 0.960 . S
C1024 H1011 0.960 . S
C1024 C1023 1.524 . S
C1025 C1022 1.403 . S
C1025 C1026 1.392 . S
C1025 C1029 1.495 . S
C1026 C1025 1.392 . S
C1026 C1027 1.385 . S
C1026 C1028 1.478 . S
C1027 H1021 0.930 . S
C1027 C1023 1.400 . S
C1027 C1026 1.385 . S
C1028 C1026 1.478 . S
C1028 C1030 1.381 . S
C1028 C1034 1.383 . S
C1029 C1025 1.495 . S
C1029 H1035 0.959 . S
C1029 H1036 0.961 . S
C1029 H1037 0.960 . S
C1030 C1028 1.381 . S
C1030 C1031 1.394 . S
C1030 H1038 0.930 . S
C1031 C1030 1.394 . S
C1031 C1032 1.383 . S
C1031 H1039 0.929 . S
C1032 C1031 1.383 . S
C1032 C1033 1.377 . S
C1033 H1017 0.930 . S
C1033 C1032 1.377 . S
C1033 C1034 1.379 . S
C1034 H1018 0.931 . S
C1034 C1028 1.383 . S
C1034 C1033 1.379 . S
H1035 C1029 0.959 . S
H1036 C1029 0.961 . S
H1037 C1029 0.960 . S
H1038 C1030 0.930 . S
H1039 C1031 0.929 . S
H1040 C1048 0.929 . S
H1041 C1050 0.930 . S
H1042 C1052 0.930 . S
H1043 C1055 0.929 . S
H1044 C1058 0.930 . S
H1045 C1060 0.960 . S
H1046 C1060 0.960 . S
H1047 C1060 0.960 . S
C1048 H1040 0.929 . S
C1048 C1049 1.377 . S
C1048 C1050 1.384 . S
C1049 C1048 1.377 . S
C1049 C1055 1.390 . S
C1050 H1041 0.930 . S
C1050 C1048 1.384 . S
C1050 C1051 1.372 . S
C1051 C1050 1.372 . S
C1051 C1052 1.400 . S
C1051 C1056 1.490 . S
C1052 H1042 0.930 . S
C1052 C1051 1.400 . S
C1052 C1055 1.386 . S
H1053 C1069 0.930 . S
H1054 C1070 0.931 . S
C1055 H1043 0.929 . S
C1055 C1049 1.390 . S
C1055 C1052 1.386 . S
C1056 C1051 1.490 . S
C1056 C1058 1.395 . S
C1056 C1059 1.403 . S
H1057 C1063 0.930 . S
C1058 H1044 0.930 . S
C1058 C1056 1.395 . S
C1058 C1061 1.403 . S
C1059 C1056 1.403 . S
C1059 C1060 1.524 . S
C1059 C1063 1.400 . S
C1060 H1045 0.960 . S
C1060 H1046 0.960 . S
C1060 H1047 0.960 . S
C1060 C1059 1.524 . S
C1061 C1058 1.403 . S
C1061 C1062 1.392 . S
C1061 C1065 1.495 . S
C1062 C1061 1.392 . S
C1062 C1063 1.385 . S
C1062 C1064 1.478 . S
C1063 H1057 0.930 . S
C1063 C1059 1.400 . S
C1063 C1062 1.385 . S
C1064 C1062 1.478 . S
C1064 C1066 1.381 . S
C1064 C1070 1.383 . S
C1065 C1061 1.495 . S
C1065 H1071 0.959 . S
C1065 H1072 0.961 . S
C1065 H1073 0.960 . S
C1066 C1064 1.381 . S
C1066 C1067 1.394 . S
C1066 H1074 0.930 . S
C1067 C1066 1.394 . S
C1067 C1068 1.383 . S
C1067 H1075 0.929 . S
C1068 C1067 1.383 . S
C1068 C1069 1.377 . S
C1069 H1053 0.930 . S
C1069 C1068 1.377 . S
C1069 C1070 1.379 . S
C1070 H1054 0.931 . S
C1070 C1064 1.383 . S
C1070 C1069 1.379 . S
H1071 C1065 0.959 . S
H1072 C1065 0.961 . S
H1073 C1065 0.960 . S
H1074 C1066 0.930 . S
H1075 C1067 0.929 . S
H1076 C1084 0.929 . S
H1077 C1086 0.930 . S
H1078 C1088 0.930 . S
H1079 C1091 0.929 . S
H1080 C1094 0.930 . S
H1081 C1096 0.960 . S
H1082 C1096 0.960 . S
H1083 C1096 0.960 . S
C1084 H1076 0.929 . S
C1084 C1085 1.377 . S
C1084 C1086 1.384 . S
C1085 C1084 1.377 . S
C1085 C1091 1.390 . S
C1086 H1077 0.930 . S
C1086 C1084 1.384 . S
C1086 C1087 1.372 . S
C1087 C1086 1.372 . S
C1087 C1088 1.400 . S
C1087 C1092 1.490 . S
C1088 H1078 0.930 . S
C1088 C1087 1.400 . S
C1088 C1091 1.386 . S
H1089 C1105 0.930 . S
H1090 C1106 0.931 . S
C1091 H1079 0.929 . S
C1091 C1085 1.390 . S
C1091 C1088 1.386 . S
C1092 C1087 1.490 . S
C1092 C1094 1.395 . S
C1092 C1095 1.403 . S
H1093 C1099 0.930 . S
C1094 H1080 0.930 . S
C1094 C1092 1.395 . S
C1094 C1097 1.403 . S
C1095 C1092 1.403 . S
C1095 C1096 1.524 . S
C1095 C1099 1.400 . S
C1096 H1081 0.960 . S
C1096 H1082 0.960 . S
C1096 H1083 0.960 . S
C1096 C1095 1.524 . S
C1097 C1094 1.403 . S
C1097 C1098 1.392 . S
C1097 C1101 1.495 . S
C1098 C1097 1.392 . S
C1098 C1099 1.385 . S
C1098 C1100 1.478 . S
C1099 H1093 0.930 . S
C1099 C1095 1.400 . S
C1099 C1098 1.385 . S
C1100 C1098 1.478 . S
C1100 C1102 1.381 . S
C1100 C1106 1.383 . S
C1101 C1097 1.495 . S
C1101 H1107 0.959 . S
C1101 H1108 0.961 . S
C1101 H1109 0.960 . S
C1102 C1100 1.381 . S
C1102 C1103 1.394 . S
C1102 H1110 0.930 . S
C1103 C1102 1.394 . S
C1103 C1104 1.383 . S
C1103 H1111 0.929 . S
C1104 C1103 1.383 . S
C1104 C1105 1.377 . S
C1105 H1089 0.930 . S
C1105 C1104 1.377 . S
C1105 C1106 1.379 . S
C1106 H1090 0.931 . S
C1106 C1100 1.383 . S
C1106 C1105 1.379 . S
H1107 C1101 0.959 . S
H1108 C1101 0.961 . S
H1109 C1101 0.960 . S
H1110 C1102 0.930 . S
H1111 C1103 0.929 . S
H1112 C1120 0.929 . S
H1113 C1122 0.930 . S
H1114 C1124 0.930 . S
H1115 C1127 0.929 . S
H1116 C1130 0.930 . S
H1117 C1132 0.960 . S
H1118 C1132 0.960 . S
H1119 C1132 0.960 . S
C1120 H1112 0.929 . S
C1120 C1121 1.377 . S
C1120 C1122 1.384 . S
C1121 C1120 1.377 . S
C1121 C1127 1.390 . S
C1122 H1113 0.930 . S
C1122 C1120 1.384 . S
C1122 C1123 1.372 . S
C1123 C1122 1.372 . S
C1123 C1124 1.400 . S
C1123 C1128 1.490 . S
C1124 H1114 0.930 . S
C1124 C1123 1.400 . S
C1124 C1127 1.386 . S
H1125 C1141 0.930 . S
H1126 C1142 0.931 . S
C1127 H1115 0.929 . S
C1127 C1121 1.390 . S
C1127 C1124 1.386 . S
C1128 C1123 1.490 . S
C1128 C1130 1.395 . S
C1128 C1131 1.403 . S
H1129 C1135 0.930 . S
C1130 H1116 0.930 . S
C1130 C1128 1.395 . S
C1130 C1133 1.403 . S
C1131 C1128 1.403 . S
C1131 C1132 1.524 . S
C1131 C1135 1.400 . S
C1132 H1117 0.960 . S
C1132 H1118 0.960 . S
C1132 H1119 0.960 . S
C1132 C1131 1.524 . S
C1133 C1130 1.403 . S
C1133 C1134 1.392 . S
C1133 C1137 1.495 . S
C1134 C1133 1.392 . S
C1134 C1135 1.385 . S
C1134 C1136 1.478 . S
C1135 H1129 0.930 . S
C1135 C1131 1.400 . S
C1135 C1134 1.385 . S
C1136 C1134 1.478 . S
C1136 C1138 1.381 . S
C1136 C1142 1.383 . S
C1137 C1133 1.495 . S
C1137 H1143 0.959 . S
C1137 H1144 0.961 . S
C1137 H1145 0.960 . S
C1138 C1136 1.381 . S
C1138 C1139 1.394 . S
C1138 H1146 0.930 . S
C1139 C1138 1.394 . S
C1139 C1140 1.383 . S
C1139 H1147 0.929 . S
C1140 C1139 1.383 . S
C1140 C1141 1.377 . S
C1141 H1125 0.930 . S
C1141 C1140 1.377 . S
C1141 C1142 1.379 . S
C1142 H1126 0.931 . S
C1142 C1136 1.383 . S
C1142 C1141 1.379 . S
H1143 C1137 0.959 . S
H1144 C1137 0.961 . S
H1145 C1137 0.960 . S
H1146 C1138 0.930 . S
H1147 C1139 0.929 . S
H1148 C1156 0.929 . S
H1149 C1158 0.930 . S
H1150 C1160 0.930 . S
H1151 C1163 0.929 . S
H1152 C1166 0.930 . S
H1153 C1168 0.960 . S
H1154 C1168 0.960 . S
H1155 C1168 0.960 . S
C1156 H1148 0.929 . S
C1156 C1157 1.377 . S
C1156 C1158 1.384 . S
C1157 C1156 1.377 . S
C1157 C1163 1.390 . S
C1158 H1149 0.930 . S
C1158 C1156 1.384 . S
C1158 C1159 1.372 . S
C1159 C1158 1.372 . S
C1159 C1160 1.400 . S
C1159 C1164 1.490 . S
C1160 H1150 0.930 . S
C1160 C1159 1.400 . S
C1160 C1163 1.386 . S
H1161 C1177 0.930 . S
H1162 C1178 0.931 . S
C1163 H1151 0.929 . S
C1163 C1157 1.390 . S
C1163 C1160 1.386 . S
C1164 C1159 1.490 . S
C1164 C1166 1.395 . S
C1164 C1167 1.403 . S
H1165 C1171 0.930 . S
C1166 H1152 0.930 . S
C1166 C1164 1.395 . S
C1166 C1169 1.403 . S
C1167 C1164 1.403 . S
C1167 C1168 1.524 . S
C1167 C1171 1.400 . S
C1168 H1153 0.960 . S
C1168 H1154 0.960 . S
C1168 H1155 0.960 . S
C1168 C1167 1.524 . S
C1169 C1166 1.403 . S
C1169 C1170 1.392 . S
C1169 C1173 1.495 . S
C1170 C1169 1.392 . S
C1170 C1171 1.385 . S
C1170 C1172 1.478 . S
C1171 H1165 0.930 . S
C1171 C1167 1.400 . S
C1171 C1170 1.385 . S
C1172 C1170 1.478 . S
C1172 C1174 1.381 . S
C1172 C1178 1.383 . S
C1173 C1169 1.495 . S
C1173 H1179 0.959 . S
C1173 H1180 0.961 . S
C1173 H1181 0.960 . S
C1174 C1172 1.381 . S
C1174 C1175 1.394 . S
C1174 H1182 0.930 . S
C1175 C1174 1.394 . S
C1175 C1176 1.383 1_556 S
C1175 H1183 0.929 . S
C1176 C1175 1.383 1_554 S
C1176 C1177 1.377 . S
C1177 H1161 0.930 . S
C1177 C1176 1.377 . S
C1177 C1178 1.379 1_554 S
C1178 H1162 0.931 . S
C1178 C1172 1.383 . S
C1178 C1177 1.379 1_556 S
H1179 C1173 0.959 . S
H1180 C1173 0.961 . S
H1181 C1173 0.960 . S
H1182 C1174 0.930 . S
H1183 C1175 0.929 . S
H1184 C1192 0.929 . S
H1185 C1194 0.930 . S
H1186 C1196 0.930 . S
H1187 C1199 0.929 . S
H1188 C1202 0.930 . S
H1189 C1204 0.960 . S
H1190 C1204 0.960 . S
H1191 C1204 0.960 . S
C1192 H1184 0.929 . S
C1192 C1193 1.377 . S
C1192 C1194 1.384 . S
C1193 C1192 1.377 . S
C1193 C1199 1.390 . S
C1194 H1185 0.930 . S
C1194 C1192 1.384 . S
C1194 C1195 1.372 . S
C1195 C1194 1.372 . S
C1195 C1196 1.400 . S
C1195 C1200 1.490 . S
C1196 H1186 0.930 . S
C1196 C1195 1.400 . S
C1196 C1199 1.386 . S
H1197 C1213 0.930 . S
H1198 C1214 0.931 . S
C1199 H1187 0.929 . S
C1199 C1193 1.390 . S
C1199 C1196 1.386 . S
C1200 C1195 1.490 . S
C1200 C1202 1.395 . S
C1200 C1203 1.403 . S
H1201 C1207 0.930 . S
C1202 H1188 0.930 . S
C1202 C1200 1.395 . S
C1202 C1205 1.403 . S
C1203 C1200 1.403 . S
C1203 C1204 1.524 . S
C1203 C1207 1.400 . S
C1204 H1189 0.960 . S
C1204 H1190 0.960 . S
C1204 H1191 0.960 . S
C1204 C1203 1.524 . S
C1205 C1202 1.403 . S
C1205 C1206 1.392 . S
C1205 C1209 1.495 . S
C1206 C1205 1.392 . S
C1206 C1207 1.385 . S
C1206 C1208 1.478 . S
C1207 H1201 0.930 . S
C1207 C1203 1.400 . S
C1207 C1206 1.385 . S
C1208 C1206 1.478 . S
C1208 C1210 1.381 . S
C1208 C1214 1.383 . S
C1209 C1205 1.495 . S
C1209 H1215 0.959 . S
C1209 H1216 0.961 . S
C1209 H1217 0.960 . S
C1210 C1208 1.381 . S
C1210 C1211 1.394 . S
C1210 H1218 0.930 . S
C1211 C1210 1.394 . S
C1211 C1212 1.383 . S
C1211 H1219 0.929 . S
C1212 C1211 1.383 . S
C1212 C1213 1.377 . S
C1213 H1197 0.930 . S
C1213 C1212 1.377 . S
C1213 C1214 1.379 . S
C1214 H1198 0.931 . S
C1214 C1208 1.383 . S
C1214 C1213 1.379 . S
H1215 C1209 0.959 . S
H1216 C1209 0.961 . S
H1217 C1209 0.960 . S
H1218 C1210 0.930 . S
H1219 C1211 0.929 . S
H1220 C1228 0.929 . S
H1221 C1230 0.930 . S
H1222 C1232 0.930 . S
H1223 C1235 0.929 . S
H1224 C1238 0.930 . S
H1225 C1240 0.960 . S
H1226 C1240 0.960 . S
H1227 C1240 0.960 . S
C1228 H1220 0.929 . S
C1228 C1229 1.377 . S
C1228 C1230 1.384 . S
C1229 C1228 1.377 . S
C1229 C1235 1.390 . S
C1230 H1221 0.930 . S
C1230 C1228 1.384 . S
C1230 C1231 1.372 . S
C1231 C1230 1.372 . S
C1231 C1232 1.400 . S
C1231 C1236 1.490 . S
C1232 H1222 0.930 . S
C1232 C1231 1.400 . S
C1232 C1235 1.386 . S
H1233 C1249 0.930 . S
H1234 C1250 0.931 . S
C1235 H1223 0.929 . S
C1235 C1229 1.390 . S
C1235 C1232 1.386 . S
C1236 C1231 1.490 . S
C1236 C1238 1.395 . S
C1236 C1239 1.403 . S
H1237 C1243 0.930 . S
C1238 H1224 0.930 . S
C1238 C1236 1.395 . S
C1238 C1241 1.403 . S
C1239 C1236 1.403 . S
C1239 C1240 1.524 . S
C1239 C1243 1.400 . S
C1240 H1225 0.960 . S
C1240 H1226 0.960 . S
C1240 H1227 0.960 . S
C1240 C1239 1.524 . S
C1241 C1238 1.403 . S
C1241 C1242 1.392 . S
C1241 C1245 1.495 . S
C1242 C1241 1.392 . S
C1242 C1243 1.385 . S
C1242 C1244 1.478 . S
C1243 H1237 0.930 . S
C1243 C1239 1.400 . S
C1243 C1242 1.385 . S
C1244 C1242 1.478 . S
C1244 C1246 1.381 . S
C1244 C1250 1.383 . S
C1245 C1241 1.495 . S
C1245 H1251 0.959 . S
C1245 H1252 0.961 . S
C1245 H1253 0.960 . S
C1246 C1244 1.381 . S
C1246 C1247 1.394 . S
C1246 H1254 0.930 . S
C1247 C1246 1.394 . S
C1247 C1248 1.383 . S
C1247 H1255 0.929 . S
C1248 C1247 1.383 . S
C1248 C1249 1.377 . S
C1249 H1233 0.930 . S
C1249 C1248 1.377 . S
C1249 C1250 1.379 . S
C1250 H1234 0.931 . S
C1250 C1244 1.383 . S
C1250 C1249 1.379 . S
H1251 C1245 0.959 . S
H1252 C1245 0.961 . S
H1253 C1245 0.960 . S
H1254 C1246 0.930 . S
H1255 C1247 0.929 . S
H1256 C1264 0.929 . S
H1257 C1266 0.930 . S
H1258 C1268 0.930 . S
H1259 C1271 0.929 . S
H1260 C1274 0.930 . S
H1261 C1276 0.960 . S
H1262 C1276 0.960 . S
H1263 C1276 0.960 . S
C1264 H1256 0.929 . S
C1264 C1265 1.377 . S
C1264 C1266 1.384 . S
C1265 C1264 1.377 . S
C1265 C1271 1.390 . S
C1266 H1257 0.930 . S
C1266 C1264 1.384 . S
C1266 C1267 1.372 . S
C1267 C1266 1.372 . S
C1267 C1268 1.400 . S
C1267 C1272 1.490 . S
C1268 H1258 0.930 . S
C1268 C1267 1.400 . S
C1268 C1271 1.386 . S
H1269 C1285 0.930 . S
H1270 C1286 0.931 . S
C1271 H1259 0.929 . S
C1271 C1265 1.390 . S
C1271 C1268 1.386 . S
C1272 C1267 1.490 . S
C1272 C1274 1.395 . S
C1272 C1275 1.403 . S
H1273 C1279 0.930 . S
C1274 H1260 0.930 . S
C1274 C1272 1.395 . S
C1274 C1277 1.403 . S
C1275 C1272 1.403 . S
C1275 C1276 1.524 . S
C1275 C1279 1.400 . S
C1276 H1261 0.960 . S
C1276 H1262 0.960 . S
C1276 H1263 0.960 . S
C1276 C1275 1.524 . S
C1277 C1274 1.403 . S
C1277 C1278 1.392 . S
C1277 C1281 1.495 . S
C1278 C1277 1.392 . S
C1278 C1279 1.385 . S
C1278 C1280 1.478 . S
C1279 H1273 0.930 . S
C1279 C1275 1.400 . S
C1279 C1278 1.385 . S
C1280 C1278 1.478 . S
C1280 C1282 1.381 . S
C1280 C1286 1.383 . S
C1281 C1277 1.495 . S
C1281 H1287 0.959 . S
C1281 H1288 0.961 . S
C1281 H1289 0.960 . S
C1282 C1280 1.381 . S
C1282 C1283 1.394 . S
C1282 H1290 0.930 . S
C1283 C1282 1.394 . S
C1283 C1284 1.383 . S
C1283 H1291 0.929 . S
C1284 C1283 1.383 . S
C1284 C1285 1.377 . S
C1285 H1269 0.930 . S
C1285 C1284 1.377 . S
C1285 C1286 1.379 . S
C1286 H1270 0.931 . S
C1286 C1280 1.383 . S
C1286 C1285 1.379 . S
H1287 C1281 0.959 . S
H1288 C1281 0.961 . S
H1289 C1281 0.960 . S
H1290 C1282 0.930 . S
H1291 C1283 0.929 . S
H1292 C1300 0.929 . S
H1293 C1302 0.930 . S
H1294 C1304 0.930 . S
H1295 C1307 0.929 . S
H1296 C1310 0.930 . S
H1297 C1312 0.960 . S
H1298 C1312 0.960 . S
H1299 C1312 0.960 . S
C1300 H1292 0.929 . S
C1300 C1301 1.377 . S
C1300 C1302 1.384 . S
C1301 C1300 1.377 . S
C1301 C1307 1.390 . S
C1302 H1293 0.930 . S
C1302 C1300 1.384 . S
C1302 C1303 1.372 . S
C1303 C1302 1.372 . S
C1303 C1304 1.400 . S
C1303 C1308 1.490 . S
C1304 H1294 0.930 . S
C1304 C1303 1.400 . S
C1304 C1307 1.386 . S
H1305 C1321 0.930 . S
H1306 C1322 0.931 . S
C1307 H1295 0.929 . S
C1307 C1301 1.390 . S
C1307 C1304 1.386 . S
C1308 C1303 1.490 . S
C1308 C1310 1.395 . S
C1308 C1311 1.403 . S
H1309 C1315 0.930 . S
C1310 H1296 0.930 . S
C1310 C1308 1.395 . S
C1310 C1313 1.403 . S
C1311 C1308 1.403 . S
C1311 C1312 1.524 . S
C1311 C1315 1.400 . S
C1312 H1297 0.960 . S
C1312 H1298 0.960 . S
C1312 H1299 0.960 . S
C1312 C1311 1.524 . S
C1313 C1310 1.403 . S
C1313 C1314 1.392 . S
C1313 C1317 1.495 . S
C1314 C1313 1.392 . S
C1314 C1315 1.385 . S
C1314 C1316 1.478 . S
C1315 H1309 0.930 . S
C1315 C1311 1.400 . S
C1315 C1314 1.385 . S
C1316 C1314 1.478 . S
C1316 C1318 1.381 . S
C1316 C1322 1.383 . S
C1317 C1313 1.495 . S
C1317 H1323 0.959 . S
C1317 H1324 0.961 . S
C1317 H1325 0.960 . S
C1318 C1316 1.381 . S
C1318 C1319 1.394 . S
C1318 H1326 0.930 . S
C1319 C1318 1.394 . S
C1319 C1320 1.383 . S
C1319 H1327 0.929 . S
C1320 C1319 1.383 . S
C1320 C1321 1.377 . S
C1321 H1305 0.930 . S
C1321 C1320 1.377 . S
C1321 C1322 1.379 . S
C1322 H1306 0.931 . S
C1322 C1316 1.383 . S
C1322 C1321 1.379 . S
H1323 C1317 0.959 . S
H1324 C1317 0.961 . S
H1325 C1317 0.960 . S
H1326 C1318 0.930 . S
H1327 C1319 0.929 . S
H1328 C1336 0.929 . S
H1329 C1338 0.930 . S
H1330 C1340 0.930 . S
H1331 C1343 0.929 . S
H1332 C1346 0.930 . S
H1333 C1348 0.960 . S
H1334 C1348 0.960 . S
H1335 C1348 0.960 . S
C1336 H1328 0.929 . S
C1336 C1337 1.377 . S
C1336 C1338 1.384 . S
C1337 C1336 1.377 . S
C1337 C1343 1.390 . S
C1338 H1329 0.930 . S
C1338 C1336 1.384 . S
C1338 C1339 1.372 . S
C1339 C1338 1.372 . S
C1339 C1340 1.400 . S
C1339 C1344 1.490 . S
C1340 H1330 0.930 . S
C1340 C1339 1.400 . S
C1340 C1343 1.386 . S
H1341 C1357 0.930 . S
H1342 C1358 0.931 . S
C1343 H1331 0.929 . S
C1343 C1337 1.390 . S
C1343 C1340 1.386 . S
C1344 C1339 1.490 . S
C1344 C1346 1.395 . S
C1344 C1347 1.403 . S
H1345 C1351 0.930 . S
C1346 H1332 0.930 . S
C1346 C1344 1.395 . S
C1346 C1349 1.403 . S
C1347 C1344 1.403 . S
C1347 C1348 1.524 . S
C1347 C1351 1.400 . S
C1348 H1333 0.960 . S
C1348 H1334 0.960 . S
C1348 H1335 0.960 . S
C1348 C1347 1.524 . S
C1349 C1346 1.403 . S
C1349 C1350 1.392 . S
C1349 C1353 1.495 . S
C1350 C1349 1.392 . S
C1350 C1351 1.385 . S
C1350 C1352 1.478 . S
C1351 H1345 0.930 . S
C1351 C1347 1.400 . S
C1351 C1350 1.385 . S
C1352 C1350 1.478 . S
C1352 C1354 1.381 . S
C1352 C1358 1.383 . S
C1353 C1349 1.495 . S
C1353 H1359 0.959 . S
C1353 H1360 0.961 . S
C1353 H1361 0.960 . S
C1354 C1352 1.381 . S
C1354 C1355 1.394 . S
C1354 H1362 0.930 . S
C1355 C1354 1.394 . S
C1355 C1356 1.383 . S
C1355 H1363 0.929 . S
C1356 C1355 1.383 . S
C1356 C1357 1.377 . S
C1357 H1341 0.930 . S
C1357 C1356 1.377 . S
C1357 C1358 1.379 . S
C1358 H1342 0.931 . S
C1358 C1352 1.383 . S
C1358 C1357 1.379 . S
H1359 C1353 0.959 . S
H1360 C1353 0.961 . S
H1361 C1353 0.960 . S
H1362 C1354 0.930 . S
H1363 C1355 0.929 . S
H1364 C1372 0.929 . S
H1365 C1374 0.930 . S
H1366 C1376 0.930 . S
H1367 C1379 0.929 . S
H1368 C1382 0.930 . S
H1369 C1384 0.960 . S
H1370 C1384 0.960 . S
H1371 C1384 0.960 . S
C1372 H1364 0.929 . S
C1372 C1373 1.377 . S
C1372 C1374 1.384 . S
C1373 C1372 1.377 . S
C1373 C1379 1.390 . S
C1374 H1365 0.930 . S
C1374 C1372 1.384 . S
C1374 C1375 1.372 . S
C1375 C1374 1.372 . S
C1375 C1376 1.400 . S
C1375 C1380 1.490 . S
C1376 H1366 0.930 . S
C1376 C1375 1.400 . S
C1376 C1379 1.386 . S
H1377 C1393 0.930 . S
H1378 C1394 0.931 . S
C1379 H1367 0.929 . S
C1379 C1373 1.390 . S
C1379 C1376 1.386 . S
C1380 C1375 1.490 . S
C1380 C1382 1.395 . S
C1380 C1383 1.403 . S
H1381 C1387 0.930 . S
C1382 H1368 0.930 . S
C1382 C1380 1.395 . S
C1382 C1385 1.403 . S
C1383 C1380 1.403 . S
C1383 C1384 1.524 . S
C1383 C1387 1.400 . S
C1384 H1369 0.960 . S
C1384 H1370 0.960 . S
C1384 H1371 0.960 . S
C1384 C1383 1.524 . S
C1385 C1382 1.403 . S
C1385 C1386 1.392 . S
C1385 C1389 1.495 . S
C1386 C1385 1.392 . S
C1386 C1387 1.385 . S
C1386 C1388 1.478 . S
C1387 H1381 0.930 . S
C1387 C1383 1.400 . S
C1387 C1386 1.385 . S
C1388 C1386 1.478 . S
C1388 C1390 1.381 . S
C1388 C1394 1.383 . S
C1389 C1385 1.495 . S
C1389 H1395 0.959 . S
C1389 H1396 0.961 . S
C1389 H1397 0.960 . S
C1390 C1388 1.381 . S
C1390 C1391 1.394 . S
C1390 H1398 0.930 . S
C1391 C1390 1.394 . S
C1391 C1392 1.383 . S
C1391 H1399 0.929 . S
C1392 C1391 1.383 . S
C1392 C1393 1.377 . S
C1393 H1377 0.930 . S
C1393 C1392 1.377 . S
C1393 C1394 1.379 . S
C1394 H1378 0.931 . S
C1394 C1388 1.383 . S
C1394 C1393 1.379 . S
H1395 C1389 0.959 . S
H1396 C1389 0.961 . S
H1397 C1389 0.960 . S
H1398 C1390 0.930 . S
H1399 C1391 0.929 . S
H1400 C1408 0.929 . S
H1401 C1410 0.930 . S
H1402 C1412 0.930 . S
H1403 C1415 0.929 . S
H1404 C1418 0.930 . S
H1405 C1420 0.960 . S
H1406 C1420 0.960 . S
H1407 C1420 0.960 . S
C1408 H1400 0.929 . S
C1408 C1409 1.377 . S
C1408 C1410 1.384 . S
C1409 C1408 1.377 . S
C1409 C1415 1.390 . S
C1410 H1401 0.930 . S
C1410 C1408 1.384 . S
C1410 C1411 1.372 . S
C1411 C1410 1.372 . S
C1411 C1412 1.400 . S
C1411 C1416 1.490 . S
C1412 H1402 0.930 . S
C1412 C1411 1.400 . S
C1412 C1415 1.386 . S
H1413 C1429 0.930 . S
H1414 C1430 0.931 . S
C1415 H1403 0.929 . S
C1415 C1409 1.390 . S
C1415 C1412 1.386 . S
C1416 C1411 1.490 . S
C1416 C1418 1.395 . S
C1416 C1419 1.403 . S
H1417 C1423 0.930 . S
C1418 H1404 0.930 . S
C1418 C1416 1.395 . S
C1418 C1421 1.403 . S
C1419 C1416 1.403 . S
C1419 C1420 1.524 . S
C1419 C1423 1.400 . S
C1420 H1405 0.960 . S
C1420 H1406 0.960 . S
C1420 H1407 0.960 . S
C1420 C1419 1.524 . S
C1421 C1418 1.403 . S
C1421 C1422 1.392 . S
C1421 C1425 1.495 . S
C1422 C1421 1.392 . S
C1422 C1423 1.385 . S
C1422 C1424 1.478 . S
C1423 H1417 0.930 . S
C1423 C1419 1.400 . S
C1423 C1422 1.385 . S
C1424 C1422 1.478 . S
C1424 C1426 1.381 . S
C1424 C1430 1.383 . S
C1425 C1421 1.495 . S
C1425 H1431 0.959 . S
C1425 H1432 0.961 . S
C1425 H1433 0.960 . S
C1426 C1424 1.381 . S
C1426 C1427 1.394 . S
C1426 H1434 0.930 . S
C1427 C1426 1.394 . S
C1427 C1428 1.383 . S
C1427 H1435 0.929 . S
C1428 C1427 1.383 . S
C1428 C1429 1.377 . S
C1429 H1413 0.930 . S
C1429 C1428 1.377 . S
C1429 C1430 1.379 . S
C1430 H1414 0.931 . S
C1430 C1424 1.383 . S
C1430 C1429 1.379 . S
H1431 C1425 0.959 . S
H1432 C1425 0.961 . S
H1433 C1425 0.960 . S
H1434 C1426 0.930 . S
H1435 C1427 0.929 . S
H1436 C1444 0.929 . S
H1437 C1446 0.930 . S
H1438 C1448 0.930 . S
H1439 C1451 0.929 . S
H1440 C1454 0.930 . S
H1441 C1456 0.960 . S
H1442 C1456 0.960 . S
H1443 C1456 0.960 . S
C1444 H1436 0.929 . S
C1444 C1445 1.377 . S
C1444 C1446 1.384 . S
C1445 C1444 1.377 . S
C1445 C1451 1.390 . S
C1446 H1437 0.930 . S
C1446 C1444 1.384 . S
C1446 C1447 1.372 . S
C1447 C1446 1.372 . S
C1447 C1448 1.400 . S
C1447 C1452 1.490 . S
C1448 H1438 0.930 . S
C1448 C1447 1.400 . S
C1448 C1451 1.386 . S
H1449 C1465 0.930 . S
H1450 C1466 0.931 . S
C1451 H1439 0.929 . S
C1451 C1445 1.390 . S
C1451 C1448 1.386 . S
C1452 C1447 1.490 . S
C1452 C1454 1.395 . S
C1452 C1455 1.403 . S
H1453 C1459 0.930 . S
C1454 H1440 0.930 . S
C1454 C1452 1.395 . S
C1454 C1457 1.403 . S
C1455 C1452 1.403 . S
C1455 C1456 1.524 . S
C1455 C1459 1.400 . S
C1456 H1441 0.960 . S
C1456 H1442 0.960 . S
C1456 H1443 0.960 . S
C1456 C1455 1.524 . S
C1457 C1454 1.403 . S
C1457 C1458 1.392 . S
C1457 C1461 1.495 . S
C1458 C1457 1.392 . S
C1458 C1459 1.385 . S
C1458 C1460 1.478 . S
C1459 H1453 0.930 . S
C1459 C1455 1.400 . S
C1459 C1458 1.385 . S
C1460 C1458 1.478 . S
C1460 C1462 1.381 . S
C1460 C1466 1.383 . S
C1461 C1457 1.495 . S
C1461 H1467 0.959 . S
C1461 H1468 0.961 . S
C1461 H1469 0.960 . S
C1462 C1460 1.381 . S
C1462 C1463 1.394 . S
C1462 H1470 0.930 . S
C1463 C1462 1.394 . S
C1463 C1464 1.383 . S
C1463 H1471 0.929 . S
C1464 C1463 1.383 . S
C1464 C1465 1.377 . S
C1465 H1449 0.930 . S
C1465 C1464 1.377 . S
C1465 C1466 1.379 . S
C1466 H1450 0.931 . S
C1466 C1460 1.383 . S
C1466 C1465 1.379 . S
H1467 C1461 0.959 . S
H1468 C1461 0.961 . S
H1469 C1461 0.960 . S
H1470 C1462 0.930 . S
H1471 C1463 0.929 . S
H1472 C1480 0.929 . S
H1473 C1482 0.930 . S
H1474 C1484 0.930 . S
H1475 C1487 0.929 . S
H1476 C1490 0.930 . S
H1477 C1492 0.960 . S
H1478 C1492 0.960 . S
H1479 C1492 0.960 . S
C1480 H1472 0.929 . S
C1480 C1481 1.377 . S
C1480 C1482 1.384 . S
C1481 C1480 1.377 . S
C1481 C1487 1.390 . S
C1482 H1473 0.930 . S
C1482 C1480 1.384 . S
C1482 C1483 1.372 . S
C1483 C1482 1.372 . S
C1483 C1484 1.400 . S
C1483 C1488 1.490 . S
C1484 H1474 0.930 . S
C1484 C1483 1.400 . S
C1484 C1487 1.386 . S
H1485 C1501 0.930 . S
H1486 C1502 0.931 . S
C1487 H1475 0.929 . S
C1487 C1481 1.390 . S
C1487 C1484 1.386 . S
C1488 C1483 1.490 . S
C1488 C1490 1.395 . S
C1488 C1491 1.403 . S
H1489 C1495 0.930 . S
C1490 H1476 0.930 . S
C1490 C1488 1.395 . S
C1490 C1493 1.403 . S
C1491 C1488 1.403 . S
C1491 C1492 1.524 . S
C1491 C1495 1.400 . S
C1492 H1477 0.960 . S
C1492 H1478 0.960 . S
C1492 H1479 0.960 . S
C1492 C1491 1.524 . S
C1493 C1490 1.403 . S
C1493 C1494 1.392 . S
C1493 C1497 1.495 . S
C1494 C1493 1.392 . S
C1494 C1495 1.385 . S
C1494 C1496 1.478 . S
C1495 H1489 0.930 . S
C1495 C1491 1.400 . S
C1495 C1494 1.385 . S
C1496 C1494 1.478 . S
C1496 C1498 1.381 . S
C1496 C1502 1.383 . S
C1497 C1493 1.495 . S
C1497 H1503 0.959 . S
C1497 H1504 0.961 . S
C1497 H1505 0.960 . S
C1498 C1496 1.381 . S
C1498 C1499 1.394 . S
C1498 H1506 0.930 . S
C1499 C1498 1.394 . S
C1499 C1500 1.383 . S
C1499 H1507 0.929 . S
C1500 C1499 1.383 . S
C1500 C1501 1.377 . S
C1501 H1485 0.930 . S
C1501 C1500 1.377 . S
C1501 C1502 1.379 . S
C1502 H1486 0.931 . S
C1502 C1496 1.383 . S
C1502 C1501 1.379 . S
H1503 C1497 0.959 . S
H1504 C1497 0.961 . S
H1505 C1497 0.960 . S
H1506 C1498 0.930 . S
H1507 C1499 0.929 . S
H1508 C1516 0.929 . S
H1509 C1518 0.930 . S
H1510 C1520 0.930 . S
H1511 C1523 0.929 . S
H1512 C1526 0.930 . S
H1513 C1528 0.960 . S
H1514 C1528 0.960 . S
H1515 C1528 0.960 . S
C1516 H1508 0.929 . S
C1516 C1517 1.377 . S
C1516 C1518 1.384 . S
C1517 C1516 1.377 . S
C1517 C1523 1.390 . S
C1518 H1509 0.930 . S
C1518 C1516 1.384 . S
C1518 C1519 1.372 . S
C1519 C1518 1.372 . S
C1519 C1520 1.400 . S
C1519 C1524 1.490 . S
C1520 H1510 0.930 . S
C1520 C1519 1.400 . S
C1520 C1523 1.386 . S
H1521 C1537 0.930 . S
H1522 C1538 0.931 . S
C1523 H1511 0.929 . S
C1523 C1517 1.390 . S
C1523 C1520 1.386 . S
C1524 C1519 1.490 . S
C1524 C1526 1.395 . S
C1524 C1527 1.403 . S
H1525 C1531 0.930 . S
C1526 H1512 0.930 . S
C1526 C1524 1.395 . S
C1526 C1529 1.403 . S
C1527 C1524 1.403 . S
C1527 C1528 1.524 . S
C1527 C1531 1.400 . S
C1528 H1513 0.960 . S
C1528 H1514 0.960 . S
C1528 H1515 0.960 . S
C1528 C1527 1.524 . S
C1529 C1526 1.403 . S
C1529 C1530 1.392 . S
C1529 C1533 1.495 . S
C1530 C1529 1.392 . S
C1530 C1531 1.385 . S
C1530 C1532 1.478 . S
C1531 H1525 0.930 . S
C1531 C1527 1.400 . S
C1531 C1530 1.385 . S
C1532 C1530 1.478 . S
C1532 C1534 1.381 . S
C1532 C1538 1.383 . S
C1533 C1529 1.495 . S
C1533 H1539 0.959 . S
C1533 H1540 0.961 . S
C1533 H1541 0.960 . S
C1534 C1532 1.381 . S
C1534 C1535 1.394 . S
C1534 H1542 0.930 . S
C1535 C1534 1.394 . S
C1535 C1536 1.383 . S
C1535 H1543 0.929 . S
C1536 C1535 1.383 . S
C1536 C1537 1.377 . S
C1537 H1521 0.930 . S
C1537 C1536 1.377 . S
C1537 C1538 1.379 . S
C1538 H1522 0.931 . S
C1538 C1532 1.383 . S
C1538 C1537 1.379 . S
H1539 C1533 0.959 . S
H1540 C1533 0.961 . S
H1541 C1533 0.960 . S
H1542 C1534 0.930 . S
H1543 C1535 0.929 . S
H1544 C1552 0.929 . S
H1545 C1554 0.930 . S
H1546 C1556 0.930 . S
H1547 C1559 0.929 . S
H1548 C1562 0.930 . S
H1549 C1564 0.960 . S
H1550 C1564 0.960 . S
H1551 C1564 0.960 . S
C1552 H1544 0.929 . S
C1552 C1553 1.377 . S
C1552 C1554 1.384 . S
C1553 C1552 1.377 . S
C1553 C1559 1.390 . S
C1554 H1545 0.930 . S
C1554 C1552 1.384 . S
C1554 C1555 1.372 . S
C1555 C1554 1.372 . S
C1555 C1556 1.400 . S
C1555 C1560 1.490 . S
C1556 H1546 0.930 . S
C1556 C1555 1.400 . S
C1556 C1559 1.386 . S
H1557 C1573 0.930 . S
H1558 C1574 0.931 . S
C1559 H1547 0.929 . S
C1559 C1553 1.390 . S
C1559 C1556 1.386 . S
C1560 C1555 1.490 . S
C1560 C1562 1.395 . S
C1560 C1563 1.403 . S
H1561 C1567 0.930 . S
C1562 H1548 0.930 . S
C1562 C1560 1.395 . S
C1562 C1565 1.403 . S
C1563 C1560 1.403 . S
C1563 C1564 1.524 . S
C1563 C1567 1.400 . S
C1564 H1549 0.960 . S
C1564 H1550 0.960 . S
C1564 H1551 0.960 . S
C1564 C1563 1.524 . S
C1565 C1562 1.403 . S
C1565 C1566 1.392 . S
C1565 C1569 1.495 . S
C1566 C1565 1.392 . S
C1566 C1567 1.385 . S
C1566 C1568 1.478 . S
C1567 H1561 0.930 . S
C1567 C1563 1.400 . S
C1567 C1566 1.385 . S
C1568 C1566 1.478 . S
C1568 C1570 1.381 . S
C1568 C1574 1.383 . S
C1569 C1565 1.495 . S
C1569 H1575 0.959 . S
C1569 H1576 0.961 . S
C1569 H1577 0.960 . S
C1570 C1568 1.381 . S
C1570 C1571 1.394 . S
C1570 H1578 0.930 . S
C1571 C1570 1.394 . S
C1571 C1572 1.383 . S
C1571 H1579 0.929 . S
C1572 C1571 1.383 . S
C1572 C1573 1.377 . S
C1573 H1557 0.930 . S
C1573 C1572 1.377 . S
C1573 C1574 1.379 . S
C1574 H1558 0.931 . S
C1574 C1568 1.383 . S
C1574 C1573 1.379 . S
H1575 C1569 0.959 . S
H1576 C1569 0.961 . S
H1577 C1569 0.960 . S
H1578 C1570 0.930 . S
H1579 C1571 0.929 . S
H1580 C1588 0.929 . S
H1581 C1590 0.930 . S
H1582 C1592 0.930 . S
H1583 C1595 0.929 . S
H1584 C1598 0.930 . S
H1585 C1600 0.960 . S
H1586 C1600 0.960 . S
H1587 C1600 0.960 . S
C1588 H1580 0.929 . S
C1588 C1589 1.377 . S
C1588 C1590 1.384 . S
C1589 C1588 1.377 . S
C1589 C1595 1.390 . S
C1590 H1581 0.930 . S
C1590 C1588 1.384 . S
C1590 C1591 1.372 . S
C1591 C1590 1.372 . S
C1591 C1592 1.400 . S
C1591 C1596 1.490 . S
C1592 H1582 0.930 . S
C1592 C1591 1.400 . S
C1592 C1595 1.386 . S
H1593 C1609 0.930 . S
H1594 C1610 0.931 . S
C1595 H1583 0.929 . S
C1595 C1589 1.390 . S
C1595 C1592 1.386 . S
C1596 C1591 1.490 . S
C1596 C1598 1.395 . S
C1596 C1599 1.403 . S
H1597 C1603 0.930 . S
C1598 H1584 0.930 . S
C1598 C1596 1.395 . S
C1598 C1601 1.403 . S
C1599 C1596 1.403 . S
C1599 C1600 1.524 . S
C1599 C1603 1.400 . S
C1600 H1585 0.960 . S
C1600 H1586 0.960 . S
C1600 H1587 0.960 . S
C1600 C1599 1.524 . S
C1601 C1598 1.403 . S
C1601 C1602 1.392 . S
C1601 C1605 1.495 . S
C1602 C1601 1.392 . S
C1602 C1603 1.385 . S
C1602 C1604 1.478 . S
C1603 H1597 0.930 . S
C1603 C1599 1.400 . S
C1603 C1602 1.385 . S
C1604 C1602 1.478 . S
C1604 C1606 1.381 . S
C1604 C1610 1.383 . S
C1605 C1601 1.495 . S
C1605 H1611 0.959 . S
C1605 H1612 0.961 . S
C1605 H1613 0.960 . S
C1606 C1604 1.381 . S
C1606 C1607 1.394 . S
C1606 H1614 0.930 . S
C1607 C1606 1.394 . S
C1607 C1608 1.383 . S
C1607 H1615 0.929 1_565 S
C1608 C1607 1.383 . S
C1608 C1609 1.377 . S
C1609 H1593 0.930 . S
C1609 C1608 1.377 . S
C1609 C1610 1.379 . S
C1610 H1594 0.931 . S
C1610 C1604 1.383 . S
C1610 C1609 1.379 . S
H1611 C1605 0.959 . S
H1612 C1605 0.961 . S
H1613 C1605 0.960 . S
H1614 C1606 0.930 . S
H1615 C1607 0.929 1_545 S
H1616 C1624 0.929 . S
H1617 C1626 0.930 . S
H1618 C1628 0.930 . S
H1619 C1631 0.929 . S
H1620 C1634 0.930 . S
H1621 C1636 0.960 . S
H1622 C1636 0.960 . S
H1623 C1636 0.960 . S
C1624 H1616 0.929 . S
C1624 C1625 1.377 . S
C1624 C1626 1.384 . S
C1625 C1624 1.377 . S
C1625 C1631 1.390 . S
C1626 H1617 0.930 . S
C1626 C1624 1.384 . S
C1626 C1627 1.372 . S
C1627 C1626 1.372 . S
C1627 C1628 1.400 . S
C1627 C1632 1.490 . S
C1628 H1618 0.930 . S
C1628 C1627 1.400 . S
C1628 C1631 1.386 . S
H1629 C1645 0.930 . S
H1630 C1646 0.931 . S
C1631 H1619 0.929 . S
C1631 C1625 1.390 . S
C1631 C1628 1.386 . S
C1632 C1627 1.490 . S
C1632 C1634 1.395 . S
C1632 C1635 1.403 . S
H1633 C1639 0.930 . S
C1634 H1620 0.930 . S
C1634 C1632 1.395 . S
C1634 C1637 1.403 . S
C1635 C1632 1.403 . S
C1635 C1636 1.524 . S
C1635 C1639 1.400 . S
C1636 H1621 0.960 . S
C1636 H1622 0.960 . S
C1636 H1623 0.960 . S
C1636 C1635 1.524 . S
C1637 C1634 1.403 . S
C1637 C1638 1.392 . S
C1637 C1641 1.495 . S
C1638 C1637 1.392 . S
C1638 C1639 1.385 . S
C1638 C1640 1.478 . S
C1639 H1633 0.930 . S
C1639 C1635 1.400 . S
C1639 C1638 1.385 . S
C1640 C1638 1.478 . S
C1640 C1642 1.381 . S
C1640 C1646 1.383 . S
C1641 C1637 1.495 . S
C1641 H1647 0.959 . S
C1641 H1648 0.961 . S
C1641 H1649 0.960 . S
C1642 C1640 1.381 . S
C1642 C1643 1.394 . S
C1642 H1650 0.930 . S
C1643 C1642 1.394 . S
C1643 C1644 1.383 . S
C1643 H1651 0.929 . S
C1644 C1643 1.383 . S
C1644 C1645 1.377 . S
C1645 H1629 0.930 . S
C1645 C1644 1.377 . S
C1645 C1646 1.379 . S
C1646 H1630 0.931 . S
C1646 C1640 1.383 . S
C1646 C1645 1.379 . S
H1647 C1641 0.959 . S
H1648 C1641 0.961 . S
H1649 C1641 0.960 . S
H1650 C1642 0.930 . S
H1651 C1643 0.929 . S
H1652 C1660 0.929 . S
H1653 C1662 0.930 . S
H1654 C1664 0.930 . S
H1655 C1667 0.929 . S
H1656 C1670 0.930 . S
H1657 C1672 0.960 . S
H1658 C1672 0.960 . S
H1659 C1672 0.960 . S
C1660 H1652 0.929 . S
C1660 C1661 1.377 . S
C1660 C1662 1.384 . S
C1661 C1660 1.377 . S
C1661 C1667 1.390 . S
C1662 H1653 0.930 . S
C1662 C1660 1.384 . S
C1662 C1663 1.372 . S
C1663 C1662 1.372 . S
C1663 C1664 1.400 . S
C1663 C1668 1.490 . S
C1664 H1654 0.930 . S
C1664 C1663 1.400 . S
C1664 C1667 1.386 . S
H1665 C1681 0.930 . S
H1666 C1682 0.931 . S
C1667 H1655 0.929 . S
C1667 C1661 1.390 . S
C1667 C1664 1.386 . S
C1668 C1663 1.490 . S
C1668 C1670 1.395 . S
C1668 C1671 1.403 . S
H1669 C1675 0.930 . S
C1670 H1656 0.930 . S
C1670 C1668 1.395 . S
C1670 C1673 1.403 . S
C1671 C1668 1.403 . S
C1671 C1672 1.524 . S
C1671 C1675 1.400 . S
C1672 H1657 0.960 . S
C1672 H1658 0.960 . S
C1672 H1659 0.960 . S
C1672 C1671 1.524 . S
C1673 C1670 1.403 . S
C1673 C1674 1.392 . S
C1673 C1677 1.495 . S
C1674 C1673 1.392 . S
C1674 C1675 1.385 . S
C1674 C1676 1.478 . S
C1675 H1669 0.930 . S
C1675 C1671 1.400 . S
C1675 C1674 1.385 . S
C1676 C1674 1.478 . S
C1676 C1678 1.381 . S
C1676 C1682 1.383 . S
C1677 C1673 1.495 . S
C1677 H1683 0.959 . S
C1677 H1684 0.961 . S
C1677 H1685 0.960 . S
C1678 C1676 1.381 . S
C1678 C1679 1.394 . S
C1678 H1686 0.930 . S
C1679 C1678 1.394 . S
C1679 C1680 1.383 . S
C1679 H1687 0.929 . S
C1680 C1679 1.383 . S
C1680 C1681 1.377 . S
C1681 H1665 0.930 . S
C1681 C1680 1.377 . S
C1681 C1682 1.379 . S
C1682 H1666 0.931 . S
C1682 C1676 1.383 . S
C1682 C1681 1.379 . S
H1683 C1677 0.959 . S
H1684 C1677 0.961 . S
H1685 C1677 0.960 . S
H1686 C1678 0.930 . S
H1687 C1679 0.929 . S
H1688 C1696 0.929 . S
H1689 C1698 0.930 . S
H1690 C1700 0.930 . S
H1691 C1703 0.929 . S
H1692 C1706 0.930 . S
H1693 C1708 0.960 . S
H1694 C1708 0.960 . S
H1695 C1708 0.960 . S
C1696 H1688 0.929 . S
C1696 C1697 1.377 . S
C1696 C1698 1.384 . S
C1697 C1696 1.377 . S
C1697 C1703 1.390 . S
C1698 H1689 0.930 . S
C1698 C1696 1.384 . S
C1698 C1699 1.372 . S
C1699 C1698 1.372 . S
C1699 C1700 1.400 . S
C1699 C1704 1.490 . S
C1700 H1690 0.930 . S
C1700 C1699 1.400 . S
C1700 C1703 1.386 . S
H1701 C1717 0.930 . S
H1702 C1718 0.931 . S
C1703 H1691 0.929 . S
C1703 C1697 1.390 . S
C1703 C1700 1.386 . S
C1704 C1699 1.490 . S
C1704 C1706 1.395 . S
C1704 C1707 1.403 . S
H1705 C1711 0.930 . S
C1706 H1692 0.930 . S
C1706 C1704 1.395 . S
C1706 C1709 1.403 . S
C1707 C1704 1.403 . S
C1707 C1708 1.524 . S
C1707 C1711 1.400 . S
C1708 H1693 0.960 . S
C1708 H1694 0.960 . S
C1708 H1695 0.960 . S
C1708 C1707 1.524 . S
C1709 C1706 1.403 . S
C1709 C1710 1.392 . S
C1709 C1713 1.495 . S
C1710 C1709 1.392 . S
C1710 C1711 1.385 . S
C1710 C1712 1.478 . S
C1711 H1705 0.930 . S
C1711 C1707 1.400 . S
C1711 C1710 1.385 . S
C1712 C1710 1.478 . S
C1712 C1714 1.381 . S
C1712 C1718 1.383 . S
C1713 C1709 1.495 . S
C1713 H1719 0.959 . S
C1713 H1720 0.961 . S
C1713 H1721 0.960 . S
C1714 C1712 1.381 . S
C1714 C1715 1.394 . S
C1714 H1722 0.930 . S
C1715 C1714 1.394 . S
C1715 C1716 1.383 . S
C1715 H1723 0.929 . S
C1716 C1715 1.383 . S
C1716 C1717 1.377 . S
C1717 H1701 0.930 . S
C1717 C1716 1.377 . S
C1717 C1718 1.379 . S
C1718 H1702 0.931 . S
C1718 C1712 1.383 . S
C1718 C1717 1.379 . S
H1719 C1713 0.959 . S
H1720 C1713 0.961 . S
H1721 C1713 0.960 . S
H1722 C1714 0.930 . S
H1723 C1715 0.929 . S
H1724 C1732 0.929 . S
H1725 C1734 0.930 . S
H1726 C1736 0.930 . S
H1727 C1739 0.929 . S
H1728 C1742 0.930 . S
H1729 C1744 0.960 . S
H1730 C1744 0.960 . S
H1731 C1744 0.960 . S
C1732 H1724 0.929 . S
C1732 C1733 1.377 . S
C1732 C1734 1.384 . S
C1733 C1732 1.377 . S
C1733 C1739 1.390 . S
C1734 H1725 0.930 . S
C1734 C1732 1.384 . S
C1734 C1735 1.372 . S
C1735 C1734 1.372 . S
C1735 C1736 1.400 . S
C1735 C1740 1.490 . S
C1736 H1726 0.930 . S
C1736 C1735 1.400 . S
C1736 C1739 1.386 . S
H1737 C1753 0.930 . S
H1738 C1754 0.931 . S
C1739 H1727 0.929 . S
C1739 C1733 1.390 . S
C1739 C1736 1.386 . S
C1740 C1735 1.490 . S
C1740 C1742 1.395 . S
C1740 C1743 1.403 . S
H1741 C1747 0.930 . S
C1742 H1728 0.930 . S
C1742 C1740 1.395 . S
C1742 C1745 1.403 . S
C1743 C1740 1.403 . S
C1743 C1744 1.524 . S
C1743 C1747 1.400 . S
C1744 H1729 0.960 . S
C1744 H1730 0.960 . S
C1744 H1731 0.960 . S
C1744 C1743 1.524 . S
C1745 C1742 1.403 . S
C1745 C1746 1.392 . S
C1745 C1749 1.495 . S
C1746 C1745 1.392 . S
C1746 C1747 1.385 . S
C1746 C1748 1.478 . S
C1747 H1741 0.930 . S
C1747 C1743 1.400 . S
C1747 C1746 1.385 . S
C1748 C1746 1.478 . S
C1748 C1750 1.381 . S
C1748 C1754 1.383 . S
C1749 C1745 1.495 . S
C1749 H1755 0.959 . S
C1749 H1756 0.961 . S
C1749 H1757 0.960 . S
C1750 C1748 1.381 . S
C1750 C1751 1.394 . S
C1750 H1758 0.930 . S
C1751 C1750 1.394 . S
C1751 C1752 1.383 1_565 S
C1751 H1759 0.929 1_565 S
C1752 C1751 1.383 1_545 S
C1752 C1753 1.377 1_545 S
C1753 H1737 0.930 . S
C1753 C1752 1.377 1_565 S
C1753 C1754 1.379 . S
C1754 H1738 0.931 . S
C1754 C1748 1.383 . S
C1754 C1753 1.379 . S
H1755 C1749 0.959 . S
H1756 C1749 0.961 . S
H1757 C1749 0.960 . S
H1758 C1750 0.930 . S
H1759 C1751 0.929 1_545 S
H1760 C1768 0.929 . S
H1761 C1770 0.930 . S
H1762 C1772 0.930 . S
H1763 C1775 0.929 . S
H1764 C1778 0.930 . S
H1765 C1780 0.960 . S
H1766 C1780 0.960 . S
H1767 C1780 0.960 . S
C1768 H1760 0.929 . S
C1768 C1769 1.377 . S
C1768 C1770 1.384 . S
C1769 C1768 1.377 . S
C1769 C1775 1.390 . S
C1770 H1761 0.930 . S
C1770 C1768 1.384 . S
C1770 C1771 1.372 . S
C1771 C1770 1.372 . S
C1771 C1772 1.400 . S
C1771 C1776 1.490 . S
C1772 H1762 0.930 . S
C1772 C1771 1.400 . S
C1772 C1775 1.386 . S
H1773 C1789 0.930 . S
H1774 C1790 0.931 . S
C1775 H1763 0.929 . S
C1775 C1769 1.390 . S
C1775 C1772 1.386 . S
C1776 C1771 1.490 . S
C1776 C1778 1.395 . S
C1776 C1779 1.403 . S
H1777 C1783 0.930 . S
C1778 H1764 0.930 . S
C1778 C1776 1.395 . S
C1778 C1781 1.403 . S
C1779 C1776 1.403 . S
C1779 C1780 1.524 . S
C1779 C1783 1.400 . S
C1780 H1765 0.960 . S
C1780 H1766 0.960 . S
C1780 H1767 0.960 . S
C1780 C1779 1.524 . S
C1781 C1778 1.403 . S
C1781 C1782 1.392 . S
C1781 C1785 1.495 . S
C1782 C1781 1.392 . S
C1782 C1783 1.385 . S
C1782 C1784 1.478 . S
C1783 H1777 0.930 . S
C1783 C1779 1.400 . S
C1783 C1782 1.385 . S
C1784 C1782 1.478 . S
C1784 C1786 1.381 . S
C1784 C1790 1.383 . S
C1785 C1781 1.495 . S
C1785 H1791 0.959 . S
C1785 H1792 0.961 . S
C1785 H1793 0.960 . S
C1786 C1784 1.381 . S
C1786 C1787 1.394 . S
C1786 H1794 0.930 . S
C1787 C1786 1.394 . S
C1787 C1788 1.383 . S
C1787 H1795 0.929 . S
C1788 C1787 1.383 . S
C1788 C1789 1.377 . S
C1789 H1773 0.930 . S
C1789 C1788 1.377 . S
C1789 C1790 1.379 . S
C1790 H1774 0.931 . S
C1790 C1784 1.383 . S
C1790 C1789 1.379 . S
H1791 C1785 0.959 . S
H1792 C1785 0.961 . S
H1793 C1785 0.960 . S
H1794 C1786 0.930 . S
H1795 C1787 0.929 . S
H1796 C1804 0.929 . S
H1797 C1806 0.930 . S
H1798 C1808 0.930 . S
H1799 C1811 0.929 . S
H1800 C1814 0.930 . S
H1801 C1816 0.960 . S
H1802 C1816 0.960 . S
H1803 C1816 0.960 . S
C1804 H1796 0.929 . S
C1804 C1805 1.377 . S
C1804 C1806 1.384 . S
C1805 C1804 1.377 . S
C1805 C1811 1.390 . S
C1806 H1797 0.930 . S
C1806 C1804 1.384 . S
C1806 C1807 1.372 . S
C1807 C1806 1.372 . S
C1807 C1808 1.400 . S
C1807 C1812 1.490 . S
C1808 H1798 0.930 . S
C1808 C1807 1.400 . S
C1808 C1811 1.386 . S
H1809 C1825 0.930 . S
H1810 C1826 0.931 . S
C1811 H1799 0.929 . S
C1811 C1805 1.390 . S
C1811 C1808 1.386 . S
C1812 C1807 1.490 . S
C1812 C1814 1.395 . S
C1812 C1815 1.403 . S
H1813 C1819 0.930 . S
C1814 H1800 0.930 . S
C1814 C1812 1.395 . S
C1814 C1817 1.403 . S
C1815 C1812 1.403 . S
C1815 C1816 1.524 . S
C1815 C1819 1.400 . S
C1816 H1801 0.960 . S
C1816 H1802 0.960 . S
C1816 H1803 0.960 . S
C1816 C1815 1.524 . S
C1817 C1814 1.403 . S
C1817 C1818 1.392 . S
C1817 C1821 1.495 . S
C1818 C1817 1.392 . S
C1818 C1819 1.385 . S
C1818 C1820 1.478 . S
C1819 H1813 0.930 . S
C1819 C1815 1.400 . S
C1819 C1818 1.385 . S
C1820 C1818 1.478 . S
C1820 C1822 1.381 . S
C1820 C1826 1.383 . S
C1821 C1817 1.495 . S
C1821 H1827 0.959 . S
C1821 H1828 0.961 . S
C1821 H1829 0.960 . S
C1822 C1820 1.381 . S
C1822 C1823 1.394 . S
C1822 H1830 0.930 . S
C1823 C1822 1.394 . S
C1823 C1824 1.383 . S
C1823 H1831 0.929 . S
C1824 C1823 1.383 . S
C1824 C1825 1.377 . S
C1825 H1809 0.930 . S
C1825 C1824 1.377 . S
C1825 C1826 1.379 . S
C1826 H1810 0.931 . S
C1826 C1820 1.383 . S
C1826 C1825 1.379 . S
H1827 C1821 0.959 . S
H1828 C1821 0.961 . S
H1829 C1821 0.960 . S
H1830 C1822 0.930 . S
H1831 C1823 0.929 . S
H1832 C1840 0.929 . S
H1833 C1842 0.930 . S
H1834 C1844 0.930 . S
H1835 C1847 0.929 . S
H1836 C1850 0.930 . S
H1837 C1852 0.960 . S
H1838 C1852 0.960 . S
H1839 C1852 0.960 . S
C1840 H1832 0.929 . S
C1840 C1841 1.377 . S
C1840 C1842 1.384 . S
C1841 C1840 1.377 . S
C1841 C1847 1.390 . S
C1842 H1833 0.930 . S
C1842 C1840 1.384 . S
C1842 C1843 1.372 . S
C1843 C1842 1.372 . S
C1843 C1844 1.400 . S
C1843 C1848 1.490 . S
C1844 H1834 0.930 . S
C1844 C1843 1.400 . S
C1844 C1847 1.386 . S
H1845 C1861 0.930 . S
H1846 C1862 0.931 . S
C1847 H1835 0.929 . S
C1847 C1841 1.390 . S
C1847 C1844 1.386 . S
C1848 C1843 1.490 . S
C1848 C1850 1.395 . S
C1848 C1851 1.403 . S
H1849 C1855 0.930 . S
C1850 H1836 0.930 . S
C1850 C1848 1.395 . S
C1850 C1853 1.403 . S
C1851 C1848 1.403 . S
C1851 C1852 1.524 . S
C1851 C1855 1.400 . S
C1852 H1837 0.960 . S
C1852 H1838 0.960 . S
C1852 H1839 0.960 . S
C1852 C1851 1.524 . S
C1853 C1850 1.403 . S
C1853 C1854 1.392 . S
C1853 C1857 1.495 . S
C1854 C1853 1.392 . S
C1854 C1855 1.385 . S
C1854 C1856 1.478 . S
C1855 H1849 0.930 . S
C1855 C1851 1.400 . S
C1855 C1854 1.385 . S
C1856 C1854 1.478 . S
C1856 C1858 1.381 . S
C1856 C1862 1.383 . S
C1857 C1853 1.495 . S
C1857 H1863 0.959 . S
C1857 H1864 0.961 . S
C1857 H1865 0.960 . S
C1858 C1856 1.381 . S
C1858 C1859 1.394 . S
C1858 H1866 0.930 . S
C1859 C1858 1.394 . S
C1859 C1860 1.383 . S
C1859 H1867 0.929 . S
C1860 C1859 1.383 . S
C1860 C1861 1.377 . S
C1861 H1845 0.930 . S
C1861 C1860 1.377 . S
C1861 C1862 1.379 . S
C1862 H1846 0.931 . S
C1862 C1856 1.383 . S
C1862 C1861 1.379 . S
H1863 C1857 0.959 . S
H1864 C1857 0.961 . S
H1865 C1857 0.960 . S
H1866 C1858 0.930 . S
H1867 C1859 0.929 . S
H1868 C1876 0.929 . S
H1869 C1878 0.930 . S
H1870 C1880 0.930 . S
H1871 C1883 0.929 . S
H1872 C1886 0.930 . S
H1873 C1888 0.960 . S
H1874 C1888 0.960 . S
H1875 C1888 0.960 . S
C1876 H1868 0.929 . S
C1876 C1877 1.377 . S
C1876 C1878 1.384 . S
C1877 C1876 1.377 . S
C1877 C1883 1.390 . S
C1878 H1869 0.930 . S
C1878 C1876 1.384 . S
C1878 C1879 1.372 . S
C1879 C1878 1.372 . S
C1879 C1880 1.400 . S
C1879 C1884 1.490 . S
C1880 H1870 0.930 . S
C1880 C1879 1.400 . S
C1880 C1883 1.386 . S
H1881 C1897 0.930 . S
H1882 C1898 0.931 . S
C1883 H1871 0.929 . S
C1883 C1877 1.390 . S
C1883 C1880 1.386 . S
C1884 C1879 1.490 . S
C1884 C1886 1.395 . S
C1884 C1887 1.403 . S
H1885 C1891 0.930 . S
C1886 H1872 0.930 . S
C1886 C1884 1.395 . S
C1886 C1889 1.403 . S
C1887 C1884 1.403 . S
C1887 C1888 1.524 . S
C1887 C1891 1.400 . S
C1888 H1873 0.960 . S
C1888 H1874 0.960 . S
C1888 H1875 0.960 . S
C1888 C1887 1.524 . S
C1889 C1886 1.403 . S
C1889 C1890 1.392 . S
C1889 C1893 1.495 . S
C1890 C1889 1.392 . S
C1890 C1891 1.385 . S
C1890 C1892 1.478 . S
C1891 H1885 0.930 . S
C1891 C1887 1.400 . S
C1891 C1890 1.385 . S
C1892 C1890 1.478 . S
C1892 C1894 1.381 . S
C1892 C1898 1.383 . S
C1893 C1889 1.495 . S
C1893 H1899 0.959 . S
C1893 H1900 0.961 . S
C1893 H1901 0.960 . S
C1894 C1892 1.381 . S
C1894 C1895 1.394 . S
C1894 H1902 0.930 . S
C1895 C1894 1.394 . S
C1895 C1896 1.383 . S
C1895 H1903 0.929 . S
C1896 C1895 1.383 . S
C1896 C1897 1.377 . S
C1897 H1881 0.930 . S
C1897 C1896 1.377 . S
C1897 C1898 1.379 . S
C1898 H1882 0.931 . S
C1898 C1892 1.383 . S
C1898 C1897 1.379 . S
H1899 C1893 0.959 . S
H1900 C1893 0.961 . S
H1901 C1893 0.960 . S
H1902 C1894 0.930 . S
H1903 C1895 0.929 . S
H1904 C1912 0.929 . S
H1905 C1914 0.930 . S
H1906 C1916 0.930 . S
H1907 C1919 0.929 . S
H1908 C1922 0.930 . S
H1909 C1924 0.960 . S
H1910 C1924 0.960 . S
H1911 C1924 0.960 . S
C1912 H1904 0.929 . S
C1912 C1913 1.377 . S
C1912 C1914 1.384 . S
C1913 C1912 1.377 . S
C1913 C1919 1.390 . S
C1914 H1905 0.930 . S
C1914 C1912 1.384 . S
C1914 C1915 1.372 . S
C1915 C1914 1.372 . S
C1915 C1916 1.400 . S
C1915 C1920 1.490 . S
C1916 H1906 0.930 . S
C1916 C1915 1.400 . S
C1916 C1919 1.386 . S
H1917 C1933 0.930 . S
H1918 C1934 0.931 . S
C1919 H1907 0.929 . S
C1919 C1913 1.390 . S
C1919 C1916 1.386 . S
C1920 C1915 1.490 . S
C1920 C1922 1.395 . S
C1920 C1923 1.403 . S
H1921 C1927 0.930 . S
C1922 H1908 0.930 . S
C1922 C1920 1.395 . S
C1922 C1925 1.403 . S
C1923 C1920 1.403 . S
C1923 C1924 1.524 . S
C1923 C1927 1.400 . S
C1924 H1909 0.960 . S
C1924 H1910 0.960 . S
C1924 H1911 0.960 . S
C1924 C1923 1.524 . S
C1925 C1922 1.403 . S
C1925 C1926 1.392 . S
C1925 C1929 1.495 . S
C1926 C1925 1.392 . S
C1926 C1927 1.385 . S
C1926 C1928 1.478 . S
C1927 H1921 0.930 . S
C1927 C1923 1.400 . S
C1927 C1926 1.385 . S
C1928 C1926 1.478 . S
C1928 C1930 1.381 . S
C1928 C1934 1.383 . S
C1929 C1925 1.495 . S
C1929 H1935 0.959 . S
C1929 H1936 0.961 . S
C1929 H1937 0.960 . S
C1930 C1928 1.381 . S
C1930 C1931 1.394 . S
C1930 H1938 0.930 . S
C1931 C1930 1.394 . S
C1931 C1932 1.383 . S
C1931 H1939 0.929 . S
C1932 C1931 1.383 . S
C1932 C1933 1.377 . S
C1933 H1917 0.930 . S
C1933 C1932 1.377 . S
C1933 C1934 1.379 . S
C1934 H1918 0.931 . S
C1934 C1928 1.383 . S
C1934 C1933 1.379 . S
H1935 C1929 0.959 . S
H1936 C1929 0.961 . S
H1937 C1929 0.960 . S
H1938 C1930 0.930 . S
H1939 C1931 0.929 . S
H1940 C1948 0.929 . S
H1941 C1950 0.930 . S
H1942 C1952 0.930 . S
H1943 C1955 0.929 . S
H1944 C1958 0.930 . S
H1945 C1960 0.960 . S
H1946 C1960 0.960 . S
H1947 C1960 0.960 . S
C1948 H1940 0.929 . S
C1948 C1949 1.377 . S
C1948 C1950 1.384 . S
C1949 C1948 1.377 . S
C1949 C1955 1.390 . S
C1950 H1941 0.930 . S
C1950 C1948 1.384 . S
C1950 C1951 1.372 . S
C1951 C1950 1.372 . S
C1951 C1952 1.400 . S
C1951 C1956 1.490 . S
C1952 H1942 0.930 . S
C1952 C1951 1.400 . S
C1952 C1955 1.386 . S
H1953 C1969 0.930 . S
H1954 C1970 0.931 . S
C1955 H1943 0.929 . S
C1955 C1949 1.390 . S
C1955 C1952 1.386 . S
C1956 C1951 1.490 . S
C1956 C1958 1.395 . S
C1956 C1959 1.403 . S
H1957 C1963 0.930 . S
C1958 H1944 0.930 . S
C1958 C1956 1.395 . S
C1958 C1961 1.403 . S
C1959 C1956 1.403 . S
C1959 C1960 1.524 . S
C1959 C1963 1.400 . S
C1960 H1945 0.960 . S
C1960 H1946 0.960 . S
C1960 H1947 0.960 . S
C1960 C1959 1.524 . S
C1961 C1958 1.403 . S
C1961 C1962 1.392 . S
C1961 C1965 1.495 . S
C1962 C1961 1.392 . S
C1962 C1963 1.385 . S
C1962 C1964 1.478 . S
C1963 H1957 0.930 . S
C1963 C1959 1.400 . S
C1963 C1962 1.385 . S
C1964 C1962 1.478 . S
C1964 C1966 1.381 . S
C1964 C1970 1.383 . S
C1965 C1961 1.495 . S
C1965 H1971 0.959 . S
C1965 H1972 0.961 . S
C1965 H1973 0.960 . S
C1966 C1964 1.381 . S
C1966 C1967 1.394 . S
C1966 H1974 0.930 . S
C1967 C1966 1.394 . S
C1967 C1968 1.383 . S
C1967 H1975 0.929 . S
C1968 C1967 1.383 . S
C1968 C1969 1.377 . S
C1969 H1953 0.930 . S
C1969 C1968 1.377 . S
C1969 C1970 1.379 . S
C1970 H1954 0.931 . S
C1970 C1964 1.383 . S
C1970 C1969 1.379 . S
H1971 C1965 0.959 . S
H1972 C1965 0.961 . S
H1973 C1965 0.960 . S
H1974 C1966 0.930 . S
H1975 C1967 0.929 . S
H1976 C1984 0.929 . S
H1977 C1986 0.930 . S
H1978 C1988 0.930 . S
H1979 C1991 0.929 . S
H1980 C1994 0.930 . S
H1981 C1996 0.960 . S
H1982 C1996 0.960 . S
H1983 C1996 0.960 . S
C1984 H1976 0.929 . S
C1984 C1985 1.377 . S
C1984 C1986 1.384 . S
C1985 C1984 1.377 . S
C1985 C1991 1.390 . S
C1986 H1977 0.930 . S
C1986 C1984 1.384 . S
C1986 C1987 1.372 . S
C1987 C1986 1.372 . S
C1987 C1988 1.400 . S
C1987 C1992 1.490 . S
C1988 H1978 0.930 . S
C1988 C1987 1.400 . S
C1988 C1991 1.386 . S
H1989 C2005 0.930 . S
H1990 C2006 0.931 . S
C1991 H1979 0.929 . S
C1991 C1985 1.390 . S
C1991 C1988 1.386 . S
C1992 C1987 1.490 . S
C1992 C1994 1.395 . S
C1992 C1995 1.403 . S
H1993 C1999 0.930 . S
C1994 H1980 0.930 . S
C1994 C1992 1.395 . S
C1994 C1997 1.403 . S
C1995 C1992 1.403 . S
C1995 C1996 1.524 . S
C1995 C1999 1.400 . S
C1996 H1981 0.960 . S
C1996 H1982 0.960 . S
C1996 H1983 0.960 . S
C1996 C1995 1.524 . S
C1997 C1994 1.403 . S
C1997 C1998 1.392 . S
C1997 C2001 1.495 . S
C1998 C1997 1.392 . S
C1998 C1999 1.385 . S
C1998 C2000 1.478 . S
C1999 H1993 0.930 . S
C1999 C1995 1.400 . S
C1999 C1998 1.385 . S
C2000 C1998 1.478 . S
C2000 C2002 1.381 . S
C2000 C2006 1.383 . S
C2001 C1997 1.495 . S
C2001 H2007 0.959 . S
C2001 H2008 0.961 . S
C2001 H2009 0.960 . S
C2002 C2000 1.381 . S
C2002 C2003 1.394 . S
C2002 H2010 0.930 . S
C2003 C2002 1.394 . S
C2003 C2004 1.383 . S
C2003 H2011 0.929 . S
C2004 C2003 1.383 . S
C2004 C2005 1.377 . S
C2005 H1989 0.930 . S
C2005 C2004 1.377 . S
C2005 C2006 1.379 . S
C2006 H1990 0.931 . S
C2006 C2000 1.383 . S
C2006 C2005 1.379 . S
H2007 C2001 0.959 . S
H2008 C2001 0.961 . S
H2009 C2001 0.960 . S
H2010 C2002 0.930 . S
H2011 C2003 0.929 . S
H2012 C2020 0.929 . S
H2013 C2022 0.930 . S
H2014 C2024 0.930 . S
H2015 C2027 0.929 . S
H2016 C2030 0.930 . S
H2017 C2032 0.960 . S
H2018 C2032 0.960 . S
H2019 C2032 0.960 . S
C2020 H2012 0.929 . S
C2020 C2021 1.377 . S
C2020 C2022 1.384 . S
C2021 C2020 1.377 . S
C2021 C2027 1.390 . S
C2022 H2013 0.930 . S
C2022 C2020 1.384 . S
C2022 C2023 1.372 . S
C2023 C2022 1.372 . S
C2023 C2024 1.400 . S
C2023 C2028 1.490 . S
C2024 H2014 0.930 . S
C2024 C2023 1.400 . S
C2024 C2027 1.386 . S
H2025 C2041 0.930 . S
H2026 C2042 0.931 . S
C2027 H2015 0.929 . S
C2027 C2021 1.390 . S
C2027 C2024 1.386 . S
C2028 C2023 1.490 . S
C2028 C2030 1.395 . S
C2028 C2031 1.403 . S
H2029 C2035 0.930 . S
C2030 H2016 0.930 . S
C2030 C2028 1.395 . S
C2030 C2033 1.403 . S
C2031 C2028 1.403 . S
C2031 C2032 1.524 . S
C2031 C2035 1.400 . S
C2032 H2017 0.960 . S
C2032 H2018 0.960 . S
C2032 H2019 0.960 . S
C2032 C2031 1.524 . S
C2033 C2030 1.403 . S
C2033 C2034 1.392 . S
C2033 C2037 1.495 . S
C2034 C2033 1.392 . S
C2034 C2035 1.385 . S
C2034 C2036 1.478 . S
C2035 H2029 0.930 . S
C2035 C2031 1.400 . S
C2035 C2034 1.385 . S
C2036 C2034 1.478 . S
C2036 C2038 1.381 . S
C2036 C2042 1.383 . S
C2037 C2033 1.495 . S
C2037 H2043 0.959 . S
C2037 H2044 0.961 . S
C2037 H2045 0.960 . S
C2038 C2036 1.381 . S
C2038 C2039 1.394 . S
C2038 H2046 0.930 . S
C2039 C2038 1.394 . S
C2039 C2040 1.383 . S
C2039 H2047 0.929 . S
C2040 C2039 1.383 . S
C2040 C2041 1.377 . S
C2041 H2025 0.930 . S
C2041 C2040 1.377 . S
C2041 C2042 1.379 . S
C2042 H2026 0.931 . S
C2042 C2036 1.383 . S
C2042 C2041 1.379 . S
H2043 C2037 0.959 . S
H2044 C2037 0.961 . S
H2045 C2037 0.960 . S
H2046 C2038 0.930 . S
H2047 C2039 0.929 . S
H2048 C2056 0.929 . S
H2049 C2058 0.930 . S
H2050 C2060 0.930 . S
H2051 C2063 0.929 . S
H2052 C2066 0.930 . S
H2053 C2068 0.960 . S
H2054 C2068 0.960 . S
H2055 C2068 0.960 . S
C2056 H2048 0.929 . S
C2056 C2057 1.377 . S
C2056 C2058 1.384 . S
C2057 C2056 1.377 . S
C2057 C2063 1.390 . S
C2058 H2049 0.930 . S
C2058 C2056 1.384 . S
C2058 C2059 1.372 . S
C2059 C2058 1.372 . S
C2059 C2060 1.400 . S
C2059 C2064 1.490 . S
C2060 H2050 0.930 . S
C2060 C2059 1.400 . S
C2060 C2063 1.386 . S
H2061 C2077 0.930 . S
H2062 C2078 0.931 . S
C2063 H2051 0.929 . S
C2063 C2057 1.390 . S
C2063 C2060 1.386 . S
C2064 C2059 1.490 . S
C2064 C2066 1.395 . S
C2064 C2067 1.403 . S
H2065 C2071 0.930 . S
C2066 H2052 0.930 . S
C2066 C2064 1.395 . S
C2066 C2069 1.403 . S
C2067 C2064 1.403 . S
C2067 C2068 1.524 . S
C2067 C2071 1.400 . S
C2068 H2053 0.960 . S
C2068 H2054 0.960 . S
C2068 H2055 0.960 . S
C2068 C2067 1.524 . S
C2069 C2066 1.403 . S
C2069 C2070 1.392 . S
C2069 C2073 1.495 . S
C2070 C2069 1.392 . S
C2070 C2071 1.385 . S
C2070 C2072 1.478 . S
C2071 H2065 0.930 . S
C2071 C2067 1.400 . S
C2071 C2070 1.385 . S
C2072 C2070 1.478 . S
C2072 C2074 1.381 . S
C2072 C2078 1.383 . S
C2073 C2069 1.495 . S
C2073 H2079 0.959 . S
C2073 H2080 0.961 . S
C2073 H2081 0.960 . S
C2074 C2072 1.381 . S
C2074 C2075 1.394 . S
C2074 H2082 0.930 . S
C2075 C2074 1.394 . S
C2075 C2076 1.383 . S
C2075 H2083 0.929 . S
C2076 C2075 1.383 . S
C2076 C2077 1.377 . S
C2077 H2061 0.930 . S
C2077 C2076 1.377 . S
C2077 C2078 1.379 . S
C2078 H2062 0.931 . S
C2078 C2072 1.383 . S
C2078 C2077 1.379 . S
H2079 C2073 0.959 . S
H2080 C2073 0.961 . S
H2081 C2073 0.960 . S
H2082 C2074 0.930 . S
H2083 C2075 0.929 . S
H2084 C2092 0.929 . S
H2085 C2094 0.930 . S
H2086 C2096 0.930 . S
H2087 C2099 0.929 . S
H2088 C2102 0.930 . S
H2089 C2104 0.960 . S
H2090 C2104 0.960 . S
H2091 C2104 0.960 . S
C2092 H2084 0.929 . S
C2092 C2093 1.377 . S
C2092 C2094 1.384 . S
C2093 C2092 1.377 . S
C2093 C2099 1.390 . S
C2094 H2085 0.930 . S
C2094 C2092 1.384 . S
C2094 C2095 1.372 . S
C2095 C2094 1.372 . S
C2095 C2096 1.400 . S
C2095 C2100 1.490 . S
C2096 H2086 0.930 . S
C2096 C2095 1.400 . S
C2096 C2099 1.386 . S
H2097 C2113 0.930 . S
H2098 C2114 0.931 . S
C2099 H2087 0.929 . S
C2099 C2093 1.390 . S
C2099 C2096 1.386 . S
C2100 C2095 1.490 . S
C2100 C2102 1.395 . S
C2100 C2103 1.403 . S
H2101 C2107 0.930 . S
C2102 H2088 0.930 . S
C2102 C2100 1.395 . S
C2102 C2105 1.403 . S
C2103 C2100 1.403 . S
C2103 C2104 1.524 . S
C2103 C2107 1.400 . S
C2104 H2089 0.960 . S
C2104 H2090 0.960 . S
C2104 H2091 0.960 . S
C2104 C2103 1.524 . S
C2105 C2102 1.403 . S
C2105 C2106 1.392 . S
C2105 C2109 1.495 . S
C2106 C2105 1.392 . S
C2106 C2107 1.385 . S
C2106 C2108 1.478 . S
C2107 H2101 0.930 . S
C2107 C2103 1.400 . S
C2107 C2106 1.385 . S
C2108 C2106 1.478 . S
C2108 C2110 1.381 . S
C2108 C2114 1.383 . S
C2109 C2105 1.495 . S
C2109 H2115 0.959 . S
C2109 H2116 0.961 . S
C2109 H2117 0.960 . S
C2110 C2108 1.381 . S
C2110 C2111 1.394 . S
C2110 H2118 0.930 . S
C2111 C2110 1.394 . S
C2111 C2112 1.383 . S
C2111 H2119 0.929 . S
C2112 C2111 1.383 . S
C2112 C2113 1.377 . S
C2113 H2097 0.930 . S
C2113 C2112 1.377 . S
C2113 C2114 1.379 . S
C2114 H2098 0.931 . S
C2114 C2108 1.383 . S
C2114 C2113 1.379 . S
H2115 C2109 0.959 . S
H2116 C2109 0.961 . S
H2117 C2109 0.960 . S
H2118 C2110 0.930 . S
H2119 C2111 0.929 . S
H2120 C2128 0.929 . S
H2121 C2130 0.930 . S
H2122 C2132 0.930 . S
H2123 C2135 0.929 . S
H2124 C2138 0.930 . S
H2125 C2140 0.960 . S
H2126 C2140 0.960 . S
H2127 C2140 0.960 . S
C2128 H2120 0.929 . S
C2128 C2129 1.377 . S
C2128 C2130 1.384 . S
C2129 C2128 1.377 . S
C2129 C2135 1.390 . S
C2130 H2121 0.930 . S
C2130 C2128 1.384 . S
C2130 C2131 1.372 . S
C2131 C2130 1.372 . S
C2131 C2132 1.400 . S
C2131 C2136 1.490 . S
C2132 H2122 0.930 . S
C2132 C2131 1.400 . S
C2132 C2135 1.386 . S
H2133 C2149 0.930 . S
H2134 C2150 0.931 . S
C2135 H2123 0.929 . S
C2135 C2129 1.390 . S
C2135 C2132 1.386 . S
C2136 C2131 1.490 . S
C2136 C2138 1.395 . S
C2136 C2139 1.403 . S
H2137 C2143 0.930 . S
C2138 H2124 0.930 . S
C2138 C2136 1.395 . S
C2138 C2141 1.403 . S
C2139 C2136 1.403 . S
C2139 C2140 1.524 . S
C2139 C2143 1.400 . S
C2140 H2125 0.960 . S
C2140 H2126 0.960 . S
C2140 H2127 0.960 . S
C2140 C2139 1.524 . S
C2141 C2138 1.403 . S
C2141 C2142 1.392 . S
C2141 C2145 1.495 . S
C2142 C2141 1.392 . S
C2142 C2143 1.385 . S
C2142 C2144 1.478 . S
C2143 H2137 0.930 . S
C2143 C2139 1.400 . S
C2143 C2142 1.385 . S
C2144 C2142 1.478 . S
C2144 C2146 1.381 . S
C2144 C2150 1.383 . S
C2145 C2141 1.495 . S
C2145 H2151 0.959 . S
C2145 H2152 0.961 . S
C2145 H2153 0.960 . S
C2146 C2144 1.381 . S
C2146 C2147 1.394 . S
C2146 H2154 0.930 . S
C2147 C2146 1.394 . S
C2147 C2148 1.383 . S
C2147 H2155 0.929 . S
C2148 C2147 1.383 . S
C2148 C2149 1.377 . S
C2149 H2133 0.930 . S
C2149 C2148 1.377 . S
C2149 C2150 1.379 . S
C2150 H2134 0.931 . S
C2150 C2144 1.383 . S
C2150 C2149 1.379 . S
H2151 C2145 0.959 . S
H2152 C2145 0.961 . S
H2153 C2145 0.960 . S
H2154 C2146 0.930 . S
H2155 C2147 0.929 . S
H2156 C2164 0.929 . S
H2157 C2166 0.930 . S
H2158 C2168 0.930 . S
H2159 C2171 0.929 . S
H2160 C2174 0.930 . S
H2161 C2176 0.960 . S
H2162 C2176 0.960 . S
H2163 C2176 0.960 . S
C2164 H2156 0.929 . S
C2164 C2165 1.377 . S
C2164 C2166 1.384 . S
C2165 C2164 1.377 . S
C2165 C2171 1.390 . S
C2166 H2157 0.930 . S
C2166 C2164 1.384 . S
C2166 C2167 1.372 . S
C2167 C2166 1.372 . S
C2167 C2168 1.400 . S
C2167 C2172 1.490 . S
C2168 H2158 0.930 . S
C2168 C2167 1.400 . S
C2168 C2171 1.386 . S
H2169 C2185 0.930 . S
H2170 C2186 0.931 . S
C2171 H2159 0.929 . S
C2171 C2165 1.390 . S
C2171 C2168 1.386 . S
C2172 C2167 1.490 . S
C2172 C2174 1.395 . S
C2172 C2175 1.403 . S
H2173 C2179 0.930 . S
C2174 H2160 0.930 . S
C2174 C2172 1.395 . S
C2174 C2177 1.403 . S
C2175 C2172 1.403 . S
C2175 C2176 1.524 . S
C2175 C2179 1.400 . S
C2176 H2161 0.960 . S
C2176 H2162 0.960 . S
C2176 H2163 0.960 . S
C2176 C2175 1.524 . S
C2177 C2174 1.403 . S
C2177 C2178 1.392 . S
C2177 C2181 1.495 . S
C2178 C2177 1.392 . S
C2178 C2179 1.385 . S
C2178 C2180 1.478 . S
C2179 H2173 0.930 . S
C2179 C2175 1.400 . S
C2179 C2178 1.385 . S
C2180 C2178 1.478 . S
C2180 C2182 1.381 . S
C2180 C2186 1.383 . S
C2181 C2177 1.495 . S
C2181 H2187 0.959 . S
C2181 H2188 0.961 . S
C2181 H2189 0.960 . S
C2182 C2180 1.381 . S
C2182 C2183 1.394 . S
C2182 H2190 0.930 . S
C2183 C2182 1.394 . S
C2183 C2184 1.383 . S
C2183 H2191 0.929 . S
C2184 C2183 1.383 . S
C2184 C2185 1.377 . S
C2185 H2169 0.930 . S
C2185 C2184 1.377 . S
C2185 C2186 1.379 . S
C2186 H2170 0.931 . S
C2186 C2180 1.383 . S
C2186 C2185 1.379 . S
H2187 C2181 0.959 . S
H2188 C2181 0.961 . S
H2189 C2181 0.960 . S
H2190 C2182 0.930 . S
H2191 C2183 0.929 . S
H2192 C2200 0.929 . S
H2193 C2202 0.930 . S
H2194 C2204 0.930 . S
H2195 C2207 0.929 . S
H2196 C2210 0.930 . S
H2197 C2212 0.960 . S
H2198 C2212 0.960 . S
H2199 C2212 0.960 . S
C2200 H2192 0.929 . S
C2200 C2201 1.377 . S
C2200 C2202 1.384 . S
C2201 C2200 1.377 . S
C2201 C2207 1.390 . S
C2202 H2193 0.930 . S
C2202 C2200 1.384 . S
C2202 C2203 1.372 . S
C2203 C2202 1.372 . S
C2203 C2204 1.400 . S
C2203 C2208 1.490 . S
C2204 H2194 0.930 . S
C2204 C2203 1.400 . S
C2204 C2207 1.386 . S
H2205 C2221 0.930 . S
H2206 C2222 0.931 . S
C2207 H2195 0.929 . S
C2207 C2201 1.390 . S
C2207 C2204 1.386 . S
C2208 C2203 1.490 . S
C2208 C2210 1.395 . S
C2208 C2211 1.403 . S
H2209 C2215 0.930 . S
C2210 H2196 0.930 . S
C2210 C2208 1.395 . S
C2210 C2213 1.403 . S
C2211 C2208 1.403 . S
C2211 C2212 1.524 . S
C2211 C2215 1.400 . S
C2212 H2197 0.960 . S
C2212 H2198 0.960 . S
C2212 H2199 0.960 . S
C2212 C2211 1.524 . S
C2213 C2210 1.403 . S
C2213 C2214 1.392 . S
C2213 C2217 1.495 . S
C2214 C2213 1.392 . S
C2214 C2215 1.385 . S
C2214 C2216 1.478 . S
C2215 H2209 0.930 . S
C2215 C2211 1.400 . S
C2215 C2214 1.385 . S
C2216 C2214 1.478 . S
C2216 C2218 1.381 . S
C2216 C2222 1.383 . S
C2217 C2213 1.495 . S
C2217 H2223 0.959 . S
C2217 H2224 0.961 . S
C2217 H2225 0.960 . S
C2218 C2216 1.381 . S
C2218 C2219 1.394 . S
C2218 H2226 0.930 . S
C2219 C2218 1.394 . S
C2219 C2220 1.383 . S
C2219 H2227 0.929 . S
C2220 C2219 1.383 . S
C2220 C2221 1.377 . S
C2221 H2205 0.930 . S
C2221 C2220 1.377 . S
C2221 C2222 1.379 . S
C2222 H2206 0.931 . S
C2222 C2216 1.383 . S
C2222 C2221 1.379 . S
H2223 C2217 0.959 . S
H2224 C2217 0.961 . S
H2225 C2217 0.960 . S
H2226 C2218 0.930 . S
H2227 C2219 0.929 . S
H2228 C2236 0.929 . S
H2229 C2238 0.930 . S
H2230 C2240 0.930 . S
H2231 C2243 0.929 . S
H2232 C2246 0.930 . S
H2233 C2248 0.960 . S
H2234 C2248 0.960 . S
H2235 C2248 0.960 . S
C2236 H2228 0.929 . S
C2236 C2237 1.377 . S
C2236 C2238 1.384 . S
C2237 C2236 1.377 . S
C2237 C2243 1.390 . S
C2238 H2229 0.930 . S
C2238 C2236 1.384 . S
C2238 C2239 1.372 . S
C2239 C2238 1.372 . S
C2239 C2240 1.400 . S
C2239 C2244 1.490 . S
C2240 H2230 0.930 . S
C2240 C2239 1.400 . S
C2240 C2243 1.386 . S
H2241 C2257 0.930 . S
H2242 C2258 0.931 . S
C2243 H2231 0.929 . S
C2243 C2237 1.390 . S
C2243 C2240 1.386 . S
C2244 C2239 1.490 . S
C2244 C2246 1.395 . S
C2244 C2247 1.403 . S
H2245 C2251 0.930 . S
C2246 H2232 0.930 . S
C2246 C2244 1.395 . S
C2246 C2249 1.403 . S
C2247 C2244 1.403 . S
C2247 C2248 1.524 . S
C2247 C2251 1.400 . S
C2248 H2233 0.960 . S
C2248 H2234 0.960 . S
C2248 H2235 0.960 . S
C2248 C2247 1.524 . S
C2249 C2246 1.403 . S
C2249 C2250 1.392 . S
C2249 C2253 1.495 . S
C2250 C2249 1.392 . S
C2250 C2251 1.385 . S
C2250 C2252 1.478 . S
C2251 H2245 0.930 . S
C2251 C2247 1.400 . S
C2251 C2250 1.385 . S
C2252 C2250 1.478 . S
C2252 C2254 1.381 . S
C2252 C2258 1.383 . S
C2253 C2249 1.495 . S
C2253 H2259 0.959 . S
C2253 H2260 0.961 . S
C2253 H2261 0.960 . S
C2254 C2252 1.381 . S
C2254 C2255 1.394 . S
C2254 H2262 0.930 . S
C2255 C2254 1.394 . S
C2255 C2256 1.383 . S
C2255 H2263 0.929 . S
C2256 C2255 1.383 . S
C2256 C2257 1.377 . S
C2257 H2241 0.930 . S
C2257 C2256 1.377 . S
C2257 C2258 1.379 . S
C2258 H2242 0.931 . S
C2258 C2252 1.383 . S
C2258 C2257 1.379 . S
H2259 C2253 0.959 . S
H2260 C2253 0.961 . S
H2261 C2253 0.960 . S
H2262 C2254 0.930 . S
H2263 C2255 0.929 . S
H2264 C2272 0.929 . S
H2265 C2274 0.930 . S
H2266 C2276 0.930 . S
H2267 C2279 0.929 . S
H2268 C2282 0.930 . S
H2269 C2284 0.960 . S
H2270 C2284 0.960 . S
H2271 C2284 0.960 . S
C2272 H2264 0.929 . S
C2272 C2273 1.377 . S
C2272 C2274 1.384 . S
C2273 C2272 1.377 . S
C2273 C2279 1.390 . S
C2274 H2265 0.930 . S
C2274 C2272 1.384 . S
C2274 C2275 1.372 . S
C2275 C2274 1.372 . S
C2275 C2276 1.400 . S
C2275 C2280 1.490 . S
C2276 H2266 0.930 . S
C2276 C2275 1.400 . S
C2276 C2279 1.386 . S
H2277 C2293 0.930 . S
H2278 C2294 0.931 . S
C2279 H2267 0.929 . S
C2279 C2273 1.390 . S
C2279 C2276 1.386 . S
C2280 C2275 1.490 . S
C2280 C2282 1.395 . S
C2280 C2283 1.403 . S
H2281 C2287 0.930 . S
C2282 H2268 0.930 . S
C2282 C2280 1.395 . S
C2282 C2285 1.403 . S
C2283 C2280 1.403 . S
C2283 C2284 1.524 . S
C2283 C2287 1.400 . S
C2284 H2269 0.960 . S
C2284 H2270 0.960 . S
C2284 H2271 0.960 . S
C2284 C2283 1.524 . S
C2285 C2282 1.403 . S
C2285 C2286 1.392 . S
C2285 C2289 1.495 . S
C2286 C2285 1.392 . S
C2286 C2287 1.385 . S
C2286 C2288 1.478 . S
C2287 H2281 0.930 . S
C2287 C2283 1.400 . S
C2287 C2286 1.385 . S
C2288 C2286 1.478 . S
C2288 C2290 1.381 . S
C2288 C2294 1.383 . S
C2289 C2285 1.495 . S
C2289 H2295 0.959 . S
C2289 H2296 0.961 . S
C2289 H2297 0.960 . S
C2290 C2288 1.381 . S
C2290 C2291 1.394 . S
C2290 H2298 0.930 . S
C2291 C2290 1.394 . S
C2291 C2292 1.383 . S
C2291 H2299 0.929 . S
C2292 C2291 1.383 . S
C2292 C2293 1.377 . S
C2293 H2277 0.930 . S
C2293 C2292 1.377 . S
C2293 C2294 1.379 . S
C2294 H2278 0.931 . S
C2294 C2288 1.383 . S
C2294 C2293 1.379 . S
H2295 C2289 0.959 . S
H2296 C2289 0.961 . S
H2297 C2289 0.960 . S
H2298 C2290 0.930 . S
H2299 C2291 0.929 . S
H2300 C2308 0.929 . S
H2301 C2310 0.930 . S
H2302 C2312 0.930 . S
H2303 C2315 0.929 . S
H2304 C2318 0.930 . S
H2305 C2320 0.960 . S
H2306 C2320 0.960 . S
H2307 C2320 0.960 . S
C2308 H2300 0.929 . S
C2308 C2309 1.377 . S
C2308 C2310 1.384 . S
C2309 C2308 1.377 . S
C2309 C2315 1.390 . S
C2310 H2301 0.930 . S
C2310 C2308 1.384 . S
C2310 C2311 1.372 . S
C2311 C2310 1.372 . S
C2311 C2312 1.400 . S
C2311 C2316 1.490 . S
C2312 H2302 0.930 . S
C2312 C2311 1.400 . S
C2312 C2315 1.386 . S
H2313 C2329 0.930 . S
H2314 C2330 0.931 . S
C2315 H2303 0.929 . S
C2315 C2309 1.390 . S
C2315 C2312 1.386 . S
C2316 C2311 1.490 . S
C2316 C2318 1.395 . S
C2316 C2319 1.403 . S
H2317 C2323 0.930 . S
C2318 H2304 0.930 . S
C2318 C2316 1.395 . S
C2318 C2321 1.403 . S
C2319 C2316 1.403 . S
C2319 C2320 1.524 . S
C2319 C2323 1.400 . S
C2320 H2305 0.960 . S
C2320 H2306 0.960 . S
C2320 H2307 0.960 . S
C2320 C2319 1.524 . S
C2321 C2318 1.403 . S
C2321 C2322 1.392 . S
C2321 C2325 1.495 . S
C2322 C2321 1.392 . S
C2322 C2323 1.385 . S
C2322 C2324 1.478 . S
C2323 H2317 0.930 . S
C2323 C2319 1.400 . S
C2323 C2322 1.385 . S
C2324 C2322 1.478 . S
C2324 C2326 1.381 . S
C2324 C2330 1.383 . S
C2325 C2321 1.495 . S
C2325 H2331 0.959 . S
C2325 H2332 0.961 . S
C2325 H2333 0.960 . S
C2326 C2324 1.381 . S
C2326 C2327 1.394 . S
C2326 H2334 0.930 . S
C2327 C2326 1.394 . S
C2327 C2328 1.383 . S
C2327 H2335 0.929 . S
C2328 C2327 1.383 . S
C2328 C2329 1.377 . S
C2329 H2313 0.930 . S
C2329 C2328 1.377 . S
C2329 C2330 1.379 . S
C2330 H2314 0.931 . S
C2330 C2324 1.383 . S
C2330 C2329 1.379 . S
H2331 C2325 0.959 . S
H2332 C2325 0.961 . S
H2333 C2325 0.960 . S
H2334 C2326 0.930 . S
H2335 C2327 0.929 . S
H2336 C2344 0.929 . S
H2337 C2346 0.930 . S
H2338 C2348 0.930 . S
H2339 C2351 0.929 . S
H2340 C2354 0.930 . S
H2341 C2356 0.960 . S
H2342 C2356 0.960 . S
H2343 C2356 0.960 . S
C2344 H2336 0.929 . S
C2344 C2345 1.377 . S
C2344 C2346 1.384 . S
C2345 C2344 1.377 . S
C2345 C2351 1.390 . S
C2346 H2337 0.930 . S
C2346 C2344 1.384 . S
C2346 C2347 1.372 . S
C2347 C2346 1.372 . S
C2347 C2348 1.400 . S
C2347 C2352 1.490 . S
C2348 H2338 0.930 . S
C2348 C2347 1.400 . S
C2348 C2351 1.386 . S
H2349 C2365 0.930 . S
H2350 C2366 0.931 . S
C2351 H2339 0.929 . S
C2351 C2345 1.390 . S
C2351 C2348 1.386 . S
C2352 C2347 1.490 . S
C2352 C2354 1.395 . S
C2352 C2355 1.403 . S
H2353 C2359 0.930 . S
C2354 H2340 0.930 . S
C2354 C2352 1.395 . S
C2354 C2357 1.403 . S
C2355 C2352 1.403 . S
C2355 C2356 1.524 . S
C2355 C2359 1.400 . S
C2356 H2341 0.960 . S
C2356 H2342 0.960 . S
C2356 H2343 0.960 . S
C2356 C2355 1.524 . S
C2357 C2354 1.403 . S
C2357 C2358 1.392 . S
C2357 C2361 1.495 . S
C2358 C2357 1.392 . S
C2358 C2359 1.385 . S
C2358 C2360 1.478 . S
C2359 H2353 0.930 . S
C2359 C2355 1.400 . S
C2359 C2358 1.385 . S
C2360 C2358 1.478 . S
C2360 C2362 1.381 . S
C2360 C2366 1.383 . S
C2361 C2357 1.495 . S
C2361 H2367 0.959 . S
C2361 H2368 0.961 . S
C2361 H2369 0.960 . S
C2362 C2360 1.381 . S
C2362 C2363 1.394 . S
C2362 H2370 0.930 . S
C2363 C2362 1.394 . S
C2363 C2364 1.383 . S
C2363 H2371 0.929 . S
C2364 C2363 1.383 . S
C2364 C2365 1.377 . S
C2365 H2349 0.930 . S
C2365 C2364 1.377 . S
C2365 C2366 1.379 . S
C2366 H2350 0.931 . S
C2366 C2360 1.383 . S
C2366 C2365 1.379 . S
H2367 C2361 0.959 . S
H2368 C2361 0.961 . S
H2369 C2361 0.960 . S
H2370 C2362 0.930 . S
H2371 C2363 0.929 . S
H2372 C2380 0.929 . S
H2373 C2382 0.930 . S
H2374 C2384 0.930 . S
H2375 C2387 0.929 . S
H2376 C2390 0.930 . S
H2377 C2392 0.960 . S
H2378 C2392 0.960 . S
H2379 C2392 0.960 . S
C2380 H2372 0.929 . S
C2380 C2381 1.377 . S
C2380 C2382 1.384 . S
C2381 C2380 1.377 . S
C2381 C2387 1.390 . S
C2382 H2373 0.930 . S
C2382 C2380 1.384 . S
C2382 C2383 1.372 . S
C2383 C2382 1.372 . S
C2383 C2384 1.400 . S
C2383 C2388 1.490 . S
C2384 H2374 0.930 . S
C2384 C2383 1.400 . S
C2384 C2387 1.386 . S
H2385 C2401 0.930 . S
H2386 C2402 0.931 . S
C2387 H2375 0.929 . S
C2387 C2381 1.390 . S
C2387 C2384 1.386 . S
C2388 C2383 1.490 . S
C2388 C2390 1.395 . S
C2388 C2391 1.403 . S
H2389 C2395 0.930 . S
C2390 H2376 0.930 . S
C2390 C2388 1.395 . S
C2390 C2393 1.403 . S
C2391 C2388 1.403 . S
C2391 C2392 1.524 . S
C2391 C2395 1.400 . S
C2392 H2377 0.960 . S
C2392 H2378 0.960 . S
C2392 H2379 0.960 . S
C2392 C2391 1.524 . S
C2393 C2390 1.403 . S
C2393 C2394 1.392 . S
C2393 C2397 1.495 . S
C2394 C2393 1.392 . S
C2394 C2395 1.385 . S
C2394 C2396 1.478 . S
C2395 H2389 0.930 . S
C2395 C2391 1.400 . S
C2395 C2394 1.385 . S
C2396 C2394 1.478 . S
C2396 C2398 1.381 . S
C2396 C2402 1.383 . S
C2397 C2393 1.495 . S
C2397 H2403 0.959 . S
C2397 H2404 0.961 . S
C2397 H2405 0.960 . S
C2398 C2396 1.381 . S
C2398 C2399 1.394 . S
C2398 H2406 0.930 . S
C2399 C2398 1.394 . S
C2399 C2400 1.383 . S
C2399 H2407 0.929 . S
C2400 C2399 1.383 . S
C2400 C2401 1.377 . S
C2401 H2385 0.930 . S
C2401 C2400 1.377 . S
C2401 C2402 1.379 . S
C2402 H2386 0.931 . S
C2402 C2396 1.383 . S
C2402 C2401 1.379 . S
H2403 C2397 0.959 . S
H2404 C2397 0.961 . S
H2405 C2397 0.960 . S
H2406 C2398 0.930 . S
H2407 C2399 0.929 . S
H2408 C2416 0.929 . S
H2409 C2418 0.930 . S
H2410 C2420 0.930 . S
H2411 C2423 0.929 . S
H2412 C2426 0.930 . S
H2413 C2428 0.960 . S
H2414 C2428 0.960 . S
H2415 C2428 0.960 . S
C2416 H2408 0.929 . S
C2416 C2417 1.377 . S
C2416 C2418 1.384 . S
C2417 C2416 1.377 . S
C2417 C2423 1.390 . S
C2418 H2409 0.930 . S
C2418 C2416 1.384 . S
C2418 C2419 1.372 . S
C2419 C2418 1.372 . S
C2419 C2420 1.400 . S
C2419 C2424 1.490 . S
C2420 H2410 0.930 . S
C2420 C2419 1.400 . S
C2420 C2423 1.386 . S
H2421 C2437 0.930 . S
H2422 C2438 0.931 . S
C2423 H2411 0.929 . S
C2423 C2417 1.390 . S
C2423 C2420 1.386 . S
C2424 C2419 1.490 . S
C2424 C2426 1.395 . S
C2424 C2427 1.403 . S
H2425 C2431 0.930 . S
C2426 H2412 0.930 . S
C2426 C2424 1.395 . S
C2426 C2429 1.403 . S
C2427 C2424 1.403 . S
C2427 C2428 1.524 . S
C2427 C2431 1.400 . S
C2428 H2413 0.960 . S
C2428 H2414 0.960 . S
C2428 H2415 0.960 . S
C2428 C2427 1.524 . S
C2429 C2426 1.403 . S
C2429 C2430 1.392 . S
C2429 C2433 1.495 . S
C2430 C2429 1.392 . S
C2430 C2431 1.385 . S
C2430 C2432 1.478 . S
C2431 H2425 0.930 . S
C2431 C2427 1.400 . S
C2431 C2430 1.385 . S
C2432 C2430 1.478 . S
C2432 C2434 1.381 . S
C2432 C2438 1.383 . S
C2433 C2429 1.495 . S
C2433 H2439 0.959 . S
C2433 H2440 0.961 . S
C2433 H2441 0.960 . S
C2434 C2432 1.381 . S
C2434 C2435 1.394 . S
C2434 H2442 0.930 . S
C2435 C2434 1.394 . S
C2435 C2436 1.383 . S
C2435 H2443 0.929 . S
C2436 C2435 1.383 . S
C2436 C2437 1.377 . S
C2437 H2421 0.930 . S
C2437 C2436 1.377 . S
C2437 C2438 1.379 . S
C2438 H2422 0.931 . S
C2438 C2432 1.383 . S
C2438 C2437 1.379 . S
H2439 C2433 0.959 . S
H2440 C2433 0.961 . S
H2441 C2433 0.960 . S
H2442 C2434 0.930 . S
H2443 C2435 0.929 . S
H2444 C2452 0.929 . S
H2445 C2454 0.930 . S
H2446 C2456 0.930 . S
H2447 C2459 0.929 . S
H2448 C2462 0.930 . S
H2449 C2464 0.960 . S
H2450 C2464 0.960 . S
H2451 C2464 0.960 . S
C2452 H2444 0.929 . S
C2452 C2453 1.377 . S
C2452 C2454 1.384 . S
C2453 C2452 1.377 . S
C2453 C2459 1.390 . S
C2454 H2445 0.930 . S
C2454 C2452 1.384 . S
C2454 C2455 1.372 . S
C2455 C2454 1.372 . S
C2455 C2456 1.400 . S
C2455 C2460 1.490 . S
C2456 H2446 0.930 . S
C2456 C2455 1.400 . S
C2456 C2459 1.386 . S
H2457 C2473 0.930 . S
H2458 C2474 0.931 . S
C2459 H2447 0.929 . S
C2459 C2453 1.390 . S
C2459 C2456 1.386 . S
C2460 C2455 1.490 . S
C2460 C2462 1.395 . S
C2460 C2463 1.403 . S
H2461 C2467 0.930 . S
C2462 H2448 0.930 . S
C2462 C2460 1.395 . S
C2462 C2465 1.403 . S
C2463 C2460 1.403 . S
C2463 C2464 1.524 . S
C2463 C2467 1.400 . S
C2464 H2449 0.960 . S
C2464 H2450 0.960 . S
C2464 H2451 0.960 . S
C2464 C2463 1.524 . S
C2465 C2462 1.403 . S
C2465 C2466 1.392 . S
C2465 C2469 1.495 . S
C2466 C2465 1.392 . S
C2466 C2467 1.385 . S
C2466 C2468 1.478 . S
C2467 H2461 0.930 . S
C2467 C2463 1.400 . S
C2467 C2466 1.385 . S
C2468 C2466 1.478 . S
C2468 C2470 1.381 . S
C2468 C2474 1.383 . S
C2469 C2465 1.495 . S
C2469 H2475 0.959 . S
C2469 H2476 0.961 . S
C2469 H2477 0.960 . S
C2470 C2468 1.381 . S
C2470 C2471 1.394 . S
C2470 H2478 0.930 . S
C2471 C2470 1.394 . S
C2471 C2472 1.383 . S
C2471 H2479 0.929 . S
C2472 C2471 1.383 . S
C2472 C2473 1.377 . S
C2473 H2457 0.930 . S
C2473 C2472 1.377 . S
C2473 C2474 1.379 . S
C2474 H2458 0.931 . S
C2474 C2468 1.383 . S
C2474 C2473 1.379 . S
H2475 C2469 0.959 . S
H2476 C2469 0.961 . S
H2477 C2469 0.960 . S
H2478 C2470 0.930 . S
H2479 C2471 0.929 . S
H2480 C2488 0.929 . S
H2481 C2490 0.930 . S
H2482 C2492 0.930 . S
H2483 C2495 0.929 . S
H2484 C2498 0.930 . S
H2485 C2500 0.960 . S
H2486 C2500 0.960 . S
H2487 C2500 0.960 . S
C2488 H2480 0.929 . S
C2488 C2489 1.377 . S
C2488 C2490 1.384 . S
C2489 C2488 1.377 . S
C2489 C2495 1.390 . S
C2490 H2481 0.930 . S
C2490 C2488 1.384 . S
C2490 C2491 1.372 . S
C2491 C2490 1.372 . S
C2491 C2492 1.400 . S
C2491 C2496 1.490 . S
C2492 H2482 0.930 . S
C2492 C2491 1.400 . S
C2492 C2495 1.386 . S
H2493 C2509 0.930 . S
H2494 C2510 0.931 . S
C2495 H2483 0.929 . S
C2495 C2489 1.390 . S
C2495 C2492 1.386 . S
C2496 C2491 1.490 . S
C2496 C2498 1.395 . S
C2496 C2499 1.403 . S
H2497 C2503 0.930 . S
C2498 H2484 0.930 . S
C2498 C2496 1.395 . S
C2498 C2501 1.403 . S
C2499 C2496 1.403 . S
C2499 C2500 1.524 . S
C2499 C2503 1.400 . S
C2500 H2485 0.960 . S
C2500 H2486 0.960 . S
C2500 H2487 0.960 . S
C2500 C2499 1.524 . S
C2501 C2498 1.403 . S
C2501 C2502 1.392 . S
C2501 C2505 1.495 . S
C2502 C2501 1.392 . S
C2502 C2503 1.385 . S
C2502 C2504 1.478 . S
C2503 H2497 0.930 . S
C2503 C2499 1.400 . S
C2503 C2502 1.385 . S
C2504 C2502 1.478 . S
C2504 C2506 1.381 . S
C2504 C2510 1.383 . S
C2505 C2501 1.495 . S
C2505 H2511 0.959 . S
C2505 H2512 0.961 . S
C2505 H2513 0.960 . S
C2506 C2504 1.381 . S
C2506 C2507 1.394 . S
C2506 H2514 0.930 . S
C2507 C2506 1.394 . S
C2507 C2508 1.383 . S
C2507 H2515 0.929 . S
C2508 C2507 1.383 . S
C2508 C2509 1.377 . S
C2509 H2493 0.930 . S
C2509 C2508 1.377 . S
C2509 C2510 1.379 . S
C2510 H2494 0.931 . S
C2510 C2504 1.383 . S
C2510 C2509 1.379 . S
H2511 C2505 0.959 . S
H2512 C2505 0.961 . S
H2513 C2505 0.960 . S
H2514 C2506 0.930 . S
H2515 C2507 0.929 . S
H2516 C2524 0.929 . S
H2517 C2526 0.930 . S
H2518 C2528 0.930 . S
H2519 C2531 0.929 . S
H2520 C2534 0.930 . S
H2521 C2536 0.960 . S
H2522 C2536 0.960 . S
H2523 C2536 0.960 . S
C2524 H2516 0.929 . S
C2524 C2525 1.377 . S
C2524 C2526 1.384 . S
C2525 C2524 1.377 . S
C2525 C2531 1.390 . S
C2526 H2517 0.930 . S
C2526 C2524 1.384 . S
C2526 C2527 1.372 . S
C2527 C2526 1.372 . S
C2527 C2528 1.400 . S
C2527 C2532 1.490 . S
C2528 H2518 0.930 . S
C2528 C2527 1.400 . S
C2528 C2531 1.386 . S
H2529 C2545 0.930 . S
H2530 C2546 0.931 . S
C2531 H2519 0.929 . S
C2531 C2525 1.390 . S
C2531 C2528 1.386 . S
C2532 C2527 1.490 . S
C2532 C2534 1.395 . S
C2532 C2535 1.403 . S
H2533 C2539 0.930 . S
C2534 H2520 0.930 . S
C2534 C2532 1.395 . S
C2534 C2537 1.403 . S
C2535 C2532 1.403 . S
C2535 C2536 1.524 . S
C2535 C2539 1.400 . S
C2536 H2521 0.960 . S
C2536 H2522 0.960 . S
C2536 H2523 0.960 . S
C2536 C2535 1.524 . S
C2537 C2534 1.403 . S
C2537 C2538 1.392 . S
C2537 C2541 1.495 . S
C2538 C2537 1.392 . S
C2538 C2539 1.385 . S
C2538 C2540 1.478 . S
C2539 H2533 0.930 . S
C2539 C2535 1.400 . S
C2539 C2538 1.385 . S
C2540 C2538 1.478 . S
C2540 C2542 1.381 . S
C2540 C2546 1.383 . S
C2541 C2537 1.495 . S
C2541 H2547 0.959 . S
C2541 H2548 0.961 . S
C2541 H2549 0.960 . S
C2542 C2540 1.381 . S
C2542 C2543 1.394 . S
C2542 H2550 0.930 . S
C2543 C2542 1.394 . S
C2543 C2544 1.383 . S
C2543 H2551 0.929 . S
C2544 C2543 1.383 . S
C2544 C2545 1.377 . S
C2545 H2529 0.930 . S
C2545 C2544 1.377 . S
C2545 C2546 1.379 . S
C2546 H2530 0.931 . S
C2546 C2540 1.383 . S
C2546 C2545 1.379 . S
H2547 C2541 0.959 . S
H2548 C2541 0.961 . S
H2549 C2541 0.960 . S
H2550 C2542 0.930 . S
H2551 C2543 0.929 . S
H2552 C2560 0.929 . S
H2553 C2562 0.930 . S
H2554 C2564 0.930 . S
H2555 C2567 0.929 . S
H2556 C2570 0.930 . S
H2557 C2572 0.960 . S
H2558 C2572 0.960 . S
H2559 C2572 0.960 . S
C2560 H2552 0.929 . S
C2560 C2561 1.377 . S
C2560 C2562 1.384 . S
C2561 C2560 1.377 . S
C2561 C2567 1.390 . S
C2562 H2553 0.930 . S
C2562 C2560 1.384 . S
C2562 C2563 1.372 . S
C2563 C2562 1.372 . S
C2563 C2564 1.400 . S
C2563 C2568 1.490 . S
C2564 H2554 0.930 . S
C2564 C2563 1.400 . S
C2564 C2567 1.386 . S
H2565 C2581 0.930 . S
H2566 C2582 0.931 . S
C2567 H2555 0.929 . S
C2567 C2561 1.390 . S
C2567 C2564 1.386 . S
C2568 C2563 1.490 . S
C2568 C2570 1.395 . S
C2568 C2571 1.403 . S
H2569 C2575 0.930 . S
C2570 H2556 0.930 . S
C2570 C2568 1.395 . S
C2570 C2573 1.403 . S
C2571 C2568 1.403 . S
C2571 C2572 1.524 . S
C2571 C2575 1.400 . S
C2572 H2557 0.960 . S
C2572 H2558 0.960 . S
C2572 H2559 0.960 . S
C2572 C2571 1.524 . S
C2573 C2570 1.403 . S
C2573 C2574 1.392 . S
C2573 C2577 1.495 . S
C2574 C2573 1.392 . S
C2574 C2575 1.385 . S
C2574 C2576 1.478 . S
C2575 H2569 0.930 . S
C2575 C2571 1.400 . S
C2575 C2574 1.385 . S
C2576 C2574 1.478 . S
C2576 C2578 1.381 . S
C2576 C2582 1.383 . S
C2577 C2573 1.495 . S
C2577 H2583 0.959 . S
C2577 H2584 0.961 . S
C2577 H2585 0.960 . S
C2578 C2576 1.381 . S
C2578 C2579 1.394 . S
C2578 H2586 0.930 . S
C2579 C2578 1.394 . S
C2579 C2580 1.383 . S
C2579 H2587 0.929 . S
C2580 C2579 1.383 . S
C2580 C2581 1.377 . S
C2581 H2565 0.930 . S
C2581 C2580 1.377 . S
C2581 C2582 1.379 . S
C2582 H2566 0.931 . S
C2582 C2576 1.383 . S
C2582 C2581 1.379 . S
H2583 C2577 0.959 . S
H2584 C2577 0.961 . S
H2585 C2577 0.960 . S
H2586 C2578 0.930 . S
H2587 C2579 0.929 . S
H2588 C2596 0.929 . S
H2589 C2598 0.930 . S
H2590 C2600 0.930 . S
H2591 C2603 0.929 . S
H2592 C2606 0.930 . S
H2593 C2608 0.960 . S
H2594 C2608 0.960 . S
H2595 C2608 0.960 . S
C2596 H2588 0.929 . S
C2596 C2597 1.377 . S
C2596 C2598 1.384 . S
C2597 C2596 1.377 . S
C2597 C2603 1.390 . S
C2598 H2589 0.930 . S
C2598 C2596 1.384 . S
C2598 C2599 1.372 . S
C2599 C2598 1.372 . S
C2599 C2600 1.400 . S
C2599 C2604 1.490 . S
C2600 H2590 0.930 . S
C2600 C2599 1.400 . S
C2600 C2603 1.386 . S
H2601 C2617 0.930 . S
H2602 C2618 0.931 . S
C2603 H2591 0.929 . S
C2603 C2597 1.390 . S
C2603 C2600 1.386 . S
C2604 C2599 1.490 . S
C2604 C2606 1.395 . S
C2604 C2607 1.403 . S
H2605 C2611 0.930 . S
C2606 H2592 0.930 . S
C2606 C2604 1.395 . S
C2606 C2609 1.403 . S
C2607 C2604 1.403 . S
C2607 C2608 1.524 . S
C2607 C2611 1.400 . S
C2608 H2593 0.960 . S
C2608 H2594 0.960 . S
C2608 H2595 0.960 . S
C2608 C2607 1.524 . S
C2609 C2606 1.403 . S
C2609 C2610 1.392 . S
C2609 C2613 1.495 . S
C2610 C2609 1.392 . S
C2610 C2611 1.385 . S
C2610 C2612 1.478 . S
C2611 H2605 0.930 . S
C2611 C2607 1.400 . S
C2611 C2610 1.385 . S
C2612 C2610 1.478 . S
C2612 C2614 1.381 . S
C2612 C2618 1.383 . S
C2613 C2609 1.495 . S
C2613 H2619 0.959 . S
C2613 H2620 0.961 . S
C2613 H2621 0.960 . S
C2614 C2612 1.381 . S
C2614 C2615 1.394 . S
C2614 H2622 0.930 . S
C2615 C2614 1.394 . S
C2615 C2616 1.383 . S
C2615 H2623 0.929 . S
C2616 C2615 1.383 . S
C2616 C2617 1.377 . S
C2617 H2601 0.930 . S
C2617 C2616 1.377 . S
C2617 C2618 1.379 . S
C2618 H2602 0.931 . S
C2618 C2612 1.383 . S
C2618 C2617 1.379 . S
H2619 C2613 0.959 . S
H2620 C2613 0.961 . S
H2621 C2613 0.960 . S
H2622 C2614 0.930 . S
H2623 C2615 0.929 . S
H2624 C2632 0.929 . S
H2625 C2634 0.930 . S
H2626 C2636 0.930 . S
H2627 C2639 0.929 . S
H2628 C2642 0.930 . S
H2629 C2644 0.960 . S
H2630 C2644 0.960 . S
H2631 C2644 0.960 . S
C2632 H2624 0.929 . S
C2632 C2633 1.377 . S
C2632 C2634 1.384 . S
C2633 C2632 1.377 . S
C2633 C2639 1.390 . S
C2634 H2625 0.930 . S
C2634 C2632 1.384 . S
C2634 C2635 1.372 . S
C2635 C2634 1.372 . S
C2635 C2636 1.400 . S
C2635 C2640 1.490 . S
C2636 H2626 0.930 . S
C2636 C2635 1.400 . S
C2636 C2639 1.386 . S
H2637 C2653 0.930 . S
H2638 C2654 0.931 . S
C2639 H2627 0.929 . S
C2639 C2633 1.390 . S
C2639 C2636 1.386 . S
C2640 C2635 1.490 . S
C2640 C2642 1.395 . S
C2640 C2643 1.403 . S
H2641 C2647 0.930 . S
C2642 H2628 0.930 . S
C2642 C2640 1.395 . S
C2642 C2645 1.403 . S
C2643 C2640 1.403 . S
C2643 C2644 1.524 . S
C2643 C2647 1.400 . S
C2644 H2629 0.960 . S
C2644 H2630 0.960 . S
C2644 H2631 0.960 . S
C2644 C2643 1.524 . S
C2645 C2642 1.403 . S
C2645 C2646 1.392 . S
C2645 C2649 1.495 . S
C2646 C2645 1.392 . S
C2646 C2647 1.385 . S
C2646 C2648 1.478 . S
C2647 H2641 0.930 . S
C2647 C2643 1.400 . S
C2647 C2646 1.385 . S
C2648 C2646 1.478 . S
C2648 C2650 1.381 . S
C2648 C2654 1.383 . S
C2649 C2645 1.495 . S
C2649 H2655 0.959 . S
C2649 H2656 0.961 . S
C2649 H2657 0.960 . S
C2650 C2648 1.381 . S
C2650 C2651 1.394 . S
C2650 H2658 0.930 . S
C2651 C2650 1.394 . S
C2651 C2652 1.383 . S
C2651 H2659 0.929 . S
C2652 C2651 1.383 . S
C2652 C2653 1.377 . S
C2653 H2637 0.930 . S
C2653 C2652 1.377 . S
C2653 C2654 1.379 . S
C2654 H2638 0.931 . S
C2654 C2648 1.383 . S
C2654 C2653 1.379 . S
H2655 C2649 0.959 . S
H2656 C2649 0.961 . S
H2657 C2649 0.960 . S
H2658 C2650 0.930 . S
H2659 C2651 0.929 . S
H2660 C2668 0.929 . S
H2661 C2670 0.930 . S
H2662 C2672 0.930 . S
H2663 C2675 0.929 . S
H2664 C2678 0.930 . S
H2665 C2680 0.960 . S
H2666 C2680 0.960 . S
H2667 C2680 0.960 . S
C2668 H2660 0.929 . S
C2668 C2669 1.377 . S
C2668 C2670 1.384 . S
C2669 C2668 1.377 . S
C2669 C2675 1.390 . S
C2670 H2661 0.930 . S
C2670 C2668 1.384 . S
C2670 C2671 1.372 . S
C2671 C2670 1.372 . S
C2671 C2672 1.400 . S
C2671 C2676 1.490 . S
C2672 H2662 0.930 . S
C2672 C2671 1.400 . S
C2672 C2675 1.386 . S
H2673 C2689 0.930 . S
H2674 C2690 0.931 . S
C2675 H2663 0.929 . S
C2675 C2669 1.390 . S
C2675 C2672 1.386 . S
C2676 C2671 1.490 . S
C2676 C2678 1.395 . S
C2676 C2679 1.403 . S
H2677 C2683 0.930 . S
C2678 H2664 0.930 . S
C2678 C2676 1.395 . S
C2678 C2681 1.403 . S
C2679 C2676 1.403 . S
C2679 C2680 1.524 . S
C2679 C2683 1.400 . S
C2680 H2665 0.960 . S
C2680 H2666 0.960 . S
C2680 H2667 0.960 . S
C2680 C2679 1.524 . S
C2681 C2678 1.403 . S
C2681 C2682 1.392 . S
C2681 C2685 1.495 . S
C2682 C2681 1.392 . S
C2682 C2683 1.385 . S
C2682 C2684 1.478 . S
C2683 H2677 0.930 . S
C2683 C2679 1.400 . S
C2683 C2682 1.385 . S
C2684 C2682 1.478 . S
C2684 C2686 1.381 . S
C2684 C2690 1.383 . S
C2685 C2681 1.495 . S
C2685 H2691 0.959 . S
C2685 H2692 0.961 . S
C2685 H2693 0.960 . S
C2686 C2684 1.381 . S
C2686 C2687 1.394 . S
C2686 H2694 0.930 . S
C2687 C2686 1.394 . S
C2687 C2688 1.383 . S
C2687 H2695 0.929 . S
C2688 C2687 1.383 . S
C2688 C2689 1.377 . S
C2689 H2673 0.930 . S
C2689 C2688 1.377 . S
C2689 C2690 1.379 . S
C2690 H2674 0.931 . S
C2690 C2684 1.383 . S
C2690 C2689 1.379 . S
H2691 C2685 0.959 . S
H2692 C2685 0.961 . S
H2693 C2685 0.960 . S
H2694 C2686 0.930 . S
H2695 C2687 0.929 . S
H2696 C2704 0.929 . S
H2697 C2706 0.930 . S
H2698 C2708 0.930 . S
H2699 C2711 0.929 . S
H2700 C2714 0.930 . S
H2701 C2716 0.960 . S
H2702 C2716 0.960 . S
H2703 C2716 0.960 . S
C2704 H2696 0.929 . S
C2704 C2705 1.377 . S
C2704 C2706 1.384 . S
C2705 C2704 1.377 . S
C2705 C2711 1.390 . S
C2706 H2697 0.930 . S
C2706 C2704 1.384 . S
C2706 C2707 1.372 . S
C2707 C2706 1.372 . S
C2707 C2708 1.400 . S
C2707 C2712 1.490 . S
C2708 H2698 0.930 . S
C2708 C2707 1.400 . S
C2708 C2711 1.386 . S
H2709 C2725 0.930 . S
H2710 C2726 0.931 . S
C2711 H2699 0.929 . S
C2711 C2705 1.390 . S
C2711 C2708 1.386 . S
C2712 C2707 1.490 . S
C2712 C2714 1.395 . S
C2712 C2715 1.403 . S
H2713 C2719 0.930 . S
C2714 H2700 0.930 . S
C2714 C2712 1.395 . S
C2714 C2717 1.403 . S
C2715 C2712 1.403 . S
C2715 C2716 1.524 . S
C2715 C2719 1.400 . S
C2716 H2701 0.960 . S
C2716 H2702 0.960 . S
C2716 H2703 0.960 . S
C2716 C2715 1.524 . S
C2717 C2714 1.403 . S
C2717 C2718 1.392 . S
C2717 C2721 1.495 . S
C2718 C2717 1.392 . S
C2718 C2719 1.385 . S
C2718 C2720 1.478 . S
C2719 H2713 0.930 . S
C2719 C2715 1.400 . S
C2719 C2718 1.385 . S
C2720 C2718 1.478 . S
C2720 C2722 1.381 . S
C2720 C2726 1.383 . S
C2721 C2717 1.495 . S
C2721 H2727 0.959 . S
C2721 H2728 0.961 . S
C2721 H2729 0.960 . S
C2722 C2720 1.381 . S
C2722 C2723 1.394 . S
C2722 H2730 0.930 . S
C2723 C2722 1.394 . S
C2723 C2724 1.383 . S
C2723 H2731 0.929 . S
C2724 C2723 1.383 . S
C2724 C2725 1.377 . S
C2725 H2709 0.930 . S
C2725 C2724 1.377 . S
C2725 C2726 1.379 . S
C2726 H2710 0.931 . S
C2726 C2720 1.383 . S
C2726 C2725 1.379 . S
H2727 C2721 0.959 . S
H2728 C2721 0.961 . S
H2729 C2721 0.960 . S
H2730 C2722 0.930 . S
H2731 C2723 0.929 . S
H2732 C2740 0.929 . S
H2733 C2742 0.930 . S
H2734 C2744 0.930 . S
H2735 C2747 0.929 . S
H2736 C2750 0.930 . S
H2737 C2752 0.960 . S
H2738 C2752 0.960 . S
H2739 C2752 0.960 . S
C2740 H2732 0.929 . S
C2740 C2741 1.377 . S
C2740 C2742 1.384 . S
C2741 C2740 1.377 . S
C2741 C2747 1.390 . S
C2742 H2733 0.930 . S
C2742 C2740 1.384 . S
C2742 C2743 1.372 . S
C2743 C2742 1.372 . S
C2743 C2744 1.400 . S
C2743 C2748 1.490 . S
C2744 H2734 0.930 . S
C2744 C2743 1.400 . S
C2744 C2747 1.386 . S
H2745 C2761 0.930 . S
H2746 C2762 0.931 . S
C2747 H2735 0.929 . S
C2747 C2741 1.390 . S
C2747 C2744 1.386 . S
C2748 C2743 1.490 . S
C2748 C2750 1.395 . S
C2748 C2751 1.403 . S
H2749 C2755 0.930 . S
C2750 H2736 0.930 . S
C2750 C2748 1.395 . S
C2750 C2753 1.403 . S
C2751 C2748 1.403 . S
C2751 C2752 1.524 . S
C2751 C2755 1.400 . S
C2752 H2737 0.960 . S
C2752 H2738 0.960 . S
C2752 H2739 0.960 . S
C2752 C2751 1.524 . S
C2753 C2750 1.403 . S
C2753 C2754 1.392 . S
C2753 C2757 1.495 . S
C2754 C2753 1.392 . S
C2754 C2755 1.385 . S
C2754 C2756 1.478 . S
C2755 H2749 0.930 . S
C2755 C2751 1.400 . S
C2755 C2754 1.385 . S
C2756 C2754 1.478 . S
C2756 C2758 1.381 . S
C2756 C2762 1.383 . S
C2757 C2753 1.495 . S
C2757 H2763 0.959 . S
C2757 H2764 0.961 . S
C2757 H2765 0.960 . S
C2758 C2756 1.381 . S
C2758 C2759 1.394 . S
C2758 H2766 0.930 . S
C2759 C2758 1.394 . S
C2759 C2760 1.383 . S
C2759 H2767 0.929 . S
C2760 C2759 1.383 . S
C2760 C2761 1.377 . S
C2761 H2745 0.930 . S
C2761 C2760 1.377 . S
C2761 C2762 1.379 . S
C2762 H2746 0.931 . S
C2762 C2756 1.383 . S
C2762 C2761 1.379 . S
H2763 C2757 0.959 . S
H2764 C2757 0.961 . S
H2765 C2757 0.960 . S
H2766 C2758 0.930 . S
H2767 C2759 0.929 . S
H2768 C2776 0.929 . S
H2769 C2778 0.930 . S
H2770 C2780 0.930 . S
H2771 C2783 0.929 . S
H2772 C2786 0.930 . S
H2773 C2788 0.960 . S
H2774 C2788 0.960 . S
H2775 C2788 0.960 . S
C2776 H2768 0.929 . S
C2776 C2777 1.377 . S
C2776 C2778 1.384 . S
C2777 C2776 1.377 . S
C2777 C2783 1.390 . S
C2778 H2769 0.930 . S
C2778 C2776 1.384 . S
C2778 C2779 1.372 . S
C2779 C2778 1.372 . S
C2779 C2780 1.400 . S
C2779 C2784 1.490 . S
C2780 H2770 0.930 . S
C2780 C2779 1.400 . S
C2780 C2783 1.386 . S
H2781 C2797 0.930 . S
H2782 C2798 0.931 . S
C2783 H2771 0.929 . S
C2783 C2777 1.390 . S
C2783 C2780 1.386 . S
C2784 C2779 1.490 . S
C2784 C2786 1.395 . S
C2784 C2787 1.403 . S
H2785 C2791 0.930 . S
C2786 H2772 0.930 . S
C2786 C2784 1.395 . S
C2786 C2789 1.403 . S
C2787 C2784 1.403 . S
C2787 C2788 1.524 . S
C2787 C2791 1.400 . S
C2788 H2773 0.960 . S
C2788 H2774 0.960 . S
C2788 H2775 0.960 . S
C2788 C2787 1.524 . S
C2789 C2786 1.403 . S
C2789 C2790 1.392 . S
C2789 C2793 1.495 . S
C2790 C2789 1.392 . S
C2790 C2791 1.385 . S
C2790 C2792 1.478 . S
C2791 H2785 0.930 . S
C2791 C2787 1.400 . S
C2791 C2790 1.385 . S
C2792 C2790 1.478 . S
C2792 C2794 1.381 . S
C2792 C2798 1.383 . S
C2793 C2789 1.495 . S
C2793 H2799 0.959 . S
C2793 H2800 0.961 . S
C2793 H2801 0.960 . S
C2794 C2792 1.381 . S
C2794 C2795 1.394 . S
C2794 H2802 0.930 . S
C2795 C2794 1.394 . S
C2795 C2796 1.383 . S
C2795 H2803 0.929 . S
C2796 C2795 1.383 . S
C2796 C2797 1.377 . S
C2797 H2781 0.930 . S
C2797 C2796 1.377 . S
C2797 C2798 1.379 . S
C2798 H2782 0.931 . S
C2798 C2792 1.383 . S
C2798 C2797 1.379 . S
H2799 C2793 0.959 . S
H2800 C2793 0.961 . S
H2801 C2793 0.960 . S
H2802 C2794 0.930 . S
H2803 C2795 0.929 . S
H2804 C2812 0.929 . S
H2805 C2814 0.930 . S
H2806 C2816 0.930 . S
H2807 C2819 0.929 . S
H2808 C2822 0.930 . S
H2809 C2824 0.960 . S
H2810 C2824 0.960 . S
H2811 C2824 0.960 . S
C2812 H2804 0.929 . S
C2812 C2813 1.377 . S
C2812 C2814 1.384 . S
C2813 C2812 1.377 . S
C2813 C2819 1.390 . S
C2814 H2805 0.930 . S
C2814 C2812 1.384 . S
C2814 C2815 1.372 . S
C2815 C2814 1.372 . S
C2815 C2816 1.400 . S
C2815 C2820 1.490 . S
C2816 H2806 0.930 . S
C2816 C2815 1.400 . S
C2816 C2819 1.386 . S
H2817 C2833 0.930 . S
H2818 C2834 0.931 . S
C2819 H2807 0.929 . S
C2819 C2813 1.390 . S
C2819 C2816 1.386 . S
C2820 C2815 1.490 . S
C2820 C2822 1.395 . S
C2820 C2823 1.403 . S
H2821 C2827 0.930 . S
C2822 H2808 0.930 . S
C2822 C2820 1.395 . S
C2822 C2825 1.403 . S
C2823 C2820 1.403 . S
C2823 C2824 1.524 . S
C2823 C2827 1.400 . S
C2824 H2809 0.960 . S
C2824 H2810 0.960 . S
C2824 H2811 0.960 . S
C2824 C2823 1.524 . S
C2825 C2822 1.403 . S
C2825 C2826 1.392 . S
C2825 C2829 1.495 . S
C2826 C2825 1.392 . S
C2826 C2827 1.385 . S
C2826 C2828 1.478 . S
C2827 H2821 0.930 . S
C2827 C2823 1.400 . S
C2827 C2826 1.385 . S
C2828 C2826 1.478 . S
C2828 C2830 1.381 . S
C2828 C2834 1.383 . S
C2829 C2825 1.495 . S
C2829 H2835 0.959 . S
C2829 H2836 0.961 . S
C2829 H2837 0.960 . S
C2830 C2828 1.381 . S
C2830 C2831 1.394 . S
C2830 H2838 0.930 . S
C2831 C2830 1.394 . S
C2831 C2832 1.383 . S
C2831 H2839 0.929 . S
C2832 C2831 1.383 . S
C2832 C2833 1.377 . S
C2833 H2817 0.930 . S
C2833 C2832 1.377 . S
C2833 C2834 1.379 . S
C2834 H2818 0.931 . S
C2834 C2828 1.383 . S
C2834 C2833 1.379 . S
H2835 C2829 0.959 . S
H2836 C2829 0.961 . S
H2837 C2829 0.960 . S
H2838 C2830 0.930 . S
H2839 C2831 0.929 . S
H2840 C2848 0.929 . S
H2841 C2850 0.930 . S
H2842 C2852 0.930 . S
H2843 C2855 0.929 . S
H2844 C2858 0.930 . S
H2845 C2860 0.960 . S
H2846 C2860 0.960 . S
H2847 C2860 0.960 . S
C2848 H2840 0.929 . S
C2848 C2849 1.377 . S
C2848 C2850 1.384 . S
C2849 C2848 1.377 . S
C2849 C2855 1.390 . S
C2850 H2841 0.930 . S
C2850 C2848 1.384 . S
C2850 C2851 1.372 . S
C2851 C2850 1.372 . S
C2851 C2852 1.400 . S
C2851 C2856 1.490 . S
C2852 H2842 0.930 . S
C2852 C2851 1.400 . S
C2852 C2855 1.386 . S
H2853 C2869 0.930 . S
H2854 C2870 0.931 . S
C2855 H2843 0.929 . S
C2855 C2849 1.390 . S
C2855 C2852 1.386 . S
C2856 C2851 1.490 . S
C2856 C2858 1.395 . S
C2856 C2859 1.403 . S
H2857 C2863 0.930 . S
C2858 H2844 0.930 . S
C2858 C2856 1.395 . S
C2858 C2861 1.403 . S
C2859 C2856 1.403 . S
C2859 C2860 1.524 . S
C2859 C2863 1.400 . S
C2860 H2845 0.960 . S
C2860 H2846 0.960 . S
C2860 H2847 0.960 . S
C2860 C2859 1.524 . S
C2861 C2858 1.403 . S
C2861 C2862 1.392 . S
C2861 C2865 1.495 . S
C2862 C2861 1.392 . S
C2862 C2863 1.385 . S
C2862 C2864 1.478 . S
C2863 H2857 0.930 . S
C2863 C2859 1.400 . S
C2863 C2862 1.385 . S
C2864 C2862 1.478 . S
C2864 C2866 1.381 . S
C2864 C2870 1.383 . S
C2865 C2861 1.495 . S
C2865 H2871 0.959 . S
C2865 H2872 0.961 . S
C2865 H2873 0.960 . S
C2866 C2864 1.381 . S
C2866 C2867 1.394 . S
C2866 H2874 0.930 . S
C2867 C2866 1.394 . S
C2867 C2868 1.383 . S
C2867 H2875 0.929 . S
C2868 C2867 1.383 . S
C2868 C2869 1.377 . S
C2869 H2853 0.930 . S
C2869 C2868 1.377 . S
C2869 C2870 1.379 . S
C2870 H2854 0.931 . S
C2870 C2864 1.383 . S
C2870 C2869 1.379 . S
H2871 C2865 0.959 . S
H2872 C2865 0.961 . S
H2873 C2865 0.960 . S
H2874 C2866 0.930 . S
H2875 C2867 0.929 . S
H2876 C2884 0.929 . S
H2877 C2886 0.930 . S
H2878 C2888 0.930 . S
H2879 C2891 0.929 . S
H2880 C2894 0.930 . S
H2881 C2896 0.960 . S
H2882 C2896 0.960 . S
H2883 C2896 0.960 . S
C2884 H2876 0.929 . S
C2884 C2885 1.377 . S
C2884 C2886 1.384 . S
C2885 C2884 1.377 . S
C2885 C2891 1.390 . S
C2886 H2877 0.930 . S
C2886 C2884 1.384 . S
C2886 C2887 1.372 . S
C2887 C2886 1.372 . S
C2887 C2888 1.400 . S
C2887 C2892 1.490 . S
C2888 H2878 0.930 . S
C2888 C2887 1.400 . S
C2888 C2891 1.386 . S
H2889 C2905 0.930 . S
H2890 C2906 0.931 . S
C2891 H2879 0.929 . S
C2891 C2885 1.390 . S
C2891 C2888 1.386 . S
C2892 C2887 1.490 . S
C2892 C2894 1.395 . S
C2892 C2895 1.403 . S
H2893 C2899 0.930 . S
C2894 H2880 0.930 . S
C2894 C2892 1.395 . S
C2894 C2897 1.403 . S
C2895 C2892 1.403 . S
C2895 C2896 1.524 . S
C2895 C2899 1.400 . S
C2896 H2881 0.960 . S
C2896 H2882 0.960 . S
C2896 H2883 0.960 . S
C2896 C2895 1.524 . S
C2897 C2894 1.403 . S
C2897 C2898 1.392 . S
C2897 C2901 1.495 . S
C2898 C2897 1.392 . S
C2898 C2899 1.385 . S
C2898 C2900 1.478 . S
C2899 H2893 0.930 . S
C2899 C2895 1.400 . S
C2899 C2898 1.385 . S
C2900 C2898 1.478 . S
C2900 C2902 1.381 . S
C2900 C2906 1.383 . S
C2901 C2897 1.495 . S
C2901 H2907 0.959 . S
C2901 H2908 0.961 . S
C2901 H2909 0.960 . S
C2902 C2900 1.381 . S
C2902 C2903 1.394 . S
C2902 H2910 0.930 . S
C2903 C2902 1.394 . S
C2903 C2904 1.383 . S
C2903 H2911 0.929 . S
C2904 C2903 1.383 . S
C2904 C2905 1.377 . S
C2905 H2889 0.930 . S
C2905 C2904 1.377 . S
C2905 C2906 1.379 . S
C2906 H2890 0.931 . S
C2906 C2900 1.383 . S
C2906 C2905 1.379 . S
H2907 C2901 0.959 . S
H2908 C2901 0.961 . S
H2909 C2901 0.960 . S
H2910 C2902 0.930 . S
H2911 C2903 0.929 . S
H2912 C2920 0.929 . S
H2913 C2922 0.930 . S
H2914 C2924 0.930 . S
H2915 C2927 0.929 . S
H2916 C2930 0.930 . S
H2917 C2932 0.960 . S
H2918 C2932 0.960 . S
H2919 C2932 0.960 . S
C2920 H2912 0.929 . S
C2920 C2921 1.377 . S
C2920 C2922 1.384 . S
C2921 C2920 1.377 . S
C2921 C2927 1.390 . S
C2922 H2913 0.930 . S
C2922 C2920 1.384 . S
C2922 C2923 1.372 . S
C2923 C2922 1.372 . S
C2923 C2924 1.400 . S
C2923 C2928 1.490 . S
C2924 H2914 0.930 . S
C2924 C2923 1.400 . S
C2924 C2927 1.386 . S
H2925 C2941 0.930 . S
H2926 C2942 0.931 . S
C2927 H2915 0.929 . S
C2927 C2921 1.390 . S
C2927 C2924 1.386 . S
C2928 C2923 1.490 . S
C2928 C2930 1.395 . S
C2928 C2931 1.403 . S
H2929 C2935 0.930 . S
C2930 H2916 0.930 . S
C2930 C2928 1.395 . S
C2930 C2933 1.403 . S
C2931 C2928 1.403 . S
C2931 C2932 1.524 . S
C2931 C2935 1.400 . S
C2932 H2917 0.960 . S
C2932 H2918 0.960 . S
C2932 H2919 0.960 . S
C2932 C2931 1.524 . S
C2933 C2930 1.403 . S
C2933 C2934 1.392 . S
C2933 C2937 1.495 . S
C2934 C2933 1.392 . S
C2934 C2935 1.385 . S
C2934 C2936 1.478 . S
C2935 H2929 0.930 . S
C2935 C2931 1.400 . S
C2935 C2934 1.385 . S
C2936 C2934 1.478 . S
C2936 C2938 1.381 . S
C2936 C2942 1.383 . S
C2937 C2933 1.495 . S
C2937 H2943 0.959 . S
C2937 H2944 0.961 . S
C2937 H2945 0.960 . S
C2938 C2936 1.381 . S
C2938 C2939 1.394 . S
C2938 H2946 0.930 . S
C2939 C2938 1.394 . S
C2939 C2940 1.383 . S
C2939 H2947 0.929 . S
C2940 C2939 1.383 . S
C2940 C2941 1.377 . S
C2941 H2925 0.930 . S
C2941 C2940 1.377 . S
C2941 C2942 1.379 . S
C2942 H2926 0.931 . S
C2942 C2936 1.383 . S
C2942 C2941 1.379 . S
H2943 C2937 0.959 . S
H2944 C2937 0.961 . S
H2945 C2937 0.960 . S
H2946 C2938 0.930 . S
H2947 C2939 0.929 . S
H2948 C2956 0.929 . S
H2949 C2958 0.930 . S
H2950 C2960 0.930 . S
H2951 C2963 0.929 . S
H2952 C2966 0.930 . S
H2953 C2968 0.960 . S
H2954 C2968 0.960 . S
H2955 C2968 0.960 . S
C2956 H2948 0.929 . S
C2956 C2957 1.377 . S
C2956 C2958 1.384 . S
C2957 C2956 1.377 . S
C2957 C2963 1.390 . S
C2958 H2949 0.930 . S
C2958 C2956 1.384 . S
C2958 C2959 1.372 . S
C2959 C2958 1.372 . S
C2959 C2960 1.400 . S
C2959 C2964 1.490 . S
C2960 H2950 0.930 . S
C2960 C2959 1.400 . S
C2960 C2963 1.386 . S
H2961 C2977 0.930 . S
H2962 C2978 0.931 . S
C2963 H2951 0.929 . S
C2963 C2957 1.390 . S
C2963 C2960 1.386 . S
C2964 C2959 1.490 . S
C2964 C2966 1.395 . S
C2964 C2967 1.403 . S
H2965 C2971 0.930 . S
C2966 H2952 0.930 . S
C2966 C2964 1.395 . S
C2966 C2969 1.403 . S
C2967 C2964 1.403 . S
C2967 C2968 1.524 . S
C2967 C2971 1.400 . S
C2968 H2953 0.960 . S
C2968 H2954 0.960 . S
C2968 H2955 0.960 . S
C2968 C2967 1.524 . S
C2969 C2966 1.403 . S
C2969 C2970 1.392 . S
C2969 C2973 1.495 . S
C2970 C2969 1.392 . S
C2970 C2971 1.385 . S
C2970 C2972 1.478 . S
C2971 H2965 0.930 . S
C2971 C2967 1.400 . S
C2971 C2970 1.385 . S
C2972 C2970 1.478 . S
C2972 C2974 1.381 . S
C2972 C2978 1.383 . S
C2973 C2969 1.495 . S
C2973 H2979 0.959 . S
C2973 H2980 0.961 . S
C2973 H2981 0.960 . S
C2974 C2972 1.381 . S
C2974 C2975 1.394 . S
C2974 H2982 0.930 . S
C2975 C2974 1.394 . S
C2975 C2976 1.383 . S
C2975 H2983 0.929 . S
C2976 C2975 1.383 . S
C2976 C2977 1.377 . S
C2977 H2961 0.930 . S
C2977 C2976 1.377 . S
C2977 C2978 1.379 . S
C2978 H2962 0.931 . S
C2978 C2972 1.383 . S
C2978 C2977 1.379 . S
H2979 C2973 0.959 . S
H2980 C2973 0.961 . S
H2981 C2973 0.960 . S
H2982 C2974 0.930 . S
H2983 C2975 0.929 . S
H2984 C2992 0.929 . S
H2985 C2994 0.930 . S
H2986 C2996 0.930 . S
H2987 C2999 0.929 . S
H2988 C3002 0.930 . S
H2989 C3004 0.960 . S
H2990 C3004 0.960 . S
H2991 C3004 0.960 . S
C2992 H2984 0.929 . S
C2992 C2993 1.377 . S
C2992 C2994 1.384 . S
C2993 C2992 1.377 . S
C2993 C2999 1.390 . S
C2994 H2985 0.930 . S
C2994 C2992 1.384 . S
C2994 C2995 1.372 . S
C2995 C2994 1.372 . S
C2995 C2996 1.400 . S
C2995 C3000 1.490 . S
C2996 H2986 0.930 . S
C2996 C2995 1.400 . S
C2996 C2999 1.386 . S
H2997 C3013 0.930 . S
H2998 C3014 0.931 . S
C2999 H2987 0.929 . S
C2999 C2993 1.390 . S
C2999 C2996 1.386 . S
C3000 C2995 1.490 . S
C3000 C3002 1.395 . S
C3000 C3003 1.403 . S
H3001 C3007 0.930 . S
C3002 H2988 0.930 . S
C3002 C3000 1.395 . S
C3002 C3005 1.403 . S
C3003 C3000 1.403 . S
C3003 C3004 1.524 . S
C3003 C3007 1.400 . S
C3004 H2989 0.960 . S
C3004 H2990 0.960 . S
C3004 H2991 0.960 . S
C3004 C3003 1.524 . S
C3005 C3002 1.403 . S
C3005 C3006 1.392 . S
C3005 C3009 1.495 . S
C3006 C3005 1.392 . S
C3006 C3007 1.385 . S
C3006 C3008 1.478 . S
C3007 H3001 0.930 . S
C3007 C3003 1.400 . S
C3007 C3006 1.385 . S
C3008 C3006 1.478 . S
C3008 C3010 1.381 . S
C3008 C3014 1.383 . S
C3009 C3005 1.495 . S
C3009 H3015 0.959 . S
C3009 H3016 0.961 . S
C3009 H3017 0.960 . S
C3010 C3008 1.381 . S
C3010 C3011 1.394 . S
C3010 H3018 0.930 . S
C3011 C3010 1.394 . S
C3011 C3012 1.383 . S
C3011 H3019 0.929 . S
C3012 C3011 1.383 . S
C3012 C3013 1.377 . S
C3013 H2997 0.930 . S
C3013 C3012 1.377 . S
C3013 C3014 1.379 . S
C3014 H2998 0.931 . S
C3014 C3008 1.383 . S
C3014 C3013 1.379 . S
H3015 C3009 0.959 . S
H3016 C3009 0.961 . S
H3017 C3009 0.960 . S
H3018 C3010 0.930 . S
H3019 C3011 0.929 . S
H3020 C3028 0.929 . S
H3021 C3030 0.930 . S
H3022 C3032 0.930 . S
H3023 C3035 0.929 . S
H3024 C3038 0.930 . S
H3025 C3040 0.960 . S
H3026 C3040 0.960 . S
H3027 C3040 0.960 . S
C3028 H3020 0.929 . S
C3028 C3029 1.377 . S
C3028 C3030 1.384 . S
C3029 C3028 1.377 . S
C3029 C3035 1.390 . S
C3030 H3021 0.930 . S
C3030 C3028 1.384 . S
C3030 C3031 1.372 . S
C3031 C3030 1.372 . S
C3031 C3032 1.400 . S
C3031 C3036 1.490 . S
C3032 H3022 0.930 . S
C3032 C3031 1.400 . S
C3032 C3035 1.386 . S
H3033 C3049 0.930 . S
H3034 C3050 0.931 . S
C3035 H3023 0.929 . S
C3035 C3029 1.390 . S
C3035 C3032 1.386 . S
C3036 C3031 1.490 . S
C3036 C3038 1.395 . S
C3036 C3039 1.403 . S
H3037 C3043 0.930 . S
C3038 H3024 0.930 . S
C3038 C3036 1.395 . S
C3038 C3041 1.403 . S
C3039 C3036 1.403 . S
C3039 C3040 1.524 . S
C3039 C3043 1.400 . S
C3040 H3025 0.960 . S
C3040 H3026 0.960 . S
C3040 H3027 0.960 . S
C3040 C3039 1.524 . S
C3041 C3038 1.403 . S
C3041 C3042 1.392 . S
C3041 C3045 1.495 . S
C3042 C3041 1.392 . S
C3042 C3043 1.385 . S
C3042 C3044 1.478 . S
C3043 H3037 0.930 . S
C3043 C3039 1.400 . S
C3043 C3042 1.385 . S
C3044 C3042 1.478 . S
C3044 C3046 1.381 . S
C3044 C3050 1.383 . S
C3045 C3041 1.495 . S
C3045 H3051 0.959 . S
C3045 H3052 0.961 . S
C3045 H3053 0.960 . S
C3046 C3044 1.381 . S
C3046 C3047 1.394 . S
C3046 H3054 0.930 . S
C3047 C3046 1.394 . S
C3047 C3048 1.383 . S
C3047 H3055 0.929 . S
C3048 C3047 1.383 . S
C3048 C3049 1.377 . S
C3049 H3033 0.930 . S
C3049 C3048 1.377 . S
C3049 C3050 1.379 . S
C3050 H3034 0.931 . S
C3050 C3044 1.383 . S
C3050 C3049 1.379 . S
H3051 C3045 0.959 . S
H3052 C3045 0.961 . S
H3053 C3045 0.960 . S
H3054 C3046 0.930 . S
H3055 C3047 0.929 . S
H3056 C3064 0.929 . S
H3057 C3066 0.930 . S
H3058 C3068 0.930 . S
H3059 C3071 0.929 . S
H3060 C3074 0.930 . S
H3061 C3076 0.960 . S
H3062 C3076 0.960 . S
H3063 C3076 0.960 . S
C3064 H3056 0.929 . S
C3064 C3065 1.377 . S
C3064 C3066 1.384 . S
C3065 C3064 1.377 . S
C3065 C3071 1.390 . S
C3066 H3057 0.930 . S
C3066 C3064 1.384 . S
C3066 C3067 1.372 . S
C3067 C3066 1.372 . S
C3067 C3068 1.400 . S
C3067 C3072 1.490 . S
C3068 H3058 0.930 . S
C3068 C3067 1.400 . S
C3068 C3071 1.386 . S
H3069 C3085 0.930 . S
H3070 C3086 0.931 . S
C3071 H3059 0.929 . S
C3071 C3065 1.390 . S
C3071 C3068 1.386 . S
C3072 C3067 1.490 . S
C3072 C3074 1.395 . S
C3072 C3075 1.403 . S
H3073 C3079 0.930 . S
C3074 H3060 0.930 . S
C3074 C3072 1.395 . S
C3074 C3077 1.403 . S
C3075 C3072 1.403 . S
C3075 C3076 1.524 . S
C3075 C3079 1.400 . S
C3076 H3061 0.960 . S
C3076 H3062 0.960 . S
C3076 H3063 0.960 . S
C3076 C3075 1.524 . S
C3077 C3074 1.403 . S
C3077 C3078 1.392 . S
C3077 C3081 1.495 . S
C3078 C3077 1.392 . S
C3078 C3079 1.385 . S
C3078 C3080 1.478 . S
C3079 H3073 0.930 . S
C3079 C3075 1.400 . S
C3079 C3078 1.385 . S
C3080 C3078 1.478 . S
C3080 C3082 1.381 . S
C3080 C3086 1.383 . S
C3081 C3077 1.495 . S
C3081 H3087 0.959 . S
C3081 H3088 0.961 . S
C3081 H3089 0.960 . S
C3082 C3080 1.381 . S
C3082 C3083 1.394 . S
C3082 H3090 0.930 . S
C3083 C3082 1.394 . S
C3083 C3084 1.383 . S
C3083 H3091 0.929 . S
C3084 C3083 1.383 . S
C3084 C3085 1.377 . S
C3085 H3069 0.930 . S
C3085 C3084 1.377 . S
C3085 C3086 1.379 . S
C3086 H3070 0.931 . S
C3086 C3080 1.383 . S
C3086 C3085 1.379 . S
H3087 C3081 0.959 . S
H3088 C3081 0.961 . S
H3089 C3081 0.960 . S
H3090 C3082 0.930 . S
H3091 C3083 0.929 . S
H3092 C3100 0.929 . S
H3093 C3102 0.930 . S
H3094 C3104 0.930 . S
H3095 C3107 0.929 . S
H3096 C3110 0.930 . S
H3097 C3112 0.960 . S
H3098 C3112 0.960 . S
H3099 C3112 0.960 . S
C3100 H3092 0.929 . S
C3100 C3101 1.377 . S
C3100 C3102 1.384 . S
C3101 C3100 1.377 . S
C3101 C3107 1.390 . S
C3102 H3093 0.930 . S
C3102 C3100 1.384 . S
C3102 C3103 1.372 . S
C3103 C3102 1.372 . S
C3103 C3104 1.400 . S
C3103 C3108 1.490 . S
C3104 H3094 0.930 . S
C3104 C3103 1.400 . S
C3104 C3107 1.386 . S
H3105 C3121 0.930 . S
H3106 C3122 0.931 . S
C3107 H3095 0.929 . S
C3107 C3101 1.390 . S
C3107 C3104 1.386 . S
C3108 C3103 1.490 . S
C3108 C3110 1.395 . S
C3108 C3111 1.403 . S
H3109 C3115 0.930 . S
C3110 H3096 0.930 . S
C3110 C3108 1.395 . S
C3110 C3113 1.403 . S
C3111 C3108 1.403 . S
C3111 C3112 1.524 . S
C3111 C3115 1.400 . S
C3112 H3097 0.960 . S
C3112 H3098 0.960 . S
C3112 H3099 0.960 . S
C3112 C3111 1.524 . S
C3113 C3110 1.403 . S
C3113 C3114 1.392 . S
C3113 C3117 1.495 . S
C3114 C3113 1.392 . S
C3114 C3115 1.385 . S
C3114 C3116 1.478 . S
C3115 H3109 0.930 . S
C3115 C3111 1.400 . S
C3115 C3114 1.385 . S
C3116 C3114 1.478 . S
C3116 C3118 1.381 . S
C3116 C3122 1.383 . S
C3117 C3113 1.495 . S
C3117 H3123 0.959 . S
C3117 H3124 0.961 . S
C3117 H3125 0.960 . S
C3118 C3116 1.381 . S
C3118 C3119 1.394 . S
C3118 H3126 0.930 . S
C3119 C3118 1.394 . S
C3119 C3120 1.383 . S
C3119 H3127 0.929 . S
C3120 C3119 1.383 . S
C3120 C3121 1.377 . S
C3121 H3105 0.930 . S
C3121 C3120 1.377 . S
C3121 C3122 1.379 . S
C3122 H3106 0.931 . S
C3122 C3116 1.383 . S
C3122 C3121 1.379 . S
H3123 C3117 0.959 . S
H3124 C3117 0.961 . S
H3125 C3117 0.960 . S
H3126 C3118 0.930 . S
H3127 C3119 0.929 . S
H3128 C3136 0.929 . S
H3129 C3138 0.930 . S
H3130 C3140 0.930 . S
H3131 C3143 0.929 . S
H3132 C3146 0.930 . S
H3133 C3148 0.960 . S
H3134 C3148 0.960 . S
H3135 C3148 0.960 . S
C3136 H3128 0.929 . S
C3136 C3137 1.377 . S
C3136 C3138 1.384 . S
C3137 C3136 1.377 . S
C3137 C3143 1.390 . S
C3138 H3129 0.930 . S
C3138 C3136 1.384 . S
C3138 C3139 1.372 . S
C3139 C3138 1.372 . S
C3139 C3140 1.400 . S
C3139 C3144 1.490 . S
C3140 H3130 0.930 . S
C3140 C3139 1.400 . S
C3140 C3143 1.386 . S
H3141 C3157 0.930 . S
H3142 C3158 0.931 . S
C3143 H3131 0.929 . S
C3143 C3137 1.390 . S
C3143 C3140 1.386 . S
C3144 C3139 1.490 . S
C3144 C3146 1.395 . S
C3144 C3147 1.403 . S
H3145 C3151 0.930 . S
C3146 H3132 0.930 . S
C3146 C3144 1.395 . S
C3146 C3149 1.403 . S
C3147 C3144 1.403 . S
C3147 C3148 1.524 . S
C3147 C3151 1.400 . S
C3148 H3133 0.960 . S
C3148 H3134 0.960 . S
C3148 H3135 0.960 . S
C3148 C3147 1.524 . S
C3149 C3146 1.403 . S
C3149 C3150 1.392 . S
C3149 C3153 1.495 . S
C3150 C3149 1.392 . S
C3150 C3151 1.385 . S
C3150 C3152 1.478 . S
C3151 H3145 0.930 . S
C3151 C3147 1.400 . S
C3151 C3150 1.385 . S
C3152 C3150 1.478 . S
C3152 C3154 1.381 . S
C3152 C3158 1.383 . S
C3153 C3149 1.495 . S
C3153 H3159 0.959 . S
C3153 H3160 0.961 . S
C3153 H3161 0.960 . S
C3154 C3152 1.381 . S
C3154 C3155 1.394 . S
C3154 H3162 0.930 . S
C3155 C3154 1.394 . S
C3155 C3156 1.383 . S
C3155 H3163 0.929 . S
C3156 C3155 1.383 . S
C3156 C3157 1.377 . S
C3157 H3141 0.930 . S
C3157 C3156 1.377 . S
C3157 C3158 1.379 . S
C3158 H3142 0.931 . S
C3158 C3152 1.383 . S
C3158 C3157 1.379 . S
H3159 C3153 0.959 . S
H3160 C3153 0.961 . S
H3161 C3153 0.960 . S
H3162 C3154 0.930 . S
H3163 C3155 0.929 . S
H3164 C3172 0.929 . S
H3165 C3174 0.930 . S
H3166 C3176 0.930 . S
H3167 C3179 0.929 . S
H3168 C3182 0.930 . S
H3169 C3184 0.960 . S
H3170 C3184 0.960 . S
H3171 C3184 0.960 . S
C3172 H3164 0.929 . S
C3172 C3173 1.377 . S
C3172 C3174 1.384 . S
C3173 C3172 1.377 . S
C3173 C3179 1.390 . S
C3174 H3165 0.930 . S
C3174 C3172 1.384 . S
C3174 C3175 1.372 . S
C3175 C3174 1.372 . S
C3175 C3176 1.400 . S
C3175 C3180 1.490 . S
C3176 H3166 0.930 . S
C3176 C3175 1.400 . S
C3176 C3179 1.386 . S
H3177 C3193 0.930 . S
H3178 C3194 0.931 . S
C3179 H3167 0.929 . S
C3179 C3173 1.390 . S
C3179 C3176 1.386 . S
C3180 C3175 1.490 . S
C3180 C3182 1.395 . S
C3180 C3183 1.403 . S
H3181 C3187 0.930 . S
C3182 H3168 0.930 . S
C3182 C3180 1.395 . S
C3182 C3185 1.403 . S
C3183 C3180 1.403 . S
C3183 C3184 1.524 . S
C3183 C3187 1.400 . S
C3184 H3169 0.960 . S
C3184 H3170 0.960 . S
C3184 H3171 0.960 . S
C3184 C3183 1.524 . S
C3185 C3182 1.403 . S
C3185 C3186 1.392 . S
C3185 C3189 1.495 . S
C3186 C3185 1.392 . S
C3186 C3187 1.385 . S
C3186 C3188 1.478 . S
C3187 H3181 0.930 . S
C3187 C3183 1.400 . S
C3187 C3186 1.385 . S
C3188 C3186 1.478 . S
C3188 C3190 1.381 . S
C3188 C3194 1.383 . S
C3189 C3185 1.495 . S
C3189 H3195 0.959 . S
C3189 H3196 0.961 . S
C3189 H3197 0.960 . S
C3190 C3188 1.381 . S
C3190 C3191 1.394 . S
C3190 H3198 0.930 . S
C3191 C3190 1.394 . S
C3191 C3192 1.383 . S
C3191 H3199 0.929 . S
C3192 C3191 1.383 . S
C3192 C3193 1.377 . S
C3193 H3177 0.930 . S
C3193 C3192 1.377 . S
C3193 C3194 1.379 . S
C3194 H3178 0.931 . S
C3194 C3188 1.383 . S
C3194 C3193 1.379 . S
H3195 C3189 0.959 . S
H3196 C3189 0.961 . S
H3197 C3189 0.960 . S
H3198 C3190 0.930 . S
H3199 C3191 0.929 . S
H3200 C3208 0.929 . S
H3201 C3210 0.930 . S
H3202 C3212 0.930 . S
H3203 C3215 0.929 . S
H3204 C3218 0.930 . S
H3205 C3220 0.960 . S
H3206 C3220 0.960 . S
H3207 C3220 0.960 . S
C3208 H3200 0.929 . S
C3208 C3209 1.377 . S
C3208 C3210 1.384 . S
C3209 C3208 1.377 . S
C3209 C3215 1.390 . S
C3210 H3201 0.930 . S
C3210 C3208 1.384 . S
C3210 C3211 1.372 . S
C3211 C3210 1.372 . S
C3211 C3212 1.400 . S
C3211 C3216 1.490 . S
C3212 H3202 0.930 . S
C3212 C3211 1.400 . S
C3212 C3215 1.386 . S
H3213 C3229 0.930 . S
H3214 C3230 0.931 . S
C3215 H3203 0.929 . S
C3215 C3209 1.390 . S
C3215 C3212 1.386 . S
C3216 C3211 1.490 . S
C3216 C3218 1.395 . S
C3216 C3219 1.403 . S
H3217 C3223 0.930 . S
C3218 H3204 0.930 . S
C3218 C3216 1.395 . S
C3218 C3221 1.403 . S
C3219 C3216 1.403 . S
C3219 C3220 1.524 . S
C3219 C3223 1.400 . S
C3220 H3205 0.960 . S
C3220 H3206 0.960 . S
C3220 H3207 0.960 . S
C3220 C3219 1.524 . S
C3221 C3218 1.403 . S
C3221 C3222 1.392 . S
C3221 C3225 1.495 . S
C3222 C3221 1.392 . S
C3222 C3223 1.385 . S
C3222 C3224 1.478 . S
C3223 H3217 0.930 . S
C3223 C3219 1.400 . S
C3223 C3222 1.385 . S
C3224 C3222 1.478 . S
C3224 C3226 1.381 . S
C3224 C3230 1.383 . S
C3225 C3221 1.495 . S
C3225 H3231 0.959 . S
C3225 H3232 0.961 . S
C3225 H3233 0.960 . S
C3226 C3224 1.381 . S
C3226 C3227 1.394 . S
C3226 H3234 0.930 . S
C3227 C3226 1.394 . S
C3227 C3228 1.383 . S
C3227 H3235 0.929 . S
C3228 C3227 1.383 . S
C3228 C3229 1.377 . S
C3229 H3213 0.930 . S
C3229 C3228 1.377 . S
C3229 C3230 1.379 . S
C3230 H3214 0.931 . S
C3230 C3224 1.383 . S
C3230 C3229 1.379 . S
H3231 C3225 0.959 . S
H3232 C3225 0.961 . S
H3233 C3225 0.960 . S
H3234 C3226 0.930 . S
H3235 C3227 0.929 . S
H3236 C3244 0.929 . S
H3237 C3246 0.930 . S
H3238 C3248 0.930 . S
H3239 C3251 0.929 . S
H3240 C3254 0.930 . S
H3241 C3256 0.960 . S
H3242 C3256 0.960 . S
H3243 C3256 0.960 . S
C3244 H3236 0.929 . S
C3244 C3245 1.377 . S
C3244 C3246 1.384 . S
C3245 C3244 1.377 . S
C3245 C3251 1.390 . S
C3246 H3237 0.930 . S
C3246 C3244 1.384 . S
C3246 C3247 1.372 . S
C3247 C3246 1.372 . S
C3247 C3248 1.400 . S
C3247 C3252 1.490 . S
C3248 H3238 0.930 . S
C3248 C3247 1.400 . S
C3248 C3251 1.386 . S
H3249 C3265 0.930 . S
H3250 C3266 0.931 . S
C3251 H3239 0.929 . S
C3251 C3245 1.390 . S
C3251 C3248 1.386 . S
C3252 C3247 1.490 . S
C3252 C3254 1.395 . S
C3252 C3255 1.403 . S
H3253 C3259 0.930 . S
C3254 H3240 0.930 . S
C3254 C3252 1.395 . S
C3254 C3257 1.403 . S
C3255 C3252 1.403 . S
C3255 C3256 1.524 . S
C3255 C3259 1.400 . S
C3256 H3241 0.960 . S
C3256 H3242 0.960 . S
C3256 H3243 0.960 . S
C3256 C3255 1.524 . S
C3257 C3254 1.403 . S
C3257 C3258 1.392 . S
C3257 C3261 1.495 . S
C3258 C3257 1.392 . S
C3258 C3259 1.385 . S
C3258 C3260 1.478 . S
C3259 H3253 0.930 . S
C3259 C3255 1.400 . S
C3259 C3258 1.385 . S
C3260 C3258 1.478 . S
C3260 C3262 1.381 . S
C3260 C3266 1.383 . S
C3261 C3257 1.495 . S
C3261 H3267 0.959 . S
C3261 H3268 0.961 . S
C3261 H3269 0.960 . S
C3262 C3260 1.381 . S
C3262 C3263 1.394 . S
C3262 H3270 0.930 . S
C3263 C3262 1.394 . S
C3263 C3264 1.383 . S
C3263 H3271 0.929 . S
C3264 C3263 1.383 . S
C3264 C3265 1.377 . S
C3265 H3249 0.930 . S
C3265 C3264 1.377 . S
C3265 C3266 1.379 . S
C3266 H3250 0.931 . S
C3266 C3260 1.383 . S
C3266 C3265 1.379 . S
H3267 C3261 0.959 . S
H3268 C3261 0.961 . S
H3269 C3261 0.960 . S
H3270 C3262 0.930 . S
H3271 C3263 0.929 . S
H3272 C3280 0.929 . S
H3273 C3282 0.930 . S
H3274 C3284 0.930 . S
H3275 C3287 0.929 . S
H3276 C3290 0.930 . S
H3277 C3292 0.960 . S
H3278 C3292 0.960 . S
H3279 C3292 0.960 . S
C3280 H3272 0.929 . S
C3280 C3281 1.377 . S
C3280 C3282 1.384 . S
C3281 C3280 1.377 . S
C3281 C3287 1.390 . S
C3282 H3273 0.930 . S
C3282 C3280 1.384 . S
C3282 C3283 1.372 . S
C3283 C3282 1.372 . S
C3283 C3284 1.400 . S
C3283 C3288 1.490 . S
C3284 H3274 0.930 . S
C3284 C3283 1.400 . S
C3284 C3287 1.386 . S
H3285 C3301 0.930 . S
H3286 C3302 0.931 . S
C3287 H3275 0.929 . S
C3287 C3281 1.390 . S
C3287 C3284 1.386 . S
C3288 C3283 1.490 . S
C3288 C3290 1.395 . S
C3288 C3291 1.403 . S
H3289 C3295 0.930 . S
C3290 H3276 0.930 . S
C3290 C3288 1.395 . S
C3290 C3293 1.403 . S
C3291 C3288 1.403 . S
C3291 C3292 1.524 . S
C3291 C3295 1.400 . S
C3292 H3277 0.960 . S
C3292 H3278 0.960 . S
C3292 H3279 0.960 . S
C3292 C3291 1.524 . S
C3293 C3290 1.403 . S
C3293 C3294 1.392 . S
C3293 C3297 1.495 . S
C3294 C3293 1.392 . S
C3294 C3295 1.385 . S
C3294 C3296 1.478 . S
C3295 H3289 0.930 . S
C3295 C3291 1.400 . S
C3295 C3294 1.385 . S
C3296 C3294 1.478 . S
C3296 C3298 1.381 . S
C3296 C3302 1.383 . S
C3297 C3293 1.495 . S
C3297 H3303 0.959 . S
C3297 H3304 0.961 . S
C3297 H3305 0.960 . S
C3298 C3296 1.381 . S
C3298 C3299 1.394 . S
C3298 H3306 0.930 . S
C3299 C3298 1.394 . S
C3299 C3300 1.383 . S
C3299 H3307 0.929 . S
C3300 C3299 1.383 . S
C3300 C3301 1.377 . S
C3301 H3285 0.930 . S
C3301 C3300 1.377 . S
C3301 C3302 1.379 . S
C3302 H3286 0.931 . S
C3302 C3296 1.383 . S
C3302 C3301 1.379 . S
H3303 C3297 0.959 . S
H3304 C3297 0.961 . S
H3305 C3297 0.960 . S
H3306 C3298 0.930 . S
H3307 C3299 0.929 . S
H3308 C3316 0.929 . S
H3309 C3318 0.930 . S
H3310 C3320 0.930 . S
H3311 C3323 0.929 . S
H3312 C3326 0.930 . S
H3313 C3328 0.960 . S
H3314 C3328 0.960 . S
H3315 C3328 0.960 . S
C3316 H3308 0.929 . S
C3316 C3317 1.377 . S
C3316 C3318 1.384 . S
C3317 C3316 1.377 . S
C3317 C3323 1.390 . S
C3318 H3309 0.930 . S
C3318 C3316 1.384 . S
C3318 C3319 1.372 . S
C3319 C3318 1.372 . S
C3319 C3320 1.400 . S
C3319 C3324 1.490 . S
C3320 H3310 0.930 . S
C3320 C3319 1.400 . S
C3320 C3323 1.386 . S
H3321 C3337 0.930 . S
H3322 C3338 0.931 . S
C3323 H3311 0.929 . S
C3323 C3317 1.390 . S
C3323 C3320 1.386 . S
C3324 C3319 1.490 . S
C3324 C3326 1.395 . S
C3324 C3327 1.403 . S
H3325 C3331 0.930 . S
C3326 H3312 0.930 . S
C3326 C3324 1.395 . S
C3326 C3329 1.403 . S
C3327 C3324 1.403 . S
C3327 C3328 1.524 . S
C3327 C3331 1.400 . S
C3328 H3313 0.960 . S
C3328 H3314 0.960 . S
C3328 H3315 0.960 . S
C3328 C3327 1.524 . S
C3329 C3326 1.403 . S
C3329 C3330 1.392 . S
C3329 C3333 1.495 . S
C3330 C3329 1.392 . S
C3330 C3331 1.385 . S
C3330 C3332 1.478 . S
C3331 H3325 0.930 . S
C3331 C3327 1.400 . S
C3331 C3330 1.385 . S
C3332 C3330 1.478 . S
C3332 C3334 1.381 . S
C3332 C3338 1.383 . S
C3333 C3329 1.495 . S
C3333 H3339 0.959 . S
C3333 H3340 0.961 . S
C3333 H3341 0.960 . S
C3334 C3332 1.381 . S
C3334 C3335 1.394 . S
C3334 H3342 0.930 . S
C3335 C3334 1.394 . S
C3335 C3336 1.383 . S
C3335 H3343 0.929 . S
C3336 C3335 1.383 . S
C3336 C3337 1.377 . S
C3337 H3321 0.930 . S
C3337 C3336 1.377 . S
C3337 C3338 1.379 . S
C3338 H3322 0.931 . S
C3338 C3332 1.383 . S
C3338 C3337 1.379 . S
H3339 C3333 0.959 . S
H3340 C3333 0.961 . S
H3341 C3333 0.960 . S
H3342 C3334 0.930 . S
H3343 C3335 0.929 . S
H3344 C3352 0.929 . S
H3345 C3354 0.930 . S
H3346 C3356 0.930 . S
H3347 C3359 0.929 . S
H3348 C3362 0.930 . S
H3349 C3364 0.960 . S
H3350 C3364 0.960 . S
H3351 C3364 0.960 . S
C3352 H3344 0.929 . S
C3352 C3353 1.377 . S
C3352 C3354 1.384 . S
C3353 C3352 1.377 . S
C3353 C3359 1.390 . S
C3354 H3345 0.930 . S
C3354 C3352 1.384 . S
C3354 C3355 1.372 . S
C3355 C3354 1.372 . S
C3355 C3356 1.400 . S
C3355 C3360 1.490 . S
C3356 H3346 0.930 . S
C3356 C3355 1.400 . S
C3356 C3359 1.386 . S
H3357 C3373 0.930 . S
H3358 C3374 0.931 . S
C3359 H3347 0.929 . S
C3359 C3353 1.390 . S
C3359 C3356 1.386 . S
C3360 C3355 1.490 . S
C3360 C3362 1.395 . S
C3360 C3363 1.403 . S
H3361 C3367 0.930 . S
C3362 H3348 0.930 . S
C3362 C3360 1.395 . S
C3362 C3365 1.403 . S
C3363 C3360 1.403 . S
C3363 C3364 1.524 . S
C3363 C3367 1.400 . S
C3364 H3349 0.960 . S
C3364 H3350 0.960 . S
C3364 H3351 0.960 . S
C3364 C3363 1.524 . S
C3365 C3362 1.403 . S
C3365 C3366 1.392 . S
C3365 C3369 1.495 . S
C3366 C3365 1.392 . S
C3366 C3367 1.385 . S
C3366 C3368 1.478 . S
C3367 H3361 0.930 . S
C3367 C3363 1.400 . S
C3367 C3366 1.385 . S
C3368 C3366 1.478 . S
C3368 C3370 1.381 . S
C3368 C3374 1.383 . S
C3369 C3365 1.495 . S
C3369 H3375 0.959 . S
C3369 H3376 0.961 . S
C3369 H3377 0.960 . S
C3370 C3368 1.381 . S
C3370 C3371 1.394 . S
C3370 H3378 0.930 . S
C3371 C3370 1.394 . S
C3371 C3372 1.383 . S
C3371 H3379 0.929 . S
C3372 C3371 1.383 . S
C3372 C3373 1.377 . S
C3373 H3357 0.930 . S
C3373 C3372 1.377 . S
C3373 C3374 1.379 . S
C3374 H3358 0.931 . S
C3374 C3368 1.383 . S
C3374 C3373 1.379 . S
H3375 C3369 0.959 . S
H3376 C3369 0.961 . S
H3377 C3369 0.960 . S
H3378 C3370 0.930 . S
H3379 C3371 0.929 . S
H3380 C3388 0.929 . S
H3381 C3390 0.930 . S
H3382 C3392 0.930 . S
H3383 C3395 0.929 . S
H3384 C3398 0.930 . S
H3385 C3400 0.960 . S
H3386 C3400 0.960 . S
H3387 C3400 0.960 . S
C3388 H3380 0.929 . S
C3388 C3389 1.377 . S
C3388 C3390 1.384 . S
C3389 C3388 1.377 . S
C3389 C3395 1.390 . S
C3390 H3381 0.930 . S
C3390 C3388 1.384 . S
C3390 C3391 1.372 . S
C3391 C3390 1.372 . S
C3391 C3392 1.400 . S
C3391 C3396 1.490 . S
C3392 H3382 0.930 . S
C3392 C3391 1.400 . S
C3392 C3395 1.386 . S
H3393 C3409 0.930 . S
H3394 C3410 0.931 . S
C3395 H3383 0.929 . S
C3395 C3389 1.390 . S
C3395 C3392 1.386 . S
C3396 C3391 1.490 . S
C3396 C3398 1.395 . S
C3396 C3399 1.403 . S
H3397 C3403 0.930 . S
C3398 H3384 0.930 . S
C3398 C3396 1.395 . S
C3398 C3401 1.403 . S
C3399 C3396 1.403 . S
C3399 C3400 1.524 . S
C3399 C3403 1.400 . S
C3400 H3385 0.960 . S
C3400 H3386 0.960 . S
C3400 H3387 0.960 . S
C3400 C3399 1.524 . S
C3401 C3398 1.403 . S
C3401 C3402 1.392 . S
C3401 C3405 1.495 . S
C3402 C3401 1.392 . S
C3402 C3403 1.385 . S
C3402 C3404 1.478 . S
C3403 H3397 0.930 . S
C3403 C3399 1.400 . S
C3403 C3402 1.385 . S
C3404 C3402 1.478 . S
C3404 C3406 1.381 . S
C3404 C3410 1.383 . S
C3405 C3401 1.495 . S
C3405 H3411 0.959 . S
C3405 H3412 0.961 . S
C3405 H3413 0.960 . S
C3406 C3404 1.381 . S
C3406 C3407 1.394 . S
C3406 H3414 0.930 . S
C3407 C3406 1.394 . S
C3407 C3408 1.383 . S
C3407 H3415 0.929 . S
C3408 C3407 1.383 . S
C3408 C3409 1.377 . S
C3409 H3393 0.930 . S
C3409 C3408 1.377 . S
C3409 C3410 1.379 . S
C3410 H3394 0.931 . S
C3410 C3404 1.383 . S
C3410 C3409 1.379 . S
H3411 C3405 0.959 . S
H3412 C3405 0.961 . S
H3413 C3405 0.960 . S
H3414 C3406 0.930 . S
H3415 C3407 0.929 . S
H3416 C3424 0.929 . S
H3417 C3426 0.930 . S
H3418 C3428 0.930 . S
H3419 C3431 0.929 . S
H3420 C3434 0.930 . S
H3421 C3436 0.960 . S
H3422 C3436 0.960 . S
H3423 C3436 0.960 . S
C3424 H3416 0.929 . S
C3424 C3425 1.377 . S
C3424 C3426 1.384 . S
C3425 C3424 1.377 . S
C3425 C3431 1.390 . S
C3426 H3417 0.930 . S
C3426 C3424 1.384 . S
C3426 C3427 1.372 . S
C3427 C3426 1.372 . S
C3427 C3428 1.400 . S
C3427 C3432 1.490 . S
C3428 H3418 0.930 . S
C3428 C3427 1.400 . S
C3428 C3431 1.386 . S
H3429 C3445 0.930 . S
H3430 C3446 0.931 . S
C3431 H3419 0.929 . S
C3431 C3425 1.390 . S
C3431 C3428 1.386 . S
C3432 C3427 1.490 . S
C3432 C3434 1.395 . S
C3432 C3435 1.403 . S
H3433 C3439 0.930 . S
C3434 H3420 0.930 . S
C3434 C3432 1.395 . S
C3434 C3437 1.403 . S
C3435 C3432 1.403 . S
C3435 C3436 1.524 . S
C3435 C3439 1.400 . S
C3436 H3421 0.960 . S
C3436 H3422 0.960 . S
C3436 H3423 0.960 . S
C3436 C3435 1.524 . S
C3437 C3434 1.403 . S
C3437 C3438 1.392 . S
C3437 C3441 1.495 . S
C3438 C3437 1.392 . S
C3438 C3439 1.385 . S
C3438 C3440 1.478 . S
C3439 H3433 0.930 . S
C3439 C3435 1.400 . S
C3439 C3438 1.385 . S
C3440 C3438 1.478 . S
C3440 C3442 1.381 . S
C3440 C3446 1.383 . S
C3441 C3437 1.495 . S
C3441 H3447 0.959 . S
C3441 H3448 0.961 . S
C3441 H3449 0.960 . S
C3442 C3440 1.381 . S
C3442 C3443 1.394 . S
C3442 H3450 0.930 . S
C3443 C3442 1.394 . S
C3443 C3444 1.383 . S
C3443 H3451 0.929 . S
C3444 C3443 1.383 . S
C3444 C3445 1.377 . S
C3445 H3429 0.930 . S
C3445 C3444 1.377 . S
C3445 C3446 1.379 . S
C3446 H3430 0.931 . S
C3446 C3440 1.383 . S
C3446 C3445 1.379 . S
H3447 C3441 0.959 . S
H3448 C3441 0.961 . S
H3449 C3441 0.960 . S
H3450 C3442 0.930 . S
H3451 C3443 0.929 . S
H3452 C3460 0.929 . S
H3453 C3462 0.930 . S
H3454 C3464 0.930 . S
H3455 C3467 0.929 . S
H3456 C3470 0.930 . S
H3457 C3472 0.960 . S
H3458 C3472 0.960 . S
H3459 C3472 0.960 . S
C3460 H3452 0.929 . S
C3460 C3461 1.377 . S
C3460 C3462 1.384 . S
C3461 C3460 1.377 . S
C3461 C3467 1.390 . S
C3462 H3453 0.930 . S
C3462 C3460 1.384 . S
C3462 C3463 1.372 . S
C3463 C3462 1.372 . S
C3463 C3464 1.400 . S
C3463 C3468 1.490 . S
C3464 H3454 0.930 . S
C3464 C3463 1.400 . S
C3464 C3467 1.386 . S
H3465 C3481 0.930 . S
H3466 C3482 0.931 . S
C3467 H3455 0.929 . S
C3467 C3461 1.390 . S
C3467 C3464 1.386 . S
C3468 C3463 1.490 . S
C3468 C3470 1.395 . S
C3468 C3471 1.403 . S
H3469 C3475 0.930 . S
C3470 H3456 0.930 . S
C3470 C3468 1.395 . S
C3470 C3473 1.403 . S
C3471 C3468 1.403 . S
C3471 C3472 1.524 . S
C3471 C3475 1.400 . S
C3472 H3457 0.960 . S
C3472 H3458 0.960 . S
C3472 H3459 0.960 . S
C3472 C3471 1.524 . S
C3473 C3470 1.403 . S
C3473 C3474 1.392 . S
C3473 C3477 1.495 . S
C3474 C3473 1.392 . S
C3474 C3475 1.385 . S
C3474 C3476 1.478 . S
C3475 H3469 0.930 . S
C3475 C3471 1.400 . S
C3475 C3474 1.385 . S
C3476 C3474 1.478 . S
C3476 C3478 1.381 . S
C3476 C3482 1.383 1_565 S
C3477 C3473 1.495 . S
C3477 H3483 0.959 . S
C3477 H3484 0.961 . S
C3477 H3485 0.960 . S
C3478 C3476 1.381 . S
C3478 C3479 1.394 1_565 S
C3478 H3486 0.930 . S
C3479 C3478 1.394 1_545 S
C3479 C3480 1.383 . S
C3479 H3487 0.934 . S
C3480 C3479 1.383 . S
C3480 C3481 1.377 . S
C3481 H3465 0.930 . S
C3481 C3480 1.377 . S
C3481 C3482 1.379 . S
C3482 H3466 0.931 . S
C3482 C3476 1.383 1_545 S
C3482 C3481 1.379 . S
H3483 C3477 0.959 . S
H3484 C3477 0.961 . S
H3485 C3477 0.960 . S
H3486 C3478 0.930 . S
H3487 C3479 0.934 . S
H3488 C3496 0.929 . S
H3489 C3498 0.930 . S
H3490 C3500 0.930 . S
H3491 C3503 0.929 . S
H3492 C3506 0.930 . S
H3493 C3508 0.960 . S
H3494 C3508 0.960 . S
H3495 C3508 0.960 . S
C3496 H3488 0.929 . S
C3496 C3497 1.377 . S
C3496 C3498 1.384 . S
C3497 C3496 1.377 . S
C3497 C3503 1.390 . S
C3498 H3489 0.930 . S
C3498 C3496 1.384 . S
C3498 C3499 1.372 . S
C3499 C3498 1.372 . S
C3499 C3500 1.400 . S
C3499 C3504 1.490 . S
C3500 H3490 0.930 . S
C3500 C3499 1.400 . S
C3500 C3503 1.386 . S
H3501 C3517 0.930 . S
H3502 C3518 0.931 . S
C3503 H3491 0.929 . S
C3503 C3497 1.390 . S
C3503 C3500 1.386 . S
C3504 C3499 1.490 . S
C3504 C3506 1.395 . S
C3504 C3507 1.403 . S
H3505 C3511 0.930 . S
C3506 H3492 0.930 . S
C3506 C3504 1.395 . S
C3506 C3509 1.403 . S
C3507 C3504 1.403 . S
C3507 C3508 1.524 . S
C3507 C3511 1.400 . S
C3508 H3493 0.960 . S
C3508 H3494 0.960 . S
C3508 H3495 0.960 . S
C3508 C3507 1.524 . S
C3509 C3506 1.403 . S
C3509 C3510 1.392 . S
C3509 C3513 1.495 . S
C3510 C3509 1.392 . S
C3510 C3511 1.385 . S
C3510 C3512 1.478 . S
C3511 H3505 0.930 . S
C3511 C3507 1.400 . S
C3511 C3510 1.385 . S
C3512 C3510 1.478 . S
C3512 C3514 1.381 . S
C3512 C3518 1.383 . S
C3513 C3509 1.495 . S
C3513 H3519 0.959 . S
C3513 H3520 0.961 . S
C3513 H3521 0.960 . S
C3514 C3512 1.381 . S
C3514 C3515 1.394 . S
C3514 H3522 0.930 . S
C3515 C3514 1.394 . S
C3515 C3516 1.383 . S
C3515 H3523 0.929 . S
C3516 C3515 1.383 . S
C3516 C3517 1.377 . S
C3517 H3501 0.930 . S
C3517 C3516 1.377 . S
C3517 C3518 1.379 . S
C3518 H3502 0.931 . S
C3518 C3512 1.383 . S
C3518 C3517 1.379 . S
H3519 C3513 0.959 . S
H3520 C3513 0.961 . S
H3521 C3513 0.960 . S
H3522 C3514 0.930 . S
H3523 C3515 0.929 . S
H3524 C3532 0.929 . S
H3525 C3534 0.930 . S
H3526 C3536 0.930 . S
H3527 C3539 0.929 . S
H3528 C3542 0.930 . S
H3529 C3544 0.960 . S
H3530 C3544 0.960 . S
H3531 C3544 0.960 . S
C3532 H3524 0.929 . S
C3532 C3533 1.377 . S
C3532 C3534 1.384 . S
C3533 C3532 1.377 . S
C3533 C3539 1.390 . S
C3534 H3525 0.930 . S
C3534 C3532 1.384 . S
C3534 C3535 1.372 . S
C3535 C3534 1.372 . S
C3535 C3536 1.400 . S
C3535 C3540 1.490 . S
C3536 H3526 0.930 . S
C3536 C3535 1.400 . S
C3536 C3539 1.386 . S
H3537 C3553 0.930 . S
H3538 C3554 0.931 . S
C3539 H3527 0.929 . S
C3539 C3533 1.390 . S
C3539 C3536 1.386 . S
C3540 C3535 1.490 . S
C3540 C3542 1.395 . S
C3540 C3543 1.403 . S
H3541 C3547 0.930 . S
C3542 H3528 0.930 . S
C3542 C3540 1.395 . S
C3542 C3545 1.403 . S
C3543 C3540 1.403 . S
C3543 C3544 1.524 . S
C3543 C3547 1.400 . S
C3544 H3529 0.960 . S
C3544 H3530 0.960 . S
C3544 H3531 0.960 . S
C3544 C3543 1.524 . S
C3545 C3542 1.403 . S
C3545 C3546 1.392 . S
C3545 C3549 1.495 . S
C3546 C3545 1.392 . S
C3546 C3547 1.385 . S
C3546 C3548 1.478 . S
C3547 H3541 0.930 . S
C3547 C3543 1.400 . S
C3547 C3546 1.385 . S
C3548 C3546 1.478 . S
C3548 C3550 1.381 . S
C3548 C3554 1.383 . S
C3549 C3545 1.495 . S
C3549 H3555 0.959 . S
C3549 H3556 0.961 . S
C3549 H3557 0.960 . S
C3550 C3548 1.381 . S
C3550 C3551 1.394 . S
C3550 H3558 0.930 . S
C3551 C3550 1.394 . S
C3551 C3552 1.383 . S
C3551 H3559 0.929 . S
C3552 C3551 1.383 . S
C3552 C3553 1.377 . S
C3553 H3537 0.930 . S
C3553 C3552 1.377 . S
C3553 C3554 1.379 . S
C3554 H3538 0.931 . S
C3554 C3548 1.383 . S
C3554 C3553 1.379 . S
H3555 C3549 0.959 . S
H3556 C3549 0.961 . S
H3557 C3549 0.960 . S
H3558 C3550 0.930 . S
H3559 C3551 0.929 . S
H3560 C3568 0.929 . S
H3561 C3570 0.930 . S
H3562 C3572 0.930 . S
H3563 C3575 0.929 . S
H3564 C3578 0.930 . S
H3565 C3580 0.960 . S
H3566 C3580 0.960 . S
H3567 C3580 0.960 . S
C3568 H3560 0.929 . S
C3568 C3569 1.377 . S
C3568 C3570 1.384 . S
C3569 C3568 1.377 . S
C3569 C3575 1.390 . S
C3570 H3561 0.930 . S
C3570 C3568 1.384 . S
C3570 C3571 1.372 . S
C3571 C3570 1.372 . S
C3571 C3572 1.400 . S
C3571 C3576 1.490 . S
C3572 H3562 0.930 . S
C3572 C3571 1.400 . S
C3572 C3575 1.386 . S
H3573 C3589 0.930 . S
H3574 C3590 0.931 . S
C3575 H3563 0.929 . S
C3575 C3569 1.390 . S
C3575 C3572 1.386 . S
C3576 C3571 1.490 . S
C3576 C3578 1.395 . S
C3576 C3579 1.403 . S
H3577 C3583 0.930 . S
C3578 H3564 0.930 . S
C3578 C3576 1.395 . S
C3578 C3581 1.403 . S
C3579 C3576 1.403 . S
C3579 C3580 1.524 . S
C3579 C3583 1.400 . S
C3580 H3565 0.960 . S
C3580 H3566 0.960 . S
C3580 H3567 0.960 . S
C3580 C3579 1.524 . S
C3581 C3578 1.403 . S
C3581 C3582 1.392 . S
C3581 C3585 1.495 . S
C3582 C3581 1.392 . S
C3582 C3583 1.385 . S
C3582 C3584 1.478 . S
C3583 H3577 0.930 . S
C3583 C3579 1.400 . S
C3583 C3582 1.385 . S
C3584 C3582 1.478 . S
C3584 C3586 1.381 . S
C3584 C3590 1.383 . S
C3585 C3581 1.495 . S
C3585 H3591 0.959 . S
C3585 H3592 0.961 . S
C3585 H3593 0.960 . S
C3586 C3584 1.381 . S
C3586 C3587 1.394 . S
C3586 H3594 0.930 . S
C3587 C3586 1.394 . S
C3587 C3588 1.383 . S
C3587 H3595 0.929 . S
C3588 C3587 1.383 . S
C3588 C3589 1.377 . S
C3589 H3573 0.930 . S
C3589 C3588 1.377 . S
C3589 C3590 1.379 . S
C3590 H3574 0.931 . S
C3590 C3584 1.383 . S
C3590 C3589 1.379 . S
H3591 C3585 0.959 . S
H3592 C3585 0.961 . S
H3593 C3585 0.960 . S
H3594 C3586 0.930 . S
H3595 C3587 0.929 . S
H3596 C3604 0.929 . S
H3597 C3606 0.930 . S
H3598 C3608 0.930 . S
H3599 C3611 0.929 . S
H3600 C3614 0.930 . S
H3601 C3616 0.960 . S
H3602 C3616 0.960 . S
H3603 C3616 0.960 . S
C3604 H3596 0.929 . S
C3604 C3605 1.377 . S
C3604 C3606 1.384 . S
C3605 C3604 1.377 . S
C3605 C3611 1.390 . S
C3606 H3597 0.930 . S
C3606 C3604 1.384 . S
C3606 C3607 1.372 . S
C3607 C3606 1.372 . S
C3607 C3608 1.400 . S
C3607 C3612 1.490 . S
C3608 H3598 0.930 . S
C3608 C3607 1.400 . S
C3608 C3611 1.386 . S
H3609 C3625 0.930 . S
H3610 C3626 0.931 . S
C3611 H3599 0.929 . S
C3611 C3605 1.390 . S
C3611 C3608 1.386 . S
C3612 C3607 1.490 . S
C3612 C3614 1.395 . S
C3612 C3615 1.403 . S
H3613 C3619 0.930 . S
C3614 H3600 0.930 . S
C3614 C3612 1.395 . S
C3614 C3617 1.403 . S
C3615 C3612 1.403 . S
C3615 C3616 1.524 . S
C3615 C3619 1.400 . S
C3616 H3601 0.960 . S
C3616 H3602 0.960 . S
C3616 H3603 0.960 . S
C3616 C3615 1.524 . S
C3617 C3614 1.403 . S
C3617 C3618 1.392 . S
C3617 C3621 1.495 . S
C3618 C3617 1.392 . S
C3618 C3619 1.385 . S
C3618 C3620 1.478 . S
C3619 H3613 0.930 . S
C3619 C3615 1.400 . S
C3619 C3618 1.385 . S
C3620 C3618 1.478 . S
C3620 C3622 1.381 . S
C3620 C3626 1.383 . S
C3621 C3617 1.495 . S
C3621 H3627 0.959 . S
C3621 H3628 0.961 . S
C3621 H3629 0.960 . S
C3622 C3620 1.381 . S
C3622 C3623 1.394 . S
C3622 H3630 0.930 . S
C3623 C3622 1.394 . S
C3623 C3624 1.383 . S
C3623 H3631 0.929 . S
C3624 C3623 1.383 . S
C3624 C3625 1.377 . S
C3625 H3609 0.930 . S
C3625 C3624 1.377 . S
C3625 C3626 1.379 . S
C3626 H3610 0.931 . S
C3626 C3620 1.383 . S
C3626 C3625 1.379 . S
H3627 C3621 0.959 . S
H3628 C3621 0.961 . S
H3629 C3621 0.960 . S
H3630 C3622 0.930 . S
H3631 C3623 0.929 . S
H3632 C3640 0.929 . S
H3633 C3642 0.930 . S
H3634 C3644 0.930 . S
H3635 C3647 0.929 . S
H3636 C3650 0.930 . S
H3637 C3652 0.960 . S
H3638 C3652 0.960 . S
H3639 C3652 0.960 . S
C3640 H3632 0.929 . S
C3640 C3641 1.377 . S
C3640 C3642 1.384 . S
C3641 C3640 1.377 . S
C3641 C3647 1.390 . S
C3642 H3633 0.930 . S
C3642 C3640 1.384 . S
C3642 C3643 1.372 . S
C3643 C3642 1.372 . S
C3643 C3644 1.400 . S
C3643 C3648 1.490 . S
C3644 H3634 0.930 . S
C3644 C3643 1.400 . S
C3644 C3647 1.386 . S
H3645 C3661 0.930 . S
H3646 C3662 0.931 . S
C3647 H3635 0.929 . S
C3647 C3641 1.390 . S
C3647 C3644 1.386 . S
C3648 C3643 1.490 . S
C3648 C3650 1.395 . S
C3648 C3651 1.403 . S
H3649 C3655 0.930 . S
C3650 H3636 0.930 . S
C3650 C3648 1.395 . S
C3650 C3653 1.403 . S
C3651 C3648 1.403 . S
C3651 C3652 1.524 . S
C3651 C3655 1.400 . S
C3652 H3637 0.960 . S
C3652 H3638 0.960 . S
C3652 H3639 0.960 . S
C3652 C3651 1.524 . S
C3653 C3650 1.403 . S
C3653 C3654 1.392 . S
C3653 C3657 1.495 . S
C3654 C3653 1.392 . S
C3654 C3655 1.385 . S
C3654 C3656 1.478 . S
C3655 H3649 0.930 . S
C3655 C3651 1.400 . S
C3655 C3654 1.385 . S
C3656 C3654 1.478 . S
C3656 C3658 1.381 . S
C3656 C3662 1.383 . S
C3657 C3653 1.495 . S
C3657 H3663 0.959 . S
C3657 H3664 0.961 . S
C3657 H3665 0.960 . S
C3658 C3656 1.381 . S
C3658 C3659 1.394 . S
C3658 H3666 0.930 . S
C3659 C3658 1.394 . S
C3659 C3660 1.383 . S
C3659 H3667 0.929 . S
C3660 C3659 1.383 . S
C3660 C3661 1.377 . S
C3661 H3645 0.930 . S
C3661 C3660 1.377 . S
C3661 C3662 1.379 . S
C3662 H3646 0.931 . S
C3662 C3656 1.383 . S
C3662 C3661 1.379 . S
H3663 C3657 0.959 . S
H3664 C3657 0.961 . S
H3665 C3657 0.960 . S
H3666 C3658 0.930 . S
H3667 C3659 0.929 . S
H3668 C3676 0.929 . S
H3669 C3678 0.930 . S
H3670 C3680 0.930 . S
H3671 C3683 0.929 . S
H3672 C3686 0.930 . S
H3673 C3688 0.960 . S
H3674 C3688 0.960 . S
H3675 C3688 0.960 . S
C3676 H3668 0.929 . S
C3676 C3677 1.377 . S
C3676 C3678 1.384 . S
C3677 C3676 1.377 . S
C3677 C3683 1.390 . S
C3678 H3669 0.930 . S
C3678 C3676 1.384 . S
C3678 C3679 1.372 . S
C3679 C3678 1.372 . S
C3679 C3680 1.400 . S
C3679 C3684 1.490 . S
C3680 H3670 0.930 . S
C3680 C3679 1.400 . S
C3680 C3683 1.386 . S
H3681 C3697 0.930 . S
H3682 C3698 0.931 . S
C3683 H3671 0.929 . S
C3683 C3677 1.390 . S
C3683 C3680 1.386 . S
C3684 C3679 1.490 . S
C3684 C3686 1.395 . S
C3684 C3687 1.403 . S
H3685 C3691 0.930 . S
C3686 H3672 0.930 . S
C3686 C3684 1.395 . S
C3686 C3689 1.403 . S
C3687 C3684 1.403 . S
C3687 C3688 1.524 . S
C3687 C3691 1.400 . S
C3688 H3673 0.960 . S
C3688 H3674 0.960 . S
C3688 H3675 0.960 . S
C3688 C3687 1.524 . S
C3689 C3686 1.403 . S
C3689 C3690 1.392 . S
C3689 C3693 1.495 . S
C3690 C3689 1.392 . S
C3690 C3691 1.385 . S
C3690 C3692 1.478 . S
C3691 H3685 0.930 . S
C3691 C3687 1.400 . S
C3691 C3690 1.385 . S
C3692 C3690 1.478 . S
C3692 C3694 1.381 . S
C3692 C3698 1.383 . S
C3693 C3689 1.495 . S
C3693 H3699 0.959 . S
C3693 H3700 0.961 . S
C3693 H3701 0.960 . S
C3694 C3692 1.381 . S
C3694 C3695 1.394 . S
C3694 H3702 0.930 . S
C3695 C3694 1.394 . S
C3695 C3696 1.383 . S
C3695 H3703 0.929 . S
C3696 C3695 1.383 . S
C3696 C3697 1.377 . S
C3697 H3681 0.930 . S
C3697 C3696 1.377 . S
C3697 C3698 1.379 . S
C3698 H3682 0.931 . S
C3698 C3692 1.383 . S
C3698 C3697 1.379 . S
H3699 C3693 0.959 . S
H3700 C3693 0.961 . S
H3701 C3693 0.960 . S
H3702 C3694 0.930 . S
H3703 C3695 0.929 . S
H3704 C3712 0.929 . S
H3705 C3714 0.930 . S
H3706 C3716 0.930 . S
H3707 C3719 0.929 . S
H3708 C3722 0.930 . S
H3709 C3724 0.960 . S
H3710 C3724 0.960 . S
H3711 C3724 0.960 . S
C3712 H3704 0.929 . S
C3712 C3713 1.377 . S
C3712 C3714 1.384 . S
C3713 C3712 1.377 . S
C3713 C3719 1.390 . S
C3714 H3705 0.930 . S
C3714 C3712 1.384 . S
C3714 C3715 1.372 . S
C3715 C3714 1.372 . S
C3715 C3716 1.400 . S
C3715 C3720 1.490 . S
C3716 H3706 0.930 . S
C3716 C3715 1.400 . S
C3716 C3719 1.386 . S
H3717 C3733 0.930 . S
H3718 C3734 0.931 . S
C3719 H3707 0.929 . S
C3719 C3713 1.390 . S
C3719 C3716 1.386 . S
C3720 C3715 1.490 . S
C3720 C3722 1.395 . S
C3720 C3723 1.403 . S
H3721 C3727 0.930 . S
C3722 H3708 0.930 . S
C3722 C3720 1.395 . S
C3722 C3725 1.403 . S
C3723 C3720 1.403 . S
C3723 C3724 1.524 . S
C3723 C3727 1.400 . S
C3724 H3709 0.960 . S
C3724 H3710 0.960 . S
C3724 H3711 0.960 . S
C3724 C3723 1.524 . S
C3725 C3722 1.403 . S
C3725 C3726 1.392 . S
C3725 C3729 1.495 . S
C3726 C3725 1.392 . S
C3726 C3727 1.385 . S
C3726 C3728 1.478 . S
C3727 H3721 0.930 . S
C3727 C3723 1.400 . S
C3727 C3726 1.385 . S
C3728 C3726 1.478 . S
C3728 C3730 1.381 . S
C3728 C3734 1.383 . S
C3729 C3725 1.495 . S
C3729 H3735 0.959 . S
C3729 H3736 0.961 . S
C3729 H3737 0.960 . S
C3730 C3728 1.381 . S
C3730 C3731 1.394 . S
C3730 H3738 0.930 . S
C3731 C3730 1.394 . S
C3731 C3732 1.383 . S
C3731 H3739 0.975 . S
C3732 C3731 1.383 . S
C3732 C3733 1.377 . S
C3733 H3717 0.930 . S
C3733 C3732 1.377 . S
C3733 C3734 1.379 . S
C3734 H3718 0.931 . S
C3734 C3728 1.383 . S
C3734 C3733 1.379 . S
H3735 C3729 0.959 . S
H3736 C3729 0.961 . S
H3737 C3729 0.960 . S
H3738 C3730 0.930 . S
H3739 C3731 0.975 . S
H3740 C3748 0.929 . S
H3741 C3750 0.930 . S
H3742 C3752 0.930 . S
H3743 C3755 0.929 . S
H3744 C3758 0.930 . S
H3745 C3760 0.960 . S
H3746 C3760 0.960 . S
H3747 C3760 0.960 . S
C3748 H3740 0.929 . S
C3748 C3749 1.377 . S
C3748 C3750 1.384 . S
C3749 C3748 1.377 . S
C3749 C3755 1.390 . S
C3750 H3741 0.930 . S
C3750 C3748 1.384 . S
C3750 C3751 1.372 . S
C3751 C3750 1.372 . S
C3751 C3752 1.400 . S
C3751 C3756 1.490 . S
C3752 H3742 0.930 . S
C3752 C3751 1.400 . S
C3752 C3755 1.386 . S
H3753 C3769 0.930 . S
H3754 C3770 0.931 . S
C3755 H3743 0.929 . S
C3755 C3749 1.390 . S
C3755 C3752 1.386 . S
C3756 C3751 1.490 . S
C3756 C3758 1.395 . S
C3756 C3759 1.403 . S
H3757 C3763 0.930 . S
C3758 H3744 0.930 . S
C3758 C3756 1.395 . S
C3758 C3761 1.403 . S
C3759 C3756 1.403 . S
C3759 C3760 1.524 . S
C3759 C3763 1.400 . S
C3760 H3745 0.960 . S
C3760 H3746 0.960 . S
C3760 H3747 0.960 . S
C3760 C3759 1.524 . S
C3761 C3758 1.403 . S
C3761 C3762 1.392 . S
C3761 C3765 1.495 . S
C3762 C3761 1.392 . S
C3762 C3763 1.385 . S
C3762 C3764 1.478 . S
C3763 H3757 0.930 . S
C3763 C3759 1.400 . S
C3763 C3762 1.385 . S
C3764 C3762 1.478 . S
C3764 C3766 1.381 . S
C3764 C3770 1.383 . S
C3765 C3761 1.495 . S
C3765 H3771 0.959 . S
C3765 H3772 0.961 . S
C3765 H3773 0.960 . S
C3766 C3764 1.381 . S
C3766 C3767 1.394 . S
C3766 H3774 0.930 . S
C3767 C3766 1.394 . S
C3767 C3768 1.383 . S
C3767 H3775 0.929 1_556 S
C3768 C3767 1.383 . S
C3768 C3769 1.377 . S
C3769 H3753 0.930 . S
C3769 C3768 1.377 . S
C3769 C3770 1.379 . S
C3770 H3754 0.931 . S
C3770 C3764 1.383 . S
C3770 C3769 1.379 . S
H3771 C3765 0.959 . S
H3772 C3765 0.961 . S
H3773 C3765 0.960 . S
H3774 C3766 0.930 . S
H3775 C3767 0.929 1_554 S
H3776 C3784 0.929 . S
H3777 C3786 0.930 . S
H3778 C3788 0.930 . S
H3779 C3791 0.929 . S
H3780 C3794 0.930 . S
H3781 C3796 0.960 . S
H3782 C3796 0.960 . S
H3783 C3796 0.960 . S
C3784 H3776 0.929 . S
C3784 C3785 1.377 . S
C3784 C3786 1.384 . S
C3785 C3784 1.377 . S
C3785 C3791 1.390 . S
C3786 H3777 0.930 . S
C3786 C3784 1.384 . S
C3786 C3787 1.372 . S
C3787 C3786 1.372 . S
C3787 C3788 1.400 . S
C3787 C3792 1.490 . S
C3788 H3778 0.930 . S
C3788 C3787 1.400 . S
C3788 C3791 1.386 . S
H3789 C3805 0.930 . S
H3790 C3806 0.931 . S
C3791 H3779 0.929 . S
C3791 C3785 1.390 . S
C3791 C3788 1.386 . S
C3792 C3787 1.490 . S
C3792 C3794 1.395 . S
C3792 C3795 1.403 . S
H3793 C3799 0.930 . S
C3794 H3780 0.930 . S
C3794 C3792 1.395 . S
C3794 C3797 1.403 . S
C3795 C3792 1.403 . S
C3795 C3796 1.524 . S
C3795 C3799 1.400 . S
C3796 H3781 0.960 . S
C3796 H3782 0.960 . S
C3796 H3783 0.960 . S
C3796 C3795 1.524 . S
C3797 C3794 1.403 . S
C3797 C3798 1.392 . S
C3797 C3801 1.495 . S
C3798 C3797 1.392 . S
C3798 C3799 1.385 . S
C3798 C3800 1.478 . S
C3799 H3793 0.930 . S
C3799 C3795 1.400 . S
C3799 C3798 1.385 . S
C3800 C3798 1.478 . S
C3800 C3802 1.381 . S
C3800 C3806 1.383 . S
C3801 C3797 1.495 . S
C3801 H3807 0.959 . S
C3801 H3808 0.961 . S
C3801 H3809 0.960 . S
C3802 C3800 1.381 . S
C3802 C3803 1.394 . S
C3802 H3810 0.930 . S
C3803 C3802 1.394 . S
C3803 C3804 1.383 . S
C3803 H3811 0.929 . S
C3804 C3803 1.383 . S
C3804 C3805 1.377 . S
C3805 H3789 0.930 . S
C3805 C3804 1.377 . S
C3805 C3806 1.379 . S
C3806 H3790 0.931 . S
C3806 C3800 1.383 . S
C3806 C3805 1.379 . S
H3807 C3801 0.959 . S
H3808 C3801 0.961 . S
H3809 C3801 0.960 . S
H3810 C3802 0.930 . S
H3811 C3803 0.929 . S
H3812 C3820 0.929 . S
H3813 C3822 0.930 . S
H3814 C3824 0.930 . S
H3815 C3827 0.929 . S
H3816 C3830 0.930 . S
H3817 C3832 0.960 . S
H3818 C3832 0.960 . S
H3819 C3832 0.960 . S
C3820 H3812 0.929 . S
C3820 C3821 1.377 . S
C3820 C3822 1.384 . S
C3821 C3820 1.377 . S
C3821 C3827 1.390 . S
C3822 H3813 0.930 . S
C3822 C3820 1.384 . S
C3822 C3823 1.372 . S
C3823 C3822 1.372 . S
C3823 C3824 1.400 . S
C3823 C3828 1.490 . S
C3824 H3814 0.930 . S
C3824 C3823 1.400 . S
C3824 C3827 1.386 . S
H3825 C3841 0.930 . S
H3826 C3842 0.931 . S
C3827 H3815 0.929 . S
C3827 C3821 1.390 . S
C3827 C3824 1.386 . S
C3828 C3823 1.490 . S
C3828 C3830 1.395 . S
C3828 C3831 1.403 . S
H3829 C3835 0.930 . S
C3830 H3816 0.930 . S
C3830 C3828 1.395 . S
C3830 C3833 1.403 . S
C3831 C3828 1.403 . S
C3831 C3832 1.524 . S
C3831 C3835 1.400 . S
C3832 H3817 0.960 . S
C3832 H3818 0.960 . S
C3832 H3819 0.960 . S
C3832 C3831 1.524 . S
C3833 C3830 1.403 . S
C3833 C3834 1.392 . S
C3833 C3837 1.495 . S
C3834 C3833 1.392 . S
C3834 C3835 1.385 . S
C3834 C3836 1.478 . S
C3835 H3829 0.930 . S
C3835 C3831 1.400 . S
C3835 C3834 1.385 . S
C3836 C3834 1.478 . S
C3836 C3838 1.381 . S
C3836 C3842 1.383 . S
C3837 C3833 1.495 . S
C3837 H3843 0.959 . S
C3837 H3844 0.961 . S
C3837 H3845 0.960 . S
C3838 C3836 1.381 . S
C3838 C3839 1.394 . S
C3838 H3846 0.930 . S
C3839 C3838 1.394 . S
C3839 C3840 1.383 . S
C3839 H3847 0.929 . S
C3840 C3839 1.383 . S
C3840 C3841 1.377 . S
C3841 H3825 0.930 . S
C3841 C3840 1.377 . S
C3841 C3842 1.379 . S
C3842 H3826 0.931 . S
C3842 C3836 1.383 . S
C3842 C3841 1.379 . S
H3843 C3837 0.959 . S
H3844 C3837 0.961 . S
H3845 C3837 0.960 . S
H3846 C3838 0.930 . S
H3847 C3839 0.929 . S
H3848 C3856 0.929 . S
H3849 C3858 0.930 . S
H3850 C3860 0.930 . S
H3851 C3863 0.929 . S
H3852 C3866 0.930 . S
H3853 C3868 0.960 . S
H3854 C3868 0.960 . S
H3855 C3868 0.960 . S
C3856 H3848 0.929 . S
C3856 C3857 1.377 . S
C3856 C3858 1.384 . S
C3857 C3856 1.377 . S
C3857 C3863 1.390 . S
C3858 H3849 0.930 . S
C3858 C3856 1.384 . S
C3858 C3859 1.372 . S
C3859 C3858 1.372 . S
C3859 C3860 1.400 . S
C3859 C3864 1.490 . S
C3860 H3850 0.930 . S
C3860 C3859 1.400 . S
C3860 C3863 1.386 . S
H3861 C3877 0.930 . S
H3862 C3878 0.931 . S
C3863 H3851 0.929 . S
C3863 C3857 1.390 . S
C3863 C3860 1.386 . S
C3864 C3859 1.490 . S
C3864 C3866 1.395 . S
C3864 C3867 1.403 . S
H3865 C3871 0.930 . S
C3866 H3852 0.930 . S
C3866 C3864 1.395 . S
C3866 C3869 1.403 . S
C3867 C3864 1.403 . S
C3867 C3868 1.524 . S
C3867 C3871 1.400 . S
C3868 H3853 0.960 . S
C3868 H3854 0.960 . S
C3868 H3855 0.960 . S
C3868 C3867 1.524 . S
C3869 C3866 1.403 . S
C3869 C3870 1.392 . S
C3869 C3873 1.495 . S
C3870 C3869 1.392 . S
C3870 C3871 1.385 . S
C3870 C3872 1.478 . S
C3871 H3865 0.930 . S
C3871 C3867 1.400 . S
C3871 C3870 1.385 . S
C3872 C3870 1.478 . S
C3872 C3874 1.381 . S
C3872 C3878 1.383 . S
C3873 C3869 1.495 . S
C3873 H3879 0.959 . S
C3873 H3880 0.961 . S
C3873 H3881 0.960 . S
C3874 C3872 1.381 . S
C3874 C3875 1.394 . S
C3874 H3882 0.930 . S
C3875 C3874 1.394 . S
C3875 C3876 1.383 . S
C3875 H3883 0.929 . S
C3876 C3875 1.383 . S
C3876 C3877 1.377 . S
C3877 H3861 0.930 . S
C3877 C3876 1.377 . S
C3877 C3878 1.379 . S
C3878 H3862 0.931 . S
C3878 C3872 1.383 . S
C3878 C3877 1.379 . S
H3879 C3873 0.959 . S
H3880 C3873 0.961 . S
H3881 C3873 0.960 . S
H3882 C3874 0.930 . S
H3883 C3875 0.929 . S
H3884 C3892 0.929 . S
H3885 C3894 0.930 . S
H3886 C3896 0.930 . S
H3887 C3899 0.929 . S
H3888 C3902 0.930 . S
H3889 C3904 0.960 . S
H3890 C3904 0.960 . S
H3891 C3904 0.960 . S
C3892 H3884 0.929 . S
C3892 C3893 1.377 . S
C3892 C3894 1.384 . S
C3893 C3892 1.377 . S
C3893 C3899 1.390 . S
C3894 H3885 0.930 . S
C3894 C3892 1.384 . S
C3894 C3895 1.372 . S
C3895 C3894 1.372 . S
C3895 C3896 1.400 . S
C3895 C3900 1.490 . S
C3896 H3886 0.930 . S
C3896 C3895 1.400 . S
C3896 C3899 1.386 . S
H3897 C3913 0.930 . S
H3898 C3914 0.931 . S
C3899 H3887 0.929 . S
C3899 C3893 1.390 . S
C3899 C3896 1.386 . S
C3900 C3895 1.490 . S
C3900 C3902 1.395 . S
C3900 C3903 1.403 . S
H3901 C3907 0.930 . S
C3902 H3888 0.930 . S
C3902 C3900 1.395 . S
C3902 C3905 1.403 . S
C3903 C3900 1.403 . S
C3903 C3904 1.524 . S
C3903 C3907 1.400 . S
C3904 H3889 0.960 . S
C3904 H3890 0.960 . S
C3904 H3891 0.960 . S
C3904 C3903 1.524 . S
C3905 C3902 1.403 . S
C3905 C3906 1.392 . S
C3905 C3909 1.495 . S
C3906 C3905 1.392 . S
C3906 C3907 1.385 . S
C3906 C3908 1.478 . S
C3907 H3901 0.930 . S
C3907 C3903 1.400 . S
C3907 C3906 1.385 . S
C3908 C3906 1.478 . S
C3908 C3910 1.381 . S
C3908 C3914 1.383 . S
C3909 C3905 1.495 . S
C3909 H3915 0.959 . S
C3909 H3916 0.961 . S
C3909 H3917 0.960 . S
C3910 C3908 1.381 . S
C3910 C3911 1.394 . S
C3910 H3918 0.930 . S
C3911 C3910 1.394 . S
C3911 C3912 1.383 . S
C3911 H3919 0.929 . S
C3912 C3911 1.383 . S
C3912 C3913 1.377 . S
C3913 H3897 0.930 . S
C3913 C3912 1.377 . S
C3913 C3914 1.379 . S
C3914 H3898 0.931 . S
C3914 C3908 1.383 . S
C3914 C3913 1.379 . S
H3915 C3909 0.959 . S
H3916 C3909 0.961 . S
H3917 C3909 0.960 . S
H3918 C3910 0.930 . S
H3919 C3911 0.929 . S
H3920 C3928 0.929 . S
H3921 C3930 0.930 . S
H3922 C3932 0.930 . S
H3923 C3935 0.929 . S
H3924 C3938 0.930 . S
H3925 C3940 0.960 . S
H3926 C3940 0.960 . S
H3927 C3940 0.960 . S
C3928 H3920 0.929 . S
C3928 C3929 1.377 . S
C3928 C3930 1.384 . S
C3929 C3928 1.377 . S
C3929 C3935 1.390 . S
C3930 H3921 0.930 . S
C3930 C3928 1.384 . S
C3930 C3931 1.372 . S
C3931 C3930 1.372 . S
C3931 C3932 1.400 . S
C3931 C3936 1.490 . S
C3932 H3922 0.930 . S
C3932 C3931 1.400 . S
C3932 C3935 1.386 . S
H3933 C3949 0.930 . S
H3934 C3950 0.931 . S
C3935 H3923 0.929 . S
C3935 C3929 1.390 . S
C3935 C3932 1.386 . S
C3936 C3931 1.490 . S
C3936 C3938 1.395 . S
C3936 C3939 1.403 . S
H3937 C3943 0.930 . S
C3938 H3924 0.930 . S
C3938 C3936 1.395 . S
C3938 C3941 1.403 . S
C3939 C3936 1.403 . S
C3939 C3940 1.524 . S
C3939 C3943 1.400 . S
C3940 H3925 0.960 . S
C3940 H3926 0.960 . S
C3940 H3927 0.960 . S
C3940 C3939 1.524 . S
C3941 C3938 1.403 . S
C3941 C3942 1.392 . S
C3941 C3945 1.495 . S
C3942 C3941 1.392 . S
C3942 C3943 1.385 . S
C3942 C3944 1.478 . S
C3943 H3937 0.930 . S
C3943 C3939 1.400 . S
C3943 C3942 1.385 . S
C3944 C3942 1.478 . S
C3944 C3946 1.381 . S
C3944 C3950 1.383 . S
C3945 C3941 1.495 . S
C3945 H3951 0.959 . S
C3945 H3952 0.961 . S
C3945 H3953 0.960 . S
C3946 C3944 1.381 . S
C3946 C3947 1.394 . S
C3946 H3954 0.930 . S
C3947 C3946 1.394 . S
C3947 C3948 1.383 . S
C3947 H3955 0.929 . S
C3948 C3947 1.383 . S
C3948 C3949 1.377 . S
C3949 H3933 0.930 . S
C3949 C3948 1.377 . S
C3949 C3950 1.379 . S
C3950 H3934 0.931 . S
C3950 C3944 1.383 . S
C3950 C3949 1.379 . S
H3951 C3945 0.959 . S
H3952 C3945 0.961 . S
H3953 C3945 0.960 . S
H3954 C3946 0.930 . S
H3955 C3947 0.929 . S
H3956 C3964 0.929 . S
H3957 C3966 0.930 . S
H3958 C3968 0.930 . S
H3959 C3971 0.929 . S
H3960 C3974 0.930 . S
H3961 C3976 0.960 . S
H3962 C3976 0.960 . S
H3963 C3976 0.960 . S
C3964 H3956 0.929 . S
C3964 C3965 1.377 . S
C3964 C3966 1.384 . S
C3965 C3964 1.377 . S
C3965 C3971 1.390 . S
C3966 H3957 0.930 . S
C3966 C3964 1.384 . S
C3966 C3967 1.372 . S
C3967 C3966 1.372 . S
C3967 C3968 1.400 . S
C3967 C3972 1.490 . S
C3968 H3958 0.930 . S
C3968 C3967 1.400 . S
C3968 C3971 1.386 . S
H3969 C3985 0.930 . S
H3970 C3986 0.931 . S
C3971 H3959 0.929 . S
C3971 C3965 1.390 . S
C3971 C3968 1.386 . S
C3972 C3967 1.490 . S
C3972 C3974 1.395 . S
C3972 C3975 1.403 . S
H3973 C3979 0.930 . S
C3974 H3960 0.930 . S
C3974 C3972 1.395 . S
C3974 C3977 1.403 . S
C3975 C3972 1.403 . S
C3975 C3976 1.524 . S
C3975 C3979 1.400 . S
C3976 H3961 0.960 . S
C3976 H3962 0.960 . S
C3976 H3963 0.960 . S
C3976 C3975 1.524 . S
C3977 C3974 1.403 . S
C3977 C3978 1.392 . S
C3977 C3981 1.495 . S
C3978 C3977 1.392 . S
C3978 C3979 1.385 . S
C3978 C3980 1.478 . S
C3979 H3973 0.930 . S
C3979 C3975 1.400 . S
C3979 C3978 1.385 . S
C3980 C3978 1.478 . S
C3980 C3982 1.381 . S
C3980 C3986 1.383 . S
C3981 C3977 1.495 . S
C3981 H3987 0.959 . S
C3981 H3988 0.961 . S
C3981 H3989 0.960 . S
C3982 C3980 1.381 . S
C3982 C3983 1.394 . S
C3982 H3990 0.930 . S
C3983 C3982 1.394 . S
C3983 C3984 1.383 . S
C3983 H3991 0.929 . S
C3984 C3983 1.383 . S
C3984 C3985 1.377 . S
C3985 H3969 0.930 . S
C3985 C3984 1.377 . S
C3985 C3986 1.379 . S
C3986 H3970 0.931 . S
C3986 C3980 1.383 . S
C3986 C3985 1.379 . S
H3987 C3981 0.959 . S
H3988 C3981 0.961 . S
H3989 C3981 0.960 . S
H3990 C3982 0.930 . S
H3991 C3983 0.929 . S
H3992 C4000 0.929 . S
H3993 C4002 0.930 . S
H3994 C4004 0.930 . S
H3995 C4007 0.929 . S
H3996 C4010 0.930 . S
H3997 C4012 0.960 . S
H3998 C4012 0.960 . S
H3999 C4012 0.960 . S
C4000 H3992 0.929 . S
C4000 C4001 1.377 . S
C4000 C4002 1.384 . S
C4001 C4000 1.377 . S
C4001 C4007 1.390 . S
C4002 H3993 0.930 . S
C4002 C4000 1.384 . S
C4002 C4003 1.372 . S
C4003 C4002 1.372 . S
C4003 C4004 1.400 . S
C4003 C4008 1.490 . S
C4004 H3994 0.930 . S
C4004 C4003 1.400 . S
C4004 C4007 1.386 . S
H4005 C4021 0.930 . S
H4006 C4022 0.931 . S
C4007 H3995 0.929 . S
C4007 C4001 1.390 . S
C4007 C4004 1.386 . S
C4008 C4003 1.490 . S
C4008 C4010 1.395 . S
C4008 C4011 1.403 . S
H4009 C4015 0.930 . S
C4010 H3996 0.930 . S
C4010 C4008 1.395 . S
C4010 C4013 1.403 . S
C4011 C4008 1.403 . S
C4011 C4012 1.524 . S
C4011 C4015 1.400 . S
C4012 H3997 0.960 . S
C4012 H3998 0.960 . S
C4012 H3999 0.960 . S
C4012 C4011 1.524 . S
C4013 C4010 1.403 . S
C4013 C4014 1.392 . S
C4013 C4017 1.495 . S
C4014 C4013 1.392 . S
C4014 C4015 1.385 . S
C4014 C4016 1.478 . S
C4015 H4009 0.930 . S
C4015 C4011 1.400 . S
C4015 C4014 1.385 . S
C4016 C4014 1.478 . S
C4016 C4018 1.381 . S
C4016 C4022 1.383 . S
C4017 C4013 1.495 . S
C4017 H4023 0.959 . S
C4017 H4024 0.961 . S
C4017 H4025 0.960 . S
C4018 C4016 1.381 . S
C4018 C4019 1.394 . S
C4018 H4026 0.930 . S
C4019 C4018 1.394 . S
C4019 C4020 1.383 . S
C4019 H4027 0.929 . S
C4020 C4019 1.383 . S
C4020 C4021 1.377 . S
C4021 H4005 0.930 . S
C4021 C4020 1.377 . S
C4021 C4022 1.379 . S
C4022 H4006 0.931 . S
C4022 C4016 1.383 . S
C4022 C4021 1.379 . S
H4023 C4017 0.959 . S
H4024 C4017 0.961 . S
H4025 C4017 0.960 . S
H4026 C4018 0.930 . S
H4027 C4019 0.929 . S
H4028 C4036 0.929 . S
H4029 C4038 0.930 . S
H4030 C4040 0.930 . S
H4031 C4043 0.929 . S
H4032 C4046 0.930 . S
H4033 C4048 0.960 . S
H4034 C4048 0.960 . S
H4035 C4048 0.960 . S
C4036 H4028 0.929 . S
C4036 C4037 1.377 . S
C4036 C4038 1.384 . S
C4037 C4036 1.377 . S
C4037 C4043 1.390 . S
C4038 H4029 0.930 . S
C4038 C4036 1.384 . S
C4038 C4039 1.372 . S
C4039 C4038 1.372 . S
C4039 C4040 1.400 . S
C4039 C4044 1.490 . S
C4040 H4030 0.930 . S
C4040 C4039 1.400 . S
C4040 C4043 1.386 . S
H4041 C4057 0.930 . S
H4042 C4058 0.931 . S
C4043 H4031 0.929 . S
C4043 C4037 1.390 . S
C4043 C4040 1.386 . S
C4044 C4039 1.490 . S
C4044 C4046 1.395 . S
C4044 C4047 1.403 . S
H4045 C4051 0.930 . S
C4046 H4032 0.930 . S
C4046 C4044 1.395 . S
C4046 C4049 1.403 . S
C4047 C4044 1.403 . S
C4047 C4048 1.524 . S
C4047 C4051 1.400 . S
C4048 H4033 0.960 . S
C4048 H4034 0.960 . S
C4048 H4035 0.960 . S
C4048 C4047 1.524 . S
C4049 C4046 1.403 . S
C4049 C4050 1.392 . S
C4049 C4053 1.495 . S
C4050 C4049 1.392 . S
C4050 C4051 1.385 . S
C4050 C4052 1.478 . S
C4051 H4045 0.930 . S
C4051 C4047 1.400 . S
C4051 C4050 1.385 . S
C4052 C4050 1.478 . S
C4052 C4054 1.381 . S
C4052 C4058 1.383 . S
C4053 C4049 1.495 . S
C4053 H4059 0.959 . S
C4053 H4060 0.961 . S
C4053 H4061 0.960 . S
C4054 C4052 1.381 . S
C4054 C4055 1.394 . S
C4054 H4062 0.930 . S
C4055 C4054 1.394 . S
C4055 C4056 1.383 . S
C4055 H4063 0.929 . S
C4056 C4055 1.383 . S
C4056 C4057 1.377 . S
C4057 H4041 0.930 . S
C4057 C4056 1.377 . S
C4057 C4058 1.379 . S
C4058 H4042 0.931 . S
C4058 C4052 1.383 . S
C4058 C4057 1.379 . S
H4059 C4053 0.959 . S
H4060 C4053 0.961 . S
H4061 C4053 0.960 . S
H4062 C4054 0.930 . S
H4063 C4055 0.929 . S
H4064 C4072 0.929 . S
H4065 C4074 0.930 . S
H4066 C4076 0.930 . S
H4067 C4079 0.929 . S
H4068 C4082 0.930 . S
H4069 C4084 0.960 . S
H4070 C4084 0.960 . S
H4071 C4084 0.960 . S
C4072 H4064 0.929 . S
C4072 C4073 1.377 . S
C4072 C4074 1.384 . S
C4073 C4072 1.377 . S
C4073 C4079 1.390 . S
C4074 H4065 0.930 . S
C4074 C4072 1.384 . S
C4074 C4075 1.372 . S
C4075 C4074 1.372 . S
C4075 C4076 1.400 . S
C4075 C4080 1.490 . S
C4076 H4066 0.930 . S
C4076 C4075 1.400 . S
C4076 C4079 1.386 . S
H4077 C4093 0.930 . S
H4078 C4094 0.931 . S
C4079 H4067 0.929 . S
C4079 C4073 1.390 . S
C4079 C4076 1.386 . S
C4080 C4075 1.490 . S
C4080 C4082 1.395 . S
C4080 C4083 1.403 . S
H4081 C4087 0.930 . S
C4082 H4068 0.930 . S
C4082 C4080 1.395 . S
C4082 C4085 1.403 . S
C4083 C4080 1.403 . S
C4083 C4084 1.524 . S
C4083 C4087 1.400 . S
C4084 H4069 0.960 . S
C4084 H4070 0.960 . S
C4084 H4071 0.960 . S
C4084 C4083 1.524 . S
C4085 C4082 1.403 . S
C4085 C4086 1.392 . S
C4085 C4089 1.495 . S
C4086 C4085 1.392 . S
C4086 C4087 1.385 . S
C4086 C4088 1.478 . S
C4087 H4081 0.930 . S
C4087 C4083 1.400 . S
C4087 C4086 1.385 . S
C4088 C4086 1.478 . S
C4088 C4090 1.381 . S
C4088 C4094 1.383 . S
C4089 C4085 1.495 . S
C4089 H4095 0.959 . S
C4089 H4096 0.961 . S
C4089 H4097 0.960 . S
C4090 C4088 1.381 . S
C4090 C4091 1.394 . S
C4090 H4098 0.930 . S
C4091 C4090 1.394 . S
C4091 C4092 1.383 . S
C4091 H4099 0.929 . S
C4092 C4091 1.383 . S
C4092 C4093 1.377 . S
C4093 H4077 0.930 . S
C4093 C4092 1.377 . S
C4093 C4094 1.379 . S
C4094 H4078 0.931 . S
C4094 C4088 1.383 . S
C4094 C4093 1.379 . S
H4095 C4089 0.959 . S
H4096 C4089 0.961 . S
H4097 C4089 0.960 . S
H4098 C4090 0.930 . S
H4099 C4091 0.929 . S
H4100 C4108 0.929 . S
H4101 C4110 0.930 . S
H4102 C4112 0.930 . S
H4103 C4115 0.929 . S
H4104 C4118 0.930 . S
H4105 C4120 0.960 . S
H4106 C4120 0.960 . S
H4107 C4120 0.960 . S
C4108 H4100 0.929 . S
C4108 C4109 1.377 . S
C4108 C4110 1.384 . S
C4109 C4108 1.377 . S
C4109 C4115 1.390 . S
C4110 H4101 0.930 . S
C4110 C4108 1.384 . S
C4110 C4111 1.372 . S
C4111 C4110 1.372 . S
C4111 C4112 1.400 . S
C4111 C4116 1.490 . S
C4112 H4102 0.930 . S
C4112 C4111 1.400 . S
C4112 C4115 1.386 . S
H4113 C4129 0.930 . S
H4114 C4130 0.931 . S
C4115 H4103 0.929 . S
C4115 C4109 1.390 . S
C4115 C4112 1.386 . S
C4116 C4111 1.490 . S
C4116 C4118 1.395 . S
C4116 C4119 1.403 . S
H4117 C4123 0.930 . S
C4118 H4104 0.930 . S
C4118 C4116 1.395 . S
C4118 C4121 1.403 . S
C4119 C4116 1.403 . S
C4119 C4120 1.524 . S
C4119 C4123 1.400 . S
C4120 H4105 0.960 . S
C4120 H4106 0.960 . S
C4120 H4107 0.960 . S
C4120 C4119 1.524 . S
C4121 C4118 1.403 . S
C4121 C4122 1.392 . S
C4121 C4125 1.495 . S
C4122 C4121 1.392 . S
C4122 C4123 1.385 . S
C4122 C4124 1.478 . S
C4123 H4117 0.930 . S
C4123 C4119 1.400 . S
C4123 C4122 1.385 . S
C4124 C4122 1.478 . S
C4124 C4126 1.381 . S
C4124 C4130 1.383 . S
C4125 C4121 1.495 . S
C4125 H4131 0.959 . S
C4125 H4132 0.961 . S
C4125 H4133 0.960 . S
C4126 C4124 1.381 . S
C4126 C4127 1.394 . S
C4126 H4134 0.930 . S
C4127 C4126 1.394 . S
C4127 C4128 1.383 . S
C4127 H4135 0.929 . S
C4128 C4127 1.383 . S
C4128 C4129 1.377 . S
C4129 H4113 0.930 . S
C4129 C4128 1.377 . S
C4129 C4130 1.379 . S
C4130 H4114 0.931 . S
C4130 C4124 1.383 . S
C4130 C4129 1.379 . S
H4131 C4125 0.959 . S
H4132 C4125 0.961 . S
H4133 C4125 0.960 . S
H4134 C4126 0.930 . S
H4135 C4127 0.929 . S
H4136 C4144 0.929 . S
H4137 C4146 0.930 . S
H4138 C4148 0.930 . S
H4139 C4151 0.929 . S
H4140 C4154 0.930 . S
H4141 C4156 0.960 . S
H4142 C4156 0.960 . S
H4143 C4156 0.960 . S
C4144 H4136 0.929 . S
C4144 C4145 1.377 . S
C4144 C4146 1.384 . S
C4145 C4144 1.377 . S
C4145 C4151 1.390 . S
C4146 H4137 0.930 . S
C4146 C4144 1.384 . S
C4146 C4147 1.372 . S
C4147 C4146 1.372 . S
C4147 C4148 1.400 . S
C4147 C4152 1.490 . S
C4148 H4138 0.930 . S
C4148 C4147 1.400 . S
C4148 C4151 1.386 . S
H4149 C4165 0.930 . S
H4150 C4166 0.931 . S
C4151 H4139 0.929 . S
C4151 C4145 1.390 . S
C4151 C4148 1.386 . S
C4152 C4147 1.490 . S
C4152 C4154 1.395 . S
C4152 C4155 1.403 . S
H4153 C4159 0.930 . S
C4154 H4140 0.930 . S
C4154 C4152 1.395 . S
C4154 C4157 1.403 . S
C4155 C4152 1.403 . S
C4155 C4156 1.524 . S
C4155 C4159 1.400 . S
C4156 H4141 0.960 . S
C4156 H4142 0.960 . S
C4156 H4143 0.960 . S
C4156 C4155 1.524 . S
C4157 C4154 1.403 . S
C4157 C4158 1.392 . S
C4157 C4161 1.495 . S
C4158 C4157 1.392 . S
C4158 C4159 1.385 . S
C4158 C4160 1.478 . S
C4159 H4153 0.930 . S
C4159 C4155 1.400 . S
C4159 C4158 1.385 . S
C4160 C4158 1.478 . S
C4160 C4162 1.381 . S
C4160 C4166 1.383 . S
C4161 C4157 1.495 . S
C4161 H4167 0.959 . S
C4161 H4168 0.961 . S
C4161 H4169 0.960 . S
C4162 C4160 1.381 . S
C4162 C4163 1.394 . S
C4162 H4170 0.930 . S
C4163 C4162 1.394 . S
C4163 C4164 1.383 . S
C4163 H4171 0.929 . S
C4164 C4163 1.383 . S
C4164 C4165 1.377 . S
C4165 H4149 0.930 . S
C4165 C4164 1.377 . S
C4165 C4166 1.379 . S
C4166 H4150 0.931 . S
C4166 C4160 1.383 . S
C4166 C4165 1.379 . S
H4167 C4161 0.959 . S
H4168 C4161 0.961 . S
H4169 C4161 0.960 . S
H4170 C4162 0.930 . S
H4171 C4163 0.929 . S
H4172 C4180 0.929 . S
H4173 C4182 0.930 . S
H4174 C4184 0.930 . S
H4175 C4187 0.929 . S
H4176 C4190 0.930 . S
H4177 C4192 0.960 . S
H4178 C4192 0.960 . S
H4179 C4192 0.960 . S
C4180 H4172 0.929 . S
C4180 C4181 1.377 . S
C4180 C4182 1.384 . S
C4181 C4180 1.377 . S
C4181 C4187 1.390 . S
C4182 H4173 0.930 . S
C4182 C4180 1.384 . S
C4182 C4183 1.372 . S
C4183 C4182 1.372 . S
C4183 C4184 1.400 . S
C4183 C4188 1.490 . S
C4184 H4174 0.930 . S
C4184 C4183 1.400 . S
C4184 C4187 1.386 . S
H4185 C4201 0.930 . S
H4186 C4202 0.931 . S
C4187 H4175 0.929 . S
C4187 C4181 1.390 . S
C4187 C4184 1.386 . S
C4188 C4183 1.490 . S
C4188 C4190 1.395 . S
C4188 C4191 1.403 . S
H4189 C4195 0.930 . S
C4190 H4176 0.930 . S
C4190 C4188 1.395 . S
C4190 C4193 1.403 . S
C4191 C4188 1.403 . S
C4191 C4192 1.524 . S
C4191 C4195 1.400 . S
C4192 H4177 0.960 . S
C4192 H4178 0.960 . S
C4192 H4179 0.960 . S
C4192 C4191 1.524 . S
C4193 C4190 1.403 . S
C4193 C4194 1.392 . S
C4193 C4197 1.495 . S
C4194 C4193 1.392 . S
C4194 C4195 1.385 . S
C4194 C4196 1.478 . S
C4195 H4189 0.930 . S
C4195 C4191 1.400 . S
C4195 C4194 1.385 . S
C4196 C4194 1.478 . S
C4196 C4198 1.381 . S
C4196 C4202 1.383 . S
C4197 C4193 1.495 . S
C4197 H4203 0.959 . S
C4197 H4204 0.961 . S
C4197 H4205 0.960 . S
C4198 C4196 1.381 . S
C4198 C4199 1.394 . S
C4198 H4206 0.930 . S
C4199 C4198 1.394 . S
C4199 C4200 1.383 . S
C4199 H4207 0.929 . S
C4200 C4199 1.383 . S
C4200 C4201 1.377 . S
C4201 H4185 0.930 . S
C4201 C4200 1.377 . S
C4201 C4202 1.379 . S
C4202 H4186 0.931 . S
C4202 C4196 1.383 . S
C4202 C4201 1.379 . S
H4203 C4197 0.959 . S
H4204 C4197 0.961 . S
H4205 C4197 0.960 . S
H4206 C4198 0.930 . S
H4207 C4199 0.929 . S
H4208 C4216 0.929 . S
H4209 C4218 0.930 . S
H4210 C4220 0.930 . S
H4211 C4223 0.929 . S
H4212 C4226 0.930 . S
H4213 C4228 0.960 . S
H4214 C4228 0.960 . S
H4215 C4228 0.960 . S
C4216 H4208 0.929 . S
C4216 C4217 1.377 . S
C4216 C4218 1.384 . S
C4217 C4216 1.377 . S
C4217 C4223 1.390 . S
C4218 H4209 0.930 . S
C4218 C4216 1.384 . S
C4218 C4219 1.372 . S
C4219 C4218 1.372 . S
C4219 C4220 1.400 . S
C4219 C4224 1.490 . S
C4220 H4210 0.930 . S
C4220 C4219 1.400 . S
C4220 C4223 1.386 . S
H4221 C4237 0.930 . S
H4222 C4238 0.931 . S
C4223 H4211 0.929 . S
C4223 C4217 1.390 . S
C4223 C4220 1.386 . S
C4224 C4219 1.490 . S
C4224 C4226 1.395 . S
C4224 C4227 1.403 . S
H4225 C4231 0.930 . S
C4226 H4212 0.930 . S
C4226 C4224 1.395 . S
C4226 C4229 1.403 . S
C4227 C4224 1.403 . S
C4227 C4228 1.524 . S
C4227 C4231 1.400 . S
C4228 H4213 0.960 . S
C4228 H4214 0.960 . S
C4228 H4215 0.960 . S
C4228 C4227 1.524 . S
C4229 C4226 1.403 . S
C4229 C4230 1.392 . S
C4229 C4233 1.495 . S
C4230 C4229 1.392 . S
C4230 C4231 1.385 . S
C4230 C4232 1.478 . S
C4231 H4225 0.930 . S
C4231 C4227 1.400 . S
C4231 C4230 1.385 . S
C4232 C4230 1.478 . S
C4232 C4234 1.381 . S
C4232 C4238 1.383 . S
C4233 C4229 1.495 . S
C4233 H4239 0.959 . S
C4233 H4240 0.961 . S
C4233 H4241 0.960 . S
C4234 C4232 1.381 . S
C4234 C4235 1.394 . S
C4234 H4242 0.930 . S
C4235 C4234 1.394 . S
C4235 C4236 1.383 . S
C4235 H4243 0.929 . S
C4236 C4235 1.383 . S
C4236 C4237 1.377 . S
C4237 H4221 0.930 . S
C4237 C4236 1.377 . S
C4237 C4238 1.379 . S
C4238 H4222 0.931 . S
C4238 C4232 1.383 . S
C4238 C4237 1.379 . S
H4239 C4233 0.959 . S
H4240 C4233 0.961 . S
H4241 C4233 0.960 . S
H4242 C4234 0.930 . S
H4243 C4235 0.929 . S
H4244 C4252 0.929 . S
H4245 C4254 0.930 . S
H4246 C4256 0.930 . S
H4247 C4259 0.929 . S
H4248 C4262 0.930 . S
H4249 C4264 0.960 . S
H4250 C4264 0.960 . S
H4251 C4264 0.960 . S
C4252 H4244 0.929 . S
C4252 C4253 1.377 . S
C4252 C4254 1.384 . S
C4253 C4252 1.377 . S
C4253 C4259 1.390 . S
C4254 H4245 0.930 . S
C4254 C4252 1.384 . S
C4254 C4255 1.372 . S
C4255 C4254 1.372 . S
C4255 C4256 1.400 . S
C4255 C4260 1.490 . S
C4256 H4246 0.930 . S
C4256 C4255 1.400 . S
C4256 C4259 1.386 . S
H4257 C4273 0.930 . S
H4258 C4274 0.931 . S
C4259 H4247 0.929 . S
C4259 C4253 1.390 . S
C4259 C4256 1.386 . S
C4260 C4255 1.490 . S
C4260 C4262 1.395 . S
C4260 C4263 1.403 . S
H4261 C4267 0.930 . S
C4262 H4248 0.930 . S
C4262 C4260 1.395 . S
C4262 C4265 1.403 . S
C4263 C4260 1.403 . S
C4263 C4264 1.524 . S
C4263 C4267 1.400 . S
C4264 H4249 0.960 . S
C4264 H4250 0.960 . S
C4264 H4251 0.960 . S
C4264 C4263 1.524 . S
C4265 C4262 1.403 . S
C4265 C4266 1.392 . S
C4265 C4269 1.495 . S
C4266 C4265 1.392 . S
C4266 C4267 1.385 . S
C4266 C4268 1.478 . S
C4267 H4261 0.930 . S
C4267 C4263 1.400 . S
C4267 C4266 1.385 . S
C4268 C4266 1.478 . S
C4268 C4270 1.381 . S
C4268 C4274 1.383 . S
C4269 C4265 1.495 . S
C4269 H4275 0.959 . S
C4269 H4276 0.961 . S
C4269 H4277 0.960 . S
C4270 C4268 1.381 . S
C4270 C4271 1.394 . S
C4270 H4278 0.930 . S
C4271 C4270 1.394 . S
C4271 C4272 1.383 . S
C4271 H4279 0.929 . S
C4272 C4271 1.383 . S
C4272 C4273 1.377 . S
C4273 H4257 0.930 . S
C4273 C4272 1.377 . S
C4273 C4274 1.379 . S
C4274 H4258 0.931 . S
C4274 C4268 1.383 . S
C4274 C4273 1.379 . S
H4275 C4269 0.959 . S
H4276 C4269 0.961 . S
H4277 C4269 0.960 . S
H4278 C4270 0.930 . S
H4279 C4271 0.929 . S
H4280 C4288 0.929 . S
H4281 C4290 0.930 . S
H4282 C4292 0.930 . S
H4283 C4295 0.929 . S
H4284 C4298 0.930 . S
H4285 C4300 0.960 . S
H4286 C4300 0.960 . S
H4287 C4300 0.960 . S
C4288 H4280 0.929 . S
C4288 C4289 1.377 . S
C4288 C4290 1.384 . S
C4289 C4288 1.377 . S
C4289 C4295 1.390 . S
C4290 H4281 0.930 . S
C4290 C4288 1.384 . S
C4290 C4291 1.372 . S
C4291 C4290 1.372 . S
C4291 C4292 1.400 . S
C4291 C4296 1.490 . S
C4292 H4282 0.930 . S
C4292 C4291 1.400 . S
C4292 C4295 1.386 . S
H4293 C4309 0.930 . S
H4294 C4310 0.931 . S
C4295 H4283 0.929 . S
C4295 C4289 1.390 . S
C4295 C4292 1.386 . S
C4296 C4291 1.490 . S
C4296 C4298 1.395 . S
C4296 C4299 1.403 . S
H4297 C4303 0.930 . S
C4298 H4284 0.930 . S
C4298 C4296 1.395 . S
C4298 C4301 1.403 . S
C4299 C4296 1.403 . S
C4299 C4300 1.524 . S
C4299 C4303 1.400 . S
C4300 H4285 0.960 . S
C4300 H4286 0.960 . S
C4300 H4287 0.960 . S
C4300 C4299 1.524 . S
C4301 C4298 1.403 . S
C4301 C4302 1.392 . S
C4301 C4305 1.495 . S
C4302 C4301 1.392 . S
C4302 C4303 1.385 . S
C4302 C4304 1.478 . S
C4303 H4297 0.930 . S
C4303 C4299 1.400 . S
C4303 C4302 1.385 . S
C4304 C4302 1.478 . S
C4304 C4306 1.381 . S
C4304 C4310 1.383 . S
C4305 C4301 1.495 . S
C4305 H4311 0.959 . S
C4305 H4312 0.961 . S
C4305 H4313 0.960 . S
C4306 C4304 1.381 . S
C4306 C4307 1.394 . S
C4306 H4314 0.930 . S
C4307 C4306 1.394 . S
C4307 C4308 1.383 . S
C4307 H4315 0.929 . S
C4308 C4307 1.383 . S
C4308 C4309 1.377 . S
C4309 H4293 0.930 . S
C4309 C4308 1.377 . S
C4309 C4310 1.379 . S
C4310 H4294 0.931 . S
C4310 C4304 1.383 . S
C4310 C4309 1.379 . S
H4311 C4305 0.959 . S
H4312 C4305 0.961 . S
H4313 C4305 0.960 . S
H4314 C4306 0.930 . S
H4315 C4307 0.929 . S
H4316 C4324 0.929 . S
H4317 C4326 0.930 . S
H4318 C4328 0.930 . S
H4319 C4331 0.929 . S
H4320 C4334 0.930 . S
H4321 C4336 0.960 . S
H4322 C4336 0.960 . S
H4323 C4336 0.960 . S
C4324 H4316 0.929 . S
C4324 C4325 1.377 . S
C4324 C4326 1.384 . S
C4325 C4324 1.377 . S
C4325 C4331 1.390 . S
C4326 H4317 0.930 . S
C4326 C4324 1.384 . S
C4326 C4327 1.372 . S
C4327 C4326 1.372 . S
C4327 C4328 1.400 . S
C4327 C4332 1.490 . S
C4328 H4318 0.930 . S
C4328 C4327 1.400 . S
C4328 C4331 1.386 . S
H4329 C4345 0.930 . S
H4330 C4346 0.931 . S
C4331 H4319 0.929 . S
C4331 C4325 1.390 . S
C4331 C4328 1.386 . S
C4332 C4327 1.490 . S
C4332 C4334 1.395 . S
C4332 C4335 1.403 . S
H4333 C4339 0.930 . S
C4334 H4320 0.930 . S
C4334 C4332 1.395 . S
C4334 C4337 1.403 . S
C4335 C4332 1.403 . S
C4335 C4336 1.524 . S
C4335 C4339 1.400 . S
C4336 H4321 0.960 . S
C4336 H4322 0.960 . S
C4336 H4323 0.960 . S
C4336 C4335 1.524 . S
C4337 C4334 1.403 . S
C4337 C4338 1.392 . S
C4337 C4341 1.495 . S
C4338 C4337 1.392 . S
C4338 C4339 1.385 . S
C4338 C4340 1.478 . S
C4339 H4333 0.930 . S
C4339 C4335 1.400 . S
C4339 C4338 1.385 . S
C4340 C4338 1.478 . S
C4340 C4342 1.381 . S
C4340 C4346 1.383 . S
C4341 C4337 1.495 . S
C4341 H4347 0.959 . S
C4341 H4348 0.961 . S
C4341 H4349 0.960 . S
C4342 C4340 1.381 . S
C4342 C4343 1.394 . S
C4342 H4350 0.930 . S
C4343 C4342 1.394 . S
C4343 C4344 1.383 . S
C4343 H4351 0.929 . S
C4344 C4343 1.383 . S
C4344 C4345 1.377 . S
C4345 H4329 0.930 . S
C4345 C4344 1.377 . S
C4345 C4346 1.379 . S
C4346 H4330 0.931 . S
C4346 C4340 1.383 . S
C4346 C4345 1.379 . S
H4347 C4341 0.959 . S
H4348 C4341 0.961 . S
H4349 C4341 0.960 . S
H4350 C4342 0.930 . S
H4351 C4343 0.929 . S
H4352 C4360 0.929 . S
H4353 C4362 0.930 . S
H4354 C4364 0.930 . S
H4355 C4367 0.929 . S
H4356 C4370 0.930 . S
H4357 C4372 0.960 . S
H4358 C4372 0.960 . S
H4359 C4372 0.960 . S
C4360 H4352 0.929 . S
C4360 C4361 1.377 . S
C4360 C4362 1.384 . S
C4361 C4360 1.377 . S
C4361 C4367 1.390 . S
C4362 H4353 0.930 . S
C4362 C4360 1.384 . S
C4362 C4363 1.372 . S
C4363 C4362 1.372 . S
C4363 C4364 1.400 . S
C4363 C4368 1.490 . S
C4364 H4354 0.930 . S
C4364 C4363 1.400 . S
C4364 C4367 1.386 . S
H4365 C4381 0.930 . S
H4366 C4382 0.931 . S
C4367 H4355 0.929 . S
C4367 C4361 1.390 . S
C4367 C4364 1.386 . S
C4368 C4363 1.490 . S
C4368 C4370 1.395 . S
C4368 C4371 1.403 . S
H4369 C4375 0.930 . S
C4370 H4356 0.930 . S
C4370 C4368 1.395 . S
C4370 C4373 1.403 . S
C4371 C4368 1.403 . S
C4371 C4372 1.524 . S
C4371 C4375 1.400 . S
C4372 H4357 0.960 . S
C4372 H4358 0.960 . S
C4372 H4359 0.960 . S
C4372 C4371 1.524 . S
C4373 C4370 1.403 . S
C4373 C4374 1.392 . S
C4373 C4377 1.495 . S
C4374 C4373 1.392 . S
C4374 C4375 1.385 . S
C4374 C4376 1.478 . S
C4375 H4369 0.930 . S
C4375 C4371 1.400 . S
C4375 C4374 1.385 . S
C4376 C4374 1.478 . S
C4376 C4378 1.381 . S
C4376 C4382 1.383 . S
C4377 C4373 1.495 . S
C4377 H4383 0.959 . S
C4377 H4384 0.961 . S
C4377 H4385 0.960 . S
C4378 C4376 1.381 . S
C4378 C4379 1.394 . S
C4378 H4386 0.930 . S
C4379 C4378 1.394 . S
C4379 C4380 1.383 . S
C4379 H4387 0.929 . S
C4380 C4379 1.383 . S
C4380 C4381 1.377 . S
C4381 H4365 0.930 . S
C4381 C4380 1.377 . S
C4381 C4382 1.379 . S
C4382 H4366 0.931 . S
C4382 C4376 1.383 . S
C4382 C4381 1.379 . S
H4383 C4377 0.959 . S
H4384 C4377 0.961 . S
H4385 C4377 0.960 . S
H4386 C4378 0.930 . S
H4387 C4379 0.929 . S
H4388 C4396 0.929 . S
H4389 C4398 0.930 . S
H4390 C4400 0.930 . S
H4391 C4403 0.929 . S
H4392 C4406 0.930 . S
H4393 C4408 0.960 . S
H4394 C4408 0.960 . S
H4395 C4408 0.960 . S
C4396 H4388 0.929 . S
C4396 C4397 1.377 . S
C4396 C4398 1.384 . S
C4397 C4396 1.377 . S
C4397 C4403 1.390 . S
C4398 H4389 0.930 . S
C4398 C4396 1.384 . S
C4398 C4399 1.372 . S
C4399 C4398 1.372 . S
C4399 C4400 1.400 . S
C4399 C4404 1.490 . S
C4400 H4390 0.930 . S
C4400 C4399 1.400 . S
C4400 C4403 1.386 . S
H4401 C4417 0.930 . S
H4402 C4418 0.931 . S
C4403 H4391 0.929 . S
C4403 C4397 1.390 . S
C4403 C4400 1.386 . S
C4404 C4399 1.490 . S
C4404 C4406 1.395 . S
C4404 C4407 1.403 . S
H4405 C4411 0.930 . S
C4406 H4392 0.930 . S
C4406 C4404 1.395 . S
C4406 C4409 1.403 . S
C4407 C4404 1.403 . S
C4407 C4408 1.524 . S
C4407 C4411 1.400 . S
C4408 H4393 0.960 . S
C4408 H4394 0.960 . S
C4408 H4395 0.960 . S
C4408 C4407 1.524 . S
C4409 C4406 1.403 . S
C4409 C4410 1.392 . S
C4409 C4413 1.495 . S
C4410 C4409 1.392 . S
C4410 C4411 1.385 . S
C4410 C4412 1.478 . S
C4411 H4405 0.930 . S
C4411 C4407 1.400 . S
C4411 C4410 1.385 . S
C4412 C4410 1.478 . S
C4412 C4414 1.381 . S
C4412 C4418 1.383 . S
C4413 C4409 1.495 . S
C4413 H4419 0.959 . S
C4413 H4420 0.961 . S
C4413 H4421 0.960 . S
C4414 C4412 1.381 . S
C4414 C4415 1.394 . S
C4414 H4422 0.930 . S
C4415 C4414 1.394 . S
C4415 C4416 1.383 . S
C4415 H4423 0.929 . S
C4416 C4415 1.383 . S
C4416 C4417 1.377 . S
C4417 H4401 0.930 . S
C4417 C4416 1.377 . S
C4417 C4418 1.379 . S
C4418 H4402 0.931 . S
C4418 C4412 1.383 . S
C4418 C4417 1.379 . S
H4419 C4413 0.959 . S
H4420 C4413 0.961 . S
H4421 C4413 0.960 . S
H4422 C4414 0.930 . S
H4423 C4415 0.929 . S
C996 N428 1.929 . S
C977 C8 1.981 . S
C1032 C455 0.934 . S
C1013 C17 0.901 . S
C1049 C35 1.927 . S
C1068 C469 1.909 . S
C1104 N487 1.393 . S
C1085 C43 1.327 . S
C1121 C56 1.041 . S
C1140 C492 1.079 . S
C1157 C73 1.792 . S
C1176 C432 1.791 . S
C1193 C87 1.451 . S
C1212 N451 1.389 . S
C1248 N464 1.784 . S
C1229 C100 1.833 . S
C1284 N510 1.719 . S
C1265 C9 1.717 . S
C1301 C22 1.382 . S
C1320 N533 1.353 . S
C1337 C34 1.935 . S
C1356 N556 1.871 . S
C1392 N589 1.512 . S
C1373 C47 1.569 . S
C1409 C61 1.332 . S
C1428 C616 1.305 . S
C1464 C639 1.562 . S
C1445 C69 1.522 . S
C1481 C82 1.137 . S
C1500 C662 1.181 . S
C1536 C676 1.933 . S
C1517 C99 1.961 . S
C1553 C4 1.808 . S
C1572 C593 1.887 . S
C1589 C60 1.465 . S
C1608 N635 1.445 1_565 S
C1644 N658 1.763 . S
C1625 C74 1.792 . S
C1661 C86 1.383 . S
C1680 N671 1.338 . S
C1716 N612 1.841 . S
C1697 C95 1.843 . S
C1752 C538 1.397 . S
C1733 C30 1.338 . S
C1769 C48 1.145 . S
C1788 C561 1.150 . S
C1824 C515 1.435 . S
C1805 C21 1.435 . S
C1860 C708 1.920 . S
C1841 C112 1.932 . S
C1877 C121 0.998 . S
C1896 C722 1.033 . S
C1913 C139 1.745 . S
C1932 N750 1.685 . S
C1968 N763 1.439 . S
C1949 C147 1.353 . S
C1985 C160 1.044 . S
C2004 C768 1.098 . S
C2021 C177 1.762 . S
C2040 N704 1.725 . S
C2057 C191 1.487 . S
C2076 N717 1.487 . S
C2093 C204 1.852 . S
C2112 C754 1.849 . S
C2148 N602 1.905 . S
C2129 C113 1.907 . S
C2165 C126 1.466 . S
C2184 N786 1.397 . S
C2220 N648 1.702 . S
C2201 C138 1.753 . S
C2237 C151 1.537 . S
C2256 C823 1.518 . S
C2273 C165 1.180 . S
C2292 C524 1.164 . S
C2328 C837 1.714 . S
C2309 C173 1.652 . S
C2345 C186 1.200 . S
C2364 C570 1.217 . S
C2400 N855 1.855 . S
C2381 C203 1.873 . S
C2417 C108 1.731 . S
C2436 N819 1.756 . S
C2472 N832 1.392 . S
C2453 C164 1.408 . S
C2489 C178 1.925 . S
C2508 N566 1.859 . S
C2544 C860 1.377 . S
C2525 C190 1.382 . S
C2561 C199 1.750 . S
C2580 N520 1.710 . S
C2597 C134 1.219 . S
C2616 C791 1.261 . S
C2633 C152 1.197 . S
C2652 C653 1.208 . S
C2669 C125 1.531 . S
C2688 C607 1.523 . S
C2705 C216 2.018 . S
C2724 C745 2.013 . S
C2760 C777 0.992 . S
C2741 C225 0.954 . S
C2777 C243 1.967 . S
C2796 N694 1.926 . S
C2813 C251 1.324 . S
C2832 N727 1.373 . S
C2849 C264 1.080 . S
C2868 C731 1.086 . S
C2885 C281 1.562 . S
C2904 N740 1.520 . S
C2940 N773 1.343 . S
C2921 C295 1.414 . S
C2957 C308 1.848 . S
C2976 C699 1.858 . S
C3012 N888 1.877 . S
C2993 C217 1.916 . S
C3029 C230 1.356 . S
C3048 N625 1.296 . S
C3084 N911 1.788 . S
C3065 C242 1.853 . S
C3101 C255 1.566 . S
C3120 N681 1.564 . S
C3137 C269 1.307 . S
C3156 C929 1.303 . S
C3173 C277 1.487 . S
C3192 C547 1.531 . S
C3228 N947 1.213 . S
C3209 C290 1.176 . S
C3245 C307 1.968 . S
C3264 C584 1.955 . S
C3300 C685 1.878 . S
C3281 C212 1.802 . S
C3336 N543 1.410 . S
C3317 C268 1.451 . S
C3353 C282 1.813 . S
C3372 C952 1.829 . S
C3389 C294 1.425 . S
C3408 N579 1.340 . S
C3444 N924 1.864 . S
C3425 C303 1.855 . S
C3480 C630 1.458 . S
C3461 C238 1.395 . S
C3516 C915 1.155 . S
C3497 C256 1.143 . S
C3552 C892 1.449 . S
C3533 C229 1.453 . S
C3569 C320 1.861 . S
C3588 N474 1.794 . S
C3605 C329 0.999 . S
C3624 C501 1.027 . S
C3660 C423 2.067 . S
C3641 C347 2.057 . S
C3696 N441 1.391 . S
C3677 C355 1.301 . S
C3732 C446 1.091 . S
C3713 C368 1.052 . S
C3768 C478 1.626 1_556 S
C3749 C385 1.630 . S
C3804 N497 1.378 . S
C3785 C399 1.440 . S
C3821 C412 1.887 . S
C3840 N418 1.852 1_556 S
C3857 C321 1.760 . S
C3876 N934 1.707 . S
C3912 N842 1.410 . S
C3893 C334 1.421 . S
C3948 C961 1.793 . S
C3929 C342 1.766 . S
C3984 C869 1.385 . S
C3965 C359 1.394 . S
C4001 C373 1.348 . S
C4020 C883 1.352 . S
C4056 C800 1.461 . S
C4037 C381 1.420 . S
C4092 C906 1.259 . S
C4073 C394 1.221 . S
C4109 C411 1.905 . S
C4128 N809 1.884 . S
C4164 N865 1.700 . S
C4145 C316 1.692 . S
C4200 N796 1.481 . S
C4181 C372 1.489 . S
C4236 N901 1.820 . S
C4217 C386 1.864 . S
C4253 C398 1.341 . S
C4272 C814 1.334 . S
C4289 C407 1.829 . S
C4308 N878 1.839 . S
C4325 C346 1.710 . S
C4344 C846 1.685 . S
C4361 C360 1.138 . S
C4380 N957 1.145 . S
C4416 C938 1.521 . S
C4397 C333 1.544 . S
