# Generated by pormake.
# Topology anh, (6,3)-cn, num edge types: 1
# Building blocks:
#     Node 0, Type 0, BuildingBlock: BETGAK_clean_sbu_0, # of connection points: 6
#     Node 1, Type 0, BuildingBlock: BETGAK_clean_sbu_0, # of connection points: 6
#     Node 2, Type 0, BuildingBlock: BETGAK_clean_sbu_0, # of connection points: 6
#     Node 3, Type 1, BuildingBlock: QEWDON_clean_linker_0, # of connection points: 3
#     Node 4, Type 1, BuildingBlock: QEWDON_clean_linker_0, # of connection points: 3
#     Node 5, Type 1, BuildingBlock: QEWDON_clean_linker_0, # of connection points: 3
#     Node 6, Type 1, BuildingBlock: QEWDON_clean_linker_0, # of connection points: 3
#     Node 7, Type 1, BuildingBlock: QEWDON_clean_linker_0, # of connection points: 3
#     Node 8, Type 1, BuildingBlock: QEWDON_clean_linker_0, # of connection points: 3
#     Edge 9, Type (0, 1), BuildingBlock: XIVTED_clean_linker_0, # of connection points: 2
#     Edge 10, Type (0, 1), BuildingBlock: XIVTED_clean_linker_0, # of connection points: 2
#     Edge 11, Type (0, 1), BuildingBlock: XIVTED_clean_linker_0, # of connection points: 2
#     Edge 12, Type (0, 1), BuildingBlock: XIVTED_clean_linker_0, # of connection points: 2
#     Edge 13, Type (0, 1), BuildingBlock: XIVTED_clean_linker_0, # of connection points: 2
#     Edge 14, Type (0, 1), BuildingBlock: XIVTED_clean_linker_0, # of connection points: 2
#     Edge 15, Type (0, 1), BuildingBlock: XIVTED_clean_linker_0, # of connection points: 2
#     Edge 16, Type (0, 1), BuildingBlock: XIVTED_clean_linker_0, # of connection points: 2
#     Edge 17, Type (0, 1), BuildingBlock: XIVTED_clean_linker_0, # of connection points: 2
#     Edge 18, Type (0, 1), BuildingBlock: XIVTED_clean_linker_0, # of connection points: 2
#     Edge 19, Type (0, 1), BuildingBlock: XIVTED_clean_linker_0, # of connection points: 2
#     Edge 20, Type (0, 1), BuildingBlock: XIVTED_clean_linker_0, # of connection points: 2
#     Edge 21, Type (0, 1), BuildingBlock: XIVTED_clean_linker_0, # of connection points: 2
#     Edge 22, Type (0, 1), BuildingBlock: XIVTED_clean_linker_0, # of connection points: 2
#     Edge 23, Type (0, 1), BuildingBlock: XIVTED_clean_linker_0, # of connection points: 2
#     Edge 24, Type (0, 1), BuildingBlock: XIVTED_clean_linker_0, # of connection points: 2
#     Edge 25, Type (0, 1), BuildingBlock: XIVTED_clean_linker_0, # of connection points: 2
#     Edge 26, Type (0, 1), BuildingBlock: XIVTED_clean_linker_0, # of connection points: 2
# Relax obj value: 0.139
# Max RMSD: 0.172
# Mean RMSD: 0.126
data_MOF--net-anh--node1-BETGAK_clean_sbu_0--node2-QEWDON_clean_linker_0--edge1-XIVTED_clean_linker_0
_symmetry_space_group_name_H-M    P1
_symmetry_Int_Tables_number       1
_symmetry_cell_setting            triclinic
loop_
_symmetry_equiv_pos_as_xyz
'x, y, z'
_cell_length_a     31.4366
_cell_length_b     39.631401
_cell_length_c     48.210977
_cell_angle_alpha  95.899094
_cell_angle_beta   90.133912
_cell_angle_gamma 129.67249
loop_
_atom_site_label
_atom_site_type_symbol
_atom_site_fract_x
_atom_site_fract_y
_atom_site_fract_z
_atom_type_partial_charge
La0 La 0.15322 0.52985 0.14341 0.0
La1 La 1.08303 0.55051 0.16723 0.0
C2 C 0.22295 0.53162 0.11671 0.0
C3 C 0.28357 0.56351 0.12139 0.0
C4 C 0.3088 0.59467 0.14562 0.0
C5 C 0.36632 0.62428 0.15104 0.0
C6 C 0.39969 0.62289 0.13248 0.0
C7 C 0.37424 0.59229 0.10779 0.0
C8 C 0.31649 0.56283 0.10227 0.0
C9 C 0.15107 0.53487 0.19834 0.0
C10 C 0.20409 0.63144 0.15994 0.0
C11 C 1.01516 0.54646 0.19728 0.0
C12 C 0.95587 0.50954 0.19854 0.0
C13 C 0.92457 0.47807 0.17485 0.0
C14 C 0.86758 0.44472 0.17504 0.0
C15 C 0.84042 0.44175 0.19905 0.0
C16 C 0.87299 0.47112 0.22357 0.0
C17 C 0.93027 0.50496 0.22324 0.0
C18 C 1.08786 0.54979 0.11282 0.0
C19 C 1.03149 0.44965 0.14916 0.0
O20 O 0.1979 0.50749 0.13687 0.0
O21 O 0.20003 0.54767 0.10858 0.0
O22 O 0.15539 0.50825 0.18348 0.0
O23 O 0.15234 0.5588 0.18278 0.0
O24 O 0.20749 0.60268 0.1459 0.0
O25 O 0.16048 0.61823 0.17368 0.0
O26 O 1.02872 0.56369 0.17381 0.0
O27 O 1.04837 0.53974 0.20584 0.0
O28 O 1.08143 0.57437 0.12879 0.0
O29 O 1.08545 0.52359 0.12689 0.0
O30 O 1.03006 0.4782 0.16497 0.0
O31 O 1.07377 0.46329 0.13418 0.0
H32 H 0.28388 0.59557 0.16065 0.0
H33 H 0.38458 0.64773 0.17003 0.0
H34 H 0.3987 0.5899 0.09327 0.0
H35 H 0.29755 0.53894 0.08347 0.0
H36 H 0.94381 0.48035 0.15572 0.0
H37 H 0.84467 0.42346 0.15555 0.0
H38 H 0.85397 0.46933 0.24266 0.0
H39 H 0.95422 0.52826 0.24198 0.0
La40 La 0.71384 0.06941 0.4818 0.0
La41 La 0.63699 0.08765 0.47017 0.0
C42 C 0.75968 0.04169 0.50096 0.0
C43 C 0.74363 0.99807 0.50318 0.0
C44 C 0.77783 0.98914 0.49318 0.0
C45 C 0.76268 0.94758 0.49395 0.0
C46 C 0.71308 0.91412 0.50491 0.0
C47 C 0.67925 0.92333 0.51538 0.0
C48 C 0.69428 0.96488 0.51444 0.0
C49 C 0.69799 0.07385 0.42892 0.0
C50 C 0.58282 0.9896 0.46998 0.0
C51 C 0.59168 0.11616 0.45168 0.0
C52 C 0.60282 0.15833 0.45801 0.0
C53 C 0.63953 0.18885 0.48109 0.0
C54 C 0.64727 0.22757 0.48835 0.0
C55 C 0.61868 0.23659 0.47256 0.0
C56 C 0.58344 0.20665 0.44884 0.0
C57 C 0.57543 0.16769 0.44168 0.0
C58 C 0.65011 0.08187 0.52282 0.0
C59 C 0.7689 0.16752 0.48086 0.0
O60 O 0.7639 0.05181 0.47558 0.0
O61 O 0.73518 0.05302 0.51628 0.0
O62 O 0.74456 0.08697 0.44027 0.0
O63 O 0.66239 0.05657 0.44632 0.0
O64 O 0.63065 1.00452 0.48249 0.0
O65 O 0.57856 0.0164 0.45857 0.0
O66 O 0.57434 0.09235 0.47226 0.0
O67 O 0.62999 0.11803 0.43926 0.0
O68 O 0.60467 0.06973 0.5108 0.0
O69 O 0.68755 0.10011 0.50624 0.0
O70 O 0.71973 0.15285 0.47071 0.0
O71 O 0.7755 0.14091 0.49041 0.0
H72 H 0.81614 0.01428 0.4845 0.0
H73 H 0.78991 0.94166 0.48603 0.0
H74 H 0.64051 0.89808 0.52367 0.0
H75 H 0.66697 0.97078 0.52224 0.0
H76 H 0.66132 0.18225 0.49383 0.0
H77 H 0.67523 0.25029 0.50651 0.0
H78 H 0.56058 0.21257 0.43641 0.0
H79 H 0.54702 0.14446 0.42377 0.0
La80 La 0.70224 0.61223 0.82807 0.0
La81 La 0.62066 0.51672 0.83654 0.0
C82 C 0.74957 0.68537 0.81021 0.0
C83 C 0.73664 0.71476 0.80821 0.0
C84 C 0.69508 0.70956 0.82326 0.0
C85 C 0.68413 0.73844 0.82187 0.0
C86 C 0.71462 0.77312 0.80543 0.0
C87 C 0.75569 0.77775 0.79005 0.0
C88 C 0.76661 0.74879 0.79147 0.0
C89 C 0.69791 0.59689 0.8801 0.0
C90 C 0.57405 0.56582 0.83657 0.0
C91 C 0.57555 0.44261 0.85207 0.0
C92 C 0.58692 0.41202 0.84622 0.0
C93 C 0.61773 0.41619 0.82381 0.0
C94 C 0.62852 0.38716 0.81806 0.0
C95 C 0.60897 0.35345 0.8347 0.0
C96 C 0.57889 0.34995 0.85747 0.0
C97 C 0.56796 0.379 0.86315 0.0
C98 C 0.62641 0.53251 0.78442 0.0
C99 C 0.74979 0.56357 0.83024 0.0
O100 O 0.75925 0.68152 0.8356 0.0
O101 O 0.71731 0.64711 0.79426 0.0
O102 O 0.7428 0.62867 0.86995 0.0
O103 O 0.65737 0.57744 0.86206 0.0
O104 O 0.62081 0.59698 0.82584 0.0
O105 O 0.56796 0.53338 0.84691 0.0
O106 O 0.55617 0.448 0.83044 0.0
O107 O 0.61494 0.48031 0.86727 0.0
O108 O 0.58117 0.50096 0.79439 0.0
O109 O 0.66636 0.55145 0.80272 0.0
O110 O 0.70091 0.53059 0.83832 0.0
O111 O 0.75832 0.59793 0.82152 0.0
H112 H 0.67142 0.68344 0.83629 0.0
H113 H 0.65162 0.73348 0.83361 0.0
H114 H 0.78022 0.80431 0.77739 0.0
H115 H 0.79887 0.75326 0.77973 0.0
H116 H 0.63304 0.44172 0.81058 0.0
H117 H 0.65114 0.39056 0.80016 0.0
H118 H 0.56397 0.32488 0.871 0.0
H119 H 0.54466 0.37566 0.88073 0.0
H120 H 0.64004 0.08297 0.21188 0.0
C121 C 0.60953 0.04789 0.20455 0.0
C122 C 0.58948 0.01773 0.22401 0.0
C123 C 0.58808 0.03298 0.17618 0.0
H124 H 0.53241 0.94888 0.22989 0.0
C125 C 0.54827 0.97231 0.21496 0.0
C126 C 0.52609 0.95677 0.18704 0.0
C127 C 0.54624 0.98702 0.16773 0.0
C128 C 0.60749 0.06513 0.15564 0.0
H129 H 0.52938 0.97435 0.14608 0.0
C130 C 0.66262 0.10562 0.15797 0.0
C131 C 0.68025 0.13554 0.13846 0.0
C132 C 0.57042 0.05565 0.13354 0.0
H133 H 0.52733 0.02591 0.13144 0.0
C134 C 0.58803 0.08487 0.11399 0.0
H135 H 0.69223 0.11377 0.17459 0.0
C136 C 0.64252 0.12445 0.11633 0.0
H137 H 0.65475 0.14701 0.10123 0.0
H138 H 0.55901 0.07705 0.09715 0.0
H139 H 0.60414 0.57221 0.56891 0.0
C140 C 0.61147 0.54994 0.56076 0.0
C141 C 0.62969 0.53557 0.57932 0.0
C142 C 0.60104 0.53458 0.53193 0.0
H143 H 0.65114 0.4944 0.5833 0.0
C144 C 0.63763 0.50576 0.56886 0.0
C145 C 0.6257 0.48879 0.54032 0.0
C146 C 0.60837 0.50404 0.52193 0.0
C147 C 0.57982 0.54858 0.5124 0.0
H148 H 0.59913 0.49125 0.49986 0.0
C149 C 0.60185 0.59295 0.51464 0.0
C150 C 0.58242 0.60611 0.49566 0.0
C151 C 0.53725 0.51742 0.49126 0.0
H152 H 0.51853 0.48289 0.48934 0.0
C153 C 0.51771 0.53029 0.47255 0.0
H154 H 0.63516 0.61747 0.53058 0.0
C155 C 0.5402 0.57432 0.47461 0.0
H156 H 0.52404 0.58342 0.45993 0.0
H157 H 0.48487 0.506 0.4564 0.0
H158 H 0.18867 0.57637 0.89973 0.0
C159 C 0.15261 0.56974 0.8898 0.0
C160 C 0.10942 0.55918 0.90604 0.0
C161 C 0.15172 0.57589 0.86158 0.0
H162 H 1.03097 0.54498 0.90634 0.0
C163 C 1.06379 0.55257 0.8936 0.0
C164 C 1.0612 0.55797 0.86554 0.0
C165 C 1.1054 0.5697 0.84963 0.0
C166 C 0.20199 0.59443 0.84578 0.0
H167 H 1.10391 0.57441 0.82802 0.0
C168 C 0.23434 0.58094 0.84754 0.0
C169 C 0.28257 0.60054 0.8328 0.0
C170 C 0.21943 0.62817 0.82959 0.0
H171 H 0.19702 0.64034 0.82834 0.0
C172 C 0.26706 0.64793 0.81552 0.0
H173 H 0.22146 0.55486 0.85979 0.0
C174 C 0.29837 0.63451 0.81715 0.0
H175 H 0.33578 0.65149 0.80634 0.0
H176 H 0.28019 0.67425 0.80347 0.0
H177 H 0.12527 0.5407 0.42171 0.0
C178 C 0.16331 0.57429 0.42761 0.0
C179 C 0.19202 0.60055 0.40636 0.0
C180 C 0.18208 0.59209 0.45612 0.0
H181 H 0.26142 0.6653 0.39715 0.0
C182 C 0.23931 0.64497 0.41355 0.0
C183 C 0.25874 0.66354 0.44155 0.0
C184 C 0.23116 0.63668 0.46267 0.0
C185 C 0.14922 0.56531 0.47899 0.0
H186 H 0.24744 0.65124 0.48421 0.0
C187 C 0.1147 0.51859 0.47511 0.0
C188 C 1.08296 0.49391 0.49655 0.0
C189 C 0.15075 0.58643 0.50487 0.0
H190 H 0.17431 0.62182 0.50861 0.0
C191 C 0.12056 0.56211 0.52634 0.0
H192 H 0.11253 0.50109 0.45565 0.0
C193 C 1.08697 0.5162 0.52229 0.0
H194 H 1.06265 0.49798 0.53902 0.0
H195 H 0.12234 0.57891 0.54605 0.0
H196 H 0.64154 0.02984 0.73556 0.0
C197 C 0.64702 0.05842 0.74531 0.0
C198 C 0.66437 0.09267 0.7296 0.0
C199 C 0.63394 0.05983 0.77303 0.0
H200 H 0.67983 0.15414 0.72964 0.0
C201 C 0.66931 0.12885 0.74208 0.0
C202 C 0.65592 0.13056 0.76968 0.0
C203 C 0.63948 0.0964 0.78512 0.0
C204 C 0.60976 0.0216 0.78869 0.0
H205 H 0.62982 0.09784 0.80656 0.0
C206 C 0.6319 0.9999 0.78863 0.0
C207 C 0.60892 0.96421 0.80404 0.0
C208 C 0.56363 1.00648 0.80382 0.0
H209 H 0.54489 0.02181 0.80379 0.0
C210 C 0.54051 0.97096 0.81884 0.0
H211 H 0.66778 1.01151 0.77729 0.0
C212 C 0.56296 0.95 0.81905 0.0
H213 H 0.54382 0.92219 0.83069 0.0
H214 H 0.50488 0.95953 0.83031 0.0
H215 H 0.72736 0.60837 0.09164 0.0
C216 C 0.70915 0.57667 0.09835 0.0
C217 C 0.68477 0.53927 0.07834 0.0
C218 C 0.71056 0.57372 0.12696 0.0
H219 H 0.64165 0.46926 0.07177 0.0
C220 C 0.66018 0.49811 0.08722 0.0
C221 C 0.66171 0.49464 0.11593 0.0
C222 C 0.68728 0.53288 0.13559 0.0
C223 C 0.73412 0.61304 0.14781 0.0
H224 H 0.68999 0.53124 0.15776 0.0
C225 C 0.71539 0.63675 0.14613 0.0
C226 C 0.73339 0.67216 0.1667 0.0
C227 C 0.77265 0.62577 0.17003 0.0
H228 H 0.78776 0.60792 0.17173 0.0
C229 C 0.79179 0.66169 0.19027 0.0
H230 H 0.68396 0.62576 0.1296 0.0
C231 C 0.77183 0.68456 0.18885 0.0
H232 H 0.78575 0.71141 0.20514 0.0
H233 H 0.82137 0.67129 0.20741 0.0
H234 H 0.48497 0.66623 0.09838 0.0
H235 H 0.68595 0.68442 0.20946 0.0
H236 H 0.45199 0.64142 0.18402 0.0
H237 H 0.71567 0.70141 0.12276 0.0
H238 H 0.61513 0.69188 0.20411 0.0
H239 H 0.58149 0.69985 0.11012 0.0
C240 C 0.49818 0.66836 0.11972 0.0
C241 C 0.46006 0.65016 0.14009 0.0
C242 C 0.63811 0.69515 0.18641 0.0
C243 C 0.57035 0.68868 0.1537 0.0
C244 C 0.67896 0.69134 0.18956 0.0
C245 C 0.70559 0.69126 0.16632 0.0
C246 C 0.62367 0.69843 0.15978 0.0
C247 C 0.69496 0.70026 0.141 0.0
C248 C 0.55336 0.68783 0.12646 0.0
C249 C 0.47978 0.65488 0.16758 0.0
N250 N 0.65385 0.70245 0.1382 0.0
N251 N 0.5333 0.67298 0.17345 0.0
H252 H 0.777 0.22843 0.45367 0.0
H253 H 1.07033 0.43668 0.5299 0.0
H254 H 0.87105 0.21518 0.51004 0.0
H255 H 1.00327 0.43986 0.45304 0.0
H256 H 0.996 0.35623 0.52481 0.0
H257 H 0.85699 0.30694 0.45532 0.0
C258 C 0.81444 0.24201 0.46643 0.0
C259 C 0.81724 0.21515 0.48181 0.0
C260 C 0.99792 0.37445 0.50889 0.0
C261 C 0.90897 0.30516 0.48382 0.0
C262 C 1.04023 0.42029 0.5118 0.0
C263 C 1.04283 0.44485 0.49186 0.0
C264 C 0.95729 0.35313 0.48616 0.0
C265 C 1.00295 0.42207 0.46876 0.0
C266 C 0.86022 0.2868 0.46721 0.0
C267 C 0.86703 0.23461 0.49784 0.0
N268 N 0.96138 0.37755 0.46672 0.0
N269 N 0.91079 0.27852 0.49861 0.0
H270 H 0.71026 0.80823 0.76022 0.0
H271 H 0.62914 0.93885 0.84939 0.0
H272 H 0.69539 0.81024 0.84923 0.0
H273 H 0.64145 0.93745 0.76024 0.0
H274 H 0.65922 0.89544 0.84982 0.0
H275 H 0.69092 0.85905 0.75985 0.0
C276 C 0.70331 0.81957 0.77971 0.0
C277 C 0.70408 0.80466 0.80477 0.0
C278 C 0.65563 0.90472 0.83014 0.0
C279 C 0.6816 0.86261 0.80446 0.0
C280 C 0.63827 0.92942 0.82988 0.0
C281 C 0.63217 0.94136 0.80469 0.0
C282 C 0.66689 0.89159 0.805 0.0
C283 C 0.64572 0.92902 0.78013 0.0
C284 C 0.69205 0.84844 0.77946 0.0
C285 C 0.69423 0.82016 0.82934 0.0
N286 N 0.66203 0.90447 0.78085 0.0
N287 N 0.68331 0.84814 0.82854 0.0
H288 H 0.75973 0.36144 0.16603 0.0
H289 H 0.67443 0.4363 0.09133 0.0
H290 H 0.77862 0.46022 0.22567 0.0
H291 H 0.60912 0.45836 0.16299 0.0
H292 H 0.679 0.38818 0.11565 0.0
H293 H 0.67436 0.34191 0.1453 0.0
C294 C 0.74539 0.37828 0.17532 0.0
C295 C 0.77902 0.41509 0.1962 0.0
C296 C 0.66122 0.40177 0.12577 0.0
C297 C 0.68139 0.39238 0.17291 0.0
C298 C 0.65874 0.42962 0.11176 0.0
C299 C 0.64409 0.45331 0.12569 0.0
C300 C 0.6506 0.39878 0.15413 0.0
C301 C 0.62366 0.44264 0.15206 0.0
C302 C 0.69648 0.36691 0.16349 0.0
C303 C 0.75599 0.43313 0.20872 0.0
N304 N 0.62972 0.41763 0.16593 0.0
N305 N 0.70944 0.42255 0.19629 0.0
H306 H 0.48092 0.94646 0.44244 0.0
H307 H 0.35147 0.70606 0.47856 0.0
H308 H 0.57355 0.92359 0.49139 0.0
H309 H 0.27302 0.7306 0.41995 0.0
H310 H 0.43033 0.786 0.48719 0.0
H311 H 0.40153 0.86772 0.43746 0.0
C312 C 0.48464 0.92492 0.4522 0.0
C313 C 0.53421 0.94177 0.46726 0.0
C314 C 0.39577 0.77379 0.47248 0.0
C315 C 0.44296 0.85112 0.46165 0.0
C316 C 0.35073 0.72829 0.46768 0.0
C317 C 0.30597 0.71171 0.44832 0.0
C318 C 0.39557 0.80277 0.45802 0.0
C319 C 0.3071 0.74189 0.4347 0.0
C320 C 0.43918 0.87983 0.44932 0.0
C321 C 0.53628 0.91208 0.47949 0.0
N322 N 0.35109 0.78581 0.43978 0.0
N323 N 0.49131 0.86817 0.4764 0.0
H324 H 0.53731 0.26425 0.83765 0.0
H325 H 0.72995 0.21997 0.76626 0.0
H326 H 0.7018 0.36897 0.81543 0.0
H327 H 0.57514 0.12017 0.79934 0.0
H328 H 0.72113 0.2754 0.78386 0.0
H329 H 0.55152 0.21139 0.82405 0.0
C330 C 0.57671 0.2763 0.83022 0.0
C331 C 0.61834 0.32127 0.82768 0.0
C332 C 0.68935 0.24141 0.78744 0.0
C333 C 0.63452 0.26045 0.81146 0.0
C334 C 0.69427 0.20976 0.77731 0.0
C335 C 0.65338 0.16539 0.78143 0.0
C336 C 0.64293 0.22848 0.80155 0.0
C337 C 0.60815 0.15407 0.79604 0.0
C338 C 0.58467 0.24596 0.82226 0.0
C339 C 0.66812 0.33457 0.81734 0.0
N340 N 0.60405 0.18531 0.80542 0.0
N341 N 0.67472 0.30429 0.8095 0.0
H342 H 0.67 0.86131 0.54677 0.0
H343 H 0.61525 0.65636 0.45315 0.0
H344 H 0.71721 0.86516 0.46245 0.0
H345 H 0.60281 0.66205 0.54232 0.0
H346 H 0.64905 0.73191 0.45591 0.0
H347 H 0.641 0.78714 0.54533 0.0
C348 C 0.67417 0.84652 0.52795 0.0
C349 C 0.6961 0.86946 0.5047 0.0
C350 C 0.63921 0.71679 0.47492 0.0
C351 C 0.6631 0.78476 0.50292 0.0
C352 C 0.61968 0.67359 0.47333 0.0
C353 C 0.60597 0.65286 0.49752 0.0
C354 C 0.6446 0.73942 0.50087 0.0
C355 C 0.6132 0.67693 0.52319 0.0
C356 C 0.65796 0.80434 0.52721 0.0
C357 C 0.70111 0.8489 0.48097 0.0
N358 N 0.63162 0.71885 0.52417 0.0
N359 N 0.68449 0.8077 0.48064 0.0
H360 H 0.85832 0.62502 0.81747 0.0
H361 H 0.9503 0.49231 0.86965 0.0
H362 H 0.74598 0.49688 0.84551 0.0
H363 H 1.06386 0.61603 0.83678 0.0
H364 H 0.87434 0.49199 0.85807 0.0
H365 H 0.93316 0.62143 0.82192 0.0
C366 C 0.84917 0.59601 0.82439 0.0
C367 C 0.79549 0.56131 0.83122 0.0
C368 C 0.91568 0.51908 0.85309 0.0
C369 C 0.8814 0.55705 0.83645 0.0
C370 C 0.95915 0.51921 0.85967 0.0
C371 C 1.01373 0.55431 0.85428 0.0
C372 C 0.92647 0.55456 0.84121 0.0
C373 C 1.02247 0.58814 0.84115 0.0
C374 C 0.89203 0.594 0.82692 0.0
C375 C 0.78649 0.52461 0.84008 0.0
N376 N 0.9795 0.58769 0.83536 0.0
N377 N 0.82883 0.5236 0.84254 0.0
H378 H 0.31209 0.67076 0.15184 0.0
H379 H 0.42147 0.9172 0.16526 0.0
H380 H 0.20516 0.7012 0.17153 0.0
H381 H 0.52513 0.88806 0.19095 0.0
H382 H 0.342 0.83734 0.15673 0.0
H383 H 0.39123 0.75002 0.1558 0.0
C384 C 0.30516 0.69406 0.15687 0.0
C385 C 0.25196 0.67932 0.16159 0.0
C386 C 0.38229 0.84852 0.164 0.0
C387 C 0.3422 0.77 0.16559 0.0
C388 C 0.42755 0.89387 0.16863 0.0
C389 C 0.47967 0.90894 0.17874 0.0
C390 C 0.38965 0.81818 0.169 0.0
C391 C 0.48549 0.87758 0.18314 0.0
C392 C 0.35038 0.73927 0.15917 0.0
C393 C 0.24554 0.71114 0.168 0.0
N394 N 0.44104 0.83362 0.17814 0.0
N395 N 0.2901 0.75503 0.16966 0.0
H396 H 0.63173 0.29594 0.44071 0.0
H397 H 0.59407 0.41905 0.56695 0.0
H398 H 0.6151 0.26593 0.5255 0.0
H399 H 0.65956 0.47541 0.49052 0.0
H400 H 0.59571 0.35988 0.55054 0.0
H401 H 0.63577 0.35885 0.45686 0.0
C402 C 0.62899 0.30263 0.4627 0.0
C403 C 0.62322 0.27576 0.48182 0.0
C404 C 0.61006 0.38531 0.53739 0.0
C405 C 0.62753 0.34727 0.50034 0.0
C406 C 0.60955 0.41944 0.54685 0.0
C407 C 0.62736 0.45282 0.53029 0.0
C408 C 0.62777 0.38389 0.51095 0.0
C409 C 0.64507 0.45032 0.50396 0.0
C410 C 0.63158 0.33859 0.4719 0.0
C411 C 0.62025 0.28606 0.5101 0.0
N412 N 0.64469 0.41638 0.49506 0.0
N413 N 0.6221 0.32077 0.51845 0.0
H414 H 0.48717 0.52725 0.8703 0.0
H415 H 0.33274 0.59236 0.78929 0.0
H416 H 0.55654 0.60949 0.80426 0.0
H417 H 0.31343 0.57778 0.87693 0.0
H418 H 0.40176 0.58274 0.7911 0.0
H419 H 0.41218 0.53143 0.87016 0.0
C420 C 0.48662 0.54606 0.85573 0.0
C421 C 0.52839 0.56806 0.83724 0.0
C422 C 0.38237 0.58151 0.80995 0.0
C423 C 0.4421 0.57217 0.83667 0.0
C424 C 0.34285 0.5871 0.80901 0.0
C425 C 0.31786 0.58714 0.83321 0.0
C426 C 0.3968 0.57484 0.83511 0.0
C427 C 0.33156 0.57829 0.85777 0.0
C428 C 0.44392 0.54852 0.85576 0.0
C429 C 0.52553 0.59209 0.81895 0.0
N430 N 0.37028 0.57268 0.85814 0.0
N431 N 0.48304 0.59312 0.81895 0.0
H432 H 1.00267 0.38035 0.11052 0.0
H433 H 0.73551 0.19607 0.18561 0.0
H434 H 0.95047 0.41003 0.18514 0.0
H435 H 0.75335 0.17498 0.09835 0.0
H436 H 0.8244 0.27157 0.18909 0.0
H437 H 0.92044 0.30189 0.1088 0.0
C438 C 0.97421 0.37039 0.12661 0.0
C439 C 0.98338 0.40186 0.14792 0.0
C440 C 0.80905 0.25028 0.16923 0.0
C441 C 0.88986 0.31235 0.14625 0.0
C442 C 0.75861 0.20712 0.16731 0.0
C443 C 0.73697 0.17934 0.14163 0.0
C444 C 0.83844 0.26564 0.14539 0.0
C445 C 0.76836 0.19552 0.11848 0.0
C446 C 0.92728 0.32569 0.12557 0.0
C447 C 0.94499 0.38705 0.1682 0.0
N448 N 0.81749 0.23762 0.12088 0.0
N449 N 0.9001 0.34345 0.1669 0.0
H450 H 1.09732 0.60778 0.08263 0.0
H451 H 0.12814 0.51314 0.93572 0.0
H452 H 1.09585 0.49765 0.07452 0.0
H453 H 1.10043 0.60693 0.94612 0.0
H454 H 0.12696 0.51148 0.98678 0.0
H455 H 0.10859 0.61229 0.03292 0.0
C456 C 1.09936 0.58446 0.07031 0.0
C457 C 1.09532 0.55214 0.08265 0.0
C458 C 0.12136 0.5325 0.97781 0.0
C459 C 0.10837 0.55708 0.02541 0.0
C460 C 0.12235 0.53361 0.94879 0.0
C461 C 0.11376 0.55983 0.93677 0.0
C462 C 0.11244 0.55824 -0.00526 0.0
C463 C 1.1064 0.58577 0.95452 0.0
C464 C 1.10586 0.58706 0.04187 0.0
C465 C 1.09867 0.523 0.06572 0.0
N466 N 1.10579 0.58422 0.98248 0.0
N467 N 1.10489 0.52606 0.03786 0.0
H468 H 0.59871 0.04043 0.40368 0.0
H469 H 0.69674 0.07612 0.24845 0.0
H470 H 0.76724 0.10266 0.38641 0.0
H471 H 0.52628 0.99411 0.26807 0.0
H472 H 0.72645 0.09549 0.29888 0.0
H473 H 0.5747 0.03272 0.35412 0.0
C474 C 0.63081 0.05271 0.38941 0.0
C475 C 0.68495 0.07191 0.39909 0.0
C476 C 0.6826 0.07345 0.29208 0.0
C477 C 0.65765 0.06295 0.34207 0.0
C478 C 0.6657 0.06262 0.26339 0.0
C479 C 0.60901 0.03312 0.25417 0.0
C480 C 0.64241 0.055 0.31153 0.0
C481 C 0.57038 0.01643 0.2743 0.0
C482 C 0.61704 0.04822 0.36106 0.0
C483 C 0.72492 0.08743 0.37969 0.0
N484 N 0.58778 0.02749 0.30195 0.0
N485 N 0.71041 0.0824 0.35199 0.0
H486 H 0.72039 0.58224 0.75707 0.0
H487 H 0.5544 0.53028 0.61112 0.0
H488 H 0.54277 0.50336 0.74568 0.0
H489 H 0.71616 0.56646 0.61721 0.0
H490 H 0.5567 0.53746 0.6623 0.0
H491 H 0.72575 0.59261 0.70748 0.0
C492 C 0.68263 0.56745 0.74415 0.0
C493 C 0.63099 0.54153 0.75524 0.0
C494 C 0.592 0.54442 0.65243 0.0
C495 C 0.63682 0.55355 0.6989 0.0
C496 C 0.59094 0.54075 0.62328 0.0
C497 C 0.63503 0.54755 0.61 0.0
C498 C 0.63767 0.55531 0.66836 0.0
C499 C 0.68112 0.56054 0.62671 0.0
C500 C 0.6857 0.57333 0.71593 0.0
C501 C 0.5833 0.52319 0.73776 0.0
N502 N 0.68113 0.56375 0.65504 0.0
N503 N 0.58733 0.52946 0.7104 0.0
H504 H 0.56976 0.02506 0.55466 0.0
H505 H 0.74728 0.15537 0.69954 0.0
H506 H 0.74593 0.13283 0.55827 0.0
H507 H 0.59431 0.02032 0.69042 0.0
H508 H 0.74908 0.14972 0.6484 0.0
H509 H 0.5784 0.02418 0.60483 0.0
C510 C 0.6104 0.04838 0.56609 0.0
C511 C 0.65715 0.07924 0.5525 0.0
C512 C 0.71568 0.12115 0.65768 0.0
C513 C 0.66734 0.07893 0.61 0.0
C514 C 0.71451 0.1244 0.68679 0.0
C515 C 0.6705 0.08829 0.69922 0.0
C516 C 0.67196 0.08181 0.64093 0.0
C517 C 0.62924 0.04886 0.68177 0.0
C518 C 0.61537 0.04776 0.59469 0.0
C519 C 0.70893 0.10856 0.56813 0.0
N520 N 0.63058 0.04689 0.65354 0.0
N521 N 0.71258 0.10819 0.59626 0.0
H522 H 0.60541 0.53419 0.90502 0.0
H523 H 0.77499 0.60132 0.05244 0.0
H524 H 0.78339 0.63408 0.91975 0.0
H525 H 0.60068 0.48873 0.03597 0.0
H526 H 0.77827 0.61327 0.00363 0.0
H527 H 0.60187 0.51652 0.95266 0.0
C528 C 0.64372 0.55226 0.91829 0.0
C529 C 0.6948 0.58561 0.90856 0.0
C530 C 0.73928 0.58578 0.01056 0.0
C531 C 0.69109 0.56588 0.96292 0.0
C532 C 0.73737 0.57907 0.03845 0.0
C533 C 0.68735 0.54426 0.04824 0.0
C534 C 0.69071 0.55768 0.99227 0.0
C535 C 0.64004 0.51592 0.02917 0.0
C536 C 0.64169 0.54215 0.94542 0.0
C537 C 0.74317 0.60821 0.92652 0.0
N538 N 0.64274 0.52349 0.00208 0.0
N539 N 0.74011 0.59803 0.95287 0.0
H540 H 0.15666 0.59809 0.23026 0.0
H541 H 0.16751 0.52585 0.37728 0.0
H542 H 0.14447 0.48435 0.23608 0.0
H543 H 0.17411 0.63594 0.36731 0.0
H544 H 0.15054 0.50498 0.32612 0.0
H545 H 0.15618 0.60822 0.28074 0.0
C546 C 0.15359 0.57503 0.24223 0.0
C547 C 0.15043 0.54025 0.22901 0.0
C548 C 0.15508 0.53338 0.3352 0.0
C549 C 0.15056 0.55195 0.28719 0.0
C550 C 0.16434 0.54506 0.36433 0.0
C551 C 0.1728 0.58291 0.37637 0.0
C552 C 0.15417 0.55976 0.31822 0.0
C553 C 0.1686 0.60688 0.35878 0.0
C554 C 0.15333 0.58083 0.27114 0.0
C555 C 0.14704 0.51163 0.24558 0.0
N556 N 0.16004 0.59512 0.33066 0.0
N557 N 0.14745 0.51822 0.27393 0.0
loop_
_geom_bond_atom_site_label_1
_geom_bond_atom_site_label_2
_geom_bond_distance
_geom_bond_site_symmetry_2
_ccdc_geom_bond_type
La0 C2 2.928 . S
La0 O20 2.521 . S
La0 O21 2.628 . S
La0 O22 2.554 . S
La0 O23 2.757 . S
La0 O24 2.470 . S
La0 O29 2.482 . S
La0 O31 2.503 1_455 S
La1 C11 2.928 1_455 S
La1 O23 2.482 . S
La1 O25 2.503 . S
La1 O26 2.521 1_455 S
La1 O27 2.628 1_455 S
La1 O28 2.554 . S
La1 O29 2.757 . S
La1 O30 2.470 1_455 S
C2 La0 2.928 . S
C2 C3 1.503 . S
C2 O20 1.261 . S
C2 O21 1.243 . S
C3 C2 1.503 . S
C3 C4 1.394 . S
C3 C8 1.373 . S
C4 C3 1.394 . S
C4 C5 1.380 . S
C4 H32 0.930 . S
C5 C4 1.380 . S
C5 C6 1.376 . S
C5 H33 0.930 . S
C6 C5 1.376 . S
C6 C7 1.370 . S
C7 C6 1.370 . S
C7 C8 1.396 . S
C7 H34 0.929 . S
C8 C3 1.373 . S
C8 C7 1.396 . S
C8 H35 0.929 . S
C9 O22 1.240 . S
C9 O23 1.289 . S
C10 O24 1.258 . S
C10 O25 1.256 . S
C11 La1 2.928 1_655 S
C11 C12 1.503 . S
C11 O26 1.261 . S
C11 O27 1.243 . S
C12 C11 1.503 . S
C12 C13 1.394 . S
C12 C17 1.373 . S
C13 C12 1.394 . S
C13 C14 1.380 . S
C13 H36 0.930 . S
C14 C13 1.380 . S
C14 C15 1.376 . S
C14 H37 0.930 . S
C15 C14 1.376 . S
C15 C16 1.370 . S
C16 C15 1.370 . S
C16 C17 1.396 . S
C16 H38 0.929 . S
C17 C12 1.373 . S
C17 C16 1.396 . S
C17 H39 0.929 . S
C18 O28 1.240 . S
C18 O29 1.289 . S
C19 O30 1.258 . S
C19 O31 1.256 . S
O20 La0 2.521 . S
O20 C2 1.261 . S
O21 La0 2.628 . S
O21 C2 1.243 . S
O22 La0 2.554 . S
O22 C9 1.240 . S
O23 La0 2.757 . S
O23 La1 2.482 . S
O23 C9 1.289 . S
O24 La0 2.470 . S
O24 C10 1.258 . S
O25 La1 2.503 . S
O25 C10 1.256 . S
O26 La1 2.521 1_655 S
O26 C11 1.261 . S
O27 La1 2.628 1_655 S
O27 C11 1.243 . S
O28 La1 2.554 . S
O28 C18 1.240 . S
O29 La0 2.482 . S
O29 La1 2.757 . S
O29 C18 1.289 . S
O30 La1 2.470 1_655 S
O30 C19 1.258 . S
O31 La0 2.503 1_655 S
O31 C19 1.256 . S
H32 C4 0.930 . S
H33 C5 0.930 . S
H34 C7 0.929 . S
H35 C8 0.929 . S
H36 C13 0.930 . S
H37 C14 0.930 . S
H38 C16 0.929 . S
H39 C17 0.929 . S
La40 C42 2.928 1_545 S
La40 O60 2.521 1_545 S
La40 O61 2.628 1_545 S
La40 O62 2.554 . S
La40 O63 2.757 . S
La40 O64 2.470 1_545 S
La40 O69 2.482 . S
La40 O71 2.503 . S
La41 C51 2.928 . S
La41 O63 2.482 . S
La41 O65 2.503 1_545 S
La41 O66 2.521 . S
La41 O67 2.628 . S
La41 O68 2.554 . S
La41 O69 2.757 . S
La41 O70 2.470 . S
C42 La40 2.928 1_565 S
C42 C43 1.503 . S
C42 O60 1.261 . S
C42 O61 1.243 . S
C43 C42 1.503 . S
C43 C44 1.394 . S
C43 C48 1.373 . S
C44 C43 1.394 . S
C44 C45 1.380 . S
C44 H72 0.930 . S
C45 C44 1.380 . S
C45 C46 1.376 . S
C45 H73 0.930 . S
C46 C45 1.376 . S
C46 C47 1.370 . S
C47 C46 1.370 . S
C47 C48 1.396 . S
C47 H74 0.929 . S
C48 C43 1.373 . S
C48 C47 1.396 . S
C48 H75 0.929 . S
C49 O62 1.240 . S
C49 O63 1.289 . S
C50 O64 1.258 . S
C50 O65 1.256 . S
C51 La41 2.928 . S
C51 C52 1.503 . S
C51 O66 1.261 . S
C51 O67 1.243 . S
C52 C51 1.503 . S
C52 C53 1.394 . S
C52 C57 1.373 . S
C53 C52 1.394 . S
C53 C54 1.380 . S
C53 H76 0.930 . S
C54 C53 1.380 . S
C54 C55 1.376 . S
C54 H77 0.930 . S
C55 C54 1.376 . S
C55 C56 1.370 . S
C56 C55 1.370 . S
C56 C57 1.396 . S
C56 H78 0.929 . S
C57 C52 1.373 . S
C57 C56 1.396 . S
C57 H79 0.929 . S
C58 O68 1.240 . S
C58 O69 1.289 . S
C59 O70 1.258 . S
C59 O71 1.256 . S
O60 La40 2.521 1_565 S
O60 C42 1.261 . S
O61 La40 2.628 1_565 S
O61 C42 1.243 . S
O62 La40 2.554 . S
O62 C49 1.240 . S
O63 La40 2.757 . S
O63 La41 2.482 . S
O63 C49 1.289 . S
O64 La40 2.470 1_565 S
O64 C50 1.258 . S
O65 La41 2.503 1_565 S
O65 C50 1.256 . S
O66 La41 2.521 . S
O66 C51 1.261 . S
O67 La41 2.628 . S
O67 C51 1.243 . S
O68 La41 2.554 . S
O68 C58 1.240 . S
O69 La40 2.482 . S
O69 La41 2.757 . S
O69 C58 1.289 . S
O70 La41 2.470 . S
O70 C59 1.258 . S
O71 La40 2.503 . S
O71 C59 1.256 . S
H72 C44 0.930 . S
H73 C45 0.930 . S
H74 C47 0.929 . S
H75 C48 0.929 . S
H76 C53 0.930 . S
H77 C54 0.930 . S
H78 C56 0.929 . S
H79 C57 0.929 . S
La80 C82 2.928 . S
La80 O100 2.521 . S
La80 O101 2.628 . S
La80 O102 2.554 . S
La80 O103 2.757 . S
La80 O104 2.470 . S
La80 O109 2.482 . S
La80 O111 2.503 . S
La81 C91 2.928 . S
La81 O103 2.482 . S
La81 O105 2.503 . S
La81 O106 2.521 . S
La81 O107 2.628 . S
La81 O108 2.554 . S
La81 O109 2.757 . S
La81 O110 2.470 . S
C82 La80 2.928 . S
C82 C83 1.503 . S
C82 O100 1.261 . S
C82 O101 1.243 . S
C83 C82 1.503 . S
C83 C84 1.394 . S
C83 C88 1.373 . S
C84 C83 1.394 . S
C84 C85 1.380 . S
C84 H112 0.930 . S
C85 C84 1.380 . S
C85 C86 1.376 . S
C85 H113 0.930 . S
C86 C85 1.376 . S
C86 C87 1.370 . S
C87 C86 1.370 . S
C87 C88 1.396 . S
C87 H114 0.929 . S
C88 C83 1.373 . S
C88 C87 1.396 . S
C88 H115 0.929 . S
C89 O102 1.240 . S
C89 O103 1.289 . S
C90 O104 1.258 . S
C90 O105 1.256 . S
C91 La81 2.928 . S
C91 C92 1.503 . S
C91 O106 1.261 . S
C91 O107 1.243 . S
C92 C91 1.503 . S
C92 C93 1.394 . S
C92 C97 1.373 . S
C93 C92 1.394 . S
C93 C94 1.380 . S
C93 H116 0.930 . S
C94 C93 1.380 . S
C94 C95 1.376 . S
C94 H117 0.930 . S
C95 C94 1.376 . S
C95 C96 1.370 . S
C96 C95 1.370 . S
C96 C97 1.396 . S
C96 H118 0.929 . S
C97 C92 1.373 . S
C97 C96 1.396 . S
C97 H119 0.929 . S
C98 O108 1.240 . S
C98 O109 1.289 . S
C99 O110 1.258 . S
C99 O111 1.256 . S
O100 La80 2.521 . S
O100 C82 1.261 . S
O101 La80 2.628 . S
O101 C82 1.243 . S
O102 La80 2.554 . S
O102 C89 1.240 . S
O103 La80 2.757 . S
O103 La81 2.482 . S
O103 C89 1.289 . S
O104 La80 2.470 . S
O104 C90 1.258 . S
O105 La81 2.503 . S
O105 C90 1.256 . S
O106 La81 2.521 . S
O106 C91 1.261 . S
O107 La81 2.628 . S
O107 C91 1.243 . S
O108 La81 2.554 . S
O108 C98 1.240 . S
O109 La80 2.482 . S
O109 La81 2.757 . S
O109 C98 1.289 . S
O110 La81 2.470 . S
O110 C99 1.258 . S
O111 La80 2.503 . S
O111 C99 1.256 . S
H112 C84 0.930 . S
H113 C85 0.930 . S
H114 C87 0.929 . S
H115 C88 0.929 . S
H116 C93 0.930 . S
H117 C94 0.930 . S
H118 C96 0.929 . S
H119 C97 0.929 . S
H120 C121 0.949 . S
C121 H120 0.949 . S
C121 C122 1.395 . S
C121 C123 1.391 . S
C122 C121 1.395 . S
C122 C125 1.390 1_545 S
C123 C121 1.391 . S
C123 C127 1.387 . S
C123 C128 1.491 . S
H124 C125 0.950 . S
C125 C122 1.390 1_565 S
C125 H124 0.950 . S
C125 C126 1.378 . S
C126 C125 1.378 . S
C126 C127 1.409 1_565 S
C127 C123 1.387 . S
C127 C126 1.409 1_545 S
C127 H129 0.951 . S
C128 C123 1.491 . S
C128 C130 1.382 . S
C128 C132 1.404 . S
H129 C127 0.951 . S
C130 C128 1.382 . S
C130 C131 1.390 . S
C130 H135 0.949 . S
C131 C130 1.390 . S
C131 C136 1.399 . S
C132 C128 1.404 . S
C132 H133 0.950 . S
C132 C134 1.375 . S
H133 C132 0.950 . S
C134 C132 1.375 . S
C134 C136 1.382 . S
C134 H138 0.950 . S
H135 C130 0.949 . S
C136 C131 1.399 . S
C136 C134 1.382 . S
C136 H137 0.952 . S
H137 C136 0.952 . S
H138 C134 0.950 . S
H139 C140 0.949 . S
C140 H139 0.949 . S
C140 C141 1.395 . S
C140 C142 1.391 . S
C141 C140 1.395 . S
C141 C144 1.390 . S
C142 C140 1.391 . S
C142 C146 1.387 . S
C142 C147 1.491 . S
H143 C144 0.950 . S
C144 C141 1.390 . S
C144 H143 0.950 . S
C144 C145 1.378 . S
C145 C144 1.378 . S
C145 C146 1.409 . S
C146 C142 1.387 . S
C146 C145 1.409 . S
C146 H148 0.951 . S
C147 C142 1.491 . S
C147 C149 1.382 . S
C147 C151 1.404 . S
H148 C146 0.951 . S
C149 C147 1.382 . S
C149 C150 1.390 . S
C149 H154 0.949 . S
C150 C149 1.390 . S
C150 C155 1.399 . S
C151 C147 1.404 . S
C151 H152 0.950 . S
C151 C153 1.375 . S
H152 C151 0.950 . S
C153 C151 1.375 . S
C153 C155 1.382 . S
C153 H157 0.950 . S
H154 C149 0.949 . S
C155 C150 1.399 . S
C155 C153 1.382 . S
C155 H156 0.952 . S
H156 C155 0.952 . S
H157 C153 0.950 . S
H158 C159 0.949 . S
C159 H158 0.949 . S
C159 C160 1.395 . S
C159 C161 1.391 . S
C160 C159 1.395 . S
C160 C163 1.390 . S
C161 C159 1.391 . S
C161 C165 1.387 . S
C161 C166 1.491 . S
H162 C163 0.950 1_655 S
C163 C160 1.390 . S
C163 H162 0.950 1_455 S
C163 C164 1.378 . S
C164 C163 1.378 . S
C164 C165 1.409 . S
C165 C161 1.387 . S
C165 C164 1.409 . S
C165 H167 0.951 . S
C166 C161 1.491 . S
C166 C168 1.382 . S
C166 C170 1.404 . S
H167 C165 0.951 . S
C168 C166 1.382 . S
C168 C169 1.390 . S
C168 H173 0.949 . S
C169 C168 1.390 . S
C169 C174 1.399 . S
C170 C166 1.404 . S
C170 H171 0.950 . S
C170 C172 1.375 . S
H171 C170 0.950 . S
C172 C170 1.375 . S
C172 C174 1.382 . S
C172 H176 0.950 . S
H173 C168 0.949 . S
C174 C169 1.399 . S
C174 C172 1.382 . S
C174 H175 0.952 . S
H175 C174 0.952 . S
H176 C172 0.950 . S
H177 C178 0.949 . S
C178 H177 0.949 . S
C178 C179 1.395 1_655 S
C178 C180 1.391 1_655 S
C179 C178 1.395 1_455 S
C179 C182 1.390 . S
C180 C178 1.391 1_455 S
C180 C184 1.387 . S
C180 C185 1.491 1_455 S
H181 C182 0.950 . S
C182 C179 1.390 . S
C182 H181 0.950 . S
C182 C183 1.378 . S
C183 C182 1.378 . S
C183 C184 1.409 . S
C184 C180 1.387 . S
C184 C183 1.409 . S
C184 H186 0.951 . S
C185 C180 1.491 1_655 S
C185 C187 1.382 . S
C185 C189 1.404 . S
H186 C184 0.951 . S
C187 C185 1.382 . S
C187 C188 1.390 . S
C187 H192 0.949 . S
C188 C187 1.390 . S
C188 C193 1.399 . S
C189 C185 1.404 . S
C189 H190 0.950 . S
C189 C191 1.375 . S
H190 C189 0.950 . S
C191 C189 1.375 . S
C191 C193 1.382 . S
C191 H195 0.950 . S
H192 C187 0.949 . S
C193 C188 1.399 . S
C193 C191 1.382 . S
C193 H194 0.952 . S
H194 C193 0.952 . S
H195 C191 0.950 . S
H196 C197 0.949 . S
C197 H196 0.949 . S
C197 C198 1.395 . S
C197 C199 1.391 . S
C198 C197 1.395 . S
C198 C201 1.390 . S
C199 C197 1.391 . S
C199 C203 1.387 . S
C199 C204 1.491 . S
H200 C201 0.950 . S
C201 C198 1.390 . S
C201 H200 0.950 . S
C201 C202 1.378 . S
C202 C201 1.378 . S
C202 C203 1.409 . S
C203 C199 1.387 . S
C203 C202 1.409 . S
C203 H205 0.951 . S
C204 C199 1.491 . S
C204 C206 1.382 1_545 S
C204 C208 1.404 1_545 S
H205 C203 0.951 . S
C206 C204 1.382 1_565 S
C206 C207 1.390 . S
C206 H211 0.949 . S
C207 C206 1.390 . S
C207 C212 1.399 . S
C208 C204 1.404 1_565 S
C208 H209 0.950 1_565 S
C208 C210 1.375 . S
H209 C208 0.950 1_545 S
C210 C208 1.375 . S
C210 C212 1.382 . S
C210 H214 0.950 . S
H211 C206 0.949 . S
C212 C207 1.399 . S
C212 C210 1.382 . S
C212 H213 0.952 . S
H213 C212 0.952 . S
H214 C210 0.950 . S
H215 C216 0.949 . S
C216 H215 0.949 . S
C216 C217 1.395 . S
C216 C218 1.391 . S
C217 C216 1.395 . S
C217 C220 1.390 . S
C218 C216 1.391 . S
C218 C222 1.387 . S
C218 C223 1.491 . S
H219 C220 0.950 . S
C220 C217 1.390 . S
C220 H219 0.950 . S
C220 C221 1.378 . S
C221 C220 1.378 . S
C221 C222 1.409 . S
C222 C218 1.387 . S
C222 C221 1.409 . S
C222 H224 0.951 . S
C223 C218 1.491 . S
C223 C225 1.382 . S
C223 C227 1.404 . S
H224 C222 0.951 . S
C225 C223 1.382 . S
C225 C226 1.390 . S
C225 H230 0.949 . S
C226 C225 1.390 . S
C226 C231 1.399 . S
C227 C223 1.404 . S
C227 H228 0.950 . S
C227 C229 1.375 . S
H228 C227 0.950 . S
C229 C227 1.375 . S
C229 C231 1.382 . S
C229 H233 0.950 . S
H230 C225 0.949 . S
C231 C226 1.399 . S
C231 C229 1.382 . S
C231 H232 0.952 . S
H232 C231 0.952 . S
H233 C229 0.950 . S
H234 C240 0.930 . S
H235 C244 0.930 . S
H236 C249 0.929 . S
H237 C247 0.929 . S
H238 C242 0.929 . S
H239 C248 0.929 . S
C240 H234 0.930 . S
C240 C241 1.367 . S
C240 C248 1.378 . S
C241 C240 1.367 . S
C241 C249 1.433 . S
C242 H238 0.929 . S
C242 C244 1.378 . S
C242 C246 1.350 . S
C243 C246 1.463 . S
C243 C248 1.350 . S
C243 N251 1.427 . S
C244 H235 0.930 . S
C244 C242 1.378 . S
C244 C245 1.367 . S
C245 C244 1.367 . S
C245 C247 1.433 . S
C246 C242 1.350 . S
C246 C243 1.463 . S
C246 N250 1.427 . S
C247 H237 0.929 . S
C247 C245 1.433 . S
C247 N250 1.384 . S
C248 H239 0.929 . S
C248 C240 1.378 . S
C248 C243 1.350 . S
C249 H236 0.929 . S
C249 C241 1.433 . S
C249 N251 1.384 . S
N250 C246 1.427 . S
N250 C247 1.384 . S
N251 C243 1.427 . S
N251 C249 1.384 . S
H252 C258 0.930 . S
H253 C262 0.930 . S
H254 C267 0.929 . S
H255 C265 0.929 . S
H256 C260 0.929 . S
H257 C266 0.929 . S
C258 H252 0.930 . S
C258 C259 1.367 . S
C258 C266 1.378 . S
C259 C258 1.367 . S
C259 C267 1.433 . S
C260 H256 0.929 . S
C260 C262 1.378 . S
C260 C264 1.350 . S
C261 C264 1.463 . S
C261 C266 1.350 . S
C261 N269 1.427 . S
C262 H253 0.930 . S
C262 C260 1.378 . S
C262 C263 1.367 . S
C263 C262 1.367 . S
C263 C265 1.433 . S
C264 C260 1.350 . S
C264 C261 1.463 . S
C264 N268 1.427 . S
C265 H255 0.929 . S
C265 C263 1.433 . S
C265 N268 1.384 . S
C266 H257 0.929 . S
C266 C258 1.378 . S
C266 C261 1.350 . S
C267 H254 0.929 . S
C267 C259 1.433 . S
C267 N269 1.384 . S
N268 C264 1.427 . S
N268 C265 1.384 . S
N269 C261 1.427 . S
N269 C267 1.384 . S
H270 C276 0.930 . S
H271 C280 0.930 . S
H272 C285 0.929 . S
H273 C283 0.929 . S
H274 C278 0.929 . S
H275 C284 0.929 . S
C276 H270 0.930 . S
C276 C277 1.367 . S
C276 C284 1.378 . S
C277 C276 1.367 . S
C277 C285 1.433 . S
C278 H274 0.929 . S
C278 C280 1.378 . S
C278 C282 1.350 . S
C279 C282 1.463 . S
C279 C284 1.350 . S
C279 N287 1.427 . S
C280 H271 0.930 . S
C280 C278 1.378 . S
C280 C281 1.367 . S
C281 C280 1.367 . S
C281 C283 1.433 . S
C282 C278 1.350 . S
C282 C279 1.463 . S
C282 N286 1.427 . S
C283 H273 0.929 . S
C283 C281 1.433 . S
C283 N286 1.384 . S
C284 H275 0.929 . S
C284 C276 1.378 . S
C284 C279 1.350 . S
C285 H272 0.929 . S
C285 C277 1.433 . S
C285 N287 1.384 . S
N286 C282 1.427 . S
N286 C283 1.384 . S
N287 C279 1.427 . S
N287 C285 1.384 . S
H288 C294 0.930 . S
H289 C298 0.930 . S
H290 C303 0.929 . S
H291 C301 0.929 . S
H292 C296 0.929 . S
H293 C302 0.929 . S
C294 H288 0.930 . S
C294 C295 1.367 . S
C294 C302 1.378 . S
C295 C294 1.367 . S
C295 C303 1.433 . S
C296 H292 0.929 . S
C296 C298 1.378 . S
C296 C300 1.350 . S
C297 C300 1.463 . S
C297 C302 1.350 . S
C297 N305 1.427 . S
C298 H289 0.930 . S
C298 C296 1.378 . S
C298 C299 1.367 . S
C299 C298 1.367 . S
C299 C301 1.433 . S
C300 C296 1.350 . S
C300 C297 1.463 . S
C300 N304 1.427 . S
C301 H291 0.929 . S
C301 C299 1.433 . S
C301 N304 1.384 . S
C302 H293 0.929 . S
C302 C294 1.378 . S
C302 C297 1.350 . S
C303 H290 0.929 . S
C303 C295 1.433 . S
C303 N305 1.384 . S
N304 C300 1.427 . S
N304 C301 1.384 . S
N305 C297 1.427 . S
N305 C303 1.384 . S
H306 C312 0.930 . S
H307 C316 0.930 . S
H308 C321 0.929 . S
H309 C319 0.929 . S
H310 C314 0.929 . S
H311 C320 0.929 . S
C312 H306 0.930 . S
C312 C313 1.367 . S
C312 C320 1.378 . S
C313 C312 1.367 . S
C313 C321 1.433 . S
C314 H310 0.929 . S
C314 C316 1.378 . S
C314 C318 1.350 . S
C315 C318 1.463 . S
C315 C320 1.350 . S
C315 N323 1.427 . S
C316 H307 0.930 . S
C316 C314 1.378 . S
C316 C317 1.367 . S
C317 C316 1.367 . S
C317 C319 1.433 . S
C318 C314 1.350 . S
C318 C315 1.463 . S
C318 N322 1.427 . S
C319 H309 0.929 . S
C319 C317 1.433 . S
C319 N322 1.384 . S
C320 H311 0.929 . S
C320 C312 1.378 . S
C320 C315 1.350 . S
C321 H308 0.929 . S
C321 C313 1.433 . S
C321 N323 1.384 . S
N322 C318 1.427 . S
N322 C319 1.384 . S
N323 C315 1.427 . S
N323 C321 1.384 . S
H324 C330 0.930 . S
H325 C334 0.930 . S
H326 C339 0.929 . S
H327 C337 0.929 . S
H328 C332 0.929 . S
H329 C338 0.929 . S
C330 H324 0.930 . S
C330 C331 1.367 . S
C330 C338 1.378 . S
C331 C330 1.367 . S
C331 C339 1.433 . S
C332 H328 0.929 . S
C332 C334 1.378 . S
C332 C336 1.350 . S
C333 C336 1.463 . S
C333 C338 1.350 . S
C333 N341 1.427 . S
C334 H325 0.930 . S
C334 C332 1.378 . S
C334 C335 1.367 . S
C335 C334 1.367 . S
C335 C337 1.433 . S
C336 C332 1.350 . S
C336 C333 1.463 . S
C336 N340 1.427 . S
C337 H327 0.929 . S
C337 C335 1.433 . S
C337 N340 1.384 . S
C338 H329 0.929 . S
C338 C330 1.378 . S
C338 C333 1.350 . S
C339 H326 0.929 . S
C339 C331 1.433 . S
C339 N341 1.384 . S
N340 C336 1.427 . S
N340 C337 1.384 . S
N341 C333 1.427 . S
N341 C339 1.384 . S
H342 C348 0.930 . S
H343 C352 0.930 . S
H344 C357 0.929 . S
H345 C355 0.929 . S
H346 C350 0.929 . S
H347 C356 0.929 . S
C348 H342 0.930 . S
C348 C349 1.367 . S
C348 C356 1.378 . S
C349 C348 1.367 . S
C349 C357 1.433 . S
C350 H346 0.929 . S
C350 C352 1.378 . S
C350 C354 1.350 . S
C351 C354 1.463 . S
C351 C356 1.350 . S
C351 N359 1.427 . S
C352 H343 0.930 . S
C352 C350 1.378 . S
C352 C353 1.367 . S
C353 C352 1.367 . S
C353 C355 1.433 . S
C354 C350 1.350 . S
C354 C351 1.463 . S
C354 N358 1.427 . S
C355 H345 0.929 . S
C355 C353 1.433 . S
C355 N358 1.384 . S
C356 H347 0.929 . S
C356 C348 1.378 . S
C356 C351 1.350 . S
C357 H344 0.929 . S
C357 C349 1.433 . S
C357 N359 1.384 . S
N358 C354 1.427 . S
N358 C355 1.384 . S
N359 C351 1.427 . S
N359 C357 1.384 . S
H360 C366 0.930 . S
H361 C370 0.930 . S
H362 C375 0.929 . S
H363 C373 0.929 . S
H364 C368 0.929 . S
H365 C374 0.929 . S
C366 H360 0.930 . S
C366 C367 1.367 . S
C366 C374 1.378 . S
C367 C366 1.367 . S
C367 C375 1.433 . S
C368 H364 0.929 . S
C368 C370 1.378 . S
C368 C372 1.350 . S
C369 C372 1.463 . S
C369 C374 1.350 . S
C369 N377 1.427 . S
C370 H361 0.930 . S
C370 C368 1.378 . S
C370 C371 1.367 . S
C371 C370 1.367 . S
C371 C373 1.433 . S
C372 C368 1.350 . S
C372 C369 1.463 . S
C372 N376 1.427 . S
C373 H363 0.929 . S
C373 C371 1.433 . S
C373 N376 1.384 . S
C374 H365 0.929 . S
C374 C366 1.378 . S
C374 C369 1.350 . S
C375 H362 0.929 . S
C375 C367 1.433 . S
C375 N377 1.384 . S
N376 C372 1.427 . S
N376 C373 1.384 . S
N377 C369 1.427 . S
N377 C375 1.384 . S
H378 C384 0.930 . S
H379 C388 0.930 . S
H380 C393 0.929 . S
H381 C391 0.929 . S
H382 C386 0.929 . S
H383 C392 0.929 . S
C384 H378 0.930 . S
C384 C385 1.367 . S
C384 C392 1.378 . S
C385 C384 1.367 . S
C385 C393 1.433 . S
C386 H382 0.929 . S
C386 C388 1.378 . S
C386 C390 1.350 . S
C387 C390 1.463 . S
C387 C392 1.350 . S
C387 N395 1.427 . S
C388 H379 0.930 . S
C388 C386 1.378 . S
C388 C389 1.367 . S
C389 C388 1.367 . S
C389 C391 1.433 . S
C390 C386 1.350 . S
C390 C387 1.463 . S
C390 N394 1.427 . S
C391 H381 0.929 . S
C391 C389 1.433 . S
C391 N394 1.384 . S
C392 H383 0.929 . S
C392 C384 1.378 . S
C392 C387 1.350 . S
C393 H380 0.929 . S
C393 C385 1.433 . S
C393 N395 1.384 . S
N394 C390 1.427 . S
N394 C391 1.384 . S
N395 C387 1.427 . S
N395 C393 1.384 . S
H396 C402 0.930 . S
H397 C406 0.930 . S
H398 C411 0.929 . S
H399 C409 0.929 . S
H400 C404 0.929 . S
H401 C410 0.929 . S
C402 H396 0.930 . S
C402 C403 1.367 . S
C402 C410 1.378 . S
C403 C402 1.367 . S
C403 C411 1.433 . S
C404 H400 0.929 . S
C404 C406 1.378 . S
C404 C408 1.350 . S
C405 C408 1.463 . S
C405 C410 1.350 . S
C405 N413 1.427 . S
C406 H397 0.930 . S
C406 C404 1.378 . S
C406 C407 1.367 . S
C407 C406 1.367 . S
C407 C409 1.433 . S
C408 C404 1.350 . S
C408 C405 1.463 . S
C408 N412 1.427 . S
C409 H399 0.929 . S
C409 C407 1.433 . S
C409 N412 1.384 . S
C410 H401 0.929 . S
C410 C402 1.378 . S
C410 C405 1.350 . S
C411 H398 0.929 . S
C411 C403 1.433 . S
C411 N413 1.384 . S
N412 C408 1.427 . S
N412 C409 1.384 . S
N413 C405 1.427 . S
N413 C411 1.384 . S
H414 C420 0.930 . S
H415 C424 0.930 . S
H416 C429 0.929 . S
H417 C427 0.929 . S
H418 C422 0.929 . S
H419 C428 0.929 . S
C420 H414 0.930 . S
C420 C421 1.367 . S
C420 C428 1.378 . S
C421 C420 1.367 . S
C421 C429 1.433 . S
C422 H418 0.929 . S
C422 C424 1.378 . S
C422 C426 1.350 . S
C423 C426 1.463 . S
C423 C428 1.350 . S
C423 N431 1.427 . S
C424 H415 0.930 . S
C424 C422 1.378 . S
C424 C425 1.367 . S
C425 C424 1.367 . S
C425 C427 1.433 . S
C426 C422 1.350 . S
C426 C423 1.463 . S
C426 N430 1.427 . S
C427 H417 0.929 . S
C427 C425 1.433 . S
C427 N430 1.384 . S
C428 H419 0.929 . S
C428 C420 1.378 . S
C428 C423 1.350 . S
C429 H416 0.929 . S
C429 C421 1.433 . S
C429 N431 1.384 . S
N430 C426 1.427 . S
N430 C427 1.384 . S
N431 C423 1.427 . S
N431 C429 1.384 . S
H432 C438 0.930 . S
H433 C442 0.930 . S
H434 C447 0.929 . S
H435 C445 0.929 . S
H436 C440 0.929 . S
H437 C446 0.929 . S
C438 H432 0.930 . S
C438 C439 1.367 . S
C438 C446 1.378 . S
C439 C438 1.367 . S
C439 C447 1.433 . S
C440 H436 0.929 . S
C440 C442 1.378 . S
C440 C444 1.350 . S
C441 C444 1.463 . S
C441 C446 1.350 . S
C441 N449 1.427 . S
C442 H433 0.930 . S
C442 C440 1.378 . S
C442 C443 1.367 . S
C443 C442 1.367 . S
C443 C445 1.433 . S
C444 C440 1.350 . S
C444 C441 1.463 . S
C444 N448 1.427 . S
C445 H435 0.929 . S
C445 C443 1.433 . S
C445 N448 1.384 . S
C446 H437 0.929 . S
C446 C438 1.378 . S
C446 C441 1.350 . S
C447 H434 0.929 . S
C447 C439 1.433 . S
C447 N449 1.384 . S
N448 C444 1.427 . S
N448 C445 1.384 . S
N449 C441 1.427 . S
N449 C447 1.384 . S
H450 C456 0.930 . S
H451 C460 0.930 1_655 S
H452 C465 0.904 1_655 S
H453 C463 0.929 . S
H454 C458 0.929 1_655 S
H455 C464 0.929 . S
C456 H450 0.930 . S
C456 C457 1.367 . S
C456 C464 1.378 . S
C457 C456 1.367 . S
C457 C465 1.454 . S
C458 H454 0.929 1_455 S
C458 C460 1.378 . S
C458 C462 1.350 . S
C459 C462 1.463 1_554 S
C459 C464 1.350 . S
C459 N467 1.427 . S
C460 H451 0.930 1_455 S
C460 C458 1.378 . S
C460 C461 1.367 . S
C461 C460 1.367 . S
C461 C463 1.433 . S
C462 C458 1.350 . S
C462 C459 1.463 1_556 S
C462 N466 1.427 . S
C463 H453 0.929 . S
C463 C461 1.433 . S
C463 N466 1.384 . S
C464 H455 0.929 . S
C464 C456 1.378 . S
C464 C459 1.350 . S
C465 H452 0.904 1_455 S
C465 C457 1.454 . S
C465 N467 1.390 . S
N466 C462 1.427 . S
N466 C463 1.384 . S
N467 C459 1.427 . S
N467 C465 1.390 . S
H468 C474 0.930 . S
H469 C478 0.930 . S
H470 C483 0.933 1_565 S
H471 C481 0.929 . S
H472 C476 0.929 . S
H473 C482 0.929 . S
C474 H468 0.930 . S
C474 C475 1.367 . S
C474 C482 1.378 . S
C475 C474 1.367 . S
C475 C483 1.433 . S
C476 H472 0.929 . S
C476 C478 1.378 . S
C476 C480 1.350 . S
C477 C480 1.463 . S
C477 C482 1.350 . S
C477 N485 1.427 . S
C478 H469 0.930 . S
C478 C476 1.378 . S
C478 C479 1.367 . S
C479 C478 1.367 . S
C479 C481 1.433 . S
C480 C476 1.350 . S
C480 C477 1.463 . S
C480 N484 1.427 . S
C481 H471 0.929 . S
C481 C479 1.433 . S
C481 N484 1.384 . S
C482 H473 0.929 . S
C482 C474 1.378 . S
C482 C477 1.350 . S
C483 H470 0.933 1_545 S
C483 C475 1.433 . S
C483 N485 1.384 . S
N484 C480 1.427 . S
N484 C481 1.384 . S
N485 C477 1.427 . S
N485 C483 1.384 . S
H486 C492 0.930 . S
H487 C496 0.930 . S
H488 C501 0.929 . S
H489 C499 0.929 . S
H490 C494 0.929 . S
H491 C500 0.929 . S
C492 H486 0.930 . S
C492 C493 1.367 . S
C492 C500 1.378 . S
C493 C492 1.367 . S
C493 C501 1.433 . S
C494 H490 0.929 . S
C494 C496 1.378 . S
C494 C498 1.350 . S
C495 C498 1.463 . S
C495 C500 1.350 . S
C495 N503 1.427 . S
C496 H487 0.930 . S
C496 C494 1.378 . S
C496 C497 1.367 . S
C497 C496 1.367 . S
C497 C499 1.433 . S
C498 C494 1.350 . S
C498 C495 1.463 . S
C498 N502 1.427 . S
C499 H489 0.929 . S
C499 C497 1.433 . S
C499 N502 1.384 . S
C500 H491 0.929 . S
C500 C492 1.378 . S
C500 C495 1.350 . S
C501 H488 0.929 . S
C501 C493 1.433 . S
C501 N503 1.384 . S
N502 C498 1.427 . S
N502 C499 1.384 . S
N503 C495 1.427 . S
N503 C501 1.384 . S
H504 C510 0.930 1_565 S
H505 C514 0.930 . S
H506 C519 0.929 . S
H507 C517 0.929 1_565 S
H508 C512 0.929 . S
H509 C518 0.929 1_565 S
C510 H504 0.930 1_545 S
C510 C511 1.367 . S
C510 C518 1.378 . S
C511 C510 1.367 . S
C511 C519 1.433 . S
C512 H508 0.929 . S
C512 C514 1.378 . S
C512 C516 1.350 . S
C513 C516 1.463 . S
C513 C518 1.350 . S
C513 N521 1.427 . S
C514 H505 0.930 . S
C514 C512 1.378 . S
C514 C515 1.367 . S
C515 C514 1.367 . S
C515 C517 1.433 . S
C516 C512 1.350 . S
C516 C513 1.463 . S
C516 N520 1.427 . S
C517 H507 0.929 1_545 S
C517 C515 1.433 . S
C517 N520 1.384 . S
C518 H509 0.929 1_545 S
C518 C510 1.378 . S
C518 C513 1.350 . S
C519 H506 0.929 . S
C519 C511 1.433 . S
C519 N521 1.384 . S
N520 C516 1.427 . S
N520 C517 1.384 . S
N521 C513 1.427 . S
N521 C519 1.384 . S
H522 C528 0.930 . S
H523 C532 0.930 . S
H524 C537 0.929 . S
H525 C535 0.929 . S
H526 C530 0.929 . S
H527 C536 0.929 . S
C528 H522 0.930 . S
C528 C529 1.367 . S
C528 C536 1.378 . S
C529 C528 1.367 . S
C529 C537 1.433 . S
C530 H526 0.929 . S
C530 C532 1.378 . S
C530 C534 1.350 1_554 S
C531 C534 1.463 . S
C531 C536 1.350 . S
C531 N539 1.427 . S
C532 H523 0.930 . S
C532 C530 1.378 . S
C532 C533 1.367 . S
C533 C532 1.367 . S
C533 C535 1.433 . S
C534 C530 1.350 1_556 S
C534 C531 1.463 . S
C534 N538 1.427 1_556 S
C535 H525 0.929 . S
C535 C533 1.433 . S
C535 N538 1.384 . S
C536 H527 0.929 . S
C536 C528 1.378 . S
C536 C531 1.350 . S
C537 H524 0.929 . S
C537 C529 1.433 . S
C537 N539 1.384 . S
N538 C534 1.427 1_554 S
N538 C535 1.384 . S
N539 C531 1.427 . S
N539 C537 1.384 . S
H540 C546 0.930 . S
H541 C550 0.930 . S
H542 C555 0.929 . S
H543 C553 0.929 . S
H544 C548 0.929 . S
H545 C554 0.929 . S
C546 H540 0.930 . S
C546 C547 1.367 . S
C546 C554 1.378 . S
C547 C546 1.367 . S
C547 C555 1.433 . S
C548 H544 0.929 . S
C548 C550 1.378 . S
C548 C552 1.350 . S
C549 C552 1.463 . S
C549 C554 1.350 . S
C549 N557 1.427 . S
C550 H541 0.930 . S
C550 C548 1.378 . S
C550 C551 1.367 . S
C551 C550 1.367 . S
C551 C553 1.433 . S
C552 C548 1.350 . S
C552 C549 1.463 . S
C552 N556 1.427 . S
C553 H543 0.929 . S
C553 C551 1.433 . S
C553 N556 1.384 . S
C554 H545 0.929 . S
C554 C546 1.378 . S
C554 C549 1.350 . S
C555 H542 0.929 . S
C555 C547 1.433 . S
C555 N557 1.384 . S
N556 C552 1.427 . S
N556 C553 1.384 . S
N557 C549 1.427 . S
N557 C555 1.384 . S
C241 C6 0.772 . S
C245 C226 0.777 . S
C259 C59 1.992 . S
C263 C188 1.932 . S
C277 C86 1.288 . S
C281 C207 1.239 . S
C295 C15 0.272 . S
C299 C221 0.147 . S
C317 C183 1.859 . S
C313 C50 1.887 . S
C335 C202 1.109 . S
C331 C95 1.125 . S
C349 C46 1.331 . S
C353 C150 1.248 . S
C367 C99 3.067 . S
C371 C164 3.042 1_655 S
C385 C10 1.895 . S
C389 C126 1.894 . S
C407 C145 1.088 . S
C403 C55 1.104 . S
C425 C169 3.068 . S
C421 C90 3.114 . S
C439 C19 1.994 . S
C443 C131 1.946 . S
C461 C160 1.719 . S
C457 C18 1.703 . S
C475 C49 1.465 . S
C479 C122 1.528 . S
C493 C98 1.553 . S
C497 C141 1.564 . S
C515 C198 1.554 . S
C511 C58 1.563 . S
C533 C217 1.360 . S
C529 C89 1.346 . S
C547 C9 1.440 . S
C551 C179 1.488 . S
