# Generated by pormake.
# Topology zzz, (3,6)-cn, num edge types: 1
# Building blocks:
#     Node 0, Type 0, BuildingBlock: ESEHIV_clean_linker_0, # of connection points: 3
#     Node 1, Type 0, BuildingBlock: ESEHIV_clean_linker_0, # of connection points: 3
#     Node 2, Type 0, BuildingBlock: ESEHIV_clean_linker_0, # of connection points: 3
#     Node 3, Type 0, BuildingBlock: ESEHIV_clean_linker_0, # of connection points: 3
#     Node 4, Type 0, BuildingBlock: ESEHIV_clean_linker_0, # of connection points: 3
#     Node 5, Type 0, BuildingBlock: ESEHIV_clean_linker_0, # of connection points: 3
#     Node 6, Type 0, BuildingBlock: ESEHIV_clean_linker_0, # of connection points: 3
#     Node 7, Type 0, BuildingBlock: ESEHIV_clean_linker_0, # of connection points: 3
#     Node 8, Type 1, BuildingBlock: PAMTOO_clean_sbu_0, # of connection points: 6
#     Node 9, Type 1, BuildingBlock: PAMTOO_clean_sbu_0, # of connection points: 6
#     Node 10, Type 1, BuildingBlock: PAMTOO_clean_sbu_0, # of connection points: 6
#     Node 11, Type 1, BuildingBlock: PAMTOO_clean_sbu_0, # of connection points: 6
#     Edge 12, Type (0, 1), BuildingBlock: UVAHIK_clean_linker_0, # of connection points: 2
#     Edge 13, Type (0, 1), BuildingBlock: UVAHIK_clean_linker_0, # of connection points: 2
#     Edge 14, Type (0, 1), BuildingBlock: UVAHIK_clean_linker_0, # of connection points: 2
#     Edge 15, Type (0, 1), BuildingBlock: UVAHIK_clean_linker_0, # of connection points: 2
#     Edge 16, Type (0, 1), BuildingBlock: UVAHIK_clean_linker_0, # of connection points: 2
#     Edge 17, Type (0, 1), BuildingBlock: UVAHIK_clean_linker_0, # of connection points: 2
#     Edge 18, Type (0, 1), BuildingBlock: UVAHIK_clean_linker_0, # of connection points: 2
#     Edge 19, Type (0, 1), BuildingBlock: UVAHIK_clean_linker_0, # of connection points: 2
#     Edge 20, Type (0, 1), BuildingBlock: UVAHIK_clean_linker_0, # of connection points: 2
#     Edge 21, Type (0, 1), BuildingBlock: UVAHIK_clean_linker_0, # of connection points: 2
#     Edge 22, Type (0, 1), BuildingBlock: UVAHIK_clean_linker_0, # of connection points: 2
#     Edge 23, Type (0, 1), BuildingBlock: UVAHIK_clean_linker_0, # of connection points: 2
#     Edge 24, Type (0, 1), BuildingBlock: UVAHIK_clean_linker_0, # of connection points: 2
#     Edge 25, Type (0, 1), BuildingBlock: UVAHIK_clean_linker_0, # of connection points: 2
#     Edge 26, Type (0, 1), BuildingBlock: UVAHIK_clean_linker_0, # of connection points: 2
#     Edge 27, Type (0, 1), BuildingBlock: UVAHIK_clean_linker_0, # of connection points: 2
#     Edge 28, Type (0, 1), BuildingBlock: UVAHIK_clean_linker_0, # of connection points: 2
#     Edge 29, Type (0, 1), BuildingBlock: UVAHIK_clean_linker_0, # of connection points: 2
#     Edge 30, Type (0, 1), BuildingBlock: UVAHIK_clean_linker_0, # of connection points: 2
#     Edge 31, Type (0, 1), BuildingBlock: UVAHIK_clean_linker_0, # of connection points: 2
#     Edge 32, Type (0, 1), BuildingBlock: UVAHIK_clean_linker_0, # of connection points: 2
#     Edge 33, Type (0, 1), BuildingBlock: UVAHIK_clean_linker_0, # of connection points: 2
#     Edge 34, Type (0, 1), BuildingBlock: UVAHIK_clean_linker_0, # of connection points: 2
#     Edge 35, Type (0, 1), BuildingBlock: UVAHIK_clean_linker_0, # of connection points: 2
# Relax obj value: 0.349
# Max RMSD: 0.276
# Mean RMSD: 0.219
data_MOF--net-zzz--node1-PAMTOO_clean_sbu_0--node2-ESEHIV_clean_linker_0--edge1-UVAHIK_clean_linker_0
_symmetry_space_group_name_H-M    P1
_symmetry_Int_Tables_number       1
_symmetry_cell_setting            triclinic
loop_
_symmetry_equiv_pos_as_xyz
'x, y, z'
_cell_length_a     65.100642
_cell_length_b     56.296371
_cell_length_c     21.162884
_cell_angle_alpha  91.374916
_cell_angle_beta   81.826343
_cell_angle_gamma 84.656407
loop_
_atom_site_label
_atom_site_type_symbol
_atom_site_fract_x
_atom_site_fract_y
_atom_site_fract_z
_atom_type_partial_charge
H0 H 0.79953 0.53854 0.41567 0.0
H1 H 0.74719 0.53891 0.31303 0.0
H2 H 0.74963 0.49571 0.47768 0.0
C3 C 0.78408 0.53348 0.41154 0.0
C4 C 0.77529 0.51752 0.45497 0.0
C5 C 0.77441 0.54077 0.35923 0.0
C6 C 0.75482 0.53334 0.35334 0.0
C7 C 0.7457 0.51721 0.39565 0.0
C8 C 0.75616 0.50885 0.44618 0.0
H9 H 0.05095 0.74466 0.31296 0.0
H10 H 0.04416 0.68547 0.18957 0.0
H11 H 1.00446 0.69662 0.37109 0.0
C12 C 0.04372 0.72846 0.30495 0.0
C13 C 0.02747 0.72193 0.35033 0.0
C14 C 0.0496 0.71556 0.24691 0.0
C15 C 0.03974 0.69528 0.23498 0.0
C16 C 0.02367 0.68806 0.27973 0.0
C17 C 0.01718 0.70176 0.33703 0.0
H18 H 0.71577 0.03927 0.29733 0.0
H19 H 0.77004 0.03406 0.1548 0.0
H20 H 0.76859 0.98958 0.3183 0.0
C21 C 0.73167 0.03188 0.28064 0.0
C22 C 0.74099 0.01406 0.3154 0.0
C23 C 0.74191 0.039 0.22252 0.0
C24 C 0.76206 0.02862 0.19989 0.0
C25 C 0.77198 0.01106 0.2343 0.0
C26 C 0.76133 0.00358 0.29227 0.0
H27 H 0.50137 0.69874 0.27219 0.0
H28 H 0.51934 0.76923 0.30308 0.0
H29 H 0.49545 0.75071 0.12974 0.0
C30 C 0.50286 0.71675 0.25609 0.0
C31 C 0.49727 0.72291 0.19692 0.0
C32 C 0.51085 0.73318 0.29442 0.0
C33 C 0.51338 0.75639 0.27317 0.0
C34 C 0.50739 0.76306 0.21392 0.0
C35 C 0.4997 0.74599 0.17587 0.0
H36 H 0.20688 0.53905 0.09214 0.0
H37 H 0.26516 0.5358 0.16532 0.0
H38 H 0.25764 0.488 0.01026 0.0
C39 C 0.223 0.53182 0.08944 0.0
C40 C 0.23105 0.51381 0.04281 0.0
C41 C 0.23505 0.53994 0.13395 0.0
C42 C 0.25553 0.52958 0.1318 0.0
C43 C 0.26365 0.51055 0.08876 0.0
C44 C 0.25134 0.50249 0.04413 0.0
H45 H 0.97671 0.24276 0.11262 0.0
H46 H 0.98566 0.30205 0.23311 0.0
H47 H 0.02485 0.28825 0.0513 0.0
C48 C 0.98448 0.25861 0.12014 0.0
C49 C 1.00091 0.26426 0.07435 0.0
C50 C 0.97919 0.27191 0.17774 0.0
C51 C 0.98966 0.29187 0.18813 0.0
C52 C 0.00585 0.29825 0.14241 0.0
C53 C 0.01191 0.28398 0.08589 0.0
H54 H 0.29562 0.97358 0.2259 0.0
H55 H 0.23815 0.96555 0.3459 0.0
H56 H 0.23728 0.9957 0.16032 0.0
C57 C 0.2787 0.97581 0.23383 0.0
C58 C 0.26788 0.98525 0.18592 0.0
C59 C 0.26806 0.96873 0.29124 0.0
C60 C 0.2463 0.97105 0.30111 0.0
C61 C 0.23494 0.98092 0.2547 0.0
C62 C 0.24582 0.98837 0.19689 0.0
H63 H 0.53315 0.28797 0.14408 0.0
H64 H 0.50059 0.22497 0.16304 0.0
H65 H 0.53154 0.24927 0.31656 0.0
C66 C 0.52857 0.27283 0.17167 0.0
C67 C 0.5336 0.27072 0.2335 0.0
C68 C 0.51657 0.25667 0.14614 0.0
C69 C 0.51024 0.23725 0.18207 0.0
C70 C 0.51599 0.23419 0.24344 0.0
C71 C 0.52763 0.25108 0.26869 0.0
Dy72 Dy 0.98632 0.99946 0.68138 0.0
Dy73 Dy 0.01664 0.98196 0.78475 0.0
C74 C 0.03523 0.99129 0.642 0.0
O75 O 0.99545 0.96092 0.65515 0.0
O76 O 1.00577 0.94805 0.74915 0.0
O77 O 0.98016 0.00608 0.58519 0.0
O78 O 0.95528 0.01184 0.66514 0.0
O79 O 0.98525 0.99439 0.83944 0.0
O80 O 0.96745 0.98252 0.7617 0.0
O81 O 0.01874 0.0213 0.77974 0.0
O82 O 0.98852 0.03254 0.73966 0.0
O83 O 0.02124 0.96502 0.87249 0.0
O84 O 0.04678 0.98077 0.81685 0.0
C85 C 1.00036 0.94366 0.69268 0.0
O86 O 0.01882 0.00659 0.63989 0.0
O87 O 0.03524 0.97585 0.68751 0.0
C88 C 0.95396 0.03745 0.58013 0.0
C89 C 0.94041 0.08172 0.53383 0.0
C90 C 0.95192 0.08072 0.58526 0.0
C91 C 0.95872 0.05873 0.60808 0.0
C92 C 0.94227 0.03834 0.52948 0.0
C93 C 0.93557 0.06032 0.50634 0.0
C94 C 0.96082 0.01432 0.60425 0.0
C95 C 0.96798 0.988 0.82194 0.0
C96 C 1.00436 0.03784 0.76767 0.0
C97 C 0.05511 0.94697 0.87503 0.0
C98 C 0.07896 0.90559 0.90465 0.0
C99 C 0.06608 0.90469 0.85674 0.0
C100 C 0.05422 0.92527 0.84203 0.0
C101 C 0.06876 0.94823 0.92017 0.0
C102 C 0.08064 0.92771 0.93482 0.0
C103 C 0.04105 0.96806 0.86578 0.0
H104 H 0.95614 0.09691 0.60671 0.0
H105 H 0.96778 0.0583 0.64726 0.0
H106 H 0.93838 0.02204 0.50773 0.0
H107 H 0.92662 0.0606 0.46691 0.0
H108 H 0.06429 0.88788 0.83313 0.0
H109 H 0.04378 0.92407 0.80674 0.0
H110 H 0.06972 0.96493 0.94563 0.0
H111 H 0.09061 0.92899 0.97136 0.0
Dy112 Dy 0.49879 0.98456 0.69717 0.0
Dy113 Dy 0.50748 0.02427 0.80298 0.0
C114 C 0.49785 0.03887 0.66641 0.0
O115 O 0.53371 0.98223 0.6888 0.0
O116 O 0.53742 0.01858 0.73558 0.0
O117 O 0.48696 0.97564 0.61062 0.0
O118 O 0.50079 0.94761 0.66421 0.0
O119 O 0.51888 0.98841 0.83567 0.0
O120 O 0.49524 0.96824 0.79239 0.0
O121 O 0.47499 0.0155 0.83645 0.0
O122 O 0.46697 0.00091 0.74161 0.0
O123 O 0.51301 0.03477 0.89779 0.0
O124 O 0.51068 0.06111 0.82578 0.0
C125 C 0.54526 0.99939 0.70044 0.0
O126 O 0.50568 0.01746 0.64493 0.0
O127 O 0.49196 0.04312 0.72783 0.0
C128 C 0.47167 0.93965 0.6157 0.0
C129 C 0.43493 0.91884 0.5999 0.0
C130 C 0.43458 0.93739 0.646 0.0
C131 C 0.4528 0.94758 0.65403 0.0
C132 C 0.47245 0.92031 0.57232 0.0
C133 C 0.45424 0.90986 0.56473 0.0
C134 C 0.49004 0.95269 0.61793 0.0
C135 C 0.50815 0.96984 0.83409 0.0
C136 C 0.46127 0.00896 0.80111 0.0
C137 C 0.53463 0.06605 0.8972 0.0
C138 C 0.57179 0.08227 0.92795 0.0
C139 C 0.57043 0.07458 0.86507 0.0
C140 C 0.55205 0.06644 0.84991 0.0
C141 C 0.53573 0.07415 0.95957 0.0
C142 C 0.55416 0.08216 0.97491 0.0
C143 C 0.51549 0.05669 0.88228 0.0
H144 H 0.42007 0.94509 0.67341 0.0
H145 H 0.45196 0.96241 0.68814 0.0
H146 H 0.48698 0.91384 0.54283 0.0
H147 H 0.45517 0.89531 0.52972 0.0
H148 H 0.58362 0.07466 0.82762 0.0
H149 H 0.55152 0.06024 0.80137 0.0
H150 H 0.52245 0.07387 0.99667 0.0
H151 H 0.55476 0.08754 0.02403 0.0
Dy152 Dy 0.5363 0.4911 0.74561 0.0
Dy153 Dy 0.49109 0.48968 0.6834 0.0
C154 C 0.5064 0.44946 0.77371 0.0
O155 O 0.54664 0.47793 0.64508 0.0
O156 O 0.51542 0.46692 0.61826 0.0
O157 O 0.56471 0.47396 0.77358 0.0
O158 O 0.55666 0.51188 0.79168 0.0
O159 O 0.50813 0.51641 0.62648 0.0
O160 O 0.53156 0.52511 0.69423 0.0
O161 O 0.48623 0.5176 0.7619 0.0
O162 O 0.5099 0.50162 0.82322 0.0
O163 O 0.46247 0.5073 0.65814 0.0
O164 O 0.4686 0.46883 0.64781 0.0
C165 C 0.53587 0.46673 0.60773 0.0
O166 O 0.52567 0.45479 0.75921 0.0
O167 O 0.49048 0.46424 0.76332 0.0
C168 C 0.57777 0.4921 0.8621 0.0
C169 C 0.59831 0.49046 0.97224 0.0
C170 C 0.59495 0.4693 0.93995 0.0
C171 C 0.58488 0.4701 0.88551 0.0
C172 C 0.58072 0.51321 0.89514 0.0
C173 C 0.59077 0.51241 0.94944 0.0
C174 C 0.56958 0.49347 0.79989 0.0
C175 C 0.52144 0.5302 0.64585 0.0
C176 C 0.49386 0.51671 0.81601 0.0
C177 C 0.44587 0.48783 0.58 0.0
C178 C 0.42149 0.48629 0.47891 0.0
C179 C 0.4373 0.46792 0.48458 0.0
C180 C 0.4493 0.46864 0.53466 0.0
C181 C 0.43062 0.50655 0.57295 0.0
C182 C 0.41865 0.50584 0.52307 0.0
C183 C 0.45606 0.48749 0.63866 0.0
H184 H 0.6003 0.45205 0.95638 0.0
H185 H 0.5831 0.45348 0.86097 0.0
H186 H 0.57583 0.53048 0.87784 0.0
H187 H 0.59333 0.52912 0.9721 0.0
H188 H 0.43986 0.4525 0.45185 0.0
H189 H 0.46079 0.45379 0.53888 0.0
H190 H 0.42748 0.52149 0.6073 0.0
H191 H 0.40691 0.52052 0.5197 0.0
Dy192 Dy 0.0122 0.5132 0.68128 0.0
Dy193 Dy 1.00405 0.46562 0.76435 0.0
C194 C 0.02423 0.46094 0.61553 0.0
O195 O 0.98268 0.50081 0.65556 0.0
O196 O 0.9727 0.48297 0.74912 0.0
O197 O 0.01682 0.5322 0.59344 0.0
O198 O 0.01427 0.55115 0.68466 0.0
O199 O 1.00207 0.49586 0.83528 0.0
O200 O 0.99172 0.52563 0.7724 0.0
O201 O 0.0386 0.46634 0.75537 0.0
O202 O 0.0409 0.50555 0.72798 0.0
O203 O 0.0071 0.44462 0.84731 0.0
O204 O 0.98886 0.43314 0.7767 0.0
C205 C 0.96825 0.49203 0.6955 0.0
O206 O 0.02888 0.48317 0.61717 0.0
O207 O 0.01277 0.45188 0.66352 0.0
C208 C 0.03685 0.56457 0.60055 0.0
C209 C 0.07221 0.58846 0.5603 0.0
C210 C 0.07414 0.56668 0.59121 0.0
C211 C 0.05661 0.55484 0.61115 0.0
C212 C 0.03472 0.58638 0.57051 0.0
C213 C 0.0523 0.59825 0.55031 0.0
C214 C 0.01843 0.55239 0.62292 0.0
C215 C 0.99384 0.5176 0.82896 0.0
C216 C 0.04902 0.48527 0.74802 0.0
C217 C 0.97321 0.43515 0.88478 0.0
C218 C 0.93955 0.46035 0.96415 0.0
C219 C 0.95842 0.45431 0.98748 0.0
C220 C 0.97513 0.44169 0.94811 0.0
C221 C 0.95341 0.43836 0.86503 0.0
C222 C 0.93679 0.45104 0.90421 0.0
C223 C 0.99207 0.43202 0.83613 0.0
H224 H 0.08928 0.55839 0.59841 0.0
H225 H 0.05846 0.53802 0.63452 0.0
H226 H 0.01949 0.59419 0.5626 0.0
H227 H 0.05034 0.61501 0.52676 0.0
H228 H 0.96086 0.4611 0.03388 0.0
H229 H 0.99012 0.43928 0.96494 0.0
H230 H 0.9512 0.43323 0.81698 0.0
H231 H 0.92216 0.45494 0.88592 0.0
C232 C 0.19991 0.00509 0.27712 0.0
C233 C 0.21179 0.98277 0.2693 0.0
C234 C 0.17917 0.00703 0.30814 0.0
C235 C 0.1485 0.97709 0.43401 0.0
H236 H 0.09925 0.01249 0.38763 0.0
C237 C 0.06863 0.97088 0.58388 0.0
C238 C 0.05402 0.9911 0.59283 0.0
C239 C 0.08681 0.97063 0.53973 0.0
C240 C 0.1129 0.00279 0.40184 0.0
H241 H 0.21086 0.94488 0.28299 0.0
H242 H 0.17491 0.94821 0.33639 0.0
H243 H 0.13252 0.0111 0.31599 0.0
H244 H 0.04698 0.0269 0.5614 0.0
H245 H 0.07914 0.02686 0.48571 0.0
H246 H 0.12958 0.96934 0.52034 0.0
C247 C 0.18155 0.96424 0.3195 0.0
C248 C 0.13193 0.00193 0.36052 0.0
C249 C 0.20208 0.96231 0.28844 0.0
C250 C 0.05791 0.01101 0.55559 0.0
C251 C 0.07634 0.01091 0.51189 0.0
C252 C 0.1297 0.97822 0.4755 0.0
C253 C 0.17012 0.98669 0.33211 0.0
C254 C 0.14986 0.98872 0.37578 0.0
C255 C 0.09121 0.99078 0.50384 0.0
C256 C 0.11146 0.99072 0.45978 0.0
H257 H 0.2071 0.02116 0.26354 0.0
H258 H 0.17074 0.02457 0.31717 0.0
H259 H 0.16215 0.96723 0.44793 0.0
H260 H 0.06602 0.95508 0.61098 0.0
H261 H 0.09741 0.95448 0.53385 0.0
C262 C 0.51313 0.19033 0.25791 0.0
C263 C 0.50952 0.21394 0.28286 0.0
C264 C 0.50942 0.17117 0.29777 0.0
C265 C 0.50571 0.15709 0.46878 0.0
H266 H 0.48525 0.0985 0.41486 0.0
C267 C 0.48933 0.08199 0.6439 0.0
C268 C 0.49638 0.05855 0.62131 0.0
C269 C 0.48911 0.10076 0.60176 0.0
C270 C 0.49112 0.11469 0.43045 0.0
H271 H 0.4978 0.2361 0.36781 0.0
H272 H 0.49098 0.20289 0.43685 0.0
H273 H 0.48776 0.13157 0.34221 0.0
H274 H 0.50828 0.03641 0.53624 0.0
H275 H 0.50802 0.06916 0.46294 0.0
H276 H 0.50923 0.14028 0.55665 0.0
C277 C 0.49729 0.199 0.38714 0.0
C278 C 0.49257 0.13365 0.38878 0.0
C279 C 0.50111 0.21806 0.34752 0.0
C280 C 0.50274 0.05424 0.55535 0.0
C281 C 0.50248 0.07301 0.51319 0.0
C282 C 0.50421 0.13822 0.51035 0.0
C283 C 0.50191 0.17528 0.36328 0.0
C284 C 0.49989 0.1551 0.40746 0.0
C285 C 0.49591 0.09655 0.53597 0.0
C286 C 0.49693 0.11677 0.49178 0.0
H287 H 0.51969 0.18665 0.2083 0.0
H288 H 0.51326 0.15315 0.27779 0.0
H289 H 0.51187 0.1731 0.48437 0.0
H290 H 0.48424 0.08596 0.69434 0.0
H291 H 0.48366 0.11862 0.62082 0.0
C292 C 0.28624 0.4773 0.12723 0.0
C293 C 0.28458 0.49901 0.0962 0.0
C294 C 0.30377 0.47068 0.15689 0.0
C295 C 0.35681 0.48754 0.18093 0.0
H296 H 0.34023 0.46781 0.35343 0.0
C297 C 0.41495 0.47574 0.36678 0.0
C298 C 0.40734 0.48464 0.42933 0.0
C299 C 0.40145 0.47424 0.32088 0.0
C300 C 0.34517 0.47338 0.30547 0.0
H301 H 0.30053 0.52991 0.06775 0.0
H302 H 0.3311 0.5184 0.11837 0.0
H303 H 0.31516 0.4698 0.27839 0.0
H304 H 0.37933 0.4984 0.49252 0.0
H305 H 0.35607 0.49622 0.41281 0.0
H306 H 0.3866 0.49213 0.2093 0.0
C307 C 0.3191 0.50626 0.11981 0.0
C308 C 0.33084 0.47416 0.26191 0.0
C309 C 0.30159 0.51285 0.09034 0.0
C310 C 0.38587 0.49179 0.44473 0.0
C311 C 0.37242 0.49021 0.39908 0.0
C312 C 0.37119 0.48673 0.22459 0.0
C313 C 0.31999 0.48568 0.15622 0.0
C314 C 0.33629 0.4817 0.19931 0.0
C315 C 0.37997 0.4814 0.33647 0.0
C316 C 0.36541 0.48014 0.28794 0.0
H317 H 0.2732 0.46652 0.13345 0.0
H318 H 0.30407 0.45447 0.18338 0.0
H319 H 0.36168 0.49321 0.13304 0.0
H320 H 0.43138 0.47019 0.35301 0.0
H321 H 0.40783 0.46723 0.27333 0.0
C322 C 0.03711 0.31614 0.172 0.0
C323 C 0.01662 0.31918 0.158 0.0
C324 C 0.04495 0.33419 0.20575 0.0
C325 C 0.0324 0.39697 0.27448 0.0
H326 H 0.05524 0.37032 0.41976 0.0
C327 C 0.03889 0.45553 0.4986 0.0
C328 C 0.03096 0.44572 0.55653 0.0
C329 C 0.043 0.4414 0.44187 0.0
C330 C 0.04896 0.3781 0.3794 0.0
H331 H 0.98889 0.34389 0.16315 0.0
H332 H 1.00237 0.37526 0.22147 0.0
H333 H 0.05199 0.34432 0.32912 0.0
H334 H 0.02206 0.41304 0.60046 0.0
H335 H 0.029 0.38869 0.5024 0.0
H336 H 0.02802 0.43047 0.32702 0.0
C337 C 0.01261 0.35924 0.20645 0.0
C338 C 0.04736 0.36322 0.32682 0.0
C339 C 1.00482 0.34125 0.17302 0.0
C340 C 0.02808 0.42128 0.55682 0.0
C341 C 0.03226 0.4072 0.50043 0.0
C342 C 0.03394 0.41185 0.32724 0.0
C343 C 0.03241 0.35554 0.22597 0.0
C344 C 0.03833 0.37227 0.27465 0.0
C345 C 0.03943 0.41712 0.44198 0.0
C346 C 0.04149 0.40241 0.3814 0.0
H347 H 0.04642 0.29917 0.16143 0.0
H348 H 0.06039 0.33088 0.21907 0.0
H349 H 0.02569 0.40464 0.23471 0.0
H350 H 0.0413 0.4743 0.49662 0.0
H351 H 0.04868 0.44957 0.39778 0.0
C352 C 0.81088 0.00724 0.22988 0.0
C353 C 0.79312 0.00052 0.20601 0.0
C354 C 0.83072 0.0027 0.19333 0.0
C355 C 0.85373 0.99479 0.02335 0.0
H356 H 0.90592 0.97875 0.0877 0.0
C357 C 0.93101 0.97834 0.85142 0.0
C358 C 0.9489 0.98716 0.86963 0.0
C359 C 0.91275 0.97824 0.89514 0.0
C360 C 0.8915 0.98348 0.06902 0.0
H361 H 0.78219 0.98275 0.12728 0.0
H362 H 0.81667 0.97414 0.06448 0.0
H363 H 0.87298 0.98055 0.16053 0.0
H364 H 0.96158 0.00248 0.94895 0.0
H365 H 0.92957 0.00271 0.02507 0.0
H366 H 0.872 0.99821 0.93242 0.0
C367 C 0.81541 0.9833 0.11066 0.0
C368 C 0.8726 0.98445 0.11083 0.0
C369 C 0.79568 0.9879 0.14697 0.0
C370 C 0.94812 0.99553 0.93322 0.0
C371 C 0.92976 0.99553 0.97704 0.0
C372 C 0.87253 0.99391 0.9818 0.0
C373 C 0.83311 0.99145 0.13212 0.0
C374 C 0.85343 0.98997 0.0884 0.0
C375 C 0.91172 0.98711 0.95842 0.0
C376 C 0.89173 0.98812 0.00377 0.0
H377 H 0.80925 0.01742 0.27472 0.0
H378 H 0.84395 0.00932 0.21132 0.0
H379 H 0.83937 0.99975 0.00452 0.0
H380 H 0.93104 0.97154 0.80308 0.0
H381 H 0.89939 0.97113 0.87918 0.0
C382 C 0.49188 0.79864 0.16296 0.0
C383 C 0.50858 0.78769 0.19052 0.0
C384 C 0.49385 0.81979 0.13075 0.0
C385 C 0.52082 0.87302 0.1049 0.0
H386 H 0.50767 0.86589 0.93277 0.0
C387 C 0.52604 0.94851 0.91822 0.0
C388 C 0.51001 0.95048 0.87997 0.0
C389 C 0.52787 0.92936 0.95913 0.0
C390 C 0.51121 0.86835 0.98084 0.0
H391 H 0.53993 0.79138 0.21015 0.0
H392 H 0.54325 0.829 0.15411 0.0
H393 H 0.50679 0.83206 0.00193 0.0
H394 H 0.48281 0.93441 0.85696 0.0
H395 H 0.48568 0.90176 0.92837 0.0
H396 H 0.52453 0.9097 0.08418 0.0
C397 C 0.52873 0.82085 0.15722 0.0
C398 C 0.51081 0.84889 0.02033 0.0
C399 C 0.52681 0.79941 0.18933 0.0
C400 C 0.49557 0.93332 0.88485 0.0
C401 C 0.49729 0.91442 0.92571 0.0
C402 C 0.52101 0.89273 0.06534 0.0
C403 C 0.51249 0.83072 0.12575 0.0
C404 C 0.51515 0.85111 0.08316 0.0
C405 C 0.51365 0.91188 0.9626 0.0
C406 C 0.51568 0.89074 0.00329 0.0
H407 H 0.47746 0.79036 0.16431 0.0
H408 H 0.48095 0.82726 0.10794 0.0
H409 H 0.52427 0.87515 0.15319 0.0
H410 H 0.5374 0.96148 0.91565 0.0
H411 H 0.54067 0.92794 0.9868 0.0
C412 C 0.72785 0.48761 0.33937 0.0
C413 C 0.72636 0.50793 0.38016 0.0
C414 C 0.71134 0.48309 0.30625 0.0
C415 C 0.66714 0.5171 0.24529 0.0
H416 H 0.6553 0.45462 0.18766 0.0
C417 C 0.60497 0.50647 0.0794 0.0
C418 C 0.61039 0.48986 0.02752 0.0
C419 C 0.61716 0.50705 0.12883 0.0
C420 C 0.6585 0.47221 0.20305 0.0
H421 H 0.70619 0.53882 0.42075 0.0
H422 H 0.67695 0.53044 0.36566 0.0
H423 H 0.67926 0.45786 0.2658 0.0
H424 H 0.63295 0.46054 0.98821 0.0
H425 H 0.65407 0.46147 0.07443 0.0
H426 H 0.64666 0.53146 0.1821 0.0
C427 C 0.69097 0.51817 0.35792 0.0
C428 C 0.67226 0.47409 0.24798 0.0
C429 C 0.70755 0.52276 0.39057 0.0
C430 C 0.62806 0.47338 0.02761 0.0
C431 C 0.64023 0.47392 0.07719 0.0
C432 C 0.65336 0.51523 0.2007 0.0
C433 C 0.69295 0.49886 0.31309 0.0
C434 C 0.67695 0.49658 0.26935 0.0
C435 C 0.63513 0.49099 0.12805 0.0
C436 C 0.64898 0.49277 0.1784 0.0
H437 H 0.74242 0.4763 0.32913 0.0
H438 H 0.71363 0.46818 0.2719 0.0
H439 H 0.67065 0.53475 0.2591 0.0
H440 H 0.59129 0.51914 0.08181 0.0
H441 H 0.61251 0.52016 0.16773 0.0
C442 C 0.99243 0.66861 0.25488 0.0
C443 C 0.01356 0.66673 0.26284 0.0
C444 C 0.98441 0.65022 0.22288 0.0
C445 C 0.97842 0.61983 0.10684 0.0
H446 H 1.00181 0.55387 0.10321 0.0
C447 C 0.98761 0.5586 0.88091 0.0
C448 C 0.98831 0.53375 0.88641 0.0
C449 C 0.98531 0.5737 0.93547 0.0
C450 C 0.99471 0.57206 0.104 0.0
H451 H 0.04244 0.64366 0.24827 0.0
H452 H 0.02873 0.61183 0.19271 0.0
H453 H 0.00681 0.58093 0.18942 0.0
H454 H 0.9855 0.50531 0.9535 0.0
H455 H 0.98076 0.53165 0.04867 0.0
H456 H 0.96623 0.61091 0.02152 0.0
C457 C 0.01812 0.62718 0.21116 0.0
C458 C 0.99784 0.58772 0.15325 0.0
C459 C 0.02607 0.64548 0.24289 0.0
C460 C 0.98536 0.5244 0.94768 0.0
C461 C 0.98276 0.53952 0.00229 0.0
C462 C 0.9751 0.60408 0.05788 0.0
C463 C 0.9974 0.62963 0.19852 0.0
C464 C 0.99044 0.61203 0.15404 0.0
C465 C 0.98335 0.56435 0.99698 0.0
C466 C 0.98384 0.58017 0.05445 0.0
H467 H 0.98252 0.68492 0.26942 0.0
H468 H 0.9683 0.65256 0.2149 0.0
H469 H 0.97252 0.63841 0.10549 0.0
H470 H 0.98991 0.56635 0.83437 0.0
H471 H 0.98613 0.59263 0.92904 0.0
C472 C 0.94549 0.25596 0.22009 0.0
C473 C 0.96503 0.26264 0.23016 0.0
C474 C 0.93411 0.24271 0.26525 0.0
C475 C 0.92494 0.19738 0.33067 0.0
H476 H 0.93647 0.19226 0.50472 0.0
C477 C 0.93835 0.10737 0.4401 0.0
C478 C 0.93463 0.10492 0.50641 0.0
C479 C 0.93481 0.12959 0.41394 0.0
C480 C 0.93258 0.19356 0.45677 0.0
H481 H 0.98753 0.26205 0.29629 0.0
H482 H 0.96844 0.23814 0.37332 0.0
H483 H 0.94175 0.22898 0.44958 0.0
H484 H 0.92329 0.12349 0.59732 0.0
H485 H 0.91666 0.16244 0.55146 0.0
H486 H 0.91548 0.16213 0.33818 0.0
C487 C 0.96129 0.24362 0.33221 0.0
C488 C 0.93594 0.21457 0.42467 0.0
C489 C 0.97239 0.25728 0.28778 0.0
C490 C 0.92651 0.12499 0.546 0.0
C491 C 0.92274 0.14726 0.51971 0.0
C492 C 0.92115 0.17662 0.3632 0.0
C493 C 0.94238 0.23531 0.32041 0.0
C494 C 0.93336 0.2162 0.35994 0.0
C495 C 0.92723 0.14993 0.45338 0.0
C496 C 0.92611 0.1739 0.42527 0.0
H497 H 0.93946 0.26012 0.17608 0.0
H498 H 0.91935 0.23726 0.25527 0.0
H499 H 0.92268 0.19775 0.28102 0.0
H500 H 0.9449 0.0923 0.4085 0.0
H501 H 0.93898 0.13094 0.36286 0.0
C502 C 0.29462 0.97204 0.36386 0.0
C503 C 0.27988 0.95882 0.34066 0.0
C504 C 0.3069 0.96222 0.40732 0.0
C505 C 0.33191 0.90637 0.44651 0.0
H506 H 0.34498 0.94344 0.58984 0.0
C507 C 0.41274 0.90735 0.51876 0.0
C508 C 0.41498 0.91135 0.58319 0.0
C509 C 0.3931 0.90551 0.50111 0.0
C510 C 0.34122 0.93253 0.55102 0.0
H511 H 0.26601 0.92529 0.3449 0.0
H512 H 0.28813 0.90768 0.42008 0.0
H513 H 0.31495 0.95688 0.53842 0.0
H514 H 0.39847 0.91384 0.68016 0.0
H515 H 0.36401 0.91146 0.64878 0.0
H516 H 0.35907 0.8829 0.45634 0.0
C517 C 0.28989 0.92574 0.40522 0.0
C518 C 0.32414 0.94035 0.52133 0.0
C519 C 0.27727 0.93579 0.36255 0.0
C520 C 0.39727 0.9114 0.62996 0.0
C521 C 0.37755 0.90988 0.61215 0.0
C522 C 0.34917 0.89868 0.47576 0.0
C523 C 0.3049 0.93885 0.42757 0.0
C524 C 0.31983 0.92783 0.46735 0.0
C525 C 0.37522 0.90785 0.54735 0.0
C526 C 0.35443 0.91221 0.52674 0.0
H527 H 0.29682 0.98986 0.34761 0.0
H528 H 0.31857 0.97257 0.42316 0.0
H529 H 0.32893 0.89646 0.40478 0.0
H530 H 0.42589 0.90746 0.4812 0.0
H531 H 0.39177 0.90422 0.45071 0.0
C532 C 0.53592 0.3142 0.25302 0.0
C533 C 0.54313 0.29045 0.26277 0.0
C534 C 0.54414 0.33308 0.28098 0.0
C535 C 0.56763 0.3485 0.41999 0.0
H536 H 0.56991 0.4088 0.3354 0.0
C537 C 0.56542 0.4369 0.56272 0.0
C538 C 0.54711 0.4511 0.5548 0.0
C539 C 0.57338 0.41821 0.51866 0.0
C540 C 0.56973 0.39201 0.35936 0.0
H541 H 0.56477 0.26792 0.30961 0.0
H542 H 0.57905 0.30127 0.35984 0.0
H543 H 0.56858 0.37212 0.27279 0.0
H544 H 0.52376 0.45842 0.49261 0.0
H545 H 0.53794 0.42633 0.41488 0.0
H546 H 0.56771 0.36865 0.50702 0.0
C547 C 0.56707 0.30508 0.32987 0.0
C548 C 0.56885 0.37105 0.32372 0.0
C549 C 0.55885 0.28604 0.30142 0.0
C550 C 0.5379 0.44768 0.4997 0.0
C551 C 0.54609 0.4294 0.4551 0.0
C552 C 0.56871 0.36947 0.45559 0.0
C553 C 0.55974 0.32882 0.31992 0.0
C554 C 0.56657 0.34932 0.35421 0.0
C555 C 0.5634 0.41391 0.46543 0.0
C556 C 0.56864 0.39155 0.42599 0.0
H557 H 0.52341 0.31828 0.2251 0.0
H558 H 0.53763 0.35107 0.27394 0.0
H559 H 0.56584 0.33208 0.44495 0.0
H560 H 0.57269 0.4391 0.60519 0.0
H561 H 0.58672 0.40646 0.52763 0.0
C562 C 0.23101 0.55607 0.24753 0.0
C563 C 0.22562 0.55782 0.18559 0.0
C564 C 0.21987 0.57028 0.29821 0.0
C565 C 0.17455 0.61741 0.34057 0.0
H566 H 0.1617 0.57573 0.48087 0.0
C567 C 0.0935 0.60743 0.47109 0.0
C568 C 0.0912 0.59958 0.53399 0.0
C569 C 0.11295 0.61273 0.44097 0.0
C570 C 0.16538 0.58803 0.44323 0.0
H571 H 0.20574 0.57804 0.1277 0.0
H572 H 0.18517 0.60111 0.21644 0.0
H573 H 0.19188 0.56506 0.40251 0.0
H574 H 0.10671 0.59413 0.61738 0.0
H575 H 0.14079 0.6031 0.56438 0.0
H576 H 0.14653 0.63912 0.37935 0.0
C577 C 0.19831 0.58921 0.22607 0.0
C578 C 0.18286 0.58191 0.39789 0.0
C579 C 0.20987 0.5755 0.17503 0.0
C580 C 0.10817 0.59956 0.5683 0.0
C581 C 0.12762 0.60483 0.53816 0.0
C582 C 0.15679 0.62334 0.38566 0.0
C583 C 0.20258 0.58603 0.28884 0.0
C584 C 0.18719 0.59591 0.34429 0.0
C585 C 0.13043 0.61022 0.47321 0.0
C586 C 0.15159 0.60813 0.43588 0.0
H587 H 0.24301 0.54275 0.25813 0.0
H588 H 0.2241 0.56786 0.34546 0.0
H589 H 0.1777 0.629 0.30098 0.0
H590 H 0.08074 0.60759 0.44332 0.0
H591 H 0.11463 0.61664 0.39073 0.0
C592 C 0.05705 0.73058 0.13742 0.0
C593 C 0.06394 0.72532 0.19575 0.0
C594 C 0.06844 0.7442 0.09358 0.0
C595 C 0.09406 0.77325 0.00236 0.0
H596 H 0.11393 0.82583 0.08988 0.0
C597 C 0.09754 0.86416 0.88682 0.0
C598 C 0.0884 0.88321 0.9287 0.0
C599 C 0.10368 0.84203 0.9107 0.0
C600 C 0.10846 0.81129 0.06451 0.0
H601 H 0.08896 0.72804 0.25191 0.0
H602 H 0.10959 0.75083 0.17383 0.0
H603 H 0.10722 0.78994 0.14624 0.0
H604 H 0.07907 0.89421 0.02832 0.0
H605 H 0.08914 0.856 0.06963 0.0
H606 H 0.09301 0.79582 0.92307 0.0
C607 C 0.09497 0.74535 0.16275 0.0
C608 C 0.10493 0.79037 0.09662 0.0
C609 C 0.08328 0.73215 0.20733 0.0
C610 C 0.0864 0.88005 0.99477 0.0
C611 C 0.09232 0.85801 0.01853 0.0
C612 C 0.09708 0.79444 0.97079 0.0
C613 C 0.0872 0.75256 0.10662 0.0
C614 C 0.09653 0.77156 0.06719 0.0
C615 C 0.10057 0.83849 0.97689 0.0
C616 C 0.10315 0.81421 0.00286 0.0
H617 H 0.04207 0.72567 0.1277 0.0
H618 H 0.06161 0.74956 0.05179 0.0
H619 H 0.08842 0.75881 0.97712 0.0
H620 H 0.09946 0.86619 0.83561 0.0
H621 H 0.11026 0.82753 0.87724 0.0
C622 C 0.71808 0.07567 0.21012 0.0
C623 C 0.73045 0.05522 0.18264 0.0
C624 C 0.70416 0.08829 0.17566 0.0
C625 C 0.68615 0.09174 0.01535 0.0
H626 H 0.63146 0.10017 0.11764 0.0
C627 C 0.61068 0.07538 0.92018 0.0
C628 C 0.59189 0.08879 0.94559 0.0
C629 C 0.62928 0.07951 0.94215 0.0
C630 C 0.64663 0.09854 0.08842 0.0
H631 H 0.73898 0.03287 0.09641 0.0
H632 H 0.7145 0.05445 0.03679 0.0
H633 H 0.66214 0.09306 0.1698 0.0
H634 H 0.57823 0.11825 0.01073 0.0
H635 H 0.61078 0.12515 0.05003 0.0
H636 H 0.67027 0.09566 0.93362 0.0
C637 C 0.71572 0.06115 0.08436 0.0
C638 C 0.66431 0.09449 0.11839 0.0
C639 C 0.72976 0.04868 0.11863 0.0
C640 C 0.59236 0.10727 0.99114 0.0
C641 C 0.61099 0.11133 0.01338 0.0
C642 C 0.66841 0.09564 0.9853 0.0
C643 C 0.70217 0.08054 0.11332 0.0
C644 C 0.68422 0.09011 0.08212 0.0
C645 C 0.62954 0.09707 0.99026 0.0
C646 C 0.64844 0.09818 0.02148 0.0
H647 H 0.71856 0.08128 0.25917 0.0
H648 H 0.69426 0.10345 0.19891 0.0
H649 H 0.70129 0.08892 0.98608 0.0
H650 H 0.61088 0.06079 0.88572 0.0
H651 H 0.64324 0.06795 0.92412 0.0
C652 C 0.49814 0.70054 0.09272 0.0
C653 C 0.4895 0.70472 0.15708 0.0
C654 C 0.49302 0.68107 0.05795 0.0
C655 C 0.47604 0.62147 0.08512 0.0
H656 H 0.4735 0.62126 0.90325 0.0
C657 C 0.49663 0.53771 0.91959 0.0
C658 C 0.48629 0.5355 0.86612 0.0
C659 C 0.4921 0.55793 0.96048 0.0
C660 C 0.4738 0.62104 0.95427 0.0
H661 H 0.46756 0.69305 0.23421 0.0
H662 H 0.45847 0.65918 0.17336 0.0
H663 H 0.47403 0.65901 0.96153 0.0
H664 H 0.4619 0.55189 0.81661 0.0
H665 H 0.4539 0.58703 0.88845 0.0
H666 H 0.47611 0.58347 0.07769 0.0
C667 C 0.46955 0.67056 0.15016 0.0
C668 C 0.47436 0.64266 0.98746 0.0
C669 C 0.47472 0.68996 0.18491 0.0
C670 C 0.47031 0.55313 0.85702 0.0
C671 C 0.46579 0.57335 0.89793 0.0
C672 C 0.47549 0.59986 0.05193 0.0
C673 C 0.47909 0.66551 0.08688 0.0
C674 C 0.47594 0.64305 0.05297 0.0
C675 C 0.47711 0.57632 0.94884 0.0
C676 C 0.47482 0.59936 0.98588 0.0
H677 H 0.50969 0.71154 0.07028 0.0
H678 H 0.5008 0.67754 0.00946 0.0
H679 H 0.47746 0.62111 0.13547 0.0
H680 H 0.50901 0.52447 0.92808 0.0
H681 H 0.50122 0.55975 0.99902 0.0
C682 C 0.78741 0.54153 0.24293 0.0
C683 C 0.78684 0.55146 0.30476 0.0
C684 C 0.8038 0.54493 0.19519 0.0
C685 C 0.85869 0.54946 0.19549 0.0
H686 H 0.85953 0.53339 0.01605 0.0
C687 C 0.9173 0.47732 0.06423 0.0
C688 C 0.92382 0.47853 0.99848 0.0
C689 C 0.90254 0.49475 0.09607 0.0
C690 C 0.85981 0.53833 0.06566 0.0
H691 H 0.80099 0.576 0.362 0.0
H692 H 0.82975 0.58201 0.2782 0.0
H693 H 0.82821 0.55396 0.07712 0.0
H694 H 0.921 0.49948 0.91491 0.0
H695 H 0.89534 0.53005 0.97059 0.0
H696 H 0.89012 0.53339 0.1844 0.0
C697 C 0.81782 0.57103 0.26725 0.0
C698 C 0.84176 0.55 0.10081 0.0
C699 C 0.80135 0.5676 0.31521 0.0
C700 C 0.9158 0.49784 0.96544 0.0
C701 C 0.9012 0.51539 0.99735 0.0
C702 C 0.8768 0.53806 0.1602 0.0
C703 C 0.82 0.55833 0.20824 0.0
C704 C 0.84056 0.55428 0.16701 0.0
C705 C 0.89422 0.51392 0.06292 0.0
C706 C 0.87712 0.53106 0.0959 0.0
H707 H 0.77657 0.52894 0.23298 0.0
H708 H 0.80488 0.53478 0.15053 0.0
H709 H 0.85845 0.55245 0.24633 0.0
H710 H 0.92328 0.46263 0.09069 0.0
H711 H 0.8972 0.49276 0.14633 0.0
C712 C 0.99248 0.24495 0.97564 0.0
C713 C 0.0069 0.24774 0.01797 0.0
C714 C 0.99447 0.22464 0.93507 0.0
C715 C 0.02881 0.16933 0.87554 0.0
H716 H 0.97591 0.14234 0.88181 0.0
C717 C 0.02252 0.06923 0.8183 0.0
C718 C 0.00601 0.06311 0.7868 0.0
C719 C 0.0238 0.09291 0.83794 0.0
C720 C 0.99079 0.14972 0.87848 0.0
H721 H 0.03528 0.2323 0.04898 0.0
H722 H 0.03883 0.19666 0.97829 0.0
H723 H 0.97683 0.18213 0.92733 0.0
H724 H 0.97812 0.07741 0.75003 0.0
H725 H 0.98045 0.11865 0.78372 0.0
H726 H 0.04276 0.13648 0.82788 0.0
C727 C 0.02614 0.21028 0.97544 0.0
C728 C 0.99133 0.17265 0.90456 0.0
C729 C 0.02421 0.23075 0.01575 0.0
C730 C 0.991 0.08138 0.77447 0.0
C731 C 0.99228 0.10506 0.79409 0.0
C732 C 0.02826 0.14631 0.84939 0.0
C733 C 0.01076 0.20648 0.93668 0.0
C734 C 0.01035 0.18275 0.90393 0.0
C735 C 0.00859 0.11113 0.82662 0.0
C736 C 0.00925 0.13612 0.85104 0.0
H737 H 0.97887 0.2577 0.97712 0.0
H738 H 0.9826 0.2226 0.90483 0.0
H739 H 0.0437 0.17659 0.87368 0.0
H740 H 0.03439 0.05568 0.82864 0.0
H741 H 0.03642 0.09682 0.86355 0.0
C742 C 0.29304 0.97165 0.0894 0.0
C743 C 0.28058 0.9905 0.12474 0.0
C744 C 0.30968 0.9761 0.04311 0.0
C745 C 0.3462 0.02224 0.0059 0.0
H746 H 0.36855 0.97817 0.86397 0.0
C747 C 0.43303 0.01577 0.89583 0.0
C748 C 0.43894 0.00983 0.83039 0.0
C749 C 0.4123 0.0156 0.92461 0.0
C750 C 0.36249 0.99092 0.90275 0.0
H751 H 0.27511 0.02889 0.13721 0.0
H752 H 0.3038 0.03692 0.05448 0.0
H753 H 0.33389 0.97465 0.92129 0.0
H754 H 0.4273 0.99941 0.74379 0.0
H755 H 0.39107 0.99956 0.79364 0.0
H756 H 0.37464 0.03872 0.98685 0.0
C757 C 0.30095 0.01856 0.06324 0.0
C758 C 0.3426 0.98871 0.93633 0.0
C759 C 0.28425 0.01404 0.10987 0.0
C760 C 0.4234 0.00402 0.79432 0.0
C761 C 0.40258 0.00397 0.82312 0.0
C762 C 0.36601 0.02455 0.97206 0.0
C763 C 0.3144 0.99961 0.03084 0.0
C764 C 0.33432 0.00398 0.98942 0.0
C765 C 0.39671 0.00963 0.88888 0.0
C766 C 0.3747 0.00858 0.92089 0.0
H767 H 0.29078 0.95332 0.10082 0.0
H768 H 0.31967 0.96096 0.02021 0.0
H769 H 0.3406 0.03425 0.04668 0.0
H770 H 0.4445 0.02019 0.92545 0.0
H771 H 0.40865 0.01959 0.97549 0.0
C772 C 0.52364 0.26643 0.03191 0.0
C773 C 0.50901 0.26286 0.0854 0.0
C774 C 0.51821 0.28149 0.98421 0.0
C775 C 0.48274 0.33543 0.97737 0.0
H776 H 0.51238 0.33608 0.80519 0.0
C777 C 0.48274 0.42075 0.82806 0.0
C778 C 0.50278 0.42593 0.80113 0.0
C779 C 0.47965 0.39845 0.85396 0.0
C780 C 0.50392 0.33613 0.85313 0.0
H781 H 0.47672 0.27003 0.1278 0.0
H782 H 0.46692 0.2958 0.0433 0.0
H783 H 0.51256 0.29886 0.86209 0.0
H784 H 0.53519 0.41145 0.77909 0.0
H785 H 0.52978 0.3728 0.82394 0.0
H786 H 0.47465 0.37287 0.96898 0.0
C787 C 0.48274 0.28741 0.03879 0.0
C788 C 0.50401 0.3148 0.88575 0.0
C789 C 0.48822 0.2723 0.08664 0.0
C790 C 0.51955 0.40818 0.79973 0.0
C791 C 0.51642 0.38587 0.82485 0.0
C792 C 0.48253 0.35671 0.94454 0.0
C793 C 0.49799 0.29334 0.98908 0.0
C794 C 0.49407 0.31435 0.94921 0.0
C795 C 0.49648 0.38076 0.85257 0.0
C796 C 0.49374 0.35748 0.88295 0.0
H797 H 0.53983 0.25956 0.03038 0.0
H798 H 0.53045 0.2856 0.94704 0.0
H799 H 0.47514 0.33597 0.0264 0.0
H800 H 0.46947 0.434 0.82976 0.0
H801 H 0.46409 0.395 0.87493 0.0
C802 C 0.21462 0.48387 0.9784 0.0
C803 C 0.2175 0.50759 0.99442 0.0
C804 C 0.19917 0.47884 0.94095 0.0
C805 C 0.16064 0.50918 0.84225 0.0
H806 H 0.13108 0.45366 0.8817 0.0
C807 C 0.08581 0.49648 0.73194 0.0
C808 C 0.0703 0.4842 0.76619 0.0
C809 C 0.10556 0.49649 0.7512 0.0
C810 C 0.13883 0.46954 0.8706 0.0
H811 H 0.20739 0.54456 0.97937 0.0
H812 H 0.18024 0.53612 0.91856 0.0
H813 H 0.16188 0.45934 0.93011 0.0
H814 H 0.06325 0.46241 0.84777 0.0
H815 H 0.09686 0.46376 0.88428 0.0
H816 H 0.1368 0.52062 0.78758 0.0
C817 C 0.18988 0.5211 0.93295 0.0
C818 C 0.15698 0.47254 0.89759 0.0
C819 C 0.20541 0.52603 0.96906 0.0
C820 C 0.07499 0.47183 0.81997 0.0
C821 C 0.09449 0.47249 0.84058 0.0
C822 C 0.14222 0.50657 0.81688 0.0
C823 C 0.18614 0.49744 0.91896 0.0
C824 C 0.16803 0.49266 0.88483 0.0
C825 C 0.11018 0.48497 0.80686 0.0
C826 C 0.13074 0.48685 0.83107 0.0
H827 H 0.22366 0.46921 0.99699 0.0
H828 H 0.19724 0.46036 0.93033 0.0
H829 H 0.16885 0.52457 0.82899 0.0
H830 H 0.08271 0.50599 0.68987 0.0
H831 H 0.11711 0.50569 0.7221 0.0
C832 C 0.99985 0.74683 0.42558 0.0
C833 C 0.02079 0.73773 0.40845 0.0
C834 C 0.99446 0.76592 0.47057 0.0
C835 C 0.0163 0.80446 0.58793 0.0
H836 H 0.97737 0.85361 0.53462 0.0
C837 C 1.00241 0.89935 0.71009 0.0
C838 C 1.00008 0.91855 0.66954 0.0
C839 C 1.00223 0.87576 0.68731 0.0
C840 C 0.9884 0.84016 0.55007 0.0
H841 H 0.0522 0.74 0.42921 0.0
H842 H 0.04306 0.77334 0.50577 0.0
H843 H 0.98193 0.81438 0.48175 0.0
H844 H 0.99594 0.92784 0.5729 0.0
H845 H 0.99627 0.88709 0.53305 0.0
H846 H 0.02377 0.8308 0.65332 0.0
C847 C 0.03062 0.76588 0.48543 0.0
C848 C 0.99074 0.8174 0.52039 0.0
C849 C 0.03594 0.7468 0.44095 0.0
C850 C 0.9976 0.91358 0.60579 0.0
C851 C 0.9976 0.89008 0.58296 0.0
C852 C 0.01412 0.82733 0.61715 0.0
C853 C 0.00992 0.77634 0.49923 0.0
C854 C 1.00511 0.79935 0.53774 0.0
C855 C 0.99988 0.87079 0.62329 0.0
C856 C 1.00052 0.8457 0.59749 0.0
H857 H 0.98782 0.74024 0.40131 0.0
H858 H 0.97828 0.77311 0.48097 0.0
H859 H 0.02722 0.79096 0.60362 0.0
H860 H 1.00429 0.90251 0.75953 0.0
H861 H 1.00382 0.86145 0.72008 0.0
C862 C 0.71713 0.98571 0.36751 0.0
C863 C 0.72794 0.00596 0.37261 0.0
C864 C 0.69956 0.98235 0.41202 0.0
C865 C 0.65844 0.01939 0.5197 0.0
H866 H 0.63924 0.95866 0.57111 0.0
C867 C 0.5805 0.01519 0.68546 0.0
C868 C 0.56761 0.9977 0.6709 0.0
C869 C 0.60112 0.01458 0.65505 0.0
C870 C 0.64429 0.97577 0.55679 0.0
H871 H 0.72967 0.03782 0.42988 0.0
H872 H 0.69971 0.03153 0.50908 0.0
H873 H 0.67401 0.95978 0.51031 0.0
H874 H 0.56672 0.96546 0.61355 0.0
H875 H 0.60258 0.96458 0.55996 0.0
H876 H 0.62875 0.0354 0.56481 0.0
C877 C 0.70439 0.01844 0.47016 0.0
C878 C 0.66429 0.97642 0.52197 0.0
C879 C 0.72182 0.02185 0.42551 0.0
C880 C 0.57613 0.97923 0.62614 0.0
C881 C 0.5968 0.97865 0.59555 0.0
C882 C 0.63853 0.01874 0.55437 0.0
C883 C 0.69243 0.99924 0.46247 0.0
C884 C 0.67164 0.99826 0.50278 0.0
C885 C 0.60951 0.99652 0.60893 0.0
C886 C 0.63109 0.99695 0.57334 0.0
H887 H 0.7212 0.97355 0.32624 0.0
H888 H 0.69075 0.96743 0.40412 0.0
H889 H 0.66321 0.03652 0.50451 0.0
H890 H 0.57463 0.02959 0.72002 0.0
H891 H 0.61048 0.0284 0.66767 0.0
C892 C 0.49975 0.71838 0.40154 0.0
C893 C 0.51602 0.72479 0.35638 0.0
C894 C 0.50364 0.70153 0.44676 0.0
C895 C 0.5421 0.64976 0.45964 0.0
H896 H 0.50315 0.64002 0.61107 0.0
C897 C 0.54224 0.56476 0.61653 0.0
C898 C 0.52394 0.55337 0.61535 0.0
C899 C 0.54392 0.58744 0.59148 0.0
C900 C 0.51422 0.64263 0.56911 0.0
H901 H 0.54935 0.72053 0.32669 0.0
H902 H 0.5565 0.69207 0.40831 0.0
H903 H 0.50255 0.67916 0.56381 0.0
H904 H 0.49304 0.55689 0.58743 0.0
H905 H 0.49582 0.59677 0.54547 0.0
H906 H 0.55379 0.61306 0.46608 0.0
C907 C 0.54056 0.69938 0.40759 0.0
C908 C 0.51384 0.665 0.54166 0.0
C909 C 0.53658 0.7161 0.36168 0.0
C910 C 0.50741 0.56508 0.58849 0.0
C911 C 0.50891 0.58795 0.56497 0.0
C912 C 0.54277 0.62754 0.48805 0.0
C913 C 0.52399 0.69078 0.44824 0.0
C914 C 0.52724 0.66868 0.48506 0.0
C915 C 0.52713 0.59934 0.56649 0.0
C916 C 0.52839 0.62361 0.54174 0.0
H917 H 0.48372 0.72452 0.39752 0.0
H918 H 0.49034 0.69544 0.47639 0.0
H919 H 0.55249 0.65156 0.4157 0.0
H920 H 0.55523 0.55617 0.63696 0.0
H921 H 0.55813 0.5959 0.59289 0.0
C922 C 0.7995 0.48607 0.49461 0.0
C923 C 0.78814 0.50863 0.50375 0.0
C924 C 0.81695 0.48068 0.52573 0.0
C925 C 0.84666 0.50204 0.65186 0.0
H926 H 0.89493 0.47564 0.53399 0.0
C927 C 0.93017 0.48551 0.72385 0.0
C928 C 0.94663 0.4923 0.67945 0.0
C929 C 0.90996 0.48543 0.70777 0.0
C930 C 0.88164 0.48306 0.56761 0.0
H931 H 0.78535 0.54272 0.55512 0.0
H932 H 0.81534 0.53325 0.6105 0.0
H933 H 0.86052 0.47812 0.50065 0.0
H934 H 0.95454 0.50436 0.58322 0.0
H935 H 0.91953 0.50418 0.55541 0.0
H936 H 0.86801 0.5076 0.71815 0.0
C937 C 0.81086 0.51958 0.57975 0.0
C938 C 0.8618 0.48418 0.54876 0.0
C939 C 0.79356 0.52499 0.54831 0.0
C940 C 0.94233 0.49902 0.61872 0.0
C941 C 0.92222 0.49874 0.60253 0.0
C942 C 0.86653 0.50074 0.67093 0.0
C943 C 0.82335 0.49774 0.56678 0.0
C944 C 0.84404 0.49404 0.59018 0.0
C945 C 0.90575 0.49188 0.64667 0.0
C946 C 0.88435 0.49164 0.62859 0.0
H947 H 0.79595 0.47333 0.45951 0.0
H948 H 0.82601 0.46356 0.51524 0.0
H949 H 0.83336 0.50962 0.6852 0.0
H950 H 0.93287 0.48023 0.77109 0.0
H951 H 0.8977 0.47994 0.74287 0.0
loop_
_geom_bond_atom_site_label_1
_geom_bond_atom_site_label_2
_geom_bond_distance
_geom_bond_site_symmetry_2
_ccdc_geom_bond_type
H0 C3 0.931 . S
H1 C6 0.928 . S
H2 C8 0.930 . S
C3 H0 0.931 . S
C3 C4 1.413 . S
C3 C5 1.360 . S
C4 C3 1.413 . S
C4 C8 1.429 . S
C5 C3 1.360 . S
C5 C6 1.372 . S
C6 H1 0.928 . S
C6 C5 1.372 . S
C6 C7 1.404 . S
C7 C6 1.404 . S
C7 C8 1.391 . S
C8 H2 0.930 . S
C8 C4 1.429 . S
C8 C7 1.391 . S
H9 C12 0.931 . S
H10 C15 0.928 . S
H11 C17 0.930 . S
C12 H9 0.931 . S
C12 C13 1.413 . S
C12 C14 1.360 . S
C13 C12 1.413 . S
C13 C17 1.429 . S
C14 C12 1.360 . S
C14 C15 1.372 . S
C15 H10 0.928 . S
C15 C14 1.372 . S
C15 C16 1.404 . S
C16 C15 1.404 . S
C16 C17 1.391 . S
C17 H11 0.930 . S
C17 C13 1.429 . S
C17 C16 1.391 . S
H18 C21 0.930 . S
H19 C24 0.928 . S
H20 C26 0.929 . S
C21 H18 0.930 . S
C21 C22 1.413 . S
C21 C23 1.360 . S
C22 C21 1.413 . S
C22 C26 1.428 1_565 S
C23 C21 1.360 . S
C23 C24 1.370 . S
C24 H19 0.928 . S
C24 C23 1.370 . S
C24 C25 1.405 . S
C25 C24 1.405 . S
C25 C26 1.391 1_565 S
C26 H20 0.929 . S
C26 C22 1.428 1_545 S
C26 C25 1.391 1_545 S
H27 C30 0.931 . S
H28 C33 0.928 . S
H29 C35 0.930 . S
C30 H27 0.931 . S
C30 C31 1.413 . S
C30 C32 1.360 . S
C31 C30 1.413 . S
C31 C35 1.429 . S
C32 C30 1.360 . S
C32 C33 1.372 . S
C33 H28 0.928 . S
C33 C32 1.372 . S
C33 C34 1.404 . S
C34 C33 1.404 . S
C34 C35 1.391 . S
C35 H29 0.930 . S
C35 C31 1.429 . S
C35 C34 1.391 . S
H36 C39 0.931 . S
H37 C42 0.928 . S
H38 C44 0.930 . S
C39 H36 0.931 . S
C39 C40 1.413 . S
C39 C41 1.360 1_556 S
C40 C39 1.413 . S
C40 C44 1.429 . S
C41 C39 1.360 1_554 S
C41 C42 1.372 . S
C42 H37 0.928 . S
C42 C41 1.372 . S
C42 C43 1.404 . S
C43 C42 1.404 . S
C43 C44 1.391 1_554 S
C44 H38 0.930 . S
C44 C40 1.429 . S
C44 C43 1.391 1_556 S
H45 C48 0.931 . S
H46 C51 0.928 . S
H47 C53 0.930 . S
C48 H45 0.931 . S
C48 C49 1.413 . S
C48 C50 1.360 . S
C49 C48 1.413 . S
C49 C53 1.429 . S
C50 C48 1.360 . S
C50 C51 1.372 . S
C51 H46 0.928 . S
C51 C50 1.372 . S
C51 C52 1.404 . S
C52 C51 1.404 . S
C52 C53 1.391 . S
C53 H47 0.930 . S
C53 C49 1.429 . S
C53 C52 1.391 . S
H54 C57 0.931 . S
H55 C60 0.928 . S
H56 C62 0.931 . S
C57 H54 0.931 . S
C57 C58 1.414 . S
C57 C59 1.360 . S
C58 C57 1.414 . S
C58 C62 1.430 1_565 S
C59 C57 1.360 . S
C59 C60 1.373 . S
C60 H55 0.928 . S
C60 C59 1.373 . S
C60 C61 1.404 . S
C61 C60 1.404 . S
C61 C62 1.390 1_565 S
C62 H56 0.931 . S
C62 C58 1.430 1_545 S
C62 C61 1.390 1_545 S
H63 C66 0.931 . S
H64 C69 0.928 . S
H65 C71 0.930 . S
C66 H63 0.931 . S
C66 C67 1.413 . S
C66 C68 1.360 . S
C67 C66 1.413 . S
C67 C71 1.429 . S
C68 C66 1.360 . S
C68 C69 1.372 . S
C69 H64 0.928 . S
C69 C68 1.372 . S
C69 C70 1.404 . S
C70 C69 1.404 . S
C70 C71 1.391 . S
C71 H65 0.930 . S
C71 C67 1.429 . S
C71 C70 1.391 . S
Dy72 O75 2.307 1_545 S
Dy72 O77 2.395 1_655 S
Dy72 O78 2.379 . S
Dy72 O80 2.339 . S
Dy72 O82 2.298 . S
Dy72 O86 2.275 1_655 S
Dy72 C94 2.738 . S
Dy73 O76 2.298 . S
Dy73 O79 2.275 1_455 S
Dy73 O81 2.307 1_565 S
Dy73 O83 2.397 . S
Dy73 O84 2.379 . S
Dy73 O87 2.339 . S
Dy73 C103 2.738 . S
C74 O86 1.254 1_565 S
C74 O87 1.257 . S
O75 Dy72 2.307 1_565 S
O75 C85 1.266 . S
O76 Dy73 2.298 . S
O76 C85 1.236 1_455 S
O77 Dy72 2.395 1_455 S
O77 C94 1.255 1_455 S
O78 Dy72 2.379 . S
O78 C94 1.249 . S
O79 Dy73 2.275 1_655 S
O79 C95 1.254 1_565 S
O80 Dy72 2.339 . S
O80 C95 1.257 . S
O81 Dy73 2.307 1_545 S
O81 C96 1.266 . S
O82 Dy72 2.298 . S
O82 C96 1.236 1_655 S
O83 Dy73 2.397 . S
O83 C103 1.260 . S
O84 Dy73 2.379 . S
O84 C103 1.249 . S
C85 O75 1.266 . S
C85 O76 1.236 1_655 S
O86 Dy72 2.275 1_455 S
O86 C74 1.254 1_545 S
O87 Dy73 2.339 . S
O87 C74 1.257 . S
C88 C91 1.344 1_655 S
C88 C92 1.328 . S
C88 C94 1.516 . S
C89 C90 1.304 1_655 S
C89 C93 1.323 . S
C90 C89 1.304 1_455 S
C90 C91 1.371 . S
C90 H104 0.930 . S
C91 C88 1.344 1_455 S
C91 C90 1.371 . S
C91 H105 0.931 . S
C92 C88 1.328 . S
C92 C93 1.433 . S
C92 H106 0.931 . S
C93 C89 1.323 . S
C93 C92 1.433 . S
C93 H107 0.933 . S
C94 Dy72 2.738 . S
C94 O77 1.255 1_655 S
C94 O78 1.249 . S
C94 C88 1.516 . S
C95 O79 1.254 1_545 S
C95 O80 1.257 . S
C96 O81 1.266 . S
C96 O82 1.236 1_455 S
C97 C100 1.344 . S
C97 C101 1.328 . S
C97 C103 1.516 . S
C98 C99 1.304 . S
C98 C102 1.323 . S
C99 C98 1.304 . S
C99 C100 1.371 . S
C99 H108 0.930 1_455 S
C100 C97 1.344 . S
C100 C99 1.371 . S
C100 H109 0.931 1_455 S
C101 C97 1.328 . S
C101 C102 1.433 . S
C101 H110 0.931 . S
C102 C98 1.323 . S
C102 C101 1.433 . S
C102 H111 0.933 . S
C103 Dy73 2.738 . S
C103 O83 1.260 . S
C103 O84 1.249 . S
C103 C97 1.516 . S
H104 C90 0.930 . S
H105 C91 0.931 . S
H106 C92 0.931 . S
H107 C93 0.933 . S
H108 C99 0.930 1_655 S
H109 C100 0.931 1_655 S
H110 C101 0.931 . S
H111 C102 0.933 . S
Dy112 O115 2.307 . S
Dy112 O117 2.395 1_565 S
Dy112 O118 2.379 . S
Dy112 O120 2.339 . S
Dy112 O122 2.298 . S
Dy112 O126 2.275 1_565 S
Dy112 C134 2.738 . S
Dy113 O116 2.298 . S
Dy113 O119 2.275 1_545 S
Dy113 O121 2.307 . S
Dy113 O123 2.395 1_545 S
Dy113 O124 2.379 . S
Dy113 O127 2.339 . S
Dy113 C143 2.738 . S
C114 O126 1.254 . S
C114 O127 1.257 . S
O115 Dy112 2.307 . S
O115 C125 1.266 . S
O116 Dy113 2.298 . S
O116 C125 1.236 1_545 S
O117 Dy112 2.395 1_545 S
O117 C134 1.255 1_545 S
O118 Dy112 2.379 . S
O118 C134 1.249 . S
O119 Dy113 2.275 1_565 S
O119 C135 1.254 . S
O120 Dy112 2.339 . S
O120 C135 1.257 . S
O121 Dy113 2.307 . S
O121 C136 1.266 . S
O122 Dy112 2.298 . S
O122 C136 1.236 1_565 S
O123 Dy113 2.395 1_565 S
O123 C143 1.255 1_565 S
O124 Dy113 2.379 . S
O124 C143 1.249 . S
C125 O115 1.266 . S
C125 O116 1.236 1_565 S
O126 Dy112 2.275 1_545 S
O126 C114 1.254 . S
O127 Dy113 2.339 . S
O127 C114 1.257 . S
C128 C131 1.330 1_565 S
C128 C132 1.328 . S
C128 C134 1.516 . S
C129 C130 1.304 . S
C129 C133 1.323 . S
C130 C129 1.304 . S
C130 C131 1.369 1_565 S
C130 H144 0.930 1_565 S
C131 C128 1.330 1_545 S
C131 C130 1.369 1_545 S
C131 H145 0.948 . S
C132 C128 1.328 . S
C132 C133 1.433 . S
C132 H146 0.931 . S
C133 C129 1.323 . S
C133 C132 1.433 . S
C133 H147 0.933 . S
C134 Dy112 2.738 . S
C134 O117 1.255 1_565 S
C134 O118 1.249 . S
C134 C128 1.516 . S
C135 O119 1.254 . S
C135 O120 1.257 . S
C136 O121 1.266 . S
C136 O122 1.236 1_545 S
C137 C140 1.339 1_545 S
C137 C141 1.328 . S
C137 C143 1.516 . S
C138 C139 1.304 . S
C138 C142 1.323 . S
C139 C138 1.304 . S
C139 C140 1.370 1_545 S
C139 H148 0.930 1_545 S
C140 C137 1.339 1_565 S
C140 C139 1.370 1_565 S
C140 H149 0.937 . S
C141 C137 1.328 . S
C141 C142 1.433 . S
C141 H150 0.931 . S
C142 C138 1.323 . S
C142 C141 1.433 . S
C142 H151 0.933 . S
C143 Dy113 2.738 . S
C143 O123 1.255 1_545 S
C143 O124 1.249 . S
C143 C137 1.516 . S
H144 C130 0.930 1_545 S
H145 C131 0.948 . S
H146 C132 0.931 . S
H147 C133 0.933 . S
H148 C139 0.930 1_565 S
H149 C140 0.937 . S
H150 C141 0.931 . S
H151 C142 0.933 . S
Dy152 O155 2.307 . S
Dy152 O157 2.395 . S
Dy152 O158 2.379 . S
Dy152 O160 2.339 . S
Dy152 O162 2.298 . S
Dy152 O166 2.275 . S
Dy152 C174 2.738 . S
Dy153 O156 2.298 . S
Dy153 O159 2.275 . S
Dy153 O161 2.307 . S
Dy153 O163 2.395 . S
Dy153 O164 2.379 . S
Dy153 O167 2.339 . S
Dy153 C183 2.738 . S
C154 O166 1.254 . S
C154 O167 1.257 . S
O155 Dy152 2.307 . S
O155 C165 1.266 . S
O156 Dy153 2.298 . S
O156 C165 1.236 . S
O157 Dy152 2.395 . S
O157 C174 1.255 . S
O158 Dy152 2.379 . S
O158 C174 1.249 . S
O159 Dy153 2.275 . S
O159 C175 1.254 . S
O160 Dy152 2.339 . S
O160 C175 1.257 . S
O161 Dy153 2.307 . S
O161 C176 1.266 . S
O162 Dy152 2.298 . S
O162 C176 1.236 . S
O163 Dy153 2.395 . S
O163 C183 1.255 . S
O164 Dy153 2.379 . S
O164 C183 1.249 . S
C165 O155 1.266 . S
C165 O156 1.236 . S
O166 Dy152 2.275 . S
O166 C154 1.254 . S
O167 Dy153 2.339 . S
O167 C154 1.257 . S
C168 C171 1.344 . S
C168 C172 1.328 . S
C168 C174 1.516 . S
C169 C170 1.304 . S
C169 C173 1.323 . S
C170 C169 1.304 . S
C170 C171 1.371 . S
C170 H184 0.930 . S
C171 C168 1.344 . S
C171 C170 1.371 . S
C171 H185 0.931 . S
C172 C168 1.328 . S
C172 C173 1.433 . S
C172 H186 0.931 . S
C173 C169 1.323 . S
C173 C172 1.433 . S
C173 H187 0.933 . S
C174 Dy152 2.738 . S
C174 O157 1.255 . S
C174 O158 1.249 . S
C174 C168 1.516 . S
C175 O159 1.254 . S
C175 O160 1.257 . S
C176 O161 1.266 . S
C176 O162 1.236 . S
C177 C180 1.344 . S
C177 C181 1.328 . S
C177 C183 1.516 . S
C178 C179 1.304 . S
C178 C182 1.323 . S
C179 C178 1.304 . S
C179 C180 1.371 . S
C179 H188 0.930 . S
C180 C177 1.344 . S
C180 C179 1.371 . S
C180 H189 0.931 . S
C181 C177 1.328 . S
C181 C182 1.433 . S
C181 H190 0.931 . S
C182 C178 1.323 . S
C182 C181 1.433 . S
C182 H191 0.933 . S
C183 Dy153 2.738 . S
C183 O163 1.255 . S
C183 O164 1.249 . S
C183 C177 1.516 . S
H184 C170 0.930 . S
H185 C171 0.931 . S
H186 C172 0.931 . S
H187 C173 0.933 . S
H188 C179 0.930 . S
H189 C180 0.931 . S
H190 C181 0.931 . S
H191 C182 0.933 . S
Dy192 O195 2.307 1_455 S
Dy192 O197 2.395 . S
Dy192 O198 2.379 . S
Dy192 O200 2.339 . S
Dy192 O202 2.298 . S
Dy192 O206 2.275 . S
Dy192 C214 2.738 . S
Dy193 O196 2.298 . S
Dy193 O199 2.275 . S
Dy193 O201 2.307 1_655 S
Dy193 O203 2.395 . S
Dy193 O204 2.379 . S
Dy193 O207 2.339 . S
Dy193 C223 2.738 . S
C194 O206 1.254 . S
C194 O207 1.257 1_455 S
O195 Dy192 2.307 1_655 S
O195 C205 1.266 . S
O196 Dy193 2.298 . S
O196 C205 1.236 . S
O197 Dy192 2.395 . S
O197 C214 1.255 . S
O198 Dy192 2.379 . S
O198 C214 1.249 . S
O199 Dy193 2.275 . S
O199 C215 1.254 1_655 S
O200 Dy192 2.339 . S
O200 C215 1.257 . S
O201 Dy193 2.307 1_455 S
O201 C216 1.266 . S
O202 Dy192 2.298 . S
O202 C216 1.236 . S
O203 Dy193 2.395 . S
O203 C223 1.255 . S
O204 Dy193 2.379 . S
O204 C223 1.249 . S
C205 O195 1.266 . S
C205 O196 1.236 . S
O206 Dy192 2.275 . S
O206 C194 1.254 . S
O207 Dy193 2.339 . S
O207 C194 1.257 1_655 S
C208 C211 1.344 . S
C208 C212 1.328 . S
C208 C214 1.516 . S
C209 C210 1.304 . S
C209 C213 1.323 . S
C210 C209 1.304 . S
C210 C211 1.371 . S
C210 H224 0.930 . S
C211 C208 1.344 . S
C211 C210 1.371 . S
C211 H225 0.931 . S
C212 C208 1.328 . S
C212 C213 1.433 . S
C212 H226 0.931 . S
C213 C209 1.323 . S
C213 C212 1.433 . S
C213 H227 0.933 . S
C214 Dy192 2.738 . S
C214 O197 1.255 . S
C214 O198 1.249 . S
C214 C208 1.516 . S
C215 O199 1.254 1_455 S
C215 O200 1.257 . S
C216 O201 1.266 . S
C216 O202 1.236 . S
C217 C220 1.344 . S
C217 C221 1.328 . S
C217 C223 1.516 . S
C218 C219 1.304 1_554 S
C218 C222 1.323 1_554 S
C219 C218 1.304 1_556 S
C219 C220 1.371 . S
C219 H228 0.930 1_556 S
C220 C217 1.344 . S
C220 C219 1.371 . S
C220 H229 0.931 . S
C221 C217 1.328 . S
C221 C222 1.433 . S
C221 H230 0.931 . S
C222 C218 1.323 1_556 S
C222 C221 1.433 . S
C222 H231 0.933 . S
C223 Dy193 2.738 . S
C223 O203 1.255 . S
C223 O204 1.249 . S
C223 C217 1.516 . S
H224 C210 0.930 . S
H225 C211 0.931 . S
H226 C212 0.931 . S
H227 C213 0.933 . S
H228 C219 0.930 1_554 S
H229 C220 0.931 . S
H230 C221 0.931 . S
H231 C222 0.933 . S
C232 C233 1.350 . S
C232 C234 1.327 . S
C232 H257 0.950 . S
C233 C232 1.350 . S
C233 C249 1.347 1_545 S
C234 C232 1.327 . S
C234 C253 1.435 . S
C234 H258 0.950 . S
C235 C252 1.574 . S
C235 C254 1.359 1_565 S
C235 H259 0.949 . S
H236 C240 0.949 . S
C237 C238 1.330 1_565 S
C237 C239 1.327 . S
C237 H260 0.950 . S
C238 C237 1.330 1_545 S
C238 C250 1.370 . S
C239 C237 1.327 . S
C239 C255 1.413 1_565 S
C239 H261 0.950 . S
C240 H236 0.949 . S
C240 C248 1.574 . S
C240 C256 1.382 . S
H241 C249 0.950 . S
H242 C247 0.950 . S
H243 C248 0.949 . S
H244 C250 0.950 . S
H245 C251 0.950 . S
H246 C252 0.949 . S
C247 H242 0.950 . S
C247 C249 1.327 . S
C247 C253 1.423 1_565 S
C248 C240 1.574 . S
C248 H243 0.949 . S
C248 C254 1.377 . S
C249 C233 1.347 1_565 S
C249 H241 0.950 . S
C249 C247 1.327 . S
C250 C238 1.370 . S
C250 H244 0.950 . S
C250 C251 1.327 . S
C251 H245 0.950 . S
C251 C250 1.327 . S
C251 C255 1.442 . S
C252 C235 1.574 . S
C252 H246 0.949 . S
C252 C256 1.355 1_565 S
C253 C234 1.435 . S
C253 C247 1.423 1_545 S
C253 C254 1.523 . S
C254 C235 1.359 1_545 S
C254 C248 1.377 . S
C254 C253 1.523 . S
C255 C239 1.413 1_545 S
C255 C251 1.442 . S
C255 C256 1.523 . S
C256 C240 1.382 . S
C256 C252 1.355 1_545 S
C256 C255 1.523 . S
H257 C232 0.950 . S
H258 C234 0.950 . S
H259 C235 0.949 . S
H260 C237 0.950 . S
H261 C239 0.950 . S
C262 C263 1.349 . S
C262 C264 1.327 . S
C262 H287 0.950 . S
C263 C262 1.349 . S
C263 C279 1.349 . S
C264 C262 1.327 . S
C264 C283 1.429 . S
C264 H288 0.950 . S
C265 C282 1.574 . S
C265 C284 1.368 . S
C265 H289 0.949 . S
H266 C270 0.949 . S
C267 C268 1.349 . S
C267 C269 1.327 . S
C267 H290 0.950 . S
C268 C267 1.349 . S
C268 C280 1.349 . S
C269 C267 1.327 . S
C269 C285 1.429 . S
C269 H291 0.950 . S
C270 H266 0.949 . S
C270 C278 1.574 . S
C270 C286 1.368 . S
H271 C279 0.950 . S
H272 C277 0.950 . S
H273 C278 0.949 . S
H274 C280 0.950 . S
H275 C281 0.950 . S
H276 C282 0.949 . S
C277 H272 0.950 . S
C277 C279 1.327 . S
C277 C283 1.429 . S
C278 C270 1.574 . S
C278 H273 0.949 . S
C278 C284 1.368 . S
C279 C263 1.349 . S
C279 H271 0.950 . S
C279 C277 1.327 . S
C280 C268 1.349 . S
C280 H274 0.950 . S
C280 C281 1.327 . S
C281 H275 0.950 . S
C281 C280 1.327 . S
C281 C285 1.429 . S
C282 C265 1.574 . S
C282 H276 0.949 . S
C282 C286 1.368 . S
C283 C264 1.429 . S
C283 C277 1.429 . S
C283 C284 1.523 . S
C284 C265 1.368 . S
C284 C278 1.368 . S
C284 C283 1.523 . S
C285 C269 1.429 . S
C285 C281 1.429 . S
C285 C286 1.523 . S
C286 C270 1.368 . S
C286 C282 1.368 . S
C286 C285 1.523 . S
H287 C262 0.950 . S
H288 C264 0.950 . S
H289 C265 0.949 . S
H290 C267 0.950 . S
H291 C269 0.950 . S
C292 C293 1.349 . S
C292 C294 1.327 . S
C292 H317 0.950 . S
C293 C292 1.349 . S
C293 C309 1.349 . S
C294 C292 1.327 . S
C294 C313 1.429 . S
C294 H318 0.950 . S
C295 C312 1.574 . S
C295 C314 1.368 . S
C295 H319 0.949 . S
H296 C300 0.949 . S
C297 C298 1.349 . S
C297 C299 1.327 . S
C297 H320 0.950 . S
C298 C297 1.349 . S
C298 C310 1.349 . S
C299 C297 1.327 . S
C299 C315 1.429 . S
C299 H321 0.950 . S
C300 H296 0.949 . S
C300 C308 1.574 . S
C300 C316 1.368 . S
H301 C309 0.950 . S
H302 C307 0.950 . S
H303 C308 0.949 . S
H304 C310 0.950 . S
H305 C311 0.950 . S
H306 C312 0.949 . S
C307 H302 0.950 . S
C307 C309 1.327 . S
C307 C313 1.429 . S
C308 C300 1.574 . S
C308 H303 0.949 . S
C308 C314 1.368 . S
C309 C293 1.349 . S
C309 H301 0.950 . S
C309 C307 1.327 . S
C310 C298 1.349 . S
C310 H304 0.950 . S
C310 C311 1.327 . S
C311 H305 0.950 . S
C311 C310 1.327 . S
C311 C315 1.429 . S
C312 C295 1.574 . S
C312 H306 0.949 . S
C312 C316 1.368 . S
C313 C294 1.429 . S
C313 C307 1.429 . S
C313 C314 1.523 . S
C314 C295 1.368 . S
C314 C308 1.368 . S
C314 C313 1.523 . S
C315 C299 1.429 . S
C315 C311 1.429 . S
C315 C316 1.523 . S
C316 C300 1.368 . S
C316 C312 1.368 . S
C316 C315 1.523 . S
H317 C292 0.950 . S
H318 C294 0.950 . S
H319 C295 0.949 . S
H320 C297 0.950 . S
H321 C299 0.950 . S
C322 C323 1.349 . S
C322 C324 1.327 . S
C322 H347 0.950 . S
C323 C322 1.349 . S
C323 C339 1.349 . S
C324 C322 1.327 . S
C324 C343 1.429 . S
C324 H348 0.950 . S
C325 C342 1.574 . S
C325 C344 1.368 1_655 S
C325 H349 0.949 . S
H326 C330 0.949 . S
C327 C328 1.349 1_655 S
C327 C329 1.327 . S
C327 H350 0.950 . S
C328 C327 1.349 1_455 S
C328 C340 1.349 . S
C329 C327 1.327 . S
C329 C345 1.429 1_655 S
C329 H351 0.950 . S
C330 H326 0.949 . S
C330 C338 1.574 . S
C330 C346 1.368 . S
H331 C339 0.950 1_655 S
H332 C337 0.938 1_655 S
H333 C338 0.949 . S
H334 C340 0.950 . S
H335 C341 0.950 . S
H336 C342 0.949 . S
C337 H332 0.938 1_455 S
C337 C339 1.323 . S
C337 C343 1.445 . S
C338 C330 1.574 . S
C338 H333 0.949 . S
C338 C344 1.368 . S
C339 C323 1.349 . S
C339 H331 0.950 1_455 S
C339 C337 1.323 . S
C340 C328 1.349 . S
C340 H334 0.950 . S
C340 C341 1.327 . S
C341 H335 0.950 . S
C341 C340 1.327 . S
C341 C345 1.429 . S
C342 C325 1.574 . S
C342 H336 0.949 . S
C342 C346 1.368 1_655 S
C343 C324 1.429 . S
C343 C337 1.445 . S
C343 C344 1.523 . S
C344 C325 1.368 1_455 S
C344 C338 1.368 . S
C344 C343 1.523 . S
C345 C329 1.429 1_455 S
C345 C341 1.429 . S
C345 C346 1.523 . S
C346 C330 1.368 . S
C346 C342 1.368 1_455 S
C346 C345 1.523 . S
H347 C322 0.950 . S
H348 C324 0.950 . S
H349 C325 0.949 . S
H350 C327 0.950 . S
H351 C329 0.950 . S
C352 C353 1.347 . S
C352 C354 1.327 . S
C352 H377 0.950 . S
C353 C352 1.347 . S
C353 C369 1.350 1_545 S
C354 C352 1.327 . S
C354 C373 1.431 1_545 S
C354 H378 0.950 . S
C355 C372 1.574 1_554 S
C355 C374 1.368 . S
C355 H379 0.949 . S
H356 C360 0.949 . S
C357 C358 1.359 . S
C357 C359 1.327 . S
C357 H380 0.950 . S
C358 C357 1.359 . S
C358 C370 1.340 1_565 S
C359 C357 1.327 . S
C359 C375 1.433 . S
C359 H381 0.950 . S
C360 H356 0.949 . S
C360 C368 1.574 . S
C360 C376 1.365 1_544 S
H361 C369 0.950 . S
H362 C367 0.950 . S
H363 C368 0.949 . S
H364 C370 0.950 . S
H365 C371 0.950 . S
H366 C372 0.949 . S
C367 H362 0.950 . S
C367 C369 1.327 . S
C367 C373 1.426 . S
C368 C360 1.574 . S
C368 H363 0.949 . S
C368 C374 1.369 1_545 S
C369 C353 1.350 1_565 S
C369 H361 0.950 . S
C369 C367 1.327 . S
C370 C358 1.340 1_545 S
C370 H364 0.950 . S
C370 C371 1.327 . S
C371 H365 0.950 . S
C371 C370 1.327 . S
C371 C375 1.423 1_545 S
C372 C355 1.574 1_556 S
C372 H366 0.949 . S
C372 C376 1.372 . S
C373 C354 1.431 1_565 S
C373 C367 1.426 . S
C373 C374 1.523 . S
C374 C355 1.368 . S
C374 C368 1.369 1_565 S
C374 C373 1.523 . S
C375 C359 1.433 . S
C375 C371 1.423 1_565 S
C375 C376 1.523 . S
C376 C360 1.365 1_566 S
C376 C372 1.372 . S
C376 C375 1.523 . S
H377 C352 0.950 . S
H378 C354 0.950 . S
H379 C355 0.949 . S
H380 C357 0.950 . S
H381 C359 0.950 . S
C382 C383 1.349 . S
C382 C384 1.327 1_554 S
C382 H407 0.950 . S
C383 C382 1.349 . S
C383 C399 1.349 . S
C384 C382 1.327 1_556 S
C384 C403 1.428 1_556 S
C384 H408 0.950 . S
C385 C402 1.574 . S
C385 C404 1.368 . S
C385 H409 0.949 1_556 S
H386 C390 0.949 . S
C387 C388 1.349 . S
C387 C389 1.327 . S
C387 H410 0.950 . S
C388 C387 1.349 . S
C388 C400 1.349 . S
C389 C387 1.327 . S
C389 C405 1.429 . S
C389 H411 0.950 . S
C390 H386 0.949 . S
C390 C398 1.574 . S
C390 C406 1.368 . S
H391 C399 0.950 . S
H392 C397 0.950 . S
H393 C398 0.949 . S
H394 C400 0.950 . S
H395 C401 0.950 . S
H396 C402 0.949 . S
C397 H392 0.950 . S
C397 C399 1.327 . S
C397 C403 1.432 . S
C398 C390 1.574 . S
C398 H393 0.949 . S
C398 C404 1.368 . S
C399 C383 1.349 . S
C399 H391 0.950 . S
C399 C397 1.327 . S
C400 C388 1.349 . S
C400 H394 0.950 . S
C400 C401 1.327 . S
C401 H395 0.950 . S
C401 C400 1.327 . S
C401 C405 1.429 . S
C402 C385 1.574 . S
C402 H396 0.949 . S
C402 C406 1.368 . S
C403 C384 1.428 1_554 S
C403 C397 1.432 . S
C403 C404 1.520 1_554 S
C404 C385 1.368 . S
C404 C398 1.368 . S
C404 C403 1.520 1_556 S
C405 C389 1.429 . S
C405 C401 1.429 . S
C405 C406 1.523 . S
C406 C390 1.368 . S
C406 C402 1.368 . S
C406 C405 1.523 . S
H407 C382 0.950 . S
H408 C384 0.950 . S
H409 C385 0.949 1_554 S
H410 C387 0.950 . S
H411 C389 0.950 . S
C412 C413 1.349 . S
C412 C414 1.327 . S
C412 H437 0.950 . S
C413 C412 1.349 . S
C413 C429 1.349 . S
C414 C412 1.327 . S
C414 C433 1.429 . S
C414 H438 0.950 . S
C415 C432 1.574 . S
C415 C434 1.368 . S
C415 H439 0.949 . S
H416 C420 0.949 . S
C417 C418 1.349 . S
C417 C419 1.327 1_556 S
C417 H440 0.950 . S
C418 C417 1.349 . S
C418 C430 1.349 1_556 S
C419 C417 1.327 1_554 S
C419 C435 1.429 . S
C419 H441 0.950 . S
C420 H416 0.949 . S
C420 C428 1.574 . S
C420 C436 1.368 . S
H421 C429 0.950 . S
H422 C427 0.950 . S
H423 C428 0.949 . S
H424 C430 0.950 . S
H425 C431 0.950 . S
H426 C432 0.949 . S
C427 H422 0.950 . S
C427 C429 1.327 . S
C427 C433 1.429 . S
C428 C420 1.574 . S
C428 H423 0.949 . S
C428 C434 1.368 . S
C429 C413 1.349 . S
C429 H421 0.950 . S
C429 C427 1.327 . S
C430 C418 1.349 1_554 S
C430 H424 0.950 . S
C430 C431 1.327 . S
C431 H425 0.950 . S
C431 C430 1.327 . S
C431 C435 1.429 . S
C432 C415 1.574 . S
C432 H426 0.949 . S
C432 C436 1.368 . S
C433 C414 1.429 . S
C433 C427 1.429 . S
C433 C434 1.523 . S
C434 C415 1.368 . S
C434 C428 1.368 . S
C434 C433 1.523 . S
C435 C419 1.429 . S
C435 C431 1.429 . S
C435 C436 1.523 . S
C436 C420 1.368 . S
C436 C432 1.368 . S
C436 C435 1.523 . S
H437 C412 0.950 . S
H438 C414 0.950 . S
H439 C415 0.949 . S
H440 C417 0.950 . S
H441 C419 0.950 . S
C442 C443 1.349 . S
C442 C444 1.327 . S
C442 H467 0.950 . S
C443 C442 1.349 . S
C443 C459 1.349 1_655 S
C444 C442 1.327 . S
C444 C463 1.429 . S
C444 H468 0.950 . S
C445 C462 1.574 . S
C445 C464 1.368 1_455 S
C445 H469 0.949 . S
H446 C450 0.949 . S
C447 C448 1.335 1_455 S
C447 C449 1.327 . S
C447 H470 0.950 . S
C448 C447 1.335 1_655 S
C448 C460 1.360 . S
C449 C447 1.327 . S
C449 C465 1.429 1_455 S
C449 H471 0.950 . S
C450 H446 0.949 . S
C450 C458 1.574 . S
C450 C466 1.368 . S
H451 C459 0.950 . S
H452 C457 0.950 . S
H453 C458 0.949 . S
H454 C460 0.950 . S
H455 C461 0.950 . S
H456 C462 0.949 1_556 S
C457 H452 0.950 . S
C457 C459 1.327 . S
C457 C463 1.429 1_455 S
C458 C450 1.574 . S
C458 H453 0.949 . S
C458 C464 1.368 . S
C459 C443 1.349 1_455 S
C459 H451 0.950 . S
C459 C457 1.327 . S
C460 C448 1.360 . S
C460 H454 0.950 . S
C460 C461 1.327 . S
C461 H455 0.950 . S
C461 C460 1.327 . S
C461 C465 1.429 . S
C462 C445 1.574 . S
C462 H456 0.949 1_554 S
C462 C466 1.368 1_455 S
C463 C444 1.429 . S
C463 C457 1.429 1_655 S
C463 C464 1.523 . S
C464 C445 1.368 1_655 S
C464 C458 1.368 . S
C464 C463 1.523 . S
C465 C449 1.429 1_655 S
C465 C461 1.429 . S
C465 C466 1.523 1_556 S
C466 C450 1.368 . S
C466 C462 1.368 1_655 S
C466 C465 1.523 1_554 S
H467 C442 0.950 . S
H468 C444 0.950 . S
H469 C445 0.949 . S
H470 C447 0.950 . S
H471 C449 0.950 . S
C472 C473 1.349 . S
C472 C474 1.327 . S
C472 H497 0.950 . S
C473 C472 1.349 . S
C473 C489 1.349 . S
C474 C472 1.327 . S
C474 C493 1.429 . S
C474 H498 0.950 1_455 S
C475 C492 1.574 . S
C475 C494 1.375 . S
C475 H499 0.949 . S
H476 C480 0.949 . S
C477 C478 1.349 . S
C477 C479 1.327 . S
C477 H500 0.950 . S
C478 C477 1.349 . S
C478 C490 1.349 . S
C479 C477 1.327 . S
C479 C495 1.429 . S
C479 H501 0.950 . S
C480 H476 0.949 . S
C480 C488 1.574 . S
C480 C496 1.368 . S
H481 C489 0.950 . S
H482 C487 0.950 . S
H483 C488 0.949 . S
H484 C490 0.950 . S
H485 C491 0.950 . S
H486 C492 0.949 . S
C487 H482 0.950 . S
C487 C489 1.327 . S
C487 C493 1.429 . S
C488 C480 1.574 . S
C488 H483 0.949 . S
C488 C494 1.356 1_655 S
C489 C473 1.349 . S
C489 H481 0.950 . S
C489 C487 1.327 . S
C490 C478 1.349 . S
C490 H484 0.950 . S
C490 C491 1.327 . S
C491 H485 0.950 . S
C491 C490 1.327 . S
C491 C495 1.429 . S
C492 C475 1.574 . S
C492 H486 0.949 . S
C492 C496 1.368 1_455 S
C493 C474 1.429 . S
C493 C487 1.429 . S
C493 C494 1.534 . S
C494 C475 1.375 . S
C494 C488 1.356 1_455 S
C494 C493 1.534 . S
C495 C479 1.429 . S
C495 C491 1.429 . S
C495 C496 1.523 . S
C496 C480 1.368 . S
C496 C492 1.368 1_655 S
C496 C495 1.523 . S
H497 C472 0.950 . S
H498 C474 0.950 1_655 S
H499 C475 0.949 . S
H500 C477 0.950 . S
H501 C479 0.950 . S
C502 C503 1.382 . S
C502 C504 1.327 . S
C502 H527 0.950 . S
C503 C502 1.382 . S
C503 C519 1.313 1_545 S
C504 C502 1.327 . S
C504 C523 1.429 1_545 S
C504 H528 0.950 . S
C505 C522 1.574 . S
C505 C524 1.368 . S
C505 H529 0.949 . S
H506 C510 0.949 . S
C507 C508 1.349 . S
C507 C509 1.327 . S
C507 H530 0.950 . S
C508 C507 1.349 . S
C508 C520 1.349 . S
C509 C507 1.327 . S
C509 C525 1.429 . S
C509 H531 0.950 . S
C510 H506 0.949 . S
C510 C518 1.574 . S
C510 C526 1.368 1_545 S
H511 C519 0.950 . S
H512 C517 0.950 . S
H513 C518 0.949 . S
H514 C520 0.950 1_545 S
H515 C521 0.950 1_545 S
H516 C522 0.949 . S
C517 H512 0.950 . S
C517 C519 1.327 . S
C517 C523 1.429 . S
C518 C510 1.574 . S
C518 H513 0.949 . S
C518 C524 1.368 1_545 S
C519 C503 1.313 1_565 S
C519 H511 0.950 . S
C519 C517 1.327 . S
C520 C508 1.349 . S
C520 H514 0.950 1_565 S
C520 C521 1.327 . S
C521 H515 0.950 1_565 S
C521 C520 1.327 . S
C521 C525 1.429 . S
C522 C505 1.574 . S
C522 H516 0.949 . S
C522 C526 1.368 . S
C523 C504 1.429 1_565 S
C523 C517 1.429 . S
C523 C524 1.523 . S
C524 C505 1.368 . S
C524 C518 1.368 1_565 S
C524 C523 1.523 . S
C525 C509 1.429 . S
C525 C521 1.429 . S
C525 C526 1.523 . S
C526 C510 1.368 1_565 S
C526 C522 1.368 . S
C526 C525 1.523 . S
H527 C502 0.950 . S
H528 C504 0.950 . S
H529 C505 0.949 . S
H530 C507 0.950 . S
H531 C509 0.950 . S
C532 C533 1.349 . S
C532 C534 1.327 . S
C532 H557 0.950 . S
C533 C532 1.349 . S
C533 C549 1.349 . S
C534 C532 1.327 . S
C534 C553 1.429 . S
C534 H558 0.950 . S
C535 C552 1.574 . S
C535 C554 1.368 . S
C535 H559 0.949 . S
H536 C540 0.949 . S
C537 C538 1.349 . S
C537 C539 1.327 . S
C537 H560 0.950 . S
C538 C537 1.349 . S
C538 C550 1.349 . S
C539 C537 1.327 . S
C539 C555 1.429 . S
C539 H561 0.950 . S
C540 H536 0.949 . S
C540 C548 1.574 . S
C540 C556 1.368 . S
H541 C549 0.950 . S
H542 C547 0.950 . S
H543 C548 0.949 . S
H544 C550 0.950 . S
H545 C551 0.950 . S
H546 C552 0.949 . S
C547 H542 0.950 . S
C547 C549 1.327 . S
C547 C553 1.429 . S
C548 C540 1.574 . S
C548 H543 0.949 . S
C548 C554 1.368 . S
C549 C533 1.349 . S
C549 H541 0.950 . S
C549 C547 1.327 . S
C550 C538 1.349 . S
C550 H544 0.950 . S
C550 C551 1.327 . S
C551 H545 0.950 . S
C551 C550 1.327 . S
C551 C555 1.429 . S
C552 C535 1.574 . S
C552 H546 0.949 . S
C552 C556 1.368 . S
C553 C534 1.429 . S
C553 C547 1.429 . S
C553 C554 1.523 . S
C554 C535 1.368 . S
C554 C548 1.368 . S
C554 C553 1.523 . S
C555 C539 1.429 . S
C555 C551 1.429 . S
C555 C556 1.523 . S
C556 C540 1.368 . S
C556 C552 1.368 . S
C556 C555 1.523 . S
H557 C532 0.950 . S
H558 C534 0.950 . S
H559 C535 0.949 . S
H560 C537 0.950 . S
H561 C539 0.950 . S
C562 C563 1.349 . S
C562 C564 1.327 . S
C562 H587 0.950 . S
C563 C562 1.349 . S
C563 C579 1.349 . S
C564 C562 1.327 . S
C564 C583 1.429 . S
C564 H588 0.950 . S
C565 C582 1.574 . S
C565 C584 1.368 . S
C565 H589 0.949 . S
H566 C570 0.949 . S
C567 C568 1.349 . S
C567 C569 1.327 . S
C567 H590 0.950 . S
C568 C567 1.349 . S
C568 C580 1.349 . S
C569 C567 1.327 . S
C569 C585 1.429 . S
C569 H591 0.950 . S
C570 H566 0.949 . S
C570 C578 1.574 . S
C570 C586 1.368 . S
H571 C579 0.950 . S
H572 C577 0.950 . S
H573 C578 0.949 . S
H574 C580 0.950 . S
H575 C581 0.950 . S
H576 C582 0.949 . S
C577 H572 0.950 . S
C577 C579 1.327 . S
C577 C583 1.429 . S
C578 C570 1.574 . S
C578 H573 0.949 . S
C578 C584 1.368 . S
C579 C563 1.349 . S
C579 H571 0.950 . S
C579 C577 1.327 . S
C580 C568 1.349 . S
C580 H574 0.950 . S
C580 C581 1.327 . S
C581 H575 0.950 . S
C581 C580 1.327 . S
C581 C585 1.429 . S
C582 C565 1.574 . S
C582 H576 0.949 . S
C582 C586 1.368 . S
C583 C564 1.429 . S
C583 C577 1.429 . S
C583 C584 1.523 . S
C584 C565 1.368 . S
C584 C578 1.368 . S
C584 C583 1.523 . S
C585 C569 1.429 . S
C585 C581 1.429 . S
C585 C586 1.523 . S
C586 C570 1.368 . S
C586 C582 1.368 . S
C586 C585 1.523 . S
H587 C562 0.950 . S
H588 C564 0.950 . S
H589 C565 0.949 . S
H590 C567 0.950 . S
H591 C569 0.950 . S
C592 C593 1.349 . S
C592 C594 1.327 . S
C592 H617 0.950 . S
C593 C592 1.349 . S
C593 C609 1.349 . S
C594 C592 1.327 . S
C594 C613 1.427 . S
C594 H618 0.950 1_655 S
C595 C612 1.574 . S
C595 C614 1.368 . S
C595 H619 0.949 . S
H596 C600 0.949 . S
C597 C598 1.349 . S
C597 C599 1.327 . S
C597 H620 0.950 . S
C598 C597 1.349 . S
C598 C610 1.349 1_556 S
C599 C597 1.327 . S
C599 C615 1.429 1_556 S
C599 H621 0.950 . S
C600 H596 0.949 . S
C600 C608 1.574 . S
C600 C616 1.368 . S
H601 C609 0.950 . S
H602 C607 0.950 . S
H603 C608 0.949 . S
H604 C610 0.950 . S
H605 C611 0.950 . S
H606 C612 0.949 . S
C607 H602 0.950 . S
C607 C609 1.327 . S
C607 C613 1.432 . S
C608 C600 1.574 . S
C608 H603 0.949 . S
C608 C614 1.368 . S
C609 C593 1.349 . S
C609 H601 0.950 . S
C609 C607 1.327 . S
C610 C598 1.349 1_554 S
C610 H604 0.950 . S
C610 C611 1.327 . S
C611 H605 0.950 . S
C611 C610 1.327 . S
C611 C615 1.429 . S
C612 C595 1.574 . S
C612 H606 0.949 . S
C612 C616 1.368 . S
C613 C594 1.427 . S
C613 C607 1.432 . S
C613 C614 1.521 1_655 S
C614 C595 1.368 . S
C614 C608 1.368 . S
C614 C613 1.521 1_455 S
C615 C599 1.429 1_554 S
C615 C611 1.429 . S
C615 C616 1.523 . S
C616 C600 1.368 . S
C616 C612 1.368 . S
C616 C615 1.523 . S
H617 C592 0.950 . S
H618 C594 0.950 1_455 S
H619 C595 0.949 . S
H620 C597 0.950 . S
H621 C599 0.950 . S
C622 C623 1.317 1_545 S
C622 C624 1.327 . S
C622 H647 0.950 . S
C623 C622 1.317 1_565 S
C623 C639 1.379 . S
C624 C622 1.327 . S
C624 C643 1.429 . S
C624 H648 0.950 . S
C625 C642 1.574 . S
C625 C644 1.368 1_565 S
C625 H649 0.949 . S
H626 C630 0.949 . S
C627 C628 1.349 . S
C627 C629 1.326 1_545 S
C627 H650 0.950 1_545 S
C628 C627 1.349 . S
C628 C640 1.349 . S
C629 C627 1.326 1_565 S
C629 C645 1.416 1_566 S
C629 H651 0.964 . S
C630 H626 0.949 . S
C630 C638 1.574 . S
C630 C646 1.368 . S
H631 C639 0.950 . S
H632 C637 0.950 . S
H633 C638 0.949 . S
H634 C640 0.950 . S
H635 C641 0.950 . S
H636 C642 0.949 . S
C637 H632 0.950 . S
C637 C639 1.327 . S
C637 C643 1.429 1_565 S
C638 C630 1.574 . S
C638 H633 0.949 . S
C638 C644 1.368 . S
C639 C623 1.379 . S
C639 H631 0.950 . S
C639 C637 1.327 . S
C640 C628 1.349 . S
C640 H634 0.950 . S
C640 C641 1.327 1_556 S
C641 H635 0.950 . S
C641 C640 1.327 1_554 S
C641 C645 1.429 . S
C642 C625 1.574 . S
C642 H636 0.949 . S
C642 C646 1.368 1_565 S
C643 C624 1.429 . S
C643 C637 1.429 1_545 S
C643 C644 1.523 . S
C644 C625 1.368 1_545 S
C644 C638 1.368 . S
C644 C643 1.523 . S
C645 C629 1.416 1_544 S
C645 C641 1.429 . S
C645 C646 1.523 . S
C646 C630 1.368 . S
C646 C642 1.368 1_545 S
C646 C645 1.523 . S
H647 C622 0.950 . S
H648 C624 0.950 . S
H649 C625 0.949 . S
H650 C627 0.950 1_565 S
H651 C629 0.964 . S
C652 C653 1.349 1_556 S
C652 C654 1.327 . S
C652 H677 0.950 . S
C653 C652 1.349 1_554 S
C653 C669 1.349 . S
C654 C652 1.327 . S
C654 C673 1.429 1_556 S
C654 H678 0.950 . S
C655 C672 1.574 1_554 S
C655 C674 1.368 1_554 S
C655 H679 0.949 . S
H656 C660 0.949 . S
C657 C658 1.349 . S
C657 C659 1.327 . S
C657 H680 0.950 . S
C658 C657 1.349 . S
C658 C670 1.349 . S
C659 C657 1.327 . S
C659 C675 1.429 . S
C659 H681 0.950 . S
C660 H656 0.949 . S
C660 C668 1.574 . S
C660 C676 1.368 . S
H661 C669 0.950 . S
H662 C667 0.950 . S
H663 C668 0.949 . S
H664 C670 0.950 . S
H665 C671 0.950 . S
H666 C672 0.949 . S
C667 H662 0.950 . S
C667 C669 1.327 . S
C667 C673 1.429 . S
C668 C660 1.574 . S
C668 H663 0.949 . S
C668 C674 1.368 . S
C669 C653 1.349 . S
C669 H661 0.950 . S
C669 C667 1.327 . S
C670 C658 1.349 . S
C670 H664 0.950 . S
C670 C671 1.327 . S
C671 H665 0.950 . S
C671 C670 1.327 . S
C671 C675 1.429 . S
C672 C655 1.574 1_556 S
C672 H666 0.949 . S
C672 C676 1.368 . S
C673 C654 1.429 1_554 S
C673 C667 1.429 . S
C673 C674 1.523 1_554 S
C674 C655 1.368 1_556 S
C674 C668 1.368 . S
C674 C673 1.523 1_556 S
C675 C659 1.429 . S
C675 C671 1.429 . S
C675 C676 1.523 . S
C676 C660 1.368 . S
C676 C672 1.368 . S
C676 C675 1.523 . S
H677 C652 0.950 . S
H678 C654 0.950 . S
H679 C655 0.949 . S
H680 C657 0.950 . S
H681 C659 0.950 . S
C682 C683 1.349 . S
C682 C684 1.327 . S
C682 H707 0.950 . S
C683 C682 1.349 . S
C683 C699 1.349 . S
C684 C682 1.327 . S
C684 C703 1.429 . S
C684 H708 0.950 . S
C685 C702 1.574 . S
C685 C704 1.368 . S
C685 H709 0.949 . S
H686 C690 0.949 . S
C687 C688 1.349 . S
C687 C689 1.327 . S
C687 H710 0.950 . S
C688 C687 1.349 . S
C688 C700 1.349 . S
C689 C687 1.327 . S
C689 C705 1.429 . S
C689 H711 0.950 . S
C690 H686 0.949 . S
C690 C698 1.574 . S
C690 C706 1.368 . S
H691 C699 0.950 . S
H692 C697 0.950 . S
H693 C698 0.949 . S
H694 C700 0.950 . S
H695 C701 0.950 . S
H696 C702 0.949 . S
C697 H692 0.950 . S
C697 C699 1.327 . S
C697 C703 1.429 . S
C698 C690 1.574 . S
C698 H693 0.949 . S
C698 C704 1.368 . S
C699 C683 1.349 . S
C699 H691 0.950 . S
C699 C697 1.327 . S
C700 C688 1.349 . S
C700 H694 0.950 . S
C700 C701 1.327 . S
C701 H695 0.950 . S
C701 C700 1.327 . S
C701 C705 1.429 . S
C702 C685 1.574 . S
C702 H696 0.949 . S
C702 C706 1.368 . S
C703 C684 1.429 . S
C703 C697 1.429 . S
C703 C704 1.523 . S
C704 C685 1.368 . S
C704 C698 1.368 . S
C704 C703 1.523 . S
C705 C689 1.429 . S
C705 C701 1.429 . S
C705 C706 1.523 . S
C706 C690 1.368 . S
C706 C702 1.368 . S
C706 C705 1.523 . S
H707 C682 0.950 . S
H708 C684 0.950 . S
H709 C685 0.949 . S
H710 C687 0.950 . S
H711 C689 0.950 . S
C712 C713 1.333 1_655 S
C712 C714 1.325 . S
C712 H737 0.962 . S
C713 C712 1.333 1_455 S
C713 C729 1.349 1_554 S
C714 C712 1.325 . S
C714 C733 1.410 1_654 S
C714 H738 0.977 . S
C715 C732 1.574 . S
C715 C734 1.368 . S
C715 H739 0.949 . S
H716 C720 0.949 . S
C717 C718 1.349 . S
C717 C719 1.327 . S
C717 H740 0.950 . S
C718 C717 1.349 . S
C718 C730 1.349 1_455 S
C719 C717 1.327 . S
C719 C735 1.429 . S
C719 H741 0.950 . S
C720 H716 0.949 . S
C720 C728 1.574 . S
C720 C736 1.368 1_655 S
H721 C729 0.950 . S
H722 C727 0.950 . S
H723 C728 0.949 1_554 S
H724 C730 0.950 . S
H725 C731 0.961 . S
H726 C732 0.949 . S
C727 H722 0.950 . S
C727 C729 1.327 . S
C727 C733 1.429 . S
C728 C720 1.574 . S
C728 H723 0.949 1_556 S
C728 C734 1.368 1_655 S
C729 C713 1.349 1_556 S
C729 H721 0.950 . S
C729 C727 1.327 . S
C730 C718 1.349 1_655 S
C730 H724 0.950 . S
C730 C731 1.330 . S
C731 H725 0.961 . S
C731 C730 1.330 . S
C731 C735 1.415 1_655 S
C732 C715 1.574 . S
C732 H726 0.949 . S
C732 C736 1.368 . S
C733 C714 1.410 1_456 S
C733 C727 1.429 . S
C733 C734 1.523 . S
C734 C715 1.368 . S
C734 C728 1.368 1_455 S
C734 C733 1.523 . S
C735 C719 1.429 . S
C735 C731 1.415 1_455 S
C735 C736 1.523 . S
C736 C720 1.368 1_455 S
C736 C732 1.368 . S
C736 C735 1.523 . S
H737 C712 0.962 . S
H738 C714 0.977 . S
H739 C715 0.949 . S
H740 C717 0.950 . S
H741 C719 0.950 . S
C742 C743 1.324 1_565 S
C742 C744 1.327 1_554 S
C742 H767 0.950 . S
C743 C742 1.324 1_545 S
C743 C759 1.380 . S
C744 C742 1.327 1_556 S
C744 C763 1.429 1_566 S
C744 H768 0.950 . S
C745 C762 1.575 . S
C745 C764 1.370 . S
C745 H769 0.947 1_556 S
H746 C750 0.949 . S
C747 C748 1.349 . S
C747 C749 1.327 . S
C747 H770 0.950 . S
C748 C747 1.349 . S
C748 C760 1.349 1_545 S
C749 C747 1.327 . S
C749 C765 1.429 . S
C749 H771 0.950 . S
C750 H746 0.949 . S
C750 C758 1.574 . S
C750 C766 1.368 1_565 S
H751 C759 0.950 . S
H752 C757 0.950 . S
H753 C758 0.949 . S
H754 C760 0.950 . S
H755 C761 0.950 . S
H756 C762 0.949 . S
C757 H752 0.950 . S
C757 C759 1.327 . S
C757 C763 1.429 . S
C758 C750 1.574 . S
C758 H753 0.949 . S
C758 C764 1.368 1_565 S
C759 C743 1.380 . S
C759 H751 0.950 . S
C759 C757 1.327 . S
C760 C748 1.349 1_565 S
C760 H754 0.950 . S
C760 C761 1.327 . S
C761 H755 0.950 . S
C761 C760 1.327 . S
C761 C765 1.429 1_565 S
C762 C745 1.575 . S
C762 H756 0.949 . S
C762 C766 1.368 . S
C763 C744 1.429 1_544 S
C763 C757 1.429 . S
C763 C764 1.523 1_554 S
C764 C745 1.370 . S
C764 C758 1.368 1_545 S
C764 C763 1.523 1_556 S
C765 C749 1.429 . S
C765 C761 1.429 1_545 S
C765 C766 1.523 . S
C766 C750 1.368 1_545 S
C766 C762 1.368 . S
C766 C765 1.523 . S
H767 C742 0.950 . S
H768 C744 0.950 . S
H769 C745 0.947 1_554 S
H770 C747 0.950 . S
H771 C749 0.950 . S
C772 C773 1.349 . S
C772 C774 1.327 . S
C772 H797 0.950 . S
C773 C772 1.349 . S
C773 C789 1.349 . S
C774 C772 1.327 . S
C774 C793 1.429 . S
C774 H798 0.950 . S
C775 C792 1.574 . S
C775 C794 1.368 . S
C775 H799 0.949 . S
H776 C780 0.949 . S
C777 C778 1.349 . S
C777 C779 1.327 . S
C777 H800 0.950 . S
C778 C777 1.349 . S
C778 C790 1.349 . S
C779 C777 1.327 . S
C779 C795 1.429 . S
C779 H801 0.950 . S
C780 H776 0.949 . S
C780 C788 1.574 . S
C780 C796 1.368 . S
H781 C789 0.950 . S
H782 C787 0.950 . S
H783 C788 0.949 . S
H784 C790 0.950 . S
H785 C791 0.950 . S
H786 C792 0.949 . S
C787 H782 0.950 . S
C787 C789 1.327 . S
C787 C793 1.429 . S
C788 C780 1.574 . S
C788 H783 0.949 . S
C788 C794 1.368 . S
C789 C773 1.349 . S
C789 H781 0.950 . S
C789 C787 1.327 . S
C790 C778 1.349 . S
C790 H784 0.950 . S
C790 C791 1.327 . S
C791 H785 0.950 . S
C791 C790 1.327 . S
C791 C795 1.429 . S
C792 C775 1.574 . S
C792 H786 0.949 . S
C792 C796 1.368 . S
C793 C774 1.429 . S
C793 C787 1.429 . S
C793 C794 1.523 . S
C794 C775 1.368 . S
C794 C788 1.368 . S
C794 C793 1.523 . S
C795 C779 1.429 . S
C795 C791 1.429 . S
C795 C796 1.523 1_556 S
C796 C780 1.368 . S
C796 C792 1.368 . S
C796 C795 1.523 1_554 S
H797 C772 0.950 . S
H798 C774 0.950 . S
H799 C775 0.949 . S
H800 C777 0.950 . S
H801 C779 0.950 . S
C802 C803 1.349 . S
C802 C804 1.327 . S
C802 H827 0.950 . S
C803 C802 1.349 . S
C803 C819 1.349 . S
C804 C802 1.327 . S
C804 C823 1.429 . S
C804 H828 0.950 . S
C805 C822 1.574 . S
C805 C824 1.368 . S
C805 H829 0.949 . S
H806 C810 0.949 . S
C807 C808 1.349 . S
C807 C809 1.327 . S
C807 H830 0.950 . S
C808 C807 1.349 . S
C808 C820 1.349 . S
C809 C807 1.327 . S
C809 C825 1.429 . S
C809 H831 0.950 . S
C810 H806 0.949 . S
C810 C818 1.574 . S
C810 C826 1.368 . S
H811 C819 0.950 . S
H812 C817 0.950 . S
H813 C818 0.949 . S
H814 C820 0.950 . S
H815 C821 0.950 . S
H816 C822 0.949 . S
C817 H812 0.950 . S
C817 C819 1.327 . S
C817 C823 1.429 . S
C818 C810 1.574 . S
C818 H813 0.949 . S
C818 C824 1.368 . S
C819 C803 1.349 . S
C819 H811 0.950 . S
C819 C817 1.327 . S
C820 C808 1.349 . S
C820 H814 0.950 . S
C820 C821 1.327 . S
C821 H815 0.950 . S
C821 C820 1.327 . S
C821 C825 1.429 . S
C822 C805 1.574 . S
C822 H816 0.949 . S
C822 C826 1.368 . S
C823 C804 1.429 . S
C823 C817 1.429 . S
C823 C824 1.523 . S
C824 C805 1.368 . S
C824 C818 1.368 . S
C824 C823 1.523 . S
C825 C809 1.429 . S
C825 C821 1.429 . S
C825 C826 1.523 . S
C826 C810 1.368 . S
C826 C822 1.368 . S
C826 C825 1.523 . S
H827 C802 0.950 . S
H828 C804 0.950 . S
H829 C805 0.949 . S
H830 C807 0.950 . S
H831 C809 0.950 . S
C832 C833 1.349 . S
C832 C834 1.327 . S
C832 H857 0.950 . S
C833 C832 1.349 . S
C833 C849 1.349 1_655 S
C834 C832 1.327 . S
C834 C853 1.429 . S
C834 H858 0.950 . S
C835 C852 1.574 . S
C835 C854 1.368 1_455 S
C835 H859 0.949 . S
H836 C840 0.949 . S
C837 C838 1.349 1_455 S
C837 C839 1.327 . S
C837 H860 0.950 . S
C838 C837 1.349 1_655 S
C838 C850 1.349 . S
C839 C837 1.327 . S
C839 C855 1.429 1_455 S
C839 H861 0.950 . S
C840 H836 0.949 . S
C840 C848 1.574 . S
C840 C856 1.368 . S
H841 C849 0.950 . S
H842 C847 0.950 . S
H843 C848 0.949 . S
H844 C850 0.950 . S
H845 C851 0.950 . S
H846 C852 0.949 . S
C847 H842 0.950 . S
C847 C849 1.327 . S
C847 C853 1.429 1_455 S
C848 C840 1.574 . S
C848 H843 0.949 . S
C848 C854 1.368 . S
C849 C833 1.349 1_455 S
C849 H841 0.950 . S
C849 C847 1.327 . S
C850 C838 1.349 . S
C850 H844 0.950 . S
C850 C851 1.327 . S
C851 H845 0.950 . S
C851 C850 1.327 . S
C851 C855 1.429 . S
C852 C835 1.574 . S
C852 H846 0.949 . S
C852 C856 1.368 1_455 S
C853 C834 1.429 . S
C853 C847 1.429 1_655 S
C853 C854 1.523 . S
C854 C835 1.368 1_655 S
C854 C848 1.368 . S
C854 C853 1.523 . S
C855 C839 1.429 1_655 S
C855 C851 1.429 . S
C855 C856 1.523 . S
C856 C840 1.368 . S
C856 C852 1.368 1_655 S
C856 C855 1.523 . S
H857 C832 0.950 . S
H858 C834 0.950 . S
H859 C835 0.949 . S
H860 C837 0.950 . S
H861 C839 0.950 . S
C862 C863 1.372 . S
C862 C864 1.327 . S
C862 H887 0.950 . S
C863 C862 1.372 . S
C863 C879 1.330 1_565 S
C864 C862 1.327 . S
C864 C883 1.429 . S
C864 H888 0.950 . S
C865 C882 1.574 . S
C865 C884 1.368 1_545 S
C865 H889 0.949 . S
H866 C870 0.949 . S
C867 C868 1.349 1_545 S
C867 C869 1.327 . S
C867 H890 0.950 . S
C868 C867 1.349 1_565 S
C868 C880 1.349 . S
C869 C867 1.327 . S
C869 C885 1.429 1_545 S
C869 H891 0.950 . S
C870 H866 0.949 . S
C870 C878 1.574 . S
C870 C886 1.368 . S
H871 C879 0.950 . S
H872 C877 0.950 . S
H873 C878 0.949 . S
H874 C880 0.950 . S
H875 C881 0.950 . S
H876 C882 0.949 . S
C877 H872 0.950 . S
C877 C879 1.327 . S
C877 C883 1.429 1_545 S
C878 C870 1.574 . S
C878 H873 0.949 . S
C878 C884 1.368 . S
C879 C863 1.330 1_545 S
C879 H871 0.950 . S
C879 C877 1.327 . S
C880 C868 1.349 . S
C880 H874 0.950 . S
C880 C881 1.327 . S
C881 H875 0.950 . S
C881 C880 1.327 . S
C881 C885 1.429 . S
C882 C865 1.574 . S
C882 H876 0.949 . S
C882 C886 1.368 1_545 S
C883 C864 1.429 . S
C883 C877 1.429 1_565 S
C883 C884 1.523 . S
C884 C865 1.368 1_565 S
C884 C878 1.368 . S
C884 C883 1.523 . S
C885 C869 1.429 1_565 S
C885 C881 1.429 . S
C885 C886 1.523 . S
C886 C870 1.368 . S
C886 C882 1.368 1_565 S
C886 C885 1.523 . S
H887 C862 0.950 . S
H888 C864 0.950 . S
H889 C865 0.949 . S
H890 C867 0.950 . S
H891 C869 0.950 . S
C892 C893 1.349 . S
C892 C894 1.327 . S
C892 H917 0.950 . S
C893 C892 1.349 . S
C893 C909 1.349 . S
C894 C892 1.327 . S
C894 C913 1.429 . S
C894 H918 0.950 . S
C895 C912 1.574 . S
C895 C914 1.368 . S
C895 H919 0.949 . S
H896 C900 0.949 . S
C897 C898 1.349 . S
C897 C899 1.327 . S
C897 H920 0.950 . S
C898 C897 1.349 . S
C898 C910 1.349 . S
C899 C897 1.327 . S
C899 C915 1.429 . S
C899 H921 0.950 . S
C900 H896 0.949 . S
C900 C908 1.574 . S
C900 C916 1.368 . S
H901 C909 0.950 . S
H902 C907 0.950 . S
H903 C908 0.949 . S
H904 C910 0.950 . S
H905 C911 0.950 . S
H906 C912 0.949 . S
C907 H902 0.950 . S
C907 C909 1.327 . S
C907 C913 1.429 . S
C908 C900 1.574 . S
C908 H903 0.949 . S
C908 C914 1.368 . S
C909 C893 1.349 . S
C909 H901 0.950 . S
C909 C907 1.327 . S
C910 C898 1.349 . S
C910 H904 0.950 . S
C910 C911 1.327 . S
C911 H905 0.950 . S
C911 C910 1.327 . S
C911 C915 1.429 . S
C912 C895 1.574 . S
C912 H906 0.949 . S
C912 C916 1.368 . S
C913 C894 1.429 . S
C913 C907 1.429 . S
C913 C914 1.523 . S
C914 C895 1.368 . S
C914 C908 1.368 . S
C914 C913 1.523 . S
C915 C899 1.429 . S
C915 C911 1.429 . S
C915 C916 1.523 . S
C916 C900 1.368 . S
C916 C912 1.368 . S
C916 C915 1.523 . S
H917 C892 0.950 . S
H918 C894 0.950 . S
H919 C895 0.949 . S
H920 C897 0.950 . S
H921 C899 0.950 . S
C922 C923 1.349 . S
C922 C924 1.327 . S
C922 H947 0.950 . S
C923 C922 1.349 . S
C923 C939 1.349 . S
C924 C922 1.327 . S
C924 C943 1.429 . S
C924 H948 0.950 . S
C925 C942 1.574 . S
C925 C944 1.368 . S
C925 H949 0.949 . S
H926 C930 0.949 . S
C927 C928 1.349 . S
C927 C929 1.327 . S
C927 H950 0.950 . S
C928 C927 1.349 . S
C928 C940 1.349 . S
C929 C927 1.327 . S
C929 C945 1.429 . S
C929 H951 0.950 . S
C930 H926 0.949 . S
C930 C938 1.574 . S
C930 C946 1.368 . S
H931 C939 0.950 . S
H932 C937 0.950 . S
H933 C938 0.949 . S
H934 C940 0.950 . S
H935 C941 0.950 . S
H936 C942 0.949 . S
C937 H932 0.950 . S
C937 C939 1.327 . S
C937 C943 1.429 . S
C938 C930 1.574 . S
C938 H933 0.949 . S
C938 C944 1.368 . S
C939 C923 1.349 . S
C939 H931 0.950 . S
C939 C937 1.327 . S
C940 C928 1.349 . S
C940 H934 0.950 . S
C940 C941 1.327 . S
C941 H935 0.950 . S
C941 C940 1.327 . S
C941 C945 1.429 . S
C942 C925 1.574 . S
C942 H936 0.949 . S
C942 C946 1.368 . S
C943 C924 1.429 . S
C943 C937 1.429 . S
C943 C944 1.523 . S
C944 C925 1.368 . S
C944 C938 1.368 . S
C944 C943 1.523 . S
C945 C929 1.429 . S
C945 C941 1.429 . S
C945 C946 1.523 . S
C946 C930 1.368 . S
C946 C942 1.368 . S
C946 C945 1.523 . S
H947 C922 0.950 . S
H948 C924 0.950 . S
H949 C925 0.949 . S
H950 C927 0.950 . S
H951 C929 0.950 . S
C233 C61 1.728 1_545 S
C238 C74 1.765 1_545 S
C268 C114 1.928 . S
C263 C70 1.912 . S
C298 C178 1.828 . S
C293 C43 1.756 . S
C328 C194 1.395 . S
C323 C52 1.303 . S
C358 C95 1.767 1_565 S
C353 C25 1.726 1_545 S
C383 C34 1.913 . S
C388 C135 1.932 . S
C413 C7 1.761 . S
C418 C169 1.829 . S
C443 C16 1.304 . S
C448 C215 1.395 1_655 S
C478 C89 0.308 . S
C473 C50 0.195 . S
C508 C129 0.432 . S
C503 C59 0.406 1_545 S
C538 C165 0.364 . S
C533 C67 0.309 . S
C563 C41 0.413 . S
C568 C209 0.485 . S
C593 C14 0.169 . S
C598 C98 0.309 . S
C628 C138 0.432 . S
C623 C23 0.406 . S
C658 C176 0.364 . S
C653 C31 0.325 . S
C683 C5 0.398 . S
C688 C218 0.486 . S
C713 C49 1.734 . S
C718 C96 1.890 . S
C743 C58 1.663 1_545 S
C748 C136 1.800 . S
C778 C154 1.516 . S
C773 C68 1.492 . S
C808 C216 2.134 . S
C803 C40 1.942 . S
C833 C13 1.734 . S
C838 C85 1.900 . S
C868 C125 1.799 . S
C863 C22 1.663 . S
C898 C175 1.516 . S
C893 C32 1.488 . S
C923 C4 1.943 . S
C928 C205 2.135 . S
