# Generated by pormake.
# Topology eea, (3,6)-cn, num edge types: 1
# Building blocks:
#     Node 0, Type 0, BuildingBlock: ESEHIV_clean_linker_0, # of connection points: 3
#     Node 1, Type 0, BuildingBlock: ESEHIV_clean_linker_0, # of connection points: 3
#     Node 2, Type 0, BuildingBlock: ESEHIV_clean_linker_0, # of connection points: 3
#     Node 3, Type 0, BuildingBlock: ESEHIV_clean_linker_0, # of connection points: 3
#     Node 4, Type 0, BuildingBlock: ESEHIV_clean_linker_0, # of connection points: 3
#     Node 5, Type 0, BuildingBlock: ESEHIV_clean_linker_0, # of connection points: 3
#     Node 6, Type 0, BuildingBlock: ESEHIV_clean_linker_0, # of connection points: 3
#     Node 7, Type 0, BuildingBlock: ESEHIV_clean_linker_0, # of connection points: 3
#     Node 8, Type 0, BuildingBlock: ESEHIV_clean_linker_0, # of connection points: 3
#     Node 9, Type 0, BuildingBlock: ESEHIV_clean_linker_0, # of connection points: 3
#     Node 10, Type 0, BuildingBlock: ESEHIV_clean_linker_0, # of connection points: 3
#     Node 11, Type 0, BuildingBlock: ESEHIV_clean_linker_0, # of connection points: 3
#     Node 12, Type 0, BuildingBlock: ESEHIV_clean_linker_0, # of connection points: 3
#     Node 13, Type 0, BuildingBlock: ESEHIV_clean_linker_0, # of connection points: 3
#     Node 14, Type 0, BuildingBlock: ESEHIV_clean_linker_0, # of connection points: 3
#     Node 15, Type 0, BuildingBlock: ESEHIV_clean_linker_0, # of connection points: 3
#     Node 16, Type 0, BuildingBlock: ESEHIV_clean_linker_0, # of connection points: 3
#     Node 17, Type 0, BuildingBlock: ESEHIV_clean_linker_0, # of connection points: 3
#     Node 18, Type 1, BuildingBlock: CUKXOW_clean_sbu_0, # of connection points: 6
#     Node 19, Type 1, BuildingBlock: CUKXOW_clean_sbu_0, # of connection points: 6
#     Node 20, Type 1, BuildingBlock: CUKXOW_clean_sbu_0, # of connection points: 6
#     Node 21, Type 1, BuildingBlock: CUKXOW_clean_sbu_0, # of connection points: 6
#     Node 22, Type 1, BuildingBlock: CUKXOW_clean_sbu_0, # of connection points: 6
#     Node 23, Type 1, BuildingBlock: CUKXOW_clean_sbu_0, # of connection points: 6
#     Node 24, Type 1, BuildingBlock: CUKXOW_clean_sbu_0, # of connection points: 6
#     Node 25, Type 1, BuildingBlock: CUKXOW_clean_sbu_0, # of connection points: 6
#     Node 26, Type 1, BuildingBlock: CUKXOW_clean_sbu_0, # of connection points: 6
#     Edge 27, Type (0, 1), BuildingBlock: UVAHIK_clean_linker_0, # of connection points: 2
#     Edge 28, Type (0, 1), BuildingBlock: UVAHIK_clean_linker_0, # of connection points: 2
#     Edge 29, Type (0, 1), BuildingBlock: UVAHIK_clean_linker_0, # of connection points: 2
#     Edge 30, Type (0, 1), BuildingBlock: UVAHIK_clean_linker_0, # of connection points: 2
#     Edge 31, Type (0, 1), BuildingBlock: UVAHIK_clean_linker_0, # of connection points: 2
#     Edge 32, Type (0, 1), BuildingBlock: UVAHIK_clean_linker_0, # of connection points: 2
#     Edge 33, Type (0, 1), BuildingBlock: UVAHIK_clean_linker_0, # of connection points: 2
#     Edge 34, Type (0, 1), BuildingBlock: UVAHIK_clean_linker_0, # of connection points: 2
#     Edge 35, Type (0, 1), BuildingBlock: UVAHIK_clean_linker_0, # of connection points: 2
#     Edge 36, Type (0, 1), BuildingBlock: UVAHIK_clean_linker_0, # of connection points: 2
#     Edge 37, Type (0, 1), BuildingBlock: UVAHIK_clean_linker_0, # of connection points: 2
#     Edge 38, Type (0, 1), BuildingBlock: UVAHIK_clean_linker_0, # of connection points: 2
#     Edge 39, Type (0, 1), BuildingBlock: UVAHIK_clean_linker_0, # of connection points: 2
#     Edge 40, Type (0, 1), BuildingBlock: UVAHIK_clean_linker_0, # of connection points: 2
#     Edge 41, Type (0, 1), BuildingBlock: UVAHIK_clean_linker_0, # of connection points: 2
#     Edge 42, Type (0, 1), BuildingBlock: UVAHIK_clean_linker_0, # of connection points: 2
#     Edge 43, Type (0, 1), BuildingBlock: UVAHIK_clean_linker_0, # of connection points: 2
#     Edge 44, Type (0, 1), BuildingBlock: UVAHIK_clean_linker_0, # of connection points: 2
#     Edge 45, Type (0, 1), BuildingBlock: UVAHIK_clean_linker_0, # of connection points: 2
#     Edge 46, Type (0, 1), BuildingBlock: UVAHIK_clean_linker_0, # of connection points: 2
#     Edge 47, Type (0, 1), BuildingBlock: UVAHIK_clean_linker_0, # of connection points: 2
#     Edge 48, Type (0, 1), BuildingBlock: UVAHIK_clean_linker_0, # of connection points: 2
#     Edge 49, Type (0, 1), BuildingBlock: UVAHIK_clean_linker_0, # of connection points: 2
#     Edge 50, Type (0, 1), BuildingBlock: UVAHIK_clean_linker_0, # of connection points: 2
#     Edge 51, Type (0, 1), BuildingBlock: UVAHIK_clean_linker_0, # of connection points: 2
#     Edge 52, Type (0, 1), BuildingBlock: UVAHIK_clean_linker_0, # of connection points: 2
#     Edge 53, Type (0, 1), BuildingBlock: UVAHIK_clean_linker_0, # of connection points: 2
#     Edge 54, Type (0, 1), BuildingBlock: UVAHIK_clean_linker_0, # of connection points: 2
#     Edge 55, Type (0, 1), BuildingBlock: UVAHIK_clean_linker_0, # of connection points: 2
#     Edge 56, Type (0, 1), BuildingBlock: UVAHIK_clean_linker_0, # of connection points: 2
#     Edge 57, Type (0, 1), BuildingBlock: UVAHIK_clean_linker_0, # of connection points: 2
#     Edge 58, Type (0, 1), BuildingBlock: UVAHIK_clean_linker_0, # of connection points: 2
#     Edge 59, Type (0, 1), BuildingBlock: UVAHIK_clean_linker_0, # of connection points: 2
#     Edge 60, Type (0, 1), BuildingBlock: UVAHIK_clean_linker_0, # of connection points: 2
#     Edge 61, Type (0, 1), BuildingBlock: UVAHIK_clean_linker_0, # of connection points: 2
#     Edge 62, Type (0, 1), BuildingBlock: UVAHIK_clean_linker_0, # of connection points: 2
#     Edge 63, Type (0, 1), BuildingBlock: UVAHIK_clean_linker_0, # of connection points: 2
#     Edge 64, Type (0, 1), BuildingBlock: UVAHIK_clean_linker_0, # of connection points: 2
#     Edge 65, Type (0, 1), BuildingBlock: UVAHIK_clean_linker_0, # of connection points: 2
#     Edge 66, Type (0, 1), BuildingBlock: UVAHIK_clean_linker_0, # of connection points: 2
#     Edge 67, Type (0, 1), BuildingBlock: UVAHIK_clean_linker_0, # of connection points: 2
#     Edge 68, Type (0, 1), BuildingBlock: UVAHIK_clean_linker_0, # of connection points: 2
#     Edge 69, Type (0, 1), BuildingBlock: UVAHIK_clean_linker_0, # of connection points: 2
#     Edge 70, Type (0, 1), BuildingBlock: UVAHIK_clean_linker_0, # of connection points: 2
#     Edge 71, Type (0, 1), BuildingBlock: UVAHIK_clean_linker_0, # of connection points: 2
#     Edge 72, Type (0, 1), BuildingBlock: UVAHIK_clean_linker_0, # of connection points: 2
#     Edge 73, Type (0, 1), BuildingBlock: UVAHIK_clean_linker_0, # of connection points: 2
#     Edge 74, Type (0, 1), BuildingBlock: UVAHIK_clean_linker_0, # of connection points: 2
#     Edge 75, Type (0, 1), BuildingBlock: UVAHIK_clean_linker_0, # of connection points: 2
#     Edge 76, Type (0, 1), BuildingBlock: UVAHIK_clean_linker_0, # of connection points: 2
#     Edge 77, Type (0, 1), BuildingBlock: UVAHIK_clean_linker_0, # of connection points: 2
#     Edge 78, Type (0, 1), BuildingBlock: UVAHIK_clean_linker_0, # of connection points: 2
#     Edge 79, Type (0, 1), BuildingBlock: UVAHIK_clean_linker_0, # of connection points: 2
#     Edge 80, Type (0, 1), BuildingBlock: UVAHIK_clean_linker_0, # of connection points: 2
# Relax obj value: 0.018
# Max RMSD: 0.126
# Mean RMSD: 0.055
data_MOF--net-eea--node1-CUKXOW_clean_sbu_0--node2-ESEHIV_clean_linker_0--edge1-UVAHIK_clean_linker_0
_symmetry_space_group_name_H-M    P1
_symmetry_Int_Tables_number       1
_symmetry_cell_setting            triclinic
loop_
_symmetry_equiv_pos_as_xyz
'x, y, z'
_cell_length_a     67.732973
_cell_length_b     64.688728
_cell_length_c     74.243994
_cell_angle_alpha  93.050545
_cell_angle_beta   93.096559
_cell_angle_gamma 119.86906
loop_
_atom_site_label
_atom_site_type_symbol
_atom_site_fract_x
_atom_site_fract_y
_atom_site_fract_z
_atom_type_partial_charge
H0 H 0.275 0.17898 0.45418 0.0
H1 H 0.27735 0.11375 0.45363 0.0
H2 H 0.24739 0.12828 0.40691 0.0
C3 C 0.27171 0.16233 0.44708 0.0
C4 C 0.2609 0.15562 0.42938 0.0
C5 C 0.27772 0.14731 0.45585 0.0
C6 C 0.273 0.12554 0.44677 0.0
C7 C 0.26203 0.11852 0.42912 0.0
C8 C 0.25614 0.13372 0.42045 0.0
H9 H 0.83322 0.1075 0.45456 0.0
H10 H 0.89946 0.1714 0.46072 0.0
H11 H 0.87675 0.12481 0.41128 0.0
C12 C 0.84925 0.11945 0.44925 0.0
C13 C 0.85314 0.11371 0.43183 0.0
C14 C 0.86585 0.14012 0.45991 0.0
C15 C 0.88632 0.15558 0.45258 0.0
C16 C 0.89024 0.1504 0.43493 0.0
C17 C 0.87347 0.12948 0.42459 0.0
H18 H 0.84063 0.71952 0.46348 0.0
H19 H 0.89864 0.71029 0.45848 0.0
H20 H 0.88244 0.74781 0.41949 0.0
C21 C 0.85485 0.72194 0.45604 0.0
C22 C 0.85938 0.73416 0.44033 0.0
C23 C 0.8689 0.71322 0.46251 0.0
C24 C 0.88773 0.71686 0.45328 0.0
C25 C 0.89304 0.72973 0.4379 0.0
C26 C 0.87854 0.73797 0.43138 0.0
H27 H 0.09854 0.27834 0.54258 0.0
H28 H 0.16264 0.27944 0.54477 0.0
H29 H 0.11466 0.24287 0.58331 0.0
C30 C 0.11028 0.27352 0.5489 0.0
C31 C 0.104 0.25971 0.56378 0.0
C32 C 0.13143 0.28078 0.54191 0.0
C33 C 0.14642 0.27419 0.55015 0.0
C34 C 0.14056 0.26053 0.5651 0.0
C35 C 0.11935 0.25349 0.57184 0.0
H36 H 0.72196 0.88656 0.55894 0.0
H37 H 0.72416 0.82102 0.55519 0.0
H38 H 0.74596 0.86581 0.60541 0.0
C39 C 0.7254 0.87372 0.5651 0.0
C40 C 0.73439 0.87852 0.58327 0.0
C41 C 0.72185 0.85315 0.55467 0.0
C42 C 0.72647 0.8368 0.56303 0.0
C43 C 0.73471 0.841 0.58142 0.0
C44 C 0.73877 0.86199 0.59141 0.0
H45 H 0.10168 0.82473 0.54756 0.0
H46 H 0.16919 0.88628 0.5514 0.0
H47 H 0.12792 0.87372 0.59595 0.0
C48 C 0.11538 0.84051 0.55537 0.0
C49 C 0.11228 0.84726 0.57285 0.0
C50 C 0.13601 0.85432 0.54773 0.0
C51 C 0.15347 0.87524 0.55748 0.0
C52 C 0.15052 0.88246 0.57478 0.0
C53 C 0.13011 0.86816 0.58253 0.0
H54 H 0.94372 0.51673 0.78171 0.0
H55 H 0.94412 0.45073 0.78415 0.0
H56 H 0.91569 0.46371 0.73577 0.0
C57 C 0.94003 0.49961 0.77521 0.0
C58 C 0.92943 0.49222 0.75743 0.0
C59 C 0.94546 0.48474 0.78481 0.0
C60 C 0.94018 0.46234 0.77661 0.0
C61 C 0.9293 0.45456 0.75898 0.0
C62 C 0.92417 0.46968 0.74938 0.0
H63 H 0.50257 0.44453 0.78407 0.0
H64 H 0.56845 0.50916 0.79096 0.0
H65 H 0.54631 0.46375 0.74095 0.0
C66 C 0.5185 0.45697 0.77887 0.0
C67 C 0.52264 0.45186 0.76137 0.0
C68 C 0.53504 0.47739 0.78988 0.0
C69 C 0.55548 0.49338 0.78268 0.0
C70 C 0.55948 0.48886 0.76488 0.0
C71 C 0.54306 0.46788 0.75443 0.0
H72 H 0.50304 0.04786 0.79333 0.0
H73 H 0.56792 0.05049 0.79645 0.0
H74 H 0.5491 0.07936 0.75237 0.0
C75 C 0.51904 0.05258 0.78775 0.0
C76 C 0.52424 0.06459 0.77193 0.0
C77 C 0.53453 0.04716 0.7967 0.0
C78 C 0.55547 0.05388 0.78951 0.0
C79 C 0.56068 0.06532 0.77348 0.0
C80 C 0.54493 0.07037 0.76468 0.0
H81 H 0.76351 0.61197 0.87397 0.0
H82 H 0.83019 0.61914 0.87658 0.0
H83 H 0.78294 0.57894 0.91466 0.0
C84 C 0.77608 0.60837 0.88042 0.0
C85 C 0.77064 0.59454 0.89528 0.0
C86 C 0.79753 0.61737 0.87363 0.0
C87 C 0.81369 0.6124 0.88186 0.0
C88 C 0.80854 0.59839 0.89661 0.0
C89 C 0.78703 0.58972 0.90328 0.0
H90 H 0.38836 0.21773 0.89527 0.0
H91 H 0.39274 0.15341 0.89045 0.0
H92 H 0.4136 0.19716 0.9411 0.0
C93 C 0.39224 0.20506 0.90118 0.0
C94 C 0.40139 0.20975 0.9193 0.0
C95 C 0.38921 0.18489 0.89047 0.0
C96 C 0.39451 0.1688 0.89851 0.0
C97 C 0.40279 0.17286 0.91688 0.0
C98 C 0.4063 0.19342 0.92714 0.0
H99 H 0.7681 0.15465 0.88119 0.0
H100 H 0.83438 0.2178 0.88362 0.0
H101 H 0.79384 0.20537 0.92862 0.0
C102 C 0.78153 0.17094 0.88866 0.0
C103 C 0.77846 0.17802 0.90606 0.0
C104 C 0.80183 0.18504 0.8807 0.0
C105 C 0.81893 0.2066 0.88997 0.0
C106 C 0.81597 0.21415 0.90714 0.0
C107 C 0.79596 0.19957 0.91527 0.0
H108 H 0.6099 0.8467 0.11691 0.0
H109 H 0.61343 0.78223 0.11808 0.0
H110 H 0.58324 0.79463 0.07043 0.0
C111 C 0.60687 0.82995 0.11017 0.0
C112 C 0.59616 0.82257 0.09243 0.0
C113 C 0.61323 0.8155 0.11941 0.0
C114 C 0.60884 0.79359 0.11084 0.0
C115 C 0.59795 0.78591 0.0932 0.0
C116 C 0.59183 0.80057 0.08402 0.0
H117 H 0.16816 0.77656 0.11723 0.0
H118 H 0.2336 0.84163 0.12407 0.0
H119 H 0.21255 0.79519 0.0746 0.0
C120 C 0.18415 0.78897 0.11209 0.0
C121 C 0.18856 0.78367 0.09475 0.0
C122 C 0.20048 0.80958 0.12302 0.0
C123 C 0.22092 0.82563 0.11585 0.0
C124 C 0.22528 0.82088 0.09822 0.0
C125 C 0.2091 0.7996 0.08792 0.0
H126 H 0.17767 0.39961 0.13202 0.0
H127 H 0.24088 0.39885 0.13446 0.0
H128 H 0.22105 0.4248 0.08876 0.0
C129 C 0.19312 0.40301 0.12603 0.0
C130 C 0.19744 0.41275 0.10928 0.0
C131 C 0.20872 0.39804 0.13532 0.0
C132 C 0.22872 0.40254 0.1274 0.0
C133 C 0.23331 0.41212 0.11055 0.0
C134 C 0.21754 0.41714 0.10163 0.0
H135 H 0.43176 0.94472 0.21093 0.0
H136 H 0.49923 0.95409 0.21427 0.0
H137 H 0.45249 0.91414 0.25283 0.0
C138 C 0.44464 0.94189 0.21778 0.0
C139 C 0.43959 0.92872 0.23301 0.0
C140 C 0.46614 0.95119 0.21109 0.0
C141 C 0.48271 0.94708 0.21959 0.0
C142 C 0.47783 0.93338 0.23451 0.0
C143 C 0.45633 0.92458 0.24126 0.0
H144 H 0.06053 0.55428 0.22188 0.0
H145 H 0.0669 0.49138 0.2175 0.0
H146 H 0.09081 0.53749 0.26705 0.0
C147 C 0.0661 0.54286 0.22776 0.0
C148 C 0.07659 0.54884 0.24558 0.0
C149 C 0.063 0.52254 0.21731 0.0
C150 C 0.0691 0.50711 0.22537 0.0
C151 C 0.07847 0.51207 0.24348 0.0
C152 C 0.08237 0.53305 0.25344 0.0
H153 H 0.43063 0.49121 0.20908 0.0
H154 H 0.49763 0.55356 0.2179 0.0
H155 H 0.45039 0.53766 0.25846 0.0
C156 C 0.44331 0.50675 0.21776 0.0
C157 C 0.43787 0.51237 0.23464 0.0
C158 C 0.46492 0.52136 0.21177 0.0
C159 C 0.48122 0.5418 0.22278 0.0
C160 C 0.47585 0.54804 0.23945 0.0
C161 C 0.4543 0.53309 0.24539 0.0
Tb162 Tb 0.52826 0.02031 0.00203 0.0
C163 C 0.51688 0.96795 0.01172 0.0
Tb164 Tb 0.4788 0.98215 0.00743 0.0
O165 O 0.53256 0.03945 0.02864 0.0
O166 O 0.50997 0.00292 0.02374 0.0
O167 O 0.53168 0.98879 0.00586 0.0
C168 C 0.43838 0.95829 0.02091 0.0
O169 O 0.49564 0.9622 0.01481 0.0
C170 C 0.49161 0.98123 0.97491 0.0
C171 C 0.48987 0.03359 0.99679 0.0
O172 O 0.45766 0.97287 0.03018 0.0
O173 O 0.44177 0.95706 0.00394 0.0
O174 O 0.47577 0.96238 0.98148 0.0
O175 O 0.49733 -0.00067 0.98569 0.0
O176 O 0.47628 0.01457 0.00523 0.0
O177 O 0.50974 0.03726 0.99161 0.0
C178 C 0.5686 0.04384 0.98852 0.0
O179 O 0.56101 0.05301 0.00036 0.0
O180 O 0.55356 0.02143 0.9844 0.0
C181 C 0.51634 0.02073 0.03498 0.0
Tb182 Tb 0.98175 0.50756 0.99558 0.0
C183 C 0.0296 0.54655 0.01361 0.0
Tb184 Tb 0.01596 0.49164 0.00763 0.0
O185 O 0.97997 0.51741 0.02387 0.0
O186 O 0.98634 0.4897 0.01703 0.0
O187 O 0.01193 0.54243 0.00228 0.0
C188 C 0.04472 0.48152 0.02568 0.0
O189 O 0.033 0.52916 0.01897 0.0
C190 C 0.01258 0.49702 0.9732 0.0
C191 C 0.96791 0.45258 0.9897 0.0
O192 O 0.04943 0.49441 0.01203 0.0
O193 O 0.02384 0.47436 0.02919 0.0
O194 O 0.01791 0.48184 0.97938 0.0
O195 O 0.01143 0.50952 0.98621 0.0
O196 O 0.98585 0.45672 0.0007 0.0
O197 O 0.96417 0.46988 0.98469 0.0
C198 C 0.95321 0.51815 0.97771 0.0
O199 O 0.97175 0.52018 0.97186 0.0
O200 O 0.95068 0.51001 0.99353 0.0
C201 C 0.98511 0.50212 0.03005 0.0
Tb202 Tb 0.47659 0.49263 0.00697 0.0
C203 C 0.48394 0.4524 0.98977 0.0
Tb204 Tb 0.52443 0.50689 0.99529 0.0
O205 O 0.4626 0.48322 0.97849 0.0
O206 O 0.49632 0.5101 0.98575 0.0
O207 O 0.47192 0.45731 0.00099 0.0
C208 C 0.55997 0.51586 0.97669 0.0
O209 O 0.50352 0.46921 0.98431 0.0
C210 C 0.51944 0.50158 0.02964 0.0
C211 C 0.51695 0.54715 0.013 0.0
O212 O 0.55419 0.50321 0.99048 0.0
O213 O 0.54579 0.52345 0.97341 0.0
O214 O 0.53881 0.5162 0.0236 0.0
O215 O 0.50482 0.48953 0.01653 0.0
O216 O 0.52973 0.54238 0.00252 0.0
O217 O 0.49669 0.5304 0.01743 0.0
C218 C 0.44049 0.48336 0.025 0.0
O219 O 0.45859 0.48326 0.03152 0.0
O220 O 0.44276 0.4888 0.00838 0.0
C221 C 0.4819 0.49815 0.97254 0.0
Tb222 Tb 0.19056 0.34824 0.33116 0.0
C223 C 0.18273 0.30401 0.35141 0.0
Tb224 Tb 0.14241 0.31512 0.34316 0.0
O225 O 0.20563 0.35998 0.35917 0.0
O226 O 0.17122 0.34879 0.35244 0.0
O227 O 0.19545 0.31962 0.34014 0.0
C228 C 0.10512 0.28899 0.36003 0.0
O229 O 0.16284 0.30125 0.35588 0.0
C230 C 0.14753 0.30953 0.30875 0.0
C231 C 0.15055 0.3599 0.32367 0.0
O232 O 0.11282 0.28065 0.34768 0.0
O233 O 0.11844 0.31198 0.3629 0.0
O234 O 0.1283 0.30524 0.31472 0.0
O235 O 0.1619 0.31468 0.3221 0.0
O236 O 0.13828 0.34476 0.33538 0.0
O237 O 0.16993 0.36196 0.31861 0.0
C238 C 0.2262 0.37266 0.31226 0.0
O239 O 0.21956 0.38197 0.32478 0.0
O240 O 0.21284 0.3496 0.31044 0.0
C241 C 0.18631 0.35478 0.36546 0.0
Tb242 Tb 0.64957 0.83866 0.3305 0.0
C243 C 0.6978 0.87711 0.34775 0.0
Tb244 Tb 0.68321 0.82201 0.3424 0.0
O245 O 0.64884 0.84952 0.35874 0.0
O246 O 0.65407 0.82093 0.35215 0.0
O247 O 0.68066 0.87312 0.33586 0.0
C248 C 0.7118 0.81189 0.36074 0.0
O249 O 0.70027 0.85948 0.35386 0.0
C250 C 0.67974 0.82718 0.30792 0.0
C251 C 0.63455 0.7832 0.32498 0.0
O252 O 0.71687 0.82539 0.34744 0.0
O253 O 0.69063 0.80406 0.3637 0.0
O254 O 0.68507 0.81203 0.31416 0.0
O255 O 0.67885 0.83989 0.3209 0.0
O256 O 0.6531 0.78718 0.33508 0.0
O257 O 0.63056 0.80059 0.32066 0.0
C258 C 0.62116 0.84991 0.31317 0.0
O259 O 0.62011 0.84395 0.32963 0.0
O260 O 0.63814 0.84936 0.30633 0.0
C261 C 0.6535 0.83397 0.36507 0.0
Tb262 Tb 0.14252 0.82606 0.34033 0.0
C263 C 0.15127 0.78629 0.32413 0.0
Tb264 Tb 0.19091 0.84118 0.32956 0.0
O265 O 0.12911 0.81587 0.31177 0.0
O266 O 0.16254 0.84342 0.31919 0.0
O267 O 0.13865 0.79098 0.33484 0.0
C268 C 0.22718 0.85042 0.31181 0.0
O269 O 0.17084 0.80333 0.31884 0.0
C270 C 0.18522 0.83625 0.36388 0.0
C271 C 0.18219 0.88086 0.34654 0.0
O272 O 0.22111 0.83794 0.32569 0.0
O273 O 0.21289 0.85772 0.30797 0.0
O274 O 0.20467 0.85105 0.35803 0.0
O275 O 0.17098 0.82385 0.35066 0.0
O276 O 0.19532 0.87642 0.33623 0.0
O277 O 0.16205 0.86382 0.35094 0.0
C278 C 0.1055 0.81586 0.35736 0.0
O279 O 0.10897 0.82306 0.34125 0.0
O280 O 0.12295 0.81459 0.36394 0.0
C281 C 0.14843 0.83096 0.30593 0.0
Tb282 Tb 0.86033 0.69072 0.66696 0.0
C283 C 0.85223 0.64024 0.67852 0.0
Tb284 Tb 0.81152 0.65038 0.67238 0.0
O285 O 0.86397 0.7114 0.69246 0.0
O286 O 0.84172 0.67457 0.689 0.0
O287 O 0.86654 0.66162 0.67322 0.0
C288 C 0.77115 0.62321 0.68509 0.0
O289 O 0.83026 0.63256 0.68013 0.0
C290 C 0.82563 0.64963 0.64025 0.0
C291 C 0.81975 0.70043 0.66152 0.0
O292 O 0.79096 0.63013 0.69358 0.0
O293 O 0.77399 0.63134 0.66924 0.0
O294 O 0.81023 0.63045 0.64679 0.0
O295 O 0.82998 0.66746 0.65074 0.0
O296 O 0.80765 0.68208 0.67111 0.0
O297 O 0.83952 0.70467 0.6557 0.0
C298 C 0.8998 0.71491 0.65238 0.0
O299 O 0.89202 0.72407 0.66407 0.0
O300 O 0.88542 0.69218 0.64899 0.0
C301 C 0.84726 0.69332 0.69904 0.0
Tb302 Tb 0.31549 0.17347 0.66697 0.0
C303 C 0.3635 0.2127 0.6845 0.0
Tb304 Tb 0.34973 0.15771 0.67926 0.0
O305 O 0.31403 0.18392 0.69519 0.0
O306 O 0.32019 0.15598 0.68867 0.0
O307 O 0.34574 0.20836 0.67318 0.0
C308 C 0.37813 0.14723 0.69745 0.0
O309 O 0.36694 0.19545 0.69014 0.0
C310 C 0.34614 0.16237 0.64471 0.0
C311 C 0.30168 0.11851 0.66137 0.0
O312 O 0.38309 0.16028 0.68389 0.0
O313 O 0.35724 0.14021 0.70085 0.0
O314 O 0.35158 0.1474 0.65113 0.0
O315 O 0.34504 0.17513 0.65756 0.0
O316 O 0.3196 0.12273 0.67244 0.0
O317 O 0.29791 0.13574 0.65628 0.0
C318 C 0.28666 0.18361 0.64902 0.0
O319 O 0.28434 0.17579 0.66494 0.0
O320 O 0.30517 0.18562 0.64312 0.0
C321 C 0.31915 0.1687 0.70156 0.0
Tb322 Tb 0.8098 0.16 0.67602 0.0
C323 C 0.81639 0.12055 0.65589 0.0
Tb324 Tb 0.85743 0.17464 0.66331 0.0
O325 O 0.79493 0.15234 0.64782 0.0
O326 O 0.82908 0.1781 0.65484 0.0
O327 O 0.80412 0.12485 0.66726 0.0
C328 C 0.89303 0.18455 0.64447 0.0
O329 O 0.83634 0.13759 0.65115 0.0
C330 C 0.85289 0.1677 0.69759 0.0
C331 C 0.85069 0.21398 0.68337 0.0
O332 O 0.88677 0.17065 0.65752 0.0
O333 O 0.87928 0.19288 0.64204 0.0
O334 O 0.87221 0.18251 0.69157 0.0
O335 O 0.83813 0.15648 0.68443 0.0
O336 O 0.86258 0.20979 0.67154 0.0
O337 O 0.83116 0.19678 0.68857 0.0
C338 C 0.77425 0.14969 0.69499 0.0
O339 O 0.78035 0.1637 0.68199 0.0
O340 O 0.78818 0.14156 0.69731 0.0
C341 C 0.81424 0.16696 0.64172 0.0
C342 C 0.2469 0.84176 0.07224 0.0
C343 C 0.24696 0.83754 0.09064 0.0
C344 C 0.26735 0.85602 0.0647 0.0
C345 C 0.32727 0.90288 0.07559 0.0
H346 H 0.33709 0.87681 0.03093 0.0
C347 C 0.41552 0.94548 0.04747 0.0
C348 C 0.41627 0.94525 0.02861 0.0
C349 C 0.39466 0.93303 0.05491 0.0
C350 C 0.33453 0.88459 0.04323 0.0
H351 H 0.26867 0.84552 0.1156 0.0
H352 H 0.30436 0.87091 0.10247 0.0
H353 H 0.30099 0.8545 0.0442 0.0
H354 H 0.39599 0.93226 0.00271 0.0
H355 H 0.35938 0.91105 0.01566 0.0
H356 H 0.36063 0.93313 0.07455 0.0
C357 C 0.2884 0.8631 0.09393 0.0
C358 C 0.31385 0.87174 0.05086 0.0
C359 C 0.26795 0.84862 0.10145 0.0
C360 C 0.39583 0.93256 0.0173 0.0
C361 C 0.3749 0.92031 0.02474 0.0
C362 C 0.34788 0.91588 0.06786 0.0
C363 C 0.28832 0.86664 0.07542 0.0
C364 C 0.31006 0.88069 0.06716 0.0
C365 C 0.37405 0.9203 0.04366 0.0
C366 C 0.35185 0.90683 0.05163 0.0
H367 H 0.23102 0.83393 0.0636 0.0
H368 H 0.26676 0.85876 0.05046 0.0
H369 H 0.32469 0.91031 0.08807 0.0
H370 H 0.43111 0.95508 0.05648 0.0
H371 H 0.39476 0.9331 0.06951 0.0
C372 C 0.18977 0.44036 0.09142 0.0
C373 C 0.18139 0.41919 0.10015 0.0
C374 C 0.17479 0.44688 0.0834 0.0
C375 C 0.1136 0.42285 0.06746 0.0
H376 H 0.13202 0.4902 0.07002 0.0
C377 C 0.05212 0.45733 0.04724 0.0
C378 C 0.06031 0.47513 0.03512 0.0
C379 C 0.06673 0.45051 0.05555 0.0
C380 C 0.12673 0.47135 0.06916 0.0
H381 H 0.15051 0.38804 0.10691 0.0
H382 H 0.1245 0.39996 0.09372 0.0
H383 H 0.15767 0.47801 0.08377 0.0
H384 H 0.09011 0.50015 0.02244 0.0
H385 H 0.11581 0.48856 0.03729 0.0
H386 H 0.08236 0.41631 0.05321 0.0
C387 C 0.14264 0.41132 0.09272 0.0
C388 C 0.14145 0.46433 0.07692 0.0
C389 C 0.15762 0.40463 0.10054 0.0
C390 C 0.08341 0.48636 0.03173 0.0
C391 C 0.0981 0.47981 0.04026 0.0
C392 C 0.09875 0.42987 0.05992 0.0
C393 C 0.15104 0.43259 0.08411 0.0
C394 C 0.13516 0.43999 0.07606 0.0
C395 C 0.08984 0.46167 0.0521 0.0
C396 C 0.10525 0.45418 0.0606 0.0
H397 H 0.20797 0.45221 0.09105 0.0
H398 H 0.18191 0.46317 0.07662 0.0
H399 H 0.1083 0.404 0.06625 0.0
H400 H 0.03435 0.44843 0.05006 0.0
H401 H 0.06002 0.43661 0.06475 0.0
C402 C 0.58008 0.74174 0.09434 0.0
C403 C 0.59175 0.76196 0.08479 0.0
C404 C 0.57327 0.71895 0.08624 0.0
C405 C 0.5627 0.6855 0.04124 0.0
H406 H 0.56138 0.63697 0.07047 0.0
C407 C 0.54264 0.59126 0.01204 0.0
C408 C 0.52587 0.5721 0.02047 0.0
C409 C 0.55146 0.61484 0.01946 0.0
C410 C 0.5616 0.65036 0.06219 0.0
H411 H 0.60592 0.77442 0.05948 0.0
H412 H 0.59472 0.73464 0.04545 0.0
H413 H 0.57641 0.67763 0.08427 0.0
H414 H 0.50537 0.56252 0.04335 0.0
H415 H 0.52109 0.60371 0.05644 0.0
H416 H 0.54829 0.65808 0.01907 0.0
C417 C 0.59025 0.73624 0.05902 0.0
C418 C 0.5701 0.67363 0.07008 0.0
C419 C 0.59679 0.75904 0.06706 0.0
C420 C 0.51814 0.57694 0.03647 0.0
C421 C 0.52724 0.60045 0.04404 0.0
C422 C 0.55452 0.66228 0.03329 0.0
C423 C 0.57824 0.71587 0.06847 0.0
C424 C 0.57046 0.69144 0.05978 0.0
C425 C 0.54397 0.6196 0.03561 0.0
C426 C 0.55363 0.64445 0.04376 0.0
H427 H 0.57569 0.7435 0.10793 0.0
H428 H 0.56363 0.7037 0.09381 0.0
H429 H 0.56237 0.6986 0.03293 0.0
H430 H 0.5489 0.58805 -0.00031 0.0
H431 H 0.56443 0.62933 0.01277 0.0
C432 C 0.8414 0.24094 0.9342 0.0
C433 C 0.83302 0.23804 0.91599 0.0
C434 C 0.85687 0.26375 0.9426 0.0
C435 C 0.89607 0.32646 0.93227 0.0
H436 H 0.89082 0.34187 0.98235 0.0
C437 C 0.93857 0.42314 0.96571 0.0
C438 C 0.95184 0.42773 0.9822 0.0
C439 C 0.92439 0.39967 0.95803 0.0
C440 C 0.89253 0.33771 0.96839 0.0
H441 H 0.8338 0.25655 0.89234 0.0
H442 H 0.86013 0.29632 0.90703 0.0
H443 H 0.86571 0.30134 0.96806 0.0
H444 H 0.96029 0.41139 0.00384 0.0
H445 H 0.93499 0.37025 0.99056 0.0
H446 H 0.92238 0.36315 0.93253 0.0
C447 C 0.8555 0.28108 0.91475 0.0
C448 C 0.87827 0.31448 0.96022 0.0
C449 C 0.84033 0.25829 0.90633 0.0
C450 C 0.95028 0.40838 0.99108 0.0
C451 C 0.93578 0.38487 0.98355 0.0
C452 C 0.91005 0.34973 0.94037 0.0
C453 C 0.86398 0.28414 0.93301 0.0
C454 C 0.87977 0.30858 0.94201 0.0
C455 C 0.92293 0.38035 0.96686 0.0
C456 C 0.90833 0.35558 0.95846 0.0
H457 H 0.83608 0.22554 0.9419 0.0
H458 H 0.8633 0.26536 0.95658 0.0
H459 H 0.89812 0.32249 0.91838 0.0
H460 H 0.93956 0.43771 0.95849 0.0
H461 H 0.91451 0.39659 0.94519 0.0
C462 C 0.7368 0.56195 0.90862 0.0
C463 C 0.7478 0.58487 0.90232 0.0
C464 C 0.71571 0.55317 0.91574 0.0
C465 C 0.66442 0.55789 0.915 0.0
H466 H 0.65902 0.53639 0.96319 0.0
C467 C 0.58736 0.5395 0.95476 0.0
C468 C 0.58005 0.52163 0.96679 0.0
C469 C 0.60712 0.54592 0.94605 0.0
C470 C 0.66 0.54184 0.94958 0.0
H471 H 0.74495 0.61638 0.89851 0.0
H472 H 0.70768 0.60055 0.91036 0.0
H473 H 0.69465 0.54965 0.94926 0.0
H474 H 0.58693 0.49578 0.9787 0.0
H475 H 0.62089 0.50619 0.96294 0.0
H476 H 0.62969 0.54961 0.91501 0.0
C477 C 0.71558 0.58955 0.9098 0.0
C478 C 0.68049 0.54957 0.94168 0.0
C479 C 0.73687 0.59853 0.90296 0.0
C480 C 0.59238 0.50978 0.96959 0.0
C481 C 0.61193 0.51591 0.96065 0.0
C482 C 0.64376 0.54977 0.92277 0.0
C483 C 0.70495 0.5669 0.91641 0.0
C484 C 0.68293 0.55787 0.92441 0.0
C485 C 0.61976 0.53431 0.94895 0.0
C486 C 0.64135 0.54186 0.94025 0.0
H487 H 0.74439 0.55067 0.90796 0.0
H488 H 0.70769 0.53554 0.92059 0.0
H489 H 0.66587 0.564 0.90157 0.0
H490 H 0.57813 0.54894 0.95242 0.0
H491 H 0.61274 0.56043 0.9374 0.0
C492 C 0.42485 0.15136 0.91703 0.0
C493 C 0.40949 0.15671 0.92514 0.0
C494 C 0.43293 0.13801 0.9257 0.0
C495 C 0.42061 0.09429 0.95845 0.0
H496 H 0.48643 0.12221 0.96539 0.0
C497 C 0.46213 0.04862 0.99778 0.0
C498 C 0.48136 0.04943 0.99083 0.0
C499 C 0.45337 0.06256 0.99112 0.0
C500 C 0.46801 0.11396 0.96338 0.0
H501 H 0.38987 0.15174 0.94825 0.0
H502 H 0.40361 0.12778 0.96324 0.0
H503 H 0.47029 0.1436 0.95015 0.0
H504 H 0.50652 0.06556 0.97147 0.0
H505 H 0.49094 0.08908 0.95953 0.0
H506 H 0.41818 0.06422 0.97102 0.0
C507 C 0.40952 0.13412 0.95029 0.0
C508 C 0.4588 0.12629 0.9547 0.0
C509 C 0.40174 0.14783 0.94177 0.0
C510 C 0.49182 0.06467 0.97728 0.0
C511 C 0.48292 0.07832 0.97047 0.0
C512 C 0.4298 0.08173 0.96688 0.0
C513 C 0.42549 0.12948 0.94247 0.0
C514 C 0.43504 0.11649 0.95204 0.0
C515 C 0.46351 0.07739 0.97722 0.0
C516 C 0.45364 0.09131 0.96931 0.0
H517 H 0.43121 0.15818 0.90429 0.0
H518 H 0.44513 0.1345 0.91936 0.0
H519 H 0.4022 0.08637 0.95649 0.0
H520 H 0.45376 0.03712 0.0083 0.0
H521 H 0.43863 0.06167 0.99686 0.0
C522 C 0.74569 0.13826 0.91256 0.0
C523 C 0.75679 0.16342 0.91441 0.0
C524 C 0.72542 0.12467 0.92059 0.0
C525 C 0.69319 0.12807 0.95758 0.0
H526 H 0.64079 0.07436 0.93002 0.0
C527 C 0.60423 0.0818 0.9843 0.0
C528 C 0.59049 0.05693 0.98055 0.0
C529 C 0.62473 0.09431 0.97636 0.0
C530 C 0.65536 0.08907 0.93801 0.0
H531 H 0.75482 0.19393 0.92573 0.0
H532 H 0.71983 0.17021 0.94005 0.0
H533 H 0.6763 0.09683 0.91589 0.0
H534 H 0.58732 0.02547 0.96578 0.0
H535 H 0.62343 0.04715 0.95227 0.0
H536 H 0.67251 0.12025 0.97978 0.0
C537 C 0.72696 0.16106 0.93254 0.0
C538 C 0.67566 0.10196 0.92988 0.0
C539 C 0.74706 0.17463 0.92438 0.0
C540 C 0.59763 0.04469 0.96885 0.0
C541 C 0.61822 0.05715 0.96102 0.0
C542 C 0.67298 0.11506 0.96577 0.0
C543 C 0.71597 0.13596 0.93077 0.0
C544 C 0.6947 0.12171 0.93954 0.0
C545 C 0.63199 0.08214 0.96461 0.0
C546 C 0.65373 0.09552 0.95605 0.0
H547 H 0.75285 0.12906 0.90516 0.0
H548 H 0.71737 0.10533 0.91914 0.0
H549 H 0.70773 0.14303 0.96542 0.0
H550 H 0.59899 0.09166 0.9932 0.0
H551 H 0.63467 0.11358 0.9792 0.0
C552 C 0.83817 0.58611 0.89352 0.0
C553 C 0.82515 0.59197 0.90465 0.0
C554 C 0.85273 0.57865 0.90096 0.0
C555 C 0.85944 0.54892 0.93903 0.0
H556 H 0.92245 0.57597 0.92803 0.0
C557 C 0.92137 0.52687 0.97779 0.0
C558 C 0.93814 0.52536 0.96848 0.0
C559 C 0.90766 0.53473 0.96944 0.0
C560 C 0.90478 0.56791 0.93101 0.0
H561 H 0.81806 0.5955 0.93246 0.0
H562 H 0.84294 0.58177 0.94531 0.0
H563 H 0.89876 0.59078 0.91447 0.0
H564 H 0.95358 0.53036 0.9431 0.0
H565 H 0.92905 0.54331 0.92818 0.0
H566 H 0.86502 0.52564 0.95516 0.0
C567 C 0.84172 0.58287 0.93082 0.0
C568 C 0.89129 0.57652 0.92332 0.0
C569 C 0.82742 0.59064 0.92343 0.0
C570 C 0.94078 0.53147 0.95057 0.0
C571 C 0.92684 0.53906 0.9421 0.0
C572 C 0.87278 0.54008 0.94651 0.0
C573 C 0.85433 0.5766 0.91964 0.0
C574 C 0.86858 0.56726 0.92742 0.0
C575 C 0.9102 0.54094 0.95149 0.0
C576 C 0.89572 0.54964 0.94278 0.0
H577 H 0.83662 0.58656 0.87897 0.0
H578 H 0.86217 0.57375 0.89204 0.0
H579 H 0.84184 0.54121 0.94215 0.0
H580 H 0.91914 0.52243 0.99168 0.0
H581 H 0.89539 0.53638 0.97724 0.0
C582 C 0.43088 0.24777 0.93671 0.0
C583 C 0.40819 0.23302 0.9293 0.0
C584 C 0.43824 0.27086 0.94444 0.0
C585 C 0.42231 0.31814 0.94454 0.0
H586 H 0.47109 0.34845 0.98353 0.0
C587 C 0.45152 0.41062 0.98264 0.0
C588 C 0.47504 0.42716 0.98314 0.0
C589 C 0.44291 0.38667 0.97645 0.0
C590 C 0.45752 0.34017 0.97259 0.0
H591 H 0.37512 0.23028 0.9247 0.0
H592 H 0.3876 0.27029 0.93899 0.0
H593 H 0.45585 0.30637 0.97325 0.0
H594 H 0.50802 0.43165 0.9777 0.0
H595 H 0.49292 0.38943 0.96731 0.0
H596 H 0.42367 0.35196 0.9444 0.0
C597 C 0.39999 0.26441 0.93832 0.0
C598 C 0.44882 0.31611 0.96662 0.0
C599 C 0.39274 0.24143 0.93028 0.0
C600 C 0.48981 0.41929 0.97741 0.0
C601 C 0.48123 0.39518 0.97157 0.0
C602 C 0.43073 0.34207 0.95076 0.0
C603 C 0.42296 0.27962 0.94519 0.0
C604 C 0.43127 0.30482 0.95236 0.0
C605 C 0.45771 0.37873 0.971 0.0
C606 C 0.44855 0.35331 0.96469 0.0
H607 H 0.44319 0.24179 0.93584 0.0
H608 H 0.45613 0.2821 0.94922 0.0
H609 H 0.40916 0.31032 0.9333 0.0
H610 H 0.4397 0.41622 0.98686 0.0
H611 H 0.42471 0.37425 0.97616 0.0
C612 C 0.14904 0.75355 0.08134 0.0
C613 C 0.17227 0.76066 0.08429 0.0
C614 C 0.13351 0.7312 0.07231 0.0
C615 C 0.13033 0.67989 0.044 0.0
H616 H 0.06984 0.64529 0.0607 0.0
C617 C 0.06827 0.57806 0.02763 0.0
C618 C 0.04599 0.57148 0.02075 0.0
C619 C 0.0837 0.60169 0.03443 0.0
C620 C 0.08663 0.65485 0.05584 0.0
H621 H 0.19761 0.7502 0.08027 0.0
H622 H 0.17053 0.71086 0.06512 0.0
H623 H 0.09678 0.68565 0.07427 0.0
H624 H 0.02226 0.58434 0.01582 0.0
H625 H 0.04912 0.62551 0.02814 0.0
H626 H 0.12024 0.64845 0.0261 0.0
C627 C 0.16424 0.72269 0.06918 0.0
C628 C 0.10206 0.67805 0.0635 0.0
C629 C 0.17979 0.74519 0.07793 0.0
C630 C 0.03937 0.58892 0.02093 0.0
C631 C 0.05466 0.61242 0.02804 0.0
C632 C 0.11502 0.65653 0.03657 0.0
C633 C 0.14085 0.71531 0.06633 0.0
C634 C 0.12415 0.69088 0.05772 0.0
C635 C 0.07696 0.619 0.03479 0.0
C636 C 0.09307 0.64383 0.04245 0.0
H637 H 0.14291 0.76531 0.08603 0.0
H638 H 0.11575 0.7264 0.07005 0.0
H639 H 0.14698 0.68932 0.03891 0.0
H640 H 0.07386 0.56502 0.02763 0.0
H641 H 0.10079 0.60636 0.03969 0.0
C642 C 0.255 0.41428 0.08362 0.0
C643 C 0.25489 0.41774 0.10248 0.0
C644 C 0.27546 0.42123 0.07586 0.0
C645 C 0.33371 0.43304 0.08434 0.0
H646 H 0.34686 0.47482 0.04569 0.0
C647 C 0.42044 0.47473 0.05326 0.0
C648 C 0.42004 0.47698 0.03457 0.0
C649 C 0.40076 0.46808 0.06218 0.0
C650 C 0.34336 0.46287 0.05626 0.0
H651 H 0.27636 0.43076 0.12797 0.0
H652 H 0.31199 0.44208 0.11437 0.0
H653 H 0.31126 0.46076 0.05978 0.0
H654 H 0.39895 0.4739 0.01046 0.0
H655 H 0.36442 0.46144 0.02576 0.0
H656 H 0.36539 0.43441 0.08049 0.0
C657 C 0.29614 0.43411 0.10567 0.0
C658 C 0.323 0.45492 0.06437 0.0
C659 C 0.2757 0.42751 0.11344 0.0
C660 C 0.39972 0.47248 0.02493 0.0
C661 C 0.37998 0.4655 0.03376 0.0
C662 C 0.35396 0.44067 0.07602 0.0
C663 C 0.29622 0.43141 0.0868 0.0
C664 C 0.31796 0.43989 0.07843 0.0
C665 C 0.38021 0.46324 0.05251 0.0
C666 C 0.35901 0.45562 0.06181 0.0
H667 H 0.23926 0.4063 0.07479 0.0
H668 H 0.27507 0.41865 0.06128 0.0
H669 H 0.33011 0.42134 0.09511 0.0
H670 H 0.43599 0.4782 0.06099 0.0
H671 H 0.40173 0.46693 0.07666 0.0
C672 C 0.56617 0.827 0.07487 0.0
C673 C 0.58867 0.83734 0.08291 0.0
C674 C 0.55891 0.84089 0.06602 0.0
C675 C 0.57435 0.90414 0.06224 0.0
H676 H 0.52994 0.87642 0.02012 0.0
C677 C 0.54894 0.96032 0.01944 0.0
C678 C 0.5253 0.95177 0.01694 0.0
C679 C 0.55708 0.94595 0.02616 0.0
C680 C 0.5423 0.88432 0.0319 0.0
H681 H 0.62137 0.87009 0.08778 0.0
H682 H 0.60903 0.89431 0.07179 0.0
H683 H 0.54393 0.85242 0.03439 0.0
H684 H 0.49168 0.92105 0.01875 0.0
H685 H 0.50601 0.89576 0.03021 0.0
H686 H 0.57298 0.93618 0.05943 0.0
C687 C 0.59672 0.87563 0.07273 0.0
C688 C 0.55025 0.87058 0.04016 0.0
C689 C 0.60386 0.86178 0.08182 0.0
C690 C 0.50998 0.92818 0.0206 0.0
C691 C 0.51816 0.91368 0.02708 0.0
C692 C 0.56666 0.91795 0.05381 0.0
C693 C 0.5741 0.86539 0.06479 0.0
C694 C 0.56624 0.88025 0.05554 0.0
C695 C 0.54178 0.92262 0.03026 0.0
C696 C 0.55046 0.90812 0.03866 0.0
H697 H 0.55405 0.80822 0.07573 0.0
H698 H 0.54126 0.83246 0.06043 0.0
H699 H 0.58629 0.91209 0.07424 0.0
H700 H 0.56123 0.97841 0.01679 0.0
H701 H 0.57537 0.95317 0.02836 0.0
C702 C 0.91317 0.17232 0.40985 0.0
C703 C 0.91243 0.16597 0.4277 0.0
C704 C 0.93413 0.18623 0.40285 0.0
C705 C 0.99594 0.22688 0.41657 0.0
H706 H 0.00233 0.21111 0.36692 0.0
C707 C 0.07619 0.28638 0.38055 0.0
C708 C 0.08389 0.2749 0.36866 0.0
C709 C 0.05549 0.27321 0.38809 0.0
C710 C 0.00092 0.21561 0.38087 0.0
H711 H 0.93302 0.16899 0.45217 0.0
H712 H 0.96957 0.19299 0.43992 0.0
H713 H 0.96585 0.18801 0.37942 0.0
H714 H 0.07644 0.24073 0.35558 0.0
H715 H 0.04048 0.21757 0.36905 0.0
H716 H 0.03123 0.25401 0.41818 0.0
C717 C 0.954 0.18772 0.43143 0.0
C718 C 0.97988 0.20258 0.38796 0.0
C719 C 0.93306 0.17394 0.43845 0.0
C720 C 0.07079 0.25 0.36467 0.0
C721 C 0.05013 0.23679 0.37228 0.0
C722 C 0.01702 0.23984 0.4095 0.0
C723 C 0.95481 0.19395 0.41351 0.0
C724 C 0.97713 0.20805 0.4059 0.0
C725 C 0.04212 0.24827 0.38395 0.0
C726 C 0.01977 0.23436 0.39156 0.0
H727 H 0.89751 0.16662 0.40133 0.0
H728 H 0.93411 0.19104 0.3891 0.0
H729 H 0.99437 0.23176 0.43038 0.0
H730 H 0.08599 0.3056 0.3838 0.0
H731 H 0.04972 0.28268 0.39684 0.0
C732 C 0.85394 0.76569 0.42618 0.0
C733 C 0.84447 0.74344 0.43351 0.0
C734 C 0.8399 0.77403 0.41922 0.0
C735 C 0.78381 0.76885 0.42131 0.0
H736 H 0.79222 0.79012 0.37303 0.0
C737 C 0.71903 0.78744 0.38215 0.0
C738 C 0.7274 0.80568 0.37043 0.0
C739 C 0.73365 0.78074 0.39065 0.0
C740 C 0.78986 0.78468 0.38666 0.0
H741 H 0.81268 0.71268 0.43941 0.0
H742 H 0.78825 0.72764 0.42768 0.0
H743 H 0.81724 0.77712 0.38662 0.0
H744 H 0.75759 0.83185 0.35883 0.0
H745 H 0.78333 0.82086 0.37412 0.0
H746 H 0.75672 0.7768 0.42157 0.0
C747 C 0.80659 0.73853 0.42734 0.0
C748 C 0.80415 0.77712 0.39439 0.0
C749 C 0.82061 0.73002 0.43409 0.0
C750 C 0.7507 0.81757 0.3677 0.0
C751 C 0.76538 0.81112 0.37637 0.0
C752 C 0.76967 0.77673 0.41368 0.0
C753 C 0.81609 0.76049 0.41967 0.0
C754 C 0.80119 0.76901 0.41174 0.0
C755 C 0.75701 0.79238 0.38777 0.0
C756 C 0.77243 0.78463 0.3962 0.0
H757 H 0.87226 0.77681 0.4259 0.0
H758 H 0.84767 0.79118 0.4136 0.0
H759 H 0.78133 0.7629 0.4348 0.0
H760 H 0.70108 0.77797 0.38445 0.0
H761 H 0.72647 0.76604 0.39911 0.0
C762 C 0.26038 0.09216 0.40237 0.0
C763 C 0.25547 0.09468 0.42021 0.0
C764 C 0.25379 0.0695 0.39397 0.0
C765 C 0.234 0.00665 0.40428 0.0
H766 H 0.21242 0.99184 0.35323 0.0
C767 C 0.18274 0.91032 0.36999 0.0
C768 C 0.1907 0.90576 0.35402 0.0
C769 C 0.19157 0.93376 0.37766 0.0
C770 C 0.21858 0.99583 0.36746 0.0
H771 H 0.23947 0.07562 0.44315 0.0
H772 H 0.22731 0.03611 0.42843 0.0
H773 H 0.2262 0.03213 0.36749 0.0
H774 H 0.21381 0.92213 0.33336 0.0
H775 H 0.22886 0.96326 0.34662 0.0
H776 H 0.22553 0.97002 0.4043 0.0
C777 C 0.23691 0.05155 0.42103 0.0
C778 C 0.22659 0.01893 0.37564 0.0
C779 C 0.24378 0.07419 0.42948 0.0
C780 C 0.20738 0.92512 0.34569 0.0
C781 C 0.21592 0.94862 0.35321 0.0
C782 C 0.22567 0.98351 0.39617 0.0
C783 C 0.24187 0.04887 0.40318 0.0
C784 C 0.23426 0.0246 0.39421 0.0
C785 C 0.20825 0.9531 0.36936 0.0
C786 C 0.21775 0.97786 0.37772 0.0
H787 H 0.26952 0.10774 0.39499 0.0
H788 H 0.25823 0.06821 0.38033 0.0
H789 H 0.24027 0.01044 0.41848 0.0
H790 H 0.17003 0.89576 0.3768 0.0
H791 H 0.18527 0.93678 0.39006 0.0
C792 C 0.51528 0.57818 0.25342 0.0
C793 C 0.49205 0.57108 0.25 0.0
C794 C 0.5306 0.6005 0.26265 0.0
C795 C 0.53932 0.66051 0.2709 0.0
H796 H 0.58144 0.66833 0.31168 0.0
C797 C 0.59541 0.75205 0.31155 0.0
C798 C 0.61779 0.75833 0.31784 0.0
C799 C 0.57984 0.72876 0.30416 0.0
C800 C 0.57003 0.66653 0.30015 0.0
H801 H 0.46663 0.58164 0.25348 0.0
H802 H 0.49345 0.62072 0.26942 0.0
H803 H 0.55508 0.62835 0.2969 0.0
H804 H 0.64143 0.74511 0.3213 0.0
H805 H 0.61458 0.70474 0.30787 0.0
H806 H 0.55452 0.69854 0.2736 0.0
C807 C 0.49975 0.60898 0.26506 0.0
C808 C 0.55489 0.64362 0.29176 0.0
C809 C 0.48441 0.58659 0.25609 0.0
C810 C 0.62423 0.74078 0.31672 0.0
C811 C 0.60877 0.71756 0.30908 0.0
C812 C 0.55463 0.68342 0.27909 0.0
C813 C 0.523 0.61621 0.26833 0.0
C814 C 0.53932 0.64041 0.27714 0.0
C815 C 0.58639 0.71127 0.3026 0.0
C816 C 0.57011 0.68676 0.2939 0.0
H817 H 0.52156 0.5665 0.2489 0.0
H818 H 0.54848 0.60574 0.26495 0.0
H819 H 0.52768 0.65854 0.25946 0.0
H820 H 0.58986 0.76513 0.31237 0.0
H821 H 0.56263 0.72448 0.2997 0.0
C822 C 0.40609 0.89645 0.24697 0.0
C823 C 0.41675 0.91901 0.24009 0.0
C824 C 0.38488 0.8876 0.25393 0.0
C825 C 0.33295 0.89135 0.25167 0.0
H826 H 0.32691 0.87123 0.30031 0.0
C827 C 0.25505 0.87368 0.29002 0.0
C828 C 0.24756 0.85614 0.30232 0.0
C829 C 0.27501 0.87997 0.28164 0.0
C830 C 0.32807 0.8763 0.28658 0.0
H831 H 0.41323 0.94989 0.2352 0.0
H832 H 0.37583 0.93395 0.24676 0.0
H833 H 0.36286 0.88437 0.28691 0.0
H834 H 0.25439 0.83075 0.3151 0.0
H835 H 0.28875 0.84095 0.29995 0.0
H836 H 0.29812 0.88285 0.25105 0.0
C837 C 0.38404 0.92324 0.24676 0.0
C838 C 0.34875 0.88395 0.27897 0.0
C839 C 0.40543 0.93229 0.24008 0.0
C840 C 0.25997 0.84451 0.30577 0.0
C841 C 0.27975 0.85051 0.29717 0.0
C842 C 0.31214 0.88332 0.25915 0.0
C843 C 0.37368 0.90091 0.25386 0.0
C844 C 0.35144 0.89178 0.26154 0.0
C845 C 0.28772 0.86856 0.28518 0.0
C846 C 0.30949 0.87595 0.2768 0.0
H847 H 0.414 0.88545 0.24684 0.0
H848 H 0.37709 0.87021 0.25918 0.0
H849 H 0.33457 0.89707 0.23811 0.0
H850 H 0.24576 0.88295 0.28719 0.0
H851 H 0.28074 0.89421 0.27275 0.0
C852 C 0.07864 0.48839 0.26905 0.0
C853 C 0.08502 0.49579 0.25182 0.0
C854 C 0.08473 0.47295 0.27688 0.0
C855 C 0.10482 0.43024 0.2654 0.0
H856 H 0.1226 0.43943 0.31703 0.0
C857 C 0.15043 0.38534 0.29953 0.0
C858 C 0.14216 0.37478 0.31557 0.0
C859 C 0.1425 0.39933 0.29176 0.0
C860 C 0.11746 0.43653 0.30263 0.0
H861 H 0.10318 0.49332 0.22942 0.0
H862 H 0.11434 0.46688 0.24321 0.0
H863 H 0.11088 0.46562 0.30347 0.0
H864 H 0.11908 0.37062 0.33604 0.0
H865 H 0.10545 0.39543 0.32253 0.0
H866 H 0.11204 0.40152 0.26458 0.0
C867 C 0.10406 0.47238 0.25051 0.0
C868 C 0.11067 0.45147 0.29484 0.0
C869 C 0.09776 0.48761 0.24262 0.0
C870 C 0.12578 0.37852 0.32368 0.0
C871 C 0.11806 0.39279 0.31601 0.0
C872 C 0.11184 0.41548 0.27317 0.0
C873 C 0.09757 0.46478 0.26773 0.0
C874 C 0.10434 0.44857 0.27611 0.0
C875 C 0.12632 0.40329 0.29996 0.0
C876 C 0.11829 0.41853 0.29184 0.0
H877 H 0.06863 0.49428 0.27635 0.0
H878 H 0.07912 0.46719 0.29002 0.0
H879 H 0.09962 0.42714 0.25101 0.0
H880 H 0.16294 0.38266 0.29288 0.0
H881 H 0.14927 0.40735 0.27945 0.0
C882 C 0.40371 0.50741 0.24978 0.0
C883 C 0.41488 0.49704 0.24085 0.0
C884 C 0.38228 0.49307 0.25588 0.0
C885 C 0.34402 0.43166 0.26787 0.0
H886 H 0.29898 0.45206 0.26622 0.0
C887 C 0.2532 0.37392 0.2902 0.0
C888 C 0.24619 0.38608 0.30212 0.0
C889 C 0.27279 0.38667 0.2812 0.0
C890 C 0.31144 0.4462 0.26681 0.0
H891 H 0.41216 0.46337 0.23125 0.0
H892 H 0.37442 0.43833 0.2414 0.0
H893 H 0.33504 0.47562 0.25308 0.0
H894 H 0.25362 0.42094 0.31369 0.0
H895 H 0.2878 0.44326 0.29787 0.0
H896 H 0.32028 0.40219 0.28158 0.0
C897 C 0.38243 0.45759 0.24397 0.0
C898 C 0.33212 0.45972 0.25935 0.0
C899 C 0.40395 0.47195 0.23795 0.0
C900 C 0.25872 0.41117 0.30458 0.0
C901 C 0.27818 0.42392 0.29546 0.0
C902 C 0.32324 0.41804 0.2752 0.0
C903 C 0.37138 0.46798 0.25308 0.0
C904 C 0.3488 0.4528 0.26001 0.0
C905 C 0.28554 0.41179 0.28382 0.0
C906 C 0.30688 0.42535 0.27495 0.0
H907 H 0.41146 0.52668 0.252 0.0
H908 H 0.37443 0.5017 0.26306 0.0
H909 H 0.35658 0.42598 0.26885 0.0
H910 H 0.24372 0.35455 0.28803 0.0
H911 H 0.27797 0.37689 0.27217 0.0
C912 C 0.49719 0.926 0.26124 0.0
C913 C 0.49458 0.92709 0.24245 0.0
C914 C 0.51149 0.91812 0.26849 0.0
C915 C 0.56002 0.90991 0.25981 0.0
H916 H 0.53446 0.86096 0.29327 0.0
C917 C 0.60775 0.86244 0.28601 0.0
C918 C 0.60628 0.85762 0.30424 0.0
C919 C 0.59404 0.87053 0.27787 0.0
C920 C 0.54202 0.87484 0.28414 0.0
H921 H 0.50539 0.92112 0.21662 0.0
H922 H 0.53079 0.90799 0.2294 0.0
H923 H 0.51162 0.87717 0.28071 0.0
H924 H 0.58956 0.85748 0.32833 0.0
H925 H 0.56616 0.87216 0.3144 0.0
H926 H 0.59061 0.90801 0.26351 0.0
C927 C 0.52172 0.91325 0.23846 0.0
C928 C 0.52889 0.88409 0.27693 0.0
C929 C 0.50724 0.92088 0.23117 0.0
C930 C 0.59089 0.86091 0.3142 0.0
C931 C 0.57737 0.86919 0.30615 0.0
C932 C 0.57329 0.90085 0.26719 0.0
C933 C 0.52368 0.91142 0.25715 0.0
C934 C 0.53778 0.90176 0.26475 0.0
C935 C 0.57876 0.87413 0.28789 0.0
C936 C 0.56447 0.88326 0.27951 0.0
H937 H 0.48808 0.93109 0.27036 0.0
H938 H 0.51297 0.91723 0.28299 0.0
H939 H 0.56733 0.92363 0.25052 0.0
H940 H 0.6195 0.85998 0.27805 0.0
H941 H 0.59533 0.87382 0.26372 0.0
C942 C 0.08233 0.57488 0.27426 0.0
C943 C 0.08278 0.57231 0.25535 0.0
C944 C 0.08884 0.59724 0.28324 0.0
C945 C 0.09198 0.65386 0.27672 0.0
H946 H 0.1424 0.68296 0.31446 0.0
C947 C 0.11974 0.74383 0.31789 0.0
C948 C 0.14299 0.76106 0.31777 0.0
C949 C 0.11167 0.72003 0.31155 0.0
C950 C 0.12825 0.67495 0.30399 0.0
H951 H 0.09112 0.59169 0.23125 0.0
H952 H 0.10125 0.63011 0.24682 0.0
H953 H 0.12871 0.64199 0.30116 0.0
H954 H 0.17609 0.76681 0.31124 0.0
H955 H 0.16194 0.72494 0.30045 0.0
H956 H 0.09147 0.68671 0.27947 0.0
C957 C 0.09583 0.61478 0.25461 0.0
C958 C 0.12035 0.65156 0.29651 0.0
C959 C 0.08982 0.59266 0.24571 0.0
C960 C 0.15807 0.75394 0.31144 0.0
C961 C 0.15004 0.73 0.3054 0.0
C962 C 0.09957 0.67703 0.28442 0.0
C963 C 0.09548 0.61729 0.27343 0.0
C964 C 0.1024 0.64101 0.28262 0.0
C965 C 0.12674 0.71292 0.30526 0.0
C966 C 0.11798 0.68789 0.29792 0.0
H967 H 0.0768 0.55963 0.28213 0.0
H968 H 0.0884 0.59882 0.29779 0.0
H969 H 0.07809 0.64602 0.26602 0.0
H970 H 0.10767 0.74878 0.32261 0.0
H971 H 0.09363 0.70713 0.3116 0.0
C972 C 0.82896 0.08823 0.40374 0.0
C973 C 0.83676 0.09019 0.422 0.0
C974 C 0.81327 0.06579 0.39479 0.0
C975 C 0.7717 0.00355 0.40426 0.0
H976 H 0.77688 0.98736 0.35436 0.0
C977 C 0.72692 0.90661 0.37181 0.0
C978 C 0.71418 0.90198 0.35503 0.0
C979 C 0.7415 0.93011 0.37923 0.0
C980 C 0.77517 0.99176 0.36826 0.0
H981 H 0.83513 0.07034 0.44503 0.0
H982 H 0.80842 0.03136 0.42944 0.0
H983 H 0.80305 0.0277 0.36873 0.0
H984 H 0.70707 0.91828 0.33266 0.0
H985 H 0.73301 0.9595 0.34556 0.0
H986 H 0.74432 0.96738 0.40392 0.0
C987 C 0.81361 0.04703 0.4221 0.0
C988 C 0.79006 0.01486 0.37648 0.0
C989 C 0.82901 0.06938 0.43104 0.0
C990 C 0.71665 0.92132 0.34564 0.0
C991 C 0.73153 0.94487 0.35295 0.0
C992 C 0.75707 0.98045 0.39613 0.0
C993 C 0.80535 0.04492 0.40392 0.0
C994 C 0.78869 0.02093 0.39467 0.0
C995 C 0.74386 0.94944 0.36991 0.0
C996 C 0.75883 0.97427 0.37813 0.0
H997 H 0.83468 0.10406 0.3965 0.0
H998 H 0.80713 0.06485 0.38084 0.0
H999 H 0.76972 0.00773 0.41813 0.0
H1000 H 0.72526 0.89207 0.37942 0.0
H1001 H 0.75097 0.9332 0.39227 0.0
C1002 C 0.91517 0.7368 0.4105 0.0
C1003 C 0.91451 0.73609 0.42937 0.0
C1004 C 0.93581 0.74489 0.40272 0.0
C1005 C 0.99357 0.75397 0.41007 0.0
H1006 H 0.00957 0.80339 0.37714 0.0
C1007 C 0.08311 0.80295 0.38424 0.0
C1008 C 0.0843 0.80836 0.36614 0.0
C1009 C 0.06259 0.79457 0.39225 0.0
C1010 C 0.00528 0.78936 0.38609 0.0
H1011 H 0.93515 0.74301 0.4548 0.0
H1012 H 0.97095 0.75636 0.44111 0.0
H1013 H 0.97288 0.78637 0.38996 0.0
H1014 H 0.06524 0.80947 0.3422 0.0
H1015 H 0.02925 0.79419 0.35591 0.0
H1016 H 0.02565 0.75645 0.40596 0.0
C1017 C 0.95545 0.75067 0.43239 0.0
C1018 C 0.98426 0.77966 0.39345 0.0
C1019 C 0.93488 0.74289 0.4402 0.0
C1020 C 0.06477 0.80556 0.35623 0.0
C1021 C 0.04418 0.79691 0.36415 0.0
C1022 C 0.01448 0.76344 0.40253 0.0
C1023 C 0.95617 0.75212 0.41362 0.0
C1024 C 0.97823 0.76192 0.40553 0.0
C1025 C 0.04277 0.79118 0.38223 0.0
C1026 C 0.02063 0.7813 0.39046 0.0
H1027 H 0.89977 0.73128 0.40171 0.0
H1028 H 0.93588 0.74553 0.38817 0.0
H1029 H 0.98924 0.74017 0.41925 0.0
H1030 H 0.09802 0.80508 0.39218 0.0
H1031 H 0.06228 0.7908 0.40629 0.0
C1032 C 0.23068 0.16132 0.41364 0.0
C1033 C 0.25351 0.17093 0.4206 0.0
C1034 C 0.2234 0.1759 0.40594 0.0
C1035 C 0.24048 0.24001 0.40356 0.0
H1036 H 0.19253 0.21363 0.36389 0.0
C1037 C 0.21456 0.29666 0.36078 0.0
C1038 C 0.1911 0.28906 0.35938 0.0
C1039 C 0.22249 0.28251 0.36833 0.0
C1040 C 0.20586 0.22115 0.37502 0.0
H1041 H 0.2868 0.20302 0.42469 0.0
H1042 H 0.27443 0.22839 0.41054 0.0
H1043 H 0.20634 0.18851 0.37627 0.0
H1044 H 0.15755 0.26066 0.36463 0.0
H1045 H 0.17144 0.23564 0.37739 0.0
H1046 H 0.24036 0.27293 0.40174 0.0
C1047 C 0.26188 0.2098 0.41151 0.0
C1048 C 0.21372 0.20676 0.38221 0.0
C1049 C 0.26905 0.19528 0.41951 0.0
C1050 C 0.17572 0.267 0.36559 0.0
C1051 C 0.18362 0.25265 0.37279 0.0
C1052 C 0.23289 0.25451 0.39613 0.0
C1053 C 0.23889 0.20035 0.40474 0.0
C1054 C 0.23102 0.21592 0.39669 0.0
C1055 C 0.20707 0.26032 0.37426 0.0
C1056 C 0.21541 0.24513 0.3819 0.0
H1057 H 0.21833 0.14263 0.41455 0.0
H1058 H 0.20549 0.16802 0.40127 0.0
H1059 H 0.25348 0.24763 0.41491 0.0
H1060 H 0.22682 0.31365 0.35621 0.0
H1061 H 0.24065 0.28874 0.36928 0.0
C1062 C 0.60228 0.51432 0.76742 0.0
C1063 C 0.5811 0.50538 0.75726 0.0
C1064 C 0.62267 0.52835 0.75966 0.0
C1065 C 0.64559 0.54076 0.71503 0.0
H1066 H 0.69812 0.59449 0.74245 0.0
C1067 C 0.72849 0.60312 0.68269 0.0
C1068 C 0.74914 0.60968 0.69286 0.0
C1069 C 0.70774 0.59097 0.69042 0.0
C1070 C 0.68365 0.5794 0.73467 0.0
H1071 H 0.5646 0.50504 0.73131 0.0
H1072 H 0.60012 0.52971 0.71782 0.0
H1073 H 0.66233 0.57291 0.75639 0.0
H1074 H 0.76448 0.60875 0.71896 0.0
H1075 H 0.7283 0.58737 0.73241 0.0
H1076 H 0.66693 0.54722 0.69333 0.0
C1077 C 0.60104 0.52544 0.73164 0.0
C1078 C 0.66315 0.56703 0.74266 0.0
C1079 C 0.58069 0.51137 0.73937 0.0
C1080 C 0.74876 0.60385 0.71082 0.0
C1081 C 0.72806 0.59179 0.71856 0.0
C1082 C 0.66607 0.55316 0.70703 0.0
C1083 C 0.62228 0.5338 0.74159 0.0
C1084 C 0.64391 0.54749 0.73297 0.0
C1085 C 0.70732 0.58528 0.70847 0.0
C1086 C 0.68536 0.57253 0.71679 0.0
H1087 H 0.60313 0.50977 0.78116 0.0
H1088 H 0.63873 0.53427 0.76764 0.0
H1089 H 0.63122 0.52554 0.70728 0.0
H1090 H 0.72837 0.60753 0.66883 0.0
H1091 H 0.69206 0.58638 0.68235 0.0
C1092 C 0.48486 0.05798 0.76332 0.0
C1093 C 0.50875 0.07233 0.76362 0.0
C1094 C 0.4705 0.06608 0.75657 0.0
C1095 C 0.47146 0.12206 0.74554 0.0
H1096 H 0.41235 0.07777 0.71989 0.0
C1097 C 0.41637 0.1509 0.70338 0.0
C1098 C 0.39321 0.13992 0.70655 0.0
C1099 C 0.43041 0.14307 0.71123 0.0
C1100 C 0.42875 0.09028 0.72717 0.0
H1101 H 0.53615 0.10649 0.75681 0.0
H1102 H 0.5112 0.11989 0.74411 0.0
H1103 H 0.43703 0.06288 0.73104 0.0
H1104 H 0.3665 0.11243 0.72047 0.0
H1105 H 0.39101 0.09835 0.7339 0.0
H1106 H 0.46332 0.14954 0.74102 0.0
C1107 C 0.5035 0.10266 0.74959 0.0
C1108 C 0.44288 0.08177 0.73363 0.0
C1109 C 0.51785 0.09473 0.75658 0.0
C1110 C 0.38434 0.12118 0.71784 0.0
C1111 C 0.39828 0.11307 0.72544 0.0
C1112 C 0.45747 0.13059 0.73883 0.0
C1113 C 0.47964 0.0886 0.74971 0.0
C1114 C 0.46446 0.09756 0.74289 0.0
C1115 C 0.42141 0.12387 0.72211 0.0
C1116 C 0.436 0.11478 0.72959 0.0
H1117 H 0.47719 0.04049 0.76838 0.0
H1118 H 0.45224 0.05481 0.75707 0.0
H1119 H 0.48769 0.13471 0.75296 0.0
H1120 H 0.42359 0.16539 0.69472 0.0
H1121 H 0.44817 0.15159 0.7084 0.0
C1122 C 0.91043 0.41043 0.761 0.0
C1123 C 0.92229 0.43016 0.751 0.0
C1124 C 0.90345 0.38732 0.75354 0.0
C1125 C 0.89298 0.35177 0.70957 0.0
H1126 H 0.89332 0.30543 0.74048 0.0
C1127 C 0.87556 0.25816 0.6823 0.0
C1128 C 0.85956 0.23886 0.69109 0.0
C1129 C 0.88379 0.28171 0.68948 0.0
C1130 C 0.89303 0.31817 0.73173 0.0
H1131 H 0.9364 0.44134 0.72546 0.0
H1132 H 0.92479 0.40097 0.71249 0.0
H1133 H 0.90728 0.34639 0.75316 0.0
H1134 H 0.83994 0.22903 0.71447 0.0
H1135 H 0.85459 0.27024 0.72713 0.0
H1136 H 0.87911 0.32347 0.68808 0.0
C1137 C 0.92037 0.40324 0.72597 0.0
C1138 C 0.90093 0.34162 0.73898 0.0
C1139 C 0.92712 0.42637 0.73339 0.0
C1140 C 0.85215 0.24355 0.70732 0.0
C1141 C 0.86063 0.26709 0.71464 0.0
C1142 C 0.88534 0.32838 0.70228 0.0
C1143 C 0.90839 0.3834 0.73594 0.0
C1144 C 0.90081 0.35868 0.72803 0.0
C1145 C 0.87643 0.28638 0.70573 0.0
C1146 C 0.88512 0.31133 0.71334 0.0
H1147 H 0.90617 0.41285 0.77452 0.0
H1148 H 0.89382 0.37249 0.76148 0.0
H1149 H 0.89227 0.36426 0.70079 0.0
H1150 H 0.88156 0.25512 0.66975 0.0
H1151 H 0.89609 0.29627 0.68243 0.0
C1152 C 0.17572 0.90792 0.6024 0.0
C1153 C 0.16795 0.90587 0.58413 0.0
C1154 C 0.1914 0.93034 0.61131 0.0
C1155 C 0.23203 0.99339 0.6025 0.0
H1156 H 0.225 0.00745 0.65241 0.0
C1157 C 0.27295 0.08925 0.63701 0.0
C1158 C 0.28584 0.09369 0.65369 0.0
C1159 C 0.25914 0.06587 0.62906 0.0
C1160 C 0.22722 0.00366 0.63851 0.0
H1161 H 0.17009 0.92549 0.56087 0.0
H1162 H 0.19679 0.96458 0.57641 0.0
H1163 H 0.20013 0.9673 0.63736 0.0
H1164 H 0.29398 0.07716 0.67535 0.0
H1165 H 0.26925 0.03611 0.66158 0.0
H1166 H 0.25854 0.0301 0.60355 0.0
C1167 C 0.19152 0.94896 0.58382 0.0
C1168 C 0.21309 0.98065 0.6299 0.0
C1169 C 0.17614 0.92656 0.57489 0.0
C1170 C 0.28424 0.07426 0.66247 0.0
C1171 C 0.27008 0.05081 0.65465 0.0
C1172 C 0.24586 0.01645 0.61103 0.0
C1173 C 0.19934 0.95119 0.60216 0.0
C1174 C 0.21519 0.97527 0.61172 0.0
C1175 C 0.25766 0.04647 0.63777 0.0
C1176 C 0.24346 0.02182 0.62904 0.0
H1177 H 0.16972 0.89217 0.60977 0.0
H1178 H 0.1973 0.9313 0.62533 0.0
H1179 H 0.23455 0.98982 0.58866 0.0
H1180 H 0.27399 0.10388 0.62986 0.0
H1181 H 0.24957 0.06292 0.61609 0.0
C1182 C 0.06908 0.22833 0.57677 0.0
C1183 C 0.08126 0.25133 0.57075 0.0
C1184 C 0.04813 0.22066 0.58389 0.0
C1185 C -0.00103 0.22927 0.58392 0.0
H1186 H 0.99172 0.20443 0.63099 0.0
C1187 C 0.92127 0.20983 0.62356 0.0
C1188 C 0.91324 0.19081 0.63458 0.0
C1189 C 0.94122 0.21666 0.615 0.0
C1190 C 0.99322 0.21088 0.61769 0.0
H1191 H 0.0806 0.28411 0.5673 0.0
H1192 H 0.04354 0.27027 0.57923 0.0
H1193 H 0.02736 0.21718 0.61724 0.0
H1194 H 0.91902 0.16336 0.64479 0.0
H1195 H 0.95328 0.17454 0.6293 0.0
H1196 H 0.96468 0.22245 0.58406 0.0
C1197 C 0.05044 0.25834 0.57847 0.0
C1198 C 0.01372 0.21832 0.60988 0.0
C1199 C 0.07161 0.2662 0.57159 0.0
C1200 C 0.92503 0.17825 0.63649 0.0
C1201 C 0.94477 0.18482 0.62771 0.0
C1202 C 0.97828 0.22147 0.59159 0.0
C1203 C 0.03867 0.23561 0.58487 0.0
C1204 C 0.01681 0.22764 0.59297 0.0
C1205 C 0.95335 0.20436 0.61708 0.0
C1206 C 0.97515 0.21224 0.60862 0.0
H1207 H 0.07566 0.21614 0.57591 0.0
H1208 H 0.03921 0.20291 0.58851 0.0
H1209 H 0.0009 0.23621 0.57077 0.0
H1210 H 0.91245 0.21982 0.62192 0.0
H1211 H 0.94741 0.23198 0.60715 0.0
C1212 C 0.73311 0.81651 0.60694 0.0
C1213 C 0.74042 0.82423 0.58996 0.0
C1214 C 0.73919 0.80132 0.61525 0.0
C1215 C 0.76267 0.76101 0.60559 0.0
H1216 H 0.77946 0.77177 0.65745 0.0
C1217 C 0.81823 0.72832 0.64032 0.0
C1218 C 0.80972 0.71476 0.65512 0.0
C1219 C 0.80787 0.74042 0.63314 0.0
C1220 C 0.77456 0.76843 0.643 0.0
H1221 H 0.76002 0.82247 0.56844 0.0
H1222 H 0.77118 0.79659 0.58305 0.0
H1223 H 0.76471 0.79513 0.64311 0.0
H1224 H 0.78408 0.70386 0.67435 0.0
H1225 H 0.76627 0.72576 0.66194 0.0
H1226 H 0.77356 0.73509 0.60546 0.0
C1227 C 0.76016 0.80154 0.58979 0.0
C1228 C 0.76604 0.78171 0.63476 0.0
C1229 C 0.75385 0.81646 0.58141 0.0
C1230 C 0.79099 0.71414 0.66292 0.0
C1231 C 0.78083 0.72665 0.65588 0.0
C1232 C 0.77149 0.74804 0.61379 0.0
C1233 C 0.75294 0.79378 0.60683 0.0
C1234 C 0.76032 0.77843 0.61589 0.0
C1235 C 0.78899 0.73955 0.64073 0.0
C1236 C 0.77782 0.75188 0.6325 0.0
H1237 H 0.72258 0.82213 0.61375 0.0
H1238 H 0.73302 0.79544 0.62823 0.0
H1239 H 0.7579 0.75752 0.59113 0.0
H1240 H 0.83257 0.72913 0.63393 0.0
H1241 H 0.81462 0.75047 0.62158 0.0
C1242 C 0.08073 0.84477 0.59052 0.0
C1243 C 0.09016 0.83312 0.58072 0.0
C1244 C 0.05998 0.83162 0.59796 0.0
C1245 C 0.02051 0.77125 0.61143 0.0
H1246 H 0.9777 0.79459 0.61119 0.0
C1247 C 0.92862 0.71594 0.63241 0.0
C1248 C 0.9214 0.72817 0.64404 0.0
C1249 C 0.94911 0.72846 0.62446 0.0
C1250 C 0.98958 0.78797 0.61148 0.0
H1251 H 0.0851 0.79843 0.57107 0.0
H1252 H 0.04848 0.77544 0.58356 0.0
H1253 H 0.01346 0.81673 0.59737 0.0
H1254 H 0.92964 0.76293 0.65647 0.0
H1255 H 0.96547 0.78492 0.64246 0.0
H1256 H 0.99637 0.7423 0.62535 0.0
C1257 C 0.05737 0.79478 0.58578 0.0
C1258 C 0.01009 0.80066 0.6036 0.0
C1259 C 0.07823 0.80796 0.57842 0.0
C1260 C 0.93488 0.75312 0.64754 0.0
C1261 C 0.95528 0.76568 0.63946 0.0
C1262 C -0.0001 0.75846 0.61918 0.0
C1263 C 0.04801 0.80646 0.59565 0.0
C1264 C 0.02589 0.79255 0.60359 0.0
C1265 C 0.96262 0.75346 0.62787 0.0
C1266 C 0.9843 0.76678 0.61937 0.0
H1267 H 0.08926 0.86413 0.59232 0.0
H1268 H 0.05345 0.84121 0.60568 0.0
H1269 H 0.03242 0.76468 0.61191 0.0
H1270 H 0.91845 0.69669 0.62946 0.0
H1271 H 0.95425 0.71863 0.61544 0.0
C1272 C 0.15861 0.25232 0.59224 0.0
C1273 C 0.15627 0.25306 0.57337 0.0
C1274 C 0.1727 0.24447 0.59993 0.0
C1275 C 0.22227 0.23806 0.59279 0.0
H1276 H 0.1974 0.18917 0.62635 0.0
C1277 C 0.27346 0.19563 0.62151 0.0
C1278 C 0.27128 0.19031 0.63962 0.0
C1279 C 0.25912 0.20256 0.61283 0.0
C1280 C 0.20477 0.20307 0.61722 0.0
H1281 H 0.16709 0.24607 0.54785 0.0
H1282 H 0.1923 0.23318 0.56143 0.0
H1283 H 0.17351 0.20359 0.61274 0.0
H1284 H 0.2527 0.18815 0.66295 0.0
H1285 H 0.22827 0.20103 0.64812 0.0
H1286 H 0.25374 0.2382 0.59762 0.0
C1287 C 0.18312 0.23866 0.57018 0.0
C1288 C 0.19102 0.21124 0.60938 0.0
C1289 C 0.16875 0.24617 0.56244 0.0
C1290 C 0.25459 0.19199 0.64891 0.0
C1291 C 0.24048 0.19922 0.64035 0.0
C1292 C 0.23616 0.23015 0.60083 0.0
C1293 C 0.18504 0.23753 0.58897 0.0
C1294 C 0.19965 0.22883 0.59713 0.0
C1295 C 0.24253 0.2046 0.62218 0.0
C1296 C 0.22761 0.21259 0.6132 0.0
H1297 H 0.14964 0.25793 0.60111 0.0
H1298 H 0.17414 0.24404 0.6145 0.0
H1299 H 0.22936 0.25178 0.58348 0.0
H1300 H 0.28618 0.19435 0.61404 0.0
H1301 H 0.26096 0.20615 0.59876 0.0
C1302 C 0.76389 0.9166 0.60066 0.0
C1303 C 0.74127 0.90193 0.59309 0.0
C1304 C 0.77128 0.93976 0.60829 0.0
C1305 C 0.75552 0.98725 0.60811 0.0
H1306 H 0.80359 0.01715 0.64764 0.0
C1307 C 0.78389 0.07912 0.64718 0.0
C1308 C 0.80747 0.09562 0.64836 0.0
C1309 C 0.77538 0.05535 0.64048 0.0
C1310 C 0.79023 0.00899 0.63654 0.0
H1311 H 0.70833 0.89938 0.58809 0.0
H1312 H 0.72082 0.93946 0.6022 0.0
H1313 H 0.78859 0.97521 0.63711 0.0
H1314 H 0.84065 0.10026 0.64344 0.0
H1315 H 0.82573 0.05838 0.63214 0.0
H1316 H 0.75681 0.02105 0.60809 0.0
C1317 C 0.73317 0.93351 0.60173 0.0
C1318 C 0.78167 0.985 0.63043 0.0
C1319 C 0.72591 0.91048 0.59379 0.0
C1320 C 0.82239 0.08793 0.64264 0.0
C1321 C 0.81391 0.06401 0.63628 0.0
C1322 C 0.7638 0.01111 0.61448 0.0
C1323 C 0.75608 0.94865 0.60878 0.0
C1324 C 0.76435 0.97385 0.61599 0.0
C1325 C 0.79034 0.04755 0.63516 0.0
C1326 C 0.78136 0.02222 0.62862 0.0
H1327 H 0.77614 0.9105 0.60002 0.0
H1328 H 0.78912 0.95092 0.61323 0.0
H1329 H 0.74255 0.97954 0.59674 0.0
H1330 H 0.77197 0.08459 0.65138 0.0
H1331 H 0.75714 0.04293 0.63976 0.0
C1332 C 0.51391 0.41346 0.7445 0.0
C1333 C 0.50633 0.42884 0.75095 0.0
C1334 C 0.49834 0.39076 0.73607 0.0
C1335 C 0.43634 0.34558 0.73189 0.0
H1336 H 0.45373 0.31502 0.69461 0.0
C1337 C 0.37317 0.25511 0.69123 0.0
C1338 C 0.37992 0.23779 0.69126 0.0
C1339 C 0.38849 0.2788 0.69786 0.0
C1340 C 0.44873 0.32337 0.70506 0.0
H1341 H 0.47684 0.43315 0.75311 0.0
H1342 H 0.44962 0.3939 0.73764 0.0
H1343 H 0.48042 0.35637 0.70642 0.0
H1344 H 0.40804 0.2317 0.69804 0.0
H1345 H 0.43505 0.2734 0.70926 0.0
H1346 H 0.40436 0.31262 0.73004 0.0
C1347 C 0.46746 0.39893 0.73961 0.0
C1348 C 0.46402 0.34701 0.71191 0.0
C1349 C 0.48302 0.42148 0.74833 0.0
C1350 C 0.40236 0.24466 0.69789 0.0
C1351 C 0.41783 0.26848 0.70421 0.0
C1352 C 0.42093 0.32211 0.72479 0.0
C1353 C 0.47485 0.38308 0.73364 0.0
C1354 C 0.45813 0.35836 0.72557 0.0
C1355 C 0.41095 0.28569 0.70434 0.0
C1356 C 0.42708 0.31075 0.71146 0.0
H1357 H 0.5318 0.41865 0.74659 0.0
H1358 H 0.5047 0.379 0.732 0.0
H1359 H 0.4313 0.35345 0.74264 0.0
H1360 H 0.35593 0.25032 0.6863 0.0
H1361 H 0.38285 0.29181 0.69779 0.0
C1362 C 0.5841 0.0679 0.74786 0.0
C1363 C 0.58302 0.07301 0.76626 0.0
C1364 C 0.60521 0.07614 0.74085 0.0
C1365 C 0.66713 0.10104 0.75438 0.0
H1366 H 0.67315 0.12233 0.70612 0.0
C1367 C 0.74685 0.12446 0.71638 0.0
C1368 C 0.75383 0.14277 0.70474 0.0
C1369 C 0.7266 0.1167 0.72468 0.0
C1370 C 0.67191 0.11678 0.71971 0.0
H1371 H 0.60304 0.09069 0.79181 0.0
H1372 H 0.63996 0.10564 0.77955 0.0
H1373 H 0.63685 0.1074 0.71904 0.0
H1374 H 0.74583 0.16803 0.69315 0.0
H1375 H 0.71085 0.1551 0.70808 0.0
H1376 H 0.70248 0.1113 0.75529 0.0
C1377 C 0.62456 0.09478 0.77056 0.0
C1378 C 0.65092 0.1078 0.72702 0.0
C1379 C 0.60342 0.08628 0.7776 0.0
C1380 C 0.74067 0.15373 0.70197 0.0
C1381 C 0.72055 0.14617 0.71042 0.0
C1382 C 0.68822 0.11026 0.74713 0.0
C1383 C 0.62573 0.08996 0.75206 0.0
C1384 C 0.6482 0.09967 0.7444 0.0
C1385 C 0.71305 0.12729 0.72165 0.0
C1386 C 0.69085 0.11815 0.72967 0.0
H1387 H 0.56858 0.05748 0.73888 0.0
H1388 H 0.60541 0.07162 0.72664 0.0
H1389 H 0.66564 0.09473 0.76773 0.0
H1390 H 0.75673 0.11571 0.71871 0.0
H1391 H 0.72126 0.10193 0.73304 0.0
C1392 C 0.90093 0.49795 0.73878 0.0
C1393 C 0.92301 0.5076 0.74754 0.0
C1394 C 0.89458 0.51253 0.7299 0.0
C1395 C 0.91096 0.57619 0.72793 0.0
H1396 H 0.86864 0.55106 0.68452 0.0
C1397 C 0.88521 0.63452 0.68773 0.0
C1398 C 0.86151 0.62487 0.684 0.0
C1399 C 0.89385 0.62038 0.69411 0.0
C1400 C 0.88043 0.55827 0.69666 0.0
H1401 H 0.95596 0.53988 0.75352 0.0
H1402 H 0.94512 0.56532 0.73761 0.0
H1403 H 0.88207 0.52623 0.69811 0.0
H1404 H 0.82839 0.59259 0.68344 0.0
H1405 H 0.84356 0.56788 0.69438 0.0
H1406 H 0.90939 0.60831 0.7263 0.0
C1407 C 0.93248 0.54661 0.73797 0.0
C1408 C 0.88806 0.54404 0.70451 0.0
C1409 C 0.93874 0.53206 0.74703 0.0
C1410 C 0.84672 0.6006 0.68626 0.0
C1411 C 0.85539 0.5864 0.69242 0.0
C1412 C 0.90353 0.5905 0.71994 0.0
C1413 C 0.91025 0.53707 0.72939 0.0
C1414 C 0.90319 0.5527 0.72039 0.0
C1415 C 0.87901 0.59624 0.69664 0.0
C1416 C 0.88798 0.58157 0.70437 0.0
H1417 H 0.88837 0.47921 0.73918 0.0
H1418 H 0.87719 0.50462 0.72378 0.0
H1419 H 0.92229 0.58335 0.7403 0.0
H1420 H 0.89708 0.65315 0.68615 0.0
H1421 H 0.91215 0.62834 0.69714 0.0
C1422 C 0.49079 0.98616 0.19401 0.0
C1423 C 0.47081 0.96397 0.19452 0.0
C1424 C 0.49554 0.99759 0.17802 0.0
C1425 C 0.46905 0.99482 0.13166 0.0
H1426 H 0.53167 0.02409 0.11916 0.0
C1427 C 0.49767 0.9964 0.06023 0.0
C1428 C 0.51097 0.01901 0.05399 0.0
C1429 C 0.49254 0.99435 0.07818 0.0
C1430 C 0.51421 0.01638 0.12266 0.0
H1431 H 0.44016 0.93624 0.17887 0.0
H1432 H 0.44872 0.95551 0.15086 0.0
H1433 H 0.52296 0.01146 0.14953 0.0
H1434 H 0.53009 0.05722 0.06173 0.0
H1435 H 0.52188 0.05348 0.0937 0.0
H1436 H 0.46027 0.99805 0.10417 0.0
C1437 C 0.46042 0.9647 0.16285 0.0
C1438 C 0.50916 0.00919 0.14005 0.0
C1439 C 0.45554 0.95351 0.17887 0.0
C1440 C 0.51959 0.0396 0.06619 0.0
C1441 C 0.5149 0.0375 0.08437 0.0
C1442 C 0.47407 0.0016 0.1142 0.0
C1443 C 0.48055 0.98683 0.16215 0.0
C1444 C 0.4864 0.99768 0.14462 0.0
C1445 C 0.50119 0.01484 0.09038 0.0
C1446 C 0.4966 0.01193 0.1095 0.0
H1447 H 0.50272 0.99466 0.20598 0.0
H1448 H 0.51101 0.01476 0.17809 0.0
H1449 H 0.45144 0.98663 0.13479 0.0
H1450 H 0.49158 0.98019 0.05135 0.0
H1451 H 0.48231 0.97669 0.08268 0.0
C1452 C 0.04023 0.49516 0.1893 0.0
C1453 C 0.05466 0.5184 0.19775 0.0
C1454 C 0.03289 0.49161 0.17082 0.0
C1455 C 0.0463 0.52329 0.1287 0.0
H1456 H 0.98457 0.47401 0.11107 0.0
C1457 C 0.0008 0.52301 0.06089 0.0
C1458 C 0.99229 0.50216 0.04908 0.0
C1459 C 0.00861 0.52351 0.07878 0.0
C1460 C 0.0019 0.4877 0.11585 0.0
H1461 H 0.07299 0.55609 0.19316 0.0
H1462 H 0.05919 0.55006 0.16156 0.0
H1463 H 0.99787 0.47771 0.14299 0.0
H1464 H 0.98461 0.46533 0.04657 0.0
H1465 H 0.99777 0.466 0.07821 0.0
H1466 H 0.04982 0.53391 0.10167 0.0
C1467 C 0.05394 0.53444 0.16896 0.0
C1468 C 0.0096 0.48978 0.13408 0.0
C1469 C 0.06152 0.53794 0.18728 0.0
C1470 C 0.99124 0.48163 0.05548 0.0
C1471 C -0.00137 0.48198 0.0735 0.0
C1472 C 0.03845 0.52148 0.11061 0.0
C1473 C 0.03967 0.51124 0.16042 0.0
C1474 C 0.03182 0.50782 0.1408 0.0
C1475 C 0.00759 0.50301 0.08521 0.0
C1476 C 0.01614 0.50385 0.10409 0.0
H1477 H 0.03444 0.47969 0.19695 0.0
H1478 H 0.02209 0.47347 0.16469 0.0
H1479 H 0.06371 0.53696 0.1332 0.0
H1480 H 0.00186 0.53909 0.0562 0.0
H1481 H 0.01536 0.53988 0.08764 0.0
C1482 C 0.45515 0.51317 0.1783 0.0
C1483 C 0.46994 0.51626 0.19347 0.0
C1484 C 0.46044 0.50975 0.16088 0.0
C1485 C 0.50949 0.51833 0.13559 0.0
H1486 H 0.46128 0.48069 0.09727 0.0
C1487 C 0.52736 0.52234 0.06056 0.0
C1488 C 0.51447 0.50164 0.04865 0.0
C1489 C 0.522 0.52285 0.07842 0.0
C1490 C 0.47503 0.49098 0.10782 0.0
H1491 H 0.50144 0.5175 0.20254 0.0
H1492 H 0.51033 0.51048 0.17216 0.0
H1493 H 0.4516 0.48243 0.12809 0.0
H1494 H 0.48644 0.46505 0.04593 0.0
H1495 H 0.47752 0.46549 0.07732 0.0
H1496 H 0.53299 0.52602 0.11547 0.0
C1497 C 0.49499 0.51147 0.17358 0.0
C1498 C 0.46943 0.49231 0.12551 0.0
C1499 C 0.48987 0.51532 0.19099 0.0
C1500 C 0.49647 0.48128 0.0549 0.0
C1501 C 0.49131 0.48164 0.07284 0.0
C1502 C 0.51512 0.51667 0.11796 0.0
C1503 C 0.48049 0.50895 0.15825 0.0
C1504 C 0.48655 0.50628 0.1396 0.0
C1505 C 0.50389 0.5025 0.08482 0.0
C1506 C 0.49795 0.50325 0.10378 0.0
H1507 H 0.43982 0.51414 0.17988 0.0
H1508 H 0.44908 0.5084 0.14948 0.0
H1509 H 0.52317 0.52952 0.14597 0.0
H1510 H 0.54119 0.53835 0.05594 0.0
H1511 H 0.53179 0.5394 0.08707 0.0
C1512 C 0.94326 0.49525 0.81714 0.0
C1513 C 0.95542 0.49171 0.8038 0.0
C1514 C 0.95121 0.49874 0.83544 0.0
C1515 C 0.98977 0.48775 0.86584 0.0
H1516 H 0.97603 0.52331 0.90176 0.0
C1517 C -0.00019 0.47797 0.94163 0.0
C1518 C 0.00695 0.49804 0.954 0.0
C1519 C 0.99428 0.47871 0.92339 0.0
C1520 C 0.98033 0.51357 0.89192 0.0
H1521 H 0.98588 0.49029 0.79874 0.0
H1522 H 0.00056 0.4977 0.83057 0.0
H1523 H 0.96681 0.52404 0.86978 0.0
H1524 H 0.01422 0.53468 0.95723 0.0
H1525 H 0.00542 0.53643 0.9252 0.0
H1526 H 0.00419 0.47812 0.88782 0.0
C1527 C 0.98441 0.49684 0.82713 0.0
C1528 C 0.9747 0.51369 0.87353 0.0
C1529 C 0.97619 0.49285 0.80889 0.0
C1530 C 0.00858 0.51893 0.94789 0.0
C1531 C 0.0034 0.51983 0.92957 0.0
C1532 C 0.99573 0.48796 0.88415 0.0
C1533 C 0.97171 0.49916 0.84071 0.0
C1534 C 0.97908 0.50052 0.86024 0.0
C1535 C 0.99621 0.49973 0.91705 0.0
C1536 C 0.99078 0.50056 0.89748 0.0
H1537 H 0.92705 0.49418 0.81347 0.0
H1538 H 0.94074 0.50009 0.84543 0.0
H1539 H 0.99312 0.47704 0.85613 0.0
H1540 H 0.99816 0.46156 0.94611 0.0
H1541 H 0.98824 0.46266 0.91432 0.0
C1542 C 0.53867 0.5043 0.81732 0.0
C1543 C 0.53122 0.48121 0.80906 0.0
C1544 C 0.53481 0.50756 0.83532 0.0
C1545 C 0.51833 0.47551 0.87725 0.0
H1546 H 0.50346 0.52438 0.89137 0.0
C1547 C 0.47555 0.4765 0.94214 0.0
C1548 C 0.48745 0.49769 0.95372 0.0
C1549 C 0.48188 0.4756 0.92465 0.0
C1550 C 0.50773 0.51077 0.88758 0.0
H1551 H 0.5144 0.44353 0.81362 0.0
H1552 H 0.50646 0.44901 0.84428 0.0
H1553 H 0.51289 0.52073 0.86049 0.0
H1554 H 0.51465 0.53473 0.95613 0.0
H1555 H 0.52535 0.53334 0.9252 0.0
H1556 H 0.51212 0.46498 0.90419 0.0
C1557 C 0.5158 0.46476 0.83713 0.0
C1558 C 0.51328 0.50874 0.86994 0.0
C1559 C 0.51997 0.46155 0.81931 0.0
C1560 C 0.50533 0.51817 0.9474 0.0
C1561 C 0.51137 0.51741 0.92977 0.0
C1562 C 0.51235 0.47726 0.89473 0.0
C1563 C 0.52321 0.48779 0.84544 0.0
C1564 C 0.51847 0.49092 0.86448 0.0
C1565 C 0.49987 0.49602 0.91835 0.0
C1566 C 0.50686 0.49478 0.89999 0.0
H1567 H 0.54725 0.51987 0.80983 0.0
H1568 H 0.54105 0.52561 0.84129 0.0
H1569 H 0.52282 0.462 0.87378 0.0
H1570 H 0.46178 0.46045 0.94679 0.0
H1571 H 0.47272 0.45895 0.91601 0.0
C1572 C 0.51718 0.04056 0.82648 0.0
C1573 C 0.52921 0.03528 0.81386 0.0
C1574 C 0.51239 0.0297 0.84265 0.0
C1575 C 0.53462 0.00728 0.87626 0.0
H1576 H 0.47361 0.97732 0.89238 0.0
C1577 C 0.48557 0.9626 0.94319 0.0
C1578 C 0.4975 0.98252 0.95604 0.0
C1579 C 0.4898 0.96479 0.92494 0.0
C1580 C 0.49066 0.98529 0.88794 0.0
H1581 H 0.54532 0.01402 0.80848 0.0
H1582 H 0.53789 0.99604 0.83729 0.0
H1583 H 0.47938 0.98916 0.86143 0.0
H1584 H 0.52344 0.02012 0.96003 0.0
H1585 H 0.53149 0.02364 0.92841 0.0
H1586 H 0.54609 0.00479 0.90314 0.0
C1587 C 0.53198 0.00839 0.83435 0.0
C1588 C 0.49396 0.99218 0.87033 0.0
C1589 C 0.53637 0.01887 0.81795 0.0
C1590 C 0.51428 0.00436 0.95049 0.0
C1591 C 0.51888 0.0064 0.9324 0.0
C1592 C 0.53138 0.00083 0.89399 0.0
C1593 C 0.51991 0.0137 0.84678 0.0
C1594 C 0.51602 0.00363 0.86449 0.0
C1595 C 0.50639 0.98678 0.91942 0.0
C1596 C 0.50943 0.99019 0.90005 0.0
H1597 H 0.51187 0.05351 0.82411 0.0
H1598 H 0.50338 0.03436 0.85221 0.0
H1599 H 0.55179 0.01622 0.87205 0.0
H1600 H 0.47247 0.94559 0.94713 0.0
H1601 H 0.47992 0.94947 0.91511 0.0
C1602 C 0.16039 0.31167 0.52371 0.0
C1603 C 0.13756 0.29423 0.52551 0.0
C1604 C 0.16658 0.32233 0.50753 0.0
C1605 C 0.14702 0.3369 0.46626 0.0
H1606 H 0.18985 0.32353 0.44301 0.0
C1607 C 0.16141 0.34891 0.3906 0.0
C1608 C 0.18238 0.3533 0.38478 0.0
C1609 C 0.15694 0.34489 0.40863 0.0
C1610 C 0.17832 0.32804 0.44939 0.0
H1611 H 0.1032 0.27524 0.51179 0.0
H1612 H 0.11403 0.2947 0.48384 0.0
H1613 H 0.18039 0.31188 0.47331 0.0
H1614 H 0.21602 0.35931 0.39346 0.0
H1615 H 0.20896 0.35396 0.42508 0.0
H1616 H 0.14526 0.3536 0.44261 0.0
C1617 C 0.12705 0.29982 0.495 0.0
C1618 C 0.17281 0.32117 0.46674 0.0
C1619 C 0.12088 0.28878 0.51106 0.0
C1620 C 0.1995 0.35547 0.39753 0.0
C1621 C 0.1953 0.35209 0.41564 0.0
C1622 C 0.15292 0.34431 0.44902 0.0
C1623 C 0.15001 0.31621 0.49297 0.0
C1624 C 0.15692 0.32527 0.47521 0.0
C1625 C 0.17371 0.34598 0.42136 0.0
C1626 C 0.16845 0.33969 0.44023 0.0
H1627 H 0.17361 0.3168 0.53469 0.0
H1628 H 0.18439 0.33509 0.50627 0.0
H1629 H 0.13476 0.34029 0.47263 0.0
H1630 H 0.14839 0.34832 0.38117 0.0
H1631 H 0.1401 0.34024 0.41237 0.0
C1632 C 0.70007 0.82654 0.52613 0.0
C1633 C 0.71468 0.84957 0.53488 0.0
C1634 C 0.69395 0.82335 0.50745 0.0
C1635 C 0.71103 0.85528 0.46557 0.0
H1636 H 0.6499 0.80678 0.4459 0.0
C1637 C 0.66973 0.85545 0.39568 0.0
C1638 C 0.66078 0.83429 0.38414 0.0
C1639 C 0.67704 0.85606 0.41374 0.0
C1640 C 0.66709 0.82023 0.45124 0.0
H1641 H 0.73453 0.88727 0.53058 0.0
H1642 H 0.72277 0.8819 0.49855 0.0
H1643 H 0.66097 0.81036 0.47827 0.0
H1644 H 0.65213 0.79714 0.38224 0.0
H1645 H 0.66432 0.79802 0.4142 0.0
H1646 H 0.7166 0.86582 0.43858 0.0
C1647 C 0.71648 0.86614 0.50592 0.0
C1648 C 0.67351 0.82225 0.46976 0.0
C1649 C 0.72288 0.86929 0.52447 0.0
C1650 C 0.65905 0.81367 0.39094 0.0
C1651 C 0.66591 0.81414 0.40914 0.0
C1652 C 0.70445 0.85353 0.44716 0.0
C1653 C 0.70208 0.84313 0.49709 0.0
C1654 C 0.69551 0.84 0.47722 0.0
C1655 C 0.67506 0.83539 0.42064 0.0
C1656 C 0.68238 0.83614 0.43988 0.0
H1657 H 0.69322 0.81093 0.53369 0.0
H1658 H 0.68303 0.80532 0.50115 0.0
H1659 H 0.72831 0.86873 0.47066 0.0
H1660 H 0.67138 0.87162 0.39068 0.0
H1661 H 0.68395 0.87261 0.4224 0.0
C1662 C 0.15831 0.84591 0.52576 0.0
C1663 C 0.13909 0.84781 0.52914 0.0
C1664 C 0.16233 0.84183 0.50803 0.0
C1665 C 0.1355 0.82484 0.46028 0.0
H1666 H 0.19879 0.85844 0.44949 0.0
C1667 C 0.16177 0.81556 0.38883 0.0
C1668 C 0.17991 0.83604 0.38281 0.0
C1669 C 0.15651 0.81556 0.40677 0.0
C1670 C 0.18099 0.84913 0.45218 0.0
H1671 H 0.10881 0.84669 0.51689 0.0
H1672 H 0.11618 0.8405 0.48584 0.0
H1673 H 0.18968 0.86087 0.48033 0.0
H1674 H 0.20666 0.87263 0.39049 0.0
H1675 H 0.19714 0.87303 0.42164 0.0
H1676 H 0.12678 0.81429 0.43188 0.0
C1677 C 0.12786 0.84139 0.4968 0.0
C1678 C 0.17576 0.85016 0.47 0.0
C1679 C 0.12364 0.84504 0.51457 0.0
C1680 C 0.19274 0.85653 0.39492 0.0
C1681 C 0.18731 0.85667 0.41279 0.0
C1682 C 0.14072 0.82411 0.44237 0.0
C1683 C 0.14745 0.84007 0.49327 0.0
C1684 C 0.15294 0.83809 0.47432 0.0
C1685 C 0.16918 0.83615 0.41899 0.0
C1686 C 0.16355 0.83635 0.43808 0.0
H1687 H 0.17034 0.84779 0.53684 0.0
H1688 H 0.17726 0.84031 0.50592 0.0
H1689 H 0.11775 0.81504 0.46307 0.0
H1690 H 0.15179 0.79948 0.3797 0.0
H1691 H 0.14269 0.79931 0.41109 0.0
C1692 C 0.61087 0.82548 0.15185 0.0
C1693 C 0.62318 0.82233 0.13844 0.0
C1694 C 0.6189 0.82899 0.17013 0.0
C1695 C 0.65828 0.81897 0.20041 0.0
H1696 H 0.64353 0.85352 0.23642 0.0
C1697 C 0.66802 0.80867 0.27616 0.0
C1698 C 0.67451 0.82844 0.28868 0.0
C1699 C 0.66277 0.80958 0.25789 0.0
C1700 C 0.64812 0.84407 0.22656 0.0
H1701 H 0.65395 0.82162 0.13326 0.0
H1702 H 0.66872 0.82905 0.16507 0.0
H1703 H 0.63421 0.85422 0.20448 0.0
H1704 H 0.68102 0.86481 0.2921 0.0
H1705 H 0.67269 0.86687 0.26004 0.0
H1706 H 0.67309 0.8097 0.22236 0.0
C1707 C 0.65242 0.82787 0.16169 0.0
C1708 C 0.64243 0.84417 0.20818 0.0
C1709 C 0.64414 0.82385 0.14346 0.0
C1710 C 0.67586 0.84925 0.28266 0.0
C1711 C 0.67095 0.85034 0.26431 0.0
C1712 C 0.66431 0.81923 0.21872 0.0
C1713 C 0.63962 0.82984 0.17533 0.0
C1714 C 0.64714 0.83132 0.19485 0.0
C1715 C 0.66433 0.83049 0.25166 0.0
C1716 C 0.65898 0.83143 0.23209 0.0
H1717 H 0.59452 0.82412 0.14824 0.0
H1718 H 0.60833 0.83005 0.18016 0.0
H1719 H 0.66191 0.80854 0.19067 0.0
H1720 H 0.66664 0.79232 0.28055 0.0
H1721 H 0.65719 0.79372 0.24871 0.0
C1722 C 0.18543 0.79392 0.1525 0.0
C1723 C 0.19652 0.81351 0.14215 0.0
C1724 C 0.18142 0.79724 0.17034 0.0
C1725 C 0.17922 0.84133 0.20325 0.0
H1726 H 0.17903 0.798 0.2375 0.0
C1727 C 0.1721 0.85096 0.28088 0.0
C1728 C 0.15422 0.83047 0.28718 0.0
C1729 C 0.17813 0.85021 0.26324 0.0
C1730 C 0.179 0.81017 0.22804 0.0
H1731 H 0.21229 0.85213 0.14273 0.0
H1732 H 0.20637 0.85806 0.17423 0.0
H1733 H 0.18921 0.79487 0.20692 0.0
H1734 H 0.12861 0.79322 0.28025 0.0
H1735 H 0.13954 0.79173 0.24949 0.0
H1736 H 0.16965 0.857 0.22484 0.0
C1737 C 0.20016 0.83999 0.16833 0.0
C1738 C 0.18467 0.80833 0.21047 0.0
C1739 C 0.20386 0.83662 0.1503 0.0
C1740 C 0.14238 0.80926 0.27562 0.0
C1741 C 0.1487 0.80838 0.25813 0.0
C1742 C 0.17398 0.84346 0.22098 0.0
C1743 C 0.18882 0.82031 0.17858 0.0
C1744 C 0.18443 0.82356 0.1977 0.0
C1745 C 0.16663 0.82883 0.25181 0.0
C1746 C 0.17346 0.82762 0.2334 0.0
H1747 H 0.17994 0.77588 0.14689 0.0
H1748 H 0.17226 0.78155 0.1776 0.0
H1749 H 0.17855 0.85319 0.1938 0.0
H1750 H 0.18138 0.86753 0.28959 0.0
H1751 H 0.19206 0.86616 0.25865 0.0
C1752 C 0.19415 0.39708 0.16583 0.0
C1753 C 0.2043 0.38883 0.1535 0.0
C1754 C 0.18937 0.38811 0.18269 0.0
C1755 C 0.18249 0.33716 0.20798 0.0
H1756 H 0.18415 0.37816 0.24881 0.0
C1757 C 0.17163 0.31417 0.28337 0.0
C1758 C 0.15357 0.31583 0.29034 0.0
C1759 C 0.17867 0.32221 0.26649 0.0
C1760 C 0.18365 0.36658 0.23749 0.0
H1761 H 0.21767 0.36479 0.1495 0.0
H1762 H 0.21048 0.3501 0.17933 0.0
H1763 H 0.19643 0.39483 0.22012 0.0
H1764 H 0.12843 0.32674 0.28527 0.0
H1765 H 0.14116 0.34141 0.25595 0.0
H1766 H 0.17031 0.30912 0.22585 0.0
C1767 C 0.20558 0.36302 0.17573 0.0
C1768 C 0.1905 0.37601 0.221 0.0
C1769 C 0.21002 0.37173 0.15868 0.0
C1770 C 0.14231 0.32515 0.28009 0.0
C1771 C 0.14966 0.33367 0.26344 0.0
C1772 C 0.17609 0.32786 0.22464 0.0
C1773 C 0.19505 0.371 0.18792 0.0
C1774 C 0.18955 0.36132 0.20589 0.0
C1775 C 0.16797 0.3324 0.25659 0.0
C1776 C 0.17623 0.34242 0.23937 0.0
H1777 H 0.18991 0.41059 0.16252 0.0
H1778 H 0.18088 0.39443 0.1915 0.0
H1779 H 0.18123 0.32519 0.19665 0.0
H1780 H 0.18044 0.30692 0.29107 0.0
H1781 H 0.19287 0.32115 0.26141 0.0
C1782 C 0.82434 0.65143 0.85658 0.0
C1783 C 0.80275 0.6311 0.85745 0.0
C1784 C 0.82964 0.66343 0.84089 0.0
C1785 C 0.80389 0.6701 0.7978 0.0
H1786 H 0.86136 0.68338 0.77979 0.0
C1787 C 0.81996 0.67806 0.72262 0.0
C1788 C 0.84211 0.69326 0.71801 0.0
C1789 C 0.81559 0.67543 0.74076 0.0
C1790 C 0.84546 0.68031 0.78476 0.0
H1791 H 0.76968 0.60762 0.84259 0.0
H1792 H 0.77889 0.62854 0.81526 0.0
H1793 H 0.85295 0.66953 0.80974 0.0
H1794 H 0.87683 0.71927 0.72848 0.0
H1795 H 0.86925 0.71505 0.76033 0.0
H1796 H 0.79616 0.68026 0.77257 0.0
C1797 C 0.79163 0.63544 0.8268 0.0
C1798 C 0.84063 0.67232 0.80194 0.0
C1799 C 0.78636 0.62343 0.84246 0.0
C1800 C 0.85961 0.70719 0.73176 0.0
C1801 C 0.85529 0.70463 0.74995 0.0
C1802 C 0.80875 0.67814 0.78061 0.0
C1803 C 0.81342 0.65538 0.82575 0.0
C1804 C 0.81958 0.66661 0.80848 0.0
C1805 C 0.83336 0.68819 0.75464 0.0
C1806 C 0.82938 0.68281 0.77374 0.0
H1807 H 0.83721 0.65799 0.86802 0.0
H1808 H 0.84648 0.67892 0.84056 0.0
H1809 H 0.78768 0.6662 0.8026 0.0
H1810 H 0.80607 0.66808 0.7122 0.0
H1811 H 0.79849 0.66263 0.74384 0.0
C1812 C 0.38958 0.20155 0.86062 0.0
C1813 C 0.38193 0.18158 0.87073 0.0
C1814 C 0.38286 0.19873 0.84215 0.0
C1815 C 0.33973 0.15514 0.80597 0.0
H1816 H 0.38158 0.20023 0.77489 0.0
C1817 C 0.32466 0.14815 0.72723 0.0
C1818 C 0.32597 0.16872 0.7207 0.0
C1819 C 0.33145 0.14838 0.7454 0.0
C1820 C 0.36976 0.18754 0.78345 0.0
H1821 H 0.36126 0.14284 0.86908 0.0
H1822 H 0.3505 0.13782 0.83663 0.0
H1823 H 0.39402 0.20256 0.80671 0.0
H1824 H 0.33548 0.20565 0.72772 0.0
H1825 H 0.34793 0.20624 0.75943 0.0
H1826 H 0.31576 0.13982 0.7823 0.0
C1827 C 0.3612 0.15577 0.84314 0.0
C1828 C 0.37677 0.18894 0.80171 0.0
C1829 C 0.36764 0.15863 0.86174 0.0
C1830 C 0.33422 0.18954 0.73251 0.0
C1831 C 0.34144 0.18992 0.75056 0.0
C1832 C 0.3329 0.15347 0.78758 0.0
C1833 C 0.3687 0.17581 0.8331 0.0
C1834 C 0.36171 0.17307 0.81333 0.0
C1835 C 0.34007 0.16934 0.75715 0.0
C1836 C 0.34773 0.16993 0.77627 0.0
H1837 H 0.401 0.21949 0.8669 0.0
H1838 H 0.38868 0.21466 0.83504 0.0
H1839 H 0.32754 0.14279 0.81447 0.0
H1840 H 0.31823 0.13186 0.71833 0.0
H1841 H 0.33032 0.13233 0.75022 0.0
C1842 C 0.78977 0.17521 0.84754 0.0
C1843 C 0.80501 0.1781 0.8623 0.0
C1844 C 0.79428 0.17145 0.82989 0.0
C1845 C 0.84276 0.18012 0.80385 0.0
H1846 H 0.79443 0.14477 0.76519 0.0
C1847 C 0.861 0.18727 0.72897 0.0
C1848 C 0.84796 0.16708 0.71663 0.0
C1849 C 0.85552 0.18713 0.74685 0.0
C1850 C 0.8082 0.15443 0.77583 0.0
H1851 H 0.83615 0.17812 0.87052 0.0
H1852 H 0.84354 0.17034 0.83982 0.0
H1853 H 0.78478 0.14529 0.79619 0.0
H1854 H 0.81955 0.13069 0.71314 0.0
H1855 H 0.81039 0.12998 0.74453 0.0
H1856 H 0.86624 0.18844 0.78366 0.0
C1857 C 0.82856 0.17188 0.84166 0.0
C1858 C 0.80262 0.15504 0.79363 0.0
C1859 C 0.82427 0.17611 0.85926 0.0
C1860 C 0.82967 0.14656 0.72245 0.0
C1861 C 0.82438 0.14625 0.7404 0.0
C1862 C 0.84835 0.17919 0.78612 0.0
C1863 C 0.81395 0.1701 0.82669 0.0
C1864 C 0.81982 0.16813 0.80786 0.0
C1865 C 0.83713 0.16661 0.75281 0.0
C1866 C 0.83115 0.16661 0.77183 0.0
H1867 H 0.77492 0.17692 0.84962 0.0
H1868 H 0.78278 0.17053 0.81877 0.0
H1869 H 0.85652 0.19073 0.81432 0.0
H1870 H 0.87504 0.2034 0.72469 0.0
H1871 H 0.86544 0.20332 0.75586 0.0
C1872 C 0.30799 0.15395 0.47998 0.0
C1873 C 0.28749 0.15342 0.47493 0.0
C1874 C 0.31627 0.15788 0.49822 0.0
C1875 C 0.30752 0.1764 0.54444 0.0
H1876 H 0.33669 0.14082 0.55946 0.0
C1877 C 0.3419 0.18356 0.61896 0.0
C1878 C 0.3403 0.16287 0.62545 0.0
C1879 C 0.33662 0.18397 0.60055 0.0
C1880 C 0.32832 0.15067 0.55559 0.0
H1881 H 0.25958 0.1567 0.48471 0.0
H1882 H 0.27332 0.16248 0.5166 0.0
H1883 H 0.32521 0.13881 0.5277 0.0
H1884 H 0.33141 0.12622 0.61818 0.0
H1885 H 0.32125 0.12644 0.58628 0.0
H1886 H 0.3093 0.18697 0.57253 0.0
C1887 C 0.28357 0.16074 0.5066 0.0
C1888 C 0.32212 0.14991 0.53723 0.0
C1889 C 0.27558 0.1573 0.48833 0.0
C1890 C 0.33305 0.1425 0.6134 0.0
C1891 C 0.32739 0.14273 0.59509 0.0
C1892 C 0.31335 0.17681 0.56287 0.0
C1893 C 0.30391 0.16079 0.51183 0.0
C1894 C 0.31152 0.16266 0.53138 0.0
C1895 C 0.32931 0.16354 0.58835 0.0
C1896 C 0.3237 0.16381 0.5687 0.0
H1897 H 0.31752 0.15116 0.46981 0.0
H1898 H 0.33226 0.1584 0.50162 0.0
H1899 H 0.29976 0.1868 0.5405 0.0
H1900 H 0.34762 0.19955 0.62805 0.0
H1901 H 0.33864 0.20043 0.59589 0.0
C1902 C 0.85079 0.12555 0.4896 0.0
C1903 C 0.86211 0.14474 0.47894 0.0
C1904 C 0.84674 0.12952 0.50729 0.0
C1905 C 0.84468 0.17481 0.53889 0.0
H1906 H 0.84365 0.1324 0.57434 0.0
C1907 C 0.83758 0.18641 0.61643 0.0
C1908 C 0.81937 0.1663 0.62281 0.0
C1909 C 0.84344 0.18526 0.59879 0.0
C1910 C 0.84386 0.14432 0.56453 0.0
H1911 H 0.87837 0.18333 0.4788 0.0
H1912 H 0.87239 0.1904 0.51008 0.0
H1913 H 0.85423 0.12828 0.54409 0.0
H1914 H 0.79284 0.12935 0.61601 0.0
H1915 H 0.80347 0.12715 0.58523 0.0
H1916 H 0.83498 0.19125 0.55984 0.0
C1917 C 0.86601 0.17215 0.50451 0.0
C1918 C 0.84976 0.14191 0.54716 0.0
C1919 C 0.86974 0.16812 0.48663 0.0
C1920 C 0.80687 0.14512 0.6113 0.0
C1921 C 0.81301 0.14382 0.59381 0.0
C1922 C 0.83922 0.17751 0.55643 0.0
C1923 C 0.85436 0.15286 0.51506 0.0
C1924 C 0.84981 0.15679 0.53397 0.0
C1925 C 0.8314 0.16383 0.58747 0.0
C1926 C 0.83838 0.162 0.56925 0.0
H1927 H 0.84507 0.10733 0.48433 0.0
H1928 H 0.83735 0.11413 0.51479 0.0
H1929 H 0.84425 0.18642 0.52909 0.0
H1930 H 0.84736 0.20294 0.62512 0.0
H1931 H 0.85773 0.20086 0.59416 0.0
C1932 C 0.86465 0.71479 0.49555 0.0
C1933 C 0.86505 0.70209 0.4798 0.0
C1934 C 0.86226 0.7051 0.51216 0.0
C1935 C 0.83713 0.65263 0.5347 0.0
H1936 H 0.88542 0.68916 0.57326 0.0
C1937 C 0.82586 0.63105 0.60968 0.0
C1938 C 0.83302 0.65142 0.62181 0.0
C1939 C 0.832 0.63356 0.59184 0.0
C1940 C 0.87177 0.67872 0.56266 0.0
H1941 H 0.86288 0.66925 0.46882 0.0
H1942 H 0.85783 0.65177 0.49809 0.0
H1943 H 0.89111 0.70067 0.54237 0.0
H1944 H 0.85228 0.69024 0.62491 0.0
H1945 H 0.86271 0.69461 0.59419 0.0
H1946 H 0.81708 0.63176 0.55516 0.0
C1947 C 0.85971 0.66935 0.49747 0.0
C1948 C 0.87512 0.68525 0.54501 0.0
C1949 C 0.86261 0.67931 0.48085 0.0
C1950 C 0.84671 0.67418 0.61597 0.0
C1951 C 0.85284 0.67668 0.59831 0.0
C1952 C 0.83361 0.64629 0.55248 0.0
C1953 C 0.85982 0.68236 0.51325 0.0
C1954 C 0.85759 0.67271 0.53103 0.0
C1955 C 0.84544 0.65646 0.58594 0.0
C1956 C 0.85061 0.65985 0.56675 0.0
H1957 H 0.8667 0.73246 0.49507 0.0
H1958 H 0.86227 0.71534 0.5242 0.0
H1959 H 0.82339 0.6428 0.52405 0.0
H1960 H 0.81526 0.6133 0.61389 0.0
H1961 H 0.82611 0.61763 0.58265 0.0
loop_
_geom_bond_atom_site_label_1
_geom_bond_atom_site_label_2
_geom_bond_distance
_geom_bond_site_symmetry_2
_ccdc_geom_bond_type
H0 C3 0.931 . S
H1 C6 0.928 . S
H2 C8 0.930 . S
C3 H0 0.931 . S
C3 C4 1.413 . S
C3 C5 1.360 . S
C4 C3 1.413 . S
C4 C8 1.429 . S
C5 C3 1.360 . S
C5 C6 1.372 . S
C6 H1 0.928 . S
C6 C5 1.372 . S
C6 C7 1.404 . S
C7 C6 1.404 . S
C7 C8 1.391 . S
C8 H2 0.930 . S
C8 C4 1.429 . S
C8 C7 1.391 . S
H9 C12 0.931 . S
H10 C15 0.928 . S
H11 C17 0.930 . S
C12 H9 0.931 . S
C12 C13 1.413 . S
C12 C14 1.360 . S
C13 C12 1.413 . S
C13 C17 1.429 . S
C14 C12 1.360 . S
C14 C15 1.372 . S
C15 H10 0.928 . S
C15 C14 1.372 . S
C15 C16 1.404 . S
C16 C15 1.404 . S
C16 C17 1.391 . S
C17 H11 0.930 . S
C17 C13 1.429 . S
C17 C16 1.391 . S
H18 C21 0.931 . S
H19 C24 0.928 . S
H20 C26 0.930 . S
C21 H18 0.931 . S
C21 C22 1.413 . S
C21 C23 1.360 . S
C22 C21 1.413 . S
C22 C26 1.429 . S
C23 C21 1.360 . S
C23 C24 1.372 . S
C24 H19 0.928 . S
C24 C23 1.372 . S
C24 C25 1.404 . S
C25 C24 1.404 . S
C25 C26 1.391 . S
C26 H20 0.930 . S
C26 C22 1.429 . S
C26 C25 1.391 . S
H27 C30 0.931 . S
H28 C33 0.928 . S
H29 C35 0.930 . S
C30 H27 0.931 . S
C30 C31 1.413 . S
C30 C32 1.360 . S
C31 C30 1.413 . S
C31 C35 1.429 . S
C32 C30 1.360 . S
C32 C33 1.372 . S
C33 H28 0.928 . S
C33 C32 1.372 . S
C33 C34 1.404 . S
C34 C33 1.404 . S
C34 C35 1.391 . S
C35 H29 0.930 . S
C35 C31 1.429 . S
C35 C34 1.391 . S
H36 C39 0.931 . S
H37 C42 0.928 . S
H38 C44 0.930 . S
C39 H36 0.931 . S
C39 C40 1.413 . S
C39 C41 1.360 . S
C40 C39 1.413 . S
C40 C44 1.429 . S
C41 C39 1.360 . S
C41 C42 1.372 . S
C42 H37 0.928 . S
C42 C41 1.372 . S
C42 C43 1.404 . S
C43 C42 1.404 . S
C43 C44 1.391 . S
C44 H38 0.930 . S
C44 C40 1.429 . S
C44 C43 1.391 . S
H45 C48 0.931 . S
H46 C51 0.928 . S
H47 C53 0.930 . S
C48 H45 0.931 . S
C48 C49 1.413 . S
C48 C50 1.360 . S
C49 C48 1.413 . S
C49 C53 1.429 . S
C50 C48 1.360 . S
C50 C51 1.372 . S
C51 H46 0.928 . S
C51 C50 1.372 . S
C51 C52 1.404 . S
C52 C51 1.404 . S
C52 C53 1.391 . S
C53 H47 0.930 . S
C53 C49 1.429 . S
C53 C52 1.391 . S
H54 C57 0.931 . S
H55 C60 0.928 . S
H56 C62 0.930 . S
C57 H54 0.931 . S
C57 C58 1.413 . S
C57 C59 1.360 . S
C58 C57 1.413 . S
C58 C62 1.429 . S
C59 C57 1.360 . S
C59 C60 1.372 . S
C60 H55 0.928 . S
C60 C59 1.372 . S
C60 C61 1.404 . S
C61 C60 1.404 . S
C61 C62 1.391 . S
C62 H56 0.930 . S
C62 C58 1.429 . S
C62 C61 1.391 . S
H63 C66 0.931 . S
H64 C69 0.928 . S
H65 C71 0.930 . S
C66 H63 0.931 . S
C66 C67 1.413 . S
C66 C68 1.360 . S
C67 C66 1.413 . S
C67 C71 1.429 . S
C68 C66 1.360 . S
C68 C69 1.372 . S
C69 H64 0.928 . S
C69 C68 1.372 . S
C69 C70 1.404 . S
C70 C69 1.404 . S
C70 C71 1.391 . S
C71 H65 0.930 . S
C71 C67 1.429 . S
C71 C70 1.391 . S
H72 C75 0.931 . S
H73 C78 0.928 . S
H74 C80 0.930 . S
C75 H72 0.931 . S
C75 C76 1.413 . S
C75 C77 1.360 . S
C76 C75 1.413 . S
C76 C80 1.429 . S
C77 C75 1.360 . S
C77 C78 1.372 . S
C78 H73 0.928 . S
C78 C77 1.372 . S
C78 C79 1.404 . S
C79 C78 1.404 . S
C79 C80 1.391 . S
C80 H74 0.930 . S
C80 C76 1.429 . S
C80 C79 1.391 . S
H81 C84 0.931 . S
H82 C87 0.928 . S
H83 C89 0.930 . S
C84 H81 0.931 . S
C84 C85 1.413 . S
C84 C86 1.360 . S
C85 C84 1.413 . S
C85 C89 1.429 . S
C86 C84 1.360 . S
C86 C87 1.372 . S
C87 H82 0.928 . S
C87 C86 1.372 . S
C87 C88 1.404 . S
C88 C87 1.404 . S
C88 C89 1.391 . S
C89 H83 0.930 . S
C89 C85 1.429 . S
C89 C88 1.391 . S
H90 C93 0.931 . S
H91 C96 0.928 . S
H92 C98 0.930 . S
C93 H90 0.931 . S
C93 C94 1.413 . S
C93 C95 1.360 . S
C94 C93 1.413 . S
C94 C98 1.429 . S
C95 C93 1.360 . S
C95 C96 1.372 . S
C96 H91 0.928 . S
C96 C95 1.372 . S
C96 C97 1.404 . S
C97 C96 1.404 . S
C97 C98 1.391 . S
C98 H92 0.930 . S
C98 C94 1.429 . S
C98 C97 1.391 . S
H99 C102 0.931 . S
H100 C105 0.928 . S
H101 C107 0.930 . S
C102 H99 0.931 . S
C102 C103 1.413 . S
C102 C104 1.360 . S
C103 C102 1.413 . S
C103 C107 1.429 . S
C104 C102 1.360 . S
C104 C105 1.372 . S
C105 H100 0.928 . S
C105 C104 1.372 . S
C105 C106 1.404 . S
C106 C105 1.404 . S
C106 C107 1.391 . S
C107 H101 0.930 . S
C107 C103 1.429 . S
C107 C106 1.391 . S
H108 C111 0.931 . S
H109 C114 0.928 . S
H110 C116 0.930 . S
C111 H108 0.931 . S
C111 C112 1.413 . S
C111 C113 1.360 . S
C112 C111 1.413 . S
C112 C116 1.429 . S
C113 C111 1.360 . S
C113 C114 1.372 . S
C114 H109 0.928 . S
C114 C113 1.372 . S
C114 C115 1.404 . S
C115 C114 1.404 . S
C115 C116 1.391 . S
C116 H110 0.930 . S
C116 C112 1.429 . S
C116 C115 1.391 . S
H117 C120 0.931 . S
H118 C123 0.928 . S
H119 C125 0.930 . S
C120 H117 0.931 . S
C120 C121 1.413 . S
C120 C122 1.360 . S
C121 C120 1.413 . S
C121 C125 1.429 . S
C122 C120 1.360 . S
C122 C123 1.372 . S
C123 H118 0.928 . S
C123 C122 1.372 . S
C123 C124 1.404 . S
C124 C123 1.404 . S
C124 C125 1.391 . S
C125 H119 0.930 . S
C125 C121 1.429 . S
C125 C124 1.391 . S
H126 C129 0.931 . S
H127 C132 0.928 . S
H128 C134 0.930 . S
C129 H126 0.931 . S
C129 C130 1.413 . S
C129 C131 1.360 . S
C130 C129 1.413 . S
C130 C134 1.429 . S
C131 C129 1.360 . S
C131 C132 1.372 . S
C132 H127 0.928 . S
C132 C131 1.372 . S
C132 C133 1.404 . S
C133 C132 1.404 . S
C133 C134 1.391 . S
C134 H128 0.930 . S
C134 C130 1.429 . S
C134 C133 1.391 . S
H135 C138 0.931 . S
H136 C141 0.928 . S
H137 C143 0.930 . S
C138 H135 0.931 . S
C138 C139 1.413 . S
C138 C140 1.360 . S
C139 C138 1.413 . S
C139 C143 1.429 . S
C140 C138 1.360 . S
C140 C141 1.372 . S
C141 H136 0.928 . S
C141 C140 1.372 . S
C141 C142 1.404 . S
C142 C141 1.404 . S
C142 C143 1.391 . S
C143 H137 0.930 . S
C143 C139 1.429 . S
C143 C142 1.391 . S
H144 C147 0.931 . S
H145 C150 0.928 . S
H146 C152 0.930 . S
C147 H144 0.931 . S
C147 C148 1.413 . S
C147 C149 1.360 . S
C148 C147 1.413 . S
C148 C152 1.429 . S
C149 C147 1.360 . S
C149 C150 1.372 . S
C150 H145 0.928 . S
C150 C149 1.372 . S
C150 C151 1.404 . S
C151 C150 1.404 . S
C151 C152 1.391 . S
C152 H146 0.930 . S
C152 C148 1.429 . S
C152 C151 1.391 . S
H153 C156 0.931 . S
H154 C159 0.928 . S
H155 C161 0.930 . S
C156 H153 0.931 . S
C156 C157 1.413 . S
C156 C158 1.360 . S
C157 C156 1.413 . S
C157 C161 1.429 . S
C158 C156 1.360 . S
C158 C159 1.372 . S
C159 H154 0.928 . S
C159 C158 1.372 . S
C159 C160 1.404 . S
C160 C159 1.404 . S
C160 C161 1.391 . S
C161 H155 0.930 . S
C161 C157 1.429 . S
C161 C160 1.391 . S
Tb162 O165 2.453 . S
Tb162 O166 2.596 1_545 S
Tb162 O167 2.374 1_545 S
Tb162 O175 2.343 1_554 S
Tb162 O177 2.353 . S
Tb162 O179 2.427 1_554 S
Tb162 O180 2.513 1_554 S
C163 O167 1.251 . S
C163 O169 1.263 . S
Tb164 O166 2.343 1_556 S
Tb164 O169 2.353 1_556 S
Tb164 O172 2.427 1_556 S
Tb164 O173 2.513 1_556 S
Tb164 O174 2.453 . S
Tb164 O175 2.596 1_565 S
Tb164 O176 2.374 1_565 S
O165 Tb162 2.453 . S
O165 C181 1.245 . S
O166 Tb162 2.596 1_565 S
O166 Tb164 2.343 1_554 S
O166 C181 1.259 1_565 S
O167 Tb162 2.374 1_565 S
O167 C163 1.251 . S
C168 O172 1.275 . S
C168 O173 1.246 . S
O169 C163 1.263 . S
O169 Tb164 2.353 1_554 S
C170 O174 1.264 . S
C170 O175 1.255 1_565 S
C171 O176 1.250 . S
C171 O177 1.263 1_556 S
O172 Tb164 2.427 1_554 S
O172 C168 1.275 . S
O173 Tb164 2.513 1_554 S
O173 C168 1.246 . S
O174 Tb164 2.453 . S
O174 C170 1.264 . S
O175 Tb162 2.343 1_556 S
O175 Tb164 2.596 1_545 S
O175 C170 1.255 1_545 S
O176 Tb164 2.374 1_545 S
O176 C171 1.250 . S
O177 Tb162 2.353 . S
O177 C171 1.263 1_554 S
C178 O179 1.275 . S
C178 O180 1.246 . S
O179 Tb162 2.427 1_556 S
O179 C178 1.275 . S
O180 Tb162 2.513 1_556 S
O180 C178 1.246 . S
C181 O165 1.245 . S
C181 O166 1.259 1_545 S
Tb182 O185 2.453 . S
Tb182 O186 2.596 1_655 S
Tb182 O187 2.374 1_655 S
Tb182 O195 2.343 1_554 S
Tb182 O197 2.353 . S
Tb182 O199 2.427 1_554 S
Tb182 O200 2.513 1_554 S
C183 O187 1.251 . S
C183 O189 1.263 . S
Tb184 O186 2.343 1_556 S
Tb184 O189 2.353 1_556 S
Tb184 O192 2.427 1_556 S
Tb184 O193 2.513 1_556 S
Tb184 O194 2.453 . S
Tb184 O195 2.596 1_455 S
Tb184 O196 2.374 1_455 S
O185 Tb182 2.453 . S
O185 C201 1.245 1_655 S
O186 Tb182 2.596 1_455 S
O186 Tb184 2.343 1_554 S
O186 C201 1.259 . S
O187 Tb182 2.374 1_455 S
O187 C183 1.251 . S
C188 O192 1.275 . S
C188 O193 1.246 . S
O189 C183 1.263 . S
O189 Tb184 2.353 1_554 S
C190 O194 1.245 . S
C190 O195 1.259 1_455 S
C191 O196 1.250 . S
C191 O197 1.263 1_556 S
O192 Tb184 2.427 1_554 S
O192 C188 1.275 . S
O193 Tb184 2.513 1_554 S
O193 C188 1.246 . S
O194 Tb184 2.453 . S
O194 C190 1.245 . S
O195 Tb182 2.343 1_556 S
O195 Tb184 2.596 1_655 S
O195 C190 1.259 1_655 S
O196 Tb184 2.374 1_655 S
O196 C191 1.250 . S
O197 Tb182 2.353 . S
O197 C191 1.263 1_554 S
C198 O199 1.275 . S
C198 O200 1.246 . S
O199 Tb182 2.427 1_556 S
O199 C198 1.275 . S
O200 Tb182 2.513 1_556 S
O200 C198 1.246 . S
C201 O185 1.245 1_455 S
C201 O186 1.259 . S
Tb202 O205 2.453 . S
Tb202 O206 2.596 . S
Tb202 O207 2.374 . S
Tb202 O215 2.343 1_556 S
Tb202 O217 2.353 1_556 S
Tb202 O219 2.427 1_556 S
Tb202 O220 2.513 1_556 S
C203 O207 1.251 . S
C203 O209 1.263 1_556 S
Tb204 O206 2.343 1_554 S
Tb204 O209 2.353 . S
Tb204 O212 2.427 1_554 S
Tb204 O213 2.513 1_554 S
Tb204 O214 2.453 . S
Tb204 O215 2.596 . S
Tb204 O216 2.374 . S
O205 Tb202 2.453 . S
O205 C221 1.245 . S
O206 Tb202 2.596 . S
O206 Tb204 2.343 1_556 S
O206 C221 1.259 . S
O207 Tb202 2.374 . S
O207 C203 1.251 . S
C208 O212 1.275 . S
C208 O213 1.246 . S
O209 C203 1.263 1_554 S
O209 Tb204 2.353 . S
C210 O214 1.245 . S
C210 O215 1.259 . S
C211 O216 1.250 . S
C211 O217 1.263 . S
O212 Tb204 2.427 1_556 S
O212 C208 1.275 . S
O213 Tb204 2.513 1_556 S
O213 C208 1.246 . S
O214 Tb204 2.453 . S
O214 C210 1.245 . S
O215 Tb202 2.343 1_554 S
O215 Tb204 2.596 . S
O215 C210 1.259 . S
O216 Tb204 2.374 . S
O216 C211 1.250 . S
O217 Tb202 2.353 1_554 S
O217 C211 1.263 . S
C218 O219 1.275 . S
C218 O220 1.246 . S
O219 Tb202 2.427 1_554 S
O219 C218 1.275 . S
O220 Tb202 2.513 1_554 S
O220 C218 1.246 . S
C221 O205 1.245 . S
C221 O206 1.259 . S
Tb222 O225 2.453 . S
Tb222 O226 2.596 . S
Tb222 O227 2.374 . S
Tb222 O235 2.343 . S
Tb222 O237 2.353 . S
Tb222 O239 2.427 . S
Tb222 O240 2.513 . S
C223 O227 1.251 . S
C223 O229 1.263 . S
Tb224 O226 2.343 . S
Tb224 O229 2.353 . S
Tb224 O232 2.427 . S
Tb224 O233 2.513 . S
Tb224 O234 2.453 . S
Tb224 O235 2.596 . S
Tb224 O236 2.374 . S
O225 Tb222 2.453 . S
O225 C241 1.245 . S
O226 Tb222 2.596 . S
O226 Tb224 2.343 . S
O226 C241 1.259 . S
O227 Tb222 2.374 . S
O227 C223 1.251 . S
C228 O232 1.275 . S
C228 O233 1.246 . S
O229 C223 1.263 . S
O229 Tb224 2.353 . S
C230 O234 1.245 . S
C230 O235 1.259 . S
C231 O236 1.250 . S
C231 O237 1.263 . S
O232 Tb224 2.427 . S
O232 C228 1.275 . S
O233 Tb224 2.513 . S
O233 C228 1.246 . S
O234 Tb224 2.453 . S
O234 C230 1.245 . S
O235 Tb222 2.343 . S
O235 Tb224 2.596 . S
O235 C230 1.259 . S
O236 Tb224 2.374 . S
O236 C231 1.250 . S
O237 Tb222 2.353 . S
O237 C231 1.263 . S
C238 O239 1.275 . S
C238 O240 1.246 . S
O239 Tb222 2.427 . S
O239 C238 1.275 . S
O240 Tb222 2.513 . S
O240 C238 1.246 . S
C241 O225 1.245 . S
C241 O226 1.259 . S
Tb242 O245 2.453 . S
Tb242 O246 2.596 . S
Tb242 O247 2.374 . S
Tb242 O255 2.343 . S
Tb242 O257 2.353 . S
Tb242 O259 2.427 . S
Tb242 O260 2.513 . S
C243 O247 1.251 . S
C243 O249 1.263 . S
Tb244 O246 2.343 . S
Tb244 O249 2.353 . S
Tb244 O252 2.427 . S
Tb244 O253 2.513 . S
Tb244 O254 2.453 . S
Tb244 O255 2.596 . S
Tb244 O256 2.374 . S
O245 Tb242 2.453 . S
O245 C261 1.245 . S
O246 Tb242 2.596 . S
O246 Tb244 2.343 . S
O246 C261 1.259 . S
O247 Tb242 2.374 . S
O247 C243 1.251 . S
C248 O252 1.275 . S
C248 O253 1.246 . S
O249 C243 1.263 . S
O249 Tb244 2.353 . S
C250 O254 1.245 . S
C250 O255 1.259 . S
C251 O256 1.250 . S
C251 O257 1.263 . S
O252 Tb244 2.427 . S
O252 C248 1.275 . S
O253 Tb244 2.513 . S
O253 C248 1.246 . S
O254 Tb244 2.453 . S
O254 C250 1.245 . S
O255 Tb242 2.343 . S
O255 Tb244 2.596 . S
O255 C250 1.259 . S
O256 Tb244 2.374 . S
O256 C251 1.250 . S
O257 Tb242 2.353 . S
O257 C251 1.263 . S
C258 O259 1.275 . S
C258 O260 1.246 . S
O259 Tb242 2.427 . S
O259 C258 1.275 . S
O260 Tb242 2.513 . S
O260 C258 1.246 . S
C261 O245 1.245 . S
C261 O246 1.259 . S
Tb262 O265 2.453 . S
Tb262 O266 2.596 . S
Tb262 O267 2.374 . S
Tb262 O275 2.343 . S
Tb262 O277 2.353 . S
Tb262 O279 2.427 . S
Tb262 O280 2.513 . S
C263 O267 1.251 . S
C263 O269 1.263 . S
Tb264 O266 2.343 . S
Tb264 O269 2.353 . S
Tb264 O272 2.427 . S
Tb264 O273 2.513 . S
Tb264 O274 2.453 . S
Tb264 O275 2.596 . S
Tb264 O276 2.374 . S
O265 Tb262 2.453 . S
O265 C281 1.245 . S
O266 Tb262 2.596 . S
O266 Tb264 2.343 . S
O266 C281 1.259 . S
O267 Tb262 2.374 . S
O267 C263 1.251 . S
C268 O272 1.275 . S
C268 O273 1.246 . S
O269 C263 1.263 . S
O269 Tb264 2.353 . S
C270 O274 1.245 . S
C270 O275 1.259 . S
C271 O276 1.250 . S
C271 O277 1.263 . S
O272 Tb264 2.427 . S
O272 C268 1.275 . S
O273 Tb264 2.513 . S
O273 C268 1.246 . S
O274 Tb264 2.453 . S
O274 C270 1.245 . S
O275 Tb262 2.343 . S
O275 Tb264 2.596 . S
O275 C270 1.259 . S
O276 Tb264 2.374 . S
O276 C271 1.250 . S
O277 Tb262 2.353 . S
O277 C271 1.263 . S
C278 O279 1.275 . S
C278 O280 1.246 . S
O279 Tb262 2.427 . S
O279 C278 1.275 . S
O280 Tb262 2.513 . S
O280 C278 1.246 . S
C281 O265 1.245 . S
C281 O266 1.259 . S
Tb282 O285 2.453 . S
Tb282 O286 2.596 . S
Tb282 O287 2.374 . S
Tb282 O295 2.343 . S
Tb282 O297 2.353 . S
Tb282 O299 2.427 . S
Tb282 O300 2.513 . S
C283 O287 1.251 . S
C283 O289 1.263 . S
Tb284 O286 2.343 . S
Tb284 O289 2.353 . S
Tb284 O292 2.427 . S
Tb284 O293 2.513 . S
Tb284 O294 2.453 . S
Tb284 O295 2.596 . S
Tb284 O296 2.374 . S
O285 Tb282 2.453 . S
O285 C301 1.245 . S
O286 Tb282 2.596 . S
O286 Tb284 2.343 . S
O286 C301 1.259 . S
O287 Tb282 2.374 . S
O287 C283 1.251 . S
C288 O292 1.275 . S
C288 O293 1.246 . S
O289 C283 1.263 . S
O289 Tb284 2.353 . S
C290 O294 1.245 . S
C290 O295 1.259 . S
C291 O296 1.250 . S
C291 O297 1.263 . S
O292 Tb284 2.427 . S
O292 C288 1.275 . S
O293 Tb284 2.513 . S
O293 C288 1.246 . S
O294 Tb284 2.453 . S
O294 C290 1.245 . S
O295 Tb282 2.343 . S
O295 Tb284 2.596 . S
O295 C290 1.259 . S
O296 Tb284 2.374 . S
O296 C291 1.250 . S
O297 Tb282 2.353 . S
O297 C291 1.263 . S
C298 O299 1.275 . S
C298 O300 1.246 . S
O299 Tb282 2.427 . S
O299 C298 1.275 . S
O300 Tb282 2.513 . S
O300 C298 1.246 . S
C301 O285 1.245 . S
C301 O286 1.259 . S
Tb302 O305 2.453 . S
Tb302 O306 2.596 . S
Tb302 O307 2.374 . S
Tb302 O315 2.343 . S
Tb302 O317 2.353 . S
Tb302 O319 2.427 . S
Tb302 O320 2.513 . S
C303 O307 1.251 . S
C303 O309 1.263 . S
Tb304 O306 2.343 . S
Tb304 O309 2.353 . S
Tb304 O312 2.427 . S
Tb304 O313 2.513 . S
Tb304 O314 2.453 . S
Tb304 O315 2.596 . S
Tb304 O316 2.374 . S
O305 Tb302 2.453 . S
O305 C321 1.245 . S
O306 Tb302 2.596 . S
O306 Tb304 2.343 . S
O306 C321 1.259 . S
O307 Tb302 2.374 . S
O307 C303 1.251 . S
C308 O312 1.275 . S
C308 O313 1.246 . S
O309 C303 1.263 . S
O309 Tb304 2.353 . S
C310 O314 1.245 . S
C310 O315 1.259 . S
C311 O316 1.250 . S
C311 O317 1.263 . S
O312 Tb304 2.427 . S
O312 C308 1.275 . S
O313 Tb304 2.513 . S
O313 C308 1.246 . S
O314 Tb304 2.453 . S
O314 C310 1.245 . S
O315 Tb302 2.343 . S
O315 Tb304 2.596 . S
O315 C310 1.259 . S
O316 Tb304 2.374 . S
O316 C311 1.250 . S
O317 Tb302 2.353 . S
O317 C311 1.263 . S
C318 O319 1.275 . S
C318 O320 1.246 . S
O319 Tb302 2.427 . S
O319 C318 1.275 . S
O320 Tb302 2.513 . S
O320 C318 1.246 . S
C321 O305 1.245 . S
C321 O306 1.259 . S
Tb322 O325 2.453 . S
Tb322 O326 2.596 . S
Tb322 O327 2.374 . S
Tb322 O335 2.343 . S
Tb322 O337 2.353 . S
Tb322 O339 2.427 . S
Tb322 O340 2.513 . S
C323 O327 1.251 . S
C323 O329 1.263 . S
Tb324 O326 2.343 . S
Tb324 O329 2.353 . S
Tb324 O332 2.427 . S
Tb324 O333 2.513 . S
Tb324 O334 2.453 . S
Tb324 O335 2.596 . S
Tb324 O336 2.374 . S
O325 Tb322 2.453 . S
O325 C341 1.245 . S
O326 Tb322 2.596 . S
O326 Tb324 2.343 . S
O326 C341 1.259 . S
O327 Tb322 2.374 . S
O327 C323 1.251 . S
C328 O332 1.275 . S
C328 O333 1.246 . S
O329 C323 1.263 . S
O329 Tb324 2.353 . S
C330 O334 1.245 . S
C330 O335 1.259 . S
C331 O336 1.250 . S
C331 O337 1.263 . S
O332 Tb324 2.427 . S
O332 C328 1.275 . S
O333 Tb324 2.513 . S
O333 C328 1.246 . S
O334 Tb324 2.453 . S
O334 C330 1.245 . S
O335 Tb322 2.343 . S
O335 Tb324 2.596 . S
O335 C330 1.259 . S
O336 Tb324 2.374 . S
O336 C331 1.250 . S
O337 Tb322 2.353 . S
O337 C331 1.263 . S
C338 O339 1.275 . S
C338 O340 1.246 . S
O339 Tb322 2.427 . S
O339 C338 1.275 . S
O340 Tb322 2.513 . S
O340 C338 1.246 . S
C341 O325 1.245 . S
C341 O326 1.259 . S
C342 C343 1.349 . S
C342 C344 1.327 . S
C342 H367 0.950 . S
C343 C342 1.349 . S
C343 C359 1.349 . S
C344 C342 1.327 . S
C344 C363 1.429 . S
C344 H368 0.950 . S
C345 C362 1.574 . S
C345 C364 1.368 . S
C345 H369 0.949 . S
H346 C350 0.949 . S
C347 C348 1.349 . S
C347 C349 1.327 . S
C347 H370 0.950 . S
C348 C347 1.349 . S
C348 C360 1.349 . S
C349 C347 1.327 . S
C349 C365 1.429 . S
C349 H371 0.950 . S
C350 H346 0.949 . S
C350 C358 1.574 . S
C350 C366 1.368 . S
H351 C359 0.950 . S
H352 C357 0.950 . S
H353 C358 0.949 . S
H354 C360 0.950 . S
H355 C361 0.950 . S
H356 C362 0.949 . S
C357 H352 0.950 . S
C357 C359 1.327 . S
C357 C363 1.429 . S
C358 C350 1.574 . S
C358 H353 0.949 . S
C358 C364 1.368 . S
C359 C343 1.349 . S
C359 H351 0.950 . S
C359 C357 1.327 . S
C360 C348 1.349 . S
C360 H354 0.950 . S
C360 C361 1.327 . S
C361 H355 0.950 . S
C361 C360 1.327 . S
C361 C365 1.429 . S
C362 C345 1.574 . S
C362 H356 0.949 . S
C362 C366 1.368 . S
C363 C344 1.429 . S
C363 C357 1.429 . S
C363 C364 1.523 . S
C364 C345 1.368 . S
C364 C358 1.368 . S
C364 C363 1.523 . S
C365 C349 1.429 . S
C365 C361 1.429 . S
C365 C366 1.523 . S
C366 C350 1.368 . S
C366 C362 1.368 . S
C366 C365 1.523 . S
H367 C342 0.950 . S
H368 C344 0.950 . S
H369 C345 0.949 . S
H370 C347 0.950 . S
H371 C349 0.950 . S
C372 C373 1.349 . S
C372 C374 1.327 . S
C372 H397 0.950 . S
C373 C372 1.349 . S
C373 C389 1.349 . S
C374 C372 1.327 . S
C374 C393 1.429 . S
C374 H398 0.950 . S
C375 C392 1.574 . S
C375 C394 1.368 . S
C375 H399 0.949 . S
H376 C380 0.949 . S
C377 C378 1.349 . S
C377 C379 1.327 . S
C377 H400 0.950 . S
C378 C377 1.349 . S
C378 C390 1.349 . S
C379 C377 1.327 . S
C379 C395 1.429 . S
C379 H401 0.950 . S
C380 H376 0.949 . S
C380 C388 1.574 . S
C380 C396 1.368 . S
H381 C389 0.950 . S
H382 C387 0.950 . S
H383 C388 0.949 . S
H384 C390 0.950 . S
H385 C391 0.950 . S
H386 C392 0.949 . S
C387 H382 0.950 . S
C387 C389 1.327 . S
C387 C393 1.429 . S
C388 C380 1.574 . S
C388 H383 0.949 . S
C388 C394 1.368 . S
C389 C373 1.349 . S
C389 H381 0.950 . S
C389 C387 1.327 . S
C390 C378 1.349 . S
C390 H384 0.950 . S
C390 C391 1.327 . S
C391 H385 0.950 . S
C391 C390 1.327 . S
C391 C395 1.429 . S
C392 C375 1.574 . S
C392 H386 0.949 . S
C392 C396 1.368 . S
C393 C374 1.429 . S
C393 C387 1.429 . S
C393 C394 1.523 . S
C394 C375 1.368 . S
C394 C388 1.368 . S
C394 C393 1.523 . S
C395 C379 1.429 . S
C395 C391 1.429 . S
C395 C396 1.523 . S
C396 C380 1.368 . S
C396 C392 1.368 . S
C396 C395 1.523 . S
H397 C372 0.950 . S
H398 C374 0.950 . S
H399 C375 0.949 . S
H400 C377 0.950 . S
H401 C379 0.950 . S
C402 C403 1.349 . S
C402 C404 1.327 . S
C402 H427 0.950 . S
C403 C402 1.349 . S
C403 C419 1.349 . S
C404 C402 1.327 . S
C404 C423 1.429 . S
C404 H428 0.950 . S
C405 C422 1.574 . S
C405 C424 1.368 . S
C405 H429 0.949 . S
H406 C410 0.949 . S
C407 C408 1.349 . S
C407 C409 1.327 . S
C407 H430 0.950 . S
C408 C407 1.349 . S
C408 C420 1.349 . S
C409 C407 1.327 . S
C409 C425 1.429 . S
C409 H431 0.950 . S
C410 H406 0.949 . S
C410 C418 1.574 . S
C410 C426 1.368 . S
H411 C419 0.950 . S
H412 C417 0.950 . S
H413 C418 0.949 . S
H414 C420 0.950 . S
H415 C421 0.950 . S
H416 C422 0.949 . S
C417 H412 0.950 . S
C417 C419 1.327 . S
C417 C423 1.429 . S
C418 C410 1.574 . S
C418 H413 0.949 . S
C418 C424 1.368 . S
C419 C403 1.349 . S
C419 H411 0.950 . S
C419 C417 1.327 . S
C420 C408 1.349 . S
C420 H414 0.950 . S
C420 C421 1.327 . S
C421 H415 0.950 . S
C421 C420 1.327 . S
C421 C425 1.429 . S
C422 C405 1.574 . S
C422 H416 0.949 . S
C422 C426 1.368 . S
C423 C404 1.429 . S
C423 C417 1.429 . S
C423 C424 1.523 . S
C424 C405 1.368 . S
C424 C418 1.368 . S
C424 C423 1.523 . S
C425 C409 1.429 . S
C425 C421 1.429 . S
C425 C426 1.523 . S
C426 C410 1.368 . S
C426 C422 1.368 . S
C426 C425 1.523 . S
H427 C402 0.950 . S
H428 C404 0.950 . S
H429 C405 0.949 . S
H430 C407 0.950 . S
H431 C409 0.950 . S
C432 C433 1.349 . S
C432 C434 1.327 . S
C432 H457 0.950 . S
C433 C432 1.349 . S
C433 C449 1.349 . S
C434 C432 1.327 . S
C434 C453 1.429 . S
C434 H458 0.950 . S
C435 C452 1.574 . S
C435 C454 1.368 . S
C435 H459 0.949 . S
H436 C440 0.949 . S
C437 C438 1.349 . S
C437 C439 1.327 . S
C437 H460 0.950 . S
C438 C437 1.349 . S
C438 C450 1.349 . S
C439 C437 1.327 . S
C439 C455 1.429 . S
C439 H461 0.950 . S
C440 H436 0.949 . S
C440 C448 1.574 . S
C440 C456 1.368 . S
H441 C449 0.950 . S
H442 C447 0.950 . S
H443 C448 0.949 . S
H444 C450 0.950 1_554 S
H445 C451 0.950 . S
H446 C452 0.949 . S
C447 H442 0.950 . S
C447 C449 1.327 . S
C447 C453 1.429 . S
C448 C440 1.574 . S
C448 H443 0.949 . S
C448 C454 1.368 . S
C449 C433 1.349 . S
C449 H441 0.950 . S
C449 C447 1.327 . S
C450 C438 1.349 . S
C450 H444 0.950 1_556 S
C450 C451 1.327 . S
C451 H445 0.950 . S
C451 C450 1.327 . S
C451 C455 1.429 . S
C452 C435 1.574 . S
C452 H446 0.949 . S
C452 C456 1.368 . S
C453 C434 1.429 . S
C453 C447 1.429 . S
C453 C454 1.523 . S
C454 C435 1.368 . S
C454 C448 1.368 . S
C454 C453 1.523 . S
C455 C439 1.429 . S
C455 C451 1.429 . S
C455 C456 1.523 . S
C456 C440 1.368 . S
C456 C452 1.368 . S
C456 C455 1.523 . S
H457 C432 0.950 . S
H458 C434 0.950 . S
H459 C435 0.949 . S
H460 C437 0.950 . S
H461 C439 0.950 . S
C462 C463 1.349 . S
C462 C464 1.327 . S
C462 H487 0.950 . S
C463 C462 1.349 . S
C463 C479 1.349 . S
C464 C462 1.327 . S
C464 C483 1.429 . S
C464 H488 0.950 . S
C465 C482 1.574 . S
C465 C484 1.368 . S
C465 H489 0.949 . S
H466 C470 0.949 . S
C467 C468 1.349 . S
C467 C469 1.327 . S
C467 H490 0.950 . S
C468 C467 1.349 . S
C468 C480 1.349 . S
C469 C467 1.327 . S
C469 C485 1.429 . S
C469 H491 0.950 . S
C470 H466 0.949 . S
C470 C478 1.574 . S
C470 C486 1.368 . S
H471 C479 0.950 . S
H472 C477 0.950 . S
H473 C478 0.949 . S
H474 C480 0.950 . S
H475 C481 0.950 . S
H476 C482 0.949 . S
C477 H472 0.950 . S
C477 C479 1.327 . S
C477 C483 1.429 . S
C478 C470 1.574 . S
C478 H473 0.949 . S
C478 C484 1.368 . S
C479 C463 1.349 . S
C479 H471 0.950 . S
C479 C477 1.327 . S
C480 C468 1.349 . S
C480 H474 0.950 . S
C480 C481 1.327 . S
C481 H475 0.950 . S
C481 C480 1.327 . S
C481 C485 1.429 . S
C482 C465 1.574 . S
C482 H476 0.949 . S
C482 C486 1.368 . S
C483 C464 1.429 . S
C483 C477 1.429 . S
C483 C484 1.523 . S
C484 C465 1.368 . S
C484 C478 1.368 . S
C484 C483 1.523 . S
C485 C469 1.429 . S
C485 C481 1.429 . S
C485 C486 1.523 . S
C486 C470 1.368 . S
C486 C482 1.368 . S
C486 C485 1.523 . S
H487 C462 0.950 . S
H488 C464 0.950 . S
H489 C465 0.949 . S
H490 C467 0.950 . S
H491 C469 0.950 . S
C492 C493 1.349 . S
C492 C494 1.327 . S
C492 H517 0.950 . S
C493 C492 1.349 . S
C493 C509 1.349 . S
C494 C492 1.327 . S
C494 C513 1.429 . S
C494 H518 0.950 . S
C495 C512 1.574 . S
C495 C514 1.368 . S
C495 H519 0.949 . S
H496 C500 0.949 . S
C497 C498 1.379 . S
C497 C499 1.346 . S
C497 H520 0.902 1_556 S
C498 C497 1.379 . S
C498 C510 1.349 . S
C499 C497 1.346 . S
C499 C515 1.429 . S
C499 H521 0.927 1_556 S
C500 H496 0.949 . S
C500 C508 1.574 . S
C500 C516 1.368 . S
H501 C509 0.950 . S
H502 C507 0.950 . S
H503 C508 0.949 . S
H504 C510 0.950 . S
H505 C511 0.950 . S
H506 C512 0.949 . S
C507 H502 0.950 . S
C507 C509 1.327 . S
C507 C513 1.429 . S
C508 C500 1.574 . S
C508 H503 0.949 . S
C508 C514 1.368 . S
C509 C493 1.349 . S
C509 H501 0.950 . S
C509 C507 1.327 . S
C510 C498 1.349 . S
C510 H504 0.950 . S
C510 C511 1.327 . S
C511 H505 0.950 . S
C511 C510 1.327 . S
C511 C515 1.429 . S
C512 C495 1.574 . S
C512 H506 0.949 . S
C512 C516 1.368 . S
C513 C494 1.429 . S
C513 C507 1.429 . S
C513 C514 1.523 . S
C514 C495 1.368 . S
C514 C508 1.368 . S
C514 C513 1.523 . S
C515 C499 1.429 . S
C515 C511 1.429 . S
C515 C516 1.523 . S
C516 C500 1.368 . S
C516 C512 1.368 . S
C516 C515 1.523 . S
H517 C492 0.950 . S
H518 C494 0.950 . S
H519 C495 0.949 . S
H520 C497 0.902 1_554 S
H521 C499 0.927 1_554 S
C522 C523 1.349 . S
C522 C524 1.327 . S
C522 H547 0.950 . S
C523 C522 1.349 . S
C523 C539 1.349 . S
C524 C522 1.327 . S
C524 C543 1.429 . S
C524 H548 0.950 . S
C525 C542 1.574 . S
C525 C544 1.368 . S
C525 H549 0.949 . S
H526 C530 0.949 . S
C527 C528 1.349 . S
C527 C529 1.327 . S
C527 H550 0.950 . S
C528 C527 1.349 . S
C528 C540 1.349 . S
C529 C527 1.327 . S
C529 C545 1.429 . S
C529 H551 0.950 . S
C530 H526 0.949 . S
C530 C538 1.574 . S
C530 C546 1.368 . S
H531 C539 0.950 . S
H532 C537 0.950 . S
H533 C538 0.949 . S
H534 C540 0.950 . S
H535 C541 0.950 . S
H536 C542 0.949 . S
C537 H532 0.950 . S
C537 C539 1.327 . S
C537 C543 1.429 . S
C538 C530 1.574 . S
C538 H533 0.949 . S
C538 C544 1.368 . S
C539 C523 1.349 . S
C539 H531 0.950 . S
C539 C537 1.327 . S
C540 C528 1.349 . S
C540 H534 0.950 . S
C540 C541 1.327 . S
C541 H535 0.950 . S
C541 C540 1.327 . S
C541 C545 1.429 . S
C542 C525 1.574 . S
C542 H536 0.949 . S
C542 C546 1.368 . S
C543 C524 1.429 . S
C543 C537 1.429 . S
C543 C544 1.523 . S
C544 C525 1.368 . S
C544 C538 1.368 . S
C544 C543 1.523 . S
C545 C529 1.429 . S
C545 C541 1.429 . S
C545 C546 1.523 . S
C546 C530 1.368 . S
C546 C542 1.368 . S
C546 C545 1.523 . S
H547 C522 0.950 . S
H548 C524 0.950 . S
H549 C525 0.949 . S
H550 C527 0.950 . S
H551 C529 0.950 . S
C552 C553 1.349 . S
C552 C554 1.327 . S
C552 H577 0.950 . S
C553 C552 1.349 . S
C553 C569 1.349 . S
C554 C552 1.327 . S
C554 C573 1.429 . S
C554 H578 0.950 . S
C555 C572 1.574 . S
C555 C574 1.368 . S
C555 H579 0.949 . S
H556 C560 0.949 . S
C557 C558 1.349 . S
C557 C559 1.327 . S
C557 H580 0.950 . S
C558 C557 1.349 . S
C558 C570 1.349 . S
C559 C557 1.327 . S
C559 C575 1.429 . S
C559 H581 0.950 . S
C560 H556 0.949 . S
C560 C568 1.574 . S
C560 C576 1.368 . S
H561 C569 0.950 . S
H562 C567 0.950 . S
H563 C568 0.949 . S
H564 C570 0.950 . S
H565 C571 0.950 . S
H566 C572 0.949 . S
C567 H562 0.950 . S
C567 C569 1.327 . S
C567 C573 1.429 . S
C568 C560 1.574 . S
C568 H563 0.949 . S
C568 C574 1.368 . S
C569 C553 1.349 . S
C569 H561 0.950 . S
C569 C567 1.327 . S
C570 C558 1.349 . S
C570 H564 0.950 . S
C570 C571 1.327 . S
C571 H565 0.950 . S
C571 C570 1.327 . S
C571 C575 1.429 . S
C572 C555 1.574 . S
C572 H566 0.949 . S
C572 C576 1.368 . S
C573 C554 1.429 . S
C573 C567 1.429 . S
C573 C574 1.523 . S
C574 C555 1.368 . S
C574 C568 1.368 . S
C574 C573 1.523 . S
C575 C559 1.429 . S
C575 C571 1.429 . S
C575 C576 1.523 . S
C576 C560 1.368 . S
C576 C572 1.368 . S
C576 C575 1.523 . S
H577 C552 0.950 . S
H578 C554 0.950 . S
H579 C555 0.949 . S
H580 C557 0.950 . S
H581 C559 0.950 . S
C582 C583 1.349 . S
C582 C584 1.327 . S
C582 H607 0.950 . S
C583 C582 1.349 . S
C583 C599 1.349 . S
C584 C582 1.327 . S
C584 C603 1.429 . S
C584 H608 0.950 . S
C585 C602 1.574 . S
C585 C604 1.368 . S
C585 H609 0.949 . S
H586 C590 0.949 . S
C587 C588 1.349 . S
C587 C589 1.327 . S
C587 H610 0.950 . S
C588 C587 1.349 . S
C588 C600 1.349 . S
C589 C587 1.327 . S
C589 C605 1.429 . S
C589 H611 0.950 . S
C590 H586 0.949 . S
C590 C598 1.574 . S
C590 C606 1.368 . S
H591 C599 0.950 . S
H592 C597 0.950 . S
H593 C598 0.949 . S
H594 C600 0.950 1_554 S
H595 C601 0.950 . S
H596 C602 0.949 . S
C597 H592 0.950 . S
C597 C599 1.327 . S
C597 C603 1.429 . S
C598 C590 1.574 . S
C598 H593 0.949 . S
C598 C604 1.368 . S
C599 C583 1.349 . S
C599 H591 0.950 . S
C599 C597 1.327 . S
C600 C588 1.349 . S
C600 H594 0.950 1_556 S
C600 C601 1.327 . S
C601 H595 0.950 . S
C601 C600 1.327 . S
C601 C605 1.429 . S
C602 C585 1.574 . S
C602 H596 0.949 . S
C602 C606 1.368 . S
C603 C584 1.429 . S
C603 C597 1.429 . S
C603 C604 1.523 . S
C604 C585 1.368 . S
C604 C598 1.368 . S
C604 C603 1.523 . S
C605 C589 1.429 . S
C605 C601 1.429 . S
C605 C606 1.523 . S
C606 C590 1.368 . S
C606 C602 1.368 . S
C606 C605 1.523 . S
H607 C582 0.950 . S
H608 C584 0.950 . S
H609 C585 0.949 . S
H610 C587 0.950 . S
H611 C589 0.950 . S
C612 C613 1.349 . S
C612 C614 1.327 . S
C612 H637 0.950 . S
C613 C612 1.349 . S
C613 C629 1.349 . S
C614 C612 1.327 . S
C614 C633 1.429 . S
C614 H638 0.950 . S
C615 C632 1.574 . S
C615 C634 1.368 . S
C615 H639 0.949 . S
H616 C620 0.949 . S
C617 C618 1.349 . S
C617 C619 1.327 . S
C617 H640 0.950 . S
C618 C617 1.349 . S
C618 C630 1.349 . S
C619 C617 1.327 . S
C619 C635 1.429 . S
C619 H641 0.950 . S
C620 H616 0.949 . S
C620 C628 1.574 . S
C620 C636 1.368 . S
H621 C629 0.950 . S
H622 C627 0.950 . S
H623 C628 0.949 . S
H624 C630 0.950 . S
H625 C631 0.950 . S
H626 C632 0.949 . S
C627 H622 0.950 . S
C627 C629 1.327 . S
C627 C633 1.429 . S
C628 C620 1.574 . S
C628 H623 0.949 . S
C628 C634 1.368 . S
C629 C613 1.349 . S
C629 H621 0.950 . S
C629 C627 1.327 . S
C630 C618 1.349 . S
C630 H624 0.950 . S
C630 C631 1.327 . S
C631 H625 0.950 . S
C631 C630 1.327 . S
C631 C635 1.429 . S
C632 C615 1.574 . S
C632 H626 0.949 . S
C632 C636 1.368 . S
C633 C614 1.429 . S
C633 C627 1.429 . S
C633 C634 1.523 . S
C634 C615 1.368 . S
C634 C628 1.368 . S
C634 C633 1.523 . S
C635 C619 1.429 . S
C635 C631 1.429 . S
C635 C636 1.523 . S
C636 C620 1.368 . S
C636 C632 1.368 . S
C636 C635 1.523 . S
H637 C612 0.950 . S
H638 C614 0.950 . S
H639 C615 0.949 . S
H640 C617 0.950 . S
H641 C619 0.950 . S
C642 C643 1.349 . S
C642 C644 1.327 . S
C642 H667 0.950 . S
C643 C642 1.349 . S
C643 C659 1.349 . S
C644 C642 1.327 . S
C644 C663 1.429 . S
C644 H668 0.950 . S
C645 C662 1.574 . S
C645 C664 1.368 . S
C645 H669 0.949 . S
H646 C650 0.949 . S
C647 C648 1.349 . S
C647 C649 1.327 . S
C647 H670 0.950 . S
C648 C647 1.349 . S
C648 C660 1.349 . S
C649 C647 1.327 . S
C649 C665 1.429 . S
C649 H671 0.950 . S
C650 H646 0.949 . S
C650 C658 1.574 . S
C650 C666 1.368 . S
H651 C659 0.950 . S
H652 C657 0.950 . S
H653 C658 0.949 . S
H654 C660 0.950 . S
H655 C661 0.950 . S
H656 C662 0.949 . S
C657 H652 0.950 . S
C657 C659 1.327 . S
C657 C663 1.429 . S
C658 C650 1.574 . S
C658 H653 0.949 . S
C658 C664 1.368 . S
C659 C643 1.349 . S
C659 H651 0.950 . S
C659 C657 1.327 . S
C660 C648 1.349 . S
C660 H654 0.950 . S
C660 C661 1.327 . S
C661 H655 0.950 . S
C661 C660 1.327 . S
C661 C665 1.429 . S
C662 C645 1.574 . S
C662 H656 0.949 . S
C662 C666 1.368 . S
C663 C644 1.429 . S
C663 C657 1.429 . S
C663 C664 1.523 . S
C664 C645 1.368 . S
C664 C658 1.368 . S
C664 C663 1.523 . S
C665 C649 1.429 . S
C665 C661 1.429 . S
C665 C666 1.523 . S
C666 C650 1.368 . S
C666 C662 1.368 . S
C666 C665 1.523 . S
H667 C642 0.950 . S
H668 C644 0.950 . S
H669 C645 0.949 . S
H670 C647 0.950 . S
H671 C649 0.950 . S
C672 C673 1.349 . S
C672 C674 1.327 . S
C672 H697 0.950 . S
C673 C672 1.349 . S
C673 C689 1.349 . S
C674 C672 1.327 . S
C674 C693 1.429 . S
C674 H698 0.950 . S
C675 C692 1.574 . S
C675 C694 1.368 . S
C675 H699 0.949 . S
H676 C680 0.949 . S
C677 C678 1.349 . S
C677 C679 1.327 . S
C677 H700 0.950 . S
C678 C677 1.349 . S
C678 C690 1.349 . S
C679 C677 1.327 . S
C679 C695 1.429 . S
C679 H701 0.950 . S
C680 H676 0.949 . S
C680 C688 1.574 . S
C680 C696 1.368 . S
H681 C689 0.950 . S
H682 C687 0.950 . S
H683 C688 0.949 . S
H684 C690 0.950 . S
H685 C691 0.950 . S
H686 C692 0.949 . S
C687 H682 0.950 . S
C687 C689 1.327 . S
C687 C693 1.429 . S
C688 C680 1.574 . S
C688 H683 0.949 . S
C688 C694 1.368 . S
C689 C673 1.349 . S
C689 H681 0.950 . S
C689 C687 1.327 . S
C690 C678 1.349 . S
C690 H684 0.950 . S
C690 C691 1.327 . S
C691 H685 0.950 . S
C691 C690 1.327 . S
C691 C695 1.429 . S
C692 C675 1.574 . S
C692 H686 0.949 . S
C692 C696 1.368 . S
C693 C674 1.429 . S
C693 C687 1.429 . S
C693 C694 1.523 . S
C694 C675 1.368 . S
C694 C688 1.368 . S
C694 C693 1.523 . S
C695 C679 1.429 . S
C695 C691 1.429 . S
C695 C696 1.523 . S
C696 C680 1.368 . S
C696 C692 1.368 . S
C696 C695 1.523 . S
H697 C672 0.950 . S
H698 C674 0.950 . S
H699 C675 0.949 . S
H700 C677 0.950 . S
H701 C679 0.950 . S
C702 C703 1.349 . S
C702 C704 1.327 . S
C702 H727 0.950 . S
C703 C702 1.349 . S
C703 C719 1.349 . S
C704 C702 1.327 . S
C704 C723 1.429 . S
C704 H728 0.950 . S
C705 C722 1.574 1_655 S
C705 C724 1.368 . S
C705 H729 0.949 . S
H706 C710 0.949 . S
C707 C708 1.349 . S
C707 C709 1.327 . S
C707 H730 0.950 . S
C708 C707 1.349 . S
C708 C720 1.349 . S
C709 C707 1.327 . S
C709 C725 1.429 . S
C709 H731 0.950 . S
C710 H706 0.949 . S
C710 C718 1.574 1_455 S
C710 C726 1.368 . S
H711 C719 0.950 . S
H712 C717 0.950 . S
H713 C718 0.949 . S
H714 C720 0.950 . S
H715 C721 0.950 . S
H716 C722 0.949 . S
C717 H712 0.950 . S
C717 C719 1.327 . S
C717 C723 1.429 . S
C718 C710 1.574 1_655 S
C718 H713 0.949 . S
C718 C724 1.368 . S
C719 C703 1.349 . S
C719 H711 0.950 . S
C719 C717 1.327 . S
C720 C708 1.349 . S
C720 H714 0.950 . S
C720 C721 1.327 . S
C721 H715 0.950 . S
C721 C720 1.327 . S
C721 C725 1.429 . S
C722 C705 1.574 1_455 S
C722 H716 0.949 . S
C722 C726 1.368 . S
C723 C704 1.429 . S
C723 C717 1.429 . S
C723 C724 1.523 . S
C724 C705 1.368 . S
C724 C718 1.368 . S
C724 C723 1.523 . S
C725 C709 1.429 . S
C725 C721 1.429 . S
C725 C726 1.523 . S
C726 C710 1.368 . S
C726 C722 1.368 . S
C726 C725 1.523 . S
H727 C702 0.950 . S
H728 C704 0.950 . S
H729 C705 0.949 . S
H730 C707 0.950 . S
H731 C709 0.950 . S
C732 C733 1.349 . S
C732 C734 1.327 . S
C732 H757 0.950 . S
C733 C732 1.349 . S
C733 C749 1.349 . S
C734 C732 1.327 . S
C734 C753 1.429 . S
C734 H758 0.950 . S
C735 C752 1.574 . S
C735 C754 1.368 . S
C735 H759 0.949 . S
H736 C740 0.949 . S
C737 C738 1.349 . S
C737 C739 1.327 . S
C737 H760 0.950 . S
C738 C737 1.349 . S
C738 C750 1.349 . S
C739 C737 1.327 . S
C739 C755 1.429 . S
C739 H761 0.950 . S
C740 H736 0.949 . S
C740 C748 1.574 . S
C740 C756 1.368 . S
H741 C749 0.950 . S
H742 C747 0.950 . S
H743 C748 0.949 . S
H744 C750 0.950 . S
H745 C751 0.950 . S
H746 C752 0.949 . S
C747 H742 0.950 . S
C747 C749 1.327 . S
C747 C753 1.429 . S
C748 C740 1.574 . S
C748 H743 0.949 . S
C748 C754 1.368 . S
C749 C733 1.349 . S
C749 H741 0.950 . S
C749 C747 1.327 . S
C750 C738 1.349 . S
C750 H744 0.950 . S
C750 C751 1.327 . S
C751 H745 0.950 . S
C751 C750 1.327 . S
C751 C755 1.429 . S
C752 C735 1.574 . S
C752 H746 0.949 . S
C752 C756 1.368 . S
C753 C734 1.429 . S
C753 C747 1.429 . S
C753 C754 1.523 . S
C754 C735 1.368 . S
C754 C748 1.368 . S
C754 C753 1.523 . S
C755 C739 1.429 . S
C755 C751 1.429 . S
C755 C756 1.523 . S
C756 C740 1.368 . S
C756 C752 1.368 . S
C756 C755 1.523 . S
H757 C732 0.950 . S
H758 C734 0.950 . S
H759 C735 0.949 . S
H760 C737 0.950 . S
H761 C739 0.950 . S
C762 C763 1.349 . S
C762 C764 1.327 . S
C762 H787 0.950 . S
C763 C762 1.349 . S
C763 C779 1.349 . S
C764 C762 1.327 . S
C764 C783 1.429 . S
C764 H788 0.950 . S
C765 C782 1.574 1_545 S
C765 C784 1.368 . S
C765 H789 0.949 . S
H766 C770 0.949 . S
C767 C768 1.349 . S
C767 C769 1.327 . S
C767 H790 0.950 . S
C768 C767 1.349 . S
C768 C780 1.349 . S
C769 C767 1.327 . S
C769 C785 1.429 . S
C769 H791 0.950 . S
C770 H766 0.949 . S
C770 C778 1.574 1_565 S
C770 C786 1.368 . S
H771 C779 0.950 . S
H772 C777 0.950 . S
H773 C778 0.949 . S
H774 C780 0.950 . S
H775 C781 0.950 . S
H776 C782 0.949 . S
C777 H772 0.950 . S
C777 C779 1.327 . S
C777 C783 1.429 . S
C778 C770 1.574 1_545 S
C778 H773 0.949 . S
C778 C784 1.368 . S
C779 C763 1.349 . S
C779 H771 0.950 . S
C779 C777 1.327 . S
C780 C768 1.349 . S
C780 H774 0.950 . S
C780 C781 1.327 . S
C781 H775 0.950 . S
C781 C780 1.327 . S
C781 C785 1.429 . S
C782 C765 1.574 1_565 S
C782 H776 0.949 . S
C782 C786 1.368 . S
C783 C764 1.429 . S
C783 C777 1.429 . S
C783 C784 1.523 . S
C784 C765 1.368 . S
C784 C778 1.368 . S
C784 C783 1.523 . S
C785 C769 1.429 . S
C785 C781 1.429 . S
C785 C786 1.523 . S
C786 C770 1.368 . S
C786 C782 1.368 . S
C786 C785 1.523 . S
H787 C762 0.950 . S
H788 C764 0.950 . S
H789 C765 0.949 . S
H790 C767 0.950 . S
H791 C769 0.950 . S
C792 C793 1.349 . S
C792 C794 1.327 . S
C792 H817 0.950 . S
C793 C792 1.349 . S
C793 C809 1.349 . S
C794 C792 1.327 . S
C794 C813 1.429 . S
C794 H818 0.950 . S
C795 C812 1.574 . S
C795 C814 1.368 . S
C795 H819 0.949 . S
H796 C800 0.949 . S
C797 C798 1.349 . S
C797 C799 1.327 . S
C797 H820 0.950 . S
C798 C797 1.349 . S
C798 C810 1.349 . S
C799 C797 1.327 . S
C799 C815 1.429 . S
C799 H821 0.950 . S
C800 H796 0.949 . S
C800 C808 1.574 . S
C800 C816 1.368 . S
H801 C809 0.950 . S
H802 C807 0.950 . S
H803 C808 0.949 . S
H804 C810 0.950 . S
H805 C811 0.950 . S
H806 C812 0.949 . S
C807 H802 0.950 . S
C807 C809 1.327 . S
C807 C813 1.429 . S
C808 C800 1.574 . S
C808 H803 0.949 . S
C808 C814 1.368 . S
C809 C793 1.349 . S
C809 H801 0.950 . S
C809 C807 1.327 . S
C810 C798 1.349 . S
C810 H804 0.950 . S
C810 C811 1.327 . S
C811 H805 0.950 . S
C811 C810 1.327 . S
C811 C815 1.429 . S
C812 C795 1.574 . S
C812 H806 0.949 . S
C812 C816 1.368 . S
C813 C794 1.429 . S
C813 C807 1.429 . S
C813 C814 1.523 . S
C814 C795 1.368 . S
C814 C808 1.368 . S
C814 C813 1.523 . S
C815 C799 1.429 . S
C815 C811 1.429 . S
C815 C816 1.523 . S
C816 C800 1.368 . S
C816 C812 1.368 . S
C816 C815 1.523 . S
H817 C792 0.950 . S
H818 C794 0.950 . S
H819 C795 0.949 . S
H820 C797 0.950 . S
H821 C799 0.950 . S
C822 C823 1.349 . S
C822 C824 1.327 . S
C822 H847 0.950 . S
C823 C822 1.349 . S
C823 C839 1.349 . S
C824 C822 1.327 . S
C824 C843 1.429 . S
C824 H848 0.950 . S
C825 C842 1.574 . S
C825 C844 1.368 . S
C825 H849 0.949 . S
H826 C830 0.949 . S
C827 C828 1.349 . S
C827 C829 1.327 . S
C827 H850 0.950 . S
C828 C827 1.349 . S
C828 C840 1.349 . S
C829 C827 1.327 . S
C829 C845 1.429 . S
C829 H851 0.950 . S
C830 H826 0.949 . S
C830 C838 1.574 . S
C830 C846 1.368 . S
H831 C839 0.950 . S
H832 C837 0.950 . S
H833 C838 0.949 . S
H834 C840 0.950 . S
H835 C841 0.950 . S
H836 C842 0.949 . S
C837 H832 0.950 . S
C837 C839 1.327 . S
C837 C843 1.429 . S
C838 C830 1.574 . S
C838 H833 0.949 . S
C838 C844 1.368 . S
C839 C823 1.349 . S
C839 H831 0.950 . S
C839 C837 1.327 . S
C840 C828 1.349 . S
C840 H834 0.950 . S
C840 C841 1.327 . S
C841 H835 0.950 . S
C841 C840 1.327 . S
C841 C845 1.429 . S
C842 C825 1.574 . S
C842 H836 0.949 . S
C842 C846 1.368 . S
C843 C824 1.429 . S
C843 C837 1.429 . S
C843 C844 1.523 . S
C844 C825 1.368 . S
C844 C838 1.368 . S
C844 C843 1.523 . S
C845 C829 1.429 . S
C845 C841 1.429 . S
C845 C846 1.523 . S
C846 C830 1.368 . S
C846 C842 1.368 . S
C846 C845 1.523 . S
H847 C822 0.950 . S
H848 C824 0.950 . S
H849 C825 0.949 . S
H850 C827 0.950 . S
H851 C829 0.950 . S
C852 C853 1.349 . S
C852 C854 1.327 . S
C852 H877 0.950 . S
C853 C852 1.349 . S
C853 C869 1.349 . S
C854 C852 1.327 . S
C854 C873 1.429 . S
C854 H878 0.950 . S
C855 C872 1.574 . S
C855 C874 1.368 . S
C855 H879 0.949 . S
H856 C860 0.949 . S
C857 C858 1.349 . S
C857 C859 1.327 . S
C857 H880 0.950 . S
C858 C857 1.349 . S
C858 C870 1.349 . S
C859 C857 1.327 . S
C859 C875 1.429 . S
C859 H881 0.950 . S
C860 H856 0.949 . S
C860 C868 1.574 . S
C860 C876 1.368 . S
H861 C869 0.950 . S
H862 C867 0.950 . S
H863 C868 0.949 . S
H864 C870 0.950 . S
H865 C871 0.950 . S
H866 C872 0.949 . S
C867 H862 0.950 . S
C867 C869 1.327 . S
C867 C873 1.429 . S
C868 C860 1.574 . S
C868 H863 0.949 . S
C868 C874 1.368 . S
C869 C853 1.349 . S
C869 H861 0.950 . S
C869 C867 1.327 . S
C870 C858 1.349 . S
C870 H864 0.950 . S
C870 C871 1.327 . S
C871 H865 0.950 . S
C871 C870 1.327 . S
C871 C875 1.429 . S
C872 C855 1.574 . S
C872 H866 0.949 . S
C872 C876 1.368 . S
C873 C854 1.429 . S
C873 C867 1.429 . S
C873 C874 1.523 . S
C874 C855 1.368 . S
C874 C868 1.368 . S
C874 C873 1.523 . S
C875 C859 1.429 . S
C875 C871 1.429 . S
C875 C876 1.523 . S
C876 C860 1.368 . S
C876 C872 1.368 . S
C876 C875 1.523 . S
H877 C852 0.950 . S
H878 C854 0.950 . S
H879 C855 0.949 . S
H880 C857 0.950 . S
H881 C859 0.950 . S
C882 C883 1.349 . S
C882 C884 1.327 . S
C882 H907 0.950 . S
C883 C882 1.349 . S
C883 C899 1.349 . S
C884 C882 1.327 . S
C884 C903 1.429 . S
C884 H908 0.950 . S
C885 C902 1.574 . S
C885 C904 1.368 . S
C885 H909 0.949 . S
H886 C890 0.949 . S
C887 C888 1.349 . S
C887 C889 1.327 . S
C887 H910 0.950 . S
C888 C887 1.349 . S
C888 C900 1.349 . S
C889 C887 1.327 . S
C889 C905 1.429 . S
C889 H911 0.950 . S
C890 H886 0.949 . S
C890 C898 1.574 . S
C890 C906 1.368 . S
H891 C899 0.950 . S
H892 C897 0.950 . S
H893 C898 0.949 . S
H894 C900 0.950 . S
H895 C901 0.950 . S
H896 C902 0.949 . S
C897 H892 0.950 . S
C897 C899 1.327 . S
C897 C903 1.429 . S
C898 C890 1.574 . S
C898 H893 0.949 . S
C898 C904 1.368 . S
C899 C883 1.349 . S
C899 H891 0.950 . S
C899 C897 1.327 . S
C900 C888 1.349 . S
C900 H894 0.950 . S
C900 C901 1.327 . S
C901 H895 0.950 . S
C901 C900 1.327 . S
C901 C905 1.429 . S
C902 C885 1.574 . S
C902 H896 0.949 . S
C902 C906 1.368 . S
C903 C884 1.429 . S
C903 C897 1.429 . S
C903 C904 1.523 . S
C904 C885 1.368 . S
C904 C898 1.368 . S
C904 C903 1.523 . S
C905 C889 1.429 . S
C905 C901 1.429 . S
C905 C906 1.523 . S
C906 C890 1.368 . S
C906 C902 1.368 . S
C906 C905 1.523 . S
H907 C882 0.950 . S
H908 C884 0.950 . S
H909 C885 0.949 . S
H910 C887 0.950 . S
H911 C889 0.950 . S
C912 C913 1.349 . S
C912 C914 1.327 . S
C912 H937 0.950 . S
C913 C912 1.349 . S
C913 C929 1.349 . S
C914 C912 1.327 . S
C914 C933 1.429 . S
C914 H938 0.950 . S
C915 C932 1.574 . S
C915 C934 1.368 . S
C915 H939 0.949 . S
H916 C920 0.949 . S
C917 C918 1.349 . S
C917 C919 1.327 . S
C917 H940 0.950 . S
C918 C917 1.349 . S
C918 C930 1.349 . S
C919 C917 1.327 . S
C919 C935 1.429 . S
C919 H941 0.950 . S
C920 H916 0.949 . S
C920 C928 1.574 . S
C920 C936 1.368 . S
H921 C929 0.950 . S
H922 C927 0.950 . S
H923 C928 0.949 . S
H924 C930 0.950 . S
H925 C931 0.950 . S
H926 C932 0.949 . S
C927 H922 0.950 . S
C927 C929 1.327 . S
C927 C933 1.429 . S
C928 C920 1.574 . S
C928 H923 0.949 . S
C928 C934 1.368 . S
C929 C913 1.349 . S
C929 H921 0.950 . S
C929 C927 1.327 . S
C930 C918 1.349 . S
C930 H924 0.950 . S
C930 C931 1.327 . S
C931 H925 0.950 . S
C931 C930 1.327 . S
C931 C935 1.429 . S
C932 C915 1.574 . S
C932 H926 0.949 . S
C932 C936 1.368 . S
C933 C914 1.429 . S
C933 C927 1.429 . S
C933 C934 1.523 . S
C934 C915 1.368 . S
C934 C928 1.368 . S
C934 C933 1.523 . S
C935 C919 1.429 . S
C935 C931 1.429 . S
C935 C936 1.523 . S
C936 C920 1.368 . S
C936 C932 1.368 . S
C936 C935 1.523 . S
H937 C912 0.950 . S
H938 C914 0.950 . S
H939 C915 0.949 . S
H940 C917 0.950 . S
H941 C919 0.950 . S
C942 C943 1.349 . S
C942 C944 1.327 . S
C942 H967 0.950 . S
C943 C942 1.349 . S
C943 C959 1.349 . S
C944 C942 1.327 . S
C944 C963 1.429 . S
C944 H968 0.950 . S
C945 C962 1.574 . S
C945 C964 1.368 . S
C945 H969 0.949 . S
H946 C950 0.949 . S
C947 C948 1.349 . S
C947 C949 1.327 . S
C947 H970 0.950 . S
C948 C947 1.349 . S
C948 C960 1.349 . S
C949 C947 1.327 . S
C949 C965 1.429 . S
C949 H971 0.950 . S
C950 H946 0.949 . S
C950 C958 1.574 . S
C950 C966 1.368 . S
H951 C959 0.950 . S
H952 C957 0.950 . S
H953 C958 0.949 . S
H954 C960 0.950 . S
H955 C961 0.950 . S
H956 C962 0.949 . S
C957 H952 0.950 . S
C957 C959 1.327 . S
C957 C963 1.429 . S
C958 C950 1.574 . S
C958 H953 0.949 . S
C958 C964 1.368 . S
C959 C943 1.349 . S
C959 H951 0.950 . S
C959 C957 1.327 . S
C960 C948 1.349 . S
C960 H954 0.950 . S
C960 C961 1.327 . S
C961 H955 0.950 . S
C961 C960 1.327 . S
C961 C965 1.429 . S
C962 C945 1.574 . S
C962 H956 0.949 . S
C962 C966 1.368 . S
C963 C944 1.429 . S
C963 C957 1.429 . S
C963 C964 1.523 . S
C964 C945 1.368 . S
C964 C958 1.368 . S
C964 C963 1.523 . S
C965 C949 1.429 . S
C965 C961 1.429 . S
C965 C966 1.523 . S
C966 C950 1.368 . S
C966 C962 1.368 . S
C966 C965 1.523 . S
H967 C942 0.950 . S
H968 C944 0.950 . S
H969 C945 0.949 . S
H970 C947 0.950 . S
H971 C949 0.950 . S
C972 C973 1.349 . S
C972 C974 1.327 . S
C972 H997 0.950 . S
C973 C972 1.349 . S
C973 C989 1.349 . S
C974 C972 1.327 . S
C974 C993 1.429 . S
C974 H998 0.950 . S
C975 C992 1.574 1_545 S
C975 C994 1.368 . S
C975 H999 0.949 . S
H976 C980 0.949 . S
C977 C978 1.349 . S
C977 C979 1.327 . S
C977 H1000 0.950 . S
C978 C977 1.349 . S
C978 C990 1.349 . S
C979 C977 1.327 . S
C979 C995 1.429 . S
C979 H1001 0.950 . S
C980 H976 0.949 . S
C980 C988 1.574 1_565 S
C980 C996 1.368 . S
H981 C989 0.950 . S
H982 C987 0.950 . S
H983 C988 0.949 . S
H984 C990 0.950 . S
H985 C991 0.950 . S
H986 C992 0.949 . S
C987 H982 0.950 . S
C987 C989 1.327 . S
C987 C993 1.429 . S
C988 C980 1.574 1_545 S
C988 H983 0.949 . S
C988 C994 1.368 . S
C989 C973 1.349 . S
C989 H981 0.950 . S
C989 C987 1.327 . S
C990 C978 1.349 . S
C990 H984 0.950 . S
C990 C991 1.327 . S
C991 H985 0.950 . S
C991 C990 1.327 . S
C991 C995 1.429 . S
C992 C975 1.574 1_565 S
C992 H986 0.949 . S
C992 C996 1.368 . S
C993 C974 1.429 . S
C993 C987 1.429 . S
C993 C994 1.523 . S
C994 C975 1.368 . S
C994 C988 1.368 . S
C994 C993 1.523 . S
C995 C979 1.429 . S
C995 C991 1.429 . S
C995 C996 1.523 . S
C996 C980 1.368 . S
C996 C992 1.368 . S
C996 C995 1.523 . S
H997 C972 0.950 . S
H998 C974 0.950 . S
H999 C975 0.949 . S
H1000 C977 0.950 . S
H1001 C979 0.950 . S
C1002 C1003 1.349 . S
C1002 C1004 1.327 . S
C1002 H1027 0.950 . S
C1003 C1002 1.349 . S
C1003 C1019 1.349 . S
C1004 C1002 1.327 . S
C1004 C1023 1.429 . S
C1004 H1028 0.950 . S
C1005 C1022 1.574 . S
C1005 C1024 1.368 1_455 S
C1005 H1029 0.949 . S
H1006 C1010 0.949 . S
C1007 C1008 1.349 . S
C1007 C1009 1.327 . S
C1007 H1030 0.950 . S
C1008 C1007 1.349 . S
C1008 C1020 1.349 . S
C1009 C1007 1.327 . S
C1009 C1025 1.429 . S
C1009 H1031 0.950 . S
C1010 H1006 0.949 . S
C1010 C1018 1.574 1_455 S
C1010 C1026 1.368 . S
H1011 C1019 0.950 . S
H1012 C1017 0.950 . S
H1013 C1018 0.949 . S
H1014 C1020 0.950 . S
H1015 C1021 0.950 . S
H1016 C1022 0.949 . S
C1017 H1012 0.950 . S
C1017 C1019 1.327 . S
C1017 C1023 1.429 . S
C1018 C1010 1.574 1_655 S
C1018 H1013 0.949 . S
C1018 C1024 1.368 . S
C1019 C1003 1.349 . S
C1019 H1011 0.950 . S
C1019 C1017 1.327 . S
C1020 C1008 1.349 . S
C1020 H1014 0.950 . S
C1020 C1021 1.327 . S
C1021 H1015 0.950 . S
C1021 C1020 1.327 . S
C1021 C1025 1.429 . S
C1022 C1005 1.574 . S
C1022 H1016 0.949 . S
C1022 C1026 1.368 . S
C1023 C1004 1.429 . S
C1023 C1017 1.429 . S
C1023 C1024 1.523 . S
C1024 C1005 1.368 1_655 S
C1024 C1018 1.368 . S
C1024 C1023 1.523 . S
C1025 C1009 1.429 . S
C1025 C1021 1.429 . S
C1025 C1026 1.523 . S
C1026 C1010 1.368 . S
C1026 C1022 1.368 . S
C1026 C1025 1.523 . S
H1027 C1002 0.950 . S
H1028 C1004 0.950 . S
H1029 C1005 0.949 . S
H1030 C1007 0.950 . S
H1031 C1009 0.950 . S
C1032 C1033 1.349 . S
C1032 C1034 1.327 . S
C1032 H1057 0.950 . S
C1033 C1032 1.349 . S
C1033 C1049 1.349 . S
C1034 C1032 1.327 . S
C1034 C1053 1.429 . S
C1034 H1058 0.950 . S
C1035 C1052 1.574 . S
C1035 C1054 1.368 . S
C1035 H1059 0.949 . S
H1036 C1040 0.949 . S
C1037 C1038 1.349 . S
C1037 C1039 1.327 . S
C1037 H1060 0.950 . S
C1038 C1037 1.349 . S
C1038 C1050 1.349 . S
C1039 C1037 1.327 . S
C1039 C1055 1.429 . S
C1039 H1061 0.950 . S
C1040 H1036 0.949 . S
C1040 C1048 1.574 . S
C1040 C1056 1.368 . S
H1041 C1049 0.950 . S
H1042 C1047 0.950 . S
H1043 C1048 0.949 . S
H1044 C1050 0.950 . S
H1045 C1051 0.950 . S
H1046 C1052 0.949 . S
C1047 H1042 0.950 . S
C1047 C1049 1.327 . S
C1047 C1053 1.429 . S
C1048 C1040 1.574 . S
C1048 H1043 0.949 . S
C1048 C1054 1.368 . S
C1049 C1033 1.349 . S
C1049 H1041 0.950 . S
C1049 C1047 1.327 . S
C1050 C1038 1.349 . S
C1050 H1044 0.950 . S
C1050 C1051 1.327 . S
C1051 H1045 0.950 . S
C1051 C1050 1.327 . S
C1051 C1055 1.429 . S
C1052 C1035 1.574 . S
C1052 H1046 0.949 . S
C1052 C1056 1.368 . S
C1053 C1034 1.429 . S
C1053 C1047 1.429 . S
C1053 C1054 1.523 . S
C1054 C1035 1.368 . S
C1054 C1048 1.368 . S
C1054 C1053 1.523 . S
C1055 C1039 1.429 . S
C1055 C1051 1.429 . S
C1055 C1056 1.523 . S
C1056 C1040 1.368 . S
C1056 C1052 1.368 . S
C1056 C1055 1.523 . S
H1057 C1032 0.950 . S
H1058 C1034 0.950 . S
H1059 C1035 0.949 . S
H1060 C1037 0.950 . S
H1061 C1039 0.950 . S
C1062 C1063 1.349 . S
C1062 C1064 1.327 . S
C1062 H1087 0.950 . S
C1063 C1062 1.349 . S
C1063 C1079 1.349 . S
C1064 C1062 1.327 . S
C1064 C1083 1.429 . S
C1064 H1088 0.950 . S
C1065 C1082 1.574 . S
C1065 C1084 1.368 . S
C1065 H1089 0.949 . S
H1066 C1070 0.949 . S
C1067 C1068 1.349 . S
C1067 C1069 1.327 . S
C1067 H1090 0.950 . S
C1068 C1067 1.349 . S
C1068 C1080 1.349 . S
C1069 C1067 1.327 . S
C1069 C1085 1.429 . S
C1069 H1091 0.950 . S
C1070 H1066 0.949 . S
C1070 C1078 1.574 . S
C1070 C1086 1.368 . S
H1071 C1079 0.950 . S
H1072 C1077 0.950 . S
H1073 C1078 0.949 . S
H1074 C1080 0.950 . S
H1075 C1081 0.950 . S
H1076 C1082 0.949 . S
C1077 H1072 0.950 . S
C1077 C1079 1.327 . S
C1077 C1083 1.429 . S
C1078 C1070 1.574 . S
C1078 H1073 0.949 . S
C1078 C1084 1.368 . S
C1079 C1063 1.349 . S
C1079 H1071 0.950 . S
C1079 C1077 1.327 . S
C1080 C1068 1.349 . S
C1080 H1074 0.950 . S
C1080 C1081 1.327 . S
C1081 H1075 0.950 . S
C1081 C1080 1.327 . S
C1081 C1085 1.429 . S
C1082 C1065 1.574 . S
C1082 H1076 0.949 . S
C1082 C1086 1.368 . S
C1083 C1064 1.429 . S
C1083 C1077 1.429 . S
C1083 C1084 1.523 . S
C1084 C1065 1.368 . S
C1084 C1078 1.368 . S
C1084 C1083 1.523 . S
C1085 C1069 1.429 . S
C1085 C1081 1.429 . S
C1085 C1086 1.523 . S
C1086 C1070 1.368 . S
C1086 C1082 1.368 . S
C1086 C1085 1.523 . S
H1087 C1062 0.950 . S
H1088 C1064 0.950 . S
H1089 C1065 0.949 . S
H1090 C1067 0.950 . S
H1091 C1069 0.950 . S
C1092 C1093 1.349 . S
C1092 C1094 1.327 . S
C1092 H1117 0.950 . S
C1093 C1092 1.349 . S
C1093 C1109 1.349 . S
C1094 C1092 1.327 . S
C1094 C1113 1.429 . S
C1094 H1118 0.950 . S
C1095 C1112 1.574 . S
C1095 C1114 1.368 . S
C1095 H1119 0.949 . S
H1096 C1100 0.949 . S
C1097 C1098 1.349 . S
C1097 C1099 1.327 . S
C1097 H1120 0.950 . S
C1098 C1097 1.349 . S
C1098 C1110 1.349 . S
C1099 C1097 1.327 . S
C1099 C1115 1.429 . S
C1099 H1121 0.950 . S
C1100 H1096 0.949 . S
C1100 C1108 1.574 . S
C1100 C1116 1.368 . S
H1101 C1109 0.950 . S
H1102 C1107 0.950 . S
H1103 C1108 0.949 . S
H1104 C1110 0.950 . S
H1105 C1111 0.950 . S
H1106 C1112 0.949 . S
C1107 H1102 0.950 . S
C1107 C1109 1.327 . S
C1107 C1113 1.429 . S
C1108 C1100 1.574 . S
C1108 H1103 0.949 . S
C1108 C1114 1.368 . S
C1109 C1093 1.349 . S
C1109 H1101 0.950 . S
C1109 C1107 1.327 . S
C1110 C1098 1.349 . S
C1110 H1104 0.950 . S
C1110 C1111 1.327 . S
C1111 H1105 0.950 . S
C1111 C1110 1.327 . S
C1111 C1115 1.429 . S
C1112 C1095 1.574 . S
C1112 H1106 0.949 . S
C1112 C1116 1.368 . S
C1113 C1094 1.429 . S
C1113 C1107 1.429 . S
C1113 C1114 1.523 . S
C1114 C1095 1.368 . S
C1114 C1108 1.368 . S
C1114 C1113 1.523 . S
C1115 C1099 1.429 . S
C1115 C1111 1.429 . S
C1115 C1116 1.523 . S
C1116 C1100 1.368 . S
C1116 C1112 1.368 . S
C1116 C1115 1.523 . S
H1117 C1092 0.950 . S
H1118 C1094 0.950 . S
H1119 C1095 0.949 . S
H1120 C1097 0.950 . S
H1121 C1099 0.950 . S
C1122 C1123 1.349 . S
C1122 C1124 1.327 . S
C1122 H1147 0.950 . S
C1123 C1122 1.349 . S
C1123 C1139 1.349 . S
C1124 C1122 1.327 . S
C1124 C1143 1.429 . S
C1124 H1148 0.950 . S
C1125 C1142 1.574 . S
C1125 C1144 1.368 . S
C1125 H1149 0.949 . S
H1126 C1130 0.949 . S
C1127 C1128 1.349 . S
C1127 C1129 1.327 . S
C1127 H1150 0.950 . S
C1128 C1127 1.349 . S
C1128 C1140 1.349 . S
C1129 C1127 1.327 . S
C1129 C1145 1.429 . S
C1129 H1151 0.950 . S
C1130 H1126 0.949 . S
C1130 C1138 1.574 . S
C1130 C1146 1.368 . S
H1131 C1139 0.950 . S
H1132 C1137 0.950 . S
H1133 C1138 0.949 . S
H1134 C1140 0.950 . S
H1135 C1141 0.950 . S
H1136 C1142 0.949 . S
C1137 H1132 0.950 . S
C1137 C1139 1.327 . S
C1137 C1143 1.429 . S
C1138 C1130 1.574 . S
C1138 H1133 0.949 . S
C1138 C1144 1.368 . S
C1139 C1123 1.349 . S
C1139 H1131 0.950 . S
C1139 C1137 1.327 . S
C1140 C1128 1.349 . S
C1140 H1134 0.950 . S
C1140 C1141 1.327 . S
C1141 H1135 0.950 . S
C1141 C1140 1.327 . S
C1141 C1145 1.429 . S
C1142 C1125 1.574 . S
C1142 H1136 0.949 . S
C1142 C1146 1.368 . S
C1143 C1124 1.429 . S
C1143 C1137 1.429 . S
C1143 C1144 1.523 . S
C1144 C1125 1.368 . S
C1144 C1138 1.368 . S
C1144 C1143 1.523 . S
C1145 C1129 1.429 . S
C1145 C1141 1.429 . S
C1145 C1146 1.523 . S
C1146 C1130 1.368 . S
C1146 C1142 1.368 . S
C1146 C1145 1.523 . S
H1147 C1122 0.950 . S
H1148 C1124 0.950 . S
H1149 C1125 0.949 . S
H1150 C1127 0.950 . S
H1151 C1129 0.950 . S
C1152 C1153 1.349 . S
C1152 C1154 1.327 . S
C1152 H1177 0.950 . S
C1153 C1152 1.349 . S
C1153 C1169 1.349 . S
C1154 C1152 1.327 . S
C1154 C1173 1.429 . S
C1154 H1178 0.950 . S
C1155 C1172 1.574 1_565 S
C1155 C1174 1.368 . S
C1155 H1179 0.949 . S
H1156 C1160 0.949 . S
C1157 C1158 1.349 . S
C1157 C1159 1.327 . S
C1157 H1180 0.950 . S
C1158 C1157 1.349 . S
C1158 C1170 1.349 . S
C1159 C1157 1.327 . S
C1159 C1175 1.429 . S
C1159 H1181 0.950 . S
C1160 H1156 0.949 . S
C1160 C1168 1.574 1_545 S
C1160 C1176 1.368 . S
H1161 C1169 0.950 . S
H1162 C1167 0.950 . S
H1163 C1168 0.949 . S
H1164 C1170 0.950 . S
H1165 C1171 0.950 . S
H1166 C1172 0.949 . S
C1167 H1162 0.950 . S
C1167 C1169 1.327 . S
C1167 C1173 1.429 . S
C1168 C1160 1.574 1_565 S
C1168 H1163 0.949 . S
C1168 C1174 1.368 . S
C1169 C1153 1.349 . S
C1169 H1161 0.950 . S
C1169 C1167 1.327 . S
C1170 C1158 1.349 . S
C1170 H1164 0.950 . S
C1170 C1171 1.327 . S
C1171 H1165 0.950 . S
C1171 C1170 1.327 . S
C1171 C1175 1.429 . S
C1172 C1155 1.574 1_545 S
C1172 H1166 0.949 . S
C1172 C1176 1.368 . S
C1173 C1154 1.429 . S
C1173 C1167 1.429 . S
C1173 C1174 1.523 . S
C1174 C1155 1.368 . S
C1174 C1168 1.368 . S
C1174 C1173 1.523 . S
C1175 C1159 1.429 . S
C1175 C1171 1.429 . S
C1175 C1176 1.523 . S
C1176 C1160 1.368 . S
C1176 C1172 1.368 . S
C1176 C1175 1.523 . S
H1177 C1152 0.950 . S
H1178 C1154 0.950 . S
H1179 C1155 0.949 . S
H1180 C1157 0.950 . S
H1181 C1159 0.950 . S
C1182 C1183 1.349 . S
C1182 C1184 1.327 . S
C1182 H1207 0.950 . S
C1183 C1182 1.349 . S
C1183 C1199 1.349 . S
C1184 C1182 1.327 . S
C1184 C1203 1.429 . S
C1184 H1208 0.950 . S
C1185 C1202 1.574 1_455 S
C1185 C1204 1.368 . S
C1185 H1209 0.949 . S
H1186 C1190 0.949 . S
C1187 C1188 1.349 . S
C1187 C1189 1.327 . S
C1187 H1210 0.950 . S
C1188 C1187 1.349 . S
C1188 C1200 1.349 . S
C1189 C1187 1.327 . S
C1189 C1205 1.429 . S
C1189 H1211 0.950 . S
C1190 H1186 0.949 . S
C1190 C1198 1.574 1_655 S
C1190 C1206 1.368 . S
H1191 C1199 0.950 . S
H1192 C1197 0.950 . S
H1193 C1198 0.949 . S
H1194 C1200 0.950 . S
H1195 C1201 0.950 . S
H1196 C1202 0.949 . S
C1197 H1192 0.950 . S
C1197 C1199 1.327 . S
C1197 C1203 1.429 . S
C1198 C1190 1.574 1_455 S
C1198 H1193 0.949 . S
C1198 C1204 1.368 . S
C1199 C1183 1.349 . S
C1199 H1191 0.950 . S
C1199 C1197 1.327 . S
C1200 C1188 1.349 . S
C1200 H1194 0.950 . S
C1200 C1201 1.327 . S
C1201 H1195 0.950 . S
C1201 C1200 1.327 . S
C1201 C1205 1.429 . S
C1202 C1185 1.574 1_655 S
C1202 H1196 0.949 . S
C1202 C1206 1.368 . S
C1203 C1184 1.429 . S
C1203 C1197 1.429 . S
C1203 C1204 1.523 . S
C1204 C1185 1.368 . S
C1204 C1198 1.368 . S
C1204 C1203 1.523 . S
C1205 C1189 1.429 . S
C1205 C1201 1.429 . S
C1205 C1206 1.523 . S
C1206 C1190 1.368 . S
C1206 C1202 1.368 . S
C1206 C1205 1.523 . S
H1207 C1182 0.950 . S
H1208 C1184 0.950 . S
H1209 C1185 0.949 . S
H1210 C1187 0.950 . S
H1211 C1189 0.950 . S
C1212 C1213 1.349 . S
C1212 C1214 1.327 . S
C1212 H1237 0.950 . S
C1213 C1212 1.349 . S
C1213 C1229 1.349 . S
C1214 C1212 1.327 . S
C1214 C1233 1.429 . S
C1214 H1238 0.950 . S
C1215 C1232 1.574 . S
C1215 C1234 1.368 . S
C1215 H1239 0.949 . S
H1216 C1220 0.949 . S
C1217 C1218 1.349 . S
C1217 C1219 1.327 . S
C1217 H1240 0.950 . S
C1218 C1217 1.349 . S
C1218 C1230 1.349 . S
C1219 C1217 1.327 . S
C1219 C1235 1.429 . S
C1219 H1241 0.950 . S
C1220 H1216 0.949 . S
C1220 C1228 1.574 . S
C1220 C1236 1.368 . S
H1221 C1229 0.950 . S
H1222 C1227 0.950 . S
H1223 C1228 0.949 . S
H1224 C1230 0.950 . S
H1225 C1231 0.950 . S
H1226 C1232 0.949 . S
C1227 H1222 0.950 . S
C1227 C1229 1.327 . S
C1227 C1233 1.429 . S
C1228 C1220 1.574 . S
C1228 H1223 0.949 . S
C1228 C1234 1.368 . S
C1229 C1213 1.349 . S
C1229 H1221 0.950 . S
C1229 C1227 1.327 . S
C1230 C1218 1.349 . S
C1230 H1224 0.950 . S
C1230 C1231 1.327 . S
C1231 H1225 0.950 . S
C1231 C1230 1.327 . S
C1231 C1235 1.429 . S
C1232 C1215 1.574 . S
C1232 H1226 0.949 . S
C1232 C1236 1.368 . S
C1233 C1214 1.429 . S
C1233 C1227 1.429 . S
C1233 C1234 1.523 . S
C1234 C1215 1.368 . S
C1234 C1228 1.368 . S
C1234 C1233 1.523 . S
C1235 C1219 1.429 . S
C1235 C1231 1.429 . S
C1235 C1236 1.523 . S
C1236 C1220 1.368 . S
C1236 C1232 1.368 . S
C1236 C1235 1.523 . S
H1237 C1212 0.950 . S
H1238 C1214 0.950 . S
H1239 C1215 0.949 . S
H1240 C1217 0.950 . S
H1241 C1219 0.950 . S
C1242 C1243 1.349 . S
C1242 C1244 1.327 . S
C1242 H1267 0.950 . S
C1243 C1242 1.349 . S
C1243 C1259 1.349 . S
C1244 C1242 1.327 . S
C1244 C1263 1.429 . S
C1244 H1268 0.950 . S
C1245 C1262 1.574 1_455 S
C1245 C1264 1.368 . S
C1245 H1269 0.949 . S
H1246 C1250 0.949 . S
C1247 C1248 1.349 . S
C1247 C1249 1.327 . S
C1247 H1270 0.950 . S
C1248 C1247 1.349 . S
C1248 C1260 1.349 . S
C1249 C1247 1.327 . S
C1249 C1265 1.429 . S
C1249 H1271 0.950 . S
C1250 H1246 0.949 . S
C1250 C1258 1.574 1_655 S
C1250 C1266 1.368 . S
H1251 C1259 0.950 . S
H1252 C1257 0.950 . S
H1253 C1258 0.949 . S
H1254 C1260 0.950 . S
H1255 C1261 0.950 . S
H1256 C1262 0.949 . S
C1257 H1252 0.950 . S
C1257 C1259 1.327 . S
C1257 C1263 1.429 . S
C1258 C1250 1.574 1_455 S
C1258 H1253 0.949 . S
C1258 C1264 1.368 . S
C1259 C1243 1.349 . S
C1259 H1251 0.950 . S
C1259 C1257 1.327 . S
C1260 C1248 1.349 . S
C1260 H1254 0.950 . S
C1260 C1261 1.327 . S
C1261 H1255 0.950 . S
C1261 C1260 1.327 . S
C1261 C1265 1.429 . S
C1262 C1245 1.574 1_655 S
C1262 H1256 0.949 . S
C1262 C1266 1.368 . S
C1263 C1244 1.429 . S
C1263 C1257 1.429 . S
C1263 C1264 1.523 . S
C1264 C1245 1.368 . S
C1264 C1258 1.368 . S
C1264 C1263 1.523 . S
C1265 C1249 1.429 . S
C1265 C1261 1.429 . S
C1265 C1266 1.523 . S
C1266 C1250 1.368 . S
C1266 C1262 1.368 . S
C1266 C1265 1.523 . S
H1267 C1242 0.950 . S
H1268 C1244 0.950 . S
H1269 C1245 0.949 . S
H1270 C1247 0.950 . S
H1271 C1249 0.950 . S
C1272 C1273 1.349 . S
C1272 C1274 1.327 . S
C1272 H1297 0.950 . S
C1273 C1272 1.349 . S
C1273 C1289 1.349 . S
C1274 C1272 1.327 . S
C1274 C1293 1.429 . S
C1274 H1298 0.950 . S
C1275 C1292 1.574 . S
C1275 C1294 1.368 . S
C1275 H1299 0.949 . S
H1276 C1280 0.949 . S
C1277 C1278 1.349 . S
C1277 C1279 1.327 . S
C1277 H1300 0.950 . S
C1278 C1277 1.349 . S
C1278 C1290 1.349 . S
C1279 C1277 1.327 . S
C1279 C1295 1.429 . S
C1279 H1301 0.950 . S
C1280 H1276 0.949 . S
C1280 C1288 1.574 . S
C1280 C1296 1.368 . S
H1281 C1289 0.950 . S
H1282 C1287 0.950 . S
H1283 C1288 0.949 . S
H1284 C1290 0.950 . S
H1285 C1291 0.950 . S
H1286 C1292 0.949 . S
C1287 H1282 0.950 . S
C1287 C1289 1.327 . S
C1287 C1293 1.429 . S
C1288 C1280 1.574 . S
C1288 H1283 0.949 . S
C1288 C1294 1.368 . S
C1289 C1273 1.349 . S
C1289 H1281 0.950 . S
C1289 C1287 1.327 . S
C1290 C1278 1.349 . S
C1290 H1284 0.950 . S
C1290 C1291 1.327 . S
C1291 H1285 0.950 . S
C1291 C1290 1.327 . S
C1291 C1295 1.429 . S
C1292 C1275 1.574 . S
C1292 H1286 0.949 . S
C1292 C1296 1.368 . S
C1293 C1274 1.429 . S
C1293 C1287 1.429 . S
C1293 C1294 1.523 . S
C1294 C1275 1.368 . S
C1294 C1288 1.368 . S
C1294 C1293 1.523 . S
C1295 C1279 1.429 . S
C1295 C1291 1.429 . S
C1295 C1296 1.523 . S
C1296 C1280 1.368 . S
C1296 C1292 1.368 . S
C1296 C1295 1.523 . S
H1297 C1272 0.950 . S
H1298 C1274 0.950 . S
H1299 C1275 0.949 . S
H1300 C1277 0.950 . S
H1301 C1279 0.950 . S
C1302 C1303 1.349 . S
C1302 C1304 1.327 . S
C1302 H1327 0.950 . S
C1303 C1302 1.349 . S
C1303 C1319 1.349 . S
C1304 C1302 1.327 . S
C1304 C1323 1.429 . S
C1304 H1328 0.950 . S
C1305 C1322 1.574 1_565 S
C1305 C1324 1.368 . S
C1305 H1329 0.949 . S
H1306 C1310 0.949 . S
C1307 C1308 1.349 . S
C1307 C1309 1.327 . S
C1307 H1330 0.950 . S
C1308 C1307 1.349 . S
C1308 C1320 1.349 . S
C1309 C1307 1.327 . S
C1309 C1325 1.429 . S
C1309 H1331 0.950 . S
C1310 H1306 0.949 . S
C1310 C1318 1.574 1_545 S
C1310 C1326 1.368 . S
H1311 C1319 0.950 . S
H1312 C1317 0.950 . S
H1313 C1318 0.949 . S
H1314 C1320 0.950 . S
H1315 C1321 0.950 . S
H1316 C1322 0.949 . S
C1317 H1312 0.950 . S
C1317 C1319 1.327 . S
C1317 C1323 1.429 . S
C1318 C1310 1.574 1_565 S
C1318 H1313 0.949 . S
C1318 C1324 1.368 . S
C1319 C1303 1.349 . S
C1319 H1311 0.950 . S
C1319 C1317 1.327 . S
C1320 C1308 1.349 . S
C1320 H1314 0.950 . S
C1320 C1321 1.327 . S
C1321 H1315 0.950 . S
C1321 C1320 1.327 . S
C1321 C1325 1.429 . S
C1322 C1305 1.574 1_545 S
C1322 H1316 0.949 . S
C1322 C1326 1.368 . S
C1323 C1304 1.429 . S
C1323 C1317 1.429 . S
C1323 C1324 1.523 . S
C1324 C1305 1.368 . S
C1324 C1318 1.368 . S
C1324 C1323 1.523 . S
C1325 C1309 1.429 . S
C1325 C1321 1.429 . S
C1325 C1326 1.523 . S
C1326 C1310 1.368 . S
C1326 C1322 1.368 . S
C1326 C1325 1.523 . S
H1327 C1302 0.950 . S
H1328 C1304 0.950 . S
H1329 C1305 0.949 . S
H1330 C1307 0.950 . S
H1331 C1309 0.950 . S
C1332 C1333 1.349 . S
C1332 C1334 1.327 . S
C1332 H1357 0.950 . S
C1333 C1332 1.349 . S
C1333 C1349 1.349 . S
C1334 C1332 1.327 . S
C1334 C1353 1.429 . S
C1334 H1358 0.950 . S
C1335 C1352 1.574 . S
C1335 C1354 1.368 . S
C1335 H1359 0.949 . S
H1336 C1340 0.949 . S
C1337 C1338 1.349 . S
C1337 C1339 1.327 . S
C1337 H1360 0.950 . S
C1338 C1337 1.349 . S
C1338 C1350 1.349 . S
C1339 C1337 1.327 . S
C1339 C1355 1.429 . S
C1339 H1361 0.950 . S
C1340 H1336 0.949 . S
C1340 C1348 1.574 . S
C1340 C1356 1.368 . S
H1341 C1349 0.950 . S
H1342 C1347 0.950 . S
H1343 C1348 0.949 . S
H1344 C1350 0.950 . S
H1345 C1351 0.950 . S
H1346 C1352 0.949 . S
C1347 H1342 0.950 . S
C1347 C1349 1.327 . S
C1347 C1353 1.429 . S
C1348 C1340 1.574 . S
C1348 H1343 0.949 . S
C1348 C1354 1.368 . S
C1349 C1333 1.349 . S
C1349 H1341 0.950 . S
C1349 C1347 1.327 . S
C1350 C1338 1.349 . S
C1350 H1344 0.950 . S
C1350 C1351 1.327 . S
C1351 H1345 0.950 . S
C1351 C1350 1.327 . S
C1351 C1355 1.429 . S
C1352 C1335 1.574 . S
C1352 H1346 0.949 . S
C1352 C1356 1.368 . S
C1353 C1334 1.429 . S
C1353 C1347 1.429 . S
C1353 C1354 1.523 . S
C1354 C1335 1.368 . S
C1354 C1348 1.368 . S
C1354 C1353 1.523 . S
C1355 C1339 1.429 . S
C1355 C1351 1.429 . S
C1355 C1356 1.523 . S
C1356 C1340 1.368 . S
C1356 C1352 1.368 . S
C1356 C1355 1.523 . S
H1357 C1332 0.950 . S
H1358 C1334 0.950 . S
H1359 C1335 0.949 . S
H1360 C1337 0.950 . S
H1361 C1339 0.950 . S
C1362 C1363 1.349 . S
C1362 C1364 1.327 . S
C1362 H1387 0.950 . S
C1363 C1362 1.349 . S
C1363 C1379 1.349 . S
C1364 C1362 1.327 . S
C1364 C1383 1.429 . S
C1364 H1388 0.950 . S
C1365 C1382 1.574 . S
C1365 C1384 1.368 . S
C1365 H1389 0.949 . S
H1366 C1370 0.949 . S
C1367 C1368 1.349 . S
C1367 C1369 1.327 . S
C1367 H1390 0.950 . S
C1368 C1367 1.349 . S
C1368 C1380 1.349 . S
C1369 C1367 1.327 . S
C1369 C1385 1.429 . S
C1369 H1391 0.950 . S
C1370 H1366 0.949 . S
C1370 C1378 1.574 . S
C1370 C1386 1.368 . S
H1371 C1379 0.950 . S
H1372 C1377 0.950 . S
H1373 C1378 0.949 . S
H1374 C1380 0.950 . S
H1375 C1381 0.950 . S
H1376 C1382 0.949 . S
C1377 H1372 0.950 . S
C1377 C1379 1.327 . S
C1377 C1383 1.429 . S
C1378 C1370 1.574 . S
C1378 H1373 0.949 . S
C1378 C1384 1.368 . S
C1379 C1363 1.349 . S
C1379 H1371 0.950 . S
C1379 C1377 1.327 . S
C1380 C1368 1.349 . S
C1380 H1374 0.950 . S
C1380 C1381 1.327 . S
C1381 H1375 0.950 . S
C1381 C1380 1.327 . S
C1381 C1385 1.429 . S
C1382 C1365 1.574 . S
C1382 H1376 0.949 . S
C1382 C1386 1.368 . S
C1383 C1364 1.429 . S
C1383 C1377 1.429 . S
C1383 C1384 1.523 . S
C1384 C1365 1.368 . S
C1384 C1378 1.368 . S
C1384 C1383 1.523 . S
C1385 C1369 1.429 . S
C1385 C1381 1.429 . S
C1385 C1386 1.523 . S
C1386 C1370 1.368 . S
C1386 C1382 1.368 . S
C1386 C1385 1.523 . S
H1387 C1362 0.950 . S
H1388 C1364 0.950 . S
H1389 C1365 0.949 . S
H1390 C1367 0.950 . S
H1391 C1369 0.950 . S
C1392 C1393 1.349 . S
C1392 C1394 1.327 . S
C1392 H1417 0.950 . S
C1393 C1392 1.349 . S
C1393 C1409 1.349 . S
C1394 C1392 1.327 . S
C1394 C1413 1.429 . S
C1394 H1418 0.950 . S
C1395 C1412 1.574 . S
C1395 C1414 1.368 . S
C1395 H1419 0.949 . S
H1396 C1400 0.949 . S
C1397 C1398 1.349 . S
C1397 C1399 1.327 . S
C1397 H1420 0.950 . S
C1398 C1397 1.349 . S
C1398 C1410 1.349 . S
C1399 C1397 1.327 . S
C1399 C1415 1.429 . S
C1399 H1421 0.950 . S
C1400 H1396 0.949 . S
C1400 C1408 1.574 . S
C1400 C1416 1.368 . S
H1401 C1409 0.950 . S
H1402 C1407 0.950 . S
H1403 C1408 0.949 . S
H1404 C1410 0.950 . S
H1405 C1411 0.950 . S
H1406 C1412 0.949 . S
C1407 H1402 0.950 . S
C1407 C1409 1.327 . S
C1407 C1413 1.429 . S
C1408 C1400 1.574 . S
C1408 H1403 0.949 . S
C1408 C1414 1.368 . S
C1409 C1393 1.349 . S
C1409 H1401 0.950 . S
C1409 C1407 1.327 . S
C1410 C1398 1.349 . S
C1410 H1404 0.950 . S
C1410 C1411 1.327 . S
C1411 H1405 0.950 . S
C1411 C1410 1.327 . S
C1411 C1415 1.429 . S
C1412 C1395 1.574 . S
C1412 H1406 0.949 . S
C1412 C1416 1.368 . S
C1413 C1394 1.429 . S
C1413 C1407 1.429 . S
C1413 C1414 1.523 . S
C1414 C1395 1.368 . S
C1414 C1408 1.368 . S
C1414 C1413 1.523 . S
C1415 C1399 1.429 . S
C1415 C1411 1.429 . S
C1415 C1416 1.523 . S
C1416 C1400 1.368 . S
C1416 C1412 1.368 . S
C1416 C1415 1.523 . S
H1417 C1392 0.950 . S
H1418 C1394 0.950 . S
H1419 C1395 0.949 . S
H1420 C1397 0.950 . S
H1421 C1399 0.950 . S
C1422 C1423 1.349 . S
C1422 C1424 1.327 . S
C1422 H1447 0.950 . S
C1423 C1422 1.349 . S
C1423 C1439 1.349 . S
C1424 C1422 1.327 . S
C1424 C1443 1.429 . S
C1424 H1448 0.950 . S
C1425 C1442 1.574 . S
C1425 C1444 1.368 . S
C1425 H1449 0.949 . S
H1426 C1430 0.949 1_545 S
C1427 C1428 1.349 . S
C1427 C1429 1.327 . S
C1427 H1450 0.950 . S
C1428 C1427 1.349 . S
C1428 C1440 1.349 1_565 S
C1429 C1427 1.327 . S
C1429 C1445 1.429 . S
C1429 H1451 0.950 . S
C1430 H1426 0.949 1_565 S
C1430 C1438 1.574 . S
C1430 C1446 1.368 . S
H1431 C1439 0.950 . S
H1432 C1437 0.950 . S
H1433 C1438 0.949 . S
H1434 C1440 0.950 . S
H1435 C1441 0.950 . S
H1436 C1442 0.949 . S
C1437 H1432 0.950 . S
C1437 C1439 1.327 . S
C1437 C1443 1.429 . S
C1438 C1430 1.574 . S
C1438 H1433 0.949 . S
C1438 C1444 1.368 . S
C1439 C1423 1.349 . S
C1439 H1431 0.950 . S
C1439 C1437 1.327 . S
C1440 C1428 1.349 1_545 S
C1440 H1434 0.950 . S
C1440 C1441 1.327 . S
C1441 H1435 0.950 . S
C1441 C1440 1.327 . S
C1441 C1445 1.429 1_545 S
C1442 C1425 1.574 . S
C1442 H1436 0.949 . S
C1442 C1446 1.368 . S
C1443 C1424 1.429 . S
C1443 C1437 1.429 . S
C1443 C1444 1.523 . S
C1444 C1425 1.368 . S
C1444 C1438 1.368 . S
C1444 C1443 1.523 . S
C1445 C1429 1.429 . S
C1445 C1441 1.429 1_565 S
C1445 C1446 1.523 . S
C1446 C1430 1.368 . S
C1446 C1442 1.368 . S
C1446 C1445 1.523 . S
H1447 C1422 0.950 . S
H1448 C1424 0.950 . S
H1449 C1425 0.949 . S
H1450 C1427 0.950 . S
H1451 C1429 0.950 . S
C1452 C1453 1.349 . S
C1452 C1454 1.327 . S
C1452 H1477 0.950 . S
C1453 C1452 1.349 . S
C1453 C1469 1.349 . S
C1454 C1452 1.327 . S
C1454 C1473 1.429 . S
C1454 H1478 0.950 . S
C1455 C1472 1.574 . S
C1455 C1474 1.368 . S
C1455 H1479 0.949 . S
H1456 C1460 0.949 1_655 S
C1457 C1458 1.349 . S
C1457 C1459 1.327 . S
C1457 H1480 0.950 . S
C1458 C1457 1.349 . S
C1458 C1470 1.349 1_455 S
C1459 C1457 1.327 . S
C1459 C1475 1.429 . S
C1459 H1481 0.950 . S
C1460 H1456 0.949 1_455 S
C1460 C1468 1.574 . S
C1460 C1476 1.368 . S
H1461 C1469 0.950 . S
H1462 C1467 0.950 . S
H1463 C1468 0.949 . S
H1464 C1470 0.950 . S
H1465 C1471 0.950 1_655 S
H1466 C1472 0.949 . S
C1467 H1462 0.950 . S
C1467 C1469 1.327 . S
C1467 C1473 1.429 . S
C1468 C1460 1.574 . S
C1468 H1463 0.949 . S
C1468 C1474 1.368 . S
C1469 C1453 1.349 . S
C1469 H1461 0.950 . S
C1469 C1467 1.327 . S
C1470 C1458 1.349 1_655 S
C1470 H1464 0.950 . S
C1470 C1471 1.327 1_655 S
C1471 H1465 0.950 1_455 S
C1471 C1470 1.327 1_455 S
C1471 C1475 1.429 . S
C1472 C1455 1.574 . S
C1472 H1466 0.949 . S
C1472 C1476 1.368 . S
C1473 C1454 1.429 . S
C1473 C1467 1.429 . S
C1473 C1474 1.523 . S
C1474 C1455 1.368 . S
C1474 C1468 1.368 . S
C1474 C1473 1.523 . S
C1475 C1459 1.429 . S
C1475 C1471 1.429 . S
C1475 C1476 1.523 . S
C1476 C1460 1.368 . S
C1476 C1472 1.368 . S
C1476 C1475 1.523 . S
H1477 C1452 0.950 . S
H1478 C1454 0.950 . S
H1479 C1455 0.949 . S
H1480 C1457 0.950 . S
H1481 C1459 0.950 . S
C1482 C1483 1.349 . S
C1482 C1484 1.327 . S
C1482 H1507 0.950 . S
C1483 C1482 1.349 . S
C1483 C1499 1.349 . S
C1484 C1482 1.327 . S
C1484 C1503 1.429 . S
C1484 H1508 0.950 . S
C1485 C1502 1.574 . S
C1485 C1504 1.368 . S
C1485 H1509 0.949 . S
H1486 C1490 0.949 . S
C1487 C1488 1.349 . S
C1487 C1489 1.327 . S
C1487 H1510 0.950 . S
C1488 C1487 1.349 . S
C1488 C1500 1.349 . S
C1489 C1487 1.327 . S
C1489 C1505 1.429 . S
C1489 H1511 0.950 . S
C1490 H1486 0.949 . S
C1490 C1498 1.574 . S
C1490 C1506 1.368 . S
H1491 C1499 0.950 . S
H1492 C1497 0.950 . S
H1493 C1498 0.949 . S
H1494 C1500 0.950 . S
H1495 C1501 0.950 . S
H1496 C1502 0.949 . S
C1497 H1492 0.950 . S
C1497 C1499 1.327 . S
C1497 C1503 1.429 . S
C1498 C1490 1.574 . S
C1498 H1493 0.949 . S
C1498 C1504 1.368 . S
C1499 C1483 1.349 . S
C1499 H1491 0.950 . S
C1499 C1497 1.327 . S
C1500 C1488 1.349 . S
C1500 H1494 0.950 . S
C1500 C1501 1.327 . S
C1501 H1495 0.950 . S
C1501 C1500 1.327 . S
C1501 C1505 1.429 . S
C1502 C1485 1.574 . S
C1502 H1496 0.949 . S
C1502 C1506 1.368 . S
C1503 C1484 1.429 . S
C1503 C1497 1.429 . S
C1503 C1504 1.523 . S
C1504 C1485 1.368 . S
C1504 C1498 1.368 . S
C1504 C1503 1.523 . S
C1505 C1489 1.429 . S
C1505 C1501 1.429 . S
C1505 C1506 1.523 . S
C1506 C1490 1.368 . S
C1506 C1502 1.368 . S
C1506 C1505 1.523 . S
H1507 C1482 0.950 . S
H1508 C1484 0.950 . S
H1509 C1485 0.949 . S
H1510 C1487 0.950 . S
H1511 C1489 0.950 . S
C1512 C1513 1.349 . S
C1512 C1514 1.327 . S
C1512 H1537 0.950 . S
C1513 C1512 1.349 . S
C1513 C1529 1.349 . S
C1514 C1512 1.327 . S
C1514 C1533 1.429 . S
C1514 H1538 0.950 . S
C1515 C1532 1.574 . S
C1515 C1534 1.368 . S
C1515 H1539 0.949 . S
H1516 C1520 0.949 . S
C1517 C1518 1.349 . S
C1517 C1519 1.327 . S
C1517 H1540 0.950 . S
C1518 C1517 1.349 . S
C1518 C1530 1.349 . S
C1519 C1517 1.327 . S
C1519 C1535 1.429 . S
C1519 H1541 0.950 . S
C1520 H1516 0.949 . S
C1520 C1528 1.574 . S
C1520 C1536 1.368 . S
H1521 C1529 0.950 . S
H1522 C1527 0.950 . S
H1523 C1528 0.949 . S
H1524 C1530 0.950 . S
H1525 C1531 0.950 . S
H1526 C1532 0.949 . S
C1527 H1522 0.950 . S
C1527 C1529 1.327 . S
C1527 C1533 1.429 . S
C1528 C1520 1.574 . S
C1528 H1523 0.949 . S
C1528 C1534 1.368 . S
C1529 C1513 1.349 . S
C1529 H1521 0.950 . S
C1529 C1527 1.327 . S
C1530 C1518 1.349 . S
C1530 H1524 0.950 . S
C1530 C1531 1.327 . S
C1531 H1525 0.950 . S
C1531 C1530 1.327 . S
C1531 C1535 1.429 . S
C1532 C1515 1.574 . S
C1532 H1526 0.949 . S
C1532 C1536 1.368 . S
C1533 C1514 1.429 . S
C1533 C1527 1.429 . S
C1533 C1534 1.523 . S
C1534 C1515 1.368 . S
C1534 C1528 1.368 . S
C1534 C1533 1.523 . S
C1535 C1519 1.429 . S
C1535 C1531 1.429 . S
C1535 C1536 1.523 . S
C1536 C1520 1.368 . S
C1536 C1532 1.368 . S
C1536 C1535 1.523 . S
H1537 C1512 0.950 . S
H1538 C1514 0.950 . S
H1539 C1515 0.949 . S
H1540 C1517 0.950 . S
H1541 C1519 0.950 . S
C1542 C1543 1.349 . S
C1542 C1544 1.327 . S
C1542 H1567 0.950 . S
C1543 C1542 1.349 . S
C1543 C1559 1.349 . S
C1544 C1542 1.327 . S
C1544 C1563 1.429 . S
C1544 H1568 0.950 . S
C1545 C1562 1.574 . S
C1545 C1564 1.368 . S
C1545 H1569 0.949 . S
H1546 C1550 0.949 . S
C1547 C1548 1.349 . S
C1547 C1549 1.327 . S
C1547 H1570 0.950 . S
C1548 C1547 1.349 . S
C1548 C1560 1.349 . S
C1549 C1547 1.327 . S
C1549 C1565 1.429 . S
C1549 H1571 0.950 . S
C1550 H1546 0.949 . S
C1550 C1558 1.574 . S
C1550 C1566 1.368 . S
H1551 C1559 0.950 . S
H1552 C1557 0.950 . S
H1553 C1558 0.949 . S
H1554 C1560 0.950 . S
H1555 C1561 0.950 . S
H1556 C1562 0.949 . S
C1557 H1552 0.950 . S
C1557 C1559 1.327 . S
C1557 C1563 1.429 . S
C1558 C1550 1.574 . S
C1558 H1553 0.949 . S
C1558 C1564 1.368 . S
C1559 C1543 1.349 . S
C1559 H1551 0.950 . S
C1559 C1557 1.327 . S
C1560 C1548 1.349 . S
C1560 H1554 0.950 . S
C1560 C1561 1.327 . S
C1561 H1555 0.950 . S
C1561 C1560 1.327 . S
C1561 C1565 1.429 . S
C1562 C1545 1.574 . S
C1562 H1556 0.949 . S
C1562 C1566 1.368 . S
C1563 C1544 1.429 . S
C1563 C1557 1.429 . S
C1563 C1564 1.523 . S
C1564 C1545 1.368 . S
C1564 C1558 1.368 . S
C1564 C1563 1.523 . S
C1565 C1549 1.429 . S
C1565 C1561 1.429 . S
C1565 C1566 1.523 . S
C1566 C1550 1.368 . S
C1566 C1562 1.368 . S
C1566 C1565 1.523 . S
H1567 C1542 0.950 . S
H1568 C1544 0.950 . S
H1569 C1545 0.949 . S
H1570 C1547 0.950 . S
H1571 C1549 0.950 . S
C1572 C1573 1.349 . S
C1572 C1574 1.327 . S
C1572 H1597 0.950 . S
C1573 C1572 1.349 . S
C1573 C1589 1.349 . S
C1574 C1572 1.327 . S
C1574 C1593 1.429 . S
C1574 H1598 0.950 . S
C1575 C1592 1.574 . S
C1575 C1594 1.368 . S
C1575 H1599 0.949 . S
H1576 C1580 0.949 . S
C1577 C1578 1.349 1_565 S
C1577 C1579 1.327 1_565 S
C1577 H1600 0.950 . S
C1578 C1577 1.349 1_545 S
C1578 C1590 1.349 . S
C1579 C1577 1.327 1_545 S
C1579 C1595 1.429 . S
C1579 H1601 0.950 1_545 S
C1580 H1576 0.949 . S
C1580 C1588 1.574 . S
C1580 C1596 1.368 . S
H1581 C1589 0.950 . S
H1582 C1587 0.950 . S
H1583 C1588 0.949 . S
H1584 C1590 0.950 . S
H1585 C1591 0.950 . S
H1586 C1592 0.949 . S
C1587 H1582 0.950 . S
C1587 C1589 1.327 . S
C1587 C1593 1.429 . S
C1588 C1580 1.574 . S
C1588 H1583 0.949 . S
C1588 C1594 1.368 . S
C1589 C1573 1.349 . S
C1589 H1581 0.950 . S
C1589 C1587 1.327 . S
C1590 C1578 1.349 . S
C1590 H1584 0.950 . S
C1590 C1591 1.327 . S
C1591 H1585 0.950 . S
C1591 C1590 1.327 . S
C1591 C1595 1.429 . S
C1592 C1575 1.574 . S
C1592 H1586 0.949 . S
C1592 C1596 1.368 . S
C1593 C1574 1.429 . S
C1593 C1587 1.429 . S
C1593 C1594 1.523 . S
C1594 C1575 1.368 . S
C1594 C1588 1.368 . S
C1594 C1593 1.523 . S
C1595 C1579 1.429 . S
C1595 C1591 1.429 . S
C1595 C1596 1.523 . S
C1596 C1580 1.368 . S
C1596 C1592 1.368 . S
C1596 C1595 1.523 . S
H1597 C1572 0.950 . S
H1598 C1574 0.950 . S
H1599 C1575 0.949 . S
H1600 C1577 0.950 . S
H1601 C1579 0.950 1_565 S
C1602 C1603 1.349 . S
C1602 C1604 1.327 . S
C1602 H1627 0.950 . S
C1603 C1602 1.349 . S
C1603 C1619 1.349 . S
C1604 C1602 1.327 . S
C1604 C1623 1.429 . S
C1604 H1628 0.950 . S
C1605 C1622 1.574 . S
C1605 C1624 1.368 . S
C1605 H1629 0.949 . S
H1606 C1610 0.949 . S
C1607 C1608 1.349 . S
C1607 C1609 1.327 . S
C1607 H1630 0.950 . S
C1608 C1607 1.349 . S
C1608 C1620 1.349 . S
C1609 C1607 1.327 . S
C1609 C1625 1.429 . S
C1609 H1631 0.950 . S
C1610 H1606 0.949 . S
C1610 C1618 1.574 . S
C1610 C1626 1.368 . S
H1611 C1619 0.950 . S
H1612 C1617 0.950 . S
H1613 C1618 0.949 . S
H1614 C1620 0.950 . S
H1615 C1621 0.950 . S
H1616 C1622 0.949 . S
C1617 H1612 0.950 . S
C1617 C1619 1.327 . S
C1617 C1623 1.429 . S
C1618 C1610 1.574 . S
C1618 H1613 0.949 . S
C1618 C1624 1.368 . S
C1619 C1603 1.349 . S
C1619 H1611 0.950 . S
C1619 C1617 1.327 . S
C1620 C1608 1.349 . S
C1620 H1614 0.950 . S
C1620 C1621 1.327 . S
C1621 H1615 0.950 . S
C1621 C1620 1.327 . S
C1621 C1625 1.429 . S
C1622 C1605 1.574 . S
C1622 H1616 0.949 . S
C1622 C1626 1.368 . S
C1623 C1604 1.429 . S
C1623 C1617 1.429 . S
C1623 C1624 1.523 . S
C1624 C1605 1.368 . S
C1624 C1618 1.368 . S
C1624 C1623 1.523 . S
C1625 C1609 1.429 . S
C1625 C1621 1.429 . S
C1625 C1626 1.523 . S
C1626 C1610 1.368 . S
C1626 C1622 1.368 . S
C1626 C1625 1.523 . S
H1627 C1602 0.950 . S
H1628 C1604 0.950 . S
H1629 C1605 0.949 . S
H1630 C1607 0.950 . S
H1631 C1609 0.950 . S
C1632 C1633 1.349 . S
C1632 C1634 1.327 . S
C1632 H1657 0.950 . S
C1633 C1632 1.349 . S
C1633 C1649 1.349 . S
C1634 C1632 1.327 . S
C1634 C1653 1.429 . S
C1634 H1658 0.950 . S
C1635 C1652 1.574 . S
C1635 C1654 1.368 . S
C1635 H1659 0.949 . S
H1636 C1640 0.949 . S
C1637 C1638 1.349 . S
C1637 C1639 1.327 . S
C1637 H1660 0.950 . S
C1638 C1637 1.349 . S
C1638 C1650 1.349 . S
C1639 C1637 1.327 . S
C1639 C1655 1.429 . S
C1639 H1661 0.950 . S
C1640 H1636 0.949 . S
C1640 C1648 1.574 . S
C1640 C1656 1.368 . S
H1641 C1649 0.950 . S
H1642 C1647 0.950 . S
H1643 C1648 0.949 . S
H1644 C1650 0.950 . S
H1645 C1651 0.950 . S
H1646 C1652 0.949 . S
C1647 H1642 0.950 . S
C1647 C1649 1.327 . S
C1647 C1653 1.429 . S
C1648 C1640 1.574 . S
C1648 H1643 0.949 . S
C1648 C1654 1.368 . S
C1649 C1633 1.349 . S
C1649 H1641 0.950 . S
C1649 C1647 1.327 . S
C1650 C1638 1.349 . S
C1650 H1644 0.950 . S
C1650 C1651 1.327 . S
C1651 H1645 0.950 . S
C1651 C1650 1.327 . S
C1651 C1655 1.429 . S
C1652 C1635 1.574 . S
C1652 H1646 0.949 . S
C1652 C1656 1.368 . S
C1653 C1634 1.429 . S
C1653 C1647 1.429 . S
C1653 C1654 1.523 . S
C1654 C1635 1.368 . S
C1654 C1648 1.368 . S
C1654 C1653 1.523 . S
C1655 C1639 1.429 . S
C1655 C1651 1.429 . S
C1655 C1656 1.523 . S
C1656 C1640 1.368 . S
C1656 C1652 1.368 . S
C1656 C1655 1.523 . S
H1657 C1632 0.950 . S
H1658 C1634 0.950 . S
H1659 C1635 0.949 . S
H1660 C1637 0.950 . S
H1661 C1639 0.950 . S
C1662 C1663 1.349 . S
C1662 C1664 1.327 . S
C1662 H1687 0.950 . S
C1663 C1662 1.349 . S
C1663 C1679 1.349 . S
C1664 C1662 1.327 . S
C1664 C1683 1.429 . S
C1664 H1688 0.950 . S
C1665 C1682 1.574 . S
C1665 C1684 1.368 . S
C1665 H1689 0.949 . S
H1666 C1670 0.949 . S
C1667 C1668 1.349 . S
C1667 C1669 1.327 . S
C1667 H1690 0.950 . S
C1668 C1667 1.349 . S
C1668 C1680 1.349 . S
C1669 C1667 1.327 . S
C1669 C1685 1.429 . S
C1669 H1691 0.950 . S
C1670 H1666 0.949 . S
C1670 C1678 1.574 . S
C1670 C1686 1.368 . S
H1671 C1679 0.950 . S
H1672 C1677 0.950 . S
H1673 C1678 0.949 . S
H1674 C1680 0.950 . S
H1675 C1681 0.950 . S
H1676 C1682 0.949 . S
C1677 H1672 0.950 . S
C1677 C1679 1.327 . S
C1677 C1683 1.429 . S
C1678 C1670 1.574 . S
C1678 H1673 0.949 . S
C1678 C1684 1.368 . S
C1679 C1663 1.349 . S
C1679 H1671 0.950 . S
C1679 C1677 1.327 . S
C1680 C1668 1.349 . S
C1680 H1674 0.950 . S
C1680 C1681 1.327 . S
C1681 H1675 0.950 . S
C1681 C1680 1.327 . S
C1681 C1685 1.429 . S
C1682 C1665 1.574 . S
C1682 H1676 0.949 . S
C1682 C1686 1.368 . S
C1683 C1664 1.429 . S
C1683 C1677 1.429 . S
C1683 C1684 1.523 . S
C1684 C1665 1.368 . S
C1684 C1678 1.368 . S
C1684 C1683 1.523 . S
C1685 C1669 1.429 . S
C1685 C1681 1.429 . S
C1685 C1686 1.523 . S
C1686 C1670 1.368 . S
C1686 C1682 1.368 . S
C1686 C1685 1.523 . S
H1687 C1662 0.950 . S
H1688 C1664 0.950 . S
H1689 C1665 0.949 . S
H1690 C1667 0.950 . S
H1691 C1669 0.950 . S
C1692 C1693 1.349 . S
C1692 C1694 1.327 . S
C1692 H1717 0.950 . S
C1693 C1692 1.349 . S
C1693 C1709 1.349 . S
C1694 C1692 1.327 . S
C1694 C1713 1.429 . S
C1694 H1718 0.950 . S
C1695 C1712 1.574 . S
C1695 C1714 1.368 . S
C1695 H1719 0.949 . S
H1696 C1700 0.949 . S
C1697 C1698 1.349 . S
C1697 C1699 1.327 . S
C1697 H1720 0.950 . S
C1698 C1697 1.349 . S
C1698 C1710 1.349 . S
C1699 C1697 1.327 . S
C1699 C1715 1.429 . S
C1699 H1721 0.950 . S
C1700 H1696 0.949 . S
C1700 C1708 1.574 . S
C1700 C1716 1.368 . S
H1701 C1709 0.950 . S
H1702 C1707 0.950 . S
H1703 C1708 0.949 . S
H1704 C1710 0.950 . S
H1705 C1711 0.950 . S
H1706 C1712 0.949 . S
C1707 H1702 0.950 . S
C1707 C1709 1.327 . S
C1707 C1713 1.429 . S
C1708 C1700 1.574 . S
C1708 H1703 0.949 . S
C1708 C1714 1.368 . S
C1709 C1693 1.349 . S
C1709 H1701 0.950 . S
C1709 C1707 1.327 . S
C1710 C1698 1.349 . S
C1710 H1704 0.950 . S
C1710 C1711 1.327 . S
C1711 H1705 0.950 . S
C1711 C1710 1.327 . S
C1711 C1715 1.429 . S
C1712 C1695 1.574 . S
C1712 H1706 0.949 . S
C1712 C1716 1.368 . S
C1713 C1694 1.429 . S
C1713 C1707 1.429 . S
C1713 C1714 1.523 . S
C1714 C1695 1.368 . S
C1714 C1708 1.368 . S
C1714 C1713 1.523 . S
C1715 C1699 1.429 . S
C1715 C1711 1.429 . S
C1715 C1716 1.523 . S
C1716 C1700 1.368 . S
C1716 C1712 1.368 . S
C1716 C1715 1.523 . S
H1717 C1692 0.950 . S
H1718 C1694 0.950 . S
H1719 C1695 0.949 . S
H1720 C1697 0.950 . S
H1721 C1699 0.950 . S
C1722 C1723 1.349 . S
C1722 C1724 1.327 . S
C1722 H1747 0.950 . S
C1723 C1722 1.349 . S
C1723 C1739 1.349 . S
C1724 C1722 1.327 . S
C1724 C1743 1.429 . S
C1724 H1748 0.950 . S
C1725 C1742 1.574 . S
C1725 C1744 1.368 . S
C1725 H1749 0.949 . S
H1726 C1730 0.949 . S
C1727 C1728 1.349 . S
C1727 C1729 1.327 . S
C1727 H1750 0.950 . S
C1728 C1727 1.349 . S
C1728 C1740 1.349 . S
C1729 C1727 1.327 . S
C1729 C1745 1.429 . S
C1729 H1751 0.950 . S
C1730 H1726 0.949 . S
C1730 C1738 1.574 . S
C1730 C1746 1.368 . S
H1731 C1739 0.950 . S
H1732 C1737 0.950 . S
H1733 C1738 0.949 . S
H1734 C1740 0.950 . S
H1735 C1741 0.950 . S
H1736 C1742 0.949 . S
C1737 H1732 0.950 . S
C1737 C1739 1.327 . S
C1737 C1743 1.429 . S
C1738 C1730 1.574 . S
C1738 H1733 0.949 . S
C1738 C1744 1.368 . S
C1739 C1723 1.349 . S
C1739 H1731 0.950 . S
C1739 C1737 1.327 . S
C1740 C1728 1.349 . S
C1740 H1734 0.950 . S
C1740 C1741 1.327 . S
C1741 H1735 0.950 . S
C1741 C1740 1.327 . S
C1741 C1745 1.429 . S
C1742 C1725 1.574 . S
C1742 H1736 0.949 . S
C1742 C1746 1.368 . S
C1743 C1724 1.429 . S
C1743 C1737 1.429 . S
C1743 C1744 1.523 . S
C1744 C1725 1.368 . S
C1744 C1738 1.368 . S
C1744 C1743 1.523 . S
C1745 C1729 1.429 . S
C1745 C1741 1.429 . S
C1745 C1746 1.523 . S
C1746 C1730 1.368 . S
C1746 C1742 1.368 . S
C1746 C1745 1.523 . S
H1747 C1722 0.950 . S
H1748 C1724 0.950 . S
H1749 C1725 0.949 . S
H1750 C1727 0.950 . S
H1751 C1729 0.950 . S
C1752 C1753 1.349 . S
C1752 C1754 1.327 . S
C1752 H1777 0.950 . S
C1753 C1752 1.349 . S
C1753 C1769 1.349 . S
C1754 C1752 1.327 . S
C1754 C1773 1.429 . S
C1754 H1778 0.950 . S
C1755 C1772 1.574 . S
C1755 C1774 1.368 . S
C1755 H1779 0.949 . S
H1756 C1760 0.949 . S
C1757 C1758 1.349 . S
C1757 C1759 1.327 . S
C1757 H1780 0.950 . S
C1758 C1757 1.349 . S
C1758 C1770 1.349 . S
C1759 C1757 1.327 . S
C1759 C1775 1.429 . S
C1759 H1781 0.950 . S
C1760 H1756 0.949 . S
C1760 C1768 1.574 . S
C1760 C1776 1.368 . S
H1761 C1769 0.950 . S
H1762 C1767 0.950 . S
H1763 C1768 0.949 . S
H1764 C1770 0.950 . S
H1765 C1771 0.950 . S
H1766 C1772 0.949 . S
C1767 H1762 0.950 . S
C1767 C1769 1.327 . S
C1767 C1773 1.429 . S
C1768 C1760 1.574 . S
C1768 H1763 0.949 . S
C1768 C1774 1.368 . S
C1769 C1753 1.349 . S
C1769 H1761 0.950 . S
C1769 C1767 1.327 . S
C1770 C1758 1.349 . S
C1770 H1764 0.950 . S
C1770 C1771 1.327 . S
C1771 H1765 0.950 . S
C1771 C1770 1.327 . S
C1771 C1775 1.429 . S
C1772 C1755 1.574 . S
C1772 H1766 0.949 . S
C1772 C1776 1.368 . S
C1773 C1754 1.429 . S
C1773 C1767 1.429 . S
C1773 C1774 1.523 . S
C1774 C1755 1.368 . S
C1774 C1768 1.368 . S
C1774 C1773 1.523 . S
C1775 C1759 1.429 . S
C1775 C1771 1.429 . S
C1775 C1776 1.523 . S
C1776 C1760 1.368 . S
C1776 C1772 1.368 . S
C1776 C1775 1.523 . S
H1777 C1752 0.950 . S
H1778 C1754 0.950 . S
H1779 C1755 0.949 . S
H1780 C1757 0.950 . S
H1781 C1759 0.950 . S
C1782 C1783 1.349 . S
C1782 C1784 1.327 . S
C1782 H1807 0.950 . S
C1783 C1782 1.349 . S
C1783 C1799 1.349 . S
C1784 C1782 1.327 . S
C1784 C1803 1.429 . S
C1784 H1808 0.950 . S
C1785 C1802 1.574 . S
C1785 C1804 1.368 . S
C1785 H1809 0.949 . S
H1786 C1790 0.949 . S
C1787 C1788 1.349 . S
C1787 C1789 1.327 . S
C1787 H1810 0.950 . S
C1788 C1787 1.349 . S
C1788 C1800 1.349 . S
C1789 C1787 1.327 . S
C1789 C1805 1.429 . S
C1789 H1811 0.950 . S
C1790 H1786 0.949 . S
C1790 C1798 1.574 . S
C1790 C1806 1.368 . S
H1791 C1799 0.950 . S
H1792 C1797 0.950 . S
H1793 C1798 0.949 . S
H1794 C1800 0.950 . S
H1795 C1801 0.950 . S
H1796 C1802 0.949 . S
C1797 H1792 0.950 . S
C1797 C1799 1.327 . S
C1797 C1803 1.429 . S
C1798 C1790 1.574 . S
C1798 H1793 0.949 . S
C1798 C1804 1.368 . S
C1799 C1783 1.349 . S
C1799 H1791 0.950 . S
C1799 C1797 1.327 . S
C1800 C1788 1.349 . S
C1800 H1794 0.950 . S
C1800 C1801 1.327 . S
C1801 H1795 0.950 . S
C1801 C1800 1.327 . S
C1801 C1805 1.429 . S
C1802 C1785 1.574 . S
C1802 H1796 0.949 . S
C1802 C1806 1.368 . S
C1803 C1784 1.429 . S
C1803 C1797 1.429 . S
C1803 C1804 1.523 . S
C1804 C1785 1.368 . S
C1804 C1798 1.368 . S
C1804 C1803 1.523 . S
C1805 C1789 1.429 . S
C1805 C1801 1.429 . S
C1805 C1806 1.523 . S
C1806 C1790 1.368 . S
C1806 C1802 1.368 . S
C1806 C1805 1.523 . S
H1807 C1782 0.950 . S
H1808 C1784 0.950 . S
H1809 C1785 0.949 . S
H1810 C1787 0.950 . S
H1811 C1789 0.950 . S
C1812 C1813 1.349 . S
C1812 C1814 1.327 . S
C1812 H1837 0.950 . S
C1813 C1812 1.349 . S
C1813 C1829 1.349 . S
C1814 C1812 1.327 . S
C1814 C1833 1.429 . S
C1814 H1838 0.950 . S
C1815 C1832 1.574 . S
C1815 C1834 1.368 . S
C1815 H1839 0.949 . S
H1816 C1820 0.949 . S
C1817 C1818 1.349 . S
C1817 C1819 1.327 . S
C1817 H1840 0.950 . S
C1818 C1817 1.349 . S
C1818 C1830 1.349 . S
C1819 C1817 1.327 . S
C1819 C1835 1.429 . S
C1819 H1841 0.950 . S
C1820 H1816 0.949 . S
C1820 C1828 1.574 . S
C1820 C1836 1.368 . S
H1821 C1829 0.950 . S
H1822 C1827 0.950 . S
H1823 C1828 0.949 . S
H1824 C1830 0.950 . S
H1825 C1831 0.950 . S
H1826 C1832 0.949 . S
C1827 H1822 0.950 . S
C1827 C1829 1.327 . S
C1827 C1833 1.429 . S
C1828 C1820 1.574 . S
C1828 H1823 0.949 . S
C1828 C1834 1.368 . S
C1829 C1813 1.349 . S
C1829 H1821 0.950 . S
C1829 C1827 1.327 . S
C1830 C1818 1.349 . S
C1830 H1824 0.950 . S
C1830 C1831 1.327 . S
C1831 H1825 0.950 . S
C1831 C1830 1.327 . S
C1831 C1835 1.429 . S
C1832 C1815 1.574 . S
C1832 H1826 0.949 . S
C1832 C1836 1.368 . S
C1833 C1814 1.429 . S
C1833 C1827 1.429 . S
C1833 C1834 1.523 . S
C1834 C1815 1.368 . S
C1834 C1828 1.368 . S
C1834 C1833 1.523 . S
C1835 C1819 1.429 . S
C1835 C1831 1.429 . S
C1835 C1836 1.523 . S
C1836 C1820 1.368 . S
C1836 C1832 1.368 . S
C1836 C1835 1.523 . S
H1837 C1812 0.950 . S
H1838 C1814 0.950 . S
H1839 C1815 0.949 . S
H1840 C1817 0.950 . S
H1841 C1819 0.950 . S
C1842 C1843 1.349 . S
C1842 C1844 1.327 . S
C1842 H1867 0.950 . S
C1843 C1842 1.349 . S
C1843 C1859 1.349 . S
C1844 C1842 1.327 . S
C1844 C1863 1.429 . S
C1844 H1868 0.950 . S
C1845 C1862 1.574 . S
C1845 C1864 1.368 . S
C1845 H1869 0.949 . S
H1846 C1850 0.949 . S
C1847 C1848 1.349 . S
C1847 C1849 1.327 . S
C1847 H1870 0.950 . S
C1848 C1847 1.349 . S
C1848 C1860 1.349 . S
C1849 C1847 1.327 . S
C1849 C1865 1.429 . S
C1849 H1871 0.950 . S
C1850 H1846 0.949 . S
C1850 C1858 1.574 . S
C1850 C1866 1.368 . S
H1851 C1859 0.950 . S
H1852 C1857 0.950 . S
H1853 C1858 0.949 . S
H1854 C1860 0.950 . S
H1855 C1861 0.950 . S
H1856 C1862 0.949 . S
C1857 H1852 0.950 . S
C1857 C1859 1.327 . S
C1857 C1863 1.429 . S
C1858 C1850 1.574 . S
C1858 H1853 0.949 . S
C1858 C1864 1.368 . S
C1859 C1843 1.349 . S
C1859 H1851 0.950 . S
C1859 C1857 1.327 . S
C1860 C1848 1.349 . S
C1860 H1854 0.950 . S
C1860 C1861 1.327 . S
C1861 H1855 0.950 . S
C1861 C1860 1.327 . S
C1861 C1865 1.429 . S
C1862 C1845 1.574 . S
C1862 H1856 0.949 . S
C1862 C1866 1.368 . S
C1863 C1844 1.429 . S
C1863 C1857 1.429 . S
C1863 C1864 1.523 . S
C1864 C1845 1.368 . S
C1864 C1858 1.368 . S
C1864 C1863 1.523 . S
C1865 C1849 1.429 . S
C1865 C1861 1.429 . S
C1865 C1866 1.523 . S
C1866 C1850 1.368 . S
C1866 C1862 1.368 . S
C1866 C1865 1.523 . S
H1867 C1842 0.950 . S
H1868 C1844 0.950 . S
H1869 C1845 0.949 . S
H1870 C1847 0.950 . S
H1871 C1849 0.950 . S
C1872 C1873 1.349 . S
C1872 C1874 1.327 . S
C1872 H1897 0.950 . S
C1873 C1872 1.349 . S
C1873 C1889 1.349 . S
C1874 C1872 1.327 . S
C1874 C1893 1.429 . S
C1874 H1898 0.950 . S
C1875 C1892 1.574 . S
C1875 C1894 1.368 . S
C1875 H1899 0.949 . S
H1876 C1880 0.949 . S
C1877 C1878 1.349 . S
C1877 C1879 1.327 . S
C1877 H1900 0.950 . S
C1878 C1877 1.349 . S
C1878 C1890 1.349 . S
C1879 C1877 1.327 . S
C1879 C1895 1.429 . S
C1879 H1901 0.950 . S
C1880 H1876 0.949 . S
C1880 C1888 1.574 . S
C1880 C1896 1.368 . S
H1881 C1889 0.950 . S
H1882 C1887 0.950 . S
H1883 C1888 0.949 . S
H1884 C1890 0.950 . S
H1885 C1891 0.950 . S
H1886 C1892 0.949 . S
C1887 H1882 0.950 . S
C1887 C1889 1.327 . S
C1887 C1893 1.429 . S
C1888 C1880 1.574 . S
C1888 H1883 0.949 . S
C1888 C1894 1.368 . S
C1889 C1873 1.349 . S
C1889 H1881 0.950 . S
C1889 C1887 1.327 . S
C1890 C1878 1.349 . S
C1890 H1884 0.950 . S
C1890 C1891 1.327 . S
C1891 H1885 0.950 . S
C1891 C1890 1.327 . S
C1891 C1895 1.429 . S
C1892 C1875 1.574 . S
C1892 H1886 0.949 . S
C1892 C1896 1.368 . S
C1893 C1874 1.429 . S
C1893 C1887 1.429 . S
C1893 C1894 1.523 . S
C1894 C1875 1.368 . S
C1894 C1888 1.368 . S
C1894 C1893 1.523 . S
C1895 C1879 1.429 . S
C1895 C1891 1.429 . S
C1895 C1896 1.523 . S
C1896 C1880 1.368 . S
C1896 C1892 1.368 . S
C1896 C1895 1.523 . S
H1897 C1872 0.950 . S
H1898 C1874 0.950 . S
H1899 C1875 0.949 . S
H1900 C1877 0.950 . S
H1901 C1879 0.950 . S
C1902 C1903 1.349 . S
C1902 C1904 1.327 . S
C1902 H1927 0.950 . S
C1903 C1902 1.349 . S
C1903 C1919 1.349 . S
C1904 C1902 1.327 . S
C1904 C1923 1.429 . S
C1904 H1928 0.950 . S
C1905 C1922 1.574 . S
C1905 C1924 1.368 . S
C1905 H1929 0.949 . S
H1906 C1910 0.949 . S
C1907 C1908 1.349 . S
C1907 C1909 1.327 . S
C1907 H1930 0.950 . S
C1908 C1907 1.349 . S
C1908 C1920 1.349 . S
C1909 C1907 1.327 . S
C1909 C1925 1.429 . S
C1909 H1931 0.950 . S
C1910 H1906 0.949 . S
C1910 C1918 1.574 . S
C1910 C1926 1.368 . S
H1911 C1919 0.950 . S
H1912 C1917 0.950 . S
H1913 C1918 0.949 . S
H1914 C1920 0.950 . S
H1915 C1921 0.950 . S
H1916 C1922 0.949 . S
C1917 H1912 0.950 . S
C1917 C1919 1.327 . S
C1917 C1923 1.429 . S
C1918 C1910 1.574 . S
C1918 H1913 0.949 . S
C1918 C1924 1.368 . S
C1919 C1903 1.349 . S
C1919 H1911 0.950 . S
C1919 C1917 1.327 . S
C1920 C1908 1.349 . S
C1920 H1914 0.950 . S
C1920 C1921 1.327 . S
C1921 H1915 0.950 . S
C1921 C1920 1.327 . S
C1921 C1925 1.429 . S
C1922 C1905 1.574 . S
C1922 H1916 0.949 . S
C1922 C1926 1.368 . S
C1923 C1904 1.429 . S
C1923 C1917 1.429 . S
C1923 C1924 1.523 . S
C1924 C1905 1.368 . S
C1924 C1918 1.368 . S
C1924 C1923 1.523 . S
C1925 C1909 1.429 . S
C1925 C1921 1.429 . S
C1925 C1926 1.523 . S
C1926 C1910 1.368 . S
C1926 C1922 1.368 . S
C1926 C1925 1.523 . S
H1927 C1902 0.950 . S
H1928 C1904 0.950 . S
H1929 C1905 0.949 . S
H1930 C1907 0.950 . S
H1931 C1909 0.950 . S
C1932 C1933 1.349 . S
C1932 C1934 1.327 . S
C1932 H1957 0.950 . S
C1933 C1932 1.349 . S
C1933 C1949 1.349 . S
C1934 C1932 1.327 . S
C1934 C1953 1.429 . S
C1934 H1958 0.950 . S
C1935 C1952 1.574 . S
C1935 C1954 1.368 . S
C1935 H1959 0.949 . S
H1936 C1940 0.949 . S
C1937 C1938 1.349 . S
C1937 C1939 1.327 . S
C1937 H1960 0.950 . S
C1938 C1937 1.349 . S
C1938 C1950 1.349 . S
C1939 C1937 1.327 . S
C1939 C1955 1.429 . S
C1939 H1961 0.950 . S
C1940 H1936 0.949 . S
C1940 C1948 1.574 . S
C1940 C1956 1.368 . S
H1941 C1949 0.950 . S
H1942 C1947 0.950 . S
H1943 C1948 0.949 . S
H1944 C1950 0.950 . S
H1945 C1951 0.950 . S
H1946 C1952 0.949 . S
C1947 H1942 0.950 . S
C1947 C1949 1.327 . S
C1947 C1953 1.429 . S
C1948 C1940 1.574 . S
C1948 H1943 0.949 . S
C1948 C1954 1.368 . S
C1949 C1933 1.349 . S
C1949 H1941 0.950 . S
C1949 C1947 1.327 . S
C1950 C1938 1.349 . S
C1950 H1944 0.950 . S
C1950 C1951 1.327 . S
C1951 H1945 0.950 . S
C1951 C1950 1.327 . S
C1951 C1955 1.429 . S
C1952 C1935 1.574 . S
C1952 H1946 0.949 . S
C1952 C1956 1.368 . S
C1953 C1934 1.429 . S
C1953 C1947 1.429 . S
C1953 C1954 1.523 . S
C1954 C1935 1.368 . S
C1954 C1948 1.368 . S
C1954 C1953 1.523 . S
C1955 C1939 1.429 . S
C1955 C1951 1.429 . S
C1955 C1956 1.523 . S
C1956 C1940 1.368 . S
C1956 C1952 1.368 . S
C1956 C1955 1.523 . S
H1957 C1932 0.950 . S
H1958 C1934 0.950 . S
H1959 C1935 0.949 . S
H1960 C1937 0.950 . S
H1961 C1939 0.950 . S
C343 C124 1.508 . S
C348 C168 1.489 . S
C373 C130 1.512 . S
C378 C188 1.487 . S
C403 C115 1.501 . S
C408 C211 1.498 . S
C433 C106 1.424 . S
C438 C191 1.421 . S
C468 C208 1.408 . S
C463 C85 1.424 . S
C493 C97 1.407 . S
C498 C171 1.404 . S
C528 C178 1.511 . S
C523 C103 1.529 . S
C558 C198 1.467 . S
C553 C88 1.491 . S
C583 C94 1.501 . S
C588 C203 1.497 . S
C613 C121 1.424 . S
C618 C183 1.420 . S
C643 C133 1.402 . S
C648 C218 1.387 . S
C678 C163 1.427 . S
C673 C112 1.430 . S
C708 C228 1.489 . S
C703 C16 1.507 . S
C733 C22 1.512 . S
C738 C248 1.487 . S
C763 C7 1.501 . S
C768 C271 1.498 . S
C793 C160 1.424 . S
C798 C251 1.421 . S
C823 C139 1.424 . S
C828 C268 1.408 . S
C853 C151 1.407 . S
C858 C231 1.404 . S
C883 C157 1.529 . S
C888 C238 1.511 . S
C913 C142 1.491 . S
C918 C258 1.467 . S
C948 C263 1.497 . S
C943 C148 1.500 . S
C973 C13 1.424 . S
C978 C243 1.420 . S
C1008 C278 1.387 . S
C1003 C25 1.403 . S
C1033 C4 1.430 . S
C1038 C223 1.427 . S
C1068 C288 1.489 . S
C1063 C70 1.508 . S
C1093 C76 1.512 . S
C1098 C308 1.487 . S
C1128 C331 1.498 . S
C1123 C61 1.501 . S
C1158 C311 1.421 . S
C1153 C52 1.424 . S
C1188 C328 1.408 . S
C1183 C31 1.424 . S
C1213 C43 1.407 . S
C1218 C291 1.404 . S
C1243 C49 1.529 . S
C1248 C298 1.511 . S
C1273 C34 1.491 . S
C1278 C318 1.467 . S
C1308 C323 1.497 . S
C1303 C40 1.501 . S
C1333 C67 1.423 . S
C1338 C303 1.419 . S
C1363 C79 1.403 . S
C1368 C338 1.387 . S
C1393 C58 1.430 . S
C1398 C283 1.427 . S
C1423 C140 1.258 . S
C1428 C181 1.231 1_565 S
C1458 C201 1.567 . S
C1453 C149 1.621 . S
C1483 C158 1.477 . S
C1488 C210 1.438 . S
C1513 C59 1.645 . S
C1518 C190 1.592 1_655 S
C1543 C68 1.450 . S
C1548 C221 1.412 . S
C1578 C170 1.217 1_545 S
C1573 C77 1.256 . S
C1603 C32 1.258 . S
C1608 C241 1.231 . S
C1633 C41 1.621 . S
C1638 C261 1.567 . S
C1663 C50 1.477 . S
C1668 C270 1.438 . S
C1693 C113 1.646 . S
C1698 C250 1.592 . S
C1728 C281 1.412 . S
C1723 C122 1.450 . S
C1753 C131 1.256 . S
C1758 C230 1.229 . S
C1783 C86 1.258 . S
C1788 C301 1.231 . S
C1813 C95 1.621 . S
C1818 C321 1.567 . S
C1848 C330 1.438 . S
C1843 C104 1.477 . S
C1873 C5 1.645 . S
C1878 C310 1.592 . S
C1903 C14 1.450 . S
C1908 C341 1.412 . S
C1933 C23 1.257 . S
C1938 C290 1.229 . S
