# Generated by pormake.
# Topology anh, (6,3)-cn, num edge types: 1
# Building blocks:
#     Node 0, Type 0, BuildingBlock: PAMTOO_clean_sbu_0, # of connection points: 6
#     Node 1, Type 0, BuildingBlock: PAMTOO_clean_sbu_0, # of connection points: 6
#     Node 2, Type 0, BuildingBlock: PAMTOO_clean_sbu_0, # of connection points: 6
#     Node 3, Type 1, BuildingBlock: QEWDON_clean_linker_0, # of connection points: 3
#     Node 4, Type 1, BuildingBlock: QEWDON_clean_linker_0, # of connection points: 3
#     Node 5, Type 1, BuildingBlock: QEWDON_clean_linker_0, # of connection points: 3
#     Node 6, Type 1, BuildingBlock: QEWDON_clean_linker_0, # of connection points: 3
#     Node 7, Type 1, BuildingBlock: QEWDON_clean_linker_0, # of connection points: 3
#     Node 8, Type 1, BuildingBlock: QEWDON_clean_linker_0, # of connection points: 3
#     Edge 9, Type (0, 1), BuildingBlock: EZIPEK_clean_linker_0, # of connection points: 2
#     Edge 10, Type (0, 1), BuildingBlock: EZIPEK_clean_linker_0, # of connection points: 2
#     Edge 11, Type (0, 1), BuildingBlock: EZIPEK_clean_linker_0, # of connection points: 2
#     Edge 12, Type (0, 1), BuildingBlock: EZIPEK_clean_linker_0, # of connection points: 2
#     Edge 13, Type (0, 1), BuildingBlock: EZIPEK_clean_linker_0, # of connection points: 2
#     Edge 14, Type (0, 1), BuildingBlock: EZIPEK_clean_linker_0, # of connection points: 2
#     Edge 15, Type (0, 1), BuildingBlock: EZIPEK_clean_linker_0, # of connection points: 2
#     Edge 16, Type (0, 1), BuildingBlock: EZIPEK_clean_linker_0, # of connection points: 2
#     Edge 17, Type (0, 1), BuildingBlock: EZIPEK_clean_linker_0, # of connection points: 2
#     Edge 18, Type (0, 1), BuildingBlock: EZIPEK_clean_linker_0, # of connection points: 2
#     Edge 19, Type (0, 1), BuildingBlock: EZIPEK_clean_linker_0, # of connection points: 2
#     Edge 20, Type (0, 1), BuildingBlock: EZIPEK_clean_linker_0, # of connection points: 2
#     Edge 21, Type (0, 1), BuildingBlock: EZIPEK_clean_linker_0, # of connection points: 2
#     Edge 22, Type (0, 1), BuildingBlock: EZIPEK_clean_linker_0, # of connection points: 2
#     Edge 23, Type (0, 1), BuildingBlock: EZIPEK_clean_linker_0, # of connection points: 2
#     Edge 24, Type (0, 1), BuildingBlock: EZIPEK_clean_linker_0, # of connection points: 2
#     Edge 25, Type (0, 1), BuildingBlock: EZIPEK_clean_linker_0, # of connection points: 2
#     Edge 26, Type (0, 1), BuildingBlock: EZIPEK_clean_linker_0, # of connection points: 2
# Relax obj value: 0.187
# Max RMSD: 0.169
# Mean RMSD: 0.121
data_MOF--net-anh--node1-PAMTOO_clean_sbu_0--node2-QEWDON_clean_linker_0--edge1-EZIPEK_clean_linker_0
_symmetry_space_group_name_H-M    P1
_symmetry_Int_Tables_number       1
_symmetry_cell_setting            triclinic
loop_
_symmetry_equiv_pos_as_xyz
'x, y, z'
_cell_length_a     23.805365
_cell_length_b     23.016976
_cell_length_c     35.696371
_cell_angle_alpha  95.173506
_cell_angle_beta   99.58263
_cell_angle_gamma 97.931599
loop_
_atom_site_label
_atom_site_type_symbol
_atom_site_fract_x
_atom_site_fract_y
_atom_site_fract_z
_atom_type_partial_charge
Dy0 Dy 0.11757 0.64195 0.15542 0.0
Dy1 Dy 1.0902 0.50625 0.11507 0.0
C2 C 0.11495 0.61588 0.06673 0.0
O3 O 1.02004 0.62558 0.13313 0.0
O4 O 1.00701 0.52575 0.13331 0.0
O5 O 1.11016 0.73443 0.1558 0.0
O6 O 0.15796 0.70297 0.20515 0.0
O7 O 0.11335 0.50026 0.17786 0.0
O8 O 1.08895 0.58824 0.19914 0.0
O9 O 0.1858 0.52921 0.11381 0.0
O10 O 0.20642 0.61348 0.15672 0.0
O11 O 1.10105 0.41422 0.11227 0.0
O12 O 1.0369 0.44283 0.07056 0.0
C13 C 0.98497 0.5752 0.13192 0.0
O14 O 0.13808 0.64988 0.09818 0.0
O15 O 1.08659 0.56258 0.06653 0.0
C16 C 0.1975 0.79283 0.18735 0.0
C17 C 0.30222 0.8675 0.18964 0.0
C18 C 0.27679 0.82945 0.15642 0.0
C19 C 0.22494 0.79205 0.15536 0.0
C20 C 0.22227 0.83188 0.2202 0.0
C21 C 0.27435 0.86903 0.22135 0.0
C22 C 0.14673 0.74888 0.188 0.0
C23 C 1.10163 0.53605 0.20518 0.0
C24 C 0.22377 0.57172 0.13527 0.0
C25 C 1.00856 0.3549 0.09559 0.0
C26 C 0.90999 0.29098 0.11519 0.0
C27 C 0.95906 0.31157 0.1433 0.0
C28 C 1.00785 0.34363 0.13366 0.0
C29 C 0.96051 0.3313 0.06721 0.0
C30 C 0.91152 0.29973 0.07695 0.0
C31 C 1.05469 0.39804 0.08619 0.0
H32 H 0.29779 0.82777 0.13173 0.0
H33 H 0.20703 0.76159 0.1299 0.0
H34 H 0.20212 0.83251 0.24527 0.0
H35 H 0.2935 0.89824 0.24718 0.0
H36 H 0.95852 0.3052 0.17295 0.0
H37 H 1.04387 0.36178 0.15632 0.0
H38 H 0.95979 0.33982 0.03779 0.0
H39 H 0.87395 0.28415 0.05492 0.0
Dy40 Dy 0.60515 0.02901 0.48428 0.0
Dy41 Dy 0.74681 0.05334 0.50548 0.0
C42 C 0.67173 0.04207 0.56954 0.0
O43 O 0.62844 0.12538 0.48059 0.0
O44 O 0.71921 0.142 0.51756 0.0
O45 O 0.52443 1.00598 0.50316 0.0
O46 O 0.52496 0.02919 0.44573 0.0
O47 O 0.72138 0.07573 0.44573 0.0
O48 O 0.63696 1.01124 0.42976 0.0
O49 O 0.72609 0.95446 0.49254 0.0
O50 O 0.62787 0.93887 0.4914 0.0
O51 O 0.82954 0.04639 0.48966 0.0
O52 O 0.82485 0.08983 0.54532 0.0
C53 C 0.67322 0.16147 0.50039 0.0
O54 O 0.63185 0.06168 0.54637 0.0
O55 O 0.71532 0.02298 0.55703 0.0
C56 C 0.45006 0.95658 0.45526 0.0
C57 C 0.36946 0.8531 0.43431 0.0
C58 C 0.35708 0.90039 0.45754 0.0
C59 C 0.39716 0.95191 0.46791 0.0
C60 C 0.46223 0.9096 0.43154 0.0
C61 C 0.42186 0.85821 0.42087 0.0
C62 C 0.49374 1.00846 0.46973 0.0
C63 C 0.67878 0.04643 0.41993 0.0
C64 C 0.6771 0.91896 0.4911 0.0
C65 C 0.89628 0.13256 0.51426 0.0
C66 C 0.95962 0.24287 0.50898 0.0
C67 C 0.91339 0.21762 0.47981 0.0
C68 C 0.88174 0.16295 0.48249 0.0
C69 C 0.94399 0.15672 0.54266 0.0
C70 C 0.9755 0.21172 0.54009 0.0
C71 C 0.85766 0.0801 0.52033 0.0
H72 H 0.31677 0.89696 0.46811 0.0
H73 H 0.38747 0.98758 0.48654 0.0
H74 H 0.50328 0.91222 0.42197 0.0
H75 H 0.43191 0.82197 0.40291 0.0
H76 H 0.90033 0.24144 0.45581 0.0
H77 H 0.84452 0.14564 0.46051 0.0
H78 H 0.95531 0.13424 0.56759 0.0
H79 H 1.0108 0.23098 0.56298 0.0
Dy80 Dy 0.69871 0.51253 0.82265 0.0
Dy81 Dy 0.55897 0.49547 0.80019 0.0
C82 C 0.63765 0.50309 0.73744 0.0
O83 O 0.67833 0.60559 0.82974 0.0
O84 O 0.58727 0.58999 0.79355 0.0
O85 O 0.77931 0.54748 0.86039 0.0
O86 O 0.77799 0.48936 0.80877 0.0
O87 O 0.58501 0.5332 0.86199 0.0
O88 O 0.66577 0.49057 0.87522 0.0
O89 O 0.5746 0.40523 0.81323 0.0
O90 O 0.66922 0.41513 0.80528 0.0
O91 O 0.47438 0.48584 0.81578 0.0
O92 O 0.48297 0.49132 0.75677 0.0
C93 C 0.63305 0.62573 0.81206 0.0
O94 O 0.67782 0.53538 0.76332 0.0
O95 O 0.59365 0.4711 0.74732 0.0
C96 C 0.85582 0.56681 0.82739 0.0
C97 C 0.94215 0.65309 0.81302 0.0
C98 C 0.95034 0.62526 0.84649 0.0
C99 C 0.90749 0.58236 0.85361 0.0
C100 C 0.84785 0.59358 0.79335 0.0
C101 C 0.89116 0.63641 0.78606 0.0
C102 C 0.8097 0.52521 0.83712 0.0
C103 C 0.62449 0.51546 0.88668 0.0
C104 C 0.62073 0.38212 0.80829 0.0
C105 C 0.42806 0.5557 0.78408 0.0
C106 C 0.41644 0.67203 0.80873 0.0
C107 C 0.44974 0.66154 0.78078 0.0
C108 C 0.45497 0.60374 0.76819 0.0
C109 C 0.39071 0.56633 0.80954 0.0
C110 C 0.38491 0.62421 0.82177 0.0
C111 C 0.45105 0.49937 0.78257 0.0
H112 H 0.98961 0.63781 0.86757 0.0
H113 H 0.91414 0.56229 0.88 0.0
H114 H 0.80787 0.58222 0.77287 0.0
H115 H 0.88441 0.65753 0.76012 0.0
H116 H 0.47448 0.69802 0.77059 0.0
H117 H 0.48417 0.59729 0.74849 0.0
H118 H 0.37004 0.53032 0.82247 0.0
H119 H 0.35902 0.63186 0.84346 0.0
H120 H 0.66672 0.12738 0.24356 0.0
C121 C 0.62772 0.09561 0.23417 0.0
C122 C 0.60791 0.05886 0.26019 0.0
C123 C 0.59534 0.09357 0.19706 0.0
H124 H 0.54009 0.99238 0.26944 0.0
C125 C 0.55613 0.01964 0.24906 0.0
C126 C 0.52385 1.01675 0.2123 0.0
C127 C 0.54397 0.05274 0.1862 0.0
C128 C 0.61229 0.13661 0.17057 0.0
H129 H 0.51851 0.04979 0.15775 0.0
C130 C 0.67063 0.15446 0.16819 0.0
C131 C 0.6854 0.19543 0.14307 0.0
C132 C 0.56947 0.16119 0.14777 0.0
H133 H 0.52439 0.15001 0.14958 0.0
C134 C 0.58423 0.20154 0.1228 0.0
H135 H 0.70448 0.13641 0.18544 0.0
C136 C 0.64183 0.21856 0.12037 0.0
H137 H 0.65259 0.25027 0.10102 0.0
H138 H 0.55088 0.22006 0.10548 0.0
H139 H 0.64449 0.57175 0.56354 0.0
C140 C 0.65069 0.52816 0.55246 0.0
C141 C 0.65586 0.48497 0.57763 0.0
C142 C 0.6499 0.51416 0.51308 0.0
H143 H 0.66524 0.39451 0.58345 0.0
C144 C 0.66192 0.42783 0.56386 0.0
C145 C 0.66146 0.41231 0.52503 0.0
C146 C 0.65559 0.45557 0.49964 0.0
C147 C 0.638 0.55917 0.486 0.0
H148 H 0.65481 0.4431 0.46956 0.0
C149 C 0.65714 0.62059 0.49681 0.0
C150 C 0.64141 0.66236 0.47186 0.0
C151 C 0.60391 0.54098 0.44954 0.0
H152 H 0.58693 0.49488 0.44038 0.0
C153 C 0.58933 0.58216 0.42468 0.0
H154 H 0.68388 0.63619 0.52447 0.0
C155 C 0.60768 0.64232 0.43574 0.0
H156 H 0.59523 0.6735 0.4161 0.0
H157 H 0.56287 0.56735 0.39684 0.0
H158 H 0.24085 0.80057 0.97772 0.0
C159 C 0.20913 0.79731 0.95173 0.0
C160 C 0.15767 0.7571 0.94686 0.0
C161 C 0.22133 0.82989 0.92177 0.0
H162 H 1.07919 0.71886 0.90841 0.0
C163 C 0.11841 0.75075 0.91246 0.0
C164 C 0.13011 0.78346 0.8827 0.0
C165 C 0.18136 0.8232 0.88736 0.0
C166 C 0.28 0.86062 0.92278 0.0
H167 H 0.19143 0.84647 0.86363 0.0
C168 C 0.31374 0.83521 0.89943 0.0
C169 C 0.36969 0.86232 0.89867 0.0
C170 C 0.30261 0.9139 0.94597 0.0
H171 H 0.277 0.93401 0.96436 0.0
C172 C 0.35847 0.94184 0.94489 0.0
H173 H 0.29649 0.79343 0.88195 0.0
C174 C 0.39204 0.91632 0.92115 0.0
H175 H 0.43528 0.93793 0.9207 0.0
H176 H 0.3758 0.98323 0.96254 0.0
H177 H 1.07626 0.50775 0.3902 0.0
C178 C 1.11116 0.54466 0.39526 0.0
C179 C 0.13547 0.56294 0.36412 0.0
C180 C 0.1305 0.57563 0.43223 0.0
H181 H 0.19805 0.62622 0.34594 0.0
C182 C 0.17955 0.61158 0.36993 0.0
C183 C 0.19927 0.6423 0.40626 0.0
C184 C 0.17548 0.62391 0.43728 0.0
C185 C 1.10411 0.55883 0.46563 0.0
H186 H 0.19256 0.64764 0.46537 0.0
C187 C 1.08282 0.49952 0.46861 0.0
C188 C 1.06079 0.48395 0.50114 0.0
C189 C 1.10104 0.60234 0.49541 0.0
H190 H 0.11452 0.64873 0.49368 0.0
C191 C 1.08018 0.58674 0.52797 0.0
H192 H 1.08414 0.46502 0.44618 0.0
C193 C 1.0608 0.5278 0.53111 0.0
H194 H 1.04439 0.51644 0.55649 0.0
H195 H 1.07872 0.62056 0.55076 0.0
H196 H 0.62897 0.96925 0.73618 0.0
C197 C 0.6298 1.01397 0.74892 0.0
C198 C 0.64161 0.06078 0.72734 0.0
C199 C 0.61503 0.02439 0.78529 0.0
H200 H 0.64812 0.15458 0.72523 0.0
C201 C 0.64012 0.11873 0.74235 0.0
C202 C 0.62618 0.13076 0.77852 0.0
C203 C 0.61411 0.08362 0.80009 0.0
C204 C 0.59475 0.97319 0.80558 0.0
H205 H 0.60293 0.0933 0.82792 0.0
C206 C 0.61708 0.91905 0.80269 0.0
C207 C 0.59329 0.86979 0.81915 0.0
C208 C 0.5493 0.9769 0.82598 0.0
H209 H 0.52971 1.01652 0.82808 0.0
C210 C 0.52674 0.9288 0.84288 0.0
H211 H 0.65231 0.91475 0.78748 0.0
C212 C 0.54828 0.87573 0.83936 0.0
H213 H 0.52977 0.8389 0.85242 0.0
H214 H 0.49171 0.93246 0.85835 0.0
H215 H 0.56842 0.57189 0.06097 0.0
C216 C 0.61185 0.56927 0.07476 0.0
C217 C 0.6526 0.56029 0.05128 0.0
C218 C 0.62697 0.5755 0.11505 0.0
H219 H 0.74121 0.55458 0.04895 0.0
C220 C 0.71034 0.56025 0.06767 0.0
C221 C 0.72945 0.56762 0.1073 0.0
C222 C 0.68696 0.57387 0.131 0.0
C223 C 0.58075 0.58621 0.13961 0.0
H224 H 0.70125 0.57694 0.16155 0.0
C225 C 0.51882 0.57432 0.12573 0.0
C226 C 0.47826 0.5877 0.14983 0.0
C227 C 0.59901 0.61167 0.17788 0.0
H228 H 0.64418 0.6241 0.19013 0.0
C229 C 0.55967 0.62365 0.20137 0.0
H230 H 0.50169 0.55472 0.09671 0.0
C231 C 0.50047 0.61188 0.18768 0.0
H232 H 0.47153 0.62258 0.20681 0.0
H233 H 0.57543 0.64322 0.23063 0.0
C234 C 0.31707 0.52438 0.14405 0.0
C235 C 0.28862 0.57345 0.1349 0.0
C236 C 0.38423 0.62917 0.12981 0.0
C237 C 0.41228 0.57948 0.13761 0.0
N238 N 0.40273 0.4764 0.14559 0.0
N239 N 0.29506 0.66812 0.1107 0.0
C240 C 0.37757 0.52601 0.14242 0.0
C241 C 0.32236 0.62455 0.12544 0.0
N242 N 0.2872 0.47729 0.15671 0.0
N243 N 0.41715 0.68189 0.12764 0.0
H244 H 0.25045 0.66606 0.10628 0.0
H245 H 0.31581 0.70354 0.09945 0.0
H246 H 0.46151 0.68622 0.12819 0.0
H247 H 0.4012 0.7218 0.12748 0.0
H248 H 0.30627 0.44307 0.16797 0.0
H249 H 0.24392 0.47471 0.15914 0.0
H250 H 0.3797 0.43444 0.14527 0.0
H251 H 0.44643 0.47649 0.14504 0.0
C252 C 1.04455 0.31674 0.50176 0.0
C253 C 0.98736 0.30447 0.5086 0.0
C254 C 0.97692 0.40826 0.50664 0.0
C255 C 1.03582 0.42183 0.50351 0.0
N256 N 0.12915 0.39065 0.50649 0.0
N257 N 0.90513 0.34101 0.52809 0.0
C258 C 1.07077 0.37651 0.50343 0.0
C259 C 0.95533 0.35099 0.51424 0.0
N260 N 1.07324 0.27145 0.49272 0.0
N261 N 0.94073 0.44907 0.50062 0.0
H262 H 0.88767 0.29957 0.53421 0.0
H263 H 0.88446 0.37522 0.5374 0.0
H264 H 0.954 0.4909 0.49317 0.0
H265 H 0.89628 0.43911 0.49907 0.0
H266 H 0.11268 0.27781 0.48348 0.0
H267 H 1.05541 0.22713 0.49142 0.0
H268 H 0.15722 0.35987 0.51033 0.0
H269 H 0.15015 0.43405 0.50892 0.0
C270 C 0.61809 0.71644 0.77896 0.0
C271 C 0.63157 0.69079 0.81348 0.0
C272 C 0.63642 0.78785 0.84981 0.0
C273 C 0.61394 0.811 0.81588 0.0
N274 N 0.57539 0.79364 0.74816 0.0
N275 N 0.64034 0.70032 0.88215 0.0
C276 C 0.60306 0.77448 0.78032 0.0
C277 C 0.63787 0.72615 0.84909 0.0
N278 N 0.6204 0.68567 0.74482 0.0
N279 N 0.65612 0.82488 0.8829 0.0
H280 H 0.63615 0.65478 0.88241 0.0
H281 H 0.63938 0.72323 0.90852 0.0
H282 H 0.65637 0.87041 0.88426 0.0
H283 H 0.67754 0.81125 0.9077 0.0
H284 H 0.61622 0.70404 0.71907 0.0
H285 H 0.63231 0.64371 0.74282 0.0
H286 H 0.56025 0.76632 0.72255 0.0
H287 H 0.56318 0.83539 0.74781 0.0
C288 C 0.89441 0.61685 0.14864 0.0
C289 C 0.91906 0.57279 0.1287 0.0
C290 C 0.81928 0.51803 0.10759 0.0
C291 C 0.79427 0.56673 0.12128 0.0
N292 N 0.81136 0.66725 0.1512 0.0
N293 N 0.89911 0.48704 0.08122 0.0
C294 C 0.83285 0.61738 0.14098 0.0
C295 C 0.87982 0.52462 0.10628 0.0
N296 N 0.92908 0.65694 0.17631 0.0
N297 N 0.78483 0.46491 0.09546 0.0
H298 H 0.941 0.49342 0.07577 0.0
H299 H 0.87169 0.45427 0.06204 0.0
H300 H 0.74099 0.45821 0.09688 0.0
H301 H 0.80096 0.42643 0.08811 0.0
H302 H 0.91301 0.68644 0.19411 0.0
H303 H 0.97304 0.65616 0.18455 0.0
H304 H 0.83755 0.70749 0.16161 0.0
H305 H 0.76737 0.66955 0.14648 0.0
C306 C 0.27435 0.79719 0.40028 0.0
C307 C 0.32767 0.79768 0.42495 0.0
C308 C 0.29999 0.69347 0.43232 0.0
C309 C 0.24407 0.69533 0.41173 0.0
N310 N 0.17464 0.75139 0.38105 0.0
N311 N 0.38858 0.74935 0.46922 0.0
C312 C 0.23028 0.74782 0.3969 0.0
C313 C 0.33997 0.74657 0.44221 0.0
N314 N 0.26635 0.84334 0.37944 0.0
N315 N 0.31532 0.64075 0.44158 0.0
H316 H 0.41887 0.78754 0.47753 0.0
H317 H 0.39649 0.7153 0.48574 0.0
H318 H 0.28718 0.60083 0.43455 0.0
H319 H 0.35733 0.63579 0.45306 0.0
H320 H 0.23064 0.84265 0.35803 0.0
H321 H 0.29798 0.88013 0.381 0.0
H322 H 0.16108 0.79059 0.37356 0.0
H323 H 0.14078 0.71646 0.37846 0.0
C324 C 0.57562 0.28012 0.77559 0.0
C325 C 0.61786 0.31639 0.8042 0.0
C326 C 0.66361 0.22931 0.8189 0.0
C327 C 0.61988 0.19292 0.79149 0.0
N328 N 0.52655 0.18118 0.75095 0.0
N329 N 0.69357 0.32293 0.85918 0.0
C330 C 0.5733 0.21765 0.7723 0.0
C331 C 0.65934 0.29014 0.82771 0.0
N332 N 0.54011 0.30525 0.74978 0.0
N333 N 0.71043 0.20641 0.83539 0.0
H334 H 0.69068 0.36704 0.86703 0.0
H335 H 0.72069 0.30501 0.8795 0.0
H336 H 0.71444 0.16197 0.83026 0.0
H337 H 0.74698 0.23217 0.85207 0.0
H338 H 0.51309 0.28125 0.72581 0.0
H339 H 0.54144 0.35071 0.75001 0.0
H340 H 0.48873 0.19603 0.73937 0.0
H341 H 0.52341 0.13525 0.74807 0.0
C342 C 0.7019 0.82145 0.46319 0.0
C343 C 0.6767 0.85344 0.49037 0.0
C344 C 0.63312 0.75929 0.50892 0.0
C345 C 0.65949 0.72762 0.48249 0.0
N346 N 0.73134 0.72872 0.44239 0.0
N347 N 0.63486 0.85201 0.54741 0.0
C348 C 0.69802 0.75892 0.46228 0.0
C349 C 0.6473 0.82203 0.51578 0.0
N350 N 0.7266 0.84985 0.43663 0.0
N351 N 0.59262 0.72995 0.52631 0.0
H352 H 0.64798 0.89735 0.55462 0.0
H353 H 0.61792 0.83116 0.56871 0.0
H354 H 0.58129 0.68413 0.52239 0.0
H355 H 0.56715 0.75146 0.5423 0.0
H356 H 0.73905 0.82786 0.41331 0.0
H357 H 0.73057 0.8952 0.43598 0.0
H358 H 0.76445 0.74941 0.4302 0.0
H359 H 0.72974 0.68305 0.44143 0.0
C360 C 0.98506 0.75882 0.82563 0.0
C361 C 0.98736 0.70145 0.80861 0.0
C362 C 1.09228 0.72013 0.82146 0.0
C363 C 1.08912 0.77085 0.84605 0.0
N364 N 1.03903 0.85057 0.86117 0.0
N365 N 1.03929 0.63583 0.77739 0.0
C366 C 1.03745 0.79494 0.84378 0.0
C367 C 1.04012 0.6857 0.80137 0.0
N368 N 0.93271 0.77588 0.82712 0.0
N369 N 0.14466 0.70291 0.8203 0.0
H370 H 1.00044 0.61074 0.76308 0.0
H371 H 1.07588 0.62153 0.76982 0.0
H372 H 0.18302 0.72892 0.83453 0.0
H373 H 0.1504 0.66375 0.80554 0.0
H374 H 0.92705 0.8151 0.84184 0.0
H375 H 0.89428 0.74991 0.81306 0.0
H376 H 1.0034 0.87231 0.86023 0.0
H377 H 1.07793 0.87642 0.87465 0.0
C378 C 0.41001 0.87951 0.19489 0.0
C379 C 0.35874 0.90524 0.1917 0.0
C380 C 0.41565 1.00422 0.20116 0.0
C381 C 0.46672 0.97849 0.20235 0.0
N382 N 0.5123 0.89253 0.19278 0.0
N383 N 0.31154 0.9905 0.18315 0.0
C384 C 0.46378 0.91629 0.1968 0.0
C385 C 0.36122 0.9672 0.19215 0.0
N386 N 0.40763 0.8204 0.1978 0.0
N387 N 0.41915 0.06375 0.21039 0.0
H388 H 0.27087 0.96459 0.17623 0.0
H389 H 0.31098 0.03467 0.17907 0.0
H390 H 0.45813 0.09262 0.21723 0.0
H391 H 0.38372 0.084 0.21433 0.0
H392 H 0.44404 0.80025 0.20434 0.0
H393 H 0.36916 0.7919 0.19662 0.0
H394 H 0.51192 0.84782 0.18477 0.0
H395 H 0.55238 0.91835 0.19411 0.0
C396 C 0.62197 0.2462 0.51727 0.0
C397 C 0.67011 0.2262 0.50435 0.0
C398 C 0.71142 0.32953 0.50062 0.0
C399 C 0.66185 0.34866 0.5119 0.0
N400 N 0.5634 0.324 0.52016 0.0
N401 N 0.75538 0.2478 0.47657 0.0
C402 C 0.61501 0.30642 0.51662 0.0
C403 C 0.71337 0.26762 0.49385 0.0
N404 N 0.58458 0.20859 0.53249 0.0
N405 N 0.75726 0.37047 0.49751 0.0
H406 H 0.75808 0.20315 0.47103 0.0
H407 H 0.7848 0.27499 0.4648 0.0
H408 H 0.75723 0.41584 0.50215 0.0
H409 H 0.79638 0.35982 0.49209 0.0
H410 H 0.5524 0.22246 0.54603 0.0
H411 H 0.58932 0.16481 0.53541 0.0
H412 H 0.52595 0.29449 0.51993 0.0
H413 H 0.55658 0.36773 0.5192 0.0
C414 C 0.38937 0.77407 0.81143 0.0
C415 C 0.42049 0.73215 0.82855 0.0
C416 C 0.43881 0.79199 0.89067 0.0
C417 C 0.40316 0.83096 0.87435 0.0
N418 N 0.36167 0.87173 0.81865 0.0
N419 N 0.49218 0.71153 0.8796 0.0
C420 C 0.38488 0.82645 0.83426 0.0
C421 C 0.45125 0.74477 0.86665 0.0
N422 N 0.36127 0.7621 0.77433 0.0
N423 N 0.45743 0.79779 0.92932 0.0
H424 H 0.50244 0.67699 0.86225 0.0
H425 H 0.51972 0.72177 0.90598 0.0
H426 H 0.4508 0.83329 0.94749 0.0
H427 H 0.47728 0.76634 0.9435 0.0
H428 H 0.33273 0.78795 0.76147 0.0
H429 H 0.36432 0.72433 0.75679 0.0
H430 H 0.35103 0.87357 0.78934 0.0
H431 H 0.35828 0.91021 0.83546 0.0
C432 C 0.83451 0.20327 0.11586 0.0
C433 C 0.85531 0.26441 0.12605 0.0
C434 C 0.77111 0.27527 0.15581 0.0
C435 C 0.74653 0.21641 0.14081 0.0
N436 N 0.75189 0.12524 0.10352 0.0
N437 N 0.84021 0.36085 0.1514 0.0
C438 C 0.77762 0.18035 0.12027 0.0
C439 C 0.82298 0.30103 0.14515 0.0
N440 N 0.86956 0.16706 0.10258 0.0
N441 N 0.74506 0.30625 0.18063 0.0
H442 H 0.87747 0.38185 0.14357 0.0
H443 H 0.81501 0.39032 0.16131 0.0
H444 H 0.70713 0.28846 0.1892 0.0
H445 H 0.7638 0.34721 0.19551 0.0
H446 H 0.85915 0.12121 0.0983 0.0
H447 H 0.91143 0.18254 0.09902 0.0
H448 H 0.76974 0.09956 0.0845 0.0
H449 H 0.71061 0.10663 0.10651 0.0
C450 C 1.08326 0.68483 0.02108 0.0
C451 C 0.11896 0.64215 0.03092 0.0
C452 C 0.17628 0.67021 0.98255 0.0
C453 C 0.14542 0.71818 0.97648 0.0
N454 N 1.07348 0.77547 -0.00735 0.0
N455 N 0.20218 0.59632 0.02386 0.0
C456 C 1.09963 0.72645 -0.0037 0.0
C457 C 0.16605 0.6351 0.01225 0.0
N458 N 1.03353 0.6852 0.03547 0.0
N459 N 0.21396 0.65707 0.95919 0.0
H460 H 0.19414 0.5678 0.04412 0.0
H461 H 0.24151 0.59469 0.01499 0.0
H462 H 0.22249 0.68158 0.93703 0.0
H463 H 0.23316 0.61909 0.95969 0.0
H464 H 1.0027 0.71152 0.02672 0.0
H465 H 1.02049 0.65487 0.05358 0.0
H466 H 1.04396 0.7872 0.00932 0.0
H467 H 1.08487 0.80742 0.97516 0.0
C468 C 0.68228 1.01077 0.35186 0.0
C469 C 0.67446 0.05639 0.37906 0.0
C470 C 0.63214 0.10937 0.32753 0.0
C471 C 0.63862 0.063 0.30035 0.0
N472 N 0.68108 0.9769 0.28515 0.0
N473 N 0.65772 0.15645 0.39277 0.0
C474 C 0.66753 1.01603 0.31213 0.0
C475 C 0.65485 0.10827 0.36683 0.0
N476 N 0.70293 0.96204 0.3642 0.0
N477 N 0.60109 0.15247 0.31614 0.0
H478 H 0.67392 0.15713 0.42171 0.0
H479 H 0.64958 0.19753 0.38518 0.0
H480 H 0.58418 0.15537 0.28761 0.0
H481 H 0.58849 0.18305 0.33511 0.0
H482 H 0.7031 0.92368 0.34643 0.0
H483 H 0.71866 0.95977 0.39296 0.0
H484 H 0.70618 0.94428 0.29157 0.0
H485 H 0.67098 0.98015 0.2559 0.0
C486 C 0.59732 0.51544 0.66948 0.0
C487 C 0.643 0.50206 0.69664 0.0
C488 C 0.7014 0.49369 0.64664 0.0
C489 C 0.65271 0.49765 0.6187 0.0
N490 N 0.55094 0.50321 0.60301 0.0
N491 N 0.73486 0.46741 0.70958 0.0
C492 C 0.59969 0.50635 0.62992 0.0
C493 C 0.69434 0.4886 0.68492 0.0
N494 N 0.55267 0.53877 0.68143 0.0
N495 N 0.75446 0.49509 0.63656 0.0
H496 H 0.72962 0.45927 0.73712 0.0
H497 H 0.77049 0.4517 0.70134 0.0
H498 H 0.76115 0.49944 0.60872 0.0
H499 H 0.7924 0.49798 0.65646 0.0
H500 H 0.52118 0.55471 0.66297 0.0
H501 H 0.55044 0.54795 0.71023 0.0
H502 H 0.51006 0.50277 0.60992 0.0
H503 H 0.5504 0.4959 0.5737 0.0
C504 C 0.61496 1.01334 0.61994 0.0
C505 C 0.6667 0.04165 0.6104 0.0
C506 C 0.70612 0.07007 0.67857 0.0
C507 C 0.65147 0.04954 0.68745 0.0
N508 N 0.55066 1.00994 0.66575 0.0
N509 N 0.75843 0.10542 0.6304 0.0
C510 C 0.605 0.0231 0.65795 0.0
C511 C 0.7118 0.0719 0.63966 0.0
N512 N 0.57595 0.97579 0.59296 0.0
N513 N 0.75268 0.08733 0.70735 0.0
H514 H 0.76328 0.10996 0.6023 0.0
H515 H 0.78952 0.13333 0.65053 0.0
H516 H 0.74995 0.08628 0.73617 0.0
H517 H 0.79472 0.09722 0.70252 0.0
H518 H 0.54039 0.94935 0.59932 0.0
H519 H 0.58227 0.96639 0.56499 0.0
H520 H 0.5142 0.99687 0.64453 0.0
H521 H 0.54102 1.01707 0.69307 0.0
C522 C 0.66652 0.57801 0.94894 0.0
C523 C 0.62665 0.52956 0.92834 0.0
C524 C 0.59981 0.50178 -0.01146 0.0
C525 C 0.6367 0.55295 0.00863 0.0
N526 N 0.69148 0.64823 0.00596 0.0
N527 N 0.54758 0.45147 0.92733 0.0
C528 C 0.66555 0.59383 -0.01191 0.0
C529 C 0.59038 0.49372 0.94775 0.0
N530 N 0.707 0.6077 0.93171 0.0
N531 N 0.57672 0.45911 0.00827 0.0
H532 H 0.54089 0.44307 0.89757 0.0
H533 H 0.51608 0.42809 0.93961 0.0
H534 H 0.58337 0.46258 0.03803 0.0
H535 H 0.55485 0.41808 -0.0048 0.0
H536 H 0.74092 0.63913 0.94667 0.0
H537 H 0.70955 0.59762 0.90308 0.0
H538 H 0.70861 0.68176 -0.00856 0.0
H539 H 0.69023 0.66182 0.03447 0.0
C540 C 1.05463 0.53004 0.26199 0.0
C541 C 1.10176 0.519 0.24427 0.0
C542 C 0.15616 0.50636 0.30666 0.0
C543 C 0.11577 0.5331 0.32451 0.0
N544 N 1.02502 0.57018 0.31926 0.0
N545 N 0.19857 0.49527 0.24992 0.0
C546 C 1.0637 0.54346 0.30232 0.0
C547 C 0.15236 0.50494 0.26644 0.0
N548 N 1.00163 0.52868 0.23996 0.0
N549 N 0.19908 0.48425 0.32859 0.0
H550 H 0.19806 0.49359 0.22065 0.0
H551 H 0.23888 0.49237 0.26561 0.0
H552 H 0.20237 0.4853 0.3582 0.0
H553 H 0.22731 0.45994 0.31717 0.0
H554 H 0.96445 0.53198 0.2513 0.0
H555 H 0.99412 0.51791 0.21032 0.0
H556 H 0.98993 0.58538 0.30386 0.0
H557 H 1.02978 0.58041 0.34876 0.0
loop_
_geom_bond_atom_site_label_1
_geom_bond_atom_site_label_2
_geom_bond_distance
_geom_bond_site_symmetry_2
_ccdc_geom_bond_type
Dy0 O3 2.307 1_455 S
Dy0 O5 2.395 . S
Dy0 O6 2.379 . S
Dy0 O8 2.339 . S
Dy0 O10 2.298 . S
Dy0 O14 2.275 . S
Dy0 C22 2.738 . S
Dy1 O4 2.298 . S
Dy1 O7 2.275 1_655 S
Dy1 O9 2.307 1_655 S
Dy1 O11 2.395 . S
Dy1 O12 2.379 . S
Dy1 O15 2.339 . S
Dy1 C31 2.738 . S
C2 O14 1.254 . S
C2 O15 1.257 1_455 S
O3 Dy0 2.307 1_655 S
O3 C13 1.266 . S
O4 Dy1 2.298 . S
O4 C13 1.236 . S
O5 Dy0 2.395 . S
O5 C22 1.255 . S
O6 Dy0 2.379 . S
O6 C22 1.249 . S
O7 Dy1 2.275 1_455 S
O7 C23 1.254 . S
O8 Dy0 2.339 . S
O8 C23 1.257 . S
O9 Dy1 2.307 1_455 S
O9 C24 1.266 . S
O10 Dy0 2.298 . S
O10 C24 1.236 . S
O11 Dy1 2.395 . S
O11 C31 1.255 . S
O12 Dy1 2.379 . S
O12 C31 1.249 . S
C13 O3 1.266 . S
C13 O4 1.236 . S
O14 Dy0 2.275 . S
O14 C2 1.254 . S
O15 Dy1 2.339 . S
O15 C2 1.257 1_655 S
C16 C19 1.344 . S
C16 C20 1.328 . S
C16 C22 1.516 . S
C17 C18 1.304 . S
C17 C21 1.323 . S
C18 C17 1.304 . S
C18 C19 1.371 . S
C18 H32 0.930 . S
C19 C16 1.344 . S
C19 C18 1.371 . S
C19 H33 0.931 . S
C20 C16 1.328 . S
C20 C21 1.433 . S
C20 H34 0.931 . S
C21 C17 1.323 . S
C21 C20 1.433 . S
C21 H35 0.933 . S
C22 Dy0 2.738 . S
C22 O5 1.255 . S
C22 O6 1.249 . S
C22 C16 1.516 . S
C23 O7 1.254 . S
C23 O8 1.257 . S
C24 O9 1.266 . S
C24 O10 1.236 . S
C25 C28 1.344 . S
C25 C29 1.328 . S
C25 C31 1.516 . S
C26 C27 1.304 . S
C26 C30 1.323 . S
C27 C26 1.304 . S
C27 C28 1.371 . S
C27 H36 0.930 . S
C28 C25 1.344 . S
C28 C27 1.371 . S
C28 H37 0.931 . S
C29 C25 1.328 . S
C29 C30 1.433 . S
C29 H38 0.931 . S
C30 C26 1.323 . S
C30 C29 1.433 . S
C30 H39 0.933 . S
C31 Dy1 2.738 . S
C31 O11 1.255 . S
C31 O12 1.249 . S
C31 C25 1.516 . S
H32 C18 0.930 . S
H33 C19 0.931 . S
H34 C20 0.931 . S
H35 C21 0.933 . S
H36 C27 0.930 . S
H37 C28 0.931 . S
H38 C29 0.931 . S
H39 C30 0.933 . S
Dy40 O43 2.307 . S
Dy40 O45 2.395 1_545 S
Dy40 O46 2.379 1_545 S
Dy40 O48 2.339 . S
Dy40 O50 2.298 1_545 S
Dy40 O54 2.275 . S
Dy40 C62 2.738 1_545 S
Dy41 O44 2.298 . S
Dy41 O47 2.275 . S
Dy41 O49 2.307 1_545 S
Dy41 O51 2.395 . S
Dy41 O52 2.379 . S
Dy41 O55 2.339 . S
Dy41 C71 2.738 . S
C42 O54 1.254 . S
C42 O55 1.257 . S
O43 Dy40 2.307 . S
O43 C53 1.266 . S
O44 Dy41 2.298 . S
O44 C53 1.236 . S
O45 Dy40 2.395 1_565 S
O45 C62 1.255 . S
O46 Dy40 2.379 1_565 S
O46 C62 1.249 . S
O47 Dy41 2.275 . S
O47 C63 1.254 . S
O48 Dy40 2.339 . S
O48 C63 1.257 . S
O49 Dy41 2.307 1_565 S
O49 C64 1.266 . S
O50 Dy40 2.298 1_565 S
O50 C64 1.236 . S
O51 Dy41 2.395 . S
O51 C71 1.255 . S
O52 Dy41 2.379 . S
O52 C71 1.249 . S
C53 O43 1.266 . S
C53 O44 1.236 . S
O54 Dy40 2.275 . S
O54 C42 1.254 . S
O55 Dy41 2.339 . S
O55 C42 1.257 . S
C56 C59 1.344 . S
C56 C60 1.328 . S
C56 C62 1.516 . S
C57 C58 1.304 . S
C57 C61 1.323 . S
C58 C57 1.304 . S
C58 C59 1.371 . S
C58 H72 0.930 . S
C59 C56 1.344 . S
C59 C58 1.371 . S
C59 H73 0.931 . S
C60 C56 1.328 . S
C60 C61 1.433 . S
C60 H74 0.931 . S
C61 C57 1.323 . S
C61 C60 1.433 . S
C61 H75 0.933 . S
C62 Dy40 2.738 1_565 S
C62 O45 1.255 . S
C62 O46 1.249 . S
C62 C56 1.516 . S
C63 O47 1.254 . S
C63 O48 1.257 . S
C64 O49 1.266 . S
C64 O50 1.236 . S
C65 C68 1.344 . S
C65 C69 1.328 . S
C65 C71 1.516 . S
C66 C67 1.304 . S
C66 C70 1.323 . S
C67 C66 1.304 . S
C67 C68 1.371 . S
C67 H76 0.930 . S
C68 C65 1.344 . S
C68 C67 1.371 . S
C68 H77 0.931 . S
C69 C65 1.328 . S
C69 C70 1.433 . S
C69 H78 0.931 . S
C70 C66 1.323 . S
C70 C69 1.433 . S
C70 H79 0.933 . S
C71 Dy41 2.738 . S
C71 O51 1.255 . S
C71 O52 1.249 . S
C71 C65 1.516 . S
H72 C58 0.930 . S
H73 C59 0.931 . S
H74 C60 0.931 . S
H75 C61 0.933 . S
H76 C67 0.930 . S
H77 C68 0.931 . S
H78 C69 0.931 . S
H79 C70 0.933 . S
Dy80 O83 2.307 . S
Dy80 O85 2.395 . S
Dy80 O86 2.379 . S
Dy80 O88 2.339 . S
Dy80 O90 2.298 . S
Dy80 O94 2.275 . S
Dy80 C102 2.738 . S
Dy81 O84 2.298 . S
Dy81 O87 2.275 . S
Dy81 O89 2.307 . S
Dy81 O91 2.395 . S
Dy81 O92 2.379 . S
Dy81 O95 2.339 . S
Dy81 C111 2.738 . S
C82 O94 1.254 . S
C82 O95 1.257 . S
O83 Dy80 2.307 . S
O83 C93 1.266 . S
O84 Dy81 2.298 . S
O84 C93 1.236 . S
O85 Dy80 2.395 . S
O85 C102 1.255 . S
O86 Dy80 2.379 . S
O86 C102 1.249 . S
O87 Dy81 2.275 . S
O87 C103 1.254 . S
O88 Dy80 2.339 . S
O88 C103 1.257 . S
O89 Dy81 2.307 . S
O89 C104 1.266 . S
O90 Dy80 2.298 . S
O90 C104 1.236 . S
O91 Dy81 2.395 . S
O91 C111 1.255 . S
O92 Dy81 2.379 . S
O92 C111 1.249 . S
C93 O83 1.266 . S
C93 O84 1.236 . S
O94 Dy80 2.275 . S
O94 C82 1.254 . S
O95 Dy81 2.339 . S
O95 C82 1.257 . S
C96 C99 1.344 . S
C96 C100 1.328 . S
C96 C102 1.516 . S
C97 C98 1.304 . S
C97 C101 1.323 . S
C98 C97 1.304 . S
C98 C99 1.371 . S
C98 H112 0.930 . S
C99 C96 1.344 . S
C99 C98 1.371 . S
C99 H113 0.931 . S
C100 C96 1.328 . S
C100 C101 1.433 . S
C100 H114 0.931 . S
C101 C97 1.323 . S
C101 C100 1.433 . S
C101 H115 0.933 . S
C102 Dy80 2.738 . S
C102 O85 1.255 . S
C102 O86 1.249 . S
C102 C96 1.516 . S
C103 O87 1.254 . S
C103 O88 1.257 . S
C104 O89 1.266 . S
C104 O90 1.236 . S
C105 C108 1.344 . S
C105 C109 1.328 . S
C105 C111 1.516 . S
C106 C107 1.304 . S
C106 C110 1.323 . S
C107 C106 1.304 . S
C107 C108 1.371 . S
C107 H116 0.930 . S
C108 C105 1.344 . S
C108 C107 1.371 . S
C108 H117 0.931 . S
C109 C105 1.328 . S
C109 C110 1.433 . S
C109 H118 0.931 . S
C110 C106 1.323 . S
C110 C109 1.433 . S
C110 H119 0.933 . S
C111 Dy81 2.738 . S
C111 O91 1.255 . S
C111 O92 1.249 . S
C111 C105 1.516 . S
H112 C98 0.930 . S
H113 C99 0.931 . S
H114 C100 0.931 . S
H115 C101 0.933 . S
H116 C107 0.930 . S
H117 C108 0.931 . S
H118 C109 0.931 . S
H119 C110 0.933 . S
H120 C121 0.949 . S
C121 H120 0.949 . S
C121 C122 1.395 . S
C121 C123 1.391 . S
C122 C121 1.395 . S
C122 C125 1.390 . S
C123 C121 1.391 . S
C123 C127 1.387 . S
C123 C128 1.491 . S
H124 C125 0.950 1_565 S
C125 C122 1.390 . S
C125 H124 0.950 1_545 S
C125 C126 1.378 . S
C126 C125 1.378 . S
C126 C127 1.409 . S
C127 C123 1.387 . S
C127 C126 1.409 . S
C127 H129 0.951 . S
C128 C123 1.491 . S
C128 C130 1.382 . S
C128 C132 1.404 . S
H129 C127 0.951 . S
C130 C128 1.382 . S
C130 C131 1.390 . S
C130 H135 0.949 . S
C131 C130 1.390 . S
C131 C136 1.399 . S
C132 C128 1.404 . S
C132 H133 0.950 . S
C132 C134 1.375 . S
H133 C132 0.950 . S
C134 C132 1.375 . S
C134 C136 1.382 . S
C134 H138 0.950 . S
H135 C130 0.949 . S
C136 C131 1.399 . S
C136 C134 1.382 . S
C136 H137 0.952 . S
H137 C136 0.952 . S
H138 C134 0.950 . S
H139 C140 0.949 . S
C140 H139 0.949 . S
C140 C141 1.395 . S
C140 C142 1.391 . S
C141 C140 1.395 . S
C141 C144 1.390 . S
C142 C140 1.391 . S
C142 C146 1.387 . S
C142 C147 1.491 . S
H143 C144 0.950 . S
C144 C141 1.390 . S
C144 H143 0.950 . S
C144 C145 1.378 . S
C145 C144 1.378 . S
C145 C146 1.409 . S
C146 C142 1.387 . S
C146 C145 1.409 . S
C146 H148 0.951 . S
C147 C142 1.491 . S
C147 C149 1.382 . S
C147 C151 1.404 . S
H148 C146 0.951 . S
C149 C147 1.382 . S
C149 C150 1.390 . S
C149 H154 0.949 . S
C150 C149 1.390 . S
C150 C155 1.399 . S
C151 C147 1.404 . S
C151 H152 0.950 . S
C151 C153 1.375 . S
H152 C151 0.950 . S
C153 C151 1.375 . S
C153 C155 1.382 . S
C153 H157 0.950 . S
H154 C149 0.949 . S
C155 C150 1.399 . S
C155 C153 1.382 . S
C155 H156 0.952 . S
H156 C155 0.952 . S
H157 C153 0.950 . S
H158 C159 0.949 . S
C159 H158 0.949 . S
C159 C160 1.395 . S
C159 C161 1.391 . S
C160 C159 1.395 . S
C160 C163 1.390 1_455 S
C161 C159 1.391 . S
C161 C165 1.387 1_455 S
C161 C166 1.491 . S
H162 C163 0.950 . S
C163 C160 1.390 1_655 S
C163 H162 0.950 . S
C163 C164 1.378 . S
C164 C163 1.378 . S
C164 C165 1.409 . S
C165 C161 1.387 1_655 S
C165 C164 1.409 . S
C165 H167 0.951 . S
C166 C161 1.491 . S
C166 C168 1.382 . S
C166 C170 1.404 . S
H167 C165 0.951 . S
C168 C166 1.382 . S
C168 C169 1.390 . S
C168 H173 0.949 . S
C169 C168 1.390 . S
C169 C174 1.399 . S
C170 C166 1.404 . S
C170 H171 0.950 . S
C170 C172 1.375 . S
H171 C170 0.950 . S
C172 C170 1.375 . S
C172 C174 1.382 . S
C172 H176 0.950 . S
H173 C168 0.949 . S
C174 C169 1.399 . S
C174 C172 1.382 . S
C174 H175 0.952 . S
H175 C174 0.952 . S
H176 C172 0.950 . S
H177 C178 0.949 1_655 S
C178 H177 0.949 1_455 S
C178 C179 1.395 . S
C178 C180 1.391 . S
C179 C178 1.395 . S
C179 C182 1.390 . S
C180 C178 1.391 . S
C180 C184 1.387 . S
C180 C185 1.491 1_455 S
H181 C182 0.950 . S
C182 C179 1.390 . S
C182 H181 0.950 . S
C182 C183 1.378 . S
C183 C182 1.378 . S
C183 C184 1.409 . S
C184 C180 1.387 . S
C184 C183 1.409 . S
C184 H186 0.951 . S
C185 C180 1.491 1_655 S
C185 C187 1.382 . S
C185 C189 1.404 . S
H186 C184 0.951 . S
C187 C185 1.382 . S
C187 C188 1.390 . S
C187 H192 0.949 . S
C188 C187 1.390 . S
C188 C193 1.399 . S
C189 C185 1.404 . S
C189 H190 0.950 . S
C189 C191 1.375 . S
H190 C189 0.950 . S
C191 C189 1.375 . S
C191 C193 1.382 . S
C191 H195 0.950 . S
H192 C187 0.949 . S
C193 C188 1.399 . S
C193 C191 1.382 . S
C193 H194 0.952 . S
H194 C193 0.952 . S
H195 C191 0.950 . S
H196 C197 0.949 1_565 S
C197 H196 0.949 1_545 S
C197 C198 1.395 . S
C197 C199 1.391 . S
C198 C197 1.395 . S
C198 C201 1.390 . S
C199 C197 1.391 . S
C199 C203 1.387 . S
C199 C204 1.491 1_545 S
H200 C201 0.950 . S
C201 C198 1.390 . S
C201 H200 0.950 . S
C201 C202 1.378 . S
C202 C201 1.378 . S
C202 C203 1.409 . S
C203 C199 1.387 . S
C203 C202 1.409 . S
C203 H205 0.951 . S
C204 C199 1.491 1_565 S
C204 C206 1.382 . S
C204 C208 1.404 . S
H205 C203 0.951 . S
C206 C204 1.382 . S
C206 C207 1.390 . S
C206 H211 0.949 . S
C207 C206 1.390 . S
C207 C212 1.399 . S
C208 C204 1.404 . S
C208 H209 0.950 . S
C208 C210 1.375 . S
H209 C208 0.950 . S
C210 C208 1.375 . S
C210 C212 1.382 . S
C210 H214 0.950 . S
H211 C206 0.949 . S
C212 C207 1.399 . S
C212 C210 1.382 . S
C212 H213 0.952 . S
H213 C212 0.952 . S
H214 C210 0.950 . S
H215 C216 0.949 . S
C216 H215 0.949 . S
C216 C217 1.395 . S
C216 C218 1.391 . S
C217 C216 1.395 . S
C217 C220 1.390 . S
C218 C216 1.391 . S
C218 C222 1.387 . S
C218 C223 1.491 . S
H219 C220 0.950 . S
C220 C217 1.390 . S
C220 H219 0.950 . S
C220 C221 1.378 . S
C221 C220 1.378 . S
C221 C222 1.409 . S
C222 C218 1.387 . S
C222 C221 1.409 . S
C222 H224 0.951 . S
C223 C218 1.491 . S
C223 C225 1.382 . S
C223 C227 1.404 . S
H224 C222 0.951 . S
C225 C223 1.382 . S
C225 C226 1.390 . S
C225 H230 0.949 . S
C226 C225 1.390 . S
C226 C231 1.399 . S
C227 C223 1.404 . S
C227 H228 0.950 . S
C227 C229 1.375 . S
H228 C227 0.950 . S
C229 C227 1.375 . S
C229 C231 1.382 . S
C229 H233 0.950 . S
H230 C225 0.949 . S
C231 C226 1.399 . S
C231 C229 1.382 . S
C231 H232 0.952 . S
H232 C231 0.952 . S
H233 C229 0.950 . S
C234 C235 1.363 . S
C234 C240 1.379 . S
C234 N242 1.356 . S
C235 C234 1.363 . S
C235 C241 1.363 . S
C236 C237 1.363 . S
C236 C241 1.379 . S
C236 N243 1.356 . S
C237 C236 1.363 . S
C237 C240 1.363 . S
N238 C240 1.356 . S
N238 H250 0.984 . S
N238 H251 0.985 . S
N239 C241 1.356 . S
N239 H244 0.984 . S
N239 H245 0.985 . S
C240 C234 1.379 . S
C240 C237 1.363 . S
C240 N238 1.356 . S
C241 C235 1.363 . S
C241 C236 1.379 . S
C241 N239 1.356 . S
N242 C234 1.356 . S
N242 H248 0.984 . S
N242 H249 0.984 . S
N243 C236 1.356 . S
N243 H246 0.984 . S
N243 H247 0.985 . S
H244 N239 0.984 . S
H245 N239 0.985 . S
H246 N243 0.984 . S
H247 N243 0.985 . S
H248 N242 0.984 . S
H249 N242 0.984 . S
H250 N238 0.984 . S
H251 N238 0.985 . S
C252 C253 1.363 . S
C252 C258 1.379 . S
C252 N260 1.356 . S
C253 C252 1.363 . S
C253 C259 1.363 . S
C254 C255 1.363 . S
C254 C259 1.379 . S
C254 N261 1.356 . S
C255 C254 1.363 . S
C255 C258 1.363 . S
N256 C258 1.356 . S
N256 H268 0.984 . S
N256 H269 0.985 . S
N257 C259 1.356 . S
N257 H262 0.984 . S
N257 H263 0.985 . S
C258 C252 1.379 . S
C258 C255 1.363 . S
C258 N256 1.356 . S
C259 C253 1.363 . S
C259 C254 1.379 . S
C259 N257 1.356 . S
N260 C252 1.356 . S
N260 H266 0.984 . S
N260 H267 0.984 . S
N261 C254 1.356 . S
N261 H264 0.984 . S
N261 H265 0.985 . S
H262 N257 0.984 . S
H263 N257 0.985 . S
H264 N261 0.984 . S
H265 N261 0.985 . S
H266 N260 0.984 . S
H267 N260 0.984 . S
H268 N256 0.984 . S
H269 N256 0.985 . S
C270 C271 1.363 . S
C270 C276 1.379 . S
C270 N278 1.356 . S
C271 C270 1.363 . S
C271 C277 1.363 . S
C272 C273 1.363 . S
C272 C277 1.379 . S
C272 N279 1.356 . S
C273 C272 1.363 . S
C273 C276 1.363 . S
N274 C276 1.356 . S
N274 H286 0.984 . S
N274 H287 0.985 . S
N275 C277 1.356 . S
N275 H280 0.984 . S
N275 H281 0.985 . S
C276 C270 1.379 . S
C276 C273 1.363 . S
C276 N274 1.356 . S
C277 C271 1.363 . S
C277 C272 1.379 . S
C277 N275 1.356 . S
N278 C270 1.356 . S
N278 H284 0.984 . S
N278 H285 0.984 . S
N279 C272 1.356 . S
N279 H282 0.984 . S
N279 H283 0.985 . S
H280 N275 0.984 . S
H281 N275 0.985 . S
H282 N279 0.984 . S
H283 N279 0.985 . S
H284 N278 0.984 . S
H285 N278 0.984 . S
H286 N274 0.984 . S
H287 N274 0.985 . S
C288 C289 1.363 . S
C288 C294 1.379 . S
C288 N296 1.356 . S
C289 C288 1.363 . S
C289 C295 1.363 . S
C290 C291 1.363 . S
C290 C295 1.379 . S
C290 N297 1.356 . S
C291 C290 1.363 . S
C291 C294 1.363 . S
N292 C294 1.356 . S
N292 H304 0.984 . S
N292 H305 0.985 . S
N293 C295 1.356 . S
N293 H298 0.984 . S
N293 H299 0.985 . S
C294 C288 1.379 . S
C294 C291 1.363 . S
C294 N292 1.356 . S
C295 C289 1.363 . S
C295 C290 1.379 . S
C295 N293 1.356 . S
N296 C288 1.356 . S
N296 H302 0.984 . S
N296 H303 0.984 . S
N297 C290 1.356 . S
N297 H300 0.984 . S
N297 H301 0.985 . S
H298 N293 0.984 . S
H299 N293 0.985 . S
H300 N297 0.984 . S
H301 N297 0.985 . S
H302 N296 0.984 . S
H303 N296 0.984 . S
H304 N292 0.984 . S
H305 N292 0.985 . S
C306 C307 1.363 . S
C306 C312 1.379 . S
C306 N314 1.356 . S
C307 C306 1.363 . S
C307 C313 1.363 . S
C308 C309 1.363 . S
C308 C313 1.379 . S
C308 N315 1.356 . S
C309 C308 1.363 . S
C309 C312 1.363 . S
N310 C312 1.356 . S
N310 H322 0.984 . S
N310 H323 0.985 . S
N311 C313 1.356 . S
N311 H316 0.984 . S
N311 H317 0.985 . S
C312 C306 1.379 . S
C312 C309 1.363 . S
C312 N310 1.356 . S
C313 C307 1.363 . S
C313 C308 1.379 . S
C313 N311 1.356 . S
N314 C306 1.356 . S
N314 H320 0.984 . S
N314 H321 0.984 . S
N315 C308 1.356 . S
N315 H318 0.984 . S
N315 H319 0.985 . S
H316 N311 0.984 . S
H317 N311 0.985 . S
H318 N315 0.984 . S
H319 N315 0.985 . S
H320 N314 0.984 . S
H321 N314 0.984 . S
H322 N310 0.984 . S
H323 N310 0.985 . S
C324 C325 1.363 . S
C324 C330 1.379 . S
C324 N332 1.356 . S
C325 C324 1.363 . S
C325 C331 1.363 . S
C326 C327 1.363 . S
C326 C331 1.379 . S
C326 N333 1.356 . S
C327 C326 1.363 . S
C327 C330 1.363 . S
N328 C330 1.356 . S
N328 H340 0.984 . S
N328 H341 0.985 . S
N329 C331 1.356 . S
N329 H334 0.984 . S
N329 H335 0.985 . S
C330 C324 1.379 . S
C330 C327 1.363 . S
C330 N328 1.356 . S
C331 C325 1.363 . S
C331 C326 1.379 . S
C331 N329 1.356 . S
N332 C324 1.356 . S
N332 H338 0.984 . S
N332 H339 0.984 . S
N333 C326 1.356 . S
N333 H336 0.984 . S
N333 H337 0.985 . S
H334 N329 0.984 . S
H335 N329 0.985 . S
H336 N333 0.984 . S
H337 N333 0.985 . S
H338 N332 0.984 . S
H339 N332 0.984 . S
H340 N328 0.984 . S
H341 N328 0.985 . S
C342 C343 1.363 . S
C342 C348 1.379 . S
C342 N350 1.356 . S
C343 C342 1.363 . S
C343 C349 1.363 . S
C344 C345 1.363 . S
C344 C349 1.379 . S
C344 N351 1.356 . S
C345 C344 1.363 . S
C345 C348 1.363 . S
N346 C348 1.356 . S
N346 H358 0.984 . S
N346 H359 0.985 . S
N347 C349 1.356 . S
N347 H352 0.984 . S
N347 H353 0.985 . S
C348 C342 1.379 . S
C348 C345 1.363 . S
C348 N346 1.356 . S
C349 C343 1.363 . S
C349 C344 1.379 . S
C349 N347 1.356 . S
N350 C342 1.356 . S
N350 H356 0.984 . S
N350 H357 0.984 . S
N351 C344 1.356 . S
N351 H354 0.984 . S
N351 H355 0.985 . S
H352 N347 0.984 . S
H353 N347 0.985 . S
H354 N351 0.984 . S
H355 N351 0.985 . S
H356 N350 0.984 . S
H357 N350 0.984 . S
H358 N346 0.984 . S
H359 N346 0.985 . S
C360 C361 1.363 . S
C360 C366 1.379 . S
C360 N368 1.356 . S
C361 C360 1.363 . S
C361 C367 1.363 . S
C362 C363 1.363 . S
C362 C367 1.379 . S
C362 N369 1.356 . S
C363 C362 1.363 . S
C363 C366 1.363 . S
N364 C366 1.356 . S
N364 H376 0.984 . S
N364 H377 0.985 . S
N365 C367 1.356 . S
N365 H370 0.984 . S
N365 H371 0.985 . S
C366 C360 1.379 . S
C366 C363 1.363 . S
C366 N364 1.356 . S
C367 C361 1.363 . S
C367 C362 1.379 . S
C367 N365 1.356 . S
N368 C360 1.356 . S
N368 H374 0.984 . S
N368 H375 0.984 . S
N369 C362 1.356 . S
N369 H372 0.984 . S
N369 H373 0.985 . S
H370 N365 0.984 . S
H371 N365 0.985 . S
H372 N369 0.984 . S
H373 N369 0.985 . S
H374 N368 0.984 . S
H375 N368 0.984 . S
H376 N364 0.984 . S
H377 N364 0.985 . S
C378 C379 1.363 . S
C378 C384 1.379 . S
C378 N386 1.356 . S
C379 C378 1.363 . S
C379 C385 1.363 . S
C380 C381 1.363 . S
C380 C385 1.379 . S
C380 N387 1.356 1_565 S
C381 C380 1.363 . S
C381 C384 1.363 . S
N382 C384 1.356 . S
N382 H394 0.984 . S
N382 H395 0.985 . S
N383 C385 1.356 . S
N383 H388 0.984 . S
N383 H389 0.985 . S
C384 C378 1.379 . S
C384 C381 1.363 . S
C384 N382 1.356 . S
C385 C379 1.363 . S
C385 C380 1.379 . S
C385 N383 1.356 . S
N386 C378 1.356 . S
N386 H392 0.984 . S
N386 H393 0.984 . S
N387 C380 1.356 1_545 S
N387 H390 0.984 . S
N387 H391 0.985 . S
H388 N383 0.984 . S
H389 N383 0.985 . S
H390 N387 0.984 . S
H391 N387 0.985 . S
H392 N386 0.984 . S
H393 N386 0.984 . S
H394 N382 0.984 . S
H395 N382 0.985 . S
C396 C397 1.363 . S
C396 C402 1.379 . S
C396 N404 1.356 . S
C397 C396 1.363 . S
C397 C403 1.363 . S
C398 C399 1.363 . S
C398 C403 1.379 . S
C398 N405 1.356 . S
C399 C398 1.363 . S
C399 C402 1.363 . S
N400 C402 1.356 . S
N400 H412 0.984 . S
N400 H413 0.985 . S
N401 C403 1.356 . S
N401 H406 0.984 . S
N401 H407 0.985 . S
C402 C396 1.379 . S
C402 C399 1.363 . S
C402 N400 1.356 . S
C403 C397 1.363 . S
C403 C398 1.379 . S
C403 N401 1.356 . S
N404 C396 1.356 . S
N404 H410 0.984 . S
N404 H411 0.984 . S
N405 C398 1.356 . S
N405 H408 0.984 . S
N405 H409 0.985 . S
H406 N401 0.984 . S
H407 N401 0.985 . S
H408 N405 0.984 . S
H409 N405 0.985 . S
H410 N404 0.984 . S
H411 N404 0.984 . S
H412 N400 0.984 . S
H413 N400 0.985 . S
C414 C415 1.363 . S
C414 C420 1.379 . S
C414 N422 1.356 . S
C415 C414 1.363 . S
C415 C421 1.363 . S
C416 C417 1.363 . S
C416 C421 1.379 . S
C416 N423 1.356 . S
C417 C416 1.363 . S
C417 C420 1.363 . S
N418 C420 1.356 . S
N418 H430 0.984 . S
N418 H431 0.985 . S
N419 C421 1.356 . S
N419 H424 0.984 . S
N419 H425 0.985 . S
C420 C414 1.379 . S
C420 C417 1.363 . S
C420 N418 1.356 . S
C421 C415 1.363 . S
C421 C416 1.379 . S
C421 N419 1.356 . S
N422 C414 1.356 . S
N422 H428 0.984 . S
N422 H429 0.984 . S
N423 C416 1.356 . S
N423 H426 0.984 . S
N423 H427 0.985 . S
H424 N419 0.984 . S
H425 N419 0.985 . S
H426 N423 0.984 . S
H427 N423 0.985 . S
H428 N422 0.984 . S
H429 N422 0.984 . S
H430 N418 0.984 . S
H431 N418 0.985 . S
C432 C433 1.363 . S
C432 C438 1.379 . S
C432 N440 1.356 . S
C433 C432 1.363 . S
C433 C439 1.363 . S
C434 C435 1.363 . S
C434 C439 1.379 . S
C434 N441 1.356 . S
C435 C434 1.363 . S
C435 C438 1.363 . S
N436 C438 1.356 . S
N436 H448 0.984 . S
N436 H449 0.985 . S
N437 C439 1.356 . S
N437 H442 0.984 . S
N437 H443 0.985 . S
C438 C432 1.379 . S
C438 C435 1.363 . S
C438 N436 1.356 . S
C439 C433 1.363 . S
C439 C434 1.379 . S
C439 N437 1.356 . S
N440 C432 1.356 . S
N440 H446 0.984 . S
N440 H447 0.984 . S
N441 C434 1.356 . S
N441 H444 0.984 . S
N441 H445 0.985 . S
H442 N437 0.984 . S
H443 N437 0.985 . S
H444 N441 0.984 . S
H445 N441 0.985 . S
H446 N440 0.984 . S
H447 N440 0.984 . S
H448 N436 0.984 . S
H449 N436 0.985 . S
C450 C451 1.363 . S
C450 C456 1.379 1_554 S
C450 N458 1.356 . S
C451 C450 1.363 . S
C451 C457 1.363 . S
C452 C453 1.363 1_554 S
C452 C457 1.379 . S
C452 N459 1.356 1_554 S
C453 C452 1.363 1_556 S
C453 C456 1.363 . S
N454 C456 1.356 . S
N454 H466 0.984 . S
N454 H467 0.985 . S
N455 C457 1.356 . S
N455 H460 0.984 . S
N455 H461 0.985 . S
C456 C450 1.379 1_556 S
C456 C453 1.363 . S
C456 N454 1.356 . S
C457 C451 1.363 . S
C457 C452 1.379 . S
C457 N455 1.356 . S
N458 C450 1.356 . S
N458 H464 0.984 . S
N458 H465 0.984 . S
N459 C452 1.356 1_556 S
N459 H462 0.984 . S
N459 H463 0.985 . S
H460 N455 0.984 . S
H461 N455 0.985 . S
H462 N459 0.984 . S
H463 N459 0.985 . S
H464 N458 0.984 . S
H465 N458 0.984 . S
H466 N454 0.984 . S
H467 N454 0.985 . S
C468 C469 1.363 . S
C468 C474 1.379 . S
C468 N476 1.356 1_545 S
C469 C468 1.363 . S
C469 C475 1.363 . S
C470 C471 1.363 . S
C470 C475 1.379 . S
C470 N477 1.356 . S
C471 C470 1.363 . S
C471 C474 1.363 . S
N472 C474 1.356 1_565 S
N472 H484 0.984 . S
N472 H485 0.985 . S
N473 C475 1.356 . S
N473 H478 0.984 . S
N473 H479 0.985 . S
C474 C468 1.379 . S
C474 C471 1.363 . S
C474 N472 1.356 1_545 S
C475 C469 1.363 . S
C475 C470 1.379 . S
C475 N473 1.356 . S
N476 C468 1.356 1_565 S
N476 H482 0.984 . S
N476 H483 0.984 . S
N477 C470 1.356 . S
N477 H480 0.984 . S
N477 H481 0.985 . S
H478 N473 0.984 . S
H479 N473 0.985 . S
H480 N477 0.984 . S
H481 N477 0.985 . S
H482 N476 0.984 . S
H483 N476 0.984 . S
H484 N472 0.984 . S
H485 N472 0.985 . S
C486 C487 1.363 . S
C486 C492 1.379 . S
C486 N494 1.356 . S
C487 C486 1.363 . S
C487 C493 1.363 . S
C488 C489 1.363 . S
C488 C493 1.379 . S
C488 N495 1.356 . S
C489 C488 1.363 . S
C489 C492 1.363 . S
N490 C492 1.356 . S
N490 H502 0.984 . S
N490 H503 0.985 . S
N491 C493 1.356 . S
N491 H496 0.984 . S
N491 H497 0.985 . S
C492 C486 1.379 . S
C492 C489 1.363 . S
C492 N490 1.356 . S
C493 C487 1.363 . S
C493 C488 1.379 . S
C493 N491 1.356 . S
N494 C486 1.356 . S
N494 H500 0.984 . S
N494 H501 0.984 . S
N495 C488 1.356 . S
N495 H498 0.984 . S
N495 H499 0.985 . S
H496 N491 0.984 . S
H497 N491 0.985 . S
H498 N495 0.984 . S
H499 N495 0.985 . S
H500 N494 0.984 . S
H501 N494 0.984 . S
H502 N490 0.984 . S
H503 N490 0.985 . S
C504 C505 1.363 . S
C504 C510 1.379 . S
C504 N512 1.356 1_545 S
C505 C504 1.363 . S
C505 C511 1.363 . S
C506 C507 1.363 . S
C506 C511 1.379 . S
C506 N513 1.356 . S
C507 C506 1.363 . S
C507 C510 1.363 . S
N508 C510 1.356 1_565 S
N508 H520 0.984 . S
N508 H521 0.985 . S
N509 C511 1.356 . S
N509 H514 0.984 . S
N509 H515 0.985 . S
C510 C504 1.379 . S
C510 C507 1.363 . S
C510 N508 1.356 1_545 S
C511 C505 1.363 . S
C511 C506 1.379 . S
C511 N509 1.356 . S
N512 C504 1.356 1_565 S
N512 H518 0.984 . S
N512 H519 0.984 . S
N513 C506 1.356 . S
N513 H516 0.984 . S
N513 H517 0.985 . S
H514 N509 0.984 . S
H515 N509 0.985 . S
H516 N513 0.984 . S
H517 N513 0.985 . S
H518 N512 0.984 . S
H519 N512 0.984 . S
H520 N508 0.984 . S
H521 N508 0.985 . S
C522 C523 1.363 . S
C522 C528 1.379 1_556 S
C522 N530 1.356 . S
C523 C522 1.363 . S
C523 C529 1.363 . S
C524 C525 1.363 1_556 S
C524 C529 1.379 . S
C524 N531 1.356 1_556 S
C525 C524 1.363 1_554 S
C525 C528 1.363 . S
N526 C528 1.356 . S
N526 H538 0.984 . S
N526 H539 0.985 . S
N527 C529 1.356 . S
N527 H532 0.984 . S
N527 H533 0.985 . S
C528 C522 1.379 1_554 S
C528 C525 1.363 . S
C528 N526 1.356 . S
C529 C523 1.363 . S
C529 C524 1.379 . S
C529 N527 1.356 . S
N530 C522 1.356 . S
N530 H536 0.984 . S
N530 H537 0.984 . S
N531 C524 1.356 1_554 S
N531 H534 0.984 . S
N531 H535 0.985 . S
H532 N527 0.984 . S
H533 N527 0.985 . S
H534 N531 0.984 . S
H535 N531 0.985 . S
H536 N530 0.984 . S
H537 N530 0.984 . S
H538 N526 0.984 . S
H539 N526 0.985 . S
C540 C541 1.363 . S
C540 C546 1.379 . S
C540 N548 1.356 . S
C541 C540 1.363 . S
C541 C547 1.363 . S
C542 C543 1.363 . S
C542 C547 1.379 . S
C542 N549 1.356 . S
C543 C542 1.363 . S
C543 C546 1.363 . S
N544 C546 1.356 . S
N544 H556 0.984 . S
N544 H557 0.985 . S
N545 C547 1.356 . S
N545 H550 0.984 . S
N545 H551 0.985 . S
C546 C540 1.379 . S
C546 C543 1.363 . S
C546 N544 1.356 . S
C547 C541 1.363 . S
C547 C542 1.379 . S
C547 N545 1.356 . S
N548 C540 1.356 . S
N548 H554 0.984 . S
N548 H555 0.984 . S
N549 C542 1.356 . S
N549 H552 0.984 . S
N549 H553 0.985 . S
H550 N545 0.984 . S
H551 N545 0.985 . S
H552 N549 0.984 . S
H553 N549 0.985 . S
H554 N548 0.984 . S
H555 N548 0.984 . S
H556 N544 0.984 . S
H557 N544 0.985 . S
C235 C24 3.129 . S
C237 C226 3.064 . S
C253 C66 1.269 . S
C255 C188 1.202 . S
C271 C93 1.952 . S
C273 C207 1.890 . S
C289 C13 3.097 . S
C291 C221 3.058 . S
C309 C183 1.117 . S
C307 C57 1.119 . S
C327 C202 1.890 . S
C325 C104 1.920 . S
C343 C64 2.056 . S
C345 C150 1.987 . S
C361 C97 0.683 . S
C363 C164 0.651 . S
C379 C17 1.347 . S
C381 C126 1.390 1_565 S
C399 C145 1.777 . S
C397 C53 1.816 . S
C417 C169 0.703 . S
C415 C106 0.605 . S
C433 C26 1.294 . S
C435 C131 1.271 . S
C453 C160 1.259 . S
C451 C2 1.220 . S
C469 C63 1.515 . S
C471 C122 1.500 . S
C487 C82 1.482 . S
C489 C141 1.517 . S
C507 C198 1.501 . S
C505 C42 1.469 . S
C525 C217 1.763 . S
C523 C103 1.757 . S
C541 C23 1.602 . S
C543 C179 1.584 . S
