# Generated by pormake.
# Topology ctn, (3,4)-cn, num edge types: 1
# Building blocks:
#     Node 0, Type 0, BuildingBlock: CUQRIR_clean_linker_1, # of connection points: 3
#     Node 1, Type 0, BuildingBlock: CUQRIR_clean_linker_1, # of connection points: 3
#     Node 2, Type 0, BuildingBlock: CUQRIR_clean_linker_1, # of connection points: 3
#     Node 3, Type 0, BuildingBlock: CUQRIR_clean_linker_1, # of connection points: 3
#     Node 4, Type 0, BuildingBlock: CUQRIR_clean_linker_1, # of connection points: 3
#     Node 5, Type 0, BuildingBlock: CUQRIR_clean_linker_1, # of connection points: 3
#     Node 6, Type 0, BuildingBlock: CUQRIR_clean_linker_1, # of connection points: 3
#     Node 7, Type 0, BuildingBlock: CUQRIR_clean_linker_1, # of connection points: 3
#     Node 8, Type 0, BuildingBlock: CUQRIR_clean_linker_1, # of connection points: 3
#     Node 9, Type 0, BuildingBlock: CUQRIR_clean_linker_1, # of connection points: 3
#     Node 10, Type 0, BuildingBlock: CUQRIR_clean_linker_1, # of connection points: 3
#     Node 11, Type 0, BuildingBlock: CUQRIR_clean_linker_1, # of connection points: 3
#     Node 12, Type 0, BuildingBlock: CUQRIR_clean_linker_1, # of connection points: 3
#     Node 13, Type 0, BuildingBlock: CUQRIR_clean_linker_1, # of connection points: 3
#     Node 14, Type 0, BuildingBlock: CUQRIR_clean_linker_1, # of connection points: 3
#     Node 15, Type 0, BuildingBlock: CUQRIR_clean_linker_1, # of connection points: 3
#     Node 16, Type 1, BuildingBlock: TATPOV_clean_sbu_0, # of connection points: 4
#     Node 17, Type 1, BuildingBlock: TATPOV_clean_sbu_0, # of connection points: 4
#     Node 18, Type 1, BuildingBlock: TATPOV_clean_sbu_0, # of connection points: 4
#     Node 19, Type 1, BuildingBlock: TATPOV_clean_sbu_0, # of connection points: 4
#     Node 20, Type 1, BuildingBlock: TATPOV_clean_sbu_0, # of connection points: 4
#     Node 21, Type 1, BuildingBlock: TATPOV_clean_sbu_0, # of connection points: 4
#     Node 22, Type 1, BuildingBlock: TATPOV_clean_sbu_0, # of connection points: 4
#     Node 23, Type 1, BuildingBlock: TATPOV_clean_sbu_0, # of connection points: 4
#     Node 24, Type 1, BuildingBlock: TATPOV_clean_sbu_0, # of connection points: 4
#     Node 25, Type 1, BuildingBlock: TATPOV_clean_sbu_0, # of connection points: 4
#     Node 26, Type 1, BuildingBlock: TATPOV_clean_sbu_0, # of connection points: 4
#     Node 27, Type 1, BuildingBlock: TATPOV_clean_sbu_0, # of connection points: 4
#     Edge 28, Type (0, 1), BuildingBlock: KIFKEQ_clean_linker_1, # of connection points: 2
#     Edge 29, Type (0, 1), BuildingBlock: KIFKEQ_clean_linker_1, # of connection points: 2
#     Edge 30, Type (0, 1), BuildingBlock: KIFKEQ_clean_linker_1, # of connection points: 2
#     Edge 31, Type (0, 1), BuildingBlock: KIFKEQ_clean_linker_1, # of connection points: 2
#     Edge 32, Type (0, 1), BuildingBlock: KIFKEQ_clean_linker_1, # of connection points: 2
#     Edge 33, Type (0, 1), BuildingBlock: KIFKEQ_clean_linker_1, # of connection points: 2
#     Edge 34, Type (0, 1), BuildingBlock: KIFKEQ_clean_linker_1, # of connection points: 2
#     Edge 35, Type (0, 1), BuildingBlock: KIFKEQ_clean_linker_1, # of connection points: 2
#     Edge 36, Type (0, 1), BuildingBlock: KIFKEQ_clean_linker_1, # of connection points: 2
#     Edge 37, Type (0, 1), BuildingBlock: KIFKEQ_clean_linker_1, # of connection points: 2
#     Edge 38, Type (0, 1), BuildingBlock: KIFKEQ_clean_linker_1, # of connection points: 2
#     Edge 39, Type (0, 1), BuildingBlock: KIFKEQ_clean_linker_1, # of connection points: 2
#     Edge 40, Type (0, 1), BuildingBlock: KIFKEQ_clean_linker_1, # of connection points: 2
#     Edge 41, Type (0, 1), BuildingBlock: KIFKEQ_clean_linker_1, # of connection points: 2
#     Edge 42, Type (0, 1), BuildingBlock: KIFKEQ_clean_linker_1, # of connection points: 2
#     Edge 43, Type (0, 1), BuildingBlock: KIFKEQ_clean_linker_1, # of connection points: 2
#     Edge 44, Type (0, 1), BuildingBlock: KIFKEQ_clean_linker_1, # of connection points: 2
#     Edge 45, Type (0, 1), BuildingBlock: KIFKEQ_clean_linker_1, # of connection points: 2
#     Edge 46, Type (0, 1), BuildingBlock: KIFKEQ_clean_linker_1, # of connection points: 2
#     Edge 47, Type (0, 1), BuildingBlock: KIFKEQ_clean_linker_1, # of connection points: 2
#     Edge 48, Type (0, 1), BuildingBlock: KIFKEQ_clean_linker_1, # of connection points: 2
#     Edge 49, Type (0, 1), BuildingBlock: KIFKEQ_clean_linker_1, # of connection points: 2
#     Edge 50, Type (0, 1), BuildingBlock: KIFKEQ_clean_linker_1, # of connection points: 2
#     Edge 51, Type (0, 1), BuildingBlock: KIFKEQ_clean_linker_1, # of connection points: 2
#     Edge 52, Type (0, 1), BuildingBlock: KIFKEQ_clean_linker_1, # of connection points: 2
#     Edge 53, Type (0, 1), BuildingBlock: KIFKEQ_clean_linker_1, # of connection points: 2
#     Edge 54, Type (0, 1), BuildingBlock: KIFKEQ_clean_linker_1, # of connection points: 2
#     Edge 55, Type (0, 1), BuildingBlock: KIFKEQ_clean_linker_1, # of connection points: 2
#     Edge 56, Type (0, 1), BuildingBlock: KIFKEQ_clean_linker_1, # of connection points: 2
#     Edge 57, Type (0, 1), BuildingBlock: KIFKEQ_clean_linker_1, # of connection points: 2
#     Edge 58, Type (0, 1), BuildingBlock: KIFKEQ_clean_linker_1, # of connection points: 2
#     Edge 59, Type (0, 1), BuildingBlock: KIFKEQ_clean_linker_1, # of connection points: 2
#     Edge 60, Type (0, 1), BuildingBlock: KIFKEQ_clean_linker_1, # of connection points: 2
#     Edge 61, Type (0, 1), BuildingBlock: KIFKEQ_clean_linker_1, # of connection points: 2
#     Edge 62, Type (0, 1), BuildingBlock: KIFKEQ_clean_linker_1, # of connection points: 2
#     Edge 63, Type (0, 1), BuildingBlock: KIFKEQ_clean_linker_1, # of connection points: 2
#     Edge 64, Type (0, 1), BuildingBlock: KIFKEQ_clean_linker_1, # of connection points: 2
#     Edge 65, Type (0, 1), BuildingBlock: KIFKEQ_clean_linker_1, # of connection points: 2
#     Edge 66, Type (0, 1), BuildingBlock: KIFKEQ_clean_linker_1, # of connection points: 2
#     Edge 67, Type (0, 1), BuildingBlock: KIFKEQ_clean_linker_1, # of connection points: 2
#     Edge 68, Type (0, 1), BuildingBlock: KIFKEQ_clean_linker_1, # of connection points: 2
#     Edge 69, Type (0, 1), BuildingBlock: KIFKEQ_clean_linker_1, # of connection points: 2
#     Edge 70, Type (0, 1), BuildingBlock: KIFKEQ_clean_linker_1, # of connection points: 2
#     Edge 71, Type (0, 1), BuildingBlock: KIFKEQ_clean_linker_1, # of connection points: 2
#     Edge 72, Type (0, 1), BuildingBlock: KIFKEQ_clean_linker_1, # of connection points: 2
#     Edge 73, Type (0, 1), BuildingBlock: KIFKEQ_clean_linker_1, # of connection points: 2
#     Edge 74, Type (0, 1), BuildingBlock: KIFKEQ_clean_linker_1, # of connection points: 2
#     Edge 75, Type (0, 1), BuildingBlock: KIFKEQ_clean_linker_1, # of connection points: 2
# Relax obj value: 0.083
# Max RMSD: 0.208
# Mean RMSD: 0.130
data_MOF--net-ctn--node1-TATPOV_clean_sbu_0--node2-CUQRIR_clean_linker_1--edge1-KIFKEQ_clean_linker_1
_symmetry_space_group_name_H-M    P1
_symmetry_Int_Tables_number       1
_symmetry_cell_setting            triclinic
loop_
_symmetry_equiv_pos_as_xyz
'x, y, z'
_cell_length_a     52.687357
_cell_length_b     49.16354
_cell_length_c     50.402021
_cell_angle_alpha  97.856441
_cell_angle_beta   90.102008
_cell_angle_gamma 93.897561
loop_
_atom_site_label
_atom_site_type_symbol
_atom_site_fract_x
_atom_site_fract_y
_atom_site_fract_z
_atom_type_partial_charge
C0 C 0.03418 0.01087 0.0752 0.0
N1 N 0.0472 0.01829 0.05377 0.0
N2 N 0.01156 0.0225 0.07754 0.0
C3 C 0.04265 0.99067 0.09273 0.0
C4 C 0.01114 0.03712 0.05667 0.0
N5 N 0.03259 0.03433 0.042 0.0
C6 C 0.99062 0.05581 0.05178 0.0
H7 H 0.05354 0.97467 0.08104 0.0
H8 H 0.02614 0.98052 0.10201 0.0
H9 H 0.0552 1.00181 0.10894 0.0
H10 H 0.98043 0.0626 0.0705 0.0
H11 H 0.97672 0.04445 0.03701 0.0
H12 H 0.99869 0.07424 0.04344 0.0
C13 C 0.26868 0.71668 0.22697 0.0
N14 N 0.27958 0.70635 0.2474 0.0
N15 N 0.27997 0.74159 0.22391 0.0
C16 C 0.2468 0.70248 0.21009 0.0
C17 C 0.29823 0.74603 0.24333 0.0
N18 N 0.29786 0.72466 0.25784 0.0
C19 C 0.31764 0.77016 0.24674 0.0
H20 H 0.25434 0.68727 0.19427 0.0
H21 H 0.23636 0.71741 0.20042 0.0
H22 H 0.23342 0.69117 0.22236 0.0
H23 H 0.31113 0.78606 0.26256 0.0
H24 H 0.32003 0.77938 0.22793 0.0
H25 H 0.3363 0.76389 0.2531 0.0
C26 C 0.97675 0.48097 0.08022 0.0
N27 N 0.99055 0.45865 0.08059 0.0
N28 N 0.95881 0.47611 0.06063 0.0
C29 C 0.98013 0.50733 0.09932 0.0
C30 C 0.96185 0.45003 0.04924 0.0
N31 N 0.98079 0.43915 0.06167 0.0
C32 C 0.94704 0.43554 0.02521 0.0
H33 H 0.98607 0.50326 0.11946 0.0
H34 H 0.96229 0.51815 0.10116 0.0
H35 H 0.99503 0.52114 0.09159 0.0
H36 H 0.96014 0.42523 0.01047 0.0
H37 H 0.93595 0.44982 0.01541 0.0
H38 H 0.93359 0.41943 0.03168 0.0
C39 C 0.70103 0.73956 0.22016 0.0
N40 N 0.72155 0.75351 0.21096 0.0
N41 N 0.6943 0.75179 0.24467 0.0
C42 C 0.68893 0.71277 0.20627 0.0
C43 C 0.7115 0.77368 0.24997 0.0
N44 N 0.72819 0.77451 0.22969 0.0
C45 C 0.71106 0.79534 0.27415 0.0
H46 H 0.67405 0.71718 0.19217 0.0
H47 H 0.67993 0.70027 0.22089 0.0
H48 H 0.70322 0.70067 0.19463 0.0
H49 H 0.72315 0.78942 0.29018 0.0
H50 H 0.69144 0.7973 0.28178 0.0
H51 H 0.71878 0.81564 0.26935 0.0
C52 C 0.04104 0.9827 0.46566 0.0
N53 N 0.06233 0.987 0.48115 0.0
N54 N 0.04084 1.00127 0.44821 0.0
C55 C 0.01971 0.96139 0.46865 0.0
C56 C 0.06262 0.01727 0.45382 0.0
N57 N 0.07562 0.0088 0.47412 0.0
C58 C 0.07199 0.03979 0.4381 0.0
H59 H 1.00149 0.96718 0.4607 0.0
H60 H 0.01727 0.95851 0.48998 0.0
H61 H 0.02449 0.94145 0.45733 0.0
H62 H 0.06779 0.05996 0.44936 0.0
H63 H 0.06248 0.03755 0.4182 0.0
H64 H 0.09287 0.03968 0.43531 0.0
C65 C 0.20229 0.75241 0.77405 0.0
N66 N 0.21831 0.73952 0.78848 0.0
N67 N 0.19615 0.73678 0.7504 0.0
C68 C 0.19028 0.77875 0.78426 0.0
C69 C 0.20859 0.71371 0.75107 0.0
N70 N 0.22204 0.71532 0.77422 0.0
C71 C 0.2079 0.68982 0.72896 0.0
H72 H 0.17162 0.77987 0.77441 0.0
H73 H 0.20304 0.79645 0.7799 0.0
H74 H 0.18745 0.78063 0.80623 0.0
H75 H 0.20311 0.69637 0.70945 0.0
H76 H 0.19314 0.67398 0.73352 0.0
H77 H 0.22648 0.68038 0.7275 0.0
C78 C 0.94693 0.54214 0.46868 0.0
N79 N 0.96109 0.56612 0.46851 0.0
N80 N 0.9258 0.5462 0.48353 0.0
C81 C 0.95305 0.51503 0.4532 0.0
C82 C 0.92754 0.57354 0.4923 0.0
N83 N 0.94888 0.58577 0.48284 0.0
C84 C 0.90968 0.58764 0.51211 0.0
H85 H 0.93557 0.50128 0.44853 0.0
H86 H 0.96602 0.50482 0.46546 0.0
H87 H 0.96283 0.51813 0.43426 0.0
H88 H 0.89986 0.57281 0.52404 0.0
H89 H 0.89507 0.59701 0.50107 0.0
H90 H 0.92006 0.60419 0.52595 0.0
C91 C 0.8072 0.82758 0.84279 0.0
N92 N 0.82783 0.81366 0.83525 0.0
N93 N 0.80649 0.85024 0.83039 0.0
C94 C 0.78734 0.81859 0.86181 0.0
C95 C 0.82757 0.84964 0.81504 0.0
N96 N 0.84073 0.82749 0.81815 0.0
C97 C 0.83388 0.86894 0.79485 0.0
H98 H 0.77373 0.8029 0.85064 0.0
H99 H 0.77673 0.83621 0.87089 0.0
H100 H 0.79624 0.80905 0.87791 0.0
H101 H 0.84923 0.8843 0.80322 0.0
H102 H 0.81718 0.87998 0.79 0.0
H103 H 0.84098 0.85754 0.77611 0.0
C104 C 0.30465 0.32289 0.34034 0.0
N105 N 0.32603 0.30986 0.33396 0.0
N106 N 0.30409 0.34577 0.32825 0.0
C107 C 0.28414 0.31307 0.35821 0.0
C108 C 0.32605 0.34625 0.31433 0.0
N109 N 0.3396 0.32452 0.31801 0.0
C110 C 0.33295 0.36612 0.29482 0.0
H111 H 0.2729 0.3303 0.36703 0.0
H112 H 0.29251 0.30341 0.37454 0.0
H113 H 0.27119 0.2973 0.34621 0.0
H114 H 0.34747 0.38189 0.30427 0.0
H115 H 0.31622 0.37662 0.28908 0.0
H116 H 0.3413 0.35532 0.27646 0.0
C117 C 0.48054 0.98033 0.58563 0.0
N118 N 0.49467 0.95837 0.58606 0.0
N119 N 0.46931 0.97955 0.56133 0.0
C120 C 0.47892 1.00334 0.60839 0.0
C121 C 0.47715 0.95633 0.547 0.0
N122 N 0.49278 0.9436 0.56194 0.0
C123 C 0.46812 0.94506 0.51905 0.0
H124 H 0.46355 0.99762 0.62203 0.0
H125 H 0.4745 0.02274 0.60097 0.0
H126 H 0.49702 0.00681 0.62004 0.0
H127 H 0.48192 0.95234 0.50452 0.0
H128 H 0.44919 0.95221 0.51482 0.0
H129 H 0.46694 0.92223 0.51605 0.0
C130 C 0.21169 0.23506 0.72529 0.0
N131 N 0.22994 0.2507 0.71436 0.0
N132 N 0.20397 0.24825 0.74899 0.0
C133 C 0.20237 0.20635 0.7135 0.0
C134 C 0.21822 0.27254 0.75198 0.0
N135 N 0.23417 0.27388 0.7311 0.0
C136 C 0.2155 0.29559 0.77455 0.0
H137 H 0.18661 0.20751 0.69915 0.0
H138 H 0.1952 0.19429 0.72933 0.0
H139 H 0.2178 0.19558 0.70244 0.0
H140 H 0.22715 0.29185 0.79188 0.0
H141 H 0.19539 0.29637 0.78093 0.0
H142 H 0.22222 0.31583 0.76884 0.0
C143 C 0.76187 0.22603 0.74088 0.0
N144 N 0.77506 0.21228 0.7573 0.0
N145 N 0.77726 0.24538 0.73101 0.0
C146 C 0.73412 0.21971 0.73369 0.0
C147 C 0.80036 0.24283 0.74199 0.0
N148 N 0.7991 0.2225 0.75778 0.0
C149 C 0.82403 0.26019 0.73691 0.0
H150 H 0.7314 0.1986 0.72258 0.0
H151 H 0.72676 0.2346 0.72147 0.0
H152 H 0.72263 0.22033 0.75212 0.0
H153 H 0.82566 0.26157 0.71518 0.0
H154 H 0.84153 0.25216 0.74413 0.0
H155 H 0.82251 0.28134 0.74743 0.0
C156 C 0.53321 0.50923 0.57213 0.0
N157 N 0.54617 0.51587 0.55036 0.0
N158 N 0.5108 0.52128 0.57438 0.0
C159 C 0.54146 0.48931 0.59008 0.0
C160 C 0.51043 0.53535 0.55312 0.0
N161 N 0.5317 0.53181 0.53829 0.0
C162 C 0.49014 0.55418 0.54793 0.0
H163 H 0.5518 0.47272 0.57856 0.0
H164 H 0.52491 0.47991 0.59994 0.0
H165 H 0.55447 0.5005 0.60584 0.0
H166 H 0.47999 0.56138 0.56657 0.0
H167 H 0.47615 0.5428 0.53327 0.0
H168 H 0.49842 0.57236 0.53932 0.0
C169 C 0.5355 0.48362 0.96547 0.0
N170 N 0.55709 0.4887 0.98043 0.0
N171 N 0.53434 0.50188 0.94782 0.0
C172 C 0.51485 0.46179 0.96915 0.0
C173 C 0.55586 0.51848 0.95273 0.0
N174 N 0.56964 0.51067 0.97282 0.0
C175 C 0.56418 0.54098 0.93654 0.0
H176 H 0.52041 0.44172 0.95878 0.0
H177 H 0.49642 0.46636 0.96068 0.0
H178 H 0.51245 0.45986 0.9907 0.0
H179 H 0.55994 0.56111 0.94784 0.0
H180 H 0.554 0.53838 0.91697 0.0
H181 H 0.58497 0.54124 0.93301 0.0
C182 C 0.69451 0.24111 0.28129 0.0
N183 N 0.71126 0.22839 0.29499 0.0
N184 N 0.68735 0.22526 0.25806 0.0
C185 C 0.68294 0.2676 0.29191 0.0
C186 C 0.69998 0.20224 0.25823 0.0
N187 N 0.71447 0.20405 0.28071 0.0
C188 C 0.69855 0.17828 0.23616 0.0
H189 H 0.66407 0.269 0.28261 0.0
H190 H 0.69575 0.28516 0.28729 0.0
H191 H 0.68069 0.26947 0.31395 0.0
H192 H 0.69285 0.18474 0.21688 0.0
H193 H 0.68414 0.16241 0.24138 0.0
H194 H 0.71714 0.16892 0.23382 0.0
C195 C 0.42515 0.06324 0.94489 0.0
N196 N 0.44336 0.08423 0.94915 0.0
N197 N 0.40712 0.06581 0.96408 0.0
C198 C 0.42635 0.03879 0.92354 0.0
C199 C 0.41513 0.0891 0.98028 0.0
N200 N 0.43727 0.10004 0.97139 0.0
C201 C 0.40249 0.09983 0.00601 0.0
H202 H 0.40804 0.02612 0.92146 0.0
H203 H 0.44168 0.02597 0.92873 0.0
H204 H 0.43109 0.04572 0.904 0.0
H205 H 0.40956 0.08923 0.02235 0.0
H206 H 0.38158 0.09573 0.00453 0.0
H207 H 0.40688 0.1223 0.01132 0.0
Zn208 Zn 0.28563 0.85446 0.01612 0.0
Zn209 Zn 0.24239 0.87658 0.02375 0.0
O210 O 0.24794 0.85766 0.05887 0.0
O211 O 0.28513 0.8406 0.05085 0.0
O212 O 0.20927 0.89647 0.02983 0.0
O213 O 0.30495 0.89005 0.01314 0.0
O214 O 0.26843 0.90931 0.01844 0.0
C215 C 0.26635 0.84441 0.06611 0.0
C216 C 0.25038 0.83167 0.97545 0.0
O217 O 0.23624 0.84907 0.98823 0.0
O218 O 0.27272 0.82953 0.98372 0.0
C219 C 0.20105 0.91005 0.01212 0.0
O220 O 0.21348 0.90997 0.98953 0.0
C221 C 0.2924 0.9112 0.01469 0.0
Zn222 Zn 0.09973 0.46198 0.30227 0.0
Zn223 Zn 0.129 0.50577 0.29198 0.0
O224 O 0.10522 0.52177 0.3223 0.0
O225 O 0.07999 0.4858 0.32918 0.0
O226 O 0.15302 0.53879 0.28745 0.0
O227 O 0.13039 0.44326 0.31291 0.0
O228 O 0.15421 0.47849 0.30213 0.0
C229 C 0.0865 0.51122 0.33433 0.0
C230 C 0.09452 0.47303 0.24774 0.0
O231 O 0.11056 0.49336 0.25515 0.0
O232 O 0.0875 0.45662 0.26404 0.0
C233 C 0.16838 0.53934 0.26807 0.0
O234 O 0.16789 0.51824 0.24897 0.0
C235 C 0.15219 0.45499 0.31021 0.0
Zn236 Zn 0.79663 0.59643 0.94326 0.0
Zn237 Zn 0.79321 0.63251 0.98817 0.0
O238 O 0.82219 0.60907 0.99772 0.0
O239 O 0.82547 0.58005 0.96072 0.0
O240 O 0.78866 0.65994 0.02153 0.0
O241 O 0.80445 0.62776 0.92171 0.0
O242 O 0.80251 0.65712 0.95864 0.0
C243 C 0.83277 0.58898 0.98447 0.0
C244 C 0.74793 0.59109 0.96817 0.0
O245 O 0.75799 0.61081 0.98475 0.0
O246 O 0.76045 0.58123 0.9481 0.0
C247 C 0.79144 0.6534 0.04488 0.0
O248 O 0.79834 0.62868 0.04735 0.0
C249 C 0.80634 0.6523 0.93346 0.0
Zn250 Zn 0.83605 0.99842 0.31955 0.0
Zn251 Zn 0.86142 0.00451 0.27525 0.0
O252 O 0.83852 0.03815 0.27908 0.0
O253 O 0.81652 0.03107 0.31491 0.0
O254 O 0.8843 0.00807 0.24324 0.0
O255 O 0.86759 1.00374 0.34251 0.0
O256 O 0.88883 0.00593 0.30525 0.0
C257 C 0.82142 0.04526 0.29616 0.0
C258 C 0.82798 0.95125 0.27923 0.0
O259 O 0.84186 0.96609 0.26528 0.0
O260 O 0.82317 0.9603 0.30331 0.0
C261 C 0.87868 0.0159 0.22105 0.0
O262 O 0.85554 0.02307 0.21713 0.0
C263 C 0.88857 0.00595 0.33057 0.0
Zn264 Zn 0.30213 0.09417 0.44531 0.0
Zn265 Zn 0.29858 0.13066 0.48998 0.0
O266 O 0.32839 0.10821 0.49925 0.0
O267 O 0.3317 0.07881 0.46252 0.0
O268 O 0.29384 0.15827 0.52318 0.0
O269 O 0.30885 0.12538 0.42337 0.0
O270 O 0.30678 0.15507 0.46006 0.0
C271 C 0.33925 0.08829 0.48607 0.0
C272 C 0.25387 0.08806 0.47093 0.0
O273 O 0.26377 0.10816 0.48719 0.0
O274 O 0.26633 0.07824 0.4508 0.0
C275 C 0.29864 0.15295 0.54661 0.0
O276 O 0.30784 0.12931 0.54939 0.0
C277 C 0.31033 0.15003 0.43484 0.0
Zn278 Zn 0.33048 0.50203 0.81428 0.0
Zn279 Zn 0.35933 0.50859 0.77174 0.0
O280 O 0.33804 0.54349 0.77568 0.0
O281 O 0.31516 0.53769 0.81127 0.0
O282 O 0.38348 0.51223 0.74083 0.0
O283 O 0.36154 0.50209 0.83785 0.0
O284 O 0.38496 0.50768 0.80266 0.0
C285 C 0.32141 0.55184 0.79283 0.0
C286 C 0.32143 0.45769 0.77118 0.0
O287 O 0.3389 0.47113 0.7599 0.0
O288 O 0.31406 0.46676 0.79441 0.0
C289 C 0.37787 0.5189 0.71813 0.0
O290 O 0.35445 0.5247 0.71341 0.0
C291 C 0.38321 0.50507 0.82743 0.0
Zn292 Zn 0.7796 0.34149 0.52251 0.0
Zn293 Zn 0.74085 0.37192 0.52565 0.0
O294 O 0.74098 0.35587 0.56256 0.0
O295 O 0.77721 0.33572 0.56065 0.0
O296 O 0.71133 0.39768 0.5281 0.0
O297 O 0.80324 0.37183 0.51281 0.0
O298 O 0.77198 0.39921 0.5205 0.0
C299 C 0.75771 0.34311 0.57347 0.0
C300 C 0.74386 0.32092 0.48202 0.0
O301 O 0.73351 0.34302 0.4913 0.0
O302 O 0.76336 0.31411 0.49348 0.0
C303 C 0.68935 0.39206 0.51728 0.0
O304 O 0.68403 0.36751 0.50379 0.0
C305 C 0.79519 0.39565 0.51457 0.0
Zn306 Zn 0.60076 0.96374 0.81189 0.0
Zn307 Zn 0.62763 0.00821 0.79979 0.0
O308 O 0.60271 0.02365 0.82915 0.0
O309 O 0.58233 0.98662 0.84084 0.0
O310 O 0.65044 0.04204 0.79501 0.0
O311 O 0.63207 0.94581 0.82097 0.0
O312 O 0.65421 0.9822 0.8103 0.0
C313 C 0.58632 0.01254 0.84368 0.0
C314 C 0.59384 0.97372 0.75668 0.0
O315 O 0.60958 0.9945 0.76331 0.0
O316 O 0.5873 0.95795 0.77376 0.0
C317 C 0.66775 0.04201 0.77745 0.0
O318 O 0.67005 0.01971 0.76026 0.0
C319 C 0.65335 0.95859 0.81817 0.0
Zn320 Zn 0.00614 0.26487 0.87169 0.0
Zn321 Zn 0.00567 0.22177 0.89689 0.0
O322 O 0.03871 0.22025 0.87344 0.0
O323 O 0.04011 0.25891 0.85577 0.0
O324 O 0.00788 0.18797 0.91657 0.0
O325 O 0.00506 0.29044 0.90586 0.0
O326 O 0.00661 0.25506 0.92813 0.0
C327 C 0.04996 0.23694 0.85924 0.0
C328 C 0.96224 0.22841 0.85693 0.0
O329 O 0.97104 0.21526 0.87479 0.0
O330 O 0.97435 0.24998 0.85132 0.0
C331 C 0.02922 0.18283 0.92612 0.0
O332 O 0.04923 0.19963 0.92336 0.0
C333 C 0.00626 0.28102 0.92792 0.0
Zn334 Zn 0.5029 0.77134 0.38336 0.0
Zn335 Zn 0.50222 0.72303 0.40068 0.0
O336 O 0.53338 0.72347 0.37479 0.0
O337 O 0.53419 0.76461 0.36194 0.0
O338 O 0.50479 0.68667 0.41605 0.0
O339 O 0.50724 0.79218 0.41996 0.0
O340 O 0.5057 0.75227 0.43546 0.0
C341 C 0.54365 0.74163 0.36156 0.0
C342 C 0.45613 0.73837 0.36893 0.0
O343 O 0.46653 0.72057 0.38094 0.0
O344 O 0.46797 0.7614 0.36745 0.0
C345 C 0.52638 0.68106 0.42461 0.0
O346 O 0.54608 0.69856 0.4228 0.0
C347 C 0.50778 0.77857 0.43944 0.0
Zn348 Zn 0.96447 0.82426 0.60777 0.0
Zn349 Zn 0.00562 0.80942 0.63176 0.0
O350 O 0.01903 0.84478 0.61675 0.0
O351 O 0.98418 0.85969 0.60132 0.0
O352 O 0.0359 0.79748 0.65035 0.0
O353 O 0.94424 0.82165 0.64177 0.0
O354 O 0.97913 0.81291 0.66211 0.0
C355 C 0.00796 0.8627 0.60574 0.0
C356 C 0.98184 0.77264 0.58283 0.0
O357 O 0.99756 0.77683 0.60242 0.0
O358 O 0.96601 0.79031 0.57984 0.0
C359 C 0.05763 0.79576 0.63959 0.0
O360 O 0.06094 0.80275 0.61552 0.0
C361 C 0.95545 0.81684 0.66273 0.0
Zn362 Zn 0.46457 0.32834 0.11105 0.0
Zn363 Zn 0.50644 0.31277 0.1332 0.0
O364 O 0.51897 0.34883 0.11885 0.0
O365 O 0.48377 0.36392 0.10447 0.0
O366 O 0.53787 0.3013 0.15059 0.0
O367 O 0.44527 0.3251 0.14527 0.0
O368 O 0.48035 0.31483 0.16425 0.0
C369 C 0.50761 0.36694 0.10841 0.0
C370 C 0.48131 0.27734 0.08398 0.0
O371 O 0.49801 0.28125 0.10265 0.0
O372 O 0.46493 0.29484 0.08263 0.0
C373 C 0.54137 0.27607 0.15139 0.0
O374 O 0.52417 0.25711 0.1407 0.0
C375 C 0.45674 0.31911 0.16558 0.0
H376 H 0.21117 0.71288 0.83168 0.0
H377 H 0.24303 0.78808 0.80645 0.0
H378 H 0.21729 0.7333 0.87881 0.0
H379 H 0.24822 0.80893 0.8533 0.0
H380 H 0.21989 0.84589 0.93623 0.0
H381 H 0.21319 0.82112 0.89078 0.0
H382 H 0.25588 0.75511 0.91167 0.0
H383 H 0.26307 0.78003 0.95677 0.0
C384 C 0.22008 0.73349 0.83629 0.0
C385 C 0.22668 0.74899 0.8156 0.0
C386 C 0.22325 0.74529 0.86313 0.0
C387 C 0.23265 0.77288 0.86957 0.0
C388 C 0.24042 0.78782 0.84884 0.0
C389 C 0.23772 0.77587 0.82214 0.0
C390 C 0.22734 0.82584 0.93125 0.0
C391 C 0.24203 0.8149 0.94994 0.0
C392 C 0.22374 0.81181 0.90524 0.0
C393 C 0.23427 0.78636 0.89775 0.0
C394 C 0.24759 0.77467 0.91695 0.0
C395 C 0.25167 0.78894 0.9427 0.0
H396 H 0.96467 0.59074 0.42426 0.0
H397 H 0.00698 0.54813 0.4768 0.0
H398 H 0.99871 0.58566 0.39099 0.0
H399 H 0.04133 0.54338 0.44401 0.0
H400 H 0.10238 0.54652 0.37905 0.0
H401 H 0.07494 0.56891 0.41388 0.0
H402 H 0.00855 0.5366 0.36651 0.0
H403 H 0.03573 0.5137 0.33252 0.0
C404 C 0.98182 0.58136 0.42903 0.0
C405 C 0.98349 0.56986 0.45286 0.0
C406 C 1.00116 0.57832 0.41008 0.0
C407 C 0.02259 0.56408 0.41495 0.0
C408 C 0.02518 0.55472 0.43988 0.0
C409 C 0.00563 0.55737 0.45858 0.0
C410 C 0.08195 0.5448 0.37598 0.0
C411 C 0.07104 0.52844 0.35327 0.0
C412 C 0.06631 0.5575 0.39584 0.0
C413 C 0.03967 0.55462 0.39274 0.0
C414 C 0.02901 0.5395 0.36924 0.0
C415 C 0.04452 0.52627 0.34989 0.0
H416 H 0.85896 0.80633 0.87539 0.0
H417 H 0.80678 0.764 0.81553 0.0
H418 H 0.85755 0.76555 0.8987 0.0
H419 H 0.8049 0.72323 0.83854 0.0
H420 H 0.81347 0.70768 0.95139 0.0
H421 H 0.82413 0.74489 0.92499 0.0
H422 H 0.82637 0.68571 0.85348 0.0
H423 H 0.81535 0.64861 0.87969 0.0
C424 C 0.84808 0.78777 0.86668 0.0
C425 C 0.83341 0.78786 0.84349 0.0
C426 C 0.84684 0.76464 0.8802 0.0
C427 C 0.83085 0.7412 0.87069 0.0
C428 C 0.8176 0.74076 0.84634 0.0
C429 C 0.81879 0.76393 0.83298 0.0
C430 C 0.81631 0.70259 0.93006 0.0
C431 C 0.81334 0.67512 0.9177 0.0
C432 C 0.82268 0.72391 0.91494 0.0
C433 C 0.82619 0.71831 0.88707 0.0
C434 C 0.82359 0.69081 0.87482 0.0
C435 C 0.81729 0.66951 0.88992 0.0
H436 H 0.0246 0.96377 0.40672 0.0
H437 H 0.01309 0.04492 0.44705 0.0
H438 H 0.98903 0.96713 0.37599 0.0
H439 H 0.97739 0.04848 0.41658 0.0
H440 H 0.89491 0.0213 0.38424 0.0
H441 H 0.93365 0.02222 0.4109 0.0
H442 H 0.97532 0.99573 0.33942 0.0
H443 H 0.93641 0.99507 0.31246 0.0
C444 C 0.0145 0.98239 0.4087 0.0
C445 C 0.0213 0.00408 0.42906 0.0
C446 C 0.99435 0.98442 0.39114 0.0
C447 C 0.98046 0.00806 0.39396 0.0
C448 C 0.9877 0.02999 0.41406 0.0
C449 C 0.00807 0.02806 0.43135 0.0
C450 C 0.91235 0.01587 0.37413 0.0
C451 C 0.91258 0.00803 0.34624 0.0
C452 C 0.93456 0.01656 0.3894 0.0
C453 C 0.95746 0.00906 0.37722 0.0
C454 C 0.95786 1.0015 0.3493 0.0
C455 C 0.93565 1.00125 0.33389 0.0
H456 H 0.2798 0.24409 0.70671 0.0
H457 H 0.20765 0.24034 0.66578 0.0
H458 H 0.29968 0.2247 0.66494 0.0
H459 H 0.22707 0.22063 0.62406 0.0
H460 H 0.27217 0.19935 0.54874 0.0
H461 H 0.25812 0.22818 0.58866 0.0
H462 H 0.29581 0.1783 0.63868 0.0
H463 H 0.31 0.14967 0.59892 0.0
C464 C 0.26843 0.2397 0.68853 0.0
C465 C 0.24233 0.24363 0.6892 0.0
C466 C 0.27964 0.22836 0.66475 0.0
C467 C 0.26491 0.22094 0.6412 0.0
C468 C 0.23902 0.22633 0.64171 0.0
C469 C 0.22785 0.23747 0.66552 0.0
C470 C 0.27773 0.19475 0.56825 0.0
C471 C 0.29205 0.17206 0.57062 0.0
C472 C 0.26959 0.21121 0.59112 0.0
C473 C 0.27578 0.2055 0.61686 0.0
C474 C 0.29095 0.18347 0.61917 0.0
C475 C 0.29892 0.16692 0.59635 0.0
H476 H 0.51833 0.53452 0.62759 0.0
H477 H 0.46092 0.50579 0.56753 0.0
H478 H 0.4862 0.53433 0.66263 0.0
H479 H 0.42861 0.50501 0.60234 0.0
H480 H 0.37332 0.53448 0.66823 0.0
H481 H 0.4056 0.53505 0.63365 0.0
H482 H 0.45907 0.50432 0.68547 0.0
H483 H 0.42704 0.50445 0.72024 0.0
C484 C 0.49879 0.52788 0.62204 0.0
C485 C 0.49198 0.52017 0.59501 0.0
C486 C 0.48038 0.52769 0.64202 0.0
C487 C 0.45471 0.51969 0.63538 0.0
C488 C 0.44805 0.51174 0.60822 0.0
C489 C 0.46649 0.51201 0.58828 0.0
C490 C 0.39198 0.5279 0.67228 0.0
C491 C 0.39755 0.51945 0.69707 0.0
C492 C 0.41047 0.52805 0.65235 0.0
C493 C 0.43501 0.51968 0.65667 0.0
C494 C 0.44054 0.51128 0.68151 0.0
C495 C 0.42209 0.51121 0.70145 0.0
H496 H 0.75818 0.22755 0.68162 0.0
H497 H 0.78311 0.30083 0.73458 0.0
H498 H 0.74863 0.2555 0.64666 0.0
H499 H 0.77429 0.329 0.69938 0.0
H500 H 0.79257 0.35433 0.61326 0.0
H501 H 0.79415 0.33321 0.65425 0.0
H502 H 0.71981 0.29248 0.63559 0.0
H503 H 0.71815 0.3142 0.5945 0.0
C504 C 0.76134 0.24972 0.68578 0.0
C505 C 0.7713 0.2621 0.71072 0.0
C506 C 0.75577 0.26573 0.66589 0.0
C507 C 0.76049 0.29449 0.67034 0.0
C508 C 0.77044 0.30689 0.69537 0.0
C509 C 0.77565 0.29084 0.71542 0.0
C510 C 0.77619 0.34163 0.61844 0.0
C511 C 0.75514 0.33605 0.60092 0.0
C512 C 0.7771 0.3295 0.64188 0.0
C513 C 0.75721 0.31101 0.64806 0.0
C514 C 0.73549 0.30654 0.63123 0.0
C515 C 0.73438 0.31917 0.60793 0.0
H516 H 0.47893 0.94682 0.63396 0.0
H517 H 0.5458 0.96084 0.58754 0.0
H518 H 0.50533 0.94776 0.6741 0.0
H519 H 0.57269 0.9619 0.62773 0.0
H520 H 0.55995 0.93121 0.73741 0.0
H521 H 0.53814 0.9231 0.69429 0.0
H522 H 0.57898 0.99495 0.67074 0.0
H523 H 0.60118 1.00312 0.71416 0.0
C524 C 0.49943 0.94934 0.63238 0.0
C525 C 0.51051 0.95347 0.6079 0.0
C526 C 0.51457 0.94996 0.65525 0.0
C527 C 0.54113 0.95504 0.65412 0.0
C528 C 0.55228 0.95817 0.62927 0.0
C529 C 0.53705 0.95722 0.60628 0.0
C530 C 0.56452 0.94525 0.72306 0.0
C531 C 0.58218 0.96804 0.72944 0.0
C532 C 0.55192 0.94058 0.69831 0.0
C533 C 0.55668 0.95846 0.67917 0.0
C534 C 0.57504 0.98066 0.68503 0.0
C535 C 0.58764 0.98545 0.70995 0.0
H536 H 0.83959 0.19633 0.73805 0.0
H537 H 0.80525 0.23041 0.8114 0.0
H538 H 0.87866 0.19056 0.76258 0.0
H539 H 0.84438 0.225 0.8363 0.0
H540 H 0.91852 0.2024 0.87473 0.0
H541 H 0.87702 0.19417 0.8513 0.0
H542 H 0.91008 0.22675 0.78289 0.0
H543 H 0.95086 0.23498 0.80604 0.0
C544 C 0.84034 0.20194 0.75959 0.0
C545 C 0.81973 0.21404 0.77291 0.0
C546 C 0.86266 0.19883 0.77364 0.0
C547 C 0.86483 0.20771 0.80139 0.0
C548 C 0.84336 0.21784 0.81501 0.0
C549 C 0.821 0.22099 0.80084 0.0
C550 C 0.91691 0.20724 0.85449 0.0
C551 C 0.93795 0.21939 0.84226 0.0
C552 C 0.89315 0.20274 0.84116 0.0
C553 C 0.8902 0.20974 0.81515 0.0
C554 C 0.91162 0.22074 0.80268 0.0
C555 C 0.93504 0.22563 0.81607 0.0
H556 H 0.48028 0.8956 0.58033 0.0
H557 H 0.52712 0.93299 0.52363 0.0
H558 H 0.4887 0.84967 0.55751 0.0
H559 H 0.53538 0.88774 0.50042 0.0
H560 H 0.55039 0.80709 0.46028 0.0
H561 H 0.55274 0.84413 0.49797 0.0
H562 H 0.47367 0.82482 0.51498 0.0
H563 H 0.4719 0.7871 0.47784 0.0
C564 C 0.49316 0.89382 0.56356 0.0
C565 C 0.50323 0.91755 0.55367 0.0
C566 C 0.49774 0.86765 0.55027 0.0
C567 C 0.51255 0.86486 0.52692 0.0
C568 C 0.52419 0.88884 0.51848 0.0
C569 C 0.51952 0.91485 0.5317 0.0
C570 C 0.5339 0.81007 0.47289 0.0
C571 C 0.51105 0.79418 0.46644 0.0
C572 C 0.53511 0.83149 0.49428 0.0
C573 C 0.51327 0.83791 0.50927 0.0
C574 C 0.49095 0.82043 0.5041 0.0
C575 C 0.48987 0.79874 0.48284 0.0
H576 H 0.15591 0.2301 0.73387 0.0
H577 H 0.20629 0.24759 0.80242 0.0
H578 H 0.1203 0.22075 0.76325 0.0
H579 H 0.17053 0.23928 0.83202 0.0
H580 H 0.09197 0.27145 0.86585 0.0
H581 H 0.13137 0.26837 0.84061 0.0
H582 H 0.10332 0.1894 0.79899 0.0
H583 H 0.06382 0.19227 0.82507 0.0
C584 C 0.15942 0.23134 0.75518 0.0
C585 C 0.18374 0.23977 0.76595 0.0
C586 C 0.13909 0.22599 0.77198 0.0
C587 C 0.14267 0.22935 0.79991 0.0
C588 C 0.16724 0.23667 0.81057 0.0
C589 C 0.18761 0.2416 0.79372 0.0
C590 C 0.09455 0.25308 0.85186 0.0
C591 C 0.07506 0.23201 0.84745 0.0
C592 C 0.11709 0.25128 0.83745 0.0
C593 C 0.12038 0.22866 0.81784 0.0
C594 C 0.10122 0.20705 0.81403 0.0
C595 C 0.07879 0.20857 0.82901 0.0
H596 H 0.50926 0.52444 0.4898 0.0
H597 H 0.56714 0.57373 0.53818 0.0
H598 H 0.51013 0.55827 0.45835 0.0
H599 H 0.56784 0.60821 0.5074 0.0
H600 H 0.57051 0.66247 0.44174 0.0
H601 H 0.57584 0.62268 0.46466 0.0
H602 H 0.49464 0.60305 0.46023 0.0
H603 H 0.48941 0.64251 0.43668 0.0
C604 C 0.52289 0.54211 0.49303 0.0
C605 C 0.53839 0.5464 0.5161 0.0
C606 C 0.52307 0.56179 0.47538 0.0
C607 C 0.53867 0.58639 0.48053 0.0
C608 C 0.55566 0.58954 0.50258 0.0
C609 C 0.5555 0.56972 0.52016 0.0
C610 C 0.55377 0.64957 0.44546 0.0
C611 C 0.52947 0.65585 0.43741 0.0
C612 C 0.55685 0.62674 0.45875 0.0
C613 C 0.53572 0.6095 0.46444 0.0
C614 C 0.51146 0.61549 0.45587 0.0
C615 C 0.50839 0.63831 0.4425 0.0
H616 H 0.88803 0.85138 0.81853 0.0
H617 H 0.83901 0.7844 0.77913 0.0
H618 H 0.9186 0.84479 0.78198 0.0
H619 H 0.8694 0.77753 0.74238 0.0
H620 H 0.90385 0.81224 0.66762 0.0
H621 H 0.87912 0.80912 0.70794 0.0
H622 H 0.94841 0.81361 0.75465 0.0
H623 H 0.9734 0.81659 0.71401 0.0
C624 C 0.88445 0.83446 0.80252 0.0
C625 C 0.86148 0.81815 0.80163 0.0
C626 C 0.90181 0.83074 0.78156 0.0
C627 C 0.89626 0.81086 0.75912 0.0
C628 C 0.87408 0.7932 0.75927 0.0
C629 C 0.85688 0.79679 0.7804 0.0
C630 C 0.9139 0.81249 0.68642 0.0
C631 C 0.94064 0.81483 0.68756 0.0
C632 C 0.89969 0.81038 0.70952 0.0
C633 C 0.9118 0.81085 0.73447 0.0
C634 C 0.93855 0.81315 0.7357 0.0
C635 C 0.95283 0.81487 0.71244 0.0
H636 H 0.075 0.93504 0.48061 0.0
H637 H 0.05737 0.00795 0.53266 0.0
H638 H 0.06842 0.90767 0.51744 0.0
H639 H 0.05042 0.98077 0.56976 0.0
H640 H 0.99152 0.91191 0.59649 0.0
H641 H 0.01311 0.9455 0.57145 0.0
H642 H 0.07942 0.89814 0.56476 0.0
H643 H 0.05783 0.86451 0.5903 0.0
C644 C 0.07089 0.94531 0.50038 0.0
C645 C 0.06688 0.97346 0.50407 0.0
C646 C 0.06702 0.92973 0.52144 0.0
C647 C 0.05865 0.94204 0.54645 0.0
C648 C 0.05674 0.97072 0.55067 0.0
C649 C 0.06096 0.98632 0.52965 0.0
C650 C 0.01095 0.909 0.59029 0.0
C651 C 0.0229 0.88547 0.59523 0.0
C652 C 0.02339 0.92836 0.57608 0.0
C653 C 0.04796 0.92444 0.56607 0.0
C654 C 0.06047 0.90165 0.57219 0.0
C655 C 0.04815 0.88249 0.5869 0.0
H656 H 0.19862 0.78008 0.7231 0.0
H657 H 0.15305 0.70656 0.73433 0.0
H658 H 0.1655 0.79294 0.69382 0.0
H659 H 0.11988 0.71899 0.70486 0.0
H660 H 0.05517 0.77288 0.68596 0.0
H661 H 0.08985 0.7564 0.71002 0.0
H662 H 0.14264 0.77868 0.64988 0.0
H663 H 0.10787 0.79534 0.6257 0.0
C664 C 0.18162 0.76651 0.71879 0.0
C665 C 0.17819 0.74241 0.73073 0.0
C666 C 0.16276 0.77373 0.70205 0.0
C667 C 0.14005 0.75703 0.69718 0.0
C668 C 0.13707 0.73239 0.70848 0.0
C669 C 0.15604 0.72512 0.72507 0.0
C670 C 0.07414 0.77424 0.67779 0.0
C671 C 0.07877 0.78552 0.65395 0.0
C672 C 0.09398 0.76457 0.69148 0.0
C673 C 0.11893 0.76614 0.68177 0.0
C674 C 0.1236 0.77735 0.6579 0.0
C675 C 0.10369 0.78681 0.64404 0.0
H676 H 0.99496 0.60473 0.50352 0.0
H677 H 0.92335 0.63042 0.47819 0.0
H678 H 0.00751 0.65203 0.52307 0.0
H679 H 0.9347 0.67722 0.49922 0.0
H680 H 0.96169 0.76251 0.53219 0.0
H681 H 0.95852 0.71903 0.50235 0.0
H682 H 0.99679 0.68046 0.56188 0.0
H683 H 1.00113 0.72427 0.59092 0.0
C684 C 0.98216 0.62071 0.50171 0.0
C685 C 0.95812 0.61409 0.4897 0.0
C686 C 0.9891 0.64771 0.51328 0.0
C687 C 0.97194 0.6685 0.51332 0.0
C688 C 0.94857 0.662 0.49955 0.0
C689 C 0.94187 0.63513 0.48768 0.0
C690 C 0.96966 0.74477 0.53872 0.0
C691 C 0.98143 0.74673 0.56401 0.0
C692 C 0.96776 0.71977 0.52166 0.0
C693 C 0.97715 0.69599 0.52969 0.0
C694 C 0.98968 0.6983 0.55469 0.0
C695 C 0.99198 0.72342 0.57153 0.0
H696 H 0.77079 0.78026 0.25933 0.0
H697 H 0.73096 0.81555 0.19926 0.0
H698 H 0.79995 0.82151 0.2673 0.0
H699 H 0.75971 0.85746 0.20744 0.0
H700 H 0.82372 0.92751 0.22625 0.0
H701 H 0.80415 0.88162 0.20894 0.0
H702 H 0.78883 0.86642 0.28996 0.0
H703 H 0.80811 0.91149 0.30702 0.0
C704 C 0.76894 0.79663 0.24723 0.0
C705 C 0.74888 0.79496 0.22871 0.0
C706 C 0.78537 0.82032 0.25192 0.0
C707 C 0.78183 0.843 0.23837 0.0
C708 C 0.76301 0.84034 0.21813 0.0
C709 C 0.74661 0.81643 0.21337 0.0
C710 C 0.81635 0.91419 0.24028 0.0
C711 C 0.81742 0.92323 0.26801 0.0
C712 C 0.8051 0.88799 0.23038 0.0
C713 C 0.79517 0.87025 0.24808 0.0
C714 C 0.79671 0.87926 0.27575 0.0
C715 C 0.80759 0.90533 0.28554 0.0
H716 H 0.69942 0.15325 0.29033 0.0
H717 H 0.76563 0.2083 0.28473 0.0
H718 H 0.72655 0.11559 0.2946 0.0
H719 H 0.79326 0.17061 0.28905 0.0
H720 H 0.78175 0.06184 0.32737 0.0
H721 H 0.75742 0.10174 0.32614 0.0
H722 H 0.80332 0.1253 0.26108 0.0
H723 H 0.82819 0.08498 0.26236 0.0
C724 C 0.71989 0.15725 0.29056 0.0
C725 C 0.73058 0.18348 0.28747 0.0
C726 C 0.73544 0.1358 0.29294 0.0
C727 C 0.7621 0.14007 0.29204 0.0
C728 C 0.77281 0.16661 0.28955 0.0
C729 C 0.75713 0.18821 0.28745 0.0
C730 C 0.78684 0.07543 0.31274 0.0
C731 C 0.80693 0.07 0.29482 0.0
C732 C 0.77275 0.09834 0.31204 0.0
C733 C 0.77833 0.11665 0.29347 0.0
C734 C 0.79869 0.11165 0.27578 0.0
C735 C 0.8128 0.08846 0.27636 0.0
H736 H 0.41758 0.01578 0.97447 0.0
H737 H 0.3562 0.06831 0.96899 0.0
H738 H 0.3879 0.98011 0.9877 0.0
H739 H 0.32624 0.03342 0.98427 0.0
H740 H 0.27754 0.95065 0.98566 0.0
H741 H 0.30438 0.98949 0.97319 0.0
H742 H 0.36455 0.97001 0.02451 0.0
H743 H 0.33835 0.93056 0.03538 0.0
C744 C 0.3976 0.01956 0.97619 0.0
C745 C 0.38906 0.04462 0.97081 0.0
C746 C 0.38059 0.99938 0.98421 0.0
C747 C 0.35462 0.00401 0.98766 0.0
C748 C 0.34603 0.02906 0.98179 0.0
C749 C 0.36311 0.04912 0.97328 0.0
C750 C 0.29638 0.9551 0.99451 0.0
C751 C 0.30606 0.93758 0.01123 0.0
C752 C 0.31179 0.97732 0.9874 0.0
C753 C 0.33694 0.98257 0.99731 0.0
C754 C 0.34569 0.96607 0.01565 0.0
C755 C 0.33059 0.94364 0.0222 0.0
H756 H 0.30369 0.40075 0.34162 0.0
H757 H 0.25707 0.32805 0.31045 0.0
H758 H 0.26716 0.42888 0.33904 0.0
H759 H 0.22066 0.35572 0.30745 0.0
H760 H 0.1545 0.40666 0.33081 0.0
H761 H 0.19179 0.38145 0.33655 0.0
H762 H 0.23939 0.44515 0.30635 0.0
H763 H 0.20202 0.47081 0.30111 0.0
C764 C 0.28556 0.39095 0.33419 0.0
C765 C 0.28289 0.36239 0.3265 0.0
C766 C 0.26473 0.40692 0.33259 0.0
C767 C 0.24092 0.3945 0.32326 0.0
C768 C 0.23853 0.36588 0.31529 0.0
C769 C 0.25931 0.35002 0.3169 0.0
C770 C 0.17291 0.41544 0.32553 0.0
C771 C 0.17522 0.44069 0.31532 0.0
C772 C 0.1943 0.40088 0.32869 0.0
C773 C 0.21855 0.41112 0.32162 0.0
C774 C 0.22101 0.43677 0.31215 0.0
C775 C 0.19957 0.45142 0.30904 0.0
H776 H 0.11653 0.97892 0.47322 0.0
H777 H 0.09196 0.0608 0.49369 0.0
H778 H 0.16103 0.99712 0.47735 0.0
H779 H 0.13628 0.07942 0.49706 0.0
H780 H 0.22068 0.10393 0.5113 0.0
H781 H 0.17816 0.08316 0.5185 0.0
H782 H 0.18623 0.02345 0.44827 0.0
H783 H 0.22857 0.04377 0.44133 0.0
C784 C 0.12077 1.00073 0.47939 0.0
C785 C 0.10103 0.01855 0.48295 0.0
C786 C 0.14617 0.01125 0.48137 0.0
C787 C 0.15225 0.03982 0.48698 0.0
C788 C 0.13236 0.05734 0.49275 0.0
C789 C 0.107 0.04677 0.49076 0.0
C790 C 0.2134 0.0863 0.49748 0.0
C791 C 0.22805 0.07563 0.47566 0.0
C792 C 0.18902 0.07441 0.5016 0.0
C793 C 0.17881 0.0515 0.48408 0.0
C794 C 0.19363 0.04071 0.46249 0.0
C795 C 0.21788 0.0526 0.45833 0.0
H796 H 0.7382 0.20788 0.79355 0.0
H797 H 0.79005 0.16119 0.74304 0.0
H798 H 0.71386 0.1656 0.80063 0.0
H799 H 0.76694 0.11831 0.75133 0.0
H800 H 0.69921 0.05419 0.73702 0.0
H801 H 0.72861 0.09445 0.73642 0.0
H802 H 0.70817 0.12429 0.81777 0.0
H803 H 0.67779 0.08469 0.81769 0.0
C804 C 0.74479 0.18832 0.78472 0.0
C805 C 0.76566 0.18762 0.76752 0.0
C806 C 0.73096 0.16399 0.78882 0.0
C807 C 0.73801 0.13831 0.77612 0.0
C808 C 0.76041 0.13765 0.76082 0.0
C809 C 0.774 0.1621 0.75646 0.0
C810 C 0.701 0.06938 0.75476 0.0
C811 C 0.68595 0.06637 0.77727 0.0
C812 C 0.71813 0.0924 0.75457 0.0
C813 C 0.72099 0.11282 0.7771 0.0
C814 C 0.70627 0.10939 0.79985 0.0
C815 C 0.68884 0.08659 0.79985 0.0
H816 H 0.47518 0.00586 0.51814 0.0
H817 H 0.42602 0.9961 0.58484 0.0
H818 H 0.44528 0.03545 0.501 0.0
H819 H 0.39587 0.02568 0.56788 0.0
H820 H 0.35609 0.09664 0.53844 0.0
H821 H 0.38942 0.07312 0.55824 0.0
H822 H 0.40273 0.02705 0.48083 0.0
H823 H 0.3699 0.05052 0.4611 0.0
C824 C 0.45795 0.01025 0.52912 0.0
C825 C 0.45267 0.99868 0.5526 0.0
C826 C 0.44085 0.0271 0.51938 0.0
C827 C 0.4181 0.03275 0.53299 0.0
C828 C 0.41332 0.02195 0.55708 0.0
C829 C 0.43046 0.00501 0.56677 0.0
C830 C 0.36631 0.08166 0.52565 0.0
C831 C 0.36028 0.07543 0.49819 0.0
C832 C 0.38528 0.0681 0.53701 0.0
C833 C 0.39874 0.04826 0.52109 0.0
C834 C 0.39299 0.04249 0.49359 0.0
C835 C 0.374 0.05584 0.48231 0.0
H836 H 0.55484 0.48579 0.50267 0.0
H837 H 0.59049 0.52044 0.57766 0.0
H838 H 0.59146 0.45824 0.49163 0.0
H839 H 0.62659 0.49239 0.56758 0.0
H840 H 0.69504 0.44667 0.53891 0.0
H841 H 0.66299 0.48055 0.54289 0.0
H842 H 0.60729 0.41846 0.50551 0.0
H843 H 0.63949 0.38499 0.50076 0.0
C844 C 0.57089 0.48801 0.51642 0.0
C845 C 0.56991 0.50515 0.54099 0.0
C846 C 0.5917 0.47189 0.51041 0.0
C847 C 0.61197 0.47253 0.52891 0.0
C848 C 0.61161 0.49127 0.55267 0.0
C849 C 0.59089 0.50739 0.55855 0.0
C850 C 0.67597 0.44028 0.53144 0.0
C851 C 0.6699 0.41298 0.51963 0.0
C852 C 0.6575 0.45974 0.53379 0.0
C853 C 0.63234 0.45245 0.52454 0.0
C854 C 0.62644 0.42517 0.51244 0.0
C855 C 0.64494 0.4058 0.50995 0.0
H856 H 0.70401 0.20229 0.3384 0.0
H857 H 0.7373 0.27636 0.31221 0.0
H858 H 0.71033 0.22313 0.38532 0.0
H859 H 0.74321 0.29755 0.35887 0.0
H860 H 0.71793 0.33781 0.4407 0.0
H861 H 0.71151 0.31309 0.39535 0.0
H862 H 0.74527 0.24262 0.41949 0.0
H863 H 0.75183 0.26727 0.46467 0.0
C864 C 0.71337 0.22271 0.34279 0.0
C865 C 0.72024 0.2378 0.32189 0.0
C866 C 0.71671 0.23476 0.36953 0.0
C867 C 0.72671 0.2622 0.3757 0.0
C868 C 0.73491 0.27662 0.35471 0.0
C869 C 0.73186 0.26445 0.3281 0.0
C870 C 0.72348 0.31686 0.43647 0.0
C871 C 0.73548 0.30456 0.45622 0.0
C872 C 0.72009 0.30282 0.41045 0.0
C873 C 0.72827 0.27608 0.40382 0.0
C874 C 0.73883 0.26319 0.42399 0.0
C875 C 0.74257 0.27735 0.44985 0.0
H876 H 0.45491 0.09212 0.89863 0.0
H877 H 0.48695 0.07482 0.97259 0.0
H878 H 0.49454 0.08079 0.87545 0.0
H879 H 0.52675 0.06365 0.94978 0.0
H880 H 0.56317 0.9974 0.88796 0.0
H881 H 0.53253 0.0221 0.91621 0.0
H882 H 0.54246 0.09046 0.87091 0.0
H883 H 0.57357 0.06561 0.8425 0.0
C884 C 0.47085 0.08675 0.90999 0.0
C885 C 0.46811 0.08416 0.9372 0.0
C886 C 0.49351 0.08035 0.89685 0.0
C887 C 0.51366 0.07105 0.91076 0.0
C888 C 0.51146 0.07051 0.9385 0.0
C889 C 0.48887 0.07708 0.9516 0.0
C890 C 0.5592 0.0179 0.88429 0.0
C891 C 0.57066 0.02949 0.86291 0.0
C892 C 0.54176 0.03216 0.90062 0.0
C893 C 0.53508 0.05824 0.89579 0.0
C894 C 0.54722 0.07036 0.87503 0.0
C895 C 0.56508 0.05621 0.85889 0.0
H896 H 0.30541 0.25963 0.3156 0.0
H897 H 0.35815 0.30397 0.37378 0.0
H898 H 0.305 0.21938 0.33926 0.0
H899 H 0.3582 0.26369 0.39775 0.0
H900 H 0.3165 0.20561 0.45212 0.0
H901 H 0.32572 0.24262 0.42508 0.0
H902 H 0.328 0.18279 0.35407 0.0
H903 H 0.31842 0.14589 0.3809 0.0
C904 C 0.3178 0.26015 0.33285 0.0
C905 C 0.33215 0.28448 0.34272 0.0
C906 C 0.31748 0.23726 0.34656 0.0
C907 C 0.33136 0.23839 0.37062 0.0
C908 C 0.34704 0.26226 0.37949 0.0
C909 C 0.34742 0.28511 0.3656 0.0
C910 C 0.31904 0.20034 0.43076 0.0
C911 C 0.3165 0.17274 0.41872 0.0
C912 C 0.32459 0.22155 0.41527 0.0
C913 C 0.32768 0.21569 0.38737 0.0
C914 C 0.32553 0.18807 0.37544 0.0
C915 C 0.32005 0.16689 0.39089 0.0
H916 H 0.50382 0.54341 0.94791 0.0
H917 H 0.51979 0.46433 0.90577 0.0
H918 H 0.46762 0.54537 0.91754 0.0
H919 H 0.48386 0.46621 0.87499 0.0
H920 H 0.43194 0.49641 0.811 0.0
H921 H 0.4699 0.49661 0.83924 0.0
H922 H 0.42479 0.5157 0.90988 0.0
H923 H 0.38687 0.51512 0.88188 0.0
C924 C 0.49962 0.52666 0.93187 0.0
C925 C 0.5143 0.50374 0.92895 0.0
C926 C 0.47898 0.52766 0.91465 0.0
C927 C 0.47298 0.50592 0.89397 0.0
C928 C 0.4882 0.48332 0.89064 0.0
C929 C 0.50858 0.48215 0.90817 0.0
C930 C 0.43016 0.50071 0.83255 0.0
C931 C 0.4064 0.50569 0.84422 0.0
C932 C 0.45184 0.50072 0.84867 0.0
C933 C 0.45024 0.50625 0.8767 0.0
C934 C 0.42658 0.51161 0.88831 0.0
C935 C 0.40486 0.51111 0.87227 0.0
H936 H 0.70203 0.74732 0.16108 0.0
H937 H 0.77058 0.74153 0.20593 0.0
H938 H 0.72209 0.72675 0.1201 0.0
H939 H 0.79113 0.72127 0.16492 0.0
H940 H 0.79864 0.64714 0.09733 0.0
H941 H 0.78466 0.67607 0.13697 0.0
H942 H 0.7558 0.73192 0.08696 0.0
H943 H 0.76962 0.70277 0.04712 0.0
C944 C 0.72164 0.74214 0.16189 0.0
C945 C 0.73483 0.74584 0.18644 0.0
C946 C 0.7332 0.73051 0.1385 0.0
C947 C 0.75818 0.72218 0.13925 0.0
C948 C 0.77177 0.72718 0.16372 0.0
C949 C 0.7602 0.73899 0.1871 0.0
C950 C 0.78956 0.66573 0.09474 0.0
C951 C 0.78508 0.6725 0.06901 0.0
C952 C 0.78171 0.68245 0.11753 0.0
C953 C 0.76906 0.70629 0.11515 0.0
C954 C 0.76528 0.71354 0.08945 0.0
C955 C 0.77329 0.6969 0.06664 0.0
H956 H 0.96168 0.00698 0.07023 0.0
H957 H 0.01887 0.03418 0.13093 0.0
H958 H 0.92928 0.00501 0.10484 0.0
H959 H 0.98668 0.03267 0.16576 0.0
H960 H 0.92762 1.00054 0.22216 0.0
H961 H 0.95954 1.00134 0.18737 0.0
H962 H 0.90621 0.03437 0.13712 0.0
H963 H 0.87402 0.03295 0.17175 0.0
C964 C 0.96719 0.0126 0.09106 0.0
C965 C 0.99266 0.02067 0.09803 0.0
C966 C 0.9487 0.01163 0.11089 0.0
C967 C 0.95528 0.01874 0.13818 0.0
C968 C 0.98092 0.02666 0.14504 0.0
C969 C 0.99938 0.02759 0.12517 0.0
C970 C 0.92265 0.00797 0.2037 0.0
C971 C 0.89818 0.01668 0.1998 0.0
C972 C 0.94105 0.00858 0.18376 0.0
C973 C 0.93555 0.01796 0.15937 0.0
C974 C 0.91106 0.02666 0.15548 0.0
C975 C 0.89261 0.02601 0.17543 0.0
H976 H 0.26597 0.79397 0.22822 0.0
H977 H 0.28465 0.72478 0.17143 0.0
H978 H 0.25976 0.82102 0.19113 0.0
H979 H 0.27861 0.75141 0.13456 0.0
H980 H 0.30475 0.81849 0.08532 0.0
H981 H 0.30563 0.79509 0.12432 0.0
H982 H 0.23016 0.81896 0.14511 0.0
H983 H 0.2289 0.84274 0.10504 0.0
C984 C 0.2686 0.78464 0.20777 0.0
C985 C 0.27585 0.75746 0.20247 0.0
C986 C 0.26484 0.79991 0.18664 0.0
C987 C 0.26868 0.78827 0.16001 0.0
C988 C 0.27556 0.76092 0.15489 0.0
C989 C 0.27902 0.74568 0.17588 0.0
C990 C 0.28817 0.819 0.09801 0.0
C991 C 0.26654 0.83232 0.09166 0.0
C992 C 0.28877 0.80545 0.12045 0.0
C993 C 0.26788 0.80486 0.13753 0.0
C994 C 0.24653 0.81908 0.13214 0.0
C995 C 0.24579 0.83262 0.10924 0.0
H996 H 0.03178 0.49388 0.09295 0.0
H997 H 0.99516 0.41737 0.11013 0.0
H998 H 0.0597 0.49559 0.1317 0.0
H999 H 0.02475 0.4172 0.14737 0.0
H1000 H 0.04919 0.44581 0.23327 0.0
H1001 H 0.02804 0.43928 0.19019 0.0
H1002 H 0.09206 0.48253 0.1569 0.0
H1003 H 0.11264 0.49056 0.20114 0.0
C1004 C 0.03016 0.47709 0.1048 0.0
C1005 C 0.0108 0.45599 0.09918 0.0
C1006 C 0.04643 0.47781 0.12686 0.0
C1007 C 0.04419 0.45693 0.14342 0.0
C1008 C 0.02649 0.43428 0.13588 0.0
C1009 C 0.00979 0.434 0.1142 0.0
C1010 C 0.05888 0.45385 0.21675 0.0
C1011 C 0.08261 0.46876 0.22067 0.0
C1012 C 0.04682 0.4498 0.19177 0.0
C1013 C 0.0583 0.46001 0.16961 0.0
C1014 C 0.08236 0.4746 0.17343 0.0
C1015 C 0.09426 0.47916 0.19877 0.0
H1016 H 0.30575 0.75719 0.30484 0.0
H1017 H 0.33101 0.68502 0.25694 0.0
H1018 H 0.34155 0.75722 0.33582 0.0
H1019 H 0.36743 0.68511 0.28748 0.0
H1020 H 0.42718 0.68889 0.35589 0.0
H1021 H 0.38565 0.68183 0.33256 0.0
H1022 H 0.38584 0.76931 0.33011 0.0
H1023 H 0.42638 0.77628 0.35328 0.0
C1024 C 0.31878 0.741 0.30136 0.0
C1025 C 0.31577 0.72117 0.27861 0.0
C1026 C 0.33941 0.74107 0.3189 0.0
C1027 C 0.35774 0.72146 0.31392 0.0
C1028 C 0.35368 0.70044 0.29206 0.0
C1029 C 0.33286 0.70032 0.27457 0.0
C1030 C 0.41812 0.70656 0.3506 0.0
C1031 C 0.43024 0.73313 0.35644 0.0
C1032 C 0.39441 0.70252 0.33712 0.0
C1033 C 0.38221 0.72502 0.32958 0.0
C1034 C 0.39425 0.7515 0.33598 0.0
C1035 C 0.41779 0.75547 0.34913 0.0
H1036 H 0.95576 0.38946 0.06009 0.0
H1037 H 0.02743 0.42992 0.0423 0.0
H1038 H 0.96688 0.34726 0.03233 0.0
H1039 H 0.03926 0.38754 0.01508 0.0
H1040 H 0.02236 0.33488 0.93255 0.0
H1041 H 0.0215 0.36959 0.97135 0.0
H1042 H 0.99321 0.3079 0.0193 0.0
H1043 H 0.99394 0.27259 0.97971 0.0
C1044 C 0.97435 0.38882 0.05101 0.0
C1045 C 0.99064 0.41284 0.0529 0.0
C1046 C 0.98081 0.36468 0.03519 0.0
C1047 C 0.00375 0.36415 0.02099 0.0
C1048 C 0.02121 0.38741 0.02533 0.0
C1049 C 0.01466 0.41158 0.04112 0.0
C1050 C 0.01618 0.3285 0.95138 0.0
C1051 C 0.0079 0.30097 0.95292 0.0
C1052 C 0.01601 0.34846 0.97382 0.0
C1053 C 0.00741 0.34161 0.99858 0.0
C1054 C 0.9999 0.31386 1.00049 0.0
C1055 C 1.00036 0.29364 0.97788 0.0
H1056 H 0.64495 0.73984 0.23007 0.0
H1057 H 0.69703 0.74573 0.29698 0.0
H1058 H 0.60921 0.73107 0.25965 0.0
H1059 H 0.66127 0.73825 0.3268 0.0
H1060 H 0.5859 0.77586 0.36519 0.0
H1061 H 0.62365 0.77269 0.33721 0.0
H1062 H 0.59221 0.69539 0.29505 0.0
H1063 H 0.55447 0.69815 0.32399 0.0
C1064 C 0.64874 0.73873 0.25099 0.0
C1065 C 0.67365 0.74375 0.26136 0.0
C1066 C 0.62836 0.73372 0.26788 0.0
C1067 C 0.63255 0.73406 0.29547 0.0
C1068 C 0.65757 0.73798 0.30561 0.0
C1069 C 0.67794 0.74246 0.28865 0.0
C1070 C 0.58731 0.7579 0.35033 0.0
C1071 C 0.56744 0.73719 0.34675 0.0
C1072 C 0.60889 0.75607 0.33439 0.0
C1073 C 0.61079 0.73381 0.31403 0.0
C1074 C 0.59114 0.71273 0.31068 0.0
C1075 C 0.56972 0.71421 0.32725 0.0
H1076 H 0.06765 0.07678 0.04276 0.0
H1077 H 0.01041 0.02757 0.99341 0.0
H1078 H 0.06864 0.11152 0.01221 0.0
H1079 H 0.0116 0.06164 0.96219 0.0
H1080 H 0.99173 0.1452 0.9389 0.0
H1081 H 0.99626 0.10638 0.96355 0.0
H1082 H 0.07743 0.12593 0.9696 0.0
H1083 H 0.07279 0.1651 0.9456 0.0
C1084 C 0.05618 0.07288 0.02461 0.0
C1085 C 0.0392 0.04947 0.02016 0.0
C1086 C 0.05652 0.09284 0.00716 0.0
C1087 C 0.03983 0.08974 0.98486 0.0
C1088 C 0.02428 0.06513 0.97942 0.0
C1089 C 0.02393 0.04532 0.99694 0.0
C1090 C 0.01055 0.14117 0.9454 0.0
C1091 C 0.03184 0.15845 0.94033 0.0
C1092 C 0.01322 0.1187 0.95938 0.0
C1093 C 0.03728 0.11281 0.96861 0.0
C1094 C 0.05858 0.12991 0.96316 0.0
C1095 C 0.0559 0.15239 0.94926 0.0
H1096 H 0.38616 0.3506 0.31966 0.0
H1097 H 0.34073 0.28081 0.27993 0.0
H1098 H 0.41795 0.34496 0.28421 0.0
H1099 H 0.37234 0.27491 0.2443 0.0
H1100 H 0.47484 0.31881 0.21691 0.0
H1101 H 0.44974 0.31453 0.25738 0.0
H1102 H 0.38064 0.30759 0.2101 0.0
H1103 H 0.40537 0.31213 0.17011 0.0
C1104 C 0.38365 0.33332 0.30387 0.0
C1105 C 0.36125 0.31599 0.30247 0.0
C1106 C 0.40172 0.33012 0.28354 0.0
C1107 C 0.39747 0.30971 0.26128 0.0
C1108 C 0.376 0.29099 0.26109 0.0
C1109 C 0.35809 0.29407 0.28158 0.0
C1110 C 0.4543 0.31625 0.21522 0.0
C1111 C 0.44212 0.31601 0.1903 0.0
C1112 C 0.43996 0.31379 0.23835 0.0
C1113 C 0.41323 0.31042 0.23687 0.0
C1114 C 0.4012 0.30966 0.21187 0.0
C1115 C 0.41541 0.31258 0.18896 0.0
H1116 H 0.55368 0.51078 0.03182 0.0
H1117 H 0.57029 0.43699 0.98051 0.0
H1118 H 0.54832 0.48457 0.06981 0.0
H1119 H 0.56525 0.41059 0.01821 0.0
H1120 H 0.49085 0.41621 0.09978 0.0
H1121 H 0.51151 0.44947 0.07373 0.0
H1122 H 0.57775 0.40204 0.0652 0.0
H1123 H 0.55708 0.36874 0.0917 0.0
C1124 C 0.55738 0.48918 0.02911 0.0
C1125 C 0.56252 0.47578 0.00352 0.0
C1126 C 0.55406 0.47413 0.05066 0.0
C1127 C 0.55612 0.44546 0.04694 0.0
C1128 C 0.56376 0.43265 0.02183 0.0
C1129 C 0.56673 0.44768 1.00026 0.0
C1130 C 0.51009 0.41325 0.09299 0.0
C1131 C 0.52225 0.38976 0.09764 0.0
C1132 C 0.52202 0.43242 0.07819 0.0
C1133 C 0.54625 0.42833 0.06732 0.0
C1134 C 0.55905 0.40567 0.07327 0.0
C1135 C 0.54726 0.3867 0.08854 0.0
H1136 H 0.68831 0.26768 0.22965 0.0
H1137 H 0.64352 0.19516 0.24515 0.0
H1138 H 0.6542 0.27938 0.20101 0.0
H1139 H 0.60889 0.20692 0.21735 0.0
H1140 H 0.55792 0.22448 0.15043 0.0
H1141 H 0.59491 0.2111 0.17328 0.0
H1142 H 0.61297 0.29614 0.20617 0.0
H1143 H 0.57651 0.30957 0.18255 0.0
C1144 C 0.67112 0.25421 0.22663 0.0
C1145 C 0.66835 0.23056 0.23931 0.0
C1146 C 0.65152 0.26093 0.2105 0.0
C1147 C 0.62866 0.24421 0.207 0.0
C1148 C 0.62631 0.22008 0.21924 0.0
C1149 C 0.64603 0.2133 0.23518 0.0
C1150 C 0.56987 0.24034 0.16244 0.0
C1151 C 0.56423 0.26809 0.16474 0.0
C1152 C 0.59103 0.23264 0.17566 0.0
C1153 C 0.60694 0.2525 0.19167 0.0
C1154 C 0.60142 0.28031 0.19368 0.0
C1155 C 0.58038 0.28802 0.18028 0.0
H1156 H 0.44881 0.14649 0.95032 0.0
H1157 H 0.45809 0.10753 0.02081 0.0
H1158 H 0.46554 0.19068 0.97488 0.0
H1159 H 0.47422 0.15148 0.04579 0.0
H1160 H 0.51054 0.23312 0.08305 0.0
H1161 H 0.5065 0.18996 0.05245 0.0
H1162 H 0.44572 0.22101 0.01013 0.0
H1163 H 0.44996 0.26409 0.04028 0.0
C1164 C 0.45507 0.14742 0.97092 0.0
C1165 C 0.45192 0.12407 0.98397 0.0
C1166 C 0.46438 0.17261 0.98505 0.0
C1167 C 0.47079 0.17469 0.01242 0.0
C1168 C 0.46957 0.15063 0.02474 0.0
C1169 C 0.46022 0.12554 0.01059 0.0
C1170 C 0.49653 0.23084 0.06702 0.0
C1171 C 0.48039 0.25197 0.06429 0.0
C1172 C 0.49419 0.2061 0.04952 0.0
C1173 C 0.47579 0.20202 0.02886 0.0
C1174 C 0.46036 0.22358 0.02556 0.0
C1175 C 0.46262 0.24822 0.04305 0.0
H1176 H 0.22021 0.31616 0.70749 0.0
H1177 H 0.28301 0.28554 0.74625 0.0
H1178 H 0.24309 0.36176 0.71059 0.0
H1179 H 0.30638 0.33087 0.74895 0.0
H1180 H 0.34384 0.41735 0.73796 0.0
H1181 H 0.32482 0.37112 0.72083 0.0
H1182 H 0.25347 0.39253 0.75712 0.0
H1183 H 0.27249 0.43803 0.77475 0.0
C1184 C 0.2394 0.31904 0.7156 0.0
C1185 C 0.25011 0.29758 0.72638 0.0
C1186 C 0.25239 0.34502 0.71756 0.0
C1187 C 0.27647 0.34981 0.73005 0.0
C1188 C 0.28799 0.32766 0.73895 0.0
C1189 C 0.27475 0.30179 0.73737 0.0
C1190 C 0.32399 0.41223 0.74185 0.0
C1191 C 0.30963 0.43118 0.75775 0.0
C1192 C 0.31318 0.38583 0.73216 0.0
C1193 C 0.28766 0.37836 0.73755 0.0
C1194 C 0.27308 0.39783 0.75239 0.0
C1195 C 0.28401 0.42381 0.76261 0.0
H1196 H 0.27316 0.71765 0.77814 0.0
H1197 H 0.20522 0.66566 0.78542 0.0
H1198 H 0.29938 0.67905 0.7836 0.0
H1199 H 0.23093 0.62716 0.791 0.0
H1200 H 0.33004 0.59052 0.7582 0.0
H1201 H 0.3073 0.63225 0.75642 0.0
H1202 H 0.26156 0.61341 0.82335 0.0
H1203 H 0.28384 0.57216 0.82515 0.0
C1204 C 0.26399 0.69806 0.78153 0.0
C1205 C 0.23736 0.69444 0.78175 0.0
C1206 C 0.27885 0.67596 0.78429 0.0
C1207 C 0.26722 0.65003 0.78765 0.0
C1208 C 0.24051 0.64689 0.7887 0.0
C1209 C 0.22577 0.66882 0.78561 0.0
C1210 C 0.31521 0.59539 0.77257 0.0
C1211 C 0.3087 0.57779 0.79165 0.0
C1212 C 0.30231 0.61936 0.77167 0.0
C1213 C 0.28253 0.62602 0.78968 0.0
C1214 C 0.27646 0.6087 0.809 0.0
C1215 C 0.28935 0.58501 0.81002 0.0
H1216 H 0.93249 0.50086 0.50617 0.0
H1217 H 0.8755 0.54632 0.47396 0.0
H1218 H 0.89986 0.46547 0.51477 0.0
H1219 H 0.84254 0.5107 0.48195 0.0
H1220 H 0.78813 0.45121 0.52291 0.0
H1221 H 0.81933 0.48901 0.51655 0.0
H1222 H 0.87373 0.42999 0.48837 0.0
H1223 H 0.84316 0.39267 0.49526 0.0
C1224 C 0.91288 0.50306 0.50087 0.0
C1225 C 0.90636 0.52596 0.48926 0.0
C1226 C 0.8942 0.48288 0.50567 0.0
C1227 C 0.86859 0.4851 0.49878 0.0
C1228 C 0.86202 0.50846 0.4877 0.0
C1229 C 0.88079 0.52874 0.48301 0.0
C1230 C 0.80676 0.4464 0.51534 0.0
C1231 C 0.8132 0.41893 0.50983 0.0
C1232 C 0.82459 0.46802 0.51161 0.0
C1233 C 0.84915 0.46252 0.50226 0.0
C1234 C 0.85525 0.43502 0.49623 0.0
C1235 C 0.83759 0.41356 0.50003 0.0
H1236 H 0.75884 0.83295 0.81469 0.0
H1237 H 0.80701 0.90542 0.84296 0.0
H1238 H 0.72249 0.86096 0.81319 0.0
H1239 H 0.77049 0.93394 0.84181 0.0
H1240 H 0.70246 0.97499 0.8063 0.0
H1241 H 0.74057 0.94988 0.8101 0.0
H1242 H 0.69565 0.88712 0.84473 0.0
H1243 H 0.65774 0.91171 0.8405 0.0
C1244 C 0.76144 0.85496 0.82081 0.0
C1245 C 0.78542 0.86714 0.82925 0.0
C1246 C 0.74071 0.871 0.82004 0.0
C1247 C 0.74352 0.89966 0.82772 0.0
C1248 C 0.76774 0.91195 0.8357 0.0
C1249 C 0.78855 0.89576 0.83647 0.0
C1250 C 0.70081 0.95596 0.81495 0.0
C1251 C 0.67701 0.94519 0.8228 0.0
C1252 C 0.72264 0.94163 0.8172 0.0
C1253 C 0.72105 0.91631 0.82737 0.0
C1254 C 0.69742 0.90624 0.83624 0.0
C1255 C 0.67569 0.92044 0.83393 0.0
H1256 H 0.58564 0.56315 0.99111 0.0
H1257 H 0.61107 0.48155 0.97135 0.0
H1258 H 0.62981 0.58237 0.99367 0.0
H1259 H 0.6554 0.50037 0.97461 0.0
H1260 H 0.71449 0.60721 0.00823 0.0
H1261 H 0.67189 0.5865 0.01525 0.0
H1262 H 0.68008 0.52687 0.945 0.0
H1263 H 0.72247 0.54715 0.9382 0.0
C1264 C 0.60084 0.54933 0.98809 0.0
C1265 C 0.59514 0.52099 0.9808 0.0
C1266 C 0.62611 0.56025 0.98962 0.0
C1267 C 0.64617 0.54296 0.98388 0.0
C1268 C 0.64039 0.51432 0.97863 0.0
C1269 C 0.6151 0.50346 0.97713 0.0
C1270 C 0.7072 0.58964 0.99434 0.0
C1271 C 0.72193 0.57894 0.97259 0.0
C1272 C 0.68278 0.57779 0.99835 0.0
C1273 C 0.67261 0.55487 0.98083 0.0
C1274 C 0.68745 0.54413 0.95923 0.0
C1275 C 0.71173 0.556 0.95515 0.0
H1276 H 0.24607 0.70217 0.28657 0.0
H1277 H 0.29129 0.65505 0.22878 0.0
H1278 H 0.22083 0.66039 0.29389 0.0
H1279 H 0.26723 0.61263 0.23679 0.0
H1280 H 0.19637 0.55296 0.22564 0.0
H1281 H 0.22693 0.59212 0.22457 0.0
H1282 H 0.21503 0.61762 0.30893 0.0
H1283 H 0.18348 0.57911 0.30954 0.0
C1284 C 0.25129 0.6825 0.27645 0.0
C1285 C 0.27069 0.68152 0.25747 0.0
C1286 C 0.23682 0.6585 0.28047 0.0
C1287 C 0.24162 0.63296 0.26563 0.0
C1288 C 0.26248 0.63191 0.24811 0.0
C1289 C 0.27665 0.65602 0.24386 0.0
C1290 C 0.20029 0.56693 0.24396 0.0
C1291 C 0.18732 0.56302 0.2676 0.0
C1292 C 0.21809 0.58931 0.24346 0.0
C1293 C 0.22372 0.60817 0.26672 0.0
C1294 C 0.21101 0.60389 0.29051 0.0
C1295 C 0.19292 0.58172 0.29089 0.0
H1296 H 0.96589 0.5026 0.018 0.0
H1297 H 0.91516 0.49232 0.08321 0.0
H1298 H 0.93687 0.53309 1.00066 0.0
H1299 H 0.88567 0.5226 0.06598 0.0
H1300 H 0.84837 0.59568 0.03722 0.0
H1301 H 0.8805 0.57071 0.05723 0.0
H1302 H 0.89468 0.52593 0.97944 0.0
H1303 H 0.86305 0.55083 0.95951 0.0
C1304 C 0.9485 0.50718 0.02861 0.0
C1305 C 0.94248 0.49532 0.05172 0.0
C1306 C 0.93187 0.52443 0.01874 0.0
C1307 C 0.90888 0.53014 0.03187 0.0
C1308 C 0.90331 0.51882 0.05556 0.0
C1309 C 0.91999 0.50146 0.06536 0.0
C1310 C 0.85853 0.58068 0.0244 0.0
C1311 C 0.8531 0.57524 0.99677 0.0
C1312 C 0.8768 0.56627 0.03588 0.0
C1313 C 0.89016 0.54638 0.01991 0.0
C1314 C 0.88501 0.54138 0.99226 0.0
C1315 C 0.86671 0.55556 0.98086 0.0
H1316 H 0.05739 0.98989 0.00563 0.0
H1317 H 0.09111 0.02357 0.08189 0.0
H1318 H 0.0953 0.96435 0.99435 0.0
H1319 H 0.12899 0.99828 0.07097 0.0
H1320 H 0.1742 0.9209 0.0587 0.0
H1321 H 0.13834 0.94981 0.06692 0.0
H1322 H 0.14124 0.96674 0.98512 0.0
H1323 H 0.17694 0.93768 0.97682 0.0
C1324 C 0.07329 0.99243 0.01959 0.0
C1325 C 0.07139 0.00859 0.04461 0.0
C1326 C 0.09494 0.97769 0.01329 0.0
C1327 C 0.11508 0.97878 0.03198 0.0
C1328 C 0.11367 0.99637 0.05635 0.0
C1329 C 0.09214 0.01113 0.06251 0.0
C1330 C 0.16716 0.93069 0.04243 0.0
C1331 C 0.17855 0.92688 0.0171 0.0
C1332 C 0.1467 0.9475 0.04719 0.0
C1333 C 0.13693 0.96085 0.02673 0.0
C1334 C 0.1481 0.95671 1.00131 0.0
C1335 C 0.16868 0.94007 0.9966 0.0
loop_
_geom_bond_atom_site_label_1
_geom_bond_atom_site_label_2
_geom_bond_distance
_geom_bond_site_symmetry_2
_ccdc_geom_bond_type
C0 N1 1.310 1_565 S
C0 N2 1.340 1_565 S
C0 C3 1.498 . S
N1 C0 1.310 1_545 S
N1 N5 1.370 . S
N2 C0 1.340 1_545 S
N2 C4 1.346 . S
C3 C0 1.498 . S
C3 H7 0.960 . S
C3 H8 0.961 . S
C3 H9 0.960 . S
C4 N2 1.346 . S
C4 N5 1.307 . S
C4 C6 1.486 1_455 S
N5 N1 1.370 . S
N5 C4 1.307 . S
C6 C4 1.486 1_655 S
C6 H10 0.960 . S
C6 H11 0.960 . S
C6 H12 0.959 . S
H7 C3 0.960 . S
H8 C3 0.961 . S
H9 C3 0.960 . S
H10 C6 0.960 . S
H11 C6 0.960 . S
H12 C6 0.959 . S
C13 N14 1.317 . S
C13 N15 1.348 . S
C13 C16 1.485 . S
N14 C13 1.317 . S
N14 N18 1.370 . S
N15 C13 1.348 . S
N15 C17 1.346 . S
C16 C13 1.485 . S
C16 H20 0.960 . S
C16 H21 0.961 . S
C16 H22 0.960 . S
C17 N15 1.346 . S
C17 N18 1.307 . S
C17 C19 1.486 . S
N18 N14 1.370 . S
N18 C17 1.307 . S
C19 C17 1.486 . S
C19 H23 0.960 . S
C19 H24 0.960 . S
C19 H25 0.959 . S
H20 C16 0.960 . S
H21 C16 0.961 . S
H22 C16 0.960 . S
H23 C19 0.960 . S
H24 C19 0.960 . S
H25 C19 0.959 . S
C26 N27 1.317 . S
C26 N28 1.348 . S
C26 C29 1.485 . S
N27 C26 1.317 . S
N27 N31 1.370 . S
N28 C26 1.348 . S
N28 C30 1.346 . S
C29 C26 1.485 . S
C29 H33 0.960 . S
C29 H34 0.961 . S
C29 H35 0.960 . S
C30 N28 1.346 . S
C30 N31 1.307 . S
C30 C32 1.486 . S
N31 N27 1.370 . S
N31 C30 1.307 . S
C32 C30 1.486 . S
C32 H36 0.960 . S
C32 H37 0.960 . S
C32 H38 0.959 . S
H33 C29 0.960 . S
H34 C29 0.961 . S
H35 C29 0.960 . S
H36 C32 0.960 . S
H37 C32 0.960 . S
H38 C32 0.959 . S
C39 N40 1.317 . S
C39 N41 1.348 . S
C39 C42 1.485 . S
N40 C39 1.317 . S
N40 N44 1.370 . S
N41 C39 1.348 . S
N41 C43 1.346 . S
C42 C39 1.485 . S
C42 H46 0.960 . S
C42 H47 0.961 . S
C42 H48 0.960 . S
C43 N41 1.346 . S
C43 N44 1.307 . S
C43 C45 1.486 . S
N44 N40 1.370 . S
N44 C43 1.307 . S
C45 C43 1.486 . S
C45 H49 0.960 . S
C45 H50 0.960 . S
C45 H51 0.959 . S
H46 C42 0.960 . S
H47 C42 0.961 . S
H48 C42 0.960 . S
H49 C45 0.960 . S
H50 C45 0.960 . S
H51 C45 0.959 . S
C52 N53 1.317 . S
C52 N54 1.348 . S
C52 C55 1.485 . S
N53 C52 1.317 . S
N53 N57 1.370 . S
N54 C52 1.348 . S
N54 C56 1.346 . S
C55 C52 1.485 . S
C55 H59 0.960 . S
C55 H60 0.922 1_455 S
C55 H61 0.960 . S
C56 N54 1.346 . S
C56 N57 1.307 . S
C56 C58 1.486 1_565 S
N57 N53 1.370 . S
N57 C56 1.307 . S
C58 C56 1.486 1_545 S
C58 H62 0.960 . S
C58 H63 0.960 1_545 S
C58 H64 0.959 . S
H59 C55 0.960 . S
H60 C55 0.922 1_655 S
H61 C55 0.960 . S
H62 C58 0.960 . S
H63 C58 0.960 1_565 S
H64 C58 0.959 . S
C65 N66 1.317 . S
C65 N67 1.348 . S
C65 C68 1.485 . S
N66 C65 1.317 . S
N66 N70 1.370 . S
N67 C65 1.348 . S
N67 C69 1.346 . S
C68 C65 1.485 . S
C68 H72 0.960 . S
C68 H73 0.961 . S
C68 H74 0.960 . S
C69 N67 1.346 . S
C69 N70 1.307 . S
C69 C71 1.486 . S
N70 N66 1.370 . S
N70 C69 1.307 . S
C71 C69 1.486 . S
C71 H75 0.960 . S
C71 H76 0.960 . S
C71 H77 0.959 . S
H72 C68 0.960 . S
H73 C68 0.961 . S
H74 C68 0.960 . S
H75 C71 0.960 . S
H76 C71 0.960 . S
H77 C71 0.959 . S
C78 N79 1.317 . S
C78 N80 1.348 . S
C78 C81 1.485 . S
N79 C78 1.317 . S
N79 N83 1.370 . S
N80 C78 1.348 . S
N80 C82 1.346 . S
C81 C78 1.485 . S
C81 H85 0.960 . S
C81 H86 0.961 . S
C81 H87 0.960 . S
C82 N80 1.346 . S
C82 N83 1.307 . S
C82 C84 1.486 . S
N83 N79 1.370 . S
N83 C82 1.307 . S
C84 C82 1.486 . S
C84 H88 0.960 . S
C84 H89 0.960 . S
C84 H90 0.959 . S
H85 C81 0.960 . S
H86 C81 0.961 . S
H87 C81 0.960 . S
H88 C84 0.960 . S
H89 C84 0.960 . S
H90 C84 0.959 . S
C91 N92 1.317 . S
C91 N93 1.348 . S
C91 C94 1.485 . S
N92 C91 1.317 . S
N92 N96 1.370 . S
N93 C91 1.348 . S
N93 C95 1.346 . S
C94 C91 1.485 . S
C94 H98 0.960 . S
C94 H99 0.961 . S
C94 H100 0.960 . S
C95 N93 1.346 . S
C95 N96 1.307 . S
C95 C97 1.486 . S
N96 N92 1.370 . S
N96 C95 1.307 . S
C97 C95 1.486 . S
C97 H101 0.960 . S
C97 H102 0.960 . S
C97 H103 0.959 . S
H98 C94 0.960 . S
H99 C94 0.961 . S
H100 C94 0.960 . S
H101 C97 0.960 . S
H102 C97 0.960 . S
H103 C97 0.959 . S
C104 N105 1.317 . S
C104 N106 1.348 . S
C104 C107 1.485 . S
N105 C104 1.317 . S
N105 N109 1.370 . S
N106 C104 1.348 . S
N106 C108 1.346 . S
C107 C104 1.485 . S
C107 H111 0.960 . S
C107 H112 0.961 . S
C107 H113 0.960 . S
C108 N106 1.346 . S
C108 N109 1.307 . S
C108 C110 1.486 . S
N109 N105 1.370 . S
N109 C108 1.307 . S
C110 C108 1.486 . S
C110 H114 0.960 . S
C110 H115 0.960 . S
C110 H116 0.959 . S
H111 C107 0.960 . S
H112 C107 0.961 . S
H113 C107 0.960 . S
H114 C110 0.960 . S
H115 C110 0.960 . S
H116 C110 0.959 . S
C117 N118 1.317 . S
C117 N119 1.348 . S
C117 C120 1.485 1_565 S
N118 C117 1.317 . S
N118 N122 1.370 . S
N119 C117 1.348 . S
N119 C121 1.346 . S
C120 C117 1.485 1_545 S
C120 H124 0.960 . S
C120 H125 0.961 . S
C120 H126 0.960 . S
C121 N119 1.346 . S
C121 N122 1.307 . S
C121 C123 1.486 . S
N122 N118 1.370 . S
N122 C121 1.307 . S
C123 C121 1.486 . S
C123 H127 0.960 . S
C123 H128 0.960 . S
C123 H129 0.959 . S
H124 C120 0.960 . S
H125 C120 0.961 . S
H126 C120 0.960 . S
H127 C123 0.960 . S
H128 C123 0.960 . S
H129 C123 0.959 . S
C130 N131 1.317 . S
C130 N132 1.348 . S
C130 C133 1.485 . S
N131 C130 1.317 . S
N131 N135 1.370 . S
N132 C130 1.348 . S
N132 C134 1.346 . S
C133 C130 1.485 . S
C133 H137 0.960 . S
C133 H138 0.961 . S
C133 H139 0.960 . S
C134 N132 1.346 . S
C134 N135 1.307 . S
C134 C136 1.486 . S
N135 N131 1.370 . S
N135 C134 1.307 . S
C136 C134 1.486 . S
C136 H140 0.960 . S
C136 H141 0.960 . S
C136 H142 0.959 . S
H137 C133 0.960 . S
H138 C133 0.961 . S
H139 C133 0.960 . S
H140 C136 0.960 . S
H141 C136 0.960 . S
H142 C136 0.959 . S
C143 N144 1.317 . S
C143 N145 1.348 . S
C143 C146 1.485 . S
N144 C143 1.317 . S
N144 N148 1.370 . S
N145 C143 1.348 . S
N145 C147 1.346 . S
C146 C143 1.485 . S
C146 H150 0.960 . S
C146 H151 0.961 . S
C146 H152 0.960 . S
C147 N145 1.346 . S
C147 N148 1.307 . S
C147 C149 1.486 . S
N148 N144 1.370 . S
N148 C147 1.307 . S
C149 C147 1.486 . S
C149 H153 0.960 . S
C149 H154 0.960 . S
C149 H155 0.959 . S
H150 C146 0.960 . S
H151 C146 0.961 . S
H152 C146 0.960 . S
H153 C149 0.960 . S
H154 C149 0.960 . S
H155 C149 0.959 . S
C156 N157 1.317 . S
C156 N158 1.348 . S
C156 C159 1.485 . S
N157 C156 1.317 . S
N157 N161 1.370 . S
N158 C156 1.348 . S
N158 C160 1.346 . S
C159 C156 1.485 . S
C159 H163 0.960 . S
C159 H164 0.961 . S
C159 H165 0.960 . S
C160 N158 1.346 . S
C160 N161 1.307 . S
C160 C162 1.486 . S
N161 N157 1.370 . S
N161 C160 1.307 . S
C162 C160 1.486 . S
C162 H166 0.960 . S
C162 H167 0.960 . S
C162 H168 0.959 . S
H163 C159 0.960 . S
H164 C159 0.961 . S
H165 C159 0.960 . S
H166 C162 0.960 . S
H167 C162 0.960 . S
H168 C162 0.959 . S
C169 N170 1.317 . S
C169 N171 1.348 . S
C169 C172 1.485 . S
N170 C169 1.317 . S
N170 N174 1.370 . S
N171 C169 1.348 . S
N171 C173 1.346 . S
C172 C169 1.485 . S
C172 H176 0.960 . S
C172 H177 0.961 . S
C172 H178 0.960 . S
C173 N171 1.346 . S
C173 N174 1.307 . S
C173 C175 1.486 . S
N174 N170 1.370 . S
N174 C173 1.307 . S
C175 C173 1.486 . S
C175 H179 0.960 . S
C175 H180 0.960 . S
C175 H181 0.959 . S
H176 C172 0.960 . S
H177 C172 0.961 . S
H178 C172 0.960 . S
H179 C175 0.960 . S
H180 C175 0.960 . S
H181 C175 0.959 . S
C182 N183 1.317 . S
C182 N184 1.348 . S
C182 C185 1.485 . S
N183 C182 1.317 . S
N183 N187 1.370 . S
N184 C182 1.348 . S
N184 C186 1.346 . S
C185 C182 1.485 . S
C185 H189 0.960 . S
C185 H190 0.961 . S
C185 H191 0.960 . S
C186 N184 1.346 . S
C186 N187 1.307 . S
C186 C188 1.486 . S
N187 N183 1.370 . S
N187 C186 1.307 . S
C188 C186 1.486 . S
C188 H192 0.960 . S
C188 H193 0.960 . S
C188 H194 0.959 . S
H189 C185 0.960 . S
H190 C185 0.961 . S
H191 C185 0.960 . S
H192 C188 0.960 . S
H193 C188 0.960 . S
H194 C188 0.959 . S
C195 N196 1.317 . S
C195 N197 1.348 . S
C195 C198 1.485 . S
N196 C195 1.317 . S
N196 N200 1.370 . S
N197 C195 1.348 . S
N197 C199 1.346 . S
C198 C195 1.485 . S
C198 H202 0.960 . S
C198 H203 0.961 . S
C198 H204 0.960 . S
C199 N197 1.346 . S
C199 N200 1.307 . S
C199 C201 1.486 . S
N200 N196 1.370 . S
N200 C199 1.307 . S
C201 C199 1.486 . S
C201 H205 0.960 1_556 S
C201 H206 0.960 . S
C201 H207 0.964 . S
H202 C198 0.960 . S
H203 C198 0.961 . S
H204 C198 0.960 . S
H205 C201 0.960 1_554 S
H206 C201 0.960 . S
H207 C201 0.964 . S
Zn208 O211 2.031 . S
Zn208 O213 2.049 1_554 S
Zn208 O218 2.067 1_554 S
Zn209 O210 1.962 . S
Zn209 O212 1.986 . S
Zn209 O214 1.996 . S
Zn209 O217 1.943 1_554 S
O210 Zn209 1.962 . S
O210 C215 1.254 . S
O211 Zn208 2.031 . S
O211 C215 1.269 . S
O212 Zn209 1.986 . S
O212 C219 1.262 . S
O213 Zn208 2.049 1_556 S
O213 C221 1.260 . S
O214 Zn209 1.996 . S
O214 C221 1.257 1_554 S
C215 O210 1.254 . S
C215 O211 1.269 . S
C216 O217 1.249 . S
C216 O218 1.270 . S
O217 Zn209 1.943 1_556 S
O217 C216 1.249 . S
O218 Zn208 2.067 1_556 S
O218 C216 1.270 . S
C219 O212 1.262 . S
C219 O220 1.232 . S
O220 C219 1.232 . S
C221 O213 1.260 . S
C221 O214 1.257 1_556 S
Zn222 O225 2.031 . S
Zn222 O227 2.049 . S
Zn222 O232 2.067 . S
Zn223 O224 1.962 . S
Zn223 O226 1.986 . S
Zn223 O228 1.996 . S
Zn223 O231 1.943 . S
O224 Zn223 1.962 . S
O224 C229 1.254 . S
O225 Zn222 2.031 . S
O225 C229 1.269 . S
O226 Zn223 1.986 . S
O226 C233 1.262 . S
O227 Zn222 2.049 . S
O227 C235 1.260 . S
O228 Zn223 1.996 . S
O228 C235 1.257 . S
C229 O224 1.254 . S
C229 O225 1.269 . S
C230 O231 1.249 . S
C230 O232 1.270 . S
O231 Zn223 1.943 . S
O231 C230 1.249 . S
O232 Zn222 2.067 . S
O232 C230 1.270 . S
C233 O226 1.262 . S
C233 O234 1.232 . S
O234 C233 1.232 . S
C235 O227 1.260 . S
C235 O228 1.257 . S
Zn236 O239 2.031 . S
Zn236 O241 2.049 . S
Zn236 O246 2.067 . S
Zn237 O238 1.962 . S
Zn237 O240 1.986 . S
Zn237 O242 1.996 1_554 S
Zn237 O245 1.943 . S
O238 Zn237 1.962 . S
O238 C243 1.254 . S
O239 Zn236 2.031 . S
O239 C243 1.269 1_556 S
O240 Zn237 1.986 . S
O240 C247 1.262 . S
O241 Zn236 2.049 . S
O241 C249 1.260 . S
O242 Zn237 1.996 1_556 S
O242 C249 1.257 . S
C243 O238 1.254 . S
C243 O239 1.269 1_554 S
C244 O245 1.249 1_556 S
C244 O246 1.270 . S
O245 Zn237 1.943 . S
O245 C244 1.249 1_554 S
O246 Zn236 2.067 . S
O246 C244 1.270 . S
C247 O240 1.262 . S
C247 O248 1.232 . S
O248 C247 1.232 . S
C249 O241 1.260 . S
C249 O242 1.257 . S
Zn250 O253 2.031 . S
Zn250 O255 2.049 1_545 S
Zn250 O260 2.067 1_545 S
Zn251 O252 1.962 . S
Zn251 O254 1.986 . S
Zn251 O256 1.996 . S
Zn251 O259 1.943 1_545 S
O252 Zn251 1.962 . S
O252 C257 1.254 . S
O253 Zn250 2.031 . S
O253 C257 1.269 . S
O254 Zn251 1.986 . S
O254 C261 1.262 . S
O255 Zn250 2.049 1_565 S
O255 C263 1.260 . S
O256 Zn251 1.996 . S
O256 C263 1.257 1_545 S
C257 O252 1.254 . S
C257 O253 1.269 . S
C258 O259 1.249 . S
C258 O260 1.270 . S
O259 Zn251 1.943 1_565 S
O259 C258 1.249 . S
O260 Zn250 2.067 1_565 S
O260 C258 1.270 . S
C261 O254 1.262 . S
C261 O262 1.232 . S
O262 C261 1.232 . S
C263 O255 1.260 . S
C263 O256 1.257 1_565 S
Zn264 O267 2.031 . S
Zn264 O269 2.049 . S
Zn264 O274 2.067 . S
Zn265 O266 1.962 . S
Zn265 O268 1.986 . S
Zn265 O270 1.996 . S
Zn265 O273 1.943 . S
O266 Zn265 1.962 . S
O266 C271 1.254 . S
O267 Zn264 2.031 . S
O267 C271 1.269 . S
O268 Zn265 1.986 . S
O268 C275 1.262 . S
O269 Zn264 2.049 . S
O269 C277 1.260 . S
O270 Zn265 1.996 . S
O270 C277 1.257 . S
C271 O266 1.254 . S
C271 O267 1.269 . S
C272 O273 1.249 . S
C272 O274 1.270 . S
O273 Zn265 1.943 . S
O273 C272 1.249 . S
O274 Zn264 2.067 . S
O274 C272 1.270 . S
C275 O268 1.262 . S
C275 O276 1.232 . S
O276 C275 1.232 . S
C277 O269 1.260 . S
C277 O270 1.257 . S
Zn278 O281 2.031 . S
Zn278 O283 2.049 . S
Zn278 O288 2.067 . S
Zn279 O280 1.962 . S
Zn279 O282 1.986 . S
Zn279 O284 1.996 . S
Zn279 O287 1.943 . S
O280 Zn279 1.962 . S
O280 C285 1.254 . S
O281 Zn278 2.031 . S
O281 C285 1.269 . S
O282 Zn279 1.986 . S
O282 C289 1.262 . S
O283 Zn278 2.049 . S
O283 C291 1.260 . S
O284 Zn279 1.996 . S
O284 C291 1.257 . S
C285 O280 1.254 . S
C285 O281 1.269 . S
C286 O287 1.249 . S
C286 O288 1.270 . S
O287 Zn279 1.943 . S
O287 C286 1.249 . S
O288 Zn278 2.067 . S
O288 C286 1.270 . S
C289 O282 1.262 . S
C289 O290 1.232 . S
O290 C289 1.232 . S
C291 O283 1.260 . S
C291 O284 1.257 . S
Zn292 O295 2.031 . S
Zn292 O297 2.049 . S
Zn292 O302 2.067 . S
Zn293 O294 1.962 . S
Zn293 O296 1.986 . S
Zn293 O298 1.996 . S
Zn293 O301 1.943 . S
O294 Zn293 1.962 . S
O294 C299 1.254 . S
O295 Zn292 2.031 . S
O295 C299 1.269 . S
O296 Zn293 1.986 . S
O296 C303 1.262 . S
O297 Zn292 2.049 . S
O297 C305 1.260 . S
O298 Zn293 1.996 . S
O298 C305 1.257 . S
C299 O294 1.254 . S
C299 O295 1.269 . S
C300 O301 1.249 . S
C300 O302 1.270 . S
O301 Zn293 1.943 . S
O301 C300 1.249 . S
O302 Zn292 2.067 . S
O302 C300 1.270 . S
C303 O296 1.262 . S
C303 O304 1.232 . S
O304 C303 1.232 . S
C305 O297 1.260 . S
C305 O298 1.257 . S
Zn306 O309 2.031 1_565 S
Zn306 O311 2.049 . S
Zn306 O316 2.067 . S
Zn307 O308 1.962 . S
Zn307 O310 1.986 . S
Zn307 O312 1.996 1_545 S
Zn307 O315 1.943 . S
O308 Zn307 1.962 . S
O308 C313 1.254 . S
O309 Zn306 2.031 1_545 S
O309 C313 1.269 . S
O310 Zn307 1.986 . S
O310 C317 1.262 . S
O311 Zn306 2.049 . S
O311 C319 1.260 . S
O312 Zn307 1.996 1_565 S
O312 C319 1.257 . S
C313 O308 1.254 . S
C313 O309 1.269 . S
C314 O315 1.249 1_565 S
C314 O316 1.270 . S
O315 Zn307 1.943 . S
O315 C314 1.249 1_545 S
O316 Zn306 2.067 . S
O316 C314 1.270 . S
C317 O310 1.262 . S
C317 O318 1.232 . S
O318 C317 1.232 . S
C319 O311 1.260 . S
C319 O312 1.257 . S
Zn320 O323 2.031 . S
Zn320 O325 2.049 1_455 S
Zn320 O330 2.067 1_455 S
Zn321 O322 1.962 . S
Zn321 O324 1.986 . S
Zn321 O326 1.996 . S
Zn321 O329 1.943 1_455 S
O322 Zn321 1.962 . S
O322 C327 1.254 . S
O323 Zn320 2.031 . S
O323 C327 1.269 . S
O324 Zn321 1.986 . S
O324 C331 1.262 . S
O325 Zn320 2.049 1_655 S
O325 C333 1.260 . S
O326 Zn321 1.996 . S
O326 C333 1.257 1_455 S
C327 O322 1.254 . S
C327 O323 1.269 . S
C328 O329 1.249 . S
C328 O330 1.270 . S
O329 Zn321 1.943 1_655 S
O329 C328 1.249 . S
O330 Zn320 2.067 1_655 S
O330 C328 1.270 . S
C331 O324 1.262 . S
C331 O332 1.232 . S
O332 C331 1.232 . S
C333 O325 1.260 . S
C333 O326 1.257 1_655 S
Zn334 O337 2.031 . S
Zn334 O339 2.049 . S
Zn334 O344 2.067 . S
Zn335 O336 1.962 . S
Zn335 O338 1.986 . S
Zn335 O340 1.996 . S
Zn335 O343 1.943 . S
O336 Zn335 1.962 . S
O336 C341 1.254 . S
O337 Zn334 2.031 . S
O337 C341 1.269 . S
O338 Zn335 1.986 . S
O338 C345 1.262 . S
O339 Zn334 2.049 . S
O339 C347 1.260 . S
O340 Zn335 1.996 . S
O340 C347 1.257 . S
C341 O336 1.254 . S
C341 O337 1.269 . S
C342 O343 1.249 . S
C342 O344 1.270 . S
O343 Zn335 1.943 . S
O343 C342 1.249 . S
O344 Zn334 2.067 . S
O344 C342 1.270 . S
C345 O338 1.262 . S
C345 O346 1.232 . S
O346 C345 1.232 . S
C347 O339 1.260 . S
C347 O340 1.257 . S
Zn348 O351 2.031 1_655 S
Zn348 O353 2.049 . S
Zn348 O358 2.067 . S
Zn349 O350 1.962 . S
Zn349 O352 1.986 . S
Zn349 O354 1.996 1_455 S
Zn349 O357 1.943 . S
O350 Zn349 1.962 . S
O350 C355 1.254 . S
O351 Zn348 2.031 1_455 S
O351 C355 1.269 . S
O352 Zn349 1.986 . S
O352 C359 1.262 . S
O353 Zn348 2.049 . S
O353 C361 1.260 . S
O354 Zn349 1.996 1_655 S
O354 C361 1.257 . S
C355 O350 1.254 . S
C355 O351 1.269 . S
C356 O357 1.249 . S
C356 O358 1.270 1_455 S
O357 Zn349 1.943 . S
O357 C356 1.249 . S
O358 Zn348 2.067 . S
O358 C356 1.270 1_655 S
C359 O352 1.262 . S
C359 O360 1.232 . S
O360 C359 1.232 . S
C361 O353 1.260 . S
C361 O354 1.257 . S
Zn362 O365 2.031 . S
Zn362 O367 2.049 . S
Zn362 O372 2.067 . S
Zn363 O364 1.962 . S
Zn363 O366 1.986 . S
Zn363 O368 1.996 . S
Zn363 O371 1.943 . S
O364 Zn363 1.962 . S
O364 C369 1.254 . S
O365 Zn362 2.031 . S
O365 C369 1.269 . S
O366 Zn363 1.986 . S
O366 C373 1.262 . S
O367 Zn362 2.049 . S
O367 C375 1.260 . S
O368 Zn363 1.996 . S
O368 C375 1.257 . S
C369 O364 1.254 . S
C369 O365 1.269 . S
C370 O371 1.249 . S
C370 O372 1.270 . S
O371 Zn363 1.943 . S
O371 C370 1.249 . S
O372 Zn362 2.067 . S
O372 C370 1.270 . S
C373 O366 1.262 . S
C373 O374 1.232 . S
O374 C373 1.232 . S
C375 O367 1.260 . S
C375 O368 1.257 . S
H376 C384 0.950 . S
H377 C389 0.950 . S
H378 C386 0.950 . S
H379 C388 0.950 . S
H380 C390 0.950 . S
H381 C392 0.950 . S
H382 C394 0.950 . S
H383 C395 0.950 . S
C384 H376 0.950 . S
C384 C385 1.386 . S
C384 C386 1.391 . S
C385 C384 1.386 . S
C385 C389 1.393 . S
C386 H378 0.950 . S
C386 C384 1.391 . S
C386 C387 1.400 . S
C387 C386 1.400 . S
C387 C388 1.398 . S
C387 C393 1.491 . S
C388 H379 0.950 . S
C388 C387 1.398 . S
C388 C389 1.391 . S
C389 H377 0.950 . S
C389 C385 1.393 . S
C389 C388 1.391 . S
C390 H380 0.950 . S
C390 C391 1.386 . S
C390 C392 1.391 . S
C391 C390 1.386 . S
C391 C395 1.393 . S
C392 H381 0.950 . S
C392 C390 1.391 . S
C392 C393 1.400 . S
C393 C387 1.491 . S
C393 C392 1.400 . S
C393 C394 1.398 . S
C394 H382 0.950 . S
C394 C393 1.398 . S
C394 C395 1.391 . S
C395 H383 0.950 . S
C395 C391 1.393 . S
C395 C394 1.391 . S
H396 C404 0.950 . S
H397 C409 0.950 . S
H398 C406 0.950 . S
H399 C408 0.950 . S
H400 C410 0.950 . S
H401 C412 0.950 . S
H402 C414 0.950 . S
H403 C415 0.950 . S
C404 H396 0.950 . S
C404 C405 1.386 . S
C404 C406 1.391 1_655 S
C405 C404 1.386 . S
C405 C409 1.359 1_655 S
C406 H398 0.950 . S
C406 C404 1.391 1_455 S
C406 C407 1.400 . S
C407 C406 1.400 . S
C407 C408 1.398 . S
C407 C413 1.491 . S
C408 H399 0.950 . S
C408 C407 1.398 . S
C408 C409 1.425 . S
C409 H397 0.950 . S
C409 C405 1.359 1_455 S
C409 C408 1.425 . S
C410 H400 0.950 . S
C410 C411 1.386 . S
C410 C412 1.391 . S
C411 C410 1.386 . S
C411 C415 1.393 . S
C412 H401 0.950 . S
C412 C410 1.391 . S
C412 C413 1.400 . S
C413 C407 1.491 . S
C413 C412 1.400 . S
C413 C414 1.398 . S
C414 H402 0.950 . S
C414 C413 1.398 . S
C414 C415 1.391 . S
C415 H403 0.950 . S
C415 C411 1.393 . S
C415 C414 1.391 . S
H416 C424 0.950 . S
H417 C429 0.950 . S
H418 C426 0.950 . S
H419 C428 0.950 . S
H420 C430 0.950 . S
H421 C432 0.950 . S
H422 C434 0.950 . S
H423 C435 0.950 . S
C424 H416 0.950 . S
C424 C425 1.386 . S
C424 C426 1.391 . S
C425 C424 1.386 . S
C425 C429 1.393 . S
C426 H418 0.950 . S
C426 C424 1.391 . S
C426 C427 1.400 . S
C427 C426 1.400 . S
C427 C428 1.398 . S
C427 C433 1.491 . S
C428 H419 0.950 . S
C428 C427 1.398 . S
C428 C429 1.391 . S
C429 H417 0.950 . S
C429 C425 1.393 . S
C429 C428 1.391 . S
C430 H420 0.950 . S
C430 C431 1.386 . S
C430 C432 1.391 . S
C431 C430 1.386 . S
C431 C435 1.393 . S
C432 H421 0.950 . S
C432 C430 1.391 . S
C432 C433 1.400 . S
C433 C427 1.491 . S
C433 C432 1.400 . S
C433 C434 1.398 . S
C434 H422 0.950 . S
C434 C433 1.398 . S
C434 C435 1.391 . S
C435 H423 0.950 . S
C435 C431 1.393 . S
C435 C434 1.391 . S
H436 C444 0.950 . S
H437 C449 0.950 . S
H438 C446 0.950 . S
H439 C448 0.950 . S
H440 C450 0.950 . S
H441 C452 0.950 . S
H442 C454 0.950 . S
H443 C455 0.950 . S
C444 H436 0.950 . S
C444 C445 1.386 . S
C444 C446 1.391 . S
C445 C444 1.386 . S
C445 C449 1.393 1_455 S
C446 H438 0.950 . S
C446 C444 1.391 . S
C446 C447 1.400 1_455 S
C447 C446 1.400 1_655 S
C447 C448 1.398 . S
C447 C453 1.491 . S
C448 H439 0.950 . S
C448 C447 1.398 . S
C448 C449 1.391 . S
C449 H437 0.950 . S
C449 C445 1.393 1_655 S
C449 C448 1.391 . S
C450 H440 0.950 . S
C450 C451 1.386 . S
C450 C452 1.391 . S
C451 C450 1.386 . S
C451 C455 1.393 . S
C452 H441 0.950 . S
C452 C450 1.391 . S
C452 C453 1.400 . S
C453 C447 1.491 . S
C453 C452 1.400 . S
C453 C454 1.398 . S
C454 H442 0.950 . S
C454 C453 1.398 . S
C454 C455 1.391 . S
C455 H443 0.950 . S
C455 C451 1.393 . S
C455 C454 1.391 . S
H456 C464 0.950 . S
H457 C469 0.950 . S
H458 C466 0.950 . S
H459 C468 0.950 . S
H460 C470 0.950 . S
H461 C472 0.950 . S
H462 C474 0.950 . S
H463 C475 0.950 . S
C464 H456 0.950 . S
C464 C465 1.386 . S
C464 C466 1.391 . S
C465 C464 1.386 . S
C465 C469 1.393 . S
C466 H458 0.950 . S
C466 C464 1.391 . S
C466 C467 1.400 . S
C467 C466 1.400 . S
C467 C468 1.398 . S
C467 C473 1.491 . S
C468 H459 0.950 . S
C468 C467 1.398 . S
C468 C469 1.391 . S
C469 H457 0.950 . S
C469 C465 1.393 . S
C469 C468 1.391 . S
C470 H460 0.950 . S
C470 C471 1.386 . S
C470 C472 1.391 . S
C471 C470 1.386 . S
C471 C475 1.393 . S
C472 H461 0.950 . S
C472 C470 1.391 . S
C472 C473 1.400 . S
C473 C467 1.491 . S
C473 C472 1.400 . S
C473 C474 1.398 . S
C474 H462 0.950 . S
C474 C473 1.398 . S
C474 C475 1.391 . S
C475 H463 0.950 . S
C475 C471 1.393 . S
C475 C474 1.391 . S
H476 C484 0.950 . S
H477 C489 0.950 . S
H478 C486 0.950 . S
H479 C488 0.950 . S
H480 C490 0.950 . S
H481 C492 0.950 . S
H482 C494 0.950 . S
H483 C495 0.950 . S
C484 H476 0.950 . S
C484 C485 1.386 . S
C484 C486 1.391 . S
C485 C484 1.386 . S
C485 C489 1.393 . S
C486 H478 0.950 . S
C486 C484 1.391 . S
C486 C487 1.400 . S
C487 C486 1.400 . S
C487 C488 1.398 . S
C487 C493 1.491 . S
C488 H479 0.950 . S
C488 C487 1.398 . S
C488 C489 1.391 . S
C489 H477 0.950 . S
C489 C485 1.393 . S
C489 C488 1.391 . S
C490 H480 0.950 . S
C490 C491 1.386 . S
C490 C492 1.391 . S
C491 C490 1.386 . S
C491 C495 1.393 . S
C492 H481 0.950 . S
C492 C490 1.391 . S
C492 C493 1.400 . S
C493 C487 1.491 . S
C493 C492 1.400 . S
C493 C494 1.398 . S
C494 H482 0.950 . S
C494 C493 1.398 . S
C494 C495 1.391 . S
C495 H483 0.950 . S
C495 C491 1.393 . S
C495 C494 1.391 . S
H496 C504 0.950 . S
H497 C509 0.950 . S
H498 C506 0.950 . S
H499 C508 0.950 . S
H500 C510 0.950 . S
H501 C512 0.950 . S
H502 C514 0.950 . S
H503 C515 0.950 . S
C504 H496 0.950 . S
C504 C505 1.386 . S
C504 C506 1.391 . S
C505 C504 1.386 . S
C505 C509 1.393 . S
C506 H498 0.950 . S
C506 C504 1.391 . S
C506 C507 1.400 . S
C507 C506 1.400 . S
C507 C508 1.398 . S
C507 C513 1.491 . S
C508 H499 0.950 . S
C508 C507 1.398 . S
C508 C509 1.391 . S
C509 H497 0.950 . S
C509 C505 1.393 . S
C509 C508 1.391 . S
C510 H500 0.950 . S
C510 C511 1.386 . S
C510 C512 1.391 . S
C511 C510 1.386 . S
C511 C515 1.393 . S
C512 H501 0.950 . S
C512 C510 1.391 . S
C512 C513 1.400 . S
C513 C507 1.491 . S
C513 C512 1.400 . S
C513 C514 1.398 . S
C514 H502 0.950 . S
C514 C513 1.398 . S
C514 C515 1.391 . S
C515 H503 0.950 . S
C515 C511 1.393 . S
C515 C514 1.391 . S
H516 C524 0.950 1_545 S
H517 C529 0.950 . S
H518 C526 0.950 1_545 S
H519 C528 0.950 . S
H520 C530 0.950 . S
H521 C532 0.950 . S
H522 C534 0.950 . S
H523 C535 0.950 . S
C524 H516 0.950 1_565 S
C524 C525 1.386 . S
C524 C526 1.391 . S
C525 C524 1.386 . S
C525 C529 1.393 . S
C526 H518 0.950 1_565 S
C526 C524 1.391 . S
C526 C527 1.400 . S
C527 C526 1.400 . S
C527 C528 1.398 . S
C527 C533 1.491 . S
C528 H519 0.950 . S
C528 C527 1.398 . S
C528 C529 1.391 . S
C529 H517 0.950 . S
C529 C525 1.393 . S
C529 C528 1.391 . S
C530 H520 0.950 . S
C530 C531 1.386 . S
C530 C532 1.391 . S
C531 C530 1.386 . S
C531 C535 1.393 1_565 S
C532 H521 0.950 . S
C532 C530 1.391 . S
C532 C533 1.400 . S
C533 C527 1.491 . S
C533 C532 1.400 . S
C533 C534 1.398 1_565 S
C534 H522 0.950 . S
C534 C533 1.398 1_545 S
C534 C535 1.391 . S
C535 H523 0.950 . S
C535 C531 1.393 1_545 S
C535 C534 1.391 . S
H536 C544 0.950 . S
H537 C549 0.950 . S
H538 C546 0.950 . S
H539 C548 0.950 . S
H540 C550 0.950 . S
H541 C552 0.950 . S
H542 C554 0.950 . S
H543 C555 0.950 . S
C544 H536 0.950 . S
C544 C545 1.386 . S
C544 C546 1.391 . S
C545 C544 1.386 . S
C545 C549 1.393 . S
C546 H538 0.950 . S
C546 C544 1.391 . S
C546 C547 1.400 . S
C547 C546 1.400 . S
C547 C548 1.398 . S
C547 C553 1.491 . S
C548 H539 0.950 . S
C548 C547 1.398 . S
C548 C549 1.391 . S
C549 H537 0.950 . S
C549 C545 1.393 . S
C549 C548 1.391 . S
C550 H540 0.950 . S
C550 C551 1.386 . S
C550 C552 1.391 . S
C551 C550 1.386 . S
C551 C555 1.393 . S
C552 H541 0.950 . S
C552 C550 1.391 . S
C552 C553 1.400 . S
C553 C547 1.491 . S
C553 C552 1.400 . S
C553 C554 1.398 . S
C554 H542 0.950 . S
C554 C553 1.398 . S
C554 C555 1.391 . S
C555 H543 0.950 . S
C555 C551 1.393 . S
C555 C554 1.391 . S
H556 C564 0.950 . S
H557 C569 0.950 . S
H558 C566 0.950 . S
H559 C568 0.950 . S
H560 C570 0.950 . S
H561 C572 0.950 . S
H562 C574 0.950 . S
H563 C575 0.950 . S
C564 H556 0.950 . S
C564 C565 1.386 . S
C564 C566 1.391 . S
C565 C564 1.386 . S
C565 C569 1.393 . S
C566 H558 0.950 . S
C566 C564 1.391 . S
C566 C567 1.400 . S
C567 C566 1.400 . S
C567 C568 1.398 . S
C567 C573 1.491 . S
C568 H559 0.950 . S
C568 C567 1.398 . S
C568 C569 1.391 . S
C569 H557 0.950 . S
C569 C565 1.393 . S
C569 C568 1.391 . S
C570 H560 0.950 . S
C570 C571 1.386 . S
C570 C572 1.391 . S
C571 C570 1.386 . S
C571 C575 1.393 . S
C572 H561 0.950 . S
C572 C570 1.391 . S
C572 C573 1.400 . S
C573 C567 1.491 . S
C573 C572 1.400 . S
C573 C574 1.398 . S
C574 H562 0.950 . S
C574 C573 1.398 . S
C574 C575 1.391 . S
C575 H563 0.950 . S
C575 C571 1.393 . S
C575 C574 1.391 . S
H576 C584 0.950 . S
H577 C589 0.950 . S
H578 C586 0.950 . S
H579 C588 0.950 . S
H580 C590 0.950 . S
H581 C592 0.950 . S
H582 C594 0.950 . S
H583 C595 0.950 . S
C584 H576 0.950 . S
C584 C585 1.386 . S
C584 C586 1.391 . S
C585 C584 1.386 . S
C585 C589 1.393 . S
C586 H578 0.950 . S
C586 C584 1.391 . S
C586 C587 1.400 . S
C587 C586 1.400 . S
C587 C588 1.398 . S
C587 C593 1.491 . S
C588 H579 0.950 . S
C588 C587 1.398 . S
C588 C589 1.391 . S
C589 H577 0.950 . S
C589 C585 1.393 . S
C589 C588 1.391 . S
C590 H580 0.950 . S
C590 C591 1.386 . S
C590 C592 1.391 . S
C591 C590 1.386 . S
C591 C595 1.393 . S
C592 H581 0.950 . S
C592 C590 1.391 . S
C592 C593 1.400 . S
C593 C587 1.491 . S
C593 C592 1.400 . S
C593 C594 1.398 . S
C594 H582 0.950 . S
C594 C593 1.398 . S
C594 C595 1.391 . S
C595 H583 0.950 . S
C595 C591 1.393 . S
C595 C594 1.391 . S
H596 C604 0.950 . S
H597 C609 0.950 . S
H598 C606 0.950 . S
H599 C608 0.950 . S
H600 C610 0.950 . S
H601 C612 0.950 . S
H602 C614 0.950 . S
H603 C615 0.950 . S
C604 H596 0.950 . S
C604 C605 1.386 . S
C604 C606 1.391 . S
C605 C604 1.386 . S
C605 C609 1.393 . S
C606 H598 0.950 . S
C606 C604 1.391 . S
C606 C607 1.400 . S
C607 C606 1.400 . S
C607 C608 1.398 . S
C607 C613 1.491 . S
C608 H599 0.950 . S
C608 C607 1.398 . S
C608 C609 1.391 . S
C609 H597 0.950 . S
C609 C605 1.393 . S
C609 C608 1.391 . S
C610 H600 0.950 . S
C610 C611 1.386 . S
C610 C612 1.391 . S
C611 C610 1.386 . S
C611 C615 1.393 . S
C612 H601 0.950 . S
C612 C610 1.391 . S
C612 C613 1.400 . S
C613 C607 1.491 . S
C613 C612 1.400 . S
C613 C614 1.398 . S
C614 H602 0.950 . S
C614 C613 1.398 . S
C614 C615 1.391 . S
C615 H603 0.950 . S
C615 C611 1.393 . S
C615 C614 1.391 . S
H616 C624 0.950 . S
H617 C629 0.950 . S
H618 C626 0.950 . S
H619 C628 0.950 . S
H620 C630 0.950 . S
H621 C632 0.950 . S
H622 C634 0.950 . S
H623 C635 0.950 . S
C624 H616 0.950 . S
C624 C625 1.386 . S
C624 C626 1.391 . S
C625 C624 1.386 . S
C625 C629 1.393 . S
C626 H618 0.950 . S
C626 C624 1.391 . S
C626 C627 1.400 . S
C627 C626 1.400 . S
C627 C628 1.398 . S
C627 C633 1.491 . S
C628 H619 0.950 . S
C628 C627 1.398 . S
C628 C629 1.391 . S
C629 H617 0.950 . S
C629 C625 1.393 . S
C629 C628 1.391 . S
C630 H620 0.950 . S
C630 C631 1.386 . S
C630 C632 1.391 . S
C631 C630 1.386 . S
C631 C635 1.393 . S
C632 H621 0.950 . S
C632 C630 1.391 . S
C632 C633 1.400 . S
C633 C627 1.491 . S
C633 C632 1.400 . S
C633 C634 1.398 . S
C634 H622 0.950 . S
C634 C633 1.398 . S
C634 C635 1.391 . S
C635 H623 0.950 . S
C635 C631 1.393 . S
C635 C634 1.391 . S
H636 C644 0.950 . S
H637 C649 0.950 . S
H638 C646 0.950 . S
H639 C648 0.950 . S
H640 C650 0.952 1_655 S
H641 C652 0.950 . S
H642 C654 0.950 . S
H643 C655 0.950 . S
C644 H636 0.950 . S
C644 C645 1.386 . S
C644 C646 1.391 . S
C645 C644 1.386 . S
C645 C649 1.393 . S
C646 H638 0.950 . S
C646 C644 1.391 . S
C646 C647 1.400 . S
C647 C646 1.400 . S
C647 C648 1.398 . S
C647 C653 1.491 . S
C648 H639 0.950 . S
C648 C647 1.398 . S
C648 C649 1.391 . S
C649 H637 0.950 . S
C649 C645 1.393 . S
C649 C648 1.391 . S
C650 H640 0.952 1_455 S
C650 C651 1.386 . S
C650 C652 1.391 . S
C651 C650 1.386 . S
C651 C655 1.393 . S
C652 H641 0.950 . S
C652 C650 1.391 . S
C652 C653 1.400 . S
C653 C647 1.491 . S
C653 C652 1.400 . S
C653 C654 1.398 . S
C654 H642 0.950 . S
C654 C653 1.398 . S
C654 C655 1.391 . S
C655 H643 0.950 . S
C655 C651 1.393 . S
C655 C654 1.391 . S
H656 C664 0.950 . S
H657 C669 0.950 . S
H658 C666 0.950 . S
H659 C668 0.950 . S
H660 C670 0.950 . S
H661 C672 0.950 . S
H662 C674 0.950 . S
H663 C675 0.950 . S
C664 H656 0.950 . S
C664 C665 1.386 . S
C664 C666 1.391 . S
C665 C664 1.386 . S
C665 C669 1.393 . S
C666 H658 0.950 . S
C666 C664 1.391 . S
C666 C667 1.400 . S
C667 C666 1.400 . S
C667 C668 1.398 . S
C667 C673 1.491 . S
C668 H659 0.950 . S
C668 C667 1.398 . S
C668 C669 1.391 . S
C669 H657 0.950 . S
C669 C665 1.393 . S
C669 C668 1.391 . S
C670 H660 0.950 . S
C670 C671 1.386 . S
C670 C672 1.391 . S
C671 C670 1.386 . S
C671 C675 1.393 . S
C672 H661 0.950 . S
C672 C670 1.391 . S
C672 C673 1.400 . S
C673 C667 1.491 . S
C673 C672 1.400 . S
C673 C674 1.398 . S
C674 H662 0.950 . S
C674 C673 1.398 . S
C674 C675 1.391 . S
C675 H663 0.950 . S
C675 C671 1.393 . S
C675 C674 1.391 . S
H676 C684 0.950 . S
H677 C689 0.950 . S
H678 C686 0.950 . S
H679 C688 0.954 . S
H680 C690 0.950 . S
H681 C692 0.950 . S
H682 C694 0.950 . S
H683 C695 0.950 . S
C684 H676 0.950 . S
C684 C685 1.386 . S
C684 C686 1.391 . S
C685 C684 1.386 . S
C685 C689 1.393 . S
C686 H678 0.950 . S
C686 C684 1.391 . S
C686 C687 1.400 . S
C687 C686 1.400 . S
C687 C688 1.398 . S
C687 C693 1.491 . S
C688 H679 0.954 . S
C688 C687 1.398 . S
C688 C689 1.391 . S
C689 H677 0.950 . S
C689 C685 1.393 . S
C689 C688 1.391 . S
C690 H680 0.950 . S
C690 C691 1.388 . S
C690 C692 1.391 . S
C691 C690 1.388 . S
C691 C695 1.389 1_455 S
C692 H681 0.950 . S
C692 C690 1.391 . S
C692 C693 1.400 1_455 S
C693 C687 1.491 . S
C693 C692 1.400 1_655 S
C693 C694 1.398 . S
C694 H682 0.950 . S
C694 C693 1.398 . S
C694 C695 1.391 . S
C695 H683 0.950 . S
C695 C691 1.389 1_655 S
C695 C694 1.391 . S
H696 C704 0.950 . S
H697 C709 0.950 . S
H698 C706 0.950 . S
H699 C708 0.950 . S
H700 C710 0.950 . S
H701 C712 0.950 . S
H702 C714 0.950 . S
H703 C715 0.950 . S
C704 H696 0.950 . S
C704 C705 1.386 . S
C704 C706 1.391 . S
C705 C704 1.386 . S
C705 C709 1.393 . S
C706 H698 0.950 . S
C706 C704 1.391 . S
C706 C707 1.400 . S
C707 C706 1.400 . S
C707 C708 1.398 . S
C707 C713 1.491 . S
C708 H699 0.950 . S
C708 C707 1.398 . S
C708 C709 1.391 . S
C709 H697 0.950 . S
C709 C705 1.393 . S
C709 C708 1.391 . S
C710 H700 0.950 . S
C710 C711 1.386 . S
C710 C712 1.391 . S
C711 C710 1.386 . S
C711 C715 1.393 . S
C712 H701 0.950 . S
C712 C710 1.391 . S
C712 C713 1.400 . S
C713 C707 1.491 . S
C713 C712 1.400 . S
C713 C714 1.398 . S
C714 H702 0.950 . S
C714 C713 1.398 . S
C714 C715 1.391 . S
C715 H703 0.950 . S
C715 C711 1.393 . S
C715 C714 1.391 . S
H716 C724 0.950 . S
H717 C729 0.950 . S
H718 C726 0.950 . S
H719 C728 0.950 . S
H720 C730 0.950 . S
H721 C732 0.950 . S
H722 C734 0.950 . S
H723 C735 0.950 . S
C724 H716 0.950 . S
C724 C725 1.386 . S
C724 C726 1.391 . S
C725 C724 1.386 . S
C725 C729 1.393 . S
C726 H718 0.950 . S
C726 C724 1.391 . S
C726 C727 1.400 . S
C727 C726 1.400 . S
C727 C728 1.398 . S
C727 C733 1.491 . S
C728 H719 0.950 . S
C728 C727 1.398 . S
C728 C729 1.391 . S
C729 H717 0.950 . S
C729 C725 1.393 . S
C729 C728 1.391 . S
C730 H720 0.950 . S
C730 C731 1.386 . S
C730 C732 1.391 . S
C731 C730 1.386 . S
C731 C735 1.393 . S
C732 H721 0.950 . S
C732 C730 1.391 . S
C732 C733 1.400 . S
C733 C727 1.491 . S
C733 C732 1.400 . S
C733 C734 1.398 . S
C734 H722 0.950 . S
C734 C733 1.398 . S
C734 C735 1.391 . S
C735 H723 0.950 . S
C735 C731 1.393 . S
C735 C734 1.391 . S
H736 C744 0.950 . S
H737 C749 0.950 . S
H738 C746 0.950 . S
H739 C748 0.950 . S
H740 C750 0.950 . S
H741 C752 0.950 . S
H742 C754 0.950 . S
H743 C755 0.950 1_554 S
C744 H736 0.950 . S
C744 C745 1.386 . S
C744 C746 1.391 1_545 S
C745 C744 1.386 . S
C745 C749 1.393 . S
C746 H738 0.950 . S
C746 C744 1.391 1_565 S
C746 C747 1.400 . S
C747 C746 1.400 . S
C747 C748 1.398 1_565 S
C747 C753 1.491 . S
C748 H739 0.950 . S
C748 C747 1.398 1_545 S
C748 C749 1.391 . S
C749 H737 0.950 . S
C749 C745 1.393 . S
C749 C748 1.391 . S
C750 H740 0.950 . S
C750 C751 1.386 . S
C750 C752 1.391 . S
C751 C750 1.386 . S
C751 C755 1.393 . S
C752 H741 0.950 . S
C752 C750 1.391 . S
C752 C753 1.400 . S
C753 C747 1.491 . S
C753 C752 1.400 . S
C753 C754 1.398 . S
C754 H742 0.950 . S
C754 C753 1.398 . S
C754 C755 1.391 . S
C755 H743 0.950 1_556 S
C755 C751 1.393 . S
C755 C754 1.391 . S
H756 C764 0.950 . S
H757 C769 0.950 . S
H758 C766 0.950 . S
H759 C768 0.950 . S
H760 C770 0.950 . S
H761 C772 0.950 . S
H762 C774 0.950 . S
H763 C775 0.950 . S
C764 H756 0.950 . S
C764 C765 1.386 . S
C764 C766 1.391 . S
C765 C764 1.386 . S
C765 C769 1.393 . S
C766 H758 0.950 . S
C766 C764 1.391 . S
C766 C767 1.400 . S
C767 C766 1.400 . S
C767 C768 1.398 . S
C767 C773 1.491 . S
C768 H759 0.950 . S
C768 C767 1.398 . S
C768 C769 1.391 . S
C769 H757 0.950 . S
C769 C765 1.393 . S
C769 C768 1.391 . S
C770 H760 0.950 . S
C770 C771 1.386 . S
C770 C772 1.391 . S
C771 C770 1.386 . S
C771 C775 1.393 . S
C772 H761 0.950 . S
C772 C770 1.391 . S
C772 C773 1.400 . S
C773 C767 1.491 . S
C773 C772 1.400 . S
C773 C774 1.398 . S
C774 H762 0.950 . S
C774 C773 1.398 . S
C774 C775 1.391 . S
C775 H763 0.950 . S
C775 C771 1.393 . S
C775 C774 1.391 . S
H776 C784 0.950 . S
H777 C789 0.950 . S
H778 C786 0.950 . S
H779 C788 0.950 . S
H780 C790 0.950 . S
H781 C792 0.950 . S
H782 C794 0.950 . S
H783 C795 0.950 . S
C784 H776 0.950 . S
C784 C785 1.386 . S
C784 C786 1.391 1_565 S
C785 C784 1.386 . S
C785 C789 1.393 1_565 S
C786 H778 0.950 . S
C786 C784 1.391 1_545 S
C786 C787 1.400 . S
C787 C786 1.400 . S
C787 C788 1.398 . S
C787 C793 1.491 . S
C788 H779 0.950 . S
C788 C787 1.398 . S
C788 C789 1.391 . S
C789 H777 0.950 . S
C789 C785 1.393 1_545 S
C789 C788 1.391 . S
C790 H780 0.950 . S
C790 C791 1.386 . S
C790 C792 1.391 . S
C791 C790 1.386 . S
C791 C795 1.393 . S
C792 H781 0.950 . S
C792 C790 1.391 . S
C792 C793 1.400 . S
C793 C787 1.491 . S
C793 C792 1.400 . S
C793 C794 1.398 . S
C794 H782 0.950 . S
C794 C793 1.398 . S
C794 C795 1.391 . S
C795 H783 0.950 . S
C795 C791 1.393 . S
C795 C794 1.391 . S
H796 C804 0.950 . S
H797 C809 0.950 . S
H798 C806 0.950 . S
H799 C808 0.950 . S
H800 C810 0.950 . S
H801 C812 0.950 . S
H802 C814 0.950 . S
H803 C815 0.950 . S
C804 H796 0.950 . S
C804 C805 1.386 . S
C804 C806 1.391 . S
C805 C804 1.386 . S
C805 C809 1.393 . S
C806 H798 0.950 . S
C806 C804 1.391 . S
C806 C807 1.400 . S
C807 C806 1.400 . S
C807 C808 1.398 . S
C807 C813 1.491 . S
C808 H799 0.950 . S
C808 C807 1.398 . S
C808 C809 1.391 . S
C809 H797 0.950 . S
C809 C805 1.393 . S
C809 C808 1.391 . S
C810 H800 0.950 . S
C810 C811 1.386 . S
C810 C812 1.391 . S
C811 C810 1.386 . S
C811 C815 1.393 . S
C812 H801 0.950 . S
C812 C810 1.391 . S
C812 C813 1.400 . S
C813 C807 1.491 . S
C813 C812 1.400 . S
C813 C814 1.398 . S
C814 H802 0.950 . S
C814 C813 1.398 . S
C814 C815 1.391 . S
C815 H803 0.950 . S
C815 C811 1.393 . S
C815 C814 1.391 . S
H816 C824 0.950 . S
H817 C829 0.950 . S
H818 C826 0.950 . S
H819 C828 0.950 . S
H820 C830 0.950 . S
H821 C832 0.950 . S
H822 C834 0.950 . S
H823 C835 0.950 . S
C824 H816 0.950 . S
C824 C825 1.386 . S
C824 C826 1.391 1_565 S
C825 C824 1.386 . S
C825 C829 1.393 1_565 S
C826 H818 0.950 . S
C826 C824 1.391 1_545 S
C826 C827 1.400 . S
C827 C826 1.400 . S
C827 C828 1.398 . S
C827 C833 1.491 . S
C828 H819 0.950 . S
C828 C827 1.398 . S
C828 C829 1.391 . S
C829 H817 0.950 . S
C829 C825 1.393 1_545 S
C829 C828 1.391 . S
C830 H820 0.950 . S
C830 C831 1.386 . S
C830 C832 1.391 . S
C831 C830 1.386 . S
C831 C835 1.393 . S
C832 H821 0.950 . S
C832 C830 1.391 . S
C832 C833 1.400 . S
C833 C827 1.491 . S
C833 C832 1.400 . S
C833 C834 1.398 . S
C834 H822 0.950 . S
C834 C833 1.398 . S
C834 C835 1.391 . S
C835 H823 0.950 . S
C835 C831 1.393 . S
C835 C834 1.391 . S
H836 C844 0.950 . S
H837 C849 0.950 . S
H838 C846 0.950 . S
H839 C848 0.950 . S
H840 C850 0.950 . S
H841 C852 0.950 . S
H842 C854 0.950 . S
H843 C855 0.950 . S
C844 H836 0.950 . S
C844 C845 1.386 . S
C844 C846 1.391 . S
C845 C844 1.386 . S
C845 C849 1.393 . S
C846 H838 0.950 . S
C846 C844 1.391 . S
C846 C847 1.400 . S
C847 C846 1.400 . S
C847 C848 1.398 . S
C847 C853 1.491 . S
C848 H839 0.950 . S
C848 C847 1.398 . S
C848 C849 1.391 . S
C849 H837 0.950 . S
C849 C845 1.393 . S
C849 C848 1.391 . S
C850 H840 0.950 . S
C850 C851 1.386 . S
C850 C852 1.391 . S
C851 C850 1.386 . S
C851 C855 1.393 . S
C852 H841 0.950 . S
C852 C850 1.391 . S
C852 C853 1.400 . S
C853 C847 1.491 . S
C853 C852 1.400 . S
C853 C854 1.398 . S
C854 H842 0.950 . S
C854 C853 1.398 . S
C854 C855 1.391 . S
C855 H843 0.950 . S
C855 C851 1.393 . S
C855 C854 1.391 . S
H856 C864 0.950 . S
H857 C869 0.950 . S
H858 C866 0.950 . S
H859 C868 0.950 . S
H860 C870 0.950 . S
H861 C872 0.950 . S
H862 C874 0.950 . S
H863 C875 0.950 . S
C864 H856 0.950 . S
C864 C865 1.386 . S
C864 C866 1.391 . S
C865 C864 1.386 . S
C865 C869 1.393 . S
C866 H858 0.950 . S
C866 C864 1.391 . S
C866 C867 1.400 . S
C867 C866 1.400 . S
C867 C868 1.398 . S
C867 C873 1.491 . S
C868 H859 0.950 . S
C868 C867 1.398 . S
C868 C869 1.391 . S
C869 H857 0.950 . S
C869 C865 1.393 . S
C869 C868 1.391 . S
C870 H860 0.950 . S
C870 C871 1.386 . S
C870 C872 1.391 . S
C871 C870 1.386 . S
C871 C875 1.393 . S
C872 H861 0.950 . S
C872 C870 1.391 . S
C872 C873 1.400 . S
C873 C867 1.491 . S
C873 C872 1.400 . S
C873 C874 1.398 . S
C874 H862 0.950 . S
C874 C873 1.398 . S
C874 C875 1.391 . S
C875 H863 0.950 . S
C875 C871 1.393 . S
C875 C874 1.391 . S
H876 C884 0.950 . S
H877 C889 0.950 . S
H878 C886 0.950 . S
H879 C888 0.950 . S
H880 C890 0.944 1_565 S
H881 C892 0.950 . S
H882 C894 0.950 . S
H883 C895 0.950 . S
C884 H876 0.950 . S
C884 C885 1.386 . S
C884 C886 1.391 . S
C885 C884 1.386 . S
C885 C889 1.393 . S
C886 H878 0.950 . S
C886 C884 1.391 . S
C886 C887 1.400 . S
C887 C886 1.400 . S
C887 C888 1.398 . S
C887 C893 1.491 . S
C888 H879 0.950 . S
C888 C887 1.398 . S
C888 C889 1.391 . S
C889 H877 0.950 . S
C889 C885 1.393 . S
C889 C888 1.391 . S
C890 H880 0.944 1_545 S
C890 C891 1.386 . S
C890 C892 1.391 . S
C891 C890 1.386 . S
C891 C895 1.393 . S
C892 H881 0.950 . S
C892 C890 1.391 . S
C892 C893 1.400 . S
C893 C887 1.491 . S
C893 C892 1.400 . S
C893 C894 1.398 . S
C894 H882 0.950 . S
C894 C893 1.398 . S
C894 C895 1.391 . S
C895 H883 0.950 . S
C895 C891 1.393 . S
C895 C894 1.391 . S
H896 C904 0.950 . S
H897 C909 0.950 . S
H898 C906 0.950 . S
H899 C908 0.950 . S
H900 C910 0.950 . S
H901 C912 0.950 . S
H902 C914 0.950 . S
H903 C915 0.950 . S
C904 H896 0.950 . S
C904 C905 1.386 . S
C904 C906 1.391 . S
C905 C904 1.386 . S
C905 C909 1.393 . S
C906 H898 0.950 . S
C906 C904 1.391 . S
C906 C907 1.400 . S
C907 C906 1.400 . S
C907 C908 1.398 . S
C907 C913 1.491 . S
C908 H899 0.950 . S
C908 C907 1.398 . S
C908 C909 1.391 . S
C909 H897 0.950 . S
C909 C905 1.393 . S
C909 C908 1.391 . S
C910 H900 0.950 . S
C910 C911 1.386 . S
C910 C912 1.391 . S
C911 C910 1.386 . S
C911 C915 1.393 . S
C912 H901 0.950 . S
C912 C910 1.391 . S
C912 C913 1.400 . S
C913 C907 1.491 . S
C913 C912 1.400 . S
C913 C914 1.398 . S
C914 H902 0.950 . S
C914 C913 1.398 . S
C914 C915 1.391 . S
C915 H903 0.950 . S
C915 C911 1.393 . S
C915 C914 1.391 . S
H916 C924 0.950 . S
H917 C929 0.950 . S
H918 C926 0.950 . S
H919 C928 0.950 . S
H920 C930 0.950 . S
H921 C932 0.950 . S
H922 C934 0.950 . S
H923 C935 0.950 . S
C924 H916 0.950 . S
C924 C925 1.386 . S
C924 C926 1.391 . S
C925 C924 1.386 . S
C925 C929 1.393 . S
C926 H918 0.950 . S
C926 C924 1.391 . S
C926 C927 1.400 . S
C927 C926 1.400 . S
C927 C928 1.398 . S
C927 C933 1.491 . S
C928 H919 0.950 . S
C928 C927 1.398 . S
C928 C929 1.391 . S
C929 H917 0.950 . S
C929 C925 1.393 . S
C929 C928 1.391 . S
C930 H920 0.950 . S
C930 C931 1.386 . S
C930 C932 1.391 . S
C931 C930 1.386 . S
C931 C935 1.393 . S
C932 H921 0.950 . S
C932 C930 1.391 . S
C932 C933 1.400 . S
C933 C927 1.491 . S
C933 C932 1.400 . S
C933 C934 1.398 . S
C934 H922 0.950 . S
C934 C933 1.398 . S
C934 C935 1.391 . S
C935 H923 0.950 . S
C935 C931 1.393 . S
C935 C934 1.391 . S
H936 C944 0.950 . S
H937 C949 0.950 . S
H938 C946 0.950 . S
H939 C948 0.950 . S
H940 C950 0.950 . S
H941 C952 0.950 . S
H942 C954 0.950 . S
H943 C955 0.950 . S
C944 H936 0.950 . S
C944 C945 1.386 . S
C944 C946 1.391 . S
C945 C944 1.386 . S
C945 C949 1.393 . S
C946 H938 0.950 . S
C946 C944 1.391 . S
C946 C947 1.400 . S
C947 C946 1.400 . S
C947 C948 1.398 . S
C947 C953 1.491 . S
C948 H939 0.950 . S
C948 C947 1.398 . S
C948 C949 1.391 . S
C949 H937 0.950 . S
C949 C945 1.393 . S
C949 C948 1.391 . S
C950 H940 0.950 . S
C950 C951 1.386 . S
C950 C952 1.391 . S
C951 C950 1.386 . S
C951 C955 1.393 . S
C952 H941 0.950 . S
C952 C950 1.391 . S
C952 C953 1.400 . S
C953 C947 1.491 . S
C953 C952 1.400 . S
C953 C954 1.398 . S
C954 H942 0.950 . S
C954 C953 1.398 . S
C954 C955 1.391 . S
C955 H943 0.950 . S
C955 C951 1.393 . S
C955 C954 1.391 . S
H956 C964 0.950 1_565 S
H957 C969 0.947 . S
H958 C966 0.950 1_565 S
H959 C968 0.950 . S
H960 C970 0.950 . S
H961 C972 0.950 . S
H962 C974 0.950 1_565 S
H963 C975 0.950 1_565 S
C964 H956 0.950 1_545 S
C964 C965 1.386 . S
C964 C966 1.391 . S
C965 C964 1.386 . S
C965 C969 1.394 1_655 S
C966 H958 0.950 1_545 S
C966 C964 1.391 . S
C966 C967 1.400 . S
C967 C966 1.400 . S
C967 C968 1.398 . S
C967 C973 1.491 . S
C968 H959 0.950 . S
C968 C967 1.398 . S
C968 C969 1.392 1_655 S
C969 H957 0.947 . S
C969 C965 1.394 1_455 S
C969 C968 1.392 1_455 S
C970 H960 0.950 . S
C970 C971 1.386 . S
C970 C972 1.391 . S
C971 C970 1.386 . S
C971 C975 1.393 . S
C972 H961 0.950 . S
C972 C970 1.391 . S
C972 C973 1.400 . S
C973 C967 1.491 . S
C973 C972 1.400 . S
C973 C974 1.398 . S
C974 H962 0.950 1_545 S
C974 C973 1.398 . S
C974 C975 1.391 . S
C975 H963 0.950 1_545 S
C975 C971 1.393 . S
C975 C974 1.391 . S
H976 C984 0.950 . S
H977 C989 0.950 . S
H978 C986 0.950 . S
H979 C988 0.950 . S
H980 C990 0.950 . S
H981 C992 0.950 . S
H982 C994 0.950 . S
H983 C995 0.950 . S
C984 H976 0.950 . S
C984 C985 1.386 . S
C984 C986 1.391 . S
C985 C984 1.386 . S
C985 C989 1.393 . S
C986 H978 0.950 . S
C986 C984 1.391 . S
C986 C987 1.400 . S
C987 C986 1.400 . S
C987 C988 1.398 . S
C987 C993 1.491 . S
C988 H979 0.950 . S
C988 C987 1.398 . S
C988 C989 1.391 . S
C989 H977 0.950 . S
C989 C985 1.393 . S
C989 C988 1.391 . S
C990 H980 0.950 . S
C990 C991 1.386 . S
C990 C992 1.391 . S
C991 C990 1.386 . S
C991 C995 1.393 . S
C992 H981 0.950 . S
C992 C990 1.391 . S
C992 C993 1.400 . S
C993 C987 1.491 . S
C993 C992 1.400 . S
C993 C994 1.398 . S
C994 H982 0.950 . S
C994 C993 1.398 . S
C994 C995 1.391 . S
C995 H983 0.950 . S
C995 C991 1.393 . S
C995 C994 1.391 . S
H996 C1004 0.950 . S
H997 C1009 0.950 . S
H998 C1006 0.950 . S
H999 C1008 0.950 1_655 S
H1000 C1010 0.950 . S
H1001 C1012 0.950 . S
H1002 C1014 0.950 . S
H1003 C1015 0.950 . S
C1004 H996 0.950 . S
C1004 C1005 1.386 1_455 S
C1004 C1006 1.391 . S
C1005 C1004 1.386 1_655 S
C1005 C1009 1.393 . S
C1006 H998 0.950 . S
C1006 C1004 1.391 . S
C1006 C1007 1.400 . S
C1007 C1006 1.400 . S
C1007 C1008 1.398 . S
C1007 C1013 1.491 . S
C1008 H999 0.950 1_455 S
C1008 C1007 1.398 . S
C1008 C1009 1.391 1_455 S
C1009 H997 0.950 . S
C1009 C1005 1.393 . S
C1009 C1008 1.391 1_655 S
C1010 H1000 0.950 . S
C1010 C1011 1.386 . S
C1010 C1012 1.391 . S
C1011 C1010 1.386 . S
C1011 C1015 1.393 . S
C1012 H1001 0.950 . S
C1012 C1010 1.391 . S
C1012 C1013 1.400 . S
C1013 C1007 1.491 . S
C1013 C1012 1.400 . S
C1013 C1014 1.398 . S
C1014 H1002 0.950 . S
C1014 C1013 1.398 . S
C1014 C1015 1.391 . S
C1015 H1003 0.950 . S
C1015 C1011 1.393 . S
C1015 C1014 1.391 . S
H1016 C1024 0.950 . S
H1017 C1029 0.950 . S
H1018 C1026 0.950 . S
H1019 C1028 0.950 . S
H1020 C1030 0.950 . S
H1021 C1032 0.950 . S
H1022 C1034 0.950 . S
H1023 C1035 0.950 . S
C1024 H1016 0.950 . S
C1024 C1025 1.386 . S
C1024 C1026 1.391 . S
C1025 C1024 1.386 . S
C1025 C1029 1.393 . S
C1026 H1018 0.950 . S
C1026 C1024 1.391 . S
C1026 C1027 1.400 . S
C1027 C1026 1.400 . S
C1027 C1028 1.398 . S
C1027 C1033 1.491 . S
C1028 H1019 0.950 . S
C1028 C1027 1.398 . S
C1028 C1029 1.391 . S
C1029 H1017 0.950 . S
C1029 C1025 1.393 . S
C1029 C1028 1.391 . S
C1030 H1020 0.950 . S
C1030 C1031 1.386 . S
C1030 C1032 1.391 . S
C1031 C1030 1.386 . S
C1031 C1035 1.393 . S
C1032 H1021 0.950 . S
C1032 C1030 1.391 . S
C1032 C1033 1.400 . S
C1033 C1027 1.491 . S
C1033 C1032 1.400 . S
C1033 C1034 1.398 . S
C1034 H1022 0.950 . S
C1034 C1033 1.398 . S
C1034 C1035 1.391 . S
C1035 H1023 0.950 . S
C1035 C1031 1.393 . S
C1035 C1034 1.391 . S
H1036 C1044 0.950 . S
H1037 C1049 0.950 . S
H1038 C1046 0.950 . S
H1039 C1048 0.950 1_556 S
H1040 C1050 0.950 . S
H1041 C1052 0.950 . S
H1042 C1054 0.950 1_455 S
H1043 C1055 0.944 1_455 S
C1044 H1036 0.950 . S
C1044 C1045 1.386 . S
C1044 C1046 1.391 . S
C1045 C1044 1.386 . S
C1045 C1049 1.393 . S
C1046 H1038 0.950 . S
C1046 C1044 1.391 . S
C1046 C1047 1.400 . S
C1047 C1046 1.400 . S
C1047 C1048 1.398 . S
C1047 C1053 1.491 1_554 S
C1048 H1039 0.950 1_554 S
C1048 C1047 1.398 . S
C1048 C1049 1.391 . S
C1049 H1037 0.950 . S
C1049 C1045 1.393 . S
C1049 C1048 1.391 . S
C1050 H1040 0.950 . S
C1050 C1051 1.386 . S
C1050 C1052 1.391 . S
C1051 C1050 1.386 . S
C1051 C1055 1.396 . S
C1052 H1041 0.950 . S
C1052 C1050 1.391 . S
C1052 C1053 1.400 . S
C1053 C1047 1.491 1_556 S
C1053 C1052 1.400 . S
C1053 C1054 1.398 1_556 S
C1054 H1042 0.950 1_655 S
C1054 C1053 1.398 1_554 S
C1054 C1055 1.393 1_554 S
C1055 H1043 0.944 1_655 S
C1055 C1051 1.396 . S
C1055 C1054 1.393 1_556 S
H1056 C1064 0.950 . S
H1057 C1069 0.950 . S
H1058 C1066 0.950 . S
H1059 C1068 0.950 . S
H1060 C1070 0.950 . S
H1061 C1072 0.950 . S
H1062 C1074 0.950 . S
H1063 C1075 0.950 . S
C1064 H1056 0.950 . S
C1064 C1065 1.386 . S
C1064 C1066 1.391 . S
C1065 C1064 1.386 . S
C1065 C1069 1.393 . S
C1066 H1058 0.950 . S
C1066 C1064 1.391 . S
C1066 C1067 1.400 . S
C1067 C1066 1.400 . S
C1067 C1068 1.398 . S
C1067 C1073 1.491 . S
C1068 H1059 0.950 . S
C1068 C1067 1.398 . S
C1068 C1069 1.391 . S
C1069 H1057 0.950 . S
C1069 C1065 1.393 . S
C1069 C1068 1.391 . S
C1070 H1060 0.950 . S
C1070 C1071 1.386 . S
C1070 C1072 1.391 . S
C1071 C1070 1.386 . S
C1071 C1075 1.393 . S
C1072 H1061 0.950 . S
C1072 C1070 1.391 . S
C1072 C1073 1.400 . S
C1073 C1067 1.491 . S
C1073 C1072 1.400 . S
C1073 C1074 1.398 . S
C1074 H1062 0.950 . S
C1074 C1073 1.398 . S
C1074 C1075 1.391 . S
C1075 H1063 0.950 . S
C1075 C1071 1.393 . S
C1075 C1074 1.391 . S
H1076 C1084 0.950 . S
H1077 C1089 0.950 . S
H1078 C1086 0.950 . S
H1079 C1088 0.950 . S
H1080 C1090 0.950 . S
H1081 C1092 0.950 . S
H1082 C1094 0.950 . S
H1083 C1095 0.950 . S
C1084 H1076 0.950 . S
C1084 C1085 1.386 . S
C1084 C1086 1.391 1_554 S
C1085 C1084 1.386 . S
C1085 C1089 1.393 1_455 S
C1086 H1078 0.950 . S
C1086 C1084 1.391 1_556 S
C1086 C1087 1.400 . S
C1087 C1086 1.400 . S
C1087 C1088 1.398 1_456 S
C1087 C1093 1.491 . S
C1088 H1079 0.950 . S
C1088 C1087 1.398 1_654 S
C1088 C1089 1.391 . S
C1089 H1077 0.950 . S
C1089 C1085 1.393 1_655 S
C1089 C1088 1.391 . S
C1090 H1080 0.950 . S
C1090 C1091 1.386 1_655 S
C1090 C1092 1.391 . S
C1091 C1090 1.386 1_455 S
C1091 C1095 1.393 . S
C1092 H1081 0.950 . S
C1092 C1090 1.391 . S
C1092 C1093 1.400 1_655 S
C1093 C1087 1.491 . S
C1093 C1092 1.400 1_455 S
C1093 C1094 1.398 . S
C1094 H1082 0.950 . S
C1094 C1093 1.398 . S
C1094 C1095 1.391 . S
C1095 H1083 0.950 . S
C1095 C1091 1.393 . S
C1095 C1094 1.391 . S
H1096 C1104 0.950 . S
H1097 C1109 0.950 . S
H1098 C1106 0.950 . S
H1099 C1108 0.950 . S
H1100 C1110 0.950 . S
H1101 C1112 0.950 . S
H1102 C1114 0.950 . S
H1103 C1115 0.950 . S
C1104 H1096 0.950 . S
C1104 C1105 1.386 . S
C1104 C1106 1.391 . S
C1105 C1104 1.386 . S
C1105 C1109 1.393 . S
C1106 H1098 0.950 . S
C1106 C1104 1.391 . S
C1106 C1107 1.400 . S
C1107 C1106 1.400 . S
C1107 C1108 1.398 . S
C1107 C1113 1.491 . S
C1108 H1099 0.950 . S
C1108 C1107 1.398 . S
C1108 C1109 1.391 . S
C1109 H1097 0.950 . S
C1109 C1105 1.393 . S
C1109 C1108 1.391 . S
C1110 H1100 0.950 . S
C1110 C1111 1.386 . S
C1110 C1112 1.391 . S
C1111 C1110 1.386 . S
C1111 C1115 1.393 . S
C1112 H1101 0.950 . S
C1112 C1110 1.391 . S
C1112 C1113 1.400 . S
C1113 C1107 1.491 . S
C1113 C1112 1.400 . S
C1113 C1114 1.398 . S
C1114 H1102 0.950 . S
C1114 C1113 1.398 . S
C1114 C1115 1.391 . S
C1115 H1103 0.950 . S
C1115 C1111 1.393 . S
C1115 C1114 1.391 . S
H1116 C1124 0.950 . S
H1117 C1129 0.950 . S
H1118 C1126 0.950 . S
H1119 C1128 0.943 1_556 S
H1120 C1130 0.950 . S
H1121 C1132 0.950 . S
H1122 C1134 0.950 . S
H1123 C1135 0.950 . S
C1124 H1116 0.950 . S
C1124 C1125 1.386 1_554 S
C1124 C1126 1.391 . S
C1125 C1124 1.386 1_556 S
C1125 C1129 1.393 . S
C1126 H1118 0.950 . S
C1126 C1124 1.391 . S
C1126 C1127 1.400 . S
C1127 C1126 1.400 . S
C1127 C1128 1.430 . S
C1127 C1133 1.491 . S
C1128 H1119 0.943 1_554 S
C1128 C1127 1.430 . S
C1128 C1129 1.366 1_554 S
C1129 H1117 0.950 . S
C1129 C1125 1.393 . S
C1129 C1128 1.366 1_556 S
C1130 H1120 0.950 . S
C1130 C1131 1.386 . S
C1130 C1132 1.391 . S
C1131 C1130 1.386 . S
C1131 C1135 1.393 . S
C1132 H1121 0.950 . S
C1132 C1130 1.391 . S
C1132 C1133 1.400 . S
C1133 C1127 1.491 . S
C1133 C1132 1.400 . S
C1133 C1134 1.398 . S
C1134 H1122 0.950 . S
C1134 C1133 1.398 . S
C1134 C1135 1.391 . S
C1135 H1123 0.950 . S
C1135 C1131 1.393 . S
C1135 C1134 1.391 . S
H1136 C1144 0.950 . S
H1137 C1149 0.950 . S
H1138 C1146 0.950 . S
H1139 C1148 0.950 . S
H1140 C1150 0.950 . S
H1141 C1152 0.950 . S
H1142 C1154 0.950 . S
H1143 C1155 0.950 . S
C1144 H1136 0.950 . S
C1144 C1145 1.386 . S
C1144 C1146 1.391 . S
C1145 C1144 1.386 . S
C1145 C1149 1.393 . S
C1146 H1138 0.950 . S
C1146 C1144 1.391 . S
C1146 C1147 1.400 . S
C1147 C1146 1.400 . S
C1147 C1148 1.398 . S
C1147 C1153 1.491 . S
C1148 H1139 0.950 . S
C1148 C1147 1.398 . S
C1148 C1149 1.391 . S
C1149 H1137 0.950 . S
C1149 C1145 1.393 . S
C1149 C1148 1.391 . S
C1150 H1140 0.950 . S
C1150 C1151 1.386 . S
C1150 C1152 1.391 . S
C1151 C1150 1.386 . S
C1151 C1155 1.393 . S
C1152 H1141 0.950 . S
C1152 C1150 1.391 . S
C1152 C1153 1.400 . S
C1153 C1147 1.491 . S
C1153 C1152 1.400 . S
C1153 C1154 1.398 . S
C1154 H1142 0.950 . S
C1154 C1153 1.398 . S
C1154 C1155 1.391 . S
C1155 H1143 0.950 . S
C1155 C1151 1.393 . S
C1155 C1154 1.391 . S
H1156 C1164 0.950 . S
H1157 C1169 0.950 . S
H1158 C1166 0.950 . S
H1159 C1168 0.950 . S
H1160 C1170 0.950 . S
H1161 C1172 0.950 . S
H1162 C1174 0.950 . S
H1163 C1175 0.950 . S
C1164 H1156 0.950 . S
C1164 C1165 1.386 . S
C1164 C1166 1.391 1_556 S
C1165 C1164 1.386 . S
C1165 C1169 1.393 . S
C1166 H1158 0.950 . S
C1166 C1164 1.391 1_554 S
C1166 C1167 1.400 . S
C1167 C1166 1.400 . S
C1167 C1168 1.398 . S
C1167 C1173 1.491 . S
C1168 H1159 0.950 . S
C1168 C1167 1.398 . S
C1168 C1169 1.391 1_554 S
C1169 H1157 0.950 . S
C1169 C1165 1.393 . S
C1169 C1168 1.391 1_556 S
C1170 H1160 0.950 . S
C1170 C1171 1.386 . S
C1170 C1172 1.391 . S
C1171 C1170 1.386 . S
C1171 C1175 1.393 . S
C1172 H1161 0.950 . S
C1172 C1170 1.391 . S
C1172 C1173 1.400 . S
C1173 C1167 1.491 . S
C1173 C1172 1.400 . S
C1173 C1174 1.398 . S
C1174 H1162 0.950 . S
C1174 C1173 1.398 . S
C1174 C1175 1.391 . S
C1175 H1163 0.950 . S
C1175 C1171 1.393 . S
C1175 C1174 1.391 . S
H1176 C1184 0.950 . S
H1177 C1189 0.950 . S
H1178 C1186 0.950 . S
H1179 C1188 0.950 . S
H1180 C1190 0.950 . S
H1181 C1192 0.950 . S
H1182 C1194 0.950 . S
H1183 C1195 0.950 . S
C1184 H1176 0.950 . S
C1184 C1185 1.386 . S
C1184 C1186 1.391 . S
C1185 C1184 1.386 . S
C1185 C1189 1.393 . S
C1186 H1178 0.950 . S
C1186 C1184 1.391 . S
C1186 C1187 1.400 . S
C1187 C1186 1.400 . S
C1187 C1188 1.398 . S
C1187 C1193 1.491 . S
C1188 H1179 0.950 . S
C1188 C1187 1.398 . S
C1188 C1189 1.391 . S
C1189 H1177 0.950 . S
C1189 C1185 1.393 . S
C1189 C1188 1.391 . S
C1190 H1180 0.950 . S
C1190 C1191 1.386 . S
C1190 C1192 1.391 . S
C1191 C1190 1.386 . S
C1191 C1195 1.393 . S
C1192 H1181 0.950 . S
C1192 C1190 1.391 . S
C1192 C1193 1.400 . S
C1193 C1187 1.491 . S
C1193 C1192 1.400 . S
C1193 C1194 1.398 . S
C1194 H1182 0.950 . S
C1194 C1193 1.398 . S
C1194 C1195 1.391 . S
C1195 H1183 0.950 . S
C1195 C1191 1.393 . S
C1195 C1194 1.391 . S
H1196 C1204 0.950 . S
H1197 C1209 0.950 . S
H1198 C1206 0.950 . S
H1199 C1208 0.950 . S
H1200 C1210 0.950 . S
H1201 C1212 0.950 . S
H1202 C1214 0.950 . S
H1203 C1215 0.950 . S
C1204 H1196 0.950 . S
C1204 C1205 1.386 . S
C1204 C1206 1.391 . S
C1205 C1204 1.386 . S
C1205 C1209 1.393 . S
C1206 H1198 0.950 . S
C1206 C1204 1.391 . S
C1206 C1207 1.400 . S
C1207 C1206 1.400 . S
C1207 C1208 1.398 . S
C1207 C1213 1.491 . S
C1208 H1199 0.950 . S
C1208 C1207 1.398 . S
C1208 C1209 1.391 . S
C1209 H1197 0.950 . S
C1209 C1205 1.393 . S
C1209 C1208 1.391 . S
C1210 H1200 0.950 . S
C1210 C1211 1.386 . S
C1210 C1212 1.391 . S
C1211 C1210 1.386 . S
C1211 C1215 1.393 . S
C1212 H1201 0.950 . S
C1212 C1210 1.391 . S
C1212 C1213 1.400 . S
C1213 C1207 1.491 . S
C1213 C1212 1.400 . S
C1213 C1214 1.398 . S
C1214 H1202 0.950 . S
C1214 C1213 1.398 . S
C1214 C1215 1.391 . S
C1215 H1203 0.950 . S
C1215 C1211 1.393 . S
C1215 C1214 1.391 . S
H1216 C1224 0.950 . S
H1217 C1229 0.950 . S
H1218 C1226 0.950 . S
H1219 C1228 0.950 . S
H1220 C1230 0.950 . S
H1221 C1232 0.950 . S
H1222 C1234 0.950 . S
H1223 C1235 0.950 . S
C1224 H1216 0.950 . S
C1224 C1225 1.386 . S
C1224 C1226 1.391 . S
C1225 C1224 1.386 . S
C1225 C1229 1.393 . S
C1226 H1218 0.950 . S
C1226 C1224 1.391 . S
C1226 C1227 1.400 . S
C1227 C1226 1.400 . S
C1227 C1228 1.398 . S
C1227 C1233 1.491 . S
C1228 H1219 0.950 . S
C1228 C1227 1.398 . S
C1228 C1229 1.391 . S
C1229 H1217 0.950 . S
C1229 C1225 1.393 . S
C1229 C1228 1.391 . S
C1230 H1220 0.950 . S
C1230 C1231 1.386 . S
C1230 C1232 1.391 . S
C1231 C1230 1.386 . S
C1231 C1235 1.393 . S
C1232 H1221 0.950 . S
C1232 C1230 1.391 . S
C1232 C1233 1.400 . S
C1233 C1227 1.491 . S
C1233 C1232 1.400 . S
C1233 C1234 1.398 . S
C1234 H1222 0.950 . S
C1234 C1233 1.398 . S
C1234 C1235 1.391 . S
C1235 H1223 0.950 . S
C1235 C1231 1.393 . S
C1235 C1234 1.391 . S
H1236 C1244 0.950 . S
H1237 C1249 0.950 . S
H1238 C1246 0.950 . S
H1239 C1248 0.950 . S
H1240 C1250 0.950 . S
H1241 C1252 0.950 . S
H1242 C1254 0.950 . S
H1243 C1255 0.950 . S
C1244 H1236 0.950 . S
C1244 C1245 1.386 . S
C1244 C1246 1.391 . S
C1245 C1244 1.386 . S
C1245 C1249 1.393 . S
C1246 H1238 0.950 . S
C1246 C1244 1.391 . S
C1246 C1247 1.400 . S
C1247 C1246 1.400 . S
C1247 C1248 1.398 . S
C1247 C1253 1.491 . S
C1248 H1239 0.950 . S
C1248 C1247 1.398 . S
C1248 C1249 1.391 . S
C1249 H1237 0.950 . S
C1249 C1245 1.393 . S
C1249 C1248 1.391 . S
C1250 H1240 0.950 . S
C1250 C1251 1.386 . S
C1250 C1252 1.391 . S
C1251 C1250 1.386 . S
C1251 C1255 1.393 . S
C1252 H1241 0.950 . S
C1252 C1250 1.391 . S
C1252 C1253 1.400 . S
C1253 C1247 1.491 . S
C1253 C1252 1.400 . S
C1253 C1254 1.398 . S
C1254 H1242 0.950 . S
C1254 C1253 1.398 . S
C1254 C1255 1.391 . S
C1255 H1243 0.950 . S
C1255 C1251 1.393 . S
C1255 C1254 1.391 . S
H1256 C1264 0.950 . S
H1257 C1269 0.950 1_554 S
H1258 C1266 0.950 . S
H1259 C1268 0.950 1_554 S
H1260 C1270 0.950 . S
H1261 C1272 0.950 . S
H1262 C1274 0.950 . S
H1263 C1275 0.950 . S
C1264 H1256 0.950 . S
C1264 C1265 1.386 . S
C1264 C1266 1.391 . S
C1265 C1264 1.386 . S
C1265 C1269 1.393 . S
C1266 H1258 0.950 . S
C1266 C1264 1.391 . S
C1266 C1267 1.400 . S
C1267 C1266 1.400 . S
C1267 C1268 1.398 . S
C1267 C1273 1.491 . S
C1268 H1259 0.950 1_556 S
C1268 C1267 1.398 . S
C1268 C1269 1.391 . S
C1269 H1257 0.950 1_556 S
C1269 C1265 1.393 . S
C1269 C1268 1.391 . S
C1270 H1260 0.950 . S
C1270 C1271 1.386 1_554 S
C1270 C1272 1.391 . S
C1271 C1270 1.386 1_556 S
C1271 C1275 1.393 . S
C1272 H1261 0.950 . S
C1272 C1270 1.391 . S
C1272 C1273 1.400 1_554 S
C1273 C1267 1.491 . S
C1273 C1272 1.400 1_556 S
C1273 C1274 1.398 . S
C1274 H1262 0.950 . S
C1274 C1273 1.398 . S
C1274 C1275 1.391 . S
C1275 H1263 0.950 . S
C1275 C1271 1.393 . S
C1275 C1274 1.391 . S
H1276 C1284 0.950 . S
H1277 C1289 0.950 . S
H1278 C1286 0.950 . S
H1279 C1288 0.950 . S
H1280 C1290 0.950 . S
H1281 C1292 0.950 . S
H1282 C1294 0.950 . S
H1283 C1295 0.950 . S
C1284 H1276 0.950 . S
C1284 C1285 1.386 . S
C1284 C1286 1.391 . S
C1285 C1284 1.386 . S
C1285 C1289 1.393 . S
C1286 H1278 0.950 . S
C1286 C1284 1.391 . S
C1286 C1287 1.400 . S
C1287 C1286 1.400 . S
C1287 C1288 1.398 . S
C1287 C1293 1.491 . S
C1288 H1279 0.950 . S
C1288 C1287 1.398 . S
C1288 C1289 1.391 . S
C1289 H1277 0.950 . S
C1289 C1285 1.393 . S
C1289 C1288 1.391 . S
C1290 H1280 0.950 . S
C1290 C1291 1.386 . S
C1290 C1292 1.391 . S
C1291 C1290 1.386 . S
C1291 C1295 1.393 . S
C1292 H1281 0.950 . S
C1292 C1290 1.391 . S
C1292 C1293 1.400 . S
C1293 C1287 1.491 . S
C1293 C1292 1.400 . S
C1293 C1294 1.398 . S
C1294 H1282 0.950 . S
C1294 C1293 1.398 . S
C1294 C1295 1.391 . S
C1295 H1283 0.950 . S
C1295 C1291 1.393 . S
C1295 C1294 1.391 . S
H1296 C1304 0.950 . S
H1297 C1309 0.950 . S
H1298 C1306 0.950 . S
H1299 C1308 0.950 . S
H1300 C1310 0.950 . S
H1301 C1312 0.950 . S
H1302 C1314 0.950 1_556 S
H1303 C1315 0.950 1_556 S
C1304 H1296 0.950 . S
C1304 C1305 1.386 . S
C1304 C1306 1.391 . S
C1305 C1304 1.386 . S
C1305 C1309 1.393 . S
C1306 H1298 0.950 . S
C1306 C1304 1.391 . S
C1306 C1307 1.400 . S
C1307 C1306 1.400 . S
C1307 C1308 1.398 . S
C1307 C1313 1.491 . S
C1308 H1299 0.950 . S
C1308 C1307 1.398 . S
C1308 C1309 1.391 . S
C1309 H1297 0.950 . S
C1309 C1305 1.393 . S
C1309 C1308 1.391 . S
C1310 H1300 0.950 . S
C1310 C1311 1.386 . S
C1310 C1312 1.391 . S
C1311 C1310 1.386 . S
C1311 C1315 1.393 . S
C1312 H1301 0.950 . S
C1312 C1310 1.391 . S
C1312 C1313 1.400 . S
C1313 C1307 1.491 . S
C1313 C1312 1.400 . S
C1313 C1314 1.398 . S
C1314 H1302 0.950 1_554 S
C1314 C1313 1.398 . S
C1314 C1315 1.391 . S
C1315 H1303 0.950 1_554 S
C1315 C1311 1.393 . S
C1315 C1314 1.391 . S
H1316 C1324 0.950 . S
H1317 C1329 0.950 . S
H1318 C1326 0.950 . S
H1319 C1328 0.950 . S
H1320 C1330 0.950 . S
H1321 C1332 0.950 . S
H1322 C1334 0.944 1_556 S
H1323 C1335 0.950 1_556 S
C1324 H1316 0.950 . S
C1324 C1325 1.386 . S
C1324 C1326 1.391 . S
C1325 C1324 1.386 . S
C1325 C1329 1.393 1_565 S
C1326 H1318 0.950 . S
C1326 C1324 1.391 . S
C1326 C1327 1.400 . S
C1327 C1326 1.400 . S
C1327 C1328 1.398 . S
C1327 C1333 1.491 . S
C1328 H1319 0.950 . S
C1328 C1327 1.398 . S
C1328 C1329 1.391 1_565 S
C1329 H1317 0.950 . S
C1329 C1325 1.393 1_545 S
C1329 C1328 1.391 1_545 S
C1330 H1320 0.950 . S
C1330 C1331 1.386 . S
C1330 C1332 1.391 . S
C1331 C1330 1.386 . S
C1331 C1335 1.393 . S
C1332 H1321 0.950 . S
C1332 C1330 1.391 . S
C1332 C1333 1.400 . S
C1333 C1327 1.491 . S
C1333 C1332 1.400 . S
C1333 C1334 1.398 . S
C1334 H1322 0.944 1_554 S
C1334 C1333 1.398 . S
C1334 C1335 1.391 . S
C1335 H1323 0.950 1_554 S
C1335 C1331 1.393 . S
C1335 C1334 1.391 . S
C391 C216 1.293 . S
C385 N66 1.275 . S
C411 C229 1.544 . S
C405 N79 1.540 . S
C425 N92 1.846 . S
C431 C249 1.766 . S
C451 C263 1.290 . S
C445 N54 1.329 . S
C471 C275 1.526 . S
C465 N131 1.514 . S
C491 C289 1.160 . S
C485 N158 1.153 . S
C505 N145 1.539 . S
C511 C299 1.532 . S
C531 C314 1.782 . S
C525 N118 1.781 . S
C545 N148 1.904 . S
C551 C328 1.857 . S
C571 C347 1.427 . S
C565 N122 1.495 . S
C585 N132 1.231 . S
C591 C327 1.207 . S
C611 C345 1.439 . S
C605 N161 1.408 . S
C625 N96 1.954 . S
C631 C361 1.875 . S
C645 N53 1.679 . S
C651 C355 1.695 . S
C665 N67 1.130 . S
C671 C359 1.128 . S
C685 N83 1.375 . S
C691 C356 1.357 . S
C705 N44 1.413 . S
C711 C258 1.412 . S
C725 N187 1.458 . S
C731 C257 1.473 . S
C751 C221 1.103 . S
C745 N197 1.176 . S
C771 C235 1.337 . S
C765 N106 1.413 . S
C785 N57 1.815 . S
C791 C272 1.843 . S
C811 C317 1.500 . S
C805 N144 1.470 . S
C831 C271 1.366 . S
C825 N119 1.366 . S
C851 C303 1.728 . S
C845 N157 1.704 . S
C871 C300 1.294 . S
C865 N183 1.279 . S
C885 N196 1.529 . S
C891 C313 1.551 . S
C905 N105 1.849 . S
C911 C277 1.770 . S
C931 C291 1.284 . S
C925 N171 1.328 . S
C945 N40 1.521 . S
C951 C247 1.525 . S
C971 C261 1.153 . S
C965 N2 1.157 1_655 S
C991 C215 1.540 . S
C985 N15 1.545 . S
C1011 C230 1.771 . S
C1005 N27 1.770 . S
C1025 N18 1.908 . S
C1031 C342 1.851 . S
C1045 N31 1.501 . S
C1051 C333 1.401 . S
C1065 N41 1.232 . S
C1071 C341 1.208 . S
C1085 N5 1.419 . S
C1091 C331 1.439 . S
C1111 C375 1.861 . S
C1105 N109 1.948 . S
C1131 C369 1.702 . S
C1125 N170 1.670 . S
C1151 C373 1.131 . S
C1145 N184 1.125 . S
C1165 N200 1.364 . S
C1171 C370 1.368 . S
C1185 N135 1.413 . S
C1191 C286 1.412 . S
C1211 C285 1.477 . S
C1205 N70 1.461 . S
C1231 C305 1.126 . S
C1225 N80 1.171 . S
C1251 C319 1.323 . S
C1245 N93 1.406 . S
C1265 N174 1.823 . S
C1271 C244 1.836 . S
C1291 C233 1.500 . S
C1285 N14 1.470 . S
C1305 N28 1.365 . S
C1311 C243 1.366 . S
C1331 C219 1.727 . S
C1325 N1 1.700 1_565 S
