# Generated by pormake.
# Topology anh, (6,3)-cn, num edge types: 1
# Building blocks:
#     Node 0, Type 0, BuildingBlock: BETDEL_clean_sbu_0, # of connection points: 6
#     Node 1, Type 0, BuildingBlock: BETDEL_clean_sbu_0, # of connection points: 6
#     Node 2, Type 0, BuildingBlock: BETDEL_clean_sbu_0, # of connection points: 6
#     Node 3, Type 1, BuildingBlock: PAMTOO_clean_linker_0, # of connection points: 3
#     Node 4, Type 1, BuildingBlock: PAMTOO_clean_linker_0, # of connection points: 3
#     Node 5, Type 1, BuildingBlock: PAMTOO_clean_linker_0, # of connection points: 3
#     Node 6, Type 1, BuildingBlock: PAMTOO_clean_linker_0, # of connection points: 3
#     Node 7, Type 1, BuildingBlock: PAMTOO_clean_linker_0, # of connection points: 3
#     Node 8, Type 1, BuildingBlock: PAMTOO_clean_linker_0, # of connection points: 3
#     Edge 9, Type (0, 1), BuildingBlock: KIFKEQ_clean_linker_1, # of connection points: 2
#     Edge 10, Type (0, 1), BuildingBlock: KIFKEQ_clean_linker_1, # of connection points: 2
#     Edge 11, Type (0, 1), BuildingBlock: KIFKEQ_clean_linker_1, # of connection points: 2
#     Edge 12, Type (0, 1), BuildingBlock: KIFKEQ_clean_linker_1, # of connection points: 2
#     Edge 13, Type (0, 1), BuildingBlock: KIFKEQ_clean_linker_1, # of connection points: 2
#     Edge 14, Type (0, 1), BuildingBlock: KIFKEQ_clean_linker_1, # of connection points: 2
#     Edge 15, Type (0, 1), BuildingBlock: KIFKEQ_clean_linker_1, # of connection points: 2
#     Edge 16, Type (0, 1), BuildingBlock: KIFKEQ_clean_linker_1, # of connection points: 2
#     Edge 17, Type (0, 1), BuildingBlock: KIFKEQ_clean_linker_1, # of connection points: 2
#     Edge 18, Type (0, 1), BuildingBlock: KIFKEQ_clean_linker_1, # of connection points: 2
#     Edge 19, Type (0, 1), BuildingBlock: KIFKEQ_clean_linker_1, # of connection points: 2
#     Edge 20, Type (0, 1), BuildingBlock: KIFKEQ_clean_linker_1, # of connection points: 2
#     Edge 21, Type (0, 1), BuildingBlock: KIFKEQ_clean_linker_1, # of connection points: 2
#     Edge 22, Type (0, 1), BuildingBlock: KIFKEQ_clean_linker_1, # of connection points: 2
#     Edge 23, Type (0, 1), BuildingBlock: KIFKEQ_clean_linker_1, # of connection points: 2
#     Edge 24, Type (0, 1), BuildingBlock: KIFKEQ_clean_linker_1, # of connection points: 2
#     Edge 25, Type (0, 1), BuildingBlock: KIFKEQ_clean_linker_1, # of connection points: 2
#     Edge 26, Type (0, 1), BuildingBlock: KIFKEQ_clean_linker_1, # of connection points: 2
# Relax obj value: 0.093
# Max RMSD: 0.132
# Mean RMSD: 0.100
data_MOF--net-anh--node1-BETDEL_clean_sbu_0--node2-PAMTOO_clean_linker_0--edge1-KIFKEQ_clean_linker_1
_symmetry_space_group_name_H-M    P1
_symmetry_Int_Tables_number       1
_symmetry_cell_setting            triclinic
loop_
_symmetry_equiv_pos_as_xyz
'x, y, z'
_cell_length_a     30.06307
_cell_length_b     30.063179
_cell_length_c     48.870854
_cell_angle_alpha  86.779824
_cell_angle_beta   91.207934
_cell_angle_gamma 119.83945
loop_
_atom_site_label
_atom_site_type_symbol
_atom_site_fract_x
_atom_site_fract_y
_atom_site_fract_z
_atom_type_partial_charge
Dy0 Dy 0.09903 0.51064 0.15879 0.0
C1 C 0.97717 0.60267 0.17185 0.0
C2 C 0.16154 0.47228 0.14737 0.0
Dy3 Dy 0.04302 0.56782 0.16114 0.0
O4 O 0.13476 0.46193 0.16961 0.0
O5 O 0.15422 0.50372 0.13114 0.0
O6 O 0.07099 0.47591 0.20098 0.0
O7 O 0.08766 0.55147 0.19132 0.0
C8 C 0.07015 0.51549 0.20954 0.0
C9 C 0.07326 0.56396 0.11051 0.0
O10 O 0.12019 0.63176 0.17251 0.0
O11 O 0.16451 0.59371 0.15671 0.0
O12 O 1.00712 0.61648 0.1506 0.0
O13 O 0.98391 0.57038 0.18763 0.0
O14 O 0.07276 0.60352 0.11937 0.0
O15 O 0.05463 0.52721 0.12836 0.0
O16 O 1.02059 0.44493 0.15039 0.0
O17 O 0.97771 0.48561 0.16446 0.0
C18 C 0.16386 0.63466 0.16526 0.0
C19 C 0.97756 0.44349 0.15752 0.0
Dy20 Dy 0.55081 0.06588 0.48947 0.0
C21 C 0.76598 0.18191 0.50408 0.0
C22 C 0.44997 1.00414 0.47713 0.0
Dy23 Dy 0.66462 0.11974 0.49284 0.0
O24 O 0.46684 0.02851 0.49943 0.0
O25 O 0.48824 1.01387 0.46129 0.0
O26 O 0.54667 0.09252 0.53071 0.0
O27 O 0.60424 0.07466 0.52262 0.0
C28 C 0.5874 0.0924 0.53985 0.0
C29 C 0.62793 0.09231 0.44241 0.0
O30 O 0.65072 0.04072 0.50454 0.0
O31 O 0.56671 0.99936 0.48963 0.0
O32 O 0.7481 0.15662 0.48212 0.0
O33 O 0.72832 0.17283 0.52022 0.0
O34 O 0.66809 0.09168 0.45207 0.0
O35 O 0.61117 0.11084 0.45931 0.0
O36 O 0.5651 0.14569 0.47938 0.0
O37 O 0.64872 0.18573 0.49478 0.0
C38 C 0.60857 0.99821 0.49798 0.0
C39 C 0.60707 0.18751 0.48687 0.0
Dy40 Dy 0.65488 0.62091 0.82294 0.0
C41 C 0.56239 0.4023 0.85077 0.0
C42 C 0.68939 0.72251 0.81164 0.0
Dy43 Dy 0.59643 0.49985 0.83006 0.0
O44 O 0.67542 0.69898 0.8356 0.0
O45 O 0.68439 0.69038 0.7934 0.0
O46 O 0.69037 0.62262 0.86384 0.0
O47 O 0.6158 0.56314 0.85636 0.0
C48 C 0.65161 0.58017 0.87355 0.0
C49 C 0.6093 0.53072 0.77641 0.0
O50 O 0.53123 0.51429 0.83736 0.0
O51 O 0.57118 0.60006 0.82103 0.0
O52 O 0.53778 0.41594 0.83314 0.0
O53 O 0.60472 0.44243 0.85773 0.0
O54 O 0.58477 0.48277 0.78501 0.0
O55 O 0.62437 0.55727 0.79705 0.0
O56 O 0.72004 0.60729 0.8143 0.0
O57 O 0.68031 0.52222 0.83162 0.0
C58 C 0.5296 0.55668 0.82972 0.0
C59 C 0.72169 0.56519 0.82252 0.0
H60 H 0.6638 0.14166 0.23838 0.0
H61 H 0.52312 0.9979 0.23253 0.0
H62 H 0.61482 0.07363 0.16032 0.0
H63 H 0.49665 0.99843 0.14537 0.0
C64 C 0.48782 0.98742 0.16749 0.0
O65 O 0.53092 0.99066 0.18026 0.0
H66 H 0.47811 1.0151 0.17615 0.0
C67 C 0.63575 0.11131 0.22613 0.0
C68 C 0.64464 0.11321 0.19787 0.0
C69 C 0.592 0.07024 0.23888 0.0
C70 C 0.55673 0.03022 0.223 0.0
C71 C 0.56447 0.03133 0.19473 0.0
C72 C 0.60835 0.07316 0.18208 0.0
H73 H 0.61136 0.6831 0.57624 0.0
H74 H 0.63043 0.55252 0.5656 0.0
H75 H 0.61698 0.63703 0.49497 0.0
H76 H 0.56594 0.51987 0.48652 0.0
C77 C 0.58271 0.51121 0.50516 0.0
O78 O 0.626 0.55622 0.51225 0.0
H79 H 0.55321 0.49691 0.52175 0.0
C80 C 0.61457 0.6573 0.5628 0.0
C81 C 0.61351 0.66547 0.53425 0.0
C82 C 0.6213 0.61725 0.57427 0.0
C83 C 0.6261 0.58414 0.55695 0.0
C84 C 0.62355 0.59037 0.52843 0.0
C85 C 0.61827 0.63177 0.51702 0.0
H86 H 1.02419 0.55799 0.9059 0.0
H87 H 0.16774 0.55984 0.89986 0.0
H88 H 0.09207 0.57297 0.82672 0.0
H89 H 0.16371 0.52383 0.81631 0.0
C90 C 0.17832 0.53096 0.83762 0.0
O91 O 0.17473 0.57194 0.84668 0.0
H92 H 0.1535 0.4952 0.85029 0.0
C93 C 0.05457 0.55976 0.89349 0.0
C94 C 0.0527 0.56563 0.86483 0.0
C95 C 0.09552 0.55723 0.90638 0.0
C96 C 0.13553 0.56107 0.89024 0.0
C97 C 0.13432 0.56623 0.86159 0.0
C98 C 0.09258 0.56807 0.84883 0.0
H99 H 0.03635 0.47373 0.42113 0.0
H100 H 0.12413 0.63898 0.41194 0.0
H101 H 0.08217 0.5644 0.49213 0.0
H102 H 0.08954 0.6714 0.48771 0.0
C103 C 0.11157 0.68344 0.46811 0.0
O104 O 0.13255 0.65257 0.46435 0.0
H105 H 0.08475 0.68004 0.45121 0.0
C106 C 0.05607 0.51101 0.42994 0.0
C107 C 0.05667 0.51372 0.45854 0.0
C108 C 0.0795 0.55587 0.41271 0.0
C109 C 0.10557 0.60369 0.42465 0.0
C110 C 0.10652 0.60654 0.45317 0.0
C111 C 0.08161 0.56174 0.47009 0.0
H112 H 0.69488 0.04688 0.73131 0.0
H113 H 0.63818 0.1452 0.75534 0.0
H114 H 0.67802 0.06412 0.81682 0.0
H115 H 0.59134 0.07174 0.83645 0.0
C116 C 0.5916 0.09722 0.81898 0.0
O117 O 0.64051 0.12496 0.80803 0.0
H118 H 0.56381 0.07232 0.80353 0.0
C119 C 0.68629 0.06511 0.74729 0.0
C120 C 0.68921 0.05128 0.77494 0.0
C121 C 0.66835 0.09924 0.73995 0.0
C122 C 0.65321 0.11972 0.76061 0.0
C123 C 0.65688 0.10688 0.78821 0.0
C124 C 0.67573 0.0737 0.79533 0.0
H125 H 0.68349 0.57207 0.08509 0.0
H126 H 0.51901 0.49634 0.07828 0.0
H127 H 0.58858 0.51835 0.15763 0.0
H128 H 0.48002 0.41843 0.15476 0.0
C129 C 0.46983 0.43207 0.13529 0.0
O130 O 0.50211 0.48419 0.13105 0.0
H131 H 0.47342 0.41076 0.11832 0.0
C132 C 0.64576 0.55402 0.09455 0.0
C133 C 0.64131 0.54821 0.12323 0.0
C134 C 0.60192 0.53458 0.07805 0.0
C135 C 0.55334 0.51048 0.0906 0.0
C136 C 0.54874 0.50483 0.11921 0.0
C137 C 0.59256 0.52298 0.1355 0.0
H138 H 0.1767 0.40452 0.17949 0.0
H139 H 0.23041 0.50185 0.10538 0.0
H140 H 0.24463 0.38329 0.17528 0.0
H141 H 0.2993 0.48177 0.10146 0.0
H142 H 0.4042 0.4171 0.09281 0.0
H143 H 0.32267 0.41681 0.09385 0.0
H144 H 0.33657 0.43162 0.18154 0.0
H145 H 0.41719 0.43071 0.18036 0.0
C146 C 0.20281 0.42095 0.16214 0.0
C147 C 0.19874 0.45512 0.14286 0.0
C148 C 0.24182 0.40901 0.15981 0.0
C149 C 0.27766 0.4312 0.13819 0.0
C150 C 0.27202 0.46358 0.1182 0.0
C151 C 0.2328 0.47536 0.1205 0.0
C152 C 0.38879 0.41873 0.11233 0.0
C153 C 0.4161 0.4228 0.13659 0.0
C154 C 0.34255 0.41914 0.11292 0.0
C155 C 0.32315 0.42422 0.13777 0.0
C156 C 0.3499 0.42669 0.16214 0.0
C157 C 0.39605 0.42623 0.16152 0.0
H158 H 0.84505 0.20637 0.46972 0.0
H159 H 0.80682 0.25087 0.54424 0.0
H160 H 0.92625 0.28573 0.4671 0.0
H161 H 0.8897 0.33034 0.54236 0.0
H162 H 0.97941 0.49071 0.49421 0.0
H163 H 0.91832 0.40591 0.5137 0.0
H164 H 1.00869 0.34463 0.48159 0.0
H165 H 0.06822 0.42939 0.46092 0.0
C166 C 0.8549 0.23253 0.48608 0.0
C167 C 0.81941 0.2231 0.50687 0.0
C168 C 0.90182 0.27805 0.48475 0.0
C169 C 0.91443 0.31506 0.50432 0.0
C170 C 0.88076 0.3032 0.52663 0.0
C171 C 0.83349 0.25757 0.52785 0.0
C172 C 0.98681 0.45929 0.49204 0.0
C173 C 1.02779 0.46606 0.47579 0.0
C174 C 0.95199 0.41063 0.50333 0.0
C175 C 0.95797 0.36802 0.49881 0.0
C176 C 1.00214 0.37625 0.48486 0.0
C177 C 0.03638 0.42472 0.47316 0.0
H178 H 0.70724 0.79177 0.84931 0.0
H179 H 0.70304 0.77482 0.76197 0.0
H180 H 0.71827 0.87735 0.84142 0.0
H181 H 0.71341 0.86078 0.754 0.0
H182 H 0.75965 0.03177 0.75123 0.0
H183 H 0.77008 0.95652 0.76018 0.0
H184 H 0.65446 0.90094 0.82385 0.0
H185 H 0.64304 0.9746 0.81462 0.0
C186 C 0.70937 0.80671 0.82839 0.0
C187 C 0.70359 0.77659 0.80622 0.0
C188 C 0.71558 0.85563 0.8239 0.0
C189 C 0.71597 0.87537 0.79713 0.0
C190 C 0.71346 0.84654 0.77485 0.0
C191 C 0.7073 0.79738 0.77938 0.0
C192 C 0.73664 1.00353 0.76721 0.0
C193 C 0.70057 1.00934 0.78225 0.0
C194 C 0.7427 0.96059 0.77232 0.0
C195 C 0.71324 0.92307 0.79276 0.0
C196 C 0.67843 0.92973 0.80831 0.0
C197 C 0.67204 0.97219 0.80307 0.0
H198 H 0.90209 0.56474 0.21119 0.0
H199 H 0.95318 0.65952 0.13617 0.0
H200 H 0.81987 0.5627 0.20773 0.0
H201 H 0.87111 0.65587 0.13192 0.0
H202 H 0.66528 0.49179 0.15946 0.0
H203 H 0.74919 0.51698 0.17898 0.0
H204 H 0.80611 0.67176 0.14455 0.0
H205 H 0.72253 0.64518 0.12382 0.0
C206 C 0.89613 0.58613 0.19433 0.0
C207 C 0.9335 0.61163 0.17371 0.0
C208 C 0.84892 0.58462 0.19219 0.0
C209 C 0.83826 0.60821 0.16926 0.0
C210 C 0.87771 0.63752 0.15001 0.0
C211 C 0.92488 0.63938 0.1523 0.0
C212 C 0.69552 0.53144 0.15671 0.0
C213 C 0.68804 0.56643 0.1399 0.0
C214 C 0.74363 0.54613 0.16803 0.0
C215 C 0.7849 0.59634 0.16301 0.0
C216 C 0.77566 0.63248 0.14825 0.0
C217 C 0.72784 0.61747 0.13651 0.0
H218 H 0.3678 0.98156 0.50902 0.0
H219 H 0.41113 0.93894 0.43546 0.0
H220 H 0.28067 0.90969 0.5054 0.0
H221 H 0.32435 0.86622 0.43213 0.0
H222 H 0.156 0.75264 0.42477 0.0
H223 H 0.23393 0.83686 0.42482 0.0
H224 H 0.2442 0.81763 0.51265 0.0
H225 H 0.16587 0.73428 0.51243 0.0
C226 C 0.35842 0.95713 0.49188 0.0
C227 C 0.3961 0.96542 0.47262 0.0
C228 C 0.30867 0.91583 0.4899 0.0
C229 C 0.29572 0.8819 0.46866 0.0
C230 C 0.3329 0.89188 0.4486 0.0
C231 C 0.38267 0.93336 0.45055 0.0
C232 C 0.1744 0.76732 0.44409 0.0
C233 C 0.15462 0.73782 0.46868 0.0
C234 C 0.21916 0.81514 0.44412 0.0
C235 C 0.24521 0.834 0.46874 0.0
C236 C 0.22455 0.80476 0.4934 0.0
C237 C 0.17982 0.75703 0.49334 0.0
H238 H 0.62046 0.37023 0.87961 0.0
H239 H 0.48292 0.31537 0.83125 0.0
H240 H 0.61789 0.28856 0.87611 0.0
H241 H 0.47947 0.23291 0.82827 0.0
H242 H 0.55258 0.14739 0.78786 0.0
H243 H 0.53429 0.21354 0.80146 0.0
H244 H 0.57763 0.19641 0.88464 0.0
H245 H 0.59692 0.13082 0.87062 0.0
C246 C 0.58863 0.33999 0.86906 0.0
C247 C 0.55233 0.34927 0.85534 0.0
C248 C 0.58706 0.29307 0.86709 0.0
C249 C 0.54902 0.25458 0.85143 0.0
C250 C 0.50991 0.26227 0.83996 0.0
C251 C 0.51158 0.30927 0.84187 0.0
C252 C 0.5572 0.15724 0.80912 0.0
C253 C 0.57546 0.13382 0.82829 0.0
C254 C 0.54642 0.19479 0.81701 0.0
C255 C 0.55407 0.20997 0.84423 0.0
C256 C 0.57145 0.18566 0.86353 0.0
C257 C 0.58228 0.14807 0.85558 0.0
H258 H 0.68953 0.98144 0.50765 0.0
H259 H 0.52616 0.90092 0.49383 0.0
H260 H 0.68837 0.89958 0.51243 0.0
H261 H 0.52513 0.81905 0.49859 0.0
H262 H 0.53918 0.68773 0.54698 0.0
H263 H 0.53693 0.76674 0.53572 0.0
H264 H 0.67434 0.82425 0.48669 0.0
H265 H 0.67637 0.74462 0.49808 0.0
C266 C 0.65333 0.94635 0.50556 0.0
C267 C 0.60788 0.94805 0.50052 0.0
C268 C 0.65277 0.89931 0.50807 0.0
C269 C 0.60667 0.85251 0.50588 0.0
C270 C 0.56128 0.85422 0.50062 0.0
C271 C 0.56192 0.9013 0.49782 0.0
C272 C 0.56838 0.71687 0.53337 0.0
C273 C 0.60789 0.70986 0.52337 0.0
C274 C 0.56706 0.76219 0.52686 0.0
C275 C 0.60564 0.80222 0.51043 0.0
C276 C 0.64429 0.7945 0.49964 0.0
C277 C 0.64518 0.74868 0.50587 0.0
H278 H 0.81863 0.64946 0.81726 0.0
H279 H 0.73984 0.48439 0.83021 0.0
H280 H 0.90094 0.65219 0.82298 0.0
H281 H 0.82205 0.48725 0.8359 0.0
H282 H 0.98215 0.50592 0.82688 0.0
H283 H 0.90369 0.50699 0.81266 0.0
H284 H 0.94639 0.63688 0.86196 0.0
H285 H 1.02407 0.63546 0.87608 0.0
C286 C 0.81873 0.61366 0.82099 0.0
C287 C 0.77226 0.56672 0.82337 0.0
C288 C 0.86605 0.61526 0.82442 0.0
C289 C 0.86835 0.56995 0.83 0.0
C290 C 0.82196 0.52289 0.83137 0.0
C291 C 0.77465 0.52132 0.82827 0.0
C292 C 0.97512 0.53526 0.83417 0.0
C293 C 1.00932 0.57065 0.85255 0.0
C294 C 0.92997 0.53563 0.82626 0.0
C295 C 0.91842 0.57193 0.83622 0.0
C296 C 0.95401 0.60867 0.85364 0.0
C297 C 0.99855 0.60779 0.86182 0.0
H298 H 0.25951 0.66311 0.14446 0.0
H299 H 0.17945 0.71971 0.19109 0.0
H300 H 0.33792 0.74641 0.14625 0.0
H301 H 0.25774 0.80192 0.19379 0.0
H302 H 0.38707 0.96103 0.16742 0.0
H303 H 0.31103 0.87636 0.16741 0.0
H304 H 0.40684 0.80661 0.17247 0.0
H305 H 0.48324 0.89214 0.17139 0.0
C306 C 0.2587 0.69309 0.15536 0.0
C307 C 0.2128 0.68454 0.16743 0.0
C308 C 0.30391 0.74099 0.15654 0.0
C309 C 0.30466 0.78167 0.17 0.0
C310 C 0.25888 0.77239 0.18265 0.0
C311 C 0.21375 0.72482 0.18125 0.0
C312 C 0.39188 0.92758 0.16894 0.0
C313 C 0.44131 0.93354 0.1702 0.0
C314 C 0.34811 0.87874 0.16903 0.0
C315 C 0.35213 0.83391 0.17028 0.0
C316 C 0.40179 0.83989 0.17134 0.0
C317 C 0.44577 0.88903 0.17108 0.0
H318 H 0.53096 0.20849 0.47053 0.0
H319 H 0.68294 0.27967 0.50502 0.0
H320 H 0.52918 0.28821 0.47396 0.0
H321 H 0.68139 0.35965 0.50812 0.0
H322 H 0.63208 0.47318 0.53907 0.0
H323 H 0.64036 0.39699 0.53365 0.0
H324 H 0.56546 0.37527 0.4552 0.0
H325 H 0.55683 0.45079 0.4609 0.0
C326 C 0.56425 0.24121 0.47862 0.0
C327 C 0.60711 0.2373 0.48743 0.0
C328 C 0.56335 0.28722 0.48048 0.0
C329 C 0.60517 0.33078 0.49133 0.0
C330 C 0.6482 0.32696 0.49995 0.0
C331 C 0.64922 0.28101 0.49795 0.0
C332 C 0.61837 0.45262 0.52045 0.0
C333 C 0.59459 0.46861 0.50023 0.0
C334 C 0.62301 0.40885 0.51731 0.0
C335 C 0.60338 0.37949 0.494 0.0
C336 C 0.58045 0.39625 0.47359 0.0
C337 C 0.57601 0.44 0.47671 0.0
H338 H 0.50759 0.63326 0.81421 0.0
H339 H 0.43731 0.47809 0.84958 0.0
H340 H 0.4257 0.63144 0.81752 0.0
H341 H 0.35559 0.47609 0.85252 0.0
H342 H 0.22562 0.50147 0.87764 0.0
H343 H 0.31109 0.51046 0.87668 0.0
H344 H 0.34052 0.59292 0.79785 0.0
H345 H 0.25509 0.58424 0.79917 0.0
C346 C 0.47477 0.59868 0.82266 0.0
C347 C 0.47946 0.55581 0.8316 0.0
C348 C 0.42758 0.59756 0.82445 0.0
C349 C 0.38367 0.55366 0.83538 0.0
C350 C 0.3885 0.51093 0.84438 0.0
C351 C 0.43554 0.51195 0.84249 0.0
C352 C 0.25061 0.5219 0.86025 0.0
C353 C 0.23338 0.54156 0.83832 0.0
C354 C 0.29952 0.52675 0.85955 0.0
C355 C 0.33284 0.55181 0.83699 0.0
C356 C 0.31629 0.57353 0.81563 0.0
C357 C 0.26724 0.56848 0.8163 0.0
H358 H 0.8799 0.42729 0.16388 0.0
H359 H 0.96268 0.34595 0.15404 0.0
H360 H 0.79988 0.34561 0.16928 0.0
H361 H 0.88249 0.2642 0.15948 0.0
H362 H 0.74217 0.13769 0.21107 0.0
H363 H 0.82191 0.2157 0.19774 0.0
H364 H 0.73672 0.26709 0.14569 0.0
H365 H 0.65666 0.18828 0.15907 0.0
C366 C 0.88109 0.39205 0.16259 0.0
C367 C 0.92809 0.39351 0.1586 0.0
C368 C 0.83498 0.34507 0.16553 0.0
C369 C 0.83449 0.29807 0.16489 0.0
C370 C 0.88134 0.29953 0.16033 0.0
C371 C 0.9274 0.34654 0.15707 0.0
C372 C 0.74066 0.16517 0.19631 0.0
C373 C 0.69321 0.15669 0.18596 0.0
C374 C 0.7864 0.20993 0.18862 0.0
C375 C 0.78598 0.24802 0.17068 0.0
C376 C 0.73853 0.23883 0.1597 0.0
C377 C 0.6927 0.19349 0.16711 0.0
H378 H 0.04678 0.47681 0.08335 0.0
H379 H 0.12101 0.6419 0.07225 0.0
H380 H 0.05649 0.4711 0.03412 0.0
H381 H 0.13094 0.63633 0.0234 0.0
H382 H 0.17604 0.61311 0.94002 0.0
H383 H 0.17577 0.61109 0.99014 0.0
H384 H 1.01769 0.48959 0.99146 0.0
H385 H 1.01812 0.49129 0.9414 0.0
C386 C 0.06568 0.51181 0.07045 0.0
C387 C 0.08285 0.55978 0.08151 0.0
C388 C 0.07105 0.50856 0.04231 0.0
C389 C 0.09446 0.55328 0.0249 0.0
C390 C 0.11325 0.60124 0.03628 0.0
C391 C 0.10727 0.60441 0.06423 0.0
C392 C 0.14155 0.58537 0.95105 0.0
C393 C 0.097 0.5526 0.93679 0.0
C394 C 0.14128 0.58445 0.97971 0.0
C395 C 0.09664 0.55033 -0.00527 0.0
C396 C 0.05278 0.51603 0.98049 0.0
C397 C 0.05288 0.51733 0.95184 0.0
H398 H 0.56668 0.12051 0.41245 0.0
H399 H 0.65346 0.04212 0.40741 0.0
H400 H 0.54802 0.1104 0.36326 0.0
H401 H 0.63487 0.03188 0.35872 0.0
H402 H 0.5655 0.98874 0.27558 0.0
H403 H 0.56387 0.98853 0.32557 0.0
H404 H 0.60266 0.14769 0.32035 0.0
H405 H 0.60354 0.14768 0.27035 0.0
C406 C 0.58114 0.10059 0.40091 0.0
C407 C 0.61181 0.08243 0.41361 0.0
C408 C 0.57067 0.09497 0.37281 0.0
C409 C 0.58998 0.07033 0.35713 0.0
C410 C 0.61892 0.05049 0.37024 0.0
C411 C 0.62989 0.05669 0.3981 0.0
C412 C 0.5726 1.02334 0.2851 0.0
C413 C 0.58507 0.06835 0.26905 0.0
C414 C 0.57202 1.02333 0.31371 0.0
C415 C 0.58346 0.06819 0.3269 0.0
C416 C 0.59334 0.11244 0.31082 0.0
C417 C 0.59435 0.11257 0.2822 0.0
H418 H 0.67996 0.62335 0.75182 0.0
H419 H 0.54573 0.47833 0.7359 0.0
H420 H 0.68589 0.64932 0.70261 0.0
H421 H 0.55073 0.50482 0.68739 0.0
H422 H 0.54981 0.60717 0.61102 0.0
H423 H 0.54907 0.59163 0.66085 0.0
H424 H 0.69408 0.59573 0.65546 0.0
H425 H 0.6943 0.61002 0.60538 0.0
C426 C 0.65152 0.59748 0.73789 0.0
C427 C 0.61241 0.54894 0.74752 0.0
C428 C 0.65503 0.61214 0.70987 0.0
C429 C 0.61865 0.57893 0.69144 0.0
C430 C 0.57903 0.53104 0.70128 0.0
C431 C 0.5763 0.51595 0.72898 0.0
C432 C 0.58165 0.60509 0.62053 0.0
C433 C 0.62198 0.60949 0.60445 0.0
C434 C 0.58125 0.59633 0.64893 0.0
C435 C 0.62173 0.59301 0.66181 0.0
C436 C 0.66278 0.59875 0.6459 0.0
C437 C 0.66265 0.60642 0.61737 0.0
H438 H 0.65489 0.06946 0.56612 0.0
H439 H 0.5599 0.13732 0.57762 0.0
H440 H 0.67816 0.07862 0.61436 0.0
H441 H 0.58483 0.14881 0.62565 0.0
H442 H 0.58313 0.09249 0.7155 0.0
H443 H 0.56772 0.0975 0.66661 0.0
H444 H 0.72341 0.13477 0.64938 0.0
H445 H 0.73786 0.12777 0.69838 0.0
C446 C 0.63967 0.08711 0.57894 0.0
C447 C 0.60516 0.10213 0.56833 0.0
C448 C 0.65329 0.09278 0.60656 0.0
C449 C 0.63318 0.11425 0.62404 0.0
C450 C 0.60022 0.13115 0.61298 0.0
C451 C 0.58614 0.12486 0.58545 0.0
C452 C 0.61425 0.10266 0.70124 0.0
C453 C 0.66157 0.10951 0.71064 0.0
C454 C 0.60555 0.10567 0.67318 0.0
C455 C 0.64421 0.11618 0.65393 0.0
C456 C 0.69239 0.12548 0.66354 0.0
C457 C 0.70084 0.12184 0.69158 0.0
H458 H 0.5621 0.51562 0.90086 0.0
H459 H 0.7249 0.61195 0.91263 0.0
H460 H 0.54904 0.50227 0.95044 0.0
H461 H 0.71239 0.59713 0.96211 0.0
H462 H 0.66666 0.61872 0.04601 0.0
H463 H 0.67836 0.62491 -0.00346 0.0
H464 H 0.5619 0.46524 -0.00761 0.0
H465 H 0.54946 0.45963 0.04198 0.0
C466 C 0.59519 0.53301 0.91409 0.0
C467 C 0.64444 0.56529 0.90303 0.0
C468 C 0.58777 0.52529 0.94249 0.0
C469 C 0.62958 0.54933 0.96031 0.0
C470 C 0.67917 0.57919 0.94903 0.0
C471 C 0.68646 0.58731 0.92069 0.0
C472 C 0.64365 0.58497 0.0345 0.0
C473 C 0.60725 0.5387 0.04781 0.0
C474 C 0.65053 0.58835 0.00616 0.0
C475 C 0.62151 0.54537 0.99047 0.0
C476 C 0.58459 0.49919 0.00379 0.0
C477 C 0.57742 0.49595 0.03217 0.0
H478 H 1.03156 0.44166 0.25071 0.0
H479 H 0.09916 0.60525 0.23407 0.0
H480 H 1.03118 0.45351 0.29972 0.0
H481 H 0.09899 0.61717 0.28323 0.0
H482 H 0.99609 0.4911 0.38305 0.0
H483 H 0.99022 0.48271 0.33363 0.0
H484 H 0.1469 0.60561 0.32415 0.0
H485 H 0.15346 0.61332 0.37374 0.0
C486 C 0.04587 0.48008 0.25756 0.0
C487 C 0.06562 0.52255 0.23871 0.0
C488 C 0.04548 0.48684 0.28556 0.0
C489 C 0.0653 0.53629 0.29524 0.0
C490 C 0.08397 0.57871 0.2763 0.0
C491 C 0.08377 0.57185 0.24823 0.0
C492 C 1.02953 0.51604 0.37051 0.0
C493 C 0.07548 0.55249 0.38244 0.0
C494 C 1.02599 0.51138 0.34219 0.0
C495 C 0.06811 0.54342 0.3251 0.0
C496 C 0.11364 0.5808 0.33685 0.0
C497 C 0.11736 0.58518 0.36524 0.0
loop_
_geom_bond_atom_site_label_1
_geom_bond_atom_site_label_2
_geom_bond_distance
_geom_bond_site_symmetry_2
_ccdc_geom_bond_type
Dy0 O4 2.398 . S
Dy0 O5 2.491 . S
Dy0 O6 2.403 . S
Dy0 O7 2.664 1_455 S
Dy0 O11 2.326 . S
Dy0 O15 2.310 . S
Dy0 O16 2.351 1_455 S
C1 O12 1.185 . S
C1 O13 1.355 . S
C2 O4 1.185 . S
C2 O5 1.355 . S
Dy3 O7 2.310 . S
Dy3 O10 2.351 1_655 S
Dy3 O12 2.398 . S
Dy3 O13 2.491 . S
Dy3 O14 2.403 . S
Dy3 O15 2.664 1_655 S
Dy3 O17 2.326 . S
O4 Dy0 2.398 . S
O4 C2 1.185 . S
O5 Dy0 2.491 . S
O5 C2 1.355 . S
O6 Dy0 2.403 . S
O6 C8 1.254 . S
O7 Dy0 2.664 1_655 S
O7 Dy3 2.310 . S
O7 C8 1.268 1_655 S
C8 O6 1.254 . S
C8 O7 1.268 1_455 S
C9 O14 1.254 1_455 S
C9 O15 1.268 . S
O10 Dy3 2.351 1_455 S
O10 C18 1.249 . S
O11 Dy0 2.326 . S
O11 C18 1.267 . S
O12 C1 1.185 . S
O12 Dy3 2.398 . S
O13 C1 1.355 . S
O13 Dy3 2.491 . S
O14 Dy3 2.403 . S
O14 C9 1.254 1_655 S
O15 Dy0 2.310 . S
O15 Dy3 2.664 1_455 S
O15 C9 1.268 . S
O16 Dy0 2.351 1_655 S
O16 C19 1.249 . S
O17 Dy3 2.326 . S
O17 C19 1.267 . S
C18 O10 1.249 . S
C18 O11 1.267 . S
C19 O16 1.249 . S
C19 O17 1.267 . S
Dy20 O24 2.398 1_545 S
Dy20 O25 2.491 1_545 S
Dy20 O26 2.403 . S
Dy20 O27 2.664 . S
Dy20 O31 2.326 1_545 S
Dy20 O35 2.310 . S
Dy20 O36 2.351 . S
C21 O32 1.185 . S
C21 O33 1.355 . S
C22 O24 1.185 . S
C22 O25 1.355 . S
Dy23 O27 2.310 . S
Dy23 O30 2.351 1_545 S
Dy23 O32 2.398 . S
Dy23 O33 2.491 . S
Dy23 O34 2.403 . S
Dy23 O35 2.664 . S
Dy23 O37 2.326 . S
O24 Dy20 2.398 1_565 S
O24 C22 1.185 . S
O25 Dy20 2.491 1_565 S
O25 C22 1.355 . S
O26 Dy20 2.403 . S
O26 C28 1.254 . S
O27 Dy20 2.664 . S
O27 Dy23 2.310 . S
O27 C28 1.268 . S
C28 O26 1.254 . S
C28 O27 1.268 . S
C29 O34 1.254 . S
C29 O35 1.268 . S
O30 Dy23 2.351 1_565 S
O30 C38 1.249 . S
O31 Dy20 2.326 1_565 S
O31 C38 1.267 . S
O32 C21 1.185 . S
O32 Dy23 2.398 . S
O33 C21 1.355 . S
O33 Dy23 2.491 . S
O34 Dy23 2.403 . S
O34 C29 1.254 . S
O35 Dy20 2.310 . S
O35 Dy23 2.664 . S
O35 C29 1.268 . S
O36 Dy20 2.351 . S
O36 C39 1.249 . S
O37 Dy23 2.326 . S
O37 C39 1.267 . S
C38 O30 1.249 . S
C38 O31 1.267 . S
C39 O36 1.249 . S
C39 O37 1.267 . S
Dy40 O44 2.398 . S
Dy40 O45 2.491 . S
Dy40 O46 2.403 . S
Dy40 O47 2.664 . S
Dy40 O51 2.326 . S
Dy40 O55 2.310 . S
Dy40 O56 2.351 . S
C41 O52 1.185 . S
C41 O53 1.355 . S
C42 O44 1.185 . S
C42 O45 1.355 . S
Dy43 O47 2.310 . S
Dy43 O50 2.351 . S
Dy43 O52 2.398 . S
Dy43 O53 2.491 . S
Dy43 O54 2.403 . S
Dy43 O55 2.664 . S
Dy43 O57 2.326 . S
O44 Dy40 2.398 . S
O44 C42 1.185 . S
O45 Dy40 2.491 . S
O45 C42 1.355 . S
O46 Dy40 2.403 . S
O46 C48 1.254 . S
O47 Dy40 2.664 . S
O47 Dy43 2.310 . S
O47 C48 1.268 . S
C48 O46 1.254 . S
C48 O47 1.268 . S
C49 O54 1.254 . S
C49 O55 1.268 . S
O50 Dy43 2.351 . S
O50 C58 1.249 . S
O51 Dy40 2.326 . S
O51 C58 1.267 . S
O52 C41 1.185 . S
O52 Dy43 2.398 . S
O53 C41 1.355 . S
O53 Dy43 2.491 . S
O54 Dy43 2.403 . S
O54 C49 1.254 . S
O55 Dy40 2.310 . S
O55 Dy43 2.664 . S
O55 C49 1.268 . S
O56 Dy40 2.351 . S
O56 C59 1.249 . S
O57 Dy43 2.326 . S
O57 C59 1.267 . S
C58 O50 1.249 . S
C58 O51 1.267 . S
C59 O56 1.249 . S
C59 O57 1.267 . S
H60 C67 0.929 . S
H61 C70 0.930 . S
H62 C72 0.929 . S
H63 C64 0.969 . S
C64 H63 0.969 . S
C64 O65 1.550 . S
C64 H66 0.973 . S
O65 C64 1.550 . S
O65 C71 1.412 . S
H66 C64 0.973 . S
C67 H60 0.929 . S
C67 C68 1.400 . S
C67 C69 1.364 . S
C68 C67 1.400 . S
C68 C72 1.377 . S
C69 C67 1.364 . S
C69 C70 1.374 1_545 S
C70 H61 0.930 . S
C70 C69 1.374 1_565 S
C70 C71 1.383 . S
C71 O65 1.412 . S
C71 C70 1.383 . S
C71 C72 1.394 1_565 S
C72 H62 0.929 . S
C72 C68 1.377 . S
C72 C71 1.394 1_545 S
H73 C80 0.929 . S
H74 C83 0.930 . S
H75 C85 0.929 . S
H76 C77 0.969 . S
C77 H76 0.969 . S
C77 O78 1.550 . S
C77 H79 0.973 . S
O78 C77 1.550 . S
O78 C84 1.412 . S
H79 C77 0.973 . S
C80 H73 0.929 . S
C80 C81 1.400 . S
C80 C82 1.364 . S
C81 C80 1.400 . S
C81 C85 1.377 . S
C82 C80 1.364 . S
C82 C83 1.374 . S
C83 H74 0.930 . S
C83 C82 1.374 . S
C83 C84 1.383 . S
C84 O78 1.412 . S
C84 C83 1.383 . S
C84 C85 1.394 . S
C85 H75 0.929 . S
C85 C81 1.377 . S
C85 C84 1.394 . S
H86 C93 0.929 . S
H87 C96 0.930 . S
H88 C98 0.929 . S
H89 C90 0.969 . S
C90 H89 0.969 . S
C90 O91 1.550 . S
C90 H92 0.973 . S
O91 C90 1.550 . S
O91 C97 1.412 . S
H92 C90 0.973 . S
C93 H86 0.929 . S
C93 C94 1.400 . S
C93 C95 1.364 . S
C94 C93 1.400 . S
C94 C98 1.377 . S
C95 C93 1.364 . S
C95 C96 1.374 . S
C96 H87 0.930 . S
C96 C95 1.374 . S
C96 C97 1.383 . S
C97 O91 1.412 . S
C97 C96 1.383 . S
C97 C98 1.394 . S
C98 H88 0.929 . S
C98 C94 1.377 . S
C98 C97 1.394 . S
H99 C106 0.929 . S
H100 C109 0.930 . S
H101 C111 0.929 . S
H102 C103 0.969 . S
C103 H102 0.969 . S
C103 O104 1.550 . S
C103 H105 0.973 . S
O104 C103 1.550 . S
O104 C110 1.412 . S
H105 C103 0.973 . S
C106 H99 0.929 . S
C106 C107 1.400 . S
C106 C108 1.364 1_655 S
C107 C106 1.400 . S
C107 C111 1.377 1_655 S
C108 C106 1.364 1_455 S
C108 C109 1.374 . S
C109 H100 0.930 . S
C109 C108 1.374 . S
C109 C110 1.383 . S
C110 O104 1.412 . S
C110 C109 1.383 . S
C110 C111 1.394 . S
C111 H101 0.929 . S
C111 C107 1.377 1_455 S
C111 C110 1.394 . S
H112 C119 0.929 1_565 S
H113 C122 0.930 . S
H114 C124 0.929 . S
H115 C116 0.969 . S
C116 H115 0.969 . S
C116 O117 1.550 . S
C116 H118 0.973 . S
O117 C116 1.550 . S
O117 C123 1.412 . S
H118 C116 0.973 . S
C119 H112 0.929 1_545 S
C119 C120 1.400 . S
C119 C121 1.364 . S
C120 C119 1.400 . S
C120 C124 1.377 . S
C121 C119 1.364 . S
C121 C122 1.374 . S
C122 H113 0.930 . S
C122 C121 1.374 . S
C122 C123 1.383 . S
C123 O117 1.412 . S
C123 C122 1.383 . S
C123 C124 1.394 . S
C124 H114 0.929 . S
C124 C120 1.377 . S
C124 C123 1.394 . S
H125 C132 0.929 . S
H126 C135 0.930 . S
H127 C137 0.929 . S
H128 C129 0.969 . S
C129 H128 0.969 . S
C129 O130 1.550 . S
C129 H131 0.973 . S
O130 C129 1.550 . S
O130 C136 1.412 . S
H131 C129 0.973 . S
C132 H125 0.929 . S
C132 C133 1.400 . S
C132 C134 1.364 . S
C133 C132 1.400 . S
C133 C137 1.377 . S
C134 C132 1.364 . S
C134 C135 1.374 . S
C135 H126 0.930 . S
C135 C134 1.374 . S
C135 C136 1.383 . S
C136 O130 1.412 . S
C136 C135 1.383 . S
C136 C137 1.394 . S
C137 H127 0.929 . S
C137 C133 1.377 . S
C137 C136 1.394 . S
H138 C146 0.950 . S
H139 C151 0.950 . S
H140 C148 0.950 . S
H141 C150 0.950 . S
H142 C152 0.950 . S
H143 C154 0.950 . S
H144 C156 0.950 . S
H145 C157 0.950 . S
C146 H138 0.950 . S
C146 C147 1.386 . S
C146 C148 1.391 . S
C147 C146 1.386 . S
C147 C151 1.393 . S
C148 H140 0.950 . S
C148 C146 1.391 . S
C148 C149 1.400 . S
C149 C148 1.400 . S
C149 C150 1.398 . S
C149 C155 1.491 . S
C150 H141 0.950 . S
C150 C149 1.398 . S
C150 C151 1.391 . S
C151 H139 0.950 . S
C151 C147 1.393 . S
C151 C150 1.391 . S
C152 H142 0.950 . S
C152 C153 1.386 . S
C152 C154 1.391 . S
C153 C152 1.386 . S
C153 C157 1.393 . S
C154 H143 0.950 . S
C154 C152 1.391 . S
C154 C155 1.400 . S
C155 C149 1.491 . S
C155 C154 1.400 . S
C155 C156 1.398 . S
C156 H144 0.950 . S
C156 C155 1.398 . S
C156 C157 1.391 . S
C157 H145 0.950 . S
C157 C153 1.393 . S
C157 C156 1.391 . S
H158 C166 0.950 . S
H159 C171 0.950 . S
H160 C168 0.950 . S
H161 C170 0.950 . S
H162 C172 0.950 . S
H163 C174 0.950 . S
H164 C176 0.950 . S
H165 C177 0.950 . S
C166 H158 0.950 . S
C166 C167 1.386 . S
C166 C168 1.391 . S
C167 C166 1.386 . S
C167 C171 1.393 . S
C168 H160 0.950 . S
C168 C166 1.391 . S
C168 C169 1.400 . S
C169 C168 1.400 . S
C169 C170 1.398 . S
C169 C175 1.491 . S
C170 H161 0.950 . S
C170 C169 1.398 . S
C170 C171 1.391 . S
C171 H159 0.950 . S
C171 C167 1.393 . S
C171 C170 1.391 . S
C172 H162 0.950 . S
C172 C173 1.386 . S
C172 C174 1.391 . S
C173 C172 1.386 . S
C173 C177 1.393 . S
C174 H163 0.950 . S
C174 C172 1.391 . S
C174 C175 1.400 . S
C175 C169 1.491 . S
C175 C174 1.400 . S
C175 C176 1.398 . S
C176 H164 0.950 . S
C176 C175 1.398 . S
C176 C177 1.391 . S
C177 H165 0.950 . S
C177 C173 1.393 . S
C177 C176 1.391 . S
H178 C186 0.950 . S
H179 C191 0.950 . S
H180 C188 0.950 . S
H181 C190 0.950 . S
H182 C192 0.950 . S
H183 C194 0.950 . S
H184 C196 0.950 . S
H185 C197 0.950 . S
C186 H178 0.950 . S
C186 C187 1.386 . S
C186 C188 1.391 . S
C187 C186 1.386 . S
C187 C191 1.393 . S
C188 H180 0.950 . S
C188 C186 1.391 . S
C188 C189 1.400 . S
C189 C188 1.400 . S
C189 C190 1.398 . S
C189 C195 1.491 . S
C190 H181 0.950 . S
C190 C189 1.398 . S
C190 C191 1.391 . S
C191 H179 0.950 . S
C191 C187 1.393 . S
C191 C190 1.391 . S
C192 H182 0.950 . S
C192 C193 1.386 . S
C192 C194 1.391 . S
C193 C192 1.386 . S
C193 C197 1.393 . S
C194 H183 0.950 . S
C194 C192 1.391 . S
C194 C195 1.400 . S
C195 C189 1.491 . S
C195 C194 1.400 . S
C195 C196 1.398 . S
C196 H184 0.950 . S
C196 C195 1.398 . S
C196 C197 1.391 . S
C197 H185 0.950 . S
C197 C193 1.393 . S
C197 C196 1.391 . S
H198 C206 0.950 . S
H199 C211 0.950 . S
H200 C208 0.950 . S
H201 C210 0.950 . S
H202 C212 0.950 . S
H203 C214 0.950 . S
H204 C216 0.950 . S
H205 C217 0.950 . S
C206 H198 0.950 . S
C206 C207 1.386 . S
C206 C208 1.391 . S
C207 C206 1.386 . S
C207 C211 1.393 . S
C208 H200 0.950 . S
C208 C206 1.391 . S
C208 C209 1.400 . S
C209 C208 1.400 . S
C209 C210 1.398 . S
C209 C215 1.491 . S
C210 H201 0.950 . S
C210 C209 1.398 . S
C210 C211 1.391 . S
C211 H199 0.950 . S
C211 C207 1.393 . S
C211 C210 1.391 . S
C212 H202 0.950 . S
C212 C213 1.386 . S
C212 C214 1.391 . S
C213 C212 1.386 . S
C213 C217 1.393 . S
C214 H203 0.950 . S
C214 C212 1.391 . S
C214 C215 1.400 . S
C215 C209 1.491 . S
C215 C214 1.400 . S
C215 C216 1.398 . S
C216 H204 0.950 . S
C216 C215 1.398 . S
C216 C217 1.391 . S
C217 H205 0.950 . S
C217 C213 1.393 . S
C217 C216 1.391 . S
H218 C226 0.950 . S
H219 C231 0.950 . S
H220 C228 0.950 . S
H221 C230 0.950 . S
H222 C232 0.950 . S
H223 C234 0.950 . S
H224 C236 0.950 . S
H225 C237 0.950 . S
C226 H218 0.950 . S
C226 C227 1.386 . S
C226 C228 1.391 . S
C227 C226 1.386 . S
C227 C231 1.393 . S
C228 H220 0.950 . S
C228 C226 1.391 . S
C228 C229 1.400 . S
C229 C228 1.400 . S
C229 C230 1.398 . S
C229 C235 1.491 . S
C230 H221 0.950 . S
C230 C229 1.398 . S
C230 C231 1.391 . S
C231 H219 0.950 . S
C231 C227 1.393 . S
C231 C230 1.391 . S
C232 H222 0.950 . S
C232 C233 1.386 . S
C232 C234 1.391 . S
C233 C232 1.386 . S
C233 C237 1.393 . S
C234 H223 0.950 . S
C234 C232 1.391 . S
C234 C235 1.400 . S
C235 C229 1.491 . S
C235 C234 1.400 . S
C235 C236 1.398 . S
C236 H224 0.950 . S
C236 C235 1.398 . S
C236 C237 1.391 . S
C237 H225 0.950 . S
C237 C233 1.393 . S
C237 C236 1.391 . S
H238 C246 0.950 . S
H239 C251 0.950 . S
H240 C248 0.950 . S
H241 C250 0.950 . S
H242 C252 0.950 . S
H243 C254 0.950 . S
H244 C256 0.950 . S
H245 C257 0.950 . S
C246 H238 0.950 . S
C246 C247 1.386 . S
C246 C248 1.391 . S
C247 C246 1.386 . S
C247 C251 1.393 . S
C248 H240 0.950 . S
C248 C246 1.391 . S
C248 C249 1.400 . S
C249 C248 1.400 . S
C249 C250 1.398 . S
C249 C255 1.491 . S
C250 H241 0.950 . S
C250 C249 1.398 . S
C250 C251 1.391 . S
C251 H239 0.950 . S
C251 C247 1.393 . S
C251 C250 1.391 . S
C252 H242 0.950 . S
C252 C253 1.386 . S
C252 C254 1.391 . S
C253 C252 1.386 . S
C253 C257 1.393 . S
C254 H243 0.950 . S
C254 C252 1.391 . S
C254 C255 1.400 . S
C255 C249 1.491 . S
C255 C254 1.400 . S
C255 C256 1.398 . S
C256 H244 0.950 . S
C256 C255 1.398 . S
C256 C257 1.391 . S
C257 H245 0.950 . S
C257 C253 1.393 . S
C257 C256 1.391 . S
H258 C266 0.950 . S
H259 C271 0.950 . S
H260 C268 0.950 . S
H261 C270 0.950 . S
H262 C272 0.950 . S
H263 C274 0.950 . S
H264 C276 0.950 . S
H265 C277 0.950 . S
C266 H258 0.950 . S
C266 C267 1.386 . S
C266 C268 1.391 . S
C267 C266 1.386 . S
C267 C271 1.393 . S
C268 H260 0.950 . S
C268 C266 1.391 . S
C268 C269 1.400 . S
C269 C268 1.400 . S
C269 C270 1.398 . S
C269 C275 1.491 . S
C270 H261 0.950 . S
C270 C269 1.398 . S
C270 C271 1.391 . S
C271 H259 0.950 . S
C271 C267 1.393 . S
C271 C270 1.391 . S
C272 H262 0.950 . S
C272 C273 1.386 . S
C272 C274 1.391 . S
C273 C272 1.386 . S
C273 C277 1.393 . S
C274 H263 0.950 . S
C274 C272 1.391 . S
C274 C275 1.400 . S
C275 C269 1.491 . S
C275 C274 1.400 . S
C275 C276 1.398 . S
C276 H264 0.950 . S
C276 C275 1.398 . S
C276 C277 1.391 . S
C277 H265 0.950 . S
C277 C273 1.393 . S
C277 C276 1.391 . S
H278 C286 0.950 . S
H279 C291 0.950 . S
H280 C288 0.950 . S
H281 C290 0.950 . S
H282 C292 0.950 . S
H283 C294 0.950 . S
H284 C296 0.950 . S
H285 C297 0.950 1_455 S
C286 H278 0.950 . S
C286 C287 1.386 . S
C286 C288 1.391 . S
C287 C286 1.386 . S
C287 C291 1.393 . S
C288 H280 0.950 . S
C288 C286 1.391 . S
C288 C289 1.400 . S
C289 C288 1.400 . S
C289 C290 1.398 . S
C289 C295 1.491 . S
C290 H281 0.950 . S
C290 C289 1.398 . S
C290 C291 1.391 . S
C291 H279 0.950 . S
C291 C287 1.393 . S
C291 C290 1.391 . S
C292 H282 0.950 . S
C292 C293 1.386 . S
C292 C294 1.391 . S
C293 C292 1.386 . S
C293 C297 1.393 . S
C294 H283 0.950 . S
C294 C292 1.391 . S
C294 C295 1.400 . S
C295 C289 1.491 . S
C295 C294 1.400 . S
C295 C296 1.398 . S
C296 H284 0.950 . S
C296 C295 1.398 . S
C296 C297 1.391 . S
C297 H285 0.950 1_655 S
C297 C293 1.393 . S
C297 C296 1.391 . S
H298 C306 0.950 . S
H299 C311 0.950 . S
H300 C308 0.950 . S
H301 C310 0.950 . S
H302 C312 0.950 . S
H303 C314 0.950 . S
H304 C316 0.950 . S
H305 C317 0.950 . S
C306 H298 0.950 . S
C306 C307 1.386 . S
C306 C308 1.391 . S
C307 C306 1.386 . S
C307 C311 1.393 . S
C308 H300 0.950 . S
C308 C306 1.391 . S
C308 C309 1.400 . S
C309 C308 1.400 . S
C309 C310 1.398 . S
C309 C315 1.491 . S
C310 H301 0.950 . S
C310 C309 1.398 . S
C310 C311 1.391 . S
C311 H299 0.950 . S
C311 C307 1.393 . S
C311 C310 1.391 . S
C312 H302 0.950 . S
C312 C313 1.386 . S
C312 C314 1.391 . S
C313 C312 1.386 . S
C313 C317 1.393 . S
C314 H303 0.950 . S
C314 C312 1.391 . S
C314 C315 1.400 . S
C315 C309 1.491 . S
C315 C314 1.400 . S
C315 C316 1.398 . S
C316 H304 0.950 . S
C316 C315 1.398 . S
C316 C317 1.391 . S
C317 H305 0.950 . S
C317 C313 1.393 . S
C317 C316 1.391 . S
H318 C326 0.950 . S
H319 C331 0.950 . S
H320 C328 0.950 . S
H321 C330 0.950 . S
H322 C332 0.950 . S
H323 C334 0.950 . S
H324 C336 0.950 . S
H325 C337 0.950 . S
C326 H318 0.950 . S
C326 C327 1.386 . S
C326 C328 1.391 . S
C327 C326 1.386 . S
C327 C331 1.393 . S
C328 H320 0.950 . S
C328 C326 1.391 . S
C328 C329 1.400 . S
C329 C328 1.400 . S
C329 C330 1.398 . S
C329 C335 1.491 . S
C330 H321 0.950 . S
C330 C329 1.398 . S
C330 C331 1.391 . S
C331 H319 0.950 . S
C331 C327 1.393 . S
C331 C330 1.391 . S
C332 H322 0.950 . S
C332 C333 1.386 . S
C332 C334 1.391 . S
C333 C332 1.386 . S
C333 C337 1.393 . S
C334 H323 0.950 . S
C334 C332 1.391 . S
C334 C335 1.400 . S
C335 C329 1.491 . S
C335 C334 1.400 . S
C335 C336 1.398 . S
C336 H324 0.950 . S
C336 C335 1.398 . S
C336 C337 1.391 . S
C337 H325 0.950 . S
C337 C333 1.393 . S
C337 C336 1.391 . S
H338 C346 0.950 . S
H339 C351 0.950 . S
H340 C348 0.950 . S
H341 C350 0.950 . S
H342 C352 0.950 . S
H343 C354 0.950 . S
H344 C356 0.950 . S
H345 C357 0.950 . S
C346 H338 0.950 . S
C346 C347 1.386 . S
C346 C348 1.391 . S
C347 C346 1.386 . S
C347 C351 1.393 . S
C348 H340 0.950 . S
C348 C346 1.391 . S
C348 C349 1.400 . S
C349 C348 1.400 . S
C349 C350 1.398 . S
C349 C355 1.491 . S
C350 H341 0.950 . S
C350 C349 1.398 . S
C350 C351 1.391 . S
C351 H339 0.950 . S
C351 C347 1.393 . S
C351 C350 1.391 . S
C352 H342 0.950 . S
C352 C353 1.386 . S
C352 C354 1.391 . S
C353 C352 1.386 . S
C353 C357 1.393 . S
C354 H343 0.950 . S
C354 C352 1.391 . S
C354 C355 1.400 . S
C355 C349 1.491 . S
C355 C354 1.400 . S
C355 C356 1.398 . S
C356 H344 0.950 . S
C356 C355 1.398 . S
C356 C357 1.391 . S
C357 H345 0.950 . S
C357 C353 1.393 . S
C357 C356 1.391 . S
H358 C366 0.950 . S
H359 C371 0.950 . S
H360 C368 0.950 . S
H361 C370 0.950 . S
H362 C372 0.950 . S
H363 C374 0.950 . S
H364 C376 0.950 . S
H365 C377 0.950 . S
C366 H358 0.950 . S
C366 C367 1.386 . S
C366 C368 1.391 . S
C367 C366 1.386 . S
C367 C371 1.393 . S
C368 H360 0.950 . S
C368 C366 1.391 . S
C368 C369 1.400 . S
C369 C368 1.400 . S
C369 C370 1.398 . S
C369 C375 1.491 . S
C370 H361 0.950 . S
C370 C369 1.398 . S
C370 C371 1.391 . S
C371 H359 0.950 . S
C371 C367 1.393 . S
C371 C370 1.391 . S
C372 H362 0.950 . S
C372 C373 1.386 . S
C372 C374 1.391 . S
C373 C372 1.386 . S
C373 C377 1.393 . S
C374 H363 0.950 . S
C374 C372 1.391 . S
C374 C375 1.400 . S
C375 C369 1.491 . S
C375 C374 1.400 . S
C375 C376 1.398 . S
C376 H364 0.950 . S
C376 C375 1.398 . S
C376 C377 1.391 . S
C377 H365 0.950 . S
C377 C373 1.393 . S
C377 C376 1.391 . S
H378 C386 0.950 . S
H379 C391 0.950 . S
H380 C388 0.943 1_655 S
H381 C390 0.950 . S
H382 C392 0.950 . S
H383 C394 0.950 . S
H384 C396 0.950 1_655 S
H385 C397 0.950 . S
C386 H378 0.950 . S
C386 C387 1.386 1_655 S
C386 C388 1.388 1_655 S
C387 C386 1.386 1_455 S
C387 C391 1.393 . S
C388 H380 0.943 1_455 S
C388 C386 1.388 1_455 S
C388 C389 1.411 . S
C389 C388 1.411 . S
C389 C390 1.398 . S
C389 C395 1.491 1_554 S
C390 H381 0.950 . S
C390 C389 1.398 . S
C390 C391 1.391 . S
C391 H379 0.950 . S
C391 C387 1.393 . S
C391 C390 1.391 . S
C392 H382 0.950 . S
C392 C393 1.386 . S
C392 C394 1.391 . S
C393 C392 1.386 . S
C393 C397 1.393 . S
C394 H383 0.950 . S
C394 C392 1.391 . S
C394 C395 1.400 . S
C395 C389 1.491 1_556 S
C395 C394 1.400 . S
C395 C396 1.398 . S
C396 H384 0.950 1_455 S
C396 C395 1.398 . S
C396 C397 1.391 . S
C397 H385 0.950 . S
C397 C393 1.393 . S
C397 C396 1.391 . S
H398 C406 0.950 . S
H399 C411 0.950 . S
H400 C408 0.950 . S
H401 C410 0.950 . S
H402 C412 0.950 . S
H403 C414 0.950 . S
H404 C416 0.950 . S
H405 C417 0.950 . S
C406 H398 0.950 . S
C406 C407 1.386 . S
C406 C408 1.391 . S
C407 C406 1.386 . S
C407 C411 1.393 1_545 S
C408 H400 0.950 . S
C408 C406 1.391 . S
C408 C409 1.400 . S
C409 C408 1.400 . S
C409 C410 1.398 1_545 S
C409 C415 1.491 . S
C410 H401 0.950 . S
C410 C409 1.398 1_565 S
C410 C411 1.391 . S
C411 H399 0.950 . S
C411 C407 1.393 1_565 S
C411 C410 1.391 . S
C412 H402 0.950 . S
C412 C413 1.386 1_565 S
C412 C414 1.391 . S
C413 C412 1.386 1_545 S
C413 C417 1.393 . S
C414 H403 0.950 . S
C414 C412 1.391 . S
C414 C415 1.400 1_565 S
C415 C409 1.491 . S
C415 C414 1.400 1_545 S
C415 C416 1.398 . S
C416 H404 0.950 . S
C416 C415 1.398 . S
C416 C417 1.391 . S
C417 H405 0.950 . S
C417 C413 1.393 . S
C417 C416 1.391 . S
H418 C426 0.950 . S
H419 C431 0.950 . S
H420 C428 0.950 . S
H421 C430 0.950 . S
H422 C432 0.950 . S
H423 C434 0.950 . S
H424 C436 0.950 . S
H425 C437 0.950 . S
C426 H418 0.950 . S
C426 C427 1.386 . S
C426 C428 1.391 . S
C427 C426 1.386 . S
C427 C431 1.393 . S
C428 H420 0.950 . S
C428 C426 1.391 . S
C428 C429 1.400 . S
C429 C428 1.400 . S
C429 C430 1.398 . S
C429 C435 1.491 . S
C430 H421 0.950 . S
C430 C429 1.398 . S
C430 C431 1.391 . S
C431 H419 0.950 . S
C431 C427 1.393 . S
C431 C430 1.391 . S
C432 H422 0.950 . S
C432 C433 1.386 . S
C432 C434 1.391 . S
C433 C432 1.386 . S
C433 C437 1.393 . S
C434 H423 0.950 . S
C434 C432 1.391 . S
C434 C435 1.400 . S
C435 C429 1.491 . S
C435 C434 1.400 . S
C435 C436 1.398 . S
C436 H424 0.950 . S
C436 C435 1.398 . S
C436 C437 1.391 . S
C437 H425 0.950 . S
C437 C433 1.393 . S
C437 C436 1.391 . S
H438 C446 0.950 1_565 S
H439 C451 0.950 . S
H440 C448 0.950 1_565 S
H441 C450 0.950 . S
H442 C452 0.950 . S
H443 C454 0.950 . S
H444 C456 0.950 1_565 S
H445 C457 0.950 1_565 S
C446 H438 0.950 1_545 S
C446 C447 1.386 . S
C446 C448 1.391 . S
C447 C446 1.386 . S
C447 C451 1.393 . S
C448 H440 0.950 1_545 S
C448 C446 1.391 . S
C448 C449 1.400 . S
C449 C448 1.400 . S
C449 C450 1.398 . S
C449 C455 1.491 . S
C450 H441 0.950 . S
C450 C449 1.398 . S
C450 C451 1.391 . S
C451 H439 0.950 . S
C451 C447 1.393 . S
C451 C450 1.391 . S
C452 H442 0.950 . S
C452 C453 1.386 . S
C452 C454 1.391 . S
C453 C452 1.386 . S
C453 C457 1.393 . S
C454 H443 0.950 . S
C454 C452 1.391 . S
C454 C455 1.400 . S
C455 C449 1.491 . S
C455 C454 1.400 . S
C455 C456 1.398 . S
C456 H444 0.950 1_545 S
C456 C455 1.398 . S
C456 C457 1.391 . S
C457 H445 0.950 1_545 S
C457 C453 1.393 . S
C457 C456 1.391 . S
H458 C466 0.950 . S
H459 C471 0.950 . S
H460 C468 0.950 . S
H461 C470 0.950 . S
H462 C472 0.950 . S
H463 C474 0.950 . S
H464 C476 0.964 . S
H465 C477 0.950 . S
C466 H458 0.950 . S
C466 C467 1.386 . S
C466 C468 1.391 . S
C467 C466 1.386 . S
C467 C471 1.393 . S
C468 H460 0.950 . S
C468 C466 1.391 . S
C468 C469 1.400 . S
C469 C468 1.400 . S
C469 C470 1.398 . S
C469 C475 1.491 1_556 S
C470 H461 0.950 . S
C470 C469 1.398 . S
C470 C471 1.391 . S
C471 H459 0.950 . S
C471 C467 1.393 . S
C471 C470 1.391 . S
C472 H462 0.950 . S
C472 C473 1.386 . S
C472 C474 1.391 . S
C473 C472 1.386 . S
C473 C477 1.393 . S
C474 H463 0.950 . S
C474 C472 1.391 . S
C474 C475 1.400 . S
C475 C469 1.491 1_554 S
C475 C474 1.400 . S
C475 C476 1.398 . S
C476 H464 0.964 . S
C476 C475 1.398 . S
C476 C477 1.391 . S
C477 H465 0.950 . S
C477 C473 1.393 . S
C477 C476 1.391 . S
H478 C486 0.950 . S
H479 C491 0.950 . S
H480 C488 0.950 . S
H481 C490 0.950 . S
H482 C492 0.950 1_655 S
H483 C494 0.950 1_655 S
H484 C496 0.950 . S
H485 C497 0.950 . S
C486 H478 0.950 . S
C486 C487 1.386 . S
C486 C488 1.391 . S
C487 C486 1.386 . S
C487 C491 1.393 1_455 S
C488 H480 0.950 . S
C488 C486 1.391 . S
C488 C489 1.400 . S
C489 C488 1.400 . S
C489 C490 1.398 1_455 S
C489 C495 1.491 . S
C490 H481 0.950 . S
C490 C489 1.398 1_655 S
C490 C491 1.391 . S
C491 H479 0.950 . S
C491 C487 1.393 1_655 S
C491 C490 1.391 . S
C492 H482 0.950 1_455 S
C492 C493 1.386 . S
C492 C494 1.391 . S
C493 C492 1.386 . S
C493 C497 1.393 . S
C494 H483 0.950 1_455 S
C494 C492 1.391 . S
C494 C495 1.400 . S
C495 C489 1.491 . S
C495 C494 1.400 . S
C495 C496 1.398 . S
C496 H484 0.950 . S
C496 C495 1.398 . S
C496 C497 1.391 . S
C497 H485 0.950 . S
C497 C493 1.393 . S
C497 C496 1.391 . S
C147 C2 1.111 . S
C153 C129 1.040 . S
C167 C21 0.913 . S
C173 C107 0.934 . S
C187 C42 0.987 . S
C193 C120 0.988 1_565 S
C207 C1 0.909 . S
C213 C133 0.934 . S
C233 C103 1.072 . S
C227 C22 1.136 . S
C253 C116 1.031 . S
C247 C41 1.039 . S
C267 C38 1.780 . S
C273 C81 1.775 . S
C287 C59 1.864 . S
C293 C94 1.839 1_655 S
C307 C18 1.912 . S
C313 C64 1.759 . S
C333 C77 1.857 . S
C327 C39 2.005 . S
C353 C90 1.794 . S
C347 C58 1.921 . S
C367 C19 1.863 . S
C373 C68 1.830 . S
C393 C95 1.593 . S
C387 C9 1.535 . S
C407 C29 1.527 . S
C413 C69 1.571 . S
C427 C49 1.514 . S
C433 C82 1.616 . S
C453 C121 1.444 . S
C447 C28 1.413 . S
C473 C134 1.501 . S
C467 C48 1.488 . S
C487 C8 1.437 . S
C493 C108 1.468 . S
