# Generated by pormake.
# Topology pyr, (3,6)-cn, num edge types: 1
# Building blocks:
#     Node 0, Type 0, BuildingBlock: MIDCAF_clean_linker_0, # of connection points: 3
#     Node 1, Type 0, BuildingBlock: MIDCAF_clean_linker_0, # of connection points: 3
#     Node 2, Type 0, BuildingBlock: MIDCAF_clean_linker_0, # of connection points: 3
#     Node 3, Type 0, BuildingBlock: MIDCAF_clean_linker_0, # of connection points: 3
#     Node 4, Type 0, BuildingBlock: MIDCAF_clean_linker_0, # of connection points: 3
#     Node 5, Type 0, BuildingBlock: MIDCAF_clean_linker_0, # of connection points: 3
#     Node 6, Type 0, BuildingBlock: MIDCAF_clean_linker_0, # of connection points: 3
#     Node 7, Type 0, BuildingBlock: MIDCAF_clean_linker_0, # of connection points: 3
#     Node 8, Type 1, BuildingBlock: MIDCAF_clean_sbu_0, # of connection points: 6
#     Node 9, Type 1, BuildingBlock: MIDCAF_clean_sbu_0, # of connection points: 6
#     Node 10, Type 1, BuildingBlock: MIDCAF_clean_sbu_0, # of connection points: 6
#     Node 11, Type 1, BuildingBlock: MIDCAF_clean_sbu_0, # of connection points: 6
#     Edge 12, Type (0, 1), BuildingBlock: MIFKUJ_clean_linker_0, # of connection points: 2
#     Edge 13, Type (0, 1), BuildingBlock: MIFKUJ_clean_linker_0, # of connection points: 2
#     Edge 14, Type (0, 1), BuildingBlock: MIFKUJ_clean_linker_0, # of connection points: 2
#     Edge 15, Type (0, 1), BuildingBlock: MIFKUJ_clean_linker_0, # of connection points: 2
#     Edge 16, Type (0, 1), BuildingBlock: MIFKUJ_clean_linker_0, # of connection points: 2
#     Edge 17, Type (0, 1), BuildingBlock: MIFKUJ_clean_linker_0, # of connection points: 2
#     Edge 18, Type (0, 1), BuildingBlock: MIFKUJ_clean_linker_0, # of connection points: 2
#     Edge 19, Type (0, 1), BuildingBlock: MIFKUJ_clean_linker_0, # of connection points: 2
#     Edge 20, Type (0, 1), BuildingBlock: MIFKUJ_clean_linker_0, # of connection points: 2
#     Edge 21, Type (0, 1), BuildingBlock: MIFKUJ_clean_linker_0, # of connection points: 2
#     Edge 22, Type (0, 1), BuildingBlock: MIFKUJ_clean_linker_0, # of connection points: 2
#     Edge 23, Type (0, 1), BuildingBlock: MIFKUJ_clean_linker_0, # of connection points: 2
#     Edge 24, Type (0, 1), BuildingBlock: MIFKUJ_clean_linker_0, # of connection points: 2
#     Edge 25, Type (0, 1), BuildingBlock: MIFKUJ_clean_linker_0, # of connection points: 2
#     Edge 26, Type (0, 1), BuildingBlock: MIFKUJ_clean_linker_0, # of connection points: 2
#     Edge 27, Type (0, 1), BuildingBlock: MIFKUJ_clean_linker_0, # of connection points: 2
#     Edge 28, Type (0, 1), BuildingBlock: MIFKUJ_clean_linker_0, # of connection points: 2
#     Edge 29, Type (0, 1), BuildingBlock: MIFKUJ_clean_linker_0, # of connection points: 2
#     Edge 30, Type (0, 1), BuildingBlock: MIFKUJ_clean_linker_0, # of connection points: 2
#     Edge 31, Type (0, 1), BuildingBlock: MIFKUJ_clean_linker_0, # of connection points: 2
#     Edge 32, Type (0, 1), BuildingBlock: MIFKUJ_clean_linker_0, # of connection points: 2
#     Edge 33, Type (0, 1), BuildingBlock: MIFKUJ_clean_linker_0, # of connection points: 2
#     Edge 34, Type (0, 1), BuildingBlock: MIFKUJ_clean_linker_0, # of connection points: 2
#     Edge 35, Type (0, 1), BuildingBlock: MIFKUJ_clean_linker_0, # of connection points: 2
# Relax obj value: 0.019
# Max RMSD: 0.062
# Mean RMSD: 0.023
data_MOF--net-pyr--node1-MIDCAF_clean_sbu_0--node2-MIDCAF_clean_linker_0--edge1-MIFKUJ_clean_linker_0
_symmetry_space_group_name_H-M    P1
_symmetry_Int_Tables_number       1
_symmetry_cell_setting            triclinic
loop_
_symmetry_equiv_pos_as_xyz
'x, y, z'
_cell_length_a     54.325281
_cell_length_b     54.411698
_cell_length_c     54.387265
_cell_angle_alpha  89.904889
_cell_angle_beta   90.164035
_cell_angle_gamma 90.214342
loop_
_atom_site_label
_atom_site_type_symbol
_atom_site_fract_x
_atom_site_fract_y
_atom_site_fract_z
_atom_type_partial_charge
C0 C 0.15559 0.21213 0.30023 0.0
C1 C 0.16328 0.19069 0.31246 0.0
C2 C 0.18164 0.17618 0.30161 0.0
C3 C 0.19215 0.18295 0.27921 0.0
H4 H 0.24344 0.16057 0.22945 0.0
H5 H 0.27785 0.13696 0.2136 0.0
H6 H 0.28966 0.19185 0.15731 0.0
H7 H 0.25482 0.21512 0.17266 0.0
H8 H 0.21163 0.25289 0.16244 0.0
H9 H 0.19629 0.28787 0.13925 0.0
H10 H 0.14769 0.3062 0.19916 0.0
H11 H 0.16256 0.27082 0.22222 0.0
H12 H 0.15978 0.23558 0.26886 0.0
H13 H 0.14162 0.22382 0.30817 0.0
H14 H 0.18767 0.15928 0.31023 0.0
H15 H 0.20617 0.17119 0.27147 0.0
N16 N 0.21478 0.1981 0.23385 0.0
N17 N 0.21671 0.22402 0.19948 0.0
N18 N 0.18739 0.23111 0.23022 0.0
C19 C 0.22538 0.20429 0.2121 0.0
C20 C 0.1977 0.23752 0.20836 0.0
C21 C 0.19581 0.2114 0.24308 0.0
C22 C 0.24629 0.1898 0.20237 0.0
C23 C 0.25333 0.16763 0.21367 0.0
C24 C 0.27319 0.15412 0.20465 0.0
C25 C 0.28661 0.16249 0.18419 0.0
C26 C 0.27953 0.18463 0.17286 0.0
C27 C 0.25959 0.19808 0.18178 0.0
C28 C 0.18837 0.25896 0.19427 0.0
C29 C 0.19766 0.26433 0.17074 0.0
C30 C 0.18896 0.28451 0.15745 0.0
C31 C 0.1708 0.29991 0.16735 0.0
C32 C 0.16146 0.29454 0.19084 0.0
C33 C 0.17011 0.2743 0.20414 0.0
C34 C 0.18453 0.20439 0.26693 0.0
C35 C 0.16609 0.21891 0.27772 0.0
C36 C 0.24614 0.87521 0.70342 0.0
C37 C 0.23438 0.86654 0.68207 0.0
C38 C 0.24437 0.84616 0.66981 0.0
C39 C 0.26567 0.83478 0.67866 0.0
H40 H 0.31703 0.78192 0.66143 0.0
H41 H 0.33591 0.74811 0.63915 0.0
H42 H 0.38829 0.73847 0.69828 0.0
H43 H 0.3699 0.77258 0.72029 0.0
H44 H 0.37234 0.81094 0.76336 0.0
H45 H 0.39174 0.82683 0.80055 0.0
H46 H 0.33836 0.88541 0.80312 0.0
H47 H 0.3186 0.86932 0.76637 0.0
H48 H 0.27588 0.87104 0.72882 0.0
H49 H 0.23875 0.89068 0.71347 0.0
H50 H 0.23592 0.83922 0.65314 0.0
H51 H 0.27288 0.81919 0.66866 0.0
N52 N 0.31018 0.81212 0.6974 0.0
N53 N 0.34167 0.80982 0.72691 0.0
N54 N 0.31116 0.83993 0.73025 0.0
C55 C 0.33094 0.80115 0.70602 0.0
C56 C 0.33191 0.82923 0.73914 0.0
C57 C 0.30014 0.83151 0.70945 0.0
C58 C 0.34197 0.78012 0.69266 0.0
C59 C 0.33256 0.7726 0.66973 0.0
C60 C 0.34331 0.75309 0.65698 0.0
C61 C 0.36368 0.7406 0.66687 0.0
C62 C 0.3729 0.74795 0.68991 0.0
C63 C 0.36222 0.76748 0.70261 0.0
C64 C 0.34383 0.83879 0.7618 0.0
C65 C 0.36467 0.82719 0.77185 0.0
C66 C 0.37591 0.83637 0.79313 0.0
C67 C 0.3666 0.85738 0.80485 0.0
C68 C 0.34579 0.86897 0.7948 0.0
C69 C 0.33453 0.85979 0.77358 0.0
C70 C 0.27747 0.84348 0.70001 0.0
C71 C 0.26739 0.86383 0.71229 0.0
C72 C 0.70398 0.23672 0.8736 0.0
C73 C 0.68287 0.22509 0.8641 0.0
C74 C 0.67303 0.23343 0.84167 0.0
C75 C 0.68372 0.25326 0.82928 0.0
H76 H 0.67755 0.29426 0.76604 0.0
H77 H 0.65861 0.31001 0.72853 0.0
H78 H 0.70638 0.37362 0.73139 0.0
H79 H 0.72572 0.35769 0.76835 0.0
H80 H 0.77234 0.35581 0.80419 0.0
H81 H 0.80684 0.3779 0.82239 0.0
H82 H 0.79764 0.33671 0.88978 0.0
H83 H 0.76365 0.31403 0.87132 0.0
H84 H 0.73069 0.26537 0.86931 0.0
H85 H 0.71187 0.23087 0.89095 0.0
H86 H 0.65699 0.22463 0.83369 0.0
H87 H 0.67545 0.25927 0.81217 0.0
N88 N 0.70526 0.29526 0.80489 0.0
N89 N 0.734 0.32746 0.80365 0.0
N90 N 0.73459 0.29937 0.83637 0.0
C91 C 0.71455 0.31545 0.79341 0.0
C92 C 0.74415 0.31956 0.8251 0.0
C93 C 0.71518 0.28706 0.82636 0.0
C94 C 0.70322 0.32467 0.7703 0.0
C95 C 0.68411 0.31156 0.75862 0.0
C96 C 0.67314 0.32065 0.73715 0.0
C97 C 0.68099 0.34306 0.72686 0.0
C98 C 0.70015 0.35607 0.7385 0.0
C99 C 0.71117 0.34698 0.75987 0.0
C100 C 0.76518 0.33307 0.83624 0.0
C101 C 0.77766 0.35141 0.82289 0.0
C102 C 0.79739 0.36423 0.8334 0.0
C103 C 0.80506 0.35916 0.85759 0.0
C104 C 0.79253 0.34085 0.87096 0.0
C105 C 0.77291 0.3279 0.86039 0.0
C106 C 0.70452 0.2653 0.83903 0.0
C107 C 0.71466 0.25662 0.86124 0.0
C108 C 0.74695 0.69116 0.35361 0.0
C109 C 0.73715 0.67141 0.3401 0.0
C110 C 0.7471 0.66609 0.3169 0.0
C111 C 0.76674 0.67995 0.30763 0.0
H112 H 0.82484 0.67504 0.25873 0.0
H113 H 0.8481 0.66029 0.22351 0.0
H114 H 0.89007 0.72782 0.22254 0.0
H115 H 0.86676 0.74277 0.25767 0.0
H116 H 0.86821 0.77319 0.30773 0.0
H117 H 0.88341 0.80869 0.33003 0.0
H118 H 0.81773 0.80859 0.37468 0.0
H119 H 0.80277 0.77238 0.3528 0.0
H120 H 0.77357 0.72013 0.3553 0.0
H121 H 0.73945 0.69591 0.37141 0.0
H122 H 0.74003 0.65087 0.30614 0.0
H123 H 0.77413 0.67516 0.2898 0.0
N124 N 0.81036 0.7062 0.2915 0.0
N125 N 0.83758 0.73953 0.29495 0.0
N126 N 0.80572 0.73463 0.32353 0.0
C127 C 0.83016 0.71891 0.28295 0.0
C128 C 0.82549 0.74755 0.31523 0.0
C129 C 0.798 0.71393 0.31175 0.0
C130 C 0.84391 0.71011 0.26113 0.0
C131 C 0.83895 0.68683 0.25101 0.0
C132 C 0.85239 0.67828 0.2309 0.0
C133 C 0.87096 0.69286 0.22031 0.0
C134 C 0.87573 0.71625 0.23018 0.0
C135 C 0.86243 0.72473 0.25042 0.0
C136 C 0.83424 0.76981 0.32844 0.0
C137 C 0.85688 0.78073 0.32222 0.0
C138 C 0.86556 0.80128 0.33494 0.0
C139 C 0.85176 0.81168 0.35411 0.0
C140 C 0.82899 0.80092 0.36021 0.0
C141 C 0.82035 0.7802 0.34757 0.0
C142 C 0.77673 0.6996 0.32125 0.0
C143 C 0.76644 0.70514 0.34428 0.0
C144 C 0.83508 0.98332 0.92884 0.0
C145 C 0.81563 0.97072 0.94026 0.0
C146 C 0.819 0.94614 0.94743 0.0
C147 C 0.84127 0.93422 0.94291 0.0
H148 H 0.88053 0.87071 0.95832 0.0
H149 H 0.88902 0.82943 0.97363 0.0
H150 H 0.96084 0.83196 0.93978 0.0
H151 H 0.9522 0.8728 0.92397 0.0
H152 H 0.96249 0.91228 0.88165 0.0
H153 H 0.98304 0.92323 0.84318 0.0
H154 H 0.92703 0.97734 0.82842 0.0
H155 H 0.9065 0.96669 0.86668 0.0
H156 H 0.87174 0.98138 0.9147 0.0
H157 H 0.83292 0.00226 0.92308 0.0
H158 H 0.80435 0.9361 0.95651 0.0
H159 H 0.84313 0.91517 0.94836 0.0
N160 N 0.88927 0.91176 0.93526 0.0
N161 N 0.92414 0.90836 0.91015 0.0
N162 N 0.89798 0.94223 0.90598 0.0
C163 C 0.90975 0.89922 0.92846 0.0
C164 C 0.91837 0.92983 0.89879 0.0
C165 C 0.8834 0.93342 0.92423 0.0
C166 C 0.91557 0.87502 0.93965 0.0
C167 C 0.89821 0.86254 0.95428 0.0
C168 C 0.9031 0.83888 0.96316 0.0
C169 C 0.92548 0.82724 0.95768 0.0
C170 C 0.94316 0.84013 0.94385 0.0
C171 C 0.93824 0.86366 0.93488 0.0
C172 C 0.93265 0.93838 0.87718 0.0
C173 C 0.95471 0.92674 0.87038 0.0
C174 C 0.96657 0.93306 0.84843 0.0
C175 C 0.95643 0.95091 0.83277 0.0
C176 C 0.93504 0.96328 0.84005 0.0
C177 C 0.92335 0.9572 0.86206 0.0
C178 C 0.86051 0.94656 0.93078 0.0
C179 C 0.85724 0.9713 0.92397 0.0
C180 C 0.59935 0.09535 0.33649 0.0
C181 C 0.57892 0.10936 0.32926 0.0
C182 C 0.56941 0.12686 0.3456 0.0
C183 C 0.58084 0.13098 0.36836 0.0
H184 H 0.58 0.17509 0.43093 0.0
H185 H 0.56978 0.21203 0.4538 0.0
H186 H 0.64033 0.20945 0.49045 0.0
H187 H 0.65076 0.1724 0.46746 0.0
H188 H 0.68882 0.12933 0.45256 0.0
H189 H 0.72682 0.10645 0.45961 0.0
H190 H 0.69812 0.04593 0.41695 0.0
H191 H 0.66016 0.06876 0.40965 0.0
H192 H 0.62661 0.08839 0.36385 0.0
H193 H 0.6068 0.08143 0.32441 0.0
H194 H 0.55366 0.1379 0.34045 0.0
H195 H 0.57349 0.14507 0.38028 0.0
N196 N 0.60921 0.14269 0.41236 0.0
N197 N 0.64292 0.1352 0.4384 0.0
N198 N 0.63539 0.10951 0.40464 0.0
C199 C 0.62281 0.14884 0.43249 0.0
C200 C 0.64918 0.11537 0.42464 0.0
C201 C 0.61543 0.12307 0.39829 0.0
C202 C 0.61625 0.17075 0.44726 0.0
C203 C 0.59336 0.18226 0.44391 0.0
C204 C 0.5874 0.20336 0.45716 0.0
C205 C 0.60423 0.2136 0.47397 0.0
C206 C 0.62705 0.20204 0.47752 0.0
C207 C 0.63295 0.18075 0.46442 0.0
C208 C 0.67151 0.10093 0.43045 0.0
C209 C 0.6905 0.11107 0.44484 0.0
C210 C 0.71231 0.09807 0.44875 0.0
C211 C 0.7154 0.07452 0.43868 0.0
C212 C 0.69615 0.06403 0.42496 0.0
C213 C 0.6745 0.07717 0.42072 0.0
C214 C 0.60184 0.11749 0.37525 0.0
C215 C 0.61062 0.09929 0.35921 0.0
C216 C 0.3461 0.56097 0.11646 0.0
C217 C 0.3306 0.57231 0.09916 0.0
C218 C 0.33946 0.59262 0.08586 0.0
C219 C 0.36296 0.60201 0.09037 0.0
H220 H 0.41259 0.65517 0.0667 0.0
H221 H 0.42106 0.69586 0.04948 0.0
H222 H 0.47118 0.7109 0.10934 0.0
H223 H 0.46295 0.67036 0.12658 0.0
H224 H 0.4768 0.62817 0.16268 0.0
H225 H 0.49834 0.61539 0.19985 0.0
H226 H 0.45082 0.55183 0.20543 0.0
H227 H 0.4294 0.56432 0.16811 0.0
H228 H 0.38088 0.56172 0.13507 0.0
H229 H 0.33971 0.54529 0.12699 0.0
H230 H 0.32809 0.60145 0.07207 0.0
H231 H 0.36889 0.61799 0.08005 0.0
N232 N 0.40942 0.62384 0.10301 0.0
N233 N 0.44382 0.62694 0.12887 0.0
N234 N 0.41595 0.59429 0.13374 0.0
C235 C 0.43026 0.63587 0.10987 0.0
C236 C 0.43692 0.60609 0.14081 0.0
C237 C 0.40211 0.60304 0.11481 0.0
C238 C 0.43696 0.65954 0.09813 0.0
C239 C 0.42558 0.66706 0.0761 0.0
C240 C 0.43049 0.69028 0.06615 0.0
C241 C 0.44658 0.70652 0.07823 0.0
C242 C 0.45847 0.69879 0.09984 0.0
C243 C 0.45383 0.6755 0.10961 0.0
C244 C 0.4512 0.59737 0.16241 0.0
C245 C 0.47103 0.61133 0.17165 0.0
C246 C 0.48335 0.6041 0.19304 0.0
C247 C 0.47623 0.58267 0.20562 0.0
C248 C 0.45692 0.56831 0.19601 0.0
C249 C 0.44452 0.57558 0.17467 0.0
C250 C 0.37819 0.59138 0.10841 0.0
C251 C 0.36965 0.57046 0.12111 0.0
C252 C 0.12124 0.33755 0.56094 0.0
C253 C 0.09819 0.32718 0.5665 0.0
C254 C 0.08288 0.33921 0.58339 0.0
C255 C 0.09055 0.36093 0.59476 0.0
H256 H 0.07406 0.40561 0.65359 0.0
H257 H 0.05565 0.41664 0.69296 0.0
H258 H 0.11328 0.47014 0.70492 0.0
H259 H 0.1318 0.45923 0.66581 0.0
H260 H 0.16515 0.47355 0.61501 0.0
H261 H 0.20449 0.49295 0.60451 0.0
H262 H 0.22931 0.42493 0.57251 0.0
H263 H 0.18991 0.40557 0.58251 0.0
H264 H 0.14681 0.3668 0.5676 0.0
H265 H 0.13336 0.32878 0.54787 0.0
H266 H 0.06514 0.33151 0.58831 0.0
H267 H 0.07833 0.36951 0.60787 0.0
N268 N 0.10942 0.40269 0.62174 0.0
N269 N 0.13823 0.43451 0.62639 0.0
N270 N 0.14311 0.40547 0.59499 0.0
C271 C 0.11737 0.42298 0.63399 0.0
C272 C 0.15116 0.42592 0.60691 0.0
C273 C 0.12213 0.39386 0.60216 0.0
C274 C 0.1046 0.43132 0.65657 0.0
C275 C 0.0827 0.4199 0.66447 0.0
C276 C 0.07205 0.42628 0.68697 0.0
C277 C 0.08319 0.44405 0.7021 0.0
C278 C 0.10451 0.45611 0.6938 0.0
C279 C 0.11505 0.4499 0.67128 0.0
C280 C 0.17445 0.43802 0.59961 0.0
C281 C 0.17895 0.46277 0.60561 0.0
C282 C 0.20136 0.47391 0.59954 0.0
C283 C 0.21985 0.46035 0.58784 0.0
C284 C 0.21534 0.43569 0.58169 0.0
C285 C 0.19276 0.42469 0.58729 0.0
C286 C 0.11369 0.37125 0.58941 0.0
C287 C 0.12886 0.35941 0.57218 0.0
Zn288 Zn 0.9695 0.05452 0.55369 0.0
Zn289 Zn 0.03997 0.00091 0.50678 0.0
Zn290 Zn 0.00584 0.02771 0.53178 0.0
C291 C 0.05045 0.05093 0.4994 0.0
C292 C 0.99383 0.98807 0.48829 0.0
O293 O 0.00757 0.01929 0.57128 0.0
O294 O 0.97571 0.03954 0.58653 0.0
C295 C 0.00383 0.08731 0.53284 0.0
O296 O 0.03063 0.05323 0.51214 0.0
O297 O 0.05939 0.02993 0.49534 0.0
O298 O 0.01634 0.98474 0.48364 0.0
O299 O 0.98725 0.00286 0.50554 0.0
O300 O 0.984 0.08708 0.54494 0.0
O301 O 0.01412 0.06705 0.52635 0.0
O302 O 0.96933 0.01803 0.51593 0.0
O303 O 0.94169 0.04185 0.53388 0.0
C304 C 0.94695 0.02532 0.51857 0.0
O305 O 0.02616 0.00575 0.55939 0.0
O306 O 0.05081 0.98263 0.53673 0.0
C307 C 0.99375 0.02524 0.5895 0.0
C308 C 0.04254 0.9888 0.5575 0.0
Zn309 Zn 0.48896 0.03699 0.01004 0.0
Zn310 Zn 0.55522 0.98441 0.06029 0.0
Zn311 Zn 0.52234 0.00992 0.0364 0.0
C312 C 0.57997 0.00691 0.02261 0.0
C313 C 0.51984 0.95167 0.0446 0.0
O314 O 0.49989 0.03126 0.0628 0.0
O315 O 0.47554 0.05429 0.0395 0.0
C316 C 0.53624 0.04987 0.99395 0.0
O317 O 0.55942 0.01861 0.0218 0.0
O318 O 0.58243 0.98836 0.03633 0.0
O319 O 0.53618 0.95327 0.06106 0.0
O320 O 0.51374 0.97061 0.03178 0.0
O321 O 0.51391 0.05388 0.98882 0.0
O322 O 0.54215 0.03445 0.01096 0.0
O323 O 0.49868 0.98396 0.0156 0.0
O324 O 0.47104 0.0075 0.99703 0.0
C325 C 0.47965 0.98643 0.00161 0.0
O326 O 0.52013 0.02083 0.07533 0.0
O327 O 0.55521 0.00592 0.08966 0.0
C328 C 0.4829 0.0476 0.06052 0.0
C329 C 0.5363 0.01899 0.0926 0.0
Zn330 Zn 0.55184 0.54047 0.53513 0.0
Zn331 Zn 0.49077 0.48158 0.48535 0.0
Zn332 Zn 0.52039 0.51175 0.51007 0.0
C333 C 0.52028 0.45185 0.51403 0.0
C334 C 0.51719 0.50818 0.45058 0.0
O335 O 0.49798 0.53637 0.53367 0.0
O336 O 0.52604 0.55701 0.55488 0.0
C337 C 0.56383 0.49233 0.54678 0.0
O338 O 0.52992 0.47301 0.5188 0.0
O339 O 0.50141 0.45025 0.50054 0.0
O340 O 0.50285 0.48993 0.45206 0.0
O341 O 0.52505 0.51895 0.47021 0.0
O342 O 0.57181 0.51385 0.55035 0.0
O343 O 0.545 0.48858 0.53279 0.0
O344 O 0.54203 0.53367 0.48318 0.0
O345 O 0.56525 0.55811 0.50614 0.0
C346 C 0.55829 0.55089 0.48519 0.0
O347 O 0.48215 0.51942 0.52158 0.0
O348 O 0.45955 0.49623 0.49667 0.0
C349 C 0.5037 0.55258 0.55002 0.0
C350 C 0.46104 0.51187 0.51371 0.0
Zn351 Zn 0.05977 0.56177 0.974 0.0
Zn352 Zn 0.005 0.50542 0.03326 0.0
Zn353 Zn 0.03206 0.53258 0.00134 0.0
C354 C 0.05443 0.49715 0.04469 0.0
C355 C 0.99542 0.48923 0.98425 0.0
O356 O 0.01867 0.57093 0.00398 0.0
O357 O 0.03996 0.59199 0.97635 0.0
C358 C 0.09025 0.54286 0.00963 0.0
O359 O 0.05715 0.51158 0.02603 0.0
O360 O 0.0332 0.49212 0.0527 0.0
O361 O 0.99057 0.48465 0.00652 0.0
O362 O 0.01051 0.50664 0.97853 0.0
O363 O 0.08974 0.56028 0.99433 0.0
O364 O 0.07101 0.52941 0.01328 0.0
O365 O 0.0275 0.51929 0.96332 0.0
O366 O 0.05719 0.54019 0.94469 0.0
C367 C 0.04068 0.5238 0.94418 0.0
O368 O 0.00755 0.55715 0.02269 0.0
O369 O 0.98537 0.53307 0.04698 0.0
C370 C 0.02313 0.59108 0.99227 0.0
C371 C 0.99093 0.55432 0.03937 0.0
H372 H 0.11465 0.19279 0.32606 0.0
H373 H 0.09594 0.17613 0.36351 0.0
H374 H 0.16754 0.15404 0.38961 0.0
H375 H 0.18644 0.1711 0.35264 0.0
H376 H 0.13329 0.11613 0.38738 0.0
H377 H 0.13803 0.19961 0.41524 0.0
H378 H 0.12988 0.24401 0.41257 0.0
H379 H 0.05228 0.23042 0.41891 0.0
H380 H 0.05981 0.18582 0.42039 0.0
H381 H 0.09927 0.06059 0.49602 0.0
H382 H 0.11906 0.09186 0.47039 0.0
H383 H 0.04778 0.12004 0.44973 0.0
H384 H 0.02795 0.08919 0.47611 0.0
H385 H 0.08188 0.15681 0.45056 0.0
H386 H 0.07441 0.07653 0.41516 0.0
H387 H 0.07898 0.03148 0.41366 0.0
H388 H 0.15754 0.03915 0.4185 0.0
H389 H 0.15341 0.08427 0.42039 0.0
C390 C 0.12648 0.18492 0.34003 0.0
C391 C 0.15203 0.18301 0.3362 0.0
C392 C 0.11575 0.17539 0.36141 0.0
C393 C 0.13037 0.16386 0.37931 0.0
C394 C 0.15593 0.16281 0.37597 0.0
C395 C 0.16667 0.1724 0.35473 0.0
C396 C 0.11898 0.15062 0.40024 0.0
C397 C 0.12241 0.12513 0.40141 0.0
C398 C 0.10397 0.1623 0.41797 0.0
C399 C 0.09949 0.18923 0.41751 0.0
C400 C 0.11918 0.206 0.41562 0.0
C401 C 0.11466 0.23123 0.41425 0.0
C402 C 0.09057 0.24003 0.41543 0.0
C403 C 0.07094 0.22358 0.4179 0.0
C404 C 0.07531 0.1983 0.41888 0.0
C405 C 0.0879 0.07388 0.48648 0.0
C406 C 0.06216 0.07245 0.48781 0.0
C407 C 0.09917 0.09171 0.47186 0.0
C408 C 0.08487 0.10789 0.45767 0.0
C409 C 0.05917 0.10769 0.46043 0.0
C410 C 0.04787 0.09005 0.47543 0.0
C411 C 0.09651 0.12244 0.4377 0.0
C412 C 0.09298 0.14798 0.4366 0.0
C413 C 0.11101 0.11086 0.41952 0.0
C414 C 0.11358 0.08374 0.41818 0.0
C415 C 0.09265 0.06859 0.41607 0.0
C416 C 0.09516 0.04305 0.41513 0.0
C417 C 0.11853 0.03246 0.41605 0.0
C418 C 0.13945 0.04738 0.41783 0.0
C419 C 0.13704 0.07294 0.41883 0.0
H420 H 0.12044 0.01268 0.41532 0.0
H421 H 0.08715 0.25959 0.41459 0.0
H422 H 0.34436 0.87561 0.84605 0.0
H423 H 0.36403 0.89347 0.88234 0.0
H424 H 0.43551 0.87926 0.85126 0.0
H425 H 0.41598 0.86161 0.8147 0.0
H426 H 0.43354 0.86708 0.90011 0.0
H427 H 0.41252 0.93619 0.84943 0.0
H428 H 0.38503 0.96237 0.8246 0.0
H429 H 0.33936 0.97468 0.88767 0.0
H430 H 0.3664 0.94827 0.91281 0.0
H431 H 0.5031 0.95306 0.97312 0.0
H432 H 0.48395 0.92476 0.94381 0.0
H433 H 0.4122 0.94454 0.97114 0.0
H434 H 0.43144 0.9734 0.99991 0.0
H435 H 0.41446 0.95273 0.9243 0.0
H436 H 0.4271 0.87182 0.9683 0.0
H437 H 0.45131 0.84073 0.99084 0.0
H438 H 0.51173 0.85131 0.94118 0.0
H439 H 0.4874 0.88175 0.91776 0.0
C440 C 0.36427 0.87644 0.84683 0.0
C441 C 0.37859 0.86734 0.82737 0.0
C442 C 0.37548 0.88658 0.86763 0.0
C443 C 0.40123 0.88794 0.86937 0.0
C444 C 0.41561 0.87836 0.85028 0.0
C445 C 0.40441 0.86822 0.82944 0.0
C446 C 0.41311 0.8997 0.89097 0.0
C447 C 0.42957 0.88592 0.90526 0.0
C448 C 0.40758 0.92407 0.89798 0.0
C449 C 0.39135 0.94006 0.88294 0.0
C450 C 0.39651 0.94432 0.85796 0.0
C451 C 0.38102 0.95923 0.84384 0.0
C452 C 0.36043 0.97013 0.85453 0.0
C453 C 0.35531 0.96619 0.8794 0.0
C454 C 0.37071 0.95128 0.8936 0.0
C455 C 0.48332 0.9505 0.97355 0.0
C456 C 0.46871 0.96515 0.98885 0.0
C457 C 0.47234 0.93426 0.95681 0.0
C458 C 0.44656 0.9323 0.95528 0.0
C459 C 0.4321 0.94569 0.97192 0.0
C460 C 0.44307 0.96213 0.98839 0.0
C461 C 0.43467 0.91999 0.93387 0.0
C462 C 0.41831 0.93382 0.91935 0.0
C463 C 0.44028 0.89571 0.92663 0.0
C464 C 0.45574 0.87935 0.94173 0.0
C465 C 0.44569 0.86772 0.96245 0.0
C466 C 0.45932 0.85007 0.97522 0.0
C467 C 0.48313 0.84424 0.9676 0.0
C468 C 0.49332 0.85593 0.9471 0.0
C469 C 0.47957 0.87324 0.93399 0.0
H470 H 0.49365 0.83064 0.97754 0.0
H471 H 0.34846 0.98166 0.84357 0.0
H472 H 0.63184 0.34268 0.71474 0.0
H473 H 0.61204 0.36258 0.67949 0.0
H474 H 0.68293 0.38701 0.65344 0.0
H475 H 0.70292 0.36669 0.68817 0.0
H476 H 0.64891 0.42446 0.65876 0.0
H477 H 0.65238 0.34279 0.62574 0.0
H478 H 0.64398 0.29832 0.62596 0.0
H479 H 0.56634 0.31212 0.62183 0.0
H480 H 0.57414 0.35674 0.62299 0.0
H481 H 0.61278 0.48477 0.55223 0.0
H482 H 0.6329 0.4538 0.57793 0.0
H483 H 0.56196 0.42345 0.59704 0.0
H484 H 0.54183 0.45409 0.5707 0.0
H485 H 0.59568 0.3875 0.59427 0.0
H486 H 0.58957 0.46565 0.63398 0.0
H487 H 0.59453 0.51053 0.63807 0.0
H488 H 0.67297 0.50313 0.63225 0.0
H489 H 0.66843 0.45821 0.62777 0.0
C490 C 0.64328 0.3518 0.70123 0.0
C491 C 0.66898 0.35326 0.70443 0.0
C492 C 0.63191 0.36321 0.68112 0.0
C493 C 0.64603 0.37624 0.66386 0.0
C494 C 0.6717 0.3771 0.66661 0.0
C495 C 0.68307 0.36562 0.68658 0.0
C496 C 0.63406 0.39077 0.64413 0.0
C497 C 0.6376 0.4163 0.64444 0.0
C498 C 0.61851 0.38015 0.62603 0.0
C499 C 0.61387 0.35324 0.6249 0.0
C500 C 0.63348 0.33642 0.62533 0.0
C501 C 0.62881 0.31115 0.62526 0.0
C502 C 0.60464 0.3024 0.62401 0.0
C503 C 0.58506 0.31892 0.6229 0.0
C504 C 0.58959 0.34422 0.62342 0.0
C505 C 0.60156 0.47119 0.5616 0.0
C506 C 0.57583 0.47176 0.55962 0.0
C507 C 0.61303 0.45354 0.57627 0.0
C508 C 0.59891 0.43664 0.58983 0.0
C509 C 0.57322 0.43634 0.58681 0.0
C510 C 0.56174 0.45383 0.57181 0.0
C511 C 0.61079 0.42109 0.60889 0.0
C512 C 0.60715 0.39553 0.60854 0.0
C513 C 0.62582 0.43161 0.62743 0.0
C514 C 0.62864 0.45861 0.63029 0.0
C515 C 0.60786 0.47362 0.6334 0.0
C516 C 0.6106 0.49905 0.63581 0.0
C517 C 0.63405 0.50968 0.63536 0.0
C518 C 0.65481 0.49488 0.63256 0.0
C519 C 0.65217 0.46943 0.6301 0.0
H520 H 0.63613 0.52938 0.63722 0.0
H521 H 0.60109 0.28282 0.62374 0.0
H522 H 0.89102 0.64728 0.21477 0.0
H523 H 0.91431 0.63163 0.17976 0.0
H524 H 0.90735 0.70171 0.14327 0.0
H525 H 0.88369 0.71742 0.17819 0.0
H526 H 0.89667 0.66339 0.11258 0.0
H527 H 0.96171 0.68639 0.1667 0.0
H528 H 0.98444 0.68848 0.20595 0.0
H529 H 0.99315 0.61008 0.20558 0.0
H530 H 0.97015 0.60746 0.16651 0.0
H531 H 0.01179 0.59861 0.05093 0.0
H532 H 0.99343 0.63158 0.07551 0.0
H533 H 0.92537 0.59066 0.07918 0.0
H534 H 0.94357 0.55788 0.05463 0.0
H535 H 0.97836 0.62407 0.12249 0.0
H536 H 0.87954 0.62466 0.08487 0.0
H537 H 0.85702 0.62634 0.04541 0.0
H538 H 0.91789 0.66404 0.0121 0.0
H539 H 0.94117 0.66183 0.05108 0.0
C540 C 0.89437 0.65933 0.19926 0.0
C541 C 0.88549 0.68357 0.1992 0.0
C542 C 0.90788 0.65045 0.17937 0.0
C543 C 0.91277 0.66559 0.15903 0.0
C544 C 0.90387 0.68977 0.15885 0.0
C545 C 0.89049 0.69874 0.17884 0.0
C546 C 0.92644 0.65572 0.13766 0.0
C547 C 0.91464 0.655 0.1147 0.0
C548 C 0.95012 0.64526 0.14026 0.0
C549 C 0.96407 0.64673 0.16372 0.0
C550 C 0.96832 0.66957 0.17507 0.0
C551 C 0.98128 0.67085 0.19728 0.0
C552 C 0.9902 0.64943 0.20827 0.0
C553 C 0.98622 0.62667 0.19705 0.0
C554 C 0.97326 0.62528 0.17485 0.0
C555 C 0.9927 0.59703 0.05643 0.0
C556 C 0.97904 0.57577 0.05086 0.0
C557 C 0.98226 0.61582 0.0705 0.0
C558 C 0.95796 0.61369 0.07903 0.0
C559 C 0.94399 0.59295 0.07246 0.0
C560 C 0.95446 0.57412 0.05862 0.0
C561 C 0.9482 0.631 0.09764 0.0
C562 C 0.96065 0.63295 0.12022 0.0
C563 C 0.92529 0.64285 0.09464 0.0
C564 C 0.9121 0.64293 0.0708 0.0
C565 C 0.8882 0.6331 0.06903 0.0
C566 C 0.87538 0.63403 0.04672 0.0
C567 C 0.88615 0.6451 0.02618 0.0
C568 C 0.90979 0.65514 0.0279 0.0
C569 C 0.92289 0.65386 0.05003 0.0
H570 H 0.87614 0.64603 0.00897 0.0
H571 H 1.00023 0.65046 0.22546 0.0
H572 H 0.30005 0.15483 0.13623 0.0
H573 H 0.33583 0.13261 0.12102 0.0
H574 H 0.35693 0.11494 0.19549 0.0
H575 H 0.32185 0.13817 0.21092 0.0
H576 H 0.39577 0.12837 0.17098 0.0
H577 H 0.33028 0.07161 0.15706 0.0
H578 H 0.28986 0.05732 0.14197 0.0
H579 H 0.31173 0.0725 0.06766 0.0
H580 H 0.35219 0.08721 0.08233 0.0
H581 H 0.45569 0.0213 0.0928 0.0
H582 H 0.42571 0.03756 0.12218 0.0
H583 H 0.44911 0.11141 0.1048 0.0
H584 H 0.47895 0.09509 0.0753 0.0
H585 H 0.38824 0.06509 0.10587 0.0
H586 H 0.4385 0.14781 0.14958 0.0
H587 H 0.47569 0.15838 0.17363 0.0
H588 H 0.48139 0.08353 0.19801 0.0
H589 H 0.44496 0.07236 0.17332 0.0
C590 C 0.31241 0.14642 0.14942 0.0
C591 C 0.30802 0.14832 0.17483 0.0
C592 C 0.33272 0.13344 0.14066 0.0
C593 C 0.34892 0.1218 0.15709 0.0
C594 C 0.34464 0.12368 0.18245 0.0
C595 C 0.32441 0.13678 0.19124 0.0
C596 C 0.37065 0.10817 0.1478 0.0
C597 C 0.39408 0.11452 0.15674 0.0
C598 C 0.36849 0.08957 0.12975 0.0
C599 C 0.3442 0.0807 0.12083 0.0
C600 C 0.32641 0.07207 0.13751 0.0
C601 C 0.3035 0.06387 0.12903 0.0
C602 C 0.29821 0.06405 0.10388 0.0
C603 C 0.31585 0.07239 0.08714 0.0
C604 C 0.33878 0.08063 0.09553 0.0
C605 C 0.45499 0.04094 0.09598 0.0
C606 C 0.46971 0.057 0.08212 0.0
C607 C 0.43784 0.05022 0.11267 0.0
C608 C 0.43519 0.0757 0.11575 0.0
C609 C 0.45106 0.09168 0.10302 0.0
C610 C 0.46803 0.0824 0.08614 0.0
C611 C 0.41338 0.08567 0.1287 0.0
C612 C 0.38989 0.07881 0.12023 0.0
C613 C 0.41541 0.10331 0.14762 0.0
C614 C 0.4392 0.10925 0.15948 0.0
C615 C 0.44803 0.13355 0.15971 0.0
C616 C 0.46898 0.13963 0.17343 0.0
C617 C 0.48093 0.12164 0.18734 0.0
C618 C 0.47235 0.09739 0.18702 0.0
C619 C 0.45172 0.09112 0.17294 0.0
H620 H 0.49683 0.12649 0.19835 0.0
H621 H 0.28046 0.05769 0.09734 0.0
H622 H 0.19253 0.84499 0.66385 0.0
H623 H 0.15589 0.86532 0.64749 0.0
H624 H 0.18862 0.9361 0.66251 0.0
H625 H 0.22534 0.9159 0.67884 0.0
H626 H 0.14079 0.93528 0.6757 0.0
H627 H 0.18795 0.91297 0.60462 0.0
H628 H 0.2106 0.88492 0.57731 0.0
H629 H 0.14524 0.84147 0.56703 0.0
H630 H 0.12228 0.86909 0.59458 0.0
H631 H 0.07309 0.00982 0.59078 0.0
H632 H 0.10068 0.9881 0.61892 0.0
H633 H 0.06557 0.91941 0.59995 0.0
H634 H 0.03832 0.94122 0.57139 0.0
H635 H 0.11291 0.91786 0.59057 0.0
H636 H 0.0702 0.93394 0.67006 0.0
H637 H 0.04876 0.96008 0.70015 0.0
H638 H 0.10486 0.01537 0.69277 0.0
H639 H 0.12723 0.98894 0.66348 0.0
C640 C 0.19199 0.86489 0.66352 0.0
C641 C 0.2119 0.87883 0.67253 0.0
C642 C 0.17101 0.87648 0.65423 0.0
C643 C 0.16962 0.90224 0.65355 0.0
C644 C 0.18927 0.9162 0.66292 0.0
C645 C 0.21023 0.90463 0.67227 0.0
C646 C 0.14786 0.91464 0.64269 0.0
C647 C 0.13482 0.9316 0.657 0.0
C648 C 0.13972 0.90953 0.61849 0.0
C649 C 0.15347 0.89294 0.60187 0.0
C650 C 0.17846 0.89732 0.5967 0.0
C651 C 0.19134 0.88152 0.58114 0.0
C652 C 0.17938 0.86139 0.5705 0.0
C653 C 0.15449 0.85705 0.57533 0.0
C654 C 0.14153 0.87278 0.59089 0.0
C655 C 0.07055 0.99026 0.59357 0.0
C656 C 0.05343 0.97717 0.57933 0.0
C657 C 0.08631 0.97781 0.60969 0.0
C658 C 0.08515 0.95207 0.61176 0.0
C659 C 0.06677 0.93925 0.59876 0.0
C660 C 0.05115 0.95169 0.58255 0.0
C661 C 0.10561 0.93836 0.62365 0.0
C662 C 0.11863 0.92129 0.60939 0.0
C663 C 0.11379 0.94339 0.6478 0.0
C664 C 0.10006 0.95976 0.66438 0.0
C665 C 0.07779 0.95178 0.67473 0.0
C666 C 0.06558 0.96655 0.69174 0.0
C667 C 0.07523 0.98953 0.69808 0.0
C668 C 0.09734 0.99762 0.68773 0.0
C669 C 0.10991 0.98267 0.67112 0.0
H670 H 0.06563 0.00102 0.71106 0.0
H671 H 0.18939 0.84918 0.55846 0.0
H672 H 0.84119 0.34132 0.88805 0.0
H673 H 0.87518 0.36397 0.90696 0.0
H674 H 0.85115 0.43043 0.87108 0.0
H675 H 0.81664 0.4081 0.85256 0.0
H676 H 0.90172 0.42284 0.86742 0.0
H677 H 0.83984 0.42371 0.93006 0.0
H678 H 0.80902 0.40556 0.95797 0.0
H679 H 0.8652 0.36203 0.99241 0.0
H680 H 0.89631 0.37967 0.96445 0.0
H681 H 0.97111 0.50682 0.94409 0.0
H682 H 0.94235 0.48405 0.91764 0.0
H683 H 0.95934 0.41732 0.95706 0.0
H684 H 0.98822 0.44003 0.98316 0.0
H685 H 0.91173 0.42604 0.958 0.0
H686 H 0.97297 0.4222 0.89495 0.0
H687 H 0.00309 0.43432 0.86338 0.0
H688 H 0.94936 0.48099 0.82919 0.0
H689 H 0.91881 0.46899 0.86052 0.0
C690 C 0.84289 0.36081 0.88439 0.0
C691 C 0.82604 0.37287 0.86884 0.0
C692 C 0.86242 0.37371 0.89513 0.0
C693 C 0.86557 0.39891 0.89056 0.0
C694 C 0.84907 0.41097 0.8748 0.0
C695 C 0.82941 0.39812 0.86415 0.0
C696 C 0.8861 0.41262 0.90228 0.0
C697 C 0.90376 0.42395 0.88724 0.0
C698 C 0.88902 0.41342 0.9281 0.0
C699 C 0.87036 0.40284 0.945 0.0
C700 C 0.84559 0.41011 0.94344 0.0
C701 C 0.82807 0.39995 0.9593 0.0
C702 C 0.83513 0.38261 0.97691 0.0
C703 C 0.85975 0.37544 0.97874 0.0
C704 C 0.87733 0.38553 0.96291 0.0
C705 C 0.96957 0.48709 0.94619 0.0
C706 C 0.98221 0.47506 0.96523 0.0
C707 C 0.95297 0.47411 0.93126 0.0
C708 C 0.94867 0.44893 0.93533 0.0
C709 C 0.96232 0.43672 0.95357 0.0
C710 C 0.97884 0.44967 0.96843 0.0
C711 C 0.92776 0.43608 0.92314 0.0
C712 C 0.90981 0.42505 0.93816 0.0
C713 C 0.92467 0.43548 0.89731 0.0
C714 C 0.94368 0.44486 0.88019 0.0
C715 C 0.96771 0.43539 0.88097 0.0
C716 C 0.9848 0.44208 0.86298 0.0
C717 C 0.97809 0.45832 0.84421 0.0
C718 C 0.95447 0.46832 0.84367 0.0
C719 C 0.93725 0.46154 0.86151 0.0
H720 H 0.9911 0.46303 0.82996 0.0
H721 H 0.82155 0.37476 0.98917 0.0
H722 H 0.69525 0.65519 0.31687 0.0
H723 H 0.66134 0.63122 0.3347 0.0
H724 H 0.6994 0.62961 0.4044 0.0
H725 H 0.73335 0.65321 0.38667 0.0
H726 H 0.67928 0.58499 0.39324 0.0
H727 H 0.65499 0.67025 0.39454 0.0
H728 H 0.64595 0.71068 0.37615 0.0
H729 H 0.58943 0.67818 0.33136 0.0
H730 H 0.59843 0.63738 0.34925 0.0
H731 H 0.57134 0.59847 0.47906 0.0
H732 H 0.59717 0.61586 0.44675 0.0
H733 H 0.5982 0.54567 0.40993 0.0
H734 H 0.57294 0.52794 0.44293 0.0
H735 H 0.59633 0.62254 0.39815 0.0
H736 H 0.65698 0.53746 0.38848 0.0
H737 H 0.66744 0.49956 0.4112 0.0
H738 H 0.65342 0.53606 0.47966 0.0
H739 H 0.64318 0.57421 0.45735 0.0
C740 C 0.69647 0.64948 0.33592 0.0
C741 C 0.71687 0.65623 0.35044 0.0
C742 C 0.67706 0.63589 0.34609 0.0
C743 C 0.67781 0.62872 0.3709 0.0
C744 C 0.69846 0.6349 0.3852 0.0
C745 C 0.71773 0.64859 0.37512 0.0
C746 C 0.65677 0.61572 0.38249 0.0
C747 C 0.66105 0.59303 0.39401 0.0
C748 C 0.63303 0.62628 0.38367 0.0
C749 C 0.62763 0.65073 0.37292 0.0
C750 C 0.64081 0.67167 0.38058 0.0
C751 C 0.63567 0.69465 0.37028 0.0
C752 C 0.61721 0.69696 0.3525 0.0
C753 C 0.60379 0.6763 0.34505 0.0
C754 C 0.6089 0.65326 0.35524 0.0
C755 C 0.57671 0.58687 0.46383 0.0
C756 C 0.57005 0.56192 0.46337 0.0
C757 C 0.59133 0.59685 0.44528 0.0
C758 C 0.59981 0.58204 0.42601 0.0
C759 C 0.59201 0.5574 0.42473 0.0
C760 C 0.57739 0.54735 0.44342 0.0
C761 C 0.61892 0.59197 0.4092 0.0
C762 C 0.61433 0.6141 0.39671 0.0
C763 C 0.64256 0.5812 0.4076 0.0
C764 C 0.64904 0.55853 0.42123 0.0
C765 C 0.6562 0.53737 0.40838 0.0
C766 C 0.66208 0.51586 0.42118 0.0
C767 C 0.661 0.51537 0.44685 0.0
C768 C 0.65416 0.53643 0.45978 0.0
C769 C 0.64831 0.55799 0.44707 0.0
H770 H 0.66552 0.4987 0.45672 0.0
H771 H 0.61323 0.71477 0.34457 0.0
H772 H 0.12344 0.31682 0.16344 0.0
H773 H 0.10884 0.35263 0.14057 0.0
H774 H 0.18283 0.36726 0.11576 0.0
H775 H 0.19773 0.3321 0.1394 0.0
H776 H 0.16195 0.40839 0.12938 0.0
H777 H 0.13957 0.34116 0.07749 0.0
H778 H 0.1205 0.30135 0.06689 0.0
H779 H 0.04925 0.32972 0.0853 0.0
H780 H 0.06795 0.36962 0.09633 0.0
H781 H 0.08451 0.46625 0.02042 0.0
H782 H 0.1124 0.43596 0.03871 0.0
H783 H 0.09817 0.46586 0.11066 0.0
H784 H 0.0701 0.49609 0.09231 0.0
H785 H 0.09289 0.40227 0.0699 0.0
H786 H 0.14261 0.45487 0.14635 0.0
H787 H 0.17135 0.48924 0.15434 0.0
H788 H 0.19688 0.48563 0.0798 0.0
H789 H 0.16756 0.45202 0.07114 0.0
C790 C 0.13666 0.32778 0.15331 0.0
C791 C 0.16177 0.32153 0.15323 0.0
C792 C 0.12823 0.3481 0.14002 0.0
C793 C 0.14469 0.36247 0.1262 0.0
C794 C 0.16977 0.35639 0.12622 0.0
C795 C 0.17823 0.33614 0.13957 0.0
C796 C 0.13584 0.38407 0.11202 0.0
C797 C 0.14681 0.40703 0.11639 0.0
C798 C 0.11652 0.38225 0.09461 0.0
C799 C 0.10519 0.35831 0.08794 0.0
C800 C 0.11986 0.33885 0.07945 0.0
C801 C 0.10911 0.31628 0.07334 0.0
C802 C 0.08369 0.31299 0.07548 0.0
C803 C 0.06895 0.33229 0.08368 0.0
C804 C 0.0796 0.35489 0.08984 0.0
C805 C 0.08813 0.46693 0.04002 0.0
C806 C 0.07548 0.48359 0.05498 0.0
C807 C 0.10398 0.4496 0.05045 0.0
C808 C 0.10743 0.44866 0.07604 0.0
C809 C 0.09608 0.46644 0.09085 0.0
C810 C 0.07999 0.48362 0.08041 0.0
C811 C 0.11882 0.42668 0.08751 0.0
C812 C 0.10808 0.40361 0.08283 0.0
C813 C 0.1387 0.42827 0.1042 0.0
C814 C 0.15276 0.45121 0.10806 0.0
C815 C 0.15394 0.46188 0.13154 0.0
C816 C 0.17036 0.48117 0.13619 0.0
C817 C 0.18597 0.48959 0.1176 0.0
C818 C 0.18463 0.47928 0.09411 0.0
C819 C 0.16789 0.46032 0.08923 0.0
H820 H 0.1991 0.50409 0.12143 0.0
H821 H 0.0754 0.29551 0.07073 0.0
H822 H 0.70416 0.18606 0.88811 0.0
H823 H 0.68336 0.15354 0.91157 0.0
H824 H 0.61307 0.18613 0.89456 0.0
H825 H 0.63365 0.21883 0.87165 0.0
H826 H 0.61693 0.17453 0.94283 0.0
H827 H 0.6339 0.13563 0.86427 0.0
H828 H 0.66062 0.12053 0.83101 0.0
H829 H 0.69866 0.07406 0.8823 0.0
H830 H 0.67239 0.08908 0.91593 0.0
H831 H 0.53904 0.05943 0.94497 0.0
H832 H 0.56909 0.08592 0.92404 0.0
H833 H 0.60608 0.09893 0.99313 0.0
H834 H 0.57589 0.07259 0.01407 0.0
H835 H 0.62242 0.08612 0.92125 0.0
H836 H 0.61689 0.16201 0.9932 0.0
H837 H 0.58918 0.17641 0.02603 0.0
H838 H 0.52671 0.14868 0.98611 0.0
H839 H 0.55401 0.13444 0.95293 0.0
C840 C 0.68428 0.18632 0.88948 0.0
C841 C 0.67054 0.20496 0.87794 0.0
C842 C 0.67243 0.16765 0.90273 0.0
C843 C 0.64666 0.16735 0.90468 0.0
C844 C 0.63297 0.186 0.89327 0.0
C845 C 0.64475 0.20455 0.87999 0.0
C846 C 0.63368 0.14794 0.91882 0.0
C847 C 0.61831 0.15519 0.93818 0.0
C848 C 0.63556 0.12267 0.9129 0.0
C849 C 0.6514 0.11374 0.89267 0.0
C850 C 0.64813 0.12237 0.8685 0.0
C851 C 0.66316 0.11377 0.84957 0.0
C852 C 0.68139 0.09639 0.85455 0.0
C853 C 0.68458 0.08753 0.87847 0.0
C854 C 0.66962 0.09608 0.89747 0.0
C855 C 0.55384 0.06768 0.95554 0.0
C856 C 0.55549 0.06382 0.981 0.0
C857 C 0.57104 0.08261 0.9436 0.0
C858 C 0.58978 0.0943 0.95706 0.0
C859 C 0.5918 0.08997 0.98243 0.0
C860 C 0.57472 0.07484 0.99432 0.0
C861 C 0.60557 0.11286 0.9449 0.0
C862 C 0.62144 0.10544 0.92605 0.0
C863 C 0.60418 0.138 0.95121 0.0
C864 C 0.58751 0.14693 0.97076 0.0
C865 C 0.59723 0.15908 0.99142 0.0
C866 C 0.5816 0.1672 0.01008 0.0
C867 C 0.55621 0.16338 0.0082 0.0
C868 C 0.54638 0.15154 0.98759 0.0
C869 C 0.56193 0.14342 0.96887 0.0
H870 H 0.54415 0.16965 0.02268 0.0
H871 H 0.69299 0.08973 0.83988 0.0
H872 H 0.84865 0.82088 0.40371 0.0
H873 H 0.86817 0.8543 0.42673 0.0
H874 H 0.89738 0.88409 0.35932 0.0
H875 H 0.8773 0.85131 0.33604 0.0
H876 H 0.93289 0.87558 0.3951 0.0
H877 H 0.85446 0.91491 0.38804 0.0
H878 H 0.80953 0.91961 0.39195 0.0
H879 H 0.8152 0.9107 0.47022 0.0
H880 H 0.86015 0.90556 0.46673 0.0
H881 H 0.9918 0.98052 0.43902 0.0
H882 H 0.96345 0.9535 0.41668 0.0
H883 H 0.92684 0.93536 0.48475 0.0
H884 H 0.95449 0.96342 0.50686 0.0
H885 H 0.89443 0.93625 0.45084 0.0
H886 H 0.97192 0.89722 0.45813 0.0
H887 H 0.01697 0.89272 0.45528 0.0
H888 H 0.01305 0.90101 0.37684 0.0
H889 H 0.96799 0.9059 0.37925 0.0
C890 C 0.8587 0.83485 0.39367 0.0
C891 C 0.86159 0.8332 0.36799 0.0
C892 C 0.86989 0.85393 0.40689 0.0
C893 C 0.88424 0.87163 0.39472 0.0
C894 C 0.88647 0.87053 0.36906 0.0
C895 C 0.87513 0.85164 0.35582 0.0
C896 C 0.89874 0.88997 0.40882 0.0
C897 C 0.92445 0.88926 0.40684 0.0
C898 C 0.88774 0.90703 0.42497 0.0
C899 C 0.86064 0.90946 0.42707 0.0
C900 C 0.8461 0.9136 0.40605 0.0
C901 C 0.82063 0.91644 0.4082 0.0
C902 C 0.8095 0.91535 0.43131 0.0
C903 C 0.82383 0.91146 0.45232 0.0
C904 C 0.84931 0.90858 0.45026 0.0
C905 C 0.97745 0.97099 0.44908 0.0
C906 C 0.97523 0.97392 0.47457 0.0
C907 C 0.96139 0.95542 0.43639 0.0
C908 C 0.94349 0.94173 0.44913 0.0
C909 C 0.9406 0.94553 0.47451 0.0
C910 C 0.95633 0.96157 0.48712 0.0
C911 C 0.92854 0.92284 0.43608 0.0
C912 C 0.90283 0.92299 0.43867 0.0
C913 C 0.93951 0.90521 0.42046 0.0
C914 C 0.9666 0.90214 0.4189 0.0
C915 C 0.98069 0.89824 0.44029 0.0
C916 C 0.00622 0.89561 0.43875 0.0
C917 C 0.01787 0.89664 0.4159 0.0
C918 C 0.004 0.90024 0.39453 0.0
C919 C 0.97846 0.90292 0.39597 0.0
H920 H 0.03765 0.89459 0.41475 0.0
H921 H 0.78979 0.91761 0.43294 0.0
H922 H 0.41288 0.73091 0.66255 0.0
H923 H 0.43232 0.69696 0.64092 0.0
H924 H 0.36104 0.67052 0.6176 0.0
H925 H 0.34131 0.70396 0.64014 0.0
H926 H 0.38852 0.63342 0.63283 0.0
H927 H 0.39963 0.6999 0.57714 0.0
H928 H 0.41125 0.74165 0.56373 0.0
H929 H 0.48636 0.72802 0.58422 0.0
H930 H 0.47513 0.68629 0.5981 0.0
H931 H 0.45705 0.56412 0.53411 0.0
H932 H 0.42775 0.5922 0.55365 0.0
H933 H 0.4798 0.60541 0.6121 0.0
H934 H 0.50826 0.57616 0.59375 0.0
H935 H 0.45753 0.64786 0.57502 0.0
H936 H 0.4434 0.58058 0.63296 0.0
H937 H 0.42934 0.53953 0.64593 0.0
H938 H 0.35645 0.55572 0.62003 0.0
H939 H 0.37043 0.5963 0.60554 0.0
C940 C 0.40127 0.71778 0.65302 0.0
C941 C 0.3755 0.72017 0.65314 0.0
C942 C 0.41246 0.69852 0.64038 0.0
C943 C 0.39818 0.68137 0.62731 0.0
C944 C 0.37244 0.68361 0.62744 0.0
C945 C 0.36121 0.70286 0.64017 0.0
C946 C 0.41023 0.66081 0.61409 0.0
C947 C 0.40332 0.63658 0.61985 0.0
C948 C 0.4296 0.66493 0.59721 0.0
C949 C 0.43648 0.69001 0.58883 0.0
C950 C 0.41859 0.70586 0.57896 0.0
C951 C 0.42512 0.72952 0.57125 0.0
C952 C 0.44952 0.7375 0.57317 0.0
C953 C 0.46746 0.72182 0.58276 0.0
C954 C 0.46103 0.69814 0.59052 0.0
C955 C 0.46165 0.57193 0.55177 0.0
C956 C 0.48467 0.56732 0.56268 0.0
C957 C 0.44507 0.58827 0.56273 0.0
C958 C 0.45155 0.60054 0.58448 0.0
C959 C 0.47436 0.5958 0.59551 0.0
C960 C 0.49063 0.57915 0.58491 0.0
C961 C 0.43616 0.62061 0.59423 0.0
C962 C 0.44247 0.64476 0.58772 0.0
C963 C 0.41607 0.61637 0.61016 0.0
C964 C 0.40818 0.5913 0.61751 0.0
C965 C 0.4246 0.57512 0.62923 0.0
C966 C 0.4166 0.55192 0.63697 0.0
C967 C 0.39207 0.54488 0.63357 0.0
C968 C 0.37551 0.56102 0.62239 0.0
C969 C 0.38351 0.58405 0.61424 0.0
H970 H 0.38589 0.527 0.63978 0.0
H971 H 0.45453 0.75582 0.56718 0.0
H972 H 0.00452 0.96056 0.82058 0.0
H973 H 0.02099 0.96917 0.77929 0.0
H974 H 0.94835 0.95961 0.74843 0.0
H975 H 0.93192 0.95122 0.78934 0.0
H976 H 0.9856 0.93593 0.72148 0.0
H977 H 0.96727 0.0157 0.75801 0.0
H978 H 0.97164 0.04734 0.79018 0.0
H979 H 0.04965 0.05019 0.77784 0.0
H980 H 0.04573 0.01832 0.74585 0.0
H981 H 0.9587 0.00462 0.61757 0.0
H982 H 0.96297 0.9877 0.65895 0.0
H983 H 0.04067 0.00448 0.65813 0.0
H984 H 0.03628 0.02163 0.61636 0.0
H985 H 0.01402 0.02043 0.70161 0.0
H986 H 0.0273 0.94886 0.65468 0.0
H987 H 0.02032 0.91829 0.6221 0.0
H988 H 0.95008 0.89995 0.65321 0.0
H989 H 0.95645 0.93065 0.68589 0.0
C990 C 0.99219 0.96018 0.8049 0.0
C991 C 0.96693 0.95548 0.80809 0.0
C992 C 0.00158 0.9651 0.78142 0.0
C993 C 0.98585 0.965 0.76088 0.0
C994 C 0.96079 0.95967 0.76405 0.0
C995 C 0.95139 0.95511 0.78742 0.0
C996 C 0.99483 0.97154 0.73604 0.0
C997 C 0.99195 0.95433 0.71706 0.0
C998 C 0.00384 0.99533 0.73055 0.0
C999 C 0.00625 0.0145 0.74971 0.0
C1000 C 0.98537 0.02297 0.76229 0.0
C1001 C 0.98776 0.04095 0.78048 0.0
C1002 C 0.01092 0.05074 0.78609 0.0
C1003 C 0.03172 0.04258 0.7735 0.0
C1004 C 0.02943 0.02457 0.75532 0.0
C1005 C 0.97672 0.00448 0.62615 0.0
C1006 C 0.99728 0.01398 0.6138 0.0
C1007 C 0.97916 0.99477 0.6497 0.0
C1008 C 0.00216 0.99462 0.66146 0.0
C1009 C 0.02282 0.00424 0.64924 0.0
C1010 C 0.0204 0.01372 0.62538 0.0
C1011 C 0.00377 0.9851 0.68687 0.0
C1012 C 0.00853 0.00174 0.706 0.0
C1013 C 0.99632 0.96079 0.69247 0.0
C1014 C 0.99241 0.94213 0.67286 0.0
C1015 C 0.01033 0.93839 0.65461 0.0
C1016 C 0.00648 0.92103 0.63607 0.0
C1017 C 0.98479 0.90718 0.63558 0.0
C1018 C 0.96691 0.91066 0.65364 0.0
C1019 C 0.97066 0.92802 0.67222 0.0
H1020 H 0.98183 0.89375 0.6212 0.0
H1021 H 0.01274 0.06466 0.80017 0.0
H1022 H 0.53036 0.104 0.31616 0.0
H1023 H 0.51389 0.09531 0.27488 0.0
H1024 H 0.58741 0.09873 0.24525 0.0
H1025 H 0.60379 0.10757 0.28611 0.0
H1026 H 0.55321 0.12116 0.21491 0.0
H1027 H 0.56234 0.0444 0.26154 0.0
H1028 H 0.55293 0.01682 0.29634 0.0
H1029 H 0.47605 0.01908 0.27789 0.0
H1030 H 0.48501 0.04695 0.24314 0.0
H1031 H 0.57286 0.04289 0.11609 0.0
H1032 H 0.57089 0.06458 0.15522 0.0
H1033 H 0.49317 0.04857 0.16008 0.0
H1034 H 0.49544 0.02598 0.12097 0.0
H1035 H 0.51795 0.03782 0.20258 0.0
H1036 H 0.51163 0.10459 0.1481 0.0
H1037 H 0.52111 0.13162 0.11313 0.0
H1038 H 0.5915 0.14892 0.14487 0.0
H1039 H 0.58263 0.12174 0.18002 0.0
C1040 C 0.54288 0.10324 0.30072 0.0
C1041 C 0.56837 0.10612 0.30432 0.0
C1042 C 0.53349 0.09824 0.27723 0.0
C1043 C 0.54947 0.09623 0.25707 0.0
C1044 C 0.57476 0.10024 0.26054 0.0
C1045 C 0.58412 0.10504 0.28392 0.0
C1046 C 0.54059 0.08808 0.23262 0.0
C1047 C 0.54545 0.10298 0.21211 0.0
C1048 C 0.52961 0.06472 0.22917 0.0
C1049 C 0.52429 0.04798 0.24999 0.0
C1050 C 0.54341 0.03916 0.26504 0.0
C1051 C 0.53817 0.02346 0.28473 0.0
C1052 C 0.5139 0.01627 0.28938 0.0
C1053 C 0.49483 0.02472 0.27431 0.0
C1054 C 0.49998 0.04046 0.25462 0.0
C1055 C 0.55531 0.04419 0.12541 0.0
C1056 C 0.53413 0.03326 0.11539 0.0
C1057 C 0.55416 0.05672 0.14765 0.0
C1058 C 0.53181 0.05853 0.16034 0.0
C1059 C 0.51053 0.04763 0.15038 0.0
C1060 C 0.5117 0.03509 0.12795 0.0
C1061 C 0.53151 0.07052 0.18471 0.0
C1062 C 0.52506 0.05629 0.20524 0.0
C1063 C 0.54091 0.09459 0.1881 0.0
C1064 C 0.54639 0.11106 0.16689 0.0
C1065 C 0.52917 0.11407 0.14771 0.0
C1066 C 0.53445 0.12945 0.12779 0.0
C1067 C 0.55688 0.14201 0.12679 0.0
C1068 C 0.57409 0.13922 0.14571 0.0
C1069 C 0.56891 0.12386 0.16569 0.0
H1070 H 0.56095 0.15389 0.11133 0.0
H1071 H 0.50987 0.0041 0.30462 0.0
H1072 H 0.48786 0.61303 0.24396 0.0
H1073 H 0.50309 0.60137 0.28463 0.0
H1074 H 0.50602 0.52551 0.26185 0.0
H1075 H 0.49071 0.53707 0.22112 0.0
H1076 H 0.48107 0.53031 0.30328 0.0
H1077 H 0.55974 0.55863 0.27408 0.0
H1078 H 0.58815 0.58829 0.25469 0.0
H1079 H 0.57169 0.64135 0.31053 0.0
H1080 H 0.54333 0.61195 0.33039 0.0
H1081 H 0.52799 0.48122 0.41039 0.0
H1082 H 0.52982 0.49559 0.36784 0.0
H1083 H 0.52081 0.57036 0.39242 0.0
H1084 H 0.51941 0.55598 0.43527 0.0
H1085 H 0.55081 0.56663 0.35012 0.0
H1086 H 0.47131 0.53946 0.37819 0.0
H1087 H 0.44218 0.51051 0.39757 0.0
H1088 H 0.4587 0.45635 0.34276 0.0
H1089 H 0.48824 0.48487 0.32327 0.0
C1090 C 0.49228 0.59394 0.24743 0.0
C1091 C 0.48797 0.57594 0.22937 0.0
C1092 C 0.50104 0.5873 0.27069 0.0
C1093 C 0.50586 0.56258 0.27625 0.0
C1094 C 0.5024 0.5447 0.25796 0.0
C1095 C 0.49355 0.5513 0.23475 0.0
C1096 C 0.5121 0.55505 0.30175 0.0
C1097 C 0.49663 0.53792 0.3133 0.0
C1098 C 0.53185 0.56562 0.31516 0.0
C1099 C 0.54929 0.58315 0.30361 0.0
C1100 C 0.56216 0.57664 0.2822 0.0
C1101 C 0.57832 0.59338 0.27118 0.0
C1102 C 0.58178 0.61668 0.28142 0.0
C1103 C 0.56914 0.62325 0.30274 0.0
C1104 C 0.55308 0.60653 0.31394 0.0
C1105 C 0.52706 0.50078 0.40673 0.0
C1106 C 0.52341 0.51752 0.42596 0.0
C1107 C 0.52813 0.50896 0.38247 0.0
C1108 C 0.52496 0.53396 0.37699 0.0
C1109 C 0.52323 0.55098 0.3963 0.0
C1110 C 0.5224 0.54278 0.4207 0.0
C1111 C 0.52003 0.5416 0.3513 0.0
C1112 C 0.53548 0.55887 0.33988 0.0
C1113 C 0.50014 0.53128 0.33792 0.0
C1114 C 0.48216 0.5142 0.34943 0.0
C1115 C 0.46886 0.52131 0.37038 0.0
C1116 C 0.45226 0.50499 0.38137 0.0
C1117 C 0.44863 0.48159 0.37144 0.0
C1118 C 0.46155 0.47448 0.35045 0.0
C1119 C 0.47822 0.49071 0.33942 0.0
H1120 H 0.43577 0.46898 0.37997 0.0
H1121 H 0.59423 0.62965 0.27282 0.0
H1122 H 0.1094 0.44712 0.74461 0.0
H1123 H 0.09415 0.45555 0.78588 0.0
H1124 H 0.02004 0.46041 0.75767 0.0
H1125 H 0.03532 0.45207 0.71598 0.0
H1126 H 0.03276 0.49903 0.78948 0.0
H1127 H 0.03333 0.41189 0.79015 0.0
H1128 H 0.04992 0.37038 0.78317 0.0
H1129 H 0.10905 0.38507 0.83366 0.0
H1130 H 0.09303 0.42682 0.84068 0.0
H1131 H 1.00025 0.51769 0.91471 0.0
H1132 H 0.9992 0.49804 0.87412 0.0
H1133 H 0.07614 0.47975 0.8817 0.0
H1134 H 0.07675 0.4984 0.92247 0.0
H1135 H 0.05256 0.44358 0.85927 0.0
H1136 H 0.0555 0.53331 0.85157 0.0
H1137 H 0.0388 0.57486 0.85836 0.0
H1138 H 0.972 0.55444 0.8211 0.0
H1139 H 0.98826 0.51269 0.81432 0.0
C1140 C 0.08987 0.4501 0.74714 0.0
C1141 C 0.07356 0.44907 0.72707 0.0
C1142 C 0.08115 0.45469 0.77076 0.0
C1143 C 0.05594 0.45835 0.77485 0.0
C1144 C 0.03955 0.4575 0.75487 0.0
C1145 C 0.04826 0.45266 0.73115 0.0
C1146 C 0.04722 0.46374 0.80004 0.0
C1147 C 0.03655 0.48669 0.80471 0.0
C1148 C 0.05234 0.4477 0.81988 0.0
C1149 C 0.06204 0.42256 0.81582 0.0
C1150 C 0.04997 0.40634 0.79963 0.0
C1151 C 0.05926 0.38275 0.79569 0.0
C1152 C 0.08054 0.37511 0.80793 0.0
C1153 C 0.09256 0.39102 0.82419 0.0
C1154 C 0.08336 0.41464 0.82818 0.0
C1155 C 0.0165 0.50844 0.90809 0.0
C1156 C 0.0384 0.50897 0.92178 0.0
C1157 C 0.01607 0.49761 0.88474 0.0
C1158 C 0.03769 0.48762 0.87473 0.0
C1159 C 0.05923 0.48725 0.88902 0.0
C1160 C 0.0596 0.49794 0.91226 0.0
C1161 C 0.0389 0.47921 0.84882 0.0
C1162 C 0.04828 0.45572 0.84401 0.0
C1163 C 0.03256 0.49474 0.82887 0.0
C1164 C 0.02299 0.51989 0.83263 0.0
C1165 C 0.03722 0.53769 0.84492 0.0
C1166 C 0.02784 0.56125 0.84876 0.0
C1167 C 0.00433 0.56727 0.84021 0.0
C1168 C 0.99019 0.54975 0.82773 0.0
C1169 C 0.99948 0.52614 0.82387 0.0
H1170 H 0.99709 0.58552 0.84322 0.0
H1171 H 0.0877 0.35684 0.80486 0.0
H1172 H 0.77015 0.9532 0.92854 0.0
H1173 H 0.73031 0.97219 0.93685 0.0
H1174 H 0.76703 0.03467 0.96934 0.0
H1175 H 0.80712 0.0157 0.96091 0.0
H1176 H 0.73106 0.01423 0.9991 0.0
H1177 H 0.73789 0.04341 0.91782 0.0
H1178 H 0.74588 0.04202 0.87328 0.0
H1179 H 0.68537 0.99199 0.86349 0.0
H1180 H 0.67735 0.99256 0.90806 0.0
H1181 H 0.60961 0.04678 0.02867 0.0
H1182 H 0.64926 0.05426 0.00835 0.0
H1183 H 0.63806 0.98943 0.964 0.0
H1184 H 0.59816 0.9826 0.98367 0.0
H1185 H 0.66334 0.0244 0.93853 0.0
H1186 H 0.66648 0.98615 0.02014 0.0
H1187 H 0.65889 0.98552 0.06485 0.0
H1188 H 0.7012 0.05182 0.07329 0.0
H1189 H 0.70878 0.05296 0.02855 0.0
C1190 C 0.76972 0.97105 0.93732 0.0
C1191 C 0.79165 0.98293 0.94424 0.0
C1192 C 0.74699 0.982 0.94182 0.0
C1193 C 0.74575 0.00495 0.95347 0.0
C1194 C 0.76764 0.01704 0.96014 0.0
C1195 C 0.79045 0.00622 0.95532 0.0
C1196 C 0.72147 0.01491 0.96066 0.0
C1197 C 0.71642 0.01716 0.98581 0.0
C1198 C 0.70235 0.01846 0.94329 0.0
C1199 C 0.70711 0.01792 0.9164 0.0
C1200 C 0.72644 0.03188 0.90624 0.0
C1201 C 0.73098 0.03124 0.88096 0.0
C1202 C 0.71616 0.0169 0.86557 0.0
C1203 C 0.69682 0.00311 0.87544 0.0
C1204 C 0.69227 0.00358 0.90072 0.0
C1205 C 0.61523 0.03485 0.01381 0.0
C1206 C 0.60088 0.01438 0.00733 0.0
C1207 C 0.63792 0.03896 0.00239 0.0
C1208 C 0.64675 0.02223 0.98486 0.0
C1209 C 0.63159 0.00265 0.97736 0.0
C1210 C 0.60889 0.99868 0.98863 0.0
C1211 C 0.67285 0.02263 0.97693 0.0
C1212 C 0.67822 0.02226 0.95171 0.0
C1213 C 0.69232 0.02061 0.99418 0.0
C1214 C 0.68793 0.01981 0.02104 0.0
C1215 C 0.67403 0.00066 0.03154 0.0
C1216 C 0.66974 1.0002 0.05687 0.0
C1217 C 0.67949 0.01866 0.07189 0.0
C1218 C 0.69361 0.03757 0.06162 0.0
C1219 C 0.69791 0.03813 0.03629 0.0
H1220 H 0.67615 0.01828 0.0915 0.0
H1221 H 0.71965 0.01651 0.84599 0.0
H1222 H 0.72216 0.02709 0.45395 0.0
H1223 H 0.76149 0.00607 0.46121 0.0
H1224 H 0.80071 0.07099 0.43766 0.0
H1225 H 0.76159 0.09207 0.43059 0.0
H1226 H 0.82051 0.02478 0.41947 0.0
H1227 H 0.79252 0.06407 0.49565 0.0
H1228 H 0.76243 0.07029 0.52893 0.0
H1229 H 0.76521 0.99341 0.54667 0.0
H1230 H 0.79509 0.98671 0.51323 0.0
H1231 H 0.93352 0.04536 0.47552 0.0
H1232 H 0.89401 0.03995 0.45497 0.0
H1233 H 0.87609 0.9806 0.50476 0.0
H1234 H 0.91534 0.98725 0.52627 0.0
H1235 H 0.84223 0.01119 0.50706 0.0
H1236 H 0.87743 0.97322 0.43827 0.0
H1237 H 0.90746 0.9653 0.40519 0.0
H1238 H 0.89085 0.03526 0.37272 0.0
H1239 H 0.86107 0.04369 0.40575 0.0
C1240 C 0.73921 0.03672 0.45009 0.0
C1241 C 0.73893 0.06126 0.44196 0.0
C1242 C 0.76159 0.02471 0.45419 0.0
C1243 C 0.78394 0.037 0.44991 0.0
C1244 C 0.78364 0.06117 0.44092 0.0
C1245 C 0.76134 0.07327 0.43716 0.0
C1246 C 0.80772 0.02576 0.45684 0.0
C1247 C 0.82541 0.02168 0.43857 0.0
C1248 C 0.8136 0.02076 0.48165 0.0
C1249 C 0.79575 0.02484 0.50177 0.0
C1250 C 0.78654 0.04847 0.50651 0.0
C1251 C 0.76956 0.05209 0.52542 0.0
C1252 C 0.76185 0.03224 0.53985 0.0
C1253 C 0.77116 0.00875 0.53544 0.0
C1254 C 0.7881 0.00503 0.51652 0.0
C1255 C 0.92149 0.03055 0.4814 0.0
C1256 C 0.92734 0.01657 0.50222 0.0
C1257 C 0.89891 0.02729 0.46955 0.0
C1258 C 0.88191 0.00972 0.47813 0.0
C1259 C 0.88879 0.9943 0.49777 0.0
C1260 C 0.91123 0.99795 0.50995 0.0
C1261 C 0.85581 0.0109 0.46976 0.0
C1262 C 0.83748 0.01328 0.48779 0.0
C1263 C 0.84933 0.01395 0.44467 0.0
C1264 C 0.86714 0.00908 0.4246 0.0
C1265 C 0.88038 0.98694 0.42417 0.0
C1266 C 0.89731 0.98236 0.40543 0.0
C1267 C 0.90109 0.99978 0.38692 0.0
C1268 C 0.8879 0.02178 0.38708 0.0
C1269 C 0.87095 0.02643 0.40578 0.0
H1270 H 0.91421 0.99621 0.37243 0.0
H1271 H 0.74871 0.03508 0.55449 0.0
H1272 H 0.31373 0.52499 0.09365 0.0
H1273 H 0.27128 0.51173 0.08504 0.0
H1274 H 0.24738 0.5872 0.08768 0.0
H1275 H 0.28942 0.60043 0.09659 0.0
H1276 H 0.21476 0.5558 0.11066 0.0
H1277 H 0.26071 0.56026 0.03342 0.0
H1278 H 0.2944 0.5482 0.00568 0.0
H1279 H 0.27089 0.47286 0.00971 0.0
H1280 H 0.23722 0.48448 0.03775 0.0
H1281 H 0.1148 0.57829 0.03378 0.0
H1282 H 0.15408 0.57493 0.05534 0.0
H1283 H 0.15583 0.49715 0.03987 0.0
H1284 H 0.11672 0.50091 0.01718 0.0
H1285 H 0.19875 0.51928 0.02861 0.0
H1286 H 0.1454 0.51734 0.09606 0.0
H1287 H 0.11168 0.52876 0.12368 0.0
H1288 H 0.14749 0.59745 0.1394 0.0
H1289 H 0.18143 0.58665 0.11157 0.0
C1290 C 0.29932 0.53866 0.0927 0.0
C1291 C 0.3049 0.56377 0.09546 0.0
C1292 C 0.27514 0.53109 0.08773 0.0
C1293 C 0.25624 0.54852 0.08555 0.0
C1294 C 0.26167 0.57345 0.08929 0.0
C1295 C 0.28574 0.58101 0.09411 0.0
C1296 C 0.23107 0.5414 0.07773 0.0
C1297 C 0.21114 0.54786 0.09273 0.0
C1298 C 0.22651 0.53009 0.05475 0.0
C1299 C 0.24669 0.52318 0.03789 0.0
C1300 C 0.26286 0.5411 0.02854 0.0
C1301 C 0.28192 0.53435 0.01274 0.0
C1302 C 0.28484 0.50976 0.006 0.0
C1303 C 0.26865 0.49188 0.01499 0.0
C1304 C 0.24958 0.49854 0.03083 0.0
C1305 C 0.12344 0.56043 0.03529 0.0
C1306 C 0.11259 0.53967 0.02447 0.0
C1307 C 0.14577 0.55848 0.04771 0.0
C1308 C 0.15767 0.53572 0.04956 0.0
C1309 C 0.14676 0.51482 0.03889 0.0
C1310 C 0.12431 0.51683 0.02636 0.0
C1311 C 0.1823 0.53457 0.06116 0.0
C1312 C 0.20218 0.52668 0.04682 0.0
C1313 C 0.18671 0.54439 0.08486 0.0
C1314 C 0.16616 0.55111 0.10163 0.0
C1315 C 0.14616 0.53495 0.10527 0.0
C1316 C 0.12695 0.54131 0.12101 0.0
C1317 C 0.12744 0.56381 0.13332 0.0
C1318 C 0.14716 0.57999 0.12989 0.0
C1319 C 0.16645 0.57371 0.11417 0.0
H1320 H 0.11253 0.56872 0.14549 0.0
H1321 H 0.2996 0.50457 0.99376 0.0
H1322 H 0.26493 0.44334 0.60111 0.0
H1323 H 0.30519 0.4613 0.59131 0.0
H1324 H 0.26954 0.52039 0.55228 0.0
H1325 H 0.22909 0.50273 0.56253 0.0
H1326 H 0.30893 0.49207 0.52618 0.0
H1327 H 0.29394 0.53769 0.60054 0.0
H1328 H 0.28288 0.54256 0.6442 0.0
H1329 H 0.34299 0.49596 0.6653 0.0
H1330 H 0.35418 0.49053 0.62173 0.0
H1331 H 0.42365 0.53914 0.4952 0.0
H1332 H 0.38157 0.54064 0.51118 0.0
H1333 H 0.40434 0.49798 0.57429 0.0
H1334 H 0.4467 0.49839 0.55921 0.0
H1335 H 0.36878 0.5231 0.58785 0.0
H1336 H 0.38109 0.47196 0.51743 0.0
H1337 H 0.39314 0.46219 0.47486 0.0
H1338 H 0.33898 0.51256 0.44727 0.0
H1339 H 0.32684 0.52286 0.48972 0.0
C1340 C 0.26573 0.46023 0.59055 0.0
C1341 C 0.24402 0.47167 0.58248 0.0
C1342 C 0.28865 0.47052 0.5851 0.0
C1343 C 0.29023 0.4922 0.5712 0.0
C1344 C 0.2686 0.50371 0.56313 0.0
C1345 C 0.2456 0.49367 0.569 0.0
C1346 C 0.31463 0.50189 0.56405 0.0
C1347 C 0.32187 0.49952 0.53949 0.0
C1348 C 0.33165 0.51061 0.58168 0.0
C1349 C 0.32477 0.51356 0.60787 0.0
C1350 C 0.30464 0.52828 0.61448 0.0
C1351 C 0.29839 0.53119 0.63921 0.0
C1352 C 0.31219 0.51954 0.65751 0.0
C1353 C 0.33228 0.50495 0.65111 0.0
C1354 C 0.33859 0.50195 0.6264 0.0
C1355 C 0.41971 0.53101 0.51297 0.0
C1356 C 0.43816 0.51866 0.52608 0.0
C1357 C 0.39565 0.53154 0.52194 0.0
C1358 C 0.38949 0.51851 0.54343 0.0
C1359 C 0.40846 0.50796 0.55754 0.0
C1360 C 0.43269 0.50821 0.54898 0.0
C1361 C 0.3633 0.51357 0.54985 0.0
C1362 C 0.35572 0.51646 0.57433 0.0
C1363 C 0.34611 0.50464 0.53225 0.0
C1364 C 0.35328 0.4984 0.50672 0.0
C1365 C 0.37186 0.48105 0.50227 0.0
C1366 C 0.3787 0.47542 0.47818 0.0
C1367 C 0.36689 0.48681 0.45838 0.0
C1368 C 0.34816 0.5038 0.46263 0.0
C1369 C 0.34129 0.50955 0.4867 0.0
H1370 H 0.37221 0.48242 0.43974 0.0
H1371 H 0.30735 0.52185 0.67666 0.0
H1372 H 0.91395 0.80492 0.00171 0.0
H1373 H 0.92272 0.76251 0.0142 0.0
H1374 H 0.95693 0.74925 0.94398 0.0
H1375 H 0.94732 0.79095 0.93106 0.0
H1376 H 0.93013 0.71095 0.95653 0.0
H1377 H 0.99027 0.76403 0.99719 0.0
H1378 H 0.00317 0.79731 0.02522 0.0
H1379 H 0.96754 0.76067 0.08546 0.0
H1380 H 0.95419 0.7273 0.05769 0.0
H1381 H 0.04044 0.63756 0.99495 0.0
H1382 H 0.0166 0.67541 0.99721 0.0
H1383 H 0.94951 0.63288 0.00159 0.0
H1384 H 0.97347 0.59487 0.99922 0.0
H1385 H 0.98438 0.69653 0.02862 0.0
H1386 H 0.9068 0.66418 0.96584 0.0
H1387 H 0.89767 0.63132 0.93589 0.0
H1388 H 0.97409 0.62805 0.91621 0.0
H1389 H 0.9836 0.66103 0.94588 0.0
C1390 C 0.92305 0.79284 0.98883 0.0
C1391 C 0.93019 0.80144 0.96547 0.0
C1392 C 0.92819 0.76866 0.99606 0.0
C1393 C 0.94069 0.75274 0.98012 0.0
C1394 C 0.94726 0.76115 0.95662 0.0
C1395 C 0.94205 0.78516 0.94937 0.0
C1396 C 0.94801 0.72759 0.98782 0.0
C1397 C 0.94172 0.70777 0.9725 0.0
C1398 C 0.96302 0.72331 0.00871 0.0
C1399 C 0.97095 0.74339 0.02533 0.0
C1400 C 0.98502 0.76319 0.01638 0.0
C1401 C 0.99244 0.78204 0.03221 0.0
C1402 C 0.9861 0.78115 0.05708 0.0
C1403 C 0.97238 0.76137 0.06618 0.0
C1404 C 0.96488 0.74249 0.05041 0.0
C1405 C 0.02062 0.63634 0.99683 0.0
C1406 C 0.00873 0.61342 0.99695 0.0
C1407 C 0.00703 0.65794 0.99832 0.0
C1408 C 0.98126 0.65704 0.99956 0.0
C1409 C 0.96936 0.63407 0.00074 0.0
C1410 C 0.98304 0.61237 0.99941 0.0
C1411 C 0.96728 0.68023 0.99679 0.0
C1412 C 0.97218 0.69961 0.0131 0.0
C1413 C 0.95145 0.68427 0.9765 0.0
C1414 C 0.94592 0.66479 0.95829 0.0
C1415 C 0.92163 0.65645 0.95509 0.0
C1416 C 0.91639 0.63782 0.93817 0.0
C1417 C 0.9353 0.62754 0.92423 0.0
C1418 C 0.95947 0.63596 0.92709 0.0
C1419 C 0.9648 0.6546 0.94396 0.0
H1420 H 0.93122 0.6131 0.91116 0.0
H1421 H 0.99187 0.79576 0.06932 0.0
H1422 H 0.45766 0.72139 0.0314 0.0
H1423 H 0.46533 0.76364 0.01712 0.0
H1424 H 0.45098 0.79074 0.09016 0.0
H1425 H 0.44345 0.74877 0.10446 0.0
H1426 H 0.429 0.81916 0.05272 0.0
H1427 H 0.50788 0.78338 0.07447 0.0
H1428 H 0.54046 0.75208 0.07157 0.0
H1429 H 0.54844 0.76726 0.99449 0.0
H1430 H 0.51567 0.7984 0.9969 0.0
H1431 H 0.4945 0.92691 0.07906 0.0
H1432 H 0.47689 0.88561 0.07579 0.0
H1433 H 0.50032 0.88172 1.00013 0.0
H1434 H 0.51808 0.92319 0.00354 0.0
H1435 H 0.5142 0.84118 0.02822 0.0
H1436 H 0.4423 0.88668 0.01183 0.0
H1437 H 0.41052 0.91826 0.01711 0.0
H1438 H 0.38947 0.88601 0.08603 0.0
H1439 H 0.42136 0.85431 0.08136 0.0
C1440 C 0.45595 0.73644 0.04428 0.0
C1441 C 0.45022 0.73189 0.06906 0.0
C1442 C 0.46033 0.76048 0.03613 0.0
C1443 C 0.45872 0.78023 0.05262 0.0
C1444 C 0.45221 0.77574 0.07715 0.0
C1445 C 0.44816 0.75178 0.08534 0.0
C1446 C 0.46528 0.80553 0.04502 0.0
C1447 C 0.44759 0.82409 0.04734 0.0
C1448 C 0.48937 0.81166 0.0373 0.0
C1449 C 0.50912 0.79301 0.03579 0.0
C1450 C 0.51644 0.77989 0.05686 0.0
C1451 C 0.53497 0.7622 0.05532 0.0
C1452 C 0.54646 0.75763 0.03284 0.0
C1453 C 0.53949 0.77079 0.01188 0.0
C1454 C 0.52094 0.78847 0.01333 0.0
C1455 C 0.49542 0.91734 0.06162 0.0
C1456 C 0.50708 0.92817 0.04137 0.0
C1457 C 0.48535 0.89386 0.05974 0.0
C1458 C 0.48702 0.88074 0.03762 0.0
C1459 C 0.49856 0.89165 0.01724 0.0
C1460 C 0.50843 0.91536 0.01908 0.0
C1461 C 0.47812 0.85505 0.03675 0.0
C1462 C 0.4954 0.83635 0.03292 0.0
C1463 C 0.45366 0.84887 0.04328 0.0
C1464 C 0.43431 0.86796 0.04618 0.0
C1465 C 0.43097 0.88626 0.02814 0.0
C1466 C 0.41292 0.90424 0.03104 0.0
C1467 C 0.39797 0.90414 0.05188 0.0
C1468 C 0.40104 0.88603 0.06987 0.0
C1469 C 0.41909 0.86801 0.06707 0.0
H1470 H 0.384 0.91809 0.0541 0.0
H1471 H 0.5608 0.74393 0.03168 0.0
H1472 H 0.12546 0.28538 0.5608 0.0
H1473 H 0.11105 0.24506 0.54684 0.0
H1474 H 0.03881 0.27505 0.53355 0.0
H1475 H 0.05308 0.31533 0.54756 0.0
H1476 H 0.03676 0.23546 0.56207 0.0
H1477 H 0.07763 0.25755 0.48721 0.0
H1478 H 0.11296 0.2714 0.46243 0.0
H1479 H 0.15301 0.20656 0.48269 0.0
H1480 H 0.11827 0.19271 0.50833 0.0
H1481 H 0.98081 0.12927 0.51928 0.0
H1482 H 0.99879 0.17042 0.51627 0.0
H1483 H 0.07065 0.14059 0.53188 0.0
H1484 H 0.05267 0.09922 0.53455 0.0
H1485 H 0.07311 0.18011 0.49959 0.0
H1486 H 0.037 0.16123 0.57804 0.0
H1487 H 0.00404 0.14727 0.60592 0.0
H1488 H 0.95738 0.20558 0.58041 0.0
H1489 H 0.98996 0.21967 0.55211 0.0
C1490 C 0.10665 0.28348 0.5544 0.0
C1491 C 0.09033 0.30346 0.55546 0.0
C1492 C 0.09845 0.26044 0.54639 0.0
C1493 C 0.07387 0.25705 0.53905 0.0
C1494 C 0.05784 0.27723 0.53918 0.0
C1495 C 0.06598 0.3002 0.54729 0.0
C1496 C 0.06412 0.2321 0.53369 0.0
C1497 C 0.04445 0.2236 0.54805 0.0
C1498 C 0.07475 0.21625 0.51601 0.0
C1499 C 0.09543 0.22428 0.50006 0.0
C1500 C 0.09407 0.24638 0.48667 0.0
C1501 C 0.11404 0.25427 0.47252 0.0
C1502 C 0.13531 0.23999 0.4712 0.0
C1503 C 0.13659 0.2177 0.48389 0.0
C1504 C 0.11678 0.20984 0.49828 0.0
C1505 C 0.00051 0.13146 0.52156 0.0
C1506 C 0.01538 0.11119 0.52723 0.0
C1507 C 0.01077 0.15492 0.5198 0.0
C1508 C 0.03597 0.15859 0.52429 0.0
C1509 C 0.05116 0.13815 0.52836 0.0
C1510 C 0.04089 0.11456 0.52991 0.0
C1511 C 0.04569 0.18384 0.52782 0.0
C1512 C 0.06535 0.19224 0.51334 0.0
C1513 C 0.03536 0.19965 0.54564 0.0
C1514 C 0.01581 0.19134 0.56278 0.0
C1515 C 0.01964 0.17096 0.57826 0.0
C1516 C 0.00104 0.16304 0.59414 0.0
C1517 C 0.97861 0.17549 0.59489 0.0
C1518 C 0.97475 0.19593 0.57979 0.0
C1519 C 0.99328 0.2039 0.56383 0.0
H1520 H 0.96423 0.16933 0.6072 0.0
H1521 H 0.1507 0.24609 0.46014 0.0
H1522 H 0.63349 0.25416 0.48032 0.0
H1523 H 0.62159 0.29403 0.49726 0.0
H1524 H 0.54938 0.26521 0.51374 0.0
H1525 H 0.56112 0.22544 0.49664 0.0
H1526 H 0.54669 0.30596 0.48732 0.0
H1527 H 0.59219 0.27977 0.55816 0.0
H1528 H 0.62889 0.2639 0.57951 0.0
H1529 H 0.66943 0.32871 0.55939 0.0
H1530 H 0.63325 0.34461 0.53712 0.0
H1531 H 0.49746 0.41199 0.53324 0.0
H1532 H 0.51474 0.37081 0.53792 0.0
H1533 H 0.58618 0.39848 0.51692 0.0
H1534 H 0.56898 0.43996 0.51287 0.0
H1535 H 0.5894 0.35798 0.54915 0.0
H1536 H 0.5491 0.38004 0.47319 0.0
H1537 H 0.51489 0.39611 0.44805 0.0
H1538 H 0.46719 0.33944 0.47576 0.0
H1539 H 0.50106 0.32327 0.50139 0.0
C1540 C 0.61526 0.25619 0.48806 0.0
C1541 C 0.59815 0.23675 0.48697 0.0
C1542 C 0.6085 0.27897 0.49779 0.0
C1543 C 0.58461 0.2826 0.50688 0.0
C1544 C 0.56789 0.26285 0.50678 0.0
C1545 C 0.57458 0.24018 0.49692 0.0
C1546 C 0.5761 0.30751 0.51394 0.0
C1547 C 0.55578 0.31706 0.50123 0.0
C1548 C 0.58851 0.3224 0.53145 0.0
C1549 C 0.61005 0.31322 0.5456 0.0
C1550 C 0.609 0.29052 0.55799 0.0
C1551 C 0.62976 0.28146 0.57018 0.0
C1552 C 0.65156 0.29517 0.57058 0.0
C1553 C 0.65258 0.31804 0.55892 0.0
C1554 C 0.63196 0.32705 0.54645 0.0
C1555 C 0.51701 0.40939 0.53044 0.0
C1556 C 0.53189 0.42896 0.5225 0.0
C1557 C 0.52688 0.38592 0.53315 0.0
C1558 C 0.55161 0.38152 0.52723 0.0
C1559 C 0.56704 0.40148 0.52152 0.0
C1560 C 0.55721 0.42512 0.51913 0.0
C1561 C 0.55994 0.35602 0.52267 0.0
C1562 C 0.58022 0.34655 0.53559 0.0
C1563 C 0.54782 0.34114 0.50503 0.0
C1564 C 0.52752 0.35062 0.48939 0.0
C1565 C 0.53127 0.37111 0.47404 0.0
C1566 C 0.51195 0.38023 0.4597 0.0
C1567 C 0.48886 0.36884 0.46036 0.0
C1568 C 0.48507 0.34826 0.4753 0.0
C1569 C 0.50432 0.33911 0.48974 0.0
H1570 H 0.47393 0.37593 0.44924 0.0
H1571 H 0.66757 0.28818 0.58014 0.0
loop_
_geom_bond_atom_site_label_1
_geom_bond_atom_site_label_2
_geom_bond_distance
_geom_bond_site_symmetry_2
_ccdc_geom_bond_type
C0 C1 1.384 . S
C0 H13 0.947 . S
C0 C35 1.382 . S
C1 C0 1.384 . S
C1 C2 1.378 . S
C2 C1 1.378 . S
C2 C3 1.378 . S
C2 H14 0.952 . S
C3 C2 1.378 . S
C3 H15 0.950 . S
C3 C34 1.383 . S
H4 C23 0.947 . S
H5 C24 0.946 . S
H6 C26 0.953 . S
H7 C27 0.945 . S
H8 C29 0.952 . S
H9 C30 0.949 . S
H10 C32 0.950 . S
H11 C33 0.948 . S
H12 C35 0.951 . S
H13 C0 0.947 . S
H14 C2 0.952 . S
H15 C3 0.950 . S
N16 C19 1.382 . S
N16 C21 1.363 . S
N17 C19 1.371 . S
N17 C20 1.372 . S
N18 C20 1.361 . S
N18 C21 1.377 . S
C19 N16 1.382 . S
C19 N17 1.371 . S
C19 C22 1.480 . S
C20 N17 1.372 . S
C20 N18 1.361 . S
C20 C28 1.457 . S
C21 N16 1.363 . S
C21 N18 1.377 . S
C21 C34 1.479 . S
C22 C19 1.480 . S
C22 C23 1.383 . S
C22 C27 1.385 . S
C23 H4 0.947 . S
C23 C22 1.383 . S
C23 C24 1.388 . S
C24 H5 0.946 . S
C24 C23 1.388 . S
C24 C25 1.384 . S
C25 C24 1.384 . S
C25 C26 1.377 . S
C26 H6 0.953 . S
C26 C25 1.377 . S
C26 C27 1.369 . S
C27 H7 0.945 . S
C27 C22 1.385 . S
C27 C26 1.369 . S
C28 C20 1.457 . S
C28 C29 1.372 . S
C28 C33 1.364 . S
C29 H8 0.952 . S
C29 C28 1.372 . S
C29 C30 1.389 . S
C30 H9 0.949 . S
C30 C29 1.389 . S
C30 C31 1.387 . S
C31 C30 1.387 . S
C31 C32 1.372 . S
C32 H10 0.950 . S
C32 C31 1.372 . S
C32 C33 1.379 . S
C33 H11 0.948 . S
C33 C28 1.364 . S
C33 C32 1.379 . S
C34 C3 1.383 . S
C34 C21 1.479 . S
C34 C35 1.398 . S
C35 C0 1.382 . S
C35 H12 0.951 . S
C35 C34 1.398 . S
C36 C37 1.384 . S
C36 H49 0.947 . S
C36 C71 1.382 . S
C37 C36 1.384 . S
C37 C38 1.378 . S
C38 C37 1.378 . S
C38 C39 1.378 . S
C38 H50 0.952 . S
C39 C38 1.378 . S
C39 H51 0.950 . S
C39 C70 1.383 . S
H40 C59 0.947 . S
H41 C60 0.946 . S
H42 C62 0.953 . S
H43 C63 0.945 . S
H44 C65 0.952 . S
H45 C66 0.949 . S
H46 C68 0.950 . S
H47 C69 0.948 . S
H48 C71 0.951 . S
H49 C36 0.947 . S
H50 C38 0.952 . S
H51 C39 0.950 . S
N52 C55 1.382 . S
N52 C57 1.363 . S
N53 C55 1.371 . S
N53 C56 1.372 . S
N54 C56 1.361 . S
N54 C57 1.377 . S
C55 N52 1.382 . S
C55 N53 1.371 . S
C55 C58 1.480 . S
C56 N53 1.372 . S
C56 N54 1.361 . S
C56 C64 1.457 . S
C57 N52 1.363 . S
C57 N54 1.377 . S
C57 C70 1.479 . S
C58 C55 1.480 . S
C58 C59 1.383 . S
C58 C63 1.385 . S
C59 H40 0.947 . S
C59 C58 1.383 . S
C59 C60 1.388 . S
C60 H41 0.946 . S
C60 C59 1.388 . S
C60 C61 1.384 . S
C61 C60 1.384 . S
C61 C62 1.377 . S
C62 H42 0.953 . S
C62 C61 1.377 . S
C62 C63 1.369 . S
C63 H43 0.945 . S
C63 C58 1.385 . S
C63 C62 1.369 . S
C64 C56 1.457 . S
C64 C65 1.372 . S
C64 C69 1.364 . S
C65 H44 0.952 . S
C65 C64 1.372 . S
C65 C66 1.389 . S
C66 H45 0.949 . S
C66 C65 1.389 . S
C66 C67 1.387 . S
C67 C66 1.387 . S
C67 C68 1.372 . S
C68 H46 0.950 . S
C68 C67 1.372 . S
C68 C69 1.379 . S
C69 H47 0.948 . S
C69 C64 1.364 . S
C69 C68 1.379 . S
C70 C39 1.383 . S
C70 C57 1.479 . S
C70 C71 1.398 . S
C71 C36 1.382 . S
C71 H48 0.951 . S
C71 C70 1.398 . S
C72 C73 1.384 . S
C72 H85 0.947 . S
C72 C107 1.382 . S
C73 C72 1.384 . S
C73 C74 1.378 . S
C74 C73 1.378 . S
C74 C75 1.378 . S
C74 H86 0.952 . S
C75 C74 1.378 . S
C75 H87 0.950 . S
C75 C106 1.383 . S
H76 C95 0.947 . S
H77 C96 0.946 . S
H78 C98 0.953 . S
H79 C99 0.945 . S
H80 C101 0.952 . S
H81 C102 0.949 . S
H82 C104 0.950 . S
H83 C105 0.948 . S
H84 C107 0.951 . S
H85 C72 0.947 . S
H86 C74 0.952 . S
H87 C75 0.950 . S
N88 C91 1.382 . S
N88 C93 1.363 . S
N89 C91 1.371 . S
N89 C92 1.372 . S
N90 C92 1.361 . S
N90 C93 1.377 . S
C91 N88 1.382 . S
C91 N89 1.371 . S
C91 C94 1.480 . S
C92 N89 1.372 . S
C92 N90 1.361 . S
C92 C100 1.457 . S
C93 N88 1.363 . S
C93 N90 1.377 . S
C93 C106 1.479 . S
C94 C91 1.480 . S
C94 C95 1.383 . S
C94 C99 1.385 . S
C95 H76 0.947 . S
C95 C94 1.383 . S
C95 C96 1.388 . S
C96 H77 0.946 . S
C96 C95 1.388 . S
C96 C97 1.384 . S
C97 C96 1.384 . S
C97 C98 1.377 . S
C98 H78 0.953 . S
C98 C97 1.377 . S
C98 C99 1.369 . S
C99 H79 0.945 . S
C99 C94 1.385 . S
C99 C98 1.369 . S
C100 C92 1.457 . S
C100 C101 1.372 . S
C100 C105 1.364 . S
C101 H80 0.952 . S
C101 C100 1.372 . S
C101 C102 1.389 . S
C102 H81 0.949 . S
C102 C101 1.389 . S
C102 C103 1.387 . S
C103 C102 1.387 . S
C103 C104 1.372 . S
C104 H82 0.950 . S
C104 C103 1.372 . S
C104 C105 1.379 . S
C105 H83 0.948 . S
C105 C100 1.364 . S
C105 C104 1.379 . S
C106 C75 1.383 . S
C106 C93 1.479 . S
C106 C107 1.398 . S
C107 C72 1.382 . S
C107 H84 0.951 . S
C107 C106 1.398 . S
C108 C109 1.384 . S
C108 H121 0.947 . S
C108 C143 1.382 . S
C109 C108 1.384 . S
C109 C110 1.378 . S
C110 C109 1.378 . S
C110 C111 1.378 . S
C110 H122 0.952 . S
C111 C110 1.378 . S
C111 H123 0.950 . S
C111 C142 1.383 . S
H112 C131 0.947 . S
H113 C132 0.946 . S
H114 C134 0.953 . S
H115 C135 0.945 . S
H116 C137 0.952 . S
H117 C138 0.949 . S
H118 C140 0.950 . S
H119 C141 0.948 . S
H120 C143 0.951 . S
H121 C108 0.947 . S
H122 C110 0.952 . S
H123 C111 0.950 . S
N124 C127 1.382 . S
N124 C129 1.363 . S
N125 C127 1.371 . S
N125 C128 1.372 . S
N126 C128 1.361 . S
N126 C129 1.377 . S
C127 N124 1.382 . S
C127 N125 1.371 . S
C127 C130 1.480 . S
C128 N125 1.372 . S
C128 N126 1.361 . S
C128 C136 1.457 . S
C129 N124 1.363 . S
C129 N126 1.377 . S
C129 C142 1.479 . S
C130 C127 1.480 . S
C130 C131 1.383 . S
C130 C135 1.385 . S
C131 H112 0.947 . S
C131 C130 1.383 . S
C131 C132 1.388 . S
C132 H113 0.946 . S
C132 C131 1.388 . S
C132 C133 1.384 . S
C133 C132 1.384 . S
C133 C134 1.377 . S
C134 H114 0.953 . S
C134 C133 1.377 . S
C134 C135 1.369 . S
C135 H115 0.945 . S
C135 C130 1.385 . S
C135 C134 1.369 . S
C136 C128 1.457 . S
C136 C137 1.372 . S
C136 C141 1.364 . S
C137 H116 0.952 . S
C137 C136 1.372 . S
C137 C138 1.389 . S
C138 H117 0.949 . S
C138 C137 1.389 . S
C138 C139 1.387 . S
C139 C138 1.387 . S
C139 C140 1.372 . S
C140 H118 0.950 . S
C140 C139 1.372 . S
C140 C141 1.379 . S
C141 H119 0.948 . S
C141 C136 1.364 . S
C141 C140 1.379 . S
C142 C111 1.383 . S
C142 C129 1.479 . S
C142 C143 1.398 . S
C143 C108 1.382 . S
C143 H120 0.951 . S
C143 C142 1.398 . S
C144 C145 1.384 . S
C144 H157 0.947 . S
C144 C179 1.382 . S
C145 C144 1.384 . S
C145 C146 1.378 . S
C146 C145 1.378 . S
C146 C147 1.378 . S
C146 H158 0.952 1_556 S
C147 C146 1.378 . S
C147 H159 0.950 . S
C147 C178 1.383 . S
H148 C167 0.947 . S
H149 C168 0.946 . S
H150 C170 0.953 1_455 S
H151 C171 0.945 . S
H152 C173 0.952 . S
H153 C174 0.949 . S
H154 C176 0.950 1_545 S
H155 C177 0.948 . S
H156 C179 0.951 . S
H157 C144 0.947 . S
H158 C146 0.952 1_554 S
H159 C147 0.950 . S
N160 C163 1.382 . S
N160 C165 1.363 . S
N161 C163 1.371 . S
N161 C164 1.372 . S
N162 C164 1.361 . S
N162 C165 1.377 . S
C163 N160 1.382 . S
C163 N161 1.371 . S
C163 C166 1.480 . S
C164 N161 1.372 . S
C164 N162 1.361 . S
C164 C172 1.457 . S
C165 N160 1.363 . S
C165 N162 1.377 . S
C165 C178 1.479 . S
C166 C163 1.480 . S
C166 C167 1.383 . S
C166 C171 1.385 . S
C167 H148 0.947 . S
C167 C166 1.383 . S
C167 C168 1.388 . S
C168 H149 0.946 . S
C168 C167 1.388 . S
C168 C169 1.384 . S
C169 C168 1.384 . S
C169 C170 1.377 . S
C170 H150 0.953 1_655 S
C170 C169 1.377 . S
C170 C171 1.369 . S
C171 H151 0.945 . S
C171 C166 1.385 . S
C171 C170 1.369 . S
C172 C164 1.457 . S
C172 C173 1.372 . S
C172 C177 1.364 . S
C173 H152 0.952 . S
C173 C172 1.372 . S
C173 C174 1.389 . S
C174 H153 0.949 . S
C174 C173 1.389 . S
C174 C175 1.387 . S
C175 C174 1.387 . S
C175 C176 1.372 . S
C176 H154 0.950 1_565 S
C176 C175 1.372 . S
C176 C177 1.379 . S
C177 H155 0.948 . S
C177 C172 1.364 . S
C177 C176 1.379 . S
C178 C147 1.383 . S
C178 C165 1.479 . S
C178 C179 1.398 . S
C179 C144 1.382 . S
C179 H156 0.951 . S
C179 C178 1.398 . S
C180 C181 1.384 . S
C180 H193 0.947 . S
C180 C215 1.382 . S
C181 C180 1.384 . S
C181 C182 1.378 . S
C182 C181 1.378 . S
C182 C183 1.378 . S
C182 H194 0.952 . S
C183 C182 1.378 . S
C183 H195 0.950 . S
C183 C214 1.383 . S
H184 C203 0.947 . S
H185 C204 0.946 . S
H186 C206 0.953 . S
H187 C207 0.945 . S
H188 C209 0.952 . S
H189 C210 0.949 . S
H190 C212 0.950 . S
H191 C213 0.948 . S
H192 C215 0.951 . S
H193 C180 0.947 . S
H194 C182 0.952 . S
H195 C183 0.950 . S
N196 C199 1.382 . S
N196 C201 1.363 . S
N197 C199 1.371 . S
N197 C200 1.372 . S
N198 C200 1.361 . S
N198 C201 1.377 . S
C199 N196 1.382 . S
C199 N197 1.371 . S
C199 C202 1.480 . S
C200 N197 1.372 . S
C200 N198 1.361 . S
C200 C208 1.457 . S
C201 N196 1.363 . S
C201 N198 1.377 . S
C201 C214 1.479 . S
C202 C199 1.480 . S
C202 C203 1.383 . S
C202 C207 1.385 . S
C203 H184 0.947 . S
C203 C202 1.383 . S
C203 C204 1.388 . S
C204 H185 0.946 . S
C204 C203 1.388 . S
C204 C205 1.384 . S
C205 C204 1.384 . S
C205 C206 1.377 . S
C206 H186 0.953 . S
C206 C205 1.377 . S
C206 C207 1.369 . S
C207 H187 0.945 . S
C207 C202 1.385 . S
C207 C206 1.369 . S
C208 C200 1.457 . S
C208 C209 1.372 . S
C208 C213 1.364 . S
C209 H188 0.952 . S
C209 C208 1.372 . S
C209 C210 1.389 . S
C210 H189 0.949 . S
C210 C209 1.389 . S
C210 C211 1.387 . S
C211 C210 1.387 . S
C211 C212 1.372 . S
C212 H190 0.950 . S
C212 C211 1.372 . S
C212 C213 1.379 . S
C213 H191 0.948 . S
C213 C208 1.364 . S
C213 C212 1.379 . S
C214 C183 1.383 . S
C214 C201 1.479 . S
C214 C215 1.398 . S
C215 C180 1.382 . S
C215 H192 0.951 . S
C215 C214 1.398 . S
C216 C217 1.384 . S
C216 H229 0.947 . S
C216 C251 1.382 . S
C217 C216 1.384 . S
C217 C218 1.378 . S
C218 C217 1.378 . S
C218 C219 1.378 . S
C218 H230 0.952 . S
C219 C218 1.378 . S
C219 H231 0.950 . S
C219 C250 1.383 . S
H220 C239 0.947 . S
H221 C240 0.946 . S
H222 C242 0.953 . S
H223 C243 0.945 . S
H224 C245 0.952 . S
H225 C246 0.949 . S
H226 C248 0.950 . S
H227 C249 0.948 . S
H228 C251 0.951 . S
H229 C216 0.947 . S
H230 C218 0.952 . S
H231 C219 0.950 . S
N232 C235 1.382 . S
N232 C237 1.363 . S
N233 C235 1.371 . S
N233 C236 1.372 . S
N234 C236 1.361 . S
N234 C237 1.377 . S
C235 N232 1.382 . S
C235 N233 1.371 . S
C235 C238 1.480 . S
C236 N233 1.372 . S
C236 N234 1.361 . S
C236 C244 1.457 . S
C237 N232 1.363 . S
C237 N234 1.377 . S
C237 C250 1.479 . S
C238 C235 1.480 . S
C238 C239 1.383 . S
C238 C243 1.385 . S
C239 H220 0.947 . S
C239 C238 1.383 . S
C239 C240 1.388 . S
C240 H221 0.946 . S
C240 C239 1.388 . S
C240 C241 1.384 . S
C241 C240 1.384 . S
C241 C242 1.377 . S
C242 H222 0.953 . S
C242 C241 1.377 . S
C242 C243 1.369 . S
C243 H223 0.945 . S
C243 C238 1.385 . S
C243 C242 1.369 . S
C244 C236 1.457 . S
C244 C245 1.372 . S
C244 C249 1.364 . S
C245 H224 0.952 . S
C245 C244 1.372 . S
C245 C246 1.389 . S
C246 H225 0.949 . S
C246 C245 1.389 . S
C246 C247 1.387 . S
C247 C246 1.387 . S
C247 C248 1.372 . S
C248 H226 0.950 . S
C248 C247 1.372 . S
C248 C249 1.379 . S
C249 H227 0.948 . S
C249 C244 1.364 . S
C249 C248 1.379 . S
C250 C219 1.383 . S
C250 C237 1.479 . S
C250 C251 1.398 . S
C251 C216 1.382 . S
C251 H228 0.951 . S
C251 C250 1.398 . S
C252 C253 1.384 . S
C252 H265 0.947 . S
C252 C287 1.382 . S
C253 C252 1.384 . S
C253 C254 1.378 . S
C254 C253 1.378 . S
C254 C255 1.378 . S
C254 H266 0.952 . S
C255 C254 1.378 . S
C255 H267 0.950 . S
C255 C286 1.383 . S
H256 C275 0.947 . S
H257 C276 0.946 . S
H258 C278 0.953 . S
H259 C279 0.945 . S
H260 C281 0.952 . S
H261 C282 0.949 . S
H262 C284 0.950 . S
H263 C285 0.948 . S
H264 C287 0.951 . S
H265 C252 0.947 . S
H266 C254 0.952 . S
H267 C255 0.950 . S
N268 C271 1.382 . S
N268 C273 1.363 . S
N269 C271 1.371 . S
N269 C272 1.372 . S
N270 C272 1.361 . S
N270 C273 1.377 . S
C271 N268 1.382 . S
C271 N269 1.371 . S
C271 C274 1.480 . S
C272 N269 1.372 . S
C272 N270 1.361 . S
C272 C280 1.457 . S
C273 N268 1.363 . S
C273 N270 1.377 . S
C273 C286 1.479 . S
C274 C271 1.480 . S
C274 C275 1.383 . S
C274 C279 1.385 . S
C275 H256 0.947 . S
C275 C274 1.383 . S
C275 C276 1.388 . S
C276 H257 0.946 . S
C276 C275 1.388 . S
C276 C277 1.384 . S
C277 C276 1.384 . S
C277 C278 1.377 . S
C278 H258 0.953 . S
C278 C277 1.377 . S
C278 C279 1.369 . S
C279 H259 0.945 . S
C279 C274 1.385 . S
C279 C278 1.369 . S
C280 C272 1.457 . S
C280 C281 1.372 . S
C280 C285 1.364 . S
C281 H260 0.952 . S
C281 C280 1.372 . S
C281 C282 1.389 . S
C282 H261 0.949 . S
C282 C281 1.389 . S
C282 C283 1.387 . S
C283 C282 1.387 . S
C283 C284 1.372 . S
C284 H262 0.950 . S
C284 C283 1.372 . S
C284 C285 1.379 . S
C285 H263 0.948 . S
C285 C280 1.364 . S
C285 C284 1.379 . S
C286 C255 1.383 . S
C286 C273 1.479 . S
C286 C287 1.398 . S
C287 C252 1.382 . S
C287 H264 0.951 . S
C287 C286 1.398 . S
Zn288 O294 1.920 . S
Zn288 O300 1.898 . S
Zn288 O303 1.905 . S
Zn289 O297 1.905 1_565 S
Zn289 O298 1.898 . S
Zn289 O306 1.920 . S
Zn290 O293 2.080 1_455 S
Zn290 O296 2.114 . S
Zn290 O299 2.120 1_445 S
Zn290 O301 2.120 . S
Zn290 O302 2.114 1_455 S
Zn290 O305 2.080 . S
C291 O296 1.166 . S
C291 O297 1.182 . S
C292 O298 1.167 1_655 S
C292 O299 1.299 . S
O293 Zn290 2.080 1_655 S
O293 C307 1.305 . S
O294 Zn288 1.920 . S
O294 C307 1.234 . S
C295 O300 1.167 1_455 S
C295 O301 1.299 . S
O296 Zn290 2.114 . S
O296 C291 1.166 . S
O297 Zn289 1.905 1_545 S
O297 C291 1.182 . S
O298 Zn289 1.898 . S
O298 C292 1.167 1_455 S
O299 Zn290 2.120 1_665 S
O299 C292 1.299 . S
O300 Zn288 1.898 . S
O300 C295 1.167 1_655 S
O301 Zn290 2.120 . S
O301 C295 1.299 . S
O302 Zn290 2.114 1_655 S
O302 C304 1.166 . S
O303 Zn288 1.905 . S
O303 C304 1.182 . S
C304 O302 1.166 . S
C304 O303 1.182 . S
O305 Zn290 2.080 . S
O305 C308 1.319 . S
O306 Zn289 1.920 . S
O306 C308 1.224 1_565 S
C307 O293 1.305 . S
C307 O294 1.234 . S
C308 O305 1.319 . S
C308 O306 1.224 1_545 S
Zn309 O315 1.920 1_556 S
Zn309 O321 1.898 . S
Zn309 O324 1.905 . S
Zn310 O318 1.905 . S
Zn310 O319 1.898 . S
Zn310 O327 1.920 . S
Zn311 O314 2.080 . S
Zn311 O317 2.114 1_545 S
Zn311 O320 2.120 1_545 S
Zn311 O322 2.120 . S
Zn311 O323 2.114 1_544 S
Zn311 O326 2.080 . S
C312 O317 1.166 . S
C312 O318 1.182 . S
C313 O319 1.167 . S
C313 O320 1.299 . S
O314 Zn311 2.080 . S
O314 C328 1.305 . S
O315 Zn309 1.920 1_554 S
O315 C328 1.234 . S
C316 O321 1.167 . S
C316 O322 1.299 1_556 S
O317 Zn311 2.114 1_565 S
O317 C312 1.166 . S
O318 Zn310 1.905 . S
O318 C312 1.182 . S
O319 Zn310 1.898 . S
O319 C313 1.167 . S
O320 Zn311 2.120 1_565 S
O320 C313 1.299 . S
O321 Zn309 1.898 . S
O321 C316 1.167 . S
O322 Zn311 2.120 . S
O322 C316 1.299 1_554 S
O323 Zn311 2.114 1_566 S
O323 C325 1.166 . S
O324 Zn309 1.905 . S
O324 C325 1.182 1_545 S
C325 O323 1.166 . S
C325 O324 1.182 1_565 S
O326 Zn311 2.080 . S
O326 C329 1.305 . S
O327 Zn310 1.920 . S
O327 C329 1.234 1_565 S
C328 O314 1.305 . S
C328 O315 1.234 . S
C329 O326 1.305 . S
C329 O327 1.234 1_545 S
Zn330 O336 1.920 . S
Zn330 O342 1.898 . S
Zn330 O345 1.905 . S
Zn331 O339 1.905 . S
Zn331 O340 1.898 . S
Zn331 O348 1.920 . S
Zn332 O335 2.080 . S
Zn332 O338 2.114 . S
Zn332 O341 2.120 . S
Zn332 O343 2.120 . S
Zn332 O344 2.114 . S
Zn332 O347 2.080 . S
C333 O338 1.166 . S
C333 O339 1.182 . S
C334 O340 1.167 . S
C334 O341 1.299 . S
O335 Zn332 2.080 . S
O335 C349 1.305 . S
O336 Zn330 1.920 . S
O336 C349 1.234 . S
C337 O342 1.167 . S
C337 O343 1.299 . S
O338 Zn332 2.114 . S
O338 C333 1.166 . S
O339 Zn331 1.905 . S
O339 C333 1.182 . S
O340 Zn331 1.898 . S
O340 C334 1.167 . S
O341 Zn332 2.120 . S
O341 C334 1.299 . S
O342 Zn330 1.898 . S
O342 C337 1.167 . S
O343 Zn332 2.120 . S
O343 C337 1.299 . S
O344 Zn332 2.114 . S
O344 C346 1.166 . S
O345 Zn330 1.905 . S
O345 C346 1.182 . S
C346 O344 1.166 . S
C346 O345 1.182 . S
O347 Zn332 2.080 . S
O347 C350 1.305 . S
O348 Zn331 1.920 . S
O348 C350 1.234 . S
C349 O335 1.305 . S
C349 O336 1.234 . S
C350 O347 1.305 . S
C350 O348 1.234 . S
Zn351 O357 1.920 . S
Zn351 O363 1.898 . S
Zn351 O366 1.905 . S
Zn352 O360 1.905 1_655 S
Zn352 O361 1.898 . S
Zn352 O369 1.920 . S
Zn353 O356 2.080 1_554 S
Zn353 O359 2.114 . S
Zn353 O362 2.120 1_454 S
Zn353 O364 2.120 . S
Zn353 O365 2.114 1_554 S
Zn353 O368 2.080 . S
C354 O359 1.166 . S
C354 O360 1.182 . S
C355 O361 1.167 1_556 S
C355 O362 1.299 . S
O356 Zn353 2.080 1_556 S
O356 C370 1.305 . S
O357 Zn351 1.920 . S
O357 C370 1.234 . S
C358 O363 1.167 1_554 S
C358 O364 1.299 . S
O359 Zn353 2.114 . S
O359 C354 1.166 . S
O360 Zn352 1.905 1_455 S
O360 C354 1.182 . S
O361 Zn352 1.898 . S
O361 C355 1.167 1_554 S
O362 Zn353 2.120 1_656 S
O362 C355 1.299 . S
O363 Zn351 1.898 . S
O363 C358 1.167 1_556 S
O364 Zn353 2.120 . S
O364 C358 1.299 . S
O365 Zn353 2.114 1_556 S
O365 C367 1.166 . S
O366 Zn351 1.905 . S
O366 C367 1.182 . S
C367 O365 1.166 . S
C367 O366 1.182 . S
O368 Zn353 2.080 . S
O368 C371 1.301 1_455 S
O369 Zn352 1.920 . S
O369 C371 1.237 . S
C370 O356 1.305 . S
C370 O357 1.234 . S
C371 O368 1.301 1_655 S
C371 O369 1.237 . S
H372 C390 0.951 . S
H373 C392 0.951 . S
H374 C394 0.950 . S
H375 C395 0.950 . S
H376 C397 0.950 . S
H377 C400 0.950 . S
H378 C401 0.950 . S
H379 C403 0.950 . S
H380 C404 0.950 . S
H381 C405 0.951 . S
H382 C407 0.951 . S
H383 C409 0.950 . S
H384 C410 0.950 . S
H385 C412 0.950 . S
H386 C415 0.950 . S
H387 C416 0.950 . S
H388 C418 0.950 . S
H389 C419 0.950 . S
C390 H372 0.951 . S
C390 C391 1.366 . S
C390 C392 1.388 . S
C391 C390 1.366 . S
C391 C395 1.385 . S
C392 H373 0.951 . S
C392 C390 1.388 . S
C392 C393 1.366 . S
C393 C392 1.366 . S
C393 C394 1.414 . S
C393 C396 1.499 . S
C394 H374 0.950 . S
C394 C393 1.414 . S
C394 C395 1.374 . S
C395 H375 0.950 . S
C395 C391 1.385 . S
C395 C394 1.374 . S
C396 C393 1.499 . S
C396 C397 1.373 . S
C396 C398 1.389 . S
C397 H376 0.950 . S
C397 C396 1.373 . S
C397 C413 1.377 . S
C398 C396 1.389 . S
C398 C399 1.524 . S
C398 C412 1.377 . S
C399 C398 1.524 . S
C399 C400 1.397 . S
C399 C404 1.363 . S
C400 H377 0.950 . S
C400 C399 1.397 . S
C400 C401 1.334 . S
C401 H378 0.950 . S
C401 C400 1.334 . S
C401 C402 1.287 . S
C402 C401 1.287 . S
C402 C403 1.524 . S
C402 H421 0.913 . S
C403 H379 0.950 . S
C403 C402 1.524 . S
C403 C404 1.415 . S
C404 H380 0.950 . S
C404 C399 1.363 . S
C404 C403 1.415 . S
C405 H381 0.951 . S
C405 C406 1.366 . S
C405 C407 1.388 . S
C406 C405 1.366 . S
C406 C410 1.385 . S
C407 H382 0.951 . S
C407 C405 1.388 . S
C407 C408 1.366 . S
C408 C407 1.366 . S
C408 C409 1.414 . S
C408 C411 1.499 . S
C409 H383 0.950 . S
C409 C408 1.414 . S
C409 C410 1.374 . S
C410 H384 0.950 . S
C410 C406 1.385 . S
C410 C409 1.374 . S
C411 C408 1.499 . S
C411 C412 1.373 . S
C411 C413 1.389 . S
C412 H385 0.950 . S
C412 C398 1.377 . S
C412 C411 1.373 . S
C413 C397 1.377 . S
C413 C411 1.389 . S
C413 C414 1.524 . S
C414 C413 1.524 . S
C414 C415 1.397 . S
C414 C419 1.363 . S
C415 H386 0.950 . S
C415 C414 1.397 . S
C415 C416 1.334 . S
C416 H387 0.950 . S
C416 C415 1.334 . S
C416 C417 1.287 . S
C417 C416 1.287 . S
C417 C418 1.524 . S
C417 H420 0.999 . S
C418 H388 0.950 . S
C418 C417 1.524 . S
C418 C419 1.415 . S
C419 H389 0.950 . S
C419 C414 1.363 . S
C419 C418 1.415 . S
H420 C417 0.999 . S
H421 C402 0.913 . S
H422 C440 0.951 . S
H423 C442 0.951 . S
H424 C444 0.950 . S
H425 C445 0.950 . S
H426 C447 0.950 . S
H427 C450 0.950 . S
H428 C451 0.950 . S
H429 C453 0.950 . S
H430 C454 0.950 . S
H431 C455 0.951 . S
H432 C457 0.951 . S
H433 C459 0.950 . S
H434 C460 0.950 . S
H435 C462 0.950 . S
H436 C465 0.950 . S
H437 C466 0.950 . S
H438 C468 0.950 . S
H439 C469 0.950 . S
C440 H422 0.951 . S
C440 C441 1.366 . S
C440 C442 1.388 . S
C441 C440 1.366 . S
C441 C445 1.385 . S
C442 H423 0.951 . S
C442 C440 1.388 . S
C442 C443 1.366 . S
C443 C442 1.366 . S
C443 C444 1.414 . S
C443 C446 1.499 . S
C444 H424 0.950 . S
C444 C443 1.414 . S
C444 C445 1.374 . S
C445 H425 0.950 . S
C445 C441 1.385 . S
C445 C444 1.374 . S
C446 C443 1.499 . S
C446 C447 1.373 . S
C446 C448 1.389 . S
C447 H426 0.950 . S
C447 C446 1.373 . S
C447 C463 1.377 . S
C448 C446 1.389 . S
C448 C449 1.524 . S
C448 C462 1.377 . S
C449 C448 1.524 . S
C449 C450 1.397 . S
C449 C454 1.363 . S
C450 H427 0.950 . S
C450 C449 1.397 . S
C450 C451 1.334 . S
C451 H428 0.950 . S
C451 C450 1.334 . S
C451 C452 1.287 . S
C452 C451 1.287 . S
C452 C453 1.524 . S
C452 H471 0.913 . S
C453 H429 0.950 . S
C453 C452 1.524 . S
C453 C454 1.415 . S
C454 H430 0.950 . S
C454 C449 1.363 . S
C454 C453 1.415 . S
C455 H431 0.951 . S
C455 C456 1.366 . S
C455 C457 1.388 . S
C456 C455 1.366 . S
C456 C460 1.385 . S
C457 H432 0.951 . S
C457 C455 1.388 . S
C457 C458 1.366 . S
C458 C457 1.366 . S
C458 C459 1.414 . S
C458 C461 1.499 . S
C459 H433 0.950 . S
C459 C458 1.414 . S
C459 C460 1.374 . S
C460 H434 0.950 . S
C460 C456 1.385 . S
C460 C459 1.374 . S
C461 C458 1.499 . S
C461 C462 1.373 . S
C461 C463 1.389 . S
C462 H435 0.950 . S
C462 C448 1.377 . S
C462 C461 1.373 . S
C463 C447 1.377 . S
C463 C461 1.389 . S
C463 C464 1.524 . S
C464 C463 1.524 . S
C464 C465 1.397 . S
C464 C469 1.363 . S
C465 H436 0.950 . S
C465 C464 1.397 . S
C465 C466 1.334 . S
C466 H437 0.950 . S
C466 C465 1.334 . S
C466 C467 1.287 . S
C467 C466 1.287 . S
C467 C468 1.524 . S
C467 H470 0.999 . S
C468 H438 0.950 . S
C468 C467 1.524 . S
C468 C469 1.415 . S
C469 H439 0.950 . S
C469 C464 1.363 . S
C469 C468 1.415 . S
H470 C467 0.999 . S
H471 C452 0.913 . S
H472 C490 0.951 . S
H473 C492 0.951 . S
H474 C494 0.950 . S
H475 C495 0.950 . S
H476 C497 0.950 . S
H477 C500 0.950 . S
H478 C501 0.950 . S
H479 C503 0.950 . S
H480 C504 0.950 . S
H481 C505 0.951 . S
H482 C507 0.951 . S
H483 C509 0.950 . S
H484 C510 0.950 . S
H485 C512 0.950 . S
H486 C515 0.950 . S
H487 C516 0.950 . S
H488 C518 0.950 . S
H489 C519 0.950 . S
C490 H472 0.951 . S
C490 C491 1.366 . S
C490 C492 1.388 . S
C491 C490 1.366 . S
C491 C495 1.385 . S
C492 H473 0.951 . S
C492 C490 1.388 . S
C492 C493 1.366 . S
C493 C492 1.366 . S
C493 C494 1.414 . S
C493 C496 1.499 . S
C494 H474 0.950 . S
C494 C493 1.414 . S
C494 C495 1.374 . S
C495 H475 0.950 . S
C495 C491 1.385 . S
C495 C494 1.374 . S
C496 C493 1.499 . S
C496 C497 1.373 . S
C496 C498 1.389 . S
C497 H476 0.950 . S
C497 C496 1.373 . S
C497 C513 1.377 . S
C498 C496 1.389 . S
C498 C499 1.524 . S
C498 C512 1.377 . S
C499 C498 1.524 . S
C499 C500 1.397 . S
C499 C504 1.363 . S
C500 H477 0.950 . S
C500 C499 1.397 . S
C500 C501 1.334 . S
C501 H478 0.950 . S
C501 C500 1.334 . S
C501 C502 1.287 . S
C502 C501 1.287 . S
C502 C503 1.524 . S
C502 H521 0.913 . S
C503 H479 0.950 . S
C503 C502 1.524 . S
C503 C504 1.415 . S
C504 H480 0.950 . S
C504 C499 1.363 . S
C504 C503 1.415 . S
C505 H481 0.951 . S
C505 C506 1.366 . S
C505 C507 1.388 . S
C506 C505 1.366 . S
C506 C510 1.385 . S
C507 H482 0.951 . S
C507 C505 1.388 . S
C507 C508 1.366 . S
C508 C507 1.366 . S
C508 C509 1.414 . S
C508 C511 1.499 . S
C509 H483 0.950 . S
C509 C508 1.414 . S
C509 C510 1.374 . S
C510 H484 0.950 . S
C510 C506 1.385 . S
C510 C509 1.374 . S
C511 C508 1.499 . S
C511 C512 1.373 . S
C511 C513 1.389 . S
C512 H485 0.950 . S
C512 C498 1.377 . S
C512 C511 1.373 . S
C513 C497 1.377 . S
C513 C511 1.389 . S
C513 C514 1.524 . S
C514 C513 1.524 . S
C514 C515 1.397 . S
C514 C519 1.363 . S
C515 H486 0.950 . S
C515 C514 1.397 . S
C515 C516 1.334 . S
C516 H487 0.950 . S
C516 C515 1.334 . S
C516 C517 1.287 . S
C517 C516 1.287 . S
C517 C518 1.524 . S
C517 H520 0.999 . S
C518 H488 0.950 . S
C518 C517 1.524 . S
C518 C519 1.415 . S
C519 H489 0.950 . S
C519 C514 1.363 . S
C519 C518 1.415 . S
H520 C517 0.999 . S
H521 C502 0.913 . S
H522 C540 0.951 . S
H523 C542 0.951 . S
H524 C544 0.950 . S
H525 C545 0.950 . S
H526 C547 0.950 . S
H527 C550 0.950 . S
H528 C551 0.950 . S
H529 C553 0.950 . S
H530 C554 0.950 . S
H531 C555 0.951 . S
H532 C557 0.951 . S
H533 C559 0.950 . S
H534 C560 0.950 . S
H535 C562 0.950 . S
H536 C565 0.950 . S
H537 C566 0.950 . S
H538 C568 0.950 . S
H539 C569 0.950 . S
C540 H522 0.951 . S
C540 C541 1.366 . S
C540 C542 1.388 . S
C541 C540 1.366 . S
C541 C545 1.385 . S
C542 H523 0.951 . S
C542 C540 1.388 . S
C542 C543 1.366 . S
C543 C542 1.366 . S
C543 C544 1.414 . S
C543 C546 1.499 . S
C544 H524 0.950 . S
C544 C543 1.414 . S
C544 C545 1.374 . S
C545 H525 0.950 . S
C545 C541 1.385 . S
C545 C544 1.374 . S
C546 C543 1.499 . S
C546 C547 1.373 . S
C546 C548 1.389 . S
C547 H526 0.950 . S
C547 C546 1.373 . S
C547 C563 1.377 . S
C548 C546 1.389 . S
C548 C549 1.524 . S
C548 C562 1.377 . S
C549 C548 1.524 . S
C549 C550 1.397 . S
C549 C554 1.363 . S
C550 H527 0.950 . S
C550 C549 1.397 . S
C550 C551 1.334 . S
C551 H528 0.950 . S
C551 C550 1.334 . S
C551 C552 1.287 . S
C552 C551 1.287 . S
C552 C553 1.524 . S
C552 H571 0.913 1_655 S
C553 H529 0.950 . S
C553 C552 1.524 . S
C553 C554 1.415 . S
C554 H530 0.950 . S
C554 C549 1.363 . S
C554 C553 1.415 . S
C555 H531 0.951 . S
C555 C556 1.366 . S
C555 C557 1.388 . S
C556 C555 1.366 . S
C556 C560 1.385 . S
C557 H532 0.951 . S
C557 C555 1.388 . S
C557 C558 1.366 . S
C558 C557 1.366 . S
C558 C559 1.414 . S
C558 C561 1.499 . S
C559 H533 0.950 . S
C559 C558 1.414 . S
C559 C560 1.374 . S
C560 H534 0.950 . S
C560 C556 1.385 . S
C560 C559 1.374 . S
C561 C558 1.499 . S
C561 C562 1.373 . S
C561 C563 1.389 . S
C562 H535 0.950 . S
C562 C548 1.377 . S
C562 C561 1.373 . S
C563 C547 1.377 . S
C563 C561 1.389 . S
C563 C564 1.524 . S
C564 C563 1.524 . S
C564 C565 1.397 . S
C564 C569 1.363 . S
C565 H536 0.950 . S
C565 C564 1.397 . S
C565 C566 1.334 . S
C566 H537 0.950 . S
C566 C565 1.334 . S
C566 C567 1.287 . S
C567 C566 1.287 . S
C567 C568 1.524 . S
C567 H570 0.999 . S
C568 H538 0.950 . S
C568 C567 1.524 . S
C568 C569 1.415 . S
C569 H539 0.950 . S
C569 C564 1.363 . S
C569 C568 1.415 . S
H570 C567 0.999 . S
H571 C552 0.913 1_455 S
H572 C590 0.951 . S
H573 C592 0.951 . S
H574 C594 0.950 . S
H575 C595 0.950 . S
H576 C597 0.950 . S
H577 C600 0.950 . S
H578 C601 0.950 . S
H579 C603 0.950 . S
H580 C604 0.950 . S
H581 C605 0.951 . S
H582 C607 0.951 . S
H583 C609 0.950 . S
H584 C610 0.950 . S
H585 C612 0.950 . S
H586 C615 0.950 . S
H587 C616 0.950 . S
H588 C618 0.950 . S
H589 C619 0.950 . S
C590 H572 0.951 . S
C590 C591 1.366 . S
C590 C592 1.388 . S
C591 C590 1.366 . S
C591 C595 1.385 . S
C592 H573 0.951 . S
C592 C590 1.388 . S
C592 C593 1.366 . S
C593 C592 1.366 . S
C593 C594 1.414 . S
C593 C596 1.499 . S
C594 H574 0.950 . S
C594 C593 1.414 . S
C594 C595 1.374 . S
C595 H575 0.950 . S
C595 C591 1.385 . S
C595 C594 1.374 . S
C596 C593 1.499 . S
C596 C597 1.373 . S
C596 C598 1.389 . S
C597 H576 0.950 . S
C597 C596 1.373 . S
C597 C613 1.377 . S
C598 C596 1.389 . S
C598 C599 1.524 . S
C598 C612 1.377 . S
C599 C598 1.524 . S
C599 C600 1.397 . S
C599 C604 1.363 . S
C600 H577 0.950 . S
C600 C599 1.397 . S
C600 C601 1.334 . S
C601 H578 0.950 . S
C601 C600 1.334 . S
C601 C602 1.287 . S
C602 C601 1.287 . S
C602 C603 1.524 . S
C602 H621 0.913 . S
C603 H579 0.950 . S
C603 C602 1.524 . S
C603 C604 1.415 . S
C604 H580 0.950 . S
C604 C599 1.363 . S
C604 C603 1.415 . S
C605 H581 0.951 . S
C605 C606 1.366 . S
C605 C607 1.388 . S
C606 C605 1.366 . S
C606 C610 1.385 . S
C607 H582 0.951 . S
C607 C605 1.388 . S
C607 C608 1.366 . S
C608 C607 1.366 . S
C608 C609 1.414 . S
C608 C611 1.499 . S
C609 H583 0.950 . S
C609 C608 1.414 . S
C609 C610 1.374 . S
C610 H584 0.950 . S
C610 C606 1.385 . S
C610 C609 1.374 . S
C611 C608 1.499 . S
C611 C612 1.373 . S
C611 C613 1.389 . S
C612 H585 0.950 . S
C612 C598 1.377 . S
C612 C611 1.373 . S
C613 C597 1.377 . S
C613 C611 1.389 . S
C613 C614 1.524 . S
C614 C613 1.524 . S
C614 C615 1.397 . S
C614 C619 1.363 . S
C615 H586 0.950 . S
C615 C614 1.397 . S
C615 C616 1.334 . S
C616 H587 0.950 . S
C616 C615 1.334 . S
C616 C617 1.287 . S
C617 C616 1.287 . S
C617 C618 1.524 . S
C617 H620 0.999 . S
C618 H588 0.950 . S
C618 C617 1.524 . S
C618 C619 1.415 . S
C619 H589 0.950 . S
C619 C614 1.363 . S
C619 C618 1.415 . S
H620 C617 0.999 . S
H621 C602 0.913 . S
H622 C640 0.951 . S
H623 C642 0.951 . S
H624 C644 0.950 . S
H625 C645 0.950 . S
H626 C647 0.950 . S
H627 C650 0.950 . S
H628 C651 0.950 . S
H629 C653 0.950 . S
H630 C654 0.950 . S
H631 C655 0.951 . S
H632 C657 0.951 1_545 S
H633 C659 0.950 . S
H634 C660 0.950 . S
H635 C662 0.950 . S
H636 C665 0.950 . S
H637 C666 0.950 . S
H638 C668 0.950 . S
H639 C669 0.950 . S
C640 H622 0.951 . S
C640 C641 1.366 . S
C640 C642 1.388 . S
C641 C640 1.366 . S
C641 C645 1.385 . S
C642 H623 0.951 . S
C642 C640 1.388 . S
C642 C643 1.366 . S
C643 C642 1.366 . S
C643 C644 1.414 . S
C643 C646 1.499 . S
C644 H624 0.950 . S
C644 C643 1.414 . S
C644 C645 1.374 . S
C645 H625 0.950 . S
C645 C641 1.385 . S
C645 C644 1.374 . S
C646 C643 1.499 . S
C646 C647 1.373 . S
C646 C648 1.389 . S
C647 H626 0.950 . S
C647 C646 1.373 . S
C647 C663 1.377 . S
C648 C646 1.389 . S
C648 C649 1.524 . S
C648 C662 1.377 . S
C649 C648 1.524 . S
C649 C650 1.397 . S
C649 C654 1.363 . S
C650 H627 0.950 . S
C650 C649 1.397 . S
C650 C651 1.334 . S
C651 H628 0.950 . S
C651 C650 1.334 . S
C651 C652 1.287 . S
C652 C651 1.287 . S
C652 C653 1.524 . S
C652 H671 0.913 . S
C653 H629 0.950 . S
C653 C652 1.524 . S
C653 C654 1.415 . S
C654 H630 0.950 . S
C654 C649 1.363 . S
C654 C653 1.415 . S
C655 H631 0.951 . S
C655 C656 1.366 1_545 S
C655 C657 1.388 1_545 S
C656 C655 1.366 1_565 S
C656 C660 1.385 . S
C657 H632 0.951 1_565 S
C657 C655 1.388 1_565 S
C657 C658 1.366 . S
C658 C657 1.366 . S
C658 C659 1.414 . S
C658 C661 1.499 . S
C659 H633 0.950 . S
C659 C658 1.414 . S
C659 C660 1.374 . S
C660 H634 0.950 . S
C660 C656 1.385 . S
C660 C659 1.374 . S
C661 C658 1.499 . S
C661 C662 1.373 . S
C661 C663 1.389 . S
C662 H635 0.950 . S
C662 C648 1.377 . S
C662 C661 1.373 . S
C663 C647 1.377 . S
C663 C661 1.389 . S
C663 C664 1.524 . S
C664 C663 1.524 . S
C664 C665 1.397 . S
C664 C669 1.363 . S
C665 H636 0.950 . S
C665 C664 1.397 . S
C665 C666 1.334 . S
C666 H637 0.950 . S
C666 C665 1.334 . S
C666 C667 1.287 . S
C667 C666 1.287 . S
C667 C668 1.524 1_565 S
C667 H670 0.999 . S
C668 H638 0.950 . S
C668 C667 1.524 1_545 S
C668 C669 1.415 1_545 S
C669 H639 0.950 . S
C669 C664 1.363 . S
C669 C668 1.415 1_565 S
H670 C667 0.999 . S
H671 C652 0.913 . S
H672 C690 0.951 . S
H673 C692 0.951 . S
H674 C694 0.950 . S
H675 C695 0.950 . S
H676 C697 0.950 . S
H677 C700 0.950 . S
H678 C701 0.950 . S
H679 C703 0.950 . S
H680 C704 0.950 . S
H681 C705 0.951 . S
H682 C707 0.951 . S
H683 C709 0.950 . S
H684 C710 0.950 . S
H685 C712 0.950 . S
H686 C715 0.950 . S
H687 C716 0.950 . S
H688 C718 0.950 . S
H689 C719 0.950 . S
C690 H672 0.951 . S
C690 C691 1.366 . S
C690 C692 1.388 . S
C691 C690 1.366 . S
C691 C695 1.385 . S
C692 H673 0.951 . S
C692 C690 1.388 . S
C692 C693 1.366 . S
C693 C692 1.366 . S
C693 C694 1.414 . S
C693 C696 1.499 . S
C694 H674 0.950 . S
C694 C693 1.414 . S
C694 C695 1.374 . S
C695 H675 0.950 . S
C695 C691 1.385 . S
C695 C694 1.374 . S
C696 C693 1.499 . S
C696 C697 1.373 . S
C696 C698 1.389 . S
C697 H676 0.950 . S
C697 C696 1.373 . S
C697 C713 1.377 . S
C698 C696 1.389 . S
C698 C699 1.524 . S
C698 C712 1.377 . S
C699 C698 1.524 . S
C699 C700 1.397 . S
C699 C704 1.363 . S
C700 H677 0.950 . S
C700 C699 1.397 . S
C700 C701 1.334 . S
C701 H678 0.950 . S
C701 C700 1.334 . S
C701 C702 1.287 . S
C702 C701 1.287 . S
C702 C703 1.524 1_556 S
C702 H721 0.913 1_556 S
C703 H679 0.950 . S
C703 C702 1.524 1_554 S
C703 C704 1.415 1_554 S
C704 H680 0.950 . S
C704 C699 1.363 . S
C704 C703 1.415 1_556 S
C705 H681 0.951 . S
C705 C706 1.366 . S
C705 C707 1.388 . S
C706 C705 1.366 . S
C706 C710 1.385 . S
C707 H682 0.951 . S
C707 C705 1.388 . S
C707 C708 1.366 . S
C708 C707 1.366 . S
C708 C709 1.414 . S
C708 C711 1.499 . S
C709 H683 0.950 . S
C709 C708 1.414 . S
C709 C710 1.374 . S
C710 H684 0.950 . S
C710 C706 1.385 . S
C710 C709 1.374 . S
C711 C708 1.499 . S
C711 C712 1.373 . S
C711 C713 1.389 . S
C712 H685 0.950 . S
C712 C698 1.377 . S
C712 C711 1.373 . S
C713 C697 1.377 . S
C713 C711 1.389 . S
C713 C714 1.524 . S
C714 C713 1.524 . S
C714 C715 1.397 . S
C714 C719 1.363 . S
C715 H686 0.950 . S
C715 C714 1.397 . S
C715 C716 1.334 . S
C716 H687 0.950 . S
C716 C715 1.334 . S
C716 C717 1.287 . S
C717 C716 1.287 . S
C717 C718 1.524 . S
C717 H720 0.999 . S
C718 H688 0.950 . S
C718 C717 1.524 . S
C718 C719 1.415 . S
C719 H689 0.950 . S
C719 C714 1.363 . S
C719 C718 1.415 . S
H720 C717 0.999 . S
H721 C702 0.913 1_554 S
H722 C740 0.951 . S
H723 C742 0.951 . S
H724 C744 0.950 . S
H725 C745 0.950 . S
H726 C747 0.950 . S
H727 C750 0.950 . S
H728 C751 0.950 . S
H729 C753 0.950 . S
H730 C754 0.950 . S
H731 C755 0.951 . S
H732 C757 0.951 . S
H733 C759 0.950 . S
H734 C760 0.950 . S
H735 C762 0.950 . S
H736 C765 0.950 . S
H737 C766 0.950 . S
H738 C768 0.950 . S
H739 C769 0.950 . S
C740 H722 0.951 . S
C740 C741 1.366 . S
C740 C742 1.388 . S
C741 C740 1.366 . S
C741 C745 1.385 . S
C742 H723 0.951 . S
C742 C740 1.388 . S
C742 C743 1.366 . S
C743 C742 1.366 . S
C743 C744 1.414 . S
C743 C746 1.499 . S
C744 H724 0.950 . S
C744 C743 1.414 . S
C744 C745 1.374 . S
C745 H725 0.950 . S
C745 C741 1.385 . S
C745 C744 1.374 . S
C746 C743 1.499 . S
C746 C747 1.373 . S
C746 C748 1.389 . S
C747 H726 0.950 . S
C747 C746 1.373 . S
C747 C763 1.377 . S
C748 C746 1.389 . S
C748 C749 1.524 . S
C748 C762 1.377 . S
C749 C748 1.524 . S
C749 C750 1.397 . S
C749 C754 1.363 . S
C750 H727 0.950 . S
C750 C749 1.397 . S
C750 C751 1.334 . S
C751 H728 0.950 . S
C751 C750 1.334 . S
C751 C752 1.287 . S
C752 C751 1.287 . S
C752 C753 1.524 . S
C752 H771 0.913 . S
C753 H729 0.950 . S
C753 C752 1.524 . S
C753 C754 1.415 . S
C754 H730 0.950 . S
C754 C749 1.363 . S
C754 C753 1.415 . S
C755 H731 0.951 . S
C755 C756 1.366 . S
C755 C757 1.388 . S
C756 C755 1.366 . S
C756 C760 1.385 . S
C757 H732 0.951 . S
C757 C755 1.388 . S
C757 C758 1.366 . S
C758 C757 1.366 . S
C758 C759 1.414 . S
C758 C761 1.499 . S
C759 H733 0.950 . S
C759 C758 1.414 . S
C759 C760 1.374 . S
C760 H734 0.950 . S
C760 C756 1.385 . S
C760 C759 1.374 . S
C761 C758 1.499 . S
C761 C762 1.373 . S
C761 C763 1.389 . S
C762 H735 0.950 . S
C762 C748 1.377 . S
C762 C761 1.373 . S
C763 C747 1.377 . S
C763 C761 1.389 . S
C763 C764 1.524 . S
C764 C763 1.524 . S
C764 C765 1.397 . S
C764 C769 1.363 . S
C765 H736 0.950 . S
C765 C764 1.397 . S
C765 C766 1.334 . S
C766 H737 0.950 . S
C766 C765 1.334 . S
C766 C767 1.287 . S
C767 C766 1.287 . S
C767 C768 1.524 . S
C767 H770 0.999 . S
C768 H738 0.950 . S
C768 C767 1.524 . S
C768 C769 1.415 . S
C769 H739 0.950 . S
C769 C764 1.363 . S
C769 C768 1.415 . S
H770 C767 0.999 . S
H771 C752 0.913 . S
H772 C790 0.951 . S
H773 C792 0.951 . S
H774 C794 0.950 . S
H775 C795 0.950 . S
H776 C797 0.950 . S
H777 C800 0.950 . S
H778 C801 0.950 . S
H779 C803 0.950 . S
H780 C804 0.950 . S
H781 C805 0.951 . S
H782 C807 0.951 . S
H783 C809 0.950 . S
H784 C810 0.950 . S
H785 C812 0.950 . S
H786 C815 0.950 . S
H787 C816 0.950 . S
H788 C818 0.950 . S
H789 C819 0.950 . S
C790 H772 0.951 . S
C790 C791 1.366 . S
C790 C792 1.388 . S
C791 C790 1.366 . S
C791 C795 1.385 . S
C792 H773 0.951 . S
C792 C790 1.388 . S
C792 C793 1.366 . S
C793 C792 1.366 . S
C793 C794 1.414 . S
C793 C796 1.499 . S
C794 H774 0.950 . S
C794 C793 1.414 . S
C794 C795 1.374 . S
C795 H775 0.950 . S
C795 C791 1.385 . S
C795 C794 1.374 . S
C796 C793 1.499 . S
C796 C797 1.373 . S
C796 C798 1.389 . S
C797 H776 0.950 . S
C797 C796 1.373 . S
C797 C813 1.377 . S
C798 C796 1.389 . S
C798 C799 1.524 . S
C798 C812 1.377 . S
C799 C798 1.524 . S
C799 C800 1.397 . S
C799 C804 1.363 . S
C800 H777 0.950 . S
C800 C799 1.397 . S
C800 C801 1.334 . S
C801 H778 0.950 . S
C801 C800 1.334 . S
C801 C802 1.287 . S
C802 C801 1.287 . S
C802 C803 1.524 . S
C802 H821 0.913 . S
C803 H779 0.950 . S
C803 C802 1.524 . S
C803 C804 1.415 . S
C804 H780 0.950 . S
C804 C799 1.363 . S
C804 C803 1.415 . S
C805 H781 0.951 . S
C805 C806 1.366 . S
C805 C807 1.388 . S
C806 C805 1.366 . S
C806 C810 1.385 . S
C807 H782 0.951 . S
C807 C805 1.388 . S
C807 C808 1.366 . S
C808 C807 1.366 . S
C808 C809 1.414 . S
C808 C811 1.499 . S
C809 H783 0.950 . S
C809 C808 1.414 . S
C809 C810 1.374 . S
C810 H784 0.950 . S
C810 C806 1.385 . S
C810 C809 1.374 . S
C811 C808 1.499 . S
C811 C812 1.373 . S
C811 C813 1.389 . S
C812 H785 0.950 . S
C812 C798 1.377 . S
C812 C811 1.373 . S
C813 C797 1.377 . S
C813 C811 1.389 . S
C813 C814 1.524 . S
C814 C813 1.524 . S
C814 C815 1.397 . S
C814 C819 1.363 . S
C815 H786 0.950 . S
C815 C814 1.397 . S
C815 C816 1.334 . S
C816 H787 0.950 . S
C816 C815 1.334 . S
C816 C817 1.287 . S
C817 C816 1.287 . S
C817 C818 1.524 . S
C817 H820 0.999 . S
C818 H788 0.950 . S
C818 C817 1.524 . S
C818 C819 1.415 . S
C819 H789 0.950 . S
C819 C814 1.363 . S
C819 C818 1.415 . S
H820 C817 0.999 . S
H821 C802 0.913 . S
H822 C840 0.951 . S
H823 C842 0.951 . S
H824 C844 0.950 . S
H825 C845 0.950 . S
H826 C847 0.950 . S
H827 C850 0.950 . S
H828 C851 0.950 . S
H829 C853 0.950 . S
H830 C854 0.950 . S
H831 C855 0.951 . S
H832 C857 0.951 . S
H833 C859 0.950 . S
H834 C860 0.950 1_554 S
H835 C862 0.950 . S
H836 C865 0.950 1_554 S
H837 C866 0.950 . S
H838 C868 0.950 . S
H839 C869 0.950 . S
C840 H822 0.951 . S
C840 C841 1.366 . S
C840 C842 1.388 . S
C841 C840 1.366 . S
C841 C845 1.385 . S
C842 H823 0.951 . S
C842 C840 1.388 . S
C842 C843 1.366 . S
C843 C842 1.366 . S
C843 C844 1.414 . S
C843 C846 1.499 . S
C844 H824 0.950 . S
C844 C843 1.414 . S
C844 C845 1.374 . S
C845 H825 0.950 . S
C845 C841 1.385 . S
C845 C844 1.374 . S
C846 C843 1.499 . S
C846 C847 1.373 . S
C846 C848 1.389 . S
C847 H826 0.950 . S
C847 C846 1.373 . S
C847 C863 1.377 . S
C848 C846 1.389 . S
C848 C849 1.524 . S
C848 C862 1.377 . S
C849 C848 1.524 . S
C849 C850 1.397 . S
C849 C854 1.363 . S
C850 H827 0.950 . S
C850 C849 1.397 . S
C850 C851 1.334 . S
C851 H828 0.950 . S
C851 C850 1.334 . S
C851 C852 1.287 . S
C852 C851 1.287 . S
C852 C853 1.524 . S
C852 H871 0.913 . S
C853 H829 0.950 . S
C853 C852 1.524 . S
C853 C854 1.415 . S
C854 H830 0.950 . S
C854 C849 1.363 . S
C854 C853 1.415 . S
C855 H831 0.951 . S
C855 C856 1.366 . S
C855 C857 1.388 . S
C856 C855 1.366 . S
C856 C860 1.385 . S
C857 H832 0.951 . S
C857 C855 1.388 . S
C857 C858 1.366 . S
C858 C857 1.366 . S
C858 C859 1.414 . S
C858 C861 1.499 . S
C859 H833 0.950 . S
C859 C858 1.414 . S
C859 C860 1.374 . S
C860 H834 0.950 1_556 S
C860 C856 1.385 . S
C860 C859 1.374 . S
C861 C858 1.499 . S
C861 C862 1.373 . S
C861 C863 1.389 . S
C862 H835 0.950 . S
C862 C848 1.377 . S
C862 C861 1.373 . S
C863 C847 1.377 . S
C863 C861 1.389 . S
C863 C864 1.524 . S
C864 C863 1.524 . S
C864 C865 1.397 . S
C864 C869 1.363 . S
C865 H836 0.950 1_556 S
C865 C864 1.397 . S
C865 C866 1.334 1_556 S
C866 H837 0.950 . S
C866 C865 1.334 1_554 S
C866 C867 1.287 1_554 S
C867 C866 1.287 1_556 S
C867 C868 1.524 . S
C867 H870 0.999 1_556 S
C868 H838 0.950 . S
C868 C867 1.524 . S
C868 C869 1.415 . S
C869 H839 0.950 . S
C869 C864 1.363 . S
C869 C868 1.415 . S
H870 C867 0.999 1_554 S
H871 C852 0.913 . S
H872 C890 0.951 . S
H873 C892 0.951 . S
H874 C894 0.950 . S
H875 C895 0.950 . S
H876 C897 0.950 . S
H877 C900 0.950 . S
H878 C901 0.950 . S
H879 C903 0.950 . S
H880 C904 0.950 . S
H881 C905 0.951 . S
H882 C907 0.951 . S
H883 C909 0.950 . S
H884 C910 0.950 . S
H885 C912 0.950 . S
H886 C915 0.947 1_655 S
H887 C916 0.950 . S
H888 C918 0.950 . S
H889 C919 0.950 . S
C890 H872 0.951 . S
C890 C891 1.366 . S
C890 C892 1.388 . S
C891 C890 1.366 . S
C891 C895 1.385 . S
C892 H873 0.951 . S
C892 C890 1.388 . S
C892 C893 1.366 . S
C893 C892 1.366 . S
C893 C894 1.414 . S
C893 C896 1.499 . S
C894 H874 0.950 . S
C894 C893 1.414 . S
C894 C895 1.374 . S
C895 H875 0.950 . S
C895 C891 1.385 . S
C895 C894 1.374 . S
C896 C893 1.499 . S
C896 C897 1.373 . S
C896 C898 1.389 . S
C897 H876 0.950 . S
C897 C896 1.373 . S
C897 C913 1.377 . S
C898 C896 1.389 . S
C898 C899 1.524 . S
C898 C912 1.377 . S
C899 C898 1.524 . S
C899 C900 1.397 . S
C899 C904 1.363 . S
C900 H877 0.950 . S
C900 C899 1.397 . S
C900 C901 1.334 . S
C901 H878 0.950 . S
C901 C900 1.334 . S
C901 C902 1.287 . S
C902 C901 1.287 . S
C902 C903 1.524 . S
C902 H921 0.913 . S
C903 H879 0.950 . S
C903 C902 1.524 . S
C903 C904 1.415 . S
C904 H880 0.950 . S
C904 C899 1.363 . S
C904 C903 1.415 . S
C905 H881 0.951 . S
C905 C906 1.366 . S
C905 C907 1.388 . S
C906 C905 1.366 . S
C906 C910 1.385 . S
C907 H882 0.951 . S
C907 C905 1.388 . S
C907 C908 1.366 . S
C908 C907 1.366 . S
C908 C909 1.414 . S
C908 C911 1.499 . S
C909 H883 0.950 . S
C909 C908 1.414 . S
C909 C910 1.374 . S
C910 H884 0.950 . S
C910 C906 1.385 . S
C910 C909 1.374 . S
C911 C908 1.499 . S
C911 C912 1.373 . S
C911 C913 1.389 . S
C912 H885 0.950 . S
C912 C898 1.377 . S
C912 C911 1.373 . S
C913 C897 1.377 . S
C913 C911 1.389 . S
C913 C914 1.524 . S
C914 C913 1.524 . S
C914 C915 1.397 1_655 S
C914 C919 1.363 . S
C915 H886 0.947 1_455 S
C915 C914 1.397 1_455 S
C915 C916 1.334 . S
C916 H887 0.950 . S
C916 C915 1.334 . S
C916 C917 1.287 . S
C917 C916 1.287 . S
C917 C918 1.524 . S
C917 H920 0.999 . S
C918 H888 0.950 . S
C918 C917 1.524 . S
C918 C919 1.415 1_455 S
C919 H889 0.950 . S
C919 C914 1.363 . S
C919 C918 1.415 1_655 S
H920 C917 0.999 . S
H921 C902 0.913 . S
H922 C940 0.951 . S
H923 C942 0.951 . S
H924 C944 0.950 . S
H925 C945 0.950 . S
H926 C947 0.950 . S
H927 C950 0.950 . S
H928 C951 0.950 . S
H929 C953 0.950 . S
H930 C954 0.950 . S
H931 C955 0.951 . S
H932 C957 0.951 . S
H933 C959 0.950 . S
H934 C960 0.950 . S
H935 C962 0.950 . S
H936 C965 0.950 . S
H937 C966 0.950 . S
H938 C968 0.950 . S
H939 C969 0.950 . S
C940 H922 0.951 . S
C940 C941 1.366 . S
C940 C942 1.388 . S
C941 C940 1.366 . S
C941 C945 1.385 . S
C942 H923 0.951 . S
C942 C940 1.388 . S
C942 C943 1.366 . S
C943 C942 1.366 . S
C943 C944 1.414 . S
C943 C946 1.499 . S
C944 H924 0.950 . S
C944 C943 1.414 . S
C944 C945 1.374 . S
C945 H925 0.950 . S
C945 C941 1.385 . S
C945 C944 1.374 . S
C946 C943 1.499 . S
C946 C947 1.373 . S
C946 C948 1.389 . S
C947 H926 0.950 . S
C947 C946 1.373 . S
C947 C963 1.377 . S
C948 C946 1.389 . S
C948 C949 1.524 . S
C948 C962 1.377 . S
C949 C948 1.524 . S
C949 C950 1.397 . S
C949 C954 1.363 . S
C950 H927 0.950 . S
C950 C949 1.397 . S
C950 C951 1.334 . S
C951 H928 0.950 . S
C951 C950 1.334 . S
C951 C952 1.287 . S
C952 C951 1.287 . S
C952 C953 1.524 . S
C952 H971 0.913 . S
C953 H929 0.950 . S
C953 C952 1.524 . S
C953 C954 1.415 . S
C954 H930 0.950 . S
C954 C949 1.363 . S
C954 C953 1.415 . S
C955 H931 0.951 . S
C955 C956 1.366 . S
C955 C957 1.388 . S
C956 C955 1.366 . S
C956 C960 1.385 . S
C957 H932 0.951 . S
C957 C955 1.388 . S
C957 C958 1.366 . S
C958 C957 1.366 . S
C958 C959 1.414 . S
C958 C961 1.499 . S
C959 H933 0.950 . S
C959 C958 1.414 . S
C959 C960 1.374 . S
C960 H934 0.950 . S
C960 C956 1.385 . S
C960 C959 1.374 . S
C961 C958 1.499 . S
C961 C962 1.373 . S
C961 C963 1.389 . S
C962 H935 0.950 . S
C962 C948 1.377 . S
C962 C961 1.373 . S
C963 C947 1.377 . S
C963 C961 1.389 . S
C963 C964 1.524 . S
C964 C963 1.524 . S
C964 C965 1.397 . S
C964 C969 1.363 . S
C965 H936 0.950 . S
C965 C964 1.397 . S
C965 C966 1.334 . S
C966 H937 0.950 . S
C966 C965 1.334 . S
C966 C967 1.287 . S
C967 C966 1.287 . S
C967 C968 1.524 . S
C967 H970 0.999 . S
C968 H938 0.950 . S
C968 C967 1.524 . S
C968 C969 1.415 . S
C969 H939 0.950 . S
C969 C964 1.363 . S
C969 C968 1.415 . S
H970 C967 0.999 . S
H971 C952 0.913 . S
H972 C990 0.951 1_455 S
H973 C992 0.947 . S
H974 C994 0.950 . S
H975 C995 0.950 . S
H976 C997 0.950 . S
H977 C1000 0.950 1_655 S
H978 C1001 0.950 . S
H979 C1003 0.950 . S
H980 C1004 0.950 . S
H981 C1005 0.951 . S
H982 C1007 0.951 . S
H983 C1009 0.950 . S
H984 C1010 0.950 . S
H985 C1012 0.950 . S
H986 C1015 0.950 . S
H987 C1016 0.950 . S
H988 C1018 0.950 . S
H989 C1019 0.950 . S
C990 H972 0.951 1_655 S
C990 C991 1.366 . S
C990 C992 1.388 1_655 S
C991 C990 1.366 . S
C991 C995 1.385 . S
C992 H973 0.947 . S
C992 C990 1.388 1_455 S
C992 C993 1.369 1_455 S
C993 C992 1.369 1_655 S
C993 C994 1.414 . S
C993 C996 1.499 . S
C994 H974 0.950 . S
C994 C993 1.414 . S
C994 C995 1.374 . S
C995 H975 0.950 . S
C995 C991 1.385 . S
C995 C994 1.374 . S
C996 C993 1.499 . S
C996 C997 1.373 . S
C996 C998 1.401 1_565 S
C997 H976 0.950 . S
C997 C996 1.373 . S
C997 C1013 1.377 . S
C998 C996 1.401 1_545 S
C998 C999 1.514 1_655 S
C998 C1012 1.375 1_655 S
C999 C998 1.514 1_455 S
C999 C1000 1.397 . S
C999 C1004 1.363 . S
C1000 H977 0.950 1_455 S
C1000 C999 1.397 . S
C1000 C1001 1.334 . S
C1001 H978 0.950 . S
C1001 C1000 1.334 . S
C1001 C1002 1.287 . S
C1002 C1001 1.287 . S
C1002 C1003 1.524 . S
C1002 H1021 0.913 . S
C1003 H979 0.950 . S
C1003 C1002 1.524 . S
C1003 C1004 1.415 . S
C1004 H980 0.950 . S
C1004 C999 1.363 . S
C1004 C1003 1.415 . S
C1005 H981 0.951 . S
C1005 C1006 1.366 . S
C1005 C1007 1.388 . S
C1006 C1005 1.366 . S
C1006 C1010 1.385 1_655 S
C1007 H982 0.951 . S
C1007 C1005 1.388 . S
C1007 C1008 1.366 . S
C1008 C1007 1.366 . S
C1008 C1009 1.414 1_655 S
C1008 C1011 1.499 . S
C1009 H983 0.950 . S
C1009 C1008 1.414 1_455 S
C1009 C1010 1.374 . S
C1010 H984 0.950 . S
C1010 C1006 1.385 1_455 S
C1010 C1009 1.374 . S
C1011 C1008 1.499 . S
C1011 C1012 1.373 1_655 S
C1011 C1013 1.389 1_545 S
C1012 H985 0.950 . S
C1012 C998 1.375 1_455 S
C1012 C1011 1.373 1_455 S
C1013 C997 1.377 . S
C1013 C1011 1.389 1_565 S
C1013 C1014 1.524 . S
C1014 C1013 1.524 . S
C1014 C1015 1.397 . S
C1014 C1019 1.363 . S
C1015 H986 0.950 . S
C1015 C1014 1.397 . S
C1015 C1016 1.334 . S
C1016 H987 0.950 . S
C1016 C1015 1.334 . S
C1016 C1017 1.287 . S
C1017 C1016 1.287 . S
C1017 C1018 1.524 . S
C1017 H1020 0.999 . S
C1018 H988 0.950 . S
C1018 C1017 1.524 . S
C1018 C1019 1.415 . S
C1019 H989 0.950 . S
C1019 C1014 1.363 . S
C1019 C1018 1.415 . S
H1020 C1017 0.999 . S
H1021 C1002 0.913 . S
H1022 C1040 0.951 . S
H1023 C1042 0.951 . S
H1024 C1044 0.950 . S
H1025 C1045 0.950 . S
H1026 C1047 0.950 . S
H1027 C1050 0.950 . S
H1028 C1051 0.950 . S
H1029 C1053 0.950 . S
H1030 C1054 0.950 . S
H1031 C1055 0.951 . S
H1032 C1057 0.951 . S
H1033 C1059 0.950 . S
H1034 C1060 0.950 . S
H1035 C1062 0.950 . S
H1036 C1065 0.950 . S
H1037 C1066 0.950 . S
H1038 C1068 0.950 . S
H1039 C1069 0.950 . S
C1040 H1022 0.951 . S
C1040 C1041 1.366 . S
C1040 C1042 1.388 . S
C1041 C1040 1.366 . S
C1041 C1045 1.385 . S
C1042 H1023 0.951 . S
C1042 C1040 1.388 . S
C1042 C1043 1.366 . S
C1043 C1042 1.366 . S
C1043 C1044 1.414 . S
C1043 C1046 1.499 . S
C1044 H1024 0.950 . S
C1044 C1043 1.414 . S
C1044 C1045 1.374 . S
C1045 H1025 0.950 . S
C1045 C1041 1.385 . S
C1045 C1044 1.374 . S
C1046 C1043 1.499 . S
C1046 C1047 1.373 . S
C1046 C1048 1.389 . S
C1047 H1026 0.950 . S
C1047 C1046 1.373 . S
C1047 C1063 1.377 . S
C1048 C1046 1.389 . S
C1048 C1049 1.524 1_545 S
C1048 C1062 1.377 . S
C1049 C1048 1.524 1_565 S
C1049 C1050 1.397 . S
C1049 C1054 1.363 . S
C1050 H1027 0.950 . S
C1050 C1049 1.397 . S
C1050 C1051 1.334 . S
C1051 H1028 0.950 . S
C1051 C1050 1.334 . S
C1051 C1052 1.287 . S
C1052 C1051 1.287 . S
C1052 C1053 1.524 . S
C1052 H1071 0.913 . S
C1053 H1029 0.950 . S
C1053 C1052 1.524 . S
C1053 C1054 1.415 . S
C1054 H1030 0.950 . S
C1054 C1049 1.363 . S
C1054 C1053 1.415 . S
C1055 H1031 0.951 . S
C1055 C1056 1.366 . S
C1055 C1057 1.388 . S
C1056 C1055 1.366 . S
C1056 C1060 1.385 . S
C1057 H1032 0.951 . S
C1057 C1055 1.388 . S
C1057 C1058 1.366 . S
C1058 C1057 1.366 . S
C1058 C1059 1.414 . S
C1058 C1061 1.499 . S
C1059 H1033 0.950 . S
C1059 C1058 1.414 . S
C1059 C1060 1.374 . S
C1060 H1034 0.950 . S
C1060 C1056 1.385 . S
C1060 C1059 1.374 . S
C1061 C1058 1.499 . S
C1061 C1062 1.373 . S
C1061 C1063 1.389 . S
C1062 H1035 0.950 . S
C1062 C1048 1.377 . S
C1062 C1061 1.373 . S
C1063 C1047 1.377 . S
C1063 C1061 1.389 . S
C1063 C1064 1.524 . S
C1064 C1063 1.524 . S
C1064 C1065 1.397 . S
C1064 C1069 1.363 . S
C1065 H1036 0.950 . S
C1065 C1064 1.397 . S
C1065 C1066 1.334 . S
C1066 H1037 0.950 . S
C1066 C1065 1.334 . S
C1066 C1067 1.287 . S
C1067 C1066 1.287 . S
C1067 C1068 1.524 . S
C1067 H1070 0.999 . S
C1068 H1038 0.950 . S
C1068 C1067 1.524 . S
C1068 C1069 1.415 . S
C1069 H1039 0.950 . S
C1069 C1064 1.363 . S
C1069 C1068 1.415 . S
H1070 C1067 0.999 . S
H1071 C1052 0.913 . S
H1072 C1090 0.951 . S
H1073 C1092 0.951 . S
H1074 C1094 0.950 . S
H1075 C1095 0.950 . S
H1076 C1097 0.950 . S
H1077 C1100 0.950 . S
H1078 C1101 0.950 . S
H1079 C1103 0.950 . S
H1080 C1104 0.950 . S
H1081 C1105 0.951 . S
H1082 C1107 0.951 . S
H1083 C1109 0.950 . S
H1084 C1110 0.950 . S
H1085 C1112 0.950 . S
H1086 C1115 0.950 . S
H1087 C1116 0.950 . S
H1088 C1118 0.950 . S
H1089 C1119 0.950 . S
C1090 H1072 0.951 . S
C1090 C1091 1.366 . S
C1090 C1092 1.388 . S
C1091 C1090 1.366 . S
C1091 C1095 1.385 . S
C1092 H1073 0.951 . S
C1092 C1090 1.388 . S
C1092 C1093 1.366 . S
C1093 C1092 1.366 . S
C1093 C1094 1.414 . S
C1093 C1096 1.499 . S
C1094 H1074 0.950 . S
C1094 C1093 1.414 . S
C1094 C1095 1.374 . S
C1095 H1075 0.950 . S
C1095 C1091 1.385 . S
C1095 C1094 1.374 . S
C1096 C1093 1.499 . S
C1096 C1097 1.373 . S
C1096 C1098 1.389 . S
C1097 H1076 0.950 . S
C1097 C1096 1.373 . S
C1097 C1113 1.377 . S
C1098 C1096 1.389 . S
C1098 C1099 1.524 . S
C1098 C1112 1.377 . S
C1099 C1098 1.524 . S
C1099 C1100 1.397 . S
C1099 C1104 1.363 . S
C1100 H1077 0.950 . S
C1100 C1099 1.397 . S
C1100 C1101 1.334 . S
C1101 H1078 0.950 . S
C1101 C1100 1.334 . S
C1101 C1102 1.287 . S
C1102 C1101 1.287 . S
C1102 C1103 1.524 . S
C1102 H1121 0.913 . S
C1103 H1079 0.950 . S
C1103 C1102 1.524 . S
C1103 C1104 1.415 . S
C1104 H1080 0.950 . S
C1104 C1099 1.363 . S
C1104 C1103 1.415 . S
C1105 H1081 0.951 . S
C1105 C1106 1.366 . S
C1105 C1107 1.388 . S
C1106 C1105 1.366 . S
C1106 C1110 1.385 . S
C1107 H1082 0.951 . S
C1107 C1105 1.388 . S
C1107 C1108 1.366 . S
C1108 C1107 1.366 . S
C1108 C1109 1.414 . S
C1108 C1111 1.499 . S
C1109 H1083 0.950 . S
C1109 C1108 1.414 . S
C1109 C1110 1.374 . S
C1110 H1084 0.950 . S
C1110 C1106 1.385 . S
C1110 C1109 1.374 . S
C1111 C1108 1.499 . S
C1111 C1112 1.373 . S
C1111 C1113 1.389 . S
C1112 H1085 0.950 . S
C1112 C1098 1.377 . S
C1112 C1111 1.373 . S
C1113 C1097 1.377 . S
C1113 C1111 1.389 . S
C1113 C1114 1.524 . S
C1114 C1113 1.524 . S
C1114 C1115 1.397 . S
C1114 C1119 1.363 . S
C1115 H1086 0.950 . S
C1115 C1114 1.397 . S
C1115 C1116 1.334 . S
C1116 H1087 0.950 . S
C1116 C1115 1.334 . S
C1116 C1117 1.287 . S
C1117 C1116 1.287 . S
C1117 C1118 1.524 . S
C1117 H1120 0.999 . S
C1118 H1088 0.950 . S
C1118 C1117 1.524 . S
C1118 C1119 1.415 . S
C1119 H1089 0.950 . S
C1119 C1114 1.363 . S
C1119 C1118 1.415 . S
H1120 C1117 0.999 . S
H1121 C1102 0.913 . S
H1122 C1140 0.951 . S
H1123 C1142 0.951 . S
H1124 C1144 0.950 . S
H1125 C1145 0.950 . S
H1126 C1147 0.950 . S
H1127 C1150 0.950 . S
H1128 C1151 0.950 . S
H1129 C1153 0.950 . S
H1130 C1154 0.950 . S
H1131 C1155 0.951 . S
H1132 C1157 0.951 . S
H1133 C1159 0.950 . S
H1134 C1160 0.950 . S
H1135 C1162 0.950 . S
H1136 C1165 0.950 . S
H1137 C1166 0.950 . S
H1138 C1168 0.950 1_655 S
H1139 C1169 0.950 . S
C1140 H1122 0.951 . S
C1140 C1141 1.366 . S
C1140 C1142 1.388 . S
C1141 C1140 1.366 . S
C1141 C1145 1.385 . S
C1142 H1123 0.951 . S
C1142 C1140 1.388 . S
C1142 C1143 1.366 . S
C1143 C1142 1.366 . S
C1143 C1144 1.414 . S
C1143 C1146 1.499 . S
C1144 H1124 0.950 . S
C1144 C1143 1.414 . S
C1144 C1145 1.374 . S
C1145 H1125 0.950 . S
C1145 C1141 1.385 . S
C1145 C1144 1.374 . S
C1146 C1143 1.499 . S
C1146 C1147 1.373 . S
C1146 C1148 1.389 . S
C1147 H1126 0.950 . S
C1147 C1146 1.373 . S
C1147 C1163 1.377 . S
C1148 C1146 1.389 . S
C1148 C1149 1.524 . S
C1148 C1162 1.377 . S
C1149 C1148 1.524 . S
C1149 C1150 1.397 . S
C1149 C1154 1.363 . S
C1150 H1127 0.950 . S
C1150 C1149 1.397 . S
C1150 C1151 1.334 . S
C1151 H1128 0.950 . S
C1151 C1150 1.334 . S
C1151 C1152 1.287 . S
C1152 C1151 1.287 . S
C1152 C1153 1.524 . S
C1152 H1171 0.913 . S
C1153 H1129 0.950 . S
C1153 C1152 1.524 . S
C1153 C1154 1.415 . S
C1154 H1130 0.950 . S
C1154 C1149 1.363 . S
C1154 C1153 1.415 . S
C1155 H1131 0.951 . S
C1155 C1156 1.366 . S
C1155 C1157 1.388 . S
C1156 C1155 1.366 . S
C1156 C1160 1.385 . S
C1157 H1132 0.951 . S
C1157 C1155 1.388 . S
C1157 C1158 1.366 . S
C1158 C1157 1.366 . S
C1158 C1159 1.414 . S
C1158 C1161 1.499 . S
C1159 H1133 0.950 . S
C1159 C1158 1.414 . S
C1159 C1160 1.374 . S
C1160 H1134 0.950 . S
C1160 C1156 1.385 . S
C1160 C1159 1.374 . S
C1161 C1158 1.499 . S
C1161 C1162 1.373 . S
C1161 C1163 1.389 . S
C1162 H1135 0.950 . S
C1162 C1148 1.377 . S
C1162 C1161 1.373 . S
C1163 C1147 1.377 . S
C1163 C1161 1.389 . S
C1163 C1164 1.524 . S
C1164 C1163 1.524 . S
C1164 C1165 1.397 . S
C1164 C1169 1.363 . S
C1165 H1136 0.950 . S
C1165 C1164 1.397 . S
C1165 C1166 1.334 . S
C1166 H1137 0.950 . S
C1166 C1165 1.334 . S
C1166 C1167 1.287 . S
C1167 C1166 1.287 . S
C1167 C1168 1.524 . S
C1167 H1170 0.999 . S
C1168 H1138 0.950 1_455 S
C1168 C1167 1.524 . S
C1168 C1169 1.415 . S
C1169 H1139 0.950 . S
C1169 C1164 1.363 . S
C1169 C1168 1.415 . S
H1170 C1167 0.999 . S
H1171 C1152 0.913 . S
H1172 C1190 0.951 . S
H1173 C1192 0.951 . S
H1174 C1194 0.961 1_554 S
H1175 C1195 0.950 1_545 S
H1176 C1197 0.950 . S
H1177 C1200 0.950 1_545 S
H1178 C1201 0.950 . S
H1179 C1203 0.950 . S
H1180 C1204 0.950 . S
H1181 C1205 0.951 . S
H1182 C1207 0.951 . S
H1183 C1209 0.950 1_556 S
H1184 C1210 0.950 . S
H1185 C1212 0.950 . S
H1186 C1215 0.950 . S
H1187 C1216 0.950 . S
H1188 C1218 0.950 . S
H1189 C1219 0.950 . S
C1190 H1172 0.951 . S
C1190 C1191 1.366 . S
C1190 C1192 1.388 . S
C1191 C1190 1.366 . S
C1191 C1195 1.385 . S
C1192 H1173 0.951 . S
C1192 C1190 1.388 . S
C1192 C1193 1.366 . S
C1193 C1192 1.366 . S
C1193 C1194 1.405 1_565 S
C1193 C1196 1.499 . S
C1194 H1174 0.961 1_556 S
C1194 C1193 1.405 1_545 S
C1194 C1195 1.373 1_545 S
C1195 H1175 0.950 1_565 S
C1195 C1191 1.385 . S
C1195 C1194 1.373 1_565 S
C1196 C1193 1.499 . S
C1196 C1197 1.373 1_556 S
C1196 C1198 1.389 . S
C1197 H1176 0.950 . S
C1197 C1196 1.373 1_554 S
C1197 C1213 1.377 . S
C1198 C1196 1.389 . S
C1198 C1199 1.524 . S
C1198 C1212 1.377 . S
C1199 C1198 1.524 . S
C1199 C1200 1.397 . S
C1199 C1204 1.363 . S
C1200 H1177 0.950 1_565 S
C1200 C1199 1.397 . S
C1200 C1201 1.334 . S
C1201 H1178 0.950 . S
C1201 C1200 1.334 . S
C1201 C1202 1.287 . S
C1202 C1201 1.287 . S
C1202 C1203 1.524 . S
C1202 H1221 0.913 . S
C1203 H1179 0.950 . S
C1203 C1202 1.524 . S
C1203 C1204 1.415 . S
C1204 H1180 0.950 . S
C1204 C1199 1.363 . S
C1204 C1203 1.415 . S
C1205 H1181 0.951 . S
C1205 C1206 1.366 1_545 S
C1205 C1207 1.388 . S
C1206 C1205 1.366 1_565 S
C1206 C1210 1.385 . S
C1207 H1182 0.951 . S
C1207 C1205 1.388 . S
C1207 C1208 1.366 1_545 S
C1208 C1207 1.366 1_565 S
C1208 C1209 1.414 . S
C1208 C1211 1.499 . S
C1209 H1183 0.950 1_554 S
C1209 C1208 1.414 . S
C1209 C1210 1.374 . S
C1210 H1184 0.950 . S
C1210 C1206 1.385 . S
C1210 C1209 1.374 . S
C1211 C1208 1.499 . S
C1211 C1212 1.373 1_554 S
C1211 C1213 1.389 . S
C1212 H1185 0.950 . S
C1212 C1198 1.377 . S
C1212 C1211 1.373 1_556 S
C1213 C1197 1.377 . S
C1213 C1211 1.389 . S
C1213 C1214 1.524 . S
C1214 C1213 1.524 . S
C1214 C1215 1.397 . S
C1214 C1219 1.363 1_565 S
C1215 H1186 0.950 . S
C1215 C1214 1.397 . S
C1215 C1216 1.334 . S
C1216 H1187 0.950 . S
C1216 C1215 1.334 . S
C1216 C1217 1.287 1_565 S
C1217 C1216 1.287 1_545 S
C1217 C1218 1.524 . S
C1217 H1220 0.999 . S
C1218 H1188 0.950 . S
C1218 C1217 1.524 . S
C1218 C1219 1.415 . S
C1219 H1189 0.950 . S
C1219 C1214 1.363 1_545 S
C1219 C1218 1.415 . S
H1220 C1217 0.999 . S
H1221 C1202 0.913 . S
H1222 C1240 0.951 . S
H1223 C1242 0.951 . S
H1224 C1244 0.950 . S
H1225 C1245 0.950 . S
H1226 C1247 0.950 . S
H1227 C1250 0.950 . S
H1228 C1251 0.950 . S
H1229 C1253 0.950 . S
H1230 C1254 0.950 . S
H1231 C1255 0.951 . S
H1232 C1257 0.951 . S
H1233 C1259 0.950 . S
H1234 C1260 0.950 . S
H1235 C1262 0.950 . S
H1236 C1265 0.950 . S
H1237 C1266 0.950 . S
H1238 C1268 0.950 . S
H1239 C1269 0.950 . S
C1240 H1222 0.951 . S
C1240 C1241 1.366 . S
C1240 C1242 1.388 . S
C1241 C1240 1.366 . S
C1241 C1245 1.385 . S
C1242 H1223 0.951 . S
C1242 C1240 1.388 . S
C1242 C1243 1.366 . S
C1243 C1242 1.366 . S
C1243 C1244 1.414 . S
C1243 C1246 1.499 . S
C1244 H1224 0.950 . S
C1244 C1243 1.414 . S
C1244 C1245 1.374 . S
C1245 H1225 0.950 . S
C1245 C1241 1.385 . S
C1245 C1244 1.374 . S
C1246 C1243 1.499 . S
C1246 C1247 1.373 . S
C1246 C1248 1.389 . S
C1247 H1226 0.950 . S
C1247 C1246 1.373 . S
C1247 C1263 1.377 . S
C1248 C1246 1.389 . S
C1248 C1249 1.524 . S
C1248 C1262 1.377 . S
C1249 C1248 1.524 . S
C1249 C1250 1.397 . S
C1249 C1254 1.363 . S
C1250 H1227 0.950 . S
C1250 C1249 1.397 . S
C1250 C1251 1.334 . S
C1251 H1228 0.950 . S
C1251 C1250 1.334 . S
C1251 C1252 1.287 . S
C1252 C1251 1.287 . S
C1252 C1253 1.524 . S
C1252 H1271 0.913 . S
C1253 H1229 0.950 . S
C1253 C1252 1.524 . S
C1253 C1254 1.415 . S
C1254 H1230 0.950 . S
C1254 C1249 1.363 . S
C1254 C1253 1.415 . S
C1255 H1231 0.951 . S
C1255 C1256 1.366 . S
C1255 C1257 1.388 . S
C1256 C1255 1.366 . S
C1256 C1260 1.385 . S
C1257 H1232 0.951 . S
C1257 C1255 1.388 . S
C1257 C1258 1.366 . S
C1258 C1257 1.366 . S
C1258 C1259 1.414 . S
C1258 C1261 1.499 . S
C1259 H1233 0.950 . S
C1259 C1258 1.414 . S
C1259 C1260 1.374 . S
C1260 H1234 0.950 . S
C1260 C1256 1.385 . S
C1260 C1259 1.374 . S
C1261 C1258 1.499 . S
C1261 C1262 1.373 . S
C1261 C1263 1.389 . S
C1262 H1235 0.950 . S
C1262 C1248 1.377 . S
C1262 C1261 1.373 . S
C1263 C1247 1.377 . S
C1263 C1261 1.389 . S
C1263 C1264 1.524 . S
C1264 C1263 1.524 . S
C1264 C1265 1.397 . S
C1264 C1269 1.363 . S
C1265 H1236 0.950 . S
C1265 C1264 1.397 . S
C1265 C1266 1.334 . S
C1266 H1237 0.950 . S
C1266 C1265 1.334 . S
C1266 C1267 1.287 . S
C1267 C1266 1.287 . S
C1267 C1268 1.524 . S
C1267 H1270 0.999 . S
C1268 H1238 0.950 . S
C1268 C1267 1.524 . S
C1268 C1269 1.415 . S
C1269 H1239 0.950 . S
C1269 C1264 1.363 . S
C1269 C1268 1.415 . S
H1270 C1267 0.999 . S
H1271 C1252 0.913 . S
H1272 C1290 0.951 . S
H1273 C1292 0.951 . S
H1274 C1294 0.950 . S
H1275 C1295 0.950 . S
H1276 C1297 0.950 . S
H1277 C1300 0.950 . S
H1278 C1301 0.950 . S
H1279 C1303 0.950 . S
H1280 C1304 0.950 . S
H1281 C1305 0.951 . S
H1282 C1307 0.951 . S
H1283 C1309 0.950 . S
H1284 C1310 0.950 . S
H1285 C1312 0.950 . S
H1286 C1315 0.950 . S
H1287 C1316 0.950 . S
H1288 C1318 0.950 . S
H1289 C1319 0.950 . S
C1290 H1272 0.951 . S
C1290 C1291 1.366 . S
C1290 C1292 1.388 . S
C1291 C1290 1.366 . S
C1291 C1295 1.385 . S
C1292 H1273 0.951 . S
C1292 C1290 1.388 . S
C1292 C1293 1.366 . S
C1293 C1292 1.366 . S
C1293 C1294 1.414 . S
C1293 C1296 1.499 . S
C1294 H1274 0.950 . S
C1294 C1293 1.414 . S
C1294 C1295 1.374 . S
C1295 H1275 0.950 . S
C1295 C1291 1.385 . S
C1295 C1294 1.374 . S
C1296 C1293 1.499 . S
C1296 C1297 1.373 . S
C1296 C1298 1.389 . S
C1297 H1276 0.950 . S
C1297 C1296 1.373 . S
C1297 C1313 1.377 . S
C1298 C1296 1.389 . S
C1298 C1299 1.524 . S
C1298 C1312 1.377 . S
C1299 C1298 1.524 . S
C1299 C1300 1.397 1_554 S
C1299 C1304 1.363 . S
C1300 H1277 0.950 . S
C1300 C1299 1.397 1_556 S
C1300 C1301 1.334 . S
C1301 H1278 0.950 . S
C1301 C1300 1.334 . S
C1301 C1302 1.287 . S
C1302 C1301 1.287 . S
C1302 C1303 1.524 . S
C1302 H1321 0.913 . S
C1303 H1279 0.950 . S
C1303 C1302 1.524 . S
C1303 C1304 1.415 1_556 S
C1304 H1280 0.950 . S
C1304 C1299 1.363 . S
C1304 C1303 1.415 1_554 S
C1305 H1281 0.951 . S
C1305 C1306 1.366 . S
C1305 C1307 1.388 . S
C1306 C1305 1.366 . S
C1306 C1310 1.385 . S
C1307 H1282 0.951 . S
C1307 C1305 1.388 . S
C1307 C1308 1.366 . S
C1308 C1307 1.366 . S
C1308 C1309 1.414 . S
C1308 C1311 1.499 . S
C1309 H1283 0.950 . S
C1309 C1308 1.414 . S
C1309 C1310 1.374 . S
C1310 H1284 0.950 . S
C1310 C1306 1.385 . S
C1310 C1309 1.374 . S
C1311 C1308 1.499 . S
C1311 C1312 1.373 . S
C1311 C1313 1.389 . S
C1312 H1285 0.950 . S
C1312 C1298 1.377 . S
C1312 C1311 1.373 . S
C1313 C1297 1.377 . S
C1313 C1311 1.389 . S
C1313 C1314 1.524 . S
C1314 C1313 1.524 . S
C1314 C1315 1.397 . S
C1314 C1319 1.363 . S
C1315 H1286 0.950 . S
C1315 C1314 1.397 . S
C1315 C1316 1.334 . S
C1316 H1287 0.950 . S
C1316 C1315 1.334 . S
C1316 C1317 1.287 . S
C1317 C1316 1.287 . S
C1317 C1318 1.524 . S
C1317 H1320 0.999 . S
C1318 H1288 0.950 . S
C1318 C1317 1.524 . S
C1318 C1319 1.415 . S
C1319 H1289 0.950 . S
C1319 C1314 1.363 . S
C1319 C1318 1.415 . S
H1320 C1317 0.999 . S
H1321 C1302 0.913 . S
H1322 C1340 0.951 . S
H1323 C1342 0.951 . S
H1324 C1344 0.950 . S
H1325 C1345 0.950 . S
H1326 C1347 0.950 . S
H1327 C1350 0.950 . S
H1328 C1351 0.950 . S
H1329 C1353 0.950 . S
H1330 C1354 0.950 . S
H1331 C1355 0.951 . S
H1332 C1357 0.951 . S
H1333 C1359 0.950 . S
H1334 C1360 0.950 . S
H1335 C1362 0.950 . S
H1336 C1365 0.950 . S
H1337 C1366 0.950 . S
H1338 C1368 0.950 . S
H1339 C1369 0.950 . S
C1340 H1322 0.951 . S
C1340 C1341 1.366 . S
C1340 C1342 1.388 . S
C1341 C1340 1.366 . S
C1341 C1345 1.385 . S
C1342 H1323 0.951 . S
C1342 C1340 1.388 . S
C1342 C1343 1.366 . S
C1343 C1342 1.366 . S
C1343 C1344 1.414 . S
C1343 C1346 1.499 . S
C1344 H1324 0.950 . S
C1344 C1343 1.414 . S
C1344 C1345 1.374 . S
C1345 H1325 0.950 . S
C1345 C1341 1.385 . S
C1345 C1344 1.374 . S
C1346 C1343 1.499 . S
C1346 C1347 1.373 . S
C1346 C1348 1.389 . S
C1347 H1326 0.950 . S
C1347 C1346 1.373 . S
C1347 C1363 1.377 . S
C1348 C1346 1.389 . S
C1348 C1349 1.524 . S
C1348 C1362 1.377 . S
C1349 C1348 1.524 . S
C1349 C1350 1.397 . S
C1349 C1354 1.363 . S
C1350 H1327 0.950 . S
C1350 C1349 1.397 . S
C1350 C1351 1.334 . S
C1351 H1328 0.950 . S
C1351 C1350 1.334 . S
C1351 C1352 1.287 . S
C1352 C1351 1.287 . S
C1352 C1353 1.524 . S
C1352 H1371 0.913 . S
C1353 H1329 0.950 . S
C1353 C1352 1.524 . S
C1353 C1354 1.415 . S
C1354 H1330 0.950 . S
C1354 C1349 1.363 . S
C1354 C1353 1.415 . S
C1355 H1331 0.951 . S
C1355 C1356 1.366 . S
C1355 C1357 1.388 . S
C1356 C1355 1.366 . S
C1356 C1360 1.385 . S
C1357 H1332 0.951 . S
C1357 C1355 1.388 . S
C1357 C1358 1.366 . S
C1358 C1357 1.366 . S
C1358 C1359 1.414 . S
C1358 C1361 1.499 . S
C1359 H1333 0.950 . S
C1359 C1358 1.414 . S
C1359 C1360 1.374 . S
C1360 H1334 0.950 . S
C1360 C1356 1.385 . S
C1360 C1359 1.374 . S
C1361 C1358 1.499 . S
C1361 C1362 1.373 . S
C1361 C1363 1.389 . S
C1362 H1335 0.950 . S
C1362 C1348 1.377 . S
C1362 C1361 1.373 . S
C1363 C1347 1.377 . S
C1363 C1361 1.389 . S
C1363 C1364 1.524 . S
C1364 C1363 1.524 . S
C1364 C1365 1.397 . S
C1364 C1369 1.363 . S
C1365 H1336 0.950 . S
C1365 C1364 1.397 . S
C1365 C1366 1.334 . S
C1366 H1337 0.950 . S
C1366 C1365 1.334 . S
C1366 C1367 1.287 . S
C1367 C1366 1.287 . S
C1367 C1368 1.524 . S
C1367 H1370 0.999 . S
C1368 H1338 0.950 . S
C1368 C1367 1.524 . S
C1368 C1369 1.415 . S
C1369 H1339 0.950 . S
C1369 C1364 1.363 . S
C1369 C1368 1.415 . S
H1370 C1367 0.999 . S
H1371 C1352 0.913 . S
H1372 C1390 0.951 1_554 S
H1373 C1392 0.951 1_554 S
H1374 C1394 0.950 . S
H1375 C1395 0.950 . S
H1376 C1397 0.950 . S
H1377 C1400 0.950 . S
H1378 C1401 0.950 . S
H1379 C1403 0.950 . S
H1380 C1404 0.950 . S
H1381 C1405 0.951 . S
H1382 C1407 0.951 . S
H1383 C1409 0.950 . S
H1384 C1410 0.972 . S
H1385 C1412 0.950 . S
H1386 C1415 0.950 . S
H1387 C1416 0.950 . S
H1388 C1418 0.950 . S
H1389 C1419 0.950 . S
C1390 H1372 0.951 1_556 S
C1390 C1391 1.366 . S
C1390 C1392 1.388 . S
C1391 C1390 1.366 . S
C1391 C1395 1.385 1_655 S
C1392 H1373 0.951 1_556 S
C1392 C1390 1.388 . S
C1392 C1393 1.366 . S
C1393 C1392 1.366 . S
C1393 C1394 1.414 1_655 S
C1393 C1396 1.499 . S
C1394 H1374 0.950 . S
C1394 C1393 1.414 1_455 S
C1394 C1395 1.374 . S
C1395 H1375 0.950 . S
C1395 C1391 1.385 1_455 S
C1395 C1394 1.374 . S
C1396 C1393 1.499 . S
C1396 C1397 1.373 . S
C1396 C1398 1.389 1_656 S
C1397 H1376 0.950 . S
C1397 C1396 1.373 . S
C1397 C1413 1.382 . S
C1398 C1396 1.389 1_454 S
C1398 C1399 1.524 . S
C1398 C1412 1.377 . S
C1399 C1398 1.524 . S
C1399 C1400 1.397 . S
C1399 C1404 1.363 1_455 S
C1400 H1377 0.950 . S
C1400 C1399 1.397 . S
C1400 C1401 1.334 . S
C1401 H1378 0.950 . S
C1401 C1400 1.334 . S
C1401 C1402 1.287 . S
C1402 C1401 1.287 . S
C1402 C1403 1.524 1_455 S
C1402 H1421 0.913 . S
C1403 H1379 0.950 . S
C1403 C1402 1.524 1_655 S
C1403 C1404 1.415 . S
C1404 H1380 0.950 . S
C1404 C1399 1.363 1_655 S
C1404 C1403 1.415 . S
C1405 H1381 0.951 . S
C1405 C1406 1.366 . S
C1405 C1407 1.388 . S
C1406 C1405 1.366 . S
C1406 C1410 1.357 1_456 S
C1407 H1382 0.951 . S
C1407 C1405 1.388 . S
C1407 C1408 1.366 . S
C1408 C1407 1.366 . S
C1408 C1409 1.414 1_456 S
C1408 C1411 1.499 . S
C1409 H1383 0.950 . S
C1409 C1408 1.414 1_654 S
C1409 C1410 1.381 . S
C1410 H1384 0.972 . S
C1410 C1406 1.357 1_654 S
C1410 C1409 1.381 . S
C1411 C1408 1.499 . S
C1411 C1412 1.373 1_556 S
C1411 C1413 1.383 1_455 S
C1412 H1385 0.950 . S
C1412 C1398 1.377 . S
C1412 C1411 1.373 1_554 S
C1413 C1397 1.382 . S
C1413 C1411 1.383 1_655 S
C1413 C1414 1.532 . S
C1414 C1413 1.532 . S
C1414 C1415 1.397 . S
C1414 C1419 1.363 1_655 S
C1415 H1386 0.950 . S
C1415 C1414 1.397 . S
C1415 C1416 1.334 . S
C1416 H1387 0.950 . S
C1416 C1415 1.334 . S
C1416 C1417 1.287 . S
C1417 C1416 1.287 . S
C1417 C1418 1.524 1_655 S
C1417 H1420 0.999 . S
C1418 H1388 0.950 . S
C1418 C1417 1.524 1_455 S
C1418 C1419 1.415 . S
C1419 H1389 0.950 . S
C1419 C1414 1.363 1_455 S
C1419 C1418 1.415 . S
H1420 C1417 0.999 . S
H1421 C1402 0.913 . S
H1422 C1440 0.951 . S
H1423 C1442 0.951 . S
H1424 C1444 0.950 . S
H1425 C1445 0.950 . S
H1426 C1447 0.950 . S
H1427 C1450 0.950 . S
H1428 C1451 0.950 . S
H1429 C1453 0.950 . S
H1430 C1454 0.950 . S
H1431 C1455 0.951 . S
H1432 C1457 0.951 . S
H1433 C1459 0.950 . S
H1434 C1460 0.950 . S
H1435 C1462 0.950 . S
H1436 C1465 0.950 . S
H1437 C1466 0.950 . S
H1438 C1468 0.950 . S
H1439 C1469 0.950 . S
C1440 H1422 0.951 . S
C1440 C1441 1.366 . S
C1440 C1442 1.388 . S
C1441 C1440 1.366 . S
C1441 C1445 1.385 . S
C1442 H1423 0.951 . S
C1442 C1440 1.388 . S
C1442 C1443 1.366 . S
C1443 C1442 1.366 . S
C1443 C1444 1.414 . S
C1443 C1446 1.499 . S
C1444 H1424 0.950 . S
C1444 C1443 1.414 . S
C1444 C1445 1.374 . S
C1445 H1425 0.950 . S
C1445 C1441 1.385 . S
C1445 C1444 1.374 . S
C1446 C1443 1.499 . S
C1446 C1447 1.373 . S
C1446 C1448 1.389 . S
C1447 H1426 0.950 . S
C1447 C1446 1.373 . S
C1447 C1463 1.377 . S
C1448 C1446 1.389 . S
C1448 C1449 1.524 . S
C1448 C1462 1.377 . S
C1449 C1448 1.524 . S
C1449 C1450 1.397 . S
C1449 C1454 1.363 . S
C1450 H1427 0.950 . S
C1450 C1449 1.397 . S
C1450 C1451 1.334 . S
C1451 H1428 0.950 . S
C1451 C1450 1.334 . S
C1451 C1452 1.287 . S
C1452 C1451 1.287 . S
C1452 C1453 1.524 . S
C1452 H1471 0.913 . S
C1453 H1429 0.950 . S
C1453 C1452 1.524 . S
C1453 C1454 1.415 . S
C1454 H1430 0.950 . S
C1454 C1449 1.363 . S
C1454 C1453 1.415 . S
C1455 H1431 0.951 . S
C1455 C1456 1.366 . S
C1455 C1457 1.388 . S
C1456 C1455 1.366 . S
C1456 C1460 1.385 . S
C1457 H1432 0.951 . S
C1457 C1455 1.388 . S
C1457 C1458 1.366 . S
C1458 C1457 1.366 . S
C1458 C1459 1.414 . S
C1458 C1461 1.499 . S
C1459 H1433 0.950 . S
C1459 C1458 1.414 . S
C1459 C1460 1.374 . S
C1460 H1434 0.950 . S
C1460 C1456 1.385 . S
C1460 C1459 1.374 . S
C1461 C1458 1.499 . S
C1461 C1462 1.373 . S
C1461 C1463 1.389 . S
C1462 H1435 0.950 . S
C1462 C1448 1.377 . S
C1462 C1461 1.373 . S
C1463 C1447 1.377 . S
C1463 C1461 1.389 . S
C1463 C1464 1.524 . S
C1464 C1463 1.524 . S
C1464 C1465 1.397 . S
C1464 C1469 1.363 . S
C1465 H1436 0.950 . S
C1465 C1464 1.397 . S
C1465 C1466 1.334 . S
C1466 H1437 0.950 . S
C1466 C1465 1.334 . S
C1466 C1467 1.287 . S
C1467 C1466 1.287 . S
C1467 C1468 1.524 . S
C1467 H1470 0.999 . S
C1468 H1438 0.950 . S
C1468 C1467 1.524 . S
C1468 C1469 1.415 . S
C1469 H1439 0.950 . S
C1469 C1464 1.363 . S
C1469 C1468 1.415 . S
H1470 C1467 0.999 . S
H1471 C1452 0.913 . S
H1472 C1490 0.951 . S
H1473 C1492 0.951 . S
H1474 C1494 0.950 . S
H1475 C1495 0.950 . S
H1476 C1497 0.950 . S
H1477 C1500 0.950 . S
H1478 C1501 0.950 . S
H1479 C1503 0.950 . S
H1480 C1504 0.950 . S
H1481 C1505 0.951 1_655 S
H1482 C1507 0.951 1_655 S
H1483 C1509 0.950 . S
H1484 C1510 0.950 . S
H1485 C1512 0.950 . S
H1486 C1515 0.950 . S
H1487 C1516 0.965 . S
H1488 C1518 0.950 . S
H1489 C1519 0.950 . S
C1490 H1472 0.951 . S
C1490 C1491 1.366 . S
C1490 C1492 1.388 . S
C1491 C1490 1.366 . S
C1491 C1495 1.385 . S
C1492 H1473 0.951 . S
C1492 C1490 1.388 . S
C1492 C1493 1.366 . S
C1493 C1492 1.366 . S
C1493 C1494 1.414 . S
C1493 C1496 1.499 . S
C1494 H1474 0.950 . S
C1494 C1493 1.414 . S
C1494 C1495 1.374 . S
C1495 H1475 0.950 . S
C1495 C1491 1.385 . S
C1495 C1494 1.374 . S
C1496 C1493 1.499 . S
C1496 C1497 1.373 . S
C1496 C1498 1.389 . S
C1497 H1476 0.950 . S
C1497 C1496 1.373 . S
C1497 C1513 1.377 . S
C1498 C1496 1.389 . S
C1498 C1499 1.524 . S
C1498 C1512 1.377 . S
C1499 C1498 1.524 . S
C1499 C1500 1.397 . S
C1499 C1504 1.363 . S
C1500 H1477 0.950 . S
C1500 C1499 1.397 . S
C1500 C1501 1.334 . S
C1501 H1478 0.950 . S
C1501 C1500 1.334 . S
C1501 C1502 1.287 . S
C1502 C1501 1.287 . S
C1502 C1503 1.524 . S
C1502 H1521 0.913 . S
C1503 H1479 0.950 . S
C1503 C1502 1.524 . S
C1503 C1504 1.415 . S
C1504 H1480 0.950 . S
C1504 C1499 1.363 . S
C1504 C1503 1.415 . S
C1505 H1481 0.951 1_455 S
C1505 C1506 1.366 . S
C1505 C1507 1.388 . S
C1506 C1505 1.366 . S
C1506 C1510 1.385 . S
C1507 H1482 0.951 1_455 S
C1507 C1505 1.388 . S
C1507 C1508 1.366 . S
C1508 C1507 1.366 . S
C1508 C1509 1.414 . S
C1508 C1511 1.499 . S
C1509 H1483 0.950 . S
C1509 C1508 1.414 . S
C1509 C1510 1.374 . S
C1510 H1484 0.950 . S
C1510 C1506 1.385 . S
C1510 C1509 1.374 . S
C1511 C1508 1.499 . S
C1511 C1512 1.373 . S
C1511 C1513 1.389 . S
C1512 H1485 0.950 . S
C1512 C1498 1.377 . S
C1512 C1511 1.373 . S
C1513 C1497 1.377 . S
C1513 C1511 1.389 . S
C1513 C1514 1.522 1_455 S
C1514 C1513 1.522 1_655 S
C1514 C1515 1.396 1_655 S
C1514 C1519 1.366 . S
C1515 H1486 0.950 . S
C1515 C1514 1.396 1_455 S
C1515 C1516 1.334 1_455 S
C1516 H1487 0.965 . S
C1516 C1515 1.334 1_655 S
C1516 C1517 1.287 . S
C1517 C1516 1.287 . S
C1517 C1518 1.524 . S
C1517 H1520 0.999 . S
C1518 H1488 0.950 . S
C1518 C1517 1.524 . S
C1518 C1519 1.415 . S
C1519 H1489 0.950 . S
C1519 C1514 1.366 . S
C1519 C1518 1.415 . S
H1520 C1517 0.999 . S
H1521 C1502 0.913 . S
H1522 C1540 0.951 . S
H1523 C1542 0.951 . S
H1524 C1544 0.950 . S
H1525 C1545 0.950 . S
H1526 C1547 0.950 . S
H1527 C1550 0.950 . S
H1528 C1551 0.950 . S
H1529 C1553 0.950 . S
H1530 C1554 0.950 . S
H1531 C1555 0.951 . S
H1532 C1557 0.951 . S
H1533 C1559 0.950 . S
H1534 C1560 0.950 . S
H1535 C1562 0.950 . S
H1536 C1565 0.950 . S
H1537 C1566 0.950 . S
H1538 C1568 0.950 . S
H1539 C1569 0.950 . S
C1540 H1522 0.951 . S
C1540 C1541 1.366 . S
C1540 C1542 1.388 . S
C1541 C1540 1.366 . S
C1541 C1545 1.385 . S
C1542 H1523 0.951 . S
C1542 C1540 1.388 . S
C1542 C1543 1.366 . S
C1543 C1542 1.366 . S
C1543 C1544 1.414 . S
C1543 C1546 1.499 . S
C1544 H1524 0.950 . S
C1544 C1543 1.414 . S
C1544 C1545 1.374 . S
C1545 H1525 0.950 . S
C1545 C1541 1.385 . S
C1545 C1544 1.374 . S
C1546 C1543 1.499 . S
C1546 C1547 1.373 . S
C1546 C1548 1.389 . S
C1547 H1526 0.950 . S
C1547 C1546 1.373 . S
C1547 C1563 1.377 . S
C1548 C1546 1.389 . S
C1548 C1549 1.524 . S
C1548 C1562 1.377 . S
C1549 C1548 1.524 . S
C1549 C1550 1.397 . S
C1549 C1554 1.363 . S
C1550 H1527 0.950 . S
C1550 C1549 1.397 . S
C1550 C1551 1.334 . S
C1551 H1528 0.950 . S
C1551 C1550 1.334 . S
C1551 C1552 1.287 . S
C1552 C1551 1.287 . S
C1552 C1553 1.524 . S
C1552 H1571 0.913 . S
C1553 H1529 0.950 . S
C1553 C1552 1.524 . S
C1553 C1554 1.415 . S
C1554 H1530 0.950 . S
C1554 C1549 1.363 . S
C1554 C1553 1.415 . S
C1555 H1531 0.951 . S
C1555 C1556 1.366 . S
C1555 C1557 1.388 . S
C1556 C1555 1.366 . S
C1556 C1560 1.385 . S
C1557 H1532 0.951 . S
C1557 C1555 1.388 . S
C1557 C1558 1.366 . S
C1558 C1557 1.366 . S
C1558 C1559 1.414 . S
C1558 C1561 1.499 . S
C1559 H1533 0.950 . S
C1559 C1558 1.414 . S
C1559 C1560 1.374 . S
C1560 H1534 0.950 . S
C1560 C1556 1.385 . S
C1560 C1559 1.374 . S
C1561 C1558 1.499 . S
C1561 C1562 1.373 . S
C1561 C1563 1.389 . S
C1562 H1535 0.950 . S
C1562 C1548 1.377 . S
C1562 C1561 1.373 . S
C1563 C1547 1.377 . S
C1563 C1561 1.389 . S
C1563 C1564 1.524 . S
C1564 C1563 1.524 . S
C1564 C1565 1.397 . S
C1564 C1569 1.363 . S
C1565 H1536 0.950 . S
C1565 C1564 1.397 . S
C1565 C1566 1.334 . S
C1566 H1537 0.950 . S
C1566 C1565 1.334 . S
C1566 C1567 1.287 . S
C1567 C1566 1.287 . S
C1567 C1568 1.524 . S
C1567 H1570 0.999 . S
C1568 H1538 0.950 . S
C1568 C1567 1.524 . S
C1568 C1569 1.415 . S
C1569 H1539 0.950 . S
C1569 C1564 1.363 . S
C1569 C1568 1.415 . S
H1570 C1567 0.999 . S
H1571 C1552 0.913 . S
C391 C1 1.536 . S
C406 C291 1.432 . S
C441 C67 1.518 . S
C456 C325 1.414 . S
C506 C337 1.383 . S
C491 C97 1.487 . S
C541 C133 1.517 . S
C556 C371 1.416 . S
C606 C328 1.424 . S
C591 C25 1.531 . S
C656 C308 1.397 1_565 S
C641 C37 1.508 . S
C706 C355 1.388 . S
C691 C103 1.496 . S
C756 C346 1.407 . S
C741 C109 1.509 . S
C791 C31 1.537 . S
C806 C354 1.432 . S
C856 C316 1.388 . S
C841 C73 1.494 . S
C891 C139 1.521 . S
C906 C292 1.408 . S
C941 C61 1.511 . S
C956 C349 1.405 . S
C1006 C307 1.613 . S
C991 C175 1.731 . S
C1041 C181 1.664 . S
C1056 C329 1.592 . S
C1091 C247 1.748 . S
C1106 C334 1.626 . S
C1141 C277 1.745 . S
C1156 C367 1.633 . S
C1191 C145 1.724 . S
C1206 C312 1.618 . S
C1256 C304 1.632 . S
C1241 C211 1.695 . S
C1306 C358 1.612 . S
C1291 C217 1.728 . S
C1356 C350 1.616 . S
C1341 C283 1.732 . S
C1391 C169 1.703 . S
C1406 C370 1.588 . S
C1456 C313 1.615 . S
C1441 C241 1.739 . S
C1506 C295 1.599 . S
C1491 C253 1.715 . S
C1541 C205 1.674 . S
C1556 C333 1.617 . S
