# Generated by pormake.
# Topology ctn, (3,4)-cn, num edge types: 1
# Building blocks:
#     Node 0, Type 0, BuildingBlock: PAMTOO_clean_linker_0, # of connection points: 3
#     Node 1, Type 0, BuildingBlock: PAMTOO_clean_linker_0, # of connection points: 3
#     Node 2, Type 0, BuildingBlock: PAMTOO_clean_linker_0, # of connection points: 3
#     Node 3, Type 0, BuildingBlock: PAMTOO_clean_linker_0, # of connection points: 3
#     Node 4, Type 0, BuildingBlock: PAMTOO_clean_linker_0, # of connection points: 3
#     Node 5, Type 0, BuildingBlock: PAMTOO_clean_linker_0, # of connection points: 3
#     Node 6, Type 0, BuildingBlock: PAMTOO_clean_linker_0, # of connection points: 3
#     Node 7, Type 0, BuildingBlock: PAMTOO_clean_linker_0, # of connection points: 3
#     Node 8, Type 0, BuildingBlock: PAMTOO_clean_linker_0, # of connection points: 3
#     Node 9, Type 0, BuildingBlock: PAMTOO_clean_linker_0, # of connection points: 3
#     Node 10, Type 0, BuildingBlock: PAMTOO_clean_linker_0, # of connection points: 3
#     Node 11, Type 0, BuildingBlock: PAMTOO_clean_linker_0, # of connection points: 3
#     Node 12, Type 0, BuildingBlock: PAMTOO_clean_linker_0, # of connection points: 3
#     Node 13, Type 0, BuildingBlock: PAMTOO_clean_linker_0, # of connection points: 3
#     Node 14, Type 0, BuildingBlock: PAMTOO_clean_linker_0, # of connection points: 3
#     Node 15, Type 0, BuildingBlock: PAMTOO_clean_linker_0, # of connection points: 3
#     Node 16, Type 1, BuildingBlock: KUFVIS_clean_sbu_0, # of connection points: 4
#     Node 17, Type 1, BuildingBlock: KUFVIS_clean_sbu_0, # of connection points: 4
#     Node 18, Type 1, BuildingBlock: KUFVIS_clean_sbu_0, # of connection points: 4
#     Node 19, Type 1, BuildingBlock: KUFVIS_clean_sbu_0, # of connection points: 4
#     Node 20, Type 1, BuildingBlock: KUFVIS_clean_sbu_0, # of connection points: 4
#     Node 21, Type 1, BuildingBlock: KUFVIS_clean_sbu_0, # of connection points: 4
#     Node 22, Type 1, BuildingBlock: KUFVIS_clean_sbu_0, # of connection points: 4
#     Node 23, Type 1, BuildingBlock: KUFVIS_clean_sbu_0, # of connection points: 4
#     Node 24, Type 1, BuildingBlock: KUFVIS_clean_sbu_0, # of connection points: 4
#     Node 25, Type 1, BuildingBlock: KUFVIS_clean_sbu_0, # of connection points: 4
#     Node 26, Type 1, BuildingBlock: KUFVIS_clean_sbu_0, # of connection points: 4
#     Node 27, Type 1, BuildingBlock: KUFVIS_clean_sbu_0, # of connection points: 4
#     Edge 28, Type (0, 1), BuildingBlock: UVAHIK_clean_linker_0, # of connection points: 2
#     Edge 29, Type (0, 1), BuildingBlock: UVAHIK_clean_linker_0, # of connection points: 2
#     Edge 30, Type (0, 1), BuildingBlock: UVAHIK_clean_linker_0, # of connection points: 2
#     Edge 31, Type (0, 1), BuildingBlock: UVAHIK_clean_linker_0, # of connection points: 2
#     Edge 32, Type (0, 1), BuildingBlock: UVAHIK_clean_linker_0, # of connection points: 2
#     Edge 33, Type (0, 1), BuildingBlock: UVAHIK_clean_linker_0, # of connection points: 2
#     Edge 34, Type (0, 1), BuildingBlock: UVAHIK_clean_linker_0, # of connection points: 2
#     Edge 35, Type (0, 1), BuildingBlock: UVAHIK_clean_linker_0, # of connection points: 2
#     Edge 36, Type (0, 1), BuildingBlock: UVAHIK_clean_linker_0, # of connection points: 2
#     Edge 37, Type (0, 1), BuildingBlock: UVAHIK_clean_linker_0, # of connection points: 2
#     Edge 38, Type (0, 1), BuildingBlock: UVAHIK_clean_linker_0, # of connection points: 2
#     Edge 39, Type (0, 1), BuildingBlock: UVAHIK_clean_linker_0, # of connection points: 2
#     Edge 40, Type (0, 1), BuildingBlock: UVAHIK_clean_linker_0, # of connection points: 2
#     Edge 41, Type (0, 1), BuildingBlock: UVAHIK_clean_linker_0, # of connection points: 2
#     Edge 42, Type (0, 1), BuildingBlock: UVAHIK_clean_linker_0, # of connection points: 2
#     Edge 43, Type (0, 1), BuildingBlock: UVAHIK_clean_linker_0, # of connection points: 2
#     Edge 44, Type (0, 1), BuildingBlock: UVAHIK_clean_linker_0, # of connection points: 2
#     Edge 45, Type (0, 1), BuildingBlock: UVAHIK_clean_linker_0, # of connection points: 2
#     Edge 46, Type (0, 1), BuildingBlock: UVAHIK_clean_linker_0, # of connection points: 2
#     Edge 47, Type (0, 1), BuildingBlock: UVAHIK_clean_linker_0, # of connection points: 2
#     Edge 48, Type (0, 1), BuildingBlock: UVAHIK_clean_linker_0, # of connection points: 2
#     Edge 49, Type (0, 1), BuildingBlock: UVAHIK_clean_linker_0, # of connection points: 2
#     Edge 50, Type (0, 1), BuildingBlock: UVAHIK_clean_linker_0, # of connection points: 2
#     Edge 51, Type (0, 1), BuildingBlock: UVAHIK_clean_linker_0, # of connection points: 2
#     Edge 52, Type (0, 1), BuildingBlock: UVAHIK_clean_linker_0, # of connection points: 2
#     Edge 53, Type (0, 1), BuildingBlock: UVAHIK_clean_linker_0, # of connection points: 2
#     Edge 54, Type (0, 1), BuildingBlock: UVAHIK_clean_linker_0, # of connection points: 2
#     Edge 55, Type (0, 1), BuildingBlock: UVAHIK_clean_linker_0, # of connection points: 2
#     Edge 56, Type (0, 1), BuildingBlock: UVAHIK_clean_linker_0, # of connection points: 2
#     Edge 57, Type (0, 1), BuildingBlock: UVAHIK_clean_linker_0, # of connection points: 2
#     Edge 58, Type (0, 1), BuildingBlock: UVAHIK_clean_linker_0, # of connection points: 2
#     Edge 59, Type (0, 1), BuildingBlock: UVAHIK_clean_linker_0, # of connection points: 2
#     Edge 60, Type (0, 1), BuildingBlock: UVAHIK_clean_linker_0, # of connection points: 2
#     Edge 61, Type (0, 1), BuildingBlock: UVAHIK_clean_linker_0, # of connection points: 2
#     Edge 62, Type (0, 1), BuildingBlock: UVAHIK_clean_linker_0, # of connection points: 2
#     Edge 63, Type (0, 1), BuildingBlock: UVAHIK_clean_linker_0, # of connection points: 2
#     Edge 64, Type (0, 1), BuildingBlock: UVAHIK_clean_linker_0, # of connection points: 2
#     Edge 65, Type (0, 1), BuildingBlock: UVAHIK_clean_linker_0, # of connection points: 2
#     Edge 66, Type (0, 1), BuildingBlock: UVAHIK_clean_linker_0, # of connection points: 2
#     Edge 67, Type (0, 1), BuildingBlock: UVAHIK_clean_linker_0, # of connection points: 2
#     Edge 68, Type (0, 1), BuildingBlock: UVAHIK_clean_linker_0, # of connection points: 2
#     Edge 69, Type (0, 1), BuildingBlock: UVAHIK_clean_linker_0, # of connection points: 2
#     Edge 70, Type (0, 1), BuildingBlock: UVAHIK_clean_linker_0, # of connection points: 2
#     Edge 71, Type (0, 1), BuildingBlock: UVAHIK_clean_linker_0, # of connection points: 2
#     Edge 72, Type (0, 1), BuildingBlock: UVAHIK_clean_linker_0, # of connection points: 2
#     Edge 73, Type (0, 1), BuildingBlock: UVAHIK_clean_linker_0, # of connection points: 2
#     Edge 74, Type (0, 1), BuildingBlock: UVAHIK_clean_linker_0, # of connection points: 2
#     Edge 75, Type (0, 1), BuildingBlock: UVAHIK_clean_linker_0, # of connection points: 2
# Relax obj value: 0.073
# Max RMSD: 0.179
# Mean RMSD: 0.122
data_MOF--net-ctn--node1-KUFVIS_clean_sbu_0--node2-PAMTOO_clean_linker_0--edge1-UVAHIK_clean_linker_0
_symmetry_space_group_name_H-M    P1
_symmetry_Int_Tables_number       1
_symmetry_cell_setting            triclinic
loop_
_symmetry_equiv_pos_as_xyz
'x, y, z'
_cell_length_a     68.934273
_cell_length_b     69.290566
_cell_length_c     70.676656
_cell_angle_alpha  86.013024
_cell_angle_beta   92.359177
_cell_angle_gamma 98.584333
loop_
_atom_site_label
_atom_site_type_symbol
_atom_site_fract_x
_atom_site_fract_y
_atom_site_fract_z
_atom_type_partial_charge
H0 H 0.01721 0.07395 0.05486 0.0
H1 H 0.05043 0.0263 0.06697 0.0
H2 H 0.05918 0.06215 0.01531 0.0
H3 H 0.05618 0.01983 0.01175 0.0
C4 C 0.06402 0.01575 0.02518 0.0
O5 O 0.06945 0.03205 0.03541 0.0
H6 H 0.05378 0.00472 0.03351 0.0
C7 C 0.02815 0.06536 0.05095 0.0
C8 C 0.03771 0.07019 0.03369 0.0
C9 C 0.03252 0.04956 0.06316 0.0
C10 C 0.04665 0.03846 0.0578 0.0
C11 C 0.05613 0.04301 0.04056 0.0
C12 C 0.05179 0.0589 0.02864 0.0
H13 H 0.33309 0.67121 0.22809 0.0
H14 H 0.30146 0.68964 0.17788 0.0
H15 H 0.34924 0.72868 0.20079 0.0
H16 H 0.31211 0.74469 0.19065 0.0
C17 C 0.30815 0.7372 0.17728 0.0
O18 O 0.32151 0.72471 0.17464 0.0
H19 H 0.29319 0.72869 0.1785 0.0
C20 C 0.33124 0.68204 0.2166 0.0
C21 C 0.34334 0.70031 0.21613 0.0
C22 C 0.31606 0.67799 0.2029 0.0
C23 C 0.3131 0.69242 0.18856 0.0
C24 C 0.32495 0.71066 0.18803 0.0
C25 C 0.3401 0.71452 0.20162 0.0
H26 H 0.97709 0.51032 0.08819 0.0
H27 H 0.95762 0.48078 0.03758 0.0
H28 H 1.00133 0.45933 0.07441 0.0
H29 H 0.00997 0.46473 0.0335 0.0
C30 C 0.99512 0.45902 0.02766 0.0
O31 O 0.98205 0.45539 0.04224 0.0
H32 H 0.99038 0.47027 0.01721 0.0
C33 C 0.97746 0.49842 0.07913 0.0
C34 C 0.9905 0.48482 0.0838 0.0
C35 C 0.96526 0.49714 0.06261 0.0
C36 C 0.96683 0.48232 0.05033 0.0
C37 C 0.9802 0.46915 0.05445 0.0
C38 C 0.99165 0.47016 0.07125 0.0
H39 H 0.68632 0.84263 0.22724 0.0
H40 H 0.66902 0.78545 0.20667 0.0
H41 H 0.72021 0.82183 0.18504 0.0
H42 H 0.68713 0.80181 0.15802 0.0
C43 C 0.68784 0.78694 0.16488 0.0
O44 O 0.69733 0.7885 0.18242 0.0
H45 H 0.67259 0.77936 0.16676 0.0
C46 C 0.6887 0.83147 0.21794 0.0
C47 C 0.70509 0.8345 0.20631 0.0
C48 C 0.67574 0.81381 0.21833 0.0
C49 C 0.67886 0.79921 0.20647 0.0
C50 C 0.69456 0.80244 0.19409 0.0
C51 C 0.70768 0.81995 0.19411 0.0
H52 H 0.07715 0.9737 0.51732 0.0
H53 H 0.02608 0.9577 0.48111 0.0
H54 H 0.06701 0.00875 0.46629 0.0
H55 H 0.02478 0.01327 0.46299 0.0
C56 C 0.0189 0.99892 0.45725 0.0
O57 O 0.03384 0.98773 0.45685 0.0
H58 H 0.0072 0.99132 0.46663 0.0
C59 C 0.06814 0.97637 0.50476 0.0
C60 C 0.07426 0.99254 0.49222 0.0
C61 C 0.05087 0.9634 0.50092 0.0
C62 C 0.03931 0.96746 0.48464 0.0
C63 C 0.04501 0.98396 0.47243 0.0
C64 C 0.06257 0.99626 0.47606 0.0
H65 H 0.187 0.74017 0.81774 0.0
H66 H 0.20621 0.69354 0.78959 0.0
H67 H 0.23929 0.71694 0.83765 0.0
H68 H 0.26235 0.71017 0.80501 0.0
C69 C 0.25311 0.69685 0.79988 0.0
O70 O 0.23739 0.69162 0.81162 0.0
H71 H 0.24769 0.70024 0.78516 0.0
C72 C 0.19748 0.73016 0.81646 0.0
C73 C 0.21342 0.73024 0.82953 0.0
C74 C 0.19466 0.71698 0.80202 0.0
C75 C 0.20796 0.70363 0.80079 0.0
C76 C 0.22408 0.70378 0.81354 0.0
C77 C 0.22668 0.7169 0.82797 0.0
H78 H 0.9598 0.56357 0.51163 0.0
H79 H 0.97797 0.5243 0.47335 0.0
H80 H 0.01609 0.57675 0.48572 0.0
H81 H 0.01223 0.56844 0.44511 0.0
C82 C 0.00951 0.55217 0.44665 0.0
O83 O 0.01106 0.54602 0.46557 0.0
H84 H 0.99439 0.54734 0.44096 0.0
C85 C 0.97058 0.55964 0.50245 0.0
C86 C 0.98858 0.57206 0.50032 0.0
C87 C 0.96637 0.54233 0.49278 0.0
C88 C 0.98058 0.53759 0.48085 0.0
C89 C 0.99826 0.55011 0.47817 0.0
C90 C 1.00236 0.56716 0.48803 0.0
H91 H 0.80426 0.83327 0.85953 0.0
H92 H 0.84907 0.80564 0.83575 0.0
H93 H 0.8205 0.84696 0.80145 0.0
H94 H 0.83011 0.817 0.779 0.0
C95 C 0.84069 0.81067 0.78903 0.0
O96 O 0.84728 0.82388 0.80246 0.0
H97 H 0.83284 0.79693 0.79596 0.0
C98 C 0.81328 0.83131 0.84782 0.0
C99 C 0.81054 0.84152 0.83024 0.0
C100 C 0.82714 0.81819 0.85014 0.0
C101 C 0.83863 0.81592 0.83463 0.0
C102 C 0.83629 0.82638 0.81725 0.0
C103 C 0.82231 0.83912 0.81507 0.0
H104 H 0.3023 0.32559 0.35709 0.0
H105 H 0.35123 0.30617 0.33194 0.0
H106 H 0.32324 0.35129 0.30293 0.0
H107 H 0.33617 0.32785 0.27532 0.0
C108 C 0.34475 0.31896 0.28525 0.0
O109 O 0.3504 0.32917 0.30114 0.0
H110 H 0.33501 0.30502 0.28913 0.0
C111 C 0.31263 0.32692 0.34576 0.0
C112 C 0.31068 0.34005 0.32988 0.0
C113 C 0.32729 0.31473 0.34674 0.0
C114 C 0.33997 0.31558 0.33156 0.0
C115 C 0.33836 0.3287 0.31584 0.0
C116 C 0.32403 0.34109 0.31516 0.0
H117 H 0.47529 0.00697 0.58428 0.0
H118 H 0.46059 0.98249 0.53019 0.0
H119 H 0.50224 0.95863 0.56785 0.0
H120 H 0.51239 0.96545 0.52748 0.0
C121 C 0.49774 0.9601 0.521 0.0
O122 O 0.48405 0.95619 0.53503 0.0
H123 H 0.4935 0.97168 0.51064 0.0
C124 C 0.47708 0.99646 0.5741 0.0
C125 C 0.49044 0.98308 0.57829 0.0
C126 C 0.46595 0.99637 0.55689 0.0
C127 C 0.46859 0.98273 0.5437 0.0
C128 C 0.48181 0.96938 0.54769 0.0
C129 C 0.49248 0.96943 0.56494 0.0
H130 H 0.18903 0.33964 0.73293 0.0
H131 H 0.17057 0.2824 0.71289 0.0
H132 H 0.22223 0.31769 0.6909 0.0
H133 H 0.18772 0.29791 0.66457 0.0
C134 C 0.18923 0.28308 0.67111 0.0
O135 O 0.1988 0.28464 0.68862 0.0
H136 H 0.17427 0.2748 0.67301 0.0
C137 C 0.19115 0.32828 0.72375 0.0
C138 C 0.20749 0.33088 0.71207 0.0
C139 C 0.17787 0.31084 0.72428 0.0
C140 C 0.18067 0.29599 0.71258 0.0
C141 C 0.19636 0.29878 0.70019 0.0
C142 C 0.20977 0.31611 0.70002 0.0
H143 H 0.83863 0.17193 0.72971 0.0
H144 H 0.80276 0.18718 0.68121 0.0
H145 H 0.85437 0.22607 0.69635 0.0
H146 H 0.81644 0.24185 0.68921 0.0
C147 C 0.81149 0.23414 0.67615 0.0
O148 O 0.82399 0.2209 0.67314 0.0
H149 H 0.79638 0.22623 0.6782 0.0
C150 C 0.83595 0.18178 0.71762 0.0
C151 C 0.84873 0.19946 0.71454 0.0
C152 C 0.81927 0.17709 0.70573 0.0
C153 C 0.81578 0.19013 0.69027 0.0
C154 C 0.82837 0.20776 0.68708 0.0
C155 C 0.84486 0.21231 0.69903 0.0
H156 H 0.51861 0.57574 0.55704 0.0
H157 H 0.54747 0.52505 0.56772 0.0
H158 H 0.56204 0.5638 0.51883 0.0
H159 H 0.55632 0.52157 0.51247 0.0
C160 C 0.56294 0.51616 0.52609 0.0
O161 O 0.56869 0.53154 0.53743 0.0
H162 H 0.55158 0.50533 0.53329 0.0
C163 C 0.52941 0.56701 0.5531 0.0
C164 C 0.53995 0.57217 0.53639 0.0
C165 C 0.5321 0.55016 0.56452 0.0
C166 C 0.54529 0.53815 0.55908 0.0
C167 C 0.55591 0.54309 0.54255 0.0
C168 C 0.5534 0.5601 0.53137 0.0
H169 H 0.57812 0.47208 0.01702 0.0
H170 H 0.52603 0.45725 0.98201 0.0
H171 H 0.56935 0.50508 0.96426 0.0
H172 H 0.5308 0.51431 0.9596 0.0
C173 C 0.52231 0.49988 0.95643 0.0
O174 O 0.53482 0.48604 0.95662 0.0
H175 H 0.5112 0.49546 0.9675 0.0
C176 C 0.56949 0.47444 0.00415 0.0
C177 C 0.5763 0.48987 0.99097 0.0
C178 C 0.55156 0.4622 1.00105 0.0
C179 C 0.53985 0.46637 0.98492 0.0
C180 C 0.54617 0.4821 0.97203 0.0
C181 C 0.56446 0.49349 0.97483 0.0
H182 H 0.68724 0.23491 0.31984 0.0
H183 H 0.71048 0.19154 0.29044 0.0
H184 H 0.74126 0.2148 0.33971 0.0
H185 H 0.76663 0.20894 0.30772 0.0
C186 C 0.75728 0.19613 0.30177 0.0
O187 O 0.74133 0.19045 0.31312 0.0
H188 H 0.75219 0.20042 0.28715 0.0
C189 C 0.69829 0.22546 0.31879 0.0
C190 C 0.71435 0.22647 0.33181 0.0
C191 C 0.6968 0.21299 0.3038 0.0
C192 C 0.71145 0.20127 0.30191 0.0
C193 C 0.72743 0.20201 0.31486 0.0
C194 C 0.72887 0.21453 0.32974 0.0
H195 H 0.46394 0.0609 0.01276 0.0
H196 H 0.48397 0.02387 0.97365 0.0
H197 H 0.5235 0.07248 0.99381 0.0
H198 H 0.53012 0.06764 0.95412 0.0
C199 C 0.52151 0.05282 0.95304 0.0
O200 O 0.51921 0.04382 0.97101 0.0
H201 H 0.50699 0.05475 0.94623 0.0
C202 C 0.47562 0.05718 0.00452 0.0
C203 C 0.49427 0.06862 0.00499 0.0
C204 C 0.47186 0.04095 0.99342 0.0
C205 C 0.48679 0.03621 0.98249 0.0
C206 C 0.50526 0.04779 0.98244 0.0
C207 C 0.50905 0.06382 0.9938 0.0
Mn208 Mn 0.25361 0.88863 0.99723 0.0
Mn209 Mn 0.25345 0.90922 0.95255 0.0
C210 C 0.23935 0.87071 0.97264 0.0
C211 C 0.2683 0.87169 0.02211 0.0
C212 C 0.22664 0.91815 0.98274 0.0
O213 O 0.27501 0.91212 0.9985 0.0
O214 O 0.27488 0.92396 0.9679 0.0
C215 C 0.29158 0.90027 0.94049 0.0
N216 N 0.27174 0.89882 0.93796 0.0
C217 C 0.27218 0.87993 0.91069 0.0
C218 C 0.29264 0.88134 0.91294 0.0
C219 C 0.30237 0.89153 0.92792 0.0
C220 C 0.26223 0.88908 0.92357 0.0
H221 H 0.29913 0.90798 0.95205 0.0
C222 C 0.28182 0.92416 0.98503 0.0
O223 O 0.25546 0.88296 0.02514 0.0
O224 O 0.27291 0.87056 0.00464 0.0
N225 N 0.23363 0.896 0.93631 0.0
C226 C 0.21376 0.89494 0.93683 0.0
C227 C 0.2018 0.88468 0.92317 0.0
C228 C 0.21037 0.87566 0.90911 0.0
C229 C 0.23086 0.87704 0.9088 0.0
C230 C 0.24204 0.88762 0.92267 0.0
H231 H 0.20707 0.90175 0.94767 0.0
O232 O 0.23408 0.86577 0.98994 0.0
O233 O 0.25251 0.8861 0.97034 0.0
O234 O 0.23238 0.90638 0.9957 0.0
O235 O 0.23378 0.9206 0.9662 0.0
C236 C 0.24059 0.86798 0.89551 0.0
C237 C 0.26124 0.86943 0.89646 0.0
H238 H 0.30099 0.87449 0.90337 0.0
H239 H 0.31814 0.89259 0.92981 0.0
H240 H 0.18599 0.88363 0.92355 0.0
H241 H 0.20109 0.86756 0.89874 0.0
H242 H 0.23232 0.85961 0.88469 0.0
H243 H 0.26853 0.86216 0.88634 0.0
Mn244 Mn 0.15297 0.49336 0.27434 0.0
Mn245 Mn 0.14462 0.54013 0.26749 0.0
C246 C 0.17327 0.51553 0.25528 0.0
C247 C 0.16809 0.46958 0.29179 0.0
C248 C 0.12024 0.50627 0.24836 0.0
O249 O 0.13453 0.49606 0.2957 0.0
O250 O 0.133 0.5284 0.29161 0.0
C251 C 0.16895 0.55708 0.29947 0.0
N252 N 0.16441 0.55705 0.28053 0.0
C253 C 0.18936 0.58462 0.27385 0.0
C254 C 0.19414 0.5851 0.29331 0.0
C255 C 0.18393 0.57122 0.30616 0.0
C256 C 0.17425 0.57023 0.26803 0.0
H257 H 0.16127 0.54633 0.30937 0.0
C258 C 0.12922 0.51177 0.30086 0.0
O259 O 0.15256 0.46482 0.28111 0.0
O260 O 0.17418 0.48809 0.29297 0.0
N261 N 0.15546 0.55324 0.24471 0.0
C262 C 0.14994 0.55 0.22634 0.0
C263 C 0.15918 0.56223 0.21165 0.0
C264 C 0.17391 0.57772 0.216 0.0
C265 C 0.17927 0.58085 0.23502 0.0
C266 C 0.16945 0.56827 0.24906 0.0
H267 H 0.13859 0.53816 0.22289 0.0
O268 O 0.17248 0.4969 0.25362 0.0
O269 O 0.16227 0.5205 0.26802 0.0
O270 O 0.13032 0.49305 0.25464 0.0
O271 O 0.12375 0.52398 0.25304 0.0
C272 C 0.19422 0.59573 0.24058 0.0
C273 C 0.1993 0.59758 0.25998 0.0
H274 H 0.20576 0.59591 0.29852 0.0
H275 H 0.18765 0.57138 0.32118 0.0
H276 H 0.15498 0.5597 0.19701 0.0
H277 H 0.18108 0.58704 0.20463 0.0
H278 H 0.20211 0.60565 0.23004 0.0
H279 H 0.21106 0.60886 0.26405 0.0
Mn280 Mn 0.78801 0.63719 0.02356 0.0
Mn281 Mn 0.75131 0.65161 0.9956 0.0
C282 C 0.75832 0.61667 0.02102 0.0
C283 C 0.81653 0.62259 0.02678 0.0
C284 C 0.76319 0.66727 0.03425 0.0
O285 O 0.80157 0.66063 0.00736 0.0
O286 O 0.77684 0.66519 0.98632 0.0
C287 C 0.75921 0.63507 0.95967 0.0
N288 N 0.7467 0.63674 0.97368 0.0
C289 C 0.72016 0.61691 0.95782 0.0
C290 C 0.7327 0.61513 0.94311 0.0
C291 C 0.75234 0.62414 0.94411 0.0
C292 C 0.72788 0.62785 0.97303 0.0
H293 H 0.77428 0.64202 0.9604 0.0
C294 C 0.79473 0.66876 0.99225 0.0
O295 O 0.81263 0.6347 0.03883 0.0
O296 O 0.80413 0.61937 0.01264 0.0
N297 N 0.72566 0.63952 0.00283 0.0
C298 C 0.71581 0.6417 0.0187 0.0
C299 C 0.69617 0.63293 0.0203 0.0
C300 C 0.68676 0.62232 0.00545 0.0
C301 C 0.6971 0.62052 0.98915 0.0
C302 C 0.71668 0.62944 0.98842 0.0
H303 H 0.72287 0.65005 0.03006 0.0
O304 O 0.77048 0.61403 0.03512 0.0
O305 O 0.76411 0.63084 0.00861 0.0
O306 O 0.7755 0.65566 0.03915 0.0
O307 O 0.75444 0.66763 0.01795 0.0
C308 C 0.6888 0.6101 0.97366 0.0
C309 C 0.70036 0.60814 0.95807 0.0
H310 H 0.72744 0.60675 0.93107 0.0
H311 H 0.76215 0.62273 0.93288 0.0
H312 H 0.68828 0.63442 0.03292 0.0
H313 H 0.67161 0.61557 0.00673 0.0
H314 H 0.67362 0.60322 0.97373 0.0
H315 H 0.69392 0.59972 0.94644 0.0
Mn316 Mn 0.88169 0.01808 0.25156 0.0
Mn317 Mn 0.89201 0.97183 0.25337 0.0
C318 C 0.86005 0.99359 0.23806 0.0
C319 C 0.86809 0.04292 0.26449 0.0
C320 C 0.91126 0.00422 0.2263 0.0
O321 O 0.903 0.01824 0.2725 0.0
O322 O 0.90755 0.98665 0.27333 0.0
C323 C 0.87544 0.95784 0.2907 0.0
N324 N 0.8761 0.95595 0.2717 0.0
C325 C 0.85273 0.92645 0.27363 0.0
C326 C 0.85185 0.92802 0.29324 0.0
C327 C 0.86319 0.94384 0.30179 0.0
C328 C 0.86507 0.94093 0.26329 0.0
H329 H 0.88421 0.96991 0.29734 0.0
C330 C 0.91115 0.00382 0.27949 0.0
O331 O 0.8819 0.0468 0.25226 0.0
O332 O 0.86257 0.02463 0.2696 0.0
N333 N 0.87784 0.95571 0.23499 0.0
C334 C 0.8797 0.9568 0.21581 0.0
C335 C 0.86892 0.94235 0.20503 0.0
C336 C 0.85658 0.92679 0.21411 0.0
C337 C 0.85509 0.92585 0.23388 0.0
C338 C 0.8661 0.94072 0.24387 0.0
H339 H 0.88928 0.96865 0.20877 0.0
O340 O 0.85965 0.01179 0.23252 0.0
O341 O 0.87301 0.99032 0.25127 0.0
O342 O 0.90206 0.01758 0.23136 0.0
O343 O 0.90878 0.98677 0.23381 0.0
C344 C 0.84304 0.9108 0.24407 0.0
C345 C 0.84176 0.91116 0.26392 0.0
H346 H 0.84247 0.91722 0.30186 0.0
H347 H 0.86255 0.94519 0.31691 0.0
H348 H 0.87016 0.94318 0.18978 0.0
H349 H 0.84826 0.91569 0.20575 0.0
H350 H 0.83443 0.89904 0.23675 0.0
H351 H 0.83217 0.89968 0.27155 0.0
Mn352 Mn 0.28792 0.13685 0.52514 0.0
Mn353 Mn 0.25088 0.15265 0.49858 0.0
C354 C 0.25743 0.11752 0.52385 0.0
C355 C 0.3156 0.1209 0.52729 0.0
C356 C 0.26501 0.16822 0.53674 0.0
O357 O 0.30173 0.15946 0.50812 0.0
O358 O 0.27633 0.16543 0.48844 0.0
C359 C 0.2567 0.13582 0.46222 0.0
N360 N 0.24493 0.13783 0.47674 0.0
C361 C 0.21726 0.11876 0.46171 0.0
C362 C 0.22905 0.1166 0.44652 0.0
C363 C 0.24889 0.12507 0.44683 0.0
C364 C 0.22592 0.12948 0.47673 0.0
H365 H 0.27192 0.1424 0.46239 0.0
C366 C 0.29453 0.16803 0.49347 0.0
O367 O 0.31305 0.1336 0.53929 0.0
O368 O 0.30233 0.11784 0.51386 0.0
N369 N 0.22528 0.14135 0.50666 0.0
C370 C 0.21622 0.14388 0.5229 0.0
C371 C 0.19649 0.13569 0.52516 0.0
C372 C 0.18619 0.12531 0.51059 0.0
C373 C 0.19575 0.12313 0.49391 0.0
C374 C 0.21547 0.13146 0.49253 0.0
H375 H 0.22396 0.15207 0.53404 0.0
O376 O 0.26993 0.11456 0.53759 0.0
O377 O 0.2633 0.13136 0.51114 0.0
O378 O 0.2772 0.15632 0.54105 0.0
O379 O 0.25542 0.16865 0.52088 0.0
C380 C 0.18653 0.11292 0.47865 0.0
C381 C 0.19732 0.1106 0.46263 0.0
H382 H 0.22306 0.10838 0.43459 0.0
H383 H 0.25811 0.1234 0.4352 0.0
H384 H 0.1892 0.13747 0.53807 0.0
H385 H 0.17097 0.11902 0.51238 0.0
H386 H 0.17124 0.10648 0.47925 0.0
H387 H 0.19016 0.10236 0.45116 0.0
Mn388 Mn 0.37999 0.51952 0.75291 0.0
Mn389 Mn 0.39292 0.4742 0.75567 0.0
C390 C 0.35931 0.49378 0.74041 0.0
C391 C 0.36558 0.54415 0.76526 0.0
C392 C 0.41002 0.50652 0.72754 0.0
O393 O 0.40171 0.52128 0.77354 0.0
O394 O 0.40827 0.49025 0.77484 0.0
C395 C 0.37764 0.46059 0.79358 0.0
N396 N 0.37807 0.45817 0.77466 0.0
C397 C 0.35596 0.42787 0.77775 0.0
C398 C 0.35535 0.42997 0.7973 0.0
C399 C 0.36617 0.44645 0.80523 0.0
C400 C 0.36754 0.4425 0.76684 0.0
H401 H 0.386 0.47319 0.79974 0.0
C402 C 0.411 0.50765 0.78048 0.0
O403 O 0.37907 0.54807 0.75273 0.0
O404 O 0.36075 0.52591 0.771 0.0
N405 N 0.37915 0.45696 0.73799 0.0
C406 C 0.38068 0.45756 0.71879 0.0
C407 C 0.37035 0.44239 0.70859 0.0
C408 C 0.35881 0.42663 0.71825 0.0
C409 C 0.35769 0.42621 0.73804 0.0
C410 C 0.36824 0.44178 0.74744 0.0
H411 H 0.38967 0.46955 0.71131 0.0
O412 O 0.35787 0.51168 0.73445 0.0
O413 O 0.37272 0.49151 0.75349 0.0
O414 O 0.40002 0.51935 0.73233 0.0
O415 O 0.40875 0.48931 0.73553 0.0
C416 C 0.34643 0.41101 0.74881 0.0
C417 C 0.34545 0.4119 0.76863 0.0
H418 H 0.34656 0.41907 0.80633 0.0
H419 H 0.36572 0.44821 0.82029 0.0
H420 H 0.37131 0.44281 0.69332 0.0
H421 H 0.35082 0.41498 0.71034 0.0
H422 H 0.3382 0.39872 0.74194 0.0
H423 H 0.33645 0.4003 0.7767 0.0
Mn424 Mn 0.75117 0.38582 0.49837 0.0
Mn425 Mn 0.75148 0.40867 0.45462 0.0
C426 C 0.73739 0.36915 0.47278 0.0
C427 C 0.76584 0.36795 0.52259 0.0
C428 C 0.72403 0.41559 0.48508 0.0
O429 O 0.7723 0.40937 0.50096 0.0
O430 O 0.7725 0.42276 0.47089 0.0
C431 C 0.79002 0.40099 0.44236 0.0
N432 N 0.77019 0.39944 0.43959 0.0
C433 C 0.77136 0.38274 0.41102 0.0
C434 C 0.79181 0.38426 0.4135 0.0
C435 C 0.80116 0.39339 0.42926 0.0
C436 C 0.76104 0.39069 0.42448 0.0
H437 H 0.79727 0.40793 0.45448 0.0
C438 C 0.77915 0.42216 0.48812 0.0
O439 O 0.75274 0.37878 0.52607 0.0
O440 O 0.77065 0.36774 0.50504 0.0
N441 N 0.73206 0.39622 0.43752 0.0
C442 C 0.71215 0.39478 0.4379 0.0
C443 C 0.70053 0.38537 0.4235 0.0
C444 C 0.70949 0.37763 0.40883 0.0
C445 C 0.73001 0.37938 0.40869 0.0
C446 C 0.74084 0.38901 0.42336 0.0
H447 H 0.70517 0.40065 0.44916 0.0
O448 O 0.73197 0.36327 0.48987 0.0
O449 O 0.75049 0.38469 0.47127 0.0
O450 O 0.72969 0.40329 0.49756 0.0
O451 O 0.73143 0.41895 0.4687 0.0
C452 C 0.74013 0.37164 0.39477 0.0
C453 C 0.76079 0.3733 0.39594 0.0
H454 H 0.80045 0.37831 0.40349 0.0
H455 H 0.81693 0.39454 0.43132 0.0
H456 H 0.68469 0.38403 0.42373 0.0
H457 H 0.70047 0.37024 0.39783 0.0
H458 H 0.73215 0.36411 0.38326 0.0
H459 H 0.76838 0.36701 0.38531 0.0
Mn460 Mn 0.64836 0.99194 0.77294 0.0
Mn461 Mn 0.63506 0.03709 0.76988 0.0
C462 C 0.66784 0.01782 0.75743 0.0
C463 C 0.66467 0.96782 0.78833 0.0
C464 C 0.61623 0.00462 0.74563 0.0
O465 O 0.62805 0.98992 0.79357 0.0
O466 O 0.62142 0.02095 0.79097 0.0
C467 C 0.65304 0.05098 0.80616 0.0
N468 N 0.65118 0.05329 0.78691 0.0
C469 C 0.67352 0.08352 0.78623 0.0
C470 C 0.6756 0.08152 0.80606 0.0
C471 C 0.66537 0.06515 0.81606 0.0
C472 C 0.66107 0.06891 0.77714 0.0
H473 H 0.64516 0.03843 0.81388 0.0
C474 C 0.6192 0.00354 0.79876 0.0
O475 O 0.65024 0.9635 0.77624 0.0
O476 O 0.66904 0.98605 0.79211 0.0
N477 N 0.64731 0.05432 0.75008 0.0
C478 C 0.64446 0.05354 0.73093 0.0
C479 C 0.6541 0.06856 0.71884 0.0
C480 C 0.66636 0.08432 0.72654 0.0
C481 C 0.66888 0.08491 0.74629 0.0
C482 C 0.65892 0.06952 0.75764 0.0
H483 H 0.63496 0.04151 0.72494 0.0
O484 O 0.66905 0.99997 0.75374 0.0
O485 O 0.65532 0.01999 0.77007 0.0
O486 O 0.62682 0.99185 0.75199 0.0
O487 O 0.61787 0.02178 0.75158 0.0
C488 C 0.68105 0.10006 0.75516 0.0
C489 C 0.68347 0.09931 0.77511 0.0
H490 H 0.6851 0.09241 0.81375 0.0
H491 H 0.66696 0.06347 0.83135 0.0
H492 H 0.65207 0.068 0.70361 0.0
H493 H 0.67384 0.09583 0.71717 0.0
H494 H 0.68887 0.1122 0.74675 0.0
H495 H 0.69314 0.11087 0.78174 0.0
Mn496 Mn 0.01019 0.26955 0.88639 0.0
Mn497 Mn 0.96276 0.26076 0.89879 0.0
C498 C 0.98667 0.25242 0.86717 0.0
C499 C 0.03679 0.28727 0.87059 0.0
C500 C 0.99385 0.23815 0.91667 0.0
O501 O 0.0093 0.28974 0.90599 0.0
O502 O 0.97724 0.28263 0.91284 0.0
C503 C 0.95044 0.29788 0.8829 0.0
N504 N 0.94817 0.27798 0.8838 0.0
C505 C 0.92071 0.27651 0.86152 0.0
C506 C 0.92269 0.29699 0.86043 0.0
C507 C 0.93765 0.30771 0.87114 0.0
C508 C 0.93386 0.26751 0.87351 0.0
H509 H 0.96192 0.3062 0.89109 0.0
C510 C 0.9943 0.2927 0.91488 0.0
O511 O 0.03918 0.27516 0.88504 0.0
O512 O 0.01894 0.29024 0.86622 0.0
N513 N 0.94709 0.24017 0.88596 0.0
C514 C 0.94782 0.22058 0.88783 0.0
C515 C 0.93418 0.20781 0.87761 0.0
C516 C 0.91986 0.21528 0.86573 0.0
C517 C 0.91928 0.23547 0.86419 0.0
C518 C 0.93323 0.24748 0.87473 0.0
H519 H 0.9588 0.21474 0.89694 0.0
O520 O 0.00495 0.25016 0.86643 0.0
O521 O 0.98264 0.26439 0.87929 0.0
O522 O 0.00796 0.24751 0.90721 0.0
O523 O 0.97627 0.24188 0.91473 0.0
C524 C 0.9056 0.24417 0.85239 0.0
C525 C 0.90636 0.26468 0.85099 0.0
H526 H 0.9129 0.30463 0.85134 0.0
H527 H 0.93933 0.32353 0.87032 0.0
H528 H 0.93474 0.19224 0.87887 0.0
H529 H 0.90944 0.2054 0.85779 0.0
H530 H 0.8946 0.23524 0.84412 0.0
H531 H 0.89595 0.27121 0.84163 0.0
Mn532 Mn 0.5111 0.76729 0.38343 0.0
Mn533 Mn 0.46406 0.75878 0.39709 0.0
C534 C 0.48707 0.75017 0.36478 0.0
C535 C 0.53721 0.78521 0.36709 0.0
C536 C 0.49563 0.73638 0.41436 0.0
O537 O 0.51075 0.78744 0.40322 0.0
O538 O 0.47867 0.78121 0.41022 0.0
C539 C 0.45089 0.79527 0.38054 0.0
N540 N 0.44889 0.77537 0.38195 0.0
C541 C 0.4213 0.77296 0.35979 0.0
C542 C 0.423 0.79342 0.3582 0.0
C543 C 0.43788 0.80462 0.3686 0.0
C544 C 0.4346 0.76445 0.37203 0.0
H545 H 0.46236 0.80394 0.38843 0.0
C546 C 0.49591 0.79099 0.412 0.0
O547 O 0.54002 0.77299 0.38133 0.0
O548 O 0.51925 0.78813 0.36322 0.0
N549 N 0.44834 0.73763 0.38506 0.0
C550 C 0.4494 0.71812 0.38736 0.0
C551 C 0.4359 0.70492 0.37747 0.0
C552 C 0.42142 0.71189 0.36541 0.0
C553 C 0.42052 0.73201 0.3634 0.0
C554 C 0.43426 0.74446 0.37374 0.0
H555 H 0.46054 0.71268 0.39655 0.0
O556 O 0.50531 0.74801 0.36342 0.0
O557 O 0.48343 0.76211 0.37711 0.0
O558 O 0.50935 0.74508 0.40401 0.0
O559 O 0.47819 0.74059 0.41333 0.0
C560 C 0.4068 0.74023 0.35123 0.0
C561 C 0.40719 0.76069 0.34942 0.0
H562 H 0.41308 0.8007 0.3489 0.0
H563 H 0.43935 0.82042 0.36737 0.0
H564 H 0.43672 0.68941 0.37907 0.0
H565 H 0.41118 0.70168 0.35764 0.0
H566 H 0.39607 0.73098 0.34297 0.0
H567 H 0.39674 0.76686 0.33982 0.0
Mn568 Mn 0.0136 0.75822 0.64026 0.0
Mn569 Mn 0.99141 0.71329 0.65538 0.0
C570 C 0.0147 0.73183 0.62231 0.0
C571 C 0.01346 0.78867 0.62413 0.0
C572 C 0.03056 0.73194 0.67147 0.0
O573 O 0.99541 0.76425 0.66029 0.0
O574 O 0.98082 0.73372 0.66866 0.0
C575 C 0.95154 0.71663 0.63953 0.0
N576 N 0.9675 0.70711 0.64094 0.0
C577 C 0.95215 0.68291 0.62009 0.0
C578 C 0.93549 0.69238 0.6185 0.0
C579 C 0.93521 0.70934 0.62823 0.0
C580 C 0.96797 0.69084 0.63157 0.0
H581 H 0.95128 0.7297 0.64694 0.0
C582 C 0.98314 0.7523 0.66998 0.0
O583 O 0.02622 0.78589 0.63767 0.0
O584 O 1.00031 0.77387 0.6203 0.0
N585 N 0.99996 0.692 0.64376 0.0
C586 C 0.01739 0.68496 0.64632 0.0
C587 C 0.02014 0.66813 0.6374 0.0
C588 C 0.00491 0.6586 0.62611 0.0
C589 C 0.98703 0.66598 0.62387 0.0
C590 C 0.98508 0.6827 0.63324 0.0
H591 H 0.02914 0.69219 0.65501 0.0
O592 O 0.02766 0.74738 0.62025 0.0
O593 O 1.00131 0.73221 0.63469 0.0
O594 O 0.0316 0.74771 0.6609 0.0
O595 O 0.01612 0.71809 0.67071 0.0
C596 C 0.97118 0.65756 0.61247 0.0
C597 C 0.95378 0.66606 0.61053 0.0
H598 H 0.92288 0.68684 0.60976 0.0
H599 H 0.92244 0.71678 0.62701 0.0
H600 H 0.03398 0.66252 0.6392 0.0
H601 H 0.00712 0.64569 0.61917 0.0
H602 H 0.97232 0.64471 0.60493 0.0
H603 H 0.94179 0.6596 0.60154 0.0
Mn604 Mn 0.51724 0.25839 0.14162 0.0
Mn605 Mn 0.49395 0.21476 0.15899 0.0
C606 C 0.51633 0.23111 0.12445 0.0
C607 C 0.51705 0.28863 0.12507 0.0
C608 C 0.53428 0.23269 0.17308 0.0
O609 O 0.50069 0.26583 0.16247 0.0
O610 O 0.48422 0.23623 0.17133 0.0
C611 C 0.45398 0.21824 0.14351 0.0
N612 N 0.46968 0.20836 0.14521 0.0
C613 C 0.4531 0.1829 0.12638 0.0
C614 C 0.43669 0.19274 0.12452 0.0
C615 C 0.43717 0.21053 0.13306 0.0
C616 C 0.46945 0.19134 0.13689 0.0
H617 H 0.45429 0.2319 0.15009 0.0
C618 C 0.48784 0.25482 0.17235 0.0
O619 O 0.53056 0.28572 0.13783 0.0
O620 O 0.50334 0.27403 0.12214 0.0
N621 N 0.5017 0.19252 0.14837 0.0
C622 C 0.51895 0.18517 0.15104 0.0
C623 C 0.52102 0.16759 0.14311 0.0
C624 C 0.50526 0.15759 0.13279 0.0
C625 C 0.48754 0.16526 0.13053 0.0
C626 C 0.48634 0.18284 0.13874 0.0
H627 H 0.53107 0.1927 0.15909 0.0
O628 O 0.52947 0.24632 0.12118 0.0
O629 O 0.50376 0.23246 0.13737 0.0
O630 O 0.536 0.24766 0.16141 0.0
O631 O 0.51895 0.21981 0.17384 0.0
C632 C 0.47107 0.15622 0.12033 0.0
C633 C 0.45391 0.16511 0.11813 0.0
H634 H 0.4237 0.18683 0.11649 0.0
H635 H 0.4246 0.21825 0.13163 0.0
H636 H 0.53473 0.16174 0.14496 0.0
H637 H 0.50694 0.14408 0.12662 0.0
H638 H 0.47152 0.14255 0.11393 0.0
H639 H 0.44145 0.15817 0.11 0.0
C640 C 0.22095 0.73836 0.86339 0.0
C641 C 0.21613 0.74438 0.84461 0.0
C642 C 0.22283 0.75159 0.87766 0.0
C643 C 0.20937 0.79935 0.88891 0.0
H644 H 0.25087 0.79779 0.92745 0.0
C645 C 0.21661 0.84717 0.95376 0.0
C646 C 0.23566 0.8562 0.95823 0.0
C647 C 0.21358 0.83308 0.94024 0.0
C648 C 0.23926 0.79848 0.91674 0.0
H649 H 0.21006 0.76912 0.82598 0.0
H650 H 0.2136 0.79223 0.85078 0.0
H651 H 0.24724 0.77452 0.90283 0.0
H652 H 0.26654 0.85674 0.95344 0.0
H653 H 0.26137 0.83243 0.92973 0.0
H654 H 0.20183 0.82378 0.90254 0.0
C655 C 0.21545 0.77719 0.85461 0.0
C656 C 0.23703 0.78498 0.90274 0.0
C657 C 0.21348 0.76396 0.84038 0.0
C658 C 0.25167 0.85033 0.94976 0.0
C659 C 0.24871 0.83623 0.93639 0.0
C660 C 0.21163 0.8129 0.90291 0.0
C661 C 0.22005 0.77116 0.87346 0.0
C662 C 0.22212 0.78529 0.8886 0.0
C663 C 0.22963 0.8275 0.93138 0.0
C664 C 0.22667 0.81268 0.91692 0.0
H665 H 0.22285 0.72332 0.86713 0.0
H666 H 0.22614 0.74637 0.89206 0.0
H667 H 0.19758 0.79987 0.87837 0.0
H668 H 0.2041 0.85122 0.9605 0.0
H669 H 0.19873 0.8264 0.93689 0.0
C670 C 0.01982 0.52428 0.43025 0.0
C671 C 0.0239 0.54371 0.4354 0.0
C672 C 0.03253 0.51682 0.41864 0.0
C673 C 0.08277 0.52713 0.39919 0.0
H674 H 0.05871 0.49869 0.35679 0.0
C675 C 0.11922 0.52873 0.32804 0.0
C676 C 0.11863 0.51134 0.31875 0.0
C677 C 0.10901 0.52897 0.34459 0.0
C678 C 0.06566 0.50627 0.36876 0.0
H679 H 0.04482 0.5703 0.43339 0.0
H680 H 0.06683 0.55755 0.41289 0.0
H681 H 0.03823 0.50613 0.38193 0.0
H682 H 0.10688 0.48048 0.31971 0.0
H683 H 0.08838 0.48107 0.34866 0.0
H684 H 0.11004 0.52816 0.38542 0.0
C685 C 0.05397 0.54791 0.41786 0.0
C686 C 0.05395 0.51054 0.38319 0.0
C687 C 0.0413 0.55531 0.42948 0.0
C688 C 0.10765 0.49408 0.32656 0.0
C689 C 0.09705 0.49443 0.34306 0.0
C690 C 0.09442 0.523 0.38471 0.0
C691 C 0.04961 0.52866 0.41205 0.0
C692 C 0.0623 0.52156 0.39828 0.0
C693 C 0.09769 0.51191 0.35221 0.0
C694 C 0.0859 0.51304 0.36908 0.0
H695 H 0.00657 0.51502 0.43489 0.0
H696 H 0.02887 0.50186 0.41468 0.0
H697 H 0.08977 0.53521 0.41082 0.0
H698 H 0.12755 0.54229 0.3225 0.0
H699 H 0.10955 0.54272 0.35117 0.0
C700 C 0.84709 0.80092 0.87484 0.0
C701 C 0.82885 0.80601 0.86823 0.0
C702 C 0.84835 0.78807 0.89087 0.0
C703 C 0.82222 0.76625 0.93349 0.0
H704 H 0.84656 0.72047 0.92607 0.0
C705 C 0.81669 0.70082 0.98901 0.0
C706 C 0.80755 0.68371 0.98093 0.0
C707 C 0.82471 0.71699 0.97733 0.0
C708 C 0.83998 0.73331 0.92846 0.0
H709 H 0.79768 0.80168 0.87374 0.0
H710 H 0.80003 0.77983 0.90191 0.0
H711 H 0.84946 0.7477 0.9019 0.0
H712 H 0.80072 0.66945 0.95469 0.0
H713 H 0.81521 0.69731 0.93439 0.0
H714 H 0.81206 0.75153 0.95968 0.0
C715 C 0.81336 0.78586 0.89468 0.0
C716 C 0.84169 0.74891 0.91468 0.0
C717 C 0.81204 0.79847 0.87853 0.0
C718 C 0.8078 0.68247 0.96122 0.0
C719 C 0.81615 0.6984 0.94962 0.0
C720 C 0.82073 0.75077 0.94739 0.0
C721 C 0.83146 0.78027 0.90084 0.0
C722 C 0.83229 0.76526 0.91678 0.0
C723 C 0.82402 0.71607 0.95748 0.0
C724 C 0.82907 0.73388 0.94472 0.0
H725 H 0.86042 0.80671 0.86754 0.0
H726 H 0.86252 0.78411 0.89541 0.0
H727 H 0.81496 0.77875 0.93552 0.0
H728 H 0.8164 0.70216 0.00417 0.0
H729 H 0.83072 0.73044 0.98373 0.0
C730 C 0.00518 0.02026 0.43108 0.0
C731 C 0.01011 0.00192 0.43759 0.0
C732 C 0.99625 0.02283 0.41313 0.0
C733 C 0.98873 1.00125 0.36671 0.0
H734 H 0.9426 0.02734 0.36147 0.0
C735 C 0.93432 0.99083 0.3036 0.0
C736 C 0.92497 0.00653 0.2961 0.0
C737 C 0.94643 0.99261 0.31985 0.0
C738 C 0.95568 0.02035 0.36258 0.0
H739 H 0.00885 0.97175 0.43083 0.0
H740 H 0.99346 0.97625 0.39937 0.0
H741 H 0.96049 0.02597 0.39198 0.0
H742 H 0.92144 0.03663 0.29978 0.0
H743 H 0.94286 0.03979 0.32822 0.0
H744 H 0.98391 0.99545 0.33744 0.0
C745 C 0.99687 0.98874 0.40796 0.0
C746 C 0.96589 0.01952 0.38008 0.0
C747 C 0.00563 0.98614 0.42595 0.0
C748 C 0.92839 0.02424 0.30514 0.0
C749 C 0.94057 0.02602 0.32151 0.0
C750 C 0.97862 0.00218 0.34922 0.0
C751 C 0.99206 0.0071 0.40136 0.0
C752 C 0.98227 0.00958 0.38242 0.0
C753 C 0.94962 0.01015 0.32911 0.0
C754 C 0.9617 0.01133 0.34705 0.0
H755 H 0.00818 0.03258 0.43992 0.0
H756 H 0.99272 0.03714 0.40841 0.0
H757 H 1.00153 0.99382 0.36799 0.0
H758 H 0.93206 0.97692 0.29712 0.0
H759 H 0.95284 0.97997 0.32547 0.0
C760 C 0.2084 0.25576 0.6647 0.0
C761 C 0.20013 0.27242 0.65806 0.0
C762 C 0.21713 0.24512 0.65212 0.0
C763 C 0.21501 0.23426 0.60197 0.0
H764 H 0.26517 0.21624 0.61272 0.0
C765 C 0.25148 0.1979 0.54532 0.0
C766 C 0.26072 0.18159 0.55103 0.0
C767 C 0.24561 0.20954 0.55873 0.0
C768 C 0.25104 0.22096 0.60959 0.0
H769 H 0.194 0.29065 0.63304 0.0
H770 H 0.20917 0.27212 0.6111 0.0
H771 H 0.25188 0.23525 0.63568 0.0
H772 H 0.27152 0.16506 0.57537 0.0
H773 H 0.26085 0.18516 0.59887 0.0
H774 H 0.21378 0.21975 0.57619 0.0
C775 C 0.20911 0.26738 0.62603 0.0
C776 C 0.24346 0.23189 0.62273 0.0
C777 C 0.20055 0.27807 0.6386 0.0
C778 C 0.26452 0.17758 0.57049 0.0
C779 C 0.25844 0.18914 0.58397 0.0
C780 C 0.22247 0.22325 0.58895 0.0
C781 C 0.21736 0.25069 0.63261 0.0
C782 C 0.22543 0.23879 0.61897 0.0
C783 C 0.24857 0.20507 0.57826 0.0
C784 C 0.24068 0.21659 0.59246 0.0
H785 H 0.20786 0.2508 0.67957 0.0
H786 H 0.22313 0.23218 0.65757 0.0
H787 H 0.20089 0.23903 0.59883 0.0
H788 H 0.24854 0.20157 0.53043 0.0
H789 H 0.23856 0.22198 0.55374 0.0
C790 C 0.50938 0.52685 0.58502 0.0
C791 C 0.52092 0.54519 0.58205 0.0
C792 C 0.49793 0.52265 0.60109 0.0
C793 C 0.47703 0.54732 0.63918 0.0
H794 H 0.4667 0.49446 0.66192 0.0
C795 C 0.42009 0.52611 0.69748 0.0
C796 C 0.42345 0.51156 0.71156 0.0
C797 C 0.43227 0.53022 0.68193 0.0
C798 C 0.46963 0.50939 0.65597 0.0
H799 H 0.53021 0.57327 0.59369 0.0
H800 H 0.51105 0.56574 0.62218 0.0
H801 H 0.48814 0.50148 0.63518 0.0
H802 H 0.44254 0.49027 0.72068 0.0
H803 H 0.46431 0.49802 0.69412 0.0
H804 H 0.45936 0.55544 0.66056 0.0
C805 C 0.51012 0.55478 0.61186 0.0
C806 C 0.4817 0.51336 0.64034 0.0
C807 C 0.52125 0.55908 0.59562 0.0
C808 C 0.43947 0.50146 0.70996 0.0
C809 C 0.45187 0.50582 0.69461 0.0
C810 C 0.46524 0.54342 0.65501 0.0
C811 C 0.49807 0.5366 0.61472 0.0
C812 C 0.4855 0.53237 0.63164 0.0
C813 C 0.44835 0.52012 0.68026 0.0
C814 C 0.46126 0.52437 0.66358 0.0
H815 H 0.50877 0.51597 0.57463 0.0
H816 H 0.48864 0.50862 0.60256 0.0
H817 H 0.47927 0.56209 0.63275 0.0
H818 H 0.40773 0.534 0.69821 0.0
H819 H 0.42879 0.54105 0.67105 0.0
C820 C 0.81398 0.24435 0.64096 0.0
C821 C 0.81088 0.24894 0.65956 0.0
C822 C 0.81192 0.25789 0.62566 0.0
C823 C 0.80771 0.31049 0.61389 0.0
H824 H 0.78265 0.291 0.56745 0.0
C825 C 0.77105 0.35828 0.55696 0.0
C826 C 0.77427 0.35577 0.53785 0.0
C827 C 0.778 0.34599 0.57137 0.0
C828 C 0.7899 0.29664 0.58024 0.0
H829 H 0.80234 0.27084 0.67661 0.0
H830 H 0.79826 0.29429 0.64997 0.0
H831 H 0.79 0.26795 0.59342 0.0
H832 H 0.78761 0.33866 0.51883 0.0
H833 H 0.79952 0.317 0.54405 0.0
H834 H 0.80684 0.33923 0.60084 0.0
C835 C 0.80308 0.28061 0.64719 0.0
C836 C 0.79418 0.28344 0.59513 0.0
C837 C 0.80532 0.26715 0.66247 0.0
C838 C 0.7849 0.34095 0.53344 0.0
C839 C 0.79164 0.3285 0.54784 0.0
C840 C 0.80322 0.32368 0.59907 0.0
C841 C 0.8063 0.27615 0.62856 0.0
C842 C 0.80295 0.29019 0.61224 0.0
C843 C 0.78811 0.3308 0.56694 0.0
C844 C 0.7941 0.31689 0.58217 0.0
H845 H 0.81785 0.23025 0.6382 0.0
H846 H 0.81467 0.254 0.61154 0.0
H847 H 0.81482 0.31623 0.62669 0.0
H848 H 0.76295 0.3696 0.5608 0.0
H849 H 0.77492 0.348 0.58595 0.0
C850 C 0.49463 0.9884 0.61332 0.0
C851 C 0.50236 0.98347 0.59645 0.0
C852 C 0.50608 0.98944 0.63012 0.0
C853 C 0.54731 0.97137 0.65551 0.0
H854 H 0.55463 0.0203 0.68016 0.0
C855 C 0.60521 0.98706 0.71635 0.0
C856 C 0.60172 0.99976 0.73005 0.0
C857 C 0.59231 0.98397 0.70067 0.0
C858 C 0.55247 0.00635 0.67379 0.0
H859 H 0.5284 0.97567 0.58435 0.0
H860 H 0.54794 0.97665 0.6139 0.0
H861 H 0.53321 0.01659 0.65202 0.0
H862 H 0.58151 0.01838 0.73866 0.0
H863 H 0.55847 0.0122 0.71204 0.0
H864 H 0.56602 0.9608 0.67748 0.0
C865 C 0.53302 0.97981 0.61394 0.0
C866 C 0.54027 0.00432 0.65756 0.0
C867 C 0.52173 0.97915 0.59703 0.0
C868 C 0.58469 0.00869 0.72818 0.0
C869 C 0.57157 0.00526 0.71278 0.0
C870 C 0.55922 0.97323 0.67201 0.0
C871 C 0.52536 0.98516 0.63057 0.0
C872 C 0.53771 0.98689 0.64819 0.0
C873 C 0.57538 0.99319 0.69854 0.0
C874 C 0.56211 0.99082 0.68132 0.0
H875 H 0.47968 0.99138 0.61364 0.0
H876 H 0.49981 0.99345 0.64284 0.0
H877 H 0.54543 0.95773 0.64858 0.0
H878 H 0.61833 0.98012 0.71735 0.0
H879 H 0.59599 0.97482 0.68996 0.0
C880 C 0.86901 0.22435 0.73413 0.0
C881 C 0.86508 0.20509 0.7284 0.0
C882 C 0.88316 0.22934 0.74835 0.0
C883 C 0.92539 0.21261 0.7757 0.0
H884 H 0.91178 0.24711 0.8123 0.0
C885 C 0.97069 0.22717 0.84563 0.0
C886 C 0.97295 0.24631 0.8515 0.0
C887 C 0.95793 0.22179 0.83034 0.0
C888 C 0.91589 0.23753 0.8022 0.0
H889 H 0.87362 0.17616 0.73264 0.0
H890 H 0.89792 0.18474 0.75788 0.0
H891 H 0.88916 0.23843 0.78602 0.0
H892 H 0.96526 0.27528 0.84523 0.0
H893 H 0.94314 0.26606 0.81851 0.0
H894 H 0.95209 0.21162 0.79212 0.0
C895 C 0.89018 0.19605 0.75121 0.0
C896 C 0.90294 0.23264 0.78702 0.0
C897 C 0.87609 0.19107 0.73689 0.0
C898 C 0.96311 0.26023 0.84136 0.0
C899 C 0.95049 0.25493 0.82606 0.0
C900 C 0.93833 0.21743 0.79101 0.0
C901 C 0.89365 0.21517 0.75733 0.0
C902 C 0.90756 0.22022 0.7735 0.0
C903 C 0.94758 0.23561 0.82046 0.0
C904 C 0.93375 0.23002 0.8044 0.0
H905 H 0.8607 0.23549 0.72808 0.0
H906 H 0.8857 0.24429 0.75246 0.0
H907 H 0.92951 0.20318 0.76543 0.0
H908 H 0.97849 0.21633 0.85309 0.0
H909 H 0.95595 0.20677 0.82645 0.0
C910 C 0.51684 0.9374 0.50542 0.0
C911 C 0.49868 0.94198 0.51061 0.0
C912 C 0.5177 0.9212 0.49487 0.0
C913 C 0.48697 0.88781 0.46301 0.0
H914 H 0.52734 0.8547 0.47347 0.0
C915 C 0.48139 0.81274 0.43258 0.0
C916 C 0.49807 0.80784 0.42426 0.0
C917 C 0.48271 0.8292 0.44308 0.0
C918 C 0.51612 0.86395 0.47026 0.0
H919 H 0.46718 0.93358 0.50839 0.0
H920 H 0.4686 0.90498 0.4905 0.0
H921 H 0.52698 0.88314 0.49205 0.0
H922 H 0.52942 0.81633 0.42103 0.0
H923 H 0.5317 0.84522 0.43966 0.0
H924 H 0.47591 0.86845 0.4415 0.0
C925 C 0.48223 0.91394 0.4944 0.0
C926 C 0.5159 0.88025 0.48089 0.0
C927 C 0.48139 0.93019 0.50484 0.0
C928 C 0.51627 0.81965 0.4272 0.0
C929 C 0.5176 0.83616 0.4379 0.0
C930 C 0.48713 0.87149 0.45253 0.0
C931 C 0.5004 0.90928 0.48916 0.0
C932 C 0.50117 0.89227 0.47753 0.0
C933 C 0.50074 0.84125 0.44568 0.0
C934 C 0.50155 0.85924 0.45616 0.0
H935 H 0.53038 0.94649 0.50935 0.0
H936 H 0.53192 0.91829 0.49083 0.0
H937 H 0.47572 0.89697 0.45966 0.0
H938 H 0.46711 0.80404 0.43076 0.0
H939 H 0.46952 0.83253 0.44917 0.0
C940 C 0.14905 0.32204 0.73827 0.0
C941 C 0.16178 0.30806 0.73789 0.0
C942 C 0.13516 0.32055 0.75236 0.0
C943 C 0.1113 0.28618 0.79067 0.0
H944 H 0.09977 0.3341 0.81013 0.0
C945 C 0.07061 0.28622 0.85984 0.0
C946 C 0.0531 0.29439 0.85773 0.0
C947 C 0.08442 0.28948 0.84562 0.0
C948 C 0.10285 0.32064 0.80476 0.0
H949 H 0.17006 0.28156 0.75177 0.0
H950 H 0.14639 0.27921 0.77681 0.0
H951 H 0.12228 0.33581 0.78407 0.0
H952 H 0.03703 0.31356 0.83971 0.0
H953 H 0.0616 0.31976 0.81506 0.0
H954 H 0.09236 0.27111 0.81193 0.0
C955 C 0.14655 0.29104 0.76595 0.0
C956 C 0.11561 0.32156 0.78972 0.0
C957 C 0.16018 0.29236 0.75163 0.0
C958 C 0.05038 0.30707 0.84175 0.0
C959 C 0.0644 0.3106 0.82764 0.0
C960 C 0.09886 0.2853 0.80592 0.0
C961 C 0.13395 0.30523 0.76664 0.0
C962 C 0.12003 0.30432 0.78244 0.0
C963 C 0.08119 0.30126 0.82917 0.0
C964 C 0.09454 0.3025 0.81311 0.0
H965 H 0.14999 0.33426 0.72774 0.0
H966 H 0.12546 0.3315 0.75208 0.0
H967 H 0.11389 0.27259 0.78527 0.0
H968 H 0.07319 0.27637 0.87196 0.0
H969 H 0.09738 0.28231 0.84722 0.0
C970 C 0.53713 0.58989 0.50422 0.0
C971 C 0.53645 0.58981 0.52409 0.0
C972 C 0.53303 0.6061 0.49269 0.0
C973 C 0.52699 0.65879 0.49421 0.0
H974 H 0.50127 0.64999 0.44506 0.0
C975 C 0.48925 0.71464 0.44408 0.0
C976 C 0.50007 0.72003 0.42761 0.0
C977 C 0.49357 0.69903 0.45641 0.0
C978 C 0.50841 0.65257 0.45879 0.0
H979 H 0.53148 0.60727 0.54731 0.0
H980 H 0.52313 0.63482 0.52729 0.0
H981 H 0.50897 0.62215 0.46554 0.0
H982 H 0.52359 0.71307 0.41098 0.0
H983 H 0.53063 0.68545 0.43227 0.0
H984 H 0.52563 0.68928 0.48744 0.0
C985 C 0.52731 0.62258 0.52054 0.0
C986 C 0.51305 0.63668 0.47047 0.0
C987 C 0.53178 0.60653 0.53208 0.0
C988 C 0.51512 0.70939 0.42364 0.0
C989 C 0.51911 0.69357 0.43572 0.0
C990 C 0.52197 0.67462 0.48265 0.0
C991 C 0.52778 0.62258 0.50066 0.0
C992 C 0.52258 0.63956 0.4883 0.0
C993 C 0.50843 0.68834 0.4522 0.0
C994 C 0.51279 0.6716 0.46483 0.0
H995 H 0.54043 0.57727 0.49745 0.0
H996 H 0.53399 0.60563 0.47748 0.0
H997 H 0.53463 0.66173 0.50762 0.0
H998 H 0.4776 0.72259 0.44751 0.0
H999 H 0.48517 0.69514 0.46909 0.0
C1000 C 0.8678 0.82092 0.7659 0.0
C1001 C 0.85772 0.80638 0.77816 0.0
C1002 C 0.88315 0.81678 0.75521 0.0
C1003 C 0.91748 0.78054 0.75181 0.0
H1004 H 0.92006 0.8003 0.69914 0.0
C1005 C 0.95954 0.74737 0.69653 0.0
C1006 C 0.97065 0.76013 0.68334 0.0
C1007 C 0.94739 0.75449 0.70888 0.0
C1008 C 0.91971 0.7949 0.71389 0.0
H1009 H 0.85595 0.77627 0.78928 0.0
H1010 H 0.88241 0.76884 0.77041 0.0
H1011 H 0.89584 0.81002 0.71937 0.0
H1012 H 0.97771 0.79049 0.67293 0.0
H1013 H 0.9563 0.80288 0.69449 0.0
H1014 H 0.941 0.76498 0.74613 0.0
C1015 C 0.87875 0.78355 0.76916 0.0
C1016 C 0.90584 0.80048 0.72552 0.0
C1017 C 0.86348 0.78773 0.77988 0.0
C1018 C 0.96938 0.78024 0.68291 0.0
C1019 C 0.95705 0.78734 0.69518 0.0
C1020 C 0.93124 0.77487 0.74016 0.0
C1021 C 0.88871 0.79797 0.75658 0.0
C1022 C 0.90437 0.79315 0.74457 0.0
C1023 C 0.94591 0.77452 0.70829 0.0
C1024 C 0.93233 0.78177 0.721 0.0
H1025 H 0.86366 0.83544 0.76447 0.0
H1026 H 0.89067 0.82832 0.7459 0.0
H1027 H 0.91707 0.77493 0.7665 0.0
H1028 H 0.96013 0.73181 0.69732 0.0
H1029 H 0.93881 0.7442 0.71864 0.0
C1030 C 0.0257 0.93793 0.517 0.0
C1031 C 0.04546 0.94535 0.51348 0.0
C1032 C 0.02081 0.92081 0.52859 0.0
C1033 C 0.0423 0.87755 0.54989 0.0
H1034 H 0.99819 0.87198 0.58319 0.0
C1035 C 0.03246 0.82066 0.61307 0.0
C1036 C 0.01491 0.80743 0.61261 0.0
C1037 C 0.03479 0.83751 0.60089 0.0
C1038 C 0.01046 0.87336 0.57385 0.0
H1039 H 0.0755 0.94017 0.51933 0.0
H1040 H 0.06711 0.91135 0.54031 0.0
H1041 H 0.00518 0.90142 0.56195 0.0
H1042 H 0.98574 0.80187 0.59962 0.0
H1043 H 0.98968 0.83187 0.57861 0.0
H1044 H 0.04801 0.84986 0.56249 0.0
C1045 C 0.05527 0.91835 0.53374 0.0
C1046 C 0.01444 0.89014 0.56159 0.0
C1047 C 0.06014 0.93522 0.52194 0.0
C1048 C 0.99943 0.8118 0.60024 0.0
C1049 C 1.00165 0.82893 0.58829 0.0
C1050 C 0.03854 0.86102 0.56237 0.0
C1051 C 0.03555 0.91078 0.53714 0.0
C1052 C 0.03056 0.89255 0.54958 0.0
C1053 C 0.0195 0.84168 0.58826 0.0
C1054 C 0.02271 0.85886 0.57455 0.0
H1055 H 0.01397 0.9454 0.51091 0.0
H1056 H 0.00544 0.91535 0.53067 0.0
H1057 H 0.05448 0.87852 0.54051 0.0
H1058 H 0.04468 0.81768 0.6224 0.0
H1059 H 0.04865 0.84723 0.60117 0.0
C1060 C 0.17383 0.73558 0.77988 0.0
C1061 C 0.17802 0.71756 0.78811 0.0
C1062 C 0.15778 0.73638 0.76732 0.0
C1063 C 0.1223 0.70623 0.73648 0.0
H1064 H 0.09241 0.74907 0.73939 0.0
C1065 C 0.04882 0.71128 0.69448 0.0
C1066 C 0.04702 0.7296 0.68521 0.0
C1067 C 0.06454 0.70914 0.70724 0.0
C1068 C 0.10069 0.7371 0.73833 0.0
H1069 H 0.16879 0.68623 0.78951 0.0
H1070 H 0.14045 0.6876 0.76775 0.0
H1071 H 0.12029 0.74642 0.7612 0.0
H1072 H 0.06036 0.76005 0.68223 0.0
H1073 H 0.08761 0.7563 0.70452 0.0
H1074 H 0.10241 0.69685 0.71366 0.0
C1075 C 0.14978 0.70111 0.77077 0.0
C1076 C 0.11672 0.7356 0.75078 0.0
C1077 C 0.16598 0.70031 0.78326 0.0
C1078 C 0.06126 0.74572 0.68908 0.0
C1079 C 0.07683 0.74361 0.70195 0.0
C1080 C 0.10613 0.70766 0.72409 0.0
C1081 C 0.14539 0.7192 0.76277 0.0
C1082 C 0.12788 0.72028 0.74989 0.0
C1083 C 0.07866 0.72531 0.71115 0.0
C1084 C 0.0953 0.72323 0.72477 0.0
H1085 H 0.18307 0.7491 0.78309 0.0
H1086 H 0.15516 0.75052 0.76109 0.0
H1087 H 0.13067 0.69437 0.73523 0.0
H1088 H 0.03816 0.69854 0.69181 0.0
H1089 H 0.06552 0.69489 0.71423 0.0
C1090 C 0.97817 0.60185 0.5129 0.0
C1091 C 0.99285 0.59012 0.51089 0.0
C1092 C 0.98183 0.61825 0.52365 0.0
C1093 C 0.01451 0.63915 0.5621 0.0
H1094 H 0.99232 0.68629 0.54685 0.0
C1095 C 0.0299 0.70805 0.60501 0.0
C1096 C 0.0134 0.71669 0.60857 0.0
C1097 C 0.02856 0.69362 0.59194 0.0
C1098 C 0.99851 0.67318 0.55136 0.0
H1099 H 0.02302 0.58669 0.51837 0.0
H1100 H 0.02955 0.61559 0.53681 0.0
H1101 H 0.98797 0.65918 0.52611 0.0
H1102 H 0.98324 0.71878 0.6001 0.0
H1103 H 0.98071 0.69344 0.57735 0.0
H1104 H 0.025 0.65314 0.58738 0.0
C1105 C 0.0151 0.61191 0.53029 0.0
C1106 C 0.996 0.65763 0.53949 0.0
C1107 C 0.01143 0.59547 0.51954 0.0
C1108 C 0.99594 0.71175 0.59799 0.0
C1109 C 0.99461 0.69747 0.5848 0.0
C1110 C 0.01708 0.65473 0.57394 0.0
C1111 C 1.00028 0.6234 0.53263 0.0
C1112 C 0.00381 0.64035 0.54479 0.0
C1113 C 0.01081 0.68797 0.58187 0.0
C1114 C 0.00895 0.67186 0.5688 0.0
H1115 H 0.96378 0.59832 0.5062 0.0
H1116 H 0.97001 0.62664 0.52528 0.0
H1117 H 0.02047 0.62596 0.56678 0.0
H1118 H 0.04367 0.71211 0.6127 0.0
H1119 H 0.0414 0.68686 0.58973 0.0
C1120 C 0.72968 0.86184 0.19213 0.0
C1121 C 0.72009 0.85215 0.20807 0.0
C1122 C 0.74431 0.87798 0.19422 0.0
C1123 C 0.77901 0.9002 0.23062 0.0
H1124 H 0.78411 0.94642 0.19596 0.0
C1125 C 0.8327 0.96817 0.24822 0.0
C1126 C 0.84342 0.97862 0.23344 0.0
C1127 C 0.81698 0.95373 0.2443 0.0
C1128 C 0.78304 0.93353 0.20566 0.0
H1129 H 0.71853 0.85188 0.23872 0.0
H1130 H 0.74326 0.88021 0.24223 0.0
H1131 H 0.7581 0.91914 0.19033 0.0
H1132 H 0.84554 0.9834 0.203 0.0
H1133 H 0.81849 0.95739 0.19596 0.0
H1134 H 0.80338 0.91442 0.2462 0.0
C1135 C 0.73977 0.87523 0.22813 0.0
C1136 C 0.76812 0.9179 0.20241 0.0
C1137 C 0.72532 0.85912 0.22607 0.0
C1138 C 0.8376 0.97518 0.21459 0.0
C1139 C 0.82204 0.96042 0.21062 0.0
C1140 C 0.79372 0.91579 0.23391 0.0
C1141 C 0.74965 0.88471 0.21231 0.0
C1142 C 0.76585 0.90113 0.21499 0.0
C1143 C 0.81171 0.94929 0.22546 0.0
C1144 C 0.79596 0.93271 0.22156 0.0
H1145 H 0.72589 0.85694 0.17805 0.0
H1146 H 0.75172 0.8849 0.18176 0.0
H1147 H 0.77801 0.88735 0.24037 0.0
H1148 H 0.83657 0.9711 0.26287 0.0
H1149 H 0.80905 0.94598 0.25611 0.0
C1150 C 0.78874 0.18412 0.29477 0.0
C1151 C 0.76927 0.17972 0.30059 0.0
C1152 C 0.79985 0.1692 0.2924 0.0
C1153 C 0.79438 0.11606 0.28499 0.0
H1154 H 0.85027 0.12307 0.29714 0.0
C1155 C 0.84074 0.0537 0.28139 0.0
C1156 C 0.85816 0.05852 0.27134 0.0
C1157 C 0.83037 0.06835 0.2864 0.0
C1158 C 0.83468 0.12095 0.29362 0.0
H1159 H 0.74591 0.15604 0.30788 0.0
H1160 H 0.76544 0.13006 0.3045 0.0
H1161 H 0.83108 0.14873 0.30333 0.0
H1162 H 0.87873 0.0825 0.25924 0.0
H1163 H 0.86071 0.10812 0.26822 0.0
H1164 H 0.79801 0.08818 0.27547 0.0
C1165 C 0.77217 0.14506 0.30158 0.0
C1166 C 0.82368 0.13568 0.29709 0.0
C1167 C 0.76101 0.15999 0.30376 0.0
C1168 C 0.86534 0.07833 0.26697 0.0
C1169 C 0.85507 0.093 0.27217 0.0
C1170 C 0.80534 0.10127 0.28172 0.0
C1171 C 0.79172 0.14944 0.29576 0.0
C1172 C 0.80338 0.1335 0.29269 0.0
C1173 C 0.8373 0.08814 0.28166 0.0
C1174 C 0.82563 0.1036 0.28588 0.0
H1175 H 0.7953 0.19918 0.29179 0.0
H1176 H 0.81467 0.17317 0.28748 0.0
H1177 H 0.7789 0.11396 0.28106 0.0
H1178 H 0.83482 0.03857 0.28497 0.0
H1179 H 0.81683 0.06419 0.29389 0.0
C1180 C 0.4497 0.0093 0.99922 0.0
C1181 C 0.45217 0.02917 0.99312 0.0
C1182 C 0.43094 0.99838 0.99967 0.0
C1183 C 0.37766 0.00408 0.9974 0.0
H1184 H 0.37099 0.94901 0.98786 0.0
C1185 C 0.30417 0.95547 0.97756 0.0
C1186 C 0.29982 0.93797 0.98888 0.0
C1187 C 0.32224 0.96741 0.97975 0.0
C1188 C 0.37271 0.96436 0.99068 0.0
H1189 H 0.43733 0.05322 0.98231 0.0
H1190 H 0.40468 0.03403 0.98202 0.0
H1191 H 0.40369 0.96801 0.98736 0.0
H1192 H 0.31084 0.91943 0.01159 0.0
H1193 H 0.34268 0.94008 0.01498 0.0
H1194 H 0.34633 1.00036 0.99967 0.0
C1195 C 0.41697 0.02691 0.98722 0.0
C1196 C 0.39146 0.97527 0.99052 0.0
C1197 C 0.43569 0.03791 0.98718 0.0
C1198 C 0.3137 0.9329 0.00277 0.0
C1199 C 0.33194 0.94461 0.00465 0.0
C1200 C 0.35885 0.99323 0.99713 0.0
C1201 C 0.41428 0.007 0.99362 0.0
C1202 C 0.39424 0.99531 0.99391 0.0
C1203 C 0.33642 0.96182 0.993 0.0
C1204 C 0.35626 0.97328 0.99382 0.0
H1205 H 0.46226 0.00236 0.00404 0.0
H1206 H 0.42955 0.98325 0.00507 0.0
H1207 H 0.37914 0.01932 1.00049 0.0
H1208 H 0.29375 0.95974 0.96675 0.0
H1209 H 0.32545 0.9806 0.97058 0.0
C1210 C 0.28772 0.35972 0.34441 0.0
C1211 C 0.29437 0.3521 0.32831 0.0
C1212 C 0.27226 0.37079 0.34283 0.0
C1213 C 0.23172 0.38342 0.30952 0.0
H1214 H 0.23385 0.42775 0.34044 0.0
C1215 C 0.17285 0.43469 0.29999 0.0
C1216 C 0.17971 0.45478 0.30054 0.0
C1217 C 0.185 0.42086 0.30619 0.0
C1218 C 0.23305 0.41551 0.33158 0.0
H1219 H 0.28947 0.34998 0.29793 0.0
H1220 H 0.26351 0.37009 0.29502 0.0
H1221 H 0.25896 0.4066 0.34489 0.0
H1222 H 0.20447 0.4761 0.30858 0.0
H1223 H 0.22575 0.45225 0.31871 0.0
H1224 H 0.20659 0.39305 0.29535 0.0
C1225 C 0.26984 0.36714 0.309 0.0
C1226 C 0.24735 0.40315 0.33434 0.0
C1227 C 0.28509 0.35587 0.31062 0.0
C1228 C 0.19868 0.46072 0.30805 0.0
C1229 C 0.21089 0.44696 0.314 0.0
C1230 C 0.2176 0.39594 0.30657 0.0
C1231 C 0.26314 0.37474 0.32507 0.0
C1232 C 0.24708 0.38709 0.32314 0.0
C1233 C 0.20438 0.42682 0.31284 0.0
C1234 C 0.21823 0.41237 0.31734 0.0
H1235 H 0.29459 0.35732 0.35826 0.0
H1236 H 0.2674 0.37616 0.35558 0.0
H1237 H 0.23069 0.37097 0.3009 0.0
H1238 H 0.15826 0.42965 0.29437 0.0
H1239 H 0.17928 0.40549 0.30545 0.0
C1240 C 0.10713 0.00862 0.48134 0.0
C1241 C 0.09329 0.00499 0.49565 0.0
C1242 C 0.12545 0.01966 0.48472 0.0
C1243 C 0.15928 0.03917 0.52381 0.0
H1244 H 0.18345 0.07269 0.48254 0.0
C1245 C 0.22602 0.09892 0.53575 0.0
C1246 C 0.23952 0.10343 0.52124 0.0
C1247 C 0.20884 0.08573 0.53297 0.0
C1248 C 0.17698 0.06346 0.49428 0.0
H1249 H 0.08752 0.01023 0.52458 0.0
H1250 H 0.11919 0.03026 0.53032 0.0
H1251 H 0.15186 0.05319 0.47718 0.0
H1252 H 0.24693 0.09652 0.49331 0.0
H1253 H 0.21725 0.07314 0.4885 0.0
H1254 H 0.1843 0.05001 0.54102 0.0
C1255 C 0.11623 0.0241 0.51666 0.0
C1256 C 0.15884 0.05205 0.49113 0.0
C1257 C 0.09802 0.01276 0.51335 0.0
C1258 C 0.23631 0.09369 0.50442 0.0
C1259 C 0.21931 0.08034 0.5017 0.0
C1260 C 0.17732 0.05089 0.52704 0.0
C1261 C 0.13025 0.02764 0.5024 0.0
C1262 C 0.14969 0.03974 0.50585 0.0
C1263 C 0.20515 0.07644 0.5158 0.0
C1264 C 0.18634 0.06332 0.51233 0.0
H1265 H 0.10393 0.00251 0.46766 0.0
H1266 H 0.13595 0.02166 0.47352 0.0
H1267 H 0.15297 0.02954 0.5354 0.0
H1268 H 0.22845 0.10607 0.54897 0.0
H1269 H 0.19823 0.08326 0.54408 0.0
C1270 C 0.79502 0.14828 0.69599 0.0
C1271 C 0.80471 0.15944 0.71038 0.0
C1272 C 0.78054 0.13237 0.70046 0.0
C1273 C 0.74641 0.11289 0.73859 0.0
H1274 H 0.74109 0.06477 0.71269 0.0
C1275 C 0.69432 0.04476 0.76492 0.0
C1276 C 0.6833 0.0337 0.75128 0.0
C1277 C 0.70937 0.05962 0.75945 0.0
C1278 C 0.74224 0.0782 0.71991 0.0
H1279 H 0.80674 0.16253 0.74079 0.0
H1280 H 0.7822 0.13451 0.74858 0.0
H1281 H 0.76707 0.09152 0.70397 0.0
H1282 H 0.67997 0.02836 0.72147 0.0
H1283 H 0.70602 0.05484 0.71164 0.0
H1284 H 0.722 0.09959 0.75478 0.0
C1285 C 0.78549 0.1382 0.7338 0.0
C1286 C 0.75713 0.09353 0.71491 0.0
C1287 C 0.79983 0.15411 0.72934 0.0
C1288 C 0.6881 0.03705 0.73214 0.0
C1289 C 0.70308 0.05208 0.72659 0.0
C1290 C 0.73167 0.09756 0.74365 0.0
C1291 C 0.77547 0.12728 0.71942 0.0
C1292 C 0.75945 0.11102 0.72428 0.0
C1293 C 0.71379 0.06365 0.74019 0.0
C1294 C 0.72939 0.08 0.73443 0.0
H1295 H 0.79854 0.15188 0.68125 0.0
H1296 H 0.77302 0.12436 0.68902 0.0
H1297 H 0.74747 0.12629 0.74584 0.0
H1298 H 0.69129 0.04189 0.77986 0.0
H1299 H 0.71762 0.06786 0.77036 0.0
C1300 C 0.43357 0.00449 0.54307 0.0
C1301 C 0.45148 0.01032 0.55286 0.0
C1302 C 0.41985 0.0174 0.5396 0.0
C1303 C 0.40318 0.05997 0.55781 0.0
H1304 H 0.37892 0.06651 0.50777 0.0
C1305 C 0.3483 0.11507 0.54176 0.0
C1306 C 0.33236 0.10968 0.52926 0.0
C1307 C 0.36372 0.10394 0.54404 0.0
C1308 C 0.3853 0.06469 0.52191 0.0
H1309 H 0.46898 0.0347 0.56622 0.0
H1310 H 0.44469 0.05688 0.56073 0.0
H1311 H 0.40375 0.04491 0.51299 0.0
H1312 H 0.32003 0.08834 0.50937 0.0
H1313 H 0.34638 0.06861 0.51378 0.0
H1314 H 0.38435 0.07911 0.567 0.0
C1315 C 0.44136 0.04226 0.55579 0.0
C1316 C 0.39962 0.05236 0.52485 0.0
C1317 C 0.45523 0.02947 0.55902 0.0
C1318 C 0.33219 0.093 0.51901 0.0
C1319 C 0.34743 0.08173 0.52147 0.0
C1320 C 0.38865 0.07209 0.55495 0.0
C1321 C 0.42353 0.03636 0.54605 0.0
C1322 C 0.40867 0.04982 0.54283 0.0
C1323 C 0.36342 0.08698 0.53405 0.0
C1324 C 0.37942 0.07458 0.53697 0.0
H1325 H 0.42992 0.9898 0.53839 0.0
H1326 H 0.40612 0.01237 0.53224 0.0
H1327 H 0.40977 0.05813 0.57187 0.0
H1328 H 0.3489 0.12792 0.5498 0.0
H1329 H 0.3759 0.10871 0.55359 0.0
C1330 C 0.58704 0.49306 0.53606 0.0
C1331 C 0.58038 0.5064 0.52236 0.0
C1332 C 0.60307 0.48376 0.53256 0.0
C1333 C 0.64605 0.48729 0.5019 0.0
H1334 H 0.64328 0.43199 0.51657 0.0
C1335 C 0.7012 0.44015 0.47644 0.0
C1336 C 0.70798 0.42641 0.48974 0.0
C1337 C 0.68601 0.45026 0.4808 0.0
C1338 C 0.64439 0.44749 0.51258 0.0
H1339 H 0.58561 0.52117 0.49464 0.0
H1340 H 0.61344 0.50471 0.4883 0.0
H1341 H 0.61628 0.44913 0.5236 0.0
H1342 H 0.70401 0.41265 0.51815 0.0
H1343 H 0.67763 0.43033 0.52572 0.0
H1344 H 0.67411 0.48557 0.49074 0.0
C1345 C 0.60638 0.50143 0.50179 0.0
C1346 C 0.62891 0.45733 0.51663 0.0
C1347 C 0.59036 0.51075 0.50533 0.0
C1348 C 0.69917 0.42307 0.50752 0.0
C1349 C 0.68395 0.43314 0.51184 0.0
C1350 C 0.66151 0.47743 0.49782 0.0
C1351 C 0.61285 0.4877 0.51531 0.0
C1352 C 0.62952 0.47735 0.5113 0.0
C1353 C 0.67718 0.44684 0.49854 0.0
C1354 C 0.66085 0.4574 0.50307 0.0
H1355 H 0.57973 0.48976 0.54943 0.0
H1356 H 0.60788 0.47355 0.54342 0.0
H1357 H 0.64715 0.50277 0.49786 0.0
H1358 H 0.70755 0.44309 0.46259 0.0
H1359 H 0.68097 0.46053 0.47014 0.0
C1360 C 0.69953 0.2437 0.35656 0.0
C1361 C 0.71618 0.24046 0.34706 0.0
C1362 C 0.70106 0.25768 0.3701 0.0
C1363 C 0.7334 0.30186 0.38527 0.0
H1364 H 0.70361 0.29244 0.4312 0.0
C1365 C 0.74961 0.35047 0.44832 0.0
C1366 C 0.73366 0.35553 0.45756 0.0
C1367 C 0.74662 0.33686 0.43447 0.0
C1368 C 0.71182 0.29539 0.41832 0.0
H1369 H 0.74756 0.24929 0.34458 0.0
H1370 H 0.75034 0.27317 0.36859 0.0
H1371 H 0.70036 0.26745 0.40813 0.0
H1372 H 0.70221 0.34964 0.46059 0.0
H1373 H 0.69678 0.32577 0.43607 0.0
H1374 H 0.74517 0.32959 0.39563 0.0
C1375 C 0.736 0.26517 0.36532 0.0
C1376 C 0.70998 0.28106 0.4051 0.0
C1377 C 0.73446 0.25125 0.35173 0.0
C1378 C 0.71467 0.3462 0.4533 0.0
C1379 C 0.71162 0.33252 0.43939 0.0
C1380 C 0.73532 0.3161 0.39852 0.0
C1381 C 0.71929 0.26872 0.37452 0.0
C1382 C 0.72087 0.28406 0.38847 0.0
C1383 C 0.72759 0.32775 0.42979 0.0
C1384 C 0.72466 0.313 0.41526 0.0
H1385 H 0.68525 0.23547 0.3535 0.0
H1386 H 0.68786 0.2601 0.3768 0.0
H1387 H 0.74169 0.30486 0.37244 0.0
H1388 H 0.76448 0.35694 0.45194 0.0
H1389 H 0.75927 0.3332 0.42768 0.0
C1390 C 0.55124 0.04664 0.93595 0.0
C1391 C 0.53161 0.04072 0.94077 0.0
C1392 C 0.55996 0.03648 0.92301 0.0
C1393 C 0.54613 0.00634 0.88262 0.0
H1394 H 0.60186 0.00318 0.88361 0.0
C1395 C 0.59033 0.01035 0.81571 0.0
C1396 C 0.60614 0.99979 0.81509 0.0
C1397 C 0.57962 0.00954 0.8321 0.0
C1398 C 0.5862 0.00356 0.88324 0.0
H1399 H 0.50608 0.01889 0.93702 0.0
H1400 H 0.52134 1.00094 0.91443 0.0
H1401 H 0.58694 0.01237 0.91177 0.0
H1402 H 0.62264 0.97939 0.83089 0.0
H1403 H 0.60389 0.97812 0.8599 0.0
H1404 H 0.54549 0.99807 0.85395 0.0
C1405 C 0.5299 0.01364 0.92034 0.0
C1406 C 0.57769 0.00907 0.8993 0.0
C1407 C 0.52118 0.02383 0.93329 0.0
C1408 C 0.61044 0.9876 0.83096 0.0
C1409 C 0.59983 0.987 0.84757 0.0
C1410 C 0.55463 1.00087 0.86658 0.0
C1411 C 0.54925 0.02013 0.91469 0.0
C1412 C 0.55768 0.01114 0.89896 0.0
C1413 C 0.58455 0.99829 0.84841 0.0
C1414 C 0.57489 1.00008 0.86649 0.0
H1415 H 0.55962 0.05954 0.94166 0.0
H1416 H 0.57481 0.04203 0.91886 0.0
H1417 H 0.53071 0.00788 0.88177 0.0
H1418 H 0.58664 0.01982 0.80366 0.0
H1419 H 0.56812 0.0186 0.8323 0.0
C1420 C 0.33047 0.28111 0.36087 0.0
C1421 C 0.32899 0.30075 0.36339 0.0
C1422 C 0.33142 0.26778 0.37654 0.0
C1423 C 0.31963 0.26082 0.42755 0.0
H1424 H 0.34703 0.21604 0.42556 0.0
C1425 C 0.31485 0.20062 0.4881 0.0
C1426 C 0.30737 0.18226 0.48152 0.0
C1427 C 0.32249 0.21595 0.47531 0.0
C1428 C 0.33944 0.22856 0.42636 0.0
H1429 H 0.32805 0.32203 0.38423 0.0
H1430 H 0.33027 0.29895 0.41165 0.0
H1431 H 0.35059 0.24176 0.39998 0.0
H1432 H 0.30296 0.16501 0.45693 0.0
H1433 H 0.31681 0.19155 0.43468 0.0
H1434 H 0.30839 0.24747 0.45387 0.0
C1435 C 0.33014 0.29363 0.39759 0.0
C1436 C 0.34132 0.24323 0.41164 0.0
C1437 C 0.32892 0.3069 0.3819 0.0
C1438 C 0.30886 0.17902 0.4623 0.0
C1439 C 0.3168 0.1942 0.44961 0.0
C1440 C 0.31798 0.24629 0.44237 0.0
C1441 C 0.33118 0.27382 0.39514 0.0
C1442 C 0.33102 0.25931 0.41178 0.0
C1443 C 0.32299 0.21302 0.45585 0.0
C1444 C 0.32747 0.22979 0.44171 0.0
H1445 H 0.33035 0.27593 0.34675 0.0
H1446 H 0.33179 0.25261 0.374 0.0
H1447 H 0.31123 0.27276 0.42811 0.0
H1448 H 0.3135 0.20346 0.50283 0.0
H1449 H 0.32722 0.23031 0.48049 0.0
C1450 C 0.51885 0.49542 0.92087 0.0
C1451 C 0.51195 0.50209 0.93733 0.0
C1452 C 0.509 0.49784 0.90338 0.0
C1453 C 0.47522 0.52688 0.8768 0.0
H1454 H 0.46289 0.48121 0.84741 0.0
C1455 C 0.42167 0.52339 0.81087 0.0
C1456 C 0.42516 0.51142 0.79652 0.0
C1457 C 0.43349 0.52417 0.8275 0.0
C1458 C 0.46651 0.49426 0.85519 0.0
H1459 H 0.49012 0.51754 0.94814 0.0
H1460 H 0.4729 0.52187 0.91746 0.0
H1461 H 0.48123 0.4789 0.87735 0.0
H1462 H 0.44456 0.49215 0.78755 0.0
H1463 H 0.46563 0.49419 0.81596 0.0
H1464 H 0.46065 0.54233 0.8545 0.0
C1465 C 0.48577 0.51456 0.91819 0.0
C1466 C 0.47696 0.49286 0.87243 0.0
C1467 C 0.4955 0.51194 0.93573 0.0
C1468 C 0.44137 0.50128 0.79852 0.0
C1469 C 0.45334 0.50232 0.81491 0.0
C1470 C 0.46491 0.52836 0.85938 0.0
C1471 C 0.49229 0.50733 0.90188 0.0
C1472 C 0.48142 0.50913 0.88343 0.0
C1473 C 0.44917 0.5132 0.82993 0.0
C1474 C 0.46044 0.51204 0.84833 0.0
H1475 H 0.53179 0.48823 0.92144 0.0
H1476 H 0.51453 0.4924 0.89097 0.0
H1477 H 0.47858 0.5397 0.88495 0.0
H1478 H 0.40918 0.53126 0.80971 0.0
H1479 H 0.42976 0.53264 0.83878 0.0
C1480 C 0.70659 0.75898 0.15944 0.0
C1481 C 0.6982 0.77538 0.15219 0.0
C1482 C 0.71491 0.74761 0.14725 0.0
C1483 C 0.71161 0.73408 0.09783 0.0
H1484 H 0.76234 0.71721 0.10844 0.0
C1485 C 0.74805 0.69628 0.04211 0.0
C1486 C 0.75799 0.68055 0.04822 0.0
C1487 C 0.74184 0.70808 0.05519 0.0
C1488 C 0.74804 0.72158 0.10538 0.0
H1489 H 0.6913 0.79228 0.12653 0.0
H1490 H 0.70575 0.77245 0.10524 0.0
H1491 H 0.74931 0.73714 0.13073 0.0
H1492 H 0.76952 0.66516 0.07295 0.0
H1493 H 0.75828 0.68552 0.09587 0.0
H1494 H 0.71 0.71834 0.07276 0.0
C1495 C 0.70612 0.76851 0.12034 0.0
C1496 C 0.74061 0.73304 0.11814 0.0
C1497 C 0.69799 0.77995 0.13252 0.0
C1498 C 0.76198 0.6772 0.06775 0.0
C1499 C 0.75558 0.68893 0.0809 0.0
C1500 C 0.71892 0.72253 0.0852 0.0
C1501 C 0.71458 0.75215 0.12754 0.0
C1502 C 0.7224 0.73956 0.11439 0.0
C1503 C 0.74518 0.70437 0.07479 0.0
C1504 C 0.73733 0.71628 0.08866 0.0
H1505 H 0.70651 0.75482 0.17449 0.0
H1506 H 0.72107 0.73493 0.15317 0.0
H1507 H 0.69735 0.73855 0.09473 0.0
H1508 H 0.74492 0.69945 0.02717 0.0
H1509 H 0.73435 0.72012 0.04989 0.0
C1510 C 0.01582 0.025 0.08742 0.0
C1511 C 0.02205 0.0446 0.08126 0.0
C1512 C 0.00506 0.0204 0.10389 0.0
C1513 C 0.99132 0.04156 0.14761 0.0
H1514 H 0.94799 0.99889 0.14684 0.0
C1515 C 0.93076 0.02838 0.20354 0.0
C1516 C 0.92514 0.00893 0.21057 0.0
C1517 C 0.94345 0.03264 0.18838 0.0
C1518 C 0.96016 0.01073 0.14734 0.0
H1519 H 0.02244 0.07471 0.08809 0.0
H1520 H 0.00313 0.06675 0.11633 0.0
H1521 H 0.96868 0.00637 0.1194 0.0
H1522 H 0.92865 0.97873 0.20715 0.0
H1523 H 0.95065 0.98622 0.1807 0.0
H1524 H 0.98239 0.04613 0.17546 0.0
C1525 C 0.00675 0.05488 0.1086 0.0
C1526 C 0.97208 0.01499 0.13164 0.0
C1527 C 0.01761 0.05946 0.09222 0.0
C1528 C 0.93264 0.99388 0.20215 0.0
C1529 C 0.94517 0.99814 0.1869 0.0
C1530 C 0.97927 0.03739 0.16327 0.0
C1531 C 1.00017 0.03529 0.11457 0.0
C1532 C 0.98781 0.03047 0.13155 0.0
C1533 C 0.95065 0.01754 0.1798 0.0
C1534 C 0.96357 0.02194 0.16328 0.0
H1535 H 0.01883 0.01317 0.07927 0.0
H1536 H 1.00052 0.00515 0.10821 0.0
H1537 H 0.00347 0.05339 0.14819 0.0
H1538 H 0.9253 0.04033 0.20969 0.0
H1539 H 0.94732 0.04772 0.1831 0.0
C1540 C 0.30237 0.77045 0.16372 0.0
C1541 C 0.30784 0.75219 0.16082 0.0
C1542 C 0.30059 0.78406 0.14845 0.0
C1543 C 0.293 0.7873 0.09623 0.0
H1544 H 0.30667 0.84297 0.10209 0.0
C1545 C 0.28686 0.84464 0.03393 0.0
C1546 C 0.27643 0.85979 0.03779 0.0
C1547 C 0.293 0.83223 0.04869 0.0
C1548 C 0.30277 0.82746 0.10028 0.0
H1549 H 0.31505 0.73354 0.13953 0.0
H1550 H 0.31268 0.75753 0.11294 0.0
H1551 H 0.31329 0.81972 0.12827 0.0
H1552 H 0.26494 0.87432 0.06015 0.0
H1553 H 0.27584 0.85277 0.08593 0.0
H1554 H 0.28254 0.7951 0.06821 0.0
C1555 C 0.30966 0.76136 0.12701 0.0
C1556 C 0.30647 0.81413 0.11528 0.0
C1557 C 0.31125 0.74768 0.14227 0.0
C1558 C 0.27291 0.86275 0.05673 0.0
C1559 C 0.27923 0.85047 0.0715 0.0
C1560 C 0.28949 0.80062 0.08118 0.0
C1561 C 0.30416 0.77968 0.12988 0.0
C1562 C 0.3014 0.79387 0.11354 0.0
C1563 C 0.28903 0.83488 0.0676 0.0
C1564 C 0.29411 0.82083 0.08313 0.0
H1565 H 0.29917 0.77407 0.17781 0.0
H1566 H 0.29588 0.7978 0.15118 0.0
H1567 H 0.28856 0.77185 0.09444 0.0
H1568 H 0.28981 0.842 0.01947 0.0
H1569 H 0.30069 0.82043 0.0453 0.0
C1570 C 0.99575 0.49236 0.11826 0.0
C1571 C 1.00283 0.48594 0.10172 0.0
C1572 C 0.00737 0.49363 0.13495 0.0
C1573 C 0.04666 0.47346 0.16131 0.0
H1574 H 0.05838 0.5235 0.18377 0.0
C1575 C 0.10624 0.48734 0.22081 0.0
C1576 C 0.10457 0.50141 0.23378 0.0
C1577 C 0.09271 0.48442 0.2056 0.0
C1578 C 0.05497 0.50927 0.17804 0.0
H1579 H 0.02801 0.47592 0.09006 0.0
H1580 H 0.04777 0.47728 0.11948 0.0
H1581 H 0.0367 0.52025 0.15576 0.0
H1582 H 0.08684 0.52273 0.24162 0.0
H1583 H 0.0626 0.5169 0.21586 0.0
H1584 H 0.0643 0.46217 0.18378 0.0
C1585 C 0.03321 0.48141 0.11933 0.0
C1586 C 0.04264 0.5075 0.16186 0.0
C1587 C 0.02179 0.48054 0.10251 0.0
C1588 C 0.0886 0.51189 0.23174 0.0
C1589 C 0.0748 0.50866 0.2168 0.0
C1590 C 0.05866 0.47509 0.17775 0.0
C1591 C 0.02616 0.48809 0.13564 0.0
C1592 C 0.03856 0.48966 0.15324 0.0
C1593 C 0.0769 0.49522 0.20322 0.0
C1594 C 0.0632 0.49309 0.18626 0.0
H1595 H 0.98112 0.49623 0.11845 0.0
H1596 H 1.00157 0.49869 0.14742 0.0
H1597 H 0.04356 0.45949 0.15499 0.0
H1598 H 0.11854 0.4792 0.22189 0.0
H1599 H 0.09513 0.47418 0.19537 0.0
C1600 C 0.37008 0.69043 0.23848 0.0
C1601 C 0.35883 0.70477 0.23114 0.0
C1602 C 0.38444 0.69463 0.25276 0.0
C1603 C 0.41636 0.73558 0.27331 0.0
H1604 H 0.41945 0.6999 0.31775 0.0
C1605 C 0.46297 0.75801 0.33955 0.0
C1606 C 0.47287 0.74404 0.34952 0.0
C1607 C 0.4497 0.75266 0.32476 0.0
C1608 C 0.41898 0.70987 0.30529 0.0
H1609 H 0.35368 0.73466 0.23346 0.0
H1610 H 0.37898 0.74205 0.25802 0.0
H1611 H 0.39494 0.69143 0.29253 0.0
H1612 H 0.47802 0.71394 0.35117 0.0
H1613 H 0.45469 0.70437 0.3251 0.0
H1614 H 0.44041 0.75397 0.28586 0.0
C1615 C 0.37678 0.72762 0.25258 0.0
C1616 C 0.40491 0.70504 0.29089 0.0
C1617 C 0.36232 0.72339 0.23844 0.0
C1618 C 0.4701 0.7248 0.34391 0.0
C1619 C 0.45672 0.71937 0.32909 0.0
C1620 C 0.43049 0.74033 0.2876 0.0
C1621 C 0.38798 0.7133 0.25988 0.0
C1622 C 0.40335 0.71795 0.27485 0.0
C1623 C 0.44629 0.73324 0.31942 0.0
C1624 C 0.43185 0.72764 0.30385 0.0
H1625 H 0.36796 0.67602 0.23302 0.0
H1626 H 0.393 0.68338 0.258 0.0
H1627 H 0.41569 0.74567 0.26096 0.0
H1628 H 0.46541 0.7731 0.34331 0.0
H1629 H 0.44182 0.76369 0.31777 0.0
C1630 C 0.01396 0.43631 0.01182 0.0
C1631 C 0.99591 0.44068 0.01756 0.0
C1632 C 0.01467 0.42014 1.00119 0.0
C1633 C 0.98346 0.38682 0.96973 0.0
H1634 H 0.02483 0.3546 0.97812 0.0
C1635 C 0.97923 0.31332 0.93622 0.0
C1636 C 0.99607 0.30911 0.92764 0.0
C1637 C 0.98021 0.3293 0.94735 0.0
C1638 C 0.01332 0.3636 0.97549 0.0
H1639 H 0.96444 0.43185 0.01633 0.0
H1640 H 0.96563 0.40328 0.99827 0.0
H1641 H 0.02432 0.38234 0.99759 0.0
H1642 H 0.02733 0.31835 0.92457 0.0
H1643 H 0.02902 0.34639 0.94424 0.0
H1644 H 0.97232 0.36798 0.94783 0.0
C1645 C 0.97927 0.4124 1.00182 0.0
C1646 C 0.013 0.3795 0.98664 0.0
C1647 C 0.97857 0.42862 0.01236 0.0
C1648 C 0.01407 0.32114 0.93092 0.0
C1649 C 0.01506 0.33716 0.94223 0.0
C1650 C 0.98372 0.37091 0.95871 0.0
C1651 C 0.99733 0.40803 0.99595 0.0
C1652 C 0.99796 0.39123 0.98399 0.0
C1653 C 0.99804 0.34155 0.95032 0.0
C1654 C 0.99854 0.359 0.96155 0.0
H1655 H 0.02753 0.44561 0.0153 0.0
H1656 H 0.0288 0.41746 0.99667 0.0
H1657 H 0.97193 0.39578 0.96694 0.0
H1658 H 0.96508 0.30443 0.93416 0.0
H1659 H 0.96691 0.33206 0.95365 0.0
C1660 C 0.65858 0.7945 0.24553 0.0
C1661 C 0.65978 0.81047 0.23209 0.0
C1662 C 0.64511 0.79265 0.26005 0.0
C1663 C 0.61411 0.82203 0.28509 0.0
H1664 H 0.59181 0.77093 0.30658 0.0
C1665 C 0.55004 0.80565 0.33831 0.0
C1666 C 0.55318 0.79266 0.35395 0.0
C1667 C 0.56374 0.80962 0.32394 0.0
C1668 C 0.59805 0.7853 0.30077 0.0
H1669 H 0.64744 0.83656 0.22268 0.0
H1670 H 0.62321 0.83288 0.24739 0.0
H1671 H 0.61288 0.77332 0.27947 0.0
H1672 H 0.57365 0.77452 0.36727 0.0
H1673 H 0.59729 0.78124 0.34206 0.0
H1674 H 0.59849 0.83384 0.30618 0.0
C1675 C 0.63309 0.82213 0.24727 0.0
C1676 C 0.61021 0.7867 0.28527 0.0
C1677 C 0.64681 0.82416 0.23297 0.0
C1678 C 0.57077 0.7846 0.35543 0.0
C1679 C 0.58426 0.78831 0.34095 0.0
C1680 C 0.60162 0.82059 0.30041 0.0
C1681 C 0.6323 0.80655 0.26126 0.0
C1682 C 0.61861 0.80509 0.2773 0.0
C1683 C 0.58062 0.80043 0.32485 0.0
C1684 C 0.59367 0.80221 0.3085 0.0
H1685 H 0.66864 0.78392 0.2453 0.0
H1686 H 0.64527 0.78063 0.27067 0.0
H1687 H 0.62053 0.83645 0.27964 0.0
H1688 H 0.53662 0.81207 0.33676 0.0
H1689 H 0.56063 0.81903 0.31165 0.0
C1690 C 0.01341 0.09038 0.01812 0.0
C1691 C 0.03297 0.08705 0.0211 0.0
C1692 C 0.00898 0.10669 0.00695 0.0
C1693 C 0.03118 0.1559 0.98871 0.0
H1694 H 0.98591 0.15173 0.95401 0.0
C1695 C 0.01744 0.21786 0.93326 0.0
C1696 C 0.99804 0.22163 0.92996 0.0
C1697 C 0.02142 0.20172 0.94491 0.0
C1698 C 0.99845 0.15319 0.96382 0.0
H1699 H 0.06318 0.09816 0.01449 0.0
H1700 H 0.05542 0.12644 0.99469 0.0
H1701 H 0.99354 0.12274 0.97272 0.0
H1702 H 0.96763 0.2114 0.93667 0.0
H1703 H 0.97465 0.18329 0.95716 0.0
H1704 H 0.03615 0.18633 0.97976 0.0
C1705 C 0.04353 0.11656 1.00121 0.0
C1706 C 1.00285 0.13657 0.97452 0.0
C1707 C 0.04796 0.10023 0.01238 0.0
C1708 C 0.98275 0.20898 0.93888 0.0
C1709 C 0.98674 0.19277 0.95052 0.0
C1710 C 0.0268 0.17251 0.97801 0.0
C1711 C 0.02399 0.12006 0.99848 0.0
C1712 C 0.0193 0.13771 0.98706 0.0
C1713 C 0.00612 0.18889 0.95356 0.0
C1714 C 0.01042 0.17135 0.96539 0.0
H1715 H 1.00149 0.08037 0.02444 0.0
H1716 H 0.99379 0.10901 0.00526 0.0
H1717 H 0.04376 0.15737 0.99849 0.0
H1718 H 0.02962 0.22724 0.92664 0.0
H1719 H 0.03648 0.19904 0.94677 0.0
C1720 C 0.37319 0.32909 0.26359 0.0
C1721 C 0.36254 0.31469 0.27559 0.0
C1722 C 0.38915 0.32482 0.25385 0.0
C1723 C 0.42378 0.2885 0.25263 0.0
H1724 H 0.42725 0.30635 0.19947 0.0
C1725 C 0.46488 0.25193 0.19927 0.0
C1726 C 0.47614 0.2638 0.18556 0.0
C1727 C 0.45322 0.26003 0.21134 0.0
C1728 C 0.42668 0.30151 0.21437 0.0
H1729 H 0.36068 0.28494 0.28768 0.0
H1730 H 0.38822 0.27726 0.27044 0.0
H1731 H 0.40285 0.31708 0.21878 0.0
H1732 H 0.48407 0.29364 0.17397 0.0
H1733 H 0.46346 0.3078 0.19505 0.0
H1734 H 0.4472 0.27242 0.248 0.0
C1735 C 0.38445 0.2919 0.26856 0.0
C1736 C 0.4127 0.30767 0.22547 0.0
C1737 C 0.36856 0.29621 0.27832 0.0
C1738 C 0.47561 0.28407 0.18438 0.0
C1739 C 0.46375 0.29218 0.19638 0.0
C1740 C 0.43766 0.28226 0.24151 0.0
C1741 C 0.3948 0.30607 0.256 0.0
C1742 C 0.41084 0.30097 0.24466 0.0
C1743 C 0.45238 0.28021 0.20995 0.0
C1744 C 0.43903 0.28842 0.22217 0.0
H1745 H 0.36895 0.34355 0.26152 0.0
H1746 H 0.39699 0.33619 0.24457 0.0
H1747 H 0.42305 0.28338 0.26745 0.0
H1748 H 0.46493 0.23627 0.20065 0.0
H1749 H 0.44444 0.25039 0.22147 0.0
C1750 C 0.52562 0.43848 0.01833 0.0
C1751 C 0.54552 0.44488 0.01441 0.0
C1752 C 0.52023 0.42219 0.03089 0.0
C1753 C 0.53784 0.39515 0.072 0.0
H1754 H 0.50443 0.34902 0.05524 0.0
C1755 C 0.53518 0.32105 0.114 0.0
C1756 C 0.51787 0.30752 0.11383 0.0
C1757 C 0.53656 0.3385 0.10269 0.0
C1758 C 0.51343 0.36189 0.06035 0.0
H1759 H 0.5752 0.43849 0.02034 0.0
H1760 H 0.56577 0.41088 0.04285 0.0
H1761 H 0.51005 0.37848 0.0339 0.0
H1762 H 0.4882 0.30186 0.10205 0.0
H1763 H 0.49031 0.33273 0.08277 0.0
H1764 H 0.5411 0.379 0.09848 0.0
C1765 C 0.55443 0.41853 0.03617 0.0
C1766 C 0.51669 0.37871 0.04806 0.0
C1767 C 0.5598 0.43448 0.02335 0.0
C1768 C 0.50178 0.31199 0.10239 0.0
C1769 C 0.50305 0.32964 0.09125 0.0
C1770 C 0.53431 0.37852 0.0844 0.0
C1771 C 0.53464 0.41226 0.04005 0.0
C1772 C 0.52929 0.39529 0.05365 0.0
C1773 C 0.52055 0.34307 0.09112 0.0
C1774 C 0.52248 0.36146 0.07859 0.0
H1775 H 0.5142 0.44618 0.01193 0.0
H1776 H 0.50485 0.41758 0.03375 0.0
H1777 H 0.54745 0.40788 0.07667 0.0
H1778 H 0.54791 0.31796 0.12252 0.0
H1779 H 0.55044 0.34815 0.1027 0.0
C1780 C 0.66079 0.20972 0.296 0.0
C1781 C 0.6802 0.21279 0.28986 0.0
C1782 C 0.64513 0.21059 0.28292 0.0
C1783 C 0.63233 0.23427 0.2381 0.0
H1784 H 0.58815 0.19265 0.23555 0.0
C1785 C 0.57022 0.23809 0.18143 0.0
C1786 C 0.55103 0.22992 0.18623 0.0
C1787 C 0.58611 0.23527 0.19369 0.0
C1788 C 0.60018 0.20458 0.23625 0.0
H1789 H 0.69855 0.21913 0.2654 0.0
H1790 H 0.67107 0.22119 0.24251 0.0
H1791 H 0.61552 0.18891 0.25785 0.0
H1792 H 0.5334 0.21259 0.20775 0.0
H1793 H 0.56094 0.20843 0.22957 0.0
H1794 H 0.61687 0.25041 0.21726 0.0
C1795 C 0.66804 0.21787 0.2574 0.0
C1796 C 0.61591 0.20232 0.24894 0.0
C1797 C 0.68369 0.21659 0.27042 0.0
C1798 C 0.54805 0.21896 0.20361 0.0
C1799 C 0.5639 0.21646 0.21606 0.0
C1800 C 0.61646 0.23671 0.22569 0.0
C1801 C 0.64864 0.21495 0.26356 0.0
C1802 C 0.63213 0.21712 0.24992 0.0
C1803 C 0.58319 0.22452 0.21126 0.0
C1804 C 0.60015 0.22188 0.22453 0.0
H1805 H 0.65778 0.20674 0.31092 0.0
H1806 H 0.63029 0.20839 0.288 0.0
H1807 H 0.64459 0.24599 0.2388 0.0
H1808 H 0.57301 0.2464 0.16802 0.0
H1809 H 0.60072 0.24134 0.18922 0.0
C1810 C 0.50834 0.1036 0.01008 0.0
C1811 C 0.49802 0.08562 0.01703 0.0
C1812 C 0.51089 0.11982 0.02116 0.0
C1813 C 0.48929 0.13924 0.06152 0.0
H1814 H 0.53835 0.17473 0.06315 0.0
C1815 C 0.53053 0.20563 0.10872 0.0
C1816 C 0.51435 0.21494 0.1118 0.0
C1817 C 0.52877 0.1905 0.09639 0.0
C1818 C 0.52458 0.16489 0.063 0.0
H1819 H 0.48305 0.07038 0.04134 0.0
H1820 H 0.48755 0.09857 0.06064 0.0
H1821 H 0.53525 0.14656 0.04382 0.0
H1822 H 0.48429 0.21734 0.10323 0.0
H1823 H 0.48121 0.19128 0.08126 0.0
H1824 H 0.47863 0.15725 0.08079 0.0
C1825 C 0.49329 0.10029 0.04649 0.0
C1826 C 0.52275 0.14886 0.05172 0.0
C1827 C 0.49073 0.08412 0.03544 0.0
C1828 C 0.49673 0.20979 0.10155 0.0
C1829 C 0.49501 0.19487 0.08899 0.0
C1830 C 0.49111 0.15525 0.07275 0.0
C1831 C 0.50319 0.1184 0.03941 0.0
C1832 C 0.50513 0.13575 0.05099 0.0
C1833 C 0.51094 0.18481 0.08643 0.0
C1834 C 0.50883 0.1682 0.07381 0.0
H1835 H 0.51396 0.10528 0.99589 0.0
H1836 H 0.51843 0.13361 0.01522 0.0
H1837 H 0.47539 0.12963 0.06103 0.0
H1838 H 0.54439 0.20972 0.11625 0.0
H1839 H 0.54129 0.18301 0.09499 0.0
C1840 C 0.23191 0.35799 0.69735 0.0
C1841 C 0.22267 0.34841 0.71351 0.0
C1842 C 0.24651 0.37421 0.69909 0.0
C1843 C 0.28176 0.39732 0.73461 0.0
H1844 H 0.28472 0.4434 0.69987 0.0
C1845 C 0.33332 0.46715 0.75115 0.0
C1846 C 0.34341 0.47793 0.73616 0.0
C1847 C 0.31818 0.45201 0.74753 0.0
C1848 C 0.28426 0.43056 0.70957 0.0
H1849 H 0.22175 0.34831 0.74419 0.0
H1850 H 0.24654 0.37674 0.74713 0.0
H1851 H 0.25931 0.41548 0.69483 0.0
H1852 H 0.34497 0.48251 0.70567 0.0
H1853 H 0.31895 0.45536 0.69915 0.0
H1854 H 0.30618 0.41226 0.74963 0.0
C1855 C 0.24276 0.37165 0.73312 0.0
C1856 C 0.26969 0.41455 0.70666 0.0
C1857 C 0.2283 0.35548 0.73139 0.0
C1858 C 0.33754 0.47405 0.71742 0.0
C1859 C 0.32256 0.45864 0.71375 0.0
C1860 C 0.29615 0.41328 0.73757 0.0
C1861 C 0.2522 0.38111 0.71704 0.0
C1862 C 0.26817 0.39783 0.7193 0.0
C1863 C 0.31286 0.44724 0.7288 0.0
C1864 C 0.29759 0.43017 0.72518 0.0
H1865 H 0.22781 0.35299 0.68336 0.0
H1866 H 0.25359 0.38111 0.68644 0.0
H1867 H 0.2813 0.38452 0.74439 0.0
H1868 H 0.3372 0.47039 0.76572 0.0
H1869 H 0.3107 0.44402 0.75949 0.0
C1870 C 0.28518 0.68524 0.7946 0.0
C1871 C 0.26539 0.6806 0.79941 0.0
C1872 C 0.29652 0.67048 0.79242 0.0
C1873 C 0.29999 0.61862 0.80452 0.0
H1874 H 0.33087 0.62319 0.75937 0.0
C1875 C 0.33756 0.55501 0.78116 0.0
C1876 C 0.35541 0.55971 0.77181 0.0
C1877 C 0.32709 0.56977 0.78577 0.0
C1878 C 0.32265 0.62179 0.77225 0.0
H1879 H 0.24175 0.65674 0.80506 0.0
H1880 H 0.26171 0.63087 0.80162 0.0
H1881 H 0.31178 0.64885 0.76525 0.0
H1882 H 0.37674 0.58358 0.76076 0.0
H1883 H 0.35894 0.60931 0.76938 0.0
H1884 H 0.31105 0.59168 0.81168 0.0
C1885 C 0.26852 0.646 0.79988 0.0
C1886 C 0.31162 0.6365 0.77556 0.0
C1887 C 0.2571 0.6608 0.80186 0.0
C1888 C 0.36293 0.57948 0.7678 0.0
C1889 C 0.35261 0.59423 0.77262 0.0
C1890 C 0.31121 0.60397 0.80132 0.0
C1891 C 0.28829 0.65069 0.79494 0.0
C1892 C 0.30015 0.63507 0.79169 0.0
C1893 C 0.33435 0.5896 0.78133 0.0
C1894 C 0.32268 0.60533 0.7851 0.0
H1895 H 0.29182 0.70037 0.79226 0.0
H1896 H 0.31173 0.67454 0.78867 0.0
H1897 H 0.2914 0.61722 0.81716 0.0
H1898 H 0.33134 0.53989 0.78435 0.0
H1899 H 0.31301 0.56558 0.79227 0.0
C1900 C 0.93701 0.5275 0.51188 0.0
C1901 C 0.94698 0.52959 0.49467 0.0
C1902 C 0.91851 0.51614 0.51334 0.0
C1903 C 0.88792 0.47436 0.49571 0.0
H1904 H 0.84254 0.49871 0.50584 0.0
C1905 C 0.8106 0.43061 0.50665 0.0
C1906 C 0.79684 0.43605 0.49282 0.0
C1907 C 0.82863 0.44252 0.50923 0.0
C1908 C 0.85514 0.49175 0.50317 0.0
H1909 H 0.94493 0.52123 0.46547 0.0
H1910 H 0.9132 0.50061 0.46848 0.0
H1911 H 0.8754 0.51824 0.50581 0.0
H1912 H 0.79067 0.45865 0.4716 0.0
H1913 H 0.82198 0.47978 0.47663 0.0
H1914 H 0.86776 0.44788 0.49316 0.0
C1915 C 0.91978 0.50799 0.48071 0.0
C1916 C 0.87384 0.50285 0.5032 0.0
C1917 C 0.93804 0.51969 0.47909 0.0
C1918 C 0.80102 0.45409 0.48234 0.0
C1919 C 0.81886 0.46619 0.48524 0.0
C1920 C 0.86931 0.46317 0.49612 0.0
C1921 C 0.90982 0.50627 0.49778 0.0
C1922 C 0.8903 0.49428 0.49918 0.0
C1923 C 0.83298 0.46026 0.49836 0.0
C1924 C 0.85275 0.47184 0.49959 0.0
H1925 H 0.94351 0.53451 0.52432 0.0
H1926 H 0.91109 0.51486 0.52668 0.0
H1927 H 0.90045 0.46751 0.49259 0.0
H1928 H 0.80786 0.41673 0.51484 0.0
H1929 H 0.83934 0.4377 0.51945 0.0
C1930 C 0.79264 0.86811 0.84003 0.0
C1931 C 0.79472 0.85389 0.82735 0.0
C1932 C 0.77779 0.87986 0.83698 0.0
C1933 C 0.74323 0.89578 0.79902 0.0
H1934 H 0.71777 0.91354 0.84113 0.0
C1935 C 0.67536 0.93492 0.78772 0.0
C1936 C 0.67692 0.95303 0.79588 0.0
C1937 C 0.68872 0.92202 0.7929 0.0
C1938 C 0.72481 0.90871 0.82926 0.0
H1939 H 0.78253 0.84024 0.80199 0.0
H1940 H 0.7563 0.86013 0.79698 0.0
H1941 H 0.74313 0.89254 0.8474 0.0
H1942 H 0.69307 0.97137 0.81661 0.0
H1943 H 0.7162 0.94858 0.82594 0.0
H1944 H 0.72459 0.91162 0.78093 0.0
C1945 C 0.76647 0.86285 0.80891 0.0
C1946 C 0.73944 0.89677 0.83281 0.0
C1947 C 0.78146 0.85135 0.8118 0.0
C1948 C 0.69151 0.95753 0.81005 0.0
C1949 C 0.70471 0.94448 0.81543 0.0
C1950 C 0.72844 0.90743 0.79549 0.0
C1951 C 0.76452 0.87743 0.82133 0.0
C1952 C 0.74888 0.89014 0.81772 0.0
C1953 C 0.70375 0.92682 0.80654 0.0
C1954 C 0.71909 0.91404 0.81055 0.0
H1955 H 0.80274 0.8704 0.85209 0.0
H1956 H 0.77699 0.89109 0.84672 0.0
H1957 H 0.75043 0.89145 0.787 0.0
H1958 H 0.6643 0.93102 0.77675 0.0
H1959 H 0.68752 0.90841 0.78597 0.0
C1960 C 0.59878 0.52211 0.98864 0.0
C1961 C 0.59582 0.50197 0.99402 0.0
C1962 C 0.61713 0.53337 0.99142 0.0
C1963 C 0.66189 0.53633 0.02085 0.0
H1964 H 0.68536 0.56995 0.97925 0.0
C1965 C 0.72705 0.59756 0.0325 0.0
C1966 C 0.74067 0.60231 0.01814 0.0
C1967 C 0.7102 0.58399 0.02965 0.0
C1968 C 0.67905 0.56075 0.99107 0.0
H1969 H 0.61016 0.47793 0.0063 0.0
H1970 H 0.64191 0.49782 0.01177 0.0
H1971 H 0.65396 0.54949 0.97412 0.0
H1972 H 0.74867 0.59545 0.99038 0.0
H1973 H 0.71945 0.57143 0.9854 0.0
H1974 H 0.68682 0.5477 0.03788 0.0
C1975 C 0.62995 0.50479 0.0054 0.0
C1976 C 0.66101 0.54905 0.9881 0.0
C1977 C 0.6117 0.49345 0.00234 0.0
C1978 C 0.73792 0.59245 1.00136 0.0
C1979 C 0.7212 0.57872 0.99856 0.0
C1980 C 0.67979 0.54832 0.02391 0.0
C1981 C 0.63284 0.52483 0.9999 0.0
C1982 C 0.6522 0.53684 0.00299 0.0
C1983 C 0.70695 0.57452 0.01255 0.0
C1984 C 0.68849 0.56089 0.00911 0.0
H1985 H 0.58687 0.52929 0.98251 0.0
H1986 H 0.61896 0.54886 0.98723 0.0
H1987 H 0.65541 0.52698 0.03255 0.0
H1988 H 0.72914 0.6048 0.04569 0.0
H1989 H 0.69949 0.58132 0.04067 0.0
C1990 C 0.28229 0.65868 0.20223 0.0
C1991 C 0.30271 0.65909 0.20423 0.0
C1992 C 0.26961 0.64108 0.20487 0.0
C1993 C 0.2679 0.59228 0.2294 0.0
H1994 H 0.21801 0.58201 0.20185 0.0
C1995 C 0.20261 0.54021 0.25961 0.0
C1996 C 0.18962 0.52925 0.2473 0.0
C1997 C 0.21799 0.55373 0.25246 0.0
C1998 C 0.23201 0.58448 0.20948 0.0
H1999 H 0.32589 0.64129 0.20968 0.0
H2000 H 0.30376 0.61046 0.21408 0.0
H2001 H 0.24181 0.61017 0.19184 0.0
H2002 H 0.18323 0.52232 0.21814 0.0
H2003 H 0.21024 0.54627 0.20536 0.0
H2004 H 0.25812 0.56666 0.24706 0.0
C2005 C 0.29752 0.62381 0.21086 0.0
C2006 C 0.24556 0.60076 0.2039 0.0
C2007 C 0.3102 0.64144 0.20832 0.0
C2008 C 0.1929 0.53103 0.22778 0.0
C2009 C 0.20827 0.54472 0.22054 0.0
C2010 C 0.2544 0.57601 0.23494 0.0
C2011 C 0.27706 0.62346 0.20948 0.0
C2012 C 0.2635 0.60508 0.21404 0.0
C2013 C 0.22081 0.55642 0.23281 0.0
C2014 C 0.23611 0.57217 0.22534 0.0
H2015 H 0.27608 0.67209 0.19932 0.0
H2016 H 0.25394 0.64142 0.20402 0.0
H2017 H 0.28148 0.59522 0.23765 0.0
H2018 H 0.2006 0.53861 0.2748 0.0
H2019 H 0.22719 0.5626 0.26232 0.0
C2020 C 0.94646 0.51754 0.03949 0.0
C2021 C 0.95089 0.51116 0.05833 0.0
C2022 C 0.93274 0.53038 0.03555 0.0
C2023 C 0.90963 0.56809 0.05589 0.0
H2024 H 0.86716 0.55464 0.01931 0.0
C2025 C 0.84321 0.61048 0.04742 0.0
C2026 C 0.83367 0.61199 0.02955 0.0
C2027 C 0.85831 0.59906 0.05043 0.0
C2028 C 0.8791 0.55891 0.0293 0.0
H2029 H 0.94393 0.51338 0.08774 0.0
H2030 H 0.92063 0.53632 0.08081 0.0
H2031 H 0.89211 0.53331 0.02523 0.0
H2032 H 0.83298 0.60335 1.00063 0.0
H2033 H 0.85984 0.5842 0.00557 0.0
H2034 H 0.89706 0.5939 0.0597 0.0
C2035 C 0.92786 0.53131 0.06915 0.0
C2036 C 0.89335 0.54656 0.03275 0.0
C2037 C 0.94132 0.51821 0.07309 0.0
C2038 C 0.83996 0.60235 0.01461 0.0
C2039 C 0.85527 0.5912 0.01752 0.0
C2040 C 0.89557 0.58063 0.05222 0.0
C2041 C 0.92335 0.53744 0.05034 0.0
C2042 C 0.90866 0.55094 0.0462 0.0
C2043 C 0.86447 0.58909 0.03556 0.0
C2044 C 0.87998 0.57614 0.03898 0.0
H2045 H 0.95374 0.51279 0.02773 0.0
H2046 H 0.92966 0.53502 0.02092 0.0
H2047 H 0.92141 0.57192 0.06619 0.0
H2048 H 0.83858 0.61762 0.05926 0.0
H2049 H 0.86472 0.59761 0.0646 0.0
C2050 C 0.09091 0.01138 0.00332 0.0
C2051 C 0.08195 0.00701 0.02089 0.0
C2052 C 0.10729 0.00287 0.9992 0.0
C2053 C 0.14726 0.97813 0.02158 0.0
H2054 H 0.14873 0.95741 0.97217 0.0
C2055 C 0.20236 0.92695 0.00505 0.0
C2056 C 0.21075 0.92934 0.98706 0.0
C2057 C 0.18725 0.93727 0.00909 0.0
C2058 C 0.14871 0.96335 0.98594 0.0
H2059 H 0.08345 0.99116 0.04825 0.0
H2060 H 0.11201 0.9761 0.04107 0.0
H2061 H 0.1215 0.97411 0.97946 0.0
H2062 H 0.20977 0.94467 0.95926 0.0
H2063 H 0.18357 0.96281 0.96642 0.0
H2064 H 0.17443 0.96731 0.02809 0.0
C2065 C 0.10643 0.98606 0.03044 0.0
C2066 C 0.13308 0.97292 0.99013 0.0
C2067 C 0.09002 0.99454 0.03452 0.0
C2068 C 0.20367 0.94241 0.97325 0.0
C2069 C 0.18854 0.95274 0.97732 0.0
C2070 C 0.16291 0.96858 0.01738 0.0
C2071 C 0.11514 0.98997 0.01265 0.0
C2072 C 0.13211 0.98033 0.00804 0.0
C2073 C 0.18012 0.95027 0.99528 0.0
C2074 C 0.16378 0.96097 0.99955 0.0
H2075 H 0.08512 0.02123 0.99271 0.0
H2076 H 0.11386 0.00646 0.9855 0.0
H2077 H 0.14712 0.98393 0.03541 0.0
H2078 H 0.20736 0.91699 0.01604 0.0
H2079 H 0.18092 0.93478 0.02298 0.0
loop_
_geom_bond_atom_site_label_1
_geom_bond_atom_site_label_2
_geom_bond_distance
_geom_bond_site_symmetry_2
_ccdc_geom_bond_type
H0 C7 0.929 . S
H1 C10 0.930 . S
H2 C12 0.929 . S
H3 C4 0.976 . S
C4 H3 0.976 . S
C4 O5 1.538 1_565 S
C4 H6 0.974 . S
O5 C4 1.538 1_545 S
O5 C11 1.412 . S
H6 C4 0.974 . S
C7 H0 0.929 . S
C7 C8 1.400 . S
C7 C9 1.364 . S
C8 C7 1.400 . S
C8 C12 1.377 . S
C9 C7 1.364 . S
C9 C10 1.374 . S
C10 H1 0.930 . S
C10 C9 1.374 . S
C10 C11 1.383 . S
C11 O5 1.412 . S
C11 C10 1.383 . S
C11 C12 1.394 . S
C12 H2 0.929 . S
C12 C8 1.377 . S
C12 C11 1.394 . S
H13 C20 0.929 . S
H14 C23 0.930 . S
H15 C25 0.929 . S
H16 C17 0.969 . S
C17 H16 0.969 . S
C17 O18 1.550 . S
C17 H19 0.973 . S
O18 C17 1.550 . S
O18 C24 1.412 . S
H19 C17 0.973 . S
C20 H13 0.929 . S
C20 C21 1.400 . S
C20 C22 1.364 . S
C21 C20 1.400 . S
C21 C25 1.377 . S
C22 C20 1.364 . S
C22 C23 1.374 . S
C23 H14 0.930 . S
C23 C22 1.374 . S
C23 C24 1.383 . S
C24 O18 1.412 . S
C24 C23 1.383 . S
C24 C25 1.394 . S
C25 H15 0.929 . S
C25 C21 1.377 . S
C25 C24 1.394 . S
H26 C33 0.929 . S
H27 C36 0.930 . S
H28 C38 0.929 1_455 S
H29 C30 0.969 . S
C30 H29 0.969 . S
C30 O31 1.550 . S
C30 H32 0.973 . S
O31 C30 1.550 . S
O31 C37 1.412 . S
H32 C30 0.973 . S
C33 H26 0.929 . S
C33 C34 1.400 . S
C33 C35 1.364 . S
C34 C33 1.400 . S
C34 C38 1.377 . S
C35 C33 1.364 . S
C35 C36 1.374 . S
C36 H27 0.930 . S
C36 C35 1.374 . S
C36 C37 1.383 . S
C37 O31 1.412 . S
C37 C36 1.383 . S
C37 C38 1.394 . S
C38 H28 0.929 1_655 S
C38 C34 1.377 . S
C38 C37 1.394 . S
H39 C46 0.929 . S
H40 C49 0.930 . S
H41 C51 0.929 . S
H42 C43 0.969 . S
C43 H42 0.969 . S
C43 O44 1.550 . S
C43 H45 0.973 . S
O44 C43 1.550 . S
O44 C50 1.412 . S
H45 C43 0.973 . S
C46 H39 0.929 . S
C46 C47 1.400 . S
C46 C48 1.364 . S
C47 C46 1.400 . S
C47 C51 1.377 . S
C48 C46 1.364 . S
C48 C49 1.374 . S
C49 H40 0.930 . S
C49 C48 1.374 . S
C49 C50 1.383 . S
C50 O44 1.412 . S
C50 C49 1.383 . S
C50 C51 1.394 . S
C51 H41 0.929 . S
C51 C47 1.377 . S
C51 C50 1.394 . S
H52 C59 0.929 . S
H53 C62 0.930 . S
H54 C64 0.929 1_545 S
H55 C56 0.969 . S
C56 H55 0.969 . S
C56 O57 1.550 . S
C56 H58 0.973 . S
O57 C56 1.550 . S
O57 C63 1.412 . S
H58 C56 0.973 . S
C59 H52 0.929 . S
C59 C60 1.400 . S
C59 C61 1.364 . S
C60 C59 1.400 . S
C60 C64 1.377 . S
C61 C59 1.364 . S
C61 C62 1.374 . S
C62 H53 0.930 . S
C62 C61 1.374 . S
C62 C63 1.383 . S
C63 O57 1.412 . S
C63 C62 1.383 . S
C63 C64 1.394 . S
C64 H54 0.929 1_565 S
C64 C60 1.377 . S
C64 C63 1.394 . S
H65 C72 0.929 . S
H66 C75 0.930 . S
H67 C77 0.929 . S
H68 C69 0.969 . S
C69 H68 0.969 . S
C69 O70 1.550 . S
C69 H71 0.973 . S
O70 C69 1.550 . S
O70 C76 1.412 . S
H71 C69 0.973 . S
C72 H65 0.929 . S
C72 C73 1.400 . S
C72 C74 1.364 . S
C73 C72 1.400 . S
C73 C77 1.377 . S
C74 C72 1.364 . S
C74 C75 1.374 . S
C75 H66 0.930 . S
C75 C74 1.374 . S
C75 C76 1.383 . S
C76 O70 1.412 . S
C76 C75 1.383 . S
C76 C77 1.394 . S
C77 H67 0.929 . S
C77 C73 1.377 . S
C77 C76 1.394 . S
H78 C85 0.929 . S
H79 C88 0.930 . S
H80 C90 0.929 . S
H81 C82 0.969 . S
C82 H81 0.969 . S
C82 O83 1.550 . S
C82 H84 0.973 . S
O83 C82 1.550 . S
O83 C89 1.465 . S
H84 C82 0.973 . S
C85 H78 0.929 . S
C85 C86 1.400 . S
C85 C87 1.364 . S
C86 C85 1.400 . S
C86 C90 1.377 1_655 S
C87 C85 1.364 . S
C87 C88 1.374 . S
C88 H79 0.930 . S
C88 C87 1.374 . S
C88 C89 1.342 1_655 S
C89 O83 1.465 . S
C89 C88 1.342 1_455 S
C89 C90 1.395 . S
C90 H80 0.929 . S
C90 C86 1.377 1_455 S
C90 C89 1.395 . S
H91 C98 0.929 . S
H92 C101 0.930 . S
H93 C103 0.929 . S
H94 C95 0.969 . S
C95 H94 0.969 . S
C95 O96 1.550 . S
C95 H97 0.973 . S
O96 C95 1.550 . S
O96 C102 1.412 . S
H97 C95 0.973 . S
C98 H91 0.929 . S
C98 C99 1.400 . S
C98 C100 1.364 . S
C99 C98 1.400 . S
C99 C103 1.377 . S
C100 C98 1.364 . S
C100 C101 1.374 . S
C101 H92 0.930 . S
C101 C100 1.374 . S
C101 C102 1.383 . S
C102 O96 1.412 . S
C102 C101 1.383 . S
C102 C103 1.394 . S
C103 H93 0.929 . S
C103 C99 1.377 . S
C103 C102 1.394 . S
H104 C111 0.929 . S
H105 C114 0.930 . S
H106 C116 0.929 . S
H107 C108 0.969 . S
C108 H107 0.969 . S
C108 O109 1.550 . S
C108 H110 0.973 . S
O109 C108 1.550 . S
O109 C115 1.412 . S
H110 C108 0.973 . S
C111 H104 0.929 . S
C111 C112 1.400 . S
C111 C113 1.364 . S
C112 C111 1.400 . S
C112 C116 1.377 . S
C113 C111 1.364 . S
C113 C114 1.374 . S
C114 H105 0.930 . S
C114 C113 1.374 . S
C114 C115 1.383 . S
C115 O109 1.412 . S
C115 C114 1.383 . S
C115 C116 1.394 . S
C116 H106 0.929 . S
C116 C112 1.377 . S
C116 C115 1.394 . S
H117 C124 0.929 . S
H118 C127 0.930 . S
H119 C129 0.929 . S
H120 C121 0.969 . S
C121 H120 0.969 . S
C121 O122 1.550 . S
C121 H123 0.973 . S
O122 C121 1.550 . S
O122 C128 1.412 . S
H123 C121 0.973 . S
C124 H117 0.929 . S
C124 C125 1.400 . S
C124 C126 1.364 . S
C125 C124 1.400 . S
C125 C129 1.377 . S
C126 C124 1.364 . S
C126 C127 1.374 . S
C127 H118 0.930 . S
C127 C126 1.374 . S
C127 C128 1.383 . S
C128 O122 1.412 . S
C128 C127 1.383 . S
C128 C129 1.394 . S
C129 H119 0.929 . S
C129 C125 1.377 . S
C129 C128 1.394 . S
H130 C137 0.929 . S
H131 C140 0.930 . S
H132 C142 0.929 . S
H133 C134 0.969 . S
C134 H133 0.969 . S
C134 O135 1.550 . S
C134 H136 0.973 . S
O135 C134 1.550 . S
O135 C141 1.412 . S
H136 C134 0.973 . S
C137 H130 0.929 . S
C137 C138 1.400 . S
C137 C139 1.364 . S
C138 C137 1.400 . S
C138 C142 1.377 . S
C139 C137 1.364 . S
C139 C140 1.374 . S
C140 H131 0.930 . S
C140 C139 1.374 . S
C140 C141 1.383 . S
C141 O135 1.412 . S
C141 C140 1.383 . S
C141 C142 1.394 . S
C142 H132 0.929 . S
C142 C138 1.377 . S
C142 C141 1.394 . S
H143 C150 0.929 . S
H144 C153 0.930 . S
H145 C155 0.929 . S
H146 C147 0.969 . S
C147 H146 0.969 . S
C147 O148 1.550 . S
C147 H149 0.973 . S
O148 C147 1.550 . S
O148 C154 1.412 . S
H149 C147 0.973 . S
C150 H143 0.929 . S
C150 C151 1.400 . S
C150 C152 1.364 . S
C151 C150 1.400 . S
C151 C155 1.377 . S
C152 C150 1.364 . S
C152 C153 1.374 . S
C153 H144 0.930 . S
C153 C152 1.374 . S
C153 C154 1.383 . S
C154 O148 1.412 . S
C154 C153 1.383 . S
C154 C155 1.394 . S
C155 H145 0.929 . S
C155 C151 1.377 . S
C155 C154 1.394 . S
H156 C163 0.929 . S
H157 C166 0.930 . S
H158 C168 0.929 . S
H159 C160 0.969 . S
C160 H159 0.969 . S
C160 O161 1.550 . S
C160 H162 0.973 . S
O161 C160 1.550 . S
O161 C167 1.412 . S
H162 C160 0.973 . S
C163 H156 0.929 . S
C163 C164 1.400 . S
C163 C165 1.364 . S
C164 C163 1.400 . S
C164 C168 1.377 . S
C165 C163 1.364 . S
C165 C166 1.374 . S
C166 H157 0.930 . S
C166 C165 1.374 . S
C166 C167 1.383 . S
C167 O161 1.412 . S
C167 C166 1.383 . S
C167 C168 1.394 . S
C168 H158 0.929 . S
C168 C164 1.377 . S
C168 C167 1.394 . S
H169 C176 0.929 . S
H170 C179 0.930 . S
H171 C181 0.929 . S
H172 C173 0.969 . S
C173 H172 0.969 . S
C173 O174 1.550 . S
C173 H175 0.973 . S
O174 C173 1.550 . S
O174 C180 1.412 . S
H175 C173 0.973 . S
C176 H169 0.929 . S
C176 C177 1.400 . S
C176 C178 1.364 . S
C177 C176 1.400 . S
C177 C181 1.377 . S
C178 C176 1.364 . S
C178 C179 1.374 . S
C179 H170 0.930 . S
C179 C178 1.374 . S
C179 C180 1.383 . S
C180 O174 1.412 . S
C180 C179 1.383 . S
C180 C181 1.394 . S
C181 H171 0.929 . S
C181 C177 1.377 . S
C181 C180 1.394 . S
H182 C189 0.929 . S
H183 C192 0.930 . S
H184 C194 0.929 . S
H185 C186 0.969 . S
C186 H185 0.969 . S
C186 O187 1.550 . S
C186 H188 0.973 . S
O187 C186 1.550 . S
O187 C193 1.412 . S
H188 C186 0.973 . S
C189 H182 0.929 . S
C189 C190 1.400 . S
C189 C191 1.364 . S
C190 C189 1.400 . S
C190 C194 1.377 . S
C191 C189 1.364 . S
C191 C192 1.374 . S
C192 H183 0.930 . S
C192 C191 1.374 . S
C192 C193 1.383 . S
C193 O187 1.412 . S
C193 C192 1.383 . S
C193 C194 1.394 . S
C194 H184 0.929 . S
C194 C190 1.377 . S
C194 C193 1.394 . S
H195 C202 0.929 . S
H196 C205 0.930 . S
H197 C207 0.929 . S
H198 C199 0.969 . S
C199 H198 0.969 . S
C199 O200 1.550 . S
C199 H201 0.973 . S
O200 C199 1.550 . S
O200 C206 1.412 . S
H201 C199 0.973 . S
C202 H195 0.929 . S
C202 C203 1.401 . S
C202 C204 1.364 1_554 S
C203 C202 1.401 . S
C203 C207 1.342 1_554 S
C204 C202 1.364 1_556 S
C204 C205 1.374 . S
C205 H196 0.930 . S
C205 C204 1.374 . S
C205 C206 1.383 . S
C206 O200 1.412 . S
C206 C205 1.383 . S
C206 C207 1.394 . S
C207 H197 0.929 . S
C207 C203 1.342 1_556 S
C207 C206 1.394 . S
Mn208 O213 2.095 . S
Mn208 O223 2.162 . S
Mn208 O224 2.297 . S
Mn208 O232 2.385 1_554 S
Mn208 O233 2.209 1_554 S
Mn208 O234 2.094 . S
Mn209 O214 2.121 . S
Mn209 N216 2.257 . S
Mn209 N225 2.282 . S
Mn209 O233 2.215 . S
Mn209 O235 2.117 . S
C210 O232 1.234 . S
C210 O233 1.283 . S
C211 O223 1.281 . S
C211 O224 1.236 . S
C212 O234 1.240 1_556 S
C212 O235 1.264 . S
O213 Mn208 2.095 . S
O213 C222 1.250 1_554 S
O214 Mn209 2.121 . S
O214 C222 1.258 . S
C215 N216 1.326 . S
C215 C219 1.460 . S
C215 H221 0.929 . S
N216 Mn209 2.257 . S
N216 C215 1.326 . S
N216 C220 1.362 . S
C217 C218 1.258 . S
C217 C220 1.431 . S
C217 C237 1.449 . S
C218 C217 1.258 . S
C218 C219 1.477 . S
C218 H238 0.931 . S
C219 C215 1.460 . S
C219 C218 1.477 . S
C219 H239 0.930 . S
C220 N216 1.362 . S
C220 C217 1.431 . S
C220 C230 1.476 . S
H221 C215 0.929 . S
C222 O213 1.250 1_556 S
C222 O214 1.258 . S
O223 Mn208 2.162 . S
O223 C211 1.281 . S
O224 Mn208 2.297 . S
O224 C211 1.236 . S
N225 Mn209 2.282 . S
N225 C226 1.328 . S
N225 C230 1.318 . S
C226 N225 1.328 . S
C226 C227 1.457 . S
C226 H231 0.929 . S
C227 C226 1.457 . S
C227 C228 1.291 . S
C227 H240 0.931 . S
C228 C227 1.291 . S
C228 C229 1.373 . S
C228 H241 0.929 . S
C229 C228 1.373 . S
C229 C230 1.396 . S
C229 C236 1.403 . S
C230 C220 1.476 . S
C230 N225 1.318 . S
C230 C229 1.396 . S
H231 C226 0.929 . S
O232 Mn208 2.385 1_556 S
O232 C210 1.234 . S
O233 Mn208 2.209 1_556 S
O233 Mn209 2.215 . S
O233 C210 1.283 . S
O234 Mn208 2.094 . S
O234 C212 1.240 1_554 S
O235 Mn209 2.117 . S
O235 C212 1.264 . S
C236 C229 1.403 . S
C236 C237 1.399 . S
C236 H242 0.929 . S
C237 C217 1.449 . S
C237 C236 1.399 . S
C237 H243 0.930 . S
H238 C218 0.931 . S
H239 C219 0.930 . S
H240 C227 0.931 . S
H241 C228 0.929 . S
H242 C236 0.929 . S
H243 C237 0.930 . S
Mn244 O249 2.095 . S
Mn244 O259 2.162 . S
Mn244 O260 2.297 . S
Mn244 O268 2.385 . S
Mn244 O269 2.209 . S
Mn244 O270 2.094 . S
Mn245 O250 2.121 . S
Mn245 N252 2.257 . S
Mn245 N261 2.282 . S
Mn245 O269 2.215 . S
Mn245 O271 2.117 . S
C246 O268 1.234 . S
C246 O269 1.283 . S
C247 O259 1.281 . S
C247 O260 1.236 . S
C248 O270 1.240 . S
C248 O271 1.264 . S
O249 Mn244 2.095 . S
O249 C258 1.250 . S
O250 Mn245 2.121 . S
O250 C258 1.258 . S
C251 N252 1.326 . S
C251 C255 1.460 . S
C251 H257 0.929 . S
N252 Mn245 2.257 . S
N252 C251 1.326 . S
N252 C256 1.362 . S
C253 C254 1.258 . S
C253 C256 1.431 . S
C253 C273 1.449 . S
C254 C253 1.258 . S
C254 C255 1.477 . S
C254 H274 0.931 . S
C255 C251 1.460 . S
C255 C254 1.477 . S
C255 H275 0.930 . S
C256 N252 1.362 . S
C256 C253 1.431 . S
C256 C266 1.476 . S
H257 C251 0.929 . S
C258 O249 1.250 . S
C258 O250 1.258 . S
O259 Mn244 2.162 . S
O259 C247 1.281 . S
O260 Mn244 2.297 . S
O260 C247 1.236 . S
N261 Mn245 2.282 . S
N261 C262 1.328 . S
N261 C266 1.318 . S
C262 N261 1.328 . S
C262 C263 1.457 . S
C262 H267 0.929 . S
C263 C262 1.457 . S
C263 C264 1.291 . S
C263 H276 0.931 . S
C264 C263 1.291 . S
C264 C265 1.373 . S
C264 H277 0.929 . S
C265 C264 1.373 . S
C265 C266 1.396 . S
C265 C272 1.403 . S
C266 C256 1.476 . S
C266 N261 1.318 . S
C266 C265 1.396 . S
H267 C262 0.929 . S
O268 Mn244 2.385 . S
O268 C246 1.234 . S
O269 Mn244 2.209 . S
O269 Mn245 2.215 . S
O269 C246 1.283 . S
O270 Mn244 2.094 . S
O270 C248 1.240 . S
O271 Mn245 2.117 . S
O271 C248 1.264 . S
C272 C265 1.403 . S
C272 C273 1.399 . S
C272 H278 0.929 . S
C273 C253 1.449 . S
C273 C272 1.399 . S
C273 H279 0.930 . S
H274 C254 0.931 . S
H275 C255 0.930 . S
H276 C263 0.931 . S
H277 C264 0.929 . S
H278 C272 0.929 . S
H279 C273 0.930 . S
Mn280 O285 2.095 . S
Mn280 O295 2.162 . S
Mn280 O296 2.297 . S
Mn280 O304 2.385 . S
Mn280 O305 2.209 . S
Mn280 O306 2.094 . S
Mn281 O286 2.121 1_554 S
Mn281 N288 2.257 1_554 S
Mn281 N297 2.282 . S
Mn281 O305 2.215 . S
Mn281 O307 2.117 . S
C282 O304 1.234 . S
C282 O305 1.283 . S
C283 O295 1.281 . S
C283 O296 1.236 . S
C284 O306 1.240 . S
C284 O307 1.264 . S
O285 Mn280 2.095 . S
O285 C294 1.250 . S
O286 Mn281 2.121 1_556 S
O286 C294 1.258 1_556 S
C287 N288 1.326 . S
C287 C291 1.460 . S
C287 H293 0.929 . S
N288 Mn281 2.257 1_556 S
N288 C287 1.326 . S
N288 C292 1.362 . S
C289 C290 1.258 . S
C289 C292 1.431 . S
C289 C309 1.449 . S
C290 C289 1.258 . S
C290 C291 1.477 . S
C290 H310 0.931 . S
C291 C287 1.460 . S
C291 C290 1.477 . S
C291 H311 0.930 . S
C292 N288 1.362 . S
C292 C289 1.431 . S
C292 C302 1.476 1_556 S
H293 C287 0.929 . S
C294 O285 1.250 . S
C294 O286 1.258 1_554 S
O295 Mn280 2.162 . S
O295 C283 1.281 . S
O296 Mn280 2.297 . S
O296 C283 1.236 . S
N297 Mn281 2.282 . S
N297 C298 1.328 . S
N297 C302 1.318 . S
C298 N297 1.328 . S
C298 C299 1.457 . S
C298 H303 0.929 . S
C299 C298 1.457 . S
C299 C300 1.291 . S
C299 H312 0.931 . S
C300 C299 1.291 . S
C300 C301 1.373 . S
C300 H313 0.929 . S
C301 C300 1.373 . S
C301 C302 1.396 . S
C301 C308 1.403 1_554 S
C302 C292 1.476 1_554 S
C302 N297 1.318 . S
C302 C301 1.396 . S
H303 C298 0.929 . S
O304 Mn280 2.385 . S
O304 C282 1.234 . S
O305 Mn280 2.209 . S
O305 Mn281 2.215 . S
O305 C282 1.283 . S
O306 Mn280 2.094 . S
O306 C284 1.240 . S
O307 Mn281 2.117 . S
O307 C284 1.264 . S
C308 C301 1.403 1_556 S
C308 C309 1.399 . S
C308 H314 0.921 1_556 S
C309 C289 1.449 . S
C309 C308 1.399 . S
C309 H315 0.930 . S
H310 C290 0.931 . S
H311 C291 0.930 . S
H312 C299 0.931 . S
H313 C300 0.929 . S
H314 C308 0.921 1_554 S
H315 C309 0.930 . S
Mn316 O321 2.095 . S
Mn316 O331 2.162 . S
Mn316 O332 2.297 . S
Mn316 O340 2.385 . S
Mn316 O341 2.209 1_545 S
Mn316 O342 2.094 . S
Mn317 O322 2.148 . S
Mn317 N324 2.257 . S
Mn317 N333 2.282 . S
Mn317 O341 2.215 . S
Mn317 O343 2.117 1_565 S
C318 O340 1.234 1_565 S
C318 O341 1.283 . S
C319 O331 1.281 . S
C319 O332 1.236 . S
C320 O342 1.240 . S
C320 O343 1.264 . S
O321 Mn316 2.095 . S
O321 C330 1.250 . S
O322 Mn317 2.148 . S
O322 C330 1.199 1_565 S
C323 N324 1.326 . S
C323 C327 1.460 . S
C323 H329 0.929 . S
N324 Mn317 2.257 . S
N324 C323 1.326 . S
N324 C328 1.362 . S
C325 C326 1.258 . S
C325 C328 1.431 . S
C325 C345 1.449 . S
C326 C325 1.258 . S
C326 C327 1.477 . S
C326 H346 0.931 . S
C327 C323 1.460 . S
C327 C326 1.477 . S
C327 H347 0.930 . S
C328 N324 1.362 . S
C328 C325 1.431 . S
C328 C338 1.476 . S
H329 C323 0.929 . S
C330 O321 1.250 . S
C330 O322 1.199 1_545 S
O331 Mn316 2.162 . S
O331 C319 1.281 . S
O332 Mn316 2.297 . S
O332 C319 1.236 . S
N333 Mn317 2.282 . S
N333 C334 1.328 . S
N333 C338 1.318 . S
C334 N333 1.328 . S
C334 C335 1.457 . S
C334 H339 0.929 . S
C335 C334 1.457 . S
C335 C336 1.291 . S
C335 H348 0.931 . S
C336 C335 1.291 . S
C336 C337 1.373 . S
C336 H349 0.929 . S
C337 C336 1.373 . S
C337 C338 1.396 . S
C337 C344 1.403 . S
C338 C328 1.476 . S
C338 N333 1.318 . S
C338 C337 1.396 . S
H339 C334 0.929 . S
O340 Mn316 2.385 . S
O340 C318 1.234 1_545 S
O341 Mn316 2.209 1_565 S
O341 Mn317 2.215 . S
O341 C318 1.283 . S
O342 Mn316 2.094 . S
O342 C320 1.240 . S
O343 Mn317 2.117 1_545 S
O343 C320 1.264 . S
C344 C337 1.403 . S
C344 C345 1.399 . S
C344 H350 0.929 . S
C345 C325 1.449 . S
C345 C344 1.399 . S
C345 H351 0.930 . S
H346 C326 0.931 . S
H347 C327 0.930 . S
H348 C335 0.931 . S
H349 C336 0.929 . S
H350 C344 0.929 . S
H351 C345 0.930 . S
Mn352 O357 2.095 . S
Mn352 O367 2.162 . S
Mn352 O368 2.297 . S
Mn352 O376 2.385 . S
Mn352 O377 2.209 . S
Mn352 O378 2.094 . S
Mn353 O358 2.121 . S
Mn353 N360 2.257 . S
Mn353 N369 2.282 . S
Mn353 O377 2.215 . S
Mn353 O379 2.117 . S
C354 O376 1.234 . S
C354 O377 1.283 . S
C355 O367 1.281 . S
C355 O368 1.236 . S
C356 O378 1.240 . S
C356 O379 1.264 . S
O357 Mn352 2.095 . S
O357 C366 1.250 . S
O358 Mn353 2.121 . S
O358 C366 1.258 . S
C359 N360 1.326 . S
C359 C363 1.460 . S
C359 H365 0.929 . S
N360 Mn353 2.257 . S
N360 C359 1.326 . S
N360 C364 1.362 . S
C361 C362 1.258 . S
C361 C364 1.431 . S
C361 C381 1.449 . S
C362 C361 1.258 . S
C362 C363 1.477 . S
C362 H382 0.931 . S
C363 C359 1.460 . S
C363 C362 1.477 . S
C363 H383 0.930 . S
C364 N360 1.362 . S
C364 C361 1.431 . S
C364 C374 1.476 . S
H365 C359 0.929 . S
C366 O357 1.250 . S
C366 O358 1.258 . S
O367 Mn352 2.162 . S
O367 C355 1.281 . S
O368 Mn352 2.297 . S
O368 C355 1.236 . S
N369 Mn353 2.282 . S
N369 C370 1.328 . S
N369 C374 1.318 . S
C370 N369 1.328 . S
C370 C371 1.457 . S
C370 H375 0.929 . S
C371 C370 1.457 . S
C371 C372 1.291 . S
C371 H384 0.931 . S
C372 C371 1.291 . S
C372 C373 1.373 . S
C372 H385 0.929 . S
C373 C372 1.373 . S
C373 C374 1.396 . S
C373 C380 1.403 . S
C374 C364 1.476 . S
C374 N369 1.318 . S
C374 C373 1.396 . S
H375 C370 0.929 . S
O376 Mn352 2.385 . S
O376 C354 1.234 . S
O377 Mn352 2.209 . S
O377 Mn353 2.215 . S
O377 C354 1.283 . S
O378 Mn352 2.094 . S
O378 C356 1.240 . S
O379 Mn353 2.117 . S
O379 C356 1.264 . S
C380 C373 1.403 . S
C380 C381 1.399 . S
C380 H386 0.929 . S
C381 C361 1.449 . S
C381 C380 1.399 . S
C381 H387 0.930 . S
H382 C362 0.931 . S
H383 C363 0.930 . S
H384 C371 0.931 . S
H385 C372 0.929 . S
H386 C380 0.929 . S
H387 C381 0.930 . S
Mn388 O393 2.095 . S
Mn388 O403 2.162 . S
Mn388 O404 2.297 . S
Mn388 O412 2.385 . S
Mn388 O413 2.209 . S
Mn388 O414 2.094 . S
Mn389 O394 2.121 . S
Mn389 N396 2.257 . S
Mn389 N405 2.282 . S
Mn389 O413 2.215 . S
Mn389 O415 2.117 . S
C390 O412 1.234 . S
C390 O413 1.283 . S
C391 O403 1.281 . S
C391 O404 1.236 . S
C392 O414 1.240 . S
C392 O415 1.264 . S
O393 Mn388 2.095 . S
O393 C402 1.250 . S
O394 Mn389 2.121 . S
O394 C402 1.258 . S
C395 N396 1.326 . S
C395 C399 1.460 . S
C395 H401 0.929 . S
N396 Mn389 2.257 . S
N396 C395 1.326 . S
N396 C400 1.362 . S
C397 C398 1.258 . S
C397 C400 1.431 . S
C397 C417 1.449 . S
C398 C397 1.258 . S
C398 C399 1.477 . S
C398 H418 0.931 . S
C399 C395 1.460 . S
C399 C398 1.477 . S
C399 H419 0.930 . S
C400 N396 1.362 . S
C400 C397 1.431 . S
C400 C410 1.476 . S
H401 C395 0.929 . S
C402 O393 1.250 . S
C402 O394 1.258 . S
O403 Mn388 2.162 . S
O403 C391 1.281 . S
O404 Mn388 2.297 . S
O404 C391 1.236 . S
N405 Mn389 2.282 . S
N405 C406 1.328 . S
N405 C410 1.318 . S
C406 N405 1.328 . S
C406 C407 1.457 . S
C406 H411 0.929 . S
C407 C406 1.457 . S
C407 C408 1.291 . S
C407 H420 0.931 . S
C408 C407 1.291 . S
C408 C409 1.373 . S
C408 H421 0.929 . S
C409 C408 1.373 . S
C409 C410 1.396 . S
C409 C416 1.403 . S
C410 C400 1.476 . S
C410 N405 1.318 . S
C410 C409 1.396 . S
H411 C406 0.929 . S
O412 Mn388 2.385 . S
O412 C390 1.234 . S
O413 Mn388 2.209 . S
O413 Mn389 2.215 . S
O413 C390 1.283 . S
O414 Mn388 2.094 . S
O414 C392 1.240 . S
O415 Mn389 2.117 . S
O415 C392 1.264 . S
C416 C409 1.403 . S
C416 C417 1.399 . S
C416 H422 0.929 . S
C417 C397 1.449 . S
C417 C416 1.399 . S
C417 H423 0.930 . S
H418 C398 0.931 . S
H419 C399 0.930 . S
H420 C407 0.931 . S
H421 C408 0.929 . S
H422 C416 0.929 . S
H423 C417 0.930 . S
Mn424 O429 2.095 . S
Mn424 O439 2.162 . S
Mn424 O440 2.297 . S
Mn424 O448 2.385 . S
Mn424 O449 2.209 . S
Mn424 O450 2.094 . S
Mn425 O430 2.121 . S
Mn425 N432 2.257 . S
Mn425 N441 2.282 . S
Mn425 O449 2.215 . S
Mn425 O451 2.117 . S
C426 O448 1.234 . S
C426 O449 1.283 . S
C427 O439 1.281 . S
C427 O440 1.236 . S
C428 O450 1.240 . S
C428 O451 1.264 . S
O429 Mn424 2.095 . S
O429 C438 1.250 . S
O430 Mn425 2.121 . S
O430 C438 1.258 . S
C431 N432 1.326 . S
C431 C435 1.460 . S
C431 H437 0.929 . S
N432 Mn425 2.257 . S
N432 C431 1.326 . S
N432 C436 1.362 . S
C433 C434 1.258 . S
C433 C436 1.431 . S
C433 C453 1.449 . S
C434 C433 1.258 . S
C434 C435 1.477 . S
C434 H454 0.931 . S
C435 C431 1.460 . S
C435 C434 1.477 . S
C435 H455 0.930 . S
C436 N432 1.362 . S
C436 C433 1.431 . S
C436 C446 1.476 . S
H437 C431 0.929 . S
C438 O429 1.250 . S
C438 O430 1.258 . S
O439 Mn424 2.162 . S
O439 C427 1.281 . S
O440 Mn424 2.297 . S
O440 C427 1.236 . S
N441 Mn425 2.282 . S
N441 C442 1.328 . S
N441 C446 1.318 . S
C442 N441 1.328 . S
C442 C443 1.457 . S
C442 H447 0.929 . S
C443 C442 1.457 . S
C443 C444 1.291 . S
C443 H456 0.931 . S
C444 C443 1.291 . S
C444 C445 1.373 . S
C444 H457 0.929 . S
C445 C444 1.373 . S
C445 C446 1.396 . S
C445 C452 1.403 . S
C446 C436 1.476 . S
C446 N441 1.318 . S
C446 C445 1.396 . S
H447 C442 0.929 . S
O448 Mn424 2.385 . S
O448 C426 1.234 . S
O449 Mn424 2.209 . S
O449 Mn425 2.215 . S
O449 C426 1.283 . S
O450 Mn424 2.094 . S
O450 C428 1.240 . S
O451 Mn425 2.117 . S
O451 C428 1.264 . S
C452 C445 1.403 . S
C452 C453 1.399 . S
C452 H458 0.929 . S
C453 C433 1.449 . S
C453 C452 1.399 . S
C453 H459 0.930 . S
H454 C434 0.931 . S
H455 C435 0.930 . S
H456 C443 0.931 . S
H457 C444 0.929 . S
H458 C452 0.929 . S
H459 C453 0.930 . S
Mn460 O465 2.095 . S
Mn460 O475 2.162 . S
Mn460 O476 2.297 . S
Mn460 O484 2.385 1_565 S
Mn460 O485 2.209 1_565 S
Mn460 O486 2.094 . S
Mn461 O466 2.121 . S
Mn461 N468 2.257 . S
Mn461 N477 2.282 . S
Mn461 O485 2.215 . S
Mn461 O487 2.117 . S
C462 O484 1.234 . S
C462 O485 1.283 . S
C463 O475 1.281 . S
C463 O476 1.236 . S
C464 O486 1.240 . S
C464 O487 1.264 1_565 S
O465 Mn460 2.095 . S
O465 C474 1.250 1_565 S
O466 Mn461 2.121 . S
O466 C474 1.258 . S
C467 N468 1.326 . S
C467 C471 1.460 . S
C467 H473 0.929 . S
N468 Mn461 2.257 . S
N468 C467 1.326 . S
N468 C472 1.362 . S
C469 C470 1.258 . S
C469 C472 1.431 . S
C469 C489 1.449 . S
C470 C469 1.258 . S
C470 C471 1.477 . S
C470 H490 0.931 . S
C471 C467 1.460 . S
C471 C470 1.477 . S
C471 H491 0.930 . S
C472 N468 1.362 . S
C472 C469 1.431 . S
C472 C482 1.476 . S
H473 C467 0.929 . S
C474 O465 1.250 1_545 S
C474 O466 1.258 . S
O475 Mn460 2.162 . S
O475 C463 1.281 . S
O476 Mn460 2.297 . S
O476 C463 1.236 . S
N477 Mn461 2.282 . S
N477 C478 1.328 . S
N477 C482 1.318 . S
C478 N477 1.328 . S
C478 C479 1.457 . S
C478 H483 0.929 . S
C479 C478 1.457 . S
C479 C480 1.291 . S
C479 H492 0.931 . S
C480 C479 1.291 . S
C480 C481 1.373 . S
C480 H493 0.929 . S
C481 C480 1.373 . S
C481 C482 1.396 . S
C481 C488 1.403 . S
C482 C472 1.476 . S
C482 N477 1.318 . S
C482 C481 1.396 . S
H483 C478 0.929 . S
O484 Mn460 2.385 1_545 S
O484 C462 1.234 . S
O485 Mn460 2.209 1_545 S
O485 Mn461 2.215 . S
O485 C462 1.283 . S
O486 Mn460 2.094 . S
O486 C464 1.240 . S
O487 Mn461 2.117 . S
O487 C464 1.264 1_545 S
C488 C481 1.403 . S
C488 C489 1.399 . S
C488 H494 0.929 . S
C489 C469 1.449 . S
C489 C488 1.399 . S
C489 H495 0.930 . S
H490 C470 0.931 . S
H491 C471 0.930 . S
H492 C479 0.931 . S
H493 C480 0.929 . S
H494 C488 0.929 . S
H495 C489 0.930 . S
Mn496 O501 2.095 . S
Mn496 O511 2.162 . S
Mn496 O512 2.297 . S
Mn496 O520 2.385 1_455 S
Mn496 O521 2.209 1_455 S
Mn496 O522 2.094 . S
Mn497 O502 2.121 . S
Mn497 N504 2.257 . S
Mn497 N513 2.282 . S
Mn497 O521 2.215 . S
Mn497 O523 2.117 . S
C498 O520 1.234 . S
C498 O521 1.283 . S
C499 O511 1.281 . S
C499 O512 1.236 . S
C500 O522 1.240 1_655 S
C500 O523 1.264 . S
O501 Mn496 2.095 . S
O501 C510 1.250 1_455 S
O502 Mn497 2.121 . S
O502 C510 1.258 . S
C503 N504 1.326 . S
C503 C507 1.460 . S
C503 H509 0.929 . S
N504 Mn497 2.257 . S
N504 C503 1.326 . S
N504 C508 1.362 . S
C505 C506 1.258 . S
C505 C508 1.431 . S
C505 C525 1.449 . S
C506 C505 1.258 . S
C506 C507 1.477 . S
C506 H526 0.931 . S
C507 C503 1.460 . S
C507 C506 1.477 . S
C507 H527 0.930 . S
C508 N504 1.362 . S
C508 C505 1.431 . S
C508 C518 1.476 . S
H509 C503 0.929 . S
C510 O501 1.250 1_655 S
C510 O502 1.258 . S
O511 Mn496 2.162 . S
O511 C499 1.281 . S
O512 Mn496 2.297 . S
O512 C499 1.236 . S
N513 Mn497 2.282 . S
N513 C514 1.328 . S
N513 C518 1.318 . S
C514 N513 1.328 . S
C514 C515 1.457 . S
C514 H519 0.929 . S
C515 C514 1.457 . S
C515 C516 1.291 . S
C515 H528 0.931 . S
C516 C515 1.291 . S
C516 C517 1.373 . S
C516 H529 0.929 . S
C517 C516 1.373 . S
C517 C518 1.396 . S
C517 C524 1.403 . S
C518 C508 1.476 . S
C518 N513 1.318 . S
C518 C517 1.396 . S
H519 C514 0.929 . S
O520 Mn496 2.385 1_655 S
O520 C498 1.234 . S
O521 Mn496 2.209 1_655 S
O521 Mn497 2.215 . S
O521 C498 1.283 . S
O522 Mn496 2.094 . S
O522 C500 1.240 1_455 S
O523 Mn497 2.117 . S
O523 C500 1.264 . S
C524 C517 1.403 . S
C524 C525 1.399 . S
C524 H530 0.929 . S
C525 C505 1.449 . S
C525 C524 1.399 . S
C525 H531 0.930 . S
H526 C506 0.931 . S
H527 C507 0.930 . S
H528 C515 0.931 . S
H529 C516 0.929 . S
H530 C524 0.929 . S
H531 C525 0.930 . S
Mn532 O537 2.095 . S
Mn532 O547 2.162 . S
Mn532 O548 2.297 . S
Mn532 O556 2.385 . S
Mn532 O557 2.209 . S
Mn532 O558 2.094 . S
Mn533 O538 2.121 . S
Mn533 N540 2.257 . S
Mn533 N549 2.282 . S
Mn533 O557 2.215 . S
Mn533 O559 2.117 . S
C534 O556 1.234 . S
C534 O557 1.283 . S
C535 O547 1.281 . S
C535 O548 1.236 . S
C536 O558 1.240 . S
C536 O559 1.264 . S
O537 Mn532 2.095 . S
O537 C546 1.250 . S
O538 Mn533 2.121 . S
O538 C546 1.258 . S
C539 N540 1.326 . S
C539 C543 1.460 . S
C539 H545 0.929 . S
N540 Mn533 2.257 . S
N540 C539 1.326 . S
N540 C544 1.362 . S
C541 C542 1.258 . S
C541 C544 1.431 . S
C541 C561 1.449 . S
C542 C541 1.258 . S
C542 C543 1.477 . S
C542 H562 0.931 . S
C543 C539 1.460 . S
C543 C542 1.477 . S
C543 H563 0.930 . S
C544 N540 1.362 . S
C544 C541 1.431 . S
C544 C554 1.476 . S
H545 C539 0.929 . S
C546 O537 1.250 . S
C546 O538 1.258 . S
O547 Mn532 2.162 . S
O547 C535 1.281 . S
O548 Mn532 2.297 . S
O548 C535 1.236 . S
N549 Mn533 2.282 . S
N549 C550 1.328 . S
N549 C554 1.318 . S
C550 N549 1.328 . S
C550 C551 1.457 . S
C550 H555 0.929 . S
C551 C550 1.457 . S
C551 C552 1.291 . S
C551 H564 0.931 . S
C552 C551 1.291 . S
C552 C553 1.373 . S
C552 H565 0.929 . S
C553 C552 1.373 . S
C553 C554 1.396 . S
C553 C560 1.403 . S
C554 C544 1.476 . S
C554 N549 1.318 . S
C554 C553 1.396 . S
H555 C550 0.929 . S
O556 Mn532 2.385 . S
O556 C534 1.234 . S
O557 Mn532 2.209 . S
O557 Mn533 2.215 . S
O557 C534 1.283 . S
O558 Mn532 2.094 . S
O558 C536 1.240 . S
O559 Mn533 2.117 . S
O559 C536 1.264 . S
C560 C553 1.403 . S
C560 C561 1.399 . S
C560 H566 0.929 . S
C561 C541 1.449 . S
C561 C560 1.399 . S
C561 H567 0.930 . S
H562 C542 0.931 . S
H563 C543 0.930 . S
H564 C551 0.931 . S
H565 C552 0.929 . S
H566 C560 0.929 . S
H567 C561 0.930 . S
Mn568 O573 2.095 . S
Mn568 O583 2.162 . S
Mn568 O584 2.297 . S
Mn568 O592 2.385 . S
Mn568 O593 2.209 . S
Mn568 O594 2.094 . S
Mn569 O574 2.121 1_455 S
Mn569 N576 2.257 1_455 S
Mn569 N585 2.282 . S
Mn569 O593 2.215 . S
Mn569 O595 2.117 . S
C570 O592 1.234 . S
C570 O593 1.283 . S
C571 O583 1.281 . S
C571 O584 1.236 . S
C572 O594 1.240 . S
C572 O595 1.264 . S
O573 Mn568 2.095 . S
O573 C582 1.250 1_455 S
O574 Mn569 2.121 1_655 S
O574 C582 1.258 . S
C575 N576 1.326 . S
C575 C579 1.460 . S
C575 H581 0.929 . S
N576 Mn569 2.257 1_655 S
N576 C575 1.326 . S
N576 C580 1.362 . S
C577 C578 1.258 . S
C577 C580 1.431 . S
C577 C597 1.449 . S
C578 C577 1.258 . S
C578 C579 1.477 . S
C578 H598 0.931 . S
C579 C575 1.460 . S
C579 C578 1.477 . S
C579 H599 0.930 . S
C580 N576 1.362 . S
C580 C577 1.431 . S
C580 C590 1.476 1_655 S
H581 C575 0.929 . S
C582 O573 1.250 1_655 S
C582 O574 1.258 . S
O583 Mn568 2.162 . S
O583 C571 1.281 . S
O584 Mn568 2.297 . S
O584 C571 1.236 . S
N585 Mn569 2.282 . S
N585 C586 1.328 . S
N585 C590 1.318 . S
C586 N585 1.328 . S
C586 C587 1.457 . S
C586 H591 0.929 . S
C587 C586 1.457 . S
C587 C588 1.291 . S
C587 H600 0.931 . S
C588 C587 1.291 . S
C588 C589 1.373 . S
C588 H601 0.929 . S
C589 C588 1.373 . S
C589 C590 1.396 . S
C589 C596 1.403 1_455 S
C590 C580 1.476 1_455 S
C590 N585 1.318 . S
C590 C589 1.396 . S
H591 C586 0.929 . S
O592 Mn568 2.385 . S
O592 C570 1.234 . S
O593 Mn568 2.209 . S
O593 Mn569 2.215 . S
O593 C570 1.283 . S
O594 Mn568 2.094 . S
O594 C572 1.240 . S
O595 Mn569 2.117 . S
O595 C572 1.264 . S
C596 C589 1.403 1_655 S
C596 C597 1.399 . S
C596 H602 0.929 . S
C597 C577 1.449 . S
C597 C596 1.399 . S
C597 H603 0.930 . S
H598 C578 0.931 . S
H599 C579 0.930 . S
H600 C587 0.931 . S
H601 C588 0.929 . S
H602 C596 0.929 . S
H603 C597 0.930 . S
Mn604 O609 2.095 . S
Mn604 O619 2.162 . S
Mn604 O620 2.297 . S
Mn604 O628 2.385 . S
Mn604 O629 2.209 . S
Mn604 O630 2.094 . S
Mn605 O610 2.121 . S
Mn605 N612 2.257 . S
Mn605 N621 2.282 . S
Mn605 O629 2.215 . S
Mn605 O631 2.117 . S
C606 O628 1.234 . S
C606 O629 1.283 . S
C607 O619 1.281 . S
C607 O620 1.236 . S
C608 O630 1.240 . S
C608 O631 1.264 . S
O609 Mn604 2.095 . S
O609 C618 1.250 . S
O610 Mn605 2.121 . S
O610 C618 1.258 . S
C611 N612 1.326 . S
C611 C615 1.460 . S
C611 H617 0.929 . S
N612 Mn605 2.257 . S
N612 C611 1.326 . S
N612 C616 1.362 . S
C613 C614 1.258 . S
C613 C616 1.431 . S
C613 C633 1.449 . S
C614 C613 1.258 . S
C614 C615 1.477 . S
C614 H634 0.931 . S
C615 C611 1.460 . S
C615 C614 1.477 . S
C615 H635 0.930 . S
C616 N612 1.362 . S
C616 C613 1.431 . S
C616 C626 1.476 . S
H617 C611 0.929 . S
C618 O609 1.250 . S
C618 O610 1.258 . S
O619 Mn604 2.162 . S
O619 C607 1.281 . S
O620 Mn604 2.297 . S
O620 C607 1.236 . S
N621 Mn605 2.282 . S
N621 C622 1.328 . S
N621 C626 1.318 . S
C622 N621 1.328 . S
C622 C623 1.457 . S
C622 H627 0.929 . S
C623 C622 1.457 . S
C623 C624 1.291 . S
C623 H636 0.931 . S
C624 C623 1.291 . S
C624 C625 1.373 . S
C624 H637 0.929 . S
C625 C624 1.373 . S
C625 C626 1.396 . S
C625 C632 1.403 . S
C626 C616 1.476 . S
C626 N621 1.318 . S
C626 C625 1.396 . S
H627 C622 0.929 . S
O628 Mn604 2.385 . S
O628 C606 1.234 . S
O629 Mn604 2.209 . S
O629 Mn605 2.215 . S
O629 C606 1.283 . S
O630 Mn604 2.094 . S
O630 C608 1.240 . S
O631 Mn605 2.117 . S
O631 C608 1.264 . S
C632 C625 1.403 . S
C632 C633 1.399 . S
C632 H638 0.929 . S
C633 C613 1.449 . S
C633 C632 1.399 . S
C633 H639 0.930 . S
H634 C614 0.931 . S
H635 C615 0.930 . S
H636 C623 0.931 . S
H637 C624 0.929 . S
H638 C632 0.929 . S
H639 C633 0.930 . S
C640 C641 1.349 . S
C640 C642 1.327 . S
C640 H665 0.950 . S
C641 C640 1.349 . S
C641 C657 1.349 . S
C642 C640 1.327 . S
C642 C661 1.429 . S
C642 H666 0.950 . S
C643 C660 1.574 . S
C643 C662 1.368 . S
C643 H667 0.949 . S
H644 C648 0.949 . S
C645 C646 1.349 . S
C645 C647 1.327 . S
C645 H668 0.950 . S
C646 C645 1.349 . S
C646 C658 1.349 . S
C647 C645 1.327 . S
C647 C663 1.429 . S
C647 H669 0.950 . S
C648 H644 0.949 . S
C648 C656 1.574 . S
C648 C664 1.368 . S
H649 C657 0.950 . S
H650 C655 0.950 . S
H651 C656 0.949 . S
H652 C658 0.950 . S
H653 C659 0.950 . S
H654 C660 0.949 . S
C655 H650 0.950 . S
C655 C657 1.327 . S
C655 C661 1.429 . S
C656 C648 1.574 . S
C656 H651 0.949 . S
C656 C662 1.368 . S
C657 C641 1.349 . S
C657 H649 0.950 . S
C657 C655 1.327 . S
C658 C646 1.349 . S
C658 H652 0.950 . S
C658 C659 1.327 . S
C659 H653 0.950 . S
C659 C658 1.327 . S
C659 C663 1.429 . S
C660 C643 1.574 . S
C660 H654 0.949 . S
C660 C664 1.368 . S
C661 C642 1.429 . S
C661 C655 1.429 . S
C661 C662 1.523 . S
C662 C643 1.368 . S
C662 C656 1.368 . S
C662 C661 1.523 . S
C663 C647 1.429 . S
C663 C659 1.429 . S
C663 C664 1.523 . S
C664 C648 1.368 . S
C664 C660 1.368 . S
C664 C663 1.523 . S
H665 C640 0.950 . S
H666 C642 0.950 . S
H667 C643 0.949 . S
H668 C645 0.950 . S
H669 C647 0.950 . S
C670 C671 1.349 . S
C670 C672 1.327 . S
C670 H695 0.950 . S
C671 C670 1.349 . S
C671 C687 1.349 . S
C672 C670 1.327 . S
C672 C691 1.429 . S
C672 H696 0.950 . S
C673 C690 1.574 . S
C673 C692 1.368 . S
C673 H697 0.949 . S
H674 C678 0.949 . S
C675 C676 1.349 . S
C675 C677 1.327 . S
C675 H698 0.950 . S
C676 C675 1.349 . S
C676 C688 1.349 . S
C677 C675 1.327 . S
C677 C693 1.429 . S
C677 H699 0.950 . S
C678 H674 0.949 . S
C678 C686 1.574 . S
C678 C694 1.368 . S
H679 C687 0.950 . S
H680 C685 0.950 . S
H681 C686 0.949 . S
H682 C688 0.950 . S
H683 C689 0.950 . S
H684 C690 0.949 . S
C685 H680 0.950 . S
C685 C687 1.327 . S
C685 C691 1.429 . S
C686 C678 1.574 . S
C686 H681 0.949 . S
C686 C692 1.368 . S
C687 C671 1.349 . S
C687 H679 0.950 . S
C687 C685 1.327 . S
C688 C676 1.349 . S
C688 H682 0.950 . S
C688 C689 1.327 . S
C689 H683 0.950 . S
C689 C688 1.327 . S
C689 C693 1.429 . S
C690 C673 1.574 . S
C690 H684 0.949 . S
C690 C694 1.368 . S
C691 C672 1.429 . S
C691 C685 1.429 . S
C691 C692 1.523 . S
C692 C673 1.368 . S
C692 C686 1.368 . S
C692 C691 1.523 . S
C693 C677 1.429 . S
C693 C689 1.429 . S
C693 C694 1.523 . S
C694 C678 1.368 . S
C694 C690 1.368 . S
C694 C693 1.523 . S
H695 C670 0.950 . S
H696 C672 0.950 . S
H697 C673 0.949 . S
H698 C675 0.950 . S
H699 C677 0.950 . S
C700 C701 1.349 . S
C700 C702 1.327 . S
C700 H725 0.950 . S
C701 C700 1.349 . S
C701 C717 1.349 . S
C702 C700 1.327 . S
C702 C721 1.429 . S
C702 H726 0.950 . S
C703 C720 1.574 . S
C703 C722 1.368 . S
C703 H727 0.949 . S
H704 C708 0.949 . S
C705 C706 1.349 . S
C705 C707 1.327 . S
C705 H728 0.950 . S
C706 C705 1.349 . S
C706 C718 1.349 . S
C707 C705 1.327 . S
C707 C723 1.429 . S
C707 H729 0.950 . S
C708 H704 0.949 . S
C708 C716 1.574 . S
C708 C724 1.368 . S
H709 C717 0.950 . S
H710 C715 0.950 . S
H711 C716 0.949 . S
H712 C718 0.950 . S
H713 C719 0.950 . S
H714 C720 0.949 . S
C715 H710 0.950 . S
C715 C717 1.327 . S
C715 C721 1.429 . S
C716 C708 1.574 . S
C716 H711 0.949 . S
C716 C722 1.368 . S
C717 C701 1.349 . S
C717 H709 0.950 . S
C717 C715 1.327 . S
C718 C706 1.349 . S
C718 H712 0.950 . S
C718 C719 1.327 . S
C719 H713 0.950 . S
C719 C718 1.327 . S
C719 C723 1.429 . S
C720 C703 1.574 . S
C720 H714 0.949 . S
C720 C724 1.368 . S
C721 C702 1.429 . S
C721 C715 1.429 . S
C721 C722 1.523 . S
C722 C703 1.368 . S
C722 C716 1.368 . S
C722 C721 1.523 . S
C723 C707 1.429 . S
C723 C719 1.429 . S
C723 C724 1.523 . S
C724 C708 1.368 . S
C724 C720 1.368 . S
C724 C723 1.523 . S
H725 C700 0.950 . S
H726 C702 0.950 . S
H727 C703 0.949 . S
H728 C705 0.950 . S
H729 C707 0.950 . S
C730 C731 1.349 1_545 S
C730 C732 1.327 1_455 S
C730 H755 0.950 . S
C731 C730 1.349 1_565 S
C731 C747 1.349 1_455 S
C732 C730 1.327 1_655 S
C732 C751 1.429 1_545 S
C732 H756 0.948 1_655 S
C733 C750 1.574 . S
C733 C752 1.405 . S
C733 H757 0.949 . S
H734 C738 0.949 . S
C735 C736 1.376 . S
C735 C737 1.320 1_545 S
C735 H758 0.931 1_545 S
C736 C735 1.376 . S
C736 C748 1.349 . S
C737 C735 1.320 1_565 S
C737 C753 1.429 1_565 S
C737 H759 0.950 . S
C738 H734 0.949 . S
C738 C746 1.574 . S
C738 C754 1.368 . S
H739 C747 0.950 . S
H740 C745 0.950 . S
H741 C746 0.949 . S
H742 C748 0.950 . S
H743 C749 0.950 . S
H744 C750 0.949 . S
C745 H740 0.950 . S
C745 C747 1.327 . S
C745 C751 1.429 . S
C746 C738 1.574 . S
C746 H741 0.949 . S
C746 C752 1.323 1_545 S
C747 C731 1.349 1_655 S
C747 H739 0.950 . S
C747 C745 1.327 . S
C748 C736 1.349 . S
C748 H742 0.950 . S
C748 C749 1.327 . S
C749 H743 0.950 . S
C749 C748 1.327 . S
C749 C753 1.429 . S
C750 C733 1.574 . S
C750 H744 0.949 . S
C750 C754 1.368 1_565 S
C751 C732 1.429 1_565 S
C751 C745 1.429 . S
C751 C752 1.536 . S
C752 C733 1.405 . S
C752 C746 1.323 1_565 S
C752 C751 1.536 . S
C753 C737 1.429 1_545 S
C753 C749 1.429 . S
C753 C754 1.523 . S
C754 C738 1.368 . S
C754 C750 1.368 1_545 S
C754 C753 1.523 . S
H755 C730 0.950 . S
H756 C732 0.948 1_455 S
H757 C733 0.949 . S
H758 C735 0.931 1_565 S
H759 C737 0.950 . S
C760 C761 1.349 . S
C760 C762 1.327 . S
C760 H785 0.950 . S
C761 C760 1.349 . S
C761 C777 1.349 . S
C762 C760 1.327 . S
C762 C781 1.429 . S
C762 H786 0.950 . S
C763 C780 1.574 . S
C763 C782 1.368 . S
C763 H787 0.949 . S
H764 C768 0.949 . S
C765 C766 1.349 . S
C765 C767 1.327 . S
C765 H788 0.950 . S
C766 C765 1.349 . S
C766 C778 1.349 . S
C767 C765 1.327 . S
C767 C783 1.429 . S
C767 H789 0.950 . S
C768 H764 0.949 . S
C768 C776 1.574 . S
C768 C784 1.368 . S
H769 C777 0.950 . S
H770 C775 0.950 . S
H771 C776 0.949 . S
H772 C778 0.950 . S
H773 C779 0.950 . S
H774 C780 0.949 . S
C775 H770 0.950 . S
C775 C777 1.327 . S
C775 C781 1.429 . S
C776 C768 1.574 . S
C776 H771 0.949 . S
C776 C782 1.368 . S
C777 C761 1.349 . S
C777 H769 0.950 . S
C777 C775 1.327 . S
C778 C766 1.349 . S
C778 H772 0.950 . S
C778 C779 1.327 . S
C779 H773 0.950 . S
C779 C778 1.327 . S
C779 C783 1.429 . S
C780 C763 1.574 . S
C780 H774 0.949 . S
C780 C784 1.368 . S
C781 C762 1.429 . S
C781 C775 1.429 . S
C781 C782 1.523 . S
C782 C763 1.368 . S
C782 C776 1.368 . S
C782 C781 1.523 . S
C783 C767 1.429 . S
C783 C779 1.429 . S
C783 C784 1.523 . S
C784 C768 1.368 . S
C784 C780 1.368 . S
C784 C783 1.523 . S
H785 C760 0.950 . S
H786 C762 0.950 . S
H787 C763 0.949 . S
H788 C765 0.950 . S
H789 C767 0.950 . S
C790 C791 1.349 . S
C790 C792 1.327 . S
C790 H815 0.950 . S
C791 C790 1.349 . S
C791 C807 1.349 . S
C792 C790 1.327 . S
C792 C811 1.429 . S
C792 H816 0.950 . S
C793 C810 1.574 . S
C793 C812 1.368 . S
C793 H817 0.949 . S
H794 C798 0.949 . S
C795 C796 1.349 . S
C795 C797 1.327 . S
C795 H818 0.950 . S
C796 C795 1.349 . S
C796 C808 1.349 . S
C797 C795 1.327 . S
C797 C813 1.429 . S
C797 H819 0.950 . S
C798 H794 0.949 . S
C798 C806 1.574 . S
C798 C814 1.368 . S
H799 C807 0.950 . S
H800 C805 0.950 . S
H801 C806 0.949 . S
H802 C808 0.950 . S
H803 C809 0.950 . S
H804 C810 0.949 . S
C805 H800 0.950 . S
C805 C807 1.327 . S
C805 C811 1.429 . S
C806 C798 1.574 . S
C806 H801 0.949 . S
C806 C812 1.368 . S
C807 C791 1.349 . S
C807 H799 0.950 . S
C807 C805 1.327 . S
C808 C796 1.349 . S
C808 H802 0.950 . S
C808 C809 1.327 . S
C809 H803 0.950 . S
C809 C808 1.327 . S
C809 C813 1.429 . S
C810 C793 1.574 . S
C810 H804 0.949 . S
C810 C814 1.368 . S
C811 C792 1.429 . S
C811 C805 1.429 . S
C811 C812 1.523 . S
C812 C793 1.368 . S
C812 C806 1.368 . S
C812 C811 1.523 . S
C813 C797 1.429 . S
C813 C809 1.429 . S
C813 C814 1.523 . S
C814 C798 1.368 . S
C814 C810 1.368 . S
C814 C813 1.523 . S
H815 C790 0.950 . S
H816 C792 0.950 . S
H817 C793 0.949 . S
H818 C795 0.950 . S
H819 C797 0.950 . S
C820 C821 1.349 . S
C820 C822 1.327 . S
C820 H845 0.950 . S
C821 C820 1.349 . S
C821 C837 1.349 . S
C822 C820 1.327 . S
C822 C841 1.429 . S
C822 H846 0.950 . S
C823 C840 1.574 . S
C823 C842 1.368 . S
C823 H847 0.949 . S
H824 C828 0.949 . S
C825 C826 1.349 . S
C825 C827 1.327 . S
C825 H848 0.950 . S
C826 C825 1.349 . S
C826 C838 1.349 . S
C827 C825 1.327 . S
C827 C843 1.429 . S
C827 H849 0.950 . S
C828 H824 0.949 . S
C828 C836 1.574 . S
C828 C844 1.368 . S
H829 C837 0.950 . S
H830 C835 0.950 . S
H831 C836 0.949 . S
H832 C838 0.950 . S
H833 C839 0.950 . S
H834 C840 0.949 . S
C835 H830 0.950 . S
C835 C837 1.327 . S
C835 C841 1.429 . S
C836 C828 1.574 . S
C836 H831 0.949 . S
C836 C842 1.368 . S
C837 C821 1.349 . S
C837 H829 0.950 . S
C837 C835 1.327 . S
C838 C826 1.349 . S
C838 H832 0.950 . S
C838 C839 1.327 . S
C839 H833 0.950 . S
C839 C838 1.327 . S
C839 C843 1.429 . S
C840 C823 1.574 . S
C840 H834 0.949 . S
C840 C844 1.368 . S
C841 C822 1.429 . S
C841 C835 1.429 . S
C841 C842 1.523 . S
C842 C823 1.368 . S
C842 C836 1.368 . S
C842 C841 1.523 . S
C843 C827 1.429 . S
C843 C839 1.429 . S
C843 C844 1.523 . S
C844 C828 1.368 . S
C844 C840 1.368 . S
C844 C843 1.523 . S
H845 C820 0.950 . S
H846 C822 0.950 . S
H847 C823 0.949 . S
H848 C825 0.950 . S
H849 C827 0.950 . S
C850 C851 1.349 . S
C850 C852 1.327 . S
C850 H875 0.950 . S
C851 C850 1.349 . S
C851 C867 1.349 . S
C852 C850 1.327 . S
C852 C871 1.429 . S
C852 H876 0.950 . S
C853 C870 1.574 . S
C853 C872 1.368 . S
C853 H877 0.949 . S
H854 C858 0.949 1_545 S
C855 C856 1.349 . S
C855 C857 1.327 . S
C855 H878 0.950 . S
C856 C855 1.349 . S
C856 C868 1.314 1_565 S
C857 C855 1.327 . S
C857 C873 1.429 . S
C857 H879 0.950 . S
C858 H854 0.949 1_565 S
C858 C866 1.574 . S
C858 C874 1.368 . S
H859 C867 0.950 . S
H860 C865 0.950 . S
H861 C866 0.949 . S
H862 C868 0.991 . S
H863 C869 0.918 1_545 S
H864 C870 0.949 . S
C865 H860 0.950 . S
C865 C867 1.327 . S
C865 C871 1.429 . S
C866 C858 1.574 . S
C866 H861 0.949 . S
C866 C872 1.368 . S
C867 C851 1.349 . S
C867 H859 0.950 . S
C867 C865 1.327 . S
C868 C856 1.314 1_545 S
C868 H862 0.991 . S
C868 C869 1.325 1_545 S
C869 H863 0.918 1_565 S
C869 C868 1.325 1_565 S
C869 C873 1.464 . S
C870 C853 1.574 . S
C870 H864 0.949 . S
C870 C874 1.368 . S
C871 C852 1.429 . S
C871 C865 1.429 . S
C871 C872 1.523 . S
C872 C853 1.368 . S
C872 C866 1.368 . S
C872 C871 1.523 . S
C873 C857 1.429 . S
C873 C869 1.464 . S
C873 C874 1.523 . S
C874 C858 1.368 . S
C874 C870 1.368 . S
C874 C873 1.523 . S
H875 C850 0.950 . S
H876 C852 0.950 . S
H877 C853 0.949 . S
H878 C855 0.950 . S
H879 C857 0.950 . S
C880 C881 1.349 . S
C880 C882 1.327 . S
C880 H905 0.950 . S
C881 C880 1.349 . S
C881 C897 1.349 . S
C882 C880 1.327 . S
C882 C901 1.429 . S
C882 H906 0.950 . S
C883 C900 1.574 . S
C883 C902 1.368 . S
C883 H907 0.949 . S
H884 C888 0.949 . S
C885 C886 1.349 . S
C885 C887 1.327 . S
C885 H908 0.950 . S
C886 C885 1.349 . S
C886 C898 1.349 . S
C887 C885 1.327 . S
C887 C903 1.429 . S
C887 H909 0.950 . S
C888 H884 0.949 . S
C888 C896 1.574 . S
C888 C904 1.368 . S
H889 C897 0.950 . S
H890 C895 0.950 . S
H891 C896 0.949 . S
H892 C898 0.950 . S
H893 C899 0.950 . S
H894 C900 0.949 . S
C895 H890 0.950 . S
C895 C897 1.327 . S
C895 C901 1.429 . S
C896 C888 1.574 . S
C896 H891 0.949 . S
C896 C902 1.368 . S
C897 C881 1.349 . S
C897 H889 0.950 . S
C897 C895 1.327 . S
C898 C886 1.349 . S
C898 H892 0.950 . S
C898 C899 1.327 . S
C899 H893 0.950 . S
C899 C898 1.327 . S
C899 C903 1.429 . S
C900 C883 1.574 . S
C900 H894 0.949 . S
C900 C904 1.368 . S
C901 C882 1.429 . S
C901 C895 1.429 . S
C901 C902 1.523 . S
C902 C883 1.368 . S
C902 C896 1.368 . S
C902 C901 1.523 . S
C903 C887 1.429 . S
C903 C899 1.429 . S
C903 C904 1.523 . S
C904 C888 1.368 . S
C904 C900 1.368 . S
C904 C903 1.523 . S
H905 C880 0.950 . S
H906 C882 0.950 . S
H907 C883 0.949 . S
H908 C885 0.950 . S
H909 C887 0.950 . S
C910 C911 1.349 . S
C910 C912 1.327 . S
C910 H935 0.950 . S
C911 C910 1.349 . S
C911 C927 1.349 . S
C912 C910 1.327 . S
C912 C931 1.429 . S
C912 H936 0.950 . S
C913 C930 1.574 . S
C913 C932 1.368 . S
C913 H937 0.949 . S
H914 C918 0.949 . S
C915 C916 1.349 . S
C915 C917 1.327 . S
C915 H938 0.950 . S
C916 C915 1.349 . S
C916 C928 1.349 . S
C917 C915 1.327 . S
C917 C933 1.429 . S
C917 H939 0.950 . S
C918 H914 0.949 . S
C918 C926 1.574 . S
C918 C934 1.368 . S
H919 C927 0.950 . S
H920 C925 0.950 . S
H921 C926 0.949 . S
H922 C928 0.950 . S
H923 C929 0.950 . S
H924 C930 0.949 . S
C925 H920 0.950 . S
C925 C927 1.327 . S
C925 C931 1.429 . S
C926 C918 1.574 . S
C926 H921 0.949 . S
C926 C932 1.368 . S
C927 C911 1.349 . S
C927 H919 0.950 . S
C927 C925 1.327 . S
C928 C916 1.349 . S
C928 H922 0.950 . S
C928 C929 1.327 . S
C929 H923 0.950 . S
C929 C928 1.327 . S
C929 C933 1.429 . S
C930 C913 1.574 . S
C930 H924 0.949 . S
C930 C934 1.368 . S
C931 C912 1.429 . S
C931 C925 1.429 . S
C931 C932 1.523 . S
C932 C913 1.368 . S
C932 C926 1.368 . S
C932 C931 1.523 . S
C933 C917 1.429 . S
C933 C929 1.429 . S
C933 C934 1.523 . S
C934 C918 1.368 . S
C934 C930 1.368 . S
C934 C933 1.523 . S
H935 C910 0.950 . S
H936 C912 0.950 . S
H937 C913 0.949 . S
H938 C915 0.950 . S
H939 C917 0.950 . S
C940 C941 1.349 . S
C940 C942 1.327 . S
C940 H965 0.950 . S
C941 C940 1.349 . S
C941 C957 1.349 . S
C942 C940 1.327 . S
C942 C961 1.429 . S
C942 H966 0.950 . S
C943 C960 1.574 . S
C943 C962 1.368 . S
C943 H967 0.949 . S
H944 C948 0.949 . S
C945 C946 1.349 . S
C945 C947 1.327 . S
C945 H968 0.950 . S
C946 C945 1.349 . S
C946 C958 1.349 . S
C947 C945 1.327 . S
C947 C963 1.429 . S
C947 H969 0.950 . S
C948 H944 0.949 . S
C948 C956 1.574 . S
C948 C964 1.368 . S
H949 C957 0.950 . S
H950 C955 0.950 . S
H951 C956 0.949 . S
H952 C958 0.950 . S
H953 C959 0.950 . S
H954 C960 0.949 . S
C955 H950 0.950 . S
C955 C957 1.327 . S
C955 C961 1.429 . S
C956 C948 1.574 . S
C956 H951 0.949 . S
C956 C962 1.368 . S
C957 C941 1.349 . S
C957 H949 0.950 . S
C957 C955 1.327 . S
C958 C946 1.349 . S
C958 H952 0.950 . S
C958 C959 1.327 . S
C959 H953 0.950 . S
C959 C958 1.327 . S
C959 C963 1.429 . S
C960 C943 1.574 . S
C960 H954 0.949 . S
C960 C964 1.368 . S
C961 C942 1.429 . S
C961 C955 1.429 . S
C961 C962 1.523 . S
C962 C943 1.368 . S
C962 C956 1.368 . S
C962 C961 1.523 . S
C963 C947 1.429 . S
C963 C959 1.429 . S
C963 C964 1.523 . S
C964 C948 1.368 . S
C964 C960 1.368 . S
C964 C963 1.523 . S
H965 C940 0.950 . S
H966 C942 0.950 . S
H967 C943 0.949 . S
H968 C945 0.950 . S
H969 C947 0.950 . S
C970 C971 1.349 . S
C970 C972 1.327 . S
C970 H995 0.950 . S
C971 C970 1.349 . S
C971 C987 1.349 . S
C972 C970 1.327 . S
C972 C991 1.429 . S
C972 H996 0.950 . S
C973 C990 1.574 . S
C973 C992 1.368 . S
C973 H997 0.949 . S
H974 C978 0.949 . S
C975 C976 1.349 . S
C975 C977 1.327 . S
C975 H998 0.950 . S
C976 C975 1.349 . S
C976 C988 1.349 . S
C977 C975 1.327 . S
C977 C993 1.429 . S
C977 H999 0.950 . S
C978 H974 0.949 . S
C978 C986 1.574 . S
C978 C994 1.368 . S
H979 C987 0.950 . S
H980 C985 0.950 . S
H981 C986 0.949 . S
H982 C988 0.950 . S
H983 C989 0.950 . S
H984 C990 0.949 . S
C985 H980 0.950 . S
C985 C987 1.327 . S
C985 C991 1.429 . S
C986 C978 1.574 . S
C986 H981 0.949 . S
C986 C992 1.368 . S
C987 C971 1.349 . S
C987 H979 0.950 . S
C987 C985 1.327 . S
C988 C976 1.349 . S
C988 H982 0.950 . S
C988 C989 1.327 . S
C989 H983 0.950 . S
C989 C988 1.327 . S
C989 C993 1.429 . S
C990 C973 1.574 . S
C990 H984 0.949 . S
C990 C994 1.368 . S
C991 C972 1.429 . S
C991 C985 1.429 . S
C991 C992 1.523 . S
C992 C973 1.368 . S
C992 C986 1.368 . S
C992 C991 1.523 . S
C993 C977 1.429 . S
C993 C989 1.429 . S
C993 C994 1.523 . S
C994 C978 1.368 . S
C994 C990 1.368 . S
C994 C993 1.523 . S
H995 C970 0.950 . S
H996 C972 0.950 . S
H997 C973 0.949 . S
H998 C975 0.950 . S
H999 C977 0.950 . S
C1000 C1001 1.349 . S
C1000 C1002 1.327 . S
C1000 H1025 0.950 . S
C1001 C1000 1.349 . S
C1001 C1017 1.349 . S
C1002 C1000 1.327 . S
C1002 C1021 1.429 . S
C1002 H1026 0.950 . S
C1003 C1020 1.574 . S
C1003 C1022 1.368 . S
C1003 H1027 0.949 . S
H1004 C1008 0.949 . S
C1005 C1006 1.349 . S
C1005 C1007 1.327 . S
C1005 H1028 0.950 . S
C1006 C1005 1.349 . S
C1006 C1018 1.349 . S
C1007 C1005 1.327 . S
C1007 C1023 1.429 . S
C1007 H1029 0.950 . S
C1008 H1004 0.949 . S
C1008 C1016 1.574 . S
C1008 C1024 1.368 . S
H1009 C1017 0.950 . S
H1010 C1015 0.950 . S
H1011 C1016 0.949 . S
H1012 C1018 0.931 1_455 S
H1013 C1019 0.950 . S
H1014 C1020 0.949 . S
C1015 H1010 0.950 . S
C1015 C1017 1.327 . S
C1015 C1021 1.429 . S
C1016 C1008 1.574 . S
C1016 H1011 0.949 . S
C1016 C1022 1.368 . S
C1017 C1001 1.349 . S
C1017 H1009 0.950 . S
C1017 C1015 1.327 . S
C1018 C1006 1.349 . S
C1018 H1012 0.931 1_655 S
C1018 C1019 1.327 . S
C1019 H1013 0.950 . S
C1019 C1018 1.327 . S
C1019 C1023 1.429 . S
C1020 C1003 1.574 . S
C1020 H1014 0.949 . S
C1020 C1024 1.368 . S
C1021 C1002 1.429 . S
C1021 C1015 1.429 . S
C1021 C1022 1.523 . S
C1022 C1003 1.368 . S
C1022 C1016 1.368 . S
C1022 C1021 1.523 . S
C1023 C1007 1.429 . S
C1023 C1019 1.429 . S
C1023 C1024 1.523 . S
C1024 C1008 1.368 . S
C1024 C1020 1.368 . S
C1024 C1023 1.523 . S
H1025 C1000 0.950 . S
H1026 C1002 0.950 . S
H1027 C1003 0.949 . S
H1028 C1005 0.950 . S
H1029 C1007 0.950 . S
C1030 C1031 1.349 . S
C1030 C1032 1.327 . S
C1030 H1055 0.950 . S
C1031 C1030 1.349 . S
C1031 C1047 1.349 . S
C1032 C1030 1.327 . S
C1032 C1051 1.429 . S
C1032 H1056 0.950 . S
C1033 C1050 1.574 . S
C1033 C1052 1.368 . S
C1033 H1057 0.949 . S
H1034 C1038 0.949 . S
C1035 C1036 1.349 . S
C1035 C1037 1.327 . S
C1035 H1058 0.950 . S
C1036 C1035 1.349 . S
C1036 C1048 1.349 . S
C1037 C1035 1.327 . S
C1037 C1053 1.429 . S
C1037 H1059 0.950 . S
C1038 H1034 0.949 . S
C1038 C1046 1.574 . S
C1038 C1054 1.368 . S
H1039 C1047 0.950 . S
H1040 C1045 0.950 . S
H1041 C1046 0.949 . S
H1042 C1048 0.950 . S
H1043 C1049 0.950 . S
H1044 C1050 0.949 . S
C1045 H1040 0.950 . S
C1045 C1047 1.327 . S
C1045 C1051 1.429 . S
C1046 C1038 1.574 . S
C1046 H1041 0.949 . S
C1046 C1052 1.368 . S
C1047 C1031 1.349 . S
C1047 H1039 0.950 . S
C1047 C1045 1.327 . S
C1048 C1036 1.349 . S
C1048 H1042 0.950 . S
C1048 C1049 1.327 . S
C1049 H1043 0.950 . S
C1049 C1048 1.327 . S
C1049 C1053 1.429 . S
C1050 C1033 1.574 . S
C1050 H1044 0.949 . S
C1050 C1054 1.368 . S
C1051 C1032 1.429 . S
C1051 C1045 1.429 . S
C1051 C1052 1.523 . S
C1052 C1033 1.368 . S
C1052 C1046 1.368 . S
C1052 C1051 1.523 . S
C1053 C1037 1.429 . S
C1053 C1049 1.429 . S
C1053 C1054 1.523 . S
C1054 C1038 1.368 . S
C1054 C1050 1.368 . S
C1054 C1053 1.523 . S
H1055 C1030 0.950 . S
H1056 C1032 0.950 . S
H1057 C1033 0.949 . S
H1058 C1035 0.950 . S
H1059 C1037 0.950 . S
C1060 C1061 1.349 . S
C1060 C1062 1.327 . S
C1060 H1085 0.950 . S
C1061 C1060 1.349 . S
C1061 C1077 1.349 . S
C1062 C1060 1.327 . S
C1062 C1081 1.429 . S
C1062 H1086 0.950 . S
C1063 C1080 1.574 . S
C1063 C1082 1.368 . S
C1063 H1087 0.949 . S
H1064 C1068 0.949 . S
C1065 C1066 1.349 . S
C1065 C1067 1.327 . S
C1065 H1088 0.950 . S
C1066 C1065 1.349 . S
C1066 C1078 1.349 . S
C1067 C1065 1.327 . S
C1067 C1083 1.429 . S
C1067 H1089 0.950 . S
C1068 H1064 0.949 . S
C1068 C1076 1.574 . S
C1068 C1084 1.368 . S
H1069 C1077 0.950 . S
H1070 C1075 0.950 . S
H1071 C1076 0.949 . S
H1072 C1078 0.950 . S
H1073 C1079 0.950 . S
H1074 C1080 0.949 . S
C1075 H1070 0.950 . S
C1075 C1077 1.327 . S
C1075 C1081 1.429 . S
C1076 C1068 1.574 . S
C1076 H1071 0.949 . S
C1076 C1082 1.368 . S
C1077 C1061 1.349 . S
C1077 H1069 0.950 . S
C1077 C1075 1.327 . S
C1078 C1066 1.349 . S
C1078 H1072 0.950 . S
C1078 C1079 1.327 . S
C1079 H1073 0.950 . S
C1079 C1078 1.327 . S
C1079 C1083 1.429 . S
C1080 C1063 1.574 . S
C1080 H1074 0.949 . S
C1080 C1084 1.368 . S
C1081 C1062 1.429 . S
C1081 C1075 1.429 . S
C1081 C1082 1.523 . S
C1082 C1063 1.368 . S
C1082 C1076 1.368 . S
C1082 C1081 1.523 . S
C1083 C1067 1.429 . S
C1083 C1079 1.429 . S
C1083 C1084 1.523 . S
C1084 C1068 1.368 . S
C1084 C1080 1.368 . S
C1084 C1083 1.523 . S
H1085 C1060 0.950 . S
H1086 C1062 0.950 . S
H1087 C1063 0.949 . S
H1088 C1065 0.950 . S
H1089 C1067 0.950 . S
C1090 C1091 1.349 . S
C1090 C1092 1.327 . S
C1090 H1115 0.950 . S
C1091 C1090 1.349 . S
C1091 C1107 1.349 1_655 S
C1092 C1090 1.327 . S
C1092 C1111 1.429 . S
C1092 H1116 0.950 . S
C1093 C1110 1.574 . S
C1093 C1112 1.379 . S
C1093 H1117 0.949 . S
H1094 C1098 0.949 . S
C1095 C1096 1.349 . S
C1095 C1097 1.327 . S
C1095 H1118 0.950 . S
C1096 C1095 1.349 . S
C1096 C1108 1.349 . S
C1097 C1095 1.327 . S
C1097 C1113 1.429 . S
C1097 H1119 0.950 . S
C1098 H1094 0.949 . S
C1098 C1106 1.574 . S
C1098 C1114 1.368 1_655 S
H1099 C1107 0.950 . S
H1100 C1105 0.950 . S
H1101 C1106 0.949 . S
H1102 C1108 0.950 1_655 S
H1103 C1109 0.950 . S
H1104 C1110 0.949 . S
C1105 H1100 0.950 . S
C1105 C1107 1.327 . S
C1105 C1111 1.429 1_455 S
C1106 C1098 1.574 . S
C1106 H1101 0.949 . S
C1106 C1112 1.357 1_655 S
C1107 C1091 1.349 1_455 S
C1107 H1099 0.950 . S
C1107 C1105 1.327 . S
C1108 C1096 1.349 . S
C1108 H1102 0.950 1_455 S
C1108 C1109 1.327 1_455 S
C1109 H1103 0.950 . S
C1109 C1108 1.327 1_655 S
C1109 C1113 1.429 1_655 S
C1110 C1093 1.574 . S
C1110 H1104 0.949 . S
C1110 C1114 1.368 . S
C1111 C1092 1.429 . S
C1111 C1105 1.429 1_655 S
C1111 C1112 1.524 1_655 S
C1112 C1093 1.379 . S
C1112 C1106 1.357 1_455 S
C1112 C1111 1.524 1_455 S
C1113 C1097 1.429 . S
C1113 C1109 1.429 1_455 S
C1113 C1114 1.523 . S
C1114 C1098 1.368 1_455 S
C1114 C1110 1.368 . S
C1114 C1113 1.523 . S
H1115 C1090 0.950 . S
H1116 C1092 0.950 . S
H1117 C1093 0.949 . S
H1118 C1095 0.950 . S
H1119 C1097 0.950 . S
C1120 C1121 1.349 . S
C1120 C1122 1.327 . S
C1120 H1145 0.950 . S
C1121 C1120 1.349 . S
C1121 C1137 1.349 . S
C1122 C1120 1.327 . S
C1122 C1141 1.429 . S
C1122 H1146 0.950 . S
C1123 C1140 1.574 . S
C1123 C1142 1.368 . S
C1123 H1147 0.949 . S
H1124 C1128 0.949 . S
C1125 C1126 1.349 . S
C1125 C1127 1.327 . S
C1125 H1148 0.950 . S
C1126 C1125 1.349 . S
C1126 C1138 1.349 . S
C1127 C1125 1.327 . S
C1127 C1143 1.429 . S
C1127 H1149 0.950 . S
C1128 H1124 0.949 . S
C1128 C1136 1.574 . S
C1128 C1144 1.368 . S
H1129 C1137 0.950 . S
H1130 C1135 0.950 . S
H1131 C1136 0.949 . S
H1132 C1138 0.994 . S
H1133 C1139 0.950 . S
H1134 C1140 0.949 . S
C1135 H1130 0.950 . S
C1135 C1137 1.327 . S
C1135 C1141 1.429 . S
C1136 C1128 1.574 . S
C1136 H1131 0.949 . S
C1136 C1142 1.368 . S
C1137 C1121 1.349 . S
C1137 H1129 0.950 . S
C1137 C1135 1.327 . S
C1138 C1126 1.349 . S
C1138 H1132 0.994 . S
C1138 C1139 1.327 . S
C1139 H1133 0.950 . S
C1139 C1138 1.327 . S
C1139 C1143 1.429 . S
C1140 C1123 1.574 . S
C1140 H1134 0.949 . S
C1140 C1144 1.368 . S
C1141 C1122 1.429 . S
C1141 C1135 1.429 . S
C1141 C1142 1.523 . S
C1142 C1123 1.368 . S
C1142 C1136 1.368 . S
C1142 C1141 1.523 . S
C1143 C1127 1.429 . S
C1143 C1139 1.429 . S
C1143 C1144 1.523 . S
C1144 C1128 1.368 . S
C1144 C1140 1.368 . S
C1144 C1143 1.523 . S
H1145 C1120 0.950 . S
H1146 C1122 0.950 . S
H1147 C1123 0.949 . S
H1148 C1125 0.950 . S
H1149 C1127 0.950 . S
C1150 C1151 1.349 . S
C1150 C1152 1.327 . S
C1150 H1175 0.950 . S
C1151 C1150 1.349 . S
C1151 C1167 1.349 . S
C1152 C1150 1.327 . S
C1152 C1171 1.429 . S
C1152 H1176 0.950 . S
C1153 C1170 1.574 . S
C1153 C1172 1.368 . S
C1153 H1177 0.949 . S
H1154 C1158 0.949 . S
C1155 C1156 1.349 . S
C1155 C1157 1.327 . S
C1155 H1178 0.950 . S
C1156 C1155 1.349 . S
C1156 C1168 1.349 . S
C1157 C1155 1.327 . S
C1157 C1173 1.429 . S
C1157 H1179 0.950 . S
C1158 H1154 0.949 . S
C1158 C1166 1.574 . S
C1158 C1174 1.368 . S
H1159 C1167 0.950 . S
H1160 C1165 0.950 . S
H1161 C1166 0.949 . S
H1162 C1168 0.950 . S
H1163 C1169 0.950 . S
H1164 C1170 0.949 . S
C1165 H1160 0.950 . S
C1165 C1167 1.327 . S
C1165 C1171 1.429 . S
C1166 C1158 1.574 . S
C1166 H1161 0.949 . S
C1166 C1172 1.368 . S
C1167 C1151 1.349 . S
C1167 H1159 0.950 . S
C1167 C1165 1.327 . S
C1168 C1156 1.349 . S
C1168 H1162 0.950 . S
C1168 C1169 1.327 . S
C1169 H1163 0.950 . S
C1169 C1168 1.327 . S
C1169 C1173 1.429 . S
C1170 C1153 1.574 . S
C1170 H1164 0.949 . S
C1170 C1174 1.368 . S
C1171 C1152 1.429 . S
C1171 C1165 1.429 . S
C1171 C1172 1.523 . S
C1172 C1153 1.368 . S
C1172 C1166 1.368 . S
C1172 C1171 1.523 . S
C1173 C1157 1.429 . S
C1173 C1169 1.429 . S
C1173 C1174 1.523 . S
C1174 C1158 1.368 . S
C1174 C1170 1.368 . S
C1174 C1173 1.523 . S
H1175 C1150 0.950 . S
H1176 C1152 0.950 . S
H1177 C1153 0.949 . S
H1178 C1155 0.950 . S
H1179 C1157 0.950 . S
C1180 C1181 1.349 . S
C1180 C1182 1.327 . S
C1180 H1205 0.950 . S
C1181 C1180 1.349 . S
C1181 C1197 1.349 1_556 S
C1182 C1180 1.327 . S
C1182 C1201 1.429 . S
C1182 H1206 0.950 1_545 S
C1183 C1200 1.574 . S
C1183 C1202 1.368 1_554 S
C1183 H1207 0.949 1_565 S
H1184 C1188 0.949 . S
C1185 C1186 1.349 1_554 S
C1185 C1187 1.327 . S
C1185 H1208 0.950 . S
C1186 C1185 1.349 1_556 S
C1186 C1198 1.349 . S
C1187 C1185 1.327 . S
C1187 C1203 1.429 1_554 S
C1187 H1209 0.950 . S
C1188 H1184 0.949 . S
C1188 C1196 1.574 . S
C1188 C1204 1.368 . S
H1189 C1197 0.950 . S
H1190 C1195 0.950 . S
H1191 C1196 0.949 . S
H1192 C1198 0.950 . S
H1193 C1199 0.950 . S
H1194 C1200 0.949 . S
C1195 H1190 0.950 . S
C1195 C1197 1.327 . S
C1195 C1201 1.429 1_554 S
C1196 C1188 1.574 . S
C1196 H1191 0.949 . S
C1196 C1202 1.368 . S
C1197 C1181 1.349 1_554 S
C1197 H1189 0.950 . S
C1197 C1195 1.327 . S
C1198 C1186 1.349 . S
C1198 H1192 0.950 . S
C1198 C1199 1.327 . S
C1199 H1193 0.950 . S
C1199 C1198 1.327 . S
C1199 C1203 1.429 . S
C1200 C1183 1.574 . S
C1200 H1194 0.949 . S
C1200 C1204 1.368 1_554 S
C1201 C1182 1.429 . S
C1201 C1195 1.429 1_556 S
C1201 C1202 1.523 1_545 S
C1202 C1183 1.368 1_556 S
C1202 C1196 1.368 . S
C1202 C1201 1.523 1_565 S
C1203 C1187 1.429 1_556 S
C1203 C1199 1.429 . S
C1203 C1204 1.523 . S
C1204 C1188 1.368 . S
C1204 C1200 1.368 1_556 S
C1204 C1203 1.523 . S
H1205 C1180 0.950 . S
H1206 C1182 0.950 1_565 S
H1207 C1183 0.949 1_545 S
H1208 C1185 0.950 . S
H1209 C1187 0.950 . S
C1210 C1211 1.349 . S
C1210 C1212 1.327 . S
C1210 H1235 0.950 . S
C1211 C1210 1.349 . S
C1211 C1227 1.349 . S
C1212 C1210 1.327 . S
C1212 C1231 1.429 . S
C1212 H1236 0.950 . S
C1213 C1230 1.574 . S
C1213 C1232 1.368 . S
C1213 H1237 0.949 . S
H1214 C1218 0.949 . S
C1215 C1216 1.349 . S
C1215 C1217 1.327 . S
C1215 H1238 0.950 . S
C1216 C1215 1.349 . S
C1216 C1228 1.349 . S
C1217 C1215 1.327 . S
C1217 C1233 1.429 . S
C1217 H1239 0.950 . S
C1218 H1214 0.949 . S
C1218 C1226 1.574 . S
C1218 C1234 1.368 . S
H1219 C1227 0.950 . S
H1220 C1225 0.950 . S
H1221 C1226 0.949 . S
H1222 C1228 0.950 . S
H1223 C1229 0.950 . S
H1224 C1230 0.949 . S
C1225 H1220 0.950 . S
C1225 C1227 1.327 . S
C1225 C1231 1.429 . S
C1226 C1218 1.574 . S
C1226 H1221 0.949 . S
C1226 C1232 1.368 . S
C1227 C1211 1.349 . S
C1227 H1219 0.950 . S
C1227 C1225 1.327 . S
C1228 C1216 1.349 . S
C1228 H1222 0.950 . S
C1228 C1229 1.327 . S
C1229 H1223 0.950 . S
C1229 C1228 1.327 . S
C1229 C1233 1.429 . S
C1230 C1213 1.574 . S
C1230 H1224 0.949 . S
C1230 C1234 1.368 . S
C1231 C1212 1.429 . S
C1231 C1225 1.429 . S
C1231 C1232 1.523 . S
C1232 C1213 1.368 . S
C1232 C1226 1.368 . S
C1232 C1231 1.523 . S
C1233 C1217 1.429 . S
C1233 C1229 1.429 . S
C1233 C1234 1.523 . S
C1234 C1218 1.368 . S
C1234 C1230 1.368 . S
C1234 C1233 1.523 . S
H1235 C1210 0.950 . S
H1236 C1212 0.950 . S
H1237 C1213 0.949 . S
H1238 C1215 0.950 . S
H1239 C1217 0.950 . S
C1240 C1241 1.349 . S
C1240 C1242 1.327 . S
C1240 H1265 0.950 . S
C1241 C1240 1.349 . S
C1241 C1257 1.349 . S
C1242 C1240 1.327 . S
C1242 C1261 1.429 . S
C1242 H1266 0.950 . S
C1243 C1260 1.574 . S
C1243 C1262 1.368 . S
C1243 H1267 0.949 . S
H1244 C1248 0.949 . S
C1245 C1246 1.349 . S
C1245 C1247 1.327 . S
C1245 H1268 0.950 . S
C1246 C1245 1.349 . S
C1246 C1258 1.349 . S
C1247 C1245 1.327 . S
C1247 C1263 1.429 . S
C1247 H1269 0.950 . S
C1248 H1244 0.949 . S
C1248 C1256 1.574 . S
C1248 C1264 1.368 . S
H1249 C1257 0.950 1_565 S
H1250 C1255 0.950 . S
H1251 C1256 0.949 . S
H1252 C1258 0.950 . S
H1253 C1259 0.950 . S
H1254 C1260 0.949 . S
C1255 H1250 0.950 . S
C1255 C1257 1.327 . S
C1255 C1261 1.429 . S
C1256 C1248 1.574 . S
C1256 H1251 0.949 . S
C1256 C1262 1.368 . S
C1257 C1241 1.349 . S
C1257 H1249 0.950 1_545 S
C1257 C1255 1.327 . S
C1258 C1246 1.349 . S
C1258 H1252 0.950 . S
C1258 C1259 1.327 . S
C1259 H1253 0.950 . S
C1259 C1258 1.327 . S
C1259 C1263 1.429 . S
C1260 C1243 1.574 . S
C1260 H1254 0.949 . S
C1260 C1264 1.368 . S
C1261 C1242 1.429 . S
C1261 C1255 1.429 . S
C1261 C1262 1.523 . S
C1262 C1243 1.368 . S
C1262 C1256 1.368 . S
C1262 C1261 1.523 . S
C1263 C1247 1.429 . S
C1263 C1259 1.429 . S
C1263 C1264 1.523 . S
C1264 C1248 1.368 . S
C1264 C1260 1.368 . S
C1264 C1263 1.523 . S
H1265 C1240 0.950 . S
H1266 C1242 0.950 . S
H1267 C1243 0.949 . S
H1268 C1245 0.950 . S
H1269 C1247 0.950 . S
C1270 C1271 1.349 . S
C1270 C1272 1.327 . S
C1270 H1295 0.950 . S
C1271 C1270 1.349 . S
C1271 C1287 1.349 . S
C1272 C1270 1.327 . S
C1272 C1291 1.429 . S
C1272 H1296 0.950 . S
C1273 C1290 1.574 . S
C1273 C1292 1.368 . S
C1273 H1297 0.949 . S
H1274 C1278 0.949 . S
C1275 C1276 1.349 . S
C1275 C1277 1.327 . S
C1275 H1298 0.950 . S
C1276 C1275 1.349 . S
C1276 C1288 1.349 . S
C1277 C1275 1.327 . S
C1277 C1293 1.429 . S
C1277 H1299 0.950 . S
C1278 H1274 0.949 . S
C1278 C1286 1.574 . S
C1278 C1294 1.368 . S
H1279 C1287 0.950 . S
H1280 C1285 0.950 . S
H1281 C1286 0.949 . S
H1282 C1288 0.950 . S
H1283 C1289 0.950 . S
H1284 C1290 0.949 . S
C1285 H1280 0.950 . S
C1285 C1287 1.327 . S
C1285 C1291 1.429 . S
C1286 C1278 1.574 . S
C1286 H1281 0.949 . S
C1286 C1292 1.368 . S
C1287 C1271 1.349 . S
C1287 H1279 0.950 . S
C1287 C1285 1.327 . S
C1288 C1276 1.349 . S
C1288 H1282 0.950 . S
C1288 C1289 1.327 . S
C1289 H1283 0.950 . S
C1289 C1288 1.327 . S
C1289 C1293 1.429 . S
C1290 C1273 1.574 . S
C1290 H1284 0.949 . S
C1290 C1294 1.368 . S
C1291 C1272 1.429 . S
C1291 C1285 1.429 . S
C1291 C1292 1.523 . S
C1292 C1273 1.368 . S
C1292 C1286 1.368 . S
C1292 C1291 1.523 . S
C1293 C1277 1.429 . S
C1293 C1289 1.429 . S
C1293 C1294 1.523 . S
C1294 C1278 1.368 . S
C1294 C1290 1.368 . S
C1294 C1293 1.523 . S
H1295 C1270 0.950 . S
H1296 C1272 0.950 . S
H1297 C1273 0.949 . S
H1298 C1275 0.950 . S
H1299 C1277 0.950 . S
C1300 C1301 1.349 . S
C1300 C1302 1.327 1_565 S
C1300 H1325 0.950 . S
C1301 C1300 1.349 . S
C1301 C1317 1.349 1_565 S
C1302 C1300 1.327 1_545 S
C1302 C1321 1.429 . S
C1302 H1326 0.950 1_545 S
C1303 C1320 1.574 . S
C1303 C1322 1.368 . S
C1303 H1327 0.949 . S
H1304 C1308 0.949 . S
C1305 C1306 1.349 . S
C1305 C1307 1.327 . S
C1305 H1328 0.950 . S
C1306 C1305 1.349 . S
C1306 C1318 1.349 . S
C1307 C1305 1.327 . S
C1307 C1323 1.429 . S
C1307 H1329 0.950 . S
C1308 H1304 0.949 . S
C1308 C1316 1.574 . S
C1308 C1324 1.368 . S
H1309 C1317 0.950 . S
H1310 C1315 0.950 . S
H1311 C1316 0.949 . S
H1312 C1318 0.950 . S
H1313 C1319 0.950 . S
H1314 C1320 0.949 . S
C1315 H1310 0.950 . S
C1315 C1317 1.327 . S
C1315 C1321 1.429 . S
C1316 C1308 1.574 . S
C1316 H1311 0.949 . S
C1316 C1322 1.368 . S
C1317 C1301 1.349 1_545 S
C1317 H1309 0.950 . S
C1317 C1315 1.327 . S
C1318 C1306 1.349 . S
C1318 H1312 0.950 . S
C1318 C1319 1.327 . S
C1319 H1313 0.950 . S
C1319 C1318 1.327 . S
C1319 C1323 1.429 . S
C1320 C1303 1.574 . S
C1320 H1314 0.949 . S
C1320 C1324 1.368 . S
C1321 C1302 1.429 . S
C1321 C1315 1.429 . S
C1321 C1322 1.523 . S
C1322 C1303 1.368 . S
C1322 C1316 1.368 . S
C1322 C1321 1.523 . S
C1323 C1307 1.429 . S
C1323 C1319 1.429 . S
C1323 C1324 1.523 . S
C1324 C1308 1.368 . S
C1324 C1320 1.368 . S
C1324 C1323 1.523 . S
H1325 C1300 0.950 . S
H1326 C1302 0.950 1_565 S
H1327 C1303 0.949 . S
H1328 C1305 0.950 . S
H1329 C1307 0.950 . S
C1330 C1331 1.349 . S
C1330 C1332 1.327 . S
C1330 H1355 0.950 . S
C1331 C1330 1.349 . S
C1331 C1347 1.349 . S
C1332 C1330 1.327 . S
C1332 C1351 1.429 . S
C1332 H1356 0.950 . S
C1333 C1350 1.574 . S
C1333 C1352 1.368 . S
C1333 H1357 0.949 . S
H1334 C1338 0.949 . S
C1335 C1336 1.349 . S
C1335 C1337 1.327 . S
C1335 H1358 0.950 . S
C1336 C1335 1.349 . S
C1336 C1348 1.349 . S
C1337 C1335 1.327 . S
C1337 C1353 1.429 . S
C1337 H1359 0.950 . S
C1338 H1334 0.949 . S
C1338 C1346 1.574 . S
C1338 C1354 1.368 . S
H1339 C1347 0.950 . S
H1340 C1345 0.950 . S
H1341 C1346 0.949 . S
H1342 C1348 0.950 . S
H1343 C1349 0.950 . S
H1344 C1350 0.949 . S
C1345 H1340 0.950 . S
C1345 C1347 1.327 . S
C1345 C1351 1.429 . S
C1346 C1338 1.574 . S
C1346 H1341 0.949 . S
C1346 C1352 1.368 . S
C1347 C1331 1.349 . S
C1347 H1339 0.950 . S
C1347 C1345 1.327 . S
C1348 C1336 1.349 . S
C1348 H1342 0.950 . S
C1348 C1349 1.327 . S
C1349 H1343 0.950 . S
C1349 C1348 1.327 . S
C1349 C1353 1.429 . S
C1350 C1333 1.574 . S
C1350 H1344 0.949 . S
C1350 C1354 1.368 . S
C1351 C1332 1.429 . S
C1351 C1345 1.429 . S
C1351 C1352 1.523 . S
C1352 C1333 1.368 . S
C1352 C1346 1.368 . S
C1352 C1351 1.523 . S
C1353 C1337 1.429 . S
C1353 C1349 1.429 . S
C1353 C1354 1.523 . S
C1354 C1338 1.368 . S
C1354 C1350 1.368 . S
C1354 C1353 1.523 . S
H1355 C1330 0.950 . S
H1356 C1332 0.950 . S
H1357 C1333 0.949 . S
H1358 C1335 0.950 . S
H1359 C1337 0.950 . S
C1360 C1361 1.349 . S
C1360 C1362 1.327 . S
C1360 H1385 0.950 . S
C1361 C1360 1.349 . S
C1361 C1377 1.349 . S
C1362 C1360 1.327 . S
C1362 C1381 1.429 . S
C1362 H1386 0.950 . S
C1363 C1380 1.574 . S
C1363 C1382 1.368 . S
C1363 H1387 0.949 . S
H1364 C1368 0.949 . S
C1365 C1366 1.349 . S
C1365 C1367 1.327 . S
C1365 H1388 0.950 . S
C1366 C1365 1.349 . S
C1366 C1378 1.349 . S
C1367 C1365 1.327 . S
C1367 C1383 1.429 . S
C1367 H1389 0.950 . S
C1368 H1364 0.949 . S
C1368 C1376 1.574 . S
C1368 C1384 1.368 . S
H1369 C1377 0.950 . S
H1370 C1375 0.950 . S
H1371 C1376 0.949 . S
H1372 C1378 0.950 . S
H1373 C1379 0.950 . S
H1374 C1380 0.949 . S
C1375 H1370 0.950 . S
C1375 C1377 1.327 . S
C1375 C1381 1.429 . S
C1376 C1368 1.574 . S
C1376 H1371 0.949 . S
C1376 C1382 1.368 . S
C1377 C1361 1.349 . S
C1377 H1369 0.950 . S
C1377 C1375 1.327 . S
C1378 C1366 1.349 . S
C1378 H1372 0.950 . S
C1378 C1379 1.327 . S
C1379 H1373 0.950 . S
C1379 C1378 1.327 . S
C1379 C1383 1.429 . S
C1380 C1363 1.574 . S
C1380 H1374 0.949 . S
C1380 C1384 1.368 . S
C1381 C1362 1.429 . S
C1381 C1375 1.429 . S
C1381 C1382 1.523 . S
C1382 C1363 1.368 . S
C1382 C1376 1.368 . S
C1382 C1381 1.523 . S
C1383 C1367 1.429 . S
C1383 C1379 1.429 . S
C1383 C1384 1.523 . S
C1384 C1368 1.368 . S
C1384 C1380 1.368 . S
C1384 C1383 1.523 . S
H1385 C1360 0.950 . S
H1386 C1362 0.950 . S
H1387 C1363 0.949 . S
H1388 C1365 0.950 . S
H1389 C1367 0.950 . S
C1390 C1391 1.349 . S
C1390 C1392 1.327 . S
C1390 H1415 0.950 . S
C1391 C1390 1.349 . S
C1391 C1407 1.349 . S
C1392 C1390 1.327 . S
C1392 C1411 1.429 . S
C1392 H1416 0.950 . S
C1393 C1410 1.574 . S
C1393 C1412 1.368 . S
C1393 H1417 0.949 . S
H1394 C1398 0.949 . S
C1395 C1396 1.349 1_565 S
C1395 C1397 1.327 . S
C1395 H1418 0.950 . S
C1396 C1395 1.349 1_545 S
C1396 C1408 1.349 . S
C1397 C1395 1.327 . S
C1397 C1413 1.429 1_565 S
C1397 H1419 0.950 . S
C1398 H1394 0.949 . S
C1398 C1406 1.574 . S
C1398 C1414 1.368 . S
H1399 C1407 0.950 . S
H1400 C1405 0.950 . S
H1401 C1406 0.949 . S
H1402 C1408 0.950 . S
H1403 C1409 0.950 . S
H1404 C1410 0.949 1_565 S
C1405 H1400 0.950 . S
C1405 C1407 1.327 . S
C1405 C1411 1.429 . S
C1406 C1398 1.574 . S
C1406 H1401 0.949 . S
C1406 C1412 1.368 . S
C1407 C1391 1.349 . S
C1407 H1399 0.950 . S
C1407 C1405 1.327 . S
C1408 C1396 1.349 . S
C1408 H1402 0.950 . S
C1408 C1409 1.327 . S
C1409 H1403 0.950 . S
C1409 C1408 1.327 . S
C1409 C1413 1.429 . S
C1410 C1393 1.574 . S
C1410 H1404 0.949 1_545 S
C1410 C1414 1.368 . S
C1411 C1392 1.429 . S
C1411 C1405 1.429 . S
C1411 C1412 1.523 . S
C1412 C1393 1.368 . S
C1412 C1406 1.368 . S
C1412 C1411 1.523 . S
C1413 C1397 1.429 1_545 S
C1413 C1409 1.429 . S
C1413 C1414 1.523 . S
C1414 C1398 1.368 . S
C1414 C1410 1.368 . S
C1414 C1413 1.523 . S
H1415 C1390 0.950 . S
H1416 C1392 0.950 . S
H1417 C1393 0.949 . S
H1418 C1395 0.950 . S
H1419 C1397 0.950 . S
C1420 C1421 1.349 . S
C1420 C1422 1.327 . S
C1420 H1445 0.950 . S
C1421 C1420 1.349 . S
C1421 C1437 1.349 . S
C1422 C1420 1.327 . S
C1422 C1441 1.429 . S
C1422 H1446 0.950 . S
C1423 C1440 1.574 . S
C1423 C1442 1.368 . S
C1423 H1447 0.949 . S
H1424 C1428 0.949 . S
C1425 C1426 1.349 . S
C1425 C1427 1.327 . S
C1425 H1448 0.950 . S
C1426 C1425 1.349 . S
C1426 C1438 1.349 . S
C1427 C1425 1.327 . S
C1427 C1443 1.429 . S
C1427 H1449 0.950 . S
C1428 H1424 0.949 . S
C1428 C1436 1.574 . S
C1428 C1444 1.368 . S
H1429 C1437 0.950 . S
H1430 C1435 0.950 . S
H1431 C1436 0.949 . S
H1432 C1438 0.950 . S
H1433 C1439 0.950 . S
H1434 C1440 0.949 . S
C1435 H1430 0.950 . S
C1435 C1437 1.327 . S
C1435 C1441 1.429 . S
C1436 C1428 1.574 . S
C1436 H1431 0.949 . S
C1436 C1442 1.368 . S
C1437 C1421 1.349 . S
C1437 H1429 0.950 . S
C1437 C1435 1.327 . S
C1438 C1426 1.349 . S
C1438 H1432 0.950 . S
C1438 C1439 1.327 . S
C1439 H1433 0.950 . S
C1439 C1438 1.327 . S
C1439 C1443 1.429 . S
C1440 C1423 1.574 . S
C1440 H1434 0.949 . S
C1440 C1444 1.368 . S
C1441 C1422 1.429 . S
C1441 C1435 1.429 . S
C1441 C1442 1.523 . S
C1442 C1423 1.368 . S
C1442 C1436 1.368 . S
C1442 C1441 1.523 . S
C1443 C1427 1.429 . S
C1443 C1439 1.429 . S
C1443 C1444 1.523 . S
C1444 C1428 1.368 . S
C1444 C1440 1.368 . S
C1444 C1443 1.523 . S
H1445 C1420 0.950 . S
H1446 C1422 0.950 . S
H1447 C1423 0.949 . S
H1448 C1425 0.950 . S
H1449 C1427 0.950 . S
C1450 C1451 1.349 . S
C1450 C1452 1.327 . S
C1450 H1475 0.950 . S
C1451 C1450 1.349 . S
C1451 C1467 1.349 . S
C1452 C1450 1.327 . S
C1452 C1471 1.429 . S
C1452 H1476 0.950 . S
C1453 C1470 1.574 . S
C1453 C1472 1.368 . S
C1453 H1477 0.949 . S
H1454 C1458 0.949 . S
C1455 C1456 1.349 . S
C1455 C1457 1.327 . S
C1455 H1478 0.950 . S
C1456 C1455 1.349 . S
C1456 C1468 1.349 . S
C1457 C1455 1.327 . S
C1457 C1473 1.429 . S
C1457 H1479 0.950 . S
C1458 H1454 0.949 . S
C1458 C1466 1.574 . S
C1458 C1474 1.368 . S
H1459 C1467 0.950 . S
H1460 C1465 0.950 . S
H1461 C1466 0.949 . S
H1462 C1468 0.950 . S
H1463 C1469 0.950 . S
H1464 C1470 0.949 . S
C1465 H1460 0.950 . S
C1465 C1467 1.327 . S
C1465 C1471 1.429 . S
C1466 C1458 1.574 . S
C1466 H1461 0.949 . S
C1466 C1472 1.368 . S
C1467 C1451 1.349 . S
C1467 H1459 0.950 . S
C1467 C1465 1.327 . S
C1468 C1456 1.349 . S
C1468 H1462 0.950 . S
C1468 C1469 1.327 . S
C1469 H1463 0.950 . S
C1469 C1468 1.327 . S
C1469 C1473 1.429 . S
C1470 C1453 1.574 . S
C1470 H1464 0.949 . S
C1470 C1474 1.368 . S
C1471 C1452 1.429 . S
C1471 C1465 1.429 . S
C1471 C1472 1.523 . S
C1472 C1453 1.368 . S
C1472 C1466 1.368 . S
C1472 C1471 1.523 . S
C1473 C1457 1.429 . S
C1473 C1469 1.429 . S
C1473 C1474 1.523 . S
C1474 C1458 1.368 . S
C1474 C1470 1.368 . S
C1474 C1473 1.523 . S
H1475 C1450 0.950 . S
H1476 C1452 0.950 . S
H1477 C1453 0.949 . S
H1478 C1455 0.950 . S
H1479 C1457 0.950 . S
C1480 C1481 1.349 . S
C1480 C1482 1.327 . S
C1480 H1505 0.950 . S
C1481 C1480 1.349 . S
C1481 C1497 1.349 . S
C1482 C1480 1.327 . S
C1482 C1501 1.429 . S
C1482 H1506 0.950 . S
C1483 C1500 1.574 . S
C1483 C1502 1.368 . S
C1483 H1507 0.949 . S
H1484 C1488 0.949 . S
C1485 C1486 1.349 . S
C1485 C1487 1.327 . S
C1485 H1508 0.950 . S
C1486 C1485 1.349 . S
C1486 C1498 1.349 . S
C1487 C1485 1.327 . S
C1487 C1503 1.429 . S
C1487 H1509 0.950 . S
C1488 H1484 0.949 . S
C1488 C1496 1.574 . S
C1488 C1504 1.368 . S
H1489 C1497 0.950 . S
H1490 C1495 0.950 . S
H1491 C1496 0.949 . S
H1492 C1498 0.950 . S
H1493 C1499 0.950 . S
H1494 C1500 0.949 . S
C1495 H1490 0.950 . S
C1495 C1497 1.327 . S
C1495 C1501 1.429 . S
C1496 C1488 1.574 . S
C1496 H1491 0.949 . S
C1496 C1502 1.368 . S
C1497 C1481 1.349 . S
C1497 H1489 0.950 . S
C1497 C1495 1.327 . S
C1498 C1486 1.349 . S
C1498 H1492 0.950 . S
C1498 C1499 1.327 . S
C1499 H1493 0.950 . S
C1499 C1498 1.327 . S
C1499 C1503 1.429 . S
C1500 C1483 1.574 . S
C1500 H1494 0.949 . S
C1500 C1504 1.368 . S
C1501 C1482 1.429 . S
C1501 C1495 1.429 . S
C1501 C1502 1.523 . S
C1502 C1483 1.368 . S
C1502 C1496 1.368 . S
C1502 C1501 1.523 . S
C1503 C1487 1.429 . S
C1503 C1499 1.429 . S
C1503 C1504 1.523 . S
C1504 C1488 1.368 . S
C1504 C1500 1.368 . S
C1504 C1503 1.523 . S
H1505 C1480 0.950 . S
H1506 C1482 0.950 . S
H1507 C1483 0.949 . S
H1508 C1485 0.950 . S
H1509 C1487 0.950 . S
C1510 C1511 1.349 . S
C1510 C1512 1.327 1_455 S
C1510 H1535 0.950 . S
C1511 C1510 1.349 . S
C1511 C1527 1.349 1_455 S
C1512 C1510 1.327 1_655 S
C1512 C1531 1.429 . S
C1512 H1536 0.950 . S
C1513 C1530 1.574 . S
C1513 C1532 1.368 . S
C1513 H1537 0.949 . S
H1514 C1518 0.949 . S
C1515 C1516 1.349 . S
C1515 C1517 1.327 . S
C1515 H1538 0.950 . S
C1516 C1515 1.349 . S
C1516 C1528 1.349 . S
C1517 C1515 1.327 . S
C1517 C1533 1.429 . S
C1517 H1539 0.950 . S
C1518 H1514 0.949 . S
C1518 C1526 1.574 . S
C1518 C1534 1.368 . S
H1519 C1527 0.950 . S
H1520 C1525 0.950 . S
H1521 C1526 0.949 . S
H1522 C1528 0.950 . S
H1523 C1529 0.950 . S
H1524 C1530 0.949 . S
C1525 H1520 0.950 . S
C1525 C1527 1.327 . S
C1525 C1531 1.429 . S
C1526 C1518 1.574 . S
C1526 H1521 0.949 . S
C1526 C1532 1.368 . S
C1527 C1511 1.349 1_655 S
C1527 H1519 0.950 . S
C1527 C1525 1.327 . S
C1528 C1516 1.349 . S
C1528 H1522 0.950 . S
C1528 C1529 1.327 . S
C1529 H1523 0.950 . S
C1529 C1528 1.327 . S
C1529 C1533 1.429 . S
C1530 C1513 1.574 . S
C1530 H1524 0.949 . S
C1530 C1534 1.368 . S
C1531 C1512 1.429 . S
C1531 C1525 1.429 . S
C1531 C1532 1.523 . S
C1532 C1513 1.368 . S
C1532 C1526 1.368 . S
C1532 C1531 1.523 . S
C1533 C1517 1.429 . S
C1533 C1529 1.429 . S
C1533 C1534 1.523 . S
C1534 C1518 1.368 . S
C1534 C1530 1.368 . S
C1534 C1533 1.523 . S
H1535 C1510 0.950 . S
H1536 C1512 0.950 . S
H1537 C1513 0.949 . S
H1538 C1515 0.950 . S
H1539 C1517 0.950 . S
C1540 C1541 1.349 . S
C1540 C1542 1.327 . S
C1540 H1565 0.950 . S
C1541 C1540 1.349 . S
C1541 C1557 1.349 . S
C1542 C1540 1.327 . S
C1542 C1561 1.429 . S
C1542 H1566 0.950 . S
C1543 C1560 1.574 . S
C1543 C1562 1.368 . S
C1543 H1567 0.949 . S
H1544 C1548 0.949 . S
C1545 C1546 1.349 . S
C1545 C1547 1.327 . S
C1545 H1568 0.950 . S
C1546 C1545 1.349 . S
C1546 C1558 1.349 . S
C1547 C1545 1.327 . S
C1547 C1563 1.429 . S
C1547 H1569 0.950 . S
C1548 H1544 0.949 . S
C1548 C1556 1.574 . S
C1548 C1564 1.368 . S
H1549 C1557 0.950 . S
H1550 C1555 0.950 . S
H1551 C1556 0.949 . S
H1552 C1558 0.950 . S
H1553 C1559 0.950 . S
H1554 C1560 0.949 . S
C1555 H1550 0.950 . S
C1555 C1557 1.327 . S
C1555 C1561 1.429 . S
C1556 C1548 1.574 . S
C1556 H1551 0.949 . S
C1556 C1562 1.368 . S
C1557 C1541 1.349 . S
C1557 H1549 0.950 . S
C1557 C1555 1.327 . S
C1558 C1546 1.349 . S
C1558 H1552 0.950 . S
C1558 C1559 1.327 . S
C1559 H1553 0.950 . S
C1559 C1558 1.327 . S
C1559 C1563 1.429 . S
C1560 C1543 1.574 . S
C1560 H1554 0.949 . S
C1560 C1564 1.368 . S
C1561 C1542 1.429 . S
C1561 C1555 1.429 . S
C1561 C1562 1.523 . S
C1562 C1543 1.368 . S
C1562 C1556 1.368 . S
C1562 C1561 1.523 . S
C1563 C1547 1.429 . S
C1563 C1559 1.429 . S
C1563 C1564 1.523 . S
C1564 C1548 1.368 . S
C1564 C1560 1.368 . S
C1564 C1563 1.523 . S
H1565 C1540 0.950 . S
H1566 C1542 0.950 . S
H1567 C1543 0.949 . S
H1568 C1545 0.950 . S
H1569 C1547 0.950 . S
C1570 C1571 1.349 . S
C1570 C1572 1.327 . S
C1570 H1595 0.950 1_455 S
C1571 C1570 1.349 . S
C1571 C1587 1.349 . S
C1572 C1570 1.327 . S
C1572 C1591 1.429 . S
C1572 H1596 0.950 . S
C1573 C1590 1.574 . S
C1573 C1592 1.368 . S
C1573 H1597 0.949 . S
H1574 C1578 0.949 . S
C1575 C1576 1.349 . S
C1575 C1577 1.327 . S
C1575 H1598 0.950 . S
C1576 C1575 1.349 . S
C1576 C1588 1.349 . S
C1577 C1575 1.327 . S
C1577 C1593 1.429 . S
C1577 H1599 0.950 . S
C1578 H1574 0.949 . S
C1578 C1586 1.574 . S
C1578 C1594 1.368 . S
H1579 C1587 0.950 . S
H1580 C1585 0.950 . S
H1581 C1586 0.949 . S
H1582 C1588 0.950 . S
H1583 C1589 0.950 . S
H1584 C1590 0.949 . S
C1585 H1580 0.950 . S
C1585 C1587 1.327 . S
C1585 C1591 1.429 . S
C1586 C1578 1.574 . S
C1586 H1581 0.949 . S
C1586 C1592 1.368 . S
C1587 C1571 1.349 . S
C1587 H1579 0.950 . S
C1587 C1585 1.327 . S
C1588 C1576 1.349 . S
C1588 H1582 0.950 . S
C1588 C1589 1.327 . S
C1589 H1583 0.950 . S
C1589 C1588 1.327 . S
C1589 C1593 1.429 . S
C1590 C1573 1.574 . S
C1590 H1584 0.949 . S
C1590 C1594 1.368 . S
C1591 C1572 1.429 . S
C1591 C1585 1.429 . S
C1591 C1592 1.523 . S
C1592 C1573 1.368 . S
C1592 C1586 1.368 . S
C1592 C1591 1.523 . S
C1593 C1577 1.429 . S
C1593 C1589 1.429 . S
C1593 C1594 1.523 . S
C1594 C1578 1.368 . S
C1594 C1590 1.368 . S
C1594 C1593 1.523 . S
H1595 C1570 0.950 1_655 S
H1596 C1572 0.950 . S
H1597 C1573 0.949 . S
H1598 C1575 0.950 . S
H1599 C1577 0.950 . S
C1600 C1601 1.349 . S
C1600 C1602 1.327 . S
C1600 H1625 0.950 . S
C1601 C1600 1.349 . S
C1601 C1617 1.349 . S
C1602 C1600 1.327 . S
C1602 C1621 1.429 . S
C1602 H1626 0.950 . S
C1603 C1620 1.574 . S
C1603 C1622 1.368 . S
C1603 H1627 0.949 . S
H1604 C1608 0.949 . S
C1605 C1606 1.349 . S
C1605 C1607 1.327 . S
C1605 H1628 0.950 . S
C1606 C1605 1.349 . S
C1606 C1618 1.349 . S
C1607 C1605 1.327 . S
C1607 C1623 1.429 . S
C1607 H1629 0.950 . S
C1608 H1604 0.949 . S
C1608 C1616 1.574 . S
C1608 C1624 1.368 . S
H1609 C1617 0.950 . S
H1610 C1615 0.950 . S
H1611 C1616 0.949 . S
H1612 C1618 0.950 . S
H1613 C1619 0.950 . S
H1614 C1620 0.949 . S
C1615 H1610 0.950 . S
C1615 C1617 1.327 . S
C1615 C1621 1.429 . S
C1616 C1608 1.574 . S
C1616 H1611 0.949 . S
C1616 C1622 1.368 . S
C1617 C1601 1.349 . S
C1617 H1609 0.950 . S
C1617 C1615 1.327 . S
C1618 C1606 1.349 . S
C1618 H1612 0.950 . S
C1618 C1619 1.327 . S
C1619 H1613 0.950 . S
C1619 C1618 1.327 . S
C1619 C1623 1.429 . S
C1620 C1603 1.574 . S
C1620 H1614 0.949 . S
C1620 C1624 1.368 . S
C1621 C1602 1.429 . S
C1621 C1615 1.429 . S
C1621 C1622 1.523 . S
C1622 C1603 1.368 . S
C1622 C1616 1.368 . S
C1622 C1621 1.523 . S
C1623 C1607 1.429 . S
C1623 C1619 1.429 . S
C1623 C1624 1.523 . S
C1624 C1608 1.368 . S
C1624 C1620 1.368 . S
C1624 C1623 1.523 . S
H1625 C1600 0.950 . S
H1626 C1602 0.950 . S
H1627 C1603 0.949 . S
H1628 C1605 0.950 . S
H1629 C1607 0.950 . S
C1630 C1631 1.349 1_556 S
C1630 C1632 1.327 . S
C1630 H1655 0.950 1_655 S
C1631 C1630 1.349 1_554 S
C1631 C1647 1.349 . S
C1632 C1630 1.327 . S
C1632 C1651 1.429 . S
C1632 H1656 0.950 1_655 S
C1633 C1650 1.574 . S
C1633 C1652 1.368 . S
C1633 H1657 0.949 . S
H1634 C1638 0.949 . S
C1635 C1636 1.349 . S
C1635 C1637 1.327 . S
C1635 H1658 0.950 . S
C1636 C1635 1.349 . S
C1636 C1648 1.349 1_655 S
C1637 C1635 1.327 . S
C1637 C1653 1.429 . S
C1637 H1659 0.950 . S
C1638 H1634 0.949 . S
C1638 C1646 1.574 . S
C1638 C1654 1.368 1_455 S
H1639 C1647 0.950 . S
H1640 C1645 0.952 . S
H1641 C1646 0.949 . S
H1642 C1648 0.950 . S
H1643 C1649 0.950 . S
H1644 C1650 0.949 . S
C1645 H1640 0.952 . S
C1645 C1647 1.346 . S
C1645 C1651 1.407 1_554 S
C1646 C1638 1.574 . S
C1646 H1641 0.949 . S
C1646 C1652 1.368 1_455 S
C1647 C1631 1.349 . S
C1647 H1639 0.950 . S
C1647 C1645 1.346 . S
C1648 C1636 1.349 1_455 S
C1648 H1642 0.950 . S
C1648 C1649 1.327 . S
C1649 H1643 0.950 . S
C1649 C1648 1.327 . S
C1649 C1653 1.429 1_455 S
C1650 C1633 1.574 . S
C1650 H1644 0.949 . S
C1650 C1654 1.368 . S
C1651 C1632 1.429 . S
C1651 C1645 1.407 1_556 S
C1651 C1652 1.523 . S
C1652 C1633 1.368 . S
C1652 C1646 1.368 1_655 S
C1652 C1651 1.523 . S
C1653 C1637 1.429 . S
C1653 C1649 1.429 1_655 S
C1653 C1654 1.523 . S
C1654 C1638 1.368 1_655 S
C1654 C1650 1.368 . S
C1654 C1653 1.523 . S
H1655 C1630 0.950 1_455 S
H1656 C1632 0.950 1_455 S
H1657 C1633 0.949 . S
H1658 C1635 0.950 . S
H1659 C1637 0.950 . S
C1660 C1661 1.349 . S
C1660 C1662 1.327 . S
C1660 H1685 0.950 . S
C1661 C1660 1.349 . S
C1661 C1677 1.349 . S
C1662 C1660 1.327 . S
C1662 C1681 1.429 . S
C1662 H1686 0.950 . S
C1663 C1680 1.574 . S
C1663 C1682 1.368 . S
C1663 H1687 0.949 . S
H1664 C1668 0.949 . S
C1665 C1666 1.349 . S
C1665 C1667 1.327 . S
C1665 H1688 0.950 . S
C1666 C1665 1.349 . S
C1666 C1678 1.349 . S
C1667 C1665 1.327 . S
C1667 C1683 1.429 . S
C1667 H1689 0.950 . S
C1668 H1664 0.949 . S
C1668 C1676 1.574 . S
C1668 C1684 1.368 . S
H1669 C1677 0.950 . S
H1670 C1675 0.950 . S
H1671 C1676 0.949 . S
H1672 C1678 0.950 . S
H1673 C1679 0.950 . S
H1674 C1680 0.949 . S
C1675 H1670 0.950 . S
C1675 C1677 1.327 . S
C1675 C1681 1.429 . S
C1676 C1668 1.574 . S
C1676 H1671 0.949 . S
C1676 C1682 1.368 . S
C1677 C1661 1.349 . S
C1677 H1669 0.950 . S
C1677 C1675 1.327 . S
C1678 C1666 1.349 . S
C1678 H1672 0.950 . S
C1678 C1679 1.327 . S
C1679 H1673 0.950 . S
C1679 C1678 1.327 . S
C1679 C1683 1.429 . S
C1680 C1663 1.574 . S
C1680 H1674 0.949 . S
C1680 C1684 1.368 . S
C1681 C1662 1.429 . S
C1681 C1675 1.429 . S
C1681 C1682 1.523 . S
C1682 C1663 1.368 . S
C1682 C1676 1.368 . S
C1682 C1681 1.523 . S
C1683 C1667 1.429 . S
C1683 C1679 1.429 . S
C1683 C1684 1.523 . S
C1684 C1668 1.368 . S
C1684 C1680 1.368 . S
C1684 C1683 1.523 . S
H1685 C1660 0.950 . S
H1686 C1662 0.950 . S
H1687 C1663 0.949 . S
H1688 C1665 0.950 . S
H1689 C1667 0.950 . S
C1690 C1691 1.349 1_556 S
C1690 C1692 1.327 . S
C1690 H1715 0.950 1_455 S
C1691 C1690 1.349 1_554 S
C1691 C1707 1.349 . S
C1692 C1690 1.327 . S
C1692 C1711 1.429 . S
C1692 H1716 0.950 1_455 S
C1693 C1710 1.574 . S
C1693 C1712 1.368 . S
C1693 H1717 0.949 . S
H1694 C1698 0.949 . S
C1695 C1696 1.386 . S
C1695 C1697 1.327 . S
C1695 H1718 0.950 . S
C1696 C1695 1.386 . S
C1696 C1708 1.324 1_455 S
C1697 C1695 1.327 . S
C1697 C1713 1.429 . S
C1697 H1719 0.950 . S
C1698 H1694 0.949 . S
C1698 C1706 1.574 . S
C1698 C1714 1.368 1_655 S
H1699 C1707 0.950 . S
H1700 C1705 0.950 . S
H1701 C1706 0.949 . S
H1702 C1708 0.950 . S
H1703 C1709 0.950 . S
H1704 C1710 0.949 . S
C1705 H1700 0.950 . S
C1705 C1707 1.327 1_556 S
C1705 C1711 1.429 . S
C1706 C1698 1.574 . S
C1706 H1701 0.949 . S
C1706 C1712 1.368 1_655 S
C1707 C1691 1.349 . S
C1707 H1699 0.950 . S
C1707 C1705 1.327 1_554 S
C1708 C1696 1.324 1_655 S
C1708 H1702 0.950 . S
C1708 C1709 1.327 . S
C1709 H1703 0.950 . S
C1709 C1708 1.327 . S
C1709 C1713 1.429 1_655 S
C1710 C1693 1.574 . S
C1710 H1704 0.949 . S
C1710 C1714 1.368 . S
C1711 C1692 1.429 . S
C1711 C1705 1.429 . S
C1711 C1712 1.523 . S
C1712 C1693 1.368 . S
C1712 C1706 1.368 1_455 S
C1712 C1711 1.523 . S
C1713 C1697 1.429 . S
C1713 C1709 1.429 1_455 S
C1713 C1714 1.523 . S
C1714 C1698 1.368 1_455 S
C1714 C1710 1.368 . S
C1714 C1713 1.523 . S
H1715 C1690 0.950 1_655 S
H1716 C1692 0.950 1_655 S
H1717 C1693 0.949 . S
H1718 C1695 0.950 . S
H1719 C1697 0.950 . S
C1720 C1721 1.349 . S
C1720 C1722 1.327 . S
C1720 H1745 0.950 . S
C1721 C1720 1.349 . S
C1721 C1737 1.349 . S
C1722 C1720 1.327 . S
C1722 C1741 1.429 . S
C1722 H1746 0.950 . S
C1723 C1740 1.574 . S
C1723 C1742 1.368 . S
C1723 H1747 0.949 . S
H1724 C1728 0.949 . S
C1725 C1726 1.349 . S
C1725 C1727 1.327 . S
C1725 H1748 0.950 . S
C1726 C1725 1.349 . S
C1726 C1738 1.349 . S
C1727 C1725 1.327 . S
C1727 C1743 1.429 . S
C1727 H1749 0.950 . S
C1728 H1724 0.949 . S
C1728 C1736 1.574 . S
C1728 C1744 1.368 . S
H1729 C1737 0.950 . S
H1730 C1735 0.950 . S
H1731 C1736 0.949 . S
H1732 C1738 0.950 . S
H1733 C1739 0.950 . S
H1734 C1740 0.949 . S
C1735 H1730 0.950 . S
C1735 C1737 1.327 . S
C1735 C1741 1.429 . S
C1736 C1728 1.574 . S
C1736 H1731 0.949 . S
C1736 C1742 1.368 . S
C1737 C1721 1.349 . S
C1737 H1729 0.950 . S
C1737 C1735 1.327 . S
C1738 C1726 1.349 . S
C1738 H1732 0.950 . S
C1738 C1739 1.327 . S
C1739 H1733 0.950 . S
C1739 C1738 1.327 . S
C1739 C1743 1.429 . S
C1740 C1723 1.574 . S
C1740 H1734 0.949 . S
C1740 C1744 1.368 . S
C1741 C1722 1.429 . S
C1741 C1735 1.429 . S
C1741 C1742 1.523 . S
C1742 C1723 1.368 . S
C1742 C1736 1.368 . S
C1742 C1741 1.523 . S
C1743 C1727 1.429 . S
C1743 C1739 1.429 . S
C1743 C1744 1.523 . S
C1744 C1728 1.368 . S
C1744 C1740 1.368 . S
C1744 C1743 1.523 . S
H1745 C1720 0.950 . S
H1746 C1722 0.950 . S
H1747 C1723 0.949 . S
H1748 C1725 0.950 . S
H1749 C1727 0.950 . S
C1750 C1751 1.349 . S
C1750 C1752 1.327 1_556 S
C1750 H1775 0.950 . S
C1751 C1750 1.349 . S
C1751 C1767 1.349 1_556 S
C1752 C1750 1.327 1_554 S
C1752 C1771 1.429 . S
C1752 H1776 0.950 . S
C1753 C1770 1.574 . S
C1753 C1772 1.368 . S
C1753 H1777 0.949 . S
H1754 C1758 0.949 . S
C1755 C1756 1.349 . S
C1755 C1757 1.327 . S
C1755 H1778 0.950 . S
C1756 C1755 1.349 . S
C1756 C1768 1.349 . S
C1757 C1755 1.327 . S
C1757 C1773 1.429 . S
C1757 H1779 0.950 . S
C1758 H1754 0.949 . S
C1758 C1766 1.574 . S
C1758 C1774 1.368 . S
H1759 C1767 0.950 . S
H1760 C1765 0.950 . S
H1761 C1766 0.949 . S
H1762 C1768 0.950 . S
H1763 C1769 0.950 . S
H1764 C1770 0.949 . S
C1765 H1760 0.950 . S
C1765 C1767 1.327 . S
C1765 C1771 1.429 . S
C1766 C1758 1.574 . S
C1766 H1761 0.949 . S
C1766 C1772 1.368 . S
C1767 C1751 1.349 1_554 S
C1767 H1759 0.950 . S
C1767 C1765 1.327 . S
C1768 C1756 1.349 . S
C1768 H1762 0.950 . S
C1768 C1769 1.327 . S
C1769 H1763 0.950 . S
C1769 C1768 1.327 . S
C1769 C1773 1.429 . S
C1770 C1753 1.574 . S
C1770 H1764 0.949 . S
C1770 C1774 1.368 . S
C1771 C1752 1.429 . S
C1771 C1765 1.429 . S
C1771 C1772 1.523 . S
C1772 C1753 1.368 . S
C1772 C1766 1.368 . S
C1772 C1771 1.523 . S
C1773 C1757 1.429 . S
C1773 C1769 1.429 . S
C1773 C1774 1.523 . S
C1774 C1758 1.368 . S
C1774 C1770 1.368 . S
C1774 C1773 1.523 . S
H1775 C1750 0.950 . S
H1776 C1752 0.950 . S
H1777 C1753 0.949 . S
H1778 C1755 0.950 . S
H1779 C1757 0.950 . S
C1780 C1781 1.349 . S
C1780 C1782 1.327 . S
C1780 H1805 0.950 . S
C1781 C1780 1.349 . S
C1781 C1797 1.349 . S
C1782 C1780 1.327 . S
C1782 C1801 1.429 . S
C1782 H1806 0.950 . S
C1783 C1800 1.574 . S
C1783 C1802 1.368 . S
C1783 H1807 0.949 . S
H1784 C1788 0.949 . S
C1785 C1786 1.349 . S
C1785 C1787 1.327 . S
C1785 H1808 0.950 . S
C1786 C1785 1.349 . S
C1786 C1798 1.349 . S
C1787 C1785 1.327 . S
C1787 C1803 1.429 . S
C1787 H1809 0.950 . S
C1788 H1784 0.949 . S
C1788 C1796 1.574 . S
C1788 C1804 1.368 . S
H1789 C1797 0.950 . S
H1790 C1795 0.950 . S
H1791 C1796 0.949 . S
H1792 C1798 0.950 . S
H1793 C1799 0.950 . S
H1794 C1800 0.949 . S
C1795 H1790 0.950 . S
C1795 C1797 1.327 . S
C1795 C1801 1.429 . S
C1796 C1788 1.574 . S
C1796 H1791 0.949 . S
C1796 C1802 1.368 . S
C1797 C1781 1.349 . S
C1797 H1789 0.950 . S
C1797 C1795 1.327 . S
C1798 C1786 1.349 . S
C1798 H1792 0.950 . S
C1798 C1799 1.327 . S
C1799 H1793 0.950 . S
C1799 C1798 1.327 . S
C1799 C1803 1.429 . S
C1800 C1783 1.574 . S
C1800 H1794 0.949 . S
C1800 C1804 1.368 . S
C1801 C1782 1.429 . S
C1801 C1795 1.429 . S
C1801 C1802 1.523 . S
C1802 C1783 1.368 . S
C1802 C1796 1.368 . S
C1802 C1801 1.523 . S
C1803 C1787 1.429 . S
C1803 C1799 1.429 . S
C1803 C1804 1.523 . S
C1804 C1788 1.368 . S
C1804 C1800 1.368 . S
C1804 C1803 1.523 . S
H1805 C1780 0.950 . S
H1806 C1782 0.950 . S
H1807 C1783 0.949 . S
H1808 C1785 0.950 . S
H1809 C1787 0.950 . S
C1810 C1811 1.349 . S
C1810 C1812 1.327 . S
C1810 H1835 0.950 1_554 S
C1811 C1810 1.349 . S
C1811 C1827 1.349 . S
C1812 C1810 1.327 . S
C1812 C1831 1.429 . S
C1812 H1836 0.950 . S
C1813 C1830 1.574 . S
C1813 C1832 1.368 . S
C1813 H1837 0.949 . S
H1814 C1818 0.949 . S
C1815 C1816 1.349 . S
C1815 C1817 1.327 . S
C1815 H1838 0.950 . S
C1816 C1815 1.349 . S
C1816 C1828 1.349 . S
C1817 C1815 1.327 . S
C1817 C1833 1.429 . S
C1817 H1839 0.950 . S
C1818 H1814 0.949 . S
C1818 C1826 1.574 . S
C1818 C1834 1.368 . S
H1819 C1827 0.950 . S
H1820 C1825 0.950 . S
H1821 C1826 0.949 . S
H1822 C1828 0.950 . S
H1823 C1829 0.950 . S
H1824 C1830 0.949 . S
C1825 H1820 0.950 . S
C1825 C1827 1.327 . S
C1825 C1831 1.429 . S
C1826 C1818 1.574 . S
C1826 H1821 0.949 . S
C1826 C1832 1.368 . S
C1827 C1811 1.349 . S
C1827 H1819 0.950 . S
C1827 C1825 1.327 . S
C1828 C1816 1.349 . S
C1828 H1822 0.950 . S
C1828 C1829 1.327 . S
C1829 H1823 0.950 . S
C1829 C1828 1.327 . S
C1829 C1833 1.429 . S
C1830 C1813 1.574 . S
C1830 H1824 0.949 . S
C1830 C1834 1.368 . S
C1831 C1812 1.429 . S
C1831 C1825 1.429 . S
C1831 C1832 1.523 . S
C1832 C1813 1.368 . S
C1832 C1826 1.368 . S
C1832 C1831 1.523 . S
C1833 C1817 1.429 . S
C1833 C1829 1.429 . S
C1833 C1834 1.523 . S
C1834 C1818 1.368 . S
C1834 C1830 1.368 . S
C1834 C1833 1.523 . S
H1835 C1810 0.950 1_556 S
H1836 C1812 0.950 . S
H1837 C1813 0.949 . S
H1838 C1815 0.950 . S
H1839 C1817 0.950 . S
C1840 C1841 1.349 . S
C1840 C1842 1.327 . S
C1840 H1865 0.950 . S
C1841 C1840 1.349 . S
C1841 C1857 1.349 . S
C1842 C1840 1.327 . S
C1842 C1861 1.429 . S
C1842 H1866 0.950 . S
C1843 C1860 1.574 . S
C1843 C1862 1.368 . S
C1843 H1867 0.949 . S
H1844 C1848 0.949 . S
C1845 C1846 1.349 . S
C1845 C1847 1.327 . S
C1845 H1868 0.950 . S
C1846 C1845 1.349 . S
C1846 C1858 1.349 . S
C1847 C1845 1.327 . S
C1847 C1863 1.429 . S
C1847 H1869 0.950 . S
C1848 H1844 0.949 . S
C1848 C1856 1.574 . S
C1848 C1864 1.368 . S
H1849 C1857 0.950 . S
H1850 C1855 0.950 . S
H1851 C1856 0.949 . S
H1852 C1858 0.950 . S
H1853 C1859 0.950 . S
H1854 C1860 0.949 . S
C1855 H1850 0.950 . S
C1855 C1857 1.327 . S
C1855 C1861 1.429 . S
C1856 C1848 1.574 . S
C1856 H1851 0.949 . S
C1856 C1862 1.368 . S
C1857 C1841 1.349 . S
C1857 H1849 0.950 . S
C1857 C1855 1.327 . S
C1858 C1846 1.349 . S
C1858 H1852 0.950 . S
C1858 C1859 1.327 . S
C1859 H1853 0.950 . S
C1859 C1858 1.327 . S
C1859 C1863 1.429 . S
C1860 C1843 1.574 . S
C1860 H1854 0.949 . S
C1860 C1864 1.368 . S
C1861 C1842 1.429 . S
C1861 C1855 1.429 . S
C1861 C1862 1.523 . S
C1862 C1843 1.368 . S
C1862 C1856 1.368 . S
C1862 C1861 1.523 . S
C1863 C1847 1.429 . S
C1863 C1859 1.429 . S
C1863 C1864 1.523 . S
C1864 C1848 1.368 . S
C1864 C1860 1.368 . S
C1864 C1863 1.523 . S
H1865 C1840 0.950 . S
H1866 C1842 0.950 . S
H1867 C1843 0.949 . S
H1868 C1845 0.950 . S
H1869 C1847 0.950 . S
C1870 C1871 1.349 . S
C1870 C1872 1.327 . S
C1870 H1895 0.950 . S
C1871 C1870 1.349 . S
C1871 C1887 1.349 . S
C1872 C1870 1.327 . S
C1872 C1891 1.429 . S
C1872 H1896 0.950 . S
C1873 C1890 1.574 . S
C1873 C1892 1.368 . S
C1873 H1897 0.949 . S
H1874 C1878 0.949 . S
C1875 C1876 1.349 . S
C1875 C1877 1.327 . S
C1875 H1898 0.950 . S
C1876 C1875 1.349 . S
C1876 C1888 1.349 . S
C1877 C1875 1.327 . S
C1877 C1893 1.429 . S
C1877 H1899 0.950 . S
C1878 H1874 0.949 . S
C1878 C1886 1.574 . S
C1878 C1894 1.368 . S
H1879 C1887 0.950 . S
H1880 C1885 0.950 . S
H1881 C1886 0.949 . S
H1882 C1888 0.950 . S
H1883 C1889 0.950 . S
H1884 C1890 0.949 . S
C1885 H1880 0.950 . S
C1885 C1887 1.327 . S
C1885 C1891 1.429 . S
C1886 C1878 1.574 . S
C1886 H1881 0.949 . S
C1886 C1892 1.368 . S
C1887 C1871 1.349 . S
C1887 H1879 0.950 . S
C1887 C1885 1.327 . S
C1888 C1876 1.349 . S
C1888 H1882 0.950 . S
C1888 C1889 1.327 . S
C1889 H1883 0.950 . S
C1889 C1888 1.327 . S
C1889 C1893 1.429 . S
C1890 C1873 1.574 . S
C1890 H1884 0.949 . S
C1890 C1894 1.368 . S
C1891 C1872 1.429 . S
C1891 C1885 1.429 . S
C1891 C1892 1.523 . S
C1892 C1873 1.368 . S
C1892 C1886 1.368 . S
C1892 C1891 1.523 . S
C1893 C1877 1.429 . S
C1893 C1889 1.429 . S
C1893 C1894 1.523 . S
C1894 C1878 1.368 . S
C1894 C1890 1.368 . S
C1894 C1893 1.523 . S
H1895 C1870 0.950 . S
H1896 C1872 0.950 . S
H1897 C1873 0.949 . S
H1898 C1875 0.950 . S
H1899 C1877 0.950 . S
C1900 C1901 1.349 . S
C1900 C1902 1.327 . S
C1900 H1925 0.950 . S
C1901 C1900 1.349 . S
C1901 C1917 1.349 . S
C1902 C1900 1.327 . S
C1902 C1921 1.429 . S
C1902 H1926 0.950 . S
C1903 C1920 1.574 . S
C1903 C1922 1.368 . S
C1903 H1927 0.949 . S
H1904 C1908 0.949 . S
C1905 C1906 1.349 . S
C1905 C1907 1.327 . S
C1905 H1928 0.950 . S
C1906 C1905 1.349 . S
C1906 C1918 1.349 . S
C1907 C1905 1.327 . S
C1907 C1923 1.429 . S
C1907 H1929 0.950 . S
C1908 H1904 0.949 . S
C1908 C1916 1.574 . S
C1908 C1924 1.368 . S
H1909 C1917 0.950 . S
H1910 C1915 0.950 . S
H1911 C1916 0.949 . S
H1912 C1918 0.950 . S
H1913 C1919 0.950 . S
H1914 C1920 0.949 . S
C1915 H1910 0.950 . S
C1915 C1917 1.327 . S
C1915 C1921 1.429 . S
C1916 C1908 1.574 . S
C1916 H1911 0.949 . S
C1916 C1922 1.368 . S
C1917 C1901 1.349 . S
C1917 H1909 0.950 . S
C1917 C1915 1.327 . S
C1918 C1906 1.349 . S
C1918 H1912 0.950 . S
C1918 C1919 1.327 . S
C1919 H1913 0.950 . S
C1919 C1918 1.327 . S
C1919 C1923 1.429 . S
C1920 C1903 1.574 . S
C1920 H1914 0.949 . S
C1920 C1924 1.368 . S
C1921 C1902 1.429 . S
C1921 C1915 1.429 . S
C1921 C1922 1.523 . S
C1922 C1903 1.368 . S
C1922 C1916 1.368 . S
C1922 C1921 1.523 . S
C1923 C1907 1.429 . S
C1923 C1919 1.429 . S
C1923 C1924 1.523 . S
C1924 C1908 1.368 . S
C1924 C1920 1.368 . S
C1924 C1923 1.523 . S
H1925 C1900 0.950 . S
H1926 C1902 0.950 . S
H1927 C1903 0.949 . S
H1928 C1905 0.950 . S
H1929 C1907 0.950 . S
C1930 C1931 1.349 . S
C1930 C1932 1.327 . S
C1930 H1955 0.950 . S
C1931 C1930 1.349 . S
C1931 C1947 1.349 . S
C1932 C1930 1.327 . S
C1932 C1951 1.429 . S
C1932 H1956 0.950 . S
C1933 C1950 1.574 . S
C1933 C1952 1.368 . S
C1933 H1957 0.949 . S
H1934 C1938 0.949 . S
C1935 C1936 1.349 . S
C1935 C1937 1.327 . S
C1935 H1958 0.950 . S
C1936 C1935 1.349 . S
C1936 C1948 1.349 . S
C1937 C1935 1.327 . S
C1937 C1953 1.429 . S
C1937 H1959 0.950 . S
C1938 H1934 0.949 . S
C1938 C1946 1.574 . S
C1938 C1954 1.368 . S
H1939 C1947 0.950 . S
H1940 C1945 0.950 . S
H1941 C1946 0.949 . S
H1942 C1948 0.950 . S
H1943 C1949 0.950 . S
H1944 C1950 0.949 . S
C1945 H1940 0.950 . S
C1945 C1947 1.327 . S
C1945 C1951 1.429 . S
C1946 C1938 1.574 . S
C1946 H1941 0.949 . S
C1946 C1952 1.368 . S
C1947 C1931 1.349 . S
C1947 H1939 0.950 . S
C1947 C1945 1.327 . S
C1948 C1936 1.349 . S
C1948 H1942 0.950 . S
C1948 C1949 1.327 . S
C1949 H1943 0.950 . S
C1949 C1948 1.327 . S
C1949 C1953 1.429 . S
C1950 C1933 1.574 . S
C1950 H1944 0.949 . S
C1950 C1954 1.368 . S
C1951 C1932 1.429 . S
C1951 C1945 1.429 . S
C1951 C1952 1.523 . S
C1952 C1933 1.368 . S
C1952 C1946 1.368 . S
C1952 C1951 1.523 . S
C1953 C1937 1.429 . S
C1953 C1949 1.429 . S
C1953 C1954 1.523 . S
C1954 C1938 1.368 . S
C1954 C1950 1.368 . S
C1954 C1953 1.523 . S
H1955 C1930 0.950 . S
H1956 C1932 0.950 . S
H1957 C1933 0.949 . S
H1958 C1935 0.950 . S
H1959 C1937 0.950 . S
C1960 C1961 1.349 . S
C1960 C1962 1.327 . S
C1960 H1985 0.950 . S
C1961 C1960 1.349 . S
C1961 C1977 1.349 . S
C1962 C1960 1.327 . S
C1962 C1981 1.429 . S
C1962 H1986 0.950 . S
C1963 C1980 1.574 . S
C1963 C1982 1.368 1_554 S
C1963 H1987 0.949 . S
H1964 C1968 0.949 . S
C1965 C1966 1.349 . S
C1965 C1967 1.327 . S
C1965 H1988 0.950 . S
C1966 C1965 1.349 . S
C1966 C1978 1.349 . S
C1967 C1965 1.327 . S
C1967 C1983 1.429 . S
C1967 H1989 0.950 . S
C1968 H1964 0.949 . S
C1968 C1976 1.574 . S
C1968 C1984 1.368 1_556 S
H1969 C1977 0.934 1_554 S
H1970 C1975 0.904 1_554 S
H1971 C1976 0.949 . S
H1972 C1978 0.935 1_556 S
H1973 C1979 0.904 1_556 S
H1974 C1980 0.949 . S
C1975 H1970 0.904 1_556 S
C1975 C1977 1.346 . S
C1975 C1981 1.457 . S
C1976 C1968 1.574 . S
C1976 H1971 0.949 . S
C1976 C1982 1.368 . S
C1977 C1961 1.349 . S
C1977 H1969 0.934 1_556 S
C1977 C1975 1.346 . S
C1978 C1966 1.349 . S
C1978 H1972 0.935 1_554 S
C1978 C1979 1.346 . S
C1979 H1973 0.904 1_554 S
C1979 C1978 1.346 . S
C1979 C1983 1.457 . S
C1980 C1963 1.574 . S
C1980 H1974 0.949 . S
C1980 C1984 1.368 . S
C1981 C1962 1.429 . S
C1981 C1975 1.457 . S
C1981 C1982 1.523 . S
C1982 C1963 1.368 1_556 S
C1982 C1976 1.368 . S
C1982 C1981 1.523 . S
C1983 C1967 1.429 . S
C1983 C1979 1.457 . S
C1983 C1984 1.523 . S
C1984 C1968 1.368 1_554 S
C1984 C1980 1.368 . S
C1984 C1983 1.523 . S
H1985 C1960 0.950 . S
H1986 C1962 0.950 . S
H1987 C1963 0.949 . S
H1988 C1965 0.950 . S
H1989 C1967 0.950 . S
C1990 C1991 1.349 . S
C1990 C1992 1.327 . S
C1990 H2015 0.950 . S
C1991 C1990 1.349 . S
C1991 C2007 1.349 . S
C1992 C1990 1.327 . S
C1992 C2011 1.429 . S
C1992 H2016 0.950 . S
C1993 C2010 1.574 . S
C1993 C2012 1.368 . S
C1993 H2017 0.949 . S
H1994 C1998 0.949 . S
C1995 C1996 1.349 . S
C1995 C1997 1.327 . S
C1995 H2018 0.950 . S
C1996 C1995 1.349 . S
C1996 C2008 1.349 . S
C1997 C1995 1.327 . S
C1997 C2013 1.429 . S
C1997 H2019 0.950 . S
C1998 H1994 0.949 . S
C1998 C2006 1.574 . S
C1998 C2014 1.368 . S
H1999 C2007 0.950 . S
H2000 C2005 0.950 . S
H2001 C2006 0.949 . S
H2002 C2008 0.950 . S
H2003 C2009 0.950 . S
H2004 C2010 0.949 . S
C2005 H2000 0.950 . S
C2005 C2007 1.327 . S
C2005 C2011 1.429 . S
C2006 C1998 1.574 . S
C2006 H2001 0.949 . S
C2006 C2012 1.368 . S
C2007 C1991 1.349 . S
C2007 H1999 0.950 . S
C2007 C2005 1.327 . S
C2008 C1996 1.349 . S
C2008 H2002 0.950 . S
C2008 C2009 1.327 . S
C2009 H2003 0.950 . S
C2009 C2008 1.327 . S
C2009 C2013 1.429 . S
C2010 C1993 1.574 . S
C2010 H2004 0.949 . S
C2010 C2014 1.368 . S
C2011 C1992 1.429 . S
C2011 C2005 1.429 . S
C2011 C2012 1.523 . S
C2012 C1993 1.368 . S
C2012 C2006 1.368 . S
C2012 C2011 1.523 . S
C2013 C1997 1.429 . S
C2013 C2009 1.429 . S
C2013 C2014 1.523 . S
C2014 C1998 1.368 . S
C2014 C2010 1.368 . S
C2014 C2013 1.523 . S
H2015 C1990 0.950 . S
H2016 C1992 0.950 . S
H2017 C1993 0.949 . S
H2018 C1995 0.950 . S
H2019 C1997 0.950 . S
C2020 C2021 1.349 . S
C2020 C2022 1.327 . S
C2020 H2045 0.950 . S
C2021 C2020 1.349 . S
C2021 C2037 1.349 . S
C2022 C2020 1.327 . S
C2022 C2041 1.429 . S
C2022 H2046 0.950 . S
C2023 C2040 1.574 . S
C2023 C2042 1.368 . S
C2023 H2047 0.949 . S
H2024 C2028 0.949 . S
C2025 C2026 1.349 . S
C2025 C2027 1.327 . S
C2025 H2048 0.950 . S
C2026 C2025 1.349 . S
C2026 C2038 1.349 . S
C2027 C2025 1.327 . S
C2027 C2043 1.429 . S
C2027 H2049 0.950 . S
C2028 H2024 0.949 . S
C2028 C2036 1.574 . S
C2028 C2044 1.368 . S
H2029 C2037 0.950 . S
H2030 C2035 0.950 . S
H2031 C2036 0.949 . S
H2032 C2038 0.950 . S
H2033 C2039 0.950 . S
H2034 C2040 0.949 . S
C2035 H2030 0.950 . S
C2035 C2037 1.327 . S
C2035 C2041 1.429 . S
C2036 C2028 1.574 . S
C2036 H2031 0.949 . S
C2036 C2042 1.368 . S
C2037 C2021 1.349 . S
C2037 H2029 0.950 . S
C2037 C2035 1.327 . S
C2038 C2026 1.349 . S
C2038 H2032 0.950 . S
C2038 C2039 1.327 . S
C2039 H2033 0.950 . S
C2039 C2038 1.327 . S
C2039 C2043 1.429 . S
C2040 C2023 1.574 . S
C2040 H2034 0.949 . S
C2040 C2044 1.368 . S
C2041 C2022 1.429 . S
C2041 C2035 1.429 . S
C2041 C2042 1.523 . S
C2042 C2023 1.368 . S
C2042 C2036 1.368 . S
C2042 C2041 1.523 . S
C2043 C2027 1.429 . S
C2043 C2039 1.429 . S
C2043 C2044 1.523 . S
C2044 C2028 1.368 . S
C2044 C2040 1.368 . S
C2044 C2043 1.523 . S
H2045 C2020 0.950 . S
H2046 C2022 0.950 . S
H2047 C2023 0.949 . S
H2048 C2025 0.950 . S
H2049 C2027 0.950 . S
C2050 C2051 1.352 . S
C2050 C2052 1.341 . S
C2050 H2075 0.922 1_564 S
C2051 C2050 1.352 . S
C2051 C2067 1.349 . S
C2052 C2050 1.341 . S
C2052 C2071 1.429 . S
C2052 H2076 0.950 1_554 S
C2053 C2070 1.574 . S
C2053 C2072 1.368 . S
C2053 H2077 0.949 . S
H2054 C2058 0.949 . S
C2055 C2056 1.349 . S
C2055 C2057 1.327 . S
C2055 H2078 0.950 . S
C2056 C2055 1.349 . S
C2056 C2068 1.349 1_554 S
C2057 C2055 1.327 . S
C2057 C2073 1.429 . S
C2057 H2079 0.950 . S
C2058 H2054 0.949 . S
C2058 C2066 1.587 . S
C2058 C2074 1.368 1_556 S
H2059 C2067 0.950 . S
H2060 C2065 0.950 . S
H2061 C2066 0.984 . S
H2062 C2068 0.950 . S
H2063 C2069 0.950 . S
H2064 C2070 0.949 . S
C2065 H2060 0.950 . S
C2065 C2067 1.327 . S
C2065 C2071 1.429 . S
C2066 C2058 1.587 . S
C2066 H2061 0.984 . S
C2066 C2072 1.319 1_556 S
C2067 C2051 1.349 . S
C2067 H2059 0.950 . S
C2067 C2065 1.327 . S
C2068 C2056 1.349 1_556 S
C2068 H2062 0.950 . S
C2068 C2069 1.327 . S
C2069 H2063 0.950 . S
C2069 C2068 1.327 . S
C2069 C2073 1.429 1_556 S
C2070 C2053 1.574 . S
C2070 H2064 0.949 . S
C2070 C2074 1.368 . S
C2071 C2052 1.429 . S
C2071 C2065 1.429 . S
C2071 C2072 1.523 . S
C2072 C2053 1.368 . S
C2072 C2066 1.319 1_554 S
C2072 C2071 1.523 . S
C2073 C2057 1.429 . S
C2073 C2069 1.429 1_554 S
C2073 C2074 1.523 . S
C2074 C2058 1.368 1_554 S
C2074 C2070 1.368 . S
C2074 C2073 1.523 . S
H2075 C2050 0.922 1_546 S
H2076 C2052 0.950 1_556 S
H2077 C2053 0.949 . S
H2078 C2055 0.950 . S
H2079 C2057 0.950 . S
C646 C210 1.695 . S
C641 C73 1.702 . S
C676 C258 1.340 . S
C671 C82 1.344 . S
C701 C100 1.830 . S
C706 C294 1.741 1_556 S
C736 C330 1.377 . S
C731 C56 1.394 . S
C766 C356 1.290 . S
C761 C134 1.292 . S
C796 C392 1.782 . S
C791 C165 1.784 . S
C821 C147 1.084 . S
C826 C427 1.134 . S
C856 C464 1.988 . S
C851 C125 1.999 . S
C881 C151 1.256 . S
C886 C498 1.248 . S
C916 C546 1.483 . S
C911 C121 1.506 . S
C941 C139 1.725 . S
C946 C499 1.731 . S
C976 C536 1.439 . S
C971 C164 1.440 . S
C1001 C95 1.277 . S
C1006 C582 1.295 . S
C1031 C61 1.570 . S
C1036 C571 1.577 . S
C1061 C74 1.306 . S
C1066 C572 1.304 . S
C1091 C86 1.922 . S
C1096 C570 1.907 . S
C1121 C47 1.241 . S
C1126 C318 1.242 . S
C1151 C186 1.122 . S
C1156 C319 1.181 . S
C1186 C222 1.644 . S
C1181 C204 1.675 . S
C1216 C247 1.931 . S
C1211 C112 1.929 . S
C1241 C60 1.526 1_545 S
C1246 C354 1.525 . S
C1276 C462 1.323 . S
C1271 C152 1.316 . S
C1306 C355 2.017 . S
C1301 C126 2.014 . S
C1336 C428 1.358 . S
C1331 C160 1.337 . S
C1366 C426 1.695 . S
C1361 C190 1.702 . S
C1391 C199 1.344 . S
C1396 C474 1.339 . S
C1421 C113 1.830 . S
C1426 C366 1.741 . S
C1456 C402 1.377 . S
C1451 C173 1.395 . S
C1481 C43 1.292 . S
C1486 C284 1.290 . S
C1516 C320 1.782 . S
C1511 C9 1.784 . S
C1546 C211 1.134 . S
C1541 C17 1.083 . S
C1576 C248 1.988 . S
C1571 C34 1.998 1_455 S
C1601 C21 1.256 . S
C1606 C534 1.248 . S
C1631 C30 1.506 . S
C1636 C510 1.483 . S
C1661 C48 1.725 . S
C1666 C535 1.731 . S
C1691 C8 1.440 . S
C1696 C500 1.428 1_455 S
C1726 C618 1.295 . S
C1721 C108 1.277 . S
C1756 C607 1.577 . S
C1751 C178 1.570 . S
C1786 C608 1.304 . S
C1781 C191 1.306 . S
C1811 C203 1.957 . S
C1816 C606 1.907 . S
C1841 C138 1.241 . S
C1846 C390 1.242 . S
C1876 C391 1.181 . S
C1871 C69 1.123 . S
C1906 C438 1.644 . S
C1901 C87 1.676 . S
C1936 C463 1.931 . S
C1931 C99 1.933 . S
C1961 C177 1.526 . S
C1966 C282 1.525 . S
C1996 C246 1.323 . S
C1991 C22 1.320 . S
C2021 C35 2.014 . S
C2026 C283 2.017 . S
C2056 C212 1.357 1_554 S
C2051 C4 1.343 . S
