# Generated by pormake.
# Topology pyr, (3,6)-cn, num edge types: 1
# Building blocks:
#     Node 0, Type 0, BuildingBlock: KAKCAD_clean_linker_0, # of connection points: 3
#     Node 1, Type 0, BuildingBlock: KAKCAD_clean_linker_0, # of connection points: 3
#     Node 2, Type 0, BuildingBlock: KAKCAD_clean_linker_0, # of connection points: 3
#     Node 3, Type 0, BuildingBlock: KAKCAD_clean_linker_0, # of connection points: 3
#     Node 4, Type 0, BuildingBlock: KAKCAD_clean_linker_0, # of connection points: 3
#     Node 5, Type 0, BuildingBlock: KAKCAD_clean_linker_0, # of connection points: 3
#     Node 6, Type 0, BuildingBlock: KAKCAD_clean_linker_0, # of connection points: 3
#     Node 7, Type 0, BuildingBlock: KAKCAD_clean_linker_0, # of connection points: 3
#     Node 8, Type 1, BuildingBlock: BETDIP_clean_sbu_0, # of connection points: 6
#     Node 9, Type 1, BuildingBlock: BETDIP_clean_sbu_0, # of connection points: 6
#     Node 10, Type 1, BuildingBlock: BETDIP_clean_sbu_0, # of connection points: 6
#     Node 11, Type 1, BuildingBlock: BETDIP_clean_sbu_0, # of connection points: 6
#     Edge 12, Type (0, 1), BuildingBlock: MIFKUJ_clean_linker_0, # of connection points: 2
#     Edge 13, Type (0, 1), BuildingBlock: MIFKUJ_clean_linker_0, # of connection points: 2
#     Edge 14, Type (0, 1), BuildingBlock: MIFKUJ_clean_linker_0, # of connection points: 2
#     Edge 15, Type (0, 1), BuildingBlock: MIFKUJ_clean_linker_0, # of connection points: 2
#     Edge 16, Type (0, 1), BuildingBlock: MIFKUJ_clean_linker_0, # of connection points: 2
#     Edge 17, Type (0, 1), BuildingBlock: MIFKUJ_clean_linker_0, # of connection points: 2
#     Edge 18, Type (0, 1), BuildingBlock: MIFKUJ_clean_linker_0, # of connection points: 2
#     Edge 19, Type (0, 1), BuildingBlock: MIFKUJ_clean_linker_0, # of connection points: 2
#     Edge 20, Type (0, 1), BuildingBlock: MIFKUJ_clean_linker_0, # of connection points: 2
#     Edge 21, Type (0, 1), BuildingBlock: MIFKUJ_clean_linker_0, # of connection points: 2
#     Edge 22, Type (0, 1), BuildingBlock: MIFKUJ_clean_linker_0, # of connection points: 2
#     Edge 23, Type (0, 1), BuildingBlock: MIFKUJ_clean_linker_0, # of connection points: 2
#     Edge 24, Type (0, 1), BuildingBlock: MIFKUJ_clean_linker_0, # of connection points: 2
#     Edge 25, Type (0, 1), BuildingBlock: MIFKUJ_clean_linker_0, # of connection points: 2
#     Edge 26, Type (0, 1), BuildingBlock: MIFKUJ_clean_linker_0, # of connection points: 2
#     Edge 27, Type (0, 1), BuildingBlock: MIFKUJ_clean_linker_0, # of connection points: 2
#     Edge 28, Type (0, 1), BuildingBlock: MIFKUJ_clean_linker_0, # of connection points: 2
#     Edge 29, Type (0, 1), BuildingBlock: MIFKUJ_clean_linker_0, # of connection points: 2
#     Edge 30, Type (0, 1), BuildingBlock: MIFKUJ_clean_linker_0, # of connection points: 2
#     Edge 31, Type (0, 1), BuildingBlock: MIFKUJ_clean_linker_0, # of connection points: 2
#     Edge 32, Type (0, 1), BuildingBlock: MIFKUJ_clean_linker_0, # of connection points: 2
#     Edge 33, Type (0, 1), BuildingBlock: MIFKUJ_clean_linker_0, # of connection points: 2
#     Edge 34, Type (0, 1), BuildingBlock: MIFKUJ_clean_linker_0, # of connection points: 2
#     Edge 35, Type (0, 1), BuildingBlock: MIFKUJ_clean_linker_0, # of connection points: 2
# Relax obj value: 0.098
# Max RMSD: 0.183
# Mean RMSD: 0.083
data_MOF--net-pyr--node1-BETDIP_clean_sbu_0--node2-KAKCAD_clean_linker_0--edge1-MIFKUJ_clean_linker_0
_symmetry_space_group_name_H-M    P1
_symmetry_Int_Tables_number       1
_symmetry_cell_setting            triclinic
loop_
_symmetry_equiv_pos_as_xyz
'x, y, z'
_cell_length_a     54.242812
_cell_length_b     59.518035
_cell_length_c     58.376598
_cell_angle_alpha  89.203776
_cell_angle_beta   92.660158
_cell_angle_gamma 102.61785
loop_
_atom_site_label
_atom_site_type_symbol
_atom_site_fract_x
_atom_site_fract_y
_atom_site_fract_z
_atom_type_partial_charge
C0 C 0.24863 0.21826 0.2632 0.0
C1 C 0.26168 0.21224 0.28288 0.0
C2 C 0.2618 0.22963 0.24494 0.0
C3 C 0.28839 0.23543 0.24594 0.0
C4 C 0.3015 0.22951 0.26565 0.0
C5 C 0.28828 0.21805 0.28394 0.0
C6 C 0.30216 0.24712 0.22615 0.0
C7 C 0.29297 0.26426 0.21395 0.0
C8 C 0.30389 0.27364 0.19364 0.0
C9 C 0.32513 0.26647 0.18607 0.0
C10 C 0.33489 0.24954 0.19827 0.0
C11 C 0.32331 0.24003 0.21833 0.0
C12 C 0.35546 0.23993 0.18902 0.0
C13 C 0.35501 0.23458 0.16561 0.0
C14 C 0.37439 0.23418 0.20378 0.0
C15 C 0.39173 0.22236 0.19552 0.0
C16 C 0.39053 0.2161 0.1723 0.0
C17 C 0.29164 0.28952 0.17968 0.0
C18 C 0.26519 0.28455 0.17646 0.0
C19 C 0.30583 0.30967 0.16985 0.0
C20 C 0.29362 0.32499 0.15781 0.0
C21 C 0.26708 0.32035 0.15551 0.0
C22 C 0.25308 0.29977 0.16457 0.0
C23 C 0.37235 0.22281 0.15735 0.0
H24 H 0.22816 0.21431 0.26192 0.0
H25 H 0.25109 0.23358 0.22987 0.0
H26 H 0.32197 0.23383 0.26697 0.0
H27 H 0.2989 0.21346 0.29878 0.0
H28 H 0.27689 0.2701 0.22011 0.0
H29 H 0.32985 0.22613 0.22712 0.0
H30 H 0.33349 0.27349 0.17029 0.0
H31 H 0.34044 0.23843 0.15384 0.0
H32 H 0.37543 0.23836 0.22185 0.0
H33 H 0.40574 0.21768 0.20739 0.0
H34 H 0.25376 0.26884 0.18323 0.0
H35 H 0.32626 0.31389 0.17203 0.0
H36 H 0.37066 0.21793 0.13944 0.0
H37 H 0.23263 0.29544 0.16253 0.0
H38 H 0.30483 0.34073 0.15092 0.0
C39 C 0.22077 0.7896 0.78884 0.0
C40 C 0.24719 0.79262 0.79165 0.0
C41 C 0.20818 0.7812 0.76817 0.0
C42 C 0.22177 0.77568 0.74988 0.0
C43 C 0.24813 0.77837 0.75293 0.0
C44 C 0.2606 0.78653 0.77355 0.0
C45 C 0.209 0.76812 0.72728 0.0
C46 C 0.19 0.77856 0.71773 0.0
C47 C 0.18032 0.77363 0.69514 0.0
C48 C 0.18971 0.7579 0.6821 0.0
C49 C 0.20864 0.74731 0.69141 0.0
C50 C 0.21761 0.75204 0.71414 0.0
C51 C 0.22109 0.73321 0.67688 0.0
C52 C 0.20695 0.71591 0.66246 0.0
C53 C 0.24761 0.73736 0.67729 0.0
C54 C 0.25979 0.72444 0.66376 0.0
C55 C 0.24577 0.70703 0.64944 0.0
C56 C 0.16249 0.78684 0.68451 0.0
C57 C 0.14172 0.79036 0.69642 0.0
C58 C 0.1672 0.79738 0.66299 0.0
C59 C 0.15204 0.81183 0.65396 0.0
C60 C 0.13173 0.8159 0.66615 0.0
C61 C 0.12637 0.80465 0.68724 0.0
C62 C 0.21921 0.70279 0.64897 0.0
H63 H 0.20987 0.79427 0.80238 0.0
H64 H 0.18785 0.77917 0.76648 0.0
H65 H 0.25936 0.77473 0.73916 0.0
H66 H 0.2809 0.78825 0.77522 0.0
H67 H 0.18386 0.79166 0.72731 0.0
H68 H 0.23196 0.74356 0.72141 0.0
H69 H 0.18299 0.75461 0.66443 0.0
H70 H 0.18648 0.71237 0.66184 0.0
H71 H 0.25902 0.75079 0.68799 0.0
H72 H 0.28026 0.72792 0.66474 0.0
H73 H 0.13761 0.78237 0.71299 0.0
H74 H 0.18322 0.79518 0.65353 0.0
H75 H 0.20796 0.6895 0.63802 0.0
H76 H 0.11091 0.80759 0.69706 0.0
H77 H 0.15648 0.82015 0.63758 0.0
C78 C 0.72483 0.41166 0.87141 0.0
C79 C 0.74155 0.39963 0.88256 0.0
C80 C 0.70273 0.39976 0.85976 0.0
C81 C 0.69699 0.37551 0.85864 0.0
C82 C 0.71417 0.36361 0.86942 0.0
C83 C 0.73599 0.37548 0.88138 0.0
C84 C 0.67311 0.36262 0.84663 0.0
C85 C 0.66293 0.37163 0.82683 0.0
C86 C 0.64039 0.35969 0.81556 0.0
C87 C 0.62837 0.33787 0.82407 0.0
C88 C 0.63837 0.32833 0.84377 0.0
C89 C 0.66039 0.34114 0.85503 0.0
C90 C 0.6262 0.30508 0.85302 0.0
C91 C 0.59976 0.29782 0.85391 0.0
C92 C 0.64127 0.2903 0.8621 0.0
C93 C 0.63039 0.26935 0.87245 0.0
C94 C 0.604 0.26225 0.87389 0.0
C95 C 0.62979 0.37031 0.79493 0.0
C96 C 0.63042 0.3941 0.79436 0.0
C97 C 0.61978 0.35719 0.77542 0.0
C98 C 0.6113 0.36769 0.75573 0.0
C99 C 0.61258 0.3916 0.75502 0.0
C100 C 0.62198 0.40455 0.77476 0.0
C101 C 0.58881 0.27671 0.86421 0.0
H102 H 0.72851 0.43027 0.8722 0.0
H103 H 0.68992 0.40962 0.85205 0.0
H104 H 0.71091 0.34503 0.86853 0.0
H105 H 0.74871 0.36576 0.88953 0.0
H106 H 0.67289 0.38783 0.8198 0.0
H107 H 0.6674 0.33449 0.87081 0.0
H108 H 0.61125 0.32837 0.8154 0.0
H109 H 0.5875 0.30872 0.84721 0.0
H110 H 0.66167 0.29502 0.86143 0.0
H111 H 0.64287 0.259 0.87986 0.0
H112 H 0.63744 0.40473 0.80917 0.0
H113 H 0.61917 0.33888 0.7751 0.0
H114 H 0.56841 0.27178 0.86461 0.0
H115 H 0.62273 0.42287 0.77517 0.0
H116 H 0.60438 0.35713 0.74085 0.0
C117 C 0.87802 0.6477 0.26223 0.0
C118 C 0.90355 0.65365 0.25656 0.0
C119 C 0.8695 0.65733 0.28138 0.0
C120 C 0.88628 0.67296 0.29594 0.0
C121 C 0.91185 0.67911 0.29005 0.0
C122 C 0.92029 0.66974 0.27059 0.0
C123 C 0.87708 0.68227 0.31724 0.0
C124 C 0.85686 0.66868 0.32914 0.0
C125 C 0.84747 0.67695 0.34871 0.0
C126 C 0.85883 0.69916 0.35664 0.0
C127 C 0.87909 0.71326 0.3455 0.0
C128 C 0.88815 0.7046 0.32581 0.0
C129 C 0.89032 0.73695 0.35485 0.0
C130 C 0.87461 0.7504 0.36375 0.0
C131 C 0.91664 0.74575 0.35648 0.0
C132 C 0.92688 0.76692 0.36741 0.0
C133 C 0.91112 0.77998 0.37702 0.0
C134 C 0.82551 0.66273 0.36086 0.0
C135 C 0.80451 0.64949 0.34854 0.0
C136 C 0.82484 0.66312 0.38495 0.0
C137 C 0.80364 0.65123 0.3963 0.0
C138 C 0.78239 0.63837 0.38399 0.0
C139 C 0.78328 0.6375 0.35992 0.0
C140 C 0.88479 0.7714 0.37472 0.0
H141 H 0.86446 0.63571 0.25164 0.0
H142 H 0.84954 0.65252 0.28459 0.0
H143 H 0.9256 0.69079 0.30074 0.0
H144 H 0.94013 0.67465 0.26687 0.0
H145 H 0.84868 0.65128 0.32354 0.0
H146 H 0.90329 0.71557 0.31683 0.0
H147 H 0.85174 0.7056 0.37169 0.0
H148 H 0.85424 0.74454 0.36253 0.0
H149 H 0.9294 0.73595 0.34994 0.0
H150 H 0.94722 0.77299 0.36838 0.0
H151 H 0.80416 0.64884 0.32999 0.0
H152 H 0.84073 0.67278 0.39514 0.0
H153 H 0.87184 0.78056 0.38198 0.0
H154 H 0.76754 0.62755 0.34978 0.0
H155 H 0.80374 0.65263 0.41477 0.0
C156 C 0.75269 0.79896 0.77922 0.0
C157 C 0.75549 0.82216 0.77273 0.0
C158 C 0.7387 0.79032 0.79817 0.0
C159 C 0.7274 0.80476 0.81114 0.0
C160 C 0.73008 0.82794 0.80448 0.0
C161 C 0.74388 0.83651 0.78545 0.0
C162 C 0.71374 0.79602 0.83209 0.0
C163 C 0.72328 0.78117 0.84725 0.0
C164 C 0.71145 0.77386 0.8678 0.0
C165 C 0.69001 0.78199 0.87335 0.0
C166 C 0.6802 0.79699 0.85845 0.0
C167 C 0.69191 0.80345 0.83764 0.0
C168 C 0.65872 0.80705 0.86511 0.0
C169 C 0.63873 0.79411 0.8775 0.0
C170 C 0.6586 0.83016 0.85979 0.0
C171 C 0.63921 0.84011 0.86677 0.0
C172 C 0.61958 0.82733 0.87952 0.0
C173 C 0.72234 0.75851 0.88373 0.0
C174 C 0.73184 0.74035 0.87504 0.0
C175 C 0.7245 0.76252 0.9075 0.0
C176 C 0.73665 0.74912 0.92213 0.0
C177 C 0.74695 0.73147 0.9133 0.0
C178 C 0.74407 0.72708 0.8896 0.0
C179 C 0.61945 0.80421 0.88478 0.0
H180 H 0.76118 0.78744 0.76955 0.0
H181 H 0.73672 0.77231 0.80262 0.0
H182 H 0.72208 0.83967 0.81432 0.0
H183 H 0.74601 0.85455 0.78104 0.0
H184 H 0.74061 0.77599 0.8435 0.0
H185 H 0.68407 0.81441 0.8257 0.0
H186 H 0.68128 0.77694 0.88948 0.0
H187 H 0.638 0.77619 0.88164 0.0
H188 H 0.67393 0.84088 0.85082 0.0
H189 H 0.64007 0.85812 0.86292 0.0
H190 H 0.73018 0.7366 0.85686 0.0
H191 H 0.71756 0.77648 0.91474 0.0
H192 H 0.60447 0.794 0.89457 0.0
H193 H 0.75204 0.71387 0.88209 0.0
H194 H 0.73827 0.7528 0.94032 0.0
C195 C 0.76783 0.21482 0.29023 0.0
C196 C 0.76026 0.22768 0.2719 0.0
C197 C 0.78277 0.22579 0.30861 0.0
C198 C 0.79063 0.24991 0.30909 0.0
C199 C 0.78331 0.26282 0.29066 0.0
C200 C 0.76832 0.25179 0.27219 0.0
C201 C 0.80553 0.26136 0.32931 0.0
C202 C 0.82448 0.25173 0.34003 0.0
C203 C 0.83628 0.26033 0.36098 0.0
C204 C 0.82968 0.27947 0.37086 0.0
C205 C 0.81094 0.28957 0.36016 0.0
C206 C 0.79915 0.28049 0.33931 0.0
C207 C 0.80116 0.30762 0.37186 0.0
C208 C 0.79506 0.30494 0.39501 0.0
C209 C 0.79501 0.32612 0.3593 0.0
C210 C 0.78164 0.34076 0.36926 0.0
C211 C 0.77406 0.33713 0.39196 0.0
C212 C 0.85347 0.24763 0.37339 0.0
C213 C 0.84609 0.2236 0.37561 0.0
C214 C 0.87714 0.25905 0.38279 0.0
C215 C 0.89334 0.24649 0.39382 0.0
C216 C 0.88587 0.22241 0.39593 0.0
C217 C 0.86207 0.21116 0.38675 0.0
C218 C 0.78162 0.31953 0.40495 0.0
H219 H 0.76225 0.1962 0.29037 0.0
H220 H 0.78772 0.21534 0.3227 0.0
H221 H 0.78916 0.28142 0.29052 0.0
H222 H 0.76267 0.26216 0.25836 0.0
H223 H 0.82965 0.23703 0.33234 0.0
H224 H 0.78372 0.28733 0.33165 0.0
H225 H 0.83833 0.28586 0.38729 0.0
H226 H 0.79937 0.29076 0.4051 0.0
H227 H 0.79966 0.3287 0.34147 0.0
H228 H 0.77601 0.35409 0.35876 0.0
H229 H 0.82783 0.21438 0.36877 0.0
H230 H 0.88325 0.27757 0.38126 0.0
H231 H 0.77633 0.31652 0.42258 0.0
H232 H 0.85591 0.19261 0.38788 0.0
H233 H 0.91155 0.25558 0.40086 0.0
C234 C 0.28229 0.6372 0.18893 0.0
C235 C 0.27985 0.63843 0.16483 0.0
C236 C 0.30359 0.65004 0.201 0.0
C237 C 0.32334 0.66429 0.18935 0.0
C238 C 0.32108 0.66517 0.16523 0.0
C239 C 0.29963 0.6527 0.15322 0.0
C240 C 0.3461 0.67832 0.2021 0.0
C241 C 0.35595 0.67017 0.22254 0.0
C242 C 0.37746 0.68319 0.23448 0.0
C243 C 0.38974 0.70457 0.22515 0.0
C244 C 0.38037 0.71305 0.20453 0.0
C245 C 0.35825 0.69997 0.19365 0.0
C246 C 0.39329 0.73537 0.19381 0.0
C247 C 0.40335 0.75513 0.20703 0.0
C248 C 0.39453 0.73727 0.16979 0.0
C249 C 0.40463 0.75832 0.15925 0.0
C250 C 0.41421 0.77827 0.17233 0.0
C251 C 0.38685 0.67399 0.25653 0.0
C252 C 0.36959 0.66285 0.27255 0.0
C253 C 0.41279 0.67531 0.26141 0.0
C254 C 0.42111 0.66518 0.28141 0.0
C255 C 0.40374 0.6535 0.29714 0.0
C256 C 0.37788 0.65281 0.2925 0.0
C257 C 0.41364 0.7763 0.19644 0.0
H258 H 0.2678 0.62621 0.19862 0.0
H259 H 0.30433 0.64898 0.21954 0.0
H260 H 0.33597 0.67548 0.15544 0.0
H261 H 0.29852 0.6546 0.13477 0.0
H262 H 0.34723 0.65328 0.22896 0.0
H263 H 0.35021 0.70694 0.17855 0.0
H264 H 0.40654 0.71456 0.2339 0.0
H265 H 0.40269 0.75443 0.22554 0.0
H266 H 0.38743 0.72243 0.15896 0.0
H267 H 0.40432 0.75897 0.1407 0.0
H268 H 0.34951 0.66187 0.26968 0.0
H269 H 0.42664 0.68355 0.24943 0.0
H270 H 0.42113 0.79111 0.2072 0.0
H271 H 0.3639 0.64454 0.30435 0.0
H272 H 0.44116 0.66595 0.28419 0.0
C273 C 0.13478 0.27454 0.68229 0.0
C274 C 0.10842 0.26613 0.6802 0.0
C275 C 0.14519 0.29588 0.69246 0.0
C276 C 0.12971 0.30989 0.70073 0.0
C277 C 0.10334 0.30138 0.69914 0.0
C278 C 0.09285 0.27984 0.689 0.0
C279 C 0.14144 0.3335 0.71002 0.0
C280 C 0.16269 0.3468 0.69954 0.0
C281 C 0.17595 0.36808 0.70855 0.0
C282 C 0.16671 0.37662 0.72814 0.0
C283 C 0.14472 0.36427 0.73856 0.0
C284 C 0.13226 0.34266 0.72931 0.0
C285 C 0.13508 0.37394 0.75924 0.0
C286 C 0.15183 0.38423 0.77721 0.0
C287 C 0.10915 0.37345 0.76102 0.0
C288 C 0.10033 0.38331 0.77994 0.0
C289 C 0.1171 0.39365 0.79789 0.0
C290 C 0.1995 0.38092 0.6974 0.0
C291 C 0.21542 0.36879 0.68673 0.0
C292 C 0.20614 0.40517 0.69671 0.0
C293 C 0.22772 0.4168 0.68549 0.0
C294 C 0.24325 0.40458 0.67431 0.0
C295 C 0.23658 0.38035 0.67517 0.0
C296 C 0.14297 0.39378 0.79627 0.0
H297 H 0.14758 0.26488 0.67557 0.0
H298 H 0.16559 0.30147 0.69371 0.0
H299 H 0.09074 0.31158 0.70523 0.0
H300 H 0.07249 0.27395 0.68811 0.0
H301 H 0.16877 0.34051 0.68392 0.0
H302 H 0.11595 0.33267 0.7376 0.0
H303 H 0.17661 0.39294 0.73535 0.0
H304 H 0.17188 0.3848 0.77662 0.0
H305 H 0.09568 0.36582 0.74752 0.0
H306 H 0.08027 0.38267 0.7806 0.0
H307 H 0.21162 0.35017 0.68723 0.0
H308 H 0.19447 0.41528 0.70449 0.0
H309 H 0.15653 0.4017 0.80959 0.0
H310 H 0.24744 0.37002 0.66659 0.0
H311 H 0.2322 0.43542 0.68573 0.0
Tb312 Tb 0.9833 1.01379 0.53641 0.0
Tb313 Tb 0.03723 0.02815 0.52765 0.0
C314 C 0.93909 0.99194 0.54362 0.0
C315 C 0.92628 0.97557 0.56075 0.0
C316 C 0.93241 0.95406 0.56484 0.0
C317 C 0.9195 0.93888 0.58102 0.0
C318 C 0.90032 0.94497 0.59344 0.0
C319 C 0.89454 0.96664 0.58943 0.0
C320 C 0.90726 0.98167 0.57319 0.0
C321 C 1.00636 0.05284 0.5566 0.0
C322 C 0.0235 0.9934 0.56682 0.0
C323 C 0.08119 0.05052 0.5205 0.0
C324 C 0.0939 0.0643 0.50149 0.0
C325 C 0.10391 0.0879 0.50461 0.0
C326 C 0.11641 0.10124 0.48701 0.0
C327 C 0.11933 0.09114 0.46594 0.0
C328 C 0.1092 0.06748 0.46283 0.0
C329 C 0.09658 0.0542 0.48038 0.0
C330 C 0.01405 0.98937 0.50691 0.0
C331 C 0.99693 0.04892 0.49729 0.0
O332 O 0.95414 0.98472 0.52994 0.0
O333 O 0.94849 1.01281 0.55097 0.0
O334 O 0.01525 0.03501 0.55496 0.0
O335 O 0.98348 0.04861 0.54787 0.0
O336 O 0.99999 0.99026 0.55834 0.0
O337 O 0.04116 1.01074 0.55992 0.0
O338 O 0.06445 0.05914 0.53078 0.0
O339 O 0.07369 0.02835 0.51726 0.0
O340 O 1.00528 1.00719 0.50897 0.0
O341 O 0.03707 0.99359 0.51526 0.0
O342 O 0.02073 0.05108 0.50474 0.0
O343 O 0.97883 0.03241 0.505 0.0
H344 H 0.94704 0.94888 0.5555 0.0
H345 H 0.92429 0.92225 0.58352 0.0
H346 H 0.88029 0.97215 0.599 0.0
H347 H 0.90225 0.99819 0.57037 0.0
H348 H 0.10207 0.09601 0.52073 0.0
H349 H 0.12367 0.11947 0.4899 0.0
H350 H 0.11145 0.05906 0.44697 0.0
H351 H 0.08913 0.03601 0.47743 0.0
Tb352 Tb 0.52953 0.03043 0.02912 0.0
Tb353 Tb 0.47231 1.0135 1.0145 0.0
C354 C 0.57258 0.05631 0.03267 0.0
C355 C 0.5885 0.06918 0.05135 0.0
C356 C 0.59741 0.09299 0.0489 0.0
C357 C 0.61133 0.10593 0.06678 0.0
C358 C 0.61684 0.09525 0.08745 0.0
C359 C 0.60819 0.07128 0.08974 0.0
C360 C 0.59405 0.05837 0.0719 0.0
C361 C 0.50771 0.99458 0.05464 0.0
C362 C 0.48666 0.04703 0.05592 0.0
C363 C 0.42886 0.99178 1.00204 0.0
C364 C 0.41734 0.97032 0.98956 0.0
C365 C 0.41289 0.94867 1.00049 0.0
C366 C 0.4011 0.92879 0.98832 0.0
C367 C 0.39372 0.93025 0.96504 0.0
C368 C 0.39822 0.95189 0.95422 0.0
C369 C 0.40974 0.97166 0.96635 0.0
C370 C 0.49641 0.05331 0.99758 0.0
C371 C 0.51441 0.99166 0.99228 0.0
O372 O 0.55202 0.06366 0.02694 0.0
O373 O 0.56872 0.03373 0.03331 0.0
O374 O 0.49839 1.00493 0.03874 0.0
O375 O 0.53119 1.00539 0.05745 0.0
O376 O 0.51063 0.05103 0.05019 0.0
O377 O 0.46872 0.0308 0.04618 0.0
O378 O 0.43892 0.99003 1.0227 0.0
O379 O 0.44258 1.00809 0.98985 0.0
O380 O 0.50507 0.03544 1.00068 0.0
O381 O 0.47302 0.04892 1.00325 0.0
O382 O 0.4903 0.98946 0.99695 0.0
O383 O 0.53261 1.00846 1.00067 0.0
H384 H 0.59319 0.10169 0.03324 0.0
H385 H 0.61729 0.12438 0.06454 0.0
H386 H 0.6124 0.06244 0.10529 0.0
H387 H 0.58731 0.04001 0.07431 0.0
H388 H 0.41833 0.94708 1.01843 0.0
H389 H 0.39782 0.91231 0.99707 0.0
H390 H 0.39225 0.95362 0.93644 0.0
H391 H 0.41249 0.98811 0.95754 0.0
Tb392 Tb 0.51116 0.54464 0.53555 0.0
Tb393 Tb 0.50747 0.49897 0.51434 0.0
C394 C 0.50149 0.58217 0.54714 0.0
C395 C 0.4782 0.58931 0.55269 0.0
C396 C 0.45455 0.57758 0.54354 0.0
C397 C 0.43251 0.58434 0.54921 0.0
C398 C 0.43379 0.60305 0.56397 0.0
C399 C 0.45753 0.61476 0.57305 0.0
C400 C 0.47954 0.60789 0.56748 0.0
C401 C 0.53436 0.51688 0.55974 0.0
C402 C 0.46272 0.50372 0.54365 0.0
C403 C 0.51698 0.46145 0.50235 0.0
C404 C 0.53768 0.45451 0.49083 0.0
C405 C 0.56271 0.46724 0.49346 0.0
C406 C 0.58227 0.45985 0.48314 0.0
C407 C 0.57717 0.43953 0.47013 0.0
C408 C 0.55201 0.42709 0.46719 0.0
C409 C 0.53245 0.43455 0.47744 0.0
C410 C 0.4843 0.52696 0.49034 0.0
C411 C 0.55639 0.53999 0.50646 0.0
O412 O 0.50285 0.57622 0.52582 0.0
O413 O 0.50915 0.56796 0.5617 0.0
O414 O 0.51344 0.51136 0.54862 0.0
O415 O 0.54241 0.53905 0.55847 0.0
O416 O 0.47201 0.52624 0.54228 0.0
O417 O 0.47516 0.48892 0.53574 0.0
O418 O 0.52269 0.47039 0.52279 0.0
O419 O 0.503 0.47266 0.48982 0.0
O420 O 0.50529 0.53221 0.50133 0.0
O421 O 0.47597 0.50481 0.49168 0.0
O422 O 0.54548 0.51779 0.50492 0.0
O423 O 0.54555 0.55466 0.51684 0.0
H424 H 0.4531 0.56326 0.53195 0.0
H425 H 0.41452 0.57517 0.54176 0.0
H426 H 0.45905 0.62908 0.58466 0.0
H427 H 0.49763 0.61706 0.57476 0.0
H428 H 0.56726 0.48263 0.50385 0.0
H429 H 0.60147 0.46969 0.48592 0.0
H430 H 0.54745 0.41154 0.457 0.0
H431 H 0.51326 0.42457 0.47514 0.0
Tb432 Tb 0.00785 0.54526 1.01005 0.0
Tb433 Tb 0.00851 0.50486 0.04023 0.0
C434 C 0.99504 0.57656 0.98602 0.0
C435 C 0.97532 0.59 0.9863 0.0
C436 C 0.96747 0.59757 1.00688 0.0
C437 C 0.94751 0.60902 1.00659 0.0
C438 C 0.93496 0.61283 0.98576 0.0
C439 C 0.94314 0.60546 0.96521 0.0
C440 C 0.96314 0.59418 0.9655 0.0
C441 C 0.05226 0.5452 0.03068 0.0
C442 C 0.98699 0.54425 0.06094 0.0
C443 C 0.02087 0.47328 0.06397 0.0
C444 C 0.04153 0.46103 0.06453 0.0
C445 C 0.06486 0.47097 0.05531 0.0
C446 C 0.0851 0.45997 0.05793 0.0
C447 C 0.08232 0.43895 0.06992 0.0
C448 C 0.05842 0.42857 0.07801 0.0
C449 C 0.03826 0.43959 0.07542 0.0
C450 C 0.96417 0.50434 1.01902 0.0
C451 C 0.02914 0.50574 0.98947 0.0
O452 O 0.98677 0.55461 0.98199 0.0
O453 O 0.01282 0.58048 1.00234 0.0
O454 O 0.0309 0.5389 0.03916 0.0
O455 O 0.04926 0.55336 1.01027 0.0
O456 O 0.98731 0.55305 0.03988 0.0
O457 O 0.99619 0.52585 0.0657 0.0
O458 O 0.02738 0.49509 0.06939 0.0
O459 O 1.00499 0.46944 0.04618 0.0
O460 O 0.98569 0.51103 1.01098 0.0
O461 O 0.96713 0.49614 0.03939 0.0
O462 O 0.0304 0.49804 1.01088 0.0
O463 O 0.01854 0.52331 0.98452 0.0
H464 H 0.9765 0.59436 1.02315 0.0
H465 H 0.9415 0.61441 1.02268 0.0
H466 H 0.93407 0.60847 0.94887 0.0
H467 H 0.9689 0.58841 0.94946 0.0
H468 H 0.06762 0.4875 0.04666 0.0
H469 H 0.10307 0.46838 0.05125 0.0
H470 H 0.05533 0.41205 0.08666 0.0
H471 H 0.02025 0.43159 0.08239 0.0
H472 H 0.2715 0.21937 0.329 0.0
H473 H 0.24739 0.19941 0.3605 0.0
H474 H 0.19545 0.15759 0.31181 0.0
H475 H 0.21962 0.17717 0.28025 0.0
H476 H 0.17091 0.1749 0.34496 0.0
H477 H 0.23873 0.13509 0.34099 0.0
H478 H 0.28326 0.13188 0.34039 0.0
H479 H 0.29782 0.16232 0.40728 0.0
H480 H 0.25343 0.166 0.40814 0.0
H481 H 0.10803 0.08863 0.41967 0.0
H482 H 0.13233 0.11008 0.38919 0.0
H483 H 0.18598 0.14724 0.43967 0.0
H484 H 0.16248 0.12503 0.47023 0.0
H485 H 0.20986 0.13342 0.40606 0.0
H486 H 0.14161 0.17231 0.41059 0.0
H487 H 0.09705 0.17541 0.41117 0.0
H488 H 0.08318 0.14698 0.34339 0.0
H489 H 0.12759 0.14341 0.34253 0.0
C490 C 0.25513 0.20574 0.325 0.0
C491 C 0.24747 0.19988 0.30211 0.0
C492 C 0.24133 0.19441 0.34301 0.0
C493 C 0.2197 0.17697 0.33846 0.0
C494 C 0.21201 0.17109 0.31566 0.0
C495 C 0.22581 0.18235 0.29767 0.0
C496 C 0.20496 0.16492 0.35745 0.0
C497 C 0.17932 0.1656 0.3582 0.0
C498 C 0.21615 0.15329 0.37497 0.0
C499 C 0.24283 0.15104 0.37452 0.0
C500 C 0.25148 0.14128 0.35549 0.0
C501 C 0.27668 0.13934 0.35512 0.0
C502 C 0.29337 0.14695 0.37376 0.0
C503 C 0.28487 0.15646 0.39284 0.0
C504 C 0.25969 0.15846 0.39328 0.0
C505 C 0.12509 0.10125 0.42431 0.0
C506 C 0.13331 0.10507 0.44742 0.0
C507 C 0.1388 0.11371 0.40686 0.0
C508 C 0.16081 0.13048 0.41216 0.0
C509 C 0.16899 0.13445 0.43519 0.0
C510 C 0.15539 0.12188 0.45266 0.0
C511 C 0.17573 0.14336 0.39363 0.0
C512 C 0.20143 0.14281 0.39292 0.0
C513 C 0.16458 0.15515 0.37617 0.0
C514 C 0.13789 0.15741 0.37659 0.0
C515 C 0.12902 0.16657 0.39588 0.0
C516 C 0.10379 0.16843 0.39624 0.0
C517 C 0.08727 0.16135 0.37735 0.0
C518 C 0.09598 0.15244 0.35803 0.0
C519 C 0.12119 0.15052 0.35758 0.0
H520 H 0.06775 0.1628 0.37767 0.0
H521 H 0.31288 0.14543 0.37344 0.0
H522 H 0.29237 0.82369 0.79512 0.0
H523 H 0.31599 0.83975 0.82976 0.0
H524 H 0.25698 0.80183 0.87115 0.0
H525 H 0.23329 0.78503 0.83637 0.0
H526 H 0.2736 0.84838 0.88356 0.0
H527 H 0.3097 0.7837 0.87111 0.0
H528 H 0.32845 0.75743 0.84862 0.0
H529 H 0.39115 0.81278 0.8341 0.0
H530 H 0.3726 0.83948 0.85621 0.0
H531 H 0.3542 0.89627 0.97831 0.0
H532 H 0.3285 0.86563 0.95425 0.0
H533 H 0.37712 0.88782 0.89806 0.0
H534 H 0.40311 0.91794 0.92211 0.0
H535 H 0.36251 0.84181 0.899 0.0
H536 H 0.32291 0.90717 0.90374 0.0
H537 H 0.30435 0.93511 0.92408 0.0
H538 H 0.24861 0.87981 0.95125 0.0
H539 H 0.26708 0.85152 0.93128 0.0
C540 C 0.28451 0.8184 0.81156 0.0
C541 C 0.26105 0.8028 0.81294 0.0
C542 C 0.29803 0.82768 0.83136 0.0
C543 C 0.28842 0.82167 0.85301 0.0
C544 C 0.26476 0.80655 0.85457 0.0
C545 C 0.25122 0.79708 0.83468 0.0
C546 C 0.30308 0.83188 0.87378 0.0
C547 C 0.29281 0.84649 0.88735 0.0
C548 C 0.32828 0.82967 0.87841 0.0
C549 C 0.33967 0.81362 0.86525 0.0
C550 C 0.3274 0.79031 0.86301 0.0
C551 C 0.33801 0.77534 0.85034 0.0
C552 C 0.36096 0.78344 0.83992 0.0
C553 C 0.37338 0.80653 0.84219 0.0
C554 C 0.36284 0.82158 0.85482 0.0
C555 C 0.35972 0.8942 0.96101 0.0
C556 C 0.38044 0.90964 0.95196 0.0
C557 C 0.34494 0.87683 0.94724 0.0
C558 C 0.35067 0.87471 0.92425 0.0
C559 C 0.37229 0.88919 0.91571 0.0
C560 C 0.38701 0.9065 0.92941 0.0
C561 C 0.33327 0.85882 0.90835 0.0
C562 C 0.34306 0.84319 0.89565 0.0
C563 C 0.3077 0.86027 0.90435 0.0
C564 C 0.29657 0.87724 0.91629 0.0
C565 C 0.30682 0.90097 0.91421 0.0
C566 C 0.2963 0.91687 0.92564 0.0
C567 C 0.27537 0.90923 0.93901 0.0
C568 C 0.26487 0.88569 0.94093 0.0
C569 C 0.27535 0.86972 0.92956 0.0
H570 H 0.26724 0.92156 0.94784 0.0
H571 H 0.36914 0.77182 0.83011 0.0
H572 H 0.57197 0.37607 0.72472 0.0
H573 H 0.55874 0.39567 0.69066 0.0
H574 H 0.62171 0.45303 0.70307 0.0
H575 H 0.63506 0.43357 0.73699 0.0
H576 H 0.58039 0.46842 0.69306 0.0
H577 H 0.62037 0.41288 0.6596 0.0
H578 H 0.62735 0.37405 0.65248 0.0
H579 H 0.55091 0.35259 0.6255 0.0
H580 H 0.54337 0.39122 0.63275 0.0
H581 H 0.57672 0.52802 0.58799 0.0
H582 H 0.58991 0.50538 0.61973 0.0
H583 H 0.52533 0.45022 0.6045 0.0
H584 H 0.5123 0.47274 0.57242 0.0
H585 H 0.56585 0.43287 0.61588 0.0
H586 H 0.52576 0.48804 0.64886 0.0
H587 H 0.51825 0.52668 0.65602 0.0
H588 H 0.59415 0.5485 0.6842 0.0
H589 H 0.60223 0.51006 0.67692 0.0
C590 C 0.58319 0.39275 0.72009 0.0
C591 C 0.60459 0.40319 0.73379 0.0
C592 C 0.57557 0.40398 0.70054 0.0
C593 C 0.58928 0.42586 0.69405 0.0
C594 C 0.61068 0.43625 0.70766 0.0
C595 C 0.61826 0.42508 0.72718 0.0
C596 C 0.58119 0.43823 0.67345 0.0
C597 C 0.57756 0.4607 0.67615 0.0
C598 C 0.57671 0.42808 0.65137 0.0
C599 C 0.58123 0.40487 0.64694 0.0
C600 C 0.60499 0.39983 0.65232 0.0
C601 C 0.60906 0.37786 0.64822 0.0
C602 C 0.58957 0.36084 0.6386 0.0
C603 C 0.56598 0.36577 0.63299 0.0
C604 C 0.56181 0.38771 0.63707 0.0
C605 C 0.56543 0.511 0.59128 0.0
C606 C 0.54338 0.50226 0.57776 0.0
C607 C 0.57292 0.49808 0.60955 0.0
C608 C 0.5584 0.47618 0.61491 0.0
C609 C 0.53685 0.46707 0.60086 0.0
C610 C 0.52939 0.47998 0.58251 0.0
C611 C 0.56537 0.46314 0.63549 0.0
C612 C 0.5687 0.44056 0.6328 0.0
C613 C 0.5695 0.47314 0.65763 0.0
C614 C 0.56467 0.49623 0.66215 0.0
C615 C 0.54091 0.50113 0.65644 0.0
C616 C 0.53654 0.52298 0.66054 0.0
C617 C 0.55573 0.54005 0.67051 0.0
C618 C 0.57931 0.53527 0.67646 0.0
C619 C 0.58379 0.51344 0.67236 0.0
H620 H 0.55232 0.55696 0.67367 0.0
H621 H 0.59276 0.34385 0.63544 0.0
H622 H 0.93458 0.67465 0.22275 0.0
H623 H 0.94832 0.65683 0.18925 0.0
H624 H 0.907 0.59031 0.21102 0.0
H625 H 0.89291 0.60805 0.24429 0.0
H626 H 0.95747 0.59077 0.19763 0.0
H627 H 0.88274 0.61555 0.16858 0.0
H628 H 0.85657 0.64406 0.16062 0.0
H629 H 0.9148 0.68401 0.12025 0.0
H630 H 0.94149 0.65589 0.12826 0.0
H631 H 0.96567 0.5245 0.10003 0.0
H632 H 0.9509 0.54315 0.13211 0.0
H633 H 0.9721 0.6089 0.09804 0.0
H634 H 0.98547 0.58993 0.06528 0.0
H635 H 0.93284 0.61017 0.11815 0.0
H636 H 0.00825 0.58835 0.14611 0.0
H637 H 0.0374 0.56246 0.15441 0.0
H638 H 0.98305 0.52075 0.19732 0.0
H639 H 0.95343 0.54623 0.18902 0.0
C640 C 0.92848 0.65622 0.22046 0.0
C641 C 0.91254 0.64284 0.23627 0.0
C642 C 0.93626 0.64604 0.2012 0.0
C643 C 0.92866 0.62216 0.19743 0.0
C644 C 0.91314 0.60873 0.21342 0.0
C645 C 0.90498 0.61895 0.23242 0.0
C646 C 0.93679 0.61112 0.17689 0.0
C647 C 0.95185 0.59482 0.18025 0.0
C648 C 0.93028 0.61689 0.1541 0.0
C649 C 0.91422 0.63375 0.14923 0.0
C650 C 0.89006 0.63052 0.15818 0.0
C651 C 0.87511 0.64659 0.15362 0.0
C652 C 0.88404 0.66587 0.13999 0.0
C653 C 0.90792 0.66909 0.13084 0.0
C654 C 0.92296 0.65309 0.13537 0.0
C655 C 0.96706 0.54292 0.0993 0.0
C656 C 0.97685 0.55567 0.08001 0.0
C657 C 0.95881 0.55371 0.11786 0.0
C658 C 0.96095 0.57774 0.11815 0.0
C659 C 0.97022 0.59041 0.09858 0.0
C660 C 0.97789 0.57952 0.07974 0.0
C661 C 0.95358 0.58956 0.13874 0.0
C662 C 0.93865 0.60608 0.13545 0.0
C663 C 0.96073 0.58438 0.16164 0.0
C664 C 0.97853 0.56908 0.16677 0.0
C665 C 1.00245 0.57358 0.1572 0.0
C666 C 0.01907 0.55898 0.16192 0.0
C667 C 0.01206 0.53994 0.17634 0.0
C668 C 0.98844 0.53549 0.18613 0.0
C669 C 0.97174 0.55002 0.18144 0.0
H670 H 0.02494 0.52866 0.17996 0.0
H671 H 0.87244 0.67829 0.13648 0.0
H672 H 0.41509 0.21939 0.13204 0.0
H673 H 0.43562 0.19083 0.11588 0.0
H674 H 0.42237 0.14979 0.17738 0.0
H675 H 0.40173 0.17817 0.1936 0.0
H676 H 0.46851 0.14873 0.15953 0.0
H677 H 0.381 0.13801 0.13372 0.0
H678 H 0.34386 0.15047 0.11631 0.0
H679 H 0.38208 0.16657 0.05341 0.0
H680 H 0.41961 0.15452 0.07058 0.0
H681 H 0.44079 0.04314 0.07508 0.0
H682 H 0.42771 0.07112 0.09937 0.0
H683 H 0.50258 0.11457 0.09813 0.0
H684 H 0.51599 0.0865 0.07433 0.0
H685 H 0.42506 0.11322 0.08796 0.0
H686 H 0.51463 0.14824 0.14552 0.0
H687 H 0.55039 0.13434 0.16396 0.0
H688 H 0.50488 0.06561 0.16584 0.0
H689 H 0.46879 0.07914 0.14764 0.0
C690 C 0.41682 0.20442 0.14222 0.0
C691 C 0.40654 0.2009 0.16398 0.0
C692 C 0.42862 0.18818 0.13302 0.0
C693 C 0.43016 0.16807 0.14533 0.0
C694 C 0.4214 0.16522 0.16763 0.0
C695 C 0.40964 0.18148 0.17688 0.0
C696 C 0.43851 0.14902 0.13412 0.0
C697 C 0.45911 0.14097 0.14385 0.0
C698 C 0.42585 0.13861 0.11395 0.0
C699 C 0.40318 0.14557 0.1035 0.0
C700 C 0.38153 0.14435 0.11622 0.0
C701 C 0.36041 0.15132 0.1064 0.0
C702 C 0.36063 0.15936 0.08379 0.0
C703 C 0.38195 0.16037 0.07093 0.0
C704 C 0.40315 0.15346 0.0807 0.0
C705 C 0.4546 0.05847 0.08025 0.0
C706 C 0.4794 0.0626 0.07266 0.0
C707 C 0.44707 0.07447 0.09411 0.0
C708 C 0.46417 0.09491 0.10063 0.0
C709 C 0.48915 0.09877 0.09363 0.0
C710 C 0.49675 0.0827 0.07992 0.0
C711 C 0.45532 0.11294 0.11318 0.0
C712 C 0.43456 0.12089 0.10365 0.0
C713 C 0.46765 0.12296 0.13368 0.0
C714 C 0.48908 0.11469 0.14503 0.0
C715 C 0.51222 0.13018 0.14997 0.0
C716 C 0.53256 0.12236 0.16035 0.0
C717 C 0.52993 0.0991 0.16601 0.0
C718 C 0.50692 0.08361 0.16137 0.0
C719 C 0.48653 0.09135 0.15099 0.0
H720 H 0.5457 0.09307 0.17403 0.0
H721 H 0.34426 0.16475 0.07621 0.0
H722 H 0.08027 0.81146 0.66294 0.0
H723 H 0.05694 0.84058 0.64952 0.0
H724 H 0.12748 0.88798 0.63713 0.0
H725 H 0.15076 0.85909 0.6504 0.0
H726 H 0.09399 0.90715 0.66178 0.0
H727 H 0.09396 0.86114 0.59419 0.0
H728 H 0.0846 0.82595 0.57071 0.0
H729 H 1.00515 0.81897 0.5796 0.0
H730 H 0.01406 0.85388 0.60356 0.0
H731 H 0.07028 0.99329 0.58611 0.0
H732 H 0.08335 0.96223 0.6076 0.0
H733 H 1.00627 0.92311 0.60511 0.0
H734 H 0.99304 0.95403 0.58307 0.0
H735 H 0.03689 0.89749 0.59207 0.0
H736 H 0.03598 0.94538 0.65622 0.0
H737 H 0.04477 0.98126 0.67864 0.0
H738 H 0.12457 0.98507 0.67618 0.0
H739 H 0.11628 0.94937 0.65346 0.0
C740 C 0.09072 0.8281 0.65732 0.0
C741 C 0.1173 0.833 0.65757 0.0
C742 C 0.07741 0.84464 0.64961 0.0
C743 C 0.09053 0.86638 0.64231 0.0
C744 C 0.11703 0.8713 0.6427 0.0
C745 C 0.13029 0.85474 0.65011 0.0
C746 C 0.07689 0.88427 0.63443 0.0
C747 C 0.08156 0.90511 0.6465 0.0
C748 C 0.06 0.88123 0.61496 0.0
C749 C 0.05472 0.85989 0.60106 0.0
C750 C 0.07452 0.8519 0.59147 0.0
C751 C 0.06929 0.83205 0.578 0.0
C752 C 0.04431 0.82016 0.57377 0.0
C753 C 0.0245 0.82813 0.58299 0.0
C754 C 0.02964 0.84793 0.59654 0.0
C755 C 0.05598 0.97829 0.59046 0.0
C756 C 0.03062 0.97614 0.5828 0.0
C757 C 0.06348 0.96055 0.60288 0.0
C758 C 0.04576 0.94039 0.60817 0.0
C759 C 0.02025 0.93852 0.60126 0.0
C760 C 0.01272 0.95626 0.58874 0.0
C761 C 0.05442 0.92065 0.61912 0.0
C762 C 0.04886 0.89943 0.60765 0.0
C763 C 0.07038 0.92329 0.63923 0.0
C764 C 0.07549 0.94474 0.65301 0.0
C765 C 0.05541 0.95394 0.66032 0.0
C766 C 0.0603 0.97424 0.67311 0.0
C767 C 0.08521 0.98546 0.6788 0.0
C768 C 0.10528 0.97636 0.67176 0.0
C769 C 0.10049 0.95607 0.65896 0.0
H770 H 0.08896 1.00118 0.6887 0.0
H771 H 0.0403 0.80483 0.56327 0.0
H772 H 0.75751 0.39078 0.92614 0.0
H773 H 0.79513 0.41138 0.94805 0.0
H774 H 0.81536 0.457 0.89069 0.0
H775 H 0.77744 0.43666 0.86876 0.0
H776 H 0.85652 0.43739 0.91263 0.0
H777 H 0.79262 0.47851 0.93099 0.0
H778 H 0.75088 0.48175 0.94385 0.0
H779 H 0.76614 0.45144 1.0087 0.0
H780 H 0.80784 0.44771 0.99608 0.0
H781 H 0.95616 0.51324 0.97343 0.0
H782 H 0.91803 0.49871 0.9493 0.0
H783 H 0.88111 0.46392 1.0079 0.0
H784 H 0.91873 0.47934 0.03222 0.0
H785 H 0.84818 0.47983 0.98342 0.0
H786 H 0.90934 0.43601 0.96644 0.0
H787 H 0.95081 0.43032 0.95519 0.0
H788 H 0.94066 0.46182 0.88982 0.0
H789 H 0.89926 0.468 0.90083 0.0
C790 C 0.77001 0.40516 0.91817 0.0
C791 C 0.76452 0.41212 0.89574 0.0
C792 C 0.79145 0.41695 0.93073 0.0
C793 C 0.80802 0.43574 0.92101 0.0
C794 C 0.80282 0.44254 0.8985 0.0
C795 C 0.78111 0.43101 0.88606 0.0
C796 C 0.83061 0.44834 0.93456 0.0
C797 C 0.85478 0.44701 0.9279 0.0
C798 C 0.82827 0.4603 0.95484 0.0
C799 C 0.80325 0.46263 0.9625 0.0
C800 C 0.78699 0.47235 0.94791 0.0
C801 C 0.76335 0.47431 0.95518 0.0
C802 C 0.75583 0.46675 0.97706 0.0
C803 C 0.77197 0.45727 0.99174 0.0
C804 C 0.79562 0.45524 0.98455 0.0
C805 C 0.93975 0.50284 0.98123 0.0
C806 C 0.94047 0.4974 1.00472 0.0
C807 C 0.91802 0.49431 0.96736 0.0
C808 C 0.89676 0.47973 0.9766 0.0
C809 C 0.89721 0.47502 1.00026 0.0
C810 C 0.91878 0.48381 1.01417 0.0
C811 C 0.87432 0.46885 0.96166 0.0
C812 C 0.85009 0.47041 0.96807 0.0
C813 C 0.87661 0.45671 0.94138 0.0
C814 C 0.90132 0.45269 0.93455 0.0
C815 C 0.91602 0.44184 0.94972 0.0
C816 C 0.93951 0.43852 0.94338 0.0
C817 C 0.9484 0.44576 0.92183 0.0
C818 C 0.93377 0.45625 0.90653 0.0
C819 C 0.91028 0.45966 0.9128 0.0
H820 H 0.9666 0.44319 0.91697 0.0
H821 H 0.73753 0.46829 0.98265 0.0
H822 H 0.73221 0.63298 0.36975 0.0
H823 H 0.69477 0.61482 0.39026 0.0
H824 H 0.74226 0.59954 0.44702 0.0
H825 H 0.77983 0.61659 0.42613 0.0
H826 H 0.70425 0.56464 0.44114 0.0
H827 H 0.71183 0.64602 0.44744 0.0
H828 H 0.71583 0.68587 0.43339 0.0
H829 H 0.64487 0.66603 0.39533 0.0
H830 H 0.64062 0.62598 0.40892 0.0
H831 H 0.58957 0.5816 0.51264 0.0
H832 H 0.62839 0.59673 0.49268 0.0
H833 H 0.61606 0.53432 0.453 0.0
H834 H 0.57781 0.51875 0.47361 0.0
H835 H 0.63756 0.60837 0.45153 0.0
H836 H 0.67238 0.52488 0.43441 0.0
H837 H 0.67036 0.48654 0.45165 0.0
H838 H 0.6597 0.51285 0.5177 0.0
H839 H 0.66251 0.55157 0.50101 0.0
C840 C 0.73481 0.62545 0.38643 0.0
C841 C 0.75929 0.62648 0.39622 0.0
C842 C 0.71326 0.61527 0.39832 0.0
C843 C 0.7155 0.6061 0.42047 0.0
C844 C 0.73986 0.60657 0.43005 0.0
C845 C 0.76143 0.6166 0.41812 0.0
C846 C 0.69255 0.5964 0.43381 0.0
C847 C 0.68965 0.5742 0.44338 0.0
C848 C 0.67357 0.6089 0.43718 0.0
C849 C 0.67603 0.63297 0.42902 0.0
C850 C 0.69717 0.65013 0.43595 0.0
C851 C 0.69947 0.67276 0.42809 0.0
C852 C 0.68065 0.67847 0.41343 0.0
C853 C 0.65945 0.66158 0.40665 0.0
C854 C 0.65708 0.63892 0.41444 0.0
C855 C 0.59524 0.57098 0.49982 0.0
C856 C 0.58058 0.54887 0.4949 0.0
C857 C 0.61745 0.57972 0.48829 0.0
C858 C 0.62554 0.56669 0.47136 0.0
C859 C 0.61076 0.54463 0.46629 0.0
C860 C 0.58875 0.53573 0.47809 0.0
C861 C 0.64906 0.57647 0.45878 0.0
C862 C 0.65207 0.59871 0.4493 0.0
C863 C 0.66839 0.56417 0.45595 0.0
C864 C 0.66731 0.54109 0.46636 0.0
C865 C 0.66974 0.52253 0.45264 0.0
C866 C 0.66845 0.50072 0.46232 0.0
C867 C 0.66465 0.49719 0.48571 0.0
C868 C 0.66248 0.51557 0.49955 0.0
C869 C 0.66399 0.53748 0.48999 0.0
H870 H 0.66349 0.48024 0.49312 0.0
H871 H 0.68246 0.696 0.40736 0.0
H872 H 0.22713 0.33493 0.17142 0.0
H873 H 0.20075 0.35776 0.15116 0.0
H874 H 0.24975 0.3663 0.09411 0.0
H875 H 0.27639 0.34308 0.11441 0.0
H876 H 0.22995 0.40748 0.107 0.0
H877 H 0.20161 0.32824 0.08608 0.0
H878 H 0.19016 0.28643 0.09336 0.0
H879 H 0.13035 0.29568 0.13548 0.0
H880 H 0.14171 0.3376 0.12877 0.0
H881 H 0.12225 0.43749 0.04276 0.0
H882 H 0.15849 0.42006 0.05226 0.0
H883 H 0.12828 0.39895 0.11809 0.0
H884 H 0.09285 0.41704 0.10935 0.0
H885 H 0.14195 0.3633 0.09197 0.0
H886 H 0.17455 0.4419 0.11824 0.0
H887 H 0.18577 0.48398 0.11262 0.0
H888 H 0.2364 0.47592 0.06046 0.0
H889 H 0.22542 0.43372 0.06576 0.0
C890 C 0.23243 0.34179 0.15463 0.0
C891 C 0.25351 0.33689 0.14428 0.0
C892 C 0.21743 0.35492 0.14314 0.0
C893 C 0.22315 0.36339 0.12105 0.0
C894 C 0.24508 0.35984 0.11116 0.0
C895 C 0.26021 0.34661 0.12274 0.0
C896 C 0.2047 0.37409 0.10798 0.0
C897 C 0.21087 0.39777 0.10314 0.0
C898 C 0.17979 0.36137 0.10318 0.0
C899 C 0.17262 0.3361 0.10701 0.0
C900 C 0.18612 0.32138 0.09702 0.0
C901 C 0.17964 0.29766 0.10103 0.0
C902 C 0.15956 0.28841 0.1149 0.0
C903 C 0.14589 0.30286 0.12474 0.0
C904 C 0.15233 0.32661 0.12081 0.0
C905 C 0.12346 0.42935 0.05936 0.0
C906 C 0.10439 0.4284 0.07516 0.0
C907 C 0.1441 0.41935 0.06468 0.0
C908 C 0.14585 0.40813 0.08579 0.0
C909 C 0.12704 0.40732 0.1016 0.0
C910 C 0.10667 0.4175 0.09645 0.0
C911 C 0.16696 0.39678 0.09164 0.0
C912 C 0.16121 0.37292 0.09517 0.0
C913 C 0.19213 0.40934 0.09519 0.0
C914 C 0.19896 0.43467 0.0922 0.0
C915 C 0.18794 0.44909 0.10546 0.0
C916 C 0.19428 0.47296 0.10236 0.0
C917 C 0.21165 0.48261 0.08609 0.0
C918 C 0.22288 0.46841 0.07301 0.0
C919 C 0.21666 0.44452 0.07609 0.0
H920 H 0.21649 0.50109 0.08368 0.0
H921 H 0.15457 0.27003 0.11799 0.0
H922 H 0.56225 0.25291 0.90059 0.0
H923 H 0.54493 0.21751 0.92134 0.0
H924 H 0.60329 0.18639 0.8966 0.0
H925 H 0.61981 0.22121 0.87471 0.0
H926 H 0.56167 0.15562 0.89576 0.0
H927 H 0.6047 0.20841 0.95299 0.0
H928 H 0.61544 0.2447 0.97478 0.0
H929 H 0.53897 0.234 0.99595 0.0
H930 H 0.52769 0.19778 0.97402 0.0
H931 H 0.54183 0.06228 0.97648 0.0
H932 H 0.56145 0.09759 0.95607 0.0
H933 H 0.49957 0.12837 0.97269 0.0
H934 H 0.48006 0.09327 0.99313 0.0
H935 H 0.54462 0.15896 0.97825 0.0
H936 H 0.50229 0.10592 0.9197 0.0
H937 H 0.49305 0.06921 0.89859 0.0
H938 H 0.57076 0.08019 0.88089 0.0
H939 H 0.58052 0.11684 0.90217 0.0
C940 C 0.57123 0.23846 0.8992 0.0
C941 C 0.59265 0.2402 0.88597 0.0
C942 C 0.56147 0.21824 0.91142 0.0
C943 C 0.57306 0.19927 0.91105 0.0
C944 C 0.59403 0.20074 0.89741 0.0
C945 C 0.60366 0.22086 0.88503 0.0
C946 C 0.56336 0.17795 0.92481 0.0
C947 C 0.55832 0.15641 0.91388 0.0
C948 C 0.55858 0.17873 0.94845 0.0
C949 C 0.5653 0.20049 0.96167 0.0
C950 C 0.59013 0.21388 0.96215 0.0
C951 C 0.59632 0.23442 0.97455 0.0
C952 C 0.57789 0.24168 0.98669 0.0
C953 C 0.55323 0.22837 0.9865 0.0
C954 C 0.54692 0.20782 0.97411 0.0
C955 C 0.53254 0.07665 0.9759 0.0
C956 C 0.50935 0.07497 0.98634 0.0
C957 C 0.54369 0.0968 0.96413 0.0
C958 C 0.53187 0.11565 0.96257 0.0
C959 C 0.50907 0.11413 0.97357 0.0
C960 C 0.49789 0.09401 0.98521 0.0
C961 C 0.54284 0.13679 0.94915 0.0
C962 C 0.5481 0.15826 0.96015 0.0
C963 C 0.54807 0.13592 0.92565 0.0
C964 C 0.54218 0.11399 0.91272 0.0
C965 C 0.51744 0.10042 0.91145 0.0
C966 C 0.5121 0.07964 0.89943 0.0
C967 C 0.53132 0.07234 0.88846 0.0
C968 C 0.5559 0.08585 0.88943 0.0
C969 C 0.56134 0.10663 0.90145 0.0
H970 H 0.52716 0.05625 0.87917 0.0
H971 H 0.58272 0.25759 0.99628 0.0
H972 H 0.89155 0.81907 0.37907 0.0
H973 H 0.90742 0.85379 0.40156 0.0
H974 H 0.9716 0.82697 0.42585 0.0
H975 H 0.95501 0.79145 0.40447 0.0
H976 H 0.95595 0.84656 0.46007 0.0
H977 H 0.9745 0.87098 0.38294 0.0
H978 H 0.96524 0.87642 0.34173 0.0
H979 H 0.91215 0.91719 0.35789 0.0
H980 H 0.92086 0.91174 0.39922 0.0
H981 H 0.03318 0.95134 0.50143 0.0
H982 H 0.01471 0.91641 0.47985 0.0
H983 H 0.94904 0.9437 0.46156 0.0
H984 H 0.96784 0.97913 0.48297 0.0
H985 H 0.96412 0.92405 0.42495 0.0
H986 H 0.94801 0.90095 0.50276 0.0
H987 H 0.95938 0.89645 0.5437 0.0
H988 H 0.00978 0.85354 0.52606 0.0
H989 H 0.99905 0.85812 0.48496 0.0
C990 C 0.90893 0.8203 0.38934 0.0
C991 C 0.92184 0.80211 0.38979 0.0
C992 C 0.91823 0.84048 0.40204 0.0
C993 C 0.94103 0.84342 0.41531 0.0
C994 C 0.95402 0.82535 0.41578 0.0
C995 C 0.94461 0.80504 0.40323 0.0
C996 C 0.95112 0.86512 0.42883 0.0
C997 C 0.95801 0.86346 0.45225 0.0
C998 C 0.95337 0.88741 0.41901 0.0
C999 C 0.94815 0.89076 0.39417 0.0
C1000 C 0.96072 0.88097 0.37771 0.0
C1001 C 0.95559 0.88408 0.35433 0.0
C1002 C 0.93807 0.89709 0.3472 0.0
C1003 C 0.92569 0.90708 0.36344 0.0
C1004 C 0.93073 0.90401 0.38684 0.0
C1005 C 0.01476 0.94994 0.49287 0.0
C1006 C 1.00196 0.96805 0.494 0.0
C1007 C 1.00412 0.92982 0.4806 0.0
C1008 C 0.98023 0.92708 0.46924 0.0
C1009 C 0.96743 0.94525 0.4702 0.0
C1010 C 0.97814 0.96548 0.48253 0.0
C1011 C 0.96901 0.90545 0.45609 0.0
C1012 C 0.96193 0.90713 0.43276 0.0
C1013 C 0.96676 0.8832 0.46597 0.0
C1014 C 0.97287 0.88004 0.49073 0.0
C1015 C 0.96163 0.89066 0.50759 0.0
C1016 C 0.96796 0.88809 0.53083 0.0
C1017 C 0.98533 0.87476 0.53747 0.0
C1018 C 0.99634 0.86389 0.52088 0.0
C1019 C 0.99013 0.86645 0.49761 0.0
H1020 H 0.99024 0.87281 0.55547 0.0
H1021 H 0.93413 0.89947 0.32909 0.0
H1022 H 0.23549 0.6602 0.64395 0.0
H1023 H 0.26115 0.63756 0.6247 0.0
H1024 H 0.31235 0.70026 0.60496 0.0
H1025 H 0.28655 0.72286 0.62359 0.0
H1026 H 0.30516 0.66885 0.57105 0.0
H1027 H 0.32421 0.67096 0.65318 0.0
H1028 H 0.31371 0.6643 0.69372 0.0
H1029 H 0.28768 0.59196 0.6807 0.0
H1030 H 0.29773 0.59827 0.63997 0.0
H1031 H 0.4265 0.6469 0.56492 0.0
H1032 H 0.38857 0.65949 0.57532 0.0
H1033 H 0.35039 0.58885 0.5862 0.0
H1034 H 0.38857 0.5761 0.57608 0.0
H1035 H 0.34485 0.61768 0.62157 0.0
H1036 H 0.33367 0.61558 0.54032 0.0
H1037 H 0.34651 0.62312 0.50049 0.0
H1038 H 0.3591 0.69593 0.51196 0.0
H1039 H 0.34678 0.68885 0.552 0.0
C1040 C 0.25191 0.66911 0.63506 0.0
C1041 C 0.25921 0.69327 0.63549 0.0
C1042 C 0.26663 0.65618 0.62422 0.0
C1043 C 0.28885 0.66724 0.61369 0.0
C1044 C 0.29533 0.69137 0.61303 0.0
C1045 C 0.28069 0.70426 0.62385 0.0
C1046 C 0.30652 0.65398 0.6048 0.0
C1047 C 0.31385 0.65766 0.58207 0.0
C1048 C 0.3174 0.63893 0.61904 0.0
C1049 C 0.3114 0.63513 0.6435 0.0
C1050 C 0.31605 0.65367 0.65893 0.0
C1051 C 0.31022 0.64995 0.68194 0.0
C1052 C 0.29995 0.62773 0.68976 0.0
C1053 C 0.29557 0.60917 0.6746 0.0
C1054 C 0.30133 0.61281 0.65156 0.0
C1055 C 0.41006 0.63405 0.56959 0.0
C1056 C 0.4105 0.61053 0.56974 0.0
C1057 C 0.38834 0.64124 0.57532 0.0
C1058 C 0.36661 0.62507 0.58128 0.0
C1059 C 0.36695 0.60157 0.58152 0.0
C1060 C 0.38867 0.59433 0.57563 0.0
C1061 C 0.34396 0.63304 0.58801 0.0
C1062 C 0.33573 0.62841 0.61034 0.0
C1063 C 0.33237 0.64729 0.57343 0.0
C1064 C 0.33941 0.65167 0.54923 0.0
C1065 C 0.33933 0.63321 0.5344 0.0
C1066 C 0.3465 0.6374 0.51178 0.0
C1067 C 0.35363 0.65999 0.50371 0.0
C1068 C 0.35356 0.67844 0.51824 0.0
C1069 C 0.34645 0.67434 0.5409 0.0
H1070 H 0.3592 0.66321 0.48619 0.0
H1071 H 0.29546 0.62488 0.70759 0.0
H1072 H 0.74363 0.85019 0.73848 0.0
H1073 H 0.76978 0.86711 0.70694 0.0
H1074 H 0.82816 0.83245 0.73094 0.0
H1075 H 0.80216 0.81563 0.76274 0.0
H1076 H 0.84639 0.87882 0.72126 0.0
H1077 H 0.79371 0.81293 0.68432 0.0
H1078 H 0.75335 0.78662 0.67299 0.0
H1079 H 0.72857 0.84178 0.63715 0.0
H1080 H 0.76865 0.86851 0.64854 0.0
H1081 H 0.91869 0.91628 0.62389 0.0
H1082 H 0.89546 0.89122 0.65286 0.0
H1083 H 0.82726 0.91321 0.63131 0.0
H1084 H 0.84989 0.93714 0.60152 0.0
H1085 H 0.81627 0.86932 0.63968 0.0
H1086 H 0.8653 0.93596 0.67951 0.0
H1087 H 0.90431 0.96378 0.69165 0.0
H1088 H 0.93449 0.90913 0.72274 0.0
H1089 H 0.89576 0.88093 0.71051 0.0
C1090 C 0.76203 0.84617 0.73703 0.0
C1091 C 0.77086 0.83158 0.75304 0.0
C1092 C 0.77687 0.85571 0.71893 0.0
C1093 C 0.8008 0.85086 0.71653 0.0
C1094 C 0.80969 0.83631 0.73247 0.0
C1095 C 0.79477 0.82661 0.7505 0.0
C1096 C 0.81676 0.86162 0.69771 0.0
C1097 C 0.84007 0.87643 0.70337 0.0
C1098 C 0.80818 0.85885 0.67446 0.0
C1099 C 0.78412 0.84276 0.66743 0.0
C1100 C 0.77958 0.81949 0.67416 0.0
C1101 C 0.75676 0.80449 0.6677 0.0
C1102 C 0.73839 0.81253 0.65439 0.0
C1103 C 0.74282 0.83557 0.64746 0.0
C1104 C 0.7656 0.85065 0.65389 0.0
C1105 C 0.89865 0.91549 0.62506 0.0
C1106 C 0.88623 0.92894 0.61051 0.0
C1107 C 0.88546 0.90134 0.64182 0.0
C1108 C 0.8597 0.90064 0.64456 0.0
C1109 C 0.84714 0.91354 0.62963 0.0
C1110 C 0.86021 0.92746 0.61276 0.0
C1111 C 0.84575 0.88693 0.6632 0.0
C1112 C 0.82279 0.87154 0.65752 0.0
C1113 C 0.85451 0.88939 0.68647 0.0
C1114 C 0.87777 0.90631 0.69386 0.0
C1115 C 0.88034 0.92986 0.68878 0.0
C1116 C 0.90238 0.94569 0.6957 0.0
C1117 C 0.9219 0.93821 0.70789 0.0
C1118 C 0.91938 0.91489 0.71325 0.0
C1119 C 0.89738 0.89898 0.70634 0.0
H1120 H 0.93895 0.9505 0.71324 0.0
H1121 H 0.72073 0.80089 0.64942 0.0
H1122 H 0.71922 0.192 0.27458 0.0
H1123 H 0.69413 0.17047 0.24301 0.0
H1124 H 0.73888 0.2149 0.19427 0.0
H1125 H 0.7643 0.23648 0.22586 0.0
H1126 H 0.68791 0.20549 0.18203 0.0
H1127 H 0.75091 0.16344 0.20542 0.0
H1128 H 0.77524 0.144 0.23294 0.0
H1129 H 0.70715 0.09608 0.25007 0.0
H1130 H 0.68234 0.11547 0.22289 0.0
H1131 H 0.65712 0.132 0.08489 0.0
H1132 H 0.67987 0.15551 0.11637 0.0
H1133 H 0.63264 0.11323 0.16492 0.0
H1134 H 0.60913 0.09005 0.13351 0.0
H1135 H 0.68459 0.12166 0.17717 0.0
H1136 H 0.62164 0.16343 0.15355 0.0
H1137 H 0.59727 0.18277 0.12599 0.0
H1138 H 0.66523 0.231 0.10909 0.0
H1139 H 0.69009 0.21172 0.13633 0.0
C1140 C 0.72379 0.19715 0.25714 0.0
C1141 C 0.74395 0.21575 0.25269 0.0
C1142 C 0.70939 0.18488 0.23914 0.0
C1143 C 0.71492 0.1909 0.21634 0.0
C1144 C 0.73437 0.20999 0.21178 0.0
C1145 C 0.74883 0.22231 0.22982 0.0
C1146 C 0.70085 0.17675 0.19732 0.0
C1147 C 0.68744 0.18723 0.18077 0.0
C1148 C 0.69985 0.15283 0.19602 0.0
C1149 C 0.71473 0.14105 0.21228 0.0
C1150 C 0.74109 0.14887 0.21519 0.0
C1151 C 0.75498 0.13785 0.23071 0.0
C1152 C 0.74274 0.11886 0.24329 0.0
C1153 C 0.71659 0.11082 0.24034 0.0
C1154 C 0.70262 0.1218 0.22487 0.0
C1155 C 0.65132 0.12784 0.10222 0.0
C1156 C 0.63122 0.10915 0.10663 0.0
C1157 C 0.66443 0.14124 0.12018 0.0
C1158 C 0.65779 0.13616 0.1429 0.0
C1159 C 0.63804 0.11736 0.14747 0.0
C1160 C 0.62475 0.10406 0.1295 0.0
C1161 C 0.67165 0.15039 0.16191 0.0
C1162 C 0.68505 0.13992 0.17844 0.0
C1163 C 0.67265 0.1743 0.16316 0.0
C1164 C 0.65777 0.18598 0.1468 0.0
C1165 C 0.63143 0.17803 0.14381 0.0
C1166 C 0.61752 0.18901 0.12827 0.0
C1167 C 0.6297 0.20806 0.11575 0.0
C1168 C 0.65582 0.21622 0.11878 0.0
C1169 C 0.66983 0.20528 0.13428 0.0
H1170 H 0.6189 0.21654 0.10373 0.0
H1171 H 0.75352 0.11034 0.25529 0.0
H1172 H 0.44651 0.66771 0.32537 0.0
H1173 H 0.46021 0.6482 0.35927 0.0
H1174 H 0.39418 0.59313 0.35052 0.0
H1175 H 0.38048 0.61235 0.31657 0.0
H1176 H 0.40206 0.60465 0.39491 0.0
H1177 H 0.45344 0.58744 0.33513 0.0
H1178 H 0.48351 0.5967 0.30418 0.0
H1179 H 0.53939 0.63536 0.35141 0.0
H1180 H 0.50951 0.62657 0.38259 0.0
H1181 H 0.44062 0.5172 0.46356 0.0
H1182 H 0.42707 0.54066 0.4326 0.0
H1183 H 0.49404 0.59382 0.44591 0.0
H1184 H 0.50768 0.57035 0.47685 0.0
H1185 H 0.48655 0.58527 0.40054 0.0
H1186 H 0.43679 0.60124 0.46077 0.0
H1187 H 0.40735 0.59221 0.49222 0.0
H1188 H 0.3491 0.5568 0.4451 0.0
H1189 H 0.37832 0.5653 0.4134 0.0
C1190 C 0.43497 0.65135 0.33049 0.0
C1191 C 0.41232 0.64171 0.31805 0.0
C1192 C 0.44283 0.6402 0.34999 0.0
C1193 C 0.42837 0.61901 0.35751 0.0
C1194 C 0.40567 0.60947 0.34526 0.0
C1195 C 0.3978 0.62059 0.32579 0.0
C1196 C 0.4369 0.60664 0.37794 0.0
C1197 C 0.42043 0.6002 0.39599 0.0
C1198 C 0.46116 0.6013 0.37984 0.0
C1199 C 0.47915 0.60656 0.36113 0.0
C1200 C 0.47207 0.59806 0.33887 0.0
C1201 C 0.48909 0.6032 0.3213 0.0
C1202 C 0.51332 0.61666 0.32581 0.0
C1203 C 0.5206 0.62497 0.34793 0.0
C1204 C 0.50364 0.6199 0.36556 0.0
C1205 C 0.45234 0.53398 0.46002 0.0
C1206 C 0.4752 0.54191 0.4727 0.0
C1207 C 0.44455 0.54743 0.44234 0.0
C1208 C 0.45943 0.56915 0.43689 0.0
C1209 C 0.48219 0.57717 0.4497 0.0
C1210 C 0.48991 0.56378 0.46749 0.0
C1211 C 0.45163 0.5831 0.41739 0.0
C1212 C 0.46822 0.58982 0.39953 0.0
C1213 C 0.42755 0.58878 0.41573 0.0
C1214 C 0.40984 0.58373 0.43472 0.0
C1215 C 0.41776 0.59137 0.45713 0.0
C1216 C 0.40111 0.58637 0.475 0.0
C1217 C 0.37639 0.5739 0.47066 0.0
C1218 C 0.36827 0.56644 0.44843 0.0
C1219 C 0.38486 0.57136 0.4305 0.0
H1220 H 0.36352 0.57006 0.48452 0.0
H1221 H 0.52647 0.62062 0.31218 0.0
H1222 H 0.08232 0.42119 0.79786 0.0
H1223 H 0.06793 0.43952 0.83056 0.0
H1224 H 0.11617 0.40916 0.87642 0.0
H1225 H 0.13068 0.39078 0.84377 0.0
H1226 H 0.06755 0.40596 0.89329 0.0
H1227 H 0.13394 0.46449 0.86264 0.0
H1228 H 0.15543 0.48945 0.83223 0.0
H1229 H 0.09044 0.51909 0.82102 0.0
H1230 H 0.06841 0.49406 0.85117 0.0
H1231 H 0.05774 0.47251 0.99214 0.0
H1232 H 0.07307 0.45338 0.96053 0.0
H1233 H 0.03762 0.49281 0.91173 0.0
H1234 H 0.02299 0.51242 0.94314 0.0
H1235 H 0.08044 0.49098 0.89644 0.0
H1236 H 0.01291 0.43339 0.92448 0.0
H1237 H 0.98873 0.4082 0.95332 0.0
H1238 H 0.05169 0.37643 0.96756 0.0
H1239 H 0.07637 0.40164 0.93895 0.0
C1240 C 0.08977 0.41824 0.8149 0.0
C1241 C 0.10778 0.40447 0.81803 0.0
C1242 C 0.08161 0.42888 0.83364 0.0
C1243 C 0.09102 0.42593 0.8561 0.0
C1244 C 0.10859 0.41181 0.85935 0.0
C1245 C 0.11702 0.40141 0.84058 0.0
C1246 C 0.08285 0.43782 0.87608 0.0
C1247 C 0.0707 0.42457 0.89412 0.0
C1248 C 0.08618 0.46209 0.87704 0.0
C1249 C 0.09945 0.47724 0.85901 0.0
C1250 C 0.12416 0.4762 0.85357 0.0
C1251 C 0.13645 0.49038 0.8364 0.0
C1252 C 0.12429 0.5058 0.82466 0.0
C1253 C 0.09983 0.50711 0.83011 0.0
C1254 C 0.08744 0.49295 0.84725 0.0
C1255 C 0.05324 0.47717 0.97469 0.0
C1256 C 0.03908 0.49411 0.97035 0.0
C1257 C 0.06191 0.46606 0.95651 0.0
C1258 C 0.05632 0.47127 0.93346 0.0
C1259 C 0.04236 0.48835 0.92919 0.0
C1260 C 0.03392 0.49959 0.9473 0.0
C1261 C 0.065 0.45917 0.91378 0.0
C1262 C 0.07727 0.47237 0.89573 0.0
C1263 C 0.06136 0.43483 0.91263 0.0
C1264 C 0.04657 0.41956 0.92975 0.0
C1265 C 0.02166 0.42114 0.93387 0.0
C1266 C 0.00786 0.40684 0.95016 0.0
C1267 C 0.0187 0.39078 0.96232 0.0
C1268 C 0.04334 0.38892 0.95815 0.0
C1269 C 0.05723 0.40318 0.94188 0.0
H1270 H 0.00799 0.37973 0.97493 0.0
H1271 H 0.13383 0.51677 0.81137 0.0
H1272 H 0.59231 0.85433 0.85603 0.0
H1273 H 0.56696 0.87901 0.8723 0.0
H1274 H 0.57942 0.85176 0.9397 0.0
H1275 H 0.60433 0.82671 0.9234 0.0
H1276 H 0.5332 0.86181 0.93562 0.0
H1277 H 0.61909 0.89938 0.92085 0.0
H1278 H 0.656 0.9115 0.89692 0.0
H1279 H 0.61387 0.94914 0.85267 0.0
H1280 H 0.57655 0.93692 0.87617 0.0
H1281 H 0.56174 0.98471 0.98661 0.0
H1282 H 0.57359 0.95437 0.96499 0.0
H1283 H 0.4955 0.92872 0.94308 0.0
H1284 H 0.48329 0.95873 0.96545 0.0
H1285 H 0.57139 0.94435 0.92215 0.0
H1286 H 0.48503 0.87051 0.93562 0.0
H1287 H 0.4514 0.85874 0.9632 0.0
H1288 H 0.50056 0.8943 1.0171 0.0
H1289 H 0.53458 0.90601 0.98994 0.0
C1290 C 0.58915 0.85328 0.87424 0.0
C1291 C 0.60051 0.83887 0.88853 0.0
C1292 C 0.57467 0.86734 0.88351 0.0
C1293 C 0.57175 0.86754 0.90727 0.0
C1294 C 0.58146 0.85189 0.92132 0.0
C1295 C 0.5957 0.83761 0.91201 0.0
C1296 C 0.56149 0.88591 0.91779 0.0
C1297 C 0.54137 0.87987 0.93255 0.0
C1298 C 0.57249 0.90947 0.91412 0.0
C1299 C 0.59496 0.91703 0.9001 0.0
C1300 C 0.61765 0.91011 0.90593 0.0
C1301 C 0.63864 0.91701 0.89245 0.0
C1302 C 0.63726 0.93103 0.87325 0.0
C1303 C 0.61489 0.93824 0.86752 0.0
C1304 C 0.59381 0.93133 0.88091 0.0
C1305 C 0.54703 0.97272 0.97712 0.0
C1306 C 0.52155 0.97411 0.97781 0.0
C1307 C 0.55387 0.95537 0.96471 0.0
C1308 C 0.53543 0.93911 0.95257 0.0
C1309 C 0.51001 0.94082 0.95266 0.0
C1310 C 0.50308 0.95805 0.96535 0.0
C1311 C 0.54315 0.92035 0.94016 0.0
C1312 C 0.56286 0.92632 0.92498 0.0
C1313 C 0.53226 0.89679 0.94403 0.0
C1314 C 0.51223 0.88932 0.96069 0.0
C1315 C 0.48869 0.87571 0.95339 0.0
C1316 C 0.46956 0.86906 0.96895 0.0
C1317 C 0.47382 0.87582 0.99188 0.0
C1318 C 0.49727 0.88913 0.99933 0.0
C1319 C 0.51647 0.89578 0.98386 0.0
H1320 H 0.45898 0.87072 1.00388 0.0
H1321 H 0.65353 0.93636 0.86284 0.0
H1322 H 0.93642 0.22547 0.39026 0.0
H1323 H 0.96261 0.19981 0.40651 0.0
H1324 H 0.89895 0.16248 0.44309 0.0
H1325 H 0.87304 0.18823 0.4274 0.0
H1326 H 0.9415 0.1686 0.46949 0.0
H1327 H 0.91456 0.14366 0.39167 0.0
H1328 H 0.91147 0.14859 0.34969 0.0
H1329 H 0.99245 0.16349 0.34753 0.0
H1330 H 0.99601 0.15895 0.38957 0.0
H1331 H 0.94956 0.05463 0.48519 0.0
H1332 H 0.93824 0.08788 0.46612 0.0
H1333 H 0.0169 0.11738 0.45594 0.0
H1334 H 0.02865 0.08419 0.47545 0.0
H1335 H 0.976 0.11998 0.41636 0.0
H1336 H 1.00212 0.14071 0.4946 0.0
H1337 H 1.00379 0.1342 0.53636 0.0
H1338 H 0.9232 0.12605 0.53737 0.0
H1339 H 0.92105 0.13227 0.4955 0.0
C1340 C 0.92822 0.21203 0.4021 0.0
C1341 C 0.90265 0.20869 0.40743 0.0
C1342 C 0.94311 0.19729 0.41121 0.0
C1343 C 0.93262 0.17906 0.42577 0.0
C1344 C 0.90742 0.17639 0.43184 0.0
C1345 C 0.89259 0.19101 0.42275 0.0
C1346 C 0.94723 0.16201 0.43415 0.0
C1347 C 0.94911 0.15806 0.45785 0.0
C1348 C 0.9577 0.14856 0.419 0.0
C1349 C 0.95555 0.15128 0.39377 0.0
C1350 C 0.9317 0.14819 0.38226 0.0
C1351 C 0.92987 0.15088 0.35846 0.0
C1352 C 0.95175 0.15644 0.34596 0.0
C1353 C 0.97551 0.15925 0.35724 0.0
C1354 C 0.97745 0.15662 0.38105 0.0
C1355 C 0.9645 0.06789 0.47851 0.0
C1356 C 0.99004 0.06682 0.48201 0.0
C1357 C 0.95797 0.0869 0.46766 0.0
C1358 C 0.97677 0.10506 0.45987 0.0
C1359 C 1.00217 0.10346 0.4619 0.0
C1360 C 0.00881 0.08451 0.47306 0.0
C1361 C 0.9696 0.12639 0.45153 0.0
C1362 C 0.96902 0.13102 0.42795 0.0
C1363 C 0.96024 0.14047 0.46673 0.0
C1364 C 0.96141 0.13678 0.4919 0.0
C1365 C 0.98473 0.13732 0.50369 0.0
C1366 C 0.98577 0.13373 0.5274 0.0
C1367 C 0.9636 0.12966 0.53952 0.0
C1368 C 0.94035 0.1292 0.52795 0.0
C1369 C 0.93922 0.1328 0.50424 0.0
H1370 H 0.96441 0.12691 0.55787 0.0
H1371 H 0.95029 0.1585 0.32753 0.0
H1372 H 0.27642 0.61969 0.12144 0.0
H1373 H 0.23843 0.60102 0.09925 0.0
H1374 H 0.19285 0.60692 0.15637 0.0
H1375 H 0.23044 0.62704 0.17836 0.0
H1376 H 0.18487 0.5595 0.12891 0.0
H1377 H 0.18733 0.64209 0.12283 0.0
H1378 H 0.20885 0.68217 0.11466 0.0
H1379 H 0.22258 0.66298 0.04655 0.0
H1380 H 0.20147 0.62269 0.05447 0.0
H1381 H 0.06036 0.53879 0.07673 0.0
H1382 H 0.10018 0.55018 0.09936 0.0
H1383 H 0.13926 0.57275 0.03761 0.0
H1384 H 0.09936 0.56176 1.01503 0.0
H1385 H 0.15195 0.60485 0.06738 0.0
H1386 H 0.15419 0.52502 0.07028 0.0
H1387 H 0.13928 0.48319 0.07588 0.0
H1388 H 0.12068 0.49446 0.14485 0.0
H1389 H 0.13628 0.53638 0.13989 0.0
C1390 C 0.25838 0.61739 0.12935 0.0
C1391 C 0.25677 0.62529 0.1518 0.0
C1392 C 0.23667 0.60639 0.11664 0.0
C1393 C 0.21286 0.60256 0.12618 0.0
C1394 C 0.21111 0.60957 0.14877 0.0
C1395 C 0.23275 0.621 0.16137 0.0
C1396 C 0.18971 0.59244 0.11204 0.0
C1397 C 0.17738 0.56945 0.11567 0.0
C1398 C 0.18063 0.60513 0.09415 0.0
C1399 C 0.1931 0.62936 0.08933 0.0
C1400 C 0.19517 0.64638 0.1062 0.0
C1401 C 0.20724 0.66914 0.1016 0.0
C1402 C 0.21715 0.6751 0.08013 0.0
C1403 C 0.21494 0.65833 0.06319 0.0
C1404 C 0.20291 0.63554 0.06772 0.0
C1405 C 0.07753 0.54584 0.06795 0.0
C1406 C 0.07671 0.54953 0.04411 0.0
C1407 C 0.10037 0.55224 0.0809 0.0
C1408 C 0.12292 0.56229 0.07027 0.0
C1409 C 0.1222 0.56514 0.0463 0.0
C1410 C 0.09937 0.55882 0.03338 0.0
C1411 C 0.14665 0.57174 0.08423 0.0
C1412 C 0.15922 0.59472 0.08059 0.0
C1413 C 0.15629 0.55882 0.10171 0.0
C1414 C 0.14605 0.53381 0.10461 0.0
C1415 C 0.14667 0.51858 0.08656 0.0
C1416 C 0.13816 0.49486 0.08963 0.0
C1417 C 0.12866 0.48618 0.11057 0.0
C1418 C 0.12793 0.50121 0.12859 0.0
C1419 C 0.13676 0.52494 0.12572 0.0
H1420 H 0.12209 0.46782 0.11291 0.0
H1421 H 0.22649 0.69273 0.07659 0.0
H1422 H 0.28764 0.39026 0.66765 0.0
H1423 H 0.3231 0.40851 0.64532 0.0
H1424 H 0.28836 0.46618 0.63146 0.0
H1425 H 0.25135 0.44686 0.65187 0.0
H1426 H 0.30862 0.45956 0.5953 0.0
H1427 H 0.3419 0.46662 0.67214 0.0
H1428 H 0.35164 0.45442 0.71145 0.0
H1429 H 0.39521 0.40924 0.68497 0.0
H1430 H 0.38546 0.42093 0.64547 0.0
H1431 H 0.42769 0.52761 0.55716 0.0
H1432 H 0.39012 0.51308 0.57937 0.0
H1433 H 0.40689 0.44554 0.58101 0.0
H1434 H 0.44417 0.45978 0.55869 0.0
H1435 H 0.3963 0.46086 0.62435 0.0
H1436 H 0.35998 0.45537 0.54632 0.0
H1437 H 0.35167 0.47171 0.50841 0.0
H1438 H 0.31544 0.51987 0.54008 0.0
H1439 H 0.32381 0.50398 0.57822 0.0
C1440 C 0.28707 0.40662 0.65959 0.0
C1441 C 0.2661 0.4168 0.66172 0.0
C1442 C 0.30787 0.41738 0.64709 0.0
C1443 C 0.30901 0.43915 0.63696 0.0
C1444 C 0.28825 0.44949 0.63911 0.0
C1445 C 0.26709 0.43846 0.65118 0.0
C1446 C 0.33156 0.45072 0.62378 0.0
C1447 C 0.32775 0.46012 0.60195 0.0
C1448 C 0.3568 0.4516 0.63209 0.0
C1449 C 0.36276 0.44452 0.65582 0.0
C1450 C 0.35342 0.45396 0.67469 0.0
C1451 C 0.35896 0.44715 0.697 0.0
C1452 C 0.37399 0.43103 0.7007 0.0
C1453 C 0.38356 0.42171 0.68208 0.0
C1454 C 0.37805 0.42845 0.65973 0.0
C1455 C 0.42329 0.50962 0.56208 0.0
C1456 C 0.439 0.49488 0.55599 0.0
C1457 C 0.40176 0.50133 0.57479 0.0
C1458 C 0.39559 0.47816 0.58189 0.0
C1459 C 0.41122 0.46346 0.57579 0.0
C1460 C 0.4325 0.47164 0.56287 0.0
C1461 C 0.37316 0.46917 0.59598 0.0
C1462 C 0.37709 0.46033 0.61794 0.0
C1463 C 0.34815 0.46938 0.58806 0.0
C1464 C 0.34271 0.47862 0.56512 0.0
C1465 C 0.35037 0.46953 0.5452 0.0
C1466 C 0.34563 0.4787 0.52368 0.0
C1467 C 0.33309 0.49685 0.52184 0.0
C1468 C 0.32517 0.50582 0.54153 0.0
C1469 C 0.32988 0.49672 0.5631 0.0
H1470 H 0.32947 0.50394 0.50517 0.0
H1471 H 0.37826 0.42578 0.71799 0.0
H1472 H 0.78037 0.74809 0.94899 0.0
H1473 H 0.80899 0.72804 0.9702 0.0
H1474 H 0.77758 0.66616 0.93185 0.0
H1475 H 0.74788 0.68565 0.91155 0.0
H1476 H 0.78922 0.65524 0.97427 0.0
H1477 H 0.83138 0.70561 0.91546 0.0
H1478 H 0.84569 0.74288 0.8959 0.0
H1479 H 0.88692 0.77095 0.95733 0.0
H1480 H 0.87257 0.7339 0.97733 0.0
H1481 H 0.88994 0.59974 0.96174 0.0
H1482 H 0.85552 0.62017 0.95815 0.0
H1483 H 0.89625 0.67207 1.00507 0.0
H1484 H 0.93109 0.65179 1.00844 0.0
H1485 H 0.88008 0.69044 0.96569 0.0
H1486 H 0.84318 0.6359 1.02171 0.0
H1487 H 0.82969 0.59739 0.03898 0.0
H1488 H 0.77926 0.5757 0.98071 0.0
H1489 H 0.7927 0.61398 0.96292 0.0
C1490 C 0.77902 0.73003 0.94551 0.0
C1491 C 0.76204 0.71858 0.92828 0.0
C1492 C 0.79561 0.71865 0.9575 0.0
C1493 C 0.79585 0.69576 0.95223 0.0
C1494 C 0.77789 0.68388 0.93609 0.0
C1495 C 0.76111 0.69515 0.92429 0.0
C1496 C 0.816 0.68465 0.96199 0.0
C1497 C 0.80909 0.6629 0.97238 0.0
C1498 C 0.84197 0.69487 0.95998 0.0
C1499 C 0.85066 0.71711 0.94796 0.0
C1500 C 0.84335 0.71979 0.92483 0.0
C1501 C 0.85148 0.74086 0.91366 0.0
C1502 C 0.86713 0.75929 0.92538 0.0
C1503 C 0.87474 0.75667 0.94829 0.0
C1504 C 0.86662 0.73565 0.95955 0.0
C1505 C 0.89152 0.61545 0.97138 0.0
C1506 C 0.91327 0.62428 0.98523 0.0
C1507 C 0.87172 0.62697 0.96951 0.0
C1508 C 0.87322 0.64752 0.98152 0.0
C1509 C 0.89468 0.65615 0.99578 0.0
C1510 C 0.91448 0.64453 0.99775 0.0
C1511 C 0.85329 0.66082 0.97752 0.0
C1512 C 0.86025 0.68298 0.96813 0.0
C1513 C 0.82741 0.65083 0.98018 0.0
C1514 C 0.81907 0.62781 0.99092 0.0
C1515 C 0.82933 0.62288 1.0125 0.0
C1516 C 0.82167 0.60109 1.0224 0.0
C1517 C 0.80365 0.5841 1.01094 0.0
C1518 C 0.79321 0.58888 0.98958 0.0
C1519 C 0.80082 0.61064 0.97959 0.0
H1520 H 0.79776 0.56724 1.01862 0.0
H1521 H 0.87342 0.77559 0.91671 0.0
H1522 H 0.4107 0.82196 0.18527 0.0
H1523 H 0.42569 0.85842 0.16535 0.0
H1524 H 0.45409 0.82258 0.11226 0.0
H1525 H 0.44063 0.78636 0.13273 0.0
H1526 H 0.48625 0.85971 0.11971 0.0
H1527 H 0.39673 0.84282 0.10605 0.0
H1528 H 0.35193 0.8333 0.11601 0.0
H1529 H 0.36264 0.89631 0.15384 0.0
H1530 H 0.4076 0.90607 0.14435 0.0
H1531 H 0.46381 0.96299 0.04291 0.0
H1532 H 0.44653 0.92642 0.06235 0.0
H1533 H 0.50803 0.94118 0.11326 0.0
H1534 H 0.52524 0.97748 0.09385 0.0
H1535 H 0.42936 0.91357 0.10401 0.0
H1536 H 0.52709 0.89258 0.12853 0.0
H1537 H 0.56993 0.89974 0.11359 0.0
H1538 H 0.53942 0.9081 0.0456 0.0
H1539 H 0.49636 0.90065 0.06007 0.0
C1540 C 0.42048 0.8218 0.16955 0.0
C1541 C 0.42419 0.80093 0.16066 0.0
C1542 C 0.42875 0.84274 0.15793 0.0
C1543 C 0.44065 0.84341 0.13693 0.0
C1544 C 0.44486 0.8227 0.1283 0.0
C1545 C 0.43684 0.80183 0.13999 0.0
C1546 C 0.44892 0.86558 0.12399 0.0
C1547 C 0.47375 0.87144 0.11638 0.0
C1548 C 0.4326 0.88085 0.11895 0.0
C1549 C 0.40558 0.87506 0.12468 0.0
C1550 C 0.38957 0.85457 0.11663 0.0
C1551 C 0.36415 0.84914 0.12217 0.0
C1552 C 0.35447 0.86416 0.1356 0.0
C1553 C 0.37018 0.88468 0.14347 0.0
C1554 C 0.39563 0.89017 0.138 0.0
C1555 C 0.4733 0.95862 0.05849 0.0
C1556 C 0.49574 0.97323 0.06695 0.0
C1557 C 0.46351 0.93763 0.06955 0.0
C1558 C 0.47608 0.93079 0.08921 0.0
C1559 C 0.49813 0.94576 0.09796 0.0
C1560 C 0.50791 0.96661 0.08689 0.0
C1561 C 0.46678 0.90781 0.10027 0.0
C1562 C 0.44182 0.90181 0.10746 0.0
C1563 C 0.48272 0.89206 0.10433 0.0
C1564 C 0.50853 0.89627 0.09544 0.0
C1565 C 0.52951 0.89584 0.11038 0.0
C1566 C 0.55383 0.89997 0.10199 0.0
C1567 C 0.5574 0.90444 0.07868 0.0
C1568 C 0.53663 0.90471 0.06367 0.0
C1569 C 0.51228 0.90056 0.07196 0.0
H1570 H 0.57624 0.90765 0.07223 0.0
H1571 H 0.33478 0.85994 0.13986 0.0
H1572 H 0.06455 0.25369 0.6529 0.0
H1573 H 0.04794 0.2173 0.63293 0.0
H1574 H 0.11112 0.1907 0.66006 0.0
H1575 H 0.12749 0.22666 0.68067 0.0
H1576 H 0.1021 0.18178 0.61378 0.0
H1577 H 0.05351 0.1725 0.68156 0.0
H1578 H 0.02554 0.18354 0.70946 0.0
H1579 H 0.96809 0.18285 0.65617 0.0
H1580 H 0.99587 0.17211 0.62787 0.0
H1581 H 0.05295 0.06415 0.5799 0.0
H1582 H 0.07109 0.09976 0.6012 0.0
H1583 H 1.00463 0.12584 0.58281 0.0
H1584 H 0.98647 0.09039 0.56194 0.0
H1585 H 0.01614 0.13475 0.6255 0.0
H1586 H 0.06313 0.14588 0.55747 0.0
H1587 H 0.09054 0.1371 0.52783 0.0
H1588 H 0.14978 0.13614 0.579 0.0
H1589 H 0.12262 0.14471 0.60901 0.0
C1590 C 0.07478 0.24004 0.65501 0.0
C1591 C 0.09752 0.24343 0.66853 0.0
C1592 C 0.06528 0.21918 0.6434 0.0
C1593 C 0.07821 0.20109 0.64493 0.0
C1594 C 0.10083 0.20436 0.6584 0.0
C1595 C 0.11024 0.22511 0.67015 0.0
C1596 C 0.06825 0.17882 0.63246 0.0
C1597 C 0.08344 0.17132 0.6166 0.0
C1598 C 0.04363 0.16537 0.63556 0.0
C1599 C 0.02687 0.17172 0.65256 0.0
C1600 C 0.03499 0.17488 0.67576 0.0
C1601 C 0.01916 0.18105 0.69165 0.0
C1602 C 0.99508 0.18395 0.68458 0.0
C1603 C 0.98676 0.18063 0.66161 0.0
C1604 C 1.00253 0.17448 0.64565 0.0
C1605 C 0.0423 0.07755 0.58036 0.0
C1606 C 0.01825 0.07441 0.5692 0.0
C1607 C 0.05272 0.09799 0.59248 0.0
C1608 C 0.03938 0.11579 0.59358 0.0
C1609 C 0.01538 0.11252 0.58238 0.0
C1610 C 1.00502 0.0922 0.57034 0.0
C1611 C 0.04994 0.13765 0.60665 0.0
C1612 C 0.03486 0.14511 0.62267 0.0
C1613 C 0.07452 0.15121 0.60344 0.0
C1614 C 0.09075 0.14569 0.58552 0.0
C1615 C 0.08192 0.14359 0.56244 0.0
C1616 C 0.09744 0.13872 0.54556 0.0
C1617 C 0.12188 0.13603 0.55154 0.0
C1618 C 0.13084 0.13821 0.57441 0.0
C1619 C 0.11541 0.1431 0.59135 0.0
H1620 H 0.13388 0.1323 0.53845 0.0
H1621 H 0.98285 0.18873 0.69691 0.0
H1622 H 0.77517 0.38343 0.38835 0.0
H1623 H 0.74313 0.40358 0.40065 0.0
H1624 H 0.70054 0.34003 0.42828 0.0
H1625 H 0.7321 0.3198 0.4158 0.0
H1626 H 0.67132 0.36234 0.40051 0.0
H1627 H 0.73325 0.38077 0.46342 0.0
H1628 H 0.77559 0.39641 0.4811 0.0
H1629 H 0.77386 0.46328 0.45337 0.0
H1630 H 0.73162 0.44795 0.43524 0.0
H1631 H 0.58337 0.39528 0.47029 0.0
H1632 H 0.61805 0.38077 0.45515 0.0
H1633 H 0.65321 0.44928 0.43319 0.0
H1634 H 0.61847 0.46406 0.44848 0.0
H1635 H 0.68726 0.42787 0.4548 0.0
H1636 H 0.62459 0.41068 0.39411 0.0
H1637 H 0.58227 0.3956 0.37613 0.0
H1638 H 0.58554 0.32725 0.39854 0.0
H1639 H 0.62774 0.34197 0.41696 0.0
C1640 C 0.75904 0.37382 0.39717 0.0
C1641 C 0.75622 0.35005 0.40119 0.0
C1642 C 0.74084 0.38536 0.40427 0.0
C1643 C 0.71951 0.37328 0.4154 0.0
C1644 C 0.71687 0.34966 0.41972 0.0
C1645 C 0.73507 0.33818 0.41278 0.0
C1646 C 0.69931 0.38489 0.42185 0.0
C1647 C 0.67474 0.37653 0.41255 0.0
C1648 C 0.70402 0.40393 0.43689 0.0
C1649 C 0.72942 0.41314 0.44773 0.0
C1650 C 0.742 0.39875 0.46089 0.0
C1651 C 0.76596 0.40758 0.47104 0.0
C1652 C 0.77745 0.43081 0.46829 0.0
C1653 C 0.76496 0.44528 0.45544 0.0
C1654 C 0.74101 0.43653 0.44524 0.0
C1655 C 0.59831 0.40725 0.46201 0.0
C1656 C 0.5981 0.4308 0.46046 0.0
C1657 C 0.61816 0.39894 0.45341 0.0
C1658 C 0.6381 0.41394 0.44289 0.0
C1659 C 0.63805 0.43748 0.44137 0.0
C1660 C 0.61821 0.44586 0.45008 0.0
C1661 C 0.65915 0.40494 0.43389 0.0
C1662 C 0.68387 0.41382 0.44261 0.0
C1663 C 0.65464 0.38644 0.41819 0.0
C1664 C 0.62926 0.37747 0.40708 0.0
C1665 C 0.61621 0.39246 0.39537 0.0
C1666 C 0.59225 0.38397 0.38507 0.0
C1667 C 0.5812 0.36049 0.38623 0.0
C1668 C 0.59412 0.34544 0.39766 0.0
C1669 C 0.61807 0.35384 0.40802 0.0
H1670 H 0.56266 0.35396 0.37824 0.0
H1671 H 0.79599 0.43761 0.47618 0.0
loop_
_geom_bond_atom_site_label_1
_geom_bond_atom_site_label_2
_geom_bond_distance
_geom_bond_site_symmetry_2
_ccdc_geom_bond_type
C0 C1 1.386 . S
C0 C2 1.397 . S
C0 H24 0.931 . S
C1 C0 1.386 . S
C1 C5 1.397 . S
C2 C0 1.397 . S
C2 C3 1.384 . S
C2 H25 0.930 . S
C3 C2 1.384 . S
C3 C4 1.377 . S
C3 C6 1.481 . S
C4 C3 1.377 . S
C4 C5 1.389 . S
C4 H26 0.929 . S
C5 C1 1.397 . S
C5 C4 1.389 . S
C5 H27 0.931 . S
C6 C3 1.481 . S
C6 C7 1.387 . S
C6 C11 1.390 . S
C7 C6 1.387 . S
C7 C8 1.401 . S
C7 H28 0.930 . S
C8 C7 1.401 . S
C8 C9 1.376 . S
C8 C17 1.511 . S
C9 C8 1.376 . S
C9 C10 1.392 . S
C9 H30 0.931 . S
C10 C9 1.392 . S
C10 C11 1.361 . S
C10 C12 1.500 . S
C11 C6 1.390 . S
C11 C10 1.361 . S
C11 H29 0.931 . S
C12 C10 1.500 . S
C12 C13 1.371 . S
C12 C14 1.365 . S
C13 C12 1.371 . S
C13 C23 1.386 . S
C13 H31 0.931 . S
C14 C12 1.365 . S
C14 C15 1.409 . S
C14 H32 0.929 . S
C15 C14 1.409 . S
C15 C16 1.380 . S
C15 H33 0.930 . S
C16 C15 1.380 . S
C16 C23 1.357 . S
C17 C8 1.511 . S
C17 C18 1.341 . S
C17 C19 1.371 . S
C18 C17 1.341 . S
C18 C22 1.394 . S
C18 H34 0.930 . S
C19 C17 1.371 . S
C19 C20 1.392 . S
C19 H35 0.931 . S
C20 C19 1.392 . S
C20 C21 1.331 . S
C20 H38 0.932 . S
C21 C20 1.331 . S
C21 C22 1.336 . S
C22 C18 1.394 . S
C22 C21 1.336 . S
C22 H37 0.929 . S
C23 C13 1.386 . S
C23 C16 1.357 . S
C23 H36 0.928 . S
H24 C0 0.931 . S
H25 C2 0.930 . S
H26 C4 0.929 . S
H27 C5 0.931 . S
H28 C7 0.930 . S
H29 C11 0.931 . S
H30 C9 0.931 . S
H31 C13 0.931 . S
H32 C14 0.929 . S
H33 C15 0.930 . S
H34 C18 0.930 . S
H35 C19 0.931 . S
H36 C23 0.928 . S
H37 C22 0.929 . S
H38 C20 0.932 . S
C39 C40 1.386 . S
C39 C41 1.397 . S
C39 H63 0.931 . S
C40 C39 1.386 . S
C40 C44 1.397 . S
C41 C39 1.397 . S
C41 C42 1.384 . S
C41 H64 0.930 . S
C42 C41 1.384 . S
C42 C43 1.377 . S
C42 C45 1.481 . S
C43 C42 1.377 . S
C43 C44 1.389 . S
C43 H65 0.929 . S
C44 C40 1.397 . S
C44 C43 1.389 . S
C44 H66 0.931 . S
C45 C42 1.481 . S
C45 C46 1.387 . S
C45 C50 1.390 . S
C46 C45 1.387 . S
C46 C47 1.401 . S
C46 H67 0.930 . S
C47 C46 1.401 . S
C47 C48 1.376 . S
C47 C56 1.511 . S
C48 C47 1.376 . S
C48 C49 1.392 . S
C48 H69 0.931 . S
C49 C48 1.392 . S
C49 C50 1.361 . S
C49 C51 1.500 . S
C50 C45 1.390 . S
C50 C49 1.361 . S
C50 H68 0.931 . S
C51 C49 1.500 . S
C51 C52 1.371 . S
C51 C53 1.365 . S
C52 C51 1.371 . S
C52 C62 1.386 . S
C52 H70 0.931 . S
C53 C51 1.365 . S
C53 C54 1.409 . S
C53 H71 0.929 . S
C54 C53 1.409 . S
C54 C55 1.380 . S
C54 H72 0.930 . S
C55 C54 1.380 . S
C55 C62 1.357 . S
C56 C47 1.511 . S
C56 C57 1.341 . S
C56 C58 1.371 . S
C57 C56 1.341 . S
C57 C61 1.394 . S
C57 H73 0.930 . S
C58 C56 1.371 . S
C58 C59 1.392 . S
C58 H74 0.931 . S
C59 C58 1.392 . S
C59 C60 1.331 . S
C59 H77 0.932 . S
C60 C59 1.331 . S
C60 C61 1.336 . S
C61 C57 1.394 . S
C61 C60 1.336 . S
C61 H76 0.929 . S
C62 C52 1.386 . S
C62 C55 1.357 . S
C62 H75 0.928 . S
H63 C39 0.931 . S
H64 C41 0.930 . S
H65 C43 0.929 . S
H66 C44 0.931 . S
H67 C46 0.930 . S
H68 C50 0.931 . S
H69 C48 0.931 . S
H70 C52 0.931 . S
H71 C53 0.929 . S
H72 C54 0.930 . S
H73 C57 0.930 . S
H74 C58 0.931 . S
H75 C62 0.928 . S
H76 C61 0.929 . S
H77 C59 0.932 . S
C78 C79 1.386 . S
C78 C80 1.397 . S
C78 H102 0.931 . S
C79 C78 1.386 . S
C79 C83 1.397 . S
C80 C78 1.397 . S
C80 C81 1.384 . S
C80 H103 0.930 . S
C81 C80 1.384 . S
C81 C82 1.377 . S
C81 C84 1.481 . S
C82 C81 1.377 . S
C82 C83 1.389 . S
C82 H104 0.929 . S
C83 C79 1.397 . S
C83 C82 1.389 . S
C83 H105 0.931 . S
C84 C81 1.481 . S
C84 C85 1.387 . S
C84 C89 1.390 . S
C85 C84 1.387 . S
C85 C86 1.401 . S
C85 H106 0.930 . S
C86 C85 1.401 . S
C86 C87 1.376 . S
C86 C95 1.511 . S
C87 C86 1.376 . S
C87 C88 1.392 . S
C87 H108 0.931 . S
C88 C87 1.392 . S
C88 C89 1.361 . S
C88 C90 1.500 . S
C89 C84 1.390 . S
C89 C88 1.361 . S
C89 H107 0.931 . S
C90 C88 1.500 . S
C90 C91 1.371 . S
C90 C92 1.365 . S
C91 C90 1.371 . S
C91 C101 1.386 . S
C91 H109 0.931 . S
C92 C90 1.365 . S
C92 C93 1.409 . S
C92 H110 0.929 . S
C93 C92 1.409 . S
C93 C94 1.380 . S
C93 H111 0.930 . S
C94 C93 1.380 . S
C94 C101 1.357 . S
C95 C86 1.511 . S
C95 C96 1.341 . S
C95 C97 1.371 . S
C96 C95 1.341 . S
C96 C100 1.394 . S
C96 H112 0.930 . S
C97 C95 1.371 . S
C97 C98 1.392 . S
C97 H113 0.931 . S
C98 C97 1.392 . S
C98 C99 1.331 . S
C98 H116 0.932 . S
C99 C98 1.331 . S
C99 C100 1.336 . S
C100 C96 1.394 . S
C100 C99 1.336 . S
C100 H115 0.929 . S
C101 C91 1.386 . S
C101 C94 1.357 . S
C101 H114 0.928 . S
H102 C78 0.931 . S
H103 C80 0.930 . S
H104 C82 0.929 . S
H105 C83 0.931 . S
H106 C85 0.930 . S
H107 C89 0.931 . S
H108 C87 0.931 . S
H109 C91 0.931 . S
H110 C92 0.929 . S
H111 C93 0.930 . S
H112 C96 0.930 . S
H113 C97 0.931 . S
H114 C101 0.928 . S
H115 C100 0.929 . S
H116 C98 0.932 . S
C117 C118 1.386 . S
C117 C119 1.397 . S
C117 H141 0.931 . S
C118 C117 1.386 . S
C118 C122 1.397 . S
C119 C117 1.397 . S
C119 C120 1.384 . S
C119 H142 0.930 . S
C120 C119 1.384 . S
C120 C121 1.377 . S
C120 C123 1.481 . S
C121 C120 1.377 . S
C121 C122 1.389 . S
C121 H143 0.929 . S
C122 C118 1.397 . S
C122 C121 1.389 . S
C122 H144 0.931 . S
C123 C120 1.481 . S
C123 C124 1.387 . S
C123 C128 1.390 . S
C124 C123 1.387 . S
C124 C125 1.401 . S
C124 H145 0.930 . S
C125 C124 1.401 . S
C125 C126 1.376 . S
C125 C134 1.511 . S
C126 C125 1.376 . S
C126 C127 1.392 . S
C126 H147 0.931 . S
C127 C126 1.392 . S
C127 C128 1.361 . S
C127 C129 1.500 . S
C128 C123 1.390 . S
C128 C127 1.361 . S
C128 H146 0.931 . S
C129 C127 1.500 . S
C129 C130 1.371 . S
C129 C131 1.365 . S
C130 C129 1.371 . S
C130 C140 1.386 . S
C130 H148 0.931 . S
C131 C129 1.365 . S
C131 C132 1.409 . S
C131 H149 0.929 . S
C132 C131 1.409 . S
C132 C133 1.380 . S
C132 H150 0.930 . S
C133 C132 1.380 . S
C133 C140 1.357 . S
C134 C125 1.511 . S
C134 C135 1.341 . S
C134 C136 1.371 . S
C135 C134 1.341 . S
C135 C139 1.394 . S
C135 H151 0.930 . S
C136 C134 1.371 . S
C136 C137 1.392 . S
C136 H152 0.931 . S
C137 C136 1.392 . S
C137 C138 1.331 . S
C137 H155 0.932 . S
C138 C137 1.331 . S
C138 C139 1.336 . S
C139 C135 1.394 . S
C139 C138 1.336 . S
C139 H154 0.929 . S
C140 C130 1.386 . S
C140 C133 1.357 . S
C140 H153 0.928 . S
H141 C117 0.931 . S
H142 C119 0.930 . S
H143 C121 0.929 . S
H144 C122 0.931 . S
H145 C124 0.930 . S
H146 C128 0.931 . S
H147 C126 0.931 . S
H148 C130 0.931 . S
H149 C131 0.929 . S
H150 C132 0.930 . S
H151 C135 0.930 . S
H152 C136 0.931 . S
H153 C140 0.928 . S
H154 C139 0.929 . S
H155 C137 0.932 . S
C156 C157 1.386 . S
C156 C158 1.397 . S
C156 H180 0.931 . S
C157 C156 1.386 . S
C157 C161 1.397 . S
C158 C156 1.397 . S
C158 C159 1.384 . S
C158 H181 0.930 . S
C159 C158 1.384 . S
C159 C160 1.377 . S
C159 C162 1.481 . S
C160 C159 1.377 . S
C160 C161 1.389 . S
C160 H182 0.929 . S
C161 C157 1.397 . S
C161 C160 1.389 . S
C161 H183 0.931 . S
C162 C159 1.481 . S
C162 C163 1.387 . S
C162 C167 1.390 . S
C163 C162 1.387 . S
C163 C164 1.401 . S
C163 H184 0.930 . S
C164 C163 1.401 . S
C164 C165 1.376 . S
C164 C173 1.511 . S
C165 C164 1.376 . S
C165 C166 1.392 . S
C165 H186 0.931 . S
C166 C165 1.392 . S
C166 C167 1.361 . S
C166 C168 1.500 . S
C167 C162 1.390 . S
C167 C166 1.361 . S
C167 H185 0.931 . S
C168 C166 1.500 . S
C168 C169 1.371 . S
C168 C170 1.365 . S
C169 C168 1.371 . S
C169 C179 1.386 . S
C169 H187 0.931 . S
C170 C168 1.365 . S
C170 C171 1.409 . S
C170 H188 0.929 . S
C171 C170 1.409 . S
C171 C172 1.380 . S
C171 H189 0.930 . S
C172 C171 1.380 . S
C172 C179 1.357 . S
C173 C164 1.511 . S
C173 C174 1.341 . S
C173 C175 1.371 . S
C174 C173 1.341 . S
C174 C178 1.394 . S
C174 H190 0.930 . S
C175 C173 1.371 . S
C175 C176 1.392 . S
C175 H191 0.931 . S
C176 C175 1.392 . S
C176 C177 1.331 . S
C176 H194 0.932 . S
C177 C176 1.331 . S
C177 C178 1.336 . S
C178 C174 1.394 . S
C178 C177 1.336 . S
C178 H193 0.929 . S
C179 C169 1.386 . S
C179 C172 1.357 . S
C179 H192 0.928 . S
H180 C156 0.931 . S
H181 C158 0.930 . S
H182 C160 0.929 . S
H183 C161 0.931 . S
H184 C163 0.930 . S
H185 C167 0.931 . S
H186 C165 0.931 . S
H187 C169 0.931 . S
H188 C170 0.929 . S
H189 C171 0.930 . S
H190 C174 0.930 . S
H191 C175 0.931 . S
H192 C179 0.928 . S
H193 C178 0.929 . S
H194 C176 0.932 . S
C195 C196 1.386 . S
C195 C197 1.397 . S
C195 H219 0.931 . S
C196 C195 1.386 . S
C196 C200 1.397 . S
C197 C195 1.397 . S
C197 C198 1.384 . S
C197 H220 0.930 . S
C198 C197 1.384 . S
C198 C199 1.377 . S
C198 C201 1.481 . S
C199 C198 1.377 . S
C199 C200 1.389 . S
C199 H221 0.929 . S
C200 C196 1.397 . S
C200 C199 1.389 . S
C200 H222 0.931 . S
C201 C198 1.481 . S
C201 C202 1.387 . S
C201 C206 1.390 . S
C202 C201 1.387 . S
C202 C203 1.401 . S
C202 H223 0.930 . S
C203 C202 1.401 . S
C203 C204 1.376 . S
C203 C212 1.511 . S
C204 C203 1.376 . S
C204 C205 1.392 . S
C204 H225 0.931 . S
C205 C204 1.392 . S
C205 C206 1.361 . S
C205 C207 1.500 . S
C206 C201 1.390 . S
C206 C205 1.361 . S
C206 H224 0.931 . S
C207 C205 1.500 . S
C207 C208 1.371 . S
C207 C209 1.365 . S
C208 C207 1.371 . S
C208 C218 1.386 . S
C208 H226 0.931 . S
C209 C207 1.365 . S
C209 C210 1.409 . S
C209 H227 0.929 . S
C210 C209 1.409 . S
C210 C211 1.380 . S
C210 H228 0.930 . S
C211 C210 1.380 . S
C211 C218 1.357 . S
C212 C203 1.511 . S
C212 C213 1.341 . S
C212 C214 1.371 . S
C213 C212 1.341 . S
C213 C217 1.394 . S
C213 H229 0.930 . S
C214 C212 1.371 . S
C214 C215 1.392 . S
C214 H230 0.931 . S
C215 C214 1.392 . S
C215 C216 1.331 . S
C215 H233 0.932 . S
C216 C215 1.331 . S
C216 C217 1.336 . S
C217 C213 1.394 . S
C217 C216 1.336 . S
C217 H232 0.929 . S
C218 C208 1.386 . S
C218 C211 1.357 . S
C218 H231 0.928 . S
H219 C195 0.931 . S
H220 C197 0.930 . S
H221 C199 0.929 . S
H222 C200 0.931 . S
H223 C202 0.930 . S
H224 C206 0.931 . S
H225 C204 0.931 . S
H226 C208 0.931 . S
H227 C209 0.929 . S
H228 C210 0.930 . S
H229 C213 0.930 . S
H230 C214 0.931 . S
H231 C218 0.928 . S
H232 C217 0.929 . S
H233 C215 0.932 . S
C234 C235 1.386 . S
C234 C236 1.397 . S
C234 H258 0.931 . S
C235 C234 1.386 . S
C235 C239 1.397 . S
C236 C234 1.397 . S
C236 C237 1.384 . S
C236 H259 0.930 . S
C237 C236 1.384 . S
C237 C238 1.377 . S
C237 C240 1.481 . S
C238 C237 1.377 . S
C238 C239 1.389 . S
C238 H260 0.929 . S
C239 C235 1.397 . S
C239 C238 1.389 . S
C239 H261 0.931 . S
C240 C237 1.481 . S
C240 C241 1.387 . S
C240 C245 1.390 . S
C241 C240 1.387 . S
C241 C242 1.401 . S
C241 H262 0.930 . S
C242 C241 1.401 . S
C242 C243 1.376 . S
C242 C251 1.511 . S
C243 C242 1.376 . S
C243 C244 1.392 . S
C243 H264 0.931 . S
C244 C243 1.392 . S
C244 C245 1.361 . S
C244 C246 1.500 . S
C245 C240 1.390 . S
C245 C244 1.361 . S
C245 H263 0.931 . S
C246 C244 1.500 . S
C246 C247 1.371 . S
C246 C248 1.365 . S
C247 C246 1.371 . S
C247 C257 1.386 . S
C247 H265 0.931 . S
C248 C246 1.365 . S
C248 C249 1.409 . S
C248 H266 0.929 . S
C249 C248 1.409 . S
C249 C250 1.380 . S
C249 H267 0.930 . S
C250 C249 1.380 . S
C250 C257 1.357 . S
C251 C242 1.511 . S
C251 C252 1.341 . S
C251 C253 1.371 . S
C252 C251 1.341 . S
C252 C256 1.394 . S
C252 H268 0.930 . S
C253 C251 1.371 . S
C253 C254 1.392 . S
C253 H269 0.931 . S
C254 C253 1.392 . S
C254 C255 1.331 . S
C254 H272 0.932 . S
C255 C254 1.331 . S
C255 C256 1.336 . S
C256 C252 1.394 . S
C256 C255 1.336 . S
C256 H271 0.929 . S
C257 C247 1.386 . S
C257 C250 1.357 . S
C257 H270 0.928 . S
H258 C234 0.931 . S
H259 C236 0.930 . S
H260 C238 0.929 . S
H261 C239 0.931 . S
H262 C241 0.930 . S
H263 C245 0.931 . S
H264 C243 0.931 . S
H265 C247 0.931 . S
H266 C248 0.929 . S
H267 C249 0.930 . S
H268 C252 0.930 . S
H269 C253 0.931 . S
H270 C257 0.928 . S
H271 C256 0.929 . S
H272 C254 0.932 . S
C273 C274 1.386 . S
C273 C275 1.397 . S
C273 H297 0.931 . S
C274 C273 1.386 . S
C274 C278 1.397 . S
C275 C273 1.397 . S
C275 C276 1.384 . S
C275 H298 0.930 . S
C276 C275 1.384 . S
C276 C277 1.377 . S
C276 C279 1.481 . S
C277 C276 1.377 . S
C277 C278 1.389 . S
C277 H299 0.929 . S
C278 C274 1.397 . S
C278 C277 1.389 . S
C278 H300 0.931 . S
C279 C276 1.481 . S
C279 C280 1.387 . S
C279 C284 1.390 . S
C280 C279 1.387 . S
C280 C281 1.401 . S
C280 H301 0.930 . S
C281 C280 1.401 . S
C281 C282 1.376 . S
C281 C290 1.511 . S
C282 C281 1.376 . S
C282 C283 1.392 . S
C282 H303 0.931 . S
C283 C282 1.392 . S
C283 C284 1.361 . S
C283 C285 1.500 . S
C284 C279 1.390 . S
C284 C283 1.361 . S
C284 H302 0.931 . S
C285 C283 1.500 . S
C285 C286 1.371 . S
C285 C287 1.365 . S
C286 C285 1.371 . S
C286 C296 1.386 . S
C286 H304 0.931 . S
C287 C285 1.365 . S
C287 C288 1.409 . S
C287 H305 0.929 . S
C288 C287 1.409 . S
C288 C289 1.380 . S
C288 H306 0.930 . S
C289 C288 1.380 . S
C289 C296 1.357 . S
C290 C281 1.511 . S
C290 C291 1.341 . S
C290 C292 1.371 . S
C291 C290 1.341 . S
C291 C295 1.394 . S
C291 H307 0.930 . S
C292 C290 1.371 . S
C292 C293 1.392 . S
C292 H308 0.931 . S
C293 C292 1.392 . S
C293 C294 1.331 . S
C293 H311 0.932 . S
C294 C293 1.331 . S
C294 C295 1.336 . S
C295 C291 1.394 . S
C295 C294 1.336 . S
C295 H310 0.929 . S
C296 C286 1.386 . S
C296 C289 1.357 . S
C296 H309 0.928 . S
H297 C273 0.931 . S
H298 C275 0.930 . S
H299 C277 0.929 . S
H300 C278 0.931 . S
H301 C280 0.930 . S
H302 C284 0.931 . S
H303 C282 0.931 . S
H304 C286 0.931 . S
H305 C287 0.929 . S
H306 C288 0.930 . S
H307 C291 0.930 . S
H308 C292 0.931 . S
H309 C296 0.928 . S
H310 C295 0.929 . S
H311 C293 0.932 . S
Tb312 C314 2.811 1_545 S
Tb312 O332 2.488 1_545 S
Tb312 O333 2.441 1_545 S
Tb312 O334 2.657 1_655 S
Tb312 O335 2.406 . S
Tb312 O336 2.380 1_645 S
Tb312 O340 2.327 1_545 S
Tb312 O343 2.339 . S
Tb313 C323 2.809 . S
Tb313 O334 2.325 . S
Tb313 O337 2.341 1_545 S
Tb313 O338 2.484 . S
Tb313 O339 2.440 . S
Tb313 O340 2.658 1_445 S
Tb313 O341 2.409 1_545 S
Tb313 O342 2.378 1_455 S
C314 Tb312 2.811 1_565 S
C314 C315 1.514 . S
C314 O332 1.248 . S
C314 O333 1.266 . S
C315 C314 1.514 . S
C315 C316 1.359 . S
C315 C320 1.348 . S
C316 C315 1.359 . S
C316 C317 1.380 . S
C316 H344 0.929 . S
C317 C316 1.380 . S
C317 C318 1.347 . S
C317 H345 0.931 . S
C318 C317 1.347 . S
C318 C319 1.369 . S
C319 C318 1.369 . S
C319 C320 1.408 . S
C319 H346 0.930 . S
C320 C315 1.348 . S
C320 C319 1.408 . S
C320 H347 0.930 . S
C321 O334 1.281 . S
C321 O335 1.254 1_455 S
C322 O336 1.236 . S
C322 O337 1.266 . S
C323 Tb313 2.809 . S
C323 C324 1.514 . S
C323 O338 1.248 . S
C323 O339 1.266 . S
C324 C323 1.514 . S
C324 C325 1.359 . S
C324 C329 1.348 . S
C325 C324 1.359 . S
C325 C326 1.380 . S
C325 H348 0.929 . S
C326 C325 1.380 . S
C326 C327 1.347 . S
C326 H349 0.931 . S
C327 C326 1.347 . S
C327 C328 1.369 . S
C328 C327 1.369 . S
C328 C329 1.408 . S
C328 H350 0.930 . S
C329 C324 1.348 . S
C329 C328 1.408 . S
C329 H351 0.930 . S
C330 O340 1.281 . S
C330 O341 1.254 1_655 S
C331 O342 1.236 . S
C331 O343 1.266 . S
O332 Tb312 2.488 1_565 S
O332 C314 1.248 . S
O333 Tb312 2.441 1_565 S
O333 C314 1.266 . S
O334 Tb312 2.657 1_455 S
O334 Tb313 2.325 . S
O334 C321 1.281 . S
O335 Tb312 2.406 . S
O335 C321 1.254 1_655 S
O336 Tb312 2.380 1_465 S
O336 C322 1.236 . S
O337 Tb313 2.341 1_565 S
O337 C322 1.266 . S
O338 Tb313 2.484 . S
O338 C323 1.248 . S
O339 Tb313 2.440 . S
O339 C323 1.266 . S
O340 Tb312 2.327 1_565 S
O340 Tb313 2.658 1_665 S
O340 C330 1.281 . S
O341 Tb313 2.409 1_565 S
O341 C330 1.254 1_455 S
O342 Tb313 2.378 1_655 S
O342 C331 1.236 . S
O343 Tb312 2.339 . S
O343 C331 1.266 . S
H344 C316 0.929 . S
H345 C317 0.931 . S
H346 C319 0.930 . S
H347 C320 0.930 . S
H348 C325 0.929 . S
H349 C326 0.931 . S
H350 C328 0.930 . S
H351 C329 0.930 . S
Tb352 C354 2.809 . S
Tb352 O372 2.484 . S
Tb352 O373 2.440 . S
Tb352 O374 2.658 1_545 S
Tb352 O375 2.409 1_545 S
Tb352 O376 2.378 . S
Tb352 O380 2.325 1_554 S
Tb352 O383 2.341 1_544 S
Tb353 C363 2.809 . S
Tb353 O374 2.325 1_556 S
Tb353 O377 2.341 1_566 S
Tb353 O378 2.484 . S
Tb353 O379 2.440 . S
Tb353 O380 2.658 1_565 S
Tb353 O381 2.409 1_565 S
Tb353 O382 2.378 . S
C354 Tb352 2.809 . S
C354 C355 1.514 . S
C354 O372 1.248 . S
C354 O373 1.266 . S
C355 C354 1.514 . S
C355 C356 1.359 . S
C355 C360 1.348 . S
C356 C355 1.359 . S
C356 C357 1.380 . S
C356 H384 0.929 . S
C357 C356 1.380 . S
C357 C358 1.347 . S
C357 H385 0.931 . S
C358 C357 1.347 . S
C358 C359 1.369 . S
C359 C358 1.369 . S
C359 C360 1.408 . S
C359 H386 0.930 . S
C360 C355 1.348 . S
C360 C359 1.408 . S
C360 H387 0.930 . S
C361 O374 1.281 . S
C361 O375 1.254 . S
C362 O376 1.236 . S
C362 O377 1.266 . S
C363 Tb353 2.809 . S
C363 C364 1.514 . S
C363 O378 1.248 . S
C363 O379 1.266 . S
C364 C363 1.514 . S
C364 C365 1.359 . S
C364 C369 1.348 . S
C365 C364 1.359 . S
C365 C366 1.380 . S
C365 H388 0.929 . S
C366 C365 1.380 . S
C366 C367 1.347 . S
C366 H389 0.931 . S
C367 C366 1.347 . S
C367 C368 1.369 . S
C368 C367 1.369 . S
C368 C369 1.408 . S
C368 H390 0.930 . S
C369 C364 1.348 . S
C369 C368 1.408 . S
C369 H391 0.930 . S
C370 O380 1.281 . S
C370 O381 1.254 . S
C371 O382 1.236 . S
C371 O383 1.266 . S
O372 Tb352 2.484 . S
O372 C354 1.248 . S
O373 Tb352 2.440 . S
O373 C354 1.266 . S
O374 Tb352 2.658 1_565 S
O374 Tb353 2.325 1_554 S
O374 C361 1.281 . S
O375 Tb352 2.409 1_565 S
O375 C361 1.254 . S
O376 Tb352 2.378 . S
O376 C362 1.236 . S
O377 Tb353 2.341 1_544 S
O377 C362 1.266 . S
O378 Tb353 2.484 . S
O378 C363 1.248 . S
O379 Tb353 2.440 . S
O379 C363 1.266 . S
O380 Tb352 2.325 1_556 S
O380 Tb353 2.658 1_545 S
O380 C370 1.281 . S
O381 Tb353 2.409 1_545 S
O381 C370 1.254 . S
O382 Tb353 2.378 . S
O382 C371 1.236 . S
O383 Tb352 2.341 1_566 S
O383 C371 1.266 . S
H384 C356 0.929 . S
H385 C357 0.931 . S
H386 C359 0.930 . S
H387 C360 0.930 . S
H388 C365 0.929 . S
H389 C366 0.931 . S
H390 C368 0.930 . S
H391 C369 0.930 . S
Tb392 C394 2.809 . S
Tb392 O412 2.484 . S
Tb392 O413 2.440 . S
Tb392 O414 2.658 . S
Tb392 O415 2.409 . S
Tb392 O416 2.378 . S
Tb392 O420 2.325 . S
Tb392 O423 2.341 . S
Tb393 C403 2.809 . S
Tb393 O414 2.325 . S
Tb393 O417 2.341 . S
Tb393 O418 2.484 . S
Tb393 O419 2.440 . S
Tb393 O420 2.658 . S
Tb393 O421 2.409 . S
Tb393 O422 2.378 . S
C394 Tb392 2.809 . S
C394 C395 1.514 . S
C394 O412 1.248 . S
C394 O413 1.266 . S
C395 C394 1.514 . S
C395 C396 1.359 . S
C395 C400 1.348 . S
C396 C395 1.359 . S
C396 C397 1.380 . S
C396 H424 0.929 . S
C397 C396 1.380 . S
C397 C398 1.347 . S
C397 H425 0.931 . S
C398 C397 1.347 . S
C398 C399 1.369 . S
C399 C398 1.369 . S
C399 C400 1.408 . S
C399 H426 0.930 . S
C400 C395 1.348 . S
C400 C399 1.408 . S
C400 H427 0.930 . S
C401 O414 1.281 . S
C401 O415 1.254 . S
C402 O416 1.236 . S
C402 O417 1.266 . S
C403 Tb393 2.809 . S
C403 C404 1.514 . S
C403 O418 1.248 . S
C403 O419 1.266 . S
C404 C403 1.514 . S
C404 C405 1.359 . S
C404 C409 1.348 . S
C405 C404 1.359 . S
C405 C406 1.380 . S
C405 H428 0.929 . S
C406 C405 1.380 . S
C406 C407 1.347 . S
C406 H429 0.931 . S
C407 C406 1.347 . S
C407 C408 1.369 . S
C408 C407 1.369 . S
C408 C409 1.408 . S
C408 H430 0.930 . S
C409 C404 1.348 . S
C409 C408 1.408 . S
C409 H431 0.930 . S
C410 O420 1.281 . S
C410 O421 1.254 . S
C411 O422 1.236 . S
C411 O423 1.266 . S
O412 Tb392 2.484 . S
O412 C394 1.248 . S
O413 Tb392 2.440 . S
O413 C394 1.266 . S
O414 Tb392 2.658 . S
O414 Tb393 2.325 . S
O414 C401 1.281 . S
O415 Tb392 2.409 . S
O415 C401 1.254 . S
O416 Tb392 2.378 . S
O416 C402 1.236 . S
O417 Tb393 2.341 . S
O417 C402 1.266 . S
O418 Tb393 2.484 . S
O418 C403 1.248 . S
O419 Tb393 2.440 . S
O419 C403 1.266 . S
O420 Tb392 2.325 . S
O420 Tb393 2.658 . S
O420 C410 1.281 . S
O421 Tb393 2.409 . S
O421 C410 1.254 . S
O422 Tb393 2.378 . S
O422 C411 1.236 . S
O423 Tb392 2.341 . S
O423 C411 1.266 . S
H424 C396 0.929 . S
H425 C397 0.931 . S
H426 C399 0.930 . S
H427 C400 0.930 . S
H428 C405 0.929 . S
H429 C406 0.931 . S
H430 C408 0.930 . S
H431 C409 0.930 . S
Tb432 C434 2.832 . S
Tb432 O452 2.515 . S
Tb432 O453 2.452 . S
Tb432 O454 2.640 1_656 S
Tb432 O455 2.365 1_656 S
Tb432 O456 2.392 1_556 S
Tb432 O460 2.338 . S
Tb432 O463 2.320 1_655 S
Tb433 C443 2.809 . S
Tb433 O454 2.325 . S
Tb433 O457 2.341 1_455 S
Tb433 O458 2.484 . S
Tb433 O459 2.440 . S
Tb433 O460 2.658 1_454 S
Tb433 O461 2.432 1_455 S
Tb433 O462 2.378 1_554 S
C434 Tb432 2.832 . S
C434 C435 1.514 . S
C434 O452 1.248 . S
C434 O453 1.266 . S
C435 C434 1.514 . S
C435 C436 1.359 . S
C435 C440 1.348 . S
C436 C435 1.359 . S
C436 C437 1.380 . S
C436 H464 0.929 . S
C437 C436 1.380 . S
C437 C438 1.347 . S
C437 H465 0.931 . S
C438 C437 1.347 . S
C438 C439 1.369 . S
C439 C438 1.369 . S
C439 C440 1.408 . S
C439 H466 0.930 . S
C440 C435 1.348 . S
C440 C439 1.408 . S
C440 H467 0.930 . S
C441 O454 1.281 . S
C441 O455 1.280 . S
C442 O456 1.236 . S
C442 O457 1.266 . S
C443 Tb433 2.809 . S
C443 C444 1.514 . S
C443 O458 1.248 . S
C443 O459 1.266 . S
C444 C443 1.514 . S
C444 C445 1.359 . S
C444 C449 1.348 . S
C445 C444 1.359 . S
C445 C446 1.380 . S
C445 H468 0.929 . S
C446 C445 1.380 . S
C446 C447 1.347 . S
C446 H469 0.931 . S
C447 C446 1.347 . S
C447 C448 1.369 . S
C448 C447 1.369 . S
C448 C449 1.408 . S
C448 H470 0.930 . S
C449 C444 1.348 . S
C449 C448 1.408 . S
C449 H471 0.930 . S
C450 O460 1.281 . S
C450 O461 1.228 1_556 S
C451 O462 1.236 . S
C451 O463 1.266 . S
O452 Tb432 2.515 . S
O452 C434 1.248 . S
O453 Tb432 2.452 . S
O453 C434 1.266 . S
O454 Tb432 2.640 1_454 S
O454 Tb433 2.325 . S
O454 C441 1.281 . S
O455 Tb432 2.365 1_454 S
O455 C441 1.280 . S
O456 Tb432 2.392 1_554 S
O456 C442 1.236 . S
O457 Tb433 2.341 1_655 S
O457 C442 1.266 . S
O458 Tb433 2.484 . S
O458 C443 1.248 . S
O459 Tb433 2.440 . S
O459 C443 1.266 . S
O460 Tb432 2.338 . S
O460 Tb433 2.658 1_656 S
O460 C450 1.281 . S
O461 Tb433 2.432 1_655 S
O461 C450 1.228 1_554 S
O462 Tb433 2.378 1_556 S
O462 C451 1.236 . S
O463 Tb432 2.320 1_455 S
O463 C451 1.266 . S
H464 C436 0.929 . S
H465 C437 0.931 . S
H466 C439 0.930 . S
H467 C440 0.930 . S
H468 C445 0.929 . S
H469 C446 0.931 . S
H470 C448 0.930 . S
H471 C449 0.930 . S
H472 C490 0.951 . S
H473 C492 0.951 . S
H474 C494 0.950 . S
H475 C495 0.950 . S
H476 C497 0.950 . S
H477 C500 0.950 . S
H478 C501 0.950 . S
H479 C503 0.950 . S
H480 C504 0.950 . S
H481 C505 0.951 . S
H482 C507 0.951 . S
H483 C509 0.950 . S
H484 C510 0.950 . S
H485 C512 0.950 . S
H486 C515 0.950 . S
H487 C516 0.950 . S
H488 C518 0.950 . S
H489 C519 0.950 . S
C490 H472 0.951 . S
C490 C491 1.366 . S
C490 C492 1.388 . S
C491 C490 1.366 . S
C491 C495 1.385 . S
C492 H473 0.951 . S
C492 C490 1.388 . S
C492 C493 1.366 . S
C493 C492 1.366 . S
C493 C494 1.414 . S
C493 C496 1.499 . S
C494 H474 0.950 . S
C494 C493 1.414 . S
C494 C495 1.374 . S
C495 H475 0.950 . S
C495 C491 1.385 . S
C495 C494 1.374 . S
C496 C493 1.499 . S
C496 C497 1.373 . S
C496 C498 1.389 . S
C497 H476 0.950 . S
C497 C496 1.373 . S
C497 C513 1.377 . S
C498 C496 1.389 . S
C498 C499 1.524 . S
C498 C512 1.377 . S
C499 C498 1.524 . S
C499 C500 1.397 . S
C499 C504 1.363 . S
C500 H477 0.950 . S
C500 C499 1.397 . S
C500 C501 1.334 . S
C501 H478 0.950 . S
C501 C500 1.334 . S
C501 C502 1.287 . S
C502 C501 1.287 . S
C502 C503 1.524 . S
C502 H521 0.913 . S
C503 H479 0.950 . S
C503 C502 1.524 . S
C503 C504 1.415 . S
C504 H480 0.950 . S
C504 C499 1.363 . S
C504 C503 1.415 . S
C505 H481 0.951 . S
C505 C506 1.366 . S
C505 C507 1.388 . S
C506 C505 1.366 . S
C506 C510 1.385 . S
C507 H482 0.951 . S
C507 C505 1.388 . S
C507 C508 1.366 . S
C508 C507 1.366 . S
C508 C509 1.414 . S
C508 C511 1.499 . S
C509 H483 0.950 . S
C509 C508 1.414 . S
C509 C510 1.374 . S
C510 H484 0.950 . S
C510 C506 1.385 . S
C510 C509 1.374 . S
C511 C508 1.499 . S
C511 C512 1.373 . S
C511 C513 1.389 . S
C512 H485 0.950 . S
C512 C498 1.377 . S
C512 C511 1.373 . S
C513 C497 1.377 . S
C513 C511 1.389 . S
C513 C514 1.524 . S
C514 C513 1.524 . S
C514 C515 1.397 . S
C514 C519 1.363 . S
C515 H486 0.950 . S
C515 C514 1.397 . S
C515 C516 1.334 . S
C516 H487 0.950 . S
C516 C515 1.334 . S
C516 C517 1.287 . S
C517 C516 1.287 . S
C517 C518 1.524 . S
C517 H520 0.999 . S
C518 H488 0.950 . S
C518 C517 1.524 . S
C518 C519 1.415 . S
C519 H489 0.950 . S
C519 C514 1.363 . S
C519 C518 1.415 . S
H520 C517 0.999 . S
H521 C502 0.913 . S
H522 C540 0.951 . S
H523 C542 0.951 . S
H524 C544 0.950 . S
H525 C545 0.950 . S
H526 C547 0.950 . S
H527 C550 0.950 . S
H528 C551 0.950 . S
H529 C553 0.950 . S
H530 C554 0.950 . S
H531 C555 0.951 . S
H532 C557 0.951 . S
H533 C559 0.950 . S
H534 C560 0.950 . S
H535 C562 0.950 . S
H536 C565 0.950 . S
H537 C566 0.950 . S
H538 C568 0.950 . S
H539 C569 0.950 . S
C540 H522 0.951 . S
C540 C541 1.366 . S
C540 C542 1.388 . S
C541 C540 1.366 . S
C541 C545 1.385 . S
C542 H523 0.951 . S
C542 C540 1.388 . S
C542 C543 1.366 . S
C543 C542 1.366 . S
C543 C544 1.414 . S
C543 C546 1.499 . S
C544 H524 0.950 . S
C544 C543 1.414 . S
C544 C545 1.374 . S
C545 H525 0.950 . S
C545 C541 1.385 . S
C545 C544 1.374 . S
C546 C543 1.499 . S
C546 C547 1.373 . S
C546 C548 1.389 . S
C547 H526 0.950 . S
C547 C546 1.373 . S
C547 C563 1.377 . S
C548 C546 1.389 . S
C548 C549 1.524 . S
C548 C562 1.377 . S
C549 C548 1.524 . S
C549 C550 1.397 . S
C549 C554 1.363 . S
C550 H527 0.950 . S
C550 C549 1.397 . S
C550 C551 1.334 . S
C551 H528 0.950 . S
C551 C550 1.334 . S
C551 C552 1.287 . S
C552 C551 1.287 . S
C552 C553 1.524 . S
C552 H571 0.913 . S
C553 H529 0.950 . S
C553 C552 1.524 . S
C553 C554 1.415 . S
C554 H530 0.950 . S
C554 C549 1.363 . S
C554 C553 1.415 . S
C555 H531 0.951 . S
C555 C556 1.366 . S
C555 C557 1.388 . S
C556 C555 1.366 . S
C556 C560 1.385 . S
C557 H532 0.951 . S
C557 C555 1.388 . S
C557 C558 1.366 . S
C558 C557 1.366 . S
C558 C559 1.414 . S
C558 C561 1.499 . S
C559 H533 0.950 . S
C559 C558 1.414 . S
C559 C560 1.374 . S
C560 H534 0.950 . S
C560 C556 1.385 . S
C560 C559 1.374 . S
C561 C558 1.499 . S
C561 C562 1.373 . S
C561 C563 1.389 . S
C562 H535 0.950 . S
C562 C548 1.377 . S
C562 C561 1.373 . S
C563 C547 1.377 . S
C563 C561 1.389 . S
C563 C564 1.524 . S
C564 C563 1.524 . S
C564 C565 1.397 . S
C564 C569 1.363 . S
C565 H536 0.950 . S
C565 C564 1.397 . S
C565 C566 1.334 . S
C566 H537 0.950 . S
C566 C565 1.334 . S
C566 C567 1.287 . S
C567 C566 1.287 . S
C567 C568 1.524 . S
C567 H570 0.999 . S
C568 H538 0.950 . S
C568 C567 1.524 . S
C568 C569 1.415 . S
C569 H539 0.950 . S
C569 C564 1.363 . S
C569 C568 1.415 . S
H570 C567 0.999 . S
H571 C552 0.913 . S
H572 C590 0.951 . S
H573 C592 0.951 . S
H574 C594 0.950 . S
H575 C595 0.950 . S
H576 C597 0.950 . S
H577 C600 0.950 . S
H578 C601 0.950 . S
H579 C603 0.950 . S
H580 C604 0.950 . S
H581 C605 0.951 . S
H582 C607 0.951 . S
H583 C609 0.950 . S
H584 C610 0.950 . S
H585 C612 0.950 . S
H586 C615 0.950 . S
H587 C616 0.950 . S
H588 C618 0.950 . S
H589 C619 0.950 . S
C590 H572 0.951 . S
C590 C591 1.366 . S
C590 C592 1.388 . S
C591 C590 1.366 . S
C591 C595 1.385 . S
C592 H573 0.951 . S
C592 C590 1.388 . S
C592 C593 1.366 . S
C593 C592 1.366 . S
C593 C594 1.414 . S
C593 C596 1.499 . S
C594 H574 0.950 . S
C594 C593 1.414 . S
C594 C595 1.374 . S
C595 H575 0.950 . S
C595 C591 1.385 . S
C595 C594 1.374 . S
C596 C593 1.499 . S
C596 C597 1.373 . S
C596 C598 1.389 . S
C597 H576 0.950 . S
C597 C596 1.373 . S
C597 C613 1.377 . S
C598 C596 1.389 . S
C598 C599 1.524 . S
C598 C612 1.377 . S
C599 C598 1.524 . S
C599 C600 1.397 . S
C599 C604 1.363 . S
C600 H577 0.950 . S
C600 C599 1.397 . S
C600 C601 1.334 . S
C601 H578 0.950 . S
C601 C600 1.334 . S
C601 C602 1.287 . S
C602 C601 1.287 . S
C602 C603 1.524 . S
C602 H621 0.913 . S
C603 H579 0.950 . S
C603 C602 1.524 . S
C603 C604 1.415 . S
C604 H580 0.950 . S
C604 C599 1.363 . S
C604 C603 1.415 . S
C605 H581 0.951 . S
C605 C606 1.366 . S
C605 C607 1.388 . S
C606 C605 1.366 . S
C606 C610 1.385 . S
C607 H582 0.951 . S
C607 C605 1.388 . S
C607 C608 1.366 . S
C608 C607 1.366 . S
C608 C609 1.414 . S
C608 C611 1.499 . S
C609 H583 0.950 . S
C609 C608 1.414 . S
C609 C610 1.374 . S
C610 H584 0.950 . S
C610 C606 1.385 . S
C610 C609 1.374 . S
C611 C608 1.499 . S
C611 C612 1.373 . S
C611 C613 1.389 . S
C612 H585 0.950 . S
C612 C598 1.377 . S
C612 C611 1.373 . S
C613 C597 1.377 . S
C613 C611 1.389 . S
C613 C614 1.524 . S
C614 C613 1.524 . S
C614 C615 1.397 . S
C614 C619 1.363 . S
C615 H586 0.950 . S
C615 C614 1.397 . S
C615 C616 1.334 . S
C616 H587 0.950 . S
C616 C615 1.334 . S
C616 C617 1.287 . S
C617 C616 1.287 . S
C617 C618 1.524 . S
C617 H620 0.999 . S
C618 H588 0.950 . S
C618 C617 1.524 . S
C618 C619 1.415 . S
C619 H589 0.950 . S
C619 C614 1.363 . S
C619 C618 1.415 . S
H620 C617 0.999 . S
H621 C602 0.913 . S
H622 C640 0.951 . S
H623 C642 0.951 . S
H624 C644 0.950 . S
H625 C645 0.950 . S
H626 C647 0.950 . S
H627 C650 0.950 . S
H628 C651 0.950 . S
H629 C653 0.950 . S
H630 C654 0.950 . S
H631 C655 0.951 . S
H632 C657 0.951 . S
H633 C659 0.950 . S
H634 C660 0.950 . S
H635 C662 0.950 . S
H636 C665 0.950 . S
H637 C666 0.950 . S
H638 C668 0.950 . S
H639 C669 0.950 . S
C640 H622 0.951 . S
C640 C641 1.366 . S
C640 C642 1.388 . S
C641 C640 1.366 . S
C641 C645 1.385 . S
C642 H623 0.951 . S
C642 C640 1.388 . S
C642 C643 1.366 . S
C643 C642 1.366 . S
C643 C644 1.414 . S
C643 C646 1.499 . S
C644 H624 0.950 . S
C644 C643 1.414 . S
C644 C645 1.374 . S
C645 H625 0.950 . S
C645 C641 1.385 . S
C645 C644 1.374 . S
C646 C643 1.499 . S
C646 C647 1.373 . S
C646 C648 1.389 . S
C647 H626 0.950 . S
C647 C646 1.373 . S
C647 C663 1.377 . S
C648 C646 1.389 . S
C648 C649 1.524 . S
C648 C662 1.377 . S
C649 C648 1.524 . S
C649 C650 1.397 . S
C649 C654 1.363 . S
C650 H627 0.950 . S
C650 C649 1.397 . S
C650 C651 1.334 . S
C651 H628 0.950 . S
C651 C650 1.334 . S
C651 C652 1.287 . S
C652 C651 1.287 . S
C652 C653 1.524 . S
C652 H671 0.913 . S
C653 H629 0.950 . S
C653 C652 1.524 . S
C653 C654 1.415 . S
C654 H630 0.950 . S
C654 C649 1.363 . S
C654 C653 1.415 . S
C655 H631 0.951 . S
C655 C656 1.366 . S
C655 C657 1.388 . S
C656 C655 1.366 . S
C656 C660 1.385 . S
C657 H632 0.951 . S
C657 C655 1.388 . S
C657 C658 1.366 . S
C658 C657 1.366 . S
C658 C659 1.414 . S
C658 C661 1.499 . S
C659 H633 0.950 . S
C659 C658 1.414 . S
C659 C660 1.374 . S
C660 H634 0.950 . S
C660 C656 1.385 . S
C660 C659 1.374 . S
C661 C658 1.499 . S
C661 C662 1.373 . S
C661 C663 1.389 . S
C662 H635 0.950 . S
C662 C648 1.377 . S
C662 C661 1.373 . S
C663 C647 1.377 . S
C663 C661 1.389 . S
C663 C664 1.524 . S
C664 C663 1.524 . S
C664 C665 1.397 . S
C664 C669 1.363 . S
C665 H636 0.950 . S
C665 C664 1.397 . S
C665 C666 1.334 . S
C666 H637 0.950 . S
C666 C665 1.334 . S
C666 C667 1.287 . S
C667 C666 1.287 . S
C667 C668 1.524 . S
C667 H670 0.999 . S
C668 H638 0.950 . S
C668 C667 1.524 . S
C668 C669 1.415 . S
C669 H639 0.950 . S
C669 C664 1.363 . S
C669 C668 1.415 . S
H670 C667 0.999 . S
H671 C652 0.913 . S
H672 C690 0.951 . S
H673 C692 0.951 . S
H674 C694 0.950 . S
H675 C695 0.950 . S
H676 C697 0.950 . S
H677 C700 0.950 . S
H678 C701 0.950 . S
H679 C703 0.950 . S
H680 C704 0.950 . S
H681 C705 0.951 . S
H682 C707 0.951 . S
H683 C709 0.950 . S
H684 C710 0.950 . S
H685 C712 0.950 . S
H686 C715 0.950 . S
H687 C716 0.950 . S
H688 C718 0.950 . S
H689 C719 0.950 . S
C690 H672 0.951 . S
C690 C691 1.366 . S
C690 C692 1.388 . S
C691 C690 1.366 . S
C691 C695 1.385 . S
C692 H673 0.951 . S
C692 C690 1.388 . S
C692 C693 1.366 . S
C693 C692 1.366 . S
C693 C694 1.414 . S
C693 C696 1.499 . S
C694 H674 0.950 . S
C694 C693 1.414 . S
C694 C695 1.374 . S
C695 H675 0.950 . S
C695 C691 1.385 . S
C695 C694 1.374 . S
C696 C693 1.499 . S
C696 C697 1.373 . S
C696 C698 1.389 . S
C697 H676 0.950 . S
C697 C696 1.373 . S
C697 C713 1.377 . S
C698 C696 1.389 . S
C698 C699 1.524 . S
C698 C712 1.377 . S
C699 C698 1.524 . S
C699 C700 1.397 . S
C699 C704 1.363 . S
C700 H677 0.950 . S
C700 C699 1.397 . S
C700 C701 1.334 . S
C701 H678 0.950 . S
C701 C700 1.334 . S
C701 C702 1.287 . S
C702 C701 1.287 . S
C702 C703 1.524 . S
C702 H721 0.913 . S
C703 H679 0.950 . S
C703 C702 1.524 . S
C703 C704 1.415 . S
C704 H680 0.950 . S
C704 C699 1.363 . S
C704 C703 1.415 . S
C705 H681 0.951 . S
C705 C706 1.366 . S
C705 C707 1.388 . S
C706 C705 1.366 . S
C706 C710 1.385 . S
C707 H682 0.951 . S
C707 C705 1.388 . S
C707 C708 1.366 . S
C708 C707 1.366 . S
C708 C709 1.414 . S
C708 C711 1.499 . S
C709 H683 0.950 . S
C709 C708 1.414 . S
C709 C710 1.374 . S
C710 H684 0.950 . S
C710 C706 1.385 . S
C710 C709 1.374 . S
C711 C708 1.499 . S
C711 C712 1.373 . S
C711 C713 1.389 . S
C712 H685 0.950 . S
C712 C698 1.377 . S
C712 C711 1.373 . S
C713 C697 1.377 . S
C713 C711 1.389 . S
C713 C714 1.524 . S
C714 C713 1.524 . S
C714 C715 1.397 . S
C714 C719 1.363 . S
C715 H686 0.950 . S
C715 C714 1.397 . S
C715 C716 1.334 . S
C716 H687 0.950 . S
C716 C715 1.334 . S
C716 C717 1.287 . S
C717 C716 1.287 . S
C717 C718 1.524 . S
C717 H720 0.999 . S
C718 H688 0.950 . S
C718 C717 1.524 . S
C718 C719 1.415 . S
C719 H689 0.950 . S
C719 C714 1.363 . S
C719 C718 1.415 . S
H720 C717 0.999 . S
H721 C702 0.913 . S
H722 C740 0.951 . S
H723 C742 0.951 . S
H724 C744 0.950 . S
H725 C745 0.950 . S
H726 C747 0.950 . S
H727 C750 0.950 . S
H728 C751 0.950 . S
H729 C753 0.950 . S
H730 C754 0.950 . S
H731 C755 0.951 . S
H732 C757 0.951 . S
H733 C759 0.950 . S
H734 C760 0.950 . S
H735 C762 0.950 . S
H736 C765 0.950 . S
H737 C766 0.950 . S
H738 C768 0.950 . S
H739 C769 0.950 . S
C740 H722 0.951 . S
C740 C741 1.366 . S
C740 C742 1.388 . S
C741 C740 1.366 . S
C741 C745 1.385 . S
C742 H723 0.951 . S
C742 C740 1.388 . S
C742 C743 1.366 . S
C743 C742 1.366 . S
C743 C744 1.414 . S
C743 C746 1.499 . S
C744 H724 0.950 . S
C744 C743 1.414 . S
C744 C745 1.374 . S
C745 H725 0.950 . S
C745 C741 1.385 . S
C745 C744 1.374 . S
C746 C743 1.499 . S
C746 C747 1.373 . S
C746 C748 1.389 . S
C747 H726 0.950 . S
C747 C746 1.373 . S
C747 C763 1.377 . S
C748 C746 1.389 . S
C748 C749 1.524 . S
C748 C762 1.377 . S
C749 C748 1.524 . S
C749 C750 1.397 . S
C749 C754 1.363 . S
C750 H727 0.950 . S
C750 C749 1.397 . S
C750 C751 1.334 . S
C751 H728 0.950 . S
C751 C750 1.334 . S
C751 C752 1.287 . S
C752 C751 1.287 . S
C752 C753 1.524 . S
C752 H771 0.913 . S
C753 H729 0.950 . S
C753 C752 1.524 . S
C753 C754 1.415 . S
C754 H730 0.950 . S
C754 C749 1.363 . S
C754 C753 1.415 . S
C755 H731 0.951 . S
C755 C756 1.366 . S
C755 C757 1.388 . S
C756 C755 1.366 . S
C756 C760 1.385 . S
C757 H732 0.951 . S
C757 C755 1.388 . S
C757 C758 1.366 . S
C758 C757 1.366 . S
C758 C759 1.414 . S
C758 C761 1.499 . S
C759 H733 0.950 . S
C759 C758 1.414 . S
C759 C760 1.374 . S
C760 H734 0.950 . S
C760 C756 1.385 . S
C760 C759 1.374 . S
C761 C758 1.499 . S
C761 C762 1.373 . S
C761 C763 1.389 . S
C762 H735 0.950 . S
C762 C748 1.377 . S
C762 C761 1.373 . S
C763 C747 1.377 . S
C763 C761 1.389 . S
C763 C764 1.524 . S
C764 C763 1.524 . S
C764 C765 1.397 . S
C764 C769 1.363 . S
C765 H736 0.950 . S
C765 C764 1.397 . S
C765 C766 1.334 . S
C766 H737 0.950 . S
C766 C765 1.334 . S
C766 C767 1.287 . S
C767 C766 1.287 . S
C767 C768 1.524 . S
C767 H770 0.999 . S
C768 H738 0.950 . S
C768 C767 1.524 . S
C768 C769 1.415 . S
C769 H739 0.950 . S
C769 C764 1.363 . S
C769 C768 1.415 . S
H770 C767 0.999 . S
H771 C752 0.913 . S
H772 C790 0.951 . S
H773 C792 0.951 . S
H774 C794 0.950 . S
H775 C795 0.950 . S
H776 C797 0.950 . S
H777 C800 0.950 . S
H778 C801 0.950 . S
H779 C803 0.950 . S
H780 C804 0.950 . S
H781 C805 0.951 . S
H782 C807 0.951 . S
H783 C809 0.950 . S
H784 C810 0.950 . S
H785 C812 0.950 . S
H786 C815 0.950 . S
H787 C816 0.950 . S
H788 C818 0.950 . S
H789 C819 0.950 . S
C790 H772 0.951 . S
C790 C791 1.366 . S
C790 C792 1.388 . S
C791 C790 1.366 . S
C791 C795 1.385 . S
C792 H773 0.951 . S
C792 C790 1.388 . S
C792 C793 1.366 . S
C793 C792 1.366 . S
C793 C794 1.414 . S
C793 C796 1.499 . S
C794 H774 0.950 . S
C794 C793 1.414 . S
C794 C795 1.374 . S
C795 H775 0.950 . S
C795 C791 1.385 . S
C795 C794 1.374 . S
C796 C793 1.499 . S
C796 C797 1.373 . S
C796 C798 1.389 . S
C797 H776 0.950 . S
C797 C796 1.373 . S
C797 C813 1.377 . S
C798 C796 1.389 . S
C798 C799 1.524 . S
C798 C812 1.377 . S
C799 C798 1.524 . S
C799 C800 1.397 . S
C799 C804 1.363 . S
C800 H777 0.950 . S
C800 C799 1.397 . S
C800 C801 1.334 . S
C801 H778 0.950 . S
C801 C800 1.334 . S
C801 C802 1.287 . S
C802 C801 1.287 . S
C802 C803 1.524 . S
C802 H821 0.913 . S
C803 H779 0.950 . S
C803 C802 1.524 . S
C803 C804 1.415 . S
C804 H780 0.950 . S
C804 C799 1.363 . S
C804 C803 1.415 . S
C805 H781 0.951 . S
C805 C806 1.366 . S
C805 C807 1.388 . S
C806 C805 1.366 . S
C806 C810 1.385 . S
C807 H782 0.951 . S
C807 C805 1.388 . S
C807 C808 1.366 . S
C808 C807 1.366 . S
C808 C809 1.414 . S
C808 C811 1.499 . S
C809 H783 0.950 . S
C809 C808 1.414 . S
C809 C810 1.374 . S
C810 H784 0.950 . S
C810 C806 1.385 . S
C810 C809 1.374 . S
C811 C808 1.499 . S
C811 C812 1.373 . S
C811 C813 1.389 . S
C812 H785 0.950 . S
C812 C798 1.377 . S
C812 C811 1.373 . S
C813 C797 1.377 . S
C813 C811 1.389 . S
C813 C814 1.524 . S
C814 C813 1.524 . S
C814 C815 1.397 . S
C814 C819 1.363 . S
C815 H786 0.950 . S
C815 C814 1.397 . S
C815 C816 1.334 . S
C816 H787 0.950 . S
C816 C815 1.334 . S
C816 C817 1.287 . S
C817 C816 1.287 . S
C817 C818 1.524 . S
C817 H820 0.999 . S
C818 H788 0.950 . S
C818 C817 1.524 . S
C818 C819 1.415 . S
C819 H789 0.950 . S
C819 C814 1.363 . S
C819 C818 1.415 . S
H820 C817 0.999 . S
H821 C802 0.913 . S
H822 C840 0.951 . S
H823 C842 0.951 . S
H824 C844 0.950 . S
H825 C845 0.950 . S
H826 C847 0.950 . S
H827 C850 0.950 . S
H828 C851 0.950 . S
H829 C853 0.950 . S
H830 C854 0.950 . S
H831 C855 0.951 . S
H832 C857 0.951 . S
H833 C859 0.950 . S
H834 C860 0.950 . S
H835 C862 0.950 . S
H836 C865 0.950 . S
H837 C866 0.950 . S
H838 C868 0.950 . S
H839 C869 0.950 . S
C840 H822 0.951 . S
C840 C841 1.366 . S
C840 C842 1.388 . S
C841 C840 1.366 . S
C841 C845 1.385 . S
C842 H823 0.951 . S
C842 C840 1.388 . S
C842 C843 1.366 . S
C843 C842 1.366 . S
C843 C844 1.414 . S
C843 C846 1.499 . S
C844 H824 0.950 . S
C844 C843 1.414 . S
C844 C845 1.374 . S
C845 H825 0.950 . S
C845 C841 1.385 . S
C845 C844 1.374 . S
C846 C843 1.499 . S
C846 C847 1.373 . S
C846 C848 1.389 . S
C847 H826 0.950 . S
C847 C846 1.373 . S
C847 C863 1.377 . S
C848 C846 1.389 . S
C848 C849 1.524 . S
C848 C862 1.377 . S
C849 C848 1.524 . S
C849 C850 1.397 . S
C849 C854 1.363 . S
C850 H827 0.950 . S
C850 C849 1.397 . S
C850 C851 1.334 . S
C851 H828 0.950 . S
C851 C850 1.334 . S
C851 C852 1.287 . S
C852 C851 1.287 . S
C852 C853 1.524 . S
C852 H871 0.913 . S
C853 H829 0.950 . S
C853 C852 1.524 . S
C853 C854 1.415 . S
C854 H830 0.950 . S
C854 C849 1.363 . S
C854 C853 1.415 . S
C855 H831 0.951 . S
C855 C856 1.366 . S
C855 C857 1.388 . S
C856 C855 1.366 . S
C856 C860 1.385 . S
C857 H832 0.951 . S
C857 C855 1.388 . S
C857 C858 1.366 . S
C858 C857 1.366 . S
C858 C859 1.414 . S
C858 C861 1.499 . S
C859 H833 0.950 . S
C859 C858 1.414 . S
C859 C860 1.374 . S
C860 H834 0.950 . S
C860 C856 1.385 . S
C860 C859 1.374 . S
C861 C858 1.499 . S
C861 C862 1.373 . S
C861 C863 1.389 . S
C862 H835 0.950 . S
C862 C848 1.377 . S
C862 C861 1.373 . S
C863 C847 1.377 . S
C863 C861 1.389 . S
C863 C864 1.524 . S
C864 C863 1.524 . S
C864 C865 1.397 . S
C864 C869 1.363 . S
C865 H836 0.950 . S
C865 C864 1.397 . S
C865 C866 1.334 . S
C866 H837 0.950 . S
C866 C865 1.334 . S
C866 C867 1.287 . S
C867 C866 1.287 . S
C867 C868 1.524 . S
C867 H870 0.999 . S
C868 H838 0.950 . S
C868 C867 1.524 . S
C868 C869 1.415 . S
C869 H839 0.950 . S
C869 C864 1.363 . S
C869 C868 1.415 . S
H870 C867 0.999 . S
H871 C852 0.913 . S
H872 C890 0.951 . S
H873 C892 0.951 . S
H874 C894 0.950 . S
H875 C895 0.950 . S
H876 C897 0.950 . S
H877 C900 0.950 . S
H878 C901 0.950 . S
H879 C903 0.950 . S
H880 C904 0.950 . S
H881 C905 0.951 . S
H882 C907 0.951 . S
H883 C909 0.950 . S
H884 C910 0.950 . S
H885 C912 0.950 . S
H886 C915 0.950 . S
H887 C916 0.950 . S
H888 C918 0.950 . S
H889 C919 0.950 . S
C890 H872 0.951 . S
C890 C891 1.366 . S
C890 C892 1.388 . S
C891 C890 1.366 . S
C891 C895 1.385 . S
C892 H873 0.951 . S
C892 C890 1.388 . S
C892 C893 1.366 . S
C893 C892 1.366 . S
C893 C894 1.414 . S
C893 C896 1.499 . S
C894 H874 0.950 . S
C894 C893 1.414 . S
C894 C895 1.374 . S
C895 H875 0.950 . S
C895 C891 1.385 . S
C895 C894 1.374 . S
C896 C893 1.499 . S
C896 C897 1.373 . S
C896 C898 1.389 . S
C897 H876 0.950 . S
C897 C896 1.373 . S
C897 C913 1.377 . S
C898 C896 1.389 . S
C898 C899 1.524 . S
C898 C912 1.377 . S
C899 C898 1.524 . S
C899 C900 1.397 . S
C899 C904 1.363 . S
C900 H877 0.950 . S
C900 C899 1.397 . S
C900 C901 1.334 . S
C901 H878 0.950 . S
C901 C900 1.334 . S
C901 C902 1.287 . S
C902 C901 1.287 . S
C902 C903 1.524 . S
C902 H921 0.913 . S
C903 H879 0.950 . S
C903 C902 1.524 . S
C903 C904 1.415 . S
C904 H880 0.950 . S
C904 C899 1.363 . S
C904 C903 1.415 . S
C905 H881 0.951 . S
C905 C906 1.366 . S
C905 C907 1.388 . S
C906 C905 1.366 . S
C906 C910 1.385 . S
C907 H882 0.951 . S
C907 C905 1.388 . S
C907 C908 1.366 . S
C908 C907 1.366 . S
C908 C909 1.414 . S
C908 C911 1.499 . S
C909 H883 0.950 . S
C909 C908 1.414 . S
C909 C910 1.374 . S
C910 H884 0.950 . S
C910 C906 1.385 . S
C910 C909 1.374 . S
C911 C908 1.499 . S
C911 C912 1.373 . S
C911 C913 1.389 . S
C912 H885 0.950 . S
C912 C898 1.377 . S
C912 C911 1.373 . S
C913 C897 1.377 . S
C913 C911 1.389 . S
C913 C914 1.524 . S
C914 C913 1.524 . S
C914 C915 1.397 . S
C914 C919 1.363 . S
C915 H886 0.950 . S
C915 C914 1.397 . S
C915 C916 1.334 . S
C916 H887 0.950 . S
C916 C915 1.334 . S
C916 C917 1.287 . S
C917 C916 1.287 . S
C917 C918 1.524 . S
C917 H920 0.999 . S
C918 H888 0.950 . S
C918 C917 1.524 . S
C918 C919 1.415 . S
C919 H889 0.950 . S
C919 C914 1.363 . S
C919 C918 1.415 . S
H920 C917 0.999 . S
H921 C902 0.913 . S
H922 C940 0.951 . S
H923 C942 0.951 . S
H924 C944 0.950 . S
H925 C945 0.950 . S
H926 C947 0.950 . S
H927 C950 0.950 . S
H928 C951 0.950 . S
H929 C953 0.950 . S
H930 C954 0.950 . S
H931 C955 0.951 . S
H932 C957 0.951 . S
H933 C959 0.950 . S
H934 C960 0.950 . S
H935 C962 0.950 . S
H936 C965 0.950 . S
H937 C966 0.950 . S
H938 C968 0.950 . S
H939 C969 0.950 . S
C940 H922 0.951 . S
C940 C941 1.366 . S
C940 C942 1.388 . S
C941 C940 1.366 . S
C941 C945 1.385 . S
C942 H923 0.951 . S
C942 C940 1.388 . S
C942 C943 1.366 . S
C943 C942 1.366 . S
C943 C944 1.414 . S
C943 C946 1.499 . S
C944 H924 0.950 . S
C944 C943 1.414 . S
C944 C945 1.374 . S
C945 H925 0.950 . S
C945 C941 1.385 . S
C945 C944 1.374 . S
C946 C943 1.499 . S
C946 C947 1.373 . S
C946 C948 1.389 . S
C947 H926 0.950 . S
C947 C946 1.373 . S
C947 C963 1.377 . S
C948 C946 1.389 . S
C948 C949 1.524 . S
C948 C962 1.377 . S
C949 C948 1.524 . S
C949 C950 1.397 . S
C949 C954 1.363 . S
C950 H927 0.950 . S
C950 C949 1.397 . S
C950 C951 1.334 . S
C951 H928 0.950 . S
C951 C950 1.334 . S
C951 C952 1.287 . S
C952 C951 1.287 . S
C952 C953 1.524 . S
C952 H971 0.913 . S
C953 H929 0.950 . S
C953 C952 1.524 . S
C953 C954 1.415 . S
C954 H930 0.950 . S
C954 C949 1.363 . S
C954 C953 1.415 . S
C955 H931 0.951 . S
C955 C956 1.366 . S
C955 C957 1.388 . S
C956 C955 1.366 . S
C956 C960 1.385 . S
C957 H932 0.951 . S
C957 C955 1.388 . S
C957 C958 1.366 . S
C958 C957 1.366 . S
C958 C959 1.414 . S
C958 C961 1.499 . S
C959 H933 0.950 . S
C959 C958 1.414 . S
C959 C960 1.374 . S
C960 H934 0.950 . S
C960 C956 1.385 . S
C960 C959 1.374 . S
C961 C958 1.499 . S
C961 C962 1.373 . S
C961 C963 1.389 . S
C962 H935 0.950 . S
C962 C948 1.377 . S
C962 C961 1.373 . S
C963 C947 1.377 . S
C963 C961 1.389 . S
C963 C964 1.524 . S
C964 C963 1.524 . S
C964 C965 1.397 . S
C964 C969 1.363 . S
C965 H936 0.950 . S
C965 C964 1.397 . S
C965 C966 1.334 . S
C966 H937 0.950 . S
C966 C965 1.334 . S
C966 C967 1.287 . S
C967 C966 1.287 . S
C967 C968 1.524 . S
C967 H970 0.999 . S
C968 H938 0.950 . S
C968 C967 1.524 . S
C968 C969 1.415 . S
C969 H939 0.950 . S
C969 C964 1.363 . S
C969 C968 1.415 . S
H970 C967 0.999 . S
H971 C952 0.913 . S
H972 C990 0.951 . S
H973 C992 0.951 . S
H974 C994 0.950 . S
H975 C995 0.950 . S
H976 C997 0.950 . S
H977 C1000 0.950 . S
H978 C1001 0.950 . S
H979 C1003 0.950 . S
H980 C1004 0.950 . S
H981 C1005 0.951 . S
H982 C1007 0.951 . S
H983 C1009 0.950 . S
H984 C1010 0.950 . S
H985 C1012 0.950 . S
H986 C1015 0.950 . S
H987 C1016 0.950 . S
H988 C1018 0.950 . S
H989 C1019 0.950 . S
C990 H972 0.951 . S
C990 C991 1.366 . S
C990 C992 1.388 . S
C991 C990 1.366 . S
C991 C995 1.385 . S
C992 H973 0.951 . S
C992 C990 1.388 . S
C992 C993 1.366 . S
C993 C992 1.366 . S
C993 C994 1.414 . S
C993 C996 1.499 . S
C994 H974 0.950 . S
C994 C993 1.414 . S
C994 C995 1.374 . S
C995 H975 0.950 . S
C995 C991 1.385 . S
C995 C994 1.374 . S
C996 C993 1.499 . S
C996 C997 1.373 . S
C996 C998 1.389 . S
C997 H976 0.950 . S
C997 C996 1.373 . S
C997 C1013 1.377 . S
C998 C996 1.389 . S
C998 C999 1.524 . S
C998 C1012 1.377 . S
C999 C998 1.524 . S
C999 C1000 1.397 . S
C999 C1004 1.363 . S
C1000 H977 0.950 . S
C1000 C999 1.397 . S
C1000 C1001 1.334 . S
C1001 H978 0.950 . S
C1001 C1000 1.334 . S
C1001 C1002 1.287 . S
C1002 C1001 1.287 . S
C1002 C1003 1.524 . S
C1002 H1021 0.913 . S
C1003 H979 0.950 . S
C1003 C1002 1.524 . S
C1003 C1004 1.415 . S
C1004 H980 0.950 . S
C1004 C999 1.363 . S
C1004 C1003 1.415 . S
C1005 H981 0.951 . S
C1005 C1006 1.366 . S
C1005 C1007 1.388 . S
C1006 C1005 1.366 . S
C1006 C1010 1.385 . S
C1007 H982 0.951 . S
C1007 C1005 1.388 . S
C1007 C1008 1.366 . S
C1008 C1007 1.366 . S
C1008 C1009 1.414 . S
C1008 C1011 1.499 . S
C1009 H983 0.950 . S
C1009 C1008 1.414 . S
C1009 C1010 1.374 . S
C1010 H984 0.950 . S
C1010 C1006 1.385 . S
C1010 C1009 1.374 . S
C1011 C1008 1.499 . S
C1011 C1012 1.373 . S
C1011 C1013 1.389 . S
C1012 H985 0.950 . S
C1012 C998 1.377 . S
C1012 C1011 1.373 . S
C1013 C997 1.377 . S
C1013 C1011 1.389 . S
C1013 C1014 1.524 . S
C1014 C1013 1.524 . S
C1014 C1015 1.397 . S
C1014 C1019 1.363 . S
C1015 H986 0.950 . S
C1015 C1014 1.397 . S
C1015 C1016 1.334 . S
C1016 H987 0.950 . S
C1016 C1015 1.334 . S
C1016 C1017 1.287 . S
C1017 C1016 1.287 . S
C1017 C1018 1.524 . S
C1017 H1020 0.999 . S
C1018 H988 0.950 . S
C1018 C1017 1.524 . S
C1018 C1019 1.415 . S
C1019 H989 0.950 . S
C1019 C1014 1.363 . S
C1019 C1018 1.415 . S
H1020 C1017 0.999 . S
H1021 C1002 0.913 . S
H1022 C1040 0.951 . S
H1023 C1042 0.951 . S
H1024 C1044 0.950 . S
H1025 C1045 0.950 . S
H1026 C1047 0.950 . S
H1027 C1050 0.950 . S
H1028 C1051 0.950 . S
H1029 C1053 0.950 . S
H1030 C1054 0.950 . S
H1031 C1055 0.951 . S
H1032 C1057 0.951 . S
H1033 C1059 0.950 . S
H1034 C1060 0.950 . S
H1035 C1062 0.950 . S
H1036 C1065 0.950 . S
H1037 C1066 0.950 . S
H1038 C1068 0.950 . S
H1039 C1069 0.950 . S
C1040 H1022 0.951 . S
C1040 C1041 1.366 . S
C1040 C1042 1.388 . S
C1041 C1040 1.366 . S
C1041 C1045 1.385 . S
C1042 H1023 0.951 . S
C1042 C1040 1.388 . S
C1042 C1043 1.366 . S
C1043 C1042 1.366 . S
C1043 C1044 1.414 . S
C1043 C1046 1.499 . S
C1044 H1024 0.950 . S
C1044 C1043 1.414 . S
C1044 C1045 1.374 . S
C1045 H1025 0.950 . S
C1045 C1041 1.385 . S
C1045 C1044 1.374 . S
C1046 C1043 1.499 . S
C1046 C1047 1.373 . S
C1046 C1048 1.389 . S
C1047 H1026 0.950 . S
C1047 C1046 1.373 . S
C1047 C1063 1.377 . S
C1048 C1046 1.389 . S
C1048 C1049 1.524 . S
C1048 C1062 1.377 . S
C1049 C1048 1.524 . S
C1049 C1050 1.397 . S
C1049 C1054 1.363 . S
C1050 H1027 0.950 . S
C1050 C1049 1.397 . S
C1050 C1051 1.334 . S
C1051 H1028 0.950 . S
C1051 C1050 1.334 . S
C1051 C1052 1.287 . S
C1052 C1051 1.287 . S
C1052 C1053 1.524 . S
C1052 H1071 0.913 . S
C1053 H1029 0.950 . S
C1053 C1052 1.524 . S
C1053 C1054 1.415 . S
C1054 H1030 0.950 . S
C1054 C1049 1.363 . S
C1054 C1053 1.415 . S
C1055 H1031 0.951 . S
C1055 C1056 1.366 . S
C1055 C1057 1.388 . S
C1056 C1055 1.366 . S
C1056 C1060 1.385 . S
C1057 H1032 0.951 . S
C1057 C1055 1.388 . S
C1057 C1058 1.366 . S
C1058 C1057 1.366 . S
C1058 C1059 1.414 . S
C1058 C1061 1.499 . S
C1059 H1033 0.950 . S
C1059 C1058 1.414 . S
C1059 C1060 1.374 . S
C1060 H1034 0.950 . S
C1060 C1056 1.385 . S
C1060 C1059 1.374 . S
C1061 C1058 1.499 . S
C1061 C1062 1.373 . S
C1061 C1063 1.389 . S
C1062 H1035 0.950 . S
C1062 C1048 1.377 . S
C1062 C1061 1.373 . S
C1063 C1047 1.377 . S
C1063 C1061 1.389 . S
C1063 C1064 1.524 . S
C1064 C1063 1.524 . S
C1064 C1065 1.397 . S
C1064 C1069 1.363 . S
C1065 H1036 0.950 . S
C1065 C1064 1.397 . S
C1065 C1066 1.334 . S
C1066 H1037 0.950 . S
C1066 C1065 1.334 . S
C1066 C1067 1.287 . S
C1067 C1066 1.287 . S
C1067 C1068 1.524 . S
C1067 H1070 0.999 . S
C1068 H1038 0.950 . S
C1068 C1067 1.524 . S
C1068 C1069 1.415 . S
C1069 H1039 0.950 . S
C1069 C1064 1.363 . S
C1069 C1068 1.415 . S
H1070 C1067 0.999 . S
H1071 C1052 0.913 . S
H1072 C1090 0.951 . S
H1073 C1092 0.951 . S
H1074 C1094 0.950 . S
H1075 C1095 0.950 . S
H1076 C1097 0.950 . S
H1077 C1100 0.950 . S
H1078 C1101 0.950 . S
H1079 C1103 0.950 . S
H1080 C1104 0.950 . S
H1081 C1105 0.951 . S
H1082 C1107 0.951 . S
H1083 C1109 0.950 . S
H1084 C1110 0.950 . S
H1085 C1112 0.950 . S
H1086 C1115 0.950 . S
H1087 C1116 0.950 . S
H1088 C1118 0.950 . S
H1089 C1119 0.950 . S
C1090 H1072 0.951 . S
C1090 C1091 1.366 . S
C1090 C1092 1.388 . S
C1091 C1090 1.366 . S
C1091 C1095 1.385 . S
C1092 H1073 0.951 . S
C1092 C1090 1.388 . S
C1092 C1093 1.366 . S
C1093 C1092 1.366 . S
C1093 C1094 1.414 . S
C1093 C1096 1.499 . S
C1094 H1074 0.950 . S
C1094 C1093 1.414 . S
C1094 C1095 1.374 . S
C1095 H1075 0.950 . S
C1095 C1091 1.385 . S
C1095 C1094 1.374 . S
C1096 C1093 1.499 . S
C1096 C1097 1.373 . S
C1096 C1098 1.389 . S
C1097 H1076 0.950 . S
C1097 C1096 1.373 . S
C1097 C1113 1.377 . S
C1098 C1096 1.389 . S
C1098 C1099 1.524 . S
C1098 C1112 1.377 . S
C1099 C1098 1.524 . S
C1099 C1100 1.397 . S
C1099 C1104 1.363 . S
C1100 H1077 0.950 . S
C1100 C1099 1.397 . S
C1100 C1101 1.334 . S
C1101 H1078 0.950 . S
C1101 C1100 1.334 . S
C1101 C1102 1.287 . S
C1102 C1101 1.287 . S
C1102 C1103 1.524 . S
C1102 H1121 0.913 . S
C1103 H1079 0.950 . S
C1103 C1102 1.524 . S
C1103 C1104 1.415 . S
C1104 H1080 0.950 . S
C1104 C1099 1.363 . S
C1104 C1103 1.415 . S
C1105 H1081 0.951 . S
C1105 C1106 1.366 . S
C1105 C1107 1.388 . S
C1106 C1105 1.366 . S
C1106 C1110 1.385 . S
C1107 H1082 0.951 . S
C1107 C1105 1.388 . S
C1107 C1108 1.366 . S
C1108 C1107 1.366 . S
C1108 C1109 1.414 . S
C1108 C1111 1.499 . S
C1109 H1083 0.950 . S
C1109 C1108 1.414 . S
C1109 C1110 1.374 . S
C1110 H1084 0.950 . S
C1110 C1106 1.385 . S
C1110 C1109 1.374 . S
C1111 C1108 1.499 . S
C1111 C1112 1.373 . S
C1111 C1113 1.389 . S
C1112 H1085 0.950 . S
C1112 C1098 1.377 . S
C1112 C1111 1.373 . S
C1113 C1097 1.377 . S
C1113 C1111 1.389 . S
C1113 C1114 1.524 . S
C1114 C1113 1.524 . S
C1114 C1115 1.397 . S
C1114 C1119 1.363 . S
C1115 H1086 0.950 . S
C1115 C1114 1.397 . S
C1115 C1116 1.334 . S
C1116 H1087 0.950 . S
C1116 C1115 1.334 . S
C1116 C1117 1.287 . S
C1117 C1116 1.287 . S
C1117 C1118 1.524 . S
C1117 H1120 0.999 . S
C1118 H1088 0.950 . S
C1118 C1117 1.524 . S
C1118 C1119 1.415 . S
C1119 H1089 0.950 . S
C1119 C1114 1.363 . S
C1119 C1118 1.415 . S
H1120 C1117 0.999 . S
H1121 C1102 0.913 . S
H1122 C1140 0.951 . S
H1123 C1142 0.951 . S
H1124 C1144 0.950 . S
H1125 C1145 0.950 . S
H1126 C1147 0.950 . S
H1127 C1150 0.950 . S
H1128 C1151 0.950 . S
H1129 C1153 0.950 . S
H1130 C1154 0.950 . S
H1131 C1155 0.951 . S
H1132 C1157 0.951 . S
H1133 C1159 0.950 . S
H1134 C1160 0.950 . S
H1135 C1162 0.950 . S
H1136 C1165 0.950 . S
H1137 C1166 0.950 . S
H1138 C1168 0.950 . S
H1139 C1169 0.950 . S
C1140 H1122 0.951 . S
C1140 C1141 1.366 . S
C1140 C1142 1.388 . S
C1141 C1140 1.366 . S
C1141 C1145 1.385 . S
C1142 H1123 0.951 . S
C1142 C1140 1.388 . S
C1142 C1143 1.366 . S
C1143 C1142 1.366 . S
C1143 C1144 1.414 . S
C1143 C1146 1.499 . S
C1144 H1124 0.950 . S
C1144 C1143 1.414 . S
C1144 C1145 1.374 . S
C1145 H1125 0.950 . S
C1145 C1141 1.385 . S
C1145 C1144 1.374 . S
C1146 C1143 1.499 . S
C1146 C1147 1.373 . S
C1146 C1148 1.389 . S
C1147 H1126 0.950 . S
C1147 C1146 1.373 . S
C1147 C1163 1.377 . S
C1148 C1146 1.389 . S
C1148 C1149 1.524 . S
C1148 C1162 1.377 . S
C1149 C1148 1.524 . S
C1149 C1150 1.397 . S
C1149 C1154 1.363 . S
C1150 H1127 0.950 . S
C1150 C1149 1.397 . S
C1150 C1151 1.334 . S
C1151 H1128 0.950 . S
C1151 C1150 1.334 . S
C1151 C1152 1.287 . S
C1152 C1151 1.287 . S
C1152 C1153 1.524 . S
C1152 H1171 0.913 . S
C1153 H1129 0.950 . S
C1153 C1152 1.524 . S
C1153 C1154 1.415 . S
C1154 H1130 0.950 . S
C1154 C1149 1.363 . S
C1154 C1153 1.415 . S
C1155 H1131 0.951 . S
C1155 C1156 1.366 . S
C1155 C1157 1.388 . S
C1156 C1155 1.366 . S
C1156 C1160 1.385 . S
C1157 H1132 0.951 . S
C1157 C1155 1.388 . S
C1157 C1158 1.366 . S
C1158 C1157 1.366 . S
C1158 C1159 1.414 . S
C1158 C1161 1.499 . S
C1159 H1133 0.950 . S
C1159 C1158 1.414 . S
C1159 C1160 1.374 . S
C1160 H1134 0.950 . S
C1160 C1156 1.385 . S
C1160 C1159 1.374 . S
C1161 C1158 1.499 . S
C1161 C1162 1.373 . S
C1161 C1163 1.389 . S
C1162 H1135 0.950 . S
C1162 C1148 1.377 . S
C1162 C1161 1.373 . S
C1163 C1147 1.377 . S
C1163 C1161 1.389 . S
C1163 C1164 1.524 . S
C1164 C1163 1.524 . S
C1164 C1165 1.397 . S
C1164 C1169 1.363 . S
C1165 H1136 0.950 . S
C1165 C1164 1.397 . S
C1165 C1166 1.334 . S
C1166 H1137 0.950 . S
C1166 C1165 1.334 . S
C1166 C1167 1.287 . S
C1167 C1166 1.287 . S
C1167 C1168 1.524 . S
C1167 H1170 0.999 . S
C1168 H1138 0.950 . S
C1168 C1167 1.524 . S
C1168 C1169 1.415 . S
C1169 H1139 0.950 . S
C1169 C1164 1.363 . S
C1169 C1168 1.415 . S
H1170 C1167 0.999 . S
H1171 C1152 0.913 . S
H1172 C1190 0.951 . S
H1173 C1192 0.951 . S
H1174 C1194 0.950 . S
H1175 C1195 0.950 . S
H1176 C1197 0.950 . S
H1177 C1200 0.950 . S
H1178 C1201 0.950 . S
H1179 C1203 0.950 . S
H1180 C1204 0.950 . S
H1181 C1205 0.951 . S
H1182 C1207 0.951 . S
H1183 C1209 0.950 . S
H1184 C1210 0.950 . S
H1185 C1212 0.950 . S
H1186 C1215 0.950 . S
H1187 C1216 0.950 . S
H1188 C1218 0.950 . S
H1189 C1219 0.950 . S
C1190 H1172 0.951 . S
C1190 C1191 1.366 . S
C1190 C1192 1.388 . S
C1191 C1190 1.366 . S
C1191 C1195 1.385 . S
C1192 H1173 0.951 . S
C1192 C1190 1.388 . S
C1192 C1193 1.366 . S
C1193 C1192 1.366 . S
C1193 C1194 1.414 . S
C1193 C1196 1.499 . S
C1194 H1174 0.950 . S
C1194 C1193 1.414 . S
C1194 C1195 1.374 . S
C1195 H1175 0.950 . S
C1195 C1191 1.385 . S
C1195 C1194 1.374 . S
C1196 C1193 1.499 . S
C1196 C1197 1.373 . S
C1196 C1198 1.389 . S
C1197 H1176 0.950 . S
C1197 C1196 1.373 . S
C1197 C1213 1.377 . S
C1198 C1196 1.389 . S
C1198 C1199 1.524 . S
C1198 C1212 1.377 . S
C1199 C1198 1.524 . S
C1199 C1200 1.397 . S
C1199 C1204 1.363 . S
C1200 H1177 0.950 . S
C1200 C1199 1.397 . S
C1200 C1201 1.334 . S
C1201 H1178 0.950 . S
C1201 C1200 1.334 . S
C1201 C1202 1.287 . S
C1202 C1201 1.287 . S
C1202 C1203 1.524 . S
C1202 H1221 0.913 . S
C1203 H1179 0.950 . S
C1203 C1202 1.524 . S
C1203 C1204 1.415 . S
C1204 H1180 0.950 . S
C1204 C1199 1.363 . S
C1204 C1203 1.415 . S
C1205 H1181 0.951 . S
C1205 C1206 1.366 . S
C1205 C1207 1.388 . S
C1206 C1205 1.366 . S
C1206 C1210 1.385 . S
C1207 H1182 0.951 . S
C1207 C1205 1.388 . S
C1207 C1208 1.366 . S
C1208 C1207 1.366 . S
C1208 C1209 1.414 . S
C1208 C1211 1.499 . S
C1209 H1183 0.950 . S
C1209 C1208 1.414 . S
C1209 C1210 1.374 . S
C1210 H1184 0.950 . S
C1210 C1206 1.385 . S
C1210 C1209 1.374 . S
C1211 C1208 1.499 . S
C1211 C1212 1.373 . S
C1211 C1213 1.389 . S
C1212 H1185 0.950 . S
C1212 C1198 1.377 . S
C1212 C1211 1.373 . S
C1213 C1197 1.377 . S
C1213 C1211 1.389 . S
C1213 C1214 1.524 . S
C1214 C1213 1.524 . S
C1214 C1215 1.397 . S
C1214 C1219 1.363 . S
C1215 H1186 0.950 . S
C1215 C1214 1.397 . S
C1215 C1216 1.334 . S
C1216 H1187 0.950 . S
C1216 C1215 1.334 . S
C1216 C1217 1.287 . S
C1217 C1216 1.287 . S
C1217 C1218 1.524 . S
C1217 H1220 0.999 . S
C1218 H1188 0.950 . S
C1218 C1217 1.524 . S
C1218 C1219 1.415 . S
C1219 H1189 0.950 . S
C1219 C1214 1.363 . S
C1219 C1218 1.415 . S
H1220 C1217 0.999 . S
H1221 C1202 0.913 . S
H1222 C1240 0.951 . S
H1223 C1242 0.951 . S
H1224 C1244 0.950 . S
H1225 C1245 0.950 . S
H1226 C1247 0.950 . S
H1227 C1250 0.950 . S
H1228 C1251 0.950 . S
H1229 C1253 0.950 . S
H1230 C1254 0.950 . S
H1231 C1255 0.951 . S
H1232 C1257 0.951 . S
H1233 C1259 0.950 . S
H1234 C1260 0.950 . S
H1235 C1262 0.950 . S
H1236 C1265 0.950 . S
H1237 C1266 0.950 . S
H1238 C1268 0.950 . S
H1239 C1269 0.950 . S
C1240 H1222 0.951 . S
C1240 C1241 1.366 . S
C1240 C1242 1.388 . S
C1241 C1240 1.366 . S
C1241 C1245 1.385 . S
C1242 H1223 0.951 . S
C1242 C1240 1.388 . S
C1242 C1243 1.366 . S
C1243 C1242 1.366 . S
C1243 C1244 1.414 . S
C1243 C1246 1.499 . S
C1244 H1224 0.950 . S
C1244 C1243 1.414 . S
C1244 C1245 1.374 . S
C1245 H1225 0.950 . S
C1245 C1241 1.385 . S
C1245 C1244 1.374 . S
C1246 C1243 1.499 . S
C1246 C1247 1.373 . S
C1246 C1248 1.389 . S
C1247 H1226 0.950 . S
C1247 C1246 1.373 . S
C1247 C1263 1.377 . S
C1248 C1246 1.389 . S
C1248 C1249 1.524 . S
C1248 C1262 1.377 . S
C1249 C1248 1.524 . S
C1249 C1250 1.397 . S
C1249 C1254 1.363 . S
C1250 H1227 0.950 . S
C1250 C1249 1.397 . S
C1250 C1251 1.334 . S
C1251 H1228 0.950 . S
C1251 C1250 1.334 . S
C1251 C1252 1.287 . S
C1252 C1251 1.287 . S
C1252 C1253 1.524 . S
C1252 H1271 0.913 . S
C1253 H1229 0.950 . S
C1253 C1252 1.524 . S
C1253 C1254 1.415 . S
C1254 H1230 0.950 . S
C1254 C1249 1.363 . S
C1254 C1253 1.415 . S
C1255 H1231 0.951 . S
C1255 C1256 1.366 . S
C1255 C1257 1.388 . S
C1256 C1255 1.366 . S
C1256 C1260 1.385 . S
C1257 H1232 0.951 . S
C1257 C1255 1.388 . S
C1257 C1258 1.366 . S
C1258 C1257 1.366 . S
C1258 C1259 1.414 . S
C1258 C1261 1.499 . S
C1259 H1233 0.950 . S
C1259 C1258 1.414 . S
C1259 C1260 1.374 . S
C1260 H1234 0.950 . S
C1260 C1256 1.385 . S
C1260 C1259 1.374 . S
C1261 C1258 1.499 . S
C1261 C1262 1.373 . S
C1261 C1263 1.389 . S
C1262 H1235 0.950 . S
C1262 C1248 1.377 . S
C1262 C1261 1.373 . S
C1263 C1247 1.377 . S
C1263 C1261 1.389 . S
C1263 C1264 1.524 . S
C1264 C1263 1.524 . S
C1264 C1265 1.397 . S
C1264 C1269 1.363 . S
C1265 H1236 0.950 . S
C1265 C1264 1.397 . S
C1265 C1266 1.334 . S
C1266 H1237 0.950 . S
C1266 C1265 1.334 . S
C1266 C1267 1.287 . S
C1267 C1266 1.287 . S
C1267 C1268 1.524 . S
C1267 H1270 0.999 . S
C1268 H1238 0.950 . S
C1268 C1267 1.524 . S
C1268 C1269 1.415 . S
C1269 H1239 0.950 . S
C1269 C1264 1.363 . S
C1269 C1268 1.415 . S
H1270 C1267 0.999 . S
H1271 C1252 0.913 . S
H1272 C1290 0.951 . S
H1273 C1292 0.951 . S
H1274 C1294 0.950 . S
H1275 C1295 0.950 . S
H1276 C1297 0.950 . S
H1277 C1300 0.950 . S
H1278 C1301 0.950 . S
H1279 C1303 0.950 . S
H1280 C1304 0.950 . S
H1281 C1305 0.951 . S
H1282 C1307 0.951 . S
H1283 C1309 0.950 . S
H1284 C1310 0.950 . S
H1285 C1312 0.950 . S
H1286 C1315 0.950 . S
H1287 C1316 0.950 . S
H1288 C1318 0.950 1_554 S
H1289 C1319 0.950 . S
C1290 H1272 0.951 . S
C1290 C1291 1.366 . S
C1290 C1292 1.388 . S
C1291 C1290 1.366 . S
C1291 C1295 1.385 . S
C1292 H1273 0.951 . S
C1292 C1290 1.388 . S
C1292 C1293 1.366 . S
C1293 C1292 1.366 . S
C1293 C1294 1.414 . S
C1293 C1296 1.499 . S
C1294 H1274 0.950 . S
C1294 C1293 1.414 . S
C1294 C1295 1.374 . S
C1295 H1275 0.950 . S
C1295 C1291 1.385 . S
C1295 C1294 1.374 . S
C1296 C1293 1.499 . S
C1296 C1297 1.373 . S
C1296 C1298 1.389 . S
C1297 H1276 0.950 . S
C1297 C1296 1.373 . S
C1297 C1313 1.377 . S
C1298 C1296 1.389 . S
C1298 C1299 1.524 . S
C1298 C1312 1.377 . S
C1299 C1298 1.524 . S
C1299 C1300 1.397 . S
C1299 C1304 1.363 . S
C1300 H1277 0.950 . S
C1300 C1299 1.397 . S
C1300 C1301 1.334 . S
C1301 H1278 0.950 . S
C1301 C1300 1.334 . S
C1301 C1302 1.287 . S
C1302 C1301 1.287 . S
C1302 C1303 1.524 . S
C1302 H1321 0.913 . S
C1303 H1279 0.950 . S
C1303 C1302 1.524 . S
C1303 C1304 1.415 . S
C1304 H1280 0.950 . S
C1304 C1299 1.363 . S
C1304 C1303 1.415 . S
C1305 H1281 0.951 . S
C1305 C1306 1.366 . S
C1305 C1307 1.388 . S
C1306 C1305 1.366 . S
C1306 C1310 1.385 . S
C1307 H1282 0.951 . S
C1307 C1305 1.388 . S
C1307 C1308 1.366 . S
C1308 C1307 1.366 . S
C1308 C1309 1.414 . S
C1308 C1311 1.499 . S
C1309 H1283 0.950 . S
C1309 C1308 1.414 . S
C1309 C1310 1.374 . S
C1310 H1284 0.950 . S
C1310 C1306 1.385 . S
C1310 C1309 1.374 . S
C1311 C1308 1.499 . S
C1311 C1312 1.373 . S
C1311 C1313 1.389 . S
C1312 H1285 0.950 . S
C1312 C1298 1.377 . S
C1312 C1311 1.373 . S
C1313 C1297 1.377 . S
C1313 C1311 1.389 . S
C1313 C1314 1.524 . S
C1314 C1313 1.524 . S
C1314 C1315 1.397 . S
C1314 C1319 1.363 . S
C1315 H1286 0.950 . S
C1315 C1314 1.397 . S
C1315 C1316 1.334 . S
C1316 H1287 0.950 . S
C1316 C1315 1.334 . S
C1316 C1317 1.287 . S
C1317 C1316 1.287 . S
C1317 C1318 1.524 . S
C1317 H1320 0.999 1_556 S
C1318 H1288 0.950 1_556 S
C1318 C1317 1.524 . S
C1318 C1319 1.415 . S
C1319 H1289 0.950 . S
C1319 C1314 1.363 . S
C1319 C1318 1.415 . S
H1320 C1317 0.999 1_554 S
H1321 C1302 0.913 . S
H1322 C1340 0.951 . S
H1323 C1342 0.951 . S
H1324 C1344 0.950 . S
H1325 C1345 0.950 . S
H1326 C1347 0.950 . S
H1327 C1350 0.950 . S
H1328 C1351 0.950 . S
H1329 C1353 0.950 1_455 S
H1330 C1354 0.950 . S
H1331 C1355 0.951 . S
H1332 C1357 0.951 . S
H1333 C1359 0.950 . S
H1334 C1360 0.950 1_455 S
H1335 C1362 0.950 . S
H1336 C1365 0.950 . S
H1337 C1366 0.950 . S
H1338 C1368 0.950 . S
H1339 C1369 0.950 . S
C1340 H1322 0.951 . S
C1340 C1341 1.366 . S
C1340 C1342 1.388 . S
C1341 C1340 1.366 . S
C1341 C1345 1.385 . S
C1342 H1323 0.951 . S
C1342 C1340 1.388 . S
C1342 C1343 1.366 . S
C1343 C1342 1.366 . S
C1343 C1344 1.414 . S
C1343 C1346 1.499 . S
C1344 H1324 0.950 . S
C1344 C1343 1.414 . S
C1344 C1345 1.374 . S
C1345 H1325 0.950 . S
C1345 C1341 1.385 . S
C1345 C1344 1.374 . S
C1346 C1343 1.499 . S
C1346 C1347 1.373 . S
C1346 C1348 1.389 . S
C1347 H1326 0.950 . S
C1347 C1346 1.373 . S
C1347 C1363 1.377 . S
C1348 C1346 1.389 . S
C1348 C1349 1.524 . S
C1348 C1362 1.377 . S
C1349 C1348 1.524 . S
C1349 C1350 1.397 . S
C1349 C1354 1.363 . S
C1350 H1327 0.950 . S
C1350 C1349 1.397 . S
C1350 C1351 1.334 . S
C1351 H1328 0.950 . S
C1351 C1350 1.334 . S
C1351 C1352 1.287 . S
C1352 C1351 1.287 . S
C1352 C1353 1.524 . S
C1352 H1371 0.913 . S
C1353 H1329 0.950 1_655 S
C1353 C1352 1.524 . S
C1353 C1354 1.415 . S
C1354 H1330 0.950 . S
C1354 C1349 1.363 . S
C1354 C1353 1.415 . S
C1355 H1331 0.951 . S
C1355 C1356 1.366 . S
C1355 C1357 1.388 . S
C1356 C1355 1.366 . S
C1356 C1360 1.385 . S
C1357 H1332 0.951 . S
C1357 C1355 1.388 . S
C1357 C1358 1.366 . S
C1358 C1357 1.366 . S
C1358 C1359 1.414 . S
C1358 C1361 1.499 . S
C1359 H1333 0.950 . S
C1359 C1358 1.414 . S
C1359 C1360 1.374 . S
C1360 H1334 0.950 1_655 S
C1360 C1356 1.385 . S
C1360 C1359 1.374 . S
C1361 C1358 1.499 . S
C1361 C1362 1.373 . S
C1361 C1363 1.389 . S
C1362 H1335 0.950 . S
C1362 C1348 1.377 . S
C1362 C1361 1.373 . S
C1363 C1347 1.377 . S
C1363 C1361 1.389 . S
C1363 C1364 1.524 . S
C1364 C1363 1.524 . S
C1364 C1365 1.397 . S
C1364 C1369 1.363 . S
C1365 H1336 0.950 . S
C1365 C1364 1.397 . S
C1365 C1366 1.334 . S
C1366 H1337 0.950 . S
C1366 C1365 1.334 . S
C1366 C1367 1.287 . S
C1367 C1366 1.287 . S
C1367 C1368 1.524 . S
C1367 H1370 0.999 . S
C1368 H1338 0.950 . S
C1368 C1367 1.524 . S
C1368 C1369 1.415 . S
C1369 H1339 0.950 . S
C1369 C1364 1.363 . S
C1369 C1368 1.415 . S
H1370 C1367 0.999 . S
H1371 C1352 0.913 . S
H1372 C1390 0.951 . S
H1373 C1392 0.951 . S
H1374 C1394 0.950 . S
H1375 C1395 0.950 . S
H1376 C1397 0.950 . S
H1377 C1400 0.950 . S
H1378 C1401 0.950 . S
H1379 C1403 0.950 . S
H1380 C1404 0.950 . S
H1381 C1405 0.951 . S
H1382 C1407 0.951 . S
H1383 C1409 0.950 . S
H1384 C1410 0.950 . S
H1385 C1412 0.950 . S
H1386 C1415 0.950 . S
H1387 C1416 0.950 . S
H1388 C1418 0.950 . S
H1389 C1419 0.950 . S
C1390 H1372 0.951 . S
C1390 C1391 1.366 . S
C1390 C1392 1.388 . S
C1391 C1390 1.366 . S
C1391 C1395 1.385 . S
C1392 H1373 0.951 . S
C1392 C1390 1.388 . S
C1392 C1393 1.366 . S
C1393 C1392 1.366 . S
C1393 C1394 1.414 . S
C1393 C1396 1.499 . S
C1394 H1374 0.950 . S
C1394 C1393 1.414 . S
C1394 C1395 1.374 . S
C1395 H1375 0.950 . S
C1395 C1391 1.385 . S
C1395 C1394 1.374 . S
C1396 C1393 1.499 . S
C1396 C1397 1.373 . S
C1396 C1398 1.389 . S
C1397 H1376 0.950 . S
C1397 C1396 1.373 . S
C1397 C1413 1.377 . S
C1398 C1396 1.389 . S
C1398 C1399 1.524 . S
C1398 C1412 1.377 . S
C1399 C1398 1.524 . S
C1399 C1400 1.397 . S
C1399 C1404 1.363 . S
C1400 H1377 0.950 . S
C1400 C1399 1.397 . S
C1400 C1401 1.334 . S
C1401 H1378 0.950 . S
C1401 C1400 1.334 . S
C1401 C1402 1.287 . S
C1402 C1401 1.287 . S
C1402 C1403 1.524 . S
C1402 H1421 0.913 . S
C1403 H1379 0.950 . S
C1403 C1402 1.524 . S
C1403 C1404 1.415 . S
C1404 H1380 0.950 . S
C1404 C1399 1.363 . S
C1404 C1403 1.415 . S
C1405 H1381 0.951 . S
C1405 C1406 1.366 . S
C1405 C1407 1.388 . S
C1406 C1405 1.366 . S
C1406 C1410 1.385 . S
C1407 H1382 0.951 . S
C1407 C1405 1.388 . S
C1407 C1408 1.366 . S
C1408 C1407 1.366 . S
C1408 C1409 1.414 . S
C1408 C1411 1.499 . S
C1409 H1383 0.950 . S
C1409 C1408 1.414 . S
C1409 C1410 1.374 . S
C1410 H1384 0.950 . S
C1410 C1406 1.385 . S
C1410 C1409 1.374 . S
C1411 C1408 1.499 . S
C1411 C1412 1.373 . S
C1411 C1413 1.389 . S
C1412 H1385 0.950 . S
C1412 C1398 1.377 . S
C1412 C1411 1.373 . S
C1413 C1397 1.377 . S
C1413 C1411 1.389 . S
C1413 C1414 1.524 . S
C1414 C1413 1.524 . S
C1414 C1415 1.397 . S
C1414 C1419 1.363 . S
C1415 H1386 0.950 . S
C1415 C1414 1.397 . S
C1415 C1416 1.334 . S
C1416 H1387 0.950 . S
C1416 C1415 1.334 . S
C1416 C1417 1.287 . S
C1417 C1416 1.287 . S
C1417 C1418 1.524 . S
C1417 H1420 0.999 . S
C1418 H1388 0.950 . S
C1418 C1417 1.524 . S
C1418 C1419 1.415 . S
C1419 H1389 0.950 . S
C1419 C1414 1.363 . S
C1419 C1418 1.415 . S
H1420 C1417 0.999 . S
H1421 C1402 0.913 . S
H1422 C1440 0.951 . S
H1423 C1442 0.951 . S
H1424 C1444 0.950 . S
H1425 C1445 0.950 . S
H1426 C1447 0.950 . S
H1427 C1450 0.950 . S
H1428 C1451 0.950 . S
H1429 C1453 0.950 . S
H1430 C1454 0.950 . S
H1431 C1455 0.951 . S
H1432 C1457 0.951 . S
H1433 C1459 0.950 . S
H1434 C1460 0.950 . S
H1435 C1462 0.950 . S
H1436 C1465 0.950 . S
H1437 C1466 0.950 . S
H1438 C1468 0.950 . S
H1439 C1469 0.950 . S
C1440 H1422 0.951 . S
C1440 C1441 1.366 . S
C1440 C1442 1.388 . S
C1441 C1440 1.366 . S
C1441 C1445 1.385 . S
C1442 H1423 0.951 . S
C1442 C1440 1.388 . S
C1442 C1443 1.366 . S
C1443 C1442 1.366 . S
C1443 C1444 1.414 . S
C1443 C1446 1.499 . S
C1444 H1424 0.950 . S
C1444 C1443 1.414 . S
C1444 C1445 1.374 . S
C1445 H1425 0.950 . S
C1445 C1441 1.385 . S
C1445 C1444 1.374 . S
C1446 C1443 1.499 . S
C1446 C1447 1.373 . S
C1446 C1448 1.389 . S
C1447 H1426 0.950 . S
C1447 C1446 1.373 . S
C1447 C1463 1.377 . S
C1448 C1446 1.389 . S
C1448 C1449 1.524 . S
C1448 C1462 1.377 . S
C1449 C1448 1.524 . S
C1449 C1450 1.397 . S
C1449 C1454 1.363 . S
C1450 H1427 0.950 . S
C1450 C1449 1.397 . S
C1450 C1451 1.334 . S
C1451 H1428 0.950 . S
C1451 C1450 1.334 . S
C1451 C1452 1.287 . S
C1452 C1451 1.287 . S
C1452 C1453 1.524 . S
C1452 H1471 0.913 . S
C1453 H1429 0.950 . S
C1453 C1452 1.524 . S
C1453 C1454 1.415 . S
C1454 H1430 0.950 . S
C1454 C1449 1.363 . S
C1454 C1453 1.415 . S
C1455 H1431 0.951 . S
C1455 C1456 1.366 . S
C1455 C1457 1.388 . S
C1456 C1455 1.366 . S
C1456 C1460 1.385 . S
C1457 H1432 0.951 . S
C1457 C1455 1.388 . S
C1457 C1458 1.366 . S
C1458 C1457 1.366 . S
C1458 C1459 1.414 . S
C1458 C1461 1.499 . S
C1459 H1433 0.950 . S
C1459 C1458 1.414 . S
C1459 C1460 1.374 . S
C1460 H1434 0.950 . S
C1460 C1456 1.385 . S
C1460 C1459 1.374 . S
C1461 C1458 1.499 . S
C1461 C1462 1.373 . S
C1461 C1463 1.389 . S
C1462 H1435 0.950 . S
C1462 C1448 1.377 . S
C1462 C1461 1.373 . S
C1463 C1447 1.377 . S
C1463 C1461 1.389 . S
C1463 C1464 1.524 . S
C1464 C1463 1.524 . S
C1464 C1465 1.397 . S
C1464 C1469 1.363 . S
C1465 H1436 0.950 . S
C1465 C1464 1.397 . S
C1465 C1466 1.334 . S
C1466 H1437 0.950 . S
C1466 C1465 1.334 . S
C1466 C1467 1.287 . S
C1467 C1466 1.287 . S
C1467 C1468 1.524 . S
C1467 H1470 0.999 . S
C1468 H1438 0.950 . S
C1468 C1467 1.524 . S
C1468 C1469 1.415 . S
C1469 H1439 0.950 . S
C1469 C1464 1.363 . S
C1469 C1468 1.415 . S
H1470 C1467 0.999 . S
H1471 C1452 0.913 . S
H1472 C1490 0.951 . S
H1473 C1492 0.951 . S
H1474 C1494 0.950 . S
H1475 C1495 0.950 . S
H1476 C1497 0.950 . S
H1477 C1500 0.950 . S
H1478 C1501 0.950 . S
H1479 C1503 0.950 . S
H1480 C1504 0.950 . S
H1481 C1505 0.951 . S
H1482 C1507 0.951 . S
H1483 C1509 0.950 . S
H1484 C1510 0.950 . S
H1485 C1512 0.950 . S
H1486 C1515 0.950 . S
H1487 C1516 0.950 . S
H1488 C1518 0.950 . S
H1489 C1519 0.950 . S
C1490 H1472 0.951 . S
C1490 C1491 1.366 . S
C1490 C1492 1.388 . S
C1491 C1490 1.366 . S
C1491 C1495 1.385 . S
C1492 H1473 0.951 . S
C1492 C1490 1.388 . S
C1492 C1493 1.366 . S
C1493 C1492 1.366 . S
C1493 C1494 1.414 . S
C1493 C1496 1.499 . S
C1494 H1474 0.950 . S
C1494 C1493 1.414 . S
C1494 C1495 1.374 . S
C1495 H1475 0.950 . S
C1495 C1491 1.385 . S
C1495 C1494 1.374 . S
C1496 C1493 1.499 . S
C1496 C1497 1.373 . S
C1496 C1498 1.389 . S
C1497 H1476 0.950 . S
C1497 C1496 1.373 . S
C1497 C1513 1.377 . S
C1498 C1496 1.389 . S
C1498 C1499 1.524 . S
C1498 C1512 1.377 . S
C1499 C1498 1.524 . S
C1499 C1500 1.397 . S
C1499 C1504 1.363 . S
C1500 H1477 0.950 . S
C1500 C1499 1.397 . S
C1500 C1501 1.334 . S
C1501 H1478 0.950 . S
C1501 C1500 1.334 . S
C1501 C1502 1.287 . S
C1502 C1501 1.287 . S
C1502 C1503 1.524 . S
C1502 H1521 0.913 . S
C1503 H1479 0.950 . S
C1503 C1502 1.524 . S
C1503 C1504 1.415 . S
C1504 H1480 0.950 . S
C1504 C1499 1.363 . S
C1504 C1503 1.415 . S
C1505 H1481 0.951 . S
C1505 C1506 1.366 . S
C1505 C1507 1.388 . S
C1506 C1505 1.366 . S
C1506 C1510 1.385 . S
C1507 H1482 0.951 . S
C1507 C1505 1.388 . S
C1507 C1508 1.366 . S
C1508 C1507 1.366 . S
C1508 C1509 1.414 . S
C1508 C1511 1.499 . S
C1509 H1483 0.950 . S
C1509 C1508 1.414 . S
C1509 C1510 1.374 . S
C1510 H1484 0.950 . S
C1510 C1506 1.385 . S
C1510 C1509 1.374 . S
C1511 C1508 1.499 . S
C1511 C1512 1.373 . S
C1511 C1513 1.389 . S
C1512 H1485 0.950 . S
C1512 C1498 1.377 . S
C1512 C1511 1.373 . S
C1513 C1497 1.377 . S
C1513 C1511 1.389 . S
C1513 C1514 1.524 . S
C1514 C1513 1.524 . S
C1514 C1515 1.397 . S
C1514 C1519 1.363 . S
C1515 H1486 0.950 . S
C1515 C1514 1.397 . S
C1515 C1516 1.334 . S
C1516 H1487 0.950 . S
C1516 C1515 1.334 . S
C1516 C1517 1.287 . S
C1517 C1516 1.287 . S
C1517 C1518 1.524 . S
C1517 H1520 0.999 . S
C1518 H1488 0.950 . S
C1518 C1517 1.524 . S
C1518 C1519 1.415 . S
C1519 H1489 0.950 . S
C1519 C1514 1.363 . S
C1519 C1518 1.415 . S
H1520 C1517 0.999 . S
H1521 C1502 0.913 . S
H1522 C1540 0.951 . S
H1523 C1542 0.951 . S
H1524 C1544 0.950 . S
H1525 C1545 0.950 . S
H1526 C1547 0.950 . S
H1527 C1550 0.950 . S
H1528 C1551 0.950 . S
H1529 C1553 0.950 . S
H1530 C1554 0.950 . S
H1531 C1555 0.951 . S
H1532 C1557 0.951 . S
H1533 C1559 0.950 . S
H1534 C1560 0.950 . S
H1535 C1562 0.950 . S
H1536 C1565 0.950 . S
H1537 C1566 0.950 . S
H1538 C1568 0.950 . S
H1539 C1569 0.950 . S
C1540 H1522 0.951 . S
C1540 C1541 1.366 . S
C1540 C1542 1.388 . S
C1541 C1540 1.366 . S
C1541 C1545 1.385 . S
C1542 H1523 0.951 . S
C1542 C1540 1.388 . S
C1542 C1543 1.366 . S
C1543 C1542 1.366 . S
C1543 C1544 1.414 . S
C1543 C1546 1.499 . S
C1544 H1524 0.950 . S
C1544 C1543 1.414 . S
C1544 C1545 1.374 . S
C1545 H1525 0.950 . S
C1545 C1541 1.385 . S
C1545 C1544 1.374 . S
C1546 C1543 1.499 . S
C1546 C1547 1.373 . S
C1546 C1548 1.389 . S
C1547 H1526 0.950 . S
C1547 C1546 1.373 . S
C1547 C1563 1.377 . S
C1548 C1546 1.389 . S
C1548 C1549 1.524 . S
C1548 C1562 1.377 . S
C1549 C1548 1.524 . S
C1549 C1550 1.397 . S
C1549 C1554 1.363 . S
C1550 H1527 0.950 . S
C1550 C1549 1.397 . S
C1550 C1551 1.334 . S
C1551 H1528 0.950 . S
C1551 C1550 1.334 . S
C1551 C1552 1.287 . S
C1552 C1551 1.287 . S
C1552 C1553 1.524 . S
C1552 H1571 0.913 . S
C1553 H1529 0.950 . S
C1553 C1552 1.524 . S
C1553 C1554 1.415 . S
C1554 H1530 0.950 . S
C1554 C1549 1.363 . S
C1554 C1553 1.415 . S
C1555 H1531 0.951 . S
C1555 C1556 1.366 . S
C1555 C1557 1.388 . S
C1556 C1555 1.366 . S
C1556 C1560 1.385 . S
C1557 H1532 0.951 . S
C1557 C1555 1.388 . S
C1557 C1558 1.366 . S
C1558 C1557 1.366 . S
C1558 C1559 1.414 . S
C1558 C1561 1.499 . S
C1559 H1533 0.950 . S
C1559 C1558 1.414 . S
C1559 C1560 1.374 . S
C1560 H1534 0.950 . S
C1560 C1556 1.385 . S
C1560 C1559 1.374 . S
C1561 C1558 1.499 . S
C1561 C1562 1.373 . S
C1561 C1563 1.389 . S
C1562 H1535 0.950 . S
C1562 C1548 1.377 . S
C1562 C1561 1.373 . S
C1563 C1547 1.377 . S
C1563 C1561 1.389 . S
C1563 C1564 1.524 . S
C1564 C1563 1.524 . S
C1564 C1565 1.397 . S
C1564 C1569 1.363 . S
C1565 H1536 0.950 . S
C1565 C1564 1.397 . S
C1565 C1566 1.334 . S
C1566 H1537 0.950 . S
C1566 C1565 1.334 . S
C1566 C1567 1.287 . S
C1567 C1566 1.287 . S
C1567 C1568 1.524 . S
C1567 H1570 0.999 . S
C1568 H1538 0.950 . S
C1568 C1567 1.524 . S
C1568 C1569 1.415 . S
C1569 H1539 0.950 . S
C1569 C1564 1.363 . S
C1569 C1568 1.415 . S
H1570 C1567 0.999 . S
H1571 C1552 0.913 . S
H1572 C1590 0.951 . S
H1573 C1592 0.951 . S
H1574 C1594 0.950 . S
H1575 C1595 0.950 . S
H1576 C1597 0.950 . S
H1577 C1600 0.950 . S
H1578 C1601 0.950 . S
H1579 C1603 0.950 1_655 S
H1580 C1604 0.950 . S
H1581 C1605 0.951 . S
H1582 C1607 0.951 . S
H1583 C1609 0.950 . S
H1584 C1610 0.950 . S
H1585 C1612 0.950 . S
H1586 C1615 0.950 . S
H1587 C1616 0.950 . S
H1588 C1618 0.950 . S
H1589 C1619 0.950 . S
C1590 H1572 0.951 . S
C1590 C1591 1.366 . S
C1590 C1592 1.388 . S
C1591 C1590 1.366 . S
C1591 C1595 1.385 . S
C1592 H1573 0.951 . S
C1592 C1590 1.388 . S
C1592 C1593 1.366 . S
C1593 C1592 1.366 . S
C1593 C1594 1.414 . S
C1593 C1596 1.499 . S
C1594 H1574 0.950 . S
C1594 C1593 1.414 . S
C1594 C1595 1.374 . S
C1595 H1575 0.950 . S
C1595 C1591 1.385 . S
C1595 C1594 1.374 . S
C1596 C1593 1.499 . S
C1596 C1597 1.373 . S
C1596 C1598 1.389 . S
C1597 H1576 0.950 . S
C1597 C1596 1.373 . S
C1597 C1613 1.377 . S
C1598 C1596 1.389 . S
C1598 C1599 1.524 . S
C1598 C1612 1.377 . S
C1599 C1598 1.524 . S
C1599 C1600 1.397 . S
C1599 C1604 1.363 . S
C1600 H1577 0.950 . S
C1600 C1599 1.397 . S
C1600 C1601 1.334 . S
C1601 H1578 0.950 . S
C1601 C1600 1.334 . S
C1601 C1602 1.287 . S
C1602 C1601 1.287 . S
C1602 C1603 1.524 . S
C1602 H1621 0.900 1_455 S
C1603 H1579 0.950 1_455 S
C1603 C1602 1.524 . S
C1603 C1604 1.415 . S
C1604 H1580 0.950 . S
C1604 C1599 1.363 . S
C1604 C1603 1.415 . S
C1605 H1581 0.951 . S
C1605 C1606 1.366 . S
C1605 C1607 1.388 . S
C1606 C1605 1.366 . S
C1606 C1610 1.385 . S
C1607 H1582 0.951 . S
C1607 C1605 1.388 . S
C1607 C1608 1.366 . S
C1608 C1607 1.366 . S
C1608 C1609 1.414 . S
C1608 C1611 1.499 . S
C1609 H1583 0.950 . S
C1609 C1608 1.414 . S
C1609 C1610 1.374 . S
C1610 H1584 0.950 . S
C1610 C1606 1.385 . S
C1610 C1609 1.374 . S
C1611 C1608 1.499 . S
C1611 C1612 1.373 . S
C1611 C1613 1.389 . S
C1612 H1585 0.950 . S
C1612 C1598 1.377 . S
C1612 C1611 1.373 . S
C1613 C1597 1.377 . S
C1613 C1611 1.389 . S
C1613 C1614 1.524 . S
C1614 C1613 1.524 . S
C1614 C1615 1.397 . S
C1614 C1619 1.363 . S
C1615 H1586 0.950 . S
C1615 C1614 1.397 . S
C1615 C1616 1.334 . S
C1616 H1587 0.950 . S
C1616 C1615 1.334 . S
C1616 C1617 1.287 . S
C1617 C1616 1.287 . S
C1617 C1618 1.524 . S
C1617 H1620 0.999 . S
C1618 H1588 0.950 . S
C1618 C1617 1.524 . S
C1618 C1619 1.415 . S
C1619 H1589 0.950 . S
C1619 C1614 1.363 . S
C1619 C1618 1.415 . S
H1620 C1617 0.999 . S
H1621 C1602 0.900 1_655 S
H1622 C1640 0.951 . S
H1623 C1642 0.951 . S
H1624 C1644 0.950 . S
H1625 C1645 0.950 . S
H1626 C1647 0.950 . S
H1627 C1650 0.950 . S
H1628 C1651 0.950 . S
H1629 C1653 0.950 . S
H1630 C1654 0.950 . S
H1631 C1655 0.951 . S
H1632 C1657 0.951 . S
H1633 C1659 0.950 . S
H1634 C1660 0.950 . S
H1635 C1662 0.950 . S
H1636 C1665 0.950 . S
H1637 C1666 0.950 . S
H1638 C1668 0.950 . S
H1639 C1669 0.950 . S
C1640 H1622 0.951 . S
C1640 C1641 1.366 . S
C1640 C1642 1.388 . S
C1641 C1640 1.366 . S
C1641 C1645 1.385 . S
C1642 H1623 0.951 . S
C1642 C1640 1.388 . S
C1642 C1643 1.366 . S
C1643 C1642 1.366 . S
C1643 C1644 1.414 . S
C1643 C1646 1.499 . S
C1644 H1624 0.950 . S
C1644 C1643 1.414 . S
C1644 C1645 1.374 . S
C1645 H1625 0.950 . S
C1645 C1641 1.385 . S
C1645 C1644 1.374 . S
C1646 C1643 1.499 . S
C1646 C1647 1.373 . S
C1646 C1648 1.389 . S
C1647 H1626 0.950 . S
C1647 C1646 1.373 . S
C1647 C1663 1.377 . S
C1648 C1646 1.389 . S
C1648 C1649 1.524 . S
C1648 C1662 1.377 . S
C1649 C1648 1.524 . S
C1649 C1650 1.397 . S
C1649 C1654 1.363 . S
C1650 H1627 0.950 . S
C1650 C1649 1.397 . S
C1650 C1651 1.334 . S
C1651 H1628 0.950 . S
C1651 C1650 1.334 . S
C1651 C1652 1.287 . S
C1652 C1651 1.287 . S
C1652 C1653 1.524 . S
C1652 H1671 0.913 . S
C1653 H1629 0.950 . S
C1653 C1652 1.524 . S
C1653 C1654 1.415 . S
C1654 H1630 0.950 . S
C1654 C1649 1.363 . S
C1654 C1653 1.415 . S
C1655 H1631 0.951 . S
C1655 C1656 1.366 . S
C1655 C1657 1.388 . S
C1656 C1655 1.366 . S
C1656 C1660 1.385 . S
C1657 H1632 0.951 . S
C1657 C1655 1.388 . S
C1657 C1658 1.366 . S
C1658 C1657 1.366 . S
C1658 C1659 1.414 . S
C1658 C1661 1.499 . S
C1659 H1633 0.950 . S
C1659 C1658 1.414 . S
C1659 C1660 1.374 . S
C1660 H1634 0.950 . S
C1660 C1656 1.385 . S
C1660 C1659 1.374 . S
C1661 C1658 1.499 . S
C1661 C1662 1.373 . S
C1661 C1663 1.389 . S
C1662 H1635 0.950 . S
C1662 C1648 1.377 . S
C1662 C1661 1.373 . S
C1663 C1647 1.377 . S
C1663 C1661 1.389 . S
C1663 C1664 1.524 . S
C1664 C1663 1.524 . S
C1664 C1665 1.397 . S
C1664 C1669 1.363 . S
C1665 H1636 0.950 . S
C1665 C1664 1.397 . S
C1665 C1666 1.334 . S
C1666 H1637 0.950 . S
C1666 C1665 1.334 . S
C1666 C1667 1.287 . S
C1667 C1666 1.287 . S
C1667 C1668 1.524 . S
C1667 H1670 0.999 . S
C1668 H1638 0.950 . S
C1668 C1667 1.524 . S
C1668 C1669 1.415 . S
C1669 H1639 0.950 . S
C1669 C1664 1.363 . S
C1669 C1668 1.415 . S
H1670 C1667 0.999 . S
H1671 C1652 0.913 . S
C491 C1 1.315 . S
C506 C327 1.325 . S
C541 C40 1.247 . S
C556 C367 1.266 . S
C606 C401 2.158 . S
C591 C99 2.181 . S
C641 C118 2.642 . S
C656 C442 2.594 . S
C706 C362 1.428 . S
C691 C16 1.411 . S
C756 C322 2.199 . S
C741 C60 2.135 . S
C806 C450 1.454 . S
C791 C79 1.465 . S
C856 C411 1.746 . S
C841 C138 1.796 . S
C891 C21 1.189 . S
C906 C447 1.202 . S
C956 C370 1.933 . S
C941 C94 1.981 . S
C991 C133 2.464 . S
C1006 C330 2.395 . S
C1041 C55 1.549 . S
C1056 C398 1.589 . S
C1106 C318 1.329 . S
C1091 C157 1.323 . S
C1141 C196 1.241 . S
C1156 C358 1.266 . S
C1191 C255 2.185 . S
C1206 C410 2.157 . S
C1241 C289 2.636 . S
C1256 C451 2.590 . S
C1291 C172 1.405 . S
C1306 C371 1.424 . S
C1356 C331 2.200 . S
C1341 C216 2.116 . S
C1406 C441 1.453 . S
C1391 C235 1.468 . S
C1456 C402 1.743 . S
C1441 C294 1.798 . S
C1491 C177 1.198 . S
C1506 C438 1.201 . S
C1556 C361 1.934 . S
C1541 C250 1.981 . S
C1606 C321 2.399 . S
C1591 C274 2.469 . S
C1641 C211 1.551 . S
C1656 C407 1.586 . S
