# Generated by pormake.
# Topology sqc, (4,8)-cn, num edge types: 1
# Building blocks:
#     Node 0, Type 0, BuildingBlock: MUDLON_clean_linker_0, # of connection points: 4
#     Node 1, Type 0, BuildingBlock: MUDLON_clean_linker_0, # of connection points: 4
#     Node 2, Type 0, BuildingBlock: MUDLON_clean_linker_0, # of connection points: 4
#     Node 3, Type 0, BuildingBlock: MUDLON_clean_linker_0, # of connection points: 4
#     Node 4, Type 0, BuildingBlock: MUDLON_clean_linker_0, # of connection points: 4
#     Node 5, Type 0, BuildingBlock: MUDLON_clean_linker_0, # of connection points: 4
#     Node 6, Type 0, BuildingBlock: MUDLON_clean_linker_0, # of connection points: 4
#     Node 7, Type 0, BuildingBlock: MUDLON_clean_linker_0, # of connection points: 4
#     Node 8, Type 1, BuildingBlock: TAGTUT_clean_sbu_3, # of connection points: 8
#     Node 9, Type 1, BuildingBlock: TAGTUT_clean_sbu_3, # of connection points: 8
#     Node 10, Type 1, BuildingBlock: TAGTUT_clean_sbu_3, # of connection points: 8
#     Node 11, Type 1, BuildingBlock: TAGTUT_clean_sbu_3, # of connection points: 8
#     Edge 12, Type (0, 1), BuildingBlock: ZUJKAS_clean_linker_0, # of connection points: 2
#     Edge 13, Type (0, 1), BuildingBlock: ZUJKAS_clean_linker_0, # of connection points: 2
#     Edge 14, Type (0, 1), BuildingBlock: ZUJKAS_clean_linker_0, # of connection points: 2
#     Edge 15, Type (0, 1), BuildingBlock: ZUJKAS_clean_linker_0, # of connection points: 2
#     Edge 16, Type (0, 1), BuildingBlock: ZUJKAS_clean_linker_0, # of connection points: 2
#     Edge 17, Type (0, 1), BuildingBlock: ZUJKAS_clean_linker_0, # of connection points: 2
#     Edge 18, Type (0, 1), BuildingBlock: ZUJKAS_clean_linker_0, # of connection points: 2
#     Edge 19, Type (0, 1), BuildingBlock: ZUJKAS_clean_linker_0, # of connection points: 2
#     Edge 20, Type (0, 1), BuildingBlock: ZUJKAS_clean_linker_0, # of connection points: 2
#     Edge 21, Type (0, 1), BuildingBlock: ZUJKAS_clean_linker_0, # of connection points: 2
#     Edge 22, Type (0, 1), BuildingBlock: ZUJKAS_clean_linker_0, # of connection points: 2
#     Edge 23, Type (0, 1), BuildingBlock: ZUJKAS_clean_linker_0, # of connection points: 2
#     Edge 24, Type (0, 1), BuildingBlock: ZUJKAS_clean_linker_0, # of connection points: 2
#     Edge 25, Type (0, 1), BuildingBlock: ZUJKAS_clean_linker_0, # of connection points: 2
#     Edge 26, Type (0, 1), BuildingBlock: ZUJKAS_clean_linker_0, # of connection points: 2
#     Edge 27, Type (0, 1), BuildingBlock: ZUJKAS_clean_linker_0, # of connection points: 2
#     Edge 28, Type (0, 1), BuildingBlock: ZUJKAS_clean_linker_0, # of connection points: 2
#     Edge 29, Type (0, 1), BuildingBlock: ZUJKAS_clean_linker_0, # of connection points: 2
#     Edge 30, Type (0, 1), BuildingBlock: ZUJKAS_clean_linker_0, # of connection points: 2
#     Edge 31, Type (0, 1), BuildingBlock: ZUJKAS_clean_linker_0, # of connection points: 2
#     Edge 32, Type (0, 1), BuildingBlock: ZUJKAS_clean_linker_0, # of connection points: 2
#     Edge 33, Type (0, 1), BuildingBlock: ZUJKAS_clean_linker_0, # of connection points: 2
#     Edge 34, Type (0, 1), BuildingBlock: ZUJKAS_clean_linker_0, # of connection points: 2
#     Edge 35, Type (0, 1), BuildingBlock: ZUJKAS_clean_linker_0, # of connection points: 2
#     Edge 36, Type (0, 1), BuildingBlock: ZUJKAS_clean_linker_0, # of connection points: 2
#     Edge 37, Type (0, 1), BuildingBlock: ZUJKAS_clean_linker_0, # of connection points: 2
#     Edge 38, Type (0, 1), BuildingBlock: ZUJKAS_clean_linker_0, # of connection points: 2
#     Edge 39, Type (0, 1), BuildingBlock: ZUJKAS_clean_linker_0, # of connection points: 2
#     Edge 40, Type (0, 1), BuildingBlock: ZUJKAS_clean_linker_0, # of connection points: 2
#     Edge 41, Type (0, 1), BuildingBlock: ZUJKAS_clean_linker_0, # of connection points: 2
#     Edge 42, Type (0, 1), BuildingBlock: ZUJKAS_clean_linker_0, # of connection points: 2
#     Edge 43, Type (0, 1), BuildingBlock: ZUJKAS_clean_linker_0, # of connection points: 2
# Relax obj value: 0.180
# Max RMSD: 0.279
# Mean RMSD: 0.217
data_MOF--net-sqc--node1-TAGTUT_clean_sbu_3--node2-MUDLON_clean_linker_0--edge1-ZUJKAS_clean_linker_0
_symmetry_space_group_name_H-M    P1
_symmetry_Int_Tables_number       1
_symmetry_cell_setting            triclinic
loop_
_symmetry_equiv_pos_as_xyz
'x, y, z'
_cell_length_a     38.539503
_cell_length_b     38.52706
_cell_length_c     109.41415
_cell_angle_alpha  90.594908
_cell_angle_beta   90.00343
_cell_angle_gamma 89.96246
loop_
_atom_site_label
_atom_site_type_symbol
_atom_site_fract_x
_atom_site_fract_y
_atom_site_fract_z
_atom_type_partial_charge
H0 H 0.88691 0.93165 0.54161 0.0
N1 N 0.91156 0.95372 0.52044 0.0
H2 H 0.84664 0.96228 0.55529 0.0
H3 H 0.89302 0.0221 0.51886 0.0
H4 H 0.85321 0.05292 0.53248 0.0
H5 H 0.90746 0.99417 0.50007 0.0
H6 H 0.86664 0.98589 0.48311 0.0
H7 H 0.87321 0.89823 0.51592 0.0
H8 H 0.83259 0.88953 0.49901 0.0
H9 H 0.95513 0.90238 0.52477 0.0
H10 H 0.95175 0.01048 0.51519 0.0
H11 H 0.0185 0.90437 0.52514 0.0
H12 H 0.01517 0.01312 0.51586 0.0
H13 H 0.21668 0.94534 0.5413 0.0
H14 H 0.25351 0.98701 0.55207 0.0
H15 H 0.20181 0.07107 0.53352 0.0
H16 H 0.16589 0.02881 0.52247 0.0
H17 H 0.1943 0.99663 0.50479 0.0
H18 H 0.23357 0.97673 0.48864 0.0
H19 H 0.23003 0.87295 0.50318 0.0
H20 H 0.19057 0.89315 0.51931 0.0
H21 H 0.12643 0.92826 0.53894 0.0
H22 H 0.0631 0.92878 0.5379 0.0
H23 H 0.06814 0.99283 0.50574 0.0
N24 N 0.17089 0.95798 0.52393 0.0
H25 H 0.13156 0.99288 0.5071 0.0
C26 C 0.89305 0.9745 0.52927 0.0
C27 C 0.88022 0.9584 0.53975 0.0
C28 C 0.85721 0.9759 0.54752 0.0
C29 C 0.84649 0.00989 0.54487 0.0
C30 C 0.86058 0.02655 0.53464 0.0
C31 C 0.88371 0.00905 0.52691 0.0
C32 C 0.89317 0.94674 0.50926 0.0
C33 C 0.89162 0.97103 0.49978 0.0
C34 C 0.86815 0.96638 0.49014 0.0
C35 C 0.84624 0.93719 0.48978 0.0
C36 C 0.84931 0.91211 0.49895 0.0
C37 C 0.87249 0.91695 0.5086 0.0
C38 C 0.94877 0.95617 0.52006 0.0
C39 C 0.96818 0.92655 0.52276 0.0
C40 C 0.00434 0.92787 0.52305 0.0
C41 C 0.02197 0.95905 0.52069 0.0
C42 C 0.00244 0.98866 0.51767 0.0
C43 C 0.9661 0.98724 0.51735 0.0
C44 C 0.18848 0.98389 0.53119 0.0
C45 C 0.21298 0.97281 0.53974 0.0
C46 C 0.2339 0.99674 0.5459 0.0
C47 C 0.23064 0.03251 0.54369 0.0
C48 C 0.20531 0.04372 0.53533 0.0
C49 C 0.18446 0.01961 0.5291 0.0
C50 C 0.18959 0.94624 0.51328 0.0
C51 C 0.20144 0.96949 0.50438 0.0
C52 C 0.22412 0.95814 0.49521 0.0
C53 C 0.23515 0.92335 0.49471 0.0
C54 C 0.22184 0.89985 0.50326 0.0
C55 C 0.19933 0.91128 0.51247 0.0
C56 C 0.13367 0.96017 0.52308 0.0
C57 C 0.11378 0.9425 0.53171 0.0
C58 C 0.07763 0.94265 0.53103 0.0
C59 C 0.06049 0.96048 0.52163 0.0
C60 C 0.08049 0.97896 0.51312 0.0
C61 C 0.1168 0.97885 0.51384 0.0
H62 H 0.3463 0.56688 0.77641 0.0
N63 N 0.30418 0.59578 0.75901 0.0
H64 H 0.32955 0.52329 0.79129 0.0
H65 H 0.24083 0.57212 0.76345 0.0
H66 H 0.2238 0.52809 0.77828 0.0
H67 H 0.29111 0.56014 0.73871 0.0
H68 H 0.33301 0.53265 0.72488 0.0
H69 H 0.37486 0.60006 0.76083 0.0
H70 H 0.41712 0.57241 0.74706 0.0
H71 H 0.32722 0.62792 0.78024 0.0
H72 H 0.28987 0.64651 0.74373 0.0
H73 H 0.33331 0.68994 0.78369 0.0
H74 H 0.29849 0.70854 0.74672 0.0
H75 H 0.36776 0.89901 0.78577 0.0
H76 H 0.33536 0.94142 0.79801 0.0
H77 H 0.23924 0.89351 0.78649 0.0
H78 H 0.2715 0.85229 0.77405 0.0
H79 H 0.29784 0.88252 0.75471 0.0
H80 H 0.31371 0.91521 0.73664 0.0
H81 H 0.42151 0.88878 0.74241 0.0
H82 H 0.40533 0.85713 0.76085 0.0
H83 H 0.37652 0.80008 0.78145 0.0
H84 H 0.36681 0.73772 0.77916 0.0
H85 H 0.27872 0.75849 0.75578 0.0
N86 N 0.34262 0.85119 0.77064 0.0
H87 H 0.29068 0.82018 0.75731 0.0
C88 C 0.29466 0.57283 0.76879 0.0
C89 C 0.31947 0.55884 0.7768 0.0
C90 C 0.3099 0.53369 0.78527 0.0
C91 C 0.2754 0.52203 0.78591 0.0
C92 C 0.25053 0.53674 0.7781 0.0
C93 C 0.26014 0.56186 0.76963 0.0
C94 C 0.32984 0.58181 0.75077 0.0
C95 C 0.3186 0.56316 0.74048 0.0
C96 C 0.34255 0.54773 0.73258 0.0
C97 C 0.37834 0.55052 0.73488 0.0
C98 C 0.38969 0.56971 0.74512 0.0
C99 C 0.36562 0.58545 0.75298 0.0
C100 C 0.30754 0.63238 0.76171 0.0
C101 C 0.3203 0.6452 0.77293 0.0
C102 C 0.32421 0.68096 0.77485 0.0
C103 C 0.31639 0.70464 0.76551 0.0
C104 C 0.30395 0.69151 0.75428 0.0
C105 C 0.29928 0.65593 0.75249 0.0
C106 C 0.32242 0.87225 0.77901 0.0
C107 C 0.33971 0.89738 0.78607 0.0
C108 C 0.32112 0.92155 0.79306 0.0
C109 C 0.28463 0.92101 0.79318 0.0
C110 C 0.26729 0.89505 0.78644 0.0
C111 C 0.28592 0.87103 0.77938 0.0
C112 C 0.35061 0.86774 0.75923 0.0
C113 C 0.32485 0.88351 0.75206 0.0
C114 C 0.33398 0.90204 0.74164 0.0
C115 C 0.36895 0.9049 0.7381 0.0
C116 C 0.39441 0.88772 0.745 0.0
C117 C 0.38527 0.86942 0.75547 0.0
C118 C 0.3342 0.81482 0.76972 0.0
C119 C 0.35508 0.79097 0.77588 0.0
C120 C 0.34923 0.75531 0.77462 0.0
C121 C 0.32187 0.74272 0.76729 0.0
C122 C 0.30048 0.7669 0.76132 0.0
C123 C 0.30692 0.80247 0.76235 0.0
H124 H 0.76416 0.05545 0.04525 0.0
N125 N 0.73058 0.04351 0.02449 0.0
H126 H 0.79867 0.01445 0.05715 0.0
H127 H 0.74058 0.97411 0.01918 0.0
H128 H 0.77417 0.93313 0.03106 0.0
H129 H 0.76751 0.01466 0.00544 0.0
H130 H 0.79976 0.04586 0.98992 0.0
H131 H 0.73797 0.11172 0.02248 0.0
H132 H 0.77094 0.14333 0.00693 0.0
H133 H 0.67429 0.06058 0.0371 0.0
H134 H 0.70756 0.00506 0.00475 0.0
H135 H 0.61427 0.0434 0.03299 0.0
H136 H 0.64856 0.98624 0.00096 0.0
H137 H 0.456 0.00471 0.02516 0.0
H138 H 0.42134 0.98609 0.04254 0.0
H139 H 0.43798 0.87894 0.03197 0.0
H140 H 0.47316 0.89798 0.01462 0.0
H141 H 0.44809 0.93833 0.98999 0.0
H142 H 0.41202 0.97134 0.97585 0.0
H143 H 0.44635 0.06689 0.99307 0.0
H144 H 0.48106 0.03356 0.00743 0.0
H145 H 0.52067 0.97268 0.03054 0.0
H146 H 0.57875 0.99357 0.03377 0.0
H147 H 0.59294 0.00328 0.99479 0.0
N148 N 0.48738 0.96272 0.0081 0.0
H149 H 0.53484 0.98053 0.99141 0.0
C150 C 0.74971 0.01811 0.03136 0.0
C151 C 0.76619 0.02873 0.04216 0.0
C152 C 0.78566 0.00522 0.04897 0.0
C153 C 0.78906 0.97049 0.04505 0.0
C154 C 0.77233 0.95977 0.03425 0.0
C155 C 0.75287 0.9833 0.02746 0.0
C156 C 0.75001 0.06096 0.01513 0.0
C157 C 0.76767 0.04268 0.00583 0.0
C158 C 0.7861 0.06057 0.99691 0.0
C159 C 0.78763 0.097 0.99719 0.0
C160 C 0.77022 0.11523 0.00653 0.0
C161 C 0.7514 0.0973 0.01537 0.0
C162 C 0.69549 0.03406 0.02135 0.0
C163 C 0.66862 0.04465 0.02914 0.0
C164 C 0.63444 0.03452 0.02682 0.0
C165 C 0.62652 0.01315 0.01669 0.0
C166 C 0.65351 0.00306 0.00876 0.0
C167 C 0.68756 0.01361 0.011 0.0
C168 C 0.46693 0.95258 0.01852 0.0
C169 C 0.45198 0.97725 0.02651 0.0
C170 C 0.43219 0.96654 0.03646 0.0
C171 C 0.42682 0.93102 0.03862 0.0
C172 C 0.44199 0.90646 0.03065 0.0
C173 C 0.46186 0.91722 0.02071 0.0
C174 C 0.46734 0.98334 -0.00031 0.0
C175 C 0.44778 0.9664 0.99065 0.0
C176 C 0.42742 0.98537 0.98254 0.0
C177 C 0.42638 0.02185 0.98327 0.0
C178 C 0.44616 0.03884 0.99233 0.0
C179 C 0.46623 0.01981 0.00052 0.0
C180 C 0.52208 0.97595 0.0106 0.0
C181 C 0.53554 0.97957 0.02256 0.0
C182 C 0.5692 0.99178 0.02448 0.0
C183 C 0.59049 0.00066 0.01457 0.0
C184 C 0.57742 0.99654 0.00266 0.0
C185 C 0.54394 0.98385 0.00071 0.0
H186 H 0.34083 0.44905 0.26718 0.0
N187 N 0.37396 0.40583 0.25087 0.0
H188 H 0.3675 0.48286 0.28348 0.0
H189 H 0.44009 0.40376 0.25815 0.0
H190 H 0.46723 0.4379 0.27472 0.0
H191 H 0.4013 0.44376 0.23313 0.0
H192 H 0.37239 0.4883 0.22095 0.0
H193 H 0.30432 0.42053 0.25088 0.0
H194 H 0.27546 0.46519 0.23898 0.0
H195 H 0.34167 0.3844 0.27222 0.0
H196 H 0.36636 0.35312 0.23521 0.0
H197 H 0.31541 0.32883 0.27581 0.0
H198 H 0.33741 0.29764 0.23851 0.0
H199 H 0.24836 0.15075 0.29207 0.0
H200 H 0.28161 0.12042 0.30782 0.0
H201 H 0.37518 0.13463 0.28674 0.0
H202 H 0.34215 0.16421 0.27112 0.0
H203 H 0.30901 0.12795 0.25698 0.0
H204 H 0.28573 0.08282 0.24367 0.0
H205 H 0.18178 0.11993 0.25091 0.0
H206 H 0.20549 0.16458 0.26465 0.0
H207 H 0.24777 0.23577 0.2782 0.0
H208 H 0.26869 0.29307 0.2724 0.0
H209 H 0.34312 0.24464 0.24799 0.0
N210 N 0.27137 0.17446 0.27084 0.0
H211 H 0.31998 0.18804 0.2531 0.0
C212 C 0.38863 0.42408 0.26127 0.0
C213 C 0.36842 0.44638 0.26866 0.0
C214 C 0.38372 0.46577 0.27802 0.0
C215 C 0.41952 0.46338 0.28024 0.0
C216 C 0.43956 0.4402 0.27319 0.0
C217 C 0.42418 0.42081 0.26374 0.0
C218 C 0.35509 0.42865 0.24283 0.0
C219 C 0.37369 0.44796 0.23425 0.0
C220 C 0.35722 0.47361 0.22742 0.0
C221 C 0.32167 0.48045 0.22905 0.0
C222 C 0.30278 0.46032 0.23739 0.0
C223 C 0.31928 0.43471 0.24422 0.0
C224 C 0.35681 0.37317 0.25338 0.0
C225 C 0.34134 0.36588 0.26475 0.0
C226 C 0.32564 0.33382 0.26679 0.0
C227 C 0.32403 0.3084 0.25747 0.0
C228 C 0.33866 0.3161 0.24602 0.0
C229 C 0.35506 0.34795 0.24407 0.0
C230 C 0.29247 0.15981 0.28039 0.0
C231 C 0.27612 0.14767 0.29096 0.0
C232 C 0.29515 0.1305 0.29995 0.0
C233 C 0.33097 0.125 0.29847 0.0
C234 C 0.34753 0.1381 0.28806 0.0
C235 C 0.32855 0.15531 0.27911 0.0
C236 C 0.25887 0.1497 0.26189 0.0
C237 C 0.28126 0.12671 0.25567 0.0
C238 C 0.26785 0.10085 0.24798 0.0
C239 C 0.23182 0.09754 0.24625 0.0
C240 C 0.2096 0.1213 0.2522 0.0
C241 C 0.22307 0.14704 0.25995 0.0
C242 C 0.28256 0.20761 0.26629 0.0
C243 C 0.26822 0.23773 0.27145 0.0
C244 C 0.28058 0.27044 0.26821 0.0
C245 C 0.30824 0.27375 0.25989 0.0
C246 C 0.32168 0.24342 0.25436 0.0
C247 C 0.3087 0.21075 0.2574 0.0
H248 H 0.90591 0.07045 0.29327 0.0
N249 N 0.87347 0.10509 0.2758 0.0
H250 H 0.88193 0.02545 0.3065 0.0
H251 H 0.8042 0.08696 0.27786 0.0
H252 H 0.7804 0.04298 0.29104 0.0
H253 H 0.83949 0.06032 0.26026 0.0
H254 H 0.86441 0.02901 0.24301 0.0
H255 H 0.93816 0.10917 0.26744 0.0
H256 H 0.96353 0.07774 0.24994 0.0
H257 H 0.89115 0.16675 0.28488 0.0
H258 H 0.81786 0.11723 0.26061 0.0
H259 H 0.86595 0.22325 0.28016 0.0
H260 H 0.79059 0.17247 0.25673 0.0
H261 H 0.80447 0.38181 0.26908 0.0
H262 H 0.78083 0.42502 0.28314 0.0
H263 H 0.67782 0.38388 0.27702 0.0
H264 H 0.70179 0.34163 0.26242 0.0
H265 H 0.74172 0.36908 0.23606 0.0
H266 H 0.77331 0.40365 0.22115 0.0
H267 H 0.87009 0.37537 0.23844 0.0
H268 H 0.83804 0.34245 0.25365 0.0
H269 H 0.79717 0.31761 0.27729 0.0
H270 H 0.82054 0.26144 0.28264 0.0
H271 H 0.79649 0.22286 0.24632 0.0
N272 N 0.76739 0.33549 0.25511 0.0
H273 H 0.7704 0.27845 0.24141 0.0
C274 C 0.85719 0.08242 0.28455 0.0
C275 C 0.87837 0.06492 0.2929 0.0
C276 C 0.86466 0.03921 0.30043 0.0
C277 C 0.82933 0.03038 0.2997 0.0
C278 C 0.80786 0.04871 0.29164 0.0
C279 C 0.82156 0.07437 0.28414 0.0
C280 C 0.88704 0.08728 0.26517 0.0
C281 C 0.86644 0.06473 0.25805 0.0
C282 C 0.88073 0.04687 0.24811 0.0
C283 C 0.91591 0.05104 0.24507 0.0
C284 C 0.9364 0.07386 0.25211 0.0
C285 C 0.92198 0.09189 0.26205 0.0
C286 C 0.8563 0.13759 0.2733 0.0
C287 C 0.86915 0.16801 0.27874 0.0
C288 C 0.85444 0.20029 0.27609 0.0
C289 C 0.82599 0.20278 0.26805 0.0
C290 C 0.81284 0.17201 0.26276 0.0
C291 C 0.82816 0.13997 0.26517 0.0
C292 C 0.75473 0.35863 0.26458 0.0
C293 C 0.77682 0.38202 0.27076 0.0
C294 C 0.76322 0.4066 0.27891 0.0
C295 C 0.72731 0.40817 0.28119 0.0
C296 C 0.70549 0.38391 0.27532 0.0
C297 C 0.71912 0.35949 0.26708 0.0
C298 C 0.78738 0.35305 0.24589 0.0
C299 C 0.76977 0.37018 0.23653 0.0
C300 C 0.78795 0.38972 0.22798 0.0
C301 C 0.82434 0.39231 0.22855 0.0
C302 C 0.84207 0.3744 0.23781 0.0
C303 C 0.8238 0.35521 0.24645 0.0
C304 C 0.7814 0.3024 0.25889 0.0
C305 C 0.79631 0.2971 0.27049 0.0
C306 C 0.81024 0.26476 0.27352 0.0
C307 C 0.81052 0.23719 0.26496 0.0
C308 C 0.79604 0.24287 0.25333 0.0
C309 C 0.78133 0.27484 0.25043 0.0
H310 H 0.78732 0.94826 0.78864 0.0
N311 N 0.80701 0.91989 0.76757 0.0
H312 H 0.82447 0.97195 0.8049 0.0
H313 H 0.8783 0.91636 0.7685 0.0
H314 H 0.91528 0.93992 0.78459 0.0
H315 H 0.85474 0.95626 0.75408 0.0
H316 H 0.84209 0.00207 0.73963 0.0
H317 H 0.74533 0.93932 0.75949 0.0
H318 H 0.73221 0.98346 0.74435 0.0
H319 H 0.76453 0.86995 0.77454 0.0
H320 H 0.85348 0.88948 0.75184 0.0
H321 H 0.76827 0.8081 0.7697 0.0
H322 H 0.85978 0.82751 0.74785 0.0
H323 H 0.80496 0.63554 0.77127 0.0
H324 H 0.82682 0.60397 0.78876 0.0
H325 H 0.93198 0.6265 0.7777 0.0
H326 H 0.90967 0.65878 0.76013 0.0
H327 H 0.86347 0.62068 0.7364 0.0
H328 H 0.8274 0.57802 0.72565 0.0
H329 H 0.73642 0.61965 0.74367 0.0
H330 H 0.77266 0.66275 0.75414 0.0
H331 H 0.8104 0.69904 0.77258 0.0
H332 H 0.80008 0.76046 0.77483 0.0
H333 H 0.84111 0.77704 0.73853 0.0
N334 N 0.84374 0.66618 0.75333 0.0
H335 H 0.85417 0.71511 0.7368 0.0
C336 C 0.8298 0.93076 0.77733 0.0
C337 C 0.81523 0.94597 0.78781 0.0
C338 C 0.83646 0.95928 0.79709 0.0
C339 C 0.87276 0.95781 0.79597 0.0
C340 C 0.88738 0.94162 0.78563 0.0
C341 C 0.86613 0.92805 0.77642 0.0
C342 C 0.80081 0.94479 0.75809 0.0
C343 C 0.82794 0.96215 0.7521 0.0
C344 C 0.82061 0.98827 0.7437 0.0
C345 C 0.78606 0.99704 0.7409 0.0
C346 C 0.75912 0.97837 0.74652 0.0
C347 C 0.76649 0.95278 0.75507 0.0
C348 C 0.80915 0.88407 0.76383 0.0
C349 C 0.78507 0.86069 0.76859 0.0
C350 C 0.78757 0.82529 0.7659 0.0
C351 C 0.81485 0.81235 0.75859 0.0
C352 C 0.83828 0.83623 0.75346 0.0
C353 C 0.83514 0.87179 0.7559 0.0
C354 C 0.85581 0.64938 0.76428 0.0
C355 C 0.83271 0.63391 0.77257 0.0
C356 C 0.84525 0.61574 0.78259 0.0
C357 C 0.88112 0.61245 0.78455 0.0
C358 C 0.90419 0.6288 0.77648 0.0
C359 C 0.89156 0.64707 0.76643 0.0
C360 C 0.82088 0.64483 0.74602 0.0
C361 C 0.83566 0.62093 0.73783 0.0
C362 C 0.81506 0.59636 0.73183 0.0
C363 C 0.7791 0.5951 0.73395 0.0
C364 C 0.76401 0.62002 0.7418 0.0
C365 C 0.7847 0.64469 0.74779 0.0
C366 C 0.83403 0.70229 0.75458 0.0
C367 C 0.81753 0.71561 0.7651 0.0
C368 C 0.81107 0.75112 0.76631 0.0
C369 C 0.81987 0.77417 0.75689 0.0
C370 C 0.83476 0.76044 0.74613 0.0
C371 C 0.84196 0.72497 0.74505 0.0
H372 H 0.383 0.58276 0.98844 0.0
N373 N 0.4189 0.54917 0.00524 0.0
H374 H 0.34306 0.55786 0.97335 0.0
H375 H 0.41355 0.4798 -0.00082 0.0
H376 H 0.37449 0.45485 0.98403 0.0
H377 H 0.38061 0.50131 0.01785 0.0
H378 H 0.33749 0.51392 0.03354 0.0
H379 H 0.40654 0.60995 0.016 0.0
H380 H 0.36377 0.62283 0.03197 0.0
H381 H 0.47595 0.58159 -0.00182 0.0
H382 H 0.44105 0.49219 0.01805 0.0
H383 H 0.53622 0.56581 0.00233 0.0
H384 H 0.50085 0.47506 0.02166 0.0
H385 H 0.70357 0.50899 0.00407 0.0
H386 H 0.74096 0.47993 0.9894 0.0
H387 H 0.70597 0.38036 0.0025 0.0
H388 H 0.66951 0.41012 0.01771 0.0
H389 H 0.70555 0.4617 0.04058 0.0
H390 H 0.74756 0.49898 0.05114 0.0
H391 H 0.71413 0.58589 0.02944 0.0
H392 H 0.67195 0.54856 0.01905 0.0
H393 H 0.6401 0.51042 0.00134 0.0
H394 H 0.58028 0.52634 0.99727 0.0
H395 H 0.55066 0.48915 0.03294 0.0
N396 N 0.6649 0.47816 0.02198 0.0
H397 H 0.6106 0.47139 0.03663 0.0
C398 C 0.40133 0.53339 0.99496 0.0
C399 C 0.38184 0.55483 0.98729 0.0
C400 C 0.35904 0.54054 0.97868 0.0
C401 C 0.35528 0.50435 0.9776 0.0
C402 C 0.37631 0.48284 0.98481 0.0
C403 C 0.39905 0.49717 0.99342 0.0
C404 C 0.3969 0.55486 0.01573 0.0
C405 C 0.37763 0.52782 0.021 0.0
C406 C 0.35288 0.53507 0.03 0.0
C407 C 0.34688 0.56943 0.03391 0.0
C408 C 0.36725 0.59616 0.02898 0.0
C409 C 0.39196 0.58887 0.01998 0.0
C410 C 0.45396 0.53811 0.00769 0.0
C411 C 0.48136 0.55832 0.00331 0.0
C412 C 0.51579 0.54906 0.00563 0.0
C413 C 0.52362 0.51901 0.01231 0.0
C414 C 0.49597 0.49866 0.01665 0.0
C415 C 0.46154 0.50824 0.01447 0.0
C416 C 0.68385 0.46166 0.01211 0.0
C417 C 0.70366 0.48094 0.00379 0.0
C418 C 0.72493 0.46416 0.99528 0.0
C419 C 0.72667 0.4277 0.99476 0.0
C420 C 0.70576 0.40846 0.00277 0.0
C421 C 0.68465 0.42535 0.01138 0.0
C422 C 0.68555 0.50221 0.02909 0.0
C423 C 0.70689 0.48895 0.03829 0.0
C424 C 0.73109 0.51019 0.0442 0.0
C425 C 0.73446 0.54528 0.04101 0.0
C426 C 0.71203 0.55901 0.03214 0.0
C427 C 0.68784 0.53767 0.0262 0.0
C428 C 0.62987 0.48905 0.01928 0.0
C429 C 0.62084 0.50529 0.00826 0.0
C430 C 0.58644 0.51482 0.00599 0.0
C431 C 0.56036 0.50897 0.01474 0.0
C432 C 0.56973 0.4934 0.02585 0.0
C433 C 0.60404 0.48347 0.02804 0.0
H434 H 0.26711 0.56909 0.54546 0.0
N435 N 0.23142 0.55783 0.52505 0.0
H436 H 0.30074 0.52706 0.55725 0.0
H437 H 0.23718 0.48748 0.5203 0.0
H438 H 0.26961 0.44567 0.5321 0.0
H439 H 0.2709 0.52666 0.5071 0.0
H440 H 0.30434 0.55577 0.49143 0.0
H441 H 0.23814 0.62573 0.52177 0.0
H442 H 0.27176 0.65531 0.50591 0.0
H443 H 0.17429 0.57586 0.5371 0.0
H444 H 0.20934 0.52016 0.50502 0.0
H445 H 0.1144 0.55952 0.53239 0.0
H446 H 0.15065 0.50167 0.50076 0.0
H447 H 0.95093 0.50806 0.52295 0.0
H448 H 0.91795 0.484 0.53979 0.0
H449 H 0.95682 0.38164 0.53072 0.0
H450 H 0.98876 0.40599 0.51344 0.0
H451 H 0.96093 0.44509 0.48693 0.0
H452 H 0.92496 0.47529 0.47191 0.0
H453 H 0.9392 0.57142 0.49195 0.0
H454 H 0.97532 0.54112 0.50685 0.0
H455 H 0.02038 0.48889 0.52928 0.0
H456 H 0.07748 0.51194 0.533 0.0
H457 H 0.09603 0.51635 0.49407 0.0
N458 N 0.99158 0.47195 0.50662 0.0
H459 H 0.03944 0.4906 0.49032 0.0
C460 C 0.24944 0.53177 0.53202 0.0
C461 C 0.26744 0.54212 0.54257 0.0
C462 C 0.28643 0.51804 0.54931 0.0
C463 C 0.28782 0.483 0.5456 0.0
C464 C 0.2694 0.47253 0.53512 0.0
C465 C 0.25049 0.49659 0.52839 0.0
C466 C 0.25188 0.5741 0.51567 0.0
C467 C 0.27074 0.55469 0.50697 0.0
C468 C 0.28977 0.5714 0.49792 0.0
C469 C 0.2905 0.60782 0.4974 0.0
C470 C 0.27183 0.62721 0.50614 0.0
C471 C 0.25259 0.61042 0.51516 0.0
C472 C 0.19639 0.54909 0.52155 0.0
C473 C 0.16904 0.56004 0.52907 0.0
C474 C 0.1349 0.55035 0.52641 0.0
C475 C 0.1275 0.52893 0.51623 0.0
C476 C 0.15501 0.51861 0.50856 0.0
C477 C 0.18895 0.52891 0.51109 0.0
C478 C 0.97193 0.45861 0.51678 0.0
C479 C 0.95203 0.48041 0.52444 0.0
C480 C 0.93357 0.46663 0.53422 0.0
C481 C 0.93477 0.43086 0.53664 0.0
C482 C 0.95495 0.40922 0.52902 0.0
C483 C 0.97331 0.42303 0.51919 0.0
C484 C 0.9705 0.49071 0.49801 0.0
C485 C 0.95624 0.47267 0.48804 0.0
C486 C 0.93595 0.48997 0.47946 0.0
C487 C 0.92934 0.52569 0.48078 0.0
C488 C 0.94361 0.54382 0.49079 0.0
C489 C 0.96418 0.52654 0.49931 0.0
C490 C 0.02479 0.48805 0.50938 0.0
C491 C 0.03623 0.49478 0.52143 0.0
C492 C 0.06923 0.50844 0.52361 0.0
C493 C 0.0916 0.51621 0.51386 0.0
C494 C 0.07993 0.51016 0.50185 0.0
C495 C 0.04728 0.49576 0.49967 0.0
C496 C 0.10973 0.69305 0.15729 0.0
C497 C 0.98331 0.64744 0.15187 0.0
C498 C 0.98778 0.69968 0.11714 0.0
Mg499 Mg 0.14781 0.76079 0.14614 0.0
Mg500 Mg 0.1046 0.82835 0.13583 0.0
O501 O 0.11011 0.78026 0.13551 0.0
Mg502 Mg 0.07134 0.74895 0.14022 0.0
O503 O 0.03536 0.71466 0.14505 0.0
Mg504 Mg 0.0534 0.67329 0.13579 0.0
Mg505 Mg 0.98794 0.72444 0.14376 0.0
C506 C 0.03545 0.80727 0.12197 0.0
O507 O 0.04594 0.78722 0.15384 0.0
O508 O 0.1856 0.79682 0.13545 0.0
O509 O 0.9887 0.77443 0.15327 0.0
O510 O 0.14117 0.80412 0.16125 0.0
O511 O 0.15396 0.84083 0.12794 0.0
O512 O 0.10451 0.8444 0.15443 0.0
O513 O 0.09431 0.70908 0.12684 0.0
O514 O 0.1504 0.71844 0.13141 0.0
C515 C 0.12667 0.70174 0.12557 0.0
C516 C 0.18284 0.82469 0.12913 0.0
O517 O 0.03759 0.77553 0.12545 0.0
O518 O 0.01207 0.6415 0.14627 0.0
O519 O 0.05675 0.83092 0.12553 0.0
O520 O 0.01391 0.68051 0.11977 0.0
O521 O 0.96935 0.67767 0.15229 0.0
O522 O 0.9753 0.72149 0.12481 0.0
O523 O 0.10638 0.72539 0.1548 0.0
O524 O 0.09176 0.66975 0.1517 0.0
C525 C 0.12349 0.83203 0.16286 0.0
C526 C 0.01428 0.79334 0.15688 0.0
C527 C 0.62915 0.80533 0.40175 0.0
C528 C 0.67657 0.67818 0.4016 0.0
C529 C 0.62268 0.67034 0.36686 0.0
Mg530 Mg 0.56033 0.83786 0.38949 0.0
Mg531 Mg 0.49355 0.79163 0.37948 0.0
O532 O 0.5416 0.79694 0.3801 0.0
Mg533 Mg 0.57323 0.76033 0.38655 0.0
O534 O 0.60835 0.72693 0.3928 0.0
Mg535 Mg 0.64929 0.74191 0.38277 0.0
Mg536 Mg 0.59946 0.67941 0.39354 0.0
C537 C 0.5164 0.71867 0.36855 0.0
O538 O 0.5353 0.73907 0.40106 0.0
O539 O 0.52366 0.87254 0.37783 0.0
O540 O 0.54994 0.68258 0.40299 0.0
O541 O 0.51666 0.83423 0.40434 0.0
O542 O 0.48101 0.83891 0.37022 0.0
O543 O 0.47614 0.79681 0.39787 0.0
O544 O 0.61283 0.77946 0.37262 0.0
O545 O 0.6031 0.83676 0.37495 0.0
C546 C 0.62006 0.81124 0.3702 0.0
C547 C 0.49624 0.86834 0.37128 0.0
O548 O 0.54702 0.72136 0.37316 0.0
O549 O 0.68236 0.70431 0.39466 0.0
O550 O 0.49255 0.74152 0.37025 0.0
O551 O 0.64146 0.6976 0.36818 0.0
O552 O 0.64627 0.66498 0.40283 0.0
O553 O 0.60248 0.66004 0.3753 0.0
O554 O 0.5967 0.80014 0.39968 0.0
O555 O 0.65265 0.7858 0.39696 0.0
C556 C 0.48833 0.8174 0.406 0.0
C557 C 0.53025 0.70865 0.40547 0.0
C558 C 0.60914 0.19643 0.65455 0.0
C559 C 0.48204 0.15266 0.65024 0.0
C560 C 0.4853 0.20233 0.61508 0.0
Mg561 Mg 0.64851 0.26217 0.64268 0.0
Mg562 Mg 0.60727 0.33064 0.63219 0.0
O563 O 0.61082 0.28237 0.63221 0.0
Mg564 Mg 0.57127 0.25236 0.63728 0.0
O565 O 0.53469 0.21894 0.64246 0.0
Mg566 Mg 0.55156 0.17652 0.6335 0.0
Mg567 Mg 0.48732 0.229 0.64147 0.0
C568 C 0.53658 0.31116 0.6189 0.0
O569 O 0.54696 0.29195 0.65077 0.0
O570 O 0.68694 0.29624 0.63154 0.0
O571 O 0.48964 0.27937 0.65062 0.0
O572 O 0.64415 0.30632 0.6575 0.0
O573 O 0.65669 0.34102 0.6239 0.0
O574 O 0.60892 0.34782 0.65068 0.0
O575 O 0.59266 0.21104 0.62409 0.0
O576 O 0.64921 0.21899 0.62829 0.0
C577 C 0.62473 0.20269 0.62273 0.0
C578 C 0.68499 0.32387 0.62507 0.0
O579 O 0.53768 0.27946 0.62252 0.0
O580 O 0.5103 0.14601 0.64444 0.0
O581 O 0.55899 0.33408 0.62219 0.0
O582 O 0.51144 0.18319 0.61771 0.0
O583 O 0.46862 0.18314 0.65059 0.0
O584 O 0.4734 0.22483 0.62262 0.0
O585 O 0.60643 0.22868 0.65184 0.0
O586 O 0.59046 0.17324 0.64921 0.0
C587 C 0.62782 0.33504 0.65906 0.0
C588 C 0.51544 0.29841 0.65395 0.0
C589 C 0.12349 0.30848 0.90626 0.0
C590 C 0.17664 0.18246 0.90472 0.0
C591 C 0.12793 0.17846 0.86918 0.0
Mg592 Mg 0.05541 0.33916 0.89311 0.0
Mg593 Mg 0.99144 0.29115 0.882 0.0
O594 O 0.0392 0.29793 0.88327 0.0
Mg595 Mg 0.07188 0.26218 0.88971 0.0
O596 O 0.10774 0.22981 0.8961 0.0
Mg597 Mg 0.14904 0.24818 0.887 0.0
Mg598 Mg 0.10039 0.18184 0.8953 0.0
C599 C 0.01805 0.21925 0.87107 0.0
O600 O 0.03394 0.23804 0.90349 0.0
O601 O 0.01951 0.37282 0.88093 0.0
O602 O 0.05008 0.18171 0.90438 0.0
O603 O 0.01041 0.3331 0.90737 0.0
O604 O 0.97883 0.33821 0.87257 0.0
O605 O 0.97201 0.2945 0.90017 0.0
O606 O 0.1119 0.28423 0.87642 0.0
O607 O 0.09918 0.34068 0.87906 0.0
C608 C 0.11772 0.31644 0.87424 0.0
C609 C 0.99336 0.36794 0.87382 0.0
O610 O 0.04844 0.22283 0.8758 0.0
O611 O 0.18197 0.21084 0.89892 0.0
O612 O 0.99339 0.24122 0.87274 0.0
O613 O 0.14584 0.20552 0.87181 0.0
O614 O 0.14715 0.16706 0.90469 0.0
O615 O 0.10566 0.16629 0.8766 0.0
O616 O 0.0918 0.30212 0.90344 0.0
O617 O 0.14876 0.29083 0.90176 0.0
C618 C 0.98271 0.31496 0.90859 0.0
C619 C 0.02959 0.20683 0.90728 0.0
H620 H 0.29506 0.95685 0.48868 0.0
H621 H 0.34022 0.93737 0.47442 0.0
H622 H 0.28164 0.84445 0.46663 0.0
H623 H 0.23611 0.86391 0.48078 0.0
H624 H 0.37862 0.87031 0.4752 0.0
H625 H 0.30242 0.89037 0.43266 0.0
H626 H 0.29149 0.91144 0.44698 0.0
H627 H 0.2812 0.86647 0.44456 0.0
C628 C 0.29158 0.93247 0.48381 0.0
C629 C 0.26191 0.91201 0.48577 0.0
C630 C 0.31753 0.92127 0.47577 0.0
C631 C 0.31409 0.88962 0.46946 0.0
C632 C 0.28457 0.8691 0.47137 0.0
H633 H 0.42891 0.78429 0.41281 0.0
H634 H 0.38925 0.80054 0.42921 0.0
C635 C 0.2587 0.88016 0.47948 0.0
C636 C 0.34137 0.87808 0.46083 0.0
H637 H 0.35694 0.86312 0.43056 0.0
C638 C 0.37404 0.86878 0.46543 0.0
C639 C 0.33514 0.87618 0.44812 0.0
C640 C 0.30078 0.88686 0.44271 0.0
C641 C 0.40055 0.85683 0.45763 0.0
C642 C 0.3943 0.85492 0.4449 0.0
C643 C 0.36165 0.86451 0.44033 0.0
C644 C 0.4209 0.84274 0.43606 0.0
C645 C 0.43462 0.84552 0.46309 0.0
C646 C 0.4523 0.86072 0.43461 0.0
C647 C 0.47531 0.8514 0.42523 0.0
C648 C 0.46705 0.8242 0.41706 0.0
C649 C 0.43613 0.8055 0.41887 0.0
C650 C 0.41336 0.81469 0.42826 0.0
H651 H 0.43212 0.83999 0.473 0.0
H652 H 0.44473 0.82197 0.45835 0.0
H653 H 0.45394 0.86661 0.46203 0.0
H654 H 0.45836 0.88287 0.4404 0.0
H655 H 0.49877 0.86647 0.42406 0.0
H656 H 0.42512 0.94802 0.73658 0.0
H657 H 0.43991 0.9875 0.72013 0.0
H658 H 0.3496 0.9541 0.69994 0.0
H659 H 0.33541 0.91311 0.71614 0.0
H660 H 0.40701 0.96112 0.68525 0.0
H661 H 0.38939 0.07829 0.71433 0.0
H662 H 0.41991 0.04829 0.72069 0.0
H663 H 0.37515 0.03582 0.71898 0.0
C664 C 0.40867 0.94852 0.72856 0.0
C665 C 0.37895 0.92744 0.72773 0.0
C666 C 0.41692 0.97151 0.71924 0.0
C667 C 0.39539 0.97432 0.70896 0.0
C668 C 0.36633 0.9526 0.70787 0.0
H669 H 0.41814 0.15304 0.66124 0.0
H670 H 0.39316 0.10819 0.67421 0.0
C671 C 0.35814 0.92938 0.71718 0.0
C672 C 0.40322 0.00017 0.69942 0.0
H673 H 0.41863 0.08642 0.69533 0.0
C674 C 0.40924 0.98858 0.68741 0.0
C675 C 0.40535 0.03605 0.7022 0.0
C676 C 0.39674 0.05043 0.71472 0.0
C677 C 0.41875 0.01181 0.67819 0.0
C678 C 0.42305 0.0474 0.68116 0.0
C679 C 0.41568 0.0591 0.69307 0.0
C680 C 0.43654 0.07285 0.67227 0.0
C681 C 0.42396 0.99799 0.66537 0.0
C682 C 0.46912 0.06781 0.66681 0.0
C683 C 0.48335 0.09324 0.65933 0.0
C684 C 0.46552 0.12454 0.6573 0.0
C685 C 0.43261 0.1293 0.66263 0.0
C686 C 0.41828 0.10368 0.67003 0.0
H687 H 0.40878 0.97386 0.66376 0.0
H688 H 0.41628 0.01742 0.65844 0.0
H689 H 0.45178 0.99159 0.66401 0.0
H690 H 0.48414 0.04468 0.66866 0.0
H691 H 0.50886 0.0888 0.65546 0.0
H692 H 0.41435 0.00917 0.95891 0.0
H693 H 0.37488 0.04002 0.94538 0.0
H694 H 0.34988 0.11185 0.97458 0.0
H695 H 0.38767 0.07993 0.98839 0.0
H696 H 0.293 0.08895 0.96372 0.0
H697 H 0.3855 0.13088 0.92815 0.0
H698 H 0.38683 0.08486 0.93039 0.0
H699 H 0.39957 0.11379 0.94262 0.0
C700 C 0.40037 0.03144 0.96249 0.0
C701 C 0.40418 0.04198 0.97477 0.0
C702 C 0.37823 0.04941 0.95467 0.0
C703 C 0.35992 0.07865 0.9589 0.0
C704 C 0.36401 0.08953 0.97109 0.0
H705 H 0.23728 0.2137 0.91192 0.0
H706 H 0.28228 0.18974 0.92518 0.0
C707 C 0.38586 0.07138 0.97895 0.0
C708 C 0.33464 0.09637 0.95088 0.0
H709 H 0.3251 0.13388 0.92294 0.0
C710 C 0.30012 0.09907 0.95486 0.0
C711 C 0.34402 0.11002 0.93938 0.0
C712 C 0.38108 0.1101 0.93494 0.0
C713 C 0.27452 0.11419 0.94753 0.0
C714 C 0.28349 0.12601 0.93575 0.0
C715 C 0.31819 0.12429 0.9319 0.0
C716 C 0.25708 0.13997 0.92728 0.0
C717 C 0.2382 0.11765 0.95257 0.0
C718 C 0.2285 0.11961 0.92381 0.0
C719 C 0.20263 0.13329 0.91635 0.0
C720 C 0.20513 0.16744 0.91203 0.0
C721 C 0.23453 0.18733 0.91511 0.0
C722 C 0.26026 0.1737 0.92269 0.0
H723 H 0.2381 0.11745 0.96273 0.0
H724 H 0.22565 0.14198 0.94947 0.0
H725 H 0.22234 0.09536 0.94933 0.0
H726 H 0.22604 0.09317 0.92697 0.0
H727 H 0.18059 0.11709 0.91402 0.0
H728 H 0.25776 0.07173 0.22466 0.0
H729 H 0.23521 0.02374 0.2123 0.0
H730 H 0.15047 0.01117 0.2376 0.0
H731 H 0.17379 0.05811 0.25038 0.0
H732 H 0.17879 0.94875 0.23069 0.0
H733 H 0.15162 0.02866 0.19002 0.0
H734 H 0.19593 0.03196 0.1949 0.0
H735 H 0.16175 0.04756 0.20474 0.0
C736 C 0.23449 0.05862 0.22768 0.0
C737 C 0.21752 0.06897 0.2385 0.0
C738 C 0.22141 0.03142 0.22052 0.0
C739 C 0.19082 0.01429 0.22392 0.0
C740 C 0.17397 0.02423 0.23476 0.0
H741 H 0.08391 0.88678 0.17044 0.0
H742 H 0.09613 0.92765 0.18696 0.0
C743 C 0.18716 0.05132 0.24198 0.0
C744 C 0.17658 0.98595 0.21614 0.0
H745 H 0.15069 0.96733 0.18702 0.0
C746 C 0.17233 0.9528 0.22116 0.0
C747 C 0.16754 0.99144 0.20379 0.0
C748 C 0.16908 0.02691 0.19807 0.0
C749 C 0.16028 0.92472 0.21403 0.0
C750 C 0.15307 0.92985 0.2015 0.0
C751 C 0.15646 0.96325 0.1966 0.0
C752 C 0.1424 0.90122 0.19312 0.0
C753 C 0.15503 0.89005 0.22003 0.0
C754 C 0.16362 0.87191 0.19133 0.0
C755 C 0.15617 0.84782 0.18202 0.0
C756 C 0.12781 0.85311 0.17417 0.0
C757 C 0.10588 0.88173 0.17634 0.0
C758 C 0.11291 0.90529 0.18576 0.0
H759 H 0.15072 0.89307 0.23003 0.0
H760 H 0.1326 0.87594 0.216 0.0
H761 H 0.17865 0.87397 0.2187 0.0
H762 H 0.18698 0.86857 0.19669 0.0
H763 H 0.1738 0.82629 0.18052 0.0
H764 H 0.26092 0.09065 0.53395 0.0
H765 H 0.30357 0.12913 0.5436 0.0
H766 H 0.29902 0.06836 0.57645 0.0
H767 H 0.25497 0.03121 0.56719 0.0
H768 H 0.30025 0.13562 0.58173 0.0
H769 H 0.40452 0.10559 0.54818 0.0
H770 H 0.36587 0.12374 0.54168 0.0
H771 H 0.36434 0.08168 0.54862 0.0
C772 C 0.26851 0.08584 0.54331 0.0
C773 C 0.25471 0.05755 0.54975 0.0
C774 C 0.29334 0.10756 0.54874 0.0
C775 C 0.30517 0.10112 0.56064 0.0
C776 C 0.29057 0.07365 0.56721 0.0
H777 H 0.48939 0.14489 0.60023 0.0
H778 H 0.4462 0.12567 0.58533 0.0
C779 C 0.26556 0.05222 0.56186 0.0
C780 C 0.33282 0.12258 0.56639 0.0
H781 H 0.41827 0.14519 0.56401 0.0
C782 C 0.326 0.13795 0.57782 0.0
C783 C 0.36648 0.12532 0.5613 0.0
C784 C 0.37596 0.10798 0.54933 0.0
C785 C 0.3521 0.15489 0.58452 0.0
C786 C 0.38579 0.15775 0.57943 0.0
C787 C 0.39237 0.14332 0.56783 0.0
C788 C 0.41517 0.17244 0.58658 0.0
C789 C 0.34366 0.16776 0.59727 0.0
C790 C 0.41322 0.20592 0.59171 0.0
C791 C 0.43748 0.21669 0.60044 0.0
C792 C 0.46477 0.19459 0.60392 0.0
C793 C 0.46868 0.16255 0.5978 0.0
C794 C 0.44396 0.15149 0.58927 0.0
H795 H 0.31941 0.156 0.60083 0.0
H796 H 0.36505 0.16182 0.60372 0.0
H797 H 0.33994 0.19631 0.59713 0.0
H798 H 0.39186 0.22299 0.58948 0.0
H799 H 0.43375 0.2416 0.60493 0.0
H800 H 0.22507 0.95406 0.78602 0.0
H801 H 0.19294 0.99922 0.79705 0.0
H802 H 0.26782 0.99595 0.82631 0.0
H803 H 0.29922 0.94963 0.81563 0.0
H804 H 0.20154 0.99641 0.83466 0.0
H805 H 0.21966 0.10077 0.80062 0.0
H806 H 0.20008 0.06193 0.79459 0.0
H807 H 0.24399 0.06074 0.80011 0.0
C808 C 0.23451 0.96263 0.79487 0.0
C809 C 0.26479 0.94819 0.79994 0.0
C810 C 0.21637 0.98884 0.80107 0.0
C811 C 0.22836 0.00141 0.81238 0.0
C812 C 0.25829 0.98682 0.81753 0.0
H813 H 0.18512 0.18439 0.85454 0.0
H814 H 0.20546 0.14219 0.83935 0.0
C815 C 0.27634 0.96049 0.81138 0.0
C816 C 0.20933 0.02911 0.81907 0.0
H817 H 0.18314 0.11369 0.81749 0.0
C818 C 0.1974 0.02203 0.8309 0.0
C819 C 0.20425 0.06258 0.81416 0.0
C820 C 0.21792 0.07218 0.80172 0.0
C821 C 0.18092 0.04757 0.83803 0.0
C822 C 0.17535 0.08093 0.83306 0.0
C823 C 0.187 0.08797 0.82119 0.0
C824 C 0.16002 0.10943 0.84048 0.0
C825 C 0.17089 0.03894 0.85099 0.0
C826 C 0.1269 0.10599 0.84565 0.0
C827 C 0.11536 0.12982 0.85446 0.0
C828 C 0.13652 0.15785 0.85809 0.0
C829 C 0.16825 0.16301 0.85202 0.0
C830 C 0.17994 0.13889 0.84332 0.0
H831 H 0.18429 0.01524 0.85426 0.0
H832 H 0.17714 0.06074 0.85733 0.0
H833 H 0.14253 0.03416 0.85141 0.0
H834 H 0.11069 0.08392 0.84333 0.0
H835 H 0.09062 0.12531 0.85884 0.0
H836 H 0.4382 0.8771 0.05429 0.0
H837 H 0.40031 0.85734 0.07082 0.0
H838 H 0.32859 0.94021 0.06308 0.0
H839 H 0.36558 0.95943 0.04635 0.0
H840 H 0.3754 0.89373 0.09196 0.0
H841 H 0.26862 0.85203 0.06115 0.0
H842 H 0.31194 0.86067 0.05569 0.0
H843 H 0.28249 0.89592 0.05877 0.0
C844 C 0.41421 0.89092 0.05606 0.0
C845 C 0.40478 0.9197 0.04896 0.0
C846 C 0.39278 0.87977 0.06555 0.0
C847 C 0.3615 0.89706 0.06804 0.0
C848 C 0.35241 0.92622 0.06117 0.0
H849 H 0.18786 0.8844 0.11603 0.0
H850 H 0.23438 0.9013 0.10224 0.0
C851 C 0.37376 0.93737 0.0517 0.0
C852 C 0.33793 0.8845 0.07769 0.0
H853 H 0.25536 0.8558 0.08237 0.0
C854 C 0.34925 0.8851 0.08989 0.0
C855 C 0.30398 0.87303 0.0749 0.0
C856 C 0.29107 0.87001 0.06191 0.0
C857 C 0.32687 0.87585 0.09945 0.0
C858 C 0.29258 0.86553 0.09667 0.0
C859 C 0.28163 0.86404 0.08445 0.0
C860 C 0.26697 0.85715 0.10624 0.0
C861 C 0.33954 0.87821 0.11248 0.0
C862 C 0.27027 0.82701 0.11323 0.0
C863 C 0.24362 0.81715 0.12115 0.0
C864 C 0.21318 0.83722 0.12213 0.0
C865 C 0.21078 0.86818 0.11547 0.0
C866 C 0.23735 0.87795 0.10758 0.0
H867 H 0.36476 0.89203 0.11321 0.0
H868 H 0.32016 0.89184 0.11831 0.0
H869 H 0.34293 0.85165 0.11611 0.0
H870 H 0.2928 0.81041 0.11218 0.0
H871 H 0.2463 0.79312 0.12611 0.0
H872 H 0.32826 0.12808 0.32351 0.0
H873 H 0.35965 0.09136 0.338 0.0
H874 H 0.40845 0.03709 0.30789 0.0
H875 H 0.3776 0.07371 0.29346 0.0
H876 H 0.35576 0.02229 0.34056 0.0
H877 H 0.49098 0.05734 0.32941 0.0
H878 H 0.45436 0.08268 0.32435 0.0
H879 H 0.4675 0.04437 0.31598 0.0
C880 C 0.34588 0.10844 0.32002 0.0
C881 C 0.35072 0.10395 0.30736 0.0
C882 C 0.36388 0.08762 0.32828 0.0
C883 C 0.38698 0.062 0.32403 0.0
C884 C 0.39166 0.05742 0.3114 0.0
H885 H 0.44405 0.86809 0.35439 0.0
H886 H 0.41816 0.9177 0.3442 0.0
C887 C 0.37391 0.07831 0.30316 0.0
C888 C 0.40435 0.03825 0.33267 0.0
H889 H 0.48294 0.00241 0.33947 0.0
C890 C 0.38363 0.01834 0.34047 0.0
C891 C 0.44077 0.03353 0.33272 0.0
C892 C 0.4647 0.05592 0.32526 0.0
C893 C 0.39816 0.99251 0.34782 0.0
C894 C 0.43423 0.98589 0.34711 0.0
C895 C 0.4552 0.00711 0.33984 0.0
C896 C 0.45035 0.95597 0.35334 0.0
C897 C 0.37463 0.97239 0.35619 0.0
C898 C 0.47801 0.96087 0.36152 0.0
C899 C 0.49328 0.93242 0.36727 0.0
C900 C 0.48115 0.89855 0.36491 0.0
C901 C 0.45383 0.89379 0.35653 0.0
C902 C 0.43878 0.92217 0.35076 0.0
H903 H 0.35119 0.9877 0.35869 0.0
H904 H 0.36582 0.94842 0.35142 0.0
H905 H 0.38827 0.96488 0.3647 0.0
H906 H 0.48755 0.98675 0.36354 0.0
H907 H 0.51429 0.93702 0.37365 0.0
H908 H 0.79049 0.0471 0.53703 0.0
H909 H 0.74608 0.07596 0.54955 0.0
H910 H 0.79652 0.03991 0.58223 0.0
H911 H 0.84133 0.01147 0.56981 0.0
H912 H 0.70041 0.04565 0.56866 0.0
H913 H 0.79012 0.1484 0.58552 0.0
H914 H 0.79911 0.12238 0.57207 0.0
H915 H 0.80584 0.10471 0.58701 0.0
C916 C 0.79228 0.04558 0.54689 0.0
C917 C 0.81959 0.02731 0.55245 0.0
C918 C 0.76672 0.06175 0.554 0.0
C919 C 0.76821 0.06014 0.56678 0.0
C920 C 0.79511 0.04155 0.57236 0.0
H921 H 0.67004 0.15234 0.62843 0.0
H922 H 0.69961 0.1132 0.61418 0.0
C923 C 0.82058 0.02525 0.56526 0.0
C924 C 0.74244 0.07891 0.57435 0.0
H925 H 0.73519 0.1451 0.59507 0.0
C926 C 0.70781 0.06753 0.5744 0.0
C927 C 0.75228 0.10759 0.58169 0.0
C928 C 0.78877 0.12179 0.58154 0.0
C929 C 0.68298 0.08339 0.58206 0.0
C930 C 0.69316 0.11142 0.58967 0.0
C931 C 0.72756 0.12333 0.5893 0.0
C932 C 0.66934 0.1285 0.59847 0.0
C933 C 0.64643 0.06948 0.58226 0.0
C934 C 0.64131 0.1488 0.59446 0.0
C935 C 0.62395 0.17092 0.60269 0.0
C936 C 0.63497 0.17323 0.6149 0.0
C937 C 0.6612 0.15098 0.61903 0.0
C938 C 0.67811 0.1287 0.6109 0.0
H939 H 0.6444 0.04382 0.57758 0.0
H940 H 0.63709 0.06696 0.59181 0.0
H941 H 0.629 0.08793 0.57753 0.0
H942 H 0.63447 0.14937 0.58487 0.0
H943 H 0.60403 0.1882 0.5993 0.0
H944 H 0.78417 0.97975 0.2923 0.0
H945 H 0.75704 0.93499 0.30477 0.0
H946 H 0.81535 0.9704 0.33613 0.0
H947 H 0.84203 0.01589 0.32378 0.0
H948 H 0.78635 0.88019 0.31982 0.0
H949 H 0.71163 0.97947 0.34614 0.0
H950 H 0.7329 0.98909 0.33188 0.0
H951 H 0.75782 0.98571 0.34568 0.0
C952 C 0.79115 0.9781 0.30186 0.0
C953 C 0.81484 0.00172 0.3071 0.0
C954 C 0.77591 0.95228 0.30893 0.0
C955 C 0.78397 0.94965 0.32137 0.0
C956 C 0.80859 0.97226 0.32655 0.0
H957 H 0.67626 0.84385 0.37915 0.0
H958 H 0.72214 0.87178 0.36738 0.0
C959 C 0.82392 0.9981 0.31947 0.0
C960 C 0.76477 0.92484 0.32907 0.0
H961 H 0.70445 0.92136 0.35179 0.0
C962 C 0.76857 0.88905 0.32688 0.0
C963 C 0.74149 0.93661 0.33819 0.0
C964 C 0.73537 0.97479 0.3406 0.0
C965 C 0.7498 0.86462 0.33368 0.0
C966 C 0.72626 0.87646 0.34273 0.0
C967 C 0.72273 0.91227 0.34493 0.0
C968 C 0.70386 0.85274 0.34984 0.0
C969 C 0.7556 0.82648 0.33122 0.0
C970 C 0.6792 0.83148 0.34395 0.0
C971 C 0.65331 0.81492 0.35073 0.0
C972 C 0.65162 0.81993 0.36342 0.0
C973 C 0.67742 0.83942 0.36936 0.0
C974 C 0.70348 0.85546 0.36264 0.0
H975 H 0.78125 0.82164 0.32689 0.0
H976 H 0.75398 0.8113 0.33978 0.0
H977 H 0.73529 0.81683 0.32485 0.0
H978 H 0.67846 0.82961 0.33407 0.0
H979 H 0.63319 0.80049 0.34599 0.0
H980 H 0.79268 0.96305 0.06986 0.0
H981 H 0.8324 0.92607 0.08135 0.0
H982 H 0.87369 0.88467 0.0476 0.0
H983 H 0.83479 0.92227 0.03602 0.0
H984 H 0.84434 0.85131 0.08093 0.0
H985 H 0.95785 0.92906 0.06561 0.0
H986 H 0.91379 0.94423 0.06401 0.0
H987 H 0.93038 0.91142 0.05381 0.0
C988 C 0.81022 0.94608 0.06489 0.0
C989 C 0.81087 0.94588 0.05204 0.0
C990 C 0.83261 0.92474 0.07146 0.0
C991 C 0.8561 0.90293 0.06531 0.0
C992 C 0.85589 0.90156 0.0525 0.0
H993 H 0.00079 0.76669 0.10524 0.0
H994 H 0.95615 0.78547 0.09068 0.0
C995 C 0.8335 0.92291 0.04591 0.0
C996 C 0.88248 0.88375 0.07234 0.0
H997 H 0.96879 0.88377 0.07924 0.0
C998 C 0.87163 0.85802 0.08049 0.0
C999 C 0.91797 0.89285 0.07174 0.0
C1000 C 0.93086 0.92104 0.0634 0.0
C1001 C 0.89537 0.84169 0.0883 0.0
C1002 C 0.93069 0.85144 0.08789 0.0
C1003 C 0.94164 0.87637 0.07947 0.0
C1004 C 0.95621 0.83896 0.09691 0.0
C1005 C 0.8824 0.81531 0.09731 0.0
C1006 C 0.97106 0.86286 0.1051 0.0
C1007 C 0.99642 0.8523 0.11333 0.0
C1008 C 0.00742 0.81753 0.11355 0.0
C1009 C 0.99227 0.79345 0.10542 0.0
C1010 C 0.96689 0.80414 0.09711 0.0
H1011 H 0.8536 0.81422 0.09762 0.0
H1012 H 0.89224 0.78923 0.09466 0.0
H1013 H 0.89228 0.82138 0.10662 0.0
H1014 H 0.96315 0.88986 0.10507 0.0
H1015 H 0.00748 0.87145 0.11952 0.0
H1016 H 0.92661 0.0015 0.79156 0.0
H1017 H 0.95868 0.03666 0.80637 0.0
H1018 H 0.90152 0.98963 0.83579 0.0
H1019 H 0.86867 0.95486 0.82091 0.0
H1020 H 0.89843 0.05704 0.83747 0.0
H1021 H 0.03576 0.02205 0.83019 0.0
H1022 H 0.01575 0.03333 0.816 0.0
H1023 H 0.00062 0.99594 0.82421 0.0
C1024 C 0.92152 0.99799 0.8012 0.0
C1025 C 0.89515 0.97549 0.8051 0.0
C1026 C 0.94004 0.01795 0.80968 0.0
C1027 C 0.93298 0.01539 0.82222 0.0
C1028 C 0.90756 0.99189 0.82616 0.0
H1029 H 0.03991 0.15284 0.87495 0.0
H1030 H 0.02157 0.10028 0.86382 0.0
C1031 C 0.88873 0.97217 0.81767 0.0
C1032 C 0.94867 0.04053 0.83096 0.0
H1033 H 0.02515 0.07939 0.83896 0.0
C1034 C 0.92621 0.06141 0.83796 0.0
C1035 C 0.98494 0.04604 0.83176 0.0
C1036 C 0.01062 0.02284 0.82523 0.0
C1037 C 0.9388 0.08884 0.84517 0.0
C1038 C 0.97473 0.09619 0.84513 0.0
C1039 C 0.99751 0.07411 0.83875 0.0
C1040 C 0.98859 0.12776 0.85117 0.0
C1041 C 0.91336 0.11006 0.85262 0.0
C1042 C 0.977 0.16053 0.84746 0.0
C1043 C 0.98747 0.19037 0.85374 0.0
C1044 C 0.01024 0.18802 0.86371 0.0
C1045 C 0.02302 0.15536 0.86711 0.0
C1046 C 0.01231 0.12537 0.86085 0.0
H1047 H 0.88948 0.09504 0.85466 0.0
H1048 H 0.92507 0.11893 0.86139 0.0
H1049 H 0.9056 0.13327 0.84736 0.0
H1050 H 0.95922 0.16293 0.83984 0.0
H1051 H 0.97737 0.21528 0.85091 0.0
H1052 H 0.80163 0.98712 0.48151 0.0
H1053 H 0.75283 0.97933 0.46733 0.0
H1054 H 0.78019 0.87142 0.46269 0.0
H1055 H 0.82875 0.87896 0.4768 0.0
H1056 H 0.74999 0.95763 0.44324 0.0
H1057 H 0.67817 0.8663 0.47234 0.0
H1058 H 0.71348 0.89261 0.47809 0.0
H1059 H 0.72213 0.85219 0.47023 0.0
C1060 C 0.79743 0.96184 0.47735 0.0
C1061 C 0.81883 0.93355 0.48033 0.0
C1062 C 0.76942 0.9574 0.46934 0.0
C1063 C 0.76234 0.92459 0.46425 0.0
C1064 C 0.78453 0.89671 0.46684 0.0
H1065 H 0.69263 0.83526 0.402 0.0
H1066 H 0.7162 0.87482 0.41718 0.0
C1067 C 0.81237 0.90108 0.47484 0.0
C1068 C 0.73241 0.91911 0.45596 0.0
H1069 H 0.66643 0.86216 0.45054 0.0
C1070 C 0.73115 0.93734 0.44494 0.0
C1071 C 0.70703 0.89356 0.45835 0.0
C1072 C 0.705 0.87536 0.47047 0.0
C1073 C 0.70744 0.92808 0.43573 0.0
C1074 C 0.68508 0.89945 0.43753 0.0
C1075 C 0.6839 0.88377 0.44905 0.0
C1076 C 0.66805 0.88118 0.42716 0.0
C1077 C 0.70766 0.94808 0.42395 0.0
C1078 C 0.6329 0.87144 0.42764 0.0
C1079 C 0.61923 0.84827 0.41891 0.0
C1080 C 0.64078 0.83415 0.40976 0.0
C1081 C 0.67537 0.84545 0.40898 0.0
C1082 C 0.68883 0.86855 0.41759 0.0
H1083 H 0.71378 0.97586 0.42571 0.0
H1084 H 0.72821 0.9375 0.41786 0.0
H1085 H 0.68234 0.9463 0.41915 0.0
H1086 H 0.61649 0.88059 0.43503 0.0
H1087 H 0.59248 0.83999 0.41972 0.0
H1088 H 0.97799 0.01649 0.24473 0.0
H1089 H -0.00053 0.97658 0.22888 0.0
H1090 H 0.90948 0.99822 0.20681 0.0
H1091 H 0.88797 0.03832 0.22253 0.0
H1092 H 0.92084 0.9271 0.21198 0.0
H1093 H 0.04015 0.99021 0.1942 0.0
H1094 H 0.03688 0.98704 0.21054 0.0
H1095 H 0.00698 0.01408 0.2024 0.0
C1096 C 0.96324 0.01343 0.23636 0.0
C1097 C 0.93117 0.03035 0.2349 0.0
C1098 C 0.97557 0.99065 0.22732 0.0
C1099 C 0.95614 0.98468 0.21666 0.0
C1100 C 0.92484 0.00257 0.21498 0.0
H1101 H 0.95748 0.83532 0.15702 0.0
H1102 H 0.94439 0.88257 0.17144 0.0
C1103 C 0.91251 0.02529 0.22399 0.0
C1104 C 0.96636 0.95715 0.20786 0.0
H1105 H 0.02836 0.93308 0.18717 0.0
C1106 C 0.94427 0.92845 0.20651 0.0
C1107 C 0.99722 0.95883 0.20092 0.0
C1108 C 0.02165 0.98928 0.20198 0.0
C1109 C 0.95217 0.90124 0.19839 0.0
C1110 C 0.98255 0.90329 0.19118 0.0
C1111 C 0.00497 0.93176 0.19266 0.0
C1112 C 0.99134 0.87608 0.18206 0.0
C1113 C 0.92826 0.87023 0.19783 0.0
C1114 C 0.02261 0.85766 0.18299 0.0
C1115 C 0.03048 0.83123 0.1746 0.0
C1116 C 0.00699 0.82261 0.16524 0.0
C1117 C 0.97588 0.84133 0.16423 0.0
C1118 C 0.96833 0.86816 0.17248 0.0
H1119 H 0.91244 0.86803 0.20628 0.0
H1120 H 0.91017 0.87314 0.19002 0.0
H1121 H 0.94308 0.84575 0.19651 0.0
H1122 H 0.04065 0.86334 0.19034 0.0
H1123 H 0.05445 0.81687 0.17564 0.0
H1124 H 0.83523 0.14837 0.00105 0.0
H1125 H 0.87328 0.17514 0.98584 0.0
H1126 H 0.82492 0.11401 0.95735 0.0
H1127 H 0.78686 0.08712 0.97248 0.0
H1128 H 0.91864 0.1312 0.97009 0.0
H1129 H 0.82987 0.21749 0.94427 0.0
H1130 H 0.82134 0.20427 0.95979 0.0
H1131 H 0.81389 0.17454 0.94733 0.0
C1132 C 0.83229 0.14118 0.99151 0.0
C1133 C 0.80823 0.11562 0.98792 0.0
C1134 C 0.85403 0.1564 0.98286 0.0
C1135 C 0.85158 0.14671 0.9705 0.0
C1136 C 0.82682 0.12209 0.96684 0.0
H1137 H 0.99729 0.14504 0.91141 0.0
H1138 H 0.95353 0.13267 0.92701 0.0
C1139 C 0.80535 0.10659 0.97549 0.0
C1140 C 0.87715 0.15956 0.96159 0.0
H1141 H 0.88532 0.20646 0.93545 0.0
C1142 C 0.91149 0.1479 0.96257 0.0
C1143 C 0.86762 0.18149 0.95188 0.0
C1144 C 0.83124 0.19549 0.95074 0.0
C1145 C 0.93641 0.15666 0.95381 0.0
C1146 C 0.92656 0.17738 0.94381 0.0
C1147 C 0.89255 0.19018 0.94307 0.0
C1148 C 0.95128 0.1854 0.93395 0.0
C1149 C 0.97306 0.14351 0.95525 0.0
C1150 C 0.96384 0.21924 0.9326 0.0
C1151 C 0.98866 0.22642 0.92367 0.0
C1152 C 0.00123 0.19983 0.91597 0.0
C1153 C 0.98809 0.16604 0.91723 0.0
C1154 C 0.96318 0.15893 0.92612 0.0
H1155 H 0.97816 0.13428 0.96467 0.0
H1156 H 0.97738 0.12148 0.94882 0.0
H1157 H 0.99209 0.16416 0.95304 0.0
H1158 H 0.9551 0.23986 0.93866 0.0
H1159 H 0.99892 0.25249 0.92309 0.0
H1160 H 0.73197 0.04326 0.74196 0.0
H1161 H 0.71495 0.08547 0.72672 0.0
H1162 H 0.80624 0.06081 0.70554 0.0
H1163 H 0.82199 0.01621 0.72022 0.0
H1164 H 0.74165 0.14288 0.71729 0.0
H1165 H 0.73253 0.04121 0.6809 0.0
H1166 H 0.73981 0.03061 0.69667 0.0
H1167 H 0.77485 0.04668 0.68745 0.0
C1168 C 0.74825 0.04629 0.73398 0.0
C1169 C 0.77789 0.02546 0.7322 0.0
C1170 C 0.73875 0.07095 0.72535 0.0
C1171 C 0.75889 0.07584 0.71483 0.0
C1172 C 0.78977 0.05686 0.71342 0.0
H1173 H 0.66964 0.22801 0.66245 0.0
H1174 H 0.71273 0.20365 0.67662 0.0
C1175 C 0.79897 0.03161 0.72193 0.0
C1176 C 0.74574 0.09887 0.70506 0.0
H1177 H 0.71429 0.09698 0.67591 0.0
C1178 C 0.73607 0.13305 0.70817 0.0
C1179 C 0.7385 0.08597 0.69317 0.0
C1180 C 0.74666 0.04907 0.68933 0.0
C1181 C 0.71739 0.15386 0.69999 0.0
C1182 C 0.70896 0.14034 0.68831 0.0
C1183 C 0.72086 0.10719 0.6849 0.0
C1184 C 0.68314 0.15711 0.68025 0.0
C1185 C 0.70483 0.18913 0.70416 0.0
C1186 C 0.65238 0.13914 0.67765 0.0
C1187 C 0.62829 0.15259 0.66953 0.0
C1188 C 0.63417 0.18456 0.66384 0.0
C1189 C 0.66442 0.20335 0.66673 0.0
C1190 C 0.68897 0.18952 0.67483 0.0
H1191 H 0.70976 0.19385 0.71404 0.0
H1192 H 0.71842 0.20949 0.6989 0.0
H1193 H 0.67658 0.19184 0.70241 0.0
H1194 H 0.64718 0.11426 0.68181 0.0
H1195 H 0.60506 0.13765 0.66764 0.0
H1196 H 0.76577 0.36919 -0.00122 0.0
H1197 H 0.80907 0.34297 0.98523 0.0
H1198 H 0.78865 0.42146 0.95834 0.0
H1199 H 0.74374 0.44637 0.97141 0.0
H1200 H 0.79564 0.36025 0.94776 0.0
H1201 H 0.90507 0.38013 0.98006 0.0
H1202 H 0.87076 0.35381 0.98603 0.0
H1203 H 0.86272 0.39871 0.98264 0.0
C1204 C 0.76999 0.38052 0.98989 0.0
C1205 C 0.75142 0.41018 0.98625 0.0
C1206 C 0.79523 0.36581 0.98224 0.0
C1207 C 0.80282 0.38081 0.97091 0.0
C1208 C 0.78355 0.40966 0.9671 0.0
H1209 H 0.9847 0.36777 0.92557 0.0
H1210 H 0.9416 0.38034 0.94143 0.0
C1211 C 0.75805 0.42408 0.97465 0.0
C1212 C 0.83071 0.36671 0.96293 0.0
H1213 H 0.91776 0.35016 0.96161 0.0
C1214 C 0.82234 0.35797 0.9508 0.0
C1215 C 0.86562 0.36412 0.96687 0.0
C1216 C 0.87673 0.37499 0.97957 0.0
C1217 C 0.84787 0.34737 0.94244 0.0
C1218 C 0.8827 0.34411 0.94643 0.0
C1219 C 0.89103 0.35234 0.95861 0.0
C1220 C 0.91102 0.33417 0.93789 0.0
C1221 C 0.83738 0.34128 0.92929 0.0
C1222 C 0.90897 0.30338 0.93098 0.0
C1223 C 0.93301 0.29662 0.92173 0.0
C1224 C 0.96041 0.31985 0.91949 0.0
C1225 C 0.96396 0.34934 0.92706 0.0
C1226 C 0.93933 0.35654 0.93613 0.0
H1227 H 0.81236 0.35418 0.92711 0.0
H1228 H 0.85745 0.35104 0.9229 0.0
H1229 H 0.83401 0.31303 0.92762 0.0
H1230 H 0.88808 0.28511 0.93246 0.0
H1231 H 0.92964 0.27349 0.91615 0.0
H1232 H 0.81098 0.40267 0.20419 0.0
H1233 H 0.83923 0.44365 0.19056 0.0
H1234 H 0.91017 0.47286 0.21937 0.0
H1235 H 0.88068 0.43371 0.2333 0.0
H1236 H 0.88416 0.52828 0.20891 0.0
H1237 H 0.92969 0.43798 0.17263 0.0
H1238 H 0.88384 0.43478 0.17516 0.0
H1239 H 0.91355 0.42303 0.18713 0.0
C1240 C 0.83252 0.41787 0.20766 0.0
C1241 C 0.84345 0.41485 0.21988 0.0
C1242 C 0.84902 0.44091 0.19978 0.0
C1243 C 0.87721 0.46092 0.20387 0.0
C1244 C 0.88862 0.4575 0.21598 0.0
H1245 H 0.01221 0.58557 0.15844 0.0
H1246 H 0.98618 0.54025 0.1709 0.0
C1247 C 0.87189 0.4348 0.22391 0.0
C1248 C 0.89335 0.48712 0.19583 0.0
H1249 H 0.93112 0.49843 0.16793 0.0
C1250 C 0.89464 0.52169 0.19998 0.0
C1251 C 0.90739 0.47845 0.18424 0.0
C1252 C 0.90891 0.44148 0.17958 0.0
C1253 C 0.90919 0.54791 0.19283 0.0
C1254 C 0.92176 0.53954 0.18101 0.0
C1255 C 0.92097 0.50489 0.17692 0.0
C1256 C 0.93669 0.56628 0.17291 0.0
C1257 C 0.91161 0.58415 0.19815 0.0
C1258 C 0.91721 0.59555 0.16964 0.0
C1259 C 0.93215 0.62173 0.16264 0.0
C1260 C 0.96665 0.61877 0.15858 0.0
C1261 C 0.98558 0.58868 0.16142 0.0
C1262 C 0.97075 0.56273 0.16855 0.0
H1263 H 0.91048 0.58399 0.2083 0.0
H1264 H 0.93602 0.59711 0.19534 0.0
H1265 H 0.8894 0.5998 0.19485 0.0
H1266 H 0.89054 0.59835 0.1726 0.0
H1267 H 0.91673 0.64435 0.16047 0.0
H1268 H 0.87643 0.57092 0.48552 0.0
H1269 H 0.83762 0.59833 0.47077 0.0
H1270 H 0.89364 0.54929 0.44113 0.0
H1271 H 0.93218 0.52133 0.45586 0.0
H1272 H 0.84929 0.64276 0.45189 0.0
H1273 H 0.79491 0.51811 0.43462 0.0
H1274 H 0.8215 0.52081 0.44816 0.0
H1275 H 0.8412 0.52142 0.43326 0.0
C1276 C 0.88061 0.56621 0.47585 0.0
C1277 C 0.90709 0.54377 0.47182 0.0
C1278 C 0.85842 0.58182 0.46744 0.0
C1279 C 0.86239 0.57535 0.45487 0.0
C1280 C 0.88959 0.55394 0.4508 0.0
H1281 H 0.74613 0.69306 0.39994 0.0
H1282 H 0.79336 0.66864 0.41212 0.0
C1283 C 0.91159 0.53805 0.45921 0.0
C1284 C 0.8375 0.59051 0.4461 0.0
H1285 H 0.77639 0.56908 0.42475 0.0
C1286 C 0.8334 0.62671 0.44592 0.0
C1287 C 0.81658 0.56942 0.43842 0.0
C1288 C 0.81844 0.53028 0.43866 0.0
C1289 C 0.80864 0.64242 0.43836 0.0
C1290 C 0.78802 0.62133 0.43058 0.0
C1291 C 0.79246 0.58517 0.43065 0.0
C1292 C 0.75994 0.63588 0.42294 0.0
C1293 C 0.80391 0.68127 0.4391 0.0
C1294 C 0.72569 0.62481 0.42474 0.0
C1295 C 0.69879 0.6383 0.41771 0.0
C1296 C 0.70554 0.66327 0.40873 0.0
C1297 C 0.73999 0.67407 0.40684 0.0
C1298 C 0.76699 0.66031 0.41384 0.0
H1299 H 0.81579 0.6925 0.44751 0.0
H1300 H 0.8166 0.69338 0.43111 0.0
H1301 H 0.77597 0.6883 0.43895 0.0
H1302 H 0.7197 0.60591 0.43169 0.0
H1303 H 0.67262 0.62938 0.41945 0.0
H1304 H 0.79557 0.52643 0.73143 0.0
H1305 H 0.76225 0.48097 0.72105 0.0
H1306 H 0.68051 0.55436 0.71374 0.0
H1307 H 0.71423 0.60039 0.72378 0.0
H1308 H 0.69434 0.45449 0.72508 0.0
H1309 H 0.70802 0.51702 0.67973 0.0
H1310 H 0.73373 0.52988 0.69279 0.0
H1311 H 0.68941 0.54392 0.69154 0.0
C1312 C 0.77062 0.533 0.72754 0.0
C1313 C 0.7578 0.56718 0.72825 0.0
C1314 C 0.75146 0.5069 0.72173 0.0
C1315 C 0.71915 0.51443 0.71651 0.0
C1316 C 0.70564 0.54817 0.71758 0.0
H1317 H 0.59412 0.3944 0.66597 0.0
H1318 H 0.6115 0.43575 0.68177 0.0
C1319 C 0.72482 0.57436 0.72338 0.0
C1320 C 0.70061 0.48729 0.70941 0.0
H1321 H 0.67522 0.46572 0.68047 0.0
C1322 C 0.68994 0.45693 0.71534 0.0
C1323 C 0.69512 0.49057 0.6967 0.0
C1324 C 0.70738 0.52193 0.68976 0.0
C1325 C 0.67375 0.42973 0.70885 0.0
C1326 C 0.66866 0.4329 0.69612 0.0
C1327 C 0.67896 0.46345 0.69026 0.0
C1328 C 0.65401 0.40459 0.68844 0.0
C1329 C 0.66203 0.39802 0.71568 0.0
C1330 C 0.67143 0.3727 0.68723 0.0
C1331 C 0.66135 0.34868 0.67822 0.0
C1332 C 0.63401 0.35645 0.67018 0.0
C1333 C 0.61538 0.38754 0.67195 0.0
C1334 C 0.62525 0.41129 0.68099 0.0
H1335 H 0.65864 0.40365 0.72559 0.0
H1336 H 0.6372 0.38788 0.71194 0.0
H1337 H 0.68197 0.37739 0.7147 0.0
H1338 H 0.69411 0.36725 0.69273 0.0
H1339 H 0.67635 0.32508 0.67708 0.0
H1340 H 0.72977 0.61237 0.04949 0.0
H1341 H 0.77545 0.64709 0.05931 0.0
H1342 H 0.84699 0.56164 0.05521 0.0
H1343 H 0.80188 0.52718 0.04517 0.0
H1344 H 0.80921 0.62885 0.08082 0.0
H1345 H 0.9042 0.64416 0.04324 0.0
H1346 H 0.85967 0.63149 0.0406 0.0
H1347 H 0.89101 0.60001 0.04554 0.0
C1348 C 0.7554 0.60122 0.0505 0.0
C1349 C 0.76217 0.56698 0.04662 0.0
C1350 C 0.78142 0.62104 0.05613 0.0
C1351 C 0.81474 0.60712 0.05781 0.0
C1352 C 0.82168 0.57315 0.05378 0.0
H1353 H 0.99567 0.64578 0.1008 0.0
H1354 H 0.95445 0.62796 0.08494 0.0
C1355 C 0.79571 0.55331 0.04821 0.0
C1356 C 0.84139 0.62676 0.06476 0.0
H1357 H 0.92492 0.6562 0.06351 0.0
C1358 C 0.83432 0.63536 0.07699 0.0
C1359 C 0.87418 0.63494 0.05975 0.0
C1360 C 0.88268 0.62748 0.04653 0.0
C1361 C 0.85962 0.65062 0.08451 0.0
C1362 C 0.89269 0.65828 0.07957 0.0
C1363 C 0.89954 0.6504 0.06726 0.0
C1364 C 0.92087 0.67253 0.08735 0.0
C1365 C 0.85119 0.65692 0.09784 0.0
C1366 C 0.91663 0.70441 0.09347 0.0
C1367 C 0.93986 0.71446 0.10263 0.0
C1368 C 0.96814 0.69309 0.10569 0.0
C1369 C 0.97412 0.66279 0.09872 0.0
C1370 C 0.95057 0.65254 0.08965 0.0
H1371 H 0.82779 0.64234 0.10074 0.0
H1372 H 0.87326 0.64929 0.10375 0.0
H1373 H 0.84605 0.68497 0.09936 0.0
H1374 H 0.89429 0.7206 0.09162 0.0
H1375 H 0.93456 0.73811 0.10773 0.0
H1376 H 0.75519 0.43432 0.30244 0.0
H1377 H 0.73245 0.48086 0.31541 0.0
H1378 H 0.64302 0.48987 0.29195 0.0
H1379 H 0.6666 0.44466 0.27848 0.0
H1380 H 0.66785 0.55286 0.29828 0.0
H1381 H 0.65474 0.47269 0.33965 0.0
H1382 H 0.69822 0.47189 0.33384 0.0
H1383 H 0.66339 0.454 0.32478 0.0
C1384 C 0.73083 0.44634 0.29995 0.0
C1385 C 0.71271 0.43554 0.28941 0.0
C1386 C 0.71762 0.47268 0.30748 0.0
C1387 C 0.68569 0.48838 0.30479 0.0
C1388 C 0.66758 0.4779 0.29426 0.0
H1389 H 0.58577 0.61223 0.36106 0.0
H1390 H 0.59583 0.57127 0.34442 0.0
C1391 C 0.68094 0.45176 0.28664 0.0
C1392 C 0.67152 0.51602 0.31291 0.0
H1393 H 0.65214 0.53415 0.3427 0.0
C1394 C 0.66407 0.54873 0.30798 0.0
C1395 C 0.66587 0.51042 0.32551 0.0
C1396 C 0.67061 0.47524 0.33123 0.0
C1397 C 0.65229 0.57631 0.3154 0.0
C1398 C 0.64879 0.57125 0.32812 0.0
C1399 C 0.6552 0.53822 0.33296 0.0
C1400 C 0.63897 0.5996 0.33675 0.0
C1401 C 0.64336 0.61041 0.30952 0.0
C1402 C 0.65911 0.62991 0.33777 0.0
C1403 C 0.65267 0.65411 0.34715 0.0
C1404 C 0.62643 0.64804 0.3558 0.0
C1405 C 0.6057 0.61819 0.35446 0.0
C1406 C 0.61167 0.59447 0.345 0.0
H1407 H 0.63677 0.60684 0.2997 0.0
H1408 H 0.62116 0.62321 0.31421 0.0
H1409 H 0.66614 0.62795 0.3101 0.0
H1410 H 0.68086 0.63408 0.3317 0.0
H1411 H 0.66935 0.67664 0.34796 0.0
H1412 H 0.9248 0.45881 0.55952 0.0
H1413 H 0.88707 0.4372 0.57567 0.0
H1414 H 0.86177 0.34776 0.55337 0.0
H1415 H 0.89812 0.37001 0.53694 0.0
H1416 H 0.80484 0.37897 0.56223 0.0
H1417 H 0.89841 0.35967 0.59996 0.0
H1418 H 0.90022 0.40263 0.59382 0.0
H1419 H 0.91197 0.366 0.58435 0.0
C1420 C 0.91123 0.43452 0.55804 0.0
C1421 C 0.91437 0.41623 0.5469 0.0
C1422 C 0.89009 0.42193 0.56737 0.0
C1423 C 0.87204 0.39059 0.56581 0.0
C1424 C 0.87572 0.37187 0.55481 0.0
H1425 H 0.74512 0.28764 0.62069 0.0
H1426 H 0.79208 0.30339 0.60673 0.0
C1427 C 0.89669 0.38453 0.54545 0.0
C1428 C 0.84696 0.37892 0.57517 0.0
H1429 H 0.83814 0.36028 0.60547 0.0
C1430 C 0.81221 0.37458 0.57165 0.0
C1431 C 0.85667 0.37286 0.58744 0.0
C1432 C 0.89392 0.37518 0.5916 0.0
C1433 C 0.78672 0.36521 0.58012 0.0
C1434 C 0.7961 0.36086 0.59251 0.0
C1435 C 0.83099 0.36417 0.59599 0.0
C1436 C 0.76978 0.35295 0.60192 0.0
C1437 C 0.74999 0.35982 0.5757 0.0
C1438 C 0.74244 0.37619 0.60416 0.0
C1439 C 0.71553 0.36725 0.61205 0.0
C1440 C 0.71565 0.33501 0.61796 0.0
C1441 C 0.74416 0.31263 0.61626 0.0
C1442 C 0.77101 0.32155 0.60828 0.0
H1443 H 0.74904 0.35479 0.56568 0.0
H1444 H 0.73751 0.33774 0.58043 0.0
H1445 H 0.73459 0.38358 0.57764 0.0
H1446 H 0.74146 0.40091 0.59954 0.0
H1447 H 0.69424 0.38531 0.61328 0.0
H1448 H 0.85725 0.549 0.79132 0.0
H1449 H 0.87872 0.51224 0.8077 0.0
H1450 H 0.95678 0.58852 0.81665 0.0
H1451 H 0.93485 0.62605 0.80037 0.0
H1452 H 0.94826 0.48637 0.80953 0.0
H1453 H 0.90918 0.56635 0.84994 0.0
H1454 H 0.89022 0.57226 0.83501 0.0
H1455 H 0.93321 0.58782 0.83812 0.0
C1456 C 0.87863 0.55827 0.79689 0.0
C1457 C 0.8942 0.59056 0.79462 0.0
C1458 C 0.89098 0.53713 0.80619 0.0
C1459 C 0.91903 0.54788 0.81344 0.0
C1460 C 0.93476 0.58005 0.81124 0.0
H1461 H 0.02081 0.43343 0.8721 0.0
H1462 H 0.00397 0.47889 0.85779 0.0
C1463 C 0.92244 0.60126 0.80188 0.0
C1464 C 0.93244 0.52445 0.82295 0.0
H1465 H 0.93833 0.51371 0.85382 0.0
C1466 C 0.94626 0.49238 0.81921 0.0
C1467 C 0.92994 0.53259 0.83555 0.0
C1468 C 0.91466 0.56651 0.83997 0.0
C1469 C 0.95722 0.4679 0.82776 0.0
C1470 C 0.95362 0.4755 0.84037 0.0
C1471 C 0.9408 0.50799 0.84413 0.0
C1472 C 0.96199 0.44937 0.84971 0.0
C1473 C 0.97255 0.43408 0.82324 0.0
C1474 C 0.94319 0.41827 0.85013 0.0
C1475 C 0.95267 0.39227 0.85825 0.0
C1476 C 0.9811 0.39696 0.86617 0.0
C1477 C 0.99889 0.42887 0.8661 0.0
C1478 C 0.98934 0.4549 0.85794 0.0
H1479 H 0.98188 0.43601 0.81366 0.0
H1480 H 0.99451 0.42585 0.82911 0.0
H1481 H 0.95235 0.41358 0.82352 0.0
H1482 H 0.92156 0.41385 0.84398 0.0
H1483 H 0.93817 0.3682 0.85812 0.0
H1484 H 0.30091 0.6234 0.03321 0.0
H1485 H 0.25616 0.63844 0.04819 0.0
H1486 H 0.28332 0.54868 0.06936 0.0
H1487 H 0.32869 0.53365 0.05451 0.0
H1488 H 0.20619 0.56437 0.06568 0.0
H1489 H 0.28699 0.67365 0.08336 0.0
H1490 H 0.28058 0.6717 0.06709 0.0
H1491 H 0.30505 0.63827 0.07448 0.0
C1492 C 0.29754 0.60692 0.04108 0.0
C1493 C 0.31872 0.5776 0.04276 0.0
C1494 C 0.27173 0.61537 0.04955 0.0
C1495 C 0.26661 0.59469 0.05986 0.0
C1496 C 0.28684 0.5648 0.0614 0.0
H1497 H 0.18089 0.65814 0.12817 0.0
H1498 H 0.21032 0.62577 0.11194 0.0
C1499 C 0.31274 0.55631 0.05292 0.0
C1500 C 0.24209 0.60591 0.06949 0.0
H1501 H 0.23108 0.66763 0.09169 0.0
C1502 C 0.21148 0.58693 0.07139 0.0
C1503 C 0.24935 0.6352 0.07692 0.0
C1504 C 0.28235 0.65585 0.07548 0.0
C1505 C 0.18773 0.59678 0.08057 0.0
C1506 C 0.19502 0.6262 0.08793 0.0
C1507 C 0.22561 0.64507 0.08599 0.0
C1508 C 0.17227 0.63773 0.09808 0.0
C1509 C 0.15544 0.57551 0.08251 0.0
C1510 C 0.1402 0.65375 0.09577 0.0
C1511 C 0.12307 0.67214 0.10511 0.0
C1512 C 0.13826 0.67502 0.11675 0.0
C1513 C 0.16881 0.65651 0.11924 0.0
C1514 C 0.18562 0.63798 0.10999 0.0
H1515 H 0.15607 0.55069 0.07726 0.0
H1516 H 0.15214 0.56973 0.09237 0.0
H1517 H 0.13246 0.59062 0.07955 0.0
H1518 H 0.12973 0.65418 0.08658 0.0
H1519 H 0.09965 0.68641 0.10297 0.0
H1520 H 0.21718 0.51854 0.80011 0.0
H1521 H 0.20031 0.47224 0.81399 0.0
H1522 H 0.29395 0.41612 0.80509 0.0
H1523 H 0.311 0.46232 0.79109 0.0
H1524 H 0.19031 0.40063 0.80845 0.0
H1525 H 0.29483 0.42243 0.84286 0.0
H1526 H 0.28405 0.4543 0.83149 0.0
H1527 H 0.30793 0.41608 0.82722 0.0
C1528 C 0.23412 0.49628 0.80105 0.0
C1529 C 0.26548 0.49417 0.79452 0.0
C1530 C 0.22449 0.46989 0.809 0.0
C1531 C 0.24601 0.44092 0.81063 0.0
C1532 C 0.27725 0.43854 0.8041 0.0
H1533 H 0.14785 0.27815 0.85567 0.0
H1534 H 0.18628 0.30046 0.83959 0.0
C1535 C 0.28696 0.465 0.79614 0.0
C1536 C 0.2353 0.41346 0.81921 0.0
H1537 H 0.25235 0.381 0.84749 0.0
C1538 C 0.20414 0.39577 0.8169 0.0
C1539 C 0.25356 0.40727 0.83018 0.0
C1540 C 0.28686 0.42608 0.8332 0.0
C1541 C 0.18964 0.37352 0.82559 0.0
C1542 C 0.20709 0.36852 0.83681 0.0
C1543 C 0.23927 0.38467 0.83882 0.0
C1544 C 0.18933 0.35234 0.84731 0.0
C1545 C 0.15459 0.35752 0.82305 0.0
C1546 C 0.17987 0.3736 0.85722 0.0
C1547 C 0.15817 0.36106 0.86632 0.0
C1548 C 0.14553 0.32687 0.86574 0.0
C1549 C 0.15707 0.30467 0.8563 0.0
C1550 C 0.17881 0.3174 0.8471 0.0
H1551 H 0.14278 0.36734 0.81449 0.0
H1552 H 0.15738 0.32894 0.82217 0.0
H1553 H 0.13652 0.363 0.83074 0.0
H1554 H 0.18778 0.40058 0.85759 0.0
H1555 H 0.15017 0.37868 0.87357 0.0
H1556 H 0.32995 0.43237 0.5361 0.0
H1557 H 0.36771 0.39262 0.54719 0.0
H1558 H 0.33363 0.43764 0.58139 0.0
H1559 H 0.29488 0.4767 0.57039 0.0
H1560 H 0.42136 0.41289 0.56169 0.0
H1561 H 0.32906 0.33404 0.58842 0.0
H1562 H 0.31573 0.35973 0.57552 0.0
H1563 H 0.32171 0.37979 0.5903 0.0
C1564 C 0.32985 0.43327 0.546 0.0
C1565 C 0.30937 0.45768 0.55237 0.0
C1566 C 0.35156 0.41063 0.55231 0.0
C1567 C 0.35307 0.41181 0.56511 0.0
C1568 C 0.33228 0.43575 0.57152 0.0
H1569 H 0.51425 0.3771 0.61515 0.0
H1570 H 0.46946 0.39666 0.60111 0.0
C1571 C 0.31054 0.45841 0.56522 0.0
C1572 C 0.37887 0.39057 0.57171 0.0
H1573 H 0.3883 0.3349 0.59557 0.0
C1574 C 0.41408 0.39538 0.56896 0.0
C1575 C 0.36933 0.36739 0.58108 0.0
C1576 C 0.33187 0.35961 0.58393 0.0
C1577 C 0.44008 0.37917 0.57579 0.0
C1578 C 0.43058 0.35799 0.5857 0.0
C1579 C 0.39542 0.35149 0.58803 0.0
C1580 C 0.45685 0.34522 0.59439 0.0
C1581 C 0.47759 0.38556 0.57256 0.0
C1582 C 0.464 0.30967 0.59542 0.0
C1583 C 0.48973 0.29829 0.60349 0.0
C1584 C 0.50843 0.32235 0.61065 0.0
C1585 C 0.5006 0.35788 0.60969 0.0
C1586 C 0.47501 0.36915 0.60167 0.0
H1587 H 0.48044 0.39431 0.56296 0.0
H1588 H 0.48814 0.40619 0.57865 0.0
H1589 H 0.49338 0.36175 0.57383 0.0
H1590 H 0.45017 0.2909 0.58982 0.0
H1591 H 0.49557 0.27087 0.60391 0.0
H1592 H 0.40907 0.53247 0.28357 0.0
H1593 H 0.43105 0.56956 0.30003 0.0
H1594 H 0.48804 0.48313 0.31474 0.0
H1595 H 0.46604 0.44562 0.29815 0.0
H1596 H 0.41812 0.55592 0.32501 0.0
H1597 H 0.5597 0.56388 0.31484 0.0
H1598 H 0.52841 0.55076 0.30339 0.0
H1599 H 0.54024 0.52146 0.31532 0.0
C1600 C 0.42642 0.52137 0.29027 0.0
C1601 C 0.43558 0.4861 0.28967 0.0
C1602 C 0.43907 0.54261 0.29963 0.0
C1603 C 0.46122 0.5291 0.30856 0.0
C1604 C 0.47135 0.49413 0.30783 0.0
H1605 H 0.5372 0.65156 0.37147 0.0
H1606 H 0.52416 0.60166 0.35804 0.0
C1607 C 0.45875 0.47277 0.29838 0.0
C1608 C 0.47122 0.5515 0.31904 0.0
H1609 H 0.53883 0.59674 0.33155 0.0
C1610 C 0.44458 0.56457 0.32652 0.0
C1611 C 0.50582 0.56235 0.32106 0.0
C1612 C 0.53531 0.54914 0.31322 0.0
C1613 C 0.45133 0.58935 0.33566 0.0
C1614 C 0.48555 0.60166 0.33723 0.0
C1615 C 0.51258 0.58729 0.33022 0.0
C1616 C 0.49315 0.63132 0.34544 0.0
C1617 C 0.42171 0.60271 0.3434 0.0
C1618 C 0.47966 0.66421 0.3428 0.0
C1619 C 0.48695 0.69252 0.35042 0.0
C1620 C 0.50831 0.68847 0.3607 0.0
C1621 C 0.52161 0.65547 0.36339 0.0
C1622 C 0.51404 0.62704 0.3558 0.0
H1623 H 0.39943 0.58441 0.34334 0.0
H1624 H 0.43013 0.60713 0.353 0.0
H1625 H 0.41259 0.62784 0.33971 0.0
H1626 H 0.46367 0.66802 0.33478 0.0
H1627 H 0.4764 0.71772 0.34815 0.0
H1628 H 0.31166 0.45076 0.98284 0.0
H1629 H 0.26582 0.42618 0.97001 0.0
H1630 H 0.28938 0.50009 0.94187 0.0
H1631 H 0.33616 0.52423 0.95452 0.0
H1632 H 0.20652 0.45961 0.95992 0.0
H1633 H 0.29452 0.40529 0.92419 0.0
H1634 H 0.31004 0.41932 0.93899 0.0
H1635 H 0.29955 0.45076 0.92756 0.0
C1636 C 0.30751 0.46147 0.97385 0.0
C1637 C 0.32788 0.48917 0.96964 0.0
C1638 C 0.28102 0.44765 0.96659 0.0
C1639 C 0.27442 0.46116 0.95498 0.0
C1640 C 0.29436 0.48906 0.95077 0.0
H1641 H 0.14448 0.37074 0.8981 0.0
H1642 H 0.17541 0.41513 0.91004 0.0
C1643 C 0.32092 0.50293 0.95803 0.0
C1644 C 0.24701 0.44542 0.94725 0.0
H1645 H 0.23473 0.39718 0.92132 0.0
C1646 C 0.21256 0.44617 0.95142 0.0
C1647 C 0.25504 0.42802 0.93617 0.0
C1648 C 0.29179 0.42545 0.93146 0.0
C1649 C 0.1859 0.42953 0.94486 0.0
C1650 C 0.19412 0.41127 0.93397 0.0
C1651 C 0.22843 0.4114 0.92964 0.0
C1652 C 0.16852 0.38936 0.92736 0.0
C1653 C 0.14927 0.43159 0.94966 0.0
C1654 C 0.15328 0.36085 0.93321 0.0
C1655 C 0.13528 0.33577 0.92641 0.0
C1656 C 0.13245 0.3389 0.9137 0.0
C1657 C 0.14582 0.36835 0.90795 0.0
C1658 C 0.16362 0.39352 0.91475 0.0
H1659 H 0.14541 0.45509 0.95548 0.0
H1660 H 0.1301 0.43193 0.94209 0.0
H1661 H 0.14403 0.40855 0.95538 0.0
H1662 H 0.15747 0.35661 0.94287 0.0
H1663 H 0.12588 0.31271 0.93093 0.0
H1664 H 0.37941 0.54747 0.70996 0.0
H1665 H 0.4142 0.5085 0.69708 0.0
H1666 H 0.46814 0.47177 0.72896 0.0
H1667 H 0.43308 0.51036 0.74195 0.0
H1668 H 0.49086 0.4957 0.69453 0.0
H1669 H 0.41364 0.38661 0.71367 0.0
H1670 H 0.3999 0.43125 0.71513 0.0
H1671 H 0.43491 0.4154 0.72433 0.0
C1672 C 0.39903 0.53143 0.7142 0.0
C1673 C 0.40326 0.53158 0.72696 0.0
C1674 C 0.41902 0.50943 0.70683 0.0
C1675 C 0.44342 0.48716 0.71212 0.0
C1676 C 0.44929 0.48876 0.72476 0.0
H1677 H 0.55984 0.32979 0.67009 0.0
H1678 H 0.54663 0.37717 0.68453 0.0
C1679 C 0.42937 0.51089 0.73214 0.0
C1680 C 0.45944 0.4596 0.70453 0.0
H1681 H 0.4527 0.37316 0.6979 0.0
C1682 C 0.48301 0.4688 0.69535 0.0
C1683 C 0.44872 0.42468 0.70561 0.0
C1684 C 0.42275 0.41368 0.71515 0.0
C1685 C 0.49566 0.44387 0.68701 0.0
C1686 C 0.48419 0.40919 0.68792 0.0
C1687 C 0.46136 0.39987 0.69729 0.0
C1688 C 0.49333 0.38253 0.6787 0.0
C1689 C 0.51999 0.45483 0.67697 0.0
C1690 C 0.46761 0.36995 0.67076 0.0
C1691 C 0.47505 0.34309 0.66253 0.0
C1692 C 0.50838 0.32833 0.66211 0.0
C1693 C 0.53423 0.34128 0.67 0.0
C1694 C 0.52672 0.36817 0.67827 0.0
H1695 H 0.52419 0.48335 0.67693 0.0
H1696 H 0.54545 0.44185 0.67819 0.0
H1697 H 0.50956 0.44654 0.66794 0.0
H1698 H 0.44162 0.38068 0.67104 0.0
H1699 H 0.45459 0.33368 0.65657 0.0
H1700 H 0.29382 0.59142 0.47311 0.0
H1701 H 0.33197 0.61666 0.45769 0.0
H1702 H 0.37166 0.68906 0.48455 0.0
H1703 H 0.33394 0.66354 0.50011 0.0
H1704 H 0.34021 0.68889 0.44959 0.0
H1705 H 0.45747 0.63248 0.47164 0.0
H1706 H 0.41416 0.61761 0.47504 0.0
H1707 H 0.42926 0.65822 0.4812 0.0
C1708 C 0.31063 0.61277 0.47572 0.0
C1709 C 0.31121 0.62527 0.48784 0.0
C1710 C 0.33216 0.62731 0.4669 0.0
C1711 C 0.35476 0.65445 0.47005 0.0
C1712 C 0.35451 0.66793 0.482 0.0
H1713 H 0.50043 0.75697 0.42056 0.0
H1714 H 0.45581 0.74731 0.43617 0.0
C1715 C 0.33285 0.65347 0.49084 0.0
C1716 C 0.38003 0.66694 0.46095 0.0
H1717 H 0.46598 0.6636 0.45351 0.0
C1718 C 0.36776 0.6838 0.45049 0.0
C1719 C 0.41586 0.65981 0.46215 0.0
C1720 C 0.43015 0.64084 0.47305 0.0
C1721 C 0.39053 0.69341 0.4411 0.0
C1722 C 0.42618 0.68576 0.44223 0.0
C1723 C 0.43853 0.66946 0.45276 0.0
C1724 C 0.4509 0.69243 0.43226 0.0
C1725 C 0.3764 0.71044 0.42979 0.0
C1726 C 0.46269 0.66472 0.42498 0.0
C1727 C 0.48787 0.67018 0.41604 0.0
C1728 C 0.50168 0.70351 0.41426 0.0
C1729 C 0.48949 0.7313 0.42149 0.0
C1730 C 0.46427 0.72579 0.43045 0.0
H1731 H 0.34791 0.7146 0.4303 0.0
H1732 H 0.38929 0.73586 0.42848 0.0
H1733 H 0.38235 0.69406 0.42165 0.0
H1734 H 0.45272 0.63875 0.42634 0.0
H1735 H 0.49681 0.64824 0.41063 0.0
H1736 H 0.25729 0.4804 0.21854 0.0
H1737 H 0.22809 0.52836 0.20833 0.0
H1738 H 0.31767 0.5934 0.2142 0.0
H1739 H 0.34703 0.54561 0.22461 0.0
H1740 H 0.21454 0.59692 0.21877 0.0
H1741 H 0.29669 0.60022 0.17683 0.0
H1742 H 0.29542 0.56277 0.18661 0.0
H1743 H 0.318 0.60117 0.19147 0.0
C1744 C 0.27077 0.50492 0.21771 0.0
C1745 C 0.3045 0.50914 0.22238 0.0
C1746 C 0.2541 0.53225 0.21184 0.0
C1747 C 0.27083 0.56429 0.21046 0.0
C1748 C 0.30453 0.5687 0.21504 0.0
H1749 H 0.16784 0.7267 0.16626 0.0
H1750 H 0.21051 0.70336 0.18083 0.0
C1751 C 0.32127 0.54132 0.22094 0.0
C1752 C 0.25237 0.59294 0.20434 0.0
H1753 H 0.24721 0.63577 0.17724 0.0
C1754 C 0.22202 0.60594 0.20979 0.0
C1755 C 0.26248 0.60495 0.1927 0.0
C1756 C 0.29482 0.59158 0.18646 0.0
C1757 C 0.20039 0.6291 0.20358 0.0
C1758 C 0.20912 0.63906 0.19158 0.0
C1759 C 0.24071 0.62809 0.18647 0.0
C1760 C 0.18305 0.65505 0.18348 0.0
C1761 C 0.16746 0.64146 0.20968 0.0
C1762 C 0.15385 0.63551 0.18017 0.0
C1763 C 0.12995 0.64844 0.17186 0.0
C1764 C 0.13462 0.6813 0.16665 0.0
C1765 C 0.16354 0.70135 0.17015 0.0
C1766 C 0.18788 0.68808 0.17844 0.0
H1767 H 0.16974 0.6408 0.2198 0.0
H1768 H 0.16084 0.66828 0.20687 0.0
H1769 H 0.14578 0.62409 0.20695 0.0
H1770 H 0.14994 0.60977 0.18382 0.0
H1771 H 0.10788 0.63238 0.16943 0.0
loop_
_geom_bond_atom_site_label_1
_geom_bond_atom_site_label_2
_geom_bond_distance
_geom_bond_site_symmetry_2
_ccdc_geom_bond_type
H0 C27 0.929 1_565 S
N1 C26 1.433 1_565 S
N1 C32 1.435 . S
N1 C38 1.423 . S
H2 C28 0.930 . S
H3 C31 0.931 . S
H4 C30 0.929 . S
H5 C33 0.930 1_545 S
H6 C34 0.940 . S
H7 C37 0.929 . S
H8 C36 0.931 . S
H9 C39 0.929 . S
H10 C43 0.932 . S
H11 C40 0.931 . S
H12 C42 0.942 . S
H13 C45 0.929 1_565 S
H14 C46 0.930 . S
H15 C48 0.929 . S
H16 C49 0.931 . S
H17 C51 0.930 1_545 S
H18 C52 0.942 . S
H19 C54 0.931 . S
H20 C55 0.929 . S
H21 C57 0.929 . S
H22 C58 0.931 . S
H23 C60 0.929 . S
N24 C44 1.433 1_565 S
N24 C50 1.435 . S
N24 C56 1.423 . S
H25 C61 0.932 . S
C26 N1 1.433 1_545 S
C26 C27 1.363 . S
C26 C31 1.370 . S
C27 H0 0.929 1_545 S
C27 C26 1.363 . S
C27 C28 1.385 . S
C28 H2 0.930 . S
C28 C27 1.385 . S
C28 C29 1.357 . S
C29 C28 1.357 . S
C29 C30 1.406 . S
C30 H4 0.929 . S
C30 C29 1.406 . S
C30 C31 1.391 . S
C31 H3 0.931 . S
C31 C26 1.370 . S
C31 C30 1.391 . S
C32 N1 1.435 . S
C32 C33 1.358 . S
C32 C37 1.371 . S
C33 H5 0.930 1_565 S
C33 C32 1.358 . S
C33 C34 1.405 . S
C34 H6 0.940 . S
C34 C33 1.405 . S
C34 C35 1.383 . S
C35 C34 1.383 . S
C35 C36 1.393 . S
C36 H8 0.931 . S
C36 C35 1.393 . S
C36 C37 1.382 . S
C37 H7 0.929 . S
C37 C32 1.371 . S
C37 C36 1.382 . S
C38 N1 1.423 . S
C38 C39 1.362 . S
C38 C43 1.388 . S
C39 H9 0.929 . S
C39 C38 1.362 . S
C39 C40 1.376 . S
C40 H11 0.931 . S
C40 C39 1.376 . S
C40 C41 1.396 1_655 S
C41 C40 1.396 1_455 S
C41 C42 1.348 1_455 S
C41 C59 1.472 . S
C42 H12 0.942 . S
C42 C41 1.348 1_655 S
C42 C43 1.443 . S
C43 H10 0.932 . S
C43 C38 1.388 . S
C43 C42 1.443 . S
C44 N24 1.433 1_545 S
C44 C45 1.363 . S
C44 C49 1.370 . S
C45 H13 0.929 1_545 S
C45 C44 1.363 . S
C45 C46 1.385 . S
C46 H14 0.930 . S
C46 C45 1.385 . S
C46 C47 1.357 . S
C47 C46 1.357 . S
C47 C48 1.406 . S
C48 H15 0.929 . S
C48 C47 1.406 . S
C48 C49 1.391 . S
C49 H16 0.931 . S
C49 C44 1.370 . S
C49 C48 1.391 . S
C50 N24 1.435 . S
C50 C51 1.358 . S
C50 C55 1.371 . S
C51 H17 0.930 1_565 S
C51 C50 1.358 . S
C51 C52 1.405 . S
C52 H18 0.942 . S
C52 C51 1.405 . S
C52 C53 1.383 . S
C53 C52 1.383 . S
C53 C54 1.393 . S
C54 H19 0.931 . S
C54 C53 1.393 . S
C54 C55 1.382 . S
C55 H20 0.929 . S
C55 C50 1.371 . S
C55 C54 1.382 . S
C56 N24 1.423 . S
C56 C57 1.362 . S
C56 C61 1.388 . S
C57 H21 0.929 . S
C57 C56 1.362 . S
C57 C58 1.376 . S
C58 H22 0.931 . S
C58 C57 1.376 . S
C58 C59 1.396 . S
C59 C41 1.472 . S
C59 C58 1.396 . S
C59 C60 1.348 . S
C60 H23 0.929 . S
C60 C59 1.348 . S
C60 C61 1.443 . S
C61 H25 0.932 . S
C61 C56 1.388 . S
C61 C60 1.443 . S
H62 C89 0.929 . S
N63 C88 1.433 . S
N63 C94 1.435 . S
N63 C100 1.423 . S
H64 C90 0.930 . S
H65 C93 0.931 . S
H66 C92 0.929 . S
H67 C95 0.930 . S
H68 C96 0.932 . S
H69 C99 0.929 . S
H70 C98 0.931 . S
H71 C101 0.929 . S
H72 C105 0.932 . S
H73 C102 0.931 . S
H74 C104 0.929 . S
H75 C107 0.929 . S
H76 C108 0.930 . S
H77 C110 0.929 . S
H78 C111 0.931 . S
H79 C113 0.930 . S
H80 C114 0.932 . S
H81 C116 0.931 . S
H82 C117 0.929 . S
H83 C119 0.929 . S
H84 C120 0.931 . S
H85 C122 0.929 . S
N86 C106 1.433 . S
N86 C112 1.435 . S
N86 C118 1.423 . S
H87 C123 0.932 . S
C88 N63 1.433 . S
C88 C89 1.363 . S
C88 C93 1.370 . S
C89 H62 0.929 . S
C89 C88 1.363 . S
C89 C90 1.385 . S
C90 H64 0.930 . S
C90 C89 1.385 . S
C90 C91 1.357 . S
C91 C90 1.357 . S
C91 C92 1.406 . S
C92 H66 0.929 . S
C92 C91 1.406 . S
C92 C93 1.391 . S
C93 H65 0.931 . S
C93 C88 1.370 . S
C93 C92 1.391 . S
C94 N63 1.435 . S
C94 C95 1.358 . S
C94 C99 1.371 . S
C95 H67 0.930 . S
C95 C94 1.358 . S
C95 C96 1.405 . S
C96 H68 0.932 . S
C96 C95 1.405 . S
C96 C97 1.383 . S
C97 C96 1.383 . S
C97 C98 1.393 . S
C98 H70 0.931 . S
C98 C97 1.393 . S
C98 C99 1.382 . S
C99 H69 0.929 . S
C99 C94 1.371 . S
C99 C98 1.382 . S
C100 N63 1.423 . S
C100 C101 1.362 . S
C100 C105 1.388 . S
C101 H71 0.929 . S
C101 C100 1.362 . S
C101 C102 1.376 . S
C102 H73 0.931 . S
C102 C101 1.376 . S
C102 C103 1.396 . S
C103 C102 1.396 . S
C103 C104 1.348 . S
C103 C121 1.472 . S
C104 H74 0.929 . S
C104 C103 1.348 . S
C104 C105 1.443 . S
C105 H72 0.932 . S
C105 C100 1.388 . S
C105 C104 1.443 . S
C106 N86 1.433 . S
C106 C107 1.363 . S
C106 C111 1.370 . S
C107 H75 0.929 . S
C107 C106 1.363 . S
C107 C108 1.385 . S
C108 H76 0.930 . S
C108 C107 1.385 . S
C108 C109 1.357 . S
C109 C108 1.357 . S
C109 C110 1.406 . S
C110 H77 0.929 . S
C110 C109 1.406 . S
C110 C111 1.391 . S
C111 H78 0.931 . S
C111 C106 1.370 . S
C111 C110 1.391 . S
C112 N86 1.435 . S
C112 C113 1.358 . S
C112 C117 1.371 . S
C113 H79 0.930 . S
C113 C112 1.358 . S
C113 C114 1.405 . S
C114 H80 0.932 . S
C114 C113 1.405 . S
C114 C115 1.383 . S
C115 C114 1.383 . S
C115 C116 1.393 . S
C116 H81 0.931 . S
C116 C115 1.393 . S
C116 C117 1.382 . S
C117 H82 0.929 . S
C117 C112 1.371 . S
C117 C116 1.382 . S
C118 N86 1.423 . S
C118 C119 1.362 . S
C118 C123 1.388 . S
C119 H83 0.929 . S
C119 C118 1.362 . S
C119 C120 1.376 . S
C120 H84 0.931 . S
C120 C119 1.376 . S
C120 C121 1.396 . S
C121 C103 1.472 . S
C121 C120 1.396 . S
C121 C122 1.348 . S
C122 H85 0.929 . S
C122 C121 1.348 . S
C122 C123 1.443 . S
C123 H87 0.932 . S
C123 C118 1.388 . S
C123 C122 1.443 . S
H124 C151 0.929 . S
N125 C150 1.424 1_545 S
N125 C156 1.435 . S
N125 C162 1.423 . S
H126 C152 0.930 . S
H127 C155 0.931 . S
H128 C154 0.929 . S
H129 C157 0.930 1_565 S
H130 C158 0.932 . S
H131 C161 0.929 . S
H132 C160 0.931 . S
H133 C163 0.929 . S
H134 C167 0.926 . S
H135 C164 0.931 . S
H136 C166 0.928 . S
H137 C169 0.929 . S
H138 C170 0.930 . S
H139 C172 0.929 . S
H140 C173 0.931 . S
H141 C175 0.930 1_565 S
H142 C176 0.932 . S
H143 C178 0.931 . S
H144 C179 0.929 . S
H145 C181 0.929 . S
H146 C182 0.931 . S
H147 C184 0.927 . S
N148 C168 1.424 1_545 S
N148 C174 1.435 . S
N148 C180 1.423 . S
H149 C185 0.925 . S
C150 N125 1.424 1_565 S
C150 C151 1.361 1_565 S
C150 C155 1.382 . S
C151 H124 0.929 . S
C151 C150 1.361 1_545 S
C151 C152 1.385 1_545 S
C152 H126 0.930 . S
C152 C151 1.385 1_565 S
C152 C153 1.357 . S
C153 C152 1.357 . S
C153 C154 1.406 . S
C154 H128 0.929 . S
C154 C153 1.406 . S
C154 C155 1.391 . S
C155 H127 0.931 . S
C155 C150 1.382 . S
C155 C154 1.391 . S
C156 N125 1.435 . S
C156 C157 1.358 . S
C156 C161 1.371 . S
C157 H129 0.930 1_545 S
C157 C156 1.358 . S
C157 C158 1.405 1_554 S
C158 H130 0.932 . S
C158 C157 1.405 1_556 S
C158 C159 1.383 . S
C159 C158 1.383 . S
C159 C160 1.393 . S
C160 H132 0.931 . S
C160 C159 1.393 . S
C160 C161 1.382 1_556 S
C161 H131 0.929 . S
C161 C156 1.371 . S
C161 C160 1.382 1_554 S
C162 N125 1.423 . S
C162 C163 1.362 . S
C162 C167 1.388 . S
C163 H133 0.929 . S
C163 C162 1.362 . S
C163 C164 1.376 . S
C164 H135 0.931 . S
C164 C163 1.376 . S
C164 C165 1.396 . S
C165 C164 1.396 . S
C165 C166 1.348 . S
C165 C183 1.472 . S
C166 H136 0.928 . S
C166 C165 1.348 . S
C166 C167 1.443 . S
C167 H134 0.926 . S
C167 C162 1.388 . S
C167 C166 1.443 . S
C168 N148 1.424 1_565 S
C168 C169 1.361 1_565 S
C168 C173 1.381 . S
C169 H137 0.929 . S
C169 C168 1.361 1_545 S
C169 C170 1.385 1_545 S
C170 H138 0.930 . S
C170 C169 1.385 1_565 S
C170 C171 1.357 . S
C171 C170 1.357 . S
C171 C172 1.406 . S
C172 H139 0.929 . S
C172 C171 1.406 . S
C172 C173 1.391 . S
C173 H140 0.931 . S
C173 C168 1.381 . S
C173 C172 1.391 . S
C174 N148 1.435 . S
C174 C175 1.358 . S
C174 C179 1.371 . S
C175 H141 0.930 1_545 S
C175 C174 1.358 . S
C175 C176 1.405 1_554 S
C176 H142 0.932 . S
C176 C175 1.405 1_556 S
C176 C177 1.383 . S
C177 C176 1.383 . S
C177 C178 1.393 . S
C178 H143 0.931 . S
C178 C177 1.393 . S
C178 C179 1.382 1_556 S
C179 H144 0.929 . S
C179 C174 1.371 . S
C179 C178 1.382 1_554 S
C180 N148 1.423 . S
C180 C181 1.362 . S
C180 C185 1.388 . S
C181 H145 0.929 . S
C181 C180 1.362 . S
C181 C182 1.376 . S
C182 H146 0.931 . S
C182 C181 1.376 . S
C182 C183 1.396 . S
C183 C165 1.472 . S
C183 C182 1.396 . S
C183 C184 1.348 . S
C184 H147 0.927 . S
C184 C183 1.348 . S
C184 C185 1.443 . S
C185 H149 0.925 . S
C185 C180 1.388 . S
C185 C184 1.443 . S
H186 C213 0.929 . S
N187 C212 1.433 . S
N187 C218 1.435 . S
N187 C224 1.423 . S
H188 C214 0.930 . S
H189 C217 0.931 . S
H190 C216 0.929 . S
H191 C219 0.930 . S
H192 C220 0.932 . S
H193 C223 0.929 . S
H194 C222 0.931 . S
H195 C225 0.929 . S
H196 C229 0.932 . S
H197 C226 0.931 . S
H198 C228 0.929 . S
H199 C231 0.929 . S
H200 C232 0.930 . S
H201 C234 0.929 . S
H202 C235 0.931 . S
H203 C237 0.930 . S
H204 C238 0.932 . S
H205 C240 0.931 . S
H206 C241 0.929 . S
H207 C243 0.929 . S
H208 C244 0.931 . S
H209 C246 0.929 . S
N210 C230 1.433 . S
N210 C236 1.435 . S
N210 C242 1.423 . S
H211 C247 0.932 . S
C212 N187 1.433 . S
C212 C213 1.363 . S
C212 C217 1.370 . S
C213 H186 0.929 . S
C213 C212 1.363 . S
C213 C214 1.385 . S
C214 H188 0.930 . S
C214 C213 1.385 . S
C214 C215 1.357 . S
C215 C214 1.357 . S
C215 C216 1.406 . S
C216 H190 0.929 . S
C216 C215 1.406 . S
C216 C217 1.391 . S
C217 H189 0.931 . S
C217 C212 1.370 . S
C217 C216 1.391 . S
C218 N187 1.435 . S
C218 C219 1.358 . S
C218 C223 1.371 . S
C219 H191 0.930 . S
C219 C218 1.358 . S
C219 C220 1.405 . S
C220 H192 0.932 . S
C220 C219 1.405 . S
C220 C221 1.383 . S
C221 C220 1.383 . S
C221 C222 1.393 . S
C222 H194 0.931 . S
C222 C221 1.393 . S
C222 C223 1.382 . S
C223 H193 0.929 . S
C223 C218 1.371 . S
C223 C222 1.382 . S
C224 N187 1.423 . S
C224 C225 1.362 . S
C224 C229 1.388 . S
C225 H195 0.929 . S
C225 C224 1.362 . S
C225 C226 1.376 . S
C226 H197 0.931 . S
C226 C225 1.376 . S
C226 C227 1.396 . S
C227 C226 1.396 . S
C227 C228 1.348 . S
C227 C245 1.472 . S
C228 H198 0.929 . S
C228 C227 1.348 . S
C228 C229 1.443 . S
C229 H196 0.932 . S
C229 C224 1.388 . S
C229 C228 1.443 . S
C230 N210 1.433 . S
C230 C231 1.363 . S
C230 C235 1.370 . S
C231 H199 0.929 . S
C231 C230 1.363 . S
C231 C232 1.385 . S
C232 H200 0.930 . S
C232 C231 1.385 . S
C232 C233 1.357 . S
C233 C232 1.357 . S
C233 C234 1.406 . S
C234 H201 0.929 . S
C234 C233 1.406 . S
C234 C235 1.391 . S
C235 H202 0.931 . S
C235 C230 1.370 . S
C235 C234 1.391 . S
C236 N210 1.435 . S
C236 C237 1.358 . S
C236 C241 1.371 . S
C237 H203 0.930 . S
C237 C236 1.358 . S
C237 C238 1.405 . S
C238 H204 0.932 . S
C238 C237 1.405 . S
C238 C239 1.383 . S
C239 C238 1.383 . S
C239 C240 1.393 . S
C240 H205 0.931 . S
C240 C239 1.393 . S
C240 C241 1.382 . S
C241 H206 0.929 . S
C241 C236 1.371 . S
C241 C240 1.382 . S
C242 N210 1.423 . S
C242 C243 1.362 . S
C242 C247 1.388 . S
C243 H207 0.929 . S
C243 C242 1.362 . S
C243 C244 1.376 . S
C244 H208 0.931 . S
C244 C243 1.376 . S
C244 C245 1.396 . S
C245 C227 1.472 . S
C245 C244 1.396 . S
C245 C246 1.348 . S
C246 H209 0.929 . S
C246 C245 1.348 . S
C246 C247 1.443 . S
C247 H211 0.932 . S
C247 C242 1.388 . S
C247 C246 1.443 . S
H248 C275 0.929 . S
N249 C274 1.433 . S
N249 C280 1.435 . S
N249 C286 1.423 . S
H250 C276 0.930 1_565 S
H251 C279 0.931 . S
H252 C278 0.929 . S
H253 C281 0.930 . S
H254 C282 0.932 1_565 S
H255 C285 0.929 . S
H256 C284 0.931 . S
H257 C287 0.929 . S
H258 C291 0.932 . S
H259 C288 0.931 . S
H260 C290 0.929 . S
H261 C293 0.929 . S
H262 C294 0.930 . S
H263 C296 0.929 . S
H264 C297 0.931 . S
H265 C299 0.930 . S
H266 C300 0.932 . S
H267 C302 0.931 . S
H268 C303 0.929 . S
H269 C305 0.929 . S
H270 C306 0.931 . S
H271 C308 0.929 . S
N272 C292 1.433 . S
N272 C298 1.435 . S
N272 C304 1.423 . S
H273 C309 0.932 . S
C274 N249 1.433 . S
C274 C275 1.363 . S
C274 C279 1.370 . S
C275 H248 0.929 . S
C275 C274 1.363 . S
C275 C276 1.385 . S
C276 H250 0.930 1_545 S
C276 C275 1.385 . S
C276 C277 1.357 . S
C277 C276 1.357 . S
C277 C278 1.406 . S
C278 H252 0.929 . S
C278 C277 1.406 . S
C278 C279 1.391 . S
C279 H251 0.931 . S
C279 C274 1.370 . S
C279 C278 1.391 . S
C280 N249 1.435 . S
C280 C281 1.358 . S
C280 C285 1.371 . S
C281 H253 0.930 . S
C281 C280 1.358 . S
C281 C282 1.405 . S
C282 H254 0.932 1_545 S
C282 C281 1.405 . S
C282 C283 1.383 . S
C283 C282 1.383 . S
C283 C284 1.393 . S
C284 H256 0.931 . S
C284 C283 1.393 . S
C284 C285 1.382 . S
C285 H255 0.929 . S
C285 C280 1.371 . S
C285 C284 1.382 . S
C286 N249 1.423 . S
C286 C287 1.362 . S
C286 C291 1.388 . S
C287 H257 0.929 . S
C287 C286 1.362 . S
C287 C288 1.376 . S
C288 H259 0.931 . S
C288 C287 1.376 . S
C288 C289 1.396 . S
C289 C288 1.396 . S
C289 C290 1.348 . S
C289 C307 1.472 . S
C290 H260 0.929 . S
C290 C289 1.348 . S
C290 C291 1.443 . S
C291 H258 0.932 . S
C291 C286 1.388 . S
C291 C290 1.443 . S
C292 N272 1.433 . S
C292 C293 1.363 . S
C292 C297 1.370 . S
C293 H261 0.929 . S
C293 C292 1.363 . S
C293 C294 1.385 . S
C294 H262 0.930 . S
C294 C293 1.385 . S
C294 C295 1.357 . S
C295 C294 1.357 . S
C295 C296 1.406 . S
C296 H263 0.929 . S
C296 C295 1.406 . S
C296 C297 1.391 . S
C297 H264 0.931 . S
C297 C292 1.370 . S
C297 C296 1.391 . S
C298 N272 1.435 . S
C298 C299 1.358 . S
C298 C303 1.371 . S
C299 H265 0.930 . S
C299 C298 1.358 . S
C299 C300 1.405 . S
C300 H266 0.932 . S
C300 C299 1.405 . S
C300 C301 1.383 . S
C301 C300 1.383 . S
C301 C302 1.393 . S
C302 H267 0.931 . S
C302 C301 1.393 . S
C302 C303 1.382 . S
C303 H268 0.929 . S
C303 C298 1.371 . S
C303 C302 1.382 . S
C304 N272 1.423 . S
C304 C305 1.362 . S
C304 C309 1.388 . S
C305 H269 0.929 . S
C305 C304 1.362 . S
C305 C306 1.376 . S
C306 H270 0.931 . S
C306 C305 1.376 . S
C306 C307 1.396 . S
C307 C289 1.472 . S
C307 C306 1.396 . S
C307 C308 1.348 . S
C308 H271 0.929 . S
C308 C307 1.348 . S
C308 C309 1.443 . S
C309 H273 0.932 . S
C309 C304 1.388 . S
C309 C308 1.443 . S
H310 C337 0.929 . S
N311 C336 1.433 . S
N311 C342 1.435 . S
N311 C348 1.423 . S
H312 C338 0.930 1_545 S
H313 C341 0.931 . S
H314 C340 0.929 . S
H315 C343 0.930 . S
H316 C344 0.932 . S
H317 C347 0.929 . S
H318 C346 0.931 . S
H319 C349 0.929 . S
H320 C353 0.932 . S
H321 C350 0.931 . S
H322 C352 0.929 . S
H323 C355 0.929 . S
H324 C356 0.930 . S
H325 C358 0.929 . S
H326 C359 0.931 . S
H327 C361 0.930 . S
H328 C362 0.932 . S
H329 C364 0.931 . S
H330 C365 0.929 . S
H331 C367 0.929 . S
H332 C368 0.931 . S
H333 C370 0.929 . S
N334 C354 1.433 . S
N334 C360 1.435 . S
N334 C366 1.423 . S
H335 C371 0.932 . S
C336 N311 1.433 . S
C336 C337 1.363 . S
C336 C341 1.370 . S
C337 H310 0.929 . S
C337 C336 1.363 . S
C337 C338 1.385 . S
C338 H312 0.930 1_565 S
C338 C337 1.385 . S
C338 C339 1.357 . S
C339 C338 1.357 . S
C339 C340 1.406 . S
C340 H314 0.929 . S
C340 C339 1.406 . S
C340 C341 1.391 . S
C341 H313 0.931 . S
C341 C336 1.370 . S
C341 C340 1.391 . S
C342 N311 1.435 . S
C342 C343 1.358 . S
C342 C347 1.371 . S
C343 H315 0.930 . S
C343 C342 1.358 . S
C343 C344 1.405 1_565 S
C344 H316 0.932 . S
C344 C343 1.405 1_545 S
C344 C345 1.383 . S
C345 C344 1.383 . S
C345 C346 1.393 1_545 S
C346 H318 0.931 . S
C346 C345 1.393 1_565 S
C346 C347 1.382 . S
C347 H317 0.929 . S
C347 C342 1.371 . S
C347 C346 1.382 . S
C348 N311 1.423 . S
C348 C349 1.362 . S
C348 C353 1.388 . S
C349 H319 0.929 . S
C349 C348 1.362 . S
C349 C350 1.376 . S
C350 H321 0.931 . S
C350 C349 1.376 . S
C350 C351 1.396 . S
C351 C350 1.396 . S
C351 C352 1.348 . S
C351 C369 1.472 . S
C352 H322 0.929 . S
C352 C351 1.348 . S
C352 C353 1.443 . S
C353 H320 0.932 . S
C353 C348 1.388 . S
C353 C352 1.443 . S
C354 N334 1.433 . S
C354 C355 1.363 . S
C354 C359 1.370 . S
C355 H323 0.929 . S
C355 C354 1.363 . S
C355 C356 1.385 . S
C356 H324 0.930 . S
C356 C355 1.385 . S
C356 C357 1.357 . S
C357 C356 1.357 . S
C357 C358 1.406 . S
C358 H325 0.929 . S
C358 C357 1.406 . S
C358 C359 1.391 . S
C359 H326 0.931 . S
C359 C354 1.370 . S
C359 C358 1.391 . S
C360 N334 1.435 . S
C360 C361 1.358 . S
C360 C365 1.371 . S
C361 H327 0.930 . S
C361 C360 1.358 . S
C361 C362 1.405 . S
C362 H328 0.932 . S
C362 C361 1.405 . S
C362 C363 1.383 . S
C363 C362 1.383 . S
C363 C364 1.393 . S
C364 H329 0.931 . S
C364 C363 1.393 . S
C364 C365 1.382 . S
C365 H330 0.929 . S
C365 C360 1.371 . S
C365 C364 1.382 . S
C366 N334 1.423 . S
C366 C367 1.362 . S
C366 C371 1.388 . S
C367 H331 0.929 . S
C367 C366 1.362 . S
C367 C368 1.376 . S
C368 H332 0.931 . S
C368 C367 1.376 . S
C368 C369 1.396 . S
C369 C351 1.472 . S
C369 C368 1.396 . S
C369 C370 1.348 . S
C370 H333 0.929 . S
C370 C369 1.348 . S
C370 C371 1.443 . S
C371 H335 0.932 . S
C371 C366 1.388 . S
C371 C370 1.443 . S
H372 C399 0.929 . S
N373 C398 1.433 . S
N373 C404 1.435 . S
N373 C410 1.423 . S
H374 C400 0.930 . S
H375 C403 0.931 1_554 S
H376 C402 0.929 . S
H377 C405 0.930 . S
H378 C406 0.932 . S
H379 C409 0.929 . S
H380 C408 0.931 . S
H381 C411 0.894 1_556 S
H382 C415 0.932 . S
H383 C412 0.872 1_556 S
H384 C414 0.929 . S
H385 C417 0.929 . S
H386 C418 0.930 . S
H387 C420 0.929 . S
H388 C421 0.931 1_554 S
H389 C423 0.930 . S
H390 C424 0.932 . S
H391 C426 0.931 . S
H392 C427 0.929 . S
H393 C429 0.896 1_556 S
H394 C430 0.873 1_556 S
H395 C432 0.929 . S
N396 C416 1.433 . S
N396 C422 1.435 . S
N396 C428 1.423 . S
H397 C433 0.932 . S
C398 N373 1.433 . S
C398 C399 1.363 1_554 S
C398 C403 1.370 1_554 S
C399 H372 0.929 . S
C399 C398 1.363 1_556 S
C399 C400 1.385 . S
C400 H374 0.930 . S
C400 C399 1.385 . S
C400 C401 1.357 . S
C401 C400 1.357 . S
C401 C402 1.406 . S
C402 H376 0.929 . S
C402 C401 1.406 . S
C402 C403 1.391 . S
C403 H375 0.931 1_556 S
C403 C398 1.370 1_556 S
C403 C402 1.391 . S
C404 N373 1.435 . S
C404 C405 1.358 . S
C404 C409 1.371 . S
C405 H377 0.930 . S
C405 C404 1.358 . S
C405 C406 1.405 . S
C406 H378 0.932 . S
C406 C405 1.405 . S
C406 C407 1.383 . S
C407 C406 1.383 . S
C407 C408 1.393 . S
C408 H380 0.931 . S
C408 C407 1.393 . S
C408 C409 1.382 . S
C409 H379 0.929 . S
C409 C404 1.371 . S
C409 C408 1.382 . S
C410 N373 1.423 . S
C410 C411 1.396 . S
C410 C415 1.388 . S
C411 H381 0.894 1_554 S
C411 C410 1.396 . S
C411 C412 1.376 . S
C412 H383 0.872 1_554 S
C412 C411 1.376 . S
C412 C413 1.455 . S
C413 C412 1.455 . S
C413 C414 1.348 . S
C413 C431 1.472 . S
C414 H384 0.929 . S
C414 C413 1.348 . S
C414 C415 1.443 . S
C415 H382 0.932 . S
C415 C410 1.388 . S
C415 C414 1.443 . S
C416 N396 1.433 . S
C416 C417 1.363 1_554 S
C416 C421 1.370 1_554 S
C417 H385 0.929 . S
C417 C416 1.363 1_556 S
C417 C418 1.385 . S
C418 H386 0.930 . S
C418 C417 1.385 . S
C418 C419 1.357 . S
C419 C418 1.357 . S
C419 C420 1.406 . S
C420 H387 0.929 . S
C420 C419 1.406 . S
C420 C421 1.391 . S
C421 H388 0.931 1_556 S
C421 C416 1.370 1_556 S
C421 C420 1.391 . S
C422 N396 1.435 . S
C422 C423 1.358 . S
C422 C427 1.371 . S
C423 H389 0.930 . S
C423 C422 1.358 . S
C423 C424 1.405 . S
C424 H390 0.932 . S
C424 C423 1.405 . S
C424 C425 1.383 . S
C425 C424 1.383 . S
C425 C426 1.393 . S
C426 H391 0.931 . S
C426 C425 1.393 . S
C426 C427 1.382 . S
C427 H392 0.929 . S
C427 C422 1.371 . S
C427 C426 1.382 . S
C428 N396 1.423 . S
C428 C429 1.395 . S
C428 C433 1.388 . S
C429 H393 0.896 1_554 S
C429 C428 1.395 . S
C429 C430 1.376 . S
C430 H394 0.873 1_554 S
C430 C429 1.376 . S
C430 C431 1.454 . S
C431 C413 1.472 . S
C431 C430 1.454 . S
C431 C432 1.348 . S
C432 H395 0.929 . S
C432 C431 1.348 . S
C432 C433 1.443 . S
C433 H397 0.932 . S
C433 C428 1.388 . S
C433 C432 1.443 . S
H434 C461 0.929 . S
N435 C460 1.433 . S
N435 C466 1.435 . S
N435 C472 1.423 . S
H436 C462 0.930 . S
H437 C465 0.931 . S
H438 C464 0.929 . S
H439 C467 0.930 . S
H440 C468 0.932 . S
H441 C471 0.929 . S
H442 C470 0.931 . S
H443 C473 0.929 . S
H444 C477 0.932 . S
H445 C474 0.931 . S
H446 C476 0.929 . S
H447 C479 0.929 . S
H448 C480 0.930 . S
H449 C482 0.929 1_455 S
H450 C483 0.931 . S
H451 C485 0.930 . S
H452 C486 0.932 . S
H453 C488 0.931 . S
H454 C489 0.929 1_455 S
H455 C491 0.929 . S
H456 C492 0.931 . S
H457 C494 0.929 . S
N458 C478 1.433 1_455 S
N458 C484 1.435 1_455 S
N458 C490 1.423 . S
H459 C495 0.932 . S
C460 N435 1.433 . S
C460 C461 1.363 . S
C460 C465 1.370 . S
C461 H434 0.929 . S
C461 C460 1.363 . S
C461 C462 1.385 . S
C462 H436 0.930 . S
C462 C461 1.385 . S
C462 C463 1.357 . S
C463 C462 1.357 . S
C463 C464 1.406 . S
C464 H438 0.929 . S
C464 C463 1.406 . S
C464 C465 1.391 . S
C465 H437 0.931 . S
C465 C460 1.370 . S
C465 C464 1.391 . S
C466 N435 1.435 . S
C466 C467 1.358 . S
C466 C471 1.371 . S
C467 H439 0.930 . S
C467 C466 1.358 . S
C467 C468 1.405 . S
C468 H440 0.932 . S
C468 C467 1.405 . S
C468 C469 1.383 . S
C469 C468 1.383 . S
C469 C470 1.393 . S
C470 H442 0.931 . S
C470 C469 1.393 . S
C470 C471 1.382 . S
C471 H441 0.929 . S
C471 C466 1.371 . S
C471 C470 1.382 . S
C472 N435 1.423 . S
C472 C473 1.362 . S
C472 C477 1.388 . S
C473 H443 0.929 . S
C473 C472 1.362 . S
C473 C474 1.376 . S
C474 H445 0.931 . S
C474 C473 1.376 . S
C474 C475 1.396 . S
C475 C474 1.396 . S
C475 C476 1.348 . S
C475 C493 1.472 . S
C476 H446 0.929 . S
C476 C475 1.348 . S
C476 C477 1.443 . S
C477 H444 0.932 . S
C477 C472 1.388 . S
C477 C476 1.443 . S
C478 N458 1.433 1_655 S
C478 C479 1.363 . S
C478 C483 1.370 1_655 S
C479 H447 0.929 . S
C479 C478 1.363 . S
C479 C480 1.385 . S
C480 H448 0.930 . S
C480 C479 1.385 . S
C480 C481 1.357 . S
C481 C480 1.357 . S
C481 C482 1.406 . S
C482 H449 0.929 1_655 S
C482 C481 1.406 . S
C482 C483 1.391 1_655 S
C483 H450 0.931 . S
C483 C478 1.370 1_455 S
C483 C482 1.391 1_455 S
C484 N458 1.435 1_655 S
C484 C485 1.358 . S
C484 C489 1.371 . S
C485 H451 0.930 . S
C485 C484 1.358 . S
C485 C486 1.405 . S
C486 H452 0.932 . S
C486 C485 1.405 . S
C486 C487 1.383 . S
C487 C486 1.383 . S
C487 C488 1.393 . S
C488 H453 0.931 . S
C488 C487 1.393 . S
C488 C489 1.382 . S
C489 H454 0.929 1_655 S
C489 C484 1.371 . S
C489 C488 1.382 . S
C490 N458 1.423 . S
C490 C491 1.362 . S
C490 C495 1.388 . S
C491 H455 0.929 . S
C491 C490 1.362 . S
C491 C492 1.376 . S
C492 H456 0.931 . S
C492 C491 1.376 . S
C492 C493 1.396 . S
C493 C475 1.472 . S
C493 C492 1.396 . S
C493 C494 1.348 . S
C494 H457 0.929 . S
C494 C493 1.348 . S
C494 C495 1.443 . S
C495 H459 0.932 . S
C495 C490 1.388 . S
C495 C494 1.443 . S
C496 O523 1.312 . S
C496 O524 1.208 . S
C497 O518 1.306 1_655 S
C497 O521 1.261 . S
C498 O520 1.251 1_655 S
C498 O522 1.281 . S
Mg499 O501 1.936 . S
Mg499 O508 2.081 . S
Mg499 O510 2.023 . S
Mg499 O514 2.031 . S
Mg499 O523 2.291 . S
Mg500 O501 1.963 . S
Mg500 O511 1.942 . S
Mg500 O512 1.955 . S
Mg500 O519 1.986 . S
O501 Mg499 1.936 . S
O501 Mg500 1.963 . S
O501 Mg502 1.915 . S
Mg502 O501 1.915 . S
Mg502 O503 1.915 . S
Mg502 O507 2.013 . S
Mg502 O513 2.114 . S
Mg502 O517 2.013 . S
Mg502 O523 2.114 . S
O503 Mg502 1.915 . S
O503 Mg504 1.936 . S
O503 Mg505 1.963 1_455 S
Mg504 O503 1.936 . S
Mg504 O513 2.291 . S
Mg504 O518 2.081 . S
Mg504 O520 2.023 . S
Mg504 O524 2.031 . S
Mg505 O503 1.963 1_655 S
Mg505 O509 1.986 . S
Mg505 O521 1.942 . S
Mg505 O522 1.955 . S
C506 O517 1.191 . S
C506 O519 1.307 . S
O507 Mg502 2.013 . S
O507 C526 1.191 . S
O508 Mg499 2.081 . S
O508 C516 1.331 . S
O509 Mg505 1.986 . S
O509 C526 1.305 1_655 S
O510 Mg499 2.023 . S
O510 C525 1.264 . S
O511 Mg500 1.942 . S
O511 C516 1.244 . S
O512 Mg500 1.955 . S
O512 C525 1.273 . S
O513 Mg502 2.114 . S
O513 Mg504 2.291 . S
O513 C515 1.312 . S
O514 Mg499 2.031 . S
O514 C515 1.208 . S
C515 O513 1.312 . S
C515 O514 1.208 . S
C516 O508 1.331 . S
C516 O511 1.244 . S
O517 Mg502 2.013 . S
O517 C506 1.191 . S
O518 C497 1.306 1_455 S
O518 Mg504 2.081 . S
O519 Mg500 1.986 . S
O519 C506 1.307 . S
O520 C498 1.251 1_455 S
O520 Mg504 2.023 . S
O521 C497 1.261 . S
O521 Mg505 1.942 . S
O522 C498 1.281 . S
O522 Mg505 1.955 . S
O523 C496 1.312 . S
O523 Mg499 2.291 . S
O523 Mg502 2.114 . S
O524 C496 1.208 . S
O524 Mg504 2.031 . S
C525 O510 1.264 . S
C525 O512 1.273 . S
C526 O507 1.191 . S
C526 O509 1.305 1_455 S
C527 O554 1.312 . S
C527 O555 1.208 . S
C528 O549 1.331 . S
C528 O552 1.244 . S
C529 O551 1.264 . S
C529 O553 1.273 . S
Mg530 O532 1.936 . S
Mg530 O539 2.081 . S
Mg530 O541 2.023 . S
Mg530 O545 2.031 . S
Mg530 O554 2.291 . S
Mg531 O532 1.963 . S
Mg531 O542 1.942 . S
Mg531 O543 1.955 . S
Mg531 O550 1.986 . S
O532 Mg530 1.936 . S
O532 Mg531 1.963 . S
O532 Mg533 1.915 . S
Mg533 O532 1.915 . S
Mg533 O534 1.915 . S
Mg533 O538 2.013 . S
Mg533 O544 2.114 . S
Mg533 O548 2.013 . S
Mg533 O554 2.114 . S
O534 Mg533 1.915 . S
O534 Mg535 1.936 . S
O534 Mg536 1.963 . S
Mg535 O534 1.936 . S
Mg535 O544 2.291 . S
Mg535 O549 2.081 . S
Mg535 O551 2.023 . S
Mg535 O555 2.031 . S
Mg536 O534 1.963 . S
Mg536 O540 1.986 . S
Mg536 O552 1.942 . S
Mg536 O553 1.955 . S
C537 O548 1.191 . S
C537 O550 1.307 . S
O538 Mg533 2.013 . S
O538 C557 1.191 . S
O539 Mg530 2.081 . S
O539 C547 1.331 . S
O540 Mg536 1.986 . S
O540 C557 1.307 . S
O541 Mg530 2.023 . S
O541 C556 1.264 . S
O542 Mg531 1.942 . S
O542 C547 1.244 . S
O543 Mg531 1.955 . S
O543 C556 1.273 . S
O544 Mg533 2.114 . S
O544 Mg535 2.291 . S
O544 C546 1.312 . S
O545 Mg530 2.031 . S
O545 C546 1.208 . S
C546 O544 1.312 . S
C546 O545 1.208 . S
C547 O539 1.331 . S
C547 O542 1.244 . S
O548 Mg533 2.013 . S
O548 C537 1.191 . S
O549 C528 1.331 . S
O549 Mg535 2.081 . S
O550 Mg531 1.986 . S
O550 C537 1.307 . S
O551 C529 1.264 . S
O551 Mg535 2.023 . S
O552 C528 1.244 . S
O552 Mg536 1.942 . S
O553 C529 1.273 . S
O553 Mg536 1.955 . S
O554 C527 1.312 . S
O554 Mg530 2.291 . S
O554 Mg533 2.114 . S
O555 C527 1.208 . S
O555 Mg535 2.031 . S
C556 O541 1.264 . S
C556 O543 1.273 . S
C557 O538 1.191 . S
C557 O540 1.307 . S
C558 O585 1.312 . S
C558 O586 1.208 . S
C559 O580 1.331 . S
C559 O583 1.244 . S
C560 O582 1.264 . S
C560 O584 1.273 . S
Mg561 O563 1.936 . S
Mg561 O570 2.081 . S
Mg561 O572 2.023 . S
Mg561 O576 2.031 . S
Mg561 O585 2.291 . S
Mg562 O563 1.963 . S
Mg562 O573 1.942 . S
Mg562 O574 1.955 . S
Mg562 O581 1.986 . S
O563 Mg561 1.936 . S
O563 Mg562 1.963 . S
O563 Mg564 1.915 . S
Mg564 O563 1.915 . S
Mg564 O565 1.915 . S
Mg564 O569 2.013 . S
Mg564 O575 2.114 . S
Mg564 O579 2.013 . S
Mg564 O585 2.114 . S
O565 Mg564 1.915 . S
O565 Mg566 1.936 . S
O565 Mg567 1.963 . S
Mg566 O565 1.936 . S
Mg566 O575 2.291 . S
Mg566 O580 2.081 . S
Mg566 O582 2.023 . S
Mg566 O586 2.031 . S
Mg567 O565 1.963 . S
Mg567 O571 1.986 . S
Mg567 O583 1.942 . S
Mg567 O584 1.955 . S
C568 O579 1.191 . S
C568 O581 1.307 . S
O569 Mg564 2.013 . S
O569 C588 1.191 . S
O570 Mg561 2.081 . S
O570 C578 1.331 . S
O571 Mg567 1.986 . S
O571 C588 1.307 . S
O572 Mg561 2.023 . S
O572 C587 1.264 . S
O573 Mg562 1.942 . S
O573 C578 1.244 . S
O574 Mg562 1.955 . S
O574 C587 1.273 . S
O575 Mg564 2.114 . S
O575 Mg566 2.291 . S
O575 C577 1.312 . S
O576 Mg561 2.031 . S
O576 C577 1.208 . S
C577 O575 1.312 . S
C577 O576 1.208 . S
C578 O570 1.331 . S
C578 O573 1.244 . S
O579 Mg564 2.013 . S
O579 C568 1.191 . S
O580 C559 1.331 . S
O580 Mg566 2.081 . S
O581 Mg562 1.986 . S
O581 C568 1.307 . S
O582 C560 1.264 . S
O582 Mg566 2.023 . S
O583 C559 1.244 . S
O583 Mg567 1.942 . S
O584 C560 1.273 . S
O584 Mg567 1.955 . S
O585 C558 1.312 . S
O585 Mg561 2.291 . S
O585 Mg564 2.114 . S
O586 C558 1.208 . S
O586 Mg566 2.031 . S
C587 O572 1.264 . S
C587 O574 1.273 . S
C588 O569 1.191 . S
C588 O571 1.307 . S
C589 O616 1.312 . S
C589 O617 1.208 . S
C590 O611 1.331 . S
C590 O614 1.244 . S
C591 O613 1.264 . S
C591 O615 1.273 . S
Mg592 O594 1.936 . S
Mg592 O601 2.081 . S
Mg592 O603 2.023 . S
Mg592 O607 2.031 . S
Mg592 O616 2.291 . S
Mg593 O594 1.963 1_655 S
Mg593 O604 1.942 . S
Mg593 O605 1.955 . S
Mg593 O612 1.987 . S
O594 Mg592 1.936 . S
O594 Mg593 1.963 1_455 S
O594 Mg595 1.915 . S
Mg595 O594 1.915 . S
Mg595 O596 1.915 . S
Mg595 O600 2.013 . S
Mg595 O606 2.114 . S
Mg595 O610 2.013 . S
Mg595 O616 2.114 . S
O596 Mg595 1.915 . S
O596 Mg597 1.936 . S
O596 Mg598 1.963 . S
Mg597 O596 1.936 . S
Mg597 O606 2.291 . S
Mg597 O611 2.081 . S
Mg597 O613 2.023 . S
Mg597 O617 2.031 . S
Mg598 O596 1.963 . S
Mg598 O602 1.986 . S
Mg598 O614 1.942 . S
Mg598 O615 1.955 . S
C599 O610 1.191 . S
C599 O612 1.301 1_455 S
O600 Mg595 2.013 . S
O600 C619 1.191 . S
O601 Mg592 2.081 . S
O601 C609 1.331 1_455 S
O602 Mg598 1.986 . S
O602 C619 1.307 . S
O603 Mg592 2.023 . S
O603 C618 1.237 1_455 S
O604 Mg593 1.942 . S
O604 C609 1.244 . S
O605 Mg593 1.955 . S
O605 C618 1.288 . S
O606 Mg595 2.114 . S
O606 Mg597 2.291 . S
O606 C608 1.312 . S
O607 Mg592 2.031 . S
O607 C608 1.208 . S
C608 O606 1.312 . S
C608 O607 1.208 . S
C609 O601 1.331 1_655 S
C609 O604 1.244 . S
O610 Mg595 2.013 . S
O610 C599 1.191 . S
O611 C590 1.331 . S
O611 Mg597 2.081 . S
O612 Mg593 1.987 . S
O612 C599 1.301 1_655 S
O613 C591 1.264 . S
O613 Mg597 2.023 . S
O614 C590 1.244 . S
O614 Mg598 1.942 . S
O615 C591 1.273 . S
O615 Mg598 1.955 . S
O616 C589 1.312 . S
O616 Mg592 2.291 . S
O616 Mg595 2.114 . S
O617 C589 1.208 . S
O617 Mg597 2.031 . S
C618 O603 1.237 1_655 S
C618 O605 1.288 . S
C619 O600 1.191 . S
C619 O602 1.307 . S
H620 C628 0.929 . S
H621 C630 0.930 . S
H622 C632 0.930 . S
H623 C635 0.929 . S
H624 C638 0.930 . S
H625 C640 0.960 . S
H626 C640 0.960 . S
H627 C640 0.960 . S
C628 H620 0.929 . S
C628 C629 1.377 . S
C628 C630 1.384 . S
C629 C628 1.377 . S
C629 C635 1.390 . S
C630 H621 0.930 . S
C630 C628 1.384 . S
C630 C631 1.372 . S
C631 C630 1.372 . S
C631 C632 1.400 . S
C631 C636 1.490 . S
C632 H622 0.930 . S
C632 C631 1.400 . S
C632 C635 1.386 . S
H633 C649 0.930 . S
H634 C650 0.931 . S
C635 H623 0.929 . S
C635 C629 1.390 . S
C635 C632 1.386 . S
C636 C631 1.490 . S
C636 C638 1.395 . S
C636 C639 1.403 . S
H637 C643 0.930 . S
C638 H624 0.930 . S
C638 C636 1.395 . S
C638 C641 1.403 . S
C639 C636 1.403 . S
C639 C640 1.524 . S
C639 C643 1.400 . S
C640 H625 0.960 . S
C640 H626 0.960 . S
C640 H627 0.960 . S
C640 C639 1.524 . S
C641 C638 1.403 . S
C641 C642 1.392 . S
C641 C645 1.495 . S
C642 C641 1.392 . S
C642 C643 1.385 . S
C642 C644 1.478 . S
C643 H637 0.930 . S
C643 C639 1.400 . S
C643 C642 1.385 . S
C644 C642 1.478 . S
C644 C646 1.381 . S
C644 C650 1.383 . S
C645 C641 1.495 . S
C645 H651 0.959 . S
C645 H652 0.961 . S
C645 H653 0.960 . S
C646 C644 1.381 . S
C646 C647 1.394 . S
C646 H654 0.930 . S
C647 C646 1.394 . S
C647 C648 1.383 . S
C647 H655 0.929 . S
C648 C647 1.383 . S
C648 C649 1.377 . S
C649 H633 0.930 . S
C649 C648 1.377 . S
C649 C650 1.379 . S
C650 H634 0.931 . S
C650 C644 1.383 . S
C650 C649 1.379 . S
H651 C645 0.959 . S
H652 C645 0.961 . S
H653 C645 0.960 . S
H654 C646 0.930 . S
H655 C647 0.929 . S
H656 C664 0.929 . S
H657 C666 0.930 . S
H658 C668 0.930 . S
H659 C671 0.929 . S
H660 C674 0.930 . S
H661 C676 0.960 . S
H662 C676 0.960 . S
H663 C676 0.960 . S
C664 H656 0.929 . S
C664 C665 1.377 . S
C664 C666 1.384 . S
C665 C664 1.377 . S
C665 C671 1.390 . S
C666 H657 0.930 . S
C666 C664 1.384 . S
C666 C667 1.372 . S
C667 C666 1.372 . S
C667 C668 1.400 . S
C667 C672 1.490 1_565 S
C668 H658 0.930 . S
C668 C667 1.400 . S
C668 C671 1.386 . S
H669 C685 0.930 . S
H670 C686 0.931 . S
C671 H659 0.929 . S
C671 C665 1.390 . S
C671 C668 1.386 . S
C672 C667 1.490 1_545 S
C672 C674 1.395 1_545 S
C672 C675 1.403 . S
H673 C679 0.930 . S
C674 H660 0.930 . S
C674 C672 1.395 1_565 S
C674 C677 1.403 1_565 S
C675 C672 1.403 . S
C675 C676 1.524 . S
C675 C679 1.400 . S
C676 H661 0.960 . S
C676 H662 0.960 . S
C676 H663 0.960 . S
C676 C675 1.524 . S
C677 C674 1.403 1_545 S
C677 C678 1.392 . S
C677 C681 1.495 . S
C678 C677 1.392 . S
C678 C679 1.385 . S
C678 C680 1.478 . S
C679 H673 0.930 . S
C679 C675 1.400 . S
C679 C678 1.385 . S
C680 C678 1.478 . S
C680 C682 1.381 . S
C680 C686 1.383 . S
C681 C677 1.495 . S
C681 H687 0.959 1_545 S
C681 H688 0.961 . S
C681 H689 0.960 . S
C682 C680 1.381 . S
C682 C683 1.394 . S
C682 H690 0.930 . S
C683 C682 1.394 . S
C683 C684 1.383 . S
C683 H691 0.929 . S
C684 C683 1.383 . S
C684 C685 1.377 . S
C685 H669 0.930 . S
C685 C684 1.377 . S
C685 C686 1.379 . S
C686 H670 0.931 . S
C686 C680 1.383 . S
C686 C685 1.379 . S
H687 C681 0.959 1_565 S
H688 C681 0.961 . S
H689 C681 0.960 . S
H690 C682 0.930 . S
H691 C683 0.929 . S
H692 C700 0.929 . S
H693 C702 0.930 . S
H694 C704 0.930 . S
H695 C707 0.929 . S
H696 C710 0.930 . S
H697 C712 0.960 . S
H698 C712 0.960 . S
H699 C712 0.960 . S
C700 H692 0.929 . S
C700 C701 1.377 . S
C700 C702 1.384 . S
C701 C700 1.377 . S
C701 C707 1.390 . S
C702 H693 0.930 . S
C702 C700 1.384 . S
C702 C703 1.372 . S
C703 C702 1.372 . S
C703 C704 1.400 . S
C703 C708 1.490 . S
C704 H694 0.930 . S
C704 C703 1.400 . S
C704 C707 1.386 . S
H705 C721 0.930 . S
H706 C722 0.931 . S
C707 H695 0.929 . S
C707 C701 1.390 . S
C707 C704 1.386 . S
C708 C703 1.490 . S
C708 C710 1.395 . S
C708 C711 1.403 . S
H709 C715 0.930 . S
C710 H696 0.930 . S
C710 C708 1.395 . S
C710 C713 1.403 . S
C711 C708 1.403 . S
C711 C712 1.524 . S
C711 C715 1.400 . S
C712 H697 0.960 . S
C712 H698 0.960 . S
C712 H699 0.960 . S
C712 C711 1.524 . S
C713 C710 1.403 . S
C713 C714 1.392 . S
C713 C717 1.495 . S
C714 C713 1.392 . S
C714 C715 1.385 . S
C714 C716 1.478 . S
C715 H709 0.930 . S
C715 C711 1.400 . S
C715 C714 1.385 . S
C716 C714 1.478 . S
C716 C718 1.381 . S
C716 C722 1.383 . S
C717 C713 1.495 . S
C717 H723 0.959 . S
C717 H724 0.961 . S
C717 H725 0.960 . S
C718 C716 1.381 . S
C718 C719 1.394 . S
C718 H726 0.930 . S
C719 C718 1.394 . S
C719 C720 1.383 . S
C719 H727 0.929 . S
C720 C719 1.383 . S
C720 C721 1.377 . S
C721 H705 0.930 . S
C721 C720 1.377 . S
C721 C722 1.379 . S
C722 H706 0.931 . S
C722 C716 1.383 . S
C722 C721 1.379 . S
H723 C717 0.959 . S
H724 C717 0.961 . S
H725 C717 0.960 . S
H726 C718 0.930 . S
H727 C719 0.929 . S
H728 C736 0.929 . S
H729 C738 0.930 . S
H730 C740 0.930 . S
H731 C743 0.929 . S
H732 C746 0.930 . S
H733 C748 0.960 . S
H734 C748 0.960 . S
H735 C748 0.960 . S
C736 H728 0.929 . S
C736 C737 1.377 . S
C736 C738 1.384 . S
C737 C736 1.377 . S
C737 C743 1.390 . S
C738 H729 0.930 . S
C738 C736 1.384 . S
C738 C739 1.372 . S
C739 C738 1.372 . S
C739 C740 1.400 . S
C739 C744 1.490 1_545 S
C740 H730 0.930 . S
C740 C739 1.400 . S
C740 C743 1.386 . S
H741 C757 0.930 . S
H742 C758 0.931 . S
C743 H731 0.929 . S
C743 C737 1.390 . S
C743 C740 1.386 . S
C744 C739 1.490 1_565 S
C744 C746 1.395 . S
C744 C747 1.400 1_565 S
H745 C751 0.930 . S
C746 H732 0.930 . S
C746 C744 1.395 . S
C746 C749 1.403 . S
C747 C744 1.400 1_545 S
C747 C748 1.542 . S
C747 C751 1.383 1_545 S
C748 H733 0.960 . S
C748 H734 0.960 . S
C748 H735 0.960 . S
C748 C747 1.542 . S
C749 C746 1.403 . S
C749 C750 1.392 . S
C749 C753 1.495 . S
C750 C749 1.392 . S
C750 C751 1.385 . S
C750 C752 1.478 . S
C751 H745 0.930 . S
C751 C747 1.383 1_565 S
C751 C750 1.385 . S
C752 C750 1.478 . S
C752 C754 1.381 . S
C752 C758 1.383 . S
C753 C749 1.495 . S
C753 H759 0.959 . S
C753 H760 0.961 . S
C753 H761 0.960 . S
C754 C752 1.381 . S
C754 C755 1.394 . S
C754 H762 0.930 . S
C755 C754 1.394 . S
C755 C756 1.383 . S
C755 H763 0.929 . S
C756 C755 1.383 . S
C756 C757 1.377 . S
C757 H741 0.930 . S
C757 C756 1.377 . S
C757 C758 1.379 . S
C758 H742 0.931 . S
C758 C752 1.383 . S
C758 C757 1.379 . S
H759 C753 0.959 . S
H760 C753 0.961 . S
H761 C753 0.960 . S
H762 C754 0.930 . S
H763 C755 0.929 . S
H764 C772 0.929 . S
H765 C774 0.930 . S
H766 C776 0.930 . S
H767 C779 0.929 . S
H768 C782 0.930 . S
H769 C784 0.960 . S
H770 C784 0.960 . S
H771 C784 0.960 . S
C772 H764 0.929 . S
C772 C773 1.377 . S
C772 C774 1.384 . S
C773 C772 1.377 . S
C773 C779 1.390 . S
C774 H765 0.930 . S
C774 C772 1.384 . S
C774 C775 1.372 . S
C775 C774 1.372 . S
C775 C776 1.400 . S
C775 C780 1.490 . S
C776 H766 0.930 . S
C776 C775 1.400 . S
C776 C779 1.386 . S
H777 C793 0.930 . S
H778 C794 0.931 . S
C779 H767 0.929 . S
C779 C773 1.390 . S
C779 C776 1.386 . S
C780 C775 1.490 . S
C780 C782 1.395 . S
C780 C783 1.403 . S
H781 C787 0.930 . S
C782 H768 0.930 . S
C782 C780 1.395 . S
C782 C785 1.403 . S
C783 C780 1.403 . S
C783 C784 1.524 . S
C783 C787 1.400 . S
C784 H769 0.960 . S
C784 H770 0.960 . S
C784 H771 0.960 . S
C784 C783 1.524 . S
C785 C782 1.403 . S
C785 C786 1.392 . S
C785 C789 1.495 . S
C786 C785 1.392 . S
C786 C787 1.385 . S
C786 C788 1.478 . S
C787 H781 0.930 . S
C787 C783 1.400 . S
C787 C786 1.385 . S
C788 C786 1.478 . S
C788 C790 1.381 . S
C788 C794 1.383 . S
C789 C785 1.495 . S
C789 H795 0.959 . S
C789 H796 0.961 . S
C789 H797 0.960 . S
C790 C788 1.381 . S
C790 C791 1.394 . S
C790 H798 0.930 . S
C791 C790 1.394 . S
C791 C792 1.383 . S
C791 H799 0.929 . S
C792 C791 1.383 . S
C792 C793 1.377 . S
C793 H777 0.930 . S
C793 C792 1.377 . S
C793 C794 1.379 . S
C794 H778 0.931 . S
C794 C788 1.383 . S
C794 C793 1.379 . S
H795 C789 0.959 . S
H796 C789 0.961 . S
H797 C789 0.960 . S
H798 C790 0.930 . S
H799 C791 0.929 . S
H800 C808 0.929 . S
H801 C810 0.930 . S
H802 C812 0.930 . S
H803 C815 0.929 . S
H804 C818 0.930 . S
H805 C820 0.960 . S
H806 C820 0.960 . S
H807 C820 0.960 . S
C808 H800 0.929 . S
C808 C809 1.377 . S
C808 C810 1.384 . S
C809 C808 1.377 . S
C809 C815 1.390 . S
C810 H801 0.930 . S
C810 C808 1.384 . S
C810 C811 1.372 . S
C811 C810 1.372 . S
C811 C812 1.400 . S
C811 C816 1.490 . S
C812 H802 0.930 . S
C812 C811 1.400 . S
C812 C815 1.386 . S
H813 C829 0.930 . S
H814 C830 0.931 . S
C815 H803 0.929 . S
C815 C809 1.390 . S
C815 C812 1.386 . S
C816 C811 1.490 . S
C816 C818 1.395 . S
C816 C819 1.403 1_565 S
H817 C823 0.930 . S
C818 H804 0.930 . S
C818 C816 1.395 . S
C818 C821 1.403 1_565 S
C819 C816 1.403 1_545 S
C819 C820 1.524 . S
C819 C823 1.400 . S
C820 H805 0.960 . S
C820 H806 0.960 . S
C820 H807 0.960 . S
C820 C819 1.524 . S
C821 C818 1.403 1_545 S
C821 C822 1.392 . S
C821 C825 1.495 . S
C822 C821 1.392 . S
C822 C823 1.385 . S
C822 C824 1.478 . S
C823 H817 0.930 . S
C823 C819 1.400 . S
C823 C822 1.385 . S
C824 C822 1.478 . S
C824 C826 1.381 . S
C824 C830 1.383 . S
C825 C821 1.495 . S
C825 H831 0.954 1_545 S
C825 H832 0.961 . S
C825 H833 0.960 . S
C826 C824 1.381 . S
C826 C827 1.394 . S
C826 H834 0.930 . S
C827 C826 1.394 . S
C827 C828 1.383 . S
C827 H835 0.929 . S
C828 C827 1.383 . S
C828 C829 1.377 . S
C829 H813 0.930 . S
C829 C828 1.377 . S
C829 C830 1.379 . S
C830 H814 0.931 . S
C830 C824 1.383 . S
C830 C829 1.379 . S
H831 C825 0.954 1_565 S
H832 C825 0.961 . S
H833 C825 0.960 . S
H834 C826 0.930 . S
H835 C827 0.929 . S
H836 C844 0.929 . S
H837 C846 0.930 . S
H838 C848 0.930 . S
H839 C851 0.929 . S
H840 C854 0.930 . S
H841 C856 0.960 . S
H842 C856 0.960 . S
H843 C856 0.960 . S
C844 H836 0.929 . S
C844 C845 1.377 . S
C844 C846 1.384 . S
C845 C844 1.377 . S
C845 C851 1.390 . S
C846 H837 0.930 . S
C846 C844 1.384 . S
C846 C847 1.372 . S
C847 C846 1.372 . S
C847 C848 1.400 . S
C847 C852 1.490 . S
C848 H838 0.930 . S
C848 C847 1.400 . S
C848 C851 1.386 . S
H849 C865 0.930 . S
H850 C866 0.931 . S
C851 H839 0.929 . S
C851 C845 1.390 . S
C851 C848 1.386 . S
C852 C847 1.490 . S
C852 C854 1.395 . S
C852 C855 1.403 . S
H853 C859 0.930 . S
C854 H840 0.930 . S
C854 C852 1.395 . S
C854 C857 1.403 . S
C855 C852 1.403 . S
C855 C856 1.524 . S
C855 C859 1.400 . S
C856 H841 0.960 . S
C856 H842 0.960 . S
C856 H843 0.960 . S
C856 C855 1.524 . S
C857 C854 1.403 . S
C857 C858 1.392 . S
C857 C861 1.495 . S
C858 C857 1.392 . S
C858 C859 1.385 . S
C858 C860 1.478 . S
C859 H853 0.930 . S
C859 C855 1.400 . S
C859 C858 1.385 . S
C860 C858 1.478 . S
C860 C862 1.381 . S
C860 C866 1.383 . S
C861 C857 1.495 . S
C861 H867 0.959 . S
C861 H868 0.961 . S
C861 H869 0.960 . S
C862 C860 1.381 . S
C862 C863 1.394 . S
C862 H870 0.930 . S
C863 C862 1.394 . S
C863 C864 1.383 . S
C863 H871 0.929 . S
C864 C863 1.383 . S
C864 C865 1.377 . S
C865 H849 0.930 . S
C865 C864 1.377 . S
C865 C866 1.379 . S
C866 H850 0.931 . S
C866 C860 1.383 . S
C866 C865 1.379 . S
H867 C861 0.959 . S
H868 C861 0.961 . S
H869 C861 0.960 . S
H870 C862 0.930 . S
H871 C863 0.929 . S
H872 C880 0.929 . S
H873 C882 0.930 . S
H874 C884 0.930 . S
H875 C887 0.929 . S
H876 C890 0.936 . S
H877 C892 0.960 . S
H878 C892 0.960 . S
H879 C892 0.960 . S
C880 H872 0.929 . S
C880 C881 1.377 . S
C880 C882 1.384 . S
C881 C880 1.377 . S
C881 C887 1.390 . S
C882 H873 0.930 . S
C882 C880 1.384 . S
C882 C883 1.372 . S
C883 C882 1.372 . S
C883 C884 1.400 . S
C883 C888 1.490 . S
C884 H874 0.930 . S
C884 C883 1.400 . S
C884 C887 1.386 . S
H885 C901 0.930 . S
H886 C902 0.931 . S
C887 H875 0.929 . S
C887 C881 1.390 . S
C887 C884 1.386 . S
C888 C883 1.490 . S
C888 C890 1.408 . S
C888 C891 1.403 . S
H889 C895 0.930 . S
C890 H876 0.936 . S
C890 C888 1.408 . S
C890 C893 1.384 1_545 S
C891 C888 1.403 . S
C891 C892 1.524 . S
C891 C895 1.400 1_545 S
C892 H877 0.960 . S
C892 H878 0.960 . S
C892 H879 0.960 . S
C892 C891 1.524 . S
C893 C890 1.384 1_565 S
C893 C894 1.392 . S
C893 C897 1.495 . S
C894 C893 1.392 . S
C894 C895 1.385 . S
C894 C896 1.478 . S
C895 H889 0.930 . S
C895 C891 1.400 1_565 S
C895 C894 1.385 . S
C896 C894 1.478 . S
C896 C898 1.381 . S
C896 C902 1.383 . S
C897 C893 1.495 . S
C897 H903 0.959 . S
C897 H904 0.961 . S
C897 H905 0.960 . S
C898 C896 1.381 . S
C898 C899 1.394 . S
C898 H906 0.930 . S
C899 C898 1.394 . S
C899 C900 1.383 . S
C899 H907 0.929 . S
C900 C899 1.383 . S
C900 C901 1.377 . S
C901 H885 0.930 . S
C901 C900 1.377 . S
C901 C902 1.379 . S
C902 H886 0.931 . S
C902 C896 1.383 . S
C902 C901 1.379 . S
H903 C897 0.959 . S
H904 C897 0.961 . S
H905 C897 0.960 . S
H906 C898 0.930 . S
H907 C899 0.929 . S
H908 C916 0.929 . S
H909 C918 0.930 . S
H910 C920 0.930 . S
H911 C923 0.929 . S
H912 C926 0.930 . S
H913 C928 0.960 . S
H914 C928 0.960 . S
H915 C928 0.960 . S
C916 H908 0.929 . S
C916 C917 1.377 . S
C916 C918 1.384 . S
C917 C916 1.377 . S
C917 C923 1.390 . S
C918 H909 0.930 . S
C918 C916 1.384 . S
C918 C919 1.372 . S
C919 C918 1.372 . S
C919 C920 1.400 . S
C919 C924 1.490 . S
C920 H910 0.930 . S
C920 C919 1.400 . S
C920 C923 1.386 . S
H921 C937 0.930 . S
H922 C938 0.931 . S
C923 H911 0.929 . S
C923 C917 1.390 . S
C923 C920 1.386 . S
C924 C919 1.490 . S
C924 C926 1.395 . S
C924 C927 1.403 . S
H925 C931 0.930 . S
C926 H912 0.930 . S
C926 C924 1.395 . S
C926 C929 1.403 . S
C927 C924 1.403 . S
C927 C928 1.524 . S
C927 C931 1.400 . S
C928 H913 0.960 . S
C928 H914 0.960 . S
C928 H915 0.960 . S
C928 C927 1.524 . S
C929 C926 1.403 . S
C929 C930 1.392 . S
C929 C933 1.495 . S
C930 C929 1.392 . S
C930 C931 1.385 . S
C930 C932 1.478 . S
C931 H925 0.930 . S
C931 C927 1.400 . S
C931 C930 1.385 . S
C932 C930 1.478 . S
C932 C934 1.381 . S
C932 C938 1.383 . S
C933 C929 1.495 . S
C933 H939 0.959 . S
C933 H940 0.961 . S
C933 H941 0.960 . S
C934 C932 1.381 . S
C934 C935 1.394 . S
C934 H942 0.930 . S
C935 C934 1.394 . S
C935 C936 1.383 . S
C935 H943 0.929 . S
C936 C935 1.383 . S
C936 C937 1.377 . S
C937 H921 0.930 . S
C937 C936 1.377 . S
C937 C938 1.379 . S
C938 H922 0.931 . S
C938 C932 1.383 . S
C938 C937 1.379 . S
H939 C933 0.959 . S
H940 C933 0.961 . S
H941 C933 0.960 . S
H942 C934 0.930 . S
H943 C935 0.929 . S
H944 C952 0.929 . S
H945 C954 0.930 . S
H946 C956 0.930 . S
H947 C959 0.929 . S
H948 C962 0.930 . S
H949 C964 0.960 . S
H950 C964 0.960 . S
H951 C964 0.960 . S
C952 H944 0.929 . S
C952 C953 1.377 . S
C952 C954 1.384 1_545 S
C953 C952 1.377 . S
C953 C959 1.390 1_545 S
C954 H945 0.930 . S
C954 C952 1.384 1_565 S
C954 C955 1.372 . S
C955 C954 1.372 . S
C955 C956 1.400 . S
C955 C960 1.490 . S
C956 H946 0.930 . S
C956 C955 1.400 . S
C956 C959 1.386 . S
H957 C973 0.930 . S
H958 C974 0.931 . S
C959 H947 0.929 . S
C959 C953 1.390 1_565 S
C959 C956 1.386 . S
C960 C955 1.490 . S
C960 C962 1.395 . S
C960 C963 1.403 . S
H961 C967 0.930 . S
C962 H948 0.930 . S
C962 C960 1.395 . S
C962 C965 1.403 . S
C963 C960 1.403 . S
C963 C964 1.524 . S
C963 C967 1.400 . S
C964 H949 0.960 . S
C964 H950 0.960 . S
C964 H951 0.960 . S
C964 C963 1.524 . S
C965 C962 1.403 . S
C965 C966 1.392 . S
C965 C969 1.495 . S
C966 C965 1.392 . S
C966 C967 1.385 . S
C966 C968 1.478 . S
C967 H961 0.930 . S
C967 C963 1.400 . S
C967 C966 1.385 . S
C968 C966 1.478 . S
C968 C970 1.381 . S
C968 C974 1.383 . S
C969 C965 1.495 . S
C969 H975 0.959 . S
C969 H976 0.961 . S
C969 H977 0.960 . S
C970 C968 1.381 . S
C970 C971 1.394 . S
C970 H978 0.930 . S
C971 C970 1.394 . S
C971 C972 1.383 . S
C971 H979 0.929 . S
C972 C971 1.383 . S
C972 C973 1.377 . S
C973 H957 0.930 . S
C973 C972 1.377 . S
C973 C974 1.379 . S
C974 H958 0.931 . S
C974 C968 1.383 . S
C974 C973 1.379 . S
H975 C969 0.959 . S
H976 C969 0.961 . S
H977 C969 0.960 . S
H978 C970 0.930 . S
H979 C971 0.929 . S
H980 C988 0.929 . S
H981 C990 0.930 . S
H982 C992 0.930 . S
H983 C995 0.929 . S
H984 C998 0.930 . S
H985 C1000 0.960 . S
H986 C1000 0.960 . S
H987 C1000 0.960 . S
C988 H980 0.929 . S
C988 C989 1.377 . S
C988 C990 1.384 . S
C989 C988 1.377 . S
C989 C995 1.390 . S
C990 H981 0.930 . S
C990 C988 1.384 . S
C990 C991 1.372 . S
C991 C990 1.372 . S
C991 C992 1.400 . S
C991 C996 1.490 . S
C992 H982 0.930 . S
C992 C991 1.400 . S
C992 C995 1.386 . S
H993 C1009 0.930 . S
H994 C1010 0.931 . S
C995 H983 0.929 . S
C995 C989 1.390 . S
C995 C992 1.386 . S
C996 C991 1.490 . S
C996 C998 1.395 . S
C996 C999 1.403 . S
H997 C1003 0.930 . S
C998 H984 0.930 . S
C998 C996 1.395 . S
C998 C1001 1.403 . S
C999 C996 1.403 . S
C999 C1000 1.524 . S
C999 C1003 1.400 . S
C1000 H985 0.960 . S
C1000 H986 0.960 . S
C1000 H987 0.960 . S
C1000 C999 1.524 . S
C1001 C998 1.403 . S
C1001 C1002 1.392 . S
C1001 C1005 1.495 . S
C1002 C1001 1.392 . S
C1002 C1003 1.385 . S
C1002 C1004 1.478 . S
C1003 H997 0.930 . S
C1003 C999 1.400 . S
C1003 C1002 1.385 . S
C1004 C1002 1.478 . S
C1004 C1006 1.381 . S
C1004 C1010 1.383 . S
C1005 C1001 1.495 . S
C1005 H1011 0.959 . S
C1005 H1012 0.961 . S
C1005 H1013 0.960 . S
C1006 C1004 1.381 . S
C1006 C1007 1.394 1_655 S
C1006 H1014 0.930 . S
C1007 C1006 1.394 1_455 S
C1007 C1008 1.383 . S
C1007 H1015 0.929 . S
C1008 C1007 1.383 . S
C1008 C1009 1.377 . S
C1009 H993 0.930 . S
C1009 C1008 1.377 . S
C1009 C1010 1.379 1_455 S
C1010 H994 0.931 . S
C1010 C1004 1.383 . S
C1010 C1009 1.379 1_655 S
H1011 C1005 0.959 . S
H1012 C1005 0.961 . S
H1013 C1005 0.960 . S
H1014 C1006 0.930 . S
H1015 C1007 0.929 . S
H1016 C1024 0.929 . S
H1017 C1026 0.930 . S
H1018 C1028 0.930 . S
H1019 C1031 0.929 . S
H1020 C1034 0.930 . S
H1021 C1036 0.957 1_455 S
H1022 C1036 0.959 1_455 S
H1023 C1036 0.962 . S
C1024 H1016 0.929 . S
C1024 C1025 1.377 1_545 S
C1024 C1026 1.384 . S
C1025 C1024 1.377 1_565 S
C1025 C1031 1.390 . S
C1026 H1017 0.930 . S
C1026 C1024 1.384 . S
C1026 C1027 1.372 . S
C1027 C1026 1.372 . S
C1027 C1028 1.400 . S
C1027 C1032 1.490 . S
C1028 H1018 0.930 . S
C1028 C1027 1.400 . S
C1028 C1031 1.386 1_545 S
H1029 C1045 0.930 . S
H1030 C1046 0.931 . S
C1031 H1019 0.929 . S
C1031 C1025 1.390 . S
C1031 C1028 1.386 1_565 S
C1032 C1027 1.490 . S
C1032 C1034 1.395 . S
C1032 C1035 1.403 . S
H1033 C1039 0.930 1_455 S
C1034 H1020 0.930 . S
C1034 C1032 1.395 . S
C1034 C1037 1.403 . S
C1035 C1032 1.403 . S
C1035 C1036 1.526 . S
C1035 C1039 1.400 . S
C1036 H1021 0.957 1_655 S
C1036 H1022 0.959 1_655 S
C1036 H1023 0.962 . S
C1036 C1035 1.526 . S
C1037 C1034 1.403 . S
C1037 C1038 1.392 . S
C1037 C1041 1.495 . S
C1038 C1037 1.392 . S
C1038 C1039 1.385 . S
C1038 C1040 1.478 . S
C1039 H1033 0.930 1_655 S
C1039 C1035 1.400 . S
C1039 C1038 1.385 . S
C1040 C1038 1.478 . S
C1040 C1042 1.381 . S
C1040 C1046 1.383 . S
C1041 C1037 1.495 . S
C1041 H1047 0.959 . S
C1041 H1048 0.961 . S
C1041 H1049 0.960 . S
C1042 C1040 1.381 . S
C1042 C1043 1.394 1_655 S
C1042 H1050 0.930 . S
C1043 C1042 1.394 1_455 S
C1043 C1044 1.383 . S
C1043 H1051 0.929 . S
C1044 C1043 1.383 . S
C1044 C1045 1.377 . S
C1045 H1029 0.930 . S
C1045 C1044 1.377 . S
C1045 C1046 1.379 1_455 S
C1046 H1030 0.931 . S
C1046 C1040 1.383 . S
C1046 C1045 1.379 1_655 S
H1047 C1041 0.959 . S
H1048 C1041 0.961 . S
H1049 C1041 0.960 . S
H1050 C1042 0.930 . S
H1051 C1043 0.929 . S
H1052 C1060 0.929 . S
H1053 C1062 0.930 . S
H1054 C1064 0.930 . S
H1055 C1067 0.929 . S
H1056 C1070 0.930 . S
H1057 C1072 0.960 . S
H1058 C1072 0.960 . S
H1059 C1072 0.960 . S
C1060 H1052 0.929 . S
C1060 C1061 1.377 . S
C1060 C1062 1.384 . S
C1061 C1060 1.377 . S
C1061 C1067 1.390 . S
C1062 H1053 0.930 . S
C1062 C1060 1.384 . S
C1062 C1063 1.372 . S
C1063 C1062 1.372 . S
C1063 C1064 1.400 . S
C1063 C1068 1.490 . S
C1064 H1054 0.930 . S
C1064 C1063 1.400 . S
C1064 C1067 1.386 . S
H1065 C1081 0.930 . S
H1066 C1082 0.931 . S
C1067 H1055 0.929 . S
C1067 C1061 1.390 . S
C1067 C1064 1.386 . S
C1068 C1063 1.490 . S
C1068 C1070 1.395 . S
C1068 C1071 1.403 . S
H1069 C1075 0.930 . S
C1070 H1056 0.930 . S
C1070 C1068 1.395 . S
C1070 C1073 1.403 . S
C1071 C1068 1.403 . S
C1071 C1072 1.524 . S
C1071 C1075 1.400 . S
C1072 H1057 0.960 . S
C1072 H1058 0.960 . S
C1072 H1059 0.960 . S
C1072 C1071 1.524 . S
C1073 C1070 1.403 . S
C1073 C1074 1.392 . S
C1073 C1077 1.495 . S
C1074 C1073 1.392 . S
C1074 C1075 1.385 . S
C1074 C1076 1.478 . S
C1075 H1069 0.930 . S
C1075 C1071 1.400 . S
C1075 C1074 1.385 . S
C1076 C1074 1.478 . S
C1076 C1078 1.381 . S
C1076 C1082 1.383 . S
C1077 C1073 1.495 . S
C1077 H1083 0.959 . S
C1077 H1084 0.961 . S
C1077 H1085 0.960 . S
C1078 C1076 1.381 . S
C1078 C1079 1.394 . S
C1078 H1086 0.930 . S
C1079 C1078 1.394 . S
C1079 C1080 1.383 . S
C1079 H1087 0.929 . S
C1080 C1079 1.383 . S
C1080 C1081 1.377 . S
C1081 H1065 0.930 . S
C1081 C1080 1.377 . S
C1081 C1082 1.379 . S
C1082 H1066 0.931 . S
C1082 C1076 1.383 . S
C1082 C1081 1.379 . S
H1083 C1077 0.959 . S
H1084 C1077 0.961 . S
H1085 C1077 0.960 . S
H1086 C1078 0.930 . S
H1087 C1079 0.929 . S
H1088 C1096 0.929 . S
H1089 C1098 0.930 . S
H1090 C1100 0.930 . S
H1091 C1103 0.929 1_545 S
H1092 C1106 0.930 . S
H1093 C1108 0.960 1_455 S
H1094 C1108 0.960 . S
H1095 C1108 0.960 . S
C1096 H1088 0.929 . S
C1096 C1097 1.377 . S
C1096 C1098 1.384 . S
C1097 C1096 1.377 . S
C1097 C1103 1.390 . S
C1098 H1089 0.930 . S
C1098 C1096 1.384 . S
C1098 C1099 1.372 . S
C1099 C1098 1.372 . S
C1099 C1100 1.400 . S
C1099 C1104 1.490 . S
C1100 H1090 0.930 . S
C1100 C1099 1.400 . S
C1100 C1103 1.386 . S
H1101 C1117 0.929 . S
H1102 C1118 0.931 . S
C1103 H1091 0.929 1_565 S
C1103 C1097 1.390 . S
C1103 C1100 1.386 . S
C1104 C1099 1.490 . S
C1104 C1106 1.395 . S
C1104 C1107 1.403 . S
H1105 C1111 0.930 . S
C1106 H1092 0.930 . S
C1106 C1104 1.395 . S
C1106 C1109 1.403 . S
C1107 C1104 1.403 . S
C1107 C1108 1.524 . S
C1107 C1111 1.400 . S
C1108 H1093 0.960 1_655 S
C1108 H1094 0.960 . S
C1108 H1095 0.960 . S
C1108 C1107 1.524 . S
C1109 C1106 1.403 . S
C1109 C1110 1.392 . S
C1109 C1113 1.495 . S
C1110 C1109 1.392 . S
C1110 C1111 1.385 . S
C1110 C1112 1.478 . S
C1111 H1105 0.930 . S
C1111 C1107 1.400 . S
C1111 C1110 1.385 . S
C1112 C1110 1.478 . S
C1112 C1114 1.381 1_655 S
C1112 C1118 1.383 . S
C1113 C1109 1.495 . S
C1113 H1119 0.959 . S
C1113 H1120 0.961 . S
C1113 H1121 0.960 . S
C1114 C1112 1.381 1_455 S
C1114 C1115 1.394 . S
C1114 H1122 0.930 . S
C1115 C1114 1.394 . S
C1115 C1116 1.383 . S
C1115 H1123 0.929 . S
C1116 C1115 1.383 . S
C1116 C1117 1.393 . S
C1117 H1101 0.929 . S
C1117 C1116 1.393 . S
C1117 C1118 1.364 1_455 S
C1118 H1102 0.931 . S
C1118 C1112 1.383 . S
C1118 C1117 1.364 1_655 S
H1119 C1113 0.959 . S
H1120 C1113 0.961 . S
H1121 C1113 0.960 . S
H1122 C1114 0.930 . S
H1123 C1115 0.929 . S
H1124 C1132 0.929 . S
H1125 C1134 0.930 . S
H1126 C1136 0.930 . S
H1127 C1139 0.929 . S
H1128 C1142 0.930 . S
H1129 C1144 0.960 . S
H1130 C1144 0.960 . S
H1131 C1144 0.960 . S
C1132 H1124 0.929 . S
C1132 C1133 1.377 . S
C1132 C1134 1.384 . S
C1133 C1132 1.377 . S
C1133 C1139 1.390 . S
C1134 H1125 0.930 . S
C1134 C1132 1.384 . S
C1134 C1135 1.372 . S
C1135 C1134 1.372 . S
C1135 C1136 1.400 . S
C1135 C1140 1.490 . S
C1136 H1126 0.930 . S
C1136 C1135 1.400 . S
C1136 C1139 1.386 . S
H1137 C1153 0.930 . S
H1138 C1154 0.931 . S
C1139 H1127 0.929 . S
C1139 C1133 1.390 . S
C1139 C1136 1.386 . S
C1140 C1135 1.490 . S
C1140 C1142 1.395 . S
C1140 C1143 1.403 . S
H1141 C1147 0.930 . S
C1142 H1128 0.930 . S
C1142 C1140 1.395 . S
C1142 C1145 1.403 . S
C1143 C1140 1.403 . S
C1143 C1144 1.524 . S
C1143 C1147 1.400 . S
C1144 H1129 0.960 . S
C1144 H1130 0.960 . S
C1144 H1131 0.960 . S
C1144 C1143 1.524 . S
C1145 C1142 1.403 . S
C1145 C1146 1.392 . S
C1145 C1149 1.495 1_655 S
C1146 C1145 1.392 . S
C1146 C1147 1.385 . S
C1146 C1148 1.478 . S
C1147 H1141 0.930 . S
C1147 C1143 1.400 . S
C1147 C1146 1.385 . S
C1148 C1146 1.478 . S
C1148 C1150 1.381 1_655 S
C1148 C1154 1.383 . S
C1149 C1145 1.495 1_455 S
C1149 H1155 0.959 . S
C1149 H1156 0.961 . S
C1149 H1157 0.960 . S
C1150 C1148 1.381 1_455 S
C1150 C1151 1.394 . S
C1150 H1158 0.930 . S
C1151 C1150 1.394 . S
C1151 C1152 1.383 . S
C1151 H1159 0.929 . S
C1152 C1151 1.383 . S
C1152 C1153 1.377 . S
C1153 H1137 0.930 . S
C1153 C1152 1.377 . S
C1153 C1154 1.379 1_455 S
C1154 H1138 0.931 . S
C1154 C1148 1.383 . S
C1154 C1153 1.379 1_655 S
H1155 C1149 0.959 . S
H1156 C1149 0.961 . S
H1157 C1149 0.960 . S
H1158 C1150 0.930 . S
H1159 C1151 0.929 . S
H1160 C1168 0.929 . S
H1161 C1170 0.930 . S
H1162 C1172 0.930 . S
H1163 C1175 0.929 . S
H1164 C1178 0.930 . S
H1165 C1180 0.960 . S
H1166 C1180 0.960 . S
H1167 C1180 0.960 . S
C1168 H1160 0.929 . S
C1168 C1169 1.377 . S
C1168 C1170 1.384 . S
C1169 C1168 1.377 . S
C1169 C1175 1.390 . S
C1170 H1161 0.930 . S
C1170 C1168 1.384 . S
C1170 C1171 1.372 . S
C1171 C1170 1.372 . S
C1171 C1172 1.400 . S
C1171 C1176 1.490 . S
C1172 H1162 0.930 . S
C1172 C1171 1.400 . S
C1172 C1175 1.386 . S
H1173 C1189 0.930 . S
H1174 C1190 0.931 . S
C1175 H1163 0.929 . S
C1175 C1169 1.390 . S
C1175 C1172 1.386 . S
C1176 C1171 1.490 . S
C1176 C1178 1.395 . S
C1176 C1179 1.403 . S
H1177 C1183 0.930 . S
C1178 H1164 0.930 . S
C1178 C1176 1.395 . S
C1178 C1181 1.403 . S
C1179 C1176 1.403 . S
C1179 C1180 1.524 . S
C1179 C1183 1.400 . S
C1180 H1165 0.960 . S
C1180 H1166 0.960 . S
C1180 H1167 0.960 . S
C1180 C1179 1.524 . S
C1181 C1178 1.403 . S
C1181 C1182 1.392 . S
C1181 C1185 1.495 . S
C1182 C1181 1.392 . S
C1182 C1183 1.385 . S
C1182 C1184 1.478 . S
C1183 H1177 0.930 . S
C1183 C1179 1.400 . S
C1183 C1182 1.385 . S
C1184 C1182 1.478 . S
C1184 C1186 1.381 . S
C1184 C1190 1.383 . S
C1185 C1181 1.495 . S
C1185 H1191 0.959 . S
C1185 H1192 0.961 . S
C1185 H1193 0.960 . S
C1186 C1184 1.381 . S
C1186 C1187 1.394 . S
C1186 H1194 0.930 . S
C1187 C1186 1.394 . S
C1187 C1188 1.383 . S
C1187 H1195 0.929 . S
C1188 C1187 1.383 . S
C1188 C1189 1.377 . S
C1189 H1173 0.930 . S
C1189 C1188 1.377 . S
C1189 C1190 1.379 . S
C1190 H1174 0.931 . S
C1190 C1184 1.383 . S
C1190 C1189 1.379 . S
H1191 C1185 0.959 . S
H1192 C1185 0.961 . S
H1193 C1185 0.960 . S
H1194 C1186 0.930 . S
H1195 C1187 0.929 . S
H1196 C1204 0.929 . S
H1197 C1206 0.930 . S
H1198 C1208 0.930 . S
H1199 C1211 0.929 . S
H1200 C1214 0.930 . S
H1201 C1216 0.960 . S
H1202 C1216 0.960 . S
H1203 C1216 0.960 . S
C1204 H1196 0.929 . S
C1204 C1205 1.377 . S
C1204 C1206 1.384 . S
C1205 C1204 1.377 . S
C1205 C1211 1.390 . S
C1206 H1197 0.930 . S
C1206 C1204 1.384 . S
C1206 C1207 1.372 . S
C1207 C1206 1.372 . S
C1207 C1208 1.400 . S
C1207 C1212 1.490 . S
C1208 H1198 0.930 . S
C1208 C1207 1.400 . S
C1208 C1211 1.386 . S
H1209 C1225 0.930 . S
H1210 C1226 0.931 . S
C1211 H1199 0.929 . S
C1211 C1205 1.390 . S
C1211 C1208 1.386 . S
C1212 C1207 1.490 . S
C1212 C1214 1.395 . S
C1212 C1215 1.403 . S
H1213 C1219 0.930 . S
C1214 H1200 0.930 . S
C1214 C1212 1.395 . S
C1214 C1217 1.403 . S
C1215 C1212 1.403 . S
C1215 C1216 1.524 . S
C1215 C1219 1.400 . S
C1216 H1201 0.960 . S
C1216 H1202 0.960 . S
C1216 H1203 0.960 . S
C1216 C1215 1.524 . S
C1217 C1214 1.403 . S
C1217 C1218 1.392 . S
C1217 C1221 1.495 . S
C1218 C1217 1.392 . S
C1218 C1219 1.385 . S
C1218 C1220 1.478 . S
C1219 H1213 0.930 . S
C1219 C1215 1.400 . S
C1219 C1218 1.385 . S
C1220 C1218 1.478 . S
C1220 C1222 1.381 . S
C1220 C1226 1.383 . S
C1221 C1217 1.495 . S
C1221 H1227 0.959 . S
C1221 H1228 0.961 . S
C1221 H1229 0.960 . S
C1222 C1220 1.381 . S
C1222 C1223 1.394 . S
C1222 H1230 0.930 . S
C1223 C1222 1.394 . S
C1223 C1224 1.383 . S
C1223 H1231 0.929 . S
C1224 C1223 1.383 . S
C1224 C1225 1.377 . S
C1225 H1209 0.930 . S
C1225 C1224 1.377 . S
C1225 C1226 1.379 . S
C1226 H1210 0.931 . S
C1226 C1220 1.383 . S
C1226 C1225 1.379 . S
H1227 C1221 0.959 . S
H1228 C1221 0.961 . S
H1229 C1221 0.960 . S
H1230 C1222 0.930 . S
H1231 C1223 0.929 . S
H1232 C1240 0.929 . S
H1233 C1242 0.930 . S
H1234 C1244 0.930 . S
H1235 C1247 0.929 . S
H1236 C1250 0.930 . S
H1237 C1252 0.960 . S
H1238 C1252 0.960 . S
H1239 C1252 0.960 . S
C1240 H1232 0.929 . S
C1240 C1241 1.377 . S
C1240 C1242 1.384 . S
C1241 C1240 1.377 . S
C1241 C1247 1.390 . S
C1242 H1233 0.930 . S
C1242 C1240 1.384 . S
C1242 C1243 1.372 . S
C1243 C1242 1.372 . S
C1243 C1244 1.400 . S
C1243 C1248 1.490 . S
C1244 H1234 0.930 . S
C1244 C1243 1.400 . S
C1244 C1247 1.386 . S
H1245 C1261 0.930 . S
H1246 C1262 0.931 1_455 S
C1247 H1235 0.929 . S
C1247 C1241 1.390 . S
C1247 C1244 1.386 . S
C1248 C1243 1.490 . S
C1248 C1250 1.395 . S
C1248 C1251 1.403 . S
H1249 C1255 0.930 . S
C1250 H1236 0.930 . S
C1250 C1248 1.395 . S
C1250 C1253 1.403 . S
C1251 C1248 1.403 . S
C1251 C1252 1.524 . S
C1251 C1255 1.400 . S
C1252 H1237 0.960 . S
C1252 H1238 0.960 . S
C1252 H1239 0.960 . S
C1252 C1251 1.524 . S
C1253 C1250 1.403 . S
C1253 C1254 1.392 . S
C1253 C1257 1.495 . S
C1254 C1253 1.392 . S
C1254 C1255 1.385 . S
C1254 C1256 1.478 . S
C1255 H1249 0.930 . S
C1255 C1251 1.400 . S
C1255 C1254 1.385 . S
C1256 C1254 1.478 . S
C1256 C1258 1.381 . S
C1256 C1262 1.383 . S
C1257 C1253 1.495 . S
C1257 H1263 0.959 . S
C1257 H1264 0.961 . S
C1257 H1265 0.960 . S
C1258 C1256 1.381 . S
C1258 C1259 1.394 . S
C1258 H1266 0.930 . S
C1259 C1258 1.394 . S
C1259 C1260 1.383 . S
C1259 H1267 0.929 . S
C1260 C1259 1.383 . S
C1260 C1261 1.377 1_655 S
C1261 H1245 0.930 . S
C1261 C1260 1.377 1_455 S
C1261 C1262 1.379 1_455 S
C1262 H1246 0.931 1_655 S
C1262 C1256 1.383 . S
C1262 C1261 1.379 1_655 S
H1263 C1257 0.959 . S
H1264 C1257 0.961 . S
H1265 C1257 0.960 . S
H1266 C1258 0.930 . S
H1267 C1259 0.929 . S
H1268 C1276 0.929 . S
H1269 C1278 0.930 . S
H1270 C1280 0.930 . S
H1271 C1283 0.929 . S
H1272 C1286 0.930 . S
H1273 C1288 0.960 . S
H1274 C1288 0.960 . S
H1275 C1288 0.960 . S
C1276 H1268 0.929 . S
C1276 C1277 1.377 . S
C1276 C1278 1.384 . S
C1277 C1276 1.377 . S
C1277 C1283 1.390 . S
C1278 H1269 0.930 . S
C1278 C1276 1.384 . S
C1278 C1279 1.372 . S
C1279 C1278 1.372 . S
C1279 C1280 1.400 . S
C1279 C1284 1.490 . S
C1280 H1270 0.930 . S
C1280 C1279 1.400 . S
C1280 C1283 1.386 . S
H1281 C1297 0.930 . S
H1282 C1298 0.931 . S
C1283 H1271 0.929 . S
C1283 C1277 1.390 . S
C1283 C1280 1.386 . S
C1284 C1279 1.490 . S
C1284 C1286 1.395 . S
C1284 C1287 1.403 . S
H1285 C1291 0.930 . S
C1286 H1272 0.930 . S
C1286 C1284 1.395 . S
C1286 C1289 1.403 . S
C1287 C1284 1.403 . S
C1287 C1288 1.524 . S
C1287 C1291 1.400 . S
C1288 H1273 0.960 . S
C1288 H1274 0.960 . S
C1288 H1275 0.960 . S
C1288 C1287 1.524 . S
C1289 C1286 1.403 . S
C1289 C1290 1.392 . S
C1289 C1293 1.495 . S
C1290 C1289 1.392 . S
C1290 C1291 1.385 . S
C1290 C1292 1.478 . S
C1291 H1285 0.930 . S
C1291 C1287 1.400 . S
C1291 C1290 1.385 . S
C1292 C1290 1.478 . S
C1292 C1294 1.381 . S
C1292 C1298 1.383 . S
C1293 C1289 1.495 . S
C1293 H1299 0.959 . S
C1293 H1300 0.961 . S
C1293 H1301 0.960 . S
C1294 C1292 1.381 . S
C1294 C1295 1.394 . S
C1294 H1302 0.930 . S
C1295 C1294 1.394 . S
C1295 C1296 1.383 . S
C1295 H1303 0.929 . S
C1296 C1295 1.383 . S
C1296 C1297 1.377 . S
C1297 H1281 0.930 . S
C1297 C1296 1.377 . S
C1297 C1298 1.379 . S
C1298 H1282 0.931 . S
C1298 C1292 1.383 . S
C1298 C1297 1.379 . S
H1299 C1293 0.959 . S
H1300 C1293 0.961 . S
H1301 C1293 0.960 . S
H1302 C1294 0.930 . S
H1303 C1295 0.929 . S
H1304 C1312 0.929 . S
H1305 C1314 0.930 . S
H1306 C1316 0.930 . S
H1307 C1319 0.929 . S
H1308 C1322 0.930 . S
H1309 C1324 0.960 . S
H1310 C1324 0.960 . S
H1311 C1324 0.960 . S
C1312 H1304 0.929 . S
C1312 C1313 1.377 . S
C1312 C1314 1.384 . S
C1313 C1312 1.377 . S
C1313 C1319 1.390 . S
C1314 H1305 0.930 . S
C1314 C1312 1.384 . S
C1314 C1315 1.372 . S
C1315 C1314 1.372 . S
C1315 C1316 1.400 . S
C1315 C1320 1.490 . S
C1316 H1306 0.930 . S
C1316 C1315 1.400 . S
C1316 C1319 1.386 . S
H1317 C1333 0.930 . S
H1318 C1334 0.931 . S
C1319 H1307 0.929 . S
C1319 C1313 1.390 . S
C1319 C1316 1.386 . S
C1320 C1315 1.490 . S
C1320 C1322 1.395 . S
C1320 C1323 1.403 . S
H1321 C1327 0.930 . S
C1322 H1308 0.930 . S
C1322 C1320 1.395 . S
C1322 C1325 1.403 . S
C1323 C1320 1.403 . S
C1323 C1324 1.524 . S
C1323 C1327 1.400 . S
C1324 H1309 0.960 . S
C1324 H1310 0.960 . S
C1324 H1311 0.960 . S
C1324 C1323 1.524 . S
C1325 C1322 1.403 . S
C1325 C1326 1.392 . S
C1325 C1329 1.495 . S
C1326 C1325 1.392 . S
C1326 C1327 1.385 . S
C1326 C1328 1.478 . S
C1327 H1321 0.930 . S
C1327 C1323 1.400 . S
C1327 C1326 1.385 . S
C1328 C1326 1.478 . S
C1328 C1330 1.381 . S
C1328 C1334 1.383 . S
C1329 C1325 1.495 . S
C1329 H1335 0.959 . S
C1329 H1336 0.961 . S
C1329 H1337 0.960 . S
C1330 C1328 1.381 . S
C1330 C1331 1.394 . S
C1330 H1338 0.930 . S
C1331 C1330 1.394 . S
C1331 C1332 1.383 . S
C1331 H1339 0.929 . S
C1332 C1331 1.383 . S
C1332 C1333 1.377 . S
C1333 H1317 0.930 . S
C1333 C1332 1.377 . S
C1333 C1334 1.379 . S
C1334 H1318 0.931 . S
C1334 C1328 1.383 . S
C1334 C1333 1.379 . S
H1335 C1329 0.959 . S
H1336 C1329 0.961 . S
H1337 C1329 0.960 . S
H1338 C1330 0.930 . S
H1339 C1331 0.929 . S
H1340 C1348 0.929 . S
H1341 C1350 0.930 . S
H1342 C1352 0.930 . S
H1343 C1355 0.929 . S
H1344 C1358 0.930 . S
H1345 C1360 0.960 . S
H1346 C1360 0.960 . S
H1347 C1360 0.960 . S
C1348 H1340 0.929 . S
C1348 C1349 1.377 . S
C1348 C1350 1.384 . S
C1349 C1348 1.377 . S
C1349 C1355 1.390 . S
C1350 H1341 0.930 . S
C1350 C1348 1.384 . S
C1350 C1351 1.372 . S
C1351 C1350 1.372 . S
C1351 C1352 1.400 . S
C1351 C1356 1.490 . S
C1352 H1342 0.930 . S
C1352 C1351 1.400 . S
C1352 C1355 1.386 . S
H1353 C1369 0.930 . S
H1354 C1370 0.931 . S
C1355 H1343 0.929 . S
C1355 C1349 1.390 . S
C1355 C1352 1.386 . S
C1356 C1351 1.490 . S
C1356 C1358 1.395 . S
C1356 C1359 1.403 . S
H1357 C1363 0.930 . S
C1358 H1344 0.930 . S
C1358 C1356 1.395 . S
C1358 C1361 1.403 . S
C1359 C1356 1.403 . S
C1359 C1360 1.524 . S
C1359 C1363 1.400 . S
C1360 H1345 0.960 . S
C1360 H1346 0.960 . S
C1360 H1347 0.960 . S
C1360 C1359 1.524 . S
C1361 C1358 1.403 . S
C1361 C1362 1.392 . S
C1361 C1365 1.495 . S
C1362 C1361 1.392 . S
C1362 C1363 1.385 . S
C1362 C1364 1.478 . S
C1363 H1357 0.930 . S
C1363 C1359 1.400 . S
C1363 C1362 1.385 . S
C1364 C1362 1.478 . S
C1364 C1366 1.381 . S
C1364 C1370 1.383 . S
C1365 C1361 1.495 . S
C1365 H1371 0.959 . S
C1365 H1372 0.961 . S
C1365 H1373 0.960 . S
C1366 C1364 1.381 . S
C1366 C1367 1.394 . S
C1366 H1374 0.930 . S
C1367 C1366 1.394 . S
C1367 C1368 1.383 . S
C1367 H1375 0.929 . S
C1368 C1367 1.383 . S
C1368 C1369 1.377 . S
C1369 H1353 0.930 . S
C1369 C1368 1.377 . S
C1369 C1370 1.379 . S
C1370 H1354 0.931 . S
C1370 C1364 1.383 . S
C1370 C1369 1.379 . S
H1371 C1365 0.959 . S
H1372 C1365 0.961 . S
H1373 C1365 0.960 . S
H1374 C1366 0.930 . S
H1375 C1367 0.929 . S
H1376 C1384 0.929 . S
H1377 C1386 0.930 . S
H1378 C1388 0.930 . S
H1379 C1391 0.929 . S
H1380 C1394 0.930 . S
H1381 C1396 0.960 . S
H1382 C1396 0.960 . S
H1383 C1396 0.960 . S
C1384 H1376 0.929 . S
C1384 C1385 1.377 . S
C1384 C1386 1.384 . S
C1385 C1384 1.377 . S
C1385 C1391 1.390 . S
C1386 H1377 0.930 . S
C1386 C1384 1.384 . S
C1386 C1387 1.372 . S
C1387 C1386 1.372 . S
C1387 C1388 1.400 . S
C1387 C1392 1.490 . S
C1388 H1378 0.930 . S
C1388 C1387 1.400 . S
C1388 C1391 1.386 . S
H1389 C1405 0.930 . S
H1390 C1406 0.931 . S
C1391 H1379 0.929 . S
C1391 C1385 1.390 . S
C1391 C1388 1.386 . S
C1392 C1387 1.490 . S
C1392 C1394 1.395 . S
C1392 C1395 1.403 . S
H1393 C1399 0.930 . S
C1394 H1380 0.930 . S
C1394 C1392 1.395 . S
C1394 C1397 1.403 . S
C1395 C1392 1.403 . S
C1395 C1396 1.524 . S
C1395 C1399 1.400 . S
C1396 H1381 0.960 . S
C1396 H1382 0.960 . S
C1396 H1383 0.960 . S
C1396 C1395 1.524 . S
C1397 C1394 1.403 . S
C1397 C1398 1.392 . S
C1397 C1401 1.495 . S
C1398 C1397 1.392 . S
C1398 C1399 1.385 . S
C1398 C1400 1.478 . S
C1399 H1393 0.930 . S
C1399 C1395 1.400 . S
C1399 C1398 1.385 . S
C1400 C1398 1.478 . S
C1400 C1402 1.381 . S
C1400 C1406 1.383 . S
C1401 C1397 1.495 . S
C1401 H1407 0.959 . S
C1401 H1408 0.961 . S
C1401 H1409 0.960 . S
C1402 C1400 1.381 . S
C1402 C1403 1.394 . S
C1402 H1410 0.930 . S
C1403 C1402 1.394 . S
C1403 C1404 1.383 . S
C1403 H1411 0.929 . S
C1404 C1403 1.383 . S
C1404 C1405 1.377 . S
C1405 H1389 0.930 . S
C1405 C1404 1.377 . S
C1405 C1406 1.379 . S
C1406 H1390 0.931 . S
C1406 C1400 1.383 . S
C1406 C1405 1.379 . S
H1407 C1401 0.959 . S
H1408 C1401 0.961 . S
H1409 C1401 0.960 . S
H1410 C1402 0.930 . S
H1411 C1403 0.929 . S
H1412 C1420 0.929 . S
H1413 C1422 0.930 . S
H1414 C1424 0.930 . S
H1415 C1427 0.929 . S
H1416 C1430 0.930 . S
H1417 C1432 0.960 . S
H1418 C1432 0.960 . S
H1419 C1432 0.960 . S
C1420 H1412 0.929 . S
C1420 C1421 1.377 . S
C1420 C1422 1.384 . S
C1421 C1420 1.377 . S
C1421 C1427 1.390 . S
C1422 H1413 0.930 . S
C1422 C1420 1.384 . S
C1422 C1423 1.372 . S
C1423 C1422 1.372 . S
C1423 C1424 1.400 . S
C1423 C1428 1.490 . S
C1424 H1414 0.930 . S
C1424 C1423 1.400 . S
C1424 C1427 1.386 . S
H1425 C1441 0.930 . S
H1426 C1442 0.931 . S
C1427 H1415 0.929 . S
C1427 C1421 1.390 . S
C1427 C1424 1.386 . S
C1428 C1423 1.490 . S
C1428 C1430 1.395 . S
C1428 C1431 1.403 . S
H1429 C1435 0.930 . S
C1430 H1416 0.930 . S
C1430 C1428 1.395 . S
C1430 C1433 1.403 . S
C1431 C1428 1.403 . S
C1431 C1432 1.524 . S
C1431 C1435 1.400 . S
C1432 H1417 0.960 . S
C1432 H1418 0.960 . S
C1432 H1419 0.960 . S
C1432 C1431 1.524 . S
C1433 C1430 1.403 . S
C1433 C1434 1.392 . S
C1433 C1437 1.495 . S
C1434 C1433 1.392 . S
C1434 C1435 1.385 . S
C1434 C1436 1.478 . S
C1435 H1429 0.930 . S
C1435 C1431 1.400 . S
C1435 C1434 1.385 . S
C1436 C1434 1.478 . S
C1436 C1438 1.381 . S
C1436 C1442 1.383 . S
C1437 C1433 1.495 . S
C1437 H1443 0.959 . S
C1437 H1444 0.961 . S
C1437 H1445 0.960 . S
C1438 C1436 1.381 . S
C1438 C1439 1.394 . S
C1438 H1446 0.930 . S
C1439 C1438 1.394 . S
C1439 C1440 1.383 . S
C1439 H1447 0.929 . S
C1440 C1439 1.383 . S
C1440 C1441 1.377 . S
C1441 H1425 0.930 . S
C1441 C1440 1.377 . S
C1441 C1442 1.379 . S
C1442 H1426 0.931 . S
C1442 C1436 1.383 . S
C1442 C1441 1.379 . S
H1443 C1437 0.959 . S
H1444 C1437 0.961 . S
H1445 C1437 0.960 . S
H1446 C1438 0.930 . S
H1447 C1439 0.929 . S
H1448 C1456 0.929 . S
H1449 C1458 0.930 . S
H1450 C1460 0.930 . S
H1451 C1463 0.929 . S
H1452 C1466 0.930 . S
H1453 C1468 0.960 . S
H1454 C1468 0.960 . S
H1455 C1468 0.960 . S
C1456 H1448 0.929 . S
C1456 C1457 1.377 . S
C1456 C1458 1.384 . S
C1457 C1456 1.377 . S
C1457 C1463 1.390 . S
C1458 H1449 0.930 . S
C1458 C1456 1.384 . S
C1458 C1459 1.372 . S
C1459 C1458 1.372 . S
C1459 C1460 1.400 . S
C1459 C1464 1.490 . S
C1460 H1450 0.930 . S
C1460 C1459 1.400 . S
C1460 C1463 1.386 . S
H1461 C1477 0.930 . S
H1462 C1478 0.931 1_455 S
C1463 H1451 0.929 . S
C1463 C1457 1.390 . S
C1463 C1460 1.386 . S
C1464 C1459 1.490 . S
C1464 C1466 1.395 . S
C1464 C1467 1.403 . S
H1465 C1471 0.930 . S
C1466 H1452 0.930 . S
C1466 C1464 1.395 . S
C1466 C1469 1.403 . S
C1467 C1464 1.403 . S
C1467 C1468 1.524 . S
C1467 C1471 1.400 . S
C1468 H1453 0.960 . S
C1468 H1454 0.960 . S
C1468 H1455 0.960 . S
C1468 C1467 1.524 . S
C1469 C1466 1.403 . S
C1469 C1470 1.392 . S
C1469 C1473 1.495 . S
C1470 C1469 1.392 . S
C1470 C1471 1.385 . S
C1470 C1472 1.478 . S
C1471 H1465 0.930 . S
C1471 C1467 1.400 . S
C1471 C1470 1.385 . S
C1472 C1470 1.478 . S
C1472 C1474 1.381 . S
C1472 C1478 1.383 . S
C1473 C1469 1.495 . S
C1473 H1479 0.959 . S
C1473 H1480 0.961 . S
C1473 H1481 0.960 . S
C1474 C1472 1.381 . S
C1474 C1475 1.394 . S
C1474 H1482 0.930 . S
C1475 C1474 1.394 . S
C1475 C1476 1.383 . S
C1475 H1483 0.929 . S
C1476 C1475 1.383 . S
C1476 C1477 1.377 1_655 S
C1477 H1461 0.930 . S
C1477 C1476 1.377 1_455 S
C1477 C1478 1.379 1_455 S
C1478 H1462 0.931 1_655 S
C1478 C1472 1.383 . S
C1478 C1477 1.379 1_655 S
H1479 C1473 0.959 . S
H1480 C1473 0.961 . S
H1481 C1473 0.960 . S
H1482 C1474 0.930 . S
H1483 C1475 0.929 . S
H1484 C1492 0.929 . S
H1485 C1494 0.930 . S
H1486 C1496 0.930 . S
H1487 C1499 0.929 . S
H1488 C1502 0.930 . S
H1489 C1504 0.960 . S
H1490 C1504 0.960 . S
H1491 C1504 0.960 . S
C1492 H1484 0.929 . S
C1492 C1493 1.377 . S
C1492 C1494 1.384 . S
C1493 C1492 1.377 . S
C1493 C1499 1.390 . S
C1494 H1485 0.930 . S
C1494 C1492 1.384 . S
C1494 C1495 1.372 . S
C1495 C1494 1.372 . S
C1495 C1496 1.400 . S
C1495 C1500 1.490 . S
C1496 H1486 0.930 . S
C1496 C1495 1.400 . S
C1496 C1499 1.386 . S
H1497 C1513 0.930 . S
H1498 C1514 0.931 . S
C1499 H1487 0.929 . S
C1499 C1493 1.390 . S
C1499 C1496 1.386 . S
C1500 C1495 1.490 . S
C1500 C1502 1.395 . S
C1500 C1503 1.403 . S
H1501 C1507 0.930 . S
C1502 H1488 0.930 . S
C1502 C1500 1.395 . S
C1502 C1505 1.403 . S
C1503 C1500 1.403 . S
C1503 C1504 1.524 . S
C1503 C1507 1.400 . S
C1504 H1489 0.960 . S
C1504 H1490 0.960 . S
C1504 H1491 0.960 . S
C1504 C1503 1.524 . S
C1505 C1502 1.403 . S
C1505 C1506 1.392 . S
C1505 C1509 1.495 . S
C1506 C1505 1.392 . S
C1506 C1507 1.385 . S
C1506 C1508 1.478 . S
C1507 H1501 0.930 . S
C1507 C1503 1.400 . S
C1507 C1506 1.385 . S
C1508 C1506 1.478 . S
C1508 C1510 1.381 . S
C1508 C1514 1.383 . S
C1509 C1505 1.495 . S
C1509 H1515 0.959 . S
C1509 H1516 0.961 . S
C1509 H1517 0.960 . S
C1510 C1508 1.381 . S
C1510 C1511 1.394 . S
C1510 H1518 0.930 . S
C1511 C1510 1.394 . S
C1511 C1512 1.383 . S
C1511 H1519 0.929 . S
C1512 C1511 1.383 . S
C1512 C1513 1.377 . S
C1513 H1497 0.930 . S
C1513 C1512 1.377 . S
C1513 C1514 1.379 . S
C1514 H1498 0.931 . S
C1514 C1508 1.383 . S
C1514 C1513 1.379 . S
H1515 C1509 0.959 . S
H1516 C1509 0.961 . S
H1517 C1509 0.960 . S
H1518 C1510 0.930 . S
H1519 C1511 0.929 . S
H1520 C1528 0.929 . S
H1521 C1530 0.930 . S
H1522 C1532 0.930 . S
H1523 C1535 0.929 . S
H1524 C1538 0.930 . S
H1525 C1540 0.960 . S
H1526 C1540 0.960 . S
H1527 C1540 0.960 . S
C1528 H1520 0.929 . S
C1528 C1529 1.377 . S
C1528 C1530 1.384 . S
C1529 C1528 1.377 . S
C1529 C1535 1.390 . S
C1530 H1521 0.930 . S
C1530 C1528 1.384 . S
C1530 C1531 1.372 . S
C1531 C1530 1.372 . S
C1531 C1532 1.400 . S
C1531 C1536 1.490 . S
C1532 H1522 0.930 . S
C1532 C1531 1.400 . S
C1532 C1535 1.386 . S
H1533 C1549 0.930 . S
H1534 C1550 0.931 . S
C1535 H1523 0.929 . S
C1535 C1529 1.390 . S
C1535 C1532 1.386 . S
C1536 C1531 1.490 . S
C1536 C1538 1.395 . S
C1536 C1539 1.403 . S
H1537 C1543 0.930 . S
C1538 H1524 0.930 . S
C1538 C1536 1.395 . S
C1538 C1541 1.403 . S
C1539 C1536 1.403 . S
C1539 C1540 1.524 . S
C1539 C1543 1.400 . S
C1540 H1525 0.960 . S
C1540 H1526 0.960 . S
C1540 H1527 0.960 . S
C1540 C1539 1.524 . S
C1541 C1538 1.403 . S
C1541 C1542 1.392 . S
C1541 C1545 1.495 . S
C1542 C1541 1.392 . S
C1542 C1543 1.385 . S
C1542 C1544 1.478 . S
C1543 H1537 0.930 . S
C1543 C1539 1.400 . S
C1543 C1542 1.385 . S
C1544 C1542 1.478 . S
C1544 C1546 1.381 . S
C1544 C1550 1.383 . S
C1545 C1541 1.495 . S
C1545 H1551 0.959 . S
C1545 H1552 0.961 . S
C1545 H1553 0.960 . S
C1546 C1544 1.381 . S
C1546 C1547 1.394 . S
C1546 H1554 0.930 . S
C1547 C1546 1.394 . S
C1547 C1548 1.383 . S
C1547 H1555 0.929 . S
C1548 C1547 1.383 . S
C1548 C1549 1.377 . S
C1549 H1533 0.930 . S
C1549 C1548 1.377 . S
C1549 C1550 1.379 . S
C1550 H1534 0.931 . S
C1550 C1544 1.383 . S
C1550 C1549 1.379 . S
H1551 C1545 0.959 . S
H1552 C1545 0.961 . S
H1553 C1545 0.960 . S
H1554 C1546 0.930 . S
H1555 C1547 0.929 . S
H1556 C1564 0.929 . S
H1557 C1566 0.930 . S
H1558 C1568 0.930 . S
H1559 C1571 0.929 . S
H1560 C1574 0.930 . S
H1561 C1576 0.960 . S
H1562 C1576 0.960 . S
H1563 C1576 0.960 . S
C1564 H1556 0.929 . S
C1564 C1565 1.377 . S
C1564 C1566 1.384 . S
C1565 C1564 1.377 . S
C1565 C1571 1.390 . S
C1566 H1557 0.930 . S
C1566 C1564 1.384 . S
C1566 C1567 1.372 . S
C1567 C1566 1.372 . S
C1567 C1568 1.400 . S
C1567 C1572 1.490 . S
C1568 H1558 0.930 . S
C1568 C1567 1.400 . S
C1568 C1571 1.386 . S
H1569 C1585 0.930 . S
H1570 C1586 0.931 . S
C1571 H1559 0.929 . S
C1571 C1565 1.390 . S
C1571 C1568 1.386 . S
C1572 C1567 1.490 . S
C1572 C1574 1.395 . S
C1572 C1575 1.403 . S
H1573 C1579 0.930 . S
C1574 H1560 0.930 . S
C1574 C1572 1.395 . S
C1574 C1577 1.403 . S
C1575 C1572 1.403 . S
C1575 C1576 1.524 . S
C1575 C1579 1.400 . S
C1576 H1561 0.960 . S
C1576 H1562 0.960 . S
C1576 H1563 0.960 . S
C1576 C1575 1.524 . S
C1577 C1574 1.403 . S
C1577 C1578 1.392 . S
C1577 C1581 1.495 . S
C1578 C1577 1.392 . S
C1578 C1579 1.385 . S
C1578 C1580 1.478 . S
C1579 H1573 0.930 . S
C1579 C1575 1.400 . S
C1579 C1578 1.385 . S
C1580 C1578 1.478 . S
C1580 C1582 1.381 . S
C1580 C1586 1.383 . S
C1581 C1577 1.495 . S
C1581 H1587 0.959 . S
C1581 H1588 0.961 . S
C1581 H1589 0.960 . S
C1582 C1580 1.381 . S
C1582 C1583 1.394 . S
C1582 H1590 0.930 . S
C1583 C1582 1.394 . S
C1583 C1584 1.383 . S
C1583 H1591 0.929 . S
C1584 C1583 1.383 . S
C1584 C1585 1.377 . S
C1585 H1569 0.930 . S
C1585 C1584 1.377 . S
C1585 C1586 1.379 . S
C1586 H1570 0.931 . S
C1586 C1580 1.383 . S
C1586 C1585 1.379 . S
H1587 C1581 0.959 . S
H1588 C1581 0.961 . S
H1589 C1581 0.960 . S
H1590 C1582 0.930 . S
H1591 C1583 0.929 . S
H1592 C1600 0.929 . S
H1593 C1602 0.930 . S
H1594 C1604 0.930 . S
H1595 C1607 0.929 . S
H1596 C1610 0.930 . S
H1597 C1612 0.960 . S
H1598 C1612 0.960 . S
H1599 C1612 0.960 . S
C1600 H1592 0.929 . S
C1600 C1601 1.377 . S
C1600 C1602 1.384 . S
C1601 C1600 1.377 . S
C1601 C1607 1.390 . S
C1602 H1593 0.930 . S
C1602 C1600 1.384 . S
C1602 C1603 1.372 . S
C1603 C1602 1.372 . S
C1603 C1604 1.400 . S
C1603 C1608 1.490 . S
C1604 H1594 0.930 . S
C1604 C1603 1.400 . S
C1604 C1607 1.386 . S
H1605 C1621 0.930 . S
H1606 C1622 0.931 . S
C1607 H1595 0.929 . S
C1607 C1601 1.390 . S
C1607 C1604 1.386 . S
C1608 C1603 1.490 . S
C1608 C1610 1.395 . S
C1608 C1611 1.403 . S
H1609 C1615 0.930 . S
C1610 H1596 0.930 . S
C1610 C1608 1.395 . S
C1610 C1613 1.403 . S
C1611 C1608 1.403 . S
C1611 C1612 1.524 . S
C1611 C1615 1.400 . S
C1612 H1597 0.960 . S
C1612 H1598 0.960 . S
C1612 H1599 0.960 . S
C1612 C1611 1.524 . S
C1613 C1610 1.403 . S
C1613 C1614 1.392 . S
C1613 C1617 1.495 . S
C1614 C1613 1.392 . S
C1614 C1615 1.385 . S
C1614 C1616 1.478 . S
C1615 H1609 0.930 . S
C1615 C1611 1.400 . S
C1615 C1614 1.385 . S
C1616 C1614 1.478 . S
C1616 C1618 1.381 . S
C1616 C1622 1.383 . S
C1617 C1613 1.495 . S
C1617 H1623 0.959 . S
C1617 H1624 0.961 . S
C1617 H1625 0.960 . S
C1618 C1616 1.381 . S
C1618 C1619 1.394 . S
C1618 H1626 0.930 . S
C1619 C1618 1.394 . S
C1619 C1620 1.383 . S
C1619 H1627 0.929 . S
C1620 C1619 1.383 . S
C1620 C1621 1.377 . S
C1621 H1605 0.930 . S
C1621 C1620 1.377 . S
C1621 C1622 1.379 . S
C1622 H1606 0.931 . S
C1622 C1616 1.383 . S
C1622 C1621 1.379 . S
H1623 C1617 0.959 . S
H1624 C1617 0.961 . S
H1625 C1617 0.960 . S
H1626 C1618 0.930 . S
H1627 C1619 0.929 . S
H1628 C1636 0.929 . S
H1629 C1638 0.930 . S
H1630 C1640 0.930 . S
H1631 C1643 0.929 . S
H1632 C1646 0.930 . S
H1633 C1648 0.960 . S
H1634 C1648 0.960 . S
H1635 C1648 0.960 . S
C1636 H1628 0.929 . S
C1636 C1637 1.377 . S
C1636 C1638 1.384 . S
C1637 C1636 1.377 . S
C1637 C1643 1.390 . S
C1638 H1629 0.930 . S
C1638 C1636 1.384 . S
C1638 C1639 1.372 . S
C1639 C1638 1.372 . S
C1639 C1640 1.400 . S
C1639 C1644 1.490 . S
C1640 H1630 0.930 . S
C1640 C1639 1.400 . S
C1640 C1643 1.386 . S
H1641 C1657 0.930 . S
H1642 C1658 0.931 . S
C1643 H1631 0.929 . S
C1643 C1637 1.390 . S
C1643 C1640 1.386 . S
C1644 C1639 1.490 . S
C1644 C1646 1.395 . S
C1644 C1647 1.403 . S
H1645 C1651 0.930 . S
C1646 H1632 0.930 . S
C1646 C1644 1.395 . S
C1646 C1649 1.403 . S
C1647 C1644 1.403 . S
C1647 C1648 1.524 . S
C1647 C1651 1.400 . S
C1648 H1633 0.960 . S
C1648 H1634 0.960 . S
C1648 H1635 0.960 . S
C1648 C1647 1.524 . S
C1649 C1646 1.403 . S
C1649 C1650 1.392 . S
C1649 C1653 1.495 . S
C1650 C1649 1.392 . S
C1650 C1651 1.385 . S
C1650 C1652 1.478 . S
C1651 H1645 0.930 . S
C1651 C1647 1.400 . S
C1651 C1650 1.385 . S
C1652 C1650 1.478 . S
C1652 C1654 1.381 . S
C1652 C1658 1.383 . S
C1653 C1649 1.495 . S
C1653 H1659 0.959 . S
C1653 H1660 0.961 . S
C1653 H1661 0.960 . S
C1654 C1652 1.381 . S
C1654 C1655 1.394 . S
C1654 H1662 0.930 . S
C1655 C1654 1.394 . S
C1655 C1656 1.383 . S
C1655 H1663 0.929 . S
C1656 C1655 1.383 . S
C1656 C1657 1.377 . S
C1657 H1641 0.930 . S
C1657 C1656 1.377 . S
C1657 C1658 1.379 . S
C1658 H1642 0.931 . S
C1658 C1652 1.383 . S
C1658 C1657 1.379 . S
H1659 C1653 0.959 . S
H1660 C1653 0.961 . S
H1661 C1653 0.960 . S
H1662 C1654 0.930 . S
H1663 C1655 0.929 . S
H1664 C1672 0.929 . S
H1665 C1674 0.930 . S
H1666 C1676 0.930 . S
H1667 C1679 0.929 . S
H1668 C1682 0.930 . S
H1669 C1684 0.960 . S
H1670 C1684 0.960 . S
H1671 C1684 0.960 . S
C1672 H1664 0.929 . S
C1672 C1673 1.377 . S
C1672 C1674 1.384 . S
C1673 C1672 1.377 . S
C1673 C1679 1.390 . S
C1674 H1665 0.930 . S
C1674 C1672 1.384 . S
C1674 C1675 1.372 . S
C1675 C1674 1.372 . S
C1675 C1676 1.400 . S
C1675 C1680 1.490 . S
C1676 H1666 0.930 . S
C1676 C1675 1.400 . S
C1676 C1679 1.386 . S
H1677 C1693 0.930 . S
H1678 C1694 0.931 . S
C1679 H1667 0.929 . S
C1679 C1673 1.390 . S
C1679 C1676 1.386 . S
C1680 C1675 1.490 . S
C1680 C1682 1.395 . S
C1680 C1683 1.403 . S
H1681 C1687 0.930 . S
C1682 H1668 0.930 . S
C1682 C1680 1.395 . S
C1682 C1685 1.403 . S
C1683 C1680 1.403 . S
C1683 C1684 1.524 . S
C1683 C1687 1.400 . S
C1684 H1669 0.960 . S
C1684 H1670 0.960 . S
C1684 H1671 0.960 . S
C1684 C1683 1.524 . S
C1685 C1682 1.403 . S
C1685 C1686 1.392 . S
C1685 C1689 1.495 . S
C1686 C1685 1.392 . S
C1686 C1687 1.385 . S
C1686 C1688 1.478 . S
C1687 H1681 0.930 . S
C1687 C1683 1.400 . S
C1687 C1686 1.385 . S
C1688 C1686 1.478 . S
C1688 C1690 1.381 . S
C1688 C1694 1.383 . S
C1689 C1685 1.495 . S
C1689 H1695 0.959 . S
C1689 H1696 0.961 . S
C1689 H1697 0.960 . S
C1690 C1688 1.381 . S
C1690 C1691 1.394 . S
C1690 H1698 0.930 . S
C1691 C1690 1.394 . S
C1691 C1692 1.383 . S
C1691 H1699 0.929 . S
C1692 C1691 1.383 . S
C1692 C1693 1.377 . S
C1693 H1677 0.930 . S
C1693 C1692 1.377 . S
C1693 C1694 1.379 . S
C1694 H1678 0.931 . S
C1694 C1688 1.383 . S
C1694 C1693 1.379 . S
H1695 C1689 0.959 . S
H1696 C1689 0.961 . S
H1697 C1689 0.960 . S
H1698 C1690 0.930 . S
H1699 C1691 0.929 . S
H1700 C1708 0.929 . S
H1701 C1710 0.930 . S
H1702 C1712 0.930 . S
H1703 C1715 0.929 . S
H1704 C1718 0.930 . S
H1705 C1720 0.960 . S
H1706 C1720 0.960 . S
H1707 C1720 0.960 . S
C1708 H1700 0.929 . S
C1708 C1709 1.377 . S
C1708 C1710 1.384 . S
C1709 C1708 1.377 . S
C1709 C1715 1.390 . S
C1710 H1701 0.930 . S
C1710 C1708 1.384 . S
C1710 C1711 1.372 . S
C1711 C1710 1.372 . S
C1711 C1712 1.400 . S
C1711 C1716 1.490 . S
C1712 H1702 0.930 . S
C1712 C1711 1.400 . S
C1712 C1715 1.386 . S
H1713 C1729 0.930 . S
H1714 C1730 0.931 . S
C1715 H1703 0.929 . S
C1715 C1709 1.390 . S
C1715 C1712 1.386 . S
C1716 C1711 1.490 . S
C1716 C1718 1.395 . S
C1716 C1719 1.403 . S
H1717 C1723 0.930 . S
C1718 H1704 0.930 . S
C1718 C1716 1.395 . S
C1718 C1721 1.403 . S
C1719 C1716 1.403 . S
C1719 C1720 1.524 . S
C1719 C1723 1.400 . S
C1720 H1705 0.960 . S
C1720 H1706 0.960 . S
C1720 H1707 0.960 . S
C1720 C1719 1.524 . S
C1721 C1718 1.403 . S
C1721 C1722 1.392 . S
C1721 C1725 1.495 . S
C1722 C1721 1.392 . S
C1722 C1723 1.385 . S
C1722 C1724 1.478 . S
C1723 H1717 0.930 . S
C1723 C1719 1.400 . S
C1723 C1722 1.385 . S
C1724 C1722 1.478 . S
C1724 C1726 1.381 . S
C1724 C1730 1.383 . S
C1725 C1721 1.495 . S
C1725 H1731 0.959 . S
C1725 H1732 0.961 . S
C1725 H1733 0.960 . S
C1726 C1724 1.381 . S
C1726 C1727 1.394 . S
C1726 H1734 0.930 . S
C1727 C1726 1.394 . S
C1727 C1728 1.383 . S
C1727 H1735 0.929 . S
C1728 C1727 1.383 . S
C1728 C1729 1.377 . S
C1729 H1713 0.930 . S
C1729 C1728 1.377 . S
C1729 C1730 1.379 . S
C1730 H1714 0.931 . S
C1730 C1724 1.383 . S
C1730 C1729 1.379 . S
H1731 C1725 0.959 . S
H1732 C1725 0.961 . S
H1733 C1725 0.960 . S
H1734 C1726 0.930 . S
H1735 C1727 0.929 . S
H1736 C1744 0.929 . S
H1737 C1746 0.930 . S
H1738 C1748 0.930 . S
H1739 C1751 0.929 . S
H1740 C1754 0.930 . S
H1741 C1756 0.960 . S
H1742 C1756 0.960 . S
H1743 C1756 0.960 . S
C1744 H1736 0.929 . S
C1744 C1745 1.377 . S
C1744 C1746 1.384 . S
C1745 C1744 1.377 . S
C1745 C1751 1.390 . S
C1746 H1737 0.930 . S
C1746 C1744 1.384 . S
C1746 C1747 1.372 . S
C1747 C1746 1.372 . S
C1747 C1748 1.400 . S
C1747 C1752 1.490 . S
C1748 H1738 0.930 . S
C1748 C1747 1.400 . S
C1748 C1751 1.386 . S
H1749 C1765 0.930 . S
H1750 C1766 0.931 . S
C1751 H1739 0.929 . S
C1751 C1745 1.390 . S
C1751 C1748 1.386 . S
C1752 C1747 1.490 . S
C1752 C1754 1.395 . S
C1752 C1755 1.403 . S
H1753 C1759 0.930 . S
C1754 H1740 0.930 . S
C1754 C1752 1.395 . S
C1754 C1757 1.403 . S
C1755 C1752 1.403 . S
C1755 C1756 1.524 . S
C1755 C1759 1.400 . S
C1756 H1741 0.960 . S
C1756 H1742 0.960 . S
C1756 H1743 0.960 . S
C1756 C1755 1.524 . S
C1757 C1754 1.403 . S
C1757 C1758 1.392 . S
C1757 C1761 1.495 . S
C1758 C1757 1.392 . S
C1758 C1759 1.385 . S
C1758 C1760 1.478 . S
C1759 H1753 0.930 . S
C1759 C1755 1.400 . S
C1759 C1758 1.385 . S
C1760 C1758 1.478 . S
C1760 C1762 1.381 . S
C1760 C1766 1.383 . S
C1761 C1757 1.495 . S
C1761 H1767 0.959 . S
C1761 H1768 0.961 . S
C1761 H1769 0.960 . S
C1762 C1760 1.381 . S
C1762 C1763 1.394 . S
C1762 H1770 0.930 . S
C1763 C1762 1.394 . S
C1763 C1764 1.383 . S
C1763 H1771 0.929 . S
C1764 C1763 1.383 . S
C1764 C1765 1.377 . S
C1765 H1749 0.930 . S
C1765 C1764 1.377 . S
C1765 C1766 1.379 . S
C1766 H1750 0.931 . S
C1766 C1760 1.383 . S
C1766 C1765 1.379 . S
H1767 C1761 0.959 . S
H1768 C1761 0.961 . S
H1769 C1761 0.960 . S
H1770 C1762 0.930 . S
H1771 C1763 0.929 . S
C648 C556 1.765 . S
C629 C53 1.783 . S
C665 C115 1.726 . S
C684 C559 1.688 . S
C701 C177 1.695 . S
C720 C590 1.673 . S
C756 C525 1.768 . S
C737 C239 1.790 . S
C792 C560 2.028 . S
C773 C47 2.006 . S
C828 C591 1.978 . S
C809 C109 1.948 . S
C864 C516 1.931 . S
C845 C171 1.901 . S
C900 C547 1.966 . S
C881 C233 1.918 . S
C917 C29 1.351 . S
C936 C577 1.330 . S
C953 C277 1.340 . S
C972 C546 1.310 . S
C989 C153 1.246 . S
C1008 C506 1.251 . S
C1044 C599 1.268 . S
C1025 C339 1.265 . S
C1080 C527 1.124 . S
C1061 C35 1.193 . S
C1097 C283 1.130 1_565 S
C1116 C526 1.100 . S
C1133 C159 1.111 . S
C1152 C619 1.094 . S
C1188 C558 1.142 . S
C1169 C345 1.170 . S
C1205 C419 1.948 . S
C1224 C618 1.990 . S
C1241 C301 1.726 . S
C1260 C497 1.723 . S
C1277 C487 1.681 . S
C1296 C528 1.659 . S
C1313 C363 1.759 . S
C1332 C587 1.739 . S
C1368 C498 1.803 . S
C1349 C425 1.847 . S
C1385 C295 1.982 . S
C1404 C529 2.028 . S
C1421 C481 1.909 . S
C1440 C578 1.964 . S
C1476 C609 1.981 . S
C1457 C357 1.911 . S
C1493 C407 1.249 . S
C1512 C515 1.225 . S
C1529 C91 1.328 . S
C1548 C608 1.271 . S
C1565 C463 1.266 . S
C1584 C568 1.283 . S
C1620 C537 1.255 . S
C1601 C215 1.259 . S
C1656 C589 1.286 . S
C1637 C401 1.302 . S
C1692 C588 1.118 . S
C1673 C97 1.135 . S
C1728 C557 1.090 . S
C1709 C469 1.100 . S
C1764 C496 1.150 . S
C1745 C221 1.184 . S
