# Generated by pormake.
# Topology pyr, (3,6)-cn, num edge types: 1
# Building blocks:
#     Node 0, Type 0, BuildingBlock: PAMTOO_clean_linker_0, # of connection points: 3
#     Node 1, Type 0, BuildingBlock: PAMTOO_clean_linker_0, # of connection points: 3
#     Node 2, Type 0, BuildingBlock: PAMTOO_clean_linker_0, # of connection points: 3
#     Node 3, Type 0, BuildingBlock: PAMTOO_clean_linker_0, # of connection points: 3
#     Node 4, Type 0, BuildingBlock: PAMTOO_clean_linker_0, # of connection points: 3
#     Node 5, Type 0, BuildingBlock: PAMTOO_clean_linker_0, # of connection points: 3
#     Node 6, Type 0, BuildingBlock: PAMTOO_clean_linker_0, # of connection points: 3
#     Node 7, Type 0, BuildingBlock: PAMTOO_clean_linker_0, # of connection points: 3
#     Node 8, Type 1, BuildingBlock: BETDAH_clean_sbu_0, # of connection points: 6
#     Node 9, Type 1, BuildingBlock: BETDAH_clean_sbu_0, # of connection points: 6
#     Node 10, Type 1, BuildingBlock: BETDAH_clean_sbu_0, # of connection points: 6
#     Node 11, Type 1, BuildingBlock: BETDAH_clean_sbu_0, # of connection points: 6
#     Edge 12, Type (0, 1), BuildingBlock: CIFDUS_clean_linker_0, # of connection points: 2
#     Edge 13, Type (0, 1), BuildingBlock: CIFDUS_clean_linker_0, # of connection points: 2
#     Edge 14, Type (0, 1), BuildingBlock: CIFDUS_clean_linker_0, # of connection points: 2
#     Edge 15, Type (0, 1), BuildingBlock: CIFDUS_clean_linker_0, # of connection points: 2
#     Edge 16, Type (0, 1), BuildingBlock: CIFDUS_clean_linker_0, # of connection points: 2
#     Edge 17, Type (0, 1), BuildingBlock: CIFDUS_clean_linker_0, # of connection points: 2
#     Edge 18, Type (0, 1), BuildingBlock: CIFDUS_clean_linker_0, # of connection points: 2
#     Edge 19, Type (0, 1), BuildingBlock: CIFDUS_clean_linker_0, # of connection points: 2
#     Edge 20, Type (0, 1), BuildingBlock: CIFDUS_clean_linker_0, # of connection points: 2
#     Edge 21, Type (0, 1), BuildingBlock: CIFDUS_clean_linker_0, # of connection points: 2
#     Edge 22, Type (0, 1), BuildingBlock: CIFDUS_clean_linker_0, # of connection points: 2
#     Edge 23, Type (0, 1), BuildingBlock: CIFDUS_clean_linker_0, # of connection points: 2
#     Edge 24, Type (0, 1), BuildingBlock: CIFDUS_clean_linker_0, # of connection points: 2
#     Edge 25, Type (0, 1), BuildingBlock: CIFDUS_clean_linker_0, # of connection points: 2
#     Edge 26, Type (0, 1), BuildingBlock: CIFDUS_clean_linker_0, # of connection points: 2
#     Edge 27, Type (0, 1), BuildingBlock: CIFDUS_clean_linker_0, # of connection points: 2
#     Edge 28, Type (0, 1), BuildingBlock: CIFDUS_clean_linker_0, # of connection points: 2
#     Edge 29, Type (0, 1), BuildingBlock: CIFDUS_clean_linker_0, # of connection points: 2
#     Edge 30, Type (0, 1), BuildingBlock: CIFDUS_clean_linker_0, # of connection points: 2
#     Edge 31, Type (0, 1), BuildingBlock: CIFDUS_clean_linker_0, # of connection points: 2
#     Edge 32, Type (0, 1), BuildingBlock: CIFDUS_clean_linker_0, # of connection points: 2
#     Edge 33, Type (0, 1), BuildingBlock: CIFDUS_clean_linker_0, # of connection points: 2
#     Edge 34, Type (0, 1), BuildingBlock: CIFDUS_clean_linker_0, # of connection points: 2
#     Edge 35, Type (0, 1), BuildingBlock: CIFDUS_clean_linker_0, # of connection points: 2
# Relax obj value: 0.206
# Max RMSD: 0.232
# Mean RMSD: 0.151
data_MOF--net-pyr--node1-BETDAH_clean_sbu_0--node2-PAMTOO_clean_linker_0--edge1-CIFDUS_clean_linker_0
_symmetry_space_group_name_H-M    P1
_symmetry_Int_Tables_number       1
_symmetry_cell_setting            triclinic
loop_
_symmetry_equiv_pos_as_xyz
'x, y, z'
_cell_length_a     32.85228
_cell_length_b     35.660572
_cell_length_c     31.349603
_cell_angle_alpha  91.976206
_cell_angle_beta   89.680122
_cell_angle_gamma 108.29054
loop_
_atom_site_label
_atom_site_type_symbol
_atom_site_fract_x
_atom_site_fract_y
_atom_site_fract_z
_atom_type_partial_charge
H0 H 0.31005 0.32943 0.26016 0.0
H1 H 0.38134 0.24686 0.25554 0.0
H2 H 0.42232 0.35135 0.18173 0.0
H3 H 0.4695 0.28605 0.25806 0.0
C4 C 0.47574 0.29106 0.22345 0.0
O5 O 0.43807 0.28635 0.20154 0.0
H6 H 0.49736 0.32176 0.21965 0.0
C7 C 0.33785 0.32146 0.24964 0.0
C8 C 0.36618 0.3453 0.22057 0.0
C9 C 0.34283 0.28596 0.26267 0.0
C10 C 0.37703 0.27437 0.2463 0.0
C11 C 0.40608 0.2984 0.21793 0.0
C12 C 0.40059 0.3337 0.20483 0.0
H13 H 0.26824 0.93832 0.6739 0.0
H14 H 0.27925 0.90898 0.54071 0.0
H15 H 0.34666 0.86681 0.63463 0.0
H16 H 0.38264 0.9155 0.54423 0.0
C17 C 0.367 0.88457 0.53204 0.0
O18 O 0.32929 0.86676 0.55324 0.0
H19 H 0.35964 0.88629 0.49774 0.0
C20 C 0.28086 0.92352 0.64885 0.0
C21 C 0.30901 0.90265 0.65966 0.0
C22 C 0.26978 0.92635 0.60609 0.0
C23 C 0.28649 0.90691 0.57404 0.0
C24 C 0.31381 0.88541 0.58448 0.0
C25 C 0.32517 0.88333 0.6271 0.0
H26 H 0.76407 0.3549 0.96211 0.0
H27 H 0.66305 0.33248 0.86873 0.0
H28 H 0.76465 0.44293 0.87063 0.0
H29 H 0.67898 0.44632 0.85645 0.0
C30 C 0.6685 0.42294 0.83073 0.0
O31 O 0.69637 0.40048 0.82952 0.0
H32 H 0.63591 0.4036 0.83896 0.0
C33 C 0.74934 0.36515 0.93608 0.0
C34 C 0.76989 0.40273 0.91943 0.0
C35 C 0.71044 0.3396 0.91891 0.0
C36 C 0.69255 0.35172 0.88287 0.0
C37 C 0.71245 0.38908 0.86534 0.0
C38 C 0.75053 0.41422 0.88405 0.0
H39 H 0.89353 0.77528 0.48273 0.0
H40 H 0.88859 0.67844 0.3949 0.0
H41 H 0.99024 0.78894 0.38598 0.0
H42 H 0.96816 0.74676 0.30029 0.0
C43 C 0.95171 0.7164 0.31115 0.0
O44 O 0.95961 0.71527 0.35452 0.0
H45 H 0.91673 0.71 0.30551 0.0
C46 C 0.90701 0.76325 0.45594 0.0
C47 C 0.94432 0.78727 0.43649 0.0
C48 C 0.8864 0.7241 0.44134 0.0
C49 C 0.90341 0.70882 0.40586 0.0
C50 C 0.94097 0.73199 0.38576 0.0
C51 C 0.96103 0.77133 0.40098 0.0
H52 H 0.82148 0.91928 0.94088 0.0
H53 H 0.71442 0.83806 1.00382 0.0
H54 H 0.82657 0.80504 0.97378 0.0
H55 H 0.72624 0.75046 0.95316 0.0
C56 C 0.73418 0.7465 0.98688 0.0
O57 O 0.75012 0.78239 1.00881 0.0
H58 H 0.70386 0.72905 1.00213 0.0
C59 C 0.80644 0.89084 0.9548 0.0
C60 C 0.82829 0.86285 0.95453 0.0
C61 C 0.76547 0.88254 0.97275 0.0
C62 C 0.74574 0.84496 0.98918 0.0
C63 C 0.7677 0.81703 0.98951 0.0
C64 C 0.80915 0.82619 0.97258 0.0
H65 H 0.8527 0.17511 0.47681 0.0
H66 H 0.76801 0.24224 0.509 0.0
H67 H 0.81298 0.18434 0.60713 0.0
H68 H 0.72187 0.20107 0.63342 0.0
C69 C 0.72436 0.21122 0.60011 0.0
O70 O 0.76698 0.22963 0.59081 0.0
H71 H 0.71018 0.18452 0.57899 0.0
C72 C 0.83496 0.18625 0.50057 0.0
C73 C 0.83675 0.17698 0.54365 0.0
C74 C 0.80955 0.20901 0.48753 0.0
C75 C 0.78714 0.22406 0.51836 0.0
C76 C 0.78876 0.2152 0.56132 0.0
C77 C 0.8131 0.19154 0.57385 0.0
H78 H 0.39613 0.79071 0.16127 0.0
H79 H 0.37922 0.70298 0.25667 0.0
H80 H 0.49196 0.80546 0.25902 0.0
H81 H 0.51017 0.73232 0.28417 0.0
C82 C 0.47817 0.71495 0.29626 0.0
O83 O 0.4517 0.73878 0.29763 0.0
H84 H 0.46432 0.68975 0.2732 0.0
C85 C 0.40753 0.78002 0.1893 0.0
C86 C 0.44711 0.80261 0.20755 0.0
C87 C 0.38219 0.74424 0.20662 0.0
C88 C 0.39809 0.73026 0.24261 0.0
C89 C 0.43775 0.75206 0.26168 0.0
C90 C 0.46173 0.78853 0.2443 0.0
H91 H 0.13255 0.36742 0.82135 0.0
H92 H 0.23902 0.4725 0.79739 0.0
H93 H 0.22272 0.36807 0.72018 0.0
H94 H 0.3111 0.41229 0.74649 0.0
C95 C 0.31005 0.44278 0.74186 0.0
O96 O 0.26857 0.4417 0.73256 0.0
H97 H 0.32046 0.46023 0.77219 0.0
C98 C 0.16123 0.38262 0.80395 0.0
C99 C 0.17513 0.36232 0.76972 0.0
C100 C 0.18329 0.42324 0.81386 0.0
C101 C 0.22058 0.44197 0.79023 0.0
C102 C 0.23443 0.42222 0.75662 0.0
C103 C 0.21162 0.38283 0.74645 0.0
Ho104 Ho 0.05861 0.08848 0.56582 0.0
Ho105 Ho 0.06911 1.05634 0.6527 0.0
C106 C 0.08984 0.14872 0.64841 0.0
C107 C 0.04757 0.12645 0.50046 0.0
C108 C 0.07809 0.1447 0.46695 0.0
C109 C 0.07962 0.18174 0.45221 0.0
C110 C 0.11325 0.20241 0.42609 0.0
C111 C 0.14603 0.1864 0.41459 0.0
C112 C 0.1433 0.14851 0.42799 0.0
C113 C 0.10967 0.12788 0.45391 0.0
C114 C 0.13373 0.07395 0.57785 0.0
C115 C 0.02916 0.99481 0.57107 0.0
C116 C 0.08946 1.01985 0.71497 0.0
C117 C 0.06686 0.98393 0.73738 0.0
C118 C 0.08264 0.97677 0.77662 0.0
C119 C 0.05716 0.94741 0.80244 0.0
C120 C 1.01545 0.92503 0.78939 0.0
C121 C 1.00115 0.93035 0.7485 0.0
C122 C 0.02664 0.9597 0.72273 0.0
C123 C 0.99382 0.07061 0.64112 0.0
O124 O 0.06634 0.14023 0.61296 0.0
O125 O 0.10249 0.12125 0.6666 0.0
O126 O 0.03539 0.08793 0.50121 0.0
O127 O 0.05738 0.14297 0.53837 0.0
O128 O 0.11473 0.07073 0.54141 0.0
O129 O 0.11413 0.08832 0.60495 0.0
O130 O 0.04772 1.00067 0.6094 0.0
O131 O 0.02352 1.02443 0.55015 0.0
O132 O 0.07287 1.04851 0.72027 0.0
O133 O 0.09979 1.01505 0.67527 0.0
O134 O 1.01242 0.07316 0.67791 0.0
O135 O 1.01368 1.05672 0.61377 0.0
H136 H 0.05572 0.19532 0.4622 0.0
H137 H 0.1141 0.23129 0.4157 0.0
H138 H 0.1682 0.1355 0.42013 0.0
H139 H 0.10941 0.09944 0.46515 0.0
H140 H 0.11364 0.9953 0.78835 0.0
H141 H 0.06915 0.94369 0.83361 0.0
H142 H 0.96902 0.91395 0.7377 0.0
H143 H 1.0139 0.96509 0.69256 0.0
Ho144 Ho 0.62408 0.08609 0.08882 0.0
Ho145 Ho 0.54588 1.05385 1.03846 0.0
C146 C 0.54755 0.11547 0.11649 0.0
C147 C 0.69888 0.11971 0.12271 0.0
C148 C 0.71302 0.14201 0.16313 0.0
C149 C 0.68933 0.16469 0.18215 0.0
C150 C 0.69998 0.1817 0.22305 0.0
C151 C 0.73421 0.17597 0.24583 0.0
C152 C 0.75876 0.1544 0.22589 0.0
C153 C 0.74824 0.13762 0.1849 0.0
C154 C 0.56583 1.02303 0.1254 0.0
C155 C 0.62286 1.02362 1.01232 0.0
C156 C 0.47119 1.02032 1.00432 0.0
C157 C 0.4569 1.0006 0.96257 0.0
C158 C 0.42057 0.967 0.95984 0.0
C159 C 0.40668 0.9481 0.92027 0.0
C160 C 0.42883 0.96264 0.88267 0.0
C161 C 0.46569 0.99602 0.8858 0.0
C162 C 0.47973 1.01463 0.92534 0.0
C163 C 0.60397 0.11723 1.00205 0.0
O164 O 0.58955 0.12573 0.11527 0.0
O165 O 0.5236 0.08399 0.09462 0.0
O166 O 0.67754 0.0824 0.12657 0.0
O167 O 0.68164 0.13645 0.09462 0.0
O168 O 0.58842 1.05486 0.14596 0.0
O169 O 0.57534 1.02624 0.08627 0.0
O170 O 0.58079 1.01384 1.01221 0.0
O171 O 0.6464 1.05538 1.03387 0.0
O172 O 0.49084 1.05833 1.00415 0.0
O173 O 0.48993 1.00216 1.02928 0.0
O174 O 0.58165 0.08527 0.9815 0.0
O175 O 0.59435 0.11384 1.04116 0.0
H176 H 0.66182 0.1683 0.16598 0.0
H177 H 0.68074 0.19851 0.23723 0.0
H178 H 0.78487 0.14881 0.24269 0.0
H179 H 0.76662 0.11991 0.17086 0.0
H180 H 0.40288 0.95545 0.98833 0.0
H181 H 0.37857 0.92214 0.91916 0.0
H182 H 0.48319 1.00849 0.85757 0.0
H183 H 0.50818 1.04029 0.92669 0.0
Ho184 Ho 0.57913 0.53977 0.53922 0.0
Ho185 Ho 0.58762 0.61333 0.59039 0.0
C186 C 0.61771 0.54702 0.63669 0.0
C187 C 0.5932 0.48088 0.49841 0.0
C188 C 0.60333 0.44503 0.50955 0.0
C189 C 0.63341 0.4461 0.54159 0.0
C190 C 0.64408 0.41218 0.55027 0.0
C191 C 0.62465 0.37643 0.52731 0.0
C192 C 0.59368 0.37531 0.49604 0.0
C193 C 0.58324 0.40934 0.48719 0.0
C194 C 0.50903 0.53727 0.58697 0.0
C195 C 0.54785 0.6049 0.49313 0.0
C196 C 0.57416 0.67194 0.63253 0.0
C197 C 0.55829 0.7048 0.62274 0.0
C198 C 0.55785 0.71699 0.58073 0.0
C199 C 0.53928 0.74611 0.57152 0.0
C200 C 0.52082 0.76339 0.6042 0.0
C201 C 0.52227 0.75156 0.64637 0.0
C202 C 0.54082 0.72248 0.6555 0.0
C203 C 0.65938 0.61485 0.54671 0.0
O204 O 0.61326 0.52848 0.59871 0.0
O205 O 0.60623 0.57933 0.64234 0.0
O206 O 0.55477 0.48177 0.50813 0.0
O207 O 0.62293 0.51464 0.50664 0.0
O208 O 0.50711 0.52095 0.54907 0.0
O209 O 0.54774 0.55222 0.59773 0.0
O210 O 0.55183 0.62334 0.53117 0.0
O211 O 0.56043 0.5733 0.48738 0.0
O212 O 0.61141 0.67314 0.61666 0.0
O213 O 0.54581 0.63685 0.62863 0.0
O214 O 0.65902 0.62898 0.58536 0.0
O215 O 0.62129 0.60126 0.53264 0.0
H216 H 0.64929 0.47327 0.55944 0.0
H217 H 0.66846 0.41434 0.57416 0.0
H218 H 0.57758 0.34816 0.47826 0.0
H219 H 0.55974 0.40788 0.46255 0.0
H220 H 0.57122 0.70358 0.55501 0.0
H221 H 0.53909 0.75486 0.53879 0.0
H222 H 0.50777 0.76381 0.67216 0.0
H223 H 0.54062 0.71312 0.68804 0.0
Ho224 Ho 0.07142 0.52942 0.10305 0.0
Ho225 Ho 0.0754 0.59488 1.04699 0.0
C226 C 0.15946 0.60419 0.10105 0.0
C227 C 0.08921 0.47464 0.14338 0.0
C228 C 0.1303 0.46946 0.15494 0.0
C229 C 0.16628 0.48288 0.12847 0.0
C230 C 0.2056 0.479 0.14048 0.0
C231 C 0.20961 0.46184 0.17925 0.0
C232 C 0.17356 0.44884 0.20582 0.0
C233 C 0.13427 0.45266 0.19374 0.0
C234 C 0.03668 0.583 0.13908 0.0
C235 C 0.98776 0.51819 1.04874 0.0
C236 C 0.05846 0.65202 1.00951 0.0
C237 C 1.01838 0.65922 0.99764 0.0
C238 C 0.97919 0.6366 1.01479 0.0
C239 C 0.94141 0.64462 1.00521 0.0
C240 C 0.94209 0.67594 0.97884 0.0
C241 C 0.98144 0.69819 0.96117 0.0
C242 C 1.01924 0.68979 0.97044 0.0
C243 C 0.11051 0.54174 1.01045 0.0
O244 O 0.14179 0.56594 0.10679 0.0
O245 O 0.1382 0.62423 0.08097 0.0
O246 O 0.08091 0.50441 0.16269 0.0
O247 O 0.08003 0.47182 0.10265 0.0
O248 O 0.0213 0.54509 0.14332 0.0
O249 O 0.07041 0.59044 0.11684 0.0
O250 O 1.00604 0.55553 1.03885 0.0
O251 O 1.00794 0.49953 0.07212 0.0
O252 O 0.06711 0.62307 0.98881 0.0
O253 O 0.06523 0.65184 1.05046 0.0
O254 O 0.1254 0.57982 1.0066 0.0
O255 O 0.07674 0.53373 1.03284 0.0
H256 H 0.16404 0.49642 0.09853 0.0
H257 H 0.23285 0.48944 0.1195 0.0
H258 H 0.17544 0.43482 0.23552 0.0
H259 H 0.10693 0.44241 0.21466 0.0
H260 H 0.97781 0.61324 1.03634 0.0
H261 H 0.9117 0.62646 1.01886 0.0
H262 H 0.98331 0.72286 0.94123 0.0
H263 H 0.04926 0.70771 0.95712 0.0
H264 H 0.30694 0.30887 0.33272 0.0
H265 H 0.30496 0.20576 0.25555 0.0
H266 H 0.24427 0.16549 0.29645 0.0
H267 H 0.18842 0.16089 0.35046 0.0
H268 H 0.19007 0.26477 0.42632 0.0
H269 H 0.25327 0.3038 0.38832 0.0
C270 C 0.29325 0.27755 0.32488 0.0
C271 C 0.31019 0.2604 0.29096 0.0
C272 C 0.25774 0.25494 0.34761 0.0
C273 C 0.29275 0.21963 0.28175 0.0
C274 C 0.25774 0.1967 0.30479 0.0
C275 C 0.20283 0.19199 0.35893 0.0
C276 C 0.1842 0.20995 0.39087 0.0
C277 C 0.23946 0.21424 0.33722 0.0
C278 C 0.2031 0.25038 0.4012 0.0
C279 C 0.23953 0.27265 0.37982 0.0
H280 H 0.39013 0.91408 0.68839 0.0
H281 H 0.26048 0.89443 0.73197 0.0
H282 H 0.28599 0.90848 0.80557 0.0
H283 H 0.34566 0.93362 0.85607 0.0
H284 H 0.47526 0.95134 0.81314 0.0
H285 H 0.44906 0.93059 0.74069 0.0
C286 C 0.36732 0.91188 0.71408 0.0
C287 C 0.32355 0.90388 0.70461 0.0
C288 C 0.38222 0.92021 0.75634 0.0
C289 C 0.29447 0.90138 0.73831 0.0
C290 C 0.30901 0.90934 0.78041 0.0
C291 C 0.36819 0.93204 0.83121 0.0
C292 C 0.41247 0.9447 0.84006 0.0
C293 C 0.35294 0.91995 0.78963 0.0
C294 C 0.44109 0.94276 0.8071 0.0
C295 C 0.42613 0.93067 0.76566 0.0
H296 H 0.66725 0.4982 0.81793 0.0
H297 H 0.65954 0.39001 0.74827 0.0
H298 H 0.64526 0.41872 0.68195 0.0
H299 H 0.63086 0.47402 0.64422 0.0
H300 H 0.63728 0.58115 0.71629 0.0
H301 H 0.65617 0.55364 0.78039 0.0
C302 C 0.66329 0.48108 0.78811 0.0
C303 C 0.66556 0.44216 0.78822 0.0
C304 C 0.65436 0.49763 0.75025 0.0
C305 C 0.65903 0.42025 0.74921 0.0
C306 C 0.65051 0.43665 0.71126 0.0
C307 C 0.6368 0.49155 0.67381 0.0
C308 C 0.63237 0.5299 0.67487 0.0
C309 C 0.64753 0.47525 0.71137 0.0
C310 C 0.64011 0.5517 0.71396 0.0
C311 C 0.651 0.53593 0.75094 0.0
H312 H 1.01119 0.72924 0.24608 0.0
H313 H 0.92399 0.63547 0.31555 0.0
H314 H 0.94139 0.58619 0.26858 0.0
H315 H 0.98016 0.56955 0.20615 0.0
H316 H 0.06851 0.66363 0.13781 0.0
H317 H 0.05172 0.71264 0.18528 0.0
C318 C 0.9964 0.69801 0.25131 0.0
C319 C 0.96655 0.68616 0.2848 0.0
C320 C 1.00642 0.66977 0.22384 0.0
C321 C 0.94739 0.64547 0.29053 0.0
C322 C 0.95716 0.61727 0.26341 0.0
C323 C 0.99569 0.60078 0.20155 0.0
C324 C 0.02538 0.61271 0.16792 0.0
C325 C 0.98635 0.629 0.22965 0.0
C326 C 0.04534 0.65342 0.16295 0.0
C327 C 0.03585 0.68155 0.19032 0.0
H328 H 0.43657 0.21329 0.20163 0.0
H329 H 0.56081 0.30216 0.20905 0.0
H330 H 0.59422 0.25451 0.17973 0.0
H331 H 0.58747 0.18921 0.14848 0.0
H332 H 0.46286 0.10092 0.13701 0.0
H333 H 0.43001 0.14692 0.1714 0.0
C334 C 0.47093 0.22219 0.19654 0.0
C335 C 0.49618 0.26138 0.2063 0.0
C336 C 0.48969 0.19488 0.17897 0.0
C337 C 0.54075 0.27236 0.20085 0.0
C338 C 0.55979 0.24515 0.18419 0.0
C339 C 0.55314 0.17976 0.15381 0.0
C340 C 0.52761 0.14166 0.14016 0.0
C341 C 0.53448 0.20655 0.1726 0.0
C342 C 0.48318 0.13011 0.14712 0.0
C343 C 0.46441 0.1564 0.16672 0.0
H344 H 0.26672 0.99544 0.64468 0.0
H345 H 0.2092 0.9113 0.54243 0.0
H346 H 0.16435 0.9511 0.52327 0.0
H347 H 0.14029 1.00889 0.53631 0.0
H348 H 0.19136 0.08886 0.64321 0.0
H349 H 0.23934 1.05085 0.66064 0.0
C350 C 0.24389 0.98524 0.61868 0.0
C351 C 0.24168 0.95029 0.59501 0.0
C352 C 0.21703 1.00751 0.60873 0.0
C353 C 0.21244 0.93838 0.56075 0.0
C354 C 0.18644 0.96096 0.54994 0.0
C355 C 0.16222 1.01812 0.56322 0.0
C356 C 0.16306 1.05182 0.58815 0.0
C357 C 0.18852 0.99554 0.57368 0.0
C358 C 0.19067 0.06311 0.6235 0.0
C359 C 0.21794 1.0414 0.63341 0.0
H360 H 0.80039 0.40704 1.00251 0.0
H361 H 0.83573 0.45927 0.87974 0.0
H362 H 0.90296 0.50183 0.90984 0.0
H363 H 0.95445 0.52255 0.97011 0.0
H364 H 0.92351 0.46358 0.08926 0.0
H365 H 0.85285 0.42491 0.06114 0.0
C366 C 0.82277 0.42704 0.98172 0.0
C367 C 0.81177 0.42936 0.93845 0.0
C368 C 0.86282 0.45042 0.9987 0.0
C369 C 0.84178 0.45684 0.91324 0.0
C370 C 0.88089 0.48116 0.93036 0.0
C371 C 0.93204 0.50144 0.98998 0.0
C372 C 0.94414 0.49622 1.03191 0.0
C373 C 0.89197 0.47808 0.97297 0.0
C374 C 0.91503 0.46823 0.05696 0.0
C375 C 0.87458 0.44608 1.04085 0.0
H376 H 0.80705 0.67836 0.41064 0.0
H377 H 0.88085 0.71457 0.52676 0.0
H378 H 0.81812 0.68165 0.56897 0.0
H379 H 0.74125 0.64702 0.57378 0.0
H380 H 0.66546 0.6108 0.45905 0.0
H381 H 0.72966 0.63861 0.41559 0.0
C382 C 0.80943 0.67846 0.44512 0.0
C383 C 0.84862 0.69938 0.46548 0.0
C384 C 0.77272 0.65964 0.46955 0.0
C385 C 0.85106 0.69926 0.51027 0.0
C386 C 0.81516 0.68038 0.53449 0.0
C387 C 0.73878 0.64484 0.53923 0.0
C388 C 0.69851 0.62712 0.51975 0.0
C389 C 0.77565 0.66123 0.5146 0.0
C390 C 0.69602 0.62432 0.47492 0.0
C391 C 0.73276 0.64039 0.45006 0.0
H392 H 0.34882 0.40439 0.26543 0.0
H393 H 0.3565 0.35978 0.13717 0.0
H394 H 0.31339 0.39909 0.11102 0.0
H395 H 0.26063 0.43333 0.12771 0.0
H396 H 0.24927 0.47408 0.2571 0.0
H397 H 0.30646 0.44895 0.27991 0.0
C398 C 0.3422 0.40444 0.23155 0.0
C399 C 0.35506 0.3789 0.20331 0.0
C400 C 0.31568 0.42546 0.21723 0.0
C401 C 0.34688 0.37928 0.15945 0.0
C402 C 0.32169 0.40129 0.14463 0.0
C403 C 0.2716 0.43782 0.16062 0.0
C404 C 0.25013 0.45468 0.1909 0.0
C405 C 0.30387 0.42256 0.17365 0.0
C406 C 0.26463 0.46026 0.23345 0.0
C407 C 0.29739 0.44603 0.24647 0.0
H408 H 0.67655 0.26441 0.88204 0.0
H409 H 0.69672 0.32734 1.00395 0.0
H410 H 0.66714 0.26529 1.04042 0.0
H411 H 0.6359 0.19233 1.03845 0.0
H412 H 0.6163 0.12902 0.9168 0.0
H413 H 0.6451 0.19117 0.8801 0.0
C414 C 0.67408 0.26458 0.91654 0.0
C415 C 0.68911 0.3009 0.94 0.0
C416 C 0.65731 0.22834 0.93768 0.0
C417 C 0.68589 0.3001 0.98486 0.0
C418 C 0.66889 0.26448 1.00588 0.0
C419 C 0.63811 0.1921 1.00392 0.0
C420 C 0.62386 0.15571 0.9806 0.0
C421 C 0.65475 0.22827 0.98276 0.0
C422 C 0.62697 0.15633 0.93577 0.0
C423 C 0.64339 0.19203 0.91463 0.0
H424 H 0.96193 0.81145 0.52005 0.0
H425 H 0.97279 0.85655 0.39329 0.0
H426 H 0.99902 0.92442 0.42323 0.0
H427 H 1.01642 0.97142 0.48613 0.0
H428 H 1.00802 0.92519 0.6124 0.0
H429 H 0.98298 0.8578 0.58212 0.0
C430 C 0.97015 0.83611 0.49888 0.0
C431 C 0.96502 0.82865 0.45431 0.0
C432 C 0.98531 0.8751 0.51639 0.0
C433 C 0.97658 0.86116 0.42755 0.0
C434 C 0.99128 0.90008 0.44477 0.0
C435 C 1.00895 0.94659 0.50704 0.0
C436 C 1.01372 0.95368 0.55173 0.0
C437 C 0.99529 0.90751 0.48922 0.0
C438 C 1.0046 0.92094 0.57807 0.0
C439 C 0.99025 0.88223 0.56071 0.0
H440 H 0.42666 0.89253 0.59425 0.0
H441 H 0.37148 0.82163 0.4824 0.0
H442 H 0.41573 0.77884 0.49364 0.0
H443 H 0.46738 0.75999 0.53729 0.0
H444 H 0.5229 0.83109 0.64927 0.0
H445 H 0.48114 0.87543 0.63613 0.0
C446 C 0.42495 0.86802 0.57209 0.0
C447 C 0.39667 0.86048 0.53714 0.0
C448 C 0.45021 0.84352 0.57897 0.0
C449 C 0.3937 0.8282 0.50908 0.0
C450 C 0.41882 0.80374 0.5156 0.0
C451 C 0.47099 0.78559 0.55839 0.0
C452 C 0.49815 0.79213 0.59427 0.0
C453 C 0.44694 0.81096 0.55063 0.0
C454 C 0.50179 0.82508 0.62173 0.0
C455 C 0.47806 0.85054 0.61416 0.0
H456 H 0.8521 0.82515 0.88719 0.0
H457 H 0.89901 0.92318 0.97733 0.0
H458 H 0.96542 0.94757 0.9369 0.0
H459 H 1.00436 0.94658 0.87079 0.0
H460 H 0.95585 0.85164 0.77713 0.0
H461 H 0.89582 0.82019 0.82403 0.0
C462 C 0.87747 0.85126 0.89834 0.0
C463 C 0.87101 0.87258 0.93485 0.0
C464 C 0.91482 0.86587 0.87402 0.0
C465 C 0.90358 0.90656 0.94911 0.0
C466 C 0.94134 0.92053 0.92596 0.0
C467 C 0.98147 0.91835 0.86114 0.0
C468 C 0.98447 0.90151 0.82051 0.0
C469 C 0.94657 0.90123 0.88759 0.0
C470 C 0.95399 0.86532 0.80816 0.0
C471 C 0.91967 0.8474 0.83491 0.0
H472 H 0.73475 0.19849 0.44569 0.0
H473 H 0.87115 0.2292 0.42587 0.0
H474 H 0.86006 0.22585 0.34857 0.0
H475 H 0.81107 0.20756 0.28695 0.0
H476 H 0.67441 0.17314 0.30759 0.0
H477 H 0.68624 0.18593 0.38405 0.0
C478 C 0.76211 0.2054 0.42447 0.0
C479 C 0.80366 0.21375 0.44139 0.0
C480 C 0.75543 0.20262 0.38016 0.0
C481 C 0.8388 0.2222 0.41351 0.0
C482 C 0.83248 0.22029 0.36936 0.0
C483 C 0.78388 0.20302 0.30816 0.0
C484 C 0.74193 0.18907 0.29145 0.0
C485 C 0.79083 0.20932 0.35234 0.0
C486 C 0.70708 0.18419 0.31935 0.0
C487 C 0.71378 0.19114 0.36323 0.0
H488 H 0.48458 0.64233 0.31255 0.0
H489 H 0.49063 0.75243 0.37712 0.0
H490 H 0.51084 0.72838 0.44394 0.0
H491 H 0.5306 0.67637 0.4835 0.0
H492 H 0.52575 0.56755 0.4156 0.0
H493 H 0.50139 0.5906 0.35158 0.0
C494 C 0.48943 0.66086 0.34143 0.0
C495 C 0.48477 0.69885 0.33973 0.0
C496 C 0.50187 0.64706 0.37947 0.0
C497 C 0.49275 0.72274 0.37743 0.0
C498 C 0.5047 0.70902 0.41568 0.0
C499 C 0.52394 0.65756 0.45483 0.0
C500 C 0.53048 0.62003 0.45502 0.0
C501 C 0.50991 0.67127 0.4171 0.0
C502 C 0.52155 0.59649 0.41705 0.0
C503 C 0.50744 0.60967 0.38007 0.0
H504 H 0.14587 0.40375 0.89429 0.0
H505 H 0.18344 0.49926 0.80654 0.0
H506 H 0.16687 0.5435 0.85923 0.0
H507 H 0.14351 0.55695 0.93078 0.0
H508 H 0.09892 0.46214 1.01793 0.0
H509 H 0.11607 0.41639 0.96556 0.0
C510 C 0.15003 0.43409 0.88651 0.0
C511 C 0.16744 0.44797 0.84634 0.0
C512 C 0.13936 0.45994 0.91722 0.0
C513 C 0.17187 0.48758 0.8373 0.0
C514 C 0.16204 0.51314 0.86749 0.0
C515 C 0.13759 0.52629 0.9385 0.0
C516 C 0.12043 0.5133 0.9787 0.0
C517 C 0.14641 0.49996 0.90775 0.0
C518 C 0.11231 0.47316 0.98749 0.0
C519 C 0.12211 0.44693 0.95738 0.0
H520 H 0.68193 0.87729 0.95748 0.0
H521 H 0.80382 0.9591 0.99811 0.0
H522 H 0.77138 1.0114 1.00825 0.0
H523 H 0.70786 1.03264 1.01112 0.0
H524 H 0.58478 0.95099 0.97357 0.0
H525 H 0.61834 0.90022 0.95608 0.0
C526 C 0.70129 0.90659 0.96851 0.0
C527 C 0.7452 0.91424 0.97702 0.0
C528 C 0.6823 0.93663 0.97473 0.0
C529 C 0.77005 0.9525 0.99082 0.0
C530 C 0.75151 0.98243 0.99684 0.0
C531 C 0.68835 1.00397 0.99849 0.0
C532 C 0.64382 0.99561 0.99403 0.0
C533 C 0.7076 0.97469 0.98949 0.0
C534 C 0.61917 0.95828 0.9774 0.0
C535 C 0.63828 0.92909 0.96768 0.0
H536 H 0.88229 0.18291 0.61762 0.0
H537 H 0.84989 0.11388 0.49947 0.0
H538 H 0.89586 0.07533 0.51904 0.0
H539 H 0.94625 0.06163 0.56925 0.0
H540 H 0.97365 0.12668 0.68979 0.0
H541 H 0.92756 0.16556 0.67024 0.0
C542 C 0.8845 0.15899 0.59639 0.0
C543 C 0.86292 0.1519 0.5568 0.0
C544 C 0.90994 0.13598 0.60838 0.0
C545 C 0.86696 0.12099 0.5296 0.0
C546 C 0.89294 0.09854 0.54093 0.0
C547 C 0.9417 0.08408 0.59131 0.0
C548 C 0.96312 0.09139 0.6308 0.0
C549 C 0.91479 0.10594 0.5801 0.0
C550 C 0.95713 0.12043 0.65928 0.0
C551 C 0.931 0.14277 0.64804 0.0
H552 H 0.34329 0.66389 0.19128 0.0
H553 H 0.32237 0.77654 0.17831 0.0
H554 H 0.25398 0.74415 0.1429 0.0
H555 H 0.19906 0.68383 0.11535 0.0
H556 H 0.21811 0.57071 0.13022 0.0
H557 H 0.28732 0.60302 0.16472 0.0
C558 C 0.32364 0.68135 0.18106 0.0
C559 C 0.33877 0.7229 0.18725 0.0
C560 C 0.28368 0.66237 0.16062 0.0
C561 C 0.31247 0.74473 0.1734 0.0
C562 C 0.27301 0.72617 0.15318 0.0
C563 C 0.21847 0.66621 0.12575 0.0
C564 C 0.2031 0.62473 0.11971 0.0
C565 C 0.2583 0.68503 0.14631 0.0
C566 C 0.2288 0.6026 0.13416 0.0
C567 C 0.26855 0.62112 0.15409 0.0
H568 H 0.38679 0.50206 0.74715 0.0
H569 H 0.30237 0.42154 0.65646 0.0
H570 H 0.35486 0.44524 0.59955 0.0
H571 H 0.42705 0.4864 0.57656 0.0
H572 H 0.51175 0.56492 0.66892 0.0
H573 H 0.45701 0.54494 0.72379 0.0
C574 C 0.37962 0.49014 0.71478 0.0
C575 C 0.34044 0.46046 0.70591 0.0
C576 C 0.41022 0.50352 0.68246 0.0
C577 C 0.332 0.44481 0.66393 0.0
C578 C 0.36212 0.45824 0.63146 0.0
C579 C 0.43326 0.49944 0.60857 0.0
C580 C 0.47354 0.52721 0.61851 0.0
C581 C 0.40165 0.48726 0.64043 0.0
C582 C 0.4811 0.54363 0.66027 0.0
C583 C 0.44981 0.53209 0.6918 0.0
H584 H 0.78889 0.73655 0.92469 0.0
H585 H 0.75359 0.71071 0.05555 0.0
H586 H 0.81385 0.68505 0.06423 0.0
H587 H 0.87953 0.67528 1.03634 0.0
H588 H 0.91532 0.70087 0.90521 0.0
H589 H 0.85231 0.72212 0.89508 0.0
C590 C 0.79396 0.72441 0.95473 0.0
C591 C 0.76675 0.72496 0.98934 0.0
C592 C 0.82913 0.71048 0.95964 0.0
C593 C 0.77395 0.71 1.02842 0.0
C594 C 0.80852 0.69568 1.03344 0.0
C595 C 0.87318 0.68464 1.00521 0.0
C596 C 0.90233 0.68651 0.97164 0.0
C597 C 0.83675 0.69647 0.9995 0.0
C598 C 0.89387 0.69968 0.93184 0.0
C599 C 0.85766 0.71157 0.92591 0.0
H600 H 0.48302 0.87722 0.24475 0.0
H601 H 0.46698 0.81366 0.12336 0.0
H602 H 0.5009 0.87518 0.08717 0.0
H603 H 0.53395 0.94794 0.08914 0.0
H604 H 0.5497 1.01192 0.21026 0.0
H605 H 0.51729 0.95018 0.24683 0.0
C606 C 0.48748 0.87679 0.21047 0.0
C607 C 0.47228 0.84051 0.187 0.0
C608 C 0.5067 0.91273 0.18949 0.0
C609 C 0.47802 0.84092 0.14239 0.0
C610 C 0.49743 0.87623 0.12155 0.0
C611 C 0.53016 0.9484 0.12352 0.0
C612 C 0.54429 0.98484 0.14675 0.0
C613 C 0.51152 0.91248 0.14459 0.0
C614 C 0.53917 0.98455 0.19139 0.0
C615 C 0.52066 0.94909 0.21245 0.0
H616 H 0.14456 0.33336 0.69085 0.0
H617 H 0.15675 0.29597 0.81794 0.0
H618 H 0.13208 0.22648 0.79228 0.0
H619 H 0.11108 0.17615 0.73193 0.0
H620 H 0.09689 0.21542 0.6058 0.0
H621 H 0.11848 0.28377 0.63262 0.0
C622 C 0.14117 0.30996 0.71312 0.0
C623 C 0.15248 0.32002 0.75637 0.0
C624 C 0.12718 0.27017 0.69803 0.0
C625 C 0.14784 0.28921 0.78468 0.0
C626 C 0.13415 0.24943 0.76983 0.0
C627 C 0.11273 0.19969 0.71036 0.0
C628 C 0.10267 0.19031 0.66661 0.0
C629 C 0.12449 0.23948 0.72631 0.0
C630 C 0.1044 0.22139 0.63946 0.0
C631 C 0.11679 0.26069 0.6548 0.0
H632 H 0.69173 0.22861 0.52683 0.0
H633 H 0.70516 0.25964 0.66119 0.0
H634 H 0.67271 0.3119 0.65105 0.0
H635 H 0.64404 0.35071 0.60327 0.0
H636 H 0.636 0.32267 0.46781 0.0
H637 H 0.66212 0.26691 0.47911 0.0
C638 C 0.68707 0.24664 0.55384 0.0
C639 C 0.70019 0.24019 0.59471 0.0
C640 C 0.66945 0.27713 0.54754 0.0
C641 C 0.69462 0.26386 0.62955 0.0
C642 C 0.67632 0.29379 0.6237 0.0
C643 C 0.64815 0.33254 0.57616 0.0
C644 C 0.63808 0.34104 0.53475 0.0
C645 C 0.66422 0.30107 0.58272 0.0
C646 C 0.64286 0.3166 0.50013 0.0
C647 C 0.65815 0.28484 0.50649 0.0
loop_
_geom_bond_atom_site_label_1
_geom_bond_atom_site_label_2
_geom_bond_distance
_geom_bond_site_symmetry_2
_ccdc_geom_bond_type
H0 C7 0.929 . S
H1 C10 0.930 . S
H2 C12 0.929 . S
H3 C4 0.969 . S
C4 H3 0.969 . S
C4 O5 1.550 . S
C4 H6 0.973 . S
O5 C4 1.550 . S
O5 C11 1.412 . S
H6 C4 0.973 . S
C7 H0 0.929 . S
C7 C8 1.400 . S
C7 C9 1.364 . S
C8 C7 1.400 . S
C8 C12 1.377 . S
C9 C7 1.364 . S
C9 C10 1.374 . S
C10 H1 0.930 . S
C10 C9 1.374 . S
C10 C11 1.383 . S
C11 O5 1.412 . S
C11 C10 1.383 . S
C11 C12 1.394 . S
C12 H2 0.929 . S
C12 C8 1.377 . S
C12 C11 1.394 . S
H13 C20 0.929 . S
H14 C23 0.930 . S
H15 C25 0.929 . S
H16 C17 0.969 . S
C17 H16 0.969 . S
C17 O18 1.550 . S
C17 H19 0.973 . S
O18 C17 1.550 . S
O18 C24 1.412 . S
H19 C17 0.973 . S
C20 H13 0.929 . S
C20 C21 1.400 . S
C20 C22 1.364 . S
C21 C20 1.400 . S
C21 C25 1.377 . S
C22 C20 1.364 . S
C22 C23 1.374 . S
C23 H14 0.930 . S
C23 C22 1.374 . S
C23 C24 1.383 . S
C24 O18 1.412 . S
C24 C23 1.383 . S
C24 C25 1.394 . S
C25 H15 0.929 . S
C25 C21 1.377 . S
C25 C24 1.394 . S
H26 C33 0.929 . S
H27 C36 0.930 . S
H28 C38 0.929 . S
H29 C30 0.969 . S
C30 H29 0.969 . S
C30 O31 1.550 . S
C30 H32 0.973 . S
O31 C30 1.550 . S
O31 C37 1.412 . S
H32 C30 0.973 . S
C33 H26 0.929 . S
C33 C34 1.400 . S
C33 C35 1.364 . S
C34 C33 1.400 . S
C34 C38 1.377 . S
C35 C33 1.364 . S
C35 C36 1.374 . S
C36 H27 0.930 . S
C36 C35 1.374 . S
C36 C37 1.383 . S
C37 O31 1.412 . S
C37 C36 1.383 . S
C37 C38 1.394 . S
C38 H28 0.929 . S
C38 C34 1.377 . S
C38 C37 1.394 . S
H39 C46 0.929 . S
H40 C49 0.930 . S
H41 C51 0.929 . S
H42 C43 0.969 . S
C43 H42 0.969 . S
C43 O44 1.550 . S
C43 H45 0.973 . S
O44 C43 1.550 . S
O44 C50 1.412 . S
H45 C43 0.973 . S
C46 H39 0.929 . S
C46 C47 1.400 . S
C46 C48 1.364 . S
C47 C46 1.400 . S
C47 C51 1.377 . S
C48 C46 1.364 . S
C48 C49 1.374 . S
C49 H40 0.930 . S
C49 C48 1.374 . S
C49 C50 1.383 . S
C50 O44 1.412 . S
C50 C49 1.383 . S
C50 C51 1.394 . S
C51 H41 0.929 . S
C51 C47 1.377 . S
C51 C50 1.394 . S
H52 C59 0.929 . S
H53 C62 0.930 . S
H54 C64 0.929 . S
H55 C56 0.969 . S
C56 H55 0.969 . S
C56 O57 1.550 . S
C56 H58 0.973 . S
O57 C56 1.550 . S
O57 C63 1.412 . S
H58 C56 0.973 . S
C59 H52 0.929 . S
C59 C60 1.400 . S
C59 C61 1.364 . S
C60 C59 1.400 . S
C60 C64 1.377 . S
C61 C59 1.364 . S
C61 C62 1.374 . S
C62 H53 0.930 . S
C62 C61 1.374 . S
C62 C63 1.383 . S
C63 O57 1.412 . S
C63 C62 1.383 . S
C63 C64 1.394 . S
C64 H54 0.929 . S
C64 C60 1.377 . S
C64 C63 1.394 . S
H65 C72 0.929 . S
H66 C75 0.930 . S
H67 C77 0.929 . S
H68 C69 0.969 . S
C69 H68 0.969 . S
C69 O70 1.550 . S
C69 H71 0.973 . S
O70 C69 1.550 . S
O70 C76 1.412 . S
H71 C69 0.973 . S
C72 H65 0.929 . S
C72 C73 1.400 . S
C72 C74 1.364 . S
C73 C72 1.400 . S
C73 C77 1.377 . S
C74 C72 1.364 . S
C74 C75 1.374 . S
C75 H66 0.930 . S
C75 C74 1.374 . S
C75 C76 1.383 . S
C76 O70 1.412 . S
C76 C75 1.383 . S
C76 C77 1.394 . S
C77 H67 0.929 . S
C77 C73 1.377 . S
C77 C76 1.394 . S
H78 C85 0.929 . S
H79 C88 0.930 . S
H80 C90 0.929 . S
H81 C82 0.969 . S
C82 H81 0.969 . S
C82 O83 1.550 . S
C82 H84 0.973 . S
O83 C82 1.550 . S
O83 C89 1.412 . S
H84 C82 0.973 . S
C85 H78 0.929 . S
C85 C86 1.400 . S
C85 C87 1.364 . S
C86 C85 1.400 . S
C86 C90 1.377 . S
C87 C85 1.364 . S
C87 C88 1.374 . S
C88 H79 0.930 . S
C88 C87 1.374 . S
C88 C89 1.383 . S
C89 O83 1.412 . S
C89 C88 1.383 . S
C89 C90 1.394 . S
C90 H80 0.929 . S
C90 C86 1.377 . S
C90 C89 1.394 . S
H91 C98 0.929 . S
H92 C101 0.930 . S
H93 C103 0.929 . S
H94 C95 0.969 . S
C95 H94 0.969 . S
C95 O96 1.550 . S
C95 H97 0.973 . S
O96 C95 1.550 . S
O96 C102 1.412 . S
H97 C95 0.973 . S
C98 H91 0.929 . S
C98 C99 1.400 . S
C98 C100 1.364 . S
C99 C98 1.400 . S
C99 C103 1.377 . S
C100 C98 1.364 . S
C100 C101 1.374 . S
C101 H92 0.930 . S
C101 C100 1.374 . S
C101 C102 1.383 . S
C102 O96 1.412 . S
C102 C101 1.383 . S
C102 C103 1.394 . S
C103 H93 0.929 . S
C103 C99 1.377 . S
C103 C102 1.394 . S
Ho104 C107 2.811 . S
Ho104 O124 2.322 . S
Ho104 O126 2.378 . S
Ho104 O127 2.524 . S
Ho104 O128 2.381 . S
Ho104 O129 2.669 1_545 S
Ho104 O131 2.346 1_545 S
Ho104 O135 2.305 . S
Ho105 C116 2.811 1_545 S
Ho105 O125 2.346 1_655 S
Ho105 O129 2.305 1_645 S
Ho105 O130 2.322 1_545 S
Ho105 O132 2.378 1_545 S
Ho105 O133 2.524 1_545 S
Ho105 O134 2.381 . S
Ho105 O135 2.669 1_655 S
C106 O124 1.259 . S
C106 O125 1.268 . S
C107 Ho104 2.811 . S
C107 C108 1.488 . S
C107 O126 1.215 . S
C107 O127 1.289 . S
C108 C107 1.488 . S
C108 C109 1.348 . S
C108 C113 1.413 . S
C109 C108 1.348 . S
C109 C110 1.442 . S
C109 H136 0.930 . S
C110 C109 1.442 . S
C110 C111 1.381 . S
C110 H137 0.931 . S
C111 C110 1.381 . S
C111 C112 1.321 . S
C112 C111 1.321 . S
C112 C113 1.403 . S
C112 H138 0.934 . S
C113 C108 1.413 . S
C113 C112 1.403 . S
C113 H139 0.930 . S
C114 O128 1.275 1_565 S
C114 O129 1.256 . S
C115 O130 1.259 . S
C115 O131 1.268 1_655 S
C116 Ho105 2.811 1_565 S
C116 C117 1.488 . S
C116 O132 1.215 . S
C116 O133 1.289 . S
C117 C116 1.488 . S
C117 C118 1.348 . S
C117 C122 1.413 . S
C118 C117 1.348 . S
C118 C119 1.442 . S
C118 H140 0.930 . S
C119 C118 1.442 . S
C119 C120 1.381 . S
C119 H141 0.931 . S
C120 C119 1.381 . S
C120 C121 1.321 . S
C121 C120 1.321 . S
C121 C122 1.403 . S
C121 H142 0.934 . S
C122 C117 1.413 . S
C122 C121 1.403 . S
C122 H143 0.930 . S
C123 O134 1.275 . S
C123 O135 1.256 1_655 S
O124 Ho104 2.322 . S
O124 C106 1.259 . S
O125 Ho105 2.346 1_455 S
O125 C106 1.268 . S
O126 Ho104 2.378 . S
O126 C107 1.215 . S
O127 Ho104 2.524 . S
O127 C107 1.289 . S
O128 Ho104 2.381 . S
O128 C114 1.275 1_545 S
O129 Ho104 2.669 1_565 S
O129 Ho105 2.305 1_465 S
O129 C114 1.256 . S
O130 Ho105 2.322 1_565 S
O130 C115 1.259 . S
O131 Ho104 2.346 1_565 S
O131 C115 1.268 1_455 S
O132 Ho105 2.378 1_565 S
O132 C116 1.215 . S
O133 Ho105 2.524 1_565 S
O133 C116 1.289 . S
O134 Ho105 2.381 . S
O134 C123 1.275 . S
O135 Ho104 2.305 . S
O135 Ho105 2.669 1_455 S
O135 C123 1.256 1_455 S
H136 C109 0.930 . S
H137 C110 0.931 . S
H138 C112 0.934 . S
H139 C113 0.930 . S
H140 C118 0.930 . S
H141 C119 0.931 . S
H142 C121 0.934 . S
H143 C122 0.930 . S
Ho144 C147 2.811 . S
Ho144 O164 2.322 . S
Ho144 O166 2.378 . S
Ho144 O167 2.524 . S
Ho144 O168 2.381 1_545 S
Ho144 O169 2.669 1_545 S
Ho144 O171 2.346 1_544 S
Ho144 O175 2.317 . S
Ho145 C156 2.811 1_545 S
Ho145 O165 2.346 1_556 S
Ho145 O169 2.305 1_546 S
Ho145 O170 2.322 1_545 S
Ho145 O172 2.378 1_545 S
Ho145 O173 2.524 1_545 S
Ho145 O174 2.381 . S
Ho145 O175 2.664 1_556 S
C146 O164 1.259 . S
C146 O165 1.268 . S
C147 Ho144 2.811 . S
C147 C148 1.488 . S
C147 O166 1.215 . S
C147 O167 1.289 . S
C148 C147 1.488 . S
C148 C149 1.348 . S
C148 C153 1.413 . S
C149 C148 1.348 . S
C149 C150 1.442 . S
C149 H176 0.930 . S
C150 C149 1.442 . S
C150 C151 1.381 . S
C150 H177 0.931 . S
C151 C150 1.381 . S
C151 C152 1.321 . S
C152 C151 1.321 . S
C152 C153 1.403 . S
C152 H178 0.934 . S
C153 C148 1.413 . S
C153 C152 1.403 . S
C153 H179 0.930 . S
C154 O168 1.275 . S
C154 O169 1.256 . S
C155 O170 1.259 . S
C155 O171 1.268 . S
C156 Ho145 2.811 1_565 S
C156 C157 1.488 . S
C156 O172 1.215 . S
C156 O173 1.289 . S
C157 C156 1.488 . S
C157 C158 1.348 . S
C157 C162 1.413 . S
C158 C157 1.348 . S
C158 C159 1.442 . S
C158 H180 0.930 . S
C159 C158 1.442 . S
C159 C160 1.381 . S
C159 H181 0.931 . S
C160 C159 1.381 . S
C160 C161 1.321 . S
C161 C160 1.321 . S
C161 C162 1.403 . S
C161 H182 0.934 . S
C162 C157 1.413 . S
C162 C161 1.403 . S
C162 H183 0.930 . S
C163 O174 1.275 . S
C163 O175 1.243 1_556 S
O164 Ho144 2.322 . S
O164 C146 1.259 . S
O165 Ho145 2.346 1_554 S
O165 C146 1.268 . S
O166 Ho144 2.378 . S
O166 C147 1.215 . S
O167 Ho144 2.524 . S
O167 C147 1.289 . S
O168 Ho144 2.381 1_565 S
O168 C154 1.275 . S
O169 Ho144 2.669 1_565 S
O169 Ho145 2.305 1_564 S
O169 C154 1.256 . S
O170 Ho145 2.322 1_565 S
O170 C155 1.259 . S
O171 Ho144 2.346 1_566 S
O171 C155 1.268 . S
O172 Ho145 2.378 1_565 S
O172 C156 1.215 . S
O173 Ho145 2.524 1_565 S
O173 C156 1.289 . S
O174 Ho145 2.381 . S
O174 C163 1.275 . S
O175 Ho144 2.317 . S
O175 Ho145 2.664 1_554 S
O175 C163 1.243 1_554 S
H176 C149 0.930 . S
H177 C150 0.931 . S
H178 C152 0.934 . S
H179 C153 0.930 . S
H180 C158 0.930 . S
H181 C159 0.931 . S
H182 C161 0.934 . S
H183 C162 0.930 . S
Ho184 C187 2.811 . S
Ho184 O204 2.322 . S
Ho184 O206 2.378 . S
Ho184 O207 2.524 . S
Ho184 O208 2.381 . S
Ho184 O209 2.669 . S
Ho184 O211 2.346 . S
Ho184 O215 2.305 . S
Ho185 C196 2.811 . S
Ho185 O205 2.346 . S
Ho185 O209 2.305 . S
Ho185 O210 2.322 . S
Ho185 O212 2.378 . S
Ho185 O213 2.524 . S
Ho185 O214 2.381 . S
Ho185 O215 2.669 . S
C186 O204 1.259 . S
C186 O205 1.268 . S
C187 Ho184 2.811 . S
C187 C188 1.488 . S
C187 O206 1.215 . S
C187 O207 1.289 . S
C188 C187 1.488 . S
C188 C189 1.348 . S
C188 C193 1.413 . S
C189 C188 1.348 . S
C189 C190 1.442 . S
C189 H216 0.930 . S
C190 C189 1.442 . S
C190 C191 1.381 . S
C190 H217 0.931 . S
C191 C190 1.381 . S
C191 C192 1.321 . S
C192 C191 1.321 . S
C192 C193 1.403 . S
C192 H218 0.934 . S
C193 C188 1.413 . S
C193 C192 1.403 . S
C193 H219 0.930 . S
C194 O208 1.275 . S
C194 O209 1.256 . S
C195 O210 1.259 . S
C195 O211 1.268 . S
C196 Ho185 2.811 . S
C196 C197 1.488 . S
C196 O212 1.215 . S
C196 O213 1.289 . S
C197 C196 1.488 . S
C197 C198 1.348 . S
C197 C202 1.413 . S
C198 C197 1.348 . S
C198 C199 1.442 . S
C198 H220 0.930 . S
C199 C198 1.442 . S
C199 C200 1.381 . S
C199 H221 0.931 . S
C200 C199 1.381 . S
C200 C201 1.321 . S
C201 C200 1.321 . S
C201 C202 1.403 . S
C201 H222 0.934 . S
C202 C197 1.413 . S
C202 C201 1.403 . S
C202 H223 0.930 . S
C203 O214 1.275 . S
C203 O215 1.256 . S
O204 Ho184 2.322 . S
O204 C186 1.259 . S
O205 Ho185 2.346 . S
O205 C186 1.268 . S
O206 Ho184 2.378 . S
O206 C187 1.215 . S
O207 Ho184 2.524 . S
O207 C187 1.289 . S
O208 Ho184 2.381 . S
O208 C194 1.275 . S
O209 Ho184 2.669 . S
O209 Ho185 2.305 . S
O209 C194 1.256 . S
O210 Ho185 2.322 . S
O210 C195 1.259 . S
O211 Ho184 2.346 . S
O211 C195 1.268 . S
O212 Ho185 2.378 . S
O212 C196 1.215 . S
O213 Ho185 2.524 . S
O213 C196 1.289 . S
O214 Ho185 2.381 . S
O214 C203 1.275 . S
O215 Ho184 2.305 . S
O215 Ho185 2.669 . S
O215 C203 1.256 . S
H216 C189 0.930 . S
H217 C190 0.931 . S
H218 C192 0.934 . S
H219 C193 0.930 . S
H220 C198 0.930 . S
H221 C199 0.931 . S
H222 C201 0.934 . S
H223 C202 0.930 . S
Ho224 C227 2.811 . S
Ho224 O244 2.322 . S
Ho224 O246 2.378 . S
Ho224 O247 2.524 . S
Ho224 O248 2.381 . S
Ho224 O249 2.669 . S
Ho224 O251 2.346 1_455 S
Ho224 O255 2.305 . S
Ho225 C236 2.811 1_454 S
Ho225 O245 2.346 . S
Ho225 O249 2.305 . S
Ho225 O250 2.322 1_454 S
Ho225 O252 2.378 1_554 S
Ho225 O253 2.524 1_455 S
Ho225 O254 2.381 1_554 S
Ho225 O255 2.669 . S
C226 O244 1.259 . S
C226 O245 1.268 . S
C227 Ho224 2.811 . S
C227 C228 1.488 . S
C227 O246 1.215 . S
C227 O247 1.289 . S
C228 C227 1.488 . S
C228 C229 1.348 . S
C228 C233 1.413 . S
C229 C228 1.348 . S
C229 C230 1.442 . S
C229 H256 0.930 . S
C230 C229 1.442 . S
C230 C231 1.381 . S
C230 H257 0.931 . S
C231 C230 1.381 . S
C231 C232 1.321 . S
C232 C231 1.321 . S
C232 C233 1.403 . S
C232 H258 0.934 . S
C233 C228 1.413 . S
C233 C232 1.403 . S
C233 H259 0.930 . S
C234 O248 1.275 . S
C234 O249 1.256 . S
C235 O250 1.259 1_554 S
C235 O251 1.268 . S
C236 Ho225 2.811 1_656 S
C236 C237 1.488 . S
C236 O252 1.215 1_655 S
C236 O253 1.289 1_556 S
C237 C236 1.488 . S
C237 C238 1.348 . S
C237 C242 1.413 . S
C238 C237 1.348 . S
C238 C239 1.442 . S
C238 H260 0.930 1_556 S
C239 C238 1.442 . S
C239 C240 1.381 . S
C239 H261 0.931 . S
C240 C239 1.381 . S
C240 C241 1.321 . S
C241 C240 1.321 . S
C241 C242 1.403 . S
C241 H262 0.934 . S
C242 C237 1.413 . S
C242 C241 1.403 . S
C242 H263 0.930 . S
C243 O254 1.275 . S
C243 O255 1.256 1_556 S
O244 Ho224 2.322 . S
O244 C226 1.259 . S
O245 Ho225 2.346 . S
O245 C226 1.268 . S
O246 Ho224 2.378 . S
O246 C227 1.215 . S
O247 Ho224 2.524 . S
O247 C227 1.289 . S
O248 Ho224 2.381 . S
O248 C234 1.275 . S
O249 Ho224 2.669 . S
O249 Ho225 2.305 . S
O249 C234 1.256 . S
O250 Ho225 2.322 1_656 S
O250 C235 1.259 1_556 S
O251 Ho224 2.346 1_655 S
O251 C235 1.268 . S
O252 Ho225 2.378 1_556 S
O252 C236 1.215 1_455 S
O253 Ho225 2.524 1_655 S
O253 C236 1.289 1_554 S
O254 Ho225 2.381 1_556 S
O254 C243 1.275 . S
O255 Ho224 2.305 . S
O255 Ho225 2.669 . S
O255 C243 1.256 1_554 S
H256 C229 0.930 . S
H257 C230 0.931 . S
H258 C232 0.934 . S
H259 C233 0.930 . S
H260 C238 0.930 1_554 S
H261 C239 0.931 . S
H262 C241 0.934 . S
H263 C242 0.930 . S
H264 C270 0.930 . S
H265 C273 0.930 . S
H266 C274 0.930 . S
H267 C275 0.930 . S
H268 C278 0.930 . S
H269 C279 0.930 . S
C270 H264 0.930 . S
C270 C271 1.355 . S
C270 C272 1.415 . S
C271 C270 1.355 . S
C271 C273 1.419 . S
C272 C270 1.415 . S
C272 C277 1.425 . S
C272 C279 1.409 . S
C273 H265 0.930 . S
C273 C271 1.419 . S
C273 C274 1.362 . S
C274 H266 0.930 . S
C274 C273 1.362 . S
C274 C277 1.409 . S
C275 H267 0.930 . S
C275 C276 1.355 . S
C275 C277 1.415 . S
C276 C275 1.355 . S
C276 C278 1.419 . S
C277 C272 1.425 . S
C277 C274 1.409 . S
C277 C275 1.415 . S
C278 H268 0.930 . S
C278 C276 1.419 . S
C278 C279 1.362 . S
C279 H269 0.930 . S
C279 C272 1.409 . S
C279 C278 1.362 . S
H280 C286 0.930 . S
H281 C289 0.930 . S
H282 C290 0.930 . S
H283 C291 0.930 . S
H284 C294 0.930 . S
H285 C295 0.930 . S
C286 H280 0.930 . S
C286 C287 1.355 . S
C286 C288 1.415 . S
C287 C286 1.355 . S
C287 C289 1.419 . S
C288 C286 1.415 . S
C288 C293 1.425 . S
C288 C295 1.409 . S
C289 H281 0.930 . S
C289 C287 1.419 . S
C289 C290 1.362 . S
C290 H282 0.930 . S
C290 C289 1.362 . S
C290 C293 1.409 . S
C291 H283 0.930 . S
C291 C292 1.355 . S
C291 C293 1.415 . S
C292 C291 1.355 . S
C292 C294 1.419 . S
C293 C288 1.425 . S
C293 C290 1.409 . S
C293 C291 1.415 . S
C294 H284 0.930 . S
C294 C292 1.419 . S
C294 C295 1.362 . S
C295 H285 0.930 . S
C295 C288 1.409 . S
C295 C294 1.362 . S
H296 C302 0.930 . S
H297 C305 0.930 . S
H298 C306 0.930 . S
H299 C307 0.930 . S
H300 C310 0.930 . S
H301 C311 0.930 . S
C302 H296 0.930 . S
C302 C303 1.355 . S
C302 C304 1.415 . S
C303 C302 1.355 . S
C303 C305 1.419 . S
C304 C302 1.415 . S
C304 C309 1.425 . S
C304 C311 1.409 . S
C305 H297 0.930 . S
C305 C303 1.419 . S
C305 C306 1.362 . S
C306 H298 0.930 . S
C306 C305 1.362 . S
C306 C309 1.409 . S
C307 H299 0.930 . S
C307 C308 1.355 . S
C307 C309 1.415 . S
C308 C307 1.355 . S
C308 C310 1.419 . S
C309 C304 1.425 . S
C309 C306 1.409 . S
C309 C307 1.415 . S
C310 H300 0.930 . S
C310 C308 1.419 . S
C310 C311 1.362 . S
C311 H301 0.930 . S
C311 C304 1.409 . S
C311 C310 1.362 . S
H312 C318 0.930 1_455 S
H313 C321 0.930 . S
H314 C322 0.930 . S
H315 C323 0.930 . S
H316 C326 0.930 . S
H317 C327 0.930 . S
C318 H312 0.930 1_655 S
C318 C319 1.355 . S
C318 C320 1.415 . S
C319 C318 1.355 . S
C319 C321 1.419 . S
C320 C318 1.415 . S
C320 C325 1.425 . S
C320 C327 1.409 1_655 S
C321 H313 0.930 . S
C321 C319 1.419 . S
C321 C322 1.362 . S
C322 H314 0.930 . S
C322 C321 1.362 . S
C322 C325 1.409 . S
C323 H315 0.930 . S
C323 C324 1.355 . S
C323 C325 1.415 . S
C324 C323 1.355 . S
C324 C326 1.419 1_655 S
C325 C320 1.425 . S
C325 C322 1.409 . S
C325 C323 1.415 . S
C326 H316 0.930 . S
C326 C324 1.419 1_455 S
C326 C327 1.362 . S
C327 H317 0.930 . S
C327 C320 1.409 1_455 S
C327 C326 1.362 . S
H328 C334 0.930 . S
H329 C337 0.930 . S
H330 C338 0.930 . S
H331 C339 0.930 . S
H332 C342 0.930 . S
H333 C343 0.930 . S
C334 H328 0.930 . S
C334 C335 1.355 . S
C334 C336 1.415 . S
C335 C334 1.355 . S
C335 C337 1.419 . S
C336 C334 1.415 . S
C336 C341 1.425 . S
C336 C343 1.409 . S
C337 H329 0.930 . S
C337 C335 1.419 . S
C337 C338 1.362 . S
C338 H330 0.930 . S
C338 C337 1.362 . S
C338 C341 1.409 . S
C339 H331 0.930 . S
C339 C340 1.355 . S
C339 C341 1.415 . S
C340 C339 1.355 . S
C340 C342 1.419 . S
C341 C336 1.425 . S
C341 C338 1.409 . S
C341 C339 1.415 . S
C342 H332 0.930 . S
C342 C340 1.419 . S
C342 C343 1.362 . S
C343 H333 0.930 . S
C343 C336 1.409 . S
C343 C342 1.362 . S
H344 C350 0.930 . S
H345 C353 0.930 . S
H346 C354 0.930 . S
H347 C355 0.930 . S
H348 C358 0.930 1_545 S
H349 C359 0.930 . S
C350 H344 0.930 . S
C350 C351 1.355 . S
C350 C352 1.415 . S
C351 C350 1.355 . S
C351 C353 1.419 . S
C352 C350 1.415 . S
C352 C357 1.425 . S
C352 C359 1.409 . S
C353 H345 0.930 . S
C353 C351 1.419 . S
C353 C354 1.362 . S
C354 H346 0.930 . S
C354 C353 1.362 . S
C354 C357 1.409 . S
C355 H347 0.930 . S
C355 C356 1.355 . S
C355 C357 1.415 . S
C356 C355 1.355 . S
C356 C358 1.419 . S
C357 C352 1.425 . S
C357 C354 1.409 . S
C357 C355 1.415 . S
C358 H348 0.930 1_565 S
C358 C356 1.419 . S
C358 C359 1.362 . S
C359 H349 0.930 . S
C359 C352 1.409 . S
C359 C358 1.362 . S
H360 C366 0.930 . S
H361 C369 0.930 . S
H362 C370 0.930 . S
H363 C371 0.930 . S
H364 C374 0.930 . S
H365 C375 0.930 1_554 S
C366 H360 0.930 . S
C366 C367 1.355 . S
C366 C368 1.415 . S
C367 C366 1.355 . S
C367 C369 1.419 . S
C368 C366 1.415 . S
C368 C373 1.425 . S
C368 C375 1.409 . S
C369 H361 0.930 . S
C369 C367 1.419 . S
C369 C370 1.362 . S
C370 H362 0.930 . S
C370 C369 1.362 . S
C370 C373 1.409 . S
C371 H363 0.930 . S
C371 C372 1.355 . S
C371 C373 1.415 . S
C372 C371 1.355 . S
C372 C374 1.419 1_556 S
C373 C368 1.425 . S
C373 C370 1.409 . S
C373 C371 1.415 . S
C374 H364 0.930 . S
C374 C372 1.419 1_554 S
C374 C375 1.362 1_554 S
C375 H365 0.930 1_556 S
C375 C368 1.409 . S
C375 C374 1.362 1_556 S
H376 C382 0.930 . S
H377 C385 0.930 . S
H378 C386 0.930 . S
H379 C387 0.930 . S
H380 C390 0.930 . S
H381 C391 0.930 . S
C382 H376 0.930 . S
C382 C383 1.355 . S
C382 C384 1.415 . S
C383 C382 1.355 . S
C383 C385 1.419 . S
C384 C382 1.415 . S
C384 C389 1.425 . S
C384 C391 1.409 . S
C385 H377 0.930 . S
C385 C383 1.419 . S
C385 C386 1.362 . S
C386 H378 0.930 . S
C386 C385 1.362 . S
C386 C389 1.409 . S
C387 H379 0.930 . S
C387 C388 1.355 . S
C387 C389 1.415 . S
C388 C387 1.355 . S
C388 C390 1.419 . S
C389 C384 1.425 . S
C389 C386 1.409 . S
C389 C387 1.415 . S
C390 H380 0.930 . S
C390 C388 1.419 . S
C390 C391 1.362 . S
C391 H381 0.930 . S
C391 C384 1.409 . S
C391 C390 1.362 . S
H392 C398 0.930 . S
H393 C401 0.930 . S
H394 C402 0.930 . S
H395 C403 0.930 . S
H396 C406 0.930 . S
H397 C407 0.930 . S
C398 H392 0.930 . S
C398 C399 1.355 . S
C398 C400 1.415 . S
C399 C398 1.355 . S
C399 C401 1.419 . S
C400 C398 1.415 . S
C400 C405 1.425 . S
C400 C407 1.409 . S
C401 H393 0.930 . S
C401 C399 1.419 . S
C401 C402 1.362 . S
C402 H394 0.930 . S
C402 C401 1.362 . S
C402 C405 1.409 . S
C403 H395 0.930 . S
C403 C404 1.355 . S
C403 C405 1.415 . S
C404 C403 1.355 . S
C404 C406 1.419 . S
C405 C400 1.425 . S
C405 C402 1.409 . S
C405 C403 1.415 . S
C406 H396 0.930 . S
C406 C404 1.419 . S
C406 C407 1.362 . S
C407 H397 0.930 . S
C407 C400 1.409 . S
C407 C406 1.362 . S
H408 C414 0.930 . S
H409 C417 0.930 . S
H410 C418 0.930 . S
H411 C419 0.930 . S
H412 C422 0.930 . S
H413 C423 0.930 . S
C414 H408 0.930 . S
C414 C415 1.355 . S
C414 C416 1.415 . S
C415 C414 1.355 . S
C415 C417 1.419 . S
C416 C414 1.415 . S
C416 C421 1.425 . S
C416 C423 1.409 . S
C417 H409 0.930 . S
C417 C415 1.419 . S
C417 C418 1.362 . S
C418 H410 0.930 . S
C418 C417 1.362 . S
C418 C421 1.409 . S
C419 H411 0.930 . S
C419 C420 1.355 . S
C419 C421 1.415 . S
C420 C419 1.355 . S
C420 C422 1.419 . S
C421 C416 1.425 . S
C421 C418 1.409 . S
C421 C419 1.415 . S
C422 H412 0.930 . S
C422 C420 1.419 . S
C422 C423 1.362 . S
C423 H413 0.930 . S
C423 C416 1.409 . S
C423 C422 1.362 . S
H424 C430 0.930 . S
H425 C433 0.930 . S
H426 C434 0.930 1_455 S
H427 C435 0.930 1_455 S
H428 C438 0.930 . S
H429 C439 0.930 . S
C430 H424 0.930 . S
C430 C431 1.355 . S
C430 C432 1.415 . S
C431 C430 1.355 . S
C431 C433 1.419 . S
C432 C430 1.415 . S
C432 C437 1.425 . S
C432 C439 1.409 . S
C433 H425 0.930 . S
C433 C431 1.419 . S
C433 C434 1.362 . S
C434 H426 0.930 1_655 S
C434 C433 1.362 . S
C434 C437 1.409 . S
C435 H427 0.930 1_655 S
C435 C436 1.355 . S
C435 C437 1.415 . S
C436 C435 1.355 . S
C436 C438 1.419 . S
C437 C432 1.425 . S
C437 C434 1.409 . S
C437 C435 1.415 . S
C438 H428 0.930 . S
C438 C436 1.419 . S
C438 C439 1.362 . S
C439 H429 0.930 . S
C439 C432 1.409 . S
C439 C438 1.362 . S
H440 C446 0.930 . S
H441 C449 0.930 . S
H442 C450 0.930 . S
H443 C451 0.930 . S
H444 C454 0.930 . S
H445 C455 0.930 . S
C446 H440 0.930 . S
C446 C447 1.355 . S
C446 C448 1.415 . S
C447 C446 1.355 . S
C447 C449 1.419 . S
C448 C446 1.415 . S
C448 C453 1.425 . S
C448 C455 1.409 . S
C449 H441 0.930 . S
C449 C447 1.419 . S
C449 C450 1.362 . S
C450 H442 0.930 . S
C450 C449 1.362 . S
C450 C453 1.409 . S
C451 H443 0.930 . S
C451 C452 1.355 . S
C451 C453 1.415 . S
C452 C451 1.355 . S
C452 C454 1.419 . S
C453 C448 1.425 . S
C453 C450 1.409 . S
C453 C451 1.415 . S
C454 H444 0.930 . S
C454 C452 1.419 . S
C454 C455 1.362 . S
C455 H445 0.930 . S
C455 C448 1.409 . S
C455 C454 1.362 . S
H456 C462 0.930 . S
H457 C465 0.930 . S
H458 C466 0.930 . S
H459 C467 0.930 . S
H460 C470 0.930 . S
H461 C471 0.930 . S
C462 H456 0.930 . S
C462 C463 1.355 . S
C462 C464 1.415 . S
C463 C462 1.355 . S
C463 C465 1.419 . S
C464 C462 1.415 . S
C464 C469 1.425 . S
C464 C471 1.409 . S
C465 H457 0.930 . S
C465 C463 1.419 . S
C465 C466 1.362 . S
C466 H458 0.930 . S
C466 C465 1.362 . S
C466 C469 1.409 . S
C467 H459 0.930 . S
C467 C468 1.355 . S
C467 C469 1.415 . S
C468 C467 1.355 . S
C468 C470 1.419 . S
C469 C464 1.425 . S
C469 C466 1.409 . S
C469 C467 1.415 . S
C470 H460 0.930 . S
C470 C468 1.419 . S
C470 C471 1.362 . S
C471 H461 0.930 . S
C471 C464 1.409 . S
C471 C470 1.362 . S
H472 C478 0.930 . S
H473 C481 0.930 . S
H474 C482 0.930 . S
H475 C483 0.930 . S
H476 C486 0.930 . S
H477 C487 0.930 . S
C478 H472 0.930 . S
C478 C479 1.355 . S
C478 C480 1.415 . S
C479 C478 1.355 . S
C479 C481 1.419 . S
C480 C478 1.415 . S
C480 C485 1.425 . S
C480 C487 1.409 . S
C481 H473 0.930 . S
C481 C479 1.419 . S
C481 C482 1.362 . S
C482 H474 0.930 . S
C482 C481 1.362 . S
C482 C485 1.409 . S
C483 H475 0.930 . S
C483 C484 1.355 . S
C483 C485 1.415 . S
C484 C483 1.355 . S
C484 C486 1.419 . S
C485 C480 1.425 . S
C485 C482 1.409 . S
C485 C483 1.415 . S
C486 H476 0.930 . S
C486 C484 1.419 . S
C486 C487 1.362 . S
C487 H477 0.930 . S
C487 C480 1.409 . S
C487 C486 1.362 . S
H488 C494 0.930 . S
H489 C497 0.930 . S
H490 C498 0.930 . S
H491 C499 0.930 . S
H492 C502 0.930 . S
H493 C503 0.930 . S
C494 H488 0.930 . S
C494 C495 1.355 . S
C494 C496 1.415 . S
C495 C494 1.355 . S
C495 C497 1.419 . S
C496 C494 1.415 . S
C496 C501 1.425 . S
C496 C503 1.409 . S
C497 H489 0.930 . S
C497 C495 1.419 . S
C497 C498 1.362 . S
C498 H490 0.930 . S
C498 C497 1.362 . S
C498 C501 1.409 . S
C499 H491 0.930 . S
C499 C500 1.355 . S
C499 C501 1.415 . S
C500 C499 1.355 . S
C500 C502 1.419 . S
C501 C496 1.425 . S
C501 C498 1.409 . S
C501 C499 1.415 . S
C502 H492 0.930 . S
C502 C500 1.419 . S
C502 C503 1.362 . S
C503 H493 0.930 . S
C503 C496 1.409 . S
C503 C502 1.362 . S
H504 C510 0.930 . S
H505 C513 0.930 . S
H506 C514 0.930 . S
H507 C515 0.930 . S
H508 C518 0.930 . S
H509 C519 0.930 . S
C510 H504 0.930 . S
C510 C511 1.355 . S
C510 C512 1.415 . S
C511 C510 1.355 . S
C511 C513 1.419 . S
C512 C510 1.415 . S
C512 C517 1.425 . S
C512 C519 1.409 . S
C513 H505 0.930 . S
C513 C511 1.419 . S
C513 C514 1.362 . S
C514 H506 0.930 . S
C514 C513 1.362 . S
C514 C517 1.409 . S
C515 H507 0.930 . S
C515 C516 1.355 . S
C515 C517 1.415 . S
C516 C515 1.355 . S
C516 C518 1.419 . S
C517 C512 1.425 . S
C517 C514 1.409 . S
C517 C515 1.415 . S
C518 H508 0.930 . S
C518 C516 1.419 . S
C518 C519 1.362 . S
C519 H509 0.930 . S
C519 C512 1.409 . S
C519 C518 1.362 . S
H520 C526 0.930 . S
H521 C529 0.930 . S
H522 C530 0.930 . S
H523 C531 0.930 . S
H524 C534 0.930 . S
H525 C535 0.930 . S
C526 H520 0.930 . S
C526 C527 1.355 . S
C526 C528 1.415 . S
C527 C526 1.355 . S
C527 C529 1.419 . S
C528 C526 1.415 . S
C528 C533 1.425 . S
C528 C535 1.409 . S
C529 H521 0.930 . S
C529 C527 1.419 . S
C529 C530 1.362 . S
C530 H522 0.930 . S
C530 C529 1.362 . S
C530 C533 1.409 . S
C531 H523 0.930 . S
C531 C532 1.355 . S
C531 C533 1.415 . S
C532 C531 1.355 . S
C532 C534 1.419 . S
C533 C528 1.425 . S
C533 C530 1.409 . S
C533 C531 1.415 . S
C534 H524 0.930 . S
C534 C532 1.419 . S
C534 C535 1.362 . S
C535 H525 0.930 . S
C535 C528 1.409 . S
C535 C534 1.362 . S
H536 C542 0.930 . S
H537 C545 0.930 . S
H538 C546 0.930 . S
H539 C547 0.930 . S
H540 C550 0.930 1_455 S
H541 C551 0.930 . S
C542 H536 0.930 . S
C542 C543 1.355 . S
C542 C544 1.415 . S
C543 C542 1.355 . S
C543 C545 1.419 . S
C544 C542 1.415 . S
C544 C549 1.425 . S
C544 C551 1.409 . S
C545 H537 0.930 . S
C545 C543 1.419 . S
C545 C546 1.362 . S
C546 H538 0.930 . S
C546 C545 1.362 . S
C546 C549 1.409 . S
C547 H539 0.930 . S
C547 C548 1.355 . S
C547 C549 1.415 . S
C548 C547 1.355 . S
C548 C550 1.419 . S
C549 C544 1.425 . S
C549 C546 1.409 . S
C549 C547 1.415 . S
C550 H540 0.930 1_655 S
C550 C548 1.419 . S
C550 C551 1.362 . S
C551 H541 0.930 . S
C551 C544 1.409 . S
C551 C550 1.362 . S
H552 C558 0.930 . S
H553 C561 0.930 . S
H554 C562 0.930 . S
H555 C563 0.930 . S
H556 C566 0.930 . S
H557 C567 0.930 . S
C558 H552 0.930 . S
C558 C559 1.355 . S
C558 C560 1.415 . S
C559 C558 1.355 . S
C559 C561 1.419 . S
C560 C558 1.415 . S
C560 C565 1.425 . S
C560 C567 1.409 . S
C561 H553 0.930 . S
C561 C559 1.419 . S
C561 C562 1.362 . S
C562 H554 0.930 . S
C562 C561 1.362 . S
C562 C565 1.409 . S
C563 H555 0.930 . S
C563 C564 1.355 . S
C563 C565 1.415 . S
C564 C563 1.355 . S
C564 C566 1.419 . S
C565 C560 1.425 . S
C565 C562 1.409 . S
C565 C563 1.415 . S
C566 H556 0.930 . S
C566 C564 1.419 . S
C566 C567 1.362 . S
C567 H557 0.930 . S
C567 C560 1.409 . S
C567 C566 1.362 . S
H568 C574 0.930 . S
H569 C577 0.930 . S
H570 C578 0.930 . S
H571 C579 0.930 . S
H572 C582 0.930 . S
H573 C583 0.930 . S
C574 H568 0.930 . S
C574 C575 1.355 . S
C574 C576 1.415 . S
C575 C574 1.355 . S
C575 C577 1.419 . S
C576 C574 1.415 . S
C576 C581 1.425 . S
C576 C583 1.409 . S
C577 H569 0.930 . S
C577 C575 1.419 . S
C577 C578 1.362 . S
C578 H570 0.930 . S
C578 C577 1.362 . S
C578 C581 1.409 . S
C579 H571 0.930 . S
C579 C580 1.355 . S
C579 C581 1.415 . S
C580 C579 1.355 . S
C580 C582 1.419 . S
C581 C576 1.425 . S
C581 C578 1.409 . S
C581 C579 1.415 . S
C582 H572 0.930 . S
C582 C580 1.419 . S
C582 C583 1.362 . S
C583 H573 0.930 . S
C583 C576 1.409 . S
C583 C582 1.362 . S
H584 C590 0.930 . S
H585 C593 0.930 . S
H586 C594 0.930 . S
H587 C595 0.930 . S
H588 C598 0.930 . S
H589 C599 0.930 . S
C590 H584 0.930 . S
C590 C591 1.355 . S
C590 C592 1.415 . S
C591 C590 1.355 . S
C591 C593 1.419 . S
C592 C590 1.415 . S
C592 C597 1.425 . S
C592 C599 1.409 . S
C593 H585 0.930 . S
C593 C591 1.419 . S
C593 C594 1.362 . S
C594 H586 0.930 . S
C594 C593 1.362 . S
C594 C597 1.409 . S
C595 H587 0.930 . S
C595 C596 1.355 . S
C595 C597 1.415 . S
C596 C595 1.355 . S
C596 C598 1.419 . S
C597 C592 1.425 . S
C597 C594 1.409 . S
C597 C595 1.415 . S
C598 H588 0.930 . S
C598 C596 1.419 . S
C598 C599 1.362 . S
C599 H589 0.930 . S
C599 C592 1.409 . S
C599 C598 1.362 . S
H600 C606 0.930 . S
H601 C609 0.930 . S
H602 C610 0.930 . S
H603 C611 0.930 . S
H604 C614 0.930 . S
H605 C615 0.930 . S
C606 H600 0.930 . S
C606 C607 1.355 . S
C606 C608 1.415 . S
C607 C606 1.355 . S
C607 C609 1.419 . S
C608 C606 1.415 . S
C608 C613 1.425 . S
C608 C615 1.409 . S
C609 H601 0.930 . S
C609 C607 1.419 . S
C609 C610 1.362 . S
C610 H602 0.930 . S
C610 C609 1.362 . S
C610 C613 1.409 . S
C611 H603 0.930 . S
C611 C612 1.355 . S
C611 C613 1.415 . S
C612 C611 1.355 . S
C612 C614 1.419 . S
C613 C608 1.425 . S
C613 C610 1.409 . S
C613 C611 1.415 . S
C614 H604 0.930 . S
C614 C612 1.419 . S
C614 C615 1.362 . S
C615 H605 0.930 . S
C615 C608 1.409 . S
C615 C614 1.362 . S
H616 C622 0.930 . S
H617 C625 0.930 . S
H618 C626 0.930 . S
H619 C627 0.930 . S
H620 C630 0.930 . S
H621 C631 0.930 . S
C622 H616 0.930 . S
C622 C623 1.355 . S
C622 C624 1.415 . S
C623 C622 1.355 . S
C623 C625 1.419 . S
C624 C622 1.415 . S
C624 C629 1.425 . S
C624 C631 1.409 . S
C625 H617 0.930 . S
C625 C623 1.419 . S
C625 C626 1.362 . S
C626 H618 0.930 . S
C626 C625 1.362 . S
C626 C629 1.409 . S
C627 H619 0.930 . S
C627 C628 1.355 . S
C627 C629 1.415 . S
C628 C627 1.355 . S
C628 C630 1.419 . S
C629 C624 1.425 . S
C629 C626 1.409 . S
C629 C627 1.415 . S
C630 H620 0.930 . S
C630 C628 1.419 . S
C630 C631 1.362 . S
C631 H621 0.930 . S
C631 C624 1.409 . S
C631 C630 1.362 . S
H632 C638 0.930 . S
H633 C641 0.930 . S
H634 C642 0.930 . S
H635 C643 0.930 . S
H636 C646 0.930 . S
H637 C647 0.930 . S
C638 H632 0.930 . S
C638 C639 1.355 . S
C638 C640 1.415 . S
C639 C638 1.355 . S
C639 C641 1.419 . S
C640 C638 1.415 . S
C640 C645 1.425 . S
C640 C647 1.409 . S
C641 H633 0.930 . S
C641 C639 1.419 . S
C641 C642 1.362 . S
C642 H634 0.930 . S
C642 C641 1.362 . S
C642 C645 1.409 . S
C643 H635 0.930 . S
C643 C644 1.355 . S
C643 C645 1.415 . S
C644 C643 1.355 . S
C644 C646 1.419 . S
C645 C640 1.425 . S
C645 C642 1.409 . S
C645 C643 1.415 . S
C646 H636 0.930 . S
C646 C644 1.419 . S
C646 C647 1.362 . S
C647 H637 0.930 . S
C647 C640 1.409 . S
C647 C646 1.362 . S
C271 C9 1.446 . S
C276 C111 1.483 . S
C287 C21 1.200 . S
C292 C160 1.199 . S
C308 C186 2.247 . S
C303 C30 2.257 . S
C319 C43 2.183 . S
C324 C234 2.287 1_655 S
C340 C146 2.105 . S
C335 C4 1.751 . S
C356 C114 1.473 . S
C351 C22 1.529 . S
C372 C235 1.657 1_556 S
C367 C34 1.691 . S
C388 C203 1.625 . S
C383 C48 1.610 . S
C399 C8 1.519 . S
C404 C231 1.606 . S
C420 C163 2.292 . S
C415 C35 2.353 . S
C431 C47 2.564 . S
C436 C115 2.566 . S
C447 C17 1.044 . S
C452 C200 1.049 . S
C468 C120 1.018 . S
C463 C60 0.991 . S
C479 C74 1.161 . S
C484 C151 1.157 . S
C495 C82 1.981 . S
C500 C195 2.009 . S
C511 C100 2.777 . S
C516 C243 2.728 . S
C527 C61 2.331 . S
C532 C155 2.473 . S
C548 C123 0.661 . S
C543 C73 0.658 . S
C564 C226 2.148 . S
C559 C87 2.202 . S
C580 C194 1.420 . S
C575 C95 1.383 . S
C591 C56 1.492 . S
C596 C240 1.489 . S
C612 C154 2.469 . S
C607 C86 2.532 . S
C628 C106 2.381 . S
C623 C99 2.396 . S
C639 C69 0.900 . S
C644 C191 0.852 . S
