# Generated by pormake.
# Topology rtl, (3,6)-cn, num edge types: 1
# Building blocks:
#     Node 0, Type 0, BuildingBlock: BELTOD_clean_linker_0, # of connection points: 3
#     Node 1, Type 0, BuildingBlock: BELTOD_clean_linker_0, # of connection points: 3
#     Node 2, Type 0, BuildingBlock: BELTOD_clean_linker_0, # of connection points: 3
#     Node 3, Type 0, BuildingBlock: BELTOD_clean_linker_0, # of connection points: 3
#     Node 4, Type 1, BuildingBlock: KUMBUR_clean_sbu_1, # of connection points: 6
#     Node 5, Type 1, BuildingBlock: KUMBUR_clean_sbu_1, # of connection points: 6
#     Edge 6, Type (0, 1), BuildingBlock: TEMPAE_clean_linker_10, # of connection points: 2
#     Edge 7, Type (0, 1), BuildingBlock: TEMPAE_clean_linker_10, # of connection points: 2
#     Edge 8, Type (0, 1), BuildingBlock: TEMPAE_clean_linker_10, # of connection points: 2
#     Edge 9, Type (0, 1), BuildingBlock: TEMPAE_clean_linker_10, # of connection points: 2
#     Edge 10, Type (0, 1), BuildingBlock: TEMPAE_clean_linker_10, # of connection points: 2
#     Edge 11, Type (0, 1), BuildingBlock: TEMPAE_clean_linker_10, # of connection points: 2
#     Edge 12, Type (0, 1), BuildingBlock: TEMPAE_clean_linker_10, # of connection points: 2
#     Edge 13, Type (0, 1), BuildingBlock: TEMPAE_clean_linker_10, # of connection points: 2
#     Edge 14, Type (0, 1), BuildingBlock: TEMPAE_clean_linker_10, # of connection points: 2
#     Edge 15, Type (0, 1), BuildingBlock: TEMPAE_clean_linker_10, # of connection points: 2
#     Edge 16, Type (0, 1), BuildingBlock: TEMPAE_clean_linker_10, # of connection points: 2
#     Edge 17, Type (0, 1), BuildingBlock: TEMPAE_clean_linker_10, # of connection points: 2
# Relax obj value: 0.019
# Max RMSD: 0.098
# Mean RMSD: 0.063
data_MOF--net-rtl--node1-KUMBUR_clean_sbu_1--node2-BELTOD_clean_linker_0--edge1-TEMPAE_clean_linker_10
_symmetry_space_group_name_H-M    P1
_symmetry_Int_Tables_number       1
_symmetry_cell_setting            triclinic
loop_
_symmetry_equiv_pos_as_xyz
'x, y, z'
_cell_length_a     37.623058
_cell_length_b     38.226733
_cell_length_c     32.990982
_cell_angle_alpha  78.654604
_cell_angle_beta   99.729918
_cell_angle_gamma 90.455415
loop_
_atom_site_label
_atom_site_type_symbol
_atom_site_fract_x
_atom_site_fract_y
_atom_site_fract_z
_atom_type_partial_charge
P0 P 0.25237 0.88833 0.02421 0.0
H1 H 0.26719 0.9129 0.10367 0.0
H2 H 0.23081 0.91531 0.15797 0.0
H3 H 0.14416 0.86391 0.09024 0.0
H4 H 0.18107 0.86088 0.03627 0.0
H5 H 0.32028 0.85554 0.07204 0.0
H6 H 0.35059 0.79854 0.07565 0.0
H7 H 0.25958 0.76883 0.99124 0.0
H8 H 0.22863 0.82484 0.99031 0.0
H9 H 0.1836 0.92909 0.99298 0.0
H10 H 0.26371 0.87991 0.94134 0.0
O11 O 0.28499 0.91787 0.02857 0.0
H12 H 0.1468 0.94499 0.92333 0.0
H13 H 0.22751 0.89659 0.87139 0.0
C14 C 0.22637 0.88764 0.0654 0.0
C15 C 0.24044 0.90201 0.10054 0.0
C16 C 0.21974 0.90321 0.13165 0.0
C17 C 0.18457 0.89016 0.12799 0.0
C18 C 0.17102 0.87461 0.09346 0.0
C19 C 0.19203 0.87287 0.0627 0.0
C20 C 0.2728 0.84486 0.02979 0.0
C21 C 0.30681 0.83657 0.0546 0.0
C22 C 0.32422 0.80404 0.0563 0.0
C23 C 0.30802 0.77925 0.03288 0.0
C24 C 0.273 0.78707 0.00975 0.0
C25 C 0.25537 0.81935 0.00876 0.0
C26 C 0.22558 0.90172 0.97271 0.0
C27 C 0.19314 0.92133 0.9668 0.0
C28 C 0.17231 0.93085 0.92679 0.0
C29 C 0.18395 0.92152 0.8919 0.0
C30 C 0.21731 0.90331 0.89777 0.0
C31 C 0.23805 0.8938 0.93775 0.0
P32 P 0.7289 0.64006 0.64366 0.0
H33 H 0.76801 0.62072 0.5827 0.0
H34 H 0.74943 0.60714 0.51314 0.0
H35 H 0.63796 0.62637 0.52094 0.0
H36 H 0.65693 0.63951 0.59119 0.0
H37 H 0.79223 0.66721 0.69069 0.0
H38 H 0.82551 0.72217 0.67678 0.0
H39 H 0.7438 0.76298 0.56937 0.0
H40 H 0.71039 0.70781 0.58372 0.0
H41 H 0.68679 0.57942 0.67187 0.0
H42 H 0.69539 0.6888 0.68684 0.0
O43 O 0.76116 0.60973 0.66791 0.0
H44 H 0.64589 0.56812 0.72254 0.0
H45 H 0.65318 0.67818 0.73671 0.0
C46 C 0.71382 0.63038 0.59237 0.0
C47 C 0.73955 0.62186 0.56952 0.0
C48 C 0.72889 0.61444 0.52955 0.0
C49 C 0.69218 0.61567 0.51141 0.0
C50 C 0.6664 0.62476 0.53424 0.0
C51 C 0.67718 0.63229 0.57436 0.0
C52 C 0.74924 0.68318 0.63774 0.0
C53 C 0.78121 0.68812 0.66445 0.0
C54 C 0.80032 0.71948 0.65633 0.0
C55 C 0.78762 0.74663 0.62152 0.0
C56 C 0.75429 0.74254 0.59639 0.0
C57 C 0.73523 0.711 0.60448 0.0
C58 C 0.69405 0.63488 0.67555 0.0
C59 C 0.67916 0.60125 0.68544 0.0
C60 C 0.65555 0.5949 0.71435 0.0
C61 C 0.64609 0.62222 0.73392 0.0
C62 C 0.66021 0.65637 0.72276 0.0
C63 C 0.68412 0.66261 0.69392 0.0
P64 P 0.84608 0.22453 0.04722 0.0
H65 H 0.86747 0.26109 0.97002 0.0
H66 H 0.8736 0.24266 0.90475 0.0
H67 H 0.83313 0.13903 0.95098 0.0
H68 H 0.82623 0.15803 0.01626 0.0
H69 H 0.83196 0.29166 0.07168 0.0
H70 H 0.77693 0.32638 0.06724 0.0
H71 H 0.71484 0.24866 0.00835 0.0
H72 H 0.77035 0.21351 0.01377 0.0
H73 H 0.88455 0.15484 0.06915 0.0
H74 H 0.82082 0.21749 0.12714 0.0
O75 O 0.88113 0.25078 0.0555 0.0
H76 H 0.8968 0.11041 0.13411 0.0
H77 H 0.83521 0.175 0.19295 0.0
C78 C 0.84766 0.2105 0.99853 0.0
C79 C 0.85977 0.23443 0.96612 0.0
C80 C 0.863 0.22397 0.92869 0.0
C81 C 0.85412 0.18931 0.92296 0.0
C82 C 0.84062 0.16574 0.95487 0.0
C83 C 0.83684 0.1765 0.99218 0.0
C84 C 0.80527 0.25038 0.04232 0.0
C85 C 0.80659 0.28221 0.05746 0.0
C86 C 0.77506 0.30212 0.05476 0.0
C87 C 0.74149 0.29053 0.03699 0.0
C88 C 0.74023 0.25827 0.02232 0.0
C89 C 0.77192 0.2383 0.02511 0.0
C90 C 0.85057 0.18887 0.09265 0.0
C91 C 0.87245 0.15866 0.09554 0.0
C92 C 0.88004 0.13355 0.13314 0.0
C93 C 0.86709 0.13888 0.16918 0.0
C94 C 0.84496 0.16921 0.16587 0.0
C95 C 0.83677 0.19382 0.12805 0.0
P96 P 0.36206 0.26352 0.47542 0.0
H97 H 0.40058 0.24277 0.56128 0.0
H98 H 0.40892 0.27216 0.62138 0.0
H99 H 0.34587 0.36327 0.54631 0.0
H100 H 0.33809 0.33387 0.48565 0.0
H101 H 0.33915 0.19367 0.45976 0.0
H102 H 0.28294 0.16197 0.46368 0.0
H103 H 0.23277 0.25577 0.48658 0.0
H104 H 0.2893 0.28757 0.48252 0.0
H105 H 0.42657 0.28218 0.44013 0.0
H106 H 0.31337 0.31112 0.40719 0.0
O107 O 0.3935 0.23093 0.48539 0.0
H108 H 0.43805 0.32122 0.37642 0.0
H109 H 0.32484 0.35176 0.34344 0.0
C110 C 0.36903 0.28629 0.51887 0.0
C111 C 0.3889 0.26925 0.55745 0.0
C112 C 0.39375 0.2861 0.5918 0.0
C113 C 0.37826 0.32008 0.5884 0.0
C114 C 0.35809 0.33706 0.54975 0.0
C115 C 0.3537 0.32034 0.51513 0.0
C116 C 0.31871 0.24278 0.47169 0.0
C117 C 0.31607 0.20761 0.46531 0.0
C118 C 0.28394 0.18942 0.46774 0.0
C119 C 0.25365 0.20618 0.47618 0.0
C120 C 0.2557 0.24214 0.48015 0.0
C121 C 0.28806 0.2603 0.47798 0.0
C122 C 0.36904 0.29321 0.42798 0.0
C123 C 0.40411 0.29705 0.4191 0.0
C124 C 0.41071 0.31981 0.38276 0.0
C125 C 0.38242 0.33988 0.3547 0.0
C126 C 0.34719 0.33639 0.36405 0.0
C127 C 0.34059 0.31327 0.40053 0.0
Tb128 Tb 0.02537 0.96403 0.51337 0.0
C129 C 0.90917 0.07868 0.49294 0.0
N130 N 0.94443 0.08035 0.50992 0.0
C131 C 0.94749 0.13868 0.46763 0.0
C132 C 0.89201 0.10627 0.46099 0.0
C133 C 0.96347 0.11031 0.49883 0.0
C134 C 0.91177 0.1364 0.44811 0.0
C135 C 0.85309 0.04741 0.49353 0.0
C136 C 0.89018 0.04965 0.50886 0.0
C137 C 0.83616 0.07377 0.46001 0.0
C138 C 0.8556 0.10319 0.44378 0.0
Tb139 Tb 0.96842 0.03209 0.55929 0.0
N140 N 0.90745 0.02513 0.54163 0.0
C141 C 0.83388 0.01965 0.51355 0.0
C142 C 0.88797 1.00039 0.56391 0.0
C143 C 0.85126 0.99651 0.54951 0.0
H144 H 0.99137 0.11172 0.51296 0.0
H145 H 0.83628 0.97606 0.56655 0.0
H146 H 0.97743 0.88906 0.52171 0.0
H147 H 0.16672 0.979 0.56867 0.0
H148 H 0.90052 0.98374 0.59307 0.0
H149 H 0.80535 0.01692 0.50276 0.0
H150 H 0.10779 0.99471 0.52204 0.0
H151 H 0.96287 0.16203 0.45823 0.0
H152 H 0.80779 0.07228 0.44739 0.0
H153 H 0.842 0.12383 0.41874 0.0
H154 H 0.97851 0.83221 0.57226 0.0
H155 H 0.89958 0.15824 0.42366 0.0
H156 H 0.1728 0.92532 0.62564 0.0
N157 N 0.02495 0.90813 0.55462 0.0
C158 C 0.05509 0.8984 0.5838 0.0
C159 C 0.99987 0.85093 0.57651 0.0
C160 C 0.05784 0.86543 0.6123 0.0
C161 C 0.99887 0.88369 0.5485 0.0
C162 C 0.02908 0.84212 0.60927 0.0
N163 N 0.08106 0.95097 0.55334 0.0
C164 C 0.11042 0.97125 0.54681 0.0
C165 C 0.11733 0.91021 0.60986 0.0
C166 C 0.08448 0.92023 0.58254 0.0
C167 C 0.14704 0.93205 0.60523 0.0
C168 C 0.14372 0.96238 0.57309 0.0
H169 H 0.03006 0.81651 0.63055 0.0
H170 H 0.09232 0.83107 0.66388 0.0
H171 H 0.14449 0.87032 0.66164 0.0
O172 O 0.04334 0.97966 0.45547 0.0
O173 O 0.04639 0.98314 0.57113 0.0
O174 O 0.99595 0.98487 0.59997 0.0
O175 O 0.04054 0.92442 0.48317 0.0
O176 O 0.04095 0.02011 0.49929 0.0
O177 O 0.02212 0.05063 0.54754 0.0
O178 O 0.93982 0.05197 0.60009 0.0
O179 O 0.97183 0.04088 0.49225 0.0
O180 O 0.97267 0.9846 0.47847 0.0
O181 O 0.99686 0.05875 0.60412 0.0
O182 O 0.95868 0.97441 0.57468 0.0
O183 O 0.96842 0.95189 0.51735 0.0
C184 C 0.03079 0.97987 0.60418 0.0
C185 C 0.02831 0.93964 0.40989 0.0
C186 C 0.03247 0.92694 0.34127 0.0
C187 C 0.99501 0.92212 0.33411 0.0
C188 C 0.99099 0.93456 0.40239 0.0
C189 C 0.97441 0.92612 0.36448 0.0
C190 C 0.04891 0.93611 0.37919 0.0
C191 C 0.04265 0.04695 0.51956 0.0
C192 C 0.04621 0.94708 0.45028 0.0
C193 C 0.08984 0.85609 0.64136 0.0
C194 C 0.11958 0.87841 0.64004 0.0
C195 C 0.96414 0.01868 0.46652 0.0
C196 C 0.96388 0.10216 0.62582 0.0
C197 C 0.9442 0.14088 0.66893 0.0
C198 C 0.95811 0.17028 0.64417 0.0
C199 C 0.9781 0.13175 0.60191 0.0
C200 C 0.94682 0.1069 0.65914 0.0
C201 C 0.97484 0.16567 0.61083 0.0
C202 C 0.95127 0.95182 0.54911 0.0
C203 C 0.96816 0.06582 0.61841 0.0
H204 H 0.9817 0.91529 0.30503 0.0
H205 H 0.97485 0.93658 0.4261 0.0
H206 H 0.94562 0.92221 0.35884 0.0
H207 H 0.07785 0.93944 0.38533 0.0
H208 H 0.95613 0.19681 0.65071 0.0
H209 H 0.99225 0.12865 0.57691 0.0
H210 H 0.9367 0.0839 0.67834 0.0
H211 H 0.98578 0.1884 0.5922 0.0
Tb212 Tb 0.45225 0.48573 0.99819 0.0
C213 C 0.58711 0.57097 0.0312 0.0
N214 N 0.58222 0.53638 0.04836 0.0
C215 C 0.63777 0.5194 0.03002 0.0
C216 C 0.6168 0.58105 0.01103 0.0
C217 C 0.60768 0.51074 0.04945 0.0
C218 C 0.64211 0.55465 0.01019 0.0
C219 C 0.56665 0.63259 0.01823 0.0
C220 C 0.56225 0.59616 0.03447 0.0
C221 C 0.59536 0.64283 0.99651 0.0
C222 C 0.62043 0.6171 0.99298 0.0
Tb223 Tb 0.53092 0.52445 0.07671 0.0
N224 N 0.53511 0.58512 0.05597 0.0
C225 C 0.5429 0.65764 0.0257 0.0
C226 C 0.51428 0.60973 0.06686 0.0
C227 C 0.51709 0.64619 0.05093 0.0
H228 H 0.60423 0.48349 0.06443 0.0
H229 H 0.49976 0.66545 0.05871 0.0
H230 H 0.38556 0.54774 0.97891 0.0
H231 H 0.44937 0.34427 0.05794 0.0
H232 H 0.49578 0.60146 0.08836 0.0
H233 H 0.54531 0.68591 0.01377 0.0
H234 H 0.47259 0.3998 0.01981 0.0
H235 H 0.65744 0.49887 0.03009 0.0
H236 H 0.59897 0.67066 0.98337 0.0
H237 H 0.64292 0.62544 0.97706 0.0
H238 H 0.32984 0.5564 0.00587 0.0
H239 H 0.66529 0.56126 0.9949 0.0
H240 H 0.39495 0.34688 0.09043 0.0
N241 N 0.39753 0.49588 0.01669 0.0
C242 C 0.38369 0.46754 0.04026 0.0
C243 C 0.34508 0.53143 0.0165 0.0
C244 C 0.35095 0.47053 0.05484 0.0
C245 C 0.37733 0.52677 1.00218 0.0
C246 C 0.3322 0.5034 0.04373 0.0
N247 N 0.43227 0.43316 0.03184 0.0
C248 C 0.44886 0.40102 0.03398 0.0
C249 C 0.38706 0.40404 0.06932 0.0
C250 C 0.40128 0.43481 0.04737 0.0
C251 C 0.40497 0.37119 0.07369 0.0
C252 C 0.43574 0.36963 0.05544 0.0
H253 H 0.30697 0.50689 0.05432 0.0
H254 H 0.3124 0.44213 0.09036 0.0
H255 H 0.34395 0.38379 0.10274 0.0
O256 O 0.46014 0.46005 0.94906 0.0
O257 O 0.46806 0.46138 0.06495 0.0
O258 O 0.4803 0.50804 0.09821 0.0
O259 O 0.41107 0.48913 0.94593 0.0
O260 O 0.50629 0.46086 0.00673 0.0
O261 O 0.53685 0.46799 0.07252 0.0
O262 O 0.55358 0.54783 0.12756 0.0
O263 O 0.53737 0.52139 0.01261 0.0
O264 O 0.48134 0.53251 0.97204 0.0
O265 O 0.5577 0.49125 0.13191 0.0
O266 O 0.47573 0.54661 0.06678 0.0
O267 O 0.45014 0.54326 0.99885 0.0
C268 C 0.46561 0.4771 0.09621 0.0
C269 C 0.40643 0.4386 0.91481 0.0
C270 C 0.3892 0.40137 0.8626 0.0
C271 C 0.36391 0.38472 0.88658 0.0
C272 C 0.38082 0.42171 0.93791 0.0
C273 C 0.35994 0.39476 0.92401 0.0
C274 C 0.41063 0.42827 0.87725 0.0
C275 C 0.53195 0.45169 0.04008 0.0
C276 C 0.42768 0.46802 0.92856 0.0
C277 C 0.33734 0.44031 0.0785 0.0
C278 C 0.35528 0.40707 0.08555 0.0
C279 C 0.51654 0.53556 0.97729 0.0
C280 C 0.6031 0.51782 0.17458 0.0
C281 C 0.64272 0.53164 0.2359 0.0
C282 C 0.67225 0.51787 0.22236 0.0
C283 C 0.63281 0.50371 0.16203 0.0
C284 C 0.6082 0.5317 0.21149 0.0
C285 C 0.66724 0.50401 0.1857 0.0
C286 C 0.45351 0.55887 0.03151 0.0
C287 C 0.56631 0.51771 0.15079 0.0
H288 H 0.34648 0.36448 0.87596 0.0
H289 H 0.37639 0.42974 0.96628 0.0
H290 H 0.34014 0.38203 0.94194 0.0
H291 H 0.43043 0.4413 0.85945 0.0
H292 H 0.69927 0.51791 0.24003 0.0
H293 H 0.62947 0.49218 0.13432 0.0
H294 H 0.58502 0.54177 0.22165 0.0
H295 H 0.69011 0.49326 0.17574 0.0
C296 C 0.22409 0.15132 0.50837 0.0
C297 C 0.22079 0.18546 0.48272 0.0
C298 C 0.19368 0.1308 0.51446 0.0
C299 C 0.15902 0.14462 0.49418 0.0
C300 C 0.15539 0.1793 0.4687 0.0
C301 C 0.18635 0.19942 0.46345 0.0
C302 C 0.1987 0.0941 0.54224 0.0
C303 C 0.11892 0.1948 0.44631 0.0
C304 C 0.08909 0.07437 0.47773 0.0
C305 C 0.07042 0.074 0.51123 0.0
C306 C 0.1171 0.0981 0.47099 0.0
C307 C 0.12692 0.12201 0.49851 0.0
C308 C 0.10752 0.12256 0.53163 0.0
C309 C 0.07942 0.09864 0.53752 0.0
C310 C 0.13692 0.09683 0.43511 0.0
C311 C 0.11728 0.14752 0.56178 0.0
H312 H 0.25061 0.14067 0.52393 0.0
H313 H 0.1837 0.22574 0.44349 0.0
H314 H 0.18218 0.09201 0.56742 0.0
H315 H 0.18928 0.07359 0.52358 0.0
H316 H 0.22732 0.08782 0.55697 0.0
H317 H 0.12051 0.22263 0.42897 0.0
H318 H 0.10692 0.17816 0.42374 0.0
H319 H 0.10032 0.19448 0.46913 0.0
H320 H 0.08219 0.05574 0.45694 0.0
H321 H 0.06518 0.09865 0.56347 0.0
H322 H 0.16529 0.08774 0.44764 0.0
H323 H 0.13756 0.12388 0.41549 0.0
H324 H 0.12436 0.0785 0.41483 0.0
H325 H 0.14462 0.14028 0.58021 0.0
H326 H 0.09792 0.14653 0.58393 0.0
H327 H 0.11812 0.17537 0.54432 0.0
C328 C 0.31003 0.71404 0.02919 0.0
C329 C 0.32808 0.7461 0.0315 0.0
C330 C 0.32872 0.68295 0.02709 0.0
C331 C 0.36649 0.68369 0.02822 0.0
C332 C 0.3849 0.71582 0.03062 0.0
C333 C 0.36546 0.74666 0.03175 0.0
C334 C 0.30813 0.64923 0.02401 0.0
C335 C 0.42529 0.7175 0.03263 0.0
C336 C 0.42153 0.59741 0.06733 0.0
C337 C 0.42986 0.58996 0.03 0.0
C338 C 0.40067 0.62764 0.06712 0.0
C339 C 0.3871 0.6506 0.02851 0.0
C340 C 0.39441 0.64261 0.99053 0.0
C341 C 0.41602 0.6125 0.99176 0.0
C342 C 0.39389 0.63544 0.10835 0.0
C343 C 0.37988 0.66617 0.9487 0.0
H344 H 0.2813 0.71304 0.02952 0.0
H345 H 0.37966 0.77135 0.03251 0.0
H346 H 0.31354 0.63871 0.99653 0.0
H347 H 0.31737 0.62838 0.05232 0.0
H348 H 0.27857 0.65359 0.02098 0.0
H349 H 0.43544 0.74477 0.03336 0.0
H350 H 0.43899 0.69903 0.06117 0.0
H351 H 0.43307 0.70867 0.00519 0.0
H352 H 0.43175 0.57976 0.09695 0.0
H353 H 0.4224 0.60679 0.96285 0.0
H354 H 0.36449 0.63759 0.10818 0.0
H355 H 0.40553 0.66146 0.11279 0.0
H356 H 0.40587 0.61452 0.13555 0.0
H357 H 0.3502 0.66976 0.94516 0.0
H358 H 0.38609 0.65502 0.92195 0.0
H359 H 0.39166 0.693 0.94709 0.0
C360 C 0.79521 0.81263 0.59842 0.0
C361 C 0.81027 0.77791 0.61017 0.0
C362 C 0.81672 0.84214 0.58764 0.0
C363 C 0.85402 0.8367 0.5882 0.0
C364 C 0.86923 0.80167 0.5996 0.0
C365 C 0.84721 0.77277 0.6105 0.0
C366 C 0.79966 0.87916 0.57603 0.0
C367 C 0.90877 0.79469 0.60006 0.0
C368 C 0.90656 0.90758 0.52671 0.0
C369 C 0.92525 0.9234 0.55864 0.0
C370 C 0.88283 0.87968 0.53573 0.0
C371 C 0.87747 0.86758 0.57764 0.0
C372 C 0.89578 0.88397 0.60985 0.0
C373 C 0.9196 0.91154 0.59999 0.0
C374 C 0.86403 0.86271 0.50057 0.0
C375 C 0.89078 0.87191 0.65489 0.0
H376 H 0.76672 0.81675 0.59828 0.0
H377 H 0.85886 0.74593 0.61876 0.0
H378 H 0.8128 0.89582 0.59801 0.0
H379 H 0.80384 0.8922 0.54411 0.0
H380 H 0.77025 0.87887 0.5768 0.0
H381 H 0.91654 0.76593 0.61044 0.0
H382 H 0.91521 0.80405 0.56816 0.0
H383 H 0.92557 0.80987 0.62128 0.0
H384 H 0.91074 0.91684 0.49467 0.0
H385 H 0.93425 0.92347 0.62486 0.0
H386 H 0.8344 0.86386 0.49928 0.0
H387 H 0.87235 0.83412 0.50649 0.0
H388 H 0.87026 0.87594 0.46954 0.0
H389 H 0.86172 0.87273 0.65712 0.0
H390 H 0.9055 0.8887 0.67582 0.0
H391 H 0.90062 0.84386 0.66652 0.0
C392 C 0.70819 0.34936 0.02313 0.0
C393 C 0.70807 0.312 0.03443 0.0
C394 C 0.6777 0.37026 0.02306 0.0
C395 C 0.64616 0.35342 0.03433 0.0
C396 C 0.64545 0.3157 0.04465 0.0
C397 C 0.67645 0.29542 0.04463 0.0
C398 C 0.6795 0.41044 0.01176 0.0
C399 C 0.61227 0.29682 0.05674 0.0
C400 C 0.58438 0.41069 0.07571 0.0
C401 C 0.55874 0.42352 0.03976 0.0
C402 C 0.61232 0.38699 0.07468 0.0
C403 C 0.61456 0.37554 0.0369 0.0
C404 C 0.58788 0.3871 1.00101 0.0
C405 C 0.56029 0.41097 0.00285 0.0
C406 C 0.64027 0.37533 0.11364 0.0
C407 C 0.58927 0.37536 0.9602 0.0
H408 H 0.7323 0.36234 0.01448 0.0
H409 H 0.67623 0.2666 0.05376 0.0
H410 H 0.65752 0.42124 0.98542 0.0
H411 H 0.67551 0.42225 0.03887 0.0
H412 H 0.70571 0.41933 0.00259 0.0
H413 H 0.61533 0.26734 0.06146 0.0
H414 H 0.60667 0.30372 0.08622 0.0
H415 H 0.58842 0.30582 0.03214 0.0
H416 H 0.58328 0.41993 0.10451 0.0
H417 H 0.5406 0.42061 0.9749 0.0
H418 H 0.66691 0.38586 0.10781 0.0
H419 H 0.64309 0.34579 0.12149 0.0
H420 H 0.63346 0.38488 0.14116 0.0
H421 H 0.61326 0.38662 0.94733 0.0
H422 H 0.56483 0.38416 0.93635 0.0
H423 H 0.5921 0.34586 0.96551 0.0
C424 C 0.12702 0.90945 0.14635 0.0
C425 C 0.16174 0.89398 0.15941 0.0
C426 C 0.10572 0.91499 0.1757 0.0
C427 C 0.11929 0.90422 0.21911 0.0
C428 C 0.15413 0.88801 0.23244 0.0
C429 C 0.17508 0.88338 0.20239 0.0
C430 C 0.06896 0.93288 0.16028 0.0
C431 C 0.16927 0.87562 0.27843 0.0
C432 C 0.07921 0.94692 0.29658 0.0
C433 C 0.05453 0.92134 0.30979 0.0
C434 C 0.10032 0.94181 0.26685 0.0
C435 C 0.09706 0.91008 0.25057 0.0
C436 C 0.0724 0.88401 0.26416 0.0
C437 C 0.05121 0.8901 0.29337 0.0
C438 C 0.12591 0.97046 0.25265 0.0
C439 C 0.06859 0.84958 0.24809 0.0
H440 H 0.11688 0.91805 0.1131 0.0
H441 H 0.20187 0.87122 0.21247 0.0
H442 H 0.04789 0.9151 0.17196 0.0
H443 H 0.06767 0.95764 0.17283 0.0
H444 H 0.06247 0.93985 0.12548 0.0
H445 H 0.1964 0.8626 0.28353 0.0
H446 H 0.17134 0.89864 0.2945 0.0
H447 H 0.15083 0.85644 0.29349 0.0
H448 H 0.08161 0.97118 0.3091 0.0
H449 H 0.03242 0.87012 0.30399 0.0
H450 H 0.11922 0.97982 0.21815 0.0
H451 H 0.15396 0.95944 0.2598 0.0
H452 H 0.1249 0.99376 0.26796 0.0
H453 H 0.05996 0.85537 0.21354 0.0
H454 H 0.0487 0.83174 0.26245 0.0
H455 H 0.09506 0.83514 0.25483 0.0
C456 C 0.63114 0.62882 0.80373 0.0
C457 C 0.62329 0.61422 0.76741 0.0
C458 C 0.61213 0.61875 0.83724 0.0
C459 C 0.58497 0.59303 0.83475 0.0
C460 C 0.57612 0.57904 0.79775 0.0
C461 C 0.5951 0.59004 0.76446 0.0
C462 C 0.62224 0.63449 0.87604 0.0
C463 C 0.54754 0.55134 0.79396 0.0
C464 C 0.56627 0.53556 0.9363 0.0
C465 C 0.5336 0.55045 0.94073 0.0
C466 C 0.58336 0.54934 0.90218 0.0
C467 C 0.56745 0.57894 0.87176 0.0
C468 C 0.53453 0.5943 0.87629 0.0
C469 C 0.51778 0.57962 0.9106 0.0
C470 C 0.61825 0.53192 0.8985 0.0
C471 C 0.51719 0.62635 0.84507 0.0
H472 H 0.65311 0.64714 0.80676 0.0
H473 H 0.58822 0.57914 0.73628 0.0
H474 H 0.59777 0.64265 0.88684 0.0
H475 H 0.63711 0.61401 0.90173 0.0
H476 H 0.63966 0.65797 0.87063 0.0
H477 H 0.54284 0.54415 0.76249 0.0
H478 H 0.55583 0.5268 0.81793 0.0
H479 H 0.5217 0.56122 0.80005 0.0
H480 H 0.57822 0.51262 0.95926 0.0
H481 H 0.49263 0.5913 0.91428 0.0
H482 H 0.64002 0.55164 0.89833 0.0
H483 H 0.61519 0.52246 0.86841 0.0
H484 H 0.62682 0.5089 0.92467 0.0
H485 H 0.53636 0.6486 0.84302 0.0
H486 H 0.49208 0.63567 0.85362 0.0
H487 H 0.51063 0.61978 0.81341 0.0
C488 C 0.91391 0.0997 0.22176 0.0
C489 C 0.87879 0.11475 0.21081 0.0
C490 C 0.92663 0.08018 0.26228 0.0
C491 C 0.90411 0.0764 0.29305 0.0
C492 C 0.86827 0.09026 0.28199 0.0
C493 C 0.85588 0.10878 0.24089 0.0
C494 C 0.96482 0.06514 0.27271 0.0
C495 C 0.84356 0.087 0.31412 0.0
C496 C 0.93089 0.01074 0.39657 0.0
C497 C 0.94866 0.03299 0.42214 0.0
C498 C 0.91637 0.02433 0.3543 0.0
C499 C 0.91916 0.06113 0.33762 0.0
C500 C 0.93682 0.08369 0.3635 0.0
C501 C 0.95185 0.0692 0.40515 0.0
C502 C 0.89862 0.99922 0.32742 0.0
C503 C 0.93981 0.12323 0.34724 0.0
H504 H 0.9322 0.10438 0.1993 0.0
H505 H 0.82841 0.11934 0.23267 0.0
H506 H 0.98156 0.08035 0.29395 0.0
H507 H 0.96543 0.03691 0.28944 0.0
H508 H 0.97729 0.06653 0.24424 0.0
H509 H 0.81583 0.09745 0.30001 0.0
H510 H 0.84204 0.0587 0.32981 0.0
H511 H 0.8546 0.10206 0.33879 0.0
H512 H 0.92813 0.98275 0.40962 0.0
H513 H 0.96654 0.08627 0.42429 0.0
H514 H 0.91558 0.99622 0.30382 0.0
H515 H 0.87193 0.01019 0.31005 0.0
H516 H 0.89493 0.97237 0.34623 0.0
H517 H 0.95442 0.1277 0.32023 0.0
H518 H 0.95416 0.13708 0.37161 0.0
H519 H 0.91247 0.13566 0.33593 0.0
C520 C 0.41603 0.33767 0.65092 0.0
C521 C 0.38216 0.33687 0.62575 0.0
C522 C 0.41968 0.35064 0.68833 0.0
C523 C 0.38862 0.36257 0.70115 0.0
C524 C 0.35448 0.36276 0.67522 0.0
C525 C 0.3517 0.35012 0.63765 0.0
C526 C 0.45661 0.35059 0.71473 0.0
C527 C 0.32066 0.37488 0.68802 0.0
C528 C 0.38883 0.35554 0.81755 0.0
C529 C 0.39204 0.39129 0.82184 0.0
C530 C 0.38813 0.34586 0.77858 0.0
C531 C 0.39135 0.37247 0.743 0.0
C532 C 0.39602 0.40842 0.74732 0.0
C533 C 0.39608 0.41745 0.78663 0.0
C534 C 0.38303 0.30721 0.7753 0.0
C535 C 0.40006 0.43745 0.71021 0.0
H536 H 0.43966 0.32776 0.6415 0.0
H537 H 0.32545 0.34923 0.61841 0.0
H538 H 0.46202 0.37725 0.72264 0.0
H539 H 0.45775 0.33114 0.74472 0.0
H540 H 0.47835 0.34342 0.69861 0.0
H541 H 0.29653 0.37517 0.66334 0.0
H542 H 0.31578 0.35676 0.71713 0.0
H543 H 0.32393 0.40205 0.69502 0.0
H544 H 0.38648 0.33503 0.8447 0.0
H545 H 0.39821 0.44519 0.78944 0.0
H546 H 0.40569 0.29741 0.76261 0.0
H547 H 0.35788 0.30466 0.75314 0.0
H548 H 0.38139 0.28972 0.80606 0.0
H549 H 0.42192 0.43007 0.69447 0.0
H550 H 0.40619 0.46357 0.7194 0.0
H551 H 0.37477 0.44056 0.68687 0.0
C552 C 0.70118 0.61898 0.43715 0.0
C553 C 0.68121 0.60675 0.4692 0.0
C554 C 0.69324 0.60833 0.39833 0.0
C555 C 0.66451 0.58496 0.39121 0.0
C556 C 0.64337 0.57354 0.42283 0.0
C557 C 0.65198 0.58456 0.46146 0.0
C558 C 0.71633 0.62125 0.36538 0.0
C559 C 0.61242 0.54873 0.41637 0.0
C560 C 0.62962 0.57643 0.27841 0.0
C561 C 0.64782 0.54524 0.27578 0.0
C562 C 0.63437 0.58947 0.3159 0.0
C563 C 0.65797 0.57094 0.35159 0.0
C564 C 0.6762 0.53933 0.34923 0.0
C565 C 0.67086 0.52686 0.31144 0.0
C566 C 0.61447 0.62326 0.3172 0.0
C567 C 0.70155 0.51875 0.38659 0.0
H568 H 0.72339 0.63666 0.4426 0.0
H569 H 0.63659 0.57477 0.48615 0.0
H570 H 0.73093 0.59823 0.35928 0.0
H571 H 0.69916 0.6339 0.3354 0.0
H572 H 0.73645 0.64079 0.37499 0.0
H573 H 0.59705 0.54436 0.4428 0.0
H574 H 0.59365 0.55962 0.3869 0.0
H575 H 0.62289 0.52252 0.41321 0.0
H576 H 0.61205 0.59102 0.25092 0.0
H577 H 0.68453 0.50241 0.30993 0.0
H578 H 0.63407 0.64405 0.32398 0.0
H579 H 0.59832 0.61826 0.34287 0.0
H580 H 0.59617 0.63384 0.28719 0.0
H581 H 0.72393 0.53596 0.39648 0.0
H582 H 0.71326 0.49439 0.37978 0.0
H583 H 0.68709 0.51076 0.41349 0.0
C584 C 0.8809 0.1461 0.88783 0.0
C585 C 0.86098 0.17766 0.8846 0.0
C586 C 0.89212 0.13738 0.85245 0.0
C587 C 0.88286 0.16063 0.81293 0.0
C588 C 0.861 0.19148 0.80915 0.0
C589 C 0.85049 0.19971 0.84508 0.0
C590 C 0.91557 0.10436 0.85782 0.0
C591 C 0.85013 0.21669 0.7675 0.0
C592 C 0.94616 0.16569 0.73392 0.0
C593 C 0.92835 0.14547 0.70591 0.0
C594 C 0.93184 0.17035 0.76912 0.0
C595 C 0.89871 0.15461 0.77639 0.0
C596 C 0.88065 0.13396 0.74837 0.0
C597 C 0.89579 0.12949 0.71352 0.0
C598 C 0.95215 0.19224 0.7985 0.0
C599 C 0.84516 0.11701 0.75494 0.0
H600 H 0.88929 0.12915 0.91841 0.0
H601 H 0.83474 0.22393 0.84247 0.0
H602 H 0.90492 0.08827 0.83411 0.0
H603 H 0.94317 0.11228 0.85277 0.0
H604 H 0.91745 0.08734 0.88959 0.0
H605 H 0.83018 0.23745 0.76906 0.0
H606 H 0.87432 0.23017 0.75745 0.0
H607 H 0.83841 0.20172 0.74303 0.0
H608 H 0.97164 0.17757 0.72855 0.0
H609 H 0.88185 0.11399 0.69179 0.0
H610 H 0.95798 0.17613 0.83085 0.0
H611 H 0.93533 0.2157 0.79939 0.0
H612 H 0.97802 0.20189 0.78897 0.0
H613 H 0.84814 0.09932 0.78636 0.0
H614 H 0.83494 0.10112 0.7308 0.0
H615 H 0.82466 0.138 0.75396 0.0
C616 C 0.36664 0.36606 0.27736 0.0
C617 C 0.39008 0.36378 0.31578 0.0
C618 C 0.3754 0.38615 0.23998 0.0
C619 C 0.40865 0.40386 0.24094 0.0
C620 C 0.43184 0.4026 0.27976 0.0
C621 C 0.42211 0.38296 0.31665 0.0
C622 C 0.34969 0.38714 0.19934 0.0
C623 C 0.46761 0.42101 0.28219 0.0
C624 C 0.4546 0.4213 0.14519 0.0
C625 C 0.44949 0.45826 0.13182 0.0
C626 C 0.44044 0.40306 0.17989 0.0
C627 C 0.42037 0.42227 0.2014 0.0
C628 C 0.41398 0.45947 0.1869 0.0
C629 C 0.42904 0.47713 0.15252 0.0
C630 C 0.44797 0.36344 0.19432 0.0
C631 C 0.39168 0.48064 0.20805 0.0
H632 H 0.34198 0.35117 0.27618 0.0
H633 H 0.43999 0.38218 0.34626 0.0
H634 H 0.3475 0.41433 0.17948 0.0
H635 H 0.36007 0.36883 0.18157 0.0
H636 H 0.32232 0.37858 0.20478 0.0
H637 H 0.48223 0.41802 0.31494 0.0
H638 H 0.48495 0.40974 0.26359 0.0
H639 H 0.46343 0.44988 0.26843 0.0
H640 H 0.4705 0.40678 0.12912 0.0
H641 H 0.42465 0.50568 0.14161 0.0
H642 H 0.4223 0.34915 0.1956 0.0
H643 H 0.46396 0.35799 0.2265 0.0
H644 H 0.46305 0.35232 0.17332 0.0
H645 H 0.36528 0.46796 0.21044 0.0
H646 H 0.38681 0.50871 0.19089 0.0
H647 H 0.40564 0.48075 0.24045 0.0
C648 C 0.14365 0.96392 0.83541 0.0
C649 C 0.16133 0.93048 0.84956 0.0
C650 C 0.12214 0.97258 0.79553 0.0
C651 C 0.11825 0.94721 0.76919 0.0
C652 C 0.13599 0.91343 0.78325 0.0
C653 C 0.15731 0.90547 0.82327 0.0
C654 C 0.10371 0.00894 0.78147 0.0
C655 C 0.13265 0.88579 0.75589 0.0
C656 C 0.03745 0.9566 0.68126 0.0
C657 C 0.05287 0.97218 0.64645 0.0
C658 C 0.05843 0.94837 0.72148 0.0
C659 C 0.09563 0.95602 0.72685 0.0
C660 C 0.11123 0.97202 0.69177 0.0
C661 C 0.08956 0.98012 0.65203 0.0
C662 C 0.0409 0.9312 0.75814 0.0
C663 C 0.15081 0.98045 0.69616 0.0
H664 H 0.14702 0.98353 0.85535 0.0
H665 H 0.17053 0.87942 0.83421 0.0
H666 H 0.11284 0.02329 0.75255 0.0
H667 H 0.07411 0.00604 0.77369 0.0
H668 H 0.10929 0.02555 0.80582 0.0
H669 H 0.14653 0.8601 0.77234 0.0
H670 H 0.10384 0.8807 0.74528 0.0
H671 H 0.14456 0.89597 0.72743 0.0
H672 H 0.00906 0.95037 0.67699 0.0
H673 H 0.10134 0.99293 0.6253 0.0
H674 H 0.0445 0.94795 0.78237 0.0
H675 H 0.05413 0.90486 0.77288 0.0
H676 H 0.0116 0.9273 0.74871 0.0
H677 H 0.15767 0.9982 0.71906 0.0
H678 H 0.15851 0.99358 0.66584 0.0
H679 H 0.16732 0.95552 0.70843 0.0
loop_
_geom_bond_atom_site_label_1
_geom_bond_atom_site_label_2
_geom_bond_distance
_geom_bond_site_symmetry_2
_ccdc_geom_bond_type
P0 O11 1.490 . S
P0 C14 1.812 . S
P0 C20 1.803 . S
P0 C26 1.819 1_554 S
H1 C15 0.941 . S
H2 C16 0.939 . S
H3 C18 0.940 . S
H4 C19 0.940 . S
H5 C21 0.939 . S
H6 C22 0.942 . S
H7 C24 0.940 . S
H8 C25 0.939 . S
H9 C27 0.941 . S
H10 C31 0.939 . S
O11 P0 1.490 . S
H12 C28 0.939 . S
H13 C30 0.940 . S
C14 P0 1.812 . S
C14 C15 1.389 . S
C14 C19 1.391 . S
C15 H1 0.941 . S
C15 C14 1.389 . S
C15 C16 1.397 . S
C16 H2 0.939 . S
C16 C15 1.397 . S
C16 C17 1.378 . S
C17 C16 1.378 . S
C17 C18 1.378 . S
C18 H3 0.940 . S
C18 C17 1.378 . S
C18 C19 1.396 . S
C19 H4 0.940 . S
C19 C14 1.391 . S
C19 C18 1.396 . S
C20 P0 1.803 . S
C20 C21 1.378 . S
C20 C25 1.400 . S
C21 H5 0.939 . S
C21 C20 1.378 . S
C21 C22 1.361 . S
C22 H6 0.942 . S
C22 C21 1.361 . S
C22 C23 1.369 . S
C23 C22 1.369 . S
C23 C24 1.404 . S
C24 H7 0.940 . S
C24 C23 1.404 . S
C24 C25 1.389 . S
C25 H8 0.939 . S
C25 C20 1.400 . S
C25 C24 1.389 . S
C26 P0 1.819 1_556 S
C26 C27 1.391 . S
C26 C31 1.391 . S
C27 H9 0.941 . S
C27 C26 1.391 . S
C27 C28 1.396 . S
C28 H12 0.939 . S
C28 C27 1.396 . S
C28 C29 1.397 . S
C29 C28 1.397 . S
C29 C30 1.385 . S
C30 H13 0.940 . S
C30 C29 1.385 . S
C30 C31 1.388 . S
C31 H10 0.939 . S
C31 C26 1.391 . S
C31 C30 1.388 . S
P32 O43 1.490 . S
P32 C46 1.812 . S
P32 C52 1.803 . S
P32 C58 1.819 . S
H33 C47 0.941 . S
H34 C48 0.939 . S
H35 C50 0.940 . S
H36 C51 0.940 . S
H37 C53 0.939 . S
H38 C54 0.942 . S
H39 C56 0.940 . S
H40 C57 0.939 . S
H41 C59 0.941 . S
H42 C63 0.939 . S
O43 P32 1.490 . S
H44 C60 0.939 . S
H45 C62 0.940 . S
C46 P32 1.812 . S
C46 C47 1.389 . S
C46 C51 1.391 . S
C47 H33 0.941 . S
C47 C46 1.389 . S
C47 C48 1.397 . S
C48 H34 0.939 . S
C48 C47 1.397 . S
C48 C49 1.378 . S
C49 C48 1.378 . S
C49 C50 1.378 . S
C50 H35 0.940 . S
C50 C49 1.378 . S
C50 C51 1.396 . S
C51 H36 0.940 . S
C51 C46 1.391 . S
C51 C50 1.396 . S
C52 P32 1.803 . S
C52 C53 1.378 . S
C52 C57 1.400 . S
C53 H37 0.939 . S
C53 C52 1.378 . S
C53 C54 1.361 . S
C54 H38 0.942 . S
C54 C53 1.361 . S
C54 C55 1.369 . S
C55 C54 1.369 . S
C55 C56 1.404 . S
C56 H39 0.940 . S
C56 C55 1.404 . S
C56 C57 1.389 . S
C57 H40 0.939 . S
C57 C52 1.400 . S
C57 C56 1.389 . S
C58 P32 1.819 . S
C58 C59 1.391 . S
C58 C63 1.391 . S
C59 H41 0.941 . S
C59 C58 1.391 . S
C59 C60 1.396 . S
C60 H44 0.939 . S
C60 C59 1.396 . S
C60 C61 1.397 . S
C61 C60 1.397 . S
C61 C62 1.385 . S
C62 H45 0.940 . S
C62 C61 1.385 . S
C62 C63 1.388 . S
C63 H42 0.939 . S
C63 C58 1.391 . S
C63 C62 1.388 . S
P64 O75 1.490 . S
P64 C78 1.812 . S
P64 C84 1.803 . S
P64 C90 1.819 . S
H65 C79 0.941 . S
H66 C80 0.939 . S
H67 C82 0.940 . S
H68 C83 0.940 . S
H69 C85 0.939 . S
H70 C86 0.942 . S
H71 C88 0.940 . S
H72 C89 0.939 . S
H73 C91 0.941 . S
H74 C95 0.939 . S
O75 P64 1.490 . S
H76 C92 0.939 . S
H77 C94 0.940 . S
C78 P64 1.812 . S
C78 C79 1.389 1_554 S
C78 C83 1.391 . S
C79 H65 0.941 . S
C79 C78 1.389 1_556 S
C79 C80 1.397 . S
C80 H66 0.939 . S
C80 C79 1.397 . S
C80 C81 1.378 . S
C81 C80 1.378 . S
C81 C82 1.378 . S
C82 H67 0.940 . S
C82 C81 1.378 . S
C82 C83 1.396 1_556 S
C83 H68 0.940 . S
C83 C78 1.391 . S
C83 C82 1.396 1_554 S
C84 P64 1.803 . S
C84 C85 1.378 . S
C84 C89 1.400 . S
C85 H69 0.939 . S
C85 C84 1.378 . S
C85 C86 1.361 . S
C86 H70 0.942 . S
C86 C85 1.361 . S
C86 C87 1.369 . S
C87 C86 1.369 . S
C87 C88 1.404 . S
C88 H71 0.940 . S
C88 C87 1.404 . S
C88 C89 1.389 . S
C89 H72 0.939 . S
C89 C84 1.400 . S
C89 C88 1.389 . S
C90 P64 1.819 . S
C90 C91 1.391 . S
C90 C95 1.391 . S
C91 H73 0.941 . S
C91 C90 1.391 . S
C91 C92 1.396 . S
C92 H76 0.939 . S
C92 C91 1.396 . S
C92 C93 1.397 . S
C93 C92 1.397 . S
C93 C94 1.385 . S
C94 H77 0.940 . S
C94 C93 1.385 . S
C94 C95 1.388 . S
C95 H74 0.939 . S
C95 C90 1.391 . S
C95 C94 1.388 . S
P96 O107 1.490 . S
P96 C110 1.812 . S
P96 C116 1.803 . S
P96 C122 1.819 . S
H97 C111 0.941 . S
H98 C112 0.939 . S
H99 C114 0.940 . S
H100 C115 0.940 . S
H101 C117 0.939 . S
H102 C118 0.942 . S
H103 C120 0.940 . S
H104 C121 0.939 . S
H105 C123 0.941 . S
H106 C127 0.939 . S
O107 P96 1.490 . S
H108 C124 0.939 . S
H109 C126 0.940 . S
C110 P96 1.812 . S
C110 C111 1.389 . S
C110 C115 1.391 . S
C111 H97 0.941 . S
C111 C110 1.389 . S
C111 C112 1.397 . S
C112 H98 0.939 . S
C112 C111 1.397 . S
C112 C113 1.378 . S
C113 C112 1.378 . S
C113 C114 1.378 . S
C114 H99 0.940 . S
C114 C113 1.378 . S
C114 C115 1.396 . S
C115 H100 0.940 . S
C115 C110 1.391 . S
C115 C114 1.396 . S
C116 P96 1.803 . S
C116 C117 1.378 . S
C116 C121 1.400 . S
C117 H101 0.939 . S
C117 C116 1.378 . S
C117 C118 1.361 . S
C118 H102 0.942 . S
C118 C117 1.361 . S
C118 C119 1.369 . S
C119 C118 1.369 . S
C119 C120 1.404 . S
C120 H103 0.940 . S
C120 C119 1.404 . S
C120 C121 1.389 . S
C121 H104 0.939 . S
C121 C116 1.400 . S
C121 C120 1.389 . S
C122 P96 1.819 . S
C122 C123 1.391 . S
C122 C127 1.391 . S
C123 H105 0.941 . S
C123 C122 1.391 . S
C123 C124 1.396 . S
C124 H108 0.939 . S
C124 C123 1.396 . S
C124 C125 1.397 . S
C125 C124 1.397 . S
C125 C126 1.385 . S
C126 H109 0.940 . S
C126 C125 1.385 . S
C126 C127 1.388 . S
C127 H106 0.939 . S
C127 C122 1.391 . S
C127 C126 1.388 . S
Tb128 N157 2.617 . S
Tb128 N163 2.572 . S
Tb128 O172 2.465 . S
Tb128 O173 2.387 . S
Tb128 O175 2.428 . S
Tb128 O176 2.308 1_565 S
Tb128 O180 2.348 1_465 S
Tb128 O183 2.393 1_455 S
Tb128 C192 2.802 . S
C129 N130 1.379 . S
C129 C132 1.416 . S
C129 C136 1.424 . S
N130 C129 1.379 . S
N130 C133 1.309 1_655 S
N130 Tb139 2.617 . S
C131 C133 1.390 1_655 S
C131 C134 1.339 . S
C131 H151 0.930 1_655 S
C132 C129 1.416 . S
C132 C134 1.416 . S
C132 C138 1.448 . S
C133 N130 1.309 1_455 S
C133 C131 1.390 1_455 S
C133 H144 0.957 . S
C134 C131 1.339 . S
C134 C132 1.416 . S
C134 H155 0.930 . S
C135 C136 1.413 . S
C135 C137 1.427 . S
C135 C141 1.416 . S
C136 C129 1.424 . S
C136 C135 1.413 . S
C136 N140 1.361 . S
C137 C135 1.427 . S
C137 C138 1.328 . S
C137 H152 0.929 . S
C138 C132 1.448 . S
C138 C137 1.328 . S
C138 H153 0.930 . S
Tb139 N130 2.617 . S
Tb139 N140 2.572 . S
Tb139 O174 2.349 1_655 S
Tb139 O177 2.393 1_655 S
Tb139 O178 2.465 . S
Tb139 O179 2.387 . S
Tb139 O181 2.428 . S
Tb139 O182 2.308 1_545 S
Tb139 C203 2.802 . S
N140 C136 1.361 . S
N140 Tb139 2.572 . S
N140 C142 1.340 . S
C141 C135 1.416 . S
C141 C143 1.332 . S
C141 H149 0.931 . S
C142 N140 1.340 . S
C142 C143 1.407 . S
C142 H148 0.930 . S
C143 C141 1.332 . S
C143 C142 1.407 . S
C143 H145 0.929 . S
H144 C133 0.957 . S
H145 C143 0.929 . S
H146 C161 0.930 1_655 S
H147 C168 0.929 . S
H148 C142 0.930 . S
H149 C141 0.931 . S
H150 C164 0.930 . S
H151 C131 0.930 1_455 S
H152 C137 0.929 . S
H153 C138 0.930 . S
H154 C159 0.930 1_655 S
H155 C134 0.930 . S
H156 C167 0.931 . S
N157 Tb128 2.617 . S
N157 C158 1.379 . S
N157 C161 1.334 . S
C158 N157 1.379 . S
C158 C160 1.416 . S
C158 C166 1.424 . S
C159 H154 0.930 1_455 S
C159 C161 1.390 . S
C159 C162 1.339 . S
C160 C158 1.416 . S
C160 C162 1.416 . S
C160 C193 1.448 . S
C161 H146 0.930 1_455 S
C161 N157 1.334 . S
C161 C159 1.390 . S
C162 C159 1.339 . S
C162 C160 1.416 . S
C162 H169 0.930 . S
N163 Tb128 2.572 . S
N163 C164 1.340 . S
N163 C166 1.361 . S
C164 H150 0.930 . S
C164 N163 1.340 . S
C164 C168 1.407 . S
C165 C166 1.413 . S
C165 C167 1.416 . S
C165 C194 1.427 . S
C166 C158 1.424 . S
C166 N163 1.361 . S
C166 C165 1.413 . S
C167 H156 0.931 . S
C167 C165 1.416 . S
C167 C168 1.332 . S
C168 H147 0.929 . S
C168 C164 1.407 . S
C168 C167 1.332 . S
H169 C162 0.930 . S
H170 C193 0.930 . S
H171 C194 0.929 . S
O172 Tb128 2.465 . S
O172 C192 1.264 . S
O173 Tb128 2.387 . S
O173 C184 1.264 . S
O174 Tb139 2.349 1_455 S
O174 C184 1.243 1_545 S
O175 Tb128 2.428 . S
O175 C192 1.256 . S
O176 Tb128 2.308 1_545 S
O176 C191 1.266 . S
O177 Tb139 2.393 1_455 S
O177 C191 1.248 . S
O178 Tb139 2.465 . S
O178 C203 1.264 . S
O179 Tb139 2.387 . S
O179 C195 1.264 . S
O180 Tb128 2.348 1_645 S
O180 C195 1.245 . S
O181 Tb139 2.428 . S
O181 C203 1.256 . S
O182 Tb139 2.308 1_565 S
O182 C202 1.266 . S
O183 Tb128 2.393 1_655 S
O183 C202 1.248 . S
C184 O173 1.264 . S
C184 O174 1.243 1_565 S
C185 C188 1.399 . S
C185 C190 1.383 . S
C185 C192 1.496 . S
C186 C187 1.399 . S
C186 C190 1.389 . S
C187 C186 1.399 . S
C187 C189 1.380 . S
C187 H204 0.929 . S
C188 C185 1.399 . S
C188 C189 1.392 . S
C188 H205 0.929 . S
C189 C187 1.380 . S
C189 C188 1.392 . S
C189 H206 0.929 . S
C190 C185 1.383 . S
C190 C186 1.389 . S
C190 H207 0.931 . S
C191 O176 1.266 . S
C191 O177 1.248 . S
C192 Tb128 2.802 . S
C192 O172 1.264 . S
C192 O175 1.256 . S
C192 C185 1.496 . S
C193 C160 1.448 . S
C193 H170 0.930 . S
C193 C194 1.328 . S
C194 C165 1.427 . S
C194 H171 0.929 . S
C194 C193 1.328 . S
C195 O179 1.264 . S
C195 O180 1.245 . S
C196 C199 1.399 . S
C196 C200 1.383 . S
C196 C203 1.496 . S
C197 C198 1.399 . S
C197 C200 1.389 . S
C198 C197 1.399 . S
C198 C201 1.380 . S
C198 H208 0.929 . S
C199 C196 1.399 . S
C199 C201 1.392 . S
C199 H209 0.929 . S
C200 C196 1.383 . S
C200 C197 1.389 . S
C200 H210 0.931 . S
C201 C198 1.380 . S
C201 C199 1.392 . S
C201 H211 0.929 . S
C202 O182 1.266 . S
C202 O183 1.248 . S
C203 Tb139 2.802 . S
C203 O178 1.264 . S
C203 O181 1.256 . S
C203 C196 1.496 . S
H204 C187 0.929 . S
H205 C188 0.929 . S
H206 C189 0.929 . S
H207 C190 0.931 . S
H208 C198 0.929 . S
H209 C199 0.929 . S
H210 C200 0.931 . S
H211 C201 0.929 . S
Tb212 N241 2.617 . S
Tb212 N247 2.572 1_556 S
Tb212 O256 2.465 . S
Tb212 O257 2.387 1_556 S
Tb212 O259 2.428 . S
Tb212 O260 2.308 1_556 S
Tb212 O264 2.349 . S
Tb212 O267 2.391 1_556 S
Tb212 C276 2.802 . S
C213 N214 1.379 . S
C213 C216 1.416 . S
C213 C220 1.424 . S
N214 C213 1.379 . S
N214 C217 1.334 . S
N214 Tb223 2.617 . S
C215 C217 1.390 . S
C215 C218 1.339 . S
C215 H235 0.930 . S
C216 C213 1.416 . S
C216 C218 1.416 . S
C216 C222 1.448 . S
C217 N214 1.334 . S
C217 C215 1.390 . S
C217 H228 0.930 . S
C218 C215 1.339 . S
C218 C216 1.416 . S
C218 H239 0.930 . S
C219 C220 1.413 . S
C219 C221 1.427 . S
C219 C225 1.416 . S
C220 C213 1.424 . S
C220 C219 1.413 . S
C220 N224 1.361 . S
C221 C219 1.427 . S
C221 C222 1.328 . S
C221 H236 0.929 . S
C222 C216 1.448 . S
C222 C221 1.328 . S
C222 H237 0.930 . S
Tb223 N214 2.617 . S
Tb223 N224 2.572 . S
Tb223 O258 2.349 . S
Tb223 O261 2.393 . S
Tb223 O262 2.465 . S
Tb223 O263 2.372 1_554 S
Tb223 O265 2.428 . S
Tb223 O266 2.308 . S
Tb223 C287 2.802 . S
N224 C220 1.361 . S
N224 Tb223 2.572 . S
N224 C226 1.340 . S
C225 C219 1.416 . S
C225 C227 1.332 . S
C225 H233 0.931 . S
C226 N224 1.340 . S
C226 C227 1.407 . S
C226 H232 0.930 . S
C227 C225 1.332 . S
C227 C226 1.407 . S
C227 H229 0.929 . S
H228 C217 0.930 . S
H229 C227 0.929 . S
H230 C245 0.930 . S
H231 C252 0.929 . S
H232 C226 0.930 . S
H233 C225 0.931 . S
H234 C248 0.930 . S
H235 C215 0.930 . S
H236 C221 0.929 . S
H237 C222 0.930 . S
H238 C243 0.930 . S
H239 C218 0.930 . S
H240 C251 0.931 . S
N241 Tb212 2.617 . S
N241 C242 1.379 1_556 S
N241 C245 1.334 . S
C242 N241 1.379 1_554 S
C242 C244 1.416 . S
C242 C250 1.424 . S
C243 H238 0.930 . S
C243 C245 1.390 . S
C243 C246 1.339 1_556 S
C244 C242 1.416 . S
C244 C246 1.416 . S
C244 C277 1.448 . S
C245 H230 0.930 . S
C245 N241 1.334 . S
C245 C243 1.390 . S
C246 C243 1.339 1_554 S
C246 C244 1.416 . S
C246 H253 0.930 . S
N247 Tb212 2.572 1_554 S
N247 C248 1.340 . S
N247 C250 1.361 . S
C248 H234 0.930 . S
C248 N247 1.340 . S
C248 C252 1.407 . S
C249 C250 1.413 . S
C249 C251 1.416 . S
C249 C278 1.427 . S
C250 C242 1.424 . S
C250 N247 1.361 . S
C250 C249 1.413 . S
C251 H240 0.931 . S
C251 C249 1.416 . S
C251 C252 1.332 . S
C252 H231 0.929 . S
C252 C248 1.407 . S
C252 C251 1.332 . S
H253 C246 0.930 . S
H254 C277 0.930 . S
H255 C278 0.929 . S
O256 Tb212 2.465 . S
O256 C276 1.264 . S
O257 Tb212 2.387 1_554 S
O257 C268 1.264 . S
O258 Tb223 2.349 . S
O258 C268 1.243 . S
O259 Tb212 2.428 . S
O259 C276 1.256 . S
O260 Tb212 2.308 1_554 S
O260 C275 1.266 . S
O261 Tb223 2.393 . S
O261 C275 1.248 . S
O262 Tb223 2.465 . S
O262 C287 1.264 . S
O263 Tb223 2.372 1_556 S
O263 C279 1.275 . S
O264 Tb212 2.349 . S
O264 C279 1.243 . S
O265 Tb223 2.428 . S
O265 C287 1.256 . S
O266 Tb223 2.308 . S
O266 C286 1.266 . S
O267 Tb212 2.391 1_554 S
O267 C286 1.252 . S
C268 O257 1.264 . S
C268 O258 1.243 . S
C269 C272 1.399 . S
C269 C274 1.383 . S
C269 C276 1.496 . S
C270 C271 1.399 . S
C270 C274 1.389 . S
C271 C270 1.399 . S
C271 C273 1.380 . S
C271 H288 0.929 . S
C272 C269 1.399 . S
C272 C273 1.392 . S
C272 H289 0.929 . S
C273 C271 1.380 . S
C273 C272 1.392 . S
C273 H290 0.929 . S
C274 C269 1.383 . S
C274 C270 1.389 . S
C274 H291 0.931 . S
C275 O260 1.266 . S
C275 O261 1.248 . S
C276 Tb212 2.802 . S
C276 O256 1.264 . S
C276 O259 1.256 . S
C276 C269 1.496 . S
C277 C244 1.448 . S
C277 H254 0.930 . S
C277 C278 1.328 . S
C278 C249 1.427 . S
C278 H255 0.929 . S
C278 C277 1.328 . S
C279 O263 1.275 . S
C279 O264 1.243 . S
C280 C283 1.399 . S
C280 C284 1.383 . S
C280 C287 1.496 . S
C281 C282 1.399 . S
C281 C284 1.389 . S
C282 C281 1.399 . S
C282 C285 1.380 . S
C282 H292 0.929 . S
C283 C280 1.399 . S
C283 C285 1.392 . S
C283 H293 0.929 . S
C284 C280 1.383 . S
C284 C281 1.389 . S
C284 H294 0.931 . S
C285 C282 1.380 . S
C285 C283 1.392 . S
C285 H295 0.929 . S
C286 O266 1.266 . S
C286 O267 1.252 . S
C287 Tb223 2.802 . S
C287 O262 1.264 . S
C287 O265 1.256 . S
C287 C280 1.496 . S
H288 C271 0.929 . S
H289 C272 0.929 . S
H290 C273 0.929 . S
H291 C274 0.931 . S
H292 C282 0.929 . S
H293 C283 0.929 . S
H294 C284 0.931 . S
H295 C285 0.929 . S
C296 C297 1.391 . S
C296 C298 1.394 . S
C296 H312 0.931 . S
C297 C296 1.391 . S
C297 C301 1.376 . S
C298 C296 1.394 . S
C298 C299 1.369 . S
C298 C302 1.531 . S
C299 C298 1.369 . S
C299 C300 1.410 . S
C299 C307 1.503 . S
C300 C299 1.410 . S
C300 C301 1.392 . S
C300 C303 1.511 . S
C301 C297 1.376 . S
C301 C300 1.392 . S
C301 H313 0.929 . S
C302 C298 1.531 . S
C302 H314 0.960 . S
C302 H315 0.962 . S
C302 H316 0.960 . S
C303 C300 1.511 . S
C303 H317 0.961 . S
C303 H318 0.961 . S
C303 H319 0.961 . S
C304 C305 1.370 . S
C304 C306 1.363 . S
C304 H320 0.931 . S
C305 C304 1.370 . S
C305 C309 1.408 . S
C306 C304 1.363 . S
C306 C307 1.370 . S
C306 C310 1.524 . S
C307 C299 1.503 . S
C307 C306 1.370 . S
C307 C308 1.403 . S
C308 C307 1.403 . S
C308 C309 1.404 . S
C308 C311 1.539 . S
C309 C305 1.408 . S
C309 C308 1.404 . S
C309 H321 0.930 . S
C310 C306 1.524 . S
C310 H322 0.956 . S
C310 H323 0.961 . S
C310 H324 0.961 . S
C311 C308 1.539 . S
C311 H325 0.958 . S
C311 H326 0.961 . S
C311 H327 0.960 . S
H312 C296 0.931 . S
H313 C301 0.929 . S
H314 C302 0.960 . S
H315 C302 0.962 . S
H316 C302 0.960 . S
H317 C303 0.961 . S
H318 C303 0.961 . S
H319 C303 0.961 . S
H320 C304 0.931 . S
H321 C309 0.930 . S
H322 C310 0.956 . S
H323 C310 0.961 . S
H324 C310 0.961 . S
H325 C311 0.958 . S
H326 C311 0.961 . S
H327 C311 0.960 . S
C328 C329 1.391 . S
C328 C330 1.394 . S
C328 H344 0.931 . S
C329 C328 1.391 . S
C329 C333 1.368 1_554 S
C330 C328 1.394 . S
C330 C331 1.369 . S
C330 C334 1.531 . S
C331 C330 1.369 . S
C331 C332 1.410 1_554 S
C331 C339 1.503 . S
C332 C331 1.410 1_556 S
C332 C333 1.395 . S
C332 C335 1.511 . S
C333 C329 1.368 1_556 S
C333 C332 1.395 . S
C333 H345 0.934 . S
C334 C330 1.531 . S
C334 H346 0.960 . S
C334 H347 0.962 . S
C334 H348 0.960 . S
C335 C332 1.511 . S
C335 H349 0.961 . S
C335 H350 0.961 . S
C335 H351 0.961 . S
C336 C337 1.370 . S
C336 C338 1.363 . S
C336 H352 0.931 . S
C337 C336 1.370 . S
C337 C341 1.408 . S
C338 C336 1.363 . S
C338 C339 1.370 . S
C338 C342 1.524 . S
C339 C331 1.503 . S
C339 C338 1.370 . S
C339 C340 1.403 . S
C340 C339 1.403 . S
C340 C341 1.404 . S
C340 C343 1.539 1_554 S
C341 C337 1.408 . S
C341 C340 1.404 . S
C341 H353 0.930 . S
C342 C338 1.524 . S
C342 H354 0.956 . S
C342 H355 0.961 . S
C342 H356 0.961 . S
C343 C340 1.539 1_556 S
C343 H357 0.958 1_556 S
C343 H358 0.961 . S
C343 H359 0.960 . S
H344 C328 0.931 . S
H345 C333 0.934 . S
H346 C334 0.960 . S
H347 C334 0.962 . S
H348 C334 0.960 . S
H349 C335 0.961 . S
H350 C335 0.961 . S
H351 C335 0.961 . S
H352 C336 0.931 . S
H353 C341 0.930 . S
H354 C342 0.956 . S
H355 C342 0.961 . S
H356 C342 0.961 . S
H357 C343 0.958 1_554 S
H358 C343 0.961 . S
H359 C343 0.960 . S
C360 C361 1.391 . S
C360 C362 1.394 . S
C360 H376 0.931 . S
C361 C360 1.391 . S
C361 C365 1.376 . S
C362 C360 1.394 . S
C362 C363 1.369 . S
C362 C366 1.531 . S
C363 C362 1.369 . S
C363 C364 1.410 . S
C363 C371 1.503 . S
C364 C363 1.410 . S
C364 C365 1.392 . S
C364 C367 1.511 . S
C365 C361 1.376 . S
C365 C364 1.392 . S
C365 H377 0.929 . S
C366 C362 1.531 . S
C366 H378 0.960 . S
C366 H379 0.962 . S
C366 H380 0.960 . S
C367 C364 1.511 . S
C367 H381 0.961 . S
C367 H382 0.961 . S
C367 H383 0.961 . S
C368 C369 1.370 . S
C368 C370 1.363 . S
C368 H384 0.931 . S
C369 C368 1.370 . S
C369 C373 1.408 . S
C370 C368 1.363 . S
C370 C371 1.370 . S
C370 C374 1.524 . S
C371 C363 1.503 . S
C371 C370 1.370 . S
C371 C372 1.403 . S
C372 C371 1.403 . S
C372 C373 1.404 . S
C372 C375 1.539 . S
C373 C369 1.408 . S
C373 C372 1.404 . S
C373 H385 0.930 . S
C374 C370 1.524 . S
C374 H386 0.956 . S
C374 H387 0.961 . S
C374 H388 0.961 . S
C375 C372 1.539 . S
C375 H389 0.958 . S
C375 H390 0.961 . S
C375 H391 0.960 . S
H376 C360 0.931 . S
H377 C365 0.929 . S
H378 C366 0.960 . S
H379 C366 0.962 . S
H380 C366 0.960 . S
H381 C367 0.961 . S
H382 C367 0.961 . S
H383 C367 0.961 . S
H384 C368 0.931 . S
H385 C373 0.930 . S
H386 C374 0.956 . S
H387 C374 0.961 . S
H388 C374 0.961 . S
H389 C375 0.958 . S
H390 C375 0.961 . S
H391 C375 0.960 . S
C392 C393 1.391 . S
C392 C394 1.394 . S
C392 H408 0.931 . S
C393 C392 1.391 . S
C393 C397 1.376 . S
C394 C392 1.394 . S
C394 C395 1.369 . S
C394 C398 1.531 . S
C395 C394 1.369 . S
C395 C396 1.410 . S
C395 C403 1.503 . S
C396 C395 1.410 . S
C396 C397 1.392 . S
C396 C399 1.511 . S
C397 C393 1.376 . S
C397 C396 1.392 . S
C397 H409 0.929 . S
C398 C394 1.531 . S
C398 H410 0.960 . S
C398 H411 0.962 . S
C398 H412 0.960 . S
C399 C396 1.511 . S
C399 H413 0.961 . S
C399 H414 0.961 . S
C399 H415 0.961 1_554 S
C400 C401 1.370 . S
C400 C402 1.363 . S
C400 H416 0.931 . S
C401 C400 1.370 . S
C401 C405 1.408 1_554 S
C402 C400 1.363 . S
C402 C403 1.370 . S
C402 C406 1.524 . S
C403 C395 1.503 . S
C403 C402 1.370 . S
C403 C404 1.403 1_554 S
C404 C403 1.403 1_556 S
C404 C405 1.404 . S
C404 C407 1.539 . S
C405 C401 1.408 1_556 S
C405 C404 1.404 . S
C405 H417 0.930 . S
C406 C402 1.524 . S
C406 H418 0.956 . S
C406 H419 0.961 . S
C406 H420 0.961 . S
C407 C404 1.539 . S
C407 H421 0.958 . S
C407 H422 0.961 . S
C407 H423 0.960 . S
H408 C392 0.931 . S
H409 C397 0.929 . S
H410 C398 0.960 . S
H411 C398 0.962 . S
H412 C398 0.960 . S
H413 C399 0.961 . S
H414 C399 0.961 . S
H415 C399 0.961 1_556 S
H416 C400 0.931 . S
H417 C405 0.930 . S
H418 C406 0.956 . S
H419 C406 0.961 . S
H420 C406 0.961 . S
H421 C407 0.958 . S
H422 C407 0.961 . S
H423 C407 0.960 . S
C424 C425 1.391 . S
C424 C426 1.394 . S
C424 H440 0.931 . S
C425 C424 1.391 . S
C425 C429 1.376 . S
C426 C424 1.394 . S
C426 C427 1.369 . S
C426 C430 1.531 . S
C427 C426 1.369 . S
C427 C428 1.410 . S
C427 C435 1.503 . S
C428 C427 1.410 . S
C428 C429 1.392 . S
C428 C431 1.511 . S
C429 C425 1.376 . S
C429 C428 1.392 . S
C429 H441 0.929 . S
C430 C426 1.531 . S
C430 H442 0.960 . S
C430 H443 0.962 . S
C430 H444 0.960 . S
C431 C428 1.511 . S
C431 H445 0.961 . S
C431 H446 0.961 . S
C431 H447 0.961 . S
C432 C433 1.370 . S
C432 C434 1.363 . S
C432 H448 0.931 1_565 S
C433 C432 1.370 . S
C433 C437 1.408 . S
C434 C432 1.363 . S
C434 C435 1.370 . S
C434 C438 1.524 . S
C435 C427 1.503 . S
C435 C434 1.370 . S
C435 C436 1.403 . S
C436 C435 1.403 . S
C436 C437 1.404 . S
C436 C439 1.539 . S
C437 C433 1.408 . S
C437 C436 1.404 . S
C437 H449 0.930 . S
C438 C434 1.524 . S
C438 H450 0.956 . S
C438 H451 0.961 . S
C438 H452 0.961 1_565 S
C439 C436 1.539 . S
C439 H453 0.958 . S
C439 H454 0.961 . S
C439 H455 0.960 . S
H440 C424 0.931 . S
H441 C429 0.929 . S
H442 C430 0.960 . S
H443 C430 0.962 . S
H444 C430 0.960 . S
H445 C431 0.961 . S
H446 C431 0.961 . S
H447 C431 0.961 . S
H448 C432 0.931 1_545 S
H449 C437 0.930 . S
H450 C438 0.956 . S
H451 C438 0.961 . S
H452 C438 0.961 1_545 S
H453 C439 0.958 . S
H454 C439 0.961 . S
H455 C439 0.960 . S
C456 C457 1.391 . S
C456 C458 1.394 . S
C456 H472 0.931 . S
C457 C456 1.391 . S
C457 C461 1.376 . S
C458 C456 1.394 . S
C458 C459 1.369 . S
C458 C462 1.531 . S
C459 C458 1.369 . S
C459 C460 1.410 . S
C459 C467 1.503 . S
C460 C459 1.410 . S
C460 C461 1.392 . S
C460 C463 1.511 . S
C461 C457 1.376 . S
C461 C460 1.392 . S
C461 H473 0.929 . S
C462 C458 1.531 . S
C462 H474 0.960 . S
C462 H475 0.962 . S
C462 H476 0.960 . S
C463 C460 1.511 . S
C463 H477 0.961 . S
C463 H478 0.961 . S
C463 H479 0.961 . S
C464 C465 1.370 . S
C464 C466 1.363 . S
C464 H480 0.931 . S
C465 C464 1.370 . S
C465 C469 1.408 . S
C466 C464 1.363 . S
C466 C467 1.370 . S
C466 C470 1.524 . S
C467 C459 1.503 . S
C467 C466 1.370 . S
C467 C468 1.403 . S
C468 C467 1.403 . S
C468 C469 1.404 . S
C468 C471 1.539 . S
C469 C465 1.408 . S
C469 C468 1.404 . S
C469 H481 0.930 . S
C470 C466 1.524 . S
C470 H482 0.956 . S
C470 H483 0.961 . S
C470 H484 0.961 . S
C471 C468 1.539 . S
C471 H485 0.958 . S
C471 H486 0.961 . S
C471 H487 0.960 . S
H472 C456 0.931 . S
H473 C461 0.929 . S
H474 C462 0.960 . S
H475 C462 0.962 . S
H476 C462 0.960 . S
H477 C463 0.961 . S
H478 C463 0.961 . S
H479 C463 0.961 . S
H480 C464 0.931 . S
H481 C469 0.930 . S
H482 C470 0.956 . S
H483 C470 0.961 . S
H484 C470 0.961 . S
H485 C471 0.958 . S
H486 C471 0.961 . S
H487 C471 0.960 . S
C488 C489 1.391 . S
C488 C490 1.394 . S
C488 H504 0.931 . S
C489 C488 1.391 . S
C489 C493 1.376 . S
C490 C488 1.394 . S
C490 C491 1.369 . S
C490 C494 1.531 . S
C491 C490 1.369 . S
C491 C492 1.410 . S
C491 C499 1.503 . S
C492 C491 1.410 . S
C492 C493 1.392 . S
C492 C495 1.511 . S
C493 C489 1.376 . S
C493 C492 1.392 . S
C493 H505 0.929 . S
C494 C490 1.531 . S
C494 H506 0.960 . S
C494 H507 0.962 . S
C494 H508 0.960 . S
C495 C492 1.511 . S
C495 H509 0.961 . S
C495 H510 0.961 . S
C495 H511 0.961 . S
C496 C497 1.370 . S
C496 C498 1.363 . S
C496 H512 0.931 1_545 S
C497 C496 1.370 . S
C497 C501 1.408 . S
C498 C496 1.363 . S
C498 C499 1.370 . S
C498 C502 1.524 1_545 S
C499 C491 1.503 . S
C499 C498 1.370 . S
C499 C500 1.403 . S
C500 C499 1.403 . S
C500 C501 1.404 . S
C500 C503 1.539 . S
C501 C497 1.408 . S
C501 C500 1.404 . S
C501 H513 0.930 . S
C502 C498 1.524 1_565 S
C502 H514 0.956 1_565 S
C502 H515 0.961 . S
C502 H516 0.961 . S
C503 C500 1.539 . S
C503 H517 0.958 . S
C503 H518 0.961 . S
C503 H519 0.960 . S
H504 C488 0.931 . S
H505 C493 0.929 . S
H506 C494 0.960 . S
H507 C494 0.962 . S
H508 C494 0.960 . S
H509 C495 0.961 . S
H510 C495 0.961 . S
H511 C495 0.961 . S
H512 C496 0.931 1_565 S
H513 C501 0.930 . S
H514 C502 0.956 1_545 S
H515 C502 0.961 . S
H516 C502 0.961 . S
H517 C503 0.958 . S
H518 C503 0.961 . S
H519 C503 0.960 . S
C520 C521 1.391 . S
C520 C522 1.394 . S
C520 H536 0.931 . S
C521 C520 1.391 . S
C521 C525 1.376 . S
C522 C520 1.394 . S
C522 C523 1.369 . S
C522 C526 1.531 . S
C523 C522 1.369 . S
C523 C524 1.410 . S
C523 C531 1.503 . S
C524 C523 1.410 . S
C524 C525 1.392 . S
C524 C527 1.511 . S
C525 C521 1.376 . S
C525 C524 1.392 . S
C525 H537 0.929 . S
C526 C522 1.531 . S
C526 H538 0.960 . S
C526 H539 0.962 . S
C526 H540 0.960 . S
C527 C524 1.511 . S
C527 H541 0.961 . S
C527 H542 0.961 . S
C527 H543 0.961 . S
C528 C529 1.370 . S
C528 C530 1.363 . S
C528 H544 0.931 . S
C529 C528 1.370 . S
C529 C533 1.408 . S
C530 C528 1.363 . S
C530 C531 1.370 . S
C530 C534 1.524 . S
C531 C523 1.503 . S
C531 C530 1.370 . S
C531 C532 1.403 . S
C532 C531 1.403 . S
C532 C533 1.404 . S
C532 C535 1.539 . S
C533 C529 1.408 . S
C533 C532 1.404 . S
C533 H545 0.930 . S
C534 C530 1.524 . S
C534 H546 0.956 . S
C534 H547 0.961 . S
C534 H548 0.961 . S
C535 C532 1.539 . S
C535 H549 0.958 . S
C535 H550 0.961 . S
C535 H551 0.960 . S
H536 C520 0.931 . S
H537 C525 0.929 . S
H538 C526 0.960 . S
H539 C526 0.962 . S
H540 C526 0.960 . S
H541 C527 0.961 . S
H542 C527 0.961 . S
H543 C527 0.961 . S
H544 C528 0.931 . S
H545 C533 0.930 . S
H546 C534 0.956 . S
H547 C534 0.961 . S
H548 C534 0.961 . S
H549 C535 0.958 . S
H550 C535 0.961 . S
H551 C535 0.960 . S
C552 C553 1.391 . S
C552 C554 1.394 . S
C552 H568 0.931 . S
C553 C552 1.391 . S
C553 C557 1.376 . S
C554 C552 1.394 . S
C554 C555 1.369 . S
C554 C558 1.531 . S
C555 C554 1.369 . S
C555 C556 1.410 . S
C555 C563 1.503 . S
C556 C555 1.410 . S
C556 C557 1.392 . S
C556 C559 1.511 . S
C557 C553 1.376 . S
C557 C556 1.392 . S
C557 H569 0.929 . S
C558 C554 1.531 . S
C558 H570 0.960 . S
C558 H571 0.962 . S
C558 H572 0.960 . S
C559 C556 1.511 . S
C559 H573 0.961 . S
C559 H574 0.961 . S
C559 H575 0.961 . S
C560 C561 1.370 . S
C560 C562 1.363 . S
C560 H576 0.931 . S
C561 C560 1.370 . S
C561 C565 1.408 . S
C562 C560 1.363 . S
C562 C563 1.370 . S
C562 C566 1.524 . S
C563 C555 1.503 . S
C563 C562 1.370 . S
C563 C564 1.403 . S
C564 C563 1.403 . S
C564 C565 1.404 . S
C564 C567 1.539 . S
C565 C561 1.408 . S
C565 C564 1.404 . S
C565 H577 0.930 . S
C566 C562 1.524 . S
C566 H578 0.956 . S
C566 H579 0.961 . S
C566 H580 0.961 . S
C567 C564 1.539 . S
C567 H581 0.958 . S
C567 H582 0.961 . S
C567 H583 0.960 . S
H568 C552 0.931 . S
H569 C557 0.929 . S
H570 C558 0.960 . S
H571 C558 0.962 . S
H572 C558 0.960 . S
H573 C559 0.961 . S
H574 C559 0.961 . S
H575 C559 0.961 . S
H576 C560 0.931 . S
H577 C565 0.930 . S
H578 C566 0.956 . S
H579 C566 0.961 . S
H580 C566 0.961 . S
H581 C567 0.958 . S
H582 C567 0.961 . S
H583 C567 0.960 . S
C584 C585 1.391 . S
C584 C586 1.394 . S
C584 H600 0.931 . S
C585 C584 1.391 . S
C585 C589 1.376 . S
C586 C584 1.394 . S
C586 C587 1.369 . S
C586 C590 1.531 . S
C587 C586 1.369 . S
C587 C588 1.410 . S
C587 C595 1.503 . S
C588 C587 1.410 . S
C588 C589 1.392 . S
C588 C591 1.511 . S
C589 C585 1.376 . S
C589 C588 1.392 . S
C589 H601 0.929 . S
C590 C586 1.531 . S
C590 H602 0.960 . S
C590 H603 0.962 . S
C590 H604 0.960 . S
C591 C588 1.511 . S
C591 H605 0.961 . S
C591 H606 0.961 . S
C591 H607 0.961 . S
C592 C593 1.370 . S
C592 C594 1.363 . S
C592 H608 0.931 . S
C593 C592 1.370 . S
C593 C597 1.408 . S
C594 C592 1.363 . S
C594 C595 1.370 . S
C594 C598 1.524 . S
C595 C587 1.503 . S
C595 C594 1.370 . S
C595 C596 1.403 . S
C596 C595 1.403 . S
C596 C597 1.404 . S
C596 C599 1.539 . S
C597 C593 1.408 . S
C597 C596 1.404 . S
C597 H609 0.930 . S
C598 C594 1.524 . S
C598 H610 0.956 . S
C598 H611 0.961 . S
C598 H612 0.961 . S
C599 C596 1.539 . S
C599 H613 0.958 1_545 S
C599 H614 0.961 . S
C599 H615 0.960 . S
H600 C584 0.931 . S
H601 C589 0.929 . S
H602 C590 0.960 . S
H603 C590 0.962 . S
H604 C590 0.960 . S
H605 C591 0.961 . S
H606 C591 0.961 . S
H607 C591 0.961 . S
H608 C592 0.931 . S
H609 C597 0.930 . S
H610 C598 0.956 . S
H611 C598 0.961 . S
H612 C598 0.961 . S
H613 C599 0.958 1_565 S
H614 C599 0.961 . S
H615 C599 0.960 . S
C616 C617 1.391 . S
C616 C618 1.394 . S
C616 H632 0.931 . S
C617 C616 1.391 . S
C617 C621 1.376 . S
C618 C616 1.394 . S
C618 C619 1.369 . S
C618 C622 1.531 . S
C619 C618 1.369 . S
C619 C620 1.410 . S
C619 C627 1.503 . S
C620 C619 1.410 . S
C620 C621 1.392 . S
C620 C623 1.511 . S
C621 C617 1.376 . S
C621 C620 1.392 . S
C621 H633 0.929 . S
C622 C618 1.531 . S
C622 H634 0.960 . S
C622 H635 0.962 . S
C622 H636 0.960 . S
C623 C620 1.511 . S
C623 H637 0.961 . S
C623 H638 0.961 . S
C623 H639 0.961 . S
C624 C625 1.370 . S
C624 C626 1.363 . S
C624 H640 0.931 . S
C625 C624 1.370 . S
C625 C629 1.408 . S
C626 C624 1.363 . S
C626 C627 1.370 . S
C626 C630 1.524 . S
C627 C619 1.503 . S
C627 C626 1.370 . S
C627 C628 1.403 . S
C628 C627 1.403 . S
C628 C629 1.404 . S
C628 C631 1.539 . S
C629 C625 1.408 . S
C629 C628 1.404 . S
C629 H641 0.930 . S
C630 C626 1.524 . S
C630 H642 0.956 . S
C630 H643 0.961 . S
C630 H644 0.961 . S
C631 C628 1.539 . S
C631 H645 0.958 . S
C631 H646 0.961 . S
C631 H647 0.960 . S
H632 C616 0.931 . S
H633 C621 0.929 . S
H634 C622 0.960 . S
H635 C622 0.962 . S
H636 C622 0.960 . S
H637 C623 0.961 . S
H638 C623 0.961 . S
H639 C623 0.961 . S
H640 C624 0.931 . S
H641 C629 0.930 . S
H642 C630 0.956 . S
H643 C630 0.961 . S
H644 C630 0.961 . S
H645 C631 0.958 . S
H646 C631 0.961 . S
H647 C631 0.960 . S
C648 C649 1.391 . S
C648 C650 1.394 . S
C648 H664 0.931 . S
C649 C648 1.391 . S
C649 C653 1.376 . S
C650 C648 1.394 . S
C650 C651 1.369 . S
C650 C654 1.531 1_565 S
C651 C650 1.369 . S
C651 C652 1.410 . S
C651 C659 1.503 . S
C652 C651 1.410 . S
C652 C653 1.392 . S
C652 C655 1.511 . S
C653 C649 1.376 . S
C653 C652 1.392 . S
C653 H665 0.929 . S
C654 C650 1.531 1_545 S
C654 H666 0.960 . S
C654 H667 0.962 . S
C654 H668 0.960 . S
C655 C652 1.511 . S
C655 H669 0.961 . S
C655 H670 0.961 . S
C655 H671 0.961 . S
C656 C657 1.370 . S
C656 C658 1.363 . S
C656 H672 0.931 . S
C657 C656 1.370 . S
C657 C661 1.408 . S
C658 C656 1.363 . S
C658 C659 1.370 . S
C658 C662 1.524 . S
C659 C651 1.503 . S
C659 C658 1.370 . S
C659 C660 1.403 . S
C660 C659 1.403 . S
C660 C661 1.404 . S
C660 C663 1.539 . S
C661 C657 1.408 . S
C661 C660 1.404 . S
C661 H673 0.930 . S
C662 C658 1.524 . S
C662 H674 0.956 . S
C662 H675 0.961 . S
C662 H676 0.961 . S
C663 C660 1.539 . S
C663 H677 0.958 . S
C663 H678 0.961 . S
C663 H679 0.960 . S
H664 C648 0.931 . S
H665 C653 0.929 . S
H666 C654 0.960 . S
H667 C654 0.962 . S
H668 C654 0.960 . S
H669 C655 0.961 . S
H670 C655 0.961 . S
H671 C655 0.961 . S
H672 C656 0.931 . S
H673 C661 0.930 . S
H674 C662 0.956 . S
H675 C662 0.961 . S
H676 C662 0.961 . S
H677 C663 0.958 . S
H678 C663 0.961 . S
H679 C663 0.960 . S
C305 C191 1.617 . S
C297 C119 1.610 . S
C329 C23 1.611 . S
C337 C286 1.590 . S
C361 C55 1.534 . S
C369 C202 1.621 . S
C393 C87 1.527 . S
C401 C275 1.600 . S
C433 C186 1.378 . S
C425 C17 1.545 . S
C465 C279 1.606 . S
C457 C61 1.564 . S
C489 C93 1.469 . S
C497 C195 1.599 . S
C521 C113 1.536 . S
C529 C270 1.381 . S
C561 C281 1.391 . S
C553 C49 1.486 . S
C593 C197 1.414 . S
C585 C81 1.524 . S
C625 C268 1.604 . S
C617 C125 1.603 . S
C649 C29 1.578 . S
C657 C184 1.599 . S
