# Generated by pormake.
# Topology rtl, (3,6)-cn, num edge types: 1
# Building blocks:
#     Node 0, Type 0, BuildingBlock: INOVEN_clean_linker_0, # of connection points: 3
#     Node 1, Type 0, BuildingBlock: INOVEN_clean_linker_0, # of connection points: 3
#     Node 2, Type 0, BuildingBlock: INOVEN_clean_linker_0, # of connection points: 3
#     Node 3, Type 0, BuildingBlock: INOVEN_clean_linker_0, # of connection points: 3
#     Node 4, Type 1, BuildingBlock: LEVNOQ01_clean_sbu_1, # of connection points: 6
#     Node 5, Type 1, BuildingBlock: LEVNOQ01_clean_sbu_1, # of connection points: 6
#     Edge 6, Type (0, 1), BuildingBlock: XUDNAN_clean_linker_2, # of connection points: 2
#     Edge 7, Type (0, 1), BuildingBlock: XUDNAN_clean_linker_2, # of connection points: 2
#     Edge 8, Type (0, 1), BuildingBlock: XUDNAN_clean_linker_2, # of connection points: 2
#     Edge 9, Type (0, 1), BuildingBlock: XUDNAN_clean_linker_2, # of connection points: 2
#     Edge 10, Type (0, 1), BuildingBlock: XUDNAN_clean_linker_2, # of connection points: 2
#     Edge 11, Type (0, 1), BuildingBlock: XUDNAN_clean_linker_2, # of connection points: 2
#     Edge 12, Type (0, 1), BuildingBlock: XUDNAN_clean_linker_2, # of connection points: 2
#     Edge 13, Type (0, 1), BuildingBlock: XUDNAN_clean_linker_2, # of connection points: 2
#     Edge 14, Type (0, 1), BuildingBlock: XUDNAN_clean_linker_2, # of connection points: 2
#     Edge 15, Type (0, 1), BuildingBlock: XUDNAN_clean_linker_2, # of connection points: 2
#     Edge 16, Type (0, 1), BuildingBlock: XUDNAN_clean_linker_2, # of connection points: 2
#     Edge 17, Type (0, 1), BuildingBlock: XUDNAN_clean_linker_2, # of connection points: 2
# Relax obj value: 0.015
# Max RMSD: 0.114
# Mean RMSD: 0.083
data_MOF--net-rtl--node1-LEVNOQ01_clean_sbu_1--node2-INOVEN_clean_linker_0--edge1-XUDNAN_clean_linker_2
_symmetry_space_group_name_H-M    P1
_symmetry_Int_Tables_number       1
_symmetry_cell_setting            triclinic
loop_
_symmetry_equiv_pos_as_xyz
'x, y, z'
_cell_length_a     35.968513
_cell_length_b     35.281348
_cell_length_c     22.371682
_cell_angle_alpha  91.426044
_cell_angle_beta   99.493226
_cell_angle_gamma 89.051036
loop_
_atom_site_label
_atom_site_type_symbol
_atom_site_fract_x
_atom_site_fract_y
_atom_site_fract_z
_atom_type_partial_charge
H0 H 0.20641 0.84826 0.98417 0.0
H1 H 0.16237 0.93717 0.08838 0.0
H2 H 0.22208 0.84282 0.179 0.0
N3 N 0.23772 0.80736 0.07654 0.0
N4 N 0.25273 0.78953 0.12198 0.0
C5 C 0.20177 0.8602 0.02748 0.0
C6 C 0.18285 0.89518 0.0299 0.0
C7 C 0.21626 0.84123 0.08098 0.0
C8 C 0.21086 0.85711 0.13745 0.0
C9 C 0.19177 0.89203 0.14042 0.0
C10 C 0.17782 0.91063 0.08647 0.0
H11 H 0.72223 0.7028 0.71003 0.0
H12 H 0.64318 0.63019 0.59856 0.0
H13 H 0.70052 0.71635 0.51698 0.0
N14 N 0.74063 0.74311 0.62214 0.0
N15 N 0.74915 0.75954 0.5777 0.0
C16 C 0.70753 0.69415 0.66565 0.0
C17 C 0.68261 0.66366 0.65982 0.0
C18 C 0.71418 0.7132 0.61449 0.0
C19 C 0.69504 0.70196 0.55676 0.0
C20 C 0.66924 0.67197 0.55013 0.0
C21 C 0.66351 0.65281 0.60223 0.0
H22 H 0.77894 0.19892 0.88322 0.0
H23 H 0.835 0.10712 0.98662 0.0
H24 H 0.78878 0.20079 0.07776 0.0
N25 N 0.76036 0.23844 0.97451 0.0
N26 N 0.75217 0.25617 0.01957 0.0
C27 C 0.78913 0.18597 0.92638 0.0
C28 C 0.80805 0.15078 0.92815 0.0
C29 C 0.78204 0.20427 0.97975 0.0
C30 C 0.79461 0.18734 0.03618 0.0
C31 C 0.81328 0.15197 0.03849 0.0
C32 C 0.82001 0.1341 0.98448 0.0
H33 H 0.26945 0.33941 0.37576 0.0
H34 H 0.36179 0.40203 0.47775 0.0
H35 H 0.29392 0.33023 0.56827 0.0
N36 N 0.25132 0.30302 0.46506 0.0
N37 N 0.24255 0.28679 0.50948 0.0
C38 C 0.28698 0.34741 0.41818 0.0
C39 C 0.3169 0.37267 0.41932 0.0
C40 C 0.27939 0.33127 0.47095 0.0
C41 C 0.30051 0.3421 0.52714 0.0
C42 C 0.32986 0.36842 0.53028 0.0
C43 C 0.33809 0.38328 0.47593 0.0
O44 O 0.94718 0.09742 0.58076 0.0
Mg45 Mg 0.00227 0.07517 0.59406 0.0
O46 O 0.94784 0.03641 0.58965 0.0
Mg47 Mg -0.00302 0.01949 0.53237 0.0
O48 O 0.03448 0.07588 0.52734 0.0
O49 O 0.03514 0.12055 0.60086 0.0
O50 O 0.04601 0.00097 0.47555 0.0
O51 O 0.95715 0.04249 0.44674 0.0
Mg52 Mg 0.98741 0.96339 0.46486 0.0
O53 O 0.95975 0.96346 0.53775 0.0
O54 O 0.04127 0.93964 0.47126 0.0
O55 O 0.96316 0.99342 0.38698 0.0
O56 O 0.95313 0.91938 0.46267 0.0
C57 C 0.04006 0.0145 0.67014 0.0
C58 C 0.93141 0.06829 0.59522 0.0
C59 C 0.04754 0.10746 0.55365 0.0
C60 C 0.05987 0.96853 0.46417 0.0
C61 C 0.95015 0.02635 0.39464 0.0
C62 C 0.94426 0.93257 0.51261 0.0
O63 O 0.02399 0.04636 0.67473 0.0
O64 O 0.03656 0.9976 0.61861 0.0
O65 O 0.52774 0.51374 0.19305 0.0
Mg66 Mg 0.51538 0.47438 0.11967 0.0
O67 O 0.52705 0.55768 0.12554 0.0
Mg68 Mg 0.49706 0.52338 0.04098 0.0
O69 O 0.54474 0.47316 0.04878 0.0
O70 O 0.55865 0.43785 0.13198 0.0
O71 O 0.467 0.48911 0.95518 0.0
O72 O 0.54407 0.54642 0.98829 0.0
Mg73 Mg 0.4758 0.57441 0.95664 0.0
O74 O 0.45114 0.57429 0.03307 0.0
O75 O 0.46032 0.53346 0.88697 0.0
O76 O 0.52606 0.60353 0.96037 0.0
O77 O 0.43351 0.61208 0.95362 0.0
C78 C 0.44174 0.46683 0.10711 0.0
C79 C 0.53399 0.54752 0.18051 0.0
C80 C 0.56538 0.44715 0.07959 0.0
C81 C 0.4571 0.49921 0.90037 0.0
C82 C 0.55141 0.5783 0.96755 0.0
C83 C 0.4298 0.60153 0.00702 0.0
O84 O 0.46703 0.44179 0.10883 0.0
O85 O 0.44918 0.50053 0.094 0.0
H86 H 0.21246 0.25694 0.59775 0.0
H87 H 0.21104 0.25103 0.40379 0.0
H88 H 0.16325 0.20059 0.39358 0.0
H89 H 0.19941 0.15633 0.61876 0.0
H90 H 0.16927 0.16474 0.67472 0.0
H91 H 0.2051 0.19842 0.66658 0.0
H92 H 0.15445 0.25203 0.65015 0.0
H93 H 0.11857 0.21855 0.65849 0.0
H94 H 0.11408 0.24644 0.5912 0.0
H95 H 0.11413 0.15063 0.40554 0.0
H96 H 0.06541 0.11019 0.43814 0.0
H97 H 0.09865 0.15186 0.62298 0.0
C98 C 0.20215 0.24473 0.55334 0.0
C99 C 0.21526 0.25771 0.50189 0.0
C100 C 0.20118 0.2415 0.44399 0.0
C101 C 0.1742 0.21271 0.43777 0.0
C102 C 0.16161 0.20062 0.48972 0.0
C103 C 0.17505 0.21635 0.54633 0.0
C104 C 0.15574 0.20003 0.59468 0.0
C105 C 0.18408 0.17861 0.64143 0.0
C106 C 0.13444 0.23111 0.6254 0.0
C107 C 0.12892 0.17311 0.55646 0.0
C108 C 0.13294 0.1732 0.49616 0.0
C109 C 0.11072 0.1504 0.4527 0.0
C110 C 0.08325 0.1275 0.47147 0.0
C111 C 0.07803 0.12833 0.53279 0.0
C112 C 0.10163 0.15101 0.57555 0.0
H113 H 0.26971 0.75665 0.018 0.0
H114 H 0.28814 0.7488 0.21355 0.0
H115 H 0.33228 0.69443 0.20695 0.0
H116 H 0.27526 0.65443 0.98322 0.0
H117 H 0.29916 0.66206 0.91987 0.0
H118 H 0.26646 0.69728 0.94063 0.0
H119 H 0.31841 0.7482 0.9499 0.0
H120 H 0.3512 0.7132 0.92928 0.0
H121 H 0.36266 0.74018 0.99919 0.0
H122 H 0.37868 0.6436 0.17754 0.0
H123 H 0.42296 0.60325 0.12868 0.0
H124 H 0.37244 0.64624 0.95345 0.0
C125 C 0.28248 0.74312 0.05942 0.0
C126 C 0.27551 0.75666 0.11654 0.0
C127 C 0.29314 0.73847 0.16954 0.0
C128 C 0.31812 0.70765 0.16613 0.0
C129 C 0.3249 0.69531 0.10911 0.0
C130 C 0.30735 0.71249 0.05675 0.0
C131 C 0.32088 0.69577 0.00126 0.0
C132 C 0.28851 0.67622 0.95875 0.0
C133 C 0.33939 0.72614 0.968 0.0
C134 C 0.34954 0.66718 0.03046 0.0
C135 C 0.35133 0.66678 0.09258 0.0
C136 C 0.3772 0.64349 0.12883 0.0
C137 C 0.40219 0.62062 0.10079 0.0
C138 C 0.40128 0.62166 0.03733 0.0
C139 C 0.37403 0.64477 0.0021 0.0
H140 H 0.77466 0.79022 0.48674 0.0
H141 H 0.7846 0.79454 0.68219 0.0
H142 H 0.83352 0.84394 0.68802 0.0
H143 H 0.87137 0.79696 0.48231 0.0
H144 H 0.86521 0.82516 0.41523 0.0
H145 H 0.8288 0.79329 0.42733 0.0
H146 H 0.78032 0.849 0.41732 0.0
H147 H 0.81666 0.88108 0.40515 0.0
H148 H 0.78983 0.89072 0.46524 0.0
H149 H 0.88388 0.89228 0.67047 0.0
H150 H 0.93218 0.93039 0.63181 0.0
H151 H 0.88889 0.89055 0.44904 0.0
C152 C 0.78689 0.80207 0.53057 0.0
C153 C 0.77597 0.78897 0.58364 0.0
C154 C 0.79265 0.80442 0.64078 0.0
C155 C 0.82033 0.83252 0.64447 0.0
C156 C 0.83087 0.84461 0.59076 0.0
C157 C 0.81458 0.82964 0.53495 0.0
C158 C 0.83211 0.84515 0.48407 0.0
C159 C 0.85046 0.81324 0.45029 0.0
C160 C 0.80299 0.86784 0.44039 0.0
C161 C 0.8613 0.87075 0.51975 0.0
C162 C 0.86004 0.87078 0.58113 0.0
C163 C 0.88504 0.8924 0.62244 0.0
C164 C 0.9123 0.91396 0.60025 0.0
C165 C 0.91453 0.91294 0.53767 0.0
C166 C 0.88827 0.89149 0.49731 0.0
H167 H 0.7315 0.29589 0.11075 0.0
H168 H 0.71923 0.29041 0.91497 0.0
H169 H 0.67433 0.34471 0.90826 0.0
H170 H 0.63724 0.31339 0.11842 0.0
H171 H 0.64572 0.34504 0.18358 0.0
H172 H 0.6802 0.30926 0.17236 0.0
H173 H 0.73114 0.36094 0.17713 0.0
H174 H 0.69669 0.39695 0.18837 0.0
H175 H 0.72294 0.4004 0.12675 0.0
H176 H 0.62569 0.39671 0.92399 0.0
H177 H 0.57767 0.43871 0.96084 0.0
H178 H 0.62314 0.40884 0.1457 0.0
C179 C 0.71989 0.30679 0.06667 0.0
C180 C 0.72891 0.28929 0.01375 0.0
C181 C 0.71284 0.30362 0.95634 0.0
C182 C 0.68737 0.33452 0.95209 0.0
C183 C 0.67851 0.35083 0.00552 0.0
C184 C 0.69453 0.33745 0.06173 0.0
C185 C 0.67851 0.3577 0.11222 0.0
C186 C 0.65927 0.32968 0.14874 0.0
C187 C 0.70915 0.38034 0.15354 0.0
C188 C 0.65012 0.38374 0.07576 0.0
C189 C 0.65071 0.38 0.01434 0.0
C190 C 0.62532 0.40012 0.97209 0.0
C191 C 0.5982 0.42396 0.99331 0.0
C192 C 0.59654 0.42691 0.05603 0.0
C193 C 0.62352 0.40716 0.09739 0.0
H194 H 0.16564 0.85727 0.23306 0.0
H195 H 0.20167 0.96601 0.17881 0.0
H196 H 0.18102 0.99679 0.26833 0.0
H197 H 0.08378 0.88849 0.27414 0.0
H198 H 0.08481 0.85829 0.33823 0.0
H199 H 0.10912 0.84385 0.27735 0.0
H200 H 0.1714 0.83665 0.35333 0.0
H201 H 0.14715 0.85104 0.41473 0.0
H202 H 0.18843 0.87607 0.40252 0.0
H203 H 0.14675 0.01715 0.3532 0.0
H204 H 0.10176 0.02486 0.42533 0.0
H205 H 0.08996 0.90265 0.42597 0.0
C206 C 0.17052 0.88729 0.24138 0.0
C207 C 0.18533 0.90923 0.19919 0.0
C208 C 0.19021 0.94869 0.21054 0.0
C209 C 0.17882 0.96639 0.26149 0.0
C210 C 0.163 0.94418 0.30115 0.0
C211 C 0.15924 0.90538 0.29202 0.0
C212 C 0.13749 0.88861 0.33719 0.0
C213 C 0.10169 0.86867 0.30478 0.0
C214 C 0.16263 0.86149 0.37946 0.0
C215 C 0.12799 0.92421 0.37107 0.0
C216 C 0.14348 0.95595 0.35049 0.0
C217 C 0.1352 0.99241 0.37073 0.0
C218 C 0.10961 0.99656 0.41173 0.0
C219 C 0.09245 0.9644 0.43159 0.0
C220 C 0.10294 0.92783 0.41242 0.0
H221 H 0.65786 0.69532 0.75823 0.0
H222 H 0.68865 0.58778 0.68136 0.0
H223 H 0.66997 0.5544 0.76769 0.0
H224 H 0.68187 0.67027 0.92324 0.0
H225 H 0.64111 0.69581 0.94096 0.0
H226 H 0.66468 0.71167 0.88112 0.0
H227 H 0.60175 0.70853 0.80564 0.0
H228 H 0.5781 0.69299 0.86513 0.0
H229 H 0.5759 0.66483 0.7963 0.0
H230 H 0.64035 0.53241 0.85442 0.0
H231 H 0.59569 0.52317 0.92553 0.0
H232 H 0.58183 0.64505 0.94302 0.0
C233 C 0.66184 0.66487 0.76091 0.0
C234 C 0.67519 0.64402 0.7141 0.0
C235 C 0.67875 0.60411 0.71739 0.0
C236 C 0.66852 0.58503 0.7664 0.0
C237 C 0.65469 0.60634 0.81151 0.0
C238 C 0.65117 0.64543 0.80895 0.0
C239 C 0.6302 0.66125 0.85752 0.0
C240 C 0.65602 0.68622 0.90344 0.0
C241 C 0.59437 0.68315 0.82945 0.0
C242 C 0.6208 0.62488 0.88588 0.0
C243 C 0.63623 0.59358 0.86018 0.0
C244 C 0.62867 0.55673 0.8756 0.0
C245 C 0.60337 0.55173 0.91624 0.0
C246 C 0.58538 0.58343 0.9397 0.0
C247 C 0.59549 0.62036 0.92616 0.0
H248 H 0.86252 0.1743 0.14104 0.0
H249 H 0.78919 0.08311 0.06382 0.0
H250 H 0.81256 0.0439 0.15218 0.0
H251 H 0.94008 0.11708 0.19519 0.0
H252 H 0.9553 0.14354 0.26464 0.0
H253 H 0.92936 0.16706 0.2 0.0
H254 H 0.87945 0.19026 0.26423 0.0
H255 H 0.90544 0.16706 0.32936 0.0
H256 H 0.85646 0.1563 0.30421 0.0
H257 H 0.84883 0.01169 0.23896 0.0
H258 H 0.89421 0.98847 0.32519 0.0
H259 H 0.94431 0.09989 0.352 0.0
C260 C 0.8507 0.14652 0.14399 0.0
C261 C 0.82385 0.13167 0.09609 0.0
C262 C 0.80962 0.09489 0.10031 0.0
C263 C 0.82269 0.07249 0.15029 0.0
C264 C 0.84994 0.08732 0.19593 0.0
C265 C 0.86363 0.12357 0.19389 0.0
C266 C 0.89493 0.13117 0.24729 0.0
C267 C 0.93211 0.14024 0.22545 0.0
C268 C 0.88337 0.16309 0.28874 0.0
C269 C 0.89733 0.09315 0.27836 0.0
C270 C 0.87089 0.0685 0.24775 0.0
C271 C 0.86918 0.03087 0.26406 0.0
C272 C 0.89523 0.0179 0.31283 0.0
C273 C 0.92249 0.04245 0.34532 0.0
C274 C 0.92326 0.08078 0.32848 0.0
H275 H 0.3549 0.43966 0.56826 0.0
H276 H 0.35462 0.32368 0.62848 0.0
H277 H 0.38801 0.34379 0.72943 0.0
H278 H 0.4483 0.46277 0.64954 0.0
H279 H 0.43483 0.51075 0.66666 0.0
H280 H 0.41172 0.48678 0.59894 0.0
H281 H 0.3469 0.49986 0.63218 0.0
H282 H 0.36981 0.52369 0.70007 0.0
H283 H 0.3391 0.48449 0.70531 0.0
H284 H 0.41987 0.37758 0.82605 0.0
H285 H 0.44827 0.42193 0.90803 0.0
H286 H 0.42873 0.51476 0.78238 0.0
C287 C 0.36234 0.41832 0.60227 0.0
C288 C 0.3519 0.38008 0.59024 0.0
C289 C 0.36173 0.35326 0.63667 0.0
C290 C 0.38094 0.36436 0.69414 0.0
C291 C 0.39039 0.40237 0.7046 0.0
C292 C 0.38158 0.42886 0.65976 0.0
C293 C 0.3943 0.46803 0.68267 0.0
C294 C 0.42406 0.48295 0.64736 0.0
C295 C 0.36051 0.49563 0.6799 0.0
C296 C 0.41135 0.45953 0.74752 0.0
C297 C 0.40893 0.42154 0.75951 0.0
C298 C 0.42212 0.40738 0.817 0.0
C299 C 0.43817 0.43276 0.86333 0.0
C300 C 0.44091 0.47183 0.85182 0.0
C301 C 0.42734 0.48507 0.7929 0.0
H302 H 0.64898 0.60027 0.50625 0.0
H303 H 0.6408 0.71858 0.45576 0.0
H304 H 0.60553 0.70009 0.35542 0.0
H305 H 0.65957 0.56048 0.36196 0.0
H306 H 0.6309 0.51987 0.36864 0.0
H307 H 0.65642 0.54251 0.43568 0.0
H308 H 0.59425 0.55174 0.479 0.0
H309 H 0.56852 0.52913 0.41207 0.0
H310 H 0.5549 0.576 0.43488 0.0
H311 H 0.57142 0.66797 0.25901 0.0
H312 H 0.54032 0.62511 0.17697 0.0
H313 H 0.56781 0.52915 0.2946 0.0
C314 C 0.63951 0.62248 0.47457 0.0
C315 C 0.64799 0.66094 0.48925 0.0
C316 C 0.63543 0.68883 0.44553 0.0
C317 C 0.61506 0.67865 0.38845 0.0
C318 C 0.60709 0.6405 0.37578 0.0
C319 C 0.61879 0.61292 0.41782 0.0
C320 C 0.6062 0.57398 0.39363 0.0
C321 C 0.6403 0.54767 0.38974 0.0
C322 C 0.57937 0.55671 0.43219 0.0
C323 C 0.58569 0.58389 0.33129 0.0
C324 C 0.58661 0.62234 0.32152 0.0
C325 C 0.57033 0.63783 0.26636 0.0
C326 C 0.55276 0.61331 0.22003 0.0
C327 C 0.55136 0.57384 0.22947 0.0
C328 C 0.56795 0.55922 0.28606 0.0
H329 H 0.83242 0.18276 0.83142 0.0
H330 H 0.80211 0.07492 0.89773 0.0
H331 H 0.82168 0.04211 0.80897 0.0
H332 H 0.80433 0.15897 0.66591 0.0
H333 H 0.84354 0.18464 0.64692 0.0
H334 H 0.82193 0.19998 0.71076 0.0
H335 H 0.88687 0.19615 0.78083 0.0
H336 H 0.90858 0.18094 0.7174 0.0
H337 H 0.91359 0.15234 0.78398 0.0
H338 H 0.85288 0.02041 0.72102 0.0
H339 H 0.89394 0.01207 0.64309 0.0
H340 H 0.90089 0.13433 0.63208 0.0
C341 C 0.82874 0.15239 0.82631 0.0
C342 C 0.81576 0.13145 0.87155 0.0
C343 C 0.81238 0.09156 0.86396 0.0
C344 C 0.82305 0.07269 0.81337 0.0
C345 C 0.83657 0.09413 0.77027 0.0
C346 C 0.83912 0.13317 0.77602 0.0
C347 C 0.85787 0.14934 0.72671 0.0
C348 C 0.83026 0.17473 0.6851 0.0
C349 C 0.89385 0.17093 0.75387 0.0
C350 C 0.86697 0.1132 0.6939 0.0
C351 C 0.85399 0.08164 0.71901 0.0
C352 C 0.86247 0.04496 0.70009 0.0
C353 C 0.88579 0.04047 0.65575 0.0
C354 C 0.90046 0.07251 0.63117 0.0
C355 C 0.88967 0.10922 0.64913 0.0
H356 H 0.34733 0.44154 0.39457 0.0
H357 H 0.31101 0.33273 0.31134 0.0
H358 H 0.32598 0.35327 0.21477 0.0
H359 H 0.32071 0.50081 0.25823 0.0
H360 H 0.36298 0.52849 0.27504 0.0
H361 H 0.3426 0.509 0.33585 0.0
H362 H 0.40595 0.47526 0.37668 0.0
H363 H 0.42654 0.49523 0.31681 0.0
H364 H 0.42774 0.44462 0.32638 0.0
H365 H 0.35145 0.38051 0.13119 0.0
H366 H 0.39404 0.40973 0.0703 0.0
H367 H 0.41741 0.50022 0.20494 0.0
C368 C 0.34212 0.42213 0.35599 0.0
C369 C 0.32665 0.38586 0.36087 0.0
C370 C 0.32105 0.36131 0.30896 0.0
C371 C 0.32963 0.37265 0.25349 0.0
C372 C 0.34443 0.40851 0.25018 0.0
C373 C 0.35125 0.43275 0.30013 0.0
C374 C 0.37238 0.46747 0.28611 0.0
C375 C 0.34821 0.50358 0.28898 0.0
C376 C 0.4104 0.47081 0.32901 0.0
C377 C 0.37771 0.458 0.22142 0.0
C378 C 0.36034 0.42431 0.20122 0.0
C379 C 0.36445 0.40736 0.14574 0.0
C380 C 0.38847 0.42421 0.11126 0.0
C381 C 0.40793 0.45764 0.1323 0.0
C382 C 0.40143 0.47556 0.18685 0.0
H383 H 0.13966 0.87054 0.92229 0.0
H384 H 0.19533 0.9694 0.01306 0.0
H385 H 0.16781 0.00882 0.9273 0.0
H386 H 0.14866 0.8982 0.76512 0.0
H387 H 0.10289 0.8802 0.73315 0.0
H388 H 0.12979 0.85848 0.79892 0.0
H389 H 0.07374 0.86915 0.85691 0.0
H390 H 0.0468 0.89117 0.7916 0.0
H391 H 0.05461 0.91634 0.86359 0.0
H392 H 0.12963 0.03884 0.84019 0.0
H393 H 0.08538 0.05821 0.75012 0.0
H394 H 0.05493 0.94072 0.70941 0.0
C395 C 0.14668 0.9003 0.9232 0.0
C396 C 0.1695 0.91703 0.97441 0.0
C397 C 0.17764 0.95615 0.97457 0.0
C398 C 0.16228 0.97873 0.92598 0.0
C399 C 0.13903 0.96176 0.87711 0.0
C400 C 0.13149 0.92344 0.87466 0.0
C401 C 0.10393 0.91318 0.81755 0.0
C402 C 0.12243 0.8859 0.77623 0.0
C403 C 0.06762 0.89648 0.83339 0.0
C404 C 0.09654 0.95193 0.78939 0.0
C405 C 0.11726 0.97936 0.82486 0.0
C406 C 0.11369 0.01763 0.81145 0.0
C407 C 0.08827 0.02834 0.76042 0.0
C408 C 0.06685 0.00096 0.7228 0.0
C409 C 0.07136 0.96213 0.73701 0.0
loop_
_geom_bond_atom_site_label_1
_geom_bond_atom_site_label_2
_geom_bond_distance
_geom_bond_site_symmetry_2
_ccdc_geom_bond_type
H0 C5 0.929 1_556 S
H1 C10 0.931 . S
H2 C8 0.930 . S
N3 N4 1.234 . S
N3 C7 1.453 . S
N4 N3 1.234 . S
C5 H0 0.929 1_554 S
C5 C6 1.373 . S
C5 C7 1.368 . S
C6 C5 1.373 . S
C6 C10 1.397 . S
C7 N3 1.453 . S
C7 C5 1.368 . S
C7 C8 1.373 . S
C8 H2 0.930 . S
C8 C7 1.373 . S
C8 C9 1.371 . S
C9 C8 1.371 . S
C9 C10 1.383 . S
C10 H1 0.931 . S
C10 C6 1.397 . S
C10 C9 1.383 . S
H11 C16 0.929 . S
H12 C21 0.931 . S
H13 C19 0.930 . S
N14 N15 1.234 . S
N14 C18 1.453 . S
N15 N14 1.234 . S
C16 H11 0.929 . S
C16 C17 1.373 . S
C16 C18 1.368 . S
C17 C16 1.373 . S
C17 C21 1.397 . S
C18 N14 1.453 . S
C18 C16 1.368 . S
C18 C19 1.373 . S
C19 H13 0.930 . S
C19 C18 1.373 . S
C19 C20 1.371 . S
C20 C19 1.371 . S
C20 C21 1.383 . S
C21 H12 0.931 . S
C21 C17 1.397 . S
C21 C20 1.383 . S
H22 C27 0.929 . S
H23 C32 0.931 . S
H24 C30 0.930 . S
N25 N26 1.234 1_556 S
N25 C29 1.453 . S
N26 N25 1.234 1_554 S
C27 H22 0.929 . S
C27 C28 1.373 . S
C27 C29 1.368 . S
C28 C27 1.373 . S
C28 C32 1.397 1_556 S
C29 N25 1.453 . S
C29 C27 1.368 . S
C29 C30 1.373 1_556 S
C30 H24 0.930 . S
C30 C29 1.373 1_554 S
C30 C31 1.371 . S
C31 C30 1.371 . S
C31 C32 1.383 . S
C32 H23 0.931 . S
C32 C28 1.397 1_554 S
C32 C31 1.383 . S
H33 C38 0.929 . S
H34 C43 0.931 . S
H35 C41 0.930 . S
N36 N37 1.234 . S
N36 C40 1.453 . S
N37 N36 1.234 . S
C38 H33 0.929 . S
C38 C39 1.373 . S
C38 C40 1.368 . S
C39 C38 1.373 . S
C39 C43 1.397 . S
C40 N36 1.453 . S
C40 C38 1.368 . S
C40 C41 1.373 . S
C41 H35 0.930 . S
C41 C40 1.373 . S
C41 C42 1.371 . S
C42 C41 1.371 . S
C42 C43 1.383 . S
C43 H34 0.931 . S
C43 C39 1.397 . S
C43 C42 1.383 . S
O44 Mg45 1.990 . S
O44 C58 1.253 1_455 S
Mg45 O44 1.990 . S
Mg45 O48 2.180 . S
Mg45 O49 2.117 . S
Mg45 O63 2.030 . S
O46 Mg47 2.072 1_655 S
O46 C58 1.260 . S
Mg47 O46 2.072 1_455 S
Mg47 O48 2.099 . S
Mg47 O50 2.079 1_545 S
Mg47 O51 2.072 1_455 S
Mg47 O53 2.099 1_445 S
Mg47 O64 2.079 1_545 S
O48 Mg45 2.180 . S
O48 Mg47 2.099 . S
O48 C59 1.279 . S
O49 Mg45 2.117 . S
O49 C59 1.250 . S
O50 Mg47 2.079 1_565 S
O50 C60 1.264 . S
O51 Mg47 2.072 1_655 S
O51 C61 1.260 . S
Mg52 O53 2.180 . S
Mg52 O54 2.030 1_655 S
Mg52 O55 1.990 1_565 S
Mg52 O56 2.117 . S
O53 Mg47 2.099 1_665 S
O53 Mg52 2.180 . S
O53 C62 1.279 . S
O54 Mg52 2.030 1_455 S
O54 C60 1.248 . S
O55 Mg52 1.990 1_545 S
O55 C61 1.253 . S
O56 Mg52 2.117 . S
O56 C62 1.250 . S
C57 O63 1.248 1_565 S
C57 O64 1.264 . S
C58 O44 1.253 1_655 S
C58 O46 1.260 . S
C59 O48 1.279 . S
C59 O49 1.250 . S
C60 O50 1.264 . S
C60 O54 1.248 . S
C61 O51 1.260 . S
C61 O55 1.253 . S
C62 O53 1.279 . S
C62 O56 1.250 . S
O63 Mg45 2.030 . S
O63 C57 1.248 1_545 S
O64 Mg47 2.079 1_565 S
O64 C57 1.264 . S
O65 Mg66 1.990 . S
O65 C79 1.253 . S
Mg66 O65 1.990 . S
Mg66 O69 2.180 . S
Mg66 O70 2.117 . S
Mg66 O84 2.030 . S
O67 Mg68 2.072 . S
O67 C79 1.260 . S
Mg68 O67 2.072 . S
Mg68 O69 2.099 . S
Mg68 O71 2.079 1_554 S
Mg68 O72 2.072 1_554 S
Mg68 O74 2.099 . S
Mg68 O85 2.079 . S
O69 Mg66 2.180 . S
O69 Mg68 2.099 . S
O69 C80 1.279 . S
O70 Mg66 2.117 . S
O70 C80 1.250 . S
O71 Mg68 2.079 1_556 S
O71 C81 1.264 . S
O72 Mg68 2.072 1_556 S
O72 C82 1.260 . S
Mg73 O74 2.180 1_556 S
Mg73 O75 2.030 . S
Mg73 O76 1.990 . S
Mg73 O77 2.117 . S
O74 Mg68 2.099 . S
O74 Mg73 2.180 1_554 S
O74 C83 1.279 . S
O75 Mg73 2.030 . S
O75 C81 1.248 . S
O76 Mg73 1.990 . S
O76 C82 1.253 . S
O77 Mg73 2.117 . S
O77 C83 1.250 1_556 S
C78 O84 1.248 . S
C78 O85 1.264 . S
C79 O65 1.253 . S
C79 O67 1.260 . S
C80 O69 1.279 . S
C80 O70 1.250 . S
C81 O71 1.264 . S
C81 O75 1.248 . S
C82 O72 1.260 . S
C82 O76 1.253 . S
C83 O74 1.279 . S
C83 O77 1.250 1_554 S
O84 Mg66 2.030 . S
O84 C78 1.248 . S
O85 Mg68 2.079 . S
O85 C78 1.264 . S
H86 C98 0.930 . S
H87 C100 0.930 . S
H88 C101 0.930 . S
H89 C105 0.959 . S
H90 C105 0.959 . S
H91 C105 0.961 . S
H92 C106 0.960 . S
H93 C106 0.961 . S
H94 C106 0.959 . S
H95 C109 0.929 . S
H96 C110 0.931 . S
H97 C112 0.930 . S
C98 H86 0.930 . S
C98 C99 1.399 . S
C98 C103 1.399 . S
C99 C98 1.399 . S
C99 C100 1.376 . S
C100 H87 0.930 . S
C100 C99 1.376 . S
C100 C101 1.388 . S
C101 H88 0.930 . S
C101 C100 1.388 . S
C101 C102 1.390 . S
C102 C101 1.390 . S
C102 C103 1.394 . S
C102 C108 1.465 . S
C103 C98 1.399 . S
C103 C102 1.394 . S
C103 C104 1.516 . S
C104 C103 1.516 . S
C104 C105 1.502 . S
C104 C106 1.561 . S
C104 C107 1.526 . S
C105 H89 0.959 . S
C105 H90 0.959 . S
C105 H91 0.961 . S
C105 C104 1.502 . S
C106 H92 0.960 . S
C106 H93 0.961 . S
C106 H94 0.959 . S
C106 C104 1.561 . S
C107 C104 1.526 . S
C107 C108 1.396 . S
C107 C112 1.390 . S
C108 C102 1.465 . S
C108 C107 1.396 . S
C108 C109 1.399 . S
C109 H95 0.929 . S
C109 C108 1.399 . S
C109 C110 1.385 . S
C110 H96 0.931 . S
C110 C109 1.385 . S
C110 C111 1.389 . S
C111 C110 1.389 . S
C111 C112 1.387 . S
C112 H97 0.930 . S
C112 C107 1.390 . S
C112 C111 1.387 . S
H113 C125 0.930 . S
H114 C127 0.930 . S
H115 C128 0.930 . S
H116 C132 0.959 1_554 S
H117 C132 0.959 . S
H118 C132 0.961 . S
H119 C133 0.960 . S
H120 C133 0.961 . S
H121 C133 0.959 . S
H122 C136 0.929 . S
H123 C137 0.931 . S
H124 C139 0.930 1_556 S
C125 H113 0.930 . S
C125 C126 1.399 . S
C125 C130 1.399 . S
C126 C125 1.399 . S
C126 C127 1.376 . S
C127 H114 0.930 . S
C127 C126 1.376 . S
C127 C128 1.388 . S
C128 H115 0.930 . S
C128 C127 1.388 . S
C128 C129 1.390 . S
C129 C128 1.390 . S
C129 C130 1.394 . S
C129 C135 1.465 . S
C130 C125 1.399 . S
C130 C129 1.394 . S
C130 C131 1.516 . S
C131 C130 1.516 . S
C131 C132 1.502 1_554 S
C131 C133 1.561 1_554 S
C131 C134 1.526 . S
C132 H116 0.959 1_556 S
C132 H117 0.959 . S
C132 H118 0.961 . S
C132 C131 1.502 1_556 S
C133 H119 0.960 . S
C133 H120 0.961 . S
C133 H121 0.959 . S
C133 C131 1.561 1_556 S
C134 C131 1.526 . S
C134 C135 1.396 . S
C134 C139 1.390 . S
C135 C129 1.465 . S
C135 C134 1.396 . S
C135 C136 1.399 . S
C136 H122 0.929 . S
C136 C135 1.399 . S
C136 C137 1.385 . S
C137 H123 0.931 . S
C137 C136 1.385 . S
C137 C138 1.389 . S
C138 C137 1.389 . S
C138 C139 1.387 . S
C139 H124 0.930 1_554 S
C139 C134 1.390 . S
C139 C138 1.387 . S
H140 C152 0.930 . S
H141 C154 0.930 . S
H142 C155 0.930 . S
H143 C159 0.959 . S
H144 C159 0.959 . S
H145 C159 0.961 . S
H146 C160 0.960 . S
H147 C160 0.961 . S
H148 C160 0.959 . S
H149 C163 0.929 . S
H150 C164 0.931 . S
H151 C166 0.930 . S
C152 H140 0.930 . S
C152 C153 1.399 . S
C152 C157 1.399 . S
C153 C152 1.399 . S
C153 C154 1.376 . S
C154 H141 0.930 . S
C154 C153 1.376 . S
C154 C155 1.388 . S
C155 H142 0.930 . S
C155 C154 1.388 . S
C155 C156 1.390 . S
C156 C155 1.390 . S
C156 C157 1.394 . S
C156 C162 1.465 . S
C157 C152 1.399 . S
C157 C156 1.394 . S
C157 C158 1.516 . S
C158 C157 1.516 . S
C158 C159 1.502 . S
C158 C160 1.561 . S
C158 C161 1.526 . S
C159 H143 0.959 . S
C159 H144 0.959 . S
C159 H145 0.961 . S
C159 C158 1.502 . S
C160 H146 0.960 . S
C160 H147 0.961 . S
C160 H148 0.959 . S
C160 C158 1.561 . S
C161 C158 1.526 . S
C161 C162 1.396 . S
C161 C166 1.390 . S
C162 C156 1.465 . S
C162 C161 1.396 . S
C162 C163 1.399 . S
C163 H149 0.929 . S
C163 C162 1.399 . S
C163 C164 1.385 . S
C164 H150 0.931 . S
C164 C163 1.385 . S
C164 C165 1.389 . S
C165 C164 1.389 . S
C165 C166 1.387 . S
C166 H151 0.930 . S
C166 C161 1.390 . S
C166 C165 1.387 . S
H167 C179 0.930 . S
H168 C181 0.930 . S
H169 C182 0.930 . S
H170 C186 0.959 . S
H171 C186 0.959 . S
H172 C186 0.961 . S
H173 C187 0.960 . S
H174 C187 0.961 . S
H175 C187 0.959 . S
H176 C190 0.929 . S
H177 C191 0.931 . S
H178 C193 0.930 . S
C179 H167 0.930 . S
C179 C180 1.399 . S
C179 C184 1.399 . S
C180 C179 1.399 . S
C180 C181 1.376 1_554 S
C181 H168 0.930 . S
C181 C180 1.376 1_556 S
C181 C182 1.388 . S
C182 H169 0.930 . S
C182 C181 1.388 . S
C182 C183 1.390 . S
C183 C182 1.390 . S
C183 C184 1.394 1_556 S
C183 C189 1.465 . S
C184 C179 1.399 . S
C184 C183 1.394 1_554 S
C184 C185 1.516 . S
C185 C184 1.516 . S
C185 C186 1.502 . S
C185 C187 1.561 . S
C185 C188 1.526 . S
C186 H170 0.959 . S
C186 H171 0.959 . S
C186 H172 0.961 . S
C186 C185 1.502 . S
C187 H173 0.960 . S
C187 H174 0.961 . S
C187 H175 0.959 . S
C187 C185 1.561 . S
C188 C185 1.526 . S
C188 C189 1.396 1_554 S
C188 C193 1.390 . S
C189 C183 1.465 . S
C189 C188 1.396 1_556 S
C189 C190 1.399 . S
C190 H176 0.929 . S
C190 C189 1.399 . S
C190 C191 1.385 . S
C191 H177 0.931 . S
C191 C190 1.385 . S
C191 C192 1.389 1_556 S
C192 C191 1.389 1_554 S
C192 C193 1.387 . S
C193 H178 0.930 . S
C193 C188 1.390 . S
C193 C192 1.387 . S
H194 C206 0.930 . S
H195 C208 0.930 . S
H196 C209 0.930 . S
H197 C213 0.959 . S
H198 C213 0.959 . S
H199 C213 0.961 . S
H200 C214 0.960 . S
H201 C214 0.961 . S
H202 C214 0.959 . S
H203 C217 0.929 . S
H204 C218 0.931 1_545 S
H205 C220 0.930 . S
C206 H194 0.930 . S
C206 C207 1.399 . S
C206 C211 1.399 . S
C207 C206 1.399 . S
C207 C208 1.376 . S
C208 H195 0.930 . S
C208 C207 1.376 . S
C208 C209 1.388 . S
C209 H196 0.930 . S
C209 C208 1.388 . S
C209 C210 1.390 . S
C210 C209 1.390 . S
C210 C211 1.394 . S
C210 C216 1.465 . S
C211 C206 1.399 . S
C211 C210 1.394 . S
C211 C212 1.516 . S
C212 C211 1.516 . S
C212 C213 1.502 . S
C212 C214 1.561 . S
C212 C215 1.526 . S
C213 H197 0.959 . S
C213 H198 0.959 . S
C213 H199 0.961 . S
C213 C212 1.502 . S
C214 H200 0.960 . S
C214 H201 0.961 . S
C214 H202 0.959 . S
C214 C212 1.561 . S
C215 C212 1.526 . S
C215 C216 1.396 . S
C215 C220 1.390 . S
C216 C210 1.465 . S
C216 C215 1.396 . S
C216 C217 1.399 . S
C217 H203 0.929 . S
C217 C216 1.399 . S
C217 C218 1.385 . S
C218 H204 0.931 1_565 S
C218 C217 1.385 . S
C218 C219 1.389 . S
C219 C218 1.389 . S
C219 C220 1.387 . S
C220 H205 0.930 . S
C220 C215 1.390 . S
C220 C219 1.387 . S
H221 C233 0.930 . S
H222 C235 0.930 . S
H223 C236 0.930 . S
H224 C240 0.959 . S
H225 C240 0.959 . S
H226 C240 0.961 . S
H227 C241 0.960 . S
H228 C241 0.961 . S
H229 C241 0.959 . S
H230 C244 0.929 . S
H231 C245 0.931 . S
H232 C247 0.930 . S
C233 H221 0.930 . S
C233 C234 1.399 . S
C233 C238 1.399 . S
C234 C233 1.399 . S
C234 C235 1.376 . S
C235 H222 0.930 . S
C235 C234 1.376 . S
C235 C236 1.388 . S
C236 H223 0.930 . S
C236 C235 1.388 . S
C236 C237 1.390 . S
C237 C236 1.390 . S
C237 C238 1.394 . S
C237 C243 1.465 . S
C238 C233 1.399 . S
C238 C237 1.394 . S
C238 C239 1.516 . S
C239 C238 1.516 . S
C239 C240 1.502 . S
C239 C241 1.561 . S
C239 C242 1.526 . S
C240 H224 0.959 . S
C240 H225 0.959 . S
C240 H226 0.961 . S
C240 C239 1.502 . S
C241 H227 0.960 . S
C241 H228 0.961 . S
C241 H229 0.959 . S
C241 C239 1.561 . S
C242 C239 1.526 . S
C242 C243 1.396 . S
C242 C247 1.390 . S
C243 C237 1.465 . S
C243 C242 1.396 . S
C243 C244 1.399 . S
C244 H230 0.929 . S
C244 C243 1.399 . S
C244 C245 1.385 . S
C245 H231 0.931 . S
C245 C244 1.385 . S
C245 C246 1.389 . S
C246 C245 1.389 . S
C246 C247 1.387 . S
C247 H232 0.930 . S
C247 C242 1.390 . S
C247 C246 1.387 . S
H248 C260 0.930 . S
H249 C262 0.930 . S
H250 C263 0.930 . S
H251 C267 0.959 . S
H252 C267 0.959 . S
H253 C267 0.961 . S
H254 C268 0.960 . S
H255 C268 0.961 . S
H256 C268 0.959 . S
H257 C271 0.929 . S
H258 C272 0.931 . S
H259 C274 0.930 . S
C260 H248 0.930 . S
C260 C261 1.399 . S
C260 C265 1.399 . S
C261 C260 1.399 . S
C261 C262 1.376 . S
C262 H249 0.930 . S
C262 C261 1.376 . S
C262 C263 1.388 . S
C263 H250 0.930 . S
C263 C262 1.388 . S
C263 C264 1.390 . S
C264 C263 1.390 . S
C264 C265 1.394 . S
C264 C270 1.465 . S
C265 C260 1.399 . S
C265 C264 1.394 . S
C265 C266 1.516 . S
C266 C265 1.516 . S
C266 C267 1.502 . S
C266 C268 1.561 . S
C266 C269 1.526 . S
C267 H251 0.959 . S
C267 H252 0.959 . S
C267 H253 0.961 . S
C267 C266 1.502 . S
C268 H254 0.960 . S
C268 H255 0.961 . S
C268 H256 0.959 . S
C268 C266 1.561 . S
C269 C266 1.526 . S
C269 C270 1.396 . S
C269 C274 1.390 . S
C270 C264 1.465 . S
C270 C269 1.396 . S
C270 C271 1.399 . S
C271 H257 0.929 . S
C271 C270 1.399 . S
C271 C272 1.385 . S
C272 H258 0.931 . S
C272 C271 1.385 . S
C272 C273 1.389 . S
C273 C272 1.389 . S
C273 C274 1.387 . S
C274 H259 0.930 . S
C274 C269 1.390 . S
C274 C273 1.387 . S
H275 C287 0.930 . S
H276 C289 0.930 . S
H277 C290 0.930 . S
H278 C294 0.959 . S
H279 C294 0.959 . S
H280 C294 0.961 . S
H281 C295 0.960 . S
H282 C295 0.961 . S
H283 C295 0.959 . S
H284 C298 0.929 . S
H285 C299 0.931 . S
H286 C301 0.930 . S
C287 H275 0.930 . S
C287 C288 1.399 . S
C287 C292 1.399 . S
C288 C287 1.399 . S
C288 C289 1.376 . S
C289 H276 0.930 . S
C289 C288 1.376 . S
C289 C290 1.388 . S
C290 H277 0.930 . S
C290 C289 1.388 . S
C290 C291 1.390 . S
C291 C290 1.390 . S
C291 C292 1.394 . S
C291 C297 1.465 . S
C292 C287 1.399 . S
C292 C291 1.394 . S
C292 C293 1.516 . S
C293 C292 1.516 . S
C293 C294 1.502 . S
C293 C295 1.561 . S
C293 C296 1.526 . S
C294 H278 0.959 . S
C294 H279 0.959 . S
C294 H280 0.961 . S
C294 C293 1.502 . S
C295 H281 0.960 . S
C295 H282 0.961 . S
C295 H283 0.959 . S
C295 C293 1.561 . S
C296 C293 1.526 . S
C296 C297 1.396 . S
C296 C301 1.390 . S
C297 C291 1.465 . S
C297 C296 1.396 . S
C297 C298 1.399 . S
C298 H284 0.929 . S
C298 C297 1.399 . S
C298 C299 1.385 . S
C299 H285 0.931 . S
C299 C298 1.385 . S
C299 C300 1.389 . S
C300 C299 1.389 . S
C300 C301 1.387 . S
C301 H286 0.930 . S
C301 C296 1.390 . S
C301 C300 1.387 . S
H302 C314 0.930 . S
H303 C316 0.930 . S
H304 C317 0.930 . S
H305 C321 0.959 . S
H306 C321 0.959 . S
H307 C321 0.961 . S
H308 C322 0.960 . S
H309 C322 0.961 . S
H310 C322 0.959 . S
H311 C325 0.929 . S
H312 C326 0.931 . S
H313 C328 0.930 . S
C314 H302 0.930 . S
C314 C315 1.399 . S
C314 C319 1.399 . S
C315 C314 1.399 . S
C315 C316 1.376 . S
C316 H303 0.930 . S
C316 C315 1.376 . S
C316 C317 1.388 . S
C317 H304 0.930 . S
C317 C316 1.388 . S
C317 C318 1.390 . S
C318 C317 1.390 . S
C318 C319 1.394 . S
C318 C324 1.465 . S
C319 C314 1.399 . S
C319 C318 1.394 . S
C319 C320 1.516 . S
C320 C319 1.516 . S
C320 C321 1.502 . S
C320 C322 1.561 . S
C320 C323 1.526 . S
C321 H305 0.959 . S
C321 H306 0.959 . S
C321 H307 0.961 . S
C321 C320 1.502 . S
C322 H308 0.960 . S
C322 H309 0.961 . S
C322 H310 0.959 . S
C322 C320 1.561 . S
C323 C320 1.526 . S
C323 C324 1.396 . S
C323 C328 1.390 . S
C324 C318 1.465 . S
C324 C323 1.396 . S
C324 C325 1.399 . S
C325 H311 0.929 . S
C325 C324 1.399 . S
C325 C326 1.385 . S
C326 H312 0.931 . S
C326 C325 1.385 . S
C326 C327 1.389 . S
C327 C326 1.389 . S
C327 C328 1.387 . S
C328 H313 0.930 . S
C328 C323 1.390 . S
C328 C327 1.387 . S
H329 C341 0.930 . S
H330 C343 0.930 . S
H331 C344 0.930 . S
H332 C348 0.959 . S
H333 C348 0.959 . S
H334 C348 0.961 . S
H335 C349 0.960 . S
H336 C349 0.961 . S
H337 C349 0.959 . S
H338 C352 0.929 . S
H339 C353 0.931 . S
H340 C355 0.930 . S
C341 H329 0.930 . S
C341 C342 1.399 . S
C341 C346 1.399 . S
C342 C341 1.399 . S
C342 C343 1.376 . S
C343 H330 0.930 . S
C343 C342 1.376 . S
C343 C344 1.388 . S
C344 H331 0.930 . S
C344 C343 1.388 . S
C344 C345 1.390 . S
C345 C344 1.390 . S
C345 C346 1.394 . S
C345 C351 1.465 . S
C346 C341 1.399 . S
C346 C345 1.394 . S
C346 C347 1.516 . S
C347 C346 1.516 . S
C347 C348 1.502 . S
C347 C349 1.561 . S
C347 C350 1.526 . S
C348 H332 0.959 . S
C348 H333 0.959 . S
C348 H334 0.961 . S
C348 C347 1.502 . S
C349 H335 0.960 . S
C349 H336 0.961 . S
C349 H337 0.959 . S
C349 C347 1.561 . S
C350 C347 1.526 . S
C350 C351 1.396 . S
C350 C355 1.390 . S
C351 C345 1.465 . S
C351 C350 1.396 . S
C351 C352 1.399 . S
C352 H338 0.929 . S
C352 C351 1.399 . S
C352 C353 1.385 . S
C353 H339 0.931 . S
C353 C352 1.385 . S
C353 C354 1.389 . S
C354 C353 1.389 . S
C354 C355 1.387 . S
C355 H340 0.930 . S
C355 C350 1.390 . S
C355 C354 1.387 . S
H356 C368 0.930 . S
H357 C370 0.930 . S
H358 C371 0.930 . S
H359 C375 0.959 . S
H360 C375 0.959 . S
H361 C375 0.961 . S
H362 C376 0.960 . S
H363 C376 0.961 . S
H364 C376 0.959 . S
H365 C379 0.929 . S
H366 C380 0.931 . S
H367 C382 0.930 . S
C368 H356 0.930 . S
C368 C369 1.399 . S
C368 C373 1.399 . S
C369 C368 1.399 . S
C369 C370 1.376 . S
C370 H357 0.930 . S
C370 C369 1.376 . S
C370 C371 1.388 . S
C371 H358 0.930 . S
C371 C370 1.388 . S
C371 C372 1.390 . S
C372 C371 1.390 . S
C372 C373 1.394 . S
C372 C378 1.465 . S
C373 C368 1.399 . S
C373 C372 1.394 . S
C373 C374 1.516 . S
C374 C373 1.516 . S
C374 C375 1.502 . S
C374 C376 1.561 . S
C374 C377 1.526 . S
C375 H359 0.959 . S
C375 H360 0.959 . S
C375 H361 0.961 . S
C375 C374 1.502 . S
C376 H362 0.960 . S
C376 H363 0.961 . S
C376 H364 0.959 . S
C376 C374 1.561 . S
C377 C374 1.526 . S
C377 C378 1.396 . S
C377 C382 1.390 . S
C378 C372 1.465 . S
C378 C377 1.396 . S
C378 C379 1.399 . S
C379 H365 0.929 . S
C379 C378 1.399 . S
C379 C380 1.385 . S
C380 H366 0.931 . S
C380 C379 1.385 . S
C380 C381 1.389 . S
C381 C380 1.389 . S
C381 C382 1.387 . S
C382 H367 0.930 . S
C382 C377 1.390 . S
C382 C381 1.387 . S
H383 C395 0.930 . S
H384 C397 0.930 1_554 S
H385 C398 0.930 . S
H386 C402 0.959 . S
H387 C402 0.959 . S
H388 C402 0.961 . S
H389 C403 0.960 . S
H390 C403 0.961 . S
H391 C403 0.959 . S
H392 C406 0.929 1_545 S
H393 C407 0.931 1_545 S
H394 C409 0.930 . S
C395 H383 0.930 . S
C395 C396 1.399 . S
C395 C400 1.399 . S
C396 C395 1.399 . S
C396 C397 1.376 . S
C397 H384 0.930 1_556 S
C397 C396 1.376 . S
C397 C398 1.388 . S
C398 H385 0.930 . S
C398 C397 1.388 . S
C398 C399 1.390 . S
C399 C398 1.390 . S
C399 C400 1.394 . S
C399 C405 1.465 . S
C400 C395 1.399 . S
C400 C399 1.394 . S
C400 C401 1.516 . S
C401 C400 1.516 . S
C401 C402 1.502 . S
C401 C403 1.561 . S
C401 C404 1.526 . S
C402 H386 0.959 . S
C402 H387 0.959 . S
C402 H388 0.961 . S
C402 C401 1.502 . S
C403 H389 0.960 . S
C403 H390 0.961 . S
C403 H391 0.959 . S
C403 C401 1.561 . S
C404 C401 1.526 . S
C404 C405 1.396 . S
C404 C409 1.390 . S
C405 C399 1.465 . S
C405 C404 1.396 . S
C405 C406 1.399 . S
C406 H392 0.929 1_565 S
C406 C405 1.399 . S
C406 C407 1.385 . S
C407 H393 0.931 1_565 S
C407 C406 1.385 . S
C407 C408 1.389 . S
C408 C407 1.389 . S
C408 C409 1.387 . S
C409 H394 0.930 . S
C409 C404 1.390 . S
C409 C408 1.387 . S
C111 C59 1.318 . S
C99 N37 1.453 . S
C126 N4 1.470 . S
C138 C83 1.340 . S
C153 N15 1.596 . S
C165 C62 1.457 . S
C180 N26 1.593 . S
C192 C80 1.440 . S
C219 C60 1.493 . S
C207 C9 1.487 . S
C246 C82 1.530 . S
C234 C17 1.594 . S
C261 C31 1.583 . S
C273 C61 1.516 . S
C288 C42 1.520 . S
C300 C81 1.469 . S
C327 C79 1.500 . S
C315 C20 1.507 . S
C354 C58 1.475 . S
C342 C28 1.512 . S
C381 C78 1.385 . S
C369 C39 1.442 . S
C396 C6 1.444 1_556 S
C408 C57 1.345 . S
