# Generated by pormake.
# Topology ptr, (4,4)-cn, num edge types: 1
# Building blocks:
#     Node 0, Type 0, BuildingBlock: NAHDIM_clean_sbu_0, # of connection points: 4
#     Node 1, Type 0, BuildingBlock: NAHDIM_clean_sbu_0, # of connection points: 4
#     Node 2, Type 0, BuildingBlock: NAHDIM_clean_sbu_0, # of connection points: 4
#     Node 3, Type 0, BuildingBlock: NAHDIM_clean_sbu_0, # of connection points: 4
#     Node 4, Type 0, BuildingBlock: NAHDIM_clean_sbu_0, # of connection points: 4
#     Node 5, Type 0, BuildingBlock: NAHDIM_clean_sbu_0, # of connection points: 4
#     Node 6, Type 0, BuildingBlock: NAHDIM_clean_sbu_0, # of connection points: 4
#     Node 7, Type 0, BuildingBlock: NAHDIM_clean_sbu_0, # of connection points: 4
#     Node 8, Type 0, BuildingBlock: NAHDIM_clean_sbu_0, # of connection points: 4
#     Node 9, Type 0, BuildingBlock: NAHDIM_clean_sbu_0, # of connection points: 4
#     Node 10, Type 0, BuildingBlock: NAHDIM_clean_sbu_0, # of connection points: 4
#     Node 11, Type 0, BuildingBlock: NAHDIM_clean_sbu_0, # of connection points: 4
#     Node 12, Type 0, BuildingBlock: NAHDIM_clean_sbu_0, # of connection points: 4
#     Node 13, Type 0, BuildingBlock: NAHDIM_clean_sbu_0, # of connection points: 4
#     Node 14, Type 0, BuildingBlock: NAHDIM_clean_sbu_0, # of connection points: 4
#     Node 15, Type 0, BuildingBlock: NAHDIM_clean_sbu_0, # of connection points: 4
#     Node 16, Type 0, BuildingBlock: NAHDIM_clean_sbu_0, # of connection points: 4
#     Node 17, Type 0, BuildingBlock: NAHDIM_clean_sbu_0, # of connection points: 4
#     Node 18, Type 1, BuildingBlock: KUFVIS_clean_linker_0, # of connection points: 4
#     Node 19, Type 1, BuildingBlock: KUFVIS_clean_linker_0, # of connection points: 4
#     Node 20, Type 1, BuildingBlock: KUFVIS_clean_linker_0, # of connection points: 4
#     Node 21, Type 1, BuildingBlock: KUFVIS_clean_linker_0, # of connection points: 4
#     Node 22, Type 1, BuildingBlock: KUFVIS_clean_linker_0, # of connection points: 4
#     Node 23, Type 1, BuildingBlock: KUFVIS_clean_linker_0, # of connection points: 4
#     Node 24, Type 1, BuildingBlock: KUFVIS_clean_linker_0, # of connection points: 4
#     Node 25, Type 1, BuildingBlock: KUFVIS_clean_linker_0, # of connection points: 4
#     Node 26, Type 1, BuildingBlock: KUFVIS_clean_linker_0, # of connection points: 4
#     Node 27, Type 1, BuildingBlock: KUFVIS_clean_linker_0, # of connection points: 4
#     Node 28, Type 1, BuildingBlock: KUFVIS_clean_linker_0, # of connection points: 4
#     Node 29, Type 1, BuildingBlock: KUFVIS_clean_linker_0, # of connection points: 4
#     Node 30, Type 1, BuildingBlock: KUFVIS_clean_linker_0, # of connection points: 4
#     Node 31, Type 1, BuildingBlock: KUFVIS_clean_linker_0, # of connection points: 4
#     Node 32, Type 1, BuildingBlock: KUFVIS_clean_linker_0, # of connection points: 4
#     Node 33, Type 1, BuildingBlock: KUFVIS_clean_linker_0, # of connection points: 4
#     Node 34, Type 1, BuildingBlock: KUFVIS_clean_linker_0, # of connection points: 4
#     Node 35, Type 1, BuildingBlock: KUFVIS_clean_linker_0, # of connection points: 4
#     Edge 36, Type (0, 1), BuildingBlock: MIFKUJ_clean_linker_0, # of connection points: 2
#     Edge 37, Type (0, 1), BuildingBlock: MIFKUJ_clean_linker_0, # of connection points: 2
#     Edge 38, Type (0, 1), BuildingBlock: MIFKUJ_clean_linker_0, # of connection points: 2
#     Edge 39, Type (0, 1), BuildingBlock: MIFKUJ_clean_linker_0, # of connection points: 2
#     Edge 40, Type (0, 1), BuildingBlock: MIFKUJ_clean_linker_0, # of connection points: 2
#     Edge 41, Type (0, 1), BuildingBlock: MIFKUJ_clean_linker_0, # of connection points: 2
#     Edge 42, Type (0, 1), BuildingBlock: MIFKUJ_clean_linker_0, # of connection points: 2
#     Edge 43, Type (0, 1), BuildingBlock: MIFKUJ_clean_linker_0, # of connection points: 2
#     Edge 44, Type (0, 1), BuildingBlock: MIFKUJ_clean_linker_0, # of connection points: 2
#     Edge 45, Type (0, 1), BuildingBlock: MIFKUJ_clean_linker_0, # of connection points: 2
#     Edge 46, Type (0, 1), BuildingBlock: MIFKUJ_clean_linker_0, # of connection points: 2
#     Edge 47, Type (0, 1), BuildingBlock: MIFKUJ_clean_linker_0, # of connection points: 2
#     Edge 48, Type (0, 1), BuildingBlock: MIFKUJ_clean_linker_0, # of connection points: 2
#     Edge 49, Type (0, 1), BuildingBlock: MIFKUJ_clean_linker_0, # of connection points: 2
#     Edge 50, Type (0, 1), BuildingBlock: MIFKUJ_clean_linker_0, # of connection points: 2
#     Edge 51, Type (0, 1), BuildingBlock: MIFKUJ_clean_linker_0, # of connection points: 2
#     Edge 52, Type (0, 1), BuildingBlock: MIFKUJ_clean_linker_0, # of connection points: 2
#     Edge 53, Type (0, 1), BuildingBlock: MIFKUJ_clean_linker_0, # of connection points: 2
#     Edge 54, Type (0, 1), BuildingBlock: MIFKUJ_clean_linker_0, # of connection points: 2
#     Edge 55, Type (0, 1), BuildingBlock: MIFKUJ_clean_linker_0, # of connection points: 2
#     Edge 56, Type (0, 1), BuildingBlock: MIFKUJ_clean_linker_0, # of connection points: 2
#     Edge 57, Type (0, 1), BuildingBlock: MIFKUJ_clean_linker_0, # of connection points: 2
#     Edge 58, Type (0, 1), BuildingBlock: MIFKUJ_clean_linker_0, # of connection points: 2
#     Edge 59, Type (0, 1), BuildingBlock: MIFKUJ_clean_linker_0, # of connection points: 2
#     Edge 60, Type (0, 1), BuildingBlock: MIFKUJ_clean_linker_0, # of connection points: 2
#     Edge 61, Type (0, 1), BuildingBlock: MIFKUJ_clean_linker_0, # of connection points: 2
#     Edge 62, Type (0, 1), BuildingBlock: MIFKUJ_clean_linker_0, # of connection points: 2
#     Edge 63, Type (0, 1), BuildingBlock: MIFKUJ_clean_linker_0, # of connection points: 2
#     Edge 64, Type (0, 1), BuildingBlock: MIFKUJ_clean_linker_0, # of connection points: 2
#     Edge 65, Type (0, 1), BuildingBlock: MIFKUJ_clean_linker_0, # of connection points: 2
#     Edge 66, Type (0, 1), BuildingBlock: MIFKUJ_clean_linker_0, # of connection points: 2
#     Edge 67, Type (0, 1), BuildingBlock: MIFKUJ_clean_linker_0, # of connection points: 2
#     Edge 68, Type (0, 1), BuildingBlock: MIFKUJ_clean_linker_0, # of connection points: 2
#     Edge 69, Type (0, 1), BuildingBlock: MIFKUJ_clean_linker_0, # of connection points: 2
#     Edge 70, Type (0, 1), BuildingBlock: MIFKUJ_clean_linker_0, # of connection points: 2
#     Edge 71, Type (0, 1), BuildingBlock: MIFKUJ_clean_linker_0, # of connection points: 2
#     Edge 72, Type (0, 1), BuildingBlock: MIFKUJ_clean_linker_0, # of connection points: 2
#     Edge 73, Type (0, 1), BuildingBlock: MIFKUJ_clean_linker_0, # of connection points: 2
#     Edge 74, Type (0, 1), BuildingBlock: MIFKUJ_clean_linker_0, # of connection points: 2
#     Edge 75, Type (0, 1), BuildingBlock: MIFKUJ_clean_linker_0, # of connection points: 2
#     Edge 76, Type (0, 1), BuildingBlock: MIFKUJ_clean_linker_0, # of connection points: 2
#     Edge 77, Type (0, 1), BuildingBlock: MIFKUJ_clean_linker_0, # of connection points: 2
#     Edge 78, Type (0, 1), BuildingBlock: MIFKUJ_clean_linker_0, # of connection points: 2
#     Edge 79, Type (0, 1), BuildingBlock: MIFKUJ_clean_linker_0, # of connection points: 2
#     Edge 80, Type (0, 1), BuildingBlock: MIFKUJ_clean_linker_0, # of connection points: 2
#     Edge 81, Type (0, 1), BuildingBlock: MIFKUJ_clean_linker_0, # of connection points: 2
#     Edge 82, Type (0, 1), BuildingBlock: MIFKUJ_clean_linker_0, # of connection points: 2
#     Edge 83, Type (0, 1), BuildingBlock: MIFKUJ_clean_linker_0, # of connection points: 2
#     Edge 84, Type (0, 1), BuildingBlock: MIFKUJ_clean_linker_0, # of connection points: 2
#     Edge 85, Type (0, 1), BuildingBlock: MIFKUJ_clean_linker_0, # of connection points: 2
#     Edge 86, Type (0, 1), BuildingBlock: MIFKUJ_clean_linker_0, # of connection points: 2
#     Edge 87, Type (0, 1), BuildingBlock: MIFKUJ_clean_linker_0, # of connection points: 2
#     Edge 88, Type (0, 1), BuildingBlock: MIFKUJ_clean_linker_0, # of connection points: 2
#     Edge 89, Type (0, 1), BuildingBlock: MIFKUJ_clean_linker_0, # of connection points: 2
#     Edge 90, Type (0, 1), BuildingBlock: MIFKUJ_clean_linker_0, # of connection points: 2
#     Edge 91, Type (0, 1), BuildingBlock: MIFKUJ_clean_linker_0, # of connection points: 2
#     Edge 92, Type (0, 1), BuildingBlock: MIFKUJ_clean_linker_0, # of connection points: 2
#     Edge 93, Type (0, 1), BuildingBlock: MIFKUJ_clean_linker_0, # of connection points: 2
#     Edge 94, Type (0, 1), BuildingBlock: MIFKUJ_clean_linker_0, # of connection points: 2
#     Edge 95, Type (0, 1), BuildingBlock: MIFKUJ_clean_linker_0, # of connection points: 2
#     Edge 96, Type (0, 1), BuildingBlock: MIFKUJ_clean_linker_0, # of connection points: 2
#     Edge 97, Type (0, 1), BuildingBlock: MIFKUJ_clean_linker_0, # of connection points: 2
#     Edge 98, Type (0, 1), BuildingBlock: MIFKUJ_clean_linker_0, # of connection points: 2
#     Edge 99, Type (0, 1), BuildingBlock: MIFKUJ_clean_linker_0, # of connection points: 2
#     Edge 100, Type (0, 1), BuildingBlock: MIFKUJ_clean_linker_0, # of connection points: 2
#     Edge 101, Type (0, 1), BuildingBlock: MIFKUJ_clean_linker_0, # of connection points: 2
#     Edge 102, Type (0, 1), BuildingBlock: MIFKUJ_clean_linker_0, # of connection points: 2
#     Edge 103, Type (0, 1), BuildingBlock: MIFKUJ_clean_linker_0, # of connection points: 2
#     Edge 104, Type (0, 1), BuildingBlock: MIFKUJ_clean_linker_0, # of connection points: 2
#     Edge 105, Type (0, 1), BuildingBlock: MIFKUJ_clean_linker_0, # of connection points: 2
#     Edge 106, Type (0, 1), BuildingBlock: MIFKUJ_clean_linker_0, # of connection points: 2
#     Edge 107, Type (0, 1), BuildingBlock: MIFKUJ_clean_linker_0, # of connection points: 2
# Relax obj value: 0.076
# Max RMSD: 0.211
# Mean RMSD: 0.121
data_MOF--net-ptr--node1-NAHDIM_clean_sbu_0--node2-KUFVIS_clean_linker_0--edge1-MIFKUJ_clean_linker_0
_symmetry_space_group_name_H-M    P1
_symmetry_Int_Tables_number       1
_symmetry_cell_setting            triclinic
loop_
_symmetry_equiv_pos_as_xyz
'x, y, z'
_cell_length_a     103.89475
_cell_length_b     102.1253
_cell_length_c     61.042154
_cell_angle_alpha  91.580602
_cell_angle_beta   89.291562
_cell_angle_gamma 121.62481
loop_
_atom_site_label
_atom_site_type_symbol
_atom_site_fract_x
_atom_site_fract_y
_atom_site_fract_z
_atom_type_partial_charge
C0 C 0.03147 0.35422 0.996 0.0
O1 O 0.02351 0.34587 0.97895 0.0
O2 O 0.99034 0.3393 0.99609 0.0
Zn3 Zn 0.00786 0.3614 -0.00077 0.0
O4 O 0.0035 0.37273 0.02308 0.0
C5 C 0.99928 0.37016 0.96002 0.0
O6 O 0.98584 0.35865 0.96528 0.0
O7 O 0.02701 0.36189 0.00696 0.0
C8 C 0.00901 0.3871 0.02129 0.0
O9 O 0.01775 0.39419 0.00452 0.0
C10 C 0.97697 0.33528 0.0019 0.0
O11 O 0.97446 0.34568 0.01049 0.0
O12 O 0.01066 0.37283 0.9713 0.0
C13 C 0.6767 0.65416 0.00505 0.0
O14 O 0.67314 0.66304 0.99495 0.0
O15 O 0.65095 0.6647 0.02855 0.0
Zn16 Zn 0.64742 0.64337 0.02311 0.0
O17 O 0.63466 0.63387 0.99588 0.0
C18 C 0.63993 0.623 0.06082 0.0
O19 O 0.65389 0.62611 0.05956 0.0
O20 O 0.66736 0.64457 0.01864 0.0
C21 C 0.62043 0.62803 0.997 0.0
O22 O 0.61447 0.62881 0.01572 0.0
C23 C 0.64135 0.66676 0.03868 0.0
O24 O 0.62902 0.6548 0.04629 0.0
O25 O 0.6355 0.62935 0.04779 0.0
C26 C 0.37323 0.04427 0.00648 0.0
O27 O 0.38657 0.04585 0.00434 0.0
O28 O 0.34329 0.99417 0.02192 0.0
Zn29 Zn 0.36424 0.0131 0.01755 0.0
O30 O 0.37475 0.00997 0.99148 0.0
C31 C 0.37407 0.00828 0.05971 0.0
O32 O 0.36042 0.99598 0.06015 0.0
O33 O 0.36205 0.03136 0.01219 0.0
C34 C 0.38342 0.00482 0.99429 0.0
O35 O 0.38486 1.00092 0.01402 0.0
C36 C 0.34036 0.98044 0.01966 0.0
O37 O 0.35128 0.97813 0.01407 0.0
O38 O 0.37773 0.01749 0.04397 0.0
C39 C 0.97891 0.66024 0.01631 0.0
O40 O 0.99117 0.67263 0.02378 0.0
O41 O 0.01593 0.66715 0.02654 0.0
Zn42 Zn 0.99738 0.64625 0.01934 0.0
O43 O 1.00192 0.63714 0.9925 0.0
C44 C 1.00137 0.63522 0.06093 0.0
O45 O 0.01242 0.64958 0.06382 0.0
O46 O 0.97893 0.64784 0.01345 0.0
C47 C 0.00725 0.62855 0.99525 0.0
O48 O 0.01012 0.62628 0.01521 0.0
C49 C 0.0223 0.67769 0.01251 0.0
O50 O 0.01664 0.67509 0.99262 0.0
O51 O 0.99299 0.63152 0.04405 0.0
C52 C 0.31957 0.34603 0.00673 0.0
O53 O 0.32129 0.33468 0.01217 0.0
O54 O 0.34822 0.33887 0.99419 0.0
Zn55 Zn 0.35144 0.36025 0.99808 0.0
O56 O 0.36365 0.37149 0.02522 0.0
C57 C 0.37124 0.37033 0.95997 0.0
O58 O 0.36988 0.35685 0.96142 0.0
O59 O 0.331 0.35842 2e-05 0.0
C60 C 0.37785 0.37706 0.02493 0.0
O61 O 0.38387 0.37424 0.0078 0.0
C62 C 0.35431 0.33334 0.00567 0.0
O63 O 0.36366 0.34177 0.02153 0.0
O64 O 0.36374 0.37377 0.97297 0.0
C65 C 0.65393 0.97905 0.01299 0.0
O66 O 0.66423 0.99272 0.02066 0.0
O67 O 0.66156 0.01499 0.99279 0.0
Zn68 Zn 0.64094 0.99627 0.99889 0.0
O69 O 0.63167 0.99985 0.0259 0.0
C70 C 0.63015 0.00193 0.95864 0.0
O71 O 0.64425 0.01331 0.95706 0.0
O72 O 0.64262 0.97754 0.00276 0.0
C73 C 0.62622 0.00838 0.02396 0.0
O74 O 0.62802 0.01532 0.00537 0.0
C75 C 0.67026 0.02473 0.0073 0.0
O76 O 0.66593 0.02285 0.02788 0.0
O77 O 0.62643 0.99264 0.97428 0.0
C78 C 0.70387 0.70264 0.34238 0.0
O79 O 0.70532 0.71613 0.34555 0.0
O80 O 0.6546 0.67344 0.32491 0.0
Zn81 Zn 0.6736 0.69418 0.33149 0.0
O82 O 0.6711 0.70479 0.35821 0.0
C83 C 0.66884 0.70679 0.29246 0.0
O84 O 0.65505 0.69472 0.29355 0.0
O85 O 0.69113 0.69126 0.33627 0.0
C86 C 0.66311 0.71086 0.35713 0.0
O87 O 0.65591 0.70943 0.33883 0.0
C88 C 0.64245 0.66787 0.33596 0.0
O89 O 0.64185 0.6757 0.35295 0.0
O90 O 0.67863 0.70853 0.3064 0.0
C91 C 0.34116 0.96926 0.33848 0.0
O92 O 0.32846 0.95672 0.33253 0.0
O93 O 0.32434 0.99998 0.35972 0.0
Zn94 Zn 0.32057 0.97874 0.35209 0.0
O95 O 0.30778 0.96942 0.3248 0.0
C96 C 0.3013 0.96553 0.39054 0.0
O97 O 0.30071 0.97807 0.3906 0.0
O98 O 0.34065 0.98039 0.34736 0.0
C99 C 0.2937 0.96443 0.32533 0.0
O100 O 0.28781 0.96632 0.34342 0.0
C101 C 0.31929 0.00674 0.34869 0.0
O102 O 0.31097 0.99978 0.33124 0.0
O103 O 0.30937 0.96381 0.3763 0.0
C104 C 0.02518 0.36543 0.35036 0.0
O105 O 0.01632 0.35669 0.36606 0.0
O106 O 0.01432 0.32427 0.35363 0.0
Zn107 Zn 0.03483 0.34289 0.34658 0.0
O108 O 0.04309 0.33788 0.31969 0.0
C109 C 0.05453 0.35689 0.38627 0.0
O110 O 0.04964 0.36641 0.38796 0.0
O111 O 0.03379 0.3618 0.34053 0.0
C112 C 0.04759 0.32852 0.32136 0.0
O113 O 0.04599 0.32189 0.34019 0.0
C114 C 1.00226 0.32061 0.34332 0.0
O115 O 0.00284 0.32945 0.32763 0.0
O116 O 0.0496 0.34676 0.3709 0.0
C117 C 0.64831 0.99482 0.34152 0.0
O118 O 0.6616 0.00654 0.3361 0.0
O119 O 0.6851 0.00391 0.35375 0.0
Zn120 Zn 0.6666 0.98224 0.35249 0.0
O121 O 0.66765 0.96941 0.32751 0.0
C122 C 0.65471 0.95805 0.3838 0.0
O123 O 0.64268 0.95226 0.37122 0.0
O124 O 0.64753 0.98298 0.34926 0.0
C125 C 0.67528 0.96305 0.32995 0.0
O126 O 0.68319 0.96593 0.348 0.0
C127 C 0.69711 0.00857 0.34262 0.0
O128 O 0.69808 0.99894 0.329 0.0
O129 O 0.666 0.97132 0.37984 0.0
C130 C 0.98436 0.67453 0.34148 0.0
O131 O 0.98665 0.66392 0.34872 0.0
O132 O 0.01535 0.66942 0.32731 0.0
Zn133 Zn 0.01639 0.68973 0.33133 0.0
O134 O 0.02805 0.70128 0.35863 0.0
C135 C 0.03851 0.70252 0.29672 0.0
O136 O 0.04081 0.69159 0.30239 0.0
O137 O 0.99535 0.68649 0.33303 0.0
C138 C 0.04133 0.704 0.36167 0.0
O139 O 0.04679 0.69805 0.34786 0.0
C140 C 0.01461 0.66089 0.3427 0.0
O141 O 0.01434 0.66509 0.36315 0.0
O142 O 0.02805 0.70353 0.30611 0.0
C143 C 0.30478 0.30564 0.36215 0.0
O144 O 0.30043 0.31106 0.37848 0.0
O145 O 0.32282 0.34824 0.33119 0.0
Zn146 Zn 0.303 0.32877 0.33785 0.0
O147 O 0.29322 0.33268 0.36416 0.0
C148 C 0.29215 0.32669 0.29264 0.0
O149 O 0.30643 0.3336 0.28688 0.0
O150 O 0.30651 0.31133 0.34328 0.0
C151 C 0.28325 0.33611 0.36101 0.0
O152 O 0.28002 0.33768 0.3409 0.0
C153 C 0.33543 0.35104 0.33861 0.0
O154 O 0.33573 0.34096 0.35119 0.0
O155 O 0.28855 0.32313 0.31251 0.0
C156 C 0.36762 0.03666 0.6818 0.0
O157 O 0.36741 0.04898 0.68797 0.0
O158 O 0.31882 0.00414 0.66514 0.0
Zn159 Zn 0.33675 0.02598 0.66948 0.0
O160 O 0.33411 0.03644 0.69631 0.0
C161 C 0.32832 0.03467 0.62949 0.0
O162 O 0.31632 0.02073 0.63043 0.0
O163 O 0.35582 0.02534 0.67308 0.0
C164 C 0.32652 0.04294 0.69501 0.0
O165 O 0.3198 0.04203 0.67645 0.0
C166 C 0.30559 0.99941 0.67245 0.0
O167 O 0.30312 0.00887 0.68408 0.0
O168 O 0.33875 0.03902 0.64369 0.0
C169 C 0.01355 0.32157 0.6883 0.0
O170 O 0.0143 0.33205 0.7021 0.0
O171 O 0.98716 0.33416 0.69152 0.0
Zn172 Zn 0.98187 0.31225 0.68518 0.0
O173 O 0.9685 0.30335 0.6583 0.0
C174 C 0.97417 0.29143 0.72224 0.0
O175 O 0.98782 0.2938 0.71996 0.0
O176 O 1.00093 0.31191 0.67943 0.0
C177 C 0.95417 0.29629 0.65997 0.0
O178 O 0.94808 0.29531 0.6793 0.0
C179 C 0.97703 0.33742 0.69482 0.0
O180 O 0.96275 0.32629 0.69431 0.0
O181 O 0.96998 0.29844 0.71009 0.0
C182 C 0.69154 0.70263 0.68624 0.0
O183 O 0.68096 0.69239 0.699 0.0
O184 O 0.6791 0.66192 0.68666 0.0
Zn185 Zn 0.70048 0.67974 0.68085 0.0
O186 O 0.70808 0.67539 0.65262 0.0
C187 C 0.71951 0.68996 0.7214 0.0
O188 O 0.71372 0.69842 0.72648 0.0
O189 O 0.701 0.69977 0.67745 0.0
C190 C 0.71199 0.66548 0.65235 0.0
O191 O 0.71018 0.65774 0.67013 0.0
C192 C 0.67667 0.65022 0.69711 0.0
O193 O 0.68823 0.6499 0.70489 0.0
O194 O 0.71521 0.68165 0.70399 0.0
C195 C 0.31596 0.33065 0.6739 0.0
O196 O 0.32905 0.34369 0.67399 0.0
O197 O 0.35328 0.33914 0.68142 0.0
Zn198 Zn 0.33507 0.31755 0.67615 0.0
O199 O 0.33674 0.30784 0.64769 0.0
C200 C 0.34573 0.3038 0.70589 0.0
O201 O 0.35867 0.31376 0.69686 0.0
O202 O 0.31571 0.31809 0.6751 0.0
C203 C 0.34898 0.30942 0.64032 0.0
O204 O 0.3617 0.31855 0.65085 0.0
C205 C 0.36112 0.34843 0.66642 0.0
O206 O 0.3576 0.34418 0.64577 0.0
O207 O 0.33385 0.30359 0.70029 0.0
C208 C 0.66436 0.03392 0.68039 0.0
O209 O 0.67599 0.04459 0.69174 0.0
O210 O 0.68302 0.00546 0.66011 0.0
Zn211 Zn 0.68666 0.02703 0.66437 0.0
O212 O 0.69931 0.03797 0.69148 0.0
C213 C 0.70595 0.03728 0.62565 0.0
O214 O 0.70498 0.02399 0.62709 0.0
O215 O 0.66624 0.0252 0.66719 0.0
C216 C 0.71366 0.0448 0.69054 0.0
O217 O 0.71998 0.04359 0.67245 0.0
C218 C 0.69084 1.00072 0.6689 0.0
O219 O 0.70216 0.0101 0.68183 0.0
O220 O 0.69847 0.04056 0.63896 0.0
C221 C 0.98256 0.64188 0.66808 0.0
O222 O 0.99483 0.65286 0.65874 0.0
O223 O 0.99551 0.68161 0.66495 0.0
Zn224 Zn 0.97357 0.66457 0.66824 0.0
O225 O 0.96348 0.66877 0.69369 0.0
C226 C 0.96239 0.67549 0.6358 0.0
O227 O 0.97103 0.6883 0.64709 0.0
O228 O 0.972 0.64423 0.67311 0.0
C229 C 0.94909 0.66113 0.69372 0.0
O230 O 0.94186 0.651 0.6778 0.0
C231 C 1.00166 0.69457 0.67507 0.0
O232 O 0.99358 0.69736 0.68896 0.0
O233 O 0.962 0.66335 0.64117 0.0
H234 H 0.20437 0.32156 0.11202 0.0
H235 H 0.1703 0.3266 0.08186 0.0
H236 H 0.1747 0.32864 0.15271 0.0
H237 H 0.15018 0.31884 0.15209 0.0
H238 H 0.12162 0.33334 0.12658 0.0
H239 H 0.15921 0.33972 0.08836 0.0
C240 C 0.19473 0.32295 0.11356 0.0
C241 C 0.18982 0.32432 0.1344 0.0
C242 C 0.18797 0.32416 0.09471 0.0
C243 C 0.17568 0.32626 0.0967 0.0
C244 C 0.17031 0.32755 0.11763 0.0
C245 C 0.17793 0.32703 0.13641 0.0
C246 C 0.15678 0.32921 0.11998 0.0
C247 C 0.14777 0.32428 0.13914 0.0
C248 C 0.13519 0.32584 0.14162 0.0
C249 C 0.13136 0.33215 0.12473 0.0
C250 C 0.13983 0.33691 0.10545 0.0
C251 C 0.15256 0.33554 0.10313 0.0
H252 H 0.66547 0.88163 0.13632 0.0
H253 H 0.67112 0.84998 0.09609 0.0
H254 H 0.66624 0.84466 0.16641 0.0
H255 H 0.68225 0.83659 0.16123 0.0
H256 H 0.67716 0.79748 0.12558 0.0
H257 H 0.66082 0.82392 0.0972 0.0
C258 C 0.66624 0.87146 0.1349 0.0
C259 C 0.66579 0.86377 0.15378 0.0
C260 C 0.6679 0.86637 0.11415 0.0
C261 C 0.66933 0.85345 0.11219 0.0
C262 C 0.66909 0.84556 0.13102 0.0
C263 C 0.66704 0.85076 0.15173 0.0
C264 C 0.67143 0.83227 0.12927 0.0
C265 C 0.67835 0.82926 0.14665 0.0
C266 C 0.68039 0.81673 0.14542 0.0
C267 C 0.67597 0.80743 0.12645 0.0
C268 C 0.66911 0.8101 0.10908 0.0
C269 C 0.66665 0.82236 0.11049 0.0
H270 H 0.22255 0.88008 0.12825 0.0
H271 H 0.1852 0.84469 0.09166 0.0
H272 H 0.18088 0.85156 0.16137 0.0
H273 H 0.16258 0.8283 0.16132 0.0
H274 H 0.12157 0.7999 0.12603 0.0
H275 H 0.16106 0.83143 0.09056 0.0
C276 C 0.21098 0.87037 0.12797 0.0
C277 C 0.20255 0.86604 0.14725 0.0
C278 C 0.20457 0.86291 0.10804 0.0
C279 C 0.18956 0.85046 0.10731 0.0
C280 C 0.18056 0.84574 0.12657 0.0
C281 C 0.1873 0.8541 0.14639 0.0
C282 C 0.16425 0.83253 0.12613 0.0
C283 C 0.15668 0.82535 0.14582 0.0
C284 C 0.14123 0.81405 0.14584 0.0
C285 C 0.13335 0.80912 0.12608 0.0
C286 C 0.14067 0.81496 0.10623 0.0
C287 C 0.15596 0.82682 0.1062 0.0
H288 H 0.34835 0.13355 0.89059 0.0
H289 H 0.35076 0.17242 0.92296 0.0
H290 H 0.33539 0.16061 0.85553 0.0
H291 H 0.34502 0.18562 0.8533 0.0
H292 H 0.33304 0.21541 0.88542 0.0
H293 H 0.33617 0.18244 0.92324 0.0
C294 C 0.34703 0.14338 0.88992 0.0
C295 C 0.3421 0.14639 0.87056 0.0
C296 C 0.34994 0.15258 0.90874 0.0
C297 C 0.34804 0.16521 0.90834 0.0
C298 C 0.34287 0.16849 0.88906 0.0
C299 C 0.33971 0.15872 0.87037 0.0
C300 C 0.34059 0.18186 0.88832 0.0
C301 C 0.34171 0.18904 0.86823 0.0
C302 C 0.33847 0.20072 0.86714 0.0
C303 C 0.33487 0.20589 0.88626 0.0
C304 C 0.33442 0.19962 0.90653 0.0
C305 C 0.33709 0.1875 0.90752 0.0
H306 H 0.78325 0.12846 0.88631 0.0
H307 H 0.82262 0.15612 0.92575 0.0
H308 H 0.82453 0.16127 0.85527 0.0
H309 H 0.84819 0.16887 0.85924 0.0
H310 H 0.88521 0.20491 0.89583 0.0
H311 H 0.84158 0.18055 0.92564 0.0
C312 C 0.79503 0.13766 0.88746 0.0
C313 C 0.80327 0.14414 0.86836 0.0
C314 C 0.80189 0.14226 0.90808 0.0
C315 C 0.8174 0.1533 0.90971 0.0
C316 C 0.82598 0.1605 0.89076 0.0
C317 C 0.81858 0.15583 0.87014 0.0
C318 C 0.84252 0.17268 0.8924 0.0
C319 C 0.85229 0.17558 0.87433 0.0
C320 C 0.8676 0.18733 0.87539 0.0
C321 C 0.87347 0.1956 0.89504 0.0
C322 C 0.86419 0.19296 0.91324 0.0
C323 C 0.84869 0.18182 0.91176 0.0
H324 H 0.79382 0.67344 0.89345 0.0
H325 H 0.82246 0.66198 0.92665 0.0
H326 H 0.83555 0.68382 0.86352 0.0
H327 H 0.84688 0.67051 0.86017 0.0
H328 H 0.88284 0.67237 0.89655 0.0
H329 H 0.84761 0.67393 0.93115 0.0
C330 C 0.80427 0.67347 0.89388 0.0
C331 C 0.81429 0.67917 0.87623 0.0
C332 C 0.80735 0.66758 0.91208 0.0
C333 C 0.82055 0.66702 0.91264 0.0
C334 C 0.83098 0.67271 0.89506 0.0
C335 C 0.82766 0.67888 0.87695 0.0
C336 C 0.84526 0.67233 0.89556 0.0
C337 C 0.85212 0.67145 0.87581 0.0
C338 C 0.86589 0.67191 0.87599 0.0
C339 C 0.8725 0.67256 0.89614 0.0
C340 C 0.86583 0.67306 0.91589 0.0
C341 C 0.85232 0.67305 0.91566 0.0
H342 H 0.87343 0.66328 0.45962 0.0
H343 H 0.84117 0.66665 0.42095 0.0
H344 H 0.84382 0.67495 0.49133 0.0
H345 H 0.81933 0.66529 0.48813 0.0
H346 H 0.79343 0.67954 0.45319 0.0
H347 H 0.8313 0.68142 0.42169 0.0
C348 C 0.86407 0.66511 0.45854 0.0
C349 C 0.85879 0.66854 0.47761 0.0
C350 C 0.85806 0.66487 0.43806 0.0
C351 C 0.84605 0.66745 0.43684 0.0
C352 C 0.84031 0.67071 0.45605 0.0
C353 C 0.84724 0.6717 0.47637 0.0
C354 C 0.82721 0.67308 0.45509 0.0
C355 C 0.81759 0.66986 0.47345 0.0
C356 C 0.80568 0.67262 0.47318 0.0
C357 C 0.80293 0.67793 0.45399 0.0
C358 C 0.812 0.68089 0.43549 0.0
C359 C 0.82417 0.6786 0.43602 0.0
H360 H 0.34408 0.21981 0.46022 0.0
H361 H 0.3308 0.17716 0.42656 0.0
H362 H 0.34343 0.18384 0.4953 0.0
H363 H 0.32755 0.1585 0.49538 0.0
H364 H 0.32964 0.122 0.46303 0.0
H365 H 0.34148 0.16231 0.42732 0.0
C366 C 0.34246 0.2084 0.46025 0.0
C367 C 0.34407 0.20267 0.4798 0.0
C368 C 0.33778 0.1993 0.44108 0.0
C369 C 0.33491 0.18425 0.44136 0.0
C370 C 0.33713 0.1784 0.4608 0.0
C371 C 0.34165 0.18783 0.48005 0.0
C372 C 0.33464 0.16254 0.46117 0.0
C373 C 0.32995 0.15401 0.48067 0.0
C374 C 0.32815 0.13943 0.4813 0.0
C375 C 0.33081 0.13319 0.46245 0.0
C376 C 0.33551 0.14134 0.44306 0.0
C377 C 0.3374 0.15597 0.44231 0.0
H378 H 0.88923 0.21748 0.45686 0.0
H379 H 0.8554 0.17765 0.42147 0.0
H380 H 0.84815 0.18583 0.4894 0.0
H381 H 0.83436 0.16081 0.49032 0.0
H382 H 0.79548 0.12596 0.45553 0.0
H383 H 0.83031 0.16391 0.42017 0.0
C384 C 0.87826 0.20686 0.45661 0.0
C385 C 0.8695 0.20225 0.47561 0.0
C386 C 0.87314 0.19815 0.43715 0.0
C387 C 0.85888 0.18449 0.43651 0.0
C388 C 0.84955 0.17959 0.45541 0.0
C389 C 0.85499 0.18892 0.47475 0.0
C390 C 0.83447 0.16468 0.45528 0.0
C391 C 0.82825 0.15668 0.47499 0.0
C392 C 0.81419 0.14284 0.47508 0.0
C393 C 0.8063 0.13674 0.45545 0.0
C394 C 0.81215 0.1442 0.4357 0.0
C395 C 0.82617 0.15816 0.43558 0.0
H396 H 0.00515 0.45717 0.21776 0.0
H397 H 0.01212 0.4956 0.25739 0.0
H398 H 0.99479 0.48892 0.19117 0.0
H399 H 0.00767 0.5142 0.1914 0.0
H400 H 0.00416 0.54766 0.23035 0.0
H401 H 1.00084 0.50911 0.26171 0.0
C402 C 0.00448 0.46738 0.21969 0.0
C403 C 0.99971 0.47229 0.20208 0.0
C404 C 0.00865 0.47556 0.23971 0.0
C405 C 0.00829 0.48911 0.24208 0.0
C406 C 0.00363 0.49446 0.22446 0.0
C407 C 0.99904 0.48561 0.20469 0.0
C408 C 0.00388 0.50933 0.22625 0.0
C409 C 0.00579 0.5179 0.20726 0.0
C410 C 0.00581 0.53167 0.20857 0.0
C411 C 0.00425 0.53709 0.22906 0.0
C412 C 0.00282 0.52919 0.2481 0.0
C413 C 1.00241 0.51524 0.24678 0.0
H414 H 0.44627 0.46222 0.21622 0.0
H415 H 0.48419 0.48842 0.25909 0.0
H416 H 0.489 0.49529 0.18899 0.0
H417 H 0.51227 0.50113 0.19564 0.0
H418 H 0.54773 0.53795 0.23362 0.0
H419 H 0.50282 0.51398 0.25936 0.0
C420 C 0.45803 0.47125 0.21851 0.0
C421 C 0.46705 0.47821 0.20021 0.0
C422 C 0.46406 0.47509 0.23971 0.0
C423 C 0.47954 0.48597 0.24267 0.0
C424 C 0.48887 0.49355 0.22448 0.0
C425 C 0.48234 0.48956 0.20328 0.0
C426 C 0.50532 0.50551 0.22745 0.0
C427 C 0.51582 0.50807 0.21059 0.0
C428 C 0.53106 0.51988 0.21259 0.0
C429 C 0.53607 0.52854 0.23212 0.0
C430 C 0.52598 0.5263 0.24902 0.0
C431 C 0.5106 0.515 0.2466 0.0
H432 H 0.45697 0.99627 0.22577 0.0
H433 H 0.48969 0.98871 0.25497 0.0
H434 H 0.49874 0.01133 0.19253 0.0
H435 H 0.51296 1.00142 0.18718 0.0
H436 H 0.55152 0.00669 0.22035 0.0
H437 H 0.51466 0.00244 0.25818 0.0
C438 C 0.46795 0.99739 0.22516 0.0
C439 C 0.47731 0.00413 0.20713 0.0
C440 C 0.47249 0.99201 0.2424 0.0
C441 C 0.48662 0.99332 0.24165 0.0
C442 C 0.49643 1.00019 0.2236 0.0
C443 C 0.49152 0.00562 0.20637 0.0
C444 C 0.51167 0.00178 0.22277 0.0
C445 C 0.51868 0.00252 0.20241 0.0
C446 C 0.53324 0.0048 0.20146 0.0
C447 C 0.54056 0.00561 0.22097 0.0
C448 C 0.53379 0.0045 0.2413 0.0
C449 C 0.51945 0.00273 0.24223 0.0
H450 H 0.54688 0.00931 0.79039 0.0
H451 H 0.51193 0.01058 0.7561 0.0
H452 H 0.51564 0.01635 0.82698 0.0
H453 H 0.49145 0.00693 0.82604 0.0
H454 H 0.46477 0.02255 0.7973 0.0
H455 H 0.49978 0.02284 0.75914 0.0
C456 C 0.53703 0.01038 0.79082 0.0
C457 C 0.53173 0.01251 0.8109 0.0
C458 C 0.53011 0.01 0.77118 0.0
C459 C 0.51725 0.01124 0.77154 0.0
C460 C 0.51141 0.01318 0.79171 0.0
C461 C 0.51905 0.014 0.8113 0.0
C462 C 0.49786 0.01492 0.79258 0.0
C463 C 0.48922 0.01172 0.81205 0.0
C464 C 0.47771 0.01498 0.81396 0.0
C465 C 0.474 0.02049 0.79596 0.0
C466 C 0.48162 0.02283 0.77606 0.0
C467 C 0.49364 0.02026 0.77442 0.0
H468 H 1.00241 0.55191 0.79476 0.0
H469 H 0.99249 0.50996 0.76259 0.0
H470 H 0.01285 0.52184 0.82725 0.0
H471 H 0.99916 0.49632 0.83097 0.0
H472 H 0.99946 0.45935 0.7968 0.0
H473 H 0.00448 0.49691 0.76023 0.0
C474 C 0.00284 0.54152 0.79486 0.0
C475 C 0.00815 0.53798 0.81338 0.0
C476 C 0.99758 0.53164 0.7765 0.0
C477 C 0.9972 0.51772 0.77666 0.0
C478 C 1.00256 0.5138 0.79505 0.0
C479 C 0.00822 0.52424 0.81322 0.0
C480 C 1.00195 0.49879 0.79552 0.0
C481 C 1.00024 0.49141 0.81564 0.0
C482 C 0.99941 0.47726 0.81604 0.0
C483 C 1.00013 0.47033 0.79647 0.0
C484 C 1.0018 0.4773 0.77647 0.0
C485 C 0.00284 0.49155 0.7759 0.0
H486 H 0.55439 0.55145 0.79144 0.0
H487 H 0.52065 0.51083 0.75735 0.0
H488 H 0.51429 0.51911 0.82555 0.0
H489 H 0.50184 0.49373 0.82633 0.0
H490 H 0.46195 0.4588 0.7935 0.0
H491 H 0.49492 0.49772 0.75746 0.0
C492 C 0.54354 0.54073 0.79162 0.0
C493 C 0.53518 0.53604 0.811 0.0
C494 C 0.53829 0.53179 0.77237 0.0
C495 C 0.52427 0.51787 0.77222 0.0
C496 C 0.51532 0.51295 0.79144 0.0
C497 C 0.52088 0.5224 0.81065 0.0
C498 C 0.50048 0.49786 0.7918 0.0
C499 C 0.49517 0.48959 0.81146 0.0
C500 C 0.48128 0.4756 0.81206 0.0
C501 C 0.47268 0.46966 0.79295 0.0
C502 C 0.47752 0.47753 0.77328 0.0
C503 C 0.49145 0.49158 0.77266 0.0
H504 H 0.67889 0.79534 0.55848 0.0
H505 H 0.68161 0.8345 0.59054 0.0
H506 H 0.66654 0.82257 0.52296 0.0
H507 H 0.67532 0.84666 0.51951 0.0
H508 H 0.66696 0.87942 0.55014 0.0
H509 H 0.6698 0.84718 0.59019 0.0
C510 C 0.67771 0.80527 0.55777 0.0
C511 C 0.67305 0.80839 0.53828 0.0
C512 C 0.68054 0.81446 0.57662 0.0
C513 C 0.67884 0.82724 0.57598 0.0
C514 C 0.67402 0.83071 0.55647 0.0
C515 C 0.67076 0.82076 0.53793 0.0
C516 C 0.67248 0.84458 0.55509 0.0
C517 C 0.67301 0.85096 0.53447 0.0
C518 C 0.6706 0.86314 0.5328 0.0
C519 C 0.6684 0.86969 0.55165 0.0
C520 C 0.66842 0.86419 0.57235 0.0
C521 C 0.67033 0.85157 0.57408 0.0
H522 H 0.11539 0.79012 0.54911 0.0
H523 H 0.15462 0.81958 0.58822 0.0
H524 H 0.15411 0.82757 0.51891 0.0
H525 H 0.17831 0.83573 0.52132 0.0
H526 H 0.21496 0.87208 0.55809 0.0
H527 H 0.17189 0.84518 0.58903 0.0
C528 C 0.12677 0.8001 0.55046 0.0
C529 C 0.13405 0.80835 0.53175 0.0
C530 C 0.13407 0.80421 0.57081 0.0
C531 C 0.14896 0.81688 0.5725 0.0
C532 C 0.15663 0.82546 0.55379 0.0
C533 C 0.14884 0.82111 0.53351 0.0
C534 C 0.17283 0.83848 0.55511 0.0
C535 C 0.18241 0.84223 0.53659 0.0
C536 C 0.19754 0.85437 0.53759 0.0
C537 C 0.20335 0.86245 0.55739 0.0
C538 C 0.19425 0.85903 0.57598 0.0
C539 C 0.17893 0.84729 0.57475 0.0
H540 H 0.12734 0.34307 0.56576 0.0
H541 H 0.15664 0.33173 0.59738 0.0
H542 H 0.16947 0.35538 0.53557 0.0
H543 H 0.18163 0.34342 0.53077 0.0
H544 H 0.21655 0.34219 0.56542 0.0
H545 H 0.18145 0.34275 0.60179 0.0
C546 C 0.13794 0.34335 0.56599 0.0
C547 C 0.14802 0.34973 0.54855 0.0
C548 C 0.14116 0.3371 0.58361 0.0
C549 C 0.15466 0.33708 0.58386 0.0
C550 C 0.16515 0.34348 0.56644 0.0
C551 C 0.16164 0.34994 0.54892 0.0
C552 C 0.1795 0.34318 0.56628 0.0
C553 C 0.1866 0.34339 0.5462 0.0
C554 C 0.20023 0.34356 0.54575 0.0
C555 C 0.20641 0.34276 0.56552 0.0
C556 C 0.19958 0.34228 0.58554 0.0
C557 C 0.18626 0.34266 0.58602 0.0
H558 H 0.01711 0.41717 0.01991 0.0
H559 H 0.01266 0.43203 0.04763 0.0
H560 H 0.98916 0.39197 0.08768 0.0
H561 H 0.99338 0.37689 0.05982 0.0
H562 H 0.97496 0.4083 0.08764 0.0
H563 H 0.02552 0.41886 0.0984 0.0
H564 H 0.05145 0.42685 0.08705 0.0
H565 H 0.05978 0.47116 0.06997 0.0
H566 H 0.03381 0.46335 0.08095 0.0
H567 H 0.9833 0.44119 0.19428 0.0
H568 H 0.98201 0.42746 0.16021 0.0
H569 H 0.00742 0.47063 0.1272 0.0
H570 H 0.00918 0.48447 0.16151 0.0
H571 H 0.01993 0.45402 0.12101 0.0
H572 H 0.97008 0.44438 0.1142 0.0
H573 H 0.94422 0.43635 0.12592 0.0
H574 H 0.9344 0.39054 0.13585 0.0
H575 H 0.96028 0.39834 0.12448 0.0
C576 C 0.01096 0.41147 0.03458 0.0
C577 C 0.00576 0.39588 0.03779 0.0
C578 C 0.00842 0.42 0.0504 0.0
C579 C 1.00076 0.41316 0.06984 0.0
C580 C 0.99511 0.39747 0.07279 0.0
C581 C 0.9976 0.3889 0.05692 0.0
C582 C 0.99925 0.42253 0.08751 0.0
C583 C 0.98477 0.41823 0.09509 0.0
C584 C 0.01205 0.43573 0.09679 0.0
C585 C 0.02768 0.44046 0.09027 0.0
C586 C 0.03285 0.43027 0.09206 0.0
C587 C 0.04755 0.43477 0.08573 0.0
C588 C 0.05724 0.44949 0.07773 0.0
C589 C 0.05226 0.45975 0.07612 0.0
C590 C 0.03755 0.4553 0.08242 0.0
C591 C 0.98844 0.44775 0.17968 0.0
C592 C 0.99646 0.46392 0.18062 0.0
C593 C 0.98757 0.43988 0.16015 0.0
C594 C 0.99458 0.448 0.1411 0.0
C595 C 1.00192 0.46412 0.1417 0.0
C596 C 0.00281 0.47201 0.16127 0.0
C597 C 0.99561 0.43977 0.12136 0.0
C598 C 0.01005 0.44424 0.11341 0.0
C599 C 0.98277 0.42675 0.1118 0.0
C600 C 0.96717 0.42199 0.11864 0.0
C601 C 0.96245 0.43262 0.11905 0.0
C602 C 0.94778 0.42811 0.1256 0.0
C603 C 0.93768 0.41295 0.13167 0.0
C604 C 0.94223 0.40227 0.13115 0.0
C605 C 0.9569 0.40673 0.12463 0.0
H606 H 0.92633 0.40948 0.13673 0.0
H607 H 0.06863 0.45296 0.07284 0.0
H608 H 0.60944 0.61055 0.06232 0.0
H609 H 0.59126 0.59103 0.08684 0.0
H610 H 0.62736 0.58983 0.11903 0.0
H611 H 0.64568 0.60915 0.09399 0.0
H612 H 0.60399 0.56153 0.11303 0.0
H613 H 0.61062 0.60831 0.14289 0.0
H614 H 0.61193 0.63313 0.14292 0.0
H615 H 0.5655 0.61015 0.12257 0.0
H616 H 0.56397 0.58521 0.12213 0.0
H617 H 0.56044 0.52714 0.21089 0.0
H618 H 0.57904 0.54222 0.18275 0.0
H619 H 0.5438 0.5403 0.14356 0.0
H620 H 0.5252 0.52532 0.17167 0.0
H621 H 0.56727 0.56998 0.15385 0.0
H622 H 0.56123 0.52264 0.12531 0.0
H623 H 0.56068 0.49828 0.12744 0.0
H624 H 0.60705 0.52301 0.14835 0.0
H625 H 0.60782 0.54751 0.14664 0.0
C626 C 0.61357 0.60621 0.07467 0.0
C627 C 0.62904 0.6115 0.0763 0.0
C628 C 0.60314 0.59506 0.08874 0.0
C629 C 0.60795 0.58911 0.10503 0.0
C630 C 0.62338 0.59427 0.10662 0.0
C631 C 0.63385 0.60536 0.09236 0.0
C632 C 0.59679 0.5775 0.12028 0.0
C633 C 0.59609 0.56346 0.12218 0.0
C634 C 0.58635 0.57992 0.13204 0.0
C635 C 0.58723 0.59491 0.13227 0.0
C636 C 0.60072 0.60856 0.13825 0.0
C637 C 0.6015 0.62265 0.13837 0.0
C638 C 0.58882 0.62322 0.13269 0.0
C639 C 0.57532 0.6097 0.12694 0.0
C640 C 0.57449 0.59558 0.12677 0.0
C641 C 0.55661 0.52953 0.19594 0.0
C642 C 0.54138 0.52509 0.19347 0.0
C643 C 0.56723 0.53814 0.17989 0.0
C644 C 0.56279 0.54243 0.16114 0.0
C645 C 0.54744 0.5371 0.15794 0.0
C646 C 0.5368 0.52841 0.17391 0.0
C647 C 0.5743 0.55394 0.14625 0.0
C648 C 0.57514 0.56803 0.1446 0.0
C649 C 0.58497 0.55163 0.13505 0.0
C650 C 0.58453 0.53691 0.13605 0.0
C651 C 0.57127 0.52288 0.13055 0.0
C652 C 0.57093 0.50904 0.13164 0.0
C653 C 0.58381 0.50909 0.13808 0.0
C654 C 0.59708 0.52298 0.14339 0.0
C655 C 0.59748 0.53685 0.14234 0.0
H656 H 0.58352 0.49837 0.13892 0.0
H657 H 0.58945 0.63414 0.1328 0.0
H658 H 0.40369 0.03191 0.06292 0.0
H659 H 0.42322 0.03378 0.08712 0.0
H660 H 0.39037 0.99072 0.11594 0.0
H661 H 0.37077 0.98896 0.09227 0.0
H662 H 0.40753 0.00954 0.14649 0.0
H663 H 0.41549 0.99297 0.07685 0.0
H664 H 0.41951 0.99405 0.03689 0.0
H665 H 0.46148 0.03715 0.04495 0.0
H666 H 0.45758 0.03646 0.08499 0.0
H667 H 0.47036 0.99213 0.16562 0.0
H668 H 0.45479 0.99552 0.13919 0.0
H669 H 0.4554 0.03024 0.18194 0.0
H670 H 0.47051 0.02643 0.20859 0.0
H671 H 0.45476 0.01604 0.11504 0.0
H672 H 0.42081 0.0262 0.18293 0.0
H673 H 0.41229 0.01923 0.22106 0.0
H674 H 0.41774 0.98043 0.21469 0.0
H675 H 0.42608 0.98704 0.17642 0.0
C676 C 0.40059 0.02292 0.07458 0.0
C677 C 0.38566 0.01025 0.07561 0.0
C678 C 0.4118 0.02396 0.0883 0.0
C679 C 0.40833 0.01228 0.10314 0.0
C680 C 0.39334 0.99988 0.10463 0.0
C681 C 0.38213 0.99888 0.09104 0.0
C682 C 0.42028 0.01277 0.11696 0.0
C683 C 0.41792 0.0111 0.13962 0.0
C684 C 0.43364 0.01435 0.10793 0.0
C685 C 0.43616 0.01475 0.0839 0.0
C686 C 0.42553 0.00274 0.0701 0.0
C687 C 0.42779 0.00327 0.04744 0.0
C688 C 0.44072 0.01568 0.03839 0.0
C689 C 0.45145 0.02756 0.05199 0.0
C690 C 0.44922 0.02711 0.07468 0.0
C691 C 0.46751 1.00079 0.16898 0.0
C692 C 0.47156 0.00902 0.18904 0.0
C693 C 0.45858 0.00269 0.15395 0.0
C694 C 0.45361 0.01289 0.15877 0.0
C695 C 0.45878 0.02205 0.17805 0.0
C696 C 0.46752 0.01999 0.19317 0.0
C697 C 0.44207 0.01298 0.14467 0.0
C698 C 0.44449 0.01474 0.12195 0.0
C699 C 0.42842 0.01083 0.15352 0.0
C700 C 0.4242 0.00721 0.17687 0.0
C701 C 0.42022 0.01621 0.18969 0.0
C702 C 0.41538 0.01229 0.21129 0.0
C703 C 0.41438 0.99934 0.22022 0.0
C704 C 0.41846 0.99042 0.2077 0.0
C705 C 0.42329 0.99428 0.18607 0.0
H706 H 0.41044 0.99622 0.23685 0.0
H707 H 0.44243 0.01604 0.02085 0.0
H708 H 0.40346 0.99518 0.99555 0.0
H709 H 0.41954 0.99527 0.96597 0.0
H710 H 0.40037 0.01305 0.92215 0.0
H711 H 0.38406 0.01279 0.9516 0.0
H712 H 0.40363 0.99138 0.9017 0.0
H713 H 0.43444 0.03672 0.94652 0.0
H714 H 0.44613 0.05121 0.98092 0.0
H715 H 0.46891 0.02661 0.98826 0.0
H716 H 0.45718 0.01181 0.95403 0.0
H717 H 0.4769 0.03719 0.838 0.0
H718 H 0.46132 0.03399 0.87025 0.0
H719 H 0.44404 0.98526 0.86843 0.0
H720 H 0.45991 0.98851 0.83625 0.0
H721 H 0.4593 0.02165 0.91219 0.0
H722 H 0.4065 0.96853 0.87658 0.0
H723 H 0.39486 0.95695 0.8406 0.0
H724 H 0.41626 0.00188 0.81313 0.0
H725 H 0.42818 0.01365 0.84879 0.0
C726 C 0.40256 0.999 0.97958 0.0
C727 C 0.39251 0.00405 0.97597 0.0
C728 C 0.41181 0.99909 0.96271 0.0
C729 C 0.41129 0.00433 0.94191 0.0
C730 C 0.40097 0.00896 0.93807 0.0
C731 C 0.39168 0.00886 0.95494 0.0
C732 C 0.42181 0.00545 0.92434 0.0
C733 C 0.41579 0.99789 0.90411 0.0
C734 C 0.4377 0.01413 0.9273 0.0
C735 C 0.44482 0.02305 0.94783 0.0
C736 C 0.44186 0.03432 0.95555 0.0
C737 C 0.44851 0.04261 0.975 0.0
C738 C 0.45825 0.03983 0.98677 0.0
C739 C 0.46137 0.02876 0.9791 0.0
C740 C 0.45473 0.02042 0.95968 0.0
C741 C 0.46996 0.02585 0.84476 0.0
C742 C 0.46959 0.01309 0.83481 0.0
C743 C 0.4611 0.02404 0.86314 0.0
C744 C 0.45151 0.0094 0.87164 0.0
C745 C 0.45138 0.99666 0.86205 0.0
C746 C 0.46045 0.99851 0.84381 0.0
C747 C 0.44108 0.00747 0.88977 0.0
C748 C 0.44712 0.01489 0.91003 0.0
C749 C 0.42524 0.99896 0.88675 0.0
C750 C 0.41831 0.99192 0.86523 0.0
C751 C 0.40875 0.9759 0.8628 0.0
C752 C 0.40215 0.96931 0.84245 0.0
C753 C 0.40491 0.97866 0.82453 0.0
C754 C 0.41427 0.99463 0.82692 0.0
C755 C 0.421 1.00126 0.84716 0.0
H756 H 0.39976 0.97355 0.80881 0.0
H757 H 0.46338 0.04625 0.00183 0.0
H758 H 0.0238 0.39884 0.95235 0.0
H759 H 0.02478 0.4184 0.92889 0.0
H760 H 0.97898 0.38639 0.90773 0.0
H761 H 0.9779 0.36677 0.93105 0.0
H762 H 0.99767 0.40346 0.8738 0.0
H763 H 0.98567 0.41198 0.94759 0.0
H764 H 0.9904 0.41651 0.98738 0.0
H765 H 0.03239 0.45853 0.97552 0.0
H766 H 0.02805 0.4541 0.93562 0.0
H767 H 0.97559 0.45015 0.82905 0.0
H768 H 0.97625 0.43322 0.85602 0.0
H769 H 0.0215 0.46892 0.87465 0.0
H770 H 0.02071 0.486 0.84781 0.0
H771 H 0.00513 0.45115 0.90984 0.0
H772 H 0.01675 0.44359 0.83626 0.0
H773 H 0.01276 0.43885 0.79638 0.0
H774 H 0.97261 0.39498 0.8074 0.0
H775 H 0.97611 0.39961 0.84737 0.0
C776 C 0.01402 0.39588 0.94243 0.0
C777 C 1.00073 0.38127 0.94366 0.0
C778 C 0.01457 0.4071 0.92914 0.0
C779 C 1.00187 0.4039 0.91684 0.0
C780 C 0.98888 0.3891 0.91717 0.0
C781 C 0.98828 0.37792 0.93054 0.0
C782 C 1.0018 0.4161 0.90432 0.0
C783 C 0.99915 0.41382 0.88168 0.0
C784 C 0.00416 0.42979 0.9146 0.0
C785 C 0.00661 0.43263 0.9386 0.0
C786 C 0.99596 0.42214 0.95346 0.0
C787 C 0.99857 0.42468 0.97603 0.0
C788 C 0.0117 0.43777 0.98397 0.0
C789 C 0.02223 0.44837 0.96935 0.0
C790 C 0.01971 0.44586 0.94675 0.0
C791 C 0.98541 0.45456 0.83957 0.0
C792 C 0.99808 0.46934 0.83654 0.0
C793 C 0.98586 0.44486 0.85477 0.0
C794 C 0.99906 0.4497 0.86692 0.0
C795 C 0.01123 0.46495 0.86534 0.0
C796 C 0.01075 0.47473 0.85016 0.0
C797 C 1.00067 0.43835 0.87935 0.0
C798 C 0.00368 0.44082 0.90193 0.0
C799 C 0.99874 0.42483 0.86898 0.0
C800 C 0.99661 0.42203 0.84488 0.0
C801 C 0.00697 0.433 0.83021 0.0
C802 C 0.00481 0.43032 0.80757 0.0
C803 C 0.99241 0.41664 0.79938 0.0
C804 C 0.98218 0.40559 0.81379 0.0
C805 C 0.98424 0.40824 0.83643 0.0
H806 H 0.99073 0.41457 0.78188 0.0
H807 H 0.0137 0.43972 0.00145 0.0
H808 H 0.58991 0.61541 0.9937 0.0
H809 H 0.57344 0.60055 0.96289 0.0
H810 H 0.61199 0.60651 0.92661 0.0
H811 H 0.62859 0.62165 0.95718 0.0
H812 H 0.59387 0.61039 0.90087 0.0
H813 H 0.58749 0.57283 0.9531 0.0
H814 H 0.58152 0.56073 0.9892 0.0
H815 H 0.53671 0.55279 0.98569 0.0
H816 H 0.54249 0.56505 0.94967 0.0
H817 H 0.56431 0.5492 0.82479 0.0
H818 H 0.57631 0.56582 0.8568 0.0
H819 H 0.53366 0.55992 0.87671 0.0
H820 H 0.5215 0.54352 0.84396 0.0
H821 H 0.551 0.55696 0.91118 0.0
H822 H 0.55709 0.59307 0.85754 0.0
H823 H 0.56343 0.60537 0.8216 0.0
H824 H 0.60889 0.61542 0.82753 0.0
H825 H 0.60284 0.60321 0.8636 0.0
C826 C 0.59491 0.61363 0.97913 0.0
C827 C 0.61057 0.61966 0.97794 0.0
C828 C 0.58545 0.60506 0.96157 0.0
C829 C 0.59144 0.60222 0.94256 0.0
C830 C 0.60711 0.60853 0.94113 0.0
C831 C 0.61659 0.61717 0.95864 0.0
C832 C 0.58143 0.59257 0.92419 0.0
C833 C 0.58456 0.59868 0.90314 0.0
C834 C 0.56899 0.57743 0.92721 0.0
C835 C 0.56548 0.57001 0.94882 0.0
C836 C 0.57641 0.56862 0.96011 0.0
C837 C 0.57305 0.56171 0.98054 0.0
C838 C 0.55876 0.55604 0.98977 0.0
C839 C 0.54778 0.55722 0.97855 0.0
C840 C 0.55109 0.56414 0.95812 0.0
C841 C 0.55745 0.55154 0.83576 0.0
C842 C 0.54197 0.54523 0.83156 0.0
C843 C 0.56434 0.561 0.85412 0.0
C844 C 0.55592 0.56428 0.86889 0.0
C845 C 0.54035 0.55757 0.86536 0.0
C846 C 0.53342 0.54816 0.84674 0.0
C847 C 0.56367 0.57473 0.88793 0.0
C848 C 0.56015 0.56876 0.90905 0.0
C849 C 0.57581 0.58999 0.885 0.0
C850 C 0.57948 0.59715 0.8632 0.0
C851 C 0.56841 0.59781 0.85111 0.0
C852 C 0.57197 0.60481 0.83075 0.0
C853 C 0.58655 0.61115 0.82226 0.0
C854 C 0.59761 0.61052 0.83414 0.0
C855 C 0.59414 0.60361 0.85459 0.0
H856 H 0.58927 0.61655 0.80648 0.0
H857 H 0.55618 0.55069 0.00559 0.0
H858 H 0.01186 0.63657 0.95213 0.0
H859 H 0.01524 0.62273 0.92141 0.0
H860 H 0.01004 0.58789 0.96546 0.0
H861 H 0.00757 0.60215 0.99623 0.0
H862 H 0.03032 0.59214 0.93856 0.0
H863 H 0.98073 0.58373 0.92977 0.0
H864 H 0.96155 0.59083 0.92597 0.0
H865 H 0.98314 0.61504 0.86731 0.0
H866 H 1.00257 0.60825 0.87092 0.0
H867 H 1.00218 0.52998 0.85656 0.0
H868 H 0.00569 0.54693 0.88808 0.0
H869 H 0.02688 0.58618 0.84636 0.0
H870 H 0.02411 0.56951 0.81501 0.0
H871 H 0.99967 0.58036 0.87106 0.0
H872 H 0.04833 0.5858 0.88028 0.0
H873 H 0.06545 0.57616 0.88486 0.0
H874 H 0.04254 0.55408 0.9441 0.0
H875 H 0.02512 0.5634 0.9397 0.0
C876 C 0.01149 0.62598 0.9552 0.0
C877 C 0.00939 0.6204 0.97653 0.0
C878 C 0.01334 0.61802 0.93763 0.0
C879 C 0.01261 0.60406 0.94097 0.0
C880 C 0.01068 0.59862 0.96237 0.0
C881 C 0.00921 0.60676 0.97997 0.0
C882 C 0.01362 0.59495 0.92227 0.0
C883 C 0.02348 0.58946 0.92392 0.0
C884 C 0.00485 0.59151 0.90296 0.0
C885 C 0.99319 0.59563 0.90075 0.0
C886 C 0.98145 0.59066 0.91615 0.0
C887 C 0.97053 0.59462 0.91402 0.0
C888 C 0.97116 0.60342 0.89645 0.0
C889 C 0.98269 0.60825 0.88094 0.0
C890 C 0.99365 0.60435 0.88301 0.0
C891 C 0.00803 0.54226 0.8542 0.0
C892 C 0.01265 0.54834 0.83316 0.0
C893 C 0.00994 0.55192 0.8722 0.0
C894 C 0.0164 0.56775 0.86942 0.0
C895 C 0.02176 0.57396 0.84875 0.0
C896 C 0.02008 0.56439 0.83085 0.0
C897 C 0.01626 0.57761 0.88752 0.0
C898 C 0.00653 0.58317 0.88572 0.0
C899 C 0.02483 0.58075 0.90685 0.0
C900 C 0.03532 0.57517 0.90953 0.0
C901 C 0.04684 0.57876 0.89417 0.0
C902 C 0.05663 0.57338 0.89676 0.0
C903 C 0.05506 0.56448 0.91472 0.0
C904 C 0.04373 0.56096 0.93017 0.0
C905 C 0.03391 0.56631 0.92765 0.0
H906 H 0.06265 0.56033 0.9167 0.0
H907 H 0.96269 0.60646 0.89482 0.0
H908 H 0.38164 0.40113 0.95972 0.0
H909 H 0.4025 0.42085 0.93826 0.0
H910 H 0.40819 0.38602 0.9062 0.0
H911 H 0.3876 0.36628 0.92804 0.0
H912 H 0.43474 0.4097 0.91796 0.0
H913 H 0.39122 0.40333 0.88048 0.0
H914 H 0.36714 0.40247 0.87729 0.0
H915 H 0.38877 0.44941 0.90044 0.0
H916 H 0.41294 0.45049 0.90403 0.0
H917 H 0.47255 0.44603 0.81995 0.0
H918 H 0.4565 0.43032 0.84991 0.0
H919 H 0.45872 0.47025 0.87977 0.0
H920 H 0.47487 0.48604 0.84966 0.0
H921 H 0.42965 0.44637 0.87277 0.0
H922 H 0.47413 0.45322 0.90588 0.0
H923 H 0.49806 0.45369 0.9076 0.0
H924 H 0.47456 0.40541 0.89119 0.0
H925 H 0.4505 0.40469 0.88905 0.0
C926 C 0.38722 0.39763 0.94793 0.0
C927 C 0.38291 0.38211 0.94553 0.0
C928 C 0.39916 0.40894 0.93566 0.0
C929 C 0.40688 0.40493 0.92048 0.0
C930 C 0.40245 0.38941 0.91786 0.0
C931 C 0.39061 0.37812 0.93027 0.0
C932 C 0.4197 0.41688 0.9075 0.0
C933 C 0.43358 0.41763 0.90792 0.0
C934 C 0.41836 0.42756 0.89492 0.0
C935 C 0.40384 0.42694 0.89276 0.0
C936 C 0.39081 0.41343 0.88506 0.0
C937 C 0.37715 0.41291 0.88314 0.0
C938 C 0.37642 0.42586 0.88872 0.0
C939 C 0.38935 0.43938 0.89617 0.0
C940 C 0.40303 0.43996 0.89813 0.0
C941 C 0.47 0.45152 0.8333 0.0
C942 C 0.47495 0.46721 0.83262 0.0
C943 C 0.46084 0.44256 0.85041 0.0
C944 C 0.45641 0.44911 0.8671 0.0
C945 C 0.46204 0.46498 0.86707 0.0
C946 C 0.47135 0.47401 0.85002 0.0
C947 C 0.44461 0.43901 0.88296 0.0
C948 C 0.43088 0.43859 0.88306 0.0
C949 C 0.44606 0.42856 0.89585 0.0
C950 C 0.46051 0.42893 0.89715 0.0
C951 C 0.47407 0.44272 0.90246 0.0
C952 C 0.48766 0.44303 0.90355 0.0
C953 C 0.48783 0.4296 0.89947 0.0
C954 C 0.47441 0.41581 0.89434 0.0
C955 C 0.46079 0.41544 0.89321 0.0
H956 H 0.49837 0.42986 0.90032 0.0
H957 H 0.36583 0.42544 0.88723 0.0
H958 H 0.63428 0.01966 0.92346 0.0
H959 H 0.61502 0.02099 0.90292 0.0
H960 H 0.58011 0.98491 0.94175 0.0
H961 H 0.59934 0.98332 0.96223 0.0
H962 H 0.57186 0.98116 0.89937 0.0
H963 H 0.5907 0.0218 0.9526 0.0
H964 H 0.61004 0.04437 0.97385 0.0
H965 H 0.62582 0.07041 0.91508 0.0
H966 H 0.60673 0.04791 0.8934 0.0
H967 H 0.51981 0.99655 0.84862 0.0
H968 H 0.53389 0.99479 0.87932 0.0
H969 H 0.57589 0.0281 0.849 0.0
H970 H 0.56193 0.03008 0.81873 0.0
H971 H 0.57723 0.03216 0.89327 0.0
H972 H 0.55956 0.99001 0.84025 0.0
H973 H 0.54018 0.96713 0.81948 0.0
H974 H 0.52154 0.9436 0.87964 0.0
H975 H 0.5407 0.96645 0.90073 0.0
C976 C 0.62251 0.01189 0.92752 0.0
C977 C 0.61837 1.00145 0.94459 0.0
C978 C 0.61151 0.01273 0.91585 0.0
C979 C 0.59614 0.00329 0.92113 0.0
C980 C 0.5919 0.99239 0.93752 0.0
C981 C 0.60292 0.99149 0.94917 0.0
C982 C 0.58462 0.00502 0.90963 0.0
C983 C 0.57283 0.99224 0.89841 0.0
C984 C 0.5859 0.01948 0.90836 0.0
C985 C 0.59733 0.03312 0.92135 0.0
C986 C 0.59836 0.03231 0.94417 0.0
C987 C 0.60927 0.0451 0.95631 0.0
C988 C 0.61916 0.05881 0.94582 0.0
C989 C 0.61814 0.05978 0.92318 0.0
C990 C 0.60727 0.04701 0.91096 0.0
C991 C 0.53202 0.00377 0.84888 0.0
C992 C 0.53981 0.01331 0.83122 0.0
C993 C 0.54005 0.0027 0.86631 0.0
C994 C 0.55595 0.01115 0.86627 0.0
C995 C 0.56364 0.02145 0.84937 0.0
C996 C 0.55566 0.02251 0.83202 0.0
C997 C 0.56477 0.00841 0.88247 0.0
C998 C 0.57607 0.02102 0.89461 0.0
C999 C 0.56294 0.99375 0.88472 0.0
C1000 C 0.55146 0.98 0.87204 0.0
C1001 C 0.55127 0.97998 0.84902 0.0
C1002 C 0.54033 0.96702 0.8372 0.0
C1003 C 0.52961 0.95393 0.84823 0.0
C1004 C 0.52983 0.95376 0.87111 0.0
C1005 C 0.54073 0.96672 0.883 0.0
H1006 H 0.52116 0.9439 0.83906 0.0
H1007 H 0.6276 0.0687 0.95524 0.0
H1008 H 0.62227 0.9981 0.06595 0.0
H1009 H 0.60499 0.99802 0.09362 0.0
H1010 H 0.59061 0.0197 0.04851 0.0
H1011 H 0.60818 0.0203 0.02111 0.0
H1012 H 0.59318 0.0319 0.08675 0.0
H1013 H 0.5688 0.9804 0.05871 0.0
H1014 H 0.56639 0.95574 0.04806 0.0
H1015 H 0.57368 0.949 0.11483 0.0
H1016 H 0.57635 0.97374 0.12584 0.0
H1017 H 0.52162 0.98742 0.16353 0.0
H1018 H 0.53549 0.98876 0.12998 0.0
H1019 H 0.57648 0.02635 0.15874 0.0
H1020 H 0.56264 0.02552 0.19166 0.0
H1021 H 0.55747 0.98361 0.12447 0.0
H1022 H 0.60017 0.04984 0.12121 0.0
H1023 H 0.60051 0.07386 0.12888 0.0
H1024 H 0.55248 0.04993 0.11906 0.0
H1025 H 0.55187 0.02582 0.11103 0.0
C1026 C 0.6155 0.00295 0.062 0.0
C1027 C 0.61656 0.00916 0.04132 0.0
C1028 C 0.60554 0.0028 0.07777 0.0
C1029 C 0.59626 0.00858 0.07301 0.0
C1030 C 0.5976 0.01513 0.05256 0.0
C1031 C 0.60767 0.01546 0.0369 0.0
C1032 C 0.58515 0.00781 0.08933 0.0
C1033 C 0.58535 0.02133 0.09495 0.0
C1034 C 0.57458 0.99392 0.09957 0.0
C1035 C 0.57289 0.97898 0.09306 0.0
C1036 C 0.56999 0.97371 0.0711 0.0
C1037 C 0.56856 0.95971 0.065 0.0
C1038 C 0.56991 0.95082 0.08075 0.0
C1039 C 0.57265 0.9559 0.10265 0.0
C1040 C 0.5741 0.9699 0.10883 0.0
C1041 C 0.53351 0.99619 0.16244 0.0
C1042 C 0.54105 0.00632 0.18027 0.0
C1043 C 0.54145 0.99686 0.14337 0.0
C1044 C 0.55702 0.00772 0.14176 0.0
C1045 C 0.56444 0.01804 0.15939 0.0
C1046 C 0.55654 0.01743 0.17832 0.0
C1047 C 0.56581 0.00781 0.12233 0.0
C1048 C 0.5652 0.99415 0.11613 0.0
C1049 C 0.57569 0.02148 0.1111 0.0
C1050 C 0.57597 0.03599 0.11568 0.0
C1051 C 0.58969 0.04972 0.12057 0.0
C1052 C 0.58992 0.06335 0.12501 0.0
C1053 C 0.57652 0.06341 0.12451 0.0
C1054 C 0.56285 0.04985 0.11951 0.0
C1055 C 0.56255 0.0362 0.11505 0.0
H1056 H 0.57672 0.07397 0.12796 0.0
H1057 H 0.56881 0.93999 0.076 0.0
H1058 H 0.0165 0.63919 0.0992 0.0
H1059 H 0.01685 0.6195 0.12051 0.0
H1060 H 0.98455 0.58426 0.07603 0.0
H1061 H 0.9839 0.6039 0.05482 0.0
H1062 H 0.97828 0.57469 0.11709 0.0
H1063 H 0.02197 0.59666 0.07203 0.0
H1064 H 0.04533 0.61738 0.05534 0.0
H1065 H 0.06609 0.63202 0.11888 0.0
H1066 H 0.04277 0.61152 0.136 0.0
H1067 H 0.99139 0.52083 0.16881 0.0
H1068 H 0.99078 0.53613 0.13895 0.0
H1069 H 0.02217 0.57783 0.17467 0.0
H1070 H 0.02335 0.5627 0.20382 0.0
H1071 H 0.0282 0.58139 0.1325 0.0
H1072 H 0.98242 0.55943 0.17702 0.0
H1073 H 0.95884 0.53771 0.19191 0.0
H1074 H 0.94176 0.52202 0.12668 0.0
H1075 H 0.96536 0.54336 0.11138 0.0
C1076 C 0.00934 0.62724 0.09405 0.0
C1077 C 1.00024 0.62314 0.07522 0.0
C1078 C 0.00963 0.61599 0.10618 0.0
C1079 C 1.00099 0.60041 0.0996 0.0
C1080 C 0.99139 0.59621 0.08135 0.0
C1081 C 0.99102 0.60746 0.06926 0.0
C1082 C 1.00227 0.58865 0.11158 0.0
C1083 C 0.98917 0.57602 0.12017 0.0
C1084 C 0.01647 0.59032 0.11554 0.0
C1085 C 0.03057 0.60261 0.10531 0.0
C1086 C 0.03148 0.60436 0.08246 0.0
C1087 C 0.04472 0.61606 0.07292 0.0
C1088 C 0.05718 0.62603 0.08604 0.0
C1089 C 0.05643 0.6243 0.10873 0.0
C1090 C 0.04321 0.61263 0.11837 0.0
C1091 C 0.99846 0.53325 0.16997 0.0
C1092 C 0.00723 0.54056 0.18883 0.0
C1093 C 0.99798 0.54199 0.15302 0.0
C1094 C 0.00615 0.55815 0.15479 0.0
C1095 C 0.01566 0.5654 0.17295 0.0
C1096 C 0.01625 0.55672 0.18971 0.0
C1097 C 0.00428 0.56773 0.1387 0.0
C1098 C 0.01729 0.57995 0.12922 0.0
C1099 C 0.98998 0.56556 0.13375 0.0
C1100 C 0.97572 0.5529 0.14306 0.0
C1101 C 0.97367 0.55129 0.16586 0.0
C1102 C 0.96031 0.53906 0.17437 0.0
C1103 C 0.94883 0.52852 0.16026 0.0
C1104 C 0.95067 0.53018 0.1376 0.0
C1105 C 0.96405 0.54232 0.129 0.0
H1106 H 0.93849 0.51908 0.16688 0.0
H1107 H 0.06742 0.63508 0.07862 0.0
H1108 H 0.37036 0.39062 0.05785 0.0
H1109 H 0.38732 0.40983 0.08514 0.0
H1110 H 0.42452 0.40683 0.05922 0.0
H1111 H 0.40769 0.38769 0.03183 0.0
H1112 H 0.42334 0.40684 0.10486 0.0
H1113 H 0.4222 0.43633 0.04599 0.0
H1114 H 0.41008 0.44393 0.01884 0.0
H1115 H 0.38956 0.45595 0.07068 0.0
H1116 H 0.40137 0.4482 0.09815 0.0
H1117 H 0.47905 0.47026 0.16607 0.0
H1118 H 0.46581 0.45548 0.13287 0.0
H1119 H 0.42677 0.45759 0.1517 0.0
H1120 H 0.44007 0.47267 0.18458 0.0
H1121 H 0.43036 0.45884 0.10757 0.0
H1122 H 0.42934 0.42757 0.16602 0.0
H1123 H 0.44064 0.41953 0.19387 0.0
H1124 H 0.46425 0.41026 0.14354 0.0
H1125 H 0.45326 0.41849 0.11539 0.0
C1126 C 0.38212 0.39395 0.05807 0.0
C1127 C 0.3877 0.38768 0.04263 0.0
C1128 C 0.39181 0.40499 0.07357 0.0
C1129 C 0.4072 0.40987 0.07399 0.0
C1130 C 0.41269 0.40326 0.05909 0.0
C1131 C 0.40305 0.39233 0.04345 0.0
C1132 C 0.4176 0.42197 0.08989 0.0
C1133 C 0.42508 0.41829 0.10523 0.0
C1134 C 0.41962 0.4368 0.09059 0.0
C1135 C 0.41256 0.44155 0.07412 0.0
C1136 C 0.415 0.44047 0.0516 0.0
C1137 C 0.40821 0.44483 0.03615 0.0
C1138 C 0.39903 0.45038 0.04303 0.0
C1139 C 0.39666 0.45163 0.06538 0.0
C1140 C 0.40341 0.44727 0.0809 0.0
C1141 C 0.46784 0.46801 0.16275 0.0
C1142 C 0.46051 0.47244 0.17802 0.0
C1143 C 0.46023 0.45944 0.14389 0.0
C1144 C 0.44519 0.45515 0.1401 0.0
C1145 C 0.43833 0.46068 0.15439 0.0
C1146 C 0.44591 0.46923 0.1732 0.0
C1147 C 0.43606 0.44369 0.12261 0.0
C1148 C 0.42876 0.44745 0.10703 0.0
C1149 C 0.4341 0.42887 0.12178 0.0
C1150 C 0.44062 0.42381 0.13864 0.0
C1151 C 0.43703 0.42393 0.16091 0.0
C1152 C 0.44337 0.41932 0.17674 0.0
C1153 C 0.45319 0.41443 0.17048 0.0
C1154 C 0.45667 0.41409 0.14836 0.0
C1155 C 0.45039 0.41872 0.13246 0.0
H1156 H 0.45809 0.41086 0.18277 0.0
H1157 H 0.39378 0.45375 0.03105 0.0
H1158 H 0.68036 0.72049 0.39435 0.0
H1159 H 0.67981 0.73638 0.42451 0.0
H1160 H 0.64344 0.73737 0.39282 0.0
H1161 H 0.64425 0.72186 0.36221 0.0
H1162 H 0.66308 0.76486 0.40776 0.0
H1163 H 0.63737 0.71514 0.43857 0.0
H1164 H 0.63315 0.68997 0.44866 0.0
H1165 H 0.67297 0.71247 0.48902 0.0
H1166 H 0.67756 0.7378 0.47892 0.0
H1167 H 0.65031 0.79705 0.50733 0.0
H1168 H 0.6466 0.78008 0.47563 0.0
H1169 H 0.68707 0.78076 0.49285 0.0
H1170 H 0.69111 0.79797 0.52396 0.0
H1171 H 0.66196 0.75108 0.48535 0.0
H1172 H 0.688 0.80097 0.45148 0.0
H1173 H 0.69116 0.82573 0.44155 0.0
H1174 H 0.64867 0.80187 0.40738 0.0
H1175 H 0.64517 0.77694 0.41738 0.0
C1176 C 0.67217 0.72399 0.39386 0.0
C1177 C 0.66231 0.71986 0.37593 0.0
C1178 C 0.67182 0.73304 0.41117 0.0
C1179 C 0.66142 0.73789 0.41113 0.0
C1180 C 0.65154 0.73375 0.39325 0.0
C1181 C 0.65199 0.72484 0.3758 0.0
C1182 C 0.66118 0.74763 0.42949 0.0
C1183 C 0.66255 0.76169 0.42472 0.0
C1184 C 0.6606 0.7436 0.45166 0.0
C1185 C 0.65787 0.72838 0.45784 0.0
C1186 C 0.64529 0.71473 0.44947 0.0
C1187 C 0.64282 0.70043 0.45522 0.0
C1188 C 0.6528 0.69963 0.46944 0.0
C1189 C 0.66525 0.71312 0.47799 0.0
C1190 C 0.66778 0.72745 0.47228 0.0
C1191 C 0.65853 0.79376 0.50416 0.0
C1192 C 0.67093 0.79875 0.51832 0.0
C1193 C 0.65635 0.78402 0.48612 0.0
C1194 C 0.66653 0.77911 0.48202 0.0
C1195 C 0.67901 0.78428 0.49588 0.0
C1196 C 0.68126 0.79408 0.51371 0.0
C1197 C 0.66418 0.76836 0.46356 0.0
C1198 C 0.6623 0.7541 0.46836 0.0
C1199 C 0.6641 0.77213 0.44148 0.0
C1200 C 0.66624 0.7871 0.4354 0.0
C1201 C 0.67927 0.801 0.44202 0.0
C1202 C 0.68113 0.81507 0.43635 0.0
C1203 C 0.6701 0.81537 0.42391 0.0
C1204 C 0.6572 0.80161 0.41706 0.0
C1205 C 0.65527 0.78752 0.42271 0.0
H1206 H 0.67156 0.82627 0.41953 0.0
H1207 H 0.65087 0.68854 0.47386 0.0
H1208 H 0.28308 0.96545 0.42341 0.0
H1209 H 0.26608 0.94406 0.44673 0.0
H1210 H 0.2805 0.91565 0.41498 0.0
H1211 H 0.29746 0.93692 0.39149 0.0
H1212 H 0.25002 0.90049 0.41845 0.0
H1213 H 0.29284 0.93056 0.46574 0.0
H1214 H 0.31227 0.95364 0.48606 0.0
H1215 H 0.27769 0.9563 0.52137 0.0
H1216 H 0.25803 0.9334 0.50099 0.0
H1217 H 0.2262 0.86025 0.53297 0.0
H1218 H 0.24445 0.87601 0.50497 0.0
H1219 H 0.20937 0.87759 0.47032 0.0
H1220 H 0.19104 0.86175 0.49833 0.0
H1221 H 0.25164 0.90491 0.4996 0.0
H1222 H 0.22037 0.88594 0.41598 0.0
H1223 H 0.20149 0.8621 0.39647 0.0
H1224 H 0.21426 0.83599 0.43466 0.0
H1225 H 0.23337 0.85969 0.45417 0.0
C1226 C 0.28272 0.95469 0.42147 0.0
C1227 C 0.29166 0.95292 0.4056 0.0
C1228 C 0.27302 0.94248 0.43485 0.0
C1229 C 0.27208 0.92828 0.43266 0.0
C1230 C 0.28104 0.9265 0.41692 0.0
C1231 C 0.29078 0.93871 0.40359 0.0
C1232 C 0.26154 0.91519 0.4465 0.0
C1233 C 0.25038 0.90143 0.43621 0.0
C1234 C 0.26212 0.91638 0.46966 0.0
C1235 C 0.27395 0.93034 0.48165 0.0
C1236 C 0.28937 0.93616 0.47765 0.0
C1237 C 0.30043 0.9492 0.48922 0.0
C1238 C 0.29622 0.95646 0.50496 0.0
C1239 C 0.28094 0.95069 0.50915 0.0
C1240 C 0.26983 0.93769 0.49759 0.0
C1241 C 0.2223 0.86357 0.519 0.0
C1242 C 0.20725 0.85989 0.51786 0.0
C1243 C 0.23274 0.87262 0.50308 0.0
C1244 C 0.22832 0.8781 0.48567 0.0
C1245 C 0.21301 0.87339 0.48352 0.0
C1246 C 0.20253 0.86429 0.49947 0.0
C1247 C 0.23998 0.89025 0.47158 0.0
C1248 C 0.25131 0.90391 0.48184 0.0
C1249 C 0.23959 0.88892 0.44845 0.0
C1250 C 0.2282 0.8746 0.43669 0.0
C1251 C 0.21919 0.87512 0.42017 0.0
C1252 C 0.20844 0.86163 0.40911 0.0
C1253 C 0.20664 0.84754 0.41437 0.0
C1254 C 0.21562 0.84691 0.43066 0.0
C1255 C 0.2264 0.86037 0.44175 0.0
H1256 H 0.19831 0.8371 0.4058 0.0
H1257 H 0.3048 0.96652 0.51394 0.0
H1258 H 0.06613 0.37545 0.42314 0.0
H1259 H 0.08462 0.37671 0.44895 0.0
H1260 H 0.08737 0.34226 0.41027 0.0
H1261 H 0.06871 0.34069 0.38475 0.0
H1262 H 0.08504 0.33564 0.45174 0.0
H1263 H 0.11589 0.38101 0.41038 0.0
H1264 H 0.12316 0.40581 0.39417 0.0
H1265 H 0.12581 0.42541 0.45833 0.0
H1266 H 0.11835 0.40064 0.47492 0.0
H1267 H 0.14718 0.34138 0.50555 0.0
H1268 H 0.13426 0.34555 0.47564 0.0
H1269 H 0.12515 0.37385 0.5189 0.0
H1270 H 0.13804 0.36969 0.54881 0.0
H1271 H 0.13171 0.38425 0.47454 0.0
H1272 H 0.0996 0.33848 0.51535 0.0
H1273 H 0.09283 0.31384 0.53162 0.0
H1274 H 0.09279 0.2951 0.46775 0.0
H1275 H 0.09985 0.31976 0.45114 0.0
C1276 C 0.0707 0.36817 0.4201 0.0
C1277 C 0.0659 0.35796 0.40188 0.0
C1278 C 0.08135 0.36897 0.43481 0.0
C1279 C 0.08754 0.3597 0.43145 0.0
C1280 C 0.08277 0.34953 0.41324 0.0
C1281 C 0.07209 0.34866 0.39863 0.0
C1282 C 0.09857 0.36013 0.44725 0.0
C1283 C 0.09535 0.34626 0.4564 0.0
C1284 C 0.1119 0.37401 0.4538 0.0
C1285 C 0.11641 0.38892 0.44388 0.0
C1286 C 0.1179 0.39057 0.42102 0.0
C1287 C 0.12208 0.40463 0.41177 0.0
C1288 C 0.12491 0.41717 0.42521 0.0
C1289 C 0.1236 0.41568 0.44794 0.0
C1290 C 0.11941 0.40164 0.45728 0.0
C1291 C 0.14285 0.34889 0.50844 0.0
C1292 C 0.1435 0.35513 0.52948 0.0
C1293 C 0.13541 0.3512 0.49142 0.0
C1294 C 0.1286 0.35985 0.49516 0.0
C1295 C 0.13032 0.36713 0.51568 0.0
C1296 C 0.13763 0.36471 0.53275 0.0
C1297 C 0.11817 0.35977 0.47868 0.0
C1298 C 0.12145 0.37366 0.46961 0.0
C1299 C 0.10489 0.34592 0.47213 0.0
C1300 C 0.10041 0.33101 0.48203 0.0
C1301 C 0.09826 0.32915 0.5048 0.0
C1302 C 0.09436 0.31517 0.51408 0.0
C1303 C 0.09242 0.30292 0.50073 0.0
C1304 C 0.09433 0.30461 0.47807 0.0
C1305 C 0.09828 0.31858 0.46871 0.0
H1306 H 0.08939 0.29211 0.50794 0.0
H1307 H 0.12814 0.42804 0.41801 0.0
H1308 H 0.05297 0.34046 0.2803 0.0
H1309 H 0.06726 0.33727 0.25073 0.0
H1310 H 0.07484 0.30804 0.29136 0.0
H1311 H 0.06036 0.31094 0.32086 0.0
H1312 H 0.09598 0.34563 0.24929 0.0
H1313 H 0.07781 0.2819 0.2587 0.0
H1314 H 0.05563 0.2575 0.27065 0.0
H1315 H 0.02642 0.27374 0.25399 0.0
H1316 H 0.0484 0.29814 0.24167 0.0
H1317 H 0.1454 0.33398 0.18379 0.0
H1318 H 0.13023 0.33136 0.21639 0.0
H1319 H 0.08947 0.30594 0.17777 0.0
H1320 H 0.10453 0.30833 0.14535 0.0
H1321 H 0.08498 0.29513 0.21917 0.0
H1322 H 0.10581 0.34379 0.18395 0.0
H1323 H 0.12636 0.36815 0.16906 0.0
H1324 H 0.14705 0.3821 0.23273 0.0
H1325 H 0.12673 0.35769 0.24792 0.0
C1326 C 0.05756 0.33324 0.28289 0.0
C1327 C 0.05551 0.32595 0.30295 0.0
C1328 C 0.06578 0.33148 0.26599 0.0
C1329 C 0.07207 0.32236 0.26877 0.0
C1330 C 0.06992 0.31496 0.28871 0.0
C1331 C 0.06167 0.31667 0.30559 0.0
C1332 C 0.08127 0.32102 0.25103 0.0
C1333 C 0.09359 0.33457 0.2428 0.0
C1334 C 0.07809 0.30661 0.24237 0.0
C1335 C 0.06478 0.29191 0.24951 0.0
C1336 C 0.06665 0.28024 0.25753 0.0
C1337 C 0.05411 0.26641 0.26437 0.0
C1338 C 0.03963 0.26409 0.26315 0.0
C1339 C 0.03765 0.27558 0.25501 0.0
C1340 C 0.05015 0.28942 0.24813 0.0
C1341 C 0.13319 0.32743 0.18246 0.0
C1342 C 0.12613 0.32151 0.16204 0.0
C1343 C 0.12454 0.32603 0.20102 0.0
C1344 C 0.10874 0.31868 0.19939 0.0
C1345 C 0.10163 0.3117 0.17939 0.0
C1346 C 0.11025 0.31314 0.16086 0.0
C1347 C 0.09972 0.31971 0.21766 0.0
C1348 C 0.08745 0.30615 0.22593 0.0
C1349 C 0.1027 0.33411 0.22605 0.0
C1350 C 0.11485 0.34885 0.21701 0.0
C1351 C 0.1148 0.35201 0.19474 0.0
C1352 C 0.1264 0.36583 0.18625 0.0
C1353 C 0.13803 0.37665 0.19993 0.0
C1354 C 0.13805 0.37369 0.22214 0.0
C1355 C 0.1265 0.35987 0.2307 0.0
H1356 H 0.147 0.38735 0.19333 0.0
H1357 H 0.02995 0.25339 0.26847 0.0
H1358 H 0.69576 0.73395 0.28747 0.0
H1359 H 0.70107 0.75504 0.26358 0.0
H1360 H 0.65549 0.72871 0.23847 0.0
H1361 H 0.65013 0.70749 0.26205 0.0
H1362 H 0.67504 0.74303 0.20617 0.0
H1363 H 0.66526 0.7565 0.27779 0.0
H1364 H 0.66896 0.76135 0.31769 0.0
H1365 H 0.71484 0.79787 0.30737 0.0
H1366 H 0.71148 0.79308 0.26739 0.0
H1367 H 0.6691 0.81221 0.18683 0.0
H1368 H 0.67125 0.79643 0.2143 0.0
H1369 H 0.70433 0.79375 0.17426 0.0
H1370 H 0.70214 0.80943 0.1467 0.0
H1371 H 0.69203 0.79454 0.23939 0.0
H1372 H 0.69276 0.75526 0.16994 0.0
H1373 H 0.68619 0.74932 0.1307 0.0
H1374 H 0.65363 0.76296 0.13774 0.0
H1375 H 0.65977 0.76865 0.17708 0.0
C1376 C 0.6869 0.73258 0.27672 0.0
C1377 C 0.67249 0.71906 0.27675 0.0
C1378 C 0.68994 0.74468 0.26315 0.0
C1379 C 0.67862 0.74353 0.24947 0.0
C1380 C 0.66439 0.72985 0.24893 0.0
C1381 C 0.66134 0.71774 0.26246 0.0
C1382 C 0.6814 0.75668 0.23609 0.0
C1383 C 0.67887 0.75432 0.21342 0.0
C1384 C 0.68616 0.77135 0.24561 0.0
C1385 C 0.68817 0.77432 0.26962 0.0
C1386 C 0.67618 0.76549 0.28404 0.0
C1387 C 0.6782 0.76824 0.30666 0.0
C1388 C 0.69214 0.77989 0.31506 0.0
C1389 C 0.70406 0.78883 0.30084 0.0
C1390 C 0.7021 0.78611 0.2782 0.0
C1391 C 0.6773 0.8088 0.18434 0.0
C1392 C 0.68531 0.81184 0.16456 0.0
C1393 C 0.67847 0.79973 0.2 0.0
C1394 C 0.68767 0.79363 0.19603 0.0
C1395 C 0.69698 0.79814 0.17744 0.0
C1396 C 0.69576 0.80713 0.16176 0.0
C1397 C 0.68585 0.78091 0.20948 0.0
C1398 C 0.68847 0.78332 0.23213 0.0
C1399 C 0.68083 0.76616 0.20002 0.0
C1400 C 0.67688 0.76256 0.17641 0.0
C1401 C 0.68416 0.75693 0.16313 0.0
C1402 C 0.6805 0.75359 0.14088 0.0
C1403 C 0.66951 0.75578 0.13175 0.0
C1404 C 0.66215 0.76129 0.14484 0.0
C1405 C 0.66572 0.76457 0.16711 0.0
H1406 H 0.66665 0.75313 0.11458 0.0
H1407 H 0.69369 0.782 0.33258 0.0
H1408 H 0.26408 0.95526 0.31925 0.0
H1409 H 0.24736 0.93922 0.28931 0.0
H1410 H 0.28412 0.93725 0.25917 0.0
H1411 H 0.30101 0.95365 0.28873 0.0
H1412 H 0.26828 0.94036 0.2289 0.0
H1413 H 0.25651 0.90753 0.29046 0.0
H1414 H 0.24913 0.89942 0.32857 0.0
H1415 H 0.20703 0.89692 0.31879 0.0
H1416 H 0.21426 0.90523 0.28068 0.0
H1417 H 0.23019 0.87376 0.16254 0.0
H1418 H 0.24415 0.89098 0.1934 0.0
H1419 H 0.20577 0.89483 0.20985 0.0
H1420 H 0.19172 0.87772 0.17855 0.0
H1421 H 0.22083 0.89171 0.24668 0.0
H1422 H 0.23255 0.92246 0.18296 0.0
H1423 H 0.24037 0.92943 0.14463 0.0
H1424 H 0.28335 0.93485 0.15837 0.0
H1425 H 0.27569 0.92763 0.19671 0.0
C1426 C 0.26864 0.95151 0.30616 0.0
C1427 C 0.28385 0.95565 0.30644 0.0
C1428 C 0.25904 0.94228 0.2891 0.0
C1429 C 0.26439 0.93678 0.27218 0.0
C1430 C 0.27971 0.94131 0.27207 0.0
C1431 C 0.28935 0.95067 0.28901 0.0
C1432 C 0.25402 0.92603 0.25486 0.0
C1433 C 0.25797 0.92967 0.23281 0.0
C1434 C 0.24038 0.91221 0.25992 0.0
C1435 C 0.236 0.90717 0.2828 0.0
C1436 C 0.24573 0.90537 0.29649 0.0
C1437 C 0.24157 0.90071 0.31808 0.0
C1438 C 0.22764 0.8977 0.32611 0.0
C1439 C 0.21783 0.89929 0.31255 0.0
C1440 C 0.22194 0.90396 0.29095 0.0
C1441 C 0.22467 0.8782 0.17278 0.0
C1442 C 0.20993 0.87456 0.16796 0.0
C1443 C 0.23266 0.88802 0.1904 0.0
C1444 C 0.22608 0.89438 0.2036 0.0
C1445 C 0.21105 0.89008 0.19971 0.0
C1446 C 0.20303 0.88026 0.18193 0.0
C1447 C 0.23524 0.90598 0.22087 0.0
C1448 C 0.23106 0.90249 0.24283 0.0
C1449 C 0.24876 0.91985 0.21574 0.0
C1450 C 0.25348 0.92437 0.19271 0.0
C1451 C 0.24362 0.92501 0.17778 0.0
C1452 C 0.24804 0.92902 0.15605 0.0
C1453 C 0.26234 0.93254 0.14905 0.0
C1454 C 0.27227 0.9321 0.16381 0.0
C1455 C 0.2679 0.92806 0.18555 0.0
H1456 H 0.26573 0.93563 0.13222 0.0
H1457 H 0.22444 0.8941 0.34283 0.0
H1458 H 0.65713 0.95141 0.29366 0.0
H1459 H 0.65524 0.932 0.2673 0.0
H1460 H 0.68979 0.92977 0.30238 0.0
H1461 H 0.69171 0.94912 0.32895 0.0
H1462 H 0.69402 0.93168 0.25661 0.0
H1463 H 0.65563 0.90166 0.3083 0.0
H1464 H 0.63358 0.89461 0.33182 0.0
H1465 H 0.60655 0.88762 0.27497 0.0
H1466 H 0.62852 0.89487 0.2511 0.0
H1467 H 0.68284 0.86851 0.19032 0.0
H1468 H 0.68385 0.88256 0.22411 0.0
H1469 H 0.64797 0.88771 0.19977 0.0
H1470 H 0.6467 0.87342 0.16625 0.0
H1471 H 0.64522 0.88268 0.2437 0.0
H1472 H 0.68434 0.91567 0.19279 0.0
H1473 H 0.70648 0.9233 0.16914 0.0
H1474 H 0.73221 0.92502 0.22485 0.0
H1475 H 0.71013 0.91717 0.24879 0.0
C1476 C 0.66438 0.94685 0.29574 0.0
C1477 C 0.67459 0.95183 0.31338 0.0
C1478 C 0.66323 0.9357 0.28073 0.0
C1479 C 0.67229 0.92938 0.28302 0.0
C1480 C 0.68269 0.93451 0.30036 0.0
C1481 C 0.68376 0.94556 0.31551 0.0
C1482 C 0.67093 0.91749 0.26711 0.0
C1483 C 0.68344 0.92083 0.25407 0.0
C1484 C 0.65706 0.90344 0.26365 0.0
C1485 C 0.64376 0.89893 0.27791 0.0
C1486 C 0.64502 0.89874 0.30081 0.0
C1487 C 0.63252 0.89469 0.31421 0.0
C1488 C 0.61868 0.8907 0.3049 0.0
C1489 C 0.61729 0.89072 0.28216 0.0
C1490 C 0.62975 0.89479 0.26868 0.0
C1491 C 0.67492 0.8723 0.19244 0.0
C1492 C 0.6648 0.87002 0.17556 0.0
C1493 C 0.67558 0.88042 0.21166 0.0
C1494 C 0.66616 0.8864 0.21428 0.0
C1495 C 0.65539 0.88326 0.19806 0.0
C1496 C 0.65475 0.87519 0.17886 0.0
C1497 C 0.66825 0.89697 0.23295 0.0
C1498 C 0.65586 0.89341 0.24648 0.0
C1499 C 0.68224 0.91084 0.23687 0.0
C1500 C 0.69554 0.91565 0.22253 0.0
C1501 C 0.69469 0.91756 0.19996 0.0
C1502 C 0.70722 0.92194 0.18651 0.0
C1503 C 0.72073 0.9246 0.19547 0.0
C1504 C 0.72173 0.92292 0.21792 0.0
C1505 C 0.70921 0.91851 0.23144 0.0
H1506 H 0.73042 0.92799 0.18503 0.0
H1507 H 0.60901 0.88756 0.3153 0.0
H1508 H 0.03579 0.72512 0.27819 0.0
H1509 H 0.05393 0.74547 0.2542 0.0
H1510 H 0.0831 0.72728 0.25676 0.0
H1511 H 0.06506 0.70689 0.28056 0.0
H1512 H 0.09839 0.75917 0.26406 0.0
H1513 H 0.06304 0.72096 0.21253 0.0
H1514 H 0.03796 0.70329 0.19616 0.0
H1515 H 0.03254 0.74139 0.18432 0.0
H1516 H 0.0575 0.75926 0.20095 0.0
H1517 H 0.14766 0.79803 0.17415 0.0
H1518 H 0.13088 0.78064 0.20239 0.0
H1519 H 0.09929 0.79505 0.19055 0.0
H1520 H 0.11583 0.81202 0.16195 0.0
H1521 H 0.08512 0.76549 0.18897 0.0
H1522 H 0.12027 0.80402 0.23948 0.0
H1523 H 0.14524 0.8221 0.25587 0.0
H1524 H 0.15096 0.7845 0.27 0.0
H1525 H 0.12611 0.76619 0.25342 0.0
C1526 C 0.04602 0.72539 0.27353 0.0
C1527 C 0.04895 0.71436 0.28124 0.0
C1528 C 0.05636 0.73702 0.25983 0.0
C1529 C 0.06985 0.73786 0.25371 0.0
C1530 C 0.07278 0.72686 0.26134 0.0
C1531 C 0.0624 0.71515 0.27484 0.0
C1532 C 0.08095 0.75025 0.23942 0.0
C1533 C 0.09557 0.7605 0.24755 0.0
C1534 C 0.07712 0.75218 0.21812 0.0
C1535 C 0.06205 0.74142 0.20826 0.0
C1536 C 0.05643 0.72555 0.20667 0.0
C1537 C 0.04225 0.7155 0.19729 0.0
C1538 C 0.03363 0.72121 0.18928 0.0
C1539 C 0.0392 0.73698 0.19058 0.0
C1540 C 0.05337 0.74707 0.19998 0.0
C1541 C 0.13735 0.79779 0.17812 0.0
C1542 C 0.13304 0.80638 0.16605 0.0
C1543 C 0.12774 0.78785 0.19421 0.0
C1544 C 0.1138 0.78654 0.19868 0.0
C1545 C 0.10993 0.7958 0.18738 0.0
C1546 C 0.11943 0.80557 0.17117 0.0
C1547 C 0.10264 0.77461 0.21359 0.0
C1548 C 0.08798 0.76433 0.20554 0.0
C1549 C 0.10643 0.77277 0.23502 0.0
C1550 C 0.12138 0.78375 0.24502 0.0
C1551 C 0.1269 0.79961 0.24592 0.0
C1552 C 0.14103 0.8099 0.25528 0.0
C1553 C 0.1497 0.80446 0.26392 0.0
C1554 C 0.14424 0.7887 0.26328 0.0
C1555 C 0.13013 0.77836 0.25392 0.0
H1556 H 0.16063 0.81244 0.27116 0.0
H1557 H 0.02266 0.71341 0.182 0.0
H1558 H 0.26347 0.31984 0.30161 0.0
H1559 H 0.24497 0.31861 0.27617 0.0
H1560 H 0.27562 0.32735 0.22241 0.0
H1561 H 0.2945 0.32925 0.24802 0.0
H1562 H 0.26413 0.344 0.21793 0.0
H1563 H 0.24309 0.29069 0.23232 0.0
H1564 H 0.23373 0.26782 0.25503 0.0
H1565 H 0.19938 0.2749 0.28189 0.0
H1566 H 0.20866 0.29792 0.25954 0.0
H1567 H 0.19452 0.30123 0.14302 0.0
H1568 H 0.21057 0.30076 0.17159 0.0
H1569 H 0.21909 0.34433 0.1976 0.0
H1570 H 0.20302 0.34485 0.16882 0.0
H1571 H 0.21051 0.30114 0.2159 0.0
H1572 H 0.25443 0.36553 0.21074 0.0
H1573 H 0.2652 0.38621 0.18366 0.0
H1574 H 0.25584 0.35298 0.13196 0.0
H1575 H 0.24462 0.33214 0.15861 0.0
C1576 C 0.26626 0.32138 0.28435 0.0
C1577 C 0.28048 0.32463 0.27683 0.0
C1578 C 0.25561 0.32061 0.26978 0.0
C1579 C 0.25878 0.32271 0.24728 0.0
C1580 C 0.27289 0.32572 0.23969 0.0
C1581 C 0.28366 0.32673 0.25432 0.0
C1582 C 0.24761 0.32228 0.23177 0.0
C1583 C 0.25241 0.33462 0.21762 0.0
C1584 C 0.23231 0.30998 0.231 0.0
C1585 C 0.22667 0.29611 0.24441 0.0
C1586 C 0.23361 0.28743 0.24319 0.0
C1587 C 0.22831 0.27443 0.25598 0.0
C1588 C 0.21599 0.26993 0.26994 0.0
C1589 C 0.20893 0.2784 0.27109 0.0
C1590 C 0.2142 0.29142 0.25835 0.0
C1591 C 0.19965 0.31059 0.15506 0.0
C1592 C 0.19758 0.32309 0.15374 0.0
C1593 C 0.20878 0.3103 0.17137 0.0
C1594 C 0.21616 0.32258 0.18657 0.0
C1595 C 0.21361 0.3348 0.18588 0.0
C1596 C 0.20434 0.33503 0.16961 0.0
C1597 C 0.22708 0.32287 0.20234 0.0
C1598 C 0.22221 0.31055 0.21651 0.0
C1599 C 0.24242 0.33491 0.2027 0.0
C1600 C 0.24859 0.34733 0.18659 0.0
C1601 C 0.25457 0.36267 0.19355 0.0
C1602 C 0.26068 0.3744 0.17827 0.0
C1603 C 0.26105 0.3709 0.15605 0.0
C1604 C 0.25531 0.35567 0.14908 0.0
C1605 C 0.24899 0.34389 0.16424 0.0
H1606 H 0.26588 0.37999 0.14426 0.0
H1607 H 0.2119 0.25987 0.27983 0.0
H1608 H 0.29166 0.34265 0.40414 0.0
H1609 H 0.27719 0.34478 0.43449 0.0
H1610 H 0.24073 0.3339 0.38994 0.0
H1611 H 0.2555 0.33264 0.35949 0.0
H1612 H 0.24325 0.35463 0.41605 0.0
H1613 H 0.24032 0.30703 0.42679 0.0
H1614 H 0.24978 0.28958 0.43115 0.0
H1615 H 0.27401 0.31481 0.48918 0.0
H1616 H 0.26486 0.33255 0.485 0.0
H1617 H 0.1879 0.32913 0.50594 0.0
H1618 H 0.20155 0.32894 0.47292 0.0
H1619 H 0.24402 0.35899 0.50568 0.0
H1620 H 0.23064 0.35999 0.53817 0.0
H1621 H 0.23707 0.32768 0.48536 0.0
H1622 H 0.2391 0.3756 0.47197 0.0
H1623 H 0.22743 0.39101 0.46688 0.0
H1624 H 0.20162 0.36166 0.41249 0.0
H1625 H 0.21298 0.34593 0.41749 0.0
C1626 C 0.28057 0.34076 0.40088 0.0
C1627 C 0.27469 0.33745 0.3795 0.0
C1628 C 0.27225 0.34187 0.41824 0.0
C1629 C 0.2577 0.3392 0.41464 0.0
C1630 C 0.25191 0.33602 0.39321 0.0
C1631 C 0.26035 0.33527 0.3758 0.0
C1632 C 0.24851 0.33975 0.43313 0.0
C1633 C 0.24177 0.34854 0.43105 0.0
C1634 C 0.24653 0.33188 0.45284 0.0
C1635 C 0.25202 0.3212 0.45546 0.0
C1636 C 0.24775 0.30892 0.4404 0.0
C1637 C 0.25305 0.29897 0.44285 0.0
C1638 C 0.26252 0.30111 0.4604 0.0
C1639 C 0.26669 0.31318 0.47557 0.0
C1640 C 0.26144 0.32318 0.47318 0.0
C1641 C 0.20013 0.336 0.50595 0.0
C1642 C 0.20816 0.34441 0.52485 0.0
C1643 C 0.20789 0.33578 0.48715 0.0
C1644 C 0.22374 0.34385 0.48707 0.0
C1645 C 0.23177 0.35259 0.50558 0.0
C1646 C 0.22408 0.35305 0.52416 0.0
C1647 C 0.23207 0.3426 0.46817 0.0
C1648 C 0.23857 0.33366 0.47023 0.0
C1649 C 0.23352 0.35001 0.44831 0.0
C1650 C 0.22674 0.35948 0.44529 0.0
C1651 C 0.23081 0.37233 0.45909 0.0
C1652 C 0.22428 0.38115 0.45618 0.0
C1653 C 0.21374 0.37729 0.43942 0.0
C1654 C 0.20975 0.36462 0.42549 0.0
C1655 C 0.21624 0.35576 0.42835 0.0
H1656 H 0.20871 0.38413 0.43719 0.0
H1657 H 0.26661 0.2934 0.46226 0.0
H1658 H 0.6805 0.9624 0.40231 0.0
H1659 H 0.68299 0.94472 0.42557 0.0
H1660 H 0.6346 0.91394 0.4251 0.0
H1661 H 0.63199 0.93146 0.40146 0.0
H1662 H 0.64938 0.91926 0.4677 0.0
H1663 H 0.65204 0.90444 0.39322 0.0
H1664 H 0.66162 0.90952 0.35531 0.0
H1665 H 0.7064 0.92523 0.37851 0.0
H1666 H 0.69714 0.92051 0.41663 0.0
H1667 H 0.64537 0.85472 0.50969 0.0
H1668 H 0.64284 0.86938 0.48073 0.0
H1669 H 0.69121 0.90045 0.48036 0.0
H1670 H 0.69372 0.88575 0.50949 0.0
H1671 H 0.67629 0.8945 0.43724 0.0
H1672 H 0.67402 0.91034 0.51151 0.0
H1673 H 0.66471 0.90543 0.54953 0.0
H1674 H 0.61954 0.8884 0.52686 0.0
H1675 H 0.62853 0.89285 0.48859 0.0
C1676 C 0.67036 0.95198 0.40739 0.0
C1677 C 0.65604 0.9483 0.40001 0.0
C1678 C 0.67182 0.94187 0.42059 0.0
C1679 C 0.65899 0.928 0.42687 0.0
C1680 C 0.64462 0.9246 0.42037 0.0
C1681 C 0.64316 0.9346 0.40686 0.0
C1682 C 0.66067 0.91681 0.4395 0.0
C1683 C 0.65507 0.91369 0.46095 0.0
C1684 C 0.66837 0.9098 0.43077 0.0
C1685 C 0.67392 0.91227 0.40782 0.0
C1686 C 0.66396 0.90909 0.39026 0.0
C1687 C 0.66932 0.91189 0.36873 0.0
C1688 C 0.68462 0.91774 0.36451 0.0
C1689 C 0.69456 0.92072 0.38181 0.0
C1690 C 0.68925 0.91798 0.40338 0.0
C1691 C 0.65547 0.8643 0.50274 0.0
C1692 C 0.66973 0.86908 0.5115 0.0
C1693 C 0.65403 0.8727 0.48631 0.0
C1694 C 0.66683 0.88606 0.47856 0.0
C1695 C 0.68122 0.89012 0.48604 0.0
C1696 C 0.68266 0.88174 0.50259 0.0
C1697 C 0.66493 0.89691 0.4654 0.0
C1698 C 0.67054 0.90002 0.44393 0.0
C1699 C 0.65729 0.90399 0.47412 0.0
C1700 C 0.65192 0.90177 0.49715 0.0
C1701 C 0.66208 0.90545 0.5146 0.0
C1702 C 0.65687 0.90275 0.53621 0.0
C1703 C 0.64155 0.89658 0.54061 0.0
C1704 C 0.63141 0.89315 0.52342 0.0
C1705 C 0.63655 0.89575 0.50176 0.0
H1706 H 0.63754 0.89448 0.55736 0.0
H1707 H 0.68876 0.91993 0.34783 0.0
H1708 H 0.03395 0.71894 0.39259 0.0
H1709 H 0.05079 0.73866 0.41934 0.0
H1710 H 0.08779 0.73422 0.39636 0.0
H1711 H 0.07099 0.7143 0.36988 0.0
H1712 H 0.08796 0.73623 0.43971 0.0
H1713 H 0.08429 0.76436 0.3811 0.0
H1714 H 0.07122 0.77121 0.35452 0.0
H1715 H 0.05107 0.78294 0.40727 0.0
H1716 H 0.06386 0.77595 0.43419 0.0
H1717 H 0.14511 0.80216 0.49484 0.0
H1718 H 0.1305 0.78689 0.46269 0.0
H1719 H 0.09099 0.7855 0.48856 0.0
H1720 H 0.10556 0.80081 0.52066 0.0
H1721 H 0.09317 0.78743 0.44231 0.0
H1722 H 0.09566 0.75774 0.50053 0.0
H1723 H 0.10901 0.75125 0.52713 0.0
H1724 H 0.13155 0.74255 0.47446 0.0
H1725 H 0.11853 0.74929 0.44756 0.0
C1726 C 0.04565 0.72208 0.39333 0.0
C1727 C 0.05114 0.71508 0.37903 0.0
C1728 C 0.05529 0.73344 0.40853 0.0
C1729 C 0.07062 0.73812 0.40958 0.0
C1730 C 0.07602 0.73084 0.39576 0.0
C1731 C 0.06638 0.71945 0.38063 0.0
C1732 C 0.08105 0.75058 0.42512 0.0
C1733 C 0.08926 0.74749 0.44001 0.0
C1734 C 0.08258 0.76521 0.42579 0.0
C1735 C 0.07493 0.7695 0.40966 0.0
C1736 C 0.07699 0.7683 0.38703 0.0
C1737 C 0.06964 0.77222 0.37191 0.0
C1738 C 0.06029 0.77747 0.3792 0.0
C1739 C 0.0583 0.77885 0.40165 0.0
C1740 C 0.06561 0.77493 0.41685 0.0
C1741 C 0.13345 0.79904 0.49328 0.0
C1742 C 0.1264 0.80253 0.51026 0.0
C1743 C 0.1251 0.79025 0.47501 0.0
C1744 C 0.10962 0.78489 0.47347 0.0
C1745 C 0.10291 0.7895 0.48949 0.0
C1746 C 0.11122 0.79818 0.50782 0.0
C1747 C 0.10002 0.77304 0.45673 0.0
C1748 C 0.09193 0.7762 0.44177 0.0
C1749 C 0.0986 0.75847 0.45592 0.0
C1750 C 0.10626 0.75419 0.47205 0.0
C1751 C 0.10355 0.75456 0.49463 0.0
C1752 C 0.11105 0.75083 0.50976 0.0
C1753 C 0.12115 0.74652 0.50249 0.0
C1754 C 0.12374 0.74591 0.48007 0.0
C1755 C 0.11631 0.74969 0.46487 0.0
H1756 H 0.12694 0.74363 0.51423 0.0
H1757 H 0.05461 0.7805 0.36746 0.0
H1758 H 0.34392 0.05272 0.73209 0.0
H1759 H 0.34403 0.0694 0.76159 0.0
H1760 H 0.30767 0.07042 0.72992 0.0
H1761 H 0.30785 0.05414 0.69995 0.0
H1762 H 0.3278 0.09804 0.7428 0.0
H1763 H 0.30213 0.04973 0.77749 0.0
H1764 H 0.29756 0.02481 0.7896 0.0
H1765 H 0.33824 0.04807 0.82809 0.0
H1766 H 0.34318 0.07314 0.81597 0.0
H1767 H 0.31869 0.13469 0.84073 0.0
H1768 H 0.31375 0.11653 0.8101 0.0
H1769 H 0.35439 0.11707 0.82578 0.0
H1770 H 0.35966 0.13548 0.85574 0.0
H1771 H 0.32847 0.08729 0.82139 0.0
H1772 H 0.35442 0.13564 0.78319 0.0
H1773 H 0.35779 0.16014 0.77135 0.0
H1774 H 0.31428 0.13568 0.74001 0.0
H1775 H 0.31057 0.11103 0.75195 0.0
C1776 C 0.33585 0.05637 0.73151 0.0
C1777 C 0.32587 0.05209 0.7137 0.0
C1778 C 0.33587 0.06586 0.74845 0.0
C1779 C 0.32571 0.07103 0.74817 0.0
C1780 C 0.3156 0.0666 0.73052 0.0
C1781 C 0.3157 0.05725 0.71343 0.0
C1782 C 0.32611 0.08155 0.76583 0.0
C1783 C 0.32765 0.09553 0.75998 0.0
C1784 C 0.32601 0.07838 0.78829 0.0
C1785 C 0.32309 0.06332 0.79567 0.0
C1786 C 0.31017 0.04953 0.7884 0.0
C1787 C 0.3075 0.03538 0.7953 0.0
C1788 C 0.31762 0.03486 0.80957 0.0
C1789 C 0.33042 0.04849 0.81702 0.0
C1790 C 0.33315 0.06268 0.81017 0.0
C1791 C 0.32671 0.13116 0.83738 0.0
C1792 C 0.3395 0.13643 0.85082 0.0
C1793 C 0.32382 0.12072 0.81999 0.0
C1794 C 0.33366 0.11539 0.81584 0.0
C1795 C 0.34658 0.12092 0.82888 0.0
C1796 C 0.34954 0.13141 0.84603 0.0
C1797 C 0.33049 0.1038 0.79826 0.0
C1798 C 0.32841 0.08964 0.80417 0.0
C1799 C 0.32987 0.10671 0.77592 0.0
C1800 C 0.33214 0.12151 0.7687 0.0
C1801 C 0.34551 0.13549 0.77396 0.0
C1802 C 0.3475 0.1494 0.76718 0.0
C1803 C 0.33623 0.14947 0.75499 0.0
C1804 C 0.32298 0.13561 0.74949 0.0
C1805 C 0.32093 0.12167 0.75625 0.0
H1806 H 0.33779 0.16025 0.74976 0.0
H1807 H 0.31554 0.02388 0.81489 0.0
H1808 H 0.94378 0.27951 0.72438 0.0
H1809 H 0.92551 0.2596 0.74838 0.0
H1810 H 0.96138 0.2571 0.77891 0.0
H1811 H 0.97975 0.27676 0.75432 0.0
H1812 H 0.93784 0.22912 0.77223 0.0
H1813 H 0.94502 0.27572 0.80438 0.0
H1814 H 0.94646 0.30061 0.80532 0.0
H1815 H 0.89996 0.27806 0.78542 0.0
H1816 H 0.8983 0.25304 0.78408 0.0
H1817 H 0.8967 0.19412 0.87082 0.0
H1818 H 0.91437 0.20917 0.84179 0.0
H1819 H 0.87816 0.20826 0.80656 0.0
H1820 H 0.86048 0.19334 0.83568 0.0
H1821 H 0.9019 0.23747 0.81547 0.0
H1822 H 0.89504 0.19026 0.7853 0.0
H1823 H 0.89431 0.16576 0.78619 0.0
H1824 H 0.94111 0.19 0.80492 0.0
H1825 H 0.94207 0.21464 0.80445 0.0
C1826 C 0.94783 0.27481 0.73627 0.0
C1827 C 0.96326 0.27981 0.73755 0.0
C1828 C 0.93735 0.26342 0.75003 0.0
C1829 C 0.94208 0.25699 0.76571 0.0
C1830 C 0.95746 0.2619 0.76697 0.0
C1831 C 0.96796 0.27319 0.75299 0.0
C1832 C 0.9309 0.24515 0.7807 0.0
C1833 C 0.9301 0.23102 0.78189 0.0
C1834 C 0.92063 0.24751 0.79307 0.0
C1835 C 0.92158 0.26253 0.79393 0.0
C1836 C 0.93513 0.27608 0.80005 0.0
C1837 C 0.93598 0.29021 0.80068 0.0
C1838 C 0.92332 0.29092 0.79538 0.0
C1839 C 0.90977 0.27749 0.78949 0.0
C1840 C 0.90886 0.26333 0.78882 0.0
C1841 C 0.89244 0.19674 0.85656 0.0
C1842 C 0.87723 0.19261 0.85553 0.0
C1843 C 0.90253 0.20531 0.83996 0.0
C1844 C 0.89758 0.20988 0.82207 0.0
C1845 C 0.8822 0.20486 0.82027 0.0
C1846 C 0.87208 0.1962 0.8368 0.0
C1847 C 0.9087 0.22139 0.80677 0.0
C1848 C 0.90957 0.23554 0.80567 0.0
C1849 C 0.91912 0.21909 0.79478 0.0
C1850 C 0.91858 0.20429 0.79502 0.0
C1851 C 0.90514 0.19036 0.78979 0.0
C1852 C 0.9047 0.17645 0.79018 0.0
C1853 C 0.91765 0.17632 0.79566 0.0
C1854 C 0.93109 0.19011 0.8007 0.0
C1855 C 0.93159 0.20406 0.80035 0.0
H1856 H 0.91728 0.16554 0.79595 0.0
H1857 H 0.924 0.30187 0.79587 0.0
H1858 H 0.72993 0.70439 0.76151 0.0
H1859 H 0.74939 0.70488 0.78428 0.0
H1860 H 0.75556 0.67733 0.73538 0.0
H1861 H 0.73588 0.67645 0.71283 0.0
H1862 H 0.75467 0.66673 0.77391 0.0
H1863 H 0.78178 0.71655 0.74318 0.0
H1864 H 0.78668 0.74201 0.73323 0.0
H1865 H 0.78704 0.75402 0.80128 0.0
H1866 H 0.78193 0.72854 0.81164 0.0
H1867 H 0.8156 0.67256 0.83269 0.0
H1868 H 0.80368 0.67742 0.80208 0.0
H1869 H 0.79092 0.70253 0.84597 0.0
H1870 H 0.80323 0.6982 0.87628 0.0
H1871 H 0.79745 0.71497 0.80612 0.0
H1872 H 0.76855 0.66395 0.83587 0.0
H1873 H 0.76411 0.63853 0.84514 0.0
H1874 H 0.76753 0.62883 0.77717 0.0
H1875 H 0.77232 0.65433 0.76756 0.0
C1876 C 0.73545 0.69846 0.75559 0.0
C1877 C 0.73133 0.69039 0.73534 0.0
C1878 C 0.74666 0.69883 0.76856 0.0
C1879 C 0.75414 0.69133 0.76143 0.0
C1880 C 0.75 0.68323 0.74125 0.0
C1881 C 0.73873 0.68276 0.72836 0.0
C1882 C 0.76588 0.69144 0.77535 0.0
C1883 C 0.76418 0.67731 0.78058 0.0
C1884 C 0.77824 0.70522 0.78431 0.0
C1885 C 0.78135 0.72058 0.77817 0.0
C1886 C 0.7828 0.72457 0.75602 0.0
C1887 C 0.78563 0.73902 0.75031 0.0
C1888 C 0.78714 0.74961 0.76661 0.0
C1889 C 0.78586 0.7458 0.78867 0.0
C1890 C 0.78301 0.73136 0.79447 0.0
C1891 C 0.81068 0.67954 0.83562 0.0
C1892 C 0.81012 0.68478 0.85694 0.0
C1893 C 0.80377 0.6822 0.81817 0.0
C1894 C 0.79609 0.69003 0.82183 0.0
C1895 C 0.79667 0.69637 0.84274 0.0
C1896 C 0.80361 0.69379 0.8601 0.0
C1897 C 0.78609 0.69026 0.80482 0.0
C1898 C 0.78807 0.70443 0.7991 0.0
C1899 C 0.77403 0.67652 0.79527 0.0
C1900 C 0.77094 0.66111 0.80104 0.0
C1901 C 0.76843 0.65642 0.82293 0.0
C1902 C 0.76586 0.64201 0.82824 0.0
C1903 C 0.76555 0.63208 0.81176 0.0
C1904 C 0.7678 0.63654 0.78992 0.0
C1905 C 0.77046 0.65098 0.78454 0.0
H1906 H 0.76354 0.62092 0.8159 0.0
H1907 H 0.78934 0.76079 0.76216 0.0
H1908 H 0.72093 0.64479 0.64626 0.0
H1909 H 0.73558 0.64318 0.61583 0.0
H1910 H 0.73574 0.68071 0.58476 0.0
H1911 H 0.72083 0.6822 0.61492 0.0
H1912 H 0.73124 0.65902 0.5552 0.0
H1913 H 0.76624 0.68624 0.61454 0.0
H1914 H 0.77597 0.68978 0.65226 0.0
H1915 H 0.77937 0.64982 0.64377 0.0
H1916 H 0.76946 0.64592 0.60608 0.0
H1917 H 0.79539 0.69089 0.48821 0.0
H1918 H 0.77802 0.68625 0.5183 0.0
H1919 H 0.77715 0.64483 0.53353 0.0
H1920 H 0.79423 0.64906 0.50267 0.0
H1921 H 0.78086 0.66501 0.57087 0.0
H1922 H 0.74688 0.63861 0.51081 0.0
H1923 H 0.73707 0.63526 0.47321 0.0
H1924 H 0.73257 0.67448 0.48296 0.0
H1925 H 0.74226 0.67799 0.52075 0.0
C1926 C 0.72397 0.65263 0.63287 0.0
C1927 C 0.7198 0.6637 0.63309 0.0
C1928 C 0.73241 0.65174 0.61553 0.0
C1929 C 0.73698 0.662 0.59819 0.0
C1930 C 0.73238 0.6727 0.598 0.0
C1931 C 0.72387 0.67355 0.61527 0.0
C1932 C 0.74686 0.66188 0.58049 0.0
C1933 C 0.74212 0.66043 0.55867 0.0
C1934 C 0.76091 0.66331 0.58498 0.0
C1935 C 0.76694 0.66568 0.60759 0.0
C1936 C 0.76895 0.67814 0.62078 0.0
C1937 C 0.77452 0.68022 0.64214 0.0
C1938 C 0.77824 0.67 0.65043 0.0
C1939 C 0.77645 0.65771 0.63734 0.0
C1940 C 0.77087 0.65556 0.61598 0.0
C1941 C 0.79142 0.68068 0.49775 0.0
C1942 C 0.79606 0.67022 0.49277 0.0
C1943 C 0.78153 0.67809 0.51502 0.0
C1944 C 0.77616 0.6651 0.52791 0.0
C1945 C 0.78116 0.6549 0.52365 0.0
C1946 C 0.79097 0.65739 0.50612 0.0
C1947 C 0.76529 0.66238 0.54572 0.0
C1948 C 0.76986 0.66336 0.56751 0.0
C1949 C 0.75112 0.66059 0.54125 0.0
C1950 C 0.74538 0.65862 0.51853 0.0
C1951 C 0.74388 0.64658 0.50488 0.0
C1952 C 0.7383 0.64462 0.48356 0.0
C1953 C 0.73426 0.65469 0.47565 0.0
C1954 C 0.73571 0.66669 0.4891 0.0
C1955 C 0.74118 0.66862 0.51051 0.0
H1956 H 0.72999 0.65318 0.4591 0.0
H1957 H 0.78255 0.67163 0.66697 0.0
H1958 H 0.3079 0.02911 0.59728 0.0
H1959 H 0.30734 0.0478 0.57387 0.0
H1960 H 0.34895 0.08405 0.60304 0.0
H1961 H 0.34953 0.06543 0.62675 0.0
H1962 H 0.32833 0.09239 0.6011 0.0
H1963 H 0.34844 0.07056 0.55148 0.0
H1964 H 0.34982 0.0503 0.53064 0.0
H1965 H 0.30753 0.03607 0.49929 0.0
H1966 H 0.30577 0.05609 0.52019 0.0
H1967 H 0.3451 0.14824 0.51849 0.0
H1968 H 0.34384 0.13106 0.54683 0.0
H1969 H 0.30283 0.09374 0.51767 0.0
H1970 H 0.30432 0.11083 0.48912 0.0
H1971 H 0.32352 0.08636 0.52022 0.0
H1972 H 0.30366 0.10866 0.56988 0.0
H1973 H 0.3031 0.12969 0.58979 0.0
H1974 H 0.34559 0.14368 0.62032 0.0
H1975 H 0.34651 0.12286 0.60035 0.0
C1976 C 0.31703 0.04103 0.59859 0.0
C1977 C 0.32877 0.04576 0.61388 0.0
C1978 C 0.31671 0.05171 0.58514 0.0
C1979 C 0.32814 0.06732 0.58662 0.0
C1980 C 0.34 0.07206 0.60165 0.0
C1981 C 0.34035 0.06138 0.61509 0.0
C1982 C 0.32746 0.07875 0.57294 0.0
C1983 C 0.32747 0.09119 0.58338 0.0
C1984 C 0.32601 0.077 0.54987 0.0
C1985 C 0.32689 0.06472 0.53761 0.0
C1986 C 0.33934 0.06299 0.54034 0.0
C1987 C 0.34021 0.05158 0.52846 0.0
C1988 C 0.32875 0.04187 0.5137 0.0
C1989 C 0.31639 0.04357 0.51077 0.0
C1990 C 0.31545 0.05496 0.52262 0.0
C1991 C 0.3355 0.13654 0.51875 0.0
C1992 C 0.32478 0.13082 0.50176 0.0
C1993 C 0.33481 0.1267 0.53487 0.0
C1994 C 0.32328 0.11107 0.53432 0.0
C1995 C 0.31187 0.10572 0.51836 0.0
C1996 C 0.31264 0.1155 0.50219 0.0
C1997 C 0.32414 0.09989 0.54836 0.0
C1998 C 0.32427 0.08752 0.53796 0.0
C1999 C 0.32576 0.10176 0.57141 0.0
C2000 C 0.32522 0.11428 0.58345 0.0
C2001 C 0.31295 0.1163 0.58069 0.0
C2002 C 0.31256 0.12817 0.59202 0.0
C2003 C 0.32432 0.13804 0.60627 0.0
C2004 C 0.33649 0.13604 0.60926 0.0
C2005 C 0.33694 0.12419 0.59796 0.0
H2006 H 0.32399 0.14722 0.61503 0.0
H2007 H 0.32947 0.03307 0.50448 0.0
H2008 H 0.96219 0.28931 0.62058 0.0
H2009 H 0.94562 0.27439 0.58997 0.0
H2010 H 0.90744 0.27048 0.62497 0.0
H2011 H 0.92392 0.28492 0.65605 0.0
H2012 H 0.89956 0.24399 0.60788 0.0
H2013 H 0.92361 0.29427 0.57947 0.0
H2014 H 0.94466 0.32008 0.56993 0.0
H2015 H 0.9628 0.29989 0.52664 0.0
H2016 H 0.94197 0.27394 0.53615 0.0
H2017 H 0.85594 0.21116 0.5068 0.0
H2018 H 0.868 0.22793 0.53928 0.0
H2019 H 0.90986 0.23068 0.52306 0.0
H2020 H 0.89792 0.21376 0.49124 0.0
H2021 H 0.91289 0.2595 0.53065 0.0
H2022 H 0.88942 0.20905 0.56338 0.0
H2023 H 0.86761 0.18362 0.57275 0.0
H2024 H 0.84722 0.2053 0.60751 0.0
H2025 H 0.86883 0.23086 0.59808 0.0
C2026 C 0.9503 0.28541 0.62168 0.0
C2027 C 0.94437 0.28831 0.64072 0.0
C2028 C 0.94083 0.27693 0.6041 0.0
C2029 C 0.92528 0.27148 0.60497 0.0
C2030 C 0.91938 0.27456 0.62387 0.0
C2031 C 0.92882 0.28286 0.6416 0.0
C2032 C 0.91516 0.26199 0.58653 0.0
C2033 C 0.90233 0.24755 0.59103 0.0
C2034 C 0.91872 0.26654 0.56448 0.0
C2035 C 0.93127 0.28214 0.55865 0.0
C2036 C 0.93214 0.29533 0.56803 0.0
C2037 C 0.94403 0.30999 0.56261 0.0
C2038 C 0.95507 0.31163 0.54772 0.0
C2039 C 0.95424 0.29861 0.53818 0.0
C2040 C 0.94238 0.28392 0.54355 0.0
C2041 C 0.86764 0.21516 0.5104 0.0
C2042 C 0.87603 0.2113 0.4963 0.0
C2043 C 0.87452 0.22479 0.52885 0.0
C2044 C 0.88986 0.23065 0.53338 0.0
C2045 C 0.89807 0.22644 0.51967 0.0
C2046 C 0.89123 0.2168 0.50146 0.0
C2047 C 0.89769 0.24145 0.55207 0.0
C2048 C 0.91004 0.25613 0.54757 0.0
C2049 C 0.89357 0.23721 0.57405 0.0
C2050 C 0.88064 0.22185 0.57979 0.0
C2051 C 0.88022 0.20839 0.57285 0.0
C2052 C 0.86791 0.19395 0.57821 0.0
C2053 C 0.85601 0.19284 0.59066 0.0
C2054 C 0.85643 0.20617 0.59783 0.0
C2055 C 0.8687 0.22063 0.59249 0.0
H2056 H 0.84649 0.18166 0.59479 0.0
H2057 H 0.96427 0.32299 0.54355 0.0
H2058 H 0.32423 0.28495 0.62054 0.0
H2059 H 0.32398 0.26725 0.59249 0.0
H2060 H 0.37263 0.29437 0.58932 0.0
H2061 H 0.37304 0.31211 0.61752 0.0
H2062 H 0.35593 0.28222 0.54665 0.0
H2063 H 0.35855 0.26612 0.62069 0.0
H2064 H 0.34818 0.26 0.65808 0.0
H2065 H 0.30578 0.22328 0.63239 0.0
H2066 H 0.31578 0.22951 0.59476 0.0
H2067 H 0.36929 0.22989 0.49129 0.0
H2068 H 0.37106 0.24819 0.51973 0.0
H2069 H 0.32558 0.21521 0.54035 0.0
H2070 H 0.3242 0.19669 0.51267 0.0
H2071 H 0.34025 0.23062 0.57413 0.0
H2072 H 0.33389 0.24397 0.50323 0.0
H2073 H 0.3391 0.24998 0.46409 0.0
H2074 H 0.38203 0.29015 0.48059 0.0
H2075 H 0.37722 0.2842 0.51985 0.0
C2076 C 0.33488 0.28731 0.61364 0.0
C2077 C 0.34868 0.29985 0.62143 0.0
C2078 C 0.3347 0.27718 0.59761 0.0
C2079 C 0.34829 0.27947 0.589 0.0
C2080 C 0.36203 0.29244 0.59579 0.0
C2081 C 0.36224 0.3025 0.61199 0.0
C2082 C 0.34827 0.26759 0.57452 0.0
C2083 C 0.35274 0.27101 0.55264 0.0
C2084 C 0.34345 0.25277 0.58223 0.0
C2085 C 0.33787 0.24836 0.60492 0.0
C2086 C 0.34701 0.25676 0.62301 0.0
C2087 C 0.34118 0.25329 0.64425 0.0
C2088 C 0.32631 0.24127 0.64761 0.0
C2089 C 0.31729 0.2326 0.62976 0.0
C2090 C 0.32302 0.23611 0.60847 0.0
C2091 C 0.35994 0.22642 0.50249 0.0
C2092 C 0.34667 0.21193 0.50005 0.0
C2093 C 0.36084 0.23692 0.5185 0.0
C2094 C 0.34828 0.23326 0.53177 0.0
C2095 C 0.3354 0.21835 0.53027 0.0
C2096 C 0.33462 0.20774 0.51456 0.0
C2097 C 0.34817 0.24524 0.54608 0.0
C2098 C 0.34361 0.24184 0.568 0.0
C2099 C 0.35231 0.25987 0.53811 0.0
C2100 C 0.35527 0.26353 0.5145 0.0
C2101 C 0.3445 0.25402 0.49852 0.0
C2102 C 0.34738 0.25741 0.47631 0.0
C2103 C 0.36091 0.27041 0.46986 0.0
C2104 C 0.37157 0.28006 0.48562 0.0
C2105 C 0.36879 0.27668 0.50785 0.0
H2106 H 0.36311 0.27303 0.45266 0.0
H2107 H 0.32175 0.23867 0.66403 0.0
H2108 H 0.71486 0.06769 0.62405 0.0
H2109 H 0.73498 0.08755 0.60175 0.0
H2110 H 0.74257 0.05355 0.57131 0.0
H2111 H 0.72271 0.0337 0.59391 0.0
H2112 H 0.76866 0.07831 0.58261 0.0
H2113 H 0.72405 0.06871 0.54458 0.0
H2114 H 0.69931 0.06639 0.54098 0.0
H2115 H 0.71904 0.11361 0.56187 0.0
H2116 H 0.74387 0.11615 0.56586 0.0
H2117 H 0.80559 0.11345 0.48378 0.0
H2118 H 0.7894 0.09785 0.51372 0.0
H2119 H 0.79005 0.13748 0.5416 0.0
H2120 H 0.80639 0.15318 0.51152 0.0
H2121 H 0.76116 0.11244 0.53516 0.0
H2122 H 0.80661 0.12248 0.56902 0.0
H2123 H 0.83125 0.12446 0.57128 0.0
H2124 H 0.80988 0.07605 0.55698 0.0
H2125 H 0.78512 0.0738 0.55431 0.0
C2126 C 0.7207 0.0644 0.61244 0.0
C2127 C 0.71714 0.04908 0.61073 0.0
C2128 C 0.73221 0.07578 0.59968 0.0
C2129 C 0.74026 0.07205 0.58474 0.0
C2130 C 0.73657 0.05673 0.58278 0.0
C2131 C 0.72514 0.04536 0.59563 0.0
C2132 C 0.75272 0.08411 0.57138 0.0
C2133 C 0.76697 0.08567 0.57208 0.0
C2134 C 0.75069 0.09408 0.55816 0.0
C2135 C 0.73577 0.09257 0.55576 0.0
C2136 C 0.72309 0.07856 0.54858 0.0
C2137 C 0.70905 0.07722 0.54644 0.0
C2138 C 0.7076 0.08983 0.55126 0.0
C2139 C 0.72018 0.10384 0.55818 0.0
C2140 C 0.73424 0.10524 0.56037 0.0
C2141 C 0.80261 0.1189 0.49666 0.0
C2142 C 0.80725 0.13449 0.49548 0.0
C2143 C 0.79338 0.11 0.51374 0.0
C2144 C 0.78854 0.1165 0.52992 0.0
C2145 C 0.79369 0.13226 0.5293 0.0
C2146 C 0.8031 0.14123 0.51227 0.0
C2147 C 0.777 0.10643 0.5461 0.0
C2148 C 0.7629 0.10522 0.54592 0.0
C2149 C 0.77915 0.09672 0.55966 0.0
C2150 C 0.79401 0.098 0.56131 0.0
C2151 C 0.80717 0.11227 0.56618 0.0
C2152 C 0.82116 0.11344 0.56757 0.0
C2153 C 0.82213 0.10039 0.56423 0.0
C2154 C 0.80911 0.08614 0.55955 0.0
C2155 C 0.79509 0.08491 0.55813 0.0
H2156 H 0.83297 0.10132 0.56532 0.0
H2157 H 0.69672 0.08877 0.54959 0.0
H2158 H 0.96195 0.69965 0.61859 0.0
H2159 H 0.94365 0.69864 0.59277 0.0
H2160 H 0.92101 0.64915 0.58903 0.0
H2161 H 0.93948 0.65008 0.61452 0.0
H2162 H 0.92306 0.66081 0.54926 0.0
H2163 H 0.90796 0.66781 0.62179 0.0
H2164 H 0.91218 0.68116 0.65767 0.0
H2165 H 0.92126 0.72213 0.6258 0.0
H2166 H 0.9174 0.70912 0.5897 0.0
H2167 H 0.85641 0.64455 0.49899 0.0
H2168 H 0.87281 0.64582 0.52851 0.0
H2169 H 0.89478 0.69529 0.5314 0.0
H2170 H 0.87798 0.69392 0.50223 0.0
H2171 H 0.89312 0.68405 0.57176 0.0
H2172 H 0.9091 0.67846 0.50011 0.0
H2173 H 0.90569 0.66636 0.46341 0.0
H2174 H 0.89626 0.6244 0.49247 0.0
H2175 H 0.89931 0.63616 0.52939 0.0
C2176 C 0.95315 0.68855 0.61215 0.0
C2177 C 0.95211 0.67494 0.61872 0.0
C2178 C 0.94265 0.68799 0.59747 0.0
C2179 C 0.93078 0.67379 0.58931 0.0
C2180 C 0.93003 0.66022 0.59521 0.0
C2181 C 0.9406 0.66078 0.60979 0.0
C2182 C 0.91896 0.67305 0.57496 0.0
C2183 C 0.91638 0.66571 0.55432 0.0
C2184 C 0.91053 0.67984 0.58129 0.0
C2185 C 0.91252 0.68753 0.60303 0.0
C2186 C 0.91094 0.67969 0.62243 0.0
C2187 C 0.91327 0.6872 0.64281 0.0
C2188 C 0.91701 0.7025 0.644 0.0
C2189 C 0.91838 0.71029 0.62484 0.0
C2190 C 0.91612 0.70286 0.60442 0.0
C2191 C 0.86441 0.65562 0.5065 0.0
C2192 C 0.86599 0.66914 0.49856 0.0
C2193 C 0.87385 0.65637 0.52319 0.0
C2194 C 0.88525 0.67068 0.53178 0.0
C2195 C 0.88609 0.68414 0.52494 0.0
C2196 C 0.8765 0.68337 0.50838 0.0
C2197 C 0.89713 0.67166 0.54622 0.0
C2198 C 0.89977 0.6791 0.56678 0.0
C2199 C 0.90576 0.66513 0.53973 0.0
C2200 C 0.9043 0.65815 0.51753 0.0
C2201 C 0.90622 0.66663 0.49869 0.0
C2202 C 0.90435 0.65983 0.47784 0.0
C2203 C 0.90073 0.64462 0.47561 0.0
C2204 C 0.89904 0.63618 0.49422 0.0
C2205 C 0.90084 0.64291 0.51512 0.0
H2206 H 0.89928 0.63937 0.45946 0.0
H2207 H 0.91884 0.70832 0.65976 0.0
H2208 H 0.91848 0.6475 0.69693 0.0
H2209 H 0.90411 0.6505 0.72643 0.0
H2210 H 0.94564 0.68297 0.75983 0.0
H2211 H 0.96016 0.6799 0.7304 0.0
H2212 H 0.92574 0.66171 0.78716 0.0
H2213 H 0.92442 0.69484 0.73444 0.0
H2214 H 0.91988 0.70229 0.69866 0.0
H2215 H 0.87284 0.66715 0.70229 0.0
H2216 H 0.87714 0.65936 0.73804 0.0
H2217 H 0.896 0.6894 0.86699 0.0
H2218 H 0.90935 0.68769 0.83499 0.0
H2219 H 0.867 0.65284 0.80599 0.0
H2220 H 0.85346 0.65423 0.83839 0.0
H2221 H 0.88672 0.67502 0.77615 0.0
H2222 H 0.88826 0.64024 0.82616 0.0
H2223 H 0.89249 0.6317 0.86126 0.0
H2224 H 0.93849 0.66965 0.86241 0.0
H2225 H 0.9346 0.67823 0.827 0.0
C2226 C 0.92459 0.65534 0.71049 0.0
C2227 C 0.94048 0.66342 0.71135 0.0
C2228 C 0.91634 0.65712 0.72728 0.0
C2229 C 0.92379 0.66707 0.74524 0.0
C2230 C 0.93966 0.67525 0.74609 0.0
C2231 C 0.94794 0.67349 0.72926 0.0
C2232 C 0.91499 0.66831 0.76367 0.0
C2233 C 0.9174 0.66488 0.78475 0.0
C2234 C 0.90372 0.67193 0.76047 0.0
C2235 C 0.90113 0.67643 0.73883 0.0
C2236 C 0.91313 0.6886 0.72751 0.0
C2237 C 0.91059 0.69291 0.70725 0.0
C2238 C 0.89608 0.68519 0.69818 0.0
C2239 C 0.88407 0.67312 0.70934 0.0
C2240 C 0.88655 0.66876 0.72962 0.0
C2241 C 0.88949 0.6813 0.85388 0.0
C2242 C 0.87366 0.67179 0.8554 0.0
C2243 C 0.89715 0.68037 0.83558 0.0
C2244 C 0.88919 0.66996 0.8183 0.0
C2245 C 0.87334 0.6609 0.81923 0.0
C2246 C 0.86563 0.66176 0.83769 0.0
C2247 C 0.89759 0.66852 0.79951 0.0
C2248 C 0.89509 0.67188 0.77844 0.0
C2249 C 0.90876 0.66479 0.80262 0.0
C2250 C 0.9111 0.65995 0.8241 0.0
C2251 C 0.89925 0.64682 0.83399 0.0
C2252 C 0.9016 0.64193 0.85388 0.0
C2253 C 0.91572 0.65019 0.86417 0.0
C2254 C 0.92756 0.66329 0.85445 0.0
C2255 C 0.92531 0.66811 0.83441 0.0
H2256 H 0.91749 0.64642 0.87963 0.0
H2257 H 0.8941 0.68857 0.68253 0.0
H2258 H 0.36891 0.3006 0.71932 0.0
H2259 H 0.36784 0.28191 0.74452 0.0
H2260 H 0.31996 0.2626 0.75287 0.0
H2261 H 0.32096 0.28142 0.72777 0.0
H2262 H 0.33391 0.26694 0.79171 0.0
H2263 H 0.33277 0.24123 0.72225 0.0
H2264 H 0.34188 0.23911 0.6856 0.0
H2265 H 0.38576 0.25454 0.71219 0.0
H2266 H 0.37676 0.25626 0.74918 0.0
H2267 H 0.31534 0.20087 0.84762 0.0
H2268 H 0.31693 0.21722 0.81787 0.0
H2269 H 0.36459 0.23445 0.81123 0.0
H2270 H 0.36286 0.21768 0.84076 0.0
H2271 H 0.3519 0.23175 0.77175 0.0
H2272 H 0.35294 0.25455 0.84126 0.0
H2273 H 0.34426 0.25543 0.87871 0.0
H2274 H 0.30228 0.24728 0.85319 0.0
H2275 H 0.31063 0.24615 0.81554 0.0
C2276 C 0.35813 0.29238 0.72648 0.0
C2277 C 0.34501 0.29253 0.72151 0.0
C2278 C 0.35752 0.2816 0.74077 0.0
C2279 C 0.34378 0.27068 0.75037 0.0
C2280 C 0.33068 0.27087 0.74559 0.0
C2281 C 0.33127 0.28165 0.73125 0.0
C2282 C 0.34319 0.25946 0.76602 0.0
C2283 C 0.33763 0.25909 0.78722 0.0
C2284 C 0.34861 0.24963 0.76056 0.0
C2285 C 0.35416 0.24904 0.73835 0.0
C2286 C 0.34439 0.24428 0.72022 0.0
C2287 C 0.34952 0.24311 0.69941 0.0
C2288 C 0.36443 0.24689 0.69648 0.0
C2289 C 0.37422 0.25167 0.71445 0.0
C2290 C 0.36909 0.25264 0.73536 0.0
C2291 C 0.32605 0.20786 0.83938 0.0
C2292 C 0.33898 0.20806 0.84636 0.0
C2293 C 0.327 0.21729 0.82255 0.0
C2294 C 0.34096 0.22735 0.8127 0.0
C2295 C 0.35372 0.22684 0.81869 0.0
C2296 C 0.35273 0.21724 0.83544 0.0
C2297 C 0.34232 0.23901 0.79724 0.0
C2298 C 0.34814 0.23957 0.77622 0.0
C2299 C 0.33735 0.24919 0.80299 0.0
C2300 C 0.33236 0.25013 0.82558 0.0
C2301 C 0.34182 0.25285 0.84363 0.0
C2302 C 0.33696 0.25339 0.8649 0.0
C2303 C 0.32271 0.25135 0.86835 0.0
C2304 C 0.31331 0.24883 0.8505 0.0
C2305 C 0.31811 0.24826 0.82918 0.0
H2306 H 0.31896 0.25176 0.88484 0.0
H2307 H 0.36837 0.24602 0.68032 0.0
H2308 H 0.74408 0.05791 0.69567 0.0
H2309 H 0.76025 0.07612 0.7244 0.0
H2310 H 0.72129 0.07324 0.7552 0.0
H2311 H 0.70498 0.05495 0.72648 0.0
H2312 H 0.74548 0.10347 0.7505 0.0
H2313 H 0.73668 0.05563 0.77762 0.0
H2314 H 0.7362 0.03123 0.77551 0.0
H2315 H 0.78405 0.05599 0.76395 0.0
H2316 H 0.78479 0.08054 0.76569 0.0
H2317 H 0.77501 0.13653 0.85531 0.0
H2318 H 0.76121 0.12141 0.82284 0.0
H2319 H 0.80096 0.12205 0.79983 0.0
H2320 H 0.81469 0.13672 0.83281 0.0
H2321 H 0.77747 0.09372 0.7988 0.0
H2322 H 0.78692 0.14165 0.77343 0.0
H2323 H 0.78779 0.16624 0.77503 0.0
H2324 H 0.73955 0.14199 0.78233 0.0
H2325 H 0.73841 0.11724 0.78109 0.0
C2326 C 0.73892 0.06105 0.70863 0.0
C2327 C 0.72323 0.05496 0.70882 0.0
C2328 C 0.74818 0.07145 0.72505 0.0
C2329 C 0.74196 0.076 0.74194 0.0
C2330 C 0.7263 0.06988 0.74227 0.0
C2331 C 0.717 0.05937 0.72594 0.0
C2332 C 0.75185 0.08732 0.75907 0.0
C2333 C 0.75235 0.1013 0.76126 0.0
C2334 C 0.76117 0.08466 0.77257 0.0
C2335 C 0.76076 0.06991 0.77155 0.0
C2336 C 0.74708 0.05586 0.77443 0.0
C2337 C 0.74677 0.042 0.77335 0.0
C2338 C 0.76008 0.04205 0.76953 0.0
C2339 C 0.77374 0.05596 0.76686 0.0
C2340 C 0.77412 0.06985 0.76792 0.0
C2341 C 0.78088 0.13362 0.84319 0.0
C2342 C 0.79592 0.13772 0.84672 0.0
C2343 C 0.773 0.12507 0.82453 0.0
C2344 C 0.78004 0.12061 0.80881 0.0
C2345 C 0.79529 0.12535 0.81174 0.0
C2346 C 0.80318 0.13387 0.83048 0.0
C2347 C 0.77109 0.10993 0.79041 0.0
C2348 C 0.77072 0.09602 0.78797 0.0
C2349 C 0.76197 0.11271 0.77659 0.0
C2350 C 0.76259 0.12758 0.77734 0.0
C2351 C 0.7765 0.14156 0.77555 0.0
C2352 C 0.77704 0.15553 0.77636 0.0
C2353 C 0.76374 0.15568 0.77883 0.0
C2354 C 0.74985 0.14185 0.78044 0.0
C2355 C 0.74925 0.12785 0.77965 0.0
H2356 H 0.76418 0.16651 0.77945 0.0
H2357 H 0.75981 0.03131 0.7687 0.0
H2358 H 0.04331 0.33808 0.97742 0.0
H2359 H 0.06512 0.33719 0.9899 0.0
H2360 H 0.0723 0.36933 0.04264 0.0
H2361 H 0.05062 0.37042 0.03015 0.0
H2362 H 0.09895 0.37592 0.02407 0.0
H2363 H 0.0541 0.33109 0.05157 0.0
H2364 H 0.02916 0.3071 0.04845 0.0
H2365 H 0.04808 0.28695 0.00663 0.0
H2366 H 0.07311 0.31092 0.00928 0.0
H2367 H 0.13437 0.36016 0.10845 0.0
H2368 H 0.11977 0.36532 0.08287 0.0
H2369 H 0.11815 0.33141 0.03731 0.0
H2370 H 0.13269 0.32609 0.06319 0.0
H2371 H 0.09047 0.32563 0.04632 0.0
H2372 H 0.13647 0.36954 0.02392 0.0
H2373 H 0.16135 0.39344 0.02829 0.0
H2374 H 0.14061 0.41539 0.06125 0.0
H2375 H 0.11561 0.39156 0.05738 0.0
C2376 C 0.04958 0.34504 0.9916 0.0
C2377 C 0.04514 0.35424 0.00288 0.0
C2378 C 0.06204 0.3445 0.99873 0.0
C2379 C 0.07027 0.35308 0.01734 0.0
C2380 C 0.06614 0.36262 0.02823 0.0
C2381 C 0.05368 0.36317 0.02113 0.0
C2382 C 0.08275 0.35163 0.02611 0.0
C2383 C 0.09711 0.36495 0.02904 0.0
C2384 C 0.08046 0.33725 0.032 0.0
C2385 C 0.06542 0.32285 0.03039 0.0
C2386 C 0.05291 0.32159 0.04155 0.0
C2387 C 0.03876 0.30799 0.0399 0.0
C2388 C 0.03702 0.29553 0.02729 0.0
C2389 C 0.04944 0.29663 0.01635 0.0
C2390 C 0.06361 0.31021 0.01793 0.0
C2391 C 0.13129 0.35416 0.09267 0.0
C2392 C 0.13463 0.34273 0.08776 0.0
C2393 C 0.12298 0.35714 0.07802 0.0
C2394 C 0.11786 0.34878 0.0581 0.0
C2395 C 0.122 0.33802 0.05256 0.0
C2396 C 0.13041 0.33508 0.06724 0.0
C2397 C 0.10668 0.34997 0.04466 0.0
C2398 C 0.09249 0.33659 0.04093 0.0
C2399 C 0.10913 0.3643 0.03813 0.0
C2400 C 0.12415 0.37871 0.04046 0.0
C2401 C 0.13721 0.37942 0.03225 0.0
C2402 C 0.15134 0.39297 0.03461 0.0
C2403 C 0.15256 0.40592 0.04507 0.0
C2404 C 0.13965 0.40536 0.05315 0.0
C2405 C 0.12548 0.39183 0.05084 0.0
H2406 H 0.16351 0.4164 0.04688 0.0
H2407 H 0.02606 0.28501 0.02604 0.0
H2408 H 0.66613 0.69422 0.02672 0.0
H2409 H 0.67021 0.71997 0.03189 0.0
H2410 H 0.62647 0.70054 0.06244 0.0
H2411 H 0.62225 0.67475 0.0572 0.0
H2412 H 0.63129 0.7227 0.03434 0.0
H2413 H 0.65777 0.71733 0.0936 0.0
H2414 H 0.67573 0.71219 0.11162 0.0
H2415 H 0.71252 0.74898 0.07675 0.0
H2416 H 0.69473 0.7542 0.05828 0.0
H2417 H 0.6412 0.78492 0.1033 0.0
H2418 H 0.63562 0.76168 0.08254 0.0
H2419 H 0.68021 0.78629 0.05411 0.0
H2420 H 0.68582 0.80945 0.07525 0.0
H2421 H 0.67593 0.76252 0.07642 0.0
H2422 H 0.64817 0.76984 0.02164 0.0
H2423 H 0.62931 0.77504 0.00708 0.0
H2424 H 0.59367 0.73451 0.03736 0.0
H2425 H 0.61234 0.72917 0.05238 0.0
C2426 C 0.65737 0.69541 0.03451 0.0
C2427 C 0.64389 0.68242 0.04165 0.0
C2428 C 0.65973 0.71015 0.03748 0.0
C2429 C 0.64868 0.71219 0.04767 0.0
C2430 C 0.63513 0.69923 0.05448 0.0
C2431 C 0.63278 0.6845 0.05159 0.0
C2432 C 0.6514 0.72786 0.05176 0.0
C2433 C 0.64098 0.73139 0.0437 0.0
C2434 C 0.66419 0.73929 0.06358 0.0
C2435 C 0.67489 0.73599 0.0743 0.0
C2436 C 0.66966 0.72419 0.08956 0.0
C2437 C 0.67982 0.7213 0.09991 0.0
C2438 C 0.69525 0.73021 0.09526 0.0
C2439 C 0.70056 0.74206 0.08028 0.0
C2440 C 0.69044 0.74499 0.06987 0.0
C2441 C 0.64945 0.78555 0.09166 0.0
C2442 C 0.66382 0.79896 0.09051 0.0
C2443 C 0.64631 0.77225 0.07988 0.0
C2444 C 0.65751 0.77222 0.06676 0.0
C2445 C 0.6714 0.78606 0.06408 0.0
C2446 C 0.67454 0.79932 0.07593 0.0
C2447 C 0.65575 0.75739 0.05925 0.0
C2448 C 0.66635 0.75396 0.06675 0.0
C2449 C 0.64297 0.74601 0.04732 0.0
C2450 C 0.63169 0.74916 0.03827 0.0
C2451 C 0.63633 0.76209 0.02535 0.0
C2452 C 0.62566 0.76506 0.01698 0.0
C2453 C 0.6103 0.75513 0.02132 0.0
C2454 C 0.60558 0.7422 0.03401 0.0
C2455 C 0.6162 0.73918 0.04243 0.0
H2456 H 0.60207 0.75744 0.01483 0.0
H2457 H 0.7031 0.72797 0.10332 0.0
H2458 H 0.3145 0.98073 0.02754 0.0
H2459 H 0.28949 0.95902 0.03672 0.0
H2460 H 0.3066 0.92859 0.03262 0.0
H2461 H 0.33152 0.95017 0.02281 0.0
H2462 H 0.27982 0.91456 0.01524 0.0
H2463 H 0.30086 0.94215 0.08251 0.0
H2464 H 0.3125 0.96403 0.10898 0.0
H2465 H 0.27438 0.96939 0.10307 0.0
H2466 H 0.2626 0.94767 0.07632 0.0
H2467 H 0.22683 0.85881 0.09235 0.0
H2468 H 0.24793 0.87705 0.06941 0.0
H2469 H 0.22528 0.90164 0.0588 0.0
H2470 H 0.20408 0.88323 0.08136 0.0
H2471 H 0.25379 0.91826 0.08161 0.0
H2472 H 0.23207 0.88749 0.01603 0.0
H2473 H 0.22087 0.86369 0.99327 0.0
H2474 H 0.26128 0.86242 0.00022 0.0
H2475 H 0.27264 0.8861 0.0233 0.0
C2476 C 0.31293 0.96941 0.02851 0.0
C2477 C 0.32504 0.96721 0.02455 0.0
C2478 C 0.29862 0.957 0.03386 0.0
C2479 C 0.29616 0.94216 0.03571 0.0
C2480 C 0.30817 0.9399 0.03131 0.0
C2481 C 0.32245 0.95228 0.02576 0.0
C2482 C 0.28117 0.92907 0.04259 0.0
C2483 C 0.2742 0.91535 0.02985 0.0
C2484 C 0.2737 0.93006 0.06157 0.0
C2485 C 0.28096 0.94342 0.07716 0.0
C2486 C 0.29505 0.94812 0.08664 0.0
C2487 C 0.30165 0.96046 0.10175 0.0
C2488 C 0.29421 0.96813 0.10764 0.0
C2489 C 0.28015 0.96347 0.09844 0.0
C2490 C 0.27351 0.95115 0.0833 0.0
C2491 C 0.22602 0.86759 0.08405 0.0
C2492 C 0.21378 0.86952 0.08822 0.0
C2493 C 0.2381 0.87807 0.07111 0.0
C2494 C 0.23817 0.89071 0.06249 0.0
C2495 C 0.22539 0.89191 0.06522 0.0
C2496 C 0.21323 0.88132 0.07789 0.0
C2497 C 0.25244 0.90392 0.05415 0.0
C2498 C 0.25934 0.9176 0.0668 0.0
C2499 C 0.25996 0.90272 0.03548 0.0
C2500 C 0.25316 0.8885 0.02156 0.0
C2501 C 0.23852 0.88206 0.01288 0.0
C2502 C 0.23215 0.86861 -0.00013 0.0
C2503 C 0.24034 0.86153 0.99534 0.0
C2504 C 0.25494 0.86791 0.00376 0.0
C2505 C 0.26136 0.88136 0.01678 0.0
H2506 H 0.2354 0.85112 0.98527 0.0
H2507 H 0.29933 0.97766 0.11938 0.0
H2508 H 0.39449 0.07284 0.99211 0.0
H2509 H 0.39082 0.09366 0.98215 0.0
H2510 H 0.34372 0.06601 -0.00034 0.0
H2511 H 0.34724 0.045 0.00932 0.0
H2512 H 0.34672 0.07847 0.96106 0.0
H2513 H 0.36942 0.0974 0.03168 0.0
H2514 H 0.38856 0.10486 0.06062 0.0
H2515 H 0.42258 0.13907 0.01912 0.0
H2516 H 0.40369 0.13168 0.9898 0.0
H2517 H 0.33176 0.13608 0.94213 0.0
H2518 H 0.3363 0.12017 0.96643 0.0
H2519 H 0.38206 0.14143 0.94266 0.0
H2520 H 0.37747 0.15726 0.9183 0.0
H2521 H 0.3788 0.13263 0.98765 0.0
H2522 H 0.35733 0.11156 0.91607 0.0
H2523 H 0.33873 0.10433 0.88635 0.0
H2524 H 0.30291 0.07424 0.92949 0.0
H2525 H 0.3213 0.08143 0.95955 0.0
C2526 C 0.38336 0.0712 0.99401 0.0
C2527 C 0.37115 0.05721 0.00149 0.0
C2528 C 0.3813 0.08318 0.98843 0.0
C2529 C 0.36703 0.08151 0.99038 0.0
C2530 C 0.35485 0.06761 0.99806 0.0
C2531 C 0.35689 0.0556 0.0036 0.0
C2532 C 0.36462 0.0939 0.98324 0.0
C2533 C 0.35354 0.09023 0.96727 0.0
C2534 C 0.37376 0.10938 0.99085 0.0
C2535 C 0.38515 0.11389 0.00847 0.0
C2536 C 0.38101 0.10644 0.02866 0.0
C2537 C 0.39181 0.11067 0.04515 0.0
C2538 C 0.40679 0.12241 0.04169 0.0
C2539 C 0.41098 0.12997 0.02176 0.0
C2540 C 0.40022 0.12578 0.00521 0.0
C2541 C 0.343 0.1379 0.943 0.0
C2542 C 0.35434 0.14799 0.92864 0.0
C2543 C 0.34555 0.12872 0.95669 0.0
C2544 C 0.35946 0.12948 0.95611 0.0
C2545 C 0.37128 0.14069 0.94342 0.0
C2546 C 0.36869 0.1498 0.92962 0.0
C2547 C 0.36089 0.11709 0.96569 0.0
C2548 C 0.37184 0.12079 0.98185 0.0
C2549 C 0.3517 0.10162 0.95821 0.0
C2550 C 0.34065 0.09716 0.94011 0.0
C2551 C 0.34547 0.10349 0.91926 0.0
C2552 C 0.33498 0.09939 0.90234 0.0
C2553 C 0.31964 0.08888 0.90606 0.0
C2554 C 0.31478 0.0824 0.92666 0.0
C2555 C 0.32524 0.08647 0.94363 0.0
H2556 H 0.31153 0.08573 0.89295 0.0
H2557 H 0.41513 0.12567 0.05448 0.0
H2558 H 0.94672 0.32434 0.00512 0.0
H2559 H 0.9257 0.29849 0.99585 0.0
H2560 H 0.95722 0.28421 0.98011 0.0
H2561 H 0.97832 0.31019 0.98873 0.0
H2562 H 0.93715 0.27472 0.9493 0.0
H2563 H 0.93464 0.27275 0.02768 0.0
H2564 H 0.93315 0.28136 0.06525 0.0
H2565 H 0.89063 0.27661 0.05003 0.0
H2566 H 0.89197 0.26817 0.01226 0.0
H2567 H 0.88764 0.19674 0.93732 0.0
H2568 H 0.90465 0.21949 0.95973 0.0
H2569 H 0.87405 0.23577 0.95429 0.0
H2570 H 0.85696 0.21294 0.93163 0.0
H2571 H 0.89265 0.24372 0.9969 0.0
H2572 H 0.89652 0.24714 0.91754 0.0
H2573 H 0.89783 0.23728 0.88076 0.0
H2574 H 0.93831 0.23869 0.89909 0.0
H2575 H 0.93707 0.24828 0.93615 0.0
C2576 C 0.94919 0.31567 -0.00014 0.0
C2577 C 0.96421 0.31934 0.99763 0.0
C2578 C 0.93713 0.30084 0.99468 0.0
C2579 C 0.93982 0.2893 0.9875 0.0
C2580 C 0.95483 0.2929 0.9856 0.0
C2581 C 0.96689 0.30776 0.99057 0.0
C2582 C 0.92709 0.27374 0.98082 0.0
C2583 C 0.92756 0.26792 0.95991 0.0
C2584 C 0.91433 0.26491 0.99437 0.0
C2585 C 0.91348 0.26997 0.01707 0.0
C2586 C 0.92503 0.27366 0.03229 0.0
C2587 C 0.9242 0.27849 0.05363 0.0
C2588 C 0.91182 0.27957 0.06001 0.0
C2589 C 0.90022 0.27579 0.04506 0.0
C2590 C 0.90101 0.27096 0.02369 0.0
C2591 C 0.88422 0.20482 0.94176 0.0
C2592 C 0.87107 0.20319 0.93271 0.0
C2593 C 0.89395 0.21782 0.9545 0.0
C2594 C 0.89068 0.22936 0.95836 0.0
C2595 C 0.87672 0.22693 0.95149 0.0
C2596 C 0.86695 0.21388 0.93864 0.0
C2597 C 0.90294 0.24487 0.96567 0.0
C2598 C 0.90232 0.25064 0.98649 0.0
C2599 C 0.91564 0.25368 0.95213 0.0
C2600 C 0.91663 0.24829 0.92968 0.0
C2601 C 0.90564 0.24524 0.91378 0.0
C2602 C 0.90638 0.23972 0.89287 0.0
C2603 C 0.91814 0.23734 0.8876 0.0
C2604 C 0.9292 0.24052 0.90321 0.0
C2605 C 0.9285 0.24601 0.92416 0.0
H2606 H 0.9187 0.23308 0.87141 0.0
H2607 H 0.9112 0.28331 0.07654 0.0
H2608 H 0.68738 0.63686 0.0217 0.0
H2609 H 0.71044 0.6373 0.01106 0.0
H2610 H 0.72145 0.67352 0.96598 0.0
H2611 H 0.69849 0.67306 0.97631 0.0
H2612 H 0.72371 0.65128 0.9466 0.0
H2613 H 0.74064 0.68078 0.01402 0.0
H2614 H 0.73984 0.68579 0.05361 0.0
H2615 H 0.74409 0.64731 0.06804 0.0
H2616 H 0.74471 0.64194 0.02849 0.0
H2617 H 0.80786 0.68464 0.94707 0.0
H2618 H 0.78583 0.67965 0.96879 0.0
H2619 H 0.7597 0.63447 0.9384 0.0
H2620 H 0.7817 0.63966 0.91632 0.0
H2621 H 0.76462 0.65967 0.997 0.0
H2622 H 0.72579 0.62948 0.92239 0.0
H2623 H 0.72695 0.62746 0.88214 0.0
H2624 H 0.76792 0.67184 0.88129 0.0
H2625 H 0.76687 0.67422 0.92153 0.0
C2626 C 0.69477 0.64499 0.00963 0.0
C2627 C 0.69104 0.65488 -0.00022 0.0
C2628 C 0.70798 0.64527 0.00363 0.0
C2629 C 0.7177 0.65546 0.98774 0.0
C2630 C 0.7141 0.66551 0.97821 0.0
C2631 C 0.70096 0.66525 0.98418 0.0
C2632 C 0.73127 0.6553 0.98015 0.0
C2633 C 0.73259 0.653 0.95768 0.0
C2634 C 0.74293 0.65766 0.99454 0.0
C2635 C 0.74254 0.66085 0.0183 0.0
C2636 C 0.74126 0.6733 0.02563 0.0
C2637 C 0.74087 0.67622 0.04806 0.0
C2638 C 0.74187 0.66684 0.06333 0.0
C2639 C 0.74329 0.65454 0.05619 0.0
C2640 C 0.74368 0.65156 0.03377 0.0
C2641 C 0.79761 0.67339 0.94585 0.0
C2642 C 0.79645 0.66245 0.93029 0.0
C2643 C 0.78499 0.67057 0.95817 0.0
C2644 C 0.77103 0.6568 0.95493 0.0
C2645 C 0.77031 0.64525 0.94098 0.0
C2646 C 0.7829 0.64812 0.92856 0.0
C2647 C 0.75698 0.65558 0.96347 0.0
C2648 C 0.75559 0.65766 0.98603 0.0
C2649 C 0.74532 0.65331 0.94912 0.0
C2650 C 0.74632 0.65193 0.92498 0.0
C2651 C 0.73505 0.63879 0.91361 0.0
C2652 C 0.73567 0.6376 0.89081 0.0
C2653 C 0.74749 0.64951 0.8792 0.0
C2654 C 0.75878 0.66262 0.89034 0.0
C2655 C 0.75818 0.66389 0.91315 0.0
H2656 H 0.74781 0.6486 0.86155 0.0
H2657 H 0.74157 0.66913 0.08069 0.0
H2658 H 0.97751 0.68585 0.01053 0.0
H2659 H 0.9557 0.68721 0.0 0.0
H2660 H 0.92781 0.63765 -0.00062 0.0
H2661 H 0.94985 0.63623 0.00901 0.0
H2662 H 0.92122 0.64708 0.96567 0.0
H2663 H 0.92574 0.66187 0.04107 0.0
H2664 H 0.93837 0.67626 0.07512 0.0
H2665 H 0.94896 0.71849 0.04572 0.0
H2666 H 0.93657 0.70439 0.01137 0.0
H2667 H 0.85666 0.64952 0.9438 0.0
H2668 H 0.87307 0.64667 0.96932 0.0
H2669 H 0.90876 0.69346 0.95803 0.0
H2670 H 0.8924 0.69626 0.93251 0.0
H2671 H 0.90867 0.68315 0.00176 0.0
H2672 H 0.90595 0.66717 0.92495 0.0
H2673 H 0.89087 0.65191 0.89285 0.0
H2674 H 0.87539 0.6102 0.92753 0.0
H2675 H 0.88997 0.62528 0.96017 0.0
C2676 C 0.96672 0.67522 0.00829 0.0
C2677 C 0.96543 0.66092 0.01066 0.0
C2678 C 0.95419 0.67602 0.00242 0.0
C2679 C 0.93995 0.66254 -0.0007 0.0
C2680 C 0.93862 0.64823 0.00175 0.0
C2681 C 0.95124 0.64742 0.00728 0.0
C2682 C 0.92669 0.66344 0.99242 0.0
C2683 C 0.91834 0.65474 0.97393 0.0
C2684 C 0.92287 0.67353 0.00293 0.0
C2685 C 0.93031 0.68207 0.02358 0.0
C2686 C 0.93085 0.67424 0.04181 0.0
C2687 C 0.93796 0.68234 0.06118 0.0
C2688 C 0.94449 0.69828 0.06257 0.0
C2689 C 0.9439 0.70614 0.04462 0.0
C2690 C 0.93682 0.6981 0.0252 0.0
C2691 C 0.86774 0.65939 0.94765 0.0
C2692 C 0.87329 0.67313 0.93639 0.0
C2693 C 0.87714 0.65774 0.96209 0.0
C2694 C 0.8922 0.6698 0.96534 0.0
C2695 C 0.89719 0.68404 0.95582 0.0
C2696 C 0.88784 0.68565 0.9413 0.0
C2697 C 0.90347 0.6669 0.97515 0.0
C2698 C 0.91147 0.6753 0.99394 0.0
C2699 C 0.90687 0.6564 0.96514 0.0
C2700 C 0.8989 0.64735 0.94507 0.0
C2701 C 0.89928 0.65475 0.92577 0.0
C2702 C 0.89078 0.64614 0.9075 0.0
C2703 C 0.88214 0.6301 0.90817 0.0
C2704 C 0.88206 0.62263 0.92706 0.0
C2705 C 0.8904 0.63121 0.94547 0.0
H2706 H 0.87551 0.62343 0.89405 0.0
H2707 H 0.94999 0.70453 0.07758 0.0
H2708 H 0.33122 0.3106 0.98097 0.0
H2709 H 0.32636 0.28487 0.97214 0.0
H2710 H 0.36523 0.29475 0.01032 0.0
H2711 H 0.37008 0.32047 0.01949 0.0
H2712 H 0.36423 0.28302 0.96711 0.0
H2713 H 0.33227 0.27067 0.03034 0.0
H2714 H 0.31238 0.27044 0.05309 0.0
H2715 H 0.27981 0.24575 0.00193 0.0
H2716 H 0.29956 0.24603 0.97873 0.0
H2717 H 0.35272 0.21097 0.94248 0.0
H2718 H 0.35433 0.23051 0.96845 0.0
H2719 H 0.31405 0.22548 0.94028 0.0
H2720 H 0.31224 0.20576 0.9147 0.0
H2721 H 0.31661 0.23411 0.98337 0.0
H2722 H 0.34709 0.24973 0.91852 0.0
H2723 H 0.36571 0.2503 0.8925 0.0
H2724 H 0.39975 0.26971 0.94282 0.0
H2725 H 0.3812 0.26897 0.96926 0.0
C2726 C 0.33869 0.30728 0.98761 0.0
C2727 C 0.35106 0.31759 0.00089 0.0
C2728 C 0.33584 0.29254 0.98265 0.0
C2729 C 0.34538 0.28788 0.99072 0.0
C2730 C 0.35771 0.29811 0.00403 0.0
C2731 C 0.36044 0.31279 0.00926 0.0
C2732 C 0.34295 0.27267 0.98413 0.0
C2733 C 0.35398 0.2723 0.97113 0.0
C2734 C 0.32935 0.25874 0.98876 0.0
C2735 C 0.31743 0.25847 0.00273 0.0
C2736 C 0.32089 0.2653 0.02386 0.0
C2737 C 0.30964 0.26514 0.03686 0.0
C2738 C 0.29485 0.25811 0.02895 0.0
C2739 C 0.29127 0.2512 0.00804 0.0
C2740 C 0.30249 0.25133 0.99497 0.0
C2741 C 0.34382 0.21351 0.94256 0.0
C2742 C 0.33248 0.20704 0.92644 0.0
C2743 C 0.34481 0.22477 0.95727 0.0
C2744 C 0.33452 0.22972 0.95591 0.0
C2745 C 0.32216 0.22192 0.94155 0.0
C2746 C 0.32116 0.21068 0.92691 0.0
C2747 C 0.33791 0.24448 0.96644 0.0
C2748 C 0.32702 0.2448 0.97989 0.0
C2749 C 0.3515 0.25845 0.96182 0.0
C2750 C 0.36273 0.25912 0.94592 0.0
C2751 C 0.35852 0.25402 0.92406 0.0
C2752 C 0.36906 0.25438 0.90924 0.0
C2753 C 0.3839 0.26001 0.91602 0.0
C2754 C 0.38823 0.26532 0.93761 0.0
C2755 C 0.37772 0.26493 0.95253 0.0
H2756 H 0.39205 0.26028 0.90452 0.0
H2757 H 0.28615 0.258 0.03903 0.0
H2758 H 0.69361 0.04492 0.03429 0.0
H2759 H 0.71848 0.0663 0.02358 0.0
H2760 H 0.70555 0.05573 0.95548 0.0
H2761 H 0.68091 0.03415 0.96601 0.0
H2762 H 0.73284 0.06157 0.95988 0.0
H2763 H 0.70612 0.08607 0.9846 0.0
H2764 H 0.69186 0.09242 0.0109 0.0
H2765 H 0.72913 0.11159 0.05606 0.0
H2766 H 0.74355 0.10518 0.03011 0.0
H2767 H 0.77708 0.14246 0.92131 0.0
H2768 H 0.75744 0.12435 0.94595 0.0
H2769 H 0.78534 0.10624 0.96237 0.0
H2770 H 0.80503 0.12438 0.93741 0.0
H2771 H 0.7525 0.11487 0.98783 0.0
H2772 H 0.76239 0.06687 0.95843 0.0
H2773 H 0.77489 0.06133 0.92805 0.0
H2774 H 0.768 0.0901 0.88587 0.0
H2775 H 0.75524 0.09558 0.91586 0.0
C2776 C 0.69607 0.04717 0.01704 0.0
C2777 C 0.68526 0.03784 0.001 0.0
C2778 C 0.71029 0.05942 0.01094 0.0
C2779 C 0.71388 0.06273 0.98872 0.0
C2780 C 0.7031 0.05339 0.97273 0.0
C2781 C 0.68897 0.04107 0.97878 0.0
C2782 C 0.7288 0.0759 0.9819 0.0
C2783 C 0.73718 0.07318 0.9662 0.0
C2784 C 0.73448 0.09113 0.98994 0.0
C2785 C 0.72583 0.09498 0.00554 0.0
C2786 C 0.71123 0.09153 0.00022 0.0
C2787 C 0.70313 0.09516 0.01504 0.0
C2788 C 0.70957 0.10236 0.03517 0.0
C2789 C 0.72415 0.10599 0.04048 0.0
C2790 C 0.73229 0.10236 0.02572 0.0
C2791 C 0.77921 0.13498 0.9308 0.0
C2792 C 0.79247 0.1347 0.92746 0.0
C2793 C 0.76801 0.12466 0.9449 0.0
C2794 C 0.76982 0.11378 0.95573 0.0
C2795 C 0.78368 0.11447 0.954 0.0
C2796 C 0.79495 0.12487 0.93989 0.0
C2797 C 0.75641 0.10049 0.9658 0.0
C2798 C 0.74831 0.10318 0.982 0.0
C2799 C 0.75071 0.08528 0.95775 0.0
C2800 C 0.75806 0.08178 0.93947 0.0
C2801 C 0.7635 0.07196 0.94264 0.0
C2802 C 0.77063 0.06883 0.92549 0.0
C2803 C 0.77229 0.07541 0.90507 0.0
C2804 C 0.76675 0.08505 0.90171 0.0
C2805 C 0.75957 0.08817 0.91877 0.0
H2806 H 0.77784 0.073 0.89184 0.0
H2807 H 0.70328 0.10516 0.04663 0.0
H2808 H 0.63427 0.94874 0.00107 0.0
H2809 H 0.63635 0.9266 0.00956 0.0
H2810 H 0.67874 0.95682 0.04259 0.0
H2811 H 0.67688 0.97892 0.03394 0.0
H2812 H 0.68017 0.9351 0.01888 0.0
H2813 H 0.64535 0.93693 0.07086 0.0
H2814 H 0.62237 0.93691 0.08156 0.0
H2815 H 0.59478 0.89295 0.04914 0.0
H2816 H 0.61764 0.89281 0.03802 0.0
H2817 H 0.68809 0.89626 0.10583 0.0
H2818 H 0.68552 0.91213 0.07911 0.0
H2819 H 0.64527 0.87199 0.05317 0.0
H2820 H 0.6479 0.85603 0.08009 0.0
H2821 H 0.64039 0.89476 0.06535 0.0
H2822 H 0.67596 0.89102 0.02062 0.0
H2823 H 0.69932 0.89133 0.01171 0.0
H2824 H 0.72595 0.93896 0.03162 0.0
H2825 H 0.70276 0.93889 0.04098 0.0
C2826 C 0.64409 0.95067 0.01 0.0
C2827 C 0.65535 0.9656 0.01698 0.0
C2828 C 0.64525 0.938 0.01486 0.0
C2829 C 0.65764 0.94003 0.02688 0.0
C2830 C 0.6691 0.95496 0.03325 0.0
C2831 C 0.66796 0.9676 0.02839 0.0
C2832 C 0.65846 0.92668 0.03399 0.0
C2833 C 0.67149 0.92627 0.02905 0.0
C2834 C 0.64692 0.91488 0.04668 0.0
C2835 C 0.63319 0.91496 0.05337 0.0
C2836 C 0.63439 0.92732 0.06587 0.0
C2837 C 0.62139 0.92733 0.07203 0.0
C2838 C 0.60713 0.91497 0.06597 0.0
C2839 C 0.60584 0.90254 0.05378 0.0
C2840 C 0.61881 0.90249 0.04755 0.0
C2841 C 0.67899 0.89078 0.09393 0.0
C2842 C 0.66822 0.87497 0.09487 0.0
C2843 C 0.67753 0.89982 0.07864 0.0
C2844 C 0.66523 0.89324 0.06404 0.0
C2845 C 0.65488 0.87728 0.06421 0.0
C2846 C 0.65643 0.86817 0.07944 0.0
C2847 C 0.66233 0.90343 0.05082 0.0
C2848 C 0.64891 0.9033 0.05466 0.0
C2849 C 0.67357 0.91478 0.03726 0.0
C2850 C 0.68759 0.91492 0.0316 0.0
C2851 C 0.6868 0.90154 0.02325 0.0
C2852 C 0.70001 0.90167 0.01809 0.0
C2853 C 0.71411 0.91515 0.02112 0.0
C2854 C 0.71502 0.92853 0.02928 0.0
C2855 C 0.70184 0.92845 0.03447 0.0
H2856 H 0.72433 0.91523 0.01711 0.0
H2857 H 0.59708 0.91499 0.07076 0.0
H2858 H 0.035 0.70445 0.9899 0.0
H2859 H 0.05648 0.72966 0.00091 0.0
H2860 H 0.06149 0.71039 0.05993 0.0
H2861 H 0.03971 0.68532 0.04937 0.0
H2862 H 0.06399 0.73598 0.07008 0.0
H2863 H 0.08605 0.72002 0.01457 0.0
H2864 H 0.08855 0.71064 0.97806 0.0
H2865 H 0.09304 0.7506 0.94882 0.0
H2866 H 0.09037 0.76012 0.98515 0.0
H2867 H 0.14649 0.79777 0.07803 0.0
H2868 H 0.12735 0.77612 0.05565 0.0
H2869 H 0.09614 0.79126 0.06793 0.0
H2870 H 0.11517 0.81271 0.09065 0.0
H2871 H 0.10747 0.76797 0.02139 0.0
H2872 H 0.06392 0.76137 0.08674 0.0
H2873 H 0.06337 0.76907 0.12528 0.0
H2874 H 0.10483 0.77089 0.13804 0.0
H2875 H 0.10559 0.76314 0.09961 0.0
C2876 C 0.04072 0.70557 0.00518 0.0
C2877 C 0.03564 0.69287 0.01877 0.0
C2878 C 0.05307 0.71999 0.01142 0.0
C2879 C 0.06077 0.72195 0.03116 0.0
C2880 C 0.05575 0.70923 0.04465 0.0
C2881 C 0.0433 0.69487 0.03857 0.0
C2882 C 0.07372 0.73731 0.0382 0.0
C2883 C 0.07344 0.74294 0.05934 0.0
C2884 C 0.08625 0.7464 0.02441 0.0
C2885 C 0.08785 0.7407 0.00255 0.0
C2886 C 0.08745 0.72675 0.00033 0.0
C2887 C 0.08892 0.72142 0.97968 0.0
C2888 C 0.09091 0.73 0.96112 0.0
C2889 C 0.09147 0.74395 0.9632 0.0
C2890 C 0.08999 0.74933 0.98382 0.0
C2891 C 0.13583 0.79692 0.07496 0.0
C2892 C 0.13226 0.80685 0.08602 0.0
C2893 C 0.12485 0.78448 0.06232 0.0
C2894 C 0.11021 0.78187 0.06062 0.0
C2895 C 0.1073 0.79293 0.06934 0.0
C2896 C 0.11822 0.80528 0.08209 0.0
C2897 C 0.09751 0.76659 0.05301 0.0
C2898 C 0.09789 0.761 0.03191 0.0
C2899 C 0.08528 0.75726 0.06707 0.0
C2900 C 0.08488 0.76184 0.09025 0.0
C2901 C 0.0729 0.76339 0.09779 0.0
C2902 C 0.07257 0.76778 0.1196 0.0
C2903 C 0.0841 0.77054 0.13406 0.0
C2904 C 0.09594 0.76881 0.12679 0.0
C2905 C 0.09635 0.76448 0.10498 0.0
H2906 H 0.08384 0.77399 0.1509 0.0
H2907 H 0.09205 0.72585 0.94514 0.0
H2908 H 0.29283 0.32029 0.01733 0.0
H2909 H 0.2683 0.31764 0.02273 0.0
H2910 H 0.28754 0.36525 0.0068 0.0
H2911 H 0.3123 0.36805 0.00146 0.0
H2912 H 0.27072 0.35778 0.04405 0.0
H2913 H 0.26355 0.3372 0.97104 0.0
H2914 H 0.26402 0.3208 0.94101 0.0
H2915 H 0.23254 0.28035 0.97586 0.0
H2916 H 0.23204 0.29649 0.00625 0.0
H2917 H 0.20031 0.34726 0.06544 0.0
H2918 H 0.2201 0.35179 0.03896 0.0
H2919 H 0.21221 0.30671 0.05088 0.0
H2920 H 0.19237 0.30213 0.077 0.0
H2921 H 0.22329 0.31611 0.00937 0.0
H2922 H 0.23376 0.33601 0.08415 0.0
H2923 H 0.23232 0.3514 0.11479 0.0
H2924 H 0.25838 0.39254 0.07809 0.0
H2925 H 0.25928 0.37725 0.04672 0.0
C2926 C 0.29188 0.3302 0.0148 0.0
C2927 C 0.30456 0.3444 0.00898 0.0
C2928 C 0.27779 0.32863 0.01776 0.0
C2929 C 0.27602 0.34119 0.01489 0.0
C2930 C 0.28863 0.35538 0.00897 0.0
C2931 C 0.30276 0.35695 0.0059 0.0
C2932 C 0.26117 0.3396 0.01943 0.0
C2933 C 0.2604 0.34894 0.03604 0.0
C2934 C 0.24765 0.32785 0.00931 0.0
C2935 C 0.24782 0.31807 0.99099 0.0
C2936 C 0.2568 0.32481 0.97237 0.0
C2937 C 0.25706 0.31556 0.95527 0.0
C2938 C 0.24833 0.29954 0.95654 0.0
C2939 C 0.23929 0.29275 0.9749 0.0
C2940 C 0.239 0.30195 0.99205 0.0
C2941 C 0.20226 0.33804 0.06147 0.0
C2942 C 0.19499 0.32442 0.07337 0.0
C2943 C 0.21364 0.34066 0.04648 0.0
C2944 C 0.21789 0.32974 0.04341 0.0
C2945 C 0.20919 0.31534 0.05308 0.0
C2946 C 0.19785 0.31272 0.06801 0.0
C2947 C 0.23288 0.33416 0.0341 0.0
C2948 C 0.23367 0.32526 0.01683 0.0
C2949 C 0.24645 0.3462 0.04378 0.0
C2950 C 0.24639 0.35546 0.06295 0.0
C2951 C 0.23906 0.34832 0.08251 0.0
C2952 C 0.2383 0.35701 0.09999 0.0
C2953 C 0.24528 0.37294 0.09841 0.0
C2954 C 0.25296 0.38019 0.07928 0.0
C2955 C 0.25351 0.3715 0.06158 0.0
H2956 H 0.24477 0.37967 0.11203 0.0
H2957 H 0.24855 0.2924 0.94329 0.0
H2958 H 0.73158 0.72389 0.35936 0.0
H2959 H 0.75259 0.72047 0.36717 0.0
H2960 H 0.72676 0.67378 0.34175 0.0
H2961 H 0.7055 0.67701 0.33438 0.0
H2962 H 0.73911 0.67444 0.37899 0.0
H2963 H 0.7576 0.70282 0.31353 0.0
H2964 H 0.76425 0.72388 0.28828 0.0
H2965 H 0.79653 0.75656 0.33484 0.0
H2966 H 0.78992 0.73572 0.36052 0.0
H2967 H 0.79881 0.66394 0.39846 0.0
H2968 H 0.78344 0.66836 0.37302 0.0
H2969 H 0.79924 0.71273 0.40398 0.0
H2970 H 0.81456 0.7083 0.42935 0.0
H2971 H 0.79238 0.71154 0.35848 0.0
H2972 H 0.77034 0.68329 0.42556 0.0
H2973 H 0.76447 0.66219 0.45033 0.0
H2974 H 0.73881 0.62901 0.3993 0.0
H2975 H 0.74479 0.64996 0.37408 0.0
C2976 C 0.73038 0.71292 0.35528 0.0
C2977 C 0.71684 0.70072 0.34627 0.0
C2978 C 0.74247 0.71101 0.35961 0.0
C2979 C 0.74138 0.69693 0.35475 0.0
C2980 C 0.72791 0.68477 0.34557 0.0
C2981 C 0.71576 0.68663 0.34137 0.0
C2982 C 0.75393 0.69466 0.36055 0.0
C2983 C 0.75069 0.68238 0.37404 0.0
C2984 C 0.76913 0.70512 0.35444 0.0
C2985 C 0.77318 0.7177 0.33902 0.0
C2986 C 0.76604 0.71451 0.31846 0.0
C2987 C 0.76982 0.72641 0.30406 0.0
C2988 C 0.78079 0.74155 0.30997 0.0
C2989 C 0.78803 0.74482 0.33028 0.0
C2990 C 0.78429 0.73297 0.34476 0.0
C2991 C 0.7996 0.67495 0.399 0.0
C2992 C 0.80786 0.68583 0.41569 0.0
C2993 C 0.79074 0.67742 0.38461 0.0
C2994 C 0.79004 0.69077 0.38688 0.0
C2995 C 0.79965 0.70238 0.40193 0.0
C2996 C 0.80842 0.69987 0.41637 0.0
C2997 C 0.77746 0.69144 0.37688 0.0
C2998 C 0.78072 0.70346 0.36288 0.0
C2999 C 0.76225 0.68074 0.38244 0.0
C3000 C 0.75816 0.66817 0.39787 0.0
C3001 C 0.76351 0.6715 0.4196 0.0
C3002 C 0.76019 0.65957 0.4337 0.0
C3003 C 0.75134 0.64427 0.42635 0.0
C3004 C 0.7457 0.64087 0.40494 0.0
C3005 C 0.74906 0.65276 0.39073 0.0
H3006 H 0.74884 0.63505 0.43724 0.0
H3007 H 0.7837 0.75075 0.29879 0.0
H3008 H 0.34061 0.02689 0.37812 0.0
H3009 H 0.34606 0.05243 0.38945 0.0
H3010 H 0.31089 0.04716 0.34646 0.0
H3011 H 0.30578 0.02183 0.33444 0.0
H3012 H 0.33361 0.07518 0.34427 0.0
H3013 H 0.3061 0.04197 0.40305 0.0
H3014 H 0.3 0.02307 0.43178 0.0
H3015 H 0.3421 0.05426 0.46415 0.0
H3016 H 0.3486 0.07325 0.43537 0.0
H3017 H 0.31815 0.12721 0.4069 0.0
H3018 H 0.31865 0.10706 0.38467 0.0
H3019 H 0.35987 0.11771 0.41688 0.0
H3020 H 0.35942 0.13786 0.43888 0.0
H3021 H 0.33493 0.08781 0.42354 0.0
H3022 H 0.36099 0.12177 0.36424 0.0
H3023 H 0.36496 0.14043 0.33616 0.0
H3024 H 0.32269 0.10731 0.30581 0.0
H3025 H 0.31835 0.08851 0.33392 0.0
C3026 C 0.33405 0.03117 0.37106 0.0
C3027 C 0.32269 0.02228 0.35549 0.0
C3028 C 0.33714 0.04577 0.3776 0.0
C3029 C 0.32872 0.05166 0.3691 0.0
C3030 C 0.31755 0.0429 0.35327 0.0
C3031 C 0.31459 0.02838 0.34648 0.0
C3032 C 0.33136 0.0668 0.37702 0.0
C3033 C 0.33375 0.07787 0.36161 0.0
C3034 C 0.33171 0.07045 0.39966 0.0
C3035 C 0.32793 0.05896 0.41687 0.0
C3036 C 0.31414 0.04474 0.41616 0.0
C3037 C 0.3106 0.03402 0.43247 0.0
C3038 C 0.32069 0.03744 0.44972 0.0
C3039 C 0.33432 0.05161 0.45073 0.0
C3040 C 0.33794 0.06235 0.43441 0.0
C3041 C 0.32773 0.12578 0.40829 0.0
C3042 C 0.33883 0.13412 0.42436 0.0
C3043 C 0.32796 0.11421 0.39574 0.0
C3044 C 0.33924 0.11083 0.39928 0.0
C3045 C 0.35108 0.12015 0.41391 0.0
C3046 C 0.3509 0.13174 0.42629 0.0
C3047 C 0.33734 0.09616 0.39084 0.0
C3048 C 0.33494 0.08514 0.40621 0.0
C3049 C 0.33668 0.0925 0.36824 0.0
C3050 C 0.33927 0.10378 0.35132 0.0
C3051 C 0.35246 0.11851 0.35171 0.0
C3052 C 0.3548 0.1291 0.33575 0.0
C3053 C 0.34407 0.12507 0.31925 0.0
C3054 C 0.33099 0.11042 0.31863 0.0
C3055 C 0.32859 0.09979 0.33455 0.0
H3056 H 0.3459 0.13329 0.30691 0.0
H3057 H 0.31792 0.02912 0.46233 0.0
H3058 H 0.998 0.29737 0.36958 0.0
H3059 H 0.97421 0.2738 0.37818 0.0
H3060 H 0.94999 0.28788 0.33787 0.0
H3061 H 0.97379 0.31151 0.32908 0.0
H3062 H 0.93684 0.27776 0.37876 0.0
H3063 H 0.95466 0.25986 0.31932 0.0
H3064 H 0.97327 0.25618 0.29911 0.0
H3065 H 0.97534 0.23083 0.35249 0.0
H3066 H 0.95691 0.23455 0.37318 0.0
H3067 H 0.86894 0.2096 0.39996 0.0
H3068 H 0.88915 0.22746 0.37544 0.0
H3069 H 0.92063 0.21903 0.4081 0.0
H3070 H 0.90045 0.20111 0.43226 0.0
H3071 H 0.92849 0.22566 0.3656 0.0
H3072 H 0.91496 0.24669 0.42703 0.0
H3073 H 0.89734 0.25056 0.44966 0.0
H3074 H 0.88861 0.27058 0.39522 0.0
H3075 H 0.90598 0.26656 0.37214 0.0
C3076 C 0.98763 0.29547 0.3625 0.0
C3077 C 0.98781 0.30634 0.34863 0.0
C3078 C 0.97404 0.28193 0.36733 0.0
C3079 C 0.96034 0.279 0.35847 0.0
C3080 C 0.96044 0.28988 0.34479 0.0
C3081 C 0.97406 0.30337 0.33977 0.0
C3082 C 0.94588 0.26481 0.36419 0.0
C3083 C 0.93487 0.26635 0.37542 0.0
C3084 C 0.94346 0.24995 0.36032 0.0
C3085 C 0.95447 0.24759 0.34787 0.0
C3086 C 0.95917 0.2536 0.32682 0.0
C3087 C 0.96967 0.25149 0.31527 0.0
C3088 C 0.97551 0.2433 0.32453 0.0
C3089 C 0.97082 0.23718 0.34534 0.0
C3090 C 0.96033 0.23927 0.35698 0.0
C3091 C 0.88 0.21101 0.4011 0.0
C3092 C 0.88319 0.20401 0.41789 0.0
C3093 C 0.89158 0.22133 0.38728 0.0
C3094 C 0.90649 0.22485 0.39027 0.0
C3095 C 0.90926 0.21655 0.4055 0.0
C3096 C 0.89771 0.20627 0.41926 0.0
C3097 C 0.91951 0.23863 0.38026 0.0
C3098 C 0.93031 0.23705 0.36843 0.0
C3099 C 0.92188 0.25351 0.38387 0.0
C3100 C 0.91162 0.25615 0.39779 0.0
C3101 C 0.9092 0.25182 0.41985 0.0
C3102 C 0.89927 0.25405 0.43276 0.0
C3103 C 0.89183 0.26078 0.42387 0.0
C3104 C 0.89435 0.26534 0.40206 0.0
C3105 C 0.90423 0.26308 0.38906 0.0
H3106 H 0.88414 0.2625 0.43388 0.0
H3107 H 0.98364 0.24169 0.31556 0.0
H3108 H 0.00709 0.37566 0.36631 0.0
H3109 H 0.00553 0.39731 0.35362 0.0
H3110 H 0.04039 0.40748 0.30603 0.0
H3111 H 0.04216 0.386 0.31876 0.0
H3112 H 0.04455 0.4336 0.3252 0.0
H3113 H 0.00313 0.38752 0.29154 0.0
H3114 H 0.98013 0.36161 0.29132 0.0
H3115 H 0.95695 0.37868 0.32997 0.0
H3116 H 0.9799 0.40467 0.33067 0.0
H3117 H 0.03154 0.4701 0.23916 0.0
H3118 H 0.03569 0.45473 0.26482 0.0
H3119 H 0.99998 0.45113 0.30603 0.0
H3120 H 0.99576 0.46655 0.2801 0.0
H3121 H 0.99568 0.42327 0.29586 0.0
H3122 H 0.03643 0.47047 0.32454 0.0
H3123 H 0.05942 0.49634 0.32356 0.0
H3124 H 0.08395 0.47742 0.29354 0.0
H3125 H 0.06105 0.45146 0.29403 0.0
C3126 C 0.0145 0.38255 0.35323 0.0
C3127 C 0.02469 0.37901 0.34346 0.0
C3128 C 0.01356 0.39492 0.34596 0.0
C3129 C 0.02273 0.40395 0.3287 0.0
C3130 C 0.0332 0.4007 0.31937 0.0
C3131 C 0.03415 0.38835 0.32661 0.0
C3132 C 0.02109 0.41642 0.31974 0.0
C3133 C 0.03389 0.43134 0.31868 0.0
C3134 C 0.00708 0.4136 0.31181 0.0
C3135 C 0.99328 0.39799 0.3114 0.0
C3136 C 0.99317 0.38572 0.30015 0.0
C3137 C 0.98013 0.37102 0.29991 0.0
C3138 C 0.9671 0.36848 0.31069 0.0
C3139 C 0.96706 0.38065 0.32168 0.0
C3140 C 0.98008 0.39537 0.322 0.0
C3141 C 0.02489 0.46641 0.25404 0.0
C3142 C 0.01337 0.46954 0.25774 0.0
C3143 C 0.02728 0.45764 0.26873 0.0
C3144 C 0.01819 0.45179 0.28744 0.0
C3145 C 0.00716 0.45556 0.29174 0.0
C3146 C 0.00484 0.46446 0.27706 0.0
C3147 C 0.01921 0.44044 0.30094 0.0
C3148 C 0.00629 0.42566 0.30278 0.0
C3149 C 0.03313 0.44341 0.3095 0.0
C3150 C 0.04697 0.45901 0.3092 0.0
C3151 C 0.04669 0.47183 0.31757 0.0
C3152 C 0.05972 0.48651 0.31713 0.0
C3153 C 0.07313 0.48853 0.30846 0.0
C3154 C 0.07355 0.47585 0.30025 0.0
C3155 C 0.06055 0.46114 0.30063 0.0
H3156 H 0.08321 0.4999 0.30814 0.0
H3157 H 0.95702 0.3571 0.31047 0.0
H3158 H 0.61377 0.65448 0.35243 0.0
H3159 H 0.59164 0.62964 0.34178 0.0
H3160 H 0.61871 0.62202 0.29506 0.0
H3161 H 0.64077 0.64703 0.30518 0.0
H3162 H 0.59309 0.61394 0.27708 0.0
H3163 H 0.60795 0.60383 0.34547 0.0
H3164 H 0.61454 0.60773 0.38476 0.0
H3165 H 0.57047 0.59919 0.40083 0.0
H3166 H 0.56368 0.59544 0.36159 0.0
H3167 H 0.54463 0.52858 0.28151 0.0
H3168 H 0.56189 0.55226 0.30223 0.0
H3169 H 0.53915 0.57381 0.27664 0.0
H3170 H 0.52177 0.55005 0.25612 0.0
H3171 H 0.56195 0.57449 0.33177 0.0
H3172 H 0.56763 0.60673 0.25271 0.0
H3173 H 0.5631 0.60136 0.21294 0.0
H3174 H 0.56977 0.56345 0.2177 0.0
H3175 H 0.5745 0.5687 0.25742 0.0
C3176 C 0.61502 0.64751 0.3399 0.0
C3177 C 0.62906 0.65273 0.32969 0.0
C3178 C 0.60236 0.63326 0.3339 0.0
C3179 C 0.60352 0.62384 0.31779 0.0
C3180 C 0.61751 0.62908 0.30752 0.0
C3181 C 0.63014 0.64337 0.31336 0.0
C3182 C 0.59015 0.60861 0.3114 0.0
C3183 C 0.58627 0.60539 0.28911 0.0
C3184 C 0.58132 0.59728 0.32699 0.0
C3185 C 0.58536 0.59951 0.35059 0.0
C3186 C 0.5997 0.6029 0.35738 0.0
C3187 C 0.60347 0.60506 0.37964 0.0
C3188 C 0.59295 0.60375 0.39528 0.0
C3189 C 0.57862 0.60023 0.38869 0.0
C3190 C 0.5748 0.59807 0.36645 0.0
C3191 C 0.54283 0.53811 0.28133 0.0
C3192 C 0.53184 0.53753 0.26748 0.0
C3193 C 0.55273 0.55165 0.29304 0.0
C3194 C 0.55191 0.56482 0.29068 0.0
C3195 C 0.53997 0.56376 0.27859 0.0
C3196 C 0.52996 0.55016 0.26706 0.0
C3197 C 0.56487 0.58006 0.29764 0.0
C3198 C 0.56869 0.58321 0.31991 0.0
C3199 C 0.57393 0.59118 0.282 0.0
C3200 C 0.57122 0.588 0.25808 0.0
C3201 C 0.56814 0.59726 0.24525 0.0
C3202 C 0.56553 0.59423 0.22273 0.0
C3203 C 0.56607 0.58202 0.21283 0.0
C3204 C 0.56926 0.57284 0.22542 0.0
C3205 C 0.57188 0.57583 0.24794 0.0
H3206 H 0.56405 0.57969 0.1954 0.0
H3207 H 0.59589 0.60543 0.41251 0.0
H3208 H 0.34627 0.94901 0.3157 0.0
H3209 H 0.37052 0.95165 0.30729 0.0
H3210 H 0.39362 0.99485 0.34356 0.0
H3211 H 0.36936 0.99248 0.35159 0.0
H3212 H 0.40694 0.99776 0.306 0.0
H3213 H 0.39094 0.96164 0.36312 0.0
H3214 H 0.37356 0.93814 0.38315 0.0
H3215 H 0.37252 0.91028 0.32841 0.0
H3216 H 0.38972 0.93361 0.30791 0.0
H3217 H 0.47616 0.00506 0.28295 0.0
H3218 H 0.45564 0.99934 0.30873 0.0
H3219 H 0.42488 0.95958 0.26903 0.0
H3220 H 0.44534 0.96535 0.24331 0.0
H3221 H 0.41753 0.95608 0.31443 0.0
H3222 H 0.43098 0.99245 0.25634 0.0
H3223 H 0.44826 0.01592 0.23626 0.0
H3224 H 0.45406 0.04357 0.29389 0.0
H3225 H 0.43697 0.02019 0.31446 0.0
C3226 C 0.35649 0.95903 0.32205 0.0
C3227 C 0.35587 0.97055 0.3343 0.0
C3228 C 0.37037 0.96047 0.31736 0.0
C3229 C 0.38393 0.97334 0.32507 0.0
C3230 C 0.38332 0.98479 0.3375 0.0
C3231 C 0.36944 0.98341 0.34207 0.0
C3232 C 0.39873 0.97528 0.31892 0.0
C3233 C 0.40938 0.98879 0.30838 0.0
C3234 C 0.40187 0.96348 0.32163 0.0
C3235 C 0.39155 0.9494 0.33392 0.0
C3236 C 0.38692 0.95051 0.35528 0.0
C3237 C 0.37711 0.93721 0.36673 0.0
C3238 C 0.37192 0.92272 0.35704 0.0
C3239 C 0.37655 0.9215 0.33589 0.0
C3240 C 0.38635 0.93477 0.32436 0.0
C3241 C 0.4652 0.99468 0.28041 0.0
C3242 C 0.46224 0.9856 0.26129 0.0
C3243 C 0.45347 0.99147 0.29503 0.0
C3244 C 0.43871 0.97917 0.29057 0.0
C3245 C 0.43619 0.9691 0.27279 0.0
C3246 C 0.44786 0.97237 0.25812 0.0
C3247 C 0.42555 0.97846 0.30152 0.0
C3248 C 0.41518 0.96518 0.31269 0.0
C3249 C 0.42266 0.99047 0.29946 0.0
C3250 C 0.43284 0.00454 0.28703 0.0
C3251 C 0.43606 0.00352 0.26482 0.0
C3252 C 0.44582 0.0168 0.25333 0.0
C3253 C 0.45231 0.03123 0.26381 0.0
C3254 C 0.44904 0.03238 0.2858 0.0
C3255 C 0.43932 0.01911 0.29738 0.0
H3256 H 0.45984 0.04151 0.25487 0.0
H3257 H 0.36432 0.91244 0.36593 0.0
H3258 H 0.64663 0.01899 0.32737 0.0
H3259 H 0.62406 0.01949 0.31881 0.0
H3260 H 0.59599 0.97233 0.33823 0.0
H3261 H 0.61866 0.97167 0.34668 0.0
H3262 H 0.5873 0.97676 0.29926 0.0
H3263 H 0.59748 1.00127 0.36968 0.0
H3264 H 0.61287 0.0197 0.39921 0.0
H3265 H 0.62207 0.05738 0.35873 0.0
H3266 H 0.6069 0.03918 0.32883 0.0
H3267 H 0.52451 0.98189 0.27116 0.0
H3268 H 0.54076 0.97926 0.29734 0.0
H3269 H 0.57784 0.02442 0.28114 0.0
H3270 H 0.56165 0.02703 0.25512 0.0
H3271 H 0.57856 0.01805 0.32474 0.0
H3272 H 0.57297 0.99403 0.2529 0.0
H3273 H 0.55821 0.97619 0.22245 0.0
H3274 H 0.54105 0.93798 0.26544 0.0
H3275 H 0.55554 0.95567 0.29625 0.0
C3276 C 0.63568 0.00873 0.33003 0.0
C3277 C 0.63448 0.99527 0.33769 0.0
C3278 C 0.62275 0.00908 0.32526 0.0
C3279 C 0.6083 0.99601 0.32813 0.0
C3280 C 0.60702 0.98258 0.33599 0.0
C3281 C 0.61999 0.98223 0.34084 0.0
C3282 C 0.59467 0.9962 0.32144 0.0
C3283 C 0.58516 0.98554 0.30529 0.0
C3284 C 0.59202 0.00783 0.32898 0.0
C3285 C 0.60111 0.01884 0.34695 0.0
C3286 C 0.60286 0.01348 0.36701 0.0
C3287 C 0.61154 0.02389 0.38383 0.0
C3288 C 0.61846 0.0397 0.38084 0.0
C3289 C 0.6167 0.04513 0.36103 0.0
C3290 C 0.60804 0.03477 0.34415 0.0
C3291 C 0.53595 0.99146 0.27389 0.0
C3292 C 0.54189 0.00464 0.26117 0.0
C3293 C 0.54525 0.98991 0.28869 0.0
C3294 C 0.56058 0.00156 0.29093 0.0
C3295 C 0.56607 0.0153 0.27969 0.0
C3296 C 0.55683 0.01679 0.26483 0.0
C3297 C 0.57143 0.99879 0.30239 0.0
C3298 C 0.58047 0.00901 0.31925 0.0
C3299 C 0.57374 0.98682 0.29546 0.0
C3300 C 0.56517 0.97617 0.27692 0.0
C3301 C 0.56596 0.98184 0.25589 0.0
C3302 C 0.55765 0.97175 0.23856 0.0
C3303 C 0.54866 0.95596 0.24202 0.0
C3304 C 0.54799 0.95022 0.2628 0.0
C3305 C 0.55624 0.96026 0.2802 0.0
H3306 H 0.54224 0.94817 0.22859 0.0
H3307 H 0.62518 0.04774 0.39388 0.0
H3308 H 0.00559 0.63645 0.36951 0.0
H3309 H 1.00256 0.61154 0.35981 0.0
H3310 H 0.01861 0.62727 0.2945 0.0
H3311 H 0.02112 0.65187 0.30386 0.0
H3312 H 0.99514 0.60044 0.29152 0.0
H3313 H 0.04039 0.62332 0.33501 0.0
H3314 H 0.05614 0.63558 0.36796 0.0
H3315 H 0.0261 0.59592 0.40538 0.0
H3316 H 0.01007 0.58349 0.37269 0.0
H3317 H 0.02672 0.54962 0.27272 0.0
H3318 H 0.02733 0.56957 0.29658 0.0
H3319 H 0.97871 0.54623 0.29293 0.0
H3320 H 0.97821 0.52651 0.26848 0.0
H3321 H 0.0169 0.57549 0.3332 0.0
H3322 H 0.96926 0.57233 0.28149 0.0
H3323 H 0.95729 0.56348 0.24504 0.0
H3324 H 0.99801 0.5681 0.21899 0.0
H3325 H 0.01025 0.57704 0.25528 0.0
C3326 C 0.00855 0.6346 0.35313 0.0
C3327 C 0.01353 0.6461 0.33741 0.0
C3328 C 0.00687 0.62038 0.34763 0.0
C3329 C 0.01043 0.61751 0.32644 0.0
C3330 C 0.01569 0.62913 0.31092 0.0
C3331 C 0.01715 0.64323 0.31629 0.0
C3332 C 0.00814 0.60227 0.31992 0.0
C3333 C 0.99983 0.59498 0.30078 0.0
C3334 C 0.01433 0.59511 0.33183 0.0
C3335 C 0.02394 0.60256 0.35148 0.0
C3336 C 0.03708 0.61727 0.35031 0.0
C3337 C 0.04607 0.62423 0.36893 0.0
C3338 C 0.0421 0.61655 0.38876 0.0
C3339 C 0.02915 0.60187 0.39001 0.0
C3340 C 0.02011 0.59485 0.37144 0.0
C3341 C 0.01613 0.54835 0.27799 0.0
C3342 C 1.00241 0.53652 0.26901 0.0
C3343 C 0.01648 0.55981 0.2915 0.0
C3344 C 0.0031 0.5596 0.29612 0.0
C3345 C 0.9892 0.54675 0.28929 0.0
C3346 C 0.98887 0.53537 0.27559 0.0
C3347 C 0.00399 0.57381 0.30477 0.0
C3348 C 0.012 0.58087 0.32425 0.0
C3349 C 0.99797 0.58109 0.29281 0.0
C3350 C 0.99058 0.57517 0.27114 0.0
C3351 C 0.97562 0.57138 0.268 0.0
C3352 C 0.9688 0.56637 0.24739 0.0
C3353 C 0.97688 0.5652 0.22976 0.0
C3354 C 0.99176 0.56895 0.23272 0.0
C3355 C 0.99863 0.57395 0.25331 0.0
H3356 H 0.97163 0.56151 0.2138 0.0
H3357 H 0.04907 0.62197 0.40316 0.0
H3358 H 0.33859 0.37545 0.31646 0.0
H3359 H 0.362 0.3983 0.30489 0.0
H3360 H 0.38793 0.38165 0.33494 0.0
H3361 H 0.36451 0.35887 0.34708 0.0
H3362 H 0.40157 0.41225 0.34143 0.0
H3363 H 0.38158 0.37729 0.28013 0.0
H3364 H 0.3623 0.35967 0.25326 0.0
H3365 H 0.35834 0.39675 0.23017 0.0
H3366 H 0.37745 0.41456 0.25714 0.0
H3367 H 0.46676 0.45737 0.27 0.0
H3368 H 0.44627 0.43817 0.29304 0.0
H3369 H 0.41753 0.4544 0.27267 0.0
H3370 H 0.43789 0.47352 0.24987 0.0
H3371 H 0.40638 0.4235 0.2622 0.0
H3372 H 0.4275 0.45858 0.32432 0.0
H3373 H 0.44759 0.47554 0.35065 0.0
H3374 H 0.4507 0.4374 0.37112 0.0
H3375 H 0.43076 0.42024 0.34466 0.0
C3376 C 0.34926 0.37666 0.32073 0.0
C3377 C 0.34967 0.36525 0.3325 0.0
C3378 C 0.36265 0.38973 0.31407 0.0
C3379 C 0.37673 0.39158 0.31872 0.0
C3380 C 0.3772 0.38047 0.33112 0.0
C3381 C 0.36379 0.36741 0.33795 0.0
C3382 C 0.39082 0.40475 0.30975 0.0
C3383 C 0.40271 0.41462 0.32407 0.0
C3384 C 0.39232 0.40789 0.28711 0.0
C3385 C 0.38085 0.39723 0.2708 0.0
C3386 C 0.37652 0.38167 0.26944 0.0
C3387 C 0.36563 0.37165 0.25417 0.0
C3388 C 0.35907 0.37708 0.24005 0.0
C3389 C 0.36342 0.39255 0.24114 0.0
C3390 C 0.37428 0.40262 0.2564 0.0
C3391 C 0.45627 0.45721 0.2712 0.0
C3392 C 0.45382 0.46683 0.25814 0.0
C3393 C 0.44456 0.44621 0.28425 0.0
C3394 C 0.43034 0.44479 0.28436 0.0
C3395 C 0.42838 0.45526 0.27272 0.0
C3396 C 0.44002 0.46621 0.25979 0.0
C3397 C 0.41694 0.43123 0.29392 0.0
C3398 C 0.40523 0.42117 0.27959 0.0
C3399 C 0.41577 0.42786 0.31643 0.0
C3400 C 0.42775 0.43816 0.33233 0.0
C3401 C 0.43257 0.45383 0.33427 0.0
C3402 C 0.4439 0.46348 0.34926 0.0
C3403 C 0.45045 0.45756 0.3625 0.0
C3404 C 0.44563 0.44197 0.36082 0.0
C3405 C 0.43431 0.43228 0.34585 0.0
H3406 H 0.45922 0.46505 0.3741 0.0
H3407 H 0.35065 0.36931 0.22824 0.0
H3408 H 0.30189 0.291 0.40033 0.0
H3409 H 0.30818 0.27156 0.40708 0.0
H3410 H 0.32165 0.27317 0.33961 0.0
H3411 H 0.31518 0.29255 0.3326 0.0
H3412 H 0.30562 0.24375 0.35354 0.0
H3413 H 0.34807 0.2917 0.37918 0.0
H3414 H 0.36146 0.31622 0.4003 0.0
H3415 H 0.34556 0.29183 0.46043 0.0
H3416 H 0.33184 0.26719 0.43965 0.0
H3417 H 0.35855 0.22269 0.41659 0.0
H3418 H 0.35381 0.23934 0.39443 0.0
H3419 H 0.30577 0.20824 0.40219 0.0
H3420 H 0.31058 0.19144 0.424 0.0
H3421 H 0.34158 0.25346 0.41352 0.0
H3422 H 0.28665 0.21501 0.36298 0.0
H3423 H 0.27471 0.19087 0.3409 0.0
H3424 H 0.31826 0.19704 0.32805 0.0
H3425 H 0.33048 0.22132 0.34977 0.0
C3426 C 0.30614 0.28721 0.38687 0.0
C3427 C 0.30812 0.29343 0.36594 0.0
C3428 C 0.30977 0.27611 0.39079 0.0
C3429 C 0.31558 0.27105 0.37393 0.0
C3430 C 0.31721 0.27693 0.35287 0.0
C3431 C 0.31356 0.28804 0.34892 0.0
C3432 C 0.32022 0.25988 0.37853 0.0
C3433 C 0.31352 0.24586 0.36659 0.0
C3434 C 0.33074 0.26276 0.3953 0.0
C3435 C 0.33882 0.2776 0.40783 0.0
C3436 C 0.34731 0.29157 0.39689 0.0
C3437 C 0.35497 0.3055 0.40881 0.0
C3438 C 0.35433 0.30559 0.43169 0.0
C3439 C 0.34602 0.29175 0.44271 0.0
C3440 C 0.3383 0.27781 0.43086 0.0
C3441 C 0.347 0.21905 0.41256 0.0
C3442 C 0.33491 0.20575 0.42172 0.0
C3443 C 0.34428 0.22863 0.40011 0.0
C3444 C 0.32944 0.22512 0.39676 0.0
C3445 C 0.31731 0.21111 0.4043 0.0
C3446 C 0.32004 0.20146 0.41666 0.0
C3447 C 0.3268 0.23714 0.38879 0.0
C3448 C 0.3338 0.25134 0.40026 0.0
C3449 C 0.3167 0.23445 0.37147 0.0
C3450 C 0.30947 0.21993 0.35817 0.0
C3451 C 0.29369 0.21126 0.35536 0.0
C3452 C 0.28687 0.19754 0.34292 0.0
C3453 C 0.29571 0.1924 0.33313 0.0
C3454 C 0.31141 0.201 0.33571 0.0
C3455 C 0.31829 0.21473 0.34812 0.0
H3456 H 0.29041 0.18178 0.32352 0.0
H3457 H 0.3603 0.31637 0.44089 0.0
H3458 H 0.72583 0.02107 0.3265 0.0
H3459 H 0.74753 0.0471 0.33326 0.0
H3460 H 0.71946 0.05829 0.37206 0.0
H3461 H 0.69772 0.03233 0.36541 0.0
H3462 H 0.73923 0.08213 0.34477 0.0
H3463 H 0.74081 0.04803 0.39697 0.0
H3464 H 0.74151 0.02532 0.40779 0.0
H3465 H 0.78259 0.04131 0.37153 0.0
H3466 H 0.78201 0.06403 0.36026 0.0
H3467 H 0.78362 0.13669 0.42638 0.0
H3468 H 0.76648 0.11687 0.40017 0.0
H3469 H 0.80351 0.11361 0.37398 0.0
H3470 H 0.82069 0.13338 0.40069 0.0
H3471 H 0.78189 0.08676 0.38721 0.0
H3472 H 0.78289 0.12376 0.34122 0.0
H3473 H 0.78226 0.14664 0.33124 0.0
H3474 H 0.73689 0.12589 0.35554 0.0
H3475 H 0.73731 0.10297 0.36598 0.0
C3476 C 0.72424 0.0291 0.33633 0.0
C3477 C 0.71007 0.02457 0.34559 0.0
C3478 C 0.73666 0.04397 0.34016 0.0
C3479 C 0.73513 0.0546 0.35326 0.0
C3480 C 0.72088 0.05028 0.36186 0.0
C3481 C 0.70849 0.0354 0.35816 0.0
C3482 C 0.7485 0.06986 0.35927 0.0
C3483 C 0.74858 0.08321 0.35408 0.0
C3484 C 0.7609 0.07125 0.37078 0.0
C3485 C 0.76126 0.0576 0.37754 0.0
C3486 C 0.74991 0.04662 0.39115 0.0
C3487 C 0.7503 0.03377 0.39739 0.0
C3488 C 0.76206 0.03184 0.39028 0.0
C3489 C 0.77347 0.0428 0.37697 0.0
C3490 C 0.77312 0.05566 0.37066 0.0
C3491 C 0.7882 0.1322 0.41438 0.0
C3492 C 0.80344 0.13653 0.41547 0.0
C3493 C 0.7784 0.12087 0.39935 0.0
C3494 C 0.78367 0.11369 0.38502 0.0
C3495 C 0.79919 0.11898 0.38485 0.0
C3496 C 0.80903 0.13037 0.39994 0.0
C3497 C 0.77258 0.09919 0.37316 0.0
C3498 C 0.77283 0.08587 0.37736 0.0
C3499 C 0.76052 0.09789 0.36074 0.0
C3500 C 0.76017 0.11165 0.35448 0.0
C3501 C 0.77281 0.12411 0.34459 0.0
C3502 C 0.77248 0.13709 0.33882 0.0
C3503 C 0.75955 0.13773 0.34277 0.0
C3504 C 0.7469 0.12538 0.35247 0.0
C3505 C 0.74717 0.11237 0.35828 0.0
H3506 H 0.75932 0.14778 0.33829 0.0
H3507 H 0.76234 0.02189 0.39514 0.0
H3508 H 0.97544 0.69418 0.32868 0.0
H3509 H 0.95118 0.69205 0.33595 0.0
H3510 H 0.93535 0.64927 0.36853 0.0
H3511 H 0.95934 0.65113 0.36096 0.0
H3512 H 0.91313 0.64752 0.34469 0.0
H3513 H 0.95012 0.68387 0.39724 0.0
H3514 H 0.97399 0.70734 0.40849 0.0
H3515 H 0.96101 0.73505 0.37483 0.0
H3516 H 0.93713 0.7117 0.36315 0.0
H3517 H 0.86403 0.64234 0.42907 0.0
H3518 H 0.88245 0.64349 0.4028 0.0
H3519 H 0.88803 0.685 0.3767 0.0
H3520 H 0.86967 0.68398 0.40339 0.0
H3521 H 0.91434 0.68929 0.38981 0.0
H3522 H 0.87448 0.65224 0.34413 0.0
H3523 H 0.85042 0.62837 0.33491 0.0
H3524 H 0.86829 0.60148 0.35711 0.0
H3525 H 0.89239 0.62519 0.36677 0.0
C3526 C 0.96674 0.68425 0.33721 0.0
C3527 C 0.96939 0.6729 0.34441 0.0
C3528 C 0.95288 0.68306 0.34139 0.0
C3529 C 0.94149 0.67059 0.35302 0.0
C3530 C 0.94394 0.65899 0.3595 0.0
C3531 C 0.95773 0.66012 0.35525 0.0
C3532 C 0.92735 0.66995 0.3597 0.0
C3533 C 0.91336 0.65664 0.35458 0.0
C3534 C 0.92762 0.68202 0.37208 0.0
C3535 C 0.94196 0.69604 0.37909 0.0
C3536 C 0.95242 0.69496 0.39209 0.0
C3537 C 0.96594 0.70824 0.39857 0.0
C3538 C 0.96904 0.72268 0.39231 0.0
C3539 C 0.95861 0.72386 0.37962 0.0
C3540 C 0.94509 0.71061 0.37307 0.0
C3541 C 0.86879 0.65141 0.41721 0.0
C3542 C 0.86547 0.66309 0.41827 0.0
C3543 C 0.8793 0.65204 0.40213 0.0
C3544 C 0.88664 0.66433 0.38771 0.0
C3545 C 0.88248 0.6754 0.38764 0.0
C3546 C 0.8719 0.67474 0.40273 0.0
C3547 C 0.90006 0.66669 0.37527 0.0
C3548 C 0.91399 0.68032 0.37941 0.0
C3549 C 0.8997 0.65485 0.36216 0.0
C3550 C 0.88524 0.64053 0.35627 0.0
C3551 C 0.87326 0.64124 0.34719 0.0
C3552 C 0.85961 0.62774 0.34185 0.0
C3553 C 0.85782 0.61342 0.34544 0.0
C3554 C 0.86969 0.61258 0.35433 0.0
C3555 C 0.88336 0.62606 0.3597 0.0
H3556 H 0.84725 0.60298 0.34131 0.0
H3557 H 0.97951 0.73295 0.39735 0.0
H3558 H 0.39377 0.05808 0.70254 0.0
H3559 H 0.41561 0.05619 0.71104 0.0
H3560 H 0.3943 0.01149 0.67887 0.0
H3561 H 0.3722 0.01317 0.67067 0.0
H3562 H 0.40554 0.01073 0.71691 0.0
H3563 H 0.42494 0.04358 0.65572 0.0
H3564 H 0.4309 0.06576 0.63324 0.0
H3565 H 0.45935 0.09674 0.68456 0.0
H3566 H 0.4534 0.07474 0.70749 0.0
H3567 H 0.46935 0.00647 0.73814 0.0
H3568 H 0.45287 0.00969 0.71326 0.0
H3569 H 0.46409 0.05186 0.74762 0.0
H3570 H 0.4805 0.04864 0.77241 0.0
H3571 H 0.4585 0.05234 0.70285 0.0
H3572 H 0.43681 0.01913 0.76501 0.0
H3573 H 0.43185 0.99696 0.78668 0.0
H3574 H 0.407 0.96627 0.73289 0.0
H3575 H 0.41254 0.98836 0.71041 0.0
C3576 C 0.39374 0.04789 0.69709 0.0
C3577 C 0.38121 0.03578 0.68591 0.0
C3578 C 0.40631 0.04686 0.70186 0.0
C3579 C 0.40674 0.03379 0.69534 0.0
C3580 C 0.39428 0.02172 0.68401 0.0
C3581 C 0.38165 0.02271 0.6793 0.0
C3582 C 0.41984 0.03245 0.70142 0.0
C3583 C 0.4171 0.01968 0.71337 0.0
C3584 C 0.43497 0.04421 0.69714 0.0
C3585 C 0.43863 0.05749 0.68338 0.0
C3586 C 0.43238 0.05512 0.66228 0.0
C3587 C 0.43578 0.06767 0.64944 0.0
C3588 C 0.44548 0.08265 0.65748 0.0
C3589 C 0.45184 0.08512 0.67836 0.0
C3590 C 0.44847 0.07262 0.69127 0.0
C3591 C 0.46881 0.01677 0.73968 0.0
C3592 C 0.47612 0.0273 0.75714 0.0
C3593 C 0.45932 0.01855 0.72559 0.0
C3594 C 0.45705 0.03088 0.72885 0.0
C3595 C 0.46565 0.04226 0.74482 0.0
C3596 C 0.47503 0.04043 0.75896 0.0
C3597 C 0.44414 0.03073 0.71841 0.0
C3598 C 0.44691 0.04326 0.70587 0.0
C3599 C 0.42901 0.01874 0.72212 0.0
C3600 C 0.42528 0.00543 0.7359 0.0
C3601 C 0.43042 0.00767 0.7577 0.0
C3602 C 0.42751 0.99512 0.77014 0.0
C3603 C 0.41905 0.98021 0.76122 0.0
C3604 C 0.41356 0.97783 0.73978 0.0
C3605 C 0.41667 0.99037 0.72713 0.0
H3606 H 0.41674 0.9705 0.77093 0.0
H3607 H 0.44809 0.09235 0.64752 0.0
H3608 H 0.00538 0.36302 0.70043 0.0
H3609 H 0.01199 0.38952 0.70802 0.0
H3610 H 0.96476 0.37477 0.70668 0.0
H3611 H 0.95806 0.34832 0.69901 0.0
H3612 H 0.98163 0.40115 0.68456 0.0
H3613 H 0.98265 0.38199 0.755 0.0
H3614 H 0.99015 0.37038 0.78315 0.0
H3615 H 0.03659 0.40648 0.77614 0.0
H3616 H 0.02937 0.41823 0.74776 0.0
H3617 H 0.97785 0.45694 0.75179 0.0
H3618 H 0.97644 0.43593 0.72963 0.0
H3619 H 0.02467 0.45668 0.73622 0.0
H3620 H 0.02594 0.47752 0.75887 0.0
H3621 H 0.01024 0.42898 0.75184 0.0
H3622 H 0.00722 0.45024 0.685 0.0
H3623 H 0.99796 0.4619 0.65965 0.0
H3624 H 0.95334 0.42169 0.6622 0.0
H3625 H 0.96227 0.40986 0.68782 0.0
C3626 C 0.9964 0.36542 0.7017 0.0
C3627 C 0.98118 0.35353 0.69919 0.0
C3628 C 1.00019 0.38057 0.70609 0.0
C3629 C 0.98886 0.38411 0.70802 0.0
C3630 C 0.97369 0.37231 0.70519 0.0
C3631 C 0.96988 0.35717 0.70092 0.0
C3632 C 0.99272 0.40005 0.71342 0.0
C3633 C 0.98781 0.40723 0.69934 0.0
C3634 C 1.00107 0.40811 0.73243 0.0
C3635 C 0.0055 0.40083 0.74899 0.0
C3636 C 0.99448 0.38733 0.75924 0.0
C3637 C 0.99867 0.38076 0.77531 0.0
C3638 C 0.01384 0.38765 0.78135 0.0
C3639 C 0.02485 0.40114 0.77138 0.0
C3640 C 0.02071 0.40775 0.75531 0.0
C3641 C 0.98822 0.45741 0.74745 0.0
C3642 C 1.00203 0.4689 0.75663 0.0
C3643 C 0.98743 0.44537 0.73486 0.0
C3644 C 1.00046 0.44469 0.73121 0.0
C3645 C 0.01448 0.45696 0.73877 0.0
C3646 C 0.01525 0.46896 0.75146 0.0
C3647 C 0.99901 0.43011 0.72315 0.0
C3648 C 0.00433 0.42309 0.7368 0.0
C3649 C 0.99083 0.42216 0.70396 0.0
C3650 C 0.98541 0.4292 0.68845 0.0
C3651 C 0.99541 0.44392 0.68028 0.0
C3652 C 0.99022 0.45056 0.66584 0.0
C3653 C 0.97507 0.44255 0.65934 0.0
C3654 C 0.96507 0.42788 0.66724 0.0
C3655 C 0.9702 0.42119 0.6817 0.0
H3656 H 0.97107 0.44771 0.64816 0.0
H3657 H 0.01706 0.38256 0.79382 0.0
H3658 H 0.66809 0.62261 0.71509 0.0
H3659 H 0.64253 0.60056 0.7198 0.0
H3660 H 0.62423 0.6253 0.69037 0.0
H3661 H 0.64988 0.64755 0.68566 0.0
H3662 H 0.60932 0.61132 0.72769 0.0
H3663 H 0.62412 0.5964 0.66192 0.0
H3664 H 0.6407 0.59178 0.63798 0.0
H3665 H 0.63717 0.55798 0.68203 0.0
H3666 H 0.62074 0.56256 0.70641 0.0
H3667 H 0.53673 0.54763 0.73854 0.0
H3668 H 0.55833 0.56562 0.71615 0.0
H3669 H 0.58473 0.54831 0.74264 0.0
H3670 H 0.56308 0.5302 0.76461 0.0
H3671 H 0.59394 0.55869 0.70112 0.0
H3672 H 0.58305 0.57664 0.76925 0.0
H3673 H 0.5663 0.58062 0.7938 0.0
H3674 H 0.56301 0.60877 0.74594 0.0
H3675 H 0.57953 0.60472 0.72092 0.0
C3676 C 0.65866 0.6234 0.70956 0.0
C3677 C 0.66106 0.63687 0.69998 0.0
C3678 C 0.64403 0.61071 0.71213 0.0
C3679 C 0.63145 0.61118 0.70515 0.0
C3680 C 0.63378 0.62465 0.69575 0.0
C3681 C 0.64844 0.63735 0.69307 0.0
C3682 C 0.61591 0.59777 0.70851 0.0
C3683 C 0.60585 0.59988 0.72144 0.0
C3684 C 0.61145 0.58276 0.70074 0.0
C3685 C 0.62127 0.57991 0.68607 0.0
C3686 C 0.62697 0.58806 0.66659 0.0
C3687 C 0.63633 0.58544 0.65292 0.0
C3688 C 0.64001 0.57461 0.6585 0.0
C3689 C 0.63431 0.56637 0.67773 0.0
C3690 C 0.62496 0.56896 0.69147 0.0
C3691 C 0.54687 0.54711 0.73857 0.0
C3692 C 0.54826 0.53749 0.75307 0.0
C3693 C 0.55927 0.5575 0.72601 0.0
C3694 C 0.57326 0.55856 0.72812 0.0
C3695 C 0.57409 0.54774 0.74076 0.0
C3696 C 0.56169 0.53732 0.75321 0.0
C3697 C 0.58747 0.57227 0.72041 0.0
C3698 C 0.59732 0.5702 0.70689 0.0
C3699 C 0.59182 0.58733 0.72777 0.0
C3700 C 0.58236 0.59023 0.74312 0.0
C3701 C 0.5787 0.58363 0.76393 0.0
C3702 C 0.56922 0.58586 0.7779 0.0
C3703 C 0.56352 0.59487 0.77137 0.0
C3704 C 0.56739 0.60175 0.75093 0.0
C3705 C 0.5768 0.59949 0.73684 0.0
H3706 H 0.55614 0.59655 0.78217 0.0
H3707 H 0.64726 0.5726 0.6479 0.0
H3708 H 0.67223 0.71171 0.70066 0.0
H3709 H 0.6716 0.73423 0.68972 0.0
H3710 H 0.71058 0.74825 0.64867 0.0
H3711 H 0.71142 0.72589 0.65972 0.0
H3712 H 0.71229 0.77291 0.66976 0.0
H3713 H 0.675 0.72867 0.62721 0.0
H3714 H 0.65265 0.70255 0.62201 0.0
H3715 H 0.62535 0.71602 0.65763 0.0
H3716 H 0.6476 0.74218 0.66328 0.0
H3717 H 0.70547 0.81292 0.58268 0.0
H3718 H 0.70861 0.79774 0.60989 0.0
H3719 H 0.66789 0.78931 0.64234 0.0
H3720 H 0.66467 0.80442 0.6147 0.0
H3721 H 0.66599 0.76316 0.63189 0.0
H3722 H 0.70286 0.80898 0.66882 0.0
H3723 H 0.72527 0.83514 0.67288 0.0
H3724 H 0.75349 0.81919 0.64736 0.0
H3725 H 0.73122 0.79296 0.64283 0.0
C3726 C 0.68076 0.71965 0.68945 0.0
C3727 C 0.6918 0.71689 0.68093 0.0
C3728 C 0.68036 0.73252 0.68318 0.0
C3729 C 0.69093 0.74286 0.66815 0.0
C3730 C 0.7023 0.74045 0.66028 0.0
C3731 C 0.70272 0.7276 0.66655 0.0
C3732 C 0.68969 0.75569 0.65964 0.0
C3733 C 0.7022 0.7708 0.66139 0.0
C3734 C 0.67637 0.75302 0.6493 0.0
C3735 C 0.66299 0.73731 0.6459 0.0
C3736 C 0.66425 0.72602 0.63409 0.0
C3737 C 0.6516 0.71122 0.63103 0.0
C3738 C 0.6376 0.70761 0.63955 0.0
C3739 C 0.63621 0.71882 0.65109 0.0
C3740 C 0.64884 0.73363 0.65422 0.0
C3741 C 0.69756 0.80837 0.59618 0.0
C3742 C 0.6849 0.80991 0.59673 0.0
C3743 C 0.69934 0.79966 0.61175 0.0
C3744 C 0.6885 0.79235 0.62827 0.0
C3745 C 0.67642 0.79485 0.62979 0.0
C3746 C 0.67466 0.80362 0.61417 0.0
C3747 C 0.6887 0.78045 0.64163 0.0
C3748 C 0.67599 0.76542 0.64069 0.0
C3749 C 0.70186 0.78323 0.65264 0.0
C3750 C 0.71533 0.799 0.65537 0.0
C3751 C 0.71382 0.81106 0.66392 0.0
C3752 C 0.72651 0.82591 0.66633 0.0
C3753 C 0.74079 0.82883 0.66035 0.0
C3754 C 0.74242 0.8169 0.65199 0.0
C3755 C 0.72977 0.80204 0.64953 0.0
H3756 H 0.7506 0.84033 0.66223 0.0
H3757 H 0.62782 0.69615 0.63716 0.0
H3758 H 0.307 0.97606 0.65184 0.0
H3759 H 0.28595 0.95066 0.64072 0.0
H3760 H 0.25439 0.9619 0.6683 0.0
H3761 H 0.27542 0.9872 0.68002 0.0
H3762 H 0.24508 0.93321 0.67679 0.0
H3763 H 0.26144 0.96349 0.61309 0.0
H3764 H 0.27881 0.98043 0.58465 0.0
H3765 H 0.28871 0.94591 0.56521 0.0
H3766 H 0.27165 0.92888 0.59387 0.0
H3767 H 0.1862 0.87757 0.59726 0.0
H3768 H 0.20299 0.89995 0.62095 0.0
H3769 H 0.23543 0.88577 0.6212 0.0
H3770 H 0.21866 0.86337 0.598 0.0
H3771 H 0.24256 0.91608 0.5993 0.0
H3772 H 0.22555 0.8862 0.66545 0.0
H3773 H 0.20626 0.86961 0.69226 0.0
H3774 H 0.19528 0.90424 0.70454 0.0
H3775 H 0.21437 0.92096 0.67752 0.0
C3776 C 0.29559 0.97311 0.65566 0.0
C3777 C 0.2929 0.98371 0.66668 0.0
C3778 C 0.28355 0.95859 0.6492 0.0
C3779 C 0.26855 0.95445 0.65331 0.0
C3780 C 0.26584 0.96484 0.66489 0.0
C3781 C 0.2779 0.97932 0.67152 0.0
C3782 C 0.25573 0.93943 0.64505 0.0
C3783 C 0.24447 0.92956 0.65978 0.0
C3784 C 0.25484 0.93462 0.62283 0.0
C3785 C 0.26538 0.94497 0.60585 0.0
C3786 C 0.26746 0.95958 0.60295 0.0
C3787 C 0.27723 0.96919 0.58675 0.0
C3788 C 0.2849 0.96427 0.57319 0.0
C3789 C 0.2828 0.94972 0.57579 0.0
C3790 C 0.27309 0.94009 0.59202 0.0
C3791 C 0.19655 0.87883 0.60335 0.0
C3792 C 0.2012 0.86882 0.59584 0.0
C3793 C 0.20617 0.89164 0.61673 0.0
C3794 C 0.22045 0.8945 0.62264 0.0
C3795 C 0.22443 0.88371 0.61683 0.0
C3796 C 0.21483 0.87091 0.60368 0.0
C3797 C 0.23228 0.90983 0.63113 0.0
C3798 C 0.24327 0.9198 0.6163 0.0
C3799 C 0.23272 0.91479 0.65305 0.0
C3800 C 0.22124 0.90474 0.66925 0.0
C3801 C 0.2189 0.89021 0.67366 0.0
C3802 C 0.20803 0.8808 0.68895 0.0
C3803 C 0.19951 0.88584 0.70004 0.0
C3804 C 0.20187 0.90033 0.6959 0.0
C3805 C 0.21272 0.90978 0.68062 0.0
H3806 H 0.19111 0.87854 0.71188 0.0
H3807 H 0.29242 0.9717 0.56061 0.0
H3808 H 0.01575 0.30082 0.66165 0.0
H3809 H 0.0387 0.30146 0.65026 0.0
H3810 H 0.06556 0.34251 0.69006 0.0
H3811 H 0.04266 0.34203 0.70142 0.0
H3812 H 0.07671 0.34568 0.64913 0.0
H3813 H 0.06068 0.30838 0.70511 0.0
H3814 H 0.04284 0.28484 0.72471 0.0
H3815 H 0.03827 0.25732 0.66747 0.0
H3816 H 0.05593 0.28071 0.6474 0.0
H3817 H 0.14431 0.34959 0.62444 0.0
H3818 H 0.12355 0.34443 0.64944 0.0
H3819 H 0.09225 0.30644 0.60751 0.0
H3820 H 0.11295 0.31171 0.58246 0.0
H3821 H 0.08468 0.30195 0.65349 0.0
H3822 H 0.09692 0.33845 0.59636 0.0
H3823 H 0.11441 0.36136 0.5753 0.0
H3824 H 0.12529 0.38975 0.63361 0.0
H3825 H 0.10802 0.36692 0.6551 0.0
C3826 C 0.02652 0.30992 0.66814 0.0
C3827 C 0.02736 0.3214 0.68241 0.0
C3828 C 0.03963 0.31021 0.66171 0.0
C3829 C 0.05385 0.32196 0.66946 0.0
C3830 C 0.05471 0.33332 0.68392 0.0
C3831 C 0.04159 0.33301 0.69042 0.0
C3832 C 0.06786 0.32291 0.66136 0.0
C3833 C 0.07858 0.33623 0.65056 0.0
C3834 C 0.07014 0.31043 0.66266 0.0
C3835 C 0.05955 0.29632 0.6747 0.0
C3836 C 0.05579 0.29732 0.69664 0.0
C3837 C 0.04572 0.284 0.70785 0.0
C3838 C 0.0394 0.2696 0.69733 0.0
C3839 C 0.04316 0.26848 0.67559 0.0
C3840 C 0.05322 0.28177 0.6643 0.0
C3841 C 0.13312 0.33973 0.62117 0.0
C3842 C 0.13016 0.33098 0.6017 0.0
C3843 C 0.12127 0.33683 0.63533 0.0
C3844 C 0.10636 0.32515 0.63017 0.0
C3845 C 0.10367 0.31545 0.61183 0.0
C3846 C 0.11548 0.31844 0.59757 0.0
C3847 C 0.09343 0.3247 0.64146 0.0
C3848 C 0.08288 0.31147 0.65257 0.0
C3849 C 0.09118 0.33719 0.64031 0.0
C3850 C 0.10133 0.35097 0.62738 0.0
C3851 C 0.10313 0.34956 0.60472 0.0
C3852 C 0.11299 0.36253 0.5927 0.0
C3853 C 0.121 0.377 0.60312 0.0
C3854 C 0.1191 0.37853 0.62557 0.0
C3855 C 0.10928 0.36558 0.63768 0.0
H3856 H 0.12863 0.38703 0.5938 0.0
H3857 H 0.0316 0.2593 0.70604 0.0
H3858 H 0.28669 0.30596 0.67338 0.0
H3859 H 0.26362 0.30617 0.66647 0.0
H3860 H 0.29012 0.3555 0.66072 0.0
H3861 H 0.3131 0.35543 0.66809 0.0
H3862 H 0.26467 0.34743 0.68186 0.0
H3863 H 0.27819 0.33083 0.61526 0.0
H3864 H 0.28404 0.31424 0.59259 0.0
H3865 H 0.24039 0.27495 0.6069 0.0
H3866 H 0.23436 0.2913 0.62989 0.0
H3867 H 0.22516 0.36472 0.60535 0.0
H3868 H 0.24146 0.36084 0.62941 0.0
H3869 H 0.20719 0.31262 0.63276 0.0
H3870 H 0.19088 0.31658 0.60855 0.0
H3871 H 0.23343 0.3169 0.61777 0.0
H3872 H 0.21865 0.33553 0.67928 0.0
H3873 H 0.2133 0.35314 0.70018 0.0
H3874 H 0.25964 0.38966 0.69397 0.0
H3875 H 0.26524 0.37234 0.67275 0.0
C3876 C 0.28759 0.31687 0.67083 0.0
C3877 C 0.30178 0.33067 0.67111 0.0
C3878 C 0.27439 0.31697 0.66683 0.0
C3879 C 0.27513 0.33084 0.66277 0.0
C3880 C 0.28923 0.34465 0.6638 0.0
C3881 C 0.30239 0.34457 0.66792 0.0
C3882 C 0.26144 0.33101 0.6563 0.0
C3883 C 0.25785 0.3408 0.66781 0.0
C3884 C 0.25229 0.32207 0.63829 0.0
C3885 C 0.2559 0.31224 0.62451 0.0
C3886 C 0.26989 0.31863 0.61372 0.0
C3887 C 0.27323 0.30928 0.60079 0.0
C3888 C 0.26261 0.29354 0.59837 0.0
C3889 C 0.24861 0.28714 0.60883 0.0
C3890 C 0.24523 0.29644 0.62181 0.0
C3891 C 0.22085 0.35347 0.61213 0.0
C3892 C 0.20671 0.34099 0.60548 0.0
C3893 C 0.23018 0.35122 0.6258 0.0
C3894 C 0.22556 0.33642 0.63295 0.0
C3895 C 0.21097 0.32414 0.62752 0.0
C3896 C 0.20159 0.32642 0.61392 0.0
C3897 C 0.23677 0.33352 0.6431 0.0
C3898 C 0.23998 0.32328 0.63216 0.0
C3899 C 0.24564 0.34216 0.66147 0.0
C3900 C 0.24235 0.35264 0.6743 0.0
C3901 C 0.22769 0.34735 0.68223 0.0
C3902 C 0.22461 0.35728 0.69416 0.0
C3903 C 0.23612 0.37252 0.69837 0.0
C3904 C 0.25074 0.37785 0.6907 0.0
C3905 C 0.25387 0.36797 0.67874 0.0
H3906 H 0.23371 0.38019 0.70761 0.0
H3907 H 0.26521 0.28632 0.58835 0.0
H3908 H 0.66642 0.97718 0.64703 0.0
H3909 H 0.66152 0.95146 0.63798 0.0
H3910 H 0.70287 0.96278 0.67044 0.0
H3911 H 0.70785 0.98851 0.67964 0.0
H3912 H 0.70006 0.94998 0.62901 0.0
H3913 H 0.66992 0.93844 0.69395 0.0
H3914 H 0.65066 0.9383 0.71811 0.0
H3915 H 0.61658 0.91265 0.66914 0.0
H3916 H 0.63568 0.91283 0.64455 0.0
H3917 H 0.68802 0.87703 0.60682 0.0
H3918 H 0.69054 0.8976 0.63156 0.0
H3919 H 0.64956 0.89186 0.60496 0.0
H3920 H 0.64688 0.87119 0.58061 0.0
H3921 H 0.65308 0.90124 0.64795 0.0
H3922 H 0.68216 0.916 0.5816 0.0
H3923 H 0.70029 0.9162 0.55495 0.0
H3924 H 0.73526 0.93636 0.60391 0.0
H3925 H 0.7172 0.93601 0.63095 0.0
C3926 C 0.67443 0.97418 0.65238 0.0
C3927 C 0.68754 0.98493 0.66404 0.0
C3928 C 0.67157 0.95944 0.6473 0.0
C3929 C 0.68177 0.95515 0.6537 0.0
C3930 C 0.69482 0.96583 0.66542 0.0
C3931 C 0.69763 0.98052 0.67068 0.0
C3932 C 0.67921 0.93985 0.64711 0.0
C3933 C 0.68995 0.93932 0.63359 0.0
C3934 C 0.6658 0.92594 0.65255 0.0
C3935 C 0.65427 0.92576 0.66734 0.0
C3936 C 0.65835 0.93287 0.68826 0.0
C3937 C 0.64745 0.93277 0.70205 0.0
C3938 C 0.63241 0.9255 0.69515 0.0
C3939 C 0.62823 0.91829 0.67446 0.0
C3940 C 0.63909 0.91837 0.6606 0.0
C3941 C 0.67921 0.8797 0.607 0.0
C3942 C 0.66733 0.87264 0.59172 0.0
C3943 C 0.68072 0.89154 0.62098 0.0
C3944 C 0.6704 0.89649 0.61976 0.0
C3945 C 0.65767 0.88829 0.60616 0.0
C3946 C 0.65616 0.87649 0.59224 0.0
C3947 C 0.67394 0.91142 0.62991 0.0
C3948 C 0.66334 0.9119 0.64385 0.0
C3949 C 0.68736 0.92535 0.62458 0.0
C3950 C 0.6983 0.9258 0.60833 0.0
C3951 C 0.69369 0.92037 0.58669 0.0
C3952 C 0.70395 0.92051 0.57153 0.0
C3953 C 0.71892 0.92625 0.57775 0.0
C3954 C 0.72365 0.93189 0.59914 0.0
C3955 C 0.71341 0.93171 0.61439 0.0
H3956 H 0.72686 0.92636 0.566 0.0
H3957 H 0.62399 0.92543 0.70585 0.0
H3958 H 0.01776 0.72416 0.69153 0.0
H3959 H 0.0434 0.74447 0.68173 0.0
H3960 H 0.04705 0.71273 0.63788 0.0
H3961 H 0.02154 0.69234 0.64774 0.0
H3962 H 0.07327 0.731 0.66043 0.0
H3963 H 0.03775 0.73752 0.6187 0.0
H3964 H 0.01633 0.74125 0.61415 0.0
H3965 H 0.03971 0.78335 0.65229 0.0
H3966 H 0.0612 0.77975 0.6573 0.0
H3967 H 0.12174 0.77354 0.57462 0.0
H3968 H 0.10276 0.75687 0.60106 0.0
H3969 H 0.1079 0.7967 0.6359 0.0
H3970 H 0.1269 0.81349 0.60903 0.0
H3971 H 0.07916 0.77701 0.62512 0.0
H3972 H 0.11694 0.77251 0.66063 0.0
H3973 H 0.13836 0.76866 0.66373 0.0
H3974 H 0.11115 0.72289 0.63652 0.0
H3975 H 0.08962 0.72652 0.63294 0.0
C3976 C 0.02406 0.72146 0.67994 0.0
C3977 C 0.01753 0.70665 0.67027 0.0
C3978 C 0.03871 0.73309 0.67433 0.0
C3979 C 0.0471 0.73016 0.6589 0.0
C3980 C 0.04081 0.71525 0.64984 0.0
C3981 C 0.02617 0.70363 0.65541 0.0
C3982 C 0.06205 0.74274 0.65118 0.0
C3983 C 0.07459 0.74106 0.65265 0.0
C3984 C 0.06387 0.75609 0.64164 0.0
C3985 C 0.05098 0.75827 0.63861 0.0
C3986 C 0.03826 0.7475 0.62627 0.0
C3987 C 0.02612 0.7496 0.62358 0.0
C3988 C 0.02664 0.7625 0.63299 0.0
C3989 C 0.03931 0.77335 0.64505 0.0
C3990 C 0.05148 0.77129 0.64782 0.0
C3991 C 0.11916 0.77874 0.58833 0.0
C3992 C 0.12574 0.79476 0.58985 0.0
C3993 C 0.10834 0.76921 0.6035 0.0
C3994 C 0.10391 0.7755 0.62057 0.0
C3995 C 0.11117 0.79159 0.6229 0.0
C3996 C 0.12209 0.80118 0.60769 0.0
C3997 C 0.09039 0.76516 0.6339 0.0
C3998 C 0.07804 0.76719 0.63339 0.0
C3999 C 0.08876 0.75213 0.64424 0.0
C4000 C 0.10167 0.74983 0.64643 0.0
C4001 C 0.11554 0.76166 0.65517 0.0
C4002 C 0.12771 0.75951 0.65703 0.0
C4003 C 0.12612 0.74555 0.6503 0.0
C4004 C 0.11236 0.73369 0.64173 0.0
C4005 C 0.10016 0.73579 0.63982 0.0
H4006 H 0.13556 0.7439 0.65176 0.0
H4007 H 0.01723 0.76411 0.63088 0.0
H4008 H 0.95831 0.61621 0.6855 0.0
H4009 H 0.95736 0.5932 0.69811 0.0
H4010 H 0.00351 0.61184 0.67753 0.0
H4011 H 0.00444 0.6347 0.66441 0.0
H4012 H 0.98714 0.58148 0.669 0.0
H4013 H 0.9947 0.61516 0.73103 0.0
H4014 H 0.98856 0.63067 0.75569 0.0
H4015 H 0.94581 0.59039 0.77073 0.0
H4016 H 0.95162 0.57467 0.74593 0.0
H4017 H 0.01472 0.54919 0.74313 0.0
H4018 H 0.00833 0.56342 0.71838 0.0
H4019 H 0.96284 0.53998 0.74382 0.0
H4020 H 0.96941 0.52594 0.76886 0.0
H4021 H 0.97551 0.57 0.74771 0.0
H4022 H 0.97021 0.53563 0.68925 0.0
H4023 H 0.97742 0.52062 0.66545 0.0
H4024 H 0.01682 0.56231 0.64436 0.0
H4025 H 0.00997 0.57758 0.66828 0.0
C4026 C 0.96822 0.61536 0.68345 0.0
C4027 C 0.98151 0.62739 0.67415 0.0
C4028 C 0.96766 0.6022 0.69071 0.0
C4029 C 0.98045 0.60089 0.68909 0.0
C4030 C 0.99351 0.61259 0.67898 0.0
C4031 C 0.99404 0.6257 0.67157 0.0
C4032 C 0.98057 0.58785 0.69913 0.0
C4033 C 0.98466 0.57899 0.68623 0.0
C4034 C 0.97702 0.58436 0.7215 0.0
C4035 C 0.97352 0.59379 0.73643 0.0
C4036 C 0.98394 0.60964 0.73947 0.0
C4037 C 0.98053 0.61846 0.75349 0.0
C4038 C 0.96678 0.61153 0.76471 0.0
C4039 C 0.95644 0.59575 0.76199 0.0
C4040 C 0.95979 0.58688 0.74796 0.0
C4041 C 0.0032 0.54663 0.74269 0.0
C4042 C 0.99245 0.53634 0.75752 0.0
C4043 C 0.99954 0.55477 0.72859 0.0
C4044 C 0.98506 0.55274 0.72913 0.0
C4045 C 0.97405 0.5417 0.74305 0.0
C4046 C 0.97774 0.53358 0.75718 0.0
C4047 C 0.98219 0.56363 0.71766 0.0
C4048 C 0.97768 0.57221 0.73036 0.0
C4049 C 0.98547 0.56688 0.69518 0.0
C4050 C 0.98961 0.55775 0.68069 0.0
C4051 C 0.98047 0.5416 0.67966 0.0
C4052 C 0.98448 0.53304 0.66612 0.0
C4053 C 0.99758 0.5405 0.65343 0.0
C4054 C 0.00668 0.55654 0.65421 0.0
C4055 C 0.00272 0.56516 0.66773 0.0
H4056 H 1.00067 0.53385 0.64296 0.0
H4057 H 0.96416 0.61837 0.77557 0.0
H4058 H 0.38591 0.36706 0.64157 0.0
H4059 H 0.40751 0.3926 0.65182 0.0
H4060 H 0.38668 0.39059 0.71415 0.0
H4061 H 0.36531 0.36492 0.70435 0.0
H4062 H 0.39979 0.42017 0.68722 0.0
H4063 H 0.41081 0.38299 0.71777 0.0
H4064 H 0.41464 0.36116 0.71397 0.0
H4065 H 0.44998 0.38599 0.66718 0.0
H4066 H 0.44619 0.40789 0.6705 0.0
H4067 H 0.44776 0.46754 0.7704 0.0
H4068 H 0.42991 0.44955 0.7433 0.0
H4069 H 0.46679 0.45333 0.70472 0.0
H4070 H 0.48477 0.47093 0.73278 0.0
H4071 H 0.44779 0.42502 0.71005 0.0
H4072 H 0.44143 0.46442 0.68523 0.0
H4073 H 0.4381 0.48662 0.68692 0.0
H4074 H 0.39515 0.45919 0.71842 0.0
H4075 H 0.39829 0.43688 0.71724 0.0
C4076 C 0.38593 0.3721 0.65743 0.0
C4077 C 0.37397 0.36399 0.67222 0.0
C4078 C 0.39824 0.38666 0.66322 0.0
C4079 C 0.39861 0.39345 0.68367 0.0
C4080 C 0.38653 0.38554 0.69824 0.0
C4081 C 0.3744 0.37086 0.69268 0.0
C4082 C 0.41186 0.40851 0.69049 0.0
C4083 C 0.41032 0.42134 0.69226 0.0
C4084 C 0.42577 0.41009 0.69603 0.0
C4085 C 0.42807 0.39697 0.69415 0.0
C4086 C 0.41929 0.38372 0.7065 0.0
C4087 C 0.42148 0.37136 0.70448 0.0
C4088 C 0.43251 0.37216 0.69028 0.0
C4089 C 0.44141 0.38537 0.67813 0.0
C4090 C 0.43925 0.39776 0.68008 0.0
C4091 C 0.4521 0.46487 0.75583 0.0
C4092 C 0.46762 0.4705 0.75377 0.0
C4093 C 0.44186 0.45464 0.74017 0.0
C4094 C 0.44691 0.45005 0.72175 0.0
C4095 C 0.46258 0.45665 0.71877 0.0
C4096 C 0.47287 0.46683 0.73467 0.0
C4097 C 0.4357 0.43685 0.7077 0.0
C4098 C 0.43752 0.42422 0.70452 0.0
C4099 C 0.42215 0.43558 0.70046 0.0
C4100 C 0.42013 0.44896 0.7012 0.0
C4101 C 0.43131 0.46313 0.69265 0.0
C4102 C 0.42945 0.47574 0.6935 0.0
C4103 C 0.41643 0.47432 0.70278 0.0
C4104 C 0.40522 0.46027 0.71121 0.0
C4105 C 0.40703 0.44763 0.71041 0.0
H4106 H 0.41501 0.48409 0.70343 0.0
H4107 H 0.4342 0.36258 0.68874 0.0
H4108 H 0.63828 0.0155 0.6567 0.0
H4109 H 0.61282 0.01027 0.66503 0.0
H4110 H 0.63048 0.04111 0.7213 0.0
H4111 H 0.65584 0.04655 0.71302 0.0
H4112 H 0.60561 0.01132 0.73012 0.0
H4113 H 0.62087 0.05257 0.6796 0.0
H4114 H 0.62977 0.06517 0.64403 0.0
H4115 H 0.5908 0.02749 0.61212 0.0
H4116 H 0.58178 0.01455 0.64748 0.0
H4117 H 0.54782 0.03388 0.74507 0.0
H4118 H 0.56808 0.03591 0.72169 0.0
H4119 H 0.55056 0.98752 0.72914 0.0
H4120 H 0.53062 0.98566 0.75314 0.0
H4121 H 0.57429 0.02415 0.6855 0.0
H4122 H 0.57979 0.98292 0.73996 0.0
H4123 H 0.57261 0.97135 0.77642 0.0
H4124 H 0.57182 0.01058 0.80163 0.0
H4125 H 0.57905 0.02243 0.76528 0.0
C4126 C 0.63675 0.02128 0.67072 0.0
C4127 C 0.64909 0.0314 0.68426 0.0
C4128 C 0.62222 0.01831 0.6754 0.0
C4129 C 0.61979 0.0253 0.69378 0.0
C4130 C 0.63212 0.03559 0.70704 0.0
C4131 C 0.64662 0.0387 0.70224 0.0
C4132 C 0.60433 0.02125 0.70025 0.0
C4133 C 0.59871 0.01401 0.72026 0.0
C4134 C 0.59533 0.02474 0.68736 0.0
C4135 C 0.60075 0.03251 0.66613 0.0
C4136 C 0.61428 0.0469 0.66496 0.0
C4137 C 0.61933 0.05412 0.64485 0.0
C4138 C 0.61089 0.04711 0.62582 0.0
C4139 C 0.59735 0.03289 0.62687 0.0
C4140 C 0.59226 0.02561 0.64694 0.0
C4141 C 0.54789 0.02355 0.74079 0.0
C4142 C 0.53765 0.0096 0.75072 0.0
C4143 C 0.55953 0.02472 0.72756 0.0
C4144 C 0.56108 0.01195 0.7241 0.0
C4145 C 0.54976 0.99759 0.7319 0.0
C4146 C 0.53824 0.99647 0.74536 0.0
C4147 C 0.57558 0.01424 0.71549 0.0
C4148 C 0.58105 0.02119 0.69514 0.0
C4149 C 0.58455 0.01052 0.7281 0.0
C4150 C 0.57981 0.00346 0.74988 0.0
C4151 C 0.57804 0.98905 0.75328 0.0
C4152 C 0.57397 0.98245 0.77389 0.0
C4153 C 0.57173 0.99022 0.79128 0.0
C4154 C 0.5735 0.00457 0.78809 0.0
C4155 C 0.57756 0.01122 0.76747 0.0
H4156 H 0.56875 0.98512 0.80722 0.0
H4157 H 0.61481 0.05272 0.61026 0.0
loop_
_geom_bond_atom_site_label_1
_geom_bond_atom_site_label_2
_geom_bond_distance
_geom_bond_site_symmetry_2
_ccdc_geom_bond_type
C0 O1 1.160 . S
C0 O7 1.185 . S
O1 C0 1.160 . S
O2 Zn3 1.899 1_656 S
O2 C10 1.284 1_556 S
Zn3 O2 1.899 1_454 S
Zn3 O4 2.032 . S
Zn3 O7 2.086 . S
Zn3 O12 1.977 1_554 S
O4 Zn3 2.032 . S
O4 C8 1.278 1_455 S
C5 O6 1.203 1_455 S
C5 O12 1.267 . S
O6 C5 1.203 1_655 S
O7 C0 1.185 . S
O7 Zn3 2.086 . S
C8 O4 1.278 1_655 S
C8 O9 1.211 . S
O9 C8 1.211 . S
C10 O2 1.284 1_554 S
C10 O11 1.273 . S
O11 C10 1.273 . S
O12 Zn3 1.977 1_556 S
O12 C5 1.267 . S
C13 O14 1.162 . S
C13 O20 1.182 1_556 S
O14 C13 1.162 . S
O15 Zn16 1.899 . S
O15 C23 1.284 . S
Zn16 O15 1.899 . S
Zn16 O17 2.032 1_554 S
Zn16 O20 2.086 . S
Zn16 O25 1.977 . S
O17 Zn16 2.032 1_556 S
O17 C21 1.278 . S
C18 O19 1.203 . S
C18 O25 1.267 . S
O19 C18 1.203 . S
O20 C13 1.182 1_554 S
O20 Zn16 2.086 . S
C21 O17 1.278 . S
C21 O22 1.211 . S
O22 C21 1.211 . S
C23 O15 1.284 . S
C23 O24 1.273 . S
O24 C23 1.273 . S
O25 Zn16 1.977 . S
O25 C18 1.267 . S
C26 O27 1.160 1_554 S
C26 O33 1.185 . S
O27 C26 1.160 1_556 S
O28 Zn29 1.899 1_565 S
O28 C36 1.284 . S
Zn29 O28 1.899 1_545 S
Zn29 O30 2.032 1_554 S
Zn29 O33 2.086 . S
Zn29 O38 1.977 . S
O30 Zn29 2.032 1_556 S
O30 C34 1.278 . S
C31 O32 1.203 1_545 S
C31 O38 1.267 . S
O32 C31 1.203 1_565 S
O33 C26 1.185 . S
O33 Zn29 2.086 . S
C34 O30 1.278 . S
C34 O35 1.211 1_545 S
O35 C34 1.211 1_565 S
C36 O28 1.284 . S
C36 O37 1.273 . S
O37 C36 1.273 . S
O38 Zn29 1.977 . S
O38 C31 1.267 . S
C39 O40 1.160 . S
C39 O46 1.185 1_556 S
O40 C39 1.160 . S
O41 Zn42 1.899 1_455 S
O41 C49 1.284 . S
Zn42 O41 1.899 1_655 S
Zn42 O43 2.032 1_554 S
Zn42 O46 2.086 . S
Zn42 O51 1.977 . S
O43 Zn42 2.032 1_556 S
O43 C47 1.278 1_655 S
C44 O45 1.203 1_655 S
C44 O51 1.267 . S
O45 C44 1.203 1_455 S
O46 C39 1.185 1_554 S
O46 Zn42 2.086 . S
C47 O43 1.278 1_455 S
C47 O48 1.211 . S
O48 C47 1.211 . S
C49 O41 1.284 . S
C49 O50 1.273 . S
O50 C49 1.273 . S
O51 Zn42 1.977 . S
O51 C44 1.267 . S
C52 O53 1.160 . S
C52 O59 1.185 . S
O53 C52 1.160 . S
O54 Zn55 1.899 1_556 S
O54 C62 1.284 . S
Zn55 O54 1.899 1_554 S
Zn55 O56 2.032 . S
Zn55 O59 2.086 . S
Zn55 O64 1.977 1_554 S
O56 Zn55 2.032 . S
O56 C60 1.278 . S
C57 O58 1.203 . S
C57 O64 1.267 . S
O58 C57 1.203 . S
O59 C52 1.185 . S
O59 Zn55 2.086 . S
C60 O56 1.278 . S
C60 O61 1.211 . S
O61 C60 1.211 . S
C62 O54 1.284 . S
C62 O63 1.273 1_556 S
O63 C62 1.273 1_554 S
O64 Zn55 1.977 1_556 S
O64 C57 1.267 . S
C65 O66 1.160 . S
C65 O72 1.185 . S
O66 C65 1.160 . S
O67 Zn68 1.899 1_546 S
O67 C75 1.295 . S
Zn68 O67 1.899 1_564 S
Zn68 O69 2.053 . S
Zn68 O72 2.086 . S
Zn68 O77 1.977 1_554 S
O69 Zn68 2.053 . S
O69 C73 1.212 1_565 S
C70 O71 1.203 1_565 S
C70 O77 1.267 . S
O71 C70 1.203 1_545 S
O72 C65 1.185 . S
O72 Zn68 2.086 . S
C73 O69 1.212 1_545 S
C73 O74 1.211 . S
O74 C73 1.211 . S
C75 O67 1.295 . S
C75 O76 1.254 1_556 S
O76 C75 1.254 1_554 S
O77 Zn68 1.977 1_556 S
O77 C70 1.267 . S
C78 O79 1.160 . S
C78 O85 1.185 . S
O79 C78 1.160 . S
O80 Zn81 1.899 . S
O80 C88 1.284 . S
Zn81 O80 1.899 . S
Zn81 O82 2.032 . S
Zn81 O85 2.086 . S
Zn81 O90 1.977 . S
O82 Zn81 2.032 . S
O82 C86 1.278 . S
C83 O84 1.203 . S
C83 O90 1.267 . S
O84 C83 1.203 . S
O85 C78 1.185 . S
O85 Zn81 2.086 . S
C86 O82 1.278 . S
C86 O87 1.211 . S
O87 C86 1.211 . S
C88 O80 1.284 . S
C88 O89 1.273 . S
O89 C88 1.273 . S
O90 Zn81 1.977 . S
O90 C83 1.267 . S
C91 O92 1.153 . S
C91 O98 1.185 . S
O92 C91 1.153 . S
O93 Zn94 1.899 1_545 S
O93 C101 1.284 . S
Zn94 O93 1.899 1_565 S
Zn94 O95 2.032 . S
Zn94 O98 2.086 . S
Zn94 O103 1.977 . S
O95 Zn94 2.032 . S
O95 C99 1.278 . S
C96 O97 1.203 . S
C96 O103 1.267 . S
O97 C96 1.203 . S
O98 C91 1.185 . S
O98 Zn94 2.086 . S
C99 O95 1.278 . S
C99 O100 1.211 . S
O100 C99 1.211 . S
C101 O93 1.284 . S
C101 O102 1.278 . S
O102 C101 1.278 . S
O103 Zn94 1.977 . S
O103 C96 1.267 . S
C104 O105 1.160 . S
C104 O111 1.185 . S
O105 C104 1.160 . S
O106 Zn107 1.899 . S
O106 C114 1.284 1_455 S
Zn107 O106 1.899 . S
Zn107 O108 2.032 . S
Zn107 O111 2.086 . S
Zn107 O116 1.977 . S
O108 Zn107 2.032 . S
O108 C112 1.278 . S
C109 O110 1.203 . S
C109 O116 1.267 . S
O110 C109 1.203 . S
O111 C104 1.185 . S
O111 Zn107 2.086 . S
C112 O108 1.278 . S
C112 O113 1.211 . S
O113 C112 1.211 . S
C114 O106 1.284 1_655 S
C114 O115 1.273 1_655 S
O115 C114 1.273 1_455 S
O116 Zn107 1.977 . S
O116 C109 1.267 . S
C117 O118 1.156 1_565 S
C117 O124 1.185 . S
O118 C117 1.156 1_545 S
O119 Zn120 1.899 1_545 S
O119 C127 1.284 . S
Zn120 O119 1.899 1_565 S
Zn120 O121 2.032 . S
Zn120 O124 2.086 . S
Zn120 O129 1.977 . S
O121 Zn120 2.032 . S
O121 C125 1.278 . S
C122 O123 1.203 . S
C122 O129 1.267 . S
O123 C122 1.203 . S
O124 C117 1.185 . S
O124 Zn120 2.086 . S
C125 O121 1.278 . S
C125 O126 1.211 . S
O126 C125 1.211 . S
C127 O119 1.284 . S
C127 O128 1.273 . S
O128 C127 1.273 . S
O129 Zn120 1.977 . S
O129 C122 1.267 . S
C130 O131 1.160 . S
C130 O137 1.185 . S
O131 C130 1.160 . S
O132 Zn133 1.899 . S
O132 C140 1.284 . S
Zn133 O132 1.899 . S
Zn133 O134 2.032 . S
Zn133 O137 2.086 1_455 S
Zn133 O142 1.977 . S
O134 Zn133 2.032 . S
O134 C138 1.278 . S
C135 O136 1.203 . S
C135 O142 1.267 . S
O136 C135 1.203 . S
O137 C130 1.185 . S
O137 Zn133 2.086 1_655 S
C138 O134 1.278 . S
C138 O139 1.211 . S
O139 C138 1.211 . S
C140 O132 1.284 . S
C140 O141 1.273 . S
O141 C140 1.273 . S
O142 Zn133 1.977 . S
O142 C135 1.267 . S
C143 O144 1.160 . S
C143 O150 1.185 . S
O144 C143 1.160 . S
O145 Zn146 1.899 . S
O145 C153 1.284 . S
Zn146 O145 1.899 . S
Zn146 O147 2.032 . S
Zn146 O150 2.086 . S
Zn146 O155 1.977 . S
O147 Zn146 2.032 . S
O147 C151 1.278 . S
C148 O149 1.203 . S
C148 O155 1.267 . S
O149 C148 1.203 . S
O150 C143 1.185 . S
O150 Zn146 2.086 . S
C151 O147 1.278 . S
C151 O152 1.211 . S
O152 C151 1.211 . S
C153 O145 1.284 . S
C153 O154 1.273 . S
O154 C153 1.273 . S
O155 Zn146 1.977 . S
O155 C148 1.267 . S
C156 O157 1.160 . S
C156 O163 1.185 . S
O157 C156 1.160 . S
O158 Zn159 1.899 . S
O158 C166 1.284 1_545 S
Zn159 O158 1.899 . S
Zn159 O160 2.032 . S
Zn159 O163 2.086 . S
Zn159 O168 1.977 . S
O160 Zn159 2.032 . S
O160 C164 1.278 . S
C161 O162 1.203 . S
C161 O168 1.267 . S
O162 C161 1.203 . S
O163 C156 1.185 . S
O163 Zn159 2.086 . S
C164 O160 1.278 . S
C164 O165 1.211 . S
O165 C164 1.211 . S
C166 O158 1.284 1_565 S
C166 O167 1.273 1_565 S
O167 C166 1.273 1_545 S
O168 Zn159 1.977 . S
O168 C161 1.267 . S
C169 O170 1.160 . S
C169 O176 1.185 . S
O170 C169 1.160 . S
O171 Zn172 1.899 . S
O171 C179 1.284 . S
Zn172 O171 1.899 . S
Zn172 O173 2.032 . S
Zn172 O176 2.086 1_655 S
Zn172 O181 1.977 . S
O173 Zn172 2.032 . S
O173 C177 1.278 . S
C174 O175 1.203 . S
C174 O181 1.267 . S
O175 C174 1.203 . S
O176 C169 1.185 . S
O176 Zn172 2.086 1_455 S
C177 O173 1.278 . S
C177 O178 1.211 . S
O178 C177 1.211 . S
C179 O171 1.284 . S
C179 O180 1.273 . S
O180 C179 1.273 . S
O181 Zn172 1.977 . S
O181 C174 1.267 . S
C182 O183 1.160 . S
C182 O189 1.185 . S
O183 C182 1.160 . S
O184 Zn185 1.899 . S
O184 C192 1.284 . S
Zn185 O184 1.899 . S
Zn185 O186 2.032 . S
Zn185 O189 2.086 . S
Zn185 O194 1.977 . S
O186 Zn185 2.032 . S
O186 C190 1.278 . S
C187 O188 1.203 . S
C187 O194 1.267 . S
O188 C187 1.203 . S
O189 C182 1.185 . S
O189 Zn185 2.086 . S
C190 O186 1.278 . S
C190 O191 1.211 . S
O191 C190 1.211 . S
C192 O184 1.284 . S
C192 O193 1.273 . S
O193 C192 1.273 . S
O194 Zn185 1.977 . S
O194 C187 1.267 . S
C195 O196 1.160 . S
C195 O202 1.185 . S
O196 C195 1.160 . S
O197 Zn198 1.899 . S
O197 C205 1.284 . S
Zn198 O197 1.899 . S
Zn198 O199 2.032 . S
Zn198 O202 2.086 . S
Zn198 O207 1.977 . S
O199 Zn198 2.032 . S
O199 C203 1.278 . S
C200 O201 1.203 . S
C200 O207 1.267 . S
O201 C200 1.203 . S
O202 C195 1.185 . S
O202 Zn198 2.086 . S
C203 O199 1.278 . S
C203 O204 1.211 . S
O204 C203 1.211 . S
C205 O197 1.284 . S
C205 O206 1.273 . S
O206 C205 1.273 . S
O207 Zn198 1.977 . S
O207 C200 1.267 . S
C208 O209 1.160 . S
C208 O215 1.185 . S
O209 C208 1.160 . S
O210 Zn211 1.899 . S
O210 C218 1.284 1_545 S
Zn211 O210 1.899 . S
Zn211 O212 2.032 . S
Zn211 O215 2.086 . S
Zn211 O220 1.977 . S
O212 Zn211 2.032 . S
O212 C216 1.278 . S
C213 O214 1.203 . S
C213 O220 1.267 . S
O214 C213 1.203 . S
O215 C208 1.185 . S
O215 Zn211 2.086 . S
C216 O212 1.278 . S
C216 O217 1.211 . S
O217 C216 1.211 . S
C218 O210 1.284 1_565 S
C218 O219 1.273 1_565 S
O219 C218 1.273 1_545 S
O220 Zn211 1.977 . S
O220 C213 1.267 . S
C221 O222 1.160 . S
C221 O228 1.185 . S
O222 C221 1.160 . S
O223 Zn224 1.899 . S
O223 C231 1.284 1_655 S
Zn224 O223 1.899 . S
Zn224 O225 2.032 . S
Zn224 O228 2.086 . S
Zn224 O233 1.977 . S
O225 Zn224 2.032 . S
O225 C229 1.278 . S
C226 O227 1.203 . S
C226 O233 1.267 . S
O227 C226 1.203 . S
O228 C221 1.185 . S
O228 Zn224 2.086 . S
C229 O225 1.278 . S
C229 O230 1.211 . S
O230 C229 1.211 . S
C231 O223 1.284 1_455 S
C231 O232 1.273 1_455 S
O232 C231 1.273 1_655 S
O233 Zn224 1.977 . S
O233 C226 1.267 . S
H234 C240 0.930 . S
H235 C243 0.931 . S
H236 C245 0.931 . S
H237 C247 0.930 . S
H238 C249 0.930 . S
H239 C251 0.931 . S
C240 H234 0.930 . S
C240 C241 1.380 . S
C240 C242 1.394 . S
C241 C240 1.380 . S
C241 C245 1.382 . S
C242 C240 1.394 . S
C242 C243 1.400 . S
C243 H235 0.931 . S
C243 C242 1.400 . S
C243 C244 1.375 . S
C244 C243 1.375 . S
C244 C245 1.415 . S
C244 C246 1.501 . S
C245 H236 0.931 . S
C245 C241 1.382 . S
C245 C244 1.415 . S
C246 C244 1.501 . S
C246 C247 1.384 . S
C246 C251 1.408 . S
C247 H237 0.930 . S
C247 C246 1.384 . S
C247 C248 1.389 . S
C248 C247 1.389 . S
C248 C249 1.405 . S
C249 H238 0.930 . S
C249 C248 1.405 . S
C249 C250 1.364 . S
C250 C249 1.364 . S
C250 C251 1.400 . S
C251 H239 0.931 . S
C251 C246 1.408 . S
C251 C250 1.400 . S
H252 C258 0.930 . S
H253 C261 0.931 . S
H254 C263 0.931 . S
H255 C265 0.930 . S
H256 C267 0.930 . S
H257 C269 0.931 . S
C258 H252 0.930 . S
C258 C259 1.380 . S
C258 C260 1.394 . S
C259 C258 1.380 . S
C259 C263 1.382 . S
C260 C258 1.394 . S
C260 C261 1.400 . S
C261 H253 0.931 . S
C261 C260 1.400 . S
C261 C262 1.375 . S
C262 C261 1.375 . S
C262 C263 1.415 . S
C262 C264 1.501 . S
C263 H254 0.931 . S
C263 C259 1.382 . S
C263 C262 1.415 . S
C264 C262 1.501 . S
C264 C265 1.384 . S
C264 C269 1.408 . S
C265 H255 0.930 . S
C265 C264 1.384 . S
C265 C266 1.389 . S
C266 C265 1.389 . S
C266 C267 1.405 . S
C267 H256 0.930 . S
C267 C266 1.405 . S
C267 C268 1.364 . S
C268 C267 1.364 . S
C268 C269 1.400 . S
C269 H257 0.931 . S
C269 C264 1.408 . S
C269 C268 1.400 . S
H270 C276 0.930 . S
H271 C279 0.931 . S
H272 C281 0.931 . S
H273 C283 0.930 . S
H274 C285 0.930 . S
H275 C287 0.931 . S
C276 H270 0.930 . S
C276 C277 1.380 . S
C276 C278 1.394 . S
C277 C276 1.380 . S
C277 C281 1.382 . S
C278 C276 1.394 . S
C278 C279 1.400 . S
C279 H271 0.931 . S
C279 C278 1.400 . S
C279 C280 1.375 . S
C280 C279 1.375 . S
C280 C281 1.415 . S
C280 C282 1.501 . S
C281 H272 0.931 . S
C281 C277 1.382 . S
C281 C280 1.415 . S
C282 C280 1.501 . S
C282 C283 1.384 . S
C282 C287 1.408 . S
C283 H273 0.930 . S
C283 C282 1.384 . S
C283 C284 1.389 . S
C284 C283 1.389 . S
C284 C285 1.405 . S
C285 H274 0.930 . S
C285 C284 1.405 . S
C285 C286 1.364 . S
C286 C285 1.364 . S
C286 C287 1.400 . S
C287 H275 0.931 . S
C287 C282 1.408 . S
C287 C286 1.400 . S
H288 C294 0.930 . S
H289 C297 0.931 . S
H290 C299 0.931 . S
H291 C301 0.930 . S
H292 C303 0.930 . S
H293 C305 0.931 . S
C294 H288 0.930 . S
C294 C295 1.380 . S
C294 C296 1.394 . S
C295 C294 1.380 . S
C295 C299 1.382 . S
C296 C294 1.394 . S
C296 C297 1.400 . S
C297 H289 0.931 . S
C297 C296 1.400 . S
C297 C298 1.375 . S
C298 C297 1.375 . S
C298 C299 1.415 . S
C298 C300 1.501 . S
C299 H290 0.931 . S
C299 C295 1.382 . S
C299 C298 1.415 . S
C300 C298 1.501 . S
C300 C301 1.384 . S
C300 C305 1.408 . S
C301 H291 0.930 . S
C301 C300 1.384 . S
C301 C302 1.389 . S
C302 C301 1.389 . S
C302 C303 1.405 . S
C303 H292 0.930 . S
C303 C302 1.405 . S
C303 C304 1.364 . S
C304 C303 1.364 . S
C304 C305 1.400 . S
C305 H293 0.931 . S
C305 C300 1.408 . S
C305 C304 1.400 . S
H306 C312 0.930 . S
H307 C315 0.931 . S
H308 C317 0.931 . S
H309 C319 0.930 . S
H310 C321 0.930 . S
H311 C323 0.931 . S
C312 H306 0.930 . S
C312 C313 1.380 . S
C312 C314 1.394 . S
C313 C312 1.380 . S
C313 C317 1.382 . S
C314 C312 1.394 . S
C314 C315 1.400 . S
C315 H307 0.931 . S
C315 C314 1.400 . S
C315 C316 1.375 . S
C316 C315 1.375 . S
C316 C317 1.415 . S
C316 C318 1.501 . S
C317 H308 0.931 . S
C317 C313 1.382 . S
C317 C316 1.415 . S
C318 C316 1.501 . S
C318 C319 1.384 . S
C318 C323 1.408 . S
C319 H309 0.930 . S
C319 C318 1.384 . S
C319 C320 1.389 . S
C320 C319 1.389 . S
C320 C321 1.405 . S
C321 H310 0.930 . S
C321 C320 1.405 . S
C321 C322 1.364 . S
C322 C321 1.364 . S
C322 C323 1.400 . S
C323 H311 0.931 . S
C323 C318 1.408 . S
C323 C322 1.400 . S
H324 C330 0.930 . S
H325 C333 0.931 . S
H326 C335 0.931 . S
H327 C337 0.930 . S
H328 C339 0.930 . S
H329 C341 0.931 . S
C330 H324 0.930 . S
C330 C331 1.380 . S
C330 C332 1.394 . S
C331 C330 1.380 . S
C331 C335 1.382 . S
C332 C330 1.394 . S
C332 C333 1.400 . S
C333 H325 0.931 . S
C333 C332 1.400 . S
C333 C334 1.375 . S
C334 C333 1.375 . S
C334 C335 1.415 . S
C334 C336 1.501 . S
C335 H326 0.931 . S
C335 C331 1.382 . S
C335 C334 1.415 . S
C336 C334 1.501 . S
C336 C337 1.384 . S
C336 C341 1.408 . S
C337 H327 0.930 . S
C337 C336 1.384 . S
C337 C338 1.389 . S
C338 C337 1.389 . S
C338 C339 1.405 . S
C339 H328 0.930 . S
C339 C338 1.405 . S
C339 C340 1.364 . S
C340 C339 1.364 . S
C340 C341 1.400 . S
C341 H329 0.931 . S
C341 C336 1.408 . S
C341 C340 1.400 . S
H342 C348 0.930 . S
H343 C351 0.931 . S
H344 C353 0.931 . S
H345 C355 0.930 . S
H346 C357 0.930 . S
H347 C359 0.931 . S
C348 H342 0.930 . S
C348 C349 1.380 . S
C348 C350 1.394 . S
C349 C348 1.380 . S
C349 C353 1.382 . S
C350 C348 1.394 . S
C350 C351 1.400 . S
C351 H343 0.931 . S
C351 C350 1.400 . S
C351 C352 1.375 . S
C352 C351 1.375 . S
C352 C353 1.415 . S
C352 C354 1.501 . S
C353 H344 0.931 . S
C353 C349 1.382 . S
C353 C352 1.415 . S
C354 C352 1.501 . S
C354 C355 1.384 . S
C354 C359 1.408 . S
C355 H345 0.930 . S
C355 C354 1.384 . S
C355 C356 1.389 . S
C356 C355 1.389 . S
C356 C357 1.405 . S
C357 H346 0.930 . S
C357 C356 1.405 . S
C357 C358 1.364 . S
C358 C357 1.364 . S
C358 C359 1.400 . S
C359 H347 0.931 . S
C359 C354 1.408 . S
C359 C358 1.400 . S
H360 C366 0.930 . S
H361 C369 0.931 . S
H362 C371 0.931 . S
H363 C373 0.930 . S
H364 C375 0.930 . S
H365 C377 0.931 . S
C366 H360 0.930 . S
C366 C367 1.380 . S
C366 C368 1.394 . S
C367 C366 1.380 . S
C367 C371 1.382 . S
C368 C366 1.394 . S
C368 C369 1.400 . S
C369 H361 0.931 . S
C369 C368 1.400 . S
C369 C370 1.375 . S
C370 C369 1.375 . S
C370 C371 1.415 . S
C370 C372 1.501 . S
C371 H362 0.931 . S
C371 C367 1.382 . S
C371 C370 1.415 . S
C372 C370 1.501 . S
C372 C373 1.384 . S
C372 C377 1.408 . S
C373 H363 0.930 . S
C373 C372 1.384 . S
C373 C374 1.389 . S
C374 C373 1.389 . S
C374 C375 1.405 . S
C375 H364 0.930 . S
C375 C374 1.405 . S
C375 C376 1.364 . S
C376 C375 1.364 . S
C376 C377 1.400 . S
C377 H365 0.931 . S
C377 C372 1.408 . S
C377 C376 1.400 . S
H378 C384 0.930 . S
H379 C387 0.931 . S
H380 C389 0.931 . S
H381 C391 0.930 . S
H382 C393 0.930 . S
H383 C395 0.931 . S
C384 H378 0.930 . S
C384 C385 1.380 . S
C384 C386 1.394 . S
C385 C384 1.380 . S
C385 C389 1.382 . S
C386 C384 1.394 . S
C386 C387 1.400 . S
C387 H379 0.931 . S
C387 C386 1.400 . S
C387 C388 1.375 . S
C388 C387 1.375 . S
C388 C389 1.415 . S
C388 C390 1.501 . S
C389 H380 0.931 . S
C389 C385 1.382 . S
C389 C388 1.415 . S
C390 C388 1.501 . S
C390 C391 1.384 . S
C390 C395 1.408 . S
C391 H381 0.930 . S
C391 C390 1.384 . S
C391 C392 1.389 . S
C392 C391 1.389 . S
C392 C393 1.405 . S
C393 H382 0.930 . S
C393 C392 1.405 . S
C393 C394 1.364 . S
C394 C393 1.364 . S
C394 C395 1.400 . S
C395 H383 0.931 . S
C395 C390 1.408 . S
C395 C394 1.400 . S
H396 C402 0.953 1_655 S
H397 C405 0.931 . S
H398 C407 0.931 . S
H399 C409 0.930 . S
H400 C411 0.945 . S
H401 C413 0.937 1_655 S
C402 H396 0.953 1_455 S
C402 C403 1.374 1_455 S
C402 C404 1.393 . S
C403 C402 1.374 1_655 S
C403 C407 1.382 . S
C404 C402 1.393 . S
C404 C405 1.400 . S
C405 H397 0.931 . S
C405 C404 1.400 . S
C405 C406 1.375 . S
C406 C405 1.375 . S
C406 C407 1.415 1_455 S
C406 C408 1.501 . S
C407 H398 0.931 . S
C407 C403 1.382 . S
C407 C406 1.415 1_655 S
C408 C406 1.501 . S
C408 C409 1.384 . S
C408 C413 1.414 . S
C409 H399 0.930 . S
C409 C408 1.384 . S
C409 C410 1.424 . S
C410 C409 1.424 . S
C410 C411 1.400 . S
C411 H400 0.945 . S
C411 C410 1.400 . S
C411 C412 1.374 1_455 S
C412 C411 1.374 1_655 S
C412 C413 1.393 1_655 S
C413 H401 0.937 1_455 S
C413 C408 1.414 . S
C413 C412 1.393 1_455 S
H414 C420 0.930 . S
H415 C423 0.931 . S
H416 C425 0.931 . S
H417 C427 0.930 . S
H418 C429 0.930 . S
H419 C431 0.931 . S
C420 H414 0.930 . S
C420 C421 1.380 . S
C420 C422 1.394 . S
C421 C420 1.380 . S
C421 C425 1.382 . S
C422 C420 1.394 . S
C422 C423 1.400 . S
C423 H415 0.931 . S
C423 C422 1.400 . S
C423 C424 1.375 . S
C424 C423 1.375 . S
C424 C425 1.415 . S
C424 C426 1.501 . S
C425 H416 0.931 . S
C425 C421 1.382 . S
C425 C424 1.415 . S
C426 C424 1.501 . S
C426 C427 1.384 . S
C426 C431 1.408 . S
C427 H417 0.930 . S
C427 C426 1.384 . S
C427 C428 1.389 . S
C428 C427 1.389 . S
C428 C429 1.405 . S
C429 H418 0.930 . S
C429 C428 1.405 . S
C429 C430 1.364 . S
C430 C429 1.364 . S
C430 C431 1.400 . S
C431 H419 0.931 . S
C431 C426 1.408 . S
C431 C430 1.400 . S
H432 C438 0.967 . S
H433 C441 0.931 . S
H434 C443 0.931 . S
H435 C445 0.930 . S
H436 C447 0.930 . S
H437 C449 0.919 . S
C438 H432 0.967 . S
C438 C439 1.374 . S
C438 C440 1.367 1_545 S
C439 C438 1.374 . S
C439 C443 1.382 . S
C440 C438 1.367 1_565 S
C440 C441 1.400 . S
C441 H433 0.931 . S
C441 C440 1.400 . S
C441 C442 1.375 . S
C442 C441 1.375 . S
C442 C443 1.415 1_565 S
C442 C444 1.501 . S
C443 H434 0.931 . S
C443 C439 1.382 . S
C443 C442 1.415 1_545 S
C444 C442 1.501 . S
C444 C445 1.384 . S
C444 C449 1.390 . S
C445 H435 0.930 . S
C445 C444 1.384 . S
C445 C446 1.389 . S
C446 C445 1.389 . S
C446 C447 1.405 . S
C447 H436 0.930 . S
C447 C446 1.405 . S
C447 C448 1.388 . S
C448 C447 1.388 . S
C448 C449 1.399 . S
C449 H437 0.919 . S
C449 C444 1.390 . S
C449 C448 1.399 . S
H450 C456 0.966 . S
H451 C459 0.931 . S
H452 C461 0.924 . S
H453 C463 0.930 . S
H454 C465 0.946 . S
H455 C467 0.931 . S
C456 H450 0.966 . S
C456 C457 1.382 . S
C456 C458 1.415 1_545 S
C457 C456 1.382 . S
C457 C461 1.393 1_545 S
C458 C456 1.415 1_565 S
C458 C459 1.366 . S
C459 H451 0.931 . S
C459 C458 1.366 . S
C459 C460 1.375 . S
C460 C459 1.375 . S
C460 C461 1.408 . S
C460 C462 1.501 . S
C461 H452 0.924 . S
C461 C457 1.393 1_565 S
C461 C460 1.408 . S
C462 C460 1.501 . S
C462 C463 1.384 . S
C462 C467 1.408 1_565 S
C463 H453 0.930 . S
C463 C462 1.384 . S
C463 C464 1.389 . S
C464 C463 1.389 . S
C464 C465 1.420 . S
C465 H454 0.946 . S
C465 C464 1.420 . S
C465 C466 1.368 1_565 S
C466 C465 1.368 1_545 S
C466 C467 1.400 . S
C467 H455 0.931 . S
C467 C462 1.408 1_545 S
C467 C466 1.400 . S
H468 C474 0.930 . S
H469 C477 0.931 . S
H470 C479 0.928 1_655 S
H471 C481 0.930 . S
H472 C483 0.930 . S
H473 C485 0.931 . S
C474 H468 0.930 . S
C474 C475 1.399 . S
C474 C476 1.397 1_655 S
C475 C474 1.399 . S
C475 C479 1.350 1_655 S
C476 C474 1.397 1_455 S
C476 C477 1.394 . S
C477 H469 0.931 . S
C477 C476 1.394 . S
C477 C478 1.355 . S
C478 C477 1.355 . S
C478 C479 1.388 . S
C478 C480 1.552 . S
C479 H470 0.928 1_455 S
C479 C475 1.350 1_455 S
C479 C478 1.388 . S
C480 C478 1.552 . S
C480 C481 1.384 . S
C480 C485 1.408 1_455 S
C481 H471 0.930 . S
C481 C480 1.384 . S
C481 C482 1.389 . S
C482 C481 1.389 . S
C482 C483 1.405 . S
C483 H472 0.930 . S
C483 C482 1.405 . S
C483 C484 1.364 1_455 S
C484 C483 1.364 1_655 S
C484 C485 1.400 . S
C485 H473 0.931 . S
C485 C480 1.408 1_655 S
C485 C484 1.400 . S
H486 C492 0.930 . S
H487 C495 0.931 . S
H488 C497 0.931 . S
H489 C499 0.930 . S
H490 C501 0.930 . S
H491 C503 0.931 . S
C492 H486 0.930 . S
C492 C493 1.380 . S
C492 C494 1.394 . S
C493 C492 1.380 . S
C493 C497 1.382 . S
C494 C492 1.394 . S
C494 C495 1.400 . S
C495 H487 0.931 . S
C495 C494 1.400 . S
C495 C496 1.375 . S
C496 C495 1.375 . S
C496 C497 1.415 . S
C496 C498 1.501 . S
C497 H488 0.931 . S
C497 C493 1.382 . S
C497 C496 1.415 . S
C498 C496 1.501 . S
C498 C499 1.384 . S
C498 C503 1.408 . S
C499 H489 0.930 . S
C499 C498 1.384 . S
C499 C500 1.389 . S
C500 C499 1.389 . S
C500 C501 1.405 . S
C501 H490 0.930 . S
C501 C500 1.405 . S
C501 C502 1.364 . S
C502 C501 1.364 . S
C502 C503 1.400 . S
C503 H491 0.931 . S
C503 C498 1.408 . S
C503 C502 1.400 . S
H504 C510 0.930 . S
H505 C513 0.931 . S
H506 C515 0.931 . S
H507 C517 0.930 . S
H508 C519 0.930 . S
H509 C521 0.931 . S
C510 H504 0.930 . S
C510 C511 1.380 . S
C510 C512 1.394 . S
C511 C510 1.380 . S
C511 C515 1.382 . S
C512 C510 1.394 . S
C512 C513 1.400 . S
C513 H505 0.931 . S
C513 C512 1.400 . S
C513 C514 1.375 . S
C514 C513 1.375 . S
C514 C515 1.415 . S
C514 C516 1.501 . S
C515 H506 0.931 . S
C515 C511 1.382 . S
C515 C514 1.415 . S
C516 C514 1.501 . S
C516 C517 1.384 . S
C516 C521 1.408 . S
C517 H507 0.930 . S
C517 C516 1.384 . S
C517 C518 1.389 . S
C518 C517 1.389 . S
C518 C519 1.405 . S
C519 H508 0.930 . S
C519 C518 1.405 . S
C519 C520 1.364 . S
C520 C519 1.364 . S
C520 C521 1.400 . S
C521 H509 0.931 . S
C521 C516 1.408 . S
C521 C520 1.400 . S
H522 C528 0.930 . S
H523 C531 0.931 . S
H524 C533 0.931 . S
H525 C535 0.930 . S
H526 C537 0.930 . S
H527 C539 0.931 . S
C528 H522 0.930 . S
C528 C529 1.380 . S
C528 C530 1.394 . S
C529 C528 1.380 . S
C529 C533 1.382 . S
C530 C528 1.394 . S
C530 C531 1.400 . S
C531 H523 0.931 . S
C531 C530 1.400 . S
C531 C532 1.375 . S
C532 C531 1.375 . S
C532 C533 1.415 . S
C532 C534 1.501 . S
C533 H524 0.931 . S
C533 C529 1.382 . S
C533 C532 1.415 . S
C534 C532 1.501 . S
C534 C535 1.384 . S
C534 C539 1.408 . S
C535 H525 0.930 . S
C535 C534 1.384 . S
C535 C536 1.389 . S
C536 C535 1.389 . S
C536 C537 1.405 . S
C537 H526 0.930 . S
C537 C536 1.405 . S
C537 C538 1.364 . S
C538 C537 1.364 . S
C538 C539 1.400 . S
C539 H527 0.931 . S
C539 C534 1.408 . S
C539 C538 1.400 . S
H540 C546 0.930 . S
H541 C549 0.931 . S
H542 C551 0.931 . S
H543 C553 0.930 . S
H544 C555 0.930 . S
H545 C557 0.931 . S
C546 H540 0.930 . S
C546 C547 1.380 . S
C546 C548 1.394 . S
C547 C546 1.380 . S
C547 C551 1.382 . S
C548 C546 1.394 . S
C548 C549 1.400 . S
C549 H541 0.931 . S
C549 C548 1.400 . S
C549 C550 1.375 . S
C550 C549 1.375 . S
C550 C551 1.415 . S
C550 C552 1.501 . S
C551 H542 0.931 . S
C551 C547 1.382 . S
C551 C550 1.415 . S
C552 C550 1.501 . S
C552 C553 1.384 . S
C552 C557 1.408 . S
C553 H543 0.930 . S
C553 C552 1.384 . S
C553 C554 1.389 . S
C554 C553 1.389 . S
C554 C555 1.405 . S
C555 H544 0.930 . S
C555 C554 1.405 . S
C555 C556 1.364 . S
C556 C555 1.364 . S
C556 C557 1.400 . S
C557 H545 0.931 . S
C557 C552 1.408 . S
C557 C556 1.400 . S
H558 C576 0.951 . S
H559 C578 0.951 . S
H560 C580 0.950 . S
H561 C581 0.950 . S
H562 C583 0.950 . S
H563 C586 0.950 . S
H564 C587 0.950 . S
H565 C589 0.950 . S
H566 C590 0.950 . S
H567 C591 0.951 . S
H568 C593 0.951 . S
H569 C595 0.950 . S
H570 C596 0.950 . S
H571 C598 0.950 . S
H572 C601 0.950 . S
H573 C602 0.950 . S
H574 C604 0.950 . S
H575 C605 0.950 . S
C576 H558 0.951 . S
C576 C577 1.366 1_455 S
C576 C578 1.388 . S
C577 C576 1.366 1_655 S
C577 C581 1.385 . S
C578 H559 0.951 . S
C578 C576 1.388 . S
C578 C579 1.366 1_455 S
C579 C578 1.366 1_655 S
C579 C580 1.414 . S
C579 C582 1.499 . S
C580 H560 0.950 . S
C580 C579 1.414 . S
C580 C581 1.374 . S
C581 H561 0.950 . S
C581 C577 1.385 . S
C581 C580 1.374 . S
C582 C579 1.499 . S
C582 C583 1.373 . S
C582 C584 1.389 1_655 S
C583 H562 0.950 . S
C583 C582 1.373 . S
C583 C599 1.377 . S
C584 C582 1.389 1_455 S
C584 C585 1.524 . S
C584 C598 1.377 . S
C585 C584 1.524 . S
C585 C586 1.397 . S
C585 C590 1.363 . S
C586 H563 0.950 . S
C586 C585 1.397 . S
C586 C587 1.334 . S
C587 H564 0.950 . S
C587 C586 1.334 . S
C587 C588 1.287 . S
C588 C587 1.287 . S
C588 C589 1.524 . S
C588 H607 0.913 . S
C589 H565 0.950 . S
C589 C588 1.524 . S
C589 C590 1.415 . S
C590 H566 0.950 . S
C590 C585 1.363 . S
C590 C589 1.415 . S
C591 H567 0.951 . S
C591 C592 1.366 . S
C591 C593 1.388 . S
C592 C591 1.366 . S
C592 C596 1.385 1_655 S
C593 H568 0.951 . S
C593 C591 1.388 . S
C593 C594 1.366 . S
C594 C593 1.366 . S
C594 C595 1.414 1_655 S
C594 C597 1.499 . S
C595 H569 0.950 . S
C595 C594 1.414 1_455 S
C595 C596 1.374 . S
C596 H570 0.950 . S
C596 C592 1.385 1_455 S
C596 C595 1.374 . S
C597 C594 1.499 . S
C597 C598 1.373 1_655 S
C597 C599 1.389 . S
C598 H571 0.950 . S
C598 C584 1.377 . S
C598 C597 1.373 1_455 S
C599 C583 1.377 . S
C599 C597 1.389 . S
C599 C600 1.524 . S
C600 C599 1.524 . S
C600 C601 1.397 . S
C600 C605 1.363 . S
C601 H572 0.950 . S
C601 C600 1.397 . S
C601 C602 1.334 . S
C602 H573 0.950 . S
C602 C601 1.334 . S
C602 C603 1.287 . S
C603 C602 1.287 . S
C603 C604 1.524 . S
C603 H606 0.999 . S
C604 H574 0.950 . S
C604 C603 1.524 . S
C604 C605 1.415 . S
C605 H575 0.950 . S
C605 C600 1.363 . S
C605 C604 1.415 . S
H606 C603 0.999 . S
H607 C588 0.913 . S
H608 C626 0.951 . S
H609 C628 0.951 . S
H610 C630 0.950 . S
H611 C631 0.950 . S
H612 C633 0.950 . S
H613 C636 0.950 . S
H614 C637 0.950 . S
H615 C639 0.950 . S
H616 C640 0.950 . S
H617 C641 0.951 . S
H618 C643 0.951 . S
H619 C645 0.950 . S
H620 C646 0.950 . S
H621 C648 0.950 . S
H622 C651 0.950 . S
H623 C652 0.950 . S
H624 C654 0.950 . S
H625 C655 0.950 . S
C626 H608 0.951 . S
C626 C627 1.366 . S
C626 C628 1.388 . S
C627 C626 1.366 . S
C627 C631 1.385 . S
C628 H609 0.951 . S
C628 C626 1.388 . S
C628 C629 1.366 . S
C629 C628 1.366 . S
C629 C630 1.414 . S
C629 C632 1.499 . S
C630 H610 0.950 . S
C630 C629 1.414 . S
C630 C631 1.374 . S
C631 H611 0.950 . S
C631 C627 1.385 . S
C631 C630 1.374 . S
C632 C629 1.499 . S
C632 C633 1.373 . S
C632 C634 1.389 . S
C633 H612 0.950 . S
C633 C632 1.373 . S
C633 C649 1.377 . S
C634 C632 1.389 . S
C634 C635 1.524 . S
C634 C648 1.377 . S
C635 C634 1.524 . S
C635 C636 1.397 . S
C635 C640 1.363 . S
C636 H613 0.950 . S
C636 C635 1.397 . S
C636 C637 1.334 . S
C637 H614 0.950 . S
C637 C636 1.334 . S
C637 C638 1.287 . S
C638 C637 1.287 . S
C638 C639 1.524 . S
C638 H657 0.913 . S
C639 H615 0.950 . S
C639 C638 1.524 . S
C639 C640 1.415 . S
C640 H616 0.950 . S
C640 C635 1.363 . S
C640 C639 1.415 . S
C641 H617 0.951 . S
C641 C642 1.366 . S
C641 C643 1.388 . S
C642 C641 1.366 . S
C642 C646 1.385 . S
C643 H618 0.951 . S
C643 C641 1.388 . S
C643 C644 1.366 . S
C644 C643 1.366 . S
C644 C645 1.414 . S
C644 C647 1.499 . S
C645 H619 0.950 . S
C645 C644 1.414 . S
C645 C646 1.374 . S
C646 H620 0.950 . S
C646 C642 1.385 . S
C646 C645 1.374 . S
C647 C644 1.499 . S
C647 C648 1.373 . S
C647 C649 1.389 . S
C648 H621 0.950 . S
C648 C634 1.377 . S
C648 C647 1.373 . S
C649 C633 1.377 . S
C649 C647 1.389 . S
C649 C650 1.524 . S
C650 C649 1.524 . S
C650 C651 1.397 . S
C650 C655 1.363 . S
C651 H622 0.950 . S
C651 C650 1.397 . S
C651 C652 1.334 . S
C652 H623 0.950 . S
C652 C651 1.334 . S
C652 C653 1.287 . S
C653 C652 1.287 . S
C653 C654 1.524 . S
C653 H656 0.999 . S
C654 H624 0.950 . S
C654 C653 1.524 . S
C654 C655 1.415 . S
C655 H625 0.950 . S
C655 C650 1.363 . S
C655 C654 1.415 . S
H656 C653 0.999 . S
H657 C638 0.913 . S
H658 C676 0.951 . S
H659 C678 0.951 . S
H660 C680 0.950 . S
H661 C681 0.950 . S
H662 C683 0.950 . S
H663 C686 0.950 . S
H664 C687 0.950 . S
H665 C689 0.950 . S
H666 C690 0.950 . S
H667 C691 0.947 1_565 S
H668 C693 0.951 . S
H669 C695 0.950 . S
H670 C696 0.950 . S
H671 C698 0.917 1_565 S
H672 C701 0.950 . S
H673 C702 0.950 . S
H674 C704 0.950 . S
H675 C705 0.950 . S
C676 H658 0.951 . S
C676 C677 1.366 . S
C676 C678 1.388 . S
C677 C676 1.366 . S
C677 C681 1.385 . S
C678 H659 0.951 . S
C678 C676 1.388 . S
C678 C679 1.366 . S
C679 C678 1.366 . S
C679 C680 1.414 . S
C679 C682 1.499 . S
C680 H660 0.950 . S
C680 C679 1.414 . S
C680 C681 1.374 . S
C681 H661 0.950 . S
C681 C677 1.385 . S
C681 C680 1.374 . S
C682 C679 1.499 . S
C682 C683 1.373 . S
C682 C684 1.406 . S
C683 H662 0.950 . S
C683 C682 1.373 . S
C683 C699 1.377 . S
C684 C682 1.406 . S
C684 C685 1.515 1_545 S
C684 C698 1.386 . S
C685 C684 1.515 1_565 S
C685 C686 1.397 . S
C685 C690 1.363 . S
C686 H663 0.950 . S
C686 C685 1.397 . S
C686 C687 1.334 . S
C687 H664 0.950 . S
C687 C686 1.334 . S
C687 C688 1.287 . S
C688 C687 1.287 . S
C688 C689 1.524 . S
C688 H707 0.913 . S
C689 H665 0.950 . S
C689 C688 1.524 . S
C689 C690 1.415 . S
C690 H666 0.950 . S
C690 C685 1.363 . S
C690 C689 1.415 . S
C691 H667 0.947 1_545 S
C691 C692 1.366 . S
C691 C693 1.388 . S
C692 C691 1.366 . S
C692 C696 1.385 . S
C693 H668 0.951 . S
C693 C691 1.388 . S
C693 C694 1.366 . S
C694 C693 1.366 . S
C694 C695 1.414 . S
C694 C697 1.499 . S
C695 H669 0.950 . S
C695 C694 1.414 . S
C695 C696 1.374 . S
C696 H670 0.950 . S
C696 C692 1.385 . S
C696 C695 1.374 . S
C697 C694 1.499 . S
C697 C698 1.390 . S
C697 C699 1.389 . S
C698 H671 0.917 1_545 S
C698 C684 1.386 . S
C698 C697 1.390 . S
C699 C683 1.377 . S
C699 C697 1.389 . S
C699 C700 1.524 . S
C700 C699 1.524 . S
C700 C701 1.397 . S
C700 C705 1.363 . S
C701 H672 0.950 . S
C701 C700 1.397 . S
C701 C702 1.334 . S
C702 H673 0.950 . S
C702 C701 1.334 . S
C702 C703 1.287 . S
C703 C702 1.287 . S
C703 C704 1.524 . S
C703 H706 0.999 . S
C704 H674 0.950 . S
C704 C703 1.524 . S
C704 C705 1.415 . S
C705 H675 0.950 . S
C705 C700 1.363 . S
C705 C704 1.415 . S
H706 C703 0.999 . S
H707 C688 0.913 . S
H708 C726 0.951 . S
H709 C728 0.951 . S
H710 C730 0.950 . S
H711 C731 0.950 . S
H712 C733 0.950 . S
H713 C736 0.950 . S
H714 C737 0.950 . S
H715 C739 0.950 . S
H716 C740 0.950 . S
H717 C741 0.951 . S
H718 C743 0.951 . S
H719 C745 0.950 . S
H720 C746 0.950 . S
H721 C748 0.950 . S
H722 C751 0.950 . S
H723 C752 0.950 . S
H724 C754 0.950 . S
H725 C755 0.950 . S
C726 H708 0.951 . S
C726 C727 1.364 1_545 S
C726 C728 1.388 . S
C727 C726 1.364 1_565 S
C727 C731 1.385 . S
C728 H709 0.951 . S
C728 C726 1.388 . S
C728 C729 1.365 1_545 S
C729 C728 1.365 1_565 S
C729 C730 1.418 . S
C729 C732 1.483 . S
C730 H710 0.950 . S
C730 C729 1.418 . S
C730 C731 1.374 . S
C731 H711 0.950 . S
C731 C727 1.385 . S
C731 C730 1.374 . S
C732 C729 1.483 . S
C732 C733 1.394 . S
C732 C734 1.384 1_565 S
C733 H712 0.950 . S
C733 C732 1.394 . S
C733 C749 1.377 . S
C734 C732 1.384 1_545 S
C734 C735 1.524 . S
C734 C748 1.377 . S
C735 C734 1.524 . S
C735 C736 1.397 . S
C735 C740 1.363 . S
C736 H713 0.950 . S
C736 C735 1.397 . S
C736 C737 1.334 . S
C737 H714 0.950 . S
C737 C736 1.334 . S
C737 C738 1.287 . S
C738 C737 1.287 . S
C738 C739 1.524 . S
C738 H757 0.913 . S
C739 H715 0.950 . S
C739 C738 1.524 . S
C739 C740 1.415 . S
C740 H716 0.950 . S
C740 C735 1.363 . S
C740 C739 1.415 . S
C741 H717 0.951 . S
C741 C742 1.366 . S
C741 C743 1.388 . S
C742 C741 1.366 . S
C742 C746 1.385 . S
C743 H718 0.951 . S
C743 C741 1.388 . S
C743 C744 1.366 . S
C744 C743 1.366 . S
C744 C745 1.414 . S
C744 C747 1.499 . S
C745 H719 0.950 . S
C745 C744 1.414 . S
C745 C746 1.374 . S
C746 H720 0.950 . S
C746 C742 1.385 . S
C746 C745 1.374 . S
C747 C744 1.499 . S
C747 C748 1.373 1_565 S
C747 C749 1.389 . S
C748 H721 0.950 . S
C748 C734 1.377 . S
C748 C747 1.373 1_545 S
C749 C733 1.377 . S
C749 C747 1.389 . S
C749 C750 1.524 . S
C750 C749 1.524 . S
C750 C751 1.397 . S
C750 C755 1.363 . S
C751 H722 0.950 . S
C751 C750 1.397 . S
C751 C752 1.334 . S
C752 H723 0.950 . S
C752 C751 1.334 . S
C752 C753 1.287 . S
C753 C752 1.287 . S
C753 C754 1.524 . S
C753 H756 0.999 . S
C754 H724 0.950 . S
C754 C753 1.524 . S
C754 C755 1.415 . S
C755 H725 0.950 . S
C755 C750 1.363 . S
C755 C754 1.415 . S
H756 C753 0.999 . S
H757 C738 0.913 . S
H758 C776 0.951 . S
H759 C778 0.951 . S
H760 C780 0.950 . S
H761 C781 0.950 . S
H762 C783 0.947 . S
H763 C786 0.950 1_655 S
H764 C787 0.950 . S
H765 C789 0.950 . S
H766 C790 0.950 . S
H767 C791 0.951 . S
H768 C793 0.951 . S
H769 C795 0.950 . S
H770 C796 0.950 . S
H771 C798 0.950 . S
H772 C801 0.950 . S
H773 C802 0.975 . S
H774 C804 0.950 . S
H775 C805 0.950 . S
C776 H758 0.951 . S
C776 C777 1.366 . S
C776 C778 1.388 . S
C777 C776 1.366 . S
C777 C781 1.385 1_455 S
C778 H759 0.951 . S
C778 C776 1.388 . S
C778 C779 1.366 . S
C779 C778 1.366 . S
C779 C780 1.414 1_455 S
C779 C782 1.499 . S
C780 H760 0.950 . S
C780 C779 1.414 1_655 S
C780 C781 1.374 . S
C781 H761 0.950 . S
C781 C777 1.385 1_655 S
C781 C780 1.374 . S
C782 C779 1.499 . S
C782 C783 1.364 1_455 S
C782 C784 1.389 . S
C783 H762 0.947 . S
C783 C782 1.364 1_655 S
C783 C799 1.387 1_655 S
C784 C782 1.389 . S
C784 C785 1.524 . S
C784 C798 1.377 . S
C785 C784 1.524 . S
C785 C786 1.397 . S
C785 C790 1.363 . S
C786 H763 0.950 1_455 S
C786 C785 1.397 . S
C786 C787 1.334 . S
C787 H764 0.950 . S
C787 C786 1.334 . S
C787 C788 1.287 . S
C788 C787 1.287 . S
C788 C789 1.524 . S
C788 H807 0.913 . S
C789 H765 0.950 . S
C789 C788 1.524 . S
C789 C790 1.415 . S
C790 H766 0.950 . S
C790 C785 1.363 . S
C790 C789 1.415 . S
C791 H767 0.951 . S
C791 C792 1.366 1_655 S
C791 C793 1.388 . S
C792 C791 1.366 1_455 S
C792 C796 1.385 . S
C793 H768 0.951 . S
C793 C791 1.388 . S
C793 C794 1.366 1_655 S
C794 C793 1.366 1_455 S
C794 C795 1.414 . S
C794 C797 1.499 . S
C795 H769 0.950 . S
C795 C794 1.414 . S
C795 C796 1.374 . S
C796 H770 0.950 . S
C796 C792 1.385 . S
C796 C795 1.374 . S
C797 C794 1.499 . S
C797 C798 1.373 . S
C797 C799 1.390 . S
C798 H771 0.950 . S
C798 C784 1.377 . S
C798 C797 1.373 . S
C799 C783 1.387 1_455 S
C799 C797 1.390 . S
C799 C800 1.526 1_455 S
C800 C799 1.526 1_655 S
C800 C801 1.397 1_655 S
C800 C805 1.363 . S
C801 H772 0.950 . S
C801 C800 1.397 1_455 S
C801 C802 1.340 . S
C802 H773 0.975 . S
C802 C801 1.340 . S
C802 C803 1.259 1_455 S
C803 C802 1.259 1_655 S
C803 C804 1.524 . S
C803 H806 0.999 . S
C804 H774 0.950 . S
C804 C803 1.524 . S
C804 C805 1.415 . S
C805 H775 0.950 . S
C805 C800 1.363 . S
C805 C804 1.415 . S
H806 C803 0.999 . S
H807 C788 0.913 . S
H808 C826 0.951 . S
H809 C828 0.951 . S
H810 C830 0.950 . S
H811 C831 0.950 . S
H812 C833 0.950 . S
H813 C836 0.950 . S
H814 C837 0.950 . S
H815 C839 0.950 . S
H816 C840 0.950 . S
H817 C841 0.951 . S
H818 C843 0.951 . S
H819 C845 0.950 . S
H820 C846 0.950 . S
H821 C848 0.950 . S
H822 C851 0.950 . S
H823 C852 0.950 . S
H824 C854 0.950 . S
H825 C855 0.950 . S
C826 H808 0.951 . S
C826 C827 1.366 . S
C826 C828 1.388 . S
C827 C826 1.366 . S
C827 C831 1.385 . S
C828 H809 0.951 . S
C828 C826 1.388 . S
C828 C829 1.366 . S
C829 C828 1.366 . S
C829 C830 1.414 . S
C829 C832 1.499 . S
C830 H810 0.950 . S
C830 C829 1.414 . S
C830 C831 1.374 . S
C831 H811 0.950 . S
C831 C827 1.385 . S
C831 C830 1.374 . S
C832 C829 1.499 . S
C832 C833 1.373 . S
C832 C834 1.389 . S
C833 H812 0.950 . S
C833 C832 1.373 . S
C833 C849 1.377 . S
C834 C832 1.389 . S
C834 C835 1.524 . S
C834 C848 1.377 . S
C835 C834 1.524 . S
C835 C836 1.397 . S
C835 C840 1.363 . S
C836 H813 0.950 . S
C836 C835 1.397 . S
C836 C837 1.334 . S
C837 H814 0.950 . S
C837 C836 1.334 . S
C837 C838 1.287 . S
C838 C837 1.287 . S
C838 C839 1.524 . S
C838 H857 0.913 . S
C839 H815 0.950 . S
C839 C838 1.524 . S
C839 C840 1.415 . S
C840 H816 0.950 . S
C840 C835 1.363 . S
C840 C839 1.415 . S
C841 H817 0.951 . S
C841 C842 1.366 . S
C841 C843 1.388 . S
C842 C841 1.366 . S
C842 C846 1.385 . S
C843 H818 0.951 . S
C843 C841 1.388 . S
C843 C844 1.366 . S
C844 C843 1.366 . S
C844 C845 1.414 . S
C844 C847 1.499 . S
C845 H819 0.950 . S
C845 C844 1.414 . S
C845 C846 1.374 . S
C846 H820 0.950 . S
C846 C842 1.385 . S
C846 C845 1.374 . S
C847 C844 1.499 . S
C847 C848 1.373 . S
C847 C849 1.389 . S
C848 H821 0.950 . S
C848 C834 1.377 . S
C848 C847 1.373 . S
C849 C833 1.377 . S
C849 C847 1.389 . S
C849 C850 1.524 . S
C850 C849 1.524 . S
C850 C851 1.397 . S
C850 C855 1.363 . S
C851 H822 0.950 . S
C851 C850 1.397 . S
C851 C852 1.334 . S
C852 H823 0.950 . S
C852 C851 1.334 . S
C852 C853 1.287 . S
C853 C852 1.287 . S
C853 C854 1.524 . S
C853 H856 0.999 . S
C854 H824 0.950 . S
C854 C853 1.524 . S
C854 C855 1.415 . S
C855 H825 0.950 . S
C855 C850 1.363 . S
C855 C854 1.415 . S
H856 C853 0.999 . S
H857 C838 0.913 . S
H858 C876 0.951 . S
H859 C878 0.951 . S
H860 C880 0.950 . S
H861 C881 0.969 . S
H862 C883 0.950 . S
H863 C886 0.950 . S
H864 C887 0.950 . S
H865 C889 0.950 . S
H866 C890 0.950 1_455 S
H867 C891 0.951 . S
H868 C893 0.951 . S
H869 C895 0.950 . S
H870 C896 0.950 . S
H871 C898 0.950 . S
H872 C901 0.950 . S
H873 C902 0.950 . S
H874 C904 0.950 . S
H875 C905 0.950 . S
C876 H858 0.951 . S
C876 C877 1.366 . S
C876 C878 1.388 . S
C877 C876 1.366 . S
C877 C881 1.393 1_455 S
C878 H859 0.951 . S
C878 C876 1.388 . S
C878 C879 1.366 . S
C879 C878 1.366 . S
C879 C880 1.414 1_455 S
C879 C882 1.499 . S
C880 H860 0.950 . S
C880 C879 1.414 1_655 S
C880 C881 1.352 . S
C881 H861 0.969 . S
C881 C877 1.393 1_655 S
C881 C880 1.352 . S
C882 C879 1.499 . S
C882 C883 1.373 . S
C882 C884 1.389 1_455 S
C883 H862 0.950 . S
C883 C882 1.373 . S
C883 C899 1.377 . S
C884 C882 1.389 1_655 S
C884 C885 1.524 . S
C884 C898 1.377 . S
C885 C884 1.524 . S
C885 C886 1.397 . S
C885 C890 1.363 . S
C886 H863 0.950 . S
C886 C885 1.397 . S
C886 C887 1.334 . S
C887 H864 0.950 . S
C887 C886 1.334 . S
C887 C888 1.287 . S
C888 C887 1.287 . S
C888 C889 1.524 . S
C888 H907 0.913 . S
C889 H865 0.950 . S
C889 C888 1.524 . S
C889 C890 1.415 . S
C890 H866 0.950 1_655 S
C890 C885 1.363 . S
C890 C889 1.415 . S
C891 H867 0.951 . S
C891 C892 1.371 . S
C891 C893 1.388 . S
C892 C891 1.371 . S
C892 C896 1.387 1_655 S
C893 H868 0.951 . S
C893 C891 1.388 . S
C893 C894 1.366 1_655 S
C894 C893 1.366 1_455 S
C894 C895 1.414 . S
C894 C897 1.499 . S
C895 H869 0.950 . S
C895 C894 1.414 . S
C895 C896 1.374 . S
C896 H870 0.950 . S
C896 C892 1.387 1_455 S
C896 C895 1.374 . S
C897 C894 1.499 . S
C897 C898 1.373 1_455 S
C897 C899 1.389 . S
C898 H871 0.950 . S
C898 C884 1.377 . S
C898 C897 1.373 1_655 S
C899 C883 1.377 . S
C899 C897 1.389 . S
C899 C900 1.524 . S
C900 C899 1.524 . S
C900 C901 1.397 . S
C900 C905 1.363 . S
C901 H872 0.950 . S
C901 C900 1.397 . S
C901 C902 1.334 . S
C902 H873 0.950 . S
C902 C901 1.334 . S
C902 C903 1.287 . S
C903 C902 1.287 . S
C903 C904 1.524 . S
C903 H906 0.999 . S
C904 H874 0.950 . S
C904 C903 1.524 . S
C904 C905 1.415 . S
C905 H875 0.950 . S
C905 C900 1.363 . S
C905 C904 1.415 . S
H906 C903 0.999 . S
H907 C888 0.913 . S
H908 C926 0.951 . S
H909 C928 0.951 . S
H910 C930 0.950 . S
H911 C931 0.950 . S
H912 C933 0.950 . S
H913 C936 0.950 . S
H914 C937 0.950 . S
H915 C939 0.950 . S
H916 C940 0.950 . S
H917 C941 0.951 . S
H918 C943 0.951 . S
H919 C945 0.950 . S
H920 C946 0.950 . S
H921 C948 0.950 . S
H922 C951 0.950 . S
H923 C952 0.950 . S
H924 C954 0.950 . S
H925 C955 0.950 . S
C926 H908 0.951 . S
C926 C927 1.366 . S
C926 C928 1.388 . S
C927 C926 1.366 . S
C927 C931 1.385 . S
C928 H909 0.951 . S
C928 C926 1.388 . S
C928 C929 1.366 . S
C929 C928 1.366 . S
C929 C930 1.414 . S
C929 C932 1.499 . S
C930 H910 0.950 . S
C930 C929 1.414 . S
C930 C931 1.374 . S
C931 H911 0.950 . S
C931 C927 1.385 . S
C931 C930 1.374 . S
C932 C929 1.499 . S
C932 C933 1.373 . S
C932 C934 1.389 . S
C933 H912 0.950 . S
C933 C932 1.373 . S
C933 C949 1.377 . S
C934 C932 1.389 . S
C934 C935 1.524 . S
C934 C948 1.377 . S
C935 C934 1.524 . S
C935 C936 1.397 . S
C935 C940 1.363 . S
C936 H913 0.950 . S
C936 C935 1.397 . S
C936 C937 1.334 . S
C937 H914 0.950 . S
C937 C936 1.334 . S
C937 C938 1.287 . S
C938 C937 1.287 . S
C938 C939 1.524 . S
C938 H957 0.913 . S
C939 H915 0.950 . S
C939 C938 1.524 . S
C939 C940 1.415 . S
C940 H916 0.950 . S
C940 C935 1.363 . S
C940 C939 1.415 . S
C941 H917 0.951 . S
C941 C942 1.366 . S
C941 C943 1.388 . S
C942 C941 1.366 . S
C942 C946 1.385 . S
C943 H918 0.951 . S
C943 C941 1.388 . S
C943 C944 1.366 . S
C944 C943 1.366 . S
C944 C945 1.414 . S
C944 C947 1.499 . S
C945 H919 0.950 . S
C945 C944 1.414 . S
C945 C946 1.374 . S
C946 H920 0.950 . S
C946 C942 1.385 . S
C946 C945 1.374 . S
C947 C944 1.499 . S
C947 C948 1.373 . S
C947 C949 1.389 . S
C948 H921 0.950 . S
C948 C934 1.377 . S
C948 C947 1.373 . S
C949 C933 1.377 . S
C949 C947 1.389 . S
C949 C950 1.524 . S
C950 C949 1.524 . S
C950 C951 1.397 . S
C950 C955 1.363 . S
C951 H922 0.950 . S
C951 C950 1.397 . S
C951 C952 1.334 . S
C952 H923 0.950 . S
C952 C951 1.334 . S
C952 C953 1.287 . S
C953 C952 1.287 . S
C953 C954 1.524 . S
C953 H956 0.999 . S
C954 H924 0.950 . S
C954 C953 1.524 . S
C954 C955 1.415 . S
C955 H925 0.950 . S
C955 C950 1.363 . S
C955 C954 1.415 . S
H956 C953 0.999 . S
H957 C938 0.913 . S
H958 C976 0.951 . S
H959 C978 0.951 . S
H960 C980 0.950 . S
H961 C981 0.950 . S
H962 C983 0.950 . S
H963 C986 0.950 . S
H964 C987 0.950 . S
H965 C989 0.950 . S
H966 C990 0.950 . S
H967 C991 1.004 . S
H968 C993 0.946 1_545 S
H969 C995 0.950 . S
H970 C996 0.950 . S
H971 C998 0.950 . S
H972 C1001 0.950 . S
H973 C1002 0.950 . S
H974 C1004 0.950 . S
H975 C1005 0.950 . S
C976 H958 0.951 . S
C976 C977 1.366 . S
C976 C978 1.388 . S
C977 C976 1.366 . S
C977 C981 1.385 . S
C978 H959 0.951 . S
C978 C976 1.388 . S
C978 C979 1.366 . S
C979 C978 1.366 . S
C979 C980 1.414 . S
C979 C982 1.499 . S
C980 H960 0.950 . S
C980 C979 1.414 . S
C980 C981 1.374 . S
C981 H961 0.950 . S
C981 C977 1.385 . S
C981 C980 1.374 . S
C982 C979 1.499 . S
C982 C983 1.373 . S
C982 C984 1.389 1_565 S
C983 H962 0.950 . S
C983 C982 1.373 . S
C983 C999 1.377 . S
C984 C982 1.389 1_545 S
C984 C985 1.524 . S
C984 C998 1.377 . S
C985 C984 1.524 . S
C985 C986 1.397 . S
C985 C990 1.363 . S
C986 H963 0.950 . S
C986 C985 1.397 . S
C986 C987 1.334 . S
C987 H964 0.950 . S
C987 C986 1.334 . S
C987 C988 1.287 . S
C988 C987 1.287 . S
C988 C989 1.524 . S
C988 H1007 0.913 . S
C989 H965 0.950 . S
C989 C988 1.524 . S
C989 C990 1.415 . S
C990 H966 0.950 . S
C990 C985 1.363 . S
C990 C989 1.415 . S
C991 H967 1.004 . S
C991 C992 1.360 1_545 S
C991 C993 1.352 1_545 S
C992 C991 1.360 1_565 S
C992 C996 1.387 . S
C993 H968 0.946 1_565 S
C993 C991 1.352 1_565 S
C993 C994 1.360 . S
C994 C993 1.360 . S
C994 C995 1.414 . S
C994 C997 1.499 . S
C995 H969 0.950 . S
C995 C994 1.414 . S
C995 C996 1.374 . S
C996 H970 0.950 . S
C996 C992 1.387 . S
C996 C995 1.374 . S
C997 C994 1.499 . S
C997 C998 1.373 1_565 S
C997 C999 1.389 . S
C998 H971 0.950 . S
C998 C984 1.377 . S
C998 C997 1.373 1_545 S
C999 C983 1.377 . S
C999 C997 1.389 . S
C999 C1000 1.524 . S
C1000 C999 1.524 . S
C1000 C1001 1.397 . S
C1000 C1005 1.363 . S
C1001 H972 0.950 . S
C1001 C1000 1.397 . S
C1001 C1002 1.334 . S
C1002 H973 0.950 . S
C1002 C1001 1.334 . S
C1002 C1003 1.287 . S
C1003 C1002 1.287 . S
C1003 C1004 1.524 . S
C1003 H1006 0.999 . S
C1004 H974 0.950 . S
C1004 C1003 1.524 . S
C1004 C1005 1.415 . S
C1005 H975 0.950 . S
C1005 C1000 1.363 . S
C1005 C1004 1.415 . S
H1006 C1003 0.999 . S
H1007 C988 0.913 . S
H1008 C1026 0.951 . S
H1009 C1028 0.951 . S
H1010 C1030 0.950 . S
H1011 C1031 0.950 . S
H1012 C1033 0.950 . S
H1013 C1036 0.950 . S
H1014 C1037 0.950 . S
H1015 C1039 0.950 . S
H1016 C1040 0.950 . S
H1017 C1041 0.951 . S
H1018 C1043 0.951 . S
H1019 C1045 0.929 1_565 S
H1020 C1046 0.958 . S
H1021 C1048 0.950 . S
H1022 C1051 0.950 . S
H1023 C1052 0.950 . S
H1024 C1054 0.950 . S
H1025 C1055 0.950 . S
C1026 H1008 0.951 . S
C1026 C1027 1.366 . S
C1026 C1028 1.388 . S
C1027 C1026 1.366 . S
C1027 C1031 1.385 . S
C1028 H1009 0.951 . S
C1028 C1026 1.388 . S
C1028 C1029 1.366 . S
C1029 C1028 1.366 . S
C1029 C1030 1.414 . S
C1029 C1032 1.499 . S
C1030 H1010 0.950 . S
C1030 C1029 1.414 . S
C1030 C1031 1.374 . S
C1031 H1011 0.950 . S
C1031 C1027 1.385 . S
C1031 C1030 1.374 . S
C1032 C1029 1.499 . S
C1032 C1033 1.373 . S
C1032 C1034 1.389 1_545 S
C1033 H1012 0.950 . S
C1033 C1032 1.373 . S
C1033 C1049 1.377 . S
C1034 C1032 1.389 1_565 S
C1034 C1035 1.524 . S
C1034 C1048 1.377 . S
C1035 C1034 1.524 . S
C1035 C1036 1.397 . S
C1035 C1040 1.363 . S
C1036 H1013 0.950 . S
C1036 C1035 1.397 . S
C1036 C1037 1.334 . S
C1037 H1014 0.950 . S
C1037 C1036 1.334 . S
C1037 C1038 1.287 . S
C1038 C1037 1.287 . S
C1038 C1039 1.524 . S
C1038 H1057 0.913 . S
C1039 H1015 0.950 . S
C1039 C1038 1.524 . S
C1039 C1040 1.415 . S
C1040 H1016 0.950 . S
C1040 C1035 1.363 . S
C1040 C1039 1.415 . S
C1041 H1017 0.951 . S
C1041 C1042 1.367 1_545 S
C1041 C1043 1.388 . S
C1042 C1041 1.367 1_565 S
C1042 C1046 1.360 . S
C1043 H1018 0.951 . S
C1043 C1041 1.388 . S
C1043 C1044 1.366 . S
C1044 C1043 1.366 . S
C1044 C1045 1.423 . S
C1044 C1047 1.499 . S
C1045 H1019 0.929 1_545 S
C1045 C1044 1.423 . S
C1045 C1046 1.403 1_545 S
C1046 H1020 0.958 . S
C1046 C1042 1.360 . S
C1046 C1045 1.403 1_565 S
C1047 C1044 1.499 . S
C1047 C1048 1.373 1_545 S
C1047 C1049 1.389 . S
C1048 H1021 0.950 . S
C1048 C1034 1.377 . S
C1048 C1047 1.373 1_565 S
C1049 C1033 1.377 . S
C1049 C1047 1.389 . S
C1049 C1050 1.524 . S
C1050 C1049 1.524 . S
C1050 C1051 1.397 . S
C1050 C1055 1.363 . S
C1051 H1022 0.950 . S
C1051 C1050 1.397 . S
C1051 C1052 1.334 . S
C1052 H1023 0.950 . S
C1052 C1051 1.334 . S
C1052 C1053 1.287 . S
C1053 C1052 1.287 . S
C1053 C1054 1.524 . S
C1053 H1056 0.999 . S
C1054 H1024 0.950 . S
C1054 C1053 1.524 . S
C1054 C1055 1.415 . S
C1055 H1025 0.950 . S
C1055 C1050 1.363 . S
C1055 C1054 1.415 . S
H1056 C1053 0.999 . S
H1057 C1038 0.913 . S
H1058 C1076 0.951 . S
H1059 C1078 0.951 . S
H1060 C1080 0.950 . S
H1061 C1081 0.950 . S
H1062 C1083 0.950 . S
H1063 C1086 0.950 . S
H1064 C1087 0.950 . S
H1065 C1089 0.950 . S
H1066 C1090 0.950 . S
H1067 C1091 0.951 . S
H1068 C1093 0.951 . S
H1069 C1095 0.950 . S
H1070 C1096 0.950 . S
H1071 C1098 0.950 . S
H1072 C1101 0.950 . S
H1073 C1102 0.950 . S
H1074 C1104 0.950 . S
H1075 C1105 0.950 . S
C1076 H1058 0.951 . S
C1076 C1077 1.366 1_455 S
C1076 C1078 1.388 . S
C1077 C1076 1.366 1_655 S
C1077 C1081 1.385 . S
C1078 H1059 0.951 . S
C1078 C1076 1.388 . S
C1078 C1079 1.366 1_455 S
C1079 C1078 1.366 1_655 S
C1079 C1080 1.414 . S
C1079 C1082 1.499 . S
C1080 H1060 0.950 . S
C1080 C1079 1.414 . S
C1080 C1081 1.374 . S
C1081 H1061 0.950 . S
C1081 C1077 1.385 . S
C1081 C1080 1.374 . S
C1082 C1079 1.499 . S
C1082 C1083 1.373 . S
C1082 C1084 1.389 1_655 S
C1083 H1062 0.950 . S
C1083 C1082 1.373 . S
C1083 C1099 1.377 . S
C1084 C1082 1.389 1_455 S
C1084 C1085 1.524 . S
C1084 C1098 1.377 . S
C1085 C1084 1.524 . S
C1085 C1086 1.397 . S
C1085 C1090 1.363 . S
C1086 H1063 0.950 . S
C1086 C1085 1.397 . S
C1086 C1087 1.334 . S
C1087 H1064 0.950 . S
C1087 C1086 1.334 . S
C1087 C1088 1.287 . S
C1088 C1087 1.287 . S
C1088 C1089 1.524 . S
C1088 H1107 0.913 . S
C1089 H1065 0.950 . S
C1089 C1088 1.524 . S
C1089 C1090 1.415 . S
C1090 H1066 0.950 . S
C1090 C1085 1.363 . S
C1090 C1089 1.415 . S
C1091 H1067 0.951 . S
C1091 C1092 1.372 . S
C1091 C1093 1.388 . S
C1092 C1091 1.372 . S
C1092 C1096 1.386 1_655 S
C1093 H1068 0.951 . S
C1093 C1091 1.388 . S
C1093 C1094 1.366 . S
C1094 C1093 1.366 . S
C1094 C1095 1.414 1_655 S
C1094 C1097 1.499 . S
C1095 H1069 0.950 . S
C1095 C1094 1.414 1_455 S
C1095 C1096 1.374 . S
C1096 H1070 0.950 . S
C1096 C1092 1.386 1_455 S
C1096 C1095 1.374 . S
C1097 C1094 1.499 . S
C1097 C1098 1.373 1_655 S
C1097 C1099 1.389 . S
C1098 H1071 0.950 . S
C1098 C1084 1.377 . S
C1098 C1097 1.373 1_455 S
C1099 C1083 1.377 . S
C1099 C1097 1.389 . S
C1099 C1100 1.524 . S
C1100 C1099 1.524 . S
C1100 C1101 1.397 . S
C1100 C1105 1.363 . S
C1101 H1072 0.950 . S
C1101 C1100 1.397 . S
C1101 C1102 1.334 . S
C1102 H1073 0.950 . S
C1102 C1101 1.334 . S
C1102 C1103 1.287 . S
C1103 C1102 1.287 . S
C1103 C1104 1.524 . S
C1103 H1106 0.999 . S
C1104 H1074 0.950 . S
C1104 C1103 1.524 . S
C1104 C1105 1.415 . S
C1105 H1075 0.950 . S
C1105 C1100 1.363 . S
C1105 C1104 1.415 . S
H1106 C1103 0.999 . S
H1107 C1088 0.913 . S
H1108 C1126 0.951 . S
H1109 C1128 0.951 . S
H1110 C1130 0.950 . S
H1111 C1131 0.950 . S
H1112 C1133 0.950 . S
H1113 C1136 0.950 . S
H1114 C1137 0.950 . S
H1115 C1139 0.950 . S
H1116 C1140 0.950 . S
H1117 C1141 0.951 . S
H1118 C1143 0.951 . S
H1119 C1145 0.950 . S
H1120 C1146 0.950 . S
H1121 C1148 0.950 . S
H1122 C1151 0.950 . S
H1123 C1152 0.950 . S
H1124 C1154 0.950 . S
H1125 C1155 0.950 . S
C1126 H1108 0.951 . S
C1126 C1127 1.366 . S
C1126 C1128 1.388 . S
C1127 C1126 1.366 . S
C1127 C1131 1.385 . S
C1128 H1109 0.951 . S
C1128 C1126 1.388 . S
C1128 C1129 1.366 . S
C1129 C1128 1.366 . S
C1129 C1130 1.414 . S
C1129 C1132 1.499 . S
C1130 H1110 0.950 . S
C1130 C1129 1.414 . S
C1130 C1131 1.374 . S
C1131 H1111 0.950 . S
C1131 C1127 1.385 . S
C1131 C1130 1.374 . S
C1132 C1129 1.499 . S
C1132 C1133 1.373 . S
C1132 C1134 1.389 . S
C1133 H1112 0.950 . S
C1133 C1132 1.373 . S
C1133 C1149 1.377 . S
C1134 C1132 1.389 . S
C1134 C1135 1.524 . S
C1134 C1148 1.377 . S
C1135 C1134 1.524 . S
C1135 C1136 1.397 . S
C1135 C1140 1.363 . S
C1136 H1113 0.950 . S
C1136 C1135 1.397 . S
C1136 C1137 1.334 . S
C1137 H1114 0.950 . S
C1137 C1136 1.334 . S
C1137 C1138 1.287 . S
C1138 C1137 1.287 . S
C1138 C1139 1.524 . S
C1138 H1157 0.913 . S
C1139 H1115 0.950 . S
C1139 C1138 1.524 . S
C1139 C1140 1.415 . S
C1140 H1116 0.950 . S
C1140 C1135 1.363 . S
C1140 C1139 1.415 . S
C1141 H1117 0.951 . S
C1141 C1142 1.366 . S
C1141 C1143 1.388 . S
C1142 C1141 1.366 . S
C1142 C1146 1.385 . S
C1143 H1118 0.951 . S
C1143 C1141 1.388 . S
C1143 C1144 1.366 . S
C1144 C1143 1.366 . S
C1144 C1145 1.414 . S
C1144 C1147 1.499 . S
C1145 H1119 0.950 . S
C1145 C1144 1.414 . S
C1145 C1146 1.374 . S
C1146 H1120 0.950 . S
C1146 C1142 1.385 . S
C1146 C1145 1.374 . S
C1147 C1144 1.499 . S
C1147 C1148 1.373 . S
C1147 C1149 1.389 . S
C1148 H1121 0.950 . S
C1148 C1134 1.377 . S
C1148 C1147 1.373 . S
C1149 C1133 1.377 . S
C1149 C1147 1.389 . S
C1149 C1150 1.524 . S
C1150 C1149 1.524 . S
C1150 C1151 1.397 . S
C1150 C1155 1.363 . S
C1151 H1122 0.950 . S
C1151 C1150 1.397 . S
C1151 C1152 1.334 . S
C1152 H1123 0.950 . S
C1152 C1151 1.334 . S
C1152 C1153 1.287 . S
C1153 C1152 1.287 . S
C1153 C1154 1.524 . S
C1153 H1156 0.999 . S
C1154 H1124 0.950 . S
C1154 C1153 1.524 . S
C1154 C1155 1.415 . S
C1155 H1125 0.950 . S
C1155 C1150 1.363 . S
C1155 C1154 1.415 . S
H1156 C1153 0.999 . S
H1157 C1138 0.913 . S
H1158 C1176 0.951 . S
H1159 C1178 0.951 . S
H1160 C1180 0.950 . S
H1161 C1181 0.950 . S
H1162 C1183 0.950 . S
H1163 C1186 0.950 . S
H1164 C1187 0.950 . S
H1165 C1189 0.950 . S
H1166 C1190 0.950 . S
H1167 C1191 0.951 . S
H1168 C1193 0.951 . S
H1169 C1195 0.950 . S
H1170 C1196 0.950 . S
H1171 C1198 0.950 . S
H1172 C1201 0.950 . S
H1173 C1202 0.950 . S
H1174 C1204 0.950 . S
H1175 C1205 0.950 . S
C1176 H1158 0.951 . S
C1176 C1177 1.366 . S
C1176 C1178 1.388 . S
C1177 C1176 1.366 . S
C1177 C1181 1.385 . S
C1178 H1159 0.951 . S
C1178 C1176 1.388 . S
C1178 C1179 1.366 . S
C1179 C1178 1.366 . S
C1179 C1180 1.414 . S
C1179 C1182 1.499 . S
C1180 H1160 0.950 . S
C1180 C1179 1.414 . S
C1180 C1181 1.374 . S
C1181 H1161 0.950 . S
C1181 C1177 1.385 . S
C1181 C1180 1.374 . S
C1182 C1179 1.499 . S
C1182 C1183 1.373 . S
C1182 C1184 1.389 . S
C1183 H1162 0.950 . S
C1183 C1182 1.373 . S
C1183 C1199 1.377 . S
C1184 C1182 1.389 . S
C1184 C1185 1.524 . S
C1184 C1198 1.377 . S
C1185 C1184 1.524 . S
C1185 C1186 1.397 . S
C1185 C1190 1.363 . S
C1186 H1163 0.950 . S
C1186 C1185 1.397 . S
C1186 C1187 1.334 . S
C1187 H1164 0.950 . S
C1187 C1186 1.334 . S
C1187 C1188 1.287 . S
C1188 C1187 1.287 . S
C1188 C1189 1.524 . S
C1188 H1207 0.913 . S
C1189 H1165 0.950 . S
C1189 C1188 1.524 . S
C1189 C1190 1.415 . S
C1190 H1166 0.950 . S
C1190 C1185 1.363 . S
C1190 C1189 1.415 . S
C1191 H1167 0.951 . S
C1191 C1192 1.366 . S
C1191 C1193 1.388 . S
C1192 C1191 1.366 . S
C1192 C1196 1.385 . S
C1193 H1168 0.951 . S
C1193 C1191 1.388 . S
C1193 C1194 1.366 . S
C1194 C1193 1.366 . S
C1194 C1195 1.414 . S
C1194 C1197 1.499 . S
C1195 H1169 0.950 . S
C1195 C1194 1.414 . S
C1195 C1196 1.374 . S
C1196 H1170 0.950 . S
C1196 C1192 1.385 . S
C1196 C1195 1.374 . S
C1197 C1194 1.499 . S
C1197 C1198 1.373 . S
C1197 C1199 1.389 . S
C1198 H1171 0.950 . S
C1198 C1184 1.377 . S
C1198 C1197 1.373 . S
C1199 C1183 1.377 . S
C1199 C1197 1.389 . S
C1199 C1200 1.524 . S
C1200 C1199 1.524 . S
C1200 C1201 1.397 . S
C1200 C1205 1.363 . S
C1201 H1172 0.950 . S
C1201 C1200 1.397 . S
C1201 C1202 1.334 . S
C1202 H1173 0.950 . S
C1202 C1201 1.334 . S
C1202 C1203 1.287 . S
C1203 C1202 1.287 . S
C1203 C1204 1.524 . S
C1203 H1206 0.999 . S
C1204 H1174 0.950 . S
C1204 C1203 1.524 . S
C1204 C1205 1.415 . S
C1205 H1175 0.950 . S
C1205 C1200 1.363 . S
C1205 C1204 1.415 . S
H1206 C1203 0.999 . S
H1207 C1188 0.913 . S
H1208 C1226 0.951 . S
H1209 C1228 0.951 . S
H1210 C1230 0.950 . S
H1211 C1231 0.950 . S
H1212 C1233 0.950 . S
H1213 C1236 0.950 . S
H1214 C1237 0.950 . S
H1215 C1239 0.950 . S
H1216 C1240 0.950 . S
H1217 C1241 0.951 . S
H1218 C1243 0.951 . S
H1219 C1245 0.950 . S
H1220 C1246 0.950 . S
H1221 C1248 0.950 . S
H1222 C1251 0.950 . S
H1223 C1252 0.950 . S
H1224 C1254 0.950 . S
H1225 C1255 0.950 . S
C1226 H1208 0.951 . S
C1226 C1227 1.366 . S
C1226 C1228 1.388 . S
C1227 C1226 1.366 . S
C1227 C1231 1.385 . S
C1228 H1209 0.951 . S
C1228 C1226 1.388 . S
C1228 C1229 1.366 . S
C1229 C1228 1.366 . S
C1229 C1230 1.414 . S
C1229 C1232 1.499 . S
C1230 H1210 0.950 . S
C1230 C1229 1.414 . S
C1230 C1231 1.374 . S
C1231 H1211 0.950 . S
C1231 C1227 1.385 . S
C1231 C1230 1.374 . S
C1232 C1229 1.499 . S
C1232 C1233 1.373 . S
C1232 C1234 1.389 . S
C1233 H1212 0.950 . S
C1233 C1232 1.373 . S
C1233 C1249 1.377 . S
C1234 C1232 1.389 . S
C1234 C1235 1.524 . S
C1234 C1248 1.377 . S
C1235 C1234 1.524 . S
C1235 C1236 1.397 . S
C1235 C1240 1.363 . S
C1236 H1213 0.950 . S
C1236 C1235 1.397 . S
C1236 C1237 1.334 . S
C1237 H1214 0.950 . S
C1237 C1236 1.334 . S
C1237 C1238 1.287 . S
C1238 C1237 1.287 . S
C1238 C1239 1.524 . S
C1238 H1257 0.913 . S
C1239 H1215 0.950 . S
C1239 C1238 1.524 . S
C1239 C1240 1.415 . S
C1240 H1216 0.950 . S
C1240 C1235 1.363 . S
C1240 C1239 1.415 . S
C1241 H1217 0.951 . S
C1241 C1242 1.366 . S
C1241 C1243 1.388 . S
C1242 C1241 1.366 . S
C1242 C1246 1.385 . S
C1243 H1218 0.951 . S
C1243 C1241 1.388 . S
C1243 C1244 1.366 . S
C1244 C1243 1.366 . S
C1244 C1245 1.414 . S
C1244 C1247 1.499 . S
C1245 H1219 0.950 . S
C1245 C1244 1.414 . S
C1245 C1246 1.374 . S
C1246 H1220 0.950 . S
C1246 C1242 1.385 . S
C1246 C1245 1.374 . S
C1247 C1244 1.499 . S
C1247 C1248 1.373 . S
C1247 C1249 1.389 . S
C1248 H1221 0.950 . S
C1248 C1234 1.377 . S
C1248 C1247 1.373 . S
C1249 C1233 1.377 . S
C1249 C1247 1.389 . S
C1249 C1250 1.524 . S
C1250 C1249 1.524 . S
C1250 C1251 1.397 . S
C1250 C1255 1.363 . S
C1251 H1222 0.950 . S
C1251 C1250 1.397 . S
C1251 C1252 1.334 . S
C1252 H1223 0.950 . S
C1252 C1251 1.334 . S
C1252 C1253 1.287 . S
C1253 C1252 1.287 . S
C1253 C1254 1.524 . S
C1253 H1256 0.999 . S
C1254 H1224 0.950 . S
C1254 C1253 1.524 . S
C1254 C1255 1.415 . S
C1255 H1225 0.950 . S
C1255 C1250 1.363 . S
C1255 C1254 1.415 . S
H1256 C1253 0.999 . S
H1257 C1238 0.913 . S
H1258 C1276 0.951 . S
H1259 C1278 0.951 . S
H1260 C1280 0.950 . S
H1261 C1281 0.950 . S
H1262 C1283 0.950 . S
H1263 C1286 0.950 . S
H1264 C1287 0.950 . S
H1265 C1289 0.950 . S
H1266 C1290 0.950 . S
H1267 C1291 0.951 . S
H1268 C1293 0.951 . S
H1269 C1295 0.950 . S
H1270 C1296 0.950 . S
H1271 C1298 0.950 . S
H1272 C1301 0.950 . S
H1273 C1302 0.950 . S
H1274 C1304 0.950 . S
H1275 C1305 0.950 . S
C1276 H1258 0.951 . S
C1276 C1277 1.366 . S
C1276 C1278 1.388 . S
C1277 C1276 1.366 . S
C1277 C1281 1.385 . S
C1278 H1259 0.951 . S
C1278 C1276 1.388 . S
C1278 C1279 1.366 . S
C1279 C1278 1.366 . S
C1279 C1280 1.414 . S
C1279 C1282 1.499 . S
C1280 H1260 0.950 . S
C1280 C1279 1.414 . S
C1280 C1281 1.374 . S
C1281 H1261 0.950 . S
C1281 C1277 1.385 . S
C1281 C1280 1.374 . S
C1282 C1279 1.499 . S
C1282 C1283 1.373 . S
C1282 C1284 1.389 . S
C1283 H1262 0.950 . S
C1283 C1282 1.373 . S
C1283 C1299 1.377 . S
C1284 C1282 1.389 . S
C1284 C1285 1.524 . S
C1284 C1298 1.377 . S
C1285 C1284 1.524 . S
C1285 C1286 1.397 . S
C1285 C1290 1.363 . S
C1286 H1263 0.950 . S
C1286 C1285 1.397 . S
C1286 C1287 1.334 . S
C1287 H1264 0.950 . S
C1287 C1286 1.334 . S
C1287 C1288 1.287 . S
C1288 C1287 1.287 . S
C1288 C1289 1.524 . S
C1288 H1307 0.913 . S
C1289 H1265 0.950 . S
C1289 C1288 1.524 . S
C1289 C1290 1.415 . S
C1290 H1266 0.950 . S
C1290 C1285 1.363 . S
C1290 C1289 1.415 . S
C1291 H1267 0.951 . S
C1291 C1292 1.366 . S
C1291 C1293 1.388 . S
C1292 C1291 1.366 . S
C1292 C1296 1.385 . S
C1293 H1268 0.951 . S
C1293 C1291 1.388 . S
C1293 C1294 1.366 . S
C1294 C1293 1.366 . S
C1294 C1295 1.414 . S
C1294 C1297 1.499 . S
C1295 H1269 0.950 . S
C1295 C1294 1.414 . S
C1295 C1296 1.374 . S
C1296 H1270 0.950 . S
C1296 C1292 1.385 . S
C1296 C1295 1.374 . S
C1297 C1294 1.499 . S
C1297 C1298 1.373 . S
C1297 C1299 1.389 . S
C1298 H1271 0.950 . S
C1298 C1284 1.377 . S
C1298 C1297 1.373 . S
C1299 C1283 1.377 . S
C1299 C1297 1.389 . S
C1299 C1300 1.524 . S
C1300 C1299 1.524 . S
C1300 C1301 1.397 . S
C1300 C1305 1.363 . S
C1301 H1272 0.950 . S
C1301 C1300 1.397 . S
C1301 C1302 1.334 . S
C1302 H1273 0.950 . S
C1302 C1301 1.334 . S
C1302 C1303 1.287 . S
C1303 C1302 1.287 . S
C1303 C1304 1.524 . S
C1303 H1306 0.999 . S
C1304 H1274 0.950 . S
C1304 C1303 1.524 . S
C1304 C1305 1.415 . S
C1305 H1275 0.950 . S
C1305 C1300 1.363 . S
C1305 C1304 1.415 . S
H1306 C1303 0.999 . S
H1307 C1288 0.913 . S
H1308 C1326 0.951 . S
H1309 C1328 0.951 . S
H1310 C1330 0.950 . S
H1311 C1331 0.950 . S
H1312 C1333 0.950 . S
H1313 C1336 0.950 . S
H1314 C1337 0.950 . S
H1315 C1339 0.950 . S
H1316 C1340 0.950 . S
H1317 C1341 0.951 . S
H1318 C1343 0.951 . S
H1319 C1345 0.950 . S
H1320 C1346 0.950 . S
H1321 C1348 0.950 . S
H1322 C1351 0.950 . S
H1323 C1352 0.950 . S
H1324 C1354 0.950 . S
H1325 C1355 0.950 . S
C1326 H1308 0.951 . S
C1326 C1327 1.366 . S
C1326 C1328 1.388 . S
C1327 C1326 1.366 . S
C1327 C1331 1.385 . S
C1328 H1309 0.951 . S
C1328 C1326 1.388 . S
C1328 C1329 1.366 . S
C1329 C1328 1.366 . S
C1329 C1330 1.414 . S
C1329 C1332 1.499 . S
C1330 H1310 0.950 . S
C1330 C1329 1.414 . S
C1330 C1331 1.374 . S
C1331 H1311 0.950 . S
C1331 C1327 1.385 . S
C1331 C1330 1.374 . S
C1332 C1329 1.499 . S
C1332 C1333 1.373 . S
C1332 C1334 1.389 . S
C1333 H1312 0.950 . S
C1333 C1332 1.373 . S
C1333 C1349 1.377 . S
C1334 C1332 1.389 . S
C1334 C1335 1.524 . S
C1334 C1348 1.377 . S
C1335 C1334 1.524 . S
C1335 C1336 1.397 . S
C1335 C1340 1.363 . S
C1336 H1313 0.950 . S
C1336 C1335 1.397 . S
C1336 C1337 1.334 . S
C1337 H1314 0.950 . S
C1337 C1336 1.334 . S
C1337 C1338 1.287 . S
C1338 C1337 1.287 . S
C1338 C1339 1.524 . S
C1338 H1357 0.913 . S
C1339 H1315 0.950 . S
C1339 C1338 1.524 . S
C1339 C1340 1.415 . S
C1340 H1316 0.950 . S
C1340 C1335 1.363 . S
C1340 C1339 1.415 . S
C1341 H1317 0.951 . S
C1341 C1342 1.366 . S
C1341 C1343 1.388 . S
C1342 C1341 1.366 . S
C1342 C1346 1.385 . S
C1343 H1318 0.951 . S
C1343 C1341 1.388 . S
C1343 C1344 1.366 . S
C1344 C1343 1.366 . S
C1344 C1345 1.414 . S
C1344 C1347 1.499 . S
C1345 H1319 0.950 . S
C1345 C1344 1.414 . S
C1345 C1346 1.374 . S
C1346 H1320 0.950 . S
C1346 C1342 1.385 . S
C1346 C1345 1.374 . S
C1347 C1344 1.499 . S
C1347 C1348 1.373 . S
C1347 C1349 1.389 . S
C1348 H1321 0.950 . S
C1348 C1334 1.377 . S
C1348 C1347 1.373 . S
C1349 C1333 1.377 . S
C1349 C1347 1.389 . S
C1349 C1350 1.524 . S
C1350 C1349 1.524 . S
C1350 C1351 1.397 . S
C1350 C1355 1.363 . S
C1351 H1322 0.950 . S
C1351 C1350 1.397 . S
C1351 C1352 1.334 . S
C1352 H1323 0.950 . S
C1352 C1351 1.334 . S
C1352 C1353 1.287 . S
C1353 C1352 1.287 . S
C1353 C1354 1.524 . S
C1353 H1356 0.999 . S
C1354 H1324 0.950 . S
C1354 C1353 1.524 . S
C1354 C1355 1.415 . S
C1355 H1325 0.950 . S
C1355 C1350 1.363 . S
C1355 C1354 1.415 . S
H1356 C1353 0.999 . S
H1357 C1338 0.913 . S
H1358 C1376 0.951 . S
H1359 C1378 0.951 . S
H1360 C1380 0.950 . S
H1361 C1381 0.950 . S
H1362 C1383 0.950 . S
H1363 C1386 0.950 . S
H1364 C1387 0.950 . S
H1365 C1389 0.950 . S
H1366 C1390 0.950 . S
H1367 C1391 0.951 . S
H1368 C1393 0.951 . S
H1369 C1395 0.950 . S
H1370 C1396 0.950 . S
H1371 C1398 0.950 . S
H1372 C1401 0.950 . S
H1373 C1402 0.950 . S
H1374 C1404 0.950 . S
H1375 C1405 0.950 . S
C1376 H1358 0.951 . S
C1376 C1377 1.366 . S
C1376 C1378 1.388 . S
C1377 C1376 1.366 . S
C1377 C1381 1.385 . S
C1378 H1359 0.951 . S
C1378 C1376 1.388 . S
C1378 C1379 1.366 . S
C1379 C1378 1.366 . S
C1379 C1380 1.414 . S
C1379 C1382 1.499 . S
C1380 H1360 0.950 . S
C1380 C1379 1.414 . S
C1380 C1381 1.374 . S
C1381 H1361 0.950 . S
C1381 C1377 1.385 . S
C1381 C1380 1.374 . S
C1382 C1379 1.499 . S
C1382 C1383 1.373 . S
C1382 C1384 1.389 . S
C1383 H1362 0.950 . S
C1383 C1382 1.373 . S
C1383 C1399 1.377 . S
C1384 C1382 1.389 . S
C1384 C1385 1.524 . S
C1384 C1398 1.377 . S
C1385 C1384 1.524 . S
C1385 C1386 1.397 . S
C1385 C1390 1.363 . S
C1386 H1363 0.950 . S
C1386 C1385 1.397 . S
C1386 C1387 1.334 . S
C1387 H1364 0.950 . S
C1387 C1386 1.334 . S
C1387 C1388 1.287 . S
C1388 C1387 1.287 . S
C1388 C1389 1.524 . S
C1388 H1407 0.913 . S
C1389 H1365 0.950 . S
C1389 C1388 1.524 . S
C1389 C1390 1.415 . S
C1390 H1366 0.950 . S
C1390 C1385 1.363 . S
C1390 C1389 1.415 . S
C1391 H1367 0.951 . S
C1391 C1392 1.366 . S
C1391 C1393 1.388 . S
C1392 C1391 1.366 . S
C1392 C1396 1.385 . S
C1393 H1368 0.951 . S
C1393 C1391 1.388 . S
C1393 C1394 1.366 . S
C1394 C1393 1.366 . S
C1394 C1395 1.414 . S
C1394 C1397 1.499 . S
C1395 H1369 0.950 . S
C1395 C1394 1.414 . S
C1395 C1396 1.374 . S
C1396 H1370 0.950 . S
C1396 C1392 1.385 . S
C1396 C1395 1.374 . S
C1397 C1394 1.499 . S
C1397 C1398 1.373 . S
C1397 C1399 1.389 . S
C1398 H1371 0.950 . S
C1398 C1384 1.377 . S
C1398 C1397 1.373 . S
C1399 C1383 1.377 . S
C1399 C1397 1.389 . S
C1399 C1400 1.524 . S
C1400 C1399 1.524 . S
C1400 C1401 1.397 . S
C1400 C1405 1.363 . S
C1401 H1372 0.950 . S
C1401 C1400 1.397 . S
C1401 C1402 1.334 . S
C1402 H1373 0.950 . S
C1402 C1401 1.334 . S
C1402 C1403 1.287 . S
C1403 C1402 1.287 . S
C1403 C1404 1.524 . S
C1403 H1406 0.999 . S
C1404 H1374 0.950 . S
C1404 C1403 1.524 . S
C1404 C1405 1.415 . S
C1405 H1375 0.950 . S
C1405 C1400 1.363 . S
C1405 C1404 1.415 . S
H1406 C1403 0.999 . S
H1407 C1388 0.913 . S
H1408 C1426 0.951 . S
H1409 C1428 0.951 . S
H1410 C1430 0.950 . S
H1411 C1431 0.950 . S
H1412 C1433 0.950 . S
H1413 C1436 0.950 . S
H1414 C1437 0.950 . S
H1415 C1439 0.950 . S
H1416 C1440 0.950 . S
H1417 C1441 0.951 . S
H1418 C1443 0.951 . S
H1419 C1445 0.950 . S
H1420 C1446 0.950 . S
H1421 C1448 0.950 . S
H1422 C1451 0.950 . S
H1423 C1452 0.950 . S
H1424 C1454 0.950 . S
H1425 C1455 0.950 . S
C1426 H1408 0.951 . S
C1426 C1427 1.366 . S
C1426 C1428 1.388 . S
C1427 C1426 1.366 . S
C1427 C1431 1.385 . S
C1428 H1409 0.951 . S
C1428 C1426 1.388 . S
C1428 C1429 1.366 . S
C1429 C1428 1.366 . S
C1429 C1430 1.414 . S
C1429 C1432 1.499 . S
C1430 H1410 0.950 . S
C1430 C1429 1.414 . S
C1430 C1431 1.374 . S
C1431 H1411 0.950 . S
C1431 C1427 1.385 . S
C1431 C1430 1.374 . S
C1432 C1429 1.499 . S
C1432 C1433 1.373 . S
C1432 C1434 1.389 . S
C1433 H1412 0.950 . S
C1433 C1432 1.373 . S
C1433 C1449 1.377 . S
C1434 C1432 1.389 . S
C1434 C1435 1.524 . S
C1434 C1448 1.377 . S
C1435 C1434 1.524 . S
C1435 C1436 1.397 . S
C1435 C1440 1.363 . S
C1436 H1413 0.950 . S
C1436 C1435 1.397 . S
C1436 C1437 1.334 . S
C1437 H1414 0.950 . S
C1437 C1436 1.334 . S
C1437 C1438 1.287 . S
C1438 C1437 1.287 . S
C1438 C1439 1.524 . S
C1438 H1457 0.913 . S
C1439 H1415 0.950 . S
C1439 C1438 1.524 . S
C1439 C1440 1.415 . S
C1440 H1416 0.950 . S
C1440 C1435 1.363 . S
C1440 C1439 1.415 . S
C1441 H1417 0.951 . S
C1441 C1442 1.366 . S
C1441 C1443 1.388 . S
C1442 C1441 1.366 . S
C1442 C1446 1.385 . S
C1443 H1418 0.951 . S
C1443 C1441 1.388 . S
C1443 C1444 1.366 . S
C1444 C1443 1.366 . S
C1444 C1445 1.414 . S
C1444 C1447 1.499 . S
C1445 H1419 0.950 . S
C1445 C1444 1.414 . S
C1445 C1446 1.374 . S
C1446 H1420 0.950 . S
C1446 C1442 1.385 . S
C1446 C1445 1.374 . S
C1447 C1444 1.499 . S
C1447 C1448 1.373 . S
C1447 C1449 1.389 . S
C1448 H1421 0.950 . S
C1448 C1434 1.377 . S
C1448 C1447 1.373 . S
C1449 C1433 1.377 . S
C1449 C1447 1.389 . S
C1449 C1450 1.524 . S
C1450 C1449 1.524 . S
C1450 C1451 1.397 . S
C1450 C1455 1.363 . S
C1451 H1422 0.950 . S
C1451 C1450 1.397 . S
C1451 C1452 1.334 . S
C1452 H1423 0.950 . S
C1452 C1451 1.334 . S
C1452 C1453 1.287 . S
C1453 C1452 1.287 . S
C1453 C1454 1.524 . S
C1453 H1456 0.999 . S
C1454 H1424 0.950 . S
C1454 C1453 1.524 . S
C1454 C1455 1.415 . S
C1455 H1425 0.950 . S
C1455 C1450 1.363 . S
C1455 C1454 1.415 . S
H1456 C1453 0.999 . S
H1457 C1438 0.913 . S
H1458 C1476 0.951 . S
H1459 C1478 0.951 . S
H1460 C1480 0.950 . S
H1461 C1481 0.950 . S
H1462 C1483 0.950 . S
H1463 C1486 0.950 . S
H1464 C1487 0.950 . S
H1465 C1489 0.950 . S
H1466 C1490 0.950 . S
H1467 C1491 0.951 . S
H1468 C1493 0.951 . S
H1469 C1495 0.950 . S
H1470 C1496 0.950 . S
H1471 C1498 0.950 . S
H1472 C1501 0.950 . S
H1473 C1502 0.950 . S
H1474 C1504 0.950 . S
H1475 C1505 0.950 . S
C1476 H1458 0.951 . S
C1476 C1477 1.366 . S
C1476 C1478 1.388 . S
C1477 C1476 1.366 . S
C1477 C1481 1.385 . S
C1478 H1459 0.951 . S
C1478 C1476 1.388 . S
C1478 C1479 1.366 . S
C1479 C1478 1.366 . S
C1479 C1480 1.414 . S
C1479 C1482 1.499 . S
C1480 H1460 0.950 . S
C1480 C1479 1.414 . S
C1480 C1481 1.374 . S
C1481 H1461 0.950 . S
C1481 C1477 1.385 . S
C1481 C1480 1.374 . S
C1482 C1479 1.499 . S
C1482 C1483 1.373 . S
C1482 C1484 1.389 . S
C1483 H1462 0.950 . S
C1483 C1482 1.373 . S
C1483 C1499 1.377 . S
C1484 C1482 1.389 . S
C1484 C1485 1.524 . S
C1484 C1498 1.377 . S
C1485 C1484 1.524 . S
C1485 C1486 1.397 . S
C1485 C1490 1.363 . S
C1486 H1463 0.950 . S
C1486 C1485 1.397 . S
C1486 C1487 1.334 . S
C1487 H1464 0.950 . S
C1487 C1486 1.334 . S
C1487 C1488 1.287 . S
C1488 C1487 1.287 . S
C1488 C1489 1.524 . S
C1488 H1507 0.913 . S
C1489 H1465 0.950 . S
C1489 C1488 1.524 . S
C1489 C1490 1.415 . S
C1490 H1466 0.950 . S
C1490 C1485 1.363 . S
C1490 C1489 1.415 . S
C1491 H1467 0.951 . S
C1491 C1492 1.366 . S
C1491 C1493 1.388 . S
C1492 C1491 1.366 . S
C1492 C1496 1.385 . S
C1493 H1468 0.951 . S
C1493 C1491 1.388 . S
C1493 C1494 1.366 . S
C1494 C1493 1.366 . S
C1494 C1495 1.414 . S
C1494 C1497 1.499 . S
C1495 H1469 0.950 . S
C1495 C1494 1.414 . S
C1495 C1496 1.374 . S
C1496 H1470 0.950 . S
C1496 C1492 1.385 . S
C1496 C1495 1.374 . S
C1497 C1494 1.499 . S
C1497 C1498 1.373 . S
C1497 C1499 1.389 . S
C1498 H1471 0.950 . S
C1498 C1484 1.377 . S
C1498 C1497 1.373 . S
C1499 C1483 1.377 . S
C1499 C1497 1.389 . S
C1499 C1500 1.524 . S
C1500 C1499 1.524 . S
C1500 C1501 1.397 . S
C1500 C1505 1.363 . S
C1501 H1472 0.950 . S
C1501 C1500 1.397 . S
C1501 C1502 1.334 . S
C1502 H1473 0.950 . S
C1502 C1501 1.334 . S
C1502 C1503 1.287 . S
C1503 C1502 1.287 . S
C1503 C1504 1.524 . S
C1503 H1506 0.999 . S
C1504 H1474 0.950 . S
C1504 C1503 1.524 . S
C1504 C1505 1.415 . S
C1505 H1475 0.950 . S
C1505 C1500 1.363 . S
C1505 C1504 1.415 . S
H1506 C1503 0.999 . S
H1507 C1488 0.913 . S
H1508 C1526 0.951 . S
H1509 C1528 0.951 . S
H1510 C1530 0.950 . S
H1511 C1531 0.950 . S
H1512 C1533 0.950 . S
H1513 C1536 0.950 . S
H1514 C1537 0.950 . S
H1515 C1539 0.950 . S
H1516 C1540 0.950 . S
H1517 C1541 0.951 . S
H1518 C1543 0.951 . S
H1519 C1545 0.950 . S
H1520 C1546 0.950 . S
H1521 C1548 0.950 . S
H1522 C1551 0.950 . S
H1523 C1552 0.950 . S
H1524 C1554 0.950 . S
H1525 C1555 0.950 . S
C1526 H1508 0.951 . S
C1526 C1527 1.366 . S
C1526 C1528 1.388 . S
C1527 C1526 1.366 . S
C1527 C1531 1.385 . S
C1528 H1509 0.951 . S
C1528 C1526 1.388 . S
C1528 C1529 1.366 . S
C1529 C1528 1.366 . S
C1529 C1530 1.414 . S
C1529 C1532 1.499 . S
C1530 H1510 0.950 . S
C1530 C1529 1.414 . S
C1530 C1531 1.374 . S
C1531 H1511 0.950 . S
C1531 C1527 1.385 . S
C1531 C1530 1.374 . S
C1532 C1529 1.499 . S
C1532 C1533 1.373 . S
C1532 C1534 1.389 . S
C1533 H1512 0.950 . S
C1533 C1532 1.373 . S
C1533 C1549 1.377 . S
C1534 C1532 1.389 . S
C1534 C1535 1.524 . S
C1534 C1548 1.377 . S
C1535 C1534 1.524 . S
C1535 C1536 1.397 . S
C1535 C1540 1.363 . S
C1536 H1513 0.950 . S
C1536 C1535 1.397 . S
C1536 C1537 1.334 . S
C1537 H1514 0.950 . S
C1537 C1536 1.334 . S
C1537 C1538 1.287 . S
C1538 C1537 1.287 . S
C1538 C1539 1.524 . S
C1538 H1557 0.913 . S
C1539 H1515 0.950 . S
C1539 C1538 1.524 . S
C1539 C1540 1.415 . S
C1540 H1516 0.950 . S
C1540 C1535 1.363 . S
C1540 C1539 1.415 . S
C1541 H1517 0.951 . S
C1541 C1542 1.366 . S
C1541 C1543 1.388 . S
C1542 C1541 1.366 . S
C1542 C1546 1.385 . S
C1543 H1518 0.951 . S
C1543 C1541 1.388 . S
C1543 C1544 1.366 . S
C1544 C1543 1.366 . S
C1544 C1545 1.414 . S
C1544 C1547 1.499 . S
C1545 H1519 0.950 . S
C1545 C1544 1.414 . S
C1545 C1546 1.374 . S
C1546 H1520 0.950 . S
C1546 C1542 1.385 . S
C1546 C1545 1.374 . S
C1547 C1544 1.499 . S
C1547 C1548 1.373 . S
C1547 C1549 1.389 . S
C1548 H1521 0.950 . S
C1548 C1534 1.377 . S
C1548 C1547 1.373 . S
C1549 C1533 1.377 . S
C1549 C1547 1.389 . S
C1549 C1550 1.524 . S
C1550 C1549 1.524 . S
C1550 C1551 1.397 . S
C1550 C1555 1.363 . S
C1551 H1522 0.950 . S
C1551 C1550 1.397 . S
C1551 C1552 1.334 . S
C1552 H1523 0.950 . S
C1552 C1551 1.334 . S
C1552 C1553 1.287 . S
C1553 C1552 1.287 . S
C1553 C1554 1.524 . S
C1553 H1556 0.999 . S
C1554 H1524 0.950 . S
C1554 C1553 1.524 . S
C1554 C1555 1.415 . S
C1555 H1525 0.950 . S
C1555 C1550 1.363 . S
C1555 C1554 1.415 . S
H1556 C1553 0.999 . S
H1557 C1538 0.913 . S
H1558 C1576 0.951 . S
H1559 C1578 0.951 . S
H1560 C1580 0.950 . S
H1561 C1581 0.950 . S
H1562 C1583 0.950 . S
H1563 C1586 0.950 . S
H1564 C1587 0.950 . S
H1565 C1589 0.950 . S
H1566 C1590 0.950 . S
H1567 C1591 0.951 . S
H1568 C1593 0.951 . S
H1569 C1595 0.950 . S
H1570 C1596 0.950 . S
H1571 C1598 0.950 . S
H1572 C1601 0.950 . S
H1573 C1602 0.950 . S
H1574 C1604 0.950 . S
H1575 C1605 0.950 . S
C1576 H1558 0.951 . S
C1576 C1577 1.366 . S
C1576 C1578 1.388 . S
C1577 C1576 1.366 . S
C1577 C1581 1.385 . S
C1578 H1559 0.951 . S
C1578 C1576 1.388 . S
C1578 C1579 1.366 . S
C1579 C1578 1.366 . S
C1579 C1580 1.414 . S
C1579 C1582 1.499 . S
C1580 H1560 0.950 . S
C1580 C1579 1.414 . S
C1580 C1581 1.374 . S
C1581 H1561 0.950 . S
C1581 C1577 1.385 . S
C1581 C1580 1.374 . S
C1582 C1579 1.499 . S
C1582 C1583 1.373 . S
C1582 C1584 1.389 . S
C1583 H1562 0.950 . S
C1583 C1582 1.373 . S
C1583 C1599 1.377 . S
C1584 C1582 1.389 . S
C1584 C1585 1.524 . S
C1584 C1598 1.377 . S
C1585 C1584 1.524 . S
C1585 C1586 1.397 . S
C1585 C1590 1.363 . S
C1586 H1563 0.950 . S
C1586 C1585 1.397 . S
C1586 C1587 1.334 . S
C1587 H1564 0.950 . S
C1587 C1586 1.334 . S
C1587 C1588 1.287 . S
C1588 C1587 1.287 . S
C1588 C1589 1.524 . S
C1588 H1607 0.913 . S
C1589 H1565 0.950 . S
C1589 C1588 1.524 . S
C1589 C1590 1.415 . S
C1590 H1566 0.950 . S
C1590 C1585 1.363 . S
C1590 C1589 1.415 . S
C1591 H1567 0.951 . S
C1591 C1592 1.366 . S
C1591 C1593 1.388 . S
C1592 C1591 1.366 . S
C1592 C1596 1.385 . S
C1593 H1568 0.951 . S
C1593 C1591 1.388 . S
C1593 C1594 1.366 . S
C1594 C1593 1.366 . S
C1594 C1595 1.414 . S
C1594 C1597 1.499 . S
C1595 H1569 0.950 . S
C1595 C1594 1.414 . S
C1595 C1596 1.374 . S
C1596 H1570 0.950 . S
C1596 C1592 1.385 . S
C1596 C1595 1.374 . S
C1597 C1594 1.499 . S
C1597 C1598 1.373 . S
C1597 C1599 1.389 . S
C1598 H1571 0.950 . S
C1598 C1584 1.377 . S
C1598 C1597 1.373 . S
C1599 C1583 1.377 . S
C1599 C1597 1.389 . S
C1599 C1600 1.524 . S
C1600 C1599 1.524 . S
C1600 C1601 1.397 . S
C1600 C1605 1.363 . S
C1601 H1572 0.950 . S
C1601 C1600 1.397 . S
C1601 C1602 1.334 . S
C1602 H1573 0.950 . S
C1602 C1601 1.334 . S
C1602 C1603 1.287 . S
C1603 C1602 1.287 . S
C1603 C1604 1.524 . S
C1603 H1606 0.999 . S
C1604 H1574 0.950 . S
C1604 C1603 1.524 . S
C1604 C1605 1.415 . S
C1605 H1575 0.950 . S
C1605 C1600 1.363 . S
C1605 C1604 1.415 . S
H1606 C1603 0.999 . S
H1607 C1588 0.913 . S
H1608 C1626 0.951 . S
H1609 C1628 0.951 . S
H1610 C1630 0.950 . S
H1611 C1631 0.950 . S
H1612 C1633 0.950 . S
H1613 C1636 0.950 . S
H1614 C1637 0.950 . S
H1615 C1639 0.950 . S
H1616 C1640 0.950 . S
H1617 C1641 0.951 . S
H1618 C1643 0.951 . S
H1619 C1645 0.950 . S
H1620 C1646 0.950 . S
H1621 C1648 0.950 . S
H1622 C1651 0.950 . S
H1623 C1652 0.950 . S
H1624 C1654 0.950 . S
H1625 C1655 0.950 . S
C1626 H1608 0.951 . S
C1626 C1627 1.366 . S
C1626 C1628 1.388 . S
C1627 C1626 1.366 . S
C1627 C1631 1.385 . S
C1628 H1609 0.951 . S
C1628 C1626 1.388 . S
C1628 C1629 1.366 . S
C1629 C1628 1.366 . S
C1629 C1630 1.414 . S
C1629 C1632 1.499 . S
C1630 H1610 0.950 . S
C1630 C1629 1.414 . S
C1630 C1631 1.374 . S
C1631 H1611 0.950 . S
C1631 C1627 1.385 . S
C1631 C1630 1.374 . S
C1632 C1629 1.499 . S
C1632 C1633 1.373 . S
C1632 C1634 1.389 . S
C1633 H1612 0.950 . S
C1633 C1632 1.373 . S
C1633 C1649 1.377 . S
C1634 C1632 1.389 . S
C1634 C1635 1.524 . S
C1634 C1648 1.377 . S
C1635 C1634 1.524 . S
C1635 C1636 1.397 . S
C1635 C1640 1.363 . S
C1636 H1613 0.950 . S
C1636 C1635 1.397 . S
C1636 C1637 1.334 . S
C1637 H1614 0.950 . S
C1637 C1636 1.334 . S
C1637 C1638 1.287 . S
C1638 C1637 1.287 . S
C1638 C1639 1.524 . S
C1638 H1657 0.913 . S
C1639 H1615 0.950 . S
C1639 C1638 1.524 . S
C1639 C1640 1.415 . S
C1640 H1616 0.950 . S
C1640 C1635 1.363 . S
C1640 C1639 1.415 . S
C1641 H1617 0.951 . S
C1641 C1642 1.366 . S
C1641 C1643 1.388 . S
C1642 C1641 1.366 . S
C1642 C1646 1.385 . S
C1643 H1618 0.951 . S
C1643 C1641 1.388 . S
C1643 C1644 1.366 . S
C1644 C1643 1.366 . S
C1644 C1645 1.414 . S
C1644 C1647 1.499 . S
C1645 H1619 0.950 . S
C1645 C1644 1.414 . S
C1645 C1646 1.374 . S
C1646 H1620 0.950 . S
C1646 C1642 1.385 . S
C1646 C1645 1.374 . S
C1647 C1644 1.499 . S
C1647 C1648 1.373 . S
C1647 C1649 1.389 . S
C1648 H1621 0.950 . S
C1648 C1634 1.377 . S
C1648 C1647 1.373 . S
C1649 C1633 1.377 . S
C1649 C1647 1.389 . S
C1649 C1650 1.524 . S
C1650 C1649 1.524 . S
C1650 C1651 1.397 . S
C1650 C1655 1.363 . S
C1651 H1622 0.950 . S
C1651 C1650 1.397 . S
C1651 C1652 1.334 . S
C1652 H1623 0.950 . S
C1652 C1651 1.334 . S
C1652 C1653 1.287 . S
C1653 C1652 1.287 . S
C1653 C1654 1.524 . S
C1653 H1656 0.999 . S
C1654 H1624 0.950 . S
C1654 C1653 1.524 . S
C1654 C1655 1.415 . S
C1655 H1625 0.950 . S
C1655 C1650 1.363 . S
C1655 C1654 1.415 . S
H1656 C1653 0.999 . S
H1657 C1638 0.913 . S
H1658 C1676 0.951 . S
H1659 C1678 0.951 . S
H1660 C1680 0.950 . S
H1661 C1681 0.950 . S
H1662 C1683 0.950 . S
H1663 C1686 0.950 . S
H1664 C1687 0.950 . S
H1665 C1689 0.950 . S
H1666 C1690 0.950 . S
H1667 C1691 0.951 . S
H1668 C1693 0.951 . S
H1669 C1695 0.950 . S
H1670 C1696 0.950 . S
H1671 C1698 0.950 . S
H1672 C1701 0.950 . S
H1673 C1702 0.950 . S
H1674 C1704 0.950 . S
H1675 C1705 0.950 . S
C1676 H1658 0.951 . S
C1676 C1677 1.366 . S
C1676 C1678 1.388 . S
C1677 C1676 1.366 . S
C1677 C1681 1.385 . S
C1678 H1659 0.951 . S
C1678 C1676 1.388 . S
C1678 C1679 1.366 . S
C1679 C1678 1.366 . S
C1679 C1680 1.414 . S
C1679 C1682 1.499 . S
C1680 H1660 0.950 . S
C1680 C1679 1.414 . S
C1680 C1681 1.374 . S
C1681 H1661 0.950 . S
C1681 C1677 1.385 . S
C1681 C1680 1.374 . S
C1682 C1679 1.499 . S
C1682 C1683 1.373 . S
C1682 C1684 1.389 . S
C1683 H1662 0.950 . S
C1683 C1682 1.373 . S
C1683 C1699 1.377 . S
C1684 C1682 1.389 . S
C1684 C1685 1.524 . S
C1684 C1698 1.377 . S
C1685 C1684 1.524 . S
C1685 C1686 1.397 . S
C1685 C1690 1.363 . S
C1686 H1663 0.950 . S
C1686 C1685 1.397 . S
C1686 C1687 1.334 . S
C1687 H1664 0.950 . S
C1687 C1686 1.334 . S
C1687 C1688 1.287 . S
C1688 C1687 1.287 . S
C1688 C1689 1.524 . S
C1688 H1707 0.913 . S
C1689 H1665 0.950 . S
C1689 C1688 1.524 . S
C1689 C1690 1.415 . S
C1690 H1666 0.950 . S
C1690 C1685 1.363 . S
C1690 C1689 1.415 . S
C1691 H1667 0.951 . S
C1691 C1692 1.366 . S
C1691 C1693 1.388 . S
C1692 C1691 1.366 . S
C1692 C1696 1.385 . S
C1693 H1668 0.951 . S
C1693 C1691 1.388 . S
C1693 C1694 1.366 . S
C1694 C1693 1.366 . S
C1694 C1695 1.414 . S
C1694 C1697 1.499 . S
C1695 H1669 0.950 . S
C1695 C1694 1.414 . S
C1695 C1696 1.374 . S
C1696 H1670 0.950 . S
C1696 C1692 1.385 . S
C1696 C1695 1.374 . S
C1697 C1694 1.499 . S
C1697 C1698 1.373 . S
C1697 C1699 1.389 . S
C1698 H1671 0.950 . S
C1698 C1684 1.377 . S
C1698 C1697 1.373 . S
C1699 C1683 1.377 . S
C1699 C1697 1.389 . S
C1699 C1700 1.524 . S
C1700 C1699 1.524 . S
C1700 C1701 1.397 . S
C1700 C1705 1.363 . S
C1701 H1672 0.950 . S
C1701 C1700 1.397 . S
C1701 C1702 1.334 . S
C1702 H1673 0.950 . S
C1702 C1701 1.334 . S
C1702 C1703 1.287 . S
C1703 C1702 1.287 . S
C1703 C1704 1.524 . S
C1703 H1706 0.999 . S
C1704 H1674 0.950 . S
C1704 C1703 1.524 . S
C1704 C1705 1.415 . S
C1705 H1675 0.950 . S
C1705 C1700 1.363 . S
C1705 C1704 1.415 . S
H1706 C1703 0.999 . S
H1707 C1688 0.913 . S
H1708 C1726 0.951 . S
H1709 C1728 0.951 . S
H1710 C1730 0.950 . S
H1711 C1731 0.950 . S
H1712 C1733 0.950 . S
H1713 C1736 0.950 . S
H1714 C1737 0.950 . S
H1715 C1739 0.950 . S
H1716 C1740 0.950 . S
H1717 C1741 0.951 . S
H1718 C1743 0.951 . S
H1719 C1745 0.950 . S
H1720 C1746 0.950 . S
H1721 C1748 0.950 . S
H1722 C1751 0.950 . S
H1723 C1752 0.950 . S
H1724 C1754 0.950 . S
H1725 C1755 0.950 . S
C1726 H1708 0.951 . S
C1726 C1727 1.366 . S
C1726 C1728 1.388 . S
C1727 C1726 1.366 . S
C1727 C1731 1.385 . S
C1728 H1709 0.951 . S
C1728 C1726 1.388 . S
C1728 C1729 1.366 . S
C1729 C1728 1.366 . S
C1729 C1730 1.414 . S
C1729 C1732 1.499 . S
C1730 H1710 0.950 . S
C1730 C1729 1.414 . S
C1730 C1731 1.374 . S
C1731 H1711 0.950 . S
C1731 C1727 1.385 . S
C1731 C1730 1.374 . S
C1732 C1729 1.499 . S
C1732 C1733 1.373 . S
C1732 C1734 1.389 . S
C1733 H1712 0.950 . S
C1733 C1732 1.373 . S
C1733 C1749 1.377 . S
C1734 C1732 1.389 . S
C1734 C1735 1.524 . S
C1734 C1748 1.377 . S
C1735 C1734 1.524 . S
C1735 C1736 1.397 . S
C1735 C1740 1.363 . S
C1736 H1713 0.950 . S
C1736 C1735 1.397 . S
C1736 C1737 1.334 . S
C1737 H1714 0.950 . S
C1737 C1736 1.334 . S
C1737 C1738 1.287 . S
C1738 C1737 1.287 . S
C1738 C1739 1.524 . S
C1738 H1757 0.913 . S
C1739 H1715 0.950 . S
C1739 C1738 1.524 . S
C1739 C1740 1.415 . S
C1740 H1716 0.950 . S
C1740 C1735 1.363 . S
C1740 C1739 1.415 . S
C1741 H1717 0.951 . S
C1741 C1742 1.366 . S
C1741 C1743 1.388 . S
C1742 C1741 1.366 . S
C1742 C1746 1.385 . S
C1743 H1718 0.951 . S
C1743 C1741 1.388 . S
C1743 C1744 1.366 . S
C1744 C1743 1.366 . S
C1744 C1745 1.414 . S
C1744 C1747 1.499 . S
C1745 H1719 0.950 . S
C1745 C1744 1.414 . S
C1745 C1746 1.374 . S
C1746 H1720 0.950 . S
C1746 C1742 1.385 . S
C1746 C1745 1.374 . S
C1747 C1744 1.499 . S
C1747 C1748 1.373 . S
C1747 C1749 1.389 . S
C1748 H1721 0.950 . S
C1748 C1734 1.377 . S
C1748 C1747 1.373 . S
C1749 C1733 1.377 . S
C1749 C1747 1.389 . S
C1749 C1750 1.524 . S
C1750 C1749 1.524 . S
C1750 C1751 1.397 . S
C1750 C1755 1.363 . S
C1751 H1722 0.950 . S
C1751 C1750 1.397 . S
C1751 C1752 1.334 . S
C1752 H1723 0.950 . S
C1752 C1751 1.334 . S
C1752 C1753 1.287 . S
C1753 C1752 1.287 . S
C1753 C1754 1.524 . S
C1753 H1756 0.999 . S
C1754 H1724 0.950 . S
C1754 C1753 1.524 . S
C1754 C1755 1.415 . S
C1755 H1725 0.950 . S
C1755 C1750 1.363 . S
C1755 C1754 1.415 . S
H1756 C1753 0.999 . S
H1757 C1738 0.913 . S
H1758 C1776 0.951 . S
H1759 C1778 0.951 . S
H1760 C1780 0.950 . S
H1761 C1781 0.950 . S
H1762 C1783 0.950 . S
H1763 C1786 0.950 . S
H1764 C1787 0.950 . S
H1765 C1789 0.950 . S
H1766 C1790 0.950 . S
H1767 C1791 0.951 . S
H1768 C1793 0.951 . S
H1769 C1795 0.950 . S
H1770 C1796 0.950 . S
H1771 C1798 0.950 . S
H1772 C1801 0.950 . S
H1773 C1802 0.950 . S
H1774 C1804 0.950 . S
H1775 C1805 0.950 . S
C1776 H1758 0.951 . S
C1776 C1777 1.366 . S
C1776 C1778 1.388 . S
C1777 C1776 1.366 . S
C1777 C1781 1.385 . S
C1778 H1759 0.951 . S
C1778 C1776 1.388 . S
C1778 C1779 1.366 . S
C1779 C1778 1.366 . S
C1779 C1780 1.414 . S
C1779 C1782 1.499 . S
C1780 H1760 0.950 . S
C1780 C1779 1.414 . S
C1780 C1781 1.374 . S
C1781 H1761 0.950 . S
C1781 C1777 1.385 . S
C1781 C1780 1.374 . S
C1782 C1779 1.499 . S
C1782 C1783 1.373 . S
C1782 C1784 1.389 . S
C1783 H1762 0.950 . S
C1783 C1782 1.373 . S
C1783 C1799 1.377 . S
C1784 C1782 1.389 . S
C1784 C1785 1.524 . S
C1784 C1798 1.377 . S
C1785 C1784 1.524 . S
C1785 C1786 1.397 . S
C1785 C1790 1.363 . S
C1786 H1763 0.950 . S
C1786 C1785 1.397 . S
C1786 C1787 1.334 . S
C1787 H1764 0.950 . S
C1787 C1786 1.334 . S
C1787 C1788 1.287 . S
C1788 C1787 1.287 . S
C1788 C1789 1.524 . S
C1788 H1807 0.913 . S
C1789 H1765 0.950 . S
C1789 C1788 1.524 . S
C1789 C1790 1.415 . S
C1790 H1766 0.950 . S
C1790 C1785 1.363 . S
C1790 C1789 1.415 . S
C1791 H1767 0.951 . S
C1791 C1792 1.366 . S
C1791 C1793 1.388 . S
C1792 C1791 1.366 . S
C1792 C1796 1.385 . S
C1793 H1768 0.951 . S
C1793 C1791 1.388 . S
C1793 C1794 1.366 . S
C1794 C1793 1.366 . S
C1794 C1795 1.414 . S
C1794 C1797 1.499 . S
C1795 H1769 0.950 . S
C1795 C1794 1.414 . S
C1795 C1796 1.374 . S
C1796 H1770 0.950 . S
C1796 C1792 1.385 . S
C1796 C1795 1.374 . S
C1797 C1794 1.499 . S
C1797 C1798 1.373 . S
C1797 C1799 1.389 . S
C1798 H1771 0.950 . S
C1798 C1784 1.377 . S
C1798 C1797 1.373 . S
C1799 C1783 1.377 . S
C1799 C1797 1.389 . S
C1799 C1800 1.524 . S
C1800 C1799 1.524 . S
C1800 C1801 1.397 . S
C1800 C1805 1.363 . S
C1801 H1772 0.950 . S
C1801 C1800 1.397 . S
C1801 C1802 1.334 . S
C1802 H1773 0.950 . S
C1802 C1801 1.334 . S
C1802 C1803 1.287 . S
C1803 C1802 1.287 . S
C1803 C1804 1.524 . S
C1803 H1806 0.999 . S
C1804 H1774 0.950 . S
C1804 C1803 1.524 . S
C1804 C1805 1.415 . S
C1805 H1775 0.950 . S
C1805 C1800 1.363 . S
C1805 C1804 1.415 . S
H1806 C1803 0.999 . S
H1807 C1788 0.913 . S
H1808 C1826 0.951 . S
H1809 C1828 0.951 . S
H1810 C1830 0.950 . S
H1811 C1831 0.950 . S
H1812 C1833 0.950 . S
H1813 C1836 0.950 . S
H1814 C1837 0.950 . S
H1815 C1839 0.950 . S
H1816 C1840 0.950 . S
H1817 C1841 0.951 . S
H1818 C1843 0.951 . S
H1819 C1845 0.950 . S
H1820 C1846 0.950 . S
H1821 C1848 0.950 . S
H1822 C1851 0.950 . S
H1823 C1852 0.950 . S
H1824 C1854 0.950 . S
H1825 C1855 0.950 . S
C1826 H1808 0.951 . S
C1826 C1827 1.366 . S
C1826 C1828 1.388 . S
C1827 C1826 1.366 . S
C1827 C1831 1.385 . S
C1828 H1809 0.951 . S
C1828 C1826 1.388 . S
C1828 C1829 1.366 . S
C1829 C1828 1.366 . S
C1829 C1830 1.414 . S
C1829 C1832 1.499 . S
C1830 H1810 0.950 . S
C1830 C1829 1.414 . S
C1830 C1831 1.374 . S
C1831 H1811 0.950 . S
C1831 C1827 1.385 . S
C1831 C1830 1.374 . S
C1832 C1829 1.499 . S
C1832 C1833 1.373 . S
C1832 C1834 1.389 . S
C1833 H1812 0.950 . S
C1833 C1832 1.373 . S
C1833 C1849 1.377 . S
C1834 C1832 1.389 . S
C1834 C1835 1.524 . S
C1834 C1848 1.377 . S
C1835 C1834 1.524 . S
C1835 C1836 1.397 . S
C1835 C1840 1.363 . S
C1836 H1813 0.950 . S
C1836 C1835 1.397 . S
C1836 C1837 1.334 . S
C1837 H1814 0.950 . S
C1837 C1836 1.334 . S
C1837 C1838 1.287 . S
C1838 C1837 1.287 . S
C1838 C1839 1.524 . S
C1838 H1857 0.913 . S
C1839 H1815 0.950 . S
C1839 C1838 1.524 . S
C1839 C1840 1.415 . S
C1840 H1816 0.950 . S
C1840 C1835 1.363 . S
C1840 C1839 1.415 . S
C1841 H1817 0.951 . S
C1841 C1842 1.366 . S
C1841 C1843 1.388 . S
C1842 C1841 1.366 . S
C1842 C1846 1.385 . S
C1843 H1818 0.951 . S
C1843 C1841 1.388 . S
C1843 C1844 1.366 . S
C1844 C1843 1.366 . S
C1844 C1845 1.414 . S
C1844 C1847 1.499 . S
C1845 H1819 0.950 . S
C1845 C1844 1.414 . S
C1845 C1846 1.374 . S
C1846 H1820 0.950 . S
C1846 C1842 1.385 . S
C1846 C1845 1.374 . S
C1847 C1844 1.499 . S
C1847 C1848 1.373 . S
C1847 C1849 1.389 . S
C1848 H1821 0.950 . S
C1848 C1834 1.377 . S
C1848 C1847 1.373 . S
C1849 C1833 1.377 . S
C1849 C1847 1.389 . S
C1849 C1850 1.524 . S
C1850 C1849 1.524 . S
C1850 C1851 1.397 . S
C1850 C1855 1.363 . S
C1851 H1822 0.950 . S
C1851 C1850 1.397 . S
C1851 C1852 1.334 . S
C1852 H1823 0.950 . S
C1852 C1851 1.334 . S
C1852 C1853 1.287 . S
C1853 C1852 1.287 . S
C1853 C1854 1.524 . S
C1853 H1856 0.999 . S
C1854 H1824 0.950 . S
C1854 C1853 1.524 . S
C1854 C1855 1.415 . S
C1855 H1825 0.950 . S
C1855 C1850 1.363 . S
C1855 C1854 1.415 . S
H1856 C1853 0.999 . S
H1857 C1838 0.913 . S
H1858 C1876 0.951 . S
H1859 C1878 0.951 . S
H1860 C1880 0.950 . S
H1861 C1881 0.950 . S
H1862 C1883 0.950 . S
H1863 C1886 0.950 . S
H1864 C1887 0.950 . S
H1865 C1889 0.950 . S
H1866 C1890 0.950 . S
H1867 C1891 0.951 . S
H1868 C1893 0.951 . S
H1869 C1895 0.950 . S
H1870 C1896 0.950 . S
H1871 C1898 0.950 . S
H1872 C1901 0.950 . S
H1873 C1902 0.950 . S
H1874 C1904 0.950 . S
H1875 C1905 0.950 . S
C1876 H1858 0.951 . S
C1876 C1877 1.366 . S
C1876 C1878 1.388 . S
C1877 C1876 1.366 . S
C1877 C1881 1.385 . S
C1878 H1859 0.951 . S
C1878 C1876 1.388 . S
C1878 C1879 1.366 . S
C1879 C1878 1.366 . S
C1879 C1880 1.414 . S
C1879 C1882 1.499 . S
C1880 H1860 0.950 . S
C1880 C1879 1.414 . S
C1880 C1881 1.374 . S
C1881 H1861 0.950 . S
C1881 C1877 1.385 . S
C1881 C1880 1.374 . S
C1882 C1879 1.499 . S
C1882 C1883 1.373 . S
C1882 C1884 1.389 . S
C1883 H1862 0.950 . S
C1883 C1882 1.373 . S
C1883 C1899 1.377 . S
C1884 C1882 1.389 . S
C1884 C1885 1.524 . S
C1884 C1898 1.377 . S
C1885 C1884 1.524 . S
C1885 C1886 1.397 . S
C1885 C1890 1.363 . S
C1886 H1863 0.950 . S
C1886 C1885 1.397 . S
C1886 C1887 1.334 . S
C1887 H1864 0.950 . S
C1887 C1886 1.334 . S
C1887 C1888 1.287 . S
C1888 C1887 1.287 . S
C1888 C1889 1.524 . S
C1888 H1907 0.913 . S
C1889 H1865 0.950 . S
C1889 C1888 1.524 . S
C1889 C1890 1.415 . S
C1890 H1866 0.950 . S
C1890 C1885 1.363 . S
C1890 C1889 1.415 . S
C1891 H1867 0.951 . S
C1891 C1892 1.366 . S
C1891 C1893 1.388 . S
C1892 C1891 1.366 . S
C1892 C1896 1.385 . S
C1893 H1868 0.951 . S
C1893 C1891 1.388 . S
C1893 C1894 1.366 . S
C1894 C1893 1.366 . S
C1894 C1895 1.414 . S
C1894 C1897 1.499 . S
C1895 H1869 0.950 . S
C1895 C1894 1.414 . S
C1895 C1896 1.374 . S
C1896 H1870 0.950 . S
C1896 C1892 1.385 . S
C1896 C1895 1.374 . S
C1897 C1894 1.499 . S
C1897 C1898 1.373 . S
C1897 C1899 1.389 . S
C1898 H1871 0.950 . S
C1898 C1884 1.377 . S
C1898 C1897 1.373 . S
C1899 C1883 1.377 . S
C1899 C1897 1.389 . S
C1899 C1900 1.524 . S
C1900 C1899 1.524 . S
C1900 C1901 1.397 . S
C1900 C1905 1.363 . S
C1901 H1872 0.950 . S
C1901 C1900 1.397 . S
C1901 C1902 1.334 . S
C1902 H1873 0.950 . S
C1902 C1901 1.334 . S
C1902 C1903 1.287 . S
C1903 C1902 1.287 . S
C1903 C1904 1.524 . S
C1903 H1906 0.999 . S
C1904 H1874 0.950 . S
C1904 C1903 1.524 . S
C1904 C1905 1.415 . S
C1905 H1875 0.950 . S
C1905 C1900 1.363 . S
C1905 C1904 1.415 . S
H1906 C1903 0.999 . S
H1907 C1888 0.913 . S
H1908 C1926 0.951 . S
H1909 C1928 0.951 . S
H1910 C1930 0.950 . S
H1911 C1931 0.950 . S
H1912 C1933 0.950 . S
H1913 C1936 0.950 . S
H1914 C1937 0.950 . S
H1915 C1939 0.950 . S
H1916 C1940 0.950 . S
H1917 C1941 0.951 . S
H1918 C1943 0.951 . S
H1919 C1945 0.950 . S
H1920 C1946 0.950 . S
H1921 C1948 0.950 . S
H1922 C1951 0.950 . S
H1923 C1952 0.950 . S
H1924 C1954 0.950 . S
H1925 C1955 0.950 . S
C1926 H1908 0.951 . S
C1926 C1927 1.366 . S
C1926 C1928 1.388 . S
C1927 C1926 1.366 . S
C1927 C1931 1.385 . S
C1928 H1909 0.951 . S
C1928 C1926 1.388 . S
C1928 C1929 1.366 . S
C1929 C1928 1.366 . S
C1929 C1930 1.414 . S
C1929 C1932 1.499 . S
C1930 H1910 0.950 . S
C1930 C1929 1.414 . S
C1930 C1931 1.374 . S
C1931 H1911 0.950 . S
C1931 C1927 1.385 . S
C1931 C1930 1.374 . S
C1932 C1929 1.499 . S
C1932 C1933 1.373 . S
C1932 C1934 1.389 . S
C1933 H1912 0.950 . S
C1933 C1932 1.373 . S
C1933 C1949 1.377 . S
C1934 C1932 1.389 . S
C1934 C1935 1.524 . S
C1934 C1948 1.377 . S
C1935 C1934 1.524 . S
C1935 C1936 1.397 . S
C1935 C1940 1.363 . S
C1936 H1913 0.950 . S
C1936 C1935 1.397 . S
C1936 C1937 1.334 . S
C1937 H1914 0.950 . S
C1937 C1936 1.334 . S
C1937 C1938 1.287 . S
C1938 C1937 1.287 . S
C1938 C1939 1.524 . S
C1938 H1957 0.913 . S
C1939 H1915 0.950 . S
C1939 C1938 1.524 . S
C1939 C1940 1.415 . S
C1940 H1916 0.950 . S
C1940 C1935 1.363 . S
C1940 C1939 1.415 . S
C1941 H1917 0.951 . S
C1941 C1942 1.366 . S
C1941 C1943 1.388 . S
C1942 C1941 1.366 . S
C1942 C1946 1.385 . S
C1943 H1918 0.951 . S
C1943 C1941 1.388 . S
C1943 C1944 1.366 . S
C1944 C1943 1.366 . S
C1944 C1945 1.414 . S
C1944 C1947 1.499 . S
C1945 H1919 0.950 . S
C1945 C1944 1.414 . S
C1945 C1946 1.374 . S
C1946 H1920 0.950 . S
C1946 C1942 1.385 . S
C1946 C1945 1.374 . S
C1947 C1944 1.499 . S
C1947 C1948 1.373 . S
C1947 C1949 1.389 . S
C1948 H1921 0.950 . S
C1948 C1934 1.377 . S
C1948 C1947 1.373 . S
C1949 C1933 1.377 . S
C1949 C1947 1.389 . S
C1949 C1950 1.524 . S
C1950 C1949 1.524 . S
C1950 C1951 1.397 . S
C1950 C1955 1.363 . S
C1951 H1922 0.950 . S
C1951 C1950 1.397 . S
C1951 C1952 1.334 . S
C1952 H1923 0.950 . S
C1952 C1951 1.334 . S
C1952 C1953 1.287 . S
C1953 C1952 1.287 . S
C1953 C1954 1.524 . S
C1953 H1956 0.999 . S
C1954 H1924 0.950 . S
C1954 C1953 1.524 . S
C1954 C1955 1.415 . S
C1955 H1925 0.950 . S
C1955 C1950 1.363 . S
C1955 C1954 1.415 . S
H1956 C1953 0.999 . S
H1957 C1938 0.913 . S
H1958 C1976 0.951 . S
H1959 C1978 0.951 . S
H1960 C1980 0.950 . S
H1961 C1981 0.950 . S
H1962 C1983 0.950 . S
H1963 C1986 0.950 . S
H1964 C1987 0.950 . S
H1965 C1989 0.950 . S
H1966 C1990 0.950 . S
H1967 C1991 0.951 . S
H1968 C1993 0.951 . S
H1969 C1995 0.950 . S
H1970 C1996 0.950 . S
H1971 C1998 0.950 . S
H1972 C2001 0.950 . S
H1973 C2002 0.950 . S
H1974 C2004 0.950 . S
H1975 C2005 0.950 . S
C1976 H1958 0.951 . S
C1976 C1977 1.366 . S
C1976 C1978 1.388 . S
C1977 C1976 1.366 . S
C1977 C1981 1.385 . S
C1978 H1959 0.951 . S
C1978 C1976 1.388 . S
C1978 C1979 1.366 . S
C1979 C1978 1.366 . S
C1979 C1980 1.414 . S
C1979 C1982 1.499 . S
C1980 H1960 0.950 . S
C1980 C1979 1.414 . S
C1980 C1981 1.374 . S
C1981 H1961 0.950 . S
C1981 C1977 1.385 . S
C1981 C1980 1.374 . S
C1982 C1979 1.499 . S
C1982 C1983 1.373 . S
C1982 C1984 1.389 . S
C1983 H1962 0.950 . S
C1983 C1982 1.373 . S
C1983 C1999 1.377 . S
C1984 C1982 1.389 . S
C1984 C1985 1.524 . S
C1984 C1998 1.377 . S
C1985 C1984 1.524 . S
C1985 C1986 1.397 . S
C1985 C1990 1.363 . S
C1986 H1963 0.950 . S
C1986 C1985 1.397 . S
C1986 C1987 1.334 . S
C1987 H1964 0.950 . S
C1987 C1986 1.334 . S
C1987 C1988 1.287 . S
C1988 C1987 1.287 . S
C1988 C1989 1.524 . S
C1988 H2007 0.913 . S
C1989 H1965 0.950 . S
C1989 C1988 1.524 . S
C1989 C1990 1.415 . S
C1990 H1966 0.950 . S
C1990 C1985 1.363 . S
C1990 C1989 1.415 . S
C1991 H1967 0.951 . S
C1991 C1992 1.366 . S
C1991 C1993 1.388 . S
C1992 C1991 1.366 . S
C1992 C1996 1.385 . S
C1993 H1968 0.951 . S
C1993 C1991 1.388 . S
C1993 C1994 1.366 . S
C1994 C1993 1.366 . S
C1994 C1995 1.414 . S
C1994 C1997 1.499 . S
C1995 H1969 0.950 . S
C1995 C1994 1.414 . S
C1995 C1996 1.374 . S
C1996 H1970 0.950 . S
C1996 C1992 1.385 . S
C1996 C1995 1.374 . S
C1997 C1994 1.499 . S
C1997 C1998 1.373 . S
C1997 C1999 1.389 . S
C1998 H1971 0.950 . S
C1998 C1984 1.377 . S
C1998 C1997 1.373 . S
C1999 C1983 1.377 . S
C1999 C1997 1.389 . S
C1999 C2000 1.524 . S
C2000 C1999 1.524 . S
C2000 C2001 1.397 . S
C2000 C2005 1.363 . S
C2001 H1972 0.950 . S
C2001 C2000 1.397 . S
C2001 C2002 1.334 . S
C2002 H1973 0.950 . S
C2002 C2001 1.334 . S
C2002 C2003 1.287 . S
C2003 C2002 1.287 . S
C2003 C2004 1.524 . S
C2003 H2006 0.999 . S
C2004 H1974 0.950 . S
C2004 C2003 1.524 . S
C2004 C2005 1.415 . S
C2005 H1975 0.950 . S
C2005 C2000 1.363 . S
C2005 C2004 1.415 . S
H2006 C2003 0.999 . S
H2007 C1988 0.913 . S
H2008 C2026 0.951 . S
H2009 C2028 0.951 . S
H2010 C2030 0.950 . S
H2011 C2031 0.950 . S
H2012 C2033 0.950 . S
H2013 C2036 0.950 . S
H2014 C2037 0.950 . S
H2015 C2039 0.950 . S
H2016 C2040 0.950 . S
H2017 C2041 0.951 . S
H2018 C2043 0.951 . S
H2019 C2045 0.950 . S
H2020 C2046 0.950 . S
H2021 C2048 0.950 . S
H2022 C2051 0.950 . S
H2023 C2052 0.950 . S
H2024 C2054 0.950 . S
H2025 C2055 0.950 . S
C2026 H2008 0.951 . S
C2026 C2027 1.366 . S
C2026 C2028 1.388 . S
C2027 C2026 1.366 . S
C2027 C2031 1.385 . S
C2028 H2009 0.951 . S
C2028 C2026 1.388 . S
C2028 C2029 1.366 . S
C2029 C2028 1.366 . S
C2029 C2030 1.414 . S
C2029 C2032 1.499 . S
C2030 H2010 0.950 . S
C2030 C2029 1.414 . S
C2030 C2031 1.374 . S
C2031 H2011 0.950 . S
C2031 C2027 1.385 . S
C2031 C2030 1.374 . S
C2032 C2029 1.499 . S
C2032 C2033 1.373 . S
C2032 C2034 1.389 . S
C2033 H2012 0.950 . S
C2033 C2032 1.373 . S
C2033 C2049 1.377 . S
C2034 C2032 1.389 . S
C2034 C2035 1.524 . S
C2034 C2048 1.377 . S
C2035 C2034 1.524 . S
C2035 C2036 1.397 . S
C2035 C2040 1.363 . S
C2036 H2013 0.950 . S
C2036 C2035 1.397 . S
C2036 C2037 1.334 . S
C2037 H2014 0.950 . S
C2037 C2036 1.334 . S
C2037 C2038 1.287 . S
C2038 C2037 1.287 . S
C2038 C2039 1.524 . S
C2038 H2057 0.913 . S
C2039 H2015 0.950 . S
C2039 C2038 1.524 . S
C2039 C2040 1.415 . S
C2040 H2016 0.950 . S
C2040 C2035 1.363 . S
C2040 C2039 1.415 . S
C2041 H2017 0.951 . S
C2041 C2042 1.366 . S
C2041 C2043 1.388 . S
C2042 C2041 1.366 . S
C2042 C2046 1.385 . S
C2043 H2018 0.951 . S
C2043 C2041 1.388 . S
C2043 C2044 1.366 . S
C2044 C2043 1.366 . S
C2044 C2045 1.414 . S
C2044 C2047 1.499 . S
C2045 H2019 0.950 . S
C2045 C2044 1.414 . S
C2045 C2046 1.374 . S
C2046 H2020 0.950 . S
C2046 C2042 1.385 . S
C2046 C2045 1.374 . S
C2047 C2044 1.499 . S
C2047 C2048 1.373 . S
C2047 C2049 1.389 . S
C2048 H2021 0.950 . S
C2048 C2034 1.377 . S
C2048 C2047 1.373 . S
C2049 C2033 1.377 . S
C2049 C2047 1.389 . S
C2049 C2050 1.524 . S
C2050 C2049 1.524 . S
C2050 C2051 1.397 . S
C2050 C2055 1.363 . S
C2051 H2022 0.950 . S
C2051 C2050 1.397 . S
C2051 C2052 1.334 . S
C2052 H2023 0.950 . S
C2052 C2051 1.334 . S
C2052 C2053 1.287 . S
C2053 C2052 1.287 . S
C2053 C2054 1.524 . S
C2053 H2056 0.999 . S
C2054 H2024 0.950 . S
C2054 C2053 1.524 . S
C2054 C2055 1.415 . S
C2055 H2025 0.950 . S
C2055 C2050 1.363 . S
C2055 C2054 1.415 . S
H2056 C2053 0.999 . S
H2057 C2038 0.913 . S
H2058 C2076 0.951 . S
H2059 C2078 0.951 . S
H2060 C2080 0.950 . S
H2061 C2081 0.950 . S
H2062 C2083 0.950 . S
H2063 C2086 0.950 . S
H2064 C2087 0.950 . S
H2065 C2089 0.950 . S
H2066 C2090 0.950 . S
H2067 C2091 0.951 . S
H2068 C2093 0.951 . S
H2069 C2095 0.950 . S
H2070 C2096 0.950 . S
H2071 C2098 0.950 . S
H2072 C2101 0.950 . S
H2073 C2102 0.950 . S
H2074 C2104 0.950 . S
H2075 C2105 0.950 . S
C2076 H2058 0.951 . S
C2076 C2077 1.366 . S
C2076 C2078 1.388 . S
C2077 C2076 1.366 . S
C2077 C2081 1.385 . S
C2078 H2059 0.951 . S
C2078 C2076 1.388 . S
C2078 C2079 1.366 . S
C2079 C2078 1.366 . S
C2079 C2080 1.414 . S
C2079 C2082 1.499 . S
C2080 H2060 0.950 . S
C2080 C2079 1.414 . S
C2080 C2081 1.374 . S
C2081 H2061 0.950 . S
C2081 C2077 1.385 . S
C2081 C2080 1.374 . S
C2082 C2079 1.499 . S
C2082 C2083 1.373 . S
C2082 C2084 1.389 . S
C2083 H2062 0.950 . S
C2083 C2082 1.373 . S
C2083 C2099 1.377 . S
C2084 C2082 1.389 . S
C2084 C2085 1.524 . S
C2084 C2098 1.377 . S
C2085 C2084 1.524 . S
C2085 C2086 1.397 . S
C2085 C2090 1.363 . S
C2086 H2063 0.950 . S
C2086 C2085 1.397 . S
C2086 C2087 1.334 . S
C2087 H2064 0.950 . S
C2087 C2086 1.334 . S
C2087 C2088 1.287 . S
C2088 C2087 1.287 . S
C2088 C2089 1.524 . S
C2088 H2107 0.913 . S
C2089 H2065 0.950 . S
C2089 C2088 1.524 . S
C2089 C2090 1.415 . S
C2090 H2066 0.950 . S
C2090 C2085 1.363 . S
C2090 C2089 1.415 . S
C2091 H2067 0.951 . S
C2091 C2092 1.366 . S
C2091 C2093 1.388 . S
C2092 C2091 1.366 . S
C2092 C2096 1.385 . S
C2093 H2068 0.951 . S
C2093 C2091 1.388 . S
C2093 C2094 1.366 . S
C2094 C2093 1.366 . S
C2094 C2095 1.414 . S
C2094 C2097 1.499 . S
C2095 H2069 0.950 . S
C2095 C2094 1.414 . S
C2095 C2096 1.374 . S
C2096 H2070 0.950 . S
C2096 C2092 1.385 . S
C2096 C2095 1.374 . S
C2097 C2094 1.499 . S
C2097 C2098 1.373 . S
C2097 C2099 1.389 . S
C2098 H2071 0.950 . S
C2098 C2084 1.377 . S
C2098 C2097 1.373 . S
C2099 C2083 1.377 . S
C2099 C2097 1.389 . S
C2099 C2100 1.524 . S
C2100 C2099 1.524 . S
C2100 C2101 1.397 . S
C2100 C2105 1.363 . S
C2101 H2072 0.950 . S
C2101 C2100 1.397 . S
C2101 C2102 1.334 . S
C2102 H2073 0.950 . S
C2102 C2101 1.334 . S
C2102 C2103 1.287 . S
C2103 C2102 1.287 . S
C2103 C2104 1.524 . S
C2103 H2106 0.999 . S
C2104 H2074 0.950 . S
C2104 C2103 1.524 . S
C2104 C2105 1.415 . S
C2105 H2075 0.950 . S
C2105 C2100 1.363 . S
C2105 C2104 1.415 . S
H2106 C2103 0.999 . S
H2107 C2088 0.913 . S
H2108 C2126 0.951 . S
H2109 C2128 0.951 . S
H2110 C2130 0.950 . S
H2111 C2131 0.950 . S
H2112 C2133 0.950 . S
H2113 C2136 0.950 . S
H2114 C2137 0.950 . S
H2115 C2139 0.950 . S
H2116 C2140 0.950 . S
H2117 C2141 0.951 . S
H2118 C2143 0.951 . S
H2119 C2145 0.950 . S
H2120 C2146 0.950 . S
H2121 C2148 0.950 . S
H2122 C2151 0.950 . S
H2123 C2152 0.950 . S
H2124 C2154 0.950 . S
H2125 C2155 0.950 . S
C2126 H2108 0.951 . S
C2126 C2127 1.366 . S
C2126 C2128 1.388 . S
C2127 C2126 1.366 . S
C2127 C2131 1.385 . S
C2128 H2109 0.951 . S
C2128 C2126 1.388 . S
C2128 C2129 1.366 . S
C2129 C2128 1.366 . S
C2129 C2130 1.414 . S
C2129 C2132 1.499 . S
C2130 H2110 0.950 . S
C2130 C2129 1.414 . S
C2130 C2131 1.374 . S
C2131 H2111 0.950 . S
C2131 C2127 1.385 . S
C2131 C2130 1.374 . S
C2132 C2129 1.499 . S
C2132 C2133 1.373 . S
C2132 C2134 1.389 . S
C2133 H2112 0.950 . S
C2133 C2132 1.373 . S
C2133 C2149 1.377 . S
C2134 C2132 1.389 . S
C2134 C2135 1.524 . S
C2134 C2148 1.377 . S
C2135 C2134 1.524 . S
C2135 C2136 1.397 . S
C2135 C2140 1.363 . S
C2136 H2113 0.950 . S
C2136 C2135 1.397 . S
C2136 C2137 1.334 . S
C2137 H2114 0.950 . S
C2137 C2136 1.334 . S
C2137 C2138 1.287 . S
C2138 C2137 1.287 . S
C2138 C2139 1.524 . S
C2138 H2157 0.913 . S
C2139 H2115 0.950 . S
C2139 C2138 1.524 . S
C2139 C2140 1.415 . S
C2140 H2116 0.950 . S
C2140 C2135 1.363 . S
C2140 C2139 1.415 . S
C2141 H2117 0.951 . S
C2141 C2142 1.366 . S
C2141 C2143 1.388 . S
C2142 C2141 1.366 . S
C2142 C2146 1.385 . S
C2143 H2118 0.951 . S
C2143 C2141 1.388 . S
C2143 C2144 1.366 . S
C2144 C2143 1.366 . S
C2144 C2145 1.414 . S
C2144 C2147 1.499 . S
C2145 H2119 0.950 . S
C2145 C2144 1.414 . S
C2145 C2146 1.374 . S
C2146 H2120 0.950 . S
C2146 C2142 1.385 . S
C2146 C2145 1.374 . S
C2147 C2144 1.499 . S
C2147 C2148 1.373 . S
C2147 C2149 1.389 . S
C2148 H2121 0.950 . S
C2148 C2134 1.377 . S
C2148 C2147 1.373 . S
C2149 C2133 1.377 . S
C2149 C2147 1.389 . S
C2149 C2150 1.524 . S
C2150 C2149 1.524 . S
C2150 C2151 1.397 . S
C2150 C2155 1.363 . S
C2151 H2122 0.950 . S
C2151 C2150 1.397 . S
C2151 C2152 1.334 . S
C2152 H2123 0.950 . S
C2152 C2151 1.334 . S
C2152 C2153 1.287 . S
C2153 C2152 1.287 . S
C2153 C2154 1.524 . S
C2153 H2156 0.999 . S
C2154 H2124 0.950 . S
C2154 C2153 1.524 . S
C2154 C2155 1.415 . S
C2155 H2125 0.950 . S
C2155 C2150 1.363 . S
C2155 C2154 1.415 . S
H2156 C2153 0.999 . S
H2157 C2138 0.913 . S
H2158 C2176 0.951 . S
H2159 C2178 0.951 . S
H2160 C2180 0.950 . S
H2161 C2181 0.950 . S
H2162 C2183 0.950 . S
H2163 C2186 0.950 . S
H2164 C2187 0.950 . S
H2165 C2189 0.950 . S
H2166 C2190 0.950 . S
H2167 C2191 0.951 . S
H2168 C2193 0.951 . S
H2169 C2195 0.950 . S
H2170 C2196 0.950 . S
H2171 C2198 0.950 . S
H2172 C2201 0.950 . S
H2173 C2202 0.950 . S
H2174 C2204 0.950 . S
H2175 C2205 0.950 . S
C2176 H2158 0.951 . S
C2176 C2177 1.366 . S
C2176 C2178 1.388 . S
C2177 C2176 1.366 . S
C2177 C2181 1.385 . S
C2178 H2159 0.951 . S
C2178 C2176 1.388 . S
C2178 C2179 1.366 . S
C2179 C2178 1.366 . S
C2179 C2180 1.414 . S
C2179 C2182 1.499 . S
C2180 H2160 0.950 . S
C2180 C2179 1.414 . S
C2180 C2181 1.374 . S
C2181 H2161 0.950 . S
C2181 C2177 1.385 . S
C2181 C2180 1.374 . S
C2182 C2179 1.499 . S
C2182 C2183 1.373 . S
C2182 C2184 1.389 . S
C2183 H2162 0.950 . S
C2183 C2182 1.373 . S
C2183 C2199 1.377 . S
C2184 C2182 1.389 . S
C2184 C2185 1.524 . S
C2184 C2198 1.377 . S
C2185 C2184 1.524 . S
C2185 C2186 1.397 . S
C2185 C2190 1.363 . S
C2186 H2163 0.950 . S
C2186 C2185 1.397 . S
C2186 C2187 1.334 . S
C2187 H2164 0.950 . S
C2187 C2186 1.334 . S
C2187 C2188 1.287 . S
C2188 C2187 1.287 . S
C2188 C2189 1.524 . S
C2188 H2207 0.913 . S
C2189 H2165 0.950 . S
C2189 C2188 1.524 . S
C2189 C2190 1.415 . S
C2190 H2166 0.950 . S
C2190 C2185 1.363 . S
C2190 C2189 1.415 . S
C2191 H2167 0.951 . S
C2191 C2192 1.366 . S
C2191 C2193 1.388 . S
C2192 C2191 1.366 . S
C2192 C2196 1.385 . S
C2193 H2168 0.951 . S
C2193 C2191 1.388 . S
C2193 C2194 1.366 . S
C2194 C2193 1.366 . S
C2194 C2195 1.414 . S
C2194 C2197 1.499 . S
C2195 H2169 0.950 . S
C2195 C2194 1.414 . S
C2195 C2196 1.374 . S
C2196 H2170 0.950 . S
C2196 C2192 1.385 . S
C2196 C2195 1.374 . S
C2197 C2194 1.499 . S
C2197 C2198 1.373 . S
C2197 C2199 1.389 . S
C2198 H2171 0.950 . S
C2198 C2184 1.377 . S
C2198 C2197 1.373 . S
C2199 C2183 1.377 . S
C2199 C2197 1.389 . S
C2199 C2200 1.524 . S
C2200 C2199 1.524 . S
C2200 C2201 1.397 . S
C2200 C2205 1.363 . S
C2201 H2172 0.950 . S
C2201 C2200 1.397 . S
C2201 C2202 1.334 . S
C2202 H2173 0.950 . S
C2202 C2201 1.334 . S
C2202 C2203 1.287 . S
C2203 C2202 1.287 . S
C2203 C2204 1.524 . S
C2203 H2206 0.999 . S
C2204 H2174 0.950 . S
C2204 C2203 1.524 . S
C2204 C2205 1.415 . S
C2205 H2175 0.950 . S
C2205 C2200 1.363 . S
C2205 C2204 1.415 . S
H2206 C2203 0.999 . S
H2207 C2188 0.913 . S
H2208 C2226 0.951 . S
H2209 C2228 0.951 . S
H2210 C2230 0.950 . S
H2211 C2231 0.950 . S
H2212 C2233 0.950 . S
H2213 C2236 0.950 . S
H2214 C2237 0.950 . S
H2215 C2239 0.950 . S
H2216 C2240 0.950 . S
H2217 C2241 0.951 . S
H2218 C2243 0.951 . S
H2219 C2245 0.950 . S
H2220 C2246 0.950 . S
H2221 C2248 0.950 . S
H2222 C2251 0.950 . S
H2223 C2252 0.950 . S
H2224 C2254 0.950 . S
H2225 C2255 0.950 . S
C2226 H2208 0.951 . S
C2226 C2227 1.366 . S
C2226 C2228 1.388 . S
C2227 C2226 1.366 . S
C2227 C2231 1.385 . S
C2228 H2209 0.951 . S
C2228 C2226 1.388 . S
C2228 C2229 1.366 . S
C2229 C2228 1.366 . S
C2229 C2230 1.414 . S
C2229 C2232 1.499 . S
C2230 H2210 0.950 . S
C2230 C2229 1.414 . S
C2230 C2231 1.374 . S
C2231 H2211 0.950 . S
C2231 C2227 1.385 . S
C2231 C2230 1.374 . S
C2232 C2229 1.499 . S
C2232 C2233 1.373 . S
C2232 C2234 1.389 . S
C2233 H2212 0.950 . S
C2233 C2232 1.373 . S
C2233 C2249 1.377 . S
C2234 C2232 1.389 . S
C2234 C2235 1.524 . S
C2234 C2248 1.377 . S
C2235 C2234 1.524 . S
C2235 C2236 1.397 . S
C2235 C2240 1.363 . S
C2236 H2213 0.950 . S
C2236 C2235 1.397 . S
C2236 C2237 1.334 . S
C2237 H2214 0.950 . S
C2237 C2236 1.334 . S
C2237 C2238 1.287 . S
C2238 C2237 1.287 . S
C2238 C2239 1.524 . S
C2238 H2257 0.913 . S
C2239 H2215 0.950 . S
C2239 C2238 1.524 . S
C2239 C2240 1.415 . S
C2240 H2216 0.950 . S
C2240 C2235 1.363 . S
C2240 C2239 1.415 . S
C2241 H2217 0.951 . S
C2241 C2242 1.366 . S
C2241 C2243 1.388 . S
C2242 C2241 1.366 . S
C2242 C2246 1.385 . S
C2243 H2218 0.951 . S
C2243 C2241 1.388 . S
C2243 C2244 1.366 . S
C2244 C2243 1.366 . S
C2244 C2245 1.414 . S
C2244 C2247 1.499 . S
C2245 H2219 0.950 . S
C2245 C2244 1.414 . S
C2245 C2246 1.374 . S
C2246 H2220 0.950 . S
C2246 C2242 1.385 . S
C2246 C2245 1.374 . S
C2247 C2244 1.499 . S
C2247 C2248 1.373 . S
C2247 C2249 1.389 . S
C2248 H2221 0.950 . S
C2248 C2234 1.377 . S
C2248 C2247 1.373 . S
C2249 C2233 1.377 . S
C2249 C2247 1.389 . S
C2249 C2250 1.524 . S
C2250 C2249 1.524 . S
C2250 C2251 1.397 . S
C2250 C2255 1.363 . S
C2251 H2222 0.950 . S
C2251 C2250 1.397 . S
C2251 C2252 1.334 . S
C2252 H2223 0.950 . S
C2252 C2251 1.334 . S
C2252 C2253 1.287 . S
C2253 C2252 1.287 . S
C2253 C2254 1.524 . S
C2253 H2256 0.999 . S
C2254 H2224 0.950 . S
C2254 C2253 1.524 . S
C2254 C2255 1.415 . S
C2255 H2225 0.950 . S
C2255 C2250 1.363 . S
C2255 C2254 1.415 . S
H2256 C2253 0.999 . S
H2257 C2238 0.913 . S
H2258 C2276 0.951 . S
H2259 C2278 0.951 . S
H2260 C2280 0.950 . S
H2261 C2281 0.950 . S
H2262 C2283 0.950 . S
H2263 C2286 0.950 . S
H2264 C2287 0.950 . S
H2265 C2289 0.950 . S
H2266 C2290 0.950 . S
H2267 C2291 0.951 . S
H2268 C2293 0.951 . S
H2269 C2295 0.950 . S
H2270 C2296 0.950 . S
H2271 C2298 0.950 . S
H2272 C2301 0.950 . S
H2273 C2302 0.950 . S
H2274 C2304 0.950 . S
H2275 C2305 0.950 . S
C2276 H2258 0.951 . S
C2276 C2277 1.366 . S
C2276 C2278 1.388 . S
C2277 C2276 1.366 . S
C2277 C2281 1.385 . S
C2278 H2259 0.951 . S
C2278 C2276 1.388 . S
C2278 C2279 1.366 . S
C2279 C2278 1.366 . S
C2279 C2280 1.414 . S
C2279 C2282 1.499 . S
C2280 H2260 0.950 . S
C2280 C2279 1.414 . S
C2280 C2281 1.374 . S
C2281 H2261 0.950 . S
C2281 C2277 1.385 . S
C2281 C2280 1.374 . S
C2282 C2279 1.499 . S
C2282 C2283 1.373 . S
C2282 C2284 1.389 . S
C2283 H2262 0.950 . S
C2283 C2282 1.373 . S
C2283 C2299 1.377 . S
C2284 C2282 1.389 . S
C2284 C2285 1.524 . S
C2284 C2298 1.377 . S
C2285 C2284 1.524 . S
C2285 C2286 1.397 . S
C2285 C2290 1.363 . S
C2286 H2263 0.950 . S
C2286 C2285 1.397 . S
C2286 C2287 1.334 . S
C2287 H2264 0.950 . S
C2287 C2286 1.334 . S
C2287 C2288 1.287 . S
C2288 C2287 1.287 . S
C2288 C2289 1.524 . S
C2288 H2307 0.913 . S
C2289 H2265 0.950 . S
C2289 C2288 1.524 . S
C2289 C2290 1.415 . S
C2290 H2266 0.950 . S
C2290 C2285 1.363 . S
C2290 C2289 1.415 . S
C2291 H2267 0.951 . S
C2291 C2292 1.366 . S
C2291 C2293 1.388 . S
C2292 C2291 1.366 . S
C2292 C2296 1.385 . S
C2293 H2268 0.951 . S
C2293 C2291 1.388 . S
C2293 C2294 1.366 . S
C2294 C2293 1.366 . S
C2294 C2295 1.414 . S
C2294 C2297 1.499 . S
C2295 H2269 0.950 . S
C2295 C2294 1.414 . S
C2295 C2296 1.374 . S
C2296 H2270 0.950 . S
C2296 C2292 1.385 . S
C2296 C2295 1.374 . S
C2297 C2294 1.499 . S
C2297 C2298 1.373 . S
C2297 C2299 1.389 . S
C2298 H2271 0.950 . S
C2298 C2284 1.377 . S
C2298 C2297 1.373 . S
C2299 C2283 1.377 . S
C2299 C2297 1.389 . S
C2299 C2300 1.524 . S
C2300 C2299 1.524 . S
C2300 C2301 1.397 . S
C2300 C2305 1.363 . S
C2301 H2272 0.950 . S
C2301 C2300 1.397 . S
C2301 C2302 1.334 . S
C2302 H2273 0.950 . S
C2302 C2301 1.334 . S
C2302 C2303 1.287 . S
C2303 C2302 1.287 . S
C2303 C2304 1.524 . S
C2303 H2306 0.999 . S
C2304 H2274 0.950 . S
C2304 C2303 1.524 . S
C2304 C2305 1.415 . S
C2305 H2275 0.950 . S
C2305 C2300 1.363 . S
C2305 C2304 1.415 . S
H2306 C2303 0.999 . S
H2307 C2288 0.913 . S
H2308 C2326 0.951 . S
H2309 C2328 0.951 . S
H2310 C2330 0.950 . S
H2311 C2331 0.950 . S
H2312 C2333 0.950 . S
H2313 C2336 0.950 . S
H2314 C2337 0.950 . S
H2315 C2339 0.950 . S
H2316 C2340 0.950 . S
H2317 C2341 0.951 . S
H2318 C2343 0.951 . S
H2319 C2345 0.950 . S
H2320 C2346 0.950 . S
H2321 C2348 0.950 . S
H2322 C2351 0.950 . S
H2323 C2352 0.950 . S
H2324 C2354 0.950 . S
H2325 C2355 0.950 . S
C2326 H2308 0.951 . S
C2326 C2327 1.366 . S
C2326 C2328 1.388 . S
C2327 C2326 1.366 . S
C2327 C2331 1.385 . S
C2328 H2309 0.951 . S
C2328 C2326 1.388 . S
C2328 C2329 1.366 . S
C2329 C2328 1.366 . S
C2329 C2330 1.414 . S
C2329 C2332 1.499 . S
C2330 H2310 0.950 . S
C2330 C2329 1.414 . S
C2330 C2331 1.374 . S
C2331 H2311 0.950 . S
C2331 C2327 1.385 . S
C2331 C2330 1.374 . S
C2332 C2329 1.499 . S
C2332 C2333 1.373 . S
C2332 C2334 1.389 . S
C2333 H2312 0.950 . S
C2333 C2332 1.373 . S
C2333 C2349 1.377 . S
C2334 C2332 1.389 . S
C2334 C2335 1.524 . S
C2334 C2348 1.377 . S
C2335 C2334 1.524 . S
C2335 C2336 1.397 . S
C2335 C2340 1.363 . S
C2336 H2313 0.950 . S
C2336 C2335 1.397 . S
C2336 C2337 1.334 . S
C2337 H2314 0.950 . S
C2337 C2336 1.334 . S
C2337 C2338 1.287 . S
C2338 C2337 1.287 . S
C2338 C2339 1.524 . S
C2338 H2357 0.913 . S
C2339 H2315 0.950 . S
C2339 C2338 1.524 . S
C2339 C2340 1.415 . S
C2340 H2316 0.950 . S
C2340 C2335 1.363 . S
C2340 C2339 1.415 . S
C2341 H2317 0.951 . S
C2341 C2342 1.366 . S
C2341 C2343 1.388 . S
C2342 C2341 1.366 . S
C2342 C2346 1.385 . S
C2343 H2318 0.951 . S
C2343 C2341 1.388 . S
C2343 C2344 1.366 . S
C2344 C2343 1.366 . S
C2344 C2345 1.414 . S
C2344 C2347 1.499 . S
C2345 H2319 0.950 . S
C2345 C2344 1.414 . S
C2345 C2346 1.374 . S
C2346 H2320 0.950 . S
C2346 C2342 1.385 . S
C2346 C2345 1.374 . S
C2347 C2344 1.499 . S
C2347 C2348 1.373 . S
C2347 C2349 1.389 . S
C2348 H2321 0.950 . S
C2348 C2334 1.377 . S
C2348 C2347 1.373 . S
C2349 C2333 1.377 . S
C2349 C2347 1.389 . S
C2349 C2350 1.524 . S
C2350 C2349 1.524 . S
C2350 C2351 1.397 . S
C2350 C2355 1.363 . S
C2351 H2322 0.950 . S
C2351 C2350 1.397 . S
C2351 C2352 1.334 . S
C2352 H2323 0.950 . S
C2352 C2351 1.334 . S
C2352 C2353 1.287 . S
C2353 C2352 1.287 . S
C2353 C2354 1.524 . S
C2353 H2356 0.999 . S
C2354 H2324 0.950 . S
C2354 C2353 1.524 . S
C2354 C2355 1.415 . S
C2355 H2325 0.950 . S
C2355 C2350 1.363 . S
C2355 C2354 1.415 . S
H2356 C2353 0.999 . S
H2357 C2338 0.913 . S
H2358 C2376 0.951 . S
H2359 C2378 0.951 . S
H2360 C2380 0.950 . S
H2361 C2381 0.950 . S
H2362 C2383 0.950 . S
H2363 C2386 0.950 . S
H2364 C2387 0.950 . S
H2365 C2389 0.950 . S
H2366 C2390 0.950 . S
H2367 C2391 0.951 . S
H2368 C2393 0.951 . S
H2369 C2395 0.950 . S
H2370 C2396 0.950 . S
H2371 C2398 0.950 . S
H2372 C2401 0.950 . S
H2373 C2402 0.950 . S
H2374 C2404 0.950 . S
H2375 C2405 0.950 . S
C2376 H2358 0.951 . S
C2376 C2377 1.366 . S
C2376 C2378 1.388 . S
C2377 C2376 1.366 . S
C2377 C2381 1.385 . S
C2378 H2359 0.951 . S
C2378 C2376 1.388 . S
C2378 C2379 1.366 . S
C2379 C2378 1.366 . S
C2379 C2380 1.414 . S
C2379 C2382 1.499 . S
C2380 H2360 0.950 . S
C2380 C2379 1.414 . S
C2380 C2381 1.374 . S
C2381 H2361 0.950 . S
C2381 C2377 1.385 . S
C2381 C2380 1.374 . S
C2382 C2379 1.499 . S
C2382 C2383 1.373 . S
C2382 C2384 1.389 . S
C2383 H2362 0.950 . S
C2383 C2382 1.373 . S
C2383 C2399 1.377 . S
C2384 C2382 1.389 . S
C2384 C2385 1.524 . S
C2384 C2398 1.377 . S
C2385 C2384 1.524 . S
C2385 C2386 1.397 . S
C2385 C2390 1.363 . S
C2386 H2363 0.950 . S
C2386 C2385 1.397 . S
C2386 C2387 1.334 . S
C2387 H2364 0.950 . S
C2387 C2386 1.334 . S
C2387 C2388 1.287 . S
C2388 C2387 1.287 . S
C2388 C2389 1.524 . S
C2388 H2407 0.913 . S
C2389 H2365 0.950 . S
C2389 C2388 1.524 . S
C2389 C2390 1.415 . S
C2390 H2366 0.950 . S
C2390 C2385 1.363 . S
C2390 C2389 1.415 . S
C2391 H2367 0.951 . S
C2391 C2392 1.366 . S
C2391 C2393 1.388 . S
C2392 C2391 1.366 . S
C2392 C2396 1.385 . S
C2393 H2368 0.951 . S
C2393 C2391 1.388 . S
C2393 C2394 1.366 . S
C2394 C2393 1.366 . S
C2394 C2395 1.414 . S
C2394 C2397 1.499 . S
C2395 H2369 0.950 . S
C2395 C2394 1.414 . S
C2395 C2396 1.374 . S
C2396 H2370 0.950 . S
C2396 C2392 1.385 . S
C2396 C2395 1.374 . S
C2397 C2394 1.499 . S
C2397 C2398 1.373 . S
C2397 C2399 1.389 . S
C2398 H2371 0.950 . S
C2398 C2384 1.377 . S
C2398 C2397 1.373 . S
C2399 C2383 1.377 . S
C2399 C2397 1.389 . S
C2399 C2400 1.524 . S
C2400 C2399 1.524 . S
C2400 C2401 1.397 . S
C2400 C2405 1.363 . S
C2401 H2372 0.950 . S
C2401 C2400 1.397 . S
C2401 C2402 1.334 . S
C2402 H2373 0.950 . S
C2402 C2401 1.334 . S
C2402 C2403 1.287 . S
C2403 C2402 1.287 . S
C2403 C2404 1.524 . S
C2403 H2406 0.999 . S
C2404 H2374 0.950 . S
C2404 C2403 1.524 . S
C2404 C2405 1.415 . S
C2405 H2375 0.950 . S
C2405 C2400 1.363 . S
C2405 C2404 1.415 . S
H2406 C2403 0.999 . S
H2407 C2388 0.913 . S
H2408 C2426 0.951 . S
H2409 C2428 0.951 . S
H2410 C2430 0.950 . S
H2411 C2431 0.950 . S
H2412 C2433 0.950 . S
H2413 C2436 0.950 . S
H2414 C2437 0.950 . S
H2415 C2439 0.950 . S
H2416 C2440 0.950 . S
H2417 C2441 0.951 . S
H2418 C2443 0.951 . S
H2419 C2445 0.950 . S
H2420 C2446 0.950 . S
H2421 C2448 0.950 . S
H2422 C2451 0.950 . S
H2423 C2452 0.950 . S
H2424 C2454 0.950 . S
H2425 C2455 0.950 . S
C2426 H2408 0.951 . S
C2426 C2427 1.366 . S
C2426 C2428 1.388 . S
C2427 C2426 1.366 . S
C2427 C2431 1.385 . S
C2428 H2409 0.951 . S
C2428 C2426 1.388 . S
C2428 C2429 1.366 . S
C2429 C2428 1.366 . S
C2429 C2430 1.414 . S
C2429 C2432 1.499 . S
C2430 H2410 0.950 . S
C2430 C2429 1.414 . S
C2430 C2431 1.374 . S
C2431 H2411 0.950 . S
C2431 C2427 1.385 . S
C2431 C2430 1.374 . S
C2432 C2429 1.499 . S
C2432 C2433 1.373 . S
C2432 C2434 1.389 . S
C2433 H2412 0.950 . S
C2433 C2432 1.373 . S
C2433 C2449 1.377 . S
C2434 C2432 1.389 . S
C2434 C2435 1.524 . S
C2434 C2448 1.377 . S
C2435 C2434 1.524 . S
C2435 C2436 1.397 . S
C2435 C2440 1.363 . S
C2436 H2413 0.950 . S
C2436 C2435 1.397 . S
C2436 C2437 1.334 . S
C2437 H2414 0.950 . S
C2437 C2436 1.334 . S
C2437 C2438 1.287 . S
C2438 C2437 1.287 . S
C2438 C2439 1.524 . S
C2438 H2457 0.913 . S
C2439 H2415 0.950 . S
C2439 C2438 1.524 . S
C2439 C2440 1.415 . S
C2440 H2416 0.950 . S
C2440 C2435 1.363 . S
C2440 C2439 1.415 . S
C2441 H2417 0.951 . S
C2441 C2442 1.366 . S
C2441 C2443 1.388 . S
C2442 C2441 1.366 . S
C2442 C2446 1.385 . S
C2443 H2418 0.951 . S
C2443 C2441 1.388 . S
C2443 C2444 1.366 . S
C2444 C2443 1.366 . S
C2444 C2445 1.414 . S
C2444 C2447 1.499 . S
C2445 H2419 0.950 . S
C2445 C2444 1.414 . S
C2445 C2446 1.374 . S
C2446 H2420 0.950 . S
C2446 C2442 1.385 . S
C2446 C2445 1.374 . S
C2447 C2444 1.499 . S
C2447 C2448 1.373 . S
C2447 C2449 1.389 . S
C2448 H2421 0.950 . S
C2448 C2434 1.377 . S
C2448 C2447 1.373 . S
C2449 C2433 1.377 . S
C2449 C2447 1.389 . S
C2449 C2450 1.524 . S
C2450 C2449 1.524 . S
C2450 C2451 1.397 . S
C2450 C2455 1.363 . S
C2451 H2422 0.950 . S
C2451 C2450 1.397 . S
C2451 C2452 1.334 . S
C2452 H2423 0.950 . S
C2452 C2451 1.334 . S
C2452 C2453 1.287 . S
C2453 C2452 1.287 . S
C2453 C2454 1.524 . S
C2453 H2456 0.999 . S
C2454 H2424 0.950 . S
C2454 C2453 1.524 . S
C2454 C2455 1.415 . S
C2455 H2425 0.950 . S
C2455 C2450 1.363 . S
C2455 C2454 1.415 . S
H2456 C2453 0.999 . S
H2457 C2438 0.913 . S
H2458 C2476 0.951 . S
H2459 C2478 0.951 . S
H2460 C2480 0.950 . S
H2461 C2481 0.950 . S
H2462 C2483 0.950 . S
H2463 C2486 0.950 . S
H2464 C2487 0.950 . S
H2465 C2489 0.950 . S
H2466 C2490 0.950 . S
H2467 C2491 0.951 . S
H2468 C2493 0.951 . S
H2469 C2495 0.950 . S
H2470 C2496 0.950 . S
H2471 C2498 0.950 . S
H2472 C2501 0.950 . S
H2473 C2502 0.950 . S
H2474 C2504 0.950 . S
H2475 C2505 0.950 . S
C2476 H2458 0.951 . S
C2476 C2477 1.366 . S
C2476 C2478 1.388 . S
C2477 C2476 1.366 . S
C2477 C2481 1.385 . S
C2478 H2459 0.951 . S
C2478 C2476 1.388 . S
C2478 C2479 1.366 . S
C2479 C2478 1.366 . S
C2479 C2480 1.414 . S
C2479 C2482 1.499 . S
C2480 H2460 0.950 . S
C2480 C2479 1.414 . S
C2480 C2481 1.374 . S
C2481 H2461 0.950 . S
C2481 C2477 1.385 . S
C2481 C2480 1.374 . S
C2482 C2479 1.499 . S
C2482 C2483 1.373 . S
C2482 C2484 1.389 . S
C2483 H2462 0.950 . S
C2483 C2482 1.373 . S
C2483 C2499 1.377 . S
C2484 C2482 1.389 . S
C2484 C2485 1.524 . S
C2484 C2498 1.377 . S
C2485 C2484 1.524 . S
C2485 C2486 1.397 . S
C2485 C2490 1.363 . S
C2486 H2463 0.950 . S
C2486 C2485 1.397 . S
C2486 C2487 1.334 . S
C2487 H2464 0.950 . S
C2487 C2486 1.334 . S
C2487 C2488 1.287 . S
C2488 C2487 1.287 . S
C2488 C2489 1.524 . S
C2488 H2507 0.913 . S
C2489 H2465 0.950 . S
C2489 C2488 1.524 . S
C2489 C2490 1.415 . S
C2490 H2466 0.950 . S
C2490 C2485 1.363 . S
C2490 C2489 1.415 . S
C2491 H2467 0.951 . S
C2491 C2492 1.366 . S
C2491 C2493 1.388 . S
C2492 C2491 1.366 . S
C2492 C2496 1.385 . S
C2493 H2468 0.951 . S
C2493 C2491 1.388 . S
C2493 C2494 1.366 . S
C2494 C2493 1.366 . S
C2494 C2495 1.414 . S
C2494 C2497 1.499 . S
C2495 H2469 0.950 . S
C2495 C2494 1.414 . S
C2495 C2496 1.374 . S
C2496 H2470 0.950 . S
C2496 C2492 1.385 . S
C2496 C2495 1.374 . S
C2497 C2494 1.499 . S
C2497 C2498 1.373 . S
C2497 C2499 1.389 . S
C2498 H2471 0.950 . S
C2498 C2484 1.377 . S
C2498 C2497 1.373 . S
C2499 C2483 1.377 . S
C2499 C2497 1.389 . S
C2499 C2500 1.524 . S
C2500 C2499 1.524 . S
C2500 C2501 1.397 . S
C2500 C2505 1.363 . S
C2501 H2472 0.950 . S
C2501 C2500 1.397 . S
C2501 C2502 1.334 . S
C2502 H2473 0.950 . S
C2502 C2501 1.334 . S
C2502 C2503 1.287 . S
C2503 C2502 1.287 . S
C2503 C2504 1.524 . S
C2503 H2506 0.999 . S
C2504 H2474 0.950 . S
C2504 C2503 1.524 . S
C2504 C2505 1.415 . S
C2505 H2475 0.950 . S
C2505 C2500 1.363 . S
C2505 C2504 1.415 . S
H2506 C2503 0.999 . S
H2507 C2488 0.913 . S
H2508 C2526 0.951 . S
H2509 C2528 0.951 . S
H2510 C2530 0.950 1_554 S
H2511 C2531 0.950 . S
H2512 C2533 0.950 . S
H2513 C2536 0.950 . S
H2514 C2537 0.950 . S
H2515 C2539 0.950 . S
H2516 C2540 0.950 . S
H2517 C2541 0.951 . S
H2518 C2543 0.951 . S
H2519 C2545 0.950 . S
H2520 C2546 0.950 . S
H2521 C2548 0.950 . S
H2522 C2551 0.950 . S
H2523 C2552 0.950 . S
H2524 C2554 0.950 . S
H2525 C2555 0.950 . S
C2526 H2508 0.951 . S
C2526 C2527 1.366 . S
C2526 C2528 1.388 . S
C2527 C2526 1.366 . S
C2527 C2531 1.385 1_556 S
C2528 H2509 0.951 . S
C2528 C2526 1.388 . S
C2528 C2529 1.366 . S
C2529 C2528 1.366 . S
C2529 C2530 1.414 . S
C2529 C2532 1.499 . S
C2530 H2510 0.950 1_556 S
C2530 C2529 1.414 . S
C2530 C2531 1.374 1_556 S
C2531 H2511 0.950 . S
C2531 C2527 1.385 1_554 S
C2531 C2530 1.374 1_554 S
C2532 C2529 1.499 . S
C2532 C2533 1.373 . S
C2532 C2534 1.389 . S
C2533 H2512 0.950 . S
C2533 C2532 1.373 . S
C2533 C2549 1.377 . S
C2534 C2532 1.389 . S
C2534 C2535 1.524 . S
C2534 C2548 1.377 . S
C2535 C2534 1.524 . S
C2535 C2536 1.397 . S
C2535 C2540 1.363 . S
C2536 H2513 0.950 . S
C2536 C2535 1.397 . S
C2536 C2537 1.334 . S
C2537 H2514 0.950 . S
C2537 C2536 1.334 . S
C2537 C2538 1.287 . S
C2538 C2537 1.287 . S
C2538 C2539 1.524 . S
C2538 H2557 0.913 . S
C2539 H2515 0.950 . S
C2539 C2538 1.524 . S
C2539 C2540 1.415 . S
C2540 H2516 0.950 . S
C2540 C2535 1.363 . S
C2540 C2539 1.415 . S
C2541 H2517 0.951 . S
C2541 C2542 1.366 . S
C2541 C2543 1.388 . S
C2542 C2541 1.366 . S
C2542 C2546 1.385 . S
C2543 H2518 0.951 . S
C2543 C2541 1.388 . S
C2543 C2544 1.366 . S
C2544 C2543 1.366 . S
C2544 C2545 1.414 . S
C2544 C2547 1.499 . S
C2545 H2519 0.950 . S
C2545 C2544 1.414 . S
C2545 C2546 1.374 . S
C2546 H2520 0.950 . S
C2546 C2542 1.385 . S
C2546 C2545 1.374 . S
C2547 C2544 1.499 . S
C2547 C2548 1.373 . S
C2547 C2549 1.389 . S
C2548 H2521 0.950 . S
C2548 C2534 1.377 . S
C2548 C2547 1.373 . S
C2549 C2533 1.377 . S
C2549 C2547 1.389 . S
C2549 C2550 1.524 . S
C2550 C2549 1.524 . S
C2550 C2551 1.397 . S
C2550 C2555 1.363 1_556 S
C2551 H2522 0.950 . S
C2551 C2550 1.397 . S
C2551 C2552 1.334 . S
C2552 H2523 0.950 . S
C2552 C2551 1.334 . S
C2552 C2553 1.287 1_556 S
C2553 C2552 1.287 1_554 S
C2553 C2554 1.524 . S
C2553 H2556 0.999 . S
C2554 H2524 0.950 . S
C2554 C2553 1.524 . S
C2554 C2555 1.415 . S
C2555 H2525 0.950 . S
C2555 C2550 1.363 1_554 S
C2555 C2554 1.415 . S
H2556 C2553 0.999 . S
H2557 C2538 0.913 . S
H2558 C2576 0.951 . S
H2559 C2578 0.951 . S
H2560 C2580 0.950 . S
H2561 C2581 0.942 1_554 S
H2562 C2583 0.950 . S
H2563 C2586 0.950 . S
H2564 C2587 0.950 . S
H2565 C2589 0.948 1_556 S
H2566 C2590 0.950 . S
H2567 C2591 0.951 . S
H2568 C2593 0.951 . S
H2569 C2595 0.950 . S
H2570 C2596 0.950 . S
H2571 C2598 0.950 . S
H2572 C2601 0.950 . S
H2573 C2602 0.950 . S
H2574 C2604 0.950 . S
H2575 C2605 0.950 . S
C2576 H2558 0.951 . S
C2576 C2577 1.366 . S
C2576 C2578 1.388 . S
C2577 C2576 1.366 . S
C2577 C2581 1.385 . S
C2578 H2559 0.951 . S
C2578 C2576 1.388 . S
C2578 C2579 1.366 . S
C2579 C2578 1.366 . S
C2579 C2580 1.414 . S
C2579 C2582 1.499 . S
C2580 H2560 0.950 . S
C2580 C2579 1.414 . S
C2580 C2581 1.374 . S
C2581 H2561 0.942 1_556 S
C2581 C2577 1.385 . S
C2581 C2580 1.374 . S
C2582 C2579 1.499 . S
C2582 C2583 1.373 . S
C2582 C2584 1.389 . S
C2583 H2562 0.950 . S
C2583 C2582 1.373 . S
C2583 C2599 1.377 . S
C2584 C2582 1.389 . S
C2584 C2585 1.524 . S
C2584 C2598 1.377 . S
C2585 C2584 1.524 . S
C2585 C2586 1.397 1_556 S
C2585 C2590 1.363 . S
C2586 H2563 0.950 . S
C2586 C2585 1.397 1_554 S
C2586 C2587 1.334 . S
C2587 H2564 0.950 . S
C2587 C2586 1.334 . S
C2587 C2588 1.287 . S
C2588 C2587 1.287 . S
C2588 C2589 1.524 . S
C2588 H2607 0.913 . S
C2589 H2565 0.948 1_554 S
C2589 C2588 1.524 . S
C2589 C2590 1.415 1_554 S
C2590 H2566 0.950 . S
C2590 C2585 1.363 . S
C2590 C2589 1.415 1_556 S
C2591 H2567 0.951 . S
C2591 C2592 1.366 . S
C2591 C2593 1.388 . S
C2592 C2591 1.366 . S
C2592 C2596 1.385 . S
C2593 H2568 0.951 . S
C2593 C2591 1.388 . S
C2593 C2594 1.366 . S
C2594 C2593 1.366 . S
C2594 C2595 1.414 . S
C2594 C2597 1.499 . S
C2595 H2569 0.950 . S
C2595 C2594 1.414 . S
C2595 C2596 1.374 . S
C2596 H2570 0.950 . S
C2596 C2592 1.385 . S
C2596 C2595 1.374 . S
C2597 C2594 1.499 . S
C2597 C2598 1.373 . S
C2597 C2599 1.389 . S
C2598 H2571 0.950 . S
C2598 C2584 1.377 . S
C2598 C2597 1.373 . S
C2599 C2583 1.377 . S
C2599 C2597 1.389 . S
C2599 C2600 1.524 . S
C2600 C2599 1.524 . S
C2600 C2601 1.397 . S
C2600 C2605 1.363 . S
C2601 H2572 0.950 . S
C2601 C2600 1.397 . S
C2601 C2602 1.334 . S
C2602 H2573 0.950 . S
C2602 C2601 1.334 . S
C2602 C2603 1.287 . S
C2603 C2602 1.287 . S
C2603 C2604 1.524 . S
C2603 H2606 0.999 . S
C2604 H2574 0.950 . S
C2604 C2603 1.524 . S
C2604 C2605 1.415 . S
C2605 H2575 0.950 . S
C2605 C2600 1.363 . S
C2605 C2604 1.415 . S
H2606 C2603 0.999 . S
H2607 C2588 0.913 . S
H2608 C2626 0.951 . S
H2609 C2628 0.951 1_554 S
H2610 C2630 0.950 . S
H2611 C2631 0.950 . S
H2612 C2633 0.950 . S
H2613 C2636 0.967 . S
H2614 C2637 0.950 . S
H2615 C2639 0.950 . S
H2616 C2640 0.950 . S
H2617 C2641 0.951 . S
H2618 C2643 0.951 . S
H2619 C2645 0.950 . S
H2620 C2646 0.950 . S
H2621 C2648 0.950 . S
H2622 C2651 0.950 . S
H2623 C2652 0.950 . S
H2624 C2654 0.950 . S
H2625 C2655 0.950 . S
C2626 H2608 0.951 . S
C2626 C2627 1.366 1_554 S
C2626 C2628 1.388 1_554 S
C2627 C2626 1.366 1_556 S
C2627 C2631 1.385 . S
C2628 H2609 0.951 1_556 S
C2628 C2626 1.388 1_556 S
C2628 C2629 1.366 . S
C2629 C2628 1.366 . S
C2629 C2630 1.414 . S
C2629 C2632 1.499 . S
C2630 H2610 0.950 . S
C2630 C2629 1.414 . S
C2630 C2631 1.374 . S
C2631 H2611 0.950 . S
C2631 C2627 1.385 . S
C2631 C2630 1.374 . S
C2632 C2629 1.499 . S
C2632 C2633 1.373 . S
C2632 C2634 1.389 . S
C2633 H2612 0.950 . S
C2633 C2632 1.373 . S
C2633 C2649 1.377 . S
C2634 C2632 1.389 . S
C2634 C2635 1.570 . S
C2634 C2648 1.377 . S
C2635 C2634 1.570 . S
C2635 C2636 1.397 . S
C2635 C2640 1.321 1_556 S
C2636 H2613 0.967 . S
C2636 C2635 1.397 . S
C2636 C2637 1.317 1_556 S
C2637 H2614 0.950 . S
C2637 C2636 1.317 1_554 S
C2637 C2638 1.287 . S
C2638 C2637 1.287 . S
C2638 C2639 1.524 . S
C2638 H2657 0.913 . S
C2639 H2615 0.950 . S
C2639 C2638 1.524 . S
C2639 C2640 1.415 . S
C2640 H2616 0.950 . S
C2640 C2635 1.321 1_554 S
C2640 C2639 1.415 . S
C2641 H2617 0.951 . S
C2641 C2642 1.366 . S
C2641 C2643 1.388 . S
C2642 C2641 1.366 . S
C2642 C2646 1.385 . S
C2643 H2618 0.951 . S
C2643 C2641 1.388 . S
C2643 C2644 1.366 . S
C2644 C2643 1.366 . S
C2644 C2645 1.414 . S
C2644 C2647 1.499 . S
C2645 H2619 0.950 . S
C2645 C2644 1.414 . S
C2645 C2646 1.374 . S
C2646 H2620 0.950 . S
C2646 C2642 1.385 . S
C2646 C2645 1.374 . S
C2647 C2644 1.499 . S
C2647 C2648 1.373 . S
C2647 C2649 1.389 . S
C2648 H2621 0.950 . S
C2648 C2634 1.377 . S
C2648 C2647 1.373 . S
C2649 C2633 1.377 . S
C2649 C2647 1.389 . S
C2649 C2650 1.524 . S
C2650 C2649 1.524 . S
C2650 C2651 1.397 . S
C2650 C2655 1.363 . S
C2651 H2622 0.950 . S
C2651 C2650 1.397 . S
C2651 C2652 1.334 . S
C2652 H2623 0.950 . S
C2652 C2651 1.334 . S
C2652 C2653 1.287 . S
C2653 C2652 1.287 . S
C2653 C2654 1.524 . S
C2653 H2656 0.999 . S
C2654 H2624 0.950 . S
C2654 C2653 1.524 . S
C2654 C2655 1.415 . S
C2655 H2625 0.950 . S
C2655 C2650 1.363 . S
C2655 C2654 1.415 . S
H2656 C2653 0.999 . S
H2657 C2638 0.913 . S
H2658 C2676 0.951 . S
H2659 C2678 0.951 . S
H2660 C2680 0.950 . S
H2661 C2681 0.950 . S
H2662 C2683 0.950 . S
H2663 C2686 0.950 . S
H2664 C2687 0.950 . S
H2665 C2689 0.950 . S
H2666 C2690 0.950 . S
H2667 C2691 0.951 . S
H2668 C2693 0.951 . S
H2669 C2695 0.950 . S
H2670 C2696 0.950 . S
H2671 C2698 0.950 . S
H2672 C2701 0.950 . S
H2673 C2702 0.950 . S
H2674 C2704 0.950 . S
H2675 C2705 0.950 . S
C2676 H2658 0.951 . S
C2676 C2677 1.366 . S
C2676 C2678 1.388 . S
C2677 C2676 1.366 . S
C2677 C2681 1.385 . S
C2678 H2659 0.951 . S
C2678 C2676 1.388 . S
C2678 C2679 1.366 . S
C2679 C2678 1.366 . S
C2679 C2680 1.414 . S
C2679 C2682 1.499 . S
C2680 H2660 0.950 . S
C2680 C2679 1.414 . S
C2680 C2681 1.374 . S
C2681 H2661 0.950 . S
C2681 C2677 1.385 . S
C2681 C2680 1.374 . S
C2682 C2679 1.499 . S
C2682 C2683 1.373 . S
C2682 C2684 1.389 . S
C2683 H2662 0.950 . S
C2683 C2682 1.373 . S
C2683 C2699 1.377 . S
C2684 C2682 1.389 . S
C2684 C2685 1.524 . S
C2684 C2698 1.377 . S
C2685 C2684 1.524 . S
C2685 C2686 1.397 1_556 S
C2685 C2690 1.363 . S
C2686 H2663 0.950 . S
C2686 C2685 1.397 1_554 S
C2686 C2687 1.334 . S
C2687 H2664 0.950 . S
C2687 C2686 1.334 . S
C2687 C2688 1.287 . S
C2688 C2687 1.287 . S
C2688 C2689 1.524 . S
C2688 H2707 0.913 . S
C2689 H2665 0.950 . S
C2689 C2688 1.524 . S
C2689 C2690 1.415 1_554 S
C2690 H2666 0.950 . S
C2690 C2685 1.363 . S
C2690 C2689 1.415 1_556 S
C2691 H2667 0.951 . S
C2691 C2692 1.366 . S
C2691 C2693 1.388 . S
C2692 C2691 1.366 . S
C2692 C2696 1.385 . S
C2693 H2668 0.951 . S
C2693 C2691 1.388 . S
C2693 C2694 1.366 . S
C2694 C2693 1.366 . S
C2694 C2695 1.414 . S
C2694 C2697 1.499 . S
C2695 H2669 0.950 . S
C2695 C2694 1.414 . S
C2695 C2696 1.374 . S
C2696 H2670 0.950 . S
C2696 C2692 1.385 . S
C2696 C2695 1.374 . S
C2697 C2694 1.499 . S
C2697 C2698 1.373 . S
C2697 C2699 1.389 . S
C2698 H2671 0.950 . S
C2698 C2684 1.377 . S
C2698 C2697 1.373 . S
C2699 C2683 1.377 . S
C2699 C2697 1.389 . S
C2699 C2700 1.524 . S
C2700 C2699 1.524 . S
C2700 C2701 1.397 . S
C2700 C2705 1.363 . S
C2701 H2672 0.950 . S
C2701 C2700 1.397 . S
C2701 C2702 1.334 . S
C2702 H2673 0.950 . S
C2702 C2701 1.334 . S
C2702 C2703 1.287 . S
C2703 C2702 1.287 . S
C2703 C2704 1.524 . S
C2703 H2706 0.999 . S
C2704 H2674 0.950 . S
C2704 C2703 1.524 . S
C2704 C2705 1.415 . S
C2705 H2675 0.950 . S
C2705 C2700 1.363 . S
C2705 C2704 1.415 . S
H2706 C2703 0.999 . S
H2707 C2688 0.913 . S
H2708 C2726 0.951 . S
H2709 C2728 0.951 . S
H2710 C2730 0.950 . S
H2711 C2731 0.950 1_554 S
H2712 C2733 0.950 . S
H2713 C2736 0.950 . S
H2714 C2737 0.950 1_554 S
H2715 C2739 0.950 . S
H2716 C2740 0.950 . S
H2717 C2741 0.951 . S
H2718 C2743 0.951 . S
H2719 C2745 0.950 . S
H2720 C2746 0.950 . S
H2721 C2748 0.950 . S
H2722 C2751 0.950 . S
H2723 C2752 0.950 . S
H2724 C2754 0.950 . S
H2725 C2755 0.950 . S
C2726 H2708 0.951 . S
C2726 C2727 1.366 . S
C2726 C2728 1.388 . S
C2727 C2726 1.366 . S
C2727 C2731 1.385 . S
C2728 H2709 0.951 . S
C2728 C2726 1.388 . S
C2728 C2729 1.366 . S
C2729 C2728 1.366 . S
C2729 C2730 1.414 . S
C2729 C2732 1.499 . S
C2730 H2710 0.950 . S
C2730 C2729 1.414 . S
C2730 C2731 1.374 . S
C2731 H2711 0.950 1_556 S
C2731 C2727 1.385 . S
C2731 C2730 1.374 . S
C2732 C2729 1.499 . S
C2732 C2733 1.373 . S
C2732 C2734 1.389 . S
C2733 H2712 0.950 . S
C2733 C2732 1.373 . S
C2733 C2749 1.377 . S
C2734 C2732 1.389 . S
C2734 C2735 1.524 . S
C2734 C2748 1.377 . S
C2735 C2734 1.524 . S
C2735 C2736 1.397 . S
C2735 C2740 1.363 . S
C2736 H2713 0.950 . S
C2736 C2735 1.397 . S
C2736 C2737 1.334 . S
C2737 H2714 0.950 1_556 S
C2737 C2736 1.334 . S
C2737 C2738 1.287 . S
C2738 C2737 1.287 . S
C2738 C2739 1.524 . S
C2738 H2757 0.913 . S
C2739 H2715 0.950 . S
C2739 C2738 1.524 . S
C2739 C2740 1.415 . S
C2740 H2716 0.950 . S
C2740 C2735 1.363 . S
C2740 C2739 1.415 . S
C2741 H2717 0.951 . S
C2741 C2742 1.366 . S
C2741 C2743 1.388 . S
C2742 C2741 1.366 . S
C2742 C2746 1.385 . S
C2743 H2718 0.951 . S
C2743 C2741 1.388 . S
C2743 C2744 1.366 . S
C2744 C2743 1.366 . S
C2744 C2745 1.414 . S
C2744 C2747 1.499 . S
C2745 H2719 0.950 . S
C2745 C2744 1.414 . S
C2745 C2746 1.374 . S
C2746 H2720 0.950 . S
C2746 C2742 1.385 . S
C2746 C2745 1.374 . S
C2747 C2744 1.499 . S
C2747 C2748 1.373 . S
C2747 C2749 1.389 . S
C2748 H2721 0.950 . S
C2748 C2734 1.377 . S
C2748 C2747 1.373 . S
C2749 C2733 1.377 . S
C2749 C2747 1.389 . S
C2749 C2750 1.524 . S
C2750 C2749 1.524 . S
C2750 C2751 1.397 . S
C2750 C2755 1.363 . S
C2751 H2722 0.950 . S
C2751 C2750 1.397 . S
C2751 C2752 1.334 . S
C2752 H2723 0.950 . S
C2752 C2751 1.334 . S
C2752 C2753 1.287 . S
C2753 C2752 1.287 . S
C2753 C2754 1.524 . S
C2753 H2756 0.999 . S
C2754 H2724 0.950 . S
C2754 C2753 1.524 . S
C2754 C2755 1.415 . S
C2755 H2725 0.950 . S
C2755 C2750 1.363 . S
C2755 C2754 1.415 . S
H2756 C2753 0.999 . S
H2757 C2738 0.913 . S
H2758 C2776 0.951 . S
H2759 C2778 0.951 1_554 S
H2760 C2780 0.950 . S
H2761 C2781 0.950 . S
H2762 C2783 0.950 . S
H2763 C2786 0.950 . S
H2764 C2787 0.950 . S
H2765 C2789 0.950 . S
H2766 C2790 0.950 . S
H2767 C2791 0.951 . S
H2768 C2793 0.951 . S
H2769 C2795 0.950 . S
H2770 C2796 0.950 . S
H2771 C2798 0.950 . S
H2772 C2801 0.950 . S
H2773 C2802 0.950 . S
H2774 C2804 0.950 . S
H2775 C2805 0.950 . S
C2776 H2758 0.951 . S
C2776 C2777 1.366 1_554 S
C2776 C2778 1.388 1_554 S
C2777 C2776 1.366 1_556 S
C2777 C2781 1.385 . S
C2778 H2759 0.951 1_556 S
C2778 C2776 1.388 1_556 S
C2778 C2779 1.366 . S
C2779 C2778 1.366 . S
C2779 C2780 1.414 . S
C2779 C2782 1.499 . S
C2780 H2760 0.950 . S
C2780 C2779 1.414 . S
C2780 C2781 1.374 . S
C2781 H2761 0.950 . S
C2781 C2777 1.385 . S
C2781 C2780 1.374 . S
C2782 C2779 1.499 . S
C2782 C2783 1.373 . S
C2782 C2784 1.389 . S
C2783 H2762 0.950 . S
C2783 C2782 1.373 . S
C2783 C2799 1.377 . S
C2784 C2782 1.389 . S
C2784 C2785 1.524 . S
C2784 C2798 1.377 . S
C2785 C2784 1.524 . S
C2785 C2786 1.397 . S
C2785 C2790 1.363 1_556 S
C2786 H2763 0.950 . S
C2786 C2785 1.397 . S
C2786 C2787 1.334 . S
C2787 H2764 0.950 . S
C2787 C2786 1.334 . S
C2787 C2788 1.287 1_556 S
C2788 C2787 1.287 1_554 S
C2788 C2789 1.524 . S
C2788 H2807 0.913 . S
C2789 H2765 0.950 . S
C2789 C2788 1.524 . S
C2789 C2790 1.415 . S
C2790 H2766 0.950 . S
C2790 C2785 1.363 1_554 S
C2790 C2789 1.415 . S
C2791 H2767 0.951 . S
C2791 C2792 1.366 . S
C2791 C2793 1.388 . S
C2792 C2791 1.366 . S
C2792 C2796 1.385 . S
C2793 H2768 0.951 . S
C2793 C2791 1.388 . S
C2793 C2794 1.366 . S
C2794 C2793 1.366 . S
C2794 C2795 1.414 . S
C2794 C2797 1.499 . S
C2795 H2769 0.950 . S
C2795 C2794 1.414 . S
C2795 C2796 1.374 . S
C2796 H2770 0.950 . S
C2796 C2792 1.385 . S
C2796 C2795 1.374 . S
C2797 C2794 1.499 . S
C2797 C2798 1.373 . S
C2797 C2799 1.389 . S
C2798 H2771 0.950 . S
C2798 C2784 1.377 . S
C2798 C2797 1.373 . S
C2799 C2783 1.377 . S
C2799 C2797 1.389 . S
C2799 C2800 1.524 . S
C2800 C2799 1.524 . S
C2800 C2801 1.397 . S
C2800 C2805 1.363 . S
C2801 H2772 0.950 . S
C2801 C2800 1.397 . S
C2801 C2802 1.334 . S
C2802 H2773 0.950 . S
C2802 C2801 1.334 . S
C2802 C2803 1.287 . S
C2803 C2802 1.287 . S
C2803 C2804 1.524 . S
C2803 H2806 0.999 . S
C2804 H2774 0.950 . S
C2804 C2803 1.524 . S
C2804 C2805 1.415 . S
C2805 H2775 0.950 . S
C2805 C2800 1.363 . S
C2805 C2804 1.415 . S
H2806 C2803 0.999 . S
H2807 C2788 0.913 . S
H2808 C2826 0.951 . S
H2809 C2828 0.951 . S
H2810 C2830 0.950 . S
H2811 C2831 0.950 . S
H2812 C2833 0.950 . S
H2813 C2836 0.950 . S
H2814 C2837 0.950 . S
H2815 C2839 0.950 . S
H2816 C2840 0.950 . S
H2817 C2841 0.951 . S
H2818 C2843 0.951 . S
H2819 C2845 0.950 . S
H2820 C2846 0.950 . S
H2821 C2848 0.950 . S
H2822 C2851 0.950 . S
H2823 C2852 0.950 . S
H2824 C2854 0.950 . S
H2825 C2855 0.950 . S
C2826 H2808 0.951 . S
C2826 C2827 1.366 . S
C2826 C2828 1.388 . S
C2827 C2826 1.366 . S
C2827 C2831 1.385 . S
C2828 H2809 0.951 . S
C2828 C2826 1.388 . S
C2828 C2829 1.366 . S
C2829 C2828 1.366 . S
C2829 C2830 1.414 . S
C2829 C2832 1.499 . S
C2830 H2810 0.950 . S
C2830 C2829 1.414 . S
C2830 C2831 1.374 . S
C2831 H2811 0.950 . S
C2831 C2827 1.385 . S
C2831 C2830 1.374 . S
C2832 C2829 1.499 . S
C2832 C2833 1.373 . S
C2832 C2834 1.389 . S
C2833 H2812 0.950 . S
C2833 C2832 1.373 . S
C2833 C2849 1.377 . S
C2834 C2832 1.389 . S
C2834 C2835 1.524 . S
C2834 C2848 1.377 . S
C2835 C2834 1.524 . S
C2835 C2836 1.397 . S
C2835 C2840 1.363 . S
C2836 H2813 0.950 . S
C2836 C2835 1.397 . S
C2836 C2837 1.334 . S
C2837 H2814 0.950 . S
C2837 C2836 1.334 . S
C2837 C2838 1.287 . S
C2838 C2837 1.287 . S
C2838 C2839 1.524 . S
C2838 H2857 0.913 . S
C2839 H2815 0.950 . S
C2839 C2838 1.524 . S
C2839 C2840 1.415 . S
C2840 H2816 0.950 . S
C2840 C2835 1.363 . S
C2840 C2839 1.415 . S
C2841 H2817 0.951 . S
C2841 C2842 1.366 . S
C2841 C2843 1.388 . S
C2842 C2841 1.366 . S
C2842 C2846 1.385 . S
C2843 H2818 0.951 . S
C2843 C2841 1.388 . S
C2843 C2844 1.366 . S
C2844 C2843 1.366 . S
C2844 C2845 1.414 . S
C2844 C2847 1.499 . S
C2845 H2819 0.950 . S
C2845 C2844 1.414 . S
C2845 C2846 1.374 . S
C2846 H2820 0.950 . S
C2846 C2842 1.385 . S
C2846 C2845 1.374 . S
C2847 C2844 1.499 . S
C2847 C2848 1.373 . S
C2847 C2849 1.389 . S
C2848 H2821 0.950 . S
C2848 C2834 1.377 . S
C2848 C2847 1.373 . S
C2849 C2833 1.377 . S
C2849 C2847 1.389 . S
C2849 C2850 1.524 . S
C2850 C2849 1.524 . S
C2850 C2851 1.397 . S
C2850 C2855 1.363 . S
C2851 H2822 0.950 . S
C2851 C2850 1.397 . S
C2851 C2852 1.334 . S
C2852 H2823 0.950 . S
C2852 C2851 1.334 . S
C2852 C2853 1.287 . S
C2853 C2852 1.287 . S
C2853 C2854 1.524 . S
C2853 H2856 0.999 . S
C2854 H2824 0.950 . S
C2854 C2853 1.524 . S
C2854 C2855 1.415 . S
C2855 H2825 0.950 . S
C2855 C2850 1.363 . S
C2855 C2854 1.415 . S
H2856 C2853 0.999 . S
H2857 C2838 0.913 . S
H2858 C2876 0.951 1_556 S
H2859 C2878 0.951 . S
H2860 C2880 0.950 . S
H2861 C2881 0.950 . S
H2862 C2883 0.950 . S
H2863 C2886 0.950 . S
H2864 C2887 0.950 . S
H2865 C2889 0.950 . S
H2866 C2890 0.950 . S
H2867 C2891 0.951 . S
H2868 C2893 0.951 . S
H2869 C2895 0.950 . S
H2870 C2896 0.950 . S
H2871 C2898 0.950 . S
H2872 C2901 0.950 . S
H2873 C2902 0.950 . S
H2874 C2904 0.950 . S
H2875 C2905 0.950 . S
C2876 H2858 0.951 1_554 S
C2876 C2877 1.366 . S
C2876 C2878 1.388 . S
C2877 C2876 1.366 . S
C2877 C2881 1.385 . S
C2878 H2859 0.951 . S
C2878 C2876 1.388 . S
C2878 C2879 1.366 . S
C2879 C2878 1.366 . S
C2879 C2880 1.414 . S
C2879 C2882 1.499 . S
C2880 H2860 0.950 . S
C2880 C2879 1.414 . S
C2880 C2881 1.374 . S
C2881 H2861 0.950 . S
C2881 C2877 1.385 . S
C2881 C2880 1.374 . S
C2882 C2879 1.499 . S
C2882 C2883 1.373 . S
C2882 C2884 1.389 . S
C2883 H2862 0.950 . S
C2883 C2882 1.373 . S
C2883 C2899 1.377 . S
C2884 C2882 1.389 . S
C2884 C2885 1.524 . S
C2884 C2898 1.377 . S
C2885 C2884 1.524 . S
C2885 C2886 1.397 . S
C2885 C2890 1.363 . S
C2886 H2863 0.950 . S
C2886 C2885 1.397 . S
C2886 C2887 1.334 . S
C2887 H2864 0.950 . S
C2887 C2886 1.334 . S
C2887 C2888 1.287 . S
C2888 C2887 1.287 . S
C2888 C2889 1.524 1_554 S
C2888 H2907 0.913 1_554 S
C2889 H2865 0.950 . S
C2889 C2888 1.524 1_556 S
C2889 C2890 1.415 1_556 S
C2890 H2866 0.950 . S
C2890 C2885 1.363 . S
C2890 C2889 1.415 1_554 S
C2891 H2867 0.951 . S
C2891 C2892 1.366 . S
C2891 C2893 1.388 . S
C2892 C2891 1.366 . S
C2892 C2896 1.385 . S
C2893 H2868 0.951 . S
C2893 C2891 1.388 . S
C2893 C2894 1.366 . S
C2894 C2893 1.366 . S
C2894 C2895 1.414 . S
C2894 C2897 1.499 . S
C2895 H2869 0.950 . S
C2895 C2894 1.414 . S
C2895 C2896 1.374 . S
C2896 H2870 0.950 . S
C2896 C2892 1.385 . S
C2896 C2895 1.374 . S
C2897 C2894 1.499 . S
C2897 C2898 1.373 . S
C2897 C2899 1.389 . S
C2898 H2871 0.950 . S
C2898 C2884 1.377 . S
C2898 C2897 1.373 . S
C2899 C2883 1.377 . S
C2899 C2897 1.389 . S
C2899 C2900 1.524 . S
C2900 C2899 1.524 . S
C2900 C2901 1.397 . S
C2900 C2905 1.363 . S
C2901 H2872 0.950 . S
C2901 C2900 1.397 . S
C2901 C2902 1.334 . S
C2902 H2873 0.950 . S
C2902 C2901 1.334 . S
C2902 C2903 1.287 . S
C2903 C2902 1.287 . S
C2903 C2904 1.524 . S
C2903 H2906 0.999 . S
C2904 H2874 0.950 . S
C2904 C2903 1.524 . S
C2904 C2905 1.415 . S
C2905 H2875 0.950 . S
C2905 C2900 1.363 . S
C2905 C2904 1.415 . S
H2906 C2903 0.999 . S
H2907 C2888 0.913 1_556 S
H2908 C2926 0.951 . S
H2909 C2928 0.951 . S
H2910 C2930 0.950 . S
H2911 C2931 0.950 . S
H2912 C2933 0.950 . S
H2913 C2936 0.950 . S
H2914 C2937 0.950 . S
H2915 C2939 0.950 . S
H2916 C2940 0.950 . S
H2917 C2941 0.951 . S
H2918 C2943 0.951 . S
H2919 C2945 0.950 . S
H2920 C2946 0.950 . S
H2921 C2948 0.950 . S
H2922 C2951 0.950 . S
H2923 C2952 0.950 . S
H2924 C2954 0.950 . S
H2925 C2955 0.950 . S
C2926 H2908 0.951 . S
C2926 C2927 1.366 . S
C2926 C2928 1.388 . S
C2927 C2926 1.366 . S
C2927 C2931 1.385 . S
C2928 H2909 0.951 . S
C2928 C2926 1.388 . S
C2928 C2929 1.366 . S
C2929 C2928 1.366 . S
C2929 C2930 1.414 . S
C2929 C2932 1.499 . S
C2930 H2910 0.950 . S
C2930 C2929 1.414 . S
C2930 C2931 1.374 . S
C2931 H2911 0.950 . S
C2931 C2927 1.385 . S
C2931 C2930 1.374 . S
C2932 C2929 1.499 . S
C2932 C2933 1.373 . S
C2932 C2934 1.389 . S
C2933 H2912 0.950 . S
C2933 C2932 1.373 . S
C2933 C2949 1.377 . S
C2934 C2932 1.389 . S
C2934 C2935 1.524 . S
C2934 C2948 1.377 . S
C2935 C2934 1.524 . S
C2935 C2936 1.397 . S
C2935 C2940 1.363 . S
C2936 H2913 0.950 . S
C2936 C2935 1.397 . S
C2936 C2937 1.334 . S
C2937 H2914 0.950 . S
C2937 C2936 1.334 . S
C2937 C2938 1.287 . S
C2938 C2937 1.287 . S
C2938 C2939 1.524 . S
C2938 H2957 0.913 . S
C2939 H2915 0.950 . S
C2939 C2938 1.524 . S
C2939 C2940 1.415 . S
C2940 H2916 0.950 . S
C2940 C2935 1.363 . S
C2940 C2939 1.415 . S
C2941 H2917 0.951 . S
C2941 C2942 1.366 . S
C2941 C2943 1.388 . S
C2942 C2941 1.366 . S
C2942 C2946 1.385 . S
C2943 H2918 0.951 . S
C2943 C2941 1.388 . S
C2943 C2944 1.366 . S
C2944 C2943 1.366 . S
C2944 C2945 1.414 . S
C2944 C2947 1.499 . S
C2945 H2919 0.950 . S
C2945 C2944 1.414 . S
C2945 C2946 1.374 . S
C2946 H2920 0.950 . S
C2946 C2942 1.385 . S
C2946 C2945 1.374 . S
C2947 C2944 1.499 . S
C2947 C2948 1.373 . S
C2947 C2949 1.389 . S
C2948 H2921 0.950 . S
C2948 C2934 1.377 . S
C2948 C2947 1.373 . S
C2949 C2933 1.377 . S
C2949 C2947 1.389 . S
C2949 C2950 1.524 . S
C2950 C2949 1.524 . S
C2950 C2951 1.397 . S
C2950 C2955 1.363 . S
C2951 H2922 0.950 . S
C2951 C2950 1.397 . S
C2951 C2952 1.334 . S
C2952 H2923 0.950 . S
C2952 C2951 1.334 . S
C2952 C2953 1.287 . S
C2953 C2952 1.287 . S
C2953 C2954 1.524 . S
C2953 H2956 0.999 . S
C2954 H2924 0.950 . S
C2954 C2953 1.524 . S
C2954 C2955 1.415 . S
C2955 H2925 0.950 . S
C2955 C2950 1.363 . S
C2955 C2954 1.415 . S
H2956 C2953 0.999 . S
H2957 C2938 0.913 . S
H2958 C2976 0.951 . S
H2959 C2978 0.951 . S
H2960 C2980 0.950 . S
H2961 C2981 0.950 . S
H2962 C2983 0.950 . S
H2963 C2986 0.950 . S
H2964 C2987 0.950 . S
H2965 C2989 0.950 . S
H2966 C2990 0.950 . S
H2967 C2991 0.951 . S
H2968 C2993 0.951 . S
H2969 C2995 0.950 . S
H2970 C2996 0.950 . S
H2971 C2998 0.950 . S
H2972 C3001 0.950 . S
H2973 C3002 0.950 . S
H2974 C3004 0.950 . S
H2975 C3005 0.950 . S
C2976 H2958 0.951 . S
C2976 C2977 1.366 . S
C2976 C2978 1.388 . S
C2977 C2976 1.366 . S
C2977 C2981 1.385 . S
C2978 H2959 0.951 . S
C2978 C2976 1.388 . S
C2978 C2979 1.366 . S
C2979 C2978 1.366 . S
C2979 C2980 1.414 . S
C2979 C2982 1.499 . S
C2980 H2960 0.950 . S
C2980 C2979 1.414 . S
C2980 C2981 1.374 . S
C2981 H2961 0.950 . S
C2981 C2977 1.385 . S
C2981 C2980 1.374 . S
C2982 C2979 1.499 . S
C2982 C2983 1.373 . S
C2982 C2984 1.389 . S
C2983 H2962 0.950 . S
C2983 C2982 1.373 . S
C2983 C2999 1.377 . S
C2984 C2982 1.389 . S
C2984 C2985 1.524 . S
C2984 C2998 1.377 . S
C2985 C2984 1.524 . S
C2985 C2986 1.397 . S
C2985 C2990 1.363 . S
C2986 H2963 0.950 . S
C2986 C2985 1.397 . S
C2986 C2987 1.334 . S
C2987 H2964 0.950 . S
C2987 C2986 1.334 . S
C2987 C2988 1.287 . S
C2988 C2987 1.287 . S
C2988 C2989 1.524 . S
C2988 H3007 0.913 . S
C2989 H2965 0.950 . S
C2989 C2988 1.524 . S
C2989 C2990 1.415 . S
C2990 H2966 0.950 . S
C2990 C2985 1.363 . S
C2990 C2989 1.415 . S
C2991 H2967 0.951 . S
C2991 C2992 1.366 . S
C2991 C2993 1.388 . S
C2992 C2991 1.366 . S
C2992 C2996 1.385 . S
C2993 H2968 0.951 . S
C2993 C2991 1.388 . S
C2993 C2994 1.366 . S
C2994 C2993 1.366 . S
C2994 C2995 1.414 . S
C2994 C2997 1.499 . S
C2995 H2969 0.950 . S
C2995 C2994 1.414 . S
C2995 C2996 1.374 . S
C2996 H2970 0.950 . S
C2996 C2992 1.385 . S
C2996 C2995 1.374 . S
C2997 C2994 1.499 . S
C2997 C2998 1.373 . S
C2997 C2999 1.389 . S
C2998 H2971 0.950 . S
C2998 C2984 1.377 . S
C2998 C2997 1.373 . S
C2999 C2983 1.377 . S
C2999 C2997 1.389 . S
C2999 C3000 1.524 . S
C3000 C2999 1.524 . S
C3000 C3001 1.397 . S
C3000 C3005 1.363 . S
C3001 H2972 0.950 . S
C3001 C3000 1.397 . S
C3001 C3002 1.334 . S
C3002 H2973 0.950 . S
C3002 C3001 1.334 . S
C3002 C3003 1.287 . S
C3003 C3002 1.287 . S
C3003 C3004 1.524 . S
C3003 H3006 0.999 . S
C3004 H2974 0.950 . S
C3004 C3003 1.524 . S
C3004 C3005 1.415 . S
C3005 H2975 0.950 . S
C3005 C3000 1.363 . S
C3005 C3004 1.415 . S
H3006 C3003 0.999 . S
H3007 C2988 0.913 . S
H3008 C3026 0.951 . S
H3009 C3028 0.951 . S
H3010 C3030 0.950 . S
H3011 C3031 0.950 . S
H3012 C3033 0.950 . S
H3013 C3036 0.950 . S
H3014 C3037 0.950 . S
H3015 C3039 0.950 . S
H3016 C3040 0.950 . S
H3017 C3041 0.951 . S
H3018 C3043 0.951 . S
H3019 C3045 0.950 . S
H3020 C3046 0.950 . S
H3021 C3048 0.950 . S
H3022 C3051 0.950 . S
H3023 C3052 0.950 . S
H3024 C3054 0.950 . S
H3025 C3055 0.950 . S
C3026 H3008 0.951 . S
C3026 C3027 1.366 . S
C3026 C3028 1.388 . S
C3027 C3026 1.366 . S
C3027 C3031 1.385 . S
C3028 H3009 0.951 . S
C3028 C3026 1.388 . S
C3028 C3029 1.366 . S
C3029 C3028 1.366 . S
C3029 C3030 1.414 . S
C3029 C3032 1.499 . S
C3030 H3010 0.950 . S
C3030 C3029 1.414 . S
C3030 C3031 1.374 . S
C3031 H3011 0.950 . S
C3031 C3027 1.385 . S
C3031 C3030 1.374 . S
C3032 C3029 1.499 . S
C3032 C3033 1.373 . S
C3032 C3034 1.389 . S
C3033 H3012 0.950 . S
C3033 C3032 1.373 . S
C3033 C3049 1.377 . S
C3034 C3032 1.389 . S
C3034 C3035 1.524 . S
C3034 C3048 1.377 . S
C3035 C3034 1.524 . S
C3035 C3036 1.397 . S
C3035 C3040 1.363 . S
C3036 H3013 0.950 . S
C3036 C3035 1.397 . S
C3036 C3037 1.334 . S
C3037 H3014 0.950 . S
C3037 C3036 1.334 . S
C3037 C3038 1.287 . S
C3038 C3037 1.287 . S
C3038 C3039 1.524 . S
C3038 H3057 0.913 . S
C3039 H3015 0.950 . S
C3039 C3038 1.524 . S
C3039 C3040 1.415 . S
C3040 H3016 0.950 . S
C3040 C3035 1.363 . S
C3040 C3039 1.415 . S
C3041 H3017 0.951 . S
C3041 C3042 1.366 . S
C3041 C3043 1.388 . S
C3042 C3041 1.366 . S
C3042 C3046 1.385 . S
C3043 H3018 0.951 . S
C3043 C3041 1.388 . S
C3043 C3044 1.366 . S
C3044 C3043 1.366 . S
C3044 C3045 1.414 . S
C3044 C3047 1.499 . S
C3045 H3019 0.950 . S
C3045 C3044 1.414 . S
C3045 C3046 1.374 . S
C3046 H3020 0.950 . S
C3046 C3042 1.385 . S
C3046 C3045 1.374 . S
C3047 C3044 1.499 . S
C3047 C3048 1.373 . S
C3047 C3049 1.389 . S
C3048 H3021 0.950 . S
C3048 C3034 1.377 . S
C3048 C3047 1.373 . S
C3049 C3033 1.377 . S
C3049 C3047 1.389 . S
C3049 C3050 1.524 . S
C3050 C3049 1.524 . S
C3050 C3051 1.397 . S
C3050 C3055 1.363 . S
C3051 H3022 0.950 . S
C3051 C3050 1.397 . S
C3051 C3052 1.334 . S
C3052 H3023 0.950 . S
C3052 C3051 1.334 . S
C3052 C3053 1.287 . S
C3053 C3052 1.287 . S
C3053 C3054 1.524 . S
C3053 H3056 0.999 . S
C3054 H3024 0.950 . S
C3054 C3053 1.524 . S
C3054 C3055 1.415 . S
C3055 H3025 0.950 . S
C3055 C3050 1.363 . S
C3055 C3054 1.415 . S
H3056 C3053 0.999 . S
H3057 C3038 0.913 . S
H3058 C3076 0.951 . S
H3059 C3078 0.951 . S
H3060 C3080 0.950 . S
H3061 C3081 0.950 . S
H3062 C3083 0.950 . S
H3063 C3086 0.950 . S
H3064 C3087 0.950 . S
H3065 C3089 0.950 . S
H3066 C3090 0.950 . S
H3067 C3091 0.951 . S
H3068 C3093 0.951 . S
H3069 C3095 0.950 . S
H3070 C3096 0.950 . S
H3071 C3098 0.950 . S
H3072 C3101 0.950 . S
H3073 C3102 0.950 . S
H3074 C3104 0.950 . S
H3075 C3105 0.950 . S
C3076 H3058 0.951 . S
C3076 C3077 1.366 . S
C3076 C3078 1.388 . S
C3077 C3076 1.366 . S
C3077 C3081 1.385 . S
C3078 H3059 0.951 . S
C3078 C3076 1.388 . S
C3078 C3079 1.366 . S
C3079 C3078 1.366 . S
C3079 C3080 1.414 . S
C3079 C3082 1.499 . S
C3080 H3060 0.950 . S
C3080 C3079 1.414 . S
C3080 C3081 1.374 . S
C3081 H3061 0.950 . S
C3081 C3077 1.385 . S
C3081 C3080 1.374 . S
C3082 C3079 1.499 . S
C3082 C3083 1.373 . S
C3082 C3084 1.389 . S
C3083 H3062 0.950 . S
C3083 C3082 1.373 . S
C3083 C3099 1.377 . S
C3084 C3082 1.389 . S
C3084 C3085 1.524 . S
C3084 C3098 1.377 . S
C3085 C3084 1.524 . S
C3085 C3086 1.397 . S
C3085 C3090 1.363 . S
C3086 H3063 0.950 . S
C3086 C3085 1.397 . S
C3086 C3087 1.334 . S
C3087 H3064 0.950 . S
C3087 C3086 1.334 . S
C3087 C3088 1.287 . S
C3088 C3087 1.287 . S
C3088 C3089 1.524 . S
C3088 H3107 0.913 . S
C3089 H3065 0.950 . S
C3089 C3088 1.524 . S
C3089 C3090 1.415 . S
C3090 H3066 0.950 . S
C3090 C3085 1.363 . S
C3090 C3089 1.415 . S
C3091 H3067 0.951 . S
C3091 C3092 1.366 . S
C3091 C3093 1.388 . S
C3092 C3091 1.366 . S
C3092 C3096 1.385 . S
C3093 H3068 0.951 . S
C3093 C3091 1.388 . S
C3093 C3094 1.366 . S
C3094 C3093 1.366 . S
C3094 C3095 1.414 . S
C3094 C3097 1.499 . S
C3095 H3069 0.950 . S
C3095 C3094 1.414 . S
C3095 C3096 1.374 . S
C3096 H3070 0.950 . S
C3096 C3092 1.385 . S
C3096 C3095 1.374 . S
C3097 C3094 1.499 . S
C3097 C3098 1.373 . S
C3097 C3099 1.389 . S
C3098 H3071 0.950 . S
C3098 C3084 1.377 . S
C3098 C3097 1.373 . S
C3099 C3083 1.377 . S
C3099 C3097 1.389 . S
C3099 C3100 1.524 . S
C3100 C3099 1.524 . S
C3100 C3101 1.397 . S
C3100 C3105 1.363 . S
C3101 H3072 0.950 . S
C3101 C3100 1.397 . S
C3101 C3102 1.334 . S
C3102 H3073 0.950 . S
C3102 C3101 1.334 . S
C3102 C3103 1.287 . S
C3103 C3102 1.287 . S
C3103 C3104 1.524 . S
C3103 H3106 0.999 . S
C3104 H3074 0.950 . S
C3104 C3103 1.524 . S
C3104 C3105 1.415 . S
C3105 H3075 0.950 . S
C3105 C3100 1.363 . S
C3105 C3104 1.415 . S
H3106 C3103 0.999 . S
H3107 C3088 0.913 . S
H3108 C3126 0.951 1_655 S
H3109 C3128 0.951 1_655 S
H3110 C3130 0.950 . S
H3111 C3131 0.950 . S
H3112 C3133 0.950 . S
H3113 C3136 0.950 . S
H3114 C3137 0.950 1_455 S
H3115 C3139 0.950 . S
H3116 C3140 0.950 . S
H3117 C3141 0.951 . S
H3118 C3143 0.951 . S
H3119 C3145 0.950 . S
H3120 C3146 0.950 . S
H3121 C3148 0.950 1_655 S
H3122 C3151 0.950 . S
H3123 C3152 0.950 . S
H3124 C3154 0.950 . S
H3125 C3155 0.950 . S
C3126 H3108 0.951 1_455 S
C3126 C3127 1.366 . S
C3126 C3128 1.388 . S
C3127 C3126 1.366 . S
C3127 C3131 1.385 . S
C3128 H3109 0.951 1_455 S
C3128 C3126 1.388 . S
C3128 C3129 1.366 . S
C3129 C3128 1.366 . S
C3129 C3130 1.414 . S
C3129 C3132 1.499 . S
C3130 H3110 0.950 . S
C3130 C3129 1.414 . S
C3130 C3131 1.374 . S
C3131 H3111 0.950 . S
C3131 C3127 1.385 . S
C3131 C3130 1.374 . S
C3132 C3129 1.499 . S
C3132 C3133 1.373 . S
C3132 C3134 1.389 . S
C3133 H3112 0.950 . S
C3133 C3132 1.373 . S
C3133 C3149 1.377 . S
C3134 C3132 1.389 . S
C3134 C3135 1.524 1_455 S
C3134 C3148 1.377 . S
C3135 C3134 1.524 1_655 S
C3135 C3136 1.397 1_655 S
C3135 C3140 1.363 . S
C3136 H3113 0.950 . S
C3136 C3135 1.397 1_455 S
C3136 C3137 1.334 1_455 S
C3137 H3114 0.950 1_655 S
C3137 C3136 1.334 1_655 S
C3137 C3138 1.287 . S
C3138 C3137 1.287 . S
C3138 C3139 1.524 . S
C3138 H3157 0.913 . S
C3139 H3115 0.950 . S
C3139 C3138 1.524 . S
C3139 C3140 1.415 . S
C3140 H3116 0.950 . S
C3140 C3135 1.363 . S
C3140 C3139 1.415 . S
C3141 H3117 0.951 . S
C3141 C3142 1.366 . S
C3141 C3143 1.388 . S
C3142 C3141 1.366 . S
C3142 C3146 1.385 1_455 S
C3143 H3118 0.951 . S
C3143 C3141 1.388 . S
C3143 C3144 1.366 . S
C3144 C3143 1.366 . S
C3144 C3145 1.414 1_455 S
C3144 C3147 1.499 . S
C3145 H3119 0.950 . S
C3145 C3144 1.414 1_655 S
C3145 C3146 1.374 . S
C3146 H3120 0.950 . S
C3146 C3142 1.385 1_655 S
C3146 C3145 1.374 . S
C3147 C3144 1.499 . S
C3147 C3148 1.373 . S
C3147 C3149 1.389 . S
C3148 H3121 0.950 1_455 S
C3148 C3134 1.377 . S
C3148 C3147 1.373 . S
C3149 C3133 1.377 . S
C3149 C3147 1.389 . S
C3149 C3150 1.524 . S
C3150 C3149 1.524 . S
C3150 C3151 1.397 . S
C3150 C3155 1.363 . S
C3151 H3122 0.950 . S
C3151 C3150 1.397 . S
C3151 C3152 1.334 . S
C3152 H3123 0.950 . S
C3152 C3151 1.334 . S
C3152 C3153 1.287 . S
C3153 C3152 1.287 . S
C3153 C3154 1.524 . S
C3153 H3156 0.999 . S
C3154 H3124 0.950 . S
C3154 C3153 1.524 . S
C3154 C3155 1.415 . S
C3155 H3125 0.950 . S
C3155 C3150 1.363 . S
C3155 C3154 1.415 . S
H3156 C3153 0.999 . S
H3157 C3138 0.913 . S
H3158 C3176 0.951 . S
H3159 C3178 0.951 . S
H3160 C3180 0.950 . S
H3161 C3181 0.950 . S
H3162 C3183 0.950 . S
H3163 C3186 0.950 . S
H3164 C3187 0.950 . S
H3165 C3189 0.950 . S
H3166 C3190 0.950 . S
H3167 C3191 0.951 . S
H3168 C3193 0.951 . S
H3169 C3195 0.950 . S
H3170 C3196 0.950 . S
H3171 C3198 0.950 . S
H3172 C3201 0.950 . S
H3173 C3202 0.950 . S
H3174 C3204 0.950 . S
H3175 C3205 0.950 . S
C3176 H3158 0.951 . S
C3176 C3177 1.366 . S
C3176 C3178 1.388 . S
C3177 C3176 1.366 . S
C3177 C3181 1.385 . S
C3178 H3159 0.951 . S
C3178 C3176 1.388 . S
C3178 C3179 1.366 . S
C3179 C3178 1.366 . S
C3179 C3180 1.414 . S
C3179 C3182 1.499 . S
C3180 H3160 0.950 . S
C3180 C3179 1.414 . S
C3180 C3181 1.374 . S
C3181 H3161 0.950 . S
C3181 C3177 1.385 . S
C3181 C3180 1.374 . S
C3182 C3179 1.499 . S
C3182 C3183 1.373 . S
C3182 C3184 1.389 . S
C3183 H3162 0.950 . S
C3183 C3182 1.373 . S
C3183 C3199 1.377 . S
C3184 C3182 1.389 . S
C3184 C3185 1.524 . S
C3184 C3198 1.377 . S
C3185 C3184 1.524 . S
C3185 C3186 1.397 . S
C3185 C3190 1.363 . S
C3186 H3163 0.950 . S
C3186 C3185 1.397 . S
C3186 C3187 1.334 . S
C3187 H3164 0.950 . S
C3187 C3186 1.334 . S
C3187 C3188 1.287 . S
C3188 C3187 1.287 . S
C3188 C3189 1.524 . S
C3188 H3207 0.913 . S
C3189 H3165 0.950 . S
C3189 C3188 1.524 . S
C3189 C3190 1.415 . S
C3190 H3166 0.950 . S
C3190 C3185 1.363 . S
C3190 C3189 1.415 . S
C3191 H3167 0.951 . S
C3191 C3192 1.366 . S
C3191 C3193 1.388 . S
C3192 C3191 1.366 . S
C3192 C3196 1.385 . S
C3193 H3168 0.951 . S
C3193 C3191 1.388 . S
C3193 C3194 1.366 . S
C3194 C3193 1.366 . S
C3194 C3195 1.414 . S
C3194 C3197 1.499 . S
C3195 H3169 0.950 . S
C3195 C3194 1.414 . S
C3195 C3196 1.374 . S
C3196 H3170 0.950 . S
C3196 C3192 1.385 . S
C3196 C3195 1.374 . S
C3197 C3194 1.499 . S
C3197 C3198 1.373 . S
C3197 C3199 1.389 . S
C3198 H3171 0.950 . S
C3198 C3184 1.377 . S
C3198 C3197 1.373 . S
C3199 C3183 1.377 . S
C3199 C3197 1.389 . S
C3199 C3200 1.524 . S
C3200 C3199 1.524 . S
C3200 C3201 1.397 . S
C3200 C3205 1.363 . S
C3201 H3172 0.950 . S
C3201 C3200 1.397 . S
C3201 C3202 1.334 . S
C3202 H3173 0.950 . S
C3202 C3201 1.334 . S
C3202 C3203 1.287 . S
C3203 C3202 1.287 . S
C3203 C3204 1.524 . S
C3203 H3206 0.999 . S
C3204 H3174 0.950 . S
C3204 C3203 1.524 . S
C3204 C3205 1.415 . S
C3205 H3175 0.950 . S
C3205 C3200 1.363 . S
C3205 C3204 1.415 . S
H3206 C3203 0.999 . S
H3207 C3188 0.913 . S
H3208 C3226 0.951 . S
H3209 C3228 0.951 . S
H3210 C3230 0.950 . S
H3211 C3231 0.950 . S
H3212 C3233 0.946 1_545 S
H3213 C3236 0.950 . S
H3214 C3237 0.950 . S
H3215 C3239 0.950 . S
H3216 C3240 0.950 . S
H3217 C3241 0.951 . S
H3218 C3243 0.951 . S
H3219 C3245 0.950 . S
H3220 C3246 0.950 . S
H3221 C3248 0.950 . S
H3222 C3251 0.950 . S
H3223 C3252 0.950 . S
H3224 C3254 0.950 . S
H3225 C3255 0.950 . S
C3226 H3208 0.951 . S
C3226 C3227 1.366 . S
C3226 C3228 1.388 . S
C3227 C3226 1.366 . S
C3227 C3231 1.385 . S
C3228 H3209 0.951 . S
C3228 C3226 1.388 . S
C3228 C3229 1.366 . S
C3229 C3228 1.366 . S
C3229 C3230 1.414 . S
C3229 C3232 1.499 . S
C3230 H3210 0.950 . S
C3230 C3229 1.414 . S
C3230 C3231 1.374 . S
C3231 H3211 0.950 . S
C3231 C3227 1.385 . S
C3231 C3230 1.374 . S
C3232 C3229 1.499 . S
C3232 C3233 1.375 . S
C3232 C3234 1.389 . S
C3233 H3212 0.946 1_565 S
C3233 C3232 1.375 . S
C3233 C3249 1.379 1_565 S
C3234 C3232 1.389 . S
C3234 C3235 1.524 . S
C3234 C3248 1.377 . S
C3235 C3234 1.524 . S
C3235 C3236 1.397 . S
C3235 C3240 1.363 . S
C3236 H3213 0.950 . S
C3236 C3235 1.397 . S
C3236 C3237 1.334 . S
C3237 H3214 0.950 . S
C3237 C3236 1.334 . S
C3237 C3238 1.287 . S
C3238 C3237 1.287 . S
C3238 C3239 1.524 . S
C3238 H3257 0.913 . S
C3239 H3215 0.950 . S
C3239 C3238 1.524 . S
C3239 C3240 1.415 . S
C3240 H3216 0.950 . S
C3240 C3235 1.363 . S
C3240 C3239 1.415 . S
C3241 H3217 0.951 . S
C3241 C3242 1.366 . S
C3241 C3243 1.388 . S
C3242 C3241 1.366 . S
C3242 C3246 1.385 . S
C3243 H3218 0.951 . S
C3243 C3241 1.388 . S
C3243 C3244 1.366 . S
C3244 C3243 1.366 . S
C3244 C3245 1.414 . S
C3244 C3247 1.499 . S
C3245 H3219 0.950 . S
C3245 C3244 1.414 . S
C3245 C3246 1.374 . S
C3246 H3220 0.950 . S
C3246 C3242 1.385 . S
C3246 C3245 1.374 . S
C3247 C3244 1.499 . S
C3247 C3248 1.373 . S
C3247 C3249 1.389 1_565 S
C3248 H3221 0.950 . S
C3248 C3234 1.377 . S
C3248 C3247 1.373 . S
C3249 C3233 1.379 1_545 S
C3249 C3247 1.389 1_545 S
C3249 C3250 1.524 . S
C3250 C3249 1.524 . S
C3250 C3251 1.397 . S
C3250 C3255 1.363 . S
C3251 H3222 0.950 . S
C3251 C3250 1.397 . S
C3251 C3252 1.334 . S
C3252 H3223 0.950 . S
C3252 C3251 1.334 . S
C3252 C3253 1.287 . S
C3253 C3252 1.287 . S
C3253 C3254 1.524 . S
C3253 H3256 0.999 . S
C3254 H3224 0.950 . S
C3254 C3253 1.524 . S
C3254 C3255 1.415 . S
C3255 H3225 0.950 . S
C3255 C3250 1.363 . S
C3255 C3254 1.415 . S
H3256 C3253 0.999 . S
H3257 C3238 0.913 . S
H3258 C3276 0.951 . S
H3259 C3278 0.951 . S
H3260 C3280 0.950 . S
H3261 C3281 0.950 . S
H3262 C3283 0.950 . S
H3263 C3286 0.950 . S
H3264 C3287 0.950 . S
H3265 C3289 0.950 . S
H3266 C3290 0.950 . S
H3267 C3291 0.951 . S
H3268 C3293 0.951 . S
H3269 C3295 0.994 1_545 S
H3270 C3296 0.976 . S
H3271 C3298 0.950 . S
H3272 C3301 0.950 . S
H3273 C3302 0.950 . S
H3274 C3304 0.950 . S
H3275 C3305 0.950 . S
C3276 H3258 0.951 . S
C3276 C3277 1.366 . S
C3276 C3278 1.388 . S
C3277 C3276 1.366 . S
C3277 C3281 1.385 . S
C3278 H3259 0.951 . S
C3278 C3276 1.388 . S
C3278 C3279 1.366 . S
C3279 C3278 1.366 . S
C3279 C3280 1.414 . S
C3279 C3282 1.499 . S
C3280 H3260 0.950 . S
C3280 C3279 1.414 . S
C3280 C3281 1.374 . S
C3281 H3261 0.950 . S
C3281 C3277 1.385 . S
C3281 C3280 1.374 . S
C3282 C3279 1.499 . S
C3282 C3283 1.373 . S
C3282 C3284 1.389 1_565 S
C3283 H3262 0.950 . S
C3283 C3282 1.373 . S
C3283 C3299 1.377 . S
C3284 C3282 1.389 1_545 S
C3284 C3285 1.524 . S
C3284 C3298 1.377 . S
C3285 C3284 1.524 . S
C3285 C3286 1.397 . S
C3285 C3290 1.363 . S
C3286 H3263 0.950 . S
C3286 C3285 1.397 . S
C3286 C3287 1.334 . S
C3287 H3264 0.950 . S
C3287 C3286 1.334 . S
C3287 C3288 1.287 . S
C3288 C3287 1.287 . S
C3288 C3289 1.524 . S
C3288 H3307 0.913 . S
C3289 H3265 0.950 . S
C3289 C3288 1.524 . S
C3289 C3290 1.415 . S
C3290 H3266 0.950 . S
C3290 C3285 1.363 . S
C3290 C3289 1.415 . S
C3291 H3267 0.951 . S
C3291 C3292 1.386 . S
C3291 C3293 1.388 . S
C3292 C3291 1.386 . S
C3292 C3296 1.439 1_565 S
C3293 H3268 0.951 . S
C3293 C3291 1.388 . S
C3293 C3294 1.366 . S
C3294 C3293 1.366 . S
C3294 C3295 1.434 . S
C3294 C3297 1.499 . S
C3295 H3269 0.994 1_565 S
C3295 C3294 1.434 . S
C3295 C3296 1.292 1_565 S
C3296 H3270 0.976 . S
C3296 C3292 1.439 1_545 S
C3296 C3295 1.292 1_545 S
C3297 C3294 1.499 . S
C3297 C3298 1.373 1_565 S
C3297 C3299 1.389 . S
C3298 H3271 0.950 . S
C3298 C3284 1.377 . S
C3298 C3297 1.373 1_545 S
C3299 C3283 1.377 . S
C3299 C3297 1.389 . S
C3299 C3300 1.524 . S
C3300 C3299 1.524 . S
C3300 C3301 1.397 . S
C3300 C3305 1.363 . S
C3301 H3272 0.950 . S
C3301 C3300 1.397 . S
C3301 C3302 1.334 . S
C3302 H3273 0.950 . S
C3302 C3301 1.334 . S
C3302 C3303 1.287 . S
C3303 C3302 1.287 . S
C3303 C3304 1.524 . S
C3303 H3306 0.999 . S
C3304 H3274 0.950 . S
C3304 C3303 1.524 . S
C3304 C3305 1.415 . S
C3305 H3275 0.950 . S
C3305 C3300 1.363 . S
C3305 C3304 1.415 . S
H3306 C3303 0.999 . S
H3307 C3288 0.913 . S
H3308 C3326 0.951 . S
H3309 C3328 0.950 . S
H3310 C3330 0.950 . S
H3311 C3331 0.950 . S
H3312 C3333 0.950 1_655 S
H3313 C3336 0.950 . S
H3314 C3337 0.950 . S
H3315 C3339 0.950 . S
H3316 C3340 0.950 . S
H3317 C3341 0.951 . S
H3318 C3343 0.951 . S
H3319 C3345 0.950 . S
H3320 C3346 0.950 . S
H3321 C3348 0.950 . S
H3322 C3351 0.950 . S
H3323 C3352 0.950 . S
H3324 C3354 0.950 . S
H3325 C3355 0.950 1_455 S
C3326 H3308 0.951 . S
C3326 C3327 1.366 . S
C3326 C3328 1.388 . S
C3327 C3326 1.366 . S
C3327 C3331 1.385 . S
C3328 H3309 0.950 . S
C3328 C3326 1.388 . S
C3328 C3329 1.366 . S
C3329 C3328 1.366 . S
C3329 C3330 1.414 . S
C3329 C3332 1.499 . S
C3330 H3310 0.950 . S
C3330 C3329 1.414 . S
C3330 C3331 1.374 . S
C3331 H3311 0.950 . S
C3331 C3327 1.385 . S
C3331 C3330 1.374 . S
C3332 C3329 1.499 . S
C3332 C3333 1.373 . S
C3332 C3334 1.389 . S
C3333 H3312 0.950 1_455 S
C3333 C3332 1.373 . S
C3333 C3349 1.377 1_455 S
C3334 C3332 1.389 . S
C3334 C3335 1.524 . S
C3334 C3348 1.377 . S
C3335 C3334 1.524 . S
C3335 C3336 1.397 . S
C3335 C3340 1.363 . S
C3336 H3313 0.950 . S
C3336 C3335 1.397 . S
C3336 C3337 1.334 . S
C3337 H3314 0.950 . S
C3337 C3336 1.334 . S
C3337 C3338 1.287 . S
C3338 C3337 1.287 . S
C3338 C3339 1.524 . S
C3338 H3357 0.913 . S
C3339 H3315 0.950 . S
C3339 C3338 1.524 . S
C3339 C3340 1.415 . S
C3340 H3316 0.950 . S
C3340 C3335 1.363 . S
C3340 C3339 1.415 . S
C3341 H3317 0.951 . S
C3341 C3342 1.367 1_455 S
C3341 C3343 1.388 . S
C3342 C3341 1.367 1_655 S
C3342 C3346 1.393 . S
C3343 H3318 0.951 . S
C3343 C3341 1.388 . S
C3343 C3344 1.366 . S
C3344 C3343 1.366 . S
C3344 C3345 1.414 1_455 S
C3344 C3347 1.499 . S
C3345 H3319 0.950 . S
C3345 C3344 1.414 1_655 S
C3345 C3346 1.374 . S
C3346 H3320 0.950 . S
C3346 C3342 1.393 . S
C3346 C3345 1.374 . S
C3347 C3344 1.499 . S
C3347 C3348 1.373 . S
C3347 C3349 1.389 1_455 S
C3348 H3321 0.950 . S
C3348 C3334 1.377 . S
C3348 C3347 1.373 . S
C3349 C3333 1.377 1_655 S
C3349 C3347 1.389 1_655 S
C3349 C3350 1.524 . S
C3350 C3349 1.524 . S
C3350 C3351 1.397 . S
C3350 C3355 1.363 . S
C3351 H3322 0.950 . S
C3351 C3350 1.397 . S
C3351 C3352 1.334 . S
C3352 H3323 0.950 . S
C3352 C3351 1.334 . S
C3352 C3353 1.287 . S
C3353 C3352 1.287 . S
C3353 C3354 1.524 . S
C3353 H3356 0.999 . S
C3354 H3324 0.950 . S
C3354 C3353 1.524 . S
C3354 C3355 1.415 . S
C3355 H3325 0.950 1_655 S
C3355 C3350 1.363 . S
C3355 C3354 1.415 . S
H3356 C3353 0.999 . S
H3357 C3338 0.913 . S
H3358 C3376 0.951 . S
H3359 C3378 0.951 . S
H3360 C3380 0.950 . S
H3361 C3381 0.950 . S
H3362 C3383 0.950 . S
H3363 C3386 0.950 . S
H3364 C3387 0.950 . S
H3365 C3389 0.950 . S
H3366 C3390 0.950 . S
H3367 C3391 0.951 . S
H3368 C3393 0.951 . S
H3369 C3395 0.950 . S
H3370 C3396 0.950 . S
H3371 C3398 0.950 . S
H3372 C3401 0.950 . S
H3373 C3402 0.950 . S
H3374 C3404 0.950 . S
H3375 C3405 0.950 . S
C3376 H3358 0.951 . S
C3376 C3377 1.366 . S
C3376 C3378 1.388 . S
C3377 C3376 1.366 . S
C3377 C3381 1.385 . S
C3378 H3359 0.951 . S
C3378 C3376 1.388 . S
C3378 C3379 1.366 . S
C3379 C3378 1.366 . S
C3379 C3380 1.414 . S
C3379 C3382 1.499 . S
C3380 H3360 0.950 . S
C3380 C3379 1.414 . S
C3380 C3381 1.374 . S
C3381 H3361 0.950 . S
C3381 C3377 1.385 . S
C3381 C3380 1.374 . S
C3382 C3379 1.499 . S
C3382 C3383 1.373 . S
C3382 C3384 1.389 . S
C3383 H3362 0.950 . S
C3383 C3382 1.373 . S
C3383 C3399 1.377 . S
C3384 C3382 1.389 . S
C3384 C3385 1.524 . S
C3384 C3398 1.377 . S
C3385 C3384 1.524 . S
C3385 C3386 1.397 . S
C3385 C3390 1.363 . S
C3386 H3363 0.950 . S
C3386 C3385 1.397 . S
C3386 C3387 1.334 . S
C3387 H3364 0.950 . S
C3387 C3386 1.334 . S
C3387 C3388 1.287 . S
C3388 C3387 1.287 . S
C3388 C3389 1.524 . S
C3388 H3407 0.913 . S
C3389 H3365 0.950 . S
C3389 C3388 1.524 . S
C3389 C3390 1.415 . S
C3390 H3366 0.950 . S
C3390 C3385 1.363 . S
C3390 C3389 1.415 . S
C3391 H3367 0.951 . S
C3391 C3392 1.366 . S
C3391 C3393 1.388 . S
C3392 C3391 1.366 . S
C3392 C3396 1.385 . S
C3393 H3368 0.951 . S
C3393 C3391 1.388 . S
C3393 C3394 1.366 . S
C3394 C3393 1.366 . S
C3394 C3395 1.414 . S
C3394 C3397 1.499 . S
C3395 H3369 0.950 . S
C3395 C3394 1.414 . S
C3395 C3396 1.374 . S
C3396 H3370 0.950 . S
C3396 C3392 1.385 . S
C3396 C3395 1.374 . S
C3397 C3394 1.499 . S
C3397 C3398 1.373 . S
C3397 C3399 1.389 . S
C3398 H3371 0.950 . S
C3398 C3384 1.377 . S
C3398 C3397 1.373 . S
C3399 C3383 1.377 . S
C3399 C3397 1.389 . S
C3399 C3400 1.524 . S
C3400 C3399 1.524 . S
C3400 C3401 1.397 . S
C3400 C3405 1.363 . S
C3401 H3372 0.950 . S
C3401 C3400 1.397 . S
C3401 C3402 1.334 . S
C3402 H3373 0.950 . S
C3402 C3401 1.334 . S
C3402 C3403 1.287 . S
C3403 C3402 1.287 . S
C3403 C3404 1.524 . S
C3403 H3406 0.999 . S
C3404 H3374 0.950 . S
C3404 C3403 1.524 . S
C3404 C3405 1.415 . S
C3405 H3375 0.950 . S
C3405 C3400 1.363 . S
C3405 C3404 1.415 . S
H3406 C3403 0.999 . S
H3407 C3388 0.913 . S
H3408 C3426 0.951 . S
H3409 C3428 0.951 . S
H3410 C3430 0.950 . S
H3411 C3431 0.950 . S
H3412 C3433 0.950 . S
H3413 C3436 0.950 . S
H3414 C3437 0.950 . S
H3415 C3439 0.950 . S
H3416 C3440 0.950 . S
H3417 C3441 0.951 . S
H3418 C3443 0.951 . S
H3419 C3445 0.950 . S
H3420 C3446 0.950 . S
H3421 C3448 0.950 . S
H3422 C3451 0.950 . S
H3423 C3452 0.950 . S
H3424 C3454 0.950 . S
H3425 C3455 0.950 . S
C3426 H3408 0.951 . S
C3426 C3427 1.366 . S
C3426 C3428 1.388 . S
C3427 C3426 1.366 . S
C3427 C3431 1.385 . S
C3428 H3409 0.951 . S
C3428 C3426 1.388 . S
C3428 C3429 1.366 . S
C3429 C3428 1.366 . S
C3429 C3430 1.414 . S
C3429 C3432 1.499 . S
C3430 H3410 0.950 . S
C3430 C3429 1.414 . S
C3430 C3431 1.374 . S
C3431 H3411 0.950 . S
C3431 C3427 1.385 . S
C3431 C3430 1.374 . S
C3432 C3429 1.499 . S
C3432 C3433 1.373 . S
C3432 C3434 1.389 . S
C3433 H3412 0.950 . S
C3433 C3432 1.373 . S
C3433 C3449 1.377 . S
C3434 C3432 1.389 . S
C3434 C3435 1.524 . S
C3434 C3448 1.377 . S
C3435 C3434 1.524 . S
C3435 C3436 1.397 . S
C3435 C3440 1.363 . S
C3436 H3413 0.950 . S
C3436 C3435 1.397 . S
C3436 C3437 1.334 . S
C3437 H3414 0.950 . S
C3437 C3436 1.334 . S
C3437 C3438 1.287 . S
C3438 C3437 1.287 . S
C3438 C3439 1.524 . S
C3438 H3457 0.913 . S
C3439 H3415 0.950 . S
C3439 C3438 1.524 . S
C3439 C3440 1.415 . S
C3440 H3416 0.950 . S
C3440 C3435 1.363 . S
C3440 C3439 1.415 . S
C3441 H3417 0.951 . S
C3441 C3442 1.366 . S
C3441 C3443 1.388 . S
C3442 C3441 1.366 . S
C3442 C3446 1.385 . S
C3443 H3418 0.951 . S
C3443 C3441 1.388 . S
C3443 C3444 1.366 . S
C3444 C3443 1.366 . S
C3444 C3445 1.414 . S
C3444 C3447 1.499 . S
C3445 H3419 0.950 . S
C3445 C3444 1.414 . S
C3445 C3446 1.374 . S
C3446 H3420 0.950 . S
C3446 C3442 1.385 . S
C3446 C3445 1.374 . S
C3447 C3444 1.499 . S
C3447 C3448 1.373 . S
C3447 C3449 1.389 . S
C3448 H3421 0.950 . S
C3448 C3434 1.377 . S
C3448 C3447 1.373 . S
C3449 C3433 1.377 . S
C3449 C3447 1.389 . S
C3449 C3450 1.524 . S
C3450 C3449 1.524 . S
C3450 C3451 1.397 . S
C3450 C3455 1.363 . S
C3451 H3422 0.950 . S
C3451 C3450 1.397 . S
C3451 C3452 1.334 . S
C3452 H3423 0.950 . S
C3452 C3451 1.334 . S
C3452 C3453 1.287 . S
C3453 C3452 1.287 . S
C3453 C3454 1.524 . S
C3453 H3456 0.999 . S
C3454 H3424 0.950 . S
C3454 C3453 1.524 . S
C3454 C3455 1.415 . S
C3455 H3425 0.950 . S
C3455 C3450 1.363 . S
C3455 C3454 1.415 . S
H3456 C3453 0.999 . S
H3457 C3438 0.913 . S
H3458 C3476 0.951 . S
H3459 C3478 0.951 . S
H3460 C3480 0.950 . S
H3461 C3481 0.950 . S
H3462 C3483 0.950 . S
H3463 C3486 0.950 . S
H3464 C3487 0.950 . S
H3465 C3489 0.950 . S
H3466 C3490 0.950 . S
H3467 C3491 0.951 . S
H3468 C3493 0.951 . S
H3469 C3495 0.950 . S
H3470 C3496 0.950 . S
H3471 C3498 0.950 . S
H3472 C3501 0.950 . S
H3473 C3502 0.950 . S
H3474 C3504 0.950 . S
H3475 C3505 0.950 . S
C3476 H3458 0.951 . S
C3476 C3477 1.366 . S
C3476 C3478 1.388 . S
C3477 C3476 1.366 . S
C3477 C3481 1.385 . S
C3478 H3459 0.951 . S
C3478 C3476 1.388 . S
C3478 C3479 1.366 . S
C3479 C3478 1.366 . S
C3479 C3480 1.414 . S
C3479 C3482 1.499 . S
C3480 H3460 0.950 . S
C3480 C3479 1.414 . S
C3480 C3481 1.374 . S
C3481 H3461 0.950 . S
C3481 C3477 1.385 . S
C3481 C3480 1.374 . S
C3482 C3479 1.499 . S
C3482 C3483 1.373 . S
C3482 C3484 1.389 . S
C3483 H3462 0.950 . S
C3483 C3482 1.373 . S
C3483 C3499 1.377 . S
C3484 C3482 1.389 . S
C3484 C3485 1.524 . S
C3484 C3498 1.377 . S
C3485 C3484 1.524 . S
C3485 C3486 1.397 . S
C3485 C3490 1.363 . S
C3486 H3463 0.950 . S
C3486 C3485 1.397 . S
C3486 C3487 1.334 . S
C3487 H3464 0.950 . S
C3487 C3486 1.334 . S
C3487 C3488 1.287 . S
C3488 C3487 1.287 . S
C3488 C3489 1.524 . S
C3488 H3507 0.913 . S
C3489 H3465 0.950 . S
C3489 C3488 1.524 . S
C3489 C3490 1.415 . S
C3490 H3466 0.950 . S
C3490 C3485 1.363 . S
C3490 C3489 1.415 . S
C3491 H3467 0.951 . S
C3491 C3492 1.366 . S
C3491 C3493 1.388 . S
C3492 C3491 1.366 . S
C3492 C3496 1.385 . S
C3493 H3468 0.951 . S
C3493 C3491 1.388 . S
C3493 C3494 1.366 . S
C3494 C3493 1.366 . S
C3494 C3495 1.414 . S
C3494 C3497 1.499 . S
C3495 H3469 0.950 . S
C3495 C3494 1.414 . S
C3495 C3496 1.374 . S
C3496 H3470 0.950 . S
C3496 C3492 1.385 . S
C3496 C3495 1.374 . S
C3497 C3494 1.499 . S
C3497 C3498 1.373 . S
C3497 C3499 1.389 . S
C3498 H3471 0.950 . S
C3498 C3484 1.377 . S
C3498 C3497 1.373 . S
C3499 C3483 1.377 . S
C3499 C3497 1.389 . S
C3499 C3500 1.524 . S
C3500 C3499 1.524 . S
C3500 C3501 1.397 . S
C3500 C3505 1.363 . S
C3501 H3472 0.950 . S
C3501 C3500 1.397 . S
C3501 C3502 1.334 . S
C3502 H3473 0.950 . S
C3502 C3501 1.334 . S
C3502 C3503 1.287 . S
C3503 C3502 1.287 . S
C3503 C3504 1.524 . S
C3503 H3506 0.999 . S
C3504 H3474 0.950 . S
C3504 C3503 1.524 . S
C3504 C3505 1.415 . S
C3505 H3475 0.950 . S
C3505 C3500 1.363 . S
C3505 C3504 1.415 . S
H3506 C3503 0.999 . S
H3507 C3488 0.913 . S
H3508 C3526 0.951 . S
H3509 C3528 0.951 . S
H3510 C3530 0.950 . S
H3511 C3531 0.950 . S
H3512 C3533 0.950 . S
H3513 C3536 0.950 . S
H3514 C3537 0.950 . S
H3515 C3539 0.950 . S
H3516 C3540 0.950 . S
H3517 C3541 0.951 . S
H3518 C3543 0.951 . S
H3519 C3545 0.950 . S
H3520 C3546 0.950 . S
H3521 C3548 0.950 . S
H3522 C3551 0.950 . S
H3523 C3552 0.950 . S
H3524 C3554 0.950 . S
H3525 C3555 0.950 . S
C3526 H3508 0.951 . S
C3526 C3527 1.366 . S
C3526 C3528 1.388 . S
C3527 C3526 1.366 . S
C3527 C3531 1.385 . S
C3528 H3509 0.951 . S
C3528 C3526 1.388 . S
C3528 C3529 1.366 . S
C3529 C3528 1.366 . S
C3529 C3530 1.414 . S
C3529 C3532 1.499 . S
C3530 H3510 0.950 . S
C3530 C3529 1.414 . S
C3530 C3531 1.374 . S
C3531 H3511 0.950 . S
C3531 C3527 1.385 . S
C3531 C3530 1.374 . S
C3532 C3529 1.499 . S
C3532 C3533 1.373 . S
C3532 C3534 1.389 . S
C3533 H3512 0.950 . S
C3533 C3532 1.373 . S
C3533 C3549 1.377 . S
C3534 C3532 1.389 . S
C3534 C3535 1.524 . S
C3534 C3548 1.377 . S
C3535 C3534 1.524 . S
C3535 C3536 1.397 . S
C3535 C3540 1.363 . S
C3536 H3513 0.950 . S
C3536 C3535 1.397 . S
C3536 C3537 1.334 . S
C3537 H3514 0.950 . S
C3537 C3536 1.334 . S
C3537 C3538 1.287 . S
C3538 C3537 1.287 . S
C3538 C3539 1.524 . S
C3538 H3557 0.913 . S
C3539 H3515 0.950 . S
C3539 C3538 1.524 . S
C3539 C3540 1.415 . S
C3540 H3516 0.950 . S
C3540 C3535 1.363 . S
C3540 C3539 1.415 . S
C3541 H3517 0.951 . S
C3541 C3542 1.366 . S
C3541 C3543 1.388 . S
C3542 C3541 1.366 . S
C3542 C3546 1.385 . S
C3543 H3518 0.951 . S
C3543 C3541 1.388 . S
C3543 C3544 1.366 . S
C3544 C3543 1.366 . S
C3544 C3545 1.414 . S
C3544 C3547 1.499 . S
C3545 H3519 0.950 . S
C3545 C3544 1.414 . S
C3545 C3546 1.374 . S
C3546 H3520 0.950 . S
C3546 C3542 1.385 . S
C3546 C3545 1.374 . S
C3547 C3544 1.499 . S
C3547 C3548 1.373 . S
C3547 C3549 1.389 . S
C3548 H3521 0.950 . S
C3548 C3534 1.377 . S
C3548 C3547 1.373 . S
C3549 C3533 1.377 . S
C3549 C3547 1.389 . S
C3549 C3550 1.524 . S
C3550 C3549 1.524 . S
C3550 C3551 1.397 . S
C3550 C3555 1.363 . S
C3551 H3522 0.950 . S
C3551 C3550 1.397 . S
C3551 C3552 1.334 . S
C3552 H3523 0.950 . S
C3552 C3551 1.334 . S
C3552 C3553 1.287 . S
C3553 C3552 1.287 . S
C3553 C3554 1.524 . S
C3553 H3556 0.999 . S
C3554 H3524 0.950 . S
C3554 C3553 1.524 . S
C3554 C3555 1.415 . S
C3555 H3525 0.950 . S
C3555 C3550 1.363 . S
C3555 C3554 1.415 . S
H3556 C3553 0.999 . S
H3557 C3538 0.913 . S
H3558 C3576 0.951 . S
H3559 C3578 0.951 . S
H3560 C3580 0.950 . S
H3561 C3581 0.950 . S
H3562 C3583 0.956 . S
H3563 C3586 0.950 . S
H3564 C3587 0.950 . S
H3565 C3589 0.950 . S
H3566 C3590 0.950 . S
H3567 C3591 0.894 1_565 S
H3568 C3593 0.948 1_565 S
H3569 C3595 0.950 . S
H3570 C3596 0.950 . S
H3571 C3598 0.950 . S
H3572 C3601 0.950 . S
H3573 C3602 0.950 . S
H3574 C3604 0.950 . S
H3575 C3605 0.950 . S
C3576 H3558 0.951 . S
C3576 C3577 1.366 . S
C3576 C3578 1.388 . S
C3577 C3576 1.366 . S
C3577 C3581 1.385 . S
C3578 H3559 0.951 . S
C3578 C3576 1.388 . S
C3578 C3579 1.366 . S
C3579 C3578 1.366 . S
C3579 C3580 1.414 . S
C3579 C3582 1.499 . S
C3580 H3560 0.950 . S
C3580 C3579 1.414 . S
C3580 C3581 1.374 . S
C3581 H3561 0.950 . S
C3581 C3577 1.385 . S
C3581 C3580 1.374 . S
C3582 C3579 1.499 . S
C3582 C3583 1.359 1_545 S
C3582 C3584 1.389 . S
C3583 H3562 0.956 . S
C3583 C3582 1.359 1_565 S
C3583 C3599 1.385 . S
C3584 C3582 1.389 . S
C3584 C3585 1.524 . S
C3584 C3598 1.377 . S
C3585 C3584 1.524 . S
C3585 C3586 1.397 . S
C3585 C3590 1.363 . S
C3586 H3563 0.950 . S
C3586 C3585 1.397 . S
C3586 C3587 1.334 . S
C3587 H3564 0.950 . S
C3587 C3586 1.334 . S
C3587 C3588 1.287 . S
C3588 C3587 1.287 . S
C3588 C3589 1.524 . S
C3588 H3607 0.913 . S
C3589 H3565 0.950 . S
C3589 C3588 1.524 . S
C3589 C3590 1.415 . S
C3590 H3566 0.950 . S
C3590 C3585 1.363 . S
C3590 C3589 1.415 . S
C3591 H3567 0.894 1_545 S
C3591 C3592 1.377 . S
C3591 C3593 1.440 . S
C3592 C3591 1.377 . S
C3592 C3596 1.385 . S
C3593 H3568 0.948 1_545 S
C3593 C3591 1.440 . S
C3593 C3594 1.366 . S
C3594 C3593 1.366 . S
C3594 C3595 1.414 . S
C3594 C3597 1.499 . S
C3595 H3569 0.950 . S
C3595 C3594 1.414 . S
C3595 C3596 1.374 . S
C3596 H3570 0.950 . S
C3596 C3592 1.385 . S
C3596 C3595 1.374 . S
C3597 C3594 1.499 . S
C3597 C3598 1.373 . S
C3597 C3599 1.389 1_545 S
C3598 H3571 0.950 . S
C3598 C3584 1.377 . S
C3598 C3597 1.373 . S
C3599 C3583 1.385 . S
C3599 C3597 1.389 1_565 S
C3599 C3600 1.524 . S
C3600 C3599 1.524 . S
C3600 C3601 1.397 . S
C3600 C3605 1.363 . S
C3601 H3572 0.950 . S
C3601 C3600 1.397 . S
C3601 C3602 1.334 . S
C3602 H3573 0.950 . S
C3602 C3601 1.334 . S
C3602 C3603 1.287 . S
C3603 C3602 1.287 . S
C3603 C3604 1.524 . S
C3603 H3606 0.999 . S
C3604 H3574 0.950 . S
C3604 C3603 1.524 . S
C3604 C3605 1.415 . S
C3605 H3575 0.950 . S
C3605 C3600 1.363 . S
C3605 C3604 1.415 . S
H3606 C3603 0.999 . S
H3607 C3588 0.913 . S
H3608 C3626 0.951 . S
H3609 C3628 0.951 . S
H3610 C3630 0.950 . S
H3611 C3631 0.950 . S
H3612 C3633 0.950 . S
H3613 C3636 0.950 . S
H3614 C3637 0.950 1_655 S
H3615 C3639 0.950 . S
H3616 C3640 0.950 . S
H3617 C3641 0.951 . S
H3618 C3643 0.951 . S
H3619 C3645 0.950 . S
H3620 C3646 0.950 . S
H3621 C3648 0.974 . S
H3622 C3651 0.950 . S
H3623 C3652 0.950 . S
H3624 C3654 0.950 . S
H3625 C3655 0.950 . S
C3626 H3608 0.951 . S
C3626 C3627 1.366 1_455 S
C3626 C3628 1.388 . S
C3627 C3626 1.366 1_655 S
C3627 C3631 1.385 . S
C3628 H3609 0.951 . S
C3628 C3626 1.388 . S
C3628 C3629 1.366 1_455 S
C3629 C3628 1.366 1_655 S
C3629 C3630 1.414 . S
C3629 C3632 1.499 . S
C3630 H3610 0.950 . S
C3630 C3629 1.414 . S
C3630 C3631 1.374 . S
C3631 H3611 0.950 . S
C3631 C3627 1.385 . S
C3631 C3630 1.374 . S
C3632 C3629 1.499 . S
C3632 C3633 1.373 . S
C3632 C3634 1.422 . S
C3633 H3612 0.950 . S
C3633 C3632 1.373 . S
C3633 C3649 1.377 . S
C3634 C3632 1.422 . S
C3634 C3635 1.463 1_655 S
C3634 C3648 1.444 1_655 S
C3635 C3634 1.463 1_455 S
C3635 C3636 1.397 1_455 S
C3635 C3640 1.363 . S
C3636 H3613 0.950 . S
C3636 C3635 1.397 1_655 S
C3636 C3637 1.334 1_655 S
C3637 H3614 0.950 1_455 S
C3637 C3636 1.334 1_455 S
C3637 C3638 1.287 . S
C3638 C3637 1.287 . S
C3638 C3639 1.524 . S
C3638 H3657 0.913 . S
C3639 H3615 0.950 . S
C3639 C3638 1.524 . S
C3639 C3640 1.415 . S
C3640 H3616 0.950 . S
C3640 C3635 1.363 . S
C3640 C3639 1.415 . S
C3641 H3617 0.951 . S
C3641 C3642 1.366 . S
C3641 C3643 1.388 . S
C3642 C3641 1.366 . S
C3642 C3646 1.385 1_655 S
C3643 H3618 0.951 . S
C3643 C3641 1.388 . S
C3643 C3644 1.366 . S
C3644 C3643 1.366 . S
C3644 C3645 1.414 1_655 S
C3644 C3647 1.499 . S
C3645 H3619 0.950 . S
C3645 C3644 1.414 1_455 S
C3645 C3646 1.374 . S
C3646 H3620 0.950 . S
C3646 C3642 1.385 1_455 S
C3646 C3645 1.374 . S
C3647 C3644 1.499 . S
C3647 C3648 1.327 1_655 S
C3647 C3649 1.389 . S
C3648 H3621 0.974 . S
C3648 C3634 1.444 1_455 S
C3648 C3647 1.327 1_455 S
C3649 C3633 1.377 . S
C3649 C3647 1.389 . S
C3649 C3650 1.524 . S
C3650 C3649 1.524 . S
C3650 C3651 1.397 . S
C3650 C3655 1.363 . S
C3651 H3622 0.950 . S
C3651 C3650 1.397 . S
C3651 C3652 1.334 . S
C3652 H3623 0.950 . S
C3652 C3651 1.334 . S
C3652 C3653 1.287 . S
C3653 C3652 1.287 . S
C3653 C3654 1.524 . S
C3653 H3656 0.999 . S
C3654 H3624 0.950 . S
C3654 C3653 1.524 . S
C3654 C3655 1.415 . S
C3655 H3625 0.950 . S
C3655 C3650 1.363 . S
C3655 C3654 1.415 . S
H3656 C3653 0.999 . S
H3657 C3638 0.913 . S
H3658 C3676 0.951 . S
H3659 C3678 0.951 . S
H3660 C3680 0.950 . S
H3661 C3681 0.950 . S
H3662 C3683 0.950 . S
H3663 C3686 0.950 . S
H3664 C3687 0.950 . S
H3665 C3689 0.950 . S
H3666 C3690 0.950 . S
H3667 C3691 0.951 . S
H3668 C3693 0.951 . S
H3669 C3695 0.950 . S
H3670 C3696 0.950 . S
H3671 C3698 0.950 . S
H3672 C3701 0.950 . S
H3673 C3702 0.950 . S
H3674 C3704 0.950 . S
H3675 C3705 0.950 . S
C3676 H3658 0.951 . S
C3676 C3677 1.366 . S
C3676 C3678 1.388 . S
C3677 C3676 1.366 . S
C3677 C3681 1.385 . S
C3678 H3659 0.951 . S
C3678 C3676 1.388 . S
C3678 C3679 1.366 . S
C3679 C3678 1.366 . S
C3679 C3680 1.414 . S
C3679 C3682 1.499 . S
C3680 H3660 0.950 . S
C3680 C3679 1.414 . S
C3680 C3681 1.374 . S
C3681 H3661 0.950 . S
C3681 C3677 1.385 . S
C3681 C3680 1.374 . S
C3682 C3679 1.499 . S
C3682 C3683 1.373 . S
C3682 C3684 1.389 . S
C3683 H3662 0.950 . S
C3683 C3682 1.373 . S
C3683 C3699 1.377 . S
C3684 C3682 1.389 . S
C3684 C3685 1.524 . S
C3684 C3698 1.377 . S
C3685 C3684 1.524 . S
C3685 C3686 1.397 . S
C3685 C3690 1.363 . S
C3686 H3663 0.950 . S
C3686 C3685 1.397 . S
C3686 C3687 1.334 . S
C3687 H3664 0.950 . S
C3687 C3686 1.334 . S
C3687 C3688 1.287 . S
C3688 C3687 1.287 . S
C3688 C3689 1.524 . S
C3688 H3707 0.913 . S
C3689 H3665 0.950 . S
C3689 C3688 1.524 . S
C3689 C3690 1.415 . S
C3690 H3666 0.950 . S
C3690 C3685 1.363 . S
C3690 C3689 1.415 . S
C3691 H3667 0.951 . S
C3691 C3692 1.366 . S
C3691 C3693 1.388 . S
C3692 C3691 1.366 . S
C3692 C3696 1.385 . S
C3693 H3668 0.951 . S
C3693 C3691 1.388 . S
C3693 C3694 1.366 . S
C3694 C3693 1.366 . S
C3694 C3695 1.414 . S
C3694 C3697 1.499 . S
C3695 H3669 0.950 . S
C3695 C3694 1.414 . S
C3695 C3696 1.374 . S
C3696 H3670 0.950 . S
C3696 C3692 1.385 . S
C3696 C3695 1.374 . S
C3697 C3694 1.499 . S
C3697 C3698 1.373 . S
C3697 C3699 1.389 . S
C3698 H3671 0.950 . S
C3698 C3684 1.377 . S
C3698 C3697 1.373 . S
C3699 C3683 1.377 . S
C3699 C3697 1.389 . S
C3699 C3700 1.524 . S
C3700 C3699 1.524 . S
C3700 C3701 1.397 . S
C3700 C3705 1.363 . S
C3701 H3672 0.950 . S
C3701 C3700 1.397 . S
C3701 C3702 1.334 . S
C3702 H3673 0.950 . S
C3702 C3701 1.334 . S
C3702 C3703 1.287 . S
C3703 C3702 1.287 . S
C3703 C3704 1.524 . S
C3703 H3706 0.999 . S
C3704 H3674 0.950 . S
C3704 C3703 1.524 . S
C3704 C3705 1.415 . S
C3705 H3675 0.950 . S
C3705 C3700 1.363 . S
C3705 C3704 1.415 . S
H3706 C3703 0.999 . S
H3707 C3688 0.913 . S
H3708 C3726 0.951 . S
H3709 C3728 0.951 . S
H3710 C3730 0.950 . S
H3711 C3731 0.950 . S
H3712 C3733 0.950 . S
H3713 C3736 0.950 . S
H3714 C3737 0.950 . S
H3715 C3739 0.950 . S
H3716 C3740 0.950 . S
H3717 C3741 0.951 . S
H3718 C3743 0.951 . S
H3719 C3745 0.950 . S
H3720 C3746 0.950 . S
H3721 C3748 0.950 . S
H3722 C3751 0.950 . S
H3723 C3752 0.950 . S
H3724 C3754 0.950 . S
H3725 C3755 0.950 . S
C3726 H3708 0.951 . S
C3726 C3727 1.366 . S
C3726 C3728 1.388 . S
C3727 C3726 1.366 . S
C3727 C3731 1.385 . S
C3728 H3709 0.951 . S
C3728 C3726 1.388 . S
C3728 C3729 1.366 . S
C3729 C3728 1.366 . S
C3729 C3730 1.414 . S
C3729 C3732 1.499 . S
C3730 H3710 0.950 . S
C3730 C3729 1.414 . S
C3730 C3731 1.374 . S
C3731 H3711 0.950 . S
C3731 C3727 1.385 . S
C3731 C3730 1.374 . S
C3732 C3729 1.499 . S
C3732 C3733 1.373 . S
C3732 C3734 1.389 . S
C3733 H3712 0.950 . S
C3733 C3732 1.373 . S
C3733 C3749 1.377 . S
C3734 C3732 1.389 . S
C3734 C3735 1.524 . S
C3734 C3748 1.377 . S
C3735 C3734 1.524 . S
C3735 C3736 1.397 . S
C3735 C3740 1.363 . S
C3736 H3713 0.950 . S
C3736 C3735 1.397 . S
C3736 C3737 1.334 . S
C3737 H3714 0.950 . S
C3737 C3736 1.334 . S
C3737 C3738 1.287 . S
C3738 C3737 1.287 . S
C3738 C3739 1.524 . S
C3738 H3757 0.913 . S
C3739 H3715 0.950 . S
C3739 C3738 1.524 . S
C3739 C3740 1.415 . S
C3740 H3716 0.950 . S
C3740 C3735 1.363 . S
C3740 C3739 1.415 . S
C3741 H3717 0.951 . S
C3741 C3742 1.366 . S
C3741 C3743 1.388 . S
C3742 C3741 1.366 . S
C3742 C3746 1.385 . S
C3743 H3718 0.951 . S
C3743 C3741 1.388 . S
C3743 C3744 1.366 . S
C3744 C3743 1.366 . S
C3744 C3745 1.414 . S
C3744 C3747 1.499 . S
C3745 H3719 0.950 . S
C3745 C3744 1.414 . S
C3745 C3746 1.374 . S
C3746 H3720 0.950 . S
C3746 C3742 1.385 . S
C3746 C3745 1.374 . S
C3747 C3744 1.499 . S
C3747 C3748 1.373 . S
C3747 C3749 1.389 . S
C3748 H3721 0.950 . S
C3748 C3734 1.377 . S
C3748 C3747 1.373 . S
C3749 C3733 1.377 . S
C3749 C3747 1.389 . S
C3749 C3750 1.524 . S
C3750 C3749 1.524 . S
C3750 C3751 1.397 . S
C3750 C3755 1.363 . S
C3751 H3722 0.950 . S
C3751 C3750 1.397 . S
C3751 C3752 1.334 . S
C3752 H3723 0.950 . S
C3752 C3751 1.334 . S
C3752 C3753 1.287 . S
C3753 C3752 1.287 . S
C3753 C3754 1.524 . S
C3753 H3756 0.999 . S
C3754 H3724 0.950 . S
C3754 C3753 1.524 . S
C3754 C3755 1.415 . S
C3755 H3725 0.950 . S
C3755 C3750 1.363 . S
C3755 C3754 1.415 . S
H3756 C3753 0.999 . S
H3757 C3738 0.913 . S
H3758 C3776 0.951 . S
H3759 C3778 0.951 . S
H3760 C3780 0.950 . S
H3761 C3781 0.950 . S
H3762 C3783 0.950 . S
H3763 C3786 0.950 . S
H3764 C3787 0.950 . S
H3765 C3789 0.950 . S
H3766 C3790 0.950 . S
H3767 C3791 0.951 . S
H3768 C3793 0.951 . S
H3769 C3795 0.950 . S
H3770 C3796 0.950 . S
H3771 C3798 0.950 . S
H3772 C3801 0.950 . S
H3773 C3802 0.950 . S
H3774 C3804 0.950 . S
H3775 C3805 0.950 . S
C3776 H3758 0.951 . S
C3776 C3777 1.366 . S
C3776 C3778 1.388 . S
C3777 C3776 1.366 . S
C3777 C3781 1.385 . S
C3778 H3759 0.951 . S
C3778 C3776 1.388 . S
C3778 C3779 1.366 . S
C3779 C3778 1.366 . S
C3779 C3780 1.414 . S
C3779 C3782 1.499 . S
C3780 H3760 0.950 . S
C3780 C3779 1.414 . S
C3780 C3781 1.374 . S
C3781 H3761 0.950 . S
C3781 C3777 1.385 . S
C3781 C3780 1.374 . S
C3782 C3779 1.499 . S
C3782 C3783 1.373 . S
C3782 C3784 1.389 . S
C3783 H3762 0.950 . S
C3783 C3782 1.373 . S
C3783 C3799 1.377 . S
C3784 C3782 1.389 . S
C3784 C3785 1.524 . S
C3784 C3798 1.377 . S
C3785 C3784 1.524 . S
C3785 C3786 1.397 . S
C3785 C3790 1.363 . S
C3786 H3763 0.950 . S
C3786 C3785 1.397 . S
C3786 C3787 1.334 . S
C3787 H3764 0.950 . S
C3787 C3786 1.334 . S
C3787 C3788 1.287 . S
C3788 C3787 1.287 . S
C3788 C3789 1.524 . S
C3788 H3807 0.913 . S
C3789 H3765 0.950 . S
C3789 C3788 1.524 . S
C3789 C3790 1.415 . S
C3790 H3766 0.950 . S
C3790 C3785 1.363 . S
C3790 C3789 1.415 . S
C3791 H3767 0.951 . S
C3791 C3792 1.366 . S
C3791 C3793 1.388 . S
C3792 C3791 1.366 . S
C3792 C3796 1.385 . S
C3793 H3768 0.951 . S
C3793 C3791 1.388 . S
C3793 C3794 1.366 . S
C3794 C3793 1.366 . S
C3794 C3795 1.414 . S
C3794 C3797 1.499 . S
C3795 H3769 0.950 . S
C3795 C3794 1.414 . S
C3795 C3796 1.374 . S
C3796 H3770 0.950 . S
C3796 C3792 1.385 . S
C3796 C3795 1.374 . S
C3797 C3794 1.499 . S
C3797 C3798 1.373 . S
C3797 C3799 1.389 . S
C3798 H3771 0.950 . S
C3798 C3784 1.377 . S
C3798 C3797 1.373 . S
C3799 C3783 1.377 . S
C3799 C3797 1.389 . S
C3799 C3800 1.524 . S
C3800 C3799 1.524 . S
C3800 C3801 1.397 . S
C3800 C3805 1.363 . S
C3801 H3772 0.950 . S
C3801 C3800 1.397 . S
C3801 C3802 1.334 . S
C3802 H3773 0.950 . S
C3802 C3801 1.334 . S
C3802 C3803 1.287 . S
C3803 C3802 1.287 . S
C3803 C3804 1.524 . S
C3803 H3806 0.999 . S
C3804 H3774 0.950 . S
C3804 C3803 1.524 . S
C3804 C3805 1.415 . S
C3805 H3775 0.950 . S
C3805 C3800 1.363 . S
C3805 C3804 1.415 . S
H3806 C3803 0.999 . S
H3807 C3788 0.913 . S
H3808 C3826 0.951 . S
H3809 C3828 0.951 . S
H3810 C3830 0.950 . S
H3811 C3831 0.950 . S
H3812 C3833 0.950 . S
H3813 C3836 0.950 . S
H3814 C3837 0.950 . S
H3815 C3839 0.950 . S
H3816 C3840 0.950 . S
H3817 C3841 0.951 . S
H3818 C3843 0.951 . S
H3819 C3845 0.950 . S
H3820 C3846 0.950 . S
H3821 C3848 0.950 . S
H3822 C3851 0.950 . S
H3823 C3852 0.950 . S
H3824 C3854 0.950 . S
H3825 C3855 0.950 . S
C3826 H3808 0.951 . S
C3826 C3827 1.366 . S
C3826 C3828 1.388 . S
C3827 C3826 1.366 . S
C3827 C3831 1.385 . S
C3828 H3809 0.951 . S
C3828 C3826 1.388 . S
C3828 C3829 1.366 . S
C3829 C3828 1.366 . S
C3829 C3830 1.414 . S
C3829 C3832 1.499 . S
C3830 H3810 0.950 . S
C3830 C3829 1.414 . S
C3830 C3831 1.374 . S
C3831 H3811 0.950 . S
C3831 C3827 1.385 . S
C3831 C3830 1.374 . S
C3832 C3829 1.499 . S
C3832 C3833 1.373 . S
C3832 C3834 1.389 . S
C3833 H3812 0.950 . S
C3833 C3832 1.373 . S
C3833 C3849 1.377 . S
C3834 C3832 1.389 . S
C3834 C3835 1.524 . S
C3834 C3848 1.377 . S
C3835 C3834 1.524 . S
C3835 C3836 1.397 . S
C3835 C3840 1.363 . S
C3836 H3813 0.950 . S
C3836 C3835 1.397 . S
C3836 C3837 1.334 . S
C3837 H3814 0.950 . S
C3837 C3836 1.334 . S
C3837 C3838 1.287 . S
C3838 C3837 1.287 . S
C3838 C3839 1.524 . S
C3838 H3857 0.913 . S
C3839 H3815 0.950 . S
C3839 C3838 1.524 . S
C3839 C3840 1.415 . S
C3840 H3816 0.950 . S
C3840 C3835 1.363 . S
C3840 C3839 1.415 . S
C3841 H3817 0.951 . S
C3841 C3842 1.366 . S
C3841 C3843 1.388 . S
C3842 C3841 1.366 . S
C3842 C3846 1.385 . S
C3843 H3818 0.951 . S
C3843 C3841 1.388 . S
C3843 C3844 1.366 . S
C3844 C3843 1.366 . S
C3844 C3845 1.414 . S
C3844 C3847 1.499 . S
C3845 H3819 0.950 . S
C3845 C3844 1.414 . S
C3845 C3846 1.374 . S
C3846 H3820 0.950 . S
C3846 C3842 1.385 . S
C3846 C3845 1.374 . S
C3847 C3844 1.499 . S
C3847 C3848 1.373 . S
C3847 C3849 1.389 . S
C3848 H3821 0.950 . S
C3848 C3834 1.377 . S
C3848 C3847 1.373 . S
C3849 C3833 1.377 . S
C3849 C3847 1.389 . S
C3849 C3850 1.524 . S
C3850 C3849 1.524 . S
C3850 C3851 1.397 . S
C3850 C3855 1.363 . S
C3851 H3822 0.950 . S
C3851 C3850 1.397 . S
C3851 C3852 1.334 . S
C3852 H3823 0.950 . S
C3852 C3851 1.334 . S
C3852 C3853 1.287 . S
C3853 C3852 1.287 . S
C3853 C3854 1.524 . S
C3853 H3856 0.999 . S
C3854 H3824 0.950 . S
C3854 C3853 1.524 . S
C3854 C3855 1.415 . S
C3855 H3825 0.950 . S
C3855 C3850 1.363 . S
C3855 C3854 1.415 . S
H3856 C3853 0.999 . S
H3857 C3838 0.913 . S
H3858 C3876 0.951 . S
H3859 C3878 0.951 . S
H3860 C3880 0.950 . S
H3861 C3881 0.950 . S
H3862 C3883 0.950 . S
H3863 C3886 0.950 . S
H3864 C3887 0.950 . S
H3865 C3889 0.950 . S
H3866 C3890 0.950 . S
H3867 C3891 0.951 . S
H3868 C3893 0.951 . S
H3869 C3895 0.950 . S
H3870 C3896 0.950 . S
H3871 C3898 0.950 . S
H3872 C3901 0.950 . S
H3873 C3902 0.950 . S
H3874 C3904 0.950 . S
H3875 C3905 0.950 . S
C3876 H3858 0.951 . S
C3876 C3877 1.366 . S
C3876 C3878 1.388 . S
C3877 C3876 1.366 . S
C3877 C3881 1.385 . S
C3878 H3859 0.951 . S
C3878 C3876 1.388 . S
C3878 C3879 1.366 . S
C3879 C3878 1.366 . S
C3879 C3880 1.414 . S
C3879 C3882 1.499 . S
C3880 H3860 0.950 . S
C3880 C3879 1.414 . S
C3880 C3881 1.374 . S
C3881 H3861 0.950 . S
C3881 C3877 1.385 . S
C3881 C3880 1.374 . S
C3882 C3879 1.499 . S
C3882 C3883 1.373 . S
C3882 C3884 1.389 . S
C3883 H3862 0.950 . S
C3883 C3882 1.373 . S
C3883 C3899 1.377 . S
C3884 C3882 1.389 . S
C3884 C3885 1.524 . S
C3884 C3898 1.377 . S
C3885 C3884 1.524 . S
C3885 C3886 1.397 . S
C3885 C3890 1.363 . S
C3886 H3863 0.950 . S
C3886 C3885 1.397 . S
C3886 C3887 1.334 . S
C3887 H3864 0.950 . S
C3887 C3886 1.334 . S
C3887 C3888 1.287 . S
C3888 C3887 1.287 . S
C3888 C3889 1.524 . S
C3888 H3907 0.913 . S
C3889 H3865 0.950 . S
C3889 C3888 1.524 . S
C3889 C3890 1.415 . S
C3890 H3866 0.950 . S
C3890 C3885 1.363 . S
C3890 C3889 1.415 . S
C3891 H3867 0.951 . S
C3891 C3892 1.366 . S
C3891 C3893 1.388 . S
C3892 C3891 1.366 . S
C3892 C3896 1.385 . S
C3893 H3868 0.951 . S
C3893 C3891 1.388 . S
C3893 C3894 1.366 . S
C3894 C3893 1.366 . S
C3894 C3895 1.414 . S
C3894 C3897 1.499 . S
C3895 H3869 0.950 . S
C3895 C3894 1.414 . S
C3895 C3896 1.374 . S
C3896 H3870 0.950 . S
C3896 C3892 1.385 . S
C3896 C3895 1.374 . S
C3897 C3894 1.499 . S
C3897 C3898 1.373 . S
C3897 C3899 1.389 . S
C3898 H3871 0.950 . S
C3898 C3884 1.377 . S
C3898 C3897 1.373 . S
C3899 C3883 1.377 . S
C3899 C3897 1.389 . S
C3899 C3900 1.524 . S
C3900 C3899 1.524 . S
C3900 C3901 1.397 . S
C3900 C3905 1.363 . S
C3901 H3872 0.950 . S
C3901 C3900 1.397 . S
C3901 C3902 1.334 . S
C3902 H3873 0.950 . S
C3902 C3901 1.334 . S
C3902 C3903 1.287 . S
C3903 C3902 1.287 . S
C3903 C3904 1.524 . S
C3903 H3906 0.999 . S
C3904 H3874 0.950 . S
C3904 C3903 1.524 . S
C3904 C3905 1.415 . S
C3905 H3875 0.950 . S
C3905 C3900 1.363 . S
C3905 C3904 1.415 . S
H3906 C3903 0.999 . S
H3907 C3888 0.913 . S
H3908 C3926 0.951 . S
H3909 C3928 0.951 . S
H3910 C3930 0.950 . S
H3911 C3931 0.950 . S
H3912 C3933 0.950 . S
H3913 C3936 0.950 . S
H3914 C3937 0.950 . S
H3915 C3939 0.950 . S
H3916 C3940 0.950 . S
H3917 C3941 0.951 . S
H3918 C3943 0.951 . S
H3919 C3945 0.950 . S
H3920 C3946 0.950 . S
H3921 C3948 0.950 . S
H3922 C3951 0.950 . S
H3923 C3952 0.950 . S
H3924 C3954 0.950 . S
H3925 C3955 0.950 . S
C3926 H3908 0.951 . S
C3926 C3927 1.366 . S
C3926 C3928 1.388 . S
C3927 C3926 1.366 . S
C3927 C3931 1.385 . S
C3928 H3909 0.951 . S
C3928 C3926 1.388 . S
C3928 C3929 1.366 . S
C3929 C3928 1.366 . S
C3929 C3930 1.414 . S
C3929 C3932 1.499 . S
C3930 H3910 0.950 . S
C3930 C3929 1.414 . S
C3930 C3931 1.374 . S
C3931 H3911 0.950 . S
C3931 C3927 1.385 . S
C3931 C3930 1.374 . S
C3932 C3929 1.499 . S
C3932 C3933 1.373 . S
C3932 C3934 1.389 . S
C3933 H3912 0.950 . S
C3933 C3932 1.373 . S
C3933 C3949 1.377 . S
C3934 C3932 1.389 . S
C3934 C3935 1.524 . S
C3934 C3948 1.377 . S
C3935 C3934 1.524 . S
C3935 C3936 1.397 . S
C3935 C3940 1.363 . S
C3936 H3913 0.950 . S
C3936 C3935 1.397 . S
C3936 C3937 1.334 . S
C3937 H3914 0.950 . S
C3937 C3936 1.334 . S
C3937 C3938 1.287 . S
C3938 C3937 1.287 . S
C3938 C3939 1.524 . S
C3938 H3957 0.913 . S
C3939 H3915 0.950 . S
C3939 C3938 1.524 . S
C3939 C3940 1.415 . S
C3940 H3916 0.950 . S
C3940 C3935 1.363 . S
C3940 C3939 1.415 . S
C3941 H3917 0.951 . S
C3941 C3942 1.366 . S
C3941 C3943 1.388 . S
C3942 C3941 1.366 . S
C3942 C3946 1.385 . S
C3943 H3918 0.951 . S
C3943 C3941 1.388 . S
C3943 C3944 1.366 . S
C3944 C3943 1.366 . S
C3944 C3945 1.414 . S
C3944 C3947 1.499 . S
C3945 H3919 0.950 . S
C3945 C3944 1.414 . S
C3945 C3946 1.374 . S
C3946 H3920 0.950 . S
C3946 C3942 1.385 . S
C3946 C3945 1.374 . S
C3947 C3944 1.499 . S
C3947 C3948 1.373 . S
C3947 C3949 1.389 . S
C3948 H3921 0.950 . S
C3948 C3934 1.377 . S
C3948 C3947 1.373 . S
C3949 C3933 1.377 . S
C3949 C3947 1.389 . S
C3949 C3950 1.524 . S
C3950 C3949 1.524 . S
C3950 C3951 1.397 . S
C3950 C3955 1.363 . S
C3951 H3922 0.950 . S
C3951 C3950 1.397 . S
C3951 C3952 1.334 . S
C3952 H3923 0.950 . S
C3952 C3951 1.334 . S
C3952 C3953 1.287 . S
C3953 C3952 1.287 . S
C3953 C3954 1.524 . S
C3953 H3956 0.999 . S
C3954 H3924 0.950 . S
C3954 C3953 1.524 . S
C3954 C3955 1.415 . S
C3955 H3925 0.950 . S
C3955 C3950 1.363 . S
C3955 C3954 1.415 . S
H3956 C3953 0.999 . S
H3957 C3938 0.913 . S
H3958 C3976 0.951 . S
H3959 C3978 0.951 . S
H3960 C3980 0.950 . S
H3961 C3981 0.950 . S
H3962 C3983 0.950 . S
H3963 C3986 0.950 . S
H3964 C3987 0.950 . S
H3965 C3989 0.950 . S
H3966 C3990 0.950 . S
H3967 C3991 0.951 . S
H3968 C3993 0.951 . S
H3969 C3995 0.950 . S
H3970 C3996 0.950 . S
H3971 C3998 0.950 . S
H3972 C4001 0.950 . S
H3973 C4002 0.950 . S
H3974 C4004 0.950 . S
H3975 C4005 0.950 . S
C3976 H3958 0.951 . S
C3976 C3977 1.366 . S
C3976 C3978 1.388 . S
C3977 C3976 1.366 . S
C3977 C3981 1.385 . S
C3978 H3959 0.951 . S
C3978 C3976 1.388 . S
C3978 C3979 1.366 . S
C3979 C3978 1.366 . S
C3979 C3980 1.414 . S
C3979 C3982 1.499 . S
C3980 H3960 0.950 . S
C3980 C3979 1.414 . S
C3980 C3981 1.374 . S
C3981 H3961 0.950 . S
C3981 C3977 1.385 . S
C3981 C3980 1.374 . S
C3982 C3979 1.499 . S
C3982 C3983 1.373 . S
C3982 C3984 1.389 . S
C3983 H3962 0.950 . S
C3983 C3982 1.373 . S
C3983 C3999 1.377 . S
C3984 C3982 1.389 . S
C3984 C3985 1.524 . S
C3984 C3998 1.377 . S
C3985 C3984 1.524 . S
C3985 C3986 1.397 . S
C3985 C3990 1.363 . S
C3986 H3963 0.950 . S
C3986 C3985 1.397 . S
C3986 C3987 1.334 . S
C3987 H3964 0.950 . S
C3987 C3986 1.334 . S
C3987 C3988 1.287 . S
C3988 C3987 1.287 . S
C3988 C3989 1.524 . S
C3988 H4007 0.913 . S
C3989 H3965 0.950 . S
C3989 C3988 1.524 . S
C3989 C3990 1.415 . S
C3990 H3966 0.950 . S
C3990 C3985 1.363 . S
C3990 C3989 1.415 . S
C3991 H3967 0.951 . S
C3991 C3992 1.366 . S
C3991 C3993 1.388 . S
C3992 C3991 1.366 . S
C3992 C3996 1.385 . S
C3993 H3968 0.951 . S
C3993 C3991 1.388 . S
C3993 C3994 1.366 . S
C3994 C3993 1.366 . S
C3994 C3995 1.414 . S
C3994 C3997 1.499 . S
C3995 H3969 0.950 . S
C3995 C3994 1.414 . S
C3995 C3996 1.374 . S
C3996 H3970 0.950 . S
C3996 C3992 1.385 . S
C3996 C3995 1.374 . S
C3997 C3994 1.499 . S
C3997 C3998 1.373 . S
C3997 C3999 1.389 . S
C3998 H3971 0.950 . S
C3998 C3984 1.377 . S
C3998 C3997 1.373 . S
C3999 C3983 1.377 . S
C3999 C3997 1.389 . S
C3999 C4000 1.524 . S
C4000 C3999 1.524 . S
C4000 C4001 1.397 . S
C4000 C4005 1.363 . S
C4001 H3972 0.950 . S
C4001 C4000 1.397 . S
C4001 C4002 1.334 . S
C4002 H3973 0.950 . S
C4002 C4001 1.334 . S
C4002 C4003 1.287 . S
C4003 C4002 1.287 . S
C4003 C4004 1.524 . S
C4003 H4006 0.999 . S
C4004 H3974 0.950 . S
C4004 C4003 1.524 . S
C4004 C4005 1.415 . S
C4005 H3975 0.950 . S
C4005 C4000 1.363 . S
C4005 C4004 1.415 . S
H4006 C4003 0.999 . S
H4007 C3988 0.913 . S
H4008 C4026 0.951 . S
H4009 C4028 0.951 . S
H4010 C4030 0.950 1_455 S
H4011 C4031 0.950 1_455 S
H4012 C4033 0.949 . S
H4013 C4036 0.950 . S
H4014 C4037 0.950 . S
H4015 C4039 0.950 . S
H4016 C4040 0.950 . S
H4017 C4041 0.951 . S
H4018 C4043 0.951 . S
H4019 C4045 0.950 . S
H4020 C4046 0.950 . S
H4021 C4048 0.950 . S
H4022 C4051 0.950 . S
H4023 C4052 0.956 1_655 S
H4024 C4054 0.950 . S
H4025 C4055 0.950 . S
C4026 H4008 0.951 . S
C4026 C4027 1.366 . S
C4026 C4028 1.388 . S
C4027 C4026 1.366 . S
C4027 C4031 1.385 . S
C4028 H4009 0.951 . S
C4028 C4026 1.388 . S
C4028 C4029 1.366 . S
C4029 C4028 1.366 . S
C4029 C4030 1.414 . S
C4029 C4032 1.499 . S
C4030 H4010 0.950 1_655 S
C4030 C4029 1.414 . S
C4030 C4031 1.374 . S
C4031 H4011 0.950 1_655 S
C4031 C4027 1.385 . S
C4031 C4030 1.374 . S
C4032 C4029 1.499 . S
C4032 C4033 1.373 . S
C4032 C4034 1.389 . S
C4033 H4012 0.949 . S
C4033 C4032 1.373 . S
C4033 C4049 1.377 . S
C4034 C4032 1.389 . S
C4034 C4035 1.524 . S
C4034 C4048 1.377 . S
C4035 C4034 1.524 . S
C4035 C4036 1.397 . S
C4035 C4040 1.363 . S
C4036 H4013 0.950 . S
C4036 C4035 1.397 . S
C4036 C4037 1.334 . S
C4037 H4014 0.950 . S
C4037 C4036 1.334 . S
C4037 C4038 1.287 . S
C4038 C4037 1.287 . S
C4038 C4039 1.524 . S
C4038 H4057 0.913 . S
C4039 H4015 0.950 . S
C4039 C4038 1.524 . S
C4039 C4040 1.415 . S
C4040 H4016 0.950 . S
C4040 C4035 1.363 . S
C4040 C4039 1.415 . S
C4041 H4017 0.951 . S
C4041 C4042 1.366 1_455 S
C4041 C4043 1.388 . S
C4042 C4041 1.366 1_655 S
C4042 C4046 1.385 . S
C4043 H4018 0.951 . S
C4043 C4041 1.388 . S
C4043 C4044 1.366 1_455 S
C4044 C4043 1.366 1_655 S
C4044 C4045 1.414 . S
C4044 C4047 1.499 . S
C4045 H4019 0.950 . S
C4045 C4044 1.414 . S
C4045 C4046 1.374 . S
C4046 H4020 0.950 . S
C4046 C4042 1.385 . S
C4046 C4045 1.374 . S
C4047 C4044 1.499 . S
C4047 C4048 1.373 . S
C4047 C4049 1.389 . S
C4048 H4021 0.950 . S
C4048 C4034 1.377 . S
C4048 C4047 1.373 . S
C4049 C4033 1.377 . S
C4049 C4047 1.389 . S
C4049 C4050 1.524 1_655 S
C4050 C4049 1.524 1_455 S
C4050 C4051 1.397 1_455 S
C4050 C4055 1.363 . S
C4051 H4022 0.950 . S
C4051 C4050 1.397 1_655 S
C4051 C4052 1.276 1_655 S
C4052 H4023 0.956 1_455 S
C4052 C4051 1.276 1_455 S
C4052 C4053 1.347 . S
C4053 C4052 1.347 . S
C4053 C4054 1.524 . S
C4053 H4056 0.999 . S
C4054 H4024 0.950 . S
C4054 C4053 1.524 . S
C4054 C4055 1.415 . S
C4055 H4025 0.950 . S
C4055 C4050 1.363 . S
C4055 C4054 1.415 . S
H4056 C4053 0.999 . S
H4057 C4038 0.913 . S
H4058 C4076 0.951 . S
H4059 C4078 0.951 . S
H4060 C4080 0.950 . S
H4061 C4081 0.950 . S
H4062 C4083 0.950 . S
H4063 C4086 0.950 . S
H4064 C4087 0.950 . S
H4065 C4089 0.950 . S
H4066 C4090 0.950 . S
H4067 C4091 0.951 . S
H4068 C4093 0.951 . S
H4069 C4095 0.950 . S
H4070 C4096 0.950 . S
H4071 C4098 0.950 . S
H4072 C4101 0.950 . S
H4073 C4102 0.950 . S
H4074 C4104 0.950 . S
H4075 C4105 0.950 . S
C4076 H4058 0.951 . S
C4076 C4077 1.366 . S
C4076 C4078 1.388 . S
C4077 C4076 1.366 . S
C4077 C4081 1.385 . S
C4078 H4059 0.951 . S
C4078 C4076 1.388 . S
C4078 C4079 1.366 . S
C4079 C4078 1.366 . S
C4079 C4080 1.414 . S
C4079 C4082 1.499 . S
C4080 H4060 0.950 . S
C4080 C4079 1.414 . S
C4080 C4081 1.374 . S
C4081 H4061 0.950 . S
C4081 C4077 1.385 . S
C4081 C4080 1.374 . S
C4082 C4079 1.499 . S
C4082 C4083 1.373 . S
C4082 C4084 1.389 . S
C4083 H4062 0.950 . S
C4083 C4082 1.373 . S
C4083 C4099 1.377 . S
C4084 C4082 1.389 . S
C4084 C4085 1.524 . S
C4084 C4098 1.377 . S
C4085 C4084 1.524 . S
C4085 C4086 1.397 . S
C4085 C4090 1.363 . S
C4086 H4063 0.950 . S
C4086 C4085 1.397 . S
C4086 C4087 1.334 . S
C4087 H4064 0.950 . S
C4087 C4086 1.334 . S
C4087 C4088 1.287 . S
C4088 C4087 1.287 . S
C4088 C4089 1.524 . S
C4088 H4107 0.913 . S
C4089 H4065 0.950 . S
C4089 C4088 1.524 . S
C4089 C4090 1.415 . S
C4090 H4066 0.950 . S
C4090 C4085 1.363 . S
C4090 C4089 1.415 . S
C4091 H4067 0.951 . S
C4091 C4092 1.366 . S
C4091 C4093 1.388 . S
C4092 C4091 1.366 . S
C4092 C4096 1.385 . S
C4093 H4068 0.951 . S
C4093 C4091 1.388 . S
C4093 C4094 1.366 . S
C4094 C4093 1.366 . S
C4094 C4095 1.414 . S
C4094 C4097 1.499 . S
C4095 H4069 0.950 . S
C4095 C4094 1.414 . S
C4095 C4096 1.374 . S
C4096 H4070 0.950 . S
C4096 C4092 1.385 . S
C4096 C4095 1.374 . S
C4097 C4094 1.499 . S
C4097 C4098 1.373 . S
C4097 C4099 1.389 . S
C4098 H4071 0.950 . S
C4098 C4084 1.377 . S
C4098 C4097 1.373 . S
C4099 C4083 1.377 . S
C4099 C4097 1.389 . S
C4099 C4100 1.524 . S
C4100 C4099 1.524 . S
C4100 C4101 1.397 . S
C4100 C4105 1.363 . S
C4101 H4072 0.950 . S
C4101 C4100 1.397 . S
C4101 C4102 1.334 . S
C4102 H4073 0.950 . S
C4102 C4101 1.334 . S
C4102 C4103 1.287 . S
C4103 C4102 1.287 . S
C4103 C4104 1.524 . S
C4103 H4106 0.999 . S
C4104 H4074 0.950 . S
C4104 C4103 1.524 . S
C4104 C4105 1.415 . S
C4105 H4075 0.950 . S
C4105 C4100 1.363 . S
C4105 C4104 1.415 . S
H4106 C4103 0.999 . S
H4107 C4088 0.913 . S
H4108 C4126 0.951 . S
H4109 C4128 0.951 . S
H4110 C4130 0.950 . S
H4111 C4131 0.950 . S
H4112 C4133 0.950 . S
H4113 C4136 0.950 . S
H4114 C4137 0.950 . S
H4115 C4139 0.950 . S
H4116 C4140 0.950 . S
H4117 C4141 0.951 . S
H4118 C4143 0.951 . S
H4119 C4145 0.950 . S
H4120 C4146 0.950 . S
H4121 C4148 0.950 . S
H4122 C4151 0.950 . S
H4123 C4152 0.950 . S
H4124 C4154 0.950 . S
H4125 C4155 0.952 . S
C4126 H4108 0.951 . S
C4126 C4127 1.366 . S
C4126 C4128 1.388 . S
C4127 C4126 1.366 . S
C4127 C4131 1.385 . S
C4128 H4109 0.951 . S
C4128 C4126 1.388 . S
C4128 C4129 1.366 . S
C4129 C4128 1.366 . S
C4129 C4130 1.414 . S
C4129 C4132 1.499 . S
C4130 H4110 0.950 . S
C4130 C4129 1.414 . S
C4130 C4131 1.374 . S
C4131 H4111 0.950 . S
C4131 C4127 1.385 . S
C4131 C4130 1.374 . S
C4132 C4129 1.499 . S
C4132 C4133 1.373 . S
C4132 C4134 1.389 . S
C4133 H4112 0.950 . S
C4133 C4132 1.373 . S
C4133 C4149 1.377 . S
C4134 C4132 1.389 . S
C4134 C4135 1.524 . S
C4134 C4148 1.377 . S
C4135 C4134 1.524 . S
C4135 C4136 1.397 . S
C4135 C4140 1.363 . S
C4136 H4113 0.950 . S
C4136 C4135 1.397 . S
C4136 C4137 1.334 . S
C4137 H4114 0.950 . S
C4137 C4136 1.334 . S
C4137 C4138 1.287 . S
C4138 C4137 1.287 . S
C4138 C4139 1.524 . S
C4138 H4157 0.913 . S
C4139 H4115 0.950 . S
C4139 C4138 1.524 . S
C4139 C4140 1.415 . S
C4140 H4116 0.950 . S
C4140 C4135 1.363 . S
C4140 C4139 1.415 . S
C4141 H4117 0.951 . S
C4141 C4142 1.366 . S
C4141 C4143 1.388 . S
C4142 C4141 1.366 . S
C4142 C4146 1.385 1_545 S
C4143 H4118 0.951 . S
C4143 C4141 1.388 . S
C4143 C4144 1.366 . S
C4144 C4143 1.366 . S
C4144 C4145 1.414 1_545 S
C4144 C4147 1.499 . S
C4145 H4119 0.950 . S
C4145 C4144 1.414 1_565 S
C4145 C4146 1.374 . S
C4146 H4120 0.950 . S
C4146 C4142 1.385 1_565 S
C4146 C4145 1.374 . S
C4147 C4144 1.499 . S
C4147 C4148 1.373 . S
C4147 C4149 1.389 . S
C4148 H4121 0.950 . S
C4148 C4134 1.377 . S
C4148 C4147 1.373 . S
C4149 C4133 1.377 . S
C4149 C4147 1.389 . S
C4149 C4150 1.524 1_545 S
C4150 C4149 1.524 1_565 S
C4150 C4151 1.397 . S
C4150 C4155 1.363 1_565 S
C4151 H4122 0.950 . S
C4151 C4150 1.397 . S
C4151 C4152 1.334 . S
C4152 H4123 0.950 . S
C4152 C4151 1.334 . S
C4152 C4153 1.287 . S
C4153 C4152 1.287 . S
C4153 C4154 1.524 . S
C4153 H4156 0.999 . S
C4154 H4124 0.950 . S
C4154 C4153 1.524 . S
C4154 C4155 1.413 1_565 S
C4155 H4125 0.952 . S
C4155 C4150 1.363 1_545 S
C4155 C4154 1.413 1_545 S
H4156 C4153 0.999 . S
H4157 C4138 0.913 . S
C577 C8 1.481 . S
C592 C403 1.529 . S
C627 C18 1.519 . S
C642 C428 1.544 . S
C692 C439 1.547 . S
C677 C31 1.517 . S
C727 C34 1.509 1_565 S
C742 C464 1.557 . S
C777 C5 1.515 . S
C792 C482 1.551 . S
C827 C21 1.508 . S
C842 C493 1.548 . S
C877 C47 1.470 . S
C892 C475 1.532 . S
C942 C500 1.532 . S
C927 C57 1.500 . S
C992 C457 1.562 1_565 S
C977 C70 1.528 . S
C1027 C73 1.478 . S
C1042 C446 1.532 . S
C1092 C410 1.522 1_655 S
C1077 C44 1.515 . S
C1127 C60 1.489 . S
C1142 C421 1.537 . S
C1177 C86 1.549 . S
C1192 C511 1.589 . S
C1227 C96 1.544 . S
C1242 C536 1.562 . S
C1292 C547 1.600 . S
C1277 C109 1.598 . S
C1327 C112 1.580 . S
C1342 C248 1.622 . S
C1377 C83 1.592 . S
C1392 C266 1.610 . S
C1427 C99 1.535 . S
C1442 C277 1.570 . S
C1477 C125 1.493 . S
C1492 C259 1.542 . S
C1527 C135 1.524 . S
C1542 C284 1.556 . S
C1592 C241 1.588 . S
C1577 C148 1.565 . S
C1642 C554 1.621 . S
C1627 C151 1.575 . S
C1692 C518 1.565 . S
C1677 C122 1.546 . S
C1742 C529 1.578 . S
C1727 C138 1.530 . S
C1777 C164 1.522 . S
C1792 C295 1.562 . S
C1827 C174 1.538 . S
C1842 C320 1.563 . S
C1877 C187 1.589 . S
C1892 C331 1.596 . S
C1927 C190 1.604 . S
C1942 C356 1.646 . S
C1992 C374 1.601 . S
C1977 C161 1.589 . S
C2042 C385 1.589 . S
C2027 C177 1.552 . S
C2092 C367 1.586 . S
C2077 C203 1.535 . S
C2142 C392 1.557 . S
C2127 C213 1.532 . S
C2177 C226 1.561 . S
C2192 C349 1.579 . S
C2242 C338 1.585 . S
C2227 C229 1.541 . S
C2277 C200 1.561 . S
C2292 C302 1.586 . S
C2342 C313 1.568 . S
C2327 C216 1.520 . S
C2392 C250 1.280 . S
C2377 C0 1.308 . S
C2427 C23 1.286 . S
C2442 C268 1.219 . S
C2492 C278 1.275 . S
C2477 C36 1.346 . S
C2542 C296 1.302 . S
C2527 C26 1.332 1_556 S
C2592 C322 1.235 . S
C2577 C10 1.304 1_556 S
C2642 C332 1.235 . S
C2627 C13 1.271 . S
C2677 C39 1.344 . S
C2692 C340 1.306 . S
C2727 C62 1.314 . S
C2742 C304 1.228 . S
C2777 C75 1.351 . S
C2792 C314 1.260 . S
C2827 C65 1.391 . S
C2842 C260 1.360 . S
C2892 C286 1.234 . S
C2877 C49 1.322 . S
C2927 C52 1.304 . S
C2942 C242 1.267 . S
C2992 C358 1.274 . S
C2977 C78 1.305 . S
C3027 C101 1.363 . S
C3042 C376 1.293 . S
C3077 C114 1.391 . S
C3092 C386 1.318 . S
C3142 C404 1.234 . S
C3127 C104 1.272 . S
C3177 C88 1.305 . S
C3192 C430 1.237 . S
C3227 C91 1.203 . S
C3242 C440 1.164 . S
C3277 C117 1.246 . S
C3292 C448 1.200 . S
C3327 C140 1.260 . S
C3342 C412 1.183 . S
C3392 C422 1.288 . S
C3377 C153 1.361 . S
C3427 C143 1.353 . S
C3442 C368 1.313 . S
C3477 C127 1.399 . S
C3492 C394 1.304 . S
C3542 C350 1.317 . S
C3527 C130 1.361 . S
C3592 C466 1.212 . S
C3577 C156 1.250 . S
C3627 C179 1.240 . S
C3642 C484 1.180 . S
C3677 C192 1.334 . S
C3692 C494 1.267 . S
C3742 C512 1.271 . S
C3727 C182 1.309 . S
C3792 C538 1.301 . S
C3777 C166 1.377 . S
C3827 C169 1.334 . S
C3842 C548 1.294 . S
C3877 C195 1.344 . S
C3892 C556 1.294 . S
C3927 C218 1.389 . S
C3942 C520 1.299 . S
C3992 C530 1.318 . S
C3977 C231 1.397 . S
C4042 C476 1.235 1_655 S
C4027 C221 1.268 . S
C4092 C502 1.247 . S
C4077 C205 1.335 . S
C4127 C208 1.227 . S
C4142 C458 1.216 1_545 S
