# Generated by pormake.
# Topology ssa, (4,4)-cn, num edge types: 1
# Building blocks:
#     Node 0, Type 0, BuildingBlock: NAWXER_clean_sbu_0, # of connection points: 4
#     Node 1, Type 0, BuildingBlock: NAWXER_clean_sbu_0, # of connection points: 4
#     Node 2, Type 0, BuildingBlock: NAWXER_clean_sbu_0, # of connection points: 4
#     Node 3, Type 0, BuildingBlock: NAWXER_clean_sbu_0, # of connection points: 4
#     Node 4, Type 0, BuildingBlock: NAWXER_clean_sbu_0, # of connection points: 4
#     Node 5, Type 0, BuildingBlock: NAWXER_clean_sbu_0, # of connection points: 4
#     Node 6, Type 1, BuildingBlock: NAWXER_clean_linker_0, # of connection points: 4
#     Node 7, Type 1, BuildingBlock: NAWXER_clean_linker_0, # of connection points: 4
#     Node 8, Type 1, BuildingBlock: NAWXER_clean_linker_0, # of connection points: 4
#     Node 9, Type 1, BuildingBlock: NAWXER_clean_linker_0, # of connection points: 4
#     Node 10, Type 1, BuildingBlock: NAWXER_clean_linker_0, # of connection points: 4
#     Node 11, Type 1, BuildingBlock: NAWXER_clean_linker_0, # of connection points: 4
#     Edge 12, Type (0, 1), BuildingBlock: XUDNAN_clean_linker_2, # of connection points: 2
#     Edge 13, Type (0, 1), BuildingBlock: XUDNAN_clean_linker_2, # of connection points: 2
#     Edge 14, Type (0, 1), BuildingBlock: XUDNAN_clean_linker_2, # of connection points: 2
#     Edge 15, Type (0, 1), BuildingBlock: XUDNAN_clean_linker_2, # of connection points: 2
#     Edge 16, Type (0, 1), BuildingBlock: XUDNAN_clean_linker_2, # of connection points: 2
#     Edge 17, Type (0, 1), BuildingBlock: XUDNAN_clean_linker_2, # of connection points: 2
#     Edge 18, Type (0, 1), BuildingBlock: XUDNAN_clean_linker_2, # of connection points: 2
#     Edge 19, Type (0, 1), BuildingBlock: XUDNAN_clean_linker_2, # of connection points: 2
#     Edge 20, Type (0, 1), BuildingBlock: XUDNAN_clean_linker_2, # of connection points: 2
#     Edge 21, Type (0, 1), BuildingBlock: XUDNAN_clean_linker_2, # of connection points: 2
#     Edge 22, Type (0, 1), BuildingBlock: XUDNAN_clean_linker_2, # of connection points: 2
#     Edge 23, Type (0, 1), BuildingBlock: XUDNAN_clean_linker_2, # of connection points: 2
#     Edge 24, Type (0, 1), BuildingBlock: XUDNAN_clean_linker_2, # of connection points: 2
#     Edge 25, Type (0, 1), BuildingBlock: XUDNAN_clean_linker_2, # of connection points: 2
#     Edge 26, Type (0, 1), BuildingBlock: XUDNAN_clean_linker_2, # of connection points: 2
#     Edge 27, Type (0, 1), BuildingBlock: XUDNAN_clean_linker_2, # of connection points: 2
#     Edge 28, Type (0, 1), BuildingBlock: XUDNAN_clean_linker_2, # of connection points: 2
#     Edge 29, Type (0, 1), BuildingBlock: XUDNAN_clean_linker_2, # of connection points: 2
#     Edge 30, Type (0, 1), BuildingBlock: XUDNAN_clean_linker_2, # of connection points: 2
#     Edge 31, Type (0, 1), BuildingBlock: XUDNAN_clean_linker_2, # of connection points: 2
#     Edge 32, Type (0, 1), BuildingBlock: XUDNAN_clean_linker_2, # of connection points: 2
#     Edge 33, Type (0, 1), BuildingBlock: XUDNAN_clean_linker_2, # of connection points: 2
#     Edge 34, Type (0, 1), BuildingBlock: XUDNAN_clean_linker_2, # of connection points: 2
#     Edge 35, Type (0, 1), BuildingBlock: XUDNAN_clean_linker_2, # of connection points: 2
# Relax obj value: 0.014
# Max RMSD: 0.030
# Mean RMSD: 0.028
data_MOF--net-ssa--node1-NAWXER_clean_sbu_0--node2-NAWXER_clean_linker_0--edge1-XUDNAN_clean_linker_2
_symmetry_space_group_name_H-M    P1
_symmetry_Int_Tables_number       1
_symmetry_cell_setting            triclinic
loop_
_symmetry_equiv_pos_as_xyz
'x, y, z'
_cell_length_a     57.369643
_cell_length_b     57.323097
_cell_length_c     39.727964
_cell_angle_alpha  90.079298
_cell_angle_beta   90.029147
_cell_angle_gamma 120.00083
loop_
_atom_site_label
_atom_site_type_symbol
_atom_site_fract_x
_atom_site_fract_y
_atom_site_fract_z
_atom_type_partial_charge
C0 C 0.04466 0.56003 0.00487 0.0
C1 C 0.00342 0.46855 0.9589 0.0
O2 O 0.02563 0.54228 0.02301 0.0
Zn3 Zn 0.99805 0.49988 0.02279 0.0
O4 O 0.05088 0.55332 0.9772 0.0
Zn5 Zn 0.02445 0.51505 0.97976 0.0
O6 O 0.98695 0.51383 0.97396 0.0
O7 O 0.96335 0.49809 0.02065 0.0
O8 O 0.02187 0.48974 0.94496 0.0
O9 O 0.99365 0.47024 0.98717 0.0
O10 O 0.00934 0.48845 0.06281 0.0
O11 O 0.03989 0.50461 0.02235 0.0
C12 C 0.96544 0.50695 0.9908 0.0
C13 C 0.03274 0.49507 0.05207 0.0
C14 C 0.48978 0.01416 0.55024 0.0
C15 C 0.5201 0.9615 0.48685 0.0
O16 O 0.48735 0.99153 0.55787 0.0
Zn17 Zn 0.50585 0.98842 0.51938 0.0
O18 O 0.5017 0.02584 0.5228 0.0
Zn19 Zn 0.52119 0.01794 0.48133 0.0
O20 O 0.4994 0.01636 0.44347 0.0
O21 O 0.47837 0.98243 0.47876 0.0
O22 O 0.52582 0.98353 0.47186 0.0
O23 O 0.50916 0.95666 0.5157 0.0
O24 O 0.54624 0.02095 0.5281 0.0
O25 O 0.55766 0.04753 0.48376 0.0
C26 C 0.47848 0.99441 0.45145 0.0
C27 C 0.56353 0.04218 0.51246 0.0
C28 C 0.45781 0.43942 0.9734 0.0
C29 C 0.50338 0.52166 0.04108 0.0
O30 O 0.45978 0.462 0.96662 0.0
Zn31 Zn 0.48034 0.48103 0.00649 0.0
O32 O 0.46859 0.43668 1.00022 0.0
Zn33 Zn 0.49203 0.46068 0.04165 0.0
O34 O 0.46958 0.44189 0.0795 0.0
O35 O 0.45295 0.46187 0.048 0.0
O36 O 0.50498 0.50184 0.05335 0.0
O37 O 0.49076 0.5186 0.01358 0.0
O38 O 0.51832 0.48363 0.99657 0.0
O39 O 0.52584 0.46138 0.03639 0.0
C40 C 0.45131 0.44779 0.07394 0.0
C41 C 0.53335 0.47541 0.00968 0.0
C42 C 0.03426 0.55898 0.48186 0.0
C43 C 0.98144 0.46933 0.53045 0.0
O44 O 0.03817 0.55074 0.50984 0.0
Zn45 Zn 0.00683 0.51496 0.50875 0.0
O46 O 0.01305 0.54366 0.46477 0.0
Zn47 Zn 0.97894 0.50405 0.46826 0.0
O48 O 0.94838 0.50941 0.4735 0.0
O49 O 0.97381 0.52117 0.51891 0.0
O50 O 0.97122 0.4725 0.50332 0.0
O51 O 0.00224 0.48918 0.54328 0.0
O52 O 0.01469 0.49754 0.46498 0.0
O53 O 0.98298 0.4884 0.4271 0.0
C54 C 0.95284 0.51818 0.50356 0.0
C55 C 0.00431 0.48837 0.43592 0.0
C56 C 0.51753 0.97741 0.00569 0.0
C57 C 0.47215 0.01659 0.94343 0.0
O58 O 0.52194 0.99985 0.01831 0.0
Zn59 Zn 0.50934 0.02872 0.00914 0.0
O60 O 0.50246 0.96778 0.98002 0.0
Zn61 Zn 0.49432 0.99647 0.97429 0.0
O62 O 0.53255 0.03172 0.96087 0.0
O63 O 0.54222 0.06142 0.0018 0.0
O64 O 0.47117 0.99434 0.93729 0.0
O65 O 0.4854 0.03068 0.96897 0.0
O66 O 0.48915 0.02645 0.04898 0.0
O67 O 0.46882 0.99034 0.01678 0.0
C68 C 0.54805 0.05512 0.97366 0.0
C69 C 0.46917 0.0032 0.04337 0.0
C70 C 0.53603 0.54021 0.56579 0.0
C71 C 0.44987 0.49378 0.50738 0.0
O72 O 0.51378 0.53805 0.57492 0.0
Zn73 Zn 0.49347 0.51824 0.53622 0.0
O74 O 0.53773 0.53093 0.53697 0.0
Zn75 Zn 0.51109 0.50901 0.49511 0.0
O76 O 0.52617 0.53406 0.45772 0.0
O77 O 0.50989 0.54839 0.49798 0.0
O78 O 0.46866 0.49379 0.48989 0.0
O79 O 0.45545 0.50534 0.53588 0.0
O80 O 0.4966 0.48283 0.54204 0.0
O81 O 0.51385 0.47646 0.49554 0.0
C82 C 0.52172 0.55209 0.46951 0.0
C83 C 0.5048 0.46926 0.52521 0.0
C84 C 0.30409 0.44654 0.23144 0.0
C85 C 0.29997 0.42321 0.21458 0.0
C86 C 0.28257 0.44716 0.24712 0.0
C87 C 0.2566 0.42459 0.24569 0.0
C88 C 0.27399 0.40057 0.21351 0.0
C89 C 0.2524 0.40139 0.22857 0.0
C90 C 0.23357 0.42547 0.26067 0.0
C91 C 0.28115 0.41618 0.34553 0.0
C92 C 0.28787 0.43525 0.37144 0.0
C93 C 0.26232 0.41303 0.32083 0.0
C94 C 0.25049 0.42941 0.32119 0.0
C95 C 0.27575 0.45129 0.37194 0.0
C96 C 0.25733 0.44841 0.34714 0.0
C97 C 0.23035 0.42688 0.29581 0.0
C98 C 0.12048 0.41837 0.29919 0.0
C99 C 0.12528 0.43845 0.32301 0.0
C100 C 0.1415 0.41474 0.28791 0.0
C101 C 0.16779 0.43121 0.30007 0.0
C102 C 0.1515 0.4543 0.33597 0.0
C103 C 0.1725 0.45059 0.32473 0.0
C104 C 0.19054 0.42914 0.28585 0.0
C105 C 0.17066 0.47334 0.21128 0.0
C106 C 0.15289 0.45634 0.18639 0.0
C107 C 0.18457 0.46465 0.2316 0.0
C108 C 0.18102 0.43877 0.22752 0.0
C109 C 0.1494 0.4304 0.18211 0.0
C110 C 0.16363 0.42175 0.2024 0.0
C111 C 0.19495 0.42981 0.25091 0.0
H112 H 0.32397 0.46422 0.23261 0.0
H113 H 0.28609 0.46532 0.25998 0.0
H114 H 0.2703 0.38245 0.20039 0.0
H115 H 0.23242 0.38389 0.22702 0.0
H116 H 0.29003 0.40337 0.34481 0.0
H117 H 0.25677 0.39753 0.30192 0.0
H118 H 0.28081 0.46638 0.39135 0.0
H119 H 0.24854 0.46131 0.34812 0.0
H120 H 0.10046 0.40542 0.28923 0.0
H121 H 0.13729 0.39924 0.26938 0.0
H122 H 0.15599 0.47014 0.35408 0.0
H123 H 0.19263 0.46354 0.33441 0.0
H124 H 0.17356 0.49332 0.21534 0.0
H125 H 0.19797 0.47809 0.25084 0.0
H126 H 0.13593 0.41701 0.1629 0.0
H127 H 0.16066 0.40169 0.199 0.0
N128 N 0.216 0.42746 0.23946 0.0
N129 N 0.20869 0.42832 0.307 0.0
C130 C 0.88863 0.29827 0.80276 0.0
C131 C 0.88258 0.31013 0.8297 0.0
C132 C 0.86795 0.27878 0.78275 0.0
C133 C 0.84094 0.27151 0.78873 0.0
C134 C 0.85568 0.30246 0.83631 0.0
C135 C 0.83507 0.28341 0.81594 0.0
C136 C 0.81855 0.25094 0.76779 0.0
C137 C 0.8686 0.31625 0.69362 0.0
C138 C 0.88034 0.3086 0.66799 0.0
C139 C 0.8496 0.297 0.7153 0.0
C140 C 0.84213 0.26974 0.712 0.0
C141 C 0.87323 0.28135 0.66525 0.0
C142 C 0.85413 0.26207 0.68688 0.0
C143 C 0.82003 0.24902 0.73255 0.0
C144 C 0.70828 0.17224 0.68602 0.0
C145 C 0.71464 0.15884 0.66118 0.0
C146 C 0.72763 0.18872 0.7098 0.0
C147 C 0.75335 0.19133 0.70975 0.0
C148 C 0.74024 0.16132 0.66134 0.0
C149 C 0.75934 0.17734 0.68539 0.0
C150 C 0.77537 0.21105 0.73166 0.0
C151 C 0.7079 0.15598 0.80233 0.0
C152 C 0.70158 0.1696 0.82708 0.0
C153 C 0.73133 0.16983 0.78288 0.0
C154 C 0.74844 0.19775 0.78701 0.0
C155 C 0.71959 0.19723 0.83216 0.0
C156 C 0.74242 0.21108 0.81225 0.0
C157 C 0.7733 0.21372 0.76685 0.0
H158 H 0.90928 0.30363 0.79771 0.0
H159 H 0.87312 0.26919 0.76294 0.0
H160 H 0.85066 0.31129 0.85721 0.0
H161 H 0.81449 0.27806 0.82141 0.0
H162 H 0.87314 0.33693 0.69601 0.0
H163 H 0.84005 0.30329 0.73388 0.0
H164 H 0.88208 0.27482 0.64598 0.0
H165 H 0.84848 0.24111 0.68376 0.0
H166 H 0.68876 0.17091 0.6861 0.0
H167 H 0.72275 0.20005 0.72746 0.0
H168 H 0.7456 0.15113 0.64253 0.0
H169 H 0.77913 0.1793 0.6845 0.0
H170 H 0.69467 0.13471 0.79767 0.0
H171 H 0.73597 0.15867 0.7647 0.0
H172 H 0.71625 0.20837 0.85176 0.0
H173 H 0.75542 0.23247 0.81661 0.0
N174 N 0.79515 0.23341 0.78332 0.0
N175 N 0.79866 0.2289 0.71609 0.0
C176 C 0.57358 0.70879 0.17685 0.0
C177 C 0.55054 0.69068 0.15845 0.0
C178 C 0.57437 0.7304 0.19412 0.0
C179 C 0.55229 0.73456 0.19304 0.0
C180 C 0.52885 0.69559 0.15642 0.0
C181 C 0.52986 0.7175 0.17332 0.0
C182 C 0.55225 0.75616 0.21322 0.0
C183 C 0.53959 0.69182 0.28957 0.0
C184 C 0.55871 0.70081 0.31568 0.0
C185 C 0.53933 0.71017 0.26654 0.0
C186 C 0.55846 0.73775 0.26894 0.0
C187 C 0.57844 0.72823 0.31714 0.0
C188 C 0.57822 0.7465 0.29413 0.0
C189 C 0.55613 0.75805 0.24839 0.0
C190 C 0.52281 0.83439 0.29527 0.0
C191 C 0.54219 0.84777 0.32045 0.0
C192 C 0.52699 0.8195 0.27045 0.0
C193 C 0.55046 0.81758 0.27087 0.0
C194 C 0.56612 0.84681 0.32003 0.0
C195 C 0.5701 0.8316 0.2956 0.0
C196 C 0.55285 0.79795 0.24912 0.0
C197 C 0.56445 0.86458 0.17965 0.0
C198 C 0.54887 0.85719 0.15002 0.0
C199 C 0.56451 0.84506 0.20061 0.0
C200 C 0.54823 0.81751 0.19322 0.0
C201 C 0.53269 0.82959 0.14256 0.0
C202 C 0.53234 0.81004 0.16393 0.0
C203 C 0.5496 0.7965 0.21371 0.0
H204 H 0.59096 0.70614 0.17827 0.0
H205 H 0.59211 0.74371 0.20868 0.0
H206 H 0.51068 0.682 0.14282 0.0
H207 H 0.51266 0.72049 0.17211 0.0
H208 H 0.52391 0.67089 0.28807 0.0
H209 H 0.52336 0.70295 0.24801 0.0
H210 H 0.59363 0.73571 0.33673 0.0
H211 H 0.59311 0.76767 0.29659 0.0
H212 H 0.50411 0.83476 0.29548 0.0
H213 H 0.51132 0.80838 0.25205 0.0
H214 H 0.58116 0.85683 0.33948 0.0
H215 H 0.58818 0.8301 0.2966 0.0
H216 H 0.57691 0.88554 0.18666 0.0
H217 H 0.57799 0.85175 0.222 0.0
H218 H 0.52078 0.82299 0.11975 0.0
H219 H 0.51991 0.789 0.15721 0.0
N220 N 0.54918 0.77543 0.19722 0.0
N221 N 0.55623 0.77885 0.26486 0.0
C222 C 0.84715 0.55591 0.69302 0.0
C223 C 0.83475 0.53758 0.66632 0.0
C224 C 0.83167 0.55736 0.71942 0.0
C225 C 0.8036 0.54028 0.71968 0.0
C226 C 0.80679 0.52003 0.66734 0.0
C227 C 0.79144 0.52145 0.69358 0.0
C228 C 0.78604 0.54339 0.74445 0.0
C229 C 0.83477 0.51979 0.81461 0.0
C230 C 0.84569 0.5367 0.84283 0.0
C231 C 0.81809 0.52355 0.79209 0.0
C232 C 0.81258 0.54459 0.79724 0.0
C233 C 0.84138 0.55857 0.84675 0.0
C234 C 0.82506 0.56248 0.82419 0.0
C235 C 0.79022 0.54534 0.77967 0.0
C236 C 0.68228 0.51926 0.83175 0.0
C237 C 0.69029 0.53224 0.86312 0.0
C238 C 0.70127 0.52452 0.8066 0.0
C239 C 0.72861 0.54339 0.81198 0.0
C240 C 0.71753 0.55132 0.86842 0.0
C241 C 0.73649 0.55684 0.84309 0.0
C242 C 0.7494 0.54639 0.78741 0.0
C243 C 0.69941 0.57302 0.73082 0.0
C244 C 0.68376 0.5555 0.70477 0.0
C245 C 0.71967 0.57008 0.7463 0.0
C246 C 0.72474 0.54957 0.73606 0.0
C247 C 0.68913 0.53516 0.69438 0.0
C248 C 0.70958 0.53241 0.70965 0.0
C249 C 0.74626 0.54643 0.7522 0.0
H250 H 0.86864 0.56983 0.69282 0.0
H251 H 0.84151 0.5725 0.73879 0.0
H252 H 0.79667 0.50531 0.64757 0.0
H253 H 0.76983 0.50804 0.69318 0.0
H254 H 0.83775 0.50271 0.81117 0.0
H255 H 0.80819 0.50903 0.77207 0.0
H256 H 0.84985 0.57208 0.86806 0.0
H257 H 0.82103 0.57877 0.82882 0.0
H258 H 0.66148 0.5041 0.8272 0.0
H259 H 0.69464 0.51286 0.78358 0.0
H260 H 0.72423 0.5617 0.89233 0.0
H261 H 0.75747 0.5712 0.84809 0.0
H262 H 0.69627 0.58926 0.73902 0.0
H263 H 0.73157 0.58401 0.76608 0.0
H264 H 0.67728 0.52102 0.67478 0.0
H265 H 0.71322 0.51651 0.70127 0.0
N266 N 0.76437 0.54439 0.73219 0.0
N267 N 0.7715 0.5464 0.79956 0.0
C268 C 0.16708 0.69803 0.18416 0.0
C269 C 0.15513 0.70652 0.15972 0.0
C270 C 0.18559 0.71643 0.20739 0.0
C271 C 0.19242 0.74364 0.20665 0.0
C272 C 0.16191 0.73372 0.15932 0.0
C273 C 0.18038 0.75202 0.18238 0.0
C274 C 0.21402 0.76426 0.22825 0.0
C275 C 0.15235 0.711 0.30817 0.0
C276 C 0.16294 0.7009 0.3324 0.0
C277 C 0.1692 0.7296 0.28399 0.0
C278 C 0.19681 0.73816 0.28356 0.0
C279 C 0.1903 0.70851 0.33063 0.0
C280 C 0.20703 0.72703 0.30664 0.0
C281 C 0.21605 0.76159 0.26342 0.0
C282 C 0.30083 0.87508 0.30008 0.0
C283 C 0.31828 0.87087 0.32078 0.0
C284 C 0.27968 0.85355 0.28312 0.0
C285 C 0.27563 0.82738 0.28631 0.0
C286 C 0.31329 0.84439 0.32527 0.0
C287 C 0.29203 0.82282 0.30834 0.0
C288 C 0.25532 0.80516 0.26527 0.0
C289 C 0.32346 0.8614 0.20222 0.0
C290 C 0.31715 0.87555 0.17864 0.0
C291 C 0.30306 0.83848 0.21769 0.0
C292 C 0.27589 0.82988 0.21087 0.0
C293 C 0.29012 0.86607 0.17007 0.0
C294 C 0.26957 0.84339 0.18622 0.0
C295 C 0.25429 0.80718 0.22998 0.0
H296 H 0.1622 0.67719 0.18525 0.0
H297 H 0.19511 0.70953 0.2252 0.0
H298 H 0.15347 0.74108 0.14056 0.0
H299 H 0.18556 0.77295 0.18095 0.0
H300 H 0.13137 0.70561 0.30898 0.0
H301 H 0.16095 0.73834 0.2669 0.0
H302 H 0.19897 0.70065 0.3484 0.0
H303 H 0.22829 0.73341 0.30683 0.0
H304 H 0.30369 0.89509 0.29668 0.0
H305 H 0.26686 0.85743 0.2668 0.0
H306 H 0.32641 0.84042 0.34084 0.0
H307 H 0.28916 0.80276 0.31125 0.0
H308 H 0.34424 0.86805 0.20857 0.0
H309 H 0.30854 0.82774 0.23548 0.0
H310 H 0.28493 0.87662 0.1516 0.0
H311 H 0.24878 0.83686 0.18017 0.0
N312 N 0.23343 0.78695 0.21291 0.0
N313 N 0.23653 0.78228 0.28051 0.0
C314 C 0.40775 0.12413 0.78072 0.0
C315 C 0.41954 0.12833 0.81288 0.0
C316 C 0.40898 0.14563 0.7626 0.0
C317 C 0.42307 0.17199 0.7756 0.0
C318 C 0.43098 0.15426 0.82718 0.0
C319 C 0.43292 0.17584 0.80866 0.0
C320 C 0.42906 0.19586 0.75471 0.0
C321 C 0.46494 0.15161 0.70572 0.0
C322 C 0.45209 0.13919 0.67543 0.0
C323 C 0.46138 0.17193 0.71974 0.0
C324 C 0.44424 0.17963 0.70426 0.0
C325 C 0.43635 0.14812 0.6588 0.0
C326 C 0.43244 0.16822 0.67315 0.0
C327 C 0.43815 0.19902 0.72102 0.0
C328 C 0.49022 0.31176 0.68594 0.0
C329 C 0.47418 0.31573 0.66231 0.0
C330 C 0.47953 0.28822 0.70504 0.0
C331 C 0.45278 0.26789 0.70047 0.0
C332 C 0.44728 0.29504 0.65781 0.0
C333 C 0.43685 0.27116 0.67632 0.0
C334 C 0.44231 0.24253 0.71926 0.0
C335 C 0.42133 0.29597 0.78223 0.0
C336 C 0.43026 0.29929 0.81572 0.0
C337 C 0.42301 0.27712 0.76132 0.0
C338 C 0.43432 0.26186 0.77339 0.0
C339 C 0.44183 0.28435 0.82759 0.0
C340 C 0.44393 0.26595 0.80665 0.0
C341 C 0.43432 0.23995 0.75332 0.0
H342 H 0.39861 0.10455 0.76876 0.0
H343 H 0.40002 0.1418 0.73777 0.0
H344 H 0.43921 0.15819 0.85242 0.0
H345 H 0.44322 0.19579 0.81975 0.0
H346 H 0.47764 0.14549 0.71865 0.0
H347 H 0.47138 0.18109 0.74325 0.0
H348 H 0.42633 0.13892 0.63532 0.0
H349 H 0.41948 0.17418 0.66058 0.0
H350 H 0.5112 0.32668 0.68956 0.0
H351 H 0.49228 0.28567 0.72304 0.0
H352 H 0.43406 0.29733 0.64038 0.0
H353 H 0.41621 0.25541 0.67224 0.0
H354 H 0.41197 0.30704 0.77276 0.0
H355 H 0.41437 0.27372 0.73638 0.0
H356 H 0.44888 0.28663 0.85336 0.0
H357 H 0.45267 0.25449 0.81675 0.0
N358 N 0.42788 0.21661 0.76954 0.0
N359 N 0.44408 0.22207 0.70446 0.0
H360 H 0.02718 0.45472 0.09508 0.0
H361 H 0.08447 0.53404 0.05719 0.0
H362 H 0.12093 0.53292 0.08852 0.0
H363 H 0.05821 0.46263 0.17897 0.0
H364 H 0.05182 0.42849 0.17991 0.0
H365 H 0.02951 0.43638 0.15704 0.0
H366 H 0.0369 0.41539 0.10318 0.0
H367 H 0.05947 0.40772 0.12576 0.0
H368 H 0.07064 0.42764 0.08791 0.0
H369 H 0.15144 0.52279 0.12069 0.0
H370 H 0.17482 0.5044 0.15396 0.0
H371 H 0.09888 0.43081 0.17052 0.0
C372 C 0.04732 0.47197 0.09407 0.0
C373 C 0.05314 0.49452 0.07395 0.0
C374 C 0.07975 0.51658 0.07247 0.0
C375 C 0.10056 0.51615 0.09018 0.0
C376 C 0.09446 0.49339 0.10905 0.0
C377 C 0.06857 0.4717 0.1113 0.0
C378 C 0.06808 0.44925 0.13208 0.0
C379 C 0.05088 0.44388 0.16389 0.0
C380 C 0.05819 0.42348 0.11096 0.0
C381 C 0.09772 0.4617 0.14076 0.0
C382 C 0.11244 0.48725 0.12733 0.0
C383 C 0.14016 0.50288 0.13157 0.0
C384 C 0.15325 0.49228 0.15048 0.0
C385 C 0.13864 0.46626 0.16481 0.0
C386 C 0.11053 0.45068 0.1596 0.0
H387 H 0.57463 0.04889 0.57988 0.0
H388 H 0.61062 0.07842 0.48185 0.0
H389 H 0.65349 0.11094 0.50937 0.0
H390 H 0.60574 0.11348 0.61988 0.0
H391 H 0.6101 0.10125 0.65982 0.0
H392 H 0.58281 0.07926 0.63245 0.0
H393 H 0.59927 0.04462 0.63349 0.0
H394 H 0.62657 0.06646 0.66097 0.0
H395 H 0.6335 0.05518 0.62183 0.0
H396 H 0.69242 0.13981 0.54756 0.0
H397 H 0.72408 0.1649 0.59377 0.0
H398 H 0.66191 0.11852 0.66699 0.0
C399 C 0.59165 0.06198 0.5642 0.0
C400 C 0.58947 0.06097 0.52871 0.0
C401 C 0.61195 0.07882 0.50906 0.0
C402 C 0.63634 0.0973 0.52447 0.0
C403 C 0.63777 0.0979 0.55953 0.0
C404 C 0.61596 0.08087 0.57917 0.0
C405 C 0.6224 0.08646 0.61633 0.0
C406 C 0.60418 0.09566 0.6331 0.0
C407 C 0.62032 0.0617 0.6342 0.0
C408 C 0.6513 0.10924 0.61456 0.0
C409 C 0.65984 0.11534 0.58155 0.0
C410 C 0.68593 0.13527 0.57349 0.0
C411 C 0.70377 0.14934 0.59984 0.0
C412 C 0.69536 0.14363 0.63382 0.0
C413 C 0.66874 0.1234 0.6412 0.0
H414 H 0.49776 0.56629 0.03008 0.0
H415 H 0.53657 0.53506 0.09537 0.0
H416 H 0.55474 0.57595 0.13009 0.0
H417 H 0.55149 0.63761 0.03516 0.0
H418 H 0.52804 0.64987 0.03555 0.0
H419 H 0.51954 0.61894 0.01394 0.0
H420 H 0.47582 0.59388 0.04913 0.0
H421 H 0.48426 0.62466 0.07096 0.0
H422 H 0.47793 0.59518 0.09444 0.0
H423 H 0.56569 0.61782 0.16048 0.0
H424 H 0.56994 0.65938 0.18415 0.0
H425 H 0.52591 0.66538 0.09865 0.0
C426 C 0.51042 0.56827 0.05136 0.0
C427 C 0.5157 0.54741 0.05994 0.0
C428 C 0.53214 0.55067 0.08825 0.0
C429 C 0.54266 0.57388 0.10816 0.0
C430 C 0.53672 0.59381 0.09943 0.0
C431 C 0.52116 0.59144 0.07164 0.0
C432 C 0.51703 0.61553 0.06888 0.0
C433 C 0.52979 0.63143 0.03645 0.0
C434 C 0.48698 0.60678 0.07099 0.0
C435 C 0.53222 0.6314 0.09984 0.0
C436 C 0.5435 0.61851 0.11692 0.0
C437 C 0.5574 0.62843 0.14704 0.0
C438 C 0.55987 0.65223 0.16016 0.0
C439 C 0.54863 0.66604 0.14313 0.0
C440 C 0.53473 0.6554 0.11241 0.0
H441 H 0.95285 0.52933 0.57063 0.0
H442 H 0.90864 0.51863 0.47774 0.0
H443 H 0.87502 0.52508 0.50899 0.0
H444 H 0.89604 0.493 0.6225 0.0
H445 H 0.91035 0.51467 0.65862 0.0
H446 H 0.932 0.51135 0.62859 0.0
H447 H 0.95824 0.5631 0.6201 0.0
H448 H 0.93668 0.56659 0.65017 0.0
H449 H 0.94024 0.58014 0.60836 0.0
H450 H 0.84519 0.53051 0.55073 0.0
H451 H 0.82085 0.53396 0.5999 0.0
H452 H 0.88404 0.54014 0.66586 0.0
C453 C 0.93632 0.52873 0.5567 0.0
C454 C 0.93347 0.52363 0.52164 0.0
C455 C 0.9113 0.52259 0.50454 0.0
C456 C 0.89214 0.52628 0.52207 0.0
C457 C 0.89542 0.53095 0.55668 0.0
C458 C 0.91697 0.53221 0.57381 0.0
C459 C 0.91515 0.53617 0.61126 0.0
C460 C 0.91327 0.51238 0.63142 0.0
C461 C 0.93899 0.56311 0.62317 0.0
C462 C 0.88901 0.53663 0.61262 0.0
C463 C 0.87806 0.53376 0.58082 0.0
C464 C 0.85361 0.53282 0.57572 0.0
C465 C 0.83985 0.53461 0.60385 0.0
C466 C 0.85045 0.53716 0.63678 0.0
C467 C 0.87555 0.5385 0.64103 0.0
H468 H 0.4201 0.95824 0.03349 0.0
H469 H 0.46789 0.01868 0.10842 0.0
H470 H 0.43188 0.99447 0.15037 0.0
H471 H 0.3539 0.94658 0.06233 0.0
H472 H 0.33768 0.91102 0.05334 0.0
H473 H 0.3661 0.93451 0.02858 0.0
H474 H 0.39076 0.9082 0.0426 0.0
H475 H 0.36252 0.88472 0.06744 0.0
H476 H 0.39561 0.9025 0.08601 0.0
H477 H 0.39331 0.96079 0.18558 0.0
H478 H 0.35379 0.92127 0.21067 0.0
H479 H 0.33034 0.88413 0.11216 0.0
C480 C 0.42285 0.96665 0.05858 0.0
C481 C 0.44681 0.99033 0.06774 0.0
C482 C 0.44964 0.00063 0.10083 0.0
C483 C 0.42931 0.98703 0.12481 0.0
C484 C 0.40616 0.96343 0.11509 0.0
C485 C 0.40269 0.95351 0.08264 0.0
C486 C 0.37652 0.92713 0.07896 0.0
C487 C 0.35742 0.93 0.05434 0.0
C488 C 0.38168 0.9043 0.06812 0.0
C489 C 0.36615 0.92328 0.11467 0.0
C490 C 0.38349 0.94448 0.13513 0.0
C491 C 0.3793 0.94437 0.1697 0.0
C492 C 0.35693 0.92191 0.18372 0.0
C493 C 0.33902 0.90008 0.16312 0.0
C494 C 0.34347 0.90096 0.12817 0.0
H495 H 0.4793 0.4142 0.51589 0.0
H496 H 0.53791 0.47992 0.57747 0.0
H497 H 0.53977 0.44746 0.61642 0.0
H498 H 0.44234 0.37305 0.58147 0.0
H499 H 0.43516 0.34144 0.56288 0.0
H500 H 0.44149 0.3694 0.53632 0.0
H501 H 0.47998 0.36637 0.50638 0.0
H502 H 0.4735 0.33807 0.53253 0.0
H503 H 0.50677 0.36721 0.53105 0.0
H504 H 0.52994 0.4091 0.65307 0.0
H505 H 0.51187 0.36649 0.68371 0.0
H506 H 0.46123 0.32407 0.59769 0.0
C507 C 0.49319 0.42155 0.53691 0.0
C508 C 0.50879 0.44939 0.54364 0.0
C509 C 0.52609 0.45857 0.57191 0.0
C510 C 0.52727 0.44032 0.59413 0.0
C511 C 0.51101 0.41293 0.58764 0.0
C512 C 0.49457 0.40346 0.55953 0.0
C513 C 0.47759 0.37295 0.56026 0.0
C514 C 0.44736 0.36368 0.56024 0.0
C515 C 0.48491 0.36041 0.5308 0.0
C516 C 0.48635 0.36701 0.59369 0.0
C517 C 0.50575 0.39039 0.60887 0.0
C518 C 0.51535 0.3905 0.64105 0.0
C519 C 0.505 0.36602 0.65822 0.0
C520 C 0.48537 0.34152 0.64314 0.0
C521 C 0.47615 0.34223 0.61022 0.0
H522 H 0.54917 0.96801 0.4294 0.0
H523 H 0.49829 0.90815 0.50294 0.0
H524 H 0.49925 0.87263 0.46872 0.0
H525 H 0.51974 0.92917 0.35723 0.0
H526 H 0.55074 0.94118 0.33425 0.0
H527 H 0.54785 0.96228 0.3656 0.0
H528 H 0.58967 0.96699 0.3968 0.0
H529 H 0.59294 0.94618 0.36527 0.0
H530 H 0.59043 0.93711 0.40909 0.0
H531 H 0.50217 0.84317 0.42391 0.0
H532 H 0.51071 0.82238 0.37415 0.0
H533 H 0.56101 0.90144 0.33096 0.0
C534 C 0.53859 0.9475 0.43862 0.0
C535 C 0.52366 0.94085 0.46888 0.0
C536 C 0.51003 0.91376 0.47999 0.0
C537 C 0.51035 0.89342 0.46064 0.0
C538 C 0.52469 0.90058 0.43051 0.0
C539 C 0.53894 0.92702 0.41983 0.0
C540 C 0.55238 0.92929 0.3862 0.0
C541 C 0.54205 0.94118 0.35924 0.0
C542 C 0.58318 0.94587 0.38955 0.0
C543 C 0.54296 0.89992 0.37924 0.0
C544 C 0.52693 0.88368 0.40508 0.0
C545 C 0.51495 0.85571 0.40374 0.0
C546 C 0.51975 0.84409 0.37543 0.0
C547 C 0.53645 0.86043 0.34909 0.0
C548 C 0.54822 0.88865 0.35099 0.0
H549 H 0.54865 0.49284 0.94531 0.0
H550 H 0.57659 0.47425 0.03752 0.0
H551 H 0.6205 0.48806 0.01053 0.0
H552 H 0.58026 0.46804 0.88888 0.0
H553 H 0.58802 0.49383 0.85786 0.0
H554 H 0.55919 0.48294 0.88481 0.0
H555 H 0.57735 0.53226 0.90424 0.0
H556 H 0.60631 0.54328 0.8775 0.0
H557 H 0.61074 0.55099 0.92184 0.0
H558 H 0.66173 0.50506 0.97358 0.0
H559 H 0.69579 0.52044 0.92828 0.0
H560 H 0.63996 0.52645 0.86009 0.0
C561 C 0.56401 0.49171 0.95991 0.0
C562 C 0.55931 0.48263 0.99358 0.0
C563 C 0.57979 0.48112 0.01166 0.0
C564 C 0.60479 0.48902 0.9966 0.0
C565 C 0.60881 0.49808 0.96339 0.0
C566 C 0.58886 0.49918 0.94518 0.0
C567 C 0.5979 0.50892 0.90962 0.0
C568 C 0.5803 0.48713 0.88378 0.0
C569 C 0.59809 0.53544 0.90293 0.0
C570 C 0.62615 0.51327 0.91064 0.0
C571 C 0.63217 0.50714 0.94194 0.0
C572 C 0.65721 0.50987 0.94897 0.0
C573 C 0.67647 0.51878 0.92319 0.0
C574 C 0.67047 0.52463 0.89075 0.0
C575 C 0.645 0.52194 0.88459 0.0
H576 H 0.03546 0.57709 0.41795 0.0
H577 H 0.08059 0.59855 0.5116 0.0
H578 H 0.11732 0.63898 0.48423 0.0
H579 H 0.09027 0.59427 0.36509 0.0
H580 H 0.07869 0.60706 0.33149 0.0
H581 H 0.05476 0.58161 0.35931 0.0
H582 H 0.03487 0.61219 0.37404 0.0
H583 H 0.05864 0.63771 0.34606 0.0
H584 H 0.0568 0.64585 0.38946 0.0
H585 H 0.1503 0.67511 0.44552 0.0
H586 H 0.17713 0.70449 0.39874 0.0
H587 H 0.11079 0.65847 0.32995 0.0
C588 C 0.05278 0.59056 0.43301 0.0
C589 C 0.05505 0.58476 0.46706 0.0
C590 C 0.07833 0.60267 0.48558 0.0
C591 C 0.09928 0.62567 0.47024 0.0
C592 C 0.0966 0.63043 0.43641 0.0
C593 C 0.07388 0.61342 0.41807 0.0
C594 C 0.07664 0.62204 0.38156 0.0
C595 C 0.075 0.59993 0.35799 0.0
C596 C 0.05548 0.62992 0.37224 0.0
C597 C 0.10468 0.64637 0.38204 0.0
C598 C 0.11575 0.65097 0.41397 0.0
C599 C 0.14179 0.67175 0.42047 0.0
C600 C 0.15694 0.68819 0.39364 0.0
C601 C 0.14614 0.68368 0.36059 0.0
C602 C 0.11952 0.66261 0.35493 0.0
H603 H 0.48998 0.06911 0.93031 0.0
H604 H 0.42612 0.98856 0.90531 0.0
H605 H 0.4046 0.00807 0.86949 0.0
H606 H 0.45081 0.10118 0.9346 0.0
H607 H 0.47613 0.13194 0.91533 0.0
H608 H 0.48594 0.11145 0.93894 0.0
H609 H 0.51209 0.10867 0.88732 0.0
H610 H 0.5026 0.12938 0.86364 0.0
H611 H 0.49493 0.09689 0.84756 0.0
H612 H 0.38928 0.0375 0.83872 0.0
H613 H 0.38373 0.07323 0.81179 0.0
H614 H 0.4605 0.13356 0.85383 0.0
C615 C 0.47141 0.05554 0.91737 0.0
C616 C 0.45946 0.02738 0.92077 0.0
C617 C 0.4355 0.01023 0.90297 0.0
C618 C 0.42314 0.02114 0.88275 0.0
C619 C 0.43537 0.04913 0.88025 0.0
C620 C 0.45923 0.06601 0.89671 0.0
C621 C 0.46901 0.09528 0.88915 0.0
C622 C 0.47055 0.11086 0.92143 0.0
C623 C 0.49626 0.10831 0.87082 0.0
C624 C 0.44672 0.09241 0.86622 0.0
C625 C 0.42735 0.06573 0.86151 0.0
C626 C 0.40454 0.05843 0.84193 0.0
C627 C 0.40165 0.07893 0.82656 0.0
C628 C 0.42163 0.10644 0.83051 0.0
C629 C 0.44443 0.11296 0.85066 0.0
H630 H 0.43301 0.47602 0.44295 0.0
H631 H 0.40413 0.48362 0.54107 0.0
H632 H 0.35836 0.46514 0.51774 0.0
H633 H 0.39537 0.49733 0.39611 0.0
H634 H 0.38864 0.47453 0.3614 0.0
H635 H 0.41846 0.48556 0.3865 0.0
H636 H 0.40452 0.43588 0.39881 0.0
H637 H 0.37459 0.42468 0.37371 0.0
H638 H 0.37191 0.41367 0.41673 0.0
H639 H 0.31681 0.44939 0.48315 0.0
H640 H 0.28234 0.43829 0.43921 0.0
H641 H 0.33806 0.44118 0.36334 0.0
C642 C 0.41697 0.47335 0.45969 0.0
C643 C 0.42213 0.48115 0.4939 0.0
C644 C 0.40067 0.47776 0.51481 0.0
C645 C 0.37457 0.46717 0.50183 0.0
C646 C 0.37026 0.46003 0.46791 0.0
C647 C 0.39083 0.46294 0.4471 0.0
C648 C 0.38121 0.45551 0.41106 0.0
C649 C 0.39685 0.47968 0.38739 0.0
C650 C 0.38317 0.43097 0.3994 0.0
C651 C 0.35216 0.44855 0.41473 0.0
C652 C 0.34621 0.45103 0.44781 0.0
C653 C 0.32113 0.44711 0.45723 0.0
C654 C 0.30175 0.44094 0.43212 0.0
C655 C 0.30756 0.43882 0.39797 0.0
C656 C 0.33294 0.4422 0.38933 0.0
H657 H 0.99354 0.45623 0.89155 0.0
H658 H 0.98503 0.42074 0.99031 0.0
H659 H 0.95739 0.37543 0.96598 0.0
H660 H 0.92798 0.41525 0.86721 0.0
H661 H 0.9344 0.41181 0.8236 0.0
H662 H 0.95784 0.44118 0.84694 0.0
H663 H 0.99648 0.43195 0.83222 0.0
H664 H 0.97318 0.40264 0.80843 0.0
H665 H 0.99284 0.39954 0.84169 0.0
H666 H 0.92518 0.33526 0.93378 0.0
H667 H 0.89172 0.30195 0.89423 0.0
H668 H 0.92057 0.36227 0.81562 0.0
C669 C 0.98674 0.4388 0.90767 0.0
C670 C 0.99167 0.44186 0.94269 0.0
C671 C 0.98161 0.41874 0.96336 0.0
C672 C 0.96594 0.39293 0.94978 0.0
C673 C 0.96048 0.39053 0.91542 0.0
C674 C 0.97075 0.41276 0.89447 0.0
C675 C 0.95941 0.40467 0.85914 0.0
C676 C 0.94399 0.41908 0.84863 0.0
C677 C 0.98181 0.41001 0.83387 0.0
C678 C 0.94051 0.37469 0.8639 0.0
C679 C 0.94169 0.36697 0.89652 0.0
C680 C 0.92451 0.34087 0.90795 0.0
C681 C 0.90554 0.32214 0.88547 0.0
C682 C 0.90404 0.32961 0.85203 0.0
C683 C 0.92189 0.35608 0.84096 0.0
H684 H 0.9584 0.51143 0.92373 0.0
H685 H 0.92275 0.50759 0.02138 0.0
H686 H 0.88729 0.51346 0.99375 0.0
H687 H 0.94749 0.56161 0.88782 0.0
H688 H 0.93969 0.5467 0.84642 0.0
H689 H 0.9616 0.54137 0.8738 0.0
H690 H 0.93065 0.4897 0.86798 0.0
H691 H 0.90866 0.49486 0.84048 0.0
H692 H 0.89537 0.47463 0.87782 0.0
H693 H 0.85761 0.5226 0.95561 0.0
H694 H 0.83425 0.53181 0.90971 0.0
H695 H 0.88835 0.52778 0.8368 0.0
C696 C 0.9431 0.51173 0.93937 0.0
C697 C 0.94339 0.50921 0.97476 0.0
C698 C 0.92286 0.50945 0.99425 0.0
C699 C 0.9027 0.51281 0.97877 0.0
C700 C 0.90321 0.51551 0.94382 0.0
C701 C 0.92273 0.51471 0.92435 0.0
C702 C 0.91888 0.51814 0.88731 0.0
C703 C 0.94337 0.54346 0.87301 0.0
C704 C 0.91304 0.49282 0.86722 0.0
C705 C 0.89435 0.52147 0.88894 0.0
C706 C 0.88568 0.51996 0.92179 0.0
C707 C 0.86408 0.52358 0.92982 0.0
C708 C 0.85105 0.52892 0.90363 0.0
C709 C 0.85954 0.53045 0.86981 0.0
C710 C 0.88131 0.52642 0.8624 0.0
H711 H 0.43223 0.94602 0.45991 0.0
H712 H 0.47158 0.01352 0.39103 0.0
H713 H 0.43357 0.99024 0.35127 0.0
H714 H 0.40817 0.89508 0.39854 0.0
H715 H 0.37678 0.87343 0.41953 0.0
H716 H 0.40591 0.8963 0.4437 0.0
H717 H 0.37932 0.91732 0.4701 0.0
H718 H 0.35 0.89438 0.44616 0.0
H719 H 0.36312 0.93018 0.44301 0.0
H720 H 0.39269 0.95814 0.31747 0.0
H721 H 0.35201 0.92012 0.29251 0.0
H722 H 0.33919 0.87404 0.38414 0.0
C723 C 0.43274 0.95615 0.43671 0.0
C724 C 0.45488 0.98168 0.42865 0.0
C725 C 0.45481 0.99403 0.39782 0.0
C726 C 0.4333 0.98096 0.37508 0.0
C727 C 0.41202 0.95562 0.38362 0.0
C728 C 0.41152 0.94342 0.41378 0.0
C729 C 0.3869 0.91564 0.41636 0.0
C730 C 0.39493 0.89383 0.41972 0.0
C731 C 0.36876 0.91431 0.44564 0.0
C732 C 0.37379 0.9139 0.38269 0.0
C733 C 0.38849 0.93721 0.36424 0.0
C734 C 0.38083 0.93994 0.33188 0.0
C735 C 0.35758 0.91826 0.31799 0.0
C736 C 0.34221 0.89411 0.33643 0.0
C737 C 0.35049 0.89212 0.3693 0.0
H738 H 0.46594 0.43746 0.90573 0.0
H739 H 0.42061 0.38882 0.99088 0.0
H740 H 0.4034 0.34773 0.95614 0.0
H741 H 0.41768 0.39388 0.83729 0.0
H742 H 0.4449 0.39911 0.80986 0.0
H743 H 0.44924 0.42516 0.83898 0.0
H744 H 0.49132 0.42584 0.86382 0.0
H745 H 0.48699 0.39969 0.8351 0.0
H746 H 0.48841 0.39506 0.87977 0.0
H747 H 0.39676 0.31206 0.91622 0.0
H748 H 0.40074 0.28341 0.87278 0.0
H749 H 0.45086 0.3541 0.81263 0.0
C750 C 0.45146 0.41821 0.91643 0.0
C751 C 0.44397 0.41616 0.95063 0.0
C752 C 0.4261 0.39066 0.96452 0.0
C753 C 0.41624 0.36728 0.94498 0.0
C754 C 0.42463 0.36974 0.91163 0.0
C755 C 0.44175 0.39452 0.8973 0.0
C756 C 0.45031 0.39113 0.86229 0.0
C757 C 0.4399 0.40303 0.83552 0.0
C758 C 0.48107 0.40367 0.86015 0.0
C759 C 0.43606 0.36063 0.85974 0.0
C760 C 0.42107 0.34878 0.88836 0.0
C761 C 0.40794 0.32103 0.89339 0.0
C762 C 0.41039 0.30495 0.86872 0.0
C763 C 0.42583 0.31661 0.8394 0.0
C764 C 0.43846 0.34475 0.83455 0.0
H765 H 0.04576 0.47987 0.45139 0.0
H766 H 0.99331 0.47408 0.36908 0.0
H767 H 0.01755 0.45904 0.33121 0.0
H768 H 0.10577 0.50591 0.40439 0.0
H769 H 0.11844 0.48728 0.42694 0.0
H770 H 0.09615 0.49632 0.44758 0.0
H771 H 0.06353 0.44615 0.46196 0.0
H772 H 0.08579 0.43694 0.44148 0.0
H773 H 0.05104 0.42143 0.42867 0.0
H774 H 0.04939 0.44678 0.30193 0.0
H775 H 0.0853 0.43766 0.28399 0.0
H776 H 0.11548 0.45038 0.38654 0.0
C777 C 0.03919 0.47533 0.42545 0.0
C778 C 0.01765 0.47821 0.41315 0.0
C779 C 0.00972 0.47196 0.37905 0.0
C780 C 0.02337 0.46343 0.35738 0.0
C781 C 0.04472 0.46108 0.37035 0.0
C782 C 0.05243 0.46671 0.40367 0.0
C783 C 0.07624 0.46309 0.41144 0.0
C784 C 0.10059 0.48974 0.42327 0.0
C785 C 0.06869 0.44056 0.43742 0.0
C786 C 0.08107 0.45492 0.37714 0.0
C787 C 0.06268 0.45377 0.35375 0.0
C788 C 0.0637 0.44735 0.32014 0.0
C789 C 0.08409 0.44205 0.31024 0.0
C790 C 0.10319 0.44319 0.33387 0.0
C791 C 0.1014 0.44957 0.36777 0.0
H792 H 0.58423 0.04919 0.93429 0.0
H793 H 0.56216 0.10752 0.96813 0.0
H794 H 0.59746 0.14217 0.93203 0.0
H795 H 0.65629 0.09663 0.93429 0.0
H796 H 0.66273 0.08189 0.8979 0.0
H797 H 0.63494 0.06127 0.92529 0.0
H798 H 0.6024 0.04668 0.87433 0.0
H799 H 0.63007 0.06751 0.84685 0.0
H800 H 0.60119 0.07204 0.84882 0.0
H801 H 0.63261 0.16936 0.89002 0.0
H802 H 0.67084 0.19039 0.8512 0.0
H803 H 0.67475 0.11653 0.84952 0.0
C804 C 0.58699 0.06931 0.93406 0.0
C805 C 0.57055 0.0758 0.95383 0.0
C806 C 0.57475 0.10231 0.9533 0.0
C807 C 0.59456 0.12202 0.93271 0.0
C808 C 0.61036 0.11502 0.91334 0.0
C809 C 0.60728 0.08953 0.91433 0.0
C810 C 0.62814 0.08798 0.89244 0.0
C811 C 0.64662 0.08157 0.91376 0.0
C812 C 0.61463 0.06733 0.86392 0.0
C813 C 0.64321 0.11651 0.87885 0.0
C814 C 0.63221 0.13152 0.89082 0.0
C815 C 0.64183 0.15804 0.88105 0.0
C816 C 0.66382 0.16989 0.85915 0.0
C817 C 0.67659 0.15553 0.84783 0.0
C818 C 0.66568 0.12824 0.85753 0.0
H819 H 0.52855 0.56159 0.40108 0.0
H820 H 0.53383 0.60008 0.49719 0.0
H821 H 0.54632 0.64266 0.46813 0.0
H822 H 0.58376 0.62028 0.35922 0.0
H823 H 0.56654 0.61312 0.31931 0.0
H824 H 0.56007 0.58598 0.3476 0.0
H825 H 0.50912 0.57005 0.34624 0.0
H826 H 0.51543 0.59714 0.31803 0.0
H827 H 0.49795 0.59343 0.3571 0.0
H828 H 0.55669 0.68038 0.42954 0.0
H829 H 0.56242 0.71107 0.38295 0.0
H830 H 0.54921 0.64862 0.31082 0.0
C831 C 0.53274 0.57913 0.41593 0.0
C832 C 0.5304 0.57762 0.4514 0.0
C833 C 0.53549 0.6008 0.47 0.0
C834 C 0.54271 0.62511 0.45375 0.0
C835 C 0.54454 0.62591 0.41882 0.0
C836 C 0.5396 0.60358 0.40001 0.0
C837 C 0.54143 0.60969 0.36261 0.0
C838 C 0.56431 0.60712 0.34622 0.0
C839 C 0.51437 0.5915 0.34497 0.0
C840 C 0.54791 0.6388 0.36349 0.0
C841 C 0.54992 0.64775 0.39623 0.0
C842 C 0.55539 0.67372 0.40376 0.0
C843 C 0.55877 0.69105 0.3771 0.0
C844 C 0.55653 0.68235 0.34324 0.0
C845 C 0.55105 0.65583 0.33644 0.0
H846 H 0.48703 0.05977 0.53826 0.0
H847 H 0.47119 0.9996 0.61477 0.0
H848 H 0.45823 0.02427 0.65461 0.0
H849 H 0.51607 0.1164 0.59196 0.0
H850 H 0.50134 0.13375 0.57084 0.0
H851 H 0.50793 0.1106 0.54779 0.0
H852 H 0.45791 0.08362 0.52937 0.0
H853 H 0.45117 0.10677 0.55225 0.0
H854 H 0.43186 0.07119 0.5609 0.0
H855 H 0.45011 0.05719 0.68719 0.0
H856 H 0.44505 0.09478 0.7093 0.0
H857 H 0.46509 0.13271 0.61106 0.0
C858 C 0.48058 0.05159 0.56328 0.0
C859 C 0.48013 0.02774 0.57341 0.0
C860 C 0.4716 0.01777 0.6064 0.0
C861 C 0.46424 0.03166 0.62922 0.0
C862 C 0.46529 0.05532 0.61854 0.0
C863 C 0.473 0.06507 0.58625 0.0
C864 C 0.47293 0.09121 0.58124 0.0
C865 C 0.50125 0.11435 0.57245 0.0
C866 C 0.45223 0.08799 0.55435 0.0
C867 C 0.46436 0.09489 0.61593 0.0
C868 C 0.46009 0.07399 0.63709 0.0
C869 C 0.45315 0.07353 0.67078 0.0
C870 C 0.45048 0.09499 0.68314 0.0
C871 C 0.45462 0.11651 0.66181 0.0
C872 C 0.46147 0.11631 0.62775 0.0
H873 H 0.42071 0.47145 0.08373 0.0
H874 H 0.43131 0.40558 0.1183 0.0
H875 H 0.39361 0.39196 0.1583 0.0
H876 H 0.40653 0.48867 0.16531 0.0
H877 H 0.38233 0.49729 0.14954 0.0
H878 H 0.40951 0.50122 0.12301 0.0
H879 H 0.37519 0.47089 0.07761 0.0
H880 H 0.34791 0.46691 0.10395 0.0
H881 H 0.3487 0.43764 0.08889 0.0
H882 H 0.3536 0.38474 0.19309 0.0
H883 H 0.31629 0.38623 0.22255 0.0
H884 H 0.33403 0.45853 0.16759 0.0
C885 C 0.41498 0.45404 0.09956 0.0
C886 C 0.42872 0.43938 0.09775 0.0
C887 C 0.42098 0.41704 0.11929 0.0
C888 C 0.39959 0.40915 0.14201 0.0
C889 C 0.38648 0.42408 0.14319 0.0
C890 C 0.39406 0.44622 0.12275 0.0
C891 C 0.37731 0.45939 0.12963 0.0
C892 C 0.39498 0.48835 0.14265 0.0
C893 C 0.36133 0.45865 0.09815 0.0
C894 C 0.3589 0.44105 0.15693 0.0
C895 C 0.36435 0.42067 0.16422 0.0
C896 C 0.34931 0.40073 0.18778 0.0
C897 C 0.32818 0.40168 0.2043 0.0
C898 C 0.32256 0.42261 0.19747 0.0
C899 C 0.33822 0.44256 0.17359 0.0
H900 H 0.97901 0.45625 0.59749 0.0
H901 H 0.95511 0.4216 0.49759 0.0
H902 H 0.93094 0.37609 0.52217 0.0
H903 H 0.98571 0.40059 0.63571 0.0
H904 H 0.97146 0.4028 0.6752 0.0
H905 H 0.99015 0.43249 0.64975 0.0
H906 H 0.94937 0.44027 0.64976 0.0
H907 H 0.93058 0.41062 0.67507 0.0
H908 H 0.91707 0.41372 0.63544 0.0
H909 H 0.90616 0.33515 0.55691 0.0
H910 H 0.88043 0.30113 0.60004 0.0
H911 H 0.91951 0.3616 0.67817 0.0
C912 C 0.96921 0.43899 0.58087 0.0
C913 C 0.96904 0.44232 0.54568 0.0
C914 C 0.95544 0.4194 0.52465 0.0
C915 C 0.94181 0.39348 0.53833 0.0
C916 C 0.94185 0.39082 0.57313 0.0
C917 C 0.95511 0.41288 0.5942 0.0
C918 C 0.94972 0.40448 0.63084 0.0
C919 C 0.97582 0.41044 0.64894 0.0
C920 C 0.93586 0.41808 0.64882 0.0
C921 C 0.93084 0.37442 0.62693 0.0
C922 C 0.92698 0.36696 0.59342 0.0
C923 C 0.90934 0.34061 0.58329 0.0
C924 C 0.89491 0.32137 0.60803 0.0
C925 C 0.89807 0.32858 0.64256 0.0
C926 C 0.91663 0.35543 0.65201 0.0
H927 H 0.49108 0.92407 0.02212 0.0
H928 H 0.56836 0.99741 0.02955 0.0
H929 H 0.58587 0.97352 0.06395 0.0
H930 H 0.4898 0.90548 0.1066 0.0
H931 H 0.47312 0.86972 0.09881 0.0
H932 H 0.46783 0.89125 0.07073 0.0
H933 H 0.48315 0.87354 0.02024 0.0
H934 H 0.48835 0.8518 0.04818 0.0
H935 H 0.51543 0.87536 0.02173 0.0
H936 H 0.59427 0.94228 0.09921 0.0
H937 H 0.59257 0.90691 0.13581 0.0
H938 H 0.50808 0.8552 0.1106 0.0
C939 C 0.51191 0.93478 0.03021 0.0
C940 C 0.52868 0.96233 0.02267 0.0
C941 C 0.55545 0.97616 0.03477 0.0
C942 C 0.56551 0.96276 0.05424 0.0
C943 C 0.54835 0.93569 0.06186 0.0
C944 C 0.52205 0.92188 0.05045 0.0
C945 C 0.50703 0.89372 0.06509 0.0
C946 C 0.48303 0.88983 0.08658 0.0
C947 C 0.49796 0.87234 0.03714 0.0
C948 C 0.52893 0.89395 0.08668 0.0
C949 C 0.55269 0.91819 0.08402 0.0
C950 C 0.57572 0.92325 0.10166 0.0
C951 C 0.57442 0.90306 0.12276 0.0
C952 C 0.55009 0.87818 0.12667 0.0
C953 C 0.52712 0.87371 0.10808 0.0
H954 H 0.58331 0.54029 0.55698 0.0
H955 H 0.53964 0.56071 0.62938 0.0
H956 H 0.57464 0.57008 0.67204 0.0
H957 H 0.60076 0.50504 0.61234 0.0
H958 H 0.63361 0.51602 0.59479 0.0
H959 H 0.60725 0.51445 0.56863 0.0
H960 H 0.63731 0.56477 0.55286 0.0
H961 H 0.664 0.56647 0.57858 0.0
H962 H 0.65197 0.58969 0.58578 0.0
H963 H 0.61174 0.57223 0.70842 0.0
H964 H 0.6488 0.56883 0.73494 0.0
H965 H 0.66856 0.54797 0.63807 0.0
C966 C 0.58141 0.54745 0.5815 0.0
C967 C 0.5588 0.54995 0.58974 0.0
C968 C 0.55688 0.55884 0.62239 0.0
C969 C 0.57664 0.56417 0.6468 0.0
C970 C 0.59823 0.56066 0.63811 0.0
C971 C 0.60085 0.55276 0.60612 0.0
C972 C 0.62488 0.54864 0.60374 0.0
C973 C 0.61609 0.5193 0.59433 0.0
C974 C 0.64578 0.56859 0.57876 0.0
C975 C 0.63513 0.55497 0.63956 0.0
C976 C 0.61959 0.56197 0.65898 0.0
C977 C 0.62435 0.56727 0.6933 0.0
C978 C 0.64557 0.56539 0.70811 0.0
C979 C 0.66183 0.55829 0.68864 0.0
C980 C 0.6565 0.55325 0.65383 0.0
H981 H 0.0958 0.58358 0.02876 0.0
H982 H 0.02766 0.59571 0.01605 0.0
H983 H 0.05007 0.63656 0.0518 0.0
H984 H 0.10423 0.59882 0.11363 0.0
H985 H 0.14046 0.61547 0.1141 0.0
H986 H 0.12172 0.59021 0.08276 0.0
H987 H 0.1482 0.62406 0.03519 0.0
H988 H 0.16747 0.64932 0.06639 0.0
H989 H 0.1496 0.65618 0.03414 0.0
H990 H 0.07733 0.67272 0.09361 0.0
H991 H 0.10833 0.70299 0.13724 0.0
H992 H 0.15852 0.66673 0.12458 0.0
C993 C 0.08629 0.59566 0.03231 0.0
C994 C 0.06056 0.58732 0.01876 0.0
C995 C 0.04779 0.60247 0.02542 0.0
C996 C 0.06029 0.62552 0.04584 0.0
C997 C 0.08536 0.63284 0.05976 0.0
C998 C 0.09834 0.61849 0.05313 0.0
C999 C 0.12386 0.62902 0.0739 0.0
C1000 C 0.12246 0.60707 0.09748 0.0
C1001 C 0.14876 0.64033 0.05104 0.0
C1002 C 0.12299 0.65127 0.09356 0.0
C1003 C 0.10072 0.65323 0.08482 0.0
C1004 C 0.09506 0.67165 0.1003 0.0
C1005 C 0.11283 0.6888 0.12504 0.0
C1006 C 0.13599 0.68742 0.13425 0.0
C1007 C 0.14095 0.66823 0.1183 0.0
loop_
_geom_bond_atom_site_label_1
_geom_bond_atom_site_label_2
_geom_bond_distance
_geom_bond_site_symmetry_2
_ccdc_geom_bond_type
C0 O2 1.247 . S
C0 O4 1.258 . S
C1 O8 1.247 . S
C1 O9 1.258 . S
O2 C0 1.247 . S
O2 Zn3 2.028 1_455 S
Zn3 O2 2.028 1_655 S
Zn3 O7 2.035 1_554 S
Zn3 O9 2.035 1_554 S
Zn3 O10 2.028 1_655 S
O4 C0 1.258 . S
O4 Zn5 2.035 1_554 S
Zn5 O4 2.035 1_556 S
Zn5 O6 2.028 1_455 S
Zn5 O8 2.028 1_455 S
Zn5 O11 2.035 1_556 S
O6 Zn5 2.028 1_655 S
O6 C12 1.247 . S
O7 Zn3 2.035 1_556 S
O7 C12 1.258 . S
O8 C1 1.247 . S
O8 Zn5 2.028 1_655 S
O9 C1 1.258 . S
O9 Zn3 2.035 1_556 S
O10 Zn3 2.028 1_455 S
O10 C13 1.247 . S
O11 Zn5 2.035 1_554 S
O11 C13 1.258 . S
C12 O6 1.247 . S
C12 O7 1.258 . S
C13 O10 1.247 . S
C13 O11 1.258 . S
C14 O16 1.247 . S
C14 O18 1.258 . S
C15 O22 1.247 . S
C15 O23 1.258 . S
O16 C14 1.247 . S
O16 Zn17 2.028 1_545 S
Zn17 O16 2.028 1_565 S
Zn17 O21 2.035 . S
Zn17 O23 2.035 . S
Zn17 O24 2.028 1_565 S
O18 C14 1.258 . S
O18 Zn19 2.035 . S
Zn19 O18 2.035 . S
Zn19 O20 2.028 1_545 S
Zn19 O22 2.028 1_545 S
Zn19 O25 2.035 . S
O20 Zn19 2.028 1_565 S
O20 C26 1.247 . S
O21 Zn17 2.035 . S
O21 C26 1.258 . S
O22 C15 1.247 . S
O22 Zn19 2.028 1_565 S
O23 C15 1.258 . S
O23 Zn17 2.035 . S
O24 Zn17 2.028 1_545 S
O24 C27 1.247 . S
O25 Zn19 2.035 . S
O25 C27 1.258 . S
C26 O20 1.247 . S
C26 O21 1.258 . S
C27 O24 1.247 . S
C27 O25 1.258 . S
C28 O30 1.247 . S
C28 O32 1.258 . S
C29 O36 1.247 . S
C29 O37 1.258 . S
O30 C28 1.247 . S
O30 Zn31 2.028 . S
Zn31 O30 2.028 . S
Zn31 O35 2.035 1_556 S
Zn31 O37 2.035 1_556 S
Zn31 O38 2.028 . S
O32 C28 1.258 . S
O32 Zn33 2.035 1_556 S
Zn33 O32 2.035 1_554 S
Zn33 O34 2.028 . S
Zn33 O36 2.028 . S
Zn33 O39 2.035 1_554 S
O34 Zn33 2.028 . S
O34 C40 1.247 . S
O35 Zn31 2.035 1_554 S
O35 C40 1.258 . S
O36 C29 1.247 . S
O36 Zn33 2.028 . S
O37 C29 1.258 . S
O37 Zn31 2.035 1_554 S
O38 Zn31 2.028 . S
O38 C41 1.247 . S
O39 Zn33 2.035 1_556 S
O39 C41 1.258 . S
C40 O34 1.247 . S
C40 O35 1.258 . S
C41 O38 1.247 . S
C41 O39 1.258 . S
C42 O44 1.247 . S
C42 O46 1.258 . S
C43 O50 1.247 . S
C43 O51 1.258 . S
O44 C42 1.247 . S
O44 Zn45 2.028 . S
Zn45 O44 2.028 . S
Zn45 O49 2.035 1_455 S
Zn45 O51 2.035 1_455 S
Zn45 O52 2.028 . S
O46 C42 1.258 . S
O46 Zn47 2.035 1_455 S
Zn47 O46 2.035 1_655 S
Zn47 O48 2.028 . S
Zn47 O50 2.028 . S
Zn47 O53 2.035 1_655 S
O48 Zn47 2.028 . S
O48 C54 1.247 . S
O49 Zn45 2.035 1_655 S
O49 C54 1.258 . S
O50 C43 1.247 . S
O50 Zn47 2.028 . S
O51 C43 1.258 . S
O51 Zn45 2.035 1_655 S
O52 Zn45 2.028 . S
O52 C55 1.247 . S
O53 Zn47 2.035 1_455 S
O53 C55 1.258 . S
C54 O48 1.247 . S
C54 O49 1.258 . S
C55 O52 1.247 . S
C55 O53 1.258 . S
C56 O58 1.247 . S
C56 O60 1.258 . S
C57 O64 1.247 . S
C57 O65 1.258 . S
O58 C56 1.247 . S
O58 Zn59 2.028 1_565 S
Zn59 O58 2.028 1_545 S
Zn59 O63 2.035 1_554 S
Zn59 O65 2.035 1_554 S
Zn59 O66 2.028 1_545 S
O60 C56 1.258 . S
O60 Zn61 2.035 1_554 S
Zn61 O60 2.035 1_556 S
Zn61 O62 2.028 1_565 S
Zn61 O64 2.028 1_565 S
Zn61 O67 2.035 1_556 S
O62 Zn61 2.028 1_545 S
O62 C68 1.247 . S
O63 Zn59 2.035 1_556 S
O63 C68 1.258 . S
O64 C57 1.247 . S
O64 Zn61 2.028 1_545 S
O65 C57 1.258 . S
O65 Zn59 2.035 1_556 S
O66 Zn59 2.028 1_565 S
O66 C69 1.247 . S
O67 Zn61 2.035 1_554 S
O67 C69 1.258 . S
C68 O62 1.247 . S
C68 O63 1.258 . S
C69 O66 1.247 . S
C69 O67 1.258 . S
C70 O72 1.247 . S
C70 O74 1.258 . S
C71 O78 1.247 . S
C71 O79 1.258 . S
O72 C70 1.247 . S
O72 Zn73 2.028 . S
Zn73 O72 2.028 . S
Zn73 O77 2.035 . S
Zn73 O79 2.035 . S
Zn73 O80 2.028 . S
O74 C70 1.258 . S
O74 Zn75 2.035 . S
Zn75 O74 2.035 . S
Zn75 O76 2.028 . S
Zn75 O78 2.028 . S
Zn75 O81 2.035 . S
O76 Zn75 2.028 . S
O76 C82 1.247 . S
O77 Zn73 2.035 . S
O77 C82 1.258 . S
O78 C71 1.247 . S
O78 Zn75 2.028 . S
O79 C71 1.258 . S
O79 Zn73 2.035 . S
O80 Zn73 2.028 . S
O80 C83 1.247 . S
O81 Zn75 2.035 . S
O81 C83 1.258 . S
C82 O76 1.247 . S
C82 O77 1.258 . S
C83 O80 1.247 . S
C83 O81 1.258 . S
C84 C85 1.384 . S
C84 C86 1.384 . S
C84 H112 0.931 . S
C85 C84 1.384 . S
C85 C88 1.382 . S
C86 C84 1.384 . S
C86 C87 1.381 . S
C86 H113 0.930 . S
C87 C86 1.381 . S
C87 C89 1.381 . S
C87 C90 1.487 . S
C88 C85 1.382 . S
C88 C89 1.387 . S
C88 H114 0.930 . S
C89 C87 1.381 . S
C89 C88 1.387 . S
C89 H115 0.931 . S
C90 C87 1.487 . S
C90 C97 1.399 . S
C90 N128 1.343 . S
C91 C92 1.384 . S
C91 C93 1.384 . S
C91 H116 0.931 . S
C92 C91 1.384 . S
C92 C95 1.382 . S
C93 C91 1.384 . S
C93 C94 1.381 . S
C93 H117 0.930 . S
C94 C93 1.381 . S
C94 C96 1.381 . S
C94 C97 1.487 . S
C95 C92 1.382 . S
C95 C96 1.387 . S
C95 H118 0.930 . S
C96 C94 1.381 . S
C96 C95 1.387 . S
C96 H119 0.931 . S
C97 C90 1.399 . S
C97 C94 1.487 . S
C97 N129 1.343 . S
C98 C99 1.384 . S
C98 C100 1.384 . S
C98 H120 0.931 . S
C99 C98 1.384 . S
C99 C102 1.382 . S
C100 C98 1.384 . S
C100 C101 1.381 . S
C100 H121 0.930 . S
C101 C100 1.381 . S
C101 C103 1.381 . S
C101 C104 1.487 . S
C102 C99 1.382 . S
C102 C103 1.387 . S
C102 H122 0.930 . S
C103 C101 1.381 . S
C103 C102 1.387 . S
C103 H123 0.931 . S
C104 C101 1.487 . S
C104 C111 1.399 . S
C104 N129 1.343 . S
C105 C106 1.384 . S
C105 C107 1.384 . S
C105 H124 0.931 . S
C106 C105 1.384 . S
C106 C109 1.382 . S
C107 C105 1.384 . S
C107 C108 1.381 . S
C107 H125 0.930 . S
C108 C107 1.381 . S
C108 C110 1.381 . S
C108 C111 1.487 . S
C109 C106 1.382 . S
C109 C110 1.387 . S
C109 H126 0.930 . S
C110 C108 1.381 . S
C110 C109 1.387 . S
C110 H127 0.931 . S
C111 C104 1.399 . S
C111 C108 1.487 . S
C111 N128 1.343 . S
H112 C84 0.931 . S
H113 C86 0.930 . S
H114 C88 0.930 . S
H115 C89 0.931 . S
H116 C91 0.931 . S
H117 C93 0.930 . S
H118 C95 0.930 . S
H119 C96 0.931 . S
H120 C98 0.931 . S
H121 C100 0.930 . S
H122 C102 0.930 . S
H123 C103 0.931 . S
H124 C105 0.931 . S
H125 C107 0.930 . S
H126 C109 0.930 . S
H127 C110 0.931 . S
N128 C90 1.343 . S
N128 C111 1.343 . S
N129 C97 1.343 . S
N129 C104 1.343 . S
C130 C131 1.384 . S
C130 C132 1.384 . S
C130 H158 0.931 . S
C131 C130 1.384 . S
C131 C134 1.382 . S
C132 C130 1.384 . S
C132 C133 1.381 . S
C132 H159 0.930 . S
C133 C132 1.381 . S
C133 C135 1.381 . S
C133 C136 1.487 . S
C134 C131 1.382 . S
C134 C135 1.387 . S
C134 H160 0.930 . S
C135 C133 1.381 . S
C135 C134 1.387 . S
C135 H161 0.931 . S
C136 C133 1.487 . S
C136 C143 1.399 . S
C136 N174 1.343 . S
C137 C138 1.384 . S
C137 C139 1.384 . S
C137 H162 0.931 . S
C138 C137 1.384 . S
C138 C141 1.382 . S
C139 C137 1.384 . S
C139 C140 1.381 . S
C139 H163 0.930 . S
C140 C139 1.381 . S
C140 C142 1.381 . S
C140 C143 1.487 . S
C141 C138 1.382 . S
C141 C142 1.387 . S
C141 H164 0.930 . S
C142 C140 1.381 . S
C142 C141 1.387 . S
C142 H165 0.931 . S
C143 C136 1.399 . S
C143 C140 1.487 . S
C143 N175 1.343 . S
C144 C145 1.384 . S
C144 C146 1.384 . S
C144 H166 0.931 . S
C145 C144 1.384 . S
C145 C148 1.382 . S
C146 C144 1.384 . S
C146 C147 1.381 . S
C146 H167 0.930 . S
C147 C146 1.381 . S
C147 C149 1.381 . S
C147 C150 1.487 . S
C148 C145 1.382 . S
C148 C149 1.387 . S
C148 H168 0.930 . S
C149 C147 1.381 . S
C149 C148 1.387 . S
C149 H169 0.931 . S
C150 C147 1.487 . S
C150 C157 1.399 . S
C150 N175 1.343 . S
C151 C152 1.384 . S
C151 C153 1.384 . S
C151 H170 0.931 . S
C152 C151 1.384 . S
C152 C155 1.382 . S
C153 C151 1.384 . S
C153 C154 1.381 . S
C153 H171 0.930 . S
C154 C153 1.381 . S
C154 C156 1.381 . S
C154 C157 1.487 . S
C155 C152 1.382 . S
C155 C156 1.387 . S
C155 H172 0.930 . S
C156 C154 1.381 . S
C156 C155 1.387 . S
C156 H173 0.931 . S
C157 C150 1.399 . S
C157 C154 1.487 . S
C157 N174 1.343 . S
H158 C130 0.931 . S
H159 C132 0.930 . S
H160 C134 0.930 . S
H161 C135 0.931 . S
H162 C137 0.931 . S
H163 C139 0.930 . S
H164 C141 0.930 . S
H165 C142 0.931 . S
H166 C144 0.931 . S
H167 C146 0.930 . S
H168 C148 0.930 . S
H169 C149 0.931 . S
H170 C151 0.931 . S
H171 C153 0.930 . S
H172 C155 0.930 . S
H173 C156 0.931 . S
N174 C136 1.343 . S
N174 C157 1.343 . S
N175 C143 1.343 . S
N175 C150 1.343 . S
C176 C177 1.384 . S
C176 C178 1.384 . S
C176 H204 0.931 . S
C177 C176 1.384 . S
C177 C180 1.382 . S
C178 C176 1.384 . S
C178 C179 1.381 . S
C178 H205 0.930 . S
C179 C178 1.381 . S
C179 C181 1.381 . S
C179 C182 1.487 . S
C180 C177 1.382 . S
C180 C181 1.387 . S
C180 H206 0.930 . S
C181 C179 1.381 . S
C181 C180 1.387 . S
C181 H207 0.931 . S
C182 C179 1.487 . S
C182 C189 1.399 . S
C182 N220 1.343 . S
C183 C184 1.384 . S
C183 C185 1.384 . S
C183 H208 0.931 . S
C184 C183 1.384 . S
C184 C187 1.382 . S
C185 C183 1.384 . S
C185 C186 1.381 . S
C185 H209 0.930 . S
C186 C185 1.381 . S
C186 C188 1.381 . S
C186 C189 1.487 . S
C187 C184 1.382 . S
C187 C188 1.387 . S
C187 H210 0.930 . S
C188 C186 1.381 . S
C188 C187 1.387 . S
C188 H211 0.931 . S
C189 C182 1.399 . S
C189 C186 1.487 . S
C189 N221 1.343 . S
C190 C191 1.384 . S
C190 C192 1.384 . S
C190 H212 0.931 . S
C191 C190 1.384 . S
C191 C194 1.382 . S
C192 C190 1.384 . S
C192 C193 1.381 . S
C192 H213 0.930 . S
C193 C192 1.381 . S
C193 C195 1.381 . S
C193 C196 1.487 . S
C194 C191 1.382 . S
C194 C195 1.387 . S
C194 H214 0.930 . S
C195 C193 1.381 . S
C195 C194 1.387 . S
C195 H215 0.931 . S
C196 C193 1.487 . S
C196 C203 1.399 . S
C196 N221 1.343 . S
C197 C198 1.384 . S
C197 C199 1.384 . S
C197 H216 0.931 . S
C198 C197 1.384 . S
C198 C201 1.382 . S
C199 C197 1.384 . S
C199 C200 1.381 . S
C199 H217 0.930 . S
C200 C199 1.381 . S
C200 C202 1.381 . S
C200 C203 1.487 . S
C201 C198 1.382 . S
C201 C202 1.387 . S
C201 H218 0.930 . S
C202 C200 1.381 . S
C202 C201 1.387 . S
C202 H219 0.931 . S
C203 C196 1.399 . S
C203 C200 1.487 . S
C203 N220 1.343 . S
H204 C176 0.931 . S
H205 C178 0.930 . S
H206 C180 0.930 . S
H207 C181 0.931 . S
H208 C183 0.931 . S
H209 C185 0.930 . S
H210 C187 0.930 . S
H211 C188 0.931 . S
H212 C190 0.931 . S
H213 C192 0.930 . S
H214 C194 0.930 . S
H215 C195 0.931 . S
H216 C197 0.931 . S
H217 C199 0.930 . S
H218 C201 0.930 . S
H219 C202 0.931 . S
N220 C182 1.343 . S
N220 C203 1.343 . S
N221 C189 1.343 . S
N221 C196 1.343 . S
C222 C223 1.384 . S
C222 C224 1.384 . S
C222 H250 0.931 . S
C223 C222 1.384 . S
C223 C226 1.382 . S
C224 C222 1.384 . S
C224 C225 1.381 . S
C224 H251 0.930 . S
C225 C224 1.381 . S
C225 C227 1.381 . S
C225 C228 1.487 . S
C226 C223 1.382 . S
C226 C227 1.387 . S
C226 H252 0.930 . S
C227 C225 1.381 . S
C227 C226 1.387 . S
C227 H253 0.931 . S
C228 C225 1.487 . S
C228 C235 1.399 . S
C228 N266 1.343 . S
C229 C230 1.384 . S
C229 C231 1.384 . S
C229 H254 0.931 . S
C230 C229 1.384 . S
C230 C233 1.382 . S
C231 C229 1.384 . S
C231 C232 1.381 . S
C231 H255 0.930 . S
C232 C231 1.381 . S
C232 C234 1.381 . S
C232 C235 1.487 . S
C233 C230 1.382 . S
C233 C234 1.387 . S
C233 H256 0.930 . S
C234 C232 1.381 . S
C234 C233 1.387 . S
C234 H257 0.931 . S
C235 C228 1.399 . S
C235 C232 1.487 . S
C235 N267 1.343 . S
C236 C237 1.384 . S
C236 C238 1.384 . S
C236 H258 0.931 . S
C237 C236 1.384 . S
C237 C240 1.382 . S
C238 C236 1.384 . S
C238 C239 1.381 . S
C238 H259 0.930 . S
C239 C238 1.381 . S
C239 C241 1.381 . S
C239 C242 1.487 . S
C240 C237 1.382 . S
C240 C241 1.387 . S
C240 H260 0.930 . S
C241 C239 1.381 . S
C241 C240 1.387 . S
C241 H261 0.931 . S
C242 C239 1.487 . S
C242 C249 1.399 . S
C242 N267 1.343 . S
C243 C244 1.384 . S
C243 C245 1.384 . S
C243 H262 0.931 . S
C244 C243 1.384 . S
C244 C247 1.382 . S
C245 C243 1.384 . S
C245 C246 1.381 . S
C245 H263 0.930 . S
C246 C245 1.381 . S
C246 C248 1.381 . S
C246 C249 1.487 . S
C247 C244 1.382 . S
C247 C248 1.387 . S
C247 H264 0.930 . S
C248 C246 1.381 . S
C248 C247 1.387 . S
C248 H265 0.931 . S
C249 C242 1.399 . S
C249 C246 1.487 . S
C249 N266 1.343 . S
H250 C222 0.931 . S
H251 C224 0.930 . S
H252 C226 0.930 . S
H253 C227 0.931 . S
H254 C229 0.931 . S
H255 C231 0.930 . S
H256 C233 0.930 . S
H257 C234 0.931 . S
H258 C236 0.931 . S
H259 C238 0.930 . S
H260 C240 0.930 . S
H261 C241 0.931 . S
H262 C243 0.931 . S
H263 C245 0.930 . S
H264 C247 0.930 . S
H265 C248 0.931 . S
N266 C228 1.343 . S
N266 C249 1.343 . S
N267 C235 1.343 . S
N267 C242 1.343 . S
C268 C269 1.384 . S
C268 C270 1.384 . S
C268 H296 0.931 . S
C269 C268 1.384 . S
C269 C272 1.382 . S
C270 C268 1.384 . S
C270 C271 1.381 . S
C270 H297 0.930 . S
C271 C270 1.381 . S
C271 C273 1.381 . S
C271 C274 1.487 . S
C272 C269 1.382 . S
C272 C273 1.387 . S
C272 H298 0.930 . S
C273 C271 1.381 . S
C273 C272 1.387 . S
C273 H299 0.931 . S
C274 C271 1.487 . S
C274 C281 1.399 . S
C274 N312 1.343 . S
C275 C276 1.384 . S
C275 C277 1.384 . S
C275 H300 0.931 . S
C276 C275 1.384 . S
C276 C279 1.382 . S
C277 C275 1.384 . S
C277 C278 1.381 . S
C277 H301 0.930 . S
C278 C277 1.381 . S
C278 C280 1.381 . S
C278 C281 1.487 . S
C279 C276 1.382 . S
C279 C280 1.387 . S
C279 H302 0.930 . S
C280 C278 1.381 . S
C280 C279 1.387 . S
C280 H303 0.931 . S
C281 C274 1.399 . S
C281 C278 1.487 . S
C281 N313 1.343 . S
C282 C283 1.384 . S
C282 C284 1.384 . S
C282 H304 0.931 . S
C283 C282 1.384 . S
C283 C286 1.382 . S
C284 C282 1.384 . S
C284 C285 1.381 . S
C284 H305 0.930 . S
C285 C284 1.381 . S
C285 C287 1.381 . S
C285 C288 1.487 . S
C286 C283 1.382 . S
C286 C287 1.387 . S
C286 H306 0.930 . S
C287 C285 1.381 . S
C287 C286 1.387 . S
C287 H307 0.931 . S
C288 C285 1.487 . S
C288 C295 1.399 . S
C288 N313 1.343 . S
C289 C290 1.384 . S
C289 C291 1.384 . S
C289 H308 0.931 . S
C290 C289 1.384 . S
C290 C293 1.382 . S
C291 C289 1.384 . S
C291 C292 1.381 . S
C291 H309 0.930 . S
C292 C291 1.381 . S
C292 C294 1.381 . S
C292 C295 1.487 . S
C293 C290 1.382 . S
C293 C294 1.387 . S
C293 H310 0.930 . S
C294 C292 1.381 . S
C294 C293 1.387 . S
C294 H311 0.931 . S
C295 C288 1.399 . S
C295 C292 1.487 . S
C295 N312 1.343 . S
H296 C268 0.931 . S
H297 C270 0.930 . S
H298 C272 0.930 . S
H299 C273 0.931 . S
H300 C275 0.931 . S
H301 C277 0.930 . S
H302 C279 0.930 . S
H303 C280 0.931 . S
H304 C282 0.931 . S
H305 C284 0.930 . S
H306 C286 0.930 . S
H307 C287 0.931 . S
H308 C289 0.931 . S
H309 C291 0.930 . S
H310 C293 0.930 . S
H311 C294 0.931 . S
N312 C274 1.343 . S
N312 C295 1.343 . S
N313 C281 1.343 . S
N313 C288 1.343 . S
C314 C315 1.384 . S
C314 C316 1.384 . S
C314 H342 0.931 . S
C315 C314 1.384 . S
C315 C318 1.382 . S
C316 C314 1.384 . S
C316 C317 1.381 . S
C316 H343 0.930 . S
C317 C316 1.381 . S
C317 C319 1.381 . S
C317 C320 1.487 . S
C318 C315 1.382 . S
C318 C319 1.387 . S
C318 H344 0.930 . S
C319 C317 1.381 . S
C319 C318 1.387 . S
C319 H345 0.931 . S
C320 C317 1.487 . S
C320 C327 1.399 . S
C320 N358 1.343 . S
C321 C322 1.384 . S
C321 C323 1.384 . S
C321 H346 0.931 . S
C322 C321 1.384 . S
C322 C325 1.382 . S
C323 C321 1.384 . S
C323 C324 1.381 . S
C323 H347 0.930 . S
C324 C323 1.381 . S
C324 C326 1.381 . S
C324 C327 1.487 . S
C325 C322 1.382 . S
C325 C326 1.387 . S
C325 H348 0.930 . S
C326 C324 1.381 . S
C326 C325 1.387 . S
C326 H349 0.931 . S
C327 C320 1.399 . S
C327 C324 1.487 . S
C327 N359 1.343 . S
C328 C329 1.384 . S
C328 C330 1.384 . S
C328 H350 0.931 . S
C329 C328 1.384 . S
C329 C332 1.382 . S
C330 C328 1.384 . S
C330 C331 1.381 . S
C330 H351 0.930 . S
C331 C330 1.381 . S
C331 C333 1.381 . S
C331 C334 1.487 . S
C332 C329 1.382 . S
C332 C333 1.387 . S
C332 H352 0.930 . S
C333 C331 1.381 . S
C333 C332 1.387 . S
C333 H353 0.931 . S
C334 C331 1.487 . S
C334 C341 1.399 . S
C334 N359 1.343 . S
C335 C336 1.384 . S
C335 C337 1.384 . S
C335 H354 0.931 . S
C336 C335 1.384 . S
C336 C339 1.382 . S
C337 C335 1.384 . S
C337 C338 1.381 . S
C337 H355 0.930 . S
C338 C337 1.381 . S
C338 C340 1.381 . S
C338 C341 1.487 . S
C339 C336 1.382 . S
C339 C340 1.387 . S
C339 H356 0.930 . S
C340 C338 1.381 . S
C340 C339 1.387 . S
C340 H357 0.931 . S
C341 C334 1.399 . S
C341 C338 1.487 . S
C341 N358 1.343 . S
H342 C314 0.931 . S
H343 C316 0.930 . S
H344 C318 0.930 . S
H345 C319 0.931 . S
H346 C321 0.931 . S
H347 C323 0.930 . S
H348 C325 0.930 . S
H349 C326 0.931 . S
H350 C328 0.931 . S
H351 C330 0.930 . S
H352 C332 0.930 . S
H353 C333 0.931 . S
H354 C335 0.931 . S
H355 C337 0.930 . S
H356 C339 0.930 . S
H357 C340 0.931 . S
N358 C320 1.343 . S
N358 C341 1.343 . S
N359 C327 1.343 . S
N359 C334 1.343 . S
H360 C372 0.930 . S
H361 C374 0.930 . S
H362 C375 0.930 . S
H363 C379 0.959 . S
H364 C379 0.959 . S
H365 C379 0.961 . S
H366 C380 0.960 . S
H367 C380 0.961 . S
H368 C380 0.959 . S
H369 C383 0.929 . S
H370 C384 0.931 . S
H371 C386 0.930 . S
C372 H360 0.930 . S
C372 C373 1.399 . S
C372 C377 1.399 . S
C373 C372 1.399 . S
C373 C374 1.376 . S
C374 H361 0.930 . S
C374 C373 1.376 . S
C374 C375 1.388 . S
C375 H362 0.930 . S
C375 C374 1.388 . S
C375 C376 1.390 . S
C376 C375 1.390 . S
C376 C377 1.394 . S
C376 C382 1.465 . S
C377 C372 1.399 . S
C377 C376 1.394 . S
C377 C378 1.516 . S
C378 C377 1.516 . S
C378 C379 1.502 . S
C378 C380 1.561 . S
C378 C381 1.526 . S
C379 H363 0.959 . S
C379 H364 0.959 . S
C379 H365 0.961 . S
C379 C378 1.502 . S
C380 H366 0.960 . S
C380 H367 0.961 . S
C380 H368 0.959 . S
C380 C378 1.561 . S
C381 C378 1.526 . S
C381 C382 1.396 . S
C381 C386 1.390 . S
C382 C376 1.465 . S
C382 C381 1.396 . S
C382 C383 1.399 . S
C383 H369 0.929 . S
C383 C382 1.399 . S
C383 C384 1.385 . S
C384 H370 0.931 . S
C384 C383 1.385 . S
C384 C385 1.389 . S
C385 C384 1.389 . S
C385 C386 1.387 . S
C386 H371 0.930 . S
C386 C381 1.390 . S
C386 C385 1.387 . S
H387 C399 0.930 . S
H388 C401 0.930 . S
H389 C402 0.930 . S
H390 C406 0.959 . S
H391 C406 0.959 . S
H392 C406 0.961 . S
H393 C407 0.960 . S
H394 C407 0.961 . S
H395 C407 0.959 . S
H396 C410 0.929 . S
H397 C411 0.931 . S
H398 C413 0.930 . S
C399 H387 0.930 . S
C399 C400 1.399 . S
C399 C404 1.399 . S
C400 C399 1.399 . S
C400 C401 1.376 . S
C401 H388 0.930 . S
C401 C400 1.376 . S
C401 C402 1.388 . S
C402 H389 0.930 . S
C402 C401 1.388 . S
C402 C403 1.390 . S
C403 C402 1.390 . S
C403 C404 1.394 . S
C403 C409 1.465 . S
C404 C399 1.399 . S
C404 C403 1.394 . S
C404 C405 1.516 . S
C405 C404 1.516 . S
C405 C406 1.502 . S
C405 C407 1.561 . S
C405 C408 1.526 . S
C406 H390 0.959 . S
C406 H391 0.959 . S
C406 H392 0.961 . S
C406 C405 1.502 . S
C407 H393 0.960 . S
C407 H394 0.961 . S
C407 H395 0.959 . S
C407 C405 1.561 . S
C408 C405 1.526 . S
C408 C409 1.396 . S
C408 C413 1.390 . S
C409 C403 1.465 . S
C409 C408 1.396 . S
C409 C410 1.399 . S
C410 H396 0.929 . S
C410 C409 1.399 . S
C410 C411 1.385 . S
C411 H397 0.931 . S
C411 C410 1.385 . S
C411 C412 1.389 . S
C412 C411 1.389 . S
C412 C413 1.387 . S
C413 H398 0.930 . S
C413 C408 1.390 . S
C413 C412 1.387 . S
H414 C426 0.930 . S
H415 C428 0.930 . S
H416 C429 0.930 . S
H417 C433 0.959 . S
H418 C433 0.959 . S
H419 C433 0.961 . S
H420 C434 0.960 . S
H421 C434 0.961 . S
H422 C434 0.959 . S
H423 C437 0.929 . S
H424 C438 0.931 . S
H425 C440 0.930 . S
C426 H414 0.930 . S
C426 C427 1.399 . S
C426 C431 1.399 . S
C427 C426 1.399 . S
C427 C428 1.376 . S
C428 H415 0.930 . S
C428 C427 1.376 . S
C428 C429 1.388 . S
C429 H416 0.930 . S
C429 C428 1.388 . S
C429 C430 1.390 . S
C430 C429 1.390 . S
C430 C431 1.394 . S
C430 C436 1.465 . S
C431 C426 1.399 . S
C431 C430 1.394 . S
C431 C432 1.516 . S
C432 C431 1.516 . S
C432 C433 1.502 . S
C432 C434 1.561 . S
C432 C435 1.526 . S
C433 H417 0.959 . S
C433 H418 0.959 . S
C433 H419 0.961 . S
C433 C432 1.502 . S
C434 H420 0.960 . S
C434 H421 0.961 . S
C434 H422 0.959 . S
C434 C432 1.561 . S
C435 C432 1.526 . S
C435 C436 1.396 . S
C435 C440 1.390 . S
C436 C430 1.465 . S
C436 C435 1.396 . S
C436 C437 1.399 . S
C437 H423 0.929 . S
C437 C436 1.399 . S
C437 C438 1.385 . S
C438 H424 0.931 . S
C438 C437 1.385 . S
C438 C439 1.389 . S
C439 C438 1.389 . S
C439 C440 1.387 . S
C440 H425 0.930 . S
C440 C435 1.390 . S
C440 C439 1.387 . S
H441 C453 0.930 . S
H442 C455 0.930 . S
H443 C456 0.930 . S
H444 C460 0.959 . S
H445 C460 0.959 . S
H446 C460 0.961 . S
H447 C461 0.960 . S
H448 C461 0.961 . S
H449 C461 0.959 . S
H450 C464 0.929 . S
H451 C465 0.931 . S
H452 C467 0.930 . S
C453 H441 0.930 . S
C453 C454 1.399 . S
C453 C458 1.399 . S
C454 C453 1.399 . S
C454 C455 1.376 . S
C455 H442 0.930 . S
C455 C454 1.376 . S
C455 C456 1.388 . S
C456 H443 0.930 . S
C456 C455 1.388 . S
C456 C457 1.390 . S
C457 C456 1.390 . S
C457 C458 1.394 . S
C457 C463 1.465 . S
C458 C453 1.399 . S
C458 C457 1.394 . S
C458 C459 1.516 . S
C459 C458 1.516 . S
C459 C460 1.502 . S
C459 C461 1.561 . S
C459 C462 1.526 . S
C460 H444 0.959 . S
C460 H445 0.959 . S
C460 H446 0.961 . S
C460 C459 1.502 . S
C461 H447 0.960 . S
C461 H448 0.961 . S
C461 H449 0.959 . S
C461 C459 1.561 . S
C462 C459 1.526 . S
C462 C463 1.396 . S
C462 C467 1.390 . S
C463 C457 1.465 . S
C463 C462 1.396 . S
C463 C464 1.399 . S
C464 H450 0.929 . S
C464 C463 1.399 . S
C464 C465 1.385 . S
C465 H451 0.931 . S
C465 C464 1.385 . S
C465 C466 1.389 . S
C466 C465 1.389 . S
C466 C467 1.387 . S
C467 H452 0.930 . S
C467 C462 1.390 . S
C467 C466 1.387 . S
H468 C480 0.930 . S
H469 C482 0.930 . S
H470 C483 0.930 . S
H471 C487 0.959 . S
H472 C487 0.959 . S
H473 C487 0.961 . S
H474 C488 0.960 . S
H475 C488 0.961 . S
H476 C488 0.959 . S
H477 C491 0.929 . S
H478 C492 0.931 . S
H479 C494 0.930 . S
C480 H468 0.930 . S
C480 C481 1.399 . S
C480 C485 1.399 . S
C481 C480 1.399 . S
C481 C482 1.376 . S
C482 H469 0.930 . S
C482 C481 1.376 . S
C482 C483 1.388 . S
C483 H470 0.930 . S
C483 C482 1.388 . S
C483 C484 1.390 . S
C484 C483 1.390 . S
C484 C485 1.394 . S
C484 C490 1.465 . S
C485 C480 1.399 . S
C485 C484 1.394 . S
C485 C486 1.516 . S
C486 C485 1.516 . S
C486 C487 1.502 . S
C486 C488 1.561 . S
C486 C489 1.526 . S
C487 H471 0.959 . S
C487 H472 0.959 . S
C487 H473 0.961 . S
C487 C486 1.502 . S
C488 H474 0.960 . S
C488 H475 0.961 . S
C488 H476 0.959 . S
C488 C486 1.561 . S
C489 C486 1.526 . S
C489 C490 1.396 . S
C489 C494 1.390 . S
C490 C484 1.465 . S
C490 C489 1.396 . S
C490 C491 1.399 . S
C491 H477 0.929 . S
C491 C490 1.399 . S
C491 C492 1.385 . S
C492 H478 0.931 . S
C492 C491 1.385 . S
C492 C493 1.389 . S
C493 C492 1.389 . S
C493 C494 1.387 . S
C494 H479 0.930 . S
C494 C489 1.390 . S
C494 C493 1.387 . S
H495 C507 0.930 . S
H496 C509 0.930 . S
H497 C510 0.930 . S
H498 C514 0.959 . S
H499 C514 0.959 . S
H500 C514 0.961 . S
H501 C515 0.960 . S
H502 C515 0.961 . S
H503 C515 0.959 . S
H504 C518 0.929 . S
H505 C519 0.931 . S
H506 C521 0.930 . S
C507 H495 0.930 . S
C507 C508 1.399 . S
C507 C512 1.399 . S
C508 C507 1.399 . S
C508 C509 1.376 . S
C509 H496 0.930 . S
C509 C508 1.376 . S
C509 C510 1.388 . S
C510 H497 0.930 . S
C510 C509 1.388 . S
C510 C511 1.390 . S
C511 C510 1.390 . S
C511 C512 1.394 . S
C511 C517 1.465 . S
C512 C507 1.399 . S
C512 C511 1.394 . S
C512 C513 1.516 . S
C513 C512 1.516 . S
C513 C514 1.502 . S
C513 C515 1.561 . S
C513 C516 1.526 . S
C514 H498 0.959 . S
C514 H499 0.959 . S
C514 H500 0.961 . S
C514 C513 1.502 . S
C515 H501 0.960 . S
C515 H502 0.961 . S
C515 H503 0.959 . S
C515 C513 1.561 . S
C516 C513 1.526 . S
C516 C517 1.396 . S
C516 C521 1.390 . S
C517 C511 1.465 . S
C517 C516 1.396 . S
C517 C518 1.399 . S
C518 H504 0.929 . S
C518 C517 1.399 . S
C518 C519 1.385 . S
C519 H505 0.931 . S
C519 C518 1.385 . S
C519 C520 1.389 . S
C520 C519 1.389 . S
C520 C521 1.387 . S
C521 H506 0.930 . S
C521 C516 1.390 . S
C521 C520 1.387 . S
H522 C534 0.930 . S
H523 C536 0.930 . S
H524 C537 0.930 . S
H525 C541 0.959 . S
H526 C541 0.959 . S
H527 C541 0.961 . S
H528 C542 0.960 . S
H529 C542 0.961 . S
H530 C542 0.959 . S
H531 C545 0.929 . S
H532 C546 0.931 . S
H533 C548 0.930 . S
C534 H522 0.930 . S
C534 C535 1.399 . S
C534 C539 1.399 . S
C535 C534 1.399 . S
C535 C536 1.376 . S
C536 H523 0.930 . S
C536 C535 1.376 . S
C536 C537 1.388 . S
C537 H524 0.930 . S
C537 C536 1.388 . S
C537 C538 1.390 . S
C538 C537 1.390 . S
C538 C539 1.394 . S
C538 C544 1.465 . S
C539 C534 1.399 . S
C539 C538 1.394 . S
C539 C540 1.516 . S
C540 C539 1.516 . S
C540 C541 1.502 . S
C540 C542 1.561 . S
C540 C543 1.526 . S
C541 H525 0.959 . S
C541 H526 0.959 . S
C541 H527 0.961 . S
C541 C540 1.502 . S
C542 H528 0.960 . S
C542 H529 0.961 . S
C542 H530 0.959 . S
C542 C540 1.561 . S
C543 C540 1.526 . S
C543 C544 1.396 . S
C543 C548 1.390 . S
C544 C538 1.465 . S
C544 C543 1.396 . S
C544 C545 1.399 . S
C545 H531 0.929 . S
C545 C544 1.399 . S
C545 C546 1.385 . S
C546 H532 0.931 . S
C546 C545 1.385 . S
C546 C547 1.389 . S
C547 C546 1.389 . S
C547 C548 1.387 . S
C548 H533 0.930 . S
C548 C543 1.390 . S
C548 C547 1.387 . S
H549 C561 0.930 . S
H550 C563 0.930 . S
H551 C564 0.930 . S
H552 C568 0.959 . S
H553 C568 0.959 . S
H554 C568 0.961 . S
H555 C569 0.960 . S
H556 C569 0.961 . S
H557 C569 0.959 . S
H558 C572 0.929 . S
H559 C573 0.931 . S
H560 C575 0.930 . S
C561 H549 0.930 . S
C561 C562 1.399 . S
C561 C566 1.399 . S
C562 C561 1.399 . S
C562 C563 1.376 . S
C563 H550 0.930 . S
C563 C562 1.376 . S
C563 C564 1.388 . S
C564 H551 0.930 . S
C564 C563 1.388 . S
C564 C565 1.390 . S
C565 C564 1.390 . S
C565 C566 1.394 . S
C565 C571 1.465 . S
C566 C561 1.399 . S
C566 C565 1.394 . S
C566 C567 1.516 . S
C567 C566 1.516 . S
C567 C568 1.502 . S
C567 C569 1.561 . S
C567 C570 1.526 . S
C568 H552 0.959 . S
C568 H553 0.959 . S
C568 H554 0.961 . S
C568 C567 1.502 . S
C569 H555 0.960 . S
C569 H556 0.961 . S
C569 H557 0.959 . S
C569 C567 1.561 . S
C570 C567 1.526 . S
C570 C571 1.396 . S
C570 C575 1.390 . S
C571 C565 1.465 . S
C571 C570 1.396 . S
C571 C572 1.399 . S
C572 H558 0.929 . S
C572 C571 1.399 . S
C572 C573 1.385 . S
C573 H559 0.931 . S
C573 C572 1.385 . S
C573 C574 1.389 . S
C574 C573 1.389 . S
C574 C575 1.387 . S
C575 H560 0.930 . S
C575 C570 1.390 . S
C575 C574 1.387 . S
H576 C588 0.930 . S
H577 C590 0.930 . S
H578 C591 0.930 . S
H579 C595 0.959 . S
H580 C595 0.959 . S
H581 C595 0.961 . S
H582 C596 0.960 . S
H583 C596 0.961 . S
H584 C596 0.959 . S
H585 C599 0.929 . S
H586 C600 0.931 . S
H587 C602 0.930 . S
C588 H576 0.930 . S
C588 C589 1.399 . S
C588 C593 1.399 . S
C589 C588 1.399 . S
C589 C590 1.376 . S
C590 H577 0.930 . S
C590 C589 1.376 . S
C590 C591 1.388 . S
C591 H578 0.930 . S
C591 C590 1.388 . S
C591 C592 1.390 . S
C592 C591 1.390 . S
C592 C593 1.394 . S
C592 C598 1.465 . S
C593 C588 1.399 . S
C593 C592 1.394 . S
C593 C594 1.516 . S
C594 C593 1.516 . S
C594 C595 1.502 . S
C594 C596 1.561 . S
C594 C597 1.526 . S
C595 H579 0.959 . S
C595 H580 0.959 . S
C595 H581 0.961 . S
C595 C594 1.502 . S
C596 H582 0.960 . S
C596 H583 0.961 . S
C596 H584 0.959 . S
C596 C594 1.561 . S
C597 C594 1.526 . S
C597 C598 1.396 . S
C597 C602 1.390 . S
C598 C592 1.465 . S
C598 C597 1.396 . S
C598 C599 1.399 . S
C599 H585 0.929 . S
C599 C598 1.399 . S
C599 C600 1.385 . S
C600 H586 0.931 . S
C600 C599 1.385 . S
C600 C601 1.389 . S
C601 C600 1.389 . S
C601 C602 1.387 . S
C602 H587 0.930 . S
C602 C597 1.390 . S
C602 C601 1.387 . S
H603 C615 0.930 . S
H604 C617 0.930 . S
H605 C618 0.930 . S
H606 C622 0.959 . S
H607 C622 0.959 . S
H608 C622 0.961 . S
H609 C623 0.960 . S
H610 C623 0.961 . S
H611 C623 0.959 . S
H612 C626 0.929 . S
H613 C627 0.931 . S
H614 C629 0.930 . S
C615 H603 0.930 . S
C615 C616 1.399 . S
C615 C620 1.399 . S
C616 C615 1.399 . S
C616 C617 1.376 . S
C617 H604 0.930 . S
C617 C616 1.376 . S
C617 C618 1.388 . S
C618 H605 0.930 . S
C618 C617 1.388 . S
C618 C619 1.390 . S
C619 C618 1.390 . S
C619 C620 1.394 . S
C619 C625 1.465 . S
C620 C615 1.399 . S
C620 C619 1.394 . S
C620 C621 1.516 . S
C621 C620 1.516 . S
C621 C622 1.502 . S
C621 C623 1.561 . S
C621 C624 1.526 . S
C622 H606 0.959 . S
C622 H607 0.959 . S
C622 H608 0.961 . S
C622 C621 1.502 . S
C623 H609 0.960 . S
C623 H610 0.961 . S
C623 H611 0.959 . S
C623 C621 1.561 . S
C624 C621 1.526 . S
C624 C625 1.396 . S
C624 C629 1.390 . S
C625 C619 1.465 . S
C625 C624 1.396 . S
C625 C626 1.399 . S
C626 H612 0.929 . S
C626 C625 1.399 . S
C626 C627 1.385 . S
C627 H613 0.931 . S
C627 C626 1.385 . S
C627 C628 1.389 . S
C628 C627 1.389 . S
C628 C629 1.387 . S
C629 H614 0.930 . S
C629 C624 1.390 . S
C629 C628 1.387 . S
H630 C642 0.930 . S
H631 C644 0.930 . S
H632 C645 0.930 . S
H633 C649 0.959 . S
H634 C649 0.959 . S
H635 C649 0.961 . S
H636 C650 0.960 . S
H637 C650 0.961 . S
H638 C650 0.959 . S
H639 C653 0.929 . S
H640 C654 0.931 . S
H641 C656 0.930 . S
C642 H630 0.930 . S
C642 C643 1.399 . S
C642 C647 1.399 . S
C643 C642 1.399 . S
C643 C644 1.376 . S
C644 H631 0.930 . S
C644 C643 1.376 . S
C644 C645 1.388 . S
C645 H632 0.930 . S
C645 C644 1.388 . S
C645 C646 1.390 . S
C646 C645 1.390 . S
C646 C647 1.394 . S
C646 C652 1.465 . S
C647 C642 1.399 . S
C647 C646 1.394 . S
C647 C648 1.516 . S
C648 C647 1.516 . S
C648 C649 1.502 . S
C648 C650 1.561 . S
C648 C651 1.526 . S
C649 H633 0.959 . S
C649 H634 0.959 . S
C649 H635 0.961 . S
C649 C648 1.502 . S
C650 H636 0.960 . S
C650 H637 0.961 . S
C650 H638 0.959 . S
C650 C648 1.561 . S
C651 C648 1.526 . S
C651 C652 1.396 . S
C651 C656 1.390 . S
C652 C646 1.465 . S
C652 C651 1.396 . S
C652 C653 1.399 . S
C653 H639 0.929 . S
C653 C652 1.399 . S
C653 C654 1.385 . S
C654 H640 0.931 . S
C654 C653 1.385 . S
C654 C655 1.389 . S
C655 C654 1.389 . S
C655 C656 1.387 . S
C656 H641 0.930 . S
C656 C651 1.390 . S
C656 C655 1.387 . S
H657 C669 0.930 . S
H658 C671 0.930 . S
H659 C672 0.930 . S
H660 C676 0.959 . S
H661 C676 0.959 . S
H662 C676 0.961 . S
H663 C677 0.960 . S
H664 C677 0.961 . S
H665 C677 0.959 . S
H666 C680 0.929 . S
H667 C681 0.931 . S
H668 C683 0.930 . S
C669 H657 0.930 . S
C669 C670 1.399 . S
C669 C674 1.399 . S
C670 C669 1.399 . S
C670 C671 1.376 . S
C671 H658 0.930 . S
C671 C670 1.376 . S
C671 C672 1.388 . S
C672 H659 0.930 . S
C672 C671 1.388 . S
C672 C673 1.390 . S
C673 C672 1.390 . S
C673 C674 1.394 . S
C673 C679 1.465 . S
C674 C669 1.399 . S
C674 C673 1.394 . S
C674 C675 1.516 . S
C675 C674 1.516 . S
C675 C676 1.502 . S
C675 C677 1.561 . S
C675 C678 1.526 . S
C676 H660 0.959 . S
C676 H661 0.959 . S
C676 H662 0.961 . S
C676 C675 1.502 . S
C677 H663 0.960 . S
C677 H664 0.961 . S
C677 H665 0.959 . S
C677 C675 1.561 . S
C678 C675 1.526 . S
C678 C679 1.396 . S
C678 C683 1.390 . S
C679 C673 1.465 . S
C679 C678 1.396 . S
C679 C680 1.399 . S
C680 H666 0.929 . S
C680 C679 1.399 . S
C680 C681 1.385 . S
C681 H667 0.931 . S
C681 C680 1.385 . S
C681 C682 1.389 . S
C682 C681 1.389 . S
C682 C683 1.387 . S
C683 H668 0.930 . S
C683 C678 1.390 . S
C683 C682 1.387 . S
H684 C696 0.930 . S
H685 C698 0.930 . S
H686 C699 0.930 . S
H687 C703 0.959 . S
H688 C703 0.959 . S
H689 C703 0.961 . S
H690 C704 0.960 . S
H691 C704 0.961 . S
H692 C704 0.959 . S
H693 C707 0.929 . S
H694 C708 0.931 . S
H695 C710 0.930 . S
C696 H684 0.930 . S
C696 C697 1.399 . S
C696 C701 1.399 . S
C697 C696 1.399 . S
C697 C698 1.376 . S
C698 H685 0.930 . S
C698 C697 1.376 . S
C698 C699 1.388 . S
C699 H686 0.930 . S
C699 C698 1.388 . S
C699 C700 1.390 . S
C700 C699 1.390 . S
C700 C701 1.394 . S
C700 C706 1.465 . S
C701 C696 1.399 . S
C701 C700 1.394 . S
C701 C702 1.516 . S
C702 C701 1.516 . S
C702 C703 1.502 . S
C702 C704 1.561 . S
C702 C705 1.526 . S
C703 H687 0.959 . S
C703 H688 0.959 . S
C703 H689 0.961 . S
C703 C702 1.502 . S
C704 H690 0.960 . S
C704 H691 0.961 . S
C704 H692 0.959 . S
C704 C702 1.561 . S
C705 C702 1.526 . S
C705 C706 1.396 . S
C705 C710 1.390 . S
C706 C700 1.465 . S
C706 C705 1.396 . S
C706 C707 1.399 . S
C707 H693 0.929 . S
C707 C706 1.399 . S
C707 C708 1.385 . S
C708 H694 0.931 . S
C708 C707 1.385 . S
C708 C709 1.389 . S
C709 C708 1.389 . S
C709 C710 1.387 . S
C710 H695 0.930 . S
C710 C705 1.390 . S
C710 C709 1.387 . S
H711 C723 0.930 . S
H712 C725 0.930 . S
H713 C726 0.930 . S
H714 C730 0.959 . S
H715 C730 0.959 . S
H716 C730 0.961 . S
H717 C731 0.960 . S
H718 C731 0.961 . S
H719 C731 0.959 . S
H720 C734 0.929 . S
H721 C735 0.931 . S
H722 C737 0.930 . S
C723 H711 0.930 . S
C723 C724 1.399 . S
C723 C728 1.399 . S
C724 C723 1.399 . S
C724 C725 1.376 . S
C725 H712 0.930 . S
C725 C724 1.376 . S
C725 C726 1.388 . S
C726 H713 0.930 . S
C726 C725 1.388 . S
C726 C727 1.390 . S
C727 C726 1.390 . S
C727 C728 1.394 . S
C727 C733 1.465 . S
C728 C723 1.399 . S
C728 C727 1.394 . S
C728 C729 1.516 . S
C729 C728 1.516 . S
C729 C730 1.502 . S
C729 C731 1.561 . S
C729 C732 1.526 . S
C730 H714 0.959 . S
C730 H715 0.959 . S
C730 H716 0.961 . S
C730 C729 1.502 . S
C731 H717 0.960 . S
C731 H718 0.961 . S
C731 H719 0.959 . S
C731 C729 1.561 . S
C732 C729 1.526 . S
C732 C733 1.396 . S
C732 C737 1.390 . S
C733 C727 1.465 . S
C733 C732 1.396 . S
C733 C734 1.399 . S
C734 H720 0.929 . S
C734 C733 1.399 . S
C734 C735 1.385 . S
C735 H721 0.931 . S
C735 C734 1.385 . S
C735 C736 1.389 . S
C736 C735 1.389 . S
C736 C737 1.387 . S
C737 H722 0.930 . S
C737 C732 1.390 . S
C737 C736 1.387 . S
H738 C750 0.930 . S
H739 C752 0.930 . S
H740 C753 0.930 . S
H741 C757 0.959 . S
H742 C757 0.959 . S
H743 C757 0.961 . S
H744 C758 0.960 . S
H745 C758 0.961 . S
H746 C758 0.959 . S
H747 C761 0.929 . S
H748 C762 0.931 . S
H749 C764 0.930 . S
C750 H738 0.930 . S
C750 C751 1.399 . S
C750 C755 1.399 . S
C751 C750 1.399 . S
C751 C752 1.376 . S
C752 H739 0.930 . S
C752 C751 1.376 . S
C752 C753 1.388 . S
C753 H740 0.930 . S
C753 C752 1.388 . S
C753 C754 1.390 . S
C754 C753 1.390 . S
C754 C755 1.394 . S
C754 C760 1.465 . S
C755 C750 1.399 . S
C755 C754 1.394 . S
C755 C756 1.516 . S
C756 C755 1.516 . S
C756 C757 1.502 . S
C756 C758 1.561 . S
C756 C759 1.526 . S
C757 H741 0.959 . S
C757 H742 0.959 . S
C757 H743 0.961 . S
C757 C756 1.502 . S
C758 H744 0.960 . S
C758 H745 0.961 . S
C758 H746 0.959 . S
C758 C756 1.561 . S
C759 C756 1.526 . S
C759 C760 1.396 . S
C759 C764 1.390 . S
C760 C754 1.465 . S
C760 C759 1.396 . S
C760 C761 1.399 . S
C761 H747 0.929 . S
C761 C760 1.399 . S
C761 C762 1.385 . S
C762 H748 0.931 . S
C762 C761 1.385 . S
C762 C763 1.389 . S
C763 C762 1.389 . S
C763 C764 1.387 . S
C764 H749 0.930 . S
C764 C759 1.390 . S
C764 C763 1.387 . S
H765 C777 0.930 . S
H766 C779 0.930 . S
H767 C780 0.930 . S
H768 C784 0.959 . S
H769 C784 0.959 . S
H770 C784 0.961 . S
H771 C785 0.960 . S
H772 C785 0.961 . S
H773 C785 0.959 . S
H774 C788 0.929 . S
H775 C789 0.931 . S
H776 C791 0.930 . S
C777 H765 0.930 . S
C777 C778 1.399 . S
C777 C782 1.399 . S
C778 C777 1.399 . S
C778 C779 1.376 . S
C779 H766 0.930 . S
C779 C778 1.376 . S
C779 C780 1.388 . S
C780 H767 0.930 . S
C780 C779 1.388 . S
C780 C781 1.390 . S
C781 C780 1.390 . S
C781 C782 1.394 . S
C781 C787 1.465 . S
C782 C777 1.399 . S
C782 C781 1.394 . S
C782 C783 1.516 . S
C783 C782 1.516 . S
C783 C784 1.502 . S
C783 C785 1.561 . S
C783 C786 1.526 . S
C784 H768 0.959 . S
C784 H769 0.959 . S
C784 H770 0.961 . S
C784 C783 1.502 . S
C785 H771 0.960 . S
C785 H772 0.961 . S
C785 H773 0.959 . S
C785 C783 1.561 . S
C786 C783 1.526 . S
C786 C787 1.396 . S
C786 C791 1.390 . S
C787 C781 1.465 . S
C787 C786 1.396 . S
C787 C788 1.399 . S
C788 H774 0.929 . S
C788 C787 1.399 . S
C788 C789 1.385 . S
C789 H775 0.931 . S
C789 C788 1.385 . S
C789 C790 1.389 . S
C790 C789 1.389 . S
C790 C791 1.387 . S
C791 H776 0.930 . S
C791 C786 1.390 . S
C791 C790 1.387 . S
H792 C804 0.930 . S
H793 C806 0.930 . S
H794 C807 0.930 . S
H795 C811 0.959 . S
H796 C811 0.959 . S
H797 C811 0.961 . S
H798 C812 0.960 . S
H799 C812 0.961 . S
H800 C812 0.959 . S
H801 C815 0.929 . S
H802 C816 0.931 . S
H803 C818 0.930 . S
C804 H792 0.930 . S
C804 C805 1.399 . S
C804 C809 1.399 . S
C805 C804 1.399 . S
C805 C806 1.376 . S
C806 H793 0.930 . S
C806 C805 1.376 . S
C806 C807 1.388 . S
C807 H794 0.930 . S
C807 C806 1.388 . S
C807 C808 1.390 . S
C808 C807 1.390 . S
C808 C809 1.394 . S
C808 C814 1.465 . S
C809 C804 1.399 . S
C809 C808 1.394 . S
C809 C810 1.516 . S
C810 C809 1.516 . S
C810 C811 1.502 . S
C810 C812 1.561 . S
C810 C813 1.526 . S
C811 H795 0.959 . S
C811 H796 0.959 . S
C811 H797 0.961 . S
C811 C810 1.502 . S
C812 H798 0.960 . S
C812 H799 0.961 . S
C812 H800 0.959 . S
C812 C810 1.561 . S
C813 C810 1.526 . S
C813 C814 1.396 . S
C813 C818 1.390 . S
C814 C808 1.465 . S
C814 C813 1.396 . S
C814 C815 1.399 . S
C815 H801 0.929 . S
C815 C814 1.399 . S
C815 C816 1.385 . S
C816 H802 0.931 . S
C816 C815 1.385 . S
C816 C817 1.389 . S
C817 C816 1.389 . S
C817 C818 1.387 . S
C818 H803 0.930 . S
C818 C813 1.390 . S
C818 C817 1.387 . S
H819 C831 0.930 . S
H820 C833 0.930 . S
H821 C834 0.930 . S
H822 C838 0.959 . S
H823 C838 0.959 . S
H824 C838 0.961 . S
H825 C839 0.960 . S
H826 C839 0.961 . S
H827 C839 0.959 . S
H828 C842 0.929 . S
H829 C843 0.931 . S
H830 C845 0.930 . S
C831 H819 0.930 . S
C831 C832 1.399 . S
C831 C836 1.399 . S
C832 C831 1.399 . S
C832 C833 1.376 . S
C833 H820 0.930 . S
C833 C832 1.376 . S
C833 C834 1.388 . S
C834 H821 0.930 . S
C834 C833 1.388 . S
C834 C835 1.390 . S
C835 C834 1.390 . S
C835 C836 1.394 . S
C835 C841 1.465 . S
C836 C831 1.399 . S
C836 C835 1.394 . S
C836 C837 1.516 . S
C837 C836 1.516 . S
C837 C838 1.502 . S
C837 C839 1.561 . S
C837 C840 1.526 . S
C838 H822 0.959 . S
C838 H823 0.959 . S
C838 H824 0.961 . S
C838 C837 1.502 . S
C839 H825 0.960 . S
C839 H826 0.961 . S
C839 H827 0.959 . S
C839 C837 1.561 . S
C840 C837 1.526 . S
C840 C841 1.396 . S
C840 C845 1.390 . S
C841 C835 1.465 . S
C841 C840 1.396 . S
C841 C842 1.399 . S
C842 H828 0.929 . S
C842 C841 1.399 . S
C842 C843 1.385 . S
C843 H829 0.931 . S
C843 C842 1.385 . S
C843 C844 1.389 . S
C844 C843 1.389 . S
C844 C845 1.387 . S
C845 H830 0.930 . S
C845 C840 1.390 . S
C845 C844 1.387 . S
H846 C858 0.930 . S
H847 C860 0.930 . S
H848 C861 0.930 . S
H849 C865 0.959 . S
H850 C865 0.959 . S
H851 C865 0.961 . S
H852 C866 0.960 . S
H853 C866 0.961 . S
H854 C866 0.959 . S
H855 C869 0.929 . S
H856 C870 0.931 . S
H857 C872 0.930 . S
C858 H846 0.930 . S
C858 C859 1.399 . S
C858 C863 1.399 . S
C859 C858 1.399 . S
C859 C860 1.376 . S
C860 H847 0.930 . S
C860 C859 1.376 . S
C860 C861 1.388 . S
C861 H848 0.930 . S
C861 C860 1.388 . S
C861 C862 1.390 . S
C862 C861 1.390 . S
C862 C863 1.394 . S
C862 C868 1.465 . S
C863 C858 1.399 . S
C863 C862 1.394 . S
C863 C864 1.516 . S
C864 C863 1.516 . S
C864 C865 1.502 . S
C864 C866 1.561 . S
C864 C867 1.526 . S
C865 H849 0.959 . S
C865 H850 0.959 . S
C865 H851 0.961 . S
C865 C864 1.502 . S
C866 H852 0.960 . S
C866 H853 0.961 . S
C866 H854 0.959 . S
C866 C864 1.561 . S
C867 C864 1.526 . S
C867 C868 1.396 . S
C867 C872 1.390 . S
C868 C862 1.465 . S
C868 C867 1.396 . S
C868 C869 1.399 . S
C869 H855 0.929 . S
C869 C868 1.399 . S
C869 C870 1.385 . S
C870 H856 0.931 . S
C870 C869 1.385 . S
C870 C871 1.389 . S
C871 C870 1.389 . S
C871 C872 1.387 . S
C872 H857 0.930 . S
C872 C867 1.390 . S
C872 C871 1.387 . S
H873 C885 0.930 . S
H874 C887 0.930 . S
H875 C888 0.930 . S
H876 C892 0.959 . S
H877 C892 0.959 . S
H878 C892 0.961 . S
H879 C893 0.960 . S
H880 C893 0.961 . S
H881 C893 0.959 . S
H882 C896 0.929 . S
H883 C897 0.931 . S
H884 C899 0.930 . S
C885 H873 0.930 . S
C885 C886 1.399 . S
C885 C890 1.399 . S
C886 C885 1.399 . S
C886 C887 1.376 . S
C887 H874 0.930 . S
C887 C886 1.376 . S
C887 C888 1.388 . S
C888 H875 0.930 . S
C888 C887 1.388 . S
C888 C889 1.390 . S
C889 C888 1.390 . S
C889 C890 1.394 . S
C889 C895 1.465 . S
C890 C885 1.399 . S
C890 C889 1.394 . S
C890 C891 1.516 . S
C891 C890 1.516 . S
C891 C892 1.502 . S
C891 C893 1.561 . S
C891 C894 1.526 . S
C892 H876 0.959 . S
C892 H877 0.959 . S
C892 H878 0.961 . S
C892 C891 1.502 . S
C893 H879 0.960 . S
C893 H880 0.961 . S
C893 H881 0.959 . S
C893 C891 1.561 . S
C894 C891 1.526 . S
C894 C895 1.396 . S
C894 C899 1.390 . S
C895 C889 1.465 . S
C895 C894 1.396 . S
C895 C896 1.399 . S
C896 H882 0.929 . S
C896 C895 1.399 . S
C896 C897 1.385 . S
C897 H883 0.931 . S
C897 C896 1.385 . S
C897 C898 1.389 . S
C898 C897 1.389 . S
C898 C899 1.387 . S
C899 H884 0.930 . S
C899 C894 1.390 . S
C899 C898 1.387 . S
H900 C912 0.930 . S
H901 C914 0.930 . S
H902 C915 0.930 . S
H903 C919 0.959 . S
H904 C919 0.959 . S
H905 C919 0.961 . S
H906 C920 0.960 . S
H907 C920 0.961 . S
H908 C920 0.959 . S
H909 C923 0.929 . S
H910 C924 0.931 . S
H911 C926 0.930 . S
C912 H900 0.930 . S
C912 C913 1.399 . S
C912 C917 1.399 . S
C913 C912 1.399 . S
C913 C914 1.376 . S
C914 H901 0.930 . S
C914 C913 1.376 . S
C914 C915 1.388 . S
C915 H902 0.930 . S
C915 C914 1.388 . S
C915 C916 1.390 . S
C916 C915 1.390 . S
C916 C917 1.394 . S
C916 C922 1.465 . S
C917 C912 1.399 . S
C917 C916 1.394 . S
C917 C918 1.516 . S
C918 C917 1.516 . S
C918 C919 1.502 . S
C918 C920 1.561 . S
C918 C921 1.526 . S
C919 H903 0.959 . S
C919 H904 0.959 . S
C919 H905 0.961 . S
C919 C918 1.502 . S
C920 H906 0.960 . S
C920 H907 0.961 . S
C920 H908 0.959 . S
C920 C918 1.561 . S
C921 C918 1.526 . S
C921 C922 1.396 . S
C921 C926 1.390 . S
C922 C916 1.465 . S
C922 C921 1.396 . S
C922 C923 1.399 . S
C923 H909 0.929 . S
C923 C922 1.399 . S
C923 C924 1.385 . S
C924 H910 0.931 . S
C924 C923 1.385 . S
C924 C925 1.389 . S
C925 C924 1.389 . S
C925 C926 1.387 . S
C926 H911 0.930 . S
C926 C921 1.390 . S
C926 C925 1.387 . S
H927 C939 0.930 . S
H928 C941 0.930 . S
H929 C942 0.930 . S
H930 C946 0.959 . S
H931 C946 0.959 . S
H932 C946 0.961 . S
H933 C947 0.960 . S
H934 C947 0.961 . S
H935 C947 0.959 . S
H936 C950 0.929 . S
H937 C951 0.931 . S
H938 C953 0.930 . S
C939 H927 0.930 . S
C939 C940 1.399 . S
C939 C944 1.399 . S
C940 C939 1.399 . S
C940 C941 1.376 . S
C941 H928 0.930 . S
C941 C940 1.376 . S
C941 C942 1.388 . S
C942 H929 0.930 . S
C942 C941 1.388 . S
C942 C943 1.390 . S
C943 C942 1.390 . S
C943 C944 1.394 . S
C943 C949 1.465 . S
C944 C939 1.399 . S
C944 C943 1.394 . S
C944 C945 1.516 . S
C945 C944 1.516 . S
C945 C946 1.502 . S
C945 C947 1.561 . S
C945 C948 1.526 . S
C946 H930 0.959 . S
C946 H931 0.959 . S
C946 H932 0.961 . S
C946 C945 1.502 . S
C947 H933 0.960 . S
C947 H934 0.961 . S
C947 H935 0.959 . S
C947 C945 1.561 . S
C948 C945 1.526 . S
C948 C949 1.396 . S
C948 C953 1.390 . S
C949 C943 1.465 . S
C949 C948 1.396 . S
C949 C950 1.399 . S
C950 H936 0.929 . S
C950 C949 1.399 . S
C950 C951 1.385 . S
C951 H937 0.931 . S
C951 C950 1.385 . S
C951 C952 1.389 . S
C952 C951 1.389 . S
C952 C953 1.387 . S
C953 H938 0.930 . S
C953 C948 1.390 . S
C953 C952 1.387 . S
H954 C966 0.930 . S
H955 C968 0.930 . S
H956 C969 0.930 . S
H957 C973 0.959 . S
H958 C973 0.959 . S
H959 C973 0.961 . S
H960 C974 0.960 . S
H961 C974 0.961 . S
H962 C974 0.959 . S
H963 C977 0.929 . S
H964 C978 0.931 . S
H965 C980 0.930 . S
C966 H954 0.930 . S
C966 C967 1.399 . S
C966 C971 1.399 . S
C967 C966 1.399 . S
C967 C968 1.376 . S
C968 H955 0.930 . S
C968 C967 1.376 . S
C968 C969 1.388 . S
C969 H956 0.930 . S
C969 C968 1.388 . S
C969 C970 1.390 . S
C970 C969 1.390 . S
C970 C971 1.394 . S
C970 C976 1.465 . S
C971 C966 1.399 . S
C971 C970 1.394 . S
C971 C972 1.516 . S
C972 C971 1.516 . S
C972 C973 1.502 . S
C972 C974 1.561 . S
C972 C975 1.526 . S
C973 H957 0.959 . S
C973 H958 0.959 . S
C973 H959 0.961 . S
C973 C972 1.502 . S
C974 H960 0.960 . S
C974 H961 0.961 . S
C974 H962 0.959 . S
C974 C972 1.561 . S
C975 C972 1.526 . S
C975 C976 1.396 . S
C975 C980 1.390 . S
C976 C970 1.465 . S
C976 C975 1.396 . S
C976 C977 1.399 . S
C977 H963 0.929 . S
C977 C976 1.399 . S
C977 C978 1.385 . S
C978 H964 0.931 . S
C978 C977 1.385 . S
C978 C979 1.389 . S
C979 C978 1.389 . S
C979 C980 1.387 . S
C980 H965 0.930 . S
C980 C975 1.390 . S
C980 C979 1.387 . S
H981 C993 0.930 . S
H982 C995 0.930 . S
H983 C996 0.930 . S
H984 C1000 0.959 . S
H985 C1000 0.959 . S
H986 C1000 0.961 . S
H987 C1001 0.960 . S
H988 C1001 0.961 . S
H989 C1001 0.959 . S
H990 C1004 0.929 . S
H991 C1005 0.931 . S
H992 C1007 0.930 . S
C993 H981 0.930 . S
C993 C994 1.399 . S
C993 C998 1.399 . S
C994 C993 1.399 . S
C994 C995 1.376 . S
C995 H982 0.930 . S
C995 C994 1.376 . S
C995 C996 1.388 . S
C996 H983 0.930 . S
C996 C995 1.388 . S
C996 C997 1.390 . S
C997 C996 1.390 . S
C997 C998 1.394 . S
C997 C1003 1.465 . S
C998 C993 1.399 . S
C998 C997 1.394 . S
C998 C999 1.516 . S
C999 C998 1.516 . S
C999 C1000 1.502 . S
C999 C1001 1.561 . S
C999 C1002 1.526 . S
C1000 H984 0.959 . S
C1000 H985 0.959 . S
C1000 H986 0.961 . S
C1000 C999 1.502 . S
C1001 H987 0.960 . S
C1001 H988 0.961 . S
C1001 H989 0.959 . S
C1001 C999 1.561 . S
C1002 C999 1.526 . S
C1002 C1003 1.396 . S
C1002 C1007 1.390 . S
C1003 C997 1.465 . S
C1003 C1002 1.396 . S
C1003 C1004 1.399 . S
C1004 H990 0.929 . S
C1004 C1003 1.399 . S
C1004 C1005 1.385 . S
C1005 H991 0.931 . S
C1005 C1004 1.385 . S
C1005 C1006 1.389 . S
C1006 C1005 1.389 . S
C1006 C1007 1.387 . S
C1007 H992 0.930 . S
C1007 C1002 1.390 . S
C1007 C1006 1.387 . S
C373 C13 1.761 . S
C385 C106 1.694 . S
C400 C27 1.740 . S
C412 C145 1.728 . S
C439 C177 1.673 . S
C427 C29 1.762 . S
C466 C223 1.692 . S
C454 C54 1.747 . S
C493 C290 1.718 . S
C481 C69 1.752 . S
C520 C329 1.699 . S
C508 C83 1.760 . S
C535 C15 1.762 . S
C547 C191 1.694 . S
C562 C41 1.762 . S
C574 C237 1.694 . S
C601 C276 1.716 . S
C589 C42 1.737 . S
C628 C315 1.727 . S
C616 C57 1.737 . S
C643 C71 1.731 . S
C655 C92 1.731 . S
C682 C131 1.693 . S
C670 C1 1.748 . S
C709 C230 1.724 . S
C697 C12 1.752 . S
C724 C26 1.733 . S
C736 C283 1.723 . S
C763 C336 1.696 . S
C751 C28 1.755 . S
C778 C55 1.745 . S
C790 C99 1.695 . S
C805 C68 1.761 . S
C817 C152 1.669 . S
C832 C82 1.762 . S
C844 C184 1.701 . S
C859 C14 1.745 . S
C871 C322 1.713 . S
C898 C85 1.746 . S
C886 C40 1.732 . S
C913 C43 1.748 . S
C925 C138 1.729 . S
C940 C56 1.732 . S
C952 C198 1.727 . S
C967 C70 1.758 . S
C979 C244 1.672 . S
C994 C0 1.738 . S
C1006 C269 1.743 . S
