# Generated by pormake.
# Topology anh, (6,3)-cn, num edge types: 1
# Building blocks:
#     Node 0, Type 0, BuildingBlock: NUHQIS_clean_sbu_0, # of connection points: 6
#     Node 1, Type 0, BuildingBlock: NUHQIS_clean_sbu_0, # of connection points: 6
#     Node 2, Type 0, BuildingBlock: NUHQIS_clean_sbu_0, # of connection points: 6
#     Node 3, Type 1, BuildingBlock: PAMTOO_clean_linker_0, # of connection points: 3
#     Node 4, Type 1, BuildingBlock: PAMTOO_clean_linker_0, # of connection points: 3
#     Node 5, Type 1, BuildingBlock: PAMTOO_clean_linker_0, # of connection points: 3
#     Node 6, Type 1, BuildingBlock: PAMTOO_clean_linker_0, # of connection points: 3
#     Node 7, Type 1, BuildingBlock: PAMTOO_clean_linker_0, # of connection points: 3
#     Node 8, Type 1, BuildingBlock: PAMTOO_clean_linker_0, # of connection points: 3
#     Edge 9, Type (0, 1), BuildingBlock: ZUJKAS_clean_linker_0, # of connection points: 2
#     Edge 10, Type (0, 1), BuildingBlock: ZUJKAS_clean_linker_0, # of connection points: 2
#     Edge 11, Type (0, 1), BuildingBlock: ZUJKAS_clean_linker_0, # of connection points: 2
#     Edge 12, Type (0, 1), BuildingBlock: ZUJKAS_clean_linker_0, # of connection points: 2
#     Edge 13, Type (0, 1), BuildingBlock: ZUJKAS_clean_linker_0, # of connection points: 2
#     Edge 14, Type (0, 1), BuildingBlock: ZUJKAS_clean_linker_0, # of connection points: 2
#     Edge 15, Type (0, 1), BuildingBlock: ZUJKAS_clean_linker_0, # of connection points: 2
#     Edge 16, Type (0, 1), BuildingBlock: ZUJKAS_clean_linker_0, # of connection points: 2
#     Edge 17, Type (0, 1), BuildingBlock: ZUJKAS_clean_linker_0, # of connection points: 2
#     Edge 18, Type (0, 1), BuildingBlock: ZUJKAS_clean_linker_0, # of connection points: 2
#     Edge 19, Type (0, 1), BuildingBlock: ZUJKAS_clean_linker_0, # of connection points: 2
#     Edge 20, Type (0, 1), BuildingBlock: ZUJKAS_clean_linker_0, # of connection points: 2
#     Edge 21, Type (0, 1), BuildingBlock: ZUJKAS_clean_linker_0, # of connection points: 2
#     Edge 22, Type (0, 1), BuildingBlock: ZUJKAS_clean_linker_0, # of connection points: 2
#     Edge 23, Type (0, 1), BuildingBlock: ZUJKAS_clean_linker_0, # of connection points: 2
#     Edge 24, Type (0, 1), BuildingBlock: ZUJKAS_clean_linker_0, # of connection points: 2
#     Edge 25, Type (0, 1), BuildingBlock: ZUJKAS_clean_linker_0, # of connection points: 2
#     Edge 26, Type (0, 1), BuildingBlock: ZUJKAS_clean_linker_0, # of connection points: 2
# Relax obj value: 0.188
# Max RMSD: 0.140
# Mean RMSD: 0.115
data_MOF--net-anh--node1-NUHQIS_clean_sbu_0--node2-PAMTOO_clean_linker_0--edge1-ZUJKAS_clean_linker_0
_symmetry_space_group_name_H-M    P1
_symmetry_Int_Tables_number       1
_symmetry_cell_setting            triclinic
loop_
_symmetry_equiv_pos_as_xyz
'x, y, z'
_cell_length_a     39.583183
_cell_length_b     39.639436
_cell_length_c     65.401998
_cell_angle_alpha  86.127773
_cell_angle_beta   94.079229
_cell_angle_gamma 120.03117
loop_
_atom_site_label
_atom_site_type_symbol
_atom_site_fract_x
_atom_site_fract_y
_atom_site_fract_z
_atom_type_partial_charge
Tb0 Tb 0.1747 0.57994 0.15125 0.0
Eu1 Eu 0.12915 0.62943 0.14213 0.0
C2 C 0.14283 0.60293 0.18686 0.0
C3 C 1.07928 0.53353 0.14653 0.0
C4 C 0.238 0.53771 0.17347 0.0
C5 C 0.2538 0.50042 0.19953 0.0
C6 C 0.22677 0.50945 0.18961 0.0
C7 C 0.27749 0.55892 0.16852 0.0
C8 C 0.30458 0.54991 0.1785 0.0
C9 C 0.29255 0.51934 0.19343 0.0
C10 C 0.20738 0.53982 0.16011 0.0
O11 O 0.16081 0.57593 0.11822 0.0
O12 O 0.15345 0.62951 0.11209 0.0
O13 O 0.1924 0.67557 0.1501 0.0
O14 O 0.22426 0.64059 0.14897 0.0
C15 C 0.15878 0.60207 0.10551 0.0
O16 O 1.09072 0.645 0.12356 0.0
O17 O 0.11833 0.67455 0.15185 0.0
O18 O 0.11642 0.60323 0.17386 0.0
O19 O 0.17364 0.60345 0.18031 0.0
O20 O 0.11247 0.53354 0.15071 0.0
O21 O 1.07885 0.56627 0.14187 0.0
C22 C 0.2251 0.6742 0.15038 0.0
O23 O 0.17676 0.535 0.169 0.0
O24 O 0.21785 0.56624 0.1452 0.0
C25 C 1.05424 0.66078 0.14373 0.0
C26 C 0.98027 0.6446 0.15524 0.0
C27 C 1.00672 0.6815 0.14675 0.0
C28 C 1.04344 0.68948 0.14101 0.0
C29 C 1.02857 0.6244 0.15277 0.0
C30 C 0.99186 0.61632 0.15842 0.0
C31 C 0.09212 0.6685 0.13711 0.0
H32 H 0.24382 0.47691 0.21108 0.0
H33 H 0.19651 0.49249 0.1937 0.0
H34 H 0.28704 0.58077 0.1561 0.0
H35 H 0.33419 0.56473 0.17332 0.0
H36 H 0.99886 0.70405 0.14433 0.0
H37 H 1.06318 0.71785 0.13424 0.0
H38 H 1.03666 0.60199 0.15509 0.0
H39 H 0.97208 0.58742 0.16458 0.0
Tb40 Tb 0.70689 0.10164 0.48388 0.0
Eu41 Eu 0.61262 1.05564 0.47745 0.0
C42 C 0.65311 0.07292 0.52116 0.0
C43 C 0.66037 1.00727 0.4829 0.0
C44 C 0.8081 0.17686 0.49715 0.0
C45 C 0.87509 0.22876 0.50226 0.0
C46 C 0.84824 0.19002 0.4978 0.0
C47 C 0.7949 0.20208 0.50206 0.0
C48 C 0.82163 0.24084 0.50625 0.0
C49 C 0.86193 0.25474 0.50584 0.0
C50 C 0.78025 0.13827 0.48948 0.0
O51 O 0.6939 0.08605 0.45152 0.0
O52 O 0.63545 0.08432 0.44701 0.0
O53 O 0.6285 0.11847 0.48313 0.0
O54 O 0.69511 0.15104 0.48033 0.0
C55 C 0.66653 0.08731 0.4394 0.0
O56 O 0.55804 1.013 0.46214 0.0
O57 O 0.55719 1.04722 0.4865 0.0
O58 O 0.62712 1.04474 0.50989 0.0
O59 O 0.68292 0.10304 0.51267 0.0
O60 O 0.69159 1.03977 0.48902 0.0
O61 O 0.62862 1.00776 0.4755 0.0
C62 C 0.66222 0.15143 0.48228 0.0
O63 O 0.75646 0.113 0.50275 0.0
O64 O 0.76202 0.13868 0.47215 0.0
C65 C 0.50356 0.98376 0.48329 0.0
C66 C 0.43655 0.92165 0.50078 0.0
C67 C 0.43639 0.93187 0.47975 0.0
C68 C 0.46958 0.96265 0.47112 0.0
C69 C 0.50448 0.97285 0.50414 0.0
C70 C 0.47109 0.94211 0.51286 0.0
C71 C 0.53656 1.01855 0.47425 0.0
H72 H 0.90603 0.23898 0.50169 0.0
H73 H 0.85882 0.17082 0.49402 0.0
H74 H 0.76396 0.19221 0.5018 0.0
H75 H 0.81086 0.26036 0.50905 0.0
H76 H 0.41006 0.91717 0.47009 0.0
H77 H 0.46833 0.97077 0.45504 0.0
H78 H 0.53061 0.98873 0.5138 0.0
H79 H 0.47209 0.93474 0.52906 0.0
Tb80 Tb 0.70693 0.63689 0.81479 0.0
Eu81 Eu 0.65894 0.54271 0.81513 0.0
C82 C 0.68246 0.58721 0.85534 0.0
C83 C 0.75454 0.5893 0.81744 0.0
C84 C 0.73874 0.74039 0.82476 0.0
C85 C 0.76309 0.79875 0.8443 0.0
C86 C 0.76748 0.76842 0.83768 0.0
C87 C 0.70492 0.74237 0.81905 0.0
C88 C 0.70071 0.77286 0.82545 0.0
C89 C 0.72997 0.80176 0.83794 0.0
C90 C 0.74504 0.71004 0.81705 0.0
O91 O 0.70904 0.6221 0.78342 0.0
O92 O 0.65436 0.56171 0.78245 0.0
O93 O 0.61311 0.56045 0.8199 0.0
O94 O 0.64597 0.62556 0.81054 0.0
C95 C 0.68157 0.59274 0.77306 0.0
O96 O 0.6464 0.48554 0.80548 0.0
O97 O 0.61015 0.48995 0.82736 0.0
O98 O 0.68667 0.56125 0.84638 0.0
O99 O 0.68005 0.6148 0.84432 0.0
O100 O 0.75347 0.6213 0.82082 0.0
O101 O 0.72212 0.55675 0.81278 0.0
C102 C 0.61326 0.59358 0.81563 0.0
O103 O 0.74785 0.68619 0.83087 0.0
O104 O 0.72391 0.69193 0.80091 0.0
C105 C 0.61646 0.43343 0.8304 0.0
C106 C 0.60048 0.36296 0.85149 0.0
C107 C 0.61145 0.36986 0.83097 0.0
C108 C 0.6192 0.40468 0.82052 0.0
C109 C 0.60782 0.42762 0.8513 0.0
C110 C 0.59976 0.3926 0.86173 0.0
C111 C 0.6181 0.46679 0.81812 0.0
H112 H 0.78592 0.82014 0.85412 0.0
H113 H 0.79365 0.76717 0.8424 0.0
H114 H 0.68211 0.72093 0.80922 0.0
H115 H 0.67513 0.77449 0.81989 0.0
H116 H 0.61163 0.34737 0.82252 0.0
H117 H 0.6255 0.40834 0.80441 0.0
H118 H 0.60563 0.44936 0.85939 0.0
H119 H 0.59158 0.38812 0.87756 0.0
H120 H 0.73236 0.17699 0.21892 0.0
H121 H 0.62986 0.06494 0.21243 0.0
H122 H 0.68885 0.13132 0.15852 0.0
H123 H 0.58803 0.07254 0.15409 0.0
C124 C 0.5884 1.05634 0.16857 0.0
O125 O 0.62679 0.06404 0.17286 0.0
H126 H 0.57946 0.06831 0.1807 0.0
C127 C 0.71199 0.15411 0.20895 0.0
C128 C 0.7166 0.15894 0.18752 0.0
C129 C 0.68144 0.1205 0.21807 0.0
C130 C 0.65313 0.09127 0.20552 0.0
C131 C 0.65459 0.09493 0.18409 0.0
C132 C 0.68665 0.12899 0.17501 0.0
H133 H 0.67327 0.65917 0.54875 0.0
H134 H 0.67236 0.55031 0.54695 0.0
H135 H 0.6667 0.61061 0.49058 0.0
H136 H 0.61999 0.51089 0.49239 0.0
C137 C 0.6396 0.50981 0.50514 0.0
O138 O 0.67119 0.54777 0.5074 0.0
H139 H 0.62255 0.50021 0.51926 0.0
C140 C 0.67156 0.63601 0.54004 0.0
C141 C 0.6695 0.63932 0.51849 0.0
C142 C 0.67198 0.60401 0.55056 0.0
C143 C 0.67165 0.57493 0.53912 0.0
C144 C 0.66944 0.57636 0.51756 0.0
C145 C 0.66783 0.60869 0.50718 0.0
H146 H 0.11355 0.59758 0.88335 0.0
H147 H 0.21773 0.58945 0.88197 0.0
H148 H 0.15631 0.59283 0.82535 0.0
H149 H 0.26789 0.63751 0.85335 0.0
C150 C 0.25704 0.61989 0.83937 0.0
O151 O 0.21924 0.58851 0.84234 0.0
H152 H 0.25497 0.63904 0.82671 0.0
C153 C 0.13516 0.5963 0.87463 0.0
C154 C 0.13044 0.59565 0.85311 0.0
C155 C 0.16625 0.5941 0.88521 0.0
C156 C 0.19364 0.59109 0.87397 0.0
C157 C 0.19126 0.59142 0.85241 0.0
C158 C 0.15902 0.59324 0.84192 0.0
H159 H 1.08309 0.59615 0.40649 0.0
H160 H 0.11848 0.71653 0.39254 0.0
H161 H 0.1119 0.67604 0.45505 0.0
H162 H 1.07125 0.71911 0.4414 0.0
C163 C 0.10083 0.74499 0.43932 0.0
O164 O 0.12556 0.73536 0.43062 0.0
H165 H 0.09717 0.76653 0.42904 0.0
C166 C 0.09232 0.62492 0.41172 0.0
C167 C 0.09478 0.6313 0.43289 0.0
C168 C 0.1022 0.6557 0.39705 0.0
C169 C 0.11185 0.69262 0.40358 0.0
C170 C 0.11445 0.69934 0.42444 0.0
C171 C 0.10764 0.66936 0.43899 0.0
H172 H 0.61168 1.02871 0.73789 0.0
H173 H 0.51936 1.05685 0.73262 0.0
H174 H 0.56285 1.0393 0.792 0.0
H175 H 0.48396 1.00478 0.78772 0.0
C176 C 0.48254 1.03167 0.78326 0.0
O177 O 0.51451 1.05822 0.77233 0.0
H178 H 0.45561 1.02326 0.77344 0.0
C179 C 0.59066 1.03365 0.74497 0.0
C180 C 0.58985 1.03222 0.76642 0.0
C181 C 0.56548 1.04253 0.73257 0.0
C182 C 0.53897 1.04984 0.7419 0.0
C183 C 0.53832 1.04895 0.76333 0.0
C184 C 0.56402 1.04061 0.77548 0.0
H185 H 0.63261 0.50797 0.07398 0.0
H186 H 0.50982 0.43244 0.05983 0.0
H187 H 0.55196 0.45489 0.12228 0.0
H188 H 0.50363 0.37322 0.11037 0.0
C189 C 0.47907 0.37938 0.10773 0.0
O190 O 0.49091 0.41535 0.09796 0.0
H191 H 0.4563 0.35621 0.09794 0.0
C192 C 0.60293 0.48992 0.07881 0.0
C193 C 0.59607 0.48393 0.09987 0.0
C194 C 0.57211 0.47264 0.06399 0.0
C195 C 0.53438 0.44628 0.0707 0.0
C196 C 0.52749 0.43929 0.09168 0.0
C197 C 0.55798 0.45908 0.10615 0.0
H198 H 0.27242 0.44327 0.19372 0.0
H199 H 0.31594 0.4169 0.19464 0.0
H200 H 0.4143 0.53052 0.20752 0.0
H201 H 0.37035 0.5576 0.20569 0.0
H202 H 0.42688 0.50732 0.17582 0.0
H203 H 0.37731 0.3814 0.22955 0.0
H204 H 0.33506 0.37511 0.21463 0.0
H205 H 0.36113 0.41644 0.23092 0.0
C206 C 0.30308 0.46242 0.19761 0.0
C207 C 0.31802 0.50256 0.19954 0.0
C208 C 0.32809 0.44714 0.19833 0.0
C209 C 0.36857 0.47147 0.20143 0.0
C210 C 0.38318 0.51107 0.20517 0.0
H211 H 0.51775 0.39967 0.14532 0.0
H212 H 0.49699 0.41968 0.17453 0.0
C213 C 0.35813 0.52657 0.20408 0.0
C214 C 0.39514 0.45732 0.19613 0.0
H215 H 0.39943 0.37334 0.19596 0.0
C216 C 0.42203 0.47869 0.18092 0.0
C217 C 0.38933 0.42005 0.20275 0.0
C218 C 0.3644 0.3973 0.22055 0.0
C219 C 0.43969 0.46215 0.17063 0.0
C220 C 0.42992 0.42317 0.17552 0.0
C221 C 0.40621 0.40304 0.19203 0.0
C222 C 0.43911 0.40183 0.16134 0.0
C223 C 0.46602 0.48518 0.15329 0.0
C224 C 0.41284 0.38396 0.14475 0.0
C225 C 0.42476 0.37315 0.12801 0.0
C226 C 0.46296 0.37961 0.12778 0.0
C227 C 0.48809 0.39431 0.14522 0.0
C228 C 0.47628 0.40555 0.16191 0.0
H229 H 0.47283 0.51603 0.15234 0.0
H230 H 0.49384 0.48465 0.15534 0.0
H231 H 0.45172 0.47161 0.13851 0.0
H232 H 0.38418 0.38133 0.14402 0.0
H233 H 0.40513 0.36243 0.11463 0.0
H234 H 0.92849 0.2932 0.5303 0.0
H235 H 0.97589 0.36356 0.52914 0.0
H236 H 0.9064 0.38013 0.47985 0.0
H237 H 0.8586 0.31098 0.48177 0.0
H238 H 1.02154 0.40795 0.50142 0.0
H239 H 0.92612 0.46729 0.5133 0.0
H240 H 0.91018 0.41625 0.51812 0.0
H241 H 0.90394 0.43429 0.49282 0.0
C242 C 0.9232 0.31226 0.51957 0.0
C243 C 0.8897 0.29703 0.50638 0.0
C244 C 0.95019 0.35231 0.51888 0.0
C245 C 0.94419 0.37745 0.50481 0.0
C246 C 0.91091 0.36184 0.49148 0.0
H247 H 0.09704 0.5629 0.43082 0.0
H248 H 1.06634 0.50538 0.45313 0.0
C249 C 0.8837 0.32221 0.49246 0.0
C250 C 0.97384 0.4194 0.50252 0.0
H251 H 0.97976 0.50679 0.49002 0.0
C252 C 1.01271 0.42988 0.49947 0.0
C253 C 0.96313 0.44861 0.50086 0.0
C254 C 0.92364 0.44096 0.50674 0.0
C255 C 1.03995 0.46783 0.49277 0.0
C256 C 1.02736 0.49531 0.48797 0.0
C257 C 0.98957 0.48577 0.49304 0.0
C258 C 1.05076 0.53216 0.4758 0.0
C259 C 1.08164 0.4776 0.49074 0.0
C260 C 1.05167 0.56662 0.48058 0.0
C261 C 1.06673 0.59897 0.46696 0.0
C262 C 1.08254 0.59825 0.44844 0.0
C263 C 1.0841 0.56459 0.44446 0.0
C264 C 1.06753 0.53171 0.45767 0.0
H265 H 1.09027 0.46253 0.50318 0.0
H266 H 1.08423 0.46699 0.47598 0.0
H267 H 0.10234 0.50944 0.49136 0.0
H268 H 1.039 0.56796 0.49444 0.0
H269 H 1.06417 0.62374 0.47069 0.0
H270 H 0.78903 0.87792 0.83972 0.0
H271 H 0.7822 0.9356 0.84002 0.0
H272 H 0.65759 0.86208 0.84492 0.0
H273 H 0.66461 0.80459 0.8464 0.0
H274 H 0.74927 0.95161 0.80993 0.0
H275 H 0.67086 0.94941 0.87609 0.0
H276 H 0.69368 0.91975 0.87599 0.0
H277 H 0.64419 0.90183 0.86585 0.0
C278 C 0.76039 0.87398 0.84187 0.0
C279 C 0.72721 0.83648 0.84261 0.0
C280 C 0.75652 0.90712 0.84193 0.0
C281 C 0.71941 0.90343 0.84249 0.0
C282 C 0.68671 0.86605 0.84491 0.0
H283 H 0.60391 0.97348 0.75994 0.0
H284 H 0.64443 0.95329 0.78093 0.0
C285 C 0.69065 0.83298 0.84528 0.0
C286 C 0.7135 0.93685 0.83617 0.0
H287 H 0.65128 0.97101 0.84259 0.0
C288 C 0.72891 0.95681 0.81754 0.0
C289 C 0.68774 0.94475 0.84614 0.0
C290 C 0.67365 0.92802 0.86725 0.0
C291 C 0.71568 0.98059 0.80751 0.0
C292 C 0.68556 0.98361 0.81604 0.0
C293 C 0.67359 0.96767 0.83578 0.0
C294 C 0.66222 0.99751 0.80338 0.0
C295 C 0.7324 1.00035 0.78722 0.0
C296 C 0.65788 1.02838 0.80939 0.0
C297 C 0.63456 1.04003 0.79735 0.0
C298 C 0.61512 1.02074 0.77924 0.0
C299 C 0.61924 0.98953 0.77351 0.0
C300 C 0.64242 0.97798 0.78549 0.0
H301 H 0.76328 1.00749 0.78662 0.0
H302 H 0.7155 0.98026 0.77468 0.0
H303 H 0.73097 1.02756 0.7844 0.0
H304 H 0.67262 1.04349 0.82328 0.0
H305 H 0.63198 0.06426 0.8021 0.0
H306 H 0.93547 0.60075 0.18745 0.0
H307 H 0.86527 0.57506 0.19038 0.0
H308 H 0.86322 0.63937 0.13491 0.0
H309 H 0.93279 0.66447 0.13159 0.0
H310 H 0.81425 0.63607 0.16876 0.0
H311 H 0.79241 0.49242 0.14709 0.0
H312 H 0.82462 0.51605 0.16876 0.0
H313 H 0.83812 0.53694 0.14342 0.0
C314 C 0.92012 0.60973 0.176 0.0
C315 C 0.93964 0.63428 0.15914 0.0
C316 C 0.88014 0.59523 0.17778 0.0
C317 C 0.8592 0.60514 0.16276 0.0
C318 C 0.87904 0.6316 0.14671 0.0
H319 H 0.65654 0.5589 0.09822 0.0
H320 H 0.71592 0.58736 0.12001 0.0
C321 C 0.91887 0.646 0.14487 0.0
C322 C 0.81611 0.58462 0.16201 0.0
H323 H 0.73782 0.50036 0.14533 0.0
C324 C 0.79725 0.60609 0.16411 0.0
C325 C 0.79411 0.54542 0.15617 0.0
C326 C 0.81312 0.52118 0.15361 0.0
C327 C 0.75715 0.59002 0.15928 0.0
C328 C 0.73585 0.552 0.15162 0.0
C329 C 0.75417 0.52956 0.15113 0.0
C330 C 0.69695 0.53712 0.141 0.0
C331 C 0.73835 0.61439 0.1618 0.0
C332 C 0.66639 0.49927 0.14544 0.0
C333 C 0.63265 0.4825 0.13263 0.0
C334 C 0.62905 0.50328 0.11511 0.0
C335 C 0.65873 0.54192 0.1114 0.0
C336 C 0.69244 0.55853 0.12411 0.0
H337 H 0.75232 0.63375 0.17498 0.0
H338 H 0.74251 0.63334 0.14782 0.0
H339 H 0.70657 0.596 0.1642 0.0
H340 H 0.66942 0.48209 0.15828 0.0
H341 H 0.61036 0.4526 0.13584 0.0
H342 H 0.40662 0.92509 0.53661 0.0
H343 H 0.33948 0.88333 0.54726 0.0
H344 H 0.31561 0.81156 0.49538 0.0
H345 H 0.38264 0.85154 0.48554 0.0
H346 H 0.28234 0.88132 0.52699 0.0
H347 H 0.24518 0.72926 0.53312 0.0
H348 H 0.29554 0.76788 0.53479 0.0
H349 H 0.27209 0.74779 0.51033 0.0
C350 C 0.38745 0.89931 0.52807 0.0
C351 C 0.39964 0.89187 0.51004 0.0
C352 C 0.349 0.87554 0.53413 0.0
C353 C 0.32226 0.84398 0.52227 0.0
C354 C 0.33558 0.83489 0.50523 0.0
H355 H 0.15908 0.81868 0.44593 0.0
H356 H 0.20276 0.84135 0.47609 0.0
C357 C 0.3739 0.85831 0.49932 0.0
C358 C 0.27949 0.82582 0.52453 0.0
H359 H 0.19774 0.74258 0.5101 0.0
C360 C 0.26355 0.85058 0.52416 0.0
C361 C 0.25405 0.78548 0.52196 0.0
C362 C 0.2678 0.75621 0.52536 0.0
C363 C 0.22457 0.83731 0.51761 0.0
C364 C 0.20176 0.79899 0.51055 0.0
C365 C 0.21556 0.77259 0.51458 0.0
C366 C 0.16943 0.78883 0.49485 0.0
C367 C 0.2093 0.86543 0.51681 0.0
C368 C 0.13564 0.75184 0.49516 0.0
C369 C 0.11092 0.73861 0.4776 0.0
C370 C 0.11946 0.76233 0.45959 0.0
C371 C 0.15145 0.80028 0.4598 0.0
C372 C 0.17629 0.81333 0.47719 0.0
H373 H 0.21929 0.88279 0.53085 0.0
H374 H 0.2214 0.8863 0.50354 0.0
H375 H 0.1769 0.8502 0.51543 0.0
H376 H 0.12985 0.73223 0.50847 0.0
H377 H 1.08668 0.70895 0.47766 0.0
H378 H 0.6304 0.31418 0.85058 0.0
H379 H 0.59415 0.24347 0.85605 0.0
H380 H 0.49861 0.25062 0.87907 0.0
H381 H 0.53427 0.32139 0.87308 0.0
H382 H 0.54773 0.18216 0.88714 0.0
H383 H 0.45948 0.20216 0.82191 0.0
H384 H 0.5058 0.24225 0.8303 0.0
H385 H 0.46411 0.22427 0.84581 0.0
C386 C 0.60216 0.30082 0.85737 0.0
C387 C 0.58473 0.32313 0.86088 0.0
C388 C 0.58162 0.26046 0.86069 0.0
C389 C 0.54342 0.24187 0.86756 0.0
C390 C 0.52792 0.26449 0.87355 0.0
H391 H 0.42021 1.03136 0.7998 0.0
H392 H 0.42221 0.06963 0.82832 0.0
C393 C 0.54845 0.30496 0.87018 0.0
C394 C 0.51797 0.19992 0.86383 0.0
H395 H 0.45755 0.14281 0.82564 0.0
C396 C 0.52699 0.17302 0.8741 0.0
C397 C 0.49033 0.18787 0.84707 0.0
C398 C 0.47924 0.21548 0.83552 0.0
C399 C 0.51191 0.13542 0.86678 0.0
C400 C 0.4885 0.12527 0.84835 0.0
C401 C 0.47584 0.15059 0.83962 0.0
C402 C 0.4842 0.09386 0.83539 0.0
C403 C 0.5229 0.10782 0.8783 0.0
C404 C 0.51793 0.0936 0.8303 0.0
C405 C 0.51668 0.07161 0.81426 0.0
C406 C 0.48195 1.05026 0.80249 0.0
C407 C 0.44753 1.0482 0.8084 0.0
C408 C 0.44863 0.06985 0.82475 0.0
H409 H 0.52281 0.1104 0.8951 0.0
H410 H 0.50267 0.07704 0.87432 0.0
H411 H 0.55305 0.11584 0.87468 0.0
H412 H 0.54603 0.11266 0.83766 0.0
H413 H 0.5436 0.07351 0.81025 0.0
H414 H 0.71936 0.99309 0.49872 0.0
H415 H 0.72001 0.93145 0.50225 0.0
H416 H 0.6029 0.87115 0.47574 0.0
H417 H 0.60228 0.93282 0.47193 0.0
H418 H 0.6789 0.86475 0.52371 0.0
H419 H 0.65022 0.82608 0.44219 0.0
H420 H 0.6621 0.87357 0.45023 0.0
H421 H 0.61318 0.83302 0.45217 0.0
C422 C 0.69369 0.96688 0.49346 0.0
C423 C 0.66085 0.9688 0.48486 0.0
C424 C 0.69408 0.9312 0.49555 0.0
C425 C 0.66182 0.89575 0.48897 0.0
C426 C 0.62885 0.89757 0.48052 0.0
H427 H 0.61196 0.64822 0.49557 0.0
H428 H 0.60966 0.70896 0.48806 0.0
C429 C 0.62839 0.93325 0.47846 0.0
C430 C 0.66246 0.85725 0.49159 0.0
H431 H 0.64836 0.7774 0.46611 0.0
C432 C 0.67239 0.84595 0.51099 0.0
C433 C 0.65377 0.83161 0.47528 0.0
C434 C 0.64458 0.84175 0.45375 0.0
C435 C 0.67327 0.81055 0.51455 0.0
C436 C 0.66508 0.78512 0.4982 0.0
C437 C 0.65481 0.79621 0.47882 0.0
C438 C 0.66751 0.74757 0.50097 0.0
C439 C 0.68187 0.8003 0.53619 0.0
C440 C 0.70122 0.74795 0.50991 0.0
C441 C 0.70257 0.71315 0.5141 0.0
C442 C 0.67061 0.67623 0.50918 0.0
C443 C 0.63755 0.67583 0.49923 0.0
C444 C 0.63612 0.71084 0.49511 0.0
H445 H 0.67478 0.81506 0.54763 0.0
H446 H 0.6651 0.76837 0.53952 0.0
H447 H 0.71349 0.81016 0.53825 0.0
H448 H 0.72658 0.77532 0.51411 0.0
H449 H 0.72844 0.715 0.52197 0.0
H450 H 0.77118 0.5308 0.81003 0.0
H451 H 0.83392 0.53188 0.81401 0.0
H452 H 0.89019 0.65026 0.83339 0.0
H453 H 0.82772 0.64931 0.82958 0.0
H454 H 0.90544 0.57591 0.79625 0.0
H455 H 0.92807 0.60253 0.87931 0.0
H456 H 0.88194 0.58876 0.86578 0.0
H457 H 0.92116 0.63852 0.86448 0.0
C458 C 0.79679 0.55716 0.8152 0.0
C459 C 0.79355 0.58989 0.81956 0.0
C460 C 0.83304 0.55776 0.81744 0.0
C461 C 0.86757 0.59092 0.8244 0.0
C462 C 0.86445 0.62379 0.82848 0.0
H463 H 0.11196 0.65299 0.85665 0.0
H464 H 1.04989 0.65134 0.8484 0.0
C465 C 0.82832 0.62329 0.82613 0.0
C466 C 0.90653 0.59126 0.82729 0.0
H467 H 0.98173 0.60796 0.86248 0.0
C468 C 0.92192 0.58275 0.81081 0.0
C469 C 0.92888 0.60013 0.84618 0.0
C470 C 0.91409 0.60764 0.86502 0.0
C471 C 0.95867 0.58402 0.81246 0.0
C472 C 0.98115 0.59308 0.83136 0.0
C473 C 0.96543 0.60118 0.84787 0.0
C474 C 1.02098 0.59511 0.83445 0.0
C475 C 0.97358 0.57701 0.79353 0.0
C476 C 1.02723 0.56461 0.82916 0.0
C477 C 1.0636 0.56594 0.83359 0.0
C478 C 0.09507 0.59765 0.84367 0.0
C479 C 1.089 0.62837 0.84853 0.0
C480 C 1.05296 0.62719 0.844 0.0
H481 H 0.95995 0.58284 0.77931 0.0
H482 H 1.00578 0.59563 0.79291 0.0
H483 H 0.96605 0.54601 0.79371 0.0
H484 H 1.00345 0.53876 0.82237 0.0
H485 H 1.06633 0.54109 0.83016 0.0
H486 H 0.23954 0.75025 0.15092 0.0
H487 H 0.30197 0.81113 0.15393 0.0
H488 H 0.36292 0.74619 0.15831 0.0
H489 H 0.30053 0.68524 0.15472 0.0
H490 H 0.35761 0.84283 0.18187 0.0
H491 H 0.42799 0.82526 0.11661 0.0
H492 H 0.37699 0.79319 0.12124 0.0
H493 H 0.41376 0.7858 0.13528 0.0
C494 C 0.26614 0.74867 0.15239 0.0
C495 C 0.26421 0.71206 0.15237 0.0
C496 C 0.30226 0.78393 0.15418 0.0
C497 C 0.33828 0.7844 0.15599 0.0
C498 C 0.33636 0.74774 0.15631 0.0
H499 H 0.55614 0.99787 0.19926 0.0
H500 H 0.49828 0.93241 0.19692 0.0
C501 C 0.3002 0.71242 0.15442 0.0
C502 C 0.37716 0.82288 0.15794 0.0
H503 H 0.46882 0.87732 0.13845 0.0
C504 C 0.38178 0.8501 0.1723 0.0
C505 C 0.40938 0.83378 0.14542 0.0
C506 C 0.40676 0.8082 0.12863 0.0
C507 C 0.41673 0.88666 0.17461 0.0
C508 C 0.44941 0.897 0.16257 0.0
C509 C 0.44466 0.86998 0.14804 0.0
C510 C 0.48771 0.93612 0.1641 0.0
C511 C 0.41753 0.91446 0.18954 0.0
C512 C 0.50371 0.96026 0.14646 0.0
C513 C 0.53752 0.99762 0.14778 0.0
C514 C 0.55713 1.01251 0.16678 0.0
C515 C 0.54235 0.98767 0.18432 0.0
C516 C 0.50851 0.95019 0.183 0.0
H517 H 0.38759 0.90769 0.19287 0.0
H518 H 0.43204 0.91184 0.20423 0.0
H519 H 0.43392 0.9451 0.18357 0.0
H520 H 0.48916 0.95084 0.13158 0.0
H521 H 0.54739 1.01566 0.13389 0.0
H522 H 0.72542 0.22582 0.48952 0.0
H523 H 0.72529 0.28683 0.49386 0.0
H524 H 0.60064 0.22712 0.48217 0.0
H525 H 0.60047 0.16602 0.47888 0.0
H526 H 0.71108 0.33548 0.47279 0.0
H527 H 0.59964 0.27746 0.53106 0.0
H528 H 0.61986 0.24921 0.52265 0.0
H529 H 0.58003 0.25067 0.50814 0.0
C530 C 0.69783 0.22545 0.488 0.0
C531 C 0.66288 0.19008 0.48405 0.0
C532 C 0.69777 0.2608 0.49048 0.0
C533 C 0.66279 0.26252 0.48904 0.0
C534 C 0.62811 0.22739 0.48435 0.0
H535 H 0.59293 0.44138 0.48604 0.0
H536 H 0.60106 0.3848 0.48265 0.0
C537 C 0.62808 0.19202 0.48219 0.0
C538 C 0.66256 0.30064 0.49206 0.0
H539 H 0.61369 0.3388 0.51494 0.0
C540 C 0.68992 0.33595 0.48224 0.0
C541 C 0.6355 0.30273 0.50451 0.0
C542 C 0.60744 0.2681 0.51736 0.0
C543 C 0.69003 0.37175 0.48387 0.0
C544 C 0.66205 0.3733 0.49567 0.0
C545 C 0.63512 0.33829 0.50571 0.0
C546 C 0.65891 0.41009 0.4971 0.0
C547 C 0.7195 0.40766 0.47238 0.0
C548 C 0.68855 0.44439 0.50644 0.0
C549 C 0.68378 0.47734 0.50854 0.0
C550 C 0.64952 0.47754 0.50094 0.0
C551 C 0.62024 0.44324 0.49158 0.0
C552 C 0.62474 0.41039 0.48975 0.0
H553 H 0.73489 0.40072 0.46125 0.0
H554 H 0.70508 0.4227 0.46401 0.0
H555 H 0.74158 0.42821 0.48348 0.0
H556 H 0.71506 0.44532 0.5127 0.0
H557 H 0.70658 0.50233 0.51645 0.0
H558 H 0.59573 0.65206 0.80299 0.0
H559 H 0.53477 0.65323 0.80646 0.0
H560 H 0.48372 0.53937 0.83635 0.0
H561 H 0.5441 0.53778 0.83272 0.0
H562 H 0.45488 0.59986 0.79169 0.0
H563 H 0.4628 0.60269 0.87657 0.0
H564 H 0.50475 0.61485 0.86198 0.0
H565 H 0.46802 0.56477 0.86618 0.0
C566 C 0.57161 0.62716 0.8103 0.0
C567 C 0.57556 0.59478 0.8175 0.0
C568 C 0.53643 0.62785 0.81229 0.0
C569 C 0.50398 0.5966 0.82194 0.0
C570 C 0.50793 0.5643 0.82912 0.0
H571 H 0.27338 0.56223 0.85723 0.0
H572 H 0.33045 0.55448 0.85246 0.0
C573 C 0.5428 0.56334 0.82688 0.0
C574 C 0.46612 0.5974 0.82421 0.0
H575 H 0.40505 0.59593 0.85974 0.0
C576 C 0.44422 0.59916 0.80662 0.0
C577 C 0.45103 0.59589 0.84358 0.0
C578 C 0.47287 0.59474 0.86321 0.0
C579 C 0.40827 0.5989 0.80778 0.0
C580 C 0.39355 0.59844 0.82717 0.0
C581 C 0.41543 0.59637 0.84478 0.0
C582 C 0.35664 0.60131 0.82947 0.0
C583 C 0.38581 0.59762 0.78795 0.0
C584 C 0.35108 0.63014 0.81845 0.0
C585 C 0.31792 0.63391 0.82087 0.0
C586 C 0.28856 0.60933 0.83456 0.0
C587 C 0.2942 0.58082 0.84594 0.0
C588 C 0.32743 0.57675 0.84336 0.0
H589 H 0.39232 0.58353 0.77587 0.0
H590 H 0.35381 0.58146 0.78996 0.0
H591 H 0.39468 0.62784 0.78233 0.0
H592 H 0.37315 0.65093 0.80831 0.0
H593 H 0.31599 0.65738 0.8124 0.0
H594 H 1.0073 0.51905 0.15879 0.0
H595 H 0.94724 0.45622 0.16361 0.0
H596 H 1.0028 0.39755 0.14055 0.0
H597 H 1.06357 0.4598 0.13751 0.0
H598 H 0.89376 0.40221 0.14484 0.0
H599 H 0.96353 0.32656 0.1869 0.0
H600 H 0.99075 0.3778 0.18034 0.0
H601 H 0.98298 0.34216 0.16199 0.0
C602 C 1.00685 0.4927 0.15486 0.0
C603 C 1.04099 0.495 0.14796 0.0
C604 C 0.9721 0.45634 0.15761 0.0
C605 C 0.96963 0.42064 0.15321 0.0
C606 C 1.00333 0.42343 0.14526 0.0
H607 H 0.72909 0.20372 0.15031 0.0
H608 H 0.78809 0.26427 0.14012 0.0
C609 C 1.0384 0.45958 0.14317 0.0
C610 C 0.9322 0.38114 0.15676 0.0
H611 H 0.89839 0.28633 0.17445 0.0
C612 C 0.89507 0.3771 0.15154 0.0
C613 C 0.93238 0.34744 0.16581 0.0
C614 C 0.9695 0.34881 0.17428 0.0
C615 C 0.85934 0.34166 0.15501 0.0
C616 C 0.85967 0.30747 0.16312 0.0
C617 C 0.89686 0.31153 0.16813 0.0
C618 C 0.8227 0.26832 0.16813 0.0
C619 C 0.82168 0.34219 0.15071 0.0
C620 C 0.82174 0.24737 0.18658 0.0
C621 C 0.78859 0.21168 0.19193 0.0
C622 C 0.75356 0.19511 0.17954 0.0
C623 C 0.75469 0.21509 0.16061 0.0
C624 C 0.78867 0.25069 0.15494 0.0
H625 H 0.82635 0.37225 0.15089 0.0
H626 H 0.80966 0.33104 0.13521 0.0
H627 H 0.79974 0.32377 0.16215 0.0
H628 H 0.84677 0.25883 0.19729 0.0
H629 H 0.79068 0.19721 0.2062 0.0
H630 H 0.17217 0.55134 0.08533 0.0
H631 H 0.17762 0.54943 0.04837 0.0
H632 H 0.15708 0.64633 0.03778 0.0
H633 H 0.15223 0.6489 0.07455 0.0
H634 H 0.12435 0.53768 0.01629 0.0
H635 H 0.25515 0.68353 0.00657 0.0
H636 H 0.23969 0.66004 0.03146 0.0
H637 H 0.21655 0.68516 0.01846 0.0
C638 C 0.169 0.5724 0.07516 0.0
C639 C 0.16202 0.60045 0.08304 0.0
C640 C 0.1721 0.57124 0.054 0.0
C641 C 0.16852 0.59821 0.04024 0.0
C642 C 0.16099 0.62584 0.04805 0.0
H643 H 0.15632 0.64153 0.90974 0.0
H644 H 0.1581 0.64077 0.94721 0.0
C645 C 0.15796 0.62708 0.06916 0.0
C646 C 0.17156 0.59697 0.0177 0.0
H647 H 0.21937 0.65302 0.97588 0.0
C648 C 0.14542 0.56275 0.00749 0.0
C649 C 0.19911 0.62964 0.00615 0.0
C650 C 0.22947 0.66653 0.01624 0.0
C651 C 0.14509 0.56083 0.98604 0.0
C652 C 0.17201 0.59383 0.97445 0.0
C653 C 0.19865 0.62776 0.98471 0.0
C654 C 0.1719 0.59437 0.95161 0.0
C655 C 0.11498 0.52395 0.97585 0.0
C656 C 0.17978 0.56901 0.94151 0.0
C657 C 0.17871 0.56931 0.92 0.0
C658 C 0.16968 0.59498 0.90812 0.0
C659 C 0.16273 0.62093 0.91835 0.0
C660 C 0.16395 0.62069 0.9398 0.0
H661 H 0.09124 0.50451 0.98625 0.0
H662 H 0.10183 0.5308 0.96176 0.0
H663 H 0.12926 0.50776 0.97134 0.0
H664 H 0.18668 0.54889 0.95027 0.0
H665 H 0.18409 0.54886 0.91266 0.0
H666 H 0.72897 0.10146 0.41689 0.0
H667 H 0.7331 0.1078 0.3794 0.0
H668 H 0.61464 0.08571 0.37313 0.0
H669 H 0.61057 0.08028 0.41028 0.0
H670 H 0.69112 1.05651 0.34938 0.0
H671 H 0.66963 0.1843 0.33834 0.0
H672 H 0.67975 0.16816 0.36329 0.0
H673 H 0.63091 0.14447 0.35194 0.0
C674 C 0.70388 0.09814 0.40752 0.0
C675 C 0.66958 0.09073 0.41669 0.0
C676 C 0.70626 0.10174 0.38607 0.0
C677 C 0.67447 0.09809 0.37337 0.0
C678 C 0.63999 0.08982 0.38252 0.0
H679 H 0.61805 0.09468 0.242 0.0
H680 H 0.61673 0.08817 0.27959 0.0
C681 C 0.63766 0.08647 0.40386 0.0
C682 C 0.67679 0.10205 0.35057 0.0
H683 H 0.6636 0.15054 0.30822 0.0
C684 C 0.68544 0.07732 0.34041 0.0
C685 C 0.6694 0.12922 0.33877 0.0
C686 C 0.6623 0.15831 0.34865 0.0
C687 C 0.6859 0.07833 0.31886 0.0
C688 C 0.67777 0.10495 0.30711 0.0
C689 C 0.66946 0.12989 0.31723 0.0
C690 C 0.67839 0.10786 0.2843 0.0
C691 C 0.69423 1.05031 0.30876 0.0
C692 C 0.7135 0.12131 0.27445 0.0
C693 C 0.71435 0.12519 0.25302 0.0
C694 C 0.68008 0.11567 0.24092 0.0
C695 C 0.64487 0.10196 0.25083 0.0
C696 C 0.64411 0.09838 0.27231 0.0
H697 H 0.69165 1.0263 0.31953 0.0
H698 H 0.67395 1.0375 0.29526 0.0
H699 H 0.72445 0.06629 0.30329 0.0
H700 H 0.74039 0.12924 0.28337 0.0
H701 H 0.74189 0.13548 0.2459 0.0
H702 H 0.64247 0.53174 0.74743 0.0
H703 H 0.64283 0.53308 0.71008 0.0
H704 H 0.71973 0.65769 0.70939 0.0
H705 H 0.72075 0.65629 0.74691 0.0
H706 H 0.61805 0.56494 0.68159 0.0
H707 H 0.77677 0.62896 0.67285 0.0
H708 H 0.75489 0.61255 0.69743 0.0
H709 H 0.76599 0.65982 0.6866 0.0
C710 C 0.65969 0.55947 0.73937 0.0
C711 C 0.68178 0.5939 0.75025 0.0
C712 C 0.65986 0.56019 0.71794 0.0
C713 C 0.68186 0.59537 0.70675 0.0
C714 C 0.70345 0.62994 0.71757 0.0
H715 H 0.63509 0.62576 0.57654 0.0
H716 H 0.63835 0.62397 0.61387 0.0
C717 C 0.70376 0.62916 0.73907 0.0
C718 C 0.68095 0.59576 0.68382 0.0
H719 H 0.73868 0.62601 0.64235 0.0
C720 C 0.6445 0.57814 0.67306 0.0
C721 C 0.71532 0.61229 0.67252 0.0
C722 C 0.75542 0.62908 0.68295 0.0
C723 C 0.64143 0.57707 0.65152 0.0
C724 C 0.67581 0.59534 0.64018 0.0
C725 C 0.71227 0.6124 0.65092 0.0
C726 C 0.67459 0.59716 0.61723 0.0
C727 C 0.60125 0.55543 0.64123 0.0
C728 C 0.69512 0.58414 0.60641 0.0
C729 C 0.69428 0.58619 0.58489 0.0
C730 C 0.67282 0.60131 0.57359 0.0
C731 C 0.65239 0.61439 0.58454 0.0
C732 C 0.65365 0.61277 0.60602 0.0
H733 H 0.57988 0.53279 0.65176 0.0
H734 H 0.59085 0.5763 0.63674 0.0
H735 H 0.60151 0.54113 0.62726 0.0
H736 H 0.71179 0.57226 0.61464 0.0
H737 H 0.71096 0.57644 0.57714 0.0
H738 H 0.69594 0.12916 0.54923 0.0
H739 H 0.68129 0.12831 0.58514 0.0
H740 H 0.58008 1.0141 0.57856 0.0
H741 H 0.59411 1.0147 0.54283 0.0
H742 H 0.56561 0.06789 0.59709 0.0
H743 H 0.69424 0.06214 0.63339 0.0
H744 H 0.70466 0.10092 0.61455 0.0
H745 H 0.67894 1.05124 0.60684 0.0
C746 C 0.67077 0.10374 0.55549 0.0
C747 C 0.64627 0.07197 0.54318 0.0
C748 C 0.66248 0.1033 0.57599 0.0
C749 C 0.62972 0.07104 0.58448 0.0
C750 C 0.60545 1.03928 0.57226 0.0
H751 H 0.56983 0.99169 0.70836 0.0
H752 H 0.58394 1.00072 0.67198 0.0
C753 C 0.61366 1.03966 0.55185 0.0
C754 C 0.6201 0.07013 0.60602 0.0
H755 H 0.6511 0.06458 0.6555 0.0
C756 C 0.58436 0.06742 0.6099 0.0
C757 C 0.64456 0.06921 0.62261 0.0
C758 C 0.68263 0.07073 0.61926 0.0
C759 C 0.57214 0.06326 0.63 0.0
C760 C 0.59654 0.06219 0.64658 0.0
C761 C 0.63254 0.06551 0.6427 0.0
C762 C 0.58459 1.05567 0.66807 0.0
C763 C 0.53272 1.05872 0.63332 0.0
C764 C 0.57956 0.08327 0.67779 0.0
C765 C 0.57139 0.07813 0.6986 0.0
C766 C 0.56853 1.04549 0.71 0.0
C767 C 0.57227 1.01731 0.7 0.0
C768 C 0.58032 1.02241 0.67925 0.0
H769 H 0.51429 1.05224 0.6189 0.0
H770 H 0.51689 1.03501 0.64492 0.0
H771 H 0.53681 0.08623 0.63914 0.0
H772 H 0.58328 0.1094 0.66947 0.0
H773 H 0.56912 0.10052 0.70599 0.0
H774 H 0.71385 0.56158 0.88654 0.0
H775 H 0.69135 0.54251 0.92155 0.0
H776 H 0.60172 0.57315 0.90683 0.0
H777 H 0.62621 0.59497 0.87233 0.0
H778 H 0.62678 0.59278 0.94287 0.0
H779 H 0.60082 0.44321 0.93839 0.0
H780 H 0.65123 0.47748 0.93453 0.0
H781 H 0.6142 0.47656 0.91641 0.0
C782 C 0.68973 0.56471 0.89097 0.0
C783 C 0.67177 0.57975 0.8769 0.0
C784 C 0.67646 0.55326 0.91084 0.0
C785 C 0.64387 0.555 0.91667 0.0
C786 C 0.62669 0.57119 0.90271 0.0
H787 H 0.53509 0.42761 0.03023 0.0
H788 H 0.54687 0.44728 -0.0059 0.0
C789 C 0.64078 0.58381 0.88304 0.0
C790 C 0.62803 0.54041 0.93736 0.0
H791 H 0.60362 0.46474 0.97233 0.0
C792 C 0.62125 0.56454 0.94918 0.0
C793 C 0.61945 0.50301 0.94548 0.0
C794 C 0.62135 0.47347 0.93291 0.0
C795 C 0.60766 0.55304 0.96909 0.0
C796 C 0.60282 0.51731 0.97792 0.0
C797 C 0.60805 0.49249 0.96581 0.0
C798 C 0.59394 0.50586 -0.00015 0.0
C799 C 0.59808 0.57919 0.9802 0.0
C800 C 0.61646 0.532 0.01521 0.0
C801 C 0.60878 0.52141 0.03582 0.0
C802 C 0.57948 0.48364 0.04179 0.0
C803 C 0.55745 0.45711 0.02637 0.0
C804 C 0.56444 0.46821 0.00563 0.0
H805 H 0.58821 0.59545 0.9692 0.0
H806 H 0.57489 0.56241 -0.00869 0.0
H807 H 0.62476 0.60108 -0.01145 0.0
H808 H 0.64031 0.56073 0.01131 0.0
H809 H 0.62592 0.54318 0.04703 0.0
H810 H 0.19507 0.6119 0.21899 0.0
H811 H 0.18806 0.61846 0.25527 0.0
H812 H 1.07341 0.60343 0.24088 0.0
H813 H 1.08017 0.5973 0.20483 0.0
H814 H 0.12163 0.66846 0.26376 0.0
H815 H 0.11947 0.53539 0.29829 0.0
H816 H 0.16004 0.56594 0.2825 0.0
H817 H 0.11141 0.54159 0.27111 0.0
C818 C 0.16823 0.6096 0.22361 0.0
C819 C 0.13828 0.60424 0.209 0.0
C820 C 0.1642 0.61317 0.24434 0.0
C821 C 0.13008 0.61113 0.25075 0.0
C822 C 0.09995 0.60506 0.23625 0.0
H823 H 1.05128 0.59384 0.37357 0.0
H824 H 1.05817 0.58319 0.33798 0.0
C825 C 0.10393 0.60158 0.21562 0.0
C826 C 0.12626 0.61745 0.27231 0.0
H827 H 0.12093 0.57992 0.32129 0.0
C828 C 0.12148 0.64912 0.27635 0.0
C829 C 0.12564 0.59189 0.28863 0.0
C830 C 0.12907 0.55657 0.285 0.0
C831 C 0.11632 0.65608 0.29631 0.0
C832 C 0.11653 0.63103 0.31269 0.0
C833 C 0.12099 0.59916 0.30867 0.0
C834 C 0.11227 0.63759 0.33414 0.0
C835 C 0.10997 0.68979 0.29964 0.0
C836 C 0.1405 0.67159 0.34372 0.0
C837 C 0.13669 0.67773 0.36399 0.0
C838 C 0.10466 0.64985 0.37512 0.0
C839 C 1.0764 0.61574 0.36546 0.0
C840 C 1.08025 0.60964 0.34515 0.0
H841 H 0.10082 0.69991 0.28516 0.0
H842 H 1.08746 0.68163 0.31109 0.0
H843 H 0.13769 0.71458 0.30555 0.0
H844 H 0.1658 0.69316 0.3356 0.0
H845 H 0.1594 0.70388 0.37112 0.0
loop_
_geom_bond_atom_site_label_1
_geom_bond_atom_site_label_2
_geom_bond_distance
_geom_bond_site_symmetry_2
_ccdc_geom_bond_type
Tb0 C10 2.825 . S
Tb0 O11 2.347 . S
Tb0 O14 2.366 . S
Tb0 O19 2.418 . S
Tb0 O20 2.384 1_455 S
Tb0 O23 2.479 . S
Tb0 O24 2.471 . S
Eu1 O12 2.418 . S
Eu1 O13 2.384 1_655 S
Eu1 O16 2.479 . S
Eu1 O17 2.471 . S
Eu1 O18 2.347 1_655 S
Eu1 O21 2.366 . S
Eu1 C31 2.825 . S
C2 O18 1.259 . S
C2 O19 1.265 . S
C3 O20 1.255 . S
C3 O21 1.265 . S
C4 C6 1.380 . S
C4 C7 1.374 . S
C4 C10 1.507 . S
C5 C6 1.384 . S
C5 C9 1.387 . S
C5 H32 0.930 . S
C6 C4 1.380 . S
C6 C5 1.384 . S
C6 H33 0.931 . S
C7 C4 1.374 . S
C7 C8 1.390 . S
C7 H34 0.930 . S
C8 C7 1.390 . S
C8 C9 1.391 . S
C8 H35 0.930 . S
C9 C5 1.387 . S
C9 C8 1.391 . S
C10 Tb0 2.825 . S
C10 C4 1.507 . S
C10 O23 1.238 . S
C10 O24 1.247 . S
O11 Tb0 2.347 . S
O11 C15 1.259 . S
O12 Eu1 2.418 . S
O12 C15 1.265 1_655 S
O13 Eu1 2.384 1_455 S
O13 C22 1.255 . S
O14 Tb0 2.366 . S
O14 C22 1.265 . S
C15 O11 1.259 . S
C15 O12 1.265 1_455 S
O16 Eu1 2.479 . S
O16 C31 1.238 . S
O17 Eu1 2.471 . S
O17 C31 1.247 . S
O18 Eu1 2.347 1_455 S
O18 C2 1.259 . S
O19 Tb0 2.418 . S
O19 C2 1.265 . S
O20 Tb0 2.384 1_655 S
O20 C3 1.255 . S
O21 Eu1 2.366 . S
O21 C3 1.265 . S
C22 O13 1.255 . S
C22 O14 1.265 . S
O23 Tb0 2.479 . S
O23 C10 1.238 . S
O24 Tb0 2.471 . S
O24 C10 1.247 . S
C25 C28 1.380 . S
C25 C29 1.374 . S
C25 C31 1.507 . S
C26 C27 1.387 . S
C26 C30 1.391 . S
C27 C26 1.387 . S
C27 C28 1.384 . S
C27 H36 0.930 . S
C28 C25 1.380 . S
C28 C27 1.384 . S
C28 H37 0.931 . S
C29 C25 1.374 . S
C29 C30 1.390 . S
C29 H38 0.930 . S
C30 C26 1.391 . S
C30 C29 1.390 . S
C30 H39 0.930 . S
C31 Eu1 2.825 . S
C31 O16 1.238 . S
C31 O17 1.247 . S
C31 C25 1.507 . S
H32 C5 0.930 . S
H33 C6 0.931 . S
H34 C7 0.930 . S
H35 C8 0.930 . S
H36 C27 0.930 . S
H37 C28 0.931 . S
H38 C29 0.930 . S
H39 C30 0.930 . S
Tb40 C50 2.825 . S
Tb40 O51 2.347 . S
Tb40 O54 2.366 . S
Tb40 O59 2.418 . S
Tb40 O60 2.384 1_545 S
Tb40 O63 2.479 . S
Tb40 O64 2.471 . S
Eu41 O52 2.418 . S
Eu41 O53 2.384 . S
Eu41 O56 2.479 1_545 S
Eu41 O57 2.471 1_545 S
Eu41 O58 2.347 . S
Eu41 O61 2.366 1_545 S
Eu41 C71 2.825 1_545 S
C42 O58 1.259 . S
C42 O59 1.265 . S
C43 O60 1.255 . S
C43 O61 1.265 . S
C44 C46 1.380 . S
C44 C47 1.374 . S
C44 C50 1.507 . S
C45 C46 1.384 . S
C45 C49 1.387 . S
C45 H72 0.930 . S
C46 C44 1.380 . S
C46 C45 1.384 . S
C46 H73 0.931 . S
C47 C44 1.374 . S
C47 C48 1.390 . S
C47 H74 0.930 . S
C48 C47 1.390 . S
C48 C49 1.391 . S
C48 H75 0.930 . S
C49 C45 1.387 . S
C49 C48 1.391 . S
C50 Tb40 2.825 . S
C50 C44 1.507 . S
C50 O63 1.238 . S
C50 O64 1.247 . S
O51 Tb40 2.347 . S
O51 C55 1.259 . S
O52 Eu41 2.418 . S
O52 C55 1.265 . S
O53 Eu41 2.384 . S
O53 C62 1.255 . S
O54 Tb40 2.366 . S
O54 C62 1.265 . S
C55 O51 1.259 . S
C55 O52 1.265 . S
O56 Eu41 2.479 1_565 S
O56 C71 1.238 . S
O57 Eu41 2.471 1_565 S
O57 C71 1.247 . S
O58 Eu41 2.347 . S
O58 C42 1.259 . S
O59 Tb40 2.418 . S
O59 C42 1.265 . S
O60 Tb40 2.384 1_565 S
O60 C43 1.255 . S
O61 Eu41 2.366 1_565 S
O61 C43 1.265 . S
C62 O53 1.255 . S
C62 O54 1.265 . S
O63 Tb40 2.479 . S
O63 C50 1.238 . S
O64 Tb40 2.471 . S
O64 C50 1.247 . S
C65 C68 1.380 . S
C65 C69 1.374 . S
C65 C71 1.507 . S
C66 C67 1.387 . S
C66 C70 1.391 . S
C67 C66 1.387 . S
C67 C68 1.384 . S
C67 H76 0.930 . S
C68 C65 1.380 . S
C68 C67 1.384 . S
C68 H77 0.931 . S
C69 C65 1.374 . S
C69 C70 1.390 . S
C69 H78 0.930 . S
C70 C66 1.391 . S
C70 C69 1.390 . S
C70 H79 0.930 . S
C71 Eu41 2.825 1_565 S
C71 O56 1.238 . S
C71 O57 1.247 . S
C71 C65 1.507 . S
H72 C45 0.930 . S
H73 C46 0.931 . S
H74 C47 0.930 . S
H75 C48 0.930 . S
H76 C67 0.930 . S
H77 C68 0.931 . S
H78 C69 0.930 . S
H79 C70 0.930 . S
Tb80 C90 2.825 . S
Tb80 O91 2.347 . S
Tb80 O94 2.366 . S
Tb80 O99 2.418 . S
Tb80 O100 2.384 . S
Tb80 O103 2.479 . S
Tb80 O104 2.471 . S
Eu81 O92 2.418 . S
Eu81 O93 2.384 . S
Eu81 O96 2.479 . S
Eu81 O97 2.471 . S
Eu81 O98 2.347 . S
Eu81 O101 2.366 . S
Eu81 C111 2.825 . S
C82 O98 1.259 . S
C82 O99 1.265 . S
C83 O100 1.255 . S
C83 O101 1.265 . S
C84 C86 1.380 . S
C84 C87 1.374 . S
C84 C90 1.507 . S
C85 C86 1.384 . S
C85 C89 1.387 . S
C85 H112 0.930 . S
C86 C84 1.380 . S
C86 C85 1.384 . S
C86 H113 0.931 . S
C87 C84 1.374 . S
C87 C88 1.390 . S
C87 H114 0.930 . S
C88 C87 1.390 . S
C88 C89 1.391 . S
C88 H115 0.930 . S
C89 C85 1.387 . S
C89 C88 1.391 . S
C90 Tb80 2.825 . S
C90 C84 1.507 . S
C90 O103 1.238 . S
C90 O104 1.247 . S
O91 Tb80 2.347 . S
O91 C95 1.259 . S
O92 Eu81 2.418 . S
O92 C95 1.265 . S
O93 Eu81 2.384 . S
O93 C102 1.255 . S
O94 Tb80 2.366 . S
O94 C102 1.265 . S
C95 O91 1.259 . S
C95 O92 1.265 . S
O96 Eu81 2.479 . S
O96 C111 1.238 . S
O97 Eu81 2.471 . S
O97 C111 1.247 . S
O98 Eu81 2.347 . S
O98 C82 1.259 . S
O99 Tb80 2.418 . S
O99 C82 1.265 . S
O100 Tb80 2.384 . S
O100 C83 1.255 . S
O101 Eu81 2.366 . S
O101 C83 1.265 . S
C102 O93 1.255 . S
C102 O94 1.265 . S
O103 Tb80 2.479 . S
O103 C90 1.238 . S
O104 Tb80 2.471 . S
O104 C90 1.247 . S
C105 C108 1.380 . S
C105 C109 1.374 . S
C105 C111 1.507 . S
C106 C107 1.387 . S
C106 C110 1.391 . S
C107 C106 1.387 . S
C107 C108 1.384 . S
C107 H116 0.930 . S
C108 C105 1.380 . S
C108 C107 1.384 . S
C108 H117 0.931 . S
C109 C105 1.374 . S
C109 C110 1.390 . S
C109 H118 0.930 . S
C110 C106 1.391 . S
C110 C109 1.390 . S
C110 H119 0.930 . S
C111 Eu81 2.825 . S
C111 O96 1.238 . S
C111 O97 1.247 . S
C111 C105 1.507 . S
H112 C85 0.930 . S
H113 C86 0.931 . S
H114 C87 0.930 . S
H115 C88 0.930 . S
H116 C107 0.930 . S
H117 C108 0.931 . S
H118 C109 0.930 . S
H119 C110 0.930 . S
H120 C127 0.929 . S
H121 C130 0.930 . S
H122 C132 0.929 . S
H123 C124 0.969 . S
C124 H123 0.969 . S
C124 O125 1.550 . S
C124 H126 0.973 . S
O125 C124 1.550 . S
O125 C131 1.412 . S
H126 C124 0.973 . S
C127 H120 0.929 . S
C127 C128 1.400 . S
C127 C129 1.364 . S
C128 C127 1.400 . S
C128 C132 1.377 . S
C129 C127 1.364 . S
C129 C130 1.374 1_545 S
C130 H121 0.930 . S
C130 C129 1.374 1_565 S
C130 C131 1.383 . S
C131 O125 1.412 . S
C131 C130 1.383 . S
C131 C132 1.394 1_565 S
C132 H122 0.929 . S
C132 C128 1.377 . S
C132 C131 1.394 1_545 S
H133 C140 0.929 . S
H134 C143 0.930 . S
H135 C145 0.929 . S
H136 C137 0.969 . S
C137 H136 0.969 . S
C137 O138 1.550 . S
C137 H139 0.973 . S
O138 C137 1.550 . S
O138 C144 1.412 . S
H139 C137 0.973 . S
C140 H133 0.929 . S
C140 C141 1.400 . S
C140 C142 1.364 . S
C141 C140 1.400 . S
C141 C145 1.377 . S
C142 C140 1.364 . S
C142 C143 1.374 . S
C143 H134 0.930 . S
C143 C142 1.374 . S
C143 C144 1.383 . S
C144 O138 1.412 . S
C144 C143 1.383 . S
C144 C145 1.394 . S
C145 H135 0.929 . S
C145 C141 1.377 . S
C145 C144 1.394 . S
H146 C153 0.943 . S
H147 C156 0.930 . S
H148 C158 0.929 . S
H149 C150 0.969 . S
C150 H149 0.969 . S
C150 O151 1.550 . S
C150 H152 0.973 . S
O151 C150 1.550 . S
O151 C157 1.412 . S
H152 C150 0.973 . S
C153 H146 0.943 . S
C153 C154 1.400 . S
C153 C155 1.364 . S
C154 C153 1.400 . S
C154 C158 1.377 . S
C155 C153 1.364 . S
C155 C156 1.374 . S
C156 H147 0.930 . S
C156 C155 1.374 . S
C156 C157 1.383 . S
C157 O151 1.412 . S
C157 C156 1.383 . S
C157 C158 1.394 . S
C158 H148 0.929 . S
C158 C154 1.377 . S
C158 C157 1.394 . S
H159 C166 0.929 1_655 S
H160 C169 0.930 . S
H161 C171 0.929 . S
H162 C163 0.969 . S
C163 H162 0.969 . S
C163 O164 1.550 . S
C163 H165 0.973 . S
O164 C163 1.550 . S
O164 C170 1.412 . S
H165 C163 0.973 . S
C166 H159 0.929 1_455 S
C166 C167 1.400 . S
C166 C168 1.364 . S
C167 C166 1.400 . S
C167 C171 1.377 . S
C168 C166 1.364 . S
C168 C169 1.374 . S
C169 H160 0.930 . S
C169 C168 1.374 . S
C169 C170 1.383 . S
C170 O164 1.412 . S
C170 C169 1.383 . S
C170 C171 1.394 . S
C171 H161 0.929 . S
C171 C167 1.377 . S
C171 C170 1.394 . S
H172 C179 0.929 . S
H173 C182 0.930 . S
H174 C184 0.929 1_565 S
H175 C176 0.969 . S
C176 H175 0.969 . S
C176 O177 1.550 . S
C176 H178 0.973 . S
O177 C176 1.550 . S
O177 C183 1.412 . S
H178 C176 0.973 . S
C179 H172 0.929 . S
C179 C180 1.400 . S
C179 C181 1.364 1_565 S
C180 C179 1.400 . S
C180 C184 1.377 1_565 S
C181 C179 1.364 1_545 S
C181 C182 1.374 . S
C182 H173 0.930 . S
C182 C181 1.374 . S
C182 C183 1.383 . S
C183 O177 1.412 . S
C183 C182 1.383 . S
C183 C184 1.394 . S
C184 H174 0.929 1_545 S
C184 C180 1.377 1_545 S
C184 C183 1.394 . S
H185 C192 0.929 . S
H186 C195 0.930 . S
H187 C197 0.929 . S
H188 C189 0.969 . S
C189 H188 0.969 . S
C189 O190 1.550 . S
C189 H191 0.973 . S
O190 C189 1.550 . S
O190 C196 1.412 . S
H191 C189 0.973 . S
C192 H185 0.929 . S
C192 C193 1.400 . S
C192 C194 1.364 . S
C193 C192 1.400 . S
C193 C197 1.377 . S
C194 C192 1.364 . S
C194 C195 1.374 . S
C195 H186 0.930 . S
C195 C194 1.374 . S
C195 C196 1.383 . S
C196 O190 1.412 . S
C196 C195 1.383 . S
C196 C197 1.394 . S
C197 H187 0.929 . S
C197 C193 1.377 . S
C197 C196 1.394 . S
H198 C206 0.929 . S
H199 C208 0.930 . S
H200 C210 0.930 . S
H201 C213 0.929 . S
H202 C216 0.930 . S
H203 C218 0.960 . S
H204 C218 0.960 . S
H205 C218 0.960 . S
C206 H198 0.929 . S
C206 C207 1.377 . S
C206 C208 1.384 . S
C207 C206 1.377 . S
C207 C213 1.390 . S
C208 H199 0.930 . S
C208 C206 1.384 . S
C208 C209 1.372 . S
C209 C208 1.372 . S
C209 C210 1.400 . S
C209 C214 1.490 . S
C210 H200 0.930 . S
C210 C209 1.400 . S
C210 C213 1.386 . S
H211 C227 0.930 . S
H212 C228 0.931 . S
C213 H201 0.929 . S
C213 C207 1.390 . S
C213 C210 1.386 . S
C214 C209 1.490 . S
C214 C216 1.395 . S
C214 C217 1.403 . S
H215 C221 0.930 . S
C216 H202 0.930 . S
C216 C214 1.395 . S
C216 C219 1.403 . S
C217 C214 1.403 . S
C217 C218 1.524 . S
C217 C221 1.400 . S
C218 H203 0.960 . S
C218 H204 0.960 . S
C218 H205 0.960 . S
C218 C217 1.524 . S
C219 C216 1.403 . S
C219 C220 1.392 . S
C219 C223 1.495 . S
C220 C219 1.392 . S
C220 C221 1.385 . S
C220 C222 1.478 . S
C221 H215 0.930 . S
C221 C217 1.400 . S
C221 C220 1.385 . S
C222 C220 1.478 . S
C222 C224 1.381 . S
C222 C228 1.383 . S
C223 C219 1.495 . S
C223 H229 0.959 . S
C223 H230 0.961 . S
C223 H231 0.960 . S
C224 C222 1.381 . S
C224 C225 1.394 . S
C224 H232 0.930 . S
C225 C224 1.394 . S
C225 C226 1.383 . S
C225 H233 0.929 . S
C226 C225 1.383 . S
C226 C227 1.377 . S
C227 H211 0.930 . S
C227 C226 1.377 . S
C227 C228 1.379 . S
C228 H212 0.931 . S
C228 C222 1.383 . S
C228 C227 1.379 . S
H229 C223 0.959 . S
H230 C223 0.961 . S
H231 C223 0.960 . S
H232 C224 0.930 . S
H233 C225 0.929 . S
H234 C242 0.929 . S
H235 C244 0.930 . S
H236 C246 0.930 . S
H237 C249 0.929 . S
H238 C252 0.930 . S
H239 C254 0.960 . S
H240 C254 0.960 . S
H241 C254 0.960 . S
C242 H234 0.929 . S
C242 C243 1.377 . S
C242 C244 1.384 . S
C243 C242 1.377 . S
C243 C249 1.390 . S
C244 H235 0.930 . S
C244 C242 1.384 . S
C244 C245 1.372 . S
C245 C244 1.372 . S
C245 C246 1.400 . S
C245 C250 1.490 . S
C246 H236 0.930 . S
C246 C245 1.400 . S
C246 C249 1.386 . S
H247 C263 0.930 . S
H248 C264 0.931 . S
C249 H237 0.929 . S
C249 C243 1.390 . S
C249 C246 1.386 . S
C250 C245 1.490 . S
C250 C252 1.395 . S
C250 C253 1.403 . S
H251 C257 0.930 . S
C252 H238 0.930 . S
C252 C250 1.395 . S
C252 C255 1.403 . S
C253 C250 1.403 . S
C253 C254 1.524 . S
C253 C257 1.400 . S
C254 H239 0.960 . S
C254 H240 0.960 . S
C254 H241 0.960 . S
C254 C253 1.524 . S
C255 C252 1.403 . S
C255 C256 1.392 . S
C255 C259 1.495 . S
C256 C255 1.392 . S
C256 C257 1.385 . S
C256 C258 1.478 . S
C257 H251 0.930 . S
C257 C253 1.400 . S
C257 C256 1.385 . S
C258 C256 1.478 . S
C258 C260 1.381 . S
C258 C264 1.383 . S
C259 C255 1.495 . S
C259 H265 0.959 . S
C259 H266 0.961 . S
C259 H267 0.960 . S
C260 C258 1.381 . S
C260 C261 1.394 . S
C260 H268 0.930 . S
C261 C260 1.394 . S
C261 C262 1.383 1_655 S
C261 H269 0.929 1_655 S
C262 C261 1.383 1_455 S
C262 C263 1.377 1_455 S
C263 H247 0.930 . S
C263 C262 1.377 1_655 S
C263 C264 1.379 . S
C264 H248 0.931 . S
C264 C258 1.383 . S
C264 C263 1.379 . S
H265 C259 0.959 . S
H266 C259 0.961 . S
H267 C259 0.960 . S
H268 C260 0.930 . S
H269 C261 0.929 1_455 S
H270 C278 0.929 . S
H271 C280 0.930 . S
H272 C282 0.930 . S
H273 C285 0.929 . S
H274 C288 0.930 . S
H275 C290 0.960 . S
H276 C290 0.960 . S
H277 C290 0.960 . S
C278 H270 0.929 . S
C278 C279 1.377 . S
C278 C280 1.384 . S
C279 C278 1.377 . S
C279 C285 1.390 . S
C280 H271 0.930 . S
C280 C278 1.384 . S
C280 C281 1.372 . S
C281 C280 1.372 . S
C281 C282 1.400 . S
C281 C286 1.490 . S
C282 H272 0.930 . S
C282 C281 1.400 . S
C282 C285 1.386 . S
H283 C299 0.930 . S
H284 C300 0.931 . S
C285 H273 0.929 . S
C285 C279 1.390 . S
C285 C282 1.386 . S
C286 C281 1.490 . S
C286 C288 1.395 . S
C286 C289 1.403 . S
H287 C293 0.930 . S
C288 H274 0.930 . S
C288 C286 1.395 . S
C288 C291 1.403 . S
C289 C286 1.403 . S
C289 C290 1.524 . S
C289 C293 1.400 . S
C290 H275 0.960 . S
C290 H276 0.960 . S
C290 H277 0.960 . S
C290 C289 1.524 . S
C291 C288 1.403 . S
C291 C292 1.392 . S
C291 C295 1.495 . S
C292 C291 1.392 . S
C292 C293 1.385 . S
C292 C294 1.478 . S
C293 H287 0.930 . S
C293 C289 1.400 . S
C293 C292 1.385 . S
C294 C292 1.478 . S
C294 C296 1.381 . S
C294 C300 1.383 . S
C295 C291 1.495 . S
C295 H301 0.959 . S
C295 H302 0.961 . S
C295 H303 0.960 . S
C296 C294 1.381 . S
C296 C297 1.394 . S
C296 H304 0.930 . S
C297 C296 1.394 . S
C297 C298 1.383 . S
C297 H305 0.924 1_565 S
C298 C297 1.383 . S
C298 C299 1.377 . S
C299 H283 0.930 . S
C299 C298 1.377 . S
C299 C300 1.379 . S
C300 H284 0.931 . S
C300 C294 1.383 . S
C300 C299 1.379 . S
H301 C295 0.959 . S
H302 C295 0.961 . S
H303 C295 0.960 . S
H304 C296 0.930 . S
H305 C297 0.924 1_545 S
H306 C314 0.929 . S
H307 C316 0.930 . S
H308 C318 0.930 . S
H309 C321 0.929 . S
H310 C324 0.930 . S
H311 C326 0.960 . S
H312 C326 0.960 . S
H313 C326 0.960 . S
C314 H306 0.929 . S
C314 C315 1.377 . S
C314 C316 1.384 . S
C315 C314 1.377 . S
C315 C321 1.390 . S
C316 H307 0.930 . S
C316 C314 1.384 . S
C316 C317 1.372 . S
C317 C316 1.372 . S
C317 C318 1.400 . S
C317 C322 1.490 . S
C318 H308 0.930 . S
C318 C317 1.400 . S
C318 C321 1.386 . S
H319 C335 0.930 . S
H320 C336 0.931 . S
C321 H309 0.929 . S
C321 C315 1.390 . S
C321 C318 1.386 . S
C322 C317 1.490 . S
C322 C324 1.395 . S
C322 C325 1.403 . S
H323 C329 0.930 . S
C324 H310 0.930 . S
C324 C322 1.395 . S
C324 C327 1.403 . S
C325 C322 1.403 . S
C325 C326 1.524 . S
C325 C329 1.400 . S
C326 H311 0.960 . S
C326 H312 0.960 . S
C326 H313 0.960 . S
C326 C325 1.524 . S
C327 C324 1.403 . S
C327 C328 1.392 . S
C327 C331 1.495 . S
C328 C327 1.392 . S
C328 C329 1.385 . S
C328 C330 1.478 . S
C329 H323 0.930 . S
C329 C325 1.400 . S
C329 C328 1.385 . S
C330 C328 1.478 . S
C330 C332 1.381 . S
C330 C336 1.383 . S
C331 C327 1.495 . S
C331 H337 0.959 . S
C331 H338 0.961 . S
C331 H339 0.960 . S
C332 C330 1.381 . S
C332 C333 1.394 . S
C332 H340 0.930 . S
C333 C332 1.394 . S
C333 C334 1.383 . S
C333 H341 0.929 . S
C334 C333 1.383 . S
C334 C335 1.377 . S
C335 H319 0.930 . S
C335 C334 1.377 . S
C335 C336 1.379 . S
C336 H320 0.931 . S
C336 C330 1.383 . S
C336 C335 1.379 . S
H337 C331 0.959 . S
H338 C331 0.961 . S
H339 C331 0.960 . S
H340 C332 0.930 . S
H341 C333 0.929 . S
H342 C350 0.929 . S
H343 C352 0.930 . S
H344 C354 0.930 . S
H345 C357 0.929 . S
H346 C360 0.930 . S
H347 C362 0.960 . S
H348 C362 0.960 . S
H349 C362 0.960 . S
C350 H342 0.929 . S
C350 C351 1.377 . S
C350 C352 1.384 . S
C351 C350 1.377 . S
C351 C357 1.390 . S
C352 H343 0.930 . S
C352 C350 1.384 . S
C352 C353 1.372 . S
C353 C352 1.372 . S
C353 C354 1.400 . S
C353 C358 1.490 . S
C354 H344 0.930 . S
C354 C353 1.400 . S
C354 C357 1.386 . S
H355 C371 0.930 . S
H356 C372 0.931 . S
C357 H345 0.929 . S
C357 C351 1.390 . S
C357 C354 1.386 . S
C358 C353 1.490 . S
C358 C360 1.395 . S
C358 C361 1.403 . S
H359 C365 0.930 . S
C360 H346 0.930 . S
C360 C358 1.395 . S
C360 C363 1.403 . S
C361 C358 1.403 . S
C361 C362 1.524 . S
C361 C365 1.400 . S
C362 H347 0.960 . S
C362 H348 0.960 . S
C362 H349 0.960 . S
C362 C361 1.524 . S
C363 C360 1.403 . S
C363 C364 1.392 . S
C363 C367 1.495 . S
C364 C363 1.392 . S
C364 C365 1.385 . S
C364 C366 1.478 . S
C365 H359 0.930 . S
C365 C361 1.400 . S
C365 C364 1.385 . S
C366 C364 1.478 . S
C366 C368 1.381 . S
C366 C372 1.383 . S
C367 C363 1.495 . S
C367 H373 0.959 . S
C367 H374 0.961 . S
C367 H375 0.960 . S
C368 C366 1.381 . S
C368 C369 1.394 . S
C368 H376 0.930 . S
C369 C368 1.394 . S
C369 C370 1.383 . S
C369 H377 0.929 . S
C370 C369 1.383 . S
C370 C371 1.377 . S
C371 H355 0.930 . S
C371 C370 1.377 . S
C371 C372 1.379 . S
C372 H356 0.931 . S
C372 C366 1.383 . S
C372 C371 1.379 . S
H373 C367 0.959 . S
H374 C367 0.961 . S
H375 C367 0.960 . S
H376 C368 0.930 . S
H377 C369 0.929 . S
H378 C386 0.929 . S
H379 C388 0.930 . S
H380 C390 0.930 . S
H381 C393 0.929 . S
H382 C396 0.930 . S
H383 C398 0.960 . S
H384 C398 0.960 . S
H385 C398 0.960 . S
C386 H378 0.929 . S
C386 C387 1.377 . S
C386 C388 1.384 . S
C387 C386 1.377 . S
C387 C393 1.390 . S
C388 H379 0.930 . S
C388 C386 1.384 . S
C388 C389 1.372 . S
C389 C388 1.372 . S
C389 C390 1.400 . S
C389 C394 1.490 . S
C390 H380 0.930 . S
C390 C389 1.400 . S
C390 C393 1.386 . S
H391 C407 0.930 . S
H392 C408 0.931 . S
C393 H381 0.929 . S
C393 C387 1.390 . S
C393 C390 1.386 . S
C394 C389 1.490 . S
C394 C396 1.395 . S
C394 C397 1.403 . S
H395 C401 0.930 . S
C396 H382 0.930 . S
C396 C394 1.395 . S
C396 C399 1.403 . S
C397 C394 1.403 . S
C397 C398 1.524 . S
C397 C401 1.400 . S
C398 H383 0.960 . S
C398 H384 0.960 . S
C398 H385 0.960 . S
C398 C397 1.524 . S
C399 C396 1.403 . S
C399 C400 1.392 . S
C399 C403 1.495 . S
C400 C399 1.392 . S
C400 C401 1.385 . S
C400 C402 1.478 . S
C401 H395 0.930 . S
C401 C397 1.400 . S
C401 C400 1.385 . S
C402 C400 1.478 . S
C402 C404 1.381 . S
C402 C408 1.383 . S
C403 C399 1.495 . S
C403 H409 0.959 . S
C403 H410 0.961 . S
C403 H411 0.960 . S
C404 C402 1.381 . S
C404 C405 1.394 . S
C404 H412 0.930 . S
C405 C404 1.394 . S
C405 C406 1.383 . S
C405 H413 0.929 . S
C406 C405 1.383 . S
C406 C407 1.377 . S
C407 H391 0.930 . S
C407 C406 1.377 . S
C407 C408 1.379 . S
C408 H392 0.931 . S
C408 C402 1.383 . S
C408 C407 1.379 . S
H409 C403 0.959 . S
H410 C403 0.961 . S
H411 C403 0.960 . S
H412 C404 0.930 . S
H413 C405 0.929 . S
H414 C422 0.929 . S
H415 C424 0.930 . S
H416 C426 0.930 . S
H417 C429 0.929 . S
H418 C432 0.930 . S
H419 C434 0.960 . S
H420 C434 0.960 . S
H421 C434 0.960 . S
C422 H414 0.929 . S
C422 C423 1.377 . S
C422 C424 1.384 . S
C423 C422 1.377 . S
C423 C429 1.390 . S
C424 H415 0.930 . S
C424 C422 1.384 . S
C424 C425 1.372 . S
C425 C424 1.372 . S
C425 C426 1.400 . S
C425 C430 1.490 . S
C426 H416 0.930 . S
C426 C425 1.400 . S
C426 C429 1.386 . S
H427 C443 0.930 . S
H428 C444 0.931 . S
C429 H417 0.929 . S
C429 C423 1.390 . S
C429 C426 1.386 . S
C430 C425 1.490 . S
C430 C432 1.395 . S
C430 C433 1.403 . S
H431 C437 0.930 . S
C432 H418 0.930 . S
C432 C430 1.395 . S
C432 C435 1.403 . S
C433 C430 1.403 . S
C433 C434 1.524 . S
C433 C437 1.400 . S
C434 H419 0.960 . S
C434 H420 0.960 . S
C434 H421 0.960 . S
C434 C433 1.524 . S
C435 C432 1.403 . S
C435 C436 1.392 . S
C435 C439 1.495 . S
C436 C435 1.392 . S
C436 C437 1.385 . S
C436 C438 1.478 . S
C437 H431 0.930 . S
C437 C433 1.400 . S
C437 C436 1.385 . S
C438 C436 1.478 . S
C438 C440 1.381 . S
C438 C444 1.383 . S
C439 C435 1.495 . S
C439 H445 0.959 . S
C439 H446 0.961 . S
C439 H447 0.960 . S
C440 C438 1.381 . S
C440 C441 1.394 . S
C440 H448 0.930 . S
C441 C440 1.394 . S
C441 C442 1.383 . S
C441 H449 0.929 . S
C442 C441 1.383 . S
C442 C443 1.377 . S
C443 H427 0.930 . S
C443 C442 1.377 . S
C443 C444 1.379 . S
C444 H428 0.931 . S
C444 C438 1.383 . S
C444 C443 1.379 . S
H445 C439 0.959 . S
H446 C439 0.961 . S
H447 C439 0.960 . S
H448 C440 0.930 . S
H449 C441 0.929 . S
H450 C458 0.929 . S
H451 C460 0.930 . S
H452 C462 0.930 . S
H453 C465 0.929 . S
H454 C468 0.930 . S
H455 C470 0.960 . S
H456 C470 0.960 . S
H457 C470 0.960 . S
C458 H450 0.929 . S
C458 C459 1.377 . S
C458 C460 1.384 . S
C459 C458 1.377 . S
C459 C465 1.390 . S
C460 H451 0.930 . S
C460 C458 1.384 . S
C460 C461 1.372 . S
C461 C460 1.372 . S
C461 C462 1.400 . S
C461 C466 1.490 . S
C462 H452 0.930 . S
C462 C461 1.400 . S
C462 C465 1.386 . S
H463 C479 0.930 . S
H464 C480 0.931 . S
C465 H453 0.929 . S
C465 C459 1.390 . S
C465 C462 1.386 . S
C466 C461 1.490 . S
C466 C468 1.395 . S
C466 C469 1.403 . S
H467 C473 0.930 . S
C468 H454 0.930 . S
C468 C466 1.395 . S
C468 C471 1.403 . S
C469 C466 1.403 . S
C469 C470 1.524 . S
C469 C473 1.400 . S
C470 H455 0.960 . S
C470 H456 0.960 . S
C470 H457 0.960 . S
C470 C469 1.524 . S
C471 C468 1.403 . S
C471 C472 1.392 . S
C471 C475 1.495 . S
C472 C471 1.392 . S
C472 C473 1.385 . S
C472 C474 1.478 . S
C473 H467 0.930 . S
C473 C469 1.400 . S
C473 C472 1.385 . S
C474 C472 1.478 . S
C474 C476 1.381 . S
C474 C480 1.383 . S
C475 C471 1.495 . S
C475 H481 0.959 . S
C475 H482 0.961 . S
C475 H483 0.960 . S
C476 C474 1.381 . S
C476 C477 1.394 . S
C476 H484 0.930 . S
C477 C476 1.394 . S
C477 C478 1.383 . S
C477 H485 0.929 . S
C478 C477 1.383 . S
C478 C479 1.377 . S
C479 H463 0.930 . S
C479 C478 1.377 . S
C479 C480 1.379 . S
C480 H464 0.931 . S
C480 C474 1.383 . S
C480 C479 1.379 . S
H481 C475 0.959 . S
H482 C475 0.961 . S
H483 C475 0.960 . S
H484 C476 0.930 . S
H485 C477 0.929 . S
H486 C494 0.929 . S
H487 C496 0.930 . S
H488 C498 0.930 . S
H489 C501 0.929 . S
H490 C504 0.930 . S
H491 C506 0.960 . S
H492 C506 0.960 . S
H493 C506 0.960 . S
C494 H486 0.929 . S
C494 C495 1.377 . S
C494 C496 1.384 . S
C495 C494 1.377 . S
C495 C501 1.390 . S
C496 H487 0.930 . S
C496 C494 1.384 . S
C496 C497 1.372 . S
C497 C496 1.372 . S
C497 C498 1.400 . S
C497 C502 1.490 . S
C498 H488 0.930 . S
C498 C497 1.400 . S
C498 C501 1.386 . S
H499 C515 0.930 . S
H500 C516 0.931 . S
C501 H489 0.929 . S
C501 C495 1.390 . S
C501 C498 1.386 . S
C502 C497 1.490 . S
C502 C504 1.395 . S
C502 C505 1.403 . S
H503 C509 0.930 . S
C504 H490 0.930 . S
C504 C502 1.395 . S
C504 C507 1.403 . S
C505 C502 1.403 . S
C505 C506 1.524 . S
C505 C509 1.400 . S
C506 H491 0.960 . S
C506 H492 0.960 . S
C506 H493 0.960 . S
C506 C505 1.524 . S
C507 C504 1.403 . S
C507 C508 1.392 . S
C507 C511 1.495 . S
C508 C507 1.392 . S
C508 C509 1.385 . S
C508 C510 1.478 . S
C509 H503 0.930 . S
C509 C505 1.400 . S
C509 C508 1.385 . S
C510 C508 1.478 . S
C510 C512 1.381 . S
C510 C516 1.383 . S
C511 C507 1.495 . S
C511 H517 0.959 . S
C511 H518 0.961 . S
C511 H519 0.960 . S
C512 C510 1.381 . S
C512 C513 1.394 . S
C512 H520 0.930 . S
C513 C512 1.394 . S
C513 C514 1.383 . S
C513 H521 0.929 . S
C514 C513 1.383 . S
C514 C515 1.377 . S
C515 H499 0.930 . S
C515 C514 1.377 . S
C515 C516 1.379 . S
C516 H500 0.931 . S
C516 C510 1.383 . S
C516 C515 1.379 . S
H517 C511 0.959 . S
H518 C511 0.961 . S
H519 C511 0.960 . S
H520 C512 0.930 . S
H521 C513 0.929 . S
H522 C530 0.929 . S
H523 C532 0.930 . S
H524 C534 0.930 . S
H525 C537 0.929 . S
H526 C540 0.930 . S
H527 C542 0.960 . S
H528 C542 0.960 . S
H529 C542 0.960 . S
C530 H522 0.929 . S
C530 C531 1.377 . S
C530 C532 1.384 . S
C531 C530 1.377 . S
C531 C537 1.390 . S
C532 H523 0.930 . S
C532 C530 1.384 . S
C532 C533 1.372 . S
C533 C532 1.372 . S
C533 C534 1.400 . S
C533 C538 1.490 . S
C534 H524 0.930 . S
C534 C533 1.400 . S
C534 C537 1.386 . S
H535 C551 0.930 . S
H536 C552 0.931 . S
C537 H525 0.929 . S
C537 C531 1.390 . S
C537 C534 1.386 . S
C538 C533 1.490 . S
C538 C540 1.395 . S
C538 C541 1.403 . S
H539 C545 0.930 . S
C540 H526 0.930 . S
C540 C538 1.395 . S
C540 C543 1.403 . S
C541 C538 1.403 . S
C541 C542 1.524 . S
C541 C545 1.400 . S
C542 H527 0.960 . S
C542 H528 0.960 . S
C542 H529 0.960 . S
C542 C541 1.524 . S
C543 C540 1.403 . S
C543 C544 1.392 . S
C543 C547 1.495 . S
C544 C543 1.392 . S
C544 C545 1.385 . S
C544 C546 1.478 . S
C545 H539 0.930 . S
C545 C541 1.400 . S
C545 C544 1.385 . S
C546 C544 1.478 . S
C546 C548 1.381 . S
C546 C552 1.383 . S
C547 C543 1.495 . S
C547 H553 0.959 . S
C547 H554 0.961 . S
C547 H555 0.960 . S
C548 C546 1.381 . S
C548 C549 1.394 . S
C548 H556 0.930 . S
C549 C548 1.394 . S
C549 C550 1.383 . S
C549 H557 0.929 . S
C550 C549 1.383 . S
C550 C551 1.377 . S
C551 H535 0.930 . S
C551 C550 1.377 . S
C551 C552 1.379 . S
C552 H536 0.931 . S
C552 C546 1.383 . S
C552 C551 1.379 . S
H553 C547 0.959 . S
H554 C547 0.961 . S
H555 C547 0.960 . S
H556 C548 0.930 . S
H557 C549 0.929 . S
H558 C566 0.929 . S
H559 C568 0.930 . S
H560 C570 0.930 . S
H561 C573 0.929 . S
H562 C576 0.930 . S
H563 C578 0.960 . S
H564 C578 0.960 . S
H565 C578 0.960 . S
C566 H558 0.929 . S
C566 C567 1.377 . S
C566 C568 1.384 . S
C567 C566 1.377 . S
C567 C573 1.390 . S
C568 H559 0.930 . S
C568 C566 1.384 . S
C568 C569 1.372 . S
C569 C568 1.372 . S
C569 C570 1.400 . S
C569 C574 1.490 . S
C570 H560 0.930 . S
C570 C569 1.400 . S
C570 C573 1.386 . S
H571 C587 0.930 . S
H572 C588 0.931 . S
C573 H561 0.929 . S
C573 C567 1.390 . S
C573 C570 1.386 . S
C574 C569 1.490 . S
C574 C576 1.395 . S
C574 C577 1.403 . S
H575 C581 0.930 . S
C576 H562 0.930 . S
C576 C574 1.395 . S
C576 C579 1.403 . S
C577 C574 1.403 . S
C577 C578 1.524 . S
C577 C581 1.400 . S
C578 H563 0.960 . S
C578 H564 0.960 . S
C578 H565 0.960 . S
C578 C577 1.524 . S
C579 C576 1.403 . S
C579 C580 1.392 . S
C579 C583 1.495 . S
C580 C579 1.392 . S
C580 C581 1.385 . S
C580 C582 1.478 . S
C581 H575 0.930 . S
C581 C577 1.400 . S
C581 C580 1.385 . S
C582 C580 1.478 . S
C582 C584 1.381 . S
C582 C588 1.383 . S
C583 C579 1.495 . S
C583 H589 0.959 . S
C583 H590 0.961 . S
C583 H591 0.960 . S
C584 C582 1.381 . S
C584 C585 1.394 . S
C584 H592 0.930 . S
C585 C584 1.394 . S
C585 C586 1.383 . S
C585 H593 0.929 . S
C586 C585 1.383 . S
C586 C587 1.377 . S
C587 H571 0.930 . S
C587 C586 1.377 . S
C587 C588 1.379 . S
C588 H572 0.931 . S
C588 C582 1.383 . S
C588 C587 1.379 . S
H589 C583 0.959 . S
H590 C583 0.961 . S
H591 C583 0.960 . S
H592 C584 0.930 . S
H593 C585 0.929 . S
H594 C602 0.929 . S
H595 C604 0.930 . S
H596 C606 0.930 . S
H597 C609 0.929 . S
H598 C612 0.930 . S
H599 C614 0.960 . S
H600 C614 0.960 . S
H601 C614 0.960 . S
C602 H594 0.929 . S
C602 C603 1.377 . S
C602 C604 1.384 . S
C603 C602 1.377 . S
C603 C609 1.390 . S
C604 H595 0.930 . S
C604 C602 1.384 . S
C604 C605 1.372 . S
C605 C604 1.372 . S
C605 C606 1.400 . S
C605 C610 1.490 . S
C606 H596 0.930 . S
C606 C605 1.400 . S
C606 C609 1.386 . S
H607 C623 0.930 . S
H608 C624 0.931 . S
C609 H597 0.929 . S
C609 C603 1.390 . S
C609 C606 1.386 . S
C610 C605 1.490 . S
C610 C612 1.395 . S
C610 C613 1.403 . S
H611 C617 0.930 . S
C612 H598 0.930 . S
C612 C610 1.395 . S
C612 C615 1.403 . S
C613 C610 1.403 . S
C613 C614 1.524 . S
C613 C617 1.400 . S
C614 H599 0.960 . S
C614 H600 0.960 . S
C614 H601 0.960 . S
C614 C613 1.524 . S
C615 C612 1.403 . S
C615 C616 1.392 . S
C615 C619 1.495 . S
C616 C615 1.392 . S
C616 C617 1.385 . S
C616 C618 1.478 . S
C617 H611 0.930 . S
C617 C613 1.400 . S
C617 C616 1.385 . S
C618 C616 1.478 . S
C618 C620 1.381 . S
C618 C624 1.383 . S
C619 C615 1.495 . S
C619 H625 0.959 . S
C619 H626 0.961 . S
C619 H627 0.960 . S
C620 C618 1.381 . S
C620 C621 1.394 . S
C620 H628 0.930 . S
C621 C620 1.394 . S
C621 C622 1.383 . S
C621 H629 0.929 . S
C622 C621 1.383 . S
C622 C623 1.377 . S
C623 H607 0.930 . S
C623 C622 1.377 . S
C623 C624 1.379 . S
C624 H608 0.931 . S
C624 C618 1.383 . S
C624 C623 1.379 . S
H625 C619 0.959 . S
H626 C619 0.961 . S
H627 C619 0.960 . S
H628 C620 0.930 . S
H629 C621 0.929 . S
H630 C638 0.929 . S
H631 C640 0.930 . S
H632 C642 0.930 . S
H633 C645 0.929 . S
H634 C648 0.930 . S
H635 C650 0.960 . S
H636 C650 0.960 . S
H637 C650 0.960 . S
C638 H630 0.929 . S
C638 C639 1.377 . S
C638 C640 1.384 . S
C639 C638 1.377 . S
C639 C645 1.390 1_455 S
C640 H631 0.930 . S
C640 C638 1.384 . S
C640 C641 1.372 . S
C641 C640 1.372 . S
C641 C642 1.400 1_455 S
C641 C646 1.490 . S
C642 H632 0.930 . S
C642 C641 1.400 1_655 S
C642 C645 1.386 . S
H643 C659 0.930 1_655 S
H644 C660 0.931 1_655 S
C645 H633 0.929 . S
C645 C639 1.390 1_655 S
C645 C642 1.386 . S
C646 C641 1.490 . S
C646 C648 1.395 . S
C646 C649 1.403 . S
H647 C653 0.930 1_556 S
C648 H634 0.930 . S
C648 C646 1.395 . S
C648 C651 1.403 . S
C649 C646 1.403 . S
C649 C650 1.524 . S
C649 C653 1.400 . S
C650 H635 0.960 . S
C650 H636 0.960 . S
C650 H637 0.960 . S
C650 C649 1.524 . S
C651 C648 1.403 . S
C651 C652 1.392 1_554 S
C651 C655 1.495 1_554 S
C652 C651 1.392 1_556 S
C652 C653 1.385 1_556 S
C652 C654 1.478 . S
C653 H647 0.930 1_554 S
C653 C649 1.400 . S
C653 C652 1.385 1_554 S
C654 C652 1.478 . S
C654 C656 1.381 . S
C654 C660 1.383 . S
C655 C651 1.495 1_556 S
C655 H661 0.959 1_556 S
C655 H662 0.961 . S
C655 H663 0.960 . S
C656 C654 1.381 . S
C656 C657 1.394 . S
C656 H664 0.930 . S
C657 C656 1.394 . S
C657 C658 1.383 . S
C657 H665 0.929 . S
C658 C657 1.383 . S
C658 C659 1.377 . S
C659 H643 0.930 1_455 S
C659 C658 1.377 . S
C659 C660 1.379 . S
C660 H644 0.931 1_455 S
C660 C654 1.383 . S
C660 C659 1.379 . S
H661 C655 0.959 1_554 S
H662 C655 0.961 . S
H663 C655 0.960 . S
H664 C656 0.930 . S
H665 C657 0.929 . S
H666 C674 0.929 . S
H667 C676 0.930 . S
H668 C678 0.930 . S
H669 C681 0.929 . S
H670 C684 0.930 . S
H671 C686 0.960 . S
H672 C686 0.960 . S
H673 C686 0.960 . S
C674 H666 0.929 . S
C674 C675 1.377 . S
C674 C676 1.384 . S
C675 C674 1.377 . S
C675 C681 1.390 . S
C676 H667 0.930 . S
C676 C674 1.384 . S
C676 C677 1.372 . S
C677 C676 1.372 . S
C677 C678 1.400 . S
C677 C682 1.490 . S
C678 H668 0.930 . S
C678 C677 1.400 . S
C678 C681 1.386 . S
H679 C695 0.930 1_565 S
H680 C696 0.931 1_565 S
C681 H669 0.929 . S
C681 C675 1.390 . S
C681 C678 1.386 . S
C682 C677 1.490 . S
C682 C684 1.395 . S
C682 C685 1.403 . S
H683 C689 0.930 . S
C684 H670 0.930 . S
C684 C682 1.395 . S
C684 C687 1.403 . S
C685 C682 1.403 . S
C685 C686 1.524 . S
C685 C689 1.400 . S
C686 H671 0.960 . S
C686 H672 0.960 . S
C686 H673 0.960 . S
C686 C685 1.524 . S
C687 C684 1.403 . S
C687 C688 1.392 . S
C687 C691 1.495 1_545 S
C688 C687 1.392 . S
C688 C689 1.385 . S
C688 C690 1.478 . S
C689 H683 0.930 . S
C689 C685 1.400 . S
C689 C688 1.385 . S
C690 C688 1.478 . S
C690 C692 1.381 . S
C690 C696 1.383 . S
C691 C687 1.495 1_565 S
C691 H697 0.959 . S
C691 H698 0.961 . S
C691 H699 0.960 . S
C692 C690 1.381 . S
C692 C693 1.394 . S
C692 H700 0.930 . S
C693 C692 1.394 . S
C693 C694 1.383 . S
C693 H701 0.929 . S
C694 C693 1.383 . S
C694 C695 1.377 . S
C695 H679 0.930 1_545 S
C695 C694 1.377 . S
C695 C696 1.379 . S
C696 H680 0.931 1_545 S
C696 C690 1.383 . S
C696 C695 1.379 . S
H697 C691 0.959 . S
H698 C691 0.961 . S
H699 C691 0.960 . S
H700 C692 0.930 . S
H701 C693 0.929 . S
H702 C710 0.929 . S
H703 C712 0.930 . S
H704 C714 0.930 . S
H705 C717 0.929 . S
H706 C720 0.930 . S
H707 C722 0.960 . S
H708 C722 0.960 . S
H709 C722 0.960 . S
C710 H702 0.929 . S
C710 C711 1.377 . S
C710 C712 1.384 . S
C711 C710 1.377 . S
C711 C717 1.390 . S
C712 H703 0.930 . S
C712 C710 1.384 . S
C712 C713 1.372 . S
C713 C712 1.372 . S
C713 C714 1.400 . S
C713 C718 1.490 . S
C714 H704 0.930 . S
C714 C713 1.400 . S
C714 C717 1.386 . S
H715 C731 0.930 . S
H716 C732 0.931 . S
C717 H705 0.929 . S
C717 C711 1.390 . S
C717 C714 1.386 . S
C718 C713 1.490 . S
C718 C720 1.395 . S
C718 C721 1.403 . S
H719 C725 0.930 . S
C720 H706 0.930 . S
C720 C718 1.395 . S
C720 C723 1.403 . S
C721 C718 1.403 . S
C721 C722 1.524 . S
C721 C725 1.400 . S
C722 H707 0.960 . S
C722 H708 0.960 . S
C722 H709 0.960 . S
C722 C721 1.524 . S
C723 C720 1.403 . S
C723 C724 1.392 . S
C723 C727 1.495 . S
C724 C723 1.392 . S
C724 C725 1.385 . S
C724 C726 1.478 . S
C725 H719 0.930 . S
C725 C721 1.400 . S
C725 C724 1.385 . S
C726 C724 1.478 . S
C726 C728 1.381 . S
C726 C732 1.383 . S
C727 C723 1.495 . S
C727 H733 0.959 . S
C727 H734 0.961 . S
C727 H735 0.960 . S
C728 C726 1.381 . S
C728 C729 1.394 . S
C728 H736 0.930 . S
C729 C728 1.394 . S
C729 C730 1.383 . S
C729 H737 0.929 . S
C730 C729 1.383 . S
C730 C731 1.377 . S
C731 H715 0.930 . S
C731 C730 1.377 . S
C731 C732 1.379 . S
C732 H716 0.931 . S
C732 C726 1.383 . S
C732 C731 1.379 . S
H733 C727 0.959 . S
H734 C727 0.961 . S
H735 C727 0.960 . S
H736 C728 0.930 . S
H737 C729 0.929 . S
H738 C746 0.929 . S
H739 C748 0.930 . S
H740 C750 0.936 . S
H741 C753 0.902 1_565 S
H742 C756 0.930 . S
H743 C758 0.960 . S
H744 C758 0.960 . S
H745 C758 0.960 1_565 S
C746 H738 0.929 . S
C746 C747 1.377 . S
C746 C748 1.384 . S
C747 C746 1.377 . S
C747 C753 1.414 . S
C748 H739 0.930 . S
C748 C746 1.384 . S
C748 C749 1.372 . S
C749 C748 1.372 . S
C749 C750 1.392 1_545 S
C749 C754 1.490 . S
C750 H740 0.936 . S
C750 C749 1.392 1_565 S
C750 C753 1.391 1_565 S
H751 C767 0.930 . S
H752 C768 0.931 . S
C753 H741 0.902 1_545 S
C753 C747 1.414 . S
C753 C750 1.391 1_545 S
C754 C749 1.490 . S
C754 C756 1.395 . S
C754 C757 1.403 . S
H755 C761 0.930 . S
C756 H742 0.930 . S
C756 C754 1.395 . S
C756 C759 1.403 . S
C757 C754 1.403 . S
C757 C758 1.524 . S
C757 C761 1.400 . S
C758 H743 0.960 . S
C758 H744 0.960 . S
C758 H745 0.960 1_545 S
C758 C757 1.524 . S
C759 C756 1.403 . S
C759 C760 1.392 . S
C759 C763 1.495 . S
C760 C759 1.392 . S
C760 C761 1.385 . S
C760 C762 1.478 . S
C761 H755 0.930 . S
C761 C757 1.400 . S
C761 C760 1.385 . S
C762 C760 1.478 . S
C762 C764 1.381 . S
C762 C768 1.383 1_545 S
C763 C759 1.495 . S
C763 H769 0.959 . S
C763 H770 0.961 . S
C763 H771 0.960 . S
C764 C762 1.381 . S
C764 C765 1.394 . S
C764 H772 0.930 . S
C765 C764 1.394 . S
C765 C766 1.383 . S
C765 H773 0.929 . S
C766 C765 1.383 . S
C766 C767 1.377 1_545 S
C767 H751 0.930 . S
C767 C766 1.377 1_565 S
C767 C768 1.379 . S
C768 H752 0.931 . S
C768 C762 1.383 1_565 S
C768 C767 1.379 . S
H769 C763 0.959 . S
H770 C763 0.961 . S
H771 C763 0.960 . S
H772 C764 0.930 . S
H773 C765 0.929 . S
H774 C782 0.929 . S
H775 C784 0.930 . S
H776 C786 0.930 . S
H777 C789 0.929 . S
H778 C792 0.930 . S
H779 C794 0.960 . S
H780 C794 0.960 . S
H781 C794 0.960 . S
C782 H774 0.929 . S
C782 C783 1.377 . S
C782 C784 1.384 . S
C783 C782 1.377 . S
C783 C789 1.390 . S
C784 H775 0.930 . S
C784 C782 1.384 . S
C784 C785 1.372 . S
C785 C784 1.372 . S
C785 C786 1.400 . S
C785 C790 1.490 . S
C786 H776 0.930 . S
C786 C785 1.400 . S
C786 C789 1.386 . S
H787 C803 0.930 . S
H788 C804 0.931 . S
C789 H777 0.929 . S
C789 C783 1.390 . S
C789 C786 1.386 . S
C790 C785 1.490 . S
C790 C792 1.395 . S
C790 C793 1.403 . S
H791 C797 0.937 . S
C792 H778 0.930 . S
C792 C790 1.395 . S
C792 C795 1.403 1_556 S
C793 C790 1.403 . S
C793 C794 1.524 . S
C793 C797 1.400 . S
C794 H779 0.960 . S
C794 H780 0.960 . S
C794 H781 0.960 . S
C794 C793 1.524 . S
C795 C792 1.403 1_554 S
C795 C796 1.392 . S
C795 C799 1.495 . S
C796 C795 1.392 . S
C796 C797 1.385 1_554 S
C796 C798 1.478 . S
C797 H791 0.937 . S
C797 C793 1.400 . S
C797 C796 1.385 1_556 S
C798 C796 1.478 . S
C798 C800 1.381 . S
C798 C804 1.383 . S
C799 C795 1.495 . S
C799 H805 0.959 . S
C799 H806 0.961 . S
C799 H807 0.960 . S
C800 C798 1.381 . S
C800 C801 1.394 . S
C800 H808 0.930 . S
C801 C800 1.394 . S
C801 C802 1.383 . S
C801 H809 0.929 . S
C802 C801 1.383 . S
C802 C803 1.377 . S
C803 H787 0.930 . S
C803 C802 1.377 . S
C803 C804 1.379 . S
C804 H788 0.931 . S
C804 C798 1.383 . S
C804 C803 1.379 . S
H805 C799 0.959 . S
H806 C799 0.961 . S
H807 C799 0.960 . S
H808 C800 0.930 . S
H809 C801 0.929 . S
H810 C818 0.929 . S
H811 C820 0.930 . S
H812 C822 0.930 . S
H813 C825 0.929 . S
H814 C828 0.930 . S
H815 C830 0.960 . S
H816 C830 0.960 1_455 S
H817 C830 0.960 . S
C818 H810 0.929 . S
C818 C819 1.377 . S
C818 C820 1.384 . S
C819 C818 1.377 . S
C819 C825 1.390 1_455 S
C820 H811 0.930 . S
C820 C818 1.384 . S
C820 C821 1.372 . S
C821 C820 1.372 . S
C821 C822 1.400 1_455 S
C821 C826 1.490 . S
C822 H812 0.930 . S
C822 C821 1.400 1_655 S
C822 C825 1.386 . S
H823 C839 0.930 1_655 S
H824 C840 0.931 1_655 S
C825 H813 0.929 . S
C825 C819 1.390 1_655 S
C825 C822 1.386 . S
C826 C821 1.490 . S
C826 C828 1.395 . S
C826 C829 1.403 . S
H827 C833 0.934 . S
C828 H814 0.930 . S
C828 C826 1.395 . S
C828 C831 1.403 . S
C829 C826 1.403 . S
C829 C830 1.524 1_455 S
C829 C833 1.400 . S
C830 H815 0.960 . S
C830 H816 0.960 1_655 S
C830 H817 0.960 . S
C830 C829 1.524 1_655 S
C831 C828 1.403 . S
C831 C832 1.392 . S
C831 C835 1.495 . S
C832 C831 1.392 . S
C832 C833 1.385 . S
C832 C834 1.478 . S
C833 H827 0.934 . S
C833 C829 1.400 . S
C833 C832 1.385 . S
C834 C832 1.478 . S
C834 C836 1.381 . S
C834 C840 1.383 . S
C835 C831 1.495 . S
C835 H841 0.959 . S
C835 H842 0.961 . S
C835 H843 0.960 . S
C836 C834 1.381 . S
C836 C837 1.394 . S
C836 H844 0.930 . S
C837 C836 1.394 . S
C837 C838 1.383 . S
C837 H845 0.929 . S
C838 C837 1.383 . S
C838 C839 1.377 . S
C839 H823 0.930 1_455 S
C839 C838 1.377 . S
C839 C840 1.379 . S
C840 H824 0.931 1_455 S
C840 C834 1.383 . S
C840 C839 1.379 . S
H841 C835 0.959 . S
H842 C835 0.961 . S
H843 C835 0.960 . S
H844 C836 0.930 . S
H845 C837 0.929 . S
C207 C9 0.429 . S
C226 C189 0.449 . S
C243 C49 0.168 . S
C262 C167 0.268 . S
C279 C89 0.159 . S
C298 C180 0.157 . S
C315 C26 0.290 . S
C334 C193 0.227 . S
C370 C163 0.440 . S
C351 C66 0.486 . S
C406 C176 0.548 . S
C387 C106 0.471 . S
C423 C43 2.835 . S
C442 C141 2.786 . S
C459 C83 2.952 . S
C478 C154 2.913 1_655 S
C495 C22 3.164 . S
C514 C124 2.931 . S
C550 C137 2.982 . S
C531 C62 3.174 . S
C586 C150 2.887 . S
C567 C102 3.054 . S
C603 C3 2.840 . S
C622 C128 2.802 . S
C658 C155 1.728 . S
C639 C15 1.693 . S
C675 C55 1.696 . S
C694 C129 1.759 . S
C711 C95 1.694 . S
C730 C142 1.764 . S
C766 C181 1.294 . S
C747 C42 1.271 . S
C802 C194 1.285 . S
C783 C82 1.289 . S
C819 C2 1.257 . S
C838 C168 1.290 . S
