# Generated by pormake.
# Topology hwx, (6,3)-cn, num edge types: 1
# Building blocks:
#     Node 0, Type 0, BuildingBlock: OJICUG_clean_sbu_0, # of connection points: 6
#     Node 1, Type 0, BuildingBlock: OJICUG_clean_sbu_0, # of connection points: 6
#     Node 2, Type 0, BuildingBlock: OJICUG_clean_sbu_0, # of connection points: 6
#     Node 3, Type 0, BuildingBlock: OJICUG_clean_sbu_0, # of connection points: 6
#     Node 4, Type 1, BuildingBlock: BELTOD_clean_linker_0, # of connection points: 3
#     Node 5, Type 1, BuildingBlock: BELTOD_clean_linker_0, # of connection points: 3
#     Node 6, Type 1, BuildingBlock: BELTOD_clean_linker_0, # of connection points: 3
#     Node 7, Type 1, BuildingBlock: BELTOD_clean_linker_0, # of connection points: 3
#     Node 8, Type 1, BuildingBlock: BELTOD_clean_linker_0, # of connection points: 3
#     Node 9, Type 1, BuildingBlock: BELTOD_clean_linker_0, # of connection points: 3
#     Node 10, Type 1, BuildingBlock: BELTOD_clean_linker_0, # of connection points: 3
#     Node 11, Type 1, BuildingBlock: BELTOD_clean_linker_0, # of connection points: 3
#     Edge 12, Type (0, 1), BuildingBlock: EZIPEK_clean_linker_0, # of connection points: 2
#     Edge 13, Type (0, 1), BuildingBlock: EZIPEK_clean_linker_0, # of connection points: 2
#     Edge 14, Type (0, 1), BuildingBlock: EZIPEK_clean_linker_0, # of connection points: 2
#     Edge 15, Type (0, 1), BuildingBlock: EZIPEK_clean_linker_0, # of connection points: 2
#     Edge 16, Type (0, 1), BuildingBlock: EZIPEK_clean_linker_0, # of connection points: 2
#     Edge 17, Type (0, 1), BuildingBlock: EZIPEK_clean_linker_0, # of connection points: 2
#     Edge 18, Type (0, 1), BuildingBlock: EZIPEK_clean_linker_0, # of connection points: 2
#     Edge 19, Type (0, 1), BuildingBlock: EZIPEK_clean_linker_0, # of connection points: 2
#     Edge 20, Type (0, 1), BuildingBlock: EZIPEK_clean_linker_0, # of connection points: 2
#     Edge 21, Type (0, 1), BuildingBlock: EZIPEK_clean_linker_0, # of connection points: 2
#     Edge 22, Type (0, 1), BuildingBlock: EZIPEK_clean_linker_0, # of connection points: 2
#     Edge 23, Type (0, 1), BuildingBlock: EZIPEK_clean_linker_0, # of connection points: 2
#     Edge 24, Type (0, 1), BuildingBlock: EZIPEK_clean_linker_0, # of connection points: 2
#     Edge 25, Type (0, 1), BuildingBlock: EZIPEK_clean_linker_0, # of connection points: 2
#     Edge 26, Type (0, 1), BuildingBlock: EZIPEK_clean_linker_0, # of connection points: 2
#     Edge 27, Type (0, 1), BuildingBlock: EZIPEK_clean_linker_0, # of connection points: 2
#     Edge 28, Type (0, 1), BuildingBlock: EZIPEK_clean_linker_0, # of connection points: 2
#     Edge 29, Type (0, 1), BuildingBlock: EZIPEK_clean_linker_0, # of connection points: 2
#     Edge 30, Type (0, 1), BuildingBlock: EZIPEK_clean_linker_0, # of connection points: 2
#     Edge 31, Type (0, 1), BuildingBlock: EZIPEK_clean_linker_0, # of connection points: 2
#     Edge 32, Type (0, 1), BuildingBlock: EZIPEK_clean_linker_0, # of connection points: 2
#     Edge 33, Type (0, 1), BuildingBlock: EZIPEK_clean_linker_0, # of connection points: 2
#     Edge 34, Type (0, 1), BuildingBlock: EZIPEK_clean_linker_0, # of connection points: 2
#     Edge 35, Type (0, 1), BuildingBlock: EZIPEK_clean_linker_0, # of connection points: 2
# Relax obj value: 0.068
# Max RMSD: 0.096
# Mean RMSD: 0.087
data_MOF--net-hwx--node1-OJICUG_clean_sbu_0--node2-BELTOD_clean_linker_0--edge1-EZIPEK_clean_linker_0
_symmetry_space_group_name_H-M    P1
_symmetry_Int_Tables_number       1
_symmetry_cell_setting            triclinic
loop_
_symmetry_equiv_pos_as_xyz
'x, y, z'
_cell_length_a     43.677822
_cell_length_b     43.707658
_cell_length_c     19.412664
_cell_angle_alpha  89.332422
_cell_angle_beta   90.744095
_cell_angle_gamma 89.98946
loop_
_atom_site_label
_atom_site_type_symbol
_atom_site_fract_x
_atom_site_fract_y
_atom_site_fract_z
_atom_type_partial_charge
Sc0 Sc 0.21096 0.20475 0.09291 0.0
Sc1 Sc 0.16085 0.15626 0.00157 0.0
Sc2 Sc 0.2093 0.20746 0.91286 0.0
O3 O 0.19361 0.18948 0.00242 0.0
C4 C 0.20735 0.26656 0.00282 0.0
C5 C 0.14055 0.19879 0.126 0.0
C6 C 0.13774 0.20011 0.88104 0.0
C7 C 0.20448 0.13315 0.12251 0.0
C8 C 0.2707 0.20451 0.00498 0.0
C9 C 0.20426 0.13714 0.87781 0.0
O10 O 0.21179 0.25195 0.05906 0.0
O11 O 0.13561 0.17716 0.08397 0.0
O12 O 0.16442 0.20961 0.867 0.0
O13 O 0.21343 0.15986 0.13758 0.0
O14 O 0.25628 0.20902 0.94844 0.0
O15 O 0.18245 0.13175 0.91906 0.0
O16 O 0.2574 0.19851 0.06127 0.0
O17 O 0.18646 0.12742 0.07243 0.0
O18 O 0.21733 0.16296 0.87187 0.0
O19 O 0.16619 0.21212 0.13306 0.0
O20 O 0.20292 0.25366 0.94533 0.0
O21 O 0.13207 0.18177 0.93048 0.0
Sc22 Sc 0.28223 0.70817 0.42249 0.0
Sc23 Sc 0.33231 0.67219 0.54175 0.0
Sc24 Sc 0.272 0.7181 0.60006 0.0
O25 O 0.29545 0.69935 0.52137 0.0
C26 C 0.27546 0.77324 0.49406 0.0
C27 C 0.35445 0.71062 0.41083 0.0
C28 C 0.34121 0.72328 0.65357 0.0
C29 C 0.30057 0.63732 0.41821 0.0
C30 C 0.21787 0.70327 0.4927 0.0
C31 C 0.28466 0.65179 0.65796 0.0
O32 O 0.27542 0.75637 0.44107 0.0
O33 O 0.35973 0.69245 0.46118 0.0
O34 O 0.31275 0.72839 0.65883 0.0
O35 O 0.28819 0.66129 0.39261 0.0
O36 O 0.22799 0.71146 0.55127 0.0
O37 O 0.30943 0.64884 0.62497 0.0
O38 O 0.23498 0.69817 0.44178 0.0
O39 O 0.31574 0.63699 0.47449 0.0
O40 O 0.26696 0.67474 0.65172 0.0
O41 O 0.32785 0.71928 0.39243 0.0
O42 O 0.2756 0.76284 0.55537 0.0
O43 O 0.35244 0.70483 0.61071 0.0
Sc44 Sc 0.76367 0.76073 0.90487 0.0
Sc45 Sc 0.81407 0.81384 0.98115 0.0
Sc46 Sc 0.76842 0.7666 0.08545 0.0
O47 O 0.78201 0.78048 0.99058 0.0
C48 C 0.70549 0.76865 0.99845 0.0
C49 C 0.76902 0.83126 0.8584 0.0
C50 C 0.77527 0.83773 0.10865 0.0
C51 C 0.83288 0.76692 0.86303 0.0
C52 C 0.7713 0.70353 0.00628 0.0
C53 C 0.84038 0.77657 0.1097 0.0
O54 O 0.7177 0.76699 0.93957 0.0
O55 O 0.78702 0.83909 0.90694 0.0
O56 O 0.76197 0.81244 0.12062 0.0
O57 O 0.80802 0.75193 0.86333 0.0
O58 O 0.77439 0.71906 0.0608 0.0
O59 O 0.84445 0.79224 0.055 0.0
O60 O 0.76555 0.71527 0.94755 0.0
O61 O 0.83756 0.79034 0.90004 0.0
O62 O 0.81441 0.7663 0.12786 0.0
O63 O 0.75999 0.80389 0.84944 0.0
O64 O 0.72079 0.76719 0.05463 0.0
O65 O 0.7949 0.84147 0.06148 0.0
Sc66 Sc 0.71069 0.28132 0.58062 0.0
Sc67 Sc 0.67542 0.33823 0.47669 0.0
Sc68 Sc 0.71381 0.27682 0.39998 0.0
O69 O 0.69976 0.29867 0.48588 0.0
C70 C 0.77275 0.27425 0.49693 0.0
C71 C 0.71846 0.35254 0.60623 0.0
C72 C 0.72326 0.34709 0.35792 0.0
C73 C 0.64168 0.3036 0.59897 0.0
C74 C 0.6996 0.21989 0.49927 0.0
C75 C 0.64721 0.29722 0.35526 0.0
O76 O 0.75788 0.27459 0.55289 0.0
O77 O 0.70057 0.36109 0.55765 0.0
O78 O 0.72578 0.31861 0.34739 0.0
O79 O 0.66478 0.28758 0.61737 0.0
O80 O 0.70505 0.23168 0.44067 0.0
O81 O 0.64748 0.32064 0.39357 0.0
O82 O 0.69901 0.23517 0.55436 0.0
O83 O 0.64154 0.32213 0.54795 0.0
O84 O 0.66854 0.2774 0.35513 0.0
O85 O 0.72442 0.32475 0.61979 0.0
O86 O 0.76019 0.27531 0.43754 0.0
O87 O 0.70723 0.35817 0.40563 0.0
P88 P 0.29385 0.483 0.02634 0.0
H89 H 0.3141 0.54457 0.0542 0.0
H90 H 0.31295 0.57637 0.15682 0.0
H91 H 0.26801 0.50379 0.26887 0.0
H92 H 0.26843 0.47197 0.16538 0.0
H93 H 0.30048 0.42646 0.10355 0.0
H94 H 0.27332 0.3775 0.09875 0.0
H95 H 0.20871 0.41609 0.95214 0.0
H96 H 0.2358 0.46511 0.9566 0.0
H97 H 0.32819 0.49928 0.90284 0.0
H98 H 0.24072 0.52097 0.99099 0.0
O99 O 0.33021 0.47157 0.02137 0.0
H100 H 0.3201 0.53902 0.81457 0.0
H101 H 0.23218 0.56011 0.90071 0.0
C102 C 0.29096 0.50609 0.1018 0.0
C103 C 0.30356 0.53556 0.10039 0.0
C104 C 0.30299 0.55367 0.15883 0.0
C105 C 0.29018 0.54241 0.21986 0.0
C106 C 0.27771 0.51284 0.22178 0.0
C107 C 0.27803 0.49474 0.1628 0.0
C108 C 0.27039 0.4493 0.02999 0.0
C109 C 0.28011 0.42462 0.07143 0.0
C110 C 0.26455 0.39684 0.06913 0.0
C111 C 0.23904 0.39344 0.02539 0.0
C112 C 0.22818 0.41857 0.98674 0.0
C113 C 0.24382 0.44646 0.98907 0.0
C114 C 0.285 0.50719 0.95328 0.0
C115 C 0.30693 0.51201 0.90224 0.0
C116 C 0.30235 0.53463 0.85191 0.0
C117 C 0.27567 0.55245 0.85172 0.0
C118 C 0.25287 0.54646 0.90028 0.0
C119 C 0.25771 0.52415 0.95141 0.0
P120 P -0.00115 0.77728 0.5077 0.0
H121 H 0.98002 0.81371 0.62512 0.0
H122 H 0.94299 0.80335 0.7159 0.0
H123 H 0.93551 0.70976 0.64996 0.0
H124 H 0.97283 0.72005 0.55876 0.0
H125 H 0.05999 0.79142 0.55631 0.0
H126 H 0.10908 0.76505 0.5467 0.0
H127 H 0.06419 0.68967 0.44561 0.0
H128 H 0.01456 0.71612 0.45585 0.0
H129 H 0.93234 0.7785 0.49288 0.0
H130 H 0.01008 0.76434 0.36177 0.0
O131 O 0.00724 0.81454 0.50721 0.0
H132 H 0.89802 0.77503 0.3931 0.0
H133 H 0.9753 0.76075 0.26139 0.0
C134 C 0.97898 0.76764 0.58522 0.0
C135 C 0.97125 0.7907 0.63139 0.0
C136 C 0.9502 0.78482 0.68325 0.0
C137 C 0.93664 0.75587 0.68915 0.0
C138 C 0.94602 0.73215 0.6462 0.0
C139 C 0.96722 0.73803 0.5944 0.0
C140 C 0.03394 0.7561 0.50482 0.0
C141 C 0.06058 0.76917 0.53238 0.0
C142 C 0.0885 0.75409 0.52733 0.0
C143 C 0.09009 0.7256 0.49523 0.0
C144 C 0.06322 0.71168 0.47055 0.0
C145 C 0.03511 0.72683 0.47593 0.0
C146 C 0.97377 0.77067 0.43519 0.0
C147 C 0.94204 0.77379 0.44309 0.0
C148 C 0.92239 0.77192 0.38619 0.0
C149 C 0.9342 0.76726 0.32044 0.0
C150 C 0.96588 0.76387 0.31217 0.0
C151 C 0.98562 0.76586 0.36933 0.0
P152 P 0.83055 0.47437 0.97954 0.0
H153 H 0.85036 0.42821 0.88213 0.0
H154 H 0.82341 0.40328 0.78617 0.0
H155 H 0.74752 0.46533 0.80827 0.0
H156 H 0.77426 0.49018 0.90418 0.0
H157 H 0.846 0.52896 0.90128 0.0
H158 H 0.83054 0.58276 0.91023 0.0
H159 H 0.77701 0.56039 0.08904 0.0
H160 H 0.79114 0.50659 0.07835 0.0
H161 H 0.78574 0.42388 0.98475 0.0
H162 H 0.84314 0.4736 0.12769 0.0
O163 O 0.86861 0.47144 0.97809 0.0
H164 H 0.76318 0.39569 0.08022 0.0
H165 H 0.81957 0.44559 0.22418 0.0
C166 C 0.81456 0.46137 0.89931 0.0
C167 C 0.8284 0.43712 0.86482 0.0
C168 C 0.81307 0.4229 0.81032 0.0
C169 C 0.78366 0.43268 0.79028 0.0
C170 C 0.77037 0.45781 0.82272 0.0
C171 C 0.78569 0.47199 0.87721 0.0
C172 C 0.82031 0.51388 0.98989 0.0
C173 C 0.83103 0.53566 0.94254 0.0
C174 C 0.82216 0.56622 0.94748 0.0
C175 C 0.80272 0.57542 0.00041 0.0
C176 C 0.79207 0.55365 0.04799 0.0
C177 C 0.80045 0.52297 0.04217 0.0
C178 C 0.81614 0.45104 0.04904 0.0
C179 C 0.79376 0.42869 0.03639 0.0
C180 C 0.78077 0.41253 0.09094 0.0
C181 C 0.78966 0.41868 0.159 0.0
C182 C 0.81251 0.44054 0.17183 0.0
C183 C 0.82593 0.4564 0.11697 0.0
P184 P 0.00859 0.29893 0.49261 0.0
H185 H 0.05334 0.32075 0.39281 0.0
H186 H 0.08036 0.29468 0.30036 0.0
H187 H 0.02549 0.21401 0.33396 0.0
H188 H -0.00156 0.24002 0.42667 0.0
H189 H 0.95731 0.3335 0.4347 0.0
H190 H 0.9017 0.32546 0.43684 0.0
H191 H 0.91514 0.24215 0.55467 0.0
H192 H 0.97077 0.24969 0.55092 0.0
H193 H 0.06613 0.26471 0.50965 0.0
H194 H 0.99321 0.29646 0.63903 0.0
O195 O 0.01546 0.33648 0.49308 0.0
H196 H 0.09137 0.24119 0.6098 0.0
H197 H 0.01864 0.27234 0.73971 0.0
C198 C 0.02358 0.28246 0.41573 0.0
C199 C 0.04648 0.2978 0.37908 0.0
C200 C 0.06193 0.28295 0.32656 0.0
C201 C 0.05476 0.25256 0.31061 0.0
C202 C 0.03106 0.23757 0.34545 0.0
C203 C 0.01563 0.25244 0.39801 0.0
C204 C 0.968 0.29269 0.4944 0.0
C205 C 0.9483 0.31355 0.46108 0.0
C206 C 0.9167 0.30894 0.46208 0.0
C207 C 0.9045 0.28335 0.49634 0.0
C208 C 0.92425 0.26208 0.52835 0.0
C209 C 0.95588 0.26654 0.52662 0.0
C210 C 0.02734 0.28175 0.56656 0.0
C211 C 0.05532 0.26643 0.55927 0.0
C212 C 0.06981 0.25299 0.6164 0.0
C213 C 0.05669 0.25489 0.68169 0.0
C214 C 0.02891 0.27054 0.68943 0.0
C215 C 0.01449 0.28422 0.63217 0.0
P216 P 0.7661 0.00033 0.48717 0.0
H217 H 0.8144 0.97252 0.40754 0.0
H218 H 0.81336 0.93643 0.31216 0.0
H219 H 0.71476 0.94136 0.3045 0.0
H220 H 0.71578 0.97812 0.39969 0.0
H221 H 0.75617 0.04739 0.38392 0.0
H222 H 0.73215 0.09783 0.39065 0.0
H223 H 0.69455 0.07341 0.58803 0.0
H224 H 0.71942 0.02319 0.5825 0.0
H225 H 0.80514 0.98114 0.60289 0.0
H226 H 0.71394 0.96194 0.52675 0.0
O227 O 0.80085 0.01584 0.49552 0.0
H228 H 0.79965 0.94118 0.69097 0.0
H229 H 0.70854 0.92164 0.61557 0.0
C230 C 0.76518 0.97822 0.40994 0.0
C231 C 0.79258 0.96656 0.38424 0.0
C232 C 0.79202 0.946 0.32993 0.0
C233 C 0.76402 0.93651 0.30127 0.0
C234 C 0.73656 0.94878 0.32563 0.0
C235 C 0.73716 0.9696 0.37982 0.0
C236 C 0.73957 0.03161 0.4826 0.0
C237 C 0.74182 0.0524 0.42747 0.0
C238 C 0.7281 0.08112 0.4312 0.0
C239 C 0.71181 0.08922 0.48995 0.0
C240 C 0.70691 0.06734 0.54214 0.0
C241 C 0.72116 0.03873 0.53894 0.0
C242 C 0.75991 0.97451 0.55835 0.0
C243 C 0.78372 0.96877 0.60582 0.0
C244 C 0.78063 0.946 0.65612 0.0
C245 C 0.75371 0.92867 0.65958 0.0
C246 C 0.72938 0.93504 0.61373 0.0
C247 C 0.73251 0.95788 0.56317 0.0
P248 P 0.47974 0.30915 0.97535 0.0
H249 H 0.47608 0.33162 0.8337 0.0
H250 H 0.51136 0.32734 0.73684 0.0
H251 H 0.56745 0.26452 0.85607 0.0
H252 H 0.53213 0.26858 0.95277 0.0
H253 H 0.41478 0.32354 0.9782 0.0
H254 H 0.36895 0.29193 0.98363 0.0
H255 H 0.42463 0.21038 0.9836 0.0
H256 H 0.47091 0.24231 0.97328 0.0
H257 H 0.52561 0.34952 0.03223 0.0
H258 H 0.48837 0.26073 0.0831 0.0
O259 O 0.46861 0.34565 0.96953 0.0
H260 H 0.56324 0.34384 0.12608 0.0
H261 H 0.5266 0.2548 0.17566 0.0
C262 C 0.50204 0.30109 0.9008 0.0
C263 C 0.49563 0.31648 0.83854 0.0
C264 C 0.51558 0.31393 0.78329 0.0
C265 C 0.54197 0.2958 0.78989 0.0
C266 C 0.54713 0.2786 0.85036 0.0
C267 C 0.52712 0.2811 0.90553 0.0
C268 C 0.44629 0.28527 0.97681 0.0
C269 C 0.41732 0.29891 0.97847 0.0
C270 C 0.39112 0.28087 0.98138 0.0
C271 C 0.39343 0.24885 0.98408 0.0
C272 C 0.42241 0.23505 0.9812 0.0
C273 C 0.44871 0.25323 0.97614 0.0
C274 C 0.50392 0.30575 0.05091 0.0
C275 C 0.52514 0.32906 0.06421 0.0
C276 C 0.54665 0.32581 0.11749 0.0
C277 C 0.54753 0.29896 0.15772 0.0
C278 C 0.52605 0.27575 0.1453 0.0
C279 C 0.50428 0.27916 0.09225 0.0
P280 P 0.30676 0.0072 0.51065 0.0
H281 H 0.32819 0.05128 0.61243 0.0
H282 H 0.30165 0.07791 0.70486 0.0
H283 H 0.22087 0.02367 0.66683 0.0
H284 H 0.24731 0.99703 0.57428 0.0
H285 H 0.33967 0.95356 0.56288 0.0
H286 H 0.32959 0.89845 0.55413 0.0
H287 H 0.24659 0.9175 0.43862 0.0
H288 H 0.25609 0.97251 0.44914 0.0
H289 H 0.27178 0.0644 0.49381 0.0
H290 H 0.30702 0.99335 0.3638 0.0
O291 O 0.34454 0.01291 0.51247 0.0
H292 H 0.24764 0.089 0.39346 0.0
H293 H 0.28222 0.018 0.26311 0.0
C294 C 0.28987 0.02184 0.58739 0.0
C295 C 0.3051 0.04447 0.62522 0.0
C296 C 0.28999 0.05969 0.67771 0.0
C297 C 0.25945 0.05258 0.69241 0.0
C298 C 0.24455 0.02918 0.65633 0.0
C299 C 0.25967 0.01397 0.60383 0.0
C300 C 0.29907 0.96698 0.50508 0.0
C301 C 0.31933 0.94588 0.5357 0.0
C302 C 0.31359 0.91457 0.53082 0.0
C303 C 0.28748 0.90412 0.49534 0.0
C304 C 0.2669 0.92526 0.46584 0.0
C305 C 0.27246 0.95655 0.47153 0.0
C306 C 0.29071 0.02665 0.43646 0.0
C307 C 0.27429 0.05397 0.44395 0.0
C308 C 0.26046 0.06804 0.38676 0.0
C309 C 0.26298 0.05508 0.32138 0.0
C310 C 0.27993 0.02812 0.31345 0.0
C311 C 0.29406 0.01419 0.37068 0.0
P312 P 0.47402 0.82154 0.03243 0.0
H313 H 0.49813 0.80372 0.16867 0.0
H314 H 0.47574 0.77557 0.26595 0.0
H315 H 0.3903 0.7686 0.15356 0.0
H316 H 0.41253 0.79575 0.05619 0.0
H317 H 0.53005 0.85865 0.03027 0.0
H318 H 0.58441 0.84489 0.02593 0.0
H319 H 0.5601 0.74921 0.02176 0.0
H320 H 0.50596 0.76291 0.03215 0.0
H321 H 0.41587 0.84109 0.97051 0.0
H322 H 0.48945 0.77998 0.91773 0.0
O323 O 0.47008 0.85902 0.04509 0.0
H324 H 0.38477 0.82033 0.87557 0.0
H325 H 0.45862 0.75973 0.82383 0.0
C326 C 0.4573 0.80134 0.10419 0.0
C327 C 0.47466 0.79592 0.16457 0.0
C328 C 0.46193 0.78002 0.22018 0.0
C329 C 0.43143 0.77009 0.21663 0.0
C330 C 0.41391 0.7761 0.157 0.0
C331 C 0.42672 0.79163 0.10126 0.0
C332 C 0.51402 0.81178 0.03017 0.0
C333 C 0.5364 0.83472 0.02918 0.0
C334 C 0.56737 0.82688 0.02666 0.0
C335 C 0.57625 0.79603 0.0229 0.0
C336 C 0.55376 0.77312 0.02453 0.0
C337 C 0.52294 0.78095 0.02993 0.0
C338 C 0.45477 0.81165 0.95281 0.0
C339 C 0.42564 0.82378 0.93789 0.0
C340 C 0.4079 0.812 0.88389 0.0
C341 C 0.41941 0.78832 0.84353 0.0
C342 C 0.44937 0.77787 0.85495 0.0
C343 C 0.4669 0.78938 0.90929 0.0
C344 C 0.09222 0.22827 0.14444 0.0
C345 C 0.11559 0.20872 0.17094 0.0
C346 C 0.09802 0.21656 0.28854 0.0
C347 C 0.07421 0.23564 0.26209 0.0
N348 N 0.04469 0.25522 0.16565 0.0
N349 N 0.1369 0.17865 0.26457 0.0
C350 C 0.07004 0.24006 0.1901 0.0
C351 C 0.11722 0.20107 0.24197 0.0
N352 N 0.09208 0.23658 0.0763 0.0
N353 N 0.10315 0.21436 0.3581 0.0
H354 H 0.15133 0.1669 0.23158 0.0
H355 H 0.13701 0.16975 0.31456 0.0
H356 H 0.08942 0.22506 0.39419 0.0
H357 H 0.12232 0.20378 0.38013 0.0
H358 H 0.07797 0.25356 0.05528 0.0
H359 H 0.10747 0.22769 0.04109 0.0
H360 H 0.03869 0.25669 0.11365 0.0
H361 H 0.02821 0.26434 0.198 0.0
C362 C 0.26557 0.59948 0.6868 0.0
C363 C 0.27727 0.62794 0.70931 0.0
C364 C 0.28136 0.60849 0.8279 0.0
C365 C 0.27311 0.57899 0.80391 0.0
N366 N 0.25739 0.54556 0.71222 0.0
N367 N 0.29673 0.66042 0.7993 0.0
C368 C 0.26493 0.5743 0.73383 0.0
C369 C 0.28482 0.63286 0.77958 0.0
N370 N 0.25468 0.59687 0.62073 0.0
N371 N 0.28605 0.61308 0.89685 0.0
H372 H 0.2983 0.67924 0.76603 0.0
H373 H 0.30652 0.66445 0.84748 0.0
H374 H 0.28551 0.59552 0.93359 0.0
H375 H 0.28866 0.63455 0.91877 0.0
H376 H 0.24337 0.57766 0.60213 0.0
H377 H 0.25491 0.61504 0.58534 0.0
H378 H 0.25458 0.53965 0.66078 0.0
H379 H 0.25518 0.52699 0.74605 0.0
C380 C 0.87696 0.74428 0.18067 0.0
C381 C 0.86635 0.77362 0.1592 0.0
C382 C 0.90503 0.79795 0.23288 0.0
C383 C 0.91319 0.76884 0.26007 0.0
N384 N 0.90594 0.71425 0.26499 0.0
N385 N 0.86631 0.8285 0.17481 0.0
C386 C 0.899 0.74191 0.23513 0.0
C387 C 0.87949 0.80054 0.18745 0.0
N388 N 0.86643 0.71879 0.14796 0.0
N389 N 0.92177 0.82319 0.25051 0.0
H390 H 0.84694 0.83163 0.14367 0.0
H391 H 0.8727 0.8483 0.20063 0.0
H392 H 0.94034 0.8223 0.28482 0.0
H393 H 0.91902 0.84446 0.22646 0.0
H394 H 0.87547 0.69698 0.15599 0.0
H395 H 0.85004 0.71986 0.10862 0.0
H396 H 0.8939 0.69421 0.25489 0.0
H397 H 0.92278 0.71163 0.30323 0.0
C398 C 0.75493 0.39623 0.62459 0.0
C399 C 0.73269 0.37571 0.65121 0.0
C400 C 0.74409 0.39253 0.76861 0.0
C401 C 0.76524 0.4141 0.7418 0.0
N402 N 0.78727 0.44049 0.64484 0.0
N403 N 0.70158 0.35843 0.74576 0.0
C404 C 0.76953 0.41723 0.66982 0.0
C405 C 0.7259 0.37514 0.72245 0.0
N406 N 0.76322 0.39459 0.55703 0.0
N407 N 0.7423 0.38775 0.83824 0.0
H408 H 0.6879 0.34509 0.71357 0.0
H409 H 0.69329 0.35983 0.79567 0.0
H410 H 0.75496 0.40022 0.87415 0.0
H411 H 0.73008 0.36981 0.86046 0.0
H412 H 0.78176 0.40638 0.53655 0.0
H413 H 0.753 0.37961 0.52218 0.0
H414 H 0.78881 0.446 0.59268 0.0
H415 H 0.79864 0.45593 0.67682 0.0
C416 C 0.62763 0.29432 0.23356 0.0
C417 C 0.62159 0.29411 0.30527 0.0
C418 C 0.56642 0.29622 0.28089 0.0
C419 C 0.57252 0.29464 0.2094 0.0
N420 N 0.60817 0.28422 0.11877 0.0
N421 N 0.58557 0.28805 0.39753 0.0
C422 C 0.60293 0.29108 0.18613 0.0
C423 C 0.59103 0.29296 0.32909 0.0
N424 N 0.65663 0.29952 0.21037 0.0
N425 N 0.53739 0.3021 0.30262 0.0
H426 H 0.60311 0.28508 0.43402 0.0
H427 H 0.56383 0.28403 0.41709 0.0
H428 H 0.51875 0.30449 0.26886 0.0
H429 H 0.53218 0.30691 0.35356 0.0
H430 H 0.66158 0.3033 0.15862 0.0
H431 H 0.67541 0.30303 0.24299 0.0
H432 H 0.62969 0.27835 0.10052 0.0
H433 H 0.59056 0.28139 0.08257 0.0
C434 C 0.20791 0.115 0.76083 0.0
C435 C 0.21461 0.11258 0.83225 0.0
C436 C 0.2457 0.0669 0.81283 0.0
C437 C 0.24227 0.07183 0.74082 0.0
N438 N 0.2225 0.10187 0.64495 0.0
N439 N 0.24089 0.08776 0.92752 0.0
C440 C 0.22379 0.09609 0.71435 0.0
C441 C 0.23353 0.08872 0.85884 0.0
N442 N 0.18594 0.13509 0.73775 0.0
N443 N 0.26029 0.04117 0.83692 0.0
H444 H 0.23169 0.10288 0.96292 0.0
H445 H 0.25741 0.07323 0.94899 0.0
H446 H 0.26971 0.02495 0.80434 0.0
H447 H 0.26099 0.03462 0.88864 0.0
H448 H 0.17769 0.13577 0.6872 0.0
H449 H 0.17386 0.14928 0.77067 0.0
H450 H 0.21242 0.12135 0.62322 0.0
H451 H 0.23345 0.08832 0.60889 0.0
C452 C 0.38908 0.70709 0.30993 0.0
C453 C 0.38023 0.72246 0.37033 0.0
C454 C 0.4088 0.76799 0.3352 0.0
C455 C 0.41748 0.75274 0.27429 0.0
N456 N 0.42325 0.70562 0.21254 0.0
N457 N 0.38813 0.7634 0.45036 0.0
C458 C 0.41006 0.72147 0.2647 0.0
C459 C 0.39242 0.75155 0.38636 0.0
N460 N 0.37637 0.6794 0.29437 0.0
N461 N 0.4145 0.79855 0.34231 0.0
H462 H 0.37606 0.75172 0.48857 0.0
H463 H 0.39869 0.78332 0.46746 0.0
H464 H 0.42637 0.81147 0.30593 0.0
H465 H 0.40561 0.81162 0.38185 0.0
H466 H 0.37906 0.66869 0.24721 0.0
H467 H 0.36154 0.66791 0.32745 0.0
H468 H 0.4209 0.6821 0.2065 0.0
H469 H 0.43894 0.71558 0.17894 0.0
C470 C 0.74318 0.88027 0.82203 0.0
C471 C 0.76137 0.85459 0.80513 0.0
C472 C 0.76721 0.87457 0.68768 0.0
C473 C 0.75267 0.90203 0.70732 0.0
N474 N 0.72798 0.93238 0.79318 0.0
N475 N 0.795 0.82953 0.72567 0.0
C476 C 0.7407 0.9052 0.77441 0.0
C477 C 0.77426 0.85211 0.73867 0.0
N478 N 0.728 0.88054 0.88312 0.0
N479 N 0.77438 0.87005 0.62019 0.0
H480 H 0.80183 0.81336 0.76257 0.0
H481 H 0.8077 0.82856 0.68072 0.0
H482 H 0.7699 0.88625 0.58147 0.0
H483 H 0.78211 0.84921 0.60158 0.0
H484 H 0.71202 0.89714 0.89594 0.0
H485 H 0.72963 0.8627 0.91909 0.0
H486 H 0.72204 0.93747 0.84352 0.0
H487 H 0.72491 0.95067 0.75875 0.0
C488 C 0.85383 0.75766 0.74521 0.0
C489 C 0.85798 0.75687 0.81794 0.0
C490 C 0.91276 0.7462 0.80402 0.0
C491 C 0.90927 0.75225 0.73255 0.0
N492 N 0.87731 0.76512 0.63405 0.0
N493 N 0.89014 0.74726 0.91774 0.0
C494 C 0.87997 0.75784 0.70266 0.0
C495 C 0.88712 0.74995 0.84769 0.0
N496 N 0.82509 0.75827 0.71645 0.0
N497 N 0.94055 0.73672 0.82952 0.0
H498 H 0.87138 0.7471 0.95051 0.0
H499 H 0.91103 0.74578 0.94385 0.0
H500 H 0.9596 0.73395 0.7983 0.0
H501 H 0.94443 0.72957 0.88017 0.0
H502 H 0.82079 0.7552 0.66411 0.0
H503 H 0.80508 0.75917 0.74478 0.0
H504 H 0.85736 0.77375 0.61122 0.0
H505 H 0.89565 0.7646 0.60024 0.0
C506 C 0.72501 0.38956 0.27001 0.0
C507 C 0.74065 0.3681 0.313 0.0
C508 C 0.78909 0.38051 0.25706 0.0
C509 C 0.7737 0.40302 0.21638 0.0
N510 N 0.72897 0.43445 0.1964 0.0
N511 N 0.78834 0.34876 0.36019 0.0
C512 C 0.74223 0.4093 0.22686 0.0
C513 C 0.77299 0.36531 0.3105 0.0
N514 N 0.69371 0.39001 0.26751 0.0
N515 N 0.8186 0.37261 0.24275 0.0
H516 H 0.77728 0.33794 0.4011 0.0
H517 H 0.81212 0.34831 0.36481 0.0
H518 H 0.83119 0.38309 0.20378 0.0
H519 H 0.82975 0.354 0.26579 0.0
H520 H 0.68119 0.4028 0.23135 0.0
H521 H 0.68014 0.3756 0.29752 0.0
H522 H 0.70691 0.44182 0.2075 0.0
H523 H 0.74106 0.44969 0.1652 0.0
C524 C 0.09553 0.19441 0.79314 0.0
C525 C 0.11219 0.21304 0.8397 0.0
C526 C 0.08951 0.25925 0.78817 0.0
C527 C 0.07274 0.24068 0.74165 0.0
N528 N 0.05363 0.19099 0.71025 0.0
N529 N 0.11908 0.2618 0.8945 0.0
C530 C 0.07371 0.20831 0.74772 0.0
C531 C 0.10715 0.24506 0.84144 0.0
N532 N 0.10175 0.16382 0.78961 0.0
N533 N 0.08998 0.29033 0.7792 0.0
H534 H 0.13202 0.25198 0.93457 0.0
H535 H 0.11376 0.2847 0.90241 0.0
H536 H 0.07724 0.30171 0.74102 0.0
H537 H 0.10467 0.30471 0.80638 0.0
H538 H 0.09306 0.14976 0.75112 0.0
H539 H 0.11729 0.15276 0.82266 0.0
H540 H 0.05121 0.16745 0.71703 0.0
H541 H 0.03735 0.20061 0.67665 0.0
C542 C 0.2679 0.59891 0.3579 0.0
C543 C 0.29752 0.60868 0.37895 0.0
C544 C 0.32033 0.5672 0.3134 0.0
C545 C 0.29146 0.56165 0.28203 0.0
N546 N 0.23754 0.57298 0.27119 0.0
N547 N 0.35266 0.60365 0.37195 0.0
C548 C 0.26502 0.5774 0.304 0.0
C549 C 0.324 0.59293 0.35649 0.0
N550 N 0.24263 0.6099 0.39027 0.0
N551 N 0.34425 0.54785 0.30162 0.0
H552 H 0.35679 0.62265 0.40255 0.0
H553 H 0.37245 0.5952 0.34962 0.0
H554 H 0.34215 0.52872 0.27024 0.0
H555 H 0.36507 0.549 0.32822 0.0
H556 H 0.2206 0.6016 0.38138 0.0
H557 H 0.24411 0.62512 0.43122 0.0
H558 H 0.21833 0.58649 0.27961 0.0
H559 H 0.23443 0.55711 0.23202 0.0
C560 C 0.37081 0.77025 0.68463 0.0
C561 C 0.36218 0.73966 0.70031 0.0
C562 C 0.38835 0.7424 0.8121 0.0
C563 C 0.39917 0.77205 0.79425 0.0
N564 N 0.4045 0.81286 0.7107 0.0
N565 N 0.36663 0.69462 0.7726 0.0
C566 C 0.39141 0.78568 0.72969 0.0
C567 C 0.37219 0.7251 0.76212 0.0
N568 N 0.35897 0.78459 0.62721 0.0
N569 N 0.39247 0.73128 0.87774 0.0
H570 H 0.35454 0.68126 0.73735 0.0
H571 H 0.37614 0.68196 0.8133 0.0
H572 H 0.40388 0.74339 0.9163 0.0
H573 H 0.38223 0.7113 0.89589 0.0
H574 H 0.36161 0.80786 0.61682 0.0
H575 H 0.34474 0.77361 0.59168 0.0
H576 H 0.40237 0.82244 0.66153 0.0
H577 H 0.41949 0.82486 0.74277 0.0
C578 C 0.77756 0.85804 0.22842 0.0
C579 C 0.77042 0.86293 0.15753 0.0
C580 C 0.75877 0.91675 0.18026 0.0
C581 C 0.76373 0.91105 0.25161 0.0
N582 N 0.77055 0.87486 0.34535 0.0
N583 N 0.74922 0.8952 0.06734 0.0
C584 C 0.77077 0.8812 0.2762 0.0
C585 C 0.75956 0.89184 0.13373 0.0
N586 N 0.79253 0.83205 0.24983 0.0
N587 N 0.75433 0.94604 0.15682 0.0
H588 H 0.74929 0.87731 0.03229 0.0
H589 H 0.73821 0.9148 0.0487 0.0
H590 H 0.75312 0.96472 0.18965 0.0
H591 H 0.75396 0.95211 0.10479 0.0
H592 H 0.80131 0.82902 0.29959 0.0
H593 H 0.79907 0.81477 0.21655 0.0
H594 H 0.77238 0.85275 0.36563 0.0
H595 H 0.76551 0.89125 0.38219 0.0
C596 C 0.59565 0.27592 0.64393 0.0
C597 C 0.61441 0.30243 0.64299 0.0
C598 C 0.58605 0.32397 0.73889 0.0
C599 C 0.5663 0.2982 0.73775 0.0
N600 N 0.54892 0.25181 0.68429 0.0
N601 N 0.62437 0.35411 0.68024 0.0
C602 C 0.57012 0.27474 0.68876 0.0
C603 C 0.60854 0.32727 0.68736 0.0
N604 N 0.60247 0.25185 0.60243 0.0
N605 N 0.58427 0.34457 0.79127 0.0
H606 H 0.64197 0.35728 0.64517 0.0
H607 H 0.61854 0.37415 0.70542 0.0
H608 H 0.56804 0.3432 0.8301 0.0
H609 H 0.60046 0.36165 0.7998 0.0
H610 H 0.59195 0.23054 0.60597 0.0
H611 H 0.61991 0.25268 0.5662 0.0
H612 H 0.54855 0.2356 0.64545 0.0
H613 H 0.5302 0.25023 0.71697 0.0
C614 C 0.20047 0.09069 0.21002 0.0
C615 C 0.21826 0.10776 0.1627 0.0
C616 C 0.26557 0.08733 0.21394 0.0
C617 C 0.24785 0.07027 0.2615 0.0
N618 N 0.19907 0.04937 0.29447 0.0
N619 N 0.26646 0.11609 0.10649 0.0
C620 C 0.21542 0.06984 0.25598 0.0
C621 C 0.25045 0.1039 0.16032 0.0
N622 N 0.16964 0.09566 0.21366 0.0
N623 N 0.29665 0.08919 0.22233 0.0
H624 H 0.25593 0.12834 0.06625 0.0
H625 H 0.28953 0.11161 0.09823 0.0
H626 H 0.3087 0.07739 0.26098 0.0
H627 H 0.3103 0.1042 0.19421 0.0
H628 H 0.15603 0.08672 0.25266 0.0
H629 H 0.15786 0.11035 0.17989 0.0
H630 H 0.1756 0.04597 0.28826 0.0
H631 H 0.20947 0.03374 0.32843 0.0
C632 C 0.23874 0.31164 0.96798 0.0
C633 C 0.21271 0.29986 0.00251 0.0
C634 C 0.20205 0.35057 0.04916 0.0
C635 C 0.22731 0.36234 0.01215 0.0
N636 N 0.26488 0.35623 0.92336 0.0
N637 N 0.16642 0.30845 0.06554 0.0
C638 C 0.24398 0.34354 0.9671 0.0
C639 C 0.19332 0.31948 0.03999 0.0
N640 N 0.25969 0.29227 0.94002 0.0
N641 N 0.18713 0.36884 0.09446 0.0
H642 H 0.15948 0.28578 0.05927 0.0
H643 H 0.1499 0.32216 0.08794 0.0
H644 H 0.19245 0.39194 0.10051 0.0
H645 H 0.17073 0.36081 0.12864 0.0
H646 H 0.2809 0.29948 0.92206 0.0
H647 H 0.25738 0.26858 0.9405 0.0
H648 H 0.27526 0.34406 0.88418 0.0
H649 H 0.26974 0.3796 0.92178 0.0
C650 C 0.16585 0.68494 0.5261 0.0
C651 C 0.18432 0.70305 0.48199 0.0
C652 C 0.1383 0.7257 0.42948 0.0
C653 C 0.12067 0.71244 0.48255 0.0
N654 N 0.11667 0.67918 0.58171 0.0
N655 N 0.18824 0.74359 0.39617 0.0
C656 C 0.13405 0.69154 0.53043 0.0
C657 C 0.17062 0.72378 0.43371 0.0
N658 N 0.17878 0.66144 0.56332 0.0
N659 N 0.12405 0.74072 0.3759 0.0
H660 H 0.21205 0.74415 0.39896 0.0
H661 H 0.17912 0.76152 0.36664 0.0
H662 H 0.10027 0.74268 0.37198 0.0
H663 H 0.13552 0.74841 0.33228 0.0
H664 H 0.16617 0.64578 0.59212 0.0
H665 H 0.20198 0.65595 0.56019 0.0
H666 H 0.12577 0.66663 0.62304 0.0
H667 H 0.09311 0.68281 0.58455 0.0
C668 C 0.80979 0.66154 0.01342 0.0
C669 C 0.77869 0.67066 0.00901 0.0
C670 C 0.7631 0.61733 0.99451 0.0
C671 C 0.79395 0.60807 0.00623 0.0
N672 N 0.84539 0.62098 0.04262 0.0
N673 N 0.72516 0.65754 0.00516 0.0
C674 C 0.81693 0.63008 0.02055 0.0
C675 C 0.75511 0.64861 0.00271 0.0
N676 N 0.83259 0.68276 0.00706 0.0
N677 N 0.74181 0.59663 0.9723 0.0
H678 H 0.71864 0.68038 0.01012 0.0
H679 H 0.70697 0.64219 0.00795 0.0
H680 H 0.74689 0.57365 0.96415 0.0
H681 H 0.71979 0.60271 0.95614 0.0
H682 H 0.85561 0.67692 0.00259 0.0
H683 H 0.82832 0.70607 -0.0003 0.0
H684 H 0.86199 0.63625 0.06018 0.0
H685 H 0.85136 0.59805 0.05 0.0
C686 C 0.82129 0.30016 0.53343 0.0
C687 C 0.80651 0.27516 0.50083 0.0
C688 C 0.85606 0.25595 0.46256 0.0
C689 C 0.87087 0.27946 0.50017 0.0
N690 N 0.86814 0.31962 0.58416 0.0
N691 N 0.80985 0.22613 0.44565 0.0
C692 C 0.85363 0.30023 0.53965 0.0
C693 C 0.82392 0.25207 0.4687 0.0
N694 N 0.80466 0.3247 0.55496 0.0
N695 N 0.87245 0.23815 0.41883 0.0
H696 H 0.78634 0.22245 0.44967 0.0
H697 H 0.82178 0.20713 0.42835 0.0
H698 H 0.89602 0.24042 0.41252 0.0
H699 H 0.86234 0.22292 0.38454 0.0
H700 H 0.81465 0.34491 0.57219 0.0
H701 H 0.78095 0.32624 0.54921 0.0
H702 H 0.8565 0.33302 0.61933 0.0
H703 H 0.89187 0.32013 0.59075 0.0
C704 C 0.72628 0.17177 0.53493 0.0
C705 C 0.70003 0.18619 0.50528 0.0
C706 C 0.67951 0.13635 0.47083 0.0
C707 C 0.70547 0.12202 0.50181 0.0
N708 N 0.75065 0.12504 0.57471 0.0
N709 N 0.64941 0.18287 0.45564 0.0
C710 C 0.72776 0.13942 0.53795 0.0
C711 C 0.67588 0.16863 0.47646 0.0
N712 N 0.75083 0.18895 0.55593 0.0
N713 N 0.65889 0.11914 0.43463 0.0
H714 H 0.64628 0.20647 0.45933 0.0
H715 H 0.6298 0.17128 0.43973 0.0
H716 H 0.6603 0.09534 0.43233 0.0
H717 H 0.64128 0.12837 0.40433 0.0
H718 H 0.77214 0.17971 0.56886 0.0
H719 H 0.75099 0.21276 0.5552 0.0
H720 H 0.76505 0.13629 0.60927 0.0
H721 H 0.75398 0.10144 0.57511 0.0
C722 C 0.32297 0.19886 0.95402 0.0
C723 C 0.3041 0.21056 0.00661 0.0
C724 C 0.34854 0.23657 0.05628 0.0
C725 C 0.36521 0.23074 0.99591 0.0
N726 N 0.36756 0.20772 0.8836 0.0
N727 N 0.29844 0.2467 0.1 0.0
C728 C 0.35245 0.21188 0.94392 0.0
C729 C 0.31675 0.23072 0.05654 0.0
N730 N 0.31287 0.17521 0.91436 0.0
N731 N 0.36298 0.24848 0.11275 0.0
H732 H 0.27464 0.24599 0.09838 0.0
H733 H 0.30685 0.26376 0.13223 0.0
H734 H 0.3865 0.25275 0.11414 0.0
H735 H 0.35223 0.25085 0.16003 0.0
H736 H 0.32668 0.16414 0.87908 0.0
H737 H 0.29175 0.16461 0.92207 0.0
H738 H 0.35769 0.19696 0.84116 0.0
H739 H 0.3891 0.21698 0.8741 0.0
C740 C 0.30118 0.82111 0.4516 0.0
C741 C 0.27613 0.80679 0.48494 0.0
C742 C 0.25796 0.85647 0.52429 0.0
C743 C 0.28214 0.87087 0.4882 0.0
N744 N 0.32181 0.86793 0.40321 0.0
N745 N 0.22653 0.81114 0.53699 0.0
C746 C 0.30216 0.85348 0.44715 0.0
C747 C 0.25317 0.82462 0.51625 0.0
N748 N 0.32493 0.80401 0.42781 0.0
N749 N 0.24049 0.87285 0.56869 0.0
H750 H 0.22204 0.7879 0.53025 0.0
H751 H 0.20777 0.82347 0.5542 0.0
H752 H 0.24347 0.89622 0.57673 0.0
H753 H 0.22478 0.86278 0.6019 0.0
H754 H 0.34528 0.81354 0.41022 0.0
H755 H 0.32555 0.78022 0.43101 0.0
H756 H 0.33475 0.85639 0.36704 0.0
H757 H 0.32295 0.8917 0.39818 0.0
C758 C 0.65792 0.79677 0.95863 0.0
C759 C 0.67201 0.77427 0.00209 0.0
C760 C 0.6239 0.76833 0.06411 0.0
C761 C 0.60905 0.78782 0.01516 0.0
N762 N 0.61071 0.81334 0.90409 0.0
N763 N 0.66551 0.73276 0.0841 0.0
C764 C 0.62566 0.79978 0.95866 0.0
C765 C 0.65415 0.75824 0.05132 0.0
N766 N 0.67513 0.81658 0.92034 0.0
N767 N 0.60977 0.76039 0.1241 0.0
H768 H 0.68691 0.72353 0.07327 0.0
H769 H 0.65225 0.71886 0.11594 0.0
H770 H 0.58813 0.7684 0.13705 0.0
H771 H 0.62091 0.74853 0.16401 0.0
H772 H 0.66565 0.83504 0.89306 0.0
H773 H 0.69895 0.81702 0.92221 0.0
H774 H 0.62184 0.81993 0.85909 0.0
H775 H 0.58691 0.81485 0.90058 0.0
loop_
_geom_bond_atom_site_label_1
_geom_bond_atom_site_label_2
_geom_bond_distance
_geom_bond_site_symmetry_2
_ccdc_geom_bond_type
Sc0 O3 2.025 . S
Sc0 O10 2.105 . S
Sc0 O13 2.105 . S
Sc0 O16 2.105 . S
Sc0 O19 2.105 . S
Sc1 O3 2.025 . S
Sc1 O11 2.105 . S
Sc1 O15 2.105 1_554 S
Sc1 O17 2.105 . S
Sc1 O21 2.105 1_554 S
Sc2 O3 2.025 1_556 S
Sc2 O12 2.105 . S
Sc2 O14 2.105 . S
Sc2 O18 2.105 . S
Sc2 O20 2.105 . S
O3 Sc0 2.025 . S
O3 Sc1 2.025 . S
O3 Sc2 2.025 1_554 S
C4 O10 1.268 . S
C4 O20 1.268 1_554 S
C5 O11 1.268 . S
C5 O19 1.268 . S
C6 O12 1.268 . S
C6 O21 1.268 . S
C7 O13 1.268 . S
C7 O17 1.268 . S
C8 O14 1.268 1_554 S
C8 O16 1.268 . S
C9 O15 1.268 . S
C9 O18 1.268 . S
O10 Sc0 2.105 . S
O10 C4 1.268 . S
O11 Sc1 2.105 . S
O11 C5 1.268 . S
O12 Sc2 2.105 . S
O12 C6 1.268 . S
O13 Sc0 2.105 . S
O13 C7 1.268 . S
O14 Sc2 2.105 . S
O14 C8 1.268 1_556 S
O15 Sc1 2.105 1_556 S
O15 C9 1.268 . S
O16 Sc0 2.105 . S
O16 C8 1.268 . S
O17 Sc1 2.105 . S
O17 C7 1.268 . S
O18 Sc2 2.105 . S
O18 C9 1.268 . S
O19 Sc0 2.105 . S
O19 C5 1.268 . S
O20 Sc2 2.105 . S
O20 C4 1.268 1_556 S
O21 Sc1 2.105 1_556 S
O21 C6 1.268 . S
Sc22 O25 2.025 . S
Sc22 O32 2.105 . S
Sc22 O35 2.105 . S
Sc22 O38 2.105 . S
Sc22 O41 2.105 . S
Sc23 O25 2.025 . S
Sc23 O33 2.105 . S
Sc23 O37 2.105 . S
Sc23 O39 2.105 . S
Sc23 O43 2.105 . S
Sc24 O25 2.025 . S
Sc24 O34 2.105 . S
Sc24 O36 2.105 . S
Sc24 O40 2.105 . S
Sc24 O42 2.105 . S
O25 Sc22 2.025 . S
O25 Sc23 2.025 . S
O25 Sc24 2.025 . S
C26 O32 1.268 . S
C26 O42 1.268 . S
C27 O33 1.268 . S
C27 O41 1.268 . S
C28 O34 1.268 . S
C28 O43 1.268 . S
C29 O35 1.268 . S
C29 O39 1.268 . S
C30 O36 1.268 . S
C30 O38 1.268 . S
C31 O37 1.268 . S
C31 O40 1.268 . S
O32 Sc22 2.105 . S
O32 C26 1.268 . S
O33 Sc23 2.105 . S
O33 C27 1.268 . S
O34 Sc24 2.105 . S
O34 C28 1.268 . S
O35 Sc22 2.105 . S
O35 C29 1.268 . S
O36 Sc24 2.105 . S
O36 C30 1.268 . S
O37 Sc23 2.105 . S
O37 C31 1.268 . S
O38 Sc22 2.105 . S
O38 C30 1.268 . S
O39 Sc23 2.105 . S
O39 C29 1.268 . S
O40 Sc24 2.105 . S
O40 C31 1.268 . S
O41 Sc22 2.105 . S
O41 C27 1.268 . S
O42 Sc24 2.105 . S
O42 C26 1.268 . S
O43 Sc23 2.105 . S
O43 C28 1.268 . S
Sc44 O47 2.025 1_556 S
Sc44 O54 2.105 . S
Sc44 O57 2.105 . S
Sc44 O60 2.105 . S
Sc44 O63 2.105 . S
Sc45 O47 2.025 . S
Sc45 O55 2.105 1_554 S
Sc45 O59 2.105 . S
Sc45 O61 2.105 1_554 S
Sc45 O65 2.105 . S
Sc46 O47 2.025 . S
Sc46 O56 2.105 . S
Sc46 O58 2.105 . S
Sc46 O62 2.105 . S
Sc46 O64 2.105 . S
O47 Sc44 2.025 1_554 S
O47 Sc45 2.025 . S
O47 Sc46 2.025 . S
C48 O54 1.268 1_554 S
C48 O64 1.268 . S
C49 O55 1.268 . S
C49 O63 1.268 . S
C50 O56 1.268 . S
C50 O65 1.268 . S
C51 O57 1.268 . S
C51 O61 1.268 . S
C52 O58 1.268 . S
C52 O60 1.268 1_554 S
C53 O59 1.268 . S
C53 O62 1.268 . S
O54 Sc44 2.105 . S
O54 C48 1.268 1_556 S
O55 Sc45 2.105 1_556 S
O55 C49 1.268 . S
O56 Sc46 2.105 . S
O56 C50 1.268 . S
O57 Sc44 2.105 . S
O57 C51 1.268 . S
O58 Sc46 2.105 . S
O58 C52 1.268 . S
O59 Sc45 2.105 . S
O59 C53 1.268 . S
O60 Sc44 2.105 . S
O60 C52 1.268 1_556 S
O61 Sc45 2.105 1_556 S
O61 C51 1.268 . S
O62 Sc46 2.105 . S
O62 C53 1.268 . S
O63 Sc44 2.105 . S
O63 C49 1.268 . S
O64 Sc46 2.105 . S
O64 C48 1.268 . S
O65 Sc45 2.105 . S
O65 C50 1.268 . S
Sc66 O69 2.025 . S
Sc66 O76 2.105 . S
Sc66 O79 2.105 . S
Sc66 O82 2.105 . S
Sc66 O85 2.105 . S
Sc67 O69 2.025 . S
Sc67 O77 2.105 . S
Sc67 O81 2.105 . S
Sc67 O83 2.105 . S
Sc67 O87 2.105 . S
Sc68 O69 2.025 . S
Sc68 O78 2.105 . S
Sc68 O80 2.105 . S
Sc68 O84 2.105 . S
Sc68 O86 2.105 . S
O69 Sc66 2.025 . S
O69 Sc67 2.025 . S
O69 Sc68 2.025 . S
C70 O76 1.268 . S
C70 O86 1.268 . S
C71 O77 1.268 . S
C71 O85 1.268 . S
C72 O78 1.268 . S
C72 O87 1.268 . S
C73 O79 1.268 . S
C73 O83 1.268 . S
C74 O80 1.268 . S
C74 O82 1.268 . S
C75 O81 1.268 . S
C75 O84 1.268 . S
O76 Sc66 2.105 . S
O76 C70 1.268 . S
O77 Sc67 2.105 . S
O77 C71 1.268 . S
O78 Sc68 2.105 . S
O78 C72 1.268 . S
O79 Sc66 2.105 . S
O79 C73 1.268 . S
O80 Sc68 2.105 . S
O80 C74 1.268 . S
O81 Sc67 2.105 . S
O81 C75 1.268 . S
O82 Sc66 2.105 . S
O82 C74 1.268 . S
O83 Sc67 2.105 . S
O83 C73 1.268 . S
O84 Sc68 2.105 . S
O84 C75 1.268 . S
O85 Sc66 2.105 . S
O85 C71 1.268 . S
O86 Sc68 2.105 . S
O86 C70 1.268 . S
O87 Sc67 2.105 . S
O87 C72 1.268 . S
P88 O99 1.490 . S
P88 C102 1.812 . S
P88 C108 1.803 . S
P88 C114 1.819 1_554 S
H89 C103 0.941 . S
H90 C104 0.939 . S
H91 C106 0.940 . S
H92 C107 0.940 . S
H93 C109 0.939 . S
H94 C110 0.942 . S
H95 C112 0.940 . S
H96 C113 0.939 . S
H97 C115 0.941 . S
H98 C119 0.939 . S
O99 P88 1.490 . S
H100 C116 0.939 . S
H101 C118 0.940 . S
C102 P88 1.812 . S
C102 C103 1.389 . S
C102 C107 1.391 . S
C103 H89 0.941 . S
C103 C102 1.389 . S
C103 C104 1.397 . S
C104 H90 0.939 . S
C104 C103 1.397 . S
C104 C105 1.378 . S
C105 C104 1.378 . S
C105 C106 1.378 . S
C106 H91 0.940 . S
C106 C105 1.378 . S
C106 C107 1.396 . S
C107 H92 0.940 . S
C107 C102 1.391 . S
C107 C106 1.396 . S
C108 P88 1.803 . S
C108 C109 1.378 1_554 S
C108 C113 1.400 . S
C109 H93 0.939 . S
C109 C108 1.378 1_556 S
C109 C110 1.361 . S
C110 H94 0.942 . S
C110 C109 1.361 . S
C110 C111 1.369 1_556 S
C111 C110 1.369 1_554 S
C111 C112 1.404 . S
C112 H95 0.940 . S
C112 C111 1.404 . S
C112 C113 1.389 . S
C113 H96 0.939 . S
C113 C108 1.400 . S
C113 C112 1.389 . S
C114 P88 1.819 1_556 S
C114 C115 1.391 . S
C114 C119 1.391 . S
C115 H97 0.941 . S
C115 C114 1.391 . S
C115 C116 1.396 . S
C116 H100 0.939 . S
C116 C115 1.396 . S
C116 C117 1.397 . S
C117 C116 1.397 . S
C117 C118 1.385 . S
C118 H101 0.940 . S
C118 C117 1.385 . S
C118 C119 1.388 . S
C119 H98 0.939 . S
C119 C114 1.391 . S
C119 C118 1.388 . S
P120 O131 1.490 . S
P120 C134 1.812 . S
P120 C140 1.803 1_655 S
P120 C146 1.819 . S
H121 C135 0.941 . S
H122 C136 0.939 . S
H123 C138 0.940 . S
H124 C139 0.940 . S
H125 C141 0.939 . S
H126 C142 0.942 . S
H127 C144 0.940 . S
H128 C145 0.939 . S
H129 C147 0.941 . S
H130 C151 0.939 . S
O131 P120 1.490 . S
H132 C148 0.939 . S
H133 C150 0.940 . S
C134 P120 1.812 . S
C134 C135 1.389 . S
C134 C139 1.391 . S
C135 H121 0.941 . S
C135 C134 1.389 . S
C135 C136 1.397 . S
C136 H122 0.939 . S
C136 C135 1.397 . S
C136 C137 1.378 . S
C137 C136 1.378 . S
C137 C138 1.378 . S
C138 H123 0.940 . S
C138 C137 1.378 . S
C138 C139 1.396 . S
C139 H124 0.940 . S
C139 C134 1.391 . S
C139 C138 1.396 . S
C140 P120 1.803 1_455 S
C140 C141 1.378 . S
C140 C145 1.400 . S
C141 H125 0.939 . S
C141 C140 1.378 . S
C141 C142 1.361 . S
C142 H126 0.942 . S
C142 C141 1.361 . S
C142 C143 1.369 . S
C143 C142 1.369 . S
C143 C144 1.404 . S
C144 H127 0.940 . S
C144 C143 1.404 . S
C144 C145 1.389 . S
C145 H128 0.939 . S
C145 C140 1.400 . S
C145 C144 1.389 . S
C146 P120 1.819 . S
C146 C147 1.391 . S
C146 C151 1.391 . S
C147 H129 0.941 . S
C147 C146 1.391 . S
C147 C148 1.396 . S
C148 H132 0.939 . S
C148 C147 1.396 . S
C148 C149 1.397 . S
C149 C148 1.397 . S
C149 C150 1.385 . S
C150 H133 0.940 . S
C150 C149 1.385 . S
C150 C151 1.388 . S
C151 H130 0.939 . S
C151 C146 1.391 . S
C151 C150 1.388 . S
P152 O163 1.490 . S
P152 C166 1.812 . S
P152 C172 1.803 . S
P152 C178 1.819 1_556 S
H153 C167 0.941 . S
H154 C168 0.939 . S
H155 C170 0.940 . S
H156 C171 0.940 . S
H157 C173 0.939 . S
H158 C174 0.942 . S
H159 C176 0.940 . S
H160 C177 0.939 . S
H161 C179 0.941 . S
H162 C183 0.939 . S
O163 P152 1.490 . S
H164 C180 0.939 . S
H165 C182 0.940 . S
C166 P152 1.812 . S
C166 C167 1.389 . S
C166 C171 1.391 . S
C167 H153 0.941 . S
C167 C166 1.389 . S
C167 C168 1.397 . S
C168 H154 0.939 . S
C168 C167 1.397 . S
C168 C169 1.378 . S
C169 C168 1.378 . S
C169 C170 1.378 . S
C170 H155 0.940 . S
C170 C169 1.378 . S
C170 C171 1.396 . S
C171 H156 0.940 . S
C171 C166 1.391 . S
C171 C170 1.396 . S
C172 P152 1.803 . S
C172 C173 1.378 1_556 S
C172 C177 1.400 . S
C173 H157 0.939 . S
C173 C172 1.378 1_554 S
C173 C174 1.361 . S
C174 H158 0.942 . S
C174 C173 1.361 . S
C174 C175 1.369 . S
C175 C174 1.369 . S
C175 C176 1.404 1_554 S
C176 H159 0.940 . S
C176 C175 1.404 1_556 S
C176 C177 1.389 . S
C177 H160 0.939 . S
C177 C172 1.400 . S
C177 C176 1.389 . S
C178 P152 1.819 1_554 S
C178 C179 1.391 . S
C178 C183 1.391 . S
C179 H161 0.941 . S
C179 C178 1.391 . S
C179 C180 1.396 . S
C180 H164 0.939 . S
C180 C179 1.396 . S
C180 C181 1.397 . S
C181 C180 1.397 . S
C181 C182 1.385 . S
C182 H165 0.940 . S
C182 C181 1.385 . S
C182 C183 1.388 . S
C183 H162 0.939 . S
C183 C178 1.391 . S
C183 C182 1.388 . S
P184 O195 1.490 . S
P184 C198 1.812 . S
P184 C204 1.803 1_455 S
P184 C210 1.819 . S
H185 C199 0.941 . S
H186 C200 0.939 . S
H187 C202 0.940 . S
H188 C203 0.940 . S
H189 C205 0.939 . S
H190 C206 0.942 . S
H191 C208 0.940 . S
H192 C209 0.939 . S
H193 C211 0.941 . S
H194 C215 0.939 . S
O195 P184 1.490 . S
H196 C212 0.939 . S
H197 C214 0.940 . S
C198 P184 1.812 . S
C198 C199 1.389 . S
C198 C203 1.391 . S
C199 H185 0.941 . S
C199 C198 1.389 . S
C199 C200 1.397 . S
C200 H186 0.939 . S
C200 C199 1.397 . S
C200 C201 1.378 . S
C201 C200 1.378 . S
C201 C202 1.378 . S
C202 H187 0.940 . S
C202 C201 1.378 . S
C202 C203 1.396 . S
C203 H188 0.940 . S
C203 C198 1.391 . S
C203 C202 1.396 . S
C204 P184 1.803 1_655 S
C204 C205 1.378 . S
C204 C209 1.400 . S
C205 H189 0.939 . S
C205 C204 1.378 . S
C205 C206 1.361 . S
C206 H190 0.942 . S
C206 C205 1.361 . S
C206 C207 1.369 . S
C207 C206 1.369 . S
C207 C208 1.404 . S
C208 H191 0.940 . S
C208 C207 1.404 . S
C208 C209 1.389 . S
C209 H192 0.939 . S
C209 C204 1.400 . S
C209 C208 1.389 . S
C210 P184 1.819 . S
C210 C211 1.391 . S
C210 C215 1.391 . S
C211 H193 0.941 . S
C211 C210 1.391 . S
C211 C212 1.396 . S
C212 H196 0.939 . S
C212 C211 1.396 . S
C212 C213 1.397 . S
C213 C212 1.397 . S
C213 C214 1.385 . S
C214 H197 0.940 . S
C214 C213 1.385 . S
C214 C215 1.388 . S
C215 H194 0.939 . S
C215 C210 1.391 . S
C215 C214 1.388 . S
P216 O227 1.490 . S
P216 C230 1.812 . S
P216 C236 1.803 1_565 S
P216 C242 1.819 . S
H217 C231 0.941 . S
H218 C232 0.939 . S
H219 C234 0.940 . S
H220 C235 0.940 . S
H221 C237 0.939 . S
H222 C238 0.942 . S
H223 C240 0.940 . S
H224 C241 0.939 . S
H225 C243 0.941 . S
H226 C247 0.939 . S
O227 P216 1.490 . S
H228 C244 0.939 . S
H229 C246 0.940 . S
C230 P216 1.812 . S
C230 C231 1.389 . S
C230 C235 1.391 . S
C231 H217 0.941 . S
C231 C230 1.389 . S
C231 C232 1.397 . S
C232 H218 0.939 . S
C232 C231 1.397 . S
C232 C233 1.378 . S
C233 C232 1.378 . S
C233 C234 1.378 . S
C234 H219 0.940 . S
C234 C233 1.378 . S
C234 C235 1.396 . S
C235 H220 0.940 . S
C235 C230 1.391 . S
C235 C234 1.396 . S
C236 P216 1.803 1_545 S
C236 C237 1.378 . S
C236 C241 1.400 . S
C237 H221 0.939 . S
C237 C236 1.378 . S
C237 C238 1.361 . S
C238 H222 0.942 . S
C238 C237 1.361 . S
C238 C239 1.369 . S
C239 C238 1.369 . S
C239 C240 1.404 . S
C240 H223 0.940 . S
C240 C239 1.404 . S
C240 C241 1.389 . S
C241 H224 0.939 . S
C241 C236 1.400 . S
C241 C240 1.389 . S
C242 P216 1.819 . S
C242 C243 1.391 . S
C242 C247 1.391 . S
C243 H225 0.941 . S
C243 C242 1.391 . S
C243 C244 1.396 . S
C244 H228 0.939 . S
C244 C243 1.396 . S
C244 C245 1.397 . S
C245 C244 1.397 . S
C245 C246 1.385 . S
C246 H229 0.940 . S
C246 C245 1.385 . S
C246 C247 1.388 . S
C247 H226 0.939 . S
C247 C242 1.391 . S
C247 C246 1.388 . S
P248 O259 1.490 . S
P248 C262 1.812 . S
P248 C268 1.803 . S
P248 C274 1.819 1_556 S
H249 C263 0.941 . S
H250 C264 0.939 . S
H251 C266 0.940 . S
H252 C267 0.940 . S
H253 C269 0.939 . S
H254 C270 0.942 . S
H255 C272 0.940 . S
H256 C273 0.939 . S
H257 C275 0.941 . S
H258 C279 0.939 . S
O259 P248 1.490 . S
H260 C276 0.939 . S
H261 C278 0.940 . S
C262 P248 1.812 . S
C262 C263 1.389 . S
C262 C267 1.391 . S
C263 H249 0.941 . S
C263 C262 1.389 . S
C263 C264 1.397 . S
C264 H250 0.939 . S
C264 C263 1.397 . S
C264 C265 1.378 . S
C265 C264 1.378 . S
C265 C266 1.378 . S
C266 H251 0.940 . S
C266 C265 1.378 . S
C266 C267 1.396 . S
C267 H252 0.940 . S
C267 C262 1.391 . S
C267 C266 1.396 . S
C268 P248 1.803 . S
C268 C269 1.378 1_556 S
C268 C273 1.400 . S
C269 H253 0.939 . S
C269 C268 1.378 1_554 S
C269 C270 1.361 . S
C270 H254 0.942 . S
C270 C269 1.361 . S
C270 C271 1.369 . S
C271 C270 1.369 . S
C271 C272 1.404 1_554 S
C272 H255 0.940 . S
C272 C271 1.404 1_556 S
C272 C273 1.389 . S
C273 H256 0.939 . S
C273 C268 1.400 . S
C273 C272 1.389 . S
C274 P248 1.819 1_554 S
C274 C275 1.391 . S
C274 C279 1.391 . S
C275 H257 0.941 . S
C275 C274 1.391 . S
C275 C276 1.396 . S
C276 H260 0.939 . S
C276 C275 1.396 . S
C276 C277 1.397 . S
C277 C276 1.397 . S
C277 C278 1.385 . S
C278 H261 0.940 . S
C278 C277 1.385 . S
C278 C279 1.388 . S
C279 H258 0.939 . S
C279 C274 1.391 . S
C279 C278 1.388 . S
P280 O291 1.490 . S
P280 C294 1.812 . S
P280 C300 1.803 1_545 S
P280 C306 1.819 . S
H281 C295 0.941 . S
H282 C296 0.939 . S
H283 C298 0.940 . S
H284 C299 0.940 . S
H285 C301 0.939 . S
H286 C302 0.942 . S
H287 C304 0.940 . S
H288 C305 0.939 . S
H289 C307 0.941 . S
H290 C311 0.939 . S
O291 P280 1.490 . S
H292 C308 0.939 . S
H293 C310 0.940 . S
C294 P280 1.812 . S
C294 C295 1.389 . S
C294 C299 1.391 . S
C295 H281 0.941 . S
C295 C294 1.389 . S
C295 C296 1.397 . S
C296 H282 0.939 . S
C296 C295 1.397 . S
C296 C297 1.378 . S
C297 C296 1.378 . S
C297 C298 1.378 . S
C298 H283 0.940 . S
C298 C297 1.378 . S
C298 C299 1.396 . S
C299 H284 0.940 . S
C299 C294 1.391 . S
C299 C298 1.396 . S
C300 P280 1.803 1_565 S
C300 C301 1.378 . S
C300 C305 1.400 . S
C301 H285 0.939 . S
C301 C300 1.378 . S
C301 C302 1.361 . S
C302 H286 0.942 . S
C302 C301 1.361 . S
C302 C303 1.369 . S
C303 C302 1.369 . S
C303 C304 1.404 . S
C304 H287 0.940 . S
C304 C303 1.404 . S
C304 C305 1.389 . S
C305 H288 0.939 . S
C305 C300 1.400 . S
C305 C304 1.389 . S
C306 P280 1.819 . S
C306 C307 1.391 . S
C306 C311 1.391 . S
C307 H289 0.941 . S
C307 C306 1.391 . S
C307 C308 1.396 . S
C308 H292 0.939 . S
C308 C307 1.396 . S
C308 C309 1.397 . S
C309 C308 1.397 . S
C309 C310 1.385 . S
C310 H293 0.940 . S
C310 C309 1.385 . S
C310 C311 1.388 . S
C311 H290 0.939 . S
C311 C306 1.391 . S
C311 C310 1.388 . S
P312 O323 1.490 . S
P312 C326 1.812 . S
P312 C332 1.803 . S
P312 C338 1.819 1_554 S
H313 C327 0.941 . S
H314 C328 0.939 . S
H315 C330 0.940 . S
H316 C331 0.940 . S
H317 C333 0.939 . S
H318 C334 0.942 . S
H319 C336 0.940 . S
H320 C337 0.939 . S
H321 C339 0.941 . S
H322 C343 0.939 . S
O323 P312 1.490 . S
H324 C340 0.939 . S
H325 C342 0.940 . S
C326 P312 1.812 . S
C326 C327 1.389 . S
C326 C331 1.391 . S
C327 H313 0.941 . S
C327 C326 1.389 . S
C327 C328 1.397 . S
C328 H314 0.939 . S
C328 C327 1.397 . S
C328 C329 1.378 . S
C329 C328 1.378 . S
C329 C330 1.378 . S
C330 H315 0.940 . S
C330 C329 1.378 . S
C330 C331 1.396 . S
C331 H316 0.940 . S
C331 C326 1.391 . S
C331 C330 1.396 . S
C332 P312 1.803 . S
C332 C333 1.378 1_554 S
C332 C337 1.400 . S
C333 H317 0.939 . S
C333 C332 1.378 1_556 S
C333 C334 1.361 . S
C334 H318 0.942 . S
C334 C333 1.361 . S
C334 C335 1.369 1_556 S
C335 C334 1.369 1_554 S
C335 C336 1.404 . S
C336 H319 0.940 . S
C336 C335 1.404 . S
C336 C337 1.389 . S
C337 H320 0.939 . S
C337 C332 1.400 . S
C337 C336 1.389 . S
C338 P312 1.819 1_556 S
C338 C339 1.391 . S
C338 C343 1.391 . S
C339 H321 0.941 . S
C339 C338 1.391 . S
C339 C340 1.396 . S
C340 H324 0.939 . S
C340 C339 1.396 . S
C340 C341 1.397 . S
C341 C340 1.397 . S
C341 C342 1.385 . S
C342 H325 0.940 . S
C342 C341 1.385 . S
C342 C343 1.388 . S
C343 H322 0.939 . S
C343 C338 1.391 . S
C343 C342 1.388 . S
C344 C345 1.363 . S
C344 C350 1.379 . S
C344 N352 1.356 . S
C345 C344 1.363 . S
C345 C351 1.363 . S
C346 C347 1.363 . S
C346 C351 1.379 . S
C346 N353 1.356 . S
C347 C346 1.363 . S
C347 C350 1.363 . S
N348 C350 1.356 . S
N348 H360 0.984 . S
N348 H361 0.985 . S
N349 C351 1.356 . S
N349 H354 0.984 . S
N349 H355 0.985 . S
C350 C344 1.379 . S
C350 C347 1.363 . S
C350 N348 1.356 . S
C351 C345 1.363 . S
C351 C346 1.379 . S
C351 N349 1.356 . S
N352 C344 1.356 . S
N352 H358 0.984 . S
N352 H359 0.984 . S
N353 C346 1.356 . S
N353 H356 0.984 . S
N353 H357 0.985 . S
H354 N349 0.984 . S
H355 N349 0.985 . S
H356 N353 0.984 . S
H357 N353 0.985 . S
H358 N352 0.984 . S
H359 N352 0.984 . S
H360 N348 0.984 . S
H361 N348 0.985 . S
C362 C363 1.363 . S
C362 C368 1.379 . S
C362 N370 1.356 . S
C363 C362 1.363 . S
C363 C369 1.363 . S
C364 C365 1.363 . S
C364 C369 1.379 . S
C364 N371 1.356 . S
C365 C364 1.363 . S
C365 C368 1.363 . S
N366 C368 1.356 . S
N366 H378 0.984 . S
N366 H379 0.985 . S
N367 C369 1.356 . S
N367 H372 0.984 . S
N367 H373 0.985 . S
C368 C362 1.379 . S
C368 C365 1.363 . S
C368 N366 1.356 . S
C369 C363 1.363 . S
C369 C364 1.379 . S
C369 N367 1.356 . S
N370 C362 1.356 . S
N370 H376 0.984 . S
N370 H377 0.984 . S
N371 C364 1.356 . S
N371 H374 0.984 . S
N371 H375 0.985 . S
H372 N367 0.984 . S
H373 N367 0.985 . S
H374 N371 0.984 . S
H375 N371 0.985 . S
H376 N370 0.984 . S
H377 N370 0.984 . S
H378 N366 0.984 . S
H379 N366 0.985 . S
C380 C381 1.363 . S
C380 C386 1.379 . S
C380 N388 1.356 . S
C381 C380 1.363 . S
C381 C387 1.363 . S
C382 C383 1.363 . S
C382 C387 1.379 . S
C382 N389 1.356 . S
C383 C382 1.363 . S
C383 C386 1.363 . S
N384 C386 1.356 . S
N384 H396 0.984 . S
N384 H397 0.985 . S
N385 C387 1.356 . S
N385 H390 0.984 . S
N385 H391 0.985 . S
C386 C380 1.379 . S
C386 C383 1.363 . S
C386 N384 1.356 . S
C387 C381 1.363 . S
C387 C382 1.379 . S
C387 N385 1.356 . S
N388 C380 1.356 . S
N388 H394 0.984 . S
N388 H395 0.984 . S
N389 C382 1.356 . S
N389 H392 0.984 . S
N389 H393 0.985 . S
H390 N385 0.984 . S
H391 N385 0.985 . S
H392 N389 0.984 . S
H393 N389 0.985 . S
H394 N388 0.984 . S
H395 N388 0.984 . S
H396 N384 0.984 . S
H397 N384 0.985 . S
C398 C399 1.363 . S
C398 C404 1.379 . S
C398 N406 1.356 . S
C399 C398 1.363 . S
C399 C405 1.363 . S
C400 C401 1.363 . S
C400 C405 1.379 . S
C400 N407 1.356 . S
C401 C400 1.363 . S
C401 C404 1.363 . S
N402 C404 1.356 . S
N402 H414 0.984 . S
N402 H415 0.985 . S
N403 C405 1.356 . S
N403 H408 0.984 . S
N403 H409 0.985 . S
C404 C398 1.379 . S
C404 C401 1.363 . S
C404 N402 1.356 . S
C405 C399 1.363 . S
C405 C400 1.379 . S
C405 N403 1.356 . S
N406 C398 1.356 . S
N406 H412 0.984 . S
N406 H413 0.984 . S
N407 C400 1.356 . S
N407 H410 0.984 . S
N407 H411 0.985 . S
H408 N403 0.984 . S
H409 N403 0.985 . S
H410 N407 0.984 . S
H411 N407 0.985 . S
H412 N406 0.984 . S
H413 N406 0.984 . S
H414 N402 0.984 . S
H415 N402 0.985 . S
C416 C417 1.363 . S
C416 C422 1.379 . S
C416 N424 1.356 . S
C417 C416 1.363 . S
C417 C423 1.363 . S
C418 C419 1.363 . S
C418 C423 1.379 . S
C418 N425 1.356 . S
C419 C418 1.363 . S
C419 C422 1.363 . S
N420 C422 1.356 . S
N420 H432 0.984 . S
N420 H433 0.985 . S
N421 C423 1.356 . S
N421 H426 0.984 . S
N421 H427 0.985 . S
C422 C416 1.379 . S
C422 C419 1.363 . S
C422 N420 1.356 . S
C423 C417 1.363 . S
C423 C418 1.379 . S
C423 N421 1.356 . S
N424 C416 1.356 . S
N424 H430 0.984 . S
N424 H431 0.984 . S
N425 C418 1.356 . S
N425 H428 0.984 . S
N425 H429 0.985 . S
H426 N421 0.984 . S
H427 N421 0.985 . S
H428 N425 0.984 . S
H429 N425 0.985 . S
H430 N424 0.984 . S
H431 N424 0.984 . S
H432 N420 0.984 . S
H433 N420 0.985 . S
C434 C435 1.363 . S
C434 C440 1.379 . S
C434 N442 1.356 . S
C435 C434 1.363 . S
C435 C441 1.363 . S
C436 C437 1.363 . S
C436 C441 1.379 . S
C436 N443 1.356 . S
C437 C436 1.363 . S
C437 C440 1.363 . S
N438 C440 1.356 . S
N438 H450 0.984 . S
N438 H451 0.985 . S
N439 C441 1.356 . S
N439 H444 0.984 . S
N439 H445 0.985 . S
C440 C434 1.379 . S
C440 C437 1.363 . S
C440 N438 1.356 . S
C441 C435 1.363 . S
C441 C436 1.379 . S
C441 N439 1.356 . S
N442 C434 1.356 . S
N442 H448 0.984 . S
N442 H449 0.984 . S
N443 C436 1.356 . S
N443 H446 0.984 . S
N443 H447 0.985 . S
H444 N439 0.984 . S
H445 N439 0.985 . S
H446 N443 0.984 . S
H447 N443 0.985 . S
H448 N442 0.984 . S
H449 N442 0.984 . S
H450 N438 0.984 . S
H451 N438 0.985 . S
C452 C453 1.363 . S
C452 C458 1.379 . S
C452 N460 1.356 . S
C453 C452 1.363 . S
C453 C459 1.363 . S
C454 C455 1.363 . S
C454 C459 1.379 . S
C454 N461 1.356 . S
C455 C454 1.363 . S
C455 C458 1.363 . S
N456 C458 1.356 . S
N456 H468 0.984 . S
N456 H469 0.985 . S
N457 C459 1.356 . S
N457 H462 0.984 . S
N457 H463 0.985 . S
C458 C452 1.379 . S
C458 C455 1.363 . S
C458 N456 1.356 . S
C459 C453 1.363 . S
C459 C454 1.379 . S
C459 N457 1.356 . S
N460 C452 1.356 . S
N460 H466 0.984 . S
N460 H467 0.984 . S
N461 C454 1.356 . S
N461 H464 0.984 . S
N461 H465 0.985 . S
H462 N457 0.984 . S
H463 N457 0.985 . S
H464 N461 0.984 . S
H465 N461 0.985 . S
H466 N460 0.984 . S
H467 N460 0.984 . S
H468 N456 0.984 . S
H469 N456 0.985 . S
C470 C471 1.363 . S
C470 C476 1.379 . S
C470 N478 1.356 . S
C471 C470 1.363 . S
C471 C477 1.363 . S
C472 C473 1.363 . S
C472 C477 1.379 . S
C472 N479 1.356 . S
C473 C472 1.363 . S
C473 C476 1.363 . S
N474 C476 1.356 . S
N474 H486 0.984 . S
N474 H487 0.985 . S
N475 C477 1.356 . S
N475 H480 0.984 . S
N475 H481 0.985 . S
C476 C470 1.379 . S
C476 C473 1.363 . S
C476 N474 1.356 . S
C477 C471 1.363 . S
C477 C472 1.379 . S
C477 N475 1.356 . S
N478 C470 1.356 . S
N478 H484 0.984 . S
N478 H485 0.984 . S
N479 C472 1.356 . S
N479 H482 0.984 . S
N479 H483 0.985 . S
H480 N475 0.984 . S
H481 N475 0.985 . S
H482 N479 0.984 . S
H483 N479 0.985 . S
H484 N478 0.984 . S
H485 N478 0.984 . S
H486 N474 0.984 . S
H487 N474 0.985 . S
C488 C489 1.363 . S
C488 C494 1.379 . S
C488 N496 1.356 . S
C489 C488 1.363 . S
C489 C495 1.363 . S
C490 C491 1.363 . S
C490 C495 1.379 . S
C490 N497 1.356 . S
C491 C490 1.363 . S
C491 C494 1.363 . S
N492 C494 1.356 . S
N492 H504 0.984 . S
N492 H505 0.985 . S
N493 C495 1.356 . S
N493 H498 0.984 . S
N493 H499 0.985 . S
C494 C488 1.379 . S
C494 C491 1.363 . S
C494 N492 1.356 . S
C495 C489 1.363 . S
C495 C490 1.379 . S
C495 N493 1.356 . S
N496 C488 1.356 . S
N496 H502 0.984 . S
N496 H503 0.984 . S
N497 C490 1.356 . S
N497 H500 0.984 . S
N497 H501 0.985 . S
H498 N493 0.984 . S
H499 N493 0.985 . S
H500 N497 0.984 . S
H501 N497 0.985 . S
H502 N496 0.984 . S
H503 N496 0.984 . S
H504 N492 0.984 . S
H505 N492 0.985 . S
C506 C507 1.363 . S
C506 C512 1.379 . S
C506 N514 1.356 . S
C507 C506 1.363 . S
C507 C513 1.363 . S
C508 C509 1.363 . S
C508 C513 1.379 . S
C508 N515 1.356 . S
C509 C508 1.363 . S
C509 C512 1.363 . S
N510 C512 1.356 . S
N510 H522 0.984 . S
N510 H523 0.985 . S
N511 C513 1.356 . S
N511 H516 0.984 . S
N511 H517 0.985 . S
C512 C506 1.379 . S
C512 C509 1.363 . S
C512 N510 1.356 . S
C513 C507 1.363 . S
C513 C508 1.379 . S
C513 N511 1.356 . S
N514 C506 1.356 . S
N514 H520 0.984 . S
N514 H521 0.984 . S
N515 C508 1.356 . S
N515 H518 0.984 . S
N515 H519 0.985 . S
H516 N511 0.984 . S
H517 N511 0.985 . S
H518 N515 0.984 . S
H519 N515 0.985 . S
H520 N514 0.984 . S
H521 N514 0.984 . S
H522 N510 0.984 . S
H523 N510 0.985 . S
C524 C525 1.363 . S
C524 C530 1.379 . S
C524 N532 1.356 . S
C525 C524 1.363 . S
C525 C531 1.363 . S
C526 C527 1.363 . S
C526 C531 1.379 . S
C526 N533 1.356 . S
C527 C526 1.363 . S
C527 C530 1.363 . S
N528 C530 1.356 . S
N528 H540 0.984 . S
N528 H541 0.985 . S
N529 C531 1.356 . S
N529 H534 0.984 . S
N529 H535 0.985 . S
C530 C524 1.379 . S
C530 C527 1.363 . S
C530 N528 1.356 . S
C531 C525 1.363 . S
C531 C526 1.379 . S
C531 N529 1.356 . S
N532 C524 1.356 . S
N532 H538 0.984 . S
N532 H539 0.984 . S
N533 C526 1.356 . S
N533 H536 0.984 . S
N533 H537 0.985 . S
H534 N529 0.984 . S
H535 N529 0.985 . S
H536 N533 0.984 . S
H537 N533 0.985 . S
H538 N532 0.984 . S
H539 N532 0.984 . S
H540 N528 0.984 . S
H541 N528 0.985 . S
C542 C543 1.363 . S
C542 C548 1.379 . S
C542 N550 1.356 . S
C543 C542 1.363 . S
C543 C549 1.363 . S
C544 C545 1.363 . S
C544 C549 1.379 . S
C544 N551 1.356 . S
C545 C544 1.363 . S
C545 C548 1.363 . S
N546 C548 1.356 . S
N546 H558 0.984 . S
N546 H559 0.985 . S
N547 C549 1.356 . S
N547 H552 0.984 . S
N547 H553 0.985 . S
C548 C542 1.379 . S
C548 C545 1.363 . S
C548 N546 1.356 . S
C549 C543 1.363 . S
C549 C544 1.379 . S
C549 N547 1.356 . S
N550 C542 1.356 . S
N550 H556 0.984 . S
N550 H557 0.984 . S
N551 C544 1.356 . S
N551 H554 0.984 . S
N551 H555 0.985 . S
H552 N547 0.984 . S
H553 N547 0.985 . S
H554 N551 0.984 . S
H555 N551 0.985 . S
H556 N550 0.984 . S
H557 N550 0.984 . S
H558 N546 0.984 . S
H559 N546 0.985 . S
C560 C561 1.363 . S
C560 C566 1.379 . S
C560 N568 1.356 . S
C561 C560 1.363 . S
C561 C567 1.363 . S
C562 C563 1.363 . S
C562 C567 1.379 . S
C562 N569 1.356 . S
C563 C562 1.363 . S
C563 C566 1.363 . S
N564 C566 1.356 . S
N564 H576 0.984 . S
N564 H577 0.985 . S
N565 C567 1.356 . S
N565 H570 0.984 . S
N565 H571 0.985 . S
C566 C560 1.379 . S
C566 C563 1.363 . S
C566 N564 1.356 . S
C567 C561 1.363 . S
C567 C562 1.379 . S
C567 N565 1.356 . S
N568 C560 1.356 . S
N568 H574 0.984 . S
N568 H575 0.984 . S
N569 C562 1.356 . S
N569 H572 0.984 . S
N569 H573 0.985 . S
H570 N565 0.984 . S
H571 N565 0.985 . S
H572 N569 0.984 . S
H573 N569 0.985 . S
H574 N568 0.984 . S
H575 N568 0.984 . S
H576 N564 0.984 . S
H577 N564 0.985 . S
C578 C579 1.363 . S
C578 C584 1.379 . S
C578 N586 1.356 . S
C579 C578 1.363 . S
C579 C585 1.363 . S
C580 C581 1.363 . S
C580 C585 1.379 . S
C580 N587 1.356 . S
C581 C580 1.363 . S
C581 C584 1.363 . S
N582 C584 1.356 . S
N582 H594 0.984 . S
N582 H595 0.985 . S
N583 C585 1.356 . S
N583 H588 0.984 . S
N583 H589 0.985 . S
C584 C578 1.379 . S
C584 C581 1.363 . S
C584 N582 1.356 . S
C585 C579 1.363 . S
C585 C580 1.379 . S
C585 N583 1.356 . S
N586 C578 1.356 . S
N586 H592 0.984 . S
N586 H593 0.984 . S
N587 C580 1.356 . S
N587 H590 0.984 . S
N587 H591 0.985 . S
H588 N583 0.984 . S
H589 N583 0.985 . S
H590 N587 0.984 . S
H591 N587 0.985 . S
H592 N586 0.984 . S
H593 N586 0.984 . S
H594 N582 0.984 . S
H595 N582 0.985 . S
C596 C597 1.363 . S
C596 C602 1.379 . S
C596 N604 1.356 . S
C597 C596 1.363 . S
C597 C603 1.363 . S
C598 C599 1.363 . S
C598 C603 1.379 . S
C598 N605 1.356 . S
C599 C598 1.363 . S
C599 C602 1.363 . S
N600 C602 1.356 . S
N600 H612 0.984 . S
N600 H613 0.985 . S
N601 C603 1.356 . S
N601 H606 0.984 . S
N601 H607 0.985 . S
C602 C596 1.379 . S
C602 C599 1.363 . S
C602 N600 1.356 . S
C603 C597 1.363 . S
C603 C598 1.379 . S
C603 N601 1.356 . S
N604 C596 1.356 . S
N604 H610 0.984 . S
N604 H611 0.984 . S
N605 C598 1.356 . S
N605 H608 0.984 . S
N605 H609 0.985 . S
H606 N601 0.984 . S
H607 N601 0.985 . S
H608 N605 0.984 . S
H609 N605 0.985 . S
H610 N604 0.984 . S
H611 N604 0.984 . S
H612 N600 0.984 . S
H613 N600 0.985 . S
C614 C615 1.363 . S
C614 C620 1.379 . S
C614 N622 1.356 . S
C615 C614 1.363 . S
C615 C621 1.363 . S
C616 C617 1.363 . S
C616 C621 1.379 . S
C616 N623 1.356 . S
C617 C616 1.363 . S
C617 C620 1.363 . S
N618 C620 1.356 . S
N618 H630 0.984 . S
N618 H631 0.985 . S
N619 C621 1.356 . S
N619 H624 0.984 . S
N619 H625 0.985 . S
C620 C614 1.379 . S
C620 C617 1.363 . S
C620 N618 1.356 . S
C621 C615 1.363 . S
C621 C616 1.379 . S
C621 N619 1.356 . S
N622 C614 1.356 . S
N622 H628 0.984 . S
N622 H629 0.984 . S
N623 C616 1.356 . S
N623 H626 0.984 . S
N623 H627 0.985 . S
H624 N619 0.984 . S
H625 N619 0.985 . S
H626 N623 0.984 . S
H627 N623 0.985 . S
H628 N622 0.984 . S
H629 N622 0.984 . S
H630 N618 0.984 . S
H631 N618 0.985 . S
C632 C633 1.355 1_556 S
C632 C638 1.379 . S
C632 N640 1.356 . S
C633 C632 1.355 1_554 S
C633 C639 1.371 . S
C634 C635 1.362 1_554 S
C634 C639 1.379 . S
C634 N641 1.356 . S
C635 C634 1.362 1_556 S
C635 C638 1.364 . S
N636 C638 1.356 . S
N636 H648 0.984 . S
N636 H649 0.985 . S
N637 C639 1.356 . S
N637 H642 0.984 . S
N637 H643 0.985 . S
C638 C632 1.379 . S
C638 C635 1.364 . S
C638 N636 1.356 . S
C639 C633 1.371 . S
C639 C634 1.379 . S
C639 N637 1.356 . S
N640 C632 1.356 . S
N640 H646 0.984 . S
N640 H647 0.984 . S
N641 C634 1.356 . S
N641 H644 0.984 . S
N641 H645 0.985 . S
H642 N637 0.984 . S
H643 N637 0.985 . S
H644 N641 0.984 . S
H645 N641 0.985 . S
H646 N640 0.984 . S
H647 N640 0.984 . S
H648 N636 0.984 . S
H649 N636 0.985 . S
C650 C651 1.363 . S
C650 C656 1.379 . S
C650 N658 1.356 . S
C651 C650 1.363 . S
C651 C657 1.363 . S
C652 C653 1.363 . S
C652 C657 1.379 . S
C652 N659 1.356 . S
C653 C652 1.363 . S
C653 C656 1.363 . S
N654 C656 1.356 . S
N654 H666 0.984 . S
N654 H667 0.985 . S
N655 C657 1.356 . S
N655 H660 0.984 . S
N655 H661 0.985 . S
C656 C650 1.379 . S
C656 C653 1.363 . S
C656 N654 1.356 . S
C657 C651 1.363 . S
C657 C652 1.379 . S
C657 N655 1.356 . S
N658 C650 1.356 . S
N658 H664 0.984 . S
N658 H665 0.984 . S
N659 C652 1.356 . S
N659 H662 0.984 . S
N659 H663 0.985 . S
H660 N655 0.984 . S
H661 N655 0.985 . S
H662 N659 0.984 . S
H663 N659 0.985 . S
H664 N658 0.984 . S
H665 N658 0.984 . S
H666 N654 0.984 . S
H667 N654 0.985 . S
C668 C669 1.363 . S
C668 C674 1.379 . S
C668 N676 1.356 . S
C669 C668 1.363 . S
C669 C675 1.363 1_554 S
C670 C671 1.363 1_556 S
C670 C675 1.379 . S
C670 N677 1.356 . S
C671 C670 1.363 1_554 S
C671 C674 1.363 . S
N672 C674 1.356 . S
N672 H684 0.984 . S
N672 H685 0.985 . S
N673 C675 1.356 . S
N673 H678 0.984 . S
N673 H679 0.985 . S
C674 C668 1.379 . S
C674 C671 1.363 . S
C674 N672 1.356 . S
C675 C669 1.363 1_556 S
C675 C670 1.379 . S
C675 N673 1.356 . S
N676 C668 1.356 . S
N676 H682 0.984 . S
N676 H683 0.984 . S
N677 C670 1.356 . S
N677 H680 0.984 . S
N677 H681 0.985 . S
H678 N673 0.984 . S
H679 N673 0.985 . S
H680 N677 0.984 . S
H681 N677 0.985 . S
H682 N676 0.984 . S
H683 N676 0.984 . S
H684 N672 0.984 . S
H685 N672 0.985 . S
C686 C687 1.363 . S
C686 C692 1.379 . S
C686 N694 1.356 . S
C687 C686 1.363 . S
C687 C693 1.363 . S
C688 C689 1.363 . S
C688 C693 1.379 . S
C688 N695 1.356 . S
C689 C688 1.363 . S
C689 C692 1.363 . S
N690 C692 1.356 . S
N690 H702 0.984 . S
N690 H703 0.985 . S
N691 C693 1.356 . S
N691 H696 0.984 . S
N691 H697 0.985 . S
C692 C686 1.379 . S
C692 C689 1.363 . S
C692 N690 1.356 . S
C693 C687 1.363 . S
C693 C688 1.379 . S
C693 N691 1.356 . S
N694 C686 1.356 . S
N694 H700 0.984 . S
N694 H701 0.984 . S
N695 C688 1.356 . S
N695 H698 0.984 . S
N695 H699 0.985 . S
H696 N691 0.984 . S
H697 N691 0.985 . S
H698 N695 0.984 . S
H699 N695 0.985 . S
H700 N694 0.984 . S
H701 N694 0.984 . S
H702 N690 0.984 . S
H703 N690 0.985 . S
C704 C705 1.363 . S
C704 C710 1.379 . S
C704 N712 1.356 . S
C705 C704 1.363 . S
C705 C711 1.363 . S
C706 C707 1.363 . S
C706 C711 1.379 . S
C706 N713 1.356 . S
C707 C706 1.363 . S
C707 C710 1.363 . S
N708 C710 1.356 . S
N708 H720 0.984 . S
N708 H721 0.985 . S
N709 C711 1.356 . S
N709 H714 0.984 . S
N709 H715 0.985 . S
C710 C704 1.379 . S
C710 C707 1.363 . S
C710 N708 1.356 . S
C711 C705 1.363 . S
C711 C706 1.379 . S
C711 N709 1.356 . S
N712 C704 1.356 . S
N712 H718 0.984 . S
N712 H719 0.984 . S
N713 C706 1.356 . S
N713 H716 0.984 . S
N713 H717 0.985 . S
H714 N709 0.984 . S
H715 N709 0.985 . S
H716 N713 0.984 . S
H717 N713 0.985 . S
H718 N712 0.984 . S
H719 N712 0.984 . S
H720 N708 0.984 . S
H721 N708 0.985 . S
C722 C723 1.363 1_556 S
C722 C728 1.379 . S
C722 N730 1.356 . S
C723 C722 1.363 1_554 S
C723 C729 1.363 . S
C724 C725 1.363 . S
C724 C729 1.379 . S
C724 N731 1.356 . S
C725 C724 1.363 . S
C725 C728 1.363 1_554 S
N726 C728 1.356 . S
N726 H738 0.984 . S
N726 H739 0.985 . S
N727 C729 1.356 . S
N727 H732 0.984 . S
N727 H733 0.985 . S
C728 C722 1.379 . S
C728 C725 1.363 1_556 S
C728 N726 1.356 . S
C729 C723 1.363 . S
C729 C724 1.379 . S
C729 N727 1.356 . S
N730 C722 1.356 . S
N730 H736 0.984 . S
N730 H737 0.984 . S
N731 C724 1.356 . S
N731 H734 0.984 . S
N731 H735 0.985 . S
H732 N727 0.984 . S
H733 N727 0.985 . S
H734 N731 0.984 . S
H735 N731 0.985 . S
H736 N730 0.984 . S
H737 N730 0.984 . S
H738 N726 0.984 . S
H739 N726 0.985 . S
C740 C741 1.363 . S
C740 C746 1.379 . S
C740 N748 1.356 . S
C741 C740 1.363 . S
C741 C747 1.363 . S
C742 C743 1.363 . S
C742 C747 1.379 . S
C742 N749 1.356 . S
C743 C742 1.363 . S
C743 C746 1.363 . S
N744 C746 1.356 . S
N744 H756 0.984 . S
N744 H757 0.985 . S
N745 C747 1.356 . S
N745 H750 0.984 . S
N745 H751 0.985 . S
C746 C740 1.379 . S
C746 C743 1.363 . S
C746 N744 1.356 . S
C747 C741 1.363 . S
C747 C742 1.379 . S
C747 N745 1.356 . S
N748 C740 1.356 . S
N748 H754 0.984 . S
N748 H755 0.984 . S
N749 C742 1.356 . S
N749 H752 0.984 . S
N749 H753 0.985 . S
H750 N745 0.984 . S
H751 N745 0.985 . S
H752 N749 0.984 . S
H753 N749 0.985 . S
H754 N748 0.984 . S
H755 N748 0.984 . S
H756 N744 0.984 . S
H757 N744 0.985 . S
C758 C759 1.356 1_556 S
C758 C764 1.379 . S
C758 N766 1.356 . S
C759 C758 1.356 1_554 S
C759 C765 1.370 . S
C760 C761 1.362 1_554 S
C760 C765 1.379 . S
C760 N767 1.356 . S
C761 C760 1.362 1_556 S
C761 C764 1.364 . S
N762 C764 1.356 . S
N762 H774 0.984 . S
N762 H775 0.985 . S
N763 C765 1.356 . S
N763 H768 0.984 . S
N763 H769 0.985 . S
C764 C758 1.379 . S
C764 C761 1.364 . S
C764 N762 1.356 . S
C765 C759 1.370 . S
C765 C760 1.379 . S
C765 N763 1.356 . S
N766 C758 1.356 . S
N766 H772 0.984 . S
N766 H773 0.984 . S
N767 C760 1.356 . S
N767 H770 0.984 . S
N767 H771 0.985 . S
H768 N763 0.984 . S
H769 N763 0.985 . S
H770 N767 0.984 . S
H771 N767 0.985 . S
H772 N766 0.984 . S
H773 N766 0.984 . S
H774 N762 0.984 . S
H775 N762 0.985 . S
C345 C5 1.500 . S
C347 C201 1.508 . S
C363 C31 1.513 . S
C365 C117 1.433 . S
C383 C149 1.428 . S
C381 C53 1.506 . S
C399 C71 1.492 . S
C401 C169 1.501 . S
C419 C277 1.433 . S
C417 C75 1.513 . S
C437 C297 1.508 . S
C435 C9 1.500 . S
C455 C329 1.501 . S
C453 C27 1.492 . S
C473 C245 1.428 . S
C471 C49 1.506 . S
C489 C51 1.500 . S
C491 C137 1.436 . S
C507 C72 1.513 . S
C509 C181 1.517 . S
C525 C6 1.506 . S
C527 C213 1.510 . S
C545 C105 1.431 . S
C543 C29 1.492 . S
C561 C28 1.513 . S
C563 C341 1.517 . S
C581 C233 1.436 . S
C579 C50 1.500 . S
C599 C265 1.431 . S
C597 C73 1.493 . S
C615 C7 1.506 . S
C617 C309 1.510 . S
C635 C111 1.444 1_556 S
C633 C4 1.519 . S
C653 C143 1.444 . S
C651 C30 1.520 . S
C669 C52 1.520 . S
C671 C175 1.521 . S
C687 C70 1.519 . S
C689 C207 1.520 . S
C707 C239 1.444 . S
C705 C74 1.520 . S
C723 C8 1.519 . S
C725 C271 1.444 . S
C741 C26 1.520 . S
C743 C303 1.521 . S
C759 C48 1.519 . S
C761 C335 1.520 1_556 S
