# Generated by pormake.
# Topology nom, (4,4)-cn, num edge types: 1
# Building blocks:
#     Node 0, Type 0, BuildingBlock: NAWXER_clean_linker_0, # of connection points: 4
#     Node 1, Type 0, BuildingBlock: NAWXER_clean_linker_0, # of connection points: 4
#     Node 2, Type 0, BuildingBlock: NAWXER_clean_linker_0, # of connection points: 4
#     Node 3, Type 0, BuildingBlock: NAWXER_clean_linker_0, # of connection points: 4
#     Node 4, Type 0, BuildingBlock: NAWXER_clean_linker_0, # of connection points: 4
#     Node 5, Type 0, BuildingBlock: NAWXER_clean_linker_0, # of connection points: 4
#     Node 6, Type 1, BuildingBlock: AZAVOO_clean_sbu_0, # of connection points: 4
#     Node 7, Type 1, BuildingBlock: AZAVOO_clean_sbu_0, # of connection points: 4
#     Node 8, Type 1, BuildingBlock: AZAVOO_clean_sbu_0, # of connection points: 4
#     Node 9, Type 1, BuildingBlock: AZAVOO_clean_sbu_0, # of connection points: 4
#     Node 10, Type 1, BuildingBlock: AZAVOO_clean_sbu_0, # of connection points: 4
#     Node 11, Type 1, BuildingBlock: AZAVOO_clean_sbu_0, # of connection points: 4
#     Edge 12, Type (0, 1), BuildingBlock: MIFKUJ_clean_linker_0, # of connection points: 2
#     Edge 13, Type (0, 1), BuildingBlock: MIFKUJ_clean_linker_0, # of connection points: 2
#     Edge 14, Type (0, 1), BuildingBlock: MIFKUJ_clean_linker_0, # of connection points: 2
#     Edge 15, Type (0, 1), BuildingBlock: MIFKUJ_clean_linker_0, # of connection points: 2
#     Edge 16, Type (0, 1), BuildingBlock: MIFKUJ_clean_linker_0, # of connection points: 2
#     Edge 17, Type (0, 1), BuildingBlock: MIFKUJ_clean_linker_0, # of connection points: 2
#     Edge 18, Type (0, 1), BuildingBlock: MIFKUJ_clean_linker_0, # of connection points: 2
#     Edge 19, Type (0, 1), BuildingBlock: MIFKUJ_clean_linker_0, # of connection points: 2
#     Edge 20, Type (0, 1), BuildingBlock: MIFKUJ_clean_linker_0, # of connection points: 2
#     Edge 21, Type (0, 1), BuildingBlock: MIFKUJ_clean_linker_0, # of connection points: 2
#     Edge 22, Type (0, 1), BuildingBlock: MIFKUJ_clean_linker_0, # of connection points: 2
#     Edge 23, Type (0, 1), BuildingBlock: MIFKUJ_clean_linker_0, # of connection points: 2
#     Edge 24, Type (0, 1), BuildingBlock: MIFKUJ_clean_linker_0, # of connection points: 2
#     Edge 25, Type (0, 1), BuildingBlock: MIFKUJ_clean_linker_0, # of connection points: 2
#     Edge 26, Type (0, 1), BuildingBlock: MIFKUJ_clean_linker_0, # of connection points: 2
#     Edge 27, Type (0, 1), BuildingBlock: MIFKUJ_clean_linker_0, # of connection points: 2
#     Edge 28, Type (0, 1), BuildingBlock: MIFKUJ_clean_linker_0, # of connection points: 2
#     Edge 29, Type (0, 1), BuildingBlock: MIFKUJ_clean_linker_0, # of connection points: 2
#     Edge 30, Type (0, 1), BuildingBlock: MIFKUJ_clean_linker_0, # of connection points: 2
#     Edge 31, Type (0, 1), BuildingBlock: MIFKUJ_clean_linker_0, # of connection points: 2
#     Edge 32, Type (0, 1), BuildingBlock: MIFKUJ_clean_linker_0, # of connection points: 2
#     Edge 33, Type (0, 1), BuildingBlock: MIFKUJ_clean_linker_0, # of connection points: 2
#     Edge 34, Type (0, 1), BuildingBlock: MIFKUJ_clean_linker_0, # of connection points: 2
#     Edge 35, Type (0, 1), BuildingBlock: MIFKUJ_clean_linker_0, # of connection points: 2
# Relax obj value: 0.043
# Max RMSD: 0.156
# Mean RMSD: 0.129
data_MOF--net-nom--node1-AZAVOO_clean_sbu_0--node2-NAWXER_clean_linker_0--edge1-MIFKUJ_clean_linker_0
_symmetry_space_group_name_H-M    P1
_symmetry_Int_Tables_number       1
_symmetry_cell_setting            triclinic
loop_
_symmetry_equiv_pos_as_xyz
'x, y, z'
_cell_length_a     65.212602
_cell_length_b     65.851776
_cell_length_c     70.21572
_cell_angle_alpha  90.820057
_cell_angle_beta   90.884497
_cell_angle_gamma 120.01766
loop_
_atom_site_label
_atom_site_type_symbol
_atom_site_fract_x
_atom_site_fract_y
_atom_site_fract_z
_atom_type_partial_charge
C0 C 0.91307 0.46927 0.34615 0.0
C1 C 0.90531 0.45127 0.35943 0.0
C2 C 0.9354 0.47853 0.33832 0.0
C3 C 0.95033 0.4697 0.34329 0.0
C4 C 0.92025 0.44239 0.36441 0.0
C5 C 0.94265 0.45167 0.3565 0.0
C6 C 0.9747 0.48081 0.33613 0.0
C7 C 0.92701 0.44795 0.28444 0.0
C8 C 0.92842 0.46395 0.27073 0.0
C9 C 0.94364 0.45528 0.29953 0.0
C10 C 0.96187 0.47879 0.30131 0.0
C11 C 0.94672 0.48746 0.27257 0.0
C12 C 0.96332 0.49475 0.28763 0.0
C13 C 0.98009 0.48675 0.31686 0.0
C14 C 0.0871 0.53442 0.31748 0.0
C15 C 0.09191 0.554 0.30658 0.0
C16 C 0.06412 0.51925 0.32348 0.0
C17 C 0.04564 0.52358 0.31887 0.0
C18 C 0.07325 0.55799 0.30171 0.0
C19 C 0.05034 0.54286 0.30772 0.0
C20 C 0.02127 0.50812 0.32533 0.0
C21 C 0.06544 0.54236 0.37869 0.0
C22 C 0.06736 0.52639 0.39066 0.0
C23 C 0.04894 0.53432 0.36351 0.0
C24 C 0.03407 0.51016 0.35996 0.0
C25 C 0.05246 0.50219 0.38695 0.0
C26 C 0.03583 0.49418 0.37186 0.0
C27 C 0.01592 0.50151 0.34444 0.0
H28 H 0.90189 0.47631 0.34183 0.0
H29 H 0.94116 0.49296 0.32867 0.0
H30 H 0.91484 0.42869 0.37473 0.0
H31 H 0.95406 0.44489 0.36079 0.0
H32 H 0.91341 0.42964 0.28327 0.0
H33 H 0.94247 0.44246 0.30961 0.0
H34 H 0.94815 0.50031 0.26242 0.0
H35 H 0.97725 0.51296 0.28866 0.0
H36 H 0.10103 0.53067 0.32118 0.0
H37 H 0.06079 0.5041 0.33163 0.0
H38 H 0.07641 0.57306 0.29353 0.0
H39 H 0.03633 0.54649 0.30395 0.0
H40 H 0.07625 0.56109 0.38132 0.0
H41 H 0.04749 0.54697 0.35474 0.0
H42 H 0.05365 0.48937 0.39568 0.0
H43 H 0.02443 0.47547 0.36939 0.0
N44 N 0.99284 0.48814 0.34912 0.0
N45 N 0.00317 0.50042 0.31228 0.0
C46 C 0.43553 0.9293 0.49898 0.0
C47 C 0.44122 0.91731 0.51257 0.0
C48 C 0.45184 0.95242 0.49473 0.0
C49 C 0.47431 0.964 0.50378 0.0
C50 C 0.46359 0.92906 0.52189 0.0
C51 C 0.47994 0.95231 0.51762 0.0
C52 C 0.49158 0.98842 0.49894 0.0
C53 C 0.48465 0.94287 0.44893 0.0
C54 C 0.47375 0.94609 0.43274 0.0
C55 C 0.4925 0.95906 0.46416 0.0
C56 C 0.48933 0.97863 0.46362 0.0
C57 C 0.47111 0.966 0.43204 0.0
C58 C 0.47893 0.98217 0.44731 0.0
C59 C 0.49699 0.99552 0.47993 0.0
C60 C 0.56371 0.10069 0.4885 0.0
C61 C 0.55399 0.10745 0.47358 0.0
C62 C 0.55259 0.07727 0.49398 0.0
C63 C 0.53117 0.06042 0.48501 0.0
C64 C 0.53301 0.09048 0.46427 0.0
C65 C 0.52172 0.06724 0.46994 0.0
C66 C 0.51851 0.03553 0.4906 0.0
C67 C 0.52296 0.07708 0.54396 0.0
C68 C 0.53809 0.07607 0.55797 0.0
C69 C 0.51517 0.06162 0.52818 0.0
C70 C 0.52235 0.04489 0.52615 0.0
C71 C 0.54516 0.05919 0.5558 0.0
C72 C 0.53716 0.04361 0.54014 0.0
C73 C 0.51414 0.0283 0.5097 0.0
H74 H 0.41854 0.9207 0.49146 0.0
H75 H 0.44688 0.96128 0.48431 0.0
H76 H 0.46834 0.92038 0.53261 0.0
H77 H 0.49708 0.96104 0.52492 0.0
H78 H 0.48743 0.928 0.44972 0.0
H79 H 0.50112 0.95632 0.47636 0.0
H80 H 0.46266 0.96889 0.4198 0.0
H81 H 0.47643 0.99722 0.44654 0.0
H82 H 0.58005 0.11345 0.49571 0.0
H83 H 0.56083 0.07237 0.50511 0.0
H84 H 0.52509 0.09529 0.45281 0.0
H85 H 0.50534 0.05461 0.46269 0.0
H86 H 0.5168 0.08954 0.54532 0.0
H87 H 0.5034 0.0626 0.51764 0.0
H88 H 0.5571 0.05812 0.56609 0.0
H89 H 0.54285 0.03076 0.5388 0.0
N90 N 0.50074 0.00503 0.51316 0.0
N91 N 0.50986 0.01879 0.47647 0.0
C92 C 0.57536 0.5048 0.58771 0.0
C93 C 0.55884 0.49116 0.57321 0.0
C94 C 0.56819 0.51225 0.60372 0.0
C95 C 0.5444 0.50625 0.60545 0.0
C96 C 0.53508 0.48531 0.57494 0.0
C97 C 0.52797 0.49298 0.59084 0.0
C98 C 0.53659 0.51417 0.62222 0.0
C99 C 0.55228 0.45946 0.64434 0.0
C100 C 0.57052 0.46766 0.65832 0.0
C101 C 0.54333 0.4737 0.63834 0.0
C102 C 0.55259 0.4965 0.64606 0.0
C103 C 0.58002 0.49064 0.6658 0.0
C104 C 0.57101 0.50486 0.65981 0.0
C105 C 0.54167 0.5108 0.64115 0.0
C106 C 0.49897 0.53501 0.70055 0.0
C107 C 0.50587 0.5589 0.70189 0.0
C108 C 0.50441 0.52602 0.68449 0.0
C109 C 0.51624 0.54062 0.66932 0.0
C110 C 0.51801 0.57359 0.68682 0.0
C111 C 0.523 0.56447 0.67057 0.0
C112 C 0.52241 0.53103 0.65263 0.0
C113 C 0.48867 0.56469 0.60897 0.0
C114 C 0.46604 0.55401 0.61681 0.0
C115 C 0.50523 0.55837 0.61491 0.0
C116 C 0.49962 0.54171 0.62908 0.0
C117 C 0.46053 0.53752 0.63113 0.0
C118 C 0.47719 0.53144 0.63724 0.0
C119 C 0.51606 0.5331 0.63376 0.0
H120 H 0.59377 0.5095 0.58675 0.0
H121 H 0.58125 0.52284 0.61467 0.0
H122 H 0.52205 0.47507 0.56386 0.0
H123 H 0.50957 0.4883 0.59184 0.0
H124 H 0.54424 0.4417 0.63857 0.0
H125 H 0.52859 0.46656 0.62816 0.0
H126 H 0.59425 0.49757 0.67644 0.0
H127 H 0.57829 0.52233 0.66605 0.0
H128 H 0.48964 0.5234 0.71205 0.0
H129 H 0.49918 0.5076 0.68383 0.0
H130 H 0.5234 0.59205 0.68755 0.0
H131 H 0.53243 0.57609 0.6591 0.0
H132 H 0.49327 0.57735 0.59782 0.0
H133 H 0.52233 0.56624 0.60826 0.0
H134 H 0.44325 0.52914 0.63748 0.0
H135 H 0.47223 0.51811 0.64785 0.0
N136 N 0.52366 0.52488 0.61925 0.0
N137 N 0.5347 0.51968 0.65564 0.0
C138 C 0.9202 0.47039 0.82017 0.0
C139 C 0.91098 0.47555 0.80394 0.0
C140 C 0.9431 0.48606 0.82701 0.0
C141 C 0.95699 0.50759 0.81811 0.0
C142 C 0.92479 0.49699 0.79499 0.0
C143 C 0.94757 0.51289 0.80205 0.0
C144 C 0.98223 0.52309 0.82383 0.0
C145 C 0.94243 0.51966 0.87667 0.0
C146 C 0.94812 0.51076 0.89273 0.0
C147 C 0.95609 0.52501 0.86037 0.0
C148 C 0.97537 0.52107 0.85972 0.0
C149 C 0.96752 0.50708 0.89212 0.0
C150 C 0.98101 0.5122 0.8758 0.0
C151 C 0.99075 0.52748 0.84297 0.0
C152 C 0.09696 0.58696 0.83639 0.0
C153 C 0.10384 0.57402 0.848 0.0
C154 C 0.0731 0.57811 0.8313 0.0
C155 C 0.05575 0.55615 0.83769 0.0
C156 C 0.08626 0.55224 0.85463 0.0
C157 C 0.06249 0.54352 0.84965 0.0
C158 C 0.03049 0.54597 0.83223 0.0
C159 C 0.06847 0.54851 0.77847 0.0
C160 C 0.06595 0.56186 0.76413 0.0
C161 C 0.05432 0.54233 0.79448 0.0
C162 C 0.03766 0.54972 0.79661 0.0
C163 C 0.04897 0.56888 0.76616 0.0
C164 C 0.03489 0.56278 0.78222 0.0
C165 C 0.02205 0.54277 0.81317 0.0
H166 H 0.91008 0.45375 0.82708 0.0
H167 H 0.95018 0.48086 0.8388 0.0
H168 H 0.91805 0.50134 0.78243 0.0
H169 H 0.95804 0.52916 0.79472 0.0
H170 H 0.92773 0.52294 0.87687 0.0
H171 H 0.95179 0.53255 0.84842 0.0
H172 H 0.97215 0.49998 0.9042 0.0
H173 H 0.99585 0.50913 0.87572 0.0
H174 H 0.10998 0.60396 0.83129 0.0
H175 H 0.0682 0.58837 0.82237 0.0
H176 H 0.09087 0.54156 0.86329 0.0
H177 H 0.04936 0.52654 0.85476 0.0
H178 H 0.08106 0.54243 0.77712 0.0
H179 H 0.05619 0.53151 0.80505 0.0
H180 H 0.04672 0.57931 0.75543 0.0
H181 H 0.02193 0.5684 0.78348 0.0
N182 N -0.00172 0.53136 0.80973 0.0
N183 N 0.01453 0.53837 0.84634 0.0
C184 C 0.48262 0.93065 0.9907 0.0
C185 C 0.46411 0.91805 0.97731 0.0
C186 C 0.48849 0.95327 0.99662 0.0
C187 C 0.47593 0.96374 0.9893 0.0
C188 C 0.45122 0.92833 0.97024 0.0
C189 C 0.45727 0.95112 0.97604 0.0
C190 C 0.48378 0.98851 0.99423 0.0
C191 C 0.45277 0.94967 0.04767 0.0
C192 C 0.46899 0.95554 0.06305 0.0
C193 C 0.45928 0.96306 0.03131 0.0
C194 C 0.48218 0.98246 0.02996 0.0
C195 C 0.49188 0.97502 0.06167 0.0
C196 C 0.49836 0.98841 0.04531 0.0
C197 C 0.48892 0.99748 0.01314 0.0
C198 C 0.52704 0.10145 0.00619 0.0
C199 C 0.54706 0.10937 0.01841 0.0
C200 C 0.51376 0.07776 0.00051 0.0
C201 C 0.52041 0.06169 0.00687 0.0
C202 C 0.55356 0.09314 0.02467 0.0
C203 C 0.54029 0.06959 0.01908 0.0
C204 C 0.50653 0.03643 0.00174 0.0
C205 C 0.53672 0.07302 0.94681 0.0
C206 C 0.51962 0.0685 0.9324 0.0
C207 C 0.53047 0.05995 0.96335 0.0
C208 C 0.5069 0.04238 0.96597 0.0
C209 C 0.49606 0.05081 0.93504 0.0
C210 C 0.48981 0.0378 0.95163 0.0
C211 C 0.50028 0.02744 0.98283 0.0
H212 H 0.49279 0.92311 0.99642 0.0
H213 H 0.50336 0.96285 0.0065 0.0
H214 H 0.43702 0.91905 0.95975 0.0
H215 H 0.44756 0.959 0.97004 0.0
H216 H 0.43486 0.93504 0.04845 0.0
H217 H 0.44623 0.95854 0.0199 0.0
H218 H 0.50485 0.97982 0.07319 0.0
H219 H 0.51609 0.0034 0.04462 0.0
H220 H 0.52144 0.11346 0.00127 0.0
H221 H 0.49818 0.07195 0.99138 0.0
H222 H 0.56913 0.09867 0.03374 0.0
H223 H 0.54575 0.0575 0.02415 0.0
H224 H 0.55499 0.08666 0.94529 0.0
H225 H 0.54415 0.06333 0.97392 0.0
H226 H 0.48255 0.04666 0.92411 0.0
H227 H 0.4716 0.02403 0.95324 0.0
N228 N 0.48926 0.0038 0.97981 0.0
N229 N 0.5004 0.02107 0.01612 0.0
C230 C 0.45663 0.56487 0.15285 0.0
C231 C 0.43952 0.55598 0.16705 0.0
C232 C 0.46514 0.55105 0.14491 0.0
C233 C 0.45633 0.52787 0.15069 0.0
C234 C 0.43003 0.53249 0.17225 0.0
C235 C 0.43843 0.51861 0.16419 0.0
C236 C 0.46835 0.51472 0.14528 0.0
C237 C 0.43912 0.52564 0.09069 0.0
C238 C 0.45543 0.53656 0.07623 0.0
C239 C 0.44559 0.51804 0.10702 0.0
C240 C 0.46879 0.522 0.1095 0.0
C241 C 0.47835 0.53992 0.07838 0.0
C242 C 0.485 0.53282 0.09489 0.0
C243 C 0.47611 0.51399 0.12668 0.0
C244 C 0.53023 0.46212 0.1391 0.0
C245 C 0.55185 0.47806 0.13096 0.0
C246 C 0.51242 0.46785 0.14122 0.0
C247 C 0.51598 0.48964 0.1353 0.0
C248 C 0.55496 0.49947 0.12441 0.0
C249 C 0.53714 0.50514 0.12646 0.0
C250 C 0.49835 0.497 0.13899 0.0
C251 C 0.52848 0.49358 0.19629 0.0
C252 C 0.51174 0.47526 0.20732 0.0
C253 C 0.52134 0.50051 0.17997 0.0
C254 C 0.49734 0.48925 0.17434 0.0
C255 C 0.48763 0.46432 0.20176 0.0
C256 C 0.48051 0.47141 0.18551 0.0
C257 C 0.48962 0.4967 0.15728 0.0
H258 H 0.46408 0.58281 0.14835 0.0
H259 H 0.47944 0.55892 0.13497 0.0
H260 H 0.41704 0.52517 0.18328 0.0
H261 H 0.43162 0.50089 0.16909 0.0
H262 H 0.4212 0.52251 0.08915 0.0
H263 H 0.43231 0.50881 0.11754 0.0
H264 H 0.49121 0.54829 0.06737 0.0
H265 H 0.50291 0.53591 0.09625 0.0
H266 H 0.52732 0.4455 0.14429 0.0
H267 H 0.49605 0.45544 0.14778 0.0
H268 H 0.57126 0.51192 0.11776 0.0
H269 H 0.54018 0.52198 0.12167 0.0
H270 H 0.54711 0.50274 0.20035 0.0
H271 H 0.53455 0.51476 0.1718 0.0
H272 H 0.47429 0.44997 0.20975 0.0
H273 H 0.46187 0.46268 0.18146 0.0
N274 N 0.47508 0.50564 0.15972 0.0
N275 N 0.49115 0.50547 0.12437 0.0
Mg276 Mg 0.61472 0.36848 0.37562 0.0
O277 O 0.61423 0.39167 0.40005 0.0
O278 O 0.63405 0.4289 0.39086 0.0
Mg279 Mg 0.64691 0.42933 0.36069 0.0
C280 C 0.62224 0.41355 0.40319 0.0
C281 C 0.60559 0.32125 0.38799 0.0
O282 O 0.6122 0.32285 0.37022 0.0
O283 O 0.65317 0.38035 0.38242 0.0
O284 O 0.67221 0.4172 0.37235 0.0
O285 O 0.58159 0.36554 0.36328 0.0
O286 O 0.61782 0.39296 0.35607 0.0
C287 C 0.67224 0.39959 0.37977 0.0
C288 C 0.5953 0.38443 0.35419 0.0
O289 O 0.6037 0.33795 0.39535 0.0
Mg290 Mg 0.25974 0.638 0.58758 0.0
O291 O 0.23395 0.61783 0.56257 0.0
O292 O 0.21194 0.58057 0.57123 0.0
Mg293 Mg 0.22373 0.57682 0.60114 0.0
C294 C 0.21746 0.59672 0.55917 0.0
C295 C 0.27365 0.68162 0.56244 0.0
O296 O 0.25161 0.6757 0.5658 0.0
O297 O 0.28219 0.6217 0.5804 0.0
O298 O 0.26021 0.5849 0.59013 0.0
O299 O 0.23309 0.64535 0.60057 0.0
O300 O 0.23635 0.61428 0.60675 0.0
C301 C 0.27914 0.60125 0.58303 0.0
C302 C 0.22529 0.6257 0.60924 0.0
O303 O 0.28177 0.66903 0.56885 0.0
Mg304 Mg 0.62829 0.2616 0.75737 0.0
O305 O 0.62258 0.23725 0.73169 0.0
O306 O 0.63837 0.21508 0.73944 0.0
Mg307 Mg 0.65444 0.22554 0.76958 0.0
C308 C 0.62734 0.22109 0.7277 0.0
C309 C 0.61945 0.3015 0.74768 0.0
O310 O 0.62433 0.30456 0.76608 0.0
O311 O 0.66709 0.28428 0.75089 0.0
O312 O 0.68265 0.26237 0.75997 0.0
O313 O 0.59435 0.2346 0.76963 0.0
O314 O 0.62911 0.23759 0.77573 0.0
C315 C 0.68485 0.2814 0.75351 0.0
C316 C 0.60655 0.22652 0.77799 0.0
O317 O 0.61914 0.28423 0.73911 0.0
Mg318 Mg 0.39718 0.65109 0.87554 0.0
O319 O 0.3987 0.62898 0.89995 0.0
O320 O 0.38294 0.59203 0.88888 0.0
Mg321 Mg 0.37051 0.59036 0.85795 0.0
C322 C 0.39281 0.60754 0.90222 0.0
C323 C 0.42568 0.69954 0.8972 0.0
O324 O 0.44272 0.70022 0.887 0.0
O325 O 0.35779 0.63606 0.87935 0.0
O326 O 0.34225 0.59953 0.86739 0.0
O327 O 0.432 0.65708 0.86499 0.0
O328 O 0.39717 0.62768 0.85546 0.0
C329 C 0.33996 0.6161 0.87484 0.0
C330 C 0.41989 0.6381 0.8547 0.0
O331 O 0.40526 0.68131 0.89618 0.0
Mg332 Mg 0.75325 0.39885 0.06569 0.0
O333 O 0.77444 0.40058 0.09269 0.0
O334 O 0.79632 0.38431 0.08529 0.0
Mg335 Mg 0.78997 0.37327 0.0537 0.0
C336 C 0.78941 0.39426 0.09729 0.0
C337 C 0.73538 0.42558 0.09221 0.0
O338 O 0.75798 0.44156 0.09282 0.0
O339 O 0.72881 0.35969 0.06853 0.0
O340 O 0.75135 0.34485 0.05918 0.0
O341 O 0.78253 0.43362 0.0567 0.0
O342 O 0.77918 0.39955 0.04858 0.0
C343 C 0.73154 0.34223 0.06459 0.0
C344 C 0.79097 0.42208 0.04789 0.0
O345 O 0.7286 0.4065 0.08291 0.0
Mg346 Mg 0.37119 0.76045 0.23437 0.0
O347 O 0.39014 0.78167 0.26156 0.0
O348 O 0.42882 0.80198 0.25557 0.0
Mg349 Mg 0.43434 0.79489 0.22467 0.0
C350 C 0.41158 0.796 0.26678 0.0
C351 C 0.31874 0.72843 0.2407 0.0
O352 O 0.3195 0.73441 0.22284 0.0
O353 O 0.38503 0.73555 0.23948 0.0
O354 O 0.42286 0.75654 0.23125 0.0
O355 O 0.36629 0.78954 0.224 0.0
O356 O 0.39756 0.78589 0.21821 0.0
C357 C 0.40517 0.73742 0.23666 0.0
C358 C 0.38701 0.79793 0.21668 0.0
O359 O 0.33798 0.73697 0.25042 0.0
H360 H 0.13346 0.57112 0.32728 0.0
H361 H 0.1734 0.59948 0.31729 0.0
H362 H 0.14522 0.60279 0.26216 0.0
H363 H 0.10543 0.5739 0.2718 0.0
H364 H 0.18533 0.60114 0.25888 0.0
H365 H 0.15868 0.64503 0.29661 0.0
H366 H 0.1433 0.65411 0.32541 0.0
H367 H 0.20396 0.66383 0.358 0.0
H368 H 0.21955 0.65449 0.32942 0.0
H369 H 0.27489 0.70731 0.22353 0.0
H370 H 0.23774 0.67681 0.23624 0.0
H371 H 0.27397 0.679 0.28882 0.0
H372 H 0.31131 0.70984 0.27629 0.0
H373 H 0.23173 0.67651 0.2951 0.0
H374 H 0.25982 0.63538 0.25676 0.0
H375 H 0.27533 0.62672 0.22783 0.0
H376 H 0.21213 0.61185 0.19638 0.0
H377 H 0.19638 0.62075 0.22506 0.0
C378 C 0.13583 0.57764 0.31294 0.0
C379 C 0.11628 0.57039 0.30036 0.0
C380 C 0.15862 0.594 0.30732 0.0
C381 C 0.16221 0.60347 0.28907 0.0
C382 C 0.14282 0.59577 0.27633 0.0
C383 C 0.12008 0.57942 0.28192 0.0
C384 C 0.18606 0.62174 0.28326 0.0
C385 C 0.1954 0.6177 0.26671 0.0
C386 C 0.19944 0.64308 0.29377 0.0
C387 C 0.19014 0.64881 0.31093 0.0
C388 C 0.16865 0.64892 0.30995 0.0
C389 C 0.15991 0.65415 0.32623 0.0
C390 C 0.17261 0.65947 0.34354 0.0
C391 C 0.19412 0.65966 0.34459 0.0
C392 C 0.20292 0.65442 0.32835 0.0
C393 C 0.27499 0.70141 0.23783 0.0
C394 C 0.29608 0.71089 0.24886 0.0
C395 C 0.25375 0.68389 0.24504 0.0
C396 C 0.2532 0.67538 0.26334 0.0
C397 C 0.27407 0.68526 0.27462 0.0
C398 C 0.29536 0.70285 0.26743 0.0
C399 C 0.2308 0.65605 0.27055 0.0
C400 C 0.22176 0.65987 0.28737 0.0
C401 C 0.21768 0.6345 0.26029 0.0
C402 C 0.227 0.62892 0.24304 0.0
C403 C 0.2493 0.63042 0.24364 0.0
C404 C 0.25812 0.62544 0.22729 0.0
C405 C 0.24474 0.61878 0.21027 0.0
C406 C 0.22248 0.61702 0.20958 0.0
C407 C 0.21358 0.62201 0.22588 0.0
H408 H 0.2516 0.61495 0.19763 0.0
H409 H 0.16582 0.66351 0.35612 0.0
H410 H 0.56782 0.14648 0.49616 0.0
H411 H 0.58188 0.18668 0.48566 0.0
H412 H 0.57932 0.16389 0.42733 0.0
H413 H 0.56521 0.12382 0.43772 0.0
H414 H 0.61972 0.20804 0.43683 0.0
H415 H 0.53388 0.16623 0.44312 0.0
H416 H 0.49731 0.14422 0.46117 0.0
H417 H 0.52129 0.20204 0.50119 0.0
H418 H 0.55819 0.22427 0.4835 0.0
H419 H 0.60437 0.28146 0.37519 0.0
H420 H 0.60022 0.24877 0.39383 0.0
H421 H 0.59513 0.28263 0.44516 0.0
H422 H 0.59877 0.31537 0.42644 0.0
H423 H 0.56329 0.23721 0.44468 0.0
H424 H 0.64602 0.28186 0.43574 0.0
H425 H 0.68284 0.30436 0.41812 0.0
H426 H 0.66648 0.24285 0.38452 0.0
H427 H 0.62934 0.22005 0.40172 0.0
C428 C 0.57072 0.15023 0.48115 0.0
C429 C 0.5653 0.13213 0.4677 0.0
C430 C 0.57864 0.1731 0.47519 0.0
C431 C 0.58145 0.17814 0.45572 0.0
C432 C 0.57727 0.16032 0.44241 0.0
C433 C 0.56909 0.13746 0.44833 0.0
C434 C 0.58686 0.2014 0.44888 0.0
C435 C 0.60743 0.21448 0.4385 0.0
C436 C 0.57113 0.21005 0.45162 0.0
C437 C 0.54889 0.19678 0.46214 0.0
C438 C 0.53143 0.17417 0.45586 0.0
C439 C 0.51064 0.16167 0.466 0.0
C440 C 0.50701 0.17169 0.48235 0.0
C441 C 0.52414 0.19427 0.48855 0.0
C442 C 0.545 0.20683 0.47847 0.0
C443 C 0.60233 0.28199 0.39044 0.0
C444 C 0.602 0.30106 0.39935 0.0
C445 C 0.60013 0.26335 0.4011 0.0
C446 C 0.5979 0.2635 0.42095 0.0
C447 C 0.59703 0.28226 0.42988 0.0
C448 C 0.59908 0.30092 0.41917 0.0
C449 C 0.5959 0.24367 0.43212 0.0
C450 C 0.57594 0.23118 0.44332 0.0
C451 C 0.61234 0.23569 0.43027 0.0
C452 C 0.63479 0.24927 0.41997 0.0
C453 C 0.65018 0.27316 0.42451 0.0
C454 C 0.67113 0.28597 0.4146 0.0
C455 C 0.67698 0.27505 0.40019 0.0
C456 C 0.66192 0.25128 0.39569 0.0
C457 C 0.64093 0.2384 0.40553 0.0
H458 H 0.6932 0.285 0.39254 0.0
H459 H 0.4909 0.16199 0.49019 0.0
H460 H 0.47087 0.59724 0.61198 0.0
H461 H 0.44022 0.60616 0.60156 0.0
H462 H 0.38992 0.53217 0.5951 0.0
H463 H 0.42045 0.52316 0.60562 0.0
H464 H 0.38727 0.55906 0.56492 0.0
H465 H 0.38589 0.55633 0.6325 0.0
H466 H 0.40159 0.56528 0.66558 0.0
H467 H 0.42528 0.63826 0.65797 0.0
H468 H 0.41001 0.62977 0.62468 0.0
H469 H 0.27769 0.5591 0.57939 0.0
H470 H 0.31149 0.55254 0.5794 0.0
H471 H 0.35949 0.62725 0.58028 0.0
H472 H 0.3259 0.63403 0.57991 0.0
H473 H 0.3645 0.60131 0.61142 0.0
H474 H 0.35979 0.60038 0.54308 0.0
H475 H 0.33987 0.58752 0.51151 0.0
H476 H 0.32317 0.51688 0.52214 0.0
H477 H 0.34269 0.52926 0.55392 0.0
C478 C 0.45333 0.58292 0.60816 0.0
C479 C 0.44792 0.55953 0.60974 0.0
C480 C 0.43588 0.58801 0.60224 0.0
C481 C 0.41284 0.5698 0.59761 0.0
C482 C 0.40762 0.54644 0.59856 0.0
C483 C 0.42497 0.54134 0.60473 0.0
C484 C 0.39384 0.57511 0.59297 0.0
C485 C 0.38216 0.56818 0.57509 0.0
C486 C 0.38732 0.58709 0.60623 0.0
C487 C 0.3971 0.59246 0.62603 0.0
C488 C 0.39474 0.57433 0.63779 0.0
C489 C 0.40348 0.5793 0.65658 0.0
C490 C 0.41445 0.60232 0.66383 0.0
C491 C 0.4168 0.62044 0.65229 0.0
C492 C 0.4081 0.61556 0.63346 0.0
C493 C 0.29542 0.57413 0.57916 0.0
C494 C 0.29912 0.59708 0.57981 0.0
C495 C 0.31469 0.57034 0.57909 0.0
C496 C 0.3379 0.58943 0.57987 0.0
C497 C 0.34165 0.61232 0.57962 0.0
C498 C 0.32243 0.61613 0.57938 0.0
C499 C 0.35807 0.58554 0.58329 0.0
C500 C 0.36986 0.59256 0.60109 0.0
C501 C 0.36426 0.57322 0.57008 0.0
C502 C 0.35251 0.56572 0.55097 0.0
C503 C 0.35167 0.58206 0.53878 0.0
C504 C 0.34049 0.57487 0.52082 0.0
C505 C 0.33021 0.55139 0.51484 0.0
C506 C 0.33112 0.53506 0.52679 0.0
C507 C 0.34226 0.54216 0.54478 0.0
H508 H 0.32157 0.54585 0.50093 0.0
H509 H 0.42097 0.60604 0.67842 0.0
H510 H 0.89986 0.45906 0.76721 0.0
H511 H 0.86198 0.42709 0.75459 0.0
H512 H 0.83142 0.42061 0.80985 0.0
H513 H 0.8695 0.452 0.8226 0.0
H514 H 0.82044 0.37979 0.79729 0.0
H515 H 0.81797 0.44501 0.77029 0.0
H516 H 0.83249 0.48103 0.75183 0.0
H517 H 0.83324 0.44382 0.70137 0.0
H518 H 0.81901 0.40763 0.7196 0.0
H519 H 0.69745 0.32751 0.75063 0.0
H520 H 0.73713 0.36141 0.75448 0.0
H521 H 0.7667 0.31565 0.7553 0.0
H522 H 0.72688 0.28149 0.75217 0.0
H523 H 0.77865 0.38248 0.73856 0.0
H524 H 0.80933 0.33429 0.7894 0.0
H525 H 0.79208 0.30005 0.81021 0.0
H526 H 0.73056 0.30697 0.81734 0.0
H527 H 0.74758 0.34142 0.79678 0.0
C528 C 0.88492 0.45099 0.77655 0.0
C529 C 0.88752 0.45792 0.79586 0.0
C530 C 0.86328 0.43276 0.76933 0.0
C531 C 0.84376 0.4215 0.78122 0.0
C532 C 0.84624 0.42893 0.80041 0.0
C533 C 0.86795 0.44687 0.80769 0.0
C534 C 0.8211 0.40117 0.77407 0.0
C535 C 0.81138 0.38044 0.78442 0.0
C536 C 0.80911 0.40195 0.75734 0.0
C537 C 0.81766 0.42368 0.74635 0.0
C538 C 0.82141 0.44456 0.75529 0.0
C539 C 0.82956 0.46499 0.74487 0.0
C540 C 0.83385 0.46473 0.72545 0.0
C541 C 0.82994 0.444 0.71642 0.0
C542 C 0.82182 0.42352 0.72678 0.0
C543 C 0.71239 0.32462 0.75123 0.0
C544 C 0.70895 0.30176 0.7515 0.0
C545 C 0.73512 0.34408 0.75338 0.0
C546 C 0.75483 0.34105 0.75566 0.0
C547 C 0.75166 0.31836 0.75404 0.0
C548 C 0.72889 0.29885 0.7522 0.0
C549 C 0.77807 0.36128 0.76185 0.0
C550 C 0.78791 0.38188 0.75132 0.0
C551 C 0.78986 0.36071 0.77877 0.0
C552 C 0.77962 0.34024 0.79139 0.0
C553 C 0.79216 0.32853 0.79547 0.0
C554 C 0.78242 0.30909 0.80721 0.0
C555 C 0.7602 0.30129 0.81504 0.0
C556 C 0.74772 0.31298 0.81121 0.0
C557 C 0.75741 0.33245 0.79951 0.0
H558 H 0.75268 0.28622 0.8241 0.0
H559 H 0.84015 0.48057 0.71741 0.0
H560 H 0.42119 0.8776 0.97332 0.0
H561 H 0.41354 0.83922 0.96107 0.0
H562 H 0.4883 0.86795 0.95249 0.0
H563 H 0.49602 0.90618 0.9647 0.0
H564 H 0.45943 0.84204 0.92097 0.0
H565 H 0.46495 0.83477 0.98891 0.0
H566 H 0.45414 0.83575 0.02227 0.0
H567 H 0.38252 0.78208 0.00894 0.0
H568 H 0.39283 0.78103 0.97541 0.0
H569 H 0.46703 0.74116 0.9025 0.0
H570 H 0.47242 0.7772 0.91761 0.0
H571 H 0.39833 0.74207 0.93105 0.0
H572 H 0.39284 0.70578 0.91627 0.0
H573 H 0.42478 0.77067 0.95998 0.0
H574 H 0.41801 0.77693 0.89282 0.0
H575 H 0.42717 0.77584 0.85901 0.0
H576 H 0.49869 0.8312 0.87002 0.0
H577 H 0.49005 0.83239 0.90398 0.0
C578 C 0.43594 0.87566 0.96879 0.0
C579 C 0.4592 0.89477 0.97003 0.0
C580 C 0.43158 0.85377 0.96191 0.0
C581 C 0.4504 0.85079 0.95599 0.0
C582 C 0.47357 0.86991 0.95704 0.0
C583 C 0.47796 0.89167 0.96411 0.0
C584 C 0.44604 0.82785 0.94839 0.0
C585 C 0.45211 0.82648 0.92954 0.0
C586 C 0.4358 0.80745 0.95945 0.0
C587 C 0.4296 0.80802 0.97961 0.0
C588 C 0.44684 0.82334 0.99305 0.0
C589 C 0.44082 0.82387 0.012 0.0
C590 C 0.41764 0.80904 0.01771 0.0
C591 C 0.40045 0.79359 0.00449 0.0
C592 C 0.40638 0.79301 0.98552 0.0
C593 C 0.45191 0.741 0.90883 0.0
C594 C 0.42946 0.72065 0.90801 0.0
C595 C 0.45501 0.76165 0.9174 0.0
C596 C 0.43567 0.76244 0.92513 0.0
C597 C 0.41346 0.74188 0.92509 0.0
C598 C 0.41036 0.72117 0.9166 0.0
C599 C 0.4385 0.78492 0.93259 0.0
C600 C 0.43207 0.7862 0.95137 0.0
C601 C 0.44816 0.80523 0.9214 0.0
C602 C 0.45344 0.80458 0.90098 0.0
C603 C 0.43575 0.78874 0.88807 0.0
C604 C 0.44083 0.78812 0.86887 0.0
C605 C 0.46351 0.8034 0.86238 0.0
C606 C 0.48114 0.81936 0.87507 0.0
C607 C 0.47615 0.82002 0.89429 0.0
H608 H 0.46741 0.8029 0.84751 0.0
H609 H 0.41301 0.80947 0.03239 0.0
H610 H 0.54883 0.43677 0.11938 0.0
H611 H 0.58119 0.42832 0.11657 0.0
H612 H 0.63105 0.49858 0.13685 0.0
H613 H 0.5988 0.50717 0.13952 0.0
H614 H 0.64716 0.48754 0.10642 0.0
H615 H 0.61344 0.45019 0.16514 0.0
H616 H 0.58166 0.42363 0.18619 0.0
H617 H 0.56895 0.3645 0.15085 0.0
H618 H 0.60035 0.39074 0.12939 0.0
H619 H 0.74299 0.46558 0.11112 0.0
H620 H 0.71305 0.475 0.1217 0.0
H621 H 0.65769 0.40665 0.10201 0.0
H622 H 0.68737 0.39693 0.09179 0.0
H623 H 0.6462 0.41856 0.13488 0.0
H624 H 0.67575 0.45509 0.07468 0.0
H625 H 0.70655 0.48065 0.05249 0.0
H626 H 0.726 0.54026 0.08963 0.0
H627 H 0.6955 0.51497 0.11218 0.0
C628 C 0.56666 0.45032 0.12342 0.0
C629 C 0.5713 0.47265 0.12962 0.0
C630 C 0.58513 0.44547 0.12185 0.0
C631 C 0.60853 0.46274 0.12672 0.0
C632 C 0.61316 0.485 0.13301 0.0
C633 C 0.59473 0.4899 0.13446 0.0
C634 C 0.6283 0.45792 0.12448 0.0
C635 C 0.64716 0.4727 0.11295 0.0
C636 C 0.62805 0.43826 0.13264 0.0
C637 C 0.60915 0.42247 0.14557 0.0
C638 C 0.60374 0.43155 0.16177 0.0
C639 C 0.58581 0.41654 0.17379 0.0
C640 C 0.57329 0.3924 0.16984 0.0
C641 C 0.57866 0.38321 0.15387 0.0
C642 C 0.59653 0.39814 0.14179 0.0
C643 C 0.72445 0.45246 0.10926 0.0
C644 C 0.71757 0.4306 0.10043 0.0
C645 C 0.70736 0.4579 0.11524 0.0
C646 C 0.68314 0.44167 0.11235 0.0
C647 C 0.67627 0.41947 0.10434 0.0
C648 C 0.69329 0.41398 0.09844 0.0
C649 C 0.66486 0.44805 0.11671 0.0
C650 C 0.64631 0.43356 0.12859 0.0
C651 C 0.66526 0.46787 0.10876 0.0
C652 C 0.68355 0.4831 0.09521 0.0
C653 C 0.68673 0.47362 0.07818 0.0
C654 C 0.7041 0.48806 0.06553 0.0
C655 C 0.71827 0.51205 0.06968 0.0
C656 C 0.71505 0.52166 0.08646 0.0
C657 C 0.69771 0.50729 0.09917 0.0
H658 H 0.73171 0.52321 0.05987 0.0
H659 H 0.55946 0.38077 0.17914 0.0
H660 H 0.44927 0.88067 0.51744 0.0
H661 H 0.42012 0.83985 0.52393 0.0
H662 H 0.3646 0.85736 0.52347 0.0
H663 H 0.39369 0.89825 0.51754 0.0
H664 H 0.36075 0.83046 0.55296 0.0
H665 H 0.37158 0.82888 0.48571 0.0
H666 H 0.39448 0.83583 0.45651 0.0
H667 H 0.41984 0.79067 0.4761 0.0
H668 H 0.39737 0.78373 0.50558 0.0
H669 H 0.26357 0.7153 0.55107 0.0
H670 H 0.29143 0.75452 0.54005 0.0
H671 H 0.3479 0.73846 0.54282 0.0
H672 H 0.32016 0.69913 0.55369 0.0
H673 H 0.35083 0.76438 0.51138 0.0
H674 H 0.34132 0.7674 0.57904 0.0
H675 H 0.31876 0.76075 0.60841 0.0
H676 H 0.2911 0.80362 0.58783 0.0
H677 H 0.31325 0.81024 0.55821 0.0
C678 C 0.43089 0.87585 0.51891 0.0
C679 C 0.42376 0.89265 0.51692 0.0
C680 C 0.41422 0.85249 0.52241 0.0
C681 C 0.39015 0.84552 0.52392 0.0
C682 C 0.38306 0.86234 0.52224 0.0
C683 C 0.39968 0.88566 0.51873 0.0
C684 C 0.37234 0.82079 0.52759 0.0
C685 C 0.35834 0.81605 0.5437 0.0
C686 C 0.36958 0.80197 0.51572 0.0
C687 C 0.38297 0.80597 0.49795 0.0
C688 C 0.38219 0.82057 0.48387 0.0
C689 C 0.39507 0.82449 0.46725 0.0
C690 C 0.40866 0.81375 0.46448 0.0
C691 C 0.40933 0.79901 0.47829 0.0
C692 C 0.39651 0.79506 0.49494 0.0
C693 C 0.28184 0.71997 0.54908 0.0
C694 C 0.2897 0.70419 0.55348 0.0
C695 C 0.29774 0.74241 0.54283 0.0
C696 C 0.32179 0.74949 0.54092 0.0
C697 C 0.32943 0.73336 0.54427 0.0
C698 C 0.31355 0.71091 0.55055 0.0
C699 C 0.33923 0.77414 0.53668 0.0
C700 C 0.35318 0.77884 0.52054 0.0
C701 C 0.34199 0.79299 0.5485 0.0
C702 C 0.32873 0.78911 0.56633 0.0
C703 C 0.33027 0.77525 0.58072 0.0
C704 C 0.31759 0.77151 0.59741 0.0
C705 C 0.30345 0.7817 0.59996 0.0
C706 C 0.30202 0.7957 0.58582 0.0
C707 C 0.31465 0.79947 0.56908 0.0
H708 H 0.29365 0.77879 0.6129 0.0
H709 H 0.41862 0.8168 0.45161 0.0
H710 H 0.5805 0.46301 0.69539 0.0
H711 H 0.59157 0.43548 0.70814 0.0
H712 H 0.58907 0.40821 0.6514 0.0
H713 H 0.57824 0.43601 0.63843 0.0
H714 H 0.56517 0.3734 0.67651 0.0
H715 H 0.64171 0.44185 0.67377 0.0
H716 H 0.6718 0.48349 0.67919 0.0
H717 H 0.66459 0.47495 0.73967 0.0
H718 H 0.63419 0.43332 0.73461 0.0
H719 H 0.61261 0.30261 0.70919 0.0
H720 H 0.60638 0.33119 0.69194 0.0
H721 H 0.60996 0.36671 0.74506 0.0
H722 H 0.61663 0.33856 0.76235 0.0
H723 H 0.63559 0.39746 0.71888 0.0
H724 H 0.55689 0.3304 0.72171 0.0
H725 H 0.52614 0.2889 0.71668 0.0
H726 H 0.537 0.29501 0.6564 0.0
H727 H 0.56806 0.3365 0.6611 0.0
C728 C 0.58276 0.4515 0.68555 0.0
C729 C 0.57859 0.45179 0.66587 0.0
C730 C 0.58901 0.43571 0.69288 0.0
C731 C 0.59134 0.41995 0.68069 0.0
C732 C 0.58735 0.42024 0.66103 0.0
C733 C 0.58111 0.43608 0.65367 0.0
C734 C 0.59701 0.40259 0.68868 0.0
C735 C 0.5808 0.37864 0.68548 0.0
C736 C 0.61715 0.40947 0.70069 0.0
C737 C 0.63553 0.43449 0.7038 0.0
C738 C 0.6464 0.44889 0.68822 0.0
C739 C 0.66354 0.47248 0.69123 0.0
C740 C 0.67007 0.48187 0.70976 0.0
C741 C 0.65951 0.46766 0.72532 0.0
C742 C 0.64234 0.44405 0.72239 0.0
C743 C 0.61201 0.31648 0.7172 0.0
C744 C 0.61507 0.3183 0.73714 0.0
C745 C 0.60839 0.33275 0.70732 0.0
C746 C 0.60753 0.35097 0.71724 0.0
C747 C 0.61062 0.35282 0.73713 0.0
C748 C 0.61434 0.33665 0.74699 0.0
C749 C 0.60354 0.36827 0.70698 0.0
C750 C 0.62008 0.39221 0.70975 0.0
C751 C 0.58367 0.36138 0.69463 0.0
C752 C 0.56498 0.33647 0.69178 0.0
C753 C 0.55286 0.32284 0.7074 0.0
C754 C 0.53535 0.29933 0.70461 0.0
C755 C 0.52967 0.28931 0.68624 0.0
C756 C 0.54145 0.30279 0.67062 0.0
C757 C 0.55899 0.3263 0.67334 0.0
H758 H 0.5161 0.27111 0.68411 0.0
H759 H 0.68334 0.50015 0.71205 0.0
H760 H 0.1234 0.5703 0.88171 0.0
H761 H 0.16425 0.58022 0.8881 0.0
H762 H 0.183 0.60809 0.83176 0.0
H763 H 0.14183 0.59686 0.82483 0.0
H764 H 0.20028 0.58131 0.83792 0.0
H765 H 0.20081 0.6439 0.8732 0.0
H766 H 0.18684 0.66244 0.89643 0.0
H767 H 0.19745 0.62525 0.94171 0.0
H768 H 0.21119 0.60624 0.91872 0.0
H769 H 0.32771 0.64982 0.88051 0.0
H770 H 0.28809 0.64491 0.87824 0.0
H771 H 0.25798 0.57006 0.87117 0.0
H772 H 0.29762 0.57488 0.8728 0.0
H773 H 0.2478 0.62337 0.89603 0.0
H774 H 0.21346 0.54866 0.8387 0.0
H775 H 0.22931 0.53417 0.81356 0.0
H776 H 0.28951 0.60327 0.80877 0.0
H777 H 0.27386 0.61822 0.83369 0.0
C778 C 0.13618 0.57849 0.87064 0.0
C779 C 0.12923 0.58259 0.85268 0.0
C780 C 0.15964 0.58446 0.87442 0.0
C781 C 0.17679 0.59508 0.86047 0.0
C782 C 0.17008 0.59991 0.84275 0.0
C783 C 0.14656 0.59369 0.83888 0.0
C784 C 0.2013 0.5997 0.86388 0.0
C785 C 0.21066 0.59058 0.85061 0.0
C786 C 0.21503 0.61205 0.88031 0.0
C787 C 0.20684 0.6235 0.8942 0.0
C788 C 0.2 0.63954 0.88809 0.0
C789 C 0.19215 0.65016 0.90122 0.0
C790 C 0.19121 0.64499 0.92053 0.0
C791 C 0.19817 0.62923 0.92675 0.0
C792 C 0.20602 0.61855 0.91368 0.0
C793 C 0.31265 0.63226 0.87873 0.0
C794 C 0.31586 0.61276 0.87653 0.0
C795 C 0.28999 0.62949 0.87747 0.0
C796 C 0.27012 0.60719 0.87412 0.0
C797 C 0.27313 0.58751 0.8733 0.0
C798 C 0.2958 0.59029 0.8743 0.0
C799 C 0.24652 0.60468 0.8702 0.0
C800 C 0.23736 0.61414 0.88336 0.0
C801 C 0.23319 0.59323 0.85339 0.0
C802 C 0.24259 0.58449 0.83819 0.0
C803 C 0.23003 0.56077 0.83222 0.0
C804 C 0.23899 0.55248 0.81802 0.0
C805 C 0.26044 0.56778 0.80962 0.0
C806 C 0.27294 0.59142 0.81534 0.0
C807 C 0.26404 0.59981 0.82951 0.0
H808 H 0.26736 0.56132 0.79865 0.0
H809 H 0.18513 0.65322 0.93067 0.0
H810 H 0.56718 0.12725 0.0536 0.0
H811 H 0.5949 0.168 0.06256 0.0
H812 H 0.58674 0.18931 0.00644 0.0
H813 H 0.55991 0.14829 0.99701 0.0
H814 H 0.63109 0.20886 0.01526 0.0
H815 H 0.56441 0.20227 0.04705 0.0
H816 H 0.52991 0.18491 0.06785 0.0
H817 H 0.57527 0.19373 0.11601 0.0
H818 H 0.61002 0.21085 0.09545 0.0
H819 H 0.68485 0.32992 0.06692 0.0
H820 H 0.6503 0.29118 0.06064 0.0
H821 H 0.69593 0.26161 0.05518 0.0
H822 H 0.73061 0.30034 0.06099 0.0
H823 H 0.62996 0.24875 0.07541 0.0
H824 H 0.6769 0.22275 0.01851 0.0
H825 H 0.70942 0.242 0.99594 0.0
H826 H 0.69922 0.30153 0.99455 0.0
H827 H 0.66643 0.2825 0.01688 0.0
C828 C 0.57127 0.14059 0.04313 0.0
C829 C 0.56153 0.13446 0.0245 0.0
C830 C 0.58688 0.16396 0.04838 0.0
C831 C 0.59279 0.1818 0.03524 0.0
C832 C 0.58242 0.17584 0.01683 0.0
C833 C 0.56693 0.1524 0.0115 0.0
C834 C 0.61125 0.20631 0.04027 0.0
C835 C 0.63072 0.21759 0.02837 0.0
C836 C 0.61067 0.21793 0.05721 0.0
C837 C 0.58982 0.20769 0.06967 0.0
C838 C 0.56702 0.20035 0.06205 0.0
C839 C 0.54741 0.19058 0.0738 0.0
C840 C 0.55039 0.18818 0.09323 0.0
C841 C 0.57299 0.19559 0.10095 0.0
C842 C 0.59265 0.20536 0.08926 0.0
C843 C 0.68755 0.31513 0.06468 0.0
C844 C 0.71055 0.31831 0.06416 0.0
C845 C 0.66775 0.29298 0.0611 0.0
C846 C 0.67058 0.27362 0.05701 0.0
C847 C 0.69338 0.27643 0.05786 0.0
C848 C 0.7132 0.29858 0.06126 0.0
C849 C 0.64994 0.25087 0.05065 0.0
C850 C 0.63016 0.23999 0.06227 0.0
C851 C 0.64988 0.23982 0.03318 0.0
C852 C 0.66936 0.25127 0.01951 0.0
C853 C 0.68153 0.2399 0.01332 0.0
C854 C 0.70002 0.25078 0.00057 0.0
C855 C 0.70643 0.27301 0.99386 0.0
C856 C 0.6943 0.28436 -0.00019 0.0
C857 C 0.67577 0.27354 0.01252 0.0
H858 H 0.72077 0.28141 0.98401 0.0
H859 H 0.53519 0.18061 0.10231 0.0
H860 H 0.46909 0.60121 0.17908 0.0
H861 H 0.45917 0.62706 0.19671 0.0
H862 H 0.38597 0.57209 0.19749 0.0
H863 H 0.39564 0.54626 0.179 0.0
H864 H 0.38927 0.61257 0.18867 0.0
H865 H 0.42102 0.58741 0.23806 0.0
H866 H 0.44939 0.57844 0.25403 0.0
H867 H 0.50342 0.65098 0.25247 0.0
H868 H 0.47549 0.66036 0.23623 0.0
H869 H 0.37024 0.69227 0.24305 0.0
H870 H 0.37242 0.65661 0.23806 0.0
H871 H 0.44682 0.69847 0.22653 0.0
H872 H 0.44496 0.73418 0.23169 0.0
H873 H 0.43655 0.65836 0.24577 0.0
H874 H 0.40633 0.68053 0.19044 0.0
H875 H 0.37804 0.6895 0.17426 0.0
H876 H 0.32056 0.62146 0.1877 0.0
H877 H 0.34853 0.61221 0.20415 0.0
C878 C 0.4508 0.59465 0.18275 0.0
C879 C 0.43312 0.5717 0.1775 0.0
C880 C 0.44522 0.60935 0.19313 0.0
C881 C 0.42191 0.60135 0.19877 0.0
C882 C 0.40412 0.57852 0.19344 0.0
C883 C 0.40969 0.56378 0.18295 0.0
C884 C 0.41619 0.61742 0.20938 0.0
C885 C 0.39919 0.62213 0.20144 0.0
C886 C 0.42927 0.63006 0.22596 0.0
C887 C 0.44616 0.62456 0.23583 0.0
C888 C 0.439 0.60143 0.24101 0.0
C889 C 0.455 0.59628 0.25012 0.0
C890 C 0.4782 0.61412 0.25424 0.0
C891 C 0.48544 0.63718 0.24928 0.0
C892 C 0.46951 0.64243 0.24014 0.0
C893 C 0.38721 0.69394 0.23989 0.0
C894 C 0.40735 0.71612 0.23742 0.0
C895 C 0.38839 0.67351 0.23701 0.0
C896 C 0.40967 0.67495 0.23158 0.0
C897 C 0.4302 0.69701 0.23064 0.0
C898 C 0.42906 0.71742 0.23351 0.0
C899 C 0.4102 0.65388 0.2247 0.0
C900 C 0.42623 0.64829 0.23331 0.0
C901 C 0.39619 0.64034 0.20878 0.0
C902 C 0.37945 0.64579 0.19869 0.0
C903 C 0.38764 0.66755 0.19003 0.0
C904 C 0.37167 0.67267 0.18081 0.0
C905 C 0.34751 0.65608 0.18 0.0
C906 C 0.33927 0.6343 0.18837 0.0
C907 C 0.35517 0.62911 0.19763 0.0
H908 H 0.33517 0.66008 0.17286 0.0
H909 H 0.49057 0.61009 0.26129 0.0
H910 H 0.87216 0.40551 0.36618 0.0
H911 H 0.83188 0.39065 0.37751 0.0
H912 H 0.84498 0.46156 0.38288 0.0
H913 H 0.88537 0.47649 0.3724 0.0
H914 H 0.81806 0.43598 0.41104 0.0
H915 H 0.81931 0.42744 0.3422 0.0
H916 H 0.82782 0.41278 0.31255 0.0
H917 H 0.78366 0.34179 0.32997 0.0
H918 H 0.77515 0.35608 0.35986 0.0
H919 H 0.7156 0.43921 0.38373 0.0
H920 H 0.75397 0.44166 0.38821 0.0
H921 H 0.71947 0.36626 0.39057 0.0
H922 H 0.68086 0.36359 0.38622 0.0
H923 H 0.7548 0.38552 0.36378 0.0
H924 H 0.74644 0.39629 0.42955 0.0
H925 H 0.73762 0.41283 0.45788 0.0
H926 H 0.79465 0.48145 0.44527 0.0
H927 H 0.80361 0.4654 0.41669 0.0
C928 C 0.8666 0.41792 0.37018 0.0
C929 C 0.88178 0.44215 0.36807 0.0
C930 C 0.84356 0.40941 0.37655 0.0
C931 C 0.83532 0.42499 0.38073 0.0
C932 C 0.85092 0.44921 0.37967 0.0
C933 C 0.87391 0.4577 0.37343 0.0
C934 C 0.81001 0.41636 0.3845 0.0
C935 C 0.80419 0.42491 0.40075 0.0
C936 C 0.79183 0.40141 0.37131 0.0
C937 C 0.79686 0.39282 0.35334 0.0
C938 C 0.81157 0.40871 0.33976 0.0
C939 C 0.81637 0.40047 0.32291 0.0
C940 C 0.80635 0.37637 0.31941 0.0
C941 C 0.79146 0.36046 0.33273 0.0
C942 C 0.78664 0.36861 0.34962 0.0
C943 C 0.71611 0.42315 0.38546 0.0
C944 C 0.6952 0.4012 0.38447 0.0
C945 C 0.73804 0.42459 0.38816 0.0
C946 C 0.73951 0.40414 0.38983 0.0
C947 C 0.71866 0.38223 0.38941 0.0
C948 C 0.69664 0.38077 0.38693 0.0
C949 C 0.76298 0.40581 0.38998 0.0
C950 C 0.76849 0.396 0.37441 0.0
C951 C 0.78086 0.41984 0.40366 0.0
C952 C 0.77562 0.42962 0.42089 0.0
C953 C 0.757 0.41494 0.43273 0.0
C954 C 0.75199 0.42423 0.44885 0.0
C955 C 0.76555 0.44818 0.45336 0.0
C956 C 0.78417 0.46289 0.44176 0.0
C957 C 0.78925 0.45369 0.42561 0.0
H958 H 0.76164 0.45534 0.46585 0.0
H959 H 0.81008 0.37003 0.30636 0.0
H960 H 0.06066 0.50764 0.42614 0.0
H961 H 0.08807 0.52174 0.45348 0.0
H962 H 0.13932 0.57933 0.42082 0.0
H963 H 0.11245 0.56451 0.39294 0.0
H964 H 0.16096 0.56234 0.44143 0.0
H965 H 0.10544 0.58726 0.45429 0.0
H966 H 0.06612 0.58351 0.45766 0.0
H967 H 0.05024 0.53425 0.50227 0.0
H968 H 0.08936 0.53745 0.49899 0.0
H969 H 0.22774 0.62323 0.52713 0.0
H970 H 0.20406 0.61344 0.49744 0.0
H971 H 0.15233 0.54739 0.52042 0.0
H972 H 0.17581 0.55684 0.54998 0.0
H973 H 0.13279 0.57291 0.50403 0.0
H974 H 0.18888 0.54749 0.48903 0.0
H975 H 0.22896 0.55313 0.48551 0.0
H976 H 0.24471 0.60662 0.44468 0.0
H977 H 0.2048 0.60151 0.44818 0.0
C978 C 0.07789 0.52309 0.42461 0.0
C979 C 0.08428 0.53494 0.40729 0.0
C980 C 0.09344 0.53134 0.44038 0.0
C981 C 0.11559 0.55187 0.43934 0.0
C982 C 0.12225 0.56355 0.422 0.0
C983 C 0.10676 0.55517 0.40613 0.0
C984 C 0.1317 0.561 0.45639 0.0
C985 C 0.15491 0.56503 0.45503 0.0
C986 C 0.12381 0.5644 0.47421 0.0
C987 C 0.10027 0.56246 0.47629 0.0
C988 C 0.0935 0.5755 0.46473 0.0
C989 C 0.07126 0.57349 0.46664 0.0
C990 C 0.05567 0.55862 0.48014 0.0
C991 C 0.06233 0.54576 0.4918 0.0
C992 C 0.08455 0.54768 0.48994 0.0
C993 C 0.21137 0.60659 0.52584 0.0
C994 C 0.2037 0.59081 0.54093 0.0
C995 C 0.19791 0.60101 0.50886 0.0
C996 C 0.1765 0.57968 0.50677 0.0
C997 C 0.1688 0.56395 0.52179 0.0
C998 C 0.18232 0.56936 0.53864 0.0
C999 C 0.16174 0.57373 0.48909 0.0
C1000 C 0.13883 0.57038 0.49035 0.0
C1001 C 0.17002 0.5713 0.47118 0.0
C1002 C 0.19396 0.57431 0.46904 0.0
C1003 C 0.20096 0.5606 0.47944 0.0
C1004 C 0.22363 0.56367 0.47742 0.0
C1005 C 0.2394 0.58027 0.46493 0.0
C1006 C 0.23249 0.5938 0.45438 0.0
C1007 C 0.20985 0.59081 0.45637 0.0
H1008 H 0.25694 0.58262 0.46338 0.0
H1009 H 0.03846 0.55709 0.4816 0.0
H1010 H 0.54437 0.06641 0.59472 0.0
H1011 H 0.5589 0.09313 0.62226 0.0
H1012 H 0.56352 0.14889 0.58774 0.0
H1013 H 0.55046 0.12259 0.5597 0.0
H1014 H 0.60086 0.16547 0.60992 0.0
H1015 H 0.5183 0.11993 0.62013 0.0
H1016 H 0.47928 0.08418 0.62262 0.0
H1017 H 0.50576 0.06163 0.66925 0.0
H1018 H 0.54505 0.09709 0.66687 0.0
H1019 H 0.61325 0.23429 0.69543 0.0
H1020 H 0.59753 0.21163 0.66546 0.0
H1021 H 0.60573 0.15571 0.68853 0.0
H1022 H 0.62175 0.17824 0.71834 0.0
H1023 H 0.5597 0.14184 0.67139 0.0
H1024 H 0.64362 0.18794 0.6585 0.0
H1025 H 0.68147 0.22495 0.6557 0.0
H1026 H 0.6498 0.24819 0.61363 0.0
H1027 H 0.61164 0.21142 0.61638 0.0
C1028 C 0.54874 0.08442 0.59285 0.0
C1029 C 0.54625 0.0923 0.57492 0.0
C1030 C 0.55672 0.09962 0.60873 0.0
C1031 C 0.56188 0.12294 0.60719 0.0
C1032 C 0.5595 0.13094 0.58932 0.0
C1033 C 0.55178 0.11579 0.57333 0.0
C1034 C 0.5703 0.13897 0.6242 0.0
C1035 C 0.59159 0.16046 0.62325 0.0
C1036 C 0.55833 0.13245 0.64167 0.0
C1037 C 0.53469 0.11111 0.64322 0.0
C1038 C 0.51586 0.10727 0.63083 0.0
C1039 C 0.49368 0.08707 0.63223 0.0
C1040 C 0.49006 0.07063 0.64606 0.0
C1041 C 0.50859 0.07438 0.65854 0.0
C1042 C 0.53082 0.09454 0.65718 0.0
C1043 C 0.61183 0.21722 0.69408 0.0
C1044 C 0.61878 0.20808 0.70925 0.0
C1045 C 0.60289 0.20435 0.67696 0.0
C1046 C 0.6005 0.18205 0.67486 0.0
C1047 C 0.60744 0.1729 0.68994 0.0
C1048 C 0.6167 0.18587 0.70691 0.0
C1049 C 0.59036 0.1679 0.6571 0.0
C1050 C 0.56873 0.14685 0.65795 0.0
C1051 C 0.60178 0.17501 0.6395 0.0
C1052 C 0.62472 0.19706 0.63782 0.0
C1053 C 0.64467 0.20104 0.64879 0.0
C1054 C 0.66619 0.22195 0.64718 0.0
C1055 C 0.66802 0.23894 0.63454 0.0
C1056 C 0.64835 0.23503 0.62344 0.0
C1057 C 0.62677 0.21415 0.62501 0.0
H1058 H 0.6847 0.25512 0.63331 0.0
H1059 H 0.47287 0.05499 0.64712 0.0
H1060 H 0.46237 0.54396 0.71629 0.0
H1061 H 0.45244 0.56002 0.7441 0.0
H1062 H 0.52641 0.61062 0.7539 0.0
H1063 H 0.53638 0.59499 0.72566 0.0
H1064 H 0.497 0.58335 0.78809 0.0
H1065 H 0.50313 0.63443 0.73882 0.0
H1066 H 0.49716 0.64644 0.70711 0.0
H1067 H 0.42199 0.61045 0.71487 0.0
H1068 H 0.42748 0.59775 0.74649 0.0
H1069 H 0.46732 0.65318 0.85199 0.0
H1070 H 0.48611 0.64079 0.82796 0.0
H1071 H 0.41731 0.59106 0.80402 0.0
H1072 H 0.39847 0.60307 0.82787 0.0
H1073 H 0.44993 0.62272 0.7776 0.0
H1074 H 0.44577 0.57096 0.82777 0.0
H1075 H 0.45406 0.56253 0.86018 0.0
H1076 H 0.52882 0.60409 0.85133 0.0
H1077 H 0.52096 0.61306 0.81893 0.0
C1078 C 0.47648 0.55846 0.72443 0.0
C1079 C 0.50009 0.56834 0.7189 0.0
C1080 C 0.47082 0.56759 0.74025 0.0
C1081 C 0.48872 0.58644 0.75099 0.0
C1082 C 0.51241 0.59602 0.74578 0.0
C1083 C 0.51804 0.58721 0.72966 0.0
C1084 C 0.48226 0.59646 0.76722 0.0
C1085 C 0.48706 0.59233 0.78587 0.0
C1086 C 0.46928 0.60807 0.76422 0.0
C1087 C 0.4657 0.61488 0.74493 0.0
C1088 C 0.48529 0.62872 0.73364 0.0
C1089 C 0.48201 0.63573 0.71571 0.0
C1090 C 0.45922 0.62918 0.70896 0.0
C1091 C 0.43964 0.61547 0.72009 0.0
C1092 C 0.44282 0.60835 0.73802 0.0
C1093 C 0.45622 0.63936 0.84177 0.0
C1094 C 0.43142 0.62913 0.8418 0.0
C1095 C 0.46697 0.63231 0.8281 0.0
C1096 C 0.45305 0.61509 0.81422 0.0
C1097 C 0.42832 0.60442 0.81459 0.0
C1098 C 0.4176 0.61125 0.82831 0.0
C1099 C 0.46403 0.60904 0.7985 0.0
C1100 C 0.46006 0.61394 0.77988 0.0
C1101 C 0.47806 0.59849 0.80162 0.0
C1102 C 0.48277 0.59291 0.82101 0.0
C1103 C 0.46398 0.57848 0.83279 0.0
C1104 C 0.4686 0.57356 0.85115 0.0
C1105 C 0.49195 0.58283 0.85784 0.0
C1106 C 0.51074 0.59696 0.84615 0.0
C1107 C 0.50621 0.60195 0.82778 0.0
H1108 H 0.49549 0.57902 0.87206 0.0
H1109 H 0.4568 0.63487 0.69515 0.0
H1110 H 0.9642 0.52209 0.92965 0.0
H1111 H 0.94073 0.51087 0.95845 0.0
H1112 H 0.87652 0.47537 0.92386 0.0
H1113 H 0.89993 0.48686 0.89502 0.0
H1114 H 0.87056 0.49789 0.95257 0.0
H1115 H 0.90109 0.44531 0.945 0.0
H1116 H 0.93215 0.43475 0.94111 0.0
H1117 H 0.96448 0.46906 0.99467 0.0
H1118 H 0.93377 0.48011 0.99875 0.0
H1119 H 0.80983 0.40181 0.02543 0.0
H1120 H 0.84039 0.42078 0.00193 0.0
H1121 H 0.85088 0.48832 0.01996 0.0
H1122 H 0.8198 0.46931 0.04336 0.0
H1123 H 0.88566 0.45232 0.00089 0.0
H1124 H 0.85972 0.52107 0.98039 0.0
H1125 H 0.82533 0.52709 0.98195 0.0
H1126 H 0.77818 0.45254 0.98067 0.0
H1127 H 0.81226 0.4461 0.97885 0.0
C1128 C 0.94507 0.51191 0.92822 0.0
C1129 C 0.93387 0.50517 0.91012 0.0
C1130 C 0.93169 0.50554 0.94467 0.0
C1131 C 0.90689 0.492 0.94332 0.0
C1132 C 0.89564 0.48585 0.92524 0.0
C1133 C 0.90901 0.49241 0.90878 0.0
C1134 C 0.89262 0.48353 0.96069 0.0
C1135 C 0.87398 0.48808 0.9632 0.0
C1136 C 0.89688 0.47046 0.97446 0.0
C1137 C 0.9153 0.46376 0.97208 0.0
C1138 C 0.91493 0.45076 0.95588 0.0
C1139 C 0.93245 0.44466 0.95365 0.0
C1140 C 0.95032 0.45129 0.96761 0.0
C1141 C 0.95066 0.46398 0.98386 0.0
C1142 C 0.9332 0.47015 0.98614 0.0
C1143 C 0.8189 0.42074 0.02468 0.0
C1144 C 0.81221 0.43404 0.03613 0.0
C1145 C 0.83643 0.43158 0.01123 0.0
C1146 C 0.84764 0.45592 0.00896 0.0
C1147 C 0.84215 0.46946 0.02125 0.0
C1148 C 0.82447 0.45858 0.03467 0.0
C1149 C 0.86356 0.46662 0.99273 0.0
C1150 C 0.88252 0.46249 0.99043 0.0
C1151 C 0.85918 0.47949 0.97886 0.0
C1152 C 0.83854 0.48314 0.97973 0.0
C1153 C 0.842 0.50598 0.9804 0.0
C1154 C 0.82257 0.50946 0.98133 0.0
C1155 C 0.79959 0.49021 0.98149 0.0
C1156 C 0.79598 0.46744 0.98062 0.0
C1157 C 0.81535 0.46386 0.97966 0.0
H1158 H 0.78457 0.49294 0.98223 0.0
H1159 H 0.96387 0.44655 0.96586 0.0
H1160 H 0.44304 0.90787 0.06546 0.0
H1161 H 0.43061 0.88477 0.09425 0.0
H1162 H 0.46733 0.9482 0.1289 0.0
H1163 H 0.47907 0.97151 0.10014 0.0
H1164 H 0.45549 0.8797 0.1218 0.0
H1165 H 0.43669 0.94 0.17027 0.0
H1166 H 0.42417 0.96955 0.16732 0.0
H1167 H 0.3886 0.93784 0.11397 0.0
H1168 H 0.40062 0.90794 0.11672 0.0
H1169 H 0.4339 0.82852 0.21091 0.0
H1170 H 0.4504 0.86041 0.18836 0.0
H1171 H 0.38007 0.84757 0.17467 0.0
H1172 H 0.36363 0.81627 0.19779 0.0
H1173 H 0.41035 0.89248 0.17225 0.0
H1174 H 0.40593 0.82097 0.14886 0.0
H1175 H 0.41417 0.78829 0.1499 0.0
H1176 H 0.48891 0.83723 0.14921 0.0
H1177 H 0.4811 0.87022 0.1484 0.0
C1178 C 0.44825 0.91692 0.07921 0.0
C1179 C 0.46194 0.94151 0.08053 0.0
C1180 C 0.44132 0.9037 0.09563 0.0
C1181 C 0.44791 0.91479 0.11369 0.0
C1182 C 0.46183 0.93932 0.11509 0.0
C1183 C 0.46871 0.95258 0.09865 0.0
C1184 C 0.44026 0.90052 0.13099 0.0
C1185 C 0.44574 0.88259 0.13288 0.0
C1186 C 0.42732 0.90415 0.14533 0.0
C1187 C 0.41981 0.92192 0.14361 0.0
C1188 C 0.42615 0.93931 0.15794 0.0
C1189 C 0.41914 0.95612 0.1563 0.0
C1190 C 0.40568 0.95563 0.14043 0.0
C1191 C 0.39912 0.93827 0.12621 0.0
C1192 C 0.40605 0.92141 0.12779 0.0
C1193 C 0.42202 0.83275 0.20333 0.0
C1194 C 0.39745 0.81964 0.20579 0.0
C1195 C 0.43146 0.85098 0.19046 0.0
C1196 C 0.41639 0.85591 0.17944 0.0
C1197 C 0.39202 0.84398 0.18293 0.0
C1198 C 0.38264 0.82607 0.19611 0.0
C1199 C 0.42554 0.87162 0.16301 0.0
C1200 C 0.42039 0.88983 0.1613 0.0
C1201 C 0.43822 0.86786 0.14851 0.0
C1202 C 0.44294 0.84804 0.14876 0.0
C1203 C 0.42412 0.82475 0.14903 0.0
C1204 C 0.42871 0.80618 0.14957 0.0
C1205 C 0.45205 0.81068 0.14967 0.0
C1206 C 0.47085 0.83377 0.14916 0.0
C1207 C 0.46635 0.8524 0.14865 0.0
H1208 H 0.45558 0.79628 0.1501 0.0
H1209 H 0.40029 0.96866 0.13919 0.0
H1210 H 0.55132 0.47122 0.21147 0.0
H1211 H 0.56349 0.45705 0.23878 0.0
H1212 H 0.50135 0.44563 0.26855 0.0
H1213 H 0.48968 0.46112 0.24161 0.0
H1214 H 0.53799 0.46224 0.29278 0.0
H1215 H 0.50315 0.4002 0.24694 0.0
H1216 H 0.49553 0.38024 0.21551 0.0
H1217 H 0.56699 0.39335 0.21527 0.0
H1218 H 0.57521 0.41387 0.2465 0.0
H1219 H 0.55023 0.37762 0.35307 0.0
H1220 H 0.53397 0.39453 0.33055 0.0
H1221 H 0.60208 0.43281 0.30459 0.0
H1222 H 0.61857 0.41655 0.32717 0.0
H1223 H 0.55776 0.39974 0.28011 0.0
H1224 H 0.59093 0.46428 0.32726 0.0
H1225 H 0.59448 0.48048 0.35982 0.0
H1226 H 0.52007 0.45709 0.35875 0.0
H1227 H 0.516 0.44039 0.32629 0.0
C1228 C 0.54042 0.46613 0.22393 0.0
C1229 C 0.51944 0.46723 0.22426 0.0
C1230 C 0.54727 0.45776 0.23948 0.0
C1231 C 0.53309 0.44985 0.25558 0.0
C1232 C 0.51248 0.4515 0.25623 0.0
C1233 C 0.50571 0.46011 0.24072 0.0
C1234 C 0.53959 0.43926 0.27138 0.0
C1235 C 0.542 0.44836 0.29003 0.0
C1236 C 0.54463 0.42098 0.26788 0.0
C1237 C 0.53986 0.40877 0.249 0.0
C1238 C 0.51732 0.39904 0.2401 0.0
C1239 C 0.51289 0.38762 0.22232 0.0
C1240 C 0.53078 0.3856 0.21336 0.0
C1241 C 0.55316 0.395 0.22218 0.0
C1242 C 0.55772 0.40653 0.23993 0.0
C1243 C 0.56177 0.38988 0.34271 0.0
C1244 C 0.58564 0.39574 0.34183 0.0
C1245 C 0.5525 0.39953 0.32993 0.0
C1246 C 0.5669 0.41486 0.31601 0.0
C1247 C 0.59078 0.42103 0.31532 0.0
C1248 C 0.60015 0.41176 0.32825 0.0
C1249 C 0.55688 0.42327 0.30119 0.0
C1250 C 0.55364 0.41356 0.28277 0.0
C1251 C 0.55057 0.44051 0.30504 0.0
C1252 C 0.55311 0.45082 0.32444 0.0
C1253 C 0.57528 0.46237 0.33404 0.0
C1254 C 0.5774 0.47169 0.35246 0.0
C1255 C 0.5575 0.46974 0.36137 0.0
C1256 C 0.53546 0.45854 0.35185 0.0
C1257 C 0.53324 0.44916 0.33343 0.0
H1258 H 0.55916 0.47695 0.37563 0.0
H1259 H 0.52725 0.37668 0.19962 0.0
H1260 H 0.45019 0.89817 0.43422 0.0
H1261 H 0.43755 0.86988 0.40749 0.0
H1262 H 0.4657 0.9267 0.36807 0.0
H1263 H 0.4785 0.95506 0.39469 0.0
H1264 H 0.42288 0.89184 0.35605 0.0
H1265 H 0.49637 0.89936 0.3795 0.0
H1266 H 0.5234 0.89847 0.40401 0.0
H1267 H 0.47394 0.82586 0.41353 0.0
H1268 H 0.44648 0.82641 0.38922 0.0
H1269 H 0.45485 0.82487 0.28386 0.0
H1270 H 0.46311 0.84706 0.31384 0.0
H1271 H 0.38818 0.81521 0.32328 0.0
H1272 H 0.37964 0.793 0.29316 0.0
H1273 H 0.45287 0.83602 0.3511 0.0
H1274 H 0.37885 0.85868 0.34153 0.0
H1275 H 0.35454 0.86193 0.31577 0.0
H1276 H 0.41005 0.87842 0.27627 0.0
H1277 H 0.43479 0.87558 0.30184 0.0
C1278 C 0.4538 0.90463 0.41986 0.0
C1279 C 0.46544 0.92885 0.41656 0.0
C1280 C 0.4465 0.88845 0.40462 0.0
C1281 C 0.45086 0.89622 0.38582 0.0
C1282 C 0.46209 0.92035 0.38248 0.0
C1283 C 0.46935 0.93652 0.39769 0.0
C1284 C 0.44417 0.8793 0.36958 0.0
C1285 C 0.4293 0.87953 0.35504 0.0
C1286 C 0.45274 0.86339 0.36818 0.0
C1287 C 0.46929 0.86299 0.38269 0.0
C1288 C 0.4912 0.88325 0.38692 0.0
C1289 C 0.5066 0.8828 0.40075 0.0
C1290 C 0.50036 0.86214 0.41036 0.0
C1291 C 0.47873 0.84186 0.4061 0.0
C1292 C 0.46326 0.84222 0.39229 0.0
C1293 C 0.44008 0.82235 0.29237 0.0
C1294 C 0.41656 0.80733 0.28597 0.0
C1295 C 0.44486 0.83498 0.30956 0.0
C1296 C 0.42626 0.83296 0.32064 0.0
C1297 C 0.40278 0.81719 0.31479 0.0
C1298 C 0.39795 0.80448 0.2976 0.0
C1299 C 0.43157 0.84856 0.33761 0.0
C1300 C 0.44616 0.84808 0.35228 0.0
C1301 C 0.42308 0.86453 0.33898 0.0
C1302 C 0.40852 0.86664 0.32355 0.0
C1303 C 0.38587 0.86307 0.32736 0.0
C1304 C 0.37202 0.86483 0.31279 0.0
C1305 C 0.38071 0.87029 0.29438 0.0
C1306 C 0.4033 0.8741 0.29052 0.0
C1307 C 0.41723 0.87239 0.30503 0.0
H1308 H 0.36995 0.87163 0.28312 0.0
H1309 H 0.51231 0.86182 0.42106 0.0
H1310 H 0.53744 0.44724 0.55688 0.0
H1311 H 0.54951 0.43422 0.52848 0.0
H1312 H 0.6091 0.504 0.52284 0.0
H1313 H 0.59708 0.51715 0.55123 0.0
H1314 H 0.58277 0.48402 0.4886 0.0
H1315 H 0.61922 0.46387 0.53946 0.0
H1316 H 0.61973 0.44539 0.56961 0.0
H1317 H 0.56998 0.3776 0.54552 0.0
H1318 H 0.5689 0.39573 0.51529 0.0
H1319 H 0.64278 0.45823 0.41815 0.0
H1320 H 0.63314 0.47128 0.44764 0.0
H1321 H 0.58006 0.39988 0.45888 0.0
H1322 H 0.59008 0.38656 0.42966 0.0
H1323 H 0.60332 0.42097 0.4906 0.0
H1324 H 0.56545 0.43965 0.44043 0.0
H1325 H 0.56312 0.45695 0.41012 0.0
H1326 H 0.61263 0.52577 0.4325 0.0
H1327 H 0.61554 0.50885 0.46286 0.0
C1328 C 0.55308 0.4598 0.54955 0.0
C1329 C 0.56636 0.48319 0.55624 0.0
C1330 C 0.56001 0.45232 0.53342 0.0
C1331 C 0.58025 0.46814 0.52367 0.0
C1332 C 0.59345 0.49154 0.53023 0.0
C1333 C 0.58667 0.49897 0.54647 0.0
C1334 C 0.58747 0.4603 0.50647 0.0
C1335 C 0.5876 0.47048 0.48904 0.0
C1336 C 0.59306 0.44215 0.50704 0.0
C1337 C 0.59381 0.43119 0.52517 0.0
C1338 C 0.60824 0.44505 0.54064 0.0
C1339 C 0.60866 0.43463 0.55774 0.0
C1340 C 0.59485 0.41034 0.5595 0.0
C1341 C 0.58064 0.39642 0.54414 0.0
C1342 C 0.58014 0.40675 0.52702 0.0
C1343 C 0.62909 0.44527 0.42691 0.0
C1344 C 0.61708 0.42136 0.42147 0.0
C1345 C 0.62354 0.45278 0.44374 0.0
C1346 C 0.60556 0.43662 0.4553 0.0
C1347 C 0.59394 0.41268 0.45016 0.0
C1348 C 0.59968 0.4051 0.43342 0.0
C1349 C 0.59868 0.44472 0.47262 0.0
C1350 C 0.59854 0.43456 0.4901 0.0
C1351 C 0.59278 0.46269 0.47205 0.0
C1352 C 0.59089 0.47295 0.45386 0.0
C1353 C 0.57596 0.45846 0.43885 0.0
C1354 C 0.57453 0.46819 0.42166 0.0
C1355 C 0.58777 0.49243 0.41937 0.0
C1356 C 0.60241 0.507 0.43429 0.0
C1357 C 0.60395 0.49734 0.45149 0.0
H1358 H 0.58665 0.49994 0.40605 0.0
H1359 H 0.5952 0.40231 0.57275 0.0
H1360 H 0.05227 0.56068 0.72688 0.0
H1361 H 0.07704 0.57121 0.69882 0.0
H1362 H 0.13792 0.58756 0.73472 0.0
H1363 H 0.11341 0.57765 0.76286 0.0
H1364 H 0.14841 0.62072 0.70859 0.0
H1365 H 0.10977 0.53646 0.70956 0.0
H1366 H 0.07556 0.49628 0.71017 0.0
H1367 H 0.049 0.50708 0.65722 0.0
H1368 H 0.08292 0.54747 0.65643 0.0
H1369 H 0.20659 0.58632 0.63057 0.0
H1370 H 0.17648 0.57476 0.65469 0.0
H1371 H 0.16813 0.63402 0.64143 0.0
H1372 H 0.19844 0.64585 0.61728 0.0
H1373 H 0.13029 0.56321 0.65546 0.0
H1374 H 0.16238 0.65712 0.68377 0.0
H1375 H 0.19856 0.69611 0.68455 0.0
H1376 H 0.24152 0.6637 0.68149 0.0
H1377 H 0.20563 0.62455 0.68095 0.0
C1378 C 0.07098 0.56673 0.7288 0.0
C1379 C 0.08089 0.56829 0.74708 0.0
C1380 C 0.08506 0.57255 0.71275 0.0
C1381 C 0.10927 0.57998 0.71469 0.0
C1382 C 0.11926 0.58183 0.73292 0.0
C1383 C 0.1052 0.57598 0.74896 0.0
C1384 C 0.12428 0.58578 0.69774 0.0
C1385 C 0.14436 0.60819 0.69693 0.0
C1386 C 0.1191 0.56935 0.68261 0.0
C1387 C 0.09874 0.54507 0.68304 0.0
C1388 C 0.09653 0.53034 0.69813 0.0
C1389 C 0.07721 0.50751 0.69849 0.0
C1390 C 0.06008 0.49916 0.68377 0.0
C1391 C 0.06227 0.51359 0.66863 0.0
C1392 C 0.08154 0.53644 0.66821 0.0
C1393 C 0.1981 0.5967 0.63252 0.0
C1394 C 0.20503 0.6171 0.62209 0.0
C1395 C 0.18084 0.59003 0.64631 0.0
C1396 C 0.17029 0.60369 0.65 0.0
C1397 C 0.17629 0.62341 0.63896 0.0
C1398 C 0.19357 0.63011 0.62514 0.0
C1399 C 0.15436 0.59816 0.66631 0.0
C1400 C 0.13412 0.57583 0.66701 0.0
C1401 C 0.1596 0.61451 0.68152 0.0
C1402 C 0.18132 0.63794 0.68209 0.0
C1403 C 0.17956 0.65834 0.68332 0.0
C1404 C 0.20001 0.68046 0.68371 0.0
C1405 C 0.22232 0.68238 0.683 0.0
C1406 C 0.22423 0.66219 0.68197 0.0
C1407 C 0.20384 0.64003 0.68159 0.0
H1408 H 0.23813 0.69952 0.68328 0.0
H1409 H 0.04514 0.48148 0.68408 0.0
H1410 H 0.5593 0.08141 0.91178 0.0
H1411 H 0.57166 0.10529 0.8834 0.0
H1412 H 0.50774 0.10944 0.88397 0.0
H1413 H 0.49536 0.08583 0.91263 0.0
H1414 H 0.51984 0.10174 0.84718 0.0
H1415 H 0.55603 0.15401 0.90142 0.0
H1416 H 0.57935 0.1677 0.93156 0.0
H1417 H 0.64011 0.17367 0.9035 0.0
H1418 H 0.61702 0.15966 0.87323 0.0
H1419 H 0.56044 0.20272 0.78895 0.0
H1420 H 0.54336 0.17233 0.81284 0.0
H1421 H 0.6099 0.17349 0.8188 0.0
H1422 H 0.62723 0.20427 0.7955 0.0
H1423 H 0.5952 0.17777 0.85218 0.0
H1424 H 0.55973 0.12634 0.79768 0.0
H1425 H 0.53653 0.11211 0.76752 0.0
H1426 H 0.47493 0.1042 0.79547 0.0
H1427 H 0.49786 0.11869 0.82576 0.0
C1428 C 0.54791 0.0875 0.90595 0.0
C1429 C 0.52649 0.08198 0.9146 0.0
C1430 C 0.55493 0.10099 0.88967 0.0
C1431 C 0.54069 0.10926 0.88173 0.0
C1432 C 0.51892 0.10314 0.88989 0.0
C1433 C 0.51189 0.08966 0.90624 0.0
C1434 C 0.54923 0.12532 0.86554 0.0
C1435 C 0.53617 0.1185 0.84826 0.0
C1436 C 0.57075 0.14694 0.86695 0.0
C1437 C 0.58473 0.15558 0.8851 0.0
C1438 C 0.57431 0.15807 0.90171 0.0
C1439 C 0.58749 0.16591 0.91881 0.0
C1440 C 0.61118 0.17149 0.91946 0.0
C1441 C 0.62175 0.16931 0.90298 0.0
C1442 C 0.60863 0.16144 0.88585 0.0
C1443 C 0.57131 0.19622 0.79513 0.0
C1444 C 0.59523 0.20597 0.79036 0.0
C1445 C 0.56149 0.17877 0.80873 0.0
C1446 C 0.57533 0.17057 0.81757 0.0
C1447 C 0.5989 0.1796 0.8122 0.0
C1448 C 0.60877 0.19715 0.79878 0.0
C1449 C 0.56604 0.15414 0.83356 0.0
C1450 C 0.57891 0.16098 0.85094 0.0
C1451 C 0.54441 0.13255 0.83216 0.0
C1452 C 0.53058 0.12383 0.81396 0.0
C1453 C 0.54129 0.12176 0.79737 0.0
C1454 C 0.52818 0.11361 0.78025 0.0
C1455 C 0.50429 0.10732 0.77956 0.0
C1456 C 0.49345 0.10911 0.79601 0.0
C1457 C 0.50649 0.11727 0.81317 0.0
H1458 H 0.49417 0.10101 0.7663 0.0
H1459 H 0.62136 0.17756 0.93271 0.0
H1460 H 0.43788 0.56627 0.07361 0.0
H1461 H 0.42723 0.57946 0.04459 0.0
H1462 H 0.44569 0.53603 0.0106 0.0
H1463 H 0.45758 0.52395 0.0396 0.0
H1464 H 0.46101 0.57441 0.99402 0.0
H1465 H 0.38593 0.5217 0.02034 0.0
H1466 H 0.35554 0.5056 0.04491 0.0
H1467 H 0.3544 0.57021 0.04767 0.0
H1468 H 0.38503 0.58682 0.02329 0.0
H1469 H 0.3965 0.56883 0.90934 0.0
H1470 H 0.40691 0.55788 0.93959 0.0
H1471 H 0.4115 0.61893 0.96725 0.0
H1472 H 0.4015 0.63034 0.93691 0.0
H1473 H 0.38452 0.5731 0.98695 0.0
H1474 H 0.46006 0.62406 0.95853 0.0
H1475 H 0.48814 0.63668 0.93223 0.0
H1476 H 0.48526 0.57009 0.93171 0.0
H1477 H 0.45687 0.55694 0.95784 0.0
C1478 C 0.43959 0.55958 0.0599 0.0
C1479 C 0.44845 0.5441 0.05875 0.0
C1480 C 0.43338 0.56698 0.04333 0.0
C1481 C 0.43521 0.55844 0.02533 0.0
C1482 C 0.44411 0.54293 0.02425 0.0
C1483 C 0.45083 0.53597 0.0408 0.0
C1484 C 0.42828 0.5659 0.00758 0.0
C1485 C 0.44413 0.57381 0.99248 0.0
C1486 C 0.40641 0.56554 0.00551 0.0
C1487 C 0.38795 0.55558 0.02014 0.0
C1488 C 0.37932 0.53254 0.02629 0.0
C1489 C 0.36204 0.52331 0.04016 0.0
C1490 C 0.35309 0.5369 0.04788 0.0
C1491 C 0.36137 0.55972 0.0417 0.0
C1492 C 0.37868 0.56904 0.02785 0.0
C1493 C 0.3996 0.57989 0.92186 0.0
C1494 C 0.39823 0.6005 0.92072 0.0
C1495 C 0.40559 0.57362 0.9391 0.0
C1496 C 0.41002 0.58765 0.95557 0.0
C1497 C 0.40812 0.60791 0.95465 0.0
C1498 C 0.40252 0.61443 0.93731 0.0
C1499 C 0.41717 0.58134 0.97363 0.0
C1500 C 0.40137 0.57368 0.98869 0.0
C1501 C 0.43881 0.58142 0.97552 0.0
C1502 C 0.45617 0.58945 0.96002 0.0
C1503 C 0.46527 0.61204 0.95271 0.0
C1504 C 0.48127 0.6193 0.93785 0.0
C1505 C 0.48843 0.60417 0.93027 0.0
C1506 C 0.47968 0.58178 0.93758 0.0
C1507 C 0.46365 0.57443 0.95243 0.0
H1508 H 0.5008 0.60981 0.91875 0.0
H1509 H 0.33971 0.52973 0.05862 0.0
H1510 H 0.93761 0.47664 0.23356 0.0
H1511 H 0.90961 0.46389 0.20654 0.0
H1512 H 0.85251 0.42034 0.24336 0.0
H1513 H 0.88045 0.43325 0.27062 0.0
H1514 H 0.85012 0.39712 0.21078 0.0
H1515 H 0.85754 0.47068 0.22785 0.0
H1516 H 0.87834 0.51295 0.23615 0.0
H1517 H 0.91019 0.5286 0.18128 0.0
H1518 H 0.88984 0.48639 0.17274 0.0
H1519 H 0.78109 0.41695 0.12666 0.0
H1520 H 0.79982 0.42688 0.15848 0.0
H1521 H 0.84035 0.39365 0.14407 0.0
H1522 H 0.82156 0.38337 0.11242 0.0
H1523 H 0.84501 0.45439 0.16865 0.0
H1524 H 0.85078 0.37056 0.18307 0.0
H1525 H 0.82746 0.32798 0.17614 0.0
H1526 H 0.76402 0.33218 0.1707 0.0
H1527 H 0.78689 0.37471 0.17785 0.0
C1528 C 0.91905 0.46459 0.236 0.0
C1529 C 0.91126 0.45609 0.2543 0.0
C1530 C 0.90307 0.45727 0.22051 0.0
C1531 C 0.87892 0.44138 0.22297 0.0
C1532 C 0.87107 0.43264 0.24115 0.0
C1533 C 0.88707 0.43997 0.25669 0.0
C1534 C 0.86208 0.43364 0.20639 0.0
C1535 C 0.84891 0.40962 0.2016 0.0
C1536 C 0.86006 0.44991 0.19468 0.0
C1537 C 0.87228 0.47534 0.19971 0.0
C1538 C 0.86911 0.48312 0.2176 0.0
C1539 C 0.8808 0.50708 0.22234 0.0
C1540 C 0.89561 0.52345 0.20926 0.0
C1541 C 0.89872 0.5159 0.1914 0.0
C1542 C 0.88709 0.49196 0.18659 0.0
C1543 C 0.79382 0.41155 0.13031 0.0
C1544 C 0.79979 0.39934 0.11693 0.0
C1545 C 0.80455 0.4173 0.1485 0.0
C1546 C 0.82133 0.41084 0.15373 0.0
C1547 C 0.82716 0.39848 0.14048 0.0
C1548 C 0.81646 0.39272 0.12232 0.0
C1549 C 0.83365 0.41793 0.17267 0.0
C1550 C 0.84602 0.44185 0.17791 0.0
C1551 C 0.83457 0.40152 0.18496 0.0
C1552 C 0.82061 0.37587 0.18085 0.0
C1553 C 0.83184 0.36238 0.18049 0.0
C1554 C 0.8187 0.33825 0.1765 0.0
C1555 C 0.79428 0.32739 0.17293 0.0
C1556 C 0.78294 0.34062 0.1734 0.0
C1557 C 0.796 0.36475 0.17739 0.0
H1558 H 0.78415 0.30871 0.16984 0.0
H1559 H 0.90465 0.54199 0.21296 0.0
loop_
_geom_bond_atom_site_label_1
_geom_bond_atom_site_label_2
_geom_bond_distance
_geom_bond_site_symmetry_2
_ccdc_geom_bond_type
C0 C1 1.384 . S
C0 C2 1.384 . S
C0 H28 0.931 . S
C1 C0 1.384 . S
C1 C4 1.382 . S
C2 C0 1.384 . S
C2 C3 1.381 . S
C2 H29 0.930 . S
C3 C2 1.381 . S
C3 C5 1.381 . S
C3 C6 1.487 . S
C4 C1 1.382 . S
C4 C5 1.387 . S
C4 H30 0.930 . S
C5 C3 1.381 . S
C5 C4 1.387 . S
C5 H31 0.931 . S
C6 C3 1.487 . S
C6 C13 1.399 . S
C6 N44 1.343 . S
C7 C8 1.384 . S
C7 C9 1.384 . S
C7 H32 0.931 . S
C8 C7 1.384 . S
C8 C11 1.382 . S
C9 C7 1.384 . S
C9 C10 1.381 . S
C9 H33 0.930 . S
C10 C9 1.381 . S
C10 C12 1.381 . S
C10 C13 1.487 . S
C11 C8 1.382 . S
C11 C12 1.387 . S
C11 H34 0.930 . S
C12 C10 1.381 . S
C12 C11 1.387 . S
C12 H35 0.931 . S
C13 C6 1.399 . S
C13 C10 1.487 . S
C13 N45 1.343 1_655 S
C14 C15 1.384 . S
C14 C16 1.384 . S
C14 H36 0.931 . S
C15 C14 1.384 . S
C15 C18 1.382 . S
C16 C14 1.384 . S
C16 C17 1.381 . S
C16 H37 0.930 . S
C17 C16 1.381 . S
C17 C19 1.381 . S
C17 C20 1.487 . S
C18 C15 1.382 . S
C18 C19 1.387 . S
C18 H38 0.930 . S
C19 C17 1.381 . S
C19 C18 1.387 . S
C19 H39 0.931 . S
C20 C17 1.487 . S
C20 C27 1.399 . S
C20 N45 1.343 . S
C21 C22 1.384 . S
C21 C23 1.384 . S
C21 H40 0.931 . S
C22 C21 1.384 . S
C22 C25 1.382 . S
C23 C21 1.384 . S
C23 C24 1.381 . S
C23 H41 0.930 . S
C24 C23 1.381 . S
C24 C26 1.381 . S
C24 C27 1.487 . S
C25 C22 1.382 . S
C25 C26 1.387 . S
C25 H42 0.930 . S
C26 C24 1.381 . S
C26 C25 1.387 . S
C26 H43 0.931 . S
C27 C20 1.399 . S
C27 C24 1.487 . S
C27 N44 1.343 1_455 S
H28 C0 0.931 . S
H29 C2 0.930 . S
H30 C4 0.930 . S
H31 C5 0.931 . S
H32 C7 0.931 . S
H33 C9 0.930 . S
H34 C11 0.930 . S
H35 C12 0.931 . S
H36 C14 0.931 . S
H37 C16 0.930 . S
H38 C18 0.930 . S
H39 C19 0.931 . S
H40 C21 0.931 . S
H41 C23 0.930 . S
H42 C25 0.930 . S
H43 C26 0.931 . S
N44 C6 1.343 . S
N44 C27 1.343 1_655 S
N45 C13 1.343 1_455 S
N45 C20 1.343 . S
C46 C47 1.384 . S
C46 C48 1.384 . S
C46 H74 0.931 . S
C47 C46 1.384 . S
C47 C50 1.382 . S
C48 C46 1.384 . S
C48 C49 1.381 . S
C48 H75 0.930 . S
C49 C48 1.381 . S
C49 C51 1.381 . S
C49 C52 1.487 . S
C50 C47 1.382 . S
C50 C51 1.387 . S
C50 H76 0.930 . S
C51 C49 1.381 . S
C51 C50 1.387 . S
C51 H77 0.931 . S
C52 C49 1.487 . S
C52 C59 1.399 . S
C52 N90 1.343 1_565 S
C53 C54 1.384 . S
C53 C55 1.384 . S
C53 H78 0.931 . S
C54 C53 1.384 . S
C54 C57 1.382 . S
C55 C53 1.384 . S
C55 C56 1.381 . S
C55 H79 0.930 . S
C56 C55 1.381 . S
C56 C58 1.381 . S
C56 C59 1.487 . S
C57 C54 1.382 . S
C57 C58 1.387 . S
C57 H80 0.930 . S
C58 C56 1.381 . S
C58 C57 1.387 . S
C58 H81 0.931 . S
C59 C52 1.399 . S
C59 C56 1.487 . S
C59 N91 1.343 1_565 S
C60 C61 1.384 . S
C60 C62 1.384 . S
C60 H82 0.931 . S
C61 C60 1.384 . S
C61 C64 1.382 . S
C62 C60 1.384 . S
C62 C63 1.381 . S
C62 H83 0.930 . S
C63 C62 1.381 . S
C63 C65 1.381 . S
C63 C66 1.487 . S
C64 C61 1.382 . S
C64 C65 1.387 . S
C64 H84 0.930 . S
C65 C63 1.381 . S
C65 C64 1.387 . S
C65 H85 0.931 . S
C66 C63 1.487 . S
C66 C73 1.399 . S
C66 N91 1.343 . S
C67 C68 1.384 . S
C67 C69 1.384 . S
C67 H86 0.931 . S
C68 C67 1.384 . S
C68 C71 1.382 . S
C69 C67 1.384 . S
C69 C70 1.381 . S
C69 H87 0.930 . S
C70 C69 1.381 . S
C70 C72 1.381 . S
C70 C73 1.487 . S
C71 C68 1.382 . S
C71 C72 1.387 . S
C71 H88 0.930 . S
C72 C70 1.381 . S
C72 C71 1.387 . S
C72 H89 0.931 . S
C73 C66 1.399 . S
C73 C70 1.487 . S
C73 N90 1.343 . S
H74 C46 0.931 . S
H75 C48 0.930 . S
H76 C50 0.930 . S
H77 C51 0.931 . S
H78 C53 0.931 . S
H79 C55 0.930 . S
H80 C57 0.930 . S
H81 C58 0.931 . S
H82 C60 0.931 . S
H83 C62 0.930 . S
H84 C64 0.930 . S
H85 C65 0.931 . S
H86 C67 0.931 . S
H87 C69 0.930 . S
H88 C71 0.930 . S
H89 C72 0.931 . S
N90 C52 1.343 1_545 S
N90 C73 1.343 . S
N91 C59 1.343 1_545 S
N91 C66 1.343 . S
C92 C93 1.384 . S
C92 C94 1.384 . S
C92 H120 0.931 . S
C93 C92 1.384 . S
C93 C96 1.382 . S
C94 C92 1.384 . S
C94 C95 1.381 . S
C94 H121 0.930 . S
C95 C94 1.381 . S
C95 C97 1.381 . S
C95 C98 1.487 . S
C96 C93 1.382 . S
C96 C97 1.387 . S
C96 H122 0.930 . S
C97 C95 1.381 . S
C97 C96 1.387 . S
C97 H123 0.931 . S
C98 C95 1.487 . S
C98 C105 1.399 . S
C98 N136 1.343 . S
C99 C100 1.384 . S
C99 C101 1.384 . S
C99 H124 0.931 . S
C100 C99 1.384 . S
C100 C103 1.382 . S
C101 C99 1.384 . S
C101 C102 1.381 . S
C101 H125 0.930 . S
C102 C101 1.381 . S
C102 C104 1.381 . S
C102 C105 1.487 . S
C103 C100 1.382 . S
C103 C104 1.387 . S
C103 H126 0.930 . S
C104 C102 1.381 . S
C104 C103 1.387 . S
C104 H127 0.931 . S
C105 C98 1.399 . S
C105 C102 1.487 . S
C105 N137 1.343 . S
C106 C107 1.384 . S
C106 C108 1.384 . S
C106 H128 0.931 . S
C107 C106 1.384 . S
C107 C110 1.382 . S
C108 C106 1.384 . S
C108 C109 1.381 . S
C108 H129 0.930 . S
C109 C108 1.381 . S
C109 C111 1.381 . S
C109 C112 1.487 . S
C110 C107 1.382 . S
C110 C111 1.387 . S
C110 H130 0.930 . S
C111 C109 1.381 . S
C111 C110 1.387 . S
C111 H131 0.931 . S
C112 C109 1.487 . S
C112 C119 1.399 . S
C112 N137 1.343 . S
C113 C114 1.384 . S
C113 C115 1.384 . S
C113 H132 0.931 . S
C114 C113 1.384 . S
C114 C117 1.382 . S
C115 C113 1.384 . S
C115 C116 1.381 . S
C115 H133 0.930 . S
C116 C115 1.381 . S
C116 C118 1.381 . S
C116 C119 1.487 . S
C117 C114 1.382 . S
C117 C118 1.387 . S
C117 H134 0.930 . S
C118 C116 1.381 . S
C118 C117 1.387 . S
C118 H135 0.931 . S
C119 C112 1.399 . S
C119 C116 1.487 . S
C119 N136 1.343 . S
H120 C92 0.931 . S
H121 C94 0.930 . S
H122 C96 0.930 . S
H123 C97 0.931 . S
H124 C99 0.931 . S
H125 C101 0.930 . S
H126 C103 0.930 . S
H127 C104 0.931 . S
H128 C106 0.931 . S
H129 C108 0.930 . S
H130 C110 0.930 . S
H131 C111 0.931 . S
H132 C113 0.931 . S
H133 C115 0.930 . S
H134 C117 0.930 . S
H135 C118 0.931 . S
N136 C98 1.343 . S
N136 C119 1.343 . S
N137 C105 1.343 . S
N137 C112 1.343 . S
C138 C139 1.384 . S
C138 C140 1.384 . S
C138 H166 0.931 . S
C139 C138 1.384 . S
C139 C142 1.382 . S
C140 C138 1.384 . S
C140 C141 1.381 . S
C140 H167 0.930 . S
C141 C140 1.381 . S
C141 C143 1.381 . S
C141 C144 1.487 . S
C142 C139 1.382 . S
C142 C143 1.387 . S
C142 H168 0.930 . S
C143 C141 1.381 . S
C143 C142 1.387 . S
C143 H169 0.931 . S
C144 C141 1.487 . S
C144 C151 1.399 . S
C144 N182 1.318 1_655 S
C145 C146 1.384 . S
C145 C147 1.384 . S
C145 H170 0.931 . S
C146 C145 1.384 . S
C146 C149 1.382 . S
C147 C145 1.384 . S
C147 C148 1.381 . S
C147 H171 0.930 . S
C148 C147 1.381 . S
C148 C150 1.381 . S
C148 C151 1.487 . S
C149 C146 1.382 . S
C149 C150 1.387 . S
C149 H172 0.930 . S
C150 C148 1.381 . S
C150 C149 1.387 . S
C150 H173 0.931 . S
C151 C144 1.399 . S
C151 C148 1.487 . S
C151 N183 1.343 1_655 S
C152 C153 1.384 . S
C152 C154 1.384 . S
C152 H174 0.931 . S
C153 C152 1.384 . S
C153 C156 1.382 . S
C154 C152 1.384 . S
C154 C155 1.381 . S
C154 H175 0.930 . S
C155 C154 1.381 . S
C155 C157 1.381 . S
C155 C158 1.487 . S
C156 C153 1.382 . S
C156 C157 1.387 . S
C156 H176 0.930 . S
C157 C155 1.381 . S
C157 C156 1.387 . S
C157 H177 0.931 . S
C158 C155 1.487 . S
C158 C165 1.399 . S
C158 N183 1.343 . S
C159 C160 1.384 . S
C159 C161 1.384 . S
C159 H178 0.931 . S
C160 C159 1.384 . S
C160 C163 1.382 . S
C161 C159 1.384 . S
C161 C162 1.381 . S
C161 H179 0.930 . S
C162 C161 1.381 . S
C162 C164 1.381 . S
C162 C165 1.487 . S
C163 C160 1.382 . S
C163 C164 1.387 . S
C163 H180 0.930 . S
C164 C162 1.381 . S
C164 C163 1.387 . S
C164 H181 0.931 . S
C165 C158 1.399 . S
C165 C162 1.487 . S
C165 N182 1.386 . S
H166 C138 0.931 . S
H167 C140 0.930 . S
H168 C142 0.930 . S
H169 C143 0.931 . S
H170 C145 0.931 . S
H171 C147 0.930 . S
H172 C149 0.930 . S
H173 C150 0.931 . S
H174 C152 0.931 . S
H175 C154 0.930 . S
H176 C156 0.930 . S
H177 C157 0.931 . S
H178 C159 0.931 . S
H179 C161 0.930 . S
H180 C163 0.930 . S
H181 C164 0.931 . S
N182 C144 1.318 1_455 S
N182 C165 1.386 . S
N183 C151 1.343 1_455 S
N183 C158 1.343 . S
C184 C185 1.384 . S
C184 C186 1.384 . S
C184 H212 0.931 . S
C185 C184 1.384 . S
C185 C188 1.382 . S
C186 C184 1.384 . S
C186 C187 1.381 . S
C186 H213 0.960 . S
C187 C186 1.381 . S
C187 C189 1.381 . S
C187 C190 1.487 . S
C188 C185 1.382 . S
C188 C189 1.387 . S
C188 H214 0.930 . S
C189 C187 1.381 . S
C189 C188 1.387 . S
C189 H215 0.931 . S
C190 C187 1.487 . S
C190 C197 1.399 1_566 S
C190 N228 1.343 1_565 S
C191 C192 1.384 . S
C191 C193 1.384 . S
C191 H216 0.931 . S
C192 C191 1.384 . S
C192 C195 1.382 . S
C193 C191 1.384 . S
C193 C194 1.381 . S
C193 H217 0.930 . S
C194 C193 1.381 . S
C194 C196 1.381 . S
C194 C197 1.487 1_565 S
C195 C192 1.382 . S
C195 C196 1.387 . S
C195 H218 0.930 . S
C196 C194 1.381 . S
C196 C195 1.387 . S
C196 H219 0.931 1_565 S
C197 C190 1.399 1_544 S
C197 C194 1.487 1_545 S
C197 N229 1.343 . S
C198 C199 1.384 . S
C198 C200 1.384 1_554 S
C198 H220 0.913 1_554 S
C199 C198 1.384 . S
C199 C202 1.382 . S
C200 C198 1.384 1_556 S
C200 C201 1.381 1_556 S
C200 H221 0.930 . S
C201 C200 1.381 1_554 S
C201 C203 1.381 . S
C201 C204 1.487 1_554 S
C202 C199 1.382 . S
C202 C203 1.387 . S
C202 H222 0.930 . S
C203 C201 1.381 . S
C203 C202 1.387 . S
C203 H223 0.931 . S
C204 C201 1.487 1_556 S
C204 C211 1.399 . S
C204 N229 1.343 1_556 S
C205 C206 1.384 . S
C205 C207 1.384 . S
C205 H224 0.931 . S
C206 C205 1.384 . S
C206 C209 1.382 . S
C207 C205 1.384 . S
C207 C208 1.381 . S
C207 H225 0.930 . S
C208 C207 1.381 . S
C208 C210 1.381 . S
C208 C211 1.487 . S
C209 C206 1.382 . S
C209 C210 1.387 . S
C209 H226 0.930 . S
C210 C208 1.381 . S
C210 C209 1.387 . S
C210 H227 0.931 . S
C211 C204 1.399 . S
C211 C208 1.487 . S
C211 N228 1.343 . S
H212 C184 0.931 . S
H213 C186 0.960 . S
H214 C188 0.930 . S
H215 C189 0.931 . S
H216 C191 0.931 . S
H217 C193 0.930 . S
H218 C195 0.930 . S
H219 C196 0.931 1_545 S
H220 C198 0.913 1_556 S
H221 C200 0.930 . S
H222 C202 0.930 . S
H223 C203 0.931 . S
H224 C205 0.931 . S
H225 C207 0.930 . S
H226 C209 0.930 . S
H227 C210 0.931 . S
N228 C190 1.343 1_545 S
N228 C211 1.343 . S
N229 C197 1.343 . S
N229 C204 1.343 1_554 S
C230 C231 1.384 . S
C230 C232 1.384 . S
C230 H258 0.931 . S
C231 C230 1.384 . S
C231 C234 1.382 . S
C232 C230 1.384 . S
C232 C233 1.381 . S
C232 H259 0.930 . S
C233 C232 1.381 . S
C233 C235 1.381 . S
C233 C236 1.487 . S
C234 C231 1.382 . S
C234 C235 1.387 . S
C234 H260 0.930 . S
C235 C233 1.381 . S
C235 C234 1.387 . S
C235 H261 0.931 . S
C236 C233 1.487 . S
C236 C243 1.399 . S
C236 N274 1.343 . S
C237 C238 1.384 . S
C237 C239 1.384 . S
C237 H262 0.931 . S
C238 C237 1.384 . S
C238 C241 1.382 . S
C239 C237 1.384 . S
C239 C240 1.381 . S
C239 H263 0.930 . S
C240 C239 1.381 . S
C240 C242 1.381 . S
C240 C243 1.487 . S
C241 C238 1.382 . S
C241 C242 1.387 . S
C241 H264 0.930 . S
C242 C240 1.381 . S
C242 C241 1.387 . S
C242 H265 0.931 . S
C243 C236 1.399 . S
C243 C240 1.487 . S
C243 N275 1.343 . S
C244 C245 1.384 . S
C244 C246 1.384 . S
C244 H266 0.931 . S
C245 C244 1.384 . S
C245 C248 1.382 . S
C246 C244 1.384 . S
C246 C247 1.381 . S
C246 H267 0.930 . S
C247 C246 1.381 . S
C247 C249 1.381 . S
C247 C250 1.487 . S
C248 C245 1.382 . S
C248 C249 1.387 . S
C248 H268 0.930 . S
C249 C247 1.381 . S
C249 C248 1.387 . S
C249 H269 0.931 . S
C250 C247 1.487 . S
C250 C257 1.399 . S
C250 N275 1.343 . S
C251 C252 1.384 . S
C251 C253 1.384 . S
C251 H270 0.931 . S
C252 C251 1.384 . S
C252 C255 1.382 . S
C253 C251 1.384 . S
C253 C254 1.381 . S
C253 H271 0.930 . S
C254 C253 1.381 . S
C254 C256 1.381 . S
C254 C257 1.487 . S
C255 C252 1.382 . S
C255 C256 1.387 . S
C255 H272 0.930 . S
C256 C254 1.381 . S
C256 C255 1.387 . S
C256 H273 0.931 . S
C257 C250 1.399 . S
C257 C254 1.487 . S
C257 N274 1.343 . S
H258 C230 0.931 . S
H259 C232 0.930 . S
H260 C234 0.930 . S
H261 C235 0.931 . S
H262 C237 0.931 . S
H263 C239 0.930 . S
H264 C241 0.930 . S
H265 C242 0.931 . S
H266 C244 0.931 . S
H267 C246 0.930 . S
H268 C248 0.930 . S
H269 C249 0.931 . S
H270 C251 0.931 . S
H271 C253 0.930 . S
H272 C255 0.930 . S
H273 C256 0.931 . S
N274 C236 1.343 . S
N274 C257 1.343 . S
N275 C243 1.343 . S
N275 C250 1.343 . S
Mg276 O277 2.028 . S
Mg276 O283 1.986 . S
Mg276 O285 2.114 . S
Mg276 O286 2.251 . S
Mg276 O289 2.010 . S
O277 Mg276 2.028 . S
O277 C280 1.250 . S
O278 Mg279 2.028 . S
O278 C280 1.248 . S
Mg279 O278 2.028 . S
Mg279 O284 2.032 . S
Mg279 O286 2.079 . S
C280 O277 1.250 . S
C280 O278 1.248 . S
C281 O282 1.264 . S
C281 O289 1.249 . S
O282 C281 1.264 . S
O283 Mg276 1.986 . S
O283 C287 1.246 . S
O284 Mg279 2.032 . S
O284 C287 1.259 . S
O285 Mg276 2.114 . S
O285 C288 1.252 . S
O286 Mg276 2.251 . S
O286 Mg279 2.079 . S
O286 C288 1.273 . S
C287 O283 1.246 . S
C287 O284 1.259 . S
C288 O285 1.252 . S
C288 O286 1.273 . S
O289 Mg276 2.010 . S
O289 C281 1.249 . S
Mg290 O291 2.028 . S
Mg290 O297 1.986 . S
Mg290 O299 2.114 . S
Mg290 O300 2.251 . S
Mg290 O303 2.010 . S
O291 Mg290 2.028 . S
O291 C294 1.250 . S
O292 Mg293 2.028 . S
O292 C294 1.248 . S
Mg293 O292 2.028 . S
Mg293 O298 2.032 . S
Mg293 O300 2.079 . S
C294 O291 1.250 . S
C294 O292 1.248 . S
C295 O296 1.264 . S
C295 O303 1.249 . S
O296 C295 1.264 . S
O297 Mg290 1.986 . S
O297 C301 1.246 . S
O298 Mg293 2.032 . S
O298 C301 1.259 . S
O299 Mg290 2.114 . S
O299 C302 1.252 . S
O300 Mg290 2.251 . S
O300 Mg293 2.079 . S
O300 C302 1.273 . S
C301 O297 1.246 . S
C301 O298 1.259 . S
C302 O299 1.252 . S
C302 O300 1.273 . S
O303 Mg290 2.010 . S
O303 C295 1.249 . S
Mg304 O305 2.028 . S
Mg304 O311 1.986 . S
Mg304 O313 2.114 . S
Mg304 O314 2.251 . S
Mg304 O317 2.010 . S
O305 Mg304 2.028 . S
O305 C308 1.250 . S
O306 Mg307 2.028 . S
O306 C308 1.248 . S
Mg307 O306 2.028 . S
Mg307 O312 2.032 . S
Mg307 O314 2.079 . S
C308 O305 1.250 . S
C308 O306 1.248 . S
C309 O310 1.264 . S
C309 O317 1.249 . S
O310 C309 1.264 . S
O311 Mg304 1.986 . S
O311 C315 1.246 . S
O312 Mg307 2.032 . S
O312 C315 1.259 . S
O313 Mg304 2.114 . S
O313 C316 1.252 . S
O314 Mg304 2.251 . S
O314 Mg307 2.079 . S
O314 C316 1.273 . S
C315 O311 1.246 . S
C315 O312 1.259 . S
C316 O313 1.252 . S
C316 O314 1.273 . S
O317 Mg304 2.010 . S
O317 C309 1.249 . S
Mg318 O319 2.028 . S
Mg318 O325 1.986 . S
Mg318 O327 2.114 . S
Mg318 O328 2.251 . S
Mg318 O331 2.010 . S
O319 Mg318 2.028 . S
O319 C322 1.250 . S
O320 Mg321 2.028 . S
O320 C322 1.248 . S
Mg321 O320 2.028 . S
Mg321 O326 2.032 . S
Mg321 O328 2.079 . S
C322 O319 1.250 . S
C322 O320 1.248 . S
C323 O324 1.264 . S
C323 O331 1.249 . S
O324 C323 1.264 . S
O325 Mg318 1.986 . S
O325 C329 1.246 . S
O326 Mg321 2.032 . S
O326 C329 1.259 . S
O327 Mg318 2.114 . S
O327 C330 1.252 . S
O328 Mg318 2.251 . S
O328 Mg321 2.079 . S
O328 C330 1.273 . S
C329 O325 1.246 . S
C329 O326 1.259 . S
C330 O327 1.252 . S
C330 O328 1.273 . S
O331 Mg318 2.010 . S
O331 C323 1.249 . S
Mg332 O333 2.028 . S
Mg332 O339 1.986 . S
Mg332 O341 2.114 . S
Mg332 O342 2.251 . S
Mg332 O345 2.010 . S
O333 Mg332 2.028 . S
O333 C336 1.250 . S
O334 Mg335 2.028 . S
O334 C336 1.248 . S
Mg335 O334 2.028 . S
Mg335 O340 2.032 . S
Mg335 O342 2.079 . S
C336 O333 1.250 . S
C336 O334 1.248 . S
C337 O338 1.264 . S
C337 O345 1.249 . S
O338 C337 1.264 . S
O339 Mg332 1.986 . S
O339 C343 1.246 . S
O340 Mg335 2.032 . S
O340 C343 1.259 . S
O341 Mg332 2.114 . S
O341 C344 1.252 . S
O342 Mg332 2.251 . S
O342 Mg335 2.079 . S
O342 C344 1.273 . S
C343 O339 1.246 . S
C343 O340 1.259 . S
C344 O341 1.252 . S
C344 O342 1.273 . S
O345 Mg332 2.010 . S
O345 C337 1.249 . S
Mg346 O347 2.028 . S
Mg346 O353 1.986 . S
Mg346 O355 2.114 . S
Mg346 O356 2.251 . S
Mg346 O359 2.010 . S
O347 Mg346 2.028 . S
O347 C350 1.250 . S
O348 Mg349 2.028 . S
O348 C350 1.248 . S
Mg349 O348 2.028 . S
Mg349 O354 2.032 . S
Mg349 O356 2.079 . S
C350 O347 1.250 . S
C350 O348 1.248 . S
C351 O352 1.264 . S
C351 O359 1.249 . S
O352 C351 1.264 . S
O353 Mg346 1.986 . S
O353 C357 1.246 . S
O354 Mg349 2.032 . S
O354 C357 1.259 . S
O355 Mg346 2.114 . S
O355 C358 1.252 . S
O356 Mg346 2.251 . S
O356 Mg349 2.079 . S
O356 C358 1.273 . S
C357 O353 1.246 . S
C357 O354 1.259 . S
C358 O355 1.252 . S
C358 O356 1.273 . S
O359 Mg346 2.010 . S
O359 C351 1.249 . S
H360 C378 0.951 . S
H361 C380 0.951 . S
H362 C382 0.950 . S
H363 C383 0.950 . S
H364 C385 0.950 . S
H365 C388 0.950 . S
H366 C389 0.950 . S
H367 C391 0.950 . S
H368 C392 0.950 . S
H369 C393 0.951 . S
H370 C395 0.951 . S
H371 C397 0.950 . S
H372 C398 0.950 . S
H373 C400 0.950 . S
H374 C403 0.950 . S
H375 C404 0.950 . S
H376 C406 0.950 . S
H377 C407 0.950 . S
C378 H360 0.951 . S
C378 C379 1.366 . S
C378 C380 1.388 . S
C379 C378 1.366 . S
C379 C383 1.385 . S
C380 H361 0.951 . S
C380 C378 1.388 . S
C380 C381 1.366 . S
C381 C380 1.366 . S
C381 C382 1.414 . S
C381 C384 1.499 . S
C382 H362 0.950 . S
C382 C381 1.414 . S
C382 C383 1.374 . S
C383 H363 0.950 . S
C383 C379 1.385 . S
C383 C382 1.374 . S
C384 C381 1.499 . S
C384 C385 1.373 . S
C384 C386 1.389 . S
C385 H364 0.950 . S
C385 C384 1.373 . S
C385 C401 1.377 . S
C386 C384 1.389 . S
C386 C387 1.524 . S
C386 C400 1.377 . S
C387 C386 1.524 . S
C387 C388 1.397 . S
C387 C392 1.363 . S
C388 H365 0.950 . S
C388 C387 1.397 . S
C388 C389 1.334 . S
C389 H366 0.950 . S
C389 C388 1.334 . S
C389 C390 1.287 . S
C390 C389 1.287 . S
C390 C391 1.524 . S
C390 H409 0.913 . S
C391 H367 0.950 . S
C391 C390 1.524 . S
C391 C392 1.415 . S
C392 H368 0.950 . S
C392 C387 1.363 . S
C392 C391 1.415 . S
C393 H369 0.951 . S
C393 C394 1.366 . S
C393 C395 1.388 . S
C394 C393 1.366 . S
C394 C398 1.385 . S
C395 H370 0.951 . S
C395 C393 1.388 . S
C395 C396 1.366 . S
C396 C395 1.366 . S
C396 C397 1.414 . S
C396 C399 1.499 . S
C397 H371 0.950 . S
C397 C396 1.414 . S
C397 C398 1.374 . S
C398 H372 0.950 . S
C398 C394 1.385 . S
C398 C397 1.374 . S
C399 C396 1.499 . S
C399 C400 1.373 . S
C399 C401 1.389 . S
C400 H373 0.950 . S
C400 C386 1.377 . S
C400 C399 1.373 . S
C401 C385 1.377 . S
C401 C399 1.389 . S
C401 C402 1.524 . S
C402 C401 1.524 . S
C402 C403 1.397 . S
C402 C407 1.363 . S
C403 H374 0.950 . S
C403 C402 1.397 . S
C403 C404 1.334 . S
C404 H375 0.950 . S
C404 C403 1.334 . S
C404 C405 1.287 . S
C405 C404 1.287 . S
C405 C406 1.524 . S
C405 H408 0.999 . S
C406 H376 0.950 . S
C406 C405 1.524 . S
C406 C407 1.415 . S
C407 H377 0.950 . S
C407 C402 1.363 . S
C407 C406 1.415 . S
H408 C405 0.999 . S
H409 C390 0.913 . S
H410 C428 0.951 . S
H411 C430 0.951 . S
H412 C432 0.950 . S
H413 C433 0.950 . S
H414 C435 0.950 . S
H415 C438 0.950 . S
H416 C439 0.950 . S
H417 C441 0.950 . S
H418 C442 0.950 . S
H419 C443 0.951 . S
H420 C445 0.951 . S
H421 C447 0.950 . S
H422 C448 0.950 . S
H423 C450 0.950 . S
H424 C453 0.950 . S
H425 C454 0.950 . S
H426 C456 0.950 . S
H427 C457 0.950 . S
C428 H410 0.951 . S
C428 C429 1.366 . S
C428 C430 1.388 . S
C429 C428 1.366 . S
C429 C433 1.385 . S
C430 H411 0.951 . S
C430 C428 1.388 . S
C430 C431 1.366 . S
C431 C430 1.366 . S
C431 C432 1.414 . S
C431 C434 1.499 . S
C432 H412 0.950 . S
C432 C431 1.414 . S
C432 C433 1.374 . S
C433 H413 0.950 . S
C433 C429 1.385 . S
C433 C432 1.374 . S
C434 C431 1.499 . S
C434 C435 1.373 . S
C434 C436 1.389 . S
C435 H414 0.950 . S
C435 C434 1.373 . S
C435 C451 1.377 . S
C436 C434 1.389 . S
C436 C437 1.524 . S
C436 C450 1.377 . S
C437 C436 1.524 . S
C437 C438 1.397 . S
C437 C442 1.363 . S
C438 H415 0.950 . S
C438 C437 1.397 . S
C438 C439 1.334 . S
C439 H416 0.950 . S
C439 C438 1.334 . S
C439 C440 1.287 . S
C440 C439 1.287 . S
C440 C441 1.524 . S
C440 H459 0.913 . S
C441 H417 0.950 . S
C441 C440 1.524 . S
C441 C442 1.415 . S
C442 H418 0.950 . S
C442 C437 1.363 . S
C442 C441 1.415 . S
C443 H419 0.951 . S
C443 C444 1.366 . S
C443 C445 1.388 . S
C444 C443 1.366 . S
C444 C448 1.385 . S
C445 H420 0.951 . S
C445 C443 1.388 . S
C445 C446 1.366 . S
C446 C445 1.366 . S
C446 C447 1.414 . S
C446 C449 1.499 . S
C447 H421 0.950 . S
C447 C446 1.414 . S
C447 C448 1.374 . S
C448 H422 0.950 . S
C448 C444 1.385 . S
C448 C447 1.374 . S
C449 C446 1.499 . S
C449 C450 1.373 . S
C449 C451 1.389 . S
C450 H423 0.950 . S
C450 C436 1.377 . S
C450 C449 1.373 . S
C451 C435 1.377 . S
C451 C449 1.389 . S
C451 C452 1.524 . S
C452 C451 1.524 . S
C452 C453 1.397 . S
C452 C457 1.363 . S
C453 H424 0.950 . S
C453 C452 1.397 . S
C453 C454 1.334 . S
C454 H425 0.950 . S
C454 C453 1.334 . S
C454 C455 1.287 . S
C455 C454 1.287 . S
C455 C456 1.524 . S
C455 H458 0.999 . S
C456 H426 0.950 . S
C456 C455 1.524 . S
C456 C457 1.415 . S
C457 H427 0.950 . S
C457 C452 1.363 . S
C457 C456 1.415 . S
H458 C455 0.999 . S
H459 C440 0.913 . S
H460 C478 0.951 . S
H461 C480 0.951 . S
H462 C482 0.950 . S
H463 C483 0.950 . S
H464 C485 0.950 . S
H465 C488 0.950 . S
H466 C489 0.950 . S
H467 C491 0.950 . S
H468 C492 0.950 . S
H469 C493 0.951 . S
H470 C495 0.951 . S
H471 C497 0.950 . S
H472 C498 0.950 . S
H473 C500 0.950 . S
H474 C503 0.950 . S
H475 C504 0.950 . S
H476 C506 0.950 . S
H477 C507 0.950 . S
C478 H460 0.951 . S
C478 C479 1.366 . S
C478 C480 1.388 . S
C479 C478 1.366 . S
C479 C483 1.385 . S
C480 H461 0.951 . S
C480 C478 1.388 . S
C480 C481 1.366 . S
C481 C480 1.366 . S
C481 C482 1.414 . S
C481 C484 1.499 . S
C482 H462 0.950 . S
C482 C481 1.414 . S
C482 C483 1.374 . S
C483 H463 0.950 . S
C483 C479 1.385 . S
C483 C482 1.374 . S
C484 C481 1.499 . S
C484 C485 1.373 . S
C484 C486 1.389 . S
C485 H464 0.950 . S
C485 C484 1.373 . S
C485 C501 1.377 . S
C486 C484 1.389 . S
C486 C487 1.524 . S
C486 C500 1.377 . S
C487 C486 1.524 . S
C487 C488 1.397 . S
C487 C492 1.363 . S
C488 H465 0.950 . S
C488 C487 1.397 . S
C488 C489 1.334 . S
C489 H466 0.950 . S
C489 C488 1.334 . S
C489 C490 1.287 . S
C490 C489 1.287 . S
C490 C491 1.524 . S
C490 H509 0.913 . S
C491 H467 0.950 . S
C491 C490 1.524 . S
C491 C492 1.415 . S
C492 H468 0.950 . S
C492 C487 1.363 . S
C492 C491 1.415 . S
C493 H469 0.951 . S
C493 C494 1.366 . S
C493 C495 1.388 . S
C494 C493 1.366 . S
C494 C498 1.385 . S
C495 H470 0.951 . S
C495 C493 1.388 . S
C495 C496 1.366 . S
C496 C495 1.366 . S
C496 C497 1.414 . S
C496 C499 1.499 . S
C497 H471 0.950 . S
C497 C496 1.414 . S
C497 C498 1.374 . S
C498 H472 0.950 . S
C498 C494 1.385 . S
C498 C497 1.374 . S
C499 C496 1.499 . S
C499 C500 1.373 . S
C499 C501 1.389 . S
C500 H473 0.950 . S
C500 C486 1.377 . S
C500 C499 1.373 . S
C501 C485 1.377 . S
C501 C499 1.389 . S
C501 C502 1.524 . S
C502 C501 1.524 . S
C502 C503 1.397 . S
C502 C507 1.363 . S
C503 H474 0.950 . S
C503 C502 1.397 . S
C503 C504 1.334 . S
C504 H475 0.950 . S
C504 C503 1.334 . S
C504 C505 1.287 . S
C505 C504 1.287 . S
C505 C506 1.524 . S
C505 H508 0.999 . S
C506 H476 0.950 . S
C506 C505 1.524 . S
C506 C507 1.415 . S
C507 H477 0.950 . S
C507 C502 1.363 . S
C507 C506 1.415 . S
H508 C505 0.999 . S
H509 C490 0.913 . S
H510 C528 0.951 . S
H511 C530 0.951 . S
H512 C532 0.950 . S
H513 C533 0.950 . S
H514 C535 0.950 . S
H515 C538 0.950 . S
H516 C539 0.950 . S
H517 C541 0.950 . S
H518 C542 0.950 . S
H519 C543 0.951 . S
H520 C545 0.951 . S
H521 C547 0.950 . S
H522 C548 0.950 . S
H523 C550 0.950 . S
H524 C553 0.950 . S
H525 C554 0.950 . S
H526 C556 0.950 . S
H527 C557 0.950 . S
C528 H510 0.951 . S
C528 C529 1.366 . S
C528 C530 1.388 . S
C529 C528 1.366 . S
C529 C533 1.385 . S
C530 H511 0.951 . S
C530 C528 1.388 . S
C530 C531 1.366 . S
C531 C530 1.366 . S
C531 C532 1.414 . S
C531 C534 1.499 . S
C532 H512 0.950 . S
C532 C531 1.414 . S
C532 C533 1.374 . S
C533 H513 0.950 . S
C533 C529 1.385 . S
C533 C532 1.374 . S
C534 C531 1.499 . S
C534 C535 1.373 . S
C534 C536 1.389 . S
C535 H514 0.950 . S
C535 C534 1.373 . S
C535 C551 1.377 . S
C536 C534 1.389 . S
C536 C537 1.524 . S
C536 C550 1.377 . S
C537 C536 1.524 . S
C537 C538 1.397 . S
C537 C542 1.363 . S
C538 H515 0.950 . S
C538 C537 1.397 . S
C538 C539 1.334 . S
C539 H516 0.950 . S
C539 C538 1.334 . S
C539 C540 1.287 . S
C540 C539 1.287 . S
C540 C541 1.524 . S
C540 H559 0.913 . S
C541 H517 0.950 . S
C541 C540 1.524 . S
C541 C542 1.415 . S
C542 H518 0.950 . S
C542 C537 1.363 . S
C542 C541 1.415 . S
C543 H519 0.951 . S
C543 C544 1.366 . S
C543 C545 1.388 . S
C544 C543 1.366 . S
C544 C548 1.385 . S
C545 H520 0.951 . S
C545 C543 1.388 . S
C545 C546 1.366 . S
C546 C545 1.366 . S
C546 C547 1.414 . S
C546 C549 1.499 . S
C547 H521 0.950 . S
C547 C546 1.414 . S
C547 C548 1.374 . S
C548 H522 0.950 . S
C548 C544 1.385 . S
C548 C547 1.374 . S
C549 C546 1.499 . S
C549 C550 1.373 . S
C549 C551 1.389 . S
C550 H523 0.950 . S
C550 C536 1.377 . S
C550 C549 1.373 . S
C551 C535 1.377 . S
C551 C549 1.389 . S
C551 C552 1.524 . S
C552 C551 1.524 . S
C552 C553 1.397 . S
C552 C557 1.363 . S
C553 H524 0.950 . S
C553 C552 1.397 . S
C553 C554 1.334 . S
C554 H525 0.950 . S
C554 C553 1.334 . S
C554 C555 1.287 . S
C555 C554 1.287 . S
C555 C556 1.524 . S
C555 H558 0.999 . S
C556 H526 0.950 . S
C556 C555 1.524 . S
C556 C557 1.415 . S
C557 H527 0.950 . S
C557 C552 1.363 . S
C557 C556 1.415 . S
H558 C555 0.999 . S
H559 C540 0.913 . S
H560 C578 0.951 . S
H561 C580 0.951 . S
H562 C582 0.950 . S
H563 C583 0.950 . S
H564 C585 0.950 . S
H565 C588 0.950 . S
H566 C589 0.950 . S
H567 C591 0.950 . S
H568 C592 0.950 . S
H569 C593 0.951 . S
H570 C595 0.951 . S
H571 C597 0.950 . S
H572 C598 0.950 . S
H573 C600 0.950 . S
H574 C603 0.950 . S
H575 C604 0.950 . S
H576 C606 0.950 . S
H577 C607 0.950 . S
C578 H560 0.951 . S
C578 C579 1.366 . S
C578 C580 1.388 . S
C579 C578 1.366 . S
C579 C583 1.385 . S
C580 H561 0.951 . S
C580 C578 1.388 . S
C580 C581 1.366 . S
C581 C580 1.366 . S
C581 C582 1.414 . S
C581 C584 1.499 . S
C582 H562 0.950 . S
C582 C581 1.414 . S
C582 C583 1.374 . S
C583 H563 0.950 . S
C583 C579 1.385 . S
C583 C582 1.374 . S
C584 C581 1.499 . S
C584 C585 1.373 . S
C584 C586 1.389 . S
C585 H564 0.950 . S
C585 C584 1.373 . S
C585 C601 1.377 . S
C586 C584 1.389 . S
C586 C587 1.524 . S
C586 C600 1.377 . S
C587 C586 1.524 . S
C587 C588 1.397 . S
C587 C592 1.363 . S
C588 H565 0.950 . S
C588 C587 1.397 . S
C588 C589 1.334 1_556 S
C589 H566 0.950 . S
C589 C588 1.334 1_554 S
C589 C590 1.287 . S
C590 C589 1.287 . S
C590 C591 1.524 . S
C590 H609 0.913 . S
C591 H567 0.950 . S
C591 C590 1.524 . S
C591 C592 1.415 1_554 S
C592 H568 0.950 . S
C592 C587 1.363 . S
C592 C591 1.415 1_556 S
C593 H569 0.951 . S
C593 C594 1.366 . S
C593 C595 1.388 . S
C594 C593 1.366 . S
C594 C598 1.385 . S
C595 H570 0.951 . S
C595 C593 1.388 . S
C595 C596 1.366 . S
C596 C595 1.366 . S
C596 C597 1.414 . S
C596 C599 1.499 . S
C597 H571 0.950 . S
C597 C596 1.414 . S
C597 C598 1.374 . S
C598 H572 0.950 . S
C598 C594 1.385 . S
C598 C597 1.374 . S
C599 C596 1.499 . S
C599 C600 1.373 . S
C599 C601 1.389 . S
C600 H573 0.950 . S
C600 C586 1.377 . S
C600 C599 1.373 . S
C601 C585 1.377 . S
C601 C599 1.389 . S
C601 C602 1.524 . S
C602 C601 1.524 . S
C602 C603 1.397 . S
C602 C607 1.363 . S
C603 H574 0.950 . S
C603 C602 1.397 . S
C603 C604 1.334 . S
C604 H575 0.950 . S
C604 C603 1.334 . S
C604 C605 1.287 . S
C605 C604 1.287 . S
C605 C606 1.524 . S
C605 H608 0.999 . S
C606 H576 0.950 . S
C606 C605 1.524 . S
C606 C607 1.415 . S
C607 H577 0.950 . S
C607 C602 1.363 . S
C607 C606 1.415 . S
H608 C605 0.999 . S
H609 C590 0.913 . S
H610 C628 0.951 . S
H611 C630 0.951 . S
H612 C632 0.950 . S
H613 C633 0.950 . S
H614 C635 0.950 . S
H615 C638 0.950 . S
H616 C639 0.950 . S
H617 C641 0.950 . S
H618 C642 0.950 . S
H619 C643 0.951 . S
H620 C645 0.951 . S
H621 C647 0.950 . S
H622 C648 0.950 . S
H623 C650 0.950 . S
H624 C653 0.950 . S
H625 C654 0.950 . S
H626 C656 0.950 . S
H627 C657 0.950 . S
C628 H610 0.951 . S
C628 C629 1.366 . S
C628 C630 1.388 . S
C629 C628 1.366 . S
C629 C633 1.385 . S
C630 H611 0.951 . S
C630 C628 1.388 . S
C630 C631 1.366 . S
C631 C630 1.366 . S
C631 C632 1.414 . S
C631 C634 1.499 . S
C632 H612 0.950 . S
C632 C631 1.414 . S
C632 C633 1.374 . S
C633 H613 0.950 . S
C633 C629 1.385 . S
C633 C632 1.374 . S
C634 C631 1.499 . S
C634 C635 1.373 . S
C634 C636 1.389 . S
C635 H614 0.950 . S
C635 C634 1.373 . S
C635 C651 1.377 . S
C636 C634 1.389 . S
C636 C637 1.524 . S
C636 C650 1.377 . S
C637 C636 1.524 . S
C637 C638 1.397 . S
C637 C642 1.363 . S
C638 H615 0.950 . S
C638 C637 1.397 . S
C638 C639 1.334 . S
C639 H616 0.950 . S
C639 C638 1.334 . S
C639 C640 1.287 . S
C640 C639 1.287 . S
C640 C641 1.524 . S
C640 H659 0.913 . S
C641 H617 0.950 . S
C641 C640 1.524 . S
C641 C642 1.415 . S
C642 H618 0.950 . S
C642 C637 1.363 . S
C642 C641 1.415 . S
C643 H619 0.951 . S
C643 C644 1.366 . S
C643 C645 1.388 . S
C644 C643 1.366 . S
C644 C648 1.385 . S
C645 H620 0.951 . S
C645 C643 1.388 . S
C645 C646 1.366 . S
C646 C645 1.366 . S
C646 C647 1.414 . S
C646 C649 1.499 . S
C647 H621 0.950 . S
C647 C646 1.414 . S
C647 C648 1.374 . S
C648 H622 0.950 . S
C648 C644 1.385 . S
C648 C647 1.374 . S
C649 C646 1.499 . S
C649 C650 1.373 . S
C649 C651 1.389 . S
C650 H623 0.950 . S
C650 C636 1.377 . S
C650 C649 1.373 . S
C651 C635 1.377 . S
C651 C649 1.389 . S
C651 C652 1.524 . S
C652 C651 1.524 . S
C652 C653 1.397 . S
C652 C657 1.363 . S
C653 H624 0.950 . S
C653 C652 1.397 . S
C653 C654 1.334 . S
C654 H625 0.950 . S
C654 C653 1.334 . S
C654 C655 1.287 . S
C655 C654 1.287 . S
C655 C656 1.524 . S
C655 H658 0.999 . S
C656 H626 0.950 . S
C656 C655 1.524 . S
C656 C657 1.415 . S
C657 H627 0.950 . S
C657 C652 1.363 . S
C657 C656 1.415 . S
H658 C655 0.999 . S
H659 C640 0.913 . S
H660 C678 0.951 . S
H661 C680 0.951 . S
H662 C682 0.950 . S
H663 C683 0.950 . S
H664 C685 0.950 . S
H665 C688 0.950 . S
H666 C689 0.950 . S
H667 C691 0.950 . S
H668 C692 0.950 . S
H669 C693 0.951 . S
H670 C695 0.951 . S
H671 C697 0.950 . S
H672 C698 0.950 . S
H673 C700 0.950 . S
H674 C703 0.950 . S
H675 C704 0.950 . S
H676 C706 0.950 . S
H677 C707 0.950 . S
C678 H660 0.951 . S
C678 C679 1.366 . S
C678 C680 1.388 . S
C679 C678 1.366 . S
C679 C683 1.385 . S
C680 H661 0.951 . S
C680 C678 1.388 . S
C680 C681 1.366 . S
C681 C680 1.366 . S
C681 C682 1.414 . S
C681 C684 1.499 . S
C682 H662 0.950 . S
C682 C681 1.414 . S
C682 C683 1.374 . S
C683 H663 0.950 . S
C683 C679 1.385 . S
C683 C682 1.374 . S
C684 C681 1.499 . S
C684 C685 1.373 . S
C684 C686 1.389 . S
C685 H664 0.950 . S
C685 C684 1.373 . S
C685 C701 1.377 . S
C686 C684 1.389 . S
C686 C687 1.524 . S
C686 C700 1.377 . S
C687 C686 1.524 . S
C687 C688 1.397 . S
C687 C692 1.363 . S
C688 H665 0.950 . S
C688 C687 1.397 . S
C688 C689 1.334 . S
C689 H666 0.950 . S
C689 C688 1.334 . S
C689 C690 1.287 . S
C690 C689 1.287 . S
C690 C691 1.524 . S
C690 H709 0.913 . S
C691 H667 0.950 . S
C691 C690 1.524 . S
C691 C692 1.415 . S
C692 H668 0.950 . S
C692 C687 1.363 . S
C692 C691 1.415 . S
C693 H669 0.951 . S
C693 C694 1.366 . S
C693 C695 1.388 . S
C694 C693 1.366 . S
C694 C698 1.385 . S
C695 H670 0.951 . S
C695 C693 1.388 . S
C695 C696 1.366 . S
C696 C695 1.366 . S
C696 C697 1.414 . S
C696 C699 1.499 . S
C697 H671 0.950 . S
C697 C696 1.414 . S
C697 C698 1.374 . S
C698 H672 0.950 . S
C698 C694 1.385 . S
C698 C697 1.374 . S
C699 C696 1.499 . S
C699 C700 1.373 . S
C699 C701 1.389 . S
C700 H673 0.950 . S
C700 C686 1.377 . S
C700 C699 1.373 . S
C701 C685 1.377 . S
C701 C699 1.389 . S
C701 C702 1.524 . S
C702 C701 1.524 . S
C702 C703 1.397 . S
C702 C707 1.363 . S
C703 H674 0.950 . S
C703 C702 1.397 . S
C703 C704 1.334 . S
C704 H675 0.950 . S
C704 C703 1.334 . S
C704 C705 1.287 . S
C705 C704 1.287 . S
C705 C706 1.524 . S
C705 H708 0.999 . S
C706 H676 0.950 . S
C706 C705 1.524 . S
C706 C707 1.415 . S
C707 H677 0.950 . S
C707 C702 1.363 . S
C707 C706 1.415 . S
H708 C705 0.999 . S
H709 C690 0.913 . S
H710 C728 0.951 . S
H711 C730 0.951 . S
H712 C732 0.950 . S
H713 C733 0.950 . S
H714 C735 0.950 . S
H715 C738 0.950 . S
H716 C739 0.950 . S
H717 C741 0.950 . S
H718 C742 0.950 . S
H719 C743 0.951 . S
H720 C745 0.951 . S
H721 C747 0.950 . S
H722 C748 0.950 . S
H723 C750 0.950 . S
H724 C753 0.950 . S
H725 C754 0.950 . S
H726 C756 0.950 . S
H727 C757 0.950 . S
C728 H710 0.951 . S
C728 C729 1.366 . S
C728 C730 1.388 . S
C729 C728 1.366 . S
C729 C733 1.385 . S
C730 H711 0.951 . S
C730 C728 1.388 . S
C730 C731 1.366 . S
C731 C730 1.366 . S
C731 C732 1.414 . S
C731 C734 1.499 . S
C732 H712 0.950 . S
C732 C731 1.414 . S
C732 C733 1.374 . S
C733 H713 0.950 . S
C733 C729 1.385 . S
C733 C732 1.374 . S
C734 C731 1.499 . S
C734 C735 1.373 . S
C734 C736 1.389 . S
C735 H714 0.950 . S
C735 C734 1.373 . S
C735 C751 1.377 . S
C736 C734 1.389 . S
C736 C737 1.524 . S
C736 C750 1.377 . S
C737 C736 1.524 . S
C737 C738 1.397 . S
C737 C742 1.363 . S
C738 H715 0.950 . S
C738 C737 1.397 . S
C738 C739 1.334 . S
C739 H716 0.950 . S
C739 C738 1.334 . S
C739 C740 1.287 . S
C740 C739 1.287 . S
C740 C741 1.524 . S
C740 H759 0.913 . S
C741 H717 0.950 . S
C741 C740 1.524 . S
C741 C742 1.415 . S
C742 H718 0.950 . S
C742 C737 1.363 . S
C742 C741 1.415 . S
C743 H719 0.951 . S
C743 C744 1.366 . S
C743 C745 1.388 . S
C744 C743 1.366 . S
C744 C748 1.385 . S
C745 H720 0.951 . S
C745 C743 1.388 . S
C745 C746 1.366 . S
C746 C745 1.366 . S
C746 C747 1.414 . S
C746 C749 1.499 . S
C747 H721 0.950 . S
C747 C746 1.414 . S
C747 C748 1.374 . S
C748 H722 0.950 . S
C748 C744 1.385 . S
C748 C747 1.374 . S
C749 C746 1.499 . S
C749 C750 1.373 . S
C749 C751 1.389 . S
C750 H723 0.950 . S
C750 C736 1.377 . S
C750 C749 1.373 . S
C751 C735 1.377 . S
C751 C749 1.389 . S
C751 C752 1.524 . S
C752 C751 1.524 . S
C752 C753 1.397 . S
C752 C757 1.363 . S
C753 H724 0.950 . S
C753 C752 1.397 . S
C753 C754 1.334 . S
C754 H725 0.950 . S
C754 C753 1.334 . S
C754 C755 1.287 . S
C755 C754 1.287 . S
C755 C756 1.524 . S
C755 H758 0.999 . S
C756 H726 0.950 . S
C756 C755 1.524 . S
C756 C757 1.415 . S
C757 H727 0.950 . S
C757 C752 1.363 . S
C757 C756 1.415 . S
H758 C755 0.999 . S
H759 C740 0.913 . S
H760 C778 0.951 . S
H761 C780 0.951 . S
H762 C782 0.950 . S
H763 C783 0.950 . S
H764 C785 0.950 . S
H765 C788 0.950 . S
H766 C789 0.950 . S
H767 C791 0.950 . S
H768 C792 0.950 . S
H769 C793 0.951 . S
H770 C795 0.951 . S
H771 C797 0.950 . S
H772 C798 0.950 . S
H773 C800 0.950 . S
H774 C803 0.950 . S
H775 C804 0.950 . S
H776 C806 0.950 . S
H777 C807 0.950 . S
C778 H760 0.951 . S
C778 C779 1.366 . S
C778 C780 1.388 . S
C779 C778 1.366 . S
C779 C783 1.385 . S
C780 H761 0.951 . S
C780 C778 1.388 . S
C780 C781 1.366 . S
C781 C780 1.366 . S
C781 C782 1.414 . S
C781 C784 1.499 . S
C782 H762 0.950 . S
C782 C781 1.414 . S
C782 C783 1.374 . S
C783 H763 0.950 . S
C783 C779 1.385 . S
C783 C782 1.374 . S
C784 C781 1.499 . S
C784 C785 1.373 . S
C784 C786 1.389 . S
C785 H764 0.950 . S
C785 C784 1.373 . S
C785 C801 1.377 . S
C786 C784 1.389 . S
C786 C787 1.524 . S
C786 C800 1.377 . S
C787 C786 1.524 . S
C787 C788 1.397 . S
C787 C792 1.363 . S
C788 H765 0.950 . S
C788 C787 1.397 . S
C788 C789 1.334 . S
C789 H766 0.950 . S
C789 C788 1.334 . S
C789 C790 1.287 . S
C790 C789 1.287 . S
C790 C791 1.524 . S
C790 H809 0.913 . S
C791 H767 0.950 . S
C791 C790 1.524 . S
C791 C792 1.415 . S
C792 H768 0.950 . S
C792 C787 1.363 . S
C792 C791 1.415 . S
C793 H769 0.951 . S
C793 C794 1.366 . S
C793 C795 1.388 . S
C794 C793 1.366 . S
C794 C798 1.385 . S
C795 H770 0.951 . S
C795 C793 1.388 . S
C795 C796 1.366 . S
C796 C795 1.366 . S
C796 C797 1.414 . S
C796 C799 1.499 . S
C797 H771 0.950 . S
C797 C796 1.414 . S
C797 C798 1.374 . S
C798 H772 0.950 . S
C798 C794 1.385 . S
C798 C797 1.374 . S
C799 C796 1.499 . S
C799 C800 1.373 . S
C799 C801 1.389 . S
C800 H773 0.950 . S
C800 C786 1.377 . S
C800 C799 1.373 . S
C801 C785 1.377 . S
C801 C799 1.389 . S
C801 C802 1.524 . S
C802 C801 1.524 . S
C802 C803 1.397 . S
C802 C807 1.363 . S
C803 H774 0.950 . S
C803 C802 1.397 . S
C803 C804 1.334 . S
C804 H775 0.950 . S
C804 C803 1.334 . S
C804 C805 1.287 . S
C805 C804 1.287 . S
C805 C806 1.524 . S
C805 H808 0.999 . S
C806 H776 0.950 . S
C806 C805 1.524 . S
C806 C807 1.415 . S
C807 H777 0.950 . S
C807 C802 1.363 . S
C807 C806 1.415 . S
H808 C805 0.999 . S
H809 C790 0.913 . S
H810 C828 0.951 . S
H811 C830 0.951 . S
H812 C832 0.950 . S
H813 C833 0.950 1_556 S
H814 C835 0.950 . S
H815 C838 0.950 . S
H816 C839 0.950 . S
H817 C841 0.950 . S
H818 C842 0.950 . S
H819 C843 0.951 . S
H820 C845 0.951 . S
H821 C847 0.950 . S
H822 C848 0.950 . S
H823 C850 0.950 . S
H824 C853 0.950 . S
H825 C854 0.950 . S
H826 C856 0.950 . S
H827 C857 0.950 1_556 S
C828 H810 0.951 . S
C828 C829 1.366 . S
C828 C830 1.388 . S
C829 C828 1.366 . S
C829 C833 1.385 . S
C830 H811 0.951 . S
C830 C828 1.388 . S
C830 C831 1.366 . S
C831 C830 1.366 . S
C831 C832 1.414 . S
C831 C834 1.499 . S
C832 H812 0.950 . S
C832 C831 1.414 . S
C832 C833 1.374 . S
C833 H813 0.950 1_554 S
C833 C829 1.385 . S
C833 C832 1.374 . S
C834 C831 1.499 . S
C834 C835 1.373 . S
C834 C836 1.389 . S
C835 H814 0.950 . S
C835 C834 1.373 . S
C835 C851 1.377 . S
C836 C834 1.389 . S
C836 C837 1.524 . S
C836 C850 1.377 . S
C837 C836 1.524 . S
C837 C838 1.397 . S
C837 C842 1.363 . S
C838 H815 0.950 . S
C838 C837 1.397 . S
C838 C839 1.334 . S
C839 H816 0.950 . S
C839 C838 1.334 . S
C839 C840 1.287 . S
C840 C839 1.287 . S
C840 C841 1.524 . S
C840 H859 0.913 . S
C841 H817 0.950 . S
C841 C840 1.524 . S
C841 C842 1.415 . S
C842 H818 0.950 . S
C842 C837 1.363 . S
C842 C841 1.415 . S
C843 H819 0.951 . S
C843 C844 1.366 . S
C843 C845 1.388 . S
C844 C843 1.366 . S
C844 C848 1.385 . S
C845 H820 0.951 . S
C845 C843 1.388 . S
C845 C846 1.366 . S
C846 C845 1.366 . S
C846 C847 1.414 . S
C846 C849 1.499 . S
C847 H821 0.950 . S
C847 C846 1.414 . S
C847 C848 1.374 . S
C848 H822 0.950 . S
C848 C844 1.385 . S
C848 C847 1.374 . S
C849 C846 1.499 . S
C849 C850 1.373 . S
C849 C851 1.389 . S
C850 H823 0.950 . S
C850 C836 1.377 . S
C850 C849 1.373 . S
C851 C835 1.377 . S
C851 C849 1.389 . S
C851 C852 1.524 . S
C852 C851 1.524 . S
C852 C853 1.397 . S
C852 C857 1.363 . S
C853 H824 0.950 . S
C853 C852 1.397 . S
C853 C854 1.334 . S
C854 H825 0.950 . S
C854 C853 1.334 . S
C854 C855 1.287 . S
C855 C854 1.287 . S
C855 C856 1.524 1_554 S
C855 H858 0.999 1_554 S
C856 H826 0.950 . S
C856 C855 1.524 1_556 S
C856 C857 1.415 1_556 S
C857 H827 0.950 1_554 S
C857 C852 1.363 . S
C857 C856 1.415 1_554 S
H858 C855 0.999 1_556 S
H859 C840 0.913 . S
H860 C878 0.951 . S
H861 C880 0.951 . S
H862 C882 0.950 . S
H863 C883 0.950 . S
H864 C885 0.950 . S
H865 C888 0.950 . S
H866 C889 0.950 . S
H867 C891 0.950 . S
H868 C892 0.950 . S
H869 C893 0.951 . S
H870 C895 0.951 . S
H871 C897 0.950 . S
H872 C898 0.950 . S
H873 C900 0.950 . S
H874 C903 0.950 . S
H875 C904 0.950 . S
H876 C906 0.950 . S
H877 C907 0.950 . S
C878 H860 0.951 . S
C878 C879 1.366 . S
C878 C880 1.388 . S
C879 C878 1.366 . S
C879 C883 1.385 . S
C880 H861 0.951 . S
C880 C878 1.388 . S
C880 C881 1.366 . S
C881 C880 1.366 . S
C881 C882 1.414 . S
C881 C884 1.499 . S
C882 H862 0.950 . S
C882 C881 1.414 . S
C882 C883 1.374 . S
C883 H863 0.950 . S
C883 C879 1.385 . S
C883 C882 1.374 . S
C884 C881 1.499 . S
C884 C885 1.373 . S
C884 C886 1.389 . S
C885 H864 0.950 . S
C885 C884 1.373 . S
C885 C901 1.377 . S
C886 C884 1.389 . S
C886 C887 1.524 . S
C886 C900 1.377 . S
C887 C886 1.524 . S
C887 C888 1.397 . S
C887 C892 1.363 . S
C888 H865 0.950 . S
C888 C887 1.397 . S
C888 C889 1.334 . S
C889 H866 0.950 . S
C889 C888 1.334 . S
C889 C890 1.287 . S
C890 C889 1.287 . S
C890 C891 1.524 . S
C890 H909 0.913 . S
C891 H867 0.950 . S
C891 C890 1.524 . S
C891 C892 1.415 . S
C892 H868 0.950 . S
C892 C887 1.363 . S
C892 C891 1.415 . S
C893 H869 0.951 . S
C893 C894 1.366 . S
C893 C895 1.388 . S
C894 C893 1.366 . S
C894 C898 1.385 . S
C895 H870 0.951 . S
C895 C893 1.388 . S
C895 C896 1.366 . S
C896 C895 1.366 . S
C896 C897 1.414 . S
C896 C899 1.499 . S
C897 H871 0.950 . S
C897 C896 1.414 . S
C897 C898 1.374 . S
C898 H872 0.950 . S
C898 C894 1.385 . S
C898 C897 1.374 . S
C899 C896 1.499 . S
C899 C900 1.373 . S
C899 C901 1.389 . S
C900 H873 0.950 . S
C900 C886 1.377 . S
C900 C899 1.373 . S
C901 C885 1.377 . S
C901 C899 1.389 . S
C901 C902 1.524 . S
C902 C901 1.524 . S
C902 C903 1.397 . S
C902 C907 1.363 . S
C903 H874 0.950 . S
C903 C902 1.397 . S
C903 C904 1.334 . S
C904 H875 0.950 . S
C904 C903 1.334 . S
C904 C905 1.287 . S
C905 C904 1.287 . S
C905 C906 1.524 . S
C905 H908 0.999 . S
C906 H876 0.950 . S
C906 C905 1.524 . S
C906 C907 1.415 . S
C907 H877 0.950 . S
C907 C902 1.363 . S
C907 C906 1.415 . S
H908 C905 0.999 . S
H909 C890 0.913 . S
H910 C928 0.951 . S
H911 C930 0.951 . S
H912 C932 0.950 . S
H913 C933 0.950 . S
H914 C935 0.950 . S
H915 C938 0.950 . S
H916 C939 0.950 . S
H917 C941 0.950 . S
H918 C942 0.950 . S
H919 C943 0.951 . S
H920 C945 0.951 . S
H921 C947 0.950 . S
H922 C948 0.950 . S
H923 C950 0.950 . S
H924 C953 0.950 . S
H925 C954 0.950 . S
H926 C956 0.950 . S
H927 C957 0.950 . S
C928 H910 0.951 . S
C928 C929 1.366 . S
C928 C930 1.388 . S
C929 C928 1.366 . S
C929 C933 1.385 . S
C930 H911 0.951 . S
C930 C928 1.388 . S
C930 C931 1.366 . S
C931 C930 1.366 . S
C931 C932 1.414 . S
C931 C934 1.499 . S
C932 H912 0.950 . S
C932 C931 1.414 . S
C932 C933 1.374 . S
C933 H913 0.950 . S
C933 C929 1.385 . S
C933 C932 1.374 . S
C934 C931 1.499 . S
C934 C935 1.373 . S
C934 C936 1.389 . S
C935 H914 0.950 . S
C935 C934 1.373 . S
C935 C951 1.377 . S
C936 C934 1.389 . S
C936 C937 1.524 . S
C936 C950 1.377 . S
C937 C936 1.524 . S
C937 C938 1.397 . S
C937 C942 1.363 . S
C938 H915 0.950 . S
C938 C937 1.397 . S
C938 C939 1.334 . S
C939 H916 0.950 . S
C939 C938 1.334 . S
C939 C940 1.287 . S
C940 C939 1.287 . S
C940 C941 1.524 . S
C940 H959 0.913 . S
C941 H917 0.950 . S
C941 C940 1.524 . S
C941 C942 1.415 . S
C942 H918 0.950 . S
C942 C937 1.363 . S
C942 C941 1.415 . S
C943 H919 0.951 . S
C943 C944 1.366 . S
C943 C945 1.388 . S
C944 C943 1.366 . S
C944 C948 1.385 . S
C945 H920 0.951 . S
C945 C943 1.388 . S
C945 C946 1.366 . S
C946 C945 1.366 . S
C946 C947 1.414 . S
C946 C949 1.499 . S
C947 H921 0.950 . S
C947 C946 1.414 . S
C947 C948 1.374 . S
C948 H922 0.950 . S
C948 C944 1.385 . S
C948 C947 1.374 . S
C949 C946 1.499 . S
C949 C950 1.373 . S
C949 C951 1.389 . S
C950 H923 0.950 . S
C950 C936 1.377 . S
C950 C949 1.373 . S
C951 C935 1.377 . S
C951 C949 1.389 . S
C951 C952 1.524 . S
C952 C951 1.524 . S
C952 C953 1.397 . S
C952 C957 1.363 . S
C953 H924 0.950 . S
C953 C952 1.397 . S
C953 C954 1.334 . S
C954 H925 0.950 . S
C954 C953 1.334 . S
C954 C955 1.287 . S
C955 C954 1.287 . S
C955 C956 1.524 . S
C955 H958 0.999 . S
C956 H926 0.950 . S
C956 C955 1.524 . S
C956 C957 1.415 . S
C957 H927 0.950 . S
C957 C952 1.363 . S
C957 C956 1.415 . S
H958 C955 0.999 . S
H959 C940 0.913 . S
H960 C978 0.951 . S
H961 C980 0.951 . S
H962 C982 0.950 . S
H963 C983 0.950 . S
H964 C985 0.950 . S
H965 C988 0.950 . S
H966 C989 0.950 . S
H967 C991 0.950 . S
H968 C992 0.950 . S
H969 C993 0.951 . S
H970 C995 0.951 . S
H971 C997 0.950 . S
H972 C998 0.950 . S
H973 C1000 0.950 . S
H974 C1003 0.950 . S
H975 C1004 0.950 . S
H976 C1006 0.950 . S
H977 C1007 0.950 . S
C978 H960 0.951 . S
C978 C979 1.366 . S
C978 C980 1.388 . S
C979 C978 1.366 . S
C979 C983 1.385 . S
C980 H961 0.951 . S
C980 C978 1.388 . S
C980 C981 1.366 . S
C981 C980 1.366 . S
C981 C982 1.414 . S
C981 C984 1.499 . S
C982 H962 0.950 . S
C982 C981 1.414 . S
C982 C983 1.374 . S
C983 H963 0.950 . S
C983 C979 1.385 . S
C983 C982 1.374 . S
C984 C981 1.499 . S
C984 C985 1.373 . S
C984 C986 1.389 . S
C985 H964 0.950 . S
C985 C984 1.373 . S
C985 C1001 1.377 . S
C986 C984 1.389 . S
C986 C987 1.524 . S
C986 C1000 1.377 . S
C987 C986 1.524 . S
C987 C988 1.397 . S
C987 C992 1.363 . S
C988 H965 0.950 . S
C988 C987 1.397 . S
C988 C989 1.334 . S
C989 H966 0.950 . S
C989 C988 1.334 . S
C989 C990 1.287 . S
C990 C989 1.287 . S
C990 C991 1.524 . S
C990 H1009 0.913 . S
C991 H967 0.950 . S
C991 C990 1.524 . S
C991 C992 1.415 . S
C992 H968 0.950 . S
C992 C987 1.363 . S
C992 C991 1.415 . S
C993 H969 0.951 . S
C993 C994 1.366 . S
C993 C995 1.388 . S
C994 C993 1.366 . S
C994 C998 1.385 . S
C995 H970 0.951 . S
C995 C993 1.388 . S
C995 C996 1.366 . S
C996 C995 1.366 . S
C996 C997 1.414 . S
C996 C999 1.499 . S
C997 H971 0.950 . S
C997 C996 1.414 . S
C997 C998 1.374 . S
C998 H972 0.950 . S
C998 C994 1.385 . S
C998 C997 1.374 . S
C999 C996 1.499 . S
C999 C1000 1.373 . S
C999 C1001 1.389 . S
C1000 H973 0.950 . S
C1000 C986 1.377 . S
C1000 C999 1.373 . S
C1001 C985 1.377 . S
C1001 C999 1.389 . S
C1001 C1002 1.524 . S
C1002 C1001 1.524 . S
C1002 C1003 1.397 . S
C1002 C1007 1.363 . S
C1003 H974 0.950 . S
C1003 C1002 1.397 . S
C1003 C1004 1.334 . S
C1004 H975 0.950 . S
C1004 C1003 1.334 . S
C1004 C1005 1.287 . S
C1005 C1004 1.287 . S
C1005 C1006 1.524 . S
C1005 H1008 0.999 . S
C1006 H976 0.950 . S
C1006 C1005 1.524 . S
C1006 C1007 1.415 . S
C1007 H977 0.950 . S
C1007 C1002 1.363 . S
C1007 C1006 1.415 . S
H1008 C1005 0.999 . S
H1009 C990 0.913 . S
H1010 C1028 0.951 . S
H1011 C1030 0.951 . S
H1012 C1032 0.950 . S
H1013 C1033 0.950 . S
H1014 C1035 0.950 . S
H1015 C1038 0.950 . S
H1016 C1039 0.950 . S
H1017 C1041 0.950 . S
H1018 C1042 0.950 . S
H1019 C1043 0.951 . S
H1020 C1045 0.951 . S
H1021 C1047 0.950 . S
H1022 C1048 0.950 . S
H1023 C1050 0.950 . S
H1024 C1053 0.950 . S
H1025 C1054 0.950 . S
H1026 C1056 0.950 . S
H1027 C1057 0.950 . S
C1028 H1010 0.951 . S
C1028 C1029 1.366 . S
C1028 C1030 1.388 . S
C1029 C1028 1.366 . S
C1029 C1033 1.385 . S
C1030 H1011 0.951 . S
C1030 C1028 1.388 . S
C1030 C1031 1.366 . S
C1031 C1030 1.366 . S
C1031 C1032 1.414 . S
C1031 C1034 1.499 . S
C1032 H1012 0.950 . S
C1032 C1031 1.414 . S
C1032 C1033 1.374 . S
C1033 H1013 0.950 . S
C1033 C1029 1.385 . S
C1033 C1032 1.374 . S
C1034 C1031 1.499 . S
C1034 C1035 1.373 . S
C1034 C1036 1.389 . S
C1035 H1014 0.950 . S
C1035 C1034 1.373 . S
C1035 C1051 1.377 . S
C1036 C1034 1.389 . S
C1036 C1037 1.524 . S
C1036 C1050 1.377 . S
C1037 C1036 1.524 . S
C1037 C1038 1.397 . S
C1037 C1042 1.363 . S
C1038 H1015 0.950 . S
C1038 C1037 1.397 . S
C1038 C1039 1.334 . S
C1039 H1016 0.950 . S
C1039 C1038 1.334 . S
C1039 C1040 1.287 . S
C1040 C1039 1.287 . S
C1040 C1041 1.524 . S
C1040 H1059 0.913 . S
C1041 H1017 0.950 . S
C1041 C1040 1.524 . S
C1041 C1042 1.415 . S
C1042 H1018 0.950 . S
C1042 C1037 1.363 . S
C1042 C1041 1.415 . S
C1043 H1019 0.951 . S
C1043 C1044 1.366 . S
C1043 C1045 1.388 . S
C1044 C1043 1.366 . S
C1044 C1048 1.385 . S
C1045 H1020 0.951 . S
C1045 C1043 1.388 . S
C1045 C1046 1.366 . S
C1046 C1045 1.366 . S
C1046 C1047 1.414 . S
C1046 C1049 1.499 . S
C1047 H1021 0.950 . S
C1047 C1046 1.414 . S
C1047 C1048 1.374 . S
C1048 H1022 0.950 . S
C1048 C1044 1.385 . S
C1048 C1047 1.374 . S
C1049 C1046 1.499 . S
C1049 C1050 1.373 . S
C1049 C1051 1.389 . S
C1050 H1023 0.950 . S
C1050 C1036 1.377 . S
C1050 C1049 1.373 . S
C1051 C1035 1.377 . S
C1051 C1049 1.389 . S
C1051 C1052 1.524 . S
C1052 C1051 1.524 . S
C1052 C1053 1.397 . S
C1052 C1057 1.363 . S
C1053 H1024 0.950 . S
C1053 C1052 1.397 . S
C1053 C1054 1.334 . S
C1054 H1025 0.950 . S
C1054 C1053 1.334 . S
C1054 C1055 1.287 . S
C1055 C1054 1.287 . S
C1055 C1056 1.524 . S
C1055 H1058 0.999 . S
C1056 H1026 0.950 . S
C1056 C1055 1.524 . S
C1056 C1057 1.415 . S
C1057 H1027 0.950 . S
C1057 C1052 1.363 . S
C1057 C1056 1.415 . S
H1058 C1055 0.999 . S
H1059 C1040 0.913 . S
H1060 C1078 0.951 . S
H1061 C1080 0.951 . S
H1062 C1082 0.950 . S
H1063 C1083 0.950 . S
H1064 C1085 0.950 . S
H1065 C1088 0.950 . S
H1066 C1089 0.950 . S
H1067 C1091 0.950 . S
H1068 C1092 0.950 . S
H1069 C1093 0.951 . S
H1070 C1095 0.951 . S
H1071 C1097 0.950 . S
H1072 C1098 0.950 . S
H1073 C1100 0.950 . S
H1074 C1103 0.950 . S
H1075 C1104 0.950 . S
H1076 C1106 0.950 . S
H1077 C1107 0.950 . S
C1078 H1060 0.951 . S
C1078 C1079 1.366 . S
C1078 C1080 1.388 . S
C1079 C1078 1.366 . S
C1079 C1083 1.385 . S
C1080 H1061 0.951 . S
C1080 C1078 1.388 . S
C1080 C1081 1.366 . S
C1081 C1080 1.366 . S
C1081 C1082 1.414 . S
C1081 C1084 1.499 . S
C1082 H1062 0.950 . S
C1082 C1081 1.414 . S
C1082 C1083 1.374 . S
C1083 H1063 0.950 . S
C1083 C1079 1.385 . S
C1083 C1082 1.374 . S
C1084 C1081 1.499 . S
C1084 C1085 1.373 . S
C1084 C1086 1.389 . S
C1085 H1064 0.950 . S
C1085 C1084 1.373 . S
C1085 C1101 1.377 . S
C1086 C1084 1.389 . S
C1086 C1087 1.524 . S
C1086 C1100 1.377 . S
C1087 C1086 1.524 . S
C1087 C1088 1.397 . S
C1087 C1092 1.363 . S
C1088 H1065 0.950 . S
C1088 C1087 1.397 . S
C1088 C1089 1.334 . S
C1089 H1066 0.950 . S
C1089 C1088 1.334 . S
C1089 C1090 1.287 . S
C1090 C1089 1.287 . S
C1090 C1091 1.524 . S
C1090 H1109 0.913 . S
C1091 H1067 0.950 . S
C1091 C1090 1.524 . S
C1091 C1092 1.415 . S
C1092 H1068 0.950 . S
C1092 C1087 1.363 . S
C1092 C1091 1.415 . S
C1093 H1069 0.951 . S
C1093 C1094 1.366 . S
C1093 C1095 1.388 . S
C1094 C1093 1.366 . S
C1094 C1098 1.385 . S
C1095 H1070 0.951 . S
C1095 C1093 1.388 . S
C1095 C1096 1.366 . S
C1096 C1095 1.366 . S
C1096 C1097 1.414 . S
C1096 C1099 1.499 . S
C1097 H1071 0.950 . S
C1097 C1096 1.414 . S
C1097 C1098 1.374 . S
C1098 H1072 0.950 . S
C1098 C1094 1.385 . S
C1098 C1097 1.374 . S
C1099 C1096 1.499 . S
C1099 C1100 1.373 . S
C1099 C1101 1.389 . S
C1100 H1073 0.950 . S
C1100 C1086 1.377 . S
C1100 C1099 1.373 . S
C1101 C1085 1.377 . S
C1101 C1099 1.389 . S
C1101 C1102 1.524 . S
C1102 C1101 1.524 . S
C1102 C1103 1.397 . S
C1102 C1107 1.363 . S
C1103 H1074 0.950 . S
C1103 C1102 1.397 . S
C1103 C1104 1.334 . S
C1104 H1075 0.950 . S
C1104 C1103 1.334 . S
C1104 C1105 1.287 . S
C1105 C1104 1.287 . S
C1105 C1106 1.524 . S
C1105 H1108 0.999 . S
C1106 H1076 0.950 . S
C1106 C1105 1.524 . S
C1106 C1107 1.415 . S
C1107 H1077 0.950 . S
C1107 C1102 1.363 . S
C1107 C1106 1.415 . S
H1108 C1105 0.999 . S
H1109 C1090 0.913 . S
H1110 C1128 0.951 . S
H1111 C1130 0.951 . S
H1112 C1132 0.950 . S
H1113 C1133 0.950 . S
H1114 C1135 0.950 . S
H1115 C1138 0.950 . S
H1116 C1139 0.950 . S
H1117 C1141 0.950 1_554 S
H1118 C1142 0.950 . S
H1119 C1143 0.951 . S
H1120 C1145 0.951 . S
H1121 C1147 0.950 . S
H1122 C1148 0.950 . S
H1123 C1150 0.950 . S
H1124 C1153 0.950 . S
H1125 C1154 0.950 . S
H1126 C1156 0.950 . S
H1127 C1157 0.950 . S
C1128 H1110 0.951 . S
C1128 C1129 1.366 . S
C1128 C1130 1.388 . S
C1129 C1128 1.366 . S
C1129 C1133 1.385 . S
C1130 H1111 0.951 . S
C1130 C1128 1.388 . S
C1130 C1131 1.366 . S
C1131 C1130 1.366 . S
C1131 C1132 1.414 . S
C1131 C1134 1.499 . S
C1132 H1112 0.950 . S
C1132 C1131 1.414 . S
C1132 C1133 1.374 . S
C1133 H1113 0.950 . S
C1133 C1129 1.385 . S
C1133 C1132 1.374 . S
C1134 C1131 1.499 . S
C1134 C1135 1.373 . S
C1134 C1136 1.389 . S
C1135 H1114 0.950 . S
C1135 C1134 1.373 . S
C1135 C1151 1.377 . S
C1136 C1134 1.389 . S
C1136 C1137 1.524 . S
C1136 C1150 1.377 . S
C1137 C1136 1.524 . S
C1137 C1138 1.397 . S
C1137 C1142 1.363 . S
C1138 H1115 0.950 . S
C1138 C1137 1.397 . S
C1138 C1139 1.334 . S
C1139 H1116 0.950 . S
C1139 C1138 1.334 . S
C1139 C1140 1.287 . S
C1140 C1139 1.287 . S
C1140 C1141 1.524 . S
C1140 H1159 0.913 . S
C1141 H1117 0.950 1_556 S
C1141 C1140 1.524 . S
C1141 C1142 1.415 . S
C1142 H1118 0.950 . S
C1142 C1137 1.363 . S
C1142 C1141 1.415 . S
C1143 H1119 0.951 . S
C1143 C1144 1.366 . S
C1143 C1145 1.388 1_554 S
C1144 C1143 1.366 . S
C1144 C1148 1.385 . S
C1145 H1120 0.951 . S
C1145 C1143 1.388 1_556 S
C1145 C1146 1.366 . S
C1146 C1145 1.366 . S
C1146 C1147 1.414 1_556 S
C1146 C1149 1.499 . S
C1147 H1121 0.950 . S
C1147 C1146 1.414 1_554 S
C1147 C1148 1.374 . S
C1148 H1122 0.950 . S
C1148 C1144 1.385 . S
C1148 C1147 1.374 . S
C1149 C1146 1.499 . S
C1149 C1150 1.373 . S
C1149 C1151 1.389 . S
C1150 H1123 0.950 . S
C1150 C1136 1.377 . S
C1150 C1149 1.373 . S
C1151 C1135 1.377 . S
C1151 C1149 1.389 . S
C1151 C1152 1.524 . S
C1152 C1151 1.524 . S
C1152 C1153 1.397 . S
C1152 C1157 1.363 . S
C1153 H1124 0.950 . S
C1153 C1152 1.397 . S
C1153 C1154 1.334 . S
C1154 H1125 0.950 . S
C1154 C1153 1.334 . S
C1154 C1155 1.287 . S
C1155 C1154 1.287 . S
C1155 C1156 1.524 . S
C1155 H1158 0.999 . S
C1156 H1126 0.950 . S
C1156 C1155 1.524 . S
C1156 C1157 1.415 . S
C1157 H1127 0.950 . S
C1157 C1152 1.363 . S
C1157 C1156 1.415 . S
H1158 C1155 0.999 . S
H1159 C1140 0.913 . S
H1160 C1178 0.951 . S
H1161 C1180 0.951 . S
H1162 C1182 0.950 . S
H1163 C1183 0.950 . S
H1164 C1185 0.950 . S
H1165 C1188 0.950 . S
H1166 C1189 0.950 . S
H1167 C1191 0.950 . S
H1168 C1192 0.950 . S
H1169 C1193 0.951 . S
H1170 C1195 0.951 . S
H1171 C1197 0.950 . S
H1172 C1198 0.950 . S
H1173 C1200 0.950 . S
H1174 C1203 0.950 . S
H1175 C1204 0.950 . S
H1176 C1206 0.950 . S
H1177 C1207 0.950 . S
C1178 H1160 0.951 . S
C1178 C1179 1.366 . S
C1178 C1180 1.388 . S
C1179 C1178 1.366 . S
C1179 C1183 1.385 . S
C1180 H1161 0.951 . S
C1180 C1178 1.388 . S
C1180 C1181 1.366 . S
C1181 C1180 1.366 . S
C1181 C1182 1.414 . S
C1181 C1184 1.499 . S
C1182 H1162 0.950 . S
C1182 C1181 1.414 . S
C1182 C1183 1.374 . S
C1183 H1163 0.950 . S
C1183 C1179 1.385 . S
C1183 C1182 1.374 . S
C1184 C1181 1.499 . S
C1184 C1185 1.373 . S
C1184 C1186 1.389 . S
C1185 H1164 0.950 . S
C1185 C1184 1.373 . S
C1185 C1201 1.377 . S
C1186 C1184 1.389 . S
C1186 C1187 1.524 . S
C1186 C1200 1.377 . S
C1187 C1186 1.524 . S
C1187 C1188 1.397 . S
C1187 C1192 1.363 . S
C1188 H1165 0.950 . S
C1188 C1187 1.397 . S
C1188 C1189 1.334 . S
C1189 H1166 0.950 . S
C1189 C1188 1.334 . S
C1189 C1190 1.287 . S
C1190 C1189 1.287 . S
C1190 C1191 1.524 . S
C1190 H1209 0.913 . S
C1191 H1167 0.950 . S
C1191 C1190 1.524 . S
C1191 C1192 1.415 . S
C1192 H1168 0.950 . S
C1192 C1187 1.363 . S
C1192 C1191 1.415 . S
C1193 H1169 0.951 . S
C1193 C1194 1.366 . S
C1193 C1195 1.388 . S
C1194 C1193 1.366 . S
C1194 C1198 1.385 . S
C1195 H1170 0.951 . S
C1195 C1193 1.388 . S
C1195 C1196 1.366 . S
C1196 C1195 1.366 . S
C1196 C1197 1.414 . S
C1196 C1199 1.499 . S
C1197 H1171 0.950 . S
C1197 C1196 1.414 . S
C1197 C1198 1.374 . S
C1198 H1172 0.950 . S
C1198 C1194 1.385 . S
C1198 C1197 1.374 . S
C1199 C1196 1.499 . S
C1199 C1200 1.373 . S
C1199 C1201 1.389 . S
C1200 H1173 0.950 . S
C1200 C1186 1.377 . S
C1200 C1199 1.373 . S
C1201 C1185 1.377 . S
C1201 C1199 1.389 . S
C1201 C1202 1.524 . S
C1202 C1201 1.524 . S
C1202 C1203 1.397 . S
C1202 C1207 1.363 . S
C1203 H1174 0.950 . S
C1203 C1202 1.397 . S
C1203 C1204 1.334 . S
C1204 H1175 0.950 . S
C1204 C1203 1.334 . S
C1204 C1205 1.287 . S
C1205 C1204 1.287 . S
C1205 C1206 1.524 . S
C1205 H1208 0.999 . S
C1206 H1176 0.950 . S
C1206 C1205 1.524 . S
C1206 C1207 1.415 . S
C1207 H1177 0.950 . S
C1207 C1202 1.363 . S
C1207 C1206 1.415 . S
H1208 C1205 0.999 . S
H1209 C1190 0.913 . S
H1210 C1228 0.951 . S
H1211 C1230 0.951 . S
H1212 C1232 0.950 . S
H1213 C1233 0.950 . S
H1214 C1235 0.950 . S
H1215 C1238 0.950 . S
H1216 C1239 0.950 . S
H1217 C1241 0.950 . S
H1218 C1242 0.950 . S
H1219 C1243 0.951 . S
H1220 C1245 0.951 . S
H1221 C1247 0.950 . S
H1222 C1248 0.950 . S
H1223 C1250 0.950 . S
H1224 C1253 0.950 . S
H1225 C1254 0.950 . S
H1226 C1256 0.950 . S
H1227 C1257 0.950 . S
C1228 H1210 0.951 . S
C1228 C1229 1.366 . S
C1228 C1230 1.388 . S
C1229 C1228 1.366 . S
C1229 C1233 1.385 . S
C1230 H1211 0.951 . S
C1230 C1228 1.388 . S
C1230 C1231 1.366 . S
C1231 C1230 1.366 . S
C1231 C1232 1.414 . S
C1231 C1234 1.499 . S
C1232 H1212 0.950 . S
C1232 C1231 1.414 . S
C1232 C1233 1.374 . S
C1233 H1213 0.950 . S
C1233 C1229 1.385 . S
C1233 C1232 1.374 . S
C1234 C1231 1.499 . S
C1234 C1235 1.373 . S
C1234 C1236 1.389 . S
C1235 H1214 0.950 . S
C1235 C1234 1.373 . S
C1235 C1251 1.377 . S
C1236 C1234 1.389 . S
C1236 C1237 1.524 . S
C1236 C1250 1.377 . S
C1237 C1236 1.524 . S
C1237 C1238 1.397 . S
C1237 C1242 1.363 . S
C1238 H1215 0.950 . S
C1238 C1237 1.397 . S
C1238 C1239 1.334 . S
C1239 H1216 0.950 . S
C1239 C1238 1.334 . S
C1239 C1240 1.287 . S
C1240 C1239 1.287 . S
C1240 C1241 1.524 . S
C1240 H1259 0.913 . S
C1241 H1217 0.950 . S
C1241 C1240 1.524 . S
C1241 C1242 1.415 . S
C1242 H1218 0.950 . S
C1242 C1237 1.363 . S
C1242 C1241 1.415 . S
C1243 H1219 0.951 . S
C1243 C1244 1.366 . S
C1243 C1245 1.388 . S
C1244 C1243 1.366 . S
C1244 C1248 1.385 . S
C1245 H1220 0.951 . S
C1245 C1243 1.388 . S
C1245 C1246 1.366 . S
C1246 C1245 1.366 . S
C1246 C1247 1.414 . S
C1246 C1249 1.499 . S
C1247 H1221 0.950 . S
C1247 C1246 1.414 . S
C1247 C1248 1.374 . S
C1248 H1222 0.950 . S
C1248 C1244 1.385 . S
C1248 C1247 1.374 . S
C1249 C1246 1.499 . S
C1249 C1250 1.373 . S
C1249 C1251 1.389 . S
C1250 H1223 0.950 . S
C1250 C1236 1.377 . S
C1250 C1249 1.373 . S
C1251 C1235 1.377 . S
C1251 C1249 1.389 . S
C1251 C1252 1.524 . S
C1252 C1251 1.524 . S
C1252 C1253 1.397 . S
C1252 C1257 1.363 . S
C1253 H1224 0.950 . S
C1253 C1252 1.397 . S
C1253 C1254 1.334 . S
C1254 H1225 0.950 . S
C1254 C1253 1.334 . S
C1254 C1255 1.287 . S
C1255 C1254 1.287 . S
C1255 C1256 1.524 . S
C1255 H1258 0.999 . S
C1256 H1226 0.950 . S
C1256 C1255 1.524 . S
C1256 C1257 1.415 . S
C1257 H1227 0.950 . S
C1257 C1252 1.363 . S
C1257 C1256 1.415 . S
H1258 C1255 0.999 . S
H1259 C1240 0.913 . S
H1260 C1278 0.951 . S
H1261 C1280 0.951 . S
H1262 C1282 0.950 . S
H1263 C1283 0.950 . S
H1264 C1285 0.950 . S
H1265 C1288 0.950 . S
H1266 C1289 0.950 . S
H1267 C1291 0.950 . S
H1268 C1292 0.950 . S
H1269 C1293 0.951 . S
H1270 C1295 0.951 . S
H1271 C1297 0.950 . S
H1272 C1298 0.950 . S
H1273 C1300 0.950 . S
H1274 C1303 0.950 . S
H1275 C1304 0.950 . S
H1276 C1306 0.950 . S
H1277 C1307 0.950 . S
C1278 H1260 0.951 . S
C1278 C1279 1.366 . S
C1278 C1280 1.388 . S
C1279 C1278 1.366 . S
C1279 C1283 1.385 . S
C1280 H1261 0.951 . S
C1280 C1278 1.388 . S
C1280 C1281 1.366 . S
C1281 C1280 1.366 . S
C1281 C1282 1.414 . S
C1281 C1284 1.499 . S
C1282 H1262 0.950 . S
C1282 C1281 1.414 . S
C1282 C1283 1.374 . S
C1283 H1263 0.950 . S
C1283 C1279 1.385 . S
C1283 C1282 1.374 . S
C1284 C1281 1.499 . S
C1284 C1285 1.373 . S
C1284 C1286 1.389 . S
C1285 H1264 0.950 . S
C1285 C1284 1.373 . S
C1285 C1301 1.377 . S
C1286 C1284 1.389 . S
C1286 C1287 1.524 . S
C1286 C1300 1.377 . S
C1287 C1286 1.524 . S
C1287 C1288 1.397 . S
C1287 C1292 1.363 . S
C1288 H1265 0.950 . S
C1288 C1287 1.397 . S
C1288 C1289 1.334 . S
C1289 H1266 0.950 . S
C1289 C1288 1.334 . S
C1289 C1290 1.287 . S
C1290 C1289 1.287 . S
C1290 C1291 1.524 . S
C1290 H1309 0.913 . S
C1291 H1267 0.950 . S
C1291 C1290 1.524 . S
C1291 C1292 1.415 . S
C1292 H1268 0.950 . S
C1292 C1287 1.363 . S
C1292 C1291 1.415 . S
C1293 H1269 0.951 . S
C1293 C1294 1.366 . S
C1293 C1295 1.388 . S
C1294 C1293 1.366 . S
C1294 C1298 1.385 . S
C1295 H1270 0.951 . S
C1295 C1293 1.388 . S
C1295 C1296 1.366 . S
C1296 C1295 1.366 . S
C1296 C1297 1.414 . S
C1296 C1299 1.499 . S
C1297 H1271 0.950 . S
C1297 C1296 1.414 . S
C1297 C1298 1.374 . S
C1298 H1272 0.950 . S
C1298 C1294 1.385 . S
C1298 C1297 1.374 . S
C1299 C1296 1.499 . S
C1299 C1300 1.373 . S
C1299 C1301 1.389 . S
C1300 H1273 0.950 . S
C1300 C1286 1.377 . S
C1300 C1299 1.373 . S
C1301 C1285 1.377 . S
C1301 C1299 1.389 . S
C1301 C1302 1.524 . S
C1302 C1301 1.524 . S
C1302 C1303 1.397 . S
C1302 C1307 1.363 . S
C1303 H1274 0.950 . S
C1303 C1302 1.397 . S
C1303 C1304 1.334 . S
C1304 H1275 0.950 . S
C1304 C1303 1.334 . S
C1304 C1305 1.287 . S
C1305 C1304 1.287 . S
C1305 C1306 1.524 . S
C1305 H1308 0.999 . S
C1306 H1276 0.950 . S
C1306 C1305 1.524 . S
C1306 C1307 1.415 . S
C1307 H1277 0.950 . S
C1307 C1302 1.363 . S
C1307 C1306 1.415 . S
H1308 C1305 0.999 . S
H1309 C1290 0.913 . S
H1310 C1328 0.951 . S
H1311 C1330 0.951 . S
H1312 C1332 0.950 . S
H1313 C1333 0.950 . S
H1314 C1335 0.950 . S
H1315 C1338 0.950 . S
H1316 C1339 0.950 . S
H1317 C1341 0.950 . S
H1318 C1342 0.950 . S
H1319 C1343 0.951 . S
H1320 C1345 0.951 . S
H1321 C1347 0.950 . S
H1322 C1348 0.950 . S
H1323 C1350 0.950 . S
H1324 C1353 0.950 . S
H1325 C1354 0.950 . S
H1326 C1356 0.950 . S
H1327 C1357 0.950 . S
C1328 H1310 0.951 . S
C1328 C1329 1.366 . S
C1328 C1330 1.388 . S
C1329 C1328 1.366 . S
C1329 C1333 1.385 . S
C1330 H1311 0.951 . S
C1330 C1328 1.388 . S
C1330 C1331 1.366 . S
C1331 C1330 1.366 . S
C1331 C1332 1.414 . S
C1331 C1334 1.499 . S
C1332 H1312 0.950 . S
C1332 C1331 1.414 . S
C1332 C1333 1.374 . S
C1333 H1313 0.950 . S
C1333 C1329 1.385 . S
C1333 C1332 1.374 . S
C1334 C1331 1.499 . S
C1334 C1335 1.373 . S
C1334 C1336 1.389 . S
C1335 H1314 0.950 . S
C1335 C1334 1.373 . S
C1335 C1351 1.377 . S
C1336 C1334 1.389 . S
C1336 C1337 1.524 . S
C1336 C1350 1.377 . S
C1337 C1336 1.524 . S
C1337 C1338 1.397 . S
C1337 C1342 1.363 . S
C1338 H1315 0.950 . S
C1338 C1337 1.397 . S
C1338 C1339 1.334 . S
C1339 H1316 0.950 . S
C1339 C1338 1.334 . S
C1339 C1340 1.287 . S
C1340 C1339 1.287 . S
C1340 C1341 1.524 . S
C1340 H1359 0.913 . S
C1341 H1317 0.950 . S
C1341 C1340 1.524 . S
C1341 C1342 1.415 . S
C1342 H1318 0.950 . S
C1342 C1337 1.363 . S
C1342 C1341 1.415 . S
C1343 H1319 0.951 . S
C1343 C1344 1.366 . S
C1343 C1345 1.388 . S
C1344 C1343 1.366 . S
C1344 C1348 1.385 . S
C1345 H1320 0.951 . S
C1345 C1343 1.388 . S
C1345 C1346 1.366 . S
C1346 C1345 1.366 . S
C1346 C1347 1.414 . S
C1346 C1349 1.499 . S
C1347 H1321 0.950 . S
C1347 C1346 1.414 . S
C1347 C1348 1.374 . S
C1348 H1322 0.950 . S
C1348 C1344 1.385 . S
C1348 C1347 1.374 . S
C1349 C1346 1.499 . S
C1349 C1350 1.373 . S
C1349 C1351 1.389 . S
C1350 H1323 0.950 . S
C1350 C1336 1.377 . S
C1350 C1349 1.373 . S
C1351 C1335 1.377 . S
C1351 C1349 1.389 . S
C1351 C1352 1.524 . S
C1352 C1351 1.524 . S
C1352 C1353 1.397 . S
C1352 C1357 1.363 . S
C1353 H1324 0.950 . S
C1353 C1352 1.397 . S
C1353 C1354 1.334 . S
C1354 H1325 0.950 . S
C1354 C1353 1.334 . S
C1354 C1355 1.287 . S
C1355 C1354 1.287 . S
C1355 C1356 1.524 . S
C1355 H1358 0.999 . S
C1356 H1326 0.950 . S
C1356 C1355 1.524 . S
C1356 C1357 1.415 . S
C1357 H1327 0.950 . S
C1357 C1352 1.363 . S
C1357 C1356 1.415 . S
H1358 C1355 0.999 . S
H1359 C1340 0.913 . S
H1360 C1378 0.951 . S
H1361 C1380 0.951 . S
H1362 C1382 0.950 . S
H1363 C1383 0.950 . S
H1364 C1385 0.950 . S
H1365 C1388 0.950 . S
H1366 C1389 0.950 . S
H1367 C1391 0.950 . S
H1368 C1392 0.950 . S
H1369 C1393 0.951 . S
H1370 C1395 0.951 . S
H1371 C1397 0.950 . S
H1372 C1398 0.950 . S
H1373 C1400 0.950 . S
H1374 C1403 0.950 . S
H1375 C1404 0.950 . S
H1376 C1406 0.950 . S
H1377 C1407 0.950 . S
C1378 H1360 0.951 . S
C1378 C1379 1.366 . S
C1378 C1380 1.388 . S
C1379 C1378 1.366 . S
C1379 C1383 1.385 . S
C1380 H1361 0.951 . S
C1380 C1378 1.388 . S
C1380 C1381 1.366 . S
C1381 C1380 1.366 . S
C1381 C1382 1.414 . S
C1381 C1384 1.499 . S
C1382 H1362 0.950 . S
C1382 C1381 1.414 . S
C1382 C1383 1.374 . S
C1383 H1363 0.950 . S
C1383 C1379 1.385 . S
C1383 C1382 1.374 . S
C1384 C1381 1.499 . S
C1384 C1385 1.373 . S
C1384 C1386 1.389 . S
C1385 H1364 0.950 . S
C1385 C1384 1.373 . S
C1385 C1401 1.377 . S
C1386 C1384 1.389 . S
C1386 C1387 1.524 . S
C1386 C1400 1.377 . S
C1387 C1386 1.524 . S
C1387 C1388 1.397 . S
C1387 C1392 1.363 . S
C1388 H1365 0.950 . S
C1388 C1387 1.397 . S
C1388 C1389 1.334 . S
C1389 H1366 0.950 . S
C1389 C1388 1.334 . S
C1389 C1390 1.287 . S
C1390 C1389 1.287 . S
C1390 C1391 1.524 . S
C1390 H1409 0.913 . S
C1391 H1367 0.950 . S
C1391 C1390 1.524 . S
C1391 C1392 1.415 . S
C1392 H1368 0.950 . S
C1392 C1387 1.363 . S
C1392 C1391 1.415 . S
C1393 H1369 0.951 . S
C1393 C1394 1.366 . S
C1393 C1395 1.388 . S
C1394 C1393 1.366 . S
C1394 C1398 1.385 . S
C1395 H1370 0.951 . S
C1395 C1393 1.388 . S
C1395 C1396 1.366 . S
C1396 C1395 1.366 . S
C1396 C1397 1.414 . S
C1396 C1399 1.499 . S
C1397 H1371 0.950 . S
C1397 C1396 1.414 . S
C1397 C1398 1.374 . S
C1398 H1372 0.950 . S
C1398 C1394 1.385 . S
C1398 C1397 1.374 . S
C1399 C1396 1.499 . S
C1399 C1400 1.373 . S
C1399 C1401 1.389 . S
C1400 H1373 0.950 . S
C1400 C1386 1.377 . S
C1400 C1399 1.373 . S
C1401 C1385 1.377 . S
C1401 C1399 1.389 . S
C1401 C1402 1.524 . S
C1402 C1401 1.524 . S
C1402 C1403 1.397 . S
C1402 C1407 1.363 . S
C1403 H1374 0.950 . S
C1403 C1402 1.397 . S
C1403 C1404 1.334 . S
C1404 H1375 0.950 . S
C1404 C1403 1.334 . S
C1404 C1405 1.287 . S
C1405 C1404 1.287 . S
C1405 C1406 1.524 . S
C1405 H1408 0.999 . S
C1406 H1376 0.950 . S
C1406 C1405 1.524 . S
C1406 C1407 1.415 . S
C1407 H1377 0.950 . S
C1407 C1402 1.363 . S
C1407 C1406 1.415 . S
H1408 C1405 0.999 . S
H1409 C1390 0.913 . S
H1410 C1428 0.951 . S
H1411 C1430 0.951 . S
H1412 C1432 0.950 . S
H1413 C1433 0.950 . S
H1414 C1435 0.950 . S
H1415 C1438 0.950 . S
H1416 C1439 0.950 . S
H1417 C1441 0.950 . S
H1418 C1442 0.950 . S
H1419 C1443 0.951 . S
H1420 C1445 0.951 . S
H1421 C1447 0.950 . S
H1422 C1448 0.950 . S
H1423 C1450 0.950 . S
H1424 C1453 0.950 . S
H1425 C1454 0.950 . S
H1426 C1456 0.950 . S
H1427 C1457 0.950 . S
C1428 H1410 0.951 . S
C1428 C1429 1.366 . S
C1428 C1430 1.388 . S
C1429 C1428 1.366 . S
C1429 C1433 1.385 . S
C1430 H1411 0.951 . S
C1430 C1428 1.388 . S
C1430 C1431 1.366 . S
C1431 C1430 1.366 . S
C1431 C1432 1.414 . S
C1431 C1434 1.499 . S
C1432 H1412 0.950 . S
C1432 C1431 1.414 . S
C1432 C1433 1.374 . S
C1433 H1413 0.950 . S
C1433 C1429 1.385 . S
C1433 C1432 1.374 . S
C1434 C1431 1.499 . S
C1434 C1435 1.373 . S
C1434 C1436 1.389 . S
C1435 H1414 0.950 . S
C1435 C1434 1.373 . S
C1435 C1451 1.377 . S
C1436 C1434 1.389 . S
C1436 C1437 1.524 . S
C1436 C1450 1.377 . S
C1437 C1436 1.524 . S
C1437 C1438 1.397 . S
C1437 C1442 1.363 . S
C1438 H1415 0.950 . S
C1438 C1437 1.397 . S
C1438 C1439 1.334 . S
C1439 H1416 0.950 . S
C1439 C1438 1.334 . S
C1439 C1440 1.287 . S
C1440 C1439 1.287 . S
C1440 C1441 1.524 . S
C1440 H1459 0.913 . S
C1441 H1417 0.950 . S
C1441 C1440 1.524 . S
C1441 C1442 1.415 . S
C1442 H1418 0.950 . S
C1442 C1437 1.363 . S
C1442 C1441 1.415 . S
C1443 H1419 0.951 . S
C1443 C1444 1.366 . S
C1443 C1445 1.388 . S
C1444 C1443 1.366 . S
C1444 C1448 1.385 . S
C1445 H1420 0.951 . S
C1445 C1443 1.388 . S
C1445 C1446 1.366 . S
C1446 C1445 1.366 . S
C1446 C1447 1.414 . S
C1446 C1449 1.499 . S
C1447 H1421 0.950 . S
C1447 C1446 1.414 . S
C1447 C1448 1.374 . S
C1448 H1422 0.950 . S
C1448 C1444 1.385 . S
C1448 C1447 1.374 . S
C1449 C1446 1.499 . S
C1449 C1450 1.373 . S
C1449 C1451 1.389 . S
C1450 H1423 0.950 . S
C1450 C1436 1.377 . S
C1450 C1449 1.373 . S
C1451 C1435 1.377 . S
C1451 C1449 1.389 . S
C1451 C1452 1.524 . S
C1452 C1451 1.524 . S
C1452 C1453 1.397 . S
C1452 C1457 1.363 . S
C1453 H1424 0.950 . S
C1453 C1452 1.397 . S
C1453 C1454 1.334 . S
C1454 H1425 0.950 . S
C1454 C1453 1.334 . S
C1454 C1455 1.287 . S
C1455 C1454 1.287 . S
C1455 C1456 1.524 . S
C1455 H1458 0.999 . S
C1456 H1426 0.950 . S
C1456 C1455 1.524 . S
C1456 C1457 1.415 . S
C1457 H1427 0.950 . S
C1457 C1452 1.363 . S
C1457 C1456 1.415 . S
H1458 C1455 0.999 . S
H1459 C1440 0.913 . S
H1460 C1478 0.951 . S
H1461 C1480 0.951 . S
H1462 C1482 0.950 . S
H1463 C1483 0.950 . S
H1464 C1485 0.950 . S
H1465 C1488 0.950 . S
H1466 C1489 0.950 . S
H1467 C1491 0.950 . S
H1468 C1492 0.950 . S
H1469 C1493 0.951 . S
H1470 C1495 0.951 . S
H1471 C1497 0.950 . S
H1472 C1498 0.950 . S
H1473 C1500 0.950 . S
H1474 C1503 0.950 . S
H1475 C1504 0.950 . S
H1476 C1506 0.950 . S
H1477 C1507 0.950 . S
C1478 H1460 0.951 . S
C1478 C1479 1.366 . S
C1478 C1480 1.388 . S
C1479 C1478 1.366 . S
C1479 C1483 1.385 . S
C1480 H1461 0.951 . S
C1480 C1478 1.388 . S
C1480 C1481 1.366 . S
C1481 C1480 1.366 . S
C1481 C1482 1.414 . S
C1481 C1484 1.499 . S
C1482 H1462 0.950 . S
C1482 C1481 1.414 . S
C1482 C1483 1.374 . S
C1483 H1463 0.950 . S
C1483 C1479 1.385 . S
C1483 C1482 1.374 . S
C1484 C1481 1.499 . S
C1484 C1485 1.373 . S
C1484 C1486 1.389 . S
C1485 H1464 0.950 . S
C1485 C1484 1.373 . S
C1485 C1501 1.377 1_554 S
C1486 C1484 1.389 . S
C1486 C1487 1.524 . S
C1486 C1500 1.377 . S
C1487 C1486 1.524 . S
C1487 C1488 1.397 . S
C1487 C1492 1.363 . S
C1488 H1465 0.950 . S
C1488 C1487 1.397 . S
C1488 C1489 1.334 . S
C1489 H1466 0.950 . S
C1489 C1488 1.334 . S
C1489 C1490 1.287 . S
C1490 C1489 1.287 . S
C1490 C1491 1.524 . S
C1490 H1509 0.913 . S
C1491 H1467 0.950 . S
C1491 C1490 1.524 . S
C1491 C1492 1.415 . S
C1492 H1468 0.950 . S
C1492 C1487 1.363 . S
C1492 C1491 1.415 . S
C1493 H1469 0.951 . S
C1493 C1494 1.366 . S
C1493 C1495 1.388 . S
C1494 C1493 1.366 . S
C1494 C1498 1.385 . S
C1495 H1470 0.951 . S
C1495 C1493 1.388 . S
C1495 C1496 1.366 . S
C1496 C1495 1.366 . S
C1496 C1497 1.414 . S
C1496 C1499 1.499 . S
C1497 H1471 0.950 . S
C1497 C1496 1.414 . S
C1497 C1498 1.374 . S
C1498 H1472 0.950 . S
C1498 C1494 1.385 . S
C1498 C1497 1.374 . S
C1499 C1496 1.499 . S
C1499 C1500 1.373 1_556 S
C1499 C1501 1.389 . S
C1500 H1473 0.950 . S
C1500 C1486 1.377 . S
C1500 C1499 1.373 1_554 S
C1501 C1485 1.377 1_556 S
C1501 C1499 1.389 . S
C1501 C1502 1.524 . S
C1502 C1501 1.524 . S
C1502 C1503 1.397 . S
C1502 C1507 1.363 . S
C1503 H1474 0.950 . S
C1503 C1502 1.397 . S
C1503 C1504 1.334 . S
C1504 H1475 0.950 . S
C1504 C1503 1.334 . S
C1504 C1505 1.287 . S
C1505 C1504 1.287 . S
C1505 C1506 1.524 . S
C1505 H1508 0.999 . S
C1506 H1476 0.950 . S
C1506 C1505 1.524 . S
C1506 C1507 1.415 . S
C1507 H1477 0.950 . S
C1507 C1502 1.363 . S
C1507 C1506 1.415 . S
H1508 C1505 0.999 . S
H1509 C1490 0.913 . S
H1510 C1528 0.951 . S
H1511 C1530 0.951 . S
H1512 C1532 0.950 . S
H1513 C1533 0.950 . S
H1514 C1535 0.950 . S
H1515 C1538 0.950 . S
H1516 C1539 0.950 . S
H1517 C1541 0.950 . S
H1518 C1542 0.950 . S
H1519 C1543 0.951 . S
H1520 C1545 0.951 . S
H1521 C1547 0.950 . S
H1522 C1548 0.950 . S
H1523 C1550 0.950 . S
H1524 C1553 0.950 . S
H1525 C1554 0.950 . S
H1526 C1556 0.950 . S
H1527 C1557 0.950 . S
C1528 H1510 0.951 . S
C1528 C1529 1.366 . S
C1528 C1530 1.388 . S
C1529 C1528 1.366 . S
C1529 C1533 1.385 . S
C1530 H1511 0.951 . S
C1530 C1528 1.388 . S
C1530 C1531 1.366 . S
C1531 C1530 1.366 . S
C1531 C1532 1.414 . S
C1531 C1534 1.499 . S
C1532 H1512 0.950 . S
C1532 C1531 1.414 . S
C1532 C1533 1.374 . S
C1533 H1513 0.950 . S
C1533 C1529 1.385 . S
C1533 C1532 1.374 . S
C1534 C1531 1.499 . S
C1534 C1535 1.373 . S
C1534 C1536 1.389 . S
C1535 H1514 0.950 . S
C1535 C1534 1.373 . S
C1535 C1551 1.377 . S
C1536 C1534 1.389 . S
C1536 C1537 1.524 . S
C1536 C1550 1.377 . S
C1537 C1536 1.524 . S
C1537 C1538 1.397 . S
C1537 C1542 1.363 . S
C1538 H1515 0.950 . S
C1538 C1537 1.397 . S
C1538 C1539 1.334 . S
C1539 H1516 0.950 . S
C1539 C1538 1.334 . S
C1539 C1540 1.287 . S
C1540 C1539 1.287 . S
C1540 C1541 1.524 . S
C1540 H1559 0.913 . S
C1541 H1517 0.950 . S
C1541 C1540 1.524 . S
C1541 C1542 1.415 . S
C1542 H1518 0.950 . S
C1542 C1537 1.363 . S
C1542 C1541 1.415 . S
C1543 H1519 0.951 . S
C1543 C1544 1.366 . S
C1543 C1545 1.388 . S
C1544 C1543 1.366 . S
C1544 C1548 1.385 . S
C1545 H1520 0.951 . S
C1545 C1543 1.388 . S
C1545 C1546 1.366 . S
C1546 C1545 1.366 . S
C1546 C1547 1.414 . S
C1546 C1549 1.499 . S
C1547 H1521 0.950 . S
C1547 C1546 1.414 . S
C1547 C1548 1.374 . S
C1548 H1522 0.950 . S
C1548 C1544 1.385 . S
C1548 C1547 1.374 . S
C1549 C1546 1.499 . S
C1549 C1550 1.373 . S
C1549 C1551 1.389 . S
C1550 H1523 0.950 . S
C1550 C1536 1.377 . S
C1550 C1549 1.373 . S
C1551 C1535 1.377 . S
C1551 C1549 1.389 . S
C1551 C1552 1.524 . S
C1552 C1551 1.524 . S
C1552 C1553 1.397 . S
C1552 C1557 1.363 . S
C1553 H1524 0.950 . S
C1553 C1552 1.397 . S
C1553 C1554 1.334 . S
C1554 H1525 0.950 . S
C1554 C1553 1.334 . S
C1554 C1555 1.287 . S
C1555 C1554 1.287 . S
C1555 C1556 1.524 . S
C1555 H1558 0.999 . S
C1556 H1526 0.950 . S
C1556 C1555 1.524 . S
C1556 C1557 1.415 . S
C1557 H1527 0.950 . S
C1557 C1552 1.363 . S
C1557 C1556 1.415 . S
H1558 C1555 0.999 . S
H1559 C1540 0.913 . S
C394 C351 1.243 . S
C379 C15 1.467 . S
C429 C61 1.505 . S
C444 C281 1.276 . S
C479 C114 1.467 . S
C494 C301 1.487 . S
C529 C139 1.409 . S
C544 C315 1.415 . S
C594 C323 1.218 . S
C579 C185 1.454 . S
C629 C245 1.456 . S
C644 C337 1.228 . S
C679 C47 1.506 . S
C694 C295 1.265 . S
C729 C100 1.452 . S
C744 C309 1.218 . S
C779 C153 1.390 . S
C794 C329 1.406 . S
C844 C343 1.457 . S
C829 C199 1.436 . S
C894 C357 1.457 . S
C879 C231 1.450 . S
C944 C287 1.482 . S
C929 C1 1.475 . S
C979 C22 1.411 . S
C994 C294 1.391 . S
C1029 C68 1.437 . S
C1044 C308 1.416 . S
C1094 C330 1.430 . S
C1079 C107 1.429 . S
C1129 C146 1.430 . S
C1144 C344 1.429 . S
C1194 C358 1.397 . S
C1179 C192 1.397 . S
C1244 C288 1.378 . S
C1229 C252 1.377 . S
C1294 C350 1.394 . S
C1279 C54 1.416 . S
C1329 C93 1.413 . S
C1344 C280 1.391 . S
C1394 C302 1.409 . S
C1379 C160 1.406 . S
C1429 C206 1.429 . S
C1444 C316 1.429 . S
C1479 C238 1.471 . S
C1494 C322 1.449 . S
C1529 C8 1.447 . S
C1544 C336 1.425 . S
