# Generated by pormake.
# Topology ctn, (3,4)-cn, num edge types: 1
# Building blocks:
#     Node 0, Type 0, BuildingBlock: ESEHIV_clean_linker_0, # of connection points: 3
#     Node 1, Type 0, BuildingBlock: ESEHIV_clean_linker_0, # of connection points: 3
#     Node 2, Type 0, BuildingBlock: ESEHIV_clean_linker_0, # of connection points: 3
#     Node 3, Type 0, BuildingBlock: ESEHIV_clean_linker_0, # of connection points: 3
#     Node 4, Type 0, BuildingBlock: ESEHIV_clean_linker_0, # of connection points: 3
#     Node 5, Type 0, BuildingBlock: ESEHIV_clean_linker_0, # of connection points: 3
#     Node 6, Type 0, BuildingBlock: ESEHIV_clean_linker_0, # of connection points: 3
#     Node 7, Type 0, BuildingBlock: ESEHIV_clean_linker_0, # of connection points: 3
#     Node 8, Type 0, BuildingBlock: ESEHIV_clean_linker_0, # of connection points: 3
#     Node 9, Type 0, BuildingBlock: ESEHIV_clean_linker_0, # of connection points: 3
#     Node 10, Type 0, BuildingBlock: ESEHIV_clean_linker_0, # of connection points: 3
#     Node 11, Type 0, BuildingBlock: ESEHIV_clean_linker_0, # of connection points: 3
#     Node 12, Type 0, BuildingBlock: ESEHIV_clean_linker_0, # of connection points: 3
#     Node 13, Type 0, BuildingBlock: ESEHIV_clean_linker_0, # of connection points: 3
#     Node 14, Type 0, BuildingBlock: ESEHIV_clean_linker_0, # of connection points: 3
#     Node 15, Type 0, BuildingBlock: ESEHIV_clean_linker_0, # of connection points: 3
#     Node 16, Type 1, BuildingBlock: TATPOV_clean_sbu_0, # of connection points: 4
#     Node 17, Type 1, BuildingBlock: TATPOV_clean_sbu_0, # of connection points: 4
#     Node 18, Type 1, BuildingBlock: TATPOV_clean_sbu_0, # of connection points: 4
#     Node 19, Type 1, BuildingBlock: TATPOV_clean_sbu_0, # of connection points: 4
#     Node 20, Type 1, BuildingBlock: TATPOV_clean_sbu_0, # of connection points: 4
#     Node 21, Type 1, BuildingBlock: TATPOV_clean_sbu_0, # of connection points: 4
#     Node 22, Type 1, BuildingBlock: TATPOV_clean_sbu_0, # of connection points: 4
#     Node 23, Type 1, BuildingBlock: TATPOV_clean_sbu_0, # of connection points: 4
#     Node 24, Type 1, BuildingBlock: TATPOV_clean_sbu_0, # of connection points: 4
#     Node 25, Type 1, BuildingBlock: TATPOV_clean_sbu_0, # of connection points: 4
#     Node 26, Type 1, BuildingBlock: TATPOV_clean_sbu_0, # of connection points: 4
#     Node 27, Type 1, BuildingBlock: TATPOV_clean_sbu_0, # of connection points: 4
#     Edge 28, Type (0, 1), None
#     Edge 29, Type (0, 1), None
#     Edge 30, Type (0, 1), None
#     Edge 31, Type (0, 1), None
#     Edge 32, Type (0, 1), None
#     Edge 33, Type (0, 1), None
#     Edge 34, Type (0, 1), None
#     Edge 35, Type (0, 1), None
#     Edge 36, Type (0, 1), None
#     Edge 37, Type (0, 1), None
#     Edge 38, Type (0, 1), None
#     Edge 39, Type (0, 1), None
#     Edge 40, Type (0, 1), None
#     Edge 41, Type (0, 1), None
#     Edge 42, Type (0, 1), None
#     Edge 43, Type (0, 1), None
#     Edge 44, Type (0, 1), None
#     Edge 45, Type (0, 1), None
#     Edge 46, Type (0, 1), None
#     Edge 47, Type (0, 1), None
#     Edge 48, Type (0, 1), None
#     Edge 49, Type (0, 1), None
#     Edge 50, Type (0, 1), None
#     Edge 51, Type (0, 1), None
#     Edge 52, Type (0, 1), None
#     Edge 53, Type (0, 1), None
#     Edge 54, Type (0, 1), None
#     Edge 55, Type (0, 1), None
#     Edge 56, Type (0, 1), None
#     Edge 57, Type (0, 1), None
#     Edge 58, Type (0, 1), None
#     Edge 59, Type (0, 1), None
#     Edge 60, Type (0, 1), None
#     Edge 61, Type (0, 1), None
#     Edge 62, Type (0, 1), None
#     Edge 63, Type (0, 1), None
#     Edge 64, Type (0, 1), None
#     Edge 65, Type (0, 1), None
#     Edge 66, Type (0, 1), None
#     Edge 67, Type (0, 1), None
#     Edge 68, Type (0, 1), None
#     Edge 69, Type (0, 1), None
#     Edge 70, Type (0, 1), None
#     Edge 71, Type (0, 1), None
#     Edge 72, Type (0, 1), None
#     Edge 73, Type (0, 1), None
#     Edge 74, Type (0, 1), None
#     Edge 75, Type (0, 1), None
# Relax obj value: 0.005
# Max RMSD: 0.039
# Mean RMSD: 0.021
data_MOF--net-ctn--node1-TATPOV_clean_sbu_0--node2-ESEHIV_clean_linker_0--edge1-none
_symmetry_space_group_name_H-M    P1
_symmetry_Int_Tables_number       1
_symmetry_cell_setting            triclinic
loop_
_symmetry_equiv_pos_as_xyz
'x, y, z'
_cell_length_a     20.950677
_cell_length_b     20.934021
_cell_length_c     20.909986
_cell_angle_alpha  94.126042
_cell_angle_beta   94.236029
_cell_angle_gamma 94.207358
loop_
_atom_site_label
_atom_site_type_symbol
_atom_site_fract_x
_atom_site_fract_y
_atom_site_fract_z
_atom_type_partial_charge
H0 H 0.91926 0.08209 0.00378 0.0
H1 H 0.00264 0.92033 0.08267 0.0
H2 H 0.08119 0.00387 0.92069 0.0
C3 C 0.9539 0.0461 0.0021 0.0
C4 C -0.00055 0.04769 0.95615 0.0
C5 C 0.95484 0.0004 0.0479 0.0
C6 C 0.00089 0.95496 0.04656 0.0
C7 C 0.04662 0.95597 0.00087 0.0
C8 C 0.04515 0.00202 0.95528 0.0
H9 H 0.27725 0.67937 0.31446 0.0
H10 H 0.33433 0.81968 0.18538 0.0
H11 H 0.15768 0.70359 0.14196 0.0
C12 C 0.26708 0.7047 0.27189 0.0
C13 C 0.20987 0.68848 0.2324 0.0
C14 C 0.31172 0.7529 0.25575 0.0
C15 C 0.29863 0.78466 0.2002 0.0
C16 C 0.24395 0.76638 0.15885 0.0
C17 C 0.19871 0.71937 0.17549 0.0
H18 H 0.95102 0.53554 0.12724 0.0
H19 H 0.05558 0.37077 0.07703 0.0
H20 H 0.9496 0.45932 0.93015 0.0
C21 C 0.96689 0.50183 0.09112 0.0
C22 C 0.94307 0.50198 0.02611 0.0
C23 C 0.00904 0.45515 0.10946 0.0
C24 C 0.02556 0.40832 0.06312 0.0
C25 C 0.00496 0.41133 -0.0015 0.0
C26 C 0.96598 0.45901 0.98058 0.0
H27 H 0.64027 0.6594 0.20476 0.0
H28 H 0.8126 0.77856 0.18016 0.0
H29 H 0.68377 0.83664 0.31996 0.0
C30 C 0.67378 0.70048 0.22035 0.0
C31 C 0.65719 0.74603 0.26707 0.0
C32 C 0.73059 0.71139 0.18947 0.0
C33 C 0.77009 0.76861 0.20548 0.0
C34 C 0.75404 0.81353 0.25344 0.0
C35 C 0.69853 0.80074 0.28514 0.0
H36 H 0.92784 0.9518 0.4601 0.0
H37 H 0.07478 0.05731 0.37157 0.0
H38 H 0.12454 0.9524 0.53665 0.0
C39 C 0.97822 0.96804 0.45988 0.0
C40 C 0.02359 0.94488 0.50294 0.0
C41 C -0.00377 0.00698 0.41213 0.0
C42 C 0.06079 0.02736 0.4092 0.0
C43 C 0.10698 0.01065 0.45617 0.0
C44 C 0.08854 0.96848 0.50288 0.0
H45 H 0.17814 0.8139 0.77856 0.0
H46 H 0.31902 0.68568 0.83559 0.0
H47 H 0.20259 0.6419 0.65888 0.0
C48 C 0.20361 0.77155 0.76835 0.0
C49 C 0.18737 0.73209 0.71111 0.0
C50 C 0.25195 0.75563 0.813 0.0
C51 C 0.2839 0.70035 0.79986 0.0
C52 C 0.26561 0.659 0.74515 0.0
C53 C 0.21841 0.67543 0.69991 0.0
H54 H 0.86922 0.5761 0.55701 0.0
H55 H 0.03472 0.62605 0.45329 0.0
H56 H 0.9586 0.42914 0.45267 0.0
C57 C 0.907 0.56215 0.52738 0.0
C58 C 0.91017 0.49754 0.50722 0.0
C59 C 0.95397 0.60841 0.51093 0.0
C60 C 0.00093 0.58999 0.46919 0.0
C61 C 0.00125 0.52499 0.44576 0.0
C62 C 0.95818 0.47955 0.46875 0.0
H63 H 0.72836 0.79346 0.8911 0.0
H64 H 0.79227 0.89003 0.72989 0.0
H65 H 0.88875 0.7291 0.7942 0.0
C66 C 0.76335 0.80055 0.85603 0.0
C67 C 0.81125 0.75744 0.84982 0.0
C68 C 0.7565 0.84895 0.81322 0.0
C69 C 0.79942 0.85505 0.76505 0.0
C70 C 0.84771 0.81227 0.75821 0.0
C71 C 0.85387 0.76423 0.80133 0.0
H72 H 0.22836 0.29347 0.3911 0.0
H73 H 0.29227 0.39003 0.22989 0.0
H74 H 0.38875 0.2291 0.2942 0.0
C75 C 0.26335 0.30055 0.35603 0.0
C76 C 0.31125 0.25744 0.34982 0.0
C77 C 0.2565 0.34895 0.31322 0.0
C78 C 0.29942 0.35505 0.26505 0.0
C79 C 0.34771 0.31227 0.25821 0.0
C80 C 0.35387 0.26423 0.30133 0.0
H81 H 0.45102 0.03554 0.62724 0.0
H82 H 0.55558 0.87077 0.57703 0.0
H83 H 0.4496 0.95932 0.43015 0.0
C84 C 0.46689 0.00183 0.59112 0.0
C85 C 0.44307 0.00198 0.52611 0.0
C86 C 0.50904 0.95515 0.60946 0.0
C87 C 0.52556 0.90832 0.56312 0.0
C88 C 0.50496 0.91134 0.4985 0.0
C89 C 0.46598 0.95901 0.48058 0.0
H90 H 0.14027 0.1594 0.70476 0.0
H91 H 0.3126 0.27856 0.68016 0.0
H92 H 0.18378 0.33664 0.81996 0.0
C93 C 0.17378 0.20048 0.72036 0.0
C94 C 0.1572 0.24603 0.76707 0.0
C95 C 0.23059 0.21139 0.68947 0.0
C96 C 0.27009 0.26861 0.70548 0.0
C97 C 0.25404 0.31353 0.75344 0.0
C98 C 0.19853 0.30074 0.78514 0.0
H99 H 0.77725 0.17937 0.81446 0.0
H100 H 0.83433 0.31967 0.68537 0.0
H101 H 0.65768 0.20359 0.64196 0.0
C102 C 0.76708 0.2047 0.77189 0.0
C103 C 0.70987 0.18848 0.7324 0.0
C104 C 0.81172 0.2529 0.75575 0.0
C105 C 0.79863 0.28466 0.7002 0.0
C106 C 0.74396 0.26637 0.65885 0.0
C107 C 0.69871 0.21936 0.67549 0.0
H108 H 0.41926 0.58209 0.50378 0.0
H109 H 0.50264 0.42033 0.58267 0.0
H110 H 0.58119 0.50387 0.42069 0.0
C111 C 0.4539 0.5461 0.5021 0.0
C112 C 0.49945 0.54769 0.45615 0.0
C113 C 0.45484 0.5004 0.5479 0.0
C114 C 0.50089 0.45496 0.54656 0.0
C115 C 0.54662 0.45598 0.50088 0.0
C116 C 0.54515 0.50202 0.45529 0.0
H117 H 0.42784 0.4518 0.96011 0.0
H118 H 0.57478 0.55731 0.87157 0.0
H119 H 0.62454 0.4524 0.03665 0.0
C120 C 0.47822 0.46804 0.95988 0.0
C121 C 0.52359 0.44488 0.00295 0.0
C122 C 0.49623 0.50698 0.91213 0.0
C123 C 0.56079 0.52736 0.9092 0.0
C124 C 0.60698 0.51065 0.95617 0.0
C125 C 0.58854 0.46848 0.00288 0.0
H126 H 0.67814 0.3139 0.27856 0.0
H127 H 0.81902 0.18568 0.33559 0.0
H128 H 0.70259 0.1419 0.15888 0.0
C129 C 0.70361 0.27155 0.26835 0.0
C130 C 0.68737 0.23209 0.21111 0.0
C131 C 0.75195 0.25563 0.313 0.0
C132 C 0.7839 0.20035 0.29985 0.0
C133 C 0.76561 0.159 0.24514 0.0
C134 C 0.71841 0.17543 0.19991 0.0
H135 H 0.36922 0.0761 0.05701 0.0
H136 H 0.53472 0.12605 0.95329 0.0
H137 H 0.4586 0.92914 0.95267 0.0
C138 C 0.407 0.06215 0.02738 0.0
C139 C 0.41017 -0.00246 0.00722 0.0
C140 C 0.45397 0.10841 0.01093 0.0
C141 C 0.50093 0.08999 0.96919 0.0
C142 C 0.50125 0.02499 0.94576 0.0
C143 C 0.45818 0.97955 0.96875 0.0
Zn144 Zn 0.32215 0.81673 -0.00076 0.0
Zn145 Zn 0.22935 0.87929 0.98948 0.0
O146 O 0.22232 0.83442 0.07483 0.0
O147 O 0.28802 0.75859 0.06082 0.0
O148 O 0.15172 0.92902 0.98085 0.0
O149 O 0.38072 0.89333 0.03207 0.0
O150 O 0.3036 0.9499 -0.00392 0.0
C151 C 0.24632 0.78379 0.09272 0.0
C152 C 0.26597 0.79152 0.87639 0.0
O153 O 0.22346 0.82253 0.90295 0.0
O154 O 0.31904 0.78578 0.90735 0.0
C155 C 0.09923 0.91299 0.00429 0.0
O156 O 0.09424 0.86099 0.03576 0.0
C157 C 0.36133 0.94688 0.01851 0.0
Zn158 Zn 0.06641 0.40081 0.29539 0.0
Zn159 Zn 0.13063 0.51084 0.28964 0.0
O160 O 0.08217 0.53708 0.36936 0.0
O161 O 0.02552 0.44468 0.36819 0.0
O162 O 0.18598 0.59052 0.27915 0.0
O163 O 0.14431 0.35297 0.31471 0.0
O164 O 0.19953 0.44341 0.29961 0.0
C165 C 0.03942 0.50157 0.39283 0.0
C166 C 0.0352 0.45271 0.17656 0.0
O167 O 0.07247 0.49912 0.20388 0.0
O168 O 0.02661 0.4012 0.20404 0.0
C169 C 0.16533 0.63473 0.24666 0.0
O170 O 0.10576 0.62922 0.22128 0.0
C171 C 0.19772 0.38412 0.31089 0.0
Zn172 Zn 0.79267 0.56723 0.90181 0.0
Zn173 Zn 0.78732 0.63155 0.01192 0.0
O174 O 0.86683 0.58295 0.03826 0.0
O175 O 0.86517 0.52606 0.94588 0.0
O176 O 0.77711 0.68707 0.09155 0.0
O177 O 0.81232 0.64511 0.85385 0.0
O178 O 0.79749 0.7004 0.94434 0.0
C179 C 0.89002 0.54003 0.00277 0.0
C180 C 0.67404 0.53652 0.95376 0.0
O181 O 0.70154 0.57363 0.00024 0.0
O182 O 0.70134 0.52787 0.90218 0.0
C183 C 0.74471 0.66661 0.13588 0.0
O184 O 0.71921 0.60706 0.13054 0.0
C185 C 0.80877 0.69858 0.88503 0.0
Zn186 Zn 0.81567 -0.00056 0.32383 0.0
Zn187 Zn 0.87814 0.98966 0.23089 0.0
O188 O 0.83348 0.07501 0.22357 0.0
O189 O 0.75784 0.06114 0.28959 0.0
O190 O 0.92805 0.9809 0.15336 0.0
O191 O 0.89219 0.03203 0.38265 0.0
O192 O 0.9486 -0.00385 0.30539 0.0
C193 C 0.78301 0.09296 0.2477 0.0
C194 C 0.79013 0.87676 0.26745 0.0
O195 O 0.82122 0.90327 0.22488 0.0
O196 O 0.78445 0.90766 0.32058 0.0
C197 C 0.9118 0.00371 0.10049 0.0
O198 O 0.85954 0.03461 0.09511 0.0
C199 C 0.94566 0.01849 0.36322 0.0
Zn200 Zn 0.29267 0.06723 0.40181 0.0
Zn201 Zn 0.28732 0.13155 0.51192 0.0
O202 O 0.36683 0.08295 0.53826 0.0
O203 O 0.36517 0.02606 0.44588 0.0
O204 O 0.27711 0.18707 0.59155 0.0
O205 O 0.31232 0.14511 0.35385 0.0
O206 O 0.29749 0.2004 0.44434 0.0
C207 C 0.39002 0.04003 0.50277 0.0
C208 C 0.17404 0.03652 0.45376 0.0
O209 O 0.20154 0.07363 0.50024 0.0
O210 O 0.20134 0.02787 0.40218 0.0
C211 C 0.24471 0.16661 0.63588 0.0
O212 O 0.21921 0.10706 0.63054 0.0
C213 C 0.30877 0.19858 0.38503 0.0
Zn214 Zn 0.31567 0.49944 0.82383 0.0
Zn215 Zn 0.37814 0.48966 0.73089 0.0
O216 O 0.33348 0.57501 0.72357 0.0
O217 O 0.25784 0.56114 0.78959 0.0
O218 O 0.42805 0.4809 0.65336 0.0
O219 O 0.39219 0.53203 0.88265 0.0
O220 O 0.4486 0.49615 0.80539 0.0
C221 C 0.28301 0.59296 0.7477 0.0
C222 C 0.29013 0.37676 0.76745 0.0
O223 O 0.32122 0.40327 0.72488 0.0
O224 O 0.28445 0.40766 0.82059 0.0
C225 C 0.4118 0.50372 0.60049 0.0
O226 O 0.35954 0.53461 0.59511 0.0
C227 C 0.44566 0.51849 0.86322 0.0
Zn228 Zn 0.82215 0.31673 0.49924 0.0
Zn229 Zn 0.72935 0.37929 0.48948 0.0
O230 O 0.72232 0.33442 0.57483 0.0
O231 O 0.78802 0.25859 0.56082 0.0
O232 O 0.65172 0.42902 0.48085 0.0
O233 O 0.88072 0.39333 0.53207 0.0
O234 O 0.8036 0.4499 0.49608 0.0
C235 C 0.74632 0.28379 0.59272 0.0
C236 C 0.76597 0.29152 0.37639 0.0
O237 O 0.72346 0.32253 0.40295 0.0
O238 O 0.81904 0.28578 0.40735 0.0
C239 C 0.59923 0.41299 0.50429 0.0
O240 O 0.59424 0.36099 0.53576 0.0
C241 C 0.86133 0.44688 0.51851 0.0
Zn242 Zn 0.56641 0.90081 0.79539 0.0
Zn243 Zn 0.63063 0.01084 0.78964 0.0
O244 O 0.58217 0.03708 0.86936 0.0
O245 O 0.52552 0.94468 0.86819 0.0
O246 O 0.68598 0.09052 0.77915 0.0
O247 O 0.64431 0.85297 0.81471 0.0
O248 O 0.69953 0.94341 0.79961 0.0
C249 C 0.53942 0.00157 0.89283 0.0
C250 C 0.5352 0.95271 0.67656 0.0
O251 O 0.57247 -0.00088 0.70388 0.0
O252 O 0.52661 0.9012 0.70404 0.0
C253 C 0.66533 0.13473 0.74666 0.0
O254 O 0.60576 0.12922 0.72128 0.0
C255 C 0.69772 0.88412 0.81089 0.0
Zn256 Zn -0.0025 0.32397 0.81729 0.0
Zn257 Zn 0.98807 0.23076 0.87975 0.0
O258 O 0.07323 0.22394 0.83486 0.0
O259 O 0.05946 0.29047 0.75948 0.0
O260 O 0.97967 0.15299 0.92941 0.0
O261 O 0.02977 0.38247 0.89414 0.0
O262 O -0.00551 0.30483 0.95058 0.0
C263 C 0.09123 0.24848 0.78449 0.0
C264 C 0.87499 0.26708 0.79175 0.0
O265 O 0.90163 0.22464 0.82293 0.0
O266 O 0.90575 0.32024 0.78594 0.0
C267 C 0.00283 0.10042 0.91318 0.0
O268 O 0.034 0.09546 0.86102 0.0
C269 C 0.0165 0.36275 0.9477 0.0
Zn270 Zn 0.4975 0.82397 0.31729 0.0
Zn271 Zn 0.48807 0.73076 0.37975 0.0
O272 O 0.57323 0.72394 0.33486 0.0
O273 O 0.55946 0.79048 0.25948 0.0
O274 O 0.47967 0.65299 0.42941 0.0
O275 O 0.52977 0.88247 0.39414 0.0
O276 O 0.49449 0.80484 0.45058 0.0
C277 C 0.59122 0.74848 0.28449 0.0
C278 C 0.37499 0.76708 0.29175 0.0
O279 O 0.40163 0.72464 0.32293 0.0
O280 O 0.40575 0.82024 0.28594 0.0
C281 C 0.50283 0.60042 0.41318 0.0
O282 O 0.534 0.59546 0.36102 0.0
C283 C 0.5165 0.86275 0.4477 0.0
Zn284 Zn 0.89942 0.79411 0.56768 0.0
Zn285 Zn 0.0094 0.78856 0.63226 0.0
O286 O 0.0356 0.86827 0.58381 0.0
O287 O 0.9434 0.8669 0.52672 0.0
O288 O 0.0891 0.77814 0.68759 0.0
O289 O 0.85167 0.81349 0.64575 0.0
O290 O 0.94204 0.79857 0.70121 0.0
C291 C 0.00019 0.89168 0.54087 0.0
C292 C 0.95144 0.67547 0.53685 0.0
O293 O -0.00223 0.70291 0.57416 0.0
O294 O 0.89993 0.70279 0.52811 0.0
C295 C 0.1334 0.74611 0.66669 0.0
O296 O 0.12787 0.72105 0.60694 0.0
C297 C 0.88282 0.80985 0.69931 0.0
Zn298 Zn 0.39942 0.29411 0.06769 0.0
Zn299 Zn 0.5094 0.28856 0.13226 0.0
O300 O 0.5356 0.36827 0.08381 0.0
O301 O 0.4434 0.3669 0.02672 0.0
O302 O 0.5891 0.27814 0.18759 0.0
O303 O 0.35167 0.31349 0.14575 0.0
O304 O 0.44204 0.29857 0.20121 0.0
C305 C 0.50019 0.39168 0.04087 0.0
C306 C 0.45144 0.17547 0.03685 0.0
O307 O 0.49777 0.20291 0.07416 0.0
O308 O 0.39993 0.20279 0.02811 0.0
C309 C 0.6334 0.24611 0.16669 0.0
O310 O 0.62787 0.22105 0.10694 0.0
C311 C 0.38282 0.30985 0.19931 0.0
loop_
_geom_bond_atom_site_label_1
_geom_bond_atom_site_label_2
_geom_bond_distance
_geom_bond_site_symmetry_2
_ccdc_geom_bond_type
H0 C3 0.931 . S
H1 C6 0.928 . S
H2 C8 0.930 . S
C3 H0 0.931 . S
C3 C4 1.413 1_655 S
C3 C5 1.360 1_655 S
C4 C3 1.413 1_455 S
C4 C8 1.429 1_554 S
C5 C3 1.360 1_455 S
C5 C6 1.372 1_545 S
C6 H1 0.928 . S
C6 C5 1.372 1_565 S
C6 C7 1.403 1_565 S
C7 C6 1.403 1_545 S
C7 C8 1.393 1_554 S
C8 H2 0.930 . S
C8 C4 1.429 1_556 S
C8 C7 1.393 1_556 S
H9 C12 0.931 . S
H10 C15 0.928 . S
H11 C17 0.930 . S
C12 H9 0.931 . S
C12 C13 1.413 . S
C12 C14 1.360 . S
C13 C12 1.413 . S
C13 C17 1.429 . S
C14 C12 1.360 . S
C14 C15 1.372 . S
C15 H10 0.928 . S
C15 C14 1.372 . S
C15 C16 1.404 . S
C16 C15 1.404 . S
C16 C17 1.391 . S
C17 H11 0.930 . S
C17 C13 1.429 . S
C17 C16 1.391 . S
H18 C21 0.931 . S
H19 C24 0.928 . S
H20 C26 0.930 1_556 S
C21 H18 0.931 . S
C21 C22 1.413 . S
C21 C23 1.360 . S
C22 C21 1.413 . S
C22 C26 1.429 . S
C23 C21 1.360 . S
C23 C24 1.372 1_655 S
C24 H19 0.928 . S
C24 C23 1.372 1_455 S
C24 C25 1.404 1_455 S
C25 C24 1.404 1_655 S
C25 C26 1.391 . S
C26 H20 0.930 1_554 S
C26 C22 1.429 . S
C26 C25 1.391 . S
H27 C30 0.931 . S
H28 C33 0.928 . S
H29 C35 0.930 . S
C30 H27 0.931 . S
C30 C31 1.413 . S
C30 C32 1.360 . S
C31 C30 1.413 . S
C31 C35 1.429 . S
C32 C30 1.360 . S
C32 C33 1.372 . S
C33 H28 0.928 . S
C33 C32 1.372 . S
C33 C34 1.404 . S
C34 C33 1.404 . S
C34 C35 1.391 . S
C35 H29 0.930 . S
C35 C31 1.429 . S
C35 C34 1.391 . S
H36 C39 0.931 1_655 S
H37 C42 0.928 . S
H38 C44 0.930 . S
C39 H36 0.931 1_455 S
C39 C40 1.413 . S
C39 C41 1.360 . S
C40 C39 1.413 . S
C40 C44 1.429 . S
C41 C39 1.360 . S
C41 C42 1.372 1_565 S
C42 H37 0.928 . S
C42 C41 1.372 1_545 S
C42 C43 1.404 1_545 S
C43 C42 1.404 1_565 S
C43 C44 1.391 . S
C44 H38 0.930 . S
C44 C40 1.429 . S
C44 C43 1.391 . S
H45 C48 0.931 . S
H46 C51 0.928 . S
H47 C53 0.930 . S
C48 H45 0.931 . S
C48 C49 1.413 . S
C48 C50 1.360 . S
C49 C48 1.413 . S
C49 C53 1.429 . S
C50 C48 1.360 . S
C50 C51 1.372 . S
C51 H46 0.928 . S
C51 C50 1.372 . S
C51 C52 1.404 . S
C52 C51 1.404 . S
C52 C53 1.391 . S
C53 H47 0.930 . S
C53 C49 1.429 . S
C53 C52 1.391 . S
H54 C57 0.931 . S
H55 C60 0.928 . S
H56 C62 0.930 . S
C57 H54 0.931 . S
C57 C58 1.413 . S
C57 C59 1.360 . S
C58 C57 1.413 . S
C58 C62 1.429 . S
C59 C57 1.360 . S
C59 C60 1.372 1_655 S
C60 H55 0.928 . S
C60 C59 1.372 1_455 S
C60 C61 1.404 . S
C61 C60 1.404 . S
C61 C62 1.391 1_455 S
C62 H56 0.930 . S
C62 C58 1.429 . S
C62 C61 1.391 1_655 S
H63 C66 0.931 . S
H64 C69 0.928 . S
H65 C71 0.930 . S
C66 H63 0.931 . S
C66 C67 1.413 . S
C66 C68 1.360 . S
C67 C66 1.413 . S
C67 C71 1.429 . S
C68 C66 1.360 . S
C68 C69 1.372 . S
C69 H64 0.928 . S
C69 C68 1.372 . S
C69 C70 1.404 . S
C70 C69 1.404 . S
C70 C71 1.391 . S
C71 H65 0.930 . S
C71 C67 1.429 . S
C71 C70 1.391 . S
H72 C75 0.931 . S
H73 C78 0.928 . S
H74 C80 0.930 . S
C75 H72 0.931 . S
C75 C76 1.413 . S
C75 C77 1.360 . S
C76 C75 1.413 . S
C76 C80 1.429 . S
C77 C75 1.360 . S
C77 C78 1.372 . S
C78 H73 0.928 . S
C78 C77 1.372 . S
C78 C79 1.404 . S
C79 C78 1.404 . S
C79 C80 1.391 . S
C80 H74 0.930 . S
C80 C76 1.429 . S
C80 C79 1.391 . S
H81 C84 0.931 . S
H82 C87 0.928 . S
H83 C89 0.930 . S
C84 H81 0.931 . S
C84 C85 1.413 . S
C84 C86 1.360 1_545 S
C85 C84 1.413 . S
C85 C89 1.429 1_545 S
C86 C84 1.360 1_565 S
C86 C87 1.372 . S
C87 H82 0.928 . S
C87 C86 1.372 . S
C87 C88 1.404 . S
C88 C87 1.404 . S
C88 C89 1.391 . S
C89 H83 0.930 . S
C89 C85 1.429 1_565 S
C89 C88 1.391 . S
H90 C93 0.931 . S
H91 C96 0.928 . S
H92 C98 0.930 . S
C93 H90 0.931 . S
C93 C94 1.413 . S
C93 C95 1.360 . S
C94 C93 1.413 . S
C94 C98 1.429 . S
C95 C93 1.360 . S
C95 C96 1.372 . S
C96 H91 0.928 . S
C96 C95 1.372 . S
C96 C97 1.404 . S
C97 C96 1.404 . S
C97 C98 1.391 . S
C98 H92 0.930 . S
C98 C94 1.429 . S
C98 C97 1.391 . S
H99 C102 0.931 . S
H100 C105 0.928 . S
H101 C107 0.930 . S
C102 H99 0.931 . S
C102 C103 1.413 . S
C102 C104 1.360 . S
C103 C102 1.413 . S
C103 C107 1.429 . S
C104 C102 1.360 . S
C104 C105 1.372 . S
C105 H100 0.928 . S
C105 C104 1.372 . S
C105 C106 1.404 . S
C106 C105 1.404 . S
C106 C107 1.391 . S
C107 H101 0.930 . S
C107 C103 1.429 . S
C107 C106 1.391 . S
H108 C111 0.931 . S
H109 C114 0.928 . S
H110 C116 0.930 . S
C111 H108 0.931 . S
C111 C112 1.413 . S
C111 C113 1.360 . S
C112 C111 1.413 . S
C112 C116 1.429 . S
C113 C111 1.360 . S
C113 C114 1.372 . S
C114 H109 0.928 . S
C114 C113 1.372 . S
C114 C115 1.404 . S
C115 C114 1.404 . S
C115 C116 1.391 . S
C116 H110 0.930 . S
C116 C112 1.429 . S
C116 C115 1.391 . S
H117 C120 0.931 . S
H118 C123 0.928 . S
H119 C125 0.930 . S
C120 H117 0.931 . S
C120 C121 1.413 1_556 S
C120 C122 1.360 . S
C121 C120 1.413 1_554 S
C121 C125 1.429 . S
C122 C120 1.360 . S
C122 C123 1.372 . S
C123 H118 0.928 . S
C123 C122 1.372 . S
C123 C124 1.404 . S
C124 C123 1.404 . S
C124 C125 1.391 1_556 S
C125 H119 0.930 . S
C125 C121 1.429 . S
C125 C124 1.391 1_554 S
H126 C129 0.931 . S
H127 C132 0.928 . S
H128 C134 0.930 . S
C129 H126 0.931 . S
C129 C130 1.413 . S
C129 C131 1.360 . S
C130 C129 1.413 . S
C130 C134 1.429 . S
C131 C129 1.360 . S
C131 C132 1.372 . S
C132 H127 0.928 . S
C132 C131 1.372 . S
C132 C133 1.404 . S
C133 C132 1.404 . S
C133 C134 1.391 . S
C134 H128 0.930 . S
C134 C130 1.429 . S
C134 C133 1.391 . S
H135 C138 0.931 . S
H136 C141 0.928 . S
H137 C143 0.930 1_565 S
C138 H135 0.931 . S
C138 C139 1.413 1_554 S
C138 C140 1.360 1_554 S
C139 C138 1.413 1_556 S
C139 C143 1.429 . S
C140 C138 1.360 1_556 S
C140 C141 1.372 . S
C141 H136 0.928 . S
C141 C140 1.372 . S
C141 C142 1.404 . S
C142 C141 1.404 . S
C142 C143 1.391 . S
C143 H137 0.930 1_545 S
C143 C139 1.429 . S
C143 C142 1.391 . S
Zn144 O147 2.031 1_556 S
Zn144 O149 2.049 . S
Zn144 O154 2.067 . S
Zn145 O146 1.962 . S
Zn145 O148 1.986 . S
Zn145 O150 1.996 . S
Zn145 O153 1.943 1_554 S
O146 Zn145 1.962 . S
O146 C151 1.254 . S
O147 Zn144 2.031 1_554 S
O147 C151 1.269 . S
O148 Zn145 1.986 . S
O148 C155 1.262 . S
O149 Zn144 2.049 . S
O149 C157 1.260 . S
O150 Zn145 1.996 . S
O150 C157 1.257 1_554 S
C151 O146 1.254 . S
C151 O147 1.269 . S
C152 O153 1.249 . S
C152 O154 1.270 . S
O153 Zn145 1.943 1_556 S
O153 C152 1.249 . S
O154 Zn144 2.067 . S
O154 C152 1.270 . S
C155 O148 1.262 . S
C155 O156 1.232 . S
O156 C155 1.232 . S
C157 O149 1.260 . S
C157 O150 1.257 1_556 S
Zn158 O161 2.031 . S
Zn158 O163 2.049 . S
Zn158 O168 2.067 . S
Zn159 O160 1.962 . S
Zn159 O162 1.986 . S
Zn159 O164 1.996 . S
Zn159 O167 1.943 . S
O160 Zn159 1.962 . S
O160 C165 1.254 . S
O161 Zn158 2.031 . S
O161 C165 1.269 . S
O162 Zn159 1.986 . S
O162 C169 1.262 . S
O163 Zn158 2.049 . S
O163 C171 1.260 . S
O164 Zn159 1.996 . S
O164 C171 1.257 . S
C165 O160 1.254 . S
C165 O161 1.269 . S
C166 O167 1.249 . S
C166 O168 1.270 . S
O167 Zn159 1.943 . S
O167 C166 1.249 . S
O168 Zn158 2.067 . S
O168 C166 1.270 . S
C169 O162 1.262 . S
C169 O170 1.232 . S
O170 C169 1.232 . S
C171 O163 1.260 . S
C171 O164 1.257 . S
Zn172 O175 2.031 . S
Zn172 O177 2.049 . S
Zn172 O182 2.067 . S
Zn173 O174 1.962 . S
Zn173 O176 1.986 . S
Zn173 O178 1.996 1_554 S
Zn173 O181 1.943 . S
O174 Zn173 1.962 . S
O174 C179 1.254 . S
O175 Zn172 2.031 . S
O175 C179 1.269 1_556 S
O176 Zn173 1.986 . S
O176 C183 1.262 . S
O177 Zn172 2.049 . S
O177 C185 1.260 . S
O178 Zn173 1.996 1_556 S
O178 C185 1.257 . S
C179 O174 1.254 . S
C179 O175 1.269 1_554 S
C180 O181 1.249 1_556 S
C180 O182 1.270 . S
O181 Zn173 1.943 . S
O181 C180 1.249 1_554 S
O182 Zn172 2.067 . S
O182 C180 1.270 . S
C183 O176 1.262 . S
C183 O184 1.232 . S
O184 C183 1.232 . S
C185 O177 1.260 . S
C185 O178 1.257 . S
Zn186 O189 2.031 1_565 S
Zn186 O191 2.049 . S
Zn186 O196 2.067 . S
Zn187 O188 1.962 . S
Zn187 O190 1.986 . S
Zn187 O192 1.996 . S
Zn187 O195 1.943 1_545 S
O188 Zn187 1.962 . S
O188 C193 1.254 . S
O189 Zn186 2.031 1_545 S
O189 C193 1.269 . S
O190 Zn187 1.986 . S
O190 C197 1.262 . S
O191 Zn186 2.049 . S
O191 C199 1.260 . S
O192 Zn187 1.996 . S
O192 C199 1.257 1_545 S
C193 O188 1.254 . S
C193 O189 1.269 . S
C194 O195 1.249 . S
C194 O196 1.270 . S
O195 Zn187 1.943 1_565 S
O195 C194 1.249 . S
O196 Zn186 2.067 . S
O196 C194 1.270 . S
C197 O190 1.262 . S
C197 O198 1.232 . S
O198 C197 1.232 . S
C199 O191 1.260 . S
C199 O192 1.257 1_565 S
Zn200 O203 2.031 . S
Zn200 O205 2.049 . S
Zn200 O210 2.067 . S
Zn201 O202 1.962 . S
Zn201 O204 1.986 . S
Zn201 O206 1.996 . S
Zn201 O209 1.943 . S
O202 Zn201 1.962 . S
O202 C207 1.254 . S
O203 Zn200 2.031 . S
O203 C207 1.269 . S
O204 Zn201 1.986 . S
O204 C211 1.262 . S
O205 Zn200 2.049 . S
O205 C213 1.260 . S
O206 Zn201 1.996 . S
O206 C213 1.257 . S
C207 O202 1.254 . S
C207 O203 1.269 . S
C208 O209 1.249 . S
C208 O210 1.270 . S
O209 Zn201 1.943 . S
O209 C208 1.249 . S
O210 Zn200 2.067 . S
O210 C208 1.270 . S
C211 O204 1.262 . S
C211 O212 1.232 . S
O212 C211 1.232 . S
C213 O205 1.260 . S
C213 O206 1.257 . S
Zn214 O217 2.031 . S
Zn214 O219 2.049 . S
Zn214 O224 2.067 . S
Zn215 O216 1.962 . S
Zn215 O218 1.986 . S
Zn215 O220 1.996 . S
Zn215 O223 1.943 . S
O216 Zn215 1.962 . S
O216 C221 1.254 . S
O217 Zn214 2.031 . S
O217 C221 1.269 . S
O218 Zn215 1.986 . S
O218 C225 1.262 . S
O219 Zn214 2.049 . S
O219 C227 1.260 . S
O220 Zn215 1.996 . S
O220 C227 1.257 . S
C221 O216 1.254 . S
C221 O217 1.269 . S
C222 O223 1.249 . S
C222 O224 1.270 . S
O223 Zn215 1.943 . S
O223 C222 1.249 . S
O224 Zn214 2.067 . S
O224 C222 1.270 . S
C225 O218 1.262 . S
C225 O226 1.232 . S
O226 C225 1.232 . S
C227 O219 1.260 . S
C227 O220 1.257 . S
Zn228 O231 2.031 . S
Zn228 O233 2.049 . S
Zn228 O238 2.067 . S
Zn229 O230 1.962 . S
Zn229 O232 1.986 . S
Zn229 O234 1.996 . S
Zn229 O237 1.943 . S
O230 Zn229 1.962 . S
O230 C235 1.254 . S
O231 Zn228 2.031 . S
O231 C235 1.269 . S
O232 Zn229 1.986 . S
O232 C239 1.262 . S
O233 Zn228 2.049 . S
O233 C241 1.260 . S
O234 Zn229 1.996 . S
O234 C241 1.257 . S
C235 O230 1.254 . S
C235 O231 1.269 . S
C236 O237 1.249 . S
C236 O238 1.270 . S
O237 Zn229 1.943 . S
O237 C236 1.249 . S
O238 Zn228 2.067 . S
O238 C236 1.270 . S
C239 O232 1.262 . S
C239 O240 1.232 . S
O240 C239 1.232 . S
C241 O233 1.260 . S
C241 O234 1.257 . S
Zn242 O245 2.031 . S
Zn242 O247 2.049 . S
Zn242 O252 2.067 . S
Zn243 O244 1.962 . S
Zn243 O246 1.986 . S
Zn243 O248 1.996 1_545 S
Zn243 O251 1.943 . S
O244 Zn243 1.962 . S
O244 C249 1.254 . S
O245 Zn242 2.031 . S
O245 C249 1.269 1_565 S
O246 Zn243 1.986 . S
O246 C253 1.262 . S
O247 Zn242 2.049 . S
O247 C255 1.260 . S
O248 Zn243 1.996 1_565 S
O248 C255 1.257 . S
C249 O244 1.254 . S
C249 O245 1.269 1_545 S
C250 O251 1.249 1_565 S
C250 O252 1.270 . S
O251 Zn243 1.943 . S
O251 C250 1.249 1_545 S
O252 Zn242 2.067 . S
O252 C250 1.270 . S
C253 O246 1.262 . S
C253 O254 1.232 . S
O254 C253 1.232 . S
C255 O247 1.260 . S
C255 O248 1.257 . S
Zn256 O259 2.031 1_655 S
Zn256 O261 2.049 . S
Zn256 O266 2.067 . S
Zn257 O258 1.962 . S
Zn257 O260 1.986 . S
Zn257 O262 1.996 . S
Zn257 O265 1.943 1_455 S
O258 Zn257 1.962 . S
O258 C263 1.254 . S
O259 Zn256 2.031 1_455 S
O259 C263 1.269 . S
O260 Zn257 1.986 . S
O260 C267 1.262 . S
O261 Zn256 2.049 . S
O261 C269 1.260 . S
O262 Zn257 1.996 . S
O262 C269 1.257 1_455 S
C263 O258 1.254 . S
C263 O259 1.269 . S
C264 O265 1.249 . S
C264 O266 1.270 . S
O265 Zn257 1.943 1_655 S
O265 C264 1.249 . S
O266 Zn256 2.067 . S
O266 C264 1.270 . S
C267 O260 1.262 . S
C267 O268 1.232 . S
O268 C267 1.232 . S
C269 O261 1.260 . S
C269 O262 1.257 1_655 S
Zn270 O273 2.031 . S
Zn270 O275 2.049 . S
Zn270 O280 2.067 . S
Zn271 O272 1.962 . S
Zn271 O274 1.986 . S
Zn271 O276 1.996 . S
Zn271 O279 1.943 . S
O272 Zn271 1.962 . S
O272 C277 1.254 . S
O273 Zn270 2.031 . S
O273 C277 1.269 . S
O274 Zn271 1.986 . S
O274 C281 1.262 . S
O275 Zn270 2.049 . S
O275 C283 1.260 . S
O276 Zn271 1.996 . S
O276 C283 1.257 . S
C277 O272 1.254 . S
C277 O273 1.269 . S
C278 O279 1.249 . S
C278 O280 1.270 . S
O279 Zn271 1.943 . S
O279 C278 1.249 . S
O280 Zn270 2.067 . S
O280 C278 1.270 . S
C281 O274 1.262 . S
C281 O282 1.232 . S
O282 C281 1.232 . S
C283 O275 1.260 . S
C283 O276 1.257 . S
Zn284 O287 2.031 . S
Zn284 O289 2.049 . S
Zn284 O294 2.067 . S
Zn285 O286 1.962 . S
Zn285 O288 1.986 . S
Zn285 O290 1.996 1_455 S
Zn285 O293 1.943 . S
O286 Zn285 1.962 . S
O286 C291 1.254 . S
O287 Zn284 2.031 . S
O287 C291 1.269 1_655 S
O288 Zn285 1.986 . S
O288 C295 1.262 . S
O289 Zn284 2.049 . S
O289 C297 1.260 . S
O290 Zn285 1.996 1_655 S
O290 C297 1.257 . S
C291 O286 1.254 . S
C291 O287 1.269 1_455 S
C292 O293 1.249 1_655 S
C292 O294 1.270 . S
O293 Zn285 1.943 . S
O293 C292 1.249 1_455 S
O294 Zn284 2.067 . S
O294 C292 1.270 . S
C295 O288 1.262 . S
C295 O296 1.232 . S
O296 C295 1.232 . S
C297 O289 1.260 . S
C297 O290 1.257 . S
Zn298 O301 2.031 . S
Zn298 O303 2.049 . S
Zn298 O308 2.067 . S
Zn299 O300 1.962 . S
Zn299 O302 1.986 . S
Zn299 O304 1.996 . S
Zn299 O307 1.943 . S
O300 Zn299 1.962 . S
O300 C305 1.254 . S
O301 Zn298 2.031 . S
O301 C305 1.269 . S
O302 Zn299 1.986 . S
O302 C309 1.262 . S
O303 Zn298 2.049 . S
O303 C311 1.260 . S
O304 Zn299 1.996 . S
O304 C311 1.257 . S
C305 O300 1.254 . S
C305 O301 1.269 . S
C306 O307 1.249 . S
C306 O308 1.270 . S
O307 Zn299 1.943 . S
O307 C306 1.249 . S
O308 Zn298 2.067 . S
O308 C306 1.270 . S
C309 O302 1.262 . S
C309 O310 1.232 . S
O310 C309 1.232 . S
C311 O303 1.260 . S
C311 O304 1.257 . S
C152 C50 1.515 . S
C165 C61 1.504 . S
C67 C185 1.522 . S
C199 C41 1.459 1_655 S
C211 C95 1.491 . S
C225 C113 1.461 . S
C106 C235 1.461 . S
C250 C86 1.560 . S
C104 C264 1.506 . S
C283 C88 1.454 . S
C94 C263 1.488 . S
C281 C112 1.450 . S
C70 C297 1.512 . S
C40 C291 1.512 . S
C49 C295 1.495 . S
C59 C292 1.557 . S
C34 C194 1.506 . S
C133 C193 1.469 . S
C157 C139 1.462 1_565 S
C171 C77 1.528 . S
C43 C208 1.532 1_565 S
C253 C103 1.494 . S
C207 C85 1.516 . S
C239 C115 1.440 . S
C236 C131 1.515 . S
C142 C249 1.504 . S
C76 C213 1.523 . S
C227 C122 1.459 . S
C32 C183 1.491 . S
C197 C5 1.461 1_655 S
C151 C16 1.461 . S
C166 C23 1.560 1_455 S
C14 C278 1.506 . S
C25 C269 1.454 1_554 S
C31 C277 1.488 . S
C4 C267 1.450 1_554 S
C311 C79 1.512 . S
C305 C121 1.513 . S
C309 C130 1.495 . S
C140 C306 1.557 1_556 S
C97 C222 1.506 . S
C221 C52 1.469 . S
C241 C58 1.462 . S
C255 C68 1.528 . S
C124 C180 1.532 . S
C169 C13 1.494 . S
C22 C179 1.516 . S
C155 C7 1.438 1_565 S
