# Generated by pormake.
# Topology anh, (6,3)-cn, num edge types: 1
# Building blocks:
#     Node 0, Type 0, BuildingBlock: VOLQOD_clean_sbu_1, # of connection points: 6
#     Node 1, Type 0, BuildingBlock: VOLQOD_clean_sbu_1, # of connection points: 6
#     Node 2, Type 0, BuildingBlock: VOLQOD_clean_sbu_1, # of connection points: 6
#     Node 3, Type 1, BuildingBlock: BETDAH_clean_linker_0, # of connection points: 3
#     Node 4, Type 1, BuildingBlock: BETDAH_clean_linker_0, # of connection points: 3
#     Node 5, Type 1, BuildingBlock: BETDAH_clean_linker_0, # of connection points: 3
#     Node 6, Type 1, BuildingBlock: BETDAH_clean_linker_0, # of connection points: 3
#     Node 7, Type 1, BuildingBlock: BETDAH_clean_linker_0, # of connection points: 3
#     Node 8, Type 1, BuildingBlock: BETDAH_clean_linker_0, # of connection points: 3
#     Edge 9, Type (0, 1), BuildingBlock: MIFKUJ_clean_linker_0, # of connection points: 2
#     Edge 10, Type (0, 1), BuildingBlock: MIFKUJ_clean_linker_0, # of connection points: 2
#     Edge 11, Type (0, 1), BuildingBlock: MIFKUJ_clean_linker_0, # of connection points: 2
#     Edge 12, Type (0, 1), BuildingBlock: MIFKUJ_clean_linker_0, # of connection points: 2
#     Edge 13, Type (0, 1), BuildingBlock: MIFKUJ_clean_linker_0, # of connection points: 2
#     Edge 14, Type (0, 1), BuildingBlock: MIFKUJ_clean_linker_0, # of connection points: 2
#     Edge 15, Type (0, 1), BuildingBlock: MIFKUJ_clean_linker_0, # of connection points: 2
#     Edge 16, Type (0, 1), BuildingBlock: MIFKUJ_clean_linker_0, # of connection points: 2
#     Edge 17, Type (0, 1), BuildingBlock: MIFKUJ_clean_linker_0, # of connection points: 2
#     Edge 18, Type (0, 1), BuildingBlock: MIFKUJ_clean_linker_0, # of connection points: 2
#     Edge 19, Type (0, 1), BuildingBlock: MIFKUJ_clean_linker_0, # of connection points: 2
#     Edge 20, Type (0, 1), BuildingBlock: MIFKUJ_clean_linker_0, # of connection points: 2
#     Edge 21, Type (0, 1), BuildingBlock: MIFKUJ_clean_linker_0, # of connection points: 2
#     Edge 22, Type (0, 1), BuildingBlock: MIFKUJ_clean_linker_0, # of connection points: 2
#     Edge 23, Type (0, 1), BuildingBlock: MIFKUJ_clean_linker_0, # of connection points: 2
#     Edge 24, Type (0, 1), BuildingBlock: MIFKUJ_clean_linker_0, # of connection points: 2
#     Edge 25, Type (0, 1), BuildingBlock: MIFKUJ_clean_linker_0, # of connection points: 2
#     Edge 26, Type (0, 1), BuildingBlock: MIFKUJ_clean_linker_0, # of connection points: 2
# Relax obj value: 0.156
# Max RMSD: 0.216
# Mean RMSD: 0.138
data_MOF--net-anh--node1-VOLQOD_clean_sbu_1--node2-BETDAH_clean_linker_0--edge1-MIFKUJ_clean_linker_0
_symmetry_space_group_name_H-M    P1
_symmetry_Int_Tables_number       1
_symmetry_cell_setting            triclinic
loop_
_symmetry_equiv_pos_as_xyz
'x, y, z'
_cell_length_a     37.653002
_cell_length_b     37.633577
_cell_length_c     73.195903
_cell_angle_alpha  92.710239
_cell_angle_beta   92.50091
_cell_angle_gamma 120.115
loop_
_atom_site_label
_atom_site_type_symbol
_atom_site_fract_x
_atom_site_fract_y
_atom_site_fract_z
_atom_type_partial_charge
O0 O 0.04815 0.63455 0.2068 0.0
Zn1 Zn 0.04721 0.64513 0.17985 0.0
O2 O 0.05351 0.60489 0.16438 0.0
Zn3 Zn 0.00403 0.57068 0.14825 0.0
Zn4 Zn 0.06369 0.57054 0.18022 0.0
Zn5 Zn 0.09923 0.63206 0.14911 0.0
O6 O 0.01635 0.5675 0.12195 0.0
O7 O 0.08207 0.61602 0.12214 0.0
O8 O 0.99306 0.642 0.17288 0.0
O9 O 0.96714 0.5944 0.14926 0.0
O10 O 0.97212 0.51314 0.15652 0.0
O11 O 0.01449 0.514 0.17885 0.0
O12 O 0.11314 0.56702 0.17384 0.0
O13 O 0.09394 0.70278 0.17669 0.0
O14 O 0.14115 0.61503 0.15415 0.0
O15 O 0.12684 0.69304 0.15422 0.0
C16 C 0.06006 0.6131 0.21529 0.0
C17 C 0.04853 0.58847 0.11354 0.0
C18 C 0.98044 0.49559 0.16909 0.0
C19 C 0.96547 0.62117 0.1599 0.0
C20 C 0.14186 0.58785 0.16361 0.0
C21 C 0.12245 0.71685 0.16567 0.0
O22 O 0.07046 0.59006 0.20663 0.0
O23 O 0.5036 0.05769 0.45513 0.0
Zn24 Zn 0.49165 0.05596 0.48186 0.0
O25 O 0.52764 0.04247 0.49629 0.0
Zn26 Zn 0.56776 0.08956 0.51221 0.0
Zn27 Zn 0.55689 0.02601 0.4797 0.0
Zn28 Zn 0.49483 0.99841 0.51161 0.0
O29 O 0.56762 0.07637 0.5386 0.0
O30 O 0.51007 0.01595 0.53865 0.0
O31 O 0.49991 0.1115 0.49103 0.0
O32 O 0.55464 0.13446 0.51098 0.0
O33 O 0.62459 0.11298 0.50386 0.0
O34 O 0.61724 0.06888 0.48082 0.0
O35 O 0.55047 0.97142 0.48547 0.0
O36 O 0.43213 0.01187 0.48296 0.0
O37 O 0.50565 0.95197 0.50688 0.0
O38 O 0.43439 0.97549 0.50559 0.0
C39 C 0.52012 0.04116 0.4458 0.0
C40 C 0.54148 0.04677 0.54717 0.0
C41 C 0.63955 0.10192 0.49102 0.0
C42 C 0.52756 0.13947 0.50239 0.0
C43 C 0.52837 0.94536 0.49652 0.0
C44 C 0.41416 0.98275 0.49342 0.0
O45 O 0.53777 0.02386 0.45352 0.0
O46 O 0.51654 0.52171 0.79673 0.0
Zn47 Zn 0.50715 0.50658 0.82295 0.0
O48 O 0.55175 0.54901 0.83983 0.0
Zn49 Zn 0.53196 0.57983 0.85403 0.0
Zn50 Zn 0.59712 0.58592 0.8259 0.0
Zn51 Zn 0.57122 0.52322 0.85663 0.0
O52 O 0.53622 0.57379 0.88123 0.0
O53 O 0.55734 0.52838 0.88238 0.0
O54 O 0.45234 0.4996 0.82918 0.0
O55 O 0.47147 0.55528 0.84803 0.0
O56 O 0.5614 0.63997 0.84879 0.0
O57 O 0.60736 0.64342 0.82985 0.0
O58 O 0.64996 0.58636 0.83295 0.0
O59 O 0.50531 0.45208 0.82409 0.0
O60 O 0.63217 0.54828 0.85678 0.0
O61 O 0.54827 0.4638 0.84834 0.0
C62 C 0.54883 0.54689 0.78927 0.0
C63 C 0.54491 0.55061 0.89022 0.0
C64 C 0.5909 0.66046 0.83881 0.0
C65 C 0.44353 0.52269 0.83893 0.0
C66 C 0.65913 0.57097 0.84622 0.0
C67 C 0.52341 0.43989 0.83509 0.0
O68 O 0.58227 0.5712 0.79887 0.0
H69 H 0.49958 0.03717 0.2529 0.0
H70 H 0.63018 0.08845 0.25109 0.0
H71 H 0.55021 0.0271 0.20252 0.0
C72 C 0.52579 0.04438 0.24504 0.0
C73 C 0.51949 0.03013 0.22642 0.0
C74 C 0.5655 0.06556 0.25404 0.0
C75 C 0.59943 0.07275 0.24424 0.0
C76 C 0.59349 0.0584 0.2257 0.0
C77 C 0.55385 0.03734 0.21691 0.0
N78 N 0.62684 0.06322 0.21583 0.0
C79 C 0.66069 0.10175 0.21417 0.0
H80 H 0.55938 0.50451 0.59446 0.0
H81 H 0.62709 0.63719 0.59578 0.0
H82 H 0.63555 0.56491 0.55094 0.0
C83 C 0.57926 0.53263 0.58814 0.0
C84 C 0.595 0.5301 0.57141 0.0
C85 C 0.59125 0.57111 0.59731 0.0
C86 C 0.61789 0.60722 0.58907 0.0
C87 C 0.63385 0.60479 0.57239 0.0
C88 C 0.62297 0.5664 0.56381 0.0
N89 N 0.66126 0.64077 0.56411 0.0
C90 C 0.65032 0.66978 0.56013 0.0
H91 H 0.97618 0.52014 0.91788 0.0
H92 H 0.02302 0.43668 0.91806 0.0
H93 H 0.96188 0.44503 0.86886 0.0
C94 C 0.98158 0.49762 0.91069 0.0
C95 C 0.96782 0.48568 0.89211 0.0
C96 C 0.0009 0.47966 0.92025 0.0
C97 C 0.00823 0.45085 0.91082 0.0
C98 C 0.99384 0.43822 0.89229 0.0
C99 C 0.97304 0.45507 0.88313 0.0
N100 N -0.00129 0.40756 0.88277 0.0
C101 C 0.03687 0.41051 0.88241 0.0
H102 H 0.05804 0.61635 0.40558 0.0
H103 H 0.00694 0.48586 0.40834 0.0
H104 H 0.08441 0.56955 0.45371 0.0
C105 C 0.05379 0.59067 0.41321 0.0
C106 C 0.07361 0.59822 0.43084 0.0
C107 C 0.0303 0.55039 0.40486 0.0
C108 C 0.02466 0.51702 0.41472 0.0
C109 C 0.04361 0.52415 0.43254 0.0
C110 C 0.06856 0.56456 0.4403 0.0
N111 N 0.04013 0.49144 0.44257 0.0
C112 C 0.00356 0.45426 0.44283 0.0
H113 H 0.58103 0.12331 0.7419 0.0
H114 H 0.65577 0.0674 0.74802 0.0
H115 H 0.64447 0.13423 0.79426 0.0
C116 C 0.59996 0.1159 0.75068 0.0
C117 C 0.61004 0.13153 0.76918 0.0
C118 C 0.61628 0.09279 0.743 0.0
C119 C 0.64245 0.08457 0.75394 0.0
C120 C 0.65245 0.09972 0.77243 0.0
C121 C 0.63644 0.12308 0.77992 0.0
N122 N 0.68045 0.09375 0.78349 0.0
C123 C 0.67277 0.05468 0.78686 0.0
H124 H 0.57423 0.51605 0.08144 0.0
H125 H 0.44269 0.45094 0.08434 0.0
H126 H 0.5212 0.4649 0.13145 0.0
C127 C 0.54758 0.50019 0.08925 0.0
C128 C 0.55314 0.49401 0.10773 0.0
C129 C 0.50801 0.48528 0.0806 0.0
C130 C 0.47353 0.46255 0.09058 0.0
C131 C 0.47868 0.45438 0.1087 0.0
C132 C 0.51817 0.47016 0.11719 0.0
N133 N 0.44435 0.43067 0.11875 0.0
C134 C 0.41496 0.44193 0.12117 0.0
H135 H 0.21091 0.62898 0.14499 0.0
H136 H 0.26002 0.60692 0.13779 0.0
H137 H 0.19658 0.50232 0.16976 0.0
H138 H 0.1471 0.52384 0.17695 0.0
H139 H 0.31351 0.59193 0.15796 0.0
H140 H 0.1897 0.41906 0.14558 0.0
H141 H 0.11541 0.37603 0.13633 0.0
H142 H 0.11928 0.47418 0.10721 0.0
H143 H 0.19366 0.51755 0.11607 0.0
H144 H 0.40554 0.46821 0.15418 0.0
H145 H 0.36088 0.49633 0.16112 0.0
H146 H 0.31884 0.47776 0.10377 0.0
H147 H 0.36347 0.44926 0.0969 0.0
H148 H 0.25562 0.45294 0.12562 0.0
H149 H 0.3874 0.57244 0.12182 0.0
H150 H 0.46221 0.61812 0.1287 0.0
H151 H 0.44387 0.63168 0.18552 0.0
H152 H 0.36896 0.58557 0.17902 0.0
C153 C 0.20763 0.60152 0.15067 0.0
C154 C 0.17476 0.57785 0.16135 0.0
C155 C 0.23581 0.58907 0.14658 0.0
C156 C 0.23143 0.55268 0.153 0.0
C157 C 0.20003 0.5302 0.16446 0.0
C158 C 0.17191 0.54266 0.16861 0.0
C159 C 0.25827 0.53699 0.14691 0.0
C160 C 0.30094 0.56154 0.15093 0.0
C161 C 0.24177 0.49777 0.13731 0.0
C162 C 0.19716 0.47166 0.13165 0.0
C163 C 0.17472 0.43138 0.13714 0.0
C164 C 0.1326 0.40695 0.13197 0.0
C165 C 0.11262 0.42241 0.12124 0.0
C166 C 0.13476 0.46229 0.11558 0.0
C167 C 0.17689 0.48683 0.12069 0.0
C168 C 0.38652 0.47002 0.14314 0.0
C169 C 0.38742 0.4567 0.12509 0.0
C170 C 0.36129 0.48623 0.14707 0.0
C171 C 0.33694 0.48951 0.13292 0.0
C172 C 0.33746 0.47549 0.11485 0.0
C173 C 0.3628 0.45931 0.11094 0.0
C174 C 0.31085 0.50745 0.13708 0.0
C175 C 0.26827 0.48332 0.13267 0.0
C176 C 0.32755 0.5474 0.14599 0.0
C177 C 0.37259 0.57524 0.14995 0.0
C178 C 0.39934 0.58489 0.13581 0.0
C179 C 0.44176 0.61091 0.13963 0.0
C180 C 0.45779 0.62771 0.15754 0.0
C181 C 0.43141 0.61861 0.17165 0.0
C182 C 0.38896 0.59256 0.1679 0.0
H183 H 0.49065 0.64786 0.16048 0.0
H184 H 0.08 0.40347 0.11727 0.0
H185 H 0.69949 0.16891 0.51207 0.0
H186 H 0.76314 0.2247 0.50199 0.0
H187 H 0.73842 0.15825 0.44899 0.0
H188 H 0.67478 0.1018 0.45905 0.0
H189 H 0.82187 0.20153 0.46047 0.0
H190 H 0.71018 0.22758 0.4537 0.0
H191 H 0.65101 0.23192 0.46418 0.0
H192 H 0.73034 0.32676 0.50584 0.0
H193 H 0.78992 0.32253 0.4958 0.0
H194 H 0.96 0.38649 0.41907 0.0
H195 H 0.89766 0.32213 0.42523 0.0
H196 H 0.90248 0.37432 0.47974 0.0
H197 H 0.96409 0.43844 0.47344 0.0
H198 H 0.82565 0.33546 0.46402 0.0
H199 H 0.93642 0.30575 0.47178 0.0
H200 H 0.99481 0.29931 0.46179 0.0
H201 H 0.91648 0.21074 0.41787 0.0
H202 H 0.85773 0.21706 0.42746 0.0
C203 C 0.70797 0.16568 0.4984 0.0
C204 C 0.6818 0.13114 0.48629 0.0
C205 C 0.7443 0.19767 0.49264 0.0
C206 C 0.7549 0.19597 0.47461 0.0
C207 C 0.73058 0.16022 0.46292 0.0
C208 C 0.69426 0.12798 0.46872 0.0
C209 C 0.78929 0.23297 0.46762 0.0
C210 C 0.82252 0.23071 0.46098 0.0
C211 C 0.79003 0.27099 0.46835 0.0
C212 C 0.75448 0.27452 0.47408 0.0
C213 C 0.71499 0.24924 0.46515 0.0
C214 C 0.68137 0.25167 0.47102 0.0
C215 C 0.68689 0.27953 0.4857 0.0
C216 C 0.7261 0.30517 0.49448 0.0
C217 C 0.75982 0.3028 0.48869 0.0
C218 C 0.94739 0.38398 0.43228 0.0
C219 C 0.96633 0.4169 0.44583 0.0
C220 C 0.91206 0.34733 0.43584 0.0
C221 C 0.89564 0.34331 0.45302 0.0
C222 C 0.91454 0.37673 0.4664 0.0
C223 C 0.94967 0.41323 0.46283 0.0
C224 C 0.85896 0.30444 0.45732 0.0
C225 C 0.825 0.30627 0.46336 0.0
C226 C 0.85755 0.26607 0.45595 0.0
C227 C 0.89283 0.26224 0.4502 0.0
C228 C 0.93174 0.28516 0.4599 0.0
C229 C 0.96488 0.28148 0.45433 0.0
C230 C 0.95939 0.25474 0.43917 0.0
C231 C 0.92071 0.23151 0.42958 0.0
C232 C 0.88748 0.23511 0.43509 0.0
H233 H 0.98508 0.25193 0.43488 0.0
H234 H 0.6608 0.28129 0.49025 0.0
H235 H 0.56978 0.71113 0.85769 0.0
H236 H 0.58668 0.78076 0.85096 0.0
H237 H 0.65718 0.77702 0.80675 0.0
H238 H 0.64173 0.70838 0.81374 0.0
H239 H 0.69517 0.85044 0.82363 0.0
H240 H 0.55554 0.75572 0.79954 0.0
H241 H 0.48325 0.70121 0.80125 0.0
H242 H 0.4664 0.77848 0.84077 0.0
H243 H 0.53879 0.83327 0.83946 0.0
H244 H 0.69499 0.00374 0.77044 0.0
H245 H 0.68289 0.93768 0.78091 0.0
H246 H 0.62083 0.95215 0.82643 0.0
H247 H 0.63247 0.01777 0.81578 0.0
H248 H 0.57918 0.87491 0.81037 0.0
H249 H 0.71945 0.97151 0.83261 0.0
H250 H 0.79155 0.02533 0.82985 0.0
H251 H 0.80683 0.94359 0.79236 0.0
H252 H 0.73463 0.88944 0.79472 0.0
C253 C 0.58928 0.72536 0.84668 0.0
C254 C 0.60411 0.70402 0.83617 0.0
C255 C 0.59874 0.76507 0.84278 0.0
C256 C 0.62251 0.78379 0.8281 0.0
C257 C 0.6387 0.7632 0.81811 0.0
C258 C 0.62973 0.72383 0.82212 0.0
C259 C 0.62933 0.82407 0.82256 0.0
C260 C 0.66977 0.85565 0.82058 0.0
C261 C 0.59627 0.83116 0.81885 0.0
C262 C 0.55267 0.7984 0.81954 0.0
C263 C 0.53648 0.76097 0.80868 0.0
C264 C 0.49549 0.73004 0.80957 0.0
C265 C 0.47028 0.73633 0.82115 0.0
C266 C 0.48598 0.77362 0.83183 0.0
C267 C 0.52698 0.80463 0.831 0.0
C268 C 0.67864 0.9925 0.78261 0.0
C269 C 0.66456 0.01528 0.79239 0.0
C270 C 0.67194 0.95505 0.78864 0.0
C271 C 0.6514 0.94029 0.80459 0.0
C272 C 0.63678 0.963 0.81413 0.0
C273 C 0.64343 0.00034 0.80808 0.0
C274 C 0.64495 0.9011 0.81133 0.0
C275 C 0.60458 0.86975 0.81353 0.0
C276 C 0.67804 0.89411 0.81507 0.0
C277 C 0.72153 0.92656 0.81372 0.0
C278 C 0.7381 0.96512 0.82368 0.0
C279 C 0.779 0.99566 0.8222 0.0
C280 C 0.80373 0.98792 0.8109 0.0
C281 C 0.78763 0.94956 0.80109 0.0
C282 C 0.74674 0.91892 0.80251 0.0
H283 H 0.83538 0.01161 0.80977 0.0
H284 H 0.43856 0.71235 0.82183 0.0
H285 H 0.92415 0.61845 0.12821 0.0
H286 H 0.85469 0.60822 0.12467 0.0
H287 H 0.85195 0.61732 0.18348 0.0
H288 H 0.92239 0.62941 0.18712 0.0
H289 H 0.79232 0.53449 0.14561 0.0
H290 H 0.82245 0.66203 0.18493 0.0
H291 H 0.86608 0.73713 0.19228 0.0
H292 H 0.85126 0.75764 0.13594 0.0
H293 H 0.808 0.68256 0.12827 0.0
H294 H 0.58094 0.46374 0.13506 0.0
H295 H 0.65014 0.4947 0.14983 0.0
H296 H 0.6914 0.59608 0.1154 0.0
H297 H 0.62143 0.56792 0.10205 0.0
H298 H 0.73181 0.62507 0.14608 0.0
H299 H 0.70043 0.5061 0.10572 0.0
H300 H 0.66152 0.43303 0.09382 0.0
H301 H 0.68383 0.39701 0.14593 0.0
H302 H 0.72248 0.46989 0.1582 0.0
C303 C 0.90929 0.61982 0.14036 0.0
C304 C 0.92838 0.62467 0.15792 0.0
C305 C 0.86976 0.61406 0.13833 0.0
C306 C 0.84852 0.61243 0.15381 0.0
C307 C 0.86831 0.61952 0.17139 0.0
C308 C 0.9084 0.62628 0.17344 0.0
C309 C 0.80383 0.59613 0.15128 0.0
C310 C 0.7787 0.55398 0.14612 0.0
C311 C 0.78678 0.62195 0.15142 0.0
C312 C 0.81257 0.66685 0.15601 0.0
C313 C 0.82893 0.68258 0.1741 0.0
C314 C 0.85346 0.72511 0.17832 0.0
C315 C 0.86157 0.75214 0.16457 0.0
C316 C 0.84505 0.73668 0.14657 0.0
C317 C 0.82053 0.69417 0.14228 0.0
C318 C 0.60433 0.49315 0.13089 0.0
C319 C 0.59535 0.51285 0.11705 0.0
C320 C 0.64419 0.51058 0.13922 0.0
C321 C 0.67633 0.54719 0.1334 0.0
C322 C 0.66727 0.56764 0.12007 0.0
C323 C 0.62721 0.55095 0.11214 0.0
C324 C 0.71975 0.56297 0.14028 0.0
C325 C 0.74483 0.60507 0.14606 0.0
C326 C 0.73712 0.53715 0.14028 0.0
C327 C 0.71387 0.49335 0.13293 0.0
C328 C 0.69677 0.48256 0.11467 0.0
C329 C 0.67481 0.44119 0.10786 0.0
C330 C 0.67008 0.41039 0.11913 0.0
C331 C 0.68743 0.4209 0.13723 0.0
C332 C 0.70936 0.46222 0.14412 0.0
H333 H 0.65308 0.37838 0.11383 0.0
H334 H 0.88055 0.78505 0.16786 0.0
H335 H 0.36019 0.93427 0.51744 0.0
H336 H 0.29174 0.87424 0.50964 0.0
H337 H 0.30102 0.9016 0.45285 0.0
H338 H 0.36841 0.96276 0.46075 0.0
H339 H 0.22393 0.86573 0.45962 0.0
H340 H 0.33383 0.83774 0.47065 0.0
H341 H 0.39235 0.84029 0.48845 0.0
H342 H 0.31331 0.77571 0.5304 0.0
H343 H 0.25443 0.77334 0.51296 0.0
H344 H 0.12692 0.66529 0.41318 0.0
H345 H 0.17457 0.73498 0.42653 0.0
H346 H 0.13328 0.69828 0.48009 0.0
H347 H 0.08406 0.62854 0.46676 0.0
H348 H 0.22024 0.73856 0.47778 0.0
H349 H 0.10695 0.7591 0.46127 0.0
H350 H 0.05205 0.75448 0.43991 0.0
H351 H 0.14227 0.83063 0.40388 0.0
H352 H 0.1977 0.83531 0.42493 0.0
C353 C 0.34704 0.92812 0.5034 0.0
C354 C 0.36981 0.95277 0.48965 0.0
C355 C 0.30804 0.89372 0.49893 0.0
C356 C 0.29184 0.88265 0.48056 0.0
C357 C 0.31298 0.90932 0.4671 0.0
C358 C 0.35157 0.94429 0.47163 0.0
C359 C 0.25578 0.84125 0.47502 0.0
C360 C 0.22315 0.83795 0.46359 0.0
C361 C 0.25464 0.80486 0.4802 0.0
C362 C 0.28986 0.8058 0.49062 0.0
C363 C 0.329 0.8243 0.48373 0.0
C364 C 0.36222 0.82571 0.49374 0.0
C365 C 0.35658 0.80828 0.51057 0.0
C366 C 0.31765 0.78928 0.51739 0.0
C367 C 0.28434 0.7879 0.50745 0.0
C368 C 0.12708 0.6721 0.42773 0.0
C369 C 0.10145 0.64118 0.43888 0.0
C370 C 0.15453 0.71198 0.43534 0.0
C371 C 0.15716 0.72175 0.45425 0.0
C372 C 0.13157 0.69124 0.46545 0.0
C373 C 0.10371 0.65138 0.45781 0.0
C374 C 0.18862 0.76316 0.4624 0.0
C375 C 0.22059 0.76638 0.47419 0.0
C376 C 0.18966 0.79931 0.45711 0.0
C377 C 0.15647 0.79738 0.44464 0.0
C378 C 0.11507 0.77471 0.44876 0.0
C379 C 0.08386 0.7721 0.4367 0.0
C380 C 0.09366 0.7922 0.42053 0.0
C381 C 0.13473 0.81509 0.41641 0.0
C382 C 0.16606 0.81781 0.42842 0.0
H383 H 0.06944 0.79007 0.4112 0.0
H384 H 0.38234 0.80941 0.51831 0.0
H385 H 0.47364 0.37897 0.80826 0.0
H386 H 0.47875 0.31864 0.79829 0.0
H387 H 0.572 0.34986 0.84223 0.0
H388 H 0.56678 0.40945 0.85252 0.0
H389 H 0.59331 0.34608 0.80355 0.0
H390 H 0.49211 0.2703 0.84646 0.0
H391 H 0.42457 0.24291 0.85928 0.0
H392 H 0.36396 0.17668 0.80748 0.0
H393 H 0.43117 0.2042 0.79427 0.0
H394 H 0.65067 0.19806 0.79457 0.0
H395 H 0.62702 0.24292 0.80679 0.0
H396 H 0.51316 0.17388 0.77276 0.0
H397 H 0.53513 0.12628 0.76156 0.0
H398 H 0.49743 0.19566 0.80422 0.0
H399 H 0.59462 0.26753 0.76085 0.0
H400 H 0.66008 0.29567 0.74612 0.0
H401 H 0.72561 0.37099 0.79553 0.0
H402 H 0.66062 0.34285 0.81066 0.0
C403 C 0.49448 0.37241 0.81608 0.0
C404 C 0.52015 0.39936 0.83106 0.0
C405 C 0.49728 0.33793 0.81038 0.0
C406 C 0.5259 0.33015 0.8195 0.0
C407 C 0.54976 0.35552 0.83504 0.0
C408 C 0.54665 0.38957 0.84089 0.0
C409 C 0.53494 0.29897 0.81163 0.0
C410 C 0.57261 0.31315 0.80385 0.0
C411 C 0.50701 0.25621 0.81139 0.0
C412 C 0.46664 0.23974 0.81932 0.0
C413 C 0.46437 0.25029 0.83774 0.0
C414 C 0.42614 0.23464 0.84509 0.0
C415 C 0.38999 0.20819 0.83418 0.0
C416 C 0.39199 0.19724 0.81591 0.0
C417 C 0.43014 0.21283 0.80849 0.0
C418 C 0.62015 0.19156 0.78995 0.0
C419 C 0.59494 0.15839 0.77697 0.0
C420 C 0.60692 0.2178 0.79676 0.0
C421 C 0.56875 0.21248 0.79034 0.0
C422 C 0.54293 0.17886 0.77778 0.0
C423 C 0.55581 0.15196 0.77122 0.0
C424 C 0.55653 0.24272 0.7965 0.0
C425 C 0.51818 0.22852 0.80382 0.0
C426 C 0.58354 0.28568 0.79601 0.0
C427 C 0.62274 0.30281 0.78693 0.0
C428 C 0.62302 0.28988 0.76862 0.0
C429 C 0.66005 0.30586 0.76019 0.0
C430 C 0.69699 0.33503 0.76989 0.0
C431 C 0.69698 0.34836 0.78804 0.0
C432 C 0.66005 0.33243 0.79654 0.0
H433 H 0.72563 0.34737 0.76335 0.0
H434 H 0.36043 0.19608 0.8399 0.0
H435 H 0.47769 0.87733 0.51404 0.0
H436 H 0.49089 0.82286 0.52267 0.0
H437 H 0.60082 0.87604 0.49335 0.0
H438 H 0.58752 0.93023 0.48437 0.0
H439 H 0.56136 0.79163 0.49084 0.0
H440 H 0.60524 0.90318 0.53791 0.0
H441 H 0.59291 0.94911 0.55841 0.0
H442 H 0.50441 0.84501 0.58503 0.0
H443 H 0.51532 0.79829 0.56429 0.0
H444 H 0.68622 0.72911 0.53703 0.0
H445 H 0.65898 0.77108 0.52484 0.0
H446 H 0.55478 0.71169 0.55755 0.0
H447 H 0.58246 0.67004 0.56989 0.0
H448 H 0.58496 0.79416 0.55829 0.0
H449 H 0.54376 0.68275 0.51268 0.0
H450 H 0.55317 0.63604 0.4913 0.0
H451 H 0.63527 0.73861 0.46202 0.0
H452 H 0.62682 0.78605 0.4834 0.0
C453 C 0.50428 0.87703 0.50914 0.0
C454 C 0.53206 0.90855 0.49883 0.0
C455 C 0.51173 0.84587 0.51407 0.0
C456 C 0.54732 0.84607 0.50899 0.0
C457 C 0.5733 0.87554 0.49749 0.0
C458 C 0.5657 0.90655 0.49241 0.0
C459 C 0.5599 0.81854 0.5172 0.0
C460 C 0.56679 0.79231 0.50556 0.0
C461 C 0.56614 0.81897 0.53646 0.0
C462 C 0.56076 0.84719 0.54941 0.0
C463 C 0.58297 0.89005 0.54806 0.0
C464 C 0.57616 0.91621 0.5597 0.0
C465 C 0.54781 0.89998 0.57299 0.0
C466 C 0.52629 0.85753 0.5747 0.0
C467 C 0.53271 0.83118 0.56298 0.0
C468 C 0.65779 0.72554 0.54172 0.0
C469 C 0.6363 0.69686 0.55435 0.0
C470 C 0.64211 0.74917 0.53469 0.0
C471 C 0.60455 0.74399 0.5401 0.0
C472 C 0.58372 0.71602 0.55318 0.0
C473 C 0.59947 0.69239 0.56021 0.0
C474 C 0.58691 0.76752 0.53191 0.0
C475 C 0.57916 0.7931 0.54356 0.0
C476 C 0.57984 0.76644 0.51268 0.0
C477 C 0.58493 0.738 0.49975 0.0
C478 C 0.56408 0.69539 0.50178 0.0
C479 C 0.56919 0.66878 0.48964 0.0
C480 C 0.59487 0.68436 0.47534 0.0
C481 C 0.61542 0.72659 0.47312 0.0
C482 C 0.61045 0.75336 0.48523 0.0
H483 H 0.59879 0.6637 0.46595 0.0
H484 H 0.54261 0.92031 0.58199 0.0
H485 H 0.69081 0.55064 0.87533 0.0
H486 H 0.75652 0.55331 0.87874 0.0
H487 H 0.78872 0.60741 0.827 0.0
H488 H 0.72206 0.60426 0.82327 0.0
H489 H 0.80275 0.54469 0.82879 0.0
H490 H 0.8412 0.66541 0.8662 0.0
H491 H 0.83477 0.71066 0.88964 0.0
H492 H 0.83101 0.63253 0.9313 0.0
H493 H 0.83679 0.58644 0.90809 0.0
H494 H 0.99404 0.5672 0.89032 0.0
H495 H 0.95578 0.59762 0.87682 0.0
H496 H 0.85436 0.4757 0.85975 0.0
H497 H 0.89325 0.44554 0.87256 0.0
H498 H 0.89122 0.59334 0.88716 0.0
H499 H 0.794 0.47345 0.82517 0.0
H500 H 0.80421 0.43311 0.80059 0.0
H501 H 0.93416 0.51983 0.80548 0.0
H502 H 0.92472 0.56109 0.8299 0.0
C503 C 0.71193 0.5636 0.86473 0.0
C504 C 0.70107 0.57712 0.84899 0.0
C505 C 0.74971 0.56537 0.86677 0.0
C506 C 0.77774 0.581 0.85323 0.0
C507 C 0.76756 0.59542 0.83765 0.0
C508 C 0.72957 0.59374 0.83559 0.0
C509 C 0.81604 0.579 0.85502 0.0
C510 C 0.82255 0.55576 0.84142 0.0
C511 C 0.84265 0.59468 0.87124 0.0
C512 C 0.83935 0.62238 0.88535 0.0
C513 C 0.83877 0.65773 0.88034 0.0
C514 C 0.83526 0.68355 0.89359 0.0
C515 C 0.83246 0.67447 0.91194 0.0
C516 C 0.83322 0.63956 0.91708 0.0
C517 C 0.8367 0.61361 0.90388 0.0
C518 C 0.96384 0.54708 0.88337 0.0
C519 C 0.94646 0.5041 0.88246 0.0
C520 C 0.94204 0.56442 0.87566 0.0
C521 C 0.90229 0.53906 0.86708 0.0
C522 C 0.88537 0.49607 0.86581 0.0
C523 C 0.90746 0.47878 0.87325 0.0
C524 C 0.87657 0.55691 0.86138 0.0
C525 C 0.87235 0.58313 0.87427 0.0
C526 C 0.8528 0.54477 0.84432 0.0
C527 C 0.85864 0.52031 0.82946 0.0
C528 C 0.82473 0.48411 0.82093 0.0
C529 C 0.83039 0.46103 0.80704 0.0
C530 C 0.86981 0.47386 0.8015 0.0
C531 C 0.90365 0.50987 0.80982 0.0
C532 C 0.89817 0.53309 0.8237 0.0
H533 H 0.87412 0.45593 0.79076 0.0
H534 H 0.82974 0.6945 0.92218 0.0
H535 H 0.1835 0.75797 0.14303 0.0
H536 H 0.24675 0.82347 0.15071 0.0
H537 H 0.19875 0.84131 0.20051 0.0
H538 H 0.13509 0.7753 0.19309 0.0
H539 H 0.26245 0.91932 0.17751 0.0
H540 H 0.24035 0.79849 0.21098 0.0
H541 H 0.21606 0.72408 0.21017 0.0
H542 H 0.29928 0.73724 0.16924 0.0
H543 H 0.32354 0.81166 0.16963 0.0
H544 H 0.45227 0.03867 0.23235 0.0
H545 H 0.38146 0.99385 0.21979 0.0
H546 H 0.41994 0.92397 0.18606 0.0
H547 H 0.48975 0.96571 0.19987 0.0
H548 H 0.35782 0.87384 0.20087 0.0
H549 H 0.3881 0.99301 0.16915 0.0
H550 H 0.41127 0.06619 0.16573 0.0
H551 H 0.3155 0.05769 0.19826 0.0
H552 H 0.29207 0.98457 0.20207 0.0
C553 C 0.18568 0.77631 0.15534 0.0
C554 C 0.15471 0.7609 0.16771 0.0
C555 C 0.22176 0.81394 0.1596 0.0
C556 C 0.22732 0.8368 0.1762 0.0
C557 C 0.19472 0.824 0.18757 0.0
C558 C 0.15851 0.78615 0.18335 0.0
C559 C 0.26947 0.86768 0.18344 0.0
C560 C 0.28339 0.90976 0.18287 0.0
C561 C 0.29671 0.85473 0.18985 0.0
C562 C 0.28349 0.81046 0.19024 0.0
C563 C 0.25332 0.78544 0.20177 0.0
C564 C 0.23956 0.74329 0.20138 0.0
C565 C 0.25604 0.72591 0.18963 0.0
C566 C 0.28651 0.75072 0.17832 0.0
C567 C 0.3003 0.79288 0.17864 0.0
C568 C 0.44571 0.01353 0.22239 0.0
C569 C 0.47702 0.00581 0.2173 0.0
C570 C 0.40518 0.98835 0.21494 0.0
C571 C 0.39528 0.9557 0.20181 0.0
C572 C 0.42672 0.94894 0.19619 0.0
C573 C 0.46695 0.97334 0.20396 0.0
C574 C 0.35187 0.92644 0.19496 0.0
C575 C 0.33738 0.88413 0.19561 0.0
C576 C 0.32459 0.93946 0.18832 0.0
C577 C 0.3386 0.98341 0.18605 0.0
C578 C 0.37218 0.00683 0.1757 0.0
C579 C 0.38532 0.04828 0.17366 0.0
C580 C 0.36494 0.06661 0.18181 0.0
C581 C 0.33129 0.04347 0.19197 0.0
C582 C 0.31804 0.00201 0.19406 0.0
H583 H 0.37516 0.0987 0.18022 0.0
H584 H 0.24526 0.69325 0.1893 0.0
H585 H 0.59605 0.21396 0.50973 0.0
H586 H 0.60025 0.27904 0.519 0.0
H587 H 0.46772 0.22002 0.51261 0.0
H588 H 0.46342 0.15451 0.50259 0.0
H589 H 0.50465 0.29887 0.50216 0.0
H590 H 0.51366 0.2327 0.55452 0.0
H591 H 0.53856 0.19624 0.57364 0.0
H592 H 0.66106 0.30099 0.57712 0.0
H593 H 0.63702 0.33788 0.55778 0.0
H594 H 0.51785 0.46336 0.56397 0.0
H595 H 0.49952 0.39516 0.54986 0.0
H596 H 0.62807 0.43748 0.54454 0.0
H597 H 0.64651 0.50552 0.5585 0.0
H598 H 0.58367 0.36271 0.56224 0.0
H599 H 0.57239 0.42655 0.50793 0.0
H600 H 0.54495 0.46155 0.48928 0.0
H601 H 0.42226 0.35916 0.49099 0.0
H602 H 0.44894 0.32379 0.5099 0.0
C603 C 0.56779 0.21491 0.51011 0.0
C604 C 0.52935 0.17918 0.50579 0.0
C605 C 0.57023 0.25207 0.51542 0.0
C606 C 0.53424 0.25401 0.51699 0.0
C607 C 0.49581 0.21898 0.51163 0.0
C608 C 0.49338 0.1817 0.50595 0.0
C609 C 0.5373 0.29207 0.5254 0.0
C610 C 0.52129 0.31252 0.51543 0.0
C611 C 0.55902 0.3098 0.54273 0.0
C612 C 0.57356 0.28796 0.5546 0.0
C613 C 0.54596 0.24788 0.55928 0.0
C614 C 0.55991 0.22714 0.57016 0.0
C615 C 0.60138 0.24626 0.57657 0.0
C616 C 0.62895 0.28622 0.57215 0.0
C617 C 0.61516 0.30708 0.56124 0.0
C618 C 0.54208 0.45801 0.5597 0.0
C619 C 0.58356 0.48952 0.56229 0.0
C620 C 0.53158 0.41928 0.55158 0.0
C621 C 0.56249 0.41156 0.54615 0.0
C622 C 0.60386 0.44305 0.54862 0.0
C623 C 0.61431 0.48183 0.55651 0.0
C624 C 0.55223 0.37009 0.53876 0.0
C625 C 0.56668 0.34885 0.54905 0.0
C626 C 0.52859 0.35153 0.52191 0.0
C627 C 0.5126 0.37276 0.51052 0.0
C628 C 0.53952 0.41168 0.50449 0.0
C629 C 0.52412 0.43154 0.49383 0.0
C630 C 0.48188 0.41265 0.489 0.0
C631 C 0.45496 0.37379 0.49477 0.0
C632 C 0.47021 0.35381 0.50545 0.0
H633 H 0.47001 0.42807 0.48074 0.0
H634 H 0.61213 0.23014 0.58499 0.0
H635 H 0.41432 0.56361 0.85936 0.0
H636 H 0.34348 0.53905 0.86638 0.0
H637 H 0.30283 0.42809 0.83133 0.0
H638 H 0.37403 0.45244 0.82411 0.0
H639 H 0.25151 0.46214 0.8277 0.0
H640 H 0.31281 0.42271 0.87539 0.0
H641 H 0.36695 0.43462 0.89915 0.0
H642 H 0.34674 0.52305 0.92903 0.0
H643 H 0.29289 0.51215 0.90529 0.0
H644 H 0.05387 0.36127 0.86141 0.0
H645 H 0.12251 0.37507 0.85417 0.0
H646 H 0.17808 0.48677 0.89019 0.0
H647 H 0.10932 0.47256 0.89757 0.0
H648 H 0.22092 0.44633 0.8931 0.0
H649 H 0.1648 0.49071 0.84485 0.0
H650 H 0.11313 0.48272 0.82063 0.0
H651 H 0.12528 0.38791 0.79167 0.0
H652 H 0.17664 0.39496 0.81587 0.0
C653 C 0.3904 0.53414 0.85295 0.0
C654 C 0.39996 0.5098 0.84129 0.0
C655 C 0.34992 0.5201 0.85706 0.0
C656 C 0.31816 0.48147 0.84964 0.0
C657 C 0.32709 0.4579 0.83728 0.0
C658 C 0.36775 0.47187 0.83318 0.0
C659 C 0.2759 0.46552 0.85527 0.0
C660 C 0.24455 0.45788 0.84193 0.0
C661 C 0.26728 0.46088 0.87393 0.0
C662 C 0.299 0.46683 0.88847 0.0
C663 C 0.32006 0.44488 0.88697 0.0
C664 C 0.35069 0.45143 0.90044 0.0
C665 C 0.36036 0.47965 0.91556 0.0
C666 C 0.33925 0.50123 0.91729 0.0
C667 C 0.30862 0.49483 0.90384 0.0
C668 C 0.0809 0.38831 0.86799 0.0
C669 C 0.0769 0.41591 0.88002 0.0
C670 C 0.11994 0.39629 0.86379 0.0
C671 C 0.15533 0.43222 0.87147 0.0
C672 C 0.15117 0.45889 0.88413 0.0
C673 C 0.11208 0.45085 0.88833 0.0
C674 C 0.19649 0.44325 0.86553 0.0
C675 C 0.22769 0.45005 0.87883 0.0
C676 C 0.20506 0.44731 0.84684 0.0
C677 C 0.17418 0.44301 0.83228 0.0
C678 C 0.15618 0.4679 0.8334 0.0
C679 C 0.12701 0.4636 0.81966 0.0
C680 C 0.11583 0.43473 0.80465 0.0
C681 C 0.1339 0.41019 0.80332 0.0
C682 C 0.16305 0.41434 0.81704 0.0
H683 H 0.09325 0.43146 0.79402 0.0
H684 H 0.38415 0.48476 0.92596 0.0
H685 H 0.96933 0.46547 0.20259 0.0
H686 H 0.91478 0.39908 0.21088 0.0
H687 H 0.866 0.36573 0.15429 0.0
H688 H 0.91936 0.43353 0.14609 0.0
H689 H 0.80604 0.3437 0.17516 0.0
H690 H 0.92489 0.32593 0.17669 0.0
H691 H 0.99653 0.34588 0.18633 0.0
H692 H 0.96886 0.33938 0.2428 0.0
H693 H 0.89712 0.31962 0.23349 0.0
H694 H 0.67958 0.12958 0.18103 0.0
H695 H 0.73489 0.19755 0.17409 0.0
H696 H 0.77108 0.23088 0.23195 0.0
H697 H 0.71569 0.1624 0.23885 0.0
H698 H 0.83724 0.25342 0.21161 0.0
H699 H 0.71801 0.26781 0.21018 0.0
H700 H 0.64671 0.2495 0.20096 0.0
H701 H 0.67522 0.26386 0.14467 0.0
H702 H 0.74656 0.28165 0.15351 0.0
C703 C 0.94721 0.44383 0.19187 0.0
C704 C 0.94877 0.45436 0.17364 0.0
C705 C 0.91613 0.4058 0.19663 0.0
C706 C 0.88686 0.37693 0.18316 0.0
C707 C 0.88839 0.38743 0.16491 0.0
C708 C 0.9189 0.42601 0.16021 0.0
C709 C 0.85408 0.33625 0.1882 0.0
C710 C 0.81295 0.32367 0.18286 0.0
C711 C 0.86293 0.3107 0.19882 0.0
C712 C 0.90574 0.32148 0.20439 0.0
C713 C 0.93413 0.32881 0.19116 0.0
C714 C 0.97473 0.34007 0.19657 0.0
C715 C 0.98724 0.34392 0.21517 0.0
C716 C 0.95911 0.33632 0.2284 0.0
C717 C 0.91846 0.32498 0.22306 0.0
C718 C 0.69952 0.15152 0.1922 0.0
C719 C 0.69387 0.14136 0.21041 0.0
C720 C 0.73086 0.19026 0.18827 0.0
C721 C 0.75672 0.21938 0.20253 0.0
C722 C 0.75136 0.20884 0.22078 0.0
C723 C 0.71988 0.16997 0.22471 0.0
C724 C 0.78941 0.2607 0.19828 0.0
C725 C 0.83043 0.27343 0.20384 0.0
C726 C 0.78047 0.28639 0.18786 0.0
C727 C 0.73755 0.27568 0.18249 0.0
C728 C 0.70899 0.26671 0.19581 0.0
C729 C 0.66858 0.25649 0.19066 0.0
C730 C 0.65642 0.25542 0.17223 0.0
C731 C 0.68467 0.26465 0.15893 0.0
C732 C 0.72511 0.27483 0.16401 0.0
H733 H 0.62512 0.24752 0.16827 0.0
H734 H 0.01871 0.35275 0.21933 0.0
H735 H 0.98073 0.54532 0.08937 0.0
H736 H 0.97877 0.52676 0.0568 0.0
H737 H 0.11158 0.59049 0.06003 0.0
H738 H 0.1138 0.61042 0.09254 0.0
H739 H 0.08486 0.60488 0.02947 0.0
H740 H 0.05289 0.48361 0.05885 0.0
H741 H 0.0174 0.42836 0.0795 0.0
H742 H 0.90215 0.38754 0.04858 0.0
H743 H 0.93685 0.44292 0.02788 0.0
H744 H 0.07419 0.50585 0.94035 0.0
H745 H 0.08871 0.52385 0.97371 0.0
H746 H 0.96224 0.49106 0.97843 0.0
H747 H 0.94786 0.4737 0.94532 0.0
H748 H 0.99428 0.45918 0.00525 0.0
H749 H 0.02932 0.58724 0.97781 0.0
H750 H 0.06763 0.64201 0.9573 0.0
H751 H 0.18204 0.66811 0.98502 0.0
H752 H 0.14436 0.61302 0.00553 0.0
C753 C 0.00954 0.55554 0.08314 0.0
C754 C 0.04741 0.57915 0.09357 0.0
C755 C 0.00839 0.54469 0.06453 0.0
C756 C 0.04502 0.5564 0.05603 0.0
C757 C 0.08291 0.5809 0.06629 0.0
C758 C 0.08411 0.59227 0.08488 0.0
C759 C 0.04352 0.54299 0.03644 0.0
C760 C 0.06564 0.57289 0.02427 0.0
C761 C 0.01847 0.50124 0.02956 0.0
C762 C 0.99746 0.46763 0.04188 0.0
C763 C 0.01993 0.46301 0.05652 0.0
C764 C -4e-05 0.43165 0.06823 0.0
C765 C 0.95754 0.40451 0.06537 0.0
C766 C 0.93501 0.40861 0.05077 0.0
C767 C 0.95483 0.43995 0.03903 0.0
C768 C 0.04959 0.50234 0.9486 0.0
C769 C 0.01004 0.48877 0.94034 0.0
C770 C 0.05788 0.51267 0.96756 0.0
C771 C 0.02652 0.50888 0.97846 0.0
C772 C 0.9868 0.49417 0.97025 0.0
C773 C 0.97871 0.48451 0.95136 0.0
C774 C 0.03478 0.52118 0.99838 0.0
C775 C 0.01395 0.49103 0.01059 0.0
C776 C 0.0615 0.5625 0.00531 0.0
C777 C 0.08406 0.59569 0.99304 0.0
C778 C 0.06265 0.6044 0.97942 0.0
C779 C 0.08425 0.63555 0.96782 0.0
C780 C 0.12725 0.65844 0.96982 0.0
C781 C 0.14873 0.6503 0.98346 0.0
C782 C 0.12728 0.61913 0.99508 0.0
H783 H 0.14391 0.68255 0.96083 0.0
H784 H 0.94212 0.38026 0.07446 0.0
H785 H 0.55702 0.01376 0.4222 0.0
H786 H 0.5671 0.02643 0.39 0.0
H787 H 0.49931 0.09077 0.39166 0.0
H788 H 0.48884 0.07816 0.42406 0.0
H789 H 0.47885 0.03752 0.36019 0.0
H790 H 0.60015 0.14572 0.39362 0.0
H791 H 0.65948 0.17479 0.41669 0.0
H792 H 0.70911 0.10924 0.38812 0.0
H793 H 0.64971 0.07919 0.36503 0.0
H794 H 0.53371 0.10613 0.27283 0.0
H795 H 0.5306 0.11234 0.30609 0.0
H796 H 0.60304 0.05371 0.31352 0.0
H797 H 0.60697 0.04832 0.28029 0.0
H798 H 0.62177 0.11172 0.34109 0.0
H799 H 0.49794 0.99789 0.31006 0.0
H800 H 0.43811 0.96639 0.2872 0.0
H801 H 0.39287 0.04052 0.31161 0.0
H802 H 0.45285 0.07298 0.33444 0.0
C803 C 0.54387 0.03032 0.41575 0.0
C804 C 0.52232 0.04519 0.42579 0.0
C805 C 0.5499 0.03771 0.39735 0.0
C806 C 0.53461 0.06018 0.38859 0.0
C807 C 0.5116 0.07362 0.39827 0.0
C808 C 0.50564 0.06635 0.41676 0.0
C809 C 0.54326 0.06986 0.36935 0.0
C810 C 0.51006 0.05445 0.35603 0.0
C811 C 0.58406 0.09132 0.36398 0.0
C812 C 0.62028 0.10996 0.37765 0.0
C813 C 0.62358 0.13729 0.39231 0.0
C814 C 0.65723 0.15396 0.40539 0.0
C815 C 0.68801 0.14382 0.40389 0.0
C816 C 0.68524 0.11706 0.38927 0.0
C817 C 0.6516 0.10023 0.37617 0.0
C818 C 0.54968 0.0954 0.28163 0.0
C819 C 0.57025 0.07641 0.27405 0.0
C820 C 0.54782 0.09885 0.30059 0.0
C821 C 0.56579 0.08262 0.31224 0.0
C822 C 0.58884 0.06632 0.30477 0.0
C823 C 0.59112 0.0633 0.28581 0.0
C824 C 0.55733 0.07894 0.33187 0.0
C825 C 0.59056 0.09536 0.34527 0.0
C826 C 0.51653 0.0582 0.33734 0.0
C827 C 0.48009 0.03817 0.32383 0.0
C828 C 0.47535 0.00764 0.31049 0.0
C829 C 0.44143 0.98962 0.29754 0.0
C830 C 0.41177 0.00152 0.29793 0.0
C831 C 0.41591 0.03139 0.31131 0.0
C832 C 0.44986 0.04961 0.32425 0.0
H833 H 0.38553 0.98755 0.28789 0.0
H834 H 0.71403 0.15675 0.41403 0.0
H835 H 0.48385 0.49993 0.76375 0.0
H836 H 0.48224 0.50469 0.73051 0.0
H837 H 0.60899 0.60306 0.73597 0.0
H838 H 0.61085 0.59891 0.76907 0.0
H839 H 0.56237 0.62056 0.71308 0.0
H840 H 0.58354 0.5056 0.7217 0.0
H841 H 0.56629 0.4381 0.73253 0.0
H842 H 0.45064 0.38076 0.70009 0.0
H843 H 0.467 0.44808 0.68925 0.0
H844 H 0.63943 0.62241 0.62685 0.0
H845 H 0.62232 0.61962 0.65867 0.0
H846 H 0.49875 0.52081 0.64256 0.0
H847 H 0.51565 0.52359 0.61053 0.0
H848 H 0.53283 0.5013 0.67016 0.0
H849 H 0.51635 0.61558 0.65828 0.0
H850 H 0.53479 0.68311 0.64717 0.0
H851 H 0.64176 0.74207 0.68539 0.0
H852 H 0.62432 0.6748 0.69656 0.0
C853 C 0.5114 0.52256 0.75788 0.0
C854 C 0.54753 0.54893 0.7691 0.0
C855 C 0.51042 0.5252 0.73888 0.0
C856 C 0.54556 0.55412 0.73078 0.0
C857 C 0.58148 0.58063 0.74195 0.0
C858 C 0.58252 0.57802 0.76089 0.0
C859 C 0.5455 0.55665 0.71063 0.0
C860 C 0.55613 0.59458 0.70367 0.0
C861 C 0.5361 0.52238 0.69835 0.0
C862 C 0.52626 0.48193 0.70485 0.0
C863 C 0.55428 0.47865 0.717 0.0
C864 C 0.54469 0.44042 0.72312 0.0
C865 C 0.50733 0.40518 0.71705 0.0
C866 C 0.47953 0.4081 0.70481 0.0
C867 C 0.48894 0.44627 0.69867 0.0
C868 C 0.60826 0.60085 0.62997 0.0
C869 C 0.57891 0.57318 0.61615 0.0
C870 C 0.59853 0.59923 0.6482 0.0
C871 C 0.55917 0.57015 0.65299 0.0
C872 C 0.52932 0.54344 0.63916 0.0
C873 C 0.53905 0.54503 0.62089 0.0
C874 C 0.55059 0.56551 0.67259 0.0
C875 C 0.53836 0.52716 0.67948 0.0
C876 C 0.55858 0.59944 0.68479 0.0
C877 C 0.56914 0.64005 0.67817 0.0
C878 C 0.54398 0.64289 0.66423 0.0
C879 C 0.55422 0.68114 0.65793 0.0
C880 C 0.58946 0.71685 0.66555 0.0
C881 C 0.61447 0.71438 0.6795 0.0
C882 C 0.60439 0.6762 0.68584 0.0
H883 H 0.59734 0.74643 0.66065 0.0
H884 H 0.49997 0.37561 0.72179 0.0
H885 H 0.61003 0.10115 0.56928 0.0
H886 H 0.62142 0.10252 0.60248 0.0
H887 H 0.50013 0.99656 0.60408 0.0
H888 H 0.48839 0.99473 0.5708 0.0
H889 H 0.51862 0.06182 0.63052 0.0
H890 H 0.5803 0.98213 0.60959 0.0
H891 H 0.6272 0.96888 0.59176 0.0
H892 H 0.73087 0.08097 0.6163 0.0
H893 H 0.68471 0.09482 0.63439 0.0
H894 H 0.5434 0.03772 0.7243 0.0
H895 H 0.52931 0.02288 0.69094 0.0
H896 H 0.65725 0.10867 0.68388 0.0
H897 H 0.67154 0.12138 0.71724 0.0
H898 H 0.63281 0.04923 0.65971 0.0
H899 H 0.5769 0.13299 0.67942 0.0
H900 H 0.53433 0.15201 0.69752 0.0
H901 H 0.42488 0.04263 0.67471 0.0
H902 H 0.46688 0.02265 0.65668 0.0
C903 C 0.58572 0.07807 0.57665 0.0
C904 C 0.54825 0.04784 0.56735 0.0
C905 C 0.59241 0.07878 0.59562 0.0
C906 C 0.56176 0.04941 0.60569 0.0
C907 C 0.52421 0.0194 0.59652 0.0
C908 C 0.5176 0.01842 0.57751 0.0
C909 C 0.56852 0.05092 0.62588 0.0
C910 C 0.54312 0.05837 0.63695 0.0
C911 C 0.60137 0.04785 0.63419 0.0
C912 C 0.62903 0.03966 0.62322 0.0
C913 C 0.61306 0.00409 0.61108 0.0
C914 C 0.6395 0.99643 0.60096 0.0
C915 C 0.68189 0.02417 0.60279 0.0
C916 C 0.69801 0.05954 0.61486 0.0
C917 C 0.67177 0.06723 0.62511 0.0
C918 C 0.56847 0.05271 0.71554 0.0
C919 C 0.60848 0.08053 0.72316 0.0
C920 C 0.56042 0.04461 0.69651 0.0
C921 C 0.592 0.06541 0.6848 0.0
C922 C 0.63231 0.09225 0.69255 0.0
C923 C 0.64051 0.09954 0.71158 0.0
C924 C 0.58302 0.0604 0.66453 0.0
C925 C 0.60804 0.05239 0.65339 0.0
C926 C 0.55042 0.06402 0.65613 0.0
C927 C 0.52507 0.07611 0.66685 0.0
C928 C 0.54377 0.11286 0.67836 0.0
C929 C 0.51975 0.12382 0.6886 0.0
C930 C 0.47694 0.09849 0.6873 0.0
C931 C 0.45806 0.06219 0.67573 0.0
C932 C 0.48195 0.05104 0.66549 0.0
H933 H 0.45839 0.10703 0.69524 0.0
H934 H 0.70226 0.01817 0.59492 0.0
H935 H 0.58174 0.52698 0.9159 0.0
H936 H 0.56703 0.51647 0.94796 0.0
H937 H 0.47651 0.55408 0.94103 0.0
H938 H 0.49244 0.56634 0.90905 0.0
H939 H 0.51559 0.58352 0.97286 0.0
H940 H 0.44777 0.45077 0.94162 0.0
H941 H 0.43957 0.3932 0.92084 0.0
H942 H 0.52995 0.38389 0.95485 0.0
H943 H 0.53914 0.44181 0.9757 0.0
H944 H 0.44867 0.43364 0.05357 0.0
H945 H 0.44394 0.44554 0.02128 0.0
H946 H 0.55382 0.56513 0.03094 0.0
H947 H 0.55675 0.55494 0.06336 0.0
H948 H 0.49012 0.45195 0.99648 0.0
H949 H 0.56115 0.63093 0.001 0.0
H950 H 0.55929 0.68468 0.02085 0.0
H951 H 0.44318 0.59436 0.03892 0.0
H952 H 0.44402 0.54015 0.01899 0.0
C953 C 0.55893 0.53332 0.92124 0.0
C954 C 0.53815 0.54734 0.90996 0.0
C955 C 0.55032 0.52703 0.93954 0.0
C956 C 0.51995 0.53354 0.94682 0.0
C957 C 0.49996 0.5487 0.93572 0.0
C958 C 0.50912 0.55573 0.91746 0.0
C959 C 0.5091 0.52417 0.96597 0.0
C960 C 0.50982 0.5547 0.97802 0.0
C961 C 0.49993 0.48593 0.97258 0.0
C962 C 0.49433 0.45083 0.96017 0.0
C963 C 0.46608 0.43661 0.94461 0.0
C964 C 0.46124 0.40389 0.93282 0.0
C965 C 0.48427 0.38494 0.93651 0.0
C966 C 0.51213 0.39861 0.95201 0.0
C967 C 0.51714 0.43135 0.96384 0.0
C968 C 0.47116 0.46296 0.04894 0.0
C969 C 0.50325 0.49319 0.06113 0.0
C970 C 0.46866 0.46956 0.0304 0.0
C971 C 0.49832 0.50637 0.0236 0.0
C972 C 0.52999 0.5368 0.03581 0.0
C973 C 0.53207 0.53056 0.05437 0.0
C974 C 0.49815 0.51194 0.00361 0.0
C975 C 0.49534 0.48063 0.99134 0.0
C976 C 0.50378 0.54884 0.9967 0.0
C977 C 0.50282 0.58141 0.00858 0.0
C978 C 0.5351 0.62256 0.00912 0.0
C979 C 0.53425 0.65311 0.02041 0.0
C980 C 0.50119 0.64293 0.03117 0.0
C981 C 0.46884 0.60218 0.03063 0.0
C982 C 0.46952 0.57152 0.01935 0.0
H983 H 0.50061 0.66662 0.03991 0.0
H984 H 0.48049 0.35963 0.92736 0.0
H985 H 0.08847 0.57545 0.23776 0.0
H986 H 0.07531 0.56231 0.26973 0.0
H987 H 0.01168 0.63085 0.27045 0.0
H988 H 0.02499 0.64455 0.23831 0.0
H989 H 0.0617 0.64641 0.30223 0.0
H990 H 0.95757 0.52793 0.26468 0.0
H991 H 0.93236 0.47142 0.24025 0.0
H992 H 0.99615 0.42017 0.26874 0.0
H993 H 0.02241 0.47678 0.29317 0.0
H994 H 0.98734 0.5812 0.38726 0.0
H995 H 0.98149 0.58663 0.35418 0.0
H996 H 0.04014 0.51468 0.34495 0.0
H997 H 0.04503 0.50834 0.37792 0.0
H998 H 0.98556 0.50011 0.31684 0.0
H999 H 0.09638 0.6193 0.35149 0.0
H1000 H 0.12574 0.67539 0.37625 0.0
H1001 H 0.05469 0.72524 0.3533 0.0
H1002 H 0.02431 0.66895 0.32858 0.0
C1003 C 0.07208 0.58822 0.24472 0.0
C1004 C 0.05742 0.61074 0.23538 0.0
C1005 C 0.0644 0.58045 0.26299 0.0
C1006 C 0.04167 0.59475 0.2723 0.0
C1007 C 0.02895 0.61921 0.26342 0.0
C1008 C 0.03669 0.6271 0.24507 0.0
C1009 C 0.03042 0.58312 0.29116 0.0
C1010 C 0.04436 0.61445 0.30539 0.0
C1011 C 0.00861 0.54133 0.29528 0.0
C1012 C 0.99221 0.50683 0.28072 0.0
C1013 C 0.96645 0.50477 0.26569 0.0
C1014 C 0.95196 0.4727 0.25184 0.0
C1015 C 0.9627 0.44227 0.25294 0.0
C1016 C 0.98788 0.44378 0.26791 0.0
C1017 C 0.00255 0.47584 0.28176 0.0
C1018 C 0.99778 0.56551 0.37808 0.0
C1019 C 0.01695 0.54467 0.3851 0.0
C1020 C 0.99462 0.56877 0.35922 0.0
C1021 C 0.0114 0.552 0.34716 0.0
C1022 C 0.02718 0.52804 0.35401 0.0
C1023 C 0.02986 0.52432 0.37285 0.0
C1024 C 0.01708 0.56339 0.32792 0.0
C1025 C 0.00229 0.53206 0.31363 0.0
C1026 C 0.03867 0.60516 0.32374 0.0
C1027 C 0.05775 0.63968 0.3383 0.0
C1028 C 0.08687 0.64211 0.35178 0.0
C1029 C 0.10367 0.67392 0.36581 0.0
C1030 C 0.092 0.7038 0.36638 0.0
C1031 C 0.06363 0.70202 0.35286 0.0
C1032 C 0.04661 0.67017 0.33884 0.0
H1033 H 0.105 0.72837 0.37727 0.0
H1034 H 0.95148 0.41747 0.24223 0.0
loop_
_geom_bond_atom_site_label_1
_geom_bond_atom_site_label_2
_geom_bond_distance
_geom_bond_site_symmetry_2
_ccdc_geom_bond_type
O0 Zn1 1.953 . S
O0 C16 1.225 . S
Zn1 O0 1.953 . S
Zn1 O2 1.949 . S
Zn1 O8 1.919 1_455 S
Zn1 O13 1.924 . S
O2 Zn1 1.949 . S
O2 Zn3 1.923 . S
O2 Zn4 1.950 . S
O2 Zn5 1.945 . S
Zn3 O2 1.923 . S
Zn3 O6 1.933 . S
Zn3 O9 1.941 1_455 S
Zn3 O10 1.965 1_455 S
Zn4 O2 1.950 . S
Zn4 O11 1.938 . S
Zn4 O12 1.906 . S
Zn4 O22 1.953 . S
Zn5 O2 1.945 . S
Zn5 O7 1.932 . S
Zn5 O14 1.977 . S
Zn5 O15 1.910 . S
O6 Zn3 1.933 . S
O6 C17 1.226 . S
O7 Zn5 1.932 . S
O7 C17 1.307 . S
O8 Zn1 1.919 1_655 S
O8 C19 1.253 . S
O9 Zn3 1.941 1_655 S
O9 C19 1.283 . S
O10 Zn3 1.965 1_655 S
O10 C18 1.303 . S
O11 Zn4 1.938 . S
O11 C18 1.247 1_455 S
O12 Zn4 1.906 . S
O12 C20 1.304 . S
O13 Zn1 1.924 . S
O13 C21 1.311 . S
O14 Zn5 1.977 . S
O14 C20 1.272 . S
O15 Zn5 1.910 . S
O15 C21 1.231 . S
C16 O0 1.225 . S
C16 O22 1.298 . S
C17 O6 1.226 . S
C17 O7 1.307 . S
C18 O10 1.303 . S
C18 O11 1.247 1_655 S
C19 O8 1.253 . S
C19 O9 1.283 . S
C20 O12 1.304 . S
C20 O14 1.272 . S
C21 O13 1.311 . S
C21 O15 1.231 . S
O22 Zn4 1.953 . S
O22 C16 1.298 . S
O23 Zn24 1.953 . S
O23 C39 1.225 . S
Zn24 O23 1.953 . S
Zn24 O25 1.949 . S
Zn24 O31 1.919 . S
Zn24 O36 1.924 . S
O25 Zn24 1.949 . S
O25 Zn26 1.923 . S
O25 Zn27 1.950 . S
O25 Zn28 1.945 . S
Zn26 O25 1.923 . S
Zn26 O29 1.933 . S
Zn26 O32 1.941 . S
Zn26 O33 1.965 . S
Zn27 O25 1.950 . S
Zn27 O34 1.938 . S
Zn27 O35 1.906 . S
Zn27 O45 1.953 . S
Zn28 O25 1.945 . S
Zn28 O30 1.932 . S
Zn28 O37 1.977 1_545 S
Zn28 O38 1.910 1_545 S
O29 Zn26 1.933 . S
O29 C40 1.226 . S
O30 Zn28 1.932 . S
O30 C40 1.307 . S
O31 Zn24 1.919 . S
O31 C42 1.253 . S
O32 Zn26 1.941 . S
O32 C42 1.283 . S
O33 Zn26 1.965 . S
O33 C41 1.303 . S
O34 Zn27 1.938 . S
O34 C41 1.247 . S
O35 Zn27 1.906 . S
O35 C43 1.304 1_545 S
O36 Zn24 1.924 . S
O36 C44 1.311 1_545 S
O37 Zn28 1.977 1_565 S
O37 C43 1.272 . S
O38 Zn28 1.910 1_565 S
O38 C44 1.231 . S
C39 O23 1.225 . S
C39 O45 1.298 . S
C40 O29 1.226 . S
C40 O30 1.307 . S
C41 O33 1.303 . S
C41 O34 1.247 . S
C42 O31 1.253 . S
C42 O32 1.283 . S
C43 O35 1.304 1_565 S
C43 O37 1.272 . S
C44 O36 1.311 1_565 S
C44 O38 1.231 . S
O45 Zn27 1.953 . S
O45 C39 1.298 . S
O46 Zn47 1.953 . S
O46 C62 1.225 . S
Zn47 O46 1.953 . S
Zn47 O48 1.949 . S
Zn47 O54 1.919 . S
Zn47 O59 1.924 . S
O48 Zn47 1.949 . S
O48 Zn49 1.923 . S
O48 Zn50 1.950 . S
O48 Zn51 1.945 . S
Zn49 O48 1.923 . S
Zn49 O52 1.933 . S
Zn49 O55 1.941 . S
Zn49 O56 1.965 . S
Zn50 O48 1.950 . S
Zn50 O57 1.938 . S
Zn50 O58 1.906 . S
Zn50 O68 1.953 . S
Zn51 O48 1.945 . S
Zn51 O53 1.932 . S
Zn51 O60 1.977 . S
Zn51 O61 1.910 . S
O52 Zn49 1.933 . S
O52 C63 1.226 . S
O53 Zn51 1.932 . S
O53 C63 1.307 . S
O54 Zn47 1.919 . S
O54 C65 1.253 . S
O55 Zn49 1.941 . S
O55 C65 1.283 . S
O56 Zn49 1.965 . S
O56 C64 1.303 . S
O57 Zn50 1.938 . S
O57 C64 1.247 . S
O58 Zn50 1.906 . S
O58 C66 1.304 . S
O59 Zn47 1.924 . S
O59 C67 1.311 . S
O60 Zn51 1.977 . S
O60 C66 1.272 . S
O61 Zn51 1.910 . S
O61 C67 1.231 . S
C62 O46 1.225 . S
C62 O68 1.298 . S
C63 O52 1.226 . S
C63 O53 1.307 . S
C64 O56 1.303 . S
C64 O57 1.247 . S
C65 O54 1.253 . S
C65 O55 1.283 . S
C66 O58 1.304 . S
C66 O60 1.272 . S
C67 O59 1.311 . S
C67 O61 1.231 . S
O68 Zn50 1.953 . S
O68 C62 1.298 . S
H69 C72 0.929 . S
H70 C75 0.929 . S
H71 C77 0.930 . S
C72 H69 0.929 . S
C72 C73 1.398 . S
C72 C74 1.396 . S
C73 C72 1.398 . S
C73 C77 1.407 . S
C74 C72 1.396 . S
C74 C75 1.394 . S
C75 H70 0.929 . S
C75 C74 1.394 . S
C75 C76 1.382 . S
C76 C75 1.382 . S
C76 C77 1.392 . S
C76 N78 1.420 . S
C77 H71 0.930 . S
C77 C73 1.407 . S
C77 C76 1.392 . S
N78 C76 1.420 . S
N78 C79 1.244 . S
C79 N78 1.244 . S
H80 C83 0.929 . S
H81 C86 0.929 . S
H82 C88 0.930 . S
C83 H80 0.929 . S
C83 C84 1.398 . S
C83 C85 1.396 . S
C84 C83 1.398 . S
C84 C88 1.407 . S
C85 C83 1.396 . S
C85 C86 1.394 . S
C86 H81 0.929 . S
C86 C85 1.394 . S
C86 C87 1.382 . S
C87 C86 1.382 . S
C87 C88 1.392 . S
C87 N89 1.420 . S
C88 H82 0.930 . S
C88 C84 1.407 . S
C88 C87 1.392 . S
N89 C87 1.420 . S
N89 C90 1.244 . S
C90 N89 1.244 . S
H91 C94 0.929 . S
H92 C97 0.929 . S
H93 C99 0.930 . S
C94 H91 0.929 . S
C94 C95 1.398 . S
C94 C96 1.396 . S
C95 C94 1.398 . S
C95 C99 1.407 . S
C96 C94 1.396 . S
C96 C97 1.394 . S
C97 H92 0.929 . S
C97 C96 1.394 . S
C97 C98 1.382 . S
C98 C97 1.382 . S
C98 C99 1.392 . S
C98 N100 1.420 . S
C99 H93 0.930 . S
C99 C95 1.407 . S
C99 C98 1.392 . S
N100 C98 1.420 . S
N100 C101 1.244 . S
C101 N100 1.244 . S
H102 C105 0.929 . S
H103 C108 0.929 1_655 S
H104 C110 0.930 . S
C105 H102 0.929 . S
C105 C106 1.398 . S
C105 C107 1.396 . S
C106 C105 1.398 . S
C106 C110 1.407 . S
C107 C105 1.396 . S
C107 C108 1.394 . S
C108 H103 0.929 1_455 S
C108 C107 1.394 . S
C108 C109 1.382 . S
C109 C108 1.382 . S
C109 C110 1.392 . S
C109 N111 1.420 1_455 S
C110 H104 0.930 . S
C110 C106 1.407 . S
C110 C109 1.392 . S
N111 C109 1.420 1_655 S
N111 C112 1.244 . S
C112 N111 1.244 . S
H113 C116 0.929 . S
H114 C119 0.929 1_565 S
H115 C121 0.930 . S
C116 H113 0.929 . S
C116 C117 1.398 . S
C116 C118 1.396 . S
C117 C116 1.398 . S
C117 C121 1.407 . S
C118 C116 1.396 . S
C118 C119 1.394 . S
C119 H114 0.929 1_545 S
C119 C118 1.394 . S
C119 C120 1.382 . S
C120 C119 1.382 . S
C120 C121 1.392 . S
C120 N122 1.420 1_545 S
C121 H115 0.930 . S
C121 C117 1.407 . S
C121 C120 1.392 . S
N122 C120 1.420 1_565 S
N122 C123 1.244 . S
C123 N122 1.244 . S
H124 C127 0.929 . S
H125 C130 0.929 . S
H126 C132 0.930 . S
C127 H124 0.929 . S
C127 C128 1.398 . S
C127 C129 1.396 . S
C128 C127 1.398 . S
C128 C132 1.407 . S
C129 C127 1.396 . S
C129 C130 1.394 . S
C130 H125 0.929 . S
C130 C129 1.394 . S
C130 C131 1.382 . S
C131 C130 1.382 . S
C131 C132 1.392 . S
C131 N133 1.420 . S
C132 H126 0.930 . S
C132 C128 1.407 . S
C132 C131 1.392 . S
N133 C131 1.420 . S
N133 C134 1.244 . S
C134 N133 1.244 . S
H135 C153 0.951 . S
H136 C155 0.951 . S
H137 C157 0.950 . S
H138 C158 0.950 . S
H139 C160 0.950 . S
H140 C163 0.950 . S
H141 C164 0.950 . S
H142 C166 0.950 . S
H143 C167 0.950 . S
H144 C168 0.951 . S
H145 C170 0.951 . S
H146 C172 0.950 . S
H147 C173 0.950 . S
H148 C175 0.950 . S
H149 C178 0.950 . S
H150 C179 0.950 . S
H151 C181 0.950 . S
H152 C182 0.950 . S
C153 H135 0.951 . S
C153 C154 1.366 . S
C153 C155 1.388 . S
C154 C153 1.366 . S
C154 C158 1.385 . S
C155 H136 0.951 . S
C155 C153 1.388 . S
C155 C156 1.366 . S
C156 C155 1.366 . S
C156 C157 1.414 . S
C156 C159 1.499 . S
C157 H137 0.950 . S
C157 C156 1.414 . S
C157 C158 1.374 . S
C158 H138 0.950 . S
C158 C154 1.385 . S
C158 C157 1.374 . S
C159 C156 1.499 . S
C159 C160 1.373 . S
C159 C161 1.389 . S
C160 H139 0.950 . S
C160 C159 1.373 . S
C160 C176 1.377 . S
C161 C159 1.389 . S
C161 C162 1.524 . S
C161 C175 1.377 . S
C162 C161 1.524 . S
C162 C163 1.397 . S
C162 C167 1.363 . S
C163 H140 0.950 . S
C163 C162 1.397 . S
C163 C164 1.334 . S
C164 H141 0.950 . S
C164 C163 1.334 . S
C164 C165 1.287 . S
C165 C164 1.287 . S
C165 C166 1.524 . S
C165 H184 0.913 . S
C166 H142 0.950 . S
C166 C165 1.524 . S
C166 C167 1.415 . S
C167 H143 0.950 . S
C167 C162 1.363 . S
C167 C166 1.415 . S
C168 H144 0.951 . S
C168 C169 1.366 . S
C168 C170 1.388 . S
C169 C168 1.366 . S
C169 C173 1.385 . S
C170 H145 0.951 . S
C170 C168 1.388 . S
C170 C171 1.366 . S
C171 C170 1.366 . S
C171 C172 1.414 . S
C171 C174 1.499 . S
C172 H146 0.950 . S
C172 C171 1.414 . S
C172 C173 1.374 . S
C173 H147 0.950 . S
C173 C169 1.385 . S
C173 C172 1.374 . S
C174 C171 1.499 . S
C174 C175 1.373 . S
C174 C176 1.389 . S
C175 H148 0.950 . S
C175 C161 1.377 . S
C175 C174 1.373 . S
C176 C160 1.377 . S
C176 C174 1.389 . S
C176 C177 1.524 . S
C177 C176 1.524 . S
C177 C178 1.397 . S
C177 C182 1.363 . S
C178 H149 0.950 . S
C178 C177 1.397 . S
C178 C179 1.334 . S
C179 H150 0.950 . S
C179 C178 1.334 . S
C179 C180 1.287 . S
C180 C179 1.287 . S
C180 C181 1.524 . S
C180 H183 0.999 . S
C181 H151 0.950 . S
C181 C180 1.524 . S
C181 C182 1.415 . S
C182 H152 0.950 . S
C182 C177 1.363 . S
C182 C181 1.415 . S
H183 C180 0.999 . S
H184 C165 0.913 . S
H185 C203 0.951 . S
H186 C205 0.951 . S
H187 C207 0.950 . S
H188 C208 0.950 . S
H189 C210 0.950 . S
H190 C213 0.950 . S
H191 C214 0.950 . S
H192 C216 0.950 . S
H193 C217 0.950 . S
H194 C218 0.951 . S
H195 C220 0.951 . S
H196 C222 0.950 . S
H197 C223 0.950 . S
H198 C225 0.950 . S
H199 C228 0.950 . S
H200 C229 0.950 . S
H201 C231 0.950 . S
H202 C232 0.950 . S
C203 H185 0.951 . S
C203 C204 1.366 . S
C203 C205 1.388 . S
C204 C203 1.366 . S
C204 C208 1.385 . S
C205 H186 0.951 . S
C205 C203 1.388 . S
C205 C206 1.366 . S
C206 C205 1.366 . S
C206 C207 1.414 . S
C206 C209 1.499 . S
C207 H187 0.950 . S
C207 C206 1.414 . S
C207 C208 1.374 . S
C208 H188 0.950 . S
C208 C204 1.385 . S
C208 C207 1.374 . S
C209 C206 1.499 . S
C209 C210 1.373 . S
C209 C211 1.389 . S
C210 H189 0.950 . S
C210 C209 1.373 . S
C210 C226 1.377 . S
C211 C209 1.389 . S
C211 C212 1.524 . S
C211 C225 1.377 . S
C212 C211 1.524 . S
C212 C213 1.397 . S
C212 C217 1.363 . S
C213 H190 0.950 . S
C213 C212 1.397 . S
C213 C214 1.334 . S
C214 H191 0.950 . S
C214 C213 1.334 . S
C214 C215 1.287 . S
C215 C214 1.287 . S
C215 C216 1.524 . S
C215 H234 0.913 . S
C216 H192 0.950 . S
C216 C215 1.524 . S
C216 C217 1.415 . S
C217 H193 0.950 . S
C217 C212 1.363 . S
C217 C216 1.415 . S
C218 H194 0.951 . S
C218 C219 1.366 . S
C218 C220 1.388 . S
C219 C218 1.366 . S
C219 C223 1.385 . S
C220 H195 0.951 . S
C220 C218 1.388 . S
C220 C221 1.366 . S
C221 C220 1.366 . S
C221 C222 1.414 . S
C221 C224 1.499 . S
C222 H196 0.950 . S
C222 C221 1.414 . S
C222 C223 1.374 . S
C223 H197 0.950 . S
C223 C219 1.385 . S
C223 C222 1.374 . S
C224 C221 1.499 . S
C224 C225 1.373 . S
C224 C226 1.389 . S
C225 H198 0.950 . S
C225 C211 1.377 . S
C225 C224 1.373 . S
C226 C210 1.377 . S
C226 C224 1.389 . S
C226 C227 1.524 . S
C227 C226 1.524 . S
C227 C228 1.397 . S
C227 C232 1.363 . S
C228 H199 0.950 . S
C228 C227 1.397 . S
C228 C229 1.334 . S
C229 H200 0.950 . S
C229 C228 1.334 . S
C229 C230 1.287 . S
C230 C229 1.287 . S
C230 C231 1.524 . S
C230 H233 0.999 . S
C231 H201 0.950 . S
C231 C230 1.524 . S
C231 C232 1.415 . S
C232 H202 0.950 . S
C232 C227 1.363 . S
C232 C231 1.415 . S
H233 C230 0.999 . S
H234 C215 0.913 . S
H235 C253 0.951 . S
H236 C255 0.951 . S
H237 C257 0.950 . S
H238 C258 0.950 . S
H239 C260 0.950 . S
H240 C263 0.950 . S
H241 C264 0.950 . S
H242 C266 0.950 . S
H243 C267 0.950 . S
H244 C268 0.951 . S
H245 C270 0.951 . S
H246 C272 0.950 . S
H247 C273 0.950 . S
H248 C275 0.950 . S
H249 C278 0.950 . S
H250 C279 0.950 . S
H251 C281 0.950 . S
H252 C282 0.950 . S
C253 H235 0.951 . S
C253 C254 1.366 . S
C253 C255 1.388 . S
C254 C253 1.366 . S
C254 C258 1.385 . S
C255 H236 0.951 . S
C255 C253 1.388 . S
C255 C256 1.366 . S
C256 C255 1.366 . S
C256 C257 1.414 . S
C256 C259 1.499 . S
C257 H237 0.950 . S
C257 C256 1.414 . S
C257 C258 1.374 . S
C258 H238 0.950 . S
C258 C254 1.385 . S
C258 C257 1.374 . S
C259 C256 1.499 . S
C259 C260 1.373 . S
C259 C261 1.389 . S
C260 H239 0.950 . S
C260 C259 1.373 . S
C260 C276 1.377 . S
C261 C259 1.389 . S
C261 C262 1.524 . S
C261 C275 1.377 . S
C262 C261 1.524 . S
C262 C263 1.397 . S
C262 C267 1.363 . S
C263 H240 0.950 . S
C263 C262 1.397 . S
C263 C264 1.334 . S
C264 H241 0.950 . S
C264 C263 1.334 . S
C264 C265 1.287 . S
C265 C264 1.287 . S
C265 C266 1.524 . S
C265 H284 0.913 . S
C266 H242 0.950 . S
C266 C265 1.524 . S
C266 C267 1.415 . S
C267 H243 0.950 . S
C267 C262 1.363 . S
C267 C266 1.415 . S
C268 H244 0.951 . S
C268 C269 1.366 . S
C268 C270 1.388 . S
C269 C268 1.366 . S
C269 C273 1.385 . S
C270 H245 0.951 . S
C270 C268 1.388 . S
C270 C271 1.366 . S
C271 C270 1.366 . S
C271 C272 1.414 . S
C271 C274 1.499 . S
C272 H246 0.950 . S
C272 C271 1.414 . S
C272 C273 1.374 . S
C273 H247 0.950 . S
C273 C269 1.385 . S
C273 C272 1.374 . S
C274 C271 1.499 . S
C274 C275 1.373 . S
C274 C276 1.389 . S
C275 H248 0.950 . S
C275 C261 1.377 . S
C275 C274 1.373 . S
C276 C260 1.377 . S
C276 C274 1.389 . S
C276 C277 1.524 . S
C277 C276 1.524 . S
C277 C278 1.397 . S
C277 C282 1.363 . S
C278 H249 0.950 . S
C278 C277 1.397 . S
C278 C279 1.334 . S
C279 H250 0.950 . S
C279 C278 1.334 . S
C279 C280 1.287 . S
C280 C279 1.287 . S
C280 C281 1.524 . S
C280 H283 0.999 . S
C281 H251 0.950 . S
C281 C280 1.524 . S
C281 C282 1.415 . S
C282 H252 0.950 . S
C282 C277 1.363 . S
C282 C281 1.415 . S
H283 C280 0.999 . S
H284 C265 0.913 . S
H285 C303 0.951 . S
H286 C305 0.951 . S
H287 C307 0.950 . S
H288 C308 0.950 . S
H289 C310 0.950 . S
H290 C313 0.950 . S
H291 C314 0.950 . S
H292 C316 0.950 . S
H293 C317 0.950 . S
H294 C318 0.951 . S
H295 C320 0.951 . S
H296 C322 0.950 . S
H297 C323 0.950 . S
H298 C325 0.950 . S
H299 C328 0.950 . S
H300 C329 0.950 . S
H301 C331 0.950 . S
H302 C332 0.950 . S
C303 H285 0.951 . S
C303 C304 1.366 . S
C303 C305 1.388 . S
C304 C303 1.366 . S
C304 C308 1.385 . S
C305 H286 0.951 . S
C305 C303 1.388 . S
C305 C306 1.366 . S
C306 C305 1.366 . S
C306 C307 1.414 . S
C306 C309 1.499 . S
C307 H287 0.950 . S
C307 C306 1.414 . S
C307 C308 1.374 . S
C308 H288 0.950 . S
C308 C304 1.385 . S
C308 C307 1.374 . S
C309 C306 1.499 . S
C309 C310 1.373 . S
C309 C311 1.389 . S
C310 H289 0.950 . S
C310 C309 1.373 . S
C310 C326 1.377 . S
C311 C309 1.389 . S
C311 C312 1.524 . S
C311 C325 1.377 . S
C312 C311 1.524 . S
C312 C313 1.397 . S
C312 C317 1.363 . S
C313 H290 0.950 . S
C313 C312 1.397 . S
C313 C314 1.334 . S
C314 H291 0.950 . S
C314 C313 1.334 . S
C314 C315 1.287 . S
C315 C314 1.287 . S
C315 C316 1.524 . S
C315 H334 0.913 . S
C316 H292 0.950 . S
C316 C315 1.524 . S
C316 C317 1.415 . S
C317 H293 0.950 . S
C317 C312 1.363 . S
C317 C316 1.415 . S
C318 H294 0.951 . S
C318 C319 1.366 . S
C318 C320 1.388 . S
C319 C318 1.366 . S
C319 C323 1.385 . S
C320 H295 0.951 . S
C320 C318 1.388 . S
C320 C321 1.366 . S
C321 C320 1.366 . S
C321 C322 1.414 . S
C321 C324 1.499 . S
C322 H296 0.950 . S
C322 C321 1.414 . S
C322 C323 1.374 . S
C323 H297 0.950 . S
C323 C319 1.385 . S
C323 C322 1.374 . S
C324 C321 1.499 . S
C324 C325 1.373 . S
C324 C326 1.389 . S
C325 H298 0.950 . S
C325 C311 1.377 . S
C325 C324 1.373 . S
C326 C310 1.377 . S
C326 C324 1.389 . S
C326 C327 1.524 . S
C327 C326 1.524 . S
C327 C328 1.397 . S
C327 C332 1.363 . S
C328 H299 0.950 . S
C328 C327 1.397 . S
C328 C329 1.334 . S
C329 H300 0.950 . S
C329 C328 1.334 . S
C329 C330 1.287 . S
C330 C329 1.287 . S
C330 C331 1.524 . S
C330 H333 0.999 . S
C331 H301 0.950 . S
C331 C330 1.524 . S
C331 C332 1.415 . S
C332 H302 0.950 . S
C332 C327 1.363 . S
C332 C331 1.415 . S
H333 C330 0.999 . S
H334 C315 0.913 . S
H335 C353 0.951 . S
H336 C355 0.951 . S
H337 C357 0.950 . S
H338 C358 0.950 . S
H339 C360 0.950 . S
H340 C363 0.950 . S
H341 C364 0.950 . S
H342 C366 0.950 . S
H343 C367 0.950 . S
H344 C368 0.951 . S
H345 C370 0.951 . S
H346 C372 0.950 . S
H347 C373 0.950 . S
H348 C375 0.950 . S
H349 C378 0.950 . S
H350 C379 0.950 . S
H351 C381 0.950 . S
H352 C382 0.950 . S
C353 H335 0.951 . S
C353 C354 1.366 . S
C353 C355 1.388 . S
C354 C353 1.366 . S
C354 C358 1.385 . S
C355 H336 0.951 . S
C355 C353 1.388 . S
C355 C356 1.366 . S
C356 C355 1.366 . S
C356 C357 1.414 . S
C356 C359 1.499 . S
C357 H337 0.950 . S
C357 C356 1.414 . S
C357 C358 1.374 . S
C358 H338 0.950 . S
C358 C354 1.385 . S
C358 C357 1.374 . S
C359 C356 1.499 . S
C359 C360 1.373 . S
C359 C361 1.389 . S
C360 H339 0.950 . S
C360 C359 1.373 . S
C360 C376 1.377 . S
C361 C359 1.389 . S
C361 C362 1.524 . S
C361 C375 1.377 . S
C362 C361 1.524 . S
C362 C363 1.397 . S
C362 C367 1.363 . S
C363 H340 0.950 . S
C363 C362 1.397 . S
C363 C364 1.334 . S
C364 H341 0.950 . S
C364 C363 1.334 . S
C364 C365 1.287 . S
C365 C364 1.287 . S
C365 C366 1.524 . S
C365 H384 0.913 . S
C366 H342 0.950 . S
C366 C365 1.524 . S
C366 C367 1.415 . S
C367 H343 0.950 . S
C367 C362 1.363 . S
C367 C366 1.415 . S
C368 H344 0.951 . S
C368 C369 1.366 . S
C368 C370 1.388 . S
C369 C368 1.366 . S
C369 C373 1.385 . S
C370 H345 0.951 . S
C370 C368 1.388 . S
C370 C371 1.366 . S
C371 C370 1.366 . S
C371 C372 1.414 . S
C371 C374 1.499 . S
C372 H346 0.950 . S
C372 C371 1.414 . S
C372 C373 1.374 . S
C373 H347 0.950 . S
C373 C369 1.385 . S
C373 C372 1.374 . S
C374 C371 1.499 . S
C374 C375 1.373 . S
C374 C376 1.389 . S
C375 H348 0.950 . S
C375 C361 1.377 . S
C375 C374 1.373 . S
C376 C360 1.377 . S
C376 C374 1.389 . S
C376 C377 1.524 . S
C377 C376 1.524 . S
C377 C378 1.397 . S
C377 C382 1.363 . S
C378 H349 0.950 . S
C378 C377 1.397 . S
C378 C379 1.334 . S
C379 H350 0.950 . S
C379 C378 1.334 . S
C379 C380 1.287 . S
C380 C379 1.287 . S
C380 C381 1.524 . S
C380 H383 0.999 . S
C381 H351 0.950 . S
C381 C380 1.524 . S
C381 C382 1.415 . S
C382 H352 0.950 . S
C382 C377 1.363 . S
C382 C381 1.415 . S
H383 C380 0.999 . S
H384 C365 0.913 . S
H385 C403 0.951 . S
H386 C405 0.951 . S
H387 C407 0.950 . S
H388 C408 0.950 . S
H389 C410 0.950 . S
H390 C413 0.950 . S
H391 C414 0.950 . S
H392 C416 0.950 . S
H393 C417 0.950 . S
H394 C418 0.951 . S
H395 C420 0.951 . S
H396 C422 0.950 . S
H397 C423 0.950 . S
H398 C425 0.950 . S
H399 C428 0.950 . S
H400 C429 0.950 . S
H401 C431 0.950 . S
H402 C432 0.950 . S
C403 H385 0.951 . S
C403 C404 1.366 . S
C403 C405 1.388 . S
C404 C403 1.366 . S
C404 C408 1.385 . S
C405 H386 0.951 . S
C405 C403 1.388 . S
C405 C406 1.366 . S
C406 C405 1.366 . S
C406 C407 1.414 . S
C406 C409 1.499 . S
C407 H387 0.950 . S
C407 C406 1.414 . S
C407 C408 1.374 . S
C408 H388 0.950 . S
C408 C404 1.385 . S
C408 C407 1.374 . S
C409 C406 1.499 . S
C409 C410 1.373 . S
C409 C411 1.389 . S
C410 H389 0.950 . S
C410 C409 1.373 . S
C410 C426 1.377 . S
C411 C409 1.389 . S
C411 C412 1.524 . S
C411 C425 1.377 . S
C412 C411 1.524 . S
C412 C413 1.397 . S
C412 C417 1.363 . S
C413 H390 0.950 . S
C413 C412 1.397 . S
C413 C414 1.334 . S
C414 H391 0.950 . S
C414 C413 1.334 . S
C414 C415 1.287 . S
C415 C414 1.287 . S
C415 C416 1.524 . S
C415 H434 0.913 . S
C416 H392 0.950 . S
C416 C415 1.524 . S
C416 C417 1.415 . S
C417 H393 0.950 . S
C417 C412 1.363 . S
C417 C416 1.415 . S
C418 H394 0.951 . S
C418 C419 1.366 . S
C418 C420 1.388 . S
C419 C418 1.366 . S
C419 C423 1.385 . S
C420 H395 0.951 . S
C420 C418 1.388 . S
C420 C421 1.366 . S
C421 C420 1.366 . S
C421 C422 1.414 . S
C421 C424 1.499 . S
C422 H396 0.950 . S
C422 C421 1.414 . S
C422 C423 1.374 . S
C423 H397 0.950 . S
C423 C419 1.385 . S
C423 C422 1.374 . S
C424 C421 1.499 . S
C424 C425 1.373 . S
C424 C426 1.389 . S
C425 H398 0.950 . S
C425 C411 1.377 . S
C425 C424 1.373 . S
C426 C410 1.377 . S
C426 C424 1.389 . S
C426 C427 1.524 . S
C427 C426 1.524 . S
C427 C428 1.397 . S
C427 C432 1.363 . S
C428 H399 0.950 . S
C428 C427 1.397 . S
C428 C429 1.334 . S
C429 H400 0.950 . S
C429 C428 1.334 . S
C429 C430 1.287 . S
C430 C429 1.287 . S
C430 C431 1.524 . S
C430 H433 0.999 . S
C431 H401 0.950 . S
C431 C430 1.524 . S
C431 C432 1.415 . S
C432 H402 0.950 . S
C432 C427 1.363 . S
C432 C431 1.415 . S
H433 C430 0.999 . S
H434 C415 0.913 . S
H435 C453 0.951 . S
H436 C455 0.951 . S
H437 C457 0.950 . S
H438 C458 0.950 . S
H439 C460 0.950 . S
H440 C463 0.950 . S
H441 C464 0.950 . S
H442 C466 0.950 . S
H443 C467 0.950 . S
H444 C468 0.951 . S
H445 C470 0.951 . S
H446 C472 0.950 . S
H447 C473 0.950 . S
H448 C475 0.950 . S
H449 C478 0.950 . S
H450 C479 0.950 . S
H451 C481 0.950 . S
H452 C482 0.950 . S
C453 H435 0.951 . S
C453 C454 1.366 . S
C453 C455 1.388 . S
C454 C453 1.366 . S
C454 C458 1.385 . S
C455 H436 0.951 . S
C455 C453 1.388 . S
C455 C456 1.366 . S
C456 C455 1.366 . S
C456 C457 1.414 . S
C456 C459 1.499 . S
C457 H437 0.950 . S
C457 C456 1.414 . S
C457 C458 1.374 . S
C458 H438 0.950 . S
C458 C454 1.385 . S
C458 C457 1.374 . S
C459 C456 1.499 . S
C459 C460 1.373 . S
C459 C461 1.389 . S
C460 H439 0.950 . S
C460 C459 1.373 . S
C460 C476 1.377 . S
C461 C459 1.389 . S
C461 C462 1.524 . S
C461 C475 1.377 . S
C462 C461 1.524 . S
C462 C463 1.397 . S
C462 C467 1.363 . S
C463 H440 0.950 . S
C463 C462 1.397 . S
C463 C464 1.334 . S
C464 H441 0.950 . S
C464 C463 1.334 . S
C464 C465 1.287 . S
C465 C464 1.287 . S
C465 C466 1.524 . S
C465 H484 0.913 . S
C466 H442 0.950 . S
C466 C465 1.524 . S
C466 C467 1.415 . S
C467 H443 0.950 . S
C467 C462 1.363 . S
C467 C466 1.415 . S
C468 H444 0.951 . S
C468 C469 1.366 . S
C468 C470 1.388 . S
C469 C468 1.366 . S
C469 C473 1.385 . S
C470 H445 0.951 . S
C470 C468 1.388 . S
C470 C471 1.366 . S
C471 C470 1.366 . S
C471 C472 1.414 . S
C471 C474 1.499 . S
C472 H446 0.950 . S
C472 C471 1.414 . S
C472 C473 1.374 . S
C473 H447 0.950 . S
C473 C469 1.385 . S
C473 C472 1.374 . S
C474 C471 1.499 . S
C474 C475 1.373 . S
C474 C476 1.389 . S
C475 H448 0.950 . S
C475 C461 1.377 . S
C475 C474 1.373 . S
C476 C460 1.377 . S
C476 C474 1.389 . S
C476 C477 1.524 . S
C477 C476 1.524 . S
C477 C478 1.397 . S
C477 C482 1.363 . S
C478 H449 0.950 . S
C478 C477 1.397 . S
C478 C479 1.334 . S
C479 H450 0.950 . S
C479 C478 1.334 . S
C479 C480 1.287 . S
C480 C479 1.287 . S
C480 C481 1.524 . S
C480 H483 0.999 . S
C481 H451 0.950 . S
C481 C480 1.524 . S
C481 C482 1.415 . S
C482 H452 0.950 . S
C482 C477 1.363 . S
C482 C481 1.415 . S
H483 C480 0.999 . S
H484 C465 0.913 . S
H485 C503 0.951 . S
H486 C505 0.951 . S
H487 C507 0.950 . S
H488 C508 0.950 . S
H489 C510 0.950 . S
H490 C513 0.950 . S
H491 C514 0.950 . S
H492 C516 0.950 . S
H493 C517 0.950 . S
H494 C518 0.951 1_455 S
H495 C520 0.951 . S
H496 C522 0.950 . S
H497 C523 0.950 . S
H498 C525 0.950 . S
H499 C528 0.950 . S
H500 C529 0.950 . S
H501 C531 0.950 . S
H502 C532 0.950 . S
C503 H485 0.951 . S
C503 C504 1.366 . S
C503 C505 1.388 . S
C504 C503 1.366 . S
C504 C508 1.385 . S
C505 H486 0.951 . S
C505 C503 1.388 . S
C505 C506 1.366 . S
C506 C505 1.366 . S
C506 C507 1.414 . S
C506 C509 1.499 . S
C507 H487 0.950 . S
C507 C506 1.414 . S
C507 C508 1.374 . S
C508 H488 0.950 . S
C508 C504 1.385 . S
C508 C507 1.374 . S
C509 C506 1.499 . S
C509 C510 1.373 . S
C509 C511 1.389 . S
C510 H489 0.950 . S
C510 C509 1.373 . S
C510 C526 1.377 . S
C511 C509 1.389 . S
C511 C512 1.524 . S
C511 C525 1.377 . S
C512 C511 1.524 . S
C512 C513 1.397 . S
C512 C517 1.363 . S
C513 H490 0.950 . S
C513 C512 1.397 . S
C513 C514 1.334 . S
C514 H491 0.950 . S
C514 C513 1.334 . S
C514 C515 1.287 . S
C515 C514 1.287 . S
C515 C516 1.524 . S
C515 H534 0.913 . S
C516 H492 0.950 . S
C516 C515 1.524 . S
C516 C517 1.415 . S
C517 H493 0.950 . S
C517 C512 1.363 . S
C517 C516 1.415 . S
C518 H494 0.951 1_655 S
C518 C519 1.366 . S
C518 C520 1.388 . S
C519 C518 1.366 . S
C519 C523 1.385 . S
C520 H495 0.951 . S
C520 C518 1.388 . S
C520 C521 1.366 . S
C521 C520 1.366 . S
C521 C522 1.414 . S
C521 C524 1.499 . S
C522 H496 0.950 . S
C522 C521 1.414 . S
C522 C523 1.374 . S
C523 H497 0.950 . S
C523 C519 1.385 . S
C523 C522 1.374 . S
C524 C521 1.499 . S
C524 C525 1.373 . S
C524 C526 1.389 . S
C525 H498 0.950 . S
C525 C511 1.377 . S
C525 C524 1.373 . S
C526 C510 1.377 . S
C526 C524 1.389 . S
C526 C527 1.524 . S
C527 C526 1.524 . S
C527 C528 1.397 . S
C527 C532 1.363 . S
C528 H499 0.950 . S
C528 C527 1.397 . S
C528 C529 1.334 . S
C529 H500 0.950 . S
C529 C528 1.334 . S
C529 C530 1.287 . S
C530 C529 1.287 . S
C530 C531 1.524 . S
C530 H533 0.999 . S
C531 H501 0.950 . S
C531 C530 1.524 . S
C531 C532 1.415 . S
C532 H502 0.950 . S
C532 C527 1.363 . S
C532 C531 1.415 . S
H533 C530 0.999 . S
H534 C515 0.913 . S
H535 C553 0.951 . S
H536 C555 0.951 . S
H537 C557 0.950 . S
H538 C558 0.950 . S
H539 C560 0.950 . S
H540 C563 0.950 . S
H541 C564 0.950 . S
H542 C566 0.950 . S
H543 C567 0.950 . S
H544 C568 0.951 1_545 S
H545 C570 0.951 . S
H546 C572 0.950 . S
H547 C573 0.950 . S
H548 C575 0.950 . S
H549 C578 0.950 . S
H550 C579 0.950 . S
H551 C581 0.950 . S
H552 C582 0.950 . S
C553 H535 0.951 . S
C553 C554 1.366 . S
C553 C555 1.388 . S
C554 C553 1.366 . S
C554 C558 1.385 . S
C555 H536 0.951 . S
C555 C553 1.388 . S
C555 C556 1.366 . S
C556 C555 1.366 . S
C556 C557 1.414 . S
C556 C559 1.499 . S
C557 H537 0.950 . S
C557 C556 1.414 . S
C557 C558 1.374 . S
C558 H538 0.950 . S
C558 C554 1.385 . S
C558 C557 1.374 . S
C559 C556 1.499 . S
C559 C560 1.373 . S
C559 C561 1.389 . S
C560 H539 0.950 . S
C560 C559 1.373 . S
C560 C576 1.377 . S
C561 C559 1.389 . S
C561 C562 1.524 . S
C561 C575 1.377 . S
C562 C561 1.524 . S
C562 C563 1.397 . S
C562 C567 1.363 . S
C563 H540 0.950 . S
C563 C562 1.397 . S
C563 C564 1.334 . S
C564 H541 0.950 . S
C564 C563 1.334 . S
C564 C565 1.287 . S
C565 C564 1.287 . S
C565 C566 1.524 . S
C565 H584 0.913 . S
C566 H542 0.950 . S
C566 C565 1.524 . S
C566 C567 1.415 . S
C567 H543 0.950 . S
C567 C562 1.363 . S
C567 C566 1.415 . S
C568 H544 0.951 1_565 S
C568 C569 1.366 . S
C568 C570 1.388 . S
C569 C568 1.366 . S
C569 C573 1.385 . S
C570 H545 0.951 . S
C570 C568 1.388 . S
C570 C571 1.366 . S
C571 C570 1.366 . S
C571 C572 1.414 . S
C571 C574 1.499 . S
C572 H546 0.950 . S
C572 C571 1.414 . S
C572 C573 1.374 . S
C573 H547 0.950 . S
C573 C569 1.385 . S
C573 C572 1.374 . S
C574 C571 1.499 . S
C574 C575 1.373 . S
C574 C576 1.389 . S
C575 H548 0.950 . S
C575 C561 1.377 . S
C575 C574 1.373 . S
C576 C560 1.377 . S
C576 C574 1.389 . S
C576 C577 1.524 . S
C577 C576 1.524 . S
C577 C578 1.397 . S
C577 C582 1.363 . S
C578 H549 0.950 . S
C578 C577 1.397 . S
C578 C579 1.334 1_565 S
C579 H550 0.950 . S
C579 C578 1.334 1_545 S
C579 C580 1.287 . S
C580 C579 1.287 . S
C580 C581 1.524 1_545 S
C580 H583 0.999 . S
C581 H551 0.950 . S
C581 C580 1.524 1_565 S
C581 C582 1.415 . S
C582 H552 0.950 . S
C582 C577 1.363 . S
C582 C581 1.415 . S
H583 C580 0.999 . S
H584 C565 0.913 . S
H585 C603 0.951 . S
H586 C605 0.951 . S
H587 C607 0.950 . S
H588 C608 0.950 . S
H589 C610 0.950 . S
H590 C613 0.950 . S
H591 C614 0.950 . S
H592 C616 0.950 . S
H593 C617 0.950 . S
H594 C618 0.951 . S
H595 C620 0.951 . S
H596 C622 0.950 . S
H597 C623 0.950 . S
H598 C625 0.950 . S
H599 C628 0.950 . S
H600 C629 0.950 . S
H601 C631 0.950 . S
H602 C632 0.950 . S
C603 H585 0.951 . S
C603 C604 1.366 . S
C603 C605 1.388 . S
C604 C603 1.366 . S
C604 C608 1.385 . S
C605 H586 0.951 . S
C605 C603 1.388 . S
C605 C606 1.366 . S
C606 C605 1.366 . S
C606 C607 1.414 . S
C606 C609 1.499 . S
C607 H587 0.950 . S
C607 C606 1.414 . S
C607 C608 1.374 . S
C608 H588 0.950 . S
C608 C604 1.385 . S
C608 C607 1.374 . S
C609 C606 1.499 . S
C609 C610 1.373 . S
C609 C611 1.389 . S
C610 H589 0.950 . S
C610 C609 1.373 . S
C610 C626 1.377 . S
C611 C609 1.389 . S
C611 C612 1.524 . S
C611 C625 1.377 . S
C612 C611 1.524 . S
C612 C613 1.397 . S
C612 C617 1.363 . S
C613 H590 0.950 . S
C613 C612 1.397 . S
C613 C614 1.334 . S
C614 H591 0.950 . S
C614 C613 1.334 . S
C614 C615 1.287 . S
C615 C614 1.287 . S
C615 C616 1.524 . S
C615 H634 0.913 . S
C616 H592 0.950 . S
C616 C615 1.524 . S
C616 C617 1.415 . S
C617 H593 0.950 . S
C617 C612 1.363 . S
C617 C616 1.415 . S
C618 H594 0.951 . S
C618 C619 1.366 . S
C618 C620 1.388 . S
C619 C618 1.366 . S
C619 C623 1.385 . S
C620 H595 0.951 . S
C620 C618 1.388 . S
C620 C621 1.366 . S
C621 C620 1.366 . S
C621 C622 1.414 . S
C621 C624 1.499 . S
C622 H596 0.950 . S
C622 C621 1.414 . S
C622 C623 1.374 . S
C623 H597 0.950 . S
C623 C619 1.385 . S
C623 C622 1.374 . S
C624 C621 1.499 . S
C624 C625 1.373 . S
C624 C626 1.389 . S
C625 H598 0.950 . S
C625 C611 1.377 . S
C625 C624 1.373 . S
C626 C610 1.377 . S
C626 C624 1.389 . S
C626 C627 1.524 . S
C627 C626 1.524 . S
C627 C628 1.397 . S
C627 C632 1.363 . S
C628 H599 0.950 . S
C628 C627 1.397 . S
C628 C629 1.334 . S
C629 H600 0.950 . S
C629 C628 1.334 . S
C629 C630 1.287 . S
C630 C629 1.287 . S
C630 C631 1.524 . S
C630 H633 0.999 . S
C631 H601 0.950 . S
C631 C630 1.524 . S
C631 C632 1.415 . S
C632 H602 0.950 . S
C632 C627 1.363 . S
C632 C631 1.415 . S
H633 C630 0.999 . S
H634 C615 0.913 . S
H635 C653 0.951 . S
H636 C655 0.951 . S
H637 C657 0.950 . S
H638 C658 0.950 . S
H639 C660 0.950 . S
H640 C663 0.950 . S
H641 C664 0.950 . S
H642 C666 0.950 . S
H643 C667 0.950 . S
H644 C668 0.951 . S
H645 C670 0.951 . S
H646 C672 0.950 . S
H647 C673 0.950 . S
H648 C675 0.950 . S
H649 C678 0.950 . S
H650 C679 0.950 . S
H651 C681 0.950 . S
H652 C682 0.950 . S
C653 H635 0.951 . S
C653 C654 1.366 . S
C653 C655 1.388 . S
C654 C653 1.366 . S
C654 C658 1.385 . S
C655 H636 0.951 . S
C655 C653 1.388 . S
C655 C656 1.366 . S
C656 C655 1.366 . S
C656 C657 1.414 . S
C656 C659 1.499 . S
C657 H637 0.950 . S
C657 C656 1.414 . S
C657 C658 1.374 . S
C658 H638 0.950 . S
C658 C654 1.385 . S
C658 C657 1.374 . S
C659 C656 1.499 . S
C659 C660 1.373 . S
C659 C661 1.389 . S
C660 H639 0.950 . S
C660 C659 1.373 . S
C660 C676 1.377 . S
C661 C659 1.389 . S
C661 C662 1.524 . S
C661 C675 1.377 . S
C662 C661 1.524 . S
C662 C663 1.397 . S
C662 C667 1.363 . S
C663 H640 0.950 . S
C663 C662 1.397 . S
C663 C664 1.334 . S
C664 H641 0.950 . S
C664 C663 1.334 . S
C664 C665 1.287 . S
C665 C664 1.287 . S
C665 C666 1.524 . S
C665 H684 0.913 . S
C666 H642 0.950 . S
C666 C665 1.524 . S
C666 C667 1.415 . S
C667 H643 0.950 . S
C667 C662 1.363 . S
C667 C666 1.415 . S
C668 H644 0.951 . S
C668 C669 1.366 . S
C668 C670 1.388 . S
C669 C668 1.366 . S
C669 C673 1.385 . S
C670 H645 0.951 . S
C670 C668 1.388 . S
C670 C671 1.366 . S
C671 C670 1.366 . S
C671 C672 1.414 . S
C671 C674 1.499 . S
C672 H646 0.950 . S
C672 C671 1.414 . S
C672 C673 1.374 . S
C673 H647 0.950 . S
C673 C669 1.385 . S
C673 C672 1.374 . S
C674 C671 1.499 . S
C674 C675 1.373 . S
C674 C676 1.389 . S
C675 H648 0.950 . S
C675 C661 1.377 . S
C675 C674 1.373 . S
C676 C660 1.377 . S
C676 C674 1.389 . S
C676 C677 1.524 . S
C677 C676 1.524 . S
C677 C678 1.397 . S
C677 C682 1.363 . S
C678 H649 0.950 . S
C678 C677 1.397 . S
C678 C679 1.334 . S
C679 H650 0.950 . S
C679 C678 1.334 . S
C679 C680 1.287 . S
C680 C679 1.287 . S
C680 C681 1.524 . S
C680 H683 0.999 . S
C681 H651 0.950 . S
C681 C680 1.524 . S
C681 C682 1.415 . S
C682 H652 0.950 . S
C682 C677 1.363 . S
C682 C681 1.415 . S
H683 C680 0.999 . S
H684 C665 0.913 . S
H685 C703 0.951 . S
H686 C705 0.951 . S
H687 C707 0.950 . S
H688 C708 0.950 . S
H689 C710 0.950 . S
H690 C713 0.950 . S
H691 C714 0.950 . S
H692 C716 0.950 . S
H693 C717 0.950 . S
H694 C718 0.951 . S
H695 C720 0.951 . S
H696 C722 0.950 . S
H697 C723 0.950 . S
H698 C725 0.950 . S
H699 C728 0.950 . S
H700 C729 0.950 . S
H701 C731 0.950 . S
H702 C732 0.950 . S
C703 H685 0.951 . S
C703 C704 1.366 . S
C703 C705 1.388 . S
C704 C703 1.366 . S
C704 C708 1.385 . S
C705 H686 0.951 . S
C705 C703 1.388 . S
C705 C706 1.366 . S
C706 C705 1.366 . S
C706 C707 1.414 . S
C706 C709 1.499 . S
C707 H687 0.950 . S
C707 C706 1.414 . S
C707 C708 1.374 . S
C708 H688 0.950 . S
C708 C704 1.385 . S
C708 C707 1.374 . S
C709 C706 1.499 . S
C709 C710 1.373 . S
C709 C711 1.389 . S
C710 H689 0.950 . S
C710 C709 1.373 . S
C710 C726 1.377 . S
C711 C709 1.389 . S
C711 C712 1.524 . S
C711 C725 1.377 . S
C712 C711 1.524 . S
C712 C713 1.397 . S
C712 C717 1.363 . S
C713 H690 0.950 . S
C713 C712 1.397 . S
C713 C714 1.334 . S
C714 H691 0.950 . S
C714 C713 1.334 . S
C714 C715 1.287 . S
C715 C714 1.287 . S
C715 C716 1.524 . S
C715 H734 0.913 . S
C716 H692 0.950 . S
C716 C715 1.524 . S
C716 C717 1.415 . S
C717 H693 0.950 . S
C717 C712 1.363 . S
C717 C716 1.415 . S
C718 H694 0.951 . S
C718 C719 1.366 . S
C718 C720 1.388 . S
C719 C718 1.366 . S
C719 C723 1.385 . S
C720 H695 0.951 . S
C720 C718 1.388 . S
C720 C721 1.366 . S
C721 C720 1.366 . S
C721 C722 1.414 . S
C721 C724 1.499 . S
C722 H696 0.950 . S
C722 C721 1.414 . S
C722 C723 1.374 . S
C723 H697 0.950 . S
C723 C719 1.385 . S
C723 C722 1.374 . S
C724 C721 1.499 . S
C724 C725 1.373 . S
C724 C726 1.389 . S
C725 H698 0.950 . S
C725 C711 1.377 . S
C725 C724 1.373 . S
C726 C710 1.377 . S
C726 C724 1.389 . S
C726 C727 1.524 . S
C727 C726 1.524 . S
C727 C728 1.397 . S
C727 C732 1.363 . S
C728 H699 0.950 . S
C728 C727 1.397 . S
C728 C729 1.334 . S
C729 H700 0.950 . S
C729 C728 1.334 . S
C729 C730 1.287 . S
C730 C729 1.287 . S
C730 C731 1.524 . S
C730 H733 0.999 . S
C731 H701 0.950 . S
C731 C730 1.524 . S
C731 C732 1.415 . S
C732 H702 0.950 . S
C732 C727 1.363 . S
C732 C731 1.415 . S
H733 C730 0.999 . S
H734 C715 0.913 . S
H735 C753 0.951 1_655 S
H736 C755 0.951 1_655 S
H737 C757 0.950 . S
H738 C758 0.950 . S
H739 C760 0.950 . S
H740 C763 0.933 1_455 S
H741 C764 0.950 . S
H742 C766 0.950 . S
H743 C767 0.950 . S
H744 C768 0.951 . S
H745 C770 0.951 . S
H746 C772 0.950 . S
H747 C773 0.950 . S
H748 C775 0.950 . S
H749 C778 0.950 . S
H750 C779 0.950 . S
H751 C781 0.950 . S
H752 C782 0.950 . S
C753 H735 0.951 1_455 S
C753 C754 1.366 . S
C753 C755 1.388 . S
C754 C753 1.366 . S
C754 C758 1.385 . S
C755 H736 0.951 1_455 S
C755 C753 1.388 . S
C755 C756 1.366 . S
C756 C755 1.366 . S
C756 C757 1.414 . S
C756 C759 1.499 . S
C757 H737 0.950 . S
C757 C756 1.414 . S
C757 C758 1.374 . S
C758 H738 0.950 . S
C758 C754 1.385 . S
C758 C757 1.374 . S
C759 C756 1.499 . S
C759 C760 1.373 . S
C759 C761 1.389 . S
C760 H739 0.950 . S
C760 C759 1.373 . S
C760 C776 1.377 . S
C761 C759 1.389 . S
C761 C762 1.524 1_455 S
C761 C775 1.377 . S
C762 C761 1.524 1_655 S
C762 C763 1.406 . S
C762 C767 1.363 . S
C763 H740 0.933 1_655 S
C763 C762 1.406 . S
C763 C764 1.341 . S
C764 H741 0.950 . S
C764 C763 1.341 . S
C764 C765 1.287 . S
C765 C764 1.287 . S
C765 C766 1.524 . S
C765 H784 0.913 . S
C766 H742 0.950 . S
C766 C765 1.524 . S
C766 C767 1.415 . S
C767 H743 0.950 . S
C767 C762 1.363 . S
C767 C766 1.415 . S
C768 H744 0.951 . S
C768 C769 1.366 . S
C768 C770 1.388 . S
C769 C768 1.366 . S
C769 C773 1.385 . S
C770 H745 0.951 . S
C770 C768 1.388 . S
C770 C771 1.366 . S
C771 C770 1.366 . S
C771 C772 1.414 . S
C771 C774 1.480 1_556 S
C772 H746 0.950 . S
C772 C771 1.414 . S
C772 C773 1.374 . S
C773 H747 0.950 . S
C773 C769 1.385 . S
C773 C772 1.374 . S
C774 C771 1.480 1_554 S
C774 C775 1.383 . S
C774 C776 1.399 . S
C775 H748 0.950 . S
C775 C761 1.377 . S
C775 C774 1.383 . S
C776 C760 1.377 . S
C776 C774 1.399 . S
C776 C777 1.524 . S
C777 C776 1.524 . S
C777 C778 1.397 1_554 S
C777 C782 1.363 . S
C778 H749 0.950 . S
C778 C777 1.397 1_556 S
C778 C779 1.334 . S
C779 H750 0.950 . S
C779 C778 1.334 . S
C779 C780 1.287 . S
C780 C779 1.287 . S
C780 C781 1.524 1_556 S
C780 H783 0.999 . S
C781 H751 0.950 . S
C781 C780 1.524 1_554 S
C781 C782 1.415 . S
C782 H752 0.950 . S
C782 C777 1.363 . S
C782 C781 1.415 . S
H783 C780 0.999 . S
H784 C765 0.913 . S
H785 C803 0.951 1_565 S
H786 C805 0.951 1_565 S
H787 C807 0.950 . S
H788 C808 0.950 . S
H789 C810 0.950 . S
H790 C813 0.950 . S
H791 C814 0.950 . S
H792 C816 0.950 . S
H793 C817 0.950 . S
H794 C818 0.951 . S
H795 C820 0.951 . S
H796 C822 0.950 . S
H797 C823 0.950 . S
H798 C825 0.950 . S
H799 C828 0.950 . S
H800 C829 0.950 . S
H801 C831 0.950 . S
H802 C832 0.950 . S
C803 H785 0.951 1_545 S
C803 C804 1.366 . S
C803 C805 1.388 . S
C804 C803 1.366 . S
C804 C808 1.385 . S
C805 H786 0.951 1_545 S
C805 C803 1.388 . S
C805 C806 1.366 . S
C806 C805 1.366 . S
C806 C807 1.414 . S
C806 C809 1.499 . S
C807 H787 0.950 . S
C807 C806 1.414 . S
C807 C808 1.374 . S
C808 H788 0.950 . S
C808 C804 1.385 . S
C808 C807 1.374 . S
C809 C806 1.499 . S
C809 C810 1.373 . S
C809 C811 1.389 . S
C810 H789 0.950 . S
C810 C809 1.373 . S
C810 C826 1.377 . S
C811 C809 1.389 . S
C811 C812 1.524 . S
C811 C825 1.377 . S
C812 C811 1.524 . S
C812 C813 1.397 . S
C812 C817 1.363 1_545 S
C813 H790 0.950 . S
C813 C812 1.397 . S
C813 C814 1.334 . S
C814 H791 0.950 . S
C814 C813 1.334 . S
C814 C815 1.287 1_545 S
C815 C814 1.287 1_565 S
C815 C816 1.524 . S
C815 H834 0.913 . S
C816 H792 0.950 . S
C816 C815 1.524 . S
C816 C817 1.415 . S
C817 H793 0.950 . S
C817 C812 1.363 1_565 S
C817 C816 1.415 . S
C818 H794 0.951 . S
C818 C819 1.366 . S
C818 C820 1.388 . S
C819 C818 1.366 . S
C819 C823 1.385 . S
C820 H795 0.951 . S
C820 C818 1.388 . S
C820 C821 1.366 . S
C821 C820 1.366 . S
C821 C822 1.414 . S
C821 C824 1.499 . S
C822 H796 0.950 . S
C822 C821 1.414 . S
C822 C823 1.374 . S
C823 H797 0.950 . S
C823 C819 1.385 . S
C823 C822 1.374 . S
C824 C821 1.499 . S
C824 C825 1.373 . S
C824 C826 1.389 . S
C825 H798 0.950 . S
C825 C811 1.377 . S
C825 C824 1.373 . S
C826 C810 1.377 . S
C826 C824 1.389 . S
C826 C827 1.524 . S
C827 C826 1.524 . S
C827 C828 1.397 . S
C827 C832 1.363 . S
C828 H799 0.950 . S
C828 C827 1.397 . S
C828 C829 1.334 . S
C829 H800 0.950 . S
C829 C828 1.334 . S
C829 C830 1.287 . S
C830 C829 1.287 . S
C830 C831 1.524 . S
C830 H833 0.999 . S
C831 H801 0.950 . S
C831 C830 1.524 . S
C831 C832 1.415 . S
C832 H802 0.950 . S
C832 C827 1.363 . S
C832 C831 1.415 . S
H833 C830 0.999 . S
H834 C815 0.913 . S
H835 C853 0.951 . S
H836 C855 0.951 . S
H837 C857 0.950 . S
H838 C858 0.950 . S
H839 C860 0.950 . S
H840 C863 0.950 . S
H841 C864 0.950 . S
H842 C866 0.950 . S
H843 C867 0.950 . S
H844 C868 0.951 . S
H845 C870 0.951 . S
H846 C872 0.950 . S
H847 C873 0.950 . S
H848 C875 0.950 . S
H849 C878 0.950 . S
H850 C879 0.950 . S
H851 C881 0.950 . S
H852 C882 0.950 . S
C853 H835 0.951 . S
C853 C854 1.366 . S
C853 C855 1.388 . S
C854 C853 1.366 . S
C854 C858 1.385 . S
C855 H836 0.951 . S
C855 C853 1.388 . S
C855 C856 1.366 . S
C856 C855 1.366 . S
C856 C857 1.414 . S
C856 C859 1.499 . S
C857 H837 0.950 . S
C857 C856 1.414 . S
C857 C858 1.374 . S
C858 H838 0.950 . S
C858 C854 1.385 . S
C858 C857 1.374 . S
C859 C856 1.499 . S
C859 C860 1.373 . S
C859 C861 1.389 . S
C860 H839 0.950 . S
C860 C859 1.373 . S
C860 C876 1.377 . S
C861 C859 1.389 . S
C861 C862 1.524 . S
C861 C875 1.377 . S
C862 C861 1.524 . S
C862 C863 1.397 . S
C862 C867 1.363 . S
C863 H840 0.950 . S
C863 C862 1.397 . S
C863 C864 1.334 . S
C864 H841 0.950 . S
C864 C863 1.334 . S
C864 C865 1.287 . S
C865 C864 1.287 . S
C865 C866 1.524 . S
C865 H884 0.913 . S
C866 H842 0.950 . S
C866 C865 1.524 . S
C866 C867 1.415 . S
C867 H843 0.950 . S
C867 C862 1.363 . S
C867 C866 1.415 . S
C868 H844 0.951 . S
C868 C869 1.366 . S
C868 C870 1.388 . S
C869 C868 1.366 . S
C869 C873 1.385 . S
C870 H845 0.951 . S
C870 C868 1.388 . S
C870 C871 1.366 . S
C871 C870 1.366 . S
C871 C872 1.414 . S
C871 C874 1.499 . S
C872 H846 0.950 . S
C872 C871 1.414 . S
C872 C873 1.374 . S
C873 H847 0.950 . S
C873 C869 1.385 . S
C873 C872 1.374 . S
C874 C871 1.499 . S
C874 C875 1.373 . S
C874 C876 1.389 . S
C875 H848 0.950 . S
C875 C861 1.377 . S
C875 C874 1.373 . S
C876 C860 1.377 . S
C876 C874 1.389 . S
C876 C877 1.524 . S
C877 C876 1.524 . S
C877 C878 1.397 . S
C877 C882 1.363 . S
C878 H849 0.950 . S
C878 C877 1.397 . S
C878 C879 1.334 . S
C879 H850 0.950 . S
C879 C878 1.334 . S
C879 C880 1.287 . S
C880 C879 1.287 . S
C880 C881 1.524 . S
C880 H883 0.999 . S
C881 H851 0.950 . S
C881 C880 1.524 . S
C881 C882 1.415 . S
C882 H852 0.950 . S
C882 C877 1.363 . S
C882 C881 1.415 . S
H883 C880 0.999 . S
H884 C865 0.913 . S
H885 C903 0.951 . S
H886 C905 0.951 . S
H887 C907 0.950 1_565 S
H888 C908 0.950 . S
H889 C910 0.950 . S
H890 C913 0.950 . S
H891 C914 0.950 . S
H892 C916 0.950 . S
H893 C917 0.950 . S
H894 C918 0.951 1_565 S
H895 C920 0.951 1_565 S
H896 C922 0.950 . S
H897 C923 0.950 . S
H898 C925 0.950 . S
H899 C928 0.950 . S
H900 C929 0.950 . S
H901 C931 0.950 1_565 S
H902 C932 0.950 1_565 S
C903 H885 0.951 . S
C903 C904 1.366 . S
C903 C905 1.388 . S
C904 C903 1.366 . S
C904 C908 1.385 . S
C905 H886 0.951 . S
C905 C903 1.388 . S
C905 C906 1.366 . S
C906 C905 1.366 . S
C906 C907 1.414 . S
C906 C909 1.499 . S
C907 H887 0.950 1_545 S
C907 C906 1.414 . S
C907 C908 1.374 . S
C908 H888 0.950 . S
C908 C904 1.385 . S
C908 C907 1.374 . S
C909 C906 1.499 . S
C909 C910 1.373 . S
C909 C911 1.389 . S
C910 H889 0.950 . S
C910 C909 1.373 . S
C910 C926 1.377 . S
C911 C909 1.389 . S
C911 C912 1.524 . S
C911 C925 1.377 . S
C912 C911 1.524 . S
C912 C913 1.397 . S
C912 C917 1.363 . S
C913 H890 0.950 . S
C913 C912 1.397 . S
C913 C914 1.334 . S
C914 H891 0.950 . S
C914 C913 1.334 . S
C914 C915 1.287 . S
C915 C914 1.287 . S
C915 C916 1.524 . S
C915 H934 0.913 . S
C916 H892 0.950 . S
C916 C915 1.524 . S
C916 C917 1.415 . S
C917 H893 0.950 . S
C917 C912 1.363 . S
C917 C916 1.415 . S
C918 H894 0.951 1_545 S
C918 C919 1.366 . S
C918 C920 1.388 . S
C919 C918 1.366 . S
C919 C923 1.385 . S
C920 H895 0.951 1_545 S
C920 C918 1.388 . S
C920 C921 1.366 . S
C921 C920 1.366 . S
C921 C922 1.414 . S
C921 C924 1.499 . S
C922 H896 0.950 . S
C922 C921 1.414 . S
C922 C923 1.374 . S
C923 H897 0.950 . S
C923 C919 1.385 . S
C923 C922 1.374 . S
C924 C921 1.499 . S
C924 C925 1.373 . S
C924 C926 1.389 . S
C925 H898 0.950 . S
C925 C911 1.377 . S
C925 C924 1.373 . S
C926 C910 1.377 . S
C926 C924 1.389 . S
C926 C927 1.524 . S
C927 C926 1.524 . S
C927 C928 1.397 . S
C927 C932 1.363 . S
C928 H899 0.950 . S
C928 C927 1.397 . S
C928 C929 1.334 . S
C929 H900 0.950 . S
C929 C928 1.334 . S
C929 C930 1.287 . S
C930 C929 1.287 . S
C930 C931 1.524 . S
C930 H933 0.999 . S
C931 H901 0.950 1_545 S
C931 C930 1.524 . S
C931 C932 1.415 . S
C932 H902 0.950 1_545 S
C932 C927 1.363 . S
C932 C931 1.415 . S
H933 C930 0.999 . S
H934 C915 0.913 . S
H935 C953 0.951 . S
H936 C955 0.951 . S
H937 C957 0.950 . S
H938 C958 0.950 . S
H939 C960 0.950 . S
H940 C963 0.950 . S
H941 C964 0.950 . S
H942 C966 0.950 . S
H943 C967 0.950 . S
H944 C968 0.951 . S
H945 C970 0.951 . S
H946 C972 0.950 . S
H947 C973 0.950 . S
H948 C975 0.950 . S
H949 C978 0.950 . S
H950 C979 0.950 . S
H951 C981 0.950 . S
H952 C982 0.950 . S
C953 H935 0.951 . S
C953 C954 1.366 . S
C953 C955 1.388 . S
C954 C953 1.366 . S
C954 C958 1.385 . S
C955 H936 0.951 . S
C955 C953 1.388 . S
C955 C956 1.366 . S
C956 C955 1.366 . S
C956 C957 1.414 . S
C956 C959 1.499 . S
C957 H937 0.950 . S
C957 C956 1.414 . S
C957 C958 1.374 . S
C958 H938 0.950 . S
C958 C954 1.385 . S
C958 C957 1.374 . S
C959 C956 1.499 . S
C959 C960 1.373 . S
C959 C961 1.389 . S
C960 H939 0.950 . S
C960 C959 1.373 . S
C960 C976 1.377 . S
C961 C959 1.389 . S
C961 C962 1.524 . S
C961 C975 1.377 . S
C962 C961 1.524 . S
C962 C963 1.397 . S
C962 C967 1.363 . S
C963 H940 0.950 . S
C963 C962 1.397 . S
C963 C964 1.334 . S
C964 H941 0.950 . S
C964 C963 1.334 . S
C964 C965 1.287 . S
C965 C964 1.287 . S
C965 C966 1.524 . S
C965 H984 0.913 . S
C966 H942 0.950 . S
C966 C965 1.524 . S
C966 C967 1.415 . S
C967 H943 0.950 . S
C967 C962 1.363 . S
C967 C966 1.415 . S
C968 H944 0.951 . S
C968 C969 1.366 . S
C968 C970 1.388 . S
C969 C968 1.366 . S
C969 C973 1.385 . S
C970 H945 0.951 . S
C970 C968 1.388 . S
C970 C971 1.366 . S
C971 C970 1.366 . S
C971 C972 1.414 . S
C971 C974 1.499 1_554 S
C972 H946 0.950 . S
C972 C971 1.414 . S
C972 C973 1.374 . S
C973 H947 0.950 . S
C973 C969 1.385 . S
C973 C972 1.374 . S
C974 C971 1.499 1_556 S
C974 C975 1.373 . S
C974 C976 1.389 . S
C975 H948 0.950 . S
C975 C961 1.377 . S
C975 C974 1.373 . S
C976 C960 1.377 . S
C976 C974 1.389 . S
C976 C977 1.524 . S
C977 C976 1.524 . S
C977 C978 1.397 1_556 S
C977 C982 1.363 . S
C978 H949 0.950 . S
C978 C977 1.397 1_554 S
C978 C979 1.334 . S
C979 H950 0.950 . S
C979 C978 1.334 . S
C979 C980 1.287 . S
C980 C979 1.287 . S
C980 C981 1.524 1_554 S
C980 H983 0.999 . S
C981 H951 0.950 . S
C981 C980 1.524 1_556 S
C981 C982 1.415 . S
C982 H952 0.950 . S
C982 C977 1.363 . S
C982 C981 1.415 . S
H983 C980 0.999 . S
H984 C965 0.913 . S
H985 C1003 0.951 . S
H986 C1005 0.951 . S
H987 C1007 0.950 . S
H988 C1008 0.950 . S
H989 C1010 0.950 . S
H990 C1013 0.950 . S
H991 C1014 0.950 . S
H992 C1016 0.950 . S
H993 C1017 0.950 . S
H994 C1018 0.951 . S
H995 C1020 0.951 . S
H996 C1022 0.950 . S
H997 C1023 0.950 . S
H998 C1025 0.950 1_655 S
H999 C1028 0.950 . S
H1000 C1029 0.950 . S
H1001 C1031 0.950 . S
H1002 C1032 0.950 . S
C1003 H985 0.951 . S
C1003 C1004 1.366 . S
C1003 C1005 1.388 . S
C1004 C1003 1.366 . S
C1004 C1008 1.385 . S
C1005 H986 0.951 . S
C1005 C1003 1.388 . S
C1005 C1006 1.366 . S
C1006 C1005 1.366 . S
C1006 C1007 1.414 . S
C1006 C1009 1.499 . S
C1007 H987 0.950 . S
C1007 C1006 1.414 . S
C1007 C1008 1.374 . S
C1008 H988 0.950 . S
C1008 C1004 1.385 . S
C1008 C1007 1.374 . S
C1009 C1006 1.499 . S
C1009 C1010 1.373 . S
C1009 C1011 1.389 . S
C1010 H989 0.950 . S
C1010 C1009 1.373 . S
C1010 C1026 1.377 . S
C1011 C1009 1.389 . S
C1011 C1012 1.524 1_455 S
C1011 C1025 1.377 . S
C1012 C1011 1.524 1_655 S
C1012 C1013 1.397 . S
C1012 C1017 1.363 . S
C1013 H990 0.950 . S
C1013 C1012 1.397 . S
C1013 C1014 1.334 . S
C1014 H991 0.950 . S
C1014 C1013 1.334 . S
C1014 C1015 1.287 . S
C1015 C1014 1.287 . S
C1015 C1016 1.524 . S
C1015 H1034 0.913 . S
C1016 H992 0.950 . S
C1016 C1015 1.524 . S
C1016 C1017 1.415 . S
C1017 H993 0.950 . S
C1017 C1012 1.363 . S
C1017 C1016 1.415 . S
C1018 H994 0.951 . S
C1018 C1019 1.366 . S
C1018 C1020 1.388 . S
C1019 C1018 1.366 . S
C1019 C1023 1.385 . S
C1020 H995 0.951 . S
C1020 C1018 1.388 . S
C1020 C1021 1.366 . S
C1021 C1020 1.366 . S
C1021 C1022 1.414 . S
C1021 C1024 1.499 . S
C1022 H996 0.950 . S
C1022 C1021 1.414 . S
C1022 C1023 1.374 . S
C1023 H997 0.950 . S
C1023 C1019 1.385 . S
C1023 C1022 1.374 . S
C1024 C1021 1.499 . S
C1024 C1025 1.373 . S
C1024 C1026 1.389 . S
C1025 H998 0.950 1_455 S
C1025 C1011 1.377 . S
C1025 C1024 1.373 . S
C1026 C1010 1.377 . S
C1026 C1024 1.389 . S
C1026 C1027 1.524 . S
C1027 C1026 1.524 . S
C1027 C1028 1.397 . S
C1027 C1032 1.363 . S
C1028 H999 0.950 . S
C1028 C1027 1.397 . S
C1028 C1029 1.334 . S
C1029 H1000 0.950 . S
C1029 C1028 1.334 . S
C1029 C1030 1.287 . S
C1030 C1029 1.287 . S
C1030 C1031 1.524 . S
C1030 H1033 0.999 . S
C1031 H1001 0.950 . S
C1031 C1030 1.524 . S
C1031 C1032 1.415 . S
C1032 H1002 0.950 . S
C1032 C1027 1.363 . S
C1032 C1031 1.415 . S
H1033 C1030 0.999 . S
H1034 C1015 0.913 . S
C154 C20 1.209 . S
C169 C134 1.218 . S
C204 C41 1.232 . S
C219 C112 1.219 . S
C254 C64 1.248 . S
C269 C123 1.234 . S
C304 C19 1.165 . S
C319 C128 1.212 . S
C369 C106 1.175 . S
C354 C44 1.171 . S
C419 C117 1.140 . S
C404 C67 1.139 . S
C454 C43 1.199 . S
C469 C90 1.209 . S
C504 C66 1.092 . S
C519 C95 1.119 1_655 S
C554 C21 1.169 . S
C569 C73 1.173 1_565 S
C619 C84 1.197 . S
C604 C42 1.154 . S
C669 C101 1.233 . S
C654 C65 1.210 . S
C704 C18 1.233 . S
C719 C79 1.219 . S
C769 C96 1.518 . S
C754 C17 1.519 . S
C804 C39 1.528 . S
C819 C74 1.522 . S
C854 C62 1.535 . S
C869 C85 1.529 . S
C919 C118 1.507 . S
C904 C40 1.508 . S
C969 C129 1.515 . S
C954 C63 1.521 . S
C1004 C16 1.525 . S
C1019 C107 1.518 . S
